# Generated by pormake.
# Topology pyr, (3,6)-cn, num edge types: 1
# Building blocks:
#     Node 0, Type 0, BuildingBlock: PAMTOO_clean_linker_0, # of connection points: 3
#     Node 1, Type 0, BuildingBlock: PAMTOO_clean_linker_0, # of connection points: 3
#     Node 2, Type 0, BuildingBlock: PAMTOO_clean_linker_0, # of connection points: 3
#     Node 3, Type 0, BuildingBlock: PAMTOO_clean_linker_0, # of connection points: 3
#     Node 4, Type 0, BuildingBlock: PAMTOO_clean_linker_0, # of connection points: 3
#     Node 5, Type 0, BuildingBlock: PAMTOO_clean_linker_0, # of connection points: 3
#     Node 6, Type 0, BuildingBlock: PAMTOO_clean_linker_0, # of connection points: 3
#     Node 7, Type 0, BuildingBlock: PAMTOO_clean_linker_0, # of connection points: 3
#     Node 8, Type 1, BuildingBlock: BETFAJ_clean_sbu_0, # of connection points: 6
#     Node 9, Type 1, BuildingBlock: BETFAJ_clean_sbu_0, # of connection points: 6
#     Node 10, Type 1, BuildingBlock: BETFAJ_clean_sbu_0, # of connection points: 6
#     Node 11, Type 1, BuildingBlock: BETFAJ_clean_sbu_0, # of connection points: 6
#     Edge 12, Type (0, 1), BuildingBlock: CIFDUS_clean_linker_0, # of connection points: 2
#     Edge 13, Type (0, 1), BuildingBlock: CIFDUS_clean_linker_0, # of connection points: 2
#     Edge 14, Type (0, 1), BuildingBlock: CIFDUS_clean_linker_0, # of connection points: 2
#     Edge 15, Type (0, 1), BuildingBlock: CIFDUS_clean_linker_0, # of connection points: 2
#     Edge 16, Type (0, 1), BuildingBlock: CIFDUS_clean_linker_0, # of connection points: 2
#     Edge 17, Type (0, 1), BuildingBlock: CIFDUS_clean_linker_0, # of connection points: 2
#     Edge 18, Type (0, 1), BuildingBlock: CIFDUS_clean_linker_0, # of connection points: 2
#     Edge 19, Type (0, 1), BuildingBlock: CIFDUS_clean_linker_0, # of connection points: 2
#     Edge 20, Type (0, 1), BuildingBlock: CIFDUS_clean_linker_0, # of connection points: 2
#     Edge 21, Type (0, 1), BuildingBlock: CIFDUS_clean_linker_0, # of connection points: 2
#     Edge 22, Type (0, 1), BuildingBlock: CIFDUS_clean_linker_0, # of connection points: 2
#     Edge 23, Type (0, 1), BuildingBlock: CIFDUS_clean_linker_0, # of connection points: 2
#     Edge 24, Type (0, 1), BuildingBlock: CIFDUS_clean_linker_0, # of connection points: 2
#     Edge 25, Type (0, 1), BuildingBlock: CIFDUS_clean_linker_0, # of connection points: 2
#     Edge 26, Type (0, 1), BuildingBlock: CIFDUS_clean_linker_0, # of connection points: 2
#     Edge 27, Type (0, 1), BuildingBlock: CIFDUS_clean_linker_0, # of connection points: 2
#     Edge 28, Type (0, 1), BuildingBlock: CIFDUS_clean_linker_0, # of connection points: 2
#     Edge 29, Type (0, 1), BuildingBlock: CIFDUS_clean_linker_0, # of connection points: 2
#     Edge 30, Type (0, 1), BuildingBlock: CIFDUS_clean_linker_0, # of connection points: 2
#     Edge 31, Type (0, 1), BuildingBlock: CIFDUS_clean_linker_0, # of connection points: 2
#     Edge 32, Type (0, 1), BuildingBlock: CIFDUS_clean_linker_0, # of connection points: 2
#     Edge 33, Type (0, 1), BuildingBlock: CIFDUS_clean_linker_0, # of connection points: 2
#     Edge 34, Type (0, 1), BuildingBlock: CIFDUS_clean_linker_0, # of connection points: 2
#     Edge 35, Type (0, 1), BuildingBlock: CIFDUS_clean_linker_0, # of connection points: 2
# Relax obj value: 0.207
# Max RMSD: 0.232
# Mean RMSD: 0.151
data_MOF--net-pyr--node1-BETFAJ_clean_sbu_0--node2-PAMTOO_clean_linker_0--edge1-CIFDUS_clean_linker_0
_symmetry_space_group_name_H-M    P1
_symmetry_Int_Tables_number       1
_symmetry_cell_setting            triclinic
loop_
_symmetry_equiv_pos_as_xyz
'x, y, z'
_cell_length_a     33.013179
_cell_length_b     35.342139
_cell_length_c     31.365609
_cell_angle_alpha  92.199096
_cell_angle_beta   89.330967
_cell_angle_gamma 107.76195
loop_
_atom_site_label
_atom_site_type_symbol
_atom_site_fract_x
_atom_site_fract_y
_atom_site_fract_z
_atom_type_partial_charge
H0 H 0.3332 0.36173 0.2969 0.0
H1 H 0.41611 0.28875 0.28238 0.0
H2 H 0.4328 0.38891 0.2033 0.0
H3 H 0.46579 0.32621 0.15519 0.0
C4 C 0.45163 0.3064 0.18167 0.0
O5 O 0.45968 0.32841 0.21971 0.0
H6 H 0.41679 0.29446 0.17523 0.0
C7 C 0.36118 0.35622 0.28297 0.0
C8 C 0.38256 0.38019 0.25012 0.0
C9 C 0.37268 0.32305 0.29502 0.0
C10 C 0.40694 0.3145 0.27418 0.0
C11 C 0.42878 0.3385 0.24154 0.0
C12 C 0.41671 0.37137 0.22958 0.0
H13 H 0.31077 0.94935 0.66309 0.0
H14 H 0.24576 0.8699 0.56117 0.0
H15 H 0.32631 0.83312 0.64599 0.0
H16 H 0.30887 0.83202 0.52369 0.0
C17 C 0.29989 0.80593 0.54456 0.0
O18 O 0.27634 0.81281 0.57897 0.0
H19 H 0.2798 0.78037 0.52502 0.0
C20 C 0.3042 0.9212 0.64539 0.0
C21 C 0.32236 0.8925 0.65877 0.0
C22 C 0.27633 0.91349 0.61047 0.0
C23 C 0.26766 0.87687 0.58786 0.0
C24 C 0.28598 0.84826 0.60044 0.0
C25 C 0.31293 0.85581 0.63607 0.0
H26 H 0.75323 0.34407 0.96747 0.0
H27 H 0.65829 0.34315 0.87387 0.0
H28 H 0.76911 0.44499 0.88902 0.0
H29 H 0.67711 0.45336 0.88393 0.0
C30 C 0.66966 0.43625 0.85293 0.0
O31 O 0.69822 0.41479 0.84612 0.0
H32 H 0.63706 0.41509 0.85538 0.0
C33 C 0.7415 0.35864 0.9428 0.0
C34 C 0.76612 0.39688 0.931 0.0
C35 C 0.70245 0.33861 0.9228 0.0
C36 C 0.68808 0.35785 0.88999 0.0
C37 C 0.71181 0.39651 0.87821 0.0
C38 C 0.75058 0.41575 0.89893 0.0
H39 H 0.88736 0.77856 0.47261 0.0
H40 H 0.88572 0.68725 0.37701 0.0
H41 H 0.98821 0.79701 0.37973 0.0
H42 H 0.96167 0.7618 0.29122 0.0
C43 C 0.95045 0.7298 0.29892 0.0
O44 O 0.95835 0.72599 0.34163 0.0
H45 H 0.91556 0.71894 0.29294 0.0
C46 C 0.90203 0.76789 0.44554 0.0
C47 C 0.94026 0.79279 0.42873 0.0
C48 C 0.88163 0.72996 0.42696 0.0
C49 C 0.90045 0.71663 0.39119 0.0
C50 C 0.93897 0.74059 0.37418 0.0
C51 C 0.95844 0.77876 0.39276 0.0
H52 H 0.73879 0.87955 0.91704 0.0
H53 H 0.66577 0.80859 1.01626 0.0
H54 H 0.78309 0.79113 0.97508 0.0
H55 H 0.68911 0.71995 0.98219 0.0
C56 C 0.70483 0.72601 1.01407 0.0
O57 O 0.71731 0.76611 1.02516 0.0
H58 H 0.68087 0.70989 1.03751 0.0
C59 C 0.73457 0.85614 0.93956 0.0
C60 C 0.76512 0.83598 0.94197 0.0
C61 C 0.69935 0.8476 0.96709 0.0
C62 C 0.69253 0.81566 0.99448 0.0
C63 C 0.72229 0.79476 0.99649 0.0
C64 C 0.75899 0.80571 0.97121 0.0
H65 H 0.8969 0.20035 0.4573 0.0
H66 H 0.85196 0.30088 0.48443 0.0
H67 H 0.90119 0.25072 0.58553 0.0
H68 H 0.84783 0.31619 0.62314 0.0
C69 C 0.83767 0.3011 0.59163 0.0
O70 O 0.87296 0.30736 0.56567 0.0
H71 H 0.82315 0.26883 0.5974 0.0
C72 C 0.89156 0.22214 0.48004 0.0
C73 C 0.90196 0.22139 0.52339 0.0
C74 C 0.87269 0.25012 0.46579 0.0
C75 C 0.8662 0.27894 0.49483 0.0
C76 C 0.87808 0.27939 0.53753 0.0
C77 C 0.89501 0.25057 0.55173 0.0
H78 H 0.38217 0.78249 0.18269 0.0
H79 H 0.37203 0.68983 0.27191 0.0
H80 H 0.46897 0.80163 0.28862 0.0
H81 H 0.49857 0.73506 0.30667 0.0
C82 C 0.46877 0.7133 0.31803 0.0
O83 O 0.43646 0.73085 0.31932 0.0
H84 H 0.46023 0.68773 0.2945 0.0
C85 C 0.39316 0.77169 0.21077 0.0
C86 C 0.42778 0.7974 0.23402 0.0
C87 C 0.37228 0.73255 0.22372 0.0
C88 C 0.38761 0.71923 0.26044 0.0
C89 C 0.42254 0.74399 0.28361 0.0
C90 C 0.44216 0.78289 0.27042 0.0
H91 H 0.13118 0.37802 0.80891 0.0
H92 H 0.2412 0.47981 0.78684 0.0
H93 H 0.22647 0.37108 0.71595 0.0
H94 H 0.31313 0.41429 0.74139 0.0
C95 C 0.31273 0.44529 0.73716 0.0
O96 O 0.27236 0.44515 0.72585 0.0
H97 H 0.32153 0.46209 0.76814 0.0
C98 C 0.16106 0.39169 0.79297 0.0
C99 C 0.17666 0.36899 0.76207 0.0
C100 C 0.184 0.43231 0.80249 0.0
C101 C 0.22249 0.44918 0.78035 0.0
C102 C 0.23736 0.42728 0.7492 0.0
C103 C 0.21473 0.38746 0.74054 0.0
Sm104 Sm 0.07348 0.08999 0.57537 0.0
Sm105 Sm 0.07031 1.05059 0.66007 0.0
C106 C 0.07479 0.13624 0.51084 0.0
C107 C 0.11099 0.16042 0.48627 0.0
C108 C 0.11104 0.19743 0.47177 0.0
C109 C 0.14708 0.22183 0.45162 0.0
C110 C 0.18355 0.2095 0.44572 0.0
C111 C 0.18313 0.17221 0.45996 0.0
C112 C 0.14728 0.148 0.48018 0.0
C113 C 0.14343 1.06556 0.59114 0.0
C114 C 0.10686 0.14517 0.66273 0.0
C115 C 0.07134 1.00603 0.72565 0.0
C116 C 0.03609 0.97896 0.74859 0.0
C117 C 0.04317 0.96293 0.78697 0.0
C118 C 1.00863 0.9428 0.81222 0.0
C119 C 0.96698 0.93902 0.7993 0.0
C120 C 0.95999 0.95344 0.75994 0.0
C121 C 0.99433 0.97311 0.73462 0.0
C122 C 1.00061 0.07546 0.64314 0.0
C123 C 0.03387 0.99478 0.57271 0.0
O124 O 0.07312 0.14805 0.5506 0.0
O125 O 0.06678 0.09776 0.50624 0.0
O126 O 0.12469 0.08136 0.61808 0.0
O127 O 0.12817 1.06584 0.55348 0.0
O128 O 0.08513 0.142 0.62686 0.0
O129 O 0.11432 0.11349 0.67776 0.0
O130 O 0.07701 0.99518 0.68627 0.0
O131 O 0.07288 1.04335 0.72969 0.0
O132 O 1.01932 1.05865 0.61731 0.0
O133 O 1.01652 0.07672 0.68088 0.0
O134 O 0.05212 0.99725 0.61058 0.0
O135 O 0.03121 1.0271 0.55452 0.0
H136 H 0.08349 0.20766 0.47659 0.0
H137 H 0.1464 0.25029 0.44056 0.0
H138 H 0.21089 0.16213 0.45635 0.0
H139 H 0.14826 0.11981 0.49172 0.0
H140 H 0.07527 0.96755 0.79828 0.0
H141 H 1.01445 0.93218 0.8428 0.0
H142 H 0.92801 0.95098 0.74972 0.0
H143 H 0.9884 0.9856 0.70515 0.0
Sm144 Sm 0.59986 0.07978 0.1104 0.0
Sm145 Sm 0.52934 1.05857 1.04992 0.0
C146 C 0.67364 0.10304 0.1516 0.0
C147 C 0.69729 0.13151 0.18451 0.0
C148 C 0.68298 0.16276 0.20061 0.0
C149 C 0.70432 0.18717 0.23476 0.0
C150 C 0.74009 0.18049 0.25334 0.0
C151 C 0.75464 0.14961 0.23611 0.0
C152 C 0.73348 0.12548 0.20203 0.0
C153 C 0.53649 1.01096 0.1314 0.0
C154 C 0.52456 0.11497 0.1333 0.0
C155 C 0.45781 1.03475 1.00535 0.0
C156 C 0.4456 1.01678 0.96244 0.0
C157 C 0.45622 0.98293 0.94762 0.0
C158 C 0.44698 0.96836 0.90558 0.0
C159 C 0.42768 0.98781 0.87766 0.0
C160 C 0.41661 1.02127 0.89278 0.0
C161 C 0.42533 1.0355 0.93482 0.0
C162 C 0.59317 0.12637 1.02776 0.0
C163 C 0.60511 1.02384 1.02573 0.0
O164 O 0.66761 0.11701 0.11504 0.0
O165 O 0.64034 0.07526 0.16465 0.0
O166 O 0.55101 1.01983 0.09443 0.0
O167 O 0.55505 1.03922 0.15879 0.0
O168 O 0.56613 0.12339 0.13584 0.0
O169 O 0.50234 0.08495 0.10849 0.0
O170 O 0.46796 1.01286 1.03352 0.0
O171 O 0.48302 0.07126 1.00636 0.0
O172 O 0.57884 0.1184 0.06505 0.0
O173 O 0.57438 0.09766 1.00091 0.0
O174 O 0.56404 1.01704 1.02063 0.0
O175 O 0.62671 1.05098 1.05384 0.0
H176 H 0.65489 0.16768 0.18741 0.0
H177 H 0.69246 0.21084 0.24701 0.0
H178 H 0.78141 0.14292 0.25005 0.0
H179 H 0.74468 0.10124 0.19014 0.0
H180 H 0.47228 0.96814 0.96818 0.0
H181 H 0.45586 0.94255 0.89459 0.0
H182 H 0.40112 1.03644 0.87203 0.0
H183 H 0.41693 1.06164 0.94558 0.0
Sm184 Sm 0.59236 0.54928 0.54838 0.0
Sm185 Sm 0.59867 0.61833 0.60553 0.0
C186 C 0.60606 0.49135 0.50018 0.0
C187 C 0.6393 0.472 0.50033 0.0
C188 C 0.67778 0.49081 0.52144 0.0
C189 C 0.70845 0.47142 0.52451 0.0
C190 C 0.70104 0.43284 0.50669 0.0
C191 C 0.66275 0.41437 0.48479 0.0
C192 C 0.63202 0.43392 0.48162 0.0
C193 C 0.51811 0.54335 0.59377 0.0
C194 C 0.63145 0.54924 0.64444 0.0
C195 C 0.58329 0.67708 0.65074 0.0
C196 C 0.54592 0.69128 0.64987 0.0
C197 C 0.50618 0.66463 0.63831 0.0
C198 C 0.47129 0.67826 0.63292 0.0
C199 C 0.47552 0.7189 0.63847 0.0
C200 C 0.5152 0.74554 0.65067 0.0
C201 C 0.5502 0.73176 0.65642 0.0
C202 C 0.67532 0.62386 0.56625 0.0
C203 C 0.55198 0.61194 0.51037 0.0
O204 O 0.61861 0.52861 0.48984 0.0
O205 O 0.58084 0.48495 0.53329 0.0
O206 O 0.55546 0.55619 0.60774 0.0
O207 O 0.51838 0.53102 0.55428 0.0
O208 O 0.6324 0.53764 0.60395 0.0
O209 O 0.61577 0.57857 0.65507 0.0
O210 O 0.57658 0.6415 0.66518 0.0
O211 O 0.60635 0.68277 0.61607 0.0
O212 O 0.63938 0.61197 0.54776 0.0
O213 O 0.67095 0.6334 0.60598 0.0
O214 O 0.5549 0.62693 0.55004 0.0
O215 O 0.56866 0.5836 0.50001 0.0
H216 H 0.68369 0.52014 0.5364 0.0
H217 H 0.73729 0.48607 0.54226 0.0
H218 H 0.65638 0.38468 0.47067 0.0
H219 H 0.60232 0.41906 0.46537 0.0
H220 H 0.50236 0.63336 0.63214 0.0
H221 H 0.44138 0.65715 0.62271 0.0
H222 H 0.51925 0.77701 0.65524 0.0
H223 H 0.58078 0.75276 0.66484 0.0
Sm224 Sm 0.07241 0.54125 0.08949 0.0
Sm225 Sm 0.07126 0.60672 1.03742 0.0
C226 C 0.09339 0.48413 0.12706 0.0
C227 C 0.13431 0.47727 0.1353 0.0
C228 C 0.16732 0.4869 0.10504 0.0
C229 C 0.20603 0.48016 0.11318 0.0
C230 C 0.21257 0.46429 0.15193 0.0
C231 C 0.17978 0.45548 0.18247 0.0
C232 C 0.14093 0.46183 0.17414 0.0
C233 C 0.02855 0.58761 0.1298 0.0
C234 C 0.15554 0.62284 0.09305 0.0
C235 C 0.04908 0.66172 0.99674 0.0
C236 C 1.00826 0.67047 0.99162 0.0
C237 C 0.99632 0.69624 1.02094 0.0
C238 C 0.95662 0.70239 1.01789 0.0
C239 C 0.92803 0.68313 0.98529 0.0
C240 C 0.94038 0.65822 0.95528 0.0
C241 C 0.98007 0.65198 0.95837 0.0
C242 C 0.10958 0.55512 0.99597 0.0
C243 C 0.98562 0.53036 1.03927 0.0
O244 O 0.08175 0.48174 0.08715 0.0
O245 O 0.08645 0.51407 0.14824 0.0
O246 O 0.06328 0.60108 0.1096 0.0
O247 O 1.01656 0.54903 0.12923 0.0
O248 O 0.14224 0.5838 0.09681 0.0
O249 O 0.13173 0.64058 0.07353 0.0
O250 O 0.06594 0.66779 1.03485 0.0
O251 O 0.05206 0.62902 0.97805 0.0
O252 O 0.07616 0.5453 1.0182 0.0
O253 O 0.12388 0.59362 0.99456 0.0
O254 O 1.00054 0.56936 1.0382 0.0
O255 O 1.00965 0.50991 1.05376 0.0
H256 H 0.16316 0.49947 0.07504 0.0
H257 H 0.23086 0.48741 0.08925 0.0
H258 H 0.18379 0.44273 0.2124 0.0
H259 H 0.11596 0.45449 0.19795 0.0
H260 H 1.01741 0.71131 1.04666 0.0
H261 H 0.94833 0.72234 1.04104 0.0
H262 H 0.91898 0.6428 0.92993 0.0
H263 H 0.98831 0.63211 0.93509 0.0
H264 H 0.33683 0.34217 0.36787 0.0
H265 H 0.34568 0.24164 0.28994 0.0
H266 H 0.28981 0.19713 0.33208 0.0
H267 H 0.23272 0.18793 0.38529 0.0
H268 H 0.22087 0.28914 0.45994 0.0
H269 H 0.28266 0.33249 0.42374 0.0
C270 C 0.3267 0.31047 0.36024 0.0
C271 C 0.34513 0.29538 0.3255 0.0
C272 C 0.2933 0.28533 0.38331 0.0
C273 C 0.33236 0.25411 0.31669 0.0
C274 C 0.29997 0.22867 0.34042 0.0
C275 C 0.24403 0.21939 0.39402 0.0
C276 C 0.22204 0.23541 0.42493 0.0
C277 C 0.27935 0.24414 0.37289 0.0
C278 C 0.2368 0.27627 0.43567 0.0
C279 C 0.27229 0.30098 0.41525 0.0
H280 H 0.38333 0.96061 0.68273 0.0
H281 H 0.31866 0.84244 0.72422 0.0
H282 H 0.35032 0.8603 0.79511 0.0
H283 H 0.38799 0.91242 0.84792 0.0
H284 H 0.44765 1.03174 0.80696 0.0
H285 H 0.4258 1.0108 0.73347 0.0
C286 C 0.37643 0.93866 0.70721 0.0
C287 C 0.34814 0.90049 0.69844 0.0
C288 C 0.39325 0.94961 0.74823 0.0
C289 C 0.34039 0.87203 0.73009 0.0
C290 C 0.35811 0.88236 0.77079 0.0
C291 C 0.3968 0.93356 0.82268 0.0
C292 C 0.41888 0.97361 0.83273 0.0
C293 C 0.38331 0.92148 0.78063 0.0
C294 C 0.43005 1.00087 0.79993 0.0
C295 C 0.4177 0.98891 0.75797 0.0
H296 H 0.67334 0.42462 0.76475 0.0
H297 H 0.66239 0.51097 0.86137 0.0
H298 H 0.65135 0.55405 0.8066 0.0
H299 H 0.64028 0.56589 0.73111 0.0
H300 H 0.65257 0.48027 0.63396 0.0
H301 H 0.66784 0.43906 0.68841 0.0
C302 C 0.66952 0.45326 0.77371 0.0
C303 C 0.66965 0.46472 0.81736 0.0
C304 C 0.66295 0.47815 0.74173 0.0
C305 C 0.66338 0.50158 0.82819 0.0
C306 C 0.65673 0.52624 0.79678 0.0
C307 C 0.64673 0.53844 0.72172 0.0
C308 C 0.64495 0.52644 0.67814 0.0
C309 C 0.6558 0.51466 0.75342 0.0
C310 C 0.6536 0.49062 0.66701 0.0
C311 C 0.66229 0.46678 0.69829 0.0
H312 H 0.91699 0.65626 0.25923 0.0
H313 H 0.03391 0.75232 0.27239 0.0
H314 H 0.06841 0.71868 0.2201 0.0
H315 H 0.06485 0.66175 0.16906 0.0
H316 H 0.94762 0.56539 0.15826 0.0
H317 H 0.91382 0.59931 0.21013 0.0
C318 C 0.95011 0.66968 0.25086 0.0
C319 C 0.97275 0.70692 0.26961 0.0
C320 C 0.96962 0.65022 0.22053 0.0
C321 C 1.01574 0.72375 0.25844 0.0
C322 C 0.0354 0.70458 0.22831 0.0
C323 C 0.03183 0.64843 0.17784 0.0
C324 C 1.00876 0.61106 0.15945 0.0
C325 C 1.01257 0.66791 0.20871 0.0
C326 C 0.96615 0.59404 0.17176 0.0
C327 C 0.94676 0.6134 0.2016 0.0
H328 H 0.41162 0.2265 0.17282 0.0
H329 H 0.5354 0.31231 0.1906 0.0
H330 H 0.56879 0.25927 0.18327 0.0
H331 H 0.56304 0.18995 0.16433 0.0
H332 H 0.43938 0.10463 0.14211 0.0
H333 H 0.40552 0.15588 0.15945 0.0
C334 C 0.44584 0.23341 0.17562 0.0
C335 C 0.47119 0.27313 0.18202 0.0
C336 C 0.46474 0.2029 0.17051 0.0
C337 C 0.51544 0.28185 0.18564 0.0
C338 C 0.53445 0.25159 0.18137 0.0
C339 C 0.52863 0.18228 0.16413 0.0
C340 C 0.50379 0.14353 0.15168 0.0
C341 C 0.50947 0.21216 0.17279 0.0
C342 C 0.45925 0.13426 0.15139 0.0
C343 C 0.43987 0.1636 0.1611 0.0
H344 H 0.24302 0.95748 0.66516 0.0
H345 H 0.26033 0.93507 0.53093 0.0
H346 H 0.22211 0.9817 0.51315 0.0
H347 H 0.18216 1.02732 0.53592 0.0
H348 H 0.16666 1.05074 0.67017 0.0
H349 H 0.20715 1.00595 0.68788 0.0
C350 C 0.23922 0.96332 0.63199 0.0
C351 C 0.25458 0.94283 0.59941 0.0
C352 C 0.21776 0.99042 0.62207 0.0
C353 C 0.24837 0.95007 0.5566 0.0
C354 C 0.22678 0.9769 0.54642 0.0
C355 C 0.18807 1.02288 0.56903 0.0
C356 C 0.17147 1.04205 0.60175 0.0
C357 C 0.2111 0.997 0.57891 0.0
C358 C 0.17925 1.03624 0.64451 0.0
C359 C 0.2022 1.01055 0.65462 0.0
H360 H 0.80113 0.47488 0.95766 0.0
H361 H 0.82704 0.3623 0.95064 0.0
H362 H 0.89538 0.39252 0.9858 0.0
H363 H 0.94915 0.45142 1.01734 0.0
H364 H 0.92416 0.56447 1.02195 0.0
H365 H 0.8548 0.53372 0.98912 0.0
C366 C 0.82183 0.457 0.96351 0.0
C367 C 0.80852 0.41621 0.95161 0.0
C368 C 0.86151 0.47468 0.98357 0.0
C369 C 0.83586 0.39356 0.95999 0.0
C370 C 0.87519 0.41089 0.97998 0.0
C371 C 0.92835 0.46923 1.01159 0.0
C372 C 0.94204 0.51022 1.02237 0.0
C373 C 0.88843 0.45143 0.99197 0.0
C374 C 0.91468 0.53286 1.01412 0.0
C375 C 0.87488 0.51531 0.99518 0.0
H376 H 0.86367 0.71281 0.51018 0.0
H377 H 0.80749 0.69007 0.38487 0.0
H378 H 0.73891 0.6529 0.41579 0.0
H379 H 0.69346 0.63025 0.47976 0.0
H380 H 0.75201 0.65272 0.6043 0.0
H381 H 0.82054 0.68607 0.57253 0.0
C382 C 0.83644 0.69963 0.4896 0.0
C383 C 0.8407 0.70461 0.4453 0.0
C384 C 0.79724 0.67817 0.50758 0.0
C385 C 0.80519 0.68668 0.41907 0.0
C386 C 0.76587 0.66553 0.43679 0.0
C387 C 0.72135 0.64202 0.4998 0.0
C388 C 0.71726 0.6393 0.54452 0.0
C389 C 0.76126 0.66149 0.48117 0.0
C390 C 0.75391 0.65463 0.56991 0.0
C391 C 0.79329 0.67385 0.55177 0.0
H392 H 0.35767 0.38549 0.1694 0.0
H393 H 0.3638 0.43984 0.2955 0.0
H394 H 0.31461 0.47525 0.27418 0.0
H395 H 0.2614 0.48186 0.22329 0.0
H396 H 0.25277 0.42498 0.09819 0.0
H397 H 0.3118 0.39995 0.1151 0.0
C398 C 0.34941 0.40624 0.19164 0.0
C399 C 0.36403 0.41003 0.23394 0.0
C400 C 0.32001 0.42538 0.17955 0.0
C401 C 0.35273 0.43652 0.26277 0.0
C402 C 0.32438 0.45645 0.25071 0.0
C403 C 0.27288 0.4644 0.19962 0.0
C404 C 0.25244 0.45472 0.15986 0.0
C405 C 0.30633 0.44962 0.20981 0.0
C406 C 0.26803 0.43276 0.12906 0.0
C407 C 0.30162 0.41828 0.13878 0.0
H408 H 0.69007 0.30921 1.00341 0.0
H409 H 0.66008 0.27414 0.87138 0.0
H410 H 0.62483 0.20579 0.89174 0.0
H411 H 0.60367 0.15517 0.94704 0.0
H412 H 0.63361 0.19065 0.07892 0.0
H413 H 0.66848 0.25909 0.05852 0.0
C414 C 0.67608 0.28666 0.97892 0.0
C415 C 0.6781 0.29722 0.93571 0.0
C416 C 0.65614 0.24715 0.99085 0.0
C417 C 0.6588 0.26737 0.90484 0.0
C418 C 0.6389 0.22804 0.91647 0.0
C419 C 0.61806 0.17783 0.9713 0.0
C420 C 0.61619 0.16756 1.01454 0.0
C421 C 0.63763 0.21746 0.95934 0.0
C422 C 0.63466 0.19753 1.04548 0.0
C423 C 0.65452 0.23678 1.0338 0.0
H424 H 0.95399 0.81339 0.51357 0.0
H425 H 0.97193 0.86387 0.38925 0.0
H426 H 1.00109 0.93062 0.42217 0.0
H427 H 0.02073 0.97526 0.48692 0.0
H428 H 1.00577 0.92348 0.61068 0.0
H429 H 0.97606 0.85725 0.57757 0.0
C430 C 0.96423 0.839 0.49363 0.0
C431 C 0.96049 0.83341 0.44886 0.0
C432 C 0.98139 0.87735 0.51282 0.0
C433 C 0.97462 0.86706 0.42367 0.0
C434 C 0.9911 0.90536 0.44256 0.0
C435 C 1.01079 0.94948 0.50663 0.0
C436 C 1.01531 0.95463 0.55141 0.0
C437 C 0.99446 0.91099 0.48717 0.0
C438 C 1.00279 0.92066 0.57625 0.0
C439 C 0.98572 0.88262 0.5573 0.0
H440 H 0.301 0.74715 0.59681 0.0
H441 H 0.38408 0.84276 0.52666 0.0
H442 H 0.4462 0.82588 0.5518 0.0
H443 H 0.47631 0.78213 0.59162 0.0
H444 H 0.39288 0.68715 0.66273 0.0
H445 H 0.33134 0.70578 0.63976 0.0
C446 C 0.3328 0.76421 0.58721 0.0
C447 C 0.33822 0.7959 0.5599 0.0
C448 C 0.36814 0.75459 0.6021 0.0
C449 C 0.37935 0.81809 0.54758 0.0
C450 C 0.41477 0.80854 0.56204 0.0
C451 C 0.44474 0.76602 0.60271 0.0
C452 C 0.43908 0.73325 0.62869 0.0
C453 C 0.40951 0.77671 0.58914 0.0
C454 C 0.39793 0.71224 0.64234 0.0
C455 C 0.36278 0.72285 0.62924 0.0
H456 H 0.81143 0.9111 0.92342 0.0
H457 H 0.80786 0.78869 0.90238 0.0
H458 H 0.87194 0.80976 0.85833 0.0
H459 H 0.92749 0.86338 0.82306 0.0
H460 H 0.92671 0.98463 0.84105 0.0
H461 H 0.86522 0.96362 0.88843 0.0
C462 C 0.82415 0.88886 0.90871 0.0
C463 C 0.80446 0.84835 0.91578 0.0
C464 C 0.8602 0.90105 0.88277 0.0
C465 C 0.82243 0.82013 0.89761 0.0
C466 C 0.85894 0.83212 0.87222 0.0
C467 C 0.91379 0.88496 0.83772 0.0
C468 C 0.9312 0.92536 0.82902 0.0
C469 C 0.87791 0.87251 0.86427 0.0
C470 C 0.91346 0.95337 0.84761 0.0
C471 C 0.87844 0.94139 0.87456 0.0
H472 H 0.79384 0.24731 0.43995 0.0
H473 H 0.91591 0.2442 0.3925 0.0
H474 H 0.88653 0.22755 0.32052 0.0
H475 H 0.82454 0.20684 0.27317 0.0
H476 H 0.70109 0.2045 0.32222 0.0
H477 H 0.73284 0.23173 0.39092 0.0
C478 C 0.81416 0.24388 0.41359 0.0
C479 C 0.85686 0.24674 0.42139 0.0
C480 C 0.79674 0.23321 0.37261 0.0
C481 C 0.88284 0.2418 0.38718 0.0
C482 C 0.86605 0.23226 0.34611 0.0
C483 C 0.80455 0.21241 0.29882 0.0
C484 C 0.76037 0.20307 0.29257 0.0
C485 C 0.82274 0.22665 0.33877 0.0
C486 C 0.73519 0.21155 0.32588 0.0
C487 C 0.75327 0.22678 0.36541 0.0
H488 H 0.46459 0.63817 0.34047 0.0
H489 H 0.49515 0.75798 0.39258 0.0
H490 H 0.52039 0.73741 0.45873 0.0
H491 H 0.53984 0.68567 0.49942 0.0
H492 H 0.51077 0.56691 0.44349 0.0
H493 H 0.4789 0.58654 0.38206 0.0
C494 C 0.47601 0.65969 0.3666 0.0
C495 C 0.47761 0.69955 0.36158 0.0
C496 C 0.4913 0.64779 0.40402 0.0
C497 C 0.49309 0.72704 0.39572 0.0
C498 C 0.50783 0.71528 0.43347 0.0
C499 C 0.52595 0.66404 0.47407 0.0
C500 C 0.52823 0.62483 0.4762 0.0
C501 C 0.50799 0.6758 0.43774 0.0
C502 C 0.51013 0.59735 0.44275 0.0
C503 C 0.49174 0.60853 0.40741 0.0
H504 H 0.14443 0.41458 0.88159 0.0
H505 H 0.18781 0.51009 0.79414 0.0
H506 H 0.17187 0.55616 0.84619 0.0
H507 H 0.1468 0.57088 0.91737 0.0
H508 H 0.0972 0.47547 1.00325 0.0
H509 H 0.11422 0.4286 0.95175 0.0
C510 C 0.14994 0.44532 0.87367 0.0
C511 C 0.1685 0.45856 0.83385 0.0
C512 C 0.13989 0.47218 0.90394 0.0
C513 C 0.17497 0.49879 0.82466 0.0
C514 C 0.16561 0.52542 0.8545 0.0
C515 C 0.13994 0.53988 0.92497 0.0
C516 C 0.12129 0.52701 0.96463 0.0
C517 C 0.14862 0.51272 0.89449 0.0
C518 C 0.11188 0.48643 0.97329 0.0
C519 C 0.1215 0.45949 0.94365 0.0
H520 H 0.72846 0.92778 0.96919 0.0
H521 H 0.61248 0.82992 0.97521 0.0
H522 H 0.57185 0.87684 0.98854 0.0
H523 H 0.57065 0.9455 1.00455 0.0
H524 H 0.688 1.04211 1.00244 0.0
H525 H 0.72672 0.99585 0.98004 0.0
C526 C 0.69414 0.91663 0.97236 0.0
C527 C 0.67348 0.87539 0.971 0.0
C528 C 0.6713 0.94362 0.98061 0.0
C529 C 0.62913 0.86151 0.97636 0.0
C530 C 0.60593 0.88832 0.98384 0.0
C531 C 0.60452 0.95645 0.99813 0.0
C532 C 0.62655 0.9971 1.00492 0.0
C533 C 0.62682 0.92943 0.98683 0.0
C534 C 0.6705 1.01092 0.99737 0.0
C535 C 0.69262 0.98448 0.98479 0.0
H536 H 0.95326 0.22551 0.59274 0.0
H537 H 0.88691 0.1442 0.49152 0.0
H538 H 0.91194 0.09226 0.51949 0.0
H539 H 0.95173 0.06928 0.5736 0.0
H540 H 1.00631 0.14715 0.68109 0.0
H541 H 0.98419 0.20048 0.65107 0.0
C542 C 0.94287 0.1963 0.57714 0.0
C543 C 0.91802 0.18946 0.53973 0.0
C544 C 0.95456 0.16555 0.59509 0.0
C545 C 0.90693 0.15132 0.51957 0.0
C546 C 0.92062 0.12113 0.53597 0.0
C547 C 0.95794 0.09775 0.59071 0.0
C548 C 0.98052 0.10454 0.62928 0.0
C549 C 0.94419 0.12786 0.57384 0.0
C550 C 0.98858 0.14131 0.65145 0.0
C551 C 0.97634 0.17187 0.63411 0.0
H552 H 0.31035 0.75392 0.18129 0.0
H553 H 0.34719 0.65069 0.211 0.0
H554 H 0.28439 0.60783 0.17388 0.0
H555 H 0.21789 0.59917 0.13285 0.0
H556 H 0.18492 0.70367 0.10005 0.0
H557 H 0.24761 0.74591 0.13712 0.0
C558 C 0.30545 0.72217 0.17914 0.0
C559 C 0.33412 0.70607 0.1995 0.0
C560 C 0.26964 0.69753 0.15674 0.0
C561 C 0.32574 0.66442 0.19671 0.0
C562 C 0.28981 0.63968 0.17501 0.0
C563 C 0.22457 0.63119 0.13352 0.0
C564 C 0.19625 0.6479 0.11343 0.0
C565 C 0.26133 0.65583 0.15496 0.0
C566 C 0.20581 0.68961 0.11486 0.0
C567 C 0.24178 0.714 0.13631 0.0
H568 H 0.38701 0.50614 0.74602 0.0
H569 H 0.31078 0.42386 0.65195 0.0
H570 H 0.36578 0.44882 0.59777 0.0
H571 H 0.43813 0.49143 0.57849 0.0
H572 H 0.51457 0.57117 0.6747 0.0
H573 H 0.45704 0.55041 0.72625 0.0
C574 C 0.3822 0.49407 0.7135 0.0
C575 C 0.34472 0.46347 0.70287 0.0
C576 C 0.4142 0.50813 0.68284 0.0
C577 C 0.33921 0.44774 0.66073 0.0
C578 C 0.37072 0.46191 0.62983 0.0
C579 C 0.44187 0.50457 0.61057 0.0
C580 C 0.48067 0.53286 0.62267 0.0
C581 C 0.40871 0.49175 0.64064 0.0
C582 C 0.48512 0.54939 0.66449 0.0
C583 C 0.45223 0.53743 0.69412 0.0
H584 H 0.75411 0.71559 0.94689 0.0
H585 H 0.74234 0.70654 0.08332 0.0
H586 H 0.80972 0.69116 0.08644 0.0
H587 H 0.87339 0.68343 1.05066 0.0
H588 H 0.88686 0.69552 0.91444 0.0
H589 H 0.81736 0.70645 0.91078 0.0
C590 C 0.76608 0.70954 0.97712 0.0
C591 C 0.74323 0.71155 1.01478 0.0
C592 C 0.80525 0.7017 0.9787 0.0
C593 C 0.75927 0.70452 1.05394 0.0
C594 C 0.79784 0.69604 1.05572 0.0
C595 C 0.86119 0.68863 1.0202 0.0
C596 C 0.88536 0.68883 0.98292 0.0
C597 C 0.82139 0.69514 1.01839 0.0
C598 C 0.86876 0.6949 0.94357 0.0
C599 C 0.82909 0.70129 0.94147 0.0
H600 H 0.44478 0.82648 0.15305 0.0
H601 H 0.45636 0.86436 0.28605 0.0
H602 H 0.48971 0.93296 0.26637 0.0
H603 H 0.51642 0.98287 0.21153 0.0
H604 H 0.5043 0.94551 0.07857 0.0
H605 H 0.46977 0.87672 0.09806 0.0
C606 C 0.45416 0.8497 0.17782 0.0
C607 C 0.44808 0.83968 0.22117 0.0
C608 C 0.47319 0.88955 0.16625 0.0
C609 C 0.46119 0.87058 0.25252 0.0
C610 C 0.48004 0.9101 0.24127 0.0
C611 C 0.50598 0.95973 0.18679 0.0
C612 C 0.51301 0.96954 0.14358 0.0
C613 C 0.48635 0.92 0.19827 0.0
C614 C 0.49931 0.93898 0.11204 0.0
C615 C 0.47962 0.89952 0.1232 0.0
H616 H 0.20464 0.3043 0.76661 0.0
H617 H 0.0978 0.33935 0.7255 0.0
H618 H 0.06685 0.27368 0.69022 0.0
H619 H 0.07291 0.20747 0.66667 0.0
H620 H 0.17783 0.17156 0.7123 0.0
H621 H 0.20685 0.23608 0.74964 0.0
C622 C 0.17407 0.2972 0.75077 0.0
C623 C 0.15339 0.3267 0.74908 0.0
C624 C 0.15651 0.25932 0.73058 0.0
C625 C 0.11402 0.31711 0.72798 0.0
C626 C 0.0966 0.27965 0.70732 0.0
C627 C 0.10201 0.2137 0.68494 0.0
C628 C 0.12335 0.18459 0.68618 0.0
C629 C 0.11799 0.25073 0.70761 0.0
C630 C 0.16076 0.19322 0.71056 0.0
C631 C 0.1774 0.2302 0.73202 0.0
H632 H 0.85405 0.37246 0.55507 0.0
H633 H 0.7511 0.26874 0.58682 0.0
H634 H 0.6995 0.29913 0.5597 0.0
H635 H 0.68397 0.35705 0.53152 0.0
H636 H 0.78735 0.46051 0.49936 0.0
H637 H 0.83883 0.42806 0.52154 0.0
C638 C 0.82033 0.35636 0.55542 0.0
C639 C 0.8062 0.3184 0.57241 0.0
C640 C 0.79113 0.37392 0.53977 0.0
C641 C 0.76251 0.29793 0.57348 0.0
C642 C 0.73312 0.31526 0.55803 0.0
C643 C 0.71778 0.3721 0.52845 0.0
C644 C 0.73194 0.41114 0.51411 0.0
C645 C 0.74709 0.35343 0.54158 0.0
C646 C 0.77579 0.43059 0.51084 0.0
C647 C 0.80518 0.4121 0.52349 0.0
loop_
_geom_bond_atom_site_label_1
_geom_bond_atom_site_label_2
_geom_bond_distance
_geom_bond_site_symmetry_2
_ccdc_geom_bond_type
H0 C7 0.929 . S
H1 C10 0.930 . S
H2 C12 0.929 . S
H3 C4 0.969 . S
C4 H3 0.969 . S
C4 O5 1.550 . S
C4 H6 0.973 . S
O5 C4 1.550 . S
O5 C11 1.412 . S
H6 C4 0.973 . S
C7 H0 0.929 . S
C7 C8 1.400 . S
C7 C9 1.364 . S
C8 C7 1.400 . S
C8 C12 1.377 . S
C9 C7 1.364 . S
C9 C10 1.374 . S
C10 H1 0.930 . S
C10 C9 1.374 . S
C10 C11 1.383 . S
C11 O5 1.412 . S
C11 C10 1.383 . S
C11 C12 1.394 . S
C12 H2 0.929 . S
C12 C8 1.377 . S
C12 C11 1.394 . S
H13 C20 0.929 . S
H14 C23 0.930 . S
H15 C25 0.929 . S
H16 C17 0.969 . S
C17 H16 0.969 . S
C17 O18 1.550 . S
C17 H19 0.973 . S
O18 C17 1.550 . S
O18 C24 1.412 . S
H19 C17 0.973 . S
C20 H13 0.929 . S
C20 C21 1.400 . S
C20 C22 1.364 . S
C21 C20 1.400 . S
C21 C25 1.377 . S
C22 C20 1.364 . S
C22 C23 1.374 . S
C23 H14 0.930 . S
C23 C22 1.374 . S
C23 C24 1.383 . S
C24 O18 1.412 . S
C24 C23 1.383 . S
C24 C25 1.394 . S
C25 H15 0.929 . S
C25 C21 1.377 . S
C25 C24 1.394 . S
H26 C33 0.929 . S
H27 C36 0.930 . S
H28 C38 0.929 . S
H29 C30 0.969 . S
C30 H29 0.969 . S
C30 O31 1.550 . S
C30 H32 0.973 . S
O31 C30 1.550 . S
O31 C37 1.412 . S
H32 C30 0.973 . S
C33 H26 0.929 . S
C33 C34 1.400 . S
C33 C35 1.364 . S
C34 C33 1.400 . S
C34 C38 1.377 . S
C35 C33 1.364 . S
C35 C36 1.374 . S
C36 H27 0.930 . S
C36 C35 1.374 . S
C36 C37 1.383 . S
C37 O31 1.412 . S
C37 C36 1.383 . S
C37 C38 1.394 . S
C38 H28 0.929 . S
C38 C34 1.377 . S
C38 C37 1.394 . S
H39 C46 0.929 . S
H40 C49 0.930 . S
H41 C51 0.929 . S
H42 C43 0.969 . S
C43 H42 0.969 . S
C43 O44 1.550 . S
C43 H45 0.973 . S
O44 C43 1.550 . S
O44 C50 1.412 . S
H45 C43 0.973 . S
C46 H39 0.929 . S
C46 C47 1.400 . S
C46 C48 1.364 . S
C47 C46 1.400 . S
C47 C51 1.377 . S
C48 C46 1.364 . S
C48 C49 1.374 . S
C49 H40 0.930 . S
C49 C48 1.374 . S
C49 C50 1.383 . S
C50 O44 1.412 . S
C50 C49 1.383 . S
C50 C51 1.394 . S
C51 H41 0.929 . S
C51 C47 1.377 . S
C51 C50 1.394 . S
H52 C59 0.929 . S
H53 C62 0.930 . S
H54 C64 0.929 . S
H55 C56 0.969 . S
C56 H55 0.969 . S
C56 O57 1.550 . S
C56 H58 0.973 . S
O57 C56 1.550 . S
O57 C63 1.412 . S
H58 C56 0.973 . S
C59 H52 0.929 . S
C59 C60 1.400 . S
C59 C61 1.364 . S
C60 C59 1.400 . S
C60 C64 1.377 . S
C61 C59 1.364 . S
C61 C62 1.374 . S
C62 H53 0.930 . S
C62 C61 1.374 . S
C62 C63 1.383 . S
C63 O57 1.412 . S
C63 C62 1.383 . S
C63 C64 1.394 . S
C64 H54 0.929 . S
C64 C60 1.377 . S
C64 C63 1.394 . S
H65 C72 0.929 . S
H66 C75 0.930 . S
H67 C77 0.929 . S
H68 C69 0.969 . S
C69 H68 0.969 . S
C69 O70 1.550 . S
C69 H71 0.973 . S
O70 C69 1.550 . S
O70 C76 1.412 . S
H71 C69 0.973 . S
C72 H65 0.929 . S
C72 C73 1.400 . S
C72 C74 1.364 . S
C73 C72 1.400 . S
C73 C77 1.377 . S
C74 C72 1.364 . S
C74 C75 1.374 . S
C75 H66 0.930 . S
C75 C74 1.374 . S
C75 C76 1.383 . S
C76 O70 1.412 . S
C76 C75 1.383 . S
C76 C77 1.394 . S
C77 H67 0.929 . S
C77 C73 1.377 . S
C77 C76 1.394 . S
H78 C85 0.929 . S
H79 C88 0.930 . S
H80 C90 0.929 . S
H81 C82 0.969 . S
C82 H81 0.969 . S
C82 O83 1.550 . S
C82 H84 0.973 . S
O83 C82 1.550 . S
O83 C89 1.412 . S
H84 C82 0.973 . S
C85 H78 0.929 . S
C85 C86 1.400 . S
C85 C87 1.364 . S
C86 C85 1.400 . S
C86 C90 1.377 . S
C87 C85 1.364 . S
C87 C88 1.374 . S
C88 H79 0.930 . S
C88 C87 1.374 . S
C88 C89 1.383 . S
C89 O83 1.412 . S
C89 C88 1.383 . S
C89 C90 1.394 . S
C90 H80 0.929 . S
C90 C86 1.377 . S
C90 C89 1.394 . S
H91 C98 0.929 . S
H92 C101 0.930 . S
H93 C103 0.929 . S
H94 C95 0.969 . S
C95 H94 0.969 . S
C95 O96 1.550 . S
C95 H97 0.973 . S
O96 C95 1.550 . S
O96 C102 1.412 . S
H97 C95 0.973 . S
C98 H91 0.929 . S
C98 C99 1.400 . S
C98 C100 1.364 . S
C99 C98 1.400 . S
C99 C103 1.377 . S
C100 C98 1.364 . S
C100 C101 1.374 . S
C101 H92 0.930 . S
C101 C100 1.374 . S
C101 C102 1.383 . S
C102 O96 1.412 . S
C102 C101 1.383 . S
C102 C103 1.394 . S
C103 H93 0.929 . S
C103 C99 1.377 . S
C103 C102 1.394 . S
Sm104 C106 2.846 . S
Sm104 O124 2.543 . S
Sm104 O125 2.450 . S
Sm104 O126 2.681 1_545 S
Sm104 O127 2.464 . S
Sm104 O128 2.396 . S
Sm104 O132 2.386 . S
Sm104 O135 2.408 1_545 S
Sm105 C115 2.859 1_545 S
Sm105 O126 2.361 1_645 S
Sm105 O129 2.394 1_655 S
Sm105 O130 2.543 1_545 S
Sm105 O131 2.472 1_545 S
Sm105 O132 2.681 1_655 S
Sm105 O133 2.485 . S
Sm105 O134 2.402 1_545 S
C106 Sm104 2.846 . S
C106 C107 1.506 . S
C106 O124 1.261 . S
C106 O125 1.242 . S
C107 C106 1.506 . S
C107 C108 1.358 . S
C107 C112 1.382 . S
C108 C107 1.358 . S
C108 C109 1.385 . S
C108 H136 0.930 . S
C109 C108 1.385 . S
C109 C110 1.395 . S
C109 H137 0.929 . S
C110 C109 1.395 . S
C110 C111 1.335 . S
C111 C110 1.335 . S
C111 C112 1.398 . S
C111 H138 0.930 . S
C112 C107 1.382 . S
C112 C111 1.398 . S
C112 H139 0.929 . S
C113 O126 1.271 . S
C113 O127 1.251 1_565 S
C114 O128 1.252 . S
C114 O129 1.272 . S
C115 Sm105 2.859 1_565 S
C115 C116 1.506 . S
C115 O130 1.261 . S
C115 O131 1.242 . S
C116 C115 1.506 . S
C116 C117 1.358 . S
C116 C121 1.382 . S
C117 C116 1.358 . S
C117 C118 1.385 . S
C117 H140 0.930 . S
C118 C117 1.385 . S
C118 C119 1.395 . S
C118 H141 0.929 . S
C119 C118 1.395 . S
C119 C120 1.335 . S
C120 C119 1.335 . S
C120 C121 1.398 . S
C120 H142 0.930 . S
C121 C116 1.382 . S
C121 C120 1.398 . S
C121 H143 0.929 . S
C122 O132 1.271 1_655 S
C122 O133 1.251 . S
C123 O134 1.252 . S
C123 O135 1.272 1_655 S
O124 Sm104 2.543 . S
O124 C106 1.261 . S
O125 Sm104 2.450 . S
O125 C106 1.242 . S
O126 Sm104 2.681 1_565 S
O126 Sm105 2.361 1_465 S
O126 C113 1.271 . S
O127 Sm104 2.464 . S
O127 C113 1.251 1_545 S
O128 Sm104 2.396 . S
O128 C114 1.252 . S
O129 Sm105 2.394 1_455 S
O129 C114 1.272 . S
O130 Sm105 2.543 1_565 S
O130 C115 1.261 . S
O131 Sm105 2.472 1_565 S
O131 C115 1.242 . S
O132 Sm104 2.386 . S
O132 Sm105 2.681 1_455 S
O132 C122 1.271 1_455 S
O133 Sm105 2.485 . S
O133 C122 1.251 . S
O134 Sm105 2.402 1_565 S
O134 C123 1.252 . S
O135 Sm104 2.408 1_565 S
O135 C123 1.272 1_455 S
H136 C108 0.930 . S
H137 C109 0.929 . S
H138 C111 0.930 . S
H139 C112 0.929 . S
H140 C117 0.930 . S
H141 C118 0.929 . S
H142 C120 0.930 . S
H143 C121 0.929 . S
Sm144 C146 2.846 . S
Sm144 O164 2.543 . S
Sm144 O165 2.450 . S
Sm144 O166 2.681 1_545 S
Sm144 O167 2.464 1_545 S
Sm144 O168 2.396 . S
Sm144 O172 2.400 . S
Sm144 O175 2.408 1_544 S
Sm145 C155 2.846 1_545 S
Sm145 O166 2.386 1_546 S
Sm145 O169 2.408 1_556 S
Sm145 O170 2.543 1_545 S
Sm145 O171 2.448 1_545 S
Sm145 O172 2.675 1_556 S
Sm145 O173 2.464 . S
Sm145 O174 2.396 1_545 S
C146 Sm144 2.846 . S
C146 C147 1.506 . S
C146 O164 1.261 . S
C146 O165 1.242 . S
C147 C146 1.506 . S
C147 C148 1.358 . S
C147 C152 1.382 . S
C148 C147 1.358 . S
C148 C149 1.385 . S
C148 H176 0.930 . S
C149 C148 1.385 . S
C149 C150 1.395 . S
C149 H177 0.929 . S
C150 C149 1.395 . S
C150 C151 1.335 . S
C151 C150 1.335 . S
C151 C152 1.398 . S
C151 H178 0.930 . S
C152 C147 1.382 . S
C152 C151 1.398 . S
C152 H179 0.929 . S
C153 O166 1.271 . S
C153 O167 1.251 . S
C154 O168 1.252 . S
C154 O169 1.272 . S
C155 Sm145 2.846 1_565 S
C155 C156 1.506 . S
C155 O170 1.261 . S
C155 O171 1.266 . S
C156 C155 1.506 . S
C156 C157 1.358 . S
C156 C161 1.382 . S
C157 C156 1.358 . S
C157 C158 1.385 . S
C157 H180 0.930 . S
C158 C157 1.385 . S
C158 C159 1.395 . S
C158 H181 0.929 . S
C159 C158 1.395 . S
C159 C160 1.335 . S
C160 C159 1.335 . S
C160 C161 1.398 . S
C160 H182 0.930 . S
C161 C156 1.382 . S
C161 C160 1.398 . S
C161 H183 0.929 . S
C162 O172 1.255 1_556 S
C162 O173 1.251 . S
C163 O174 1.252 . S
C163 O175 1.272 . S
O164 Sm144 2.543 . S
O164 C146 1.261 . S
O165 Sm144 2.450 . S
O165 C146 1.242 . S
O166 Sm144 2.681 1_565 S
O166 Sm145 2.386 1_564 S
O166 C153 1.271 . S
O167 Sm144 2.464 1_565 S
O167 C153 1.251 . S
O168 Sm144 2.396 . S
O168 C154 1.252 . S
O169 Sm145 2.408 1_554 S
O169 C154 1.272 . S
O170 Sm145 2.543 1_565 S
O170 C155 1.261 . S
O171 Sm145 2.448 1_565 S
O171 C155 1.266 . S
O172 Sm144 2.400 . S
O172 Sm145 2.675 1_554 S
O172 C162 1.255 1_554 S
O173 Sm145 2.464 . S
O173 C162 1.251 . S
O174 Sm145 2.396 1_565 S
O174 C163 1.252 . S
O175 Sm144 2.408 1_566 S
O175 C163 1.272 . S
H176 C148 0.930 . S
H177 C149 0.929 . S
H178 C151 0.930 . S
H179 C152 0.929 . S
H180 C157 0.930 . S
H181 C158 0.929 . S
H182 C160 0.930 . S
H183 C161 0.929 . S
Sm184 C186 2.846 . S
Sm184 O204 2.543 . S
Sm184 O205 2.450 . S
Sm184 O206 2.681 . S
Sm184 O207 2.464 . S
Sm184 O208 2.396 . S
Sm184 O212 2.386 . S
Sm184 O215 2.408 . S
Sm185 C195 2.846 . S
Sm185 O206 2.386 . S
Sm185 O209 2.408 . S
Sm185 O210 2.543 . S
Sm185 O211 2.450 . S
Sm185 O212 2.681 . S
Sm185 O213 2.464 . S
Sm185 O214 2.396 . S
C186 Sm184 2.846 . S
C186 C187 1.506 . S
C186 O204 1.261 . S
C186 O205 1.242 . S
C187 C186 1.506 . S
C187 C188 1.358 . S
C187 C192 1.382 . S
C188 C187 1.358 . S
C188 C189 1.385 . S
C188 H216 0.930 . S
C189 C188 1.385 . S
C189 C190 1.395 . S
C189 H217 0.929 . S
C190 C189 1.395 . S
C190 C191 1.335 . S
C191 C190 1.335 . S
C191 C192 1.398 . S
C191 H218 0.930 . S
C192 C187 1.382 . S
C192 C191 1.398 . S
C192 H219 0.929 . S
C193 O206 1.271 . S
C193 O207 1.251 . S
C194 O208 1.252 . S
C194 O209 1.272 . S
C195 Sm185 2.846 . S
C195 C196 1.506 . S
C195 O210 1.261 . S
C195 O211 1.242 . S
C196 C195 1.506 . S
C196 C197 1.358 . S
C196 C201 1.382 . S
C197 C196 1.358 . S
C197 C198 1.385 . S
C197 H220 0.930 . S
C198 C197 1.385 . S
C198 C199 1.395 . S
C198 H221 0.929 . S
C199 C198 1.395 . S
C199 C200 1.335 . S
C200 C199 1.335 . S
C200 C201 1.398 . S
C200 H222 0.930 . S
C201 C196 1.382 . S
C201 C200 1.398 . S
C201 H223 0.929 . S
C202 O212 1.271 . S
C202 O213 1.251 . S
C203 O214 1.252 . S
C203 O215 1.272 . S
O204 Sm184 2.543 . S
O204 C186 1.261 . S
O205 Sm184 2.450 . S
O205 C186 1.242 . S
O206 Sm184 2.681 . S
O206 Sm185 2.386 . S
O206 C193 1.271 . S
O207 Sm184 2.464 . S
O207 C193 1.251 . S
O208 Sm184 2.396 . S
O208 C194 1.252 . S
O209 Sm185 2.408 . S
O209 C194 1.272 . S
O210 Sm185 2.543 . S
O210 C195 1.261 . S
O211 Sm185 2.450 . S
O211 C195 1.242 . S
O212 Sm184 2.386 . S
O212 Sm185 2.681 . S
O212 C202 1.271 . S
O213 Sm185 2.464 . S
O213 C202 1.251 . S
O214 Sm185 2.396 . S
O214 C203 1.252 . S
O215 Sm184 2.408 . S
O215 C203 1.272 . S
H216 C188 0.930 . S
H217 C189 0.929 . S
H218 C191 0.930 . S
H219 C192 0.929 . S
H220 C197 0.930 . S
H221 C198 0.929 . S
H222 C200 0.930 . S
H223 C201 0.929 . S
Sm224 C226 2.846 . S
Sm224 O244 2.543 . S
Sm224 O245 2.450 . S
Sm224 O246 2.681 . S
Sm224 O247 2.464 . S
Sm224 O248 2.396 . S
Sm224 O252 2.386 . S
Sm224 O255 2.408 1_455 S
Sm225 C235 2.846 1_454 S
Sm225 O246 2.386 . S
Sm225 O249 2.408 . S
Sm225 O250 2.543 1_455 S
Sm225 O251 2.450 1_554 S
Sm225 O252 2.681 . S
Sm225 O253 2.464 1_554 S
Sm225 O254 2.396 1_454 S
C226 Sm224 2.846 . S
C226 C227 1.506 . S
C226 O244 1.261 . S
C226 O245 1.242 . S
C227 C226 1.506 . S
C227 C228 1.358 . S
C227 C232 1.382 . S
C228 C227 1.358 . S
C228 C229 1.385 . S
C228 H256 0.930 . S
C229 C228 1.385 . S
C229 C230 1.395 . S
C229 H257 0.929 . S
C230 C229 1.395 . S
C230 C231 1.335 . S
C231 C230 1.335 . S
C231 C232 1.398 . S
C231 H258 0.930 . S
C232 C227 1.382 . S
C232 C231 1.398 . S
C232 H259 0.929 . S
C233 O246 1.271 . S
C233 O247 1.251 . S
C234 O248 1.252 . S
C234 O249 1.272 . S
C235 Sm225 2.846 1_656 S
C235 C236 1.506 . S
C235 O250 1.261 1_556 S
C235 O251 1.242 1_655 S
C236 C235 1.506 . S
C236 C237 1.358 . S
C236 C241 1.382 . S
C237 C236 1.358 . S
C237 C238 1.385 . S
C237 H260 0.930 1_556 S
C238 C237 1.385 . S
C238 C239 1.395 . S
C238 H261 0.929 . S
C239 C238 1.395 . S
C239 C240 1.335 . S
C240 C239 1.335 . S
C240 C241 1.398 . S
C240 H262 0.930 . S
C241 C236 1.382 . S
C241 C240 1.398 . S
C241 H263 0.929 . S
C242 O252 1.271 1_556 S
C242 O253 1.251 . S
C243 O254 1.252 1_554 S
C243 O255 1.272 . S
O244 Sm224 2.543 . S
O244 C226 1.261 . S
O245 Sm224 2.450 . S
O245 C226 1.242 . S
O246 Sm224 2.681 . S
O246 Sm225 2.386 . S
O246 C233 1.271 . S
O247 Sm224 2.464 . S
O247 C233 1.251 . S
O248 Sm224 2.396 . S
O248 C234 1.252 . S
O249 Sm225 2.408 . S
O249 C234 1.272 . S
O250 Sm225 2.543 1_655 S
O250 C235 1.261 1_554 S
O251 Sm225 2.450 1_556 S
O251 C235 1.242 1_455 S
O252 Sm224 2.386 . S
O252 Sm225 2.681 . S
O252 C242 1.271 1_554 S
O253 Sm225 2.464 1_556 S
O253 C242 1.251 . S
O254 Sm225 2.396 1_656 S
O254 C243 1.252 1_556 S
O255 Sm224 2.408 1_655 S
O255 C243 1.272 . S
H256 C228 0.930 . S
H257 C229 0.929 . S
H258 C231 0.930 . S
H259 C232 0.929 . S
H260 C237 0.930 1_554 S
H261 C238 0.929 . S
H262 C240 0.930 . S
H263 C241 0.929 . S
H264 C270 0.930 . S
H265 C273 0.930 . S
H266 C274 0.930 . S
H267 C275 0.930 . S
H268 C278 0.930 . S
H269 C279 0.930 . S
C270 H264 0.930 . S
C270 C271 1.355 . S
C270 C272 1.415 . S
C271 C270 1.355 . S
C271 C273 1.419 . S
C272 C270 1.415 . S
C272 C277 1.425 . S
C272 C279 1.409 . S
C273 H265 0.930 . S
C273 C271 1.419 . S
C273 C274 1.362 . S
C274 H266 0.930 . S
C274 C273 1.362 . S
C274 C277 1.409 . S
C275 H267 0.930 . S
C275 C276 1.355 . S
C275 C277 1.415 . S
C276 C275 1.355 . S
C276 C278 1.419 . S
C277 C272 1.425 . S
C277 C274 1.409 . S
C277 C275 1.415 . S
C278 H268 0.930 . S
C278 C276 1.419 . S
C278 C279 1.362 . S
C279 H269 0.930 . S
C279 C272 1.409 . S
C279 C278 1.362 . S
H280 C286 0.930 . S
H281 C289 0.930 . S
H282 C290 0.930 . S
H283 C291 0.930 . S
H284 C294 0.930 . S
H285 C295 0.930 . S
C286 H280 0.930 . S
C286 C287 1.355 . S
C286 C288 1.415 . S
C287 C286 1.355 . S
C287 C289 1.419 . S
C288 C286 1.415 . S
C288 C293 1.425 . S
C288 C295 1.409 . S
C289 H281 0.930 . S
C289 C287 1.419 . S
C289 C290 1.362 . S
C290 H282 0.930 . S
C290 C289 1.362 . S
C290 C293 1.409 . S
C291 H283 0.930 . S
C291 C292 1.355 . S
C291 C293 1.415 . S
C292 C291 1.355 . S
C292 C294 1.419 . S
C293 C288 1.425 . S
C293 C290 1.409 . S
C293 C291 1.415 . S
C294 H284 0.930 . S
C294 C292 1.419 . S
C294 C295 1.362 . S
C295 H285 0.930 . S
C295 C288 1.409 . S
C295 C294 1.362 . S
H296 C302 0.930 . S
H297 C305 0.930 . S
H298 C306 0.930 . S
H299 C307 0.930 . S
H300 C310 0.930 . S
H301 C311 0.930 . S
C302 H296 0.930 . S
C302 C303 1.355 . S
C302 C304 1.415 . S
C303 C302 1.355 . S
C303 C305 1.419 . S
C304 C302 1.415 . S
C304 C309 1.425 . S
C304 C311 1.409 . S
C305 H297 0.930 . S
C305 C303 1.419 . S
C305 C306 1.362 . S
C306 H298 0.930 . S
C306 C305 1.362 . S
C306 C309 1.409 . S
C307 H299 0.930 . S
C307 C308 1.355 . S
C307 C309 1.415 . S
C308 C307 1.355 . S
C308 C310 1.419 . S
C309 C304 1.425 . S
C309 C306 1.409 . S
C309 C307 1.415 . S
C310 H300 0.930 . S
C310 C308 1.419 . S
C310 C311 1.362 . S
C311 H301 0.930 . S
C311 C304 1.409 . S
C311 C310 1.362 . S
H312 C318 0.930 . S
H313 C321 0.930 . S
H314 C322 0.949 . S
H315 C323 0.930 1_455 S
H316 C326 0.930 . S
H317 C327 0.930 . S
C318 H312 0.930 . S
C318 C319 1.355 . S
C318 C320 1.415 . S
C319 C318 1.355 . S
C319 C321 1.419 . S
C320 C318 1.415 . S
C320 C325 1.425 . S
C320 C327 1.409 . S
C321 H313 0.930 . S
C321 C319 1.419 . S
C321 C322 1.349 1_655 S
C322 H314 0.949 . S
C322 C321 1.349 1_455 S
C322 C325 1.404 1_455 S
C323 H315 0.930 1_655 S
C323 C324 1.355 . S
C323 C325 1.415 . S
C324 C323 1.355 . S
C324 C326 1.419 . S
C325 C320 1.425 . S
C325 C322 1.404 1_655 S
C325 C323 1.415 . S
C326 H316 0.930 . S
C326 C324 1.419 . S
C326 C327 1.362 . S
C327 H317 0.930 . S
C327 C320 1.409 . S
C327 C326 1.362 . S
H328 C334 0.930 . S
H329 C337 0.930 . S
H330 C338 0.930 . S
H331 C339 0.930 . S
H332 C342 0.930 . S
H333 C343 0.930 . S
C334 H328 0.930 . S
C334 C335 1.355 . S
C334 C336 1.415 . S
C335 C334 1.355 . S
C335 C337 1.419 . S
C336 C334 1.415 . S
C336 C341 1.425 . S
C336 C343 1.409 . S
C337 H329 0.930 . S
C337 C335 1.419 . S
C337 C338 1.362 . S
C338 H330 0.930 . S
C338 C337 1.362 . S
C338 C341 1.409 . S
C339 H331 0.930 . S
C339 C340 1.355 . S
C339 C341 1.415 . S
C340 C339 1.355 . S
C340 C342 1.419 . S
C341 C336 1.425 . S
C341 C338 1.409 . S
C341 C339 1.415 . S
C342 H332 0.930 . S
C342 C340 1.419 . S
C342 C343 1.362 . S
C343 H333 0.930 . S
C343 C336 1.409 . S
C343 C342 1.362 . S
H344 C350 0.930 . S
H345 C353 0.930 . S
H346 C354 0.930 . S
H347 C355 0.930 1_545 S
H348 C358 0.930 . S
H349 C359 0.930 . S
C350 H344 0.930 . S
C350 C351 1.355 . S
C350 C352 1.415 . S
C351 C350 1.355 . S
C351 C353 1.419 . S
C352 C350 1.415 . S
C352 C357 1.425 . S
C352 C359 1.409 . S
C353 H345 0.930 . S
C353 C351 1.419 . S
C353 C354 1.362 . S
C354 H346 0.930 . S
C354 C353 1.362 . S
C354 C357 1.409 . S
C355 H347 0.930 1_565 S
C355 C356 1.355 . S
C355 C357 1.415 . S
C356 C355 1.355 . S
C356 C358 1.419 . S
C357 C352 1.425 . S
C357 C354 1.409 . S
C357 C355 1.415 . S
C358 H348 0.930 . S
C358 C356 1.419 . S
C358 C359 1.362 . S
C359 H349 0.930 . S
C359 C352 1.409 . S
C359 C358 1.362 . S
H360 C366 0.930 . S
H361 C369 0.930 . S
H362 C370 0.930 . S
H363 C371 0.930 1_554 S
H364 C374 0.930 . S
H365 C375 0.930 . S
C366 H360 0.930 . S
C366 C367 1.355 . S
C366 C368 1.415 . S
C367 C366 1.355 . S
C367 C369 1.419 . S
C368 C366 1.415 . S
C368 C373 1.425 . S
C368 C375 1.409 . S
C369 H361 0.930 . S
C369 C367 1.419 . S
C369 C370 1.362 . S
C370 H362 0.930 . S
C370 C369 1.362 . S
C370 C373 1.409 . S
C371 H363 0.930 1_556 S
C371 C372 1.355 . S
C371 C373 1.415 . S
C372 C371 1.355 . S
C372 C374 1.419 . S
C373 C368 1.425 . S
C373 C370 1.409 . S
C373 C371 1.415 . S
C374 H364 0.930 . S
C374 C372 1.419 . S
C374 C375 1.362 . S
C375 H365 0.930 . S
C375 C368 1.409 . S
C375 C374 1.362 . S
H376 C382 0.930 . S
H377 C385 0.930 . S
H378 C386 0.930 . S
H379 C387 0.930 . S
H380 C390 0.930 . S
H381 C391 0.930 . S
C382 H376 0.930 . S
C382 C383 1.355 . S
C382 C384 1.415 . S
C383 C382 1.355 . S
C383 C385 1.419 . S
C384 C382 1.415 . S
C384 C389 1.425 . S
C384 C391 1.409 . S
C385 H377 0.930 . S
C385 C383 1.419 . S
C385 C386 1.362 . S
C386 H378 0.930 . S
C386 C385 1.362 . S
C386 C389 1.409 . S
C387 H379 0.930 . S
C387 C388 1.355 . S
C387 C389 1.415 . S
C388 C387 1.355 . S
C388 C390 1.419 . S
C389 C384 1.425 . S
C389 C386 1.409 . S
C389 C387 1.415 . S
C390 H380 0.930 . S
C390 C388 1.419 . S
C390 C391 1.362 . S
C391 H381 0.930 . S
C391 C384 1.409 . S
C391 C390 1.362 . S
H392 C398 0.930 . S
H393 C401 0.930 . S
H394 C402 0.930 . S
H395 C403 0.930 . S
H396 C406 0.930 . S
H397 C407 0.930 . S
C398 H392 0.930 . S
C398 C399 1.355 . S
C398 C400 1.415 . S
C399 C398 1.355 . S
C399 C401 1.419 . S
C400 C398 1.415 . S
C400 C405 1.425 . S
C400 C407 1.409 . S
C401 H393 0.930 . S
C401 C399 1.419 . S
C401 C402 1.362 . S
C402 H394 0.930 . S
C402 C401 1.362 . S
C402 C405 1.409 . S
C403 H395 0.930 . S
C403 C404 1.355 . S
C403 C405 1.415 . S
C404 C403 1.355 . S
C404 C406 1.419 . S
C405 C400 1.425 . S
C405 C402 1.409 . S
C405 C403 1.415 . S
C406 H396 0.930 . S
C406 C404 1.419 . S
C406 C407 1.362 . S
C407 H397 0.930 . S
C407 C400 1.409 . S
C407 C406 1.362 . S
H408 C414 0.930 . S
H409 C417 0.930 . S
H410 C418 0.930 . S
H411 C419 0.930 . S
H412 C422 0.930 . S
H413 C423 0.930 . S
C414 H408 0.930 . S
C414 C415 1.355 . S
C414 C416 1.415 . S
C415 C414 1.355 . S
C415 C417 1.419 . S
C416 C414 1.415 . S
C416 C421 1.425 . S
C416 C423 1.409 . S
C417 H409 0.930 . S
C417 C415 1.419 . S
C417 C418 1.362 . S
C418 H410 0.930 . S
C418 C417 1.362 . S
C418 C421 1.409 . S
C419 H411 0.930 . S
C419 C420 1.355 . S
C419 C421 1.415 . S
C420 C419 1.355 . S
C420 C422 1.419 . S
C421 C416 1.425 . S
C421 C418 1.409 . S
C421 C419 1.415 . S
C422 H412 0.930 . S
C422 C420 1.419 . S
C422 C423 1.362 . S
C423 H413 0.930 . S
C423 C416 1.409 . S
C423 C422 1.362 . S
H424 C430 0.930 . S
H425 C433 0.930 . S
H426 C434 0.930 . S
H427 C435 0.930 . S
H428 C438 0.930 . S
H429 C439 0.930 . S
C430 H424 0.930 . S
C430 C431 1.355 . S
C430 C432 1.415 . S
C431 C430 1.355 . S
C431 C433 1.419 . S
C432 C430 1.415 . S
C432 C437 1.425 . S
C432 C439 1.409 1_655 S
C433 H425 0.930 . S
C433 C431 1.419 . S
C433 C434 1.362 . S
C434 H426 0.930 . S
C434 C433 1.362 . S
C434 C437 1.409 . S
C435 H427 0.930 . S
C435 C436 1.355 . S
C435 C437 1.415 . S
C436 C435 1.355 . S
C436 C438 1.419 1_655 S
C437 C432 1.425 . S
C437 C434 1.409 . S
C437 C435 1.415 . S
C438 H428 0.930 . S
C438 C436 1.419 1_455 S
C438 C439 1.362 . S
C439 H429 0.930 . S
C439 C432 1.409 1_455 S
C439 C438 1.362 . S
H440 C446 0.930 . S
H441 C449 0.930 . S
H442 C450 0.930 . S
H443 C451 0.930 . S
H444 C454 0.930 . S
H445 C455 0.930 . S
C446 H440 0.930 . S
C446 C447 1.355 . S
C446 C448 1.415 . S
C447 C446 1.355 . S
C447 C449 1.419 . S
C448 C446 1.415 . S
C448 C453 1.425 . S
C448 C455 1.409 . S
C449 H441 0.930 . S
C449 C447 1.419 . S
C449 C450 1.362 . S
C450 H442 0.930 . S
C450 C449 1.362 . S
C450 C453 1.409 . S
C451 H443 0.930 . S
C451 C452 1.355 . S
C451 C453 1.415 . S
C452 C451 1.355 . S
C452 C454 1.419 . S
C453 C448 1.425 . S
C453 C450 1.409 . S
C453 C451 1.415 . S
C454 H444 0.930 . S
C454 C452 1.419 . S
C454 C455 1.362 . S
C455 H445 0.930 . S
C455 C448 1.409 . S
C455 C454 1.362 . S
H456 C462 0.930 . S
H457 C465 0.930 . S
H458 C466 0.930 . S
H459 C467 0.930 . S
H460 C470 0.930 . S
H461 C471 0.930 . S
C462 H456 0.930 . S
C462 C463 1.355 . S
C462 C464 1.415 . S
C463 C462 1.355 . S
C463 C465 1.419 . S
C464 C462 1.415 . S
C464 C469 1.425 . S
C464 C471 1.409 . S
C465 H457 0.930 . S
C465 C463 1.419 . S
C465 C466 1.362 . S
C466 H458 0.930 . S
C466 C465 1.362 . S
C466 C469 1.409 . S
C467 H459 0.930 . S
C467 C468 1.355 . S
C467 C469 1.415 . S
C468 C467 1.355 . S
C468 C470 1.419 . S
C469 C464 1.425 . S
C469 C466 1.409 . S
C469 C467 1.415 . S
C470 H460 0.930 . S
C470 C468 1.419 . S
C470 C471 1.362 . S
C471 H461 0.930 . S
C471 C464 1.409 . S
C471 C470 1.362 . S
H472 C478 0.930 . S
H473 C481 0.930 . S
H474 C482 0.930 . S
H475 C483 0.930 . S
H476 C486 0.930 . S
H477 C487 0.930 . S
C478 H472 0.930 . S
C478 C479 1.355 . S
C478 C480 1.415 . S
C479 C478 1.355 . S
C479 C481 1.419 . S
C480 C478 1.415 . S
C480 C485 1.425 . S
C480 C487 1.409 . S
C481 H473 0.930 . S
C481 C479 1.419 . S
C481 C482 1.362 . S
C482 H474 0.930 . S
C482 C481 1.362 . S
C482 C485 1.409 . S
C483 H475 0.930 . S
C483 C484 1.355 . S
C483 C485 1.415 . S
C484 C483 1.355 . S
C484 C486 1.419 . S
C485 C480 1.425 . S
C485 C482 1.409 . S
C485 C483 1.415 . S
C486 H476 0.930 . S
C486 C484 1.419 . S
C486 C487 1.362 . S
C487 H477 0.930 . S
C487 C480 1.409 . S
C487 C486 1.362 . S
H488 C494 0.930 . S
H489 C497 0.930 . S
H490 C498 0.930 . S
H491 C499 0.930 . S
H492 C502 0.930 . S
H493 C503 0.930 . S
C494 H488 0.930 . S
C494 C495 1.355 . S
C494 C496 1.415 . S
C495 C494 1.355 . S
C495 C497 1.419 . S
C496 C494 1.415 . S
C496 C501 1.425 . S
C496 C503 1.409 . S
C497 H489 0.930 . S
C497 C495 1.419 . S
C497 C498 1.362 . S
C498 H490 0.930 . S
C498 C497 1.362 . S
C498 C501 1.409 . S
C499 H491 0.930 . S
C499 C500 1.355 . S
C499 C501 1.415 . S
C500 C499 1.355 . S
C500 C502 1.419 . S
C501 C496 1.425 . S
C501 C498 1.409 . S
C501 C499 1.415 . S
C502 H492 0.930 . S
C502 C500 1.419 . S
C502 C503 1.362 . S
C503 H493 0.930 . S
C503 C496 1.409 . S
C503 C502 1.362 . S
H504 C510 0.930 . S
H505 C513 0.930 . S
H506 C514 0.930 . S
H507 C515 0.930 . S
H508 C518 0.930 . S
H509 C519 0.930 . S
C510 H504 0.930 . S
C510 C511 1.355 . S
C510 C512 1.415 . S
C511 C510 1.355 . S
C511 C513 1.419 . S
C512 C510 1.415 . S
C512 C517 1.425 . S
C512 C519 1.409 . S
C513 H505 0.930 . S
C513 C511 1.419 . S
C513 C514 1.362 . S
C514 H506 0.930 . S
C514 C513 1.362 . S
C514 C517 1.409 . S
C515 H507 0.930 . S
C515 C516 1.355 . S
C515 C517 1.415 . S
C516 C515 1.355 . S
C516 C518 1.419 . S
C517 C512 1.425 . S
C517 C514 1.409 . S
C517 C515 1.415 . S
C518 H508 0.930 . S
C518 C516 1.419 . S
C518 C519 1.362 . S
C519 H509 0.930 . S
C519 C512 1.409 . S
C519 C518 1.362 . S
H520 C526 0.930 . S
H521 C529 0.930 . S
H522 C530 0.930 . S
H523 C531 0.930 . S
H524 C534 0.930 . S
H525 C535 0.930 . S
C526 H520 0.930 . S
C526 C527 1.355 . S
C526 C528 1.415 . S
C527 C526 1.355 . S
C527 C529 1.419 . S
C528 C526 1.415 . S
C528 C533 1.425 . S
C528 C535 1.409 . S
C529 H521 0.930 . S
C529 C527 1.419 . S
C529 C530 1.362 . S
C530 H522 0.930 . S
C530 C529 1.362 . S
C530 C533 1.409 . S
C531 H523 0.930 . S
C531 C532 1.355 . S
C531 C533 1.415 . S
C532 C531 1.355 . S
C532 C534 1.419 . S
C533 C528 1.425 . S
C533 C530 1.409 . S
C533 C531 1.415 . S
C534 H524 0.930 . S
C534 C532 1.419 . S
C534 C535 1.362 . S
C535 H525 0.930 . S
C535 C528 1.409 . S
C535 C534 1.362 . S
H536 C542 0.930 . S
H537 C545 0.930 . S
H538 C546 0.930 . S
H539 C547 0.930 . S
H540 C550 0.930 1_455 S
H541 C551 0.930 . S
C542 H536 0.930 . S
C542 C543 1.355 . S
C542 C544 1.415 . S
C543 C542 1.355 . S
C543 C545 1.419 . S
C544 C542 1.415 . S
C544 C549 1.425 . S
C544 C551 1.409 . S
C545 H537 0.930 . S
C545 C543 1.419 . S
C545 C546 1.362 . S
C546 H538 0.930 . S
C546 C545 1.362 . S
C546 C549 1.409 . S
C547 H539 0.930 . S
C547 C548 1.355 . S
C547 C549 1.415 . S
C548 C547 1.355 . S
C548 C550 1.419 . S
C549 C544 1.425 . S
C549 C546 1.409 . S
C549 C547 1.415 . S
C550 H540 0.930 1_655 S
C550 C548 1.419 . S
C550 C551 1.362 . S
C551 H541 0.930 . S
C551 C544 1.409 . S
C551 C550 1.362 . S
H552 C558 0.930 . S
H553 C561 0.930 . S
H554 C562 0.930 . S
H555 C563 0.930 . S
H556 C566 0.930 . S
H557 C567 0.930 . S
C558 H552 0.930 . S
C558 C559 1.355 . S
C558 C560 1.415 . S
C559 C558 1.355 . S
C559 C561 1.419 . S
C560 C558 1.415 . S
C560 C565 1.425 . S
C560 C567 1.409 . S
C561 H553 0.930 . S
C561 C559 1.419 . S
C561 C562 1.362 . S
C562 H554 0.930 . S
C562 C561 1.362 . S
C562 C565 1.409 . S
C563 H555 0.930 . S
C563 C564 1.355 . S
C563 C565 1.415 . S
C564 C563 1.355 . S
C564 C566 1.419 . S
C565 C560 1.425 . S
C565 C562 1.409 . S
C565 C563 1.415 . S
C566 H556 0.930 . S
C566 C564 1.419 . S
C566 C567 1.362 . S
C567 H557 0.930 . S
C567 C560 1.409 . S
C567 C566 1.362 . S
H568 C574 0.930 . S
H569 C577 0.930 . S
H570 C578 0.930 . S
H571 C579 0.930 . S
H572 C582 0.930 . S
H573 C583 0.930 . S
C574 H568 0.930 . S
C574 C575 1.355 . S
C574 C576 1.415 . S
C575 C574 1.355 . S
C575 C577 1.419 . S
C576 C574 1.415 . S
C576 C581 1.425 . S
C576 C583 1.409 . S
C577 H569 0.930 . S
C577 C575 1.419 . S
C577 C578 1.362 . S
C578 H570 0.930 . S
C578 C577 1.362 . S
C578 C581 1.409 . S
C579 H571 0.930 . S
C579 C580 1.355 . S
C579 C581 1.415 . S
C580 C579 1.355 . S
C580 C582 1.419 . S
C581 C576 1.425 . S
C581 C578 1.409 . S
C581 C579 1.415 . S
C582 H572 0.930 . S
C582 C580 1.419 . S
C582 C583 1.362 . S
C583 H573 0.930 . S
C583 C576 1.409 . S
C583 C582 1.362 . S
H584 C590 0.930 . S
H585 C593 0.930 . S
H586 C594 0.930 . S
H587 C595 0.930 . S
H588 C598 0.930 . S
H589 C599 0.930 . S
C590 H584 0.930 . S
C590 C591 1.355 . S
C590 C592 1.415 . S
C591 C590 1.355 . S
C591 C593 1.419 . S
C592 C590 1.415 . S
C592 C597 1.425 . S
C592 C599 1.409 . S
C593 H585 0.930 . S
C593 C591 1.419 . S
C593 C594 1.362 . S
C594 H586 0.930 . S
C594 C593 1.362 . S
C594 C597 1.409 . S
C595 H587 0.930 . S
C595 C596 1.355 . S
C595 C597 1.415 . S
C596 C595 1.355 . S
C596 C598 1.419 . S
C597 C592 1.425 . S
C597 C594 1.409 . S
C597 C595 1.415 . S
C598 H588 0.930 . S
C598 C596 1.419 . S
C598 C599 1.362 . S
C599 H589 0.930 . S
C599 C592 1.409 . S
C599 C598 1.362 . S
H600 C606 0.930 . S
H601 C609 0.930 . S
H602 C610 0.930 . S
H603 C611 0.930 . S
H604 C614 0.930 . S
H605 C615 0.930 . S
C606 H600 0.930 . S
C606 C607 1.355 . S
C606 C608 1.415 . S
C607 C606 1.355 . S
C607 C609 1.419 . S
C608 C606 1.415 . S
C608 C613 1.425 . S
C608 C615 1.409 . S
C609 H601 0.930 . S
C609 C607 1.419 . S
C609 C610 1.362 . S
C610 H602 0.930 . S
C610 C609 1.362 . S
C610 C613 1.409 . S
C611 H603 0.930 . S
C611 C612 1.355 . S
C611 C613 1.415 . S
C612 C611 1.355 . S
C612 C614 1.419 . S
C613 C608 1.425 . S
C613 C610 1.409 . S
C613 C611 1.415 . S
C614 H604 0.930 . S
C614 C612 1.419 . S
C614 C615 1.362 . S
C615 H605 0.930 . S
C615 C608 1.409 . S
C615 C614 1.362 . S
H616 C622 0.930 . S
H617 C625 0.930 . S
H618 C626 0.930 . S
H619 C627 0.930 . S
H620 C630 0.930 . S
H621 C631 0.930 . S
C622 H616 0.930 . S
C622 C623 1.355 . S
C622 C624 1.415 . S
C623 C622 1.355 . S
C623 C625 1.419 . S
C624 C622 1.415 . S
C624 C629 1.425 . S
C624 C631 1.409 . S
C625 H617 0.930 . S
C625 C623 1.419 . S
C625 C626 1.362 . S
C626 H618 0.930 . S
C626 C625 1.362 . S
C626 C629 1.409 . S
C627 H619 0.930 . S
C627 C628 1.355 . S
C627 C629 1.415 . S
C628 C627 1.355 . S
C628 C630 1.419 . S
C629 C624 1.425 . S
C629 C626 1.409 . S
C629 C627 1.415 . S
C630 H620 0.930 . S
C630 C628 1.419 . S
C630 C631 1.362 . S
C631 H621 0.930 . S
C631 C624 1.409 . S
C631 C630 1.362 . S
H632 C638 0.930 . S
H633 C641 0.930 . S
H634 C642 0.930 . S
H635 C643 0.930 . S
H636 C646 0.930 . S
H637 C647 0.930 . S
C638 H632 0.930 . S
C638 C639 1.355 . S
C638 C640 1.415 . S
C639 C638 1.355 . S
C639 C641 1.419 . S
C640 C638 1.415 . S
C640 C645 1.425 . S
C640 C647 1.409 . S
C641 H633 0.930 . S
C641 C639 1.419 . S
C641 C642 1.362 . S
C642 H634 0.930 . S
C642 C641 1.362 . S
C642 C645 1.409 . S
C643 H635 0.930 . S
C643 C644 1.355 . S
C643 C645 1.415 . S
C644 C643 1.355 . S
C644 C646 1.419 . S
C645 C640 1.425 . S
C645 C642 1.409 . S
C645 C643 1.415 . S
C646 H636 0.930 . S
C646 C644 1.419 . S
C646 C647 1.362 . S
C647 H637 0.930 . S
C647 C640 1.409 . S
C647 C646 1.362 . S
C271 C9 1.428 . S
C276 C110 1.480 . S
C287 C21 1.121 . S
C292 C159 1.123 . S
C308 C194 2.216 . S
C303 C30 2.280 . S
C319 C43 2.246 . S
C324 C233 2.309 1_655 S
C340 C154 2.098 . S
C335 C4 1.795 . S
C356 C113 1.466 . S
C351 C22 1.489 . S
C372 C243 1.636 1_556 S
C367 C34 1.687 . S
C388 C202 1.602 . S
C383 C48 1.636 . S
C399 C8 1.554 . S
C404 C230 1.592 . S
C420 C162 2.254 . S
C415 C35 2.352 . S
C431 C47 2.563 . S
C436 C123 2.556 . S
C447 C17 0.927 . S
C452 C199 0.945 . S
C468 C119 1.010 . S
C463 C60 1.026 . S
C479 C74 1.161 . S
C484 C150 1.157 . S
C495 C82 1.995 . S
C500 C203 2.015 . S
C511 C100 2.785 . S
C516 C242 2.730 . S
C527 C61 2.345 . S
C532 C163 2.468 . S
C548 C122 0.688 . S
C543 C73 0.660 . S
C564 C234 2.116 . S
C559 C87 2.198 . S
C580 C193 1.389 . S
C575 C95 1.413 . S
C591 C56 1.480 . S
C596 C239 1.486 . S
C612 C153 2.462 . S
C607 C86 2.537 . S
C628 C114 2.380 . S
C623 C99 2.393 . S
C639 C69 0.782 . S
C644 C190 0.781 . S
