# Generated by pormake.
# Topology anh, (6,3)-cn, num edge types: 1
# Building blocks:
#     Node 0, Type 0, BuildingBlock: BETGAK_clean_sbu_0, # of connection points: 6
#     Node 1, Type 0, BuildingBlock: BETGAK_clean_sbu_0, # of connection points: 6
#     Node 2, Type 0, BuildingBlock: BETGAK_clean_sbu_0, # of connection points: 6
#     Node 3, Type 1, BuildingBlock: ESEHIV_clean_linker_0, # of connection points: 3
#     Node 4, Type 1, BuildingBlock: ESEHIV_clean_linker_0, # of connection points: 3
#     Node 5, Type 1, BuildingBlock: ESEHIV_clean_linker_0, # of connection points: 3
#     Node 6, Type 1, BuildingBlock: ESEHIV_clean_linker_0, # of connection points: 3
#     Node 7, Type 1, BuildingBlock: ESEHIV_clean_linker_0, # of connection points: 3
#     Node 8, Type 1, BuildingBlock: ESEHIV_clean_linker_0, # of connection points: 3
#     Edge 9, Type (0, 1), BuildingBlock: KIFKEQ_clean_linker_1, # of connection points: 2
#     Edge 10, Type (0, 1), BuildingBlock: KIFKEQ_clean_linker_1, # of connection points: 2
#     Edge 11, Type (0, 1), BuildingBlock: KIFKEQ_clean_linker_1, # of connection points: 2
#     Edge 12, Type (0, 1), BuildingBlock: KIFKEQ_clean_linker_1, # of connection points: 2
#     Edge 13, Type (0, 1), BuildingBlock: KIFKEQ_clean_linker_1, # of connection points: 2
#     Edge 14, Type (0, 1), BuildingBlock: KIFKEQ_clean_linker_1, # of connection points: 2
#     Edge 15, Type (0, 1), BuildingBlock: KIFKEQ_clean_linker_1, # of connection points: 2
#     Edge 16, Type (0, 1), BuildingBlock: KIFKEQ_clean_linker_1, # of connection points: 2
#     Edge 17, Type (0, 1), BuildingBlock: KIFKEQ_clean_linker_1, # of connection points: 2
#     Edge 18, Type (0, 1), BuildingBlock: KIFKEQ_clean_linker_1, # of connection points: 2
#     Edge 19, Type (0, 1), BuildingBlock: KIFKEQ_clean_linker_1, # of connection points: 2
#     Edge 20, Type (0, 1), BuildingBlock: KIFKEQ_clean_linker_1, # of connection points: 2
#     Edge 21, Type (0, 1), BuildingBlock: KIFKEQ_clean_linker_1, # of connection points: 2
#     Edge 22, Type (0, 1), BuildingBlock: KIFKEQ_clean_linker_1, # of connection points: 2
#     Edge 23, Type (0, 1), BuildingBlock: KIFKEQ_clean_linker_1, # of connection points: 2
#     Edge 24, Type (0, 1), BuildingBlock: KIFKEQ_clean_linker_1, # of connection points: 2
#     Edge 25, Type (0, 1), BuildingBlock: KIFKEQ_clean_linker_1, # of connection points: 2
#     Edge 26, Type (0, 1), BuildingBlock: KIFKEQ_clean_linker_1, # of connection points: 2
# Relax obj value: 0.215
# Max RMSD: 0.223
# Mean RMSD: 0.164
data_MOF--net-anh--node1-BETGAK_clean_sbu_0--node2-ESEHIV_clean_linker_0--edge1-KIFKEQ_clean_linker_1
_symmetry_space_group_name_H-M    P1
_symmetry_Int_Tables_number       1
_symmetry_cell_setting            triclinic
loop_
_symmetry_equiv_pos_as_xyz
'x, y, z'
_cell_length_a     28.569562
_cell_length_b     35.604194
_cell_length_c     52.633786
_cell_angle_alpha  92.724997
_cell_angle_beta   88.889028
_cell_angle_gamma 130.39881
loop_
_atom_site_label
_atom_site_type_symbol
_atom_site_fract_x
_atom_site_fract_y
_atom_site_fract_z
_atom_type_partial_charge
La0 La 0.15296 0.52518 0.14762 0.0
La1 La 1.07495 0.54875 0.16326 0.0
C2 C 0.23147 0.52249 0.1279 0.0
C3 C 0.29544 0.54703 0.13473 0.0
C4 C 0.31108 0.51764 0.13817 0.0
C5 C 0.36988 0.53891 0.14643 0.0
C6 C 0.41463 0.59024 0.1513 0.0
C7 C 0.3992 0.61992 0.14775 0.0
C8 C 0.33972 0.59837 0.13975 0.0
C9 C 0.13382 0.52216 0.19691 0.0
C10 C 0.21354 0.63886 0.1596 0.0
C11 C 0.99503 0.54646 0.18604 0.0
C12 C 0.92947 0.50478 0.18977 0.0
C13 C 0.89566 0.46709 0.17078 0.0
C14 C 0.83397 0.42679 0.17428 0.0
C15 C 0.80441 0.42312 0.19688 0.0
C16 C 0.83875 0.46037 0.21622 0.0
C17 C 0.90103 0.50084 0.21272 0.0
C18 C 1.09624 0.55286 0.1139 0.0
C19 C 1.015 0.43599 0.15186 0.0
O20 O 0.19115 0.49119 0.14431 0.0
O21 O 0.21983 0.54989 0.11967 0.0
O22 O 0.14004 0.49365 0.18441 0.0
O23 O 0.14343 0.55335 0.18234 0.0
O24 O 0.21872 0.60725 0.1487 0.0
O25 O 0.1613 0.62316 0.16983 0.0
O26 O 1.01141 0.55997 0.16259 0.0
O27 O 1.03262 0.54356 0.19758 0.0
O28 O 1.09181 0.58249 0.12666 0.0
O29 O 1.08502 0.52077 0.12834 0.0
O30 O 1.01207 0.46748 0.16445 0.0
O31 O 1.06472 0.45228 0.13901 0.0
H32 H 0.27756 0.47799 0.13456 0.0
H33 H 0.38085 0.51517 0.14822 0.0
H34 H 0.43307 0.65959 0.15106 0.0
H35 H 0.32846 0.62176 0.13753 0.0
H36 H 0.91676 0.4689 0.15302 0.0
H37 H 0.80881 0.39962 0.15867 0.0
H38 H 0.81712 0.45875 0.23374 0.0
H39 H 0.92676 0.52928 0.22775 0.0
La40 La 0.66189 0.02744 0.47487 0.0
La41 La 0.57816 0.04794 0.46743 0.0
C42 C 0.71407 0.9958 0.48936 0.0
C43 C 0.69846 0.94873 0.49535 0.0
C44 C 0.73073 0.93573 0.48331 0.0
C45 C 0.71983 0.89294 0.48951 0.0
C46 C 0.67668 0.86236 0.50808 0.0
C47 C 0.64345 0.87489 0.51981 0.0
C48 C 0.65404 0.91759 0.51345 0.0
C49 C 0.65364 0.04475 0.42781 0.0
C50 C 0.51772 0.93806 0.46582 0.0
C51 C 0.52834 0.0822 0.45423 0.0
C52 C 0.53832 0.12786 0.46104 0.0
C53 C 0.49578 0.12521 0.47654 0.0
C54 C 0.50575 0.16797 0.4844 0.0
C55 C 0.55826 0.2146 0.47674 0.0
C56 C 0.60019 0.21712 0.46071 0.0
C57 C 0.59037 0.17427 0.45296 0.0
C58 C 0.58825 0.03272 0.51483 0.0
C59 C 0.72403 0.13835 0.47454 0.0
O60 O 0.7081 1.00099 0.46553 0.0
O61 O 0.69517 1.01327 0.5049 0.0
O62 O 0.70382 0.05935 0.43842 0.0
O63 O 0.6097 0.01941 0.44296 0.0
O64 O 0.56941 0.95381 0.47685 0.0
O65 O 0.51423 0.96977 0.4561 0.0
O66 O 0.50793 0.05137 0.47241 0.0
O67 O 0.571 0.08667 0.44107 0.0
O68 O 0.53841 0.01934 0.50466 0.0
O69 O 0.63113 0.05681 0.49918 0.0
O70 O 0.66922 0.1227 0.46781 0.0
O71 O 0.73154 0.10713 0.48109 0.0
H72 H 0.76533 0.95925 0.46936 0.0
H73 H 0.7467 0.88468 0.48034 0.0
H74 H 0.60944 0.85177 0.53401 0.0
H75 H 0.62812 0.9265 0.52293 0.0
H76 H 0.45516 0.08999 0.48301 0.0
H77 H 0.47287 0.16444 0.49706 0.0
H78 H 0.64066 0.25221 0.45409 0.0
H79 H 0.6239 0.17767 0.44084 0.0
La80 La 0.67897 0.59074 0.83972 0.0
La81 La 0.58886 0.48144 0.84379 0.0
C82 C 0.73576 0.67754 0.82593 0.0
C83 C 0.72295 0.71033 0.82008 0.0
C84 C 0.76646 0.76065 0.82723 0.0
C85 C 0.75713 0.79322 0.8212 0.0
C86 C 0.70406 0.77626 0.80769 0.0
C87 C 0.65978 0.72543 0.801 0.0
C88 C 0.66908 0.69277 0.80717 0.0
C89 C 0.66613 0.55946 0.88531 0.0
C90 C 0.53352 0.53465 0.84776 0.0
C91 C 0.53452 0.39331 0.85426 0.0
C92 C 0.54383 0.35758 0.84758 0.0
C93 C 0.49977 0.31516 0.83232 0.0
C94 C 0.50859 0.282 0.82467 0.0
C95 C 0.56162 0.29011 0.83224 0.0
C96 C 0.60536 0.33227 0.84791 0.0
C97 C 0.59654 0.36557 0.85552 0.0
C98 C 0.60405 0.51221 0.79745 0.0
C99 C 0.73612 0.5388 0.84087 0.0
O100 O 0.73008 0.66609 0.84968 0.0
O101 O 0.71359 0.63967 0.81009 0.0
O102 O 0.71789 0.59813 0.87671 0.0
O103 O 0.62367 0.54204 0.8693 0.0
O104 O 0.5883 0.5738 0.83946 0.0
O105 O 0.52532 0.49502 0.85422 0.0
O106 O 0.51839 0.40563 0.83541 0.0
O107 O 0.57526 0.43151 0.86935 0.0
O108 O 0.55253 0.47394 0.80619 0.0
O109 O 0.64577 0.52995 0.81395 0.0
O110 O 0.67869 0.49753 0.84468 0.0
O111 O 0.74731 0.58036 0.83608 0.0
H112 H 0.80812 0.77493 0.83737 0.0
H113 H 0.79165 0.83179 0.82716 0.0
H114 H 0.6186 0.711 0.79043 0.0
H115 H 0.63459 0.65399 0.80156 0.0
H116 H 0.45871 0.30801 0.82592 0.0
H117 H 0.47431 0.25054 0.81228 0.0
H118 H 0.64636 0.33949 0.85442 0.0
H119 H 0.63127 0.39771 0.86746 0.0
H120 H 0.54646 0.96656 0.23301 0.0
H121 H 0.71367 0.11832 0.23348 0.0
H122 H 0.62367 0.03849 0.16248 0.0
C123 C 0.58263 0.99923 0.22304 0.0
C124 C 0.58041 0.99706 0.19638 0.0
C125 C 0.63022 0.04274 0.23682 0.0
C126 C 0.67598 0.08463 0.22327 0.0
C127 C 0.6738 0.08388 0.19655 0.0
C128 C 0.6255 0.03979 0.18308 0.0
H129 H 0.65735 0.61118 0.6079 0.0
H130 H 0.62906 0.47711 0.60033 0.0
H131 H 0.64186 0.54794 0.53343 0.0
C132 C 0.65277 0.58331 0.59593 0.0
C133 C 0.65213 0.58517 0.5693 0.0
C134 C 0.64433 0.5445 0.60733 0.0
C135 C 0.63493 0.50697 0.59173 0.0
C136 C 0.6336 0.50773 0.5651 0.0
C137 C 0.64283 0.54721 0.55397 0.0
H138 H 1.05666 0.54038 0.91685 0.0
H139 H 0.21651 0.55304 0.91972 0.0
H140 H 0.1358 0.53686 0.84705 0.0
C141 C 1.09176 0.5422 0.90705 0.0
C142 C 1.09023 0.53886 0.88029 0.0
C143 C 0.13672 0.54737 0.92147 0.0
C144 C 0.18147 0.54866 0.90869 0.0
C145 C 0.18228 0.54452 0.88194 0.0
C146 C 0.13612 0.53985 0.86762 0.0
H147 H 1.04445 0.45103 0.39137 0.0
H148 H 0.1893 0.60816 0.392 0.0
H149 H 0.12064 0.53484 0.46287 0.0
C150 C 1.07664 0.486 0.40197 0.0
C151 C 1.07703 0.48729 0.42873 0.0
C152 C 0.11621 0.52941 0.38869 0.0
C153 C 0.15763 0.57465 0.40227 0.0
C154 C 0.16017 0.57701 0.42894 0.0
C155 C 0.11896 0.53328 0.44227 0.0
H156 H 0.61126 0.08516 0.71219 0.0
H157 H 0.64416 0.98331 0.70537 0.0
H158 H 0.63873 0.03722 0.77947 0.0
C159 C 0.61942 0.06287 0.72095 0.0
C160 C 0.62278 0.06388 0.74761 0.0
C161 C 0.62781 0.03443 0.7055 0.0
C162 C 0.63992 1.00675 0.71713 0.0
C163 C 0.64424 1.00747 0.74379 0.0
C164 C 0.63572 0.03636 0.75893 0.0
H165 H 0.65021 0.52879 0.06237 0.0
H166 H 0.58585 0.38143 0.06284 0.0
H167 H 0.58391 0.45148 0.13156 0.0
C168 C 0.63115 0.49603 0.07265 0.0
C169 C 0.61688 0.49453 0.09835 0.0
C170 C 0.61956 0.45536 0.05972 0.0
C171 C 0.5944 0.4127 0.07286 0.0
C172 C 0.58268 0.41124 0.09908 0.0
C173 C 0.59327 0.45219 0.11149 0.0
H174 H 0.45421 0.56112 0.18585 0.0
H175 H 0.51936 0.66748 0.1286 0.0
H176 H 0.54197 0.56595 0.17903 0.0
H177 H 0.60937 0.67442 0.12261 0.0
H178 H 0.59143 0.54794 0.07719 0.0
H179 H 0.5807 0.60304 0.09829 0.0
H180 H 0.64062 0.58906 0.16934 0.0
H181 H 0.65342 0.53398 0.14763 0.0
C182 C 0.48924 0.58764 0.17281 0.0
C183 C 0.47853 0.61182 0.15673 0.0
C184 C 0.54015 0.59088 0.16904 0.0
C185 C 0.58078 0.61851 0.14919 0.0
C186 C 0.57728 0.65126 0.13733 0.0
C187 C 0.52579 0.64748 0.14084 0.0
C188 C 0.60509 0.55804 0.09705 0.0
C189 C 0.62211 0.53555 0.11076 0.0
C190 C 0.59925 0.59024 0.10927 0.0
C191 C 0.60926 0.60032 0.13568 0.0
C192 C 0.63191 0.58159 0.14903 0.0
C193 C 0.63841 0.54954 0.13666 0.0
H194 H 0.72585 0.21507 0.46691 0.0
H195 H 0.84615 0.18352 0.47926 0.0
H196 H 0.81498 0.30126 0.46046 0.0
H197 H 0.93528 0.26988 0.47302 0.0
H198 H 1.06194 0.40391 0.42108 0.0
H199 H 0.9794 0.32188 0.43618 0.0
H200 H 0.90802 0.38018 0.48005 0.0
H201 H 0.99122 0.46275 0.46468 0.0
C202 C 0.77128 0.22656 0.46859 0.0
C203 C 0.77855 0.19201 0.47344 0.0
C204 C 0.82254 0.27621 0.46505 0.0
C205 C 0.88252 0.29268 0.46608 0.0
C206 C 0.88982 0.25847 0.4718 0.0
C207 C 0.83859 0.2089 0.47552 0.0
C208 C 1.02929 0.39938 0.43435 0.0
C209 C 1.03311 0.4398 0.4417 0.0
C210 C 0.982 0.35233 0.4431 0.0
C211 C 0.93666 0.34415 0.45927 0.0
C212 C 0.94178 0.38501 0.46743 0.0
C213 C 0.98977 0.43241 0.45887 0.0
H214 H 0.59787 0.76317 0.80643 0.0
H215 H 0.79225 0.87012 0.79144 0.0
H216 H 0.58512 0.82046 0.79239 0.0
H217 H 0.78006 0.92808 0.77874 0.0
H218 H 0.72499 0.9946 0.72799 0.0
H219 H 0.73873 0.93953 0.74424 0.0
H220 H 0.60653 0.89713 0.80288 0.0
H221 H 0.5907 0.95088 0.78577 0.0
C222 C 0.63794 0.79889 0.80023 0.0
C223 C 0.69608 0.81177 0.80005 0.0
C224 C 0.63076 0.83207 0.79249 0.0
C225 C 0.68152 0.87903 0.78436 0.0
C226 C 0.73972 0.89209 0.78454 0.0
C227 C 0.74686 0.85894 0.79218 0.0
C228 C 0.6986 0.97342 0.7443 0.0
C229 C 0.65636 0.97699 0.75542 0.0
C230 C 0.70702 0.94216 0.75384 0.0
C231 C 0.67372 0.91366 0.77491 0.0
C232 C 0.63241 0.918 0.78643 0.0
C233 C 0.62391 0.94934 0.77683 0.0
H234 H 0.7248 0.43633 0.21335 0.0
H235 H 0.72952 0.32479 0.18161 0.0
H236 H 0.62426 0.39248 0.1948 0.0
H237 H 0.62797 0.28059 0.16255 0.0
H238 H 0.50683 0.36849 0.14061 0.0
H239 H 0.52196 0.33316 0.17476 0.0
H240 H 0.63961 0.32597 0.126 0.0
H241 H 0.62669 0.36249 0.09275 0.0
C242 C 0.70289 0.40084 0.20368 0.0
C243 C 0.73638 0.38544 0.19766 0.0
C244 C 0.64455 0.37527 0.19298 0.0
C245 C 0.6197 0.33453 0.17588 0.0
C246 C 0.64711 0.31299 0.17485 0.0
C247 C 0.70549 0.33852 0.18564 0.0
C248 C 0.53441 0.35789 0.13697 0.0
C249 C 0.56853 0.37107 0.11449 0.0
C250 C 0.54236 0.33701 0.15645 0.0
C251 C 0.58417 0.32884 0.15356 0.0
C252 C 0.60776 0.33246 0.12921 0.0
C253 C 0.60051 0.35385 0.10992 0.0
H254 H 0.50703 0.86147 0.48366 0.0
H255 H 0.40552 0.89198 0.44326 0.0
H256 H 0.41894 0.77321 0.47965 0.0
H257 H 0.31814 0.8039 0.43878 0.0
H258 H 0.15141 0.64471 0.44827 0.0
H259 H 0.23663 0.73158 0.46043 0.0
H260 H 0.36495 0.70688 0.44789 0.0
H261 H 0.27945 0.62018 0.43634 0.0
C262 C 0.46599 0.84945 0.4739 0.0
C263 C 0.4637 0.88409 0.46371 0.0
C264 C 0.4154 0.79867 0.47152 0.0
C265 C 0.361 0.78103 0.4589 0.0
C266 C 0.35861 0.81584 0.449 0.0
C267 C 0.40914 0.86655 0.45138 0.0
C268 C 0.19775 0.65773 0.44898 0.0
C269 C 0.20889 0.62568 0.44189 0.0
C270 C 0.24675 0.70764 0.45554 0.0
C271 C 0.3081 0.72671 0.45495 0.0
C272 C 0.31859 0.69374 0.44891 0.0
C273 C 0.26961 0.64394 0.44235 0.0
H274 H 0.66974 0.31167 0.81794 0.0
H275 H 0.4758 0.18904 0.82614 0.0
H276 H 0.68398 0.25494 0.80051 0.0
H277 H 0.49006 0.13274 0.80824 0.0
H278 H 0.52904 0.06505 0.74273 0.0
H279 H 0.515 0.11826 0.76556 0.0
H280 H 0.6784 0.18372 0.81061 0.0
H281 H 0.69267 0.13034 0.78746 0.0
C282 C 0.63025 0.27261 0.81641 0.0
C283 C 0.57145 0.25518 0.82327 0.0
C284 C 0.63848 0.24007 0.80637 0.0
C285 C 0.58808 0.18934 0.80279 0.0
C286 C 0.52968 0.17171 0.81034 0.0
C287 C 0.52151 0.20411 0.82053 0.0
C288 C 0.56181 0.09063 0.7576 0.0
C289 C 0.6121 0.09364 0.76323 0.0
C290 C 0.55353 0.12088 0.77082 0.0
C291 C 0.5956 0.15532 0.78991 0.0
C292 C 0.64543 0.15783 0.79588 0.0
C293 C 0.65333 0.12702 0.7828 0.0
H294 H 0.6691 0.83428 0.55639 0.0
H295 H 0.66771 0.79307 0.47773 0.0
H296 H 0.66325 0.76666 0.56973 0.0
H297 H 0.66283 0.72572 0.49114 0.0
H298 H 0.58814 0.57938 0.52874 0.0
H299 H 0.59253 0.6451 0.51293 0.0
H300 H 0.7338 0.74825 0.56877 0.0
H301 H 0.73035 0.68312 0.58425 0.0
C302 C 0.6669 0.81046 0.54194 0.0
C303 C 0.66895 0.81909 0.51601 0.0
C304 C 0.66426 0.77207 0.54959 0.0
C305 C 0.66316 0.74114 0.53149 0.0
C306 C 0.66348 0.74885 0.50552 0.0
C307 C 0.66668 0.78759 0.49786 0.0
C308 C 0.62093 0.61627 0.53733 0.0
C309 C 0.65851 0.62582 0.55793 0.0
C310 C 0.62324 0.65386 0.52834 0.0
C311 C 0.66289 0.70168 0.53985 0.0
C312 C 0.70178 0.71154 0.55988 0.0
C313 C 0.69981 0.67418 0.56873 0.0
H314 H 0.73074 0.4586 0.84401 0.0
H315 H 0.86292 0.61718 0.84252 0.0
H316 H 0.81341 0.45647 0.84915 0.0
H317 H 0.94636 0.61553 0.84848 0.0
H318 H 1.09639 0.60176 0.84768 0.0
H319 H 1.01336 0.60165 0.83597 0.0
H320 H 0.88393 0.46702 0.87542 0.0
H321 H 0.96605 0.4668 0.88612 0.0
C322 C 0.7775 0.49331 0.84486 0.0
C323 C 0.78894 0.53806 0.84285 0.0
C324 C 0.82576 0.49219 0.84804 0.0
C325 C 0.88833 0.53586 0.84962 0.0
C326 C 0.89978 0.58069 0.84716 0.0
C327 C 0.85133 0.58173 0.84382 0.0
C328 C 1.0498 0.57122 0.85305 0.0
C329 C 1.03856 0.53367 0.86745 0.0
C330 C 1.00175 0.57157 0.84676 0.0
C331 C 0.94025 0.53443 0.85466 0.0
C332 C 0.92927 0.49615 0.86833 0.0
C333 C 0.977 0.49587 0.87454 0.0
H334 H 0.32647 0.68824 0.13718 0.0
H335 H 0.22414 0.71217 0.18614 0.0
H336 H 0.41584 0.77621 0.14129 0.0
H337 H 0.31329 0.79961 0.19052 0.0
H338 H 0.46668 0.9616 0.18183 0.0
H339 H 0.37794 0.87592 0.16951 0.0
H340 H 0.49285 0.83688 0.17216 0.0
H341 H 0.58126 0.92275 0.18388 0.0
C342 C 0.32301 0.71211 0.14892 0.0
C343 C 0.268 0.69275 0.16148 0.0
C344 C 0.37439 0.7627 0.15129 0.0
C345 C 0.37215 0.79542 0.16622 0.0
C346 C 0.31676 0.77601 0.17848 0.0
C347 C 0.26552 0.72554 0.17612 0.0
C348 C 0.47306 0.93486 0.17891 0.0
C349 C 0.53087 0.94882 0.18329 0.0
C350 C 0.42214 0.88559 0.17225 0.0
C351 C 0.42776 0.84902 0.17006 0.0
C352 C 0.48657 0.86381 0.17334 0.0
C353 C 0.5374 0.91306 0.17999 0.0
H354 H 0.66855 0.30532 0.49063 0.0
H355 H 0.47411 0.22765 0.48427 0.0
H356 H 0.68595 0.37777 0.50898 0.0
H357 H 0.49161 0.29966 0.50327 0.0
H358 H 0.54178 0.40939 0.57089 0.0
H359 H 0.5238 0.34063 0.54694 0.0
H360 H 0.67866 0.44325 0.4995 0.0
H361 H 0.69683 0.51244 0.52369 0.0
C362 C 0.6296 0.30382 0.49274 0.0
C363 C 0.56977 0.26025 0.48613 0.0
C364 C 0.63965 0.3454 0.50333 0.0
C365 C 0.5901 0.34429 0.50775 0.0
C366 C 0.53061 0.30138 0.50045 0.0
C367 C 0.52061 0.26001 0.48966 0.0
C368 C 0.57185 0.41727 0.55529 0.0
C369 C 0.62089 0.46626 0.54923 0.0
C370 C 0.56127 0.37789 0.54144 0.0
C371 C 0.59981 0.38651 0.52133 0.0
C372 C 0.64844 0.43551 0.515 0.0
C373 C 0.65857 0.47503 0.5287 0.0
H374 H 0.53539 0.6127 0.84126 0.0
H375 H 0.41127 0.46004 0.86062 0.0
H376 H 0.45245 0.61558 0.8461 0.0
H377 H 0.32814 0.46285 0.86559 0.0
H378 H 0.17279 0.46954 0.85619 0.0
H379 H 0.25516 0.46668 0.84677 0.0
H380 H 0.38959 0.61761 0.87538 0.0
H381 H 0.3074 0.62003 0.8846 0.0
C382 C 0.49047 0.57954 0.84658 0.0
C383 C 0.48122 0.53614 0.85057 0.0
C384 C 0.44232 0.58124 0.84951 0.0
C385 C 0.38215 0.5395 0.85635 0.0
C386 C 0.37283 0.49591 0.86003 0.0
C387 C 0.42117 0.49435 0.85733 0.0
C388 C 0.22005 0.5026 0.85975 0.0
C389 C 0.23275 0.54546 0.87061 0.0
C390 C 0.26776 0.50078 0.85475 0.0
C391 C 0.33045 0.54185 0.86027 0.0
C392 C 0.3429 0.58512 0.87038 0.0
C393 C 0.2953 0.58669 0.87562 0.0
H394 H 0.8994 0.39028 0.16955 0.0
H395 H 1.0118 0.35881 0.13796 0.0
H396 H 0.81583 0.30266 0.1752 0.0
H397 H 0.92818 0.2707 0.14419 0.0
H398 H 0.79761 0.13726 0.19881 0.0
H399 H 0.87848 0.22009 0.18368 0.0
H400 H 0.74055 0.21949 0.15104 0.0
H401 H 0.65957 0.13603 0.16596 0.0
C402 C 0.90605 0.36468 0.16342 0.0
C403 C 0.96242 0.38189 0.15314 0.0
C404 C 0.85792 0.31425 0.16663 0.0
C405 C 0.86516 0.27952 0.16013 0.0
C406 C 0.92115 0.29649 0.14946 0.0
C407 C 0.96899 0.347 0.14579 0.0
C408 C 0.78472 0.15441 0.18785 0.0
C409 C 0.72233 0.13013 0.18345 0.0
C410 C 0.83101 0.20182 0.17915 0.0
C411 C 0.81605 0.22657 0.16624 0.0
C412 C 0.75361 0.20155 0.16105 0.0
C413 C 0.70726 0.15365 0.16938 0.0
H414 H 1.08118 0.48161 0.08297 0.0
H415 H 0.13501 0.62608 0.08213 0.0
H416 H 1.09351 0.48148 0.03696 0.0
H417 H 0.15064 0.62751 0.0364 0.0
H418 H 0.10818 0.59502 0.9518 0.0
H419 H 1.09939 0.5958 0.99764 0.0
H420 H 0.15969 0.51201 0.00249 0.0
H421 H 0.16371 0.50788 0.95628 0.0
C422 C 1.09631 0.5136 0.07293 0.0
C423 C 0.10653 0.55364 0.08611 0.0
C424 C 0.10393 0.5138 0.0465 0.0
C425 C 0.12286 0.5544 0.03259 0.0
C426 C 0.13458 0.59498 0.0461 0.0
C427 C 0.12607 0.59441 0.07244 0.0
C428 C 0.1188 0.5761 0.96252 0.0
C429 C 0.13603 0.5509 0.95002 0.0
C430 C 0.11477 0.57728 0.98906 0.0
C431 C 0.1288 0.55399 0.00415 0.0
C432 C 0.14746 0.52975 0.9917 0.0
C433 C 0.15076 0.52804 0.96506 0.0
H434 H 0.74361 0.11037 0.39569 0.0
H435 H 0.54952 0.98498 0.39821 0.0
H436 H 0.73564 0.11151 0.34951 0.0
H437 H 0.54195 0.98532 0.35185 0.0
H438 H 0.59468 0.96857 0.2681 0.0
H439 H 0.5957 0.97064 0.31442 0.0
H440 H 0.67418 0.12277 0.31681 0.0
H441 H 0.66984 0.12035 0.27043 0.0
C442 C 0.69923 0.08329 0.38634 0.0
C443 C 0.64723 0.04751 0.4004 0.0
C444 C 0.69467 0.08405 0.36 0.0
C445 C 0.63827 0.04838 0.34721 0.0
C446 C 0.58599 1.01305 0.36132 0.0
C447 C 0.59027 1.01299 0.38777 0.0
C448 C 0.61094 1.00227 0.27834 0.0
C449 C 0.63198 0.04426 0.26526 0.0
C450 C 0.61174 1.0034 0.30492 0.0
C451 C 0.63482 0.04679 0.31909 0.0
C452 C 0.6564 0.08892 0.30624 0.0
C453 C 0.65439 0.08754 0.27964 0.0
H454 H 0.71302 0.57309 0.77201 0.0
H455 H 0.51605 0.47549 0.7616 0.0
H456 H 0.72583 0.5831 0.72592 0.0
H457 H 0.52857 0.48604 0.71598 0.0
H458 H 0.56511 0.46336 0.63547 0.0
H459 H 0.5594 0.45916 0.68151 0.0
H460 H 0.7116 0.61612 0.68935 0.0
H461 H 0.71894 0.62003 0.64302 0.0
C462 C 0.67263 0.55437 0.7599 0.0
C463 C 0.61355 0.52312 0.77026 0.0
C464 C 0.67988 0.56012 0.73356 0.0
C465 C 0.62813 0.53471 0.71724 0.0
C466 C 0.56931 0.50516 0.72791 0.0
C467 C 0.56214 0.49937 0.75408 0.0
C468 C 0.59801 0.49689 0.64695 0.0
C469 C 0.64245 0.54203 0.63552 0.0
C470 C 0.59422 0.49462 0.67338 0.0
C471 C 0.63461 0.53742 0.68913 0.0
C472 C 0.67993 0.58246 0.67776 0.0
C473 C 0.68372 0.58476 0.65124 0.0
H474 H 0.69499 0.07966 0.5423 0.0
H475 H 0.49758 0.97922 0.54901 0.0
H476 H 0.70547 0.07925 0.58834 0.0
H477 H 0.50759 0.97747 0.59466 0.0
H478 H 0.54574 0.03148 0.67736 0.0
H479 H 0.53851 0.03068 0.6314 0.0
H480 H 0.68935 0.03072 0.62332 0.0
H481 H 0.6987 0.03416 0.66953 0.0
C482 C 0.6539 0.05705 0.55361 0.0
C483 C 0.59551 0.02985 0.54219 0.0
C484 C 0.6598 0.05661 0.57995 0.0
C485 C 0.60737 0.02876 0.59533 0.0
C486 C 0.54902 1.00028 0.58358 0.0
C487 C 0.54321 1.00099 0.55737 0.0
C488 C 0.57792 0.03194 0.66585 0.0
C489 C 0.62293 0.03305 0.67724 0.0
C490 C 0.57321 0.03075 0.6394 0.0
C491 C 0.61309 0.0303 0.62354 0.0
C492 C 0.65818 0.03144 0.6349 0.0
C493 C 0.66305 0.0328 0.66142 0.0
H494 H 0.56221 0.49342 0.91166 0.0
H495 H 0.75618 0.56932 0.90997 0.0
H496 H 0.55376 0.45776 0.95167 0.0
H497 H 0.74762 0.53163 0.9492 0.0
H498 H 0.72464 0.52893 0.03647 0.0
H499 H 0.73685 0.54574 0.99172 0.0
H500 H 0.55635 0.40462 0.97574 0.0
H501 H 0.54318 0.38924 0.0212 0.0
C502 C 0.60277 0.50172 0.91973 0.0
C503 C 0.66005 0.53489 0.90825 0.0
C504 C 0.59791 0.4808 0.94246 0.0
C505 C 0.65017 0.49211 0.95386 0.0
C506 C 0.70674 0.52303 0.94133 0.0
C507 C 0.71175 0.54466 0.91889 0.0
C508 C 0.6881 0.5011 0.02329 0.0
C509 C 0.63253 0.45831 0.03225 0.0
C510 C 0.69522 0.51046 0.99753 0.0
C511 C 0.64711 0.4769 0.98007 0.0
C512 C 0.59372 0.43178 0.98878 0.0
C513 C 0.58642 0.42259 0.01472 0.0
H514 H 0.16439 0.59845 0.22851 0.0
H515 H 1.08657 0.44653 0.22766 0.0
H516 H 0.15911 0.60013 0.27484 0.0
H517 H 1.0771 0.44662 0.27368 0.0
H518 H 0.1309 0.47537 0.35698 0.0
H519 H 0.13386 0.47402 0.31072 0.0
H520 H 1.09945 0.57589 0.31077 0.0
H521 H 1.10054 0.57923 0.35722 0.0
C522 C 0.14525 0.5652 0.23831 0.0
C523 C 0.12649 0.52253 0.22467 0.0
C524 C 0.14173 0.56592 0.26487 0.0
C525 C 0.11811 0.5236 0.2783 0.0
C526 C 1.09725 0.48042 0.26429 0.0
C527 C 0.10211 0.48011 0.23784 0.0
C528 C 0.12389 0.49732 0.34698 0.0
C529 C 0.11553 0.52739 0.36054 0.0
C530 C 0.12508 0.49636 0.32042 0.0
C531 C 0.11655 0.52466 0.30672 0.0
C532 C 0.10735 0.55428 0.32049 0.0
C533 C 0.10749 0.556 0.34711 0.0
loop_
_geom_bond_atom_site_label_1
_geom_bond_atom_site_label_2
_geom_bond_distance
_geom_bond_site_symmetry_2
_ccdc_geom_bond_type
La0 C2 2.928 . S
La0 O20 2.521 . S
La0 O21 2.628 . S
La0 O22 2.554 . S
La0 O23 2.757 . S
La0 O24 2.470 . S
La0 O29 2.482 . S
La0 O31 2.503 1_455 S
La1 C11 2.928 . S
La1 O23 2.482 1_655 S
La1 O25 2.503 1_655 S
La1 O26 2.521 . S
La1 O27 2.628 . S
La1 O28 2.554 . S
La1 O29 2.757 1_655 S
La1 O30 2.470 . S
C2 La0 2.928 . S
C2 C3 1.503 . S
C2 O20 1.261 . S
C2 O21 1.243 . S
C3 C2 1.503 . S
C3 C4 1.394 . S
C3 C8 1.373 . S
C4 C3 1.394 . S
C4 C5 1.380 . S
C4 H32 0.930 . S
C5 C4 1.380 . S
C5 C6 1.376 . S
C5 H33 0.930 . S
C6 C5 1.376 . S
C6 C7 1.370 . S
C7 C6 1.370 . S
C7 C8 1.396 . S
C7 H34 0.929 . S
C8 C3 1.373 . S
C8 C7 1.396 . S
C8 H35 0.929 . S
C9 O22 1.240 . S
C9 O23 1.289 . S
C10 O24 1.258 . S
C10 O25 1.256 . S
C11 La1 2.928 . S
C11 C12 1.503 . S
C11 O26 1.261 . S
C11 O27 1.243 . S
C12 C11 1.503 . S
C12 C13 1.394 . S
C12 C17 1.373 . S
C13 C12 1.394 . S
C13 C14 1.380 . S
C13 H36 0.930 . S
C14 C13 1.380 . S
C14 C15 1.376 . S
C14 H37 0.930 . S
C15 C14 1.376 . S
C15 C16 1.370 . S
C16 C15 1.370 . S
C16 C17 1.396 . S
C16 H38 0.929 . S
C17 C12 1.373 . S
C17 C16 1.396 . S
C17 H39 0.929 . S
C18 O28 1.240 1_455 S
C18 O29 1.289 . S
C19 O30 1.258 . S
C19 O31 1.256 . S
O20 La0 2.521 . S
O20 C2 1.261 . S
O21 La0 2.628 . S
O21 C2 1.243 . S
O22 La0 2.554 . S
O22 C9 1.240 . S
O23 La0 2.757 . S
O23 La1 2.482 1_455 S
O23 C9 1.289 . S
O24 La0 2.470 . S
O24 C10 1.258 . S
O25 La1 2.503 1_455 S
O25 C10 1.256 . S
O26 La1 2.521 . S
O26 C11 1.261 . S
O27 La1 2.628 . S
O27 C11 1.243 . S
O28 La1 2.554 . S
O28 C18 1.240 1_655 S
O29 La0 2.482 . S
O29 La1 2.757 1_455 S
O29 C18 1.289 . S
O30 La1 2.470 . S
O30 C19 1.258 . S
O31 La0 2.503 1_655 S
O31 C19 1.256 . S
H32 C4 0.930 . S
H33 C5 0.930 . S
H34 C7 0.929 . S
H35 C8 0.929 . S
H36 C13 0.930 . S
H37 C14 0.930 . S
H38 C16 0.929 . S
H39 C17 0.929 . S
La40 C42 2.928 . S
La40 O60 2.521 . S
La40 O61 2.628 . S
La40 O62 2.554 . S
La40 O63 2.757 1_565 S
La40 O64 2.470 . S
La40 O69 2.482 . S
La40 O71 2.503 1_565 S
La41 C51 2.928 . S
La41 O63 2.482 . S
La41 O65 2.503 1_545 S
La41 O66 2.521 . S
La41 O67 2.628 . S
La41 O68 2.554 . S
La41 O69 2.757 1_545 S
La41 O70 2.470 . S
C42 La40 2.928 . S
C42 C43 1.503 . S
C42 O60 1.261 . S
C42 O61 1.243 . S
C43 C42 1.503 . S
C43 C44 1.394 . S
C43 C48 1.373 . S
C44 C43 1.394 . S
C44 C45 1.380 . S
C44 H72 0.930 . S
C45 C44 1.380 . S
C45 C46 1.376 . S
C45 H73 0.930 . S
C46 C45 1.376 . S
C46 C47 1.370 . S
C47 C46 1.370 . S
C47 C48 1.396 . S
C47 H74 0.929 . S
C48 C43 1.373 . S
C48 C47 1.396 . S
C48 H75 0.929 . S
C49 O62 1.240 1_545 S
C49 O63 1.289 . S
C50 O64 1.258 . S
C50 O65 1.256 . S
C51 La41 2.928 . S
C51 C52 1.503 . S
C51 O66 1.261 . S
C51 O67 1.243 . S
C52 C51 1.503 . S
C52 C53 1.394 . S
C52 C57 1.373 . S
C53 C52 1.394 . S
C53 C54 1.380 . S
C53 H76 0.930 . S
C54 C53 1.380 . S
C54 C55 1.376 . S
C54 H77 0.930 . S
C55 C54 1.376 . S
C55 C56 1.370 . S
C56 C55 1.370 . S
C56 C57 1.396 . S
C56 H78 0.929 . S
C57 C52 1.373 . S
C57 C56 1.396 . S
C57 H79 0.929 . S
C58 O68 1.240 . S
C58 O69 1.289 1_545 S
C59 O70 1.258 . S
C59 O71 1.256 . S
O60 La40 2.521 . S
O60 C42 1.261 . S
O61 La40 2.628 . S
O61 C42 1.243 . S
O62 La40 2.554 . S
O62 C49 1.240 1_565 S
O63 La40 2.757 1_545 S
O63 La41 2.482 . S
O63 C49 1.289 . S
O64 La40 2.470 . S
O64 C50 1.258 . S
O65 La41 2.503 1_565 S
O65 C50 1.256 . S
O66 La41 2.521 . S
O66 C51 1.261 . S
O67 La41 2.628 . S
O67 C51 1.243 . S
O68 La41 2.554 . S
O68 C58 1.240 . S
O69 La40 2.482 . S
O69 La41 2.757 1_565 S
O69 C58 1.289 1_565 S
O70 La41 2.470 . S
O70 C59 1.258 . S
O71 La40 2.503 1_545 S
O71 C59 1.256 . S
H72 C44 0.930 . S
H73 C45 0.930 . S
H74 C47 0.929 . S
H75 C48 0.929 . S
H76 C53 0.930 . S
H77 C54 0.930 . S
H78 C56 0.929 . S
H79 C57 0.929 . S
La80 C82 2.928 . S
La80 O100 2.521 . S
La80 O101 2.628 . S
La80 O102 2.554 . S
La80 O103 2.757 . S
La80 O104 2.470 . S
La80 O109 2.482 . S
La80 O111 2.503 . S
La81 C91 2.928 . S
La81 O103 2.482 . S
La81 O105 2.503 . S
La81 O106 2.521 . S
La81 O107 2.628 . S
La81 O108 2.554 . S
La81 O109 2.757 . S
La81 O110 2.470 . S
C82 La80 2.928 . S
C82 C83 1.503 . S
C82 O100 1.261 . S
C82 O101 1.243 . S
C83 C82 1.503 . S
C83 C84 1.394 . S
C83 C88 1.373 . S
C84 C83 1.394 . S
C84 C85 1.380 . S
C84 H112 0.930 . S
C85 C84 1.380 . S
C85 C86 1.376 . S
C85 H113 0.930 . S
C86 C85 1.376 . S
C86 C87 1.370 . S
C87 C86 1.370 . S
C87 C88 1.396 . S
C87 H114 0.929 . S
C88 C83 1.373 . S
C88 C87 1.396 . S
C88 H115 0.929 . S
C89 O102 1.240 . S
C89 O103 1.289 . S
C90 O104 1.258 . S
C90 O105 1.256 . S
C91 La81 2.928 . S
C91 C92 1.503 . S
C91 O106 1.261 . S
C91 O107 1.243 . S
C92 C91 1.503 . S
C92 C93 1.394 . S
C92 C97 1.373 . S
C93 C92 1.394 . S
C93 C94 1.380 . S
C93 H116 0.930 . S
C94 C93 1.380 . S
C94 C95 1.376 . S
C94 H117 0.930 . S
C95 C94 1.376 . S
C95 C96 1.370 . S
C96 C95 1.370 . S
C96 C97 1.396 . S
C96 H118 0.929 . S
C97 C92 1.373 . S
C97 C96 1.396 . S
C97 H119 0.929 . S
C98 O108 1.240 . S
C98 O109 1.289 . S
C99 O110 1.258 . S
C99 O111 1.256 . S
O100 La80 2.521 . S
O100 C82 1.261 . S
O101 La80 2.628 . S
O101 C82 1.243 . S
O102 La80 2.554 . S
O102 C89 1.240 . S
O103 La80 2.757 . S
O103 La81 2.482 . S
O103 C89 1.289 . S
O104 La80 2.470 . S
O104 C90 1.258 . S
O105 La81 2.503 . S
O105 C90 1.256 . S
O106 La81 2.521 . S
O106 C91 1.261 . S
O107 La81 2.628 . S
O107 C91 1.243 . S
O108 La81 2.554 . S
O108 C98 1.240 . S
O109 La80 2.482 . S
O109 La81 2.757 . S
O109 C98 1.289 . S
O110 La81 2.470 . S
O110 C99 1.258 . S
O111 La80 2.503 . S
O111 C99 1.256 . S
H112 C84 0.930 . S
H113 C85 0.930 . S
H114 C87 0.929 . S
H115 C88 0.929 . S
H116 C93 0.930 . S
H117 C94 0.930 . S
H118 C96 0.929 . S
H119 C97 0.929 . S
H120 C123 0.931 . S
H121 C126 0.928 . S
H122 C128 0.930 . S
C123 H120 0.931 . S
C123 C124 1.413 . S
C123 C125 1.360 1_565 S
C124 C123 1.413 . S
C124 C128 1.429 1_565 S
C125 C123 1.360 1_545 S
C125 C126 1.372 . S
C126 H121 0.928 . S
C126 C125 1.372 . S
C126 C127 1.404 . S
C127 C126 1.404 . S
C127 C128 1.391 . S
C128 H122 0.930 . S
C128 C124 1.429 1_545 S
C128 C127 1.391 . S
H129 C132 0.931 . S
H130 C135 0.928 . S
H131 C137 0.930 . S
C132 H129 0.931 . S
C132 C133 1.413 . S
C132 C134 1.360 . S
C133 C132 1.413 . S
C133 C137 1.429 . S
C134 C132 1.360 . S
C134 C135 1.372 . S
C135 H130 0.928 . S
C135 C134 1.372 . S
C135 C136 1.404 . S
C136 C135 1.404 . S
C136 C137 1.391 . S
C137 H131 0.930 . S
C137 C133 1.429 . S
C137 C136 1.391 . S
H138 C141 0.931 1_655 S
H139 C144 0.928 . S
H140 C146 0.930 . S
C141 H138 0.931 1_455 S
C141 C142 1.413 . S
C141 C143 1.360 . S
C142 C141 1.413 . S
C142 C146 1.429 . S
C143 C141 1.360 . S
C143 C144 1.372 . S
C144 H139 0.928 . S
C144 C143 1.372 . S
C144 C145 1.404 . S
C145 C144 1.404 . S
C145 C146 1.391 . S
C146 H140 0.930 . S
C146 C142 1.429 . S
C146 C145 1.391 . S
H147 C150 0.931 . S
H148 C153 0.928 . S
H149 C155 0.930 . S
C150 H147 0.931 . S
C150 C151 1.413 . S
C150 C152 1.359 1_655 S
C151 C150 1.413 . S
C151 C155 1.429 1_655 S
C152 C150 1.359 1_455 S
C152 C153 1.373 . S
C153 H148 0.928 . S
C153 C152 1.373 . S
C153 C154 1.404 . S
C154 C153 1.404 . S
C154 C155 1.391 . S
C155 H149 0.930 . S
C155 C151 1.429 1_455 S
C155 C154 1.391 . S
H156 C159 0.931 . S
H157 C162 0.928 . S
H158 C164 0.930 . S
C159 H156 0.931 . S
C159 C160 1.413 . S
C159 C161 1.352 1_545 S
C160 C159 1.413 . S
C160 C164 1.429 . S
C161 C159 1.352 1_565 S
C161 C162 1.380 . S
C162 H157 0.928 . S
C162 C161 1.380 . S
C162 C163 1.404 . S
C163 C162 1.404 . S
C163 C164 1.391 1_565 S
C164 H158 0.930 . S
C164 C160 1.429 . S
C164 C163 1.391 1_545 S
H165 C168 0.931 . S
H166 C171 0.928 . S
H167 C173 0.930 . S
C168 H165 0.931 . S
C168 C169 1.413 . S
C168 C170 1.360 . S
C169 C168 1.413 . S
C169 C173 1.429 . S
C170 C168 1.360 . S
C170 C171 1.372 . S
C171 H166 0.928 . S
C171 C170 1.372 . S
C171 C172 1.404 . S
C172 C171 1.404 . S
C172 C173 1.391 . S
C173 H167 0.930 . S
C173 C169 1.429 . S
C173 C172 1.391 . S
H174 C182 0.950 . S
H175 C187 0.950 . S
H176 C184 0.950 . S
H177 C186 0.950 . S
H178 C188 0.950 . S
H179 C190 0.950 . S
H180 C192 0.950 . S
H181 C193 0.950 . S
C182 H174 0.950 . S
C182 C183 1.386 . S
C182 C184 1.391 . S
C183 C182 1.386 . S
C183 C187 1.393 . S
C184 H176 0.950 . S
C184 C182 1.391 . S
C184 C185 1.400 . S
C185 C184 1.400 . S
C185 C186 1.398 . S
C185 C191 1.491 . S
C186 H177 0.950 . S
C186 C185 1.398 . S
C186 C187 1.391 . S
C187 H175 0.950 . S
C187 C183 1.393 . S
C187 C186 1.391 . S
C188 H178 0.950 . S
C188 C189 1.386 . S
C188 C190 1.391 . S
C189 C188 1.386 . S
C189 C193 1.393 . S
C190 H179 0.950 . S
C190 C188 1.391 . S
C190 C191 1.400 . S
C191 C185 1.491 . S
C191 C190 1.400 . S
C191 C192 1.398 . S
C192 H180 0.950 . S
C192 C191 1.398 . S
C192 C193 1.391 . S
C193 H181 0.950 . S
C193 C189 1.393 . S
C193 C192 1.391 . S
H194 C202 0.950 . S
H195 C207 0.950 . S
H196 C204 0.950 . S
H197 C206 0.950 . S
H198 C208 0.950 . S
H199 C210 0.950 . S
H200 C212 0.950 . S
H201 C213 0.950 . S
C202 H194 0.950 . S
C202 C203 1.386 . S
C202 C204 1.391 . S
C203 C202 1.386 . S
C203 C207 1.393 . S
C204 H196 0.950 . S
C204 C202 1.391 . S
C204 C205 1.400 . S
C205 C204 1.400 . S
C205 C206 1.398 . S
C205 C211 1.491 . S
C206 H197 0.950 . S
C206 C205 1.398 . S
C206 C207 1.391 . S
C207 H195 0.950 . S
C207 C203 1.393 . S
C207 C206 1.391 . S
C208 H198 0.950 . S
C208 C209 1.386 . S
C208 C210 1.391 . S
C209 C208 1.386 . S
C209 C213 1.393 . S
C210 H199 0.950 . S
C210 C208 1.391 . S
C210 C211 1.400 . S
C211 C205 1.491 . S
C211 C210 1.400 . S
C211 C212 1.398 . S
C212 H200 0.950 . S
C212 C211 1.398 . S
C212 C213 1.391 . S
C213 H201 0.950 . S
C213 C209 1.393 . S
C213 C212 1.391 . S
H214 C222 0.950 . S
H215 C227 0.950 . S
H216 C224 0.950 . S
H217 C226 0.950 . S
H218 C228 0.950 . S
H219 C230 0.950 . S
H220 C232 0.950 . S
H221 C233 0.950 . S
C222 H214 0.950 . S
C222 C223 1.386 . S
C222 C224 1.391 . S
C223 C222 1.386 . S
C223 C227 1.393 . S
C224 H216 0.950 . S
C224 C222 1.391 . S
C224 C225 1.400 . S
C225 C224 1.400 . S
C225 C226 1.398 . S
C225 C231 1.491 . S
C226 H217 0.950 . S
C226 C225 1.398 . S
C226 C227 1.391 . S
C227 H215 0.950 . S
C227 C223 1.393 . S
C227 C226 1.391 . S
C228 H218 0.950 . S
C228 C229 1.386 . S
C228 C230 1.391 . S
C229 C228 1.386 . S
C229 C233 1.393 . S
C230 H219 0.950 . S
C230 C228 1.391 . S
C230 C231 1.400 . S
C231 C225 1.491 . S
C231 C230 1.400 . S
C231 C232 1.398 . S
C232 H220 0.950 . S
C232 C231 1.398 . S
C232 C233 1.391 . S
C233 H221 0.950 . S
C233 C229 1.393 . S
C233 C232 1.391 . S
H234 C242 0.950 . S
H235 C247 0.950 . S
H236 C244 0.950 . S
H237 C246 0.950 . S
H238 C248 0.950 . S
H239 C250 0.950 . S
H240 C252 0.950 . S
H241 C253 0.950 . S
C242 H234 0.950 . S
C242 C243 1.386 . S
C242 C244 1.391 . S
C243 C242 1.386 . S
C243 C247 1.393 . S
C244 H236 0.950 . S
C244 C242 1.391 . S
C244 C245 1.400 . S
C245 C244 1.400 . S
C245 C246 1.398 . S
C245 C251 1.491 . S
C246 H237 0.950 . S
C246 C245 1.398 . S
C246 C247 1.391 . S
C247 H235 0.950 . S
C247 C243 1.393 . S
C247 C246 1.391 . S
C248 H238 0.950 . S
C248 C249 1.386 . S
C248 C250 1.391 . S
C249 C248 1.386 . S
C249 C253 1.393 . S
C250 H239 0.950 . S
C250 C248 1.391 . S
C250 C251 1.400 . S
C251 C245 1.491 . S
C251 C250 1.400 . S
C251 C252 1.398 . S
C252 H240 0.950 . S
C252 C251 1.398 . S
C252 C253 1.391 . S
C253 H241 0.950 . S
C253 C249 1.393 . S
C253 C252 1.391 . S
H254 C262 0.950 . S
H255 C267 0.950 . S
H256 C264 0.950 . S
H257 C266 0.950 . S
H258 C268 0.950 . S
H259 C270 0.950 . S
H260 C272 0.950 . S
H261 C273 0.950 . S
C262 H254 0.950 . S
C262 C263 1.386 . S
C262 C264 1.391 . S
C263 C262 1.386 . S
C263 C267 1.393 . S
C264 H256 0.950 . S
C264 C262 1.391 . S
C264 C265 1.400 . S
C265 C264 1.400 . S
C265 C266 1.398 . S
C265 C271 1.491 . S
C266 H257 0.950 . S
C266 C265 1.398 . S
C266 C267 1.391 . S
C267 H255 0.950 . S
C267 C263 1.393 . S
C267 C266 1.391 . S
C268 H258 0.950 . S
C268 C269 1.386 . S
C268 C270 1.391 . S
C269 C268 1.386 . S
C269 C273 1.393 . S
C270 H259 0.950 . S
C270 C268 1.391 . S
C270 C271 1.400 . S
C271 C265 1.491 . S
C271 C270 1.400 . S
C271 C272 1.398 . S
C272 H260 0.950 . S
C272 C271 1.398 . S
C272 C273 1.391 . S
C273 H261 0.950 . S
C273 C269 1.393 . S
C273 C272 1.391 . S
H274 C282 0.950 . S
H275 C287 0.950 . S
H276 C284 0.950 . S
H277 C286 0.950 . S
H278 C288 0.950 . S
H279 C290 0.950 . S
H280 C292 0.950 . S
H281 C293 0.950 . S
C282 H274 0.950 . S
C282 C283 1.386 . S
C282 C284 1.391 . S
C283 C282 1.386 . S
C283 C287 1.393 . S
C284 H276 0.950 . S
C284 C282 1.391 . S
C284 C285 1.400 . S
C285 C284 1.400 . S
C285 C286 1.398 . S
C285 C291 1.491 . S
C286 H277 0.950 . S
C286 C285 1.398 . S
C286 C287 1.391 . S
C287 H275 0.950 . S
C287 C283 1.393 . S
C287 C286 1.391 . S
C288 H278 0.950 . S
C288 C289 1.386 . S
C288 C290 1.391 . S
C289 C288 1.386 . S
C289 C293 1.393 . S
C290 H279 0.950 . S
C290 C288 1.391 . S
C290 C291 1.400 . S
C291 C285 1.491 . S
C291 C290 1.400 . S
C291 C292 1.398 . S
C292 H280 0.950 . S
C292 C291 1.398 . S
C292 C293 1.391 . S
C293 H281 0.950 . S
C293 C289 1.393 . S
C293 C292 1.391 . S
H294 C302 0.950 . S
H295 C307 0.950 . S
H296 C304 0.950 . S
H297 C306 0.950 . S
H298 C308 0.950 . S
H299 C310 0.950 . S
H300 C312 0.950 . S
H301 C313 0.950 . S
C302 H294 0.950 . S
C302 C303 1.386 . S
C302 C304 1.391 . S
C303 C302 1.386 . S
C303 C307 1.393 . S
C304 H296 0.950 . S
C304 C302 1.391 . S
C304 C305 1.400 . S
C305 C304 1.400 . S
C305 C306 1.398 . S
C305 C311 1.491 . S
C306 H297 0.950 . S
C306 C305 1.398 . S
C306 C307 1.391 . S
C307 H295 0.950 . S
C307 C303 1.393 . S
C307 C306 1.391 . S
C308 H298 0.950 . S
C308 C309 1.386 . S
C308 C310 1.391 . S
C309 C308 1.386 . S
C309 C313 1.393 . S
C310 H299 0.950 . S
C310 C308 1.391 . S
C310 C311 1.400 . S
C311 C305 1.491 . S
C311 C310 1.400 . S
C311 C312 1.398 . S
C312 H300 0.950 . S
C312 C311 1.398 . S
C312 C313 1.391 . S
C313 H301 0.950 . S
C313 C309 1.393 . S
C313 C312 1.391 . S
H314 C322 0.950 . S
H315 C327 0.950 . S
H316 C324 0.950 . S
H317 C326 0.950 . S
H318 C328 0.950 . S
H319 C330 0.950 . S
H320 C332 0.950 . S
H321 C333 0.950 . S
C322 H314 0.950 . S
C322 C323 1.386 . S
C322 C324 1.391 . S
C323 C322 1.386 . S
C323 C327 1.393 . S
C324 H316 0.950 . S
C324 C322 1.391 . S
C324 C325 1.400 . S
C325 C324 1.400 . S
C325 C326 1.398 . S
C325 C331 1.491 . S
C326 H317 0.950 . S
C326 C325 1.398 . S
C326 C327 1.391 . S
C327 H315 0.950 . S
C327 C323 1.393 . S
C327 C326 1.391 . S
C328 H318 0.950 . S
C328 C329 1.386 . S
C328 C330 1.391 . S
C329 C328 1.386 . S
C329 C333 1.393 . S
C330 H319 0.950 . S
C330 C328 1.391 . S
C330 C331 1.400 . S
C331 C325 1.491 . S
C331 C330 1.400 . S
C331 C332 1.398 . S
C332 H320 0.950 . S
C332 C331 1.398 . S
C332 C333 1.391 . S
C333 H321 0.950 . S
C333 C329 1.393 . S
C333 C332 1.391 . S
H334 C342 0.950 . S
H335 C347 0.950 . S
H336 C344 0.950 . S
H337 C346 0.950 . S
H338 C348 0.950 . S
H339 C350 0.950 . S
H340 C352 0.950 . S
H341 C353 0.950 . S
C342 H334 0.950 . S
C342 C343 1.386 . S
C342 C344 1.391 . S
C343 C342 1.386 . S
C343 C347 1.393 . S
C344 H336 0.950 . S
C344 C342 1.391 . S
C344 C345 1.400 . S
C345 C344 1.400 . S
C345 C346 1.398 . S
C345 C351 1.491 . S
C346 H337 0.950 . S
C346 C345 1.398 . S
C346 C347 1.391 . S
C347 H335 0.950 . S
C347 C343 1.393 . S
C347 C346 1.391 . S
C348 H338 0.950 . S
C348 C349 1.386 . S
C348 C350 1.391 . S
C349 C348 1.386 . S
C349 C353 1.393 . S
C350 H339 0.950 . S
C350 C348 1.391 . S
C350 C351 1.400 . S
C351 C345 1.491 . S
C351 C350 1.400 . S
C351 C352 1.398 . S
C352 H340 0.950 . S
C352 C351 1.398 . S
C352 C353 1.391 . S
C353 H341 0.950 . S
C353 C349 1.393 . S
C353 C352 1.391 . S
H354 C362 0.950 . S
H355 C367 0.950 . S
H356 C364 0.950 . S
H357 C366 0.950 . S
H358 C368 0.950 . S
H359 C370 0.950 . S
H360 C372 0.950 . S
H361 C373 0.950 . S
C362 H354 0.950 . S
C362 C363 1.386 . S
C362 C364 1.391 . S
C363 C362 1.386 . S
C363 C367 1.393 . S
C364 H356 0.950 . S
C364 C362 1.391 . S
C364 C365 1.400 . S
C365 C364 1.400 . S
C365 C366 1.398 . S
C365 C371 1.491 . S
C366 H357 0.950 . S
C366 C365 1.398 . S
C366 C367 1.391 . S
C367 H355 0.950 . S
C367 C363 1.393 . S
C367 C366 1.391 . S
C368 H358 0.950 . S
C368 C369 1.386 . S
C368 C370 1.391 . S
C369 C368 1.386 . S
C369 C373 1.393 . S
C370 H359 0.950 . S
C370 C368 1.391 . S
C370 C371 1.400 . S
C371 C365 1.491 . S
C371 C370 1.400 . S
C371 C372 1.398 . S
C372 H360 0.950 . S
C372 C371 1.398 . S
C372 C373 1.391 . S
C373 H361 0.950 . S
C373 C369 1.393 . S
C373 C372 1.391 . S
H374 C382 0.950 . S
H375 C387 0.950 . S
H376 C384 0.950 . S
H377 C386 0.950 . S
H378 C388 0.950 . S
H379 C390 0.950 . S
H380 C392 0.950 . S
H381 C393 0.950 . S
C382 H374 0.950 . S
C382 C383 1.386 . S
C382 C384 1.391 . S
C383 C382 1.386 . S
C383 C387 1.393 . S
C384 H376 0.950 . S
C384 C382 1.391 . S
C384 C385 1.400 . S
C385 C384 1.400 . S
C385 C386 1.398 . S
C385 C391 1.491 . S
C386 H377 0.950 . S
C386 C385 1.398 . S
C386 C387 1.391 . S
C387 H375 0.950 . S
C387 C383 1.393 . S
C387 C386 1.391 . S
C388 H378 0.950 . S
C388 C389 1.386 . S
C388 C390 1.391 . S
C389 C388 1.386 . S
C389 C393 1.393 . S
C390 H379 0.950 . S
C390 C388 1.391 . S
C390 C391 1.400 . S
C391 C385 1.491 . S
C391 C390 1.400 . S
C391 C392 1.398 . S
C392 H380 0.950 . S
C392 C391 1.398 . S
C392 C393 1.391 . S
C393 H381 0.950 . S
C393 C389 1.393 . S
C393 C392 1.391 . S
H394 C402 0.950 . S
H395 C407 0.950 . S
H396 C404 0.950 . S
H397 C406 0.950 . S
H398 C408 0.950 . S
H399 C410 0.950 . S
H400 C412 0.950 . S
H401 C413 0.950 . S
C402 H394 0.950 . S
C402 C403 1.386 . S
C402 C404 1.391 . S
C403 C402 1.386 . S
C403 C407 1.393 . S
C404 H396 0.950 . S
C404 C402 1.391 . S
C404 C405 1.400 . S
C405 C404 1.400 . S
C405 C406 1.398 . S
C405 C411 1.491 . S
C406 H397 0.950 . S
C406 C405 1.398 . S
C406 C407 1.391 . S
C407 H395 0.950 . S
C407 C403 1.393 . S
C407 C406 1.391 . S
C408 H398 0.950 . S
C408 C409 1.386 . S
C408 C410 1.391 . S
C409 C408 1.386 . S
C409 C413 1.393 . S
C410 H399 0.950 . S
C410 C408 1.391 . S
C410 C411 1.400 . S
C411 C405 1.491 . S
C411 C410 1.400 . S
C411 C412 1.398 . S
C412 H400 0.950 . S
C412 C411 1.398 . S
C412 C413 1.391 . S
C413 H401 0.950 . S
C413 C409 1.393 . S
C413 C412 1.391 . S
H414 C422 0.950 . S
H415 C427 0.950 . S
H416 C424 0.950 . S
H417 C426 0.950 . S
H418 C428 0.950 . S
H419 C430 0.950 1_554 S
H420 C432 0.950 . S
H421 C433 0.950 . S
C422 H414 0.950 . S
C422 C423 1.386 . S
C422 C424 1.391 . S
C423 C422 1.386 . S
C423 C427 1.393 . S
C424 H416 0.950 . S
C424 C422 1.391 . S
C424 C425 1.400 . S
C425 C424 1.400 . S
C425 C426 1.398 . S
C425 C431 1.491 . S
C426 H417 0.950 . S
C426 C425 1.398 . S
C426 C427 1.391 . S
C427 H415 0.950 . S
C427 C423 1.393 . S
C427 C426 1.391 . S
C428 H418 0.950 . S
C428 C429 1.386 . S
C428 C430 1.391 . S
C429 C428 1.386 . S
C429 C433 1.393 . S
C430 H419 0.950 1_556 S
C430 C428 1.391 . S
C430 C431 1.400 1_556 S
C431 C425 1.491 . S
C431 C430 1.400 1_554 S
C431 C432 1.398 1_554 S
C432 H420 0.950 . S
C432 C431 1.398 1_556 S
C432 C433 1.391 . S
C433 H421 0.950 . S
C433 C429 1.393 . S
C433 C432 1.391 . S
H434 C442 0.950 . S
H435 C447 0.950 . S
H436 C444 0.950 . S
H437 C446 0.950 . S
H438 C448 0.950 . S
H439 C450 0.950 . S
H440 C452 0.950 . S
H441 C453 0.950 . S
C442 H434 0.950 . S
C442 C443 1.386 . S
C442 C444 1.391 . S
C443 C442 1.386 . S
C443 C447 1.393 1_545 S
C444 H436 0.950 . S
C444 C442 1.391 . S
C444 C445 1.400 . S
C445 C444 1.400 . S
C445 C446 1.398 1_545 S
C445 C451 1.491 . S
C446 H437 0.950 . S
C446 C445 1.398 1_565 S
C446 C447 1.391 . S
C447 H435 0.950 . S
C447 C443 1.393 1_565 S
C447 C446 1.391 . S
C448 H438 0.950 . S
C448 C449 1.386 1_565 S
C448 C450 1.391 . S
C449 C448 1.386 1_545 S
C449 C453 1.393 . S
C450 H439 0.950 . S
C450 C448 1.391 . S
C450 C451 1.400 1_565 S
C451 C445 1.491 . S
C451 C450 1.400 1_545 S
C451 C452 1.398 . S
C452 H440 0.950 . S
C452 C451 1.398 . S
C452 C453 1.391 . S
C453 H441 0.950 . S
C453 C449 1.393 . S
C453 C452 1.391 . S
H454 C462 0.950 . S
H455 C467 0.950 . S
H456 C464 0.950 . S
H457 C466 0.950 . S
H458 C468 0.950 . S
H459 C470 0.950 . S
H460 C472 0.950 . S
H461 C473 0.950 . S
C462 H454 0.950 . S
C462 C463 1.386 . S
C462 C464 1.391 . S
C463 C462 1.386 . S
C463 C467 1.393 . S
C464 H456 0.950 . S
C464 C462 1.391 . S
C464 C465 1.400 . S
C465 C464 1.400 . S
C465 C466 1.398 . S
C465 C471 1.491 . S
C466 H457 0.950 . S
C466 C465 1.398 . S
C466 C467 1.391 . S
C467 H455 0.950 . S
C467 C463 1.393 . S
C467 C466 1.391 . S
C468 H458 0.950 . S
C468 C469 1.386 . S
C468 C470 1.391 . S
C469 C468 1.386 . S
C469 C473 1.393 . S
C470 H459 0.950 . S
C470 C468 1.391 . S
C470 C471 1.400 . S
C471 C465 1.491 . S
C471 C470 1.400 . S
C471 C472 1.398 . S
C472 H460 0.950 . S
C472 C471 1.398 . S
C472 C473 1.391 . S
C473 H461 0.950 . S
C473 C469 1.393 . S
C473 C472 1.391 . S
H474 C482 0.950 . S
H475 C487 0.950 . S
H476 C484 0.950 . S
H477 C486 0.950 . S
H478 C488 0.958 . S
H479 C490 0.950 . S
H480 C492 0.950 . S
H481 C493 0.950 . S
C482 H474 0.950 . S
C482 C483 1.386 . S
C482 C484 1.391 . S
C483 C482 1.386 . S
C483 C487 1.393 . S
C484 H476 0.950 . S
C484 C482 1.391 . S
C484 C485 1.400 . S
C485 C484 1.400 . S
C485 C486 1.398 . S
C485 C491 1.491 . S
C486 H477 0.950 . S
C486 C485 1.398 . S
C486 C487 1.391 . S
C487 H475 0.950 . S
C487 C483 1.393 . S
C487 C486 1.391 . S
C488 H478 0.958 . S
C488 C489 1.376 1_545 S
C488 C490 1.392 . S
C489 C488 1.376 1_565 S
C489 C493 1.393 . S
C490 H479 0.950 . S
C490 C488 1.392 . S
C490 C491 1.400 . S
C491 C485 1.491 . S
C491 C490 1.400 . S
C491 C492 1.398 1_545 S
C492 H480 0.950 . S
C492 C491 1.398 1_565 S
C492 C493 1.391 . S
C493 H481 0.950 . S
C493 C489 1.393 . S
C493 C492 1.391 . S
H494 C502 0.950 . S
H495 C507 0.950 . S
H496 C504 0.950 . S
H497 C506 0.950 . S
H498 C508 0.950 . S
H499 C510 0.946 1_556 S
H500 C512 0.950 . S
H501 C513 0.950 . S
C502 H494 0.950 . S
C502 C503 1.386 . S
C502 C504 1.391 . S
C503 C502 1.386 . S
C503 C507 1.393 . S
C504 H496 0.950 . S
C504 C502 1.391 . S
C504 C505 1.400 . S
C505 C504 1.400 . S
C505 C506 1.398 . S
C505 C511 1.491 . S
C506 H497 0.950 . S
C506 C505 1.398 . S
C506 C507 1.391 . S
C507 H495 0.950 . S
C507 C503 1.393 . S
C507 C506 1.391 . S
C508 H498 0.950 . S
C508 C509 1.386 . S
C508 C510 1.403 . S
C509 C508 1.386 . S
C509 C513 1.393 . S
C510 H499 0.946 1_554 S
C510 C508 1.403 . S
C510 C511 1.393 1_554 S
C511 C505 1.491 . S
C511 C510 1.393 1_556 S
C511 C512 1.398 . S
C512 H500 0.950 . S
C512 C511 1.398 . S
C512 C513 1.391 1_556 S
C513 H501 0.950 . S
C513 C509 1.393 . S
C513 C512 1.391 1_554 S
H514 C522 0.950 . S
H515 C527 0.950 . S
H516 C524 0.950 . S
H517 C526 0.950 . S
H518 C528 0.950 . S
H519 C530 0.950 . S
H520 C532 0.950 . S
H521 C533 0.950 . S
C522 H514 0.950 . S
C522 C523 1.386 . S
C522 C524 1.391 . S
C523 C522 1.386 . S
C523 C527 1.393 1_455 S
C524 H516 0.950 . S
C524 C522 1.391 . S
C524 C525 1.400 . S
C525 C524 1.400 . S
C525 C526 1.398 1_455 S
C525 C531 1.491 . S
C526 H517 0.950 . S
C526 C525 1.398 1_655 S
C526 C527 1.391 . S
C527 H515 0.950 . S
C527 C523 1.393 1_655 S
C527 C526 1.391 . S
C528 H518 0.950 . S
C528 C529 1.386 1_655 S
C528 C530 1.391 . S
C529 C528 1.386 1_455 S
C529 C533 1.393 . S
C530 H519 0.950 . S
C530 C528 1.391 . S
C530 C531 1.400 1_655 S
C531 C525 1.491 . S
C531 C530 1.400 1_455 S
C531 C532 1.398 . S
C532 H520 0.950 . S
C532 C531 1.398 . S
C532 C533 1.391 . S
C533 H521 0.950 . S
C533 C529 1.393 . S
C533 C532 1.391 . S
C183 C6 0.663 . S
C189 C169 0.652 . S
C203 C59 1.812 . S
C209 C151 1.792 . S
C223 C86 1.331 . S
C229 C163 1.360 . S
C243 C15 0.549 . S
C249 C172 0.498 . S
C269 C154 1.816 . S
C263 C50 1.827 . S
C289 C160 1.385 . S
C283 C95 1.358 . S
C303 C46 1.276 . S
C309 C133 1.304 . S
C323 C99 3.005 . S
C329 C142 2.973 1_655 S
C343 C10 1.849 . S
C349 C124 1.878 . S
C369 C136 1.374 . S
C363 C55 1.331 . S
C389 C145 2.913 . S
C383 C90 2.902 . S
C403 C19 1.799 . S
C409 C127 1.785 . S
C429 C143 1.795 . S
C423 C18 1.714 . S
C443 C49 1.297 . S
C449 C125 1.363 . S
C463 C98 1.435 . S
C469 C134 1.506 . S
C489 C161 1.479 . S
C483 C58 1.423 . S
C509 C170 1.040 . S
C503 C89 1.032 . S
C523 C9 1.315 . S
C529 C152 1.346 . S
