# Generated by pormake.
# Topology pyr, (3,6)-cn, num edge types: 1
# Building blocks:
#     Node 0, Type 0, BuildingBlock: ESEHIV_clean_linker_0, # of connection points: 3
#     Node 1, Type 0, BuildingBlock: ESEHIV_clean_linker_0, # of connection points: 3
#     Node 2, Type 0, BuildingBlock: ESEHIV_clean_linker_0, # of connection points: 3
#     Node 3, Type 0, BuildingBlock: ESEHIV_clean_linker_0, # of connection points: 3
#     Node 4, Type 0, BuildingBlock: ESEHIV_clean_linker_0, # of connection points: 3
#     Node 5, Type 0, BuildingBlock: ESEHIV_clean_linker_0, # of connection points: 3
#     Node 6, Type 0, BuildingBlock: ESEHIV_clean_linker_0, # of connection points: 3
#     Node 7, Type 0, BuildingBlock: ESEHIV_clean_linker_0, # of connection points: 3
#     Node 8, Type 1, BuildingBlock: PAMTOO_clean_sbu_0, # of connection points: 6
#     Node 9, Type 1, BuildingBlock: PAMTOO_clean_sbu_0, # of connection points: 6
#     Node 10, Type 1, BuildingBlock: PAMTOO_clean_sbu_0, # of connection points: 6
#     Node 11, Type 1, BuildingBlock: PAMTOO_clean_sbu_0, # of connection points: 6
#     Edge 12, Type (0, 1), BuildingBlock: XUDNAN_clean_linker_2, # of connection points: 2
#     Edge 13, Type (0, 1), BuildingBlock: XUDNAN_clean_linker_2, # of connection points: 2
#     Edge 14, Type (0, 1), BuildingBlock: XUDNAN_clean_linker_2, # of connection points: 2
#     Edge 15, Type (0, 1), BuildingBlock: XUDNAN_clean_linker_2, # of connection points: 2
#     Edge 16, Type (0, 1), BuildingBlock: XUDNAN_clean_linker_2, # of connection points: 2
#     Edge 17, Type (0, 1), BuildingBlock: XUDNAN_clean_linker_2, # of connection points: 2
#     Edge 18, Type (0, 1), BuildingBlock: XUDNAN_clean_linker_2, # of connection points: 2
#     Edge 19, Type (0, 1), BuildingBlock: XUDNAN_clean_linker_2, # of connection points: 2
#     Edge 20, Type (0, 1), BuildingBlock: XUDNAN_clean_linker_2, # of connection points: 2
#     Edge 21, Type (0, 1), BuildingBlock: XUDNAN_clean_linker_2, # of connection points: 2
#     Edge 22, Type (0, 1), BuildingBlock: XUDNAN_clean_linker_2, # of connection points: 2
#     Edge 23, Type (0, 1), BuildingBlock: XUDNAN_clean_linker_2, # of connection points: 2
#     Edge 24, Type (0, 1), BuildingBlock: XUDNAN_clean_linker_2, # of connection points: 2
#     Edge 25, Type (0, 1), BuildingBlock: XUDNAN_clean_linker_2, # of connection points: 2
#     Edge 26, Type (0, 1), BuildingBlock: XUDNAN_clean_linker_2, # of connection points: 2
#     Edge 27, Type (0, 1), BuildingBlock: XUDNAN_clean_linker_2, # of connection points: 2
#     Edge 28, Type (0, 1), BuildingBlock: XUDNAN_clean_linker_2, # of connection points: 2
#     Edge 29, Type (0, 1), BuildingBlock: XUDNAN_clean_linker_2, # of connection points: 2
#     Edge 30, Type (0, 1), BuildingBlock: XUDNAN_clean_linker_2, # of connection points: 2
#     Edge 31, Type (0, 1), BuildingBlock: XUDNAN_clean_linker_2, # of connection points: 2
#     Edge 32, Type (0, 1), BuildingBlock: XUDNAN_clean_linker_2, # of connection points: 2
#     Edge 33, Type (0, 1), BuildingBlock: XUDNAN_clean_linker_2, # of connection points: 2
#     Edge 34, Type (0, 1), BuildingBlock: XUDNAN_clean_linker_2, # of connection points: 2
#     Edge 35, Type (0, 1), BuildingBlock: XUDNAN_clean_linker_2, # of connection points: 2
# Relax obj value: 0.129
# Max RMSD: 0.175
# Mean RMSD: 0.072
data_MOF--net-pyr--node1-PAMTOO_clean_sbu_0--node2-ESEHIV_clean_linker_0--edge1-XUDNAN_clean_linker_2
_symmetry_space_group_name_H-M    P1
_symmetry_Int_Tables_number       1
_symmetry_cell_setting            triclinic
loop_
_symmetry_equiv_pos_as_xyz
'x, y, z'
_cell_length_a     34.626932
_cell_length_b     36.740255
_cell_length_c     36.194644
_cell_angle_alpha  90.18795
_cell_angle_beta   90.049773
_cell_angle_gamma 104.01534
loop_
_atom_site_label
_atom_site_type_symbol
_atom_site_fract_x
_atom_site_fract_y
_atom_site_fract_z
_atom_type_partial_charge
H0 H 0.3323 0.33266 0.26583 0.0
H1 H 0.41934 0.26722 0.27028 0.0
H2 H 0.39143 0.3119 0.16655 0.0
C3 C 0.35482 0.32133 0.25232 0.0
C4 C 0.35971 0.32508 0.214 0.0
C5 C 0.37573 0.30008 0.2728 0.0
C6 C 0.40461 0.28536 0.25504 0.0
C7 C 0.41093 0.2898 0.21677 0.0
C8 C 0.38839 0.30995 0.19633 0.0
H9 H 0.10871 0.79867 0.77768 0.0
H10 H 0.18497 0.72648 0.80728 0.0
H11 H 0.16139 0.7433 0.69359 0.0
C12 C 0.1256 0.77859 0.76995 0.0
C13 C 0.13218 0.77273 0.73231 0.0
C14 C 0.14482 0.76247 0.79758 0.0
C15 C 0.16782 0.73744 0.78692 0.0
C16 C 0.17326 0.73017 0.74957 0.0
C17 C 0.15516 0.7475 0.72244 0.0
H18 H 0.67638 0.34566 0.92182 0.0
H19 H 0.69359 0.445 0.85628 0.0
H20 H 0.60086 0.34756 0.82727 0.0
C21 C 0.66821 0.35972 0.89791 0.0
C22 C 0.63645 0.34088 0.87521 0.0
C23 C 0.68922 0.39696 0.89136 0.0
C24 C 0.67796 0.41609 0.86106 0.0
C25 C 0.64564 0.39882 0.83784 0.0
C26 C 0.62555 0.36092 0.84487 0.0
H27 H 0.84458 0.72224 0.41918 0.0
H28 H 0.93551 0.7371 0.33634 0.0
H29 H 0.83868 0.63733 0.33599 0.0
C30 C 0.85803 0.7112 0.39594 0.0
C31 C 0.83807 0.67679 0.38027 0.0
C32 C 0.89287 0.73333 0.38036 0.0
C33 C 0.90927 0.71959 0.34916 0.0
C34 C 0.89048 0.68439 0.33307 0.0
C35 C 0.85484 0.66304 0.3492 0.0
H36 H 0.61274 0.79799 0.82551 0.0
H37 H 0.71066 0.74516 0.82962 0.0
H38 H 0.65526 0.76861 0.93014 0.0
C39 C 0.63205 0.78444 0.84109 0.0
C40 C 0.62971 0.78371 0.87979 0.0
C41 C 0.66178 0.77139 0.82268 0.0
C42 C 0.68724 0.75485 0.84343 0.0
C43 C 0.68503 0.75342 0.88216 0.0
C44 C 0.65607 0.76791 0.90021 0.0
H45 H 0.80748 0.30227 0.35247 0.0
H46 H 0.90641 0.25211 0.33989 0.0
H47 H 0.8764 0.28692 0.4474 0.0
C48 C 0.83325 0.2947 0.36417 0.0
C49 C 0.83984 0.29801 0.40249 0.0
C50 C 0.85726 0.27847 0.34128 0.0
C51 C 0.88858 0.26576 0.35719 0.0
C52 C 0.89508 0.26781 0.39553 0.0
C53 C 0.8712 0.28486 0.41786 0.0
H54 H 0.34783 0.72282 0.18521 0.0
H55 H 0.33624 0.63107 0.26034 0.0
H56 H 0.43377 0.72833 0.27313 0.0
C57 C 0.35803 0.71112 0.20973 0.0
C58 C 0.39258 0.73129 0.22834 0.0
C59 C 0.3379 0.67481 0.22069 0.0
C60 C 0.35238 0.65866 0.25138 0.0
C61 C 0.38741 0.67705 0.27034 0.0
C62 C 0.40695 0.71381 0.25887 0.0
H63 H 0.10551 0.33475 0.76863 0.0
H64 H 0.1993 0.35923 0.68841 0.0
H65 H 0.20063 0.43532 0.77899 0.0
C66 C 0.13333 0.35266 0.75921 0.0
C67 C 0.15086 0.38637 0.77865 0.0
C68 C 0.15057 0.34282 0.72645 0.0
C69 C 0.18616 0.36654 0.7137 0.0
C70 C 0.20434 0.40005 0.73202 0.0
C71 C 0.18636 0.40981 0.76442 0.0
Dy72 Dy 0.07544 0.03525 0.53913 0.0
Dy73 Dy 0.99284 1.0252 0.58589 0.0
C74 C 0.06482 0.09775 0.59795 0.0
O75 O 0.08157 1.00966 0.59356 0.0
O76 O 0.01795 0.97622 0.59991 0.0
O77 O 0.13916 0.04454 0.54252 0.0
O78 O 0.10949 0.0333 0.48947 0.0
O79 O 0.97702 0.98895 0.53532 0.0
O80 O 0.03817 0.97858 0.5219 0.0
O81 O 0.99427 0.07407 0.54913 0.0
O82 O 0.03935 0.06554 0.50519 0.0
O83 O 0.93076 1.02509 0.5888 0.0
O84 O 0.96192 1.0141 0.63807 0.0
C85 C 0.05604 0.9797 0.60517 0.0
O86 O 0.07905 0.0912 0.56557 0.0
O87 O 0.03763 0.07176 0.61473 0.0
C88 C 0.17318 0.07558 0.49036 0.0
C89 C 0.22835 0.1362 0.45808 0.0
C90 C 0.22557 0.13296 0.49664 0.0
C91 C 0.19814 0.10296 0.51269 0.0
C92 C 0.17676 0.07841 0.45182 0.0
C93 C 0.20393 0.10849 0.43584 0.0
C94 C 0.1435 0.04404 0.50675 0.0
C95 C 0.99921 0.9697 0.51817 0.0
C96 C 1.01165 0.08177 0.51687 0.0
C97 C 0.89407 0.98324 0.63243 0.0
C98 C 0.82881 0.92399 0.65106 0.0
C99 C 0.84866 0.92351 0.61724 0.0
C100 C 0.88115 0.95291 0.60802 0.0
C101 C 0.87458 0.98369 0.66616 0.0
C102 C 0.84239 0.95432 0.6755 0.0
C103 C 0.92767 1.01472 0.62332 0.0
H104 H 0.24404 0.15399 0.51435 0.0
H105 H 0.19635 0.10145 0.54253 0.0
H106 H 0.15836 0.05745 0.43399 0.0
H107 H 0.20603 0.10996 0.40599 0.0
H108 H 0.83894 0.90062 0.59784 0.0
H109 H 0.89606 0.952 0.58185 0.0
H110 H 0.8844 1.00674 0.68542 0.0
H111 H 0.82858 0.95514 0.70222 0.0
Dy112 Dy 0.46454 1.02454 1.03205 0.0
Dy113 Dy 0.55876 0.04175 0.05826 0.0
C114 C 0.49276 0.97109 0.09195 0.0
O115 O 0.47501 0.07698 0.06518 0.0
O116 O 0.53036 0.07343 0.09857 0.0
O117 O 0.40192 1.01584 1.04483 0.0
O118 O 0.4219 1.01797 0.98782 0.0
O119 O 0.55606 0.09266 1.02521 0.0
O120 O 0.49842 0.06862 0.99275 0.0
O121 O 0.55408 1.00617 1.00764 0.0
O122 O 0.48722 0.97801 1.00775 0.0
O123 O 0.62156 0.05971 1.04599 0.0
O124 O 0.60178 0.03847 0.10038 0.0
C125 C 0.50022 0.08843 0.09225 0.0
O126 O 0.46373 0.98603 0.08088 0.0
O127 O 0.52976 0.98507 0.08143 0.0
C128 C 0.35743 0.98059 0.99974 0.0
C129 C 0.29068 0.92391 0.97768 0.0
C130 C 0.30275 0.92726 1.01492 0.0
C131 C 0.33584 0.95546 1.02591 0.0
C132 C 0.34546 0.97698 0.96265 0.0
C133 C 0.31278 0.94887 0.9517 0.0
C134 C 0.3914 1.01174 1.01009 0.0
C135 C 0.53132 0.09505 0.99825 0.0
C136 C 0.52374 0.97906 0.9974 0.0
C137 C 0.6618 0.08526 0.09773 0.0
C138 C 0.71778 0.14272 0.13436 0.0
C139 C 0.7041 0.1487 0.09881 0.0
C140 C 0.67629 0.12024 0.08064 0.0
C141 C 0.67581 0.07918 0.13293 0.0
C142 C 0.70318 0.1076 0.15116 0.0
C143 C 0.632 0.0547 0.0799 0.0
H144 H 0.28633 0.90846 1.03557 0.0
H145 H 0.34428 0.9577 1.0548 0.0
H146 H 0.36143 0.99604 0.94194 0.0
H147 H 0.30512 0.94654 0.92263 0.0
H148 H 0.71493 0.17531 0.08498 0.0
H149 H 0.66606 0.12572 1.0534 0.0
H150 H 0.6651 0.05247 0.14667 0.0
H151 H 0.71217 0.10217 0.17886 0.0
Dy152 Dy 0.51738 0.50363 0.53974 0.0
Dy153 Dy 0.52183 0.58668 0.57433 0.0
C154 C 0.55314 0.52286 0.62025 0.0
O155 O 0.46532 0.49517 0.57901 0.0
O156 O 0.45857 0.55547 0.58121 0.0
O157 O 0.50547 0.44347 0.54556 0.0
O158 O 0.52148 0.46891 0.4922 0.0
O159 O 0.50977 0.59207 0.51371 0.0
O160 O 0.47953 0.5305 0.50265 0.0
O161 O 0.58166 0.59524 0.54817 0.0
O162 O 0.57404 0.53957 0.51599 0.0
O163 O 0.50413 0.63897 0.57237 0.0
O164 O 0.54001 0.62788 0.61793 0.0
C165 C 0.44516 0.51977 0.58867 0.0
O166 O 0.55764 0.5063 0.58889 0.0
O167 O 0.53449 0.55021 0.62106 0.0
C168 C 0.54868 0.41832 0.50806 0.0
C169 C 0.61385 0.38591 0.49784 0.0
C170 C 0.60597 0.39908 0.53283 0.0
C171 C 0.57385 0.41536 0.53786 0.0
C172 C 0.55589 0.40426 0.47335 0.0
C173 C 0.58827 0.38831 0.46823 0.0
C174 C 0.51706 0.43866 0.51204 0.0
C175 C 0.48732 0.56611 0.49273 0.0
C176 C 0.59415 0.57397 0.52387 0.0
C177 C 0.48709 0.65685 0.6307 0.0
C178 C 0.41802 0.66459 0.66831 0.0
C179 C 0.43626 0.69099 0.64158 0.0
C180 C 0.4705 0.68722 0.62314 0.0
C181 C 0.46999 0.6312 0.65831 0.0
C182 C 0.43604 0.63524 0.67716 0.0
C183 C 0.51735 0.64883 0.60547 0.0
H184 H 0.6254 0.39789 0.55603 0.0
H185 H 0.56933 0.4264 0.56488 0.0
H186 H 0.53699 0.40642 0.44999 0.0
H187 H 0.59344 0.378 0.44106 0.0
H188 H 0.42306 0.71359 0.63339 0.0
H189 H 0.48278 0.70691 0.60148 0.0
H190 H 0.48184 0.60713 0.66429 0.0
H191 H 0.42338 0.61474 0.69799 0.0
Dy192 Dy 0.02048 0.5704 1.02803 0.0
Dy193 Dy 1.01079 0.49721 0.08035 0.0
C194 C 0.98333 0.56991 0.10986 0.0
O195 O 0.07367 0.58446 0.06619 0.0
O196 O 0.07591 0.52415 0.0778 0.0
O197 O 0.03662 0.63052 1.02068 0.0
O198 O 1.01315 0.5943 0.97465 0.0
O199 O 0.02 0.47916 1.02225 0.0
O200 O 0.05542 0.5346 0.99833 0.0
O201 O 0.94803 0.49334 0.06238 0.0
O202 O 0.9627 0.53056 1.01096 0.0
O203 O 1.00542 0.43745 0.08588 0.0
O204 O 1.0122 0.47275 0.13439 0.0
C205 C 0.09253 0.56019 0.07912 0.0
O206 O 0.98167 0.5801 0.07515 0.0
O207 O 0.99887 0.54179 0.11864 0.0
C208 C 0.98897 0.64827 0.98235 0.0
C209 C 0.91987 0.6749 0.97164 0.0
C210 C 0.93352 0.67027 1.00745 0.0
C211 C 0.96759 0.65701 1.01274 0.0
C212 C 0.97649 0.65447 0.94654 0.0
C213 C 0.94225 0.66772 0.9412 0.0
C214 C 0.02078 0.62835 0.9878 0.0
C215 C 0.0444 0.4977 0.9971 0.0
C216 C 0.93747 0.50552 1.03066 0.0
C217 C 0.05172 0.42886 0.13043 0.0
C218 C 0.12491 0.40862 0.13793 0.0
C219 C 0.08968 0.38116 0.13041 0.0
C220 C 0.05337 0.39126 0.12649 0.0
C221 C 0.08674 0.456 0.13925 0.0
C222 C 0.12287 0.44599 0.14297 0.0
C223 C 0.01521 0.4407 0.1207 0.0
H224 H 0.91737 0.67616 1.03148 0.0
H225 H 0.97635 0.65237 1.04068 0.0
H226 H 0.99227 0.64758 0.92269 0.0
H227 H 0.93234 0.67071 0.91323 0.0
H228 H 0.09043 0.35212 0.12634 0.0
H229 H 0.02687 0.36997 0.11924 0.0
H230 H 0.08654 0.48529 0.14226 0.0
H231 H 0.14935 0.46763 0.14949 0.0
H232 H 0.29883 0.27541 0.29419 0.0
H233 H 0.41986 0.29121 0.3343 0.0
H234 H 0.39409 0.25767 0.39186 0.0
H235 H 0.25022 0.28173 0.38596 0.0
H236 H 0.20716 0.24588 0.37219 0.0
H237 H 0.23494 0.27735 0.33819 0.0
H238 H 0.24369 0.22027 0.29979 0.0
H239 H 0.21666 0.18865 0.33376 0.0
H240 H 0.26626 0.18614 0.321 0.0
H241 H 0.35517 0.21438 0.44042 0.0
H242 H 0.30719 0.16513 0.47474 0.0
H243 H 0.21259 0.17902 0.40166 0.0
C244 C 0.31998 0.2735 0.31572 0.0
C245 C 0.36135 0.28653 0.31005 0.0
C246 C 0.38802 0.28167 0.33825 0.0
C247 C 0.37363 0.26285 0.37104 0.0
C248 C 0.33257 0.24936 0.37516 0.0
C249 C 0.30618 0.25485 0.34829 0.0
C250 C 0.26397 0.23394 0.35684 0.0
C251 C 0.23752 0.26137 0.36372 0.0
C252 C 0.24668 0.20558 0.32603 0.0
C253 C 0.27081 0.21441 0.39196 0.0
C254 C 0.31036 0.2241 0.40261 0.0
C255 C 0.32403 0.20718 0.43274 0.0
C256 C 0.29664 0.17929 0.45205 0.0
C257 C 0.25633 0.16837 0.44068 0.0
C258 C 0.24329 0.18682 0.41082 0.0
H259 H 0.15069 0.8352 0.81851 0.0
H260 H 0.15084 0.7258 0.86327 0.0
H261 H 0.17705 0.75582 0.9222 0.0
H262 H 0.2362 0.8808 0.84891 0.0
H263 H 0.22426 0.92452 0.86063 0.0
H264 H 0.19551 0.89453 0.8263 0.0
H265 H 0.13062 0.89213 0.86269 0.0
H266 H 0.15903 0.92309 0.89702 0.0
H267 H 0.12737 0.87865 0.91064 0.0
H268 H 0.21951 0.79873 0.96853 0.0
H269 H 0.26909 0.84983 0.99896 0.0
H270 H 0.23498 0.93054 0.92656 0.0
C271 C 0.15376 0.81703 0.84119 0.0
C272 C 0.14873 0.77802 0.83592 0.0
C273 C 0.1549 0.75582 0.86632 0.0
C274 C 0.16948 0.7726 0.90009 0.0
C275 C 0.17656 0.81149 0.90344 0.0
C276 C 0.16772 0.83328 0.87506 0.0
C277 C 0.18275 0.87468 0.88332 0.0
C278 C 0.21137 0.89474 0.85302 0.0
C279 C 0.14786 0.89322 0.88876 0.0
C280 C 0.2043 0.87283 0.9193 0.0
C281 C 0.19985 0.83625 0.93098 0.0
C282 C 0.22204 0.82754 0.96044 0.0
C283 C 0.25016 0.85677 0.97761 0.0
C284 C 0.25597 0.89417 0.96505 0.0
C285 C 0.23133 0.90221 0.93669 0.0
H286 H 0.62502 0.38163 0.76338 0.0
H287 H 0.63316 0.4689 0.8461 0.0
H288 H 0.61135 0.50898 0.80009 0.0
H289 H 0.66167 0.44457 0.68694 0.0
H290 H 0.62865 0.41738 0.65301 0.0
H291 H 0.64405 0.39453 0.69243 0.0
H292 H 0.57035 0.36647 0.70956 0.0
H293 H 0.55479 0.38917 0.67011 0.0
H294 H 0.53745 0.39727 0.71563 0.0
H295 H 0.58755 0.54006 0.74568 0.0
H296 H 0.56529 0.5605 0.68622 0.0
H297 H 0.57414 0.45544 0.63587 0.0
C298 C 0.622 0.4091 0.77182 0.0
C299 C 0.63119 0.42197 0.80873 0.0
C300 C 0.62696 0.45833 0.81821 0.0
C301 C 0.61436 0.48137 0.79218 0.0
C302 C 0.60605 0.46817 0.75616 0.0
C303 C 0.60979 0.43294 0.74577 0.0
C304 C 0.59954 0.42622 0.7048 0.0
C305 C 0.63563 0.42033 0.68301 0.0
C306 C 0.56338 0.39279 0.69974 0.0
C307 C 0.58943 0.46305 0.694 0.0
C308 C 0.59319 0.48664 0.72427 0.0
C309 C 0.58472 0.52182 0.72178 0.0
C310 C 0.572 0.53324 0.6877 0.0
C311 C 0.56806 0.50995 0.6559 0.0
C312 C 0.57718 0.47429 0.65933 0.0
H313 H 0.90421 0.61521 0.31215 0.0
H314 H 0.90936 0.72708 0.27113 0.0
H315 H 0.93214 0.70948 0.21059 0.0
H316 H 0.99337 0.60428 0.26448 0.0
H317 H 0.97401 0.55511 0.25464 0.0
H318 H 0.95703 0.57584 0.29477 0.0
H319 H 0.88418 0.55236 0.27249 0.0
H320 H 0.90096 0.53163 0.23225 0.0
H321 H 0.87061 0.56481 0.22699 0.0
H322 H 0.95251 0.67972 0.15355 0.0
H323 H 0.974 0.64145 0.10542 0.0
H324 H 0.96008 0.54888 0.18233 0.0
C325 C 0.91012 0.63594 0.29037 0.0
C326 C 0.90505 0.67274 0.2967 0.0
C327 C 0.91339 0.69897 0.26737 0.0
C328 C 0.92616 0.68913 0.23269 0.0
C329 C 0.931 0.65288 0.22738 0.0
C330 C 0.92368 0.62671 0.25546 0.0
C331 C 0.93257 0.59003 0.2424 0.0
C332 C 0.96625 0.58078 0.26545 0.0
C333 C 0.89483 0.5578 0.24361 0.0
C334 C 0.94584 0.59967 0.20266 0.0
C335 C 0.94421 0.63601 0.19462 0.0
C336 C 0.95403 0.65128 0.15966 0.0
C337 C 0.96607 0.62914 0.13228 0.0
C338 C 0.96884 0.59197 0.13966 0.0
C339 C 0.95855 0.57718 0.17561 0.0
H340 H 0.39136 0.24523 0.15582 0.0
H341 H 0.48501 0.28226 0.23693 0.0
H342 H 0.52017 0.23618 0.21239 0.0
H343 H 0.38667 0.15075 0.16216 0.0
H344 H 0.3776 0.14027 0.11379 0.0
H345 H 0.36253 0.17931 0.13425 0.0
H346 H 0.40382 0.22442 0.08596 0.0
H347 H 0.41843 0.18535 0.06483 0.0
H348 H 0.45584 0.22579 0.07999 0.0
H349 H 0.54147 0.1815 0.18262 0.0
H350 H 0.54902 0.1256 0.1477 0.0
H351 H 0.44063 0.12516 0.08701 0.0
C352 C 0.41999 0.24467 0.16754 0.0
C353 C 0.43572 0.2676 0.19799 0.0
C354 C 0.47258 0.26501 0.21344 0.0
C355 C 0.49272 0.23895 0.19971 0.0
C356 C 0.47564 0.21582 0.17046 0.0
C357 C 0.44034 0.2188 0.15428 0.0
C358 C 0.42682 0.18918 0.12482 0.0
C359 C 0.386 0.16336 0.13435 0.0
C360 C 0.42621 0.20727 0.08664 0.0
C361 C 0.45955 0.16855 0.12744 0.0
C362 C 0.4876 0.18435 0.15373 0.0
C363 C 0.51988 0.16914 0.16169 0.0
C364 C 0.52378 0.13725 0.14189 0.0
C365 C 0.49544 0.12089 0.1146 0.0
C366 C 0.46294 0.13689 0.10758 0.0
H367 H 0.06393 0.79916 0.72584 0.0
H368 H 0.1803 0.80748 0.67694 0.0
H369 H 0.17047 0.85789 0.63657 0.0
H370 H 0.0147 0.82222 0.63985 0.0
H371 H 0.98613 0.84918 0.66486 0.0
H372 H 0.9996 0.81 0.68676 0.0
H373 H 0.03246 0.85354 0.74034 0.0
H374 H 0.01961 0.89291 0.71842 0.0
H375 H 0.07074 0.89512 0.73013 0.0
H376 H 0.1535 0.91243 0.60816 0.0
H377 H 0.12675 0.96518 0.58783 0.0
H378 H 0.02002 0.92272 0.65276 0.0
C379 C 0.0869 0.81104 0.70603 0.0
C380 C 0.12263 0.79878 0.70427 0.0
C381 C 0.15218 0.81541 0.67823 0.0
C382 C 0.14707 0.84442 0.65533 0.0
C383 C 0.11215 0.85651 0.65851 0.0
C384 C 0.08221 0.84011 0.6827 0.0
C385 C 0.04861 0.86012 0.68175 0.0
C386 C 1.00997 0.83381 0.66745 0.0
C387 C 0.04252 0.87638 0.71993 0.0
C388 C 0.06512 0.891 0.65417 0.0
C389 C 0.10183 0.88818 0.64123 0.0
C390 C 0.12449 0.91464 0.61755 0.0
C391 C 0.10916 0.9447 0.60645 0.0
C392 C 0.07133 0.94802 0.61874 0.0
C393 C 0.04886 0.92063 0.64272 0.0
H394 H 0.76513 0.44167 0.87672 0.0
H395 H 0.68625 0.39469 0.96679 0.0
H396 H 0.74008 0.41868 1.01147 0.0
H397 H 0.85279 0.42182 0.91354 0.0
H398 H 0.88618 0.46491 0.89876 0.0
H399 H 0.84099 0.44598 0.87337 0.0
H400 H 0.81992 0.50848 0.88169 0.0
H401 H 0.86521 0.52769 0.90694 0.0
H402 H 0.81773 0.52731 0.92749 0.0
H403 H 0.80357 0.44303 1.04651 0.0
H404 H 0.87148 0.47023 0.06983 0.0
H405 H 0.91002 0.5048 0.95856 0.0
C406 C 0.75902 0.43704 0.90588 0.0
C407 C 0.72133 0.41572 0.91801 0.0
C408 C 0.71488 0.41018 0.95654 0.0
C409 C 0.7453 0.4239 0.98227 0.0
C410 C 0.78228 0.44374 0.96943 0.0
C411 C 0.78924 0.45082 0.93222 0.0
C412 C 0.83219 0.47243 0.92604 0.0
C413 C 0.85433 0.44994 0.90147 0.0
C414 C 0.83385 0.51129 0.90956 0.0
C415 C 0.84825 0.47573 0.96544 0.0
C416 C 0.81886 0.45889 0.98996 0.0
C417 C 0.82671 0.4567 1.02761 0.0
C418 C 0.86551 0.47215 1.04062 0.0
C419 C 0.89624 0.48996 1.01624 0.0
C420 C 0.88719 0.49187 0.9781 0.0
H421 H 0.80566 0.60941 0.41725 0.0
H422 H 0.77698 0.70937 0.37334 0.0
H423 H 0.71163 0.6924 0.40388 0.0
H424 H 0.70095 0.5485 0.4096 0.0
H425 H 0.70515 0.52391 0.45185 0.0
H426 H 0.74862 0.54174 0.42386 0.0
H427 H 0.78433 0.57835 0.48036 0.0
H428 H 0.74081 0.56112 0.50837 0.0
H429 H 0.76157 0.6109 0.50427 0.0
H430 H 0.65465 0.67087 0.44558 0.0
H431 H 0.60236 0.63975 0.48897 0.0
H432 H 0.66176 0.5495 0.5036 0.0
C433 C 0.78497 0.6269 0.41317 0.0
C434 C 0.79632 0.66069 0.39268 0.0
C435 C 0.76881 0.68334 0.38866 0.0
C436 C 0.73167 0.67401 0.40606 0.0
C437 C 0.72185 0.64148 0.42715 0.0
C438 C 0.74704 0.61762 0.43014 0.0
C439 C 0.72868 0.58476 0.45539 0.0
C440 C 0.72035 0.54751 0.43389 0.0
C441 C 0.75545 0.58374 0.48909 0.0
C442 C 0.69 0.59466 0.46674 0.0
C443 C 0.68717 0.62778 0.45023 0.0
C444 C 0.65609 0.64454 0.45814 0.0
C445 C 0.6267 0.62682 0.48311 0.0
C446 C 0.62789 0.59226 0.49962 0.0
C447 C 0.65993 0.57577 0.49113 0.0
H448 H 0.27955 0.30103 0.21802 0.0
H449 H 0.37345 0.38174 0.16252 0.0
H450 H 0.32262 0.40938 0.13247 0.0
H451 H 0.2059 0.28847 0.14255 0.0
H452 H 0.16499 0.28429 0.17429 0.0
H453 H 0.20857 0.26894 0.18784 0.0
H454 H 0.21672 0.31235 0.24536 0.0
H455 H 0.17337 0.32796 0.23197 0.0
H456 H 0.22006 0.36171 0.23934 0.0
H457 H 0.26148 0.43191 0.1143 0.0
H458 H 0.19556 0.44591 0.10706 0.0
H459 H 0.14243 0.34959 0.17471 0.0
C460 C 0.28937 0.32426 0.19915 0.0
C461 C 0.33026 0.33958 0.19264 0.0
C462 C 0.34216 0.36969 0.16766 0.0
C463 C 0.31354 0.38548 0.1506 0.0
C464 C 0.27337 0.37032 0.15852 0.0
C465 C 0.26136 0.34005 0.18189 0.0
C466 C 0.21676 0.32996 0.18748 0.0
C467 C 0.19795 0.29058 0.17211 0.0
C468 C 0.20613 0.33321 0.22846 0.0
C469 C 0.20541 0.35999 0.16446 0.0
C470 C 0.23838 0.38288 0.14776 0.0
C471 C 0.23546 0.41387 0.12686 0.0
C472 C 0.19797 0.42173 0.12312 0.0
C473 C 0.16391 0.39873 0.14025 0.0
C474 C 0.16778 0.36725 0.16077 0.0
H475 H 0.66467 0.28472 0.91035 0.0
H476 H 0.55622 0.30629 0.86477 0.0
H477 H 0.51867 0.24457 0.88749 0.0
H478 H 0.64195 0.18419 0.89652 0.0
H479 H 0.66319 0.17556 0.94015 0.0
H480 H 0.68221 0.21929 0.91649 0.0
H481 H 0.66924 0.25579 0.97465 0.0
H482 H 0.65018 0.21219 0.99846 0.0
H483 H 0.62005 0.2457 0.99444 0.0
H484 H 0.49198 0.18013 0.91825 0.0
H485 H 0.47885 0.12207 0.95546 0.0
H486 H 0.6035 0.14623 0.98651 0.0
C487 C 0.63297 0.27704 0.90515 0.0
C488 C 0.61384 0.30139 0.88553 0.0
C489 C 0.57228 0.28861 0.87892 0.0
C490 C 0.55045 0.25348 0.89212 0.0
C491 C 0.57021 0.23109 0.91234 0.0
C492 C 0.6106 0.24258 0.91893 0.0
C493 C 0.62458 0.21466 0.9434 0.0
C494 C 0.65477 0.19741 0.92291 0.0
C495 C 0.64204 0.23319 0.97989 0.0
C496 C 0.58573 0.18563 0.94987 0.0
C497 C 0.55476 0.19529 0.93127 0.0
C498 C 0.51613 0.17251 0.93287 0.0
C499 C 0.50894 0.13939 0.95409 0.0
C500 C 0.54 0.12929 0.97414 0.0
C501 C 0.57894 0.15298 0.97174 0.0
H502 H 0.96542 0.76948 0.41296 0.0
H503 H 0.85074 0.78615 0.37933 0.0
H504 H 0.86684 0.84866 0.40861 0.0
H505 H 0.96817 0.81267 0.50099 0.0
H506 H 0.02056 0.83517 0.50072 0.0
H507 H 1.00213 0.79275 0.47452 0.0
H508 H 0.03357 0.82612 0.41504 0.0
H509 H 0.05242 0.8686 0.44115 0.0
H510 H 0.02163 0.86918 0.40109 0.0
H511 H 0.89157 0.90622 0.44625 0.0
H512 H 0.92605 0.95845 0.48614 0.0
H513 H 0.02687 0.90808 0.49511 0.0
C514 C 0.94426 0.7868 0.41104 0.0
C515 C 0.90682 0.77298 0.39361 0.0
C516 C 0.87957 0.79618 0.39236 0.0
C517 C 0.88843 0.83173 0.409 0.0
C518 C 0.92492 0.8442 0.42681 0.0
C519 C 0.95274 0.82281 0.42764 0.0
C520 C 0.98916 0.84291 0.44989 0.0
C521 C 0.99536 0.81947 0.48352 0.0
C522 C 0.02641 0.85226 0.42533 0.0
C523 C 0.97704 0.87843 0.46181 0.0
C524 C 0.93976 0.87834 0.44815 0.0
C525 C 0.92102 0.90687 0.45669 0.0
C526 C 0.94085 0.93643 0.47958 0.0
C527 C 0.97936 0.93776 0.49367 0.0
C528 C 0.99771 0.90827 0.48441 0.0
H529 H 0.24761 0.76485 0.72845 0.0
H530 H 0.17042 0.65497 0.74811 0.0
H531 H 0.22565 0.62551 0.73147 0.0
H532 H 0.30012 0.74066 0.65096 0.0
H533 H 0.34727 0.77079 0.66445 0.0
H534 H 0.30162 0.78241 0.67778 0.0
H535 H 0.32336 0.78481 0.7465 0.0
H536 H 0.36903 0.77305 0.73338 0.0
H537 H 0.33653 0.74465 0.76667 0.0
H538 H 0.28928 0.60883 0.71036 0.0
H539 H 0.35537 0.60578 0.68741 0.0
H540 H 0.39168 0.72754 0.6861 0.0
C541 C 0.24247 0.73457 0.72904 0.0
C542 C 0.20505 0.71189 0.73901 0.0
C543 C 0.19906 0.6725 0.74016 0.0
C544 C 0.23019 0.6557 0.73088 0.0
C545 C 0.26698 0.67891 0.72112 0.0
C546 C 0.27323 0.71752 0.72038 0.0
C547 C 0.31544 0.73632 0.70936 0.0
C548 C 0.31613 0.75886 0.67351 0.0
C549 C 0.33738 0.76117 0.74086 0.0
C550 C 0.33196 0.70228 0.70336 0.0
C551 C 0.30365 0.66942 0.71027 0.0
C552 C 0.31178 0.63442 0.70528 0.0
C553 C 0.34964 0.63301 0.69246 0.0
C554 C 0.37909 0.6664 0.68488 0.0
C555 C 0.36997 0.7014 0.69109 0.0
H556 H 0.66198 0.83794 0.78988 0.0
H557 H 0.68762 0.73003 0.76832 0.0
H558 H 0.72332 0.75549 0.71151 0.0
H559 H 0.65605 0.86619 0.68732 0.0
H560 H 0.67897 0.91421 0.69939 0.0
H561 H 0.64596 0.8846 0.73155 0.0
H562 H 0.70132 0.8998 0.78132 0.0
H563 H 0.73478 0.92853 0.74942 0.0
H564 H 0.74892 0.88995 0.77184 0.0
H565 H 0.77057 0.79661 0.66836 0.0
H566 H 0.82106 0.84838 0.64065 0.0
H567 H 0.76109 0.9286 0.68746 0.0
C568 C 0.67288 0.81887 0.77215 0.0
C569 C 0.67195 0.78197 0.78363 0.0
C570 C 0.68817 0.7585 0.76022 0.0
C571 C 0.70827 0.77266 0.72773 0.0
C572 C 0.71102 0.81004 0.71858 0.0
C573 C 0.69278 0.83255 0.73965 0.0
C574 C 0.7049 0.87304 0.72738 0.0
C575 C 0.66935 0.88522 0.71038 0.0
C576 C 0.7236 0.89931 0.75938 0.0
C577 C 0.73535 0.87039 0.69828 0.0
C578 C 0.73787 0.83376 0.69288 0.0
C579 C 0.76789 0.82521 0.67131 0.0
C580 C 0.7965 0.85485 0.65565 0.0
C581 C 0.79503 0.89257 0.66191 0.0
C582 C 0.76307 0.90008 0.68226 0.0
H583 H 0.85764 0.21426 0.303 0.0
H584 H 0.82869 0.32216 0.29139 0.0
H585 H 0.79796 0.30223 0.2307 0.0
H586 H 0.87723 0.20101 0.20132 0.0
H587 H 0.85578 0.15129 0.20488 0.0
H588 H 0.8818 0.17682 0.24375 0.0
H589 H 0.81954 0.15233 0.28457 0.0
H590 H 0.79314 0.12728 0.24593 0.0
H591 H 0.77252 0.16085 0.27059 0.0
H592 H 0.7596 0.2661 0.17773 0.0
H593 H 0.71946 0.21801 0.13632 0.0
H594 H 0.77867 0.13588 0.18008 0.0
C595 C 0.84662 0.2345 0.28707 0.0
C596 C 0.84576 0.26986 0.30202 0.0
C597 C 0.82945 0.2948 0.28066 0.0
C598 C 0.81223 0.28385 0.24601 0.0
C599 C 0.8123 0.24819 0.23277 0.0
C600 C 0.82979 0.22419 0.25239 0.0
C601 C 0.82248 0.18604 0.23415 0.0
C602 C 0.86166 0.17835 0.22019 0.0
C603 C 0.80061 0.15483 0.26037 0.0
C604 C 0.79618 0.19159 0.20239 0.0
C605 C 0.79106 0.22773 0.20164 0.0
C606 C 0.76432 0.23804 0.17734 0.0
C607 C 0.74169 0.21051 0.15381 0.0
C608 C 0.74587 0.17309 0.15488 0.0
C609 C 0.77454 0.16412 0.17867 0.0
H610 H 0.42435 0.70239 0.33864 0.0
H611 H 0.38913 0.60295 0.26955 0.0
H612 H 0.40968 0.56526 0.31818 0.0
H613 H 0.5129 0.67715 0.37779 0.0
H614 H 0.50687 0.69568 0.42301 0.0
H615 H 0.48957 0.71576 0.38272 0.0
H616 H 0.41922 0.70406 0.41133 0.0
H617 H 0.43626 0.68375 0.45159 0.0
H618 H 0.3942 0.65736 0.42567 0.0
H619 H 0.43053 0.53648 0.37526 0.0
H620 H 0.45571 0.51993 0.43508 0.0
H621 H 0.48218 0.63704 0.46822 0.0
C622 C 0.42132 0.67278 0.33357 0.0
C623 C 0.40395 0.65584 0.30003 0.0
C624 C 0.40093 0.61683 0.29501 0.0
C625 C 0.41287 0.59499 0.32255 0.0
C626 C 0.42866 0.61217 0.3554 0.0
C627 C 0.43354 0.65027 0.36099 0.0
C628 C 0.45191 0.66133 0.39907 0.0
C629 C 0.49274 0.68913 0.39542 0.0
C630 C 0.42371 0.67759 0.42335 0.0
C631 C 0.45611 0.62352 0.41389 0.0
C632 C 0.44223 0.5956 0.38815 0.0
C633 C 0.44178 0.55821 0.3955 0.0
C634 C 0.45608 0.54901 0.4298 0.0
C635 C 0.4712 0.57695 0.45674 0.0
C636 C 0.47114 0.61485 0.44836 0.0
H637 H 0.14777 0.45754 0.8049 0.0
H638 H 0.11216 0.33931 0.83321 0.0
H639 H 0.08174 0.35534 0.89052 0.0
H640 H 0.17325 0.49137 0.89846 0.0
H641 H 0.15478 0.53289 0.89304 0.0
H642 H 0.17337 0.51248 0.85355 0.0
H643 H 0.10662 0.50768 0.81945 0.0
H644 H 0.08781 0.52805 0.85883 0.0
H645 H 0.06077 0.48324 0.84098 0.0
H646 H 0.05494 0.38356 0.94515 0.0
H647 H 0.03372 0.42171 0.99335 0.0
H648 H 0.08744 0.52295 0.93242 0.0
C649 C 0.13389 0.43492 0.8232 0.0
C650 C 0.13239 0.39686 0.81381 0.0
C651 C 0.11329 0.3685 0.83882 0.0
C652 C 0.09608 0.37739 0.87181 0.0
C653 C 0.09809 0.41493 0.88004 0.0
C654 C 0.11655 0.44333 0.85654 0.0
C655 C 0.11449 0.48144 0.8723 0.0
C656 C 0.15647 0.50599 0.87978 0.0
C657 C 0.09102 0.50127 0.84634 0.0
C658 C 0.09198 0.46998 0.90829 0.0
C659 C 0.08286 0.4314 0.91199 0.0
C660 C 0.06197 0.41378 0.94249 0.0
C661 C 0.04995 0.4359 0.96986 0.0
C662 C 0.05869 0.47562 0.96711 0.0
C663 C 0.08026 0.49278 0.9357 0.0
H664 H 0.65373 0.84057 0.92901 0.0
H665 H 0.54983 0.77721 0.87031 0.0
H666 H 0.51025 0.8197 0.89514 0.0
H667 H 0.60223 0.86432 1.01108 0.0
H668 H 0.63476 0.91063 1.01443 0.0
H669 H 0.65297 0.87267 0.99527 0.0
H670 H 0.67408 0.91164 0.93588 0.0
H671 H 0.65532 0.94944 0.95456 0.0
H672 H 0.63749 0.92904 0.91053 0.0
H673 H 0.48314 0.87101 0.92474 0.0
H674 H 0.47068 0.9269 0.95635 0.0
H675 H 0.594 0.95811 0.99217 0.0
C676 C 0.62234 0.83502 0.92232 0.0
C677 C 0.60444 0.80529 0.89845 0.0
C678 C 0.56374 0.79963 0.88904 0.0
C679 C 0.54117 0.82362 0.90292 0.0
C680 C 0.55999 0.85327 0.92578 0.0
C681 C 0.59966 0.85898 0.93544 0.0
C682 C 0.61362 0.89424 0.95833 0.0
C683 C 0.62665 0.88489 0.99708 0.0
C684 C 0.6471 0.92276 0.93863 0.0
C685 C 0.57573 0.90771 0.95984 0.0
C686 C 0.54498 0.88357 0.94126 0.0
C687 C 0.50702 0.89011 0.93934 0.0
C688 C 0.50025 0.92195 0.95727 0.0
C689 C 0.53146 0.94704 0.97636 0.0
C690 C 0.56968 0.9398 0.97733 0.0
H691 H 0.88247 0.22355 0.45705 0.0
H692 H 0.96947 0.26434 0.37118 0.0
H693 H 1.01005 0.22211 0.3938 0.0
H694 H 0.95484 0.21303 0.52916 0.0
H695 H 0.92161 0.17143 0.54733 0.0
H696 H 0.90173 0.20736 0.52619 0.0
H697 H 0.86036 0.15773 0.48137 0.0
H698 H 0.88062 0.12182 0.50186 0.0
H699 H 0.88537 0.13028 0.45285 0.0
H700 H 0.03766 0.17092 0.42235 0.0
H701 H 0.0529 0.11866 0.45773 0.0
H702 H 0.94833 0.1133 0.52558 0.0
C703 C 0.91069 0.22463 0.44369 0.0
C704 C 0.92284 0.2474 0.41239 0.0
C705 C 0.95944 0.24697 0.39508 0.0
C706 C 0.98273 0.22317 0.40778 0.0
C707 C 0.96918 0.20025 0.43801 0.0
C708 C 0.93431 0.20125 0.45608 0.0
C709 C 0.92539 0.17278 0.48694 0.0
C710 C 0.92594 0.19233 0.52464 0.0
C711 C 0.88559 0.14396 0.48033 0.0
C712 C 0.96026 0.15504 0.48295 0.0
C713 C 0.98524 0.17122 0.45463 0.0
C714 C 0.01856 0.15834 0.44488 0.0
C715 C 0.0268 0.12846 0.46495 0.0
C716 C 1.00185 0.11191 0.49446 0.0
C717 C 0.96816 0.12548 0.50337 0.0
H718 H 0.27387 0.69751 0.18943 0.0
H719 H 0.32453 0.60094 0.20062 0.0
H720 H 0.26915 0.56287 0.16413 0.0
H721 H 0.17118 0.64662 0.19685 0.0
H722 H 0.15314 0.67454 0.16314 0.0
H723 H 0.19721 0.69485 0.18961 0.0
H724 H 0.23677 0.71335 0.12908 0.0
H725 H 0.19282 0.69297 0.10241 0.0
H726 H 0.23795 0.67777 0.09496 0.0
H727 H 0.20844 0.53459 0.127 0.0
H728 H 0.14492 0.51727 0.09329 0.0
H729 H 0.13144 0.6312 0.10509 0.0
C730 C 0.27342 0.66841 0.18401 0.0
C731 C 0.30368 0.65228 0.19837 0.0
C732 C 0.30159 0.61395 0.19071 0.0
C733 C 0.27033 0.59208 0.16967 0.0
C734 C 0.24105 0.60872 0.15617 0.0
C735 C 0.24213 0.64596 0.16304 0.0
C736 C 0.20614 0.65643 0.14579 0.0
C737 C 0.18039 0.66884 0.17563 0.0
C738 C 0.21921 0.68695 0.11631 0.0
C739 C 0.18468 0.61923 0.12834 0.0
C740 C 0.20562 0.59223 0.13462 0.0
C741 C 0.19184 0.55554 0.12192 0.0
C742 C 0.15551 0.54594 0.1028 0.0
C743 C 0.13283 0.57272 0.09645 0.0
C744 C 0.14808 0.61008 0.10911 0.0
H745 H 0.26901 0.38025 0.70012 0.0
H746 H 0.22232 0.47694 0.7255 0.0
H747 H 0.27877 0.51766 0.69218 0.0
H748 H 0.37439 0.42786 0.70766 0.0
H749 H 0.38869 0.40191 0.66985 0.0
H750 H 0.34599 0.38089 0.6976 0.0
H751 H 0.30229 0.36847 0.63864 0.0
H752 H 0.34475 0.38975 0.61073 0.0
H753 H 0.30033 0.40705 0.60862 0.0
H754 H 0.33783 0.54716 0.65227 0.0
H755 H 0.39802 0.56462 0.61384 0.0
H756 H 0.40666 0.4486 0.61338 0.0
C757 C 0.27067 0.41003 0.69887 0.0
C758 C 0.24092 0.42528 0.71557 0.0
C759 C 0.24476 0.46452 0.71349 0.0
C760 C 0.27662 0.48786 0.69429 0.0
C761 C 0.30468 0.47169 0.67736 0.0
C762 C 0.30227 0.43373 0.67982 0.0
C763 C 0.33607 0.42332 0.65874 0.0
C764 C 0.36287 0.40757 0.68503 0.0
C765 C 0.31988 0.3955 0.62732 0.0
C766 C 0.35769 0.46131 0.64365 0.0
C767 C 0.33899 0.48878 0.65471 0.0
C768 C 0.35294 0.52596 0.64384 0.0
C769 C 0.38716 0.53551 0.62169 0.0
C770 C 0.40737 0.50804 0.61026 0.0
C771 C 0.39206 0.47034 0.62141 0.0
H772 H 0.76532 0.76967 0.86971 0.0
H773 H 0.67381 0.70733 0.94284 0.0
H774 H 0.72481 0.6831 0.97625 0.0
H775 H 0.81872 0.6996 0.86039 0.0
H776 H 0.86696 0.73206 0.85939 0.0
H777 H 0.82383 0.74659 0.84336 0.0
H778 H 0.8391 0.80244 0.88943 0.0
H779 H 0.88237 0.7881 0.90559 0.0
H780 H 0.8446 0.79366 0.9379 0.0
H781 H 0.78536 0.66283 0.99893 0.0
H782 H 0.85038 0.6482 1.00948 0.0
H783 H 0.90179 0.72382 0.92089 0.0
C784 C 0.75588 0.75081 0.89268 0.0
C785 C 0.71551 0.74006 0.9035 0.0
C786 C 0.7046 0.71601 0.93422 0.0
C787 C 0.73332 0.70208 0.95325 0.0
C788 C 0.77275 0.71272 0.94133 0.0
C789 C 0.78403 0.73667 0.91183 0.0
C790 C 0.82799 0.74288 0.90363 0.0
C791 C 0.83475 0.72947 0.86437 0.0
C792 C 0.84979 0.78422 0.9095 0.0
C793 C 0.83966 0.71803 0.93266 0.0
C794 C 0.80749 0.70114 0.95435 0.0
C795 C 0.81083 0.67622 0.98238 0.0
C796 C 0.84795 0.66825 0.98827 0.0
C797 C 0.88127 0.68505 0.96616 0.0
C798 C 0.8769 0.71041 0.93814 0.0
H799 H 0.36207 0.78709 0.19516 0.0
H800 H 0.47387 0.76176 0.22642 0.0
H801 H 0.51038 0.82085 0.19782 0.0
H802 H 0.39428 0.82421 0.10612 0.0
H803 H 0.36685 0.8601 0.10729 0.0
H804 H 0.34909 0.81725 0.13271 0.0
H805 H 0.34865 0.85544 0.19284 0.0
H806 H 0.36635 0.89843 0.16758 0.0
H807 H 0.39347 0.88865 0.20737 0.0
H808 H 0.5354 0.88129 0.16256 0.0
H809 H 0.54706 0.93839 0.12476 0.0
H810 H 0.41947 0.92504 0.11393 0.0
C811 C 0.39426 0.79377 0.19613 0.0
C812 C 0.41477 0.76914 0.21356 0.0
C813 C 0.457 0.7799 0.21422 0.0
C814 C 0.47817 0.81348 0.19763 0.0
C815 C 0.457 0.83649 0.18023 0.0
C816 C 0.41594 0.82717 0.17945 0.0
C817 C 0.40045 0.85633 0.15786 0.0
C818 C 0.37623 0.83839 0.12399 0.0
C819 C 0.37577 0.87587 0.18292 0.0
C820 C 0.43923 0.88336 0.1463 0.0
C821 C 0.47143 0.87132 0.15967 0.0
C822 C 0.51034 0.89098 0.15216 0.0
C823 C 0.51664 0.92357 0.13046 0.0
C824 C 0.48432 0.93676 0.11612 0.0
C825 C 0.44498 0.91617 0.12449 0.0
H826 H 0.12177 0.26767 0.74709 0.0
H827 H 0.13632 0.34228 0.65272 0.0
H828 H 0.11454 0.28809 0.61118 0.0
H829 H 0.15672 0.19505 0.70427 0.0
H830 H 0.12108 0.15648 0.72489 0.0
H831 H 0.13502 0.201 0.74847 0.0
H832 H 0.06113 0.20371 0.75175 0.0
H833 H 0.04689 0.15896 0.72851 0.0
H834 H 0.03202 0.19895 0.70991 0.0
H835 H 0.09862 0.22692 0.57886 0.0
H836 H 0.08172 0.16135 0.5575 0.0
H837 H 0.07231 0.12323 0.67127 0.0
C838 C 0.11943 0.27253 0.71778 0.0
C839 C 0.13118 0.30944 0.70322 0.0
C840 C 0.12804 0.31444 0.66458 0.0
C841 C 0.11561 0.28377 0.64068 0.0
C842 C 0.10569 0.24784 0.65559 0.0
C843 C 0.10665 0.24187 0.69323 0.0
C844 C 0.09492 0.19988 0.70138 0.0
C845 C 0.12897 0.18738 0.72091 0.0
C846 C 0.05645 0.18978 0.72425 0.0
C847 C 0.08814 0.18345 0.66245 0.0
C848 C 0.09481 0.21189 0.63662 0.0
C849 C 0.09279 0.2044 0.59883 0.0
C850 C 0.08344 0.16694 0.58694 0.0
C851 C 0.07563 0.13698 0.61258 0.0
C852 C 0.07775 0.14546 0.65097 0.0
H853 H 0.80249 0.35462 0.38846 0.0
H854 H 0.81055 0.27034 0.47006 0.0
H855 H 0.75704 0.28727 0.50601 0.0
H856 H 0.77614 0.4233 0.45199 0.0
H857 H 0.74177 0.43525 0.41948 0.0
H858 H 0.78461 0.42033 0.40306 0.0
H859 H 0.73846 0.36781 0.3644 0.0
H860 H 0.6955 0.38231 0.38092 0.0
H861 H 0.69881 0.33449 0.38706 0.0
H862 H 0.69852 0.30943 0.53031 0.0
H863 H 0.63976 0.33532 0.54082 0.0
H864 H 0.66794 0.40247 0.44166 0.0
C865 C 0.79339 0.33997 0.4141 0.0
C866 C 0.81109 0.31131 0.42647 0.0
C867 C 0.79824 0.29298 0.46031 0.0
C868 C 0.76759 0.3022 0.48084 0.0
C869 C 0.75002 0.32977 0.4672 0.0
C870 C 0.76257 0.34849 0.43467 0.0
C871 C 0.73686 0.37491 0.42454 0.0
C872 C 0.76131 0.41588 0.4248 0.0
C873 C 0.71619 0.36422 0.38701 0.0
C874 C 0.70728 0.36747 0.45598 0.0
C875 C 0.71567 0.34174 0.48059 0.0
C876 C 0.69187 0.32985 0.51139 0.0
C877 C 0.65863 0.34468 0.51716 0.0
C878 C 0.64931 0.37074 0.49198 0.0
C879 C 0.67414 0.3823 0.46115 0.0
loop_
_geom_bond_atom_site_label_1
_geom_bond_atom_site_label_2
_geom_bond_distance
_geom_bond_site_symmetry_2
_ccdc_geom_bond_type
H0 C3 0.931 . S
H1 C6 0.928 . S
H2 C8 0.930 . S
C3 H0 0.931 . S
C3 C4 1.413 . S
C3 C5 1.360 . S
C4 C3 1.413 . S
C4 C8 1.429 . S
C5 C3 1.360 . S
C5 C6 1.372 . S
C6 H1 0.928 . S
C6 C5 1.372 . S
C6 C7 1.404 . S
C7 C6 1.404 . S
C7 C8 1.391 . S
C8 H2 0.930 . S
C8 C4 1.429 . S
C8 C7 1.391 . S
H9 C12 0.931 . S
H10 C15 0.928 . S
H11 C17 0.930 . S
C12 H9 0.931 . S
C12 C13 1.413 . S
C12 C14 1.360 . S
C13 C12 1.413 . S
C13 C17 1.429 . S
C14 C12 1.360 . S
C14 C15 1.372 . S
C15 H10 0.928 . S
C15 C14 1.372 . S
C15 C16 1.404 . S
C16 C15 1.404 . S
C16 C17 1.391 . S
C17 H11 0.930 . S
C17 C13 1.429 . S
C17 C16 1.391 . S
H18 C21 0.931 . S
H19 C24 0.928 . S
H20 C26 0.930 . S
C21 H18 0.931 . S
C21 C22 1.413 . S
C21 C23 1.360 . S
C22 C21 1.413 . S
C22 C26 1.429 . S
C23 C21 1.360 . S
C23 C24 1.372 . S
C24 H19 0.928 . S
C24 C23 1.372 . S
C24 C25 1.404 . S
C25 C24 1.404 . S
C25 C26 1.391 . S
C26 H20 0.930 . S
C26 C22 1.429 . S
C26 C25 1.391 . S
H27 C30 0.931 . S
H28 C33 0.928 . S
H29 C35 0.930 . S
C30 H27 0.931 . S
C30 C31 1.413 . S
C30 C32 1.360 . S
C31 C30 1.413 . S
C31 C35 1.429 . S
C32 C30 1.360 . S
C32 C33 1.372 . S
C33 H28 0.928 . S
C33 C32 1.372 . S
C33 C34 1.404 . S
C34 C33 1.404 . S
C34 C35 1.391 . S
C35 H29 0.930 . S
C35 C31 1.429 . S
C35 C34 1.391 . S
H36 C39 0.931 . S
H37 C42 0.928 . S
H38 C44 0.930 . S
C39 H36 0.931 . S
C39 C40 1.413 . S
C39 C41 1.360 . S
C40 C39 1.413 . S
C40 C44 1.429 . S
C41 C39 1.360 . S
C41 C42 1.372 . S
C42 H37 0.928 . S
C42 C41 1.372 . S
C42 C43 1.404 . S
C43 C42 1.404 . S
C43 C44 1.391 . S
C44 H38 0.930 . S
C44 C40 1.429 . S
C44 C43 1.391 . S
H45 C48 0.931 . S
H46 C51 0.928 . S
H47 C53 0.930 . S
C48 H45 0.931 . S
C48 C49 1.413 . S
C48 C50 1.360 . S
C49 C48 1.413 . S
C49 C53 1.429 . S
C50 C48 1.360 . S
C50 C51 1.372 . S
C51 H46 0.928 . S
C51 C50 1.372 . S
C51 C52 1.404 . S
C52 C51 1.404 . S
C52 C53 1.391 . S
C53 H47 0.930 . S
C53 C49 1.429 . S
C53 C52 1.391 . S
H54 C57 0.931 . S
H55 C60 0.928 . S
H56 C62 0.930 . S
C57 H54 0.931 . S
C57 C58 1.413 . S
C57 C59 1.360 . S
C58 C57 1.413 . S
C58 C62 1.429 . S
C59 C57 1.360 . S
C59 C60 1.372 . S
C60 H55 0.928 . S
C60 C59 1.372 . S
C60 C61 1.404 . S
C61 C60 1.404 . S
C61 C62 1.391 . S
C62 H56 0.930 . S
C62 C58 1.429 . S
C62 C61 1.391 . S
H63 C66 0.931 . S
H64 C69 0.928 . S
H65 C71 0.930 . S
C66 H63 0.931 . S
C66 C67 1.413 . S
C66 C68 1.360 . S
C67 C66 1.413 . S
C67 C71 1.429 . S
C68 C66 1.360 . S
C68 C69 1.372 . S
C69 H64 0.928 . S
C69 C68 1.372 . S
C69 C70 1.404 . S
C70 C69 1.404 . S
C70 C71 1.391 . S
C71 H65 0.930 . S
C71 C67 1.429 . S
C71 C70 1.391 . S
Dy72 O75 2.307 1_545 S
Dy72 O77 2.395 . S
Dy72 O78 2.379 . S
Dy72 O80 2.339 1_545 S
Dy72 O82 2.298 . S
Dy72 O86 2.275 . S
Dy72 C94 2.738 . S
Dy73 O76 2.298 1_655 S
Dy73 O79 2.275 . S
Dy73 O81 2.307 1_565 S
Dy73 O83 2.395 . S
Dy73 O84 2.379 . S
Dy73 O87 2.339 1_565 S
Dy73 C103 2.738 . S
C74 O86 1.254 . S
C74 O87 1.257 1_455 S
O75 Dy72 2.307 1_565 S
O75 C85 1.266 . S
O76 Dy73 2.298 1_455 S
O76 C85 1.236 . S
O77 Dy72 2.395 . S
O77 C94 1.255 . S
O78 Dy72 2.379 . S
O78 C94 1.249 . S
O79 Dy73 2.275 . S
O79 C95 1.254 . S
O80 Dy72 2.339 1_565 S
O80 C95 1.257 1_455 S
O81 Dy73 2.307 1_545 S
O81 C96 1.266 . S
O82 Dy72 2.298 . S
O82 C96 1.236 1_455 S
O83 Dy73 2.395 . S
O83 C103 1.255 . S
O84 Dy73 2.379 . S
O84 C103 1.249 . S
C85 O75 1.266 . S
C85 O76 1.236 . S
O86 Dy72 2.275 . S
O86 C74 1.254 . S
O87 Dy73 2.339 1_545 S
O87 C74 1.257 1_655 S
C88 C91 1.344 . S
C88 C92 1.328 . S
C88 C94 1.516 . S
C89 C90 1.304 . S
C89 C93 1.323 . S
C90 C89 1.304 . S
C90 C91 1.371 . S
C90 H104 0.930 . S
C91 C88 1.344 . S
C91 C90 1.371 . S
C91 H105 0.931 . S
C92 C88 1.328 . S
C92 C93 1.433 . S
C92 H106 0.931 . S
C93 C89 1.323 . S
C93 C92 1.433 . S
C93 H107 0.933 . S
C94 Dy72 2.738 . S
C94 O77 1.255 . S
C94 O78 1.249 . S
C94 C88 1.516 . S
C95 O79 1.254 . S
C95 O80 1.257 1_655 S
C96 O81 1.266 . S
C96 O82 1.236 1_655 S
C97 C100 1.344 . S
C97 C101 1.328 . S
C97 C103 1.516 . S
C98 C99 1.304 . S
C98 C102 1.323 . S
C99 C98 1.304 . S
C99 C100 1.371 . S
C99 H108 0.930 . S
C100 C97 1.344 . S
C100 C99 1.371 . S
C100 H109 0.931 . S
C101 C97 1.328 . S
C101 C102 1.433 . S
C101 H110 0.931 . S
C102 C98 1.323 . S
C102 C101 1.433 . S
C102 H111 0.933 . S
C103 Dy73 2.738 . S
C103 O83 1.255 . S
C103 O84 1.249 . S
C103 C97 1.516 . S
H104 C90 0.930 . S
H105 C91 0.931 . S
H106 C92 0.931 . S
H107 C93 0.933 . S
H108 C99 0.930 . S
H109 C100 0.931 . S
H110 C101 0.931 . S
H111 C102 0.933 . S
Dy112 O115 2.307 1_566 S
Dy112 O117 2.395 . S
Dy112 O118 2.379 . S
Dy112 O120 2.339 1_565 S
Dy112 O122 2.298 . S
Dy112 O126 2.275 1_556 S
Dy112 C134 2.738 . S
Dy113 O116 2.298 . S
Dy113 O119 2.275 1_554 S
Dy113 O121 2.307 1_544 S
Dy113 O123 2.395 . S
Dy113 O124 2.379 . S
Dy113 O127 2.339 1_545 S
Dy113 C143 2.738 . S
C114 O126 1.254 . S
C114 O127 1.257 . S
O115 Dy112 2.307 1_544 S
O115 C125 1.266 . S
O116 Dy113 2.298 . S
O116 C125 1.236 . S
O117 Dy112 2.395 . S
O117 C134 1.255 . S
O118 Dy112 2.379 . S
O118 C134 1.249 . S
O119 Dy113 2.275 1_556 S
O119 C135 1.254 . S
O120 Dy112 2.339 1_545 S
O120 C135 1.257 . S
O121 Dy113 2.307 1_566 S
O121 C136 1.266 . S
O122 Dy112 2.298 . S
O122 C136 1.236 . S
O123 Dy113 2.395 . S
O123 C143 1.255 . S
O124 Dy113 2.379 . S
O124 C143 1.249 . S
C125 O115 1.266 . S
C125 O116 1.236 . S
O126 Dy112 2.275 1_554 S
O126 C114 1.254 . S
O127 Dy113 2.339 1_565 S
O127 C114 1.257 . S
C128 C131 1.344 . S
C128 C132 1.328 . S
C128 C134 1.516 . S
C129 C130 1.304 . S
C129 C133 1.323 . S
C130 C129 1.304 . S
C130 C131 1.371 . S
C130 H144 0.930 . S
C131 C128 1.344 . S
C131 C130 1.371 . S
C131 H145 0.931 . S
C132 C128 1.328 . S
C132 C133 1.433 . S
C132 H146 0.931 . S
C133 C129 1.323 . S
C133 C132 1.433 . S
C133 H147 0.933 . S
C134 Dy112 2.738 . S
C134 O117 1.255 . S
C134 O118 1.249 . S
C134 C128 1.516 . S
C135 O119 1.254 . S
C135 O120 1.257 . S
C136 O121 1.266 . S
C136 O122 1.236 . S
C137 C140 1.344 . S
C137 C141 1.328 . S
C137 C143 1.516 . S
C138 C139 1.304 . S
C138 C142 1.323 . S
C139 C138 1.304 . S
C139 C140 1.371 . S
C139 H148 0.930 . S
C140 C137 1.344 . S
C140 C139 1.371 . S
C140 H149 0.931 . S
C141 C137 1.328 . S
C141 C142 1.433 . S
C141 H150 0.931 . S
C142 C138 1.323 . S
C142 C141 1.433 . S
C142 H151 0.933 . S
C143 Dy113 2.738 . S
C143 O123 1.255 . S
C143 O124 1.249 . S
C143 C137 1.516 . S
H144 C130 0.930 . S
H145 C131 0.931 . S
H146 C132 0.931 . S
H147 C133 0.933 . S
H148 C139 0.930 . S
H149 C140 0.931 . S
H150 C141 0.931 . S
H151 C142 0.933 . S
Dy152 O155 2.307 . S
Dy152 O157 2.395 . S
Dy152 O158 2.379 . S
Dy152 O160 2.339 . S
Dy152 O162 2.298 . S
Dy152 O166 2.275 . S
Dy152 C174 2.738 . S
Dy153 O156 2.298 . S
Dy153 O159 2.275 . S
Dy153 O161 2.307 . S
Dy153 O163 2.395 . S
Dy153 O164 2.379 . S
Dy153 O167 2.339 . S
Dy153 C183 2.738 . S
C154 O166 1.254 . S
C154 O167 1.257 . S
O155 Dy152 2.307 . S
O155 C165 1.266 . S
O156 Dy153 2.298 . S
O156 C165 1.236 . S
O157 Dy152 2.395 . S
O157 C174 1.255 . S
O158 Dy152 2.379 . S
O158 C174 1.249 . S
O159 Dy153 2.275 . S
O159 C175 1.254 . S
O160 Dy152 2.339 . S
O160 C175 1.257 . S
O161 Dy153 2.307 . S
O161 C176 1.266 . S
O162 Dy152 2.298 . S
O162 C176 1.236 . S
O163 Dy153 2.395 . S
O163 C183 1.255 . S
O164 Dy153 2.379 . S
O164 C183 1.249 . S
C165 O155 1.266 . S
C165 O156 1.236 . S
O166 Dy152 2.275 . S
O166 C154 1.254 . S
O167 Dy153 2.339 . S
O167 C154 1.257 . S
C168 C171 1.344 . S
C168 C172 1.328 . S
C168 C174 1.516 . S
C169 C170 1.304 . S
C169 C173 1.323 . S
C170 C169 1.304 . S
C170 C171 1.371 . S
C170 H184 0.930 . S
C171 C168 1.344 . S
C171 C170 1.371 . S
C171 H185 0.931 . S
C172 C168 1.328 . S
C172 C173 1.433 . S
C172 H186 0.931 . S
C173 C169 1.323 . S
C173 C172 1.433 . S
C173 H187 0.933 . S
C174 Dy152 2.738 . S
C174 O157 1.255 . S
C174 O158 1.249 . S
C174 C168 1.516 . S
C175 O159 1.254 . S
C175 O160 1.257 . S
C176 O161 1.266 . S
C176 O162 1.236 . S
C177 C180 1.344 . S
C177 C181 1.328 . S
C177 C183 1.516 . S
C178 C179 1.304 . S
C178 C182 1.323 . S
C179 C178 1.304 . S
C179 C180 1.371 . S
C179 H188 0.930 . S
C180 C177 1.344 . S
C180 C179 1.371 . S
C180 H189 0.931 . S
C181 C177 1.328 . S
C181 C182 1.433 . S
C181 H190 0.931 . S
C182 C178 1.323 . S
C182 C181 1.433 . S
C182 H191 0.933 . S
C183 Dy153 2.738 . S
C183 O163 1.255 . S
C183 O164 1.249 . S
C183 C177 1.516 . S
H184 C170 0.930 . S
H185 C171 0.931 . S
H186 C172 0.931 . S
H187 C173 0.933 . S
H188 C179 0.930 . S
H189 C180 0.931 . S
H190 C181 0.931 . S
H191 C182 0.933 . S
Dy192 O195 2.307 1_656 S
Dy192 O197 2.395 . S
Dy192 O198 2.379 . S
Dy192 O200 2.339 1_655 S
Dy192 O202 2.298 . S
Dy192 O206 2.275 1_556 S
Dy192 C214 2.738 . S
Dy193 O196 2.298 . S
Dy193 O199 2.275 1_554 S
Dy193 O201 2.307 1_455 S
Dy193 O203 2.395 . S
Dy193 O204 2.379 . S
Dy193 O207 2.339 1_455 S
Dy193 C223 2.738 . S
C194 O206 1.254 . S
C194 O207 1.257 . S
O195 Dy192 2.307 1_454 S
O195 C205 1.266 . S
O196 Dy193 2.298 . S
O196 C205 1.236 . S
O197 Dy192 2.395 . S
O197 C214 1.255 . S
O198 Dy192 2.379 . S
O198 C214 1.249 . S
O199 Dy193 2.275 1_556 S
O199 C215 1.254 . S
O200 Dy192 2.339 1_455 S
O200 C215 1.257 . S
O201 Dy193 2.307 1_655 S
O201 C216 1.266 1_554 S
O202 Dy192 2.298 . S
O202 C216 1.236 . S
O203 Dy193 2.395 . S
O203 C223 1.255 . S
O204 Dy193 2.379 . S
O204 C223 1.249 . S
C205 O195 1.266 . S
C205 O196 1.236 . S
O206 Dy192 2.275 1_554 S
O206 C194 1.254 . S
O207 Dy193 2.339 1_655 S
O207 C194 1.257 . S
C208 C211 1.344 . S
C208 C212 1.328 . S
C208 C214 1.516 . S
C209 C210 1.304 . S
C209 C213 1.323 . S
C210 C209 1.304 . S
C210 C211 1.371 . S
C210 H224 0.930 . S
C211 C208 1.344 . S
C211 C210 1.371 . S
C211 H225 0.931 . S
C212 C208 1.328 . S
C212 C213 1.433 . S
C212 H226 0.931 . S
C213 C209 1.323 . S
C213 C212 1.433 . S
C213 H227 0.933 . S
C214 Dy192 2.738 . S
C214 O197 1.255 . S
C214 O198 1.249 . S
C214 C208 1.516 . S
C215 O199 1.254 . S
C215 O200 1.257 . S
C216 O201 1.266 1_556 S
C216 O202 1.236 . S
C217 C220 1.344 . S
C217 C221 1.328 . S
C217 C223 1.516 . S
C218 C219 1.304 . S
C218 C222 1.323 . S
C219 C218 1.304 . S
C219 C220 1.371 . S
C219 H228 0.930 . S
C220 C217 1.344 . S
C220 C219 1.371 . S
C220 H229 0.931 . S
C221 C217 1.328 . S
C221 C222 1.433 . S
C221 H230 0.931 . S
C222 C218 1.323 . S
C222 C221 1.433 . S
C222 H231 0.933 . S
C223 Dy193 2.738 . S
C223 O203 1.255 . S
C223 O204 1.249 . S
C223 C217 1.516 . S
H224 C210 0.930 . S
H225 C211 0.931 . S
H226 C212 0.931 . S
H227 C213 0.933 . S
H228 C219 0.930 . S
H229 C220 0.931 . S
H230 C221 0.931 . S
H231 C222 0.933 . S
H232 C244 0.930 . S
H233 C246 0.930 . S
H234 C247 0.930 . S
H235 C251 0.959 . S
H236 C251 0.959 . S
H237 C251 0.961 . S
H238 C252 0.960 . S
H239 C252 0.961 . S
H240 C252 0.959 . S
H241 C255 0.929 . S
H242 C256 0.931 . S
H243 C258 0.930 . S
C244 H232 0.930 . S
C244 C245 1.399 . S
C244 C249 1.399 . S
C245 C244 1.399 . S
C245 C246 1.376 . S
C246 H233 0.930 . S
C246 C245 1.376 . S
C246 C247 1.388 . S
C247 H234 0.930 . S
C247 C246 1.388 . S
C247 C248 1.390 . S
C248 C247 1.390 . S
C248 C249 1.394 . S
C248 C254 1.465 . S
C249 C244 1.399 . S
C249 C248 1.394 . S
C249 C250 1.516 . S
C250 C249 1.516 . S
C250 C251 1.502 . S
C250 C252 1.561 . S
C250 C253 1.526 . S
C251 H235 0.959 . S
C251 H236 0.959 . S
C251 H237 0.961 . S
C251 C250 1.502 . S
C252 H238 0.960 . S
C252 H239 0.961 . S
C252 H240 0.959 . S
C252 C250 1.561 . S
C253 C250 1.526 . S
C253 C254 1.396 . S
C253 C258 1.390 . S
C254 C248 1.465 . S
C254 C253 1.396 . S
C254 C255 1.399 . S
C255 H241 0.929 . S
C255 C254 1.399 . S
C255 C256 1.385 . S
C256 H242 0.931 . S
C256 C255 1.385 . S
C256 C257 1.389 . S
C257 C256 1.389 . S
C257 C258 1.387 . S
C258 H243 0.930 . S
C258 C253 1.390 . S
C258 C257 1.387 . S
H259 C271 0.930 . S
H260 C273 0.930 . S
H261 C274 0.930 . S
H262 C278 0.959 . S
H263 C278 0.959 . S
H264 C278 0.961 . S
H265 C279 0.960 . S
H266 C279 0.961 . S
H267 C279 0.959 . S
H268 C282 0.929 . S
H269 C283 0.931 . S
H270 C285 0.930 . S
C271 H259 0.930 . S
C271 C272 1.399 . S
C271 C276 1.399 . S
C272 C271 1.399 . S
C272 C273 1.376 . S
C273 H260 0.930 . S
C273 C272 1.376 . S
C273 C274 1.388 . S
C274 H261 0.930 . S
C274 C273 1.388 . S
C274 C275 1.390 . S
C275 C274 1.390 . S
C275 C276 1.394 . S
C275 C281 1.465 . S
C276 C271 1.399 . S
C276 C275 1.394 . S
C276 C277 1.516 . S
C277 C276 1.516 . S
C277 C278 1.502 . S
C277 C279 1.561 . S
C277 C280 1.526 . S
C278 H262 0.959 . S
C278 H263 0.959 . S
C278 H264 0.961 . S
C278 C277 1.502 . S
C279 H265 0.960 . S
C279 H266 0.961 . S
C279 H267 0.959 . S
C279 C277 1.561 . S
C280 C277 1.526 . S
C280 C281 1.396 . S
C280 C285 1.390 . S
C281 C275 1.465 . S
C281 C280 1.396 . S
C281 C282 1.399 . S
C282 H268 0.929 . S
C282 C281 1.399 . S
C282 C283 1.385 . S
C283 H269 0.931 . S
C283 C282 1.385 . S
C283 C284 1.389 . S
C284 C283 1.389 . S
C284 C285 1.387 . S
C285 H270 0.930 . S
C285 C280 1.390 . S
C285 C284 1.387 . S
H286 C298 0.930 . S
H287 C300 0.930 . S
H288 C301 0.930 . S
H289 C305 0.959 . S
H290 C305 0.959 . S
H291 C305 0.961 . S
H292 C306 0.960 . S
H293 C306 0.961 . S
H294 C306 0.959 . S
H295 C309 0.929 . S
H296 C310 0.931 . S
H297 C312 0.930 . S
C298 H286 0.930 . S
C298 C299 1.399 . S
C298 C303 1.399 . S
C299 C298 1.399 . S
C299 C300 1.376 . S
C300 H287 0.930 . S
C300 C299 1.376 . S
C300 C301 1.388 . S
C301 H288 0.930 . S
C301 C300 1.388 . S
C301 C302 1.390 . S
C302 C301 1.390 . S
C302 C303 1.394 . S
C302 C308 1.465 . S
C303 C298 1.399 . S
C303 C302 1.394 . S
C303 C304 1.516 . S
C304 C303 1.516 . S
C304 C305 1.502 . S
C304 C306 1.561 . S
C304 C307 1.526 . S
C305 H289 0.959 . S
C305 H290 0.959 . S
C305 H291 0.961 . S
C305 C304 1.502 . S
C306 H292 0.960 . S
C306 H293 0.961 . S
C306 H294 0.959 . S
C306 C304 1.561 . S
C307 C304 1.526 . S
C307 C308 1.396 . S
C307 C312 1.390 . S
C308 C302 1.465 . S
C308 C307 1.396 . S
C308 C309 1.399 . S
C309 H295 0.929 . S
C309 C308 1.399 . S
C309 C310 1.385 . S
C310 H296 0.931 . S
C310 C309 1.385 . S
C310 C311 1.389 . S
C311 C310 1.389 . S
C311 C312 1.387 . S
C312 H297 0.930 . S
C312 C307 1.390 . S
C312 C311 1.387 . S
H313 C325 0.930 . S
H314 C327 0.930 . S
H315 C328 0.930 . S
H316 C332 0.959 . S
H317 C332 0.959 . S
H318 C332 0.961 . S
H319 C333 0.960 . S
H320 C333 0.961 . S
H321 C333 0.959 . S
H322 C336 0.929 . S
H323 C337 0.931 . S
H324 C339 0.930 . S
C325 H313 0.930 . S
C325 C326 1.399 . S
C325 C330 1.399 . S
C326 C325 1.399 . S
C326 C327 1.376 . S
C327 H314 0.930 . S
C327 C326 1.376 . S
C327 C328 1.388 . S
C328 H315 0.930 . S
C328 C327 1.388 . S
C328 C329 1.390 . S
C329 C328 1.390 . S
C329 C330 1.394 . S
C329 C335 1.465 . S
C330 C325 1.399 . S
C330 C329 1.394 . S
C330 C331 1.516 . S
C331 C330 1.516 . S
C331 C332 1.502 . S
C331 C333 1.561 . S
C331 C334 1.526 . S
C332 H316 0.959 . S
C332 H317 0.959 . S
C332 H318 0.961 . S
C332 C331 1.502 . S
C333 H319 0.960 . S
C333 H320 0.961 . S
C333 H321 0.959 . S
C333 C331 1.561 . S
C334 C331 1.526 . S
C334 C335 1.396 . S
C334 C339 1.390 . S
C335 C329 1.465 . S
C335 C334 1.396 . S
C335 C336 1.399 . S
C336 H322 0.929 . S
C336 C335 1.399 . S
C336 C337 1.385 . S
C337 H323 0.931 . S
C337 C336 1.385 . S
C337 C338 1.389 . S
C338 C337 1.389 . S
C338 C339 1.387 . S
C339 H324 0.930 . S
C339 C334 1.390 . S
C339 C338 1.387 . S
H340 C352 0.930 . S
H341 C354 0.930 . S
H342 C355 0.930 . S
H343 C359 0.959 . S
H344 C359 0.959 . S
H345 C359 0.961 . S
H346 C360 0.960 . S
H347 C360 0.961 . S
H348 C360 0.959 . S
H349 C363 0.929 . S
H350 C364 0.931 . S
H351 C366 0.930 . S
C352 H340 0.930 . S
C352 C353 1.399 . S
C352 C357 1.399 . S
C353 C352 1.399 . S
C353 C354 1.376 . S
C354 H341 0.930 . S
C354 C353 1.376 . S
C354 C355 1.388 . S
C355 H342 0.930 . S
C355 C354 1.388 . S
C355 C356 1.390 . S
C356 C355 1.390 . S
C356 C357 1.394 . S
C356 C362 1.465 . S
C357 C352 1.399 . S
C357 C356 1.394 . S
C357 C358 1.516 . S
C358 C357 1.516 . S
C358 C359 1.502 . S
C358 C360 1.561 . S
C358 C361 1.526 . S
C359 H343 0.959 . S
C359 H344 0.959 . S
C359 H345 0.961 . S
C359 C358 1.502 . S
C360 H346 0.960 . S
C360 H347 0.961 . S
C360 H348 0.959 . S
C360 C358 1.561 . S
C361 C358 1.526 . S
C361 C362 1.396 . S
C361 C366 1.390 . S
C362 C356 1.465 . S
C362 C361 1.396 . S
C362 C363 1.399 . S
C363 H349 0.929 . S
C363 C362 1.399 . S
C363 C364 1.385 . S
C364 H350 0.931 . S
C364 C363 1.385 . S
C364 C365 1.389 . S
C365 C364 1.389 . S
C365 C366 1.387 . S
C366 H351 0.930 . S
C366 C361 1.390 . S
C366 C365 1.387 . S
H367 C379 0.930 . S
H368 C381 0.930 . S
H369 C382 0.930 . S
H370 C386 0.959 . S
H371 C386 0.959 . S
H372 C386 0.961 . S
H373 C387 0.960 . S
H374 C387 0.961 . S
H375 C387 0.959 . S
H376 C390 0.929 . S
H377 C391 0.931 . S
H378 C393 0.930 . S
C379 H367 0.930 . S
C379 C380 1.399 . S
C379 C384 1.399 . S
C380 C379 1.399 . S
C380 C381 1.376 . S
C381 H368 0.930 . S
C381 C380 1.376 . S
C381 C382 1.388 . S
C382 H369 0.930 . S
C382 C381 1.388 . S
C382 C383 1.390 . S
C383 C382 1.390 . S
C383 C384 1.394 . S
C383 C389 1.465 . S
C384 C379 1.399 . S
C384 C383 1.394 . S
C384 C385 1.516 . S
C385 C384 1.516 . S
C385 C386 1.502 . S
C385 C387 1.561 1_455 S
C385 C388 1.526 . S
C386 H370 0.959 . S
C386 H371 0.959 . S
C386 H372 0.961 . S
C386 C385 1.502 . S
C387 H373 0.960 . S
C387 H374 0.961 . S
C387 H375 0.959 . S
C387 C385 1.561 1_655 S
C388 C385 1.526 . S
C388 C389 1.396 . S
C388 C393 1.390 . S
C389 C383 1.465 . S
C389 C388 1.396 . S
C389 C390 1.399 . S
C390 H376 0.929 . S
C390 C389 1.399 . S
C390 C391 1.385 . S
C391 H377 0.931 . S
C391 C390 1.385 . S
C391 C392 1.389 . S
C392 C391 1.389 . S
C392 C393 1.387 . S
C393 H378 0.930 . S
C393 C388 1.390 . S
C393 C392 1.387 . S
H394 C406 0.930 . S
H395 C408 0.930 . S
H396 C409 0.930 . S
H397 C413 0.959 . S
H398 C413 0.959 . S
H399 C413 0.961 . S
H400 C414 0.960 . S
H401 C414 0.961 . S
H402 C414 0.959 . S
H403 C417 0.929 . S
H404 C418 0.931 1_554 S
H405 C420 0.930 . S
C406 H394 0.930 . S
C406 C407 1.399 . S
C406 C411 1.399 . S
C407 C406 1.399 . S
C407 C408 1.376 . S
C408 H395 0.930 . S
C408 C407 1.376 . S
C408 C409 1.388 . S
C409 H396 0.930 . S
C409 C408 1.388 . S
C409 C410 1.390 . S
C410 C409 1.390 . S
C410 C411 1.394 . S
C410 C416 1.465 . S
C411 C406 1.399 . S
C411 C410 1.394 . S
C411 C412 1.516 . S
C412 C411 1.516 . S
C412 C413 1.502 . S
C412 C414 1.561 . S
C412 C415 1.526 . S
C413 H397 0.959 . S
C413 H398 0.959 . S
C413 H399 0.961 . S
C413 C412 1.502 . S
C414 H400 0.960 . S
C414 H401 0.961 . S
C414 H402 0.959 . S
C414 C412 1.561 . S
C415 C412 1.526 . S
C415 C416 1.396 . S
C415 C420 1.390 . S
C416 C410 1.465 . S
C416 C415 1.396 . S
C416 C417 1.399 . S
C417 H403 0.929 . S
C417 C416 1.399 . S
C417 C418 1.385 . S
C418 H404 0.931 1_556 S
C418 C417 1.385 . S
C418 C419 1.389 . S
C419 C418 1.389 . S
C419 C420 1.387 . S
C420 H405 0.930 . S
C420 C415 1.390 . S
C420 C419 1.387 . S
H421 C433 0.930 . S
H422 C435 0.930 . S
H423 C436 0.930 . S
H424 C440 0.959 . S
H425 C440 0.959 . S
H426 C440 0.961 . S
H427 C441 0.960 . S
H428 C441 0.961 . S
H429 C441 0.959 . S
H430 C444 0.929 . S
H431 C445 0.931 . S
H432 C447 0.930 . S
C433 H421 0.930 . S
C433 C434 1.399 . S
C433 C438 1.399 . S
C434 C433 1.399 . S
C434 C435 1.376 . S
C435 H422 0.930 . S
C435 C434 1.376 . S
C435 C436 1.388 . S
C436 H423 0.930 . S
C436 C435 1.388 . S
C436 C437 1.390 . S
C437 C436 1.390 . S
C437 C438 1.394 . S
C437 C443 1.465 . S
C438 C433 1.399 . S
C438 C437 1.394 . S
C438 C439 1.516 . S
C439 C438 1.516 . S
C439 C440 1.502 . S
C439 C441 1.561 . S
C439 C442 1.526 . S
C440 H424 0.959 . S
C440 H425 0.959 . S
C440 H426 0.961 . S
C440 C439 1.502 . S
C441 H427 0.960 . S
C441 H428 0.961 . S
C441 H429 0.959 . S
C441 C439 1.561 . S
C442 C439 1.526 . S
C442 C443 1.396 . S
C442 C447 1.390 . S
C443 C437 1.465 . S
C443 C442 1.396 . S
C443 C444 1.399 . S
C444 H430 0.929 . S
C444 C443 1.399 . S
C444 C445 1.385 . S
C445 H431 0.931 . S
C445 C444 1.385 . S
C445 C446 1.389 . S
C446 C445 1.389 . S
C446 C447 1.387 . S
C447 H432 0.930 . S
C447 C442 1.390 . S
C447 C446 1.387 . S
H448 C460 0.930 . S
H449 C462 0.930 . S
H450 C463 0.930 . S
H451 C467 0.959 . S
H452 C467 0.959 . S
H453 C467 0.961 . S
H454 C468 0.960 . S
H455 C468 0.961 . S
H456 C468 0.959 . S
H457 C471 0.929 . S
H458 C472 0.931 . S
H459 C474 0.930 . S
C460 H448 0.930 . S
C460 C461 1.399 . S
C460 C465 1.399 . S
C461 C460 1.399 . S
C461 C462 1.376 . S
C462 H449 0.930 . S
C462 C461 1.376 . S
C462 C463 1.388 . S
C463 H450 0.930 . S
C463 C462 1.388 . S
C463 C464 1.390 . S
C464 C463 1.390 . S
C464 C465 1.394 . S
C464 C470 1.465 . S
C465 C460 1.399 . S
C465 C464 1.394 . S
C465 C466 1.516 . S
C466 C465 1.516 . S
C466 C467 1.502 . S
C466 C468 1.561 . S
C466 C469 1.526 . S
C467 H451 0.959 . S
C467 H452 0.959 . S
C467 H453 0.961 . S
C467 C466 1.502 . S
C468 H454 0.960 . S
C468 H455 0.961 . S
C468 H456 0.959 . S
C468 C466 1.561 . S
C469 C466 1.526 . S
C469 C470 1.396 . S
C469 C474 1.390 . S
C470 C464 1.465 . S
C470 C469 1.396 . S
C470 C471 1.399 . S
C471 H457 0.929 . S
C471 C470 1.399 . S
C471 C472 1.385 . S
C472 H458 0.931 . S
C472 C471 1.385 . S
C472 C473 1.389 . S
C473 C472 1.389 . S
C473 C474 1.387 . S
C474 H459 0.930 . S
C474 C469 1.390 . S
C474 C473 1.387 . S
H475 C487 0.930 . S
H476 C489 0.930 . S
H477 C490 0.930 . S
H478 C494 0.959 . S
H479 C494 0.959 . S
H480 C494 0.961 . S
H481 C495 0.960 . S
H482 C495 0.961 . S
H483 C495 0.959 . S
H484 C498 0.929 . S
H485 C499 0.931 . S
H486 C501 0.930 . S
C487 H475 0.930 . S
C487 C488 1.399 . S
C487 C492 1.399 . S
C488 C487 1.399 . S
C488 C489 1.376 . S
C489 H476 0.930 . S
C489 C488 1.376 . S
C489 C490 1.388 . S
C490 H477 0.930 . S
C490 C489 1.388 . S
C490 C491 1.390 . S
C491 C490 1.390 . S
C491 C492 1.394 . S
C491 C497 1.465 . S
C492 C487 1.399 . S
C492 C491 1.394 . S
C492 C493 1.516 . S
C493 C492 1.516 . S
C493 C494 1.502 . S
C493 C495 1.561 . S
C493 C496 1.526 . S
C494 H478 0.959 . S
C494 H479 0.959 . S
C494 H480 0.961 . S
C494 C493 1.502 . S
C495 H481 0.960 . S
C495 H482 0.961 . S
C495 H483 0.959 . S
C495 C493 1.561 . S
C496 C493 1.526 . S
C496 C497 1.396 . S
C496 C501 1.390 . S
C497 C491 1.465 . S
C497 C496 1.396 . S
C497 C498 1.399 . S
C498 H484 0.929 . S
C498 C497 1.399 . S
C498 C499 1.385 . S
C499 H485 0.931 . S
C499 C498 1.385 . S
C499 C500 1.389 . S
C500 C499 1.389 . S
C500 C501 1.387 . S
C501 H486 0.930 . S
C501 C496 1.390 . S
C501 C500 1.387 . S
H502 C514 0.930 . S
H503 C516 0.930 . S
H504 C517 0.930 . S
H505 C521 0.951 1_455 S
H506 C521 0.959 1_455 S
H507 C521 0.961 . S
H508 C522 0.960 . S
H509 C522 0.961 . S
H510 C522 0.959 . S
H511 C525 0.929 . S
H512 C526 0.931 . S
H513 C528 0.930 . S
C514 H502 0.930 . S
C514 C515 1.399 . S
C514 C519 1.399 . S
C515 C514 1.399 . S
C515 C516 1.376 . S
C516 H503 0.930 . S
C516 C515 1.376 . S
C516 C517 1.388 . S
C517 H504 0.930 . S
C517 C516 1.388 . S
C517 C518 1.390 . S
C518 C517 1.390 . S
C518 C519 1.394 . S
C518 C524 1.465 . S
C519 C514 1.399 . S
C519 C518 1.394 . S
C519 C520 1.516 . S
C520 C519 1.516 . S
C520 C521 1.502 . S
C520 C522 1.561 . S
C520 C523 1.526 . S
C521 H505 0.951 1_655 S
C521 H506 0.959 1_655 S
C521 H507 0.961 . S
C521 C520 1.502 . S
C522 H508 0.960 . S
C522 H509 0.961 . S
C522 H510 0.959 . S
C522 C520 1.561 . S
C523 C520 1.526 . S
C523 C524 1.396 . S
C523 C528 1.390 . S
C524 C518 1.465 . S
C524 C523 1.396 . S
C524 C525 1.399 . S
C525 H511 0.929 . S
C525 C524 1.399 . S
C525 C526 1.385 . S
C526 H512 0.931 . S
C526 C525 1.385 . S
C526 C527 1.389 . S
C527 C526 1.389 . S
C527 C528 1.387 . S
C528 H513 0.930 . S
C528 C523 1.390 . S
C528 C527 1.387 . S
H529 C541 0.930 . S
H530 C543 0.930 . S
H531 C544 0.930 . S
H532 C548 0.959 . S
H533 C548 0.959 . S
H534 C548 0.961 . S
H535 C549 0.960 . S
H536 C549 0.961 . S
H537 C549 0.959 . S
H538 C552 0.929 . S
H539 C553 0.931 . S
H540 C555 0.930 . S
C541 H529 0.930 . S
C541 C542 1.399 . S
C541 C546 1.399 . S
C542 C541 1.399 . S
C542 C543 1.376 . S
C543 H530 0.930 . S
C543 C542 1.376 . S
C543 C544 1.388 . S
C544 H531 0.930 . S
C544 C543 1.388 . S
C544 C545 1.390 . S
C545 C544 1.390 . S
C545 C546 1.394 . S
C545 C551 1.465 . S
C546 C541 1.399 . S
C546 C545 1.394 . S
C546 C547 1.516 . S
C547 C546 1.516 . S
C547 C548 1.502 . S
C547 C549 1.561 . S
C547 C550 1.526 . S
C548 H532 0.959 . S
C548 H533 0.959 . S
C548 H534 0.961 . S
C548 C547 1.502 . S
C549 H535 0.960 . S
C549 H536 0.961 . S
C549 H537 0.959 . S
C549 C547 1.561 . S
C550 C547 1.526 . S
C550 C551 1.396 . S
C550 C555 1.390 . S
C551 C545 1.465 . S
C551 C550 1.396 . S
C551 C552 1.399 . S
C552 H538 0.929 . S
C552 C551 1.399 . S
C552 C553 1.385 . S
C553 H539 0.931 . S
C553 C552 1.385 . S
C553 C554 1.389 . S
C554 C553 1.389 . S
C554 C555 1.387 . S
C555 H540 0.930 . S
C555 C550 1.390 . S
C555 C554 1.387 . S
H556 C568 0.930 . S
H557 C570 0.930 . S
H558 C571 0.930 . S
H559 C575 0.959 . S
H560 C575 0.959 . S
H561 C575 0.961 . S
H562 C576 0.960 . S
H563 C576 0.961 . S
H564 C576 0.959 . S
H565 C579 0.929 . S
H566 C580 0.931 . S
H567 C582 0.930 . S
C568 H556 0.930 . S
C568 C569 1.399 . S
C568 C573 1.399 . S
C569 C568 1.399 . S
C569 C570 1.376 . S
C570 H557 0.930 . S
C570 C569 1.376 . S
C570 C571 1.388 . S
C571 H558 0.930 . S
C571 C570 1.388 . S
C571 C572 1.390 . S
C572 C571 1.390 . S
C572 C573 1.394 . S
C572 C578 1.465 . S
C573 C568 1.399 . S
C573 C572 1.394 . S
C573 C574 1.516 . S
C574 C573 1.516 . S
C574 C575 1.502 . S
C574 C576 1.561 . S
C574 C577 1.526 . S
C575 H559 0.959 . S
C575 H560 0.959 . S
C575 H561 0.961 . S
C575 C574 1.502 . S
C576 H562 0.960 . S
C576 H563 0.961 . S
C576 H564 0.959 . S
C576 C574 1.561 . S
C577 C574 1.526 . S
C577 C578 1.396 . S
C577 C582 1.390 . S
C578 C572 1.465 . S
C578 C577 1.396 . S
C578 C579 1.399 . S
C579 H565 0.929 . S
C579 C578 1.399 . S
C579 C580 1.385 . S
C580 H566 0.931 . S
C580 C579 1.385 . S
C580 C581 1.389 . S
C581 C580 1.389 . S
C581 C582 1.387 . S
C582 H567 0.930 . S
C582 C577 1.390 . S
C582 C581 1.387 . S
H583 C595 0.930 . S
H584 C597 0.930 . S
H585 C598 0.930 . S
H586 C602 0.959 . S
H587 C602 0.959 . S
H588 C602 0.961 . S
H589 C603 0.960 . S
H590 C603 0.961 . S
H591 C603 0.959 . S
H592 C606 0.929 . S
H593 C607 0.931 . S
H594 C609 0.930 . S
C595 H583 0.930 . S
C595 C596 1.399 . S
C595 C600 1.399 . S
C596 C595 1.399 . S
C596 C597 1.376 . S
C597 H584 0.930 . S
C597 C596 1.376 . S
C597 C598 1.388 . S
C598 H585 0.930 . S
C598 C597 1.388 . S
C598 C599 1.390 . S
C599 C598 1.390 . S
C599 C600 1.394 . S
C599 C605 1.465 . S
C600 C595 1.399 . S
C600 C599 1.394 . S
C600 C601 1.516 . S
C601 C600 1.516 . S
C601 C602 1.502 . S
C601 C603 1.561 . S
C601 C604 1.526 . S
C602 H586 0.959 . S
C602 H587 0.959 . S
C602 H588 0.961 . S
C602 C601 1.502 . S
C603 H589 0.960 . S
C603 H590 0.961 . S
C603 H591 0.959 . S
C603 C601 1.561 . S
C604 C601 1.526 . S
C604 C605 1.396 . S
C604 C609 1.390 . S
C605 C599 1.465 . S
C605 C604 1.396 . S
C605 C606 1.399 . S
C606 H592 0.929 . S
C606 C605 1.399 . S
C606 C607 1.385 . S
C607 H593 0.931 . S
C607 C606 1.385 . S
C607 C608 1.389 . S
C608 C607 1.389 . S
C608 C609 1.387 . S
C609 H594 0.930 . S
C609 C604 1.390 . S
C609 C608 1.387 . S
H610 C622 0.930 . S
H611 C624 0.930 . S
H612 C625 0.930 . S
H613 C629 0.959 . S
H614 C629 0.959 . S
H615 C629 0.961 . S
H616 C630 0.960 . S
H617 C630 0.961 . S
H618 C630 0.959 . S
H619 C633 0.929 . S
H620 C634 0.931 . S
H621 C636 0.930 . S
C622 H610 0.930 . S
C622 C623 1.399 . S
C622 C627 1.399 . S
C623 C622 1.399 . S
C623 C624 1.376 . S
C624 H611 0.930 . S
C624 C623 1.376 . S
C624 C625 1.388 . S
C625 H612 0.930 . S
C625 C624 1.388 . S
C625 C626 1.390 . S
C626 C625 1.390 . S
C626 C627 1.394 . S
C626 C632 1.465 . S
C627 C622 1.399 . S
C627 C626 1.394 . S
C627 C628 1.516 . S
C628 C627 1.516 . S
C628 C629 1.502 . S
C628 C630 1.561 . S
C628 C631 1.526 . S
C629 H613 0.959 . S
C629 H614 0.959 . S
C629 H615 0.961 . S
C629 C628 1.502 . S
C630 H616 0.960 . S
C630 H617 0.961 . S
C630 H618 0.959 . S
C630 C628 1.561 . S
C631 C628 1.526 . S
C631 C632 1.396 . S
C631 C636 1.390 . S
C632 C626 1.465 . S
C632 C631 1.396 . S
C632 C633 1.399 . S
C633 H619 0.929 . S
C633 C632 1.399 . S
C633 C634 1.385 . S
C634 H620 0.931 . S
C634 C633 1.385 . S
C634 C635 1.389 . S
C635 C634 1.389 . S
C635 C636 1.387 . S
C636 H621 0.930 . S
C636 C631 1.390 . S
C636 C635 1.387 . S
H637 C649 0.930 . S
H638 C651 0.930 . S
H639 C652 0.930 . S
H640 C656 0.959 . S
H641 C656 0.959 . S
H642 C656 0.961 . S
H643 C657 0.960 . S
H644 C657 0.961 . S
H645 C657 0.959 . S
H646 C660 0.929 . S
H647 C661 0.931 . S
H648 C663 0.930 . S
C649 H637 0.930 . S
C649 C650 1.399 . S
C649 C654 1.399 . S
C650 C649 1.399 . S
C650 C651 1.376 . S
C651 H638 0.930 . S
C651 C650 1.376 . S
C651 C652 1.388 . S
C652 H639 0.930 . S
C652 C651 1.388 . S
C652 C653 1.390 . S
C653 C652 1.390 . S
C653 C654 1.394 . S
C653 C659 1.465 . S
C654 C649 1.399 . S
C654 C653 1.394 . S
C654 C655 1.516 . S
C655 C654 1.516 . S
C655 C656 1.502 . S
C655 C657 1.561 . S
C655 C658 1.526 . S
C656 H640 0.959 . S
C656 H641 0.959 . S
C656 H642 0.961 . S
C656 C655 1.502 . S
C657 H643 0.960 . S
C657 H644 0.961 . S
C657 H645 0.959 . S
C657 C655 1.561 . S
C658 C655 1.526 . S
C658 C659 1.396 . S
C658 C663 1.390 . S
C659 C653 1.465 . S
C659 C658 1.396 . S
C659 C660 1.399 . S
C660 H646 0.929 . S
C660 C659 1.399 . S
C660 C661 1.385 . S
C661 H647 0.931 . S
C661 C660 1.385 . S
C661 C662 1.389 . S
C662 C661 1.389 . S
C662 C663 1.387 . S
C663 H648 0.930 . S
C663 C658 1.390 . S
C663 C662 1.387 . S
H664 C676 0.930 . S
H665 C678 0.930 . S
H666 C679 0.930 . S
H667 C683 0.959 . S
H668 C683 0.959 . S
H669 C683 0.961 . S
H670 C684 0.960 . S
H671 C684 0.961 . S
H672 C684 0.959 . S
H673 C687 0.929 . S
H674 C688 0.931 . S
H675 C690 0.930 . S
C676 H664 0.930 . S
C676 C677 1.399 . S
C676 C681 1.399 . S
C677 C676 1.399 . S
C677 C678 1.376 . S
C678 H665 0.930 . S
C678 C677 1.376 . S
C678 C679 1.388 . S
C679 H666 0.930 . S
C679 C678 1.388 . S
C679 C680 1.390 . S
C680 C679 1.390 . S
C680 C681 1.394 . S
C680 C686 1.465 . S
C681 C676 1.399 . S
C681 C680 1.394 . S
C681 C682 1.516 . S
C682 C681 1.516 . S
C682 C683 1.502 . S
C682 C684 1.561 . S
C682 C685 1.526 . S
C683 H667 0.959 . S
C683 H668 0.959 . S
C683 H669 0.961 . S
C683 C682 1.502 . S
C684 H670 0.960 . S
C684 H671 0.961 . S
C684 H672 0.959 . S
C684 C682 1.561 . S
C685 C682 1.526 . S
C685 C686 1.396 . S
C685 C690 1.390 . S
C686 C680 1.465 . S
C686 C685 1.396 . S
C686 C687 1.399 . S
C687 H673 0.929 . S
C687 C686 1.399 . S
C687 C688 1.385 . S
C688 H674 0.931 . S
C688 C687 1.385 . S
C688 C689 1.389 . S
C689 C688 1.389 . S
C689 C690 1.387 . S
C690 H675 0.930 . S
C690 C685 1.390 . S
C690 C689 1.387 . S
H691 C703 0.930 . S
H692 C705 0.930 . S
H693 C706 0.930 . S
H694 C710 0.959 . S
H695 C710 0.959 . S
H696 C710 0.961 . S
H697 C711 0.960 . S
H698 C711 0.961 . S
H699 C711 0.959 . S
H700 C714 0.929 . S
H701 C715 0.931 . S
H702 C717 0.930 . S
C703 H691 0.930 . S
C703 C704 1.399 . S
C703 C708 1.399 . S
C704 C703 1.399 . S
C704 C705 1.376 . S
C705 H692 0.930 . S
C705 C704 1.376 . S
C705 C706 1.388 . S
C706 H693 0.930 . S
C706 C705 1.388 . S
C706 C707 1.390 . S
C707 C706 1.390 . S
C707 C708 1.394 . S
C707 C713 1.465 . S
C708 C703 1.399 . S
C708 C707 1.394 . S
C708 C709 1.516 . S
C709 C708 1.516 . S
C709 C710 1.502 . S
C709 C711 1.561 . S
C709 C712 1.526 . S
C710 H694 0.959 . S
C710 H695 0.959 . S
C710 H696 0.961 . S
C710 C709 1.502 . S
C711 H697 0.960 . S
C711 H698 0.961 . S
C711 H699 0.959 . S
C711 C709 1.561 . S
C712 C709 1.526 . S
C712 C713 1.396 . S
C712 C717 1.390 . S
C713 C707 1.465 . S
C713 C712 1.396 . S
C713 C714 1.399 . S
C714 H700 0.929 . S
C714 C713 1.399 . S
C714 C715 1.385 . S
C715 H701 0.931 . S
C715 C714 1.385 . S
C715 C716 1.389 . S
C716 C715 1.389 . S
C716 C717 1.387 . S
C717 H702 0.930 . S
C717 C712 1.390 . S
C717 C716 1.387 . S
H718 C730 0.930 . S
H719 C732 0.930 . S
H720 C733 0.930 . S
H721 C737 0.959 . S
H722 C737 0.959 . S
H723 C737 0.961 . S
H724 C738 0.960 . S
H725 C738 0.961 . S
H726 C738 0.959 . S
H727 C741 0.929 . S
H728 C742 0.931 . S
H729 C744 0.930 . S
C730 H718 0.930 . S
C730 C731 1.399 . S
C730 C735 1.399 . S
C731 C730 1.399 . S
C731 C732 1.376 . S
C732 H719 0.930 . S
C732 C731 1.376 . S
C732 C733 1.388 . S
C733 H720 0.930 . S
C733 C732 1.388 . S
C733 C734 1.390 . S
C734 C733 1.390 . S
C734 C735 1.394 . S
C734 C740 1.465 . S
C735 C730 1.399 . S
C735 C734 1.394 . S
C735 C736 1.516 . S
C736 C735 1.516 . S
C736 C737 1.502 . S
C736 C738 1.561 . S
C736 C739 1.526 . S
C737 H721 0.959 . S
C737 H722 0.959 . S
C737 H723 0.961 . S
C737 C736 1.502 . S
C738 H724 0.960 . S
C738 H725 0.961 . S
C738 H726 0.959 . S
C738 C736 1.561 . S
C739 C736 1.526 . S
C739 C740 1.396 . S
C739 C744 1.390 . S
C740 C734 1.465 . S
C740 C739 1.396 . S
C740 C741 1.399 . S
C741 H727 0.929 . S
C741 C740 1.399 . S
C741 C742 1.385 . S
C742 H728 0.931 . S
C742 C741 1.385 . S
C742 C743 1.389 . S
C743 C742 1.389 . S
C743 C744 1.387 . S
C744 H729 0.930 . S
C744 C739 1.390 . S
C744 C743 1.387 . S
H745 C757 0.930 . S
H746 C759 0.930 . S
H747 C760 0.930 . S
H748 C764 0.959 . S
H749 C764 0.959 . S
H750 C764 0.961 . S
H751 C765 0.960 . S
H752 C765 0.961 . S
H753 C765 0.959 . S
H754 C768 0.929 . S
H755 C769 0.931 . S
H756 C771 0.930 . S
C757 H745 0.930 . S
C757 C758 1.399 . S
C757 C762 1.399 . S
C758 C757 1.399 . S
C758 C759 1.376 . S
C759 H746 0.930 . S
C759 C758 1.376 . S
C759 C760 1.388 . S
C760 H747 0.930 . S
C760 C759 1.388 . S
C760 C761 1.390 . S
C761 C760 1.390 . S
C761 C762 1.394 . S
C761 C767 1.465 . S
C762 C757 1.399 . S
C762 C761 1.394 . S
C762 C763 1.516 . S
C763 C762 1.516 . S
C763 C764 1.502 . S
C763 C765 1.561 . S
C763 C766 1.526 . S
C764 H748 0.959 . S
C764 H749 0.959 . S
C764 H750 0.961 . S
C764 C763 1.502 . S
C765 H751 0.960 . S
C765 H752 0.961 . S
C765 H753 0.959 . S
C765 C763 1.561 . S
C766 C763 1.526 . S
C766 C767 1.396 . S
C766 C771 1.390 . S
C767 C761 1.465 . S
C767 C766 1.396 . S
C767 C768 1.399 . S
C768 H754 0.929 . S
C768 C767 1.399 . S
C768 C769 1.385 . S
C769 H755 0.931 . S
C769 C768 1.385 . S
C769 C770 1.389 . S
C770 C769 1.389 . S
C770 C771 1.387 . S
C771 H756 0.930 . S
C771 C766 1.390 . S
C771 C770 1.387 . S
H772 C784 0.930 . S
H773 C786 0.930 . S
H774 C787 0.930 . S
H775 C791 0.959 . S
H776 C791 0.959 . S
H777 C791 0.961 . S
H778 C792 0.960 . S
H779 C792 0.961 . S
H780 C792 0.959 . S
H781 C795 0.929 . S
H782 C796 0.931 . S
H783 C798 0.930 . S
C784 H772 0.930 . S
C784 C785 1.399 . S
C784 C789 1.399 . S
C785 C784 1.399 . S
C785 C786 1.376 . S
C786 H773 0.930 . S
C786 C785 1.376 . S
C786 C787 1.388 . S
C787 H774 0.930 . S
C787 C786 1.388 . S
C787 C788 1.390 . S
C788 C787 1.390 . S
C788 C789 1.394 . S
C788 C794 1.465 . S
C789 C784 1.399 . S
C789 C788 1.394 . S
C789 C790 1.516 . S
C790 C789 1.516 . S
C790 C791 1.502 . S
C790 C792 1.561 . S
C790 C793 1.526 . S
C791 H775 0.959 . S
C791 H776 0.959 . S
C791 H777 0.961 . S
C791 C790 1.502 . S
C792 H778 0.960 . S
C792 H779 0.961 . S
C792 H780 0.959 . S
C792 C790 1.561 . S
C793 C790 1.526 . S
C793 C794 1.396 . S
C793 C798 1.390 . S
C794 C788 1.465 . S
C794 C793 1.396 . S
C794 C795 1.399 . S
C795 H781 0.929 . S
C795 C794 1.399 . S
C795 C796 1.385 . S
C796 H782 0.931 . S
C796 C795 1.385 . S
C796 C797 1.389 . S
C797 C796 1.389 . S
C797 C798 1.387 . S
C798 H783 0.930 . S
C798 C793 1.390 . S
C798 C797 1.387 . S
H799 C811 0.930 . S
H800 C813 0.930 . S
H801 C814 0.930 . S
H802 C818 0.959 . S
H803 C818 0.959 . S
H804 C818 0.961 . S
H805 C819 0.960 . S
H806 C819 0.961 . S
H807 C819 0.959 . S
H808 C822 0.929 . S
H809 C823 0.931 . S
H810 C825 0.930 . S
C811 H799 0.930 . S
C811 C812 1.399 . S
C811 C816 1.399 . S
C812 C811 1.399 . S
C812 C813 1.376 . S
C813 H800 0.930 . S
C813 C812 1.376 . S
C813 C814 1.388 . S
C814 H801 0.930 . S
C814 C813 1.388 . S
C814 C815 1.390 . S
C815 C814 1.390 . S
C815 C816 1.394 . S
C815 C821 1.465 . S
C816 C811 1.399 . S
C816 C815 1.394 . S
C816 C817 1.516 . S
C817 C816 1.516 . S
C817 C818 1.502 . S
C817 C819 1.561 . S
C817 C820 1.526 . S
C818 H802 0.959 . S
C818 H803 0.959 . S
C818 H804 0.961 . S
C818 C817 1.502 . S
C819 H805 0.960 . S
C819 H806 0.961 . S
C819 H807 0.959 . S
C819 C817 1.561 . S
C820 C817 1.526 . S
C820 C821 1.396 . S
C820 C825 1.390 . S
C821 C815 1.465 . S
C821 C820 1.396 . S
C821 C822 1.399 . S
C822 H808 0.929 . S
C822 C821 1.399 . S
C822 C823 1.385 . S
C823 H809 0.931 . S
C823 C822 1.385 . S
C823 C824 1.389 . S
C824 C823 1.389 . S
C824 C825 1.387 . S
C825 H810 0.930 . S
C825 C820 1.390 . S
C825 C824 1.387 . S
H826 C838 0.930 . S
H827 C840 0.930 . S
H828 C841 0.930 . S
H829 C845 0.959 . S
H830 C845 0.959 . S
H831 C845 0.961 . S
H832 C846 0.960 . S
H833 C846 0.961 . S
H834 C846 0.959 . S
H835 C849 0.929 . S
H836 C850 0.931 . S
H837 C852 0.930 . S
C838 H826 0.930 . S
C838 C839 1.399 . S
C838 C843 1.399 . S
C839 C838 1.399 . S
C839 C840 1.376 . S
C840 H827 0.930 . S
C840 C839 1.376 . S
C840 C841 1.388 . S
C841 H828 0.930 . S
C841 C840 1.388 . S
C841 C842 1.390 . S
C842 C841 1.390 . S
C842 C843 1.394 . S
C842 C848 1.465 . S
C843 C838 1.399 . S
C843 C842 1.394 . S
C843 C844 1.516 . S
C844 C843 1.516 . S
C844 C845 1.502 . S
C844 C846 1.561 . S
C844 C847 1.526 . S
C845 H829 0.959 . S
C845 H830 0.959 . S
C845 H831 0.961 . S
C845 C844 1.502 . S
C846 H832 0.960 . S
C846 H833 0.961 . S
C846 H834 0.959 . S
C846 C844 1.561 . S
C847 C844 1.526 . S
C847 C848 1.396 . S
C847 C852 1.390 . S
C848 C842 1.465 . S
C848 C847 1.396 . S
C848 C849 1.399 . S
C849 H835 0.929 . S
C849 C848 1.399 . S
C849 C850 1.385 . S
C850 H836 0.931 . S
C850 C849 1.385 . S
C850 C851 1.389 . S
C851 C850 1.389 . S
C851 C852 1.387 . S
C852 H837 0.930 . S
C852 C847 1.390 . S
C852 C851 1.387 . S
H853 C865 0.930 . S
H854 C867 0.930 . S
H855 C868 0.930 . S
H856 C872 0.959 . S
H857 C872 0.959 . S
H858 C872 0.961 . S
H859 C873 0.960 . S
H860 C873 0.961 . S
H861 C873 0.959 . S
H862 C876 0.929 . S
H863 C877 0.931 . S
H864 C879 0.930 . S
C865 H853 0.930 . S
C865 C866 1.399 . S
C865 C870 1.399 . S
C866 C865 1.399 . S
C866 C867 1.376 . S
C867 H854 0.930 . S
C867 C866 1.376 . S
C867 C868 1.388 . S
C868 H855 0.930 . S
C868 C867 1.388 . S
C868 C869 1.390 . S
C869 C868 1.390 . S
C869 C870 1.394 . S
C869 C875 1.465 . S
C870 C865 1.399 . S
C870 C869 1.394 . S
C870 C871 1.516 . S
C871 C870 1.516 . S
C871 C872 1.502 . S
C871 C873 1.561 . S
C871 C874 1.526 . S
C872 H856 0.959 . S
C872 H857 0.959 . S
C872 H858 0.961 . S
C872 C871 1.502 . S
C873 H859 0.960 . S
C873 H860 0.961 . S
C873 H861 0.959 . S
C873 C871 1.561 . S
C874 C871 1.526 . S
C874 C875 1.396 . S
C874 C879 1.390 . S
C875 C869 1.465 . S
C875 C874 1.396 . S
C875 C876 1.399 . S
C876 H862 0.929 . S
C876 C875 1.399 . S
C876 C877 1.385 . S
C877 H863 0.931 . S
C877 C876 1.385 . S
C877 C878 1.389 . S
C878 C877 1.389 . S
C878 C879 1.387 . S
C879 H864 0.930 . S
C879 C874 1.390 . S
C879 C878 1.387 . S
C245 C5 1.029 . S
C257 C89 0.973 . S
C272 C14 0.969 . S
C284 C129 0.987 . S
C311 C154 2.404 . S
C299 C25 2.482 . S
C326 C34 2.470 . S
C338 C194 2.436 . S
C365 C125 1.504 . S
C353 C7 1.492 . S
C392 C85 1.527 . S
C380 C13 1.460 . S
C419 C216 1.745 . S
C407 C23 1.741 . S
C446 C176 1.730 . S
C434 C31 1.736 . S
C461 C4 1.165 . S
C473 C218 1.213 . S
C500 C135 2.141 . S
C488 C22 2.206 . S
C515 C32 2.203 . S
C527 C95 2.194 . S
C542 C16 1.142 . S
C554 C178 1.211 . S
C581 C98 0.990 . S
C569 C41 0.939 . S
C596 C50 0.952 . S
C608 C138 0.993 . S
C623 C61 2.465 . S
C635 C175 2.428 . S
C650 C67 2.484 . S
C662 C215 2.445 . S
C677 C40 1.488 . S
C689 C136 1.525 . S
C716 C96 1.505 . S
C704 C52 1.424 . S
C743 C205 1.729 . S
C731 C59 1.760 . S
C770 C165 1.690 . S
C758 C70 1.752 . S
C785 C43 1.222 . S
C797 C209 1.166 . S
C824 C114 2.173 . S
C812 C58 2.216 . S
C851 C74 2.161 . S
C839 C68 2.195 . S
C866 C49 1.128 . S
C878 C169 1.220 . S
