# Generated by pormake.
# Topology anh, (6,3)-cn, num edge types: 1
# Building blocks:
#     Node 0, Type 0, BuildingBlock: NUHQIS_clean_sbu_0, # of connection points: 6
#     Node 1, Type 0, BuildingBlock: NUHQIS_clean_sbu_0, # of connection points: 6
#     Node 2, Type 0, BuildingBlock: NUHQIS_clean_sbu_0, # of connection points: 6
#     Node 3, Type 1, BuildingBlock: BETDIP_clean_linker_0, # of connection points: 3
#     Node 4, Type 1, BuildingBlock: BETDIP_clean_linker_0, # of connection points: 3
#     Node 5, Type 1, BuildingBlock: BETDIP_clean_linker_0, # of connection points: 3
#     Node 6, Type 1, BuildingBlock: BETDIP_clean_linker_0, # of connection points: 3
#     Node 7, Type 1, BuildingBlock: BETDIP_clean_linker_0, # of connection points: 3
#     Node 8, Type 1, BuildingBlock: BETDIP_clean_linker_0, # of connection points: 3
#     Edge 9, Type (0, 1), BuildingBlock: TEMPAE_clean_linker_10, # of connection points: 2
#     Edge 10, Type (0, 1), BuildingBlock: TEMPAE_clean_linker_10, # of connection points: 2
#     Edge 11, Type (0, 1), BuildingBlock: TEMPAE_clean_linker_10, # of connection points: 2
#     Edge 12, Type (0, 1), BuildingBlock: TEMPAE_clean_linker_10, # of connection points: 2
#     Edge 13, Type (0, 1), BuildingBlock: TEMPAE_clean_linker_10, # of connection points: 2
#     Edge 14, Type (0, 1), BuildingBlock: TEMPAE_clean_linker_10, # of connection points: 2
#     Edge 15, Type (0, 1), BuildingBlock: TEMPAE_clean_linker_10, # of connection points: 2
#     Edge 16, Type (0, 1), BuildingBlock: TEMPAE_clean_linker_10, # of connection points: 2
#     Edge 17, Type (0, 1), BuildingBlock: TEMPAE_clean_linker_10, # of connection points: 2
#     Edge 18, Type (0, 1), BuildingBlock: TEMPAE_clean_linker_10, # of connection points: 2
#     Edge 19, Type (0, 1), BuildingBlock: TEMPAE_clean_linker_10, # of connection points: 2
#     Edge 20, Type (0, 1), BuildingBlock: TEMPAE_clean_linker_10, # of connection points: 2
#     Edge 21, Type (0, 1), BuildingBlock: TEMPAE_clean_linker_10, # of connection points: 2
#     Edge 22, Type (0, 1), BuildingBlock: TEMPAE_clean_linker_10, # of connection points: 2
#     Edge 23, Type (0, 1), BuildingBlock: TEMPAE_clean_linker_10, # of connection points: 2
#     Edge 24, Type (0, 1), BuildingBlock: TEMPAE_clean_linker_10, # of connection points: 2
#     Edge 25, Type (0, 1), BuildingBlock: TEMPAE_clean_linker_10, # of connection points: 2
#     Edge 26, Type (0, 1), BuildingBlock: TEMPAE_clean_linker_10, # of connection points: 2
# Relax obj value: 0.247
# Max RMSD: 0.170
# Mean RMSD: 0.124
data_MOF--net-anh--node1-NUHQIS_clean_sbu_0--node2-BETDIP_clean_linker_0--edge1-TEMPAE_clean_linker_10
_symmetry_space_group_name_H-M    P1
_symmetry_Int_Tables_number       1
_symmetry_cell_setting            triclinic
loop_
_symmetry_equiv_pos_as_xyz
'x, y, z'
_cell_length_a     30.996281
_cell_length_b     31.088353
_cell_length_c     50.102141
_cell_angle_alpha  92.514392
_cell_angle_beta   93.551172
_cell_angle_gamma 119.87066
loop_
_atom_site_label
_atom_site_type_symbol
_atom_site_fract_x
_atom_site_fract_y
_atom_site_fract_z
_atom_type_partial_charge
Tb0 Tb 0.13379 0.60604 0.16936 0.0
Eu1 Eu 1.07634 0.66701 0.15845 0.0
C2 C 1.10333 0.65044 0.2159 0.0
C3 C 1.0136 0.54595 0.16374 0.0
C4 C 0.22119 0.55476 0.175 0.0
C5 C 0.26528 0.50893 0.17822 0.0
C6 C 0.22803 0.51792 0.18619 0.0
C7 C 0.25334 0.58426 0.15657 0.0
C8 C 0.29091 0.57543 0.14862 0.0
C9 C 0.29646 0.53682 0.1589 0.0
C10 C 0.17726 0.55796 0.18086 0.0
O11 O 0.14137 0.62038 0.12712 0.0
O12 O 1.07148 0.62682 0.11906 0.0
O13 O 0.15774 0.72529 0.15459 0.0
O14 O 0.19564 0.6852 0.17395 0.0
C15 C 1.10721 0.62067 0.11032 0.0
O16 O 1.05161 0.70793 0.13336 0.0
O17 O 1.03092 0.69602 0.17402 0.0
O18 O 1.1112 0.68644 0.20095 0.0
O19 O 1.09803 0.60896 0.20493 0.0
O20 O 1.0553 0.54547 0.16037 0.0
O21 O 1.01433 0.5888 0.16661 0.0
C22 C 0.19845 0.72578 0.16463 0.0
O23 O 0.18488 0.59766 0.1951 0.0
O24 O 0.14345 0.54518 0.16068 0.0
C25 C 0.96844 0.68541 0.1413 0.0
C26 C 0.86461 0.62097 0.1305 0.0
C27 C 0.89733 0.62262 0.11185 0.0
C28 C 0.94879 0.65438 0.11723 0.0
C29 C 0.93543 0.68696 0.15878 0.0
C30 C 0.88392 0.6548 0.1535 0.0
C31 C 1.02198 0.70849 0.15067 0.0
H32 H 0.26791 0.47843 0.18622 0.0
H33 H 0.20314 0.49463 0.2003 0.0
H34 H 0.24829 0.61283 0.14772 0.0
H35 H 0.31473 0.59791 0.13394 0.0
H36 H 0.88356 0.59667 0.09406 0.0
H37 H 0.97318 0.65203 0.10339 0.0
H38 H 0.9497 0.71051 0.17746 0.0
H39 H 0.85941 0.65454 0.16807 0.0
Tb40 Tb 0.73552 0.16712 0.48778 0.0
Eu41 Eu 0.62157 0.11238 0.50347 0.0
C42 C 0.71474 0.1586 0.54779 0.0
C43 C 0.68067 1.04966 0.4968 0.0
C44 C 0.85696 0.27056 0.4751 0.0
C45 C 0.89705 0.35161 0.50057 0.0
C46 C 0.8738 0.29971 0.49982 0.0
C47 C 0.867 0.29444 0.45128 0.0
C48 C 0.88935 0.34613 0.452 0.0
C49 C 0.90312 0.37537 0.47665 0.0
C50 C 0.82247 0.21617 0.47356 0.0
O51 O 0.6865 0.12 0.45297 0.0
O52 O 0.62273 0.13283 0.46074 0.0
O53 O 0.64332 0.19386 0.50796 0.0
O54 O 0.71611 0.22742 0.48729 0.0
C55 C 0.64799 0.12332 0.44388 0.0
O56 O 0.54285 1.06201 0.49157 0.0
O57 O 0.56636 0.10017 0.53178 0.0
O58 O 0.67009 0.12038 0.54078 0.0
O59 O 0.74096 0.18838 0.53011 0.0
O60 O 0.72321 0.09257 0.49682 0.0
O61 O 0.63733 1.04852 0.49585 0.0
C62 C 0.68029 0.2319 0.49804 0.0
O63 O 0.81279 0.19515 0.49613 0.0
O64 O 0.78194 0.20039 0.4574 0.0
C65 C 0.49185 1.0217 0.52572 0.0
C66 C 0.40607 0.93183 0.53363 0.0
C67 C 0.40975 0.97761 0.54152 0.0
C68 C 0.45234 1.02223 0.53748 0.0
C69 C 0.49093 0.97644 0.52081 0.0
C70 C 0.44821 0.93166 0.5248 0.0
C71 C 0.52924 1.0673 0.51508 0.0
H72 H 0.90831 0.37287 0.51993 0.0
H73 H 0.86688 0.28247 0.5186 0.0
H74 H 0.8544 0.27285 0.43196 0.0
H75 H 0.89267 0.36259 0.4331 0.0
H76 H 0.37789 0.97909 0.54818 0.0
H77 H 0.45269 1.05694 0.54152 0.0
H78 H 0.52155 0.97547 0.51203 0.0
H79 H 0.44654 0.89689 0.51886 0.0
Tb80 Tb 0.6525 0.63283 0.83286 0.0
Eu81 Eu 0.58237 0.51317 0.81832 0.0
C82 C 0.62023 0.56044 0.87749 0.0
C83 C 0.70531 0.5657 0.82888 0.0
C84 C 0.72198 0.77572 0.842 0.0
C85 C 0.7877 0.8621 0.84592 0.0
C86 C 0.77007 0.81321 0.85187 0.0
C87 C 0.69096 0.7877 0.82633 0.0
C88 C 0.70852 0.83717 0.82051 0.0
C89 C 0.75734 0.87491 0.83014 0.0
C90 C 0.70811 0.72458 0.84696 0.0
O91 O 0.63614 0.62734 0.78929 0.0
O92 O 0.60137 0.54301 0.77833 0.0
O93 O 0.52858 0.54201 0.8107 0.0
O94 O 0.57405 0.61609 0.83671 0.0
C95 C 0.61998 0.58872 0.77149 0.0
O96 O 0.56173 0.44243 0.79627 0.0
O97 O 0.51962 0.44368 0.82878 0.0
O98 O 0.58009 0.53178 0.86154 0.0
O99 O 0.65873 0.59743 0.86836 0.0
O100 O 0.70853 0.6096 0.82814 0.0
O101 O 0.66125 0.52456 0.82815 0.0
C102 C 0.53086 0.58068 0.8241 0.0
O103 O 0.6661 0.69649 0.85703 0.0
O104 O 0.71727 0.70018 0.82858 0.0
C105 C 0.53936 0.37962 0.82551 0.0
C106 C 0.58355 0.32575 0.84529 0.0
C107 C 0.55935 0.31414 0.81904 0.0
C108 C 0.53737 0.34078 0.8093 0.0
C109 C 0.55919 0.38823 0.85251 0.0
C110 C 0.58066 0.36115 0.86238 0.0
C111 C 0.52972 0.41623 0.81291 0.0
H112 H 0.82589 0.88959 0.85307 0.0
H113 H 0.79473 0.80439 0.86367 0.0
H114 H 0.65379 0.7589 0.81834 0.0
H115 H 0.6841 0.84579 0.8084 0.0
H116 H 0.56123 0.28766 0.80509 0.0
H117 H 0.52251 0.33377 0.78842 0.0
H118 H 0.56129 0.41815 0.86549 0.0
H119 H 0.59808 0.37041 0.88282 0.0
H120 H 0.56359 0.09376 0.1632 0.0
H121 H 0.64993 0.17595 0.23743 0.0
H122 H 0.52024 1.03208 0.23893 0.0
H123 H 0.71533 0.19725 0.21337 0.0
C124 C 0.70355 0.20977 0.19594 0.0
C125 C 0.57012 0.09648 0.18484 0.0
C126 C 0.53415 1.05817 0.19969 0.0
C127 C 0.61437 0.13876 0.19836 0.0
C128 C 0.61981 0.14241 0.22668 0.0
C129 C 0.5864 0.10435 0.24153 0.0
C130 C 0.54499 1.06238 0.22769 0.0
N131 N 0.65227 0.17823 0.18421 0.0
H132 H 0.67801 0.59538 0.49685 0.0
H133 H 0.66972 0.67462 0.56768 0.0
H134 H 0.67331 0.54046 0.57523 0.0
H135 H 0.72634 0.7416 0.54645 0.0
C136 C 0.70227 0.73292 0.52793 0.0
C137 C 0.67644 0.59878 0.51831 0.0
C138 C 0.67379 0.56006 0.53423 0.0
C139 C 0.6768 0.64197 0.53045 0.0
C140 C 0.67217 0.64406 0.55817 0.0
C141 C 0.67073 0.60762 0.57412 0.0
C142 C 0.67306 0.56724 0.56223 0.0
N143 N 0.68015 0.68249 0.51543 0.0
H144 H 1.07124 0.56418 0.8298 0.0
H145 H 0.16428 0.58702 0.90325 0.0
H146 H 1.02274 0.57714 0.90743 0.0
H147 H 0.18057 0.53326 0.87809 0.0
C148 C 0.19351 0.55552 0.8611 0.0
C149 C 1.07751 0.56935 0.85148 0.0
C150 C 1.03942 0.5688 0.86687 0.0
C151 C 0.12302 0.57465 0.86448 0.0
C152 C 0.13008 0.58157 0.89277 0.0
C153 C 1.09353 0.58121 0.908 0.0
C154 C 1.04942 0.57548 0.89504 0.0
N155 N 0.16157 0.5733 0.84978 0.0
H156 H 1.02923 0.77847 0.46883 0.0
H157 H 0.95134 0.69445 0.39405 0.0
H158 H 1.10405 0.73235 0.4154 0.0
H159 H 0.86326 0.68382 0.44435 0.0
C160 C 0.90043 0.68845 0.44639 0.0
C161 C 1.02922 0.76043 0.44982 0.0
C162 C 1.07053 0.75598 0.44436 0.0
C163 C 0.98585 0.73699 0.432 0.0
C164 C 0.98531 0.71265 0.40758 0.0
C165 C 1.02827 0.71161 0.40086 0.0
C166 C 1.07043 0.73269 0.41981 0.0
N167 N 0.94138 0.734 0.43987 0.0
H168 H 0.90375 0.29498 0.81719 0.0
H169 H 0.91979 0.24178 0.73998 0.0
H170 H 0.7904 0.25486 0.75175 0.0
H171 H 1.00697 0.23752 0.78622 0.0
C172 C 0.96858 0.22869 0.78737 0.0
C173 C 0.88964 0.2821 0.79635 0.0
C174 C 0.84383 0.27679 0.78643 0.0
C175 C 0.91609 0.26801 0.77983 0.0
C176 C 0.89831 0.2513 0.75276 0.0
C177 C 0.8538 0.24841 0.74217 0.0
C178 C 0.82631 0.26001 0.75937 0.0
N179 N 0.95974 0.26915 0.79106 0.0
H180 H 0.45433 0.32239 0.0969 0.0
H181 H 0.56194 0.33667 0.04269 0.0
H182 H 0.51702 0.44697 0.04892 0.0
H183 H 0.55732 0.25722 0.09648 0.0
C184 C 0.55359 0.28991 0.09475 0.0
C185 C 0.47755 0.34181 0.08126 0.0
C186 C 0.48302 0.38749 0.07456 0.0
C187 C 0.50664 0.324 0.07019 0.0
C188 C 0.53897 0.35024 0.0509 0.0
C189 C 0.54305 0.39487 0.04315 0.0
C190 C 0.51473 0.41293 0.05503 0.0
N191 N 0.50869 0.28396 0.0815 0.0
C192 C 0.33436 0.51973 0.12014 0.0
C193 C 0.33114 0.52225 0.14791 0.0
C194 C 0.36186 0.50001 0.10901 0.0
C195 C 0.3863 0.48197 0.12605 0.0
C196 C 0.3848 0.48609 0.15416 0.0
C197 C 0.35743 0.50646 0.16477 0.0
C198 C 0.36321 0.49679 0.07893 0.0
C199 C 0.41058 0.46734 0.17293 0.0
C200 C 0.40829 0.38269 0.09393 0.0
C201 C 0.45851 0.41077 0.08898 0.0
C202 C 0.38457 0.40529 0.10655 0.0
C203 C 0.41179 0.4571 0.11427 0.0
C204 C 0.46283 0.48536 0.10992 0.0
C205 C 0.48565 0.46178 0.09746 0.0
C206 C 0.33011 0.37395 0.11112 0.0
C207 C 0.49304 0.54066 0.11789 0.0
H208 H 0.31363 0.5312 0.10693 0.0
H209 H 0.35572 0.50904 0.18629 0.0
H210 H 0.40243 0.51411 0.07384 0.0
H211 H 0.34385 0.45716 0.07087 0.0
H212 H 0.345 0.51543 0.06868 0.0
H213 H 0.40805 0.47575 0.19437 0.0
H214 H 0.39334 0.42643 0.16887 0.0
H215 H 0.45058 0.48422 0.16943 0.0
H216 H 0.38726 0.34331 0.08737 0.0
H217 H 0.52488 0.48339 0.09423 0.0
H218 H 0.30775 0.38688 0.09947 0.0
H219 H 0.3251 0.37822 0.13262 0.0
H220 H 0.31496 0.33382 0.10508 0.0
H221 H 0.47691 0.56004 0.10654 0.0
H222 H 0.53285 0.55684 0.11397 0.0
H223 H 0.49141 0.54831 0.13952 0.0
C224 C 0.90089 0.44994 0.49636 0.0
C225 C 0.9178 0.42901 0.47709 0.0
C226 C 0.90618 0.49711 0.49412 0.0
C227 C 0.92728 0.52318 0.47164 0.0
C228 C 0.94844 0.50457 0.45349 0.0
C229 C 0.94383 0.45786 0.45656 0.0
C230 C 0.88639 0.51779 0.51488 0.0
C231 C 0.97339 0.5326 0.42995 0.0
C232 C 0.87154 0.59785 0.44323 0.0
C233 C 0.90656 0.6461 0.4539 0.0
C234 C 0.87806 0.55753 0.44883 0.0
C235 C 0.92094 0.56601 0.46532 0.0
C236 C 0.95603 0.61469 0.47648 0.0
C237 C 0.94757 0.65392 0.47123 0.0
C238 C 0.83959 0.50602 0.43661 0.0
C239 C 1.00313 0.62564 0.49327 0.0
H240 H 0.88079 0.42845 0.51238 0.0
H241 H 0.95887 0.4431 0.44216 0.0
H242 H 0.91546 0.55593 0.5228 0.0
H243 H 0.85463 0.52061 0.50548 0.0
H244 H 0.87408 0.49457 0.5321 0.0
H245 H 0.99564 0.51792 0.42068 0.0
H246 H 0.94446 0.5292 0.41444 0.0
H247 H 0.99825 0.57282 0.43619 0.0
H248 H 0.83952 0.59183 0.4301 0.0
H249 H 0.97307 0.69072 0.48081 0.0
H250 H 0.82868 0.47871 0.45197 0.0
H251 H 0.85589 0.49398 0.42086 0.0
H252 H 0.80545 0.50479 0.42734 0.0
H253 H 0.99444 0.60099 0.50984 0.0
H254 H 1.02486 0.66497 0.50193 0.0
H255 H 1.0271 0.61803 0.48061 0.0
C256 C 0.76918 0.93767 0.79701 0.0
C257 C 0.77838 0.92719 0.82303 0.0
C258 C 0.79458 0.98656 0.78927 0.0
C259 C 0.83078 1.02547 0.8078 0.0
C260 C 0.83855 1.01546 0.83439 0.0
C261 C 0.8116 0.9667 0.84178 0.0
C262 C 0.78399 0.99628 0.76105 0.0
C263 C 0.87706 1.0558 0.85476 0.0
C264 C 0.94132 0.13853 0.78408 0.0
C265 C 0.93012 0.17605 0.79022 0.0
C266 C 0.90843 0.0889 0.78879 0.0
C267 C 0.86262 1.0763 0.79933 0.0
C268 C 0.85002 0.11356 0.80445 0.0
C269 C 0.88448 0.16313 0.80059 0.0
C270 C 0.92388 1.05046 0.78374 0.0
C271 C 0.80107 0.10159 0.81514 0.0
H272 H 0.7437 0.90751 0.78232 0.0
H273 H 0.81782 0.95927 0.86217 0.0
H274 H 0.77793 1.02859 0.76136 0.0
H275 H 0.81668 1.0057 0.74963 0.0
H276 H 0.75066 0.96349 0.7502 0.0
H277 H 0.87833 1.04179 0.87464 0.0
H278 H 0.91466 1.07167 0.84743 0.0
H279 H 0.86895 0.08657 0.85743 0.0
H280 H 0.97671 0.14833 0.77636 0.0
H281 H 0.87586 0.19139 0.80679 0.0
H282 H 0.89445 1.01828 0.77053 0.0
H283 H 0.92841 1.03621 0.80303 0.0
H284 H 0.9596 1.06578 0.77433 0.0
H285 H 0.76969 1.06727 0.80425 0.0
H286 H 0.79305 0.13249 0.81335 0.0
H287 H 0.80242 0.09478 0.83663 0.0
C288 C 0.78366 0.56458 0.10277 0.0
C289 C 0.81224 0.57931 0.12771 0.0
C290 C 0.7377 0.51994 0.09883 0.0
C291 C 0.72069 0.48894 0.12017 0.0
C292 C 0.74771 0.50524 0.14586 0.0
C293 C 0.79315 0.55042 0.14935 0.0
C294 C 0.70893 0.50482 0.07141 0.0
C295 C 0.72983 0.47378 0.16929 0.0
C296 C 0.58957 0.37738 0.11534 0.0
C297 C 0.59679 0.33976 0.10386 0.0
C298 C 0.62917 0.42651 0.12008 0.0
C299 C 0.67778 0.4374 0.11501 0.0
C300 C 0.68584 0.39876 0.10517 0.0
C301 C 0.64507 0.3503 0.09958 0.0
C302 C 0.61837 0.46696 0.12901 0.0
C303 C 0.73742 0.40889 0.10004 0.0
H304 H 0.79804 0.58719 0.0861 0.0
H305 H 0.8152 0.56158 0.16865 0.0
H306 H 0.71808 0.47953 0.05996 0.0
H307 H 0.66807 0.48455 0.07298 0.0
H308 H 0.71866 0.5376 0.05981 0.0
H309 H 0.75608 0.49101 0.18775 0.0
H310 H 0.6929 0.46819 0.17376 0.0
H311 H 0.72477 0.43637 0.16414 0.0
H312 H 0.55265 0.36869 0.12008 0.0
H313 H 0.65068 0.32095 0.09112 0.0
H314 H 0.6241 0.49138 0.11249 0.0
H315 H 0.64443 0.49069 0.14652 0.0
H316 H 0.57937 0.45164 0.13428 0.0
H317 H 0.7528 0.4364 0.08491 0.0
H318 H 0.73736 0.37469 0.09263 0.0
H319 H 0.76292 0.4253 0.11879 0.0
C320 C 0.34182 0.86169 0.50261 0.0
C321 C 0.35576 0.88712 0.52826 0.0
C322 C 0.29145 0.83151 0.49312 0.0
C323 C 0.25428 0.82612 0.50988 0.0
C324 C 0.26809 0.84615 0.53697 0.0
C325 C 0.31893 0.87695 0.54584 0.0
C326 C 0.27834 0.81048 0.46411 0.0
C327 C 0.22934 0.83899 0.5558 0.0
C328 C 0.146 0.825 0.47033 0.0
C329 C 1.11362 0.77399 0.4645 0.0
C330 C 0.191 0.84254 0.48648 0.0
C331 C 0.20284 0.80794 0.49748 0.0
C332 C 0.16814 0.75633 0.49326 0.0
C333 C 0.12428 0.73989 0.47625 0.0
C334 C 0.22732 0.89793 0.4902 0.0
C335 C 0.17836 0.71831 0.50536 0.0
H336 H 0.36998 0.86945 0.48884 0.0
H337 H 0.32966 0.89591 0.56586 0.0
H338 H 0.24859 0.77079 0.46237 0.0
H339 H 0.26382 0.83105 0.45257 0.0
H340 H 0.31116 0.8135 0.45468 0.0
H341 H 0.2451 0.84659 0.57713 0.0
H342 H 0.21544 0.86498 0.55172 0.0
H343 H 0.19689 0.80053 0.5527 0.0
H344 H 0.13736 0.85103 0.46104 0.0
H345 H 1.09889 0.70036 0.47154 0.0
H346 H 0.26166 0.90655 0.48049 0.0
H347 H 0.23859 0.91041 0.51184 0.0
H348 H 0.21134 0.91976 0.4814 0.0
H349 H 0.20208 0.7106 0.49256 0.0
H350 H 0.14315 0.68263 0.50668 0.0
H351 H 0.19857 0.73214 0.52572 0.0
C352 C 0.66745 0.34291 0.86472 0.0
C353 C 0.61956 0.30863 0.85232 0.0
C354 C 0.70749 0.33434 0.86265 0.0
C355 C 0.69947 0.29137 0.84728 0.0
C356 C 0.65009 0.25321 0.83866 0.0
C357 C 0.61046 0.2621 0.84158 0.0
C358 C 0.75939 0.37428 0.87366 0.0
C359 C 0.63978 0.20588 0.8231 0.0
C360 C 0.78859 0.31167 0.79486 0.0
C361 C 0.81263 0.28648 0.8042 0.0
C362 C 0.75288 0.31468 0.80927 0.0
C363 C 0.74152 0.29271 0.83397 0.0
C364 C 0.76812 0.27015 0.84446 0.0
C365 C 0.80319 0.2669 0.82928 0.0
C366 C 0.72547 0.3392 0.79724 0.0
C367 C 0.75808 0.24715 0.8709 0.0
H368 H 0.67514 0.37877 0.87355 0.0
H369 H 0.57314 0.2345 0.83304 0.0
H370 H 0.78014 0.35744 0.8831 0.0
H371 H 0.78028 0.39491 0.85698 0.0
H372 H 0.75857 0.40119 0.88867 0.0
H373 H 0.59962 0.17683 0.82183 0.0
H374 H 0.6505 0.21401 0.80239 0.0
H375 H 0.66237 0.19094 0.83248 0.0
H376 H 0.79658 0.32767 0.77573 0.0
H377 H 0.82156 0.24714 0.83653 0.0
H378 H 0.72749 0.36808 0.81188 0.0
H379 H 0.68539 0.31098 0.79227 0.0
H380 H 0.74086 0.35689 0.77867 0.0
H381 H 0.74577 0.2663 0.88512 0.0
H382 H 0.79186 0.24799 0.88042 0.0
H383 H 0.72805 0.20759 0.86731 0.0
C384 C 0.63819 0.95641 0.50349 0.0
C385 C 0.68129 1.00091 0.49843 0.0
C386 C 0.63839 0.91105 0.50609 0.0
C387 C 0.68259 0.90865 0.50325 0.0
C388 C 0.72588 0.95313 0.49748 0.0
C389 C 0.72484 0.99821 0.49537 0.0
C390 C 0.59131 0.8658 0.51271 0.0
C391 C 0.77396 0.95338 0.49393 0.0
C392 C 0.7042 0.81321 0.54019 0.0
C393 C 0.69265 0.77464 0.52021 0.0
C394 C 0.70012 0.85555 0.53502 0.0
C395 C 0.68489 0.86146 0.50879 0.0
C396 C 0.67269 0.82248 0.48836 0.0
C397 C 0.67627 0.77959 0.49428 0.0
C398 C 0.71269 0.89446 0.55788 0.0
C399 C 0.65687 0.82665 0.46 0.0
H400 H 0.60408 0.95712 0.50602 0.0
H401 H 0.75854 1.0316 0.49133 0.0
H402 H 0.58117 0.83382 0.49794 0.0
H403 H 0.59781 0.85505 0.53275 0.0
H404 H 0.55925 0.8724 0.51288 0.0
H405 H 0.80306 0.98912 0.4872 0.0
H406 H 0.78864 0.94704 0.51321 0.0
H407 H 0.76702 0.92259 0.47903 0.0
H408 H 0.71688 0.81036 0.56035 0.0
H409 H 0.66763 0.75081 0.47845 0.0
H410 H 0.68076 0.90077 0.55982 0.0
H411 H 0.74514 0.93038 0.5537 0.0
H412 H 0.72183 0.88369 0.57736 0.0
H413 H 0.62369 0.83144 0.4596 0.0
H414 H 0.64776 0.79345 0.4464 0.0
H415 H 0.68731 0.86017 0.45218 0.0
C416 C 0.7573 0.52375 0.81991 0.0
C417 C 0.75362 0.5637 0.83168 0.0
C418 C 0.80305 0.52296 0.82199 0.0
C419 C 0.84662 0.56194 0.8372 0.0
C420 C 0.84272 0.60195 0.84939 0.0
C421 C 0.79721 0.6028 0.84606 0.0
C422 C 0.80472 0.48007 0.80787 0.0
C423 C 0.8865 0.64357 0.8667 0.0
C424 C 0.94579 0.53378 0.8695 0.0
C425 C 0.98844 0.56101 0.85553 0.0
C426 C 0.90025 0.53338 0.86358 0.0
C427 C 0.89474 0.55922 0.84217 0.0
C428 C 0.9362 0.58383 0.82659 0.0
C429 C 0.98229 0.58492 0.83354 0.0
C430 C 0.85907 0.50768 0.88166 0.0
C431 C 0.93236 0.61031 0.80287 0.0
H432 H 0.72451 0.49335 0.80855 0.0
H433 H 0.79541 0.63386 0.85547 0.0
H434 H 0.83704 0.49425 0.79565 0.0
H435 H 0.81003 0.45753 0.82287 0.0
H436 H 0.76999 0.45553 0.79457 0.0
H437 H 0.87797 0.67198 0.87493 0.0
H438 H 0.89745 0.62813 0.88369 0.0
H439 H 0.91919 0.66214 0.85492 0.0
H440 H 0.94845 0.51374 0.88609 0.0
H441 H 1.01404 0.60611 0.82233 0.0
H442 H 0.82191 0.48711 0.87001 0.0
H443 H 0.85872 0.5362 0.89563 0.0
H444 H 0.86445 0.48133 0.89377 0.0
H445 H 0.89692 0.58614 0.79004 0.0
H446 H 0.9642 0.62136 0.79049 0.0
H447 H 0.93185 0.64431 0.81001 0.0
C448 C 0.29058 0.78125 0.18303 0.0
C449 C 0.24882 0.77423 0.16635 0.0
C450 C 0.33687 0.82716 0.18584 0.0
C451 C 0.34312 0.86794 0.17128 0.0
C452 C 0.30156 0.86054 0.15379 0.0
C453 C 0.25539 0.8146 0.15178 0.0
C454 C 0.37889 0.83247 0.20513 0.0
C455 C 0.3056 0.90163 0.13732 0.0
C456 C 0.44076 1.00132 0.2014 0.0
C457 C 0.4839 1.01342 0.18818 0.0
C458 C 0.39552 0.95525 0.19587 0.0
C459 C 0.39133 0.91907 0.17598 0.0
C460 C 0.43375 0.9319 0.16141 0.0
C461 C 0.47926 0.97835 0.16773 0.0
C462 C 0.35259 0.94453 0.21232 0.0
C463 C 0.43161 0.89575 0.1396 0.0
H464 H 0.28678 0.75107 0.19457 0.0
H465 H 0.22418 0.81037 0.13863 0.0
H466 H 0.41297 0.84402 0.19462 0.0
H467 H 0.38813 0.86207 0.22135 0.0
H468 H 0.36929 0.79734 0.21439 0.0
H469 H 0.27208 0.8891 0.12288 0.0
H470 H 0.31028 0.93326 0.15077 0.0
H471 H 0.3391 0.91576 0.12602 0.0
H472 H 0.44306 1.0276 0.21717 0.0
H473 H 0.51179 0.9862 0.15742 0.0
H474 H 0.34363 0.91172 0.22371 0.0
H475 H 0.31867 0.93525 0.19898 0.0
H476 H 0.36107 0.9765 0.22677 0.0
H477 H 0.42931 0.8628 0.14862 0.0
H478 H 0.46497 0.91264 0.12814 0.0
H479 H 0.39756 0.88232 0.12548 0.0
C480 C 0.72359 0.32649 0.50802 0.0
C481 C 0.68056 0.28106 0.49887 0.0
C482 C 0.72258 0.37175 0.51141 0.0
C483 C 0.67817 0.37341 0.50412 0.0
C484 C 0.63537 0.32771 0.49327 0.0
C485 C 0.63673 0.28256 0.49161 0.0
C486 C 0.76993 0.41777 0.5227 0.0
C487 C 0.58729 0.32529 0.48314 0.0
C488 C 0.64503 0.46754 0.53681 0.0
C489 C 0.67125 0.5114 0.52352 0.0
C490 C 0.64818 0.42414 0.53121 0.0
C491 C 0.67517 0.42107 0.50998 0.0
C492 C 0.69901 0.4639 0.49505 0.0
C493 C 0.6975 0.50826 0.50221 0.0
C494 C 0.62289 0.38198 0.54891 0.0
C495 C 0.72748 0.46444 0.47167 0.0
H496 H 0.75791 0.32642 0.51361 0.0
H497 H 0.60313 0.24815 0.48414 0.0
H498 H 0.79058 0.43637 0.50556 0.0
H499 H 0.7627 0.44413 0.53454 0.0
H500 H 0.79416 0.40846 0.53554 0.0
H501 H 0.57206 0.30196 0.46374 0.0
H502 H 0.55905 0.30684 0.49755 0.0
H503 H 0.59182 0.36241 0.48018 0.0
H504 H 0.62224 0.46709 0.55245 0.0
H505 H 0.71799 0.54082 0.49136 0.0
H506 H 0.64311 0.36112 0.55142 0.0
H507 H 0.58435 0.3558 0.53981 0.0
H508 H 0.61997 0.39586 0.56915 0.0
H509 H 0.76804 0.48764 0.47804 0.0
H510 H 0.71906 0.48221 0.45493 0.0
H511 H 0.71913 0.42676 0.4641 0.0
C512 C 0.43643 0.54435 0.81341 0.0
C513 C 0.48255 0.58224 0.82643 0.0
C514 C 0.39044 0.54296 0.81669 0.0
C515 C 0.38907 0.58027 0.83352 0.0
C516 C 0.43561 0.61934 0.84619 0.0
C517 C 0.48119 0.61987 0.84254 0.0
C518 C 0.34277 0.50033 0.80262 0.0
C519 C 0.43718 0.66012 0.86439 0.0
C520 C 0.2677 0.59061 0.83091 0.0
C521 C 0.24342 0.56368 0.85247 0.0
C522 C 0.31478 0.59661 0.82451 0.0
C523 C 0.33893 0.57554 0.83992 0.0
C524 C 0.31432 0.54865 0.86166 0.0
C525 C 0.26775 0.54315 0.86748 0.0
C526 C 0.33875 0.62554 0.80112 0.0
C527 C 0.33724 0.52525 0.87898 0.0
H528 H 0.43596 0.51481 0.80086 0.0
H529 H 0.51585 0.64951 0.85286 0.0
H530 H 0.31885 0.47689 0.8177 0.0
H531 H 0.32139 0.5147 0.79129 0.0
H532 H 0.3499 0.47649 0.78851 0.0
H533 H 0.47604 0.69008 0.871 0.0
H534 H 0.41705 0.67674 0.85402 0.0
H535 H 0.41785 0.64425 0.88243 0.0
H536 H 0.25007 0.60694 0.81904 0.0
H537 H 0.25008 0.52236 0.88425 0.0
H538 H 0.34378 0.60143 0.78614 0.0
H539 H 0.37644 0.65731 0.80804 0.0
H540 H 0.31617 0.64004 0.79114 0.0
H541 H 0.34203 0.49783 0.8665 0.0
H542 H 0.31409 0.50603 0.89536 0.0
H543 H 0.37489 0.55418 0.88807 0.0
C544 C 0.96328 0.45051 0.16206 0.0
C545 C 0.96502 0.49672 0.16525 0.0
C546 C 0.91902 0.40444 0.16463 0.0
C547 C 0.87421 0.40324 0.17075 0.0
C548 C 0.87546 0.44966 0.17341 0.0
C549 C 0.92019 0.49523 0.17066 0.0
C550 C 0.92055 0.3568 0.16128 0.0
C551 C 0.82952 0.45138 0.17981 0.0
C552 C 0.74705 0.27669 0.16224 0.0
C553 C 0.7431 0.26073 0.18831 0.0
C554 C 0.78885 0.32262 0.15616 0.0
C555 C 0.82782 0.35436 0.17654 0.0
C556 C 0.82286 0.33865 0.20291 0.0
C557 C 0.78155 0.29262 0.20826 0.0
C558 C 0.79223 0.33599 0.12755 0.0
C559 C 0.86201 0.3702 0.22567 0.0
H560 H 0.99698 0.45019 0.1578 0.0
H561 H 0.92011 0.52999 0.1732 0.0
H562 H 0.91419 0.33912 0.1805 0.0
H563 H 0.89014 0.33014 0.1461 0.0
H564 H 0.95685 0.36309 0.15497 0.0
H565 H 0.83429 0.48897 0.17816 0.0
H566 H 0.79683 0.42398 0.16605 0.0
H567 H 0.8212 0.44097 0.20055 0.0
H568 H 0.7186 0.25257 0.14638 0.0
H569 H 0.77956 0.28114 0.22849 0.0
H570 H 0.81889 0.32721 0.11835 0.0
H571 H 0.8066 0.3764 0.1266 0.0
H572 H 0.75545 0.31465 0.11544 0.0
H573 H 0.89851 0.37418 0.2215 0.0
H574 H 0.85219 0.35404 0.24524 0.0
H575 H 0.86695 0.40813 0.2274 0.0
C576 C 0.13508 0.59343 0.06996 0.0
C577 C 1.10921 0.61531 0.08086 0.0
C578 C 0.13568 0.58724 0.04197 0.0
C579 C 1.11073 0.60431 0.02449 0.0
C580 C 1.08563 0.62751 0.03548 0.0
C581 C 1.08474 0.63223 0.06342 0.0
C582 C 0.16205 0.56147 0.03106 0.0
C583 C 1.05933 0.6471 0.0177 0.0
C584 C 0.14199 0.6267 0.95205 0.0
C585 C 1.10039 0.58565 0.93786 0.0
C586 C 0.14652 0.63282 0.9803 0.0
C587 C 1.10904 0.59648 0.99468 0.0
C588 C 1.06798 0.55399 0.98037 0.0
C589 C 1.06391 0.54938 0.95218 0.0
C590 C 0.19037 0.6791 0.9947 0.0
C591 C 1.02766 0.51388 0.99482 0.0
H592 H 0.15396 0.58014 0.08328 0.0
H593 H 1.06511 0.6497 0.07164 0.0
H594 H 0.13477 0.5271 0.01844 0.0
H595 H 0.19061 0.58583 0.01804 0.0
H596 H 0.18057 0.5513 0.04727 0.0
H597 H 1.04387 0.66658 0.02943 0.0
H598 H 1.0856 0.67334 0.00433 0.0
H599 H 1.02822 0.61592 0.00468 0.0
H600 H 0.17008 0.65489 0.94099 0.0
H601 H 1.03194 0.51738 0.94122 0.0
H602 H 0.20999 0.66895 0.01025 0.0
H603 H 0.17679 0.70166 0.00514 0.0
H604 H 0.2176 0.70249 0.98078 0.0
H605 H 1.04458 0.50097 0.0104 0.0
H606 H 1.00052 0.48132 0.98094 0.0
H607 H 1.00698 0.52917 0.0052 0.0
C608 C 0.62418 0.15314 0.40315 0.0
C609 C 0.63527 0.11908 0.41463 0.0
C610 C 0.61627 0.15219 0.37513 0.0
C611 C 0.61747 0.11498 0.35831 0.0
C612 C 0.62697 0.07944 0.36999 0.0
C613 C 0.63687 0.08263 0.39798 0.0
C614 C 0.60822 0.19192 0.36351 0.0
C615 C 0.62667 1.03802 0.35292 0.0
C616 C 0.55358 0.08682 0.28719 0.0
C617 C 0.59445 0.10836 0.27165 0.0
C618 C 0.56052 0.08808 0.31527 0.0
C619 C 0.60948 0.11355 0.3285 0.0
C620 C 0.65088 0.13693 0.31319 0.0
C621 C 0.64296 0.13317 0.28503 0.0
C622 C 0.51536 1.06141 0.33073 0.0
C623 C 0.70369 0.16581 0.32654 0.0
H624 H 0.62367 0.18176 0.41607 0.0
H625 H 0.64533 1.05621 0.40693 0.0
H626 H 0.63766 0.21289 0.35009 0.0
H627 H 0.57176 0.17466 0.35114 0.0
H628 H 0.60905 0.21862 0.3793 0.0
H629 H 0.63119 1.01139 0.36521 0.0
H630 H 0.59107 1.01728 0.33976 0.0
H631 H 0.65741 1.05381 0.33968 0.0
H632 H 0.51582 1.06878 0.2775 0.0
H633 H 0.67508 0.14929 0.27355 0.0
H634 H 0.51302 0.08837 0.34494 0.0
H635 H 0.51895 1.03407 0.34282 0.0
H636 H 0.47992 1.04145 0.31736 0.0
H637 H 0.70684 0.19367 0.34233 0.0
H638 H 0.73143 0.18543 0.31203 0.0
H639 H 0.71346 0.14021 0.33649 0.0
C640 C 0.599 0.5554 0.72319 0.0
C641 C 0.6245 0.59638 0.74245 0.0
C642 C 0.60631 0.56035 0.69588 0.0
C643 C 0.64022 0.60743 0.68743 0.0
C644 C 0.66497 0.64934 0.70659 0.0
C645 C 0.65668 0.64337 0.73387 0.0
C646 C 0.5787 0.51475 0.67615 0.0
C647 C 0.70142 0.70015 0.69839 0.0
C648 C 0.69509 0.6025 0.62221 0.0
C649 C 0.66523 0.61092 0.60341 0.0
C650 C 0.6885 0.60302 0.64972 0.0
C651 C 0.65094 0.61191 0.6587 0.0
C652 C 0.62147 0.62161 0.63989 0.0
C653 C 0.62901 0.62107 0.61251 0.0
C654 C 0.72095 0.59279 0.66909 0.0
C655 C 0.58081 0.63089 0.64855 0.0
H656 H 0.57371 0.51897 0.7295 0.0
H657 H 0.67671 0.67522 0.74855 0.0
H658 H 0.55806 0.52166 0.65959 0.0
H659 H 0.60581 0.5065 0.66707 0.0
H660 H 0.55173 0.48139 0.68572 0.0
H661 H 0.71534 0.72947 0.71535 0.0
H662 H 0.73387 0.69946 0.69065 0.0
H663 H 0.68358 0.71035 0.68189 0.0
H664 H 0.72358 0.5953 0.61537 0.0
H665 H 0.60545 0.62713 0.59808 0.0
H666 H 0.69751 0.55752 0.67822 0.0
H667 H 0.739 0.6229 0.68566 0.0
H668 H 0.7505 0.5897 0.65919 0.0
H669 H 0.55109 0.59681 0.65633 0.0
H670 H 0.56362 0.64135 0.63182 0.0
H671 H 0.59599 0.66099 0.66512 0.0
C672 C 0.70609 0.14401 0.59644 0.0
C673 C 0.7361 0.16878 0.57613 0.0
C674 C 0.72587 0.15458 0.62344 0.0
C675 C 0.77695 0.19037 0.63021 0.0
C676 C 0.80772 0.21447 0.60972 0.0
C677 C 0.78688 0.20359 0.58296 0.0
C678 C 0.69178 0.12851 0.64479 0.0
C679 C 0.86246 0.25255 0.61613 0.0
C680 C 0.81538 0.25915 0.69951 0.0
C681 C 0.83564 0.23389 0.71325 0.0
C682 C 0.79596 0.2451 0.67258 0.0
C683 C 0.79742 0.2052 0.65883 0.0
C684 C 0.81859 0.18001 0.67236 0.0
C685 C 0.83737 0.19459 0.69949 0.0
C686 C 0.77364 0.27288 0.65888 0.0
C687 C 0.82109 0.13752 0.65823 0.0
H688 H 0.66685 0.11704 0.59133 0.0
H689 H 0.81049 0.22254 0.56736 0.0
H690 H 0.70764 0.11047 0.65753 0.0
H691 H 0.68873 0.15618 0.65809 0.0
H692 H 0.65365 0.0998 0.63612 0.0
H693 H 0.88197 0.26546 0.59775 0.0
H694 H 0.86648 0.28532 0.62823 0.0
H695 H 0.88138 0.2367 0.62834 0.0
H696 H 0.81479 0.29019 0.70986 0.0
H697 H 0.85256 0.17464 0.71004 0.0
H698 H 0.73422 0.24659 0.65111 0.0
H699 H 0.79426 0.29018 0.64142 0.0
H700 H 0.77468 0.30254 0.67257 0.0
H701 H 0.78282 0.10698 0.65116 0.0
H702 H 0.83959 0.12245 0.67144 0.0
H703 H 0.84187 0.15011 0.64026 0.0
C704 C 0.6656 0.54808 0.91662 0.0
C705 C 0.62258 0.54666 0.90497 0.0
C706 C 0.66469 0.52659 0.94086 0.0
C707 C 0.61994 0.50407 0.95364 0.0
C708 C 0.57733 0.50507 0.9425 0.0
C709 C 0.57908 0.52588 0.91816 0.0
C710 C 0.71061 0.52565 0.95187 0.0
C711 C 0.52913 0.48251 0.95577 0.0
C712 C 0.57361 0.39812 -0.0022 0.0
C713 C 0.57549 0.42284 0.02228 0.0
C714 C 0.59367 0.42497 0.97559 0.0
C715 C 0.61571 0.47748 0.97809 0.0
C716 C 0.62313 0.50275 0.00359 0.0
C717 C 0.60285 0.47507 0.0254 0.0
C718 C 0.58645 0.39681 0.94883 0.0
C719 C 0.64739 0.55871 0.00729 0.0
H720 H 0.69901 0.56348 0.90608 0.0
H721 H 0.54591 0.52494 0.90906 0.0
H722 H 0.71689 0.53345 0.97402 0.0
H723 H 0.70521 0.48798 0.94718 0.0
H724 H 0.7446 0.55303 0.94292 0.0
H725 H 0.50052 0.489 0.94525 0.0
H726 H 0.51351 0.44176 0.95603 0.0
H727 H 0.53625 0.49843 0.9769 0.0
H728 H 0.55291 0.35777 -0.00468 0.0
H729 H 0.60554 0.49439 0.04453 0.0
H730 H 0.62048 0.41572 0.93806 0.0
H731 H 0.55522 0.39576 0.93616 0.0
H732 H 0.57742 0.35789 0.95111 0.0
H733 H 0.68013 0.57686 -0.0045 0.0
H734 H 0.65967 0.57296 0.02873 0.0
H735 H 0.62007 0.56975 -5e-05 0.0
C736 C 1.05315 0.61196 0.25395 0.0
C737 C 1.09182 0.6536 0.24372 0.0
C738 C 1.0385 0.61566 0.27952 0.0
C739 C 1.06433 0.66168 0.29544 0.0
C740 C 1.10463 0.70334 0.28548 0.0
C741 C 1.11728 0.69901 0.2595 0.0
C742 C 0.99433 0.57093 0.28906 0.0
C743 C 0.13407 0.75266 0.30216 0.0
C744 C 1.00809 0.69869 0.35079 0.0
C745 C 1.03065 0.69108 0.37387 0.0
C746 C 1.01623 0.68626 0.32505 0.0
C747 C 1.04879 0.66705 0.32229 0.0
C748 C 1.06962 0.65689 0.3454 0.0
C749 C 1.05951 0.66812 0.37087 0.0
C750 C 0.99198 0.69609 0.30082 0.0
C751 C 1.10504 0.63702 0.34335 0.0
H752 H 1.03298 0.57701 0.2415 0.0
H753 H 0.14725 0.73111 0.25153 0.0
H754 H 1.00502 0.56195 0.30867 0.0
H755 H 0.96417 0.57951 0.29213 0.0
H756 H 0.97917 0.5375 0.27454 0.0
H757 H 0.16641 0.78028 0.29219 0.0
H758 H 1.10951 0.76828 0.30597 0.0
H759 H 0.14807 0.74733 0.32195 0.0
H760 H 0.98591 0.71654 0.35272 0.0
H761 H 1.07577 0.66044 0.38849 0.0
H762 H 0.97508 0.66348 0.28568 0.0
H763 H 1.02069 0.72829 0.29127 0.0
H764 H 0.96253 0.70447 0.30618 0.0
H765 H 1.08826 0.60319 0.32912 0.0
H766 H 1.11525 0.62783 0.36307 0.0
H767 H 0.13976 0.66531 0.33539 0.0
loop_
_geom_bond_atom_site_label_1
_geom_bond_atom_site_label_2
_geom_bond_distance
_geom_bond_site_symmetry_2
_ccdc_geom_bond_type
Tb0 C10 2.825 . S
Tb0 O11 2.347 . S
Tb0 O14 2.366 . S
Tb0 O19 2.418 . S
Tb0 O20 2.384 . S
Tb0 O23 2.479 . S
Tb0 O24 2.471 . S
Eu1 O12 2.418 . S
Eu1 O13 2.384 . S
Eu1 O16 2.479 1_455 S
Eu1 O17 2.471 1_455 S
Eu1 O18 2.347 . S
Eu1 O21 2.366 1_455 S
Eu1 C31 2.825 1_455 S
C2 O18 1.259 . S
C2 O19 1.265 . S
C3 O20 1.255 1_655 S
C3 O21 1.265 . S
C4 C6 1.380 . S
C4 C7 1.374 . S
C4 C10 1.507 . S
C5 C6 1.384 . S
C5 C9 1.387 . S
C5 H32 0.930 . S
C6 C4 1.380 . S
C6 C5 1.384 . S
C6 H33 0.931 . S
C7 C4 1.374 . S
C7 C8 1.390 . S
C7 H34 0.930 . S
C8 C7 1.390 . S
C8 C9 1.391 . S
C8 H35 0.930 . S
C9 C5 1.387 . S
C9 C8 1.391 . S
C10 Tb0 2.825 . S
C10 C4 1.507 . S
C10 O23 1.238 . S
C10 O24 1.247 . S
O11 Tb0 2.347 . S
O11 C15 1.259 . S
O12 Eu1 2.418 . S
O12 C15 1.265 . S
O13 Eu1 2.384 . S
O13 C22 1.255 . S
O14 Tb0 2.366 . S
O14 C22 1.265 . S
C15 O11 1.259 . S
C15 O12 1.265 . S
O16 Eu1 2.479 1_655 S
O16 C31 1.238 . S
O17 Eu1 2.471 1_655 S
O17 C31 1.247 . S
O18 Eu1 2.347 . S
O18 C2 1.259 . S
O19 Tb0 2.418 . S
O19 C2 1.265 . S
O20 Tb0 2.384 . S
O20 C3 1.255 1_455 S
O21 Eu1 2.366 1_655 S
O21 C3 1.265 . S
C22 O13 1.255 . S
C22 O14 1.265 . S
O23 Tb0 2.479 . S
O23 C10 1.238 . S
O24 Tb0 2.471 . S
O24 C10 1.247 . S
C25 C28 1.380 . S
C25 C29 1.374 . S
C25 C31 1.507 . S
C26 C27 1.387 . S
C26 C30 1.391 . S
C27 C26 1.387 . S
C27 C28 1.384 . S
C27 H36 0.930 . S
C28 C25 1.380 . S
C28 C27 1.384 . S
C28 H37 0.931 . S
C29 C25 1.374 . S
C29 C30 1.390 . S
C29 H38 0.930 . S
C30 C26 1.391 . S
C30 C29 1.390 . S
C30 H39 0.930 . S
C31 Eu1 2.825 1_655 S
C31 O16 1.238 . S
C31 O17 1.247 . S
C31 C25 1.507 . S
H32 C5 0.930 . S
H33 C6 0.931 . S
H34 C7 0.930 . S
H35 C8 0.930 . S
H36 C27 0.930 . S
H37 C28 0.931 . S
H38 C29 0.930 . S
H39 C30 0.930 . S
Tb40 C50 2.825 . S
Tb40 O51 2.347 . S
Tb40 O54 2.366 . S
Tb40 O59 2.418 . S
Tb40 O60 2.384 . S
Tb40 O63 2.479 . S
Tb40 O64 2.471 . S
Eu41 O52 2.418 . S
Eu41 O53 2.384 . S
Eu41 O56 2.479 1_545 S
Eu41 O57 2.471 1_545 S
Eu41 O58 2.347 . S
Eu41 O61 2.366 1_545 S
Eu41 C71 2.825 1_545 S
C42 O58 1.259 . S
C42 O59 1.265 . S
C43 O60 1.255 1_565 S
C43 O61 1.265 . S
C44 C46 1.380 . S
C44 C47 1.374 . S
C44 C50 1.507 . S
C45 C46 1.384 . S
C45 C49 1.387 . S
C45 H72 0.930 . S
C46 C44 1.380 . S
C46 C45 1.384 . S
C46 H73 0.931 . S
C47 C44 1.374 . S
C47 C48 1.390 . S
C47 H74 0.930 . S
C48 C47 1.390 . S
C48 C49 1.391 . S
C48 H75 0.930 . S
C49 C45 1.387 . S
C49 C48 1.391 . S
C50 Tb40 2.825 . S
C50 C44 1.507 . S
C50 O63 1.238 . S
C50 O64 1.247 . S
O51 Tb40 2.347 . S
O51 C55 1.259 . S
O52 Eu41 2.418 . S
O52 C55 1.265 . S
O53 Eu41 2.384 . S
O53 C62 1.255 . S
O54 Tb40 2.366 . S
O54 C62 1.265 . S
C55 O51 1.259 . S
C55 O52 1.265 . S
O56 Eu41 2.479 1_565 S
O56 C71 1.238 . S
O57 Eu41 2.471 1_565 S
O57 C71 1.247 . S
O58 Eu41 2.347 . S
O58 C42 1.259 . S
O59 Tb40 2.418 . S
O59 C42 1.265 . S
O60 Tb40 2.384 . S
O60 C43 1.255 1_545 S
O61 Eu41 2.366 1_565 S
O61 C43 1.265 . S
C62 O53 1.255 . S
C62 O54 1.265 . S
O63 Tb40 2.479 . S
O63 C50 1.238 . S
O64 Tb40 2.471 . S
O64 C50 1.247 . S
C65 C68 1.380 . S
C65 C69 1.374 . S
C65 C71 1.507 . S
C66 C67 1.387 . S
C66 C70 1.391 . S
C67 C66 1.387 . S
C67 C68 1.384 . S
C67 H76 0.930 . S
C68 C65 1.380 . S
C68 C67 1.384 . S
C68 H77 0.931 . S
C69 C65 1.374 . S
C69 C70 1.390 . S
C69 H78 0.930 . S
C70 C66 1.391 . S
C70 C69 1.390 . S
C70 H79 0.930 . S
C71 Eu41 2.825 1_565 S
C71 O56 1.238 . S
C71 O57 1.247 . S
C71 C65 1.507 . S
H72 C45 0.930 . S
H73 C46 0.931 . S
H74 C47 0.930 . S
H75 C48 0.930 . S
H76 C67 0.930 . S
H77 C68 0.931 . S
H78 C69 0.930 . S
H79 C70 0.930 . S
Tb80 C90 2.825 . S
Tb80 O91 2.347 . S
Tb80 O94 2.366 . S
Tb80 O99 2.418 . S
Tb80 O100 2.384 . S
Tb80 O103 2.479 . S
Tb80 O104 2.471 . S
Eu81 O92 2.418 . S
Eu81 O93 2.384 . S
Eu81 O96 2.479 . S
Eu81 O97 2.471 . S
Eu81 O98 2.347 . S
Eu81 O101 2.366 . S
Eu81 C111 2.825 . S
C82 O98 1.259 . S
C82 O99 1.265 . S
C83 O100 1.255 . S
C83 O101 1.265 . S
C84 C86 1.380 . S
C84 C87 1.374 . S
C84 C90 1.507 . S
C85 C86 1.384 . S
C85 C89 1.387 . S
C85 H112 0.930 . S
C86 C84 1.380 . S
C86 C85 1.384 . S
C86 H113 0.931 . S
C87 C84 1.374 . S
C87 C88 1.390 . S
C87 H114 0.930 . S
C88 C87 1.390 . S
C88 C89 1.391 . S
C88 H115 0.930 . S
C89 C85 1.387 . S
C89 C88 1.391 . S
C90 Tb80 2.825 . S
C90 C84 1.507 . S
C90 O103 1.238 . S
C90 O104 1.247 . S
O91 Tb80 2.347 . S
O91 C95 1.259 . S
O92 Eu81 2.418 . S
O92 C95 1.265 . S
O93 Eu81 2.384 . S
O93 C102 1.255 . S
O94 Tb80 2.366 . S
O94 C102 1.265 . S
C95 O91 1.259 . S
C95 O92 1.265 . S
O96 Eu81 2.479 . S
O96 C111 1.238 . S
O97 Eu81 2.471 . S
O97 C111 1.247 . S
O98 Eu81 2.347 . S
O98 C82 1.259 . S
O99 Tb80 2.418 . S
O99 C82 1.265 . S
O100 Tb80 2.384 . S
O100 C83 1.255 . S
O101 Eu81 2.366 . S
O101 C83 1.265 . S
C102 O93 1.255 . S
C102 O94 1.265 . S
O103 Tb80 2.479 . S
O103 C90 1.238 . S
O104 Tb80 2.471 . S
O104 C90 1.247 . S
C105 C108 1.380 . S
C105 C109 1.374 . S
C105 C111 1.507 . S
C106 C107 1.387 . S
C106 C110 1.391 . S
C107 C106 1.387 . S
C107 C108 1.384 . S
C107 H116 0.930 . S
C108 C105 1.380 . S
C108 C107 1.384 . S
C108 H117 0.931 . S
C109 C105 1.374 . S
C109 C110 1.390 . S
C109 H118 0.930 . S
C110 C106 1.391 . S
C110 C109 1.390 . S
C110 H119 0.930 . S
C111 Eu81 2.825 . S
C111 O96 1.238 . S
C111 O97 1.247 . S
C111 C105 1.507 . S
H112 C85 0.930 . S
H113 C86 0.931 . S
H114 C87 0.930 . S
H115 C88 0.930 . S
H116 C107 0.930 . S
H117 C108 0.931 . S
H118 C109 0.930 . S
H119 C110 0.930 . S
H120 C125 0.930 . S
H121 C128 0.930 . S
H122 C130 0.930 1_565 S
H123 C124 1.016 . S
C124 H123 1.016 . S
C124 N131 1.286 . S
C125 H120 0.930 . S
C125 C126 1.394 1_545 S
C125 C127 1.361 . S
C126 C125 1.394 1_565 S
C126 C130 1.387 1_565 S
C127 C125 1.361 . S
C127 C128 1.393 . S
C127 N131 1.413 . S
C128 H121 0.930 . S
C128 C127 1.393 . S
C128 C129 1.399 . S
C129 C128 1.399 . S
C129 C130 1.381 . S
C130 H122 0.930 1_545 S
C130 C126 1.387 1_545 S
C130 C129 1.381 . S
N131 C124 1.286 . S
N131 C127 1.413 . S
H132 C137 0.930 . S
H133 C140 0.930 . S
H134 C142 0.930 . S
H135 C136 1.016 . S
C136 H135 1.016 . S
C136 N143 1.286 . S
C137 H132 0.930 . S
C137 C138 1.397 . S
C137 C139 1.361 . S
C138 C137 1.397 . S
C138 C142 1.390 . S
C139 C137 1.361 . S
C139 C140 1.393 . S
C139 N143 1.413 . S
C140 H133 0.930 . S
C140 C139 1.393 . S
C140 C141 1.399 . S
C141 C140 1.399 . S
C141 C142 1.381 . S
C142 H134 0.930 . S
C142 C138 1.390 . S
C142 C141 1.381 . S
N143 C136 1.286 . S
N143 C139 1.413 . S
H144 C149 0.930 . S
H145 C152 0.930 . S
H146 C154 0.930 . S
H147 C148 1.016 . S
C148 H147 1.016 . S
C148 N155 1.286 . S
C149 H144 0.930 . S
C149 C150 1.397 . S
C149 C151 1.361 1_655 S
C150 C149 1.397 . S
C150 C154 1.390 . S
C151 C149 1.361 1_455 S
C151 C152 1.393 . S
C151 N155 1.413 . S
C152 H145 0.930 . S
C152 C151 1.393 . S
C152 C153 1.399 . S
C153 C152 1.399 . S
C153 C154 1.381 1_455 S
C154 H146 0.930 . S
C154 C150 1.390 . S
C154 C153 1.381 1_655 S
N155 C148 1.286 . S
N155 C151 1.413 . S
H156 C161 0.930 . S
H157 C164 0.930 . S
H158 C166 0.930 . S
H159 C160 1.016 . S
C160 H159 1.016 . S
C160 N167 1.286 . S
C161 H156 0.930 . S
C161 C162 1.397 . S
C161 C163 1.361 . S
C162 C161 1.397 . S
C162 C166 1.390 . S
C163 C161 1.361 . S
C163 C164 1.393 1_455 S
C163 N167 1.413 1_455 S
C164 H157 0.930 . S
C164 C163 1.393 1_655 S
C164 C165 1.399 1_655 S
C165 C164 1.399 1_455 S
C165 C166 1.381 . S
C166 H158 0.930 . S
C166 C162 1.390 . S
C166 C165 1.381 . S
N167 C160 1.286 . S
N167 C163 1.413 1_655 S
H168 C173 0.930 . S
H169 C176 0.930 . S
H170 C178 0.930 . S
H171 C172 1.016 . S
C172 H171 1.016 . S
C172 N179 1.286 . S
C173 H168 0.930 . S
C173 C174 1.397 . S
C173 C175 1.361 . S
C174 C173 1.397 . S
C174 C178 1.390 . S
C175 C173 1.361 . S
C175 C176 1.393 1_545 S
C175 N179 1.413 1_545 S
C176 H169 0.930 . S
C176 C175 1.393 1_565 S
C176 C177 1.399 1_565 S
C177 C176 1.399 1_545 S
C177 C178 1.381 . S
C178 H170 0.930 . S
C178 C174 1.390 . S
C178 C177 1.381 . S
N179 C172 1.286 . S
N179 C175 1.413 1_565 S
H180 C185 0.930 . S
H181 C188 0.930 . S
H182 C190 0.930 . S
H183 C184 1.016 . S
C184 H183 1.016 . S
C184 N191 1.286 . S
C185 H180 0.930 . S
C185 C186 1.397 . S
C185 C187 1.361 . S
C186 C185 1.397 . S
C186 C190 1.390 . S
C187 C185 1.361 . S
C187 C188 1.393 . S
C187 N191 1.413 . S
C188 H181 0.930 . S
C188 C187 1.393 . S
C188 C189 1.399 . S
C189 C188 1.399 . S
C189 C190 1.381 . S
C190 H182 0.930 . S
C190 C186 1.390 . S
C190 C189 1.381 . S
N191 C184 1.286 . S
N191 C187 1.413 . S
C192 C193 1.391 . S
C192 C194 1.394 . S
C192 H208 0.931 . S
C193 C192 1.391 . S
C193 C197 1.376 . S
C194 C192 1.394 . S
C194 C195 1.369 . S
C194 C198 1.531 . S
C195 C194 1.369 . S
C195 C196 1.410 . S
C195 C203 1.503 . S
C196 C195 1.410 . S
C196 C197 1.392 . S
C196 C199 1.511 . S
C197 C193 1.376 . S
C197 C196 1.392 . S
C197 H209 0.929 . S
C198 C194 1.531 . S
C198 H210 0.960 . S
C198 H211 0.962 . S
C198 H212 0.960 . S
C199 C196 1.511 . S
C199 H213 0.961 . S
C199 H214 0.961 . S
C199 H215 0.961 . S
C200 C201 1.370 . S
C200 C202 1.363 . S
C200 H216 0.931 . S
C201 C200 1.370 . S
C201 C205 1.408 . S
C202 C200 1.363 . S
C202 C203 1.370 . S
C202 C206 1.524 . S
C203 C195 1.503 . S
C203 C202 1.370 . S
C203 C204 1.403 . S
C204 C203 1.403 . S
C204 C205 1.404 . S
C204 C207 1.539 . S
C205 C201 1.408 . S
C205 C204 1.404 . S
C205 H217 0.930 . S
C206 C202 1.524 . S
C206 H218 0.956 . S
C206 H219 0.961 . S
C206 H220 0.961 . S
C207 C204 1.539 . S
C207 H221 0.958 . S
C207 H222 0.961 . S
C207 H223 0.960 . S
H208 C192 0.931 . S
H209 C197 0.929 . S
H210 C198 0.960 . S
H211 C198 0.962 . S
H212 C198 0.960 . S
H213 C199 0.961 . S
H214 C199 0.961 . S
H215 C199 0.961 . S
H216 C200 0.931 . S
H217 C205 0.930 . S
H218 C206 0.956 . S
H219 C206 0.961 . S
H220 C206 0.961 . S
H221 C207 0.958 . S
H222 C207 0.961 . S
H223 C207 0.960 . S
C224 C225 1.391 . S
C224 C226 1.394 . S
C224 H240 0.931 . S
C225 C224 1.391 . S
C225 C229 1.376 . S
C226 C224 1.394 . S
C226 C227 1.369 . S
C226 C230 1.531 . S
C227 C226 1.369 . S
C227 C228 1.410 . S
C227 C235 1.503 . S
C228 C227 1.410 . S
C228 C229 1.392 . S
C228 C231 1.511 . S
C229 C225 1.376 . S
C229 C228 1.392 . S
C229 H241 0.929 . S
C230 C226 1.531 . S
C230 H242 0.960 . S
C230 H243 0.962 . S
C230 H244 0.960 . S
C231 C228 1.511 . S
C231 H245 0.961 . S
C231 H246 0.961 . S
C231 H247 0.961 . S
C232 C233 1.370 . S
C232 C234 1.363 . S
C232 H248 0.931 . S
C233 C232 1.370 . S
C233 C237 1.408 . S
C234 C232 1.363 . S
C234 C235 1.370 . S
C234 C238 1.524 . S
C235 C227 1.503 . S
C235 C234 1.370 . S
C235 C236 1.403 . S
C236 C235 1.403 . S
C236 C237 1.404 . S
C236 C239 1.539 . S
C237 C233 1.408 . S
C237 C236 1.404 . S
C237 H249 0.930 . S
C238 C234 1.524 . S
C238 H250 0.956 . S
C238 H251 0.961 . S
C238 H252 0.961 . S
C239 C236 1.539 . S
C239 H253 0.958 . S
C239 H254 0.961 . S
C239 H255 0.960 . S
H240 C224 0.931 . S
H241 C229 0.929 . S
H242 C230 0.960 . S
H243 C230 0.962 . S
H244 C230 0.960 . S
H245 C231 0.961 . S
H246 C231 0.961 . S
H247 C231 0.961 . S
H248 C232 0.931 . S
H249 C237 0.930 . S
H250 C238 0.956 . S
H251 C238 0.961 . S
H252 C238 0.961 . S
H253 C239 0.958 . S
H254 C239 0.961 . S
H255 C239 0.960 . S
C256 C257 1.391 . S
C256 C258 1.394 . S
C256 H272 0.931 . S
C257 C256 1.391 . S
C257 C261 1.376 . S
C258 C256 1.394 . S
C258 C259 1.369 . S
C258 C262 1.531 . S
C259 C258 1.369 . S
C259 C260 1.410 . S
C259 C267 1.503 . S
C260 C259 1.410 . S
C260 C261 1.392 . S
C260 C263 1.511 . S
C261 C257 1.376 . S
C261 C260 1.392 . S
C261 H273 0.929 . S
C262 C258 1.531 . S
C262 H274 0.960 . S
C262 H275 0.962 . S
C262 H276 0.960 . S
C263 C260 1.511 . S
C263 H277 0.961 . S
C263 H278 0.961 . S
C263 H279 0.961 . S
C264 C265 1.370 . S
C264 C266 1.363 . S
C264 H280 0.931 . S
C265 C264 1.370 . S
C265 C269 1.408 . S
C266 C264 1.363 . S
C266 C267 1.370 . S
C266 C270 1.524 . S
C267 C259 1.503 . S
C267 C266 1.370 . S
C267 C268 1.403 . S
C268 C267 1.403 . S
C268 C269 1.404 . S
C268 C271 1.539 . S
C269 C265 1.408 . S
C269 C268 1.404 . S
C269 H281 0.930 . S
C270 C266 1.524 . S
C270 H282 0.956 . S
C270 H283 0.961 . S
C270 H284 0.961 . S
C271 C268 1.539 . S
C271 H285 0.958 . S
C271 H286 0.961 . S
C271 H287 0.960 . S
H272 C256 0.931 . S
H273 C261 0.929 . S
H274 C262 0.960 . S
H275 C262 0.962 . S
H276 C262 0.960 . S
H277 C263 0.961 . S
H278 C263 0.961 . S
H279 C263 0.961 . S
H280 C264 0.931 . S
H281 C269 0.930 . S
H282 C270 0.956 . S
H283 C270 0.961 . S
H284 C270 0.961 . S
H285 C271 0.958 . S
H286 C271 0.961 . S
H287 C271 0.960 . S
C288 C289 1.391 . S
C288 C290 1.394 . S
C288 H304 0.931 . S
C289 C288 1.391 . S
C289 C293 1.376 . S
C290 C288 1.394 . S
C290 C291 1.369 . S
C290 C294 1.531 . S
C291 C290 1.369 . S
C291 C292 1.410 . S
C291 C299 1.503 . S
C292 C291 1.410 . S
C292 C293 1.392 . S
C292 C295 1.511 . S
C293 C289 1.376 . S
C293 C292 1.392 . S
C293 H305 0.929 . S
C294 C290 1.531 . S
C294 H306 0.960 . S
C294 H307 0.962 . S
C294 H308 0.960 . S
C295 C292 1.511 . S
C295 H309 0.961 . S
C295 H310 0.961 . S
C295 H311 0.961 . S
C296 C297 1.370 . S
C296 C298 1.363 . S
C296 H312 0.931 . S
C297 C296 1.370 . S
C297 C301 1.408 . S
C298 C296 1.363 . S
C298 C299 1.370 . S
C298 C302 1.524 . S
C299 C291 1.503 . S
C299 C298 1.370 . S
C299 C300 1.403 . S
C300 C299 1.403 . S
C300 C301 1.404 . S
C300 C303 1.539 . S
C301 C297 1.408 . S
C301 C300 1.404 . S
C301 H313 0.930 . S
C302 C298 1.524 . S
C302 H314 0.956 . S
C302 H315 0.961 . S
C302 H316 0.961 . S
C303 C300 1.539 . S
C303 H317 0.958 . S
C303 H318 0.961 . S
C303 H319 0.960 . S
H304 C288 0.931 . S
H305 C293 0.929 . S
H306 C294 0.960 . S
H307 C294 0.962 . S
H308 C294 0.960 . S
H309 C295 0.961 . S
H310 C295 0.961 . S
H311 C295 0.961 . S
H312 C296 0.931 . S
H313 C301 0.930 . S
H314 C302 0.956 . S
H315 C302 0.961 . S
H316 C302 0.961 . S
H317 C303 0.958 . S
H318 C303 0.961 . S
H319 C303 0.960 . S
C320 C321 1.391 . S
C320 C322 1.394 . S
C320 H336 0.931 . S
C321 C320 1.391 . S
C321 C325 1.376 . S
C322 C320 1.394 . S
C322 C323 1.369 . S
C322 C326 1.531 . S
C323 C322 1.369 . S
C323 C324 1.410 . S
C323 C331 1.503 . S
C324 C323 1.410 . S
C324 C325 1.392 . S
C324 C327 1.511 . S
C325 C321 1.376 . S
C325 C324 1.392 . S
C325 H337 0.929 . S
C326 C322 1.531 . S
C326 H338 0.960 . S
C326 H339 0.962 . S
C326 H340 0.960 . S
C327 C324 1.511 . S
C327 H341 0.961 . S
C327 H342 0.961 . S
C327 H343 0.961 . S
C328 C329 1.370 . S
C328 C330 1.363 . S
C328 H344 0.931 . S
C329 C328 1.370 . S
C329 C333 1.408 . S
C330 C328 1.363 . S
C330 C331 1.370 . S
C330 C334 1.524 . S
C331 C323 1.503 . S
C331 C330 1.370 . S
C331 C332 1.403 . S
C332 C331 1.403 . S
C332 C333 1.404 . S
C332 C335 1.539 . S
C333 C329 1.408 . S
C333 C332 1.404 . S
C333 H345 0.930 . S
C334 C330 1.524 . S
C334 H346 0.956 . S
C334 H347 0.961 . S
C334 H348 0.961 . S
C335 C332 1.539 . S
C335 H349 0.958 . S
C335 H350 0.961 . S
C335 H351 0.960 . S
H336 C320 0.931 . S
H337 C325 0.929 . S
H338 C326 0.960 . S
H339 C326 0.962 . S
H340 C326 0.960 . S
H341 C327 0.961 . S
H342 C327 0.961 . S
H343 C327 0.961 . S
H344 C328 0.931 . S
H345 C333 0.930 . S
H346 C334 0.956 . S
H347 C334 0.961 . S
H348 C334 0.961 . S
H349 C335 0.958 . S
H350 C335 0.961 . S
H351 C335 0.960 . S
C352 C353 1.391 . S
C352 C354 1.394 . S
C352 H368 0.931 . S
C353 C352 1.391 . S
C353 C357 1.376 . S
C354 C352 1.394 . S
C354 C355 1.369 . S
C354 C358 1.531 . S
C355 C354 1.369 . S
C355 C356 1.410 . S
C355 C363 1.503 . S
C356 C355 1.410 . S
C356 C357 1.392 . S
C356 C359 1.511 . S
C357 C353 1.376 . S
C357 C356 1.392 . S
C357 H369 0.929 . S
C358 C354 1.531 . S
C358 H370 0.960 . S
C358 H371 0.962 . S
C358 H372 0.960 . S
C359 C356 1.511 . S
C359 H373 0.961 . S
C359 H374 0.961 . S
C359 H375 0.961 . S
C360 C361 1.370 . S
C360 C362 1.363 . S
C360 H376 0.931 . S
C361 C360 1.370 . S
C361 C365 1.408 . S
C362 C360 1.363 . S
C362 C363 1.370 . S
C362 C366 1.524 . S
C363 C355 1.503 . S
C363 C362 1.370 . S
C363 C364 1.403 . S
C364 C363 1.403 . S
C364 C365 1.404 . S
C364 C367 1.539 . S
C365 C361 1.408 . S
C365 C364 1.404 . S
C365 H377 0.930 . S
C366 C362 1.524 . S
C366 H378 0.956 . S
C366 H379 0.961 . S
C366 H380 0.961 . S
C367 C364 1.539 . S
C367 H381 0.958 . S
C367 H382 0.961 . S
C367 H383 0.960 . S
H368 C352 0.931 . S
H369 C357 0.929 . S
H370 C358 0.960 . S
H371 C358 0.962 . S
H372 C358 0.960 . S
H373 C359 0.961 . S
H374 C359 0.961 . S
H375 C359 0.961 . S
H376 C360 0.931 . S
H377 C365 0.930 . S
H378 C366 0.956 . S
H379 C366 0.961 . S
H380 C366 0.961 . S
H381 C367 0.958 . S
H382 C367 0.961 . S
H383 C367 0.960 . S
C384 C385 1.391 . S
C384 C386 1.394 . S
C384 H400 0.931 . S
C385 C384 1.391 . S
C385 C389 1.376 . S
C386 C384 1.394 . S
C386 C387 1.369 . S
C386 C390 1.531 . S
C387 C386 1.369 . S
C387 C388 1.410 . S
C387 C395 1.503 . S
C388 C387 1.410 . S
C388 C389 1.392 . S
C388 C391 1.511 . S
C389 C385 1.376 . S
C389 C388 1.392 . S
C389 H401 0.929 . S
C390 C386 1.531 . S
C390 H402 0.960 . S
C390 H403 0.962 . S
C390 H404 0.960 . S
C391 C388 1.511 . S
C391 H405 0.961 . S
C391 H406 0.961 . S
C391 H407 0.961 . S
C392 C393 1.370 . S
C392 C394 1.363 . S
C392 H408 0.931 . S
C393 C392 1.370 . S
C393 C397 1.408 . S
C394 C392 1.363 . S
C394 C395 1.370 . S
C394 C398 1.524 . S
C395 C387 1.503 . S
C395 C394 1.370 . S
C395 C396 1.403 . S
C396 C395 1.403 . S
C396 C397 1.404 . S
C396 C399 1.539 . S
C397 C393 1.408 . S
C397 C396 1.404 . S
C397 H409 0.930 . S
C398 C394 1.524 . S
C398 H410 0.956 . S
C398 H411 0.961 . S
C398 H412 0.961 . S
C399 C396 1.539 . S
C399 H413 0.958 . S
C399 H414 0.961 . S
C399 H415 0.960 . S
H400 C384 0.931 . S
H401 C389 0.929 . S
H402 C390 0.960 . S
H403 C390 0.962 . S
H404 C390 0.960 . S
H405 C391 0.961 . S
H406 C391 0.961 . S
H407 C391 0.961 . S
H408 C392 0.931 . S
H409 C397 0.930 . S
H410 C398 0.956 . S
H411 C398 0.961 . S
H412 C398 0.961 . S
H413 C399 0.958 . S
H414 C399 0.961 . S
H415 C399 0.960 . S
C416 C417 1.391 . S
C416 C418 1.394 . S
C416 H432 0.931 . S
C417 C416 1.391 . S
C417 C421 1.376 . S
C418 C416 1.394 . S
C418 C419 1.369 . S
C418 C422 1.531 . S
C419 C418 1.369 . S
C419 C420 1.410 . S
C419 C427 1.503 . S
C420 C419 1.410 . S
C420 C421 1.392 . S
C420 C423 1.511 . S
C421 C417 1.376 . S
C421 C420 1.392 . S
C421 H433 0.929 . S
C422 C418 1.531 . S
C422 H434 0.960 . S
C422 H435 0.962 . S
C422 H436 0.960 . S
C423 C420 1.511 . S
C423 H437 0.961 . S
C423 H438 0.961 . S
C423 H439 0.961 . S
C424 C425 1.370 . S
C424 C426 1.363 . S
C424 H440 0.931 . S
C425 C424 1.370 . S
C425 C429 1.408 . S
C426 C424 1.363 . S
C426 C427 1.370 . S
C426 C430 1.524 . S
C427 C419 1.503 . S
C427 C426 1.370 . S
C427 C428 1.403 . S
C428 C427 1.403 . S
C428 C429 1.404 . S
C428 C431 1.539 . S
C429 C425 1.408 . S
C429 C428 1.404 . S
C429 H441 0.930 . S
C430 C426 1.524 . S
C430 H442 0.956 . S
C430 H443 0.961 . S
C430 H444 0.961 . S
C431 C428 1.539 . S
C431 H445 0.958 . S
C431 H446 0.961 . S
C431 H447 0.960 . S
H432 C416 0.931 . S
H433 C421 0.929 . S
H434 C422 0.960 . S
H435 C422 0.962 . S
H436 C422 0.960 . S
H437 C423 0.961 . S
H438 C423 0.961 . S
H439 C423 0.961 . S
H440 C424 0.931 . S
H441 C429 0.930 . S
H442 C430 0.956 . S
H443 C430 0.961 . S
H444 C430 0.961 . S
H445 C431 0.958 . S
H446 C431 0.961 . S
H447 C431 0.960 . S
C448 C449 1.391 . S
C448 C450 1.394 . S
C448 H464 0.931 . S
C449 C448 1.391 . S
C449 C453 1.376 . S
C450 C448 1.394 . S
C450 C451 1.369 . S
C450 C454 1.531 . S
C451 C450 1.369 . S
C451 C452 1.410 . S
C451 C459 1.503 . S
C452 C451 1.410 . S
C452 C453 1.392 . S
C452 C455 1.511 . S
C453 C449 1.376 . S
C453 C452 1.392 . S
C453 H465 0.929 . S
C454 C450 1.531 . S
C454 H466 0.960 . S
C454 H467 0.962 . S
C454 H468 0.960 . S
C455 C452 1.511 . S
C455 H469 0.961 . S
C455 H470 0.961 . S
C455 H471 0.961 . S
C456 C457 1.370 . S
C456 C458 1.363 . S
C456 H472 0.931 . S
C457 C456 1.370 . S
C457 C461 1.408 . S
C458 C456 1.363 . S
C458 C459 1.370 . S
C458 C462 1.524 . S
C459 C451 1.503 . S
C459 C458 1.370 . S
C459 C460 1.403 . S
C460 C459 1.403 . S
C460 C461 1.404 . S
C460 C463 1.539 . S
C461 C457 1.408 . S
C461 C460 1.404 . S
C461 H473 0.930 . S
C462 C458 1.524 . S
C462 H474 0.956 . S
C462 H475 0.961 . S
C462 H476 0.961 . S
C463 C460 1.539 . S
C463 H477 0.958 . S
C463 H478 0.961 . S
C463 H479 0.960 . S
H464 C448 0.931 . S
H465 C453 0.929 . S
H466 C454 0.960 . S
H467 C454 0.962 . S
H468 C454 0.960 . S
H469 C455 0.961 . S
H470 C455 0.961 . S
H471 C455 0.961 . S
H472 C456 0.931 . S
H473 C461 0.930 . S
H474 C462 0.956 . S
H475 C462 0.961 . S
H476 C462 0.961 . S
H477 C463 0.958 . S
H478 C463 0.961 . S
H479 C463 0.960 . S
C480 C481 1.391 . S
C480 C482 1.394 . S
C480 H496 0.931 . S
C481 C480 1.391 . S
C481 C485 1.376 . S
C482 C480 1.394 . S
C482 C483 1.369 . S
C482 C486 1.531 . S
C483 C482 1.369 . S
C483 C484 1.410 . S
C483 C491 1.503 . S
C484 C483 1.410 . S
C484 C485 1.392 . S
C484 C487 1.511 . S
C485 C481 1.376 . S
C485 C484 1.392 . S
C485 H497 0.929 . S
C486 C482 1.531 . S
C486 H498 0.960 . S
C486 H499 0.962 . S
C486 H500 0.960 . S
C487 C484 1.511 . S
C487 H501 0.961 . S
C487 H502 0.961 . S
C487 H503 0.961 . S
C488 C489 1.370 . S
C488 C490 1.363 . S
C488 H504 0.931 . S
C489 C488 1.370 . S
C489 C493 1.408 . S
C490 C488 1.363 . S
C490 C491 1.370 . S
C490 C494 1.524 . S
C491 C483 1.503 . S
C491 C490 1.370 . S
C491 C492 1.403 . S
C492 C491 1.403 . S
C492 C493 1.404 . S
C492 C495 1.539 . S
C493 C489 1.408 . S
C493 C492 1.404 . S
C493 H505 0.930 . S
C494 C490 1.524 . S
C494 H506 0.956 . S
C494 H507 0.961 . S
C494 H508 0.961 . S
C495 C492 1.539 . S
C495 H509 0.958 . S
C495 H510 0.961 . S
C495 H511 0.960 . S
H496 C480 0.931 . S
H497 C485 0.929 . S
H498 C486 0.960 . S
H499 C486 0.962 . S
H500 C486 0.960 . S
H501 C487 0.961 . S
H502 C487 0.961 . S
H503 C487 0.961 . S
H504 C488 0.931 . S
H505 C493 0.930 . S
H506 C494 0.956 . S
H507 C494 0.961 . S
H508 C494 0.961 . S
H509 C495 0.958 . S
H510 C495 0.961 . S
H511 C495 0.960 . S
C512 C513 1.391 . S
C512 C514 1.394 . S
C512 H528 0.931 . S
C513 C512 1.391 . S
C513 C517 1.376 . S
C514 C512 1.394 . S
C514 C515 1.369 . S
C514 C518 1.531 . S
C515 C514 1.369 . S
C515 C516 1.410 . S
C515 C523 1.503 . S
C516 C515 1.410 . S
C516 C517 1.392 . S
C516 C519 1.511 . S
C517 C513 1.376 . S
C517 C516 1.392 . S
C517 H529 0.929 . S
C518 C514 1.531 . S
C518 H530 0.960 . S
C518 H531 0.962 . S
C518 H532 0.960 . S
C519 C516 1.511 . S
C519 H533 0.961 . S
C519 H534 0.961 . S
C519 H535 0.961 . S
C520 C521 1.370 . S
C520 C522 1.363 . S
C520 H536 0.931 . S
C521 C520 1.370 . S
C521 C525 1.408 . S
C522 C520 1.363 . S
C522 C523 1.370 . S
C522 C526 1.524 . S
C523 C515 1.503 . S
C523 C522 1.370 . S
C523 C524 1.403 . S
C524 C523 1.403 . S
C524 C525 1.404 . S
C524 C527 1.539 . S
C525 C521 1.408 . S
C525 C524 1.404 . S
C525 H537 0.930 . S
C526 C522 1.524 . S
C526 H538 0.956 . S
C526 H539 0.961 . S
C526 H540 0.961 . S
C527 C524 1.539 . S
C527 H541 0.958 . S
C527 H542 0.961 . S
C527 H543 0.960 . S
H528 C512 0.931 . S
H529 C517 0.929 . S
H530 C518 0.960 . S
H531 C518 0.962 . S
H532 C518 0.960 . S
H533 C519 0.961 . S
H534 C519 0.961 . S
H535 C519 0.961 . S
H536 C520 0.931 . S
H537 C525 0.930 . S
H538 C526 0.956 . S
H539 C526 0.961 . S
H540 C526 0.961 . S
H541 C527 0.958 . S
H542 C527 0.961 . S
H543 C527 0.960 . S
C544 C545 1.391 . S
C544 C546 1.394 . S
C544 H560 0.931 . S
C545 C544 1.391 . S
C545 C549 1.376 . S
C546 C544 1.394 . S
C546 C547 1.369 . S
C546 C550 1.531 . S
C547 C546 1.369 . S
C547 C548 1.410 . S
C547 C555 1.503 . S
C548 C547 1.410 . S
C548 C549 1.392 . S
C548 C551 1.511 . S
C549 C545 1.376 . S
C549 C548 1.392 . S
C549 H561 0.929 . S
C550 C546 1.531 . S
C550 H562 0.960 . S
C550 H563 0.962 . S
C550 H564 0.960 . S
C551 C548 1.511 . S
C551 H565 0.961 . S
C551 H566 0.961 . S
C551 H567 0.961 . S
C552 C553 1.370 . S
C552 C554 1.363 . S
C552 H568 0.931 . S
C553 C552 1.370 . S
C553 C557 1.408 . S
C554 C552 1.363 . S
C554 C555 1.370 . S
C554 C558 1.524 . S
C555 C547 1.503 . S
C555 C554 1.370 . S
C555 C556 1.403 . S
C556 C555 1.403 . S
C556 C557 1.404 . S
C556 C559 1.539 . S
C557 C553 1.408 . S
C557 C556 1.404 . S
C557 H569 0.930 . S
C558 C554 1.524 . S
C558 H570 0.956 . S
C558 H571 0.961 . S
C558 H572 0.961 . S
C559 C556 1.539 . S
C559 H573 0.958 . S
C559 H574 0.961 . S
C559 H575 0.960 . S
H560 C544 0.931 . S
H561 C549 0.929 . S
H562 C550 0.960 . S
H563 C550 0.962 . S
H564 C550 0.960 . S
H565 C551 0.961 . S
H566 C551 0.961 . S
H567 C551 0.961 . S
H568 C552 0.931 . S
H569 C557 0.930 . S
H570 C558 0.956 . S
H571 C558 0.961 . S
H572 C558 0.961 . S
H573 C559 0.958 . S
H574 C559 0.961 . S
H575 C559 0.960 . S
C576 C577 1.391 . S
C576 C578 1.394 . S
C576 H592 0.931 . S
C577 C576 1.391 . S
C577 C581 1.376 . S
C578 C576 1.394 . S
C578 C579 1.369 . S
C578 C582 1.531 . S
C579 C578 1.369 . S
C579 C580 1.410 . S
C579 C587 1.503 1_554 S
C580 C579 1.410 . S
C580 C581 1.392 . S
C580 C583 1.511 . S
C581 C577 1.376 . S
C581 C580 1.392 . S
C581 H593 0.929 . S
C582 C578 1.531 . S
C582 H594 0.960 1_455 S
C582 H595 0.962 . S
C582 H596 0.960 1_455 S
C583 C580 1.511 . S
C583 H597 0.961 . S
C583 H598 0.961 . S
C583 H599 0.961 . S
C584 C585 1.370 . S
C584 C586 1.363 . S
C584 H600 0.931 . S
C585 C584 1.370 . S
C585 C589 1.408 1_455 S
C586 C584 1.363 . S
C586 C587 1.370 . S
C586 C590 1.539 . S
C587 C579 1.503 1_556 S
C587 C586 1.370 . S
C587 C588 1.403 1_455 S
C588 C587 1.403 1_655 S
C588 C589 1.404 . S
C588 C591 1.539 . S
C589 C585 1.408 1_655 S
C589 C588 1.404 . S
C589 H601 0.930 . S
C590 C586 1.539 . S
C590 H602 0.939 1_556 S
C590 H603 0.940 1_556 S
C590 H604 0.985 . S
C591 C588 1.539 . S
C591 H605 0.963 . S
C591 H606 0.961 . S
C591 H607 0.960 1_556 S
H592 C576 0.931 . S
H593 C581 0.929 . S
H594 C582 0.960 1_655 S
H595 C582 0.962 . S
H596 C582 0.960 1_655 S
H597 C583 0.961 . S
H598 C583 0.961 . S
H599 C583 0.961 . S
H600 C584 0.931 . S
H601 C589 0.930 . S
H602 C590 0.939 1_554 S
H603 C590 0.940 1_554 S
H604 C590 0.985 . S
H605 C591 0.963 . S
H606 C591 0.961 . S
H607 C591 0.960 1_554 S
C608 C609 1.391 . S
C608 C610 1.394 . S
C608 H624 0.931 . S
C609 C608 1.391 . S
C609 C613 1.376 . S
C610 C608 1.394 . S
C610 C611 1.369 . S
C610 C614 1.531 . S
C611 C610 1.369 . S
C611 C612 1.410 . S
C611 C619 1.503 . S
C612 C611 1.410 . S
C612 C613 1.392 . S
C612 C615 1.511 . S
C613 C609 1.376 . S
C613 C612 1.392 . S
C613 H625 0.929 . S
C614 C610 1.531 . S
C614 H626 0.960 . S
C614 H627 0.962 . S
C614 H628 0.960 . S
C615 C612 1.511 . S
C615 H629 0.961 1_545 S
C615 H630 0.961 . S
C615 H631 0.961 . S
C616 C617 1.370 . S
C616 C618 1.363 . S
C616 H632 0.931 1_545 S
C617 C616 1.370 . S
C617 C621 1.408 . S
C618 C616 1.363 . S
C618 C619 1.370 . S
C618 C622 1.524 1_545 S
C619 C611 1.503 . S
C619 C618 1.370 . S
C619 C620 1.403 . S
C620 C619 1.403 . S
C620 C621 1.404 . S
C620 C623 1.539 . S
C621 C617 1.408 . S
C621 C620 1.404 . S
C621 H633 0.930 . S
C622 C618 1.524 1_565 S
C622 H634 0.951 1_565 S
C622 H635 0.961 . S
C622 H636 0.961 . S
C623 C620 1.539 . S
C623 H637 0.958 . S
C623 H638 0.961 . S
C623 H639 0.960 . S
H624 C608 0.931 . S
H625 C613 0.929 . S
H626 C614 0.960 . S
H627 C614 0.962 . S
H628 C614 0.960 . S
H629 C615 0.961 1_565 S
H630 C615 0.961 . S
H631 C615 0.961 . S
H632 C616 0.931 1_565 S
H633 C621 0.930 . S
H634 C622 0.951 1_545 S
H635 C622 0.961 . S
H636 C622 0.961 . S
H637 C623 0.958 . S
H638 C623 0.961 . S
H639 C623 0.960 . S
C640 C641 1.391 . S
C640 C642 1.394 . S
C640 H656 0.931 . S
C641 C640 1.391 . S
C641 C645 1.376 . S
C642 C640 1.394 . S
C642 C643 1.369 . S
C642 C646 1.531 . S
C643 C642 1.369 . S
C643 C644 1.410 . S
C643 C651 1.503 . S
C644 C643 1.410 . S
C644 C645 1.392 . S
C644 C647 1.511 . S
C645 C641 1.376 . S
C645 C644 1.392 . S
C645 H657 0.929 . S
C646 C642 1.531 . S
C646 H658 0.960 . S
C646 H659 0.962 . S
C646 H660 0.960 . S
C647 C644 1.511 . S
C647 H661 0.961 . S
C647 H662 0.961 . S
C647 H663 0.961 . S
C648 C649 1.370 . S
C648 C650 1.363 . S
C648 H664 0.931 . S
C649 C648 1.370 . S
C649 C653 1.408 . S
C650 C648 1.363 . S
C650 C651 1.370 . S
C650 C654 1.524 . S
C651 C643 1.503 . S
C651 C650 1.370 . S
C651 C652 1.403 . S
C652 C651 1.403 . S
C652 C653 1.404 . S
C652 C655 1.539 . S
C653 C649 1.408 . S
C653 C652 1.404 . S
C653 H665 0.930 . S
C654 C650 1.524 . S
C654 H666 0.956 . S
C654 H667 0.961 . S
C654 H668 0.961 . S
C655 C652 1.539 . S
C655 H669 0.958 . S
C655 H670 0.961 . S
C655 H671 0.960 . S
H656 C640 0.931 . S
H657 C645 0.929 . S
H658 C646 0.960 . S
H659 C646 0.962 . S
H660 C646 0.960 . S
H661 C647 0.961 . S
H662 C647 0.961 . S
H663 C647 0.961 . S
H664 C648 0.931 . S
H665 C653 0.930 . S
H666 C654 0.956 . S
H667 C654 0.961 . S
H668 C654 0.961 . S
H669 C655 0.958 . S
H670 C655 0.961 . S
H671 C655 0.960 . S
C672 C673 1.391 . S
C672 C674 1.394 . S
C672 H688 0.931 . S
C673 C672 1.391 . S
C673 C677 1.376 . S
C674 C672 1.394 . S
C674 C675 1.369 . S
C674 C678 1.531 1_545 S
C675 C674 1.369 . S
C675 C676 1.410 . S
C675 C683 1.503 . S
C676 C675 1.410 . S
C676 C677 1.392 . S
C676 C679 1.511 . S
C677 C673 1.376 . S
C677 C676 1.392 . S
C677 H689 0.929 . S
C678 C674 1.531 1_565 S
C678 H690 0.960 . S
C678 H691 0.962 1_565 S
C678 H692 0.960 . S
C679 C676 1.511 . S
C679 H693 0.961 . S
C679 H694 0.961 . S
C679 H695 0.961 . S
C680 C681 1.370 . S
C680 C682 1.363 . S
C680 H696 0.931 . S
C681 C680 1.370 . S
C681 C685 1.408 1_545 S
C682 C680 1.363 . S
C682 C683 1.370 . S
C682 C686 1.524 . S
C683 C675 1.503 . S
C683 C682 1.370 . S
C683 C684 1.403 1_545 S
C684 C683 1.403 1_565 S
C684 C685 1.404 . S
C684 C687 1.539 . S
C685 C681 1.408 1_565 S
C685 C684 1.404 . S
C685 H697 0.930 . S
C686 C682 1.524 . S
C686 H698 0.956 . S
C686 H699 0.961 . S
C686 H700 0.961 . S
C687 C684 1.539 . S
C687 H701 0.958 . S
C687 H702 0.961 . S
C687 H703 0.960 . S
H688 C672 0.931 . S
H689 C677 0.929 . S
H690 C678 0.960 . S
H691 C678 0.962 1_545 S
H692 C678 0.960 . S
H693 C679 0.961 . S
H694 C679 0.961 . S
H695 C679 0.961 . S
H696 C680 0.931 . S
H697 C685 0.930 . S
H698 C686 0.956 . S
H699 C686 0.961 . S
H700 C686 0.961 . S
H701 C687 0.958 . S
H702 C687 0.961 . S
H703 C687 0.960 . S
C704 C705 1.391 . S
C704 C706 1.394 . S
C704 H720 0.931 . S
C705 C704 1.391 . S
C705 C709 1.376 . S
C706 C704 1.394 . S
C706 C707 1.369 . S
C706 C710 1.531 . S
C707 C706 1.369 . S
C707 C708 1.410 . S
C707 C715 1.503 . S
C708 C707 1.410 . S
C708 C709 1.392 . S
C708 C711 1.511 . S
C709 C705 1.376 . S
C709 C708 1.392 . S
C709 H721 0.929 . S
C710 C706 1.531 . S
C710 H722 0.960 . S
C710 H723 0.962 . S
C710 H724 0.960 . S
C711 C708 1.511 . S
C711 H725 0.961 . S
C711 H726 0.961 . S
C711 H727 0.961 . S
C712 C713 1.370 . S
C712 C714 1.363 . S
C712 H728 0.931 . S
C713 C712 1.370 . S
C713 C717 1.408 . S
C714 C712 1.363 . S
C714 C715 1.370 1_554 S
C714 C718 1.524 1_554 S
C715 C707 1.503 . S
C715 C714 1.370 1_556 S
C715 C716 1.403 1_556 S
C716 C715 1.403 1_554 S
C716 C717 1.404 . S
C716 C719 1.539 . S
C717 C713 1.408 . S
C717 C716 1.404 . S
C717 H729 0.930 . S
C718 C714 1.524 1_556 S
C718 H730 0.956 . S
C718 H731 0.961 . S
C718 H732 0.961 . S
C719 C716 1.539 . S
C719 H733 0.958 . S
C719 H734 0.961 . S
C719 H735 0.960 1_554 S
H720 C704 0.931 . S
H721 C709 0.929 . S
H722 C710 0.960 . S
H723 C710 0.962 . S
H724 C710 0.960 . S
H725 C711 0.961 . S
H726 C711 0.961 . S
H727 C711 0.961 . S
H728 C712 0.931 . S
H729 C717 0.930 . S
H730 C718 0.956 . S
H731 C718 0.961 . S
H732 C718 0.961 . S
H733 C719 0.958 . S
H734 C719 0.961 . S
H735 C719 0.960 1_556 S
C736 C737 1.391 . S
C736 C738 1.394 . S
C736 H752 0.931 . S
C737 C736 1.391 . S
C737 C741 1.376 . S
C738 C736 1.394 . S
C738 C739 1.369 . S
C738 C742 1.531 . S
C739 C738 1.369 . S
C739 C740 1.410 . S
C739 C747 1.503 . S
C740 C739 1.410 . S
C740 C741 1.392 . S
C740 C743 1.511 . S
C741 C737 1.376 . S
C741 C740 1.392 . S
C741 H753 0.929 . S
C742 C738 1.531 . S
C742 H754 0.960 . S
C742 H755 0.962 . S
C742 H756 0.960 . S
C743 C740 1.511 . S
C743 H757 0.961 . S
C743 H758 0.961 . S
C743 H759 0.961 . S
C744 C745 1.370 1_655 S
C744 C746 1.363 1_655 S
C744 H760 0.931 . S
C745 C744 1.370 1_455 S
C745 C749 1.408 . S
C746 C744 1.363 1_455 S
C746 C747 1.370 . S
C746 C750 1.524 1_455 S
C747 C739 1.503 . S
C747 C746 1.370 . S
C747 C748 1.403 . S
C748 C747 1.403 . S
C748 C749 1.404 . S
C748 C751 1.539 . S
C749 C745 1.408 . S
C749 C748 1.404 . S
C749 H761 0.930 . S
C750 C746 1.524 1_655 S
C750 H762 0.956 . S
C750 H763 0.961 . S
C750 H764 0.961 . S
C751 C748 1.539 . S
C751 H765 0.958 . S
C751 H766 0.961 . S
C751 H767 0.960 . S
H752 C736 0.931 . S
H753 C741 0.929 . S
H754 C742 0.960 . S
H755 C742 0.962 . S
H756 C742 0.960 . S
H757 C743 0.961 . S
H758 C743 0.961 . S
H759 C743 0.961 . S
H760 C744 0.931 . S
H761 C749 0.930 . S
H762 C750 0.956 . S
H763 C750 0.961 . S
H764 C750 0.961 . S
H765 C751 0.958 . S
H766 C751 0.961 . S
H767 C751 0.960 . S
C193 C9 0.773 . S
C201 C186 0.685 . S
C225 C49 0.511 . S
C233 C160 0.422 . S
C257 C89 0.443 . S
C265 C172 0.366 . S
C289 C26 0.209 . S
C297 C184 0.236 . S
C329 C162 0.222 . S
C321 C66 0.460 . S
C361 C174 0.264 . S
C353 C106 0.410 . S
C385 C43 3.041 . S
C393 C136 2.969 . S
C417 C83 3.315 . S
C425 C150 3.301 . S
C449 C22 3.030 . S
C457 C126 2.994 . S
C489 C138 2.989 . S
C481 C62 3.030 . S
C521 C148 2.662 . S
C513 C102 2.774 . S
C545 C3 3.031 . S
C553 C124 2.959 . S
C585 C153 1.777 . S
C577 C15 1.683 . S
C609 C55 1.756 . S
C617 C129 1.765 . S
C641 C95 1.705 . S
C649 C141 1.742 . S
C681 C177 1.242 . S
C673 C42 1.186 . S
C713 C189 1.245 . S
C705 C82 1.191 . S
C737 C2 1.189 . S
C745 C165 1.205 . S
