# Generated by pormake.
# Topology pts, (4,4)-cn, num edge types: 1
# Building blocks:
#     Node 0, Type 0, BuildingBlock: MIFKUJ_clean_linker_1, # of connection points: 4
#     Node 1, Type 0, BuildingBlock: MIFKUJ_clean_linker_1, # of connection points: 4
#     Node 2, Type 1, BuildingBlock: AZAVOO_clean_sbu_0, # of connection points: 4
#     Node 3, Type 1, BuildingBlock: AZAVOO_clean_sbu_0, # of connection points: 4
#     Edge 4, Type (0, 1), BuildingBlock: FUNLAD_clean_linker_0, # of connection points: 2
#     Edge 5, Type (0, 1), BuildingBlock: FUNLAD_clean_linker_0, # of connection points: 2
#     Edge 6, Type (0, 1), BuildingBlock: FUNLAD_clean_linker_0, # of connection points: 2
#     Edge 7, Type (0, 1), BuildingBlock: FUNLAD_clean_linker_0, # of connection points: 2
#     Edge 8, Type (0, 1), BuildingBlock: FUNLAD_clean_linker_0, # of connection points: 2
#     Edge 9, Type (0, 1), BuildingBlock: FUNLAD_clean_linker_0, # of connection points: 2
#     Edge 10, Type (0, 1), BuildingBlock: FUNLAD_clean_linker_0, # of connection points: 2
#     Edge 11, Type (0, 1), BuildingBlock: FUNLAD_clean_linker_0, # of connection points: 2
# Relax obj value: 0.003
# Max RMSD: 0.044
# Mean RMSD: 0.032
data_MOF--net-pts--node1-AZAVOO_clean_sbu_0--node2-MIFKUJ_clean_linker_1--edge1-FUNLAD_clean_linker_0
_symmetry_space_group_name_H-M    P1
_symmetry_Int_Tables_number       1
_symmetry_cell_setting            triclinic
loop_
_symmetry_equiv_pos_as_xyz
'x, y, z'
_cell_length_a     33.737385
_cell_length_b     34.72089
_cell_length_c     47.358902
_cell_angle_alpha  90.093814
_cell_angle_beta   95.994153
_cell_angle_gamma 89.891814
loop_
_atom_site_label
_atom_site_type_symbol
_atom_site_fract_x
_atom_site_fract_y
_atom_site_fract_z
_atom_type_partial_charge
H0 H 0.59503 0.94045 0.05127 0.0
H1 H 0.65745 0.93337 0.0818 0.0
H2 H 0.6977 0.04268 0.05189 0.0
H3 H 0.63524 0.04909 0.02081 0.0
H4 H 0.53972 -0.0012 0.05343 0.0
H5 H 0.62335 0.94559 0.98632 0.0
H6 H 0.68348 0.94432 0.96173 0.0
H7 H 0.65286 0.05604 0.92557 0.0
H8 H 0.59322 0.05756 0.95097 0.0
H9 H 0.46424 0.05549 0.94462 0.0
H10 H 0.40078 0.04983 0.91459 0.0
H11 H 0.37585 0.94406 0.95723 0.0
H12 H 0.43943 0.94956 0.98684 0.0
H13 H 0.52795 0.00758 0.94838 0.0
H14 H 0.43963 0.05748 0.01152 0.0
H15 H 0.38596 0.06452 0.04221 0.0
H16 H 0.42655 0.96153 0.08748 0.0
H17 H 0.47978 0.95434 0.05663 0.0
C18 C 0.61049 -0.0047 0.03385 0.0
C19 C 0.61739 0.96281 0.05122 0.0
C20 C 0.65304 0.9589 0.06874 0.0
C21 C 0.68247 0.98765 0.06953 0.0
C22 C 0.67585 0.01984 0.05161 0.0
C23 C 0.64013 0.02364 0.03393 0.0
C24 C 0.57161 -0.00025 0.01646 0.0
C25 C 0.53698 0.00025 0.03043 0.0
C26 C 0.56842 0.00328 0.98658 0.0
C27 C 0.60405 0.00187 0.97072 0.0
C28 C 0.62971 0.9699 0.97322 0.0
C29 C 0.6639 0.96909 0.95895 0.0
C30 C 0.67303 0.00013 0.94172 0.0
C31 C 0.64698 0.03191 0.93898 0.0
C32 C 0.61272 0.03268 0.95326 0.0
C33 C 0.45644 0.00311 0.96809 0.0
C34 C 0.44498 0.03122 0.94756 0.0
C35 C 0.40862 0.02808 0.93059 0.0
C36 C 0.38334 -0.00349 0.93359 0.0
C37 C 0.39481 0.96857 0.9543 0.0
C38 C 0.43099 0.97185 0.97137 0.0
C39 C 0.49567 0.00536 0.98536 0.0
C40 C 0.53047 0.00632 0.97139 0.0
C41 C 0.49902 0.00325 0.01535 0.0
C42 C 0.46383 0.00537 0.03175 0.0
C43 C 0.43644 0.03592 0.02762 0.0
C44 C 0.4058 0.03997 0.0452 0.0
C45 C 0.40233 0.01378 0.0674 0.0
C46 C 0.42889 0.98249 0.07082 0.0
C47 C 0.45927 0.97833 0.05318 0.0
H48 H 0.09228 0.46081 0.45447 0.0
H49 H 0.09779 0.40495 0.42374 0.0
H50 H 0.98916 0.35879 0.45102 0.0
H51 H 0.98303 0.4155 0.4809 0.0
H52 H 0.03673 0.5139 0.45017 0.0
H53 H 0.086 0.42398 0.52297 0.0
H54 H 0.0906 0.36888 0.55528 0.0
H55 H 0.97442 0.39683 0.58046 0.0
H56 H 0.9695 0.45102 0.54749 0.0
H57 H 0.96345 0.5693 0.54759 0.0
H58 H 0.96252 0.62485 0.57925 0.0
H59 H 0.07775 0.65976 0.55608 0.0
H60 H 0.07798 0.60458 0.52399 0.0
H61 H 0.01758 0.51172 0.55247 0.0
H62 H 0.97276 0.60642 0.48407 0.0
H63 H 0.97223 0.66553 0.45631 0.0
H64 H 0.08084 0.62947 0.42277 0.0
H65 H 0.08262 0.57183 0.45207 0.0
C66 C 0.03735 0.44229 0.4701 0.0
C67 C 0.06973 0.43857 0.45392 0.0
C68 C 0.073 0.40647 0.4365 0.0
C69 C 0.04385 0.37745 0.43485 0.0
C70 C 0.01184 0.38088 0.45152 0.0
C71 C 0.00855 0.41306 0.4689 0.0
C72 C 0.03254 0.47793 0.48672 0.0
C73 C 0.03316 0.51348 0.47268 0.0
C74 C 0.02621 0.4773 0.51577 0.0
C75 C 0.02727 0.44141 0.53267 0.0
C76 C 0.06116 0.41768 0.53497 0.0
C77 C 0.06397 0.38653 0.55373 0.0
C78 C 0.033 0.3787 0.57061 0.0
C79 C 0.99862 0.40187 0.5676 0.0
C80 C 0.99584 0.43294 0.54886 0.0
C81 C 0.02062 0.58303 0.53331 0.0
C82 C 0.98831 0.58918 0.54917 0.0
C83 C 0.98799 0.62075 0.56741 0.0
C84 C 0.02019 0.64662 0.57036 0.0
C85 C 0.05224 0.6407 0.55405 0.0
C86 C 0.05244 0.60918 0.5357 0.0
C87 C 0.02248 0.54762 0.51606 0.0
C88 C 0.02106 0.51214 0.52994 0.0
C89 C 0.02818 0.5484 0.48691 0.0
C90 C 0.02805 0.58484 0.47052 0.0
C91 C 0.99693 0.61164 0.47122 0.0
C92 C 0.99632 0.6452 0.45493 0.0
C93 C 0.02646 0.65237 0.4372 0.0
C94 C 0.05749 0.62535 0.4365 0.0
C95 C 0.05834 0.59209 0.45306 0.0
Mg96 Mg 0.0779 0.00592 0.26923 0.0
O97 O 0.01817 9e-05 0.24091 0.0
O98 O 0.97136 0.99007 0.27018 0.0
Mg99 Mg -0.00037 0.98961 0.31597 0.0
C100 C 0.98186 -0.00563 0.24525 0.0
C101 C 0.14714 0.02229 0.23655 0.0
O102 O 0.16192 0.00919 0.26148 0.0
O103 O 0.06084 0.06669 0.28212 0.0
O104 O 0.01448 0.05365 0.31129 0.0
O105 O 0.08745 0.94236 0.26855 0.0
O106 O 0.05626 0.97264 0.30078 0.0
C107 C 0.03574 0.07752 0.29896 0.0
C108 C 0.06798 0.94063 0.29066 0.0
O109 O 0.10963 0.02685 0.23193 0.0
Mg110 Mg 0.98684 0.00823 0.73616 0.0
O111 O 0.04702 0.00167 0.76369 0.0
O112 O 0.09378 -0.00644 0.73406 0.0
Mg113 Mg 0.06481 -0.00461 0.68838 0.0
C114 C 0.08333 -0.00353 0.75912 0.0
C115 C 0.95426 0.00406 0.79505 0.0
O116 O 0.97347 0.97113 0.79473 0.0
O117 O 0.00312 0.0699 0.72509 0.0
O118 O 0.04849 0.05865 0.69479 0.0
O119 O 0.97831 0.94404 0.73397 0.0
O120 O 0.00833 0.97793 0.70317 0.0
C121 C 0.02737 0.08179 0.708 0.0
C122 C 0.99718 0.9449 0.71155 0.0
O123 O 0.95586 0.02726 0.77445 0.0
C124 C 0.33323 0.03046 0.07929 0.0
C125 C 0.37294 0.02027 0.08818 0.0
C126 C 0.30591 0.03637 0.09925 0.0
C127 C 0.318 0.03245 0.12849 0.0
C128 C 0.35789 0.02311 0.13722 0.0
C129 C 0.38495 0.01686 0.11736 0.0
C130 C 0.29057 0.03784 0.1508 0.0
C131 C 0.25072 0.03305 0.14664 0.0
C132 C 0.22491 0.03313 0.17035 0.0
C133 C 0.18383 0.04023 0.16451 0.0
C134 C 0.15846 0.03791 0.18608 0.0
C135 C 0.17369 0.02808 0.21391 0.0
H136 H 0.27108 0.01645 0.20375 0.0
C137 C 0.2148 0.02141 0.21977 0.0
C138 C 0.24003 0.02365 0.19832 0.0
H139 H 0.22755 0.01342 0.2409 0.0
H140 H 0.32323 0.03345 0.05692 0.0
H141 H 0.27569 0.04443 0.09167 0.0
H142 H 0.36815 0.02018 0.15958 0.0
H143 H 0.41551 0.00979 0.1249 0.0
H144 H 0.30452 0.04405 0.172 0.0
H145 H 0.23638 0.02757 0.12543 0.0
H146 H 0.17125 0.04718 0.14313 0.0
H147 H 0.12687 0.04301 0.18082 0.0
C148 C 0.00448 0.32343 0.59592 0.0
C149 C 0.03701 0.34732 0.59197 0.0
C150 C 0.00824 0.29398 0.61608 0.0
C151 C 0.04466 0.28793 0.6329 0.0
C152 C 0.0771 0.31185 0.62895 0.0
C153 C 0.07332 0.34132 0.60881 0.0
C154 C 0.05097 0.25491 0.65277 0.0
C155 C 0.02115 0.23627 0.6638 0.0
C156 C 0.02666 0.19889 0.679 0.0
C157 C 0.99695 0.18594 0.6954 0.0
C158 C 0.99823 0.14853 0.70647 0.0
C159 C 0.02909 0.12323 0.701 0.0
H160 H 0.08168 0.18226 0.66185 0.0
C161 C 0.05983 0.13687 0.68583 0.0
C162 C 0.0586 0.1741 0.67486 0.0
H163 H 0.08416 0.11819 0.68131 0.0
H164 H 0.9763 0.32692 0.58296 0.0
H165 H 0.98291 0.27535 0.61767 0.0
H166 H 0.10559 0.3076 0.64139 0.0
H167 H 0.0988 0.35957 0.60657 0.0
H168 H 0.08151 0.24545 0.65805 0.0
H169 H 0.99115 0.248 0.66086 0.0
H170 H 0.97189 0.20433 0.69881 0.0
H171 H 0.97403 0.13887 0.71802 0.0
C172 C 0.75649 -0.00418 0.08233 0.0
C173 C 0.71897 0.98467 0.08994 0.0
C174 C 0.79053 -0.00687 0.1019 0.0
C175 C 0.78763 0.9793 0.12957 0.0
C176 C 0.75018 0.96792 0.13695 0.0
C177 C 0.71631 0.97074 0.11752 0.0
C178 C 0.82228 0.97606 0.15161 0.0
C179 C 0.85733 -0.00551 0.15093 0.0
C180 C 0.88922 -0.00668 0.17515 0.0
C181 C 0.92917 -0.00124 0.17021 0.0
C182 C 0.95952 -0.00133 0.19282 0.0
C183 C 0.95039 -0.00647 0.22089 0.0
H184 H 0.84971 0.986 0.20824 0.0
C185 C 0.91032 0.98852 0.22576 0.0
C186 C 0.88016 0.98864 0.20328 0.0
H187 H 0.90197 0.98498 0.24707 0.0
H188 H 0.75964 0.00616 0.06112 0.0
H189 H 0.81886 0.00141 0.09505 0.0
H190 H 0.74692 0.95724 0.15808 0.0
H191 H 0.68785 0.96253 0.12433 0.0
H192 H 0.81786 0.95842 0.16993 0.0
H193 H 0.86303 0.01134 0.13253 0.0
H194 H 0.93694 0.00295 0.14881 0.0
H195 H 0.99002 0.00288 0.18829 0.0
C196 C 0.03513 0.71548 0.58369 0.0
C197 C 0.02058 0.67924 0.59072 0.0
C198 C 0.03526 0.7462 0.60276 0.0
C199 C 0.02029 0.74152 0.62923 0.0
C200 C 0.00665 0.70507 0.6365 0.0
C201 C 0.00668 0.67429 0.61747 0.0
C202 C 0.01867 0.77374 0.64981 0.0
C203 C 0.01738 0.81099 0.6419 0.0
C204 C 0.0146 0.84388 0.66168 0.0
C205 C 0.02574 0.88038 0.65271 0.0
C206 C 0.02118 0.91284 0.66938 0.0
C207 C 0.0051 0.90968 0.69547 0.0
H208 H 0.98923 0.81301 0.69549 0.0
C209 C 0.99444 0.87312 0.70481 0.0
C210 C 0.99911 0.84045 0.68807 0.0
H211 H 0.98164 0.86984 0.72472 0.0
H212 H 0.04605 0.72029 0.56329 0.0
H213 H 0.0475 0.77331 0.59663 0.0
H214 H 0.99549 0.70047 0.65687 0.0
H215 H 0.9961 0.64652 0.62383 0.0
H216 H 0.01737 0.76623 0.67193 0.0
H217 H 0.01821 0.81829 0.61971 0.0
H218 H 0.03751 0.88395 0.63244 0.0
H219 H 0.02924 0.94057 0.66131 0.0
C220 C 0.32031 0.02334 0.90796 0.0
C221 C 0.3459 0.99188 0.91444 0.0
C222 C 0.28587 0.01911 0.88902 0.0
C223 C 0.27643 0.98327 0.8761 0.0
C224 C 0.30198 0.95188 0.88269 0.0
C225 C 0.33616 0.95602 0.90179 0.0
C226 C 0.24208 0.97824 0.85409 0.0
C227 C 0.20901 0.00031 0.85234 0.0
C228 C 0.17654 -0.00323 0.82871 0.0
C229 C 0.13754 0.00761 0.83314 0.0
C230 C 0.10688 0.0065 0.81081 0.0
C231 C 0.11482 -0.00484 0.78343 0.0
H232 H 0.21419 0.9775 0.79689 0.0
C233 C 0.15386 0.98415 0.77909 0.0
C234 C 0.18433 0.98497 0.80141 0.0
H235 H 0.16115 0.97539 0.75828 0.0
H236 H 0.32703 0.0513 0.91744 0.0
H237 H 0.2675 0.04424 0.88393 0.0
H238 H 0.29568 0.92408 0.87281 0.0
H239 H 0.35557 0.93137 0.90604 0.0
H240 H 0.244 0.95484 0.83904 0.0
H241 H 0.20509 0.02119 0.86892 0.0
H242 H 0.1308 0.01716 0.85391 0.0
H243 H 0.0772 0.01538 0.81487 0.0
C244 C 0.01176 0.33057 0.39917 0.0
C245 C 0.04623 0.34432 0.41518 0.0
C246 C 0.01376 0.29948 0.38062 0.0
C247 C 0.05051 0.28139 0.37748 0.0
C248 C 0.08497 0.29538 0.39343 0.0
C249 C 0.08292 0.32646 0.41201 0.0
C250 C 0.05419 0.24676 0.35924 0.0
C251 C 0.02431 0.23219 0.34127 0.0
C252 C 0.02727 0.19425 0.32725 0.0
C253 C 0.99355 0.17049 0.32437 0.0
C254 C 0.99606 0.13295 0.31419 0.0
C255 C 0.03214 0.11873 0.30597 0.0
H256 H 0.08922 0.19884 0.31904 0.0
C257 C 0.06528 0.14332 0.30701 0.0
C258 C 0.06298 0.18076 0.31778 0.0
H259 H 0.09343 0.13309 0.30074 0.0
H260 H 0.98309 0.34402 0.40082 0.0
H261 H 0.98615 0.28974 0.36933 0.0
H262 H 0.11365 0.28196 0.39173 0.0
H263 H 0.11001 0.33609 0.42425 0.0
H264 H 0.08245 0.23144 0.36189 0.0
H265 H 0.99543 0.24613 0.33859 0.0
H266 H 0.96561 0.18038 0.33123 0.0
H267 H 0.96992 0.11472 0.31334 0.0
C268 C 0.73335 0.03217 0.92521 0.0
C269 C 0.70949 -0.00081 0.92658 0.0
C270 C 0.76774 0.03112 0.91106 0.0
C271 C 0.77885 -0.00296 0.89773 0.0
C272 C 0.75518 0.96406 0.8994 0.0
C273 C 0.72088 0.96511 0.91355 0.0
C274 C 0.81497 -0.00577 0.88225 0.0
C275 C 0.83348 0.02474 0.8719 0.0
C276 C 0.86728 0.02059 0.85427 0.0
C277 C 0.87303 0.04896 0.83401 0.0
C278 C 0.90233 0.04442 0.81543 0.0
C279 C 0.92678 0.01149 0.81691 0.0
H280 H 0.89092 0.96701 0.87292 0.0
C281 C 0.92258 0.9842 0.83828 0.0
C282 C 0.89327 0.98872 0.85682 0.0
H283 H 0.94129 0.95876 0.84029 0.0
H284 H 0.72581 0.05866 0.93553 0.0
H285 H 0.7857 0.05688 0.91109 0.0
H286 H 0.763 0.93737 0.88945 0.0
H287 H 0.703 0.93928 0.91395 0.0
H288 H 0.82499 0.96539 0.87757 0.0
H289 H 0.82158 0.05349 0.8742 0.0
H290 H 0.85385 0.07408 0.83185 0.0
H291 H 0.90496 0.06616 0.79936 0.0
C292 C 0.06095 0.70651 0.41451 0.0
C293 C 0.02542 0.68754 0.41921 0.0
C294 C 0.06019 0.73891 0.39705 0.0
C295 C 0.02383 0.75328 0.38401 0.0
C296 C 0.98827 0.73503 0.38918 0.0
C297 C 0.98903 0.70227 0.40635 0.0
C298 C 0.02221 0.78827 0.36605 0.0
C299 C 0.05116 0.79714 0.34964 0.0
C300 C 0.05169 0.83345 0.33323 0.0
C301 C 0.07254 0.83457 0.30911 0.0
C302 C 0.07654 0.86913 0.29458 0.0
C303 C 0.06027 0.90342 0.3042 0.0
H304 H 0.01929 0.86811 0.36144 0.0
C305 C 0.03892 0.90218 0.32812 0.0
C306 C 0.03459 0.86758 0.34246 0.0
H307 H 0.02651 0.92809 0.33638 0.0
H308 H 0.08943 0.69668 0.42463 0.0
H309 H 0.08807 0.75313 0.39431 0.0
H310 H 0.95986 0.7458 0.37956 0.0
H311 H 0.96111 0.68821 0.40918 0.0
H312 H 0.99594 0.80646 0.36575 0.0
H313 H 0.07529 0.7768 0.34782 0.0
H314 H 0.08628 0.80872 0.3017 0.0
H315 H 0.09336 0.86913 0.27631 0.0
loop_
_geom_bond_atom_site_label_1
_geom_bond_atom_site_label_2
_geom_bond_distance
_geom_bond_site_symmetry_2
_ccdc_geom_bond_type
H0 C19 0.949 . S
H1 C20 0.950 . S
H2 C22 0.950 . S
H3 C23 0.950 . S
H4 C25 0.950 1_565 S
H5 C28 0.950 . S
H6 C29 0.950 . S
H7 C31 0.951 . S
H8 C32 0.949 . S
H9 C34 0.949 . S
H10 C35 0.950 . S
H11 C37 0.950 . S
H12 C38 0.950 . S
H13 C40 0.950 . S
H14 C43 0.950 . S
H15 C44 0.950 . S
H16 C46 0.951 . S
H17 C47 0.949 . S
C18 C19 1.376 1_545 S
C18 C23 1.386 . S
C18 C24 1.483 . S
C19 H0 0.949 . S
C19 C18 1.376 1_565 S
C19 C20 1.397 . S
C20 H1 0.950 . S
C20 C19 1.397 . S
C20 C21 1.391 1_565 S
C21 C20 1.391 1_545 S
C21 C22 1.405 . S
C22 H2 0.950 . S
C22 C21 1.405 . S
C22 C23 1.367 . S
C23 H3 0.950 . S
C23 C18 1.386 . S
C23 C22 1.367 . S
C24 C18 1.483 . S
C24 C25 1.382 . S
C24 C26 1.403 1_554 S
C25 H4 0.950 1_545 S
C25 C24 1.382 . S
C25 C41 1.411 . S
C26 C24 1.403 1_556 S
C26 C27 1.489 . S
C26 C40 1.411 . S
C27 C26 1.489 . S
C27 C28 1.383 1_545 S
C27 C32 1.382 . S
C28 H5 0.950 . S
C28 C27 1.383 1_565 S
C28 C29 1.395 . S
C29 H6 0.950 . S
C29 C28 1.395 . S
C29 C30 1.288 1_565 S
C30 C29 1.288 1_545 S
C30 C31 1.392 . S
C31 H7 0.951 . S
C31 C30 1.392 . S
C31 C32 1.392 . S
C32 H8 0.949 . S
C32 C27 1.382 . S
C32 C31 1.392 . S
C33 C34 1.376 . S
C33 C38 1.386 1_545 S
C33 C39 1.483 . S
C34 H9 0.949 . S
C34 C33 1.376 . S
C34 C35 1.397 . S
C35 H10 0.950 . S
C35 C34 1.397 . S
C35 C36 1.391 . S
C36 C35 1.391 . S
C36 C37 1.405 1_545 S
C37 H11 0.950 . S
C37 C36 1.405 1_565 S
C37 C38 1.367 . S
C38 H12 0.950 . S
C38 C33 1.386 1_565 S
C38 C37 1.367 . S
C39 C33 1.483 . S
C39 C40 1.382 . S
C39 C41 1.403 1_556 S
C40 H13 0.950 . S
C40 C26 1.411 . S
C40 C39 1.382 . S
C41 C25 1.411 . S
C41 C39 1.403 1_554 S
C41 C42 1.489 . S
C42 C41 1.489 . S
C42 C43 1.383 . S
C42 C47 1.382 1_545 S
C43 H14 0.950 . S
C43 C42 1.383 . S
C43 C44 1.395 . S
C44 H15 0.950 . S
C44 C43 1.395 . S
C44 C45 1.288 . S
C45 C44 1.288 . S
C45 C46 1.392 1_545 S
C46 H16 0.951 . S
C46 C45 1.392 1_565 S
C46 C47 1.392 . S
C47 H17 0.949 . S
C47 C42 1.382 1_565 S
C47 C46 1.392 . S
H48 C67 0.949 . S
H49 C68 0.950 . S
H50 C70 0.950 1_655 S
H51 C71 0.950 1_655 S
H52 C73 0.950 . S
H53 C76 0.950 . S
H54 C77 0.950 . S
H55 C79 0.951 . S
H56 C80 0.949 . S
H57 C82 0.949 . S
H58 C83 0.950 . S
H59 C85 0.950 . S
H60 C86 0.950 . S
H61 C88 0.950 . S
H62 C91 0.950 1_655 S
H63 C92 0.950 1_655 S
H64 C94 0.951 . S
H65 C95 0.949 . S
C66 C67 1.376 . S
C66 C71 1.386 . S
C66 C72 1.483 . S
C67 H48 0.949 . S
C67 C66 1.376 . S
C67 C68 1.397 . S
C68 H49 0.950 . S
C68 C67 1.397 . S
C68 C69 1.391 . S
C69 C68 1.391 . S
C69 C70 1.405 . S
C70 H50 0.950 1_455 S
C70 C69 1.405 . S
C70 C71 1.367 . S
C71 H51 0.950 1_455 S
C71 C66 1.386 . S
C71 C70 1.367 . S
C72 C66 1.483 . S
C72 C73 1.382 . S
C72 C74 1.403 . S
C73 H52 0.950 . S
C73 C72 1.382 . S
C73 C89 1.411 . S
C74 C72 1.403 . S
C74 C75 1.489 . S
C74 C88 1.411 . S
C75 C74 1.489 . S
C75 C76 1.383 . S
C75 C80 1.382 1_455 S
C76 H53 0.950 . S
C76 C75 1.383 . S
C76 C77 1.395 . S
C77 H54 0.950 . S
C77 C76 1.395 . S
C77 C78 1.288 . S
C78 C77 1.288 . S
C78 C79 1.392 1_455 S
C79 H55 0.951 . S
C79 C78 1.392 1_655 S
C79 C80 1.392 . S
C80 H56 0.949 . S
C80 C75 1.382 1_655 S
C80 C79 1.392 . S
C81 C82 1.376 1_455 S
C81 C86 1.386 . S
C81 C87 1.483 . S
C82 H57 0.949 . S
C82 C81 1.376 1_655 S
C82 C83 1.397 . S
C83 H58 0.950 . S
C83 C82 1.397 . S
C83 C84 1.391 1_655 S
C84 C83 1.391 1_455 S
C84 C85 1.405 . S
C85 H59 0.950 . S
C85 C84 1.405 . S
C85 C86 1.367 . S
C86 H60 0.950 . S
C86 C81 1.386 . S
C86 C85 1.367 . S
C87 C81 1.483 . S
C87 C88 1.382 . S
C87 C89 1.403 . S
C88 H61 0.950 . S
C88 C74 1.411 . S
C88 C87 1.382 . S
C89 C73 1.411 . S
C89 C87 1.403 . S
C89 C90 1.489 . S
C90 C89 1.489 . S
C90 C91 1.383 . S
C90 C95 1.382 . S
C91 H62 0.950 1_455 S
C91 C90 1.383 . S
C91 C92 1.395 . S
C92 H63 0.950 1_455 S
C92 C91 1.395 . S
C92 C93 1.288 . S
C93 C92 1.288 . S
C93 C94 1.392 . S
C94 H64 0.951 . S
C94 C93 1.392 . S
C94 C95 1.392 . S
C95 H65 0.949 . S
C95 C90 1.382 . S
C95 C94 1.392 . S
Mg96 O97 2.028 . S
Mg96 O103 1.986 . S
Mg96 O105 2.114 1_545 S
Mg96 O106 2.251 1_545 S
Mg96 O109 2.010 . S
O97 Mg96 2.028 . S
O97 C100 1.250 1_455 S
O98 Mg99 2.028 . S
O98 C100 1.248 . S
Mg99 O98 2.028 . S
Mg99 O104 2.032 1_655 S
Mg99 O106 2.079 1_645 S
C100 O97 1.250 1_655 S
C100 O98 1.248 . S
C101 O102 1.264 . S
C101 O109 1.249 . S
O102 C101 1.264 . S
O103 Mg96 1.986 . S
O103 C107 1.246 . S
O104 Mg99 2.032 1_455 S
O104 C107 1.259 . S
O105 Mg96 2.114 1_565 S
O105 C108 1.252 . S
O106 Mg96 2.251 1_565 S
O106 Mg99 2.079 1_465 S
O106 C108 1.273 . S
C107 O103 1.246 . S
C107 O104 1.259 . S
C108 O105 1.252 . S
C108 O106 1.273 . S
O109 Mg96 2.010 . S
O109 C101 1.249 . S
Mg110 O111 2.028 1_655 S
Mg110 O117 1.988 . S
Mg110 O119 2.114 1_545 S
Mg110 O120 2.251 1_645 S
Mg110 O123 2.010 . S
O111 Mg110 2.028 1_455 S
O111 C114 1.250 . S
O112 Mg113 2.028 . S
O112 C114 1.248 . S
Mg113 O112 2.028 . S
Mg113 O118 2.032 . S
Mg113 O120 2.079 1_545 S
C114 O111 1.250 . S
C114 O112 1.248 . S
C115 O116 1.264 . S
C115 O123 1.249 . S
O116 C115 1.264 . S
O117 Mg110 1.988 . S
O117 C121 1.235 1_655 S
O118 Mg113 2.032 . S
O118 C121 1.259 . S
O119 Mg110 2.114 1_565 S
O119 C122 1.252 1_655 S
O120 Mg110 2.251 1_465 S
O120 Mg113 2.079 1_565 S
O120 C122 1.273 . S
C121 O117 1.235 1_455 S
C121 O118 1.259 . S
C122 O119 1.252 1_455 S
C122 O120 1.273 . S
O123 Mg110 2.010 . S
O123 C115 1.249 . S
C124 C125 1.386 . S
C124 C126 1.383 . S
C124 H140 0.951 . S
C125 C124 1.386 . S
C125 C129 1.383 . S
C126 C124 1.383 . S
C126 C127 1.402 . S
C126 H141 0.951 . S
C127 C126 1.402 . S
C127 C128 1.375 . S
C127 C130 1.481 . S
C128 C127 1.375 . S
C128 C129 1.367 . S
C128 H142 0.951 . S
C129 C125 1.383 . S
C129 C128 1.367 . S
C129 H143 0.950 . S
C130 C127 1.481 . S
C130 C131 1.297 1_545 S
C130 H144 0.950 . S
C131 C130 1.297 1_565 S
C131 C132 1.481 . S
C131 H145 0.950 . S
C132 C131 1.481 . S
C132 C133 1.374 1_565 S
C132 C138 1.403 1_565 S
C133 C132 1.374 1_545 S
C133 C134 1.369 . S
C133 H146 0.952 . S
C134 C133 1.369 . S
C134 C135 1.392 . S
C134 H147 0.951 . S
C135 C134 1.392 . S
C135 C137 1.384 . S
H136 C138 0.947 1_565 S
C137 C135 1.384 . S
C137 C138 1.387 . S
C137 H139 0.950 . S
C138 C132 1.403 1_545 S
C138 H136 0.947 1_545 S
C138 C137 1.387 . S
H139 C137 0.950 . S
H140 C124 0.951 . S
H141 C126 0.951 . S
H142 C128 0.951 . S
H143 C129 0.950 . S
H144 C130 0.950 . S
H145 C131 0.950 . S
H146 C133 0.952 . S
H147 C134 0.951 . S
C148 C149 1.386 1_655 S
C148 C150 1.383 . S
C148 H164 0.951 . S
C149 C148 1.386 1_455 S
C149 C153 1.383 . S
C150 C148 1.383 . S
C150 C151 1.402 1_655 S
C150 H165 0.951 . S
C151 C150 1.402 1_455 S
C151 C152 1.375 . S
C151 C154 1.481 . S
C152 C151 1.375 . S
C152 C153 1.367 . S
C152 H166 0.951 . S
C153 C149 1.383 . S
C153 C152 1.367 . S
C153 H167 0.950 . S
C154 C151 1.481 . S
C154 C155 1.297 . S
C154 H168 0.950 . S
C155 C154 1.297 . S
C155 C156 1.479 . S
C155 H169 0.950 1_455 S
C156 C155 1.479 . S
C156 C157 1.375 1_455 S
C156 C162 1.404 . S
C157 C156 1.375 1_655 S
C157 C158 1.369 . S
C157 H170 0.950 . S
C158 C157 1.369 . S
C158 C159 1.392 1_655 S
C158 H171 0.951 . S
C159 C158 1.392 1_455 S
C159 C161 1.384 . S
H160 C162 0.949 . S
C161 C159 1.384 . S
C161 C162 1.385 . S
C161 H163 0.950 . S
C162 C156 1.404 . S
C162 H160 0.949 . S
C162 C161 1.385 . S
H163 C161 0.950 . S
H164 C148 0.951 . S
H165 C150 0.951 . S
H166 C152 0.951 . S
H167 C153 0.950 . S
H168 C154 0.950 . S
H169 C155 0.950 1_655 S
H170 C157 0.950 . S
H171 C158 0.951 . S
C172 C173 1.386 . S
C172 C174 1.383 . S
C172 H188 0.951 . S
C173 C172 1.386 . S
C173 C177 1.383 1_545 S
C174 C172 1.383 . S
C174 C175 1.402 . S
C174 H189 0.951 . S
C175 C174 1.402 . S
C175 C176 1.381 . S
C175 C178 1.481 . S
C176 C175 1.381 . S
C176 C177 1.366 1_545 S
C176 H190 0.946 1_545 S
C177 C173 1.383 1_565 S
C177 C176 1.366 1_565 S
C177 H191 0.950 . S
C178 C175 1.481 . S
C178 C179 1.297 . S
C178 H192 0.950 . S
C179 C178 1.297 . S
C179 C180 1.479 . S
C179 H193 0.950 . S
C180 C179 1.479 . S
C180 C181 1.375 . S
C180 C186 1.404 . S
C181 C180 1.375 . S
C181 C182 1.369 . S
C181 H194 0.950 . S
C182 C181 1.369 . S
C182 C183 1.392 . S
C182 H195 0.951 . S
C183 C182 1.392 . S
C183 C185 1.384 . S
H184 C186 0.949 . S
C185 C183 1.384 . S
C185 C186 1.385 . S
C185 H187 0.950 . S
C186 C180 1.404 . S
C186 H184 0.949 . S
C186 C185 1.385 . S
H187 C185 0.950 . S
H188 C172 0.951 . S
H189 C174 0.951 . S
H190 C176 0.946 1_565 S
H191 C177 0.950 . S
H192 C178 0.950 . S
H193 C179 0.950 . S
H194 C181 0.950 . S
H195 C182 0.951 . S
C196 C197 1.386 . S
C196 C198 1.383 . S
C196 H212 0.951 . S
C197 C196 1.386 . S
C197 C201 1.383 . S
C198 C196 1.383 . S
C198 C199 1.402 . S
C198 H213 0.951 . S
C199 C198 1.402 . S
C199 C200 1.375 . S
C199 C202 1.481 . S
C200 C199 1.375 . S
C200 C201 1.367 . S
C200 H214 0.951 1_455 S
C201 C197 1.383 . S
C201 C200 1.367 . S
C201 H215 0.950 . S
C202 C199 1.481 . S
C202 C203 1.297 . S
C202 H216 0.950 1_455 S
C203 C202 1.297 . S
C203 C204 1.479 . S
C203 H217 0.950 . S
C204 C203 1.479 . S
C204 C205 1.375 . S
C204 C210 1.404 1_455 S
C205 C204 1.375 . S
C205 C206 1.369 . S
C205 H218 0.950 . S
C206 C205 1.369 . S
C206 C207 1.392 . S
C206 H219 0.951 . S
C207 C206 1.392 . S
C207 C209 1.384 1_455 S
H208 C210 0.949 . S
C209 C207 1.384 1_655 S
C209 C210 1.385 . S
C209 H211 0.950 . S
C210 C204 1.404 1_655 S
C210 H208 0.949 . S
C210 C209 1.385 . S
H211 C209 0.950 . S
H212 C196 0.951 . S
H213 C198 0.951 . S
H214 C200 0.951 1_655 S
H215 C201 0.950 . S
H216 C202 0.950 1_655 S
H217 C203 0.950 . S
H218 C205 0.950 . S
H219 C206 0.951 . S
C220 C221 1.386 . S
C220 C222 1.383 . S
C220 H236 0.951 . S
C221 C220 1.386 . S
C221 C225 1.383 1_545 S
C222 C220 1.383 . S
C222 C223 1.402 1_545 S
C222 H237 0.951 . S
C223 C222 1.402 1_565 S
C223 C224 1.375 . S
C223 C226 1.481 . S
C224 C223 1.375 . S
C224 C225 1.367 . S
C224 H238 0.951 . S
C225 C221 1.383 1_565 S
C225 C224 1.367 . S
C225 H239 0.950 . S
C226 C223 1.481 . S
C226 C227 1.297 1_565 S
C226 H240 0.950 . S
C227 C226 1.297 1_545 S
C227 C228 1.479 . S
C227 H241 0.950 . S
C228 C227 1.479 . S
C228 C229 1.375 . S
C228 C234 1.404 1_545 S
C229 C228 1.375 . S
C229 C230 1.369 . S
C229 H242 0.950 . S
C230 C229 1.369 . S
C230 C231 1.392 . S
C230 H243 0.951 . S
C231 C230 1.392 . S
C231 C233 1.384 1_545 S
H232 C234 0.949 . S
C233 C231 1.384 1_565 S
C233 C234 1.385 . S
C233 H235 0.950 . S
C234 C228 1.404 1_565 S
C234 H232 0.949 . S
C234 C233 1.385 . S
H235 C233 0.950 . S
H236 C220 0.951 . S
H237 C222 0.951 . S
H238 C224 0.951 . S
H239 C225 0.950 . S
H240 C226 0.950 . S
H241 C227 0.950 . S
H242 C229 0.950 . S
H243 C230 0.951 . S
C244 C245 1.386 . S
C244 C246 1.383 . S
C244 H260 0.951 . S
C245 C244 1.386 . S
C245 C249 1.383 . S
C246 C244 1.383 . S
C246 C247 1.402 . S
C246 H261 0.951 . S
C247 C246 1.402 . S
C247 C248 1.375 . S
C247 C250 1.481 . S
C248 C247 1.375 . S
C248 C249 1.367 . S
C248 H262 0.951 . S
C249 C245 1.383 . S
C249 C248 1.367 . S
C249 H263 0.950 . S
C250 C247 1.481 . S
C250 C251 1.297 . S
C250 H264 0.950 . S
C251 C250 1.297 . S
C251 C252 1.479 . S
C251 H265 0.950 . S
C252 C251 1.479 . S
C252 C253 1.375 . S
C252 C258 1.404 . S
C253 C252 1.375 . S
C253 C254 1.369 . S
C253 H266 0.950 . S
C254 C253 1.369 . S
C254 C255 1.392 . S
C254 H267 0.951 . S
C255 C254 1.392 . S
C255 C257 1.384 . S
H256 C258 0.949 . S
C257 C255 1.384 . S
C257 C258 1.385 . S
C257 H259 0.950 . S
C258 C252 1.404 . S
C258 H256 0.949 . S
C258 C257 1.385 . S
H259 C257 0.950 . S
H260 C244 0.951 . S
H261 C246 0.951 . S
H262 C248 0.951 . S
H263 C249 0.950 . S
H264 C250 0.950 . S
H265 C251 0.950 . S
H266 C253 0.950 . S
H267 C254 0.951 . S
C268 C269 1.386 . S
C268 C270 1.383 . S
C268 H284 0.951 . S
C269 C268 1.386 . S
C269 C273 1.383 1_545 S
C270 C268 1.383 . S
C270 C271 1.402 1_545 S
C270 H285 0.951 . S
C271 C270 1.402 1_565 S
C271 C272 1.375 . S
C271 C274 1.481 . S
C272 C271 1.375 . S
C272 C273 1.367 . S
C272 H286 0.951 . S
C273 C269 1.383 1_565 S
C273 C272 1.367 . S
C273 H287 0.950 . S
C274 C271 1.481 . S
C274 C275 1.297 1_565 S
C274 H288 0.950 . S
C275 C274 1.297 1_545 S
C275 C276 1.479 . S
C275 H289 0.950 . S
C276 C275 1.479 . S
C276 C277 1.375 . S
C276 C282 1.404 1_545 S
C277 C276 1.375 . S
C277 C278 1.369 . S
C277 H290 0.950 . S
C278 C277 1.369 . S
C278 C279 1.392 . S
C278 H291 0.951 . S
C279 C278 1.392 . S
C279 C281 1.384 1_545 S
H280 C282 0.949 . S
C281 C279 1.384 1_565 S
C281 C282 1.385 . S
C281 H283 0.950 . S
C282 C276 1.404 1_565 S
C282 H280 0.949 . S
C282 C281 1.385 . S
H283 C281 0.950 . S
H284 C268 0.951 . S
H285 C270 0.951 . S
H286 C272 0.951 . S
H287 C273 0.950 . S
H288 C274 0.950 . S
H289 C275 0.950 . S
H290 C277 0.950 . S
H291 C278 0.951 . S
C292 C293 1.386 . S
C292 C294 1.383 . S
C292 H308 0.951 . S
C293 C292 1.386 . S
C293 C297 1.383 . S
C294 C292 1.383 . S
C294 C295 1.402 . S
C294 H309 0.951 . S
C295 C294 1.402 . S
C295 C296 1.375 . S
C295 C298 1.481 . S
C296 C295 1.375 . S
C296 C297 1.367 . S
C296 H310 0.951 1_455 S
C297 C293 1.383 . S
C297 C296 1.367 . S
C297 H311 0.950 1_455 S
C298 C295 1.481 . S
C298 C299 1.297 . S
C298 H312 0.950 . S
C299 C298 1.297 . S
C299 C300 1.479 . S
C299 H313 0.950 . S
C300 C299 1.479 . S
C300 C301 1.375 . S
C300 C306 1.404 . S
C301 C300 1.375 . S
C301 C302 1.369 . S
C301 H314 0.950 . S
C302 C301 1.369 . S
C302 C303 1.392 . S
C302 H315 0.951 . S
C303 C302 1.392 . S
C303 C305 1.384 . S
H304 C306 0.949 1_655 S
C305 C303 1.384 . S
C305 C306 1.385 . S
C305 H307 0.950 1_455 S
C306 C300 1.404 . S
C306 H304 0.949 1_455 S
C306 C305 1.385 . S
H307 C305 0.950 1_655 S
H308 C292 0.951 . S
H309 C294 0.951 . S
H310 C296 0.951 1_655 S
H311 C297 0.950 1_655 S
H312 C298 0.950 . S
H313 C299 0.950 . S
H314 C301 0.950 . S
H315 C302 0.951 . S
C135 C101 1.272 . S
C125 C45 1.517 . S
C159 C121 1.475 . S
C149 C78 1.519 . S
C183 C100 1.456 . S
C173 C21 1.522 . S
C207 C122 1.514 . S
C197 C84 1.522 . S
C231 C114 1.422 . S
C221 C36 1.523 . S
C255 C107 1.516 . S
C245 C69 1.512 . S
C279 C115 1.363 . S
C269 C30 1.530 . S
C293 C93 1.523 . S
C303 C108 1.514 . S
