# Generated by pormake.
# Topology eea, (3,6)-cn, num edge types: 1
# Building blocks:
#     Node 0, Type 0, BuildingBlock: PAMTOO_clean_linker_0, # of connection points: 3
#     Node 1, Type 0, BuildingBlock: PAMTOO_clean_linker_0, # of connection points: 3
#     Node 2, Type 0, BuildingBlock: PAMTOO_clean_linker_0, # of connection points: 3
#     Node 3, Type 0, BuildingBlock: PAMTOO_clean_linker_0, # of connection points: 3
#     Node 4, Type 0, BuildingBlock: PAMTOO_clean_linker_0, # of connection points: 3
#     Node 5, Type 0, BuildingBlock: PAMTOO_clean_linker_0, # of connection points: 3
#     Node 6, Type 0, BuildingBlock: PAMTOO_clean_linker_0, # of connection points: 3
#     Node 7, Type 0, BuildingBlock: PAMTOO_clean_linker_0, # of connection points: 3
#     Node 8, Type 0, BuildingBlock: PAMTOO_clean_linker_0, # of connection points: 3
#     Node 9, Type 0, BuildingBlock: PAMTOO_clean_linker_0, # of connection points: 3
#     Node 10, Type 0, BuildingBlock: PAMTOO_clean_linker_0, # of connection points: 3
#     Node 11, Type 0, BuildingBlock: PAMTOO_clean_linker_0, # of connection points: 3
#     Node 12, Type 0, BuildingBlock: PAMTOO_clean_linker_0, # of connection points: 3
#     Node 13, Type 0, BuildingBlock: PAMTOO_clean_linker_0, # of connection points: 3
#     Node 14, Type 0, BuildingBlock: PAMTOO_clean_linker_0, # of connection points: 3
#     Node 15, Type 0, BuildingBlock: PAMTOO_clean_linker_0, # of connection points: 3
#     Node 16, Type 0, BuildingBlock: PAMTOO_clean_linker_0, # of connection points: 3
#     Node 17, Type 0, BuildingBlock: PAMTOO_clean_linker_0, # of connection points: 3
#     Node 18, Type 1, BuildingBlock: KUMBUR_clean_sbu_0, # of connection points: 6
#     Node 19, Type 1, BuildingBlock: KUMBUR_clean_sbu_0, # of connection points: 6
#     Node 20, Type 1, BuildingBlock: KUMBUR_clean_sbu_0, # of connection points: 6
#     Node 21, Type 1, BuildingBlock: KUMBUR_clean_sbu_0, # of connection points: 6
#     Node 22, Type 1, BuildingBlock: KUMBUR_clean_sbu_0, # of connection points: 6
#     Node 23, Type 1, BuildingBlock: KUMBUR_clean_sbu_0, # of connection points: 6
#     Node 24, Type 1, BuildingBlock: KUMBUR_clean_sbu_0, # of connection points: 6
#     Node 25, Type 1, BuildingBlock: KUMBUR_clean_sbu_0, # of connection points: 6
#     Node 26, Type 1, BuildingBlock: KUMBUR_clean_sbu_0, # of connection points: 6
#     Edge 27, Type (0, 1), BuildingBlock: MIFKUJ_clean_linker_0, # of connection points: 2
#     Edge 28, Type (0, 1), BuildingBlock: MIFKUJ_clean_linker_0, # of connection points: 2
#     Edge 29, Type (0, 1), BuildingBlock: MIFKUJ_clean_linker_0, # of connection points: 2
#     Edge 30, Type (0, 1), BuildingBlock: MIFKUJ_clean_linker_0, # of connection points: 2
#     Edge 31, Type (0, 1), BuildingBlock: MIFKUJ_clean_linker_0, # of connection points: 2
#     Edge 32, Type (0, 1), BuildingBlock: MIFKUJ_clean_linker_0, # of connection points: 2
#     Edge 33, Type (0, 1), BuildingBlock: MIFKUJ_clean_linker_0, # of connection points: 2
#     Edge 34, Type (0, 1), BuildingBlock: MIFKUJ_clean_linker_0, # of connection points: 2
#     Edge 35, Type (0, 1), BuildingBlock: MIFKUJ_clean_linker_0, # of connection points: 2
#     Edge 36, Type (0, 1), BuildingBlock: MIFKUJ_clean_linker_0, # of connection points: 2
#     Edge 37, Type (0, 1), BuildingBlock: MIFKUJ_clean_linker_0, # of connection points: 2
#     Edge 38, Type (0, 1), BuildingBlock: MIFKUJ_clean_linker_0, # of connection points: 2
#     Edge 39, Type (0, 1), BuildingBlock: MIFKUJ_clean_linker_0, # of connection points: 2
#     Edge 40, Type (0, 1), BuildingBlock: MIFKUJ_clean_linker_0, # of connection points: 2
#     Edge 41, Type (0, 1), BuildingBlock: MIFKUJ_clean_linker_0, # of connection points: 2
#     Edge 42, Type (0, 1), BuildingBlock: MIFKUJ_clean_linker_0, # of connection points: 2
#     Edge 43, Type (0, 1), BuildingBlock: MIFKUJ_clean_linker_0, # of connection points: 2
#     Edge 44, Type (0, 1), BuildingBlock: MIFKUJ_clean_linker_0, # of connection points: 2
#     Edge 45, Type (0, 1), BuildingBlock: MIFKUJ_clean_linker_0, # of connection points: 2
#     Edge 46, Type (0, 1), BuildingBlock: MIFKUJ_clean_linker_0, # of connection points: 2
#     Edge 47, Type (0, 1), BuildingBlock: MIFKUJ_clean_linker_0, # of connection points: 2
#     Edge 48, Type (0, 1), BuildingBlock: MIFKUJ_clean_linker_0, # of connection points: 2
#     Edge 49, Type (0, 1), BuildingBlock: MIFKUJ_clean_linker_0, # of connection points: 2
#     Edge 50, Type (0, 1), BuildingBlock: MIFKUJ_clean_linker_0, # of connection points: 2
#     Edge 51, Type (0, 1), BuildingBlock: MIFKUJ_clean_linker_0, # of connection points: 2
#     Edge 52, Type (0, 1), BuildingBlock: MIFKUJ_clean_linker_0, # of connection points: 2
#     Edge 53, Type (0, 1), BuildingBlock: MIFKUJ_clean_linker_0, # of connection points: 2
#     Edge 54, Type (0, 1), BuildingBlock: MIFKUJ_clean_linker_0, # of connection points: 2
#     Edge 55, Type (0, 1), BuildingBlock: MIFKUJ_clean_linker_0, # of connection points: 2
#     Edge 56, Type (0, 1), BuildingBlock: MIFKUJ_clean_linker_0, # of connection points: 2
#     Edge 57, Type (0, 1), BuildingBlock: MIFKUJ_clean_linker_0, # of connection points: 2
#     Edge 58, Type (0, 1), BuildingBlock: MIFKUJ_clean_linker_0, # of connection points: 2
#     Edge 59, Type (0, 1), BuildingBlock: MIFKUJ_clean_linker_0, # of connection points: 2
#     Edge 60, Type (0, 1), BuildingBlock: MIFKUJ_clean_linker_0, # of connection points: 2
#     Edge 61, Type (0, 1), BuildingBlock: MIFKUJ_clean_linker_0, # of connection points: 2
#     Edge 62, Type (0, 1), BuildingBlock: MIFKUJ_clean_linker_0, # of connection points: 2
#     Edge 63, Type (0, 1), BuildingBlock: MIFKUJ_clean_linker_0, # of connection points: 2
#     Edge 64, Type (0, 1), BuildingBlock: MIFKUJ_clean_linker_0, # of connection points: 2
#     Edge 65, Type (0, 1), BuildingBlock: MIFKUJ_clean_linker_0, # of connection points: 2
#     Edge 66, Type (0, 1), BuildingBlock: MIFKUJ_clean_linker_0, # of connection points: 2
#     Edge 67, Type (0, 1), BuildingBlock: MIFKUJ_clean_linker_0, # of connection points: 2
#     Edge 68, Type (0, 1), BuildingBlock: MIFKUJ_clean_linker_0, # of connection points: 2
#     Edge 69, Type (0, 1), BuildingBlock: MIFKUJ_clean_linker_0, # of connection points: 2
#     Edge 70, Type (0, 1), BuildingBlock: MIFKUJ_clean_linker_0, # of connection points: 2
#     Edge 71, Type (0, 1), BuildingBlock: MIFKUJ_clean_linker_0, # of connection points: 2
#     Edge 72, Type (0, 1), BuildingBlock: MIFKUJ_clean_linker_0, # of connection points: 2
#     Edge 73, Type (0, 1), BuildingBlock: MIFKUJ_clean_linker_0, # of connection points: 2
#     Edge 74, Type (0, 1), BuildingBlock: MIFKUJ_clean_linker_0, # of connection points: 2
#     Edge 75, Type (0, 1), BuildingBlock: MIFKUJ_clean_linker_0, # of connection points: 2
#     Edge 76, Type (0, 1), BuildingBlock: MIFKUJ_clean_linker_0, # of connection points: 2
#     Edge 77, Type (0, 1), BuildingBlock: MIFKUJ_clean_linker_0, # of connection points: 2
#     Edge 78, Type (0, 1), BuildingBlock: MIFKUJ_clean_linker_0, # of connection points: 2
#     Edge 79, Type (0, 1), BuildingBlock: MIFKUJ_clean_linker_0, # of connection points: 2
#     Edge 80, Type (0, 1), BuildingBlock: MIFKUJ_clean_linker_0, # of connection points: 2
# Relax obj value: 0.022
# Max RMSD: 0.153
# Mean RMSD: 0.113
data_MOF--net-eea--node1-KUMBUR_clean_sbu_0--node2-PAMTOO_clean_linker_0--edge1-MIFKUJ_clean_linker_0
_symmetry_space_group_name_H-M    P1
_symmetry_Int_Tables_number       1
_symmetry_cell_setting            triclinic
loop_
_symmetry_equiv_pos_as_xyz
'x, y, z'
_cell_length_a     71.237852
_cell_length_b     72.772791
_cell_length_c     82.473464
_cell_angle_alpha  90.210013
_cell_angle_beta   90.169603
_cell_angle_gamma 120.01435
loop_
_atom_site_label
_atom_site_type_symbol
_atom_site_fract_x
_atom_site_fract_y
_atom_site_fract_z
_atom_type_partial_charge
H0 H 0.22028 0.07392 0.43722 0.0
H1 H 0.21369 0.12942 0.43308 0.0
H2 H 0.19478 0.08551 0.3934 0.0
H3 H 0.21289 0.12947 0.3815 0.0
C4 C 0.21332 0.13669 0.3935 0.0
O5 O 0.19844 0.12123 0.40361 0.0
H6 H 0.23009 0.14343 0.39843 0.0
C7 C 0.21542 0.08351 0.43032 0.0
C8 C 0.20704 0.07714 0.41453 0.0
C9 C 0.21801 0.10237 0.43716 0.0
C10 C 0.21185 0.11481 0.42808 0.0
C11 C 0.20346 0.10864 0.41241 0.0
C12 C 0.2009 0.08981 0.40569 0.0
H13 H 0.95035 0.15601 0.43265 0.0
H14 H 0.89152 0.09532 0.43014 0.0
H15 H 0.93446 0.11766 0.38938 0.0
H16 H 0.88777 0.09397 0.38013 0.0
C17 C 0.88106 0.08449 0.39135 0.0
O18 O 0.89803 0.08633 0.40073 0.0
H19 H 0.87201 0.09091 0.39803 0.0
C20 C 0.9395 0.1416 0.42604 0.0
C21 C 0.94483 0.13874 0.4102 0.0
C22 C 0.92024 0.12616 0.43338 0.0
C23 C 0.90648 0.10742 0.42476 0.0
C24 C 0.91153 0.10442 0.4089 0.0
C25 C 0.93062 0.12012 0.40161 0.0
H26 H 0.86217 0.79163 0.4357 0.0
H27 H 0.92334 0.79317 0.43312 0.0
H28 H 0.90408 0.82002 0.39468 0.0
H29 H 0.9313 0.80292 0.38191 0.0
C30 C 0.93702 0.80035 0.39378 0.0
O31 O 0.9349 0.81298 0.40541 0.0
H32 H 0.92667 0.78332 0.39703 0.0
C33 C 0.87713 0.79597 0.42937 0.0
C34 C 0.88111 0.8064 0.41437 0.0
C35 C 0.89212 0.79101 0.43629 0.0
C36 C 0.91156 0.79685 0.42804 0.0
C37 C 0.91585 0.80719 0.41304 0.0
C38 C 0.90059 0.81189 0.40621 0.0
H39 H 0.07645 0.21701 0.5941 0.0
H40 H 0.13233 0.20879 0.59563 0.0
H41 H 0.08759 0.18731 0.63526 0.0
H42 H 0.13297 0.20208 0.64726 0.0
C43 C 0.14026 0.20412 0.63504 0.0
O44 O 0.12416 0.1912 0.62409 0.0
H45 H 0.14717 0.22108 0.63158 0.0
C46 C 0.08612 0.21142 0.60022 0.0
C47 C 0.07952 0.20178 0.61552 0.0
C48 C 0.10509 0.21401 0.5928 0.0
C49 C 0.11771 0.20706 0.60107 0.0
C50 C 0.11152 0.19756 0.61634 0.0
C51 C 0.09228 0.19464 0.62344 0.0
H52 H 0.7958 0.86085 0.59097 0.0
H53 H 0.80442 0.92372 0.5947 0.0
H54 H 0.82513 0.89927 0.63359 0.0
H55 H 0.80447 0.92246 0.6456 0.0
C56 C 0.8053 0.93124 0.63437 0.0
O57 O 0.8202 0.93066 0.62403 0.0
H58 H 0.78891 0.92346 0.62863 0.0
C59 C 0.80188 0.87574 0.59746 0.0
C60 C 0.81119 0.87806 0.61295 0.0
C61 C 0.79936 0.89208 0.59063 0.0
C62 C 0.8062 0.91087 0.59959 0.0
C63 C 0.81511 0.91317 0.6151 0.0
C64 C 0.81792 0.89702 0.62164 0.0
H65 H 0.15052 0.93176 0.59301 0.0
H66 H 0.09013 0.87274 0.59571 0.0
H67 H 0.10912 0.91826 0.6345 0.0
H68 H 0.08605 0.87432 0.64653 0.0
C69 C 0.07803 0.86602 0.63503 0.0
O70 O 0.07905 0.88071 0.62397 0.0
H71 H 0.08698 0.85818 0.63041 0.0
C72 C 0.13572 0.92127 0.59942 0.0
C73 C 0.13171 0.92762 0.61453 0.0
C74 C 0.12093 0.90155 0.59248 0.0
C75 C 0.10172 0.88804 0.60082 0.0
C76 C 0.09757 0.89398 0.61601 0.0
C77 C 0.11255 0.91373 0.62284 0.0
H78 H 0.89267 0.40931 0.76838 0.0
H79 H 0.88455 0.46388 0.76444 0.0
H80 H 0.85808 0.41559 0.72775 0.0
H81 H 0.87391 0.45663 0.71307 0.0
C82 C 0.87675 0.46595 0.72444 0.0
O83 O 0.86419 0.45255 0.73664 0.0
H84 H 0.89433 0.47339 0.72749 0.0
C85 C 0.88628 0.41795 0.76194 0.0
C86 C 0.87499 0.40983 0.74723 0.0
C87 C 0.88957 0.43725 0.76843 0.0
C88 C 0.88174 0.44871 0.75989 0.0
C89 C 0.87071 0.44093 0.74517 0.0
C90 C 0.867 0.42144 0.73903 0.0
H91 H 0.61023 0.48807 0.7677 0.0
H92 H 0.55457 0.4252 0.76504 0.0
H93 H 0.59925 0.44855 0.72556 0.0
H94 H 0.55325 0.42157 0.71385 0.0
C95 C 0.54622 0.41457 0.72583 0.0
O96 O 0.56265 0.41685 0.73608 0.0
H97 H 0.53837 0.42339 0.73067 0.0
C98 C 0.60092 0.47309 0.76135 0.0
C99 C 0.60761 0.4704 0.74587 0.0
C100 C 0.58187 0.45695 0.76849 0.0
C101 C 0.56924 0.43795 0.75982 0.0
C102 C 0.57536 0.43513 0.74432 0.0
C103 C 0.59456 0.45119 0.73743 0.0
H104 H 0.52904 0.1231 0.76768 0.0
H105 H 0.59083 0.12583 0.766 0.0
H106 H 0.5699 0.14832 0.72571 0.0
H107 H 0.59424 0.12618 0.7161 0.0
C108 C 0.60367 0.12875 0.72748 0.0
O109 O 0.60132 0.14292 0.73731 0.0
H110 H 0.59687 0.1131 0.7336 0.0
C111 C 0.54391 0.12717 0.76136 0.0
C112 C 0.54732 0.13616 0.74577 0.0
C113 C 0.55938 0.12331 0.76888 0.0
C114 C 0.57871 0.12876 0.76057 0.0
C115 C 0.58243 0.1376 0.74501 0.0
C116 C 0.56674 0.14125 0.73764 0.0
H117 H 0.74588 0.55454 0.92852 0.0
H118 H 0.80414 0.55041 0.93146 0.0
H119 H 0.75967 0.52945 0.97126 0.0
H120 H 0.80594 0.54646 0.98296 0.0
C121 C 0.81294 0.54733 0.97077 0.0
O122 O 0.79653 0.53383 0.96029 0.0
H123 H 0.82016 0.56405 0.96658 0.0
C124 C 0.75625 0.55008 0.93499 0.0
C125 C 0.75019 0.54137 0.95062 0.0
C126 C 0.77581 0.55375 0.92792 0.0
C127 C 0.78927 0.54826 0.93673 0.0
C128 C 0.78356 0.53961 0.95231 0.0
C129 C 0.7641 0.53631 0.95928 0.0
H130 H 0.4667 0.19642 0.92492 0.0
H131 H 0.47095 0.25749 0.9281 0.0
H132 H 0.48999 0.23396 0.96866 0.0
H133 H 0.46959 0.25828 0.97945 0.0
C134 C 0.46987 0.26556 0.96755 0.0
O135 O 0.48533 0.2651 0.9578 0.0
H136 H 0.45342 0.2561 0.96201 0.0
C137 C 0.4709 0.21078 0.93167 0.0
C138 C 0.47895 0.21319 0.94761 0.0
C139 C 0.4678 0.22656 0.92448 0.0
C140 C 0.47313 0.24506 0.93336 0.0
C141 C 0.48114 0.24763 0.94919 0.0
C142 C 0.48418 0.23186 0.95626 0.0
H143 H 0.82579 0.26392 0.92542 0.0
H144 H 0.76386 0.20677 0.92917 0.0
H145 H 0.78762 0.25107 0.96882 0.0
H146 H 0.76023 0.20688 0.98077 0.0
C147 C 0.75357 0.19946 0.96876 0.0
O148 O 0.75528 0.21492 0.95816 0.0
H149 H 0.76328 0.19238 0.96422 0.0
C150 C 0.81134 0.25382 0.93232 0.0
C151 C 0.80901 0.26003 0.94805 0.0
C152 C 0.79528 0.23462 0.9254 0.0
C153 C 0.7765 0.22155 0.93433 0.0
C154 C 0.77371 0.22758 0.94988 0.0
C155 C 0.78988 0.24678 0.95669 0.0
H156 H 0.56316 0.74423 0.1018 0.0
H157 H 0.55663 0.80001 0.09977 0.0
H158 H 0.54256 0.76058 0.05774 0.0
H159 H 0.56248 0.80486 0.04829 0.0
C160 C 0.56131 0.81139 0.06022 0.0
O161 O 0.54544 0.79531 0.06936 0.0
H162 H 0.57741 0.81812 0.06635 0.0
C163 C 0.55913 0.75465 0.09523 0.0
C164 C 0.55235 0.74993 0.07895 0.0
C165 C 0.56074 0.77265 0.10303 0.0
C166 C 0.55573 0.78612 0.09415 0.0
C167 C 0.54938 0.78178 0.07788 0.0
C168 C 0.54742 0.76363 0.07037 0.0
H169 H 0.28203 0.82517 0.10108 0.0
H170 H 0.22471 0.76339 0.09703 0.0
H171 H 0.26885 0.78825 0.05724 0.0
H172 H 0.22284 0.76197 0.0458 0.0
C173 C 0.21587 0.75433 0.05762 0.0
O174 O 0.23233 0.7561 0.06759 0.0
H175 H 0.208 0.76283 0.06304 0.0
C176 C 0.27198 0.81068 0.09431 0.0
C177 C 0.27806 0.80864 0.07846 0.0
C178 C 0.25262 0.79461 0.10118 0.0
C179 C 0.23949 0.77618 0.09199 0.0
C180 C 0.24526 0.77398 0.07619 0.0
C181 C 0.26447 0.79019 0.06944 0.0
H182 H 0.1967 0.45882 0.10134 0.0
H183 H 0.2583 0.46119 0.09951 0.0
H184 H 0.23723 0.48354 0.05917 0.0
H185 H 0.26076 0.46018 0.05007 0.0
C186 C 0.27085 0.46349 0.06119 0.0
O187 O 0.26866 0.47801 0.07071 0.0
H188 H 0.26473 0.44827 0.06783 0.0
C189 C 0.21152 0.46278 0.09496 0.0
C190 C 0.21487 0.4717 0.07938 0.0
C191 C 0.22693 0.45881 0.10242 0.0
C192 C 0.24621 0.46418 0.09409 0.0
C193 C 0.24987 0.47292 0.07849 0.0
C194 C 0.23417 0.4766 0.07115 0.0
H195 H 0.41066 0.88771 0.26309 0.0
H196 H 0.4661 0.87891 0.26356 0.0
H197 H 0.42259 0.85822 0.30403 0.0
H198 H 0.46765 0.87324 0.31499 0.0
C199 C 0.47481 0.87407 0.30287 0.0
O200 O 0.4584 0.86124 0.29213 0.0
H201 H 0.48273 0.89094 0.29893 0.0
C202 C 0.42056 0.8824 0.26922 0.0
C203 C 0.41426 0.87286 0.28457 0.0
C204 C 0.43909 0.88453 0.26141 0.0
C205 C 0.4516 0.87715 0.26925 0.0
C206 C 0.4458 0.86783 0.28463 0.0
C207 C 0.42697 0.86543 0.29216 0.0
H208 H 0.1351 0.52933 0.25556 0.0
H209 H 0.13901 0.59023 0.25733 0.0
H210 H 0.15828 0.5682 0.29874 0.0
H211 H 0.13626 0.59093 0.30791 0.0
C212 C 0.13813 0.59967 0.29644 0.0
O213 O 0.15376 0.59903 0.28701 0.0
H214 H 0.12215 0.59169 0.29007 0.0
C215 C 0.13903 0.54373 0.26217 0.0
C216 C 0.14715 0.54665 0.27813 0.0
C217 C 0.136 0.55929 0.25455 0.0
C218 C 0.14162 0.57821 0.26288 0.0
C219 C 0.14965 0.58131 0.27876 0.0
C220 C 0.15254 0.56569 0.28631 0.0
H221 H 0.49161 0.60064 0.26117 0.0
H222 H 0.42914 0.54338 0.26111 0.0
H223 H 0.44741 0.58778 0.30058 0.0
H224 H 0.42041 0.54405 0.31215 0.0
C225 C 0.41474 0.53618 0.30013 0.0
O226 O 0.4169 0.55113 0.28884 0.0
H227 H 0.42507 0.52932 0.29665 0.0
C228 C 0.47619 0.59026 0.26689 0.0
C229 C 0.47151 0.59636 0.28182 0.0
C230 C 0.461 0.57131 0.25909 0.0
C231 C 0.44094 0.55829 0.26664 0.0
C232 C 0.43608 0.56416 0.28158 0.0
C233 C 0.45123 0.58335 0.28902 0.0
Tb234 Tb 0.50133 0.99976 0.99633 0.0
C235 C 0.53723 0.06521 0.05263 0.0
C236 C 0.57515 0.0762 0.05599 0.0
C237 C 0.56164 0.09909 0.06547 0.0
C238 C 0.55419 0.06145 0.05034 0.0
C239 C 0.54074 0.08412 0.06012 0.0
C240 C 0.57871 0.09493 0.06368 0.0
C241 C 0.50225 0.07092 0.05825 0.0
N242 N 0.51706 0.04974 0.04829 0.0
C243 C 0.4995 0.05213 0.05137 0.0
C244 C 0.52297 0.08702 0.06263 0.0
Tb245 Tb 0.51411 0.01915 0.0378 0.0
N246 N 0.54973 0.04252 0.04386 0.0
C247 C 0.56562 0.03723 0.04297 0.0
C248 C 0.59163 0.07119 0.05446 0.0
C249 C 0.58682 0.05161 0.04791 0.0
H250 H 0.48333 0.0398 0.0482 0.0
H251 H 0.59937 0.04743 0.0469 0.0
H252 H 0.59442 0.10601 0.06874 0.0
H253 H 0.48835 0.07286 0.06034 0.0
H254 H 0.56216 0.02199 0.03832 0.0
H255 H 0.41581 0.97368 0.99135 0.0
H256 H 0.60794 0.08205 0.05867 0.0
H257 H 0.52902 0.97748 0.98269 0.0
H258 H 0.45442 0.99966 0.99537 0.0
H259 H 0.52135 0.94214 0.97321 0.0
H260 H 0.56464 0.11358 0.07149 0.0
H261 H 0.40422 0.93619 0.98515 0.0
H262 H 0.41472 0.90863 0.97884 0.0
H263 H 0.52501 0.10138 0.06826 0.0
H264 H 0.44354 0.90002 0.97378 0.0
N265 N 0.46496 0.97719 0.99184 0.0
C266 C 0.4498 0.98346 0.99257 0.0
C267 C 0.42128 0.94757 0.98688 0.0
C268 C 0.43697 0.94152 0.98516 0.0
C269 C 0.42777 0.96872 0.99032 0.0
C270 C 0.45892 0.95694 0.98763 0.0
H271 H 0.48345 0.91255 0.97136 0.0
N272 N 0.49582 0.96787 0.98654 0.0
C273 C 0.50814 0.9447 0.97651 0.0
C274 C 0.47497 0.95209 0.98485 0.0
C275 C 0.51242 0.96472 0.98183 0.0
C276 C 0.48673 0.92801 0.97553 0.0
C277 C 0.46978 0.93169 0.97946 0.0
O278 O 0.51947 0.00942 0.97475 0.0
O279 O 0.52482 0.02267 0.01301 0.0
O280 O 0.51442 0.04423 0.02329 0.0
O281 O 0.49185 0.0238 1.00202 0.0
O282 O 0.53652 0.01229 0.99499 0.0
O283 O 0.49173 0.01332 0.97788 0.0
O284 O 0.49485 0.00756 0.05875 0.0
O285 O 0.49086 0.99608 0.02111 0.0
O286 O 0.50319 0.97563 0.01076 0.0
O287 O 0.52505 0.99628 0.03225 0.0
O288 O 0.47896 0.00662 0.03875 0.0
O289 O 0.52383 0.00557 0.05616 0.0
C290 C 0.54221 0.02506 0.00716 0.0
C291 C 0.49964 0.00751 0.95118 0.0
C292 C 0.50053 0.01451 0.92204 0.0
C293 C 0.50754 0.02175 0.93805 0.0
C294 C 0.48581 0.99278 0.91945 0.0
C295 C 0.48485 0.98603 0.94819 0.0
C296 C 0.47807 0.97872 0.93243 0.0
C297 C 0.50162 0.04158 0.01076 0.0
C298 C 0.50673 0.01517 0.96792 0.0
C299 C 0.44791 0.91589 0.97773 0.0
C300 C 0.43151 0.92079 0.98061 0.0
C301 C 0.47338 0.99356 0.02682 0.0
C302 C 0.51323 0.00834 0.08283 0.0
C303 C 0.50206 0.99352 0.09519 0.0
C304 C 0.50681 0.99944 0.11167 0.0
C305 C 0.52305 0.02031 0.11551 0.0
C306 C 0.52934 0.02897 0.08705 0.0
C307 C 0.5342 0.0349 0.10328 0.0
C308 C 0.516 0.97864 0.02336 0.0
C309 C 0.50781 0.00214 0.06566 0.0
H310 H 0.51879 0.03842 0.94034 0.0
H311 H 0.4804 0.98657 0.90732 0.0
H312 H 0.47851 0.97488 0.95802 0.0
H313 H 0.46673 0.96206 0.93026 0.0
H314 H 0.48959 0.97755 0.09197 0.0
H315 H 0.52742 0.0253 0.128 0.0
H316 H 0.53825 0.04049 0.07786 0.0
H317 H 0.54673 0.05087 0.1064 0.0
Tb318 Tb 0.02507 0.50641 0.99085 0.0
C319 C 0.9536 0.47556 0.04109 0.0
C320 C 0.94194 0.50156 0.0407 0.0
C321 C 0.91619 0.46485 0.0473 0.0
C322 C 0.95816 0.49608 0.03859 0.0
C323 C 0.93272 0.45976 0.04586 0.0
C324 C 0.92079 0.48573 0.0447 0.0
C325 C 0.94664 0.43571 0.04873 0.0
N326 N 0.97007 0.4714 0.03967 0.0
C327 C 0.96712 0.45199 0.04407 0.0
C328 C 0.92929 0.43952 0.04943 0.0
Tb329 Tb 1.00274 0.49877 0.0311 0.0
N330 N 0.9788 0.51085 0.03477 0.0
C331 C 0.98462 0.53182 0.03403 0.0
C332 C 0.94757 0.52283 0.03906 0.0
C333 C 0.96909 0.53806 0.03594 0.0
H334 H 0.98039 0.44885 0.04345 0.0
H335 H 0.97371 0.55462 0.03491 0.0
H336 H 0.90803 0.48957 0.04618 0.0
H337 H 0.94425 0.42022 0.05175 0.0
H338 H 1.0011 0.54383 0.03148 0.0
H339 H 0.05658 0.45295 0.98512 0.0
H340 H 0.93558 0.5277 0.0405 0.0
H341 H 0.04528 0.55672 0.97959 0.0
H342 H 0.02927 0.46301 0.99171 0.0
H343 H 0.07924 0.58523 0.96837 0.0
H344 H 0.89996 0.45289 0.05078 0.0
H345 H 0.0925 0.47987 0.97488 0.0
H346 H 0.11657 0.51703 0.96488 0.0
H347 H 0.91346 0.42691 0.05311 0.0
H348 H 0.12355 0.55341 0.96153 0.0
N349 N 0.05005 0.49585 0.9867 0.0
C350 C 0.04508 0.47514 0.98777 0.0
C351 C 0.0808 0.48456 0.97826 0.0
C352 C 0.08546 0.50553 0.97646 0.0
C353 C 0.06051 0.4693 0.98395 0.0
C354 C 0.06969 0.51079 0.98109 0.0
H355 H 0.1098 0.57912 0.96294 0.0
N356 N 0.05658 0.53461 0.98146 0.0
C357 C 0.07779 0.57008 0.97119 0.0
C358 C 0.07312 0.53095 0.9784 0.0
C359 C 0.05847 0.55376 0.97754 0.0
C360 C 0.09502 0.56658 0.9682 0.0
C361 C 0.09264 0.54668 0.97146 0.0
O362 O 0.01416 0.51312 0.96914 0.0
O363 O 1.00006 0.50541 0.00612 0.0
O364 O 0.97885 0.47314 0.01577 0.0
O365 O 1.00135 0.47249 0.99561 0.0
O366 O 0.01155 0.5276 0.98853 0.0
O367 O 0.01391 0.48359 0.97212 0.0
O368 O 0.01213 0.49077 0.05294 0.0
O369 O 0.02777 0.49976 0.01586 0.0
O370 O 0.04936 0.53196 0.00599 0.0
O371 O 0.02716 0.53253 0.02648 0.0
O372 O 0.01616 0.47737 0.03329 0.0
O373 O 0.01415 0.52114 0.05015 0.0
C374 C 0.99755 0.51985 0.99992 0.0
C375 C 0.01856 0.49736 0.94559 0.0
C376 C 0.01159 0.49395 0.91643 0.0
C377 C 1.00413 0.49204 0.93247 0.0
C378 C 0.03379 0.50161 0.91375 0.0
C379 C 0.04051 0.50456 0.94262 0.0
C380 C 0.04809 0.50679 0.92679 0.0
C381 C 0.98266 0.46359 0.00357 0.0
C382 C 0.01043 0.4955 0.96222 0.0
C383 C 0.10861 0.54168 0.96717 0.0
C384 C 0.10481 0.52103 0.96934 0.0
C385 C 0.0303 0.48529 0.02195 0.0
C386 C 0.00776 0.50659 0.07647 0.0
C387 C 0.02205 0.5139 0.08976 0.0
C388 C 0.01411 0.51135 0.10573 0.0
C389 C 0.99153 0.50143 0.10805 0.0
C390 C 0.98541 0.49708 0.07909 0.0
C391 C 0.97736 0.49451 0.0948 0.0
C392 C 0.04572 0.54146 0.01832 0.0
C393 C 0.01646 0.50849 0.06004 0.0
H394 H 0.98708 0.48609 0.93481 0.0
H395 H 0.04016 0.5037 0.90158 0.0
H396 H 0.05179 0.50844 0.95244 0.0
H397 H 0.06512 0.51254 0.92463 0.0
H398 H 0.03934 0.52161 0.08759 0.0
H399 H 0.98471 0.49866 0.1201 0.0
H400 H 0.97417 0.49149 0.06908 0.0
H401 H 0.96005 0.48693 0.09674 0.0
Tb402 Tb 0.52599 0.51123 0.03324 0.0
C403 C 0.48412 0.53878 0.98068 0.0
C404 C 0.44608 0.51231 0.97981 0.0
C405 C 0.45771 0.54862 0.97203 0.0
C406 C 0.46777 0.51829 0.98335 0.0
C407 C 0.47939 0.55418 0.97479 0.0
C408 C 0.44107 0.52767 0.97446 0.0
C409 C 0.5179 0.57875 0.97341 0.0
N410 N 0.50482 0.54329 0.98308 0.0
C411 C 0.52176 0.56281 0.979 0.0
C412 C 0.49661 0.57448 0.97142 0.0
Tb413 Tb 0.50949 0.51626 0.99269 0.0
N414 N 0.47332 0.5039 0.98836 0.0
C415 C 0.45791 0.4829 0.98932 0.0
C416 C 0.43023 0.49093 0.98115 0.0
C417 C 0.4362 0.47616 0.98586 0.0
H418 H 0.53829 0.56636 0.98051 0.0
H419 H 0.42417 0.45952 0.98669 0.0
H420 H 0.42447 0.52342 0.97183 0.0
H421 H 0.53135 0.59431 0.97059 0.0
H422 H 0.46213 0.47119 0.99287 0.0
H423 H 0.61193 0.5684 0.03377 0.0
H424 H 0.41351 0.48565 0.97808 0.0
H425 H 0.49913 0.46261 0.0483 0.0
H426 H 0.57317 0.55676 0.03156 0.0
H427 H 0.50728 0.43523 0.05783 0.0
H428 H 0.4537 0.56024 0.9676 0.0
H429 H 0.62367 0.54239 0.03982 0.0
H430 H 0.61338 0.50493 0.04707 0.0
H431 H 0.49367 0.5868 0.96695 0.0
H432 H 0.58482 0.46859 0.05379 0.0
N433 N 0.56262 0.52414 0.03593 0.0
C434 C 0.57785 0.54514 0.0343 0.0
C435 C 0.60654 0.53714 0.03889 0.0
C436 C 0.59088 0.51593 0.04154 0.0
C437 C 0.59997 0.55186 0.03552 0.0
C438 C 0.56882 0.50995 0.04006 0.0
H439 H 0.54515 0.44253 0.05814 0.0
N440 N 0.53201 0.48509 0.04293 0.0
C441 C 0.52028 0.45045 0.05383 0.0
C442 C 0.55291 0.48964 0.04375 0.0
C443 C 0.51573 0.46604 0.04847 0.0
C444 C 0.54167 0.45461 0.05395 0.0
C445 C 0.55836 0.47453 0.04911 0.0
O446 O 0.50941 0.5045 0.05547 0.0
O447 O 0.50084 0.51035 0.01794 0.0
O448 O 0.5106 0.54162 0.00755 0.0
O449 O 0.53529 0.54433 0.0273 0.0
O450 O 0.49101 0.48934 0.03643 0.0
O451 O 0.53778 0.53489 0.05136 0.0
O452 O 0.52631 0.52342 0.97056 0.0
O453 O 0.53427 0.51664 0.00797 0.0
O454 O 0.52304 0.48468 0.01895 0.0
O455 O 0.49943 0.48297 0.99855 0.0
O456 O 0.54451 0.53804 0.98986 0.0
O457 O 0.49889 0.49238 0.97482 0.0
C458 C 0.48407 0.49593 0.02471 0.0
C459 C 0.5312 0.52204 0.07822 0.0
C460 C 0.52983 0.52609 0.1076 0.0
C461 C 0.52254 0.52686 0.09182 0.0
C462 C 0.54572 0.52014 0.10948 0.0
C463 C 0.54721 0.51645 0.08044 0.0
C464 C 0.55435 0.51543 0.09598 0.0
C465 C 0.52468 0.55216 0.01928 0.0
C466 C 0.52326 0.52273 0.06186 0.0
C467 C 0.58027 0.48003 0.04988 0.0
C468 C 0.59653 0.50071 0.04606 0.0
C469 C 0.55121 0.53085 1.00132 0.0
C470 C 0.50557 0.50433 0.94776 0.0
C471 C 0.51381 0.49791 0.93481 0.0
C472 C 0.50639 0.4973 0.91884 0.0
C473 C 0.49075 0.5034 0.91609 0.0
C474 C 0.48996 0.51024 0.9447 0.0
C475 C 0.48262 0.50979 0.92894 0.0
C476 C 0.50933 0.47464 0.00689 0.0
C477 C 0.51337 0.50474 0.96437 0.0
H478 H 0.5104 0.53151 0.09006 0.0
H479 H 0.55139 0.51894 0.12141 0.0
H480 H 0.55422 0.51289 0.07021 0.0
H481 H 0.56661 0.51094 0.09758 0.0
H482 H 0.52576 0.49316 0.9372 0.0
H483 H 0.48499 0.50352 0.90394 0.0
H484 H 0.48345 0.5152 0.95442 0.0
H485 H 0.47064 0.51448 0.92668 0.0
Tb486 Tb 0.16544 0.33284 0.3287 0.0
C487 C 0.2018 0.3974 0.38529 0.0
C488 C 0.24008 0.40941 0.38739 0.0
C489 C 0.22611 0.43148 0.39787 0.0
C490 C 0.219 0.39423 0.38227 0.0
C491 C 0.20511 0.41608 0.39306 0.0
C492 C 0.24348 0.42795 0.39532 0.0
C493 C 0.16636 0.4017 0.39265 0.0
N494 N 0.1816 0.38149 0.38149 0.0
C495 C 0.16384 0.38317 0.38544 0.0
C496 C 0.1871 0.41827 0.39645 0.0
Tb497 Tb 0.17909 0.35141 0.37031 0.0
N498 N 0.21474 0.37544 0.37564 0.0
C499 C 0.23095 0.37068 0.37412 0.0
C500 C 0.25689 0.40501 0.38512 0.0
C501 C 0.25228 0.38552 0.37848 0.0
H502 H 0.14768 0.37047 0.38273 0.0
H503 H 0.26508 0.38178 0.37693 0.0
H504 H 0.25931 0.43934 0.4 0.0
H505 H 0.15228 0.40308 0.39546 0.0
H506 H 0.22762 0.3555 0.36938 0.0
H507 H 0.07944 0.30521 0.32561 0.0
H508 H 0.27333 0.41627 0.38884 0.0
H509 H 0.19359 0.31186 0.31355 0.0
H510 H 0.11795 0.33165 0.32931 0.0
H511 H 0.18641 0.27713 0.30296 0.0
H512 H 0.22898 0.44581 0.40409 0.0
H513 H 0.06844 0.26813 0.31836 0.0
H514 H 0.07953 0.2414 0.31065 0.0
H515 H 0.18898 0.43243 0.40234 0.0
H516 H 0.10874 0.23374 0.30435 0.0
N517 N 0.12907 0.30984 0.32459 0.0
C518 C 0.1136 0.31564 0.32606 0.0
C519 C 0.08546 0.27971 0.31995 0.0
C520 C 0.10142 0.27418 0.31749 0.0
C521 C 0.09162 0.30063 0.324 0.0
C522 C 0.12332 0.28984 0.31982 0.0
H523 H 0.14872 0.24712 0.30114 0.0
N524 N 0.16034 0.30149 0.31804 0.0
C525 C 0.17308 0.27924 0.30677 0.0
C526 C 0.13958 0.2855 0.31639 0.0
C527 C 0.17708 0.29892 0.31272 0.0
C528 C 0.15179 0.26232 0.3058 0.0
C529 C 0.13467 0.26542 0.3104 0.0
O530 O 0.18341 0.34371 0.30711 0.0
O531 O 0.18907 0.35572 0.34532 0.0
O532 O 0.17806 0.37638 0.35655 0.0
O533 O 0.15539 0.35621 0.33524 0.0
O534 O 0.20064 0.34586 0.32688 0.0
O535 O 0.15484 0.3461 0.3107 0.0
O536 O 0.16099 0.33935 0.39174 0.0
O537 O 0.15568 0.32854 0.35365 0.0
O538 O 0.16811 0.30864 0.34233 0.0
O539 O 0.19022 0.32889 0.36387 0.0
O540 O 0.14386 0.33794 0.37213 0.0
O541 O 0.19008 0.33794 0.38784 0.0
C542 C 0.20644 0.35852 0.33913 0.0
C543 C 0.16303 0.34134 0.2838 0.0
C544 C 0.16468 0.34849 0.25466 0.0
C545 C 0.17142 0.35561 0.27073 0.0
C546 C 0.14975 0.32684 0.25195 0.0
C547 C 0.14796 0.31995 0.28071 0.0
C548 C 0.14146 0.31275 0.26489 0.0
C549 C 0.16492 0.37375 0.34426 0.0
C550 C 0.17002 0.34883 0.30057 0.0
C551 C 0.11289 0.24938 0.30876 0.0
C552 C 0.09627 0.25374 0.31234 0.0
C553 C 0.13821 0.32531 0.3599 0.0
C554 C 0.18088 0.34025 0.41499 0.0
C555 C 0.17263 0.3248 0.4273 0.0
C556 C 0.17895 0.33062 0.44362 0.0
C557 C 0.19334 0.3521 0.44737 0.0
C558 C 0.19529 0.36146 0.41912 0.0
C559 C 0.20143 0.36734 0.4352 0.0
C560 C 0.18095 0.31135 0.35486 0.0
C561 C 0.1745 0.33411 0.39792 0.0
H562 H 0.18285 0.37221 0.27311 0.0
H563 H 0.14455 0.3207 0.23978 0.0
H564 H 0.14118 0.3088 0.29049 0.0
H565 H 0.12993 0.29616 0.26264 0.0
H566 H 0.16165 0.30833 0.42414 0.0
H567 H 0.19819 0.35722 0.45979 0.0
H568 H 0.20186 0.37349 0.40996 0.0
H569 H 0.21249 0.38381 0.43825 0.0
Tb570 Tb 0.68654 0.83398 0.32812 0.0
C571 C 0.61804 0.81075 0.38004 0.0
C572 C 0.60574 0.83599 0.37639 0.0
C573 C 0.58098 0.8008 0.38678 0.0
C574 C 0.62203 0.83044 0.37516 0.0
C575 C 0.59765 0.79582 0.38628 0.0
C576 C 0.58501 0.82087 0.38182 0.0
C577 C 0.61239 0.77304 0.39228 0.0
N578 N 0.63462 0.80667 0.37943 0.0
C579 C 0.63235 0.78843 0.38601 0.0
C580 C 0.59487 0.77663 0.39223 0.0
Tb581 Tb 0.66648 0.83249 0.36848 0.0
N582 N 0.64235 0.84462 0.3702 0.0
C583 C 0.64787 0.86525 0.36742 0.0
C584 C 0.61099 0.85673 0.37258 0.0
C585 C 0.63224 0.8715 0.36833 0.0
H586 H 0.64576 0.78545 0.38599 0.0
H587 H 0.63659 0.88771 0.36568 0.0
H588 H 0.57219 0.82472 0.38264 0.0
H589 H 0.61053 0.75842 0.39712 0.0
H590 H 0.66415 0.87689 0.36402 0.0
H591 H 0.7187 0.7808 0.3271 0.0
H592 H 0.59893 0.86162 0.37329 0.0
H593 H 0.70577 0.88291 0.31367 0.0
H594 H 0.6922 0.79185 0.33373 0.0
H595 H 0.73786 0.90919 0.2989 0.0
H596 H 0.5651 0.78947 0.39137 0.0
H597 H 0.75237 0.80527 0.31262 0.0
H598 H 0.77435 0.84007 0.29821 0.0
H599 H 0.57945 0.76472 0.39713 0.0
H600 H 0.78023 0.87535 0.29135 0.0
N601 N 0.71142 0.82318 0.32453 0.0
C602 C 0.70713 0.80307 0.32795 0.0
C603 C 0.74108 0.81049 0.31595 0.0
C604 C 0.74495 0.8307 0.31179 0.0
C605 C 0.72207 0.79662 0.32408 0.0
C606 C 0.72974 0.83671 0.31647 0.0
H607 H 0.76686 0.9014 0.29173 0.0
N608 N 0.71666 0.86049 0.31568 0.0
C609 C 0.73655 0.89429 0.30246 0.0
C610 C 0.73247 0.85607 0.31189 0.0
C611 C 0.71829 0.87924 0.31083 0.0
C612 C 0.75291 0.88988 0.29849 0.0
C613 C 0.75086 0.87046 0.303 0.0
O614 O 0.67502 0.83666 0.30515 0.0
O615 O 0.66239 0.83528 0.34296 0.0
O616 O 0.64207 0.80425 0.35553 0.0
O617 O 0.66416 0.80118 0.33627 0.0
O618 O 0.67243 0.85423 0.32329 0.0
O619 O 0.67175 0.807 0.31325 0.0
O620 O 0.67698 0.82828 0.39134 0.0
O621 O 0.69083 0.83147 0.35366 0.0
O622 O 0.7117 0.8616 0.34112 0.0
O623 O 0.69025 0.86522 0.36076 0.0
O624 O 0.6808 0.81221 0.37315 0.0
O625 O 0.6789 0.8579 0.3851 0.0
C626 C 0.65922 0.84837 0.3352 0.0
C627 C 0.67406 0.81287 0.28507 0.0
C628 C 0.66383 0.80499 0.25663 0.0
C629 C 0.66045 0.81095 0.27206 0.0
C630 C 0.68122 0.80136 0.25422 0.0
C631 C 0.69145 0.8093 0.28246 0.0
C632 C 0.69506 0.80369 0.26707 0.0
C633 C 0.64559 0.7933 0.34428 0.0
C634 C 0.66874 0.81701 0.30137 0.0
C635 C 0.76619 0.8647 0.29843 0.0
C636 C 0.763 0.8447 0.30255 0.0
C637 C 0.69413 0.81835 0.36124 0.0
C638 C 0.67302 0.84773 0.4126 0.0
C639 C 0.68633 0.85204 0.42632 0.0
C640 C 0.67861 0.85272 0.44189 0.0
C641 C 0.65725 0.84881 0.44348 0.0
C642 C 0.6519 0.84415 0.41448 0.0
C643 C 0.64405 0.8446 0.42985 0.0
C644 C 0.7085 0.8729 0.35229 0.0
C645 C 0.68144 0.84697 0.3965 0.0
H646 H 0.64682 0.81344 0.27406 0.0
H647 H 0.68415 0.79684 0.24237 0.0
H648 H 0.70197 0.8104 0.29232 0.0
H649 H 0.70844 0.80088 0.26514 0.0
H650 H 0.70279 0.85516 0.4248 0.0
H651 H 0.65064 0.8488 0.45529 0.0
H652 H 0.64149 0.84107 0.40413 0.0
H653 H 0.62767 0.84167 0.43119 0.0
Tb654 Tb 0.18925 0.84253 0.36635 0.0
C655 C 0.14775 0.86945 0.31348 0.0
C656 C 0.11018 0.84171 0.31208 0.0
C657 C 0.12046 0.87753 0.30378 0.0
C658 C 0.13199 0.84864 0.31602 0.0
C659 C 0.14226 0.88416 0.30722 0.0
C660 C 0.10451 0.85627 0.306 0.0
C661 C 0.18048 0.90997 0.30614 0.0
N662 N 0.1687 0.87486 0.31604 0.0
C663 C 0.18513 0.89463 0.31192 0.0
C664 C 0.15893 0.90476 0.30389 0.0
Tb665 Tb 0.17479 0.84868 0.3254 0.0
N666 N 0.13834 0.83483 0.32098 0.0
C667 C 0.12359 0.81359 0.32167 0.0
C668 C 0.09489 0.82017 0.31358 0.0
C669 C 0.10168 0.80602 0.31824 0.0
H670 H 0.20184 0.89875 0.31352 0.0
H671 H 0.09006 0.78924 0.31913 0.0
H672 H 0.08792 0.85105 0.30252 0.0
H673 H 0.19351 0.92573 0.30328 0.0
H674 H 0.12841 0.80228 0.32512 0.0
H675 H 0.27546 0.89816 0.36914 0.0
H676 H 0.07794 0.81423 0.31074 0.0
H677 H 0.16058 0.79374 0.38092 0.0
H678 H 0.237 0.88737 0.36572 0.0
H679 H 0.16735 0.76576 0.39115 0.0
H680 H 0.11588 0.88853 0.29886 0.0
H681 H 0.286 0.87146 0.37598 0.0
H682 H 0.27444 0.83375 0.38348 0.0
H683 H 0.15537 0.91656 0.29914 0.0
H684 H 0.24494 0.79766 0.38968 0.0
N685 N 0.22554 0.85458 0.37007 0.0
C686 C 0.2412 0.87546 0.36875 0.0
C687 C 0.26902 0.86658 0.37447 0.0
C688 C 0.25287 0.84549 0.37684 0.0
C689 C 0.26313 0.8817 0.37066 0.0
C690 C 0.23104 0.83999 0.37461 0.0
H691 H 0.20488 0.77223 0.3929 0.0
N692 N 0.19391 0.81575 0.3765 0.0
C693 C 0.1808 0.78088 0.38745 0.0
C694 C 0.2146 0.81982 0.37804 0.0
C695 C 0.17703 0.79682 0.38167 0.0
C696 C 0.202 0.78457 0.38838 0.0
C697 C 0.21926 0.80435 0.38386 0.0
O698 O 0.1716 0.83596 0.38808 0.0
O699 O 0.1652 0.84226 0.35032 0.0
O700 O 0.1754 0.87376 0.34034 0.0
O701 O 0.19922 0.8759 0.36064 0.0
O702 O 0.15398 0.82087 0.36836 0.0
O703 O 0.20064 0.86598 0.38463 0.0
O704 O 0.19263 0.85749 0.3037 0.0
O705 O 0.19884 0.84867 0.34128 0.0
O706 O 0.1871 0.81619 0.35217 0.0
O707 O 0.16568 0.81542 0.33039 0.0
O708 O 0.20986 0.87089 0.32367 0.0
O709 O 0.16547 0.82595 0.30673 0.0
C710 C 0.14788 0.82788 0.35637 0.0
C711 C 0.19237 0.85298 0.41141 0.0
C712 C 0.19047 0.85777 0.44067 0.0
C713 C 0.18405 0.8589 0.42464 0.0
C714 C 0.20512 0.85035 0.44312 0.0
C715 C 0.2072 0.84601 0.41424 0.0
C716 C 0.21344 0.84462 0.43 0.0
C717 C 0.18899 0.88398 0.35242 0.0
C718 C 0.18541 0.854 0.39475 0.0
C719 C 0.24097 0.80937 0.3854 0.0
C720 C 0.25776 0.82991 0.38186 0.0
C721 C 0.21605 0.86321 0.33515 0.0
C722 C 0.17315 0.83954 0.28012 0.0
C723 C 0.18196 0.83382 0.26711 0.0
C724 C 0.1752 0.83403 0.25104 0.0
C725 C 0.15971 0.84031 0.24827 0.0
C726 C 0.15762 0.84553 0.27701 0.0
C727 C 0.151 0.84597 0.26118 0.0
C728 C 0.17482 0.80679 0.33928 0.0
C729 C 0.18028 0.83913 0.29682 0.0
H730 H 0.17285 0.86461 0.42242 0.0
H731 H 0.21002 0.84873 0.45523 0.0
H732 H 0.21396 0.84163 0.40432 0.0
H733 H 0.22475 0.83903 0.43206 0.0
H734 H 0.19379 0.82894 0.26953 0.0
H735 H 0.15447 0.84109 0.23608 0.0
H736 H 0.15059 0.84985 0.28677 0.0
H737 H 0.13908 0.85075 0.2589 0.0
Tb738 Tb 0.82687 0.66115 0.66085 0.0
C739 C 0.87266 0.72852 0.71411 0.0
C740 C 0.91022 0.73812 0.71135 0.0
C741 C 0.90109 0.76407 0.72149 0.0
C742 C 0.88794 0.72324 0.70967 0.0
C743 C 0.87896 0.74875 0.72058 0.0
C744 C 0.91672 0.75877 0.71684 0.0
C745 C 0.84129 0.73626 0.72647 0.0
N746 N 0.85155 0.71317 0.71322 0.0
C747 C 0.83591 0.71642 0.71996 0.0
C748 C 0.86288 0.75263 0.72652 0.0
Tb749 Tb 0.84397 0.68131 0.70198 0.0
N750 N 0.88088 0.70305 0.70468 0.0
C751 C 0.89547 0.69626 0.70237 0.0
C752 C 0.92521 0.73158 0.70797 0.0
C753 C 0.91778 0.71046 0.70372 0.0
H754 H 0.81916 0.70391 0.71985 0.0
H755 H 0.92921 0.7051 0.70141 0.0
H756 H 0.93376 0.77052 0.71801 0.0
H757 H 0.82878 0.73892 0.7314 0.0
H758 H 0.89019 0.68008 0.69898 0.0
H759 H 0.74148 0.63632 0.66015 0.0
H760 H 0.94248 0.74253 0.70904 0.0
H761 H 0.85311 0.63815 0.64567 0.0
H762 H 0.78043 0.66174 0.66322 0.0
H763 H 0.84421 0.60296 0.63511 0.0
H764 H 0.90629 0.77981 0.72623 0.0
H765 H 0.72894 0.59903 0.65247 0.0
H766 H 0.7384 0.5713 0.64419 0.0
H767 H 0.86702 0.76795 0.73162 0.0
H768 H 0.76641 0.56212 0.63745 0.0
N769 N 0.7902 0.63909 0.65772 0.0
C770 C 0.77536 0.6456 0.6598 0.0
C771 C 0.74614 0.61015 0.65379 0.0
C772 C 0.76144 0.60386 0.65082 0.0
C773 C 0.75316 0.63119 0.65809 0.0
C774 C 0.78359 0.61894 0.65281 0.0
H775 H 0.806 0.57389 0.63386 0.0
N776 N 0.82027 0.62914 0.65057 0.0
C777 C 0.83139 0.60569 0.63917 0.0
C778 C 0.79921 0.61375 0.64912 0.0
C779 C 0.83637 0.62567 0.64508 0.0
C780 C 0.8098 0.58935 0.63847 0.0
C781 C 0.79334 0.59337 0.64321 0.0
O782 O 0.84402 0.67109 0.63886 0.0
O783 O 0.85184 0.68437 0.67652 0.0
O784 O 0.84046 0.70565 0.68905 0.0
O785 O 0.81875 0.68586 0.66697 0.0
O786 O 0.86165 0.67295 0.65786 0.0
O787 O 0.8156 0.67368 0.64279 0.0
O788 O 0.82702 0.67105 0.72407 0.0
O789 O 0.81885 0.65861 0.68621 0.0
O790 O 0.8285 0.63654 0.67459 0.0
O791 O 0.85235 0.65681 0.69531 0.0
O792 O 0.80918 0.66964 0.70512 0.0
O793 O 0.85449 0.66724 0.71935 0.0
C794 C 0.86853 0.68642 0.6696 0.0
C795 C 0.82318 0.66858 0.61578 0.0
C796 C 0.82469 0.67565 0.58662 0.0
C797 C 0.8316 0.68277 0.60267 0.0
C798 C 0.80948 0.65405 0.584 0.0
C799 C 0.80786 0.64726 0.61278 0.0
C800 C 0.80113 0.64004 0.59699 0.0
C801 C 0.82808 0.70318 0.67623 0.0
C802 C 0.83051 0.67617 0.63247 0.0
C803 C 0.77129 0.57796 0.64182 0.0
C804 C 0.75535 0.58319 0.64564 0.0
C805 C 0.80215 0.6565 0.69314 0.0
C806 C 0.84804 0.67226 0.74665 0.0
C807 C 0.8393 0.6581 0.75978 0.0
C808 C 0.84714 0.66487 0.77572 0.0
C809 C 0.86352 0.68609 0.77824 0.0
C810 C 0.86452 0.6932 0.74956 0.0
C811 C 0.87211 0.70007 0.76527 0.0
C812 C 0.8417 0.63898 0.68675 0.0
C813 C 0.84006 0.66509 0.72999 0.0
H814 H 0.84324 0.69934 0.60501 0.0
H815 H 0.80415 0.64786 0.57187 0.0
H816 H 0.80105 0.63617 0.62261 0.0
H817 H 0.78941 0.62349 0.5948 0.0
H818 H 0.82673 0.64183 0.75753 0.0
H819 H 0.86961 0.69199 0.79032 0.0
H820 H 0.87159 0.70424 0.73972 0.0
H821 H 0.88474 0.71632 0.76739 0.0
Tb822 Tb 0.35326 0.16887 0.6601 0.0
C823 C 0.28492 0.13171 0.71356 0.0
C824 C 0.27137 0.1561 0.71608 0.0
C825 C 0.249 0.11947 0.72458 0.0
C826 C 0.28767 0.15165 0.71128 0.0
C827 C 0.26566 0.11541 0.72041 0.0
C828 C 0.25204 0.13988 0.7227 0.0
C829 C 0.28257 0.09385 0.7218 0.0
N830 N 0.30217 0.12908 0.71083 0.0
C831 C 0.30157 0.11076 0.71551 0.0
C832 C 0.2644 0.09607 0.72404 0.0
Tb833 Tb 0.33292 0.15768 0.70092 0.0
N834 N 0.30734 0.16725 0.70625 0.0
C835 C 0.31197 0.1879 0.70636 0.0
C836 C 0.27559 0.17701 0.71516 0.0
C837 C 0.29605 0.193 0.71038 0.0
H838 H 0.31555 0.10887 0.71399 0.0
H839 H 0.29969 0.20933 0.71002 0.0
H840 H 0.23986 0.14322 0.72727 0.0
H841 H 0.28203 0.0792 0.72503 0.0
H842 H 0.32781 0.20058 0.70302 0.0
H843 H 0.38698 0.11797 0.64955 0.0
H844 H 0.26346 0.18107 0.71867 0.0
H845 H 0.37149 0.21944 0.65077 0.0
H846 H 0.35884 0.12631 0.65763 0.0
H847 H 0.40489 0.24947 0.64011 0.0
H848 H 0.23423 0.1073 0.73012 0.0
H849 H 0.42261 0.1465 0.64017 0.0
H850 H 0.44598 0.1847 0.63216 0.0
H851 H 0.24985 0.08312 0.72922 0.0
H852 H 0.45156 0.22077 0.63064 0.0
N853 N 0.37884 0.15963 0.65417 0.0
C854 C 0.37449 0.13907 0.65399 0.0
C855 C 0.41054 0.15039 0.64415 0.0
C856 C 0.41455 0.17126 0.64358 0.0
C857 C 0.3904 0.13423 0.64935 0.0
C858 C 0.39827 0.17545 0.64893 0.0
H859 H 0.43635 0.24517 0.63363 0.0
N860 N 0.38404 0.19826 0.65116 0.0
C861 C 0.40408 0.23444 0.64219 0.0
C862 C 0.401 0.19552 0.64738 0.0
C863 C 0.3851 0.21728 0.64821 0.0
C864 C 0.42181 0.23195 0.63859 0.0
C865 C 0.42024 0.21219 0.64083 0.0
O866 O 0.34159 0.17704 0.63948 0.0
O867 O 0.32792 0.16501 0.67655 0.0
O868 O 0.30943 0.13089 0.68609 0.0
O869 O 0.3302 0.13456 0.66306 0.0
O870 O 0.33862 0.18919 0.66055 0.0
O871 O 0.34274 0.14801 0.6401 0.0
O872 O 0.34431 0.15034 0.72217 0.0
O873 O 0.35761 0.16072 0.68431 0.0
O874 O 0.3777 0.19363 0.67559 0.0
O875 O 0.35585 0.1921 0.69705 0.0
O876 O 0.34781 0.13751 0.70097 0.0
O877 O 0.34531 0.18022 0.71979 0.0
C878 C 0.32465 0.17962 0.67174 0.0
C879 C 0.34657 0.16416 0.61456 0.0
C880 C 0.33941 0.16389 0.58561 0.0
C881 C 0.33195 0.15972 0.60169 0.0
C882 C 0.36165 0.17254 0.58255 0.0
C883 C 0.36862 0.1724 0.61122 0.0
C884 C 0.37613 0.17666 0.59531 0.0
C885 C 0.31281 0.12363 0.67226 0.0
C886 C 0.33853 0.16039 0.63133 0.0
C887 C 0.43677 0.20827 0.63592 0.0
C888 C 0.43374 0.18777 0.63702 0.0
C889 C 0.36113 0.14633 0.68926 0.0
C890 C 0.34064 0.16619 0.74609 0.0
C891 C 0.35544 0.17377 0.75909 0.0
C892 C 0.34809 0.17284 0.77507 0.0
C893 C 0.32574 0.16394 0.77785 0.0
C894 C 0.31848 0.15755 0.74917 0.0
C895 C 0.31107 0.15635 0.76496 0.0
C896 C 0.37416 0.20206 0.68864 0.0
C897 C 0.3486 0.16796 0.7294 0.0
H898 H 0.31485 0.15325 0.60419 0.0
H899 H 0.36775 0.17571 0.57026 0.0
H900 H 0.38004 0.17548 0.62079 0.0
H901 H 0.3932 0.18307 0.59287 0.0
H902 H 0.37263 0.18075 0.75673 0.0
H903 H 0.31958 0.16268 0.79004 0.0
H904 H 0.30689 0.15185 0.73945 0.0
H905 H 0.2939 0.14956 0.7672 0.0
Tb906 Tb 0.8558 0.17408 0.69801 0.0
C907 C 0.81948 0.20617 0.64406 0.0
C908 C 0.78102 0.18124 0.64319 0.0
C909 C 0.79464 0.2177 0.63475 0.0
C910 C 0.80235 0.18612 0.64685 0.0
C911 C 0.81595 0.22212 0.63765 0.0
C912 C 0.77718 0.19726 0.63751 0.0
C913 C 0.85477 0.24488 0.63607 0.0
N914 N 0.83977 0.20964 0.64678 0.0
C915 C 0.85743 0.2285 0.6424 0.0
C916 C 0.83394 0.24177 0.63387 0.0
Tb917 Tb 0.84247 0.18179 0.65706 0.0
N918 N 0.80677 0.17102 0.65206 0.0
C919 C 0.79057 0.15029 0.65282 0.0
C920 C 0.7643 0.16026 0.64474 0.0
C921 C 0.76911 0.14467 0.64942 0.0
H922 H 0.87364 0.2312 0.64406 0.0
H923 H 0.75634 0.12829 0.65033 0.0
H924 H 0.76085 0.19385 0.63479 0.0
H925 H 0.8688 0.2599 0.63292 0.0
H926 H 0.79396 0.13799 0.65638 0.0
H927 H 0.94167 0.23149 0.70122 0.0
H928 H 0.74782 0.15592 0.64182 0.0
H929 H 0.82915 0.12574 0.71348 0.0
H930 H 0.90295 0.21993 0.69877 0.0
H931 H 0.83704 0.09759 0.72154 0.0
H932 H 0.79154 0.22978 0.62996 0.0
H933 H 0.9534 0.20507 0.70538 0.0
H934 H 0.94303 0.16702 0.71047 0.0
H935 H 0.83192 0.25445 0.62891 0.0
H936 H 0.91437 0.13028 0.71595 0.0
N937 N 0.89239 0.18698 0.70127 0.0
C938 C 0.90761 0.20811 0.70074 0.0
C939 C 0.93628 0.19986 0.70439 0.0
C940 C 0.92061 0.17843 0.70598 0.0
C941 C 0.92971 0.21481 0.7021 0.0
C942 C 0.89858 0.17253 0.70452 0.0
H943 H 0.87467 0.10424 0.72041 0.0
N944 N 0.86181 0.14772 0.70721 0.0
C945 C 0.85003 0.11281 0.71753 0.0
C946 C 0.88264 0.15205 0.70757 0.0
C947 C 0.84562 0.1288 0.713 0.0
C948 C 0.87127 0.11659 0.71682 0.0
C949 C 0.888 0.13661 0.71219 0.0
O950 O 0.83771 0.16611 0.71961 0.0
O951 O 0.83211 0.17495 0.68203 0.0
O952 O 0.84404 0.20754 0.6717 0.0
O953 O 0.86541 0.20755 0.69322 0.0
O954 O 0.82067 0.15266 0.69978 0.0
O955 O 0.86681 0.19628 0.71718 0.0
O956 O 0.86134 0.18865 0.63594 0.0
O957 O 0.86564 0.18027 0.67307 0.0
O958 O 0.85111 0.14681 0.68383 0.0
O959 O 0.83118 0.148 0.6616 0.0
O960 O 0.87772 0.20303 0.6559 0.0
O961 O 0.83135 0.1591 0.63824 0.0
C962 C 0.81478 0.16034 0.6881 0.0
C963 C 0.85818 0.18133 0.74335 0.0
C964 C 0.85446 0.1822 0.77275 0.0
C965 C 0.84873 0.1851 0.75699 0.0
C966 C 0.86982 0.17561 0.77465 0.0
C967 C 0.87366 0.17503 0.74556 0.0
C968 C 0.8794 0.17215 0.76113 0.0
C969 C 0.85639 0.21656 0.68464 0.0
C970 C 0.85145 0.18362 0.72693 0.0
C971 C 0.90988 0.14197 0.71266 0.0
C972 C 0.92619 0.16289 0.70955 0.0
C973 C 0.8832 0.19467 0.66729 0.0
C974 C 0.84207 0.17289 0.61184 0.0
C975 C 0.85256 0.16873 0.59913 0.0
C976 C 0.84808 0.17106 0.58286 0.0
C977 C 0.83282 0.17746 0.57952 0.0
C978 C 0.82681 0.1791 0.60821 0.0
C979 C 0.82225 0.18138 0.59213 0.0
C980 C 0.83863 0.13823 0.67092 0.0
C981 C 0.84749 0.17103 0.62876 0.0
H982 H 0.83675 0.18996 0.75532 0.0
H983 H 0.8747 0.17346 0.78663 0.0
H984 H 0.88133 0.17235 0.7353 0.0
H985 H 0.89135 0.16725 0.76272 0.0
H986 H 0.8644 0.16397 0.60192 0.0
H987 H 0.82881 0.17913 0.56714 0.0
H988 H 0.81839 0.18213 0.61774 0.0
H989 H 0.81044 0.18617 0.58943 0.0
H990 H 0.28388 0.82719 0.04863 0.0
H991 H 0.31705 0.85704 0.03775 0.0
H992 H 0.3516 0.8587 0.08132 0.0
H993 H 0.3183 0.82939 0.0924 0.0
H994 H 0.3625 0.89643 0.07459 0.0
H995 H 0.3579 0.83929 0.04297 0.0
H996 H 0.34117 0.80813 0.02476 0.0
H997 H 0.33477 0.84569 0.98746 0.0
H998 H 0.35119 0.87702 0.00554 0.0
H999 H 0.46624 0.95282 0.02371 0.0
H1000 H 0.43274 0.91984 0.02972 0.0
H1001 H 0.40044 0.95551 0.03909 0.0
H1002 H 0.43393 0.98851 0.03299 0.0
H1003 H 0.39016 0.89823 0.01912 0.0
H1004 H 0.37192 0.93711 0.07381 0.0
H1005 H 0.39199 0.96673 0.09308 0.0
H1006 H 0.44922 0.96208 0.08637 0.0
H1007 H 0.42943 0.93226 0.06728 0.0
C1008 C 0.29862 0.83382 0.0558 0.0
C1009 C 0.29847 0.82596 0.07138 0.0
C1010 C 0.31764 0.85086 0.04955 0.0
C1011 C 0.33705 0.86012 0.0586 0.0
C1012 C 0.33691 0.852 0.07408 0.0
C1013 C 0.31786 0.83521 0.08042 0.0
C1014 C 0.35726 0.8788 0.05233 0.0
C1015 C 0.36844 0.8967 0.06245 0.0
C1016 C 0.36547 0.87926 0.03658 0.0
C1017 C 0.35557 0.86045 0.02568 0.0
C1018 C 0.35276 0.84087 0.03094 0.0
C1019 C 0.34336 0.82318 0.02062 0.0
C1020 C 0.33685 0.82492 0.00498 0.0
C1021 C 0.33978 0.84436 0.99959 0.0
C1022 C 0.34915 0.86209 0.00987 0.0
C1023 C 0.45186 0.95359 0.02654 0.0
C1024 C 0.45261 0.97324 0.02763 0.0
C1025 C 0.4327 0.9347 0.03005 0.0
C1026 C 0.41411 0.9352 0.03503 0.0
C1027 C 0.41461 0.95474 0.03542 0.0
C1028 C 0.43372 0.97357 0.0319 0.0
C1029 C 0.3949 0.91572 0.04129 0.0
C1030 C 0.38402 0.8978 0.03121 0.0
C1031 C 0.38731 0.91491 0.05726 0.0
C1032 C 0.39923 0.93259 0.06898 0.0
C1033 C 0.38876 0.94235 0.07651 0.0
C1034 C 0.40009 0.95918 0.08739 0.0
C1035 C 0.42189 0.96633 0.0909 0.0
C1036 C 0.43237 0.95659 0.08359 0.0
C1037 C 0.4211 0.93974 0.07273 0.0
H1038 H 0.43064 0.97938 0.09931 0.0
H1039 H 0.32959 0.81121 0.99701 0.0
H1040 H 0.19135 0.48763 0.09397 0.0
H1041 H 0.16147 0.49091 0.08262 0.0
H1042 H 0.16977 0.46784 0.03652 0.0
H1043 H 0.19972 0.46439 0.04787 0.0
H1044 H 0.1625 0.50016 0.03225 0.0
H1045 H 0.12883 0.43558 0.06303 0.0
H1046 H 0.1219 0.41373 0.08748 0.0
H1047 H 0.1004 0.4515 0.11277 0.0
H1048 H 0.10751 0.47378 0.08853 0.0
H1049 H 0.03489 0.45103 0.02674 0.0
H1050 H 0.06788 0.45014 0.0334 0.0
H1051 H 0.10523 0.51829 0.02905 0.0
H1052 H 0.07239 0.51895 0.0215 0.0
H1053 H 0.09045 0.46381 0.05851 0.0
H1054 H 0.1482 0.53657 0.02798 0.0
H1055 H 0.16133 0.55704 1.00264 0.0
H1056 H 0.13728 0.49906 0.97545 0.0
H1057 H 0.12317 0.47832 1.00056 0.0
C1058 C 0.18681 0.48315 0.08142 0.0
C1059 C 0.19787 0.47549 0.07191 0.0
C1060 C 0.16965 0.48504 0.07494 0.0
C1061 C 0.16298 0.47925 0.05877 0.0
C1062 C 0.17449 0.47234 0.04905 0.0
C1063 C 0.19171 0.47045 0.05554 0.0
C1064 C 0.14397 0.48028 0.05205 0.0
C1065 C 0.14672 0.49214 0.038 0.0
C1066 C 0.1233 0.46992 0.05946 0.0
C1067 C 0.1189 0.45647 0.07401 0.0
C1068 C 0.12277 0.43932 0.07384 0.0
C1069 C 0.1188 0.42685 0.08766 0.0
C1070 C 0.11077 0.43126 0.10168 0.0
C1071 C 0.10665 0.44812 0.1019 0.0
C1072 C 0.11064 0.46067 0.08813 0.0
C1073 C 0.05028 0.46575 0.02673 0.0
C1074 C 0.05101 0.48499 0.02333 0.0
C1075 C 0.0692 0.46528 0.03063 0.0
C1076 C 0.08942 0.48412 0.03167 0.0
C1077 C 0.09023 0.50338 0.02787 0.0
C1078 C 0.07128 0.50379 0.02362 0.0
C1079 C 0.10877 0.48351 0.03843 0.0
C1080 C 0.10616 0.47181 0.05267 0.0
C1081 C 0.12956 0.49392 0.03117 0.0
C1082 C 0.13418 0.50597 0.016 0.0
C1083 C 0.14519 0.52824 0.01651 0.0
C1084 C 0.15287 0.53988 1.00222 0.0
C1085 C 0.15017 0.52936 0.98745 0.0
C1086 C 0.13929 0.50718 0.98689 0.0
C1087 C 0.13112 0.49547 1.00109 0.0
H1088 H 0.15645 0.53839 0.97643 0.0
H1089 H 0.1077 0.42158 0.11236 0.0
H1090 H 0.52001 0.72185 0.05876 0.0
H1091 H 0.51598 0.6893 0.04675 0.0
H1092 H 0.57569 0.70144 0.06962 0.0
H1093 H 0.58025 0.73441 0.08117 0.0
H1094 H 0.57313 0.6871 0.03929 0.0
H1095 H 0.52672 0.66637 0.08583 0.0
H1096 H 0.49774 0.66443 0.10327 0.0
H1097 H 0.45137 0.63396 0.06482 0.0
H1098 H 0.48016 0.63601 0.04706 0.0
H1099 H 0.55732 0.58233 0.03813 0.0
H1100 H 0.56243 0.61687 0.04637 0.0
H1101 H 0.50528 0.60434 0.01931 0.0
H1102 H 0.49996 0.56977 0.01106 0.0
H1103 H 0.50611 0.61896 0.0506 0.0
H1104 H 0.5529 0.63816 0.00456 0.0
H1105 H 0.58209 0.63926 0.98788 0.0
H1106 H 0.62806 0.67192 0.02616 0.0
H1107 H 0.59905 0.67071 0.0432 0.0
C1108 C 0.53244 0.71776 0.06104 0.0
C1109 C 0.55035 0.73064 0.07104 0.0
C1110 C 0.53002 0.69905 0.05429 0.0
C1111 C 0.54537 0.69277 0.05749 0.0
C1112 C 0.56359 0.70592 0.06705 0.0
C1113 C 0.56606 0.72465 0.07377 0.0
C1114 C 0.54216 0.67223 0.05126 0.0
C1115 C 0.55857 0.67218 0.0419 0.0
C1116 C 0.52299 0.6528 0.05441 0.0
C1117 C 0.50565 0.65156 0.06506 0.0
C1118 C 0.51038 0.65943 0.08105 0.0
C1119 C 0.49398 0.65828 0.091 0.0
C1120 C 0.47274 0.64914 0.08514 0.0
C1121 C 0.46784 0.64108 0.06933 0.0
C1122 C 0.48419 0.64222 0.05932 0.0
C1123 C 0.54588 0.58694 0.03387 0.0
C1124 C 0.52829 0.57334 0.02388 0.0
C1125 C 0.54888 0.60671 0.03854 0.0
C1126 C 0.5343 0.61318 0.03335 0.0
C1127 C 0.51672 0.59964 0.0234 0.0
C1128 C 0.5138 0.57994 0.01864 0.0
C1129 C 0.53708 0.63385 0.03869 0.0
C1130 C 0.5206 0.6339 0.04791 0.0
C1131 C 0.55622 0.65324 0.03549 0.0
C1132 C 0.57375 0.65417 0.02522 0.0
C1133 C 0.5692 0.64543 0.00948 0.0
C1134 C 0.58572 0.64609 0.99995 0.0
C1135 C 0.60691 0.65561 0.00597 0.0
C1136 C 0.61163 0.66454 0.02152 0.0
C1137 C 0.59516 0.66388 0.03112 0.0
H1138 H 0.61968 0.65611 0.99858 0.0
H1139 H 0.46006 0.64825 0.09287 0.0
H1140 H 0.80523 0.28937 0.96688 0.0
H1141 H 0.83434 0.32312 0.97756 0.0
H1142 H 0.88187 0.31072 0.95573 0.0
H1143 H 0.85299 0.27658 0.94573 0.0
H1144 H 0.89576 0.32765 0.98439 0.0
H1145 H 0.86609 0.3448 0.93835 0.0
H1146 H 0.83734 0.34494 0.92172 0.0
H1147 H 0.82352 0.37626 0.96019 0.0
H1148 H 0.85202 0.37605 0.97714 0.0
H1149 H 0.9853 0.43414 0.98421 0.0
H1150 H 0.95566 0.39917 0.97581 0.0
H1151 H 0.91032 0.41003 1.00278 0.0
H1152 H 0.93967 0.44489 0.01113 0.0
H1153 H 0.89519 0.39405 0.97213 0.0
H1154 H 0.9262 0.37783 0.01772 0.0
H1155 H 0.95577 0.37835 0.03369 0.0
H1156 H 0.96786 0.34577 0.99521 0.0
H1157 H 0.93857 0.34536 0.97888 0.0
C1158 C 0.82187 0.29366 0.96454 0.0
C1159 C 0.82666 0.28027 0.95525 0.0
C1160 C 0.83854 0.31312 0.97051 0.0
C1161 C 0.86038 0.31975 0.96721 0.0
C1162 C 0.8652 0.30612 0.95838 0.0
C1163 C 0.84859 0.28664 0.9525 0.0
C1164 C 0.87823 0.34098 0.97268 0.0
C1165 C 0.89571 0.34216 0.98153 0.0
C1166 C 0.87813 0.36001 0.96925 0.0
C1167 C 0.86103 0.3602 0.95907 0.0
C1168 C 0.85681 0.35157 0.94331 0.0
C1169 C 0.84058 0.35169 0.93382 0.0
C1170 C 0.82857 0.36055 0.93991 0.0
C1171 C 0.83281 0.36937 0.9555 0.0
C1172 C 0.84901 0.36927 0.96505 0.0
C1173 C 0.96903 0.42907 0.98837 0.0
C1174 C 0.96494 0.44228 0.99847 0.0
C1175 C 0.95211 0.40904 0.9836 0.0
C1176 C 0.93076 0.40189 0.98875 0.0
C1177 C 0.92663 0.41516 0.99867 0.0
C1178 C 0.94351 0.43507 0.00353 0.0
C1179 C 0.91266 0.38065 0.98374 0.0
C1180 C 0.89517 0.3795 0.97499 0.0
C1181 C 0.91283 0.36169 0.98717 0.0
C1182 C 0.93033 0.36175 0.99701 0.0
C1183 C 0.93528 0.37093 0.0126 0.0
C1184 C 0.95197 0.37118 0.02173 0.0
C1185 C 0.96372 0.36215 0.01545 0.0
C1186 C 0.95876 0.35279 1.00005 0.0
C1187 C 0.94211 0.35253 0.99086 0.0
H1188 H 0.97664 0.36235 0.02253 0.0
H1189 H 0.81601 0.36063 0.93255 0.0
H1190 H 0.74314 0.55438 0.98015 0.0
H1191 H 0.70919 0.55081 0.99039 0.0
H1192 H 0.67588 0.51571 0.94725 0.0
H1193 H 0.70998 0.52025 0.93673 0.0
H1194 H 0.6623 0.54045 0.95239 0.0
H1195 H 0.67041 0.49305 0.98746 0.0
H1196 H 0.6883 0.48118 0.00704 0.0
H1197 H 0.69253 0.52735 0.04165 0.0
H1198 H 0.67492 0.5397 0.02218 0.0
H1199 H 0.55926 0.49763 0.00493 0.0
H1200 H 0.59279 0.49757 0.99854 0.0
H1201 H 0.62315 0.56362 0.98552 0.0
H1202 H 0.58976 0.56382 0.99221 0.0
H1203 H 0.636 0.52017 0.00873 0.0
H1204 H 0.65026 0.56974 0.95016 0.0
H1205 H 0.62846 0.57546 0.92961 0.0
H1206 H 0.57366 0.51437 0.94012 0.0
H1207 H 0.59521 0.50816 0.96052 0.0
C1208 C 0.72849 0.54572 0.97296 0.0
C1209 C 0.72925 0.53761 0.95763 0.0
C1210 C 0.709 0.54359 0.97885 0.0
C1211 C 0.68965 0.53277 0.96974 0.0
C1212 C 0.69042 0.52426 0.95456 0.0
C1213 C 0.70995 0.52677 0.94855 0.0
C1214 C 0.66884 0.53106 0.97556 0.0
C1215 C 0.6567 0.53599 0.96473 0.0
C1216 C 0.66089 0.52478 0.99156 0.0
C1217 C 0.67156 0.51746 0.00328 0.0
C1218 C 0.67532 0.50079 0.99919 0.0
C1219 C 0.68538 0.49396 0.01028 0.0
C1220 C 0.69161 0.50355 0.02556 0.0
C1221 C 0.68773 0.51996 0.0298 0.0
C1222 C 0.6777 0.52688 0.01874 0.0
C1223 C 0.57323 0.51228 1.00117 0.0
C1224 C 0.57199 0.53088 0.99943 0.0
C1225 C 0.59241 0.51221 0.99743 0.0
C1226 C 0.61052 0.53056 0.99146 0.0
C1227 C 0.6094 0.54922 0.99002 0.0
C1228 C 0.59033 0.54934 0.99388 0.0
C1229 C 0.63006 0.52998 0.98563 0.0
C1230 C 0.64184 0.52464 0.99643 0.0
C1231 C 0.63728 0.53507 0.96943 0.0
C1232 C 0.62431 0.53862 0.957 0.0
C1233 C 0.63359 0.55751 0.94804 0.0
C1234 C 0.62127 0.56083 0.93642 0.0
C1235 C 0.59967 0.54532 0.93359 0.0
C1236 C 0.59036 0.52641 0.94235 0.0
C1237 C 0.60262 0.523 0.95396 0.0
H1238 H 0.59016 0.54792 0.9246 0.0
H1239 H 0.69939 0.49823 0.03413 0.0
H1240 H 0.51183 0.21705 0.96732 0.0
H1241 H 0.51547 0.18862 0.9799 0.0
H1242 H 0.45535 0.14201 0.95756 0.0
H1243 H 0.45108 0.17033 0.94559 0.0
H1244 H 0.45712 0.1312 0.9878 0.0
H1245 H 0.50496 0.1534 0.94209 0.0
H1246 H 0.53472 0.17881 0.92473 0.0
H1247 H 0.57977 0.19455 0.9642 0.0
H1248 H 0.55019 0.16942 0.98187 0.0
H1249 H 0.4709 0.04074 0.99032 0.0
H1250 H 0.46709 0.0708 0.98159 0.0
H1251 H 0.52194 0.11302 0.01132 0.0
H1252 H 0.52582 0.08308 0.02024 0.0
H1253 H 0.52364 0.12683 0.97887 0.0
H1254 H 0.47495 0.10197 0.02393 0.0
H1255 H 0.44477 0.07509 0.04018 0.0
H1256 H 0.40068 0.06291 1.00061 0.0
H1257 H 0.43069 0.08949 0.984 0.0
C1258 C 0.49926 0.20076 0.96523 0.0
C1259 C 0.48125 0.19598 0.95533 0.0
C1260 C 0.50147 0.18451 0.9723 0.0
C1261 C 0.48584 0.16316 0.96948 0.0
C1262 C 0.46766 0.15836 0.95985 0.0
C1263 C 0.46538 0.17458 0.95286 0.0
C1264 C 0.48847 0.14578 0.9764 0.0
C1265 C 0.47158 0.13015 0.98571 0.0
C1266 C 0.50751 0.14459 0.97395 0.0
C1267 C 0.52532 0.15971 0.96335 0.0
C1268 C 0.52118 0.16241 0.94711 0.0
C1269 C 0.53802 0.17673 0.9372 0.0
C1270 C 0.55911 0.18833 0.94337 0.0
C1271 C 0.56342 0.18558 0.95945 0.0
C1272 C 0.54662 0.17129 0.96941 0.0
C1273 C 0.48208 0.05639 0.99508 0.0
C1274 C 0.49864 0.05951 0.00599 0.0
C1275 C 0.47984 0.07352 0.99011 0.0
C1276 C 0.49419 0.09407 0.99587 0.0
C1277 C 0.51071 0.09726 0.00677 0.0
C1278 C 0.51282 0.0801 0.0119 0.0
C1279 C 0.49226 0.11229 0.99013 0.0
C1280 C 0.50927 0.12802 0.98104 0.0
C1281 C 0.47325 0.11344 0.99265 0.0
C1282 C 0.45512 0.0976 1.00266 0.0
C1283 C 0.45886 0.09344 0.01864 0.0
C1284 C 0.44178 0.07828 0.02793 0.0
C1285 C 0.42083 0.06727 0.02142 0.0
C1286 C 0.41692 0.07144 0.00562 0.0
C1287 C 0.43396 0.08657 0.99627 0.0
H1288 H 0.40762 0.05553 0.02863 0.0
H1289 H 0.57213 0.19941 0.93568 0.0
H1290 H 0.73748 0.15669 0.97129 0.0
H1291 H 0.70051 0.12891 0.97742 0.0
H1292 H 0.67994 0.17552 0.97795 0.0
H1293 H 0.71724 0.2035 0.97228 0.0
H1294 H 0.66369 0.15116 1.0027 0.0
H1295 H 0.66511 0.13746 0.94665 0.0
H1296 H 0.67899 0.13107 0.92115 0.0
H1297 H 0.67397 0.07431 0.94095 0.0
H1298 H 0.66036 0.0805 0.96666 0.0
H1299 H 0.55157 0.06662 0.00903 0.0
H1300 H 0.58624 0.09816 0.00296 0.0
H1301 H 0.61616 0.05937 0.99908 0.0
H1302 H 0.58116 0.02773 0.00428 0.0
H1303 H 0.62552 0.08208 0.97381 0.0
H1304 H 0.64129 0.11063 0.03297 0.0
H1305 H 0.63301 0.12343 0.05823 0.0
H1306 H 0.60419 0.15296 0.03059 0.0
H1307 H 0.61326 0.14113 0.00517 0.0
C1308 C 0.72499 0.16095 0.97243 0.0
C1309 C 0.73017 0.18221 0.97089 0.0
C1310 C 0.7038 0.14503 0.97588 0.0
C1311 C 0.68719 0.14994 0.97784 0.0
C1312 C 0.69235 0.17122 0.97636 0.0
C1313 C 0.71363 0.1872 0.973 0.0
C1314 C 0.66485 0.13304 0.98243 0.0
C1315 C 0.65523 0.13617 0.99619 0.0
C1316 C 0.65367 0.11336 0.97409 0.0
C1317 C 0.66187 0.10955 0.95864 0.0
C1318 C 0.66713 0.1237 0.94562 0.0
C1319 C 0.67492 0.1201 0.93112 0.0
C1320 C 0.6774 0.10232 0.92945 0.0
C1321 C 0.67205 0.08808 0.94227 0.0
C1322 C 0.66427 0.09162 0.9568 0.0
C1323 C 0.56568 0.06493 0.00742 0.0
C1324 C 0.56371 0.04471 0.00734 0.0
C1325 C 0.58567 0.08308 0.00399 0.0
C1326 C 0.60415 0.08142 1.00067 0.0
C1327 C 0.60227 0.06125 1.0015 0.0
C1328 C 0.58228 0.04314 0.00457 0.0
C1329 C 0.62473 0.09987 0.99451 0.0
C1330 C 0.63396 0.09707 0.9803 0.0
C1331 C 0.63541 0.11998 1.00225 0.0
C1332 C 0.62743 0.12459 0.0173 0.0
C1333 C 0.6329 0.11958 0.03234 0.0
C1334 C 0.62838 0.12694 0.04664 0.0
C1335 C 0.61799 0.13892 0.04602 0.0
C1336 C 0.61217 0.14363 0.03107 0.0
C1337 C 0.61714 0.13675 0.01672 0.0
H1338 H 0.61446 0.14456 0.05711 0.0
H1339 H 0.68343 0.09956 0.91821 0.0
H1340 H 0.80983 0.51111 0.98374 0.0
H1341 H 0.83898 0.50295 0.98841 0.0
H1342 H 0.88475 0.56231 0.96631 0.0
H1343 H 0.8556 0.57015 0.96131 0.0
H1344 H 0.89379 0.53326 0.95718 0.0
H1345 H 0.8788 0.55455 0.00867 0.0
H1346 H 0.85632 0.55282 0.03195 0.0
H1347 H 0.8423 0.48934 0.04201 0.0
H1348 H 0.86447 0.4906 0.01864 0.0
H1349 H 0.99351 0.55361 0.99198 0.0
H1350 H 0.96025 0.55477 0.98672 0.0
H1351 H 0.92196 0.48855 0.99891 0.0
H1352 H 0.95526 0.48712 0.00352 0.0
H1353 H 0.90741 0.51714 0.01296 0.0
H1354 H 0.92489 0.49721 0.9624 0.0
H1355 H 0.94875 0.50003 0.93979 0.0
H1356 H 0.95908 0.56194 0.92846 0.0
H1357 H 0.9356 0.55967 0.95121 0.0
C1358 C 0.82609 0.52224 0.97971 0.0
C1359 C 0.83042 0.54128 0.9722 0.0
C1360 C 0.8428 0.51768 0.9825 0.0
C1361 C 0.86429 0.53217 0.978 0.0
C1362 C 0.86842 0.55085 0.96997 0.0
C1363 C 0.85172 0.55535 0.96712 0.0
C1364 C 0.88261 0.52828 0.98189 0.0
C1365 C 0.89679 0.52991 0.96942 0.0
C1366 C 0.88643 0.52337 0.99778 0.0
C1367 C 0.87304 0.52257 0.01178 0.0
C1368 C 0.87076 0.54015 0.01576 0.0
C1369 C 0.85811 0.53927 0.02898 0.0
C1370 C 0.84782 0.52095 0.03841 0.0
C1371 C 0.85022 0.5035 0.03466 0.0
C1372 C 0.86283 0.50429 0.02143 0.0
C1373 C 0.97799 0.53935 0.9937 0.0
C1374 C 0.97705 0.52044 0.99862 0.0
C1375 C 0.959 0.54002 0.99067 0.0
C1376 C 0.93859 0.52177 0.99244 0.0
C1377 C 0.93752 0.50287 0.99757 0.0
C1378 C 0.95659 0.50211 1.00034 0.0
C1379 C 0.91856 0.52246 0.98831 0.0
C1380 C 0.90417 0.52028 1.00071 0.0
C1381 C 0.91458 0.52695 0.97239 0.0
C1382 C 0.92863 0.52835 0.95863 0.0
C1383 C 0.93241 0.51152 0.95519 0.0
C1384 C 0.94584 0.513 0.94233 0.0
C1385 C 0.95545 0.53117 0.93271 0.0
C1386 C 0.95163 0.54789 0.93593 0.0
C1387 C 0.93826 0.54651 0.9488 0.0
H1388 H 0.96582 0.53227 0.92275 0.0
H1389 H 0.83804 0.5203 0.04865 0.0
H1390 H 0.50131 0.29554 0.98708 0.0
H1391 H 0.50921 0.33194 0.99227 0.0
H1392 H 0.45847 0.32261 0.95878 0.0
H1393 H 0.45091 0.28635 0.95333 0.0
H1394 H 0.49339 0.362 0.9558 0.0
H1395 H 0.44906 0.31794 0.9992 0.0
H1396 H 0.43887 0.29206 0.02136 0.0
H1397 H 0.49785 0.33413 0.04674 0.0
H1398 H 0.50854 0.36015 0.0246 0.0
H1399 H 0.47871 0.4462 0.98574 0.0
H1400 H 0.47283 0.41125 0.97788 0.0
H1401 H 0.52514 0.4201 0.00946 0.0
H1402 H 0.53129 0.45501 0.01725 0.0
H1403 H 0.48906 0.38109 0.01296 0.0
H1404 H 0.53295 0.42565 0.96954 0.0
H1405 H 0.5418 0.45217 0.94803 0.0
H1406 H 0.48274 0.40963 0.92297 0.0
H1407 H 0.47337 0.38294 0.94447 0.0
C1408 C 0.49196 0.30137 0.98081 0.0
C1409 C 0.47522 0.28812 0.97011 0.0
C1410 C 0.49643 0.32209 0.98377 0.0
C1411 C 0.48414 0.32984 0.97613 0.0
C1412 C 0.46806 0.31691 0.96486 0.0
C1413 C 0.46366 0.29621 0.96185 0.0
C1414 C 0.48738 0.35103 0.98051 0.0
C1415 C 0.49222 0.36611 0.96826 0.0
C1416 C 0.48612 0.35648 0.99681 0.0
C1417 C 0.47969 0.34089 0.01017 0.0
C1418 C 0.45993 0.3216 0.00945 0.0
C1419 C 0.45405 0.30692 0.02201 0.0
C1420 C 0.46773 0.31143 0.03543 0.0
C1421 C 0.48729 0.33065 0.03633 0.0
C1422 C 0.49326 0.34538 0.02378 0.0
C1423 C 0.48896 0.44072 0.99102 0.0
C1424 C 0.50532 0.45333 1.00227 0.0
C1425 C 0.48562 0.42078 0.98648 0.0
C1426 C 0.49864 0.41318 0.99303 0.0
C1427 C 0.51487 0.42566 0.00431 0.0
C1428 C 0.51828 0.44559 0.00881 0.0
C1429 C 0.49524 0.39209 0.98831 0.0
C1430 C 0.4903 0.377 1.0005 0.0
C1431 C 0.49636 0.38668 0.97198 0.0
C1432 C 0.50235 0.40237 0.95871 0.0
C1433 C 0.52179 0.42198 0.95949 0.0
C1434 C 0.5269 0.43705 0.9473 0.0
C1435 C 0.51276 0.43265 0.93421 0.0
C1436 C 0.49362 0.41305 0.93317 0.0
C1437 C 0.48842 0.39793 0.94534 0.0
H1438 H 0.5167 0.44437 0.92482 0.0
H1439 H 0.46315 0.30004 0.04515 0.0
H1440 H 0.17731 0.73043 0.07348 0.0
H1441 H 0.14907 0.69373 0.06783 0.0
H1442 H 0.18889 0.68946 0.03035 0.0
H1443 H 0.21694 0.72638 0.0358 0.0
H1444 H 0.14907 0.67406 0.01946 0.0
H1445 H 0.18055 0.66381 0.06729 0.0
H1446 H 0.1937 0.66974 0.09557 0.0
H1447 H 0.12965 0.65083 0.11251 0.0
H1448 H 0.11616 0.64508 0.0843 0.0
H1449 H 0.08745 0.56284 0.00719 0.0
H1450 H 0.11625 0.59826 0.01473 0.0
H1451 H 0.07348 0.60417 0.04853 0.0
H1452 H 0.04429 0.56862 0.04092 0.0
H1453 H 0.11456 0.61841 0.06142 0.0
H1454 H 0.08364 0.62894 0.01289 0.0
H1455 H 0.07114 0.62232 0.98444 0.0
H1456 H 0.13536 0.63992 0.96874 0.0
H1457 H 0.14819 0.64637 0.99713 0.0
C1458 C 0.18002 0.72158 0.0641 0.0
C1459 C 0.19913 0.73127 0.05491 0.0
C1460 C 0.16394 0.70057 0.06093 0.0
C1461 C 0.16682 0.6887 0.04869 0.0
C1462 C 0.1862 0.69826 0.03979 0.0
C1463 C 0.20225 0.7193 0.04293 0.0
C1464 C 0.14929 0.66666 0.04471 0.0
C1465 C 0.14179 0.66184 0.02862 0.0
C1466 C 0.13934 0.65074 0.05668 0.0
C1467 C 0.1474 0.65424 0.07367 0.0
C1468 C 0.16931 0.6611 0.07704 0.0
C1469 C 0.17681 0.66439 0.09306 0.0
C1470 C 0.16253 0.66072 0.10583 0.0
C1471 C 0.1407 0.6537 0.1026 0.0
C1472 C 0.13311 0.65041 0.0866 0.0
C1473 C 0.08398 0.57167 0.01611 0.0
C1474 C 0.06334 0.56293 0.02323 0.0
C1475 C 0.10057 0.59196 0.02046 0.0
C1476 C 0.09698 0.60401 0.03206 0.0
C1477 C 0.0766 0.59518 0.03951 0.0
C1478 C 0.05991 0.57487 0.0351 0.0
C1479 C 0.11448 0.62591 0.03622 0.0
C1480 C 0.12192 0.63069 0.05231 0.0
C1481 C 0.1245 0.64176 0.02424 0.0
C1482 C 0.11684 0.638 0.00715 0.0
C1483 C 0.09507 0.63127 0.00338 0.0
C1484 C 0.08793 0.62759 0.98726 0.0
C1485 C 0.10246 0.63074 0.97479 0.0
C1486 C 0.12414 0.63753 0.97841 0.0
C1487 C 0.13136 0.64122 0.99451 0.0
H1488 H 0.0969 0.62788 0.96232 0.0
H1489 H 0.16837 0.66327 0.11822 0.0
H1490 H 0.30588 0.47527 0.08154 0.0
H1491 H 0.3427 0.48329 0.0743 0.0
H1492 H 0.32515 0.47647 0.02364 0.0
H1493 H 0.28853 0.4684 0.03085 0.0
H1494 H 0.34392 0.45394 0.0305 0.0
H1495 H 0.36008 0.52531 0.04077 0.0
H1496 H 0.36133 0.55467 0.05667 0.0
H1497 H 0.40008 0.54711 0.09312 0.0
H1498 H 0.39879 0.51749 0.07754 0.0
H1499 H 0.47137 0.52559 0.01854 0.0
H1500 H 0.43533 0.52137 0.02245 0.0
H1501 H 0.41169 0.45728 0.03881 0.0
H1502 H 0.44711 0.46101 0.03371 0.0
H1503 H 0.41333 0.51631 0.04798 0.0
H1504 H 0.36756 0.42864 0.03765 0.0
H1505 H 0.36415 0.40037 0.01907 0.0
H1506 H 0.38198 0.44322 0.97891 0.0
H1507 H 0.38567 0.47172 0.99741 0.0
C1508 C 0.3101 0.47595 0.06886 0.0
C1509 C 0.29437 0.47142 0.05677 0.0
C1510 C 0.33113 0.48052 0.06472 0.0
C1511 C 0.33686 0.48057 0.04838 0.0
C1512 C 0.32124 0.47652 0.03632 0.0
C1513 C 0.3003 0.47203 0.04045 0.0
C1514 C 0.35851 0.48345 0.0438 0.0
C1515 C 0.35906 0.46763 0.03436 0.0
C1516 C 0.37843 0.5013 0.04864 0.0
C1517 C 0.37914 0.51903 0.05806 0.0
C1518 C 0.3687 0.52978 0.05225 0.0
C1519 C 0.36945 0.54649 0.06119 0.0
C1520 C 0.38073 0.55271 0.07592 0.0
C1521 C 0.39132 0.54225 0.08172 0.0
C1522 C 0.39059 0.52551 0.07283 0.0
C1523 C 0.45826 0.51034 0.02232 0.0
C1524 C 0.46196 0.49337 0.02521 0.0
C1525 C 0.43763 0.50799 0.0248 0.0
C1526 C 0.4203 0.48877 0.0306 0.0
C1527 C 0.4242 0.47196 0.03366 0.0
C1528 C 0.44465 0.47419 0.03091 0.0
C1529 C 0.39875 0.48678 0.03463 0.0
C1530 C 0.39819 0.50266 0.04409 0.0
C1531 C 0.37873 0.46909 0.02971 0.0
C1532 C 0.37754 0.45237 0.01886 0.0
C1533 C 0.37098 0.43202 0.02487 0.0
C1534 C 0.36899 0.41599 0.01439 0.0
C1535 C 0.37307 0.42006 0.99784 0.0
C1536 C 0.37908 0.44015 0.99175 0.0
C1537 C 0.38136 0.4563 1.00224 0.0
H1538 H 0.37141 0.40761 0.98972 0.0
H1539 H 0.3813 0.56567 0.08281 0.0
H1540 H 0.52739 0.80857 0.04275 0.0
H1541 H 0.5185 0.83653 0.03756 0.0
H1542 H 0.57374 0.88043 0.06632 0.0
H1543 H 0.58228 0.85233 0.07184 0.0
H1544 H 0.53974 0.88521 0.07253 0.0
H1545 H 0.57564 0.88074 0.02468 0.0
H1546 H 0.58161 0.86287 1.00145 0.0
H1547 H 0.51838 0.84489 0.98271 0.0
H1548 H 0.51192 0.86242 0.00595 0.0
H1549 H 0.54791 0.98092 0.04328 0.0
H1550 H 0.55464 0.95218 0.05055 0.0
H1551 H 0.49995 0.90851 0.02124 0.0
H1552 H 0.49333 0.93716 0.01373 0.0
H1553 H 0.53333 0.90343 0.01566 0.0
H1554 H 0.49845 0.90997 0.06345 0.0
H1555 H 0.49333 0.92823 0.08682 0.0
H1556 H 0.55551 0.94299 0.10589 0.0
H1557 H 0.5612 0.9252 0.08248 0.0
C1558 C 0.53752 0.82419 0.04798 0.0
C1559 C 0.55561 0.82843 0.05752 0.0
C1560 C 0.53251 0.84015 0.04499 0.0
C1561 C 0.54567 0.86068 0.05134 0.0
C1562 C 0.56341 0.86474 0.06126 0.0
C1563 C 0.56834 0.84874 0.06433 0.0
C1564 C 0.54124 0.87803 0.04738 0.0
C1565 C 0.53857 0.88938 0.0601 0.0
C1566 C 0.53933 0.88319 0.03116 0.0
C1567 C 0.54321 0.87271 0.01714 0.0
C1568 C 0.56294 0.87284 0.01567 0.0
C1569 C 0.56643 0.86279 1.00249 0.0
C1570 C 0.55036 0.8527 0.99064 0.0
C1571 C 0.5308 0.85268 0.99191 0.0
C1572 C 0.52722 0.86268 0.00508 0.0
C1573 C 0.53729 0.96519 0.03841 0.0
C1574 C 0.52017 0.96136 0.02784 0.0
C1575 C 0.54109 0.94875 0.04265 0.0
C1576 C 0.52764 0.92812 0.0366 0.0
C1577 C 0.51054 0.92429 0.02605 0.0
C1578 C 0.50683 0.94073 0.02172 0.0
C1579 C 0.53173 0.91062 0.04081 0.0
C1580 C 0.5344 0.89925 0.02811 0.0
C1581 C 0.53373 0.90555 0.05706 0.0
C1582 C 0.53034 0.9164 0.0711 0.0
C1583 C 0.51113 0.91728 0.07253 0.0
C1584 C 0.50811 0.92754 0.08581 0.0
C1585 C 0.5241 0.93679 0.09782 0.0
C1586 C 0.54315 0.93584 0.09657 0.0
C1587 C 0.54628 0.92568 0.0833 0.0
H1588 H 0.52174 0.94464 0.10812 0.0
H1589 H 0.55309 0.84493 0.98044 0.0
H1590 H 0.94983 0.15907 0.38135 0.0
H1591 H 0.9831 0.18891 0.37051 0.0
H1592 H 0.01916 0.18531 0.41137 0.0
H1593 H 0.98573 0.15626 0.42254 0.0
H1594 H 0.03148 0.22352 0.40746 0.0
H1595 H 0.02258 0.16928 0.37061 0.0
H1596 H 1.004 0.14009 0.35081 0.0
H1597 H 0.99689 0.18201 0.31811 0.0
H1598 H 0.01516 0.2114 0.33781 0.0
H1599 H 0.13196 0.28512 0.35491 0.0
H1600 H 0.0991 0.25139 0.36037 0.0
H1601 H 0.066 0.2851 0.37382 0.0
H1602 H 0.09874 0.3189 0.36793 0.0
H1603 H 0.05468 0.23063 0.35004 0.0
H1604 H 0.04266 0.26467 0.41044 0.0
H1605 H 0.06517 0.29181 0.43085 0.0
H1606 H 0.12004 0.28557 0.41779 0.0
H1607 H 0.09781 0.25822 0.39751 0.0
C1608 C 0.96494 0.16456 0.38788 0.0
C1609 C 0.96524 0.15541 0.40277 0.0
C1610 C 0.984 0.18156 0.38166 0.0
C1611 C 1.00385 0.18938 0.39 0.0
C1612 C 1.00414 0.17977 0.40469 0.0
C1613 C 0.98505 0.1631 0.41106 0.0
C1614 C 0.02407 0.20823 0.38396 0.0
C1615 C 0.03644 0.22491 0.3949 0.0
C1616 C 0.03108 0.21013 0.36764 0.0
C1617 C 0.02004 0.19249 0.35577 0.0
C1618 C 0.01689 0.17224 0.35925 0.0
C1619 C 1.00645 0.15566 0.34804 0.0
C1620 C 0.99922 0.15918 0.33323 0.0
C1621 C 1.00247 0.1793 0.32959 0.0
C1622 C 0.01288 0.19593 0.34078 0.0
C1623 C 0.11752 0.28536 0.35845 0.0
C1624 C 0.1178 0.30467 0.36064 0.0
C1625 C 0.09873 0.26603 0.36165 0.0
C1626 C 0.08014 0.26574 0.36756 0.0
C1627 C 0.08019 0.28497 0.36929 0.0
C1628 C 0.09886 0.30424 0.36592 0.0
C1629 C 0.06143 0.24571 0.37348 0.0
C1630 C 0.04949 0.22899 0.36257 0.0
C1631 C 0.05524 0.24334 0.38995 0.0
C1632 C 0.06861 0.25958 0.40233 0.0
C1633 C 0.0595 0.26905 0.41197 0.0
C1634 C 0.07222 0.28447 0.42351 0.0
C1635 C 0.09404 0.29047 0.42558 0.0
C1636 C 0.10317 0.281 0.41614 0.0
C1637 C 0.09052 0.26556 0.40461 0.0
H1638 H 0.10386 0.30242 0.43451 0.0
H1639 H 0.99114 0.14632 0.32457 0.0
H1640 H 0.85944 0.82352 0.42989 0.0
H1641 H 0.82978 0.82793 0.41948 0.0
H1642 H 0.83508 0.80386 0.37287 0.0
H1643 H 0.86512 0.79979 0.38321 0.0
H1644 H 0.82721 0.83524 0.36864 0.0
H1645 H 0.79553 0.77234 0.40163 0.0
H1646 H 0.79124 0.75241 0.42678 0.0
H1647 H 0.7731 0.79256 0.45245 0.0
H1648 H 0.77756 0.81292 0.42747 0.0
H1649 H 0.69939 0.7849 0.36802 0.0
H1650 H 0.73297 0.78497 0.37433 0.0
H1651 H 0.76929 0.85257 0.36638 0.0
H1652 H 0.73588 0.8521 0.3589 0.0
H1653 H 0.75741 0.80063 0.39812 0.0
H1654 H 0.81168 0.87107 0.3635 0.0
H1655 H 0.82106 0.8892 0.33703 0.0
H1656 H 0.79648 0.82908 0.31277 0.0
H1657 H 0.78572 0.81065 0.33904 0.0
C1658 C 0.85436 0.81924 0.41739 0.0
C1659 C 0.86455 0.8111 0.40743 0.0
C1660 C 0.83731 0.82172 0.41145 0.0
C1661 C 0.82974 0.81579 0.39546 0.0
C1662 C 0.84048 0.80847 0.38528 0.0
C1663 C 0.85772 0.80619 0.39118 0.0
C1664 C 0.81034 0.8167 0.38948 0.0
C1665 C 0.81194 0.82764 0.37512 0.0
C1666 C 0.79028 0.80682 0.3978 0.0
C1667 C 0.78706 0.79426 0.41272 0.0
C1668 C 0.79071 0.77697 0.41265 0.0
C1669 C 0.78825 0.7656 0.42688 0.0
C1670 C 0.78196 0.77125 0.44122 0.0
C1671 C 0.778 0.78822 0.44134 0.0
C1672 C 0.78047 0.79967 0.42715 0.0
C1673 C 0.71467 0.79964 0.36711 0.0
C1674 C 0.71497 0.81837 0.3626 0.0
C1675 C 0.73393 0.79974 0.37084 0.0
C1676 C 0.75407 0.81873 0.3707 0.0
C1677 C 0.75438 0.83749 0.36599 0.0
C1678 C 0.7351 0.83726 0.3618 0.0
C1679 C 0.77403 0.8189 0.37699 0.0
C1680 C 0.77261 0.80825 0.39158 0.0
C1681 C 0.7942 0.82885 0.36881 0.0
C1682 C 0.79736 0.83952 0.3531 0.0
C1683 C 0.8077 0.86175 0.35245 0.0
C1684 C 0.81323 0.87207 0.3375 0.0
C1685 C 0.80919 0.8603 0.3232 0.0
C1686 C 0.79928 0.83818 0.32382 0.0
C1687 C 0.79311 0.82776 0.3387 0.0
H1688 H 0.81383 0.86831 0.31164 0.0
H1689 H 0.78013 0.76247 0.45223 0.0
H1690 H 0.23638 0.06338 0.41652 0.0
H1691 H 0.23342 0.03112 0.40498 0.0
H1692 H 0.17157 0.01494 0.38377 0.0
H1693 H 0.17402 0.04686 0.39586 0.0
H1694 H 0.16985 0.98104 0.39742 0.0
H1695 H 0.21754 0.03467 0.36063 0.0
H1696 H 0.24934 0.06844 0.35245 0.0
H1697 H 0.2918 0.04816 0.37223 0.0
H1698 H 0.26023 0.01437 0.38074 0.0
H1699 H 0.16365 0.90099 0.3445 0.0
H1700 H 0.16738 0.9345 0.35397 0.0
H1701 H 0.22464 0.94765 0.38113 0.0
H1702 H 0.22102 0.91403 0.37176 0.0
H1703 H 0.22843 0.98305 0.36371 0.0
H1704 H 0.17985 0.92883 0.40005 0.0
H1705 H 0.14766 0.89487 0.40727 0.0
H1706 H 0.10622 0.91658 0.38784 0.0
H1707 H 0.13818 0.95036 0.37991 0.0
C1708 C 0.22203 0.05288 0.40954 0.0
C1709 C 0.20538 0.05768 0.40717 0.0
C1710 C 0.22048 0.03454 0.40278 0.0
C1711 C 0.20239 0.02073 0.39334 0.0
C1712 C 0.18571 0.02542 0.39097 0.0
C1713 C 0.18721 0.04375 0.39777 0.0
C1714 C 0.20075 1.00119 0.38621 0.0
C1715 C 0.1825 0.98152 0.38984 0.0
C1716 C 0.21747 1.00177 0.37659 0.0
C1717 C 0.23651 0.02206 0.37146 0.0
C1718 C 0.23366 0.03747 0.36336 0.0
C1719 C 0.25164 0.05661 0.35864 0.0
C1720 C 0.27258 0.06046 0.36185 0.0
C1721 C 0.27557 0.04517 0.36976 0.0
C1722 C 0.25764 0.02601 0.37452 0.0
C1723 C 0.17719 0.91108 0.35235 0.0
C1724 C 0.19204 0.90483 0.35741 0.0
C1725 C 0.17923 0.93019 0.35779 0.0
C1726 C 0.1962 0.94344 0.36833 0.0
C1727 C 0.21144 0.9376 0.37301 0.0
C1728 C 0.20928 0.91836 0.3677 0.0
C1729 C 0.19757 0.96303 0.37493 0.0
C1730 C 0.21577 0.98265 0.37123 0.0
C1731 C 0.18074 0.96241 0.3844 0.0
C1732 C 0.16146 0.94206 0.38918 0.0
C1733 C 0.16389 0.92626 0.39709 0.0
C1734 C 0.14567 0.90702 0.40131 0.0
C1735 C 0.1249 0.9035 0.39793 0.0
C1736 C 0.12232 0.91925 0.39036 0.0
C1737 C 0.14048 0.93843 0.38596 0.0
H1738 H 0.11081 0.88861 0.40123 0.0
H1739 H 0.28648 0.07529 0.35818 0.0
H1740 H 0.51271 0.60697 0.29007 0.0
H1741 H 0.54103 0.64041 0.30204 0.0
H1742 H 0.49659 0.66436 0.30279 0.0
H1743 H 0.46794 0.63058 0.29123 0.0
H1744 H 0.54291 0.69211 0.28792 0.0
H1745 H 0.50318 0.65387 0.33581 0.0
H1746 H 0.48645 0.62268 0.35372 0.0
H1747 H 0.54811 0.62635 0.35995 0.0
H1748 H 0.56513 0.65737 0.34186 0.0
H1749 H 0.60405 0.7725 0.35601 0.0
H1750 H 0.57374 0.73863 0.34682 0.0
H1751 H 0.61538 0.73213 0.3123 0.0
H1752 H 0.64602 0.76563 0.32175 0.0
H1753 H 0.56862 0.69641 0.34459 0.0
H1754 H 0.58452 0.7147 0.27675 0.0
H1755 H 0.60298 0.74603 0.25904 0.0
H1756 H 0.58953 0.78275 0.29303 0.0
H1757 H 0.57072 0.7516 0.31077 0.0
C1758 C 0.50897 0.61933 0.2929 0.0
C1759 C 0.48816 0.61623 0.2898 0.0
C1760 C 0.52513 0.6384 0.29969 0.0
C1761 C 0.52091 0.65485 0.30322 0.0
C1762 C 0.50016 0.65185 0.3001 0.0
C1763 C 0.48381 0.63256 0.29362 0.0
C1764 C 0.53824 0.67511 0.31025 0.0
C1765 C 0.54848 0.6931 0.30032 0.0
C1766 C 0.54554 0.67634 0.3264 0.0
C1767 C 0.53537 0.65779 0.33735 0.0
C1768 C 0.51312 0.64789 0.34087 0.0
C1769 C 0.5036 0.63028 0.35108 0.0
C1770 C 0.5162 0.6225 0.35793 0.0
C1771 C 0.53836 0.63237 0.35462 0.0
C1772 C 0.54795 0.64998 0.3444 0.0
C1773 C 0.60697 0.76371 0.34672 0.0
C1774 C 0.62759 0.77188 0.33969 0.0
C1775 C 0.58955 0.74435 0.34144 0.0
C1776 C 0.59228 0.73296 0.32881 0.0
C1777 C 0.61291 0.74076 0.322 0.0
C1778 C 0.63041 0.75996 0.32743 0.0
C1779 C 0.57338 0.71339 0.32226 0.0
C1780 C 0.56296 0.69549 0.33222 0.0
C1781 C 0.56598 0.71225 0.30613 0.0
C1782 C 0.57636 0.73083 0.29515 0.0
C1783 C 0.58535 0.72941 0.28037 0.0
C1784 C 0.59592 0.74716 0.27034 0.0
C1785 C 0.59749 0.76639 0.27492 0.0
C1786 C 0.58837 0.76788 0.2895 0.0
C1787 C 0.57777 0.75018 0.29955 0.0
H1788 H 0.60573 0.78012 0.26716 0.0
H1789 H 0.5088 0.60886 0.36584 0.0
H1790 H 0.40205 0.90296 0.28676 0.0
H1791 H 0.3687 0.89937 0.29803 0.0
H1792 H 0.34795 0.83482 0.31152 0.0
H1793 H 0.3814 0.83829 0.30007 0.0
H1794 H 0.31514 0.83865 0.29639 0.0
H1795 H 0.36492 0.87228 0.34035 0.0
H1796 H 0.39891 0.89916 0.3534 0.0
H1797 H 0.38538 0.94825 0.33969 0.0
H1798 H 0.35145 0.9217 0.32634 0.0
H1799 H 0.22378 0.8298 0.33859 0.0
H1800 H 0.2575 0.82982 0.3331 0.0
H1801 H 0.28867 0.89629 0.32112 0.0
H1802 H 0.25508 0.8964 0.3271 0.0
H1803 H 0.31595 0.88876 0.33772 0.0
H1804 H 0.26871 0.85674 0.29171 0.0
H1805 H 0.23519 0.83087 0.27753 0.0
H1806 H 0.24411 0.77983 0.29399 0.0
H1807 H 0.27758 0.80541 0.30844 0.0
C1808 C 0.39042 0.88798 0.29214 0.0
C1809 C 0.39444 0.8709 0.29247 0.0
C1810 C 0.37138 0.88599 0.29868 0.0
C1811 C 0.35577 0.86686 0.30574 0.0
C1812 C 0.35972 0.84976 0.30617 0.0
C1813 C 0.37893 0.85181 0.29974 0.0
C1814 C 0.33524 0.86476 0.31232 0.0
C1815 C 0.31529 0.84934 0.30566 0.0
C1816 C 0.33536 0.879 0.32415 0.0
C1817 C 0.35571 0.89501 0.33223 0.0
C1818 C 0.36927 0.88883 0.34 0.0
C1819 C 0.38852 0.904 0.34748 0.0
C1820 C 0.39433 0.9254 0.34734 0.0
C1821 C 0.38087 0.93167 0.33977 0.0
C1822 C 0.36161 0.91656 0.33227 0.0
C1823 C 0.23791 0.84452 0.33517 0.0
C1824 C 0.23685 0.86322 0.33359 0.0
C1825 C 0.25719 0.84447 0.33182 0.0
C1826 C 0.27569 0.86301 0.32648 0.0
C1827 C 0.27472 0.88177 0.32524 0.0
C1828 C 0.25549 0.88183 0.32863 0.0
C1829 C 0.29585 0.86286 0.32162 0.0
C1830 C 0.31575 0.87789 0.32859 0.0
C1831 C 0.29567 0.84838 0.30996 0.0
C1832 C 0.27553 0.83297 0.30131 0.0
C1833 C 0.26344 0.83999 0.29242 0.0
C1834 C 0.24446 0.82538 0.28431 0.0
C1835 C 0.2375 0.80372 0.28489 0.0
C1836 C 0.24952 0.79662 0.29357 0.0
C1837 C 0.26849 0.81116 0.30171 0.0
H1838 H 0.22283 0.79244 0.27858 0.0
H1839 H 0.40924 0.93713 0.35313 0.0
H1840 H 0.1198 0.50367 0.27577 0.0
H1841 H 0.12332 0.47559 0.28873 0.0
H1842 H 0.18165 0.52234 0.31302 0.0
H1843 H 0.17903 0.55066 0.29921 0.0
H1844 H 0.18716 0.49148 0.3027 0.0
H1845 H 0.13205 0.49457 0.33308 0.0
H1846 H 0.09828 0.49538 0.33765 0.0
H1847 H 0.06131 0.43351 0.31603 0.0
H1848 H 0.0949 0.43245 0.31112 0.0
H1849 H 0.18732 0.41463 0.35553 0.0
H1850 H 0.1838 0.44474 0.34665 0.0
H1851 H 0.13209 0.40379 0.31401 0.0
H1852 H 0.13534 0.37347 0.32287 0.0
H1853 H 0.12427 0.4331 0.33096 0.0
H1854 H 0.18115 0.43204 0.29948 0.0
H1855 H 0.21517 0.43113 0.29706 0.0
H1856 H 0.24935 0.49012 0.32317 0.0
H1857 H 0.21542 0.49119 0.32599 0.0
C1858 C 0.13359 0.50807 0.28366 0.0
C1859 C 0.14918 0.52952 0.28636 0.0
C1860 C 0.1354 0.49194 0.29129 0.0
C1861 C 0.15253 0.49681 0.30211 0.0
C1862 C 0.16821 0.51817 0.3048 0.0
C1863 C 0.16656 0.53437 0.297 0.0
C1864 C 0.15415 0.47953 0.31038 0.0
C1865 C 0.17351 0.47894 0.30911 0.0
C1866 C 0.1363 0.46298 0.31864 0.0
C1867 C 0.11603 0.46351 0.32162 0.0
C1868 C 0.11673 0.4812 0.3292 0.0
C1869 C 0.09762 0.48169 0.33186 0.0
C1870 C 0.07766 0.46452 0.3271 0.0
C1871 C 0.07678 0.4468 0.3197 0.0
C1872 C 0.09585 0.44624 0.31699 0.0
C1873 C 0.17497 0.41191 0.34663 0.0
C1874 C 0.16165 0.39163 0.33986 0.0
C1875 C 0.17306 0.42918 0.34153 0.0
C1876 C 0.15783 0.42649 0.32958 0.0
C1877 C 0.14396 0.40616 0.32324 0.0
C1878 C 0.14591 0.38888 0.32827 0.0
C1879 C 0.15707 0.44502 0.32303 0.0
C1880 C 0.13791 0.4458 0.32464 0.0
C1881 C 0.17516 0.46185 0.31528 0.0
C1882 C 0.19572 0.46162 0.31306 0.0
C1883 C 0.1959 0.44478 0.30477 0.0
C1884 C 0.21517 0.44422 0.30333 0.0
C1885 C 0.2344 0.46054 0.30998 0.0
C1886 C 0.23443 0.47748 0.31803 0.0
C1887 C 0.21519 0.47808 0.31955 0.0
H1888 H 0.24929 0.46005 0.30887 0.0
H1889 H 0.06288 0.46494 0.32918 0.0
H1890 H 0.39914 0.49345 0.30232 0.0
H1891 H 0.36216 0.46529 0.30784 0.0
H1892 H 0.34065 0.51118 0.30766 0.0
H1893 H 0.37798 0.53958 0.30257 0.0
H1894 H 0.32441 0.4868 0.3325 0.0
H1895 H 0.32663 0.4731 0.27655 0.0
H1896 H 0.34112 0.46708 0.25123 0.0
H1897 H 0.33717 0.4109 0.27129 0.0
H1898 H 0.32295 0.41674 0.29684 0.0
H1899 H 0.21372 0.3994 0.34016 0.0
H1900 H 0.2473 0.43163 0.33314 0.0
H1901 H 0.28008 0.39543 0.32962 0.0
H1902 H 0.24612 0.36303 0.33569 0.0
H1903 H 0.28778 0.41743 0.30391 0.0
H1904 H 0.3045 0.4476 0.36286 0.0
H1905 H 0.29547 0.45969 0.38813 0.0
H1906 H 0.26235 0.48504 0.36065 0.0
H1907 H 0.27237 0.47414 0.33521 0.0
C1908 C 0.38645 0.49748 0.30314 0.0
C1909 C 0.39137 0.51866 0.30164 0.0
C1910 C 0.36525 0.48133 0.30625 0.0
C1911 C 0.34839 0.48594 0.30787 0.0
C1912 C 0.35327 0.50713 0.30632 0.0
C1913 C 0.37456 0.52334 0.30331 0.0
C1914 C 0.32611 0.46883 0.31232 0.0
C1915 C 0.31626 0.47176 0.32603 0.0
C1916 C 0.31536 0.44909 0.30404 0.0
C1917 C 0.32386 0.44546 0.28867 0.0
C1918 C 0.32899 0.45955 0.27561 0.0
C1919 C 0.33714 0.45615 0.26121 0.0
C1920 C 0.3401 0.43865 0.25966 0.0
C1921 C 0.33488 0.42447 0.27251 0.0
C1922 C 0.32674 0.4278 0.28695 0.0
C1923 C 0.22826 0.39845 0.33843 0.0
C1924 C 0.2274 0.37872 0.33873 0.0
C1925 C 0.2476 0.41701 0.33445 0.0
C1926 C 0.26655 0.41625 0.33099 0.0
C1927 C 0.2658 0.3966 0.33215 0.0
C1928 C 0.24642 0.37806 0.33573 0.0
C1929 C 0.28653 0.43508 0.32453 0.0
C1930 C 0.29588 0.43252 0.3103 0.0
C1931 C 0.29671 0.45525 0.33217 0.0
C1932 C 0.28858 0.45954 0.34727 0.0
C1933 C 0.29503 0.45549 0.36228 0.0
C1934 C 0.29005 0.46242 0.37659 0.0
C1935 C 0.27816 0.47295 0.37601 0.0
C1936 C 0.27144 0.47678 0.3611 0.0
C1937 C 0.27693 0.4704 0.34673 0.0
H1938 H 0.27421 0.4782 0.38713 0.0
H1939 H 0.34641 0.43605 0.2485 0.0
H1940 H 0.47149 0.83932 0.31864 0.0
H1941 H 0.50013 0.83057 0.32372 0.0
H1942 H 0.54491 0.88515 0.29599 0.0
H1943 H 0.51619 0.89352 0.29061 0.0
H1944 H 0.55223 0.85395 0.28994 0.0
H1945 H 0.54254 0.88502 0.33863 0.0
H1946 H 0.52242 0.88815 0.36175 0.0
H1947 H 0.50765 0.82653 0.37842 0.0
H1948 H 0.52745 0.82292 0.35526 0.0
H1949 H 0.65418 0.88031 0.32389 0.0
H1950 H 0.6204 0.8802 0.31801 0.0
H1951 H 0.58357 0.81623 0.33587 0.0
H1952 H 0.6174 0.81598 0.34116 0.0
H1953 H 0.5701 0.84753 0.3471 0.0
H1954 H 0.58332 0.81845 0.29927 0.0
H1955 H 0.60566 0.81729 0.27692 0.0
H1956 H 0.61537 0.87678 0.25917 0.0
H1957 H 0.59346 0.87855 0.2816 0.0
C1958 C 0.48738 0.84923 0.31346 0.0
C1959 C 0.49166 0.86721 0.30437 0.0
C1960 C 0.50382 0.84434 0.31646 0.0
C1961 C 0.52494 0.85743 0.31054 0.0
C1962 C 0.52887 0.87481 0.30079 0.0
C1963 C 0.51243 0.87963 0.29773 0.0
C1964 C 0.54317 0.85363 0.3149 0.0
C1965 C 0.55613 0.85266 0.30246 0.0
C1966 C 0.54819 0.85146 0.33121 0.0
C1967 C 0.5362 0.85357 0.34509 0.0
C1968 C 0.53482 0.87206 0.34714 0.0
C1969 C 0.52351 0.87393 0.36027 0.0
C1970 C 0.51369 0.85752 0.37151 0.0
C1971 C 0.51521 0.83921 0.36968 0.0
C1972 C 0.52647 0.83724 0.35655 0.0
C1973 C 0.63888 0.86629 0.32671 0.0
C1974 C 0.63849 0.84839 0.33344 0.0
C1975 C 0.6196 0.86623 0.32332 0.0
C1976 C 0.59946 0.84824 0.32653 0.0
C1977 C 0.59894 0.83035 0.3334 0.0
C1978 C 0.61829 0.83028 0.33655 0.0
C1979 C 0.57911 0.84817 0.32217 0.0
C1980 C 0.56589 0.84849 0.33459 0.0
C1981 C 0.57393 0.84987 0.30587 0.0
C1982 C 0.58688 0.84873 0.29222 0.0
C1983 C 0.59037 0.83139 0.29069 0.0
C1984 C 0.60293 0.8306 0.278 0.0
C1985 C 0.61194 0.84696 0.26666 0.0
C1986 C 0.60838 0.86413 0.26797 0.0
C1987 C 0.59588 0.86503 0.28067 0.0
H1988 H 0.62165 0.84631 0.25684 0.0
H1989 H 0.50495 0.85901 0.38167 0.0
H1990 H 0.13197 0.62681 0.27731 0.0
H1991 H 0.14046 0.66314 0.28366 0.0
H1992 H 0.16771 0.65988 0.32964 0.0
H1993 H 0.15892 0.62345 0.32336 0.0
H1994 H 0.14114 0.67469 0.3339 0.0
H1995 H 0.19939 0.68977 0.2984 0.0
H1996 H 0.21822 0.68869 0.27371 0.0
H1997 H 0.18604 0.71482 0.24606 0.0
H1998 H 0.16662 0.71563 0.27051 0.0
H1999 H 0.19314 0.78507 0.35265 0.0
H2000 H 0.18794 0.75061 0.34452 0.0
H2001 H 0.14604 0.74734 0.30544 0.0
H2002 H 0.15041 0.78156 0.31388 0.0
H2003 H 0.18074 0.73667 0.29771 0.0
H2004 H 0.12133 0.71945 0.33444 0.0
H2005 H 0.10625 0.72342 0.36024 0.0
H2006 H 0.14503 0.70349 0.38655 0.0
H2007 H 0.16058 0.69971 0.3609 0.0
C2008 C 0.13984 0.63397 0.28872 0.0
C2009 C 0.14446 0.62233 0.29999 0.0
C2010 C 0.14482 0.65472 0.29231 0.0
C2011 C 0.15477 0.66427 0.30713 0.0
C2012 C 0.15994 0.6528 0.31818 0.0
C2013 C 0.15494 0.63205 0.3146 0.0
C2014 C 0.15874 0.68576 0.31147 0.0
C2015 C 0.15004 0.68824 0.32604 0.0
C2016 C 0.17009 0.70347 0.30113 0.0
C2017 C 0.18129 0.70247 0.28628 0.0
C2018 C 0.19607 0.695 0.28702 0.0
C2019 C 0.2069 0.69449 0.27306 0.0
C2020 C 0.20326 0.70159 0.25831 0.0
C2021 C 0.18878 0.70924 0.25748 0.0
C2022 C 0.17784 0.70971 0.27139 0.0
C2023 C 0.1825 0.77695 0.34252 0.0
C2024 C 0.17179 0.78592 0.3342 0.0
C2025 C 0.17975 0.75733 0.33778 0.0
C2026 C 0.16655 0.74647 0.32445 0.0
C2027 C 0.1563 0.75556 0.31578 0.0
C2028 C 0.15875 0.77506 0.32068 0.0
C2029 C 0.16299 0.72529 0.31993 0.0
C2030 C 0.17178 0.72296 0.30542 0.0
C2031 C 0.15201 0.70777 0.33037 0.0
C2032 C 0.14225 0.70947 0.34577 0.0
C2033 C 0.12674 0.71604 0.34574 0.0
C2034 C 0.1181 0.71824 0.36033 0.0
C2035 C 0.12472 0.71376 0.37503 0.0
C2036 C 0.13993 0.70698 0.37515 0.0
C2037 C 0.14864 0.70477 0.36059 0.0
H2038 H 0.11804 0.71551 0.38631 0.0
H2039 H 0.21171 0.70124 0.24754 0.0
H2040 H 0.86238 0.06761 0.36188 0.0
H2041 H 0.83403 0.03121 0.35561 0.0
H2042 H 0.83494 0.01343 0.4053 0.0
H2043 H 0.86339 0.04997 0.41163 0.0
H2044 H 0.8311 0.98229 0.38365 0.0
H2045 H 0.79675 0.02341 0.39384 0.0
H2046 H 0.79051 0.0536 0.3905 0.0
H2047 H 0.77475 0.03742 0.34024 0.0
H2048 H 0.78121 0.0073 0.34324 0.0
H2049 H 0.70762 0.9024 0.37254 0.0
H2050 H 0.73753 0.93767 0.37953 0.0
H2051 H 0.77966 0.92829 0.34735 0.0
H2052 H 0.74999 0.89287 0.34049 0.0
H2053 H 0.76159 0.97257 0.36197 0.0
H2054 H 0.83002 0.95194 0.36331 0.0
H2055 H 0.83416 0.92075 0.36849 0.0
H2056 H 0.77883 0.89482 0.39984 0.0
H2057 H 0.77447 0.9259 0.39495 0.0
C2058 C 0.85679 0.05585 0.3714 0.0
C2059 C 0.86533 0.06153 0.38719 0.0
C2060 C 0.84053 0.03508 0.36782 0.0
C2061 C 0.83228 0.01959 0.38 0.0
C2062 C 0.84114 0.02507 0.3957 0.0
C2063 C 0.85738 0.04592 0.3993 0.0
C2064 C 0.81362 0.99805 0.37649 0.0
C2065 C 0.81593 0.98017 0.37888 0.0
C2066 C 0.79363 0.99518 0.37057 0.0
C2067 C 0.78967 0.01324 0.36873 0.0
C2068 C 0.79213 0.0264 0.38205 0.0
C2069 C 0.78852 0.04348 0.38022 0.0
C2070 C 0.78229 0.04746 0.36516 0.0
C2071 C 0.7796 0.03434 0.3519 0.0
C2072 C 0.78322 0.01725 0.35366 0.0
C2073 C 0.72322 0.90781 0.3669 0.0
C2074 C 0.72635 0.89473 0.35595 0.0
C2075 C 0.7403 0.92804 0.37089 0.0
C2076 C 0.76092 0.93558 0.36411 0.0
C2077 C 0.76399 0.92272 0.35293 0.0
C2078 C 0.74692 0.90249 0.34893 0.0
C2079 C 0.77919 0.95684 0.3688 0.0
C2080 C 0.77679 0.97468 0.36667 0.0
C2081 C 0.7989 0.95959 0.37524 0.0
C2082 C 0.80186 0.94119 0.37867 0.0
C2083 C 0.81883 0.93965 0.37139 0.0
C2084 C 0.82118 0.92196 0.37424 0.0
C2085 C 0.80675 0.90581 0.38447 0.0
C2086 C 0.78997 0.90732 0.39189 0.0
C2087 C 0.78753 0.92494 0.38906 0.0
H2088 H 0.80859 0.89214 0.38668 0.0
H2089 H 0.77949 0.06068 0.36377 0.0
H2090 H 0.95116 0.77336 0.38459 0.0
H2091 H 0.98804 0.78108 0.37903 0.0
H2092 H 0.01259 0.84662 0.39231 0.0
H2093 H 0.9754 0.83898 0.39739 0.0
H2094 H 0.03264 0.84551 0.36662 0.0
H2095 H 0.01935 0.81086 0.41734 0.0
H2096 H 0.99963 0.7831 0.43772 0.0
H2097 H 1.00379 0.73725 0.40733 0.0
H2098 H 0.02327 0.76467 0.38665 0.0
H2099 H 0.14198 0.86197 0.36096 0.0
H2100 H 0.1086 0.86115 0.36851 0.0
H2101 H 0.07319 0.79317 0.36161 0.0
H2102 H 0.10722 0.79392 0.35604 0.0
H2103 H 0.0607 0.79998 0.38731 0.0
H2104 H 0.05617 0.8384 0.33308 0.0
H2105 H 0.07227 0.86938 0.3148 0.0
H2106 H 0.10448 0.91075 0.35519 0.0
H2107 H 0.08699 0.88023 0.37383 0.0
C2108 C 0.96445 0.78935 0.3866 0.0
C2109 C 0.96036 0.80538 0.39194 0.0
C2110 C 0.98561 0.79377 0.38344 0.0
C2111 C 1.00336 0.81437 0.38559 0.0
C2112 C 0.9993 0.83054 0.3907 0.0
C2113 C 0.97803 0.82613 0.39375 0.0
C2114 C 0.02593 0.819 0.38188 0.0
C2115 C 0.03881 0.8356 0.37126 0.0
C2116 C 0.03432 0.80636 0.38797 0.0
C2117 C 0.02263 0.78981 0.40039 0.0
C2118 C 0.01592 0.79483 0.41495 0.0
C2119 C 1.00481 0.77916 0.42656 0.0
C2120 C 1.00043 0.75842 0.42381 0.0
C2121 C 0.00719 0.75332 0.40944 0.0
C2122 C 0.01829 0.76893 0.39778 0.0
C2123 C 0.12696 0.84695 0.36058 0.0
C2124 C 0.12714 0.82804 0.35741 0.0
C2125 C 0.1076 0.84648 0.36473 0.0
C2126 C 0.08775 0.82717 0.36521 0.0
C2127 C 0.08803 0.80839 0.36141 0.0
C2128 C 0.10749 0.80878 0.35804 0.0
C2129 C 0.06708 0.82575 0.37122 0.0
C2130 C 0.05452 0.80978 0.38249 0.0
C2131 C 0.05919 0.83924 0.36598 0.0
C2132 C 0.07114 0.85704 0.35471 0.0
C2133 C 0.06696 0.85408 0.33799 0.0
C2134 C 0.07607 0.87155 0.32761 0.0
C2135 C 0.0899 0.8919 0.33376 0.0
C2136 C 0.09406 0.89494 0.3504 0.0
C2137 C 0.08431 0.87764 0.36089 0.0
H2138 H 0.09712 0.90534 0.32565 0.0
H2139 H 0.99182 0.74631 0.43281 0.0
H2140 H 0.18259 0.13685 0.37374 0.0
H2141 H 0.17536 0.16601 0.36901 0.0
H2142 H 0.22458 0.20456 0.40419 0.0
H2143 H 0.2315 0.17521 0.40914 0.0
H2144 H 0.18955 0.21052 0.40607 0.0
H2145 H 0.23675 0.21023 0.36451 0.0
H2146 H 0.24786 0.1944 0.34274 0.0
H2147 H 0.19112 0.18084 0.31512 0.0
H2148 H 0.17952 0.19634 0.33684 0.0
H2149 H 0.20926 0.31125 0.37744 0.0
H2150 H 0.21347 0.28117 0.38549 0.0
H2151 H 0.16412 0.24108 0.35094 0.0
H2152 H 0.15966 0.27084 0.34293 0.0
H2153 H 0.19936 0.23623 0.34935 0.0
H2154 H 0.1526 0.23763 0.3905 0.0
H2155 H 0.14227 0.25484 0.41171 0.0
H2156 H 0.1982 0.26715 0.43987 0.0
H2157 H 0.20907 0.2503 0.41869 0.0
C2158 C 0.19171 0.15152 0.38051 0.0
C2159 C 0.20794 0.15407 0.39147 0.0
C2160 C 0.1876 0.16814 0.37782 0.0
C2161 C 0.19973 0.1876 0.38603 0.0
C2162 C 0.21513 0.18974 0.39766 0.0
C2163 C 0.21917 0.17307 0.4004 0.0
C2164 C 0.19736 0.20611 0.38165 0.0
C2165 C 0.1919 0.2163 0.39371 0.0
C2166 C 0.20015 0.21347 0.36548 0.0
C2167 C 0.20716 0.20425 0.35237 0.0
C2168 C 0.22657 0.20373 0.35385 0.0
C2169 C 0.23297 0.19484 0.34151 0.0
C2170 C 0.22018 0.18657 0.32758 0.0
C2171 C 0.201 0.18723 0.32593 0.0
C2172 C 0.19451 0.19608 0.33824 0.0
C2173 C 0.19933 0.29605 0.37153 0.0
C2174 C 0.18427 0.29353 0.35941 0.0
C2175 C 0.2017 0.27886 0.3762 0.0
C2176 C 0.18899 0.25888 0.36889 0.0
C2177 C 0.17412 0.25639 0.35671 0.0
C2178 C 0.17169 0.27349 0.35207 0.0
C2179 C 0.19136 0.24055 0.3737 0.0
C2180 C 0.19692 0.23043 0.36171 0.0
C2181 C 0.18864 0.23333 0.38991 0.0
C2182 C 0.18178 0.24288 0.40291 0.0
C2183 C 0.16278 0.24411 0.40117 0.0
C2184 C 0.15682 0.25381 0.41319 0.0
C2185 C 0.16965 0.2622 0.42708 0.0
C2186 C 0.18834 0.26073 0.42906 0.0
C2187 C 0.19439 0.25107 0.41706 0.0
H2188 H 0.16504 0.26973 0.43636 0.0
H2189 H 0.22516 0.1797 0.31804 0.0
H2190 H 0.64602 0.49755 0.76125 0.0
H2191 H 0.67814 0.52772 0.7499 0.0
H2192 H 0.64846 0.51234 0.70242 0.0
H2193 H 0.61565 0.48288 0.71389 0.0
H2194 H 0.70745 0.53329 0.72928 0.0
H2195 H 0.66544 0.55706 0.68028 0.0
H2196 H 0.63015 0.55469 0.67511 0.0
H2197 H 0.61852 0.55226 0.72633 0.0
H2198 H 0.65385 0.55488 0.73179 0.0
H2199 H 0.79252 0.6155 0.6864 0.0
H2200 H 0.75868 0.58289 0.69127 0.0
H2201 H 0.73115 0.61924 0.71086 0.0
H2202 H 0.7645 0.65212 0.70434 0.0
H2203 H 0.70067 0.58696 0.69681 0.0
H2204 H 0.75603 0.59546 0.73519 0.0
H2205 H 0.79238 0.60133 0.74205 0.0
H2206 H 0.77794 0.54383 0.71704 0.0
H2207 H 0.74155 0.53772 0.70992 0.0
C2208 C 0.64613 0.50068 0.74842 0.0
C2209 C 0.62796 0.48784 0.73858 0.0
C2210 C 0.66471 0.51785 0.74189 0.0
C2211 C 0.66574 0.52262 0.72531 0.0
C2212 C 0.648 0.50933 0.71531 0.0
C2213 C 0.62928 0.49226 0.72187 0.0
C2214 C 0.68514 0.54181 0.71873 0.0
C2215 C 0.7059 0.54496 0.72214 0.0
C2216 C 0.68335 0.55731 0.70955 0.0
C2217 C 0.66216 0.55591 0.70642 0.0
C2218 C 0.65536 0.55607 0.69043 0.0
C2219 C 0.63536 0.55468 0.68745 0.0
C2220 C 0.62207 0.55324 0.70038 0.0
C2221 C 0.62879 0.55328 0.71632 0.0
C2222 C 0.64879 0.5547 0.71936 0.0
C2223 C 0.77908 0.61667 0.69113 0.0
C2224 C 0.78108 0.6365 0.69454 0.0
C2225 C 0.75974 0.59788 0.69425 0.0
C2226 C 0.74238 0.59842 0.70185 0.0
C2227 C 0.74421 0.61826 0.70499 0.0
C2228 C 0.76333 0.63707 0.70134 0.0
C2229 C 0.72294 0.57851 0.70746 0.0
C2230 C 0.70219 0.5752 0.70385 0.0
C2231 C 0.72476 0.5632 0.71689 0.0
C2232 C 0.74613 0.56619 0.72196 0.0
C2233 C 0.7606 0.58404 0.7312 0.0
C2234 C 0.78122 0.58743 0.7351 0.0
C2235 C 0.78748 0.57298 0.72995 0.0
C2236 C 0.77306 0.55501 0.72101 0.0
C2237 C 0.75242 0.55154 0.71708 0.0
H2238 H 0.80349 0.57569 0.73289 0.0
H2239 H 0.60658 0.55215 0.69805 0.0
H2240 H 0.52278 0.15103 0.76031 0.0
H2241 H 0.49295 0.15413 0.74865 0.0
H2242 H 0.50341 0.13323 0.70232 0.0
H2243 H 0.53319 0.12978 0.71398 0.0
H2244 H 0.49519 0.16569 0.69876 0.0
H2245 H 0.46253 0.0991 0.72688 0.0
H2246 H 0.45572 0.07585 0.75044 0.0
H2247 H 0.43141 0.1102 0.77723 0.0
H2248 H 0.43838 0.13386 0.75389 0.0
H2249 H 0.36728 0.11279 0.69147 0.0
H2250 H 0.40083 0.11277 0.69762 0.0
H2251 H 0.43619 0.18121 0.69618 0.0
H2252 H 0.40268 0.18109 0.68928 0.0
H2253 H 0.42231 0.12532 0.72342 0.0
H2254 H 0.48214 0.20106 0.69515 0.0
H2255 H 0.49371 0.22236 0.67011 0.0
H2256 H 0.46536 0.16523 0.64146 0.0
H2257 H 0.45282 0.14369 0.66634 0.0
C2258 C 0.51872 0.14696 0.74765 0.0
C2259 C 0.53032 0.13986 0.73817 0.0
C2260 C 0.50164 0.14881 0.74097 0.0
C2261 C 0.49561 0.1436 0.72464 0.0
C2262 C 0.50767 0.1373 0.71496 0.0
C2263 C 0.52478 0.13541 0.72165 0.0
C2264 C 0.47646 0.14424 0.71779 0.0
C2265 C 0.47924 0.15684 0.70417 0.0
C2266 C 0.45555 0.13269 0.7247 0.0
C2267 C 0.45117 0.11837 0.7387 0.0
C2268 C 0.45587 0.10178 0.73784 0.0
C2269 C 0.45197 0.08852 0.75114 0.0
C2270 C 0.44319 0.09158 0.76534 0.0
C2271 C 0.43824 0.10787 0.76623 0.0
C2272 C 0.44215 0.1212 0.75297 0.0
C2273 C 0.38236 0.1278 0.69195 0.0
C2274 C 0.38232 0.14689 0.68966 0.0
C2275 C 0.40158 0.12782 0.69558 0.0
C2276 C 0.42135 0.14697 0.69741 0.0
C2277 C 0.42148 0.16612 0.69449 0.0
C2278 C 0.40219 0.16608 0.69056 0.0
C2279 C 0.44084 0.14665 0.70414 0.0
C2280 C 0.43819 0.1342 0.71793 0.0
C2281 C 0.46182 0.15817 0.69732 0.0
C2282 C 0.46626 0.17087 0.68249 0.0
C2283 C 0.47798 0.19312 0.68347 0.0
C2284 C 0.48471 0.20521 0.66933 0.0
C2285 C 0.48027 0.19516 0.6542 0.0
C2286 C 0.46868 0.173 0.65318 0.0
C2287 C 0.46146 0.16085 0.66727 0.0
H2288 H 0.4858 0.20453 0.64327 0.0
H2289 H 0.44018 0.08129 0.77563 0.0
H2290 H 0.87568 0.39967 0.71516 0.0
H2291 H 0.87208 0.36688 0.70401 0.0
H2292 H 0.866 0.34206 0.75223 0.0
H2293 H 0.86808 0.37409 0.76355 0.0
H2294 H 0.90112 0.34383 0.72557 0.0
H2295 H 0.82477 0.31901 0.73897 0.0
H2296 H 0.7919 0.32215 0.7374 0.0
H2297 H 0.79329 0.31985 0.6854 0.0
H2298 H 0.82639 0.31703 0.68668 0.0
H2299 H 0.87652 0.23832 0.71244 0.0
H2300 H 0.87973 0.2713 0.72237 0.0
H2301 H 0.84752 0.27533 0.67923 0.0
H2302 H 0.84257 0.24145 0.66995 0.0
H2303 H 0.83253 0.28572 0.70242 0.0
H2304 H 0.90508 0.30766 0.68705 0.0
H2305 H 0.93926 0.30689 0.68593 0.0
H2306 H 0.94782 0.31793 0.7373 0.0
H2307 H 0.91352 0.31847 0.73877 0.0
C2308 C 0.8731 0.38712 0.72343 0.0
C2309 C 0.87221 0.38966 0.74031 0.0
C2310 C 0.87129 0.36849 0.71701 0.0
C2311 C 0.86889 0.35224 0.72734 0.0
C2312 C 0.86799 0.35459 0.74412 0.0
C2313 C 0.86934 0.37299 0.75055 0.0
C2314 C 0.86748 0.33278 0.72062 0.0
C2315 C 0.88613 0.33094 0.72065 0.0
C2316 C 0.84812 0.31654 0.71366 0.0
C2317 C 0.82818 0.31809 0.71292 0.0
C2318 C 0.8182 0.31942 0.7272 0.0
C2319 C 0.7995 0.32108 0.72637 0.0
C2320 C 0.79056 0.32127 0.71131 0.0
C2321 C 0.80026 0.31974 0.69706 0.0
C2322 C 0.81898 0.3181 0.69783 0.0
C2323 C 0.87019 0.24624 0.705 0.0
C2324 C 0.85962 0.23733 0.6902 0.0
C2325 C 0.87221 0.26526 0.71066 0.0
C2326 C 0.86434 0.27618 0.70141 0.0
C2327 C 0.85386 0.26735 0.68659 0.0
C2328 C 0.8513 0.24803 0.68116 0.0
C2329 C 0.86624 0.29634 0.70745 0.0
C2330 C 0.84767 0.29846 0.70726 0.0
C2331 C 0.8859 0.31311 0.71387 0.0
C2332 C 0.90662 0.31292 0.71303 0.0
C2333 C 0.91417 0.30978 0.69812 0.0
C2334 C 0.93358 0.3094 0.69742 0.0
C2335 C 0.94568 0.31231 0.71154 0.0
C2336 C 0.93842 0.31566 0.72638 0.0
C2337 C 0.919 0.31603 0.72715 0.0
H2338 H 0.9607 0.312 0.71097 0.0
H2339 H 0.77607 0.32255 0.71068 0.0
H2340 H 0.15252 0.96575 0.59898 0.0
H2341 H 0.18236 0.99931 0.60915 0.0
H2342 H 0.17776 0.97085 0.65581 0.0
H2343 H 0.14771 0.93708 0.64567 0.0
H2344 H 0.18603 0.0125 0.65836 0.0
H2345 H 0.21496 0.97455 0.62879 0.0
H2346 H 0.21739 0.95561 0.60474 0.0
H2347 H 0.23774 0.01136 0.57587 0.0
H2348 H 0.23515 0.03055 0.59972 0.0
H2349 H 0.28879 0.08684 0.68904 0.0
H2350 H 0.25785 0.05387 0.6793 0.0
H2351 H 0.26667 0.08043 0.63136 0.0
H2352 H 0.2979 0.11349 0.6412 0.0
H2353 H 0.25582 0.04005 0.6292 0.0
H2354 H 0.2286 0.07884 0.65739 0.0
H2355 H 0.22605 0.09909 0.68043 0.0
H2356 H 0.20126 0.04378 0.71045 0.0
H2357 H 0.20435 0.02333 0.6877 0.0
C2358 C 0.15776 0.96664 0.61144 0.0
C2359 C 0.14793 0.94864 0.62145 0.0
C2360 C 0.17482 0.98586 0.61725 0.0
C2361 C 0.18261 0.98751 0.63315 0.0
C2362 C 0.17208 0.96993 0.64347 0.0
C2363 C 0.15489 0.95065 0.63768 0.0
C2364 C 0.20248 0.00717 0.63863 0.0
C2365 C 0.20136 0.01838 0.65214 0.0
C2366 C 0.22236 0.01522 0.6302 0.0
C2367 C 0.22471 0.00393 0.61601 0.0
C2368 C 0.21989 0.98275 0.6173 0.0
C2369 C 0.22129 0.97196 0.6037 0.0
C2370 C 0.22767 0.98226 0.58878 0.0
C2371 C 0.23279 0.0034 0.58744 0.0
C2372 C 0.23139 0.01425 0.601 0.0
C2373 C 0.28404 0.08575 0.67651 0.0
C2374 C 0.29546 0.10292 0.66603 0.0
C2375 C 0.26639 0.06682 0.67088 0.0
C2376 C 0.25953 0.06477 0.65465 0.0
C2377 C 0.27153 0.08161 0.64395 0.0
C2378 C 0.28939 0.1005 0.64958 0.0
C2379 C 0.23946 0.04535 0.64904 0.0
C2380 C 0.24053 0.0342 0.63548 0.0
C2381 C 0.21945 0.03756 0.65727 0.0
C2382 C 0.21685 0.04957 0.67085 0.0
C2383 C 0.2227 0.071 0.66892 0.0
C2384 C 0.22119 0.08253 0.68194 0.0
C2385 C 0.21342 0.07271 0.69689 0.0
C2386 C 0.20724 0.05135 0.69886 0.0
C2387 C 0.20891 0.03979 0.68591 0.0
H2388 H 0.21214 0.08162 0.70692 0.0
H2389 H 0.22866 0.97386 0.57825 0.0
H2390 H 0.06825 0.23234 0.61918 0.0
H2391 H 0.03483 0.22869 0.63055 0.0
H2392 H 0.01168 0.1626 0.64012 0.0
H2393 H 0.04537 0.16626 0.62892 0.0
H2394 H 0.98043 0.17152 0.62415 0.0
H2395 H 0.02734 0.19358 0.6709 0.0
H2396 H 0.06105 0.21639 0.68613 0.0
H2397 H 0.05234 0.27006 0.67886 0.0
H2398 H 0.01873 0.24763 0.66337 0.0
H2399 H 0.8887 0.15977 0.66808 0.0
H2400 H 0.92191 0.15879 0.66203 0.0
H2401 H 0.95643 0.22667 0.65554 0.0
H2402 H 0.92329 0.22764 0.66162 0.0
H2403 H 0.98135 0.21389 0.67175 0.0
H2404 H 0.9378 0.19511 0.6239 0.0
H2405 H 0.90463 0.17476 0.60751 0.0
H2406 H 0.90779 0.11799 0.61469 0.0
H2407 H 0.94083 0.13797 0.63146 0.0
C2408 C 0.05607 0.21703 0.62375 0.0
C2409 C 0.05949 0.19959 0.62315 0.0
C2410 C 0.03698 0.21498 0.63028 0.0
C2411 C 0.02069 0.19538 0.63622 0.0
C2412 C 0.02399 0.17788 0.63561 0.0
C2413 C 0.0433 0.18002 0.62931 0.0
C2414 C 1.00026 0.19332 0.64292 0.0
C2415 C 0.98055 0.18043 0.63476 0.0
C2416 C 1.00045 0.20544 0.65648 0.0
C2417 C 0.02061 0.21895 0.66585 0.0
C2418 C 0.03271 0.21028 0.67243 0.0
C2419 C 0.05178 0.22314 0.68113 0.0
C2420 C 0.05886 0.24467 0.68343 0.0
C2421 C 0.04685 0.25338 0.67706 0.0
C2422 C 0.02777 0.2406 0.66833 0.0
C2423 C 0.90348 0.17451 0.66572 0.0
C2424 C 0.90353 0.19387 0.66566 0.0
C2425 C 0.92244 0.17393 0.66213 0.0
C2426 C 0.94174 0.19267 0.65826 0.0
C2427 C 0.94185 0.21202 0.65857 0.0
C2428 C 0.9229 0.21257 0.662 0.0
C2429 C 0.96152 0.19216 0.65296 0.0
C2430 C 0.98114 0.20468 0.66131 0.0
C2431 C 0.96129 0.18001 0.6394 0.0
C2432 C 0.94158 0.16795 0.62919 0.0
C2433 C 0.93129 0.17823 0.62216 0.0
C2434 C 0.91252 0.16677 0.61279 0.0
C2435 C 0.90401 0.14505 0.61017 0.0
C2436 C 0.91433 0.13478 0.61685 0.0
C2437 C 0.93308 0.14616 0.62629 0.0
H2438 H 0.88949 0.13621 0.6029 0.0
H2439 H 0.07363 0.25459 0.69017 0.0
H2440 H 0.80419 0.86464 0.64454 0.0
H2441 H 0.80712 0.83543 0.65637 0.0
H2442 H 0.82473 0.82182 0.60974 0.0
H2443 H 0.82248 0.85139 0.59786 0.0
H2444 H 0.79233 0.78592 0.62538 0.0
H2445 H 0.86276 0.84616 0.63743 0.0
H2446 H 0.88785 0.88165 0.64868 0.0
H2447 H 0.86181 0.86036 0.69624 0.0
H2448 H 0.83634 0.8248 0.68522 0.0
H2449 H 0.82942 0.71614 0.64541 0.0
H2450 H 0.82629 0.74616 0.63592 0.0
H2451 H 0.81849 0.76112 0.68526 0.0
H2452 H 0.82218 0.73122 0.69481 0.0
H2453 H 0.84413 0.7962 0.66963 0.0
H2454 H 0.7747 0.73597 0.65855 0.0
H2455 H 0.7491 0.70025 0.64793 0.0
H2456 H 0.77156 0.72105 0.59954 0.0
H2457 H 0.79753 0.75682 0.6099 0.0
C2458 C 0.80903 0.85568 0.63683 0.0
C2459 C 0.81317 0.86044 0.62024 0.0
C2460 C 0.81057 0.83892 0.64361 0.0
C2461 C 0.81622 0.82656 0.63393 0.0
C2462 C 0.82027 0.83115 0.61738 0.0
C2463 C 0.81889 0.848 0.61061 0.0
C2464 C 0.81766 0.80863 0.641 0.0
C2465 C 0.8038 0.78815 0.63494 0.0
C2466 C 0.83212 0.81155 0.65383 0.0
C2467 C 0.84748 0.83289 0.66047 0.0
C2468 C 0.86226 0.8491 0.65026 0.0
C2469 C 0.87657 0.86922 0.6566 0.0
C2470 C 0.87638 0.87328 0.67315 0.0
C2471 C 0.86192 0.85721 0.68341 0.0
C2472 C 0.84755 0.83706 0.67713 0.0
C2473 C 0.82685 0.72572 0.65423 0.0
C2474 C 0.82586 0.72127 0.67086 0.0
C2475 C 0.82506 0.74288 0.6488 0.0
C2476 C 0.82168 0.75565 0.65984 0.0
C2477 C 0.82102 0.75144 0.67651 0.0
C2478 C 0.82317 0.7344 0.68198 0.0
C2479 C 0.81898 0.77341 0.65388 0.0
C2480 C 0.83253 0.79387 0.66015 0.0
C2481 C 0.80405 0.77045 0.64135 0.0
C2482 C 0.78817 0.74905 0.63503 0.0
C2483 C 0.77426 0.7329 0.64566 0.0
C2484 C 0.75968 0.71265 0.63968 0.0
C2485 C 0.75873 0.70838 0.62307 0.0
C2486 C 0.77232 0.72438 0.6124 0.0
C2487 C 0.78695 0.74466 0.61832 0.0
H2488 H 0.74745 0.69268 0.61847 0.0
H2489 H 0.88749 0.88887 0.67804 0.0
H2490 H 0.05061 0.86623 0.65831 0.0
H2491 H 0.01377 0.83791 0.66481 0.0
H2492 H 0.01629 0.80003 0.62542 0.0
H2493 H 0.05296 0.82851 0.61878 0.0
H2494 H 0.97724 0.79601 0.62659 0.0
H2495 H 0.02573 0.79211 0.66531 0.0
H2496 H 0.05385 0.80534 0.68666 0.0
H2497 H 0.01323 0.81789 0.71772 0.0
H2498 H 0.98496 0.805 0.69644 0.0
H2499 H 0.9063 0.69061 0.659 0.0
H2500 H 0.94049 0.72349 0.65384 0.0
H2501 H 0.91234 0.7602 0.67124 0.0
H2502 H 0.87779 0.72744 0.67561 0.0
H2503 H 0.96258 0.76608 0.68213 0.0
H2504 H 0.91502 0.7719 0.6417 0.0
H2505 H 0.88688 0.75667 0.62036 0.0
H2506 H 0.9263 0.73871 0.59283 0.0
H2507 H 0.95451 0.7535 0.61421 0.0
C2508 C 0.04319 0.85189 0.65101 0.0
C2509 C 0.05474 0.84934 0.63825 0.0
C2510 C 0.02219 0.83568 0.65476 0.0
C2511 C 0.01234 0.81659 0.64583 0.0
C2512 C 0.02353 0.8145 0.63257 0.0
C2513 C 0.04449 0.83073 0.62881 0.0
C2514 C 0.9907 0.79856 0.65051 0.0
C2515 C 0.97415 0.78954 0.63875 0.0
C2516 C 0.98637 0.79007 0.66642 0.0
C2517 C 1.00336 0.79786 0.6792 0.0
C2518 C 0.02288 0.79788 0.67663 0.0
C2519 C 0.03882 0.80528 0.68873 0.0
C2520 C 0.03536 0.81253 0.70352 0.0
C2521 C 0.01591 0.81233 0.70624 0.0
C2522 C 0.99992 0.80497 0.69417 0.0
C2523 C 0.90747 0.7057 0.66183 0.0
C2524 C 0.88954 0.70642 0.66812 0.0
C2525 C 0.92697 0.72443 0.65888 0.0
C2526 C 0.9289 0.74422 0.66217 0.0
C2527 C 0.91115 0.74505 0.66864 0.0
C2528 C 0.89148 0.72631 0.67129 0.0
C2529 C 0.94937 0.76391 0.65828 0.0
C2530 C 0.96571 0.77297 0.67011 0.0
C2531 C 0.95355 0.77242 0.64248 0.0
C2532 C 0.9367 0.76353 0.62963 0.0
C2533 C 0.91755 0.76445 0.6312 0.0
C2534 C 0.90162 0.75596 0.61908 0.0
C2535 C 0.90479 0.74668 0.60527 0.0
C2536 C 0.92387 0.74586 0.60355 0.0
C2537 C 0.93982 0.7543 0.61566 0.0
H2538 H 0.89251 0.74025 0.59587 0.0
H2539 H 0.04773 0.81824 0.71287 0.0
H2540 H 0.1839 0.23162 0.63759 0.0
H2541 H 0.21292 0.22373 0.64258 0.0
H2542 H 0.16653 0.15669 0.64064 0.0
H2543 H 0.13724 0.16467 0.6361 0.0
H2544 H 0.1917 0.16393 0.66519 0.0
H2545 H 0.20583 0.18333 0.6099 0.0
H2546 H 0.21192 0.20508 0.58551 0.0
H2547 H 0.26882 0.25648 0.60746 0.0
H2548 H 0.2629 0.23516 0.63208 0.0
H2549 H 0.28307 0.14482 0.67165 0.0
H2550 H 0.24945 0.14474 0.66491 0.0
H2551 H 0.28498 0.21318 0.66315 0.0
H2552 H 0.31853 0.2131 0.66899 0.0
H2553 H 0.26263 0.19982 0.63737 0.0
H2554 H 0.23003 0.18192 0.69596 0.0
H2555 H 0.2162 0.15923 0.72018 0.0
H2556 H 0.19311 0.10352 0.69031 0.0
H2557 H 0.20616 0.12595 0.66588 0.0
C2558 C 0.17993 0.21518 0.63788 0.0
C2559 C 0.15831 0.19877 0.63601 0.0
C2560 C 0.19659 0.21066 0.6407 0.0
C2561 C 0.19216 0.18956 0.64168 0.0
C2562 C 0.17052 0.1731 0.6398 0.0
C2563 C 0.15378 0.17765 0.63707 0.0
C2564 C 0.20991 0.1849 0.64576 0.0
C2565 C 0.20709 0.17155 0.65888 0.0
C2566 C 0.23015 0.19479 0.6377 0.0
C2567 C 0.23382 0.20768 0.62289 0.0
C2568 C 0.21956 0.19932 0.60957 0.0
C2569 C 0.22299 0.21157 0.5957 0.0
C2570 C 0.24073 0.23216 0.59495 0.0
C2571 C 0.25509 0.24053 0.60806 0.0
C2572 C 0.25171 0.22836 0.62197 0.0
C2573 C 0.28354 0.15983 0.67022 0.0
C2574 C 0.30345 0.17901 0.67097 0.0
C2575 C 0.2642 0.15981 0.66644 0.0
C2576 C 0.26435 0.17899 0.66357 0.0
C2577 C 0.28419 0.19811 0.66516 0.0
C2578 C 0.30344 0.1981 0.66859 0.0
C2579 C 0.24477 0.17957 0.65731 0.0
C2580 C 0.24721 0.19211 0.64362 0.0
C2581 C 0.2241 0.16873 0.66469 0.0
C2582 C 0.21962 0.15556 0.67924 0.0
C2583 C 0.22239 0.16485 0.69464 0.0
C2584 C 0.21436 0.15203 0.70834 0.0
C2585 C 0.20389 0.12994 0.70678 0.0
C2586 C 0.20137 0.12062 0.69151 0.0
C2587 C 0.20898 0.13336 0.67773 0.0
H2588 H 0.19776 0.12005 0.71743 0.0
H2589 H 0.24336 0.24161 0.58419 0.0
H2590 H 0.79684 0.94575 0.66227 0.0
H2591 H 0.8032 0.98142 0.66828 0.0
H2592 H 0.83262 0.00271 0.62138 0.0
H2593 H 0.826 0.96696 0.6152 0.0
H2594 H 0.85543 0.03166 0.64817 0.0
H2595 H 0.7838 0.99177 0.62447 0.0
H2596 H 0.74674 0.96115 0.62216 0.0
H2597 H 0.7329 0.97254 0.6706 0.0
H2598 H 0.77002 0.00306 0.67328 0.0
H2599 H 0.84919 0.12613 0.64298 0.0
H2600 H 0.84396 0.09086 0.63648 0.0
H2601 H 0.81143 0.06722 0.68215 0.0
H2602 H 0.81665 0.10241 0.6886 0.0
H2603 H 0.79078 0.03963 0.65599 0.0
H2604 H 0.86073 0.08045 0.67971 0.0
H2605 H 0.89749 0.11117 0.68289 0.0
H2606 H 0.91535 0.09754 0.63662 0.0
H2607 H 0.87832 0.0674 0.63273 0.0
C2608 C 0.80501 0.95815 0.65337 0.0
C2609 C 0.81142 0.95374 0.63845 0.0
C2610 C 0.80855 0.97845 0.65678 0.0
C2611 C 0.81842 0.99465 0.64528 0.0
C2612 C 0.82517 0.99043 0.63046 0.0
C2613 C 0.82142 0.97005 0.62697 0.0
C2614 C 0.82055 0.01564 0.64839 0.0
C2615 C 0.84135 0.03353 0.64965 0.0
C2616 C 0.80211 0.01783 0.65076 0.0
C2617 C 0.77975 0.99956 0.64913 0.0
C2618 C 0.77292 0.98763 0.63468 0.0
C2619 C 0.75189 0.97032 0.63329 0.0
C2620 C 0.73749 0.96487 0.64624 0.0
C2621 C 0.74408 0.97676 0.66059 0.0
C2622 C 0.7651 0.99408 0.66204 0.0
C2623 C 0.84069 0.11325 0.65148 0.0
C2624 C 0.83348 0.11678 0.66633 0.0
C2625 C 0.83782 0.09325 0.64782 0.0
C2626 C 0.82751 0.07657 0.65893 0.0
C2627 C 0.8195 0.07994 0.67348 0.0
C2628 C 0.82263 0.1 0.67721 0.0
C2629 C 0.82566 0.05575 0.65564 0.0
C2630 C 0.80491 0.03786 0.65442 0.0
C2631 C 0.84418 0.05359 0.6535 0.0
C2632 C 0.86654 0.0718 0.65579 0.0
C2633 C 0.87233 0.08421 0.67005 0.0
C2634 C 0.89324 0.10157 0.67198 0.0
C2635 C 0.9087 0.10643 0.6599 0.0
C2636 C 0.90329 0.0939 0.64589 0.0
C2637 C 0.8823 0.07673 0.64378 0.0
H2638 H 0.92491 0.11984 0.66143 0.0
H2639 H 0.72122 0.95146 0.64514 0.0
H2640 H 0.50996 0.39084 0.7442 0.0
H2641 H 0.48089 0.35415 0.73951 0.0
H2642 H 0.51573 0.34947 0.69846 0.0
H2643 H 0.54458 0.38628 0.70301 0.0
H2644 H 0.47488 0.3352 0.69043 0.0
H2645 H 0.51118 0.32348 0.73463 0.0
H2646 H 0.52722 0.32866 0.76196 0.0
H2647 H 0.46529 0.30977 0.78328 0.0
H2648 H 0.44894 0.30476 0.75605 0.0
H2649 H 0.41533 0.22475 0.67679 0.0
H2650 H 0.44371 0.2602 0.68451 0.0
H2651 H 0.40188 0.2634 0.72069 0.0
H2652 H 0.37292 0.22777 0.71277 0.0
H2653 H 0.44489 0.27838 0.73181 0.0
H2654 H 0.40884 0.2897 0.68705 0.0
H2655 H 0.3934 0.2843 0.65948 0.0
H2656 H 0.45587 0.30346 0.63908 0.0
H2657 H 0.47165 0.30871 0.66654 0.0
C2658 C 0.51141 0.38186 0.73426 0.0
C2659 C 0.5293 0.39143 0.72381 0.0
C2660 C 0.49487 0.36088 0.73163 0.0
C2661 C 0.49606 0.34895 0.71862 0.0
C2662 C 0.51433 0.35834 0.70851 0.0
C2663 C 0.53084 0.37932 0.71113 0.0
C2664 C 0.47784 0.3271 0.71504 0.0
C2665 C 0.46857 0.32273 0.69945 0.0
C2666 C 0.46909 0.3109 0.72689 0.0
C2667 C 0.47889 0.31398 0.74329 0.0
C2668 C 0.50102 0.32062 0.74514 0.0
C2669 C 0.51016 0.32349 0.76062 0.0
C2670 C 0.4973 0.31961 0.77435 0.0
C2671 C 0.47525 0.31281 0.77263 0.0
C2672 C 0.46603 0.30994 0.75717 0.0
C2673 C 0.41193 0.23297 0.68626 0.0
C2674 C 0.39158 0.22347 0.69391 0.0
C2675 C 0.4283 0.25328 0.69072 0.0
C2676 C 0.42487 0.26459 0.70304 0.0
C2677 C 0.40485 0.25498 0.7111 0.0
C2678 C 0.3883 0.23463 0.70653 0.0
C2679 C 0.4422 0.28656 0.7072 0.0
C2680 C 0.45124 0.29093 0.72286 0.0
C2681 C 0.45087 0.30277 0.6954 0.0
C2682 C 0.4414 0.29947 0.67886 0.0
C2683 C 0.41926 0.29261 0.67669 0.0
C2684 C 0.41046 0.28963 0.66108 0.0
C2685 C 0.42367 0.29361 0.64754 0.0
C2686 C 0.44568 0.30046 0.64958 0.0
C2687 C 0.45456 0.30345 0.66516 0.0
H2688 H 0.41682 0.29131 0.63547 0.0
H2689 H 0.5044 0.32182 0.78632 0.0
H2690 H 0.63406 0.12505 0.74562 0.0
H2691 H 0.67083 0.13387 0.73775 0.0
H2692 H 0.66334 0.15937 0.69262 0.0
H2693 H 0.62648 0.15027 0.70042 0.0
H2694 H 0.67807 0.13342 0.68681 0.0
H2695 H 0.6983 0.19147 0.72339 0.0
H2696 H 0.69891 0.20905 0.74916 0.0
H2697 H 0.72541 0.17509 0.77366 0.0
H2698 H 0.72468 0.15707 0.74807 0.0
H2699 H 0.80363 0.19129 0.68241 0.0
H2700 H 0.76789 0.1881 0.68642 0.0
H2701 H 0.74205 0.12324 0.70136 0.0
H2702 H 0.77707 0.12588 0.69629 0.0
H2703 H 0.74482 0.17171 0.72022 0.0
H2704 H 0.71387 0.10715 0.68293 0.0
H2705 H 0.71009 0.08951 0.65661 0.0
H2706 H 0.70126 0.1371 0.63291 0.0
H2707 H 0.70614 0.15563 0.65906 0.0
C2708 C 0.64043 0.13282 0.73413 0.0
C2709 C 0.62733 0.13676 0.72356 0.0
C2710 C 0.6615 0.13794 0.72964 0.0
C2711 C 0.67003 0.14735 0.71455 0.0
C2712 C 0.6572 0.15205 0.70428 0.0
C2713 C 0.63615 0.14692 0.70877 0.0
C2714 C 0.69162 0.1509 0.70898 0.0
C2715 C 0.69267 0.142 0.6941 0.0
C2716 C 0.71081 0.16198 0.71842 0.0
C2717 C 0.71126 0.17277 0.73383 0.0
C2718 C 0.7041 0.18761 0.73429 0.0
C2719 C 0.70449 0.19768 0.74887 0.0
C2720 C 0.71215 0.19315 0.76304 0.0
C2721 C 0.71947 0.17857 0.76267 0.0
C2722 C 0.71909 0.16844 0.74813 0.0
C2723 C 0.79008 0.17609 0.68584 0.0
C2724 C 0.79302 0.15859 0.68845 0.0
C2725 C 0.76967 0.17431 0.68825 0.0
C2726 C 0.75193 0.15514 0.6936 0.0
C2727 C 0.75503 0.13784 0.69643 0.0
C2728 C 0.7752 0.13947 0.69372 0.0
C2729 C 0.73105 0.15386 0.69825 0.0
C2730 C 0.73019 0.16326 0.71295 0.0
C2731 C 0.71197 0.1432 0.68868 0.0
C2732 C 0.71135 0.13328 0.67285 0.0
C2733 C 0.71205 0.11435 0.67205 0.0
C2734 C 0.70946 0.10405 0.65717 0.0
C2735 C 0.70566 0.1123 0.64306 0.0
C2736 C 0.70437 0.13082 0.64382 0.0
C2737 C 0.70729 0.14134 0.65864 0.0
H2738 H 0.70354 0.10424 0.63157 0.0
H2739 H 0.71245 0.20097 0.77431 0.0
H2740 H 0.89734 0.50655 0.73644 0.0
H2741 H 0.88861 0.53458 0.7313 0.0
H2742 H 0.83362 0.49099 0.70216 0.0
H2743 H 0.84269 0.46307 0.70704 0.0
H2744 H 0.8565 0.52733 0.68687 0.0
H2745 H 0.82719 0.5071 0.73997 0.0
H2746 H 0.82689 0.49902 0.76901 0.0
H2747 H 0.87814 0.56278 0.77815 0.0
H2748 H 0.87898 0.57117 0.74912 0.0
H2749 H 0.81567 0.5976 0.67777 0.0
H2750 H 0.8191 0.56712 0.68547 0.0
H2751 H 0.87608 0.60797 0.71386 0.0
H2752 H 0.87254 0.63863 0.70644 0.0
H2753 H 0.84973 0.57166 0.72972 0.0
H2754 H 0.88025 0.5906 0.67591 0.0
H2755 H 0.87981 0.59824 0.64685 0.0
H2756 H 0.82483 0.53607 0.63927 0.0
H2757 H 0.82482 0.52813 0.66834 0.0
C2758 C 0.88339 0.50302 0.72897 0.0
C2759 C 0.87088 0.48287 0.72187 0.0
C2760 C 0.8783 0.51894 0.72614 0.0
C2761 C 0.86037 0.51485 0.71642 0.0
C2762 C 0.84755 0.49452 0.70966 0.0
C2763 C 0.8527 0.47862 0.71243 0.0
C2764 C 0.85572 0.53209 0.71261 0.0
C2765 C 0.85465 0.53678 0.69626 0.0
C2766 C 0.85372 0.54469 0.72485 0.0
C2767 C 0.85328 0.5397 0.74233 0.0
C2768 C 0.83853 0.51935 0.74815 0.0
C2769 C 0.83824 0.51472 0.76461 0.0
C2770 C 0.85252 0.53036 0.77541 0.0
C2771 C 0.8671 0.55067 0.76977 0.0
C2772 C 0.86747 0.55538 0.75331 0.0
C2773 C 0.82905 0.60018 0.68555 0.0
C2774 C 0.84405 0.62062 0.69129 0.0
C2775 C 0.83094 0.5827 0.68997 0.0
C2776 C 0.84804 0.58533 0.70003 0.0
C2777 C 0.8628 0.60562 0.70604 0.0
C2778 C 0.86081 0.62313 0.70173 0.0
C2779 C 0.85079 0.56697 0.70402 0.0
C2780 C 0.85147 0.56209 0.72038 0.0
C2781 C 0.85235 0.55411 0.6918 0.0
C2782 C 0.85245 0.55883 0.67431 0.0
C2783 C 0.86801 0.5786 0.66806 0.0
C2784 C 0.86787 0.58297 0.65158 0.0
C2785 C 0.85232 0.56764 0.64122 0.0
C2786 C 0.83688 0.54791 0.64731 0.0
C2787 C 0.83696 0.54346 0.66378 0.0
H2788 H 0.85222 0.57106 0.62847 0.0
H2789 H 0.85227 0.52675 0.78815 0.0
H2790 H 0.44085 0.92107 0.25131 0.0
H2791 H 0.44981 0.937 0.2244 0.0
H2792 H 0.45983 0.88637 0.20752 0.0
H2793 H 0.45138 0.87066 0.23465 0.0
H2794 H 0.4897 0.92173 0.19529 0.0
H2795 H 0.41302 0.88875 0.19775 0.0
H2796 H 0.37746 0.87965 0.20914 0.0
H2797 H 0.39415 0.94503 0.20681 0.0
H2798 H 0.42996 0.95459 0.19562 0.0
H2799 H 0.49631 0.95766 0.11372 0.0
H2800 H 0.48158 0.93416 0.13723 0.0
H2801 H 0.47695 0.98323 0.16329 0.0
H2802 H 0.49131 0.00654 0.13986 0.0
H2803 H 0.44175 0.94402 0.16873 0.0
H2804 H 0.5205 0.97613 0.16864 0.0
H2805 H 0.55486 0.98365 0.15582 0.0
H2806 H 0.53197 0.91686 0.15204 0.0
H2807 H 0.49737 0.90894 0.1647 0.0
C2808 C 0.44489 0.91329 0.24185 0.0
C2809 C 0.44524 0.89451 0.24509 0.0
C2810 C 0.44994 0.92237 0.22642 0.0
C2811 C 0.45504 0.91268 0.21373 0.0
C2812 C 0.45586 0.89414 0.21703 0.0
C2813 C 0.45105 0.88518 0.23256 0.0
C2814 C 0.45969 0.92208 0.19713 0.0
C2815 C 0.47898 0.92623 0.1894 0.0
C2816 C 0.44582 0.92808 0.1893 0.0
C2817 C 0.42425 0.9224 0.19596 0.0
C2818 C 0.40917 0.90121 0.19977 0.0
C2819 C 0.38896 0.89597 0.20618 0.0
C2820 C 0.38357 0.91175 0.20873 0.0
C2821 C 0.39836 0.93282 0.20484 0.0
C2822 C 0.41861 0.93815 0.19845 0.0
C2823 C 0.49185 0.96329 0.12437 0.0
C2824 C 0.49537 0.98411 0.12501 0.0
C2825 C 0.48354 0.9499 0.13784 0.0
C2826 C 0.47849 0.95705 0.15215 0.0
C2827 C 0.48085 0.97738 0.15245 0.0
C2828 C 0.48923 0.99076 0.13907 0.0
C2829 C 0.47191 0.94405 0.16719 0.0
C2830 C 0.45227 0.93924 0.1746 0.0
C2831 C 0.48528 0.93717 0.17459 0.0
C2832 C 0.50631 0.94195 0.16748 0.0
C2833 C 0.52279 0.96305 0.16503 0.0
C2834 C 0.54229 0.96738 0.15779 0.0
C2835 C 0.54557 0.95074 0.15308 0.0
C2836 C 0.5294 0.92973 0.15568 0.0
C2837 C 0.50985 0.92531 0.1629 0.0
H2838 H 0.56066 0.95412 0.14744 0.0
H2839 H 0.36791 0.90766 0.21369 0.0
H2840 H 0.1493 0.58549 0.22819 0.0
H2841 H 0.13147 0.57877 0.20161 0.0
H2842 H 0.08135 0.51741 0.21802 0.0
H2843 H 0.09946 0.52384 0.24433 0.0
H2844 H 0.0911 0.51353 0.18871 0.0
H2845 H 0.07466 0.56206 0.21624 0.0
H2846 H 0.08309 0.59503 0.23075 0.0
H2847 H 0.11842 0.63181 0.18952 0.0
H2848 H 0.11043 0.59904 0.17484 0.0
H2849 H 0.01021 0.52839 0.13442 0.0
H2850 H 0.03307 0.53738 0.15846 0.0
H2851 H 0.07615 0.52173 0.13305 0.0
H2852 H 0.05237 0.51096 0.10937 0.0
H2853 H 0.07167 0.56496 0.16614 0.0
H2854 H 0.09948 0.50329 0.15868 0.0
H2855 H 0.08677 0.46812 0.14614 0.0
H2856 H 0.02072 0.45357 0.15089 0.0
H2857 H 0.03304 0.48855 0.16358 0.0
C2858 C 0.1345 0.57057 0.22605 0.0
C2859 C 0.12574 0.55518 0.23828 0.0
C2860 C 0.12431 0.56675 0.2109 0.0
C2861 C 0.1049 0.54767 0.20785 0.0
C2862 C 0.09634 0.5322 0.22002 0.0
C2863 C 0.10668 0.53589 0.23506 0.0
C2864 C 0.09315 0.54385 0.19216 0.0
C2865 C 0.08693 0.52483 0.18375 0.0
C2866 C 0.08742 0.55842 0.18575 0.0
C2867 C 0.09215 0.57813 0.19452 0.0
C2868 C 0.08436 0.57719 0.21032 0.0
C2869 C 0.08904 0.59584 0.21856 0.0
C2870 C 0.10134 0.61551 0.21108 0.0
C2871 C 0.10893 0.61656 0.19531 0.0
C2872 C 0.10432 0.59796 0.18702 0.0
C2873 C 0.02434 0.5265 0.13397 0.0
C2874 C 0.02916 0.51858 0.11995 0.0
C2875 C 0.03761 0.53196 0.1477 0.0
C2876 C 0.05619 0.52993 0.14771 0.0
C2877 C 0.06165 0.52301 0.1335 0.0
C2878 C 0.04815 0.51713 0.11984 0.0
C2879 C 0.06938 0.53451 0.16277 0.0
C2880 C 0.07598 0.55373 0.17102 0.0
C2881 C 0.07482 0.51979 0.16933 0.0
C2882 C 0.06721 0.49861 0.16191 0.0
C2883 C 0.08225 0.49254 0.15708 0.0
C2884 C 0.07511 0.47266 0.14994 0.0
C2885 C 0.05296 0.45865 0.14767 0.0
C2886 C 0.03788 0.46447 0.1526 0.0
C2887 C 0.04493 0.48432 0.15975 0.0
H2888 H 0.04747 0.44327 0.14213 0.0
H2889 H 0.10495 0.62992 0.21749 0.0
H2890 H 0.43399 0.55319 0.23279 0.0
H2891 H 0.4432 0.54499 0.20617 0.0
H2892 H 0.50893 0.56826 0.22235 0.0
H2893 H 0.4998 0.57599 0.24906 0.0
H2894 H 0.50658 0.58474 0.19268 0.0
H2895 H 0.47494 0.51616 0.21871 0.0
H2896 H 0.44594 0.48521 0.23286 0.0
H2897 H 0.40284 0.47302 0.19259 0.0
H2898 H 0.43152 0.50409 0.17828 0.0
H2899 H 0.55217 0.54857 0.13451 0.0
H2900 H 0.53788 0.55587 0.15894 0.0
H2901 H 0.47363 0.52413 0.13802 0.0
H2902 H 0.48772 0.51584 0.11369 0.0
H2903 H 0.47197 0.51247 0.16856 0.0
H2904 H 0.50313 0.57872 0.14148 0.0
H2905 H 0.53104 0.60998 0.12693 0.0
H2906 H 0.5734 0.62735 0.1683 0.0
H2907 H 0.54586 0.59602 0.18303 0.0
C2908 C 0.45032 0.55626 0.23078 0.0
C2909 C 0.46617 0.56536 0.24309 0.0
C2910 C 0.45558 0.55165 0.21552 0.0
C2911 C 0.47676 0.55604 0.21228 0.0
C2912 C 0.49252 0.5649 0.22456 0.0
C2913 C 0.48728 0.56938 0.23981 0.0
C2914 C 0.48276 0.55184 0.19602 0.0
C2915 C 0.49917 0.56891 0.18745 0.0
C2916 C 0.47249 0.53132 0.18895 0.0
C2917 C 0.4553 0.51258 0.19751 0.0
C2918 C 0.45923 0.50698 0.21293 0.0
C2919 C 0.44286 0.4894 0.22097 0.0
C2920 C 0.42254 0.47719 0.21365 0.0
C2921 C 0.41858 0.48251 0.19825 0.0
C2922 C 0.43488 0.5001 0.19017 0.0
C2923 C 0.53496 0.54298 0.1351 0.0
C2924 C 0.5211 0.53152 0.12211 0.0
C2925 C 0.52684 0.54741 0.14903 0.0
C2926 C 0.50471 0.54082 0.15027 0.0
C2927 C 0.49079 0.52946 0.13732 0.0
C2928 C 0.49891 0.52491 0.12336 0.0
C2929 C 0.4962 0.54534 0.16532 0.0
C2930 C 0.47928 0.52835 0.17366 0.0
C2931 C 0.50583 0.56601 0.17212 0.0
C2932 C 0.52247 0.58491 0.16332 0.0
C2933 C 0.51846 0.58911 0.14743 0.0
C2934 C 0.5342 0.60686 0.13916 0.0
C2935 C 0.554 0.62062 0.14667 0.0
C2936 C 0.55806 0.61667 0.16249 0.0
C2937 C 0.54238 0.59893 0.17082 0.0
H2938 H 0.56617 0.63436 0.14024 0.0
H2939 H 0.40989 0.46359 0.21989 0.0
H2940 H 0.92653 0.43799 0.77834 0.0
H2941 H 0.94392 0.44808 0.80496 0.0
H2942 H 0.89685 0.46512 0.82052 0.0
H2943 H 0.8791 0.45476 0.79385 0.0
H2944 H 0.93935 0.49414 0.8307 0.0
H2945 H 0.88991 0.41945 0.8323 0.0
H2946 H 0.87265 0.38257 0.82226 0.0
H2947 H 0.93361 0.38414 0.82536 0.0
H2948 H 0.95133 0.42116 0.83518 0.0
H2949 H 0.97718 0.50074 0.91232 0.0
H2950 H 0.95279 0.49091 0.88888 0.0
H2951 H 0.98773 0.46409 0.86537 0.0
H2952 H 0.01134 0.47283 0.88896 0.0
H2953 H 0.94588 0.43897 0.86128 0.0
H2954 H 0.99601 0.51465 0.85622 0.0
H2955 H 0.0139 0.55184 0.86569 0.0
H2956 H 0.95209 0.54845 0.86892 0.0
H2957 H 0.93382 0.51115 0.85964 0.0
C2958 C 0.91983 0.44383 0.78743 0.0
C2959 C 0.90125 0.44527 0.78408 0.0
C2960 C 0.92982 0.44966 0.8026 0.0
C2961 C 0.92143 0.45699 0.81477 0.0
C2962 C 0.90349 0.45941 0.81129 0.0
C2963 C 0.89343 0.45353 0.79606 0.0
C2964 C 0.93108 0.46136 0.83123 0.0
C2965 C 0.94046 0.48202 0.83755 0.0
C2966 C 0.93264 0.44554 0.84006 0.0
C2967 C 0.92198 0.42315 0.83438 0.0
C2968 C 0.89967 0.41198 0.83074 0.0
C2969 C 0.8898 0.39104 0.8251 0.0
C2970 C 0.90203 0.38103 0.82315 0.0
C2971 C 0.92415 0.39192 0.82688 0.0
C2972 C 0.93412 0.41288 0.8325 0.0
C2973 C 0.97948 0.49249 0.90224 0.0
C2974 C 0.99636 0.48774 0.90246 0.0
C2975 C 0.96566 0.48708 0.88879 0.0
C2976 C 0.96863 0.47703 0.87526 0.0
C2977 C 0.98517 0.4719 0.87563 0.0
C2978 C 0.99883 0.47714 0.88907 0.0
C2979 C 0.95486 0.47196 0.86054 0.0
C2980 C 0.94456 0.45107 0.85456 0.0
C2981 C 0.95255 0.4876 0.85203 0.0
C2982 C 0.96354 0.51007 0.85741 0.0
C2983 C 0.98624 0.52181 0.85905 0.0
C2984 C 0.99644 0.54291 0.86436 0.0
C2985 C 0.98414 0.55249 0.86795 0.0
C2986 C 0.9616 0.54101 0.86617 0.0
C2987 C 0.95131 0.51989 0.86087 0.0
H2988 H 0.99207 0.56882 0.87208 0.0
H2989 H 0.89436 0.36482 0.81877 0.0
H2990 H 0.54069 0.44479 0.77874 0.0
H2991 H 0.52941 0.45051 0.80527 0.0
H2992 H 0.59593 0.48284 0.82165 0.0
H2993 H 0.6073 0.47633 0.79529 0.0
H2994 H 0.56983 0.45769 0.8451 0.0
H2995 H 0.5713 0.51076 0.81035 0.0
H2996 H 0.563 0.52482 0.78589 0.0
H2997 H 0.49498 0.48828 0.79631 0.0
H2998 H 0.50286 0.47376 0.82072 0.0
H2999 H 0.54854 0.50787 0.9128 0.0
H3000 H 0.56266 0.49968 0.88842 0.0
H3001 H 0.49775 0.46387 0.86901 0.0
H3002 H 0.48355 0.47176 0.89332 0.0
H3003 H 0.52533 0.49261 0.84751 0.0
H3004 H 0.52434 0.43819 0.88163 0.0
H3005 H 0.5332 0.42467 0.90615 0.0
H3006 H 0.60115 0.46565 0.89743 0.0
H3007 H 0.59268 0.4793 0.87277 0.0
C3008 C 0.55293 0.45284 0.78802 0.0
C3009 C 0.57494 0.46016 0.78481 0.0
C3010 C 0.54647 0.45631 0.80317 0.0
C3011 C 0.56186 0.46741 0.8154 0.0
C3012 C 0.58378 0.47433 0.81239 0.0
C3013 C 0.59026 0.47078 0.79724 0.0
C3014 C 0.55502 0.47213 0.83118 0.0
C3015 C 0.56034 0.46558 0.84564 0.0
C3016 C 0.54247 0.48226 0.83193 0.0
C3017 C 0.53767 0.49103 0.81729 0.0
C3018 C 0.55456 0.5056 0.80736 0.0
C3019 C 0.54993 0.51367 0.79351 0.0
C3020 C 0.52847 0.50741 0.78953 0.0
C3021 C 0.51159 0.4931 0.7994 0.0
C3022 C 0.51613 0.48496 0.81325 0.0
C3023 C 0.53724 0.4979 0.90347 0.0
C3024 C 0.51493 0.49066 0.90492 0.0
C3025 C 0.54534 0.49327 0.88953 0.0
C3026 C 0.53125 0.48121 0.87686 0.0
C3027 C 0.50893 0.47335 0.87856 0.0
C3028 C 0.50085 0.47794 0.89245 0.0
C3029 C 0.53972 0.47777 0.86138 0.0
C3030 C 0.53481 0.48472 0.84696 0.0
C3031 C 0.55274 0.46817 0.86072 0.0
C3032 C 0.55787 0.4599 0.87546 0.0
C3033 C 0.54116 0.4444 0.885 0.0
C3034 C 0.54611 0.43669 0.89891 0.0
C3035 C 0.56771 0.44441 0.90342 0.0
C3036 C 0.58442 0.45972 0.89395 0.0
C3037 C 0.57956 0.46738 0.87997 0.0
H3038 H 0.5715 0.43847 0.91422 0.0
H3039 H 0.52492 0.51368 0.7788 0.0
H3040 H 0.58818 0.1328 0.79423 0.0
H3041 H 0.58077 0.11718 0.82135 0.0
H3042 H 0.51366 0.07645 0.80821 0.0
H3043 H 0.52097 0.09152 0.78103 0.0
H3044 H 0.51817 0.09571 0.83779 0.0
H3045 H 0.54778 0.0571 0.81033 0.0
H3046 H 0.57555 0.05374 0.79493 0.0
H3047 H 0.62167 0.08529 0.83334 0.0
H3048 H 0.59424 0.08909 0.84888 0.0
H3049 H 0.4766 0.01534 0.89639 0.0
H3050 H 0.48933 0.03695 0.87205 0.0
H3051 H 0.55453 0.0691 0.89122 0.0
H3052 H 0.54191 0.04686 0.91555 0.0
H3053 H 0.55453 0.0583 0.86023 0.0
H3054 H 0.52483 0.09447 0.88887 0.0
H3055 H 0.49777 0.09865 0.90453 0.0
H3056 H 0.45299 0.07342 0.86458 0.0
H3057 H 0.47968 0.0688 0.84875 0.0
C3058 C 0.57189 0.12033 0.79702 0.0
C3059 C 0.55517 0.11353 0.78537 0.0
C3060 C 0.56767 0.11147 0.81258 0.0
C3061 C 0.54665 0.09562 0.81684 0.0
C3062 C 0.52997 0.08877 0.80526 0.0
C3063 C 0.53419 0.09751 0.78971 0.0
C3064 C 0.54182 0.08615 0.83337 0.0
C3065 C 0.52598 0.08737 0.84265 0.0
C3066 C 0.55257 0.07594 0.83998 0.0
C3067 C 0.56904 0.0736 0.83067 0.0
C3068 C 0.5639 0.06348 0.81543 0.0
C3069 C 0.57957 0.06147 0.80669 0.0
C3070 C 0.60039 0.06936 0.81313 0.0
C3071 C 0.60556 0.07922 0.82835 0.0
C3072 C 0.58995 0.0813 0.83713 0.0
C3073 C 0.49367 0.02699 0.89547 0.0
C3074 C 0.50825 0.02924 0.90792 0.0
C3075 C 0.50091 0.03953 0.88158 0.0
C3076 C 0.52288 0.05486 0.8798 0.0
C3077 C 0.53748 0.05743 0.8923 0.0
C3078 C 0.53022 0.04483 0.90628 0.0
C3079 C 0.5305 0.06745 0.86455 0.0
C3080 C 0.54687 0.06685 0.8555 0.0
C3081 C 0.52036 0.0784 0.85819 0.0
C3082 C 0.50422 0.08114 0.86766 0.0
C3083 C 0.50915 0.08965 0.88346 0.0
C3084 C 0.49389 0.09213 0.89236 0.0
C3085 C 0.47365 0.08627 0.88556 0.0
C3086 C 0.46866 0.07795 0.86983 0.0
C3087 C 0.48387 0.07542 0.86088 0.0
H3088 H 0.46186 0.0882 0.89247 0.0
H3089 H 0.61249 0.06778 0.80635 0.0
H3090 H 0.14607 0.24262 0.58246 0.0
H3091 H 0.15702 0.25959 0.556 0.0
H3092 H 0.09043 0.226 0.53983 0.0
H3093 H 0.0794 0.20838 0.56616 0.0
H3094 H 0.1172 0.22689 0.51607 0.0
H3095 H 0.11377 0.27752 0.55118 0.0
H3096 H 0.12139 0.29955 0.57577 0.0
H3097 H 0.18953 0.33129 0.56547 0.0
H3098 H 0.18234 0.30922 0.54093 0.0
H3099 H 0.13725 0.29803 0.44864 0.0
H3100 H 0.1233 0.27538 0.47267 0.0
H3101 H 0.18793 0.305 0.49281 0.0
H3102 H 0.20191 0.32742 0.46891 0.0
H3103 H 0.15965 0.30552 0.51414 0.0
H3104 H 0.16292 0.2535 0.47961 0.0
H3105 H 0.15499 0.2316 0.45489 0.0
H3106 H 0.08671 0.20343 0.4636 0.0
H3107 H 0.09425 0.22512 0.48842 0.0
C3108 C 0.13374 0.23861 0.57324 0.0
C3109 C 0.11181 0.22417 0.57653 0.0
C3110 C 0.14002 0.24848 0.55813 0.0
C3111 C 0.12452 0.2443 0.54594 0.0
C3112 C 0.10268 0.22956 0.54903 0.0
C3113 C 0.09638 0.21966 0.56417 0.0
C3114 C 0.13115 0.25577 0.53019 0.0
C3115 C 0.12624 0.24409 0.51564 0.0
C3116 C 0.14314 0.27822 0.52956 0.0
C3117 C 0.14752 0.29158 0.54429 0.0
C3118 C 0.13039 0.28908 0.55422 0.0
C3119 C 0.13463 0.3016 0.56815 0.0
C3120 C 0.15593 0.31678 0.5722 0.0
C3121 C 0.17304 0.31951 0.56232 0.0
C3122 C 0.16889 0.30701 0.5484 0.0
C3123 C 0.14853 0.29938 0.45804 0.0
C3124 C 0.17065 0.31474 0.45696 0.0
C3125 C 0.14053 0.28645 0.47179 0.0
C3126 C 0.15455 0.28858 0.48463 0.0
C3127 C 0.17676 0.30322 0.48317 0.0
C3128 C 0.18472 0.31606 0.4695 0.0
C3129 C 0.14614 0.27667 0.50005 0.0
C3130 C 0.15061 0.28831 0.51457 0.0
C3131 C 0.13371 0.25425 0.5006 0.0
C3132 C 0.12914 0.24107 0.48578 0.0
C3133 C 0.14622 0.24272 0.4762 0.0
C3134 C 0.1418 0.23033 0.46218 0.0
C3135 C 0.12037 0.21625 0.45761 0.0
C3136 C 0.1033 0.21438 0.46713 0.0
C3137 C 0.10764 0.22666 0.48121 0.0
H3138 H 0.11698 0.20672 0.44673 0.0
H3139 H 0.15918 0.32645 0.58299 0.0
H3140 H 0.77051 0.90458 0.58126 0.0
H3141 H 0.75206 0.89857 0.55521 0.0
H3142 H 0.78446 0.86579 0.53768 0.0
H3143 H 0.80394 0.87274 0.56348 0.0
H3144 H 0.78267 0.89002 0.51445 0.0
H3145 H 0.73186 0.83833 0.55082 0.0
H3146 H 0.71067 0.82511 0.57595 0.0
H3147 H 0.67975 0.86169 0.56634 0.0
H3148 H 0.70099 0.87538 0.54125 0.0
H3149 H 0.70707 0.83873 0.4489 0.0
H3150 H 0.72935 0.84603 0.47334 0.0
H3151 H 0.70401 0.88451 0.49234 0.0
H3152 H 0.68204 0.87766 0.46789 0.0
H3153 H 0.70244 0.85569 0.51443 0.0
H3154 H 0.75455 0.90747 0.47765 0.0
H3155 H 0.77525 0.91897 0.45218 0.0
H3156 H 0.80308 0.87973 0.46223 0.0
H3157 H 0.7823 0.86777 0.48766 0.0
C3158 C 0.77406 0.89643 0.57179 0.0
C3159 C 0.78868 0.88907 0.57452 0.0
C3160 C 0.76327 0.89277 0.55695 0.0
C3161 C 0.76656 0.88137 0.54458 0.0
C3162 C 0.78156 0.8745 0.54708 0.0
C3163 C 0.79251 0.8783 0.5619 0.0
C3164 C 0.75396 0.87628 0.52922 0.0
C3165 C 0.76511 0.88226 0.51443 0.0
C3166 C 0.73104 0.8663 0.52918 0.0
C3167 C 0.71816 0.85803 0.54423 0.0
C3168 C 0.72065 0.84368 0.55413 0.0
C3169 C 0.70862 0.83608 0.56835 0.0
C3170 C 0.69391 0.84259 0.57276 0.0
C3171 C 0.69117 0.85668 0.56292 0.0
C3172 C 0.70319 0.86435 0.54869 0.0
C3173 C 0.70647 0.849 0.45817 0.0
C3174 C 0.6927 0.85755 0.45645 0.0
C3175 C 0.71917 0.8531 0.47214 0.0
C3176 C 0.71836 0.86586 0.48461 0.0
C3177 C 0.70478 0.87453 0.48289 0.0
C3178 C 0.69216 0.87052 0.46893 0.0
C3179 C 0.73116 0.86975 0.49972 0.0
C3180 C 0.72 0.86344 0.51446 0.0
C3181 C 0.75401 0.87918 0.49966 0.0
C3182 C 0.7667 0.88656 0.48448 0.0
C3183 C 0.76496 0.90118 0.47437 0.0
C3184 C 0.77673 0.9078 0.45995 0.0
C3185 C 0.79042 0.90004 0.45557 0.0
C3186 C 0.79244 0.88571 0.46563 0.0
C3187 C 0.78069 0.87902 0.48005 0.0
H3188 H 0.7995 0.90517 0.44439 0.0
H3189 H 0.6846 0.83669 0.58378 0.0
H3190 H 0.15907 0.90481 0.58285 0.0
H3191 H 0.16837 0.89746 0.55606 0.0
H3192 H 0.10348 0.87711 0.53913 0.0
H3193 H 0.09398 0.88425 0.56611 0.0
H3194 H 0.11808 0.85155 0.52755 0.0
H3195 H 0.14523 0.92666 0.53009 0.0
H3196 H 0.16542 0.96211 0.54282 0.0
H3197 H 0.2244 0.95985 0.53993 0.0
H3198 H 0.20451 0.92426 0.52736 0.0
H3199 H 0.14925 0.85112 0.4456 0.0
H3200 H 0.13528 0.85959 0.46987 0.0
H3201 H 0.1983 0.88628 0.4925 0.0
H3202 H 0.21261 0.87902 0.46807 0.0
H3203 H 0.18174 0.90971 0.49987 0.0
H3204 H 0.15517 0.83424 0.50022 0.0
H3205 H 0.13563 0.79779 0.48917 0.0
H3206 H 0.07655 0.80004 0.48771 0.0
H3207 H 0.09582 0.83661 0.49858 0.0
C3208 C 0.14676 0.89876 0.57343 0.0
C3209 C 0.12586 0.89535 0.57653 0.0
C3210 C 0.1521 0.89459 0.55811 0.0
C3211 C 0.13678 0.88719 0.54545 0.0
C3212 C 0.11562 0.88294 0.54867 0.0
C3213 C 0.11019 0.88698 0.56409 0.0
C3214 C 0.14312 0.88437 0.52885 0.0
C3215 C 0.13175 0.86436 0.52136 0.0
C3216 C 0.1612 0.90099 0.52087 0.0
C3217 C 0.17335 0.92273 0.52786 0.0
C3218 C 0.1625 0.9337 0.5322 0.0
C3219 C 0.17389 0.95381 0.53939 0.0
C3220 C 0.19617 0.96321 0.54221 0.0
C3221 C 0.20714 0.95255 0.53774 0.0
C3222 C 0.19582 0.93243 0.53055 0.0
C3223 C 0.16024 0.85914 0.45563 0.0
C3224 C 0.18202 0.8641 0.45491 0.0
C3225 C 0.15215 0.86375 0.4696 0.0
C3226 C 0.1656 0.87319 0.48321 0.0
C3227 C 0.18751 0.87886 0.48225 0.0
C3228 C 0.19563 0.87446 0.46829 0.0
C3229 C 0.15697 0.87672 0.49865 0.0
C3230 C 0.16789 0.89693 0.50594 0.0
C3231 C 0.13859 0.86023 0.5065 0.0
C3232 C 0.12698 0.83823 0.50003 0.0
C3233 C 0.13805 0.82701 0.49743 0.0
C3234 C 0.12702 0.80632 0.49122 0.0
C3235 C 0.10488 0.79663 0.48769 0.0
C3236 C 0.09371 0.80758 0.49042 0.0
C3237 C 0.10467 0.82828 0.49661 0.0
H3238 H 0.09636 0.78062 0.48288 0.0
H3239 H 0.20495 0.97874 0.54784 0.0
H3240 H 0.55217 0.74451 0.1279 0.0
H3241 H 0.56662 0.75221 0.15534 0.0
H3242 H 0.59861 0.81935 0.14546 0.0
H3243 H 0.58593 0.81172 0.11746 0.0
H3244 H 0.62509 0.8126 0.1604 0.0
H3245 H 0.5519 0.792 0.17119 0.0
H3246 H 0.51206 0.77003 0.16998 0.0
H3247 H 0.51514 0.71872 0.1929 0.0
H3248 H 0.55503 0.74026 0.19405 0.0
H3249 H 0.65419 0.83412 0.24461 0.0
H3250 H 0.63266 0.83054 0.2202 0.0
H3251 H 0.61854 0.76596 0.2141 0.0
H3252 H 0.64048 0.76967 0.2382 0.0
H3253 H 0.58172 0.77534 0.20883 0.0
H3254 H 0.65656 0.79708 0.19374 0.0
H3255 H 0.69608 0.82112 0.19575 0.0
H3256 H 0.68826 0.8737 0.18176 0.0
H3257 H 0.64862 0.84997 0.17994 0.0
C3258 C 0.56248 0.76094 0.13144 0.0
C3259 C 0.56799 0.77745 0.12029 0.0
C3260 C 0.57039 0.76535 0.14732 0.0
C3261 C 0.58343 0.7864 0.15266 0.0
C3262 C 0.58852 0.80296 0.1417 0.0
C3263 C 0.58101 0.79855 0.12568 0.0
C3264 C 0.59295 0.79101 0.16928 0.0
C3265 C 0.6154 0.80476 0.17098 0.0
C3266 C 0.58051 0.78075 0.18321 0.0
C3267 C 0.55649 0.76772 0.1826 0.0
C3268 C 0.5441 0.77598 0.17587 0.0
C3269 C 0.5215 0.76361 0.17521 0.0
C3270 C 0.51108 0.74298 0.18133 0.0
C3271 C 0.52323 0.7347 0.18816 0.0
C3272 C 0.54584 0.747 0.18884 0.0
C3273 C 0.64624 0.81912 0.23813 0.0
C3274 C 0.64912 0.80223 0.24305 0.0
C3275 C 0.63397 0.81708 0.22427 0.0
C3276 C 0.62412 0.798 0.21541 0.0
C3277 C 0.62601 0.78077 0.22085 0.0
C3278 C 0.63862 0.78294 0.23448 0.0
C3279 C 0.61357 0.79653 0.19964 0.0
C3280 C 0.59108 0.78337 0.19817 0.0
C3281 C 0.62582 0.80765 0.18598 0.0
C3282 C 0.64964 0.82182 0.1869 0.0
C3283 C 0.66326 0.8138 0.19125 0.0
C3284 C 0.68568 0.82736 0.19232 0.0
C3285 C 0.69467 0.84894 0.18894 0.0
C3286 C 0.68126 0.85699 0.18442 0.0
C3287 C 0.65883 0.8435 0.18336 0.0
H3288 H 0.71203 0.85942 0.18977 0.0
H3289 H 0.49358 0.73343 0.18081 0.0
H3290 H 0.21162 0.78307 0.11139 0.0
H3291 H 0.20037 0.78858 0.13798 0.0
H3292 H 0.26661 0.81881 0.15487 0.0
H3293 H 0.27794 0.81249 0.1284 0.0
H3294 H 0.2392 0.79378 0.17826 0.0
H3295 H 0.2444 0.84853 0.14357 0.0
H3296 H 0.23783 0.86368 0.11897 0.0
H3297 H 0.16937 0.82935 0.12809 0.0
H3298 H 0.1755 0.81374 0.15264 0.0
H3299 H 0.21742 0.84405 0.24582 0.0
H3300 H 0.23221 0.83625 0.22163 0.0
H3301 H 0.16815 0.80262 0.2005 0.0
H3302 H 0.15326 0.81008 0.22459 0.0
H3303 H 0.19736 0.83149 0.17982 0.0
H3304 H 0.1928 0.77605 0.21451 0.0
H3305 H 0.20022 0.7624 0.23961 0.0
H3306 H 0.26865 0.79998 0.23109 0.0
H3307 H 0.26164 0.81402 0.20601 0.0
C3308 C 0.22381 0.79056 0.1208 0.0
C3309 C 0.24574 0.7974 0.11766 0.0
C3310 C 0.21736 0.7939 0.13599 0.0
C3311 C 0.23268 0.80442 0.14837 0.0
C3312 C 0.2545 0.81075 0.14548 0.0
C3313 C 0.26097 0.80732 0.13028 0.0
C3314 C 0.2259 0.80943 0.16407 0.0
C3315 C 0.2303 0.80227 0.17863 0.0
C3316 C 0.21415 0.82039 0.16459 0.0
C3317 C 0.2104 0.82982 0.14987 0.0
C3318 C 0.22793 0.84409 0.14027 0.0
C3319 C 0.22428 0.85278 0.12634 0.0
C3320 C 0.20319 0.84744 0.12195 0.0
C3321 C 0.1857 0.83345 0.1315 0.0
C3322 C 0.18925 0.82469 0.14543 0.0
C3323 C 0.20644 0.83468 0.23614 0.0
C3324 C 0.18417 0.82789 0.23708 0.0
C3325 C 0.21493 0.83027 0.22231 0.0
C3326 C 0.20129 0.81888 0.20923 0.0
C3327 C 0.17901 0.81158 0.21037 0.0
C3328 C 0.17054 0.81594 0.22415 0.0
C3329 C 0.21017 0.81541 0.19397 0.0
C3330 C 0.20627 0.82301 0.17947 0.0
C3331 C 0.22247 0.80502 0.19358 0.0
C3332 C 0.2267 0.79624 0.20846 0.0
C3333 C 0.20943 0.78149 0.21804 0.0
C3334 C 0.21356 0.77367 0.23225 0.0
C3335 C 0.23489 0.78037 0.23698 0.0
C3336 C 0.25213 0.79482 0.22743 0.0
C3337 C 0.24809 0.80269 0.2132 0.0
H3338 H 0.23805 0.77435 0.24801 0.0
H3339 H 0.2004 0.85419 0.11116 0.0
H3340 H 0.25548 0.46827 0.12792 0.0
H3341 H 0.24775 0.4525 0.15502 0.0
H3342 H 0.18092 0.41145 0.14128 0.0
H3343 H 0.18854 0.42672 0.11418 0.0
H3344 H 0.18464 0.4305 0.17066 0.0
H3345 H 0.21566 0.39263 0.1439 0.0
H3346 H 0.24408 0.38976 0.12904 0.0
H3347 H 0.28899 0.42139 0.16812 0.0
H3348 H 0.26088 0.4247 0.18312 0.0
H3349 H 0.14164 0.34952 0.22847 0.0
H3350 H 0.15516 0.37139 0.20434 0.0
H3351 H 0.21969 0.40347 0.22477 0.0
H3352 H 0.2063 0.38088 0.24887 0.0
H3353 H 0.22092 0.39341 0.19385 0.0
H3354 H 0.18953 0.42848 0.22189 0.0
H3355 H 0.16161 0.4319 0.237 0.0
H3356 H 0.11839 0.40702 0.19613 0.0
H3357 H 0.14594 0.40316 0.18084 0.0
C3358 C 0.23919 0.4557 0.13059 0.0
C3359 C 0.22262 0.44888 0.11883 0.0
C3360 C 0.23479 0.44675 0.14612 0.0
C3361 C 0.21374 0.43077 0.1502 0.0
C3362 C 0.19724 0.42387 0.13847 0.0
C3363 C 0.20163 0.4327 0.12297 0.0
C3364 C 0.20865 0.42128 0.1667 0.0
C3365 C 0.19245 0.42224 0.17568 0.0
C3366 C 0.21939 0.41118 0.17353 0.0
C3367 C 0.23625 0.40913 0.16454 0.0
C3368 C 0.23165 0.39913 0.14926 0.0
C3369 C 0.24769 0.3974 0.14082 0.0
C3370 C 0.26835 0.40545 0.14761 0.0
C3371 C 0.27299 0.4152 0.16287 0.0
C3372 C 0.25701 0.417 0.17134 0.0
C3373 C 0.15874 0.36117 0.22787 0.0
C3374 C 0.17289 0.36331 0.24061 0.0
C3375 C 0.16643 0.37387 0.2141 0.0
C3376 C 0.18843 0.3893 0.21275 0.0
C3377 C 0.20262 0.39173 0.22553 0.0
C3378 C 0.19492 0.37894 0.23937 0.0
C3379 C 0.19651 0.40217 0.19768 0.0
C3380 C 0.21328 0.40189 0.18896 0.0
C3381 C 0.1864 0.41305 0.19112 0.0
C3382 C 0.16977 0.4154 0.20025 0.0
C3383 C 0.17402 0.4236 0.21615 0.0
C3384 C 0.15827 0.42563 0.22475 0.0
C3385 C 0.13823 0.41964 0.21754 0.0
C3386 C 0.13392 0.41164 0.2017 0.0
C3387 C 0.14961 0.40956 0.19305 0.0
H3388 H 0.12605 0.42123 0.22421 0.0
H3389 H 0.28075 0.40409 0.14106 0.0
H3390 H 0.74979 0.54691 0.90116 0.0
H3391 H 0.76029 0.56397 0.87469 0.0
H3392 H 0.82699 0.59911 0.89051 0.0
H3393 H 0.81648 0.58294 0.91726 0.0
H3394 H 0.81715 0.62447 0.87517 0.0
H3395 H 0.80691 0.55514 0.86395 0.0
H3396 H 0.78689 0.51601 0.86324 0.0
H3397 H 0.73795 0.5164 0.83296 0.0
H3398 H 0.75754 0.55555 0.83367 0.0
H3399 H 0.87013 0.66134 0.80091 0.0
H3400 H 0.85622 0.64055 0.82558 0.0
H3401 H 0.79087 0.61406 0.80744 0.0
H3402 H 0.80474 0.63512 0.78261 0.0
H3403 H 0.79783 0.58403 0.82338 0.0
H3404 H 0.80898 0.65355 0.83404 0.0
H3405 H 0.82956 0.69267 0.83449 0.0
H3406 H 0.87728 0.69175 0.86587 0.0
H3407 H 0.85715 0.6526 0.86542 0.0
C3408 C 0.76669 0.55839 0.89909 0.0
C3409 C 0.78226 0.5635 0.91145 0.0
C3410 C 0.77272 0.56796 0.88383 0.0
C3411 C 0.79451 0.58268 0.88045 0.0
C3412 C 0.81008 0.58777 0.89274 0.0
C3413 C 0.80406 0.57831 0.90803 0.0
C3414 C 0.80109 0.59329 0.86432 0.0
C3415 C 0.81314 0.61556 0.86389 0.0
C3416 C 0.79535 0.5818 0.84948 0.0
C3417 C 0.78357 0.55827 0.849 0.0
C3418 C 0.79179 0.54688 0.85724 0.0
C3419 C 0.78053 0.5247 0.85682 0.0
C3420 C 0.76113 0.51373 0.8481 0.0
C3421 C 0.75296 0.52492 0.83973 0.0
C3422 C 0.76415 0.5471 0.84013 0.0
C3423 C 0.85278 0.65112 0.80212 0.0
C3424 C 0.83854 0.65021 0.78986 0.0
C3425 C 0.84485 0.63918 0.81625 0.0
C3426 C 0.82247 0.62604 0.81853 0.0
C3427 C 0.80821 0.62418 0.80599 0.0
C3428 C 0.81616 0.63618 0.79178 0.0
C3429 C 0.81417 0.6151 0.83434 0.0
C3430 C 0.80177 0.59286 0.83469 0.0
C3431 C 0.81961 0.62658 0.84915 0.0
C3432 C 0.83165 0.65014 0.84958 0.0
C3433 C 0.82394 0.66169 0.84095 0.0
C3434 C 0.83551 0.68387 0.84121 0.0
C3435 C 0.85474 0.69469 0.85017 0.0
C3436 C 0.86239 0.68335 0.85892 0.0
C3437 C 0.8509 0.66116 0.85868 0.0
H3438 H 0.86367 0.71187 0.85036 0.0
H3439 H 0.75244 0.49655 0.84778 0.0
H3440 H 0.47645 0.20982 0.89758 0.0
H3441 H 0.45843 0.20229 0.87109 0.0
H3442 H 0.41939 0.22864 0.88766 0.0
H3443 H 0.43673 0.23549 0.91429 0.0
H3444 H 0.39506 0.19122 0.8732 0.0
H3445 H 0.46137 0.25542 0.86109 0.0
H3446 H 0.50102 0.27873 0.85967 0.0
H3447 H 0.50559 0.23379 0.82844 0.0
H3448 H 0.46597 0.21007 0.82986 0.0
H3449 H 0.34847 0.19743 0.8002 0.0
H3450 H 0.37145 0.20814 0.82439 0.0
H3451 H 0.40555 0.17769 0.80554 0.0
H3452 H 0.3825 0.16686 0.7812 0.0
H3453 H 0.43306 0.21612 0.82063 0.0
H3454 H 0.36683 0.15217 0.83255 0.0
H3455 H 0.32716 0.12893 0.83381 0.0
H3456 H 0.32259 0.1734 0.86557 0.0
H3457 H 0.36222 0.19708 0.8643 0.0
C3458 C 0.464 0.21398 0.89557 0.0
C3459 C 0.45801 0.22325 0.90804 0.0
C3460 C 0.45388 0.20986 0.88039 0.0
C3461 C 0.43769 0.21506 0.87736 0.0
C3462 C 0.43189 0.22455 0.88972 0.0
C3463 C 0.44195 0.22863 0.90489 0.0
C3464 C 0.42601 0.20973 0.86161 0.0
C3465 C 0.40337 0.19692 0.86173 0.0
C3466 C 0.43692 0.21661 0.84661 0.0
C3467 C 0.46073 0.23087 0.84572 0.0
C3468 C 0.47085 0.25042 0.85403 0.0
C3469 C 0.49331 0.26373 0.85321 0.0
C3470 C 0.50582 0.25772 0.84401 0.0
C3471 C 0.49588 0.23841 0.83558 0.0
C3472 C 0.47342 0.22504 0.83638 0.0
C3473 C 0.36089 0.19304 0.80118 0.0
C3474 C 0.36349 0.18104 0.78892 0.0
C3475 C 0.37403 0.19922 0.81498 0.0
C3476 C 0.38993 0.19338 0.81686 0.0
C3477 C 0.39331 0.18229 0.80432 0.0
C3478 C 0.38017 0.17614 0.79044 0.0
C3479 C 0.40214 0.19795 0.83232 0.0
C3480 C 0.42482 0.21046 0.83213 0.0
C3481 C 0.39131 0.19079 0.8473 0.0
C3482 C 0.36748 0.17649 0.84821 0.0
C3483 C 0.35735 0.15707 0.83971 0.0
C3484 C 0.33487 0.14381 0.84044 0.0
C3485 C 0.32235 0.14971 0.84973 0.0
C3486 C 0.3323 0.16886 0.85836 0.0
C3487 C 0.35478 0.1822 0.85765 0.0
H3488 H 0.30495 0.13942 0.85028 0.0
H3489 H 0.52322 0.26804 0.84338 0.0
H3490 H 0.80923 0.25884 0.89799 0.0
H3491 H 0.81629 0.24867 0.87134 0.0
H3492 H 0.79557 0.18569 0.88899 0.0
H3493 H 0.78863 0.19582 0.91571 0.0
H3494 H 0.83484 0.20349 0.87302 0.0
H3495 H 0.76362 0.19324 0.86365 0.0
H3496 H 0.73557 0.20364 0.86326 0.0
H3497 H 0.77375 0.25402 0.83015 0.0
H3498 H 0.80219 0.24411 0.83053 0.0
H3499 H 0.83702 0.15663 0.79903 0.0
H3500 H 0.82402 0.16442 0.82408 0.0
H3501 H 0.83755 0.2248 0.80467 0.0
H3502 H 0.85007 0.21676 0.77936 0.0
H3503 H 0.80133 0.20823 0.82153 0.0
H3504 H 0.87291 0.22032 0.83131 0.0
H3505 H 0.90213 0.21151 0.83176 0.0
H3506 H 0.86507 0.15998 0.86428 0.0
H3507 H 0.83547 0.1683 0.86385 0.0
C3508 C 0.80614 0.24282 0.89617 0.0
C3509 C 0.79841 0.22813 0.90896 0.0
C3510 C 0.81003 0.23698 0.88091 0.0
C3511 C 0.80634 0.21638 0.87814 0.0
C3512 C 0.79847 0.20165 0.89085 0.0
C3513 C 0.79439 0.20741 0.90607 0.0
C3514 C 0.81161 0.21049 0.86222 0.0
C3515 C 0.82726 0.20419 0.86179 0.0
C3516 C 0.80224 0.2121 0.84752 0.0
C3517 C 0.78514 0.21806 0.84724 0.0
C3518 C 0.76613 0.20665 0.8564 0.0
C3519 C 0.75014 0.21244 0.85615 0.0
C3520 C 0.7529 0.22951 0.84672 0.0
C3521 C 0.77164 0.24081 0.83747 0.0
C3522 C 0.78769 0.23511 0.83768 0.0
C3523 C 0.8371 0.17152 0.80009 0.0
C3524 C 0.84476 0.18619 0.78732 0.0
C3525 C 0.82972 0.17599 0.81442 0.0
C3526 C 0.83027 0.19543 0.81645 0.0
C3527 C 0.83706 0.20974 0.80344 0.0
C3528 C 0.84419 0.20514 0.78898 0.0
C3529 C 0.8245 0.20108 0.83232 0.0
C3530 C 0.80885 0.20743 0.83276 0.0
C3531 C 0.83407 0.19978 0.84706 0.0
C3532 C 0.85189 0.19481 0.84742 0.0
C3533 C 0.87093 0.20702 0.83847 0.0
C3534 C 0.88756 0.20213 0.83873 0.0
C3535 C 0.88543 0.18516 0.84801 0.0
C3536 C 0.86668 0.1731 0.85708 0.0
C3537 C 0.84998 0.1779 0.85684 0.0
H3538 H 0.89833 0.1814 0.8482 0.0
H3539 H 0.7405 0.23396 0.84654 0.0
H3540 H 0.21027 0.07846 0.46454 0.0
H3541 H 0.22876 0.08994 0.49079 0.0
H3542 H 0.26666 0.15387 0.47291 0.0
H3543 H 0.24872 0.14239 0.44651 0.0
H3544 H 0.29165 0.14072 0.48751 0.0
H3545 H 0.22577 0.14081 0.49996 0.0
H3546 H 0.18615 0.12537 0.50168 0.0
H3547 H 0.18202 0.07694 0.53352 0.0
H3548 H 0.2216 0.09192 0.5318 0.0
H3549 H 0.34256 0.18968 0.56068 0.0
H3550 H 0.31936 0.18025 0.5366 0.0
H3551 H 0.27911 0.11706 0.55529 0.0
H3552 H 0.30198 0.1267 0.57965 0.0
H3553 H 0.25473 0.13001 0.54044 0.0
H3554 H 0.31935 0.12812 0.52739 0.0
H3555 H 0.35878 0.14229 0.52564 0.0
H3556 H 0.365 0.19233 0.49468 0.0
H3557 H 0.32562 0.17862 0.49644 0.0
C3558 C 0.22254 0.09497 0.46621 0.0
C3559 C 0.22805 0.10952 0.45345 0.0
C3560 C 0.23294 0.10154 0.48126 0.0
C3561 C 0.24895 0.1228 0.48384 0.0
C3562 C 0.25428 0.1374 0.47119 0.0
C3563 C 0.2439 0.13085 0.45616 0.0
C3564 C 0.261 0.12961 0.49942 0.0
C3565 C 0.28361 0.1387 0.49906 0.0
C3566 C 0.25042 0.12633 0.51451 0.0
C3567 C 0.22663 0.11738 0.51563 0.0
C3568 C 0.2164 0.12677 0.50723 0.0
C3569 C 0.19395 0.11812 0.50822 0.0
C3570 C 0.18157 0.10016 0.51767 0.0
C3571 C 0.19163 0.09084 0.52619 0.0
C3572 C 0.21407 0.09942 0.52522 0.0
C3573 C 0.32864 0.17385 0.55968 0.0
C3574 C 0.32414 0.15883 0.5719 0.0
C3575 C 0.31543 0.16846 0.54593 0.0
C3576 C 0.29778 0.1478 0.54397 0.0
C3577 C 0.29268 0.13306 0.55652 0.0
C3578 C 0.30573 0.13856 0.57041 0.0
C3579 C 0.2854 0.14128 0.5285 0.0
C3580 C 0.26277 0.13215 0.52887 0.0
C3581 C 0.29591 0.14431 0.51338 0.0
C3582 C 0.31957 0.15246 0.51217 0.0
C3583 C 0.32914 0.14222 0.52029 0.0
C3584 C 0.35148 0.15016 0.51929 0.0
C3585 C 0.36439 0.16823 0.51009 0.0
C3586 C 0.35498 0.17835 0.50182 0.0
C3587 C 0.33265 0.1705 0.50281 0.0
H3588 H 0.38169 0.17436 0.50933 0.0
H3589 H 0.16419 0.09348 0.51843 0.0
H3590 H 0.9223 0.16232 0.44492 0.0
H3591 H 0.91255 0.16879 0.47183 0.0
H3592 H 0.89507 0.1052 0.48605 0.0
H3593 H 0.90449 0.09853 0.45894 0.0
H3594 H 0.86578 0.11393 0.49647 0.0
H3595 H 0.94279 0.14959 0.49958 0.0
H3596 H 0.98039 0.17372 0.49094 0.0
H3597 H 0.9699 0.22678 0.49454 0.0
H3598 H 0.93213 0.20293 0.50297 0.0
H3599 H 0.85455 0.13717 0.57907 0.0
H3600 H 0.86957 0.12859 0.55538 0.0
H3601 H 0.881 0.18634 0.53229 0.0
H3602 H 0.86616 0.19504 0.55589 0.0
H3603 H 0.91522 0.17842 0.52827 0.0
H3604 H 0.83695 0.14122 0.52268 0.0
H3605 H 0.7996 0.11667 0.53164 0.0
H3606 H 0.81355 0.06573 0.53342 0.0
H3607 H 0.8511 0.09008 0.52468 0.0
C3608 C 0.91658 0.14977 0.45383 0.0
C3609 C 0.91433 0.12996 0.44984 0.0
C3610 C 0.91104 0.1535 0.46924 0.0
C3611 C 0.90346 0.13763 0.48113 0.0
C3612 C 0.90096 0.11774 0.47713 0.0
C3613 C 0.90632 0.11392 0.46163 0.0
C3614 C 0.89759 0.14173 0.49754 0.0
C3615 C 0.87679 0.12782 0.50355 0.0
C3616 C 0.9118 0.15998 0.50677 0.0
C3617 C 0.93456 0.17443 0.50179 0.0
C3618 C 0.94845 0.16638 0.49842 0.0
C3619 C 0.9698 0.18002 0.49358 0.0
C3620 C 0.97751 0.20176 0.49216 0.0
C3621 C 0.9639 0.20993 0.49563 0.0
C3622 C 0.94252 0.19636 0.50046 0.0
C3623 C 0.86056 0.14817 0.56904 0.0
C3624 C 0.85897 0.16668 0.56926 0.0
C3625 C 0.86902 0.1432 0.55548 0.0
C3626 C 0.87618 0.15672 0.542 0.0
C3627 C 0.87551 0.17565 0.54253 0.0
C3628 C 0.86689 0.18053 0.55597 0.0
C3629 C 0.8834 0.15081 0.52697 0.0
C3630 C 0.90441 0.16439 0.52125 0.0
C3631 C 0.86948 0.13218 0.51807 0.0
C3632 C 0.84689 0.11752 0.52322 0.0
C3633 C 0.8321 0.12483 0.52511 0.0
C3634 C 0.81089 0.11094 0.53012 0.0
C3635 C 0.80423 0.08967 0.53314 0.0
C3636 C 0.81875 0.08222 0.53111 0.0
C3637 C 0.83999 0.09605 0.52612 0.0
H3638 H 0.7878 0.07894 0.53702 0.0
H3639 H 0.99405 0.21229 0.48841 0.0
H3640 H 0.85375 0.75722 0.44612 0.0
H3641 H 0.84487 0.74024 0.47265 0.0
H3642 H 0.91042 0.78208 0.48897 0.0
H3643 H 0.91946 0.79923 0.46233 0.0
H3644 H 0.89532 0.74144 0.49931 0.0
H3645 H 0.87006 0.79145 0.50006 0.0
H3646 H 0.85026 0.80845 0.48911 0.0
H3647 H 0.79039 0.74925 0.49184 0.0
H3648 H 0.80987 0.73181 0.50261 0.0
H3649 H 0.86632 0.70811 0.58115 0.0
H3650 H 0.8801 0.73085 0.55724 0.0
H3651 H 0.8161 0.69832 0.53587 0.0
H3652 H 0.80208 0.67662 0.56005 0.0
H3653 H 0.83348 0.73807 0.52941 0.0
H3654 H 0.85812 0.68721 0.52579 0.0
H3655 H 0.87722 0.66882 0.53532 0.0
H3656 H 0.93721 0.7281 0.53703 0.0
H3657 H 0.91839 0.74688 0.52768 0.0
C3658 C 0.86629 0.7629 0.45536 0.0
C3659 C 0.88726 0.77978 0.45215 0.0
C3660 C 0.86118 0.75315 0.47053 0.0
C3661 C 0.87685 0.76014 0.48294 0.0
C3662 C 0.89803 0.77647 0.47962 0.0
C3663 C 0.90319 0.78622 0.46438 0.0
C3664 C 0.87087 0.75058 0.49939 0.0
C3665 C 0.88204 0.74102 0.50603 0.0
C3666 C 0.85331 0.7497 0.50807 0.0
C3667 C 0.84146 0.76029 0.50205 0.0
C3668 C 0.85268 0.78203 0.49827 0.0
C3669 C 0.84152 0.79175 0.4921 0.0
C3670 C 0.81909 0.77992 0.48975 0.0
C3671 C 0.80776 0.75838 0.49366 0.0
C3672 C 0.81886 0.74858 0.49983 0.0
C3673 C 0.85512 0.70613 0.57151 0.0
C3674 C 0.83311 0.6904 0.57253 0.0
C3675 C 0.86307 0.71894 0.55771 0.0
C3676 C 0.84926 0.71608 0.54452 0.0
C3677 C 0.82717 0.70084 0.54577 0.0
C3678 C 0.8192 0.68823 0.55959 0.0
C3679 C 0.8576 0.72846 0.52923 0.0
C3680 C 0.84691 0.73864 0.52281 0.0
C3681 C 0.87547 0.72974 0.52069 0.0
C3682 C 0.88681 0.71847 0.52621 0.0
C3683 C 0.87536 0.69634 0.5283 0.0
C3684 C 0.88614 0.68584 0.53365 0.0
C3685 C 0.9084 0.6973 0.53683 0.0
C3686 C 0.91995 0.71926 0.5346 0.0
C3687 C 0.90925 0.72983 0.52926 0.0
H3688 H 0.91672 0.68915 0.54098 0.0
H3689 H 0.81048 0.78746 0.48492 0.0
loop_
_geom_bond_atom_site_label_1
_geom_bond_atom_site_label_2
_geom_bond_distance
_geom_bond_site_symmetry_2
_ccdc_geom_bond_type
H0 C7 0.929 . S
H1 C10 0.930 . S
H2 C12 0.929 . S
H3 C4 0.969 . S
C4 H3 0.969 . S
C4 O5 1.550 . S
C4 H6 0.973 . S
O5 C4 1.550 . S
O5 C11 1.412 . S
H6 C4 0.973 . S
C7 H0 0.929 . S
C7 C8 1.400 . S
C7 C9 1.364 . S
C8 C7 1.400 . S
C8 C12 1.377 . S
C9 C7 1.364 . S
C9 C10 1.374 . S
C10 H1 0.930 . S
C10 C9 1.374 . S
C10 C11 1.383 . S
C11 O5 1.412 . S
C11 C10 1.383 . S
C11 C12 1.394 . S
C12 H2 0.929 . S
C12 C8 1.377 . S
C12 C11 1.394 . S
H13 C20 0.929 . S
H14 C23 0.930 . S
H15 C25 0.929 . S
H16 C17 0.969 . S
C17 H16 0.969 . S
C17 O18 1.550 . S
C17 H19 0.973 . S
O18 C17 1.550 . S
O18 C24 1.412 . S
H19 C17 0.973 . S
C20 H13 0.929 . S
C20 C21 1.400 . S
C20 C22 1.364 . S
C21 C20 1.400 . S
C21 C25 1.377 . S
C22 C20 1.364 . S
C22 C23 1.374 . S
C23 H14 0.930 . S
C23 C22 1.374 . S
C23 C24 1.383 . S
C24 O18 1.412 . S
C24 C23 1.383 . S
C24 C25 1.394 . S
C25 H15 0.929 . S
C25 C21 1.377 . S
C25 C24 1.394 . S
H26 C33 0.929 . S
H27 C36 0.930 . S
H28 C38 0.929 . S
H29 C30 0.969 . S
C30 H29 0.969 . S
C30 O31 1.550 . S
C30 H32 0.973 . S
O31 C30 1.550 . S
O31 C37 1.412 . S
H32 C30 0.973 . S
C33 H26 0.929 . S
C33 C34 1.400 . S
C33 C35 1.364 . S
C34 C33 1.400 . S
C34 C38 1.377 . S
C35 C33 1.364 . S
C35 C36 1.374 . S
C36 H27 0.930 . S
C36 C35 1.374 . S
C36 C37 1.383 . S
C37 O31 1.412 . S
C37 C36 1.383 . S
C37 C38 1.394 . S
C38 H28 0.929 . S
C38 C34 1.377 . S
C38 C37 1.394 . S
H39 C46 0.929 . S
H40 C49 0.930 . S
H41 C51 0.929 . S
H42 C43 0.969 . S
C43 H42 0.969 . S
C43 O44 1.550 . S
C43 H45 0.973 . S
O44 C43 1.550 . S
O44 C50 1.412 . S
H45 C43 0.973 . S
C46 H39 0.929 . S
C46 C47 1.400 . S
C46 C48 1.364 . S
C47 C46 1.400 . S
C47 C51 1.377 . S
C48 C46 1.364 . S
C48 C49 1.374 . S
C49 H40 0.930 . S
C49 C48 1.374 . S
C49 C50 1.383 . S
C50 O44 1.412 . S
C50 C49 1.383 . S
C50 C51 1.394 . S
C51 H41 0.929 . S
C51 C47 1.377 . S
C51 C50 1.394 . S
H52 C59 0.929 . S
H53 C62 0.930 . S
H54 C64 0.929 . S
H55 C56 0.969 . S
C56 H55 0.969 . S
C56 O57 1.550 . S
C56 H58 0.973 . S
O57 C56 1.550 . S
O57 C63 1.412 . S
H58 C56 0.973 . S
C59 H52 0.929 . S
C59 C60 1.400 . S
C59 C61 1.364 . S
C60 C59 1.400 . S
C60 C64 1.377 . S
C61 C59 1.364 . S
C61 C62 1.374 . S
C62 H53 0.930 . S
C62 C61 1.374 . S
C62 C63 1.383 . S
C63 O57 1.412 . S
C63 C62 1.383 . S
C63 C64 1.394 . S
C64 H54 0.929 . S
C64 C60 1.377 . S
C64 C63 1.394 . S
H65 C72 0.929 . S
H66 C75 0.930 . S
H67 C77 0.929 . S
H68 C69 0.969 . S
C69 H68 0.969 . S
C69 O70 1.550 . S
C69 H71 0.973 . S
O70 C69 1.550 . S
O70 C76 1.412 . S
H71 C69 0.973 . S
C72 H65 0.929 . S
C72 C73 1.400 . S
C72 C74 1.364 . S
C73 C72 1.400 . S
C73 C77 1.377 . S
C74 C72 1.364 . S
C74 C75 1.374 . S
C75 H66 0.930 . S
C75 C74 1.374 . S
C75 C76 1.383 . S
C76 O70 1.412 . S
C76 C75 1.383 . S
C76 C77 1.394 . S
C77 H67 0.929 . S
C77 C73 1.377 . S
C77 C76 1.394 . S
H78 C85 0.929 . S
H79 C88 0.930 . S
H80 C90 0.929 . S
H81 C82 0.969 . S
C82 H81 0.969 . S
C82 O83 1.550 . S
C82 H84 0.973 . S
O83 C82 1.550 . S
O83 C89 1.412 . S
H84 C82 0.973 . S
C85 H78 0.929 . S
C85 C86 1.400 . S
C85 C87 1.364 . S
C86 C85 1.400 . S
C86 C90 1.377 . S
C87 C85 1.364 . S
C87 C88 1.374 . S
C88 H79 0.930 . S
C88 C87 1.374 . S
C88 C89 1.383 . S
C89 O83 1.412 . S
C89 C88 1.383 . S
C89 C90 1.394 . S
C90 H80 0.929 . S
C90 C86 1.377 . S
C90 C89 1.394 . S
H91 C98 0.929 . S
H92 C101 0.930 . S
H93 C103 0.929 . S
H94 C95 0.969 . S
C95 H94 0.969 . S
C95 O96 1.550 . S
C95 H97 0.973 . S
O96 C95 1.550 . S
O96 C102 1.412 . S
H97 C95 0.973 . S
C98 H91 0.929 . S
C98 C99 1.400 . S
C98 C100 1.364 . S
C99 C98 1.400 . S
C99 C103 1.377 . S
C100 C98 1.364 . S
C100 C101 1.374 . S
C101 H92 0.930 . S
C101 C100 1.374 . S
C101 C102 1.383 . S
C102 O96 1.412 . S
C102 C101 1.383 . S
C102 C103 1.394 . S
C103 H93 0.929 . S
C103 C99 1.377 . S
C103 C102 1.394 . S
H104 C111 0.929 . S
H105 C114 0.930 . S
H106 C116 0.929 . S
H107 C108 0.969 . S
C108 H107 0.969 . S
C108 O109 1.550 . S
C108 H110 0.973 . S
O109 C108 1.550 . S
O109 C115 1.412 . S
H110 C108 0.973 . S
C111 H104 0.929 . S
C111 C112 1.400 . S
C111 C113 1.364 . S
C112 C111 1.400 . S
C112 C116 1.377 . S
C113 C111 1.364 . S
C113 C114 1.374 . S
C114 H105 0.930 . S
C114 C113 1.374 . S
C114 C115 1.383 . S
C115 O109 1.412 . S
C115 C114 1.383 . S
C115 C116 1.394 . S
C116 H106 0.929 . S
C116 C112 1.377 . S
C116 C115 1.394 . S
H117 C124 0.929 . S
H118 C127 0.930 . S
H119 C129 0.929 . S
H120 C121 0.969 . S
C121 H120 0.969 . S
C121 O122 1.550 . S
C121 H123 0.973 . S
O122 C121 1.550 . S
O122 C128 1.412 . S
H123 C121 0.973 . S
C124 H117 0.929 . S
C124 C125 1.400 . S
C124 C126 1.364 . S
C125 C124 1.400 . S
C125 C129 1.377 . S
C126 C124 1.364 . S
C126 C127 1.374 . S
C127 H118 0.930 . S
C127 C126 1.374 . S
C127 C128 1.383 . S
C128 O122 1.412 . S
C128 C127 1.383 . S
C128 C129 1.394 . S
C129 H119 0.929 . S
C129 C125 1.377 . S
C129 C128 1.394 . S
H130 C137 0.929 . S
H131 C140 0.930 . S
H132 C142 0.929 . S
H133 C134 0.969 . S
C134 H133 0.969 . S
C134 O135 1.550 . S
C134 H136 0.973 . S
O135 C134 1.550 . S
O135 C141 1.412 . S
H136 C134 0.973 . S
C137 H130 0.929 . S
C137 C138 1.400 . S
C137 C139 1.364 . S
C138 C137 1.400 . S
C138 C142 1.377 . S
C139 C137 1.364 . S
C139 C140 1.374 . S
C140 H131 0.930 . S
C140 C139 1.374 . S
C140 C141 1.383 . S
C141 O135 1.412 . S
C141 C140 1.383 . S
C141 C142 1.394 . S
C142 H132 0.929 . S
C142 C138 1.377 . S
C142 C141 1.394 . S
H143 C150 0.929 . S
H144 C153 0.930 . S
H145 C155 0.929 . S
H146 C147 0.969 . S
C147 H146 0.969 . S
C147 O148 1.550 . S
C147 H149 0.973 . S
O148 C147 1.550 . S
O148 C154 1.412 . S
H149 C147 0.973 . S
C150 H143 0.929 . S
C150 C151 1.400 . S
C150 C152 1.364 . S
C151 C150 1.400 . S
C151 C155 1.377 . S
C152 C150 1.364 . S
C152 C153 1.374 . S
C153 H144 0.930 . S
C153 C152 1.374 . S
C153 C154 1.383 . S
C154 O148 1.412 . S
C154 C153 1.383 . S
C154 C155 1.394 . S
C155 H145 0.929 . S
C155 C151 1.377 . S
C155 C154 1.394 . S
H156 C163 0.929 . S
H157 C166 0.930 . S
H158 C168 0.929 . S
H159 C160 0.969 . S
C160 H159 0.969 . S
C160 O161 1.550 . S
C160 H162 0.973 . S
O161 C160 1.550 . S
O161 C167 1.412 . S
H162 C160 0.973 . S
C163 H156 0.929 . S
C163 C164 1.400 . S
C163 C165 1.364 . S
C164 C163 1.400 . S
C164 C168 1.377 . S
C165 C163 1.364 . S
C165 C166 1.374 . S
C166 H157 0.930 . S
C166 C165 1.374 . S
C166 C167 1.383 . S
C167 O161 1.412 . S
C167 C166 1.383 . S
C167 C168 1.394 . S
C168 H158 0.929 . S
C168 C164 1.377 . S
C168 C167 1.394 . S
H169 C176 0.929 . S
H170 C179 0.930 . S
H171 C181 0.929 . S
H172 C173 0.969 . S
C173 H172 0.969 . S
C173 O174 1.550 . S
C173 H175 0.973 . S
O174 C173 1.550 . S
O174 C180 1.412 . S
H175 C173 0.973 . S
C176 H169 0.929 . S
C176 C177 1.400 . S
C176 C178 1.364 . S
C177 C176 1.400 . S
C177 C181 1.377 . S
C178 C176 1.364 . S
C178 C179 1.374 . S
C179 H170 0.930 . S
C179 C178 1.374 . S
C179 C180 1.383 . S
C180 O174 1.412 . S
C180 C179 1.383 . S
C180 C181 1.394 . S
C181 H171 0.929 . S
C181 C177 1.377 . S
C181 C180 1.394 . S
H182 C189 0.929 . S
H183 C192 0.930 . S
H184 C194 0.929 . S
H185 C186 0.969 . S
C186 H185 0.969 . S
C186 O187 1.550 . S
C186 H188 0.973 . S
O187 C186 1.550 . S
O187 C193 1.412 . S
H188 C186 0.973 . S
C189 H182 0.929 . S
C189 C190 1.400 . S
C189 C191 1.364 . S
C190 C189 1.400 . S
C190 C194 1.377 . S
C191 C189 1.364 . S
C191 C192 1.374 . S
C192 H183 0.930 . S
C192 C191 1.374 . S
C192 C193 1.383 . S
C193 O187 1.412 . S
C193 C192 1.383 . S
C193 C194 1.394 . S
C194 H184 0.929 . S
C194 C190 1.377 . S
C194 C193 1.394 . S
H195 C202 0.929 . S
H196 C205 0.930 . S
H197 C207 0.929 . S
H198 C199 0.969 . S
C199 H198 0.969 . S
C199 O200 1.550 . S
C199 H201 0.973 . S
O200 C199 1.550 . S
O200 C206 1.412 . S
H201 C199 0.973 . S
C202 H195 0.929 . S
C202 C203 1.400 . S
C202 C204 1.364 . S
C203 C202 1.400 . S
C203 C207 1.377 . S
C204 C202 1.364 . S
C204 C205 1.374 . S
C205 H196 0.930 . S
C205 C204 1.374 . S
C205 C206 1.383 . S
C206 O200 1.412 . S
C206 C205 1.383 . S
C206 C207 1.394 . S
C207 H197 0.929 . S
C207 C203 1.377 . S
C207 C206 1.394 . S
H208 C215 0.929 . S
H209 C218 0.930 . S
H210 C220 0.929 . S
H211 C212 0.969 . S
C212 H211 0.969 . S
C212 O213 1.550 . S
C212 H214 0.973 . S
O213 C212 1.550 . S
O213 C219 1.412 . S
H214 C212 0.973 . S
C215 H208 0.929 . S
C215 C216 1.400 . S
C215 C217 1.364 . S
C216 C215 1.400 . S
C216 C220 1.377 . S
C217 C215 1.364 . S
C217 C218 1.374 . S
C218 H209 0.930 . S
C218 C217 1.374 . S
C218 C219 1.383 . S
C219 O213 1.412 . S
C219 C218 1.383 . S
C219 C220 1.394 . S
C220 H210 0.929 . S
C220 C216 1.377 . S
C220 C219 1.394 . S
H221 C228 0.929 . S
H222 C231 0.930 . S
H223 C233 0.929 . S
H224 C225 0.969 . S
C225 H224 0.969 . S
C225 O226 1.550 . S
C225 H227 0.973 . S
O226 C225 1.550 . S
O226 C232 1.412 . S
H227 C225 0.973 . S
C228 H221 0.929 . S
C228 C229 1.400 . S
C228 C230 1.364 . S
C229 C228 1.400 . S
C229 C233 1.377 . S
C230 C228 1.364 . S
C230 C231 1.374 . S
C231 H222 0.930 . S
C231 C230 1.374 . S
C231 C232 1.383 . S
C232 O226 1.412 . S
C232 C231 1.383 . S
C232 C233 1.394 . S
C233 H223 0.929 . S
C233 C229 1.377 . S
C233 C232 1.394 . S
Tb234 N265 2.660 . S
Tb234 N272 2.600 . S
Tb234 O278 2.546 . S
Tb234 O279 2.610 1_566 S
Tb234 O281 2.320 1_565 S
Tb234 O282 2.552 1_565 S
Tb234 O283 2.413 1_565 S
Tb234 O285 2.362 1_556 S
Tb234 O286 2.421 1_556 S
Tb234 C298 2.833 1_565 S
C235 C238 1.432 . S
C235 C239 1.414 . S
C235 N242 1.359 . S
C236 C238 1.417 . S
C236 C240 1.432 . S
C236 C248 1.410 . S
C237 C239 1.444 . S
C237 C240 1.317 . S
C237 H260 0.929 . S
C238 C235 1.432 . S
C238 C236 1.417 . S
C238 N246 1.360 . S
C239 C235 1.414 . S
C239 C237 1.444 . S
C239 C244 1.385 . S
C240 C236 1.432 . S
C240 C237 1.317 . S
C240 H252 0.930 . S
C241 C243 1.392 . S
C241 C244 1.370 . S
C241 H253 0.931 . S
N242 C235 1.359 . S
N242 C243 1.327 . S
N242 Tb245 2.600 . S
C243 C241 1.392 . S
C243 N242 1.327 . S
C243 H250 0.930 . S
C244 C239 1.385 . S
C244 C241 1.370 . S
C244 H263 0.930 . S
Tb245 N242 2.600 . S
Tb245 N246 2.660 . S
Tb245 O279 2.362 . S
Tb245 O280 2.421 . S
Tb245 O284 2.546 . S
Tb245 O285 2.610 1_545 S
Tb245 O287 2.320 1_545 S
Tb245 O288 2.552 1_545 S
Tb245 O289 2.413 1_545 S
Tb245 C309 2.833 . S
N246 C238 1.360 . S
N246 Tb245 2.660 . S
N246 C247 1.305 . S
C247 N246 1.305 . S
C247 C249 1.407 . S
C247 H254 0.930 . S
C248 C236 1.410 . S
C248 C249 1.345 . S
C248 H256 0.930 . S
C249 C247 1.407 . S
C249 C248 1.345 . S
C249 H251 0.930 . S
H250 C243 0.930 . S
H251 C249 0.930 . S
H252 C240 0.930 . S
H253 C241 0.931 . S
H254 C247 0.930 . S
H255 C269 0.930 . S
H256 C248 0.930 . S
H257 C275 0.930 . S
H258 C266 0.940 . S
H259 C273 0.931 . S
H260 C237 0.929 . S
H261 C267 0.930 . S
H262 C300 0.930 . S
H263 C244 0.930 . S
H264 C299 0.929 . S
N265 Tb234 2.660 . S
N265 C266 1.305 . S
N265 C270 1.360 . S
C266 H258 0.940 . S
C266 N265 1.305 . S
C266 C269 1.407 . S
C267 H261 0.930 . S
C267 C268 1.410 . S
C267 C269 1.345 . S
C268 C267 1.410 . S
C268 C270 1.417 . S
C268 C300 1.432 . S
C269 H255 0.930 . S
C269 C266 1.407 . S
C269 C267 1.345 . S
C270 N265 1.360 . S
C270 C268 1.417 . S
C270 C274 1.432 . S
H271 C276 0.930 . S
N272 Tb234 2.600 . S
N272 C274 1.359 . S
N272 C275 1.327 . S
C273 H259 0.931 . S
C273 C275 1.392 . S
C273 C276 1.370 . S
C274 C270 1.432 . S
C274 N272 1.359 . S
C274 C277 1.414 . S
C275 H257 0.930 . S
C275 N272 1.327 . S
C275 C273 1.392 . S
C276 H271 0.930 . S
C276 C273 1.370 . S
C276 C277 1.385 . S
C277 C274 1.414 . S
C277 C276 1.385 . S
C277 C299 1.444 . S
O278 Tb234 2.546 . S
O278 C298 1.251 1_565 S
O279 Tb234 2.610 1_544 S
O279 Tb245 2.362 . S
O279 C290 1.283 1_554 S
O280 Tb245 2.421 . S
O280 C297 1.262 . S
O281 Tb234 2.320 1_545 S
O281 C297 1.260 1_556 S
O282 Tb234 2.552 1_545 S
O282 C290 1.243 . S
O283 Tb234 2.413 1_545 S
O283 C298 1.256 . S
O284 Tb245 2.546 . S
O284 C309 1.251 . S
O285 Tb234 2.362 1_554 S
O285 Tb245 2.610 1_565 S
O285 C301 1.283 . S
O286 Tb234 2.421 1_554 S
O286 C308 1.262 . S
O287 Tb245 2.320 1_565 S
O287 C308 1.260 . S
O288 Tb245 2.552 1_565 S
O288 C301 1.243 . S
O289 Tb245 2.413 1_565 S
O289 C309 1.256 1_565 S
C290 O279 1.283 1_556 S
C290 O282 1.243 . S
C291 C293 1.382 . S
C291 C295 1.393 1_545 S
C291 C298 1.500 . S
C292 C293 1.400 . S
C292 C294 1.384 . S
C293 C291 1.382 . S
C293 C292 1.400 . S
C293 H310 0.930 . S
C294 C292 1.384 . S
C294 C296 1.375 1_545 S
C294 H311 0.931 . S
C295 C291 1.393 1_565 S
C295 C296 1.405 . S
C295 H312 0.930 . S
C296 C294 1.375 1_565 S
C296 C295 1.405 . S
C296 H313 0.944 . S
C297 O280 1.262 . S
C297 O281 1.260 1_554 S
C298 Tb234 2.833 1_545 S
C298 O278 1.251 1_545 S
C298 O283 1.256 . S
C298 C291 1.500 . S
C299 H264 0.929 . S
C299 C277 1.444 . S
C299 C300 1.317 . S
C300 H262 0.930 . S
C300 C268 1.432 . S
C300 C299 1.317 . S
C301 O285 1.283 . S
C301 O288 1.243 . S
C302 C303 1.370 1_545 S
C302 C306 1.403 . S
C302 C309 1.502 . S
C303 C302 1.370 1_565 S
C303 C304 1.400 . S
C303 H314 0.930 . S
C304 C303 1.400 . S
C304 C305 1.384 . S
C305 C304 1.384 . S
C305 C307 1.392 1_565 S
C305 H315 0.931 . S
C306 C302 1.403 . S
C306 C307 1.401 . S
C306 H316 0.930 . S
C307 C305 1.392 1_545 S
C307 C306 1.401 . S
C307 H317 0.930 . S
C308 O286 1.262 . S
C308 O287 1.260 . S
C309 Tb245 2.833 . S
C309 O284 1.251 . S
C309 O289 1.256 1_545 S
C309 C302 1.502 . S
H310 C293 0.930 . S
H311 C294 0.931 . S
H312 C295 0.930 . S
H313 C296 0.944 . S
H314 C303 0.930 . S
H315 C305 0.931 . S
H316 C306 0.930 . S
H317 C307 0.930 . S
Tb318 N349 2.660 . S
Tb318 N356 2.600 . S
Tb318 O362 2.546 . S
Tb318 O363 2.610 1_456 S
Tb318 O365 2.320 1_455 S
Tb318 O366 2.552 1_455 S
Tb318 O367 2.420 . S
Tb318 O369 2.362 1_556 S
Tb318 O370 2.421 1_556 S
Tb318 C382 2.833 . S
C319 C322 1.432 . S
C319 C323 1.414 . S
C319 N326 1.359 . S
C320 C322 1.417 . S
C320 C324 1.432 . S
C320 C332 1.410 . S
C321 C323 1.444 . S
C321 C324 1.317 . S
C321 H344 0.929 . S
C322 C319 1.432 . S
C322 C320 1.417 . S
C322 N330 1.360 . S
C323 C319 1.414 . S
C323 C321 1.444 . S
C323 C328 1.385 . S
C324 C320 1.432 . S
C324 C321 1.317 . S
C324 H336 0.930 . S
C325 C327 1.392 . S
C325 C328 1.370 . S
C325 H337 0.931 . S
N326 C319 1.359 . S
N326 C327 1.327 . S
N326 Tb329 2.600 . S
C327 C325 1.392 . S
C327 N326 1.327 . S
C327 H334 0.930 . S
C328 C323 1.385 . S
C328 C325 1.370 . S
C328 H347 0.930 . S
Tb329 N326 2.600 . S
Tb329 N330 2.660 . S
Tb329 O363 2.362 . S
Tb329 O364 2.421 . S
Tb329 O368 2.546 . S
Tb329 O369 2.610 1_655 S
Tb329 O371 2.320 1_655 S
Tb329 O372 2.552 1_655 S
Tb329 O373 2.413 1_655 S
Tb329 C393 2.833 1_655 S
N330 C322 1.360 . S
N330 Tb329 2.660 . S
N330 C331 1.305 . S
C331 N330 1.305 . S
C331 C333 1.407 . S
C331 H338 0.929 . S
C332 C320 1.410 . S
C332 C333 1.345 . S
C332 H340 0.930 . S
C333 C331 1.407 . S
C333 C332 1.345 . S
C333 H335 0.930 . S
H334 C327 0.930 . S
H335 C333 0.930 . S
H336 C324 0.930 . S
H337 C325 0.931 . S
H338 C331 0.929 . S
H339 C353 0.930 . S
H340 C332 0.930 . S
H341 C359 0.930 . S
H342 C350 0.930 . S
H343 C357 0.931 . S
H344 C321 0.929 . S
H345 C351 0.930 . S
H346 C384 0.930 . S
H347 C328 0.930 . S
H348 C383 0.929 . S
N349 Tb318 2.660 . S
N349 C350 1.305 . S
N349 C354 1.360 . S
C350 H342 0.930 . S
C350 N349 1.305 . S
C350 C353 1.407 . S
C351 H345 0.930 . S
C351 C352 1.410 . S
C351 C353 1.345 . S
C352 C351 1.410 . S
C352 C354 1.417 . S
C352 C384 1.432 . S
C353 H339 0.930 . S
C353 C350 1.407 . S
C353 C351 1.345 . S
C354 N349 1.360 . S
C354 C352 1.417 . S
C354 C358 1.432 . S
H355 C360 0.930 . S
N356 Tb318 2.600 . S
N356 C358 1.359 . S
N356 C359 1.327 . S
C357 H343 0.931 . S
C357 C359 1.392 . S
C357 C360 1.370 . S
C358 C354 1.432 . S
C358 N356 1.359 . S
C358 C361 1.414 . S
C359 H341 0.930 . S
C359 N356 1.327 . S
C359 C357 1.392 . S
C360 H355 0.930 . S
C360 C357 1.370 . S
C360 C361 1.385 . S
C361 C358 1.414 . S
C361 C360 1.385 . S
C361 C383 1.444 . S
O362 Tb318 2.546 . S
O362 C382 1.251 . S
O363 Tb318 2.610 1_654 S
O363 Tb329 2.362 . S
O363 C374 1.283 1_554 S
O364 Tb329 2.421 . S
O364 C381 1.262 . S
O365 Tb318 2.320 1_655 S
O365 C381 1.260 1_556 S
O366 Tb318 2.552 1_655 S
O366 C374 1.243 . S
O367 Tb318 2.420 . S
O367 C382 1.254 . S
O368 Tb329 2.546 . S
O368 C393 1.251 1_655 S
O369 Tb318 2.362 1_554 S
O369 Tb329 2.610 1_455 S
O369 C385 1.283 . S
O370 Tb318 2.421 1_554 S
O370 C392 1.262 . S
O371 Tb329 2.320 1_455 S
O371 C392 1.260 . S
O372 Tb329 2.552 1_455 S
O372 C385 1.243 . S
O373 Tb329 2.413 1_455 S
O373 C393 1.256 . S
C374 O363 1.283 1_556 S
C374 O366 1.243 . S
C375 C377 1.382 1_455 S
C375 C379 1.393 . S
C375 C382 1.500 . S
C376 C377 1.400 . S
C376 C378 1.384 . S
C377 C375 1.382 1_655 S
C377 C376 1.400 . S
C377 H394 0.930 . S
C378 C376 1.384 . S
C378 C380 1.392 1_655 S
C378 H395 0.931 . S
C379 C375 1.393 . S
C379 C380 1.401 . S
C379 H396 0.930 . S
C380 C378 1.392 1_455 S
C380 C379 1.401 . S
C380 H397 0.930 . S
C381 O364 1.262 . S
C381 O365 1.260 1_554 S
C382 Tb318 2.833 . S
C382 O362 1.251 . S
C382 O367 1.254 . S
C382 C375 1.500 . S
C383 H348 0.929 . S
C383 C361 1.444 . S
C383 C384 1.317 . S
C384 H346 0.930 . S
C384 C352 1.432 . S
C384 C383 1.317 . S
C385 O369 1.283 . S
C385 O372 1.243 . S
C386 C387 1.382 . S
C386 C390 1.393 1_455 S
C386 C393 1.500 . S
C387 C386 1.382 . S
C387 C388 1.400 . S
C387 H398 0.930 . S
C388 C387 1.400 . S
C388 C389 1.384 . S
C389 C388 1.384 . S
C389 C391 1.392 1_455 S
C389 H399 0.931 . S
C390 C386 1.393 1_655 S
C390 C391 1.401 . S
C390 H400 0.930 . S
C391 C389 1.392 1_655 S
C391 C390 1.401 . S
C391 H401 0.930 . S
C392 O370 1.262 . S
C392 O371 1.260 . S
C393 Tb329 2.833 1_455 S
C393 O368 1.251 1_455 S
C393 O373 1.256 . S
C393 C386 1.500 . S
H394 C377 0.930 . S
H395 C378 0.931 . S
H396 C379 0.930 . S
H397 C380 0.930 . S
H398 C387 0.930 . S
H399 C389 0.931 . S
H400 C390 0.930 . S
H401 C391 0.930 . S
Tb402 N433 2.660 . S
Tb402 N440 2.600 . S
Tb402 O446 2.546 . S
Tb402 O447 2.610 . S
Tb402 O449 2.320 . S
Tb402 O450 2.552 . S
Tb402 O451 2.413 . S
Tb402 O453 2.362 . S
Tb402 O454 2.421 . S
Tb402 C466 2.833 . S
C403 C406 1.432 . S
C403 C407 1.414 . S
C403 N410 1.359 . S
C404 C406 1.417 . S
C404 C408 1.432 . S
C404 C416 1.410 . S
C405 C407 1.444 . S
C405 C408 1.317 . S
C405 H428 0.929 . S
C406 C403 1.432 . S
C406 C404 1.417 . S
C406 N414 1.360 . S
C407 C403 1.414 . S
C407 C405 1.444 . S
C407 C412 1.385 . S
C408 C404 1.432 . S
C408 C405 1.317 . S
C408 H420 0.930 . S
C409 C411 1.392 . S
C409 C412 1.370 . S
C409 H421 0.931 . S
N410 C403 1.359 . S
N410 C411 1.327 . S
N410 Tb413 2.600 . S
C411 C409 1.392 . S
C411 N410 1.327 . S
C411 H418 0.930 . S
C412 C407 1.385 . S
C412 C409 1.370 . S
C412 H431 0.930 . S
Tb413 N410 2.600 . S
Tb413 N414 2.660 . S
Tb413 O447 2.362 1_556 S
Tb413 O448 2.421 1_556 S
Tb413 O452 2.546 . S
Tb413 O453 2.610 1_556 S
Tb413 O455 2.320 . S
Tb413 O456 2.552 . S
Tb413 O457 2.413 . S
Tb413 C477 2.833 . S
N414 C406 1.360 . S
N414 Tb413 2.660 . S
N414 C415 1.305 . S
C415 N414 1.305 . S
C415 C417 1.407 . S
C415 H422 0.930 . S
C416 C404 1.410 . S
C416 C417 1.345 . S
C416 H424 0.930 . S
C417 C415 1.407 . S
C417 C416 1.345 . S
C417 H419 0.930 . S
H418 C411 0.930 . S
H419 C417 0.930 . S
H420 C408 0.930 . S
H421 C409 0.931 . S
H422 C415 0.930 . S
H423 C437 0.930 . S
H424 C416 0.930 . S
H425 C443 0.930 . S
H426 C434 0.930 . S
H427 C441 0.931 . S
H428 C405 0.929 . S
H429 C435 0.930 . S
H430 C468 0.930 . S
H431 C412 0.930 . S
H432 C467 0.929 . S
N433 Tb402 2.660 . S
N433 C434 1.305 . S
N433 C438 1.360 . S
C434 H426 0.930 . S
C434 N433 1.305 . S
C434 C437 1.407 . S
C435 H429 0.930 . S
C435 C436 1.410 . S
C435 C437 1.345 . S
C436 C435 1.410 . S
C436 C438 1.417 . S
C436 C468 1.432 . S
C437 H423 0.930 . S
C437 C434 1.407 . S
C437 C435 1.345 . S
C438 N433 1.360 . S
C438 C436 1.417 . S
C438 C442 1.432 . S
H439 C444 0.930 . S
N440 Tb402 2.600 . S
N440 C442 1.359 . S
N440 C443 1.327 . S
C441 H427 0.931 . S
C441 C443 1.392 . S
C441 C444 1.370 . S
C442 C438 1.432 . S
C442 N440 1.359 . S
C442 C445 1.414 . S
C443 H425 0.930 . S
C443 N440 1.327 . S
C443 C441 1.392 . S
C444 H439 0.930 . S
C444 C441 1.370 . S
C444 C445 1.385 . S
C445 C442 1.414 . S
C445 C444 1.385 . S
C445 C467 1.444 . S
O446 Tb402 2.546 . S
O446 C466 1.251 . S
O447 Tb402 2.610 . S
O447 Tb413 2.362 1_554 S
O447 C458 1.283 . S
O448 Tb413 2.421 1_554 S
O448 C465 1.262 . S
O449 Tb402 2.320 . S
O449 C465 1.260 . S
O450 Tb402 2.552 . S
O450 C458 1.243 . S
O451 Tb402 2.413 . S
O451 C466 1.256 . S
O452 Tb413 2.546 . S
O452 C477 1.251 . S
O453 Tb402 2.362 . S
O453 Tb413 2.610 1_554 S
O453 C469 1.283 1_554 S
O454 Tb402 2.421 . S
O454 C476 1.262 . S
O455 Tb413 2.320 . S
O455 C476 1.260 1_556 S
O456 Tb413 2.552 . S
O456 C469 1.243 . S
O457 Tb413 2.413 . S
O457 C477 1.256 . S
C458 O447 1.283 . S
C458 O450 1.243 . S
C459 C461 1.382 . S
C459 C463 1.393 . S
C459 C466 1.500 . S
C460 C461 1.400 . S
C460 C462 1.384 . S
C461 C459 1.382 . S
C461 C460 1.400 . S
C461 H478 0.930 . S
C462 C460 1.384 . S
C462 C464 1.392 . S
C462 H479 0.931 . S
C463 C459 1.393 . S
C463 C464 1.401 . S
C463 H480 0.930 . S
C464 C462 1.392 . S
C464 C463 1.401 . S
C464 H481 0.930 . S
C465 O448 1.262 . S
C465 O449 1.260 . S
C466 Tb402 2.833 . S
C466 O446 1.251 . S
C466 O451 1.256 . S
C466 C459 1.500 . S
C467 H432 0.929 . S
C467 C445 1.444 . S
C467 C468 1.317 . S
C468 H430 0.930 . S
C468 C436 1.432 . S
C468 C467 1.317 . S
C469 O453 1.283 1_556 S
C469 O456 1.243 . S
C470 C471 1.382 . S
C470 C474 1.393 . S
C470 C477 1.500 . S
C471 C470 1.382 . S
C471 C472 1.400 . S
C471 H482 0.930 . S
C472 C471 1.400 . S
C472 C473 1.384 . S
C473 C472 1.384 . S
C473 C475 1.392 . S
C473 H483 0.931 . S
C474 C470 1.393 . S
C474 C475 1.401 . S
C474 H484 0.930 . S
C475 C473 1.392 . S
C475 C474 1.401 . S
C475 H485 0.930 . S
C476 O454 1.262 . S
C476 O455 1.260 1_554 S
C477 Tb413 2.833 . S
C477 O452 1.251 . S
C477 O457 1.256 . S
C477 C470 1.500 . S
H478 C461 0.930 . S
H479 C462 0.931 . S
H480 C463 0.930 . S
H481 C464 0.930 . S
H482 C471 0.930 . S
H483 C473 0.931 . S
H484 C474 0.930 . S
H485 C475 0.930 . S
Tb486 N517 2.660 . S
Tb486 N524 2.600 . S
Tb486 O530 2.546 . S
Tb486 O531 2.610 . S
Tb486 O533 2.320 . S
Tb486 O534 2.552 . S
Tb486 O535 2.413 . S
Tb486 O537 2.362 . S
Tb486 O538 2.421 . S
Tb486 C550 2.833 . S
C487 C490 1.432 . S
C487 C491 1.414 . S
C487 N494 1.359 . S
C488 C490 1.417 . S
C488 C492 1.432 . S
C488 C500 1.410 . S
C489 C491 1.444 . S
C489 C492 1.317 . S
C489 H512 0.929 . S
C490 C487 1.432 . S
C490 C488 1.417 . S
C490 N498 1.360 . S
C491 C487 1.414 . S
C491 C489 1.444 . S
C491 C496 1.385 . S
C492 C488 1.432 . S
C492 C489 1.317 . S
C492 H504 0.930 . S
C493 C495 1.392 . S
C493 C496 1.370 . S
C493 H505 0.931 . S
N494 C487 1.359 . S
N494 C495 1.327 . S
N494 Tb497 2.600 . S
C495 C493 1.392 . S
C495 N494 1.327 . S
C495 H502 0.930 . S
C496 C491 1.385 . S
C496 C493 1.370 . S
C496 H515 0.930 . S
Tb497 N494 2.600 . S
Tb497 N498 2.660 . S
Tb497 O531 2.362 . S
Tb497 O532 2.421 . S
Tb497 O536 2.546 . S
Tb497 O537 2.610 . S
Tb497 O539 2.320 . S
Tb497 O540 2.552 . S
Tb497 O541 2.413 . S
Tb497 C561 2.833 . S
N498 C490 1.360 . S
N498 Tb497 2.660 . S
N498 C499 1.305 . S
C499 N498 1.305 . S
C499 C501 1.407 . S
C499 H506 0.930 . S
C500 C488 1.410 . S
C500 C501 1.345 . S
C500 H508 0.930 . S
C501 C499 1.407 . S
C501 C500 1.345 . S
C501 H503 0.930 . S
H502 C495 0.930 . S
H503 C501 0.930 . S
H504 C492 0.930 . S
H505 C493 0.931 . S
H506 C499 0.930 . S
H507 C521 0.930 . S
H508 C500 0.930 . S
H509 C527 0.930 . S
H510 C518 0.930 . S
H511 C525 0.931 . S
H512 C489 0.929 . S
H513 C519 0.930 . S
H514 C552 0.930 . S
H515 C496 0.930 . S
H516 C551 0.929 . S
N517 Tb486 2.660 . S
N517 C518 1.305 . S
N517 C522 1.360 . S
C518 H510 0.930 . S
C518 N517 1.305 . S
C518 C521 1.407 . S
C519 H513 0.930 . S
C519 C520 1.410 . S
C519 C521 1.345 . S
C520 C519 1.410 . S
C520 C522 1.417 . S
C520 C552 1.432 . S
C521 H507 0.930 . S
C521 C518 1.407 . S
C521 C519 1.345 . S
C522 N517 1.360 . S
C522 C520 1.417 . S
C522 C526 1.432 . S
H523 C528 0.930 . S
N524 Tb486 2.600 . S
N524 C526 1.359 . S
N524 C527 1.327 . S
C525 H511 0.931 . S
C525 C527 1.392 . S
C525 C528 1.370 . S
C526 C522 1.432 . S
C526 N524 1.359 . S
C526 C529 1.414 . S
C527 H509 0.930 . S
C527 N524 1.327 . S
C527 C525 1.392 . S
C528 H523 0.930 . S
C528 C525 1.370 . S
C528 C529 1.385 . S
C529 C526 1.414 . S
C529 C528 1.385 . S
C529 C551 1.444 . S
O530 Tb486 2.546 . S
O530 C550 1.251 . S
O531 Tb486 2.610 . S
O531 Tb497 2.362 . S
O531 C542 1.283 . S
O532 Tb497 2.421 . S
O532 C549 1.262 . S
O533 Tb486 2.320 . S
O533 C549 1.260 . S
O534 Tb486 2.552 . S
O534 C542 1.243 . S
O535 Tb486 2.413 . S
O535 C550 1.256 . S
O536 Tb497 2.546 . S
O536 C561 1.251 . S
O537 Tb486 2.362 . S
O537 Tb497 2.610 . S
O537 C553 1.283 . S
O538 Tb486 2.421 . S
O538 C560 1.262 . S
O539 Tb497 2.320 . S
O539 C560 1.260 . S
O540 Tb497 2.552 . S
O540 C553 1.243 . S
O541 Tb497 2.413 . S
O541 C561 1.256 . S
C542 O531 1.283 . S
C542 O534 1.243 . S
C543 C545 1.382 . S
C543 C547 1.393 . S
C543 C550 1.500 . S
C544 C545 1.400 . S
C544 C546 1.384 . S
C545 C543 1.382 . S
C545 C544 1.400 . S
C545 H562 0.930 . S
C546 C544 1.384 . S
C546 C548 1.392 . S
C546 H563 0.931 . S
C547 C543 1.393 . S
C547 C548 1.401 . S
C547 H564 0.930 . S
C548 C546 1.392 . S
C548 C547 1.401 . S
C548 H565 0.930 . S
C549 O532 1.262 . S
C549 O533 1.260 . S
C550 Tb486 2.833 . S
C550 O530 1.251 . S
C550 O535 1.256 . S
C550 C543 1.500 . S
C551 H516 0.929 . S
C551 C529 1.444 . S
C551 C552 1.317 . S
C552 H514 0.930 . S
C552 C520 1.432 . S
C552 C551 1.317 . S
C553 O537 1.283 . S
C553 O540 1.243 . S
C554 C555 1.382 . S
C554 C558 1.393 . S
C554 C561 1.500 . S
C555 C554 1.382 . S
C555 C556 1.400 . S
C555 H566 0.930 . S
C556 C555 1.400 . S
C556 C557 1.384 . S
C557 C556 1.384 . S
C557 C559 1.392 . S
C557 H567 0.931 . S
C558 C554 1.393 . S
C558 C559 1.401 . S
C558 H568 0.930 . S
C559 C557 1.392 . S
C559 C558 1.401 . S
C559 H569 0.930 . S
C560 O538 1.262 . S
C560 O539 1.260 . S
C561 Tb497 2.833 . S
C561 O536 1.251 . S
C561 O541 1.256 . S
C561 C554 1.500 . S
H562 C545 0.930 . S
H563 C546 0.931 . S
H564 C547 0.930 . S
H565 C548 0.930 . S
H566 C555 0.930 . S
H567 C557 0.931 . S
H568 C558 0.930 . S
H569 C559 0.930 . S
Tb570 N601 2.660 . S
Tb570 N608 2.600 . S
Tb570 O614 2.546 . S
Tb570 O615 2.610 . S
Tb570 O617 2.320 . S
Tb570 O618 2.552 . S
Tb570 O619 2.413 . S
Tb570 O621 2.362 . S
Tb570 O622 2.421 . S
Tb570 C634 2.833 . S
C571 C574 1.432 . S
C571 C575 1.414 . S
C571 N578 1.359 . S
C572 C574 1.417 . S
C572 C576 1.432 . S
C572 C584 1.410 . S
C573 C575 1.444 . S
C573 C576 1.317 . S
C573 H596 0.929 . S
C574 C571 1.432 . S
C574 C572 1.417 . S
C574 N582 1.360 . S
C575 C571 1.414 . S
C575 C573 1.444 . S
C575 C580 1.385 . S
C576 C572 1.432 . S
C576 C573 1.317 . S
C576 H588 0.930 . S
C577 C579 1.392 . S
C577 C580 1.370 . S
C577 H589 0.931 . S
N578 C571 1.359 . S
N578 C579 1.327 . S
N578 Tb581 2.600 . S
C579 C577 1.392 . S
C579 N578 1.327 . S
C579 H586 0.930 . S
C580 C575 1.385 . S
C580 C577 1.370 . S
C580 H599 0.930 . S
Tb581 N578 2.600 . S
Tb581 N582 2.660 . S
Tb581 O615 2.362 . S
Tb581 O616 2.421 . S
Tb581 O620 2.546 . S
Tb581 O621 2.610 . S
Tb581 O623 2.320 . S
Tb581 O624 2.552 . S
Tb581 O625 2.413 . S
Tb581 C645 2.833 . S
N582 C574 1.360 . S
N582 Tb581 2.660 . S
N582 C583 1.305 . S
C583 N582 1.305 . S
C583 C585 1.407 . S
C583 H590 0.930 . S
C584 C572 1.410 . S
C584 C585 1.345 . S
C584 H592 0.930 . S
C585 C583 1.407 . S
C585 C584 1.345 . S
C585 H587 0.930 . S
H586 C579 0.930 . S
H587 C585 0.930 . S
H588 C576 0.930 . S
H589 C577 0.931 . S
H590 C583 0.930 . S
H591 C605 0.930 . S
H592 C584 0.930 . S
H593 C611 0.930 . S
H594 C602 0.930 . S
H595 C609 0.931 . S
H596 C573 0.929 . S
H597 C603 0.930 . S
H598 C636 0.930 . S
H599 C580 0.930 . S
H600 C635 0.929 . S
N601 Tb570 2.660 . S
N601 C602 1.305 . S
N601 C606 1.360 . S
C602 H594 0.930 . S
C602 N601 1.305 . S
C602 C605 1.407 . S
C603 H597 0.930 . S
C603 C604 1.410 . S
C603 C605 1.345 . S
C604 C603 1.410 . S
C604 C606 1.417 . S
C604 C636 1.432 . S
C605 H591 0.930 . S
C605 C602 1.407 . S
C605 C603 1.345 . S
C606 N601 1.360 . S
C606 C604 1.417 . S
C606 C610 1.432 . S
H607 C612 0.930 . S
N608 Tb570 2.600 . S
N608 C610 1.359 . S
N608 C611 1.327 . S
C609 H595 0.931 . S
C609 C611 1.392 . S
C609 C612 1.370 . S
C610 C606 1.432 . S
C610 N608 1.359 . S
C610 C613 1.414 . S
C611 H593 0.930 . S
C611 N608 1.327 . S
C611 C609 1.392 . S
C612 H607 0.930 . S
C612 C609 1.370 . S
C612 C613 1.385 . S
C613 C610 1.414 . S
C613 C612 1.385 . S
C613 C635 1.444 . S
O614 Tb570 2.546 . S
O614 C634 1.251 . S
O615 Tb570 2.610 . S
O615 Tb581 2.362 . S
O615 C626 1.283 . S
O616 Tb581 2.421 . S
O616 C633 1.262 . S
O617 Tb570 2.320 . S
O617 C633 1.260 . S
O618 Tb570 2.552 . S
O618 C626 1.243 . S
O619 Tb570 2.413 . S
O619 C634 1.256 . S
O620 Tb581 2.546 . S
O620 C645 1.251 . S
O621 Tb570 2.362 . S
O621 Tb581 2.610 . S
O621 C637 1.283 . S
O622 Tb570 2.421 . S
O622 C644 1.262 . S
O623 Tb581 2.320 . S
O623 C644 1.260 . S
O624 Tb581 2.552 . S
O624 C637 1.243 . S
O625 Tb581 2.413 . S
O625 C645 1.256 . S
C626 O615 1.283 . S
C626 O618 1.243 . S
C627 C629 1.382 . S
C627 C631 1.393 . S
C627 C634 1.500 . S
C628 C629 1.400 . S
C628 C630 1.384 . S
C629 C627 1.382 . S
C629 C628 1.400 . S
C629 H646 0.930 . S
C630 C628 1.384 . S
C630 C632 1.392 . S
C630 H647 0.931 . S
C631 C627 1.393 . S
C631 C632 1.401 . S
C631 H648 0.930 . S
C632 C630 1.392 . S
C632 C631 1.401 . S
C632 H649 0.930 . S
C633 O616 1.262 . S
C633 O617 1.260 . S
C634 Tb570 2.833 . S
C634 O614 1.251 . S
C634 O619 1.256 . S
C634 C627 1.500 . S
C635 H600 0.929 . S
C635 C613 1.444 . S
C635 C636 1.317 . S
C636 H598 0.930 . S
C636 C604 1.432 . S
C636 C635 1.317 . S
C637 O621 1.283 . S
C637 O624 1.243 . S
C638 C639 1.382 . S
C638 C642 1.393 . S
C638 C645 1.500 . S
C639 C638 1.382 . S
C639 C640 1.400 . S
C639 H650 0.930 . S
C640 C639 1.400 . S
C640 C641 1.384 . S
C641 C640 1.384 . S
C641 C643 1.392 . S
C641 H651 0.931 . S
C642 C638 1.393 . S
C642 C643 1.401 . S
C642 H652 0.930 . S
C643 C641 1.392 . S
C643 C642 1.401 . S
C643 H653 0.930 . S
C644 O622 1.262 . S
C644 O623 1.260 . S
C645 Tb581 2.833 . S
C645 O620 1.251 . S
C645 O625 1.256 . S
C645 C638 1.500 . S
H646 C629 0.930 . S
H647 C630 0.931 . S
H648 C631 0.930 . S
H649 C632 0.930 . S
H650 C639 0.930 . S
H651 C641 0.931 . S
H652 C642 0.930 . S
H653 C643 0.930 . S
Tb654 N685 2.660 . S
Tb654 N692 2.600 . S
Tb654 O698 2.546 . S
Tb654 O699 2.610 . S
Tb654 O701 2.320 . S
Tb654 O702 2.552 . S
Tb654 O703 2.413 . S
Tb654 O705 2.362 . S
Tb654 O706 2.421 . S
Tb654 C718 2.833 . S
C655 C658 1.432 . S
C655 C659 1.414 . S
C655 N662 1.359 . S
C656 C658 1.417 . S
C656 C660 1.432 . S
C656 C668 1.410 . S
C657 C659 1.444 . S
C657 C660 1.317 . S
C657 H680 0.929 . S
C658 C655 1.432 . S
C658 C656 1.417 . S
C658 N666 1.360 . S
C659 C655 1.414 . S
C659 C657 1.444 . S
C659 C664 1.385 . S
C660 C656 1.432 . S
C660 C657 1.317 . S
C660 H672 0.930 . S
C661 C663 1.392 . S
C661 C664 1.370 . S
C661 H673 0.931 . S
N662 C655 1.359 . S
N662 C663 1.327 . S
N662 Tb665 2.600 . S
C663 C661 1.392 . S
C663 N662 1.327 . S
C663 H670 0.930 . S
C664 C659 1.385 . S
C664 C661 1.370 . S
C664 H683 0.930 . S
Tb665 N662 2.600 . S
Tb665 N666 2.660 . S
Tb665 O699 2.362 . S
Tb665 O700 2.421 . S
Tb665 O704 2.546 . S
Tb665 O705 2.610 . S
Tb665 O707 2.320 . S
Tb665 O708 2.552 . S
Tb665 O709 2.413 . S
Tb665 C729 2.833 . S
N666 C658 1.360 . S
N666 Tb665 2.660 . S
N666 C667 1.305 . S
C667 N666 1.305 . S
C667 C669 1.407 . S
C667 H674 0.930 . S
C668 C656 1.410 . S
C668 C669 1.345 . S
C668 H676 0.930 . S
C669 C667 1.407 . S
C669 C668 1.345 . S
C669 H671 0.930 . S
H670 C663 0.930 . S
H671 C669 0.930 . S
H672 C660 0.930 . S
H673 C661 0.931 . S
H674 C667 0.930 . S
H675 C689 0.930 . S
H676 C668 0.930 . S
H677 C695 0.930 . S
H678 C686 0.930 . S
H679 C693 0.931 . S
H680 C657 0.929 . S
H681 C687 0.930 . S
H682 C720 0.930 . S
H683 C664 0.930 . S
H684 C719 0.929 . S
N685 Tb654 2.660 . S
N685 C686 1.305 . S
N685 C690 1.360 . S
C686 H678 0.930 . S
C686 N685 1.305 . S
C686 C689 1.407 . S
C687 H681 0.930 . S
C687 C688 1.410 . S
C687 C689 1.345 . S
C688 C687 1.410 . S
C688 C690 1.417 . S
C688 C720 1.432 . S
C689 H675 0.930 . S
C689 C686 1.407 . S
C689 C687 1.345 . S
C690 N685 1.360 . S
C690 C688 1.417 . S
C690 C694 1.432 . S
H691 C696 0.930 . S
N692 Tb654 2.600 . S
N692 C694 1.359 . S
N692 C695 1.327 . S
C693 H679 0.931 . S
C693 C695 1.392 . S
C693 C696 1.370 . S
C694 C690 1.432 . S
C694 N692 1.359 . S
C694 C697 1.414 . S
C695 H677 0.930 . S
C695 N692 1.327 . S
C695 C693 1.392 . S
C696 H691 0.930 . S
C696 C693 1.370 . S
C696 C697 1.385 . S
C697 C694 1.414 . S
C697 C696 1.385 . S
C697 C719 1.444 . S
O698 Tb654 2.546 . S
O698 C718 1.251 . S
O699 Tb654 2.610 . S
O699 Tb665 2.362 . S
O699 C710 1.283 . S
O700 Tb665 2.421 . S
O700 C717 1.262 . S
O701 Tb654 2.320 . S
O701 C717 1.260 . S
O702 Tb654 2.552 . S
O702 C710 1.243 . S
O703 Tb654 2.413 . S
O703 C718 1.256 . S
O704 Tb665 2.546 . S
O704 C729 1.251 . S
O705 Tb654 2.362 . S
O705 Tb665 2.610 . S
O705 C721 1.283 . S
O706 Tb654 2.421 . S
O706 C728 1.262 . S
O707 Tb665 2.320 . S
O707 C728 1.260 . S
O708 Tb665 2.552 . S
O708 C721 1.243 . S
O709 Tb665 2.413 . S
O709 C729 1.256 . S
C710 O699 1.283 . S
C710 O702 1.243 . S
C711 C713 1.382 . S
C711 C715 1.393 . S
C711 C718 1.500 . S
C712 C713 1.400 . S
C712 C714 1.384 . S
C713 C711 1.382 . S
C713 C712 1.400 . S
C713 H730 0.930 . S
C714 C712 1.384 . S
C714 C716 1.392 . S
C714 H731 0.931 . S
C715 C711 1.393 . S
C715 C716 1.401 . S
C715 H732 0.930 . S
C716 C714 1.392 . S
C716 C715 1.401 . S
C716 H733 0.930 . S
C717 O700 1.262 . S
C717 O701 1.260 . S
C718 Tb654 2.833 . S
C718 O698 1.251 . S
C718 O703 1.256 . S
C718 C711 1.500 . S
C719 H684 0.929 . S
C719 C697 1.444 . S
C719 C720 1.317 . S
C720 H682 0.930 . S
C720 C688 1.432 . S
C720 C719 1.317 . S
C721 O705 1.283 . S
C721 O708 1.243 . S
C722 C723 1.382 . S
C722 C726 1.393 . S
C722 C729 1.500 . S
C723 C722 1.382 . S
C723 C724 1.400 . S
C723 H734 0.930 . S
C724 C723 1.400 . S
C724 C725 1.384 . S
C725 C724 1.384 . S
C725 C727 1.392 . S
C725 H735 0.931 . S
C726 C722 1.393 . S
C726 C727 1.401 . S
C726 H736 0.930 . S
C727 C725 1.392 . S
C727 C726 1.401 . S
C727 H737 0.930 . S
C728 O706 1.262 . S
C728 O707 1.260 . S
C729 Tb665 2.833 . S
C729 O704 1.251 . S
C729 O709 1.256 . S
C729 C722 1.500 . S
H730 C713 0.930 . S
H731 C714 0.931 . S
H732 C715 0.930 . S
H733 C716 0.930 . S
H734 C723 0.930 . S
H735 C725 0.931 . S
H736 C726 0.930 . S
H737 C727 0.930 . S
Tb738 N769 2.660 . S
Tb738 N776 2.600 . S
Tb738 O782 2.546 . S
Tb738 O783 2.610 . S
Tb738 O785 2.320 . S
Tb738 O786 2.552 . S
Tb738 O787 2.413 . S
Tb738 O789 2.362 . S
Tb738 O790 2.421 . S
Tb738 C802 2.833 . S
C739 C742 1.432 . S
C739 C743 1.414 . S
C739 N746 1.359 . S
C740 C742 1.417 . S
C740 C744 1.432 . S
C740 C752 1.410 . S
C741 C743 1.444 . S
C741 C744 1.317 . S
C741 H764 0.929 . S
C742 C739 1.432 . S
C742 C740 1.417 . S
C742 N750 1.360 . S
C743 C739 1.414 . S
C743 C741 1.444 . S
C743 C748 1.385 . S
C744 C740 1.432 . S
C744 C741 1.317 . S
C744 H756 0.930 . S
C745 C747 1.392 . S
C745 C748 1.370 . S
C745 H757 0.931 . S
N746 C739 1.359 . S
N746 C747 1.327 . S
N746 Tb749 2.600 . S
C747 C745 1.392 . S
C747 N746 1.327 . S
C747 H754 0.930 . S
C748 C743 1.385 . S
C748 C745 1.370 . S
C748 H767 0.930 . S
Tb749 N746 2.600 . S
Tb749 N750 2.660 . S
Tb749 O783 2.362 . S
Tb749 O784 2.421 . S
Tb749 O788 2.546 . S
Tb749 O789 2.610 . S
Tb749 O791 2.320 . S
Tb749 O792 2.552 . S
Tb749 O793 2.413 . S
Tb749 C813 2.833 . S
N750 C742 1.360 . S
N750 Tb749 2.660 . S
N750 C751 1.305 . S
C751 N750 1.305 . S
C751 C753 1.407 . S
C751 H758 0.930 . S
C752 C740 1.410 . S
C752 C753 1.345 . S
C752 H760 0.930 . S
C753 C751 1.407 . S
C753 C752 1.345 . S
C753 H755 0.930 . S
H754 C747 0.930 . S
H755 C753 0.930 . S
H756 C744 0.930 . S
H757 C745 0.931 . S
H758 C751 0.930 . S
H759 C773 0.930 . S
H760 C752 0.930 . S
H761 C779 0.930 . S
H762 C770 0.930 . S
H763 C777 0.931 . S
H764 C741 0.929 . S
H765 C771 0.930 . S
H766 C804 0.930 . S
H767 C748 0.930 . S
H768 C803 0.929 . S
N769 Tb738 2.660 . S
N769 C770 1.305 . S
N769 C774 1.360 . S
C770 H762 0.930 . S
C770 N769 1.305 . S
C770 C773 1.407 . S
C771 H765 0.930 . S
C771 C772 1.410 . S
C771 C773 1.345 . S
C772 C771 1.410 . S
C772 C774 1.417 . S
C772 C804 1.432 . S
C773 H759 0.930 . S
C773 C770 1.407 . S
C773 C771 1.345 . S
C774 N769 1.360 . S
C774 C772 1.417 . S
C774 C778 1.432 . S
H775 C780 0.930 . S
N776 Tb738 2.600 . S
N776 C778 1.359 . S
N776 C779 1.327 . S
C777 H763 0.931 . S
C777 C779 1.392 . S
C777 C780 1.370 . S
C778 C774 1.432 . S
C778 N776 1.359 . S
C778 C781 1.414 . S
C779 H761 0.930 . S
C779 N776 1.327 . S
C779 C777 1.392 . S
C780 H775 0.930 . S
C780 C777 1.370 . S
C780 C781 1.385 . S
C781 C778 1.414 . S
C781 C780 1.385 . S
C781 C803 1.444 . S
O782 Tb738 2.546 . S
O782 C802 1.251 . S
O783 Tb738 2.610 . S
O783 Tb749 2.362 . S
O783 C794 1.283 . S
O784 Tb749 2.421 . S
O784 C801 1.262 . S
O785 Tb738 2.320 . S
O785 C801 1.260 . S
O786 Tb738 2.552 . S
O786 C794 1.243 . S
O787 Tb738 2.413 . S
O787 C802 1.256 . S
O788 Tb749 2.546 . S
O788 C813 1.251 . S
O789 Tb738 2.362 . S
O789 Tb749 2.610 . S
O789 C805 1.283 . S
O790 Tb738 2.421 . S
O790 C812 1.262 . S
O791 Tb749 2.320 . S
O791 C812 1.260 . S
O792 Tb749 2.552 . S
O792 C805 1.243 . S
O793 Tb749 2.413 . S
O793 C813 1.256 . S
C794 O783 1.283 . S
C794 O786 1.243 . S
C795 C797 1.382 . S
C795 C799 1.393 . S
C795 C802 1.500 . S
C796 C797 1.400 . S
C796 C798 1.384 . S
C797 C795 1.382 . S
C797 C796 1.400 . S
C797 H814 0.930 . S
C798 C796 1.384 . S
C798 C800 1.392 . S
C798 H815 0.931 . S
C799 C795 1.393 . S
C799 C800 1.401 . S
C799 H816 0.930 . S
C800 C798 1.392 . S
C800 C799 1.401 . S
C800 H817 0.930 . S
C801 O784 1.262 . S
C801 O785 1.260 . S
C802 Tb738 2.833 . S
C802 O782 1.251 . S
C802 O787 1.256 . S
C802 C795 1.500 . S
C803 H768 0.929 . S
C803 C781 1.444 . S
C803 C804 1.317 . S
C804 H766 0.930 . S
C804 C772 1.432 . S
C804 C803 1.317 . S
C805 O789 1.283 . S
C805 O792 1.243 . S
C806 C807 1.382 . S
C806 C810 1.393 . S
C806 C813 1.500 . S
C807 C806 1.382 . S
C807 C808 1.400 . S
C807 H818 0.930 . S
C808 C807 1.400 . S
C808 C809 1.384 . S
C809 C808 1.384 . S
C809 C811 1.392 . S
C809 H819 0.931 . S
C810 C806 1.393 . S
C810 C811 1.401 . S
C810 H820 0.930 . S
C811 C809 1.392 . S
C811 C810 1.401 . S
C811 H821 0.930 . S
C812 O790 1.262 . S
C812 O791 1.260 . S
C813 Tb749 2.833 . S
C813 O788 1.251 . S
C813 O793 1.256 . S
C813 C806 1.500 . S
H814 C797 0.930 . S
H815 C798 0.931 . S
H816 C799 0.930 . S
H817 C800 0.930 . S
H818 C807 0.930 . S
H819 C809 0.931 . S
H820 C810 0.930 . S
H821 C811 0.930 . S
Tb822 N853 2.660 . S
Tb822 N860 2.600 . S
Tb822 O866 2.546 . S
Tb822 O867 2.610 . S
Tb822 O869 2.320 . S
Tb822 O870 2.552 . S
Tb822 O871 2.413 . S
Tb822 O873 2.362 . S
Tb822 O874 2.421 . S
Tb822 C886 2.833 . S
C823 C826 1.432 . S
C823 C827 1.414 . S
C823 N830 1.359 . S
C824 C826 1.417 . S
C824 C828 1.432 . S
C824 C836 1.410 . S
C825 C827 1.444 . S
C825 C828 1.317 . S
C825 H848 0.929 . S
C826 C823 1.432 . S
C826 C824 1.417 . S
C826 N834 1.360 . S
C827 C823 1.414 . S
C827 C825 1.444 . S
C827 C832 1.385 . S
C828 C824 1.432 . S
C828 C825 1.317 . S
C828 H840 0.930 . S
C829 C831 1.392 . S
C829 C832 1.370 . S
C829 H841 0.931 . S
N830 C823 1.359 . S
N830 C831 1.327 . S
N830 Tb833 2.600 . S
C831 C829 1.392 . S
C831 N830 1.327 . S
C831 H838 0.930 . S
C832 C827 1.385 . S
C832 C829 1.370 . S
C832 H851 0.930 . S
Tb833 N830 2.600 . S
Tb833 N834 2.660 . S
Tb833 O867 2.362 . S
Tb833 O868 2.421 . S
Tb833 O872 2.546 . S
Tb833 O873 2.610 . S
Tb833 O875 2.320 . S
Tb833 O876 2.552 . S
Tb833 O877 2.413 . S
Tb833 C897 2.833 . S
N834 C826 1.360 . S
N834 Tb833 2.660 . S
N834 C835 1.305 . S
C835 N834 1.305 . S
C835 C837 1.407 . S
C835 H842 0.930 . S
C836 C824 1.410 . S
C836 C837 1.345 . S
C836 H844 0.930 . S
C837 C835 1.407 . S
C837 C836 1.345 . S
C837 H839 0.930 . S
H838 C831 0.930 . S
H839 C837 0.930 . S
H840 C828 0.930 . S
H841 C829 0.931 . S
H842 C835 0.930 . S
H843 C857 0.930 . S
H844 C836 0.930 . S
H845 C863 0.930 . S
H846 C854 0.930 . S
H847 C861 0.931 . S
H848 C825 0.929 . S
H849 C855 0.930 . S
H850 C888 0.930 . S
H851 C832 0.930 . S
H852 C887 0.929 . S
N853 Tb822 2.660 . S
N853 C854 1.305 . S
N853 C858 1.360 . S
C854 H846 0.930 . S
C854 N853 1.305 . S
C854 C857 1.407 . S
C855 H849 0.930 . S
C855 C856 1.410 . S
C855 C857 1.345 . S
C856 C855 1.410 . S
C856 C858 1.417 . S
C856 C888 1.432 . S
C857 H843 0.930 . S
C857 C854 1.407 . S
C857 C855 1.345 . S
C858 N853 1.360 . S
C858 C856 1.417 . S
C858 C862 1.432 . S
H859 C864 0.930 . S
N860 Tb822 2.600 . S
N860 C862 1.359 . S
N860 C863 1.327 . S
C861 H847 0.931 . S
C861 C863 1.392 . S
C861 C864 1.370 . S
C862 C858 1.432 . S
C862 N860 1.359 . S
C862 C865 1.414 . S
C863 H845 0.930 . S
C863 N860 1.327 . S
C863 C861 1.392 . S
C864 H859 0.930 . S
C864 C861 1.370 . S
C864 C865 1.385 . S
C865 C862 1.414 . S
C865 C864 1.385 . S
C865 C887 1.444 . S
O866 Tb822 2.546 . S
O866 C886 1.251 . S
O867 Tb822 2.610 . S
O867 Tb833 2.362 . S
O867 C878 1.283 . S
O868 Tb833 2.421 . S
O868 C885 1.262 . S
O869 Tb822 2.320 . S
O869 C885 1.260 . S
O870 Tb822 2.552 . S
O870 C878 1.243 . S
O871 Tb822 2.413 . S
O871 C886 1.256 . S
O872 Tb833 2.546 . S
O872 C897 1.251 . S
O873 Tb822 2.362 . S
O873 Tb833 2.610 . S
O873 C889 1.283 . S
O874 Tb822 2.421 . S
O874 C896 1.262 . S
O875 Tb833 2.320 . S
O875 C896 1.260 . S
O876 Tb833 2.552 . S
O876 C889 1.243 . S
O877 Tb833 2.413 . S
O877 C897 1.256 . S
C878 O867 1.283 . S
C878 O870 1.243 . S
C879 C881 1.382 . S
C879 C883 1.393 . S
C879 C886 1.500 . S
C880 C881 1.400 . S
C880 C882 1.384 . S
C881 C879 1.382 . S
C881 C880 1.400 . S
C881 H898 0.930 . S
C882 C880 1.384 . S
C882 C884 1.392 . S
C882 H899 0.931 . S
C883 C879 1.393 . S
C883 C884 1.401 . S
C883 H900 0.930 . S
C884 C882 1.392 . S
C884 C883 1.401 . S
C884 H901 0.930 . S
C885 O868 1.262 . S
C885 O869 1.260 . S
C886 Tb822 2.833 . S
C886 O866 1.251 . S
C886 O871 1.256 . S
C886 C879 1.500 . S
C887 H852 0.929 . S
C887 C865 1.444 . S
C887 C888 1.317 . S
C888 H850 0.930 . S
C888 C856 1.432 . S
C888 C887 1.317 . S
C889 O873 1.283 . S
C889 O876 1.243 . S
C890 C891 1.382 . S
C890 C894 1.393 . S
C890 C897 1.500 . S
C891 C890 1.382 . S
C891 C892 1.400 . S
C891 H902 0.930 . S
C892 C891 1.400 . S
C892 C893 1.384 . S
C893 C892 1.384 . S
C893 C895 1.392 . S
C893 H903 0.931 . S
C894 C890 1.393 . S
C894 C895 1.401 . S
C894 H904 0.930 . S
C895 C893 1.392 . S
C895 C894 1.401 . S
C895 H905 0.930 . S
C896 O874 1.262 . S
C896 O875 1.260 . S
C897 Tb833 2.833 . S
C897 O872 1.251 . S
C897 O877 1.256 . S
C897 C890 1.500 . S
H898 C881 0.930 . S
H899 C882 0.931 . S
H900 C883 0.930 . S
H901 C884 0.930 . S
H902 C891 0.930 . S
H903 C893 0.931 . S
H904 C894 0.930 . S
H905 C895 0.930 . S
Tb906 N937 2.660 . S
Tb906 N944 2.600 . S
Tb906 O950 2.546 . S
Tb906 O951 2.610 . S
Tb906 O953 2.320 . S
Tb906 O954 2.552 . S
Tb906 O955 2.413 . S
Tb906 O957 2.362 . S
Tb906 O958 2.421 . S
Tb906 C970 2.833 . S
C907 C910 1.432 . S
C907 C911 1.414 . S
C907 N914 1.359 . S
C908 C910 1.417 . S
C908 C912 1.432 . S
C908 C920 1.410 . S
C909 C911 1.444 . S
C909 C912 1.317 . S
C909 H932 0.929 . S
C910 C907 1.432 . S
C910 C908 1.417 . S
C910 N918 1.360 . S
C911 C907 1.414 . S
C911 C909 1.444 . S
C911 C916 1.385 . S
C912 C908 1.432 . S
C912 C909 1.317 . S
C912 H924 0.930 . S
C913 C915 1.392 . S
C913 C916 1.370 . S
C913 H925 0.931 . S
N914 C907 1.359 . S
N914 C915 1.327 . S
N914 Tb917 2.600 . S
C915 C913 1.392 . S
C915 N914 1.327 . S
C915 H922 0.930 . S
C916 C911 1.385 . S
C916 C913 1.370 . S
C916 H935 0.930 . S
Tb917 N914 2.600 . S
Tb917 N918 2.660 . S
Tb917 O951 2.362 . S
Tb917 O952 2.421 . S
Tb917 O956 2.546 . S
Tb917 O957 2.610 . S
Tb917 O959 2.320 . S
Tb917 O960 2.552 . S
Tb917 O961 2.413 . S
Tb917 C981 2.833 . S
N918 C910 1.360 . S
N918 Tb917 2.660 . S
N918 C919 1.305 . S
C919 N918 1.305 . S
C919 C921 1.407 . S
C919 H926 0.930 . S
C920 C908 1.410 . S
C920 C921 1.345 . S
C920 H928 0.930 . S
C921 C919 1.407 . S
C921 C920 1.345 . S
C921 H923 0.930 . S
H922 C915 0.930 . S
H923 C921 0.930 . S
H924 C912 0.930 . S
H925 C913 0.931 . S
H926 C919 0.930 . S
H927 C941 0.930 . S
H928 C920 0.930 . S
H929 C947 0.930 . S
H930 C938 0.930 . S
H931 C945 0.931 . S
H932 C909 0.929 . S
H933 C939 0.930 . S
H934 C972 0.930 . S
H935 C916 0.930 . S
H936 C971 0.929 . S
N937 Tb906 2.660 . S
N937 C938 1.305 . S
N937 C942 1.360 . S
C938 H930 0.930 . S
C938 N937 1.305 . S
C938 C941 1.407 . S
C939 H933 0.930 . S
C939 C940 1.410 . S
C939 C941 1.345 . S
C940 C939 1.410 . S
C940 C942 1.417 . S
C940 C972 1.432 . S
C941 H927 0.930 . S
C941 C938 1.407 . S
C941 C939 1.345 . S
C942 N937 1.360 . S
C942 C940 1.417 . S
C942 C946 1.432 . S
H943 C948 0.930 . S
N944 Tb906 2.600 . S
N944 C946 1.359 . S
N944 C947 1.327 . S
C945 H931 0.931 . S
C945 C947 1.392 . S
C945 C948 1.370 . S
C946 C942 1.432 . S
C946 N944 1.359 . S
C946 C949 1.414 . S
C947 H929 0.930 . S
C947 N944 1.327 . S
C947 C945 1.392 . S
C948 H943 0.930 . S
C948 C945 1.370 . S
C948 C949 1.385 . S
C949 C946 1.414 . S
C949 C948 1.385 . S
C949 C971 1.444 . S
O950 Tb906 2.546 . S
O950 C970 1.251 . S
O951 Tb906 2.610 . S
O951 Tb917 2.362 . S
O951 C962 1.283 . S
O952 Tb917 2.421 . S
O952 C969 1.262 . S
O953 Tb906 2.320 . S
O953 C969 1.260 . S
O954 Tb906 2.552 . S
O954 C962 1.243 . S
O955 Tb906 2.413 . S
O955 C970 1.256 . S
O956 Tb917 2.546 . S
O956 C981 1.251 . S
O957 Tb906 2.362 . S
O957 Tb917 2.610 . S
O957 C973 1.283 . S
O958 Tb906 2.421 . S
O958 C980 1.262 . S
O959 Tb917 2.320 . S
O959 C980 1.260 . S
O960 Tb917 2.552 . S
O960 C973 1.243 . S
O961 Tb917 2.413 . S
O961 C981 1.256 . S
C962 O951 1.283 . S
C962 O954 1.243 . S
C963 C965 1.382 . S
C963 C967 1.393 . S
C963 C970 1.500 . S
C964 C965 1.400 . S
C964 C966 1.384 . S
C965 C963 1.382 . S
C965 C964 1.400 . S
C965 H982 0.930 . S
C966 C964 1.384 . S
C966 C968 1.392 . S
C966 H983 0.931 . S
C967 C963 1.393 . S
C967 C968 1.401 . S
C967 H984 0.930 . S
C968 C966 1.392 . S
C968 C967 1.401 . S
C968 H985 0.930 . S
C969 O952 1.262 . S
C969 O953 1.260 . S
C970 Tb906 2.833 . S
C970 O950 1.251 . S
C970 O955 1.256 . S
C970 C963 1.500 . S
C971 H936 0.929 . S
C971 C949 1.444 . S
C971 C972 1.317 . S
C972 H934 0.930 . S
C972 C940 1.432 . S
C972 C971 1.317 . S
C973 O957 1.283 . S
C973 O960 1.243 . S
C974 C975 1.382 . S
C974 C978 1.393 . S
C974 C981 1.500 . S
C975 C974 1.382 . S
C975 C976 1.400 . S
C975 H986 0.930 . S
C976 C975 1.400 . S
C976 C977 1.384 . S
C977 C976 1.384 . S
C977 C979 1.392 . S
C977 H987 0.931 . S
C978 C974 1.393 . S
C978 C979 1.401 . S
C978 H988 0.930 . S
C979 C977 1.392 . S
C979 C978 1.401 . S
C979 H989 0.930 . S
C980 O958 1.262 . S
C980 O959 1.260 . S
C981 Tb917 2.833 . S
C981 O956 1.251 . S
C981 O961 1.256 . S
C981 C974 1.500 . S
H982 C965 0.930 . S
H983 C966 0.931 . S
H984 C967 0.930 . S
H985 C968 0.930 . S
H986 C975 0.930 . S
H987 C977 0.931 . S
H988 C978 0.930 . S
H989 C979 0.930 . S
H990 C1008 0.951 . S
H991 C1010 0.951 . S
H992 C1012 0.950 . S
H993 C1013 0.950 . S
H994 C1015 0.950 . S
H995 C1018 0.950 . S
H996 C1019 0.950 . S
H997 C1021 0.950 . S
H998 C1022 0.950 . S
H999 C1023 0.951 . S
H1000 C1025 0.951 . S
H1001 C1027 0.950 . S
H1002 C1028 0.950 . S
H1003 C1030 0.950 . S
H1004 C1033 0.950 . S
H1005 C1034 0.950 . S
H1006 C1036 0.950 . S
H1007 C1037 0.950 . S
C1008 H990 0.951 . S
C1008 C1009 1.366 . S
C1008 C1010 1.388 . S
C1009 C1008 1.366 . S
C1009 C1013 1.385 . S
C1010 H991 0.951 . S
C1010 C1008 1.388 . S
C1010 C1011 1.366 . S
C1011 C1010 1.366 . S
C1011 C1012 1.414 . S
C1011 C1014 1.499 . S
C1012 H992 0.950 . S
C1012 C1011 1.414 . S
C1012 C1013 1.374 . S
C1013 H993 0.950 . S
C1013 C1009 1.385 . S
C1013 C1012 1.374 . S
C1014 C1011 1.499 . S
C1014 C1015 1.373 . S
C1014 C1016 1.389 . S
C1015 H994 0.950 . S
C1015 C1014 1.373 . S
C1015 C1031 1.377 . S
C1016 C1014 1.389 . S
C1016 C1017 1.524 . S
C1016 C1030 1.377 . S
C1017 C1016 1.524 . S
C1017 C1018 1.397 . S
C1017 C1022 1.363 . S
C1018 H995 0.950 . S
C1018 C1017 1.397 . S
C1018 C1019 1.334 . S
C1019 H996 0.950 . S
C1019 C1018 1.334 . S
C1019 C1020 1.287 1_554 S
C1020 C1019 1.287 1_556 S
C1020 C1021 1.524 . S
C1020 H1039 0.913 . S
C1021 H997 0.950 . S
C1021 C1020 1.524 . S
C1021 C1022 1.415 1_556 S
C1022 H998 0.950 . S
C1022 C1017 1.363 . S
C1022 C1021 1.415 1_554 S
C1023 H999 0.951 . S
C1023 C1024 1.366 . S
C1023 C1025 1.388 . S
C1024 C1023 1.366 . S
C1024 C1028 1.385 . S
C1025 H1000 0.951 . S
C1025 C1023 1.388 . S
C1025 C1026 1.366 . S
C1026 C1025 1.366 . S
C1026 C1027 1.414 . S
C1026 C1029 1.499 . S
C1027 H1001 0.950 . S
C1027 C1026 1.414 . S
C1027 C1028 1.374 . S
C1028 H1002 0.950 . S
C1028 C1024 1.385 . S
C1028 C1027 1.374 . S
C1029 C1026 1.499 . S
C1029 C1030 1.373 . S
C1029 C1031 1.389 . S
C1030 H1003 0.950 . S
C1030 C1016 1.377 . S
C1030 C1029 1.373 . S
C1031 C1015 1.377 . S
C1031 C1029 1.389 . S
C1031 C1032 1.524 . S
C1032 C1031 1.524 . S
C1032 C1033 1.397 . S
C1032 C1037 1.363 . S
C1033 H1004 0.950 . S
C1033 C1032 1.397 . S
C1033 C1034 1.334 . S
C1034 H1005 0.950 . S
C1034 C1033 1.334 . S
C1034 C1035 1.287 . S
C1035 C1034 1.287 . S
C1035 C1036 1.524 . S
C1035 H1038 0.999 . S
C1036 H1006 0.950 . S
C1036 C1035 1.524 . S
C1036 C1037 1.415 . S
C1037 H1007 0.950 . S
C1037 C1032 1.363 . S
C1037 C1036 1.415 . S
H1038 C1035 0.999 . S
H1039 C1020 0.913 . S
H1040 C1058 0.951 . S
H1041 C1060 0.951 . S
H1042 C1062 0.950 . S
H1043 C1063 0.950 . S
H1044 C1065 0.950 . S
H1045 C1068 0.950 . S
H1046 C1069 0.950 . S
H1047 C1071 0.950 . S
H1048 C1072 0.950 . S
H1049 C1073 0.951 . S
H1050 C1075 0.951 . S
H1051 C1077 0.950 . S
H1052 C1078 0.950 . S
H1053 C1080 0.950 . S
H1054 C1083 0.950 . S
H1055 C1084 0.950 . S
H1056 C1086 0.950 . S
H1057 C1087 0.950 . S
C1058 H1040 0.951 . S
C1058 C1059 1.366 . S
C1058 C1060 1.388 . S
C1059 C1058 1.366 . S
C1059 C1063 1.385 . S
C1060 H1041 0.951 . S
C1060 C1058 1.388 . S
C1060 C1061 1.366 . S
C1061 C1060 1.366 . S
C1061 C1062 1.414 . S
C1061 C1064 1.499 . S
C1062 H1042 0.950 . S
C1062 C1061 1.414 . S
C1062 C1063 1.374 . S
C1063 H1043 0.950 . S
C1063 C1059 1.385 . S
C1063 C1062 1.374 . S
C1064 C1061 1.499 . S
C1064 C1065 1.373 . S
C1064 C1066 1.389 . S
C1065 H1044 0.950 . S
C1065 C1064 1.373 . S
C1065 C1081 1.377 . S
C1066 C1064 1.389 . S
C1066 C1067 1.524 . S
C1066 C1080 1.377 . S
C1067 C1066 1.524 . S
C1067 C1068 1.397 . S
C1067 C1072 1.363 . S
C1068 H1045 0.950 . S
C1068 C1067 1.397 . S
C1068 C1069 1.334 . S
C1069 H1046 0.950 . S
C1069 C1068 1.334 . S
C1069 C1070 1.287 . S
C1070 C1069 1.287 . S
C1070 C1071 1.524 . S
C1070 H1089 0.913 . S
C1071 H1047 0.950 . S
C1071 C1070 1.524 . S
C1071 C1072 1.415 . S
C1072 H1048 0.950 . S
C1072 C1067 1.363 . S
C1072 C1071 1.415 . S
C1073 H1049 0.951 . S
C1073 C1074 1.366 . S
C1073 C1075 1.388 . S
C1074 C1073 1.366 . S
C1074 C1078 1.385 . S
C1075 H1050 0.951 . S
C1075 C1073 1.388 . S
C1075 C1076 1.366 . S
C1076 C1075 1.366 . S
C1076 C1077 1.414 . S
C1076 C1079 1.499 . S
C1077 H1051 0.950 . S
C1077 C1076 1.414 . S
C1077 C1078 1.374 . S
C1078 H1052 0.950 . S
C1078 C1074 1.385 . S
C1078 C1077 1.374 . S
C1079 C1076 1.499 . S
C1079 C1080 1.373 . S
C1079 C1081 1.389 . S
C1080 H1053 0.950 . S
C1080 C1066 1.377 . S
C1080 C1079 1.373 . S
C1081 C1065 1.377 . S
C1081 C1079 1.389 . S
C1081 C1082 1.524 . S
C1082 C1081 1.524 . S
C1082 C1083 1.397 . S
C1082 C1087 1.363 . S
C1083 H1054 0.950 . S
C1083 C1082 1.397 . S
C1083 C1084 1.334 . S
C1084 H1055 0.950 . S
C1084 C1083 1.334 . S
C1084 C1085 1.287 1_554 S
C1085 C1084 1.287 1_556 S
C1085 C1086 1.524 . S
C1085 H1088 0.999 . S
C1086 H1056 0.950 . S
C1086 C1085 1.524 . S
C1086 C1087 1.415 1_556 S
C1087 H1057 0.950 . S
C1087 C1082 1.363 . S
C1087 C1086 1.415 1_554 S
H1088 C1085 0.999 . S
H1089 C1070 0.913 . S
H1090 C1108 0.951 . S
H1091 C1110 0.951 . S
H1092 C1112 0.950 . S
H1093 C1113 0.950 . S
H1094 C1115 0.950 . S
H1095 C1118 0.950 . S
H1096 C1119 0.950 . S
H1097 C1121 0.950 . S
H1098 C1122 0.950 . S
H1099 C1123 0.951 . S
H1100 C1125 0.951 . S
H1101 C1127 0.950 . S
H1102 C1128 0.950 . S
H1103 C1130 0.950 . S
H1104 C1133 0.952 . S
H1105 C1134 0.950 . S
H1106 C1136 0.950 . S
H1107 C1137 0.950 . S
C1108 H1090 0.951 . S
C1108 C1109 1.366 . S
C1108 C1110 1.388 . S
C1109 C1108 1.366 . S
C1109 C1113 1.385 . S
C1110 H1091 0.951 . S
C1110 C1108 1.388 . S
C1110 C1111 1.366 . S
C1111 C1110 1.366 . S
C1111 C1112 1.414 . S
C1111 C1114 1.499 . S
C1112 H1092 0.950 . S
C1112 C1111 1.414 . S
C1112 C1113 1.374 . S
C1113 H1093 0.950 . S
C1113 C1109 1.385 . S
C1113 C1112 1.374 . S
C1114 C1111 1.499 . S
C1114 C1115 1.373 . S
C1114 C1116 1.389 . S
C1115 H1094 0.950 . S
C1115 C1114 1.373 . S
C1115 C1131 1.377 . S
C1116 C1114 1.389 . S
C1116 C1117 1.524 . S
C1116 C1130 1.377 . S
C1117 C1116 1.524 . S
C1117 C1118 1.397 . S
C1117 C1122 1.363 . S
C1118 H1095 0.950 . S
C1118 C1117 1.397 . S
C1118 C1119 1.334 . S
C1119 H1096 0.950 . S
C1119 C1118 1.334 . S
C1119 C1120 1.287 . S
C1120 C1119 1.287 . S
C1120 C1121 1.524 . S
C1120 H1139 0.913 . S
C1121 H1097 0.950 . S
C1121 C1120 1.524 . S
C1121 C1122 1.415 . S
C1122 H1098 0.950 . S
C1122 C1117 1.363 . S
C1122 C1121 1.415 . S
C1123 H1099 0.951 . S
C1123 C1124 1.366 . S
C1123 C1125 1.388 . S
C1124 C1123 1.366 . S
C1124 C1128 1.385 . S
C1125 H1100 0.951 . S
C1125 C1123 1.388 . S
C1125 C1126 1.366 . S
C1126 C1125 1.366 . S
C1126 C1127 1.414 . S
C1126 C1129 1.499 . S
C1127 H1101 0.950 . S
C1127 C1126 1.414 . S
C1127 C1128 1.374 . S
C1128 H1102 0.950 . S
C1128 C1124 1.385 . S
C1128 C1127 1.374 . S
C1129 C1126 1.499 . S
C1129 C1130 1.373 . S
C1129 C1131 1.389 . S
C1130 H1103 0.950 . S
C1130 C1116 1.377 . S
C1130 C1129 1.373 . S
C1131 C1115 1.377 . S
C1131 C1129 1.389 . S
C1131 C1132 1.524 . S
C1132 C1131 1.524 . S
C1132 C1133 1.413 . S
C1132 C1137 1.363 . S
C1133 H1104 0.952 . S
C1133 C1132 1.413 . S
C1133 C1134 1.315 1_554 S
C1134 H1105 0.950 . S
C1134 C1133 1.315 1_556 S
C1134 C1135 1.287 . S
C1135 C1134 1.287 . S
C1135 C1136 1.524 . S
C1135 H1138 0.999 . S
C1136 H1106 0.950 . S
C1136 C1135 1.524 . S
C1136 C1137 1.415 1_556 S
C1137 H1107 0.950 . S
C1137 C1132 1.363 . S
C1137 C1136 1.415 1_554 S
H1138 C1135 0.999 . S
H1139 C1120 0.913 . S
H1140 C1158 0.951 . S
H1141 C1160 0.951 . S
H1142 C1162 0.950 . S
H1143 C1163 0.950 . S
H1144 C1165 0.950 . S
H1145 C1168 0.950 . S
H1146 C1169 0.950 . S
H1147 C1171 0.950 . S
H1148 C1172 0.950 . S
H1149 C1173 0.951 . S
H1150 C1175 0.951 . S
H1151 C1177 0.950 . S
H1152 C1178 0.959 . S
H1153 C1180 0.950 . S
H1154 C1183 0.950 . S
H1155 C1184 0.950 . S
H1156 C1186 0.950 . S
H1157 C1187 0.950 . S
C1158 H1140 0.951 . S
C1158 C1159 1.366 . S
C1158 C1160 1.388 . S
C1159 C1158 1.366 . S
C1159 C1163 1.385 . S
C1160 H1141 0.951 . S
C1160 C1158 1.388 . S
C1160 C1161 1.366 . S
C1161 C1160 1.366 . S
C1161 C1162 1.414 . S
C1161 C1164 1.499 . S
C1162 H1142 0.950 . S
C1162 C1161 1.414 . S
C1162 C1163 1.374 . S
C1163 H1143 0.950 . S
C1163 C1159 1.385 . S
C1163 C1162 1.374 . S
C1164 C1161 1.499 . S
C1164 C1165 1.373 . S
C1164 C1166 1.389 . S
C1165 H1144 0.950 . S
C1165 C1164 1.373 . S
C1165 C1181 1.377 . S
C1166 C1164 1.389 . S
C1166 C1167 1.524 . S
C1166 C1180 1.377 . S
C1167 C1166 1.524 . S
C1167 C1168 1.397 . S
C1167 C1172 1.363 . S
C1168 H1145 0.950 . S
C1168 C1167 1.397 . S
C1168 C1169 1.334 . S
C1169 H1146 0.950 . S
C1169 C1168 1.334 . S
C1169 C1170 1.287 . S
C1170 C1169 1.287 . S
C1170 C1171 1.524 . S
C1170 H1189 0.913 . S
C1171 H1147 0.950 . S
C1171 C1170 1.524 . S
C1171 C1172 1.415 . S
C1172 H1148 0.950 . S
C1172 C1167 1.363 . S
C1172 C1171 1.415 . S
C1173 H1149 0.951 . S
C1173 C1174 1.366 . S
C1173 C1175 1.388 . S
C1174 C1173 1.366 . S
C1174 C1178 1.381 1_556 S
C1175 H1150 0.951 . S
C1175 C1173 1.388 . S
C1175 C1176 1.366 . S
C1176 C1175 1.366 . S
C1176 C1177 1.414 . S
C1176 C1179 1.499 . S
C1177 H1151 0.950 . S
C1177 C1176 1.414 . S
C1177 C1178 1.368 1_556 S
C1178 H1152 0.959 . S
C1178 C1174 1.381 1_554 S
C1178 C1177 1.368 1_554 S
C1179 C1176 1.499 . S
C1179 C1180 1.373 . S
C1179 C1181 1.389 . S
C1180 H1153 0.950 . S
C1180 C1166 1.377 . S
C1180 C1179 1.373 . S
C1181 C1165 1.377 . S
C1181 C1179 1.389 . S
C1181 C1182 1.553 . S
C1182 C1181 1.553 . S
C1182 C1183 1.356 1_556 S
C1182 C1187 1.374 . S
C1183 H1154 0.950 . S
C1183 C1182 1.356 1_554 S
C1183 C1184 1.334 . S
C1184 H1155 0.950 . S
C1184 C1183 1.334 . S
C1184 C1185 1.287 . S
C1185 C1184 1.287 . S
C1185 C1186 1.524 . S
C1185 H1188 0.999 . S
C1186 H1156 0.950 . S
C1186 C1185 1.524 . S
C1186 C1187 1.415 1_554 S
C1187 H1157 0.950 . S
C1187 C1182 1.374 . S
C1187 C1186 1.415 1_556 S
H1188 C1185 0.999 . S
H1189 C1170 0.913 . S
H1190 C1208 0.951 . S
H1191 C1210 0.951 . S
H1192 C1212 0.950 . S
H1193 C1213 0.950 . S
H1194 C1215 0.950 . S
H1195 C1218 0.950 . S
H1196 C1219 0.950 . S
H1197 C1221 0.950 . S
H1198 C1222 0.950 . S
H1199 C1223 0.951 . S
H1200 C1225 0.951 . S
H1201 C1227 0.950 . S
H1202 C1228 0.950 . S
H1203 C1230 0.950 1_554 S
H1204 C1233 0.950 . S
H1205 C1234 0.950 . S
H1206 C1236 0.950 . S
H1207 C1237 0.950 . S
C1208 H1190 0.951 . S
C1208 C1209 1.366 . S
C1208 C1210 1.388 . S
C1209 C1208 1.366 . S
C1209 C1213 1.385 . S
C1210 H1191 0.951 . S
C1210 C1208 1.388 . S
C1210 C1211 1.366 . S
C1211 C1210 1.366 . S
C1211 C1212 1.414 . S
C1211 C1214 1.499 . S
C1212 H1192 0.950 . S
C1212 C1211 1.414 . S
C1212 C1213 1.374 . S
C1213 H1193 0.950 . S
C1213 C1209 1.385 . S
C1213 C1212 1.374 . S
C1214 C1211 1.499 . S
C1214 C1215 1.373 . S
C1214 C1216 1.389 . S
C1215 H1194 0.950 . S
C1215 C1214 1.373 . S
C1215 C1231 1.377 . S
C1216 C1214 1.389 . S
C1216 C1217 1.531 . S
C1216 C1230 1.377 . S
C1217 C1216 1.531 . S
C1217 C1218 1.399 . S
C1217 C1222 1.355 1_556 S
C1218 H1195 0.950 . S
C1218 C1217 1.399 . S
C1218 C1219 1.334 1_556 S
C1219 H1196 0.950 . S
C1219 C1218 1.334 1_554 S
C1219 C1220 1.287 . S
C1220 C1219 1.287 . S
C1220 C1221 1.524 . S
C1220 H1239 0.913 . S
C1221 H1197 0.950 . S
C1221 C1220 1.524 . S
C1221 C1222 1.415 . S
C1222 H1198 0.950 . S
C1222 C1217 1.355 1_554 S
C1222 C1221 1.415 . S
C1223 H1199 0.951 . S
C1223 C1224 1.366 . S
C1223 C1225 1.388 . S
C1224 C1223 1.366 . S
C1224 C1228 1.385 1_556 S
C1225 H1200 0.951 . S
C1225 C1223 1.388 . S
C1225 C1226 1.366 . S
C1226 C1225 1.366 . S
C1226 C1227 1.414 1_556 S
C1226 C1229 1.499 . S
C1227 H1201 0.950 . S
C1227 C1226 1.414 1_554 S
C1227 C1228 1.374 . S
C1228 H1202 0.950 . S
C1228 C1224 1.385 1_554 S
C1228 C1227 1.374 . S
C1229 C1226 1.499 . S
C1229 C1230 1.373 . S
C1229 C1231 1.389 . S
C1230 H1203 0.950 1_556 S
C1230 C1216 1.377 . S
C1230 C1229 1.373 . S
C1231 C1215 1.377 . S
C1231 C1229 1.389 . S
C1231 C1232 1.524 . S
C1232 C1231 1.524 . S
C1232 C1233 1.397 . S
C1232 C1237 1.363 . S
C1233 H1204 0.950 . S
C1233 C1232 1.397 . S
C1233 C1234 1.334 . S
C1234 H1205 0.950 . S
C1234 C1233 1.334 . S
C1234 C1235 1.287 . S
C1235 C1234 1.287 . S
C1235 C1236 1.524 . S
C1235 H1238 0.999 . S
C1236 H1206 0.950 . S
C1236 C1235 1.524 . S
C1236 C1237 1.415 . S
C1237 H1207 0.950 . S
C1237 C1232 1.363 . S
C1237 C1236 1.415 . S
H1238 C1235 0.999 . S
H1239 C1220 0.913 . S
H1240 C1258 0.951 . S
H1241 C1260 0.951 . S
H1242 C1262 0.950 . S
H1243 C1263 0.950 . S
H1244 C1265 0.950 . S
H1245 C1268 0.950 . S
H1246 C1269 0.950 . S
H1247 C1271 0.950 . S
H1248 C1272 0.950 . S
H1249 C1273 0.951 . S
H1250 C1275 0.951 . S
H1251 C1277 0.950 . S
H1252 C1278 0.954 . S
H1253 C1280 0.950 . S
H1254 C1283 0.950 . S
H1255 C1284 0.950 . S
H1256 C1286 0.950 . S
H1257 C1287 0.954 . S
C1258 H1240 0.951 . S
C1258 C1259 1.366 . S
C1258 C1260 1.388 . S
C1259 C1258 1.366 . S
C1259 C1263 1.385 . S
C1260 H1241 0.951 . S
C1260 C1258 1.388 . S
C1260 C1261 1.366 . S
C1261 C1260 1.366 . S
C1261 C1262 1.414 . S
C1261 C1264 1.499 . S
C1262 H1242 0.950 . S
C1262 C1261 1.414 . S
C1262 C1263 1.374 . S
C1263 H1243 0.950 . S
C1263 C1259 1.385 . S
C1263 C1262 1.374 . S
C1264 C1261 1.499 . S
C1264 C1265 1.373 . S
C1264 C1266 1.389 . S
C1265 H1244 0.950 . S
C1265 C1264 1.373 . S
C1265 C1281 1.377 . S
C1266 C1264 1.389 . S
C1266 C1267 1.524 . S
C1266 C1280 1.377 . S
C1267 C1266 1.524 . S
C1267 C1268 1.397 . S
C1267 C1272 1.363 . S
C1268 H1245 0.950 . S
C1268 C1267 1.397 . S
C1268 C1269 1.334 . S
C1269 H1246 0.950 . S
C1269 C1268 1.334 . S
C1269 C1270 1.287 . S
C1270 C1269 1.287 . S
C1270 C1271 1.524 . S
C1270 H1289 0.913 . S
C1271 H1247 0.950 . S
C1271 C1270 1.524 . S
C1271 C1272 1.415 . S
C1272 H1248 0.950 . S
C1272 C1267 1.363 . S
C1272 C1271 1.415 . S
C1273 H1249 0.951 . S
C1273 C1274 1.375 . S
C1273 C1275 1.388 . S
C1274 C1273 1.375 . S
C1274 C1278 1.391 . S
C1275 H1250 0.951 . S
C1275 C1273 1.388 . S
C1275 C1276 1.366 . S
C1276 C1275 1.366 . S
C1276 C1277 1.414 . S
C1276 C1279 1.499 . S
C1277 H1251 0.950 . S
C1277 C1276 1.414 . S
C1277 C1278 1.374 . S
C1278 H1252 0.954 . S
C1278 C1274 1.391 . S
C1278 C1277 1.374 . S
C1279 C1276 1.499 . S
C1279 C1280 1.373 . S
C1279 C1281 1.389 . S
C1280 H1253 0.950 . S
C1280 C1266 1.377 . S
C1280 C1279 1.373 . S
C1281 C1265 1.377 . S
C1281 C1279 1.389 . S
C1281 C1282 1.524 1_556 S
C1282 C1281 1.524 1_554 S
C1282 C1283 1.397 . S
C1282 C1287 1.363 . S
C1283 H1254 0.950 . S
C1283 C1282 1.397 . S
C1283 C1284 1.334 . S
C1284 H1255 0.950 . S
C1284 C1283 1.334 . S
C1284 C1285 1.287 . S
C1285 C1284 1.287 . S
C1285 C1286 1.524 . S
C1285 H1288 0.999 . S
C1286 H1256 0.950 . S
C1286 C1285 1.524 . S
C1286 C1287 1.415 . S
C1287 H1257 0.954 . S
C1287 C1282 1.363 . S
C1287 C1286 1.415 . S
H1288 C1285 0.999 . S
H1289 C1270 0.913 . S
H1290 C1308 0.951 . S
H1291 C1310 0.951 . S
H1292 C1312 0.950 . S
H1293 C1313 0.950 . S
H1294 C1315 0.950 . S
H1295 C1318 0.950 . S
H1296 C1319 0.950 . S
H1297 C1321 0.950 . S
H1298 C1322 0.950 . S
H1299 C1323 0.951 . S
H1300 C1325 0.951 . S
H1301 C1327 0.950 . S
H1302 C1328 0.950 . S
H1303 C1330 0.950 . S
H1304 C1333 0.950 . S
H1305 C1334 0.950 . S
H1306 C1336 0.950 . S
H1307 C1337 0.950 . S
C1308 H1290 0.951 . S
C1308 C1309 1.366 . S
C1308 C1310 1.388 . S
C1309 C1308 1.366 . S
C1309 C1313 1.385 . S
C1310 H1291 0.951 . S
C1310 C1308 1.388 . S
C1310 C1311 1.366 . S
C1311 C1310 1.366 . S
C1311 C1312 1.414 . S
C1311 C1314 1.499 . S
C1312 H1292 0.950 . S
C1312 C1311 1.414 . S
C1312 C1313 1.374 . S
C1313 H1293 0.950 . S
C1313 C1309 1.385 . S
C1313 C1312 1.374 . S
C1314 C1311 1.499 . S
C1314 C1315 1.373 . S
C1314 C1316 1.389 . S
C1315 H1294 0.950 . S
C1315 C1314 1.373 . S
C1315 C1331 1.377 . S
C1316 C1314 1.389 . S
C1316 C1317 1.524 . S
C1316 C1330 1.377 . S
C1317 C1316 1.524 . S
C1317 C1318 1.397 . S
C1317 C1322 1.363 . S
C1318 H1295 0.950 . S
C1318 C1317 1.397 . S
C1318 C1319 1.334 . S
C1319 H1296 0.950 . S
C1319 C1318 1.334 . S
C1319 C1320 1.287 . S
C1320 C1319 1.287 . S
C1320 C1321 1.524 . S
C1320 H1339 0.913 . S
C1321 H1297 0.950 . S
C1321 C1320 1.524 . S
C1321 C1322 1.415 . S
C1322 H1298 0.950 . S
C1322 C1317 1.363 . S
C1322 C1321 1.415 . S
C1323 H1299 0.951 . S
C1323 C1324 1.366 . S
C1323 C1325 1.388 . S
C1324 C1323 1.366 . S
C1324 C1328 1.385 . S
C1325 H1300 0.951 . S
C1325 C1323 1.388 . S
C1325 C1326 1.366 . S
C1326 C1325 1.366 . S
C1326 C1327 1.414 . S
C1326 C1329 1.499 . S
C1327 H1301 0.950 . S
C1327 C1326 1.414 . S
C1327 C1328 1.374 . S
C1328 H1302 0.950 . S
C1328 C1324 1.385 . S
C1328 C1327 1.374 . S
C1329 C1326 1.499 . S
C1329 C1330 1.373 . S
C1329 C1331 1.389 . S
C1330 H1303 0.950 . S
C1330 C1316 1.377 . S
C1330 C1329 1.373 . S
C1331 C1315 1.377 . S
C1331 C1329 1.389 . S
C1331 C1332 1.524 1_556 S
C1332 C1331 1.524 1_554 S
C1332 C1333 1.397 . S
C1332 C1337 1.363 . S
C1333 H1304 0.950 . S
C1333 C1332 1.397 . S
C1333 C1334 1.334 . S
C1334 H1305 0.950 . S
C1334 C1333 1.334 . S
C1334 C1335 1.287 . S
C1335 C1334 1.287 . S
C1335 C1336 1.524 . S
C1335 H1338 0.999 . S
C1336 H1306 0.950 . S
C1336 C1335 1.524 . S
C1336 C1337 1.415 . S
C1337 H1307 0.950 . S
C1337 C1332 1.363 . S
C1337 C1336 1.415 . S
H1338 C1335 0.999 . S
H1339 C1320 0.913 . S
H1340 C1358 0.951 . S
H1341 C1360 0.951 . S
H1342 C1362 0.950 . S
H1343 C1363 0.950 . S
H1344 C1365 0.950 . S
H1345 C1368 0.950 . S
H1346 C1369 0.950 . S
H1347 C1371 0.950 . S
H1348 C1372 0.950 . S
H1349 C1373 0.951 . S
H1350 C1375 0.951 . S
H1351 C1377 0.950 . S
H1352 C1378 0.948 . S
H1353 C1380 0.950 1_554 S
H1354 C1383 0.950 . S
H1355 C1384 0.950 . S
H1356 C1386 0.950 . S
H1357 C1387 0.950 . S
C1358 H1340 0.951 . S
C1358 C1359 1.366 . S
C1358 C1360 1.388 . S
C1359 C1358 1.366 . S
C1359 C1363 1.385 . S
C1360 H1341 0.951 . S
C1360 C1358 1.388 . S
C1360 C1361 1.366 . S
C1361 C1360 1.366 . S
C1361 C1362 1.414 . S
C1361 C1364 1.499 . S
C1362 H1342 0.950 . S
C1362 C1361 1.414 . S
C1362 C1363 1.374 . S
C1363 H1343 0.950 . S
C1363 C1359 1.385 . S
C1363 C1362 1.374 . S
C1364 C1361 1.499 . S
C1364 C1365 1.373 . S
C1364 C1366 1.389 . S
C1365 H1344 0.950 . S
C1365 C1364 1.373 . S
C1365 C1381 1.377 . S
C1366 C1364 1.389 . S
C1366 C1367 1.524 1_556 S
C1366 C1380 1.377 . S
C1367 C1366 1.524 1_554 S
C1367 C1368 1.397 . S
C1367 C1372 1.363 . S
C1368 H1345 0.950 . S
C1368 C1367 1.397 . S
C1368 C1369 1.334 . S
C1369 H1346 0.950 . S
C1369 C1368 1.334 . S
C1369 C1370 1.287 . S
C1370 C1369 1.287 . S
C1370 C1371 1.524 . S
C1370 H1389 0.913 . S
C1371 H1347 0.950 . S
C1371 C1370 1.524 . S
C1371 C1372 1.415 . S
C1372 H1348 0.950 . S
C1372 C1367 1.363 . S
C1372 C1371 1.415 . S
C1373 H1349 0.951 . S
C1373 C1374 1.366 . S
C1373 C1375 1.388 . S
C1374 C1373 1.366 . S
C1374 C1378 1.385 . S
C1375 H1350 0.951 . S
C1375 C1373 1.388 . S
C1375 C1376 1.366 . S
C1376 C1375 1.366 . S
C1376 C1377 1.414 . S
C1376 C1379 1.499 . S
C1377 H1351 0.950 . S
C1377 C1376 1.414 . S
C1377 C1378 1.374 . S
C1378 H1352 0.948 . S
C1378 C1374 1.385 . S
C1378 C1377 1.374 . S
C1379 C1376 1.499 . S
C1379 C1380 1.373 . S
C1379 C1381 1.389 . S
C1380 H1353 0.950 1_556 S
C1380 C1366 1.377 . S
C1380 C1379 1.373 . S
C1381 C1365 1.377 . S
C1381 C1379 1.389 . S
C1381 C1382 1.524 . S
C1382 C1381 1.524 . S
C1382 C1383 1.397 . S
C1382 C1387 1.363 . S
C1383 H1354 0.950 . S
C1383 C1382 1.397 . S
C1383 C1384 1.334 . S
C1384 H1355 0.950 . S
C1384 C1383 1.334 . S
C1384 C1385 1.287 . S
C1385 C1384 1.287 . S
C1385 C1386 1.524 . S
C1385 H1388 0.999 . S
C1386 H1356 0.950 . S
C1386 C1385 1.524 . S
C1386 C1387 1.415 . S
C1387 H1357 0.950 . S
C1387 C1382 1.363 . S
C1387 C1386 1.415 . S
H1388 C1385 0.999 . S
H1389 C1370 0.913 . S
H1390 C1408 0.951 . S
H1391 C1410 0.951 . S
H1392 C1412 0.950 . S
H1393 C1413 0.950 . S
H1394 C1415 0.950 . S
H1395 C1418 0.950 . S
H1396 C1419 0.950 . S
H1397 C1421 0.950 . S
H1398 C1422 0.950 . S
H1399 C1423 0.951 . S
H1400 C1425 0.951 . S
H1401 C1427 0.950 . S
H1402 C1428 0.951 . S
H1403 C1430 0.950 1_554 S
H1404 C1433 0.950 . S
H1405 C1434 0.950 . S
H1406 C1436 0.950 . S
H1407 C1437 0.950 . S
C1408 H1390 0.951 . S
C1408 C1409 1.366 . S
C1408 C1410 1.388 . S
C1409 C1408 1.366 . S
C1409 C1413 1.385 . S
C1410 H1391 0.951 . S
C1410 C1408 1.388 . S
C1410 C1411 1.366 . S
C1411 C1410 1.366 . S
C1411 C1412 1.414 . S
C1411 C1414 1.499 . S
C1412 H1392 0.950 . S
C1412 C1411 1.414 . S
C1412 C1413 1.374 . S
C1413 H1393 0.950 . S
C1413 C1409 1.385 . S
C1413 C1412 1.374 . S
C1414 C1411 1.499 . S
C1414 C1415 1.373 . S
C1414 C1416 1.389 . S
C1415 H1394 0.950 . S
C1415 C1414 1.373 . S
C1415 C1431 1.377 . S
C1416 C1414 1.389 . S
C1416 C1417 1.524 1_556 S
C1416 C1430 1.377 . S
C1417 C1416 1.524 1_554 S
C1417 C1418 1.397 . S
C1417 C1422 1.363 . S
C1418 H1395 0.950 . S
C1418 C1417 1.397 . S
C1418 C1419 1.334 . S
C1419 H1396 0.950 . S
C1419 C1418 1.334 . S
C1419 C1420 1.287 . S
C1420 C1419 1.287 . S
C1420 C1421 1.524 . S
C1420 H1439 0.913 . S
C1421 H1397 0.950 . S
C1421 C1420 1.524 . S
C1421 C1422 1.415 . S
C1422 H1398 0.950 . S
C1422 C1417 1.363 . S
C1422 C1421 1.415 . S
C1423 H1399 0.951 . S
C1423 C1424 1.368 . S
C1423 C1425 1.388 . S
C1424 C1423 1.368 . S
C1424 C1428 1.386 . S
C1425 H1400 0.951 . S
C1425 C1423 1.388 . S
C1425 C1426 1.366 . S
C1426 C1425 1.366 . S
C1426 C1427 1.414 . S
C1426 C1429 1.499 . S
C1427 H1401 0.950 . S
C1427 C1426 1.414 . S
C1427 C1428 1.374 . S
C1428 H1402 0.951 . S
C1428 C1424 1.386 . S
C1428 C1427 1.374 . S
C1429 C1426 1.499 . S
C1429 C1430 1.373 . S
C1429 C1431 1.389 . S
C1430 H1403 0.950 1_556 S
C1430 C1416 1.377 . S
C1430 C1429 1.373 . S
C1431 C1415 1.377 . S
C1431 C1429 1.389 . S
C1431 C1432 1.524 . S
C1432 C1431 1.524 . S
C1432 C1433 1.397 . S
C1432 C1437 1.363 . S
C1433 H1404 0.950 . S
C1433 C1432 1.397 . S
C1433 C1434 1.334 . S
C1434 H1405 0.950 . S
C1434 C1433 1.334 . S
C1434 C1435 1.287 . S
C1435 C1434 1.287 . S
C1435 C1436 1.524 . S
C1435 H1438 0.999 . S
C1436 H1406 0.950 . S
C1436 C1435 1.524 . S
C1436 C1437 1.415 . S
C1437 H1407 0.950 . S
C1437 C1432 1.363 . S
C1437 C1436 1.415 . S
H1438 C1435 0.999 . S
H1439 C1420 0.913 . S
H1440 C1458 0.951 . S
H1441 C1460 0.951 . S
H1442 C1462 0.950 . S
H1443 C1463 0.950 . S
H1444 C1465 0.950 . S
H1445 C1468 0.950 . S
H1446 C1469 0.950 . S
H1447 C1471 0.950 . S
H1448 C1472 0.950 . S
H1449 C1473 0.951 . S
H1450 C1475 0.951 . S
H1451 C1477 0.950 . S
H1452 C1478 0.950 . S
H1453 C1480 0.950 . S
H1454 C1483 0.950 . S
H1455 C1484 0.950 . S
H1456 C1486 0.950 1_556 S
H1457 C1487 0.950 . S
C1458 H1440 0.951 . S
C1458 C1459 1.366 . S
C1458 C1460 1.388 . S
C1459 C1458 1.366 . S
C1459 C1463 1.385 . S
C1460 H1441 0.951 . S
C1460 C1458 1.388 . S
C1460 C1461 1.366 . S
C1461 C1460 1.366 . S
C1461 C1462 1.414 . S
C1461 C1464 1.499 . S
C1462 H1442 0.950 . S
C1462 C1461 1.414 . S
C1462 C1463 1.374 . S
C1463 H1443 0.950 . S
C1463 C1459 1.385 . S
C1463 C1462 1.374 . S
C1464 C1461 1.499 . S
C1464 C1465 1.373 . S
C1464 C1466 1.389 . S
C1465 H1444 0.950 . S
C1465 C1464 1.373 . S
C1465 C1481 1.377 . S
C1466 C1464 1.389 . S
C1466 C1467 1.524 . S
C1466 C1480 1.377 . S
C1467 C1466 1.524 . S
C1467 C1468 1.397 . S
C1467 C1472 1.363 . S
C1468 H1445 0.950 . S
C1468 C1467 1.397 . S
C1468 C1469 1.334 . S
C1469 H1446 0.950 . S
C1469 C1468 1.334 . S
C1469 C1470 1.287 . S
C1470 C1469 1.287 . S
C1470 C1471 1.524 . S
C1470 H1489 0.913 . S
C1471 H1447 0.950 . S
C1471 C1470 1.524 . S
C1471 C1472 1.415 . S
C1472 H1448 0.950 . S
C1472 C1467 1.363 . S
C1472 C1471 1.415 . S
C1473 H1449 0.951 . S
C1473 C1474 1.366 . S
C1473 C1475 1.388 . S
C1474 C1473 1.366 . S
C1474 C1478 1.385 . S
C1475 H1450 0.951 . S
C1475 C1473 1.388 . S
C1475 C1476 1.366 . S
C1476 C1475 1.366 . S
C1476 C1477 1.414 . S
C1476 C1479 1.499 . S
C1477 H1451 0.950 . S
C1477 C1476 1.414 . S
C1477 C1478 1.374 . S
C1478 H1452 0.950 . S
C1478 C1474 1.385 . S
C1478 C1477 1.374 . S
C1479 C1476 1.499 . S
C1479 C1480 1.373 . S
C1479 C1481 1.389 . S
C1480 H1453 0.950 . S
C1480 C1466 1.377 . S
C1480 C1479 1.373 . S
C1481 C1465 1.377 . S
C1481 C1479 1.389 . S
C1481 C1482 1.524 . S
C1482 C1481 1.524 . S
C1482 C1483 1.397 . S
C1482 C1487 1.363 . S
C1483 H1454 0.950 . S
C1483 C1482 1.397 . S
C1483 C1484 1.334 . S
C1484 H1455 0.950 . S
C1484 C1483 1.334 . S
C1484 C1485 1.287 . S
C1485 C1484 1.287 . S
C1485 C1486 1.524 . S
C1485 H1488 0.999 . S
C1486 H1456 0.950 1_554 S
C1486 C1485 1.524 . S
C1486 C1487 1.415 . S
C1487 H1457 0.950 . S
C1487 C1482 1.363 . S
C1487 C1486 1.415 . S
H1488 C1485 0.999 . S
H1489 C1470 0.913 . S
H1490 C1508 0.951 . S
H1491 C1510 0.951 . S
H1492 C1512 0.950 . S
H1493 C1513 0.950 . S
H1494 C1515 0.950 . S
H1495 C1518 0.950 . S
H1496 C1519 0.950 . S
H1497 C1521 0.950 . S
H1498 C1522 0.950 . S
H1499 C1523 0.951 . S
H1500 C1525 0.951 . S
H1501 C1527 0.950 . S
H1502 C1528 0.950 . S
H1503 C1530 0.950 . S
H1504 C1533 0.950 . S
H1505 C1534 0.950 . S
H1506 C1536 0.950 1_556 S
H1507 C1537 0.950 . S
C1508 H1490 0.951 . S
C1508 C1509 1.366 . S
C1508 C1510 1.388 . S
C1509 C1508 1.366 . S
C1509 C1513 1.385 . S
C1510 H1491 0.951 . S
C1510 C1508 1.388 . S
C1510 C1511 1.366 . S
C1511 C1510 1.366 . S
C1511 C1512 1.414 . S
C1511 C1514 1.499 . S
C1512 H1492 0.950 . S
C1512 C1511 1.414 . S
C1512 C1513 1.374 . S
C1513 H1493 0.950 . S
C1513 C1509 1.385 . S
C1513 C1512 1.374 . S
C1514 C1511 1.499 . S
C1514 C1515 1.373 . S
C1514 C1516 1.389 . S
C1515 H1494 0.950 . S
C1515 C1514 1.373 . S
C1515 C1531 1.377 . S
C1516 C1514 1.389 . S
C1516 C1517 1.524 . S
C1516 C1530 1.377 . S
C1517 C1516 1.524 . S
C1517 C1518 1.397 . S
C1517 C1522 1.363 . S
C1518 H1495 0.950 . S
C1518 C1517 1.397 . S
C1518 C1519 1.334 . S
C1519 H1496 0.950 . S
C1519 C1518 1.334 . S
C1519 C1520 1.287 . S
C1520 C1519 1.287 . S
C1520 C1521 1.524 . S
C1520 H1539 0.913 . S
C1521 H1497 0.950 . S
C1521 C1520 1.524 . S
C1521 C1522 1.415 . S
C1522 H1498 0.950 . S
C1522 C1517 1.363 . S
C1522 C1521 1.415 . S
C1523 H1499 0.951 . S
C1523 C1524 1.366 . S
C1523 C1525 1.388 . S
C1524 C1523 1.366 . S
C1524 C1528 1.385 . S
C1525 H1500 0.951 . S
C1525 C1523 1.388 . S
C1525 C1526 1.366 . S
C1526 C1525 1.366 . S
C1526 C1527 1.414 . S
C1526 C1529 1.499 . S
C1527 H1501 0.950 . S
C1527 C1526 1.414 . S
C1527 C1528 1.374 . S
C1528 H1502 0.950 . S
C1528 C1524 1.385 . S
C1528 C1527 1.374 . S
C1529 C1526 1.499 . S
C1529 C1530 1.373 . S
C1529 C1531 1.389 . S
C1530 H1503 0.950 . S
C1530 C1516 1.377 . S
C1530 C1529 1.373 . S
C1531 C1515 1.377 . S
C1531 C1529 1.389 . S
C1531 C1532 1.524 . S
C1532 C1531 1.524 . S
C1532 C1533 1.397 . S
C1532 C1537 1.363 . S
C1533 H1504 0.950 . S
C1533 C1532 1.397 . S
C1533 C1534 1.334 . S
C1534 H1505 0.950 . S
C1534 C1533 1.334 . S
C1534 C1535 1.287 . S
C1535 C1534 1.287 . S
C1535 C1536 1.524 . S
C1535 H1538 0.999 . S
C1536 H1506 0.950 1_554 S
C1536 C1535 1.524 . S
C1536 C1537 1.415 . S
C1537 H1507 0.950 . S
C1537 C1532 1.363 . S
C1537 C1536 1.415 . S
H1538 C1535 0.999 . S
H1539 C1520 0.913 . S
H1540 C1558 0.951 . S
H1541 C1560 0.951 . S
H1542 C1562 0.950 . S
H1543 C1563 0.950 . S
H1544 C1565 0.950 . S
H1545 C1568 0.950 . S
H1546 C1569 0.969 . S
H1547 C1571 0.950 . S
H1548 C1572 0.950 . S
H1549 C1573 0.951 . S
H1550 C1575 0.951 . S
H1551 C1577 0.950 . S
H1552 C1578 0.950 . S
H1553 C1580 0.950 . S
H1554 C1583 0.950 . S
H1555 C1584 0.950 . S
H1556 C1586 0.950 . S
H1557 C1587 0.950 . S
C1558 H1540 0.951 . S
C1558 C1559 1.366 . S
C1558 C1560 1.388 . S
C1559 C1558 1.366 . S
C1559 C1563 1.385 . S
C1560 H1541 0.951 . S
C1560 C1558 1.388 . S
C1560 C1561 1.366 . S
C1561 C1560 1.366 . S
C1561 C1562 1.414 . S
C1561 C1564 1.499 . S
C1562 H1542 0.950 . S
C1562 C1561 1.414 . S
C1562 C1563 1.374 . S
C1563 H1543 0.950 . S
C1563 C1559 1.385 . S
C1563 C1562 1.374 . S
C1564 C1561 1.499 . S
C1564 C1565 1.373 . S
C1564 C1566 1.389 . S
C1565 H1544 0.950 . S
C1565 C1564 1.373 . S
C1565 C1581 1.377 . S
C1566 C1564 1.389 . S
C1566 C1567 1.524 . S
C1566 C1580 1.377 . S
C1567 C1566 1.524 . S
C1567 C1568 1.397 . S
C1567 C1572 1.363 . S
C1568 H1545 0.950 . S
C1568 C1567 1.397 . S
C1568 C1569 1.311 1_554 S
C1569 H1546 0.969 . S
C1569 C1568 1.311 1_556 S
C1569 C1570 1.293 . S
C1570 C1569 1.293 . S
C1570 C1571 1.524 1_556 S
C1570 H1589 0.913 . S
C1571 H1547 0.950 . S
C1571 C1570 1.524 1_554 S
C1571 C1572 1.415 . S
C1572 H1548 0.950 . S
C1572 C1567 1.363 . S
C1572 C1571 1.415 . S
C1573 H1549 0.951 . S
C1573 C1574 1.366 . S
C1573 C1575 1.388 . S
C1574 C1573 1.366 . S
C1574 C1578 1.385 . S
C1575 H1550 0.951 . S
C1575 C1573 1.388 . S
C1575 C1576 1.366 . S
C1576 C1575 1.366 . S
C1576 C1577 1.414 . S
C1576 C1579 1.499 . S
C1577 H1551 0.950 . S
C1577 C1576 1.414 . S
C1577 C1578 1.374 . S
C1578 H1552 0.950 . S
C1578 C1574 1.385 . S
C1578 C1577 1.374 . S
C1579 C1576 1.499 . S
C1579 C1580 1.373 . S
C1579 C1581 1.389 . S
C1580 H1553 0.950 . S
C1580 C1566 1.377 . S
C1580 C1579 1.373 . S
C1581 C1565 1.377 . S
C1581 C1579 1.389 . S
C1581 C1582 1.524 . S
C1582 C1581 1.524 . S
C1582 C1583 1.397 . S
C1582 C1587 1.363 . S
C1583 H1554 0.950 . S
C1583 C1582 1.397 . S
C1583 C1584 1.334 . S
C1584 H1555 0.950 . S
C1584 C1583 1.334 . S
C1584 C1585 1.287 . S
C1585 C1584 1.287 . S
C1585 C1586 1.524 . S
C1585 H1588 0.999 . S
C1586 H1556 0.950 . S
C1586 C1585 1.524 . S
C1586 C1587 1.415 . S
C1587 H1557 0.950 . S
C1587 C1582 1.363 . S
C1587 C1586 1.415 . S
H1588 C1585 0.999 . S
H1589 C1570 0.913 . S
H1590 C1608 0.951 . S
H1591 C1610 0.951 . S
H1592 C1612 0.950 . S
H1593 C1613 0.950 . S
H1594 C1615 0.950 . S
H1595 C1618 0.950 . S
H1596 C1619 0.950 . S
H1597 C1621 0.950 . S
H1598 C1622 0.950 . S
H1599 C1623 0.951 . S
H1600 C1625 0.951 . S
H1601 C1627 0.950 . S
H1602 C1628 0.950 . S
H1603 C1630 0.950 . S
H1604 C1633 0.950 . S
H1605 C1634 0.950 . S
H1606 C1636 0.950 . S
H1607 C1637 0.950 . S
C1608 H1590 0.951 . S
C1608 C1609 1.366 . S
C1608 C1610 1.388 . S
C1609 C1608 1.366 . S
C1609 C1613 1.385 . S
C1610 H1591 0.951 . S
C1610 C1608 1.388 . S
C1610 C1611 1.366 . S
C1611 C1610 1.366 . S
C1611 C1612 1.414 . S
C1611 C1614 1.499 . S
C1612 H1592 0.950 . S
C1612 C1611 1.414 . S
C1612 C1613 1.374 . S
C1613 H1593 0.950 . S
C1613 C1609 1.385 . S
C1613 C1612 1.374 . S
C1614 C1611 1.499 . S
C1614 C1615 1.373 . S
C1614 C1616 1.389 1_655 S
C1615 H1594 0.950 . S
C1615 C1614 1.373 . S
C1615 C1631 1.377 1_655 S
C1616 C1614 1.389 1_455 S
C1616 C1617 1.524 1_455 S
C1616 C1630 1.377 . S
C1617 C1616 1.524 1_655 S
C1617 C1618 1.397 . S
C1617 C1622 1.363 . S
C1618 H1595 0.950 . S
C1618 C1617 1.397 . S
C1618 C1619 1.334 . S
C1619 H1596 0.950 . S
C1619 C1618 1.334 . S
C1619 C1620 1.287 . S
C1620 C1619 1.287 . S
C1620 C1621 1.524 . S
C1620 H1639 0.913 . S
C1621 H1597 0.950 . S
C1621 C1620 1.524 . S
C1621 C1622 1.415 . S
C1622 H1598 0.950 . S
C1622 C1617 1.363 . S
C1622 C1621 1.415 . S
C1623 H1599 0.951 . S
C1623 C1624 1.366 . S
C1623 C1625 1.388 . S
C1624 C1623 1.366 . S
C1624 C1628 1.385 . S
C1625 H1600 0.951 . S
C1625 C1623 1.388 . S
C1625 C1626 1.366 . S
C1626 C1625 1.366 . S
C1626 C1627 1.414 . S
C1626 C1629 1.499 . S
C1627 H1601 0.950 . S
C1627 C1626 1.414 . S
C1627 C1628 1.374 . S
C1628 H1602 0.950 . S
C1628 C1624 1.385 . S
C1628 C1627 1.374 . S
C1629 C1626 1.499 . S
C1629 C1630 1.373 . S
C1629 C1631 1.389 . S
C1630 H1603 0.950 . S
C1630 C1616 1.377 . S
C1630 C1629 1.373 . S
C1631 C1615 1.377 1_455 S
C1631 C1629 1.389 . S
C1631 C1632 1.524 . S
C1632 C1631 1.524 . S
C1632 C1633 1.397 . S
C1632 C1637 1.363 . S
C1633 H1604 0.950 . S
C1633 C1632 1.397 . S
C1633 C1634 1.334 . S
C1634 H1605 0.950 . S
C1634 C1633 1.334 . S
C1634 C1635 1.287 . S
C1635 C1634 1.287 . S
C1635 C1636 1.524 . S
C1635 H1638 0.999 . S
C1636 H1606 0.950 . S
C1636 C1635 1.524 . S
C1636 C1637 1.415 . S
C1637 H1607 0.950 . S
C1637 C1632 1.363 . S
C1637 C1636 1.415 . S
H1638 C1635 0.999 . S
H1639 C1620 0.913 . S
H1640 C1658 0.951 . S
H1641 C1660 0.951 . S
H1642 C1662 0.950 . S
H1643 C1663 0.950 . S
H1644 C1665 0.950 . S
H1645 C1668 0.950 . S
H1646 C1669 0.950 . S
H1647 C1671 0.950 . S
H1648 C1672 0.950 . S
H1649 C1673 0.951 . S
H1650 C1675 0.951 . S
H1651 C1677 0.950 . S
H1652 C1678 0.950 . S
H1653 C1680 0.950 . S
H1654 C1683 0.950 . S
H1655 C1684 0.950 . S
H1656 C1686 0.950 . S
H1657 C1687 0.950 . S
C1658 H1640 0.951 . S
C1658 C1659 1.366 . S
C1658 C1660 1.388 . S
C1659 C1658 1.366 . S
C1659 C1663 1.385 . S
C1660 H1641 0.951 . S
C1660 C1658 1.388 . S
C1660 C1661 1.366 . S
C1661 C1660 1.366 . S
C1661 C1662 1.414 . S
C1661 C1664 1.499 . S
C1662 H1642 0.950 . S
C1662 C1661 1.414 . S
C1662 C1663 1.374 . S
C1663 H1643 0.950 . S
C1663 C1659 1.385 . S
C1663 C1662 1.374 . S
C1664 C1661 1.499 . S
C1664 C1665 1.373 . S
C1664 C1666 1.389 . S
C1665 H1644 0.950 . S
C1665 C1664 1.373 . S
C1665 C1681 1.377 . S
C1666 C1664 1.389 . S
C1666 C1667 1.524 . S
C1666 C1680 1.377 . S
C1667 C1666 1.524 . S
C1667 C1668 1.397 . S
C1667 C1672 1.363 . S
C1668 H1645 0.950 . S
C1668 C1667 1.397 . S
C1668 C1669 1.334 . S
C1669 H1646 0.950 . S
C1669 C1668 1.334 . S
C1669 C1670 1.287 . S
C1670 C1669 1.287 . S
C1670 C1671 1.524 . S
C1670 H1689 0.913 . S
C1671 H1647 0.950 . S
C1671 C1670 1.524 . S
C1671 C1672 1.415 . S
C1672 H1648 0.950 . S
C1672 C1667 1.363 . S
C1672 C1671 1.415 . S
C1673 H1649 0.951 . S
C1673 C1674 1.366 . S
C1673 C1675 1.388 . S
C1674 C1673 1.366 . S
C1674 C1678 1.385 . S
C1675 H1650 0.951 . S
C1675 C1673 1.388 . S
C1675 C1676 1.366 . S
C1676 C1675 1.366 . S
C1676 C1677 1.414 . S
C1676 C1679 1.499 . S
C1677 H1651 0.950 . S
C1677 C1676 1.414 . S
C1677 C1678 1.374 . S
C1678 H1652 0.950 . S
C1678 C1674 1.385 . S
C1678 C1677 1.374 . S
C1679 C1676 1.499 . S
C1679 C1680 1.373 . S
C1679 C1681 1.389 . S
C1680 H1653 0.950 . S
C1680 C1666 1.377 . S
C1680 C1679 1.373 . S
C1681 C1665 1.377 . S
C1681 C1679 1.389 . S
C1681 C1682 1.524 . S
C1682 C1681 1.524 . S
C1682 C1683 1.397 . S
C1682 C1687 1.363 . S
C1683 H1654 0.950 . S
C1683 C1682 1.397 . S
C1683 C1684 1.334 . S
C1684 H1655 0.950 . S
C1684 C1683 1.334 . S
C1684 C1685 1.287 . S
C1685 C1684 1.287 . S
C1685 C1686 1.524 . S
C1685 H1688 0.999 . S
C1686 H1656 0.950 . S
C1686 C1685 1.524 . S
C1686 C1687 1.415 . S
C1687 H1657 0.950 . S
C1687 C1682 1.363 . S
C1687 C1686 1.415 . S
H1688 C1685 0.999 . S
H1689 C1670 0.913 . S
H1690 C1708 0.951 . S
H1691 C1710 0.951 . S
H1692 C1712 0.950 . S
H1693 C1713 0.950 . S
H1694 C1715 0.950 . S
H1695 C1718 0.950 . S
H1696 C1719 0.950 . S
H1697 C1721 0.950 . S
H1698 C1722 0.950 . S
H1699 C1723 0.951 . S
H1700 C1725 0.951 . S
H1701 C1727 0.950 . S
H1702 C1728 0.950 . S
H1703 C1730 0.928 1_565 S
H1704 C1733 0.950 . S
H1705 C1734 0.950 . S
H1706 C1736 0.950 . S
H1707 C1737 0.950 . S
C1708 H1690 0.951 . S
C1708 C1709 1.366 . S
C1708 C1710 1.388 . S
C1709 C1708 1.366 . S
C1709 C1713 1.385 . S
C1710 H1691 0.951 . S
C1710 C1708 1.388 . S
C1710 C1711 1.366 . S
C1711 C1710 1.366 . S
C1711 C1712 1.414 . S
C1711 C1714 1.499 . S
C1712 H1692 0.950 . S
C1712 C1711 1.414 . S
C1712 C1713 1.374 . S
C1713 H1693 0.950 . S
C1713 C1709 1.385 . S
C1713 C1712 1.374 . S
C1714 C1711 1.499 . S
C1714 C1715 1.373 . S
C1714 C1716 1.389 . S
C1715 H1694 0.950 . S
C1715 C1714 1.373 . S
C1715 C1731 1.377 1_545 S
C1716 C1714 1.389 . S
C1716 C1717 1.524 . S
C1716 C1730 1.406 . S
C1717 C1716 1.524 . S
C1717 C1718 1.397 . S
C1717 C1722 1.363 . S
C1718 H1695 0.950 . S
C1718 C1717 1.397 . S
C1718 C1719 1.334 . S
C1719 H1696 0.950 . S
C1719 C1718 1.334 . S
C1719 C1720 1.287 . S
C1720 C1719 1.287 . S
C1720 C1721 1.524 . S
C1720 H1739 0.913 . S
C1721 H1697 0.950 . S
C1721 C1720 1.524 . S
C1721 C1722 1.415 . S
C1722 H1698 0.950 . S
C1722 C1717 1.363 . S
C1722 C1721 1.415 . S
C1723 H1699 0.951 . S
C1723 C1724 1.366 . S
C1723 C1725 1.388 . S
C1724 C1723 1.366 . S
C1724 C1728 1.385 . S
C1725 H1700 0.951 . S
C1725 C1723 1.388 . S
C1725 C1726 1.366 . S
C1726 C1725 1.366 . S
C1726 C1727 1.414 . S
C1726 C1729 1.499 . S
C1727 H1701 0.950 . S
C1727 C1726 1.414 . S
C1727 C1728 1.374 . S
C1728 H1702 0.950 . S
C1728 C1724 1.385 . S
C1728 C1727 1.374 . S
C1729 C1726 1.499 . S
C1729 C1730 1.354 1_565 S
C1729 C1731 1.389 . S
C1730 H1703 0.928 1_545 S
C1730 C1716 1.406 . S
C1730 C1729 1.354 1_545 S
C1731 C1715 1.377 1_565 S
C1731 C1729 1.389 . S
C1731 C1732 1.524 . S
C1732 C1731 1.524 . S
C1732 C1733 1.397 . S
C1732 C1737 1.363 . S
C1733 H1704 0.950 . S
C1733 C1732 1.397 . S
C1733 C1734 1.334 . S
C1734 H1705 0.950 . S
C1734 C1733 1.334 . S
C1734 C1735 1.287 . S
C1735 C1734 1.287 . S
C1735 C1736 1.524 . S
C1735 H1738 0.999 . S
C1736 H1706 0.950 . S
C1736 C1735 1.524 . S
C1736 C1737 1.415 . S
C1737 H1707 0.950 . S
C1737 C1732 1.363 . S
C1737 C1736 1.415 . S
H1738 C1735 0.999 . S
H1739 C1720 0.913 . S
H1740 C1758 0.951 . S
H1741 C1760 0.951 . S
H1742 C1762 0.950 . S
H1743 C1763 0.950 . S
H1744 C1765 0.950 . S
H1745 C1768 0.950 . S
H1746 C1769 0.950 . S
H1747 C1771 0.950 . S
H1748 C1772 0.950 . S
H1749 C1773 0.951 . S
H1750 C1775 0.951 . S
H1751 C1777 0.950 . S
H1752 C1778 0.950 . S
H1753 C1780 0.950 . S
H1754 C1783 0.950 . S
H1755 C1784 0.950 . S
H1756 C1786 0.950 . S
H1757 C1787 0.950 . S
C1758 H1740 0.951 . S
C1758 C1759 1.366 . S
C1758 C1760 1.388 . S
C1759 C1758 1.366 . S
C1759 C1763 1.385 . S
C1760 H1741 0.951 . S
C1760 C1758 1.388 . S
C1760 C1761 1.366 . S
C1761 C1760 1.366 . S
C1761 C1762 1.414 . S
C1761 C1764 1.499 . S
C1762 H1742 0.950 . S
C1762 C1761 1.414 . S
C1762 C1763 1.374 . S
C1763 H1743 0.950 . S
C1763 C1759 1.385 . S
C1763 C1762 1.374 . S
C1764 C1761 1.499 . S
C1764 C1765 1.373 . S
C1764 C1766 1.389 . S
C1765 H1744 0.950 . S
C1765 C1764 1.373 . S
C1765 C1781 1.377 . S
C1766 C1764 1.389 . S
C1766 C1767 1.524 . S
C1766 C1780 1.377 . S
C1767 C1766 1.524 . S
C1767 C1768 1.397 . S
C1767 C1772 1.363 . S
C1768 H1745 0.950 . S
C1768 C1767 1.397 . S
C1768 C1769 1.334 . S
C1769 H1746 0.950 . S
C1769 C1768 1.334 . S
C1769 C1770 1.287 . S
C1770 C1769 1.287 . S
C1770 C1771 1.524 . S
C1770 H1789 0.913 . S
C1771 H1747 0.950 . S
C1771 C1770 1.524 . S
C1771 C1772 1.415 . S
C1772 H1748 0.950 . S
C1772 C1767 1.363 . S
C1772 C1771 1.415 . S
C1773 H1749 0.951 . S
C1773 C1774 1.366 . S
C1773 C1775 1.388 . S
C1774 C1773 1.366 . S
C1774 C1778 1.385 . S
C1775 H1750 0.951 . S
C1775 C1773 1.388 . S
C1775 C1776 1.366 . S
C1776 C1775 1.366 . S
C1776 C1777 1.414 . S
C1776 C1779 1.499 . S
C1777 H1751 0.950 . S
C1777 C1776 1.414 . S
C1777 C1778 1.374 . S
C1778 H1752 0.950 . S
C1778 C1774 1.385 . S
C1778 C1777 1.374 . S
C1779 C1776 1.499 . S
C1779 C1780 1.373 . S
C1779 C1781 1.389 . S
C1780 H1753 0.950 . S
C1780 C1766 1.377 . S
C1780 C1779 1.373 . S
C1781 C1765 1.377 . S
C1781 C1779 1.389 . S
C1781 C1782 1.524 . S
C1782 C1781 1.524 . S
C1782 C1783 1.397 . S
C1782 C1787 1.363 . S
C1783 H1754 0.950 . S
C1783 C1782 1.397 . S
C1783 C1784 1.334 . S
C1784 H1755 0.950 . S
C1784 C1783 1.334 . S
C1784 C1785 1.287 . S
C1785 C1784 1.287 . S
C1785 C1786 1.524 . S
C1785 H1788 0.999 . S
C1786 H1756 0.950 . S
C1786 C1785 1.524 . S
C1786 C1787 1.415 . S
C1787 H1757 0.950 . S
C1787 C1782 1.363 . S
C1787 C1786 1.415 . S
H1788 C1785 0.999 . S
H1789 C1770 0.913 . S
H1790 C1808 0.951 . S
H1791 C1810 0.951 . S
H1792 C1812 0.950 . S
H1793 C1813 0.950 . S
H1794 C1815 0.950 . S
H1795 C1818 0.950 . S
H1796 C1819 0.950 . S
H1797 C1821 0.950 . S
H1798 C1822 0.950 . S
H1799 C1823 0.951 . S
H1800 C1825 0.951 . S
H1801 C1827 0.950 . S
H1802 C1828 0.950 . S
H1803 C1830 0.950 . S
H1804 C1833 0.950 . S
H1805 C1834 0.950 . S
H1806 C1836 0.950 . S
H1807 C1837 0.950 . S
C1808 H1790 0.951 . S
C1808 C1809 1.366 . S
C1808 C1810 1.388 . S
C1809 C1808 1.366 . S
C1809 C1813 1.385 . S
C1810 H1791 0.951 . S
C1810 C1808 1.388 . S
C1810 C1811 1.366 . S
C1811 C1810 1.366 . S
C1811 C1812 1.414 . S
C1811 C1814 1.499 . S
C1812 H1792 0.950 . S
C1812 C1811 1.414 . S
C1812 C1813 1.374 . S
C1813 H1793 0.950 . S
C1813 C1809 1.385 . S
C1813 C1812 1.374 . S
C1814 C1811 1.499 . S
C1814 C1815 1.373 . S
C1814 C1816 1.389 . S
C1815 H1794 0.950 . S
C1815 C1814 1.373 . S
C1815 C1831 1.377 . S
C1816 C1814 1.389 . S
C1816 C1817 1.524 . S
C1816 C1830 1.377 . S
C1817 C1816 1.524 . S
C1817 C1818 1.397 . S
C1817 C1822 1.363 . S
C1818 H1795 0.950 . S
C1818 C1817 1.397 . S
C1818 C1819 1.334 . S
C1819 H1796 0.950 . S
C1819 C1818 1.334 . S
C1819 C1820 1.287 . S
C1820 C1819 1.287 . S
C1820 C1821 1.524 . S
C1820 H1839 0.913 . S
C1821 H1797 0.950 . S
C1821 C1820 1.524 . S
C1821 C1822 1.415 . S
C1822 H1798 0.950 . S
C1822 C1817 1.363 . S
C1822 C1821 1.415 . S
C1823 H1799 0.951 . S
C1823 C1824 1.366 . S
C1823 C1825 1.388 . S
C1824 C1823 1.366 . S
C1824 C1828 1.385 . S
C1825 H1800 0.951 . S
C1825 C1823 1.388 . S
C1825 C1826 1.366 . S
C1826 C1825 1.366 . S
C1826 C1827 1.414 . S
C1826 C1829 1.499 . S
C1827 H1801 0.950 . S
C1827 C1826 1.414 . S
C1827 C1828 1.374 . S
C1828 H1802 0.950 . S
C1828 C1824 1.385 . S
C1828 C1827 1.374 . S
C1829 C1826 1.499 . S
C1829 C1830 1.373 . S
C1829 C1831 1.389 . S
C1830 H1803 0.950 . S
C1830 C1816 1.377 . S
C1830 C1829 1.373 . S
C1831 C1815 1.377 . S
C1831 C1829 1.389 . S
C1831 C1832 1.524 . S
C1832 C1831 1.524 . S
C1832 C1833 1.397 . S
C1832 C1837 1.363 . S
C1833 H1804 0.950 . S
C1833 C1832 1.397 . S
C1833 C1834 1.334 . S
C1834 H1805 0.950 . S
C1834 C1833 1.334 . S
C1834 C1835 1.287 . S
C1835 C1834 1.287 . S
C1835 C1836 1.524 . S
C1835 H1838 0.999 . S
C1836 H1806 0.950 . S
C1836 C1835 1.524 . S
C1836 C1837 1.415 . S
C1837 H1807 0.950 . S
C1837 C1832 1.363 . S
C1837 C1836 1.415 . S
H1838 C1835 0.999 . S
H1839 C1820 0.913 . S
H1840 C1858 0.951 . S
H1841 C1860 0.951 . S
H1842 C1862 0.950 . S
H1843 C1863 0.950 . S
H1844 C1865 0.950 . S
H1845 C1868 0.950 . S
H1846 C1869 0.950 . S
H1847 C1871 0.950 . S
H1848 C1872 0.950 . S
H1849 C1873 0.951 . S
H1850 C1875 0.951 . S
H1851 C1877 0.950 . S
H1852 C1878 0.950 . S
H1853 C1880 0.950 . S
H1854 C1883 0.950 . S
H1855 C1884 0.950 . S
H1856 C1886 0.950 . S
H1857 C1887 0.950 . S
C1858 H1840 0.951 . S
C1858 C1859 1.366 . S
C1858 C1860 1.388 . S
C1859 C1858 1.366 . S
C1859 C1863 1.385 . S
C1860 H1841 0.951 . S
C1860 C1858 1.388 . S
C1860 C1861 1.366 . S
C1861 C1860 1.366 . S
C1861 C1862 1.414 . S
C1861 C1864 1.499 . S
C1862 H1842 0.950 . S
C1862 C1861 1.414 . S
C1862 C1863 1.374 . S
C1863 H1843 0.950 . S
C1863 C1859 1.385 . S
C1863 C1862 1.374 . S
C1864 C1861 1.499 . S
C1864 C1865 1.373 . S
C1864 C1866 1.389 . S
C1865 H1844 0.950 . S
C1865 C1864 1.373 . S
C1865 C1881 1.377 . S
C1866 C1864 1.389 . S
C1866 C1867 1.524 . S
C1866 C1880 1.377 . S
C1867 C1866 1.524 . S
C1867 C1868 1.397 . S
C1867 C1872 1.363 . S
C1868 H1845 0.950 . S
C1868 C1867 1.397 . S
C1868 C1869 1.334 . S
C1869 H1846 0.950 . S
C1869 C1868 1.334 . S
C1869 C1870 1.287 . S
C1870 C1869 1.287 . S
C1870 C1871 1.524 . S
C1870 H1889 0.913 . S
C1871 H1847 0.950 . S
C1871 C1870 1.524 . S
C1871 C1872 1.415 . S
C1872 H1848 0.950 . S
C1872 C1867 1.363 . S
C1872 C1871 1.415 . S
C1873 H1849 0.951 . S
C1873 C1874 1.366 . S
C1873 C1875 1.388 . S
C1874 C1873 1.366 . S
C1874 C1878 1.385 . S
C1875 H1850 0.951 . S
C1875 C1873 1.388 . S
C1875 C1876 1.366 . S
C1876 C1875 1.366 . S
C1876 C1877 1.414 . S
C1876 C1879 1.499 . S
C1877 H1851 0.950 . S
C1877 C1876 1.414 . S
C1877 C1878 1.374 . S
C1878 H1852 0.950 . S
C1878 C1874 1.385 . S
C1878 C1877 1.374 . S
C1879 C1876 1.499 . S
C1879 C1880 1.373 . S
C1879 C1881 1.389 . S
C1880 H1853 0.950 . S
C1880 C1866 1.377 . S
C1880 C1879 1.373 . S
C1881 C1865 1.377 . S
C1881 C1879 1.389 . S
C1881 C1882 1.524 . S
C1882 C1881 1.524 . S
C1882 C1883 1.397 . S
C1882 C1887 1.363 . S
C1883 H1854 0.950 . S
C1883 C1882 1.397 . S
C1883 C1884 1.334 . S
C1884 H1855 0.950 . S
C1884 C1883 1.334 . S
C1884 C1885 1.287 . S
C1885 C1884 1.287 . S
C1885 C1886 1.524 . S
C1885 H1888 0.999 . S
C1886 H1856 0.950 . S
C1886 C1885 1.524 . S
C1886 C1887 1.415 . S
C1887 H1857 0.950 . S
C1887 C1882 1.363 . S
C1887 C1886 1.415 . S
H1888 C1885 0.999 . S
H1889 C1870 0.913 . S
H1890 C1908 0.951 . S
H1891 C1910 0.951 . S
H1892 C1912 0.950 . S
H1893 C1913 0.950 . S
H1894 C1915 0.950 . S
H1895 C1918 0.950 . S
H1896 C1919 0.950 . S
H1897 C1921 0.950 . S
H1898 C1922 0.950 . S
H1899 C1923 0.951 . S
H1900 C1925 0.951 . S
H1901 C1927 0.950 . S
H1902 C1928 0.950 . S
H1903 C1930 0.950 . S
H1904 C1933 0.950 . S
H1905 C1934 0.950 . S
H1906 C1936 0.950 . S
H1907 C1937 0.950 . S
C1908 H1890 0.951 . S
C1908 C1909 1.366 . S
C1908 C1910 1.388 . S
C1909 C1908 1.366 . S
C1909 C1913 1.385 . S
C1910 H1891 0.951 . S
C1910 C1908 1.388 . S
C1910 C1911 1.366 . S
C1911 C1910 1.366 . S
C1911 C1912 1.414 . S
C1911 C1914 1.499 . S
C1912 H1892 0.950 . S
C1912 C1911 1.414 . S
C1912 C1913 1.374 . S
C1913 H1893 0.950 . S
C1913 C1909 1.385 . S
C1913 C1912 1.374 . S
C1914 C1911 1.499 . S
C1914 C1915 1.373 . S
C1914 C1916 1.389 . S
C1915 H1894 0.950 . S
C1915 C1914 1.373 . S
C1915 C1931 1.377 . S
C1916 C1914 1.389 . S
C1916 C1917 1.524 . S
C1916 C1930 1.377 . S
C1917 C1916 1.524 . S
C1917 C1918 1.397 . S
C1917 C1922 1.363 . S
C1918 H1895 0.950 . S
C1918 C1917 1.397 . S
C1918 C1919 1.334 . S
C1919 H1896 0.950 . S
C1919 C1918 1.334 . S
C1919 C1920 1.287 . S
C1920 C1919 1.287 . S
C1920 C1921 1.524 . S
C1920 H1939 0.913 . S
C1921 H1897 0.950 . S
C1921 C1920 1.524 . S
C1921 C1922 1.415 . S
C1922 H1898 0.950 . S
C1922 C1917 1.363 . S
C1922 C1921 1.415 . S
C1923 H1899 0.951 . S
C1923 C1924 1.366 . S
C1923 C1925 1.388 . S
C1924 C1923 1.366 . S
C1924 C1928 1.385 . S
C1925 H1900 0.951 . S
C1925 C1923 1.388 . S
C1925 C1926 1.366 . S
C1926 C1925 1.366 . S
C1926 C1927 1.414 . S
C1926 C1929 1.499 . S
C1927 H1901 0.950 . S
C1927 C1926 1.414 . S
C1927 C1928 1.374 . S
C1928 H1902 0.950 . S
C1928 C1924 1.385 . S
C1928 C1927 1.374 . S
C1929 C1926 1.499 . S
C1929 C1930 1.373 . S
C1929 C1931 1.389 . S
C1930 H1903 0.950 . S
C1930 C1916 1.377 . S
C1930 C1929 1.373 . S
C1931 C1915 1.377 . S
C1931 C1929 1.389 . S
C1931 C1932 1.524 . S
C1932 C1931 1.524 . S
C1932 C1933 1.397 . S
C1932 C1937 1.363 . S
C1933 H1904 0.950 . S
C1933 C1932 1.397 . S
C1933 C1934 1.334 . S
C1934 H1905 0.950 . S
C1934 C1933 1.334 . S
C1934 C1935 1.287 . S
C1935 C1934 1.287 . S
C1935 C1936 1.524 . S
C1935 H1938 0.999 . S
C1936 H1906 0.950 . S
C1936 C1935 1.524 . S
C1936 C1937 1.415 . S
C1937 H1907 0.950 . S
C1937 C1932 1.363 . S
C1937 C1936 1.415 . S
H1938 C1935 0.999 . S
H1939 C1920 0.913 . S
H1940 C1958 0.951 . S
H1941 C1960 0.951 . S
H1942 C1962 0.950 . S
H1943 C1963 0.950 . S
H1944 C1965 0.950 . S
H1945 C1968 0.950 . S
H1946 C1969 0.950 . S
H1947 C1971 0.950 . S
H1948 C1972 0.950 . S
H1949 C1973 0.951 . S
H1950 C1975 0.951 . S
H1951 C1977 0.950 . S
H1952 C1978 0.950 . S
H1953 C1980 0.950 . S
H1954 C1983 0.950 . S
H1955 C1984 0.950 . S
H1956 C1986 0.950 . S
H1957 C1987 0.950 . S
C1958 H1940 0.951 . S
C1958 C1959 1.366 . S
C1958 C1960 1.388 . S
C1959 C1958 1.366 . S
C1959 C1963 1.385 . S
C1960 H1941 0.951 . S
C1960 C1958 1.388 . S
C1960 C1961 1.366 . S
C1961 C1960 1.366 . S
C1961 C1962 1.414 . S
C1961 C1964 1.499 . S
C1962 H1942 0.950 . S
C1962 C1961 1.414 . S
C1962 C1963 1.374 . S
C1963 H1943 0.950 . S
C1963 C1959 1.385 . S
C1963 C1962 1.374 . S
C1964 C1961 1.499 . S
C1964 C1965 1.373 . S
C1964 C1966 1.389 . S
C1965 H1944 0.950 . S
C1965 C1964 1.373 . S
C1965 C1981 1.377 . S
C1966 C1964 1.389 . S
C1966 C1967 1.524 . S
C1966 C1980 1.377 . S
C1967 C1966 1.524 . S
C1967 C1968 1.397 . S
C1967 C1972 1.363 . S
C1968 H1945 0.950 . S
C1968 C1967 1.397 . S
C1968 C1969 1.334 . S
C1969 H1946 0.950 . S
C1969 C1968 1.334 . S
C1969 C1970 1.287 . S
C1970 C1969 1.287 . S
C1970 C1971 1.524 . S
C1970 H1989 0.913 . S
C1971 H1947 0.950 . S
C1971 C1970 1.524 . S
C1971 C1972 1.415 . S
C1972 H1948 0.950 . S
C1972 C1967 1.363 . S
C1972 C1971 1.415 . S
C1973 H1949 0.951 . S
C1973 C1974 1.366 . S
C1973 C1975 1.388 . S
C1974 C1973 1.366 . S
C1974 C1978 1.385 . S
C1975 H1950 0.951 . S
C1975 C1973 1.388 . S
C1975 C1976 1.366 . S
C1976 C1975 1.366 . S
C1976 C1977 1.414 . S
C1976 C1979 1.499 . S
C1977 H1951 0.950 . S
C1977 C1976 1.414 . S
C1977 C1978 1.374 . S
C1978 H1952 0.950 . S
C1978 C1974 1.385 . S
C1978 C1977 1.374 . S
C1979 C1976 1.499 . S
C1979 C1980 1.373 . S
C1979 C1981 1.389 . S
C1980 H1953 0.950 . S
C1980 C1966 1.377 . S
C1980 C1979 1.373 . S
C1981 C1965 1.377 . S
C1981 C1979 1.389 . S
C1981 C1982 1.524 . S
C1982 C1981 1.524 . S
C1982 C1983 1.397 . S
C1982 C1987 1.363 . S
C1983 H1954 0.950 . S
C1983 C1982 1.397 . S
C1983 C1984 1.334 . S
C1984 H1955 0.950 . S
C1984 C1983 1.334 . S
C1984 C1985 1.287 . S
C1985 C1984 1.287 . S
C1985 C1986 1.524 . S
C1985 H1988 0.999 . S
C1986 H1956 0.950 . S
C1986 C1985 1.524 . S
C1986 C1987 1.415 . S
C1987 H1957 0.950 . S
C1987 C1982 1.363 . S
C1987 C1986 1.415 . S
H1988 C1985 0.999 . S
H1989 C1970 0.913 . S
H1990 C2008 0.951 . S
H1991 C2010 0.951 . S
H1992 C2012 0.950 . S
H1993 C2013 0.950 . S
H1994 C2015 0.950 . S
H1995 C2018 0.950 . S
H1996 C2019 0.950 . S
H1997 C2021 0.950 . S
H1998 C2022 0.950 . S
H1999 C2023 0.951 . S
H2000 C2025 0.951 . S
H2001 C2027 0.950 . S
H2002 C2028 0.950 . S
H2003 C2030 0.950 . S
H2004 C2033 0.950 . S
H2005 C2034 0.950 . S
H2006 C2036 0.950 . S
H2007 C2037 0.950 . S
C2008 H1990 0.951 . S
C2008 C2009 1.366 . S
C2008 C2010 1.388 . S
C2009 C2008 1.366 . S
C2009 C2013 1.385 . S
C2010 H1991 0.951 . S
C2010 C2008 1.388 . S
C2010 C2011 1.366 . S
C2011 C2010 1.366 . S
C2011 C2012 1.414 . S
C2011 C2014 1.499 . S
C2012 H1992 0.950 . S
C2012 C2011 1.414 . S
C2012 C2013 1.374 . S
C2013 H1993 0.950 . S
C2013 C2009 1.385 . S
C2013 C2012 1.374 . S
C2014 C2011 1.499 . S
C2014 C2015 1.373 . S
C2014 C2016 1.389 . S
C2015 H1994 0.950 . S
C2015 C2014 1.373 . S
C2015 C2031 1.377 . S
C2016 C2014 1.389 . S
C2016 C2017 1.524 . S
C2016 C2030 1.377 . S
C2017 C2016 1.524 . S
C2017 C2018 1.397 . S
C2017 C2022 1.363 . S
C2018 H1995 0.950 . S
C2018 C2017 1.397 . S
C2018 C2019 1.334 . S
C2019 H1996 0.950 . S
C2019 C2018 1.334 . S
C2019 C2020 1.287 . S
C2020 C2019 1.287 . S
C2020 C2021 1.524 . S
C2020 H2039 0.913 . S
C2021 H1997 0.950 . S
C2021 C2020 1.524 . S
C2021 C2022 1.415 . S
C2022 H1998 0.950 . S
C2022 C2017 1.363 . S
C2022 C2021 1.415 . S
C2023 H1999 0.951 . S
C2023 C2024 1.366 . S
C2023 C2025 1.388 . S
C2024 C2023 1.366 . S
C2024 C2028 1.385 . S
C2025 H2000 0.951 . S
C2025 C2023 1.388 . S
C2025 C2026 1.366 . S
C2026 C2025 1.366 . S
C2026 C2027 1.414 . S
C2026 C2029 1.499 . S
C2027 H2001 0.950 . S
C2027 C2026 1.414 . S
C2027 C2028 1.374 . S
C2028 H2002 0.950 . S
C2028 C2024 1.385 . S
C2028 C2027 1.374 . S
C2029 C2026 1.499 . S
C2029 C2030 1.373 . S
C2029 C2031 1.389 . S
C2030 H2003 0.950 . S
C2030 C2016 1.377 . S
C2030 C2029 1.373 . S
C2031 C2015 1.377 . S
C2031 C2029 1.389 . S
C2031 C2032 1.524 . S
C2032 C2031 1.524 . S
C2032 C2033 1.397 . S
C2032 C2037 1.363 . S
C2033 H2004 0.950 . S
C2033 C2032 1.397 . S
C2033 C2034 1.334 . S
C2034 H2005 0.950 . S
C2034 C2033 1.334 . S
C2034 C2035 1.287 . S
C2035 C2034 1.287 . S
C2035 C2036 1.524 . S
C2035 H2038 0.999 . S
C2036 H2006 0.950 . S
C2036 C2035 1.524 . S
C2036 C2037 1.415 . S
C2037 H2007 0.950 . S
C2037 C2032 1.363 . S
C2037 C2036 1.415 . S
H2038 C2035 0.999 . S
H2039 C2020 0.913 . S
H2040 C2058 0.951 . S
H2041 C2060 0.951 . S
H2042 C2062 0.950 1_565 S
H2043 C2063 0.950 . S
H2044 C2065 0.950 . S
H2045 C2068 0.950 . S
H2046 C2069 0.950 1_545 S
H2047 C2071 0.950 . S
H2048 C2072 0.950 . S
H2049 C2073 0.951 . S
H2050 C2075 0.951 . S
H2051 C2077 0.950 . S
H2052 C2078 0.950 . S
H2053 C2080 0.950 . S
H2054 C2083 0.950 . S
H2055 C2084 0.950 . S
H2056 C2086 0.950 . S
H2057 C2087 0.950 . S
C2058 H2040 0.951 . S
C2058 C2059 1.366 . S
C2058 C2060 1.388 . S
C2059 C2058 1.366 . S
C2059 C2063 1.385 . S
C2060 H2041 0.951 . S
C2060 C2058 1.388 . S
C2060 C2061 1.366 1_545 S
C2061 C2060 1.366 1_565 S
C2061 C2062 1.414 1_565 S
C2061 C2064 1.499 . S
C2062 H2042 0.950 1_545 S
C2062 C2061 1.414 1_545 S
C2062 C2063 1.374 . S
C2063 H2043 0.950 . S
C2063 C2059 1.385 . S
C2063 C2062 1.374 . S
C2064 C2061 1.499 . S
C2064 C2065 1.373 . S
C2064 C2066 1.389 . S
C2065 H2044 0.950 . S
C2065 C2064 1.373 . S
C2065 C2081 1.377 . S
C2066 C2064 1.389 . S
C2066 C2067 1.524 . S
C2066 C2080 1.377 . S
C2067 C2066 1.524 . S
C2067 C2068 1.397 . S
C2067 C2072 1.363 . S
C2068 H2045 0.950 . S
C2068 C2067 1.397 . S
C2068 C2069 1.334 . S
C2069 H2046 0.950 1_565 S
C2069 C2068 1.334 . S
C2069 C2070 1.309 . S
C2070 C2069 1.309 . S
C2070 C2071 1.532 . S
C2070 H2089 0.877 1_565 S
C2071 H2047 0.950 . S
C2071 C2070 1.532 . S
C2071 C2072 1.415 . S
C2072 H2048 0.950 . S
C2072 C2067 1.363 . S
C2072 C2071 1.415 . S
C2073 H2049 0.951 . S
C2073 C2074 1.366 . S
C2073 C2075 1.388 . S
C2074 C2073 1.366 . S
C2074 C2078 1.385 . S
C2075 H2050 0.951 . S
C2075 C2073 1.388 . S
C2075 C2076 1.366 . S
C2076 C2075 1.366 . S
C2076 C2077 1.414 . S
C2076 C2079 1.499 . S
C2077 H2051 0.950 . S
C2077 C2076 1.414 . S
C2077 C2078 1.374 . S
C2078 H2052 0.950 . S
C2078 C2074 1.385 . S
C2078 C2077 1.374 . S
C2079 C2076 1.499 . S
C2079 C2080 1.373 . S
C2079 C2081 1.389 . S
C2080 H2053 0.950 . S
C2080 C2066 1.377 . S
C2080 C2079 1.373 . S
C2081 C2065 1.377 . S
C2081 C2079 1.389 . S
C2081 C2082 1.524 . S
C2082 C2081 1.524 . S
C2082 C2083 1.397 . S
C2082 C2087 1.363 . S
C2083 H2054 0.950 . S
C2083 C2082 1.397 . S
C2083 C2084 1.334 . S
C2084 H2055 0.950 . S
C2084 C2083 1.334 . S
C2084 C2085 1.287 . S
C2085 C2084 1.287 . S
C2085 C2086 1.524 . S
C2085 H2088 0.999 . S
C2086 H2056 0.950 . S
C2086 C2085 1.524 . S
C2086 C2087 1.415 . S
C2087 H2057 0.950 . S
C2087 C2082 1.363 . S
C2087 C2086 1.415 . S
H2088 C2085 0.999 . S
H2089 C2070 0.877 1_545 S
H2090 C2108 0.951 . S
H2091 C2110 0.953 . S
H2092 C2112 0.950 . S
H2093 C2113 0.950 . S
H2094 C2115 0.950 . S
H2095 C2118 0.950 . S
H2096 C2119 0.950 . S
H2097 C2121 0.950 . S
H2098 C2122 0.950 . S
H2099 C2123 0.951 . S
H2100 C2125 0.951 . S
H2101 C2127 0.950 . S
H2102 C2128 0.950 . S
H2103 C2130 0.950 . S
H2104 C2133 0.950 . S
H2105 C2134 0.950 . S
H2106 C2136 0.950 . S
H2107 C2137 0.950 . S
C2108 H2090 0.951 . S
C2108 C2109 1.366 . S
C2108 C2110 1.383 1_655 S
C2109 C2108 1.366 . S
C2109 C2113 1.385 . S
C2110 H2091 0.953 . S
C2110 C2108 1.383 1_455 S
C2110 C2111 1.368 . S
C2111 C2110 1.368 . S
C2111 C2112 1.414 . S
C2111 C2114 1.499 . S
C2112 H2092 0.950 . S
C2112 C2111 1.414 . S
C2112 C2113 1.374 1_455 S
C2113 H2093 0.950 . S
C2113 C2109 1.385 . S
C2113 C2112 1.374 1_655 S
C2114 C2111 1.499 . S
C2114 C2115 1.373 . S
C2114 C2116 1.389 . S
C2115 H2094 0.950 . S
C2115 C2114 1.373 . S
C2115 C2131 1.377 . S
C2116 C2114 1.389 . S
C2116 C2117 1.524 . S
C2116 C2130 1.377 . S
C2117 C2116 1.524 . S
C2117 C2118 1.397 . S
C2117 C2122 1.363 . S
C2118 H2095 0.950 . S
C2118 C2117 1.397 . S
C2118 C2119 1.334 . S
C2119 H2096 0.950 . S
C2119 C2118 1.334 . S
C2119 C2120 1.287 . S
C2120 C2119 1.287 . S
C2120 C2121 1.524 . S
C2120 H2139 0.913 1_455 S
C2121 H2097 0.950 . S
C2121 C2120 1.524 . S
C2121 C2122 1.415 . S
C2122 H2098 0.950 . S
C2122 C2117 1.363 . S
C2122 C2121 1.415 . S
C2123 H2099 0.951 . S
C2123 C2124 1.366 . S
C2123 C2125 1.388 . S
C2124 C2123 1.366 . S
C2124 C2128 1.385 . S
C2125 H2100 0.951 . S
C2125 C2123 1.388 . S
C2125 C2126 1.366 . S
C2126 C2125 1.366 . S
C2126 C2127 1.414 . S
C2126 C2129 1.499 . S
C2127 H2101 0.950 . S
C2127 C2126 1.414 . S
C2127 C2128 1.374 . S
C2128 H2102 0.950 . S
C2128 C2124 1.385 . S
C2128 C2127 1.374 . S
C2129 C2126 1.499 . S
C2129 C2130 1.373 . S
C2129 C2131 1.389 . S
C2130 H2103 0.950 . S
C2130 C2116 1.377 . S
C2130 C2129 1.373 . S
C2131 C2115 1.377 . S
C2131 C2129 1.389 . S
C2131 C2132 1.524 . S
C2132 C2131 1.524 . S
C2132 C2133 1.397 . S
C2132 C2137 1.363 . S
C2133 H2104 0.950 . S
C2133 C2132 1.397 . S
C2133 C2134 1.334 . S
C2134 H2105 0.950 . S
C2134 C2133 1.334 . S
C2134 C2135 1.287 . S
C2135 C2134 1.287 . S
C2135 C2136 1.524 . S
C2135 H2138 0.999 . S
C2136 H2106 0.950 . S
C2136 C2135 1.524 . S
C2136 C2137 1.415 . S
C2137 H2107 0.950 . S
C2137 C2132 1.363 . S
C2137 C2136 1.415 . S
H2138 C2135 0.999 . S
H2139 C2120 0.913 1_655 S
H2140 C2158 0.951 . S
H2141 C2160 0.951 . S
H2142 C2162 0.950 . S
H2143 C2163 0.950 . S
H2144 C2165 0.950 . S
H2145 C2168 0.950 . S
H2146 C2169 0.950 . S
H2147 C2171 0.950 . S
H2148 C2172 0.950 . S
H2149 C2173 0.951 . S
H2150 C2175 0.951 . S
H2151 C2177 0.950 . S
H2152 C2178 0.950 . S
H2153 C2180 0.950 . S
H2154 C2183 0.950 . S
H2155 C2184 0.950 . S
H2156 C2186 0.950 . S
H2157 C2187 0.950 . S
C2158 H2140 0.951 . S
C2158 C2159 1.366 . S
C2158 C2160 1.388 . S
C2159 C2158 1.366 . S
C2159 C2163 1.385 . S
C2160 H2141 0.951 . S
C2160 C2158 1.388 . S
C2160 C2161 1.366 . S
C2161 C2160 1.366 . S
C2161 C2162 1.414 . S
C2161 C2164 1.499 . S
C2162 H2142 0.950 . S
C2162 C2161 1.414 . S
C2162 C2163 1.374 . S
C2163 H2143 0.950 . S
C2163 C2159 1.385 . S
C2163 C2162 1.374 . S
C2164 C2161 1.499 . S
C2164 C2165 1.373 . S
C2164 C2166 1.389 . S
C2165 H2144 0.950 . S
C2165 C2164 1.373 . S
C2165 C2181 1.377 . S
C2166 C2164 1.389 . S
C2166 C2167 1.524 . S
C2166 C2180 1.377 . S
C2167 C2166 1.524 . S
C2167 C2168 1.397 . S
C2167 C2172 1.363 . S
C2168 H2145 0.950 . S
C2168 C2167 1.397 . S
C2168 C2169 1.334 . S
C2169 H2146 0.950 . S
C2169 C2168 1.334 . S
C2169 C2170 1.287 . S
C2170 C2169 1.287 . S
C2170 C2171 1.524 . S
C2170 H2189 0.913 . S
C2171 H2147 0.950 . S
C2171 C2170 1.524 . S
C2171 C2172 1.415 . S
C2172 H2148 0.950 . S
C2172 C2167 1.363 . S
C2172 C2171 1.415 . S
C2173 H2149 0.951 . S
C2173 C2174 1.366 . S
C2173 C2175 1.388 . S
C2174 C2173 1.366 . S
C2174 C2178 1.385 . S
C2175 H2150 0.951 . S
C2175 C2173 1.388 . S
C2175 C2176 1.366 . S
C2176 C2175 1.366 . S
C2176 C2177 1.414 . S
C2176 C2179 1.499 . S
C2177 H2151 0.950 . S
C2177 C2176 1.414 . S
C2177 C2178 1.374 . S
C2178 H2152 0.950 . S
C2178 C2174 1.385 . S
C2178 C2177 1.374 . S
C2179 C2176 1.499 . S
C2179 C2180 1.373 . S
C2179 C2181 1.389 . S
C2180 H2153 0.950 . S
C2180 C2166 1.377 . S
C2180 C2179 1.373 . S
C2181 C2165 1.377 . S
C2181 C2179 1.389 . S
C2181 C2182 1.524 . S
C2182 C2181 1.524 . S
C2182 C2183 1.397 . S
C2182 C2187 1.363 . S
C2183 H2154 0.950 . S
C2183 C2182 1.397 . S
C2183 C2184 1.334 . S
C2184 H2155 0.950 . S
C2184 C2183 1.334 . S
C2184 C2185 1.287 . S
C2185 C2184 1.287 . S
C2185 C2186 1.524 . S
C2185 H2188 0.999 . S
C2186 H2156 0.950 . S
C2186 C2185 1.524 . S
C2186 C2187 1.415 . S
C2187 H2157 0.950 . S
C2187 C2182 1.363 . S
C2187 C2186 1.415 . S
H2188 C2185 0.999 . S
H2189 C2170 0.913 . S
H2190 C2208 0.951 . S
H2191 C2210 0.951 . S
H2192 C2212 0.950 . S
H2193 C2213 0.950 . S
H2194 C2215 0.950 . S
H2195 C2218 0.950 . S
H2196 C2219 0.950 . S
H2197 C2221 0.950 . S
H2198 C2222 0.950 . S
H2199 C2223 0.951 . S
H2200 C2225 0.951 . S
H2201 C2227 0.950 . S
H2202 C2228 0.950 . S
H2203 C2230 0.950 . S
H2204 C2233 0.950 . S
H2205 C2234 0.950 . S
H2206 C2236 0.950 . S
H2207 C2237 0.950 . S
C2208 H2190 0.951 . S
C2208 C2209 1.366 . S
C2208 C2210 1.388 . S
C2209 C2208 1.366 . S
C2209 C2213 1.385 . S
C2210 H2191 0.951 . S
C2210 C2208 1.388 . S
C2210 C2211 1.366 . S
C2211 C2210 1.366 . S
C2211 C2212 1.414 . S
C2211 C2214 1.499 . S
C2212 H2192 0.950 . S
C2212 C2211 1.414 . S
C2212 C2213 1.374 . S
C2213 H2193 0.950 . S
C2213 C2209 1.385 . S
C2213 C2212 1.374 . S
C2214 C2211 1.499 . S
C2214 C2215 1.373 . S
C2214 C2216 1.389 . S
C2215 H2194 0.950 . S
C2215 C2214 1.373 . S
C2215 C2231 1.377 . S
C2216 C2214 1.389 . S
C2216 C2217 1.524 . S
C2216 C2230 1.377 . S
C2217 C2216 1.524 . S
C2217 C2218 1.397 . S
C2217 C2222 1.363 . S
C2218 H2195 0.950 . S
C2218 C2217 1.397 . S
C2218 C2219 1.334 . S
C2219 H2196 0.950 . S
C2219 C2218 1.334 . S
C2219 C2220 1.287 . S
C2220 C2219 1.287 . S
C2220 C2221 1.524 . S
C2220 H2239 0.913 . S
C2221 H2197 0.950 . S
C2221 C2220 1.524 . S
C2221 C2222 1.415 . S
C2222 H2198 0.950 . S
C2222 C2217 1.363 . S
C2222 C2221 1.415 . S
C2223 H2199 0.951 . S
C2223 C2224 1.366 . S
C2223 C2225 1.388 . S
C2224 C2223 1.366 . S
C2224 C2228 1.385 . S
C2225 H2200 0.951 . S
C2225 C2223 1.388 . S
C2225 C2226 1.366 . S
C2226 C2225 1.366 . S
C2226 C2227 1.414 . S
C2226 C2229 1.499 . S
C2227 H2201 0.950 . S
C2227 C2226 1.414 . S
C2227 C2228 1.374 . S
C2228 H2202 0.950 . S
C2228 C2224 1.385 . S
C2228 C2227 1.374 . S
C2229 C2226 1.499 . S
C2229 C2230 1.373 . S
C2229 C2231 1.389 . S
C2230 H2203 0.950 . S
C2230 C2216 1.377 . S
C2230 C2229 1.373 . S
C2231 C2215 1.377 . S
C2231 C2229 1.389 . S
C2231 C2232 1.524 . S
C2232 C2231 1.524 . S
C2232 C2233 1.397 . S
C2232 C2237 1.363 . S
C2233 H2204 0.950 . S
C2233 C2232 1.397 . S
C2233 C2234 1.334 . S
C2234 H2205 0.950 . S
C2234 C2233 1.334 . S
C2234 C2235 1.287 . S
C2235 C2234 1.287 . S
C2235 C2236 1.524 . S
C2235 H2238 0.999 . S
C2236 H2206 0.950 . S
C2236 C2235 1.524 . S
C2236 C2237 1.415 . S
C2237 H2207 0.950 . S
C2237 C2232 1.363 . S
C2237 C2236 1.415 . S
H2238 C2235 0.999 . S
H2239 C2220 0.913 . S
H2240 C2258 0.951 . S
H2241 C2260 0.951 . S
H2242 C2262 0.950 . S
H2243 C2263 0.950 . S
H2244 C2265 0.950 . S
H2245 C2268 0.950 . S
H2246 C2269 0.950 . S
H2247 C2271 0.950 . S
H2248 C2272 0.950 . S
H2249 C2273 0.951 . S
H2250 C2275 0.951 . S
H2251 C2277 0.950 . S
H2252 C2278 0.950 . S
H2253 C2280 0.950 . S
H2254 C2283 0.950 . S
H2255 C2284 0.950 . S
H2256 C2286 0.950 . S
H2257 C2287 0.950 . S
C2258 H2240 0.951 . S
C2258 C2259 1.366 . S
C2258 C2260 1.388 . S
C2259 C2258 1.366 . S
C2259 C2263 1.385 . S
C2260 H2241 0.951 . S
C2260 C2258 1.388 . S
C2260 C2261 1.366 . S
C2261 C2260 1.366 . S
C2261 C2262 1.414 . S
C2261 C2264 1.499 . S
C2262 H2242 0.950 . S
C2262 C2261 1.414 . S
C2262 C2263 1.374 . S
C2263 H2243 0.950 . S
C2263 C2259 1.385 . S
C2263 C2262 1.374 . S
C2264 C2261 1.499 . S
C2264 C2265 1.373 . S
C2264 C2266 1.389 . S
C2265 H2244 0.950 . S
C2265 C2264 1.373 . S
C2265 C2281 1.377 . S
C2266 C2264 1.389 . S
C2266 C2267 1.524 . S
C2266 C2280 1.377 . S
C2267 C2266 1.524 . S
C2267 C2268 1.397 . S
C2267 C2272 1.363 . S
C2268 H2245 0.950 . S
C2268 C2267 1.397 . S
C2268 C2269 1.334 . S
C2269 H2246 0.950 . S
C2269 C2268 1.334 . S
C2269 C2270 1.287 . S
C2270 C2269 1.287 . S
C2270 C2271 1.524 . S
C2270 H2289 0.913 . S
C2271 H2247 0.950 . S
C2271 C2270 1.524 . S
C2271 C2272 1.415 . S
C2272 H2248 0.950 . S
C2272 C2267 1.363 . S
C2272 C2271 1.415 . S
C2273 H2249 0.951 . S
C2273 C2274 1.366 . S
C2273 C2275 1.388 . S
C2274 C2273 1.366 . S
C2274 C2278 1.385 . S
C2275 H2250 0.951 . S
C2275 C2273 1.388 . S
C2275 C2276 1.366 . S
C2276 C2275 1.366 . S
C2276 C2277 1.414 . S
C2276 C2279 1.499 . S
C2277 H2251 0.950 . S
C2277 C2276 1.414 . S
C2277 C2278 1.374 . S
C2278 H2252 0.950 . S
C2278 C2274 1.385 . S
C2278 C2277 1.374 . S
C2279 C2276 1.499 . S
C2279 C2280 1.373 . S
C2279 C2281 1.389 . S
C2280 H2253 0.950 . S
C2280 C2266 1.377 . S
C2280 C2279 1.373 . S
C2281 C2265 1.377 . S
C2281 C2279 1.389 . S
C2281 C2282 1.524 . S
C2282 C2281 1.524 . S
C2282 C2283 1.397 . S
C2282 C2287 1.363 . S
C2283 H2254 0.950 . S
C2283 C2282 1.397 . S
C2283 C2284 1.334 . S
C2284 H2255 0.950 . S
C2284 C2283 1.334 . S
C2284 C2285 1.287 . S
C2285 C2284 1.287 . S
C2285 C2286 1.524 . S
C2285 H2288 0.999 . S
C2286 H2256 0.950 . S
C2286 C2285 1.524 . S
C2286 C2287 1.415 . S
C2287 H2257 0.950 . S
C2287 C2282 1.363 . S
C2287 C2286 1.415 . S
H2288 C2285 0.999 . S
H2289 C2270 0.913 . S
H2290 C2308 0.951 . S
H2291 C2310 0.951 . S
H2292 C2312 0.950 . S
H2293 C2313 0.950 . S
H2294 C2315 0.950 . S
H2295 C2318 0.950 . S
H2296 C2319 0.950 . S
H2297 C2321 0.950 . S
H2298 C2322 0.950 . S
H2299 C2323 0.951 . S
H2300 C2325 0.951 . S
H2301 C2327 0.950 . S
H2302 C2328 0.950 . S
H2303 C2330 0.950 . S
H2304 C2333 0.950 . S
H2305 C2334 0.950 . S
H2306 C2336 0.950 . S
H2307 C2337 0.950 . S
C2308 H2290 0.951 . S
C2308 C2309 1.366 . S
C2308 C2310 1.388 . S
C2309 C2308 1.366 . S
C2309 C2313 1.385 . S
C2310 H2291 0.951 . S
C2310 C2308 1.388 . S
C2310 C2311 1.366 . S
C2311 C2310 1.366 . S
C2311 C2312 1.414 . S
C2311 C2314 1.499 . S
C2312 H2292 0.950 . S
C2312 C2311 1.414 . S
C2312 C2313 1.374 . S
C2313 H2293 0.950 . S
C2313 C2309 1.385 . S
C2313 C2312 1.374 . S
C2314 C2311 1.499 . S
C2314 C2315 1.373 . S
C2314 C2316 1.389 . S
C2315 H2294 0.950 . S
C2315 C2314 1.373 . S
C2315 C2331 1.377 . S
C2316 C2314 1.389 . S
C2316 C2317 1.524 . S
C2316 C2330 1.377 . S
C2317 C2316 1.524 . S
C2317 C2318 1.397 . S
C2317 C2322 1.363 . S
C2318 H2295 0.950 . S
C2318 C2317 1.397 . S
C2318 C2319 1.334 . S
C2319 H2296 0.950 . S
C2319 C2318 1.334 . S
C2319 C2320 1.287 . S
C2320 C2319 1.287 . S
C2320 C2321 1.524 . S
C2320 H2339 0.913 . S
C2321 H2297 0.950 . S
C2321 C2320 1.524 . S
C2321 C2322 1.415 . S
C2322 H2298 0.950 . S
C2322 C2317 1.363 . S
C2322 C2321 1.415 . S
C2323 H2299 0.951 . S
C2323 C2324 1.366 . S
C2323 C2325 1.388 . S
C2324 C2323 1.366 . S
C2324 C2328 1.385 . S
C2325 H2300 0.951 . S
C2325 C2323 1.388 . S
C2325 C2326 1.366 . S
C2326 C2325 1.366 . S
C2326 C2327 1.414 . S
C2326 C2329 1.499 . S
C2327 H2301 0.950 . S
C2327 C2326 1.414 . S
C2327 C2328 1.374 . S
C2328 H2302 0.950 . S
C2328 C2324 1.385 . S
C2328 C2327 1.374 . S
C2329 C2326 1.499 . S
C2329 C2330 1.373 . S
C2329 C2331 1.389 . S
C2330 H2303 0.950 . S
C2330 C2316 1.377 . S
C2330 C2329 1.373 . S
C2331 C2315 1.377 . S
C2331 C2329 1.389 . S
C2331 C2332 1.524 . S
C2332 C2331 1.524 . S
C2332 C2333 1.397 . S
C2332 C2337 1.363 . S
C2333 H2304 0.950 . S
C2333 C2332 1.397 . S
C2333 C2334 1.334 . S
C2334 H2305 0.950 . S
C2334 C2333 1.334 . S
C2334 C2335 1.287 . S
C2335 C2334 1.287 . S
C2335 C2336 1.524 . S
C2335 H2338 0.999 . S
C2336 H2306 0.950 . S
C2336 C2335 1.524 . S
C2336 C2337 1.415 . S
C2337 H2307 0.950 . S
C2337 C2332 1.363 . S
C2337 C2336 1.415 . S
H2338 C2335 0.999 . S
H2339 C2320 0.913 . S
H2340 C2358 0.951 . S
H2341 C2360 0.951 . S
H2342 C2362 0.950 . S
H2343 C2363 0.950 . S
H2344 C2365 0.950 . S
H2345 C2368 0.950 . S
H2346 C2369 0.950 . S
H2347 C2371 0.950 . S
H2348 C2372 0.950 . S
H2349 C2373 0.951 . S
H2350 C2375 0.951 . S
H2351 C2377 0.950 . S
H2352 C2378 0.950 . S
H2353 C2380 0.950 . S
H2354 C2383 0.950 . S
H2355 C2384 0.950 . S
H2356 C2386 0.950 . S
H2357 C2387 0.950 . S
C2358 H2340 0.951 . S
C2358 C2359 1.366 . S
C2358 C2360 1.388 . S
C2359 C2358 1.366 . S
C2359 C2363 1.385 . S
C2360 H2341 0.951 . S
C2360 C2358 1.388 . S
C2360 C2361 1.366 . S
C2361 C2360 1.366 . S
C2361 C2362 1.414 . S
C2361 C2364 1.499 . S
C2362 H2342 0.950 . S
C2362 C2361 1.414 . S
C2362 C2363 1.374 . S
C2363 H2343 0.950 . S
C2363 C2359 1.385 . S
C2363 C2362 1.374 . S
C2364 C2361 1.499 . S
C2364 C2365 1.373 . S
C2364 C2366 1.389 1_565 S
C2365 H2344 0.950 . S
C2365 C2364 1.373 . S
C2365 C2381 1.377 1_565 S
C2366 C2364 1.389 1_545 S
C2366 C2367 1.524 . S
C2366 C2380 1.377 . S
C2367 C2366 1.524 . S
C2367 C2368 1.397 1_545 S
C2367 C2372 1.363 . S
C2368 H2345 0.950 . S
C2368 C2367 1.397 1_565 S
C2368 C2369 1.334 . S
C2369 H2346 0.950 . S
C2369 C2368 1.334 . S
C2369 C2370 1.287 . S
C2370 C2369 1.287 . S
C2370 C2371 1.524 1_565 S
C2370 H2389 0.913 . S
C2371 H2347 0.950 . S
C2371 C2370 1.524 1_545 S
C2371 C2372 1.415 . S
C2372 H2348 0.950 . S
C2372 C2367 1.363 . S
C2372 C2371 1.415 . S
C2373 H2349 0.951 . S
C2373 C2374 1.366 . S
C2373 C2375 1.388 . S
C2374 C2373 1.366 . S
C2374 C2378 1.385 . S
C2375 H2350 0.951 . S
C2375 C2373 1.388 . S
C2375 C2376 1.366 . S
C2376 C2375 1.366 . S
C2376 C2377 1.414 . S
C2376 C2379 1.499 . S
C2377 H2351 0.950 . S
C2377 C2376 1.414 . S
C2377 C2378 1.374 . S
C2378 H2352 0.950 . S
C2378 C2374 1.385 . S
C2378 C2377 1.374 . S
C2379 C2376 1.499 . S
C2379 C2380 1.373 . S
C2379 C2381 1.389 . S
C2380 H2353 0.950 . S
C2380 C2366 1.377 . S
C2380 C2379 1.373 . S
C2381 C2365 1.377 1_545 S
C2381 C2379 1.389 . S
C2381 C2382 1.524 . S
C2382 C2381 1.524 . S
C2382 C2383 1.397 . S
C2382 C2387 1.363 1_545 S
C2383 H2354 0.950 . S
C2383 C2382 1.397 . S
C2383 C2384 1.334 . S
C2384 H2355 0.950 . S
C2384 C2383 1.334 . S
C2384 C2385 1.287 . S
C2385 C2384 1.287 . S
C2385 C2386 1.524 1_545 S
C2385 H2388 0.999 . S
C2386 H2356 0.950 . S
C2386 C2385 1.524 1_565 S
C2386 C2387 1.415 . S
C2387 H2357 0.950 . S
C2387 C2382 1.363 1_565 S
C2387 C2386 1.415 . S
H2388 C2385 0.999 . S
H2389 C2370 0.913 . S
H2390 C2408 0.951 . S
H2391 C2410 0.951 . S
H2392 C2412 0.950 . S
H2393 C2413 0.950 . S
H2394 C2415 0.965 . S
H2395 C2418 0.950 . S
H2396 C2419 0.950 . S
H2397 C2421 0.950 . S
H2398 C2422 0.950 . S
H2399 C2423 0.951 . S
H2400 C2425 0.951 . S
H2401 C2427 0.950 . S
H2402 C2428 0.950 . S
H2403 C2430 0.950 . S
H2404 C2433 0.950 . S
H2405 C2434 0.950 . S
H2406 C2436 0.950 . S
H2407 C2437 0.950 . S
C2408 H2390 0.951 . S
C2408 C2409 1.366 . S
C2408 C2410 1.388 . S
C2409 C2408 1.366 . S
C2409 C2413 1.385 . S
C2410 H2391 0.951 . S
C2410 C2408 1.388 . S
C2410 C2411 1.366 . S
C2411 C2410 1.366 . S
C2411 C2412 1.414 . S
C2411 C2414 1.499 . S
C2412 H2392 0.950 . S
C2412 C2411 1.414 . S
C2412 C2413 1.374 . S
C2413 H2393 0.950 . S
C2413 C2409 1.385 . S
C2413 C2412 1.374 . S
C2414 C2411 1.499 . S
C2414 C2415 1.373 1_455 S
C2414 C2416 1.389 . S
C2415 H2394 0.965 . S
C2415 C2414 1.373 1_655 S
C2415 C2431 1.377 . S
C2416 C2414 1.389 . S
C2416 C2417 1.524 . S
C2416 C2430 1.377 1_455 S
C2417 C2416 1.524 . S
C2417 C2418 1.397 . S
C2417 C2422 1.363 . S
C2418 H2395 0.950 . S
C2418 C2417 1.397 . S
C2418 C2419 1.334 . S
C2419 H2396 0.950 . S
C2419 C2418 1.334 . S
C2419 C2420 1.287 . S
C2420 C2419 1.287 . S
C2420 C2421 1.524 . S
C2420 H2439 0.913 . S
C2421 H2397 0.950 . S
C2421 C2420 1.524 . S
C2421 C2422 1.415 . S
C2422 H2398 0.950 . S
C2422 C2417 1.363 . S
C2422 C2421 1.415 . S
C2423 H2399 0.951 . S
C2423 C2424 1.366 . S
C2423 C2425 1.388 . S
C2424 C2423 1.366 . S
C2424 C2428 1.385 . S
C2425 H2400 0.951 . S
C2425 C2423 1.388 . S
C2425 C2426 1.366 . S
C2426 C2425 1.366 . S
C2426 C2427 1.414 . S
C2426 C2429 1.499 . S
C2427 H2401 0.950 . S
C2427 C2426 1.414 . S
C2427 C2428 1.374 . S
C2428 H2402 0.950 . S
C2428 C2424 1.385 . S
C2428 C2427 1.374 . S
C2429 C2426 1.499 . S
C2429 C2430 1.373 . S
C2429 C2431 1.389 . S
C2430 H2403 0.950 . S
C2430 C2416 1.377 1_655 S
C2430 C2429 1.373 . S
C2431 C2415 1.377 . S
C2431 C2429 1.389 . S
C2431 C2432 1.524 . S
C2432 C2431 1.524 . S
C2432 C2433 1.397 . S
C2432 C2437 1.363 . S
C2433 H2404 0.950 . S
C2433 C2432 1.397 . S
C2433 C2434 1.334 . S
C2434 H2405 0.950 . S
C2434 C2433 1.334 . S
C2434 C2435 1.287 . S
C2435 C2434 1.287 . S
C2435 C2436 1.524 . S
C2435 H2438 0.999 . S
C2436 H2406 0.950 . S
C2436 C2435 1.524 . S
C2436 C2437 1.415 . S
C2437 H2407 0.950 . S
C2437 C2432 1.363 . S
C2437 C2436 1.415 . S
H2438 C2435 0.999 . S
H2439 C2420 0.913 . S
H2440 C2458 0.951 . S
H2441 C2460 0.951 . S
H2442 C2462 0.950 . S
H2443 C2463 0.950 . S
H2444 C2465 0.950 . S
H2445 C2468 0.950 . S
H2446 C2469 0.950 . S
H2447 C2471 0.950 . S
H2448 C2472 0.950 . S
H2449 C2473 0.951 . S
H2450 C2475 0.951 . S
H2451 C2477 0.950 . S
H2452 C2478 0.950 . S
H2453 C2480 0.950 . S
H2454 C2483 0.950 . S
H2455 C2484 0.950 . S
H2456 C2486 0.950 . S
H2457 C2487 0.950 . S
C2458 H2440 0.951 . S
C2458 C2459 1.366 . S
C2458 C2460 1.388 . S
C2459 C2458 1.366 . S
C2459 C2463 1.385 . S
C2460 H2441 0.951 . S
C2460 C2458 1.388 . S
C2460 C2461 1.366 . S
C2461 C2460 1.366 . S
C2461 C2462 1.414 . S
C2461 C2464 1.499 . S
C2462 H2442 0.950 . S
C2462 C2461 1.414 . S
C2462 C2463 1.374 . S
C2463 H2443 0.950 . S
C2463 C2459 1.385 . S
C2463 C2462 1.374 . S
C2464 C2461 1.499 . S
C2464 C2465 1.373 . S
C2464 C2466 1.389 . S
C2465 H2444 0.950 . S
C2465 C2464 1.373 . S
C2465 C2481 1.377 . S
C2466 C2464 1.389 . S
C2466 C2467 1.524 . S
C2466 C2480 1.377 . S
C2467 C2466 1.524 . S
C2467 C2468 1.397 . S
C2467 C2472 1.363 . S
C2468 H2445 0.950 . S
C2468 C2467 1.397 . S
C2468 C2469 1.334 . S
C2469 H2446 0.950 . S
C2469 C2468 1.334 . S
C2469 C2470 1.287 . S
C2470 C2469 1.287 . S
C2470 C2471 1.524 . S
C2470 H2489 0.913 . S
C2471 H2447 0.950 . S
C2471 C2470 1.524 . S
C2471 C2472 1.415 . S
C2472 H2448 0.950 . S
C2472 C2467 1.363 . S
C2472 C2471 1.415 . S
C2473 H2449 0.951 . S
C2473 C2474 1.366 . S
C2473 C2475 1.388 . S
C2474 C2473 1.366 . S
C2474 C2478 1.385 . S
C2475 H2450 0.951 . S
C2475 C2473 1.388 . S
C2475 C2476 1.366 . S
C2476 C2475 1.366 . S
C2476 C2477 1.414 . S
C2476 C2479 1.499 . S
C2477 H2451 0.950 . S
C2477 C2476 1.414 . S
C2477 C2478 1.374 . S
C2478 H2452 0.950 . S
C2478 C2474 1.385 . S
C2478 C2477 1.374 . S
C2479 C2476 1.499 . S
C2479 C2480 1.373 . S
C2479 C2481 1.389 . S
C2480 H2453 0.950 . S
C2480 C2466 1.377 . S
C2480 C2479 1.373 . S
C2481 C2465 1.377 . S
C2481 C2479 1.389 . S
C2481 C2482 1.524 . S
C2482 C2481 1.524 . S
C2482 C2483 1.397 . S
C2482 C2487 1.363 . S
C2483 H2454 0.950 . S
C2483 C2482 1.397 . S
C2483 C2484 1.334 . S
C2484 H2455 0.950 . S
C2484 C2483 1.334 . S
C2484 C2485 1.287 . S
C2485 C2484 1.287 . S
C2485 C2486 1.524 . S
C2485 H2488 0.999 . S
C2486 H2456 0.950 . S
C2486 C2485 1.524 . S
C2486 C2487 1.415 . S
C2487 H2457 0.950 . S
C2487 C2482 1.363 . S
C2487 C2486 1.415 . S
H2488 C2485 0.999 . S
H2489 C2470 0.913 . S
H2490 C2508 0.951 . S
H2491 C2510 0.951 1_655 S
H2492 C2512 0.950 1_655 S
H2493 C2513 0.950 . S
H2494 C2515 0.950 . S
H2495 C2518 0.950 . S
H2496 C2519 0.950 . S
H2497 C2521 0.950 . S
H2498 C2522 0.950 . S
H2499 C2523 0.951 . S
H2500 C2525 0.951 . S
H2501 C2527 0.950 . S
H2502 C2528 0.950 . S
H2503 C2530 0.950 . S
H2504 C2533 0.950 . S
H2505 C2534 0.950 . S
H2506 C2536 0.950 . S
H2507 C2537 0.950 . S
C2508 H2490 0.951 . S
C2508 C2509 1.366 . S
C2508 C2510 1.388 . S
C2509 C2508 1.366 . S
C2509 C2513 1.385 . S
C2510 H2491 0.951 1_455 S
C2510 C2508 1.388 . S
C2510 C2511 1.366 1_455 S
C2511 C2510 1.366 1_655 S
C2511 C2512 1.414 1_655 S
C2511 C2514 1.499 . S
C2512 H2492 0.950 1_455 S
C2512 C2511 1.414 1_455 S
C2512 C2513 1.374 . S
C2513 H2493 0.950 . S
C2513 C2509 1.385 . S
C2513 C2512 1.374 . S
C2514 C2511 1.499 . S
C2514 C2515 1.373 . S
C2514 C2516 1.389 . S
C2515 H2494 0.950 . S
C2515 C2514 1.373 . S
C2515 C2531 1.377 . S
C2516 C2514 1.389 . S
C2516 C2517 1.524 . S
C2516 C2530 1.377 . S
C2517 C2516 1.524 . S
C2517 C2518 1.397 . S
C2517 C2522 1.363 . S
C2518 H2495 0.950 . S
C2518 C2517 1.397 . S
C2518 C2519 1.334 1_655 S
C2519 H2496 0.950 . S
C2519 C2518 1.334 1_455 S
C2519 C2520 1.287 . S
C2520 C2519 1.287 . S
C2520 C2521 1.524 1_455 S
C2520 H2539 0.913 . S
C2521 H2497 0.950 . S
C2521 C2520 1.524 1_655 S
C2521 C2522 1.415 . S
C2522 H2498 0.950 . S
C2522 C2517 1.363 . S
C2522 C2521 1.415 . S
C2523 H2499 0.951 . S
C2523 C2524 1.366 . S
C2523 C2525 1.388 . S
C2524 C2523 1.366 . S
C2524 C2528 1.385 . S
C2525 H2500 0.951 . S
C2525 C2523 1.388 . S
C2525 C2526 1.366 . S
C2526 C2525 1.366 . S
C2526 C2527 1.414 . S
C2526 C2529 1.499 . S
C2527 H2501 0.950 . S
C2527 C2526 1.414 . S
C2527 C2528 1.374 . S
C2528 H2502 0.950 . S
C2528 C2524 1.385 . S
C2528 C2527 1.374 . S
C2529 C2526 1.499 . S
C2529 C2530 1.373 . S
C2529 C2531 1.389 . S
C2530 H2503 0.950 . S
C2530 C2516 1.377 . S
C2530 C2529 1.373 . S
C2531 C2515 1.377 . S
C2531 C2529 1.389 . S
C2531 C2532 1.524 . S
C2532 C2531 1.524 . S
C2532 C2533 1.397 . S
C2532 C2537 1.363 . S
C2533 H2504 0.950 . S
C2533 C2532 1.397 . S
C2533 C2534 1.334 . S
C2534 H2505 0.950 . S
C2534 C2533 1.334 . S
C2534 C2535 1.287 . S
C2535 C2534 1.287 . S
C2535 C2536 1.524 . S
C2535 H2538 0.999 . S
C2536 H2506 0.950 . S
C2536 C2535 1.524 . S
C2536 C2537 1.415 . S
C2537 H2507 0.950 . S
C2537 C2532 1.363 . S
C2537 C2536 1.415 . S
H2538 C2535 0.999 . S
H2539 C2520 0.913 . S
H2540 C2558 0.951 . S
H2541 C2560 0.951 . S
H2542 C2562 0.950 . S
H2543 C2563 0.950 . S
H2544 C2565 0.950 . S
H2545 C2568 0.950 . S
H2546 C2569 0.950 . S
H2547 C2571 0.950 . S
H2548 C2572 0.950 . S
H2549 C2573 0.951 . S
H2550 C2575 0.951 . S
H2551 C2577 0.950 . S
H2552 C2578 0.950 . S
H2553 C2580 0.950 . S
H2554 C2583 0.950 . S
H2555 C2584 0.950 . S
H2556 C2586 0.950 . S
H2557 C2587 0.950 . S
C2558 H2540 0.951 . S
C2558 C2559 1.366 . S
C2558 C2560 1.388 . S
C2559 C2558 1.366 . S
C2559 C2563 1.385 . S
C2560 H2541 0.951 . S
C2560 C2558 1.388 . S
C2560 C2561 1.366 . S
C2561 C2560 1.366 . S
C2561 C2562 1.414 . S
C2561 C2564 1.499 . S
C2562 H2542 0.950 . S
C2562 C2561 1.414 . S
C2562 C2563 1.374 . S
C2563 H2543 0.950 . S
C2563 C2559 1.385 . S
C2563 C2562 1.374 . S
C2564 C2561 1.499 . S
C2564 C2565 1.373 . S
C2564 C2566 1.389 . S
C2565 H2544 0.950 . S
C2565 C2564 1.373 . S
C2565 C2581 1.377 . S
C2566 C2564 1.389 . S
C2566 C2567 1.524 . S
C2566 C2580 1.377 . S
C2567 C2566 1.524 . S
C2567 C2568 1.397 . S
C2567 C2572 1.363 . S
C2568 H2545 0.950 . S
C2568 C2567 1.397 . S
C2568 C2569 1.334 . S
C2569 H2546 0.950 . S
C2569 C2568 1.334 . S
C2569 C2570 1.287 . S
C2570 C2569 1.287 . S
C2570 C2571 1.524 . S
C2570 H2589 0.913 . S
C2571 H2547 0.950 . S
C2571 C2570 1.524 . S
C2571 C2572 1.415 . S
C2572 H2548 0.950 . S
C2572 C2567 1.363 . S
C2572 C2571 1.415 . S
C2573 H2549 0.951 . S
C2573 C2574 1.366 . S
C2573 C2575 1.388 . S
C2574 C2573 1.366 . S
C2574 C2578 1.385 . S
C2575 H2550 0.951 . S
C2575 C2573 1.388 . S
C2575 C2576 1.366 . S
C2576 C2575 1.366 . S
C2576 C2577 1.414 . S
C2576 C2579 1.499 . S
C2577 H2551 0.950 . S
C2577 C2576 1.414 . S
C2577 C2578 1.374 . S
C2578 H2552 0.950 . S
C2578 C2574 1.385 . S
C2578 C2577 1.374 . S
C2579 C2576 1.499 . S
C2579 C2580 1.373 . S
C2579 C2581 1.389 . S
C2580 H2553 0.950 . S
C2580 C2566 1.377 . S
C2580 C2579 1.373 . S
C2581 C2565 1.377 . S
C2581 C2579 1.389 . S
C2581 C2582 1.524 . S
C2582 C2581 1.524 . S
C2582 C2583 1.397 . S
C2582 C2587 1.363 . S
C2583 H2554 0.950 . S
C2583 C2582 1.397 . S
C2583 C2584 1.334 . S
C2584 H2555 0.950 . S
C2584 C2583 1.334 . S
C2584 C2585 1.287 . S
C2585 C2584 1.287 . S
C2585 C2586 1.524 . S
C2585 H2588 0.999 . S
C2586 H2556 0.950 . S
C2586 C2585 1.524 . S
C2586 C2587 1.415 . S
C2587 H2557 0.950 . S
C2587 C2582 1.363 . S
C2587 C2586 1.415 . S
H2588 C2585 0.999 . S
H2589 C2570 0.913 . S
H2590 C2608 0.951 . S
H2591 C2610 0.951 . S
H2592 C2612 0.950 . S
H2593 C2613 0.950 . S
H2594 C2615 0.950 . S
H2595 C2618 0.950 . S
H2596 C2619 0.950 1_565 S
H2597 C2621 0.950 . S
H2598 C2622 0.950 . S
H2599 C2623 0.951 . S
H2600 C2625 0.951 . S
H2601 C2627 0.950 . S
H2602 C2628 0.950 . S
H2603 C2630 0.950 . S
H2604 C2633 0.950 . S
H2605 C2634 0.950 . S
H2606 C2636 0.950 . S
H2607 C2637 0.950 . S
C2608 H2590 0.951 . S
C2608 C2609 1.366 . S
C2608 C2610 1.388 . S
C2609 C2608 1.366 . S
C2609 C2613 1.385 . S
C2610 H2591 0.951 . S
C2610 C2608 1.388 . S
C2610 C2611 1.366 1_565 S
C2611 C2610 1.366 1_545 S
C2611 C2612 1.414 . S
C2611 C2614 1.499 . S
C2612 H2592 0.950 . S
C2612 C2611 1.414 . S
C2612 C2613 1.374 1_545 S
C2613 H2593 0.950 . S
C2613 C2609 1.385 . S
C2613 C2612 1.374 1_565 S
C2614 C2611 1.499 . S
C2614 C2615 1.373 . S
C2614 C2616 1.389 . S
C2615 H2594 0.950 . S
C2615 C2614 1.373 . S
C2615 C2631 1.377 . S
C2616 C2614 1.389 . S
C2616 C2617 1.524 . S
C2616 C2630 1.377 . S
C2617 C2616 1.524 . S
C2617 C2618 1.397 . S
C2617 C2622 1.363 . S
C2618 H2595 0.950 . S
C2618 C2617 1.397 . S
C2618 C2619 1.334 . S
C2619 H2596 0.950 1_545 S
C2619 C2618 1.334 . S
C2619 C2620 1.287 . S
C2620 C2619 1.287 . S
C2620 C2621 1.524 . S
C2620 H2639 0.913 1_545 S
C2621 H2597 0.950 . S
C2621 C2620 1.524 . S
C2621 C2622 1.415 . S
C2622 H2598 0.950 . S
C2622 C2617 1.363 . S
C2622 C2621 1.415 . S
C2623 H2599 0.951 . S
C2623 C2624 1.366 . S
C2623 C2625 1.388 . S
C2624 C2623 1.366 . S
C2624 C2628 1.385 . S
C2625 H2600 0.951 . S
C2625 C2623 1.388 . S
C2625 C2626 1.366 . S
C2626 C2625 1.366 . S
C2626 C2627 1.414 . S
C2626 C2629 1.499 . S
C2627 H2601 0.950 . S
C2627 C2626 1.414 . S
C2627 C2628 1.374 . S
C2628 H2602 0.950 . S
C2628 C2624 1.385 . S
C2628 C2627 1.374 . S
C2629 C2626 1.499 . S
C2629 C2630 1.373 . S
C2629 C2631 1.389 . S
C2630 H2603 0.950 . S
C2630 C2616 1.377 . S
C2630 C2629 1.373 . S
C2631 C2615 1.377 . S
C2631 C2629 1.389 . S
C2631 C2632 1.524 . S
C2632 C2631 1.524 . S
C2632 C2633 1.397 . S
C2632 C2637 1.363 . S
C2633 H2604 0.950 . S
C2633 C2632 1.397 . S
C2633 C2634 1.334 . S
C2634 H2605 0.950 . S
C2634 C2633 1.334 . S
C2634 C2635 1.287 . S
C2635 C2634 1.287 . S
C2635 C2636 1.524 . S
C2635 H2638 0.999 . S
C2636 H2606 0.950 . S
C2636 C2635 1.524 . S
C2636 C2637 1.415 . S
C2637 H2607 0.950 . S
C2637 C2632 1.363 . S
C2637 C2636 1.415 . S
H2638 C2635 0.999 . S
H2639 C2620 0.913 1_565 S
H2640 C2658 0.951 . S
H2641 C2660 0.951 . S
H2642 C2662 0.950 . S
H2643 C2663 0.950 . S
H2644 C2665 0.950 . S
H2645 C2668 0.950 . S
H2646 C2669 0.950 . S
H2647 C2671 0.950 . S
H2648 C2672 0.950 . S
H2649 C2673 0.951 . S
H2650 C2675 0.951 . S
H2651 C2677 0.950 . S
H2652 C2678 0.950 . S
H2653 C2680 0.950 . S
H2654 C2683 0.950 . S
H2655 C2684 0.950 . S
H2656 C2686 0.950 . S
H2657 C2687 0.950 . S
C2658 H2640 0.951 . S
C2658 C2659 1.366 . S
C2658 C2660 1.388 . S
C2659 C2658 1.366 . S
C2659 C2663 1.385 . S
C2660 H2641 0.951 . S
C2660 C2658 1.388 . S
C2660 C2661 1.366 . S
C2661 C2660 1.366 . S
C2661 C2662 1.414 . S
C2661 C2664 1.499 . S
C2662 H2642 0.950 . S
C2662 C2661 1.414 . S
C2662 C2663 1.374 . S
C2663 H2643 0.950 . S
C2663 C2659 1.385 . S
C2663 C2662 1.374 . S
C2664 C2661 1.499 . S
C2664 C2665 1.373 . S
C2664 C2666 1.389 . S
C2665 H2644 0.950 . S
C2665 C2664 1.373 . S
C2665 C2681 1.377 . S
C2666 C2664 1.389 . S
C2666 C2667 1.524 . S
C2666 C2680 1.377 . S
C2667 C2666 1.524 . S
C2667 C2668 1.397 . S
C2667 C2672 1.363 . S
C2668 H2645 0.950 . S
C2668 C2667 1.397 . S
C2668 C2669 1.334 . S
C2669 H2646 0.950 . S
C2669 C2668 1.334 . S
C2669 C2670 1.287 . S
C2670 C2669 1.287 . S
C2670 C2671 1.524 . S
C2670 H2689 0.913 . S
C2671 H2647 0.950 . S
C2671 C2670 1.524 . S
C2671 C2672 1.415 . S
C2672 H2648 0.950 . S
C2672 C2667 1.363 . S
C2672 C2671 1.415 . S
C2673 H2649 0.951 . S
C2673 C2674 1.366 . S
C2673 C2675 1.388 . S
C2674 C2673 1.366 . S
C2674 C2678 1.385 . S
C2675 H2650 0.951 . S
C2675 C2673 1.388 . S
C2675 C2676 1.366 . S
C2676 C2675 1.366 . S
C2676 C2677 1.414 . S
C2676 C2679 1.499 . S
C2677 H2651 0.950 . S
C2677 C2676 1.414 . S
C2677 C2678 1.374 . S
C2678 H2652 0.950 . S
C2678 C2674 1.385 . S
C2678 C2677 1.374 . S
C2679 C2676 1.499 . S
C2679 C2680 1.373 . S
C2679 C2681 1.389 . S
C2680 H2653 0.950 . S
C2680 C2666 1.377 . S
C2680 C2679 1.373 . S
C2681 C2665 1.377 . S
C2681 C2679 1.389 . S
C2681 C2682 1.524 . S
C2682 C2681 1.524 . S
C2682 C2683 1.397 . S
C2682 C2687 1.363 . S
C2683 H2654 0.950 . S
C2683 C2682 1.397 . S
C2683 C2684 1.334 . S
C2684 H2655 0.950 . S
C2684 C2683 1.334 . S
C2684 C2685 1.287 . S
C2685 C2684 1.287 . S
C2685 C2686 1.524 . S
C2685 H2688 0.999 . S
C2686 H2656 0.950 . S
C2686 C2685 1.524 . S
C2686 C2687 1.415 . S
C2687 H2657 0.950 . S
C2687 C2682 1.363 . S
C2687 C2686 1.415 . S
H2688 C2685 0.999 . S
H2689 C2670 0.913 . S
H2690 C2708 0.951 . S
H2691 C2710 0.951 . S
H2692 C2712 0.950 . S
H2693 C2713 0.950 . S
H2694 C2715 0.950 . S
H2695 C2718 0.950 . S
H2696 C2719 0.950 . S
H2697 C2721 0.950 . S
H2698 C2722 0.950 . S
H2699 C2723 0.951 . S
H2700 C2725 0.951 . S
H2701 C2727 0.950 . S
H2702 C2728 0.950 . S
H2703 C2730 0.950 . S
H2704 C2733 0.950 . S
H2705 C2734 0.950 . S
H2706 C2736 0.950 . S
H2707 C2737 0.950 . S
C2708 H2690 0.951 . S
C2708 C2709 1.366 . S
C2708 C2710 1.388 . S
C2709 C2708 1.366 . S
C2709 C2713 1.385 . S
C2710 H2691 0.951 . S
C2710 C2708 1.388 . S
C2710 C2711 1.366 . S
C2711 C2710 1.366 . S
C2711 C2712 1.414 . S
C2711 C2714 1.499 . S
C2712 H2692 0.950 . S
C2712 C2711 1.414 . S
C2712 C2713 1.374 . S
C2713 H2693 0.950 . S
C2713 C2709 1.385 . S
C2713 C2712 1.374 . S
C2714 C2711 1.499 . S
C2714 C2715 1.373 . S
C2714 C2716 1.389 . S
C2715 H2694 0.950 . S
C2715 C2714 1.373 . S
C2715 C2731 1.377 . S
C2716 C2714 1.389 . S
C2716 C2717 1.524 . S
C2716 C2730 1.377 . S
C2717 C2716 1.524 . S
C2717 C2718 1.397 . S
C2717 C2722 1.363 . S
C2718 H2695 0.950 . S
C2718 C2717 1.397 . S
C2718 C2719 1.334 . S
C2719 H2696 0.950 . S
C2719 C2718 1.334 . S
C2719 C2720 1.287 . S
C2720 C2719 1.287 . S
C2720 C2721 1.524 . S
C2720 H2739 0.913 . S
C2721 H2697 0.950 . S
C2721 C2720 1.524 . S
C2721 C2722 1.415 . S
C2722 H2698 0.950 . S
C2722 C2717 1.363 . S
C2722 C2721 1.415 . S
C2723 H2699 0.951 . S
C2723 C2724 1.366 . S
C2723 C2725 1.388 . S
C2724 C2723 1.366 . S
C2724 C2728 1.385 . S
C2725 H2700 0.951 . S
C2725 C2723 1.388 . S
C2725 C2726 1.366 . S
C2726 C2725 1.366 . S
C2726 C2727 1.414 . S
C2726 C2729 1.499 . S
C2727 H2701 0.950 . S
C2727 C2726 1.414 . S
C2727 C2728 1.374 . S
C2728 H2702 0.950 . S
C2728 C2724 1.385 . S
C2728 C2727 1.374 . S
C2729 C2726 1.499 . S
C2729 C2730 1.373 . S
C2729 C2731 1.389 . S
C2730 H2703 0.950 . S
C2730 C2716 1.377 . S
C2730 C2729 1.373 . S
C2731 C2715 1.377 . S
C2731 C2729 1.389 . S
C2731 C2732 1.524 . S
C2732 C2731 1.524 . S
C2732 C2733 1.397 . S
C2732 C2737 1.363 . S
C2733 H2704 0.950 . S
C2733 C2732 1.397 . S
C2733 C2734 1.334 . S
C2734 H2705 0.950 . S
C2734 C2733 1.334 . S
C2734 C2735 1.287 . S
C2735 C2734 1.287 . S
C2735 C2736 1.524 . S
C2735 H2738 0.999 . S
C2736 H2706 0.950 . S
C2736 C2735 1.524 . S
C2736 C2737 1.415 . S
C2737 H2707 0.950 . S
C2737 C2732 1.363 . S
C2737 C2736 1.415 . S
H2738 C2735 0.999 . S
H2739 C2720 0.913 . S
H2740 C2758 0.951 . S
H2741 C2760 0.951 . S
H2742 C2762 0.950 . S
H2743 C2763 0.950 . S
H2744 C2765 0.950 . S
H2745 C2768 0.950 . S
H2746 C2769 0.950 . S
H2747 C2771 0.950 . S
H2748 C2772 0.950 . S
H2749 C2773 0.951 . S
H2750 C2775 0.951 . S
H2751 C2777 0.950 . S
H2752 C2778 0.950 . S
H2753 C2780 0.950 . S
H2754 C2783 0.950 . S
H2755 C2784 0.950 . S
H2756 C2786 0.950 . S
H2757 C2787 0.950 . S
C2758 H2740 0.951 . S
C2758 C2759 1.366 . S
C2758 C2760 1.388 . S
C2759 C2758 1.366 . S
C2759 C2763 1.385 . S
C2760 H2741 0.951 . S
C2760 C2758 1.388 . S
C2760 C2761 1.366 . S
C2761 C2760 1.366 . S
C2761 C2762 1.414 . S
C2761 C2764 1.499 . S
C2762 H2742 0.950 . S
C2762 C2761 1.414 . S
C2762 C2763 1.374 . S
C2763 H2743 0.950 . S
C2763 C2759 1.385 . S
C2763 C2762 1.374 . S
C2764 C2761 1.499 . S
C2764 C2765 1.373 . S
C2764 C2766 1.389 . S
C2765 H2744 0.950 . S
C2765 C2764 1.373 . S
C2765 C2781 1.377 . S
C2766 C2764 1.389 . S
C2766 C2767 1.524 . S
C2766 C2780 1.377 . S
C2767 C2766 1.524 . S
C2767 C2768 1.397 . S
C2767 C2772 1.363 . S
C2768 H2745 0.950 . S
C2768 C2767 1.397 . S
C2768 C2769 1.334 . S
C2769 H2746 0.950 . S
C2769 C2768 1.334 . S
C2769 C2770 1.287 . S
C2770 C2769 1.287 . S
C2770 C2771 1.524 . S
C2770 H2789 0.913 . S
C2771 H2747 0.950 . S
C2771 C2770 1.524 . S
C2771 C2772 1.415 . S
C2772 H2748 0.950 . S
C2772 C2767 1.363 . S
C2772 C2771 1.415 . S
C2773 H2749 0.951 . S
C2773 C2774 1.366 . S
C2773 C2775 1.388 . S
C2774 C2773 1.366 . S
C2774 C2778 1.385 . S
C2775 H2750 0.951 . S
C2775 C2773 1.388 . S
C2775 C2776 1.366 . S
C2776 C2775 1.366 . S
C2776 C2777 1.414 . S
C2776 C2779 1.499 . S
C2777 H2751 0.950 . S
C2777 C2776 1.414 . S
C2777 C2778 1.374 . S
C2778 H2752 0.950 . S
C2778 C2774 1.385 . S
C2778 C2777 1.374 . S
C2779 C2776 1.499 . S
C2779 C2780 1.373 . S
C2779 C2781 1.389 . S
C2780 H2753 0.950 . S
C2780 C2766 1.377 . S
C2780 C2779 1.373 . S
C2781 C2765 1.377 . S
C2781 C2779 1.389 . S
C2781 C2782 1.524 . S
C2782 C2781 1.524 . S
C2782 C2783 1.397 . S
C2782 C2787 1.363 . S
C2783 H2754 0.950 . S
C2783 C2782 1.397 . S
C2783 C2784 1.334 . S
C2784 H2755 0.950 . S
C2784 C2783 1.334 . S
C2784 C2785 1.287 . S
C2785 C2784 1.287 . S
C2785 C2786 1.524 . S
C2785 H2788 0.999 . S
C2786 H2756 0.950 . S
C2786 C2785 1.524 . S
C2786 C2787 1.415 . S
C2787 H2757 0.950 . S
C2787 C2782 1.363 . S
C2787 C2786 1.415 . S
H2788 C2785 0.999 . S
H2789 C2770 0.913 . S
H2790 C2808 0.951 . S
H2791 C2810 0.951 . S
H2792 C2812 0.950 . S
H2793 C2813 0.950 . S
H2794 C2815 0.950 . S
H2795 C2818 0.950 . S
H2796 C2819 0.950 . S
H2797 C2821 0.950 . S
H2798 C2822 0.950 . S
H2799 C2823 0.951 . S
H2800 C2825 0.951 . S
H2801 C2827 0.950 . S
H2802 C2828 0.950 . S
H2803 C2830 0.950 . S
H2804 C2833 0.950 . S
H2805 C2834 0.950 . S
H2806 C2836 0.950 . S
H2807 C2837 0.950 . S
C2808 H2790 0.951 . S
C2808 C2809 1.366 . S
C2808 C2810 1.388 . S
C2809 C2808 1.366 . S
C2809 C2813 1.385 . S
C2810 H2791 0.951 . S
C2810 C2808 1.388 . S
C2810 C2811 1.366 . S
C2811 C2810 1.366 . S
C2811 C2812 1.414 . S
C2811 C2814 1.499 . S
C2812 H2792 0.950 . S
C2812 C2811 1.414 . S
C2812 C2813 1.374 . S
C2813 H2793 0.950 . S
C2813 C2809 1.385 . S
C2813 C2812 1.374 . S
C2814 C2811 1.499 . S
C2814 C2815 1.373 . S
C2814 C2816 1.389 . S
C2815 H2794 0.950 . S
C2815 C2814 1.373 . S
C2815 C2831 1.377 . S
C2816 C2814 1.389 . S
C2816 C2817 1.524 . S
C2816 C2830 1.377 . S
C2817 C2816 1.524 . S
C2817 C2818 1.397 . S
C2817 C2822 1.363 . S
C2818 H2795 0.950 . S
C2818 C2817 1.397 . S
C2818 C2819 1.334 . S
C2819 H2796 0.950 . S
C2819 C2818 1.334 . S
C2819 C2820 1.287 . S
C2820 C2819 1.287 . S
C2820 C2821 1.524 . S
C2820 H2839 0.913 . S
C2821 H2797 0.950 . S
C2821 C2820 1.524 . S
C2821 C2822 1.415 . S
C2822 H2798 0.950 . S
C2822 C2817 1.363 . S
C2822 C2821 1.415 . S
C2823 H2799 0.951 . S
C2823 C2824 1.366 . S
C2823 C2825 1.388 . S
C2824 C2823 1.366 . S
C2824 C2828 1.385 . S
C2825 H2800 0.951 . S
C2825 C2823 1.388 . S
C2825 C2826 1.366 . S
C2826 C2825 1.366 . S
C2826 C2827 1.414 . S
C2826 C2829 1.499 . S
C2827 H2801 0.950 . S
C2827 C2826 1.414 . S
C2827 C2828 1.374 . S
C2828 H2802 0.950 . S
C2828 C2824 1.385 . S
C2828 C2827 1.374 . S
C2829 C2826 1.499 . S
C2829 C2830 1.373 . S
C2829 C2831 1.389 . S
C2830 H2803 0.950 . S
C2830 C2816 1.377 . S
C2830 C2829 1.373 . S
C2831 C2815 1.377 . S
C2831 C2829 1.389 . S
C2831 C2832 1.524 . S
C2832 C2831 1.524 . S
C2832 C2833 1.397 . S
C2832 C2837 1.363 . S
C2833 H2804 0.950 . S
C2833 C2832 1.397 . S
C2833 C2834 1.334 . S
C2834 H2805 0.950 . S
C2834 C2833 1.334 . S
C2834 C2835 1.287 . S
C2835 C2834 1.287 . S
C2835 C2836 1.524 . S
C2835 H2838 0.999 . S
C2836 H2806 0.950 . S
C2836 C2835 1.524 . S
C2836 C2837 1.415 . S
C2837 H2807 0.950 . S
C2837 C2832 1.363 . S
C2837 C2836 1.415 . S
H2838 C2835 0.999 . S
H2839 C2820 0.913 . S
H2840 C2858 0.951 . S
H2841 C2860 0.951 . S
H2842 C2862 0.950 . S
H2843 C2863 0.950 . S
H2844 C2865 0.950 . S
H2845 C2868 0.950 . S
H2846 C2869 0.950 . S
H2847 C2871 0.950 . S
H2848 C2872 0.950 . S
H2849 C2873 0.951 . S
H2850 C2875 0.951 . S
H2851 C2877 0.950 . S
H2852 C2878 0.950 . S
H2853 C2880 0.950 . S
H2854 C2883 0.950 . S
H2855 C2884 0.950 . S
H2856 C2886 0.950 . S
H2857 C2887 0.950 . S
C2858 H2840 0.951 . S
C2858 C2859 1.366 . S
C2858 C2860 1.388 . S
C2859 C2858 1.366 . S
C2859 C2863 1.385 . S
C2860 H2841 0.951 . S
C2860 C2858 1.388 . S
C2860 C2861 1.366 . S
C2861 C2860 1.366 . S
C2861 C2862 1.414 . S
C2861 C2864 1.499 . S
C2862 H2842 0.950 . S
C2862 C2861 1.414 . S
C2862 C2863 1.374 . S
C2863 H2843 0.950 . S
C2863 C2859 1.385 . S
C2863 C2862 1.374 . S
C2864 C2861 1.499 . S
C2864 C2865 1.373 . S
C2864 C2866 1.389 . S
C2865 H2844 0.950 . S
C2865 C2864 1.373 . S
C2865 C2881 1.377 . S
C2866 C2864 1.389 . S
C2866 C2867 1.524 . S
C2866 C2880 1.377 . S
C2867 C2866 1.524 . S
C2867 C2868 1.397 . S
C2867 C2872 1.363 . S
C2868 H2845 0.950 . S
C2868 C2867 1.397 . S
C2868 C2869 1.334 . S
C2869 H2846 0.950 . S
C2869 C2868 1.334 . S
C2869 C2870 1.287 . S
C2870 C2869 1.287 . S
C2870 C2871 1.524 . S
C2870 H2889 0.913 . S
C2871 H2847 0.950 . S
C2871 C2870 1.524 . S
C2871 C2872 1.415 . S
C2872 H2848 0.950 . S
C2872 C2867 1.363 . S
C2872 C2871 1.415 . S
C2873 H2849 0.951 . S
C2873 C2874 1.366 . S
C2873 C2875 1.388 . S
C2874 C2873 1.366 . S
C2874 C2878 1.385 . S
C2875 H2850 0.951 . S
C2875 C2873 1.388 . S
C2875 C2876 1.366 . S
C2876 C2875 1.366 . S
C2876 C2877 1.414 . S
C2876 C2879 1.499 . S
C2877 H2851 0.950 . S
C2877 C2876 1.414 . S
C2877 C2878 1.374 . S
C2878 H2852 0.950 . S
C2878 C2874 1.385 . S
C2878 C2877 1.374 . S
C2879 C2876 1.499 . S
C2879 C2880 1.373 . S
C2879 C2881 1.389 . S
C2880 H2853 0.950 . S
C2880 C2866 1.377 . S
C2880 C2879 1.373 . S
C2881 C2865 1.377 . S
C2881 C2879 1.389 . S
C2881 C2882 1.524 . S
C2882 C2881 1.524 . S
C2882 C2883 1.397 . S
C2882 C2887 1.363 . S
C2883 H2854 0.950 . S
C2883 C2882 1.397 . S
C2883 C2884 1.334 . S
C2884 H2855 0.950 . S
C2884 C2883 1.334 . S
C2884 C2885 1.287 . S
C2885 C2884 1.287 . S
C2885 C2886 1.524 . S
C2885 H2888 0.999 . S
C2886 H2856 0.950 . S
C2886 C2885 1.524 . S
C2886 C2887 1.415 . S
C2887 H2857 0.950 . S
C2887 C2882 1.363 . S
C2887 C2886 1.415 . S
H2888 C2885 0.999 . S
H2889 C2870 0.913 . S
H2890 C2908 0.951 . S
H2891 C2910 0.951 . S
H2892 C2912 0.950 . S
H2893 C2913 0.950 . S
H2894 C2915 0.950 . S
H2895 C2918 0.950 . S
H2896 C2919 0.950 . S
H2897 C2921 0.950 . S
H2898 C2922 0.950 . S
H2899 C2923 0.951 . S
H2900 C2925 0.951 . S
H2901 C2927 0.950 . S
H2902 C2928 0.950 . S
H2903 C2930 0.950 . S
H2904 C2933 0.950 . S
H2905 C2934 0.950 . S
H2906 C2936 0.950 . S
H2907 C2937 0.950 . S
C2908 H2890 0.951 . S
C2908 C2909 1.366 . S
C2908 C2910 1.388 . S
C2909 C2908 1.366 . S
C2909 C2913 1.385 . S
C2910 H2891 0.951 . S
C2910 C2908 1.388 . S
C2910 C2911 1.366 . S
C2911 C2910 1.366 . S
C2911 C2912 1.414 . S
C2911 C2914 1.499 . S
C2912 H2892 0.950 . S
C2912 C2911 1.414 . S
C2912 C2913 1.374 . S
C2913 H2893 0.950 . S
C2913 C2909 1.385 . S
C2913 C2912 1.374 . S
C2914 C2911 1.499 . S
C2914 C2915 1.373 . S
C2914 C2916 1.389 . S
C2915 H2894 0.950 . S
C2915 C2914 1.373 . S
C2915 C2931 1.377 . S
C2916 C2914 1.389 . S
C2916 C2917 1.524 . S
C2916 C2930 1.377 . S
C2917 C2916 1.524 . S
C2917 C2918 1.397 . S
C2917 C2922 1.363 . S
C2918 H2895 0.950 . S
C2918 C2917 1.397 . S
C2918 C2919 1.334 . S
C2919 H2896 0.950 . S
C2919 C2918 1.334 . S
C2919 C2920 1.287 . S
C2920 C2919 1.287 . S
C2920 C2921 1.524 . S
C2920 H2939 0.913 . S
C2921 H2897 0.950 . S
C2921 C2920 1.524 . S
C2921 C2922 1.415 . S
C2922 H2898 0.950 . S
C2922 C2917 1.363 . S
C2922 C2921 1.415 . S
C2923 H2899 0.951 . S
C2923 C2924 1.366 . S
C2923 C2925 1.388 . S
C2924 C2923 1.366 . S
C2924 C2928 1.385 . S
C2925 H2900 0.951 . S
C2925 C2923 1.388 . S
C2925 C2926 1.366 . S
C2926 C2925 1.366 . S
C2926 C2927 1.414 . S
C2926 C2929 1.499 . S
C2927 H2901 0.950 . S
C2927 C2926 1.414 . S
C2927 C2928 1.374 . S
C2928 H2902 0.950 . S
C2928 C2924 1.385 . S
C2928 C2927 1.374 . S
C2929 C2926 1.499 . S
C2929 C2930 1.373 . S
C2929 C2931 1.389 . S
C2930 H2903 0.950 . S
C2930 C2916 1.377 . S
C2930 C2929 1.373 . S
C2931 C2915 1.377 . S
C2931 C2929 1.389 . S
C2931 C2932 1.524 . S
C2932 C2931 1.524 . S
C2932 C2933 1.397 . S
C2932 C2937 1.363 . S
C2933 H2904 0.950 . S
C2933 C2932 1.397 . S
C2933 C2934 1.334 . S
C2934 H2905 0.950 . S
C2934 C2933 1.334 . S
C2934 C2935 1.287 . S
C2935 C2934 1.287 . S
C2935 C2936 1.524 . S
C2935 H2938 0.999 . S
C2936 H2906 0.950 . S
C2936 C2935 1.524 . S
C2936 C2937 1.415 . S
C2937 H2907 0.950 . S
C2937 C2932 1.363 . S
C2937 C2936 1.415 . S
H2938 C2935 0.999 . S
H2939 C2920 0.913 . S
H2940 C2958 0.951 . S
H2941 C2960 0.951 . S
H2942 C2962 0.950 . S
H2943 C2963 0.950 . S
H2944 C2965 0.950 . S
H2945 C2968 0.950 . S
H2946 C2969 0.950 . S
H2947 C2971 0.950 . S
H2948 C2972 0.950 . S
H2949 C2973 0.951 . S
H2950 C2975 0.951 . S
H2951 C2977 0.950 . S
H2952 C2978 0.950 . S
H2953 C2980 0.950 . S
H2954 C2983 0.950 . S
H2955 C2984 0.950 . S
H2956 C2986 0.950 . S
H2957 C2987 0.950 . S
C2958 H2940 0.951 . S
C2958 C2959 1.366 . S
C2958 C2960 1.388 . S
C2959 C2958 1.366 . S
C2959 C2963 1.385 . S
C2960 H2941 0.951 . S
C2960 C2958 1.388 . S
C2960 C2961 1.366 . S
C2961 C2960 1.366 . S
C2961 C2962 1.414 . S
C2961 C2964 1.499 . S
C2962 H2942 0.950 . S
C2962 C2961 1.414 . S
C2962 C2963 1.374 . S
C2963 H2943 0.950 . S
C2963 C2959 1.385 . S
C2963 C2962 1.374 . S
C2964 C2961 1.499 . S
C2964 C2965 1.373 . S
C2964 C2966 1.389 . S
C2965 H2944 0.950 . S
C2965 C2964 1.373 . S
C2965 C2981 1.377 . S
C2966 C2964 1.389 . S
C2966 C2967 1.524 . S
C2966 C2980 1.377 . S
C2967 C2966 1.524 . S
C2967 C2968 1.397 . S
C2967 C2972 1.363 . S
C2968 H2945 0.950 . S
C2968 C2967 1.397 . S
C2968 C2969 1.334 . S
C2969 H2946 0.950 . S
C2969 C2968 1.334 . S
C2969 C2970 1.287 . S
C2970 C2969 1.287 . S
C2970 C2971 1.524 . S
C2970 H2989 0.913 . S
C2971 H2947 0.950 . S
C2971 C2970 1.524 . S
C2971 C2972 1.415 . S
C2972 H2948 0.950 . S
C2972 C2967 1.363 . S
C2972 C2971 1.415 . S
C2973 H2949 0.951 . S
C2973 C2974 1.366 . S
C2973 C2975 1.388 . S
C2974 C2973 1.366 . S
C2974 C2978 1.385 . S
C2975 H2950 0.951 . S
C2975 C2973 1.388 . S
C2975 C2976 1.366 . S
C2976 C2975 1.366 . S
C2976 C2977 1.414 . S
C2976 C2979 1.499 . S
C2977 H2951 0.950 . S
C2977 C2976 1.414 . S
C2977 C2978 1.374 . S
C2978 H2952 0.950 . S
C2978 C2974 1.385 . S
C2978 C2977 1.374 . S
C2979 C2976 1.499 . S
C2979 C2980 1.373 . S
C2979 C2981 1.389 . S
C2980 H2953 0.950 . S
C2980 C2966 1.377 . S
C2980 C2979 1.373 . S
C2981 C2965 1.377 . S
C2981 C2979 1.389 . S
C2981 C2982 1.524 . S
C2982 C2981 1.524 . S
C2982 C2983 1.397 . S
C2982 C2987 1.363 . S
C2983 H2954 0.950 . S
C2983 C2982 1.397 . S
C2983 C2984 1.334 . S
C2984 H2955 0.950 . S
C2984 C2983 1.334 . S
C2984 C2985 1.287 . S
C2985 C2984 1.287 . S
C2985 C2986 1.524 . S
C2985 H2988 0.999 . S
C2986 H2956 0.950 . S
C2986 C2985 1.524 . S
C2986 C2987 1.415 . S
C2987 H2957 0.950 . S
C2987 C2982 1.363 . S
C2987 C2986 1.415 . S
H2988 C2985 0.999 . S
H2989 C2970 0.913 . S
H2990 C3008 0.951 . S
H2991 C3010 0.951 . S
H2992 C3012 0.950 . S
H2993 C3013 0.950 . S
H2994 C3015 0.950 . S
H2995 C3018 0.950 . S
H2996 C3019 0.950 . S
H2997 C3021 0.950 . S
H2998 C3022 0.950 . S
H2999 C3023 0.951 . S
H3000 C3025 0.951 . S
H3001 C3027 0.950 . S
H3002 C3028 0.950 . S
H3003 C3030 0.950 . S
H3004 C3033 0.950 . S
H3005 C3034 0.950 . S
H3006 C3036 0.950 . S
H3007 C3037 0.950 . S
C3008 H2990 0.951 . S
C3008 C3009 1.366 . S
C3008 C3010 1.388 . S
C3009 C3008 1.366 . S
C3009 C3013 1.385 . S
C3010 H2991 0.951 . S
C3010 C3008 1.388 . S
C3010 C3011 1.366 . S
C3011 C3010 1.366 . S
C3011 C3012 1.414 . S
C3011 C3014 1.499 . S
C3012 H2992 0.950 . S
C3012 C3011 1.414 . S
C3012 C3013 1.374 . S
C3013 H2993 0.950 . S
C3013 C3009 1.385 . S
C3013 C3012 1.374 . S
C3014 C3011 1.499 . S
C3014 C3015 1.373 . S
C3014 C3016 1.389 . S
C3015 H2994 0.950 . S
C3015 C3014 1.373 . S
C3015 C3031 1.377 . S
C3016 C3014 1.389 . S
C3016 C3017 1.524 . S
C3016 C3030 1.377 . S
C3017 C3016 1.524 . S
C3017 C3018 1.397 . S
C3017 C3022 1.363 . S
C3018 H2995 0.950 . S
C3018 C3017 1.397 . S
C3018 C3019 1.334 . S
C3019 H2996 0.950 . S
C3019 C3018 1.334 . S
C3019 C3020 1.287 . S
C3020 C3019 1.287 . S
C3020 C3021 1.524 . S
C3020 H3039 0.913 . S
C3021 H2997 0.950 . S
C3021 C3020 1.524 . S
C3021 C3022 1.415 . S
C3022 H2998 0.950 . S
C3022 C3017 1.363 . S
C3022 C3021 1.415 . S
C3023 H2999 0.951 . S
C3023 C3024 1.366 . S
C3023 C3025 1.388 . S
C3024 C3023 1.366 . S
C3024 C3028 1.385 . S
C3025 H3000 0.951 . S
C3025 C3023 1.388 . S
C3025 C3026 1.366 . S
C3026 C3025 1.366 . S
C3026 C3027 1.414 . S
C3026 C3029 1.499 . S
C3027 H3001 0.950 . S
C3027 C3026 1.414 . S
C3027 C3028 1.374 . S
C3028 H3002 0.950 . S
C3028 C3024 1.385 . S
C3028 C3027 1.374 . S
C3029 C3026 1.499 . S
C3029 C3030 1.373 . S
C3029 C3031 1.389 . S
C3030 H3003 0.950 . S
C3030 C3016 1.377 . S
C3030 C3029 1.373 . S
C3031 C3015 1.377 . S
C3031 C3029 1.389 . S
C3031 C3032 1.524 . S
C3032 C3031 1.524 . S
C3032 C3033 1.397 . S
C3032 C3037 1.363 . S
C3033 H3004 0.950 . S
C3033 C3032 1.397 . S
C3033 C3034 1.334 . S
C3034 H3005 0.950 . S
C3034 C3033 1.334 . S
C3034 C3035 1.287 . S
C3035 C3034 1.287 . S
C3035 C3036 1.524 . S
C3035 H3038 0.999 . S
C3036 H3006 0.950 . S
C3036 C3035 1.524 . S
C3036 C3037 1.415 . S
C3037 H3007 0.950 . S
C3037 C3032 1.363 . S
C3037 C3036 1.415 . S
H3038 C3035 0.999 . S
H3039 C3020 0.913 . S
H3040 C3058 0.951 . S
H3041 C3060 0.951 . S
H3042 C3062 0.950 . S
H3043 C3063 0.950 . S
H3044 C3065 0.950 . S
H3045 C3068 0.950 . S
H3046 C3069 0.950 . S
H3047 C3071 0.950 . S
H3048 C3072 0.950 . S
H3049 C3073 0.951 . S
H3050 C3075 0.951 . S
H3051 C3077 0.950 . S
H3052 C3078 0.950 . S
H3053 C3080 0.950 . S
H3054 C3083 0.950 . S
H3055 C3084 0.950 . S
H3056 C3086 0.950 . S
H3057 C3087 0.950 . S
C3058 H3040 0.951 . S
C3058 C3059 1.366 . S
C3058 C3060 1.388 . S
C3059 C3058 1.366 . S
C3059 C3063 1.385 . S
C3060 H3041 0.951 . S
C3060 C3058 1.388 . S
C3060 C3061 1.366 . S
C3061 C3060 1.366 . S
C3061 C3062 1.414 . S
C3061 C3064 1.499 . S
C3062 H3042 0.950 . S
C3062 C3061 1.414 . S
C3062 C3063 1.374 . S
C3063 H3043 0.950 . S
C3063 C3059 1.385 . S
C3063 C3062 1.374 . S
C3064 C3061 1.499 . S
C3064 C3065 1.373 . S
C3064 C3066 1.389 . S
C3065 H3044 0.950 . S
C3065 C3064 1.373 . S
C3065 C3081 1.377 . S
C3066 C3064 1.389 . S
C3066 C3067 1.524 . S
C3066 C3080 1.377 . S
C3067 C3066 1.524 . S
C3067 C3068 1.397 . S
C3067 C3072 1.363 . S
C3068 H3045 0.950 . S
C3068 C3067 1.397 . S
C3068 C3069 1.334 . S
C3069 H3046 0.950 . S
C3069 C3068 1.334 . S
C3069 C3070 1.287 . S
C3070 C3069 1.287 . S
C3070 C3071 1.524 . S
C3070 H3089 0.913 . S
C3071 H3047 0.950 . S
C3071 C3070 1.524 . S
C3071 C3072 1.415 . S
C3072 H3048 0.950 . S
C3072 C3067 1.363 . S
C3072 C3071 1.415 . S
C3073 H3049 0.951 . S
C3073 C3074 1.366 . S
C3073 C3075 1.388 . S
C3074 C3073 1.366 . S
C3074 C3078 1.385 . S
C3075 H3050 0.951 . S
C3075 C3073 1.388 . S
C3075 C3076 1.366 . S
C3076 C3075 1.366 . S
C3076 C3077 1.414 . S
C3076 C3079 1.499 . S
C3077 H3051 0.950 . S
C3077 C3076 1.414 . S
C3077 C3078 1.374 . S
C3078 H3052 0.950 . S
C3078 C3074 1.385 . S
C3078 C3077 1.374 . S
C3079 C3076 1.499 . S
C3079 C3080 1.373 . S
C3079 C3081 1.389 . S
C3080 H3053 0.950 . S
C3080 C3066 1.377 . S
C3080 C3079 1.373 . S
C3081 C3065 1.377 . S
C3081 C3079 1.389 . S
C3081 C3082 1.524 . S
C3082 C3081 1.524 . S
C3082 C3083 1.397 . S
C3082 C3087 1.363 . S
C3083 H3054 0.950 . S
C3083 C3082 1.397 . S
C3083 C3084 1.334 . S
C3084 H3055 0.950 . S
C3084 C3083 1.334 . S
C3084 C3085 1.287 . S
C3085 C3084 1.287 . S
C3085 C3086 1.524 . S
C3085 H3088 0.999 . S
C3086 H3056 0.950 . S
C3086 C3085 1.524 . S
C3086 C3087 1.415 . S
C3087 H3057 0.950 . S
C3087 C3082 1.363 . S
C3087 C3086 1.415 . S
H3088 C3085 0.999 . S
H3089 C3070 0.913 . S
H3090 C3108 0.951 . S
H3091 C3110 0.951 . S
H3092 C3112 0.950 . S
H3093 C3113 0.950 . S
H3094 C3115 0.950 . S
H3095 C3118 0.950 . S
H3096 C3119 0.950 . S
H3097 C3121 0.950 . S
H3098 C3122 0.950 . S
H3099 C3123 0.951 . S
H3100 C3125 0.951 . S
H3101 C3127 0.950 . S
H3102 C3128 0.950 . S
H3103 C3130 0.950 . S
H3104 C3133 0.950 . S
H3105 C3134 0.950 . S
H3106 C3136 0.950 . S
H3107 C3137 0.950 . S
C3108 H3090 0.951 . S
C3108 C3109 1.366 . S
C3108 C3110 1.388 . S
C3109 C3108 1.366 . S
C3109 C3113 1.385 . S
C3110 H3091 0.951 . S
C3110 C3108 1.388 . S
C3110 C3111 1.366 . S
C3111 C3110 1.366 . S
C3111 C3112 1.414 . S
C3111 C3114 1.499 . S
C3112 H3092 0.950 . S
C3112 C3111 1.414 . S
C3112 C3113 1.374 . S
C3113 H3093 0.950 . S
C3113 C3109 1.385 . S
C3113 C3112 1.374 . S
C3114 C3111 1.499 . S
C3114 C3115 1.373 . S
C3114 C3116 1.389 . S
C3115 H3094 0.950 . S
C3115 C3114 1.373 . S
C3115 C3131 1.377 . S
C3116 C3114 1.389 . S
C3116 C3117 1.524 . S
C3116 C3130 1.377 . S
C3117 C3116 1.524 . S
C3117 C3118 1.397 . S
C3117 C3122 1.363 . S
C3118 H3095 0.950 . S
C3118 C3117 1.397 . S
C3118 C3119 1.334 . S
C3119 H3096 0.950 . S
C3119 C3118 1.334 . S
C3119 C3120 1.287 . S
C3120 C3119 1.287 . S
C3120 C3121 1.524 . S
C3120 H3139 0.913 . S
C3121 H3097 0.950 . S
C3121 C3120 1.524 . S
C3121 C3122 1.415 . S
C3122 H3098 0.950 . S
C3122 C3117 1.363 . S
C3122 C3121 1.415 . S
C3123 H3099 0.951 . S
C3123 C3124 1.366 . S
C3123 C3125 1.388 . S
C3124 C3123 1.366 . S
C3124 C3128 1.385 . S
C3125 H3100 0.951 . S
C3125 C3123 1.388 . S
C3125 C3126 1.366 . S
C3126 C3125 1.366 . S
C3126 C3127 1.414 . S
C3126 C3129 1.499 . S
C3127 H3101 0.950 . S
C3127 C3126 1.414 . S
C3127 C3128 1.374 . S
C3128 H3102 0.950 . S
C3128 C3124 1.385 . S
C3128 C3127 1.374 . S
C3129 C3126 1.499 . S
C3129 C3130 1.373 . S
C3129 C3131 1.389 . S
C3130 H3103 0.950 . S
C3130 C3116 1.377 . S
C3130 C3129 1.373 . S
C3131 C3115 1.377 . S
C3131 C3129 1.389 . S
C3131 C3132 1.524 . S
C3132 C3131 1.524 . S
C3132 C3133 1.397 . S
C3132 C3137 1.363 . S
C3133 H3104 0.950 . S
C3133 C3132 1.397 . S
C3133 C3134 1.334 . S
C3134 H3105 0.950 . S
C3134 C3133 1.334 . S
C3134 C3135 1.287 . S
C3135 C3134 1.287 . S
C3135 C3136 1.524 . S
C3135 H3138 0.999 . S
C3136 H3106 0.950 . S
C3136 C3135 1.524 . S
C3136 C3137 1.415 . S
C3137 H3107 0.950 . S
C3137 C3132 1.363 . S
C3137 C3136 1.415 . S
H3138 C3135 0.999 . S
H3139 C3120 0.913 . S
H3140 C3158 0.951 . S
H3141 C3160 0.951 . S
H3142 C3162 0.950 . S
H3143 C3163 0.950 . S
H3144 C3165 0.950 . S
H3145 C3168 0.950 . S
H3146 C3169 0.950 . S
H3147 C3171 0.950 . S
H3148 C3172 0.950 . S
H3149 C3173 0.951 . S
H3150 C3175 0.951 . S
H3151 C3177 0.950 . S
H3152 C3178 0.950 . S
H3153 C3180 0.950 . S
H3154 C3183 0.950 . S
H3155 C3184 0.950 . S
H3156 C3186 0.950 . S
H3157 C3187 0.950 . S
C3158 H3140 0.951 . S
C3158 C3159 1.366 . S
C3158 C3160 1.388 . S
C3159 C3158 1.366 . S
C3159 C3163 1.385 . S
C3160 H3141 0.951 . S
C3160 C3158 1.388 . S
C3160 C3161 1.366 . S
C3161 C3160 1.366 . S
C3161 C3162 1.414 . S
C3161 C3164 1.499 . S
C3162 H3142 0.950 . S
C3162 C3161 1.414 . S
C3162 C3163 1.374 . S
C3163 H3143 0.950 . S
C3163 C3159 1.385 . S
C3163 C3162 1.374 . S
C3164 C3161 1.499 . S
C3164 C3165 1.373 . S
C3164 C3166 1.389 . S
C3165 H3144 0.950 . S
C3165 C3164 1.373 . S
C3165 C3181 1.377 . S
C3166 C3164 1.389 . S
C3166 C3167 1.524 . S
C3166 C3180 1.377 . S
C3167 C3166 1.524 . S
C3167 C3168 1.397 . S
C3167 C3172 1.363 . S
C3168 H3145 0.950 . S
C3168 C3167 1.397 . S
C3168 C3169 1.334 . S
C3169 H3146 0.950 . S
C3169 C3168 1.334 . S
C3169 C3170 1.287 . S
C3170 C3169 1.287 . S
C3170 C3171 1.524 . S
C3170 H3189 0.913 . S
C3171 H3147 0.950 . S
C3171 C3170 1.524 . S
C3171 C3172 1.415 . S
C3172 H3148 0.950 . S
C3172 C3167 1.363 . S
C3172 C3171 1.415 . S
C3173 H3149 0.951 . S
C3173 C3174 1.366 . S
C3173 C3175 1.388 . S
C3174 C3173 1.366 . S
C3174 C3178 1.385 . S
C3175 H3150 0.951 . S
C3175 C3173 1.388 . S
C3175 C3176 1.366 . S
C3176 C3175 1.366 . S
C3176 C3177 1.414 . S
C3176 C3179 1.499 . S
C3177 H3151 0.950 . S
C3177 C3176 1.414 . S
C3177 C3178 1.374 . S
C3178 H3152 0.950 . S
C3178 C3174 1.385 . S
C3178 C3177 1.374 . S
C3179 C3176 1.499 . S
C3179 C3180 1.373 . S
C3179 C3181 1.389 . S
C3180 H3153 0.950 . S
C3180 C3166 1.377 . S
C3180 C3179 1.373 . S
C3181 C3165 1.377 . S
C3181 C3179 1.389 . S
C3181 C3182 1.524 . S
C3182 C3181 1.524 . S
C3182 C3183 1.397 . S
C3182 C3187 1.363 . S
C3183 H3154 0.950 . S
C3183 C3182 1.397 . S
C3183 C3184 1.334 . S
C3184 H3155 0.950 . S
C3184 C3183 1.334 . S
C3184 C3185 1.287 . S
C3185 C3184 1.287 . S
C3185 C3186 1.524 . S
C3185 H3188 0.999 . S
C3186 H3156 0.950 . S
C3186 C3185 1.524 . S
C3186 C3187 1.415 . S
C3187 H3157 0.950 . S
C3187 C3182 1.363 . S
C3187 C3186 1.415 . S
H3188 C3185 0.999 . S
H3189 C3170 0.913 . S
H3190 C3208 0.951 . S
H3191 C3210 0.951 . S
H3192 C3212 0.950 . S
H3193 C3213 0.950 . S
H3194 C3215 0.950 . S
H3195 C3218 0.950 . S
H3196 C3219 0.950 . S
H3197 C3221 0.950 . S
H3198 C3222 0.950 . S
H3199 C3223 0.951 . S
H3200 C3225 0.951 . S
H3201 C3227 0.950 . S
H3202 C3228 0.950 . S
H3203 C3230 0.950 . S
H3204 C3233 0.950 . S
H3205 C3234 0.950 . S
H3206 C3236 0.950 . S
H3207 C3237 0.950 . S
C3208 H3190 0.951 . S
C3208 C3209 1.366 . S
C3208 C3210 1.388 . S
C3209 C3208 1.366 . S
C3209 C3213 1.385 . S
C3210 H3191 0.951 . S
C3210 C3208 1.388 . S
C3210 C3211 1.366 . S
C3211 C3210 1.366 . S
C3211 C3212 1.414 . S
C3211 C3214 1.499 . S
C3212 H3192 0.950 . S
C3212 C3211 1.414 . S
C3212 C3213 1.374 . S
C3213 H3193 0.950 . S
C3213 C3209 1.385 . S
C3213 C3212 1.374 . S
C3214 C3211 1.499 . S
C3214 C3215 1.373 . S
C3214 C3216 1.389 . S
C3215 H3194 0.950 . S
C3215 C3214 1.373 . S
C3215 C3231 1.377 . S
C3216 C3214 1.389 . S
C3216 C3217 1.524 . S
C3216 C3230 1.377 . S
C3217 C3216 1.524 . S
C3217 C3218 1.397 . S
C3217 C3222 1.363 . S
C3218 H3195 0.950 . S
C3218 C3217 1.397 . S
C3218 C3219 1.334 . S
C3219 H3196 0.950 . S
C3219 C3218 1.334 . S
C3219 C3220 1.287 . S
C3220 C3219 1.287 . S
C3220 C3221 1.524 . S
C3220 H3239 0.913 . S
C3221 H3197 0.950 . S
C3221 C3220 1.524 . S
C3221 C3222 1.415 . S
C3222 H3198 0.950 . S
C3222 C3217 1.363 . S
C3222 C3221 1.415 . S
C3223 H3199 0.951 . S
C3223 C3224 1.366 . S
C3223 C3225 1.388 . S
C3224 C3223 1.366 . S
C3224 C3228 1.385 . S
C3225 H3200 0.951 . S
C3225 C3223 1.388 . S
C3225 C3226 1.366 . S
C3226 C3225 1.366 . S
C3226 C3227 1.414 . S
C3226 C3229 1.499 . S
C3227 H3201 0.950 . S
C3227 C3226 1.414 . S
C3227 C3228 1.374 . S
C3228 H3202 0.950 . S
C3228 C3224 1.385 . S
C3228 C3227 1.374 . S
C3229 C3226 1.499 . S
C3229 C3230 1.373 . S
C3229 C3231 1.389 . S
C3230 H3203 0.950 . S
C3230 C3216 1.377 . S
C3230 C3229 1.373 . S
C3231 C3215 1.377 . S
C3231 C3229 1.389 . S
C3231 C3232 1.524 . S
C3232 C3231 1.524 . S
C3232 C3233 1.397 . S
C3232 C3237 1.363 . S
C3233 H3204 0.950 . S
C3233 C3232 1.397 . S
C3233 C3234 1.334 . S
C3234 H3205 0.950 . S
C3234 C3233 1.334 . S
C3234 C3235 1.287 . S
C3235 C3234 1.287 . S
C3235 C3236 1.524 . S
C3235 H3238 0.999 . S
C3236 H3206 0.950 . S
C3236 C3235 1.524 . S
C3236 C3237 1.415 . S
C3237 H3207 0.950 . S
C3237 C3232 1.363 . S
C3237 C3236 1.415 . S
H3238 C3235 0.999 . S
H3239 C3220 0.913 . S
H3240 C3258 0.951 . S
H3241 C3260 0.951 . S
H3242 C3262 0.950 . S
H3243 C3263 0.950 . S
H3244 C3265 0.950 . S
H3245 C3268 0.950 . S
H3246 C3269 0.950 . S
H3247 C3271 0.950 . S
H3248 C3272 0.950 . S
H3249 C3273 0.951 . S
H3250 C3275 0.951 . S
H3251 C3277 0.950 . S
H3252 C3278 0.950 . S
H3253 C3280 0.950 . S
H3254 C3283 0.950 . S
H3255 C3284 0.950 . S
H3256 C3286 0.950 . S
H3257 C3287 0.950 . S
C3258 H3240 0.951 . S
C3258 C3259 1.366 . S
C3258 C3260 1.388 . S
C3259 C3258 1.366 . S
C3259 C3263 1.385 . S
C3260 H3241 0.951 . S
C3260 C3258 1.388 . S
C3260 C3261 1.366 . S
C3261 C3260 1.366 . S
C3261 C3262 1.414 . S
C3261 C3264 1.499 . S
C3262 H3242 0.950 . S
C3262 C3261 1.414 . S
C3262 C3263 1.374 . S
C3263 H3243 0.950 . S
C3263 C3259 1.385 . S
C3263 C3262 1.374 . S
C3264 C3261 1.499 . S
C3264 C3265 1.373 . S
C3264 C3266 1.389 . S
C3265 H3244 0.950 . S
C3265 C3264 1.373 . S
C3265 C3281 1.377 . S
C3266 C3264 1.389 . S
C3266 C3267 1.524 . S
C3266 C3280 1.377 . S
C3267 C3266 1.524 . S
C3267 C3268 1.397 . S
C3267 C3272 1.363 . S
C3268 H3245 0.950 . S
C3268 C3267 1.397 . S
C3268 C3269 1.334 . S
C3269 H3246 0.950 . S
C3269 C3268 1.334 . S
C3269 C3270 1.287 . S
C3270 C3269 1.287 . S
C3270 C3271 1.524 . S
C3270 H3289 0.913 . S
C3271 H3247 0.950 . S
C3271 C3270 1.524 . S
C3271 C3272 1.415 . S
C3272 H3248 0.950 . S
C3272 C3267 1.363 . S
C3272 C3271 1.415 . S
C3273 H3249 0.951 . S
C3273 C3274 1.366 . S
C3273 C3275 1.388 . S
C3274 C3273 1.366 . S
C3274 C3278 1.385 . S
C3275 H3250 0.951 . S
C3275 C3273 1.388 . S
C3275 C3276 1.366 . S
C3276 C3275 1.366 . S
C3276 C3277 1.414 . S
C3276 C3279 1.499 . S
C3277 H3251 0.950 . S
C3277 C3276 1.414 . S
C3277 C3278 1.374 . S
C3278 H3252 0.950 . S
C3278 C3274 1.385 . S
C3278 C3277 1.374 . S
C3279 C3276 1.499 . S
C3279 C3280 1.373 . S
C3279 C3281 1.389 . S
C3280 H3253 0.950 . S
C3280 C3266 1.377 . S
C3280 C3279 1.373 . S
C3281 C3265 1.377 . S
C3281 C3279 1.389 . S
C3281 C3282 1.524 . S
C3282 C3281 1.524 . S
C3282 C3283 1.397 . S
C3282 C3287 1.363 . S
C3283 H3254 0.950 . S
C3283 C3282 1.397 . S
C3283 C3284 1.334 . S
C3284 H3255 0.950 . S
C3284 C3283 1.334 . S
C3284 C3285 1.287 . S
C3285 C3284 1.287 . S
C3285 C3286 1.524 . S
C3285 H3288 0.999 . S
C3286 H3256 0.950 . S
C3286 C3285 1.524 . S
C3286 C3287 1.415 . S
C3287 H3257 0.950 . S
C3287 C3282 1.363 . S
C3287 C3286 1.415 . S
H3288 C3285 0.999 . S
H3289 C3270 0.913 . S
H3290 C3308 0.951 . S
H3291 C3310 0.951 . S
H3292 C3312 0.950 . S
H3293 C3313 0.950 . S
H3294 C3315 0.950 . S
H3295 C3318 0.950 . S
H3296 C3319 0.950 . S
H3297 C3321 0.950 . S
H3298 C3322 0.950 . S
H3299 C3323 0.951 . S
H3300 C3325 0.951 . S
H3301 C3327 0.950 . S
H3302 C3328 0.950 . S
H3303 C3330 0.950 . S
H3304 C3333 0.950 . S
H3305 C3334 0.950 . S
H3306 C3336 0.950 . S
H3307 C3337 0.950 . S
C3308 H3290 0.951 . S
C3308 C3309 1.366 . S
C3308 C3310 1.388 . S
C3309 C3308 1.366 . S
C3309 C3313 1.385 . S
C3310 H3291 0.951 . S
C3310 C3308 1.388 . S
C3310 C3311 1.366 . S
C3311 C3310 1.366 . S
C3311 C3312 1.414 . S
C3311 C3314 1.499 . S
C3312 H3292 0.950 . S
C3312 C3311 1.414 . S
C3312 C3313 1.374 . S
C3313 H3293 0.950 . S
C3313 C3309 1.385 . S
C3313 C3312 1.374 . S
C3314 C3311 1.499 . S
C3314 C3315 1.373 . S
C3314 C3316 1.389 . S
C3315 H3294 0.950 . S
C3315 C3314 1.373 . S
C3315 C3331 1.377 . S
C3316 C3314 1.389 . S
C3316 C3317 1.524 . S
C3316 C3330 1.377 . S
C3317 C3316 1.524 . S
C3317 C3318 1.397 . S
C3317 C3322 1.363 . S
C3318 H3295 0.950 . S
C3318 C3317 1.397 . S
C3318 C3319 1.334 . S
C3319 H3296 0.950 . S
C3319 C3318 1.334 . S
C3319 C3320 1.287 . S
C3320 C3319 1.287 . S
C3320 C3321 1.524 . S
C3320 H3339 0.913 . S
C3321 H3297 0.950 . S
C3321 C3320 1.524 . S
C3321 C3322 1.415 . S
C3322 H3298 0.950 . S
C3322 C3317 1.363 . S
C3322 C3321 1.415 . S
C3323 H3299 0.951 . S
C3323 C3324 1.366 . S
C3323 C3325 1.388 . S
C3324 C3323 1.366 . S
C3324 C3328 1.385 . S
C3325 H3300 0.951 . S
C3325 C3323 1.388 . S
C3325 C3326 1.366 . S
C3326 C3325 1.366 . S
C3326 C3327 1.414 . S
C3326 C3329 1.499 . S
C3327 H3301 0.950 . S
C3327 C3326 1.414 . S
C3327 C3328 1.374 . S
C3328 H3302 0.950 . S
C3328 C3324 1.385 . S
C3328 C3327 1.374 . S
C3329 C3326 1.499 . S
C3329 C3330 1.373 . S
C3329 C3331 1.389 . S
C3330 H3303 0.950 . S
C3330 C3316 1.377 . S
C3330 C3329 1.373 . S
C3331 C3315 1.377 . S
C3331 C3329 1.389 . S
C3331 C3332 1.524 . S
C3332 C3331 1.524 . S
C3332 C3333 1.397 . S
C3332 C3337 1.363 . S
C3333 H3304 0.950 . S
C3333 C3332 1.397 . S
C3333 C3334 1.334 . S
C3334 H3305 0.950 . S
C3334 C3333 1.334 . S
C3334 C3335 1.287 . S
C3335 C3334 1.287 . S
C3335 C3336 1.524 . S
C3335 H3338 0.999 . S
C3336 H3306 0.950 . S
C3336 C3335 1.524 . S
C3336 C3337 1.415 . S
C3337 H3307 0.950 . S
C3337 C3332 1.363 . S
C3337 C3336 1.415 . S
H3338 C3335 0.999 . S
H3339 C3320 0.913 . S
H3340 C3358 0.951 . S
H3341 C3360 0.951 . S
H3342 C3362 0.950 . S
H3343 C3363 0.950 . S
H3344 C3365 0.950 . S
H3345 C3368 0.950 . S
H3346 C3369 0.950 . S
H3347 C3371 0.950 . S
H3348 C3372 0.950 . S
H3349 C3373 0.951 . S
H3350 C3375 0.951 . S
H3351 C3377 0.950 . S
H3352 C3378 0.950 . S
H3353 C3380 0.950 . S
H3354 C3383 0.950 . S
H3355 C3384 0.950 . S
H3356 C3386 0.950 . S
H3357 C3387 0.950 . S
C3358 H3340 0.951 . S
C3358 C3359 1.366 . S
C3358 C3360 1.388 . S
C3359 C3358 1.366 . S
C3359 C3363 1.385 . S
C3360 H3341 0.951 . S
C3360 C3358 1.388 . S
C3360 C3361 1.366 . S
C3361 C3360 1.366 . S
C3361 C3362 1.414 . S
C3361 C3364 1.499 . S
C3362 H3342 0.950 . S
C3362 C3361 1.414 . S
C3362 C3363 1.374 . S
C3363 H3343 0.950 . S
C3363 C3359 1.385 . S
C3363 C3362 1.374 . S
C3364 C3361 1.499 . S
C3364 C3365 1.373 . S
C3364 C3366 1.389 . S
C3365 H3344 0.950 . S
C3365 C3364 1.373 . S
C3365 C3381 1.377 . S
C3366 C3364 1.389 . S
C3366 C3367 1.524 . S
C3366 C3380 1.377 . S
C3367 C3366 1.524 . S
C3367 C3368 1.397 . S
C3367 C3372 1.363 . S
C3368 H3345 0.950 . S
C3368 C3367 1.397 . S
C3368 C3369 1.334 . S
C3369 H3346 0.950 . S
C3369 C3368 1.334 . S
C3369 C3370 1.287 . S
C3370 C3369 1.287 . S
C3370 C3371 1.524 . S
C3370 H3389 0.913 . S
C3371 H3347 0.950 . S
C3371 C3370 1.524 . S
C3371 C3372 1.415 . S
C3372 H3348 0.950 . S
C3372 C3367 1.363 . S
C3372 C3371 1.415 . S
C3373 H3349 0.951 . S
C3373 C3374 1.366 . S
C3373 C3375 1.388 . S
C3374 C3373 1.366 . S
C3374 C3378 1.385 . S
C3375 H3350 0.951 . S
C3375 C3373 1.388 . S
C3375 C3376 1.366 . S
C3376 C3375 1.366 . S
C3376 C3377 1.414 . S
C3376 C3379 1.499 . S
C3377 H3351 0.950 . S
C3377 C3376 1.414 . S
C3377 C3378 1.374 . S
C3378 H3352 0.950 . S
C3378 C3374 1.385 . S
C3378 C3377 1.374 . S
C3379 C3376 1.499 . S
C3379 C3380 1.373 . S
C3379 C3381 1.389 . S
C3380 H3353 0.950 . S
C3380 C3366 1.377 . S
C3380 C3379 1.373 . S
C3381 C3365 1.377 . S
C3381 C3379 1.389 . S
C3381 C3382 1.524 . S
C3382 C3381 1.524 . S
C3382 C3383 1.397 . S
C3382 C3387 1.363 . S
C3383 H3354 0.950 . S
C3383 C3382 1.397 . S
C3383 C3384 1.334 . S
C3384 H3355 0.950 . S
C3384 C3383 1.334 . S
C3384 C3385 1.287 . S
C3385 C3384 1.287 . S
C3385 C3386 1.524 . S
C3385 H3388 0.999 . S
C3386 H3356 0.950 . S
C3386 C3385 1.524 . S
C3386 C3387 1.415 . S
C3387 H3357 0.950 . S
C3387 C3382 1.363 . S
C3387 C3386 1.415 . S
H3388 C3385 0.999 . S
H3389 C3370 0.913 . S
H3390 C3408 0.951 . S
H3391 C3410 0.951 . S
H3392 C3412 0.950 . S
H3393 C3413 0.950 . S
H3394 C3415 0.950 . S
H3395 C3418 0.950 . S
H3396 C3419 0.950 . S
H3397 C3421 0.950 . S
H3398 C3422 0.950 . S
H3399 C3423 0.951 . S
H3400 C3425 0.951 . S
H3401 C3427 0.950 . S
H3402 C3428 0.950 . S
H3403 C3430 0.950 . S
H3404 C3433 0.950 . S
H3405 C3434 0.950 . S
H3406 C3436 0.950 . S
H3407 C3437 0.950 . S
C3408 H3390 0.951 . S
C3408 C3409 1.366 . S
C3408 C3410 1.388 . S
C3409 C3408 1.366 . S
C3409 C3413 1.385 . S
C3410 H3391 0.951 . S
C3410 C3408 1.388 . S
C3410 C3411 1.366 . S
C3411 C3410 1.366 . S
C3411 C3412 1.414 . S
C3411 C3414 1.499 . S
C3412 H3392 0.950 . S
C3412 C3411 1.414 . S
C3412 C3413 1.374 . S
C3413 H3393 0.950 . S
C3413 C3409 1.385 . S
C3413 C3412 1.374 . S
C3414 C3411 1.499 . S
C3414 C3415 1.373 . S
C3414 C3416 1.389 . S
C3415 H3394 0.950 . S
C3415 C3414 1.373 . S
C3415 C3431 1.377 . S
C3416 C3414 1.389 . S
C3416 C3417 1.524 . S
C3416 C3430 1.377 . S
C3417 C3416 1.524 . S
C3417 C3418 1.397 . S
C3417 C3422 1.363 . S
C3418 H3395 0.950 . S
C3418 C3417 1.397 . S
C3418 C3419 1.334 . S
C3419 H3396 0.950 . S
C3419 C3418 1.334 . S
C3419 C3420 1.287 . S
C3420 C3419 1.287 . S
C3420 C3421 1.524 . S
C3420 H3439 0.913 . S
C3421 H3397 0.950 . S
C3421 C3420 1.524 . S
C3421 C3422 1.415 . S
C3422 H3398 0.950 . S
C3422 C3417 1.363 . S
C3422 C3421 1.415 . S
C3423 H3399 0.951 . S
C3423 C3424 1.366 . S
C3423 C3425 1.388 . S
C3424 C3423 1.366 . S
C3424 C3428 1.385 . S
C3425 H3400 0.951 . S
C3425 C3423 1.388 . S
C3425 C3426 1.366 . S
C3426 C3425 1.366 . S
C3426 C3427 1.414 . S
C3426 C3429 1.499 . S
C3427 H3401 0.950 . S
C3427 C3426 1.414 . S
C3427 C3428 1.374 . S
C3428 H3402 0.950 . S
C3428 C3424 1.385 . S
C3428 C3427 1.374 . S
C3429 C3426 1.499 . S
C3429 C3430 1.373 . S
C3429 C3431 1.389 . S
C3430 H3403 0.950 . S
C3430 C3416 1.377 . S
C3430 C3429 1.373 . S
C3431 C3415 1.377 . S
C3431 C3429 1.389 . S
C3431 C3432 1.524 . S
C3432 C3431 1.524 . S
C3432 C3433 1.397 . S
C3432 C3437 1.363 . S
C3433 H3404 0.950 . S
C3433 C3432 1.397 . S
C3433 C3434 1.334 . S
C3434 H3405 0.950 . S
C3434 C3433 1.334 . S
C3434 C3435 1.287 . S
C3435 C3434 1.287 . S
C3435 C3436 1.524 . S
C3435 H3438 0.999 . S
C3436 H3406 0.950 . S
C3436 C3435 1.524 . S
C3436 C3437 1.415 . S
C3437 H3407 0.950 . S
C3437 C3432 1.363 . S
C3437 C3436 1.415 . S
H3438 C3435 0.999 . S
H3439 C3420 0.913 . S
H3440 C3458 0.951 . S
H3441 C3460 0.951 . S
H3442 C3462 0.950 . S
H3443 C3463 0.950 . S
H3444 C3465 0.950 . S
H3445 C3468 0.950 . S
H3446 C3469 0.950 . S
H3447 C3471 0.950 . S
H3448 C3472 0.950 . S
H3449 C3473 0.951 . S
H3450 C3475 0.951 . S
H3451 C3477 0.950 . S
H3452 C3478 0.950 . S
H3453 C3480 0.950 . S
H3454 C3483 0.950 . S
H3455 C3484 0.950 . S
H3456 C3486 0.950 . S
H3457 C3487 0.950 . S
C3458 H3440 0.951 . S
C3458 C3459 1.366 . S
C3458 C3460 1.388 . S
C3459 C3458 1.366 . S
C3459 C3463 1.385 . S
C3460 H3441 0.951 . S
C3460 C3458 1.388 . S
C3460 C3461 1.366 . S
C3461 C3460 1.366 . S
C3461 C3462 1.414 . S
C3461 C3464 1.499 . S
C3462 H3442 0.950 . S
C3462 C3461 1.414 . S
C3462 C3463 1.374 . S
C3463 H3443 0.950 . S
C3463 C3459 1.385 . S
C3463 C3462 1.374 . S
C3464 C3461 1.499 . S
C3464 C3465 1.373 . S
C3464 C3466 1.389 . S
C3465 H3444 0.950 . S
C3465 C3464 1.373 . S
C3465 C3481 1.377 . S
C3466 C3464 1.389 . S
C3466 C3467 1.524 . S
C3466 C3480 1.377 . S
C3467 C3466 1.524 . S
C3467 C3468 1.397 . S
C3467 C3472 1.363 . S
C3468 H3445 0.950 . S
C3468 C3467 1.397 . S
C3468 C3469 1.334 . S
C3469 H3446 0.950 . S
C3469 C3468 1.334 . S
C3469 C3470 1.287 . S
C3470 C3469 1.287 . S
C3470 C3471 1.524 . S
C3470 H3489 0.913 . S
C3471 H3447 0.950 . S
C3471 C3470 1.524 . S
C3471 C3472 1.415 . S
C3472 H3448 0.950 . S
C3472 C3467 1.363 . S
C3472 C3471 1.415 . S
C3473 H3449 0.951 . S
C3473 C3474 1.366 . S
C3473 C3475 1.388 . S
C3474 C3473 1.366 . S
C3474 C3478 1.385 . S
C3475 H3450 0.951 . S
C3475 C3473 1.388 . S
C3475 C3476 1.366 . S
C3476 C3475 1.366 . S
C3476 C3477 1.414 . S
C3476 C3479 1.499 . S
C3477 H3451 0.950 . S
C3477 C3476 1.414 . S
C3477 C3478 1.374 . S
C3478 H3452 0.950 . S
C3478 C3474 1.385 . S
C3478 C3477 1.374 . S
C3479 C3476 1.499 . S
C3479 C3480 1.373 . S
C3479 C3481 1.389 . S
C3480 H3453 0.950 . S
C3480 C3466 1.377 . S
C3480 C3479 1.373 . S
C3481 C3465 1.377 . S
C3481 C3479 1.389 . S
C3481 C3482 1.524 . S
C3482 C3481 1.524 . S
C3482 C3483 1.397 . S
C3482 C3487 1.363 . S
C3483 H3454 0.950 . S
C3483 C3482 1.397 . S
C3483 C3484 1.334 . S
C3484 H3455 0.950 . S
C3484 C3483 1.334 . S
C3484 C3485 1.287 . S
C3485 C3484 1.287 . S
C3485 C3486 1.524 . S
C3485 H3488 0.999 . S
C3486 H3456 0.950 . S
C3486 C3485 1.524 . S
C3486 C3487 1.415 . S
C3487 H3457 0.950 . S
C3487 C3482 1.363 . S
C3487 C3486 1.415 . S
H3488 C3485 0.999 . S
H3489 C3470 0.913 . S
H3490 C3508 0.951 . S
H3491 C3510 0.951 . S
H3492 C3512 0.950 . S
H3493 C3513 0.950 . S
H3494 C3515 0.950 . S
H3495 C3518 0.950 . S
H3496 C3519 0.950 . S
H3497 C3521 0.950 . S
H3498 C3522 0.950 . S
H3499 C3523 0.951 . S
H3500 C3525 0.951 . S
H3501 C3527 0.950 . S
H3502 C3528 0.950 . S
H3503 C3530 0.950 . S
H3504 C3533 0.950 . S
H3505 C3534 0.950 . S
H3506 C3536 0.950 . S
H3507 C3537 0.950 . S
C3508 H3490 0.951 . S
C3508 C3509 1.366 . S
C3508 C3510 1.388 . S
C3509 C3508 1.366 . S
C3509 C3513 1.385 . S
C3510 H3491 0.951 . S
C3510 C3508 1.388 . S
C3510 C3511 1.366 . S
C3511 C3510 1.366 . S
C3511 C3512 1.414 . S
C3511 C3514 1.499 . S
C3512 H3492 0.950 . S
C3512 C3511 1.414 . S
C3512 C3513 1.374 . S
C3513 H3493 0.950 . S
C3513 C3509 1.385 . S
C3513 C3512 1.374 . S
C3514 C3511 1.499 . S
C3514 C3515 1.373 . S
C3514 C3516 1.389 . S
C3515 H3494 0.950 . S
C3515 C3514 1.373 . S
C3515 C3531 1.377 . S
C3516 C3514 1.389 . S
C3516 C3517 1.524 . S
C3516 C3530 1.377 . S
C3517 C3516 1.524 . S
C3517 C3518 1.397 . S
C3517 C3522 1.363 . S
C3518 H3495 0.950 . S
C3518 C3517 1.397 . S
C3518 C3519 1.334 . S
C3519 H3496 0.950 . S
C3519 C3518 1.334 . S
C3519 C3520 1.287 . S
C3520 C3519 1.287 . S
C3520 C3521 1.524 . S
C3520 H3539 0.913 . S
C3521 H3497 0.950 . S
C3521 C3520 1.524 . S
C3521 C3522 1.415 . S
C3522 H3498 0.950 . S
C3522 C3517 1.363 . S
C3522 C3521 1.415 . S
C3523 H3499 0.951 . S
C3523 C3524 1.366 . S
C3523 C3525 1.388 . S
C3524 C3523 1.366 . S
C3524 C3528 1.385 . S
C3525 H3500 0.951 . S
C3525 C3523 1.388 . S
C3525 C3526 1.366 . S
C3526 C3525 1.366 . S
C3526 C3527 1.414 . S
C3526 C3529 1.499 . S
C3527 H3501 0.950 . S
C3527 C3526 1.414 . S
C3527 C3528 1.374 . S
C3528 H3502 0.950 . S
C3528 C3524 1.385 . S
C3528 C3527 1.374 . S
C3529 C3526 1.499 . S
C3529 C3530 1.373 . S
C3529 C3531 1.389 . S
C3530 H3503 0.950 . S
C3530 C3516 1.377 . S
C3530 C3529 1.373 . S
C3531 C3515 1.377 . S
C3531 C3529 1.389 . S
C3531 C3532 1.524 . S
C3532 C3531 1.524 . S
C3532 C3533 1.397 . S
C3532 C3537 1.363 . S
C3533 H3504 0.950 . S
C3533 C3532 1.397 . S
C3533 C3534 1.334 . S
C3534 H3505 0.950 . S
C3534 C3533 1.334 . S
C3534 C3535 1.287 . S
C3535 C3534 1.287 . S
C3535 C3536 1.524 . S
C3535 H3538 0.999 . S
C3536 H3506 0.950 . S
C3536 C3535 1.524 . S
C3536 C3537 1.415 . S
C3537 H3507 0.950 . S
C3537 C3532 1.363 . S
C3537 C3536 1.415 . S
H3538 C3535 0.999 . S
H3539 C3520 0.913 . S
H3540 C3558 0.951 . S
H3541 C3560 0.951 . S
H3542 C3562 0.950 . S
H3543 C3563 0.950 . S
H3544 C3565 0.950 . S
H3545 C3568 0.950 . S
H3546 C3569 0.950 . S
H3547 C3571 0.950 . S
H3548 C3572 0.950 . S
H3549 C3573 0.951 . S
H3550 C3575 0.951 . S
H3551 C3577 0.950 . S
H3552 C3578 0.950 . S
H3553 C3580 0.950 . S
H3554 C3583 0.950 . S
H3555 C3584 0.950 . S
H3556 C3586 0.950 . S
H3557 C3587 0.950 . S
C3558 H3540 0.951 . S
C3558 C3559 1.366 . S
C3558 C3560 1.388 . S
C3559 C3558 1.366 . S
C3559 C3563 1.385 . S
C3560 H3541 0.951 . S
C3560 C3558 1.388 . S
C3560 C3561 1.366 . S
C3561 C3560 1.366 . S
C3561 C3562 1.414 . S
C3561 C3564 1.499 . S
C3562 H3542 0.950 . S
C3562 C3561 1.414 . S
C3562 C3563 1.374 . S
C3563 H3543 0.950 . S
C3563 C3559 1.385 . S
C3563 C3562 1.374 . S
C3564 C3561 1.499 . S
C3564 C3565 1.373 . S
C3564 C3566 1.389 . S
C3565 H3544 0.950 . S
C3565 C3564 1.373 . S
C3565 C3581 1.377 . S
C3566 C3564 1.389 . S
C3566 C3567 1.524 . S
C3566 C3580 1.377 . S
C3567 C3566 1.524 . S
C3567 C3568 1.397 . S
C3567 C3572 1.363 . S
C3568 H3545 0.950 . S
C3568 C3567 1.397 . S
C3568 C3569 1.334 . S
C3569 H3546 0.950 . S
C3569 C3568 1.334 . S
C3569 C3570 1.287 . S
C3570 C3569 1.287 . S
C3570 C3571 1.524 . S
C3570 H3589 0.913 . S
C3571 H3547 0.950 . S
C3571 C3570 1.524 . S
C3571 C3572 1.415 . S
C3572 H3548 0.950 . S
C3572 C3567 1.363 . S
C3572 C3571 1.415 . S
C3573 H3549 0.951 . S
C3573 C3574 1.366 . S
C3573 C3575 1.388 . S
C3574 C3573 1.366 . S
C3574 C3578 1.385 . S
C3575 H3550 0.951 . S
C3575 C3573 1.388 . S
C3575 C3576 1.366 . S
C3576 C3575 1.366 . S
C3576 C3577 1.414 . S
C3576 C3579 1.499 . S
C3577 H3551 0.950 . S
C3577 C3576 1.414 . S
C3577 C3578 1.374 . S
C3578 H3552 0.950 . S
C3578 C3574 1.385 . S
C3578 C3577 1.374 . S
C3579 C3576 1.499 . S
C3579 C3580 1.373 . S
C3579 C3581 1.389 . S
C3580 H3553 0.950 . S
C3580 C3566 1.377 . S
C3580 C3579 1.373 . S
C3581 C3565 1.377 . S
C3581 C3579 1.389 . S
C3581 C3582 1.524 . S
C3582 C3581 1.524 . S
C3582 C3583 1.397 . S
C3582 C3587 1.363 . S
C3583 H3554 0.950 . S
C3583 C3582 1.397 . S
C3583 C3584 1.334 . S
C3584 H3555 0.950 . S
C3584 C3583 1.334 . S
C3584 C3585 1.287 . S
C3585 C3584 1.287 . S
C3585 C3586 1.524 . S
C3585 H3588 0.999 . S
C3586 H3556 0.950 . S
C3586 C3585 1.524 . S
C3586 C3587 1.415 . S
C3587 H3557 0.950 . S
C3587 C3582 1.363 . S
C3587 C3586 1.415 . S
H3588 C3585 0.999 . S
H3589 C3570 0.913 . S
H3590 C3608 0.951 . S
H3591 C3610 0.951 . S
H3592 C3612 0.950 . S
H3593 C3613 0.950 . S
H3594 C3615 0.950 . S
H3595 C3618 0.950 . S
H3596 C3619 0.950 . S
H3597 C3621 0.950 . S
H3598 C3622 0.950 . S
H3599 C3623 0.951 . S
H3600 C3625 0.951 . S
H3601 C3627 0.950 . S
H3602 C3628 0.950 . S
H3603 C3630 0.950 . S
H3604 C3633 0.950 . S
H3605 C3634 0.950 . S
H3606 C3636 0.950 . S
H3607 C3637 0.950 . S
C3608 H3590 0.951 . S
C3608 C3609 1.366 . S
C3608 C3610 1.388 . S
C3609 C3608 1.366 . S
C3609 C3613 1.385 . S
C3610 H3591 0.951 . S
C3610 C3608 1.388 . S
C3610 C3611 1.366 . S
C3611 C3610 1.366 . S
C3611 C3612 1.414 . S
C3611 C3614 1.499 . S
C3612 H3592 0.950 . S
C3612 C3611 1.414 . S
C3612 C3613 1.374 . S
C3613 H3593 0.950 . S
C3613 C3609 1.385 . S
C3613 C3612 1.374 . S
C3614 C3611 1.499 . S
C3614 C3615 1.373 . S
C3614 C3616 1.389 . S
C3615 H3594 0.950 . S
C3615 C3614 1.373 . S
C3615 C3631 1.377 . S
C3616 C3614 1.389 . S
C3616 C3617 1.524 . S
C3616 C3630 1.377 . S
C3617 C3616 1.524 . S
C3617 C3618 1.397 . S
C3617 C3622 1.363 . S
C3618 H3595 0.950 . S
C3618 C3617 1.397 . S
C3618 C3619 1.334 . S
C3619 H3596 0.950 . S
C3619 C3618 1.334 . S
C3619 C3620 1.287 . S
C3620 C3619 1.287 . S
C3620 C3621 1.524 . S
C3620 H3639 0.913 . S
C3621 H3597 0.950 . S
C3621 C3620 1.524 . S
C3621 C3622 1.415 . S
C3622 H3598 0.950 . S
C3622 C3617 1.363 . S
C3622 C3621 1.415 . S
C3623 H3599 0.951 . S
C3623 C3624 1.366 . S
C3623 C3625 1.388 . S
C3624 C3623 1.366 . S
C3624 C3628 1.385 . S
C3625 H3600 0.951 . S
C3625 C3623 1.388 . S
C3625 C3626 1.366 . S
C3626 C3625 1.366 . S
C3626 C3627 1.414 . S
C3626 C3629 1.499 . S
C3627 H3601 0.950 . S
C3627 C3626 1.414 . S
C3627 C3628 1.374 . S
C3628 H3602 0.950 . S
C3628 C3624 1.385 . S
C3628 C3627 1.374 . S
C3629 C3626 1.499 . S
C3629 C3630 1.373 . S
C3629 C3631 1.389 . S
C3630 H3603 0.950 . S
C3630 C3616 1.377 . S
C3630 C3629 1.373 . S
C3631 C3615 1.377 . S
C3631 C3629 1.389 . S
C3631 C3632 1.524 . S
C3632 C3631 1.524 . S
C3632 C3633 1.397 . S
C3632 C3637 1.363 . S
C3633 H3604 0.950 . S
C3633 C3632 1.397 . S
C3633 C3634 1.334 . S
C3634 H3605 0.950 . S
C3634 C3633 1.334 . S
C3634 C3635 1.287 . S
C3635 C3634 1.287 . S
C3635 C3636 1.524 . S
C3635 H3638 0.999 . S
C3636 H3606 0.950 . S
C3636 C3635 1.524 . S
C3636 C3637 1.415 . S
C3637 H3607 0.950 . S
C3637 C3632 1.363 . S
C3637 C3636 1.415 . S
H3638 C3635 0.999 . S
H3639 C3620 0.913 . S
H3640 C3658 0.951 . S
H3641 C3660 0.951 . S
H3642 C3662 0.950 . S
H3643 C3663 0.950 . S
H3644 C3665 0.950 . S
H3645 C3668 0.950 . S
H3646 C3669 0.950 . S
H3647 C3671 0.950 . S
H3648 C3672 0.950 . S
H3649 C3673 0.951 . S
H3650 C3675 0.951 . S
H3651 C3677 0.950 . S
H3652 C3678 0.950 . S
H3653 C3680 0.950 . S
H3654 C3683 0.950 . S
H3655 C3684 0.950 . S
H3656 C3686 0.950 . S
H3657 C3687 0.950 . S
C3658 H3640 0.951 . S
C3658 C3659 1.366 . S
C3658 C3660 1.388 . S
C3659 C3658 1.366 . S
C3659 C3663 1.385 . S
C3660 H3641 0.951 . S
C3660 C3658 1.388 . S
C3660 C3661 1.366 . S
C3661 C3660 1.366 . S
C3661 C3662 1.414 . S
C3661 C3664 1.499 . S
C3662 H3642 0.950 . S
C3662 C3661 1.414 . S
C3662 C3663 1.374 . S
C3663 H3643 0.950 . S
C3663 C3659 1.385 . S
C3663 C3662 1.374 . S
C3664 C3661 1.499 . S
C3664 C3665 1.373 . S
C3664 C3666 1.389 . S
C3665 H3644 0.950 . S
C3665 C3664 1.373 . S
C3665 C3681 1.377 . S
C3666 C3664 1.389 . S
C3666 C3667 1.524 . S
C3666 C3680 1.377 . S
C3667 C3666 1.524 . S
C3667 C3668 1.397 . S
C3667 C3672 1.363 . S
C3668 H3645 0.950 . S
C3668 C3667 1.397 . S
C3668 C3669 1.334 . S
C3669 H3646 0.950 . S
C3669 C3668 1.334 . S
C3669 C3670 1.287 . S
C3670 C3669 1.287 . S
C3670 C3671 1.524 . S
C3670 H3689 0.913 . S
C3671 H3647 0.950 . S
C3671 C3670 1.524 . S
C3671 C3672 1.415 . S
C3672 H3648 0.950 . S
C3672 C3667 1.363 . S
C3672 C3671 1.415 . S
C3673 H3649 0.951 . S
C3673 C3674 1.366 . S
C3673 C3675 1.388 . S
C3674 C3673 1.366 . S
C3674 C3678 1.385 . S
C3675 H3650 0.951 . S
C3675 C3673 1.388 . S
C3675 C3676 1.366 . S
C3676 C3675 1.366 . S
C3676 C3677 1.414 . S
C3676 C3679 1.499 . S
C3677 H3651 0.950 . S
C3677 C3676 1.414 . S
C3677 C3678 1.374 . S
C3678 H3652 0.950 . S
C3678 C3674 1.385 . S
C3678 C3677 1.374 . S
C3679 C3676 1.499 . S
C3679 C3680 1.373 . S
C3679 C3681 1.389 . S
C3680 H3653 0.950 . S
C3680 C3666 1.377 . S
C3680 C3679 1.373 . S
C3681 C3665 1.377 . S
C3681 C3679 1.389 . S
C3681 C3682 1.524 . S
C3682 C3681 1.524 . S
C3682 C3683 1.397 . S
C3682 C3687 1.363 . S
C3683 H3654 0.950 . S
C3683 C3682 1.397 . S
C3683 C3684 1.334 . S
C3684 H3655 0.950 . S
C3684 C3683 1.334 . S
C3684 C3685 1.287 . S
C3685 C3684 1.287 . S
C3685 C3686 1.524 . S
C3685 H3688 0.999 . S
C3686 H3656 0.950 . S
C3686 C3685 1.524 . S
C3686 C3687 1.415 . S
C3687 H3657 0.950 . S
C3687 C3682 1.363 . S
C3687 C3686 1.415 . S
H3688 C3685 0.999 . S
H3689 C3670 0.913 . S
C1009 C177 1.435 . S
C1024 C301 1.377 . S
C1059 C190 1.463 . S
C1074 C385 1.407 . S
C1109 C164 1.429 . S
C1124 C465 1.421 . S
C1159 C151 1.403 . S
C1174 C381 1.396 1_556 S
C1224 C469 1.353 . S
C1209 C125 1.411 . S
C1259 C138 1.379 . S
C1274 C297 1.354 1_556 S
C1324 C290 1.432 . S
C1309 C147 1.440 . S
C1374 C374 1.460 . S
C1359 C121 1.459 . S
C1409 C134 1.458 . S
C1424 C476 1.475 1_556 S
C1459 C173 1.422 . S
C1474 C392 1.445 . S
C1509 C186 1.405 . S
C1524 C458 1.400 . S
C1574 C308 1.422 . S
C1559 C160 1.404 . S
C1624 C553 1.377 . S
C1609 C21 1.435 . S
C1659 C34 1.463 . S
C1674 C637 1.407 . S
C1709 C8 1.429 . S
C1724 C717 1.421 . S
C1759 C229 1.403 . S
C1774 C633 1.396 . S
C1809 C203 1.412 . S
C1824 C721 1.353 . S
C1859 C216 1.379 . S
C1874 C549 1.370 . S
C1909 C225 1.440 . S
C1924 C542 1.432 . S
C1959 C199 1.459 . S
C1974 C626 1.460 . S
C2024 C728 1.480 . S
C2009 C212 1.458 . S
C2059 C17 1.423 . S
C2074 C644 1.445 . S
C2124 C710 1.399 . S
C2109 C30 1.406 . S
C2159 C4 1.404 . S
C2174 C560 1.422 . S
C2224 C805 1.377 . S
C2209 C99 1.435 . S
C2259 C112 1.463 . S
C2274 C889 1.407 . S
C2324 C969 1.421 . S
C2309 C86 1.429 . S
C2374 C885 1.396 . S
C2359 C73 1.403 . S
C2424 C973 1.354 . S
C2409 C47 1.411 . S
C2459 C60 1.379 . S
C2474 C801 1.371 . S
C2509 C69 1.439 . S
C2524 C794 1.432 . S
C2559 C43 1.460 . S
C2574 C878 1.458 . S
C2624 C980 1.479 . S
C2609 C56 1.460 . S
C2659 C95 1.422 . S
C2674 C896 1.445 . S
C2709 C108 1.406 . S
C2724 C962 1.399 . S
C2759 C82 1.405 . S
C2774 C812 1.422 . S
C2809 C204 1.548 . S
C2824 C304 1.420 . S
C2874 C388 1.477 . S
C2859 C217 1.628 . S
C2909 C230 1.565 . S
C2924 C460 1.384 . S
C2959 C87 1.599 . S
C2974 C376 1.407 . S
C3009 C100 1.580 . S
C3024 C472 1.437 . S
C3074 C292 1.351 . S
C3059 C113 1.518 . S
C3109 C48 1.548 . S
C3124 C556 1.419 . S
C3159 C61 1.628 . S
C3174 C640 1.476 . S
C3209 C74 1.565 . S
C3224 C712 1.384 . S
C3259 C165 1.599 . S
C3274 C628 1.408 . S
C3324 C724 1.438 . S
C3309 C178 1.581 . S
C3359 C191 1.518 . S
C3374 C544 1.352 . S
C3409 C126 1.548 . S
C3424 C808 1.420 . S
C3459 C139 1.628 . S
C3474 C892 1.478 . S
C3524 C964 1.384 . S
C3509 C152 1.565 . S
C3559 C9 1.599 . S
C3574 C880 1.408 . S
C3609 C22 1.580 . S
C3624 C976 1.439 . S
C3659 C35 1.519 . S
C3674 C796 1.353 . S
