# Generated by pormake.
# Topology pts, (4,4)-cn, num edge types: 1
# Building blocks:
#     Node 0, Type 0, BuildingBlock: NAHDIM_clean_linker_0, # of connection points: 4
#     Node 1, Type 0, BuildingBlock: NAHDIM_clean_linker_0, # of connection points: 4
#     Node 2, Type 1, BuildingBlock: QUQFOY_clean_sbu_1, # of connection points: 4
#     Node 3, Type 1, BuildingBlock: QUQFOY_clean_sbu_1, # of connection points: 4
#     Edge 4, Type (0, 1), BuildingBlock: XUDNAN_clean_linker_2, # of connection points: 2
#     Edge 5, Type (0, 1), BuildingBlock: XUDNAN_clean_linker_2, # of connection points: 2
#     Edge 6, Type (0, 1), BuildingBlock: XUDNAN_clean_linker_2, # of connection points: 2
#     Edge 7, Type (0, 1), BuildingBlock: XUDNAN_clean_linker_2, # of connection points: 2
#     Edge 8, Type (0, 1), BuildingBlock: XUDNAN_clean_linker_2, # of connection points: 2
#     Edge 9, Type (0, 1), BuildingBlock: XUDNAN_clean_linker_2, # of connection points: 2
#     Edge 10, Type (0, 1), BuildingBlock: XUDNAN_clean_linker_2, # of connection points: 2
#     Edge 11, Type (0, 1), BuildingBlock: XUDNAN_clean_linker_2, # of connection points: 2
# Relax obj value: 0.113
# Max RMSD: 0.244
# Mean RMSD: 0.150
data_MOF--net-pts--node1-QUQFOY_clean_sbu_1--node2-NAHDIM_clean_linker_0--edge1-XUDNAN_clean_linker_2
_symmetry_space_group_name_H-M    P1
_symmetry_Int_Tables_number       1
_symmetry_cell_setting            triclinic
loop_
_symmetry_equiv_pos_as_xyz
'x, y, z'
_cell_length_a     30.164145
_cell_length_b     33.562837
_cell_length_c     55.647292
_cell_angle_alpha  90.253653
_cell_angle_beta   89.260882
_cell_angle_gamma 89.97086
loop_
_atom_site_label
_atom_site_type_symbol
_atom_site_fract_x
_atom_site_fract_y
_atom_site_fract_z
_atom_type_partial_charge
C0 C 0.67041 0.05295 0.15516 0.0
C1 C 0.70806 0.03874 0.13848 0.0
C2 C 0.67574 0.0459 0.09916 0.0
C3 C 0.67285 0.0062 0.09141 0.0
C4 C 0.63953 0.99427 0.07557 0.0
C5 C 0.60854 0.0227 0.06745 0.0
C6 C 0.61312 0.06322 0.07412 0.0
C7 C 0.64718 0.0744 0.08972 0.0
C8 C 0.63638 0.95103 0.06826 0.0
C9 C 0.58074 0.09429 0.06571 0.0
C10 C 0.41223 0.87541 0.1674 0.0
C11 C 0.40378 0.91415 0.1538 0.0
C12 C 0.41246 0.92399 0.11108 0.0
C13 C 0.41344 0.96564 0.10965 0.0
C14 C 0.43721 0.98469 0.09117 0.0
C15 C 0.4614 0.96149 0.07419 0.0
C16 C 0.4588 0.91931 0.07508 0.0
C17 C 0.43335 0.90115 0.09326 0.0
C18 C 0.43798 0.02962 0.09047 0.0
C19 C 0.4849 0.89324 0.0578 0.0
C20 C 0.3606 0.93943 0.92364 0.0
C21 C 0.36892 0.98057 0.92522 0.0
C22 C 0.40795 0.99482 0.93573 0.0
C23 C 0.43954 0.96739 0.94437 0.0
C24 C 0.43227 0.92599 0.94162 0.0
C25 C 0.39279 0.9126 0.93131 0.0
C26 C 0.41524 0.03915 0.93791 0.0
C27 C 0.46588 0.89589 0.94994 0.0
C28 C 0.77483 0.00891 0.91606 0.0
C29 C 0.74713 0.00707 0.89315 0.0
C30 C 0.67249 0.02283 0.90895 0.0
C31 C 0.64091 0.05306 0.91167 0.0
C32 C 0.60256 0.0475 0.92583 0.0
C33 C 0.59556 0.01055 0.93736 0.0
C34 C 0.62673 0.97939 0.93418 0.0
C35 C 0.66494 0.98588 0.92014 0.0
C36 C 0.56988 0.08124 0.92881 0.0
C37 C 0.6199 0.93929 0.94587 0.0
C38 C 0.56848 0.00926 0.05455 0.0
C39 C 0.53343 0.99452 0.06849 0.0
C40 C 0.49441 0.98091 0.05802 0.0
C41 C 0.48946 0.9832 0.03284 0.0
C42 C 0.44973 0.97209 0.02176 0.0
C43 C 0.44608 0.97249 0.99685 0.0
C44 C 0.48223 0.98358 0.98209 0.0
C45 C 0.47977 0.98189 0.95673 0.0
C46 C 0.51671 0.99211 0.94264 0.0
C47 C 0.55624 0.00442 0.9532 0.0
C48 C 0.55896 0.00745 0.97849 0.0
C49 C 0.59789 0.02072 0.98967 0.0
C50 C 0.60089 0.02197 0.0146 0.0
C51 C 0.56526 0.00961 0.02926 0.0
C52 C 0.52547 0.99667 0.01838 0.0
C53 C 0.52208 0.99624 0.99297 0.0
C54 C 0.24521 0.91652 0.92216 0.0
C55 C 0.28204 0.94367 0.91259 0.0
O56 O 0.70482 0.05714 0.11629 0.0
O57 O 0.70963 0.03076 0.89565 0.0
O58 O 0.32233 0.92424 0.91482 0.0
O59 O 0.39358 0.90531 0.13016 0.0
H60 H 0.70497 0.00588 0.13642 0.0
H61 H 0.6379 0.04439 0.14754 0.0
H62 H 0.67124 0.08588 0.1573 0.0
H63 H 0.67325 0.03889 0.17312 0.0
H64 H 0.69622 0.98443 0.09796 0.0
H65 H 0.65022 0.1051 0.0956 0.0
H66 H 0.60688 0.93742 0.07709 0.0
H67 H 0.66621 0.93381 0.07342 0.0
H68 H 0.632 0.94848 0.04853 0.0
H69 H 0.58968 0.12473 0.07189 0.0
H70 H 0.54698 0.08705 0.0726 0.0
H71 H 0.57945 0.09408 0.04579 0.0
H72 H 0.43544 0.9313 0.15453 0.0
H73 H 0.41955 0.88189 0.18655 0.0
H74 H 0.44126 0.85975 0.15928 0.0
H75 H 0.38315 0.8552 0.16649 0.0
H76 H 0.39628 0.98321 0.12323 0.0
H77 H 0.43198 0.86896 0.09454 0.0
H78 H 0.43628 0.0404 0.07166 0.0
H79 H 0.46952 0.04046 0.0982 0.0
H80 H 0.4101 0.04281 0.10105 0.0
H81 H 0.48383 0.86132 0.06298 0.0
H82 H 0.52009 0.9029 0.05692 0.0
H83 H 0.47106 0.89598 0.03952 0.0
H84 H 0.28082 0.97104 0.92394 0.0
H85 H 0.34527 0.00171 0.91827 0.0
H86 H 0.38644 0.88094 0.92958 0.0
H87 H 0.42036 0.04731 0.95704 0.0
H88 H 0.38691 0.05664 0.93096 0.0
H89 H 0.4457 0.04764 0.92776 0.0
H90 H 0.45708 0.865 0.94456 0.0
H91 H 0.46817 0.89713 0.96982 0.0
H92 H 0.49916 0.90314 0.94241 0.0
H93 H 0.73717 0.97572 0.88958 0.0
H94 H 0.80516 0.99035 0.91391 0.0
H95 H 0.75562 0.99736 0.93167 0.0
H96 H 0.78473 0.04011 0.92005 0.0
H97 H 0.64681 0.08139 0.90292 0.0
H98 H 0.68866 0.96191 0.91819 0.0
H99 H 0.56533 0.08839 0.94819 0.0
H100 H 0.53713 0.07196 0.92182 0.0
H101 H 0.58075 0.10857 0.91922 0.0
H102 H 0.64498 0.91703 0.93982 0.0
H103 H 0.58637 0.92767 0.94177 0.0
H104 H 0.62203 0.94257 0.96568 0.0
H105 H 0.53701 0.99282 0.08785 0.0
H106 H 0.42116 0.96272 0.03227 0.0
H107 H 0.41478 0.96335 0.98929 0.0
H108 H 0.51503 0.98949 0.92323 0.0
H109 H 0.62654 0.03015 0.97926 0.0
H110 H 0.63172 0.03216 0.02226 0.0
H111 H 0.21244 0.93139 0.92065 0.0
H112 H 0.25093 0.90984 0.94141 0.0
H113 H 0.24454 0.88794 0.912 0.0
C114 C 0.17186 0.3667 0.62026 0.0
C115 C 0.1216 0.36031 0.61925 0.0
C116 C 0.09206 0.39763 0.58584 0.0
C117 C 0.04706 0.40165 0.58074 0.0
C118 C 0.03122 0.43548 0.56878 0.0
C119 C 0.06137 0.46562 0.56164 0.0
C120 C 0.10692 0.46171 0.56697 0.0
C121 C 0.12182 0.42746 0.57878 0.0
C122 C 0.98255 0.43855 0.56319 0.0
C123 C 0.14004 0.49312 0.55948 0.0
C124 C 0.9048 0.69892 0.63193 0.0
C125 C 0.95153 0.70605 0.62186 0.0
C126 C 0.96699 0.66953 0.58531 0.0
C127 C 0.01251 0.66164 0.58464 0.0
C128 C 0.02925 0.62844 0.57203 0.0
C129 C -0.00048 0.60233 0.5603 0.0
C130 C 0.95332 0.61 0.56144 0.0
C131 C 0.93773 0.64409 0.57356 0.0
C132 C 0.07867 0.62152 0.57103 0.0
C133 C 0.9204 0.58231 0.54985 0.0
C134 C 0.99356 0.67396 0.40717 0.0
C135 C 0.03553 0.67033 0.41736 0.0
C136 C 0.04825 0.63484 0.42861 0.0
C137 C 0.01777 0.60281 0.43017 0.0
C138 C 0.9759 0.60606 0.41911 0.0
C139 C 0.96459 0.64154 0.40739 0.0
C140 C 0.09385 0.63196 0.43931 0.0
C141 C 0.94262 0.57255 0.42032 0.0
C142 C 0.15479 0.31061 0.4254 0.0
C143 C 0.10889 0.31853 0.41508 0.0
C144 C 0.09509 0.38918 0.4109 0.0
C145 C 0.12402 0.4216 0.41171 0.0
C146 C 0.11074 0.45781 0.42229 0.0
C147 C 0.06702 0.46177 0.43157 0.0
C148 C 0.03674 0.42975 0.42925 0.0
C149 C 0.05132 0.39357 0.41916 0.0
C150 C 0.14384 0.49131 0.42432 0.0
C151 C 0.98935 0.43335 0.43801 0.0
C152 C 0.04597 0.49988 0.54712 0.0
C153 C 0.0299 0.53371 0.55913 0.0
C154 C 0.01673 0.56753 0.54643 0.0
C155 C 0.01985 0.56778 0.52102 0.0
C156 C 0.00806 0.60159 0.50769 0.0
C157 C 0.01056 0.60133 0.48271 0.0
C158 C 0.02555 0.56744 0.47004 0.0
C159 C 0.02864 0.56703 0.44462 0.0
C160 C 0.04234 0.53237 0.43259 0.0
C161 C 0.0539 0.4981 0.44529 0.0
C162 C 0.05251 0.49847 0.47073 0.0
C163 C 0.06558 0.46507 0.4841 0.0
C164 C 0.06343 0.46544 0.50907 0.0
C165 C 0.04825 0.49926 0.52172 0.0
C166 C 0.03524 0.53337 0.50864 0.0
C167 C 0.03778 0.5331 0.48311 0.0
C168 C 0.92796 0.75015 0.41756 0.0
C169 C 0.97645 0.74412 0.41 0.0
O170 O 0.10678 0.36345 0.59585 0.0
O171 O 0.11006 0.35383 0.4022 0.0
O172 O 0.9804 0.7087 0.39722 0.0
O173 O 0.95092 0.70191 0.59709 0.0
H174 H 0.10502 0.38336 0.63074 0.0
H175 H 0.18012 0.39843 0.6171 0.0
H176 H 0.18916 0.34796 0.60656 0.0
H177 H 0.1845 0.35899 0.63833 0.0
H178 H 0.0245 0.37799 0.58592 0.0
H179 H 0.15687 0.42348 0.58178 0.0
H180 H 0.96875 0.46648 0.57102 0.0
H181 H 0.96327 0.41289 0.5703 0.0
H182 H 0.9782 0.43999 0.54342 0.0
H183 H 0.17354 0.48736 0.56679 0.0
H184 H 0.12865 0.52295 0.56569 0.0
H185 H 0.14258 0.49394 0.53957 0.0
H186 H 0.97395 0.68334 0.62985 0.0
H187 H 0.90454 0.70124 0.65186 0.0
H188 H 0.89346 0.66855 0.62691 0.0
H189 H 0.88118 0.72103 0.62457 0.0
H190 H 0.03481 0.68184 0.59373 0.0
H191 H 0.90255 0.65066 0.57429 0.0
H192 H 0.08673 0.59397 0.58104 0.0
H193 H 0.09747 0.64668 0.57898 0.0
H194 H 0.08992 0.61714 0.55212 0.0
H195 H 0.8858 0.58883 0.55573 0.0
H196 H 0.92819 0.55083 0.5542 0.0
H197 H 0.92249 0.58554 0.53003 0.0
H198 H 0.99654 0.7429 0.42667 0.0
H199 H 0.05816 0.69537 0.41656 0.0
H200 H 0.93242 0.6447 0.39917 0.0
H201 H 0.09104 0.6336 0.45919 0.0
H202 H 0.11593 0.65643 0.4331 0.0
H203 H 0.10946 0.60295 0.43455 0.0
H204 H 0.91062 0.58064 0.41196 0.0
H205 H 0.93627 0.56419 0.43934 0.0
H206 H 0.95629 0.54593 0.41091 0.0
H207 H 0.085 0.32089 0.43047 0.0
H208 H 0.15454 0.28272 0.4361 0.0
H209 H 0.16437 0.33561 0.43741 0.0
H210 H 0.18 0.30792 0.41074 0.0
H211 H 0.15761 0.41789 0.40491 0.0
H212 H 0.02872 0.3686 0.41779 0.0
H213 H 0.1471 0.50037 0.44344 0.0
H214 H 0.13182 0.5176 0.41428 0.0
H215 H 0.17709 0.48286 0.41714 0.0
H216 H 0.96832 0.40869 0.43121 0.0
H217 H 0.97491 0.46219 0.43231 0.0
H218 H 0.98847 0.43261 0.45795 0.0
H219 H 0.02785 0.5338 0.57861 0.0
H220 H 0.99664 0.62867 0.5164 0.0
H221 H 0.00055 0.62812 0.47348 0.0
H222 H 0.04401 0.53205 0.4131 0.0
H223 H 0.07769 0.43819 0.47543 0.0
H224 H 0.07374 0.43876 0.51832 0.0
H225 H 0.90643 0.75153 0.40152 0.0
H226 H 0.92409 0.77816 0.4281 0.0
H227 H 0.91683 0.72493 0.429 0.0
O228 O 0.99347 0.01073 0.23699 0.0
Cd229 Cd 0.04802 0.99204 0.25576 0.0
Cd230 Cd 0.06578 0.07127 0.25703 0.0
O231 O 0.01043 0.07462 0.23565 0.0
O232 O 0.03448 0.93767 0.26822 0.0
O233 O 0.04696 0.98972 0.29175 0.0
C234 C 0.03802 0.95224 0.2896 0.0
C235 C 0.06767 0.1113 0.29132 0.0
C236 C 0.98499 0.04594 0.23007 0.0
C237 C 0.1351 0.01777 0.2347 0.0
O238 O 0.12509 0.05273 0.24179 0.0
O239 O 0.1082 0.98909 0.23788 0.0
O240 O 0.07641 0.12566 0.27032 0.0
O241 O 0.05788 0.07392 0.29285 0.0
O242 O 0.00085 0.07333 0.7651 0.0
Cd243 Cd 0.06163 0.07448 0.74806 0.0
Cd244 Cd 0.04621 0.99448 0.74117 0.0
O245 O 0.99122 0.00837 0.76224 0.0
O246 O 0.07275 0.13121 0.73983 0.0
O247 O 0.06652 0.08352 0.71245 0.0
C248 C 0.07248 0.12076 0.7175 0.0
C249 C 0.03397 0.94763 0.7106 0.0
C250 C 0.97823 0.04234 0.7697 0.0
C251 C 0.1282 0.01864 0.76838 0.0
O252 O 0.1068 0.99117 0.75786 0.0
O253 O 0.11505 0.05457 0.76749 0.0
O254 O 0.03563 0.93757 0.73285 0.0
O255 O 0.03947 0.98478 0.70543 0.0
H256 H 0.3158 0.89306 0.1601 0.0
H257 H 0.40866 0.98882 0.17399 0.0
H258 H 0.3493 0.02706 0.19467 0.0
H259 H 0.21833 0.95457 0.15078 0.0
H260 H 0.18151 0.92043 0.166 0.0
H261 H 0.23049 0.90197 0.15078 0.0
H262 H 0.25579 0.86835 0.19015 0.0
H263 H 0.20697 0.88676 0.20549 0.0
H264 H 0.26111 0.89804 0.21704 0.0
H265 H 0.28042 0.05402 0.21466 0.0
H266 H 0.20749 0.06695 0.2338 0.0
H267 H 0.16071 0.95195 0.20862 0.0
C268 C 0.32352 0.92214 0.16743 0.0
C269 C 0.36679 0.938 0.16554 0.0
C270 C 0.3757 0.97617 0.1753 0.0
C271 C 0.34223 0.99809 0.18702 0.0
C272 C 0.30012 0.98131 0.18893 0.0
C273 C 0.29069 0.94416 0.17948 0.0
C274 C 0.24331 0.93209 0.185 0.0
C275 C 0.21685 0.92698 0.16175 0.0
C276 C 0.24172 0.89406 0.20034 0.0
C277 C 0.22769 0.96811 0.19922 0.0
C278 C 0.2608 0.99635 0.20105 0.0
C279 C 0.2542 0.03215 0.21334 0.0
C280 C 0.21267 0.03922 0.22413 0.0
C281 C 0.17846 0.01041 0.22279 0.0
C282 C 0.18624 0.97447 0.21009 0.0
H283 H 0.09933 0.34056 0.66564 0.0
H284 H 0.1221 0.2878 0.59529 0.0
H285 H 0.10928 0.22079 0.61233 0.0
H286 H 0.15589 0.26652 0.69826 0.0
H287 H 0.11834 0.26763 0.72372 0.0
H288 H 0.12583 0.31148 0.70562 0.0
H289 H 0.04123 0.31458 0.69824 0.0
H290 H 0.03343 0.27083 0.71645 0.0
H291 H 0.01337 0.27161 0.68609 0.0
H292 H 0.09581 0.15919 0.63754 0.0
H293 H 0.08485 0.10816 0.66905 0.0
H294 H 0.07356 0.20173 0.72289 0.0
C295 C 0.10072 0.31492 0.65376 0.0
C296 C 0.11035 0.31945 0.62903 0.0
C297 C 0.11351 0.28509 0.61417 0.0
C298 C 0.10647 0.24693 0.6237 0.0
C299 C 0.09687 0.24358 0.64817 0.0
C300 C 0.0941 0.27668 0.663 0.0
C301 C 0.08549 0.26496 0.68886 0.0
C302 C 0.12367 0.27844 0.70506 0.0
C303 C 0.04071 0.28147 0.69794 0.0
C304 C 0.08421 0.22007 0.68633 0.0
C305 C 0.09049 0.20825 0.66272 0.0
C306 C 0.09079 0.16812 0.65609 0.0
C307 C 0.08455 0.13936 0.67409 0.0
C308 C 0.07849 0.15093 0.69842 0.0
C309 C 0.07828 0.19186 0.70448 0.0
H310 H 0.76298 0.98759 0.16231 0.0
H311 H 0.75145 0.1111 0.14073 0.0
H312 H 0.82173 0.12659 0.16135 0.0
H313 H 0.8049 0.00639 0.22056 0.0
H314 H 0.84192 0.96421 0.22029 0.0
H315 H 0.7919 0.96275 0.20301 0.0
H316 H 0.83786 0.94719 0.1644 0.0
H317 H 0.88803 0.94838 0.18159 0.0
H318 H 0.88252 0.97998 0.1557 0.0
H319 H 0.89228 0.12853 0.18541 0.0
H320 H 0.95801 0.11679 0.21047 0.0
H321 H 0.92245 0.99174 0.21602 0.0
C322 C 0.77561 0.01777 0.16163 0.0
C323 C 0.75236 0.04803 0.14956 0.0
C324 C 0.76931 0.0874 0.14954 0.0
C325 C 0.80902 0.09645 0.16124 0.0
C326 C 0.83116 0.06582 0.17295 0.0
C327 C 0.81509 0.02726 0.17317 0.0
C328 C 0.84457 0.99992 0.18744 0.0
C329 C 0.81931 0.98229 0.20911 0.0
C330 C 0.86443 0.96693 0.17132 0.0
C331 C 0.87968 0.02912 0.19534 0.0
C332 C 0.87144 0.06698 0.18683 0.0
C333 C 0.89915 0.09897 0.1921 0.0
C334 C 0.93636 0.092 0.20638 0.0
C335 C 0.94548 0.05333 0.21521 0.0
C336 C 0.91657 0.02164 0.20954 0.0
H337 H 0.99083 0.72722 0.66385 0.0
H338 H 0.94509 0.77769 0.59701 0.0
H339 H 0.96647 0.84491 0.61114 0.0
H340 H 0.94868 0.80342 0.70097 0.0
H341 H 0.99386 0.80227 0.72185 0.0
H342 H 0.9795 0.75803 0.70533 0.0
H343 H 0.06009 0.75281 0.68884 0.0
H344 H 0.07476 0.79704 0.70539 0.0
H345 H 0.08446 0.79468 0.67338 0.0
H346 H 0.99023 0.90738 0.63375 0.0
H347 H 0.01022 0.95927 0.66355 0.0
H348 H 0.03702 0.86703 0.7158 0.0
C349 C 0.98628 0.75235 0.65199 0.0
C350 C 0.9676 0.74708 0.62908 0.0
C351 C 0.96051 0.78085 0.61438 0.0
C352 C 0.97245 0.81916 0.62228 0.0
C353 C 0.99088 0.82323 0.64501 0.0
C354 C 0.99755 0.79066 0.65967 0.0
C355 C 0.01475 0.80306 0.68397 0.0
C356 C 0.98225 0.79099 0.70421 0.0
C357 C 0.06128 0.78588 0.68813 0.0
C358 C 0.01624 0.84777 0.68088 0.0
C359 C 0.00291 0.85894 0.65822 0.0
C360 C 0.00089 0.89892 0.65151 0.0
C361 C 0.01234 0.92817 0.66851 0.0
C362 C 0.02505 0.91719 0.69198 0.0
C363 C 0.02736 0.87642 0.69802 0.0
H364 H 0.24336 0.0111 0.89454 0.0
H365 H 0.29881 0.89734 0.87248 0.0
H366 H 0.27532 0.90968 0.83081 0.0
H367 H 0.14869 0.00444 0.86184 0.0
H368 H 0.1453 0.05629 0.85377 0.0
H369 H 0.1734 0.04199 0.88067 0.0
H370 H 0.24444 0.07822 0.86584 0.0
H371 H 0.21643 0.09276 0.83882 0.0
H372 H 0.26805 0.0658 0.83684 0.0
H373 H 0.2355 0.92895 0.7937 0.0
H374 H 0.18279 0.95409 0.76374 0.0
H375 H 0.15492 0.05657 0.80921 0.0
C376 C 0.25187 0.9895 0.88072 0.0
C377 C 0.27375 0.95371 0.88656 0.0
C378 C 0.28296 0.92536 0.86823 0.0
C379 C 0.26977 0.93214 0.84454 0.0
C380 C 0.2476 0.96749 0.83943 0.0
C381 C 0.23905 0.9959 0.85696 0.0
C382 C 0.21071 0.02938 0.84736 0.0
C383 C 0.16695 0.03321 0.86176 0.0
C384 C 0.23646 0.06888 0.8472 0.0
C385 C 0.20291 0.01445 0.82204 0.0
C386 C 0.22497 0.97895 0.81773 0.0
C387 C 0.21897 0.95722 0.79662 0.0
C388 C 0.18891 0.97166 0.77973 0.0
C389 C 0.16537 0.00755 0.78402 0.0
C390 C 0.17348 0.02968 0.80514 0.0
H391 H 0.12548 0.30715 0.36632 0.0
H392 H 0.06396 0.25124 0.42844 0.0
H393 H 0.04603 0.19212 0.40369 0.0
H394 H 0.04641 0.27085 0.32245 0.0
H395 H 0.08821 0.26392 0.29937 0.0
H396 H 0.09512 0.30196 0.32195 0.0
H397 H 0.17115 0.27161 0.33306 0.0
H398 H 0.16434 0.23333 0.31064 0.0
H399 H 0.17431 0.21986 0.34142 0.0
H400 H 0.03773 0.13802 0.37247 0.0
H401 H 0.03662 0.09421 0.33662 0.0
H402 H 0.10144 0.18674 0.29477 0.0
C403 C 0.10752 0.28279 0.37461 0.0
C404 C 0.09517 0.28408 0.39919 0.0
C405 C 0.07288 0.25107 0.40952 0.0
C406 C 0.06274 0.21738 0.39565 0.0
C407 C 0.07517 0.21715 0.37145 0.0
C408 C 0.09679 0.2491 0.36098 0.0
C409 C 0.10687 0.24122 0.33467 0.0
C410 C 0.0827 0.27127 0.31867 0.0
C411 C 0.15715 0.24151 0.32967 0.0
C412 C 0.0878 0.19975 0.33201 0.0
C413 C 0.06986 0.18628 0.35344 0.0
C414 C 0.05138 0.14836 0.35553 0.0
C415 C 0.05101 0.12366 0.33511 0.0
C416 C 0.06872 0.13713 0.31289 0.0
C417 C 0.08731 0.1757 0.31144 0.0
H418 H 0.79598 0.96136 0.86164 0.0
H419 H 0.76362 0.08435 0.8784 0.0
H420 H 0.81471 0.10673 0.84606 0.0
H421 H 0.90935 0.97678 0.85179 0.0
H422 H 0.91479 0.94105 0.82765 0.0
H423 H 0.87225 0.93476 0.85027 0.0
H424 H 0.81243 0.93268 0.81726 0.0
H425 H 0.85487 0.93887 0.79449 0.0
H426 H 0.80882 0.97307 0.79612 0.0
H427 H 0.87353 0.11559 0.81406 0.0
H428 H 0.93637 0.11042 0.78534 0.0
H429 H 0.93003 0.98139 0.78966 0.0
C430 C 0.79885 0.99296 0.85807 0.0
C431 C 0.77494 0.02109 0.87203 0.0
C432 C 0.78076 0.06229 0.86747 0.0
C433 C 0.80973 0.07525 0.8492 0.0
C434 C 0.83277 0.04665 0.83575 0.0
C435 C 0.8276 0.00635 0.83996 0.0
C436 C 0.85841 0.98178 0.82415 0.0
C437 C 0.8906 0.95716 0.83938 0.0
C438 C 0.83205 0.95503 0.80699 0.0
C439 C 0.88234 0.01455 0.81067 0.0
C440 C 0.86689 0.05175 0.81748 0.0
C441 C 0.88556 0.08661 0.80838 0.0
C442 C 0.92129 0.08336 0.79211 0.0
C443 C 0.93803 0.0455 0.78514 0.0
C444 C 0.91772 0.01076 0.79435 0.0
H445 H 0.97085 0.7547 0.36065 0.0
H446 H 0.0148 0.81307 0.42581 0.0
H447 H 0.03569 0.8727 0.40229 0.0
H448 H 0.05794 0.79378 0.32146 0.0
H449 H 0.02159 0.79914 0.29622 0.0
H450 H 0.01109 0.76094 0.3182 0.0
H451 H 0.93166 0.78856 0.32508 0.0
H452 H 0.942 0.82701 0.30325 0.0
H453 H 0.92424 0.84018 0.3333 0.0
H454 H 0.04902 0.92684 0.37185 0.0
H455 H 0.05699 0.9705 0.33639 0.0
H456 H 0.00634 0.87579 0.29102 0.0
C457 C 0.9856 0.77975 0.36989 0.0
C458 C 0.99218 0.77899 0.39499 0.0
C459 C 0.01036 0.81284 0.40653 0.0
C460 C 0.02213 0.84683 0.39335 0.0
C461 C 0.01543 0.84653 0.36863 0.0
C462 C 0.99788 0.81379 0.35698 0.0
C463 C 0.99373 0.82125 0.33029 0.0
C464 C 0.02283 0.79204 0.31569 0.0
C465 C 0.94501 0.81913 0.32254 0.0
C466 C 0.01144 0.86338 0.32877 0.0
C467 C 0.02359 0.87751 0.35109 0.0
C468 C 0.03989 0.91601 0.35425 0.0
C469 C 0.04418 0.94062 0.33403 0.0
C470 C 0.03247 0.92651 0.31094 0.0
C471 C 0.01586 0.88737 0.3084 0.0
loop_
_geom_bond_atom_site_label_1
_geom_bond_atom_site_label_2
_geom_bond_distance
_geom_bond_site_symmetry_2
_ccdc_geom_bond_type
C0 C1 1.560 . S
C0 H61 0.959 . S
C0 H62 0.959 . S
C0 H63 0.960 . S
C1 C0 1.560 . S
C1 O56 1.426 . S
C1 H60 0.980 . S
C2 C3 1.407 1_545 S
C2 C7 1.418 . S
C2 O56 1.334 . S
C3 C2 1.407 1_565 S
C3 C4 1.360 . S
C3 H64 0.929 . S
C4 C3 1.360 . S
C4 C5 1.401 1_565 S
C4 C8 1.527 . S
C5 C4 1.401 1_545 S
C5 C6 1.405 . S
C5 C38 1.587 1_545 S
C6 C5 1.405 . S
C6 C7 1.332 . S
C6 C9 1.496 . S
C7 C2 1.418 . S
C7 C6 1.332 . S
C7 H65 0.929 . S
C8 C4 1.527 . S
C8 H66 0.959 . S
C8 H67 0.961 . S
C8 H68 0.961 . S
C9 C6 1.496 . S
C9 H69 0.960 . S
C9 H70 0.960 . S
C9 H71 0.961 . S
C10 C11 1.517 . S
C10 H73 0.961 1_565 S
C10 H74 0.960 . S
C10 H75 0.959 . S
C11 C10 1.517 . S
C11 O59 1.468 . S
C11 H72 0.980 1_565 S
C12 C13 1.349 1_565 S
C12 C17 1.367 . S
C12 O59 1.408 . S
C13 C12 1.349 1_545 S
C13 C14 1.407 . S
C13 H76 0.930 . S
C14 C13 1.407 . S
C14 C15 1.449 1_545 S
C14 C18 1.535 . S
C15 C14 1.449 1_565 S
C15 C16 1.384 . S
C15 C40 1.553 . S
C16 C15 1.384 . S
C16 C17 1.364 . S
C16 C19 1.450 . S
C17 C12 1.367 . S
C17 C16 1.364 . S
C17 H77 0.931 . S
C18 C14 1.535 . S
C18 H78 0.959 . S
C18 H79 0.961 . S
C18 H80 0.959 . S
C19 C16 1.450 . S
C19 H81 0.960 . S
C19 H82 0.960 . S
C19 H83 0.960 . S
C20 C21 1.309 1_565 S
C20 C25 1.304 . S
C20 O58 1.435 . S
C21 C20 1.309 1_545 S
C21 C22 1.476 . S
C21 H85 0.930 . S
C22 C21 1.476 . S
C22 C23 1.400 1_545 S
C22 C26 1.567 . S
C23 C22 1.400 1_565 S
C23 C24 1.373 . S
C23 C45 1.432 . S
C24 C23 1.373 . S
C24 C25 1.339 . S
C24 C27 1.530 . S
C25 C20 1.304 . S
C25 C24 1.339 . S
C25 H86 0.930 . S
C26 C22 1.567 . S
C26 H87 0.961 . S
C26 H88 0.960 . S
C26 H89 0.958 . S
C27 C24 1.530 . S
C27 H90 0.961 . S
C27 H91 0.960 . S
C27 H92 0.960 . S
C28 C29 1.530 . S
C28 H94 0.961 . S
C28 H95 0.961 . S
C28 H96 0.959 . S
C29 C28 1.530 . S
C29 O57 1.412 . S
C29 H93 0.980 . S
C30 C31 1.288 . S
C30 C35 1.377 1_545 S
C30 O57 1.393 . S
C31 C30 1.288 . S
C31 C32 1.369 . S
C31 H97 0.932 . S
C32 C31 1.369 . S
C32 C33 1.398 . S
C32 C36 1.527 . S
C33 C32 1.398 . S
C33 C34 1.380 1_545 S
C33 C47 1.497 . S
C34 C33 1.380 1_565 S
C34 C35 1.383 . S
C34 C37 1.603 . S
C35 C30 1.377 1_565 S
C35 C34 1.383 . S
C35 H98 0.929 . S
C36 C32 1.527 . S
C36 H99 0.961 . S
C36 H100 0.959 . S
C36 H101 0.959 . S
C37 C34 1.603 . S
C37 H102 0.960 . S
C37 H103 0.962 . S
C37 H104 0.961 . S
C38 C5 1.587 1_565 S
C38 C39 1.360 . S
C38 C51 1.412 . S
C39 C38 1.360 . S
C39 C40 1.365 . S
C39 H105 0.929 . S
C40 C15 1.553 . S
C40 C39 1.365 . S
C40 C41 1.404 . S
C41 C40 1.404 . S
C41 C42 1.395 . S
C41 C52 1.451 . S
C42 C41 1.395 . S
C42 C43 1.334 . S
C42 H106 0.930 . S
C43 C42 1.334 . S
C43 C44 1.452 1_554 S
C43 H107 0.924 1_554 S
C44 C43 1.452 1_556 S
C44 C45 1.445 . S
C44 C53 1.395 . S
C45 C23 1.432 . S
C45 C44 1.445 . S
C45 C46 1.370 . S
C46 C45 1.370 . S
C46 C47 1.438 1_565 S
C46 H108 0.932 . S
C47 C33 1.497 . S
C47 C46 1.438 1_545 S
C47 C48 1.358 1_545 S
C48 C47 1.358 1_565 S
C48 C49 1.399 1_565 S
C48 C53 1.449 . S
C49 C48 1.399 1_545 S
C49 C50 1.347 1_556 S
C49 H109 0.929 . S
C50 C49 1.347 1_554 S
C50 C51 1.455 1_545 S
C50 H110 0.930 . S
C51 C38 1.412 . S
C51 C50 1.455 1_565 S
C51 C52 1.331 . S
C52 C41 1.451 . S
C52 C51 1.331 . S
C52 C53 1.497 1_554 S
C53 C44 1.395 . S
C53 C48 1.449 . S
C53 C52 1.497 1_556 S
C54 C55 1.582 1_565 S
C54 H111 0.962 . S
C54 H112 0.959 . S
C54 H113 0.958 . S
C55 C54 1.582 1_545 S
C55 O58 1.458 1_545 S
C55 H84 0.980 . S
O56 C1 1.426 . S
O56 C2 1.334 . S
O57 C29 1.412 . S
O57 C30 1.393 . S
O58 C20 1.435 . S
O58 C55 1.458 1_565 S
O59 C11 1.468 . S
O59 C12 1.408 . S
H60 C1 0.980 . S
H61 C0 0.959 . S
H62 C0 0.959 . S
H63 C0 0.960 . S
H64 C3 0.929 . S
H65 C7 0.929 . S
H66 C8 0.959 . S
H67 C8 0.961 . S
H68 C8 0.961 . S
H69 C9 0.960 . S
H70 C9 0.960 . S
H71 C9 0.961 . S
H72 C11 0.980 1_545 S
H73 C10 0.961 1_545 S
H74 C10 0.960 . S
H75 C10 0.959 . S
H76 C13 0.930 . S
H77 C17 0.931 . S
H78 C18 0.959 . S
H79 C18 0.961 . S
H80 C18 0.959 . S
H81 C19 0.960 . S
H82 C19 0.960 . S
H83 C19 0.960 . S
H84 C55 0.980 . S
H85 C21 0.930 . S
H86 C25 0.930 . S
H87 C26 0.961 . S
H88 C26 0.960 . S
H89 C26 0.958 . S
H90 C27 0.961 . S
H91 C27 0.960 . S
H92 C27 0.960 . S
H93 C29 0.980 . S
H94 C28 0.961 . S
H95 C28 0.961 . S
H96 C28 0.959 . S
H97 C31 0.932 . S
H98 C35 0.929 . S
H99 C36 0.961 . S
H100 C36 0.959 . S
H101 C36 0.959 . S
H102 C37 0.960 . S
H103 C37 0.962 . S
H104 C37 0.961 . S
H105 C39 0.929 . S
H106 C42 0.930 . S
H107 C43 0.924 1_556 S
H108 C46 0.932 . S
H109 C49 0.929 . S
H110 C50 0.930 . S
H111 C54 0.962 . S
H112 C54 0.959 . S
H113 C54 0.958 . S
C114 C115 1.560 . S
C114 H175 0.959 . S
C114 H176 0.959 . S
C114 H177 0.960 . S
C115 C114 1.560 . S
C115 O170 1.426 . S
C115 H174 0.980 . S
C116 C117 1.407 . S
C116 C121 1.418 . S
C116 O170 1.334 . S
C117 C116 1.407 . S
C117 C118 1.360 . S
C117 H178 0.929 . S
C118 C117 1.360 . S
C118 C119 1.401 . S
C118 C122 1.527 1_455 S
C119 C118 1.401 . S
C119 C120 1.405 . S
C119 C152 1.587 . S
C120 C119 1.405 . S
C120 C121 1.332 . S
C120 C123 1.496 . S
C121 C116 1.418 . S
C121 C120 1.332 . S
C121 H179 0.929 . S
C122 C118 1.527 1_655 S
C122 H180 0.959 . S
C122 H181 0.961 . S
C122 H182 0.961 . S
C123 C120 1.496 . S
C123 H183 0.960 . S
C123 H184 0.960 . S
C123 H185 0.961 . S
C124 C125 1.517 . S
C124 H187 0.961 . S
C124 H188 0.960 1_455 S
C124 H189 0.959 . S
C125 C124 1.517 . S
C125 O173 1.468 1_455 S
C125 H186 0.980 . S
C126 C127 1.349 1_655 S
C126 C131 1.367 . S
C126 O173 1.408 . S
C127 C126 1.349 1_455 S
C127 C128 1.407 . S
C127 H190 0.930 . S
C128 C127 1.407 . S
C128 C129 1.449 . S
C128 C132 1.535 . S
C129 C128 1.449 . S
C129 C130 1.384 1_455 S
C129 C154 1.553 . S
C130 C129 1.384 1_655 S
C130 C131 1.364 . S
C130 C133 1.450 . S
C131 C126 1.367 . S
C131 C130 1.364 . S
C131 H191 0.931 . S
C132 C128 1.535 . S
C132 H192 0.959 . S
C132 H193 0.961 . S
C132 H194 0.959 . S
C133 C130 1.450 . S
C133 H195 0.960 . S
C133 H196 0.960 . S
C133 H197 0.960 . S
C134 C135 1.309 . S
C134 C139 1.304 1_455 S
C134 O172 1.438 . S
C135 C134 1.309 . S
C135 C136 1.476 . S
C135 H199 0.930 . S
C136 C135 1.476 . S
C136 C137 1.400 . S
C136 C140 1.567 . S
C137 C136 1.400 . S
C137 C138 1.373 1_455 S
C137 C159 1.432 . S
C138 C137 1.373 1_655 S
C138 C139 1.339 . S
C138 C141 1.530 . S
C139 C134 1.304 1_655 S
C139 C138 1.339 . S
C139 H200 0.930 . S
C140 C136 1.567 . S
C140 H201 0.961 . S
C140 H202 0.960 . S
C140 H203 0.958 . S
C141 C138 1.530 . S
C141 H204 0.961 . S
C141 H205 0.960 . S
C141 H206 0.960 . S
C142 C143 1.530 . S
C142 H208 0.961 . S
C142 H209 0.961 . S
C142 H210 0.959 . S
C143 C142 1.530 . S
C143 O171 1.412 . S
C143 H207 0.980 . S
C144 C145 1.288 . S
C144 C149 1.377 . S
C144 O171 1.393 . S
C145 C144 1.288 . S
C145 C146 1.369 . S
C145 H211 0.932 . S
C146 C145 1.369 . S
C146 C147 1.398 . S
C146 C150 1.527 . S
C147 C146 1.398 . S
C147 C148 1.380 . S
C147 C161 1.497 . S
C148 C147 1.380 . S
C148 C149 1.383 . S
C148 C151 1.603 1_455 S
C149 C144 1.377 . S
C149 C148 1.383 . S
C149 H212 0.929 . S
C150 C146 1.527 . S
C150 H213 0.961 . S
C150 H214 0.959 . S
C150 H215 0.959 . S
C151 C148 1.603 1_655 S
C151 H216 0.960 . S
C151 H217 0.962 . S
C151 H218 0.961 . S
C152 C119 1.587 . S
C152 C153 1.360 . S
C152 C165 1.412 . S
C153 C152 1.360 . S
C153 C154 1.365 . S
C153 H219 0.929 . S
C154 C129 1.553 . S
C154 C153 1.365 . S
C154 C155 1.404 . S
C155 C154 1.404 . S
C155 C156 1.395 . S
C155 C166 1.451 . S
C156 C155 1.395 . S
C156 C157 1.322 . S
C156 H220 0.930 . S
C157 C156 1.322 . S
C157 C158 1.459 . S
C157 H221 0.929 . S
C158 C157 1.459 . S
C158 C159 1.445 . S
C158 C167 1.395 . S
C159 C137 1.432 . S
C159 C158 1.445 . S
C159 C160 1.370 . S
C160 C159 1.370 . S
C160 C161 1.438 . S
C160 H222 0.930 . S
C161 C147 1.497 . S
C161 C160 1.438 . S
C161 C162 1.360 . S
C162 C161 1.360 . S
C162 C163 1.401 . S
C162 C167 1.446 . S
C163 C162 1.401 . S
C163 C164 1.347 . S
C163 H223 0.929 . S
C164 C163 1.347 . S
C164 C165 1.455 . S
C164 H224 0.930 . S
C165 C152 1.412 . S
C165 C164 1.455 . S
C165 C166 1.331 . S
C166 C155 1.451 . S
C166 C165 1.331 . S
C166 C167 1.497 . S
C167 C158 1.395 . S
C167 C162 1.446 . S
C167 C166 1.497 . S
C168 C169 1.582 . S
C168 H225 0.962 . S
C168 H226 0.959 . S
C168 H227 0.958 1_455 S
C169 C168 1.582 . S
C169 O172 1.472 . S
C169 H198 0.980 . S
O170 C115 1.426 . S
O170 C116 1.334 . S
O171 C143 1.412 . S
O171 C144 1.393 . S
O172 C134 1.438 . S
O172 C169 1.472 . S
O173 C125 1.468 1_655 S
O173 C126 1.408 . S
H174 C115 0.980 . S
H175 C114 0.959 . S
H176 C114 0.959 . S
H177 C114 0.960 . S
H178 C117 0.929 . S
H179 C121 0.929 . S
H180 C122 0.959 . S
H181 C122 0.961 . S
H182 C122 0.961 . S
H183 C123 0.960 . S
H184 C123 0.960 . S
H185 C123 0.961 . S
H186 C125 0.980 . S
H187 C124 0.961 . S
H188 C124 0.960 1_655 S
H189 C124 0.959 . S
H190 C127 0.930 . S
H191 C131 0.931 . S
H192 C132 0.959 . S
H193 C132 0.961 . S
H194 C132 0.959 . S
H195 C133 0.960 . S
H196 C133 0.960 . S
H197 C133 0.960 . S
H198 C169 0.980 . S
H199 C135 0.930 . S
H200 C139 0.930 . S
H201 C140 0.961 . S
H202 C140 0.960 . S
H203 C140 0.958 . S
H204 C141 0.961 . S
H205 C141 0.960 . S
H206 C141 0.960 . S
H207 C143 0.980 . S
H208 C142 0.961 . S
H209 C142 0.961 . S
H210 C142 0.959 . S
H211 C145 0.932 . S
H212 C149 0.929 . S
H213 C150 0.961 . S
H214 C150 0.959 . S
H215 C150 0.959 . S
H216 C151 0.960 . S
H217 C151 0.962 . S
H218 C151 0.961 . S
H219 C153 0.929 . S
H220 C156 0.930 . S
H221 C157 0.929 . S
H222 C160 0.930 . S
H223 C163 0.929 . S
H224 C164 0.930 . S
H225 C168 0.962 . S
H226 C168 0.959 . S
H227 C168 0.958 1_655 S
O228 Cd229 2.223 . S
O228 C236 1.315 1_455 S
Cd229 O228 2.223 . S
Cd229 O232 2.297 . S
Cd229 O233 2.439 . S
Cd229 O239 2.240 1_565 S
Cd230 O231 2.240 1_455 S
Cd230 O238 2.223 . S
Cd230 O240 2.297 . S
Cd230 O241 2.439 . S
O231 Cd230 2.240 1_655 S
O231 C236 1.279 1_545 S
O232 Cd229 2.297 . S
O232 C234 1.247 . S
O233 Cd229 2.439 . S
O233 C234 1.208 . S
C234 O232 1.247 . S
C234 O233 1.208 . S
C235 O240 1.247 . S
C235 O241 1.208 . S
C236 O228 1.315 1_655 S
C236 O231 1.279 1_565 S
C237 O238 1.315 . S
C237 O239 1.279 . S
O238 Cd230 2.223 . S
O238 C237 1.315 . S
O239 Cd229 2.240 1_545 S
O239 C237 1.279 . S
O240 Cd230 2.297 . S
O240 C235 1.247 . S
O241 Cd230 2.439 . S
O241 C235 1.208 . S
O242 Cd243 2.223 . S
O242 C250 1.315 1_455 S
Cd243 O242 2.223 . S
Cd243 O246 2.297 . S
Cd243 O247 2.439 . S
Cd243 O253 2.240 . S
Cd244 O245 2.240 1_465 S
Cd244 O252 2.223 . S
Cd244 O254 2.297 . S
Cd244 O255 2.439 . S
O245 Cd244 2.240 1_645 S
O245 C250 1.279 . S
O246 Cd243 2.297 . S
O246 C248 1.247 . S
O247 Cd243 2.439 . S
O247 C248 1.208 . S
C248 O246 1.247 . S
C248 O247 1.208 . S
C249 O254 1.247 . S
C249 O255 1.208 . S
C250 O242 1.315 1_655 S
C250 O245 1.279 . S
C251 O252 1.315 . S
C251 O253 1.279 1_565 S
O252 Cd244 2.223 . S
O252 C251 1.315 . S
O253 Cd243 2.240 . S
O253 C251 1.279 1_545 S
O254 Cd244 2.297 . S
O254 C249 1.247 . S
O255 Cd244 2.439 . S
O255 C249 1.208 . S
H256 C268 0.930 . S
H257 C270 0.930 . S
H258 C271 0.930 . S
H259 C275 0.959 . S
H260 C275 0.959 . S
H261 C275 0.961 . S
H262 C276 0.960 . S
H263 C276 0.961 . S
H264 C276 0.959 . S
H265 C279 0.929 . S
H266 C280 0.931 . S
H267 C282 0.930 1_565 S
C268 H256 0.930 . S
C268 C269 1.399 1_565 S
C268 C273 1.391 1_565 S
C269 C268 1.399 1_545 S
C269 C270 1.376 . S
C270 H257 0.930 . S
C270 C269 1.376 . S
C270 C271 1.388 . S
C271 H258 0.930 . S
C271 C270 1.388 . S
C271 C272 1.390 . S
C272 C271 1.390 . S
C272 C273 1.417 . S
C272 C278 1.465 . S
C273 C268 1.391 1_545 S
C273 C272 1.417 . S
C273 C274 1.504 1_545 S
C274 C273 1.504 1_565 S
C274 C275 1.502 . S
C274 C276 1.561 . S
C274 C277 1.526 1_565 S
C275 H259 0.959 . S
C275 H260 0.959 . S
C275 H261 0.961 . S
C275 C274 1.502 . S
C276 H262 0.960 . S
C276 H263 0.961 . S
C276 H264 0.959 . S
C276 C274 1.561 . S
C277 C274 1.526 1_545 S
C277 C278 1.396 . S
C277 C282 1.390 . S
C278 C272 1.465 . S
C278 C277 1.396 . S
C278 C279 1.399 . S
C279 H265 0.929 . S
C279 C278 1.399 . S
C279 C280 1.385 . S
C280 H266 0.931 . S
C280 C279 1.385 . S
C280 C281 1.389 . S
C281 C280 1.389 . S
C281 C282 1.387 . S
C282 H267 0.930 1_545 S
C282 C277 1.390 . S
C282 C281 1.387 . S
H283 C295 0.930 . S
H284 C297 0.930 . S
H285 C298 0.930 . S
H286 C302 0.959 . S
H287 C302 0.959 . S
H288 C302 0.961 . S
H289 C303 0.963 . S
H290 C303 0.961 . S
H291 C303 0.959 . S
H292 C306 0.929 . S
H293 C307 0.931 . S
H294 C309 0.930 . S
C295 H283 0.930 . S
C295 C296 1.399 . S
C295 C300 1.399 . S
C296 C295 1.399 . S
C296 C297 1.376 . S
C297 H284 0.930 . S
C297 C296 1.376 . S
C297 C298 1.388 . S
C298 H285 0.930 . S
C298 C297 1.388 . S
C298 C299 1.390 . S
C299 C298 1.390 . S
C299 C300 1.394 . S
C299 C305 1.465 . S
C300 C295 1.399 . S
C300 C299 1.394 . S
C300 C301 1.516 . S
C301 C300 1.516 . S
C301 C302 1.502 . S
C301 C303 1.561 1_455 S
C301 C304 1.526 . S
C302 H286 0.959 . S
C302 H287 0.959 . S
C302 H288 0.961 . S
C302 C301 1.502 . S
C303 H289 0.963 . S
C303 H290 0.961 . S
C303 H291 0.959 . S
C303 C301 1.561 1_655 S
C304 C301 1.526 . S
C304 C305 1.396 . S
C304 C309 1.390 . S
C305 C299 1.465 . S
C305 C304 1.396 . S
C305 C306 1.399 . S
C306 H292 0.929 . S
C306 C305 1.399 . S
C306 C307 1.385 . S
C307 H293 0.931 . S
C307 C306 1.385 . S
C307 C308 1.389 . S
C308 C307 1.389 . S
C308 C309 1.387 . S
C309 H294 0.930 . S
C309 C304 1.390 . S
C309 C308 1.387 . S
H310 C322 0.930 . S
H311 C324 0.930 . S
H312 C325 0.930 . S
H313 C329 0.959 . S
H314 C329 0.959 . S
H315 C329 0.961 . S
H316 C330 0.960 . S
H317 C330 0.961 . S
H318 C330 0.959 . S
H319 C333 0.929 . S
H320 C334 0.931 . S
H321 C336 0.930 . S
C322 H310 0.930 . S
C322 C323 1.399 1_565 S
C322 C327 1.399 . S
C323 C322 1.399 1_545 S
C323 C324 1.376 . S
C324 H311 0.930 . S
C324 C323 1.376 . S
C324 C325 1.388 . S
C325 H312 0.930 . S
C325 C324 1.388 . S
C325 C326 1.390 . S
C326 C325 1.390 . S
C326 C327 1.394 1_545 S
C326 C332 1.465 . S
C327 C322 1.399 . S
C327 C326 1.394 1_565 S
C327 C328 1.516 . S
C328 C327 1.516 . S
C328 C329 1.502 . S
C328 C330 1.561 . S
C328 C331 1.526 . S
C329 H313 0.959 . S
C329 H314 0.959 . S
C329 H315 0.961 . S
C329 C328 1.502 . S
C330 H316 0.960 . S
C330 H317 0.961 . S
C330 H318 0.959 . S
C330 C328 1.561 . S
C331 C328 1.526 . S
C331 C332 1.396 1_565 S
C331 C336 1.390 . S
C332 C326 1.465 . S
C332 C331 1.396 1_545 S
C332 C333 1.399 . S
C333 H319 0.929 . S
C333 C332 1.399 . S
C333 C334 1.385 . S
C334 H320 0.931 . S
C334 C333 1.385 . S
C334 C335 1.389 . S
C335 C334 1.389 . S
C335 C336 1.387 1_545 S
C336 H321 0.930 . S
C336 C331 1.390 . S
C336 C335 1.387 1_565 S
H337 C349 0.930 . S
H338 C351 0.930 . S
H339 C352 0.930 . S
H340 C356 0.959 1_655 S
H341 C356 0.959 . S
H342 C356 0.961 . S
H343 C357 0.960 . S
H344 C357 0.961 . S
H345 C357 0.959 . S
H346 C360 0.929 . S
H347 C361 0.931 . S
H348 C363 0.930 . S
C349 H337 0.930 . S
C349 C350 1.399 . S
C349 C354 1.399 . S
C350 C349 1.399 . S
C350 C351 1.376 . S
C351 H338 0.930 . S
C351 C350 1.376 . S
C351 C352 1.388 . S
C352 H339 0.930 . S
C352 C351 1.388 . S
C352 C353 1.390 . S
C353 C352 1.390 . S
C353 C354 1.394 . S
C353 C359 1.465 . S
C354 C349 1.399 . S
C354 C353 1.394 . S
C354 C355 1.516 . S
C355 C354 1.516 . S
C355 C356 1.502 . S
C355 C357 1.561 . S
C355 C358 1.526 . S
C356 H340 0.959 1_455 S
C356 H341 0.959 . S
C356 H342 0.961 . S
C356 C355 1.502 . S
C357 H343 0.960 . S
C357 H344 0.961 . S
C357 H345 0.959 . S
C357 C355 1.561 . S
C358 C355 1.526 . S
C358 C359 1.396 . S
C358 C363 1.390 . S
C359 C353 1.465 . S
C359 C358 1.396 . S
C359 C360 1.399 . S
C360 H346 0.929 . S
C360 C359 1.399 . S
C360 C361 1.385 . S
C361 H347 0.931 . S
C361 C360 1.385 . S
C361 C362 1.389 . S
C362 C361 1.389 . S
C362 C363 1.387 . S
C363 H348 0.930 . S
C363 C358 1.390 . S
C363 C362 1.387 . S
H364 C376 0.930 . S
H365 C378 0.930 . S
H366 C379 0.930 . S
H367 C383 0.959 . S
H368 C383 0.959 . S
H369 C383 0.961 . S
H370 C384 0.960 . S
H371 C384 0.961 . S
H372 C384 0.959 . S
H373 C387 0.929 . S
H374 C388 0.931 . S
H375 C390 0.930 . S
C376 H364 0.930 . S
C376 C377 1.399 . S
C376 C381 1.399 . S
C377 C376 1.399 . S
C377 C378 1.376 1_545 S
C378 H365 0.930 . S
C378 C377 1.376 1_565 S
C378 C379 1.388 . S
C379 H366 0.930 . S
C379 C378 1.388 . S
C379 C380 1.390 . S
C380 C379 1.390 . S
C380 C381 1.394 1_565 S
C380 C386 1.465 . S
C381 C376 1.399 . S
C381 C380 1.394 1_545 S
C381 C382 1.516 . S
C382 C381 1.516 . S
C382 C383 1.502 . S
C382 C384 1.561 . S
C382 C385 1.526 . S
C383 H367 0.959 . S
C383 H368 0.959 . S
C383 H369 0.961 . S
C383 C382 1.502 . S
C384 H370 0.960 . S
C384 H371 0.961 . S
C384 H372 0.959 . S
C384 C382 1.561 . S
C385 C382 1.526 . S
C385 C386 1.396 1_545 S
C385 C390 1.390 . S
C386 C380 1.465 . S
C386 C385 1.396 1_565 S
C386 C387 1.399 . S
C387 H373 0.929 . S
C387 C386 1.399 . S
C387 C388 1.385 . S
C388 H374 0.931 . S
C388 C387 1.385 . S
C388 C389 1.389 . S
C389 C388 1.389 . S
C389 C390 1.387 1_565 S
C390 H375 0.930 . S
C390 C385 1.390 . S
C390 C389 1.387 1_545 S
H391 C403 0.930 . S
H392 C405 0.930 . S
H393 C406 0.930 . S
H394 C410 0.959 . S
H395 C410 0.959 . S
H396 C410 0.961 . S
H397 C411 0.960 . S
H398 C411 0.961 . S
H399 C411 0.959 . S
H400 C414 0.929 . S
H401 C415 0.931 . S
H402 C417 0.930 . S
C403 H391 0.930 . S
C403 C404 1.399 . S
C403 C408 1.399 . S
C404 C403 1.399 . S
C404 C405 1.376 . S
C405 H392 0.930 . S
C405 C404 1.376 . S
C405 C406 1.388 . S
C406 H393 0.930 . S
C406 C405 1.388 . S
C406 C407 1.390 . S
C407 C406 1.390 . S
C407 C408 1.394 . S
C407 C413 1.465 . S
C408 C403 1.399 . S
C408 C407 1.394 . S
C408 C409 1.516 . S
C409 C408 1.516 . S
C409 C410 1.502 . S
C409 C411 1.561 . S
C409 C412 1.526 . S
C410 H394 0.959 . S
C410 H395 0.959 . S
C410 H396 0.961 . S
C410 C409 1.502 . S
C411 H397 0.960 . S
C411 H398 0.961 . S
C411 H399 0.959 . S
C411 C409 1.561 . S
C412 C409 1.526 . S
C412 C413 1.396 . S
C412 C417 1.390 . S
C413 C407 1.465 . S
C413 C412 1.396 . S
C413 C414 1.399 . S
C414 H400 0.929 . S
C414 C413 1.399 . S
C414 C415 1.385 . S
C415 H401 0.931 . S
C415 C414 1.385 . S
C415 C416 1.389 . S
C416 C415 1.389 . S
C416 C417 1.387 . S
C417 H402 0.930 . S
C417 C412 1.390 . S
C417 C416 1.387 . S
H418 C430 0.930 . S
H419 C432 0.930 . S
H420 C433 0.930 . S
H421 C437 0.959 . S
H422 C437 0.959 . S
H423 C437 0.961 . S
H424 C438 0.960 . S
H425 C438 0.961 . S
H426 C438 0.959 . S
H427 C441 0.929 . S
H428 C442 0.931 . S
H429 C444 0.930 1_565 S
C430 H418 0.930 . S
C430 C431 1.399 1_565 S
C430 C435 1.399 . S
C431 C430 1.399 1_545 S
C431 C432 1.376 . S
C432 H419 0.930 . S
C432 C431 1.376 . S
C432 C433 1.388 . S
C433 H420 0.930 . S
C433 C432 1.388 . S
C433 C434 1.390 . S
C434 C433 1.390 . S
C434 C435 1.394 1_545 S
C434 C440 1.465 . S
C435 C430 1.399 . S
C435 C434 1.394 1_565 S
C435 C436 1.516 . S
C436 C435 1.516 . S
C436 C437 1.502 . S
C436 C438 1.561 . S
C436 C439 1.526 1_565 S
C437 H421 0.959 . S
C437 H422 0.959 . S
C437 H423 0.961 . S
C437 C436 1.502 . S
C438 H424 0.960 . S
C438 H425 0.961 . S
C438 H426 0.959 . S
C438 C436 1.561 . S
C439 C436 1.526 1_545 S
C439 C440 1.396 . S
C439 C444 1.390 . S
C440 C434 1.465 . S
C440 C439 1.396 . S
C440 C441 1.399 . S
C441 H427 0.929 . S
C441 C440 1.399 . S
C441 C442 1.385 . S
C442 H428 0.931 . S
C442 C441 1.385 . S
C442 C443 1.389 . S
C443 C442 1.389 . S
C443 C444 1.387 . S
C444 H429 0.930 1_545 S
C444 C439 1.390 . S
C444 C443 1.387 . S
H445 C457 0.930 . S
H446 C459 0.930 . S
H447 C460 0.930 . S
H448 C464 0.959 . S
H449 C464 0.959 . S
H450 C464 0.961 . S
H451 C465 0.960 . S
H452 C465 0.961 . S
H453 C465 0.959 1_655 S
H454 C468 0.929 1_655 S
H455 C469 0.924 1_655 S
H456 C471 0.930 . S
C457 H445 0.930 . S
C457 C458 1.399 . S
C457 C462 1.399 . S
C458 C457 1.399 . S
C458 C459 1.376 . S
C459 H446 0.930 . S
C459 C458 1.376 . S
C459 C460 1.388 . S
C460 H447 0.930 . S
C460 C459 1.388 . S
C460 C461 1.390 . S
C461 C460 1.390 . S
C461 C462 1.394 . S
C461 C467 1.465 . S
C462 C457 1.399 . S
C462 C461 1.394 . S
C462 C463 1.516 . S
C463 C462 1.516 . S
C463 C464 1.502 . S
C463 C465 1.561 . S
C463 C466 1.526 . S
C464 H448 0.959 . S
C464 H449 0.959 . S
C464 H450 0.961 . S
C464 C463 1.502 . S
C465 H451 0.960 . S
C465 H452 0.961 . S
C465 H453 0.959 1_455 S
C465 C463 1.561 . S
C466 C463 1.526 . S
C466 C467 1.396 . S
C466 C471 1.390 . S
C467 C461 1.465 . S
C467 C466 1.396 . S
C467 C468 1.399 . S
C468 H454 0.929 1_455 S
C468 C467 1.399 . S
C468 C469 1.386 . S
C469 H455 0.924 1_455 S
C469 C468 1.386 . S
C469 C470 1.395 . S
C470 C469 1.395 . S
C470 C471 1.387 . S
C471 H456 0.930 . S
C471 C466 1.390 . S
C471 C470 1.387 . S
C281 C237 1.607 . S
C269 C11 1.011 1_545 S
C308 C248 1.422 . S
C296 C115 1.283 . S
C335 C236 1.426 1_545 S
C323 C1 1.142 . S
C362 C249 1.557 . S
C350 C125 1.141 . S
C389 C251 1.656 . S
C377 C55 1.207 . S
C416 C235 1.488 . S
C404 C143 1.108 . S
C443 C250 1.518 . S
C431 C29 1.141 . S
C458 C169 1.084 . S
C470 C234 1.650 . S
