# Generated by pormake.
# Topology csq, (4,8)-cn, num edge types: 1
# Building blocks:
#     Node 0, Type 0, BuildingBlock: IZENUY_clean_linker_0, # of connection points: 4
#     Node 1, Type 0, BuildingBlock: IZENUY_clean_linker_0, # of connection points: 4
#     Node 2, Type 0, BuildingBlock: IZENUY_clean_linker_0, # of connection points: 4
#     Node 3, Type 0, BuildingBlock: IZENUY_clean_linker_0, # of connection points: 4
#     Node 4, Type 0, BuildingBlock: IZENUY_clean_linker_0, # of connection points: 4
#     Node 5, Type 0, BuildingBlock: IZENUY_clean_linker_0, # of connection points: 4
#     Node 6, Type 1, BuildingBlock: TAGTUT_clean_sbu_3, # of connection points: 8
#     Node 7, Type 1, BuildingBlock: TAGTUT_clean_sbu_3, # of connection points: 8
#     Node 8, Type 1, BuildingBlock: TAGTUT_clean_sbu_3, # of connection points: 8
#     Edge 9, Type (0, 1), BuildingBlock: OJICUG_clean_linker_0, # of connection points: 2
#     Edge 10, Type (0, 1), BuildingBlock: OJICUG_clean_linker_0, # of connection points: 2
#     Edge 11, Type (0, 1), BuildingBlock: OJICUG_clean_linker_0, # of connection points: 2
#     Edge 12, Type (0, 1), BuildingBlock: OJICUG_clean_linker_0, # of connection points: 2
#     Edge 13, Type (0, 1), BuildingBlock: OJICUG_clean_linker_0, # of connection points: 2
#     Edge 14, Type (0, 1), BuildingBlock: OJICUG_clean_linker_0, # of connection points: 2
#     Edge 15, Type (0, 1), BuildingBlock: OJICUG_clean_linker_0, # of connection points: 2
#     Edge 16, Type (0, 1), BuildingBlock: OJICUG_clean_linker_0, # of connection points: 2
#     Edge 17, Type (0, 1), BuildingBlock: OJICUG_clean_linker_0, # of connection points: 2
#     Edge 18, Type (0, 1), BuildingBlock: OJICUG_clean_linker_0, # of connection points: 2
#     Edge 19, Type (0, 1), BuildingBlock: OJICUG_clean_linker_0, # of connection points: 2
#     Edge 20, Type (0, 1), BuildingBlock: OJICUG_clean_linker_0, # of connection points: 2
#     Edge 21, Type (0, 1), BuildingBlock: OJICUG_clean_linker_0, # of connection points: 2
#     Edge 22, Type (0, 1), BuildingBlock: OJICUG_clean_linker_0, # of connection points: 2
#     Edge 23, Type (0, 1), BuildingBlock: OJICUG_clean_linker_0, # of connection points: 2
#     Edge 24, Type (0, 1), BuildingBlock: OJICUG_clean_linker_0, # of connection points: 2
#     Edge 25, Type (0, 1), BuildingBlock: OJICUG_clean_linker_0, # of connection points: 2
#     Edge 26, Type (0, 1), BuildingBlock: OJICUG_clean_linker_0, # of connection points: 2
#     Edge 27, Type (0, 1), BuildingBlock: OJICUG_clean_linker_0, # of connection points: 2
#     Edge 28, Type (0, 1), BuildingBlock: OJICUG_clean_linker_0, # of connection points: 2
#     Edge 29, Type (0, 1), BuildingBlock: OJICUG_clean_linker_0, # of connection points: 2
#     Edge 30, Type (0, 1), BuildingBlock: OJICUG_clean_linker_0, # of connection points: 2
#     Edge 31, Type (0, 1), BuildingBlock: OJICUG_clean_linker_0, # of connection points: 2
#     Edge 32, Type (0, 1), BuildingBlock: OJICUG_clean_linker_0, # of connection points: 2
# Relax obj value: 0.055
# Max RMSD: 0.130
# Mean RMSD: 0.120
data_MOF--net-csq--node1-TAGTUT_clean_sbu_3--node2-IZENUY_clean_linker_0--edge1-OJICUG_clean_linker_0
_symmetry_space_group_name_H-M    P1
_symmetry_Int_Tables_number       1
_symmetry_cell_setting            triclinic
loop_
_symmetry_equiv_pos_as_xyz
'x, y, z'
_cell_length_a     43.986597
_cell_length_b     43.317452
_cell_length_c     14.564375
_cell_angle_alpha  94.79777
_cell_angle_beta   94.788711
_cell_angle_gamma 119.32409
loop_
_atom_site_label
_atom_site_type_symbol
_atom_site_fract_x
_atom_site_fract_y
_atom_site_fract_z
_atom_type_partial_charge
H0 H 0.21067 0.46872 0.03479 0.0
H1 H 0.22939 0.51507 0.32244 0.0
H2 H 0.12714 0.47108 0.16326 0.0
H3 H 0.31505 0.50944 0.28191 0.0
H4 H 0.31405 0.5031 -0.01601 0.0
H5 H 0.4078 0.52892 0.16605 0.0
N6 N 0.2604 0.50224 0.18757 0.0
N7 N 0.275 0.49977 0.11941 0.0
C8 C 0.2013 0.47563 0.09531 0.0
C9 C 0.16583 0.46667 0.09001 0.0
C10 C 0.22448 0.49325 0.17922 0.0
C11 C 0.2118 0.50186 0.2575 0.0
C12 C 0.17668 0.49412 0.25105 0.0
C13 C 0.15414 0.47659 0.1677 0.0
C14 C 0.32866 0.51316 0.22155 0.0
C15 C 0.36362 0.5209 0.23315 0.0
C16 C 0.31084 0.50819 0.13176 0.0
C17 C 0.32824 0.50934 0.05359 0.0
C18 C 0.36381 0.51777 0.06617 0.0
C19 C 0.38126 0.52484 0.15623 0.0
H20 H 0.73892 0.21729 0.94551 0.0
H21 H 0.74239 0.22452 0.24488 0.0
H22 H 0.65183 0.14082 0.06506 0.0
H23 H 0.83825 0.30643 0.20555 0.0
H24 H 0.81849 0.3118 0.91325 0.0
H25 H 0.91374 0.39375 0.08115 0.0
N26 N 0.77782 0.25747 0.11155 0.0
N27 N 0.79105 0.27344 0.04547 0.0
C28 C 0.72671 0.20785 0.0066 0.0
C29 C 0.69304 0.17743 -0.00421 0.0
C30 C 0.74438 0.22571 0.09717 0.0
C31 C 0.72857 0.21183 0.17535 0.0
C32 C 0.69479 0.18166 0.16313 0.0
C33 C 0.67737 0.16514 0.07388 0.0
C34 C 0.84611 0.31994 0.1452 0.0
C35 C 0.87886 0.35154 0.15305 0.0
C36 C 0.82416 0.30549 0.058 0.0
C37 C 0.8351 0.32304 -0.0198 0.0
C38 C 0.86704 0.35522 -0.01112 0.0
C39 C 0.88862 0.36916 0.07509 0.0
H40 H 0.56056 0.736 0.88824 0.0
H41 H 0.5349 0.72478 0.16826 0.0
H42 H 0.55207 0.64681 0.01529 0.0
H43 H 0.54636 0.81915 0.12698 0.0
H44 H 0.54883 0.82069 0.83122 0.0
H45 H 0.5447 0.90436 0.00125 0.0
N46 N 0.54577 0.76637 0.03592 0.0
N47 N 0.54876 0.78342 0.96884 0.0
C48 C 0.55552 0.72158 0.9476 0.0
C49 C 0.55793 0.69049 0.9438 0.0
C50 C 0.54735 0.73426 0.02893 0.0
C51 C 0.54108 0.71506 0.10558 0.0
C52 C 0.5421 0.683 0.10027 0.0
C53 C 0.55078 0.67128 0.01944 0.0
C54 C 0.54665 0.83163 0.06536 0.0
C55 C 0.54519 0.86322 0.07341 0.0
C56 C 0.54778 0.8159 -0.02205 0.0
C57 C 0.54803 0.83267 0.89867 0.0
C58 C 0.54742 0.86498 0.90705 0.0
C59 C 0.54577 0.87978 -0.00546 0.0
H60 H 0.73676 0.52581 0.8913 0.0
H61 H 0.76662 0.5552 0.18949 0.0
H62 H 0.67027 0.54483 0.05875 0.0
H63 H 0.84146 0.5367 0.10249 0.0
H64 H 0.82239 0.52781 0.80265 0.0
H65 H 0.90953 0.52121 0.93443 0.0
N66 N 0.78712 0.53893 0.03426 0.0
N67 N 0.7962 0.53359 0.95813 0.0
C68 C 0.73165 0.53292 0.95908 0.0
C69 C 0.70042 0.53368 0.96636 0.0
C70 C 0.75585 0.54072 0.03953 0.0
C71 C 0.74851 0.5497 0.12711 0.0
C72 C 0.71773 0.55153 0.13341 0.0
C73 C 0.69403 0.5434 0.05321 0.0
C74 C 0.84779 0.53218 0.03415 0.0
C75 C 0.87727 0.52815 0.02682 0.0
C76 C 0.82694 0.53079 0.95296 0.0
C77 C 0.83707 0.52702 0.86507 0.0
C78 C 0.86663 0.52287 0.85884 0.0
C79 C 0.88567 0.52255 0.93949 0.0
H80 H 0.19915 0.74736 -0.02538 0.0
H81 H 0.22151 0.76333 0.27451 0.0
H82 H 0.13284 0.66607 0.13179 0.0
H83 H 0.3036 0.84564 0.20453 0.0
H84 H 0.26859 0.84854 0.92107 0.0
H85 H 0.36547 0.9361 0.06958 0.0
N86 N 0.24386 0.7936 0.12739 0.0
N87 N 0.25147 0.80902 0.05731 0.0
C88 C 0.19268 0.73794 0.04076 0.0
C89 C 0.16297 0.70424 0.04268 0.0
C90 C 0.21376 0.75942 0.12497 0.0
C91 C 0.20526 0.74692 0.21007 0.0
C92 C 0.17614 0.7134 0.21237 0.0
C93 C 0.15519 0.69227 0.12907 0.0
C94 C 0.30715 0.85926 0.14385 0.0
C95 C 0.33759 0.89258 0.14575 0.0
C96 C 0.28196 0.84322 0.06254 0.0
C97 C 0.28735 0.86109 -0.01569 0.0
C98 C 0.31701 0.895 -0.01235 0.0
C99 C 0.34193 0.91034 0.06812 0.0
H100 H 0.51461 0.20955 0.06647 0.0
H101 H 0.49783 0.21898 0.35079 0.0
H102 H 0.55017 0.16231 0.26781 0.0
H103 H 0.47604 0.28743 0.24379 0.0
H104 H 0.49208 0.28062 0.9563 0.0
H105 H 0.46335 0.35611 0.06711 0.0
N106 N 0.49597 0.24414 0.19165 0.0
N107 N 0.49487 0.25436 0.11427 0.0
C108 C 0.51873 0.20482 0.13687 0.0
C109 C 0.53245 0.18224 0.15594 0.0
C110 C 0.50823 0.21994 0.20831 0.0
C111 C 0.50892 0.21019 0.29781 0.0
C112 C 0.52346 0.18868 0.31824 0.0
C113 C 0.53783 0.17767 0.24923 0.0
C114 C 0.47555 0.29565 0.17572 0.0
C115 C 0.46807 0.32319 0.16458 0.0
C116 C 0.48406 0.27993 0.10083 0.0
C117 C 0.48442 0.29171 0.01337 0.0
C118 C 0.47596 0.31861 0.00073 0.0
C119 C 0.46766 0.33388 0.07621 0.0
C120 C 0.08419 0.49713 0.49956 0.0
C121 C 0.06365 0.44969 0.8139 0.0
C122 C 0.96006 0.4402 0.75711 0.0
Mg123 Mg 0.04771 0.53554 0.38905 0.0
Mg124 Mg 0.02512 0.58845 0.50686 0.0
O125 O 0.02087 0.54305 0.48379 0.0
Mg126 Mg 0.03201 0.52173 0.58585 0.0
O127 O 0.04368 0.49746 0.681 0.0
Mg128 Mg 0.01961 0.44699 0.61347 0.0
Mg129 Mg 0.0348 0.5025 0.802 0.0
C130 C 0.97658 0.54769 0.6528 0.0
O131 O 0.07017 0.57659 0.68195 0.0
O132 O 1.0126 0.54812 0.28898 0.0
O133 O 0.06022 0.5602 0.82482 0.0
O134 O 0.09036 0.59448 0.41625 0.0
O135 O 0.99744 0.58291 0.37501 0.0
O136 O 0.07919 0.62994 0.50979 0.0
O137 O 0.9933 0.46547 0.5043 0.0
O138 O 1.00529 0.47701 0.3617 0.0
C139 C 0.98835 0.45526 0.4168 0.0
C140 C 0.99516 0.56465 0.29853 0.0
O141 O 0.98662 0.52425 0.64957 0.0
O142 O 0.05032 0.43545 0.72921 0.0
O143 O 0.99188 0.57653 0.6158 0.0
O144 O 0.97105 0.4272 0.69428 0.0
O145 O 0.06063 0.4752 0.85496 0.0
O146 O 0.97962 0.47158 0.80148 0.0
O147 O 0.07551 0.5214 0.50805 0.0
O148 O 0.06752 0.46807 0.53432 0.0
C149 C 0.09949 0.62521 0.45986 0.0
C150 C 0.07387 0.58414 0.77128 0.0
C151 C 0.50983 0.07818 0.49104 0.0
C152 C 0.60677 0.07019 0.35176 0.0
C153 C 0.54872 0.95576 0.37776 0.0
Mg154 Mg 0.46412 0.0369 0.64488 0.0
Mg155 Mg 0.48943 0.99799 0.79417 0.0
O156 O 0.48256 1.00367 0.67118 0.0
Mg157 Mg 0.51991 0.01823 0.59003 0.0
O158 O 0.55437 0.03379 0.50242 0.0
Mg159 Mg 0.52222 0.01767 0.38239 0.0
Mg160 Mg 0.59218 0.02489 0.51197 0.0
C161 C 0.52578 0.95717 0.70635 0.0
O162 O 0.56727 0.05446 0.70177 0.0
O163 O 0.41692 1.0025 0.72153 0.0
O164 O 0.61229 0.04849 0.65662 0.0
O165 O 0.4954 0.07606 0.78108 0.0
O166 O 0.43497 0.97223 0.8086 0.0
O167 O 0.517 0.05022 0.87208 0.0
O168 O 0.47603 0.98465 0.46561 0.0
O169 O 0.43567 0.99746 0.51193 0.0
C170 C 0.44504 0.98085 0.45423 0.0
C171 C 0.41114 0.9786 0.77473 0.0
O172 O 0.52788 0.97025 0.62904 0.0
O173 O 0.57343 0.05595 0.32529 0.0
O174 O 0.51451 0.96638 0.77593 0.0
O175 O 0.53095 0.97026 0.35071 0.0
O176 O 0.61958 0.06105 0.41929 0.0
O177 O 0.57346 0.97078 0.44682 0.0
O178 O 0.51146 0.06587 0.56681 0.0
O179 O 0.51384 0.06477 0.41496 0.0
C180 C 0.51379 0.07699 0.85529 0.0
C181 C 0.5997 0.06219 0.71312 0.0
C182 C 0.55467 0.58363 0.71598 0.0
C183 C 0.44714 0.4847 0.83869 0.0
C184 C 0.48609 0.4135 0.74495 0.0
Mg185 Mg 0.59031 0.58013 0.53412 0.0
Mg186 Mg 0.5443 0.51917 0.35353 0.0
O187 O 0.55922 0.52834 0.48105 0.0
Mg188 Mg 0.52543 0.51063 0.57305 0.0
O189 O 0.49424 0.49565 0.67017 0.0
Mg190 Mg 0.52801 0.50517 0.78232 0.0
Mg191 Mg 0.45213 0.45125 0.64889 0.0
C192 C 0.49616 0.44196 0.40978 0.0
O193 O 0.47953 0.50896 0.48588 0.0
O194 O 0.62947 0.58124 0.43295 0.0
O195 O 0.43176 0.45982 0.5184 0.0
O196 O 0.56497 0.60124 0.42642 0.0
O197 O 0.59606 0.53432 0.32037 0.0
O198 O 0.52844 0.55663 0.31491 0.0
O199 O 0.56781 0.51053 0.67635 0.0
O200 O 0.61393 0.55884 0.63913 0.0
C201 C 0.60104 0.53261 0.68588 0.0
C202 C 0.62604 0.55992 0.36078 0.0
O203 O 0.5041 0.4529 0.49805 0.0
O204 O 0.481 0.50062 0.86098 0.0
O205 O 0.50597 0.46308 0.34796 0.0
O206 O 0.50907 0.44505 0.7841 0.0
O207 O 0.43107 0.46364 0.76249 0.0
O208 O 0.46168 0.40838 0.68103 0.0
O209 O 0.54789 0.56982 0.63084 0.0
O210 O 0.54783 0.56436 0.78138 0.0
C211 C 0.54244 0.58916 0.35231 0.0
C212 C 0.44615 0.48714 0.47518 0.0
C213 C 0.15265 0.48051 0.40013 0.0
C214 C 0.16157 0.50238 0.32998 0.0
H215 H 0.12095 0.4616 0.50854 0.0
C216 C 0.14803 0.52567 0.32271 0.0
H217 H 0.16222 0.46188 0.40577 0.0
C218 C 0.12428 0.52555 0.38121 0.0
C219 C 0.11313 0.50156 0.44665 0.0
H220 H 0.15412 0.54231 0.26779 0.0
H221 H 0.1131 0.54263 0.3713 0.0
C222 C 0.12856 0.48 0.45774 0.0
C223 C 0.69008 0.14235 0.28007 0.0
C224 C 0.67765 0.16297 0.23926 0.0
H225 H 0.6768 0.09573 0.34538 0.0
C226 C 0.64285 0.15503 0.24408 0.0
H227 H 0.7166 0.1476 0.27516 0.0
C228 C 0.61969 0.12454 0.27968 0.0
C229 C 0.63127 0.10207 0.31324 0.0
H230 H 0.63266 0.17037 0.21156 0.0
H231 H 0.59258 0.1182 0.27905 0.0
C232 C 0.66704 0.11214 0.31743 0.0
C233 C 0.55801 0.6749 0.26262 0.0
C234 C 0.53533 0.66118 0.17763 0.0
H235 H 0.57793 0.66282 0.38572 0.0
C236 C 0.51077 0.62434 0.15929 0.0
H237 H 0.57737 0.70314 0.27806 0.0
C238 C 0.51106 0.60121 0.22034 0.0
C239 C 0.53615 0.61435 0.30106 0.0
H240 H 0.49299 0.6131 0.0942 0.0
H241 H 0.49312 0.57275 0.20096 0.0
C242 C 0.55841 0.65169 0.32392 0.0
C243 C 0.91999 0.56796 0.1646 0.0
C244 C 0.90323 0.5348 0.10726 0.0
H245 H 0.96345 0.60419 0.2682 0.0
C246 C 0.91715 0.51182 0.11265 0.0
H247 H 0.91017 0.58643 0.15987 0.0
C248 C 0.94828 0.52251 0.17108 0.0
C249 C 0.96566 0.55609 0.22677 0.0
H250 H 0.90472 0.48621 0.06828 0.0
H251 H 0.95829 0.50415 0.17392 0.0
C252 C 0.95092 0.57847 0.22434 0.0
C253 C 0.35582 0.91753 0.31404 0.0
C254 C 0.36492 0.91013 0.22853 0.0
H255 H 0.37418 0.94604 0.45207 0.0
C256 C 0.40075 0.92373 0.21952 0.0
H257 H 0.32846 0.90757 0.32241 0.0
C258 C 0.42711 0.94571 0.29388 0.0
C259 C 0.41797 0.95493 0.37762 0.0
H260 H 0.40833 0.91826 0.15389 0.0
H261 H 0.4545 0.95665 0.28453 0.0
C262 C 0.38207 0.93992 0.38764 0.0
C263 C 0.49128 0.35631 0.32712 0.0
C264 C 0.4663 0.34491 0.24649 0.0
H265 H 0.51958 0.39638 0.44641 0.0
C266 C 0.44446 0.36002 0.23796 0.0
H267 H 0.50863 0.34536 0.33605 0.0
C268 C 0.45114 0.38951 0.30071 0.0
C269 C 0.47917 0.40376 0.37406 0.0
H270 H 0.42438 0.35122 0.178 0.0
H271 H 0.43672 0.40334 0.28657 0.0
C272 C 0.49753 0.3855 0.39087 0.0
C273 C 0.57449 0.9189 0.82654 0.0
C274 C 0.547 0.88375 0.82656 0.0
H275 H 0.58956 0.96998 0.78323 0.0
C276 C 0.51561 0.87098 0.76528 0.0
H277 H 0.59871 0.92954 0.87437 0.0
C278 C 0.51038 0.89423 0.71302 0.0
C279 C 0.53658 0.93042 0.72069 0.0
H280 H 0.49379 0.84426 0.76546 0.0
H281 H 0.48452 0.88492 0.67477 0.0
C282 C 0.56934 0.94201 0.77392 0.0
C283 C 0.68653 0.54699 0.81096 0.0
C284 C 0.67497 0.52704 0.88414 0.0
H285 H 0.67206 0.56447 0.69102 0.0
C286 C 0.63857 0.50547 0.88593 0.0
H287 H 0.71441 0.56396 0.80845 0.0
C288 C 0.61415 0.50595 0.81923 0.0
C289 C 0.62586 0.52818 0.75022 0.0
H290 H 0.62911 0.48964 0.94175 0.0
H291 H 0.58634 0.49029 0.8244 0.0
C292 C 0.6622 0.54764 0.7447 0.0
C293 C 0.15395 0.67049 0.88346 0.0
C294 C 0.13993 0.68033 0.95643 0.0
H295 H 0.14336 0.63192 0.76422 0.0
C296 C 0.10316 0.66274 0.95378 0.0
H297 H 0.18219 0.6835 0.8839 0.0
C298 C 0.0812 0.63346 0.88608 0.0
C299 C 0.0954 0.62135 0.81859 0.0
H300 H 0.09153 0.67004 0.00822 0.0
H301 H 0.05327 0.61858 0.89068 0.0
C302 C 0.13176 0.6411 0.81477 0.0
C303 C 0.53739 0.16673 -0.01296 0.0
C304 C 0.53554 0.15886 0.07929 0.0
H305 H 0.53147 0.14675 0.84265 0.0
C306 C 0.53206 0.12566 0.09572 0.0
H307 H 0.54134 0.1922 0.97051 0.0
C308 C 0.5284 0.10068 0.02304 0.0
C309 C 0.52655 0.1072 0.93084 0.0
H310 H 0.52945 0.11708 0.16351 0.0
H311 H 0.52397 0.07493 0.03901 0.0
C312 C 0.53222 0.14087 0.91337 0.0
C313 C 0.41821 0.53776 -0.00881 0.0
C314 C 0.38226 0.5128 -0.00945 0.0
H315 H 0.46735 0.54786 0.94818 0.0
C316 C 0.36772 0.47909 0.93683 0.0
H317 H 0.43014 0.56388 0.03279 0.0
C318 C 0.38908 0.46984 0.88915 0.0
C319 C 0.4255 0.49393 0.89504 0.0
H320 H 0.34043 0.45906 0.93673 0.0
H321 H 0.3772 0.44337 0.84944 0.0
C322 C 0.4397 0.52828 0.945 0.0
C323 C 0.88901 0.35807 0.8358 0.0
C324 C 0.88003 0.37402 0.90847 0.0
H325 H 0.92149 0.36686 0.72815 0.0
C326 C 0.89091 0.41055 0.91498 0.0
H327 H 0.88091 0.32991 0.82981 0.0
C328 C 0.91405 0.43171 0.85722 0.0
C329 C 0.92691 0.41667 0.7925 0.0
H330 H 0.88401 0.42328 0.97023 0.0
H331 H 0.9243 0.46033 0.86924 0.0
C332 C 0.91231 0.37929 0.77783 0.0
C333 C 0.90496 0.55917 0.75126 0.0
C334 C 0.8833 0.52499 0.77429 0.0
H335 H 0.95226 0.59357 0.69798 0.0
C336 C 0.88993 0.49727 0.74609 0.0
H337 H 0.9009 0.58115 0.77424 0.0
C338 C 0.92009 0.50458 0.706 0.0
C339 C 0.94385 0.53964 0.69181 0.0
H340 H 0.87397 0.47084 0.76484 0.0
H341 H 0.92539 0.48299 0.68933 0.0
C342 C 0.935 0.56645 0.71033 0.0
C343 C 0.33548 0.8974 0.83254 0.0
C344 C 0.32611 0.91304 0.90473 0.0
H345 H 0.37099 0.90721 0.73261 0.0
C346 C 0.33715 0.94973 0.91236 0.0
H347 H 0.32741 0.86923 0.82578 0.0
C348 C 0.36208 0.97149 0.85893 0.0
C349 C 0.37583 0.95646 0.79795 0.0
H350 H 0.33015 0.96221 0.96798 0.0
H351 H 0.3737 1.00027 0.87382 0.0
C352 C 0.3606 0.91915 0.77987 0.0
C353 C 0.51273 0.36331 0.90266 0.0
C354 C 0.47975 0.33493 0.91384 0.0
H355 H 0.54072 0.41038 0.83871 0.0
C356 C 0.44966 0.32887 0.85562 0.0
H357 H 0.53619 0.36891 0.94801 0.0
C358 C 0.4522 0.35239 0.79207 0.0
C359 C 0.48479 0.38291 0.78756 0.0
H360 H 0.42387 0.30756 0.86438 0.0
H361 H 0.42822 0.34851 0.75315 0.0
C362 C 0.51523 0.38715 0.84043 0.0
C363 C 0.10537 0.42562 0.00499 0.0
C364 C 0.14099 0.45062 0.00217 0.0
H365 H 0.05181 0.40587 0.94532 0.0
C366 C 0.15045 0.46664 0.92157 0.0
H367 H 0.09751 0.41237 0.06577 0.0
C368 C 0.12427 0.46199 0.85159 0.0
C369 C 0.08864 0.44147 0.86209 0.0
H370 H 0.17762 0.48599 0.91748 0.0
H371 H 0.13186 0.47774 0.79492 0.0
C372 C 0.07923 0.42164 0.9361 0.0
C373 C 0.68423 0.13181 0.86612 0.0
C374 C 0.67369 0.15495 0.90638 0.0
H375 H 0.6687 0.08343 0.77531 0.0
C376 C 0.63924 0.14807 0.88049 0.0
H377 H 0.71034 0.13603 0.88748 0.0
C378 C 0.61506 0.1174 0.8199 0.0
C379 C 0.62492 0.09313 0.78277 0.0
H380 H 0.63032 0.16511 0.9127 0.0
H381 H 0.58856 0.11269 0.80276 0.0
C382 C 0.66008 0.10121 0.8043 0.0
C383 C 0.59429 0.6689 0.87231 0.0
C384 C 0.56638 0.67596 0.86092 0.0
H385 H 0.61269 0.63315 0.83087 0.0
C386 C 0.54106 0.65953 0.78104 0.0
H387 H 0.61405 0.68135 0.93364 0.0
C388 C 0.5406 0.63222 0.72125 0.0
C389 C 0.56527 0.62123 0.74207 0.0
H390 H 0.51921 0.66448 0.7715 0.0
H391 H 0.5183 0.6166 0.66706 0.0
C392 C 0.59358 0.64144 0.81346 0.0
C393 C 0.54588 0.17274 0.45862 0.0
C394 C 0.5171 0.17 0.40123 0.0
H395 H 0.5654 0.14484 0.53723 0.0
C396 C 0.48352 0.14019 0.4004 0.0
H397 H 0.57211 0.19513 0.45901 0.0
C398 C 0.47981 0.11107 0.44347 0.0
C399 C 0.50948 0.1119 0.49005 0.0
H400 H 0.46105 0.13716 0.35533 0.0
H401 H 0.45464 0.08643 0.43078 0.0
C402 C 0.54201 0.14388 0.50327 0.0
C403 C 0.41533 0.54204 0.35252 0.0
C404 C 0.38019 0.51643 0.31862 0.0
H405 H 0.46418 0.55229 0.42487 0.0
C406 C 0.36571 0.48206 0.34442 0.0
H407 H 0.42703 0.56857 0.33227 0.0
C408 C 0.38706 0.47239 0.39601 0.0
C409 C 0.42313 0.49699 0.42195 0.0
H410 H 0.3388 0.46174 0.31741 0.0
H411 H 0.37569 0.44526 0.41185 0.0
C412 C 0.43674 0.5323 0.40295 0.0
C413 C 0.93892 0.37464 0.23729 0.0
C414 C 0.9042 0.36733 0.2403 0.0
H415 H 0.99331 0.40855 0.29336 0.0
C416 C 0.89688 0.3831 0.31725 0.0
H417 H 0.9452 0.36284 0.17853 0.0
C418 C 0.92457 0.40904 0.3842 0.0
C419 C 0.95969 0.41954 0.3739 0.0
H420 H 0.87038 0.37817 0.32047 0.0
H421 H 0.9188 0.42358 0.43762 0.0
C422 C 0.96645 0.40074 0.303 0.0
C423 C 0.51352 0.88408 0.17138 0.0
C424 C 0.5425 0.8793 0.16342 0.0
H425 H 0.49211 0.91097 0.24869 0.0
C426 C 0.57065 0.89416 0.2367 0.0
H427 H 0.4914 0.87247 0.11587 0.0
C428 C 0.57133 0.9166 0.31296 0.0
C429 C 0.54379 0.92423 0.31636 0.0
H430 H 0.59323 0.89065 0.23158 0.0
H431 H 0.59463 0.93018 0.36484 0.0
C432 C 0.514 0.90608 0.24752 0.0
C433 C 0.70677 0.59128 0.24117 0.0
C434 C 0.70696 0.55899 0.22182 0.0
H435 H 0.68068 0.61715 0.30235 0.0
C436 C 0.68495 0.52959 0.26413 0.0
H437 H 0.7229 0.61397 0.20704 0.0
C438 C 0.66016 0.53103 0.31546 0.0
C439 C 0.65754 0.56211 0.32687 0.0
H440 H 0.68402 0.50421 0.2483 0.0
H441 H 0.64137 0.507 0.34076 0.0
C442 C 0.68234 0.59295 0.29434 0.0
C443 C 0.14595 0.70831 0.35214 0.0
C444 C 0.1669 0.69947 0.30082 0.0
H445 H 0.1085 0.69179 0.44828 0.0
C446 C 0.17267 0.67175 0.32298 0.0
H447 H 0.14119 0.72962 0.33548 0.0
C448 C 0.15438 0.65036 0.38797 0.0
C449 C 0.12956 0.65603 0.43021 0.0
H450 H 0.18882 0.66463 0.28399 0.0
H451 H 0.1567 0.62698 0.39713 0.0
C452 C 0.12748 0.68679 0.41717 0.0
loop_
_geom_bond_atom_site_label_1
_geom_bond_atom_site_label_2
_geom_bond_distance
_geom_bond_site_symmetry_2
_ccdc_geom_bond_type
H0 C8 0.940 . S
H1 C11 0.940 . S
H2 C13 0.940 . S
H3 C14 0.940 . S
H4 C17 0.940 . S
H5 C19 0.940 . S
N6 N7 1.190 . S
N6 C10 1.477 . S
N7 N6 1.190 . S
N7 C16 1.477 . S
C8 H0 0.940 . S
C8 C9 1.390 . S
C8 C10 1.322 . S
C9 C8 1.390 . S
C9 C13 1.370 . S
C10 N6 1.477 . S
C10 C8 1.322 . S
C10 C11 1.447 . S
C11 H1 0.940 . S
C11 C10 1.447 . S
C11 C12 1.373 . S
C12 C11 1.373 . S
C12 C13 1.417 . S
C13 H2 0.940 . S
C13 C9 1.370 . S
C13 C12 1.417 . S
C14 H3 0.940 . S
C14 C15 1.390 . S
C14 C16 1.322 . S
C15 C14 1.390 . S
C15 C19 1.370 . S
C16 N7 1.477 . S
C16 C14 1.322 . S
C16 C17 1.447 . S
C17 H4 0.940 . S
C17 C16 1.447 . S
C17 C18 1.373 . S
C18 C17 1.373 . S
C18 C19 1.417 . S
C19 H5 0.940 . S
C19 C15 1.370 . S
C19 C18 1.417 . S
H20 C28 0.940 1_556 S
H21 C31 0.940 . S
H22 C33 0.940 . S
H23 C34 0.940 . S
H24 C37 0.940 1_556 S
H25 C39 0.940 . S
N26 N27 1.190 . S
N26 C30 1.477 . S
N27 N26 1.190 . S
N27 C36 1.477 . S
C28 H20 0.940 1_554 S
C28 C29 1.390 . S
C28 C30 1.322 . S
C29 C28 1.390 . S
C29 C33 1.370 . S
C30 N26 1.477 . S
C30 C28 1.322 . S
C30 C31 1.447 . S
C31 H21 0.940 . S
C31 C30 1.447 . S
C31 C32 1.373 . S
C32 C31 1.373 . S
C32 C33 1.417 . S
C33 H22 0.940 . S
C33 C29 1.370 . S
C33 C32 1.417 . S
C34 H23 0.940 . S
C34 C35 1.390 . S
C34 C36 1.322 . S
C35 C34 1.390 . S
C35 C39 1.370 . S
C36 N27 1.477 . S
C36 C34 1.322 . S
C36 C37 1.447 . S
C37 H24 0.940 1_554 S
C37 C36 1.447 . S
C37 C38 1.373 . S
C38 C37 1.373 . S
C38 C39 1.417 . S
C39 H25 0.940 . S
C39 C35 1.370 . S
C39 C38 1.417 . S
H40 C48 0.940 . S
H41 C51 0.940 . S
H42 C53 0.940 . S
H43 C54 0.940 . S
H44 C57 0.940 . S
H45 C59 0.940 . S
N46 N47 1.190 1_554 S
N46 C50 1.477 . S
N47 N46 1.190 1_556 S
N47 C56 1.477 1_556 S
C48 H40 0.940 . S
C48 C49 1.390 . S
C48 C50 1.322 1_556 S
C49 C48 1.390 . S
C49 C53 1.370 1_556 S
C50 N46 1.477 . S
C50 C48 1.322 1_554 S
C50 C51 1.447 . S
C51 H41 0.940 . S
C51 C50 1.447 . S
C51 C52 1.373 . S
C52 C51 1.373 . S
C52 C53 1.417 . S
C53 H42 0.940 . S
C53 C49 1.370 1_554 S
C53 C52 1.417 . S
C54 H43 0.940 . S
C54 C55 1.390 . S
C54 C56 1.322 . S
C55 C54 1.390 . S
C55 C59 1.370 . S
C56 N47 1.477 1_554 S
C56 C54 1.322 . S
C56 C57 1.447 1_554 S
C57 H44 0.940 . S
C57 C56 1.447 1_556 S
C57 C58 1.373 . S
C58 C57 1.373 . S
C58 C59 1.417 1_556 S
C59 H45 0.940 . S
C59 C55 1.370 . S
C59 C58 1.417 1_554 S
H60 C68 0.940 . S
H61 C71 0.940 . S
H62 C73 0.940 1_556 S
H63 C74 0.940 . S
H64 C77 0.940 . S
H65 C79 0.940 . S
N66 N67 1.190 1_554 S
N66 C70 1.477 . S
N67 N66 1.190 1_556 S
N67 C76 1.477 . S
C68 H60 0.940 . S
C68 C69 1.390 . S
C68 C70 1.322 1_556 S
C69 C68 1.390 . S
C69 C73 1.370 1_556 S
C70 N66 1.477 . S
C70 C68 1.322 1_554 S
C70 C71 1.447 . S
C71 H61 0.940 . S
C71 C70 1.447 . S
C71 C72 1.373 . S
C72 C71 1.373 . S
C72 C73 1.417 . S
C73 H62 0.940 1_554 S
C73 C69 1.370 1_554 S
C73 C72 1.417 . S
C74 H63 0.940 . S
C74 C75 1.390 . S
C74 C76 1.322 1_554 S
C75 C74 1.390 . S
C75 C79 1.370 . S
C76 N67 1.477 . S
C76 C74 1.322 1_556 S
C76 C77 1.447 . S
C77 H64 0.940 . S
C77 C76 1.447 . S
C77 C78 1.373 . S
C78 C77 1.373 . S
C78 C79 1.417 1_556 S
C79 H65 0.940 . S
C79 C75 1.370 . S
C79 C78 1.417 1_554 S
H80 C88 0.940 1_556 S
H81 C91 0.940 . S
H82 C93 0.940 . S
H83 C94 0.940 . S
H84 C97 0.940 1_556 S
H85 C99 0.940 . S
N86 N87 1.190 . S
N86 C90 1.477 . S
N87 N86 1.190 . S
N87 C96 1.477 . S
C88 H80 0.940 1_554 S
C88 C89 1.390 . S
C88 C90 1.322 . S
C89 C88 1.390 . S
C89 C93 1.370 . S
C90 N86 1.477 . S
C90 C88 1.322 . S
C90 C91 1.447 . S
C91 H81 0.940 . S
C91 C90 1.447 . S
C91 C92 1.373 . S
C92 C91 1.373 . S
C92 C93 1.417 . S
C93 H82 0.940 . S
C93 C89 1.370 . S
C93 C92 1.417 . S
C94 H83 0.940 . S
C94 C95 1.390 . S
C94 C96 1.322 . S
C95 C94 1.390 . S
C95 C99 1.370 . S
C96 N87 1.477 . S
C96 C94 1.322 . S
C96 C97 1.447 . S
C97 H84 0.940 1_554 S
C97 C96 1.447 . S
C97 C98 1.373 . S
C98 C97 1.373 . S
C98 C99 1.417 . S
C99 H85 0.940 . S
C99 C95 1.370 . S
C99 C98 1.417 . S
H100 C108 0.940 . S
H101 C111 0.940 . S
H102 C113 0.940 . S
H103 C114 0.940 . S
H104 C117 0.940 . S
H105 C119 0.940 . S
N106 N107 1.190 . S
N106 C110 1.477 . S
N107 N106 1.190 . S
N107 C116 1.477 . S
C108 H100 0.940 . S
C108 C109 1.390 . S
C108 C110 1.322 . S
C109 C108 1.390 . S
C109 C113 1.370 . S
C110 N106 1.477 . S
C110 C108 1.322 . S
C110 C111 1.447 . S
C111 H101 0.940 . S
C111 C110 1.447 . S
C111 C112 1.373 . S
C112 C111 1.373 . S
C112 C113 1.417 . S
C113 H102 0.940 . S
C113 C109 1.370 . S
C113 C112 1.417 . S
C114 H103 0.940 . S
C114 C115 1.390 . S
C114 C116 1.322 . S
C115 C114 1.390 . S
C115 C119 1.370 . S
C116 N107 1.477 . S
C116 C114 1.322 . S
C116 C117 1.447 . S
C117 H104 0.940 . S
C117 C116 1.447 . S
C117 C118 1.373 . S
C118 C117 1.373 . S
C118 C119 1.417 . S
C119 H105 0.940 . S
C119 C115 1.370 . S
C119 C118 1.417 . S
C120 O147 1.312 . S
C120 O148 1.208 . S
C121 O142 1.331 . S
C121 O145 1.244 . S
C122 O144 1.264 . S
C122 O146 1.273 . S
Mg123 O125 1.936 1_455 S
Mg123 O132 2.081 1_455 S
Mg123 O134 2.023 . S
Mg123 O138 2.031 1_455 S
Mg123 O147 2.291 . S
Mg124 O125 1.963 . S
Mg124 O135 1.942 . S
Mg124 O136 1.955 1_655 S
Mg124 O143 1.986 . S
O125 Mg123 1.936 1_655 S
O125 Mg124 1.963 . S
O125 Mg126 1.915 1_655 S
Mg126 O125 1.915 1_455 S
Mg126 O127 1.915 . S
Mg126 O131 2.013 . S
Mg126 O137 2.114 1_455 S
Mg126 O141 2.013 1_455 S
Mg126 O147 2.114 . S
O127 Mg126 1.915 . S
O127 Mg128 1.936 . S
O127 Mg129 1.963 . S
Mg128 O127 1.936 . S
Mg128 O137 2.291 1_455 S
Mg128 O142 2.081 . S
Mg128 O144 2.023 1_455 S
Mg128 O148 2.031 . S
Mg129 O127 1.963 . S
Mg129 O133 1.986 . S
Mg129 O145 1.942 . S
Mg129 O146 1.955 1_455 S
C130 O141 1.191 . S
C130 O143 1.307 . S
O131 Mg126 2.013 . S
O131 C150 1.191 . S
O132 Mg123 2.081 1_655 S
O132 C140 1.331 . S
O133 Mg129 1.986 . S
O133 C150 1.307 . S
O134 Mg123 2.023 . S
O134 C149 1.264 . S
O135 Mg124 1.942 . S
O135 C140 1.244 . S
O136 Mg124 1.955 1_455 S
O136 C149 1.273 . S
O137 Mg126 2.114 1_655 S
O137 Mg128 2.291 1_655 S
O137 C139 1.312 . S
O138 Mg123 2.031 1_655 S
O138 C139 1.208 . S
C139 O137 1.312 . S
C139 O138 1.208 . S
C140 O132 1.331 . S
C140 O135 1.244 . S
O141 Mg126 2.013 1_655 S
O141 C130 1.191 . S
O142 C121 1.331 . S
O142 Mg128 2.081 . S
O143 Mg124 1.986 . S
O143 C130 1.307 . S
O144 C122 1.264 . S
O144 Mg128 2.023 1_655 S
O145 C121 1.244 . S
O145 Mg129 1.942 . S
O146 C122 1.273 . S
O146 Mg129 1.955 1_655 S
O147 C120 1.312 . S
O147 Mg123 2.291 . S
O147 Mg126 2.114 . S
O148 C120 1.208 . S
O148 Mg128 2.031 . S
C149 O134 1.264 . S
C149 O136 1.273 . S
C150 O131 1.191 . S
C150 O133 1.307 . S
C151 O178 1.312 . S
C151 O179 1.208 . S
C152 O173 1.331 . S
C152 O176 1.244 . S
C153 O175 1.264 . S
C153 O177 1.273 . S
Mg154 O156 1.915 1_545 S
Mg154 O163 2.081 1_545 S
Mg154 O165 2.023 . S
Mg154 O169 2.031 1_545 S
Mg154 O178 2.291 . S
Mg155 O156 1.969 1_545 S
Mg155 O166 1.942 1_545 S
Mg155 O167 1.955 . S
Mg155 O174 1.986 1_545 S
O156 Mg154 1.915 1_565 S
O156 Mg155 1.969 1_565 S
O156 Mg157 1.917 1_565 S
Mg157 O156 1.917 1_545 S
Mg157 O158 1.915 . S
Mg157 O162 2.013 . S
Mg157 O168 2.114 1_545 S
Mg157 O172 2.013 1_545 S
Mg157 O178 2.114 . S
O158 Mg157 1.915 . S
O158 Mg159 1.936 . S
O158 Mg160 1.963 . S
Mg159 O158 1.936 . S
Mg159 O168 2.291 1_545 S
Mg159 O173 2.081 . S
Mg159 O175 2.023 1_545 S
Mg159 O179 2.031 . S
Mg160 O158 1.963 . S
Mg160 O164 1.986 . S
Mg160 O176 1.942 . S
Mg160 O177 1.955 1_545 S
C161 O172 1.191 . S
C161 O174 1.307 . S
O162 Mg157 2.013 . S
O162 C181 1.191 . S
O163 Mg154 2.081 1_565 S
O163 C171 1.331 . S
O164 Mg160 1.986 . S
O164 C181 1.307 . S
O165 Mg154 2.023 . S
O165 C180 1.264 . S
O166 Mg155 1.942 1_565 S
O166 C171 1.244 . S
O167 Mg155 1.955 . S
O167 C180 1.273 . S
O168 Mg157 2.114 1_565 S
O168 Mg159 2.291 1_565 S
O168 C170 1.312 . S
O169 Mg154 2.031 1_565 S
O169 C170 1.208 . S
C170 O168 1.312 . S
C170 O169 1.208 . S
C171 O163 1.331 . S
C171 O166 1.244 . S
O172 Mg157 2.013 1_565 S
O172 C161 1.191 . S
O173 C152 1.331 . S
O173 Mg159 2.081 . S
O174 Mg155 1.986 1_565 S
O174 C161 1.307 . S
O175 C153 1.264 . S
O175 Mg159 2.023 1_565 S
O176 C152 1.244 . S
O176 Mg160 1.942 . S
O177 C153 1.273 . S
O177 Mg160 1.955 1_565 S
O178 C151 1.312 . S
O178 Mg154 2.291 . S
O178 Mg157 2.114 . S
O179 C151 1.208 . S
O179 Mg159 2.031 . S
C180 O165 1.264 . S
C180 O167 1.273 . S
C181 O162 1.191 . S
C181 O164 1.307 . S
C182 O209 1.312 . S
C182 O210 1.208 . S
C183 O204 1.331 . S
C183 O207 1.244 . S
C184 O206 1.264 . S
C184 O208 1.273 . S
Mg185 O187 1.936 . S
Mg185 O194 2.081 . S
Mg185 O196 2.023 . S
Mg185 O200 2.031 . S
Mg185 O209 2.291 . S
Mg186 O187 1.963 . S
Mg186 O197 1.942 . S
Mg186 O198 1.955 . S
Mg186 O205 1.986 . S
O187 Mg185 1.936 . S
O187 Mg186 1.963 . S
O187 Mg188 1.915 . S
Mg188 O187 1.915 . S
Mg188 O189 1.915 . S
Mg188 O193 2.013 . S
Mg188 O199 2.114 . S
Mg188 O203 2.013 . S
Mg188 O209 2.114 . S
O189 Mg188 1.915 . S
O189 Mg190 1.936 . S
O189 Mg191 1.963 . S
Mg190 O189 1.936 . S
Mg190 O199 2.291 . S
Mg190 O204 2.081 . S
Mg190 O206 2.023 . S
Mg190 O210 2.031 . S
Mg191 O189 1.963 . S
Mg191 O195 1.986 . S
Mg191 O207 1.942 . S
Mg191 O208 1.955 . S
C192 O203 1.191 . S
C192 O205 1.307 . S
O193 Mg188 2.013 . S
O193 C212 1.191 . S
O194 Mg185 2.081 . S
O194 C202 1.331 . S
O195 Mg191 1.986 . S
O195 C212 1.307 . S
O196 Mg185 2.023 . S
O196 C211 1.264 . S
O197 Mg186 1.942 . S
O197 C202 1.244 . S
O198 Mg186 1.955 . S
O198 C211 1.273 . S
O199 Mg188 2.114 . S
O199 Mg190 2.291 . S
O199 C201 1.312 . S
O200 Mg185 2.031 . S
O200 C201 1.208 . S
C201 O199 1.312 . S
C201 O200 1.208 . S
C202 O194 1.331 . S
C202 O197 1.244 . S
O203 Mg188 2.013 . S
O203 C192 1.191 . S
O204 C183 1.331 . S
O204 Mg190 2.081 . S
O205 Mg186 1.986 . S
O205 C192 1.307 . S
O206 C184 1.264 . S
O206 Mg190 2.023 . S
O207 C183 1.244 . S
O207 Mg191 1.942 . S
O208 C184 1.273 . S
O208 Mg191 1.955 . S
O209 C182 1.312 . S
O209 Mg185 2.291 . S
O209 Mg188 2.114 . S
O210 C182 1.208 . S
O210 Mg190 2.031 . S
C211 O196 1.264 . S
C211 O198 1.273 . S
C212 O193 1.191 . S
C212 O195 1.307 . S
C213 C214 1.387 . S
C213 H217 0.950 . S
C213 C222 1.390 . S
C214 C213 1.387 . S
C214 C216 1.387 . S
H215 C222 0.950 . S
C216 C214 1.387 . S
C216 C218 1.390 . S
C216 H220 0.950 . S
H217 C213 0.950 . S
C218 C216 1.390 . S
C218 C219 1.387 . S
C218 H221 0.950 . S
C219 C218 1.387 . S
C219 C222 1.387 . S
H220 C216 0.950 . S
H221 C218 0.950 . S
C222 C213 1.390 . S
C222 H215 0.950 . S
C222 C219 1.387 . S
C223 C224 1.387 . S
C223 H227 0.950 . S
C223 C232 1.390 . S
C224 C223 1.387 . S
C224 C226 1.387 . S
H225 C232 0.950 . S
C226 C224 1.387 . S
C226 C228 1.390 . S
C226 H230 0.950 . S
H227 C223 0.950 . S
C228 C226 1.390 . S
C228 C229 1.387 . S
C228 H231 0.950 . S
C229 C228 1.387 . S
C229 C232 1.387 . S
H230 C226 0.950 . S
H231 C228 0.950 . S
C232 C223 1.390 . S
C232 H225 0.950 . S
C232 C229 1.387 . S
C233 C234 1.387 . S
C233 H237 0.950 . S
C233 C242 1.390 . S
C234 C233 1.387 . S
C234 C236 1.387 . S
H235 C242 0.950 . S
C236 C234 1.387 . S
C236 C238 1.390 . S
C236 H240 0.950 . S
H237 C233 0.950 . S
C238 C236 1.390 . S
C238 C239 1.387 . S
C238 H241 0.950 . S
C239 C238 1.387 . S
C239 C242 1.387 . S
H240 C236 0.950 . S
H241 C238 0.950 . S
C242 C233 1.390 . S
C242 H235 0.950 . S
C242 C239 1.387 . S
C243 C244 1.387 . S
C243 H247 0.950 . S
C243 C252 1.390 . S
C244 C243 1.387 . S
C244 C246 1.387 . S
H245 C252 0.950 . S
C246 C244 1.387 . S
C246 C248 1.390 . S
C246 H250 0.950 . S
H247 C243 0.950 . S
C248 C246 1.390 . S
C248 C249 1.387 . S
C248 H251 0.950 . S
C249 C248 1.387 . S
C249 C252 1.387 . S
H250 C246 0.950 . S
H251 C248 0.950 . S
C252 C243 1.390 . S
C252 H245 0.950 . S
C252 C249 1.387 . S
C253 C254 1.387 . S
C253 H257 0.950 . S
C253 C262 1.390 . S
C254 C253 1.387 . S
C254 C256 1.387 . S
H255 C262 0.950 . S
C256 C254 1.387 . S
C256 C258 1.390 . S
C256 H260 0.950 . S
H257 C253 0.950 . S
C258 C256 1.390 . S
C258 C259 1.387 . S
C258 H261 0.950 . S
C259 C258 1.387 . S
C259 C262 1.387 . S
H260 C256 0.950 . S
H261 C258 0.950 . S
C262 C253 1.390 . S
C262 H255 0.950 . S
C262 C259 1.387 . S
C263 C264 1.387 . S
C263 H267 0.950 . S
C263 C272 1.390 . S
C264 C263 1.387 . S
C264 C266 1.387 . S
H265 C272 0.950 . S
C266 C264 1.387 . S
C266 C268 1.390 . S
C266 H270 0.950 . S
H267 C263 0.950 . S
C268 C266 1.390 . S
C268 C269 1.387 . S
C268 H271 0.950 . S
C269 C268 1.387 . S
C269 C272 1.387 . S
H270 C266 0.950 . S
H271 C268 0.950 . S
C272 C263 1.390 . S
C272 H265 0.950 . S
C272 C269 1.387 . S
C273 C274 1.387 . S
C273 H277 0.950 . S
C273 C282 1.390 . S
C274 C273 1.387 . S
C274 C276 1.387 . S
H275 C282 0.950 . S
C276 C274 1.387 . S
C276 C278 1.390 . S
C276 H280 0.950 . S
H277 C273 0.950 . S
C278 C276 1.390 . S
C278 C279 1.387 . S
C278 H281 0.950 . S
C279 C278 1.387 . S
C279 C282 1.387 . S
H280 C276 0.950 . S
H281 C278 0.950 . S
C282 C273 1.390 . S
C282 H275 0.950 . S
C282 C279 1.387 . S
C283 C284 1.387 . S
C283 H287 0.950 . S
C283 C292 1.390 . S
C284 C283 1.387 . S
C284 C286 1.387 . S
H285 C292 0.950 . S
C286 C284 1.387 . S
C286 C288 1.390 . S
C286 H290 0.950 . S
H287 C283 0.950 . S
C288 C286 1.390 . S
C288 C289 1.387 . S
C288 H291 0.950 . S
C289 C288 1.387 . S
C289 C292 1.387 . S
H290 C286 0.950 . S
H291 C288 0.950 . S
C292 C283 1.390 . S
C292 H285 0.950 . S
C292 C289 1.387 . S
C293 C294 1.387 . S
C293 H297 0.950 . S
C293 C302 1.390 . S
C294 C293 1.387 . S
C294 C296 1.387 . S
H295 C302 0.950 . S
C296 C294 1.387 . S
C296 C298 1.390 . S
C296 H300 0.950 . S
H297 C293 0.950 . S
C298 C296 1.390 . S
C298 C299 1.387 . S
C298 H301 0.950 . S
C299 C298 1.387 . S
C299 C302 1.387 . S
H300 C296 0.950 . S
H301 C298 0.950 . S
C302 C293 1.390 . S
C302 H295 0.950 . S
C302 C299 1.387 . S
C303 C304 1.387 1_556 S
C303 H307 0.950 . S
C303 C312 1.390 . S
C304 C303 1.387 1_554 S
C304 C306 1.387 . S
H305 C312 0.950 . S
C306 C304 1.387 . S
C306 C308 1.390 1_554 S
C306 H310 0.950 . S
H307 C303 0.950 . S
C308 C306 1.390 1_556 S
C308 C309 1.387 . S
C308 H311 0.950 . S
C309 C308 1.387 . S
C309 C312 1.387 . S
H310 C306 0.950 . S
H311 C308 0.950 . S
C312 C303 1.390 . S
C312 H305 0.950 . S
C312 C309 1.387 . S
C313 C314 1.387 . S
C313 H317 0.950 . S
C313 C322 1.390 . S
C314 C313 1.387 . S
C314 C316 1.387 1_554 S
H315 C322 0.950 . S
C316 C314 1.387 1_556 S
C316 C318 1.390 . S
C316 H320 0.950 . S
H317 C313 0.950 . S
C318 C316 1.390 . S
C318 C319 1.387 . S
C318 H321 0.950 . S
C319 C318 1.387 . S
C319 C322 1.387 1_556 S
H320 C316 0.950 . S
H321 C318 0.950 . S
C322 C313 1.390 . S
C322 H315 0.950 . S
C322 C319 1.387 1_554 S
C323 C324 1.387 . S
C323 H327 0.950 1_556 S
C323 C332 1.390 . S
C324 C323 1.387 . S
C324 C326 1.387 . S
H325 C332 0.950 . S
C326 C324 1.387 . S
C326 C328 1.390 . S
C326 H330 0.950 . S
H327 C323 0.950 1_554 S
C328 C326 1.390 . S
C328 C329 1.387 . S
C328 H331 0.950 . S
C329 C328 1.387 . S
C329 C332 1.387 . S
H330 C326 0.950 . S
H331 C328 0.950 . S
C332 C323 1.390 . S
C332 H325 0.950 . S
C332 C329 1.387 . S
C333 C334 1.387 . S
C333 H337 0.950 . S
C333 C342 1.390 . S
C334 C333 1.387 . S
C334 C336 1.387 . S
H335 C342 0.950 . S
C336 C334 1.387 . S
C336 C338 1.390 . S
C336 H340 0.950 . S
H337 C333 0.950 . S
C338 C336 1.390 . S
C338 C339 1.387 . S
C338 H341 0.950 . S
C339 C338 1.387 . S
C339 C342 1.387 . S
H340 C336 0.950 . S
H341 C338 0.950 . S
C342 C333 1.390 . S
C342 H335 0.950 . S
C342 C339 1.387 . S
C343 C344 1.387 . S
C343 H347 0.950 1_556 S
C343 C352 1.390 . S
C344 C343 1.387 . S
C344 C346 1.387 . S
H345 C352 0.950 . S
C346 C344 1.387 . S
C346 C348 1.390 . S
C346 H350 0.950 . S
H347 C343 0.950 1_554 S
C348 C346 1.390 . S
C348 C349 1.387 . S
C348 H351 0.950 . S
C349 C348 1.387 . S
C349 C352 1.387 . S
H350 C346 0.950 . S
H351 C348 0.950 . S
C352 C343 1.390 . S
C352 H345 0.950 . S
C352 C349 1.387 . S
C353 C354 1.385 1_556 S
C353 H357 0.944 1_556 S
C353 C362 1.398 . S
C354 C353 1.385 1_554 S
C354 C356 1.387 1_554 S
H355 C362 0.950 . S
C356 C354 1.387 1_556 S
C356 C358 1.390 . S
C356 H360 0.950 . S
H357 C353 0.944 1_554 S
C358 C356 1.390 . S
C358 C359 1.387 . S
C358 H361 0.950 . S
C359 C358 1.387 . S
C359 C362 1.387 . S
H360 C356 0.950 . S
H361 C358 0.950 . S
C362 C353 1.398 . S
C362 H355 0.950 . S
C362 C359 1.387 . S
C363 C364 1.387 1_556 S
C363 H367 0.950 . S
C363 C372 1.390 . S
C364 C363 1.387 1_554 S
C364 C366 1.387 . S
H365 C372 0.950 . S
C366 C364 1.387 . S
C366 C368 1.390 1_554 S
C366 H370 0.950 . S
H367 C363 0.950 . S
C368 C366 1.390 1_556 S
C368 C369 1.387 . S
C368 H371 0.950 . S
C369 C368 1.387 . S
C369 C372 1.387 . S
H370 C366 0.950 . S
H371 C368 0.950 . S
C372 C363 1.390 . S
C372 H365 0.950 . S
C372 C369 1.387 . S
C373 C374 1.387 . S
C373 H377 0.950 . S
C373 C382 1.390 . S
C374 C373 1.387 . S
C374 C376 1.387 . S
H375 C382 0.950 . S
C376 C374 1.387 . S
C376 C378 1.390 . S
C376 H380 0.950 . S
H377 C373 0.950 . S
C378 C376 1.390 . S
C378 C379 1.387 . S
C378 H381 0.950 . S
C379 C378 1.387 . S
C379 C382 1.387 . S
H380 C376 0.950 . S
H381 C378 0.950 . S
C382 C373 1.390 . S
C382 H375 0.950 . S
C382 C379 1.387 . S
C383 C384 1.387 . S
C383 H387 0.950 . S
C383 C392 1.390 . S
C384 C383 1.387 . S
C384 C386 1.387 . S
H385 C392 0.950 . S
C386 C384 1.387 . S
C386 C388 1.390 . S
C386 H390 0.950 . S
H387 C383 0.950 . S
C388 C386 1.390 . S
C388 C389 1.387 . S
C388 H391 0.950 . S
C389 C388 1.387 . S
C389 C392 1.387 . S
H390 C386 0.950 . S
H391 C388 0.950 . S
C392 C383 1.390 . S
C392 H385 0.950 . S
C392 C389 1.387 . S
C393 C394 1.387 . S
C393 H397 0.950 . S
C393 C402 1.390 . S
C394 C393 1.387 . S
C394 C396 1.387 . S
H395 C402 0.950 . S
C396 C394 1.387 . S
C396 C398 1.390 . S
C396 H400 0.950 . S
H397 C393 0.950 . S
C398 C396 1.390 . S
C398 C399 1.387 . S
C398 H401 0.950 . S
C399 C398 1.387 . S
C399 C402 1.387 . S
H400 C396 0.950 . S
H401 C398 0.950 . S
C402 C393 1.390 . S
C402 H395 0.950 . S
C402 C399 1.387 . S
C403 C404 1.387 . S
C403 H407 0.950 . S
C403 C412 1.390 . S
C404 C403 1.387 . S
C404 C406 1.387 . S
H405 C412 0.950 . S
C406 C404 1.387 . S
C406 C408 1.390 . S
C406 H410 0.950 . S
H407 C403 0.950 . S
C408 C406 1.390 . S
C408 C409 1.387 . S
C408 H411 0.950 . S
C409 C408 1.387 . S
C409 C412 1.387 . S
H410 C406 0.950 . S
H411 C408 0.950 . S
C412 C403 1.390 . S
C412 H405 0.950 . S
C412 C409 1.387 . S
C413 C414 1.387 . S
C413 H417 0.950 . S
C413 C422 1.390 . S
C414 C413 1.387 . S
C414 C416 1.387 . S
H415 C422 0.950 . S
C416 C414 1.387 . S
C416 C418 1.390 . S
C416 H420 0.950 . S
H417 C413 0.950 . S
C418 C416 1.390 . S
C418 C419 1.387 . S
C418 H421 0.950 . S
C419 C418 1.387 . S
C419 C422 1.387 . S
H420 C416 0.950 . S
H421 C418 0.950 . S
C422 C413 1.390 . S
C422 H415 0.950 . S
C422 C419 1.387 . S
C423 C424 1.387 . S
C423 H427 0.950 . S
C423 C432 1.390 . S
C424 C423 1.387 . S
C424 C426 1.387 . S
H425 C432 0.950 . S
C426 C424 1.387 . S
C426 C428 1.390 . S
C426 H430 0.950 . S
H427 C423 0.950 . S
C428 C426 1.390 . S
C428 C429 1.387 . S
C428 H431 0.950 . S
C429 C428 1.387 . S
C429 C432 1.387 . S
H430 C426 0.950 . S
H431 C428 0.950 . S
C432 C423 1.390 . S
C432 H425 0.950 . S
C432 C429 1.387 . S
C433 C434 1.387 . S
C433 H437 0.950 . S
C433 C442 1.390 . S
C434 C433 1.387 . S
C434 C436 1.387 . S
H435 C442 0.950 . S
C436 C434 1.387 . S
C436 C438 1.390 . S
C436 H440 0.950 . S
H437 C433 0.950 . S
C438 C436 1.390 . S
C438 C439 1.387 . S
C438 H441 0.950 . S
C439 C438 1.387 . S
C439 C442 1.387 . S
H440 C436 0.950 . S
H441 C438 0.950 . S
C442 C433 1.390 . S
C442 H435 0.950 . S
C442 C439 1.387 . S
C443 C444 1.387 . S
C443 H447 0.950 . S
C443 C452 1.390 . S
C444 C443 1.387 . S
C444 C446 1.387 . S
H445 C452 0.950 . S
C446 C444 1.387 . S
C446 C448 1.390 . S
C446 H450 0.950 . S
H447 C443 0.950 . S
C448 C446 1.390 . S
C448 C449 1.387 . S
C448 H451 0.950 . S
C449 C448 1.387 . S
C449 C452 1.387 . S
H450 C446 0.950 . S
H451 C448 0.950 . S
C452 C443 1.390 . S
C452 H445 0.950 . S
C452 C449 1.387 . S
C214 C12 1.804 . S
C219 C120 1.774 . S
C224 C32 1.555 . S
C229 C152 1.581 . S
C239 C211 1.825 . S
C234 C52 1.867 . S
C249 C140 1.504 . S
C244 C75 1.472 . S
C254 C95 1.708 . S
C259 C170 1.690 . S
C269 C192 1.492 . S
C264 C115 1.365 . S
C279 C161 1.790 . S
C274 C58 1.745 . S
C284 C69 1.424 . S
C289 C201 1.491 . S
C299 C150 1.717 . S
C294 C89 1.656 1_556 S
C304 C109 1.552 . S
C309 C180 1.574 . S
C314 C18 1.786 . S
C319 C183 1.748 . S
C329 C122 1.648 . S
C324 C38 1.627 1_556 S
C339 C130 1.704 . S
C334 C78 1.694 . S
C349 C171 1.528 . S
C344 C98 1.522 1_556 S
C359 C184 1.810 . S
C354 C118 1.856 . S
C369 C121 1.482 . S
C364 C9 1.497 . S
C379 C181 1.622 . S
C374 C29 1.635 1_556 S
C384 C49 1.383 . S
C389 C182 1.428 . S
C399 C151 1.698 . S
C394 C112 1.703 . S
C409 C212 1.440 . S
C404 C15 1.385 . S
C419 C139 1.619 . S
C414 C35 1.663 . S
C429 C153 1.570 . S
C424 C55 1.580 . S
C434 C72 1.765 . S
C439 C202 1.714 . S
C444 C92 1.620 . S
C449 C149 1.628 . S
