# Generated by pormake.
# Topology apo, (3,6)-cn, num edge types: 1
# Building blocks:
#     Node 0, Type 0, BuildingBlock: MIDCAF_clean_linker_0, # of connection points: 3
#     Node 1, Type 0, BuildingBlock: MIDCAF_clean_linker_0, # of connection points: 3
#     Node 2, Type 0, BuildingBlock: MIDCAF_clean_linker_0, # of connection points: 3
#     Node 3, Type 0, BuildingBlock: MIDCAF_clean_linker_0, # of connection points: 3
#     Node 4, Type 0, BuildingBlock: MIDCAF_clean_linker_0, # of connection points: 3
#     Node 5, Type 0, BuildingBlock: MIDCAF_clean_linker_0, # of connection points: 3
#     Node 6, Type 0, BuildingBlock: MIDCAF_clean_linker_0, # of connection points: 3
#     Node 7, Type 0, BuildingBlock: MIDCAF_clean_linker_0, # of connection points: 3
#     Node 8, Type 1, BuildingBlock: MIDCAF_clean_sbu_0, # of connection points: 6
#     Node 9, Type 1, BuildingBlock: MIDCAF_clean_sbu_0, # of connection points: 6
#     Node 10, Type 1, BuildingBlock: MIDCAF_clean_sbu_0, # of connection points: 6
#     Node 11, Type 1, BuildingBlock: MIDCAF_clean_sbu_0, # of connection points: 6
#     Edge 12, Type (0, 1), None
#     Edge 13, Type (0, 1), None
#     Edge 14, Type (0, 1), None
#     Edge 15, Type (0, 1), None
#     Edge 16, Type (0, 1), None
#     Edge 17, Type (0, 1), None
#     Edge 18, Type (0, 1), None
#     Edge 19, Type (0, 1), None
#     Edge 20, Type (0, 1), None
#     Edge 21, Type (0, 1), None
#     Edge 22, Type (0, 1), None
#     Edge 23, Type (0, 1), None
#     Edge 24, Type (0, 1), None
#     Edge 25, Type (0, 1), None
#     Edge 26, Type (0, 1), None
#     Edge 27, Type (0, 1), None
#     Edge 28, Type (0, 1), None
#     Edge 29, Type (0, 1), None
#     Edge 30, Type (0, 1), None
#     Edge 31, Type (0, 1), None
#     Edge 32, Type (0, 1), None
#     Edge 33, Type (0, 1), None
#     Edge 34, Type (0, 1), None
#     Edge 35, Type (0, 1), None
# Relax obj value: 0.088
# Max RMSD: 0.100
# Mean RMSD: 0.092
data_MOF--net-apo--node1-MIDCAF_clean_sbu_0--node2-MIDCAF_clean_linker_0--edge1-none
_symmetry_space_group_name_H-M    P1
_symmetry_Int_Tables_number       1
_symmetry_cell_setting            triclinic
loop_
_symmetry_equiv_pos_as_xyz
'x, y, z'
_cell_length_a     22.739045
_cell_length_b     27.139922
_cell_length_c     24.233891
_cell_angle_alpha  90.000875
_cell_angle_beta   90.001273
_cell_angle_gamma 90.602492
loop_
_atom_site_label
_atom_site_type_symbol
_atom_site_fract_x
_atom_site_fract_y
_atom_site_fract_z
_atom_type_partial_charge
C0 C 0.39178 0.30342 0.56412 0.0
C1 C 0.45249 0.29588 0.56976 0.0
C2 C 0.48476 0.28 0.52368 0.0
C3 C 0.45886 0.27798 0.4716 0.0
H4 H 0.26956 0.20809 0.36113 0.0
H5 H 0.17966 0.16926 0.32911 0.0
H6 H 0.15109 0.28908 0.21571 0.0
H7 H 0.24266 0.32904 0.24805 0.0
H8 H 0.33503 0.43045 0.26806 0.0
H9 H 0.36482 0.51719 0.26068 0.0
H10 H 0.52381 0.48694 0.3505 0.0
H11 H 0.49512 0.40035 0.35738 0.0
H12 H 0.32 0.31152 0.50702 0.0
H13 H 0.3662 0.31644 0.59879 0.0
H14 H 0.5317 0.27409 0.52694 0.0
H15 H 0.4862 0.27042 0.43602 0.0
N16 N 0.33344 0.28258 0.38454 0.0
N17 N 0.33966 0.33876 0.31049 0.0
N18 N 0.40602 0.34421 0.38449 0.0
C19 C 0.31374 0.29842 0.33446 0.0
C20 C 0.3865 0.36153 0.33535 0.0
C21 C 0.37967 0.30524 0.40942 0.0
C22 C 0.26285 0.27247 0.3083 0.0
C23 C 0.24487 0.22633 0.32899 0.0
C24 C 0.19331 0.20379 0.31039 0.0
C25 C 0.15813 0.22641 0.27039 0.0
C26 C 0.17774 0.27074 0.24636 0.0
C27 C 0.22985 0.2937 0.26525 0.0
C28 C 0.41194 0.40868 0.31449 0.0
C29 C 0.37767 0.44167 0.28385 0.0
C30 C 0.39485 0.49132 0.27936 0.0
C31 C 0.44675 0.50845 0.30476 0.0
C32 C 0.48407 0.47445 0.32989 0.0
C33 C 0.46712 0.42495 0.33429 0.0
C34 C 0.3999 0.29082 0.46476 0.0
C35 C 0.36551 0.30084 0.51164 0.0
C36 C 0.1205 0.19916 0.06412 0.0
C37 C 0.05978 0.20668 0.06975 0.0
C38 C 0.02751 0.22255 0.02367 0.0
C39 C 0.05341 0.22457 0.97159 0.0
H40 H 0.24276 0.29446 0.86117 0.0
H41 H 0.33267 0.33329 0.82916 0.0
H42 H 0.3612 0.2135 0.71571 0.0
H43 H 0.26962 0.17354 0.74804 0.0
H44 H 0.17729 0.07211 0.76807 0.0
H45 H 0.1475 0.98536 0.7607 0.0
H46 H 0.98849 0.01562 0.85048 0.0
H47 H 0.01718 0.10221 0.85736 0.0
H48 H 0.19228 0.19107 1.00703 0.0
H49 H 0.14608 0.18614 0.0988 0.0
H50 H 0.98057 0.22845 0.02692 0.0
H51 H 0.02607 0.23212 0.93601 0.0
N52 N 0.17885 0.21999 0.88455 0.0
N53 N 0.17265 0.1638 0.8105 0.0
N54 N 0.10627 0.15835 0.88448 0.0
C55 C 0.19856 0.20414 0.83448 0.0
C56 C 0.1258 0.14103 0.83535 0.0
C57 C 0.13262 0.19732 0.90941 0.0
C58 C 0.24946 0.23009 0.80832 0.0
C59 C 0.26745 0.27622 0.82902 0.0
C60 C 0.31901 0.29877 0.81043 0.0
C61 C 0.35417 0.27615 0.77042 0.0
C62 C 0.33455 0.23183 0.74638 0.0
C63 C 0.28244 0.20887 0.76526 0.0
C64 C 0.10037 0.09388 0.81449 0.0
C65 C 0.13465 0.06088 0.78385 0.0
C66 C 0.11747 0.01123 0.77937 0.0
C67 C 0.06556 0.99411 0.80476 0.0
C68 C 0.02824 0.02811 0.82988 0.0
C69 C 0.04518 0.07761 0.83427 0.0
C70 C 0.11238 0.21175 0.96475 0.0
C71 C 0.14677 0.20174 0.01164 0.0
C72 C 0.95854 0.15088 0.42968 0.0
C73 C 0.93698 0.18972 0.39771 0.0
C74 C 0.89821 0.22335 0.422 0.0
C75 C 0.88338 0.21902 0.47834 0.0
H76 H 0.83952 0.29732 0.64516 0.0
H77 H 0.76113 0.35091 0.67564 0.0
H78 H 0.67127 0.22682 0.75051 0.0
H79 H 0.7523 0.17308 0.72169 0.0
H80 H 0.86203 0.07623 0.73936 0.0
H81 H 0.88821 0.99117 0.76142 0.0
H82 H 0.03594 1.0009 0.65056 0.0
H83 H 0.01052 0.08566 0.62848 0.0
H84 H 0.96249 0.11606 0.50805 0.0
H85 H 0.98788 0.12411 0.41186 0.0
H86 H 0.88136 0.25387 0.39817 0.0
H87 H 0.85446 0.24598 0.49653 0.0
N88 N 0.85645 0.20589 0.59775 0.0
N89 N 0.8682 0.1601 0.67979 0.0
N90 N 0.92 0.13885 0.59978 0.0
C91 C 0.84333 0.19828 0.65213 0.0
C92 C 0.90774 0.13081 0.65381 0.0
C93 C 0.89441 0.17574 0.57106 0.0
C94 C 0.80116 0.23104 0.67996 0.0
C95 C 0.8039 0.2817 0.66943 0.0
C96 C 0.75906 0.31238 0.68732 0.0
C97 C 0.70936 0.29296 0.71473 0.0
C98 C 0.70904 0.24292 0.72978 0.0
C99 C 0.75506 0.21215 0.71279 0.0
C100 C 0.93321 0.08707 0.681 0.0
C101 C 0.9017 0.06109 0.72172 0.0
C102 C 0.91689 0.01255 0.73469 0.0
C103 C 0.96412 0.98991 0.7077 0.0
C104 C 0.9998 0.01791 0.67232 0.0
C105 C 0.98467 0.0662 0.65924 0.0
C106 C 0.90708 0.1809 0.51089 0.0
C107 C 0.94389 0.14644 0.4852 0.0
C108 C 0.55384 0.35171 0.92966 0.0
C109 C 0.57535 0.31285 0.8977 0.0
C110 C 0.61408 0.27919 0.92201 0.0
C111 C 0.62891 0.28352 0.97835 0.0
H112 H 0.67277 0.20525 0.14519 0.0
H113 H 0.75116 0.15165 0.17567 0.0
H114 H 0.84104 0.27575 0.25051 0.0
H115 H 0.76 0.32949 0.22169 0.0
H116 H 0.65026 0.42633 0.23937 0.0
H117 H 0.62407 0.5114 0.26143 0.0
H118 H 0.47636 0.50166 0.15054 0.0
H119 H 0.50179 0.4169 0.12845 0.0
H120 H 0.54992 0.38655 1.00801 0.0
H121 H 0.52453 0.37849 0.91182 0.0
H122 H 0.63089 0.24864 0.89819 0.0
H123 H 0.65779 0.25653 0.99655 0.0
N124 N 0.65586 0.29668 0.09775 0.0
N125 N 0.64409 0.34247 0.17979 0.0
N126 N 0.59231 0.36372 0.09977 0.0
C127 C 0.66898 0.30428 0.15213 0.0
C128 C 0.60456 0.37175 0.15381 0.0
C129 C 0.6179 0.32683 0.07106 0.0
C130 C 0.71114 0.27152 0.17997 0.0
C131 C 0.7084 0.22087 0.16945 0.0
C132 C 0.75323 0.19018 0.18734 0.0
C133 C 0.80294 0.20961 0.21474 0.0
C134 C 0.80326 0.25965 0.22979 0.0
C135 C 0.75725 0.29042 0.2128 0.0
C136 C 0.57908 0.41549 0.18099 0.0
C137 C 0.61059 0.44147 0.22172 0.0
C138 C 0.59539 0.49001 0.23469 0.0
C139 C 0.54817 0.51265 0.20769 0.0
C140 C 0.51249 0.48465 0.1723 0.0
C141 C 0.52763 0.43636 0.15923 0.0
C142 C 0.60525 0.32167 0.01088 0.0
C143 C 0.56849 0.35615 0.98517 0.0
C144 C 0.50427 0.69773 0.4801 0.0
C145 C 0.54568 0.70467 0.43769 0.0
C146 C 0.60369 0.71801 0.45179 0.0
C147 C 0.62055 0.72123 0.50751 0.0
H148 H 0.72418 0.79574 0.63526 0.0
H149 H 0.81723 0.83172 0.66302 0.0
H150 H 0.82613 0.73161 0.8011 0.0
H151 H 0.73143 0.69507 0.77338 0.0
H152 H 0.64227 0.597 0.76526 0.0
H153 H 0.61782 0.50981 0.77695 0.0
H154 H 0.45797 0.52926 0.68453 0.0
H155 H 0.48134 0.61655 0.6733 0.0
H156 H 0.48837 0.69293 0.56675 0.0
H157 H 0.45887 0.68875 0.47085 0.0
H158 H 0.63643 0.72398 0.41996 0.0
H159 H 0.66614 0.72911 0.51741 0.0
N160 N 0.64665 0.72746 0.62843 0.0
N161 N 0.63845 0.68132 0.71043 0.0
N162 N 0.57034 0.66987 0.63891 0.0
C163 C 0.66638 0.71697 0.68025 0.0
C164 C 0.58979 0.65798 0.69002 0.0
C165 C 0.59837 0.70419 0.60773 0.0
C166 C 0.72052 0.74178 0.70138 0.0
C167 C 0.74539 0.78132 0.67178 0.0
C168 C 0.79903 0.80208 0.68776 0.0
C169 C 0.82956 0.78398 0.73376 0.0
C170 C 0.80357 0.74626 0.76541 0.0
C171 C 0.74946 0.72527 0.74933 0.0
C172 C 0.56477 0.61329 0.71671 0.0
C173 C 0.60032 0.58349 0.75006 0.0
C174 C 0.58623 0.53354 0.75699 0.0
C175 C 0.53632 0.51316 0.73121 0.0
C176 C 0.49651 0.54437 0.70499 0.0
C177 C 0.51034 0.59426 0.69821 0.0
C178 C 0.57966 0.71085 0.54969 0.0
C179 C 0.52108 0.7005 0.53527 0.0
C180 C 0.00803 0.80484 0.9801 0.0
C181 C 0.96663 0.79789 0.93769 0.0
C182 C 0.90862 0.78455 0.95179 0.0
C183 C 0.89175 0.78133 1.0075 0.0
H184 H 0.78811 0.70683 0.13524 0.0
H185 H 0.69506 0.67085 0.16301 0.0
H186 H 0.68618 0.77095 0.3011 0.0
H187 H 0.78088 0.80749 0.27338 0.0
H188 H 0.87002 0.90557 0.26526 0.0
H189 H 0.89448 0.99276 0.27694 0.0
H190 H 0.05432 0.9733 0.18454 0.0
H191 H 0.03096 0.88601 0.17331 0.0
H192 H 0.02393 0.80964 0.06675 0.0
H193 H 0.05343 0.81382 0.97086 0.0
H194 H 0.87587 0.77857 0.91995 0.0
H195 H 0.84616 0.77345 0.0174 0.0
N196 N 0.86564 0.7751 0.12842 0.0
N197 N 0.87385 0.82124 0.21042 0.0
N198 N 0.94196 0.83269 0.13891 0.0
C199 C 0.84591 0.78559 0.18024 0.0
C200 C 0.92251 0.84458 0.19002 0.0
C201 C 0.91393 0.79837 0.10772 0.0
C202 C 0.79177 0.76079 0.20137 0.0
C203 C 0.7669 0.72125 0.17177 0.0
C204 C 0.71326 0.70049 0.18775 0.0
C205 C 0.68274 0.71858 0.23375 0.0
C206 C 0.70873 0.7563 0.26541 0.0
C207 C 0.76284 0.77729 0.24932 0.0
C208 C 0.94753 0.88927 0.2167 0.0
C209 C 0.91198 0.91908 0.25005 0.0
C210 C 0.92606 0.96903 0.25698 0.0
C211 C 0.97597 0.9894 0.23121 0.0
C212 C 0.01579 0.95819 0.20499 0.0
C213 C 1.00195 0.9083 0.19822 0.0
C214 C 0.93264 0.79171 0.04969 0.0
C215 C 0.99122 0.80207 0.03527 0.0
C216 C 0.01064 0.80022 0.56228 0.0
C217 C 0.04773 0.792 0.60771 0.0
C218 C 0.10803 0.7847 0.59831 0.0
C219 C 0.13117 0.7891 0.54483 0.0
H220 H 0.23579 0.7216 0.41364 0.0
H221 H 0.32191 0.6791 0.38159 0.0
H222 H 0.34738 0.78799 0.2537 0.0
H223 H 0.25967 0.83144 0.28601 0.0
H224 H 0.18227 0.93755 0.30495 0.0
H225 H 0.15757 0.02387 0.28704 0.0
H226 H 0.99448 0.00501 0.37536 0.0
H227 H 0.01816 0.91893 0.3931 0.0
H228 H 1.00447 0.81463 0.47571 0.0
H229 H 0.96376 0.80434 0.56764 0.0
H230 H 0.13764 0.77796 0.63244 0.0
H231 H 0.17818 0.78584 0.53882 0.0
N232 N 0.16543 0.79215 0.42442 0.0
N233 N 0.16919 0.84917 0.3513 0.0
N234 N 0.09788 0.8564 0.42074 0.0
C235 C 0.19017 0.80781 0.37623 0.0
C236 C 0.1226 0.8735 0.37344 0.0
C237 C 0.1191 0.81609 0.44654 0.0
C238 C 0.24096 0.78058 0.35305 0.0
C239 C 0.2592 0.73676 0.37852 0.0
C240 C 0.30886 0.71214 0.36002 0.0
C241 C 0.3419 0.73042 0.31545 0.0
C242 C 0.3227 0.77305 0.28819 0.0
C243 C 0.27263 0.79799 0.30688 0.0
C244 C 0.10268 0.92149 0.35122 0.0
C245 C 0.14032 0.95126 0.31907 0.0
C246 C 0.12634 1.00061 0.30889 0.0
C247 C 0.0743 0.02055 0.33003 0.0
C248 C 0.03476 0.99011 0.35862 0.0
C249 C 0.04859 0.94094 0.36883 0.0
C250 C 0.09439 0.80157 0.50043 0.0
C251 C 0.03381 0.8057 0.50942 0.0
C252 C 0.50165 0.70235 0.06229 0.0
C253 C 0.46456 0.71056 0.10771 0.0
C254 C 0.40426 0.71786 0.09831 0.0
C255 C 0.38112 0.71346 0.04483 0.0
H256 H 0.27652 0.78097 0.91363 0.0
H257 H 0.1904 0.82347 0.88157 0.0
H258 H 0.16491 0.71456 0.7537 0.0
H259 H 0.25262 0.67111 0.78601 0.0
H260 H 0.33004 0.56501 0.80495 0.0
H261 H 0.35475 0.47869 0.78704 0.0
H262 H 0.51783 0.49756 0.87538 0.0
H263 H 0.49415 0.58364 0.89311 0.0
H264 H 0.50783 0.68795 0.97572 0.0
H265 H 0.54853 0.69824 0.06765 0.0
H266 H 0.37465 0.72459 0.13244 0.0
H267 H 0.33411 0.71672 0.03882 0.0
N268 N 0.34687 0.71041 0.92441 0.0
N269 N 0.34311 0.65339 0.8513 0.0
N270 N 0.41442 0.64617 0.92074 0.0
C271 C 0.32213 0.69475 0.87623 0.0
C272 C 0.3897 0.62906 0.87344 0.0
C273 C 0.3932 0.68648 0.94654 0.0
C274 C 0.27134 0.72198 0.85305 0.0
C275 C 0.2531 0.7658 0.87851 0.0
C276 C 0.20345 0.79042 0.86001 0.0
C277 C 0.1704 0.77214 0.81544 0.0
C278 C 0.1896 0.72951 0.78819 0.0
C279 C 0.23967 0.70456 0.80688 0.0
C280 C 0.40963 0.58107 0.85123 0.0
C281 C 0.37199 0.5513 0.81907 0.0
C282 C 0.38598 0.50195 0.80889 0.0
C283 C 0.43802 0.48202 0.83004 0.0
C284 C 0.47756 0.51245 0.85864 0.0
C285 C 0.46372 0.56162 0.86884 0.0
C286 C 0.41791 0.701 1.00043 0.0
C287 C 0.47849 0.69687 1.00942 0.0
Zn288 Zn 0.0858 0.1719 0.38358 0.0
Zn289 Zn 0.94037 0.12278 0.16197 0.0
Zn290 Zn 0.99312 0.15711 0.23963 0.0
C291 C 0.02654 0.18438 0.11586 0.0
C292 C 0.97463 0.04135 0.21493 0.0
O293 O 0.93163 0.19332 0.29793 0.0
O294 O 0.01689 0.19262 0.33524 0.0
C295 C 0.09767 0.2072 0.26253 0.0
O296 O 0.04039 0.19027 0.16704 0.0
O297 O 0.9842 0.15629 0.1029 0.0
O298 O 0.94856 0.05155 0.17063 0.0
O299 O 0.99483 0.07603 0.24592 0.0
O300 O 0.06937 0.19062 0.30359 0.0
O301 O 0.07108 0.20347 0.21642 0.0
O302 O 0.03515 0.09426 0.29045 0.0
O303 O 0.0895 0.09831 0.36966 0.0
C304 C 0.06569 0.07407 0.32999 0.0
O305 O 0.90233 0.18962 0.24541 0.0
O306 O 0.86228 0.14918 0.17575 0.0
C307 C 0.96203 0.19682 0.34197 0.0
C308 C 0.85764 0.18038 0.21399 0.0
Zn309 Zn 0.57192 0.37978 0.66196 0.0
Zn310 Zn 0.42654 0.33066 0.8836 0.0
Zn311 Zn 0.51918 0.34545 0.73963 0.0
C312 C 0.44663 0.42849 0.83001 0.0
C313 C 0.41463 0.29537 0.76255 0.0
O314 O 0.60997 0.31294 0.7454 0.0
O315 O 0.65001 0.35338 0.67574 0.0
C316 C 0.53766 0.46121 0.71493 0.0
O317 O 0.47716 0.4083 0.79046 0.0
O318 O 0.42284 0.40425 0.86969 0.0
O319 O 0.44294 0.31194 0.8036 0.0
O320 O 0.44122 0.29909 0.71643 0.0
O321 O 0.56372 0.45101 0.67063 0.0
O322 O 0.51747 0.42653 0.74593 0.0
O323 O 0.4719 0.31229 0.66705 0.0
O324 O 0.52807 0.34626 0.60291 0.0
C325 C 0.48574 0.31818 0.61587 0.0
O326 O 0.58068 0.30924 0.79792 0.0
O327 O 0.49543 0.30993 0.83524 0.0
C328 C 0.65466 0.32219 0.71398 0.0
C329 C 0.55029 0.30574 0.84196 0.0
Zn330 Zn 0.10076 0.8656 0.90466 0.0
Zn331 Zn 0.91341 0.85292 0.6295 0.0
Zn332 Zn 1.00451 0.83106 0.77022 0.0
C333 C 0.96303 0.93629 0.7009 0.0
C334 C 0.89037 0.80168 0.7441 0.0
O335 O 0.08444 0.78658 0.75798 0.0
O336 O 0.09023 0.82591 0.83431 0.0
C337 C 0.06093 0.94193 0.82076 0.0
O338 O 0.98625 0.90776 0.73801 0.0
O339 O 0.93524 0.92086 0.65808 0.0
O340 O 0.91944 0.8231 0.70638 0.0
O341 O 0.91842 0.79532 0.789 0.0
O342 O 0.08856 0.93063 0.86509 0.0
O343 O 0.03269 0.91024 0.78986 0.0
O344 O 0.95255 0.79788 0.83804 0.0
O345 O 0.03257 0.82926 0.86911 0.0
C346 C 0.98462 0.80739 0.87987 0.0
O347 O 0.0542 0.78966 0.70753 0.0
O348 O 0.97393 0.81514 0.67247 0.0
C349 C 0.1139 0.79574 0.80156 0.0
C350 C 0.0236 0.79616 0.66421 0.0
Zn351 Zn 0.59888 0.64964 0.12949 0.0
Zn352 Zn 0.41154 0.63695 0.40466 0.0
Zn353 Zn 0.50779 0.6715 0.27022 0.0
C354 C 0.52769 0.69517 0.37987 0.0
C355 C 0.45138 0.56062 0.32076 0.0
O356 O 0.4581 0.7129 0.20753 0.0
O357 O 0.53836 0.68742 0.17247 0.0
C358 C 0.62193 0.70088 0.2441 0.0
O359 O 0.55975 0.70468 0.33805 0.0
O360 O 0.47974 0.6733 0.36911 0.0
O361 O 0.42375 0.57193 0.36509 0.0
O362 O 0.47961 0.59232 0.28987 0.0
O363 O 0.59286 0.67946 0.20638 0.0
O364 O 0.59388 0.70724 0.289 0.0
O365 O 0.52604 0.5948 0.238 0.0
O366 O 0.57705 0.5817 0.15807 0.0
C367 C 0.54926 0.56627 0.20089 0.0
O368 O 0.42785 0.71598 0.25798 0.0
O369 O 0.42207 0.67664 0.33431 0.0
C370 C 0.48869 0.70641 0.16422 0.0
C371 C 0.3984 0.70682 0.30157 0.0
loop_
_geom_bond_atom_site_label_1
_geom_bond_atom_site_label_2
_geom_bond_distance
_geom_bond_site_symmetry_2
_ccdc_geom_bond_type
C0 C1 1.384 . S
C0 H13 0.947 . S
C0 C35 1.382 . S
C1 C0 1.384 . S
C1 C2 1.378 . S
C2 C1 1.378 . S
C2 C3 1.378 . S
C2 H14 0.952 . S
C3 C2 1.378 . S
C3 H15 0.950 . S
C3 C34 1.383 . S
H4 C23 0.947 . S
H5 C24 0.946 . S
H6 C26 0.953 . S
H7 C27 0.945 . S
H8 C29 0.952 . S
H9 C30 0.949 . S
H10 C32 0.950 . S
H11 C33 0.948 . S
H12 C35 0.951 . S
H13 C0 0.947 . S
H14 C2 0.952 . S
H15 C3 0.950 . S
N16 C19 1.382 . S
N16 C21 1.363 . S
N17 C19 1.371 . S
N17 C20 1.372 . S
N18 C20 1.361 . S
N18 C21 1.377 . S
C19 N16 1.382 . S
C19 N17 1.371 . S
C19 C22 1.480 . S
C20 N17 1.372 . S
C20 N18 1.361 . S
C20 C28 1.457 . S
C21 N16 1.363 . S
C21 N18 1.377 . S
C21 C34 1.479 . S
C22 C19 1.480 . S
C22 C23 1.383 . S
C22 C27 1.385 . S
C23 H4 0.947 . S
C23 C22 1.383 . S
C23 C24 1.388 . S
C24 H5 0.946 . S
C24 C23 1.388 . S
C24 C25 1.384 . S
C25 C24 1.384 . S
C25 C26 1.377 . S
C26 H6 0.953 . S
C26 C25 1.377 . S
C26 C27 1.369 . S
C27 H7 0.945 . S
C27 C22 1.385 . S
C27 C26 1.369 . S
C28 C20 1.457 . S
C28 C29 1.372 . S
C28 C33 1.364 . S
C29 H8 0.952 . S
C29 C28 1.372 . S
C29 C30 1.389 . S
C30 H9 0.949 . S
C30 C29 1.389 . S
C30 C31 1.387 . S
C31 C30 1.387 . S
C31 C32 1.372 . S
C32 H10 0.950 . S
C32 C31 1.372 . S
C32 C33 1.379 . S
C33 H11 0.948 . S
C33 C28 1.364 . S
C33 C32 1.379 . S
C34 C3 1.383 . S
C34 C21 1.479 . S
C34 C35 1.398 . S
C35 C0 1.382 . S
C35 H12 0.951 . S
C35 C34 1.398 . S
C36 C37 1.384 . S
C36 H49 0.947 . S
C36 C71 1.382 . S
C37 C36 1.384 . S
C37 C38 1.378 . S
C38 C37 1.378 . S
C38 C39 1.378 . S
C38 H50 0.952 . S
C39 C38 1.378 . S
C39 H51 0.950 . S
C39 C70 1.383 1_554 S
H40 C59 0.947 . S
H41 C60 0.946 . S
H42 C62 0.953 . S
H43 C63 0.945 . S
H44 C65 0.952 . S
H45 C66 0.949 . S
H46 C68 0.950 1_565 S
H47 C69 0.948 . S
H48 C71 0.951 1_556 S
H49 C36 0.947 . S
H50 C38 0.952 . S
H51 C39 0.950 . S
N52 C55 1.382 . S
N52 C57 1.363 . S
N53 C55 1.371 . S
N53 C56 1.372 . S
N54 C56 1.361 . S
N54 C57 1.377 . S
C55 N52 1.382 . S
C55 N53 1.371 . S
C55 C58 1.480 . S
C56 N53 1.372 . S
C56 N54 1.361 . S
C56 C64 1.457 . S
C57 N52 1.363 . S
C57 N54 1.377 . S
C57 C70 1.479 . S
C58 C55 1.480 . S
C58 C59 1.383 . S
C58 C63 1.385 . S
C59 H40 0.947 . S
C59 C58 1.383 . S
C59 C60 1.388 . S
C60 H41 0.946 . S
C60 C59 1.388 . S
C60 C61 1.384 . S
C61 C60 1.384 . S
C61 C62 1.377 . S
C62 H42 0.953 . S
C62 C61 1.377 . S
C62 C63 1.369 . S
C63 H43 0.945 . S
C63 C58 1.385 . S
C63 C62 1.369 . S
C64 C56 1.457 . S
C64 C65 1.372 . S
C64 C69 1.364 . S
C65 H44 0.952 . S
C65 C64 1.372 . S
C65 C66 1.389 . S
C66 H45 0.949 . S
C66 C65 1.389 . S
C66 C67 1.382 1_545 S
C67 C66 1.382 1_565 S
C67 C68 1.370 1_565 S
C68 H46 0.950 1_545 S
C68 C67 1.370 1_545 S
C68 C69 1.379 . S
C69 H47 0.948 . S
C69 C64 1.364 . S
C69 C68 1.379 . S
C70 C39 1.383 1_556 S
C70 C57 1.479 . S
C70 C71 1.398 1_556 S
C71 C36 1.382 . S
C71 H48 0.951 1_554 S
C71 C70 1.398 1_554 S
C72 C73 1.384 . S
C72 H85 0.947 . S
C72 C107 1.382 . S
C73 C72 1.384 . S
C73 C74 1.378 . S
C74 C73 1.378 . S
C74 C75 1.378 . S
C74 H86 0.952 . S
C75 C74 1.378 . S
C75 H87 0.950 . S
C75 C106 1.383 . S
H76 C95 0.947 . S
H77 C96 0.946 . S
H78 C98 0.953 . S
H79 C99 0.945 . S
H80 C101 0.952 . S
H81 C102 0.949 . S
H82 C104 0.950 1_565 S
H83 C105 0.948 . S
H84 C107 0.951 . S
H85 C72 0.947 . S
H86 C74 0.952 . S
H87 C75 0.950 . S
N88 C91 1.382 . S
N88 C93 1.363 . S
N89 C91 1.371 . S
N89 C92 1.372 . S
N90 C92 1.361 . S
N90 C93 1.377 . S
C91 N88 1.382 . S
C91 N89 1.371 . S
C91 C94 1.480 . S
C92 N89 1.372 . S
C92 N90 1.361 . S
C92 C100 1.457 . S
C93 N88 1.363 . S
C93 N90 1.377 . S
C93 C106 1.479 . S
C94 C91 1.480 . S
C94 C95 1.383 . S
C94 C99 1.385 . S
C95 H76 0.947 . S
C95 C94 1.383 . S
C95 C96 1.388 . S
C96 H77 0.946 . S
C96 C95 1.388 . S
C96 C97 1.384 . S
C97 C96 1.384 . S
C97 C98 1.377 . S
C98 H78 0.953 . S
C98 C97 1.377 . S
C98 C99 1.369 . S
C99 H79 0.945 . S
C99 C94 1.385 . S
C99 C98 1.369 . S
C100 C92 1.457 . S
C100 C101 1.372 . S
C100 C105 1.364 . S
C101 H80 0.952 . S
C101 C100 1.372 . S
C101 C102 1.389 . S
C102 H81 0.949 . S
C102 C101 1.389 . S
C102 C103 1.387 1_545 S
C103 C102 1.387 1_565 S
C103 C104 1.372 1_565 S
C104 H82 0.950 1_545 S
C104 C103 1.372 1_545 S
C104 C105 1.379 . S
C105 H83 0.948 . S
C105 C100 1.364 . S
C105 C104 1.379 . S
C106 C75 1.383 . S
C106 C93 1.479 . S
C106 C107 1.398 . S
C107 C72 1.382 . S
C107 H84 0.951 . S
C107 C106 1.398 . S
C108 C109 1.384 . S
C108 H121 0.947 . S
C108 C143 1.382 . S
C109 C108 1.384 . S
C109 C110 1.378 . S
C110 C109 1.378 . S
C110 C111 1.378 . S
C110 H122 0.952 . S
C111 C110 1.378 . S
C111 H123 0.950 . S
C111 C142 1.383 1_556 S
H112 C131 0.947 . S
H113 C132 0.946 . S
H114 C134 0.953 . S
H115 C135 0.945 . S
H116 C137 0.952 . S
H117 C138 0.949 . S
H118 C140 0.950 . S
H119 C141 0.948 . S
H120 C143 0.951 1_554 S
H121 C108 0.947 . S
H122 C110 0.952 . S
H123 C111 0.950 . S
N124 C127 1.382 . S
N124 C129 1.363 . S
N125 C127 1.371 . S
N125 C128 1.372 . S
N126 C128 1.361 . S
N126 C129 1.377 . S
C127 N124 1.382 . S
C127 N125 1.371 . S
C127 C130 1.480 . S
C128 N125 1.372 . S
C128 N126 1.361 . S
C128 C136 1.457 . S
C129 N124 1.363 . S
C129 N126 1.377 . S
C129 C142 1.479 . S
C130 C127 1.480 . S
C130 C131 1.383 . S
C130 C135 1.385 . S
C131 H112 0.947 . S
C131 C130 1.383 . S
C131 C132 1.388 . S
C132 H113 0.946 . S
C132 C131 1.388 . S
C132 C133 1.384 . S
C133 C132 1.384 . S
C133 C134 1.377 . S
C134 H114 0.953 . S
C134 C133 1.377 . S
C134 C135 1.369 . S
C135 H115 0.945 . S
C135 C130 1.385 . S
C135 C134 1.369 . S
C136 C128 1.457 . S
C136 C137 1.372 . S
C136 C141 1.364 . S
C137 H116 0.952 . S
C137 C136 1.372 . S
C137 C138 1.389 . S
C138 H117 0.949 . S
C138 C137 1.389 . S
C138 C139 1.387 . S
C139 C138 1.387 . S
C139 C140 1.372 . S
C140 H118 0.950 . S
C140 C139 1.372 . S
C140 C141 1.379 . S
C141 H119 0.948 . S
C141 C136 1.364 . S
C141 C140 1.379 . S
C142 C111 1.383 1_554 S
C142 C129 1.479 . S
C142 C143 1.398 1_554 S
C143 C108 1.382 . S
C143 H120 0.951 1_556 S
C143 C142 1.398 1_556 S
C144 C145 1.384 . S
C144 H157 0.947 . S
C144 C179 1.382 . S
C145 C144 1.384 . S
C145 C146 1.378 . S
C146 C145 1.378 . S
C146 C147 1.378 . S
C146 H158 0.952 . S
C147 C146 1.378 . S
C147 H159 0.950 . S
C147 C178 1.383 . S
H148 C167 0.947 . S
H149 C168 0.946 . S
H150 C170 0.953 . S
H151 C171 0.945 . S
H152 C173 0.952 . S
H153 C174 0.949 . S
H154 C176 0.950 . S
H155 C177 0.948 . S
H156 C179 0.951 . S
H157 C144 0.947 . S
H158 C146 0.952 . S
H159 C147 0.950 . S
N160 C163 1.382 . S
N160 C165 1.363 . S
N161 C163 1.371 . S
N161 C164 1.372 . S
N162 C164 1.361 . S
N162 C165 1.377 . S
C163 N160 1.382 . S
C163 N161 1.371 . S
C163 C166 1.480 . S
C164 N161 1.372 . S
C164 N162 1.361 . S
C164 C172 1.457 . S
C165 N160 1.363 . S
C165 N162 1.377 . S
C165 C178 1.479 . S
C166 C163 1.480 . S
C166 C167 1.383 . S
C166 C171 1.385 . S
C167 H148 0.947 . S
C167 C166 1.383 . S
C167 C168 1.388 . S
C168 H149 0.946 . S
C168 C167 1.388 . S
C168 C169 1.384 . S
C169 C168 1.384 . S
C169 C170 1.377 . S
C170 H150 0.953 . S
C170 C169 1.377 . S
C170 C171 1.369 . S
C171 H151 0.945 . S
C171 C166 1.385 . S
C171 C170 1.369 . S
C172 C164 1.457 . S
C172 C173 1.372 . S
C172 C177 1.364 . S
C173 H152 0.952 . S
C173 C172 1.372 . S
C173 C174 1.389 . S
C174 H153 0.949 . S
C174 C173 1.389 . S
C174 C175 1.387 . S
C175 C174 1.387 . S
C175 C176 1.372 . S
C176 H154 0.950 . S
C176 C175 1.372 . S
C176 C177 1.379 . S
C177 H155 0.948 . S
C177 C172 1.364 . S
C177 C176 1.379 . S
C178 C147 1.383 . S
C178 C165 1.479 . S
C178 C179 1.398 . S
C179 C144 1.382 . S
C179 H156 0.951 . S
C179 C178 1.398 . S
C180 C181 1.384 . S
C180 H193 0.947 . S
C180 C215 1.382 . S
C181 C180 1.384 . S
C181 C182 1.378 . S
C182 C181 1.378 . S
C182 C183 1.378 . S
C182 H194 0.952 . S
C183 C182 1.378 . S
C183 H195 0.950 . S
C183 C214 1.370 1_556 S
H184 C203 0.947 . S
H185 C204 0.946 . S
H186 C206 0.953 . S
H187 C207 0.945 . S
H188 C209 0.952 . S
H189 C210 0.949 . S
H190 C212 0.950 . S
H191 C213 0.948 . S
H192 C215 0.951 1_554 S
H193 C180 0.947 . S
H194 C182 0.952 . S
H195 C183 0.950 . S
N196 C199 1.382 . S
N196 C201 1.363 . S
N197 C199 1.371 . S
N197 C200 1.372 . S
N198 C200 1.361 . S
N198 C201 1.377 . S
C199 N196 1.382 . S
C199 N197 1.371 . S
C199 C202 1.480 . S
C200 N197 1.372 . S
C200 N198 1.361 . S
C200 C208 1.457 . S
C201 N196 1.363 . S
C201 N198 1.377 . S
C201 C214 1.498 . S
C202 C199 1.480 . S
C202 C203 1.383 . S
C202 C207 1.385 . S
C203 H184 0.947 . S
C203 C202 1.383 . S
C203 C204 1.388 . S
C204 H185 0.946 . S
C204 C203 1.388 . S
C204 C205 1.384 . S
C205 C204 1.384 . S
C205 C206 1.377 . S
C206 H186 0.953 . S
C206 C205 1.377 . S
C206 C207 1.369 . S
C207 H187 0.945 . S
C207 C202 1.385 . S
C207 C206 1.369 . S
C208 C200 1.457 . S
C208 C209 1.372 . S
C208 C213 1.364 . S
C209 H188 0.952 . S
C209 C208 1.372 . S
C209 C210 1.389 . S
C210 H189 0.949 . S
C210 C209 1.389 . S
C210 C211 1.387 1_565 S
C211 C210 1.387 1_545 S
C211 C212 1.372 . S
C212 H190 0.950 . S
C212 C211 1.372 . S
C212 C213 1.379 1_545 S
C213 H191 0.948 . S
C213 C208 1.364 . S
C213 C212 1.379 1_565 S
C214 C183 1.370 1_554 S
C214 C201 1.498 . S
C214 C215 1.391 1_554 S
C215 C180 1.382 . S
C215 H192 0.951 1_556 S
C215 C214 1.391 1_556 S
C216 C217 1.384 . S
C216 H229 0.947 . S
C216 C251 1.382 . S
C217 C216 1.384 . S
C217 C218 1.378 . S
C218 C217 1.378 . S
C218 C219 1.378 . S
C218 H230 0.952 . S
C219 C218 1.378 . S
C219 H231 0.950 . S
C219 C250 1.383 . S
H220 C239 0.947 . S
H221 C240 0.946 . S
H222 C242 0.953 . S
H223 C243 0.945 . S
H224 C245 0.952 . S
H225 C246 0.949 . S
H226 C248 0.950 . S
H227 C249 0.948 . S
H228 C251 0.951 . S
H229 C216 0.947 . S
H230 C218 0.952 . S
H231 C219 0.950 . S
N232 C235 1.382 . S
N232 C237 1.363 . S
N233 C235 1.371 . S
N233 C236 1.372 . S
N234 C236 1.361 . S
N234 C237 1.377 . S
C235 N232 1.382 . S
C235 N233 1.371 . S
C235 C238 1.480 . S
C236 N233 1.372 . S
C236 N234 1.361 . S
C236 C244 1.457 . S
C237 N232 1.363 . S
C237 N234 1.377 . S
C237 C250 1.479 . S
C238 C235 1.480 . S
C238 C239 1.383 . S
C238 C243 1.385 . S
C239 H220 0.947 . S
C239 C238 1.383 . S
C239 C240 1.388 . S
C240 H221 0.946 . S
C240 C239 1.388 . S
C240 C241 1.384 . S
C241 C240 1.384 . S
C241 C242 1.377 . S
C242 H222 0.953 . S
C242 C241 1.377 . S
C242 C243 1.369 . S
C243 H223 0.945 . S
C243 C238 1.385 . S
C243 C242 1.369 . S
C244 C236 1.457 . S
C244 C245 1.372 . S
C244 C249 1.364 . S
C245 H224 0.952 . S
C245 C244 1.372 . S
C245 C246 1.389 . S
C246 H225 0.949 . S
C246 C245 1.389 . S
C246 C247 1.387 1_565 S
C247 C246 1.387 1_545 S
C247 C248 1.372 . S
C248 H226 0.950 . S
C248 C247 1.372 . S
C248 C249 1.379 1_545 S
C249 H227 0.948 . S
C249 C244 1.364 . S
C249 C248 1.379 1_565 S
C250 C219 1.383 . S
C250 C237 1.479 . S
C250 C251 1.398 . S
C251 C216 1.382 . S
C251 H228 0.951 . S
C251 C250 1.398 . S
C252 C253 1.384 . S
C252 H265 0.947 . S
C252 C287 1.382 . S
C253 C252 1.384 . S
C253 C254 1.378 . S
C254 C253 1.378 . S
C254 C255 1.378 . S
C254 H266 0.952 . S
C255 C254 1.378 . S
C255 H267 0.950 . S
C255 C286 1.383 1_554 S
H256 C275 0.947 . S
H257 C276 0.946 . S
H258 C278 0.953 . S
H259 C279 0.945 . S
H260 C281 0.952 . S
H261 C282 0.949 . S
H262 C284 0.950 . S
H263 C285 0.948 . S
H264 C287 0.951 1_556 S
H265 C252 0.947 . S
H266 C254 0.952 . S
H267 C255 0.950 . S
N268 C271 1.382 . S
N268 C273 1.363 . S
N269 C271 1.371 . S
N269 C272 1.372 . S
N270 C272 1.361 . S
N270 C273 1.377 . S
C271 N268 1.382 . S
C271 N269 1.371 . S
C271 C274 1.480 . S
C272 N269 1.372 . S
C272 N270 1.361 . S
C272 C280 1.457 . S
C273 N268 1.363 . S
C273 N270 1.377 . S
C273 C286 1.479 . S
C274 C271 1.480 . S
C274 C275 1.383 . S
C274 C279 1.385 . S
C275 H256 0.947 . S
C275 C274 1.383 . S
C275 C276 1.388 . S
C276 H257 0.946 . S
C276 C275 1.388 . S
C276 C277 1.384 . S
C277 C276 1.384 . S
C277 C278 1.377 . S
C278 H258 0.953 . S
C278 C277 1.377 . S
C278 C279 1.369 . S
C279 H259 0.945 . S
C279 C274 1.385 . S
C279 C278 1.369 . S
C280 C272 1.457 . S
C280 C281 1.372 . S
C280 C285 1.364 . S
C281 H260 0.952 . S
C281 C280 1.372 . S
C281 C282 1.389 . S
C282 H261 0.949 . S
C282 C281 1.389 . S
C282 C283 1.387 . S
C283 C282 1.387 . S
C283 C284 1.372 . S
C284 H262 0.950 . S
C284 C283 1.372 . S
C284 C285 1.379 . S
C285 H263 0.948 . S
C285 C280 1.364 . S
C285 C284 1.379 . S
C286 C255 1.383 1_556 S
C286 C273 1.479 . S
C286 C287 1.398 1_556 S
C287 C252 1.382 . S
C287 H264 0.951 1_554 S
C287 C286 1.398 1_554 S
Zn288 O294 1.920 1_455 S
Zn288 O300 1.898 . S
Zn288 O303 1.905 . S
Zn289 O297 1.905 1_655 S
Zn289 O298 1.898 . S
Zn289 O306 1.920 . S
Zn290 O293 2.080 1_455 S
Zn290 O296 2.114 . S
Zn290 O299 2.120 1_455 S
Zn290 O301 2.120 . S
Zn290 O302 2.114 . S
Zn290 O305 2.080 1_455 S
C291 O296 1.166 . S
C291 O297 1.182 . S
C292 O298 1.167 . S
C292 O299 1.299 . S
O293 Zn290 2.080 1_655 S
O293 C307 1.305 . S
O294 Zn288 1.920 1_655 S
O294 C307 1.234 . S
C295 O300 1.167 . S
C295 O301 1.299 . S
O296 Zn290 2.114 . S
O296 C291 1.166 . S
O297 Zn289 1.905 1_455 S
O297 C291 1.182 . S
O298 Zn289 1.898 . S
O298 C292 1.167 . S
O299 Zn290 2.120 1_655 S
O299 C292 1.299 . S
O300 Zn288 1.898 . S
O300 C295 1.167 . S
O301 Zn290 2.120 . S
O301 C295 1.299 . S
O302 Zn290 2.114 . S
O302 C304 1.166 . S
O303 Zn288 1.905 . S
O303 C304 1.182 . S
C304 O302 1.166 . S
C304 O303 1.182 . S
O305 Zn290 2.080 1_655 S
O305 C308 1.305 . S
O306 Zn289 1.920 . S
O306 C308 1.234 . S
C307 O293 1.305 . S
C307 O294 1.234 . S
C308 O305 1.305 . S
C308 O306 1.234 . S
Zn309 O315 1.920 . S
Zn309 O321 1.898 . S
Zn309 O324 1.905 . S
Zn310 O318 1.905 . S
Zn310 O319 1.898 . S
Zn310 O327 1.920 . S
Zn311 O314 2.080 . S
Zn311 O317 2.114 . S
Zn311 O320 2.120 . S
Zn311 O322 2.120 . S
Zn311 O323 2.114 . S
Zn311 O326 2.080 . S
C312 O317 1.166 . S
C312 O318 1.182 . S
C313 O319 1.167 . S
C313 O320 1.299 . S
O314 Zn311 2.080 . S
O314 C328 1.305 . S
O315 Zn309 1.920 . S
O315 C328 1.234 . S
C316 O321 1.167 . S
C316 O322 1.299 . S
O317 Zn311 2.114 . S
O317 C312 1.166 . S
O318 Zn310 1.905 . S
O318 C312 1.182 . S
O319 Zn310 1.898 . S
O319 C313 1.167 . S
O320 Zn311 2.120 . S
O320 C313 1.299 . S
O321 Zn309 1.898 . S
O321 C316 1.167 . S
O322 Zn311 2.120 . S
O322 C316 1.299 . S
O323 Zn311 2.114 . S
O323 C325 1.166 . S
O324 Zn309 1.905 . S
O324 C325 1.182 . S
C325 O323 1.166 . S
C325 O324 1.182 . S
O326 Zn311 2.080 . S
O326 C329 1.305 . S
O327 Zn310 1.920 . S
O327 C329 1.234 . S
C328 O314 1.305 . S
C328 O315 1.234 . S
C329 O326 1.305 . S
C329 O327 1.234 . S
Zn330 O336 1.920 . S
Zn330 O342 1.898 . S
Zn330 O345 1.905 1_455 S
Zn331 O339 1.905 . S
Zn331 O340 1.898 . S
Zn331 O348 1.920 1_655 S
Zn332 O335 2.091 . S
Zn332 O338 2.102 1_455 S
Zn332 O341 2.109 1_455 S
Zn332 O343 2.132 . S
Zn332 O344 2.105 1_455 S
Zn332 O347 2.089 . S
C333 O338 1.166 . S
C333 O339 1.182 . S
C334 O340 1.167 . S
C334 O341 1.299 . S
O335 Zn332 2.091 . S
O335 C349 1.305 . S
O336 Zn330 1.920 . S
O336 C349 1.234 . S
C337 O342 1.167 . S
C337 O343 1.299 . S
O338 Zn332 2.102 1_655 S
O338 C333 1.166 . S
O339 Zn331 1.905 . S
O339 C333 1.182 . S
O340 Zn331 1.898 . S
O340 C334 1.167 . S
O341 Zn332 2.109 1_655 S
O341 C334 1.299 . S
O342 Zn330 1.898 . S
O342 C337 1.167 . S
O343 Zn332 2.132 . S
O343 C337 1.299 . S
O344 Zn332 2.105 1_655 S
O344 C346 1.166 . S
O345 Zn330 1.905 1_655 S
O345 C346 1.182 . S
C346 O344 1.166 . S
C346 O345 1.182 . S
O347 Zn332 2.089 . S
O347 C350 1.305 . S
O348 Zn331 1.920 1_455 S
O348 C350 1.234 . S
C349 O335 1.305 . S
C349 O336 1.234 . S
C350 O347 1.305 . S
C350 O348 1.234 . S
Zn351 O357 1.920 . S
Zn351 O363 1.898 . S
Zn351 O366 1.905 . S
Zn352 O360 1.905 . S
Zn352 O361 1.898 . S
Zn352 O369 1.920 . S
Zn353 O356 2.080 . S
Zn353 O359 2.114 . S
Zn353 O362 2.120 . S
Zn353 O364 2.120 . S
Zn353 O365 2.114 . S
Zn353 O368 2.080 . S
C354 O359 1.166 . S
C354 O360 1.182 . S
C355 O361 1.167 . S
C355 O362 1.299 . S
O356 Zn353 2.080 . S
O356 C370 1.305 . S
O357 Zn351 1.920 . S
O357 C370 1.234 . S
C358 O363 1.167 . S
C358 O364 1.299 . S
O359 Zn353 2.114 . S
O359 C354 1.166 . S
O360 Zn352 1.905 . S
O360 C354 1.182 . S
O361 Zn352 1.898 . S
O361 C355 1.167 . S
O362 Zn353 2.120 . S
O362 C355 1.299 . S
O363 Zn351 1.898 . S
O363 C358 1.167 . S
O364 Zn353 2.120 . S
O364 C358 1.299 . S
O365 Zn353 2.114 . S
O365 C367 1.166 . S
O366 Zn351 1.905 . S
O366 C367 1.182 . S
C367 O365 1.166 . S
C367 O366 1.182 . S
O368 Zn353 2.080 . S
O368 C371 1.305 . S
O369 Zn352 1.920 . S
O369 C371 1.234 . S
C370 O356 1.305 . S
C370 O357 1.234 . S
C371 O368 1.305 . S
C371 O369 1.234 . S
C247 C304 2.025 . S
C312 C283 2.025 . S
C316 C175 1.995 . S
C211 C292 1.996 . S
C333 C103 2.129 . S
C367 C139 2.129 . S
C31 C355 2.107 . S
C67 C337 2.113 . S
C291 C37 1.479 . S
C325 C1 1.478 . S
C329 C109 1.462 . S
C307 C73 1.462 . S
C346 C181 1.476 . S
C145 C354 1.476 . S
C370 C253 1.470 . S
C217 C350 1.470 . S
C295 C25 1.307 . S
C313 C61 1.307 . S
C97 C328 1.297 . S
C308 C133 1.297 . S
C334 C169 1.227 . S
C205 C358 1.227 . S
C241 C371 1.228 . S
C277 C349 1.227 . S
