# Generated by pormake.
# Topology tsx, (6,3)-cn, num edge types: 1
# Building blocks:
#     Node 0, Type 0, BuildingBlock: CIFDUS_clean_sbu_1, # of connection points: 6
#     Node 1, Type 0, BuildingBlock: CIFDUS_clean_sbu_1, # of connection points: 6
#     Node 2, Type 1, BuildingBlock: BETDAH_clean_linker_0, # of connection points: 3
#     Node 3, Type 1, BuildingBlock: BETDAH_clean_linker_0, # of connection points: 3
#     Node 4, Type 1, BuildingBlock: BETDAH_clean_linker_0, # of connection points: 3
#     Node 5, Type 1, BuildingBlock: BETDAH_clean_linker_0, # of connection points: 3
#     Edge 6, Type (0, 1), BuildingBlock: TEMPAE_clean_linker_10, # of connection points: 2
#     Edge 7, Type (0, 1), BuildingBlock: TEMPAE_clean_linker_10, # of connection points: 2
#     Edge 8, Type (0, 1), BuildingBlock: TEMPAE_clean_linker_10, # of connection points: 2
#     Edge 9, Type (0, 1), BuildingBlock: TEMPAE_clean_linker_10, # of connection points: 2
#     Edge 10, Type (0, 1), BuildingBlock: TEMPAE_clean_linker_10, # of connection points: 2
#     Edge 11, Type (0, 1), BuildingBlock: TEMPAE_clean_linker_10, # of connection points: 2
#     Edge 12, Type (0, 1), BuildingBlock: TEMPAE_clean_linker_10, # of connection points: 2
#     Edge 13, Type (0, 1), BuildingBlock: TEMPAE_clean_linker_10, # of connection points: 2
#     Edge 14, Type (0, 1), BuildingBlock: TEMPAE_clean_linker_10, # of connection points: 2
#     Edge 15, Type (0, 1), BuildingBlock: TEMPAE_clean_linker_10, # of connection points: 2
#     Edge 16, Type (0, 1), BuildingBlock: TEMPAE_clean_linker_10, # of connection points: 2
#     Edge 17, Type (0, 1), BuildingBlock: TEMPAE_clean_linker_10, # of connection points: 2
# Relax obj value: 0.091
# Max RMSD: 0.142
# Mean RMSD: 0.106
data_MOF--net-tsx--node1-CIFDUS_clean_sbu_1--node2-BETDAH_clean_linker_0--edge1-TEMPAE_clean_linker_10
_symmetry_space_group_name_H-M    P1
_symmetry_Int_Tables_number       1
_symmetry_cell_setting            triclinic
loop_
_symmetry_equiv_pos_as_xyz
'x, y, z'
_cell_length_a     18.860787
_cell_length_b     23.094232
_cell_length_c     34.612507
_cell_angle_alpha  97.215315
_cell_angle_beta   101.39316
_cell_angle_gamma 91.584247
loop_
_atom_site_label
_atom_site_type_symbol
_atom_site_fract_x
_atom_site_fract_y
_atom_site_fract_z
_atom_type_partial_charge
O0 O 1.00418 0.08778 0.9948 0.0
Mn1 Mn 0.07672 0.02049 -0.0005 0.0
O2 O 0.90799 0.04834 0.94809 0.0
Mn3 Mn 0.94195 0.97551 0.93492 0.0
O4 O 0.14523 0.95061 0.0009 0.0
O5 O 0.16073 0.08084 0.0202 0.0
Mn6 Mn 0.2191 0.05022 0.05833 0.0
O7 O 0.06123 0.0145 0.05736 0.0
O8 O 0.25436 0.98303 0.03609 0.0
O9 O 0.09318 0.02705 0.94186 0.0
O10 O 1.00364 0.97217 0.8996 0.0
O11 O 0.26341 0.12063 0.05675 0.0
O12 O 0.1687 0.04111 0.09791 0.0
C13 C 0.95114 0.9155 0.97769 0.0
C14 C 0.94046 0.09079 0.97327 0.0
C15 C 0.21259 0.94325 0.01349 0.0
C16 C 0.20827 0.12482 0.02845 0.0
C17 C 0.10214 0.02429 0.09221 0.0
C18 C 0.06387 0.00167 0.90692 0.0
O19 O 0.99462 0.96035 0.97973 0.0
O20 O 0.89972 0.90831 0.94641 0.0
O21 O 0.47103 0.59953 0.49715 0.0
Mn22 Mn 0.53416 0.52584 0.49866 0.0
O23 O 0.36558 0.57024 0.45434 0.0
Mn24 Mn 0.39257 0.49759 0.43452 0.0
O25 O 0.5959 0.45148 0.4981 0.0
O26 O 0.62354 0.57888 0.52193 0.0
Mn27 Mn 0.6749 0.54691 0.56156 0.0
O28 O 0.51465 0.51662 0.55532 0.0
O29 O 0.70202 0.47532 0.54034 0.0
O30 O 0.55287 0.53472 0.44193 0.0
O31 O 0.45235 0.49752 0.39808 0.0
O32 O 0.72685 0.61409 0.55917 0.0
O33 O 0.61803 0.54564 0.59919 0.0
C34 C 0.39968 0.42951 0.47184 0.0
C35 C 0.40624 0.60856 0.47942 0.0
C36 C 0.66027 0.4393 0.51422 0.0
C37 C 0.67397 0.62041 0.53013 0.0
C38 C 0.55127 0.52896 0.59106 0.0
C39 C 0.51778 0.51822 0.40624 0.0
O40 O 0.44614 0.47285 0.47598 0.0
O41 O 0.34632 0.4292 0.44194 0.0
H42 H 0.10161 0.91865 0.3529 0.0
H43 H 0.94354 0.04163 0.37677 0.0
H44 H 0.06554 0.96016 0.47179 0.0
C45 C 0.07266 0.94147 0.37378 0.0
C46 C 0.09061 0.9342 0.41422 0.0
C47 C 0.01927 0.9796 0.36001 0.0
C48 C 0.98427 0.01192 0.38722 0.0
C49 C 1.00133 0.00495 0.42771 0.0
C50 C 0.05386 0.96603 0.44073 0.0
N51 N 0.96678 0.03558 0.4564 0.0
C52 C 0.9167 0.07809 0.44961 0.0
H53 H 0.953 0.97486 0.63425 0.0
H54 H 0.12654 0.08511 0.6145 0.0
H55 H 0.9899 0.9769 0.51622 0.0
C56 C 0.98266 0.99208 0.61399 0.0
C57 C 0.96318 0.97187 0.57315 0.0
C58 C 0.04176 0.0326 0.62917 0.0
C59 C 0.08072 0.05423 0.6029 0.0
C60 C 0.06124 0.0349 0.56186 0.0
C61 C 1.00312 0.99353 0.54747 0.0
N62 N 0.10031 0.05425 0.53433 0.0
C63 C 0.14875 0.10283 0.5422 0.0
H64 H 0.63083 0.39822 0.86132 0.0
H65 H 0.49589 0.54086 0.88382 0.0
H66 H 0.63139 0.47427 0.98121 0.0
C67 C 0.61205 0.43033 0.88209 0.0
C68 C 0.63828 0.43146 0.92315 0.0
C69 C 0.5616 0.47018 0.8674 0.0
C70 C 0.53412 0.50954 0.89459 0.0
C71 C 0.55871 0.51007 0.93572 0.0
C72 C 0.61117 0.47186 0.94953 0.0
N73 N 0.53392 0.54926 0.96446 0.0
C74 C 0.4784 0.58694 0.95673 0.0
H75 H 0.46676 0.48263 0.13311 0.0
H76 H 0.65077 0.58976 0.12316 0.0
H77 H 0.53014 0.47905 0.02042 0.0
C78 C 0.50165 0.49877 0.11493 0.0
C79 C 0.49039 0.47686 0.07439 0.0
C80 C 0.55944 0.53927 0.13269 0.0
C81 C 0.60558 0.5592 0.10937 0.0
C82 C 0.59425 0.53831 0.06855 0.0
C83 C 0.53706 0.49694 0.05144 0.0
N84 N 0.64116 0.55562 0.04419 0.0
C85 C 0.68903 0.6046 0.05347 0.0
C86 C 0.25838 0.18392 0.98558 0.0
C87 C 0.20551 0.17713 0.00818 0.0
C88 C 0.2926 0.23895 0.98623 0.0
C89 C 0.27255 0.28809 0.00974 0.0
C90 C 0.21018 0.28283 0.02644 0.0
C91 C 0.17755 0.22705 0.02572 0.0
C92 C 0.35764 0.24229 0.96714 0.0
C93 C 0.1846 0.33451 0.05015 0.0
C94 C 0.43011 0.38025 0.07666 0.0
C95 C 0.43371 0.42949 0.05717 0.0
C96 C 0.37791 0.33446 0.06137 0.0
C97 C 0.3268 0.33807 0.02578 0.0
C98 C 0.32956 0.38808 0.00606 0.0
C99 C 0.38375 0.43291 0.02172 0.0
C100 C 0.37811 0.28181 0.08332 0.0
C101 C 0.27595 0.39419 0.9684 0.0
H102 H 0.28031 0.14523 0.97216 0.0
H103 H 0.13687 0.22193 0.04342 0.0
H104 H 0.36058 0.28366 0.95427 0.0
H105 H 0.40764 0.2411 0.99011 0.0
H106 H 0.35662 0.20496 0.94338 0.0
H107 H 0.12744 0.32705 0.05283 0.0
H108 H 0.2188 0.34167 0.08053 0.0
H109 H 0.18955 0.37485 0.0363 0.0
H110 H 0.46927 0.37708 0.10374 0.0
H111 H 0.38638 0.47104 0.00659 0.0
H112 H 0.38464 0.24163 0.06338 0.0
H113 H 0.32569 0.2764 0.09274 0.0
H114 H 0.4223 0.28548 0.11014 0.0
H115 H 0.29072 0.36608 0.9431 0.0
H116 H 0.27542 0.43997 0.96163 0.0
H117 H 0.22044 0.37967 0.97054 0.0
C118 C 0.20078 0.84216 0.97512 0.0
C119 C 0.24337 0.88689 0.0015 0.0
C120 C 0.2305 0.78915 0.96344 0.0
C121 C 0.30436 0.78073 0.97858 0.0
C122 C 0.34743 0.82563 0.00524 0.0
C123 C 0.31651 0.87801 0.01629 0.0
C124 C 0.18304 0.74225 0.93492 0.0
C125 C 0.42636 0.8183 0.02231 0.0
C126 C 0.3832 0.63276 0.98638 0.0
C127 C 0.42433 0.62961 0.95684 0.0
C128 C 0.33952 0.67998 0.99206 0.0
C129 C 0.33744 0.72488 0.96753 0.0
C130 C 0.37562 0.71965 0.93594 0.0
C131 C 0.41923 0.67198 0.93111 0.0
C132 C 0.30001 0.6839 0.02615 0.0
C133 C 0.37436 0.76631 0.90899 0.0
H134 H 0.14425 0.84856 0.96347 0.0
H135 H 0.35003 0.9121 0.03669 0.0
H136 H 0.2059 0.73181 0.90784 0.0
H137 H 0.18171 0.70154 0.94876 0.0
H138 H 0.12662 0.75554 0.92593 0.0
H139 H 0.45235 0.8575 0.04264 0.0
H140 H 0.43165 0.78013 0.039 0.0
H141 H 0.4566 0.80965 -0.00206 0.0
H142 H 0.38798 0.59976 0.00635 0.0
H143 H 0.45171 0.66922 0.90841 0.0
H144 H 0.24329 0.69568 0.01629 0.0
H145 H 0.32687 0.71886 0.04993 0.0
H146 H 0.29958 0.64222 0.03903 0.0
H147 H 0.31809 0.7788 0.89861 0.0
H148 H 0.39806 0.75184 0.88266 0.0
H149 H 0.40591 0.80601 0.92575 0.0
C150 C 0.96274 0.8168 -0.00355 0.0
C151 C 0.9535 0.87592 0.00787 0.0
C152 C 0.93224 0.77322 0.01393 0.0
C153 C 0.89084 0.78948 0.04317 0.0
C154 C 0.88988 0.84928 0.05845 0.0
C155 C 0.92118 0.89205 0.04043 0.0
C156 C 0.9361 0.7101 -0.00283 0.0
C157 C 0.84822 0.86838 0.09037 0.0
C158 C 0.71844 0.69351 0.02725 0.0
C159 C 0.73689 0.65517 0.05528 0.0
C160 C 0.76717 0.73891 0.02432 0.0
C161 C 0.83617 0.74615 0.05025 0.0
C162 C 0.8536 0.70894 0.08 0.0
C163 C 0.80371 0.66332 0.08195 0.0
C164 C 0.74585 0.77745 0.99216 0.0
C165 C 0.92589 0.71552 0.10851 0.0
H166 H 0.98714 0.80445 0.97094 0.0
H167 H 0.913 0.93784 0.04878 0.0
H168 H 0.94469 0.68195 0.0212 0.0
H169 H 0.88402 0.69497 0.97671 0.0
H170 H 0.98033 0.70411 0.98028 0.0
H171 H 0.86198 0.91475 0.10316 0.0
H172 H 0.78928 0.86343 0.07753 0.0
H173 H 0.85933 0.84064 0.1146 0.0
H174 H 0.66663 0.68669 0.00659 0.0
H175 H 0.81774 0.63317 0.10354 0.0
H176 H 0.78211 0.77112 0.9705 0.0
H177 H 0.75206 0.82413 0.00523 0.0
H178 H 0.68902 0.76781 0.9758 0.0
H179 H 0.96801 0.69714 0.09298 0.0
H180 H 0.92518 0.69209 0.13458 0.0
H181 H 0.94191 0.76226 0.1192 0.0
C182 C 0.82954 0.14548 0.9552 0.0
C183 C 0.9019 0.14596 0.97552 0.0
C184 C 0.79311 0.19701 0.95204 0.0
C185 C 0.82907 0.25092 0.97038 0.0
C186 C 0.90073 0.25184 0.99291 0.0
C187 C 0.93668 0.19924 0.99497 0.0
C188 C 0.71684 0.19377 0.92756 0.0
C189 C 0.94036 0.30833 0.01365 0.0
C190 C 0.74845 0.37461 0.91748 0.0
C191 C 0.69387 0.39063 0.93844 0.0
C192 C 0.79676 0.33204 0.92933 0.0
C193 C 0.79155 0.30565 0.96351 0.0
C194 C 0.74064 0.325 0.98665 0.0
C195 C 0.69171 0.36655 0.97356 0.0
C196 C 0.84999 0.31241 0.90365 0.0
C197 C 0.73471 0.29914 0.02391 0.0
H198 H 0.80138 0.10465 0.94052 0.0
H199 H 0.99242 0.20014 0.01083 0.0
H200 H 0.6793 0.21331 0.94587 0.0
H201 H 0.71505 0.21923 0.90227 0.0
H202 H 0.6965 0.14818 0.91547 0.0
H203 H 0.98751 0.3005 0.03691 0.0
H204 H 0.96058 0.3318 0.99159 0.0
H205 H 0.90373 0.33728 0.02756 0.0
H206 H 0.75243 0.3943 0.89112 0.0
H207 H 0.64989 0.37821 0.9901 0.0
H208 H 0.83392 0.26724 0.88871 0.0
H209 H 0.90503 0.31158 0.92214 0.0
H210 H 0.85236 0.34118 0.88046 0.0
H211 H 0.70752 0.25485 0.0157 0.0
H212 H 0.70286 0.32625 0.0424 0.0
H213 H 0.78927 0.29456 0.04205 0.0
C214 C 0.73019 0.67881 0.48899 0.0
C215 C 0.67514 0.67284 0.51027 0.0
C216 C 0.76476 0.73364 0.48955 0.0
C217 C 0.74348 0.7833 0.51205 0.0
C218 C 0.67993 0.77864 0.52779 0.0
C219 C 0.64643 0.72312 0.52678 0.0
C220 C 0.83102 0.73637 0.47141 0.0
C221 C 0.65364 0.8306 0.55089 0.0
C222 C 0.90104 0.87669 0.57795 0.0
C223 C 0.90454 0.92524 0.55774 0.0
C224 C 0.84827 0.83105 0.56352 0.0
C225 C 0.79707 0.83373 0.52782 0.0
C226 C 0.79952 0.88299 0.50743 0.0
C227 C 0.85354 0.92804 0.5225 0.0
C228 C 0.84833 0.77928 0.58627 0.0
C229 C 0.7459 0.88777 0.4695 0.0
H230 H 0.75273 0.63979 0.47643 0.0
H231 H 0.60415 0.71852 0.54353 0.0
H232 H 0.83535 0.77767 0.45861 0.0
H233 H 0.88013 0.73474 0.4949 0.0
H234 H 0.83041 0.69893 0.44777 0.0
H235 H 0.59565 0.8238 0.55218 0.0
H236 H 0.68576 0.83706 0.58179 0.0
H237 H 0.6608 0.8711 0.53759 0.0
H238 H 0.94097 0.87363 0.60474 0.0
H239 H 0.8557 0.96564 0.50681 0.0
H240 H 0.85705 0.73883 0.56721 0.0
H241 H 0.7951 0.77327 0.59471 0.0
H242 H 0.89116 0.78438 0.61375 0.0
H243 H 0.75595 0.85444 0.44546 0.0
H244 H 0.74982 0.93158 0.45976 0.0
H245 H 0.6898 0.87893 0.4734 0.0
C246 C 0.65113 0.34328 0.46918 0.0
C247 C 0.689 0.38203 0.50172 0.0
C248 C 0.68073 0.29062 0.45634 0.0
C249 C 0.74958 0.27632 0.47661 0.0
C250 C 0.78732 0.31478 0.50982 0.0
C251 C 0.75674 0.36692 0.52188 0.0
C252 C 0.63887 0.25069 0.42083 0.0
C253 C 0.86057 0.30112 0.53259 0.0
C254 C 0.81497 0.1222 0.47448 0.0
C255 C 0.86644 0.12399 0.45056 0.0
C256 C 0.77297 0.1703 0.48124 0.0
C257 C 0.78312 0.22131 0.46366 0.0
C258 C 0.83265 0.22184 0.43769 0.0
C259 C 0.87416 0.17308 0.43161 0.0
C260 C 0.72126 0.16786 0.50926 0.0
C261 C 0.84496 0.27516 0.41825 0.0
H262 H 0.59885 0.35443 0.45334 0.0
H263 H 0.78654 0.39614 0.54719 0.0
H264 H 0.67041 0.24608 0.39684 0.0
H265 H 0.63054 0.20642 0.42897 0.0
H266 H 0.5852 0.2672 0.40899 0.0
H267 H 0.88241 0.33527 0.55809 0.0
H268 H 0.8567 0.25863 0.54405 0.0
H269 H 0.89984 0.29707 0.51252 0.0
H270 H 0.80976 0.08407 0.48932 0.0
H271 H 0.91457 0.17425 0.41331 0.0
H272 H 0.66789 0.18351 0.49617 0.0
H273 H 0.74293 0.19717 0.53732 0.0
H274 H 0.71316 0.12297 0.51658 0.0
H275 H 0.79248 0.29151 0.4044 0.0
H276 H 0.87805 0.26608 0.39516 0.0
H277 H 0.87347 0.31061 0.44114 0.0
C278 C 0.37426 0.39641 0.53315 0.0
C279 C 0.40155 0.38453 0.49838 0.0
C280 C 0.34502 0.3509 0.5497 0.0
C281 C 0.34281 0.29263 0.53064 0.0
C282 C 0.37852 0.28023 0.49839 0.0
C283 C 0.40699 0.32651 0.48247 0.0
C284 C 0.30887 0.36615 0.58454 0.0
C285 C 0.37862 0.21885 0.47741 0.0
C286 C 0.26572 0.1598 0.56711 0.0
C287 C 0.19574 0.15382 0.54364 0.0
C288 C 0.31372 0.2066 0.5649 0.0
C289 C 0.29098 0.2474 0.5382 0.0
C290 C 0.21906 0.2422 0.51559 0.0
C291 C 0.17239 0.19543 0.51865 0.0
C292 C 0.38935 0.21106 0.58987 0.0
C293 C 0.19219 0.28457 0.48675 0.0
H294 H 0.369 0.44148 0.54505 0.0
H295 H 0.42732 0.31756 0.45522 0.0
H296 H 0.24972 0.36807 0.57348 0.0
H297 H 0.31703 0.33246 0.60497 0.0
H298 H 0.32969 0.40937 0.60149 0.0
H299 H 0.41885 0.21521 0.45782 0.0
H300 H 0.39069 0.18727 0.49914 0.0
H301 H 0.3241 0.20616 0.4588 0.0
H302 H 0.28346 0.12719 0.58638 0.0
H303 H 0.11811 0.19034 0.50049 0.0
H304 H 0.40427 0.25664 0.60423 0.0
H305 H 0.42854 0.19896 0.57057 0.0
H306 H 0.39505 0.1817 0.61327 0.0
H307 H 0.20047 0.33009 0.50213 0.0
H308 H 0.13382 0.27611 0.473 0.0
H309 H 0.22358 0.28124 0.46269 0.0
C310 C 0.30812 0.67087 0.49477 0.0
C311 C 0.37673 0.66668 0.48526 0.0
C312 C 0.26851 0.72074 0.4892 0.0
C313 C 0.29737 0.76673 0.47248 0.0
C314 C 0.36906 0.76451 0.46564 0.0
C315 C 0.40827 0.71449 0.47246 0.0
C316 C 0.19327 0.72184 0.49805 0.0
C317 C 0.40181 0.81218 0.44753 0.0
C318 C 0.15353 0.84017 0.40498 0.0
C319 C 0.14664 0.89289 0.42868 0.0
C320 C 0.20435 0.80012 0.41839 0.0
C321 C 0.24865 0.81209 0.45693 0.0
C322 C 0.24271 0.86531 0.48096 0.0
C323 C 0.19241 0.90528 0.46643 0.0
C324 C 0.20931 0.74414 0.39154 0.0
C325 C 0.28817 0.87938 0.52239 0.0
H326 H 0.28368 0.6336 0.50444 0.0
H327 H 0.46092 0.71076 0.4645 0.0
H328 H 0.18428 0.7652 0.51358 0.0
H329 H 0.15264 0.71411 0.46973 0.0
H330 H 0.18352 0.68775 0.51665 0.0
H331 H 0.46135 0.80928 0.4507 0.0
H332 H 0.37708 0.8082 0.41537 0.0
H333 H 0.39048 0.856 0.46137 0.0
H334 H 0.11792 0.8293 0.37614 0.0
H335 H 0.18891 0.94626 0.48482 0.0
H336 H 0.19141 0.70631 0.40474 0.0
H337 H 0.26628 0.73812 0.38865 0.0
H338 H 0.17532 0.74351 0.36135 0.0
H339 H 0.27474 0.8468 0.54119 0.0
H340 H 0.27942 0.9237 0.53669 0.0
H341 H 0.34647 0.87646 0.52158 0.0
C342 C 0.12234 0.00585 0.16254 0.0
C343 C 0.07338 0.01494 0.12794 0.0
C344 C 0.09919 0.00014 0.19784 0.0
C345 C 0.02483 0.0036 0.1989 0.0
C346 C 0.97449 0.01178 0.16401 0.0
C347 C 0.99936 0.01703 0.12869 0.0
C348 C 0.15489 0.99112 0.23424 0.0
C349 C 0.89492 0.01596 0.16427 0.0
C350 C 0.99166 0.93759 0.28821 0.0
C351 C 1.00324 0.98687 0.31727 0.0
C352 C 0.99018 0.943 0.24815 0.0
C353 C 1.00181 -0.00105 0.23714 0.0
C354 C 1.0069 0.04924 0.2658 0.0
C355 C 1.00728 0.04258 0.30561 0.0
C356 C 0.98319 0.88835 0.21842 0.0
C357 C 0.01946 0.1097 0.25538 0.0
H358 H 0.17952 0.00334 0.16217 0.0
H359 H 0.96132 0.02429 0.10211 0.0
H360 H 0.15443 0.02717 0.2586 0.0
H361 H 0.14146 0.9497 0.24499 0.0
H362 H 0.21062 0.98943 0.22831 0.0
H363 H 0.87359 0.97562 0.17334 0.0
H364 H 0.88686 0.05294 0.18645 0.0
H365 H 0.86273 0.02239 0.13473 0.0
H366 H 0.9872 0.8945 0.29715 0.0
H367 H 0.01609 0.08074 0.32804 0.0
H368 H 0.03747 0.8779 0.21252 0.0
H369 H 0.94811 0.89488 0.18972 0.0
H370 H 0.9606 0.85023 0.22956 0.0
H371 H 0.07684 0.11596 0.25284 0.0
H372 H 1.00822 0.14425 0.27843 0.0
H373 H 0.98509 0.11535 0.22631 0.0
C374 C 0.08572 0.96684 0.84002 0.0
C375 C 0.09503 0.01136 0.87228 0.0
C376 C 0.09477 0.97859 0.80259 0.0
C377 C 0.11316 0.03653 0.79726 0.0
C378 C 0.13032 0.08036 0.83072 0.0
C379 C 0.12112 0.06718 0.8681 0.0
C380 C 0.07729 0.9301 0.76799 0.0
C381 C 0.15181 0.14227 0.82651 0.0
C382 C 0.1368 0.04173 0.69172 0.0
C383 C 0.06501 0.04814 0.67283 0.0
C384 C 0.15568 0.04363 0.73326 0.0
C385 C 0.10132 0.05184 0.75608 0.0
C386 C 0.0305 0.06411 0.73738 0.0
C387 C 0.01324 0.06204 0.69597 0.0
C388 C 0.23211 0.03174 0.75211 0.0
C389 C 0.97099 0.074 0.7606 0.0
H390 H 0.06652 0.92344 0.84347 0.0
H391 H 0.12849 0.10169 0.8931 0.0
H392 H 0.02529 0.93797 0.74841 0.0
H393 H 0.11979 0.92922 0.74993 0.0
H394 H 0.07221 0.8865 0.77789 0.0
H395 H 0.18104 0.16635 0.85533 0.0
H396 H 0.18654 0.14328 0.80417 0.0
H397 H 0.10238 0.16561 0.81624 0.0
H398 H 0.17709 0.03113 0.6739 0.0
H399 H 0.95805 0.06814 0.6814 0.0
H400 H 0.23455 0.98512 0.75679 0.0
H401 H 0.24972 0.05865 0.78156 0.0
H402 H 0.27081 0.04058 0.73289 0.0
H403 H 0.95588 0.03233 0.77054 0.0
H404 H 0.92174 0.0899 0.74257 0.0
H405 H 0.98991 0.10621 0.78754 0.0
C406 C 0.52543 0.5671 0.65637 0.0
C407 C 0.51776 0.52125 0.62509 0.0
C408 C 0.51478 0.5571 0.69394 0.0
C409 C 0.49771 0.4995 0.70048 0.0
C410 C 0.48326 0.45404 0.66792 0.0
C411 C 0.49315 0.46561 0.63032 0.0
C412 C 0.52985 0.60705 0.72758 0.0
C413 C 0.46434 0.39222 0.67365 0.0
C414 C 0.59633 0.46798 0.80122 0.0
C415 C 0.54223 0.47314 0.82385 0.0
C416 C 0.58127 0.47366 0.76068 0.0
C417 C 0.5103 0.48553 0.74205 0.0
C418 C 0.45473 0.48926 0.76429 0.0
C419 C 0.47138 0.48312 0.80501 0.0
C420 C 0.64237 0.46931 0.73818 0.0
C421 C 0.3785 0.50184 0.7455 0.0
H422 H 0.54464 0.61011 0.65214 0.0
H423 H 0.48813 0.43009 0.60613 0.0
H424 H 0.48867 0.60638 0.7464 0.0
H425 H 0.58347 0.60246 0.74672 0.0
H426 H 0.53053 0.65015 0.71651 0.0
H427 H 0.45124 0.36256 0.64505 0.0
H428 H 0.51058 0.37506 0.69328 0.0
H429 H 0.41737 0.39136 0.68849 0.0
H430 H 0.65149 0.4614 0.81553 0.0
H431 H 0.42905 0.48656 0.82215 0.0
H432 H 0.65372 0.51232 0.7289 0.0
H433 H 0.62679 0.43732 0.71083 0.0
H434 H 0.69307 0.45576 0.7563 0.0
H435 H 0.37697 0.54811 0.73995 0.0
H436 H 0.33952 0.49434 0.76483 0.0
H437 H 0.36048 0.47424 0.71636 0.0
C438 C 0.5887 0.57771 0.36988 0.0
C439 C 0.55186 0.52515 0.37222 0.0
C440 C 0.60603 0.58904 0.3337 0.0
C441 C 0.58664 0.5464 0.29965 0.0
C442 C 0.55552 0.49127 0.30318 0.0
C443 C 0.53795 0.48159 0.33932 0.0
C444 C 0.63965 0.64815 0.33129 0.0
C445 C 0.53542 0.44393 0.26796 0.0
C446 C 0.51814 0.57636 0.19477 0.0
C447 C 0.57399 0.55598 0.1763 0.0
C448 C 0.52491 0.57951 0.23603 0.0
C449 C 0.58865 0.56083 0.25918 0.0
C450 C 0.6478 0.54539 0.24109 0.0
C451 C 0.6398 0.54329 0.19969 0.0
C452 C 0.46103 0.59744 0.25419 0.0
C453 C 0.71681 0.5257 0.26471 0.0
H454 H 0.59927 0.61147 0.3954 0.0
H455 H 0.51016 0.44068 0.34138 0.0
H456 H 0.67988 0.6444 0.31178 0.0
H457 H 0.59669 0.67602 0.31827 0.0
H458 H 0.66647 0.67046 0.36115 0.0
H459 H 0.51924 0.40164 0.27676 0.0
H460 H 0.48946 0.45746 0.24621 0.0
H461 H 0.58152 0.43704 0.25266 0.0
H462 H 0.46755 0.58672 0.1766 0.0
H463 H 0.683 0.52742 0.18533 0.0
H464 H 0.47912 0.62778 0.28216 0.0
H465 H 0.43413 0.55816 0.26165 0.0
H466 H 0.42045 0.61894 0.23361 0.0
H467 H 0.73258 0.55284 0.29417 0.0
H468 H 0.76221 0.52761 0.24868 0.0
H469 H 0.7081 0.47984 0.26994 0.0
loop_
_geom_bond_atom_site_label_1
_geom_bond_atom_site_label_2
_geom_bond_distance
_geom_bond_site_symmetry_2
_ccdc_geom_bond_type
O0 Mn1 2.163 1_554 S
O0 C14 1.244 1_454 S
Mn1 O0 2.163 1_556 S
Mn1 O4 2.160 1_545 S
Mn1 O5 2.221 1_556 S
Mn1 O7 2.159 1_556 S
Mn1 O9 2.164 . S
Mn1 O19 2.222 1_445 S
O2 Mn3 2.087 1_545 S
O2 C14 1.256 . S
Mn3 O2 2.087 1_565 S
Mn3 O10 2.089 1_565 S
Mn3 O19 2.290 . S
Mn3 O20 2.251 . S
O4 Mn1 2.160 1_565 S
O4 C15 1.239 1_556 S
O5 Mn1 2.221 1_554 S
O5 Mn6 2.290 . S
O5 C16 1.278 . S
Mn6 O5 2.290 . S
Mn6 O8 2.089 1_545 S
Mn6 O11 2.251 . S
Mn6 O12 2.087 . S
O7 Mn1 2.159 1_554 S
O7 C17 1.244 . S
O8 Mn6 2.089 1_565 S
O8 C15 1.256 . S
O9 Mn1 2.164 . S
O9 C18 1.239 . S
O10 Mn3 2.089 1_545 S
O10 C18 1.256 1_655 S
O11 Mn6 2.251 . S
O11 C16 1.241 . S
O12 Mn6 2.087 . S
O12 C17 1.256 . S
C13 O19 1.278 . S
C13 O20 1.241 . S
C14 O0 1.244 1_656 S
C14 O2 1.256 . S
C15 O4 1.239 1_554 S
C15 O8 1.256 . S
C16 O5 1.278 . S
C16 O11 1.241 . S
C17 O7 1.244 . S
C17 O12 1.256 . S
C18 O9 1.239 . S
C18 O10 1.256 1_455 S
O19 Mn1 2.222 1_665 S
O19 Mn3 2.290 . S
O19 C13 1.278 . S
O20 Mn3 2.251 . S
O20 C13 1.241 . S
O21 Mn22 2.163 . S
O21 C35 1.244 . S
Mn22 O21 2.163 . S
Mn22 O25 2.160 . S
Mn22 O26 2.221 . S
Mn22 O28 2.163 . S
Mn22 O30 2.160 . S
Mn22 O40 2.221 . S
O23 Mn24 2.087 . S
O23 C35 1.256 . S
Mn24 O23 2.087 . S
Mn24 O31 2.089 . S
Mn24 O40 2.290 . S
Mn24 O41 2.251 . S
O25 Mn22 2.160 . S
O25 C36 1.239 . S
O26 Mn22 2.221 . S
O26 Mn27 2.290 . S
O26 C37 1.278 . S
Mn27 O26 2.290 . S
Mn27 O29 2.089 . S
Mn27 O32 2.251 . S
Mn27 O33 2.087 . S
O28 Mn22 2.163 . S
O28 C38 1.244 . S
O29 Mn27 2.089 . S
O29 C36 1.256 . S
O30 Mn22 2.160 . S
O30 C39 1.239 . S
O31 Mn24 2.089 . S
O31 C39 1.256 . S
O32 Mn27 2.251 . S
O32 C37 1.241 . S
O33 Mn27 2.087 . S
O33 C38 1.256 . S
C34 O40 1.278 . S
C34 O41 1.241 . S
C35 O21 1.244 . S
C35 O23 1.256 . S
C36 O25 1.239 . S
C36 O29 1.256 . S
C37 O26 1.278 . S
C37 O32 1.241 . S
C38 O28 1.244 . S
C38 O33 1.256 . S
C39 O30 1.239 . S
C39 O31 1.256 . S
O40 Mn22 2.221 . S
O40 Mn24 2.290 . S
O40 C34 1.278 . S
O41 Mn24 2.251 . S
O41 C34 1.241 . S
H42 C45 0.929 . S
H43 C48 0.929 . S
H44 C50 0.930 . S
C45 H42 0.929 . S
C45 C46 1.398 . S
C45 C47 1.396 . S
C46 C45 1.398 . S
C46 C50 1.407 . S
C47 C45 1.396 . S
C47 C48 1.394 1_565 S
C48 H43 0.929 . S
C48 C47 1.394 1_545 S
C48 C49 1.382 . S
C49 C48 1.382 . S
C49 C50 1.392 1_545 S
C49 N51 1.420 1_455 S
C50 H44 0.930 . S
C50 C46 1.407 . S
C50 C49 1.392 1_565 S
N51 C49 1.420 1_655 S
N51 C52 1.244 . S
C52 N51 1.244 . S
H53 C56 0.929 1_565 S
H54 C59 0.929 . S
H55 C61 0.930 . S
C56 H53 0.929 1_545 S
C56 C57 1.398 1_545 S
C56 C58 1.396 . S
C57 C56 1.398 1_565 S
C57 C61 1.407 1_565 S
C58 C56 1.396 . S
C58 C59 1.394 1_655 S
C59 H54 0.929 . S
C59 C58 1.394 1_455 S
C59 C60 1.382 . S
C60 C59 1.382 . S
C60 C61 1.392 1_455 S
C60 N62 1.420 . S
C61 H55 0.930 . S
C61 C57 1.407 1_545 S
C61 C60 1.392 1_655 S
N62 C60 1.420 . S
N62 C63 1.244 . S
C63 N62 1.244 . S
H64 C67 0.929 . S
H65 C70 0.929 . S
H66 C72 0.930 . S
C67 H64 0.929 . S
C67 C68 1.398 . S
C67 C69 1.396 . S
C68 C67 1.398 . S
C68 C72 1.407 . S
C69 C67 1.396 . S
C69 C70 1.394 . S
C70 H65 0.929 . S
C70 C69 1.394 . S
C70 C71 1.382 . S
C71 C70 1.382 . S
C71 C72 1.392 . S
C71 N73 1.420 . S
C72 H66 0.930 . S
C72 C68 1.407 . S
C72 C71 1.392 . S
N73 C71 1.420 . S
N73 C74 1.244 . S
C74 N73 1.244 . S
H75 C78 0.929 . S
H76 C81 0.929 . S
H77 C83 0.930 . S
C78 H75 0.929 . S
C78 C79 1.398 . S
C78 C80 1.396 . S
C79 C78 1.398 . S
C79 C83 1.407 . S
C80 C78 1.396 . S
C80 C81 1.394 . S
C81 H76 0.929 . S
C81 C80 1.394 . S
C81 C82 1.382 . S
C82 C81 1.382 . S
C82 C83 1.392 . S
C82 N84 1.420 . S
C83 H77 0.930 . S
C83 C79 1.407 . S
C83 C82 1.392 . S
N84 C82 1.420 . S
N84 C85 1.244 . S
C85 N84 1.244 . S
C86 C87 1.391 . S
C86 C88 1.394 . S
C86 H102 0.931 . S
C87 C86 1.391 . S
C87 C91 1.376 . S
C88 C86 1.394 . S
C88 C89 1.369 . S
C88 C92 1.531 . S
C89 C88 1.369 . S
C89 C90 1.410 . S
C89 C97 1.503 . S
C90 C89 1.410 . S
C90 C91 1.392 . S
C90 C93 1.511 . S
C91 C87 1.376 . S
C91 C90 1.392 . S
C91 H103 0.929 . S
C92 C88 1.531 . S
C92 H104 0.960 1_554 S
C92 H105 0.962 . S
C92 H106 0.960 1_554 S
C93 C90 1.511 . S
C93 H107 0.961 . S
C93 H108 0.961 . S
C93 H109 0.961 . S
C94 C95 1.370 . S
C94 C96 1.363 . S
C94 H110 0.931 . S
C95 C94 1.370 . S
C95 C99 1.408 . S
C96 C94 1.363 . S
C96 C97 1.370 . S
C96 C100 1.524 . S
C97 C89 1.503 . S
C97 C96 1.370 . S
C97 C98 1.403 1_554 S
C98 C97 1.403 1_556 S
C98 C99 1.404 1_556 S
C98 C101 1.539 . S
C99 C95 1.408 . S
C99 C98 1.404 1_554 S
C99 H111 0.930 1_554 S
C100 C96 1.524 . S
C100 H112 0.956 . S
C100 H113 0.961 . S
C100 H114 0.961 . S
C101 C98 1.539 . S
C101 H115 0.958 . S
C101 H116 0.961 . S
C101 H117 0.960 . S
H102 C86 0.931 . S
H103 C91 0.929 . S
H104 C92 0.960 1_556 S
H105 C92 0.962 . S
H106 C92 0.960 1_556 S
H107 C93 0.961 . S
H108 C93 0.961 . S
H109 C93 0.961 . S
H110 C94 0.931 . S
H111 C99 0.930 1_556 S
H112 C100 0.956 . S
H113 C100 0.961 . S
H114 C100 0.961 . S
H115 C101 0.958 . S
H116 C101 0.961 . S
H117 C101 0.960 . S
C118 C119 1.391 1_556 S
C118 C120 1.394 . S
C118 H134 0.931 . S
C119 C118 1.391 1_554 S
C119 C123 1.376 . S
C120 C118 1.394 . S
C120 C121 1.369 . S
C120 C124 1.531 . S
C121 C120 1.369 . S
C121 C122 1.410 1_556 S
C121 C129 1.503 . S
C122 C121 1.410 1_554 S
C122 C123 1.392 . S
C122 C125 1.511 . S
C123 C119 1.376 . S
C123 C122 1.392 . S
C123 H135 0.929 . S
C124 C120 1.531 . S
C124 H136 0.960 . S
C124 H137 0.962 . S
C124 H138 0.960 . S
C125 C122 1.511 . S
C125 H139 0.961 . S
C125 H140 0.961 . S
C125 H141 0.961 1_554 S
C126 C127 1.370 1_554 S
C126 C128 1.363 . S
C126 H142 0.931 . S
C127 C126 1.370 1_556 S
C127 C131 1.408 . S
C128 C126 1.363 . S
C128 C129 1.370 1_554 S
C128 C132 1.524 . S
C129 C121 1.503 . S
C129 C128 1.370 1_556 S
C129 C130 1.403 . S
C130 C129 1.403 . S
C130 C131 1.404 . S
C130 C133 1.539 . S
C131 C127 1.408 . S
C131 C130 1.404 . S
C131 H143 0.930 . S
C132 C128 1.524 . S
C132 H144 0.956 . S
C132 H145 0.961 . S
C132 H146 0.961 . S
C133 C130 1.539 . S
C133 H147 0.958 . S
C133 H148 0.961 . S
C133 H149 0.960 . S
H134 C118 0.931 . S
H135 C123 0.929 . S
H136 C124 0.960 . S
H137 C124 0.962 . S
H138 C124 0.960 . S
H139 C125 0.961 . S
H140 C125 0.961 . S
H141 C125 0.961 1_556 S
H142 C126 0.931 . S
H143 C131 0.930 . S
H144 C132 0.956 . S
H145 C132 0.961 . S
H146 C132 0.961 . S
H147 C133 0.958 . S
H148 C133 0.961 . S
H149 C133 0.960 . S
C150 C151 1.391 1_556 S
C150 C152 1.394 . S
C150 H166 0.931 . S
C151 C150 1.391 1_554 S
C151 C155 1.376 . S
C152 C150 1.394 . S
C152 C153 1.369 1_556 S
C152 C156 1.531 . S
C153 C152 1.369 1_554 S
C153 C154 1.410 . S
C153 C161 1.503 . S
C154 C153 1.410 . S
C154 C155 1.392 . S
C154 C157 1.511 . S
C155 C151 1.376 . S
C155 C154 1.392 . S
C155 H167 0.929 . S
C156 C152 1.531 . S
C156 H168 0.960 . S
C156 H169 0.962 . S
C156 H170 0.960 . S
C157 C154 1.511 . S
C157 H171 0.961 . S
C157 H172 0.961 . S
C157 H173 0.961 . S
C158 C159 1.370 . S
C158 C160 1.363 . S
C158 H174 0.931 1_554 S
C159 C158 1.370 . S
C159 C163 1.408 . S
C160 C158 1.363 . S
C160 C161 1.370 . S
C160 C164 1.524 1_554 S
C161 C153 1.503 . S
C161 C160 1.370 . S
C161 C162 1.403 . S
C162 C161 1.403 . S
C162 C163 1.404 . S
C162 C165 1.539 . S
C163 C159 1.408 . S
C163 C162 1.404 . S
C163 H175 0.930 . S
C164 C160 1.524 1_556 S
C164 H176 0.956 . S
C164 H177 0.961 1_556 S
C164 H178 0.961 . S
C165 C162 1.539 . S
C165 H179 0.958 . S
C165 H180 0.961 . S
C165 H181 0.960 . S
H166 C150 0.931 . S
H167 C155 0.929 . S
H168 C156 0.960 . S
H169 C156 0.962 . S
H170 C156 0.960 . S
H171 C157 0.961 . S
H172 C157 0.961 . S
H173 C157 0.961 . S
H174 C158 0.931 1_556 S
H175 C163 0.930 . S
H176 C164 0.956 . S
H177 C164 0.961 1_554 S
H178 C164 0.961 . S
H179 C165 0.958 . S
H180 C165 0.961 . S
H181 C165 0.960 . S
C182 C183 1.391 . S
C182 C184 1.394 . S
C182 H198 0.931 . S
C183 C182 1.391 . S
C183 C187 1.376 1_556 S
C184 C182 1.394 . S
C184 C185 1.369 . S
C184 C188 1.531 . S
C185 C184 1.369 . S
C185 C186 1.410 1_556 S
C185 C193 1.503 . S
C186 C185 1.410 1_554 S
C186 C187 1.392 . S
C186 C189 1.511 . S
C187 C183 1.376 1_554 S
C187 C186 1.392 . S
C187 H199 0.929 . S
C188 C184 1.531 . S
C188 H200 0.960 . S
C188 H201 0.962 . S
C188 H202 0.960 . S
C189 C186 1.511 . S
C189 H203 0.961 . S
C189 H204 0.961 . S
C189 H205 0.961 . S
C190 C191 1.370 . S
C190 C192 1.363 . S
C190 H206 0.931 . S
C191 C190 1.370 . S
C191 C195 1.408 . S
C192 C190 1.363 . S
C192 C193 1.370 . S
C192 C196 1.524 . S
C193 C185 1.503 . S
C193 C192 1.370 . S
C193 C194 1.403 . S
C194 C193 1.403 . S
C194 C195 1.404 . S
C194 C197 1.539 1_556 S
C195 C191 1.408 . S
C195 C194 1.404 . S
C195 H207 0.930 1_556 S
C196 C192 1.524 . S
C196 H208 0.956 . S
C196 H209 0.961 . S
C196 H210 0.961 . S
C197 C194 1.539 1_554 S
C197 H211 0.958 . S
C197 H212 0.961 . S
C197 H213 0.960 . S
H198 C182 0.931 . S
H199 C187 0.929 . S
H200 C188 0.960 . S
H201 C188 0.962 . S
H202 C188 0.960 . S
H203 C189 0.961 . S
H204 C189 0.961 . S
H205 C189 0.961 . S
H206 C190 0.931 . S
H207 C195 0.930 1_554 S
H208 C196 0.956 . S
H209 C196 0.961 . S
H210 C196 0.961 . S
H211 C197 0.958 . S
H212 C197 0.961 . S
H213 C197 0.960 . S
C214 C215 1.391 . S
C214 C216 1.394 . S
C214 H230 0.931 . S
C215 C214 1.391 . S
C215 C219 1.376 . S
C216 C214 1.394 . S
C216 C217 1.369 . S
C216 C220 1.531 . S
C217 C216 1.369 . S
C217 C218 1.410 . S
C217 C225 1.503 . S
C218 C217 1.410 . S
C218 C219 1.392 . S
C218 C221 1.511 . S
C219 C215 1.376 . S
C219 C218 1.392 . S
C219 H231 0.929 . S
C220 C216 1.531 . S
C220 H232 0.960 . S
C220 H233 0.962 . S
C220 H234 0.960 . S
C221 C218 1.511 . S
C221 H235 0.961 . S
C221 H236 0.961 . S
C221 H237 0.961 . S
C222 C223 1.370 . S
C222 C224 1.363 . S
C222 H238 0.931 . S
C223 C222 1.370 . S
C223 C227 1.408 . S
C224 C222 1.363 . S
C224 C225 1.370 . S
C224 C228 1.524 . S
C225 C217 1.503 . S
C225 C224 1.370 . S
C225 C226 1.403 . S
C226 C225 1.403 . S
C226 C227 1.404 . S
C226 C229 1.539 . S
C227 C223 1.408 . S
C227 C226 1.404 . S
C227 H239 0.930 . S
C228 C224 1.524 . S
C228 H240 0.956 . S
C228 H241 0.961 . S
C228 H242 0.961 . S
C229 C226 1.539 . S
C229 H243 0.958 . S
C229 H244 0.961 . S
C229 H245 0.960 . S
H230 C214 0.931 . S
H231 C219 0.929 . S
H232 C220 0.960 . S
H233 C220 0.962 . S
H234 C220 0.960 . S
H235 C221 0.961 . S
H236 C221 0.961 . S
H237 C221 0.961 . S
H238 C222 0.931 . S
H239 C227 0.930 . S
H240 C228 0.956 . S
H241 C228 0.961 . S
H242 C228 0.961 . S
H243 C229 0.958 . S
H244 C229 0.961 . S
H245 C229 0.960 . S
C246 C247 1.391 . S
C246 C248 1.394 . S
C246 H262 0.931 . S
C247 C246 1.391 . S
C247 C251 1.376 . S
C248 C246 1.394 . S
C248 C249 1.369 . S
C248 C252 1.531 . S
C249 C248 1.369 . S
C249 C250 1.410 . S
C249 C257 1.503 . S
C250 C249 1.410 . S
C250 C251 1.392 . S
C250 C253 1.511 . S
C251 C247 1.376 . S
C251 C250 1.392 . S
C251 H263 0.929 . S
C252 C248 1.531 . S
C252 H264 0.960 . S
C252 H265 0.962 . S
C252 H266 0.960 . S
C253 C250 1.511 . S
C253 H267 0.961 . S
C253 H268 0.961 . S
C253 H269 0.961 . S
C254 C255 1.370 . S
C254 C256 1.363 . S
C254 H270 0.931 . S
C255 C254 1.370 . S
C255 C259 1.408 . S
C256 C254 1.363 . S
C256 C257 1.370 . S
C256 C260 1.524 . S
C257 C249 1.503 . S
C257 C256 1.370 . S
C257 C258 1.403 . S
C258 C257 1.403 . S
C258 C259 1.404 . S
C258 C261 1.539 . S
C259 C255 1.408 . S
C259 C258 1.404 . S
C259 H271 0.930 . S
C260 C256 1.524 . S
C260 H272 0.956 . S
C260 H273 0.961 . S
C260 H274 0.961 . S
C261 C258 1.539 . S
C261 H275 0.958 . S
C261 H276 0.961 . S
C261 H277 0.960 . S
H262 C246 0.931 . S
H263 C251 0.929 . S
H264 C252 0.960 . S
H265 C252 0.962 . S
H266 C252 0.960 . S
H267 C253 0.961 . S
H268 C253 0.961 . S
H269 C253 0.961 . S
H270 C254 0.931 . S
H271 C259 0.930 . S
H272 C260 0.956 . S
H273 C260 0.961 . S
H274 C260 0.961 . S
H275 C261 0.958 . S
H276 C261 0.961 . S
H277 C261 0.960 . S
C278 C279 1.391 . S
C278 C280 1.394 . S
C278 H294 0.931 . S
C279 C278 1.391 . S
C279 C283 1.376 . S
C280 C278 1.394 . S
C280 C281 1.369 . S
C280 C284 1.531 . S
C281 C280 1.369 . S
C281 C282 1.410 . S
C281 C289 1.503 . S
C282 C281 1.410 . S
C282 C283 1.392 . S
C282 C285 1.511 . S
C283 C279 1.376 . S
C283 C282 1.392 . S
C283 H295 0.929 . S
C284 C280 1.531 . S
C284 H296 0.960 . S
C284 H297 0.962 . S
C284 H298 0.960 . S
C285 C282 1.511 . S
C285 H299 0.961 . S
C285 H300 0.961 . S
C285 H301 0.961 . S
C286 C287 1.370 . S
C286 C288 1.363 . S
C286 H302 0.931 . S
C287 C286 1.370 . S
C287 C291 1.408 . S
C288 C286 1.363 . S
C288 C289 1.370 . S
C288 C292 1.524 . S
C289 C281 1.503 . S
C289 C288 1.370 . S
C289 C290 1.403 . S
C290 C289 1.403 . S
C290 C291 1.404 . S
C290 C293 1.539 . S
C291 C287 1.408 . S
C291 C290 1.404 . S
C291 H303 0.930 . S
C292 C288 1.524 . S
C292 H304 0.956 . S
C292 H305 0.961 . S
C292 H306 0.961 . S
C293 C290 1.539 . S
C293 H307 0.958 . S
C293 H308 0.961 . S
C293 H309 0.960 . S
H294 C278 0.931 . S
H295 C283 0.929 . S
H296 C284 0.960 . S
H297 C284 0.962 . S
H298 C284 0.960 . S
H299 C285 0.961 . S
H300 C285 0.961 . S
H301 C285 0.961 . S
H302 C286 0.931 . S
H303 C291 0.930 . S
H304 C292 0.956 . S
H305 C292 0.961 . S
H306 C292 0.961 . S
H307 C293 0.958 . S
H308 C293 0.961 . S
H309 C293 0.960 . S
C310 C311 1.391 . S
C310 C312 1.394 . S
C310 H326 0.931 . S
C311 C310 1.391 . S
C311 C315 1.376 . S
C312 C310 1.394 . S
C312 C313 1.369 . S
C312 C316 1.531 . S
C313 C312 1.369 . S
C313 C314 1.410 . S
C313 C321 1.503 . S
C314 C313 1.410 . S
C314 C315 1.392 . S
C314 C317 1.511 . S
C315 C311 1.376 . S
C315 C314 1.392 . S
C315 H327 0.929 . S
C316 C312 1.531 . S
C316 H328 0.960 . S
C316 H329 0.962 . S
C316 H330 0.960 . S
C317 C314 1.511 . S
C317 H331 0.961 . S
C317 H332 0.961 . S
C317 H333 0.961 . S
C318 C319 1.370 . S
C318 C320 1.363 . S
C318 H334 0.931 . S
C319 C318 1.370 . S
C319 C323 1.408 . S
C320 C318 1.363 . S
C320 C321 1.370 . S
C320 C324 1.524 . S
C321 C313 1.503 . S
C321 C320 1.370 . S
C321 C322 1.403 . S
C322 C321 1.403 . S
C322 C323 1.404 . S
C322 C325 1.539 . S
C323 C319 1.408 . S
C323 C322 1.404 . S
C323 H335 0.930 . S
C324 C320 1.524 . S
C324 H336 0.956 . S
C324 H337 0.961 . S
C324 H338 0.961 . S
C325 C322 1.539 . S
C325 H339 0.958 . S
C325 H340 0.961 . S
C325 H341 0.960 . S
H326 C310 0.931 . S
H327 C315 0.929 . S
H328 C316 0.960 . S
H329 C316 0.962 . S
H330 C316 0.960 . S
H331 C317 0.961 . S
H332 C317 0.961 . S
H333 C317 0.961 . S
H334 C318 0.931 . S
H335 C323 0.930 . S
H336 C324 0.956 . S
H337 C324 0.961 . S
H338 C324 0.961 . S
H339 C325 0.958 . S
H340 C325 0.961 . S
H341 C325 0.960 . S
C342 C343 1.391 . S
C342 C344 1.394 . S
C342 H358 0.931 . S
C343 C342 1.391 . S
C343 C347 1.376 1_545 S
C344 C342 1.394 . S
C344 C345 1.369 . S
C344 C348 1.531 . S
C345 C344 1.369 . S
C345 C346 1.410 1_545 S
C345 C353 1.503 . S
C346 C345 1.410 1_565 S
C346 C347 1.392 . S
C346 C349 1.511 1_455 S
C347 C343 1.376 1_565 S
C347 C346 1.392 . S
C347 H359 0.929 1_455 S
C348 C344 1.531 . S
C348 H360 0.960 . S
C348 H361 0.962 . S
C348 H362 0.960 . S
C349 C346 1.511 1_655 S
C349 H363 0.961 . S
C349 H364 0.961 . S
C349 H365 0.961 . S
C350 C351 1.370 . S
C350 C352 1.363 . S
C350 H366 0.931 . S
C351 C350 1.370 . S
C351 C355 1.408 1_565 S
C352 C350 1.363 . S
C352 C353 1.370 1_565 S
C352 C356 1.524 . S
C353 C345 1.503 . S
C353 C352 1.370 1_545 S
C353 C354 1.403 . S
C354 C353 1.403 . S
C354 C355 1.404 . S
C354 C357 1.539 1_455 S
C355 C351 1.408 1_545 S
C355 C354 1.404 . S
C355 H367 0.930 . S
C356 C352 1.524 . S
C356 H368 0.956 . S
C356 H369 0.961 . S
C356 H370 0.961 . S
C357 C354 1.539 1_655 S
C357 H371 0.958 . S
C357 H372 0.961 . S
C357 H373 0.960 . S
H358 C342 0.931 . S
H359 C347 0.929 1_655 S
H360 C348 0.960 . S
H361 C348 0.962 . S
H362 C348 0.960 . S
H363 C349 0.961 . S
H364 C349 0.961 . S
H365 C349 0.961 . S
H366 C350 0.931 . S
H367 C355 0.930 . S
H368 C356 0.956 . S
H369 C356 0.961 . S
H370 C356 0.961 . S
H371 C357 0.958 . S
H372 C357 0.961 . S
H373 C357 0.960 . S
C374 C375 1.391 1_565 S
C374 C376 1.394 . S
C374 H390 0.931 . S
C375 C374 1.391 1_545 S
C375 C379 1.376 1_455 S
C376 C374 1.394 . S
C376 C377 1.369 1_565 S
C376 C380 1.531 . S
C377 C376 1.369 1_545 S
C377 C378 1.410 1_455 S
C377 C385 1.503 . S
C378 C377 1.410 1_655 S
C378 C379 1.392 . S
C378 C381 1.511 . S
C379 C375 1.376 1_655 S
C379 C378 1.392 . S
C379 H391 0.929 . S
C380 C376 1.531 . S
C380 H392 0.960 . S
C380 H393 0.962 . S
C380 H394 0.960 . S
C381 C378 1.511 . S
C381 H395 0.961 . S
C381 H396 0.961 . S
C381 H397 0.961 . S
C382 C383 1.370 1_455 S
C382 C384 1.363 . S
C382 H398 0.931 . S
C383 C382 1.370 1_655 S
C383 C387 1.408 . S
C384 C382 1.363 . S
C384 C385 1.372 . S
C384 C388 1.524 . S
C385 C377 1.503 . S
C385 C384 1.372 . S
C385 C386 1.401 1_455 S
C386 C385 1.401 1_655 S
C386 C387 1.404 . S
C386 C389 1.539 1_545 S
C387 C383 1.408 . S
C387 C386 1.404 . S
C387 H399 0.930 . S
C388 C384 1.524 . S
C388 H400 0.956 . S
C388 H401 0.961 . S
C388 H402 0.961 . S
C389 C386 1.539 1_565 S
C389 H403 0.958 . S
C389 H404 0.961 . S
C389 H405 0.960 . S
H390 C374 0.931 . S
H391 C379 0.929 . S
H392 C380 0.960 . S
H393 C380 0.962 . S
H394 C380 0.960 . S
H395 C381 0.961 . S
H396 C381 0.961 . S
H397 C381 0.961 . S
H398 C382 0.931 . S
H399 C387 0.930 . S
H400 C388 0.956 . S
H401 C388 0.961 . S
H402 C388 0.961 . S
H403 C389 0.958 . S
H404 C389 0.961 . S
H405 C389 0.960 . S
C406 C407 1.391 . S
C406 C408 1.394 . S
C406 H422 0.931 . S
C407 C406 1.391 . S
C407 C411 1.376 . S
C408 C406 1.394 . S
C408 C409 1.369 . S
C408 C412 1.531 . S
C409 C408 1.369 . S
C409 C410 1.410 . S
C409 C417 1.503 . S
C410 C409 1.410 . S
C410 C411 1.392 . S
C410 C413 1.511 . S
C411 C407 1.376 . S
C411 C410 1.392 . S
C411 H423 0.929 . S
C412 C408 1.531 . S
C412 H424 0.960 . S
C412 H425 0.962 . S
C412 H426 0.960 . S
C413 C410 1.511 . S
C413 H427 0.961 . S
C413 H428 0.961 . S
C413 H429 0.961 . S
C414 C415 1.370 . S
C414 C416 1.363 . S
C414 H430 0.931 . S
C415 C414 1.370 . S
C415 C419 1.408 . S
C416 C414 1.363 . S
C416 C417 1.370 . S
C416 C420 1.524 . S
C417 C409 1.503 . S
C417 C416 1.370 . S
C417 C418 1.403 . S
C418 C417 1.403 . S
C418 C419 1.404 . S
C418 C421 1.539 . S
C419 C415 1.408 . S
C419 C418 1.404 . S
C419 H431 0.930 . S
C420 C416 1.524 . S
C420 H432 0.956 . S
C420 H433 0.961 . S
C420 H434 0.961 . S
C421 C418 1.539 . S
C421 H435 0.958 . S
C421 H436 0.961 . S
C421 H437 0.960 . S
H422 C406 0.931 . S
H423 C411 0.929 . S
H424 C412 0.960 . S
H425 C412 0.962 . S
H426 C412 0.960 . S
H427 C413 0.961 . S
H428 C413 0.961 . S
H429 C413 0.961 . S
H430 C414 0.931 . S
H431 C419 0.930 . S
H432 C420 0.956 . S
H433 C420 0.961 . S
H434 C420 0.961 . S
H435 C421 0.958 . S
H436 C421 0.961 . S
H437 C421 0.960 . S
C438 C439 1.391 . S
C438 C440 1.394 . S
C438 H454 0.931 . S
C439 C438 1.391 . S
C439 C443 1.376 . S
C440 C438 1.394 . S
C440 C441 1.369 . S
C440 C444 1.531 . S
C441 C440 1.369 . S
C441 C442 1.410 . S
C441 C449 1.503 . S
C442 C441 1.410 . S
C442 C443 1.392 . S
C442 C445 1.511 . S
C443 C439 1.376 . S
C443 C442 1.392 . S
C443 H455 0.929 . S
C444 C440 1.531 . S
C444 H456 0.960 . S
C444 H457 0.962 . S
C444 H458 0.960 . S
C445 C442 1.511 . S
C445 H459 0.961 . S
C445 H460 0.961 . S
C445 H461 0.961 . S
C446 C447 1.370 . S
C446 C448 1.363 . S
C446 H462 0.931 . S
C447 C446 1.370 . S
C447 C451 1.408 . S
C448 C446 1.363 . S
C448 C449 1.370 . S
C448 C452 1.524 . S
C449 C441 1.503 . S
C449 C448 1.370 . S
C449 C450 1.403 . S
C450 C449 1.403 . S
C450 C451 1.404 . S
C450 C453 1.539 . S
C451 C447 1.408 . S
C451 C450 1.404 . S
C451 H463 0.930 . S
C452 C448 1.524 . S
C452 H464 0.956 . S
C452 H465 0.961 . S
C452 H466 0.961 . S
C453 C450 1.539 . S
C453 H467 0.958 . S
C453 H468 0.961 . S
C453 H469 0.960 . S
H454 C438 0.931 . S
H455 C443 0.929 . S
H456 C444 0.960 . S
H457 C444 0.962 . S
H458 C444 0.960 . S
H459 C445 0.961 . S
H460 C445 0.961 . S
H461 C445 0.961 . S
H462 C446 0.931 . S
H463 C451 0.930 . S
H464 C452 0.956 . S
H465 C452 0.961 . S
H466 C452 0.961 . S
H467 C453 0.958 . S
H468 C453 0.961 . S
H469 C453 0.960 . S
C95 C79 1.462 . S
C87 C16 1.361 . S
C119 C15 1.428 . S
C127 C74 1.398 . S
C151 C13 1.327 1_554 S
C159 C85 1.418 . S
C183 C14 1.409 . S
C191 C68 1.458 . S
C215 C37 1.362 . S
C223 C57 1.462 . S
C247 C36 1.422 . S
C255 C52 1.399 . S
C287 C63 1.438 . S
C279 C34 1.216 . S
C319 C46 1.455 . S
C311 C35 1.447 . S
C343 C17 1.576 . S
C351 C47 1.616 . S
C375 C18 1.361 . S
C383 C58 1.415 . S
C415 C69 1.616 . S
C407 C38 1.576 . S
C439 C39 1.412 . S
C447 C80 1.414 . S
