# Generated by pormake.
# Topology anh, (6,3)-cn, num edge types: 1
# Building blocks:
#     Node 0, Type 0, BuildingBlock: BETFAJ_clean_sbu_0, # of connection points: 6
#     Node 1, Type 0, BuildingBlock: BETFAJ_clean_sbu_0, # of connection points: 6
#     Node 2, Type 0, BuildingBlock: BETFAJ_clean_sbu_0, # of connection points: 6
#     Node 3, Type 1, BuildingBlock: BETDIP_clean_linker_0, # of connection points: 3
#     Node 4, Type 1, BuildingBlock: BETDIP_clean_linker_0, # of connection points: 3
#     Node 5, Type 1, BuildingBlock: BETDIP_clean_linker_0, # of connection points: 3
#     Node 6, Type 1, BuildingBlock: BETDIP_clean_linker_0, # of connection points: 3
#     Node 7, Type 1, BuildingBlock: BETDIP_clean_linker_0, # of connection points: 3
#     Node 8, Type 1, BuildingBlock: BETDIP_clean_linker_0, # of connection points: 3
#     Edge 9, Type (0, 1), BuildingBlock: XUDNAN_clean_linker_2, # of connection points: 2
#     Edge 10, Type (0, 1), BuildingBlock: XUDNAN_clean_linker_2, # of connection points: 2
#     Edge 11, Type (0, 1), BuildingBlock: XUDNAN_clean_linker_2, # of connection points: 2
#     Edge 12, Type (0, 1), BuildingBlock: XUDNAN_clean_linker_2, # of connection points: 2
#     Edge 13, Type (0, 1), BuildingBlock: XUDNAN_clean_linker_2, # of connection points: 2
#     Edge 14, Type (0, 1), BuildingBlock: XUDNAN_clean_linker_2, # of connection points: 2
#     Edge 15, Type (0, 1), BuildingBlock: XUDNAN_clean_linker_2, # of connection points: 2
#     Edge 16, Type (0, 1), BuildingBlock: XUDNAN_clean_linker_2, # of connection points: 2
#     Edge 17, Type (0, 1), BuildingBlock: XUDNAN_clean_linker_2, # of connection points: 2
#     Edge 18, Type (0, 1), BuildingBlock: XUDNAN_clean_linker_2, # of connection points: 2
#     Edge 19, Type (0, 1), BuildingBlock: XUDNAN_clean_linker_2, # of connection points: 2
#     Edge 20, Type (0, 1), BuildingBlock: XUDNAN_clean_linker_2, # of connection points: 2
#     Edge 21, Type (0, 1), BuildingBlock: XUDNAN_clean_linker_2, # of connection points: 2
#     Edge 22, Type (0, 1), BuildingBlock: XUDNAN_clean_linker_2, # of connection points: 2
#     Edge 23, Type (0, 1), BuildingBlock: XUDNAN_clean_linker_2, # of connection points: 2
#     Edge 24, Type (0, 1), BuildingBlock: XUDNAN_clean_linker_2, # of connection points: 2
#     Edge 25, Type (0, 1), BuildingBlock: XUDNAN_clean_linker_2, # of connection points: 2
#     Edge 26, Type (0, 1), BuildingBlock: XUDNAN_clean_linker_2, # of connection points: 2
# Relax obj value: 0.160
# Max RMSD: 0.180
# Mean RMSD: 0.127
data_MOF--net-anh--node1-BETFAJ_clean_sbu_0--node2-BETDIP_clean_linker_0--edge1-XUDNAN_clean_linker_2
_symmetry_space_group_name_H-M    P1
_symmetry_Int_Tables_number       1
_symmetry_cell_setting            triclinic
loop_
_symmetry_equiv_pos_as_xyz
'x, y, z'
_cell_length_a     31.928426
_cell_length_b     38.461685
_cell_length_c     49.413318
_cell_angle_alpha  95.746175
_cell_angle_beta   88.398179
_cell_angle_gamma 130.36949
loop_
_atom_site_label
_atom_site_type_symbol
_atom_site_fract_x
_atom_site_fract_y
_atom_site_fract_z
_atom_type_partial_charge
Sm0 Sm 0.14792 0.5465 0.13561 0.0
Sm1 Sm 0.08853 0.57841 0.15637 0.0
C2 C 0.21678 0.53646 0.11457 0.0
C3 C 0.27671 0.56494 0.11979 0.0
C4 C 0.31483 0.60838 0.11028 0.0
C5 C 0.37087 0.63657 0.11792 0.0
C6 C 0.38938 0.62202 0.13549 0.0
C7 C 0.35133 0.57847 0.14465 0.0
C8 C 0.29579 0.55016 0.13674 0.0
C9 C 0.12851 0.54057 0.19018 0.0
C10 C 0.2217 0.65821 0.15119 0.0
C11 C 1.04349 0.60748 0.18511 0.0
C12 C 0.98866 0.59399 0.18782 0.0
C13 C 0.96095 0.57729 0.21193 0.0
C14 C 0.9079 0.56226 0.21438 0.0
C15 C 0.8817 0.56394 0.1928 0.0
C16 C 0.91026 0.58207 0.16902 0.0
C17 C 0.96309 0.59681 0.16651 0.0
C18 C 0.07487 0.5563 0.10046 0.0
C19 C 1.01836 0.46829 0.13996 0.0
O20 O 0.19981 0.55376 0.10171 0.0
O21 O 0.18692 0.51549 0.1351 0.0
O22 O 0.146 0.57432 0.17768 0.0
O23 O 0.11901 0.50749 0.17381 0.0
O24 O 0.22212 0.6244 0.14399 0.0
O25 O 0.1754 0.64973 0.15695 0.0
O26 O 1.04939 0.57971 0.19379 0.0
O27 O 0.06834 0.62388 0.1625 0.0
O28 O 0.1191 0.57734 0.11441 0.0
O29 O 1.03691 0.54921 0.11587 0.0
O30 O 1.02379 0.4992 0.1579 0.0
O31 O 1.05868 0.48096 0.12368 0.0
H32 H 0.30142 0.62082 0.0972 0.0
H33 H 0.39968 0.66967 0.11018 0.0
H34 H 0.36477 0.56572 0.15746 0.0
H35 H 0.26752 0.51682 0.14426 0.0
H36 H 0.97997 0.57507 0.22872 0.0
H37 H 0.88689 0.54815 0.23287 0.0
H38 H 0.89167 0.58469 0.15223 0.0
H39 H 0.98349 0.60989 0.14774 0.0
Sm40 Sm 0.6116 0.02588 0.47786 0.0
Sm41 Sm 0.53546 0.04244 0.46512 0.0
C42 C 0.66117 0.99726 0.49584 0.0
C43 C 0.64998 0.95383 0.49743 0.0
C44 C 0.59988 0.91519 0.5064 0.0
C45 C 0.59055 0.87444 0.5076 0.0
C46 C 0.63092 0.8715 0.49964 0.0
C47 C 0.68085 0.91023 0.4906 0.0
C48 C 0.69027 0.95096 0.48958 0.0
C49 C 0.60513 0.0346 0.42404 0.0
C50 C 0.47827 0.93676 0.46507 0.0
C51 C 0.48743 0.07277 0.44789 0.0
C52 C 0.4945 0.11467 0.45396 0.0
C53 C 0.51108 0.13827 0.48025 0.0
C54 C 0.51613 0.17721 0.48599 0.0
C55 C 0.50526 0.19371 0.46548 0.0
C56 C 0.48995 0.17049 0.439 0.0
C57 C 0.48451 0.13131 0.43334 0.0
C58 C 0.54259 0.03459 0.51917 0.0
C59 C 0.66991 0.13178 0.4771 0.0
O60 O 0.63358 1.00506 0.51137 0.0
O61 O 0.667 0.00991 0.47149 0.0
O62 O 0.56452 0.0115 0.43879 0.0
O63 O 0.65108 0.05399 0.43733 0.0
O64 O 0.52449 0.95384 0.47841 0.0
O65 O 0.47465 0.96405 0.45314 0.0
O66 O 0.52701 0.07743 0.43516 0.0
O67 O 0.46899 0.04613 0.46738 0.0
O68 O 0.58286 0.05728 0.50419 0.0
O69 O 0.49687 0.01634 0.50611 0.0
O70 O 0.62259 0.11538 0.46538 0.0
O71 O 0.67444 0.10418 0.48781 0.0
H72 H 0.56794 0.91641 0.51242 0.0
H73 H 0.55149 0.84505 0.51443 0.0
H74 H 0.71303 0.90927 0.48467 0.0
H75 H 0.72921 0.98037 0.48264 0.0
H76 H 0.5195 0.12627 0.49647 0.0
H77 H 0.52732 0.19371 0.50668 0.0
H78 H 0.48227 0.18263 0.42257 0.0
H79 H 0.47224 0.11385 0.41286 0.0
Sm80 Sm 0.64117 0.5732 0.83623 0.0
Sm81 Sm 0.56516 0.46426 0.83667 0.0
C82 C 0.70425 0.65892 0.82404 0.0
C83 C 0.6988 0.6942 0.82402 0.0
C84 C 0.64661 0.6817 0.82273 0.0
C85 C 0.64158 0.71485 0.82044 0.0
C86 C 0.68865 0.76122 0.81962 0.0
C87 C 0.74088 0.77373 0.8217 0.0
C88 C 0.74585 0.74047 0.82379 0.0
C89 C 0.61083 0.54054 0.88611 0.0
C90 C 0.50362 0.51284 0.83926 0.0
C91 C 0.5146 0.38092 0.85025 0.0
C92 C 0.5241 0.34818 0.84359 0.0
C93 C 0.53239 0.33092 0.86461 0.0
C94 C 0.54597 0.30297 0.8587 0.0
C95 C 0.55121 0.29149 0.8316 0.0
C96 C 0.54196 0.30818 0.81056 0.0
C97 C 0.52882 0.33638 0.81648 0.0
C98 C 0.58407 0.48719 0.78373 0.0
C99 C 0.70342 0.52498 0.83479 0.0
O100 O 0.67206 0.62295 0.80617 0.0
O101 O 0.70782 0.64838 0.8478 0.0
O102 O 0.62355 0.52625 0.8664 0.0
O103 O 0.61692 0.57591 0.88053 0.0
O104 O 0.55248 0.55223 0.83381 0.0
O105 O 0.5001 0.47681 0.84344 0.0
O106 O 0.55273 0.41824 0.86593 0.0
O107 O 0.4965 0.38884 0.83034 0.0
O108 O 0.60066 0.51314 0.80553 0.0
O109 O 0.55552 0.44536 0.78954 0.0
O110 O 0.65334 0.48409 0.8365 0.0
O111 O 0.7082 0.56236 0.83327 0.0
H112 H 0.60969 0.64616 0.82299 0.0
H113 H 0.6008 0.70416 0.81926 0.0
H114 H 0.77793 0.80906 0.82089 0.0
H115 H 0.78646 0.75077 0.82467 0.0
H116 H 0.5293 0.33972 0.88566 0.0
H117 H 0.55235 0.29032 0.87535 0.0
H118 H 0.54638 0.30051 0.78951 0.0
H119 H 0.52347 0.34964 0.7998 0.0
H120 H 0.57802 0.02221 0.14791 0.0
H121 H 0.65621 0.11183 0.22244 0.0
H122 H 0.51061 0.9711 0.22494 0.0
H123 H 0.66923 0.1635 0.19557 0.0
C124 C 0.68597 0.15718 0.17821 0.0
C125 C 0.57923 0.02786 0.1699 0.0
C126 C 0.53914 0.99086 0.18492 0.0
C127 C 0.62005 0.07252 0.18329 0.0
C128 C 0.62249 0.0788 0.21195 0.0
C129 C 0.5834 0.04254 0.22725 0.0
C130 C 0.54137 0.99917 0.21341 0.0
N131 N 0.65931 0.11053 0.16807 0.0
H132 H 0.55649 0.49697 0.5097 0.0
H133 H 0.59558 0.57349 0.58811 0.0
H134 H 0.57278 0.44991 0.58101 0.0
H135 H 0.55162 0.5938 0.56854 0.0
C136 C 0.56719 0.5995 0.5482 0.0
C137 C 0.56421 0.50091 0.53147 0.0
C138 C 0.56316 0.46861 0.54336 0.0
C139 C 0.57491 0.53835 0.54745 0.0
C140 C 0.58626 0.54428 0.57562 0.0
C141 C 0.58556 0.5125 0.58789 0.0
C142 C 0.57386 0.47475 0.57161 0.0
N143 N 0.57529 0.57002 0.53455 0.0
H144 H 1.058 0.51228 0.82105 0.0
H145 H 0.14067 0.53859 0.89818 0.0
H146 H 1.00223 0.53337 0.89651 0.0
H147 H 0.2182 0.56731 0.87037 0.0
C148 C 0.19785 0.53696 0.85579 0.0
C149 C 1.06186 0.51912 0.84301 0.0
C150 C 1.02331 0.52284 0.85695 0.0
C151 C 0.10531 0.52405 0.85782 0.0
C152 C 0.10916 0.53409 0.88635 0.0
C153 C 0.07283 0.53811 0.90008 0.0
C154 C 1.03025 0.5311 0.88538 0.0
N155 N 0.14246 0.51693 0.84502 0.0
H156 H 0.10896 0.57828 0.4675 0.0
H157 H 1.02232 0.48688 0.39464 0.0
H158 H 0.15799 0.63 0.3892 0.0
H159 H 0.94734 0.45871 0.42345 0.0
C160 C 0.96501 0.45413 0.43977 0.0
C161 C 0.10341 0.5728 0.44551 0.0
C162 C 0.1397 0.60998 0.42979 0.0
C163 C 1.05897 0.52866 0.43287 0.0
C164 C 1.0534 0.52143 0.40428 0.0
C165 C 0.08878 0.55758 0.38814 0.0
C166 C 0.13083 0.60175 0.40128 0.0
N167 N 1.02126 0.49131 0.44877 0.0
H168 H 0.62778 0.0608 0.79202 0.0
H169 H 0.60563 0.98502 0.71568 0.0
H170 H 0.5969 0.09183 0.71736 0.0
H171 H 0.57856 0.93061 0.74372 0.0
C172 C 0.60864 0.95077 0.76073 0.0
C173 C 0.6206 0.05486 0.7701 0.0
C174 C 0.61218 0.08066 0.75664 0.0
C175 C 0.6177 0.01995 0.75568 0.0
C176 C 0.60703 0.0112 0.72728 0.0
C177 C 0.59967 0.03718 0.71346 0.0
C178 C 0.60274 0.07197 0.72817 0.0
N179 N 0.62695 0.99507 0.77018 0.0
H180 H 0.54216 0.51478 0.15457 0.0
H181 H 0.51855 0.43071 0.0828 0.0
H182 H 0.63666 0.57763 0.08461 0.0
H183 H 0.46235 0.40657 0.1742 0.0
C184 C 0.49774 0.42545 0.16164 0.0
C185 C 0.55541 0.51251 0.13456 0.0
C186 C 0.59238 0.55223 0.12122 0.0
C187 C 0.5302 0.46876 0.12103 0.0
C188 C 0.54105 0.46455 0.09381 0.0
C189 C 0.57913 0.50392 0.08058 0.0
C190 C 0.60718 0.54742 0.095 0.0
N191 N 0.49031 0.4287 0.13403 0.0
H192 H 0.46862 0.65437 0.09945 0.0
H193 H 0.44074 0.64498 0.18537 0.0
H194 H 0.52652 0.65907 0.19315 0.0
H195 H 0.48908 0.5881 0.08882 0.0
H196 H 0.54423 0.6154 0.06555 0.0
H197 H 0.50202 0.63049 0.06857 0.0
H198 H 0.58817 0.71578 0.08041 0.0
H199 H 0.63106 0.70051 0.07745 0.0
H200 H 0.63518 0.73226 0.1082 0.0
H201 H 0.58533 0.63997 0.18931 0.0
H202 H 0.60697 0.59048 0.17441 0.0
H203 H 0.59807 0.61005 0.09058 0.0
C204 C 0.4831 0.65868 0.12006 0.0
C205 C 0.44862 0.64861 0.14176 0.0
C206 C 0.46703 0.65281 0.1685 0.0
C207 C 0.51599 0.66107 0.17307 0.0
C208 C 0.54624 0.66538 0.15073 0.0
C209 C 0.53138 0.66582 0.12467 0.0
C210 C 0.5614 0.65921 0.1034 0.0
C211 C 0.52178 0.62098 0.08034 0.0
C212 C 0.60665 0.70466 0.09169 0.0
C213 C 0.58656 0.64621 0.12097 0.0
C214 C 0.58097 0.65326 0.14839 0.0
C215 C 0.59138 0.63557 0.16799 0.0
C216 C 0.60311 0.60694 0.15932 0.0
C217 C 0.60312 0.59542 0.13122 0.0
C218 C 0.59935 0.61855 0.11221 0.0
H219 H 0.68394 0.19656 0.4483 0.0
H220 H 0.76914 0.18008 0.50552 0.0
H221 H 0.85283 0.26109 0.50389 0.0
H222 H 0.79773 0.2672 0.40686 0.0
H223 H 0.78141 0.30259 0.40027 0.0
H224 H 0.72742 0.24419 0.40724 0.0
H225 H 0.69751 0.27218 0.44685 0.0
H226 H 0.7514 0.33072 0.43998 0.0
H227 H 0.74735 0.31443 0.47354 0.0
H228 H 0.92959 0.345 0.4948 0.0
H229 H 0.99113 0.42216 0.47837 0.0
H230 H 0.85642 0.3832 0.4266 0.0
C231 C 0.71992 0.21007 0.46078 0.0
C232 C 0.71946 0.18163 0.47721 0.0
C233 C 0.76804 0.20087 0.49283 0.0
C234 C 0.81595 0.24704 0.49205 0.0
C235 C 0.81517 0.27396 0.47547 0.0
C236 C 0.76831 0.25607 0.4601 0.0
C237 C 0.77872 0.29165 0.44317 0.0
C238 C 0.77086 0.27543 0.41257 0.0
C239 C 0.74154 0.30291 0.45138 0.0
C240 C 0.83877 0.33222 0.45123 0.0
C241 C 0.85911 0.32155 0.47002 0.0
C242 C 0.91387 0.35365 0.48016 0.0
C243 C 0.94864 0.3975 0.47074 0.0
C244 C 0.92869 0.40891 0.45127 0.0
C245 C 0.87291 0.37564 0.4416 0.0
H246 H 0.61753 0.75336 0.78418 0.0
H247 H 0.74812 0.84826 0.84607 0.0
H248 H 0.74082 0.90688 0.83867 0.0
H249 H 0.65849 0.83583 0.73886 0.0
H250 H 0.58923 0.80981 0.72848 0.0
H251 H 0.60344 0.77496 0.73941 0.0
H252 H 0.53048 0.74581 0.77588 0.0
H253 H 0.51593 0.78051 0.76501 0.0
H254 H 0.53549 0.78674 0.80016 0.0
H255 H 0.71956 0.95557 0.82399 0.0
H256 H 0.68775 0.99073 0.80244 0.0
H257 H 0.57195 0.86412 0.74987 0.0
C258 C 0.64411 0.78625 0.79645 0.0
C259 C 0.68328 0.79614 0.8158 0.0
C260 C 0.71806 0.83999 0.83101 0.0
C261 C 0.71402 0.87342 0.82705 0.0
C262 C 0.67511 0.86258 0.80772 0.0
C263 C 0.64084 0.82005 0.79264 0.0
C264 C 0.60361 0.81742 0.77258 0.0
C265 C 0.61436 0.80902 0.74309 0.0
C266 C 0.54278 0.78043 0.77879 0.0
C267 C 0.62239 0.86517 0.77862 0.0
C268 C 0.66344 0.89065 0.79906 0.0
C269 C 0.68738 0.93587 0.808 0.0
C270 C 0.66901 0.95556 0.79566 0.0
C271 C 0.62732 0.93007 0.77451 0.0
C272 C 0.60383 0.88433 0.76602 0.0
H273 H 0.80023 0.51304 0.1526 0.0
H274 H 0.83256 0.57203 0.23681 0.0
H275 H 0.73592 0.53986 0.23907 0.0
H276 H 0.71428 0.53677 0.13381 0.0
H277 H 0.66928 0.48441 0.11133 0.0
H278 H 0.74023 0.51074 0.11695 0.0
H279 H 0.70957 0.43478 0.13207 0.0
H280 H 0.63853 0.40831 0.12655 0.0
H281 H 0.66289 0.40914 0.15928 0.0
H282 H 0.63489 0.5016 0.23139 0.0
H283 H 0.54028 0.46333 0.21371 0.0
H284 H 0.57764 0.43157 0.13484 0.0
C285 C 0.78733 0.51968 0.17149 0.0
C286 C 0.82403 0.54518 0.19451 0.0
C287 C 0.80498 0.55218 0.21898 0.0
C288 C 0.75027 0.53421 0.22043 0.0
C289 C 0.7153 0.50937 0.19724 0.0
C290 C 0.73328 0.5023 0.17322 0.0
C291 C 0.68828 0.47528 0.15097 0.0
C292 C 0.70398 0.50349 0.12685 0.0
C293 C 0.67398 0.42914 0.14168 0.0
C294 C 0.64217 0.46847 0.1661 0.0
C295 C 0.65814 0.48807 0.1928 0.0
C296 C 0.62202 0.48621 0.2105 0.0
C297 C 0.56853 0.46438 0.2004 0.0
C298 C 0.55245 0.44548 0.17289 0.0
C299 C 0.5894 0.44679 0.15581 0.0
H300 H 0.37949 0.88404 0.43414 0.0
H301 H 0.46715 0.87476 0.49453 0.0
H302 H 0.38843 0.79208 0.49441 0.0
H303 H 0.24268 0.80205 0.4596 0.0
H304 H 0.20901 0.77763 0.42616 0.0
H305 H 0.27151 0.83666 0.43155 0.0
H306 H 0.31676 0.82097 0.39367 0.0
H307 H 0.25432 0.762 0.38807 0.0
H308 H 0.31854 0.7754 0.39571 0.0
H309 H 0.29958 0.70888 0.48731 0.0
H310 H 0.21174 0.6323 0.47135 0.0
H311 H 0.18098 0.69491 0.41581 0.0
C312 C 0.38209 0.8647 0.44743 0.0
C313 C 0.42997 0.8864 0.46439 0.0
C314 C 0.43139 0.85936 0.48127 0.0
C315 C 0.38658 0.81218 0.48146 0.0
C316 C 0.34012 0.7919 0.46459 0.0
C317 C 0.33767 0.81725 0.44775 0.0
C318 C 0.28361 0.78665 0.43085 0.0
C319 C 0.2497 0.80165 0.43744 0.0
C320 C 0.29394 0.78624 0.40027 0.0
C321 C 0.25632 0.74025 0.44069 0.0
C322 C 0.28937 0.74405 0.46032 0.0
C323 C 0.27331 0.70563 0.47202 0.0
C324 C 0.22294 0.66215 0.46298 0.0
C325 C 0.18895 0.65703 0.44225 0.0
C326 C 0.20587 0.69715 0.4315 0.0
H327 H 0.50802 0.22063 0.79097 0.0
H328 H 0.63159 0.29849 0.85762 0.0
H329 H 0.66029 0.25272 0.84625 0.0
H330 H 0.4701 0.11118 0.79854 0.0
H331 H 0.4607 0.09414 0.7624 0.0
H332 H 0.44958 0.1326 0.77618 0.0
H333 H 0.51994 0.19201 0.74375 0.0
H334 H 0.53141 0.15379 0.72994 0.0
H335 H 0.58865 0.21136 0.74404 0.0
H336 H 0.67706 0.19934 0.82655 0.0
H337 H 0.67921 0.14203 0.80082 0.0
H338 H 0.5432 0.09843 0.74781 0.0
C339 C 0.54123 0.22816 0.80314 0.0
C340 C 0.56748 0.26311 0.82524 0.0
C341 C 0.61037 0.2715 0.84083 0.0
C342 C 0.62718 0.24586 0.83442 0.0
C343 C 0.60055 0.2118 0.81243 0.0
C344 C 0.55833 0.20281 0.79711 0.0
C345 C 0.5364 0.16439 0.77451 0.0
C346 C 0.47559 0.12313 0.77814 0.0
C347 C 0.54461 0.18142 0.7464 0.0
C348 C 0.57309 0.15333 0.77937 0.0
C349 C 0.60987 0.18101 0.8013 0.0
C350 C 0.6482 0.17731 0.80943 0.0
C351 C 0.64891 0.14444 0.79477 0.0
C352 C 0.61146 0.11559 0.77221 0.0
C353 C 0.57303 0.12028 0.76463 0.0
H354 H 0.58688 0.81582 0.54095 0.0
H355 H 0.65436 0.83029 0.46137 0.0
H356 H 0.64283 0.76077 0.46433 0.0
H357 H 0.65089 0.77972 0.571 0.0
H358 H 0.5932 0.73954 0.59076 0.0
H359 H 0.60412 0.78901 0.58178 0.0
H360 H 0.50561 0.73626 0.55935 0.0
H361 H 0.4943 0.68658 0.56835 0.0
H362 H 0.48489 0.69071 0.53337 0.0
H363 H 0.62647 0.69087 0.4766 0.0
H364 H 0.60727 0.62633 0.49752 0.0
H365 H 0.55079 0.65769 0.5691 0.0
C366 C 0.59844 0.80395 0.52397 0.0
C367 C 0.62148 0.82846 0.50091 0.0
C368 C 0.63707 0.81229 0.47933 0.0
C369 C 0.63041 0.77271 0.48076 0.0
C370 C 0.60811 0.74965 0.50391 0.0
C371 C 0.5923 0.76464 0.52511 0.0
C372 C 0.57118 0.73456 0.54811 0.0
C373 C 0.607 0.76237 0.57446 0.0
C374 C 0.51038 0.71061 0.55254 0.0
C375 C 0.57799 0.70054 0.53663 0.0
C376 C 0.59906 0.70966 0.51104 0.0
C377 C 0.60972 0.68328 0.49657 0.0
C378 C 0.5987 0.6467 0.50862 0.0
C379 C 0.57743 0.63704 0.5349 0.0
C380 C 0.56686 0.66428 0.54893 0.0
H381 H 0.72708 0.47241 0.85757 0.0
H382 H 0.80288 0.58747 0.81044 0.0
H383 H 0.88613 0.5952 0.80749 0.0
H384 H 0.8546 0.52251 0.89691 0.0
H385 H 0.83846 0.46838 0.89852 0.0
H386 H 0.78381 0.47025 0.89564 0.0
H387 H 0.74351 0.41179 0.85273 0.0
H388 H 0.79835 0.41007 0.85536 0.0
H389 H 0.7864 0.42412 0.82436 0.0
H390 H 0.96609 0.58909 0.80877 0.0
H391 H 1.03123 0.57702 0.81938 0.0
H392 H 0.90987 0.47057 0.869 0.0
C393 C 0.76094 0.49925 0.84645 0.0
C394 C 0.75602 0.52903 0.83394 0.0
C395 C 0.80338 0.56378 0.82023 0.0
C396 C 0.85166 0.56838 0.81836 0.0
C397 C 0.85495 0.53869 0.83072 0.0
C398 C 0.81077 0.50518 0.84499 0.0
C399 C 0.82609 0.47942 0.8579 0.0
C400 C 0.8257 0.48549 0.8891 0.0
C401 C 0.7862 0.42831 0.84695 0.0
C402 C 0.88511 0.50303 0.84862 0.0
C403 C 0.90078 0.53678 0.83254 0.0
C404 C 0.95329 0.5626 0.82144 0.0
C405 C 0.99053 0.55501 0.82731 0.0
C406 C 0.97731 0.52194 0.84464 0.0
C407 C 0.92261 0.49563 0.85516 0.0
H408 H 0.24494 0.73705 0.17638 0.0
H409 H 0.3185 0.68996 0.12811 0.0
H410 H 0.40496 0.77014 0.12812 0.0
H411 H 0.31029 0.84231 0.14584 0.0
H412 H 0.32074 0.87509 0.17758 0.0
H413 H 0.26376 0.81416 0.17282 0.0
H414 H 0.29705 0.80359 0.21602 0.0
H415 H 0.35374 0.86449 0.22106 0.0
H416 H 0.36662 0.8251 0.21873 0.0
H417 H 0.48477 0.85711 0.13341 0.0
H418 H 0.55267 0.94072 0.14797 0.0
H419 H 0.42818 0.93079 0.19385 0.0
C420 C 0.27911 0.74356 0.16569 0.0
C421 C 0.27445 0.70685 0.15209 0.0
C422 C 0.3207 0.71718 0.13871 0.0
C423 C 0.37007 0.7628 0.13847 0.0
C424 C 0.37316 0.79816 0.1519 0.0
C425 C 0.32906 0.78895 0.16557 0.0
C426 C 0.34395 0.83288 0.17967 0.0
C427 C 0.30751 0.84161 0.16829 0.0
C428 C 0.34012 0.83142 0.21071 0.0
C429 C 0.40323 0.8682 0.17187 0.0
C430 C 0.41922 0.84765 0.15555 0.0
C431 C 0.47251 0.87346 0.14615 0.0
C432 C 0.51078 0.92109 0.15431 0.0
C433 C 0.49597 0.94257 0.17197 0.0
C434 C 0.44094 0.91556 0.1803 0.0
H435 H 0.57963 0.27202 0.50047 0.0
H436 H 0.43728 0.20672 0.44554 0.0
H437 H 0.44023 0.27211 0.45735 0.0
H438 H 0.53807 0.31312 0.55272 0.0
H439 H 0.60675 0.36602 0.562 0.0
H440 H 0.59623 0.31584 0.54762 0.0
H441 H 0.66258 0.36134 0.50958 0.0
H442 H 0.67334 0.4117 0.52386 0.0
H443 H 0.64987 0.3898 0.48872 0.0
H444 H 0.45589 0.34302 0.47675 0.0
H445 H 0.48201 0.41316 0.50301 0.0
H446 H 0.61262 0.43122 0.54603 0.0
C447 C 0.54896 0.2713 0.49091 0.0
C448 C 0.5084 0.2341 0.47191 0.0
C449 C 0.46948 0.23506 0.45973 0.0
C450 C 0.47058 0.27198 0.46643 0.0
C451 C 0.51077 0.30776 0.4854 0.0
C452 C 0.54922 0.3077 0.49748 0.0
C453 C 0.5867 0.34944 0.51807 0.0
C454 C 0.5816 0.33524 0.5468 0.0
C455 C 0.64667 0.37987 0.50954 0.0
C456 C 0.56282 0.37265 0.51595 0.0
C457 C 0.51935 0.34828 0.49682 0.0
C458 C 0.49013 0.36256 0.49164 0.0
C459 C 0.50545 0.40258 0.50656 0.0
C460 C 0.54942 0.42778 0.52655 0.0
C461 C 0.57858 0.41258 0.53104 0.0
H462 H 0.48974 0.58037 0.85071 0.0
H463 H 0.39325 0.43429 0.82949 0.0
H464 H 0.30833 0.42412 0.82882 0.0
H465 H 0.38894 0.5686 0.89671 0.0
H466 H 0.40229 0.61922 0.88785 0.0
H467 H 0.45559 0.61532 0.8854 0.0
H468 H 0.46601 0.63087 0.83505 0.0
H469 H 0.41251 0.63456 0.83731 0.0
H470 H 0.4066 0.59464 0.81167 0.0
H471 H 0.22792 0.43051 0.82886 0.0
H472 H 0.16859 0.45134 0.83504 0.0
H473 H 0.3134 0.5916 0.86048 0.0
C474 C 0.45089 0.54605 0.84583 0.0
C475 C 0.45049 0.50816 0.83989 0.0
C476 C 0.39701 0.46434 0.83412 0.0
C477 C 0.34761 0.45818 0.8336 0.0
C478 C 0.34956 0.49586 0.83942 0.0
C479 C 0.40028 0.53903 0.84593 0.0
C480 C 0.39092 0.57365 0.85287 0.0
C481 C 0.41062 0.59551 0.88246 0.0
C482 C 0.42081 0.61064 0.83305 0.0
C483 C 0.32769 0.5438 0.84908 0.0
C484 C 0.30442 0.49894 0.84088 0.0
C485 C 0.24673 0.46573 0.83547 0.0
C486 C 0.21261 0.47799 0.83886 0.0
C487 C 0.23452 0.52346 0.84813 0.0
C488 C 0.29374 0.55639 0.85319 0.0
H489 H 0.9327 0.4272 0.17501 0.0
H490 H 0.99165 0.39569 0.10471 0.0
H491 H 0.91291 0.31297 0.10584 0.0
H492 H 0.88798 0.33218 0.20994 0.0
H493 H 0.82844 0.32263 0.22314 0.0
H494 H 0.88819 0.37929 0.21601 0.0
H495 H 0.82802 0.38297 0.18441 0.0
H496 H 0.76806 0.32633 0.19148 0.0
H497 H 0.78656 0.33833 0.15679 0.0
H498 H 0.82724 0.23165 0.11583 0.0
H499 H 0.74367 0.16145 0.13347 0.0
H500 H 0.74144 0.24655 0.19691 0.0
C501 C 0.92887 0.40304 0.15963 0.0
C502 C 0.96867 0.41841 0.13966 0.0
C503 C 0.96194 0.38518 0.12018 0.0
C504 C 0.9172 0.33791 0.12067 0.0
C505 C 0.87909 0.32394 0.14078 0.0
C506 C 0.88449 0.35568 0.15985 0.0
C507 C 0.83869 0.33189 0.17971 0.0
C508 C 0.86224 0.34211 0.20892 0.0
C509 C 0.80324 0.34571 0.17799 0.0
C510 C 0.80669 0.28185 0.16893 0.0
C511 C 0.83048 0.27778 0.14645 0.0
C512 C 0.80827 0.23462 0.13336 0.0
C513 C 0.76073 0.19483 0.1435 0.0
C514 C 0.73577 0.19838 0.1665 0.0
C515 C 0.75935 0.24263 0.1792 0.0
H516 H 0.09917 0.51956 0.05893 0.0
H517 H 1.04845 0.59998 0.07593 0.0
H518 H 1.04996 0.60875 0.02694 0.0
H519 H 0.18762 0.57897 0.00326 0.0
H520 H 0.16561 0.52744 0.98317 0.0
H521 H 0.16445 0.52982 0.01977 0.0
H522 H 1.06094 0.45767 0.01629 0.0
H523 H 1.06193 0.45485 0.97971 0.0
H524 H 1.0134 0.45729 -0.00287 0.0
H525 H 1.05992 0.61124 0.97703 0.0
H526 H 1.06305 0.59761 0.9277 0.0
H527 H 0.09703 0.50785 0.9411 0.0
C528 C 0.08861 0.53908 0.05218 0.0
C529 C 0.07402 0.55944 0.07103 0.0
C530 C 1.05964 0.58419 0.06168 0.0
C531 C 1.06075 0.58957 0.03397 0.0
C532 C 0.07541 0.56927 0.01582 0.0
C533 C 0.08802 0.54373 0.02436 0.0
C534 C 0.09823 0.52273 0.00016 0.0
C535 C 0.15751 0.54083 0.00169 0.0
C536 C 1.05611 0.47001 -0.00179 0.0
C537 C 0.08932 0.54049 0.97676 0.0
C538 C 0.07732 0.56799 0.98646 0.0
C539 C 0.06834 0.58914 0.96914 0.0
C540 C 0.06987 0.58086 0.94105 0.0
C541 C 0.07882 0.55063 0.93025 0.0
C542 C 0.08998 0.53105 0.94854 0.0
H543 H 0.56273 0.97453 0.37809 0.0
H544 H 0.64252 0.11538 0.40803 0.0
H545 H 0.64078 0.132 0.36106 0.0
H546 H 0.64007 1.00223 0.31864 0.0
H547 H 0.58412 0.95208 0.29739 0.0
H548 H 0.58658 0.95033 0.33354 0.0
H549 H 0.48913 0.92494 0.33638 0.0
H550 H 0.48645 0.92671 0.30021 0.0
H551 H 0.47603 0.95946 0.32346 0.0
H552 H 0.63016 0.13273 0.31074 0.0
H553 H 0.61921 0.12009 0.26066 0.0
H554 H 0.55646 0.98095 0.26335 0.0
C555 C 0.57899 0.00859 0.37464 0.0
C556 C 0.60189 0.04361 0.39639 0.0
C557 C 0.62429 0.08817 0.39141 0.0
C558 C 0.62336 0.09781 0.3649 0.0
C559 C 0.6008 0.06261 0.34368 0.0
C560 C 0.57962 0.01904 0.34822 0.0
C561 C 0.56189 0.98844 0.32169 0.0
C562 C 0.59517 0.97235 0.31758 0.0
C563 C 0.49968 0.94747 0.32037 0.0
C564 C 0.57644 0.02158 0.30153 0.0
C565 C 0.59799 0.06392 0.31462 0.0
C566 C 0.61381 0.09982 0.30024 0.0
C567 C 0.60789 0.09238 0.27171 0.0
C568 C 0.58734 0.04959 0.2577 0.0
C569 C 0.57141 0.01387 0.2731 0.0
H570 H 0.52807 0.43203 0.73699 0.0
H571 H 0.6656 0.57245 0.76759 0.0
H572 H 0.68155 0.59482 0.72071 0.0
H573 H 0.58929 0.4292 0.67527 0.0
H574 H 0.52534 0.39383 0.65519 0.0
H575 H 0.52502 0.38942 0.69115 0.0
H576 H 0.45848 0.40617 0.69736 0.0
H577 H 0.45851 0.41055 0.66142 0.0
H578 H 0.47723 0.45737 0.68567 0.0
H579 H 0.68128 0.60131 0.67021 0.0
H580 H 0.66571 0.59163 0.62028 0.0
H581 H 0.52849 0.44641 0.62311 0.0
C582 C 0.5616 0.46749 0.7338 0.0
C583 C 0.59501 0.50091 0.7559 0.0
C584 C 0.63857 0.54682 0.75099 0.0
C585 C 0.64823 0.55963 0.72441 0.0
C586 C 0.61403 0.5259 0.70304 0.0
C587 C 0.57169 0.48073 0.70746 0.0
C588 C 0.54068 0.45105 0.6811 0.0
C589 C 0.54539 0.41367 0.67535 0.0
C590 C 0.48015 0.43007 0.68142 0.0
C591 C 0.57207 0.48656 0.6611 0.0
C592 C 0.61424 0.52952 0.67411 0.0
C593 C 0.64839 0.56782 0.65982 0.0
C594 C 0.63906 0.56203 0.63151 0.0
C595 C 0.59594 0.51827 0.61779 0.0
C596 C 0.56226 0.48016 0.63292 0.0
H597 H 0.6228 0.09358 0.55945 0.0
H598 H 0.46806 0.95507 0.54136 0.0
H599 H 0.46976 0.93893 0.58834 0.0
H600 H 0.68486 0.06874 0.60666 0.0
H601 H 0.71454 0.12009 0.62938 0.0
H602 H 0.70438 0.11932 0.59356 0.0
H603 H 0.64728 0.14462 0.6048 0.0
H604 H 0.65723 0.14546 0.64061 0.0
H605 H 0.58858 0.11124 0.62554 0.0
H606 H 0.48731 0.93815 0.63726 0.0
H607 H 0.51474 0.95503 0.6863 0.0
H608 H 0.65375 0.09596 0.67401 0.0
C609 C 0.58984 0.05973 0.56539 0.0
C610 C 0.54553 0.02533 0.54693 0.0
C611 C 0.50232 0.98174 0.55537 0.0
C612 C 0.5031 0.97223 0.5819 0.0
C613 C 0.54696 1.00698 0.59985 0.0
C614 C 0.58923 0.05005 0.5921 0.0
C615 C 0.62885 0.0824 0.61605 0.0
C616 C 0.68658 0.09858 0.61111 0.0
C617 C 0.63055 0.12334 0.6221 0.0
C618 C 0.60203 0.05089 0.63846 0.0
C619 C 0.55544 1.0073 0.62853 0.0
C620 C 0.5237 0.97214 0.64529 0.0
C621 C 0.53961 0.98194 0.67303 0.0
C622 C 0.58618 0.02669 0.68377 0.0
C623 C 0.61788 0.06149 0.66622 0.0
H624 H 0.58487 0.56831 0.93182 0.0
H625 H 0.62374 0.48237 0.90259 0.0
H626 H 0.61494 0.45982 0.94875 0.0
H627 H 0.66333 0.61118 0.99431 0.0
H628 H 0.6158 0.61257 0.01382 0.0
H629 H 0.62036 0.61882 0.97799 0.0
H630 H 0.51563 0.55022 0.9704 0.0
H631 H 0.51084 0.54402 0.00627 0.0
H632 H 0.487 0.49589 0.98177 0.0
H633 H 0.60482 0.44855 -0.0013 0.0
H634 H 0.59714 0.45206 0.04891 0.0
H635 H 0.56864 0.5475 0.04515 0.0
C636 C 0.59079 0.5443 0.93511 0.0
C637 C 0.6035 0.52609 0.91356 0.0
C638 C 0.61211 0.49549 0.91868 0.0
C639 C 0.60767 0.48277 0.94487 0.0
C640 C 0.59513 0.50134 0.96575 0.0
C641 C 0.58702 0.53159 0.9612 0.0
C642 C 0.57686 0.5485 0.98738 0.0
C643 C 0.62178 0.60087 0.99374 0.0
C644 C 0.51914 0.53375 0.98639 0.0
C645 C 0.58101 0.52337 0.00731 0.0
C646 C 0.59112 0.49603 0.99452 0.0
C647 C 0.59686 0.46983 0.00898 0.0
C648 C 0.59242 0.47193 0.03736 0.0
C649 C 0.58308 0.50045 0.05075 0.0
C650 C 0.57681 0.52602 0.03542 0.0
H651 H 0.19129 0.59747 0.23546 0.0
H652 H 1.02766 0.47273 0.20809 0.0
H653 H 0.99781 0.46554 0.25553 0.0
H654 H 0.19549 0.5544 0.29589 0.0
H655 H 0.23535 0.60934 0.31613 0.0
H656 H 0.24196 0.60655 0.27984 0.0
H657 H 0.21794 0.65877 0.27641 0.0
H658 H 0.21081 0.66139 0.31269 0.0
H659 H 0.15479 0.64205 0.28984 0.0
H660 H 0.98552 0.47476 0.30582 0.0
H661 H 0.99385 0.49218 0.35555 0.0
H662 H 0.17001 0.6034 0.3506 0.0
C663 C 0.14913 0.56892 0.23958 0.0
C664 C 0.11132 0.53602 0.21837 0.0
C665 C 1.05687 0.4984 0.22426 0.0
C666 C 1.03961 0.49417 0.25105 0.0
C667 C 0.07789 0.52722 0.27167 0.0
C668 C 0.13183 0.56329 0.26632 0.0
C669 C 0.16591 0.59183 0.29236 0.0
C670 C 0.21241 0.59042 0.29628 0.0
C671 C 0.18869 0.64145 0.29284 0.0
C672 C 0.12261 0.56649 0.31317 0.0
C673 C 0.07195 0.52994 0.3008 0.0
C674 C 1.02528 0.50274 0.31579 0.0
C675 C 1.0307 0.51272 0.34421 0.0
C676 C 0.08282 0.54885 0.35763 0.0
C677 C 0.1292 0.57596 0.34153 0.0
loop_
_geom_bond_atom_site_label_1
_geom_bond_atom_site_label_2
_geom_bond_distance
_geom_bond_site_symmetry_2
_ccdc_geom_bond_type
Sm0 C2 2.846 . S
Sm0 O20 2.543 . S
Sm0 O21 2.450 . S
Sm0 O22 2.681 . S
Sm0 O23 2.464 . S
Sm0 O24 2.396 . S
Sm0 O28 2.386 . S
Sm0 O31 2.408 . S
Sm1 C11 2.846 1_455 S
Sm1 O22 2.386 . S
Sm1 O25 2.408 . S
Sm1 O26 2.543 1_455 S
Sm1 O27 2.450 1_455 S
Sm1 O28 2.681 . S
Sm1 O29 2.464 . S
Sm1 O30 2.396 1_455 S
C2 Sm0 2.846 . S
C2 C3 1.506 . S
C2 O20 1.261 . S
C2 O21 1.242 . S
C3 C2 1.506 . S
C3 C4 1.358 . S
C3 C8 1.382 . S
C4 C3 1.358 . S
C4 C5 1.385 . S
C4 H32 0.930 . S
C5 C4 1.385 . S
C5 C6 1.395 . S
C5 H33 0.929 . S
C6 C5 1.395 . S
C6 C7 1.335 . S
C7 C6 1.335 . S
C7 C8 1.398 . S
C7 H34 0.930 . S
C8 C3 1.382 . S
C8 C7 1.398 . S
C8 H35 0.929 . S
C9 O22 1.271 . S
C9 O23 1.251 . S
C10 O24 1.252 . S
C10 O25 1.272 . S
C11 Sm1 2.846 1_655 S
C11 C12 1.506 . S
C11 O26 1.261 . S
C11 O27 1.242 . S
C12 C11 1.506 . S
C12 C13 1.358 . S
C12 C17 1.382 . S
C13 C12 1.358 . S
C13 C14 1.385 . S
C13 H36 0.930 . S
C14 C13 1.385 . S
C14 C15 1.395 . S
C14 H37 0.929 . S
C15 C14 1.395 . S
C15 C16 1.335 . S
C16 C15 1.335 . S
C16 C17 1.398 . S
C16 H38 0.930 . S
C17 C12 1.382 . S
C17 C16 1.398 . S
C17 H39 0.929 . S
C18 O28 1.271 . S
C18 O29 1.251 . S
C19 O30 1.252 . S
C19 O31 1.272 1_655 S
O20 Sm0 2.543 . S
O20 C2 1.261 . S
O21 Sm0 2.450 . S
O21 C2 1.242 . S
O22 Sm0 2.681 . S
O22 Sm1 2.386 . S
O22 C9 1.271 . S
O23 Sm0 2.464 . S
O23 C9 1.251 . S
O24 Sm0 2.396 . S
O24 C10 1.252 . S
O25 Sm1 2.408 . S
O25 C10 1.272 . S
O26 Sm1 2.543 1_655 S
O26 C11 1.261 . S
O27 Sm1 2.450 1_655 S
O27 C11 1.242 . S
O28 Sm0 2.386 . S
O28 Sm1 2.681 . S
O28 C18 1.271 . S
O29 Sm1 2.464 . S
O29 C18 1.251 . S
O30 Sm1 2.396 1_655 S
O30 C19 1.252 . S
O31 Sm0 2.408 . S
O31 C19 1.272 1_455 S
H32 C4 0.930 . S
H33 C5 0.929 . S
H34 C7 0.930 . S
H35 C8 0.929 . S
H36 C13 0.930 . S
H37 C14 0.929 . S
H38 C16 0.930 . S
H39 C17 0.929 . S
Sm40 C42 2.846 1_545 S
Sm40 O60 2.543 1_545 S
Sm40 O61 2.450 1_545 S
Sm40 O62 2.681 . S
Sm40 O63 2.464 . S
Sm40 O64 2.396 1_545 S
Sm40 O68 2.386 . S
Sm40 O71 2.408 . S
Sm41 C51 2.846 . S
Sm41 O62 2.386 . S
Sm41 O65 2.408 1_545 S
Sm41 O66 2.543 . S
Sm41 O67 2.450 . S
Sm41 O68 2.681 . S
Sm41 O69 2.464 . S
Sm41 O70 2.396 . S
C42 Sm40 2.846 1_565 S
C42 C43 1.506 . S
C42 O60 1.261 . S
C42 O61 1.242 . S
C43 C42 1.506 . S
C43 C44 1.358 . S
C43 C48 1.382 . S
C44 C43 1.358 . S
C44 C45 1.385 . S
C44 H72 0.930 . S
C45 C44 1.385 . S
C45 C46 1.395 . S
C45 H73 0.929 . S
C46 C45 1.395 . S
C46 C47 1.335 . S
C47 C46 1.335 . S
C47 C48 1.398 . S
C47 H74 0.930 . S
C48 C43 1.382 . S
C48 C47 1.398 . S
C48 H75 0.929 . S
C49 O62 1.271 . S
C49 O63 1.251 . S
C50 O64 1.252 . S
C50 O65 1.272 . S
C51 Sm41 2.846 . S
C51 C52 1.506 . S
C51 O66 1.261 . S
C51 O67 1.242 . S
C52 C51 1.506 . S
C52 C53 1.358 . S
C52 C57 1.382 . S
C53 C52 1.358 . S
C53 C54 1.385 . S
C53 H76 0.930 . S
C54 C53 1.385 . S
C54 C55 1.395 . S
C54 H77 0.929 . S
C55 C54 1.395 . S
C55 C56 1.335 . S
C56 C55 1.335 . S
C56 C57 1.398 . S
C56 H78 0.930 . S
C57 C52 1.382 . S
C57 C56 1.398 . S
C57 H79 0.929 . S
C58 O68 1.271 . S
C58 O69 1.251 . S
C59 O70 1.252 . S
C59 O71 1.272 . S
O60 Sm40 2.543 1_565 S
O60 C42 1.261 . S
O61 Sm40 2.450 1_565 S
O61 C42 1.242 . S
O62 Sm40 2.681 . S
O62 Sm41 2.386 . S
O62 C49 1.271 . S
O63 Sm40 2.464 . S
O63 C49 1.251 . S
O64 Sm40 2.396 1_565 S
O64 C50 1.252 . S
O65 Sm41 2.408 1_565 S
O65 C50 1.272 . S
O66 Sm41 2.543 . S
O66 C51 1.261 . S
O67 Sm41 2.450 . S
O67 C51 1.242 . S
O68 Sm40 2.386 . S
O68 Sm41 2.681 . S
O68 C58 1.271 . S
O69 Sm41 2.464 . S
O69 C58 1.251 . S
O70 Sm41 2.396 . S
O70 C59 1.252 . S
O71 Sm40 2.408 . S
O71 C59 1.272 . S
H72 C44 0.930 . S
H73 C45 0.929 . S
H74 C47 0.930 . S
H75 C48 0.929 . S
H76 C53 0.930 . S
H77 C54 0.929 . S
H78 C56 0.930 . S
H79 C57 0.929 . S
Sm80 C82 2.846 . S
Sm80 O100 2.543 . S
Sm80 O101 2.450 . S
Sm80 O102 2.681 . S
Sm80 O103 2.464 . S
Sm80 O104 2.396 . S
Sm80 O108 2.386 . S
Sm80 O111 2.408 . S
Sm81 C91 2.846 . S
Sm81 O102 2.386 . S
Sm81 O105 2.408 . S
Sm81 O106 2.543 . S
Sm81 O107 2.450 . S
Sm81 O108 2.681 . S
Sm81 O109 2.464 . S
Sm81 O110 2.396 . S
C82 Sm80 2.846 . S
C82 C83 1.506 . S
C82 O100 1.261 . S
C82 O101 1.242 . S
C83 C82 1.506 . S
C83 C84 1.358 . S
C83 C88 1.382 . S
C84 C83 1.358 . S
C84 C85 1.385 . S
C84 H112 0.930 . S
C85 C84 1.385 . S
C85 C86 1.395 . S
C85 H113 0.929 . S
C86 C85 1.395 . S
C86 C87 1.335 . S
C87 C86 1.335 . S
C87 C88 1.398 . S
C87 H114 0.930 . S
C88 C83 1.382 . S
C88 C87 1.398 . S
C88 H115 0.929 . S
C89 O102 1.271 . S
C89 O103 1.251 . S
C90 O104 1.252 . S
C90 O105 1.272 . S
C91 Sm81 2.846 . S
C91 C92 1.506 . S
C91 O106 1.261 . S
C91 O107 1.242 . S
C92 C91 1.506 . S
C92 C93 1.358 . S
C92 C97 1.382 . S
C93 C92 1.358 . S
C93 C94 1.385 . S
C93 H116 0.930 . S
C94 C93 1.385 . S
C94 C95 1.395 . S
C94 H117 0.929 . S
C95 C94 1.395 . S
C95 C96 1.335 . S
C96 C95 1.335 . S
C96 C97 1.398 . S
C96 H118 0.930 . S
C97 C92 1.382 . S
C97 C96 1.398 . S
C97 H119 0.929 . S
C98 O108 1.271 . S
C98 O109 1.251 . S
C99 O110 1.252 . S
C99 O111 1.272 . S
O100 Sm80 2.543 . S
O100 C82 1.261 . S
O101 Sm80 2.450 . S
O101 C82 1.242 . S
O102 Sm80 2.681 . S
O102 Sm81 2.386 . S
O102 C89 1.271 . S
O103 Sm80 2.464 . S
O103 C89 1.251 . S
O104 Sm80 2.396 . S
O104 C90 1.252 . S
O105 Sm81 2.408 . S
O105 C90 1.272 . S
O106 Sm81 2.543 . S
O106 C91 1.261 . S
O107 Sm81 2.450 . S
O107 C91 1.242 . S
O108 Sm80 2.386 . S
O108 Sm81 2.681 . S
O108 C98 1.271 . S
O109 Sm81 2.464 . S
O109 C98 1.251 . S
O110 Sm81 2.396 . S
O110 C99 1.252 . S
O111 Sm80 2.408 . S
O111 C99 1.272 . S
H112 C84 0.930 . S
H113 C85 0.929 . S
H114 C87 0.930 . S
H115 C88 0.929 . S
H116 C93 0.930 . S
H117 C94 0.929 . S
H118 C96 0.930 . S
H119 C97 0.929 . S
H120 C125 0.930 . S
H121 C128 0.930 . S
H122 C130 0.927 1_565 S
H123 C124 1.016 . S
C124 H123 1.016 . S
C124 N131 1.286 . S
C125 H120 0.930 . S
C125 C126 1.397 1_545 S
C125 C127 1.361 . S
C126 C125 1.397 1_565 S
C126 C130 1.388 1_565 S
C127 C125 1.361 . S
C127 C128 1.393 . S
C127 N131 1.413 . S
C128 H121 0.930 . S
C128 C127 1.393 . S
C128 C129 1.399 . S
C129 C128 1.399 . S
C129 C130 1.387 . S
C130 H122 0.927 1_545 S
C130 C126 1.388 1_545 S
C130 C129 1.387 . S
N131 C124 1.286 . S
N131 C127 1.413 . S
H132 C137 0.930 . S
H133 C140 0.930 . S
H134 C142 0.930 . S
H135 C136 1.016 . S
C136 H135 1.016 . S
C136 N143 1.286 . S
C137 H132 0.930 . S
C137 C138 1.397 . S
C137 C139 1.361 . S
C138 C137 1.397 . S
C138 C142 1.390 . S
C139 C137 1.361 . S
C139 C140 1.393 . S
C139 N143 1.413 . S
C140 H133 0.930 . S
C140 C139 1.393 . S
C140 C141 1.399 . S
C141 C140 1.399 . S
C141 C142 1.381 . S
C142 H134 0.930 . S
C142 C138 1.390 . S
C142 C141 1.381 . S
N143 C136 1.286 . S
N143 C139 1.413 . S
H144 C149 0.930 . S
H145 C152 0.930 . S
H146 C154 0.930 1_655 S
H147 C148 1.016 . S
C148 H147 1.016 . S
C148 N155 1.286 . S
C149 H144 0.930 . S
C149 C150 1.397 1_455 S
C149 C151 1.361 . S
C150 C149 1.397 1_655 S
C150 C154 1.390 1_655 S
C151 C149 1.361 . S
C151 C152 1.393 . S
C151 N155 1.413 . S
C152 H145 0.930 . S
C152 C151 1.393 . S
C152 C153 1.399 . S
C153 C152 1.399 . S
C153 C154 1.381 . S
C154 H146 0.930 1_455 S
C154 C150 1.390 1_455 S
C154 C153 1.381 . S
N155 C148 1.286 . S
N155 C151 1.413 . S
H156 C161 0.930 . S
H157 C164 0.930 . S
H158 C166 0.930 . S
H159 C160 1.016 . S
C160 H159 1.016 . S
C160 N167 1.286 . S
C161 H156 0.930 . S
C161 C162 1.397 . S
C161 C163 1.361 1_455 S
C162 C161 1.397 . S
C162 C166 1.390 . S
C163 C161 1.361 1_655 S
C163 C164 1.393 . S
C163 N167 1.413 . S
C164 H157 0.930 . S
C164 C163 1.393 . S
C164 C165 1.399 1_655 S
C165 C164 1.399 1_455 S
C165 C166 1.381 . S
C166 H158 0.930 . S
C166 C162 1.390 . S
C166 C165 1.381 . S
N167 C160 1.286 . S
N167 C163 1.413 . S
H168 C173 0.930 . S
H169 C176 0.905 1_565 S
H170 C178 0.930 . S
H171 C172 1.016 . S
C172 H171 1.016 . S
C172 N179 1.286 . S
C173 H168 0.930 . S
C173 C174 1.397 . S
C173 C175 1.361 . S
C174 C173 1.397 . S
C174 C178 1.390 . S
C175 C173 1.361 . S
C175 C176 1.394 . S
C175 N179 1.413 1_545 S
C176 H169 0.905 1_545 S
C176 C175 1.394 . S
C176 C177 1.424 . S
C177 C176 1.424 . S
C177 C178 1.381 . S
C178 H170 0.930 . S
C178 C174 1.390 . S
C178 C177 1.381 . S
N179 C172 1.286 . S
N179 C175 1.413 1_565 S
H180 C185 0.930 . S
H181 C188 0.930 . S
H182 C190 0.930 . S
H183 C184 1.016 . S
C184 H183 1.016 . S
C184 N191 1.286 . S
C185 H180 0.930 . S
C185 C186 1.397 . S
C185 C187 1.361 . S
C186 C185 1.397 . S
C186 C190 1.390 . S
C187 C185 1.361 . S
C187 C188 1.393 . S
C187 N191 1.413 . S
C188 H181 0.930 . S
C188 C187 1.393 . S
C188 C189 1.399 . S
C189 C188 1.399 . S
C189 C190 1.381 . S
C190 H182 0.930 . S
C190 C186 1.390 . S
C190 C189 1.381 . S
N191 C184 1.286 . S
N191 C187 1.413 . S
H192 C204 0.930 . S
H193 C206 0.930 . S
H194 C207 0.930 . S
H195 C211 0.959 . S
H196 C211 0.959 . S
H197 C211 0.961 . S
H198 C212 0.960 . S
H199 C212 0.961 . S
H200 C212 0.959 . S
H201 C215 0.929 . S
H202 C216 0.931 . S
H203 C218 0.930 . S
C204 H192 0.930 . S
C204 C205 1.399 . S
C204 C209 1.399 . S
C205 C204 1.399 . S
C205 C206 1.376 . S
C206 H193 0.930 . S
C206 C205 1.376 . S
C206 C207 1.388 . S
C207 H194 0.930 . S
C207 C206 1.388 . S
C207 C208 1.390 . S
C208 C207 1.390 . S
C208 C209 1.394 . S
C208 C214 1.465 . S
C209 C204 1.399 . S
C209 C208 1.394 . S
C209 C210 1.516 . S
C210 C209 1.516 . S
C210 C211 1.502 . S
C210 C212 1.561 . S
C210 C213 1.526 . S
C211 H195 0.959 . S
C211 H196 0.959 . S
C211 H197 0.961 . S
C211 C210 1.502 . S
C212 H198 0.960 . S
C212 H199 0.961 . S
C212 H200 0.959 . S
C212 C210 1.561 . S
C213 C210 1.526 . S
C213 C214 1.396 . S
C213 C218 1.390 . S
C214 C208 1.465 . S
C214 C213 1.396 . S
C214 C215 1.399 . S
C215 H201 0.929 . S
C215 C214 1.399 . S
C215 C216 1.385 . S
C216 H202 0.931 . S
C216 C215 1.385 . S
C216 C217 1.389 . S
C217 C216 1.389 . S
C217 C218 1.387 . S
C218 H203 0.930 . S
C218 C213 1.390 . S
C218 C217 1.387 . S
H219 C231 0.930 . S
H220 C233 0.930 . S
H221 C234 0.930 . S
H222 C238 0.959 . S
H223 C238 0.959 . S
H224 C238 0.961 . S
H225 C239 0.960 . S
H226 C239 0.961 . S
H227 C239 0.959 . S
H228 C242 0.929 . S
H229 C243 0.931 . S
H230 C245 0.930 . S
C231 H219 0.930 . S
C231 C232 1.399 . S
C231 C236 1.399 . S
C232 C231 1.399 . S
C232 C233 1.376 . S
C233 H220 0.930 . S
C233 C232 1.376 . S
C233 C234 1.388 . S
C234 H221 0.930 . S
C234 C233 1.388 . S
C234 C235 1.390 . S
C235 C234 1.390 . S
C235 C236 1.394 . S
C235 C241 1.465 . S
C236 C231 1.399 . S
C236 C235 1.394 . S
C236 C237 1.516 . S
C237 C236 1.516 . S
C237 C238 1.502 . S
C237 C239 1.561 . S
C237 C240 1.526 . S
C238 H222 0.959 . S
C238 H223 0.959 . S
C238 H224 0.961 . S
C238 C237 1.502 . S
C239 H225 0.960 . S
C239 H226 0.961 . S
C239 H227 0.959 . S
C239 C237 1.561 . S
C240 C237 1.526 . S
C240 C241 1.396 . S
C240 C245 1.390 . S
C241 C235 1.465 . S
C241 C240 1.396 . S
C241 C242 1.399 . S
C242 H228 0.929 . S
C242 C241 1.399 . S
C242 C243 1.385 . S
C243 H229 0.931 . S
C243 C242 1.385 . S
C243 C244 1.389 . S
C244 C243 1.389 . S
C244 C245 1.387 . S
C245 H230 0.930 . S
C245 C240 1.390 . S
C245 C244 1.387 . S
H246 C258 0.930 . S
H247 C260 0.930 . S
H248 C261 0.930 . S
H249 C265 0.959 . S
H250 C265 0.959 . S
H251 C265 0.961 . S
H252 C266 0.960 . S
H253 C266 0.961 . S
H254 C266 0.959 . S
H255 C269 0.929 . S
H256 C270 0.931 . S
H257 C272 0.930 . S
C258 H246 0.930 . S
C258 C259 1.399 . S
C258 C263 1.399 . S
C259 C258 1.399 . S
C259 C260 1.376 . S
C260 H247 0.930 . S
C260 C259 1.376 . S
C260 C261 1.388 . S
C261 H248 0.930 . S
C261 C260 1.388 . S
C261 C262 1.390 . S
C262 C261 1.390 . S
C262 C263 1.394 . S
C262 C268 1.465 . S
C263 C258 1.399 . S
C263 C262 1.394 . S
C263 C264 1.516 . S
C264 C263 1.516 . S
C264 C265 1.502 . S
C264 C266 1.561 . S
C264 C267 1.526 . S
C265 H249 0.959 . S
C265 H250 0.959 . S
C265 H251 0.961 . S
C265 C264 1.502 . S
C266 H252 0.960 . S
C266 H253 0.961 . S
C266 H254 0.959 . S
C266 C264 1.561 . S
C267 C264 1.526 . S
C267 C268 1.396 . S
C267 C272 1.390 . S
C268 C262 1.465 . S
C268 C267 1.396 . S
C268 C269 1.399 . S
C269 H255 0.929 . S
C269 C268 1.399 . S
C269 C270 1.385 . S
C270 H256 0.931 . S
C270 C269 1.385 . S
C270 C271 1.389 . S
C271 C270 1.389 . S
C271 C272 1.387 . S
C272 H257 0.930 . S
C272 C267 1.390 . S
C272 C271 1.387 . S
H273 C285 0.930 . S
H274 C287 0.930 . S
H275 C288 0.930 . S
H276 C292 0.959 . S
H277 C292 0.959 . S
H278 C292 0.961 . S
H279 C293 0.960 . S
H280 C293 0.961 . S
H281 C293 0.959 . S
H282 C296 0.929 . S
H283 C297 0.931 . S
H284 C299 0.930 . S
C285 H273 0.930 . S
C285 C286 1.399 . S
C285 C290 1.399 . S
C286 C285 1.399 . S
C286 C287 1.376 . S
C287 H274 0.930 . S
C287 C286 1.376 . S
C287 C288 1.388 . S
C288 H275 0.930 . S
C288 C287 1.388 . S
C288 C289 1.390 . S
C289 C288 1.390 . S
C289 C290 1.394 . S
C289 C295 1.465 . S
C290 C285 1.399 . S
C290 C289 1.394 . S
C290 C291 1.516 . S
C291 C290 1.516 . S
C291 C292 1.502 . S
C291 C293 1.561 . S
C291 C294 1.526 . S
C292 H276 0.959 . S
C292 H277 0.959 . S
C292 H278 0.961 . S
C292 C291 1.502 . S
C293 H279 0.960 . S
C293 H280 0.961 . S
C293 H281 0.959 . S
C293 C291 1.561 . S
C294 C291 1.526 . S
C294 C295 1.396 . S
C294 C299 1.390 . S
C295 C289 1.465 . S
C295 C294 1.396 . S
C295 C296 1.399 . S
C296 H282 0.929 . S
C296 C295 1.399 . S
C296 C297 1.385 . S
C297 H283 0.931 . S
C297 C296 1.385 . S
C297 C298 1.389 . S
C298 C297 1.389 . S
C298 C299 1.387 . S
C299 H284 0.930 . S
C299 C294 1.390 . S
C299 C298 1.387 . S
H300 C312 0.930 . S
H301 C314 0.930 . S
H302 C315 0.930 . S
H303 C319 0.959 . S
H304 C319 0.959 . S
H305 C319 0.961 . S
H306 C320 0.960 . S
H307 C320 0.961 . S
H308 C320 0.959 . S
H309 C323 0.929 . S
H310 C324 0.931 . S
H311 C326 0.930 . S
C312 H300 0.930 . S
C312 C313 1.399 . S
C312 C317 1.399 . S
C313 C312 1.399 . S
C313 C314 1.376 . S
C314 H301 0.930 . S
C314 C313 1.376 . S
C314 C315 1.388 . S
C315 H302 0.930 . S
C315 C314 1.388 . S
C315 C316 1.390 . S
C316 C315 1.390 . S
C316 C317 1.394 . S
C316 C322 1.465 . S
C317 C312 1.399 . S
C317 C316 1.394 . S
C317 C318 1.516 . S
C318 C317 1.516 . S
C318 C319 1.502 . S
C318 C320 1.561 . S
C318 C321 1.526 . S
C319 H303 0.959 . S
C319 H304 0.959 . S
C319 H305 0.961 . S
C319 C318 1.502 . S
C320 H306 0.960 . S
C320 H307 0.961 . S
C320 H308 0.959 . S
C320 C318 1.561 . S
C321 C318 1.526 . S
C321 C322 1.396 . S
C321 C326 1.390 . S
C322 C316 1.465 . S
C322 C321 1.396 . S
C322 C323 1.399 . S
C323 H309 0.929 . S
C323 C322 1.399 . S
C323 C324 1.385 . S
C324 H310 0.931 . S
C324 C323 1.385 . S
C324 C325 1.389 . S
C325 C324 1.389 . S
C325 C326 1.387 . S
C326 H311 0.930 . S
C326 C321 1.390 . S
C326 C325 1.387 . S
H327 C339 0.930 . S
H328 C341 0.930 . S
H329 C342 0.930 . S
H330 C346 0.959 . S
H331 C346 0.959 . S
H332 C346 0.961 . S
H333 C347 0.960 . S
H334 C347 0.961 . S
H335 C347 0.959 . S
H336 C350 0.929 . S
H337 C351 0.931 . S
H338 C353 0.930 . S
C339 H327 0.930 . S
C339 C340 1.399 . S
C339 C344 1.399 . S
C340 C339 1.399 . S
C340 C341 1.376 . S
C341 H328 0.930 . S
C341 C340 1.376 . S
C341 C342 1.388 . S
C342 H329 0.930 . S
C342 C341 1.388 . S
C342 C343 1.390 . S
C343 C342 1.390 . S
C343 C344 1.394 . S
C343 C349 1.465 . S
C344 C339 1.399 . S
C344 C343 1.394 . S
C344 C345 1.516 . S
C345 C344 1.516 . S
C345 C346 1.502 . S
C345 C347 1.561 . S
C345 C348 1.526 . S
C346 H330 0.959 . S
C346 H331 0.959 . S
C346 H332 0.961 . S
C346 C345 1.502 . S
C347 H333 0.960 . S
C347 H334 0.961 . S
C347 H335 0.959 . S
C347 C345 1.561 . S
C348 C345 1.526 . S
C348 C349 1.396 . S
C348 C353 1.390 . S
C349 C343 1.465 . S
C349 C348 1.396 . S
C349 C350 1.399 . S
C350 H336 0.929 . S
C350 C349 1.399 . S
C350 C351 1.385 . S
C351 H337 0.931 . S
C351 C350 1.385 . S
C351 C352 1.389 . S
C352 C351 1.389 . S
C352 C353 1.387 . S
C353 H338 0.930 . S
C353 C348 1.390 . S
C353 C352 1.387 . S
H354 C366 0.930 . S
H355 C368 0.930 . S
H356 C369 0.930 . S
H357 C373 0.959 . S
H358 C373 0.959 . S
H359 C373 0.961 . S
H360 C374 0.960 . S
H361 C374 0.961 . S
H362 C374 0.959 . S
H363 C377 0.929 . S
H364 C378 0.931 . S
H365 C380 0.930 . S
C366 H354 0.930 . S
C366 C367 1.399 . S
C366 C371 1.399 . S
C367 C366 1.399 . S
C367 C368 1.376 . S
C368 H355 0.930 . S
C368 C367 1.376 . S
C368 C369 1.388 . S
C369 H356 0.930 . S
C369 C368 1.388 . S
C369 C370 1.390 . S
C370 C369 1.390 . S
C370 C371 1.394 . S
C370 C376 1.465 . S
C371 C366 1.399 . S
C371 C370 1.394 . S
C371 C372 1.516 . S
C372 C371 1.516 . S
C372 C373 1.502 . S
C372 C374 1.561 . S
C372 C375 1.526 . S
C373 H357 0.959 . S
C373 H358 0.959 . S
C373 H359 0.961 . S
C373 C372 1.502 . S
C374 H360 0.960 . S
C374 H361 0.961 . S
C374 H362 0.959 . S
C374 C372 1.561 . S
C375 C372 1.526 . S
C375 C376 1.396 . S
C375 C380 1.390 . S
C376 C370 1.465 . S
C376 C375 1.396 . S
C376 C377 1.399 . S
C377 H363 0.929 . S
C377 C376 1.399 . S
C377 C378 1.385 . S
C378 H364 0.931 . S
C378 C377 1.385 . S
C378 C379 1.389 . S
C379 C378 1.389 . S
C379 C380 1.387 . S
C380 H365 0.930 . S
C380 C375 1.390 . S
C380 C379 1.387 . S
H381 C393 0.930 . S
H382 C395 0.930 . S
H383 C396 0.930 . S
H384 C400 0.959 . S
H385 C400 0.959 . S
H386 C400 0.961 . S
H387 C401 0.960 . S
H388 C401 0.961 . S
H389 C401 0.959 . S
H390 C404 0.929 . S
H391 C405 0.931 . S
H392 C407 0.930 . S
C393 H381 0.930 . S
C393 C394 1.399 . S
C393 C398 1.399 . S
C394 C393 1.399 . S
C394 C395 1.376 . S
C395 H382 0.930 . S
C395 C394 1.376 . S
C395 C396 1.388 . S
C396 H383 0.930 . S
C396 C395 1.388 . S
C396 C397 1.390 . S
C397 C396 1.390 . S
C397 C398 1.394 . S
C397 C403 1.465 . S
C398 C393 1.399 . S
C398 C397 1.394 . S
C398 C399 1.516 . S
C399 C398 1.516 . S
C399 C400 1.502 . S
C399 C401 1.561 . S
C399 C402 1.526 . S
C400 H384 0.959 . S
C400 H385 0.959 . S
C400 H386 0.961 . S
C400 C399 1.502 . S
C401 H387 0.960 . S
C401 H388 0.961 . S
C401 H389 0.959 . S
C401 C399 1.561 . S
C402 C399 1.526 . S
C402 C403 1.396 . S
C402 C407 1.390 . S
C403 C397 1.465 . S
C403 C402 1.396 . S
C403 C404 1.399 . S
C404 H390 0.929 . S
C404 C403 1.399 . S
C404 C405 1.385 . S
C405 H391 0.931 . S
C405 C404 1.385 . S
C405 C406 1.389 . S
C406 C405 1.389 . S
C406 C407 1.387 . S
C407 H392 0.930 . S
C407 C402 1.390 . S
C407 C406 1.387 . S
H408 C420 0.930 . S
H409 C422 0.930 . S
H410 C423 0.930 . S
H411 C427 0.959 . S
H412 C427 0.959 . S
H413 C427 0.961 . S
H414 C428 0.960 . S
H415 C428 0.961 . S
H416 C428 0.959 . S
H417 C431 0.929 . S
H418 C432 0.931 . S
H419 C434 0.930 . S
C420 H408 0.930 . S
C420 C421 1.399 . S
C420 C425 1.399 . S
C421 C420 1.399 . S
C421 C422 1.376 . S
C422 H409 0.930 . S
C422 C421 1.376 . S
C422 C423 1.388 . S
C423 H410 0.930 . S
C423 C422 1.388 . S
C423 C424 1.390 . S
C424 C423 1.390 . S
C424 C425 1.394 . S
C424 C430 1.465 . S
C425 C420 1.399 . S
C425 C424 1.394 . S
C425 C426 1.516 . S
C426 C425 1.516 . S
C426 C427 1.502 . S
C426 C428 1.561 . S
C426 C429 1.526 . S
C427 H411 0.959 . S
C427 H412 0.959 . S
C427 H413 0.961 . S
C427 C426 1.502 . S
C428 H414 0.960 . S
C428 H415 0.961 . S
C428 H416 0.959 . S
C428 C426 1.561 . S
C429 C426 1.526 . S
C429 C430 1.396 . S
C429 C434 1.390 . S
C430 C424 1.465 . S
C430 C429 1.396 . S
C430 C431 1.399 . S
C431 H417 0.929 . S
C431 C430 1.399 . S
C431 C432 1.385 . S
C432 H418 0.931 . S
C432 C431 1.385 . S
C432 C433 1.389 . S
C433 C432 1.389 . S
C433 C434 1.387 . S
C434 H419 0.930 . S
C434 C429 1.390 . S
C434 C433 1.387 . S
H435 C447 0.930 . S
H436 C449 0.930 . S
H437 C450 0.930 . S
H438 C454 0.959 . S
H439 C454 0.959 . S
H440 C454 0.961 . S
H441 C455 0.960 . S
H442 C455 0.961 . S
H443 C455 0.959 . S
H444 C458 0.929 . S
H445 C459 0.931 . S
H446 C461 0.930 . S
C447 H435 0.930 . S
C447 C448 1.399 . S
C447 C452 1.399 . S
C448 C447 1.399 . S
C448 C449 1.376 . S
C449 H436 0.930 . S
C449 C448 1.376 . S
C449 C450 1.388 . S
C450 H437 0.930 . S
C450 C449 1.388 . S
C450 C451 1.390 . S
C451 C450 1.390 . S
C451 C452 1.394 . S
C451 C457 1.465 . S
C452 C447 1.399 . S
C452 C451 1.394 . S
C452 C453 1.516 . S
C453 C452 1.516 . S
C453 C454 1.502 . S
C453 C455 1.561 . S
C453 C456 1.526 . S
C454 H438 0.959 . S
C454 H439 0.959 . S
C454 H440 0.961 . S
C454 C453 1.502 . S
C455 H441 0.960 . S
C455 H442 0.961 . S
C455 H443 0.959 . S
C455 C453 1.561 . S
C456 C453 1.526 . S
C456 C457 1.396 . S
C456 C461 1.390 . S
C457 C451 1.465 . S
C457 C456 1.396 . S
C457 C458 1.399 . S
C458 H444 0.929 . S
C458 C457 1.399 . S
C458 C459 1.385 . S
C459 H445 0.931 . S
C459 C458 1.385 . S
C459 C460 1.389 . S
C460 C459 1.389 . S
C460 C461 1.387 . S
C461 H446 0.930 . S
C461 C456 1.390 . S
C461 C460 1.387 . S
H462 C474 0.930 . S
H463 C476 0.930 . S
H464 C477 0.930 . S
H465 C481 0.959 . S
H466 C481 0.959 . S
H467 C481 0.961 . S
H468 C482 0.960 . S
H469 C482 0.961 . S
H470 C482 0.959 . S
H471 C485 0.929 . S
H472 C486 0.931 . S
H473 C488 0.930 . S
C474 H462 0.930 . S
C474 C475 1.399 . S
C474 C479 1.399 . S
C475 C474 1.399 . S
C475 C476 1.376 . S
C476 H463 0.930 . S
C476 C475 1.376 . S
C476 C477 1.388 . S
C477 H464 0.930 . S
C477 C476 1.388 . S
C477 C478 1.390 . S
C478 C477 1.390 . S
C478 C479 1.394 . S
C478 C484 1.465 . S
C479 C474 1.399 . S
C479 C478 1.394 . S
C479 C480 1.516 . S
C480 C479 1.516 . S
C480 C481 1.502 . S
C480 C482 1.561 . S
C480 C483 1.526 . S
C481 H465 0.959 . S
C481 H466 0.959 . S
C481 H467 0.961 . S
C481 C480 1.502 . S
C482 H468 0.960 . S
C482 H469 0.961 . S
C482 H470 0.959 . S
C482 C480 1.561 . S
C483 C480 1.526 . S
C483 C484 1.396 . S
C483 C488 1.390 . S
C484 C478 1.465 . S
C484 C483 1.396 . S
C484 C485 1.399 . S
C485 H471 0.929 . S
C485 C484 1.399 . S
C485 C486 1.385 . S
C486 H472 0.931 . S
C486 C485 1.385 . S
C486 C487 1.389 . S
C487 C486 1.389 . S
C487 C488 1.387 . S
C488 H473 0.930 . S
C488 C483 1.390 . S
C488 C487 1.387 . S
H489 C501 0.930 . S
H490 C503 0.930 . S
H491 C504 0.930 . S
H492 C508 0.959 . S
H493 C508 0.959 . S
H494 C508 0.961 . S
H495 C509 0.960 . S
H496 C509 0.961 . S
H497 C509 0.959 . S
H498 C512 0.929 . S
H499 C513 0.931 . S
H500 C515 0.930 . S
C501 H489 0.930 . S
C501 C502 1.399 . S
C501 C506 1.399 . S
C502 C501 1.399 . S
C502 C503 1.376 . S
C503 H490 0.930 . S
C503 C502 1.376 . S
C503 C504 1.388 . S
C504 H491 0.930 . S
C504 C503 1.388 . S
C504 C505 1.390 . S
C505 C504 1.390 . S
C505 C506 1.394 . S
C505 C511 1.465 . S
C506 C501 1.399 . S
C506 C505 1.394 . S
C506 C507 1.516 . S
C507 C506 1.516 . S
C507 C508 1.502 . S
C507 C509 1.561 . S
C507 C510 1.526 . S
C508 H492 0.959 . S
C508 H493 0.959 . S
C508 H494 0.961 . S
C508 C507 1.502 . S
C509 H495 0.960 . S
C509 H496 0.961 . S
C509 H497 0.959 . S
C509 C507 1.561 . S
C510 C507 1.526 . S
C510 C511 1.396 . S
C510 C515 1.390 . S
C511 C505 1.465 . S
C511 C510 1.396 . S
C511 C512 1.399 . S
C512 H498 0.929 . S
C512 C511 1.399 . S
C512 C513 1.385 . S
C513 H499 0.931 . S
C513 C512 1.385 . S
C513 C514 1.389 . S
C514 C513 1.389 . S
C514 C515 1.387 . S
C515 H500 0.930 . S
C515 C510 1.390 . S
C515 C514 1.387 . S
H516 C528 0.930 . S
H517 C530 0.930 . S
H518 C531 0.930 . S
H519 C535 0.959 . S
H520 C535 0.959 1_556 S
H521 C535 0.961 . S
H522 C536 0.960 . S
H523 C536 0.961 1_556 S
H524 C536 0.959 . S
H525 C539 0.929 . S
H526 C540 0.931 . S
H527 C542 0.930 . S
C528 H516 0.930 . S
C528 C529 1.399 . S
C528 C533 1.399 . S
C529 C528 1.399 . S
C529 C530 1.376 . S
C530 H517 0.930 . S
C530 C529 1.376 . S
C530 C531 1.388 . S
C531 H518 0.930 . S
C531 C530 1.388 . S
C531 C532 1.390 . S
C532 C531 1.390 . S
C532 C533 1.394 . S
C532 C538 1.465 1_554 S
C533 C528 1.399 . S
C533 C532 1.394 . S
C533 C534 1.516 . S
C534 C533 1.516 . S
C534 C535 1.502 . S
C534 C536 1.561 1_455 S
C534 C537 1.526 1_554 S
C535 H519 0.959 . S
C535 H520 0.959 1_554 S
C535 H521 0.961 . S
C535 C534 1.502 . S
C536 H522 0.960 . S
C536 H523 0.961 1_554 S
C536 H524 0.959 . S
C536 C534 1.561 1_655 S
C537 C534 1.526 1_556 S
C537 C538 1.396 . S
C537 C542 1.390 . S
C538 C532 1.465 1_556 S
C538 C537 1.396 . S
C538 C539 1.399 . S
C539 H525 0.929 . S
C539 C538 1.399 . S
C539 C540 1.385 . S
C540 H526 0.931 . S
C540 C539 1.385 . S
C540 C541 1.389 . S
C541 C540 1.389 . S
C541 C542 1.387 . S
C542 H527 0.930 . S
C542 C537 1.390 . S
C542 C541 1.387 . S
H543 C555 0.930 1_565 S
H544 C557 0.930 . S
H545 C558 0.930 . S
H546 C562 0.959 1_545 S
H547 C562 0.959 . S
H548 C562 0.961 . S
H549 C563 0.960 . S
H550 C563 0.961 . S
H551 C563 0.959 . S
H552 C566 0.929 . S
H553 C567 0.931 . S
H554 C569 0.930 1_565 S
C555 H543 0.930 1_545 S
C555 C556 1.399 . S
C555 C560 1.399 . S
C556 C555 1.399 . S
C556 C557 1.376 . S
C557 H544 0.930 . S
C557 C556 1.376 . S
C557 C558 1.388 . S
C558 H545 0.930 . S
C558 C557 1.388 . S
C558 C559 1.390 . S
C559 C558 1.390 . S
C559 C560 1.394 . S
C559 C565 1.465 . S
C560 C555 1.399 . S
C560 C559 1.394 . S
C560 C561 1.516 1_545 S
C561 C560 1.516 1_565 S
C561 C562 1.502 . S
C561 C563 1.561 . S
C561 C564 1.526 1_565 S
C562 H546 0.959 1_565 S
C562 H547 0.959 . S
C562 H548 0.961 . S
C562 C561 1.502 . S
C563 H549 0.960 . S
C563 H550 0.961 . S
C563 H551 0.959 . S
C563 C561 1.561 . S
C564 C561 1.526 1_545 S
C564 C565 1.396 . S
C564 C569 1.390 . S
C565 C559 1.465 . S
C565 C564 1.396 . S
C565 C566 1.399 . S
C566 H552 0.929 . S
C566 C565 1.399 . S
C566 C567 1.385 . S
C567 H553 0.931 . S
C567 C566 1.385 . S
C567 C568 1.389 . S
C568 C567 1.389 . S
C568 C569 1.387 . S
C569 H554 0.930 1_545 S
C569 C564 1.390 . S
C569 C568 1.387 . S
H570 C582 0.930 . S
H571 C584 0.930 . S
H572 C585 0.930 . S
H573 C589 0.959 . S
H574 C589 0.959 . S
H575 C589 0.961 . S
H576 C590 0.960 . S
H577 C590 0.961 . S
H578 C590 0.959 . S
H579 C593 0.929 . S
H580 C594 0.931 . S
H581 C596 0.930 . S
C582 H570 0.930 . S
C582 C583 1.399 . S
C582 C587 1.399 . S
C583 C582 1.399 . S
C583 C584 1.376 . S
C584 H571 0.930 . S
C584 C583 1.376 . S
C584 C585 1.388 . S
C585 H572 0.930 . S
C585 C584 1.388 . S
C585 C586 1.390 . S
C586 C585 1.390 . S
C586 C587 1.394 . S
C586 C592 1.465 . S
C587 C582 1.399 . S
C587 C586 1.394 . S
C587 C588 1.516 . S
C588 C587 1.516 . S
C588 C589 1.502 . S
C588 C590 1.561 . S
C588 C591 1.526 . S
C589 H573 0.959 . S
C589 H574 0.959 . S
C589 H575 0.961 . S
C589 C588 1.502 . S
C590 H576 0.960 . S
C590 H577 0.961 . S
C590 H578 0.959 . S
C590 C588 1.561 . S
C591 C588 1.526 . S
C591 C592 1.396 . S
C591 C596 1.390 . S
C592 C586 1.465 . S
C592 C591 1.396 . S
C592 C593 1.399 . S
C593 H579 0.929 . S
C593 C592 1.399 . S
C593 C594 1.385 . S
C594 H580 0.931 . S
C594 C593 1.385 . S
C594 C595 1.389 . S
C595 C594 1.389 . S
C595 C596 1.387 . S
C596 H581 0.930 . S
C596 C591 1.390 . S
C596 C595 1.387 . S
H597 C609 0.930 . S
H598 C611 0.930 . S
H599 C612 0.930 . S
H600 C616 0.959 . S
H601 C616 0.959 . S
H602 C616 0.961 . S
H603 C617 0.960 . S
H604 C617 0.961 . S
H605 C617 0.959 . S
H606 C620 0.929 . S
H607 C621 0.931 . S
H608 C623 0.930 . S
C609 H597 0.930 . S
C609 C610 1.399 . S
C609 C614 1.399 . S
C610 C609 1.399 . S
C610 C611 1.376 1_545 S
C611 H598 0.930 . S
C611 C610 1.376 1_565 S
C611 C612 1.388 . S
C612 H599 0.930 . S
C612 C611 1.388 . S
C612 C613 1.390 1_565 S
C613 C612 1.390 1_545 S
C613 C614 1.394 . S
C613 C619 1.465 . S
C614 C609 1.399 . S
C614 C613 1.394 . S
C614 C615 1.516 . S
C615 C614 1.516 . S
C615 C616 1.502 . S
C615 C617 1.561 . S
C615 C618 1.526 . S
C616 H600 0.959 . S
C616 H601 0.959 . S
C616 H602 0.961 . S
C616 C615 1.502 . S
C617 H603 0.960 . S
C617 H604 0.961 . S
C617 H605 0.959 . S
C617 C615 1.561 . S
C618 C615 1.526 . S
C618 C619 1.396 . S
C618 C623 1.390 . S
C619 C613 1.465 . S
C619 C618 1.396 . S
C619 C620 1.399 1_545 S
C620 H606 0.929 . S
C620 C619 1.399 1_565 S
C620 C621 1.385 . S
C621 H607 0.931 . S
C621 C620 1.385 . S
C621 C622 1.389 1_565 S
C622 C621 1.389 1_545 S
C622 C623 1.387 . S
C623 H608 0.930 . S
C623 C618 1.390 . S
C623 C622 1.387 . S
H624 C636 0.930 . S
H625 C638 0.930 . S
H626 C639 0.930 . S
H627 C643 0.959 . S
H628 C643 0.959 . S
H629 C643 0.961 . S
H630 C644 0.960 . S
H631 C644 0.961 . S
H632 C644 0.959 . S
H633 C647 0.929 . S
H634 C648 0.931 . S
H635 C650 0.930 . S
C636 H624 0.930 . S
C636 C637 1.399 . S
C636 C641 1.399 . S
C637 C636 1.399 . S
C637 C638 1.376 . S
C638 H625 0.930 . S
C638 C637 1.376 . S
C638 C639 1.388 . S
C639 H626 0.930 . S
C639 C638 1.388 . S
C639 C640 1.390 . S
C640 C639 1.390 . S
C640 C641 1.394 . S
C640 C646 1.465 . S
C641 C636 1.399 . S
C641 C640 1.394 . S
C641 C642 1.516 . S
C642 C641 1.516 . S
C642 C643 1.502 . S
C642 C644 1.561 . S
C642 C645 1.526 . S
C643 H627 0.959 . S
C643 H628 0.959 . S
C643 H629 0.961 . S
C643 C642 1.502 . S
C644 H630 0.960 . S
C644 H631 0.961 . S
C644 H632 0.959 . S
C644 C642 1.561 . S
C645 C642 1.526 . S
C645 C646 1.396 . S
C645 C650 1.390 1_556 S
C646 C640 1.465 . S
C646 C645 1.396 . S
C646 C647 1.399 1_556 S
C647 H633 0.929 . S
C647 C646 1.399 1_554 S
C647 C648 1.385 . S
C648 H634 0.931 . S
C648 C647 1.385 . S
C648 C649 1.389 . S
C649 C648 1.389 . S
C649 C650 1.387 . S
C650 H635 0.930 . S
C650 C645 1.390 1_554 S
C650 C649 1.387 . S
H651 C663 0.930 . S
H652 C665 0.930 1_655 S
H653 C666 0.930 . S
H654 C670 0.959 . S
H655 C670 0.959 . S
H656 C670 0.961 . S
H657 C671 0.960 . S
H658 C671 0.961 . S
H659 C671 0.959 . S
H660 C674 0.929 . S
H661 C675 0.931 . S
H662 C677 0.930 . S
C663 H651 0.930 . S
C663 C664 1.399 . S
C663 C668 1.399 . S
C664 C663 1.399 . S
C664 C665 1.376 . S
C665 H652 0.930 1_455 S
C665 C664 1.376 . S
C665 C666 1.388 1_455 S
C666 H653 0.930 . S
C666 C665 1.388 1_655 S
C666 C667 1.390 1_655 S
C667 C666 1.390 1_455 S
C667 C668 1.394 . S
C667 C673 1.465 . S
C668 C663 1.399 . S
C668 C667 1.394 . S
C668 C669 1.516 . S
C669 C668 1.516 . S
C669 C670 1.502 . S
C669 C671 1.561 . S
C669 C672 1.526 . S
C670 H654 0.959 . S
C670 H655 0.959 . S
C670 H656 0.961 . S
C670 C669 1.502 . S
C671 H657 0.960 . S
C671 H658 0.961 . S
C671 H659 0.959 . S
C671 C669 1.561 . S
C672 C669 1.526 . S
C672 C673 1.396 . S
C672 C677 1.390 . S
C673 C667 1.465 . S
C673 C672 1.396 . S
C673 C674 1.399 1_455 S
C674 H660 0.929 . S
C674 C673 1.399 1_655 S
C674 C675 1.385 . S
C675 H661 0.931 . S
C675 C674 1.385 . S
C675 C676 1.389 1_655 S
C676 C675 1.389 1_455 S
C676 C677 1.387 . S
C677 H662 0.930 . S
C677 C672 1.390 . S
C677 C676 1.387 . S
C205 C6 0.890 . S
C217 C186 0.851 . S
C232 C59 1.941 . S
C244 C160 1.855 . S
C259 C86 1.289 . S
C271 C172 1.290 . S
C286 C15 0.486 . S
C298 C184 0.401 . S
C325 C162 1.852 . S
C313 C50 1.876 . S
C352 C174 1.171 . S
C340 C95 1.160 . S
C367 C46 1.323 . S
C379 C136 1.312 . S
C394 C99 3.337 . S
C406 C150 3.308 . S
C421 C10 1.900 . S
C433 C126 1.879 . S
C460 C138 1.132 . S
C448 C55 1.119 . S
C487 C148 2.713 . S
C475 C90 2.797 . S
C502 C19 1.945 . S
C514 C124 1.868 . S
C541 C153 1.769 . S
C529 C18 1.648 . S
C556 C49 1.450 . S
C568 C129 1.477 . S
C583 C98 1.521 . S
C595 C141 1.537 . S
C622 C177 1.523 . S
C610 C58 1.489 . S
C649 C189 1.234 . S
C637 C89 1.182 . S
C664 C9 1.404 . S
C676 C165 1.454 . S
