# Generated by pormake.
# Topology apo, (3,6)-cn, num edge types: 1
# Building blocks:
#     Node 0, Type 0, BuildingBlock: BETDIP_clean_linker_0, # of connection points: 3
#     Node 1, Type 0, BuildingBlock: BETDIP_clean_linker_0, # of connection points: 3
#     Node 2, Type 0, BuildingBlock: BETDIP_clean_linker_0, # of connection points: 3
#     Node 3, Type 0, BuildingBlock: BETDIP_clean_linker_0, # of connection points: 3
#     Node 4, Type 0, BuildingBlock: BETDIP_clean_linker_0, # of connection points: 3
#     Node 5, Type 0, BuildingBlock: BETDIP_clean_linker_0, # of connection points: 3
#     Node 6, Type 0, BuildingBlock: BETDIP_clean_linker_0, # of connection points: 3
#     Node 7, Type 0, BuildingBlock: BETDIP_clean_linker_0, # of connection points: 3
#     Node 8, Type 1, BuildingBlock: KUMBOL_clean_sbu_1, # of connection points: 6
#     Node 9, Type 1, BuildingBlock: KUMBOL_clean_sbu_1, # of connection points: 6
#     Node 10, Type 1, BuildingBlock: KUMBOL_clean_sbu_1, # of connection points: 6
#     Node 11, Type 1, BuildingBlock: KUMBOL_clean_sbu_1, # of connection points: 6
#     Edge 12, Type (0, 1), None
#     Edge 13, Type (0, 1), None
#     Edge 14, Type (0, 1), None
#     Edge 15, Type (0, 1), None
#     Edge 16, Type (0, 1), None
#     Edge 17, Type (0, 1), None
#     Edge 18, Type (0, 1), None
#     Edge 19, Type (0, 1), None
#     Edge 20, Type (0, 1), None
#     Edge 21, Type (0, 1), None
#     Edge 22, Type (0, 1), None
#     Edge 23, Type (0, 1), None
#     Edge 24, Type (0, 1), None
#     Edge 25, Type (0, 1), None
#     Edge 26, Type (0, 1), None
#     Edge 27, Type (0, 1), None
#     Edge 28, Type (0, 1), None
#     Edge 29, Type (0, 1), None
#     Edge 30, Type (0, 1), None
#     Edge 31, Type (0, 1), None
#     Edge 32, Type (0, 1), None
#     Edge 33, Type (0, 1), None
#     Edge 34, Type (0, 1), None
#     Edge 35, Type (0, 1), None
# Relax obj value: 0.038
# Max RMSD: 0.265
# Mean RMSD: 0.199
data_MOF--net-apo--node1-KUMBOL_clean_sbu_1--node2-BETDIP_clean_linker_0--edge1-none
_symmetry_space_group_name_H-M    P1
_symmetry_Int_Tables_number       1
_symmetry_cell_setting            triclinic
loop_
_symmetry_equiv_pos_as_xyz
'x, y, z'
_cell_length_a     12.672738
_cell_length_b     18.030661
_cell_length_c     27.010817
_cell_angle_alpha  90.000502
_cell_angle_beta   89.999897
_cell_angle_gamma 90.010414
loop_
_atom_site_label
_atom_site_type_symbol
_atom_site_fract_x
_atom_site_fract_y
_atom_site_fract_z
_atom_type_partial_charge
H0 H 0.21006 0.31918 0.46328 0.0
H1 H 0.3289 0.34839 0.31502 0.0
H2 H 0.36982 0.52076 0.42198 0.0
H3 H 0.3012 0.23175 0.30964 0.0
C4 C 0.23509 0.2163 0.333 0.0
C5 C 0.25307 0.35142 0.43608 0.0
C6 C 0.29305 0.42179 0.44901 0.0
C7 C 0.26562 0.32323 0.38785 0.0
C8 C 0.31766 0.36777 0.3523 0.0
C9 C 0.35357 0.43921 0.36405 0.0
C10 C 0.34224 0.46558 0.41264 0.0
N11 N 0.21435 0.25495 0.37467 0.0
H12 H 0.32371 0.18355 0.96328 0.0
H13 H 0.20487 0.15434 0.81502 0.0
H14 H 0.16395 0.98197 0.92199 0.0
H15 H 0.23257 0.27098 0.80964 0.0
C16 C 0.29868 0.28643 0.833 0.0
C17 C 0.2807 0.15131 0.93608 0.0
C18 C 0.24072 0.08094 0.94901 0.0
C19 C 0.26815 0.17949 0.88785 0.0
C20 C 0.21611 0.13496 0.8523 0.0
C21 C 0.1802 0.06352 0.86405 0.0
C22 C 0.19153 0.03715 0.91264 0.0
N23 N 0.31942 0.24778 0.87467 0.0
H24 H 0.67869 0.19137 0.59602 0.0
H25 H 0.78631 0.1542 0.74532 0.0
H26 H 0.86415 0.99911 0.63026 0.0
H27 H 0.639 0.21313 0.76035 0.0
C28 C 0.62379 0.25388 0.73173 0.0
C29 C 0.72301 0.15886 0.62265 0.0
C30 C 0.77565 0.0947 0.60729 0.0
C31 C 0.72192 0.17963 0.67234 0.0
C32 C 0.78075 0.13727 0.70702 0.0
C33 C 0.83489 0.07288 0.69203 0.0
C34 C 0.82947 0.05095 0.64207 0.0
N35 N 0.66047 0.24288 0.68582 0.0
H36 H 0.85509 0.31136 0.09602 0.0
H37 H 0.74746 0.34853 0.24532 0.0
H38 H 0.66962 0.50361 0.13026 0.0
H39 H 0.89477 0.28959 0.26034 0.0
C40 C 0.90998 0.24884 0.23173 0.0
C41 C 0.81076 0.34387 0.12265 0.0
C42 C 0.75812 0.40803 0.10729 0.0
C43 C 0.81185 0.3231 0.17234 0.0
C44 C 0.75302 0.36546 0.20702 0.0
C45 C 0.69888 0.42984 0.19203 0.0
C46 C 0.7043 0.45178 0.14207 0.0
N47 N 0.8733 0.25985 0.18582 0.0
H48 H 0.83749 0.67249 0.59699 0.0
H49 H 0.73163 0.64173 0.74785 0.0
H50 H 0.65593 0.48015 0.63798 0.0
H51 H 0.76617 0.75592 0.75304 0.0
C52 C 0.82723 0.77328 0.7275 0.0
C53 C 0.79425 0.64136 0.62468 0.0
C54 C 0.74689 0.57359 0.61196 0.0
C55 C 0.78865 0.66824 0.67334 0.0
C56 C 0.73483 0.62523 0.70944 0.0
C57 C 0.68609 0.55816 0.69659 0.0
C58 C 0.69271 0.53239 0.64792 0.0
N59 N 0.84321 0.73549 0.68528 0.0
H60 H 0.69627 0.83024 0.09699 0.0
H61 H 0.80214 0.861 0.24784 0.0
H62 H 0.87783 0.02257 0.13798 0.0
H63 H 0.7676 0.7468 0.25304 0.0
C64 C 0.70653 0.72944 0.2275 0.0
C65 C 0.73951 0.86136 0.12468 0.0
C66 C 0.78687 0.92914 0.11196 0.0
C67 C 0.74512 0.83449 0.17333 0.0
C68 C 0.79893 0.8775 0.20944 0.0
C69 C 0.84767 0.94457 0.19659 0.0
C70 C 0.84105 0.97033 0.14792 0.0
N71 N 0.69055 0.76724 0.18528 0.0
H72 H 0.26383 0.76923 0.45818 0.0
H73 H 0.30049 0.87673 0.3164 0.0
H74 H 0.09603 0.96922 0.42561 0.0
H75 H 0.33157 0.76544 0.29472 0.0
C76 C 0.37269 0.73584 0.3238 0.0
C77 C 0.24717 0.81481 0.43322 0.0
C78 C 0.1767 0.87076 0.44753 0.0
C79 C 0.29259 0.81565 0.38585 0.0
C80 C 0.26672 0.87421 0.35284 0.0
C81 C 0.19265 0.92829 0.36604 0.0
C82 C 0.15226 0.92772 0.4144 0.0
N83 N 0.35807 0.7548 0.3714 0.0
H84 H 0.26994 0.7335 0.95819 0.0
H85 H 0.23327 0.626 0.8164 0.0
H86 H 0.43773 0.53351 0.92561 0.0
H87 H 0.2022 0.73729 0.79472 0.0
C88 C 0.16108 0.76689 0.8238 0.0
C89 C 0.28659 0.68792 0.93322 0.0
C90 C 0.35706 0.63197 0.94754 0.0
C91 C 0.24117 0.68708 0.88586 0.0
C92 C 0.26704 0.62852 0.85284 0.0
C93 C 0.34111 0.57444 0.86605 0.0
C94 C 0.3815 0.57501 0.9144 0.0
N95 N 0.1757 0.74793 0.8714 0.0
C96 C 0.68541 0.03611 0.32053 0.0
C97 C 0.65599 0.90935 0.34768 0.0
C98 C 0.72558 0.96858 0.33745 0.0
C99 C 0.54751 0.91791 0.3393 0.0
C100 C 0.57572 0.04548 0.31399 0.0
C101 C 0.50727 0.98606 0.32337 0.0
N102 N 0.75275 0.09405 0.31378 0.0
C103 C 0.71592 0.16157 0.29926 0.0
C104 C 0.53752 0.11508 0.29965 0.0
C105 C 0.60813 0.17315 0.29169 0.0
Gd106 Gd 0.13316 0.05268 0.2162 0.0
Gd107 Gd 0.9285 0.0729 0.33683 0.0
N108 N 0.83019 0.96348 0.34888 0.0
C109 C 0.69606 0.84508 0.36966 0.0
C110 C 0.8676 0.90272 0.37356 0.0
C111 C 0.80179 0.84258 0.38368 0.0
H112 H 0.9471 0.90085 0.3874 0.0
H113 H 0.83217 0.79509 0.40359 0.0
H114 H 0.12963 0.22472 0.17196 0.0
H115 H 0.76882 0.20749 0.29576 0.0
H116 H 0.25642 0.31669 0.13869 0.0
H117 H 0.64489 0.79869 0.37837 0.0
H118 H 0.49375 0.87291 0.34702 0.0
H119 H 0.27024 0.89589 0.23292 0.0
H120 H 0.45374 0.12459 0.29478 0.0
H121 H 0.57942 0.2273 0.2808 0.0
H122 H 0.59253 0.19563 0.15168 0.0
H123 H 0.42287 0.99257 0.31884 0.0
H124 H 0.59452 0.94063 0.20037 0.0
H125 H 0.45501 0.85236 0.22542 0.0
N126 N 0.30676 0.00724 0.21462 0.0
C127 C 0.38189 0.0559 0.19941 0.0
C128 C 0.33144 0.93457 0.22284 0.0
C129 C 0.51408 0.95958 0.2038 0.0
C130 C 0.43547 0.90974 0.21806 0.0
C131 C 0.48783 0.0334 0.19379 0.0
H132 H 0.64596 0.06896 0.1745 0.0
N133 N 0.24815 0.1459 0.18959 0.0
C134 C 0.3518 0.12734 0.18665 0.0
C135 C 0.39216 0.24767 0.15205 0.0
C136 C 0.42696 0.17815 0.16833 0.0
C137 C 0.213 0.21216 0.17175 0.0
C138 C 0.28446 0.26407 0.15279 0.0
O139 O 0.86511 0.03507 0.26218 0.0
O140 O 1.01019 0.97016 0.23831 0.0
O141 O 0.09635 0.07639 0.13872 0.0
O142 O 0.14555 0.96629 0.16025 0.0
O143 O 0.03794 0.97683 0.33033 0.0
O144 O 0.19167 0.99782 0.28814 0.0
O145 O 0.18697 0.14144 0.26841 0.0
O146 O 0.08563 0.1385 0.34175 0.0
O147 O 0.95506 0.05607 0.4155 0.0
O148 O 0.847 0.14082 0.39156 0.0
O149 O 0.99187 0.13342 0.21391 0.0
O150 O 0.96702 0.17523 0.29445 0.0
C151 C 0.91021 0.98571 0.23338 0.0
C152 C 0.14086 0.97657 0.32858 0.0
C153 C 0.20806 0.01183 0.08225 0.0
C154 C 0.26285 0.04865 0.99845 0.0
C155 C 0.38332 0.98052 0.05132 0.0
C156 C 0.30694 0.97746 0.08846 0.0
C157 C 0.36174 0.01611 1.00666 0.0
C158 C 0.18594 0.04677 0.03645 0.0
C159 C 0.12924 0.01183 0.12341 0.0
C160 C 0.53344 0.15704 0.16505 0.0
C161 C 0.56379 0.08482 0.17778 0.0
H162 H 0.44727 0.28812 0.13747 0.0
C163 C 0.16824 0.16077 0.31473 0.0
C164 C 0.96037 0.18401 0.24643 0.0
C165 C 0.81096 0.08121 0.46827 0.0
C166 C 0.76298 0.07062 0.55555 0.0
C167 C 0.64665 0.02145 0.49247 0.0
C168 C 0.71545 0.04654 0.45585 0.0
C169 C 0.67016 0.03341 0.54219 0.0
C170 C 0.83435 0.09354 0.51858 0.0
C171 C 0.88578 0.10502 0.42929 0.0
H172 H 0.45937 0.95451 0.05704 0.0
H173 H 0.32587 0.94784 0.12197 0.0
H174 H 0.42162 0.01695 0.978 0.0
H175 H 0.10952 0.07216 0.03034 0.0
H176 H 0.57354 0.99446 0.48219 0.0
H177 H 0.69257 0.04011 0.41801 0.0
H178 H 0.61399 0.01626 0.5702 0.0
H179 H 0.90582 0.12281 0.52884 0.0
C180 C 0.84836 0.46662 0.82053 0.0
C181 C 0.87778 0.59338 0.84768 0.0
C182 C 0.80819 0.53415 0.83745 0.0
C183 C 0.98625 0.58482 0.8393 0.0
C184 C 0.95805 0.45725 0.81399 0.0
C185 C 0.02649 0.51667 0.82337 0.0
N186 N 0.78102 0.40868 0.81378 0.0
C187 C 0.81785 0.34116 0.79926 0.0
C188 C 0.99624 0.38765 0.79965 0.0
C189 C 0.92563 0.32958 0.79169 0.0
Gd190 Gd 0.40061 0.45004 0.7162 0.0
Gd191 Gd 0.60526 0.42982 0.83683 0.0
N192 N 0.70357 0.53925 0.84888 0.0
C193 C 0.8377 0.65765 0.86966 0.0
C194 C 0.66616 0.60001 0.87356 0.0
C195 C 0.73198 0.66015 0.88368 0.0
H196 H 0.58666 0.60188 0.8874 0.0
H197 H 0.70159 0.70765 0.90359 0.0
H198 H 0.40413 0.27801 0.67196 0.0
H199 H 0.76495 0.29523 0.79577 0.0
H200 H 0.27734 0.18604 0.63869 0.0
H201 H 0.88887 0.70404 0.87837 0.0
H202 H 0.04002 0.62983 0.84702 0.0
H203 H 0.26353 0.60684 0.73292 0.0
H204 H 0.08003 0.37814 0.79478 0.0
H205 H 0.95434 0.27543 0.7808 0.0
H206 H 0.94124 0.3071 0.65168 0.0
H207 H 0.1109 0.51016 0.81884 0.0
H208 H 0.93924 0.5621 0.70037 0.0
H209 H 0.07876 0.65037 0.72542 0.0
N210 N 0.22701 0.49549 0.71462 0.0
C211 C 0.15187 0.44683 0.69941 0.0
C212 C 0.20233 0.56815 0.72285 0.0
C213 C 0.01969 0.54315 0.7038 0.0
C214 C 0.0983 0.59299 0.71806 0.0
C215 C 0.04593 0.46933 0.69379 0.0
H216 H 0.88781 0.43377 0.6745 0.0
N217 N 0.28562 0.35682 0.68959 0.0
C218 C 0.18197 0.37539 0.68665 0.0
C219 C 0.14161 0.25506 0.65205 0.0
C220 C 0.10681 0.32458 0.66833 0.0
C221 C 0.32077 0.29057 0.67175 0.0
C222 C 0.24931 0.23865 0.65279 0.0
O223 O 0.66866 0.46766 0.76218 0.0
O224 O 0.52357 0.53257 0.73831 0.0
O225 O 0.43741 0.42633 0.63873 0.0
O226 O 0.38822 0.53643 0.66025 0.0
O227 O 0.49583 0.5259 0.83033 0.0
O228 O 0.3421 0.50491 0.78815 0.0
O229 O 0.34679 0.36128 0.76841 0.0
O230 O 0.44814 0.36423 0.84175 0.0
O231 O 0.57871 0.44666 0.91551 0.0
O232 O 0.68676 0.36191 0.89156 0.0
O233 O 0.5419 0.36931 0.71391 0.0
O234 O 0.56675 0.3275 0.79445 0.0
C235 C 0.62356 0.51702 0.73338 0.0
C236 C 0.39291 0.52616 0.82858 0.0
C237 C 0.32571 0.4909 0.58225 0.0
C238 C 0.27092 0.45408 0.49845 0.0
C239 C 0.15045 0.52222 0.55132 0.0
C240 C 0.22683 0.52527 0.58846 0.0
C241 C 0.17203 0.48662 0.50666 0.0
C242 C 0.34783 0.45596 0.53645 0.0
C243 C 0.40453 0.4909 0.62341 0.0
C244 C 1.00033 0.34568 0.66505 0.0
C245 C 0.96998 0.41791 0.67778 0.0
H246 H 0.08649 0.21461 0.63747 0.0
C247 C 0.36553 0.34196 0.81474 0.0
C248 C 0.57339 0.31872 0.74644 0.0
C249 C 0.72281 0.42152 0.96828 0.0
C250 C 0.77079 0.43211 0.05555 0.0
C251 C 0.88712 0.48128 0.99247 0.0
C252 C 0.81832 0.45619 0.95585 0.0
C253 C 0.86361 0.46932 0.04218 0.0
C254 C 0.69942 0.40919 1.01858 0.0
C255 C 0.64798 0.39771 0.92929 0.0
H256 H 0.0744 0.54822 0.55704 0.0
H257 H 0.2079 0.55489 0.62197 0.0
H258 H 0.11215 0.48578 0.478 0.0
H259 H 0.42425 0.43057 0.53034 0.0
H260 H 0.96023 0.50826 0.98219 0.0
H261 H 0.8412 0.46262 0.91801 0.0
H262 H 0.91979 0.48646 0.0702 0.0
H263 H 0.62795 0.37992 0.02884 0.0
C264 C 0.69378 0.04415 0.8429 0.0
C265 C 0.54399 0.96004 0.84417 0.0
C266 C 0.65378 0.97249 0.84028 0.0
C267 C 0.47543 0.02044 0.84985 0.0
C268 C 0.62511 0.10441 0.85121 0.0
C269 C 0.51603 0.09236 0.85334 0.0
N270 N 0.80018 0.05428 0.84214 0.0
C271 C 0.84276 0.12223 0.85224 0.0
C272 C 0.66833 0.1743 0.86067 0.0
C273 C 0.7776 0.18265 0.86245 0.0
Gd274 Gd 0.11183 0.93695 0.71842 0.0
Gd275 Gd 0.90245 0.94647 0.83765 0.0
N276 N 0.72223 0.91478 0.83694 0.0
C277 C 0.50632 0.88712 0.84317 0.0
C278 C 0.68592 0.84343 0.83802 0.0
C279 C 0.57776 0.82852 0.84019 0.0
H280 H 0.74033 0.79764 0.83829 0.0
H281 H 0.54971 0.7718 0.84049 0.0
H282 H 0.18512 0.11425 0.72945 0.0
H283 H 0.9268 0.12969 0.85564 0.0
H284 H 0.35174 0.18496 0.74146 0.0
H285 H 0.42255 0.87547 0.84554 0.0
H286 H 0.39111 0.01189 0.85229 0.0
H287 H 0.18427 0.7611 0.69321 0.0
H288 H 0.61802 0.22134 0.86872 0.0
H289 H 0.81201 0.23516 0.87302 0.0
H290 H 0.62337 0.00252 0.72547 0.0
H291 H 0.46294 0.13836 0.85869 0.0
H292 H 0.52179 0.7505 0.69834 0.0
H293 H 0.35031 0.68984 0.68405 0.0
N294 N 0.26222 0.86085 0.71397 0.0
C295 C 0.35629 0.8965 0.71922 0.0
C296 C 0.25905 0.78767 0.7008 0.0
C297 C 0.44958 0.78196 0.70306 0.0
C298 C 0.35257 0.74722 0.69547 0.0
C299 C 0.45255 0.85778 0.71392 0.0
H300 H 0.6231 0.86755 0.71318 0.0
N301 N 0.26288 0.01012 0.72779 0.0
C302 C 0.35657 0.97312 0.72581 0.0
C303 C 0.45044 0.08888 0.7338 0.0
C304 C 0.45296 0.01199 0.72789 0.0
C305 C 0.26013 0.08565 0.72992 0.0
C306 C 0.35382 0.12575 0.73563 0.0
O307 O 0.88253 0.8461 0.79077 0.0
O308 O 0.96502 0.86008 0.71337 0.0
O309 O 0.05079 0.98344 0.6497 0.0
O310 O 0.1894 0.91538 0.64822 0.0
O311 O 0.04688 0.86802 0.84098 0.0
O312 O 0.08953 0.83305 0.76057 0.0
O313 O 0.17572 0.98291 0.79195 0.0
O314 O 0.02368 0.03141 0.82073 0.0
O315 O 0.85531 0.8902 0.90556 0.0
O316 O 0.95004 0.98965 0.90936 0.0
O317 O 0.99975 0.03344 0.72804 0.0
O318 O 0.8442 0.99445 0.76441 0.0
C319 C 0.89056 0.83201 0.74311 0.0
C320 C 0.09799 0.82568 0.80859 0.0
C321 C 0.08278 0.90918 0.5783 0.0
C322 C 0.11702 0.86576 0.49435 0.0
C323 C 0.96546 0.81955 0.53996 0.0
C324 C 0.99318 0.86348 0.58058 0.0
C325 C 0.02721 0.82038 0.49707 0.0
C326 C 0.14403 0.91053 0.53491 0.0
C327 C 0.12003 0.95012 0.622 0.0
C328 C 0.54872 0.97334 0.72375 0.0
C329 C 0.54855 0.89642 0.71698 0.0
H330 H 0.52281 0.11993 0.73696 0.0
C331 C 0.12355 0.0189 0.82655 0.0
C332 C 0.89593 0.02816 0.7283 0.0
C333 C 0.83105 0.96737 0.97554 0.0
C334 C 0.77527 0.95985 0.0618 0.0
C335 C 0.7014 0.05411 1.0082 0.0
C336 C 0.76391 0.02859 0.96931 0.0
C337 C 0.70721 0.02009 0.05436 0.0
C338 C 0.83622 0.93282 1.02216 0.0
C339 C 0.89726 0.94008 0.93431 0.0
H340 H 0.89614 0.78458 0.54177 0.0
H341 H 0.94558 0.86106 0.61381 0.0
H342 H 1.00414 0.78653 0.46573 0.0
H343 H 0.21337 0.94568 0.5329 0.0
H344 H 0.64961 0.10115 1.00271 0.0
H345 H 0.76048 0.05766 0.93487 0.0
H346 H 0.65959 0.04132 0.08443 0.0
H347 H 0.88927 0.88644 0.02794 0.0
C348 C 0.83999 0.45858 0.3429 0.0
C349 C 0.98977 0.54269 0.34417 0.0
C350 C 0.87999 0.53024 0.34028 0.0
C351 C 0.05833 0.48229 0.34985 0.0
C352 C 0.90866 0.39832 0.35121 0.0
C353 C 0.01774 0.41037 0.35334 0.0
N354 N 0.73359 0.44845 0.34213 0.0
C355 C 0.69101 0.3805 0.35224 0.0
C356 C 0.86544 0.32843 0.36067 0.0
C357 C 0.75617 0.32008 0.36245 0.0
Gd358 Gd 0.42194 0.56578 0.21842 0.0
Gd359 Gd 0.63132 0.55625 0.33765 0.0
N360 N 0.81153 0.58795 0.33694 0.0
C361 C 0.02744 0.61561 0.34317 0.0
C362 C 0.84785 0.6593 0.33802 0.0
C363 C 0.95601 0.67421 0.34019 0.0
H364 H 0.79343 0.70509 0.33829 0.0
H365 H 0.98405 0.73093 0.3405 0.0
H366 H 0.34864 0.38848 0.22945 0.0
H367 H 0.60697 0.37304 0.35564 0.0
H368 H 0.18202 0.31777 0.24146 0.0
H369 H 0.11121 0.62726 0.34554 0.0
H370 H 0.14265 0.49084 0.35229 0.0
H371 H 0.3495 0.74162 0.1932 0.0
H372 H 0.91575 0.2814 0.36871 0.0
H373 H 0.72176 0.26757 0.37302 0.0
H374 H 0.9104 0.50021 0.22547 0.0
H375 H 0.07083 0.36437 0.35869 0.0
H376 H 1.01198 0.75222 0.19834 0.0
H377 H 0.18346 0.81289 0.18404 0.0
N378 N 0.27155 0.64188 0.21397 0.0
C379 C 0.17747 0.60623 0.21922 0.0
C380 C 0.27472 0.71506 0.2008 0.0
C381 C 0.08419 0.72076 0.20306 0.0
C382 C 0.1812 0.75551 0.19547 0.0
C383 C 0.08122 0.64495 0.21392 0.0
H384 H 0.91067 0.63518 0.21318 0.0
N385 N 0.27089 0.49261 0.22779 0.0
C386 C 0.1772 0.52961 0.22581 0.0
C387 C 0.08333 0.41385 0.2338 0.0
C388 C 0.0808 0.49074 0.22789 0.0
C389 C 0.27364 0.41708 0.22991 0.0
C390 C 0.17995 0.37697 0.23563 0.0
O391 O 0.65124 0.65663 0.29077 0.0
O392 O 0.56875 0.64265 0.21337 0.0
O393 O 0.48299 0.51929 0.1497 0.0
O394 O 0.34436 0.58734 0.14822 0.0
O395 O 0.48689 0.63471 0.34098 0.0
O396 O 0.44424 0.66968 0.26057 0.0
O397 O 0.35805 0.51981 0.29195 0.0
O398 O 0.51008 0.47132 0.32073 0.0
O399 O 0.67846 0.61253 0.40556 0.0
O400 O 0.58372 0.51308 0.40936 0.0
O401 O 0.53402 0.46929 0.22804 0.0
O402 O 0.68956 0.50827 0.26441 0.0
C403 C 0.64321 0.67071 0.24311 0.0
C404 C 0.43578 0.67705 0.30859 0.0
C405 C 0.45099 0.59355 0.0783 0.0
C406 C 0.41674 0.63697 0.99435 0.0
C407 C 0.5683 0.68318 0.03996 0.0
C408 C 0.54058 0.63925 0.08058 0.0
C409 C 0.50655 0.68235 0.99707 0.0
C410 C 0.38973 0.5922 0.03491 0.0
C411 C 0.41373 0.55261 0.122 0.0
C412 C 0.98504 0.52939 0.22375 0.0
C413 C 0.98522 0.60631 0.21698 0.0
H414 H 1.01095 0.3828 0.23696 0.0
C415 C 0.41022 0.48382 0.32655 0.0
C416 C 0.63783 0.47457 0.2283 0.0
C417 C 0.70271 0.53536 0.47554 0.0
C418 C 0.75849 0.54287 0.5618 0.0
C419 C 0.83236 0.44862 0.50819 0.0
C420 C 0.76985 0.47414 0.46931 0.0
C421 C 0.82654 0.48263 0.55436 0.0
C422 C 0.69754 0.56991 0.52216 0.0
C423 C 0.6365 0.56265 0.43431 0.0
H424 H 0.63762 0.71815 0.04177 0.0
H425 H 0.58818 0.64167 0.11381 0.0
H426 H 0.52962 0.7162 0.96573 0.0
H427 H 0.32039 0.55705 0.0329 0.0
H428 H 0.88414 0.40157 0.50271 0.0
H429 H 0.77328 0.44506 0.43487 0.0
H430 H 0.87416 0.4614 0.58443 0.0
H431 H 0.64449 0.61629 0.52794 0.0
loop_
_geom_bond_atom_site_label_1
_geom_bond_atom_site_label_2
_geom_bond_distance
_geom_bond_site_symmetry_2
_ccdc_geom_bond_type
H0 C5 0.930 . S
H1 C8 0.930 . S
H2 C10 0.930 . S
H3 C4 1.016 . S
C4 H3 1.016 . S
C4 N11 1.286 . S
C5 H0 0.930 . S
C5 C6 1.397 . S
C5 C7 1.361 . S
C6 C5 1.397 . S
C6 C10 1.390 . S
C7 C5 1.361 . S
C7 C8 1.393 . S
C7 N11 1.413 . S
C8 H1 0.930 . S
C8 C7 1.393 . S
C8 C9 1.399 . S
C9 C8 1.399 . S
C9 C10 1.381 . S
C10 H2 0.930 . S
C10 C6 1.390 . S
C10 C9 1.381 . S
N11 C4 1.286 . S
N11 C7 1.413 . S
H12 C17 0.930 . S
H13 C20 0.930 . S
H14 C22 0.930 . S
H15 C16 1.016 . S
C16 H15 1.016 . S
C16 N23 1.286 . S
C17 H12 0.930 . S
C17 C18 1.397 . S
C17 C19 1.361 . S
C18 C17 1.397 . S
C18 C22 1.390 . S
C19 C17 1.361 . S
C19 C20 1.393 . S
C19 N23 1.413 . S
C20 H13 0.930 . S
C20 C19 1.393 . S
C20 C21 1.399 . S
C21 C20 1.399 . S
C21 C22 1.381 . S
C22 H14 0.930 . S
C22 C18 1.390 . S
C22 C21 1.381 . S
N23 C16 1.286 . S
N23 C19 1.413 . S
H24 C29 0.930 . S
H25 C32 0.930 . S
H26 C34 0.930 . S
H27 C28 1.016 . S
C28 H27 1.016 . S
C28 N35 1.286 . S
C29 H24 0.930 . S
C29 C30 1.397 . S
C29 C31 1.361 . S
C30 C29 1.397 . S
C30 C34 1.390 . S
C31 C29 1.361 . S
C31 C32 1.393 . S
C31 N35 1.413 . S
C32 H25 0.930 . S
C32 C31 1.393 . S
C32 C33 1.399 . S
C33 C32 1.399 . S
C33 C34 1.381 . S
C34 H26 0.930 . S
C34 C30 1.390 . S
C34 C33 1.381 . S
N35 C28 1.286 . S
N35 C31 1.413 . S
H36 C41 0.930 . S
H37 C44 0.930 . S
H38 C46 0.930 . S
H39 C40 1.016 . S
C40 H39 1.016 . S
C40 N47 1.286 . S
C41 H36 0.930 . S
C41 C42 1.397 . S
C41 C43 1.361 . S
C42 C41 1.397 . S
C42 C46 1.390 . S
C43 C41 1.361 . S
C43 C44 1.393 . S
C43 N47 1.413 . S
C44 H37 0.930 . S
C44 C43 1.393 . S
C44 C45 1.399 . S
C45 C44 1.399 . S
C45 C46 1.381 . S
C46 H38 0.930 . S
C46 C42 1.390 . S
C46 C45 1.381 . S
N47 C40 1.286 . S
N47 C43 1.413 . S
H48 C53 0.930 . S
H49 C56 0.930 . S
H50 C58 0.930 . S
H51 C52 1.016 . S
C52 H51 1.016 . S
C52 N59 1.286 . S
C53 H48 0.930 . S
C53 C54 1.397 . S
C53 C55 1.361 . S
C54 C53 1.397 . S
C54 C58 1.390 . S
C55 C53 1.361 . S
C55 C56 1.393 . S
C55 N59 1.413 . S
C56 H49 0.930 . S
C56 C55 1.393 . S
C56 C57 1.399 . S
C57 C56 1.399 . S
C57 C58 1.381 . S
C58 H50 0.930 . S
C58 C54 1.390 . S
C58 C57 1.381 . S
N59 C52 1.286 . S
N59 C55 1.413 . S
H60 C65 0.930 . S
H61 C68 0.930 . S
H62 C70 0.930 . S
H63 C64 1.016 . S
C64 H63 1.016 . S
C64 N71 1.286 . S
C65 H60 0.930 . S
C65 C66 1.397 . S
C65 C67 1.361 . S
C66 C65 1.397 . S
C66 C70 1.390 . S
C67 C65 1.361 . S
C67 C68 1.393 . S
C67 N71 1.413 . S
C68 H61 0.930 . S
C68 C67 1.393 . S
C68 C69 1.399 . S
C69 C68 1.399 . S
C69 C70 1.381 . S
C70 H62 0.930 . S
C70 C66 1.390 . S
C70 C69 1.381 . S
N71 C64 1.286 . S
N71 C67 1.413 . S
H72 C77 0.930 . S
H73 C80 0.930 . S
H74 C82 0.930 . S
H75 C76 1.016 . S
C76 H75 1.016 . S
C76 N83 1.286 . S
C77 H72 0.930 . S
C77 C78 1.397 . S
C77 C79 1.361 . S
C78 C77 1.397 . S
C78 C82 1.390 . S
C79 C77 1.361 . S
C79 C80 1.393 . S
C79 N83 1.413 . S
C80 H73 0.930 . S
C80 C79 1.393 . S
C80 C81 1.399 . S
C81 C80 1.399 . S
C81 C82 1.381 . S
C82 H74 0.930 . S
C82 C78 1.390 . S
C82 C81 1.381 . S
N83 C76 1.286 . S
N83 C79 1.413 . S
H84 C89 0.930 . S
H85 C92 0.930 . S
H86 C94 0.930 . S
H87 C88 1.016 . S
C88 H87 1.016 . S
C88 N95 1.286 . S
C89 H84 0.930 . S
C89 C90 1.397 . S
C89 C91 1.361 . S
C90 C89 1.397 . S
C90 C94 1.390 . S
C91 C89 1.361 . S
C91 C92 1.393 . S
C91 N95 1.413 . S
C92 H85 0.930 . S
C92 C91 1.393 . S
C92 C93 1.399 . S
C93 C92 1.399 . S
C93 C94 1.381 . S
C94 H86 0.930 . S
C94 C90 1.390 . S
C94 C93 1.381 . S
N95 C88 1.286 . S
N95 C91 1.413 . S
C96 C98 1.422 1_545 S
C96 C100 1.415 . S
C96 N102 1.369 . S
C97 C98 1.421 . S
C97 C99 1.417 . S
C97 C109 1.422 . S
C98 C96 1.422 1_565 S
C98 C97 1.421 . S
C98 N108 1.359 . S
C99 C97 1.417 . S
C99 C101 1.329 . S
C99 H118 0.930 . S
C100 C96 1.415 . S
C100 C101 1.437 1_545 S
C100 C104 1.413 . S
C101 C99 1.329 . S
C101 C100 1.437 1_565 S
C101 H123 0.929 . S
N102 C96 1.369 . S
N102 C103 1.338 . S
N102 Gd107 2.622 . S
C103 N102 1.338 . S
C103 C105 1.378 . S
C103 H115 0.929 . S
C104 C100 1.413 . S
C104 C105 1.348 . S
C104 H120 0.931 . S
C105 C103 1.378 . S
C105 C104 1.348 . S
C105 H121 0.930 . S
Gd106 N126 2.622 . S
Gd106 N133 2.570 . S
Gd106 O140 2.353 1_445 S
Gd106 O141 2.468 . S
Gd106 O142 2.427 . S
Gd106 O144 2.388 1_545 S
Gd106 O145 2.386 . S
Gd106 O149 2.307 1_455 S
Gd106 C159 2.805 . S
Gd107 N102 2.622 . S
Gd107 N108 2.570 1_545 S
Gd107 O139 2.386 . S
Gd107 O143 2.307 1_645 S
Gd107 O146 2.353 1_655 S
Gd107 O147 2.468 . S
Gd107 O148 2.427 . S
Gd107 O150 2.388 . S
Gd107 C171 2.805 . S
N108 C98 1.359 . S
N108 Gd107 2.570 1_565 S
N108 C110 1.343 . S
C109 C97 1.422 . S
C109 C111 1.321 . S
C109 H117 0.931 . S
C110 N108 1.343 . S
C110 C111 1.390 . S
C110 H112 0.931 . S
C111 C109 1.321 . S
C111 C110 1.390 . S
C111 H113 0.930 . S
H112 C110 0.931 . S
H113 C111 0.930 . S
H114 C137 0.931 . S
H115 C103 0.929 . S
H116 C138 0.930 . S
H117 C109 0.931 . S
H118 C99 0.930 . S
H119 C128 0.929 1_565 S
H120 C104 0.931 . S
H121 C105 0.930 . S
H122 C160 0.930 . S
H123 C101 0.929 . S
H124 C129 0.931 . S
H125 C130 0.930 1_565 S
N126 Gd106 2.622 . S
N126 C127 1.369 . S
N126 C128 1.338 . S
C127 N126 1.369 . S
C127 C131 1.415 . S
C127 C134 1.422 . S
C128 H119 0.929 1_545 S
C128 N126 1.338 . S
C128 C130 1.378 . S
C129 H124 0.931 . S
C129 C130 1.348 . S
C129 C131 1.413 . S
C130 H125 0.930 1_545 S
C130 C128 1.378 . S
C130 C129 1.348 . S
C131 C127 1.415 . S
C131 C129 1.413 . S
C131 C161 1.437 . S
H132 C161 0.929 . S
N133 Gd106 2.570 . S
N133 C134 1.359 . S
N133 C137 1.343 . S
C134 C127 1.422 . S
C134 N133 1.359 . S
C134 C136 1.421 . S
C135 C136 1.422 . S
C135 C138 1.321 . S
C135 H162 0.931 . S
C136 C134 1.421 . S
C136 C135 1.422 . S
C136 C160 1.417 . S
C137 H114 0.931 . S
C137 N133 1.343 . S
C137 C138 1.390 . S
C138 H116 0.930 . S
C138 C135 1.321 . S
C138 C137 1.390 . S
O139 Gd107 2.386 . S
O139 C151 1.265 1_545 S
O140 Gd106 2.353 1_665 S
O140 C151 1.242 . S
O141 Gd106 2.468 . S
O141 C159 1.263 . S
O142 Gd106 2.427 . S
O142 C159 1.252 . S
O143 Gd107 2.307 1_465 S
O143 C152 1.261 . S
O144 Gd106 2.388 1_565 S
O144 C152 1.252 . S
O145 Gd106 2.386 . S
O145 C163 1.265 . S
O146 Gd107 2.353 1_455 S
O146 C163 1.242 . S
O147 Gd107 2.468 . S
O147 C171 1.263 . S
O148 Gd107 2.427 . S
O148 C171 1.252 . S
O149 Gd106 2.307 1_655 S
O149 C164 1.261 . S
O150 Gd107 2.388 . S
O150 C164 1.252 . S
C151 O139 1.265 1_565 S
C151 O140 1.242 . S
C152 O143 1.261 . S
C152 O144 1.252 . S
C153 C156 1.394 1_545 S
C153 C158 1.370 . S
C153 C159 1.500 . S
C154 C157 1.383 1_545 S
C154 C158 1.395 1_556 S
C155 C156 1.379 1_556 S
C155 C157 1.378 . S
C155 H172 0.933 . S
C156 C153 1.394 1_565 S
C156 C155 1.379 1_554 S
C156 H173 0.930 . S
C157 C154 1.383 1_565 S
C157 C155 1.378 . S
C157 H174 0.931 . S
C158 C153 1.370 . S
C158 C154 1.395 1_554 S
C158 H175 0.930 . S
C159 Gd106 2.805 . S
C159 O141 1.263 . S
C159 O142 1.252 . S
C159 C153 1.500 . S
C160 H122 0.930 . S
C160 C136 1.417 . S
C160 C161 1.329 . S
C161 C131 1.437 . S
C161 H132 0.929 . S
C161 C160 1.329 . S
H162 C135 0.931 . S
C163 O145 1.265 . S
C163 O146 1.242 . S
C164 O149 1.261 . S
C164 O150 1.252 . S
C165 C168 1.394 . S
C165 C170 1.370 . S
C165 C171 1.500 . S
C166 C169 1.383 . S
C166 C170 1.395 . S
C167 C168 1.396 . S
C167 C169 1.365 . S
C167 H176 0.929 . S
C168 C165 1.394 . S
C168 C167 1.396 . S
C168 H177 0.930 . S
C169 C166 1.383 . S
C169 C167 1.365 . S
C169 H178 0.931 . S
C170 C165 1.370 . S
C170 C166 1.395 . S
C170 H179 0.930 . S
C171 Gd107 2.805 . S
C171 O147 1.263 . S
C171 O148 1.252 . S
C171 C165 1.500 . S
H172 C155 0.933 . S
H173 C156 0.930 . S
H174 C157 0.931 . S
H175 C158 0.930 . S
H176 C167 0.929 . S
H177 C168 0.930 . S
H178 C169 0.931 . S
H179 C170 0.930 . S
C180 C182 1.422 . S
C180 C184 1.415 . S
C180 N186 1.369 . S
C181 C182 1.421 . S
C181 C183 1.417 . S
C181 C193 1.422 . S
C182 C180 1.422 . S
C182 C181 1.421 . S
C182 N192 1.359 . S
C183 C181 1.417 . S
C183 C185 1.329 1_655 S
C183 H202 0.930 1_655 S
C184 C180 1.415 . S
C184 C185 1.437 1_655 S
C184 C188 1.413 1_655 S
C185 C183 1.329 1_455 S
C185 C184 1.437 1_455 S
C185 H207 0.929 . S
N186 C180 1.369 . S
N186 C187 1.338 . S
N186 Gd191 2.622 . S
C187 N186 1.338 . S
C187 C189 1.378 . S
C187 H199 0.929 . S
C188 C184 1.413 1_455 S
C188 C189 1.348 1_455 S
C188 H204 0.931 . S
C189 C187 1.378 . S
C189 C188 1.348 1_655 S
C189 H205 0.930 1_655 S
Gd190 N210 2.622 . S
Gd190 N217 2.570 . S
Gd190 O224 2.353 . S
Gd190 O225 2.468 . S
Gd190 O226 2.427 . S
Gd190 O228 2.388 . S
Gd190 O229 2.386 . S
Gd190 O233 2.307 . S
Gd190 C243 2.805 . S
Gd191 N186 2.622 . S
Gd191 N192 2.570 . S
Gd191 O223 2.386 . S
Gd191 O227 2.307 . S
Gd191 O230 2.353 . S
Gd191 O231 2.468 . S
Gd191 O232 2.427 . S
Gd191 O234 2.388 . S
Gd191 C255 2.805 . S
N192 C182 1.359 . S
N192 Gd191 2.570 . S
N192 C194 1.343 . S
C193 C181 1.422 . S
C193 C195 1.321 . S
C193 H201 0.931 . S
C194 N192 1.343 . S
C194 C195 1.390 . S
C194 H196 0.931 . S
C195 C193 1.321 . S
C195 C194 1.390 . S
C195 H197 0.930 . S
H196 C194 0.931 . S
H197 C195 0.930 . S
H198 C221 0.931 . S
H199 C187 0.929 . S
H200 C222 0.930 . S
H201 C193 0.931 . S
H202 C183 0.930 1_455 S
H203 C212 0.929 . S
H204 C188 0.931 . S
H205 C189 0.930 1_455 S
H206 C244 0.930 1_655 S
H207 C185 0.929 . S
H208 C213 0.931 . S
H209 C214 0.930 . S
N210 Gd190 2.622 . S
N210 C211 1.369 . S
N210 C212 1.338 . S
C211 N210 1.369 . S
C211 C215 1.415 . S
C211 C218 1.422 . S
C212 H203 0.929 . S
C212 N210 1.338 . S
C212 C214 1.378 . S
C213 H208 0.931 . S
C213 C214 1.348 1_655 S
C213 C215 1.413 1_655 S
C214 H209 0.930 . S
C214 C212 1.378 . S
C214 C213 1.348 1_455 S
C215 C211 1.415 . S
C215 C213 1.413 1_455 S
C215 C245 1.437 1_455 S
H216 C245 0.929 . S
N217 Gd190 2.570 . S
N217 C218 1.359 . S
N217 C221 1.343 . S
C218 C211 1.422 . S
C218 N217 1.359 . S
C218 C220 1.421 . S
C219 C220 1.422 . S
C219 C222 1.321 . S
C219 H246 0.931 . S
C220 C218 1.421 . S
C220 C219 1.422 . S
C220 C244 1.417 . S
C221 H198 0.931 . S
C221 N217 1.343 . S
C221 C222 1.390 . S
C222 H200 0.930 . S
C222 C219 1.321 . S
C222 C221 1.390 . S
O223 Gd191 2.386 . S
O223 C235 1.265 . S
O224 Gd190 2.353 . S
O224 C235 1.242 . S
O225 Gd190 2.468 . S
O225 C243 1.263 . S
O226 Gd190 2.427 . S
O226 C243 1.252 . S
O227 Gd191 2.307 . S
O227 C236 1.261 . S
O228 Gd190 2.388 . S
O228 C236 1.252 . S
O229 Gd190 2.386 . S
O229 C247 1.265 . S
O230 Gd191 2.353 . S
O230 C247 1.242 . S
O231 Gd191 2.468 . S
O231 C255 1.263 . S
O232 Gd191 2.427 . S
O232 C255 1.252 . S
O233 Gd190 2.307 . S
O233 C248 1.261 . S
O234 Gd191 2.388 . S
O234 C248 1.252 . S
C235 O223 1.265 . S
C235 O224 1.242 . S
C236 O227 1.261 . S
C236 O228 1.252 . S
C237 C240 1.394 . S
C237 C242 1.370 . S
C237 C243 1.500 . S
C238 C241 1.383 . S
C238 C242 1.395 . S
C239 C240 1.396 . S
C239 C241 1.365 . S
C239 H256 0.929 . S
C240 C237 1.394 . S
C240 C239 1.396 . S
C240 H257 0.930 . S
C241 C238 1.383 . S
C241 C239 1.365 . S
C241 H258 0.931 . S
C242 C237 1.370 . S
C242 C238 1.395 . S
C242 H259 0.930 . S
C243 Gd190 2.805 . S
C243 O225 1.263 . S
C243 O226 1.252 . S
C243 C237 1.500 . S
C244 H206 0.930 1_455 S
C244 C220 1.417 . S
C244 C245 1.329 1_455 S
C245 C215 1.437 1_655 S
C245 H216 0.929 . S
C245 C244 1.329 1_655 S
H246 C219 0.931 . S
C247 O229 1.265 . S
C247 O230 1.242 . S
C248 O233 1.261 . S
C248 O234 1.252 . S
C249 C252 1.394 . S
C249 C254 1.370 . S
C249 C255 1.500 . S
C250 C253 1.383 . S
C250 C254 1.395 1_554 S
C251 C252 1.396 1_554 S
C251 C253 1.365 . S
C251 H260 0.929 . S
C252 C249 1.394 . S
C252 C251 1.396 1_556 S
C252 H261 0.930 . S
C253 C250 1.383 . S
C253 C251 1.365 . S
C253 H262 0.931 . S
C254 C249 1.370 . S
C254 C250 1.395 1_556 S
C254 H263 0.930 . S
C255 Gd191 2.805 . S
C255 O231 1.263 . S
C255 O232 1.252 . S
C255 C249 1.500 . S
H256 C239 0.929 . S
H257 C240 0.930 . S
H258 C241 0.931 . S
H259 C242 0.930 . S
H260 C251 0.929 . S
H261 C252 0.930 . S
H262 C253 0.931 . S
H263 C254 0.930 . S
C264 C266 1.422 . S
C264 C268 1.415 . S
C264 N270 1.369 . S
C265 C266 1.421 . S
C265 C267 1.417 . S
C265 C277 1.422 . S
C266 C264 1.422 . S
C266 C265 1.421 . S
C266 N276 1.359 . S
C267 C265 1.417 . S
C267 C269 1.329 . S
C267 H286 0.930 . S
C268 C264 1.415 . S
C268 C269 1.437 . S
C268 C272 1.413 . S
C269 C267 1.329 . S
C269 C268 1.437 . S
C269 H291 0.929 . S
N270 C264 1.369 . S
N270 C271 1.338 . S
N270 Gd275 2.622 . S
C271 N270 1.338 . S
C271 C273 1.378 . S
C271 H283 0.929 1_565 S
C272 C268 1.413 . S
C272 C273 1.348 . S
C272 H288 0.931 . S
C273 C271 1.378 . S
C273 C272 1.348 . S
C273 H289 0.930 1_565 S
Gd274 N294 2.622 . S
Gd274 N301 2.570 1_565 S
Gd274 O308 2.353 1_455 S
Gd274 O309 2.468 . S
Gd274 O310 2.427 . S
Gd274 O312 2.388 . S
Gd274 O313 2.386 . S
Gd274 O317 2.307 1_465 S
Gd274 C327 2.805 . S
Gd275 N270 2.622 . S
Gd275 N276 2.570 . S
Gd275 O307 2.386 . S
Gd275 O311 2.307 1_655 S
Gd275 O314 2.353 1_665 S
Gd275 O315 2.468 . S
Gd275 O316 2.427 . S
Gd275 O318 2.388 1_565 S
Gd275 C339 2.805 . S
N276 C266 1.359 . S
N276 Gd275 2.570 . S
N276 C278 1.343 . S
C277 C265 1.422 . S
C277 C279 1.321 . S
C277 H285 0.931 . S
C278 N276 1.343 . S
C278 C279 1.390 . S
C278 H280 0.931 . S
C279 C277 1.321 . S
C279 C278 1.390 . S
C279 H281 0.930 . S
H280 C278 0.931 . S
H281 C279 0.930 . S
H282 C305 0.931 . S
H283 C271 0.929 1_545 S
H284 C306 0.930 . S
H285 C277 0.931 . S
H286 C267 0.930 . S
H287 C296 0.929 . S
H288 C272 0.931 . S
H289 C273 0.930 1_545 S
H290 C328 0.930 . S
H291 C269 0.929 . S
H292 C297 0.931 . S
H293 C298 0.930 . S
N294 Gd274 2.622 . S
N294 C295 1.369 . S
N294 C296 1.338 . S
C295 N294 1.369 . S
C295 C299 1.415 . S
C295 C302 1.422 1_565 S
C296 H287 0.929 . S
C296 N294 1.338 . S
C296 C298 1.378 . S
C297 H292 0.931 . S
C297 C298 1.348 . S
C297 C299 1.413 . S
C298 H293 0.930 . S
C298 C296 1.378 . S
C298 C297 1.348 . S
C299 C295 1.415 . S
C299 C297 1.413 . S
C299 C329 1.437 1_565 S
H300 C329 0.929 . S
N301 Gd274 2.570 1_545 S
N301 C302 1.359 . S
N301 C305 1.343 . S
C302 C295 1.422 1_545 S
C302 N301 1.359 . S
C302 C304 1.421 . S
C303 C304 1.422 . S
C303 C306 1.321 . S
C303 H330 0.931 . S
C304 C302 1.421 . S
C304 C303 1.422 . S
C304 C328 1.417 . S
C305 H282 0.931 . S
C305 N301 1.343 . S
C305 C306 1.390 . S
C306 H284 0.930 . S
C306 C303 1.321 . S
C306 C305 1.390 . S
O307 Gd275 2.386 . S
O307 C319 1.265 . S
O308 Gd274 2.353 1_655 S
O308 C319 1.242 . S
O309 Gd274 2.468 . S
O309 C327 1.263 . S
O310 Gd274 2.427 . S
O310 C327 1.252 . S
O311 Gd275 2.307 1_455 S
O311 C320 1.261 . S
O312 Gd274 2.388 . S
O312 C320 1.252 . S
O313 Gd274 2.386 . S
O313 C331 1.265 1_565 S
O314 Gd275 2.353 1_445 S
O314 C331 1.242 . S
O315 Gd275 2.468 . S
O315 C339 1.263 . S
O316 Gd275 2.427 . S
O316 C339 1.252 . S
O317 Gd274 2.307 1_645 S
O317 C332 1.261 . S
O318 Gd275 2.388 1_545 S
O318 C332 1.252 . S
C319 O307 1.265 . S
C319 O308 1.242 . S
C320 O311 1.261 . S
C320 O312 1.252 . S
C321 C324 1.394 . S
C321 C326 1.370 . S
C321 C327 1.500 . S
C322 C325 1.383 . S
C322 C326 1.395 . S
C323 C324 1.396 . S
C323 C325 1.365 . S
C323 H340 0.929 . S
C324 C321 1.394 . S
C324 C323 1.396 . S
C324 H341 0.930 . S
C325 C322 1.383 . S
C325 C323 1.365 . S
C325 H342 0.931 . S
C326 C321 1.370 . S
C326 C322 1.395 . S
C326 H343 0.930 . S
C327 Gd274 2.805 . S
C327 O309 1.263 . S
C327 O310 1.252 . S
C327 C321 1.500 . S
C328 H290 0.930 . S
C328 C304 1.417 . S
C328 C329 1.329 . S
C329 C299 1.437 1_545 S
C329 H300 0.929 . S
C329 C328 1.329 . S
H330 C303 0.931 . S
C331 O313 1.265 1_545 S
C331 O314 1.242 . S
C332 O317 1.261 . S
C332 O318 1.252 . S
C333 C336 1.394 1_565 S
C333 C338 1.370 . S
C333 C339 1.500 . S
C334 C337 1.383 1_565 S
C334 C338 1.395 1_554 S
C335 C336 1.379 1_554 S
C335 C337 1.378 . S
C335 H344 0.933 . S
C336 C333 1.394 1_545 S
C336 C335 1.379 1_556 S
C336 H345 0.930 . S
C337 C334 1.383 1_545 S
C337 C335 1.378 . S
C337 H346 0.931 . S
C338 C333 1.370 . S
C338 C334 1.395 1_556 S
C338 H347 0.930 . S
C339 Gd275 2.805 . S
C339 O315 1.263 . S
C339 O316 1.252 . S
C339 C333 1.500 . S
H340 C323 0.929 . S
H341 C324 0.930 . S
H342 C325 0.931 . S
H343 C326 0.930 . S
H344 C335 0.933 . S
H345 C336 0.930 . S
H346 C337 0.931 . S
H347 C338 0.930 . S
C348 C350 1.422 . S
C348 C352 1.415 . S
C348 N354 1.369 . S
C349 C350 1.421 . S
C349 C351 1.417 . S
C349 C361 1.422 . S
C350 C348 1.422 . S
C350 C349 1.421 . S
C350 N360 1.359 . S
C351 C349 1.417 . S
C351 C353 1.329 1_655 S
C351 H370 0.930 1_655 S
C352 C348 1.415 . S
C352 C353 1.437 1_655 S
C352 C356 1.413 1_655 S
C353 C351 1.329 1_455 S
C353 C352 1.437 1_455 S
C353 H375 0.929 . S
N354 C348 1.369 . S
N354 C355 1.338 . S
N354 Gd359 2.622 . S
C355 N354 1.338 . S
C355 C357 1.378 . S
C355 H367 0.929 . S
C356 C352 1.413 1_455 S
C356 C357 1.348 1_455 S
C356 H372 0.931 . S
C357 C355 1.378 . S
C357 C356 1.348 1_655 S
C357 H373 0.930 1_655 S
Gd358 N378 2.622 . S
Gd358 N385 2.570 . S
Gd358 O392 2.353 . S
Gd358 O393 2.468 . S
Gd358 O394 2.427 . S
Gd358 O396 2.388 . S
Gd358 O397 2.386 . S
Gd358 O401 2.307 . S
Gd358 C411 2.805 . S
Gd359 N354 2.622 . S
Gd359 N360 2.570 . S
Gd359 O391 2.386 . S
Gd359 O395 2.307 . S
Gd359 O398 2.353 . S
Gd359 O399 2.468 . S
Gd359 O400 2.427 . S
Gd359 O402 2.388 . S
Gd359 C423 2.805 . S
N360 C350 1.359 . S
N360 Gd359 2.570 . S
N360 C362 1.343 . S
C361 C349 1.422 . S
C361 C363 1.321 . S
C361 H369 0.931 . S
C362 N360 1.343 . S
C362 C363 1.390 . S
C362 H364 0.931 . S
C363 C361 1.321 . S
C363 C362 1.390 . S
C363 H365 0.930 . S
H364 C362 0.931 . S
H365 C363 0.930 . S
H366 C389 0.931 . S
H367 C355 0.929 . S
H368 C390 0.930 . S
H369 C361 0.931 . S
H370 C351 0.930 1_455 S
H371 C380 0.929 . S
H372 C356 0.931 . S
H373 C357 0.930 1_455 S
H374 C412 0.930 1_655 S
H375 C353 0.929 . S
H376 C381 0.931 . S
H377 C382 0.930 1_655 S
N378 Gd358 2.622 . S
N378 C379 1.369 . S
N378 C380 1.338 . S
C379 N378 1.369 . S
C379 C383 1.415 . S
C379 C386 1.422 . S
C380 H371 0.929 . S
C380 N378 1.338 . S
C380 C382 1.378 . S
C381 H376 0.931 . S
C381 C382 1.348 1_655 S
C381 C383 1.413 1_655 S
C382 H377 0.930 1_455 S
C382 C380 1.378 . S
C382 C381 1.348 1_455 S
C383 C379 1.415 . S
C383 C381 1.413 1_455 S
C383 C413 1.437 1_455 S
H384 C413 0.929 . S
N385 Gd358 2.570 . S
N385 C386 1.359 . S
N385 C389 1.343 . S
C386 C379 1.422 . S
C386 N385 1.359 . S
C386 C388 1.421 . S
C387 C388 1.422 . S
C387 C390 1.321 . S
C387 H414 0.931 . S
C388 C386 1.421 . S
C388 C387 1.422 . S
C388 C412 1.417 . S
C389 H366 0.931 . S
C389 N385 1.343 . S
C389 C390 1.390 . S
C390 H368 0.930 . S
C390 C387 1.321 . S
C390 C389 1.390 . S
O391 Gd359 2.386 . S
O391 C403 1.265 . S
O392 Gd358 2.353 . S
O392 C403 1.242 . S
O393 Gd358 2.468 . S
O393 C411 1.263 . S
O394 Gd358 2.427 . S
O394 C411 1.252 . S
O395 Gd359 2.307 . S
O395 C404 1.261 . S
O396 Gd358 2.388 . S
O396 C404 1.252 . S
O397 Gd358 2.386 . S
O397 C415 1.265 . S
O398 Gd359 2.353 . S
O398 C415 1.242 . S
O399 Gd359 2.468 . S
O399 C423 1.263 . S
O400 Gd359 2.427 . S
O400 C423 1.252 . S
O401 Gd358 2.307 . S
O401 C416 1.261 . S
O402 Gd359 2.388 . S
O402 C416 1.252 . S
C403 O391 1.265 . S
C403 O392 1.242 . S
C404 O395 1.261 . S
C404 O396 1.252 . S
C405 C408 1.394 . S
C405 C410 1.370 . S
C405 C411 1.500 . S
C406 C409 1.383 . S
C406 C410 1.395 1_556 S
C407 C408 1.396 1_556 S
C407 C409 1.365 . S
C407 H424 0.929 . S
C408 C405 1.394 . S
C408 C407 1.396 1_554 S
C408 H425 0.930 . S
C409 C406 1.383 . S
C409 C407 1.365 . S
C409 H426 0.931 . S
C410 C405 1.370 . S
C410 C406 1.395 1_554 S
C410 H427 0.930 . S
C411 Gd358 2.805 . S
C411 O393 1.263 . S
C411 O394 1.252 . S
C411 C405 1.500 . S
C412 H374 0.930 1_455 S
C412 C388 1.417 . S
C412 C413 1.329 1_455 S
C413 C383 1.437 1_655 S
C413 H384 0.929 . S
C413 C412 1.329 1_655 S
H414 C387 0.931 . S
C415 O397 1.265 . S
C415 O398 1.242 . S
C416 O401 1.261 . S
C416 O402 1.252 . S
C417 C420 1.394 . S
C417 C422 1.370 . S
C417 C423 1.500 . S
C418 C421 1.383 . S
C418 C422 1.395 . S
C419 C420 1.396 . S
C419 C421 1.365 . S
C419 H428 0.929 . S
C420 C417 1.394 . S
C420 C419 1.396 . S
C420 H429 0.930 . S
C421 C418 1.383 . S
C421 C419 1.365 . S
C421 H430 0.931 . S
C422 C417 1.370 . S
C422 C418 1.395 . S
C422 H431 0.930 . S
C423 Gd359 2.805 . S
C423 O399 1.263 . S
C423 O400 1.252 . S
C423 C417 1.500 . S
H424 C407 0.929 . S
H425 C408 0.930 . S
H426 C409 0.931 . S
H427 C410 0.930 . S
H428 C419 0.929 . S
H429 C420 0.930 . S
H430 C421 0.931 . S
H431 C422 0.930 . S
C81 C152 1.957 . S
C236 C93 1.957 . S
C235 C57 1.886 . S
C69 C151 1.886 . S
C332 C33 1.939 . S
C416 C45 1.939 . S
C9 C415 1.869 . S
C21 C331 1.868 . S
C154 C18 1.641 . S
C238 C6 1.641 . S
C250 C42 1.320 . S
C166 C30 1.320 . S
C334 C66 1.611 . S
C54 C418 1.611 . S
C406 C90 1.317 . S
C78 C322 1.318 . S
C163 C4 1.547 . S
C247 C16 1.547 . S
C28 C248 1.428 . S
C164 C40 1.428 . S
C319 C52 1.519 . S
C64 C403 1.519 . S
C76 C404 1.410 . S
C88 C320 1.410 . S
