# Generated by pormake.
# Topology pto, (3,4)-cn, num edge types: 1
# Building blocks:
#     Node 0, Type 0, BuildingBlock: CUQRIR_clean_linker_1, # of connection points: 3
#     Node 1, Type 0, BuildingBlock: CUQRIR_clean_linker_1, # of connection points: 3
#     Node 2, Type 0, BuildingBlock: CUQRIR_clean_linker_1, # of connection points: 3
#     Node 3, Type 0, BuildingBlock: CUQRIR_clean_linker_1, # of connection points: 3
#     Node 4, Type 0, BuildingBlock: CUQRIR_clean_linker_1, # of connection points: 3
#     Node 5, Type 0, BuildingBlock: CUQRIR_clean_linker_1, # of connection points: 3
#     Node 6, Type 0, BuildingBlock: CUQRIR_clean_linker_1, # of connection points: 3
#     Node 7, Type 0, BuildingBlock: CUQRIR_clean_linker_1, # of connection points: 3
#     Node 8, Type 1, BuildingBlock: NAWXER_clean_sbu_0, # of connection points: 4
#     Node 9, Type 1, BuildingBlock: NAWXER_clean_sbu_0, # of connection points: 4
#     Node 10, Type 1, BuildingBlock: NAWXER_clean_sbu_0, # of connection points: 4
#     Node 11, Type 1, BuildingBlock: NAWXER_clean_sbu_0, # of connection points: 4
#     Node 12, Type 1, BuildingBlock: NAWXER_clean_sbu_0, # of connection points: 4
#     Node 13, Type 1, BuildingBlock: NAWXER_clean_sbu_0, # of connection points: 4
#     Edge 14, Type (0, 1), BuildingBlock: KIFKEQ_clean_linker_1, # of connection points: 2
#     Edge 15, Type (0, 1), BuildingBlock: KIFKEQ_clean_linker_1, # of connection points: 2
#     Edge 16, Type (0, 1), BuildingBlock: KIFKEQ_clean_linker_1, # of connection points: 2
#     Edge 17, Type (0, 1), BuildingBlock: KIFKEQ_clean_linker_1, # of connection points: 2
#     Edge 18, Type (0, 1), BuildingBlock: KIFKEQ_clean_linker_1, # of connection points: 2
#     Edge 19, Type (0, 1), BuildingBlock: KIFKEQ_clean_linker_1, # of connection points: 2
#     Edge 20, Type (0, 1), BuildingBlock: KIFKEQ_clean_linker_1, # of connection points: 2
#     Edge 21, Type (0, 1), BuildingBlock: KIFKEQ_clean_linker_1, # of connection points: 2
#     Edge 22, Type (0, 1), BuildingBlock: KIFKEQ_clean_linker_1, # of connection points: 2
#     Edge 23, Type (0, 1), BuildingBlock: KIFKEQ_clean_linker_1, # of connection points: 2
#     Edge 24, Type (0, 1), BuildingBlock: KIFKEQ_clean_linker_1, # of connection points: 2
#     Edge 25, Type (0, 1), BuildingBlock: KIFKEQ_clean_linker_1, # of connection points: 2
#     Edge 26, Type (0, 1), BuildingBlock: KIFKEQ_clean_linker_1, # of connection points: 2
#     Edge 27, Type (0, 1), BuildingBlock: KIFKEQ_clean_linker_1, # of connection points: 2
#     Edge 28, Type (0, 1), BuildingBlock: KIFKEQ_clean_linker_1, # of connection points: 2
#     Edge 29, Type (0, 1), BuildingBlock: KIFKEQ_clean_linker_1, # of connection points: 2
#     Edge 30, Type (0, 1), BuildingBlock: KIFKEQ_clean_linker_1, # of connection points: 2
#     Edge 31, Type (0, 1), BuildingBlock: KIFKEQ_clean_linker_1, # of connection points: 2
#     Edge 32, Type (0, 1), BuildingBlock: KIFKEQ_clean_linker_1, # of connection points: 2
#     Edge 33, Type (0, 1), BuildingBlock: KIFKEQ_clean_linker_1, # of connection points: 2
#     Edge 34, Type (0, 1), BuildingBlock: KIFKEQ_clean_linker_1, # of connection points: 2
#     Edge 35, Type (0, 1), BuildingBlock: KIFKEQ_clean_linker_1, # of connection points: 2
#     Edge 36, Type (0, 1), BuildingBlock: KIFKEQ_clean_linker_1, # of connection points: 2
#     Edge 37, Type (0, 1), BuildingBlock: KIFKEQ_clean_linker_1, # of connection points: 2
# Relax obj value: 0.020
# Max RMSD: 0.156
# Mean RMSD: 0.074
data_MOF--net-pto--node1-NAWXER_clean_sbu_0--node2-CUQRIR_clean_linker_1--edge1-KIFKEQ_clean_linker_1
_symmetry_space_group_name_H-M    P1
_symmetry_Int_Tables_number       1
_symmetry_cell_setting            triclinic
loop_
_symmetry_equiv_pos_as_xyz
'x, y, z'
_cell_length_a     40.270064
_cell_length_b     37.19909
_cell_length_c     35.109642
_cell_angle_alpha  78.56022
_cell_angle_beta   95.394044
_cell_angle_gamma 95.262638
loop_
_atom_site_label
_atom_site_type_symbol
_atom_site_fract_x
_atom_site_fract_y
_atom_site_fract_z
_atom_type_partial_charge
C0 C 0.29362 0.3255 0.24005 0.0
N1 N 0.3212 0.30912 0.23509 0.0
N2 N 0.28269 0.34728 0.20633 0.0
C3 C 0.27541 0.31761 0.27671 0.0
C4 C 0.30432 0.34318 0.1805 0.0
N5 N 0.32753 0.3198 0.1979 0.0
C6 C 0.30408 0.36378 0.13905 0.0
H7 H 0.24839 0.32177 0.27001 0.0
H8 H 0.28612 0.33662 0.29612 0.0
H9 H 0.27816 0.28896 0.29249 0.0
H10 H 0.29299 0.39054 0.13584 0.0
H11 H 0.28877 0.34707 0.12 0.0
H12 H 0.32977 0.36863 0.12917 0.0
C13 C 0.3157 0.74801 0.71207 0.0
N14 N 0.34132 0.76636 0.72975 0.0
N15 N 0.30055 0.72156 0.73844 0.0
C16 C 0.30554 0.75613 0.66906 0.0
C17 C 0.31776 0.72465 0.77289 0.0
N18 N 0.34232 0.75229 0.76767 0.0
C19 C 0.31058 0.70068 0.81155 0.0
H20 H 0.28081 0.74243 0.66182 0.0
H21 H 0.32439 0.74623 0.65327 0.0
H22 H 0.30502 0.78627 0.65858 0.0
H23 H 0.29688 0.67418 0.80811 0.0
H24 H 0.29482 0.71522 0.82692 0.0
H25 H 0.33417 0.69513 0.82998 0.0
C26 C 0.86758 0.78545 0.28634 0.0
N27 N 0.85441 0.76763 0.25753 0.0
N28 N 0.84388 0.80326 0.29853 0.0
C29 C 0.90273 0.78283 0.30485 0.0
C30 C 0.8159 0.79565 0.27622 0.0
N31 N 0.82215 0.77368 0.25176 0.0
C32 C 0.78262 0.81075 0.27728 0.0
H33 H 0.90457 0.78827 0.33494 0.0
H34 H 0.91955 0.80357 0.28721 0.0
H35 H 0.91144 0.75524 0.30558 0.0
H36 H 0.78579 0.83706 0.28802 0.0
H37 H 0.76711 0.79053 0.29717 0.0
H38 H 0.76904 0.81528 0.24793 0.0
C39 C 0.75563 0.24941 0.73008 0.0
N40 N 0.78364 0.253 0.71048 0.0
N41 N 0.7554 0.27722 0.74969 0.0
C42 C 0.73031 0.21673 0.7337 0.0
C43 C 0.78429 0.29767 0.74185 0.0
N44 N 0.80144 0.28311 0.718 0.0
C45 C 0.79648 0.331 0.75888 0.0
H46 H 0.71085 0.22148 0.70907 0.0
H47 H 0.71785 0.21272 0.76126 0.0
H48 H 0.74225 0.19126 0.73267 0.0
H49 H 0.81477 0.32276 0.7841 0.0
H50 H 0.77552 0.34314 0.76898 0.0
H51 H 0.80939 0.35208 0.73713 0.0
C52 C 0.81272 0.67081 0.85266 0.0
N53 N 0.83643 0.68724 0.82865 0.0
N54 N 0.79214 0.69573 0.85847 0.0
C55 C 0.81087 0.63094 0.87219 0.0
C56 C 0.80431 0.72792 0.83715 0.0
N57 N 0.83152 0.72285 0.81943 0.0
C58 C 0.78774 0.76356 0.8306 0.0
H59 H 0.79556 0.61467 0.8527 0.0
H60 H 0.79905 0.62681 0.90018 0.0
H61 H 0.83617 0.62052 0.87766 0.0
H62 H 0.79955 0.78032 0.85178 0.0
H63 H 0.76062 0.75861 0.83478 0.0
H64 H 0.79095 0.77954 0.80078 0.0
C65 C 0.82203 0.21975 0.26561 0.0
N66 N 0.84904 0.23601 0.28344 0.0
N67 N 0.8065 0.24477 0.23798 0.0
C68 C 0.80869 0.1804 0.27799 0.0
C69 C 0.82481 0.27686 0.2398 0.0
N70 N 0.85042 0.27169 0.2678 0.0
C71 C 0.81888 0.31266 0.21235 0.0
H72 H 0.7814 0.17689 0.27023 0.0
H73 H 0.81354 0.171 0.30989 0.0
H74 H 0.82151 0.16272 0.26292 0.0
H75 H 0.80242 0.32841 0.22547 0.0
H76 H 0.80636 0.30772 0.18412 0.0
H77 H 0.84279 0.32949 0.20696 0.0
C78 C 0.27465 0.23301 0.81077 0.0
N79 N 0.29351 0.21051 0.79729 0.0
N80 N 0.24986 0.24499 0.78367 0.0
C81 C 0.28289 0.24686 0.84832 0.0
C82 C 0.2545 0.22935 0.7531 0.0
N83 N 0.2811 0.20867 0.76123 0.0
C84 C 0.23281 0.23398 0.71543 0.0
H85 H 0.27324 0.22587 0.87263 0.0
H86 H 0.27138 0.27295 0.84768 0.0
H87 H 0.31035 0.25134 0.85424 0.0
H88 H 0.24429 0.25666 0.69406 0.0
H89 H 0.20738 0.24092 0.71975 0.0
H90 H 0.23091 0.20851 0.70315 0.0
C91 C 0.30841 0.77206 0.30255 0.0
N92 N 0.3158 0.74686 0.28232 0.0
N93 N 0.33566 0.79484 0.3088 0.0
C94 C 0.27483 0.77337 0.31762 0.0
C95 C 0.36008 0.78222 0.292 0.0
N96 N 0.34807 0.75272 0.27613 0.0
C97 C 0.39478 0.80065 0.28807 0.0
H98 H 0.25886 0.79022 0.29469 0.0
H99 H 0.27739 0.78587 0.34403 0.0
H100 H 0.26212 0.74538 0.32467 0.0
H101 H 0.41188 0.78659 0.31188 0.0
H102 H 0.39543 0.83006 0.2902 0.0
H103 H 0.40404 0.79859 0.25986 0.0
C104 C 0.01696 0.4846 0.2761 0.0
C105 C 0.10981 0.57972 0.26514 0.0
O106 O 0.03627 0.49377 0.30397 0.0
Zn107 Zn 0.06169 0.53365 0.27245 0.0
O108 O 0.02027 0.50182 0.24101 0.0
Zn109 Zn 0.05213 0.54549 0.21018 0.0
O110 O 0.07466 0.51914 0.17789 0.0
O111 O 0.08769 0.50313 0.2411 0.0
O112 O 0.09423 0.57661 0.23228 0.0
O113 O 0.0988 0.56089 0.29635 0.0
O114 O 0.02527 0.57285 0.25143 0.0
O115 O 0.02093 0.58257 0.18718 0.0
C116 C 0.09103 0.49963 0.20615 0.0
C117 C 0.0119 0.58919 0.21872 0.0
C118 C 1.003 0.45356 0.7158 0.0
C119 C 0.09867 0.54461 0.72268 0.0
O120 O 0.01464 0.45598 0.75056 0.0
Zn121 Zn 0.05312 0.48655 0.77981 0.0
O122 O 0.01583 0.47478 0.68697 0.0
Zn123 Zn 0.04952 0.50075 0.71746 0.0
O124 O 0.081 0.45715 0.74304 0.0
O125 O 0.08043 0.4477 0.80711 0.0
O126 O 0.0813 0.53884 0.69199 0.0
O127 O 0.09038 0.52698 0.75602 0.0
O128 O 0.02837 0.51287 0.80889 0.0
O129 O 0.01952 0.53099 0.74532 0.0
C130 C 0.09063 0.43947 0.77692 0.0
C131 C 0.0137 0.53325 0.78002 0.0
C132 C 0.39484 0.99691 0.55535 0.0
C133 C 0.37852 0.10605 0.45362 0.0
O134 O 0.36422 1.0013 0.54329 0.0
Zn135 Zn 0.33517 0.0397 0.50372 0.0
O136 O 0.41781 0.02062 0.54207 0.0
Zn137 Zn 0.38811 0.05221 0.50559 0.0
O138 O 0.36264 0.07581 0.54482 0.0
O139 O 0.30904 0.05753 0.53854 0.0
O140 O 0.40626 0.09451 0.46938 0.0
O141 O 0.35106 0.08838 0.46431 0.0
O142 O 0.31357 0.00834 0.46926 0.0
O143 O 0.36841 0.01566 0.46716 0.0
C144 C 0.33277 0.07535 0.55494 0.0
C145 C 0.34001 1.00095 0.4561 0.0
C146 C 0.60912 0.75263 0.08766 0.0
C147 C 0.51552 0.76091 0.98743 0.0
O148 O 0.59372 0.72142 0.08499 0.0
Zn149 Zn 0.55173 0.69974 0.0525 0.0
O150 O 0.59778 0.78181 0.06733 0.0
Zn151 Zn 0.56081 0.75855 0.03887 0.0
O152 O 0.52451 0.7391 0.0804 0.0
O153 O 0.52071 0.67843 0.09214 0.0
O154 O 0.5349 0.7875 0.9963 0.0
O155 O 0.51926 0.72801 0.00611 0.0
O156 O 0.57479 0.66902 0.02529 0.0
O157 O 0.58736 0.72862 0.00755 0.0
C158 C 0.51133 0.70842 0.09824 0.0
C159 C 0.5912 0.69554 0.00459 0.0
C160 C 0.87822 0.94367 0.61598 0.0
C161 C 0.89442 0.05423 0.51482 0.0
O162 O 0.85114 0.95363 0.59607 0.0
Zn163 Zn 0.83547 0.99621 0.54945 0.0
O164 O 0.90552 0.96291 0.60905 0.0
Zn165 Zn 0.88794 0.99945 0.5657 0.0
O166 O 0.85889 0.03192 0.59303 0.0
O167 O 0.80601 0.02327 0.57128 0.0
O168 O 0.91768 0.03816 0.537 0.0
O169 O 0.86408 0.04089 0.51705 0.0
O170 O 0.81736 0.96917 0.5098 0.0
O171 O 0.87205 0.96745 0.52144 0.0
C172 C 0.82819 0.03906 0.59187 0.0
C173 C 0.84471 0.95822 0.5027 0.0
C174 C 0.59766 0.22571 0.06005 0.0
C175 C 0.5048 0.21163 0.9619 0.0
O176 O 0.58239 0.19571 0.05376 0.0
Zn177 Zn 0.55051 0.21727 0.01221 0.0
O178 O 0.58815 0.25632 0.04022 0.0
Zn179 Zn 0.55122 0.27567 0.9947 0.0
O180 O 0.52432 0.30318 0.01978 0.0
O181 O 0.51843 0.24337 0.04213 0.0
O182 O 0.51483 0.24518 0.96285 0.0
O183 O 0.51852 0.18591 0.98587 0.0
O184 O 0.58302 0.24156 0.96727 0.0
O185 O 0.57835 0.30157 0.95382 0.0
C186 C 0.51075 0.27601 0.04246 0.0
C187 C 0.59134 0.27355 0.94768 0.0
H188 H 0.2738 0.39783 0.24849 0.0
H189 H 0.23082 0.35035 0.15098 0.0
H190 H 0.2255 0.43422 0.24349 0.0
H191 H 0.18229 0.38748 0.14526 0.0
H192 H 0.11979 0.49544 0.13863 0.0
H193 H 0.16661 0.45867 0.13381 0.0
H194 H 0.16423 0.41049 0.25598 0.0
H195 H 0.11806 0.44627 0.26088 0.0
C196 C 0.25398 0.39545 0.22586 0.0
C197 C 0.25563 0.37105 0.20051 0.0
C198 C 0.22645 0.41624 0.22287 0.0
C199 C 0.20004 0.41332 0.19423 0.0
C200 C 0.20238 0.39027 0.1675 0.0
C201 C 0.22999 0.36912 0.17076 0.0
C202 C 0.12895 0.47647 0.16418 0.0
C203 C 0.11554 0.47422 0.20025 0.0
C204 C 0.1557 0.45554 0.16143 0.0
C205 C 0.16938 0.43238 0.19475 0.0
C206 C 0.15464 0.42872 0.23005 0.0
C207 C 0.12808 0.44924 0.23275 0.0
H208 H 0.23732 0.73858 0.71541 0.0
H209 H 0.30042 0.64824 0.74608 0.0
H210 H 0.18841 0.69537 0.70681 0.0
H211 H 0.25169 0.60476 0.73837 0.0
H212 H 0.15061 0.54461 0.77765 0.0
H213 H 0.20001 0.58745 0.77741 0.0
H214 H 0.16514 0.64654 0.66431 0.0
H215 H 0.11533 0.60298 0.66422 0.0
C216 C 0.24056 0.70942 0.71995 0.0
C217 C 0.27227 0.69643 0.73164 0.0
C218 C 0.21278 0.68479 0.71491 0.0
C219 C 0.21627 0.64673 0.72203 0.0
C220 C 0.24825 0.63392 0.73296 0.0
C221 C 0.27602 0.65861 0.73743 0.0
C222 C 0.15342 0.56662 0.75258 0.0
C223 C 0.12899 0.57047 0.72097 0.0
C224 C 0.18187 0.59101 0.75238 0.0
C225 C 0.18646 0.62024 0.72082 0.0
C226 C 0.16212 0.62425 0.68906 0.0
C227 C 0.13377 0.5993 0.68893 0.0
H228 H 0.83897 0.69491 0.26442 0.0
H229 H 0.90832 0.78327 0.21568 0.0
H230 H 0.87422 0.65 0.24912 0.0
H231 H 0.94374 0.73867 0.20007 0.0
H232 H 0.9898 0.644 0.15923 0.0
H233 H 0.94743 0.68697 0.16139 0.0
H234 H 0.93191 0.63405 0.28003 0.0
H235 H 0.97413 0.5918 0.27815 0.0
C236 C 0.86124 0.70463 0.24926 0.0
C237 C 0.87102 0.74232 0.24103 0.0
C238 C 0.88158 0.67906 0.24085 0.0
C239 C 0.91191 0.6908 0.22366 0.0
C240 C 0.92046 0.72876 0.21304 0.0
C241 C 0.90029 0.75426 0.22193 0.0
C242 C 0.97716 0.64149 0.18564 0.0
C243 C 0.98549 0.61462 0.21858 0.0
C244 C 0.95298 0.66609 0.18689 0.0
C245 C 0.93617 0.66371 0.22079 0.0
C246 C 0.94404 0.6363 0.2533 0.0
C247 C 0.96851 0.61228 0.25231 0.0
H248 H 0.8158 0.33466 0.65543 0.0
H249 H 0.85965 0.2658 0.75727 0.0
H250 H 0.86818 0.37383 0.64945 0.0
H251 H 0.91261 0.30303 0.75045 0.0
H252 H 0.96927 0.40878 0.77245 0.0
H253 H 0.92428 0.36243 0.76589 0.0
H254 H 0.92829 0.38668 0.64077 0.0
H255 H 0.97363 0.43448 0.64737 0.0
C256 C 0.8374 0.32679 0.6751 0.0
C257 C 0.83415 0.29693 0.70629 0.0
C258 C 0.86733 0.34925 0.6719 0.0
C259 C 0.89445 0.34205 0.69996 0.0
C260 C 0.89202 0.30991 0.72883 0.0
C261 C 0.862 0.28802 0.73234 0.0
C262 C 0.96084 0.40433 0.74341 0.0
C263 C 0.97521 0.42544 0.71043 0.0
C264 C 0.93513 0.37728 0.73967 0.0
C265 C 0.92299 0.37017 0.70283 0.0
C266 C 0.93712 0.39138 0.6696 0.0
C267 C 0.96306 0.41875 0.67337 0.0
H268 H 0.34579 0.31905 0.30654 0.0
H269 H 0.33657 0.24109 0.2296 0.0
H270 H 0.36586 0.2716 0.36053 0.0
H271 H 0.35816 0.1939 0.28324 0.0
H272 H 0.421 0.1304 0.39557 0.0
H273 H 0.41397 0.1823 0.34036 0.0
H274 H 0.32585 0.20822 0.38737 0.0
H275 H 0.33209 0.15607 0.44138 0.0
C276 C 0.34882 0.29194 0.30109 0.0
C277 C 0.33922 0.28347 0.26421 0.0
C278 C 0.36041 0.26495 0.33181 0.0
C279 C 0.3634 0.22919 0.32594 0.0
C280 C 0.3563 0.22141 0.28833 0.0
C281 C 0.34408 0.24833 0.25769 0.0
C282 C 0.40042 0.14754 0.39422 0.0
C283 C 0.37708 0.13932 0.42267 0.0
C284 C 0.39634 0.17698 0.36265 0.0
C285 C 0.36946 0.19918 0.35986 0.0
C286 C 0.3469 0.19165 0.38906 0.0
C287 C 0.35044 0.16179 0.41986 0.0
H288 H 0.33069 0.7697 0.83613 0.0
H289 H 0.40937 0.75833 0.76519 0.0
H290 H 0.37237 0.77795 0.88988 0.0
H291 H 0.45128 0.76833 0.81823 0.0
H292 H 0.51553 0.81278 0.91993 0.0
H293 H 0.47293 0.8177 0.86447 0.0
H294 H 0.41289 0.7277 0.9282 0.0
H295 H 0.45552 0.72211 0.98281 0.0
C296 C 0.35694 0.7694 0.83199 0.0
C297 C 0.36689 0.76268 0.79695 0.0
C298 C 0.38073 0.77438 0.86251 0.0
C299 C 0.41495 0.7736 0.85816 0.0
C300 C 0.42504 0.76933 0.82218 0.0
C301 C 0.40116 0.76366 0.79189 0.0
C302 C 0.49301 0.79443 0.92214 0.0
C303 C 0.4888 0.76699 0.95552 0.0
C304 C 0.4688 0.79715 0.89046 0.0
C305 C 0.43967 0.77314 0.89223 0.0
C306 C 0.43498 0.74673 0.92624 0.0
C307 C 0.45944 0.74344 0.95737 0.0
H308 H 0.80688 0.79029 0.3603 0.0
H309 H 0.88682 0.86174 0.30678 0.0
H310 H 0.80766 0.82762 0.41048 0.0
H311 H 0.88798 0.89937 0.35706 0.0
H312 H 0.8995 0.9355 0.47637 0.0
H313 H 0.90077 0.89686 0.42804 0.0
H314 H 0.79284 0.89 0.41322 0.0
H315 H 0.79146 0.92838 0.46184 0.0
C316 C 0.82466 0.81405 0.35951 0.0
C317 C 0.84662 0.82349 0.32976 0.0
C318 C 0.82506 0.83547 0.38803 0.0
C319 C 0.84765 0.86667 0.38751 0.0
C320 C 0.87042 0.87538 0.35837 0.0
C321 C 0.86985 0.85397 0.32968 0.0
C322 C 0.876 0.92575 0.46285 0.0
C323 C 0.84535 0.93499 0.47305 0.0
C324 C 0.87678 0.90377 0.43499 0.0
C325 C 0.84693 0.89031 0.41688 0.0
C326 C 0.81627 0.89957 0.42704 0.0
C327 C 0.81549 0.92174 0.45473 0.0
H328 H 0.69054 0.29069 0.73511 0.0
H329 H 0.76928 0.27076 0.8268 0.0
H330 H 0.65083 0.29344 0.78351 0.0
H331 H 0.72986 0.27302 0.87538 0.0
H332 H 0.6373 0.22543 0.94466 0.0
H333 H 0.67783 0.22966 0.89635 0.0
H334 H 0.64225 0.33342 0.83612 0.0
H335 H 0.60167 0.32954 0.88509 0.0
C336 C 0.69919 0.28724 0.76567 0.0
C337 C 0.73264 0.28064 0.77762 0.0
C338 C 0.67672 0.28897 0.79321 0.0
C339 C 0.68738 0.28344 0.83308 0.0
C340 C 0.72104 0.27724 0.84483 0.0
C341 C 0.74353 0.27607 0.81725 0.0
C342 C 0.63813 0.24924 0.92122 0.0
C343 C 0.61628 0.27716 0.91861 0.0
C344 C 0.66146 0.25172 0.89372 0.0
C345 C 0.66314 0.28188 0.86264 0.0
C346 C 0.64131 0.30984 0.85982 0.0
C347 C 0.61827 0.3077 0.88786 0.0
H348 H 0.38269 0.76915 0.67326 0.0
H349 H 0.34438 0.83463 0.745 0.0
H350 H 0.4083 0.82478 0.63389 0.0
H351 H 0.36938 0.89065 0.70557 0.0
H352 H 0.42068 0.98787 0.63126 0.0
H353 H 0.41815 0.92989 0.67928 0.0
H354 H 0.38006 0.87161 0.58741 0.0
H355 H 0.38274 0.92904 0.54026 0.0
C356 C 0.38031 0.79558 0.68081 0.0
C357 C 0.36126 0.79804 0.71146 0.0
C358 C 0.3949 0.82736 0.65843 0.0
C359 C 0.39049 0.86223 0.66622 0.0
C360 C 0.37352 0.86428 0.69893 0.0
C361 C 0.35906 0.83237 0.72139 0.0
C362 C 0.41306 0.96232 0.62144 0.0
C363 C 0.40224 0.96255 0.58224 0.0
C364 C 0.41124 0.92926 0.64884 0.0
C365 C 0.39882 0.8961 0.63722 0.0
C366 C 0.39024 0.89639 0.5974 0.0
C367 C 0.39171 0.92929 0.57032 0.0
H368 H 0.81573 0.79978 0.17475 0.0
H369 H 0.77242 0.72177 0.26759 0.0
H370 H 0.76459 0.79258 0.13206 0.0
H371 H 0.72116 0.71452 0.22582 0.0
H372 H 0.63919 0.69457 0.13324 0.0
H373 H 0.69409 0.6945 0.16849 0.0
H374 H 0.70794 0.81238 0.13144 0.0
H375 H 0.65303 0.81241 0.09525 0.0
C376 C 0.79566 0.77995 0.1853 0.0
C377 C 0.79789 0.7608 0.22395 0.0
C378 C 0.76621 0.77633 0.16131 0.0
C379 C 0.73855 0.75339 0.17571 0.0
C380 C 0.74196 0.7322 0.21361 0.0
C381 C 0.77132 0.73601 0.23749 0.0
C382 C 0.6538 0.72058 0.13267 0.0
C383 C 0.64153 0.75358 0.11153 0.0
C384 C 0.68536 0.72048 0.15292 0.0
C385 C 0.70556 0.75336 0.15263 0.0
C386 C 0.69328 0.78645 0.13168 0.0
C387 C 0.66161 0.78656 0.11137 0.0
H388 H 0.84119 0.2185 0.71959 0.0
H389 H 0.7463 0.22804 0.65239 0.0
H390 H 0.85304 0.16889 0.68839 0.0
H391 H 0.75565 0.17548 0.62458 0.0
H392 H 0.78733 0.09285 0.56013 0.0
H393 H 0.7797 0.14806 0.58429 0.0
H394 H 0.84198 0.10831 0.68898 0.0
H395 H 0.8519 0.05487 0.66245 0.0
C396 C 0.82313 0.21042 0.69755 0.0
C397 C 0.79298 0.2274 0.68812 0.0
C398 C 0.82938 0.18105 0.68037 0.0
C399 C 0.8051 0.16709 0.65425 0.0
C400 C 0.77538 0.18522 0.64396 0.0
C401 C 0.76973 0.21528 0.66019 0.0
C402 C 0.79903 0.09589 0.58851 0.0
C403 C 0.81988 0.0695 0.60967 0.0
C404 C 0.79466 0.12764 0.60257 0.0
C405 C 0.81018 0.13328 0.63886 0.0
C406 C 0.83026 0.10594 0.66049 0.0
C407 C 0.83555 0.07482 0.6457 0.0
H408 H 0.39291 0.33719 0.21424 0.0
H409 H 0.32356 0.2813 0.14058 0.0
H410 H 0.43956 0.32583 0.17859 0.0
H411 H 0.36984 0.26922 0.10525 0.0
H412 H 0.46622 0.22417 0.07926 0.0
H413 H 0.42305 0.23287 0.12022 0.0
H414 H 0.45493 0.3484 0.10589 0.0
H415 H 0.49807 0.33993 0.06433 0.0
C416 C 0.38795 0.32197 0.19077 0.0
C417 C 0.35506 0.30992 0.17993 0.0
C418 C 0.41437 0.31572 0.17029 0.0
C419 C 0.40821 0.29672 0.13918 0.0
C420 C 0.37529 0.28371 0.12927 0.0
C421 C 0.34891 0.29056 0.14929 0.0
C422 C 0.4642 0.25143 0.08496 0.0
C423 C 0.48549 0.28142 0.06843 0.0
C424 C 0.43942 0.25636 0.10832 0.0
C425 C 0.43572 0.29126 0.11619 0.0
C426 C 0.45747 0.32114 0.10049 0.0
C427 C 0.48197 0.31633 0.07653 0.0
H428 H 0.8302 0.63404 0.78632 0.0
H429 H 0.90231 0.70053 0.84591 0.0
H430 H 0.87497 0.59892 0.77286 0.0
H431 H 0.94747 0.66523 0.83302 0.0
H432 H 1.00337 0.55618 0.84738 0.0
H433 H 0.96176 0.59726 0.85638 0.0
H434 H 0.9272 0.60891 0.73473 0.0
H435 H 0.96874 0.56829 0.72553 0.0
C436 C 0.85584 0.64129 0.79599 0.0
C437 C 0.86314 0.66978 0.81695 0.0
C438 C 0.88139 0.62136 0.78835 0.0
C439 C 0.91467 0.62925 0.80209 0.0
C440 C 0.92201 0.6584 0.82238 0.0
C441 C 0.89641 0.67873 0.82945 0.0
C442 C 0.987 0.56766 0.82254 0.0
C443 C 0.98932 0.55887 0.78579 0.0
C444 C 0.96336 0.59135 0.82764 0.0
C445 C 0.94127 0.60623 0.79623 0.0
C446 C 0.94378 0.59766 0.75948 0.0
C447 C 0.96767 0.57448 0.75425 0.0
H448 H 0.83721 0.33538 0.28656 0.0
H449 H 0.91779 0.27094 0.27424 0.0
H450 H 0.87751 0.38706 0.29543 0.0
H451 H 0.95848 0.32227 0.28459 0.0
H452 H 0.01958 0.42113 0.33117 0.0
H453 H 0.97909 0.36694 0.33656 0.0
H454 H 0.91635 0.42443 0.24175 0.0
H455 H 0.95686 0.4778 0.23569 0.0
C456 C 0.86364 0.33226 0.28622 0.0
C457 C 0.8745 0.29967 0.27887 0.0
C458 C 0.88663 0.36162 0.29153 0.0
C459 C 0.921 0.35865 0.29041 0.0
C460 C 0.93209 0.32512 0.28578 0.0
C461 C 0.90894 0.29587 0.27986 0.0
C462 C 0.99688 0.42223 0.31194 0.0
C463 C 0.99128 0.45356 0.28301 0.0
C464 C 0.97391 0.39126 0.31487 0.0
C465 C 0.94466 0.39166 0.28962 0.0
C466 C 0.93858 0.42354 0.26177 0.0
C467 C 0.96179 0.45399 0.25823 0.0
H468 H 0.24591 0.30972 0.73431 0.0
H469 H 0.20395 0.24264 0.83545 0.0
H470 H 0.20755 0.35682 0.73464 0.0
H471 H 0.16477 0.28948 0.83584 0.0
H472 H 0.12216 0.39983 0.84292 0.0
H473 H 0.16127 0.3524 0.84624 0.0
H474 H 0.14877 0.36427 0.7209 0.0
H475 H 0.11068 0.41178 0.71749 0.0
C476 C 0.22813 0.30511 0.75639 0.0
C477 C 0.22738 0.27264 0.78454 0.0
C478 C 0.20614 0.33192 0.75665 0.0
C479 C 0.1828 0.32677 0.78504 0.0
C480 C 0.18256 0.29443 0.81374 0.0
C481 C 0.20472 0.26759 0.81348 0.0
C482 C 0.1278 0.39223 0.81614 0.0
C483 C 0.11349 0.40983 0.77994 0.0
C484 C 0.15007 0.36495 0.81804 0.0
C485 C 0.15841 0.35478 0.78379 0.0
C486 C 0.14352 0.37196 0.74778 0.0
C487 C 0.12147 0.39914 0.74588 0.0
H488 H 0.3125 0.67502 0.31461 0.0
H489 H 0.26538 0.75648 0.22714 0.0
H490 H 0.2636 0.63124 0.30863 0.0
H491 H 0.21635 0.71359 0.22106 0.0
H492 H 0.13988 0.62088 0.20278 0.0
H493 H 0.19336 0.65687 0.20233 0.0
H494 H 0.20603 0.6277 0.32791 0.0
H495 H 0.15254 0.59079 0.32837 0.0
C496 C 0.29209 0.68287 0.29306 0.0
C497 C 0.29258 0.7186 0.27084 0.0
C498 C 0.26391 0.65824 0.29009 0.0
C499 C 0.23585 0.66906 0.26472 0.0
C500 C 0.23754 0.70415 0.24064 0.0
C501 C 0.2656 0.72867 0.24381 0.0
C502 C 0.15394 0.62213 0.2304 0.0
C503 C 0.14171 0.6031 0.26569 0.0
C504 C 0.18469 0.64281 0.23008 0.0
C505 C 0.20408 0.64513 0.26503 0.0
C506 C 0.19197 0.62602 0.30038 0.0
C507 C 0.16111 0.60523 0.30072 0.0
H508 H 0.86446 0.78638 0.83142 0.0
H509 H 0.83533 0.72094 0.74386 0.0
H510 H 0.88206 0.83846 0.78092 0.0
H511 H 0.85294 0.77274 0.69305 0.0
H512 H 0.82905 0.88829 0.62185 0.0
H513 H 0.82524 0.832 0.67049 0.0
H514 H 0.92065 0.86365 0.72613 0.0
H515 H 0.9247 0.92053 0.67674 0.0
C516 C 0.86285 0.78298 0.80136 0.0
C517 C 0.84859 0.74996 0.79125 0.0
C518 C 0.87292 0.81263 0.7725 0.0
C519 C 0.86854 0.80982 0.73297 0.0
C520 C 0.8563 0.77584 0.72324 0.0
C521 C 0.84654 0.74612 0.75218 0.0
C522 C 0.84937 0.88333 0.64429 0.0
C523 C 0.8771 0.90908 0.64553 0.0
C524 C 0.84732 0.8508 0.67197 0.0
C525 C 0.87275 0.84321 0.70199 0.0
C526 C 0.90068 0.86878 0.70328 0.0
C527 C 0.903 0.90127 0.67504 0.0
H528 H 0.79224 0.19675 0.18926 0.0
H529 H 0.75109 0.28052 0.23542 0.0
H530 H 0.74017 0.18958 0.14813 0.0
H531 H 0.69901 0.27346 0.19495 0.0
H532 H 0.63201 0.28573 0.08185 0.0
H533 H 0.68161 0.28807 0.1263 0.0
H534 H 0.67993 0.16948 0.1488 0.0
H535 H 0.63008 0.16708 0.1033 0.0
C536 C 0.77183 0.21334 0.1907 0.0
C537 C 0.77557 0.23946 0.21494 0.0
C538 C 0.74204 0.20918 0.16742 0.0
C539 C 0.71549 0.23114 0.16803 0.0
C540 C 0.71915 0.2566 0.19319 0.0
C541 C 0.74887 0.26071 0.21634 0.0
C542 C 0.64199 0.26002 0.09632 0.0
C543 C 0.62698 0.22618 0.08895 0.0
C544 C 0.67042 0.2614 0.12207 0.0
C545 C 0.68471 0.22897 0.1413 0.0
C546 C 0.66966 0.19499 0.13421 0.0
C547 C 0.641 0.19359 0.10836 0.0
H548 H 0.30822 0.23792 0.69406 0.0
H549 H 0.28125 0.13531 0.76935 0.0
H550 H 0.32264 0.20465 0.64487 0.0
H551 H 0.2952 0.10153 0.72004 0.0
H552 H 0.27801 0.06626 0.59765 0.0
H553 H 0.26881 0.09745 0.65054 0.0
H554 H 0.36429 0.15936 0.63599 0.0
H555 H 0.37372 0.12807 0.58346 0.0
C556 C 0.30597 0.20813 0.7001 0.0
C557 C 0.29388 0.18893 0.73518 0.0
C558 C 0.31416 0.18912 0.67215 0.0
C559 C 0.30982 0.15052 0.67857 0.0
C560 C 0.2985 0.13129 0.71424 0.0
C561 C 0.29085 0.15041 0.74249 0.0
C562 C 0.297 0.08656 0.60571 0.0
C563 C 0.32654 0.09476 0.58629 0.0
C564 C 0.29187 0.10414 0.63619 0.0
C565 C 0.31592 0.13069 0.64744 0.0
C566 C 0.34531 0.13909 0.62784 0.0
C567 C 0.35068 0.12112 0.59782 0.0
H568 H 0.40305 0.7153 0.2974 0.0
H569 H 0.33365 0.75282 0.19983 0.0
H570 H 0.44007 0.69795 0.25337 0.0
H571 H 0.37051 0.73581 0.15546 0.0
H572 H 0.47163 0.76389 0.09649 0.0
H573 H 0.42812 0.76677 0.13913 0.0
H574 H 0.44608 0.65736 0.20188 0.0
H575 H 0.48976 0.65414 0.15837 0.0
C576 C 0.39537 0.7187 0.26658 0.0
C577 C 0.36563 0.73518 0.25181 0.0
C578 C 0.41644 0.70882 0.24141 0.0
C579 C 0.40832 0.7158 0.20093 0.0
C580 C 0.37752 0.73033 0.1865 0.0
C581 C 0.35629 0.73974 0.21177 0.0
C582 C 0.46629 0.74029 0.11923 0.0
C583 C 0.48432 0.70884 0.12416 0.0
C584 C 0.44109 0.74184 0.14344 0.0
C585 C 0.43349 0.71221 0.17369 0.0
C586 C 0.45138 0.68059 0.17873 0.0
C587 C 0.47631 0.67873 0.15385 0.0
H588 H 0.85923 0.25662 0.35327 0.0
H589 H 0.88344 0.17621 0.28939 0.0
H590 H 0.88323 0.22024 0.41368 0.0
H591 H 0.90599 0.13863 0.34979 0.0
H592 H 0.94371 0.07347 0.46357 0.0
H593 H 0.94428 0.12591 0.4084 0.0
H594 H 0.8581 0.16415 0.44872 0.0
H595 H 0.85795 0.11268 0.50305 0.0
C596 C 0.87059 0.23162 0.35213 0.0
C597 C 0.86919 0.21881 0.31703 0.0
C598 C 0.88406 0.21059 0.38667 0.0
C599 C 0.89597 0.17611 0.38677 0.0
C600 C 0.89724 0.16504 0.35091 0.0
C601 C 0.88403 0.18628 0.31636 0.0
C602 C 0.92573 0.09391 0.46109 0.0
C603 C 0.90064 0.08906 0.4872 0.0
C604 C 0.92583 0.12371 0.42945 0.0
C605 C 0.90111 0.14919 0.42395 0.0
C606 C 0.87781 0.14555 0.4521 0.0
C607 C 0.87751 0.11581 0.48317 0.0
H608 H 0.35332 0.22653 0.76721 0.0
H609 H 0.30503 0.16841 0.86828 0.0
H610 H 0.40801 0.2184 0.80308 0.0
H611 H 0.35954 0.16131 0.90505 0.0
H612 H 0.46512 0.14727 0.96087 0.0
H613 H 0.41582 0.13792 0.91619 0.0
H614 H 0.43238 0.24983 0.85433 0.0
H615 H 0.48121 0.2589 0.89811 0.0
C616 C 0.35458 0.21092 0.79674 0.0
C617 C 0.32518 0.19816 0.81516 0.0
C618 C 0.38579 0.20667 0.8175 0.0
C619 C 0.38814 0.1898 0.85719 0.0
C620 C 0.35872 0.17429 0.87455 0.0
C621 C 0.32752 0.17846 0.85366 0.0
C622 C 0.45843 0.16959 0.93731 0.0
C623 C 0.47691 0.20391 0.93326 0.0
C624 C 0.43017 0.1643 0.91183 0.0
C625 C 0.42018 0.19308 0.88158 0.0
C626 C 0.43956 0.22682 0.8768 0.0
C627 C 0.46745 0.23217 0.90228 0.0
H628 H 0.29605 0.85131 0.29095 0.0
H629 H 0.37899 0.80905 0.36819 0.0
H630 H 0.29663 0.90314 0.32458 0.0
H631 H 0.38003 0.86094 0.40189 0.0
H632 H 0.39278 0.97672 0.42767 0.0
H633 H 0.39212 0.92834 0.39004 0.0
H634 H 0.28446 0.9137 0.3895 0.0
H635 H 0.28499 0.96255 0.42709 0.0
C636 C 0.31437 0.85326 0.31522 0.0
C637 C 0.33739 0.82632 0.32725 0.0
C638 C 0.3147 0.88277 0.33448 0.0
C639 C 0.3383 0.88608 0.36596 0.0
C640 C 0.36176 0.85939 0.37747 0.0
C641 C 0.36125 0.82975 0.35831 0.0
C642 C 0.36887 0.96347 0.41931 0.0
C643 C 0.3389 0.97351 0.43051 0.0
C644 C 0.36857 0.93553 0.39795 0.0
C645 C 0.3383 0.917 0.38706 0.0
C646 C 0.3082 0.92766 0.39726 0.0
C647 C 0.30849 0.95557 0.41887 0.0
H648 H 0.78097 0.7328 0.91372 0.0
H649 H 0.73936 0.64539 0.85542 0.0
H650 H 0.73027 0.72792 0.9483 0.0
H651 H 0.68863 0.63965 0.89095 0.0
H652 H 0.62047 0.6315 1.00217 0.0
H653 H 0.66963 0.62667 0.96707 0.0
H654 H 0.66942 0.74213 0.91611 0.0
H655 H 0.6208 0.74702 0.94996 0.0
C656 C 0.761 0.71233 0.90869 0.0
C657 C 0.76376 0.6898 0.8817 0.0
C658 C 0.73213 0.70941 0.92846 0.0
C659 C 0.70551 0.68357 0.92202 0.0
C660 C 0.70888 0.65964 0.89652 0.0
C661 C 0.73778 0.6629 0.8763 0.0
C662 C 0.63056 0.65558 0.98281 0.0
C663 C 0.61697 0.68972 0.97931 0.0
C664 C 0.65867 0.65283 0.96289 0.0
C665 C 0.67359 0.68424 0.93959 0.0
C666 C 0.65879 0.71768 0.93449 0.0
C667 C 0.63082 0.72036 0.95389 0.0
loop_
_geom_bond_atom_site_label_1
_geom_bond_atom_site_label_2
_geom_bond_distance
_geom_bond_site_symmetry_2
_ccdc_geom_bond_type
C0 N1 1.317 . S
C0 N2 1.348 . S
C0 C3 1.485 . S
N1 C0 1.317 . S
N1 N5 1.370 . S
N2 C0 1.348 . S
N2 C4 1.346 . S
C3 C0 1.485 . S
C3 H7 0.960 . S
C3 H8 0.961 . S
C3 H9 0.960 . S
C4 N2 1.346 . S
C4 N5 1.307 . S
C4 C6 1.486 . S
N5 N1 1.370 . S
N5 C4 1.307 . S
C6 C4 1.486 . S
C6 H10 0.960 . S
C6 H11 0.960 . S
C6 H12 0.959 . S
H7 C3 0.960 . S
H8 C3 0.961 . S
H9 C3 0.960 . S
H10 C6 0.960 . S
H11 C6 0.960 . S
H12 C6 0.959 . S
C13 N14 1.317 . S
C13 N15 1.348 . S
C13 C16 1.485 . S
N14 C13 1.317 . S
N14 N18 1.370 . S
N15 C13 1.348 . S
N15 C17 1.346 . S
C16 C13 1.485 . S
C16 H20 0.960 . S
C16 H21 0.961 . S
C16 H22 0.960 . S
C17 N15 1.346 . S
C17 N18 1.307 . S
C17 C19 1.486 . S
N18 N14 1.370 . S
N18 C17 1.307 . S
C19 C17 1.486 . S
C19 H23 0.960 . S
C19 H24 0.960 . S
C19 H25 0.959 . S
H20 C16 0.960 . S
H21 C16 0.961 . S
H22 C16 0.960 . S
H23 C19 0.960 . S
H24 C19 0.960 . S
H25 C19 0.959 . S
C26 N27 1.317 . S
C26 N28 1.348 . S
C26 C29 1.485 . S
N27 C26 1.317 . S
N27 N31 1.370 . S
N28 C26 1.348 . S
N28 C30 1.346 . S
C29 C26 1.485 . S
C29 H33 0.960 . S
C29 H34 0.961 . S
C29 H35 0.960 . S
C30 N28 1.346 . S
C30 N31 1.307 . S
C30 C32 1.486 . S
N31 N27 1.370 . S
N31 C30 1.307 . S
C32 C30 1.486 . S
C32 H36 0.960 . S
C32 H37 0.960 . S
C32 H38 0.959 . S
H33 C29 0.960 . S
H34 C29 0.961 . S
H35 C29 0.960 . S
H36 C32 0.960 . S
H37 C32 0.960 . S
H38 C32 0.959 . S
C39 N40 1.317 . S
C39 N41 1.348 . S
C39 C42 1.485 . S
N40 C39 1.317 . S
N40 N44 1.370 . S
N41 C39 1.348 . S
N41 C43 1.346 . S
C42 C39 1.485 . S
C42 H46 0.960 . S
C42 H47 0.961 . S
C42 H48 0.960 . S
C43 N41 1.346 . S
C43 N44 1.307 . S
C43 C45 1.486 . S
N44 N40 1.370 . S
N44 C43 1.307 . S
C45 C43 1.486 . S
C45 H49 0.960 . S
C45 H50 0.960 . S
C45 H51 0.959 . S
H46 C42 0.960 . S
H47 C42 0.961 . S
H48 C42 0.960 . S
H49 C45 0.960 . S
H50 C45 0.960 . S
H51 C45 0.959 . S
C52 N53 1.317 . S
C52 N54 1.348 . S
C52 C55 1.485 . S
N53 C52 1.317 . S
N53 N57 1.370 . S
N54 C52 1.348 . S
N54 C56 1.346 . S
C55 C52 1.485 . S
C55 H59 0.960 . S
C55 H60 0.961 . S
C55 H61 0.960 . S
C56 N54 1.346 . S
C56 N57 1.307 . S
C56 C58 1.486 . S
N57 N53 1.370 . S
N57 C56 1.307 . S
C58 C56 1.486 . S
C58 H62 0.960 . S
C58 H63 0.960 . S
C58 H64 0.959 . S
H59 C55 0.960 . S
H60 C55 0.961 . S
H61 C55 0.960 . S
H62 C58 0.960 . S
H63 C58 0.960 . S
H64 C58 0.959 . S
C65 N66 1.317 . S
C65 N67 1.348 . S
C65 C68 1.485 . S
N66 C65 1.317 . S
N66 N70 1.370 . S
N67 C65 1.348 . S
N67 C69 1.346 . S
C68 C65 1.485 . S
C68 H72 0.960 . S
C68 H73 0.961 . S
C68 H74 0.960 . S
C69 N67 1.346 . S
C69 N70 1.307 . S
C69 C71 1.486 . S
N70 N66 1.370 . S
N70 C69 1.307 . S
C71 C69 1.486 . S
C71 H75 0.960 . S
C71 H76 0.960 . S
C71 H77 0.959 . S
H72 C68 0.960 . S
H73 C68 0.961 . S
H74 C68 0.960 . S
H75 C71 0.960 . S
H76 C71 0.960 . S
H77 C71 0.959 . S
C78 N79 1.317 . S
C78 N80 1.348 . S
C78 C81 1.485 . S
N79 C78 1.317 . S
N79 N83 1.370 . S
N80 C78 1.348 . S
N80 C82 1.346 . S
C81 C78 1.485 . S
C81 H85 0.960 . S
C81 H86 0.961 . S
C81 H87 0.960 . S
C82 N80 1.346 . S
C82 N83 1.307 . S
C82 C84 1.486 . S
N83 N79 1.370 . S
N83 C82 1.307 . S
C84 C82 1.486 . S
C84 H88 0.960 . S
C84 H89 0.960 . S
C84 H90 0.959 . S
H85 C81 0.960 . S
H86 C81 0.961 . S
H87 C81 0.960 . S
H88 C84 0.960 . S
H89 C84 0.960 . S
H90 C84 0.959 . S
C91 N92 1.317 . S
C91 N93 1.348 . S
C91 C94 1.485 . S
N92 C91 1.317 . S
N92 N96 1.370 . S
N93 C91 1.348 . S
N93 C95 1.346 . S
C94 C91 1.485 . S
C94 H98 0.960 . S
C94 H99 0.961 . S
C94 H100 0.960 . S
C95 N93 1.346 . S
C95 N96 1.307 . S
C95 C97 1.486 . S
N96 N92 1.370 . S
N96 C95 1.307 . S
C97 C95 1.486 . S
C97 H101 0.960 . S
C97 H102 0.960 . S
C97 H103 0.959 . S
H98 C94 0.960 . S
H99 C94 0.961 . S
H100 C94 0.960 . S
H101 C97 0.960 . S
H102 C97 0.960 . S
H103 C97 0.959 . S
C104 O106 1.247 . S
C104 O108 1.258 . S
C105 O112 1.247 . S
C105 O113 1.258 . S
O106 C104 1.247 . S
O106 Zn107 2.028 . S
Zn107 O106 2.028 . S
Zn107 O111 2.035 . S
Zn107 O113 2.035 . S
Zn107 O114 2.028 . S
O108 C104 1.258 . S
O108 Zn109 2.035 . S
Zn109 O108 2.035 . S
Zn109 O110 2.028 . S
Zn109 O112 2.028 . S
Zn109 O115 2.035 . S
O110 Zn109 2.028 . S
O110 C116 1.247 . S
O111 Zn107 2.035 . S
O111 C116 1.258 . S
O112 C105 1.247 . S
O112 Zn109 2.028 . S
O113 C105 1.258 . S
O113 Zn107 2.035 . S
O114 Zn107 2.028 . S
O114 C117 1.247 . S
O115 Zn109 2.035 . S
O115 C117 1.258 . S
C116 O110 1.247 . S
C116 O111 1.258 . S
C117 O114 1.247 . S
C117 O115 1.258 . S
C118 O120 1.247 . S
C118 O122 1.258 . S
C119 O126 1.247 . S
C119 O127 1.258 . S
O120 C118 1.247 . S
O120 Zn121 2.028 1_655 S
Zn121 O120 2.028 1_455 S
Zn121 O125 2.035 . S
Zn121 O127 2.035 . S
Zn121 O128 2.028 1_455 S
O122 C118 1.258 . S
O122 Zn123 2.035 1_655 S
Zn123 O122 2.035 1_455 S
Zn123 O124 2.028 . S
Zn123 O126 2.028 . S
Zn123 O129 2.035 1_455 S
O124 Zn123 2.028 . S
O124 C130 1.247 . S
O125 Zn121 2.035 . S
O125 C130 1.258 . S
O126 C119 1.247 . S
O126 Zn123 2.028 . S
O127 C119 1.258 . S
O127 Zn121 2.035 . S
O128 Zn121 2.028 1_655 S
O128 C131 1.247 . S
O129 Zn123 2.035 1_655 S
O129 C131 1.258 . S
C130 O124 1.247 . S
C130 O125 1.258 . S
C131 O128 1.247 . S
C131 O129 1.258 . S
C132 O134 1.247 . S
C132 O136 1.258 . S
C133 O140 1.247 . S
C133 O141 1.258 . S
O134 C132 1.247 . S
O134 Zn135 2.028 1_565 S
Zn135 O134 2.028 1_545 S
Zn135 O139 2.035 . S
Zn135 O141 2.035 . S
Zn135 O142 2.028 1_545 S
O136 C132 1.258 . S
O136 Zn137 2.035 1_565 S
Zn137 O136 2.035 1_545 S
Zn137 O138 2.028 . S
Zn137 O140 2.028 . S
Zn137 O143 2.035 1_545 S
O138 Zn137 2.028 . S
O138 C144 1.247 . S
O139 Zn135 2.035 . S
O139 C144 1.258 . S
O140 C133 1.247 . S
O140 Zn137 2.028 . S
O141 C133 1.258 . S
O141 Zn135 2.035 . S
O142 Zn135 2.028 1_565 S
O142 C145 1.247 . S
O143 Zn137 2.035 1_565 S
O143 C145 1.258 . S
C144 O138 1.247 . S
C144 O139 1.258 . S
C145 O142 1.247 . S
C145 O143 1.258 . S
C146 O148 1.247 . S
C146 O150 1.258 . S
C147 O154 1.247 . S
C147 O155 1.258 . S
O148 C146 1.247 . S
O148 Zn149 2.028 . S
Zn149 O148 2.028 . S
Zn149 O153 2.035 . S
Zn149 O155 2.035 . S
Zn149 O156 2.028 . S
O150 C146 1.258 . S
O150 Zn151 2.035 . S
Zn151 O150 2.035 . S
Zn151 O152 2.028 . S
Zn151 O154 2.028 . S
Zn151 O157 2.035 . S
O152 Zn151 2.028 . S
O152 C158 1.247 . S
O153 Zn149 2.035 . S
O153 C158 1.258 . S
O154 C147 1.247 . S
O154 Zn151 2.028 . S
O155 C147 1.258 . S
O155 Zn149 2.035 . S
O156 Zn149 2.028 . S
O156 C159 1.247 . S
O157 Zn151 2.035 . S
O157 C159 1.258 . S
C158 O152 1.247 . S
C158 O153 1.258 . S
C159 O156 1.247 . S
C159 O157 1.258 . S
C160 O162 1.247 . S
C160 O164 1.258 . S
C161 O168 1.247 . S
C161 O169 1.258 . S
O162 C160 1.247 . S
O162 Zn163 2.028 1_565 S
Zn163 O162 2.028 1_545 S
Zn163 O167 2.035 . S
Zn163 O169 2.035 . S
Zn163 O170 2.028 1_545 S
O164 C160 1.258 . S
O164 Zn165 2.035 1_565 S
Zn165 O164 2.035 1_545 S
Zn165 O166 2.028 . S
Zn165 O168 2.028 . S
Zn165 O171 2.057 . S
O166 Zn165 2.028 . S
O166 C172 1.247 . S
O167 Zn163 2.035 . S
O167 C172 1.258 . S
O168 C161 1.247 . S
O168 Zn165 2.028 . S
O169 C161 1.258 . S
O169 Zn163 2.035 . S
O170 Zn163 2.028 1_565 S
O170 C173 1.247 . S
O171 Zn165 2.057 . S
O171 C173 1.245 1_545 S
C172 O166 1.247 . S
C172 O167 1.258 . S
C173 O170 1.247 . S
C173 O171 1.245 1_565 S
C174 O176 1.247 . S
C174 O178 1.258 . S
C175 O182 1.247 . S
C175 O183 1.258 . S
O176 C174 1.247 . S
O176 Zn177 2.028 . S
Zn177 O176 2.028 . S
Zn177 O181 2.035 . S
Zn177 O183 2.035 1_554 S
Zn177 O184 2.028 1_554 S
O178 C174 1.258 . S
O178 Zn179 2.035 1_554 S
Zn179 O178 2.035 1_556 S
Zn179 O180 2.028 1_556 S
Zn179 O182 2.028 . S
Zn179 O185 2.035 . S
O180 Zn179 2.028 1_554 S
O180 C186 1.247 . S
O181 Zn177 2.035 . S
O181 C186 1.258 . S
O182 C175 1.247 . S
O182 Zn179 2.028 . S
O183 C175 1.258 . S
O183 Zn177 2.035 1_556 S
O184 Zn177 2.028 1_556 S
O184 C187 1.247 . S
O185 Zn179 2.035 . S
O185 C187 1.258 . S
C186 O180 1.247 . S
C186 O181 1.258 . S
C187 O184 1.247 . S
C187 O185 1.258 . S
H188 C196 0.950 . S
H189 C201 0.950 . S
H190 C198 0.950 . S
H191 C200 0.950 . S
H192 C202 0.950 . S
H193 C204 0.950 . S
H194 C206 0.950 . S
H195 C207 0.950 . S
C196 H188 0.950 . S
C196 C197 1.386 . S
C196 C198 1.391 . S
C197 C196 1.386 . S
C197 C201 1.393 . S
C198 H190 0.950 . S
C198 C196 1.391 . S
C198 C199 1.400 . S
C199 C198 1.400 . S
C199 C200 1.398 . S
C199 C205 1.491 . S
C200 H191 0.950 . S
C200 C199 1.398 . S
C200 C201 1.391 . S
C201 H189 0.950 . S
C201 C197 1.393 . S
C201 C200 1.391 . S
C202 H192 0.950 . S
C202 C203 1.386 . S
C202 C204 1.391 . S
C203 C202 1.386 . S
C203 C207 1.393 . S
C204 H193 0.950 . S
C204 C202 1.391 . S
C204 C205 1.400 . S
C205 C199 1.491 . S
C205 C204 1.400 . S
C205 C206 1.398 . S
C206 H194 0.950 . S
C206 C205 1.398 . S
C206 C207 1.391 . S
C207 H195 0.950 . S
C207 C203 1.393 . S
C207 C206 1.391 . S
H208 C216 0.950 . S
H209 C221 0.950 . S
H210 C218 0.950 . S
H211 C220 0.950 . S
H212 C222 0.950 . S
H213 C224 0.950 . S
H214 C226 0.950 . S
H215 C227 0.950 . S
C216 H208 0.950 . S
C216 C217 1.386 . S
C216 C218 1.391 . S
C217 C216 1.386 . S
C217 C221 1.393 . S
C218 H210 0.950 . S
C218 C216 1.391 . S
C218 C219 1.400 . S
C219 C218 1.400 . S
C219 C220 1.398 . S
C219 C225 1.491 . S
C220 H211 0.950 . S
C220 C219 1.398 . S
C220 C221 1.391 . S
C221 H209 0.950 . S
C221 C217 1.393 . S
C221 C220 1.391 . S
C222 H212 0.950 . S
C222 C223 1.386 . S
C222 C224 1.391 . S
C223 C222 1.386 . S
C223 C227 1.393 . S
C224 H213 0.950 . S
C224 C222 1.391 . S
C224 C225 1.400 . S
C225 C219 1.491 . S
C225 C224 1.400 . S
C225 C226 1.398 . S
C226 H214 0.950 . S
C226 C225 1.398 . S
C226 C227 1.391 . S
C227 H215 0.950 . S
C227 C223 1.393 . S
C227 C226 1.391 . S
H228 C236 0.950 . S
H229 C241 0.950 . S
H230 C238 0.950 . S
H231 C240 0.950 . S
H232 C242 0.950 . S
H233 C244 0.950 . S
H234 C246 0.950 . S
H235 C247 0.950 1_455 S
C236 H228 0.950 . S
C236 C237 1.386 . S
C236 C238 1.391 . S
C237 C236 1.386 . S
C237 C241 1.393 . S
C238 H230 0.950 . S
C238 C236 1.391 . S
C238 C239 1.400 . S
C239 C238 1.400 . S
C239 C240 1.398 . S
C239 C245 1.491 . S
C240 H231 0.950 . S
C240 C239 1.398 . S
C240 C241 1.391 . S
C241 H229 0.950 . S
C241 C237 1.393 . S
C241 C240 1.391 . S
C242 H232 0.950 . S
C242 C243 1.386 . S
C242 C244 1.391 . S
C243 C242 1.386 . S
C243 C247 1.393 . S
C244 H233 0.950 . S
C244 C242 1.391 . S
C244 C245 1.400 . S
C245 C239 1.491 . S
C245 C244 1.400 . S
C245 C246 1.398 . S
C246 H234 0.950 . S
C246 C245 1.398 . S
C246 C247 1.391 . S
C247 H235 0.950 1_655 S
C247 C243 1.393 . S
C247 C246 1.391 . S
H248 C256 0.950 . S
H249 C261 0.950 . S
H250 C258 0.950 . S
H251 C260 0.950 . S
H252 C262 0.950 . S
H253 C264 0.950 . S
H254 C266 0.950 . S
H255 C267 0.950 . S
C256 H248 0.950 . S
C256 C257 1.386 . S
C256 C258 1.391 . S
C257 C256 1.386 . S
C257 C261 1.393 . S
C258 H250 0.950 . S
C258 C256 1.391 . S
C258 C259 1.400 . S
C259 C258 1.400 . S
C259 C260 1.398 . S
C259 C265 1.491 . S
C260 H251 0.950 . S
C260 C259 1.398 . S
C260 C261 1.391 . S
C261 H249 0.950 . S
C261 C257 1.393 . S
C261 C260 1.391 . S
C262 H252 0.950 . S
C262 C263 1.386 . S
C262 C264 1.391 . S
C263 C262 1.386 . S
C263 C267 1.393 . S
C264 H253 0.950 . S
C264 C262 1.391 . S
C264 C265 1.400 . S
C265 C259 1.491 . S
C265 C264 1.400 . S
C265 C266 1.398 . S
C266 H254 0.950 . S
C266 C265 1.398 . S
C266 C267 1.391 . S
C267 H255 0.950 . S
C267 C263 1.393 . S
C267 C266 1.391 . S
H268 C276 0.950 . S
H269 C281 0.950 . S
H270 C278 0.950 . S
H271 C280 0.950 . S
H272 C282 0.950 . S
H273 C284 0.950 . S
H274 C286 0.950 . S
H275 C287 0.950 . S
C276 H268 0.950 . S
C276 C277 1.386 . S
C276 C278 1.391 . S
C277 C276 1.386 . S
C277 C281 1.393 . S
C278 H270 0.950 . S
C278 C276 1.391 . S
C278 C279 1.400 . S
C279 C278 1.400 . S
C279 C280 1.398 . S
C279 C285 1.491 . S
C280 H271 0.950 . S
C280 C279 1.398 . S
C280 C281 1.391 . S
C281 H269 0.950 . S
C281 C277 1.393 . S
C281 C280 1.391 . S
C282 H272 0.950 . S
C282 C283 1.386 . S
C282 C284 1.391 . S
C283 C282 1.386 . S
C283 C287 1.393 . S
C284 H273 0.950 . S
C284 C282 1.391 . S
C284 C285 1.400 . S
C285 C279 1.491 . S
C285 C284 1.400 . S
C285 C286 1.398 . S
C286 H274 0.950 . S
C286 C285 1.398 . S
C286 C287 1.391 . S
C287 H275 0.950 . S
C287 C283 1.393 . S
C287 C286 1.391 . S
H288 C296 0.950 . S
H289 C301 0.950 . S
H290 C298 0.950 . S
H291 C300 0.950 . S
H292 C302 0.950 . S
H293 C304 0.950 . S
H294 C306 0.950 . S
H295 C307 0.950 1_554 S
C296 H288 0.950 . S
C296 C297 1.386 . S
C296 C298 1.391 . S
C297 C296 1.386 . S
C297 C301 1.393 . S
C298 H290 0.950 . S
C298 C296 1.391 . S
C298 C299 1.400 . S
C299 C298 1.400 . S
C299 C300 1.398 . S
C299 C305 1.491 . S
C300 H291 0.950 . S
C300 C299 1.398 . S
C300 C301 1.391 . S
C301 H289 0.950 . S
C301 C297 1.393 . S
C301 C300 1.391 . S
C302 H292 0.950 . S
C302 C303 1.386 . S
C302 C304 1.391 . S
C303 C302 1.386 . S
C303 C307 1.393 . S
C304 H293 0.950 . S
C304 C302 1.391 . S
C304 C305 1.400 . S
C305 C299 1.491 . S
C305 C304 1.400 . S
C305 C306 1.398 . S
C306 H294 0.950 . S
C306 C305 1.398 . S
C306 C307 1.391 . S
C307 H295 0.950 1_556 S
C307 C303 1.393 . S
C307 C306 1.391 . S
H308 C316 0.950 . S
H309 C321 0.950 . S
H310 C318 0.950 . S
H311 C320 0.950 . S
H312 C322 0.950 . S
H313 C324 0.950 . S
H314 C326 0.950 . S
H315 C327 0.950 . S
C316 H308 0.950 . S
C316 C317 1.386 . S
C316 C318 1.391 . S
C317 C316 1.386 . S
C317 C321 1.393 . S
C318 H310 0.950 . S
C318 C316 1.391 . S
C318 C319 1.400 . S
C319 C318 1.400 . S
C319 C320 1.398 . S
C319 C325 1.491 . S
C320 H311 0.950 . S
C320 C319 1.398 . S
C320 C321 1.391 . S
C321 H309 0.950 . S
C321 C317 1.393 . S
C321 C320 1.391 . S
C322 H312 0.950 . S
C322 C323 1.386 . S
C322 C324 1.391 . S
C323 C322 1.386 . S
C323 C327 1.393 . S
C324 H313 0.950 . S
C324 C322 1.391 . S
C324 C325 1.400 . S
C325 C319 1.491 . S
C325 C324 1.400 . S
C325 C326 1.398 . S
C326 H314 0.950 . S
C326 C325 1.398 . S
C326 C327 1.391 . S
C327 H315 0.950 . S
C327 C323 1.393 . S
C327 C326 1.391 . S
H328 C336 0.950 . S
H329 C341 0.950 . S
H330 C338 0.950 . S
H331 C340 0.950 . S
H332 C342 0.950 . S
H333 C344 0.950 . S
H334 C346 0.950 . S
H335 C347 0.950 . S
C336 H328 0.950 . S
C336 C337 1.386 . S
C336 C338 1.391 . S
C337 C336 1.386 . S
C337 C341 1.393 . S
C338 H330 0.950 . S
C338 C336 1.391 . S
C338 C339 1.400 . S
C339 C338 1.400 . S
C339 C340 1.398 . S
C339 C345 1.491 . S
C340 H331 0.950 . S
C340 C339 1.398 . S
C340 C341 1.391 . S
C341 H329 0.950 . S
C341 C337 1.393 . S
C341 C340 1.391 . S
C342 H332 0.950 . S
C342 C343 1.386 . S
C342 C344 1.391 . S
C343 C342 1.386 . S
C343 C347 1.393 . S
C344 H333 0.950 . S
C344 C342 1.391 . S
C344 C345 1.400 . S
C345 C339 1.491 . S
C345 C344 1.400 . S
C345 C346 1.398 . S
C346 H334 0.950 . S
C346 C345 1.398 . S
C346 C347 1.391 . S
C347 H335 0.950 . S
C347 C343 1.393 . S
C347 C346 1.391 . S
H348 C356 0.950 . S
H349 C361 0.950 . S
H350 C358 0.950 . S
H351 C360 0.950 . S
H352 C362 0.950 . S
H353 C364 0.950 . S
H354 C366 0.950 . S
H355 C367 0.950 . S
C356 H348 0.950 . S
C356 C357 1.386 . S
C356 C358 1.391 . S
C357 C356 1.386 . S
C357 C361 1.393 . S
C358 H350 0.950 . S
C358 C356 1.391 . S
C358 C359 1.400 . S
C359 C358 1.400 . S
C359 C360 1.398 . S
C359 C365 1.491 . S
C360 H351 0.950 . S
C360 C359 1.398 . S
C360 C361 1.391 . S
C361 H349 0.950 . S
C361 C357 1.393 . S
C361 C360 1.391 . S
C362 H352 0.950 . S
C362 C363 1.386 . S
C362 C364 1.391 . S
C363 C362 1.386 . S
C363 C367 1.393 . S
C364 H353 0.950 . S
C364 C362 1.391 . S
C364 C365 1.400 . S
C365 C359 1.491 . S
C365 C364 1.400 . S
C365 C366 1.398 . S
C366 H354 0.950 . S
C366 C365 1.398 . S
C366 C367 1.391 . S
C367 H355 0.950 . S
C367 C363 1.393 . S
C367 C366 1.391 . S
H368 C376 0.950 . S
H369 C381 0.950 . S
H370 C378 0.950 . S
H371 C380 0.950 . S
H372 C382 0.950 . S
H373 C384 0.950 . S
H374 C386 0.950 . S
H375 C387 0.950 . S
C376 H368 0.950 . S
C376 C377 1.386 . S
C376 C378 1.391 . S
C377 C376 1.386 . S
C377 C381 1.393 . S
C378 H370 0.950 . S
C378 C376 1.391 . S
C378 C379 1.400 . S
C379 C378 1.400 . S
C379 C380 1.398 . S
C379 C385 1.491 . S
C380 H371 0.950 . S
C380 C379 1.398 . S
C380 C381 1.391 . S
C381 H369 0.950 . S
C381 C377 1.393 . S
C381 C380 1.391 . S
C382 H372 0.950 . S
C382 C383 1.386 . S
C382 C384 1.391 . S
C383 C382 1.386 . S
C383 C387 1.393 . S
C384 H373 0.950 . S
C384 C382 1.391 . S
C384 C385 1.400 . S
C385 C379 1.491 . S
C385 C384 1.400 . S
C385 C386 1.398 . S
C386 H374 0.950 . S
C386 C385 1.398 . S
C386 C387 1.391 . S
C387 H375 0.950 . S
C387 C383 1.393 . S
C387 C386 1.391 . S
H388 C396 0.950 . S
H389 C401 0.950 . S
H390 C398 0.950 . S
H391 C400 0.950 . S
H392 C402 0.950 . S
H393 C404 0.950 . S
H394 C406 0.950 . S
H395 C407 0.950 . S
C396 H388 0.950 . S
C396 C397 1.386 . S
C396 C398 1.391 . S
C397 C396 1.386 . S
C397 C401 1.393 . S
C398 H390 0.950 . S
C398 C396 1.391 . S
C398 C399 1.400 . S
C399 C398 1.400 . S
C399 C400 1.398 . S
C399 C405 1.491 . S
C400 H391 0.950 . S
C400 C399 1.398 . S
C400 C401 1.391 . S
C401 H389 0.950 . S
C401 C397 1.393 . S
C401 C400 1.391 . S
C402 H392 0.950 . S
C402 C403 1.386 . S
C402 C404 1.391 . S
C403 C402 1.386 . S
C403 C407 1.393 . S
C404 H393 0.950 . S
C404 C402 1.391 . S
C404 C405 1.400 . S
C405 C399 1.491 . S
C405 C404 1.400 . S
C405 C406 1.398 . S
C406 H394 0.950 . S
C406 C405 1.398 . S
C406 C407 1.391 . S
C407 H395 0.950 . S
C407 C403 1.393 . S
C407 C406 1.391 . S
H408 C416 0.950 . S
H409 C421 0.950 . S
H410 C418 0.950 . S
H411 C420 0.950 . S
H412 C422 0.950 . S
H413 C424 0.950 . S
H414 C426 0.950 . S
H415 C427 0.950 . S
C416 H408 0.950 . S
C416 C417 1.386 . S
C416 C418 1.391 . S
C417 C416 1.386 . S
C417 C421 1.393 . S
C418 H410 0.950 . S
C418 C416 1.391 . S
C418 C419 1.400 . S
C419 C418 1.400 . S
C419 C420 1.398 . S
C419 C425 1.491 . S
C420 H411 0.950 . S
C420 C419 1.398 . S
C420 C421 1.391 . S
C421 H409 0.950 . S
C421 C417 1.393 . S
C421 C420 1.391 . S
C422 H412 0.950 . S
C422 C423 1.386 . S
C422 C424 1.391 . S
C423 C422 1.386 . S
C423 C427 1.393 . S
C424 H413 0.950 . S
C424 C422 1.391 . S
C424 C425 1.400 . S
C425 C419 1.491 . S
C425 C424 1.400 . S
C425 C426 1.398 . S
C426 H414 0.950 . S
C426 C425 1.398 . S
C426 C427 1.391 . S
C427 H415 0.950 . S
C427 C423 1.393 . S
C427 C426 1.391 . S
H428 C436 0.950 . S
H429 C441 0.950 . S
H430 C438 0.950 . S
H431 C440 0.950 . S
H432 C442 0.950 . S
H433 C444 0.950 . S
H434 C446 0.950 . S
H435 C447 0.950 . S
C436 H428 0.950 . S
C436 C437 1.386 . S
C436 C438 1.391 . S
C437 C436 1.386 . S
C437 C441 1.393 . S
C438 H430 0.950 . S
C438 C436 1.391 . S
C438 C439 1.400 . S
C439 C438 1.400 . S
C439 C440 1.398 . S
C439 C445 1.491 . S
C440 H431 0.950 . S
C440 C439 1.398 . S
C440 C441 1.391 . S
C441 H429 0.950 . S
C441 C437 1.393 . S
C441 C440 1.391 . S
C442 H432 0.950 . S
C442 C443 1.386 . S
C442 C444 1.391 . S
C443 C442 1.386 . S
C443 C447 1.393 . S
C444 H433 0.950 . S
C444 C442 1.391 . S
C444 C445 1.400 . S
C445 C439 1.491 . S
C445 C444 1.400 . S
C445 C446 1.398 . S
C446 H434 0.950 . S
C446 C445 1.398 . S
C446 C447 1.391 . S
C447 H435 0.950 . S
C447 C443 1.393 . S
C447 C446 1.391 . S
H448 C456 0.950 . S
H449 C461 0.950 . S
H450 C458 0.950 . S
H451 C460 0.950 . S
H452 C462 0.950 1_455 S
H453 C464 0.950 . S
H454 C466 0.950 . S
H455 C467 0.950 . S
C456 H448 0.950 . S
C456 C457 1.386 . S
C456 C458 1.391 . S
C457 C456 1.386 . S
C457 C461 1.393 . S
C458 H450 0.950 . S
C458 C456 1.391 . S
C458 C459 1.400 . S
C459 C458 1.400 . S
C459 C460 1.398 . S
C459 C465 1.491 . S
C460 H451 0.950 . S
C460 C459 1.398 . S
C460 C461 1.391 . S
C461 H449 0.950 . S
C461 C457 1.393 . S
C461 C460 1.391 . S
C462 H452 0.950 1_655 S
C462 C463 1.386 . S
C462 C464 1.391 . S
C463 C462 1.386 . S
C463 C467 1.393 . S
C464 H453 0.950 . S
C464 C462 1.391 . S
C464 C465 1.400 . S
C465 C459 1.491 . S
C465 C464 1.400 . S
C465 C466 1.398 . S
C466 H454 0.950 . S
C466 C465 1.398 . S
C466 C467 1.391 . S
C467 H455 0.950 . S
C467 C463 1.393 . S
C467 C466 1.391 . S
H468 C476 0.950 . S
H469 C481 0.950 . S
H470 C478 0.950 . S
H471 C480 0.950 . S
H472 C482 0.950 . S
H473 C484 0.950 . S
H474 C486 0.950 . S
H475 C487 0.950 . S
C476 H468 0.950 . S
C476 C477 1.386 . S
C476 C478 1.391 . S
C477 C476 1.386 . S
C477 C481 1.393 . S
C478 H470 0.950 . S
C478 C476 1.391 . S
C478 C479 1.400 . S
C479 C478 1.400 . S
C479 C480 1.398 . S
C479 C485 1.491 . S
C480 H471 0.950 . S
C480 C479 1.398 . S
C480 C481 1.391 . S
C481 H469 0.950 . S
C481 C477 1.393 . S
C481 C480 1.391 . S
C482 H472 0.950 . S
C482 C483 1.386 . S
C482 C484 1.391 . S
C483 C482 1.386 . S
C483 C487 1.393 . S
C484 H473 0.950 . S
C484 C482 1.391 . S
C484 C485 1.400 . S
C485 C479 1.491 . S
C485 C484 1.400 . S
C485 C486 1.398 . S
C486 H474 0.950 . S
C486 C485 1.398 . S
C486 C487 1.391 . S
C487 H475 0.950 . S
C487 C483 1.393 . S
C487 C486 1.391 . S
H488 C496 0.950 . S
H489 C501 0.950 . S
H490 C498 0.950 . S
H491 C500 0.950 . S
H492 C502 0.950 . S
H493 C504 0.950 . S
H494 C506 0.950 . S
H495 C507 0.950 . S
C496 H488 0.950 . S
C496 C497 1.386 . S
C496 C498 1.391 . S
C497 C496 1.386 . S
C497 C501 1.393 . S
C498 H490 0.950 . S
C498 C496 1.391 . S
C498 C499 1.400 . S
C499 C498 1.400 . S
C499 C500 1.398 . S
C499 C505 1.491 . S
C500 H491 0.950 . S
C500 C499 1.398 . S
C500 C501 1.391 . S
C501 H489 0.950 . S
C501 C497 1.393 . S
C501 C500 1.391 . S
C502 H492 0.950 . S
C502 C503 1.386 . S
C502 C504 1.391 . S
C503 C502 1.386 . S
C503 C507 1.393 . S
C504 H493 0.950 . S
C504 C502 1.391 . S
C504 C505 1.400 . S
C505 C499 1.491 . S
C505 C504 1.400 . S
C505 C506 1.398 . S
C506 H494 0.950 . S
C506 C505 1.398 . S
C506 C507 1.391 . S
C507 H495 0.950 . S
C507 C503 1.393 . S
C507 C506 1.391 . S
H508 C516 0.950 . S
H509 C521 0.950 . S
H510 C518 0.950 . S
H511 C520 0.950 . S
H512 C522 0.950 . S
H513 C524 0.950 . S
H514 C526 0.950 . S
H515 C527 0.950 . S
C516 H508 0.950 . S
C516 C517 1.386 . S
C516 C518 1.391 . S
C517 C516 1.386 . S
C517 C521 1.393 . S
C518 H510 0.950 . S
C518 C516 1.391 . S
C518 C519 1.400 . S
C519 C518 1.400 . S
C519 C520 1.398 . S
C519 C525 1.491 . S
C520 H511 0.950 . S
C520 C519 1.398 . S
C520 C521 1.391 . S
C521 H509 0.950 . S
C521 C517 1.393 . S
C521 C520 1.391 . S
C522 H512 0.950 . S
C522 C523 1.386 . S
C522 C524 1.391 . S
C523 C522 1.386 . S
C523 C527 1.393 . S
C524 H513 0.950 . S
C524 C522 1.391 . S
C524 C525 1.400 . S
C525 C519 1.491 . S
C525 C524 1.400 . S
C525 C526 1.398 . S
C526 H514 0.950 . S
C526 C525 1.398 . S
C526 C527 1.391 . S
C527 H515 0.950 . S
C527 C523 1.393 . S
C527 C526 1.391 . S
H528 C536 0.950 . S
H529 C541 0.950 . S
H530 C538 0.950 . S
H531 C540 0.950 . S
H532 C542 0.950 . S
H533 C544 0.950 . S
H534 C546 0.950 . S
H535 C547 0.950 . S
C536 H528 0.950 . S
C536 C537 1.386 . S
C536 C538 1.391 . S
C537 C536 1.386 . S
C537 C541 1.393 . S
C538 H530 0.950 . S
C538 C536 1.391 . S
C538 C539 1.400 . S
C539 C538 1.400 . S
C539 C540 1.398 . S
C539 C545 1.491 . S
C540 H531 0.950 . S
C540 C539 1.398 . S
C540 C541 1.391 . S
C541 H529 0.950 . S
C541 C537 1.393 . S
C541 C540 1.391 . S
C542 H532 0.950 . S
C542 C543 1.386 . S
C542 C544 1.391 . S
C543 C542 1.386 . S
C543 C547 1.393 . S
C544 H533 0.950 . S
C544 C542 1.391 . S
C544 C545 1.400 . S
C545 C539 1.491 . S
C545 C544 1.400 . S
C545 C546 1.398 . S
C546 H534 0.950 . S
C546 C545 1.398 . S
C546 C547 1.391 . S
C547 H535 0.950 . S
C547 C543 1.393 . S
C547 C546 1.391 . S
H548 C556 0.950 . S
H549 C561 0.950 . S
H550 C558 0.950 . S
H551 C560 0.950 . S
H552 C562 0.950 . S
H553 C564 0.950 . S
H554 C566 0.950 . S
H555 C567 0.950 . S
C556 H548 0.950 . S
C556 C557 1.386 . S
C556 C558 1.391 . S
C557 C556 1.386 . S
C557 C561 1.393 . S
C558 H550 0.950 . S
C558 C556 1.391 . S
C558 C559 1.400 . S
C559 C558 1.400 . S
C559 C560 1.398 . S
C559 C565 1.491 . S
C560 H551 0.950 . S
C560 C559 1.398 . S
C560 C561 1.391 . S
C561 H549 0.950 . S
C561 C557 1.393 . S
C561 C560 1.391 . S
C562 H552 0.950 . S
C562 C563 1.386 . S
C562 C564 1.391 . S
C563 C562 1.386 . S
C563 C567 1.393 . S
C564 H553 0.950 . S
C564 C562 1.391 . S
C564 C565 1.400 . S
C565 C559 1.491 . S
C565 C564 1.400 . S
C565 C566 1.398 . S
C566 H554 0.950 . S
C566 C565 1.398 . S
C566 C567 1.391 . S
C567 H555 0.950 . S
C567 C563 1.393 . S
C567 C566 1.391 . S
H568 C576 0.950 . S
H569 C581 0.950 . S
H570 C578 0.950 . S
H571 C580 0.950 . S
H572 C582 0.950 . S
H573 C584 0.950 . S
H574 C586 0.950 . S
H575 C587 0.950 . S
C576 H568 0.950 . S
C576 C577 1.386 . S
C576 C578 1.391 . S
C577 C576 1.386 . S
C577 C581 1.393 . S
C578 H570 0.950 . S
C578 C576 1.391 . S
C578 C579 1.400 . S
C579 C578 1.400 . S
C579 C580 1.398 . S
C579 C585 1.491 . S
C580 H571 0.950 . S
C580 C579 1.398 . S
C580 C581 1.391 . S
C581 H569 0.950 . S
C581 C577 1.393 . S
C581 C580 1.391 . S
C582 H572 0.950 . S
C582 C583 1.386 . S
C582 C584 1.391 . S
C583 C582 1.386 . S
C583 C587 1.393 . S
C584 H573 0.950 . S
C584 C582 1.391 . S
C584 C585 1.400 . S
C585 C579 1.491 . S
C585 C584 1.400 . S
C585 C586 1.398 . S
C586 H574 0.950 . S
C586 C585 1.398 . S
C586 C587 1.391 . S
C587 H575 0.950 . S
C587 C583 1.393 . S
C587 C586 1.391 . S
H588 C596 0.950 . S
H589 C601 0.950 . S
H590 C598 0.950 . S
H591 C600 0.950 . S
H592 C602 0.950 . S
H593 C604 0.950 . S
H594 C606 0.950 . S
H595 C607 0.950 . S
C596 H588 0.950 . S
C596 C597 1.386 . S
C596 C598 1.391 . S
C597 C596 1.386 . S
C597 C601 1.393 . S
C598 H590 0.950 . S
C598 C596 1.391 . S
C598 C599 1.400 . S
C599 C598 1.400 . S
C599 C600 1.398 . S
C599 C605 1.491 . S
C600 H591 0.950 . S
C600 C599 1.398 . S
C600 C601 1.391 . S
C601 H589 0.950 . S
C601 C597 1.393 . S
C601 C600 1.391 . S
C602 H592 0.950 . S
C602 C603 1.386 . S
C602 C604 1.391 . S
C603 C602 1.386 . S
C603 C607 1.393 . S
C604 H593 0.950 . S
C604 C602 1.391 . S
C604 C605 1.400 . S
C605 C599 1.491 . S
C605 C604 1.400 . S
C605 C606 1.398 . S
C606 H594 0.950 . S
C606 C605 1.398 . S
C606 C607 1.391 . S
C607 H595 0.950 . S
C607 C603 1.393 . S
C607 C606 1.391 . S
H608 C616 0.950 . S
H609 C621 0.950 . S
H610 C618 0.950 . S
H611 C620 0.950 . S
H612 C622 0.950 . S
H613 C624 0.950 . S
H614 C626 0.950 . S
H615 C627 0.950 . S
C616 H608 0.950 . S
C616 C617 1.386 . S
C616 C618 1.391 . S
C617 C616 1.386 . S
C617 C621 1.393 . S
C618 H610 0.950 . S
C618 C616 1.391 . S
C618 C619 1.400 . S
C619 C618 1.400 . S
C619 C620 1.398 . S
C619 C625 1.491 . S
C620 H611 0.950 . S
C620 C619 1.398 . S
C620 C621 1.391 . S
C621 H609 0.950 . S
C621 C617 1.393 . S
C621 C620 1.391 . S
C622 H612 0.950 . S
C622 C623 1.386 . S
C622 C624 1.391 . S
C623 C622 1.386 . S
C623 C627 1.393 . S
C624 H613 0.950 . S
C624 C622 1.391 . S
C624 C625 1.400 . S
C625 C619 1.491 . S
C625 C624 1.400 . S
C625 C626 1.398 . S
C626 H614 0.950 . S
C626 C625 1.398 . S
C626 C627 1.391 . S
C627 H615 0.950 . S
C627 C623 1.393 . S
C627 C626 1.391 . S
H628 C636 0.950 . S
H629 C641 0.950 . S
H630 C638 0.950 . S
H631 C640 0.950 . S
H632 C642 0.950 . S
H633 C644 0.950 . S
H634 C646 0.950 . S
H635 C647 0.950 . S
C636 H628 0.950 . S
C636 C637 1.386 . S
C636 C638 1.391 . S
C637 C636 1.386 . S
C637 C641 1.393 . S
C638 H630 0.950 . S
C638 C636 1.391 . S
C638 C639 1.400 . S
C639 C638 1.400 . S
C639 C640 1.398 . S
C639 C645 1.491 . S
C640 H631 0.950 . S
C640 C639 1.398 . S
C640 C641 1.391 . S
C641 H629 0.950 . S
C641 C637 1.393 . S
C641 C640 1.391 . S
C642 H632 0.950 . S
C642 C643 1.386 . S
C642 C644 1.391 . S
C643 C642 1.386 . S
C643 C647 1.393 . S
C644 H633 0.950 . S
C644 C642 1.391 . S
C644 C645 1.400 . S
C645 C639 1.491 . S
C645 C644 1.400 . S
C645 C646 1.398 . S
C646 H634 0.950 . S
C646 C645 1.398 . S
C646 C647 1.391 . S
C647 H635 0.950 . S
C647 C643 1.393 . S
C647 C646 1.391 . S
H648 C656 0.950 . S
H649 C661 0.950 . S
H650 C658 0.950 . S
H651 C660 0.950 . S
H652 C662 0.950 . S
H653 C664 0.950 . S
H654 C666 0.950 . S
H655 C667 0.950 . S
C656 H648 0.950 . S
C656 C657 1.386 . S
C656 C658 1.391 . S
C657 C656 1.386 . S
C657 C661 1.393 . S
C658 H650 0.950 . S
C658 C656 1.391 . S
C658 C659 1.400 . S
C659 C658 1.400 . S
C659 C660 1.398 . S
C659 C665 1.491 . S
C660 H651 0.950 . S
C660 C659 1.398 . S
C660 C661 1.391 . S
C661 H649 0.950 . S
C661 C657 1.393 . S
C661 C660 1.391 . S
C662 H652 0.950 . S
C662 C663 1.386 . S
C662 C664 1.391 . S
C663 C662 1.386 . S
C663 C667 1.393 . S
C664 H653 0.950 . S
C664 C662 1.391 . S
C664 C665 1.400 . S
C665 C659 1.491 . S
C665 C664 1.400 . S
C665 C666 1.398 . S
C666 H654 0.950 . S
C666 C665 1.398 . S
C666 C667 1.391 . S
C667 H655 0.950 . S
C667 C663 1.393 . S
C667 C666 1.391 . S
C203 C116 1.423 . S
C197 N2 1.436 . S
C223 C119 1.452 . S
C217 N15 1.454 . S
C243 C117 1.682 1_655 S
C237 N27 1.685 . S
C263 C118 1.476 . S
C257 N44 1.480 . S
C283 C133 1.669 . S
C277 N1 1.682 . S
C303 C147 1.680 1_556 S
C297 N18 1.675 . S
C317 N28 1.694 . S
C323 C173 1.661 . S
C343 C187 1.504 . S
C337 N41 1.509 . S
C363 C132 1.630 . S
C357 N14 1.633 . S
C377 N31 1.798 . S
C383 C146 1.789 . S
C403 C172 1.742 . S
C397 N40 1.752 . S
C423 C186 1.586 . S
C417 N5 1.602 . S
C437 N53 1.671 . S
C443 C131 1.653 . S
C463 C104 1.653 1_655 S
C457 N70 1.649 . S
C477 N80 1.512 . S
C483 C130 1.500 . S
C497 N92 1.764 . S
C503 C105 1.768 . S
C523 C160 1.716 . S
C517 N57 1.748 . S
C543 C174 1.426 . S
C537 N67 1.427 . S
C563 C144 1.669 . S
C557 N83 1.703 . S
C577 N96 1.718 . S
C583 C158 1.705 . S
C603 C161 1.648 . S
C597 N66 1.661 . S
C623 C175 1.429 . S
C617 N79 1.422 . S
C643 C145 1.642 . S
C637 N93 1.673 . S
C657 N54 1.486 . S
C663 C159 1.479 1_556 S
