# Generated by pormake.
# Topology rtl, (3,6)-cn, num edge types: 1
# Building blocks:
#     Node 0, Type 0, BuildingBlock: PAMTOO_clean_linker_0, # of connection points: 3
#     Node 1, Type 0, BuildingBlock: PAMTOO_clean_linker_0, # of connection points: 3
#     Node 2, Type 0, BuildingBlock: PAMTOO_clean_linker_0, # of connection points: 3
#     Node 3, Type 0, BuildingBlock: PAMTOO_clean_linker_0, # of connection points: 3
#     Node 4, Type 1, BuildingBlock: LEVNOQ01_clean_sbu_1, # of connection points: 6
#     Node 5, Type 1, BuildingBlock: LEVNOQ01_clean_sbu_1, # of connection points: 6
#     Edge 6, Type (0, 1), BuildingBlock: CIFDUS_clean_linker_0, # of connection points: 2
#     Edge 7, Type (0, 1), BuildingBlock: CIFDUS_clean_linker_0, # of connection points: 2
#     Edge 8, Type (0, 1), BuildingBlock: CIFDUS_clean_linker_0, # of connection points: 2
#     Edge 9, Type (0, 1), BuildingBlock: CIFDUS_clean_linker_0, # of connection points: 2
#     Edge 10, Type (0, 1), BuildingBlock: CIFDUS_clean_linker_0, # of connection points: 2
#     Edge 11, Type (0, 1), BuildingBlock: CIFDUS_clean_linker_0, # of connection points: 2
#     Edge 12, Type (0, 1), BuildingBlock: CIFDUS_clean_linker_0, # of connection points: 2
#     Edge 13, Type (0, 1), BuildingBlock: CIFDUS_clean_linker_0, # of connection points: 2
#     Edge 14, Type (0, 1), BuildingBlock: CIFDUS_clean_linker_0, # of connection points: 2
#     Edge 15, Type (0, 1), BuildingBlock: CIFDUS_clean_linker_0, # of connection points: 2
#     Edge 16, Type (0, 1), BuildingBlock: CIFDUS_clean_linker_0, # of connection points: 2
#     Edge 17, Type (0, 1), BuildingBlock: CIFDUS_clean_linker_0, # of connection points: 2
# Relax obj value: 0.021
# Max RMSD: 0.113
# Mean RMSD: 0.089
data_MOF--net-rtl--node1-LEVNOQ01_clean_sbu_1--node2-PAMTOO_clean_linker_0--edge1-CIFDUS_clean_linker_0
_symmetry_space_group_name_H-M    P1
_symmetry_Int_Tables_number       1
_symmetry_cell_setting            triclinic
loop_
_symmetry_equiv_pos_as_xyz
'x, y, z'
_cell_length_a     31.444281
_cell_length_b     31.414604
_cell_length_c     19.509176
_cell_angle_alpha  92.023499
_cell_angle_beta   99.964132
_cell_angle_gamma 89.55183
loop_
_atom_site_label
_atom_site_type_symbol
_atom_site_fract_x
_atom_site_fract_y
_atom_site_fract_z
_atom_type_partial_charge
H0 H 0.10336 0.87756 0.01599 0.0
H1 H 0.19562 0.83329 0.18895 0.0
H2 H 0.20973 0.79832 0.98001 0.0
H3 H 0.21447 0.73083 0.09485 0.0
C4 C 0.24376 0.74731 0.12369 0.0
O5 O 0.24209 0.79054 0.11195 0.0
H6 H 0.24505 0.7428 0.18026 0.0
C7 C 0.13172 0.85921 0.03626 0.0
C8 C 0.15476 0.83855 0.98908 0.0
C9 C 0.14611 0.85844 0.10877 0.0
C10 C 0.18293 0.83395 0.13376 0.0
C11 C 0.20522 0.8117 0.08739 0.0
C12 C 0.1914 0.8144 0.01537 0.0
H13 H 0.66266 0.59152 0.61563 0.0
H14 H 0.73487 0.66786 0.49702 0.0
H15 H 0.75297 0.68503 0.71931 0.0
H16 H 0.76344 0.76305 0.66766 0.0
C17 C 0.76271 0.75431 0.61172 0.0
O18 O 0.77489 0.71217 0.60573 0.0
H19 H 0.72906 0.75912 0.58389 0.0
C20 C 0.68729 0.61519 0.61373 0.0
C21 C 0.70673 0.63651 0.67559 0.0
C22 C 0.69741 0.62566 0.54889 0.0
C23 C 0.72691 0.65881 0.54636 0.0
C24 C 0.74695 0.67993 0.608 0.0
C25 C 0.73741 0.66825 0.67227 0.0
H26 H 0.9267 0.17135 0.04503 0.0
H27 H 0.84025 0.24064 0.89326 0.0
H28 H 0.82855 0.25213 0.10953 0.0
H29 H 0.75081 0.23029 0.9651 0.0
C30 C 0.75599 0.26441 0.95499 0.0
O31 O 0.79746 0.27716 0.98344 0.0
H32 H 0.75128 0.26734 0.89755 0.0
C33 C 0.9005 0.19397 0.03274 0.0
C34 C 0.8804 0.21119 0.08636 0.0
C35 C 0.88626 0.20404 0.96304 0.0
C36 C 0.85133 0.2321 0.94673 0.0
C37 C 0.83052 0.24936 0.99955 0.0
C38 C 0.84476 0.23858 0.06914 0.0
H39 H 0.33063 0.43822 0.47952 0.0
H40 H 0.27656 0.34052 0.58532 0.0
H41 H 0.27817 0.32343 0.3681 0.0
H42 H 0.19762 0.29088 0.39731 0.0
C43 C 0.20653 0.29094 0.45502 0.0
O44 O 0.25102 0.29268 0.47299 0.0
H45 H 0.19146 0.31928 0.4771 0.0
C46 C 0.31548 0.40743 0.47706 0.0
C47 C 0.30657 0.38341 0.41355 0.0
C48 C 0.30646 0.3917 0.53965 0.0
C49 C 0.28465 0.35281 0.538 0.0
C50 C 0.27308 0.32962 0.475 0.0
C51 C 0.28527 0.344 0.41411 0.0
O52 O 0.01553 0.05524 0.69335 0.0
Mg53 Mg 0.0563 0.03424 0.62292 0.0
O54 O 0.95993 0.05331 0.60799 0.0
Mg55 Mg -0.00552 0.01334 0.53098 0.0
O56 O 0.051 0.06587 0.53244 0.0
O57 O 0.1011 0.07956 0.62736 0.0
O58 O 0.0314 0.97329 0.45789 0.0
O59 O 0.96393 0.06352 0.44376 0.0
Mg60 Mg 0.93714 0.98791 0.43203 0.0
O61 O 0.9388 0.96056 0.52678 0.0
O62 O 0.98207 0.97396 0.36395 0.0
O63 O 0.89762 0.04113 0.41578 0.0
O64 O 0.8991 0.93659 0.42604 0.0
C65 C 0.06047 0.95248 0.64403 0.0
C66 C 0.97635 0.06396 0.67054 0.0
C67 C 0.08435 0.08762 0.56418 0.0
C68 C 0.02007 0.96537 0.39308 0.0
C69 C 0.92472 0.07023 0.41533 0.0
C70 C 0.91042 0.93403 0.49241 0.0
O71 O 0.09064 0.97675 0.63595 0.0
O72 O 0.02197 0.96366 0.61909 0.0
O73 O 0.54619 0.49223 0.20639 0.0
Mg74 Mg 0.51978 0.45035 0.12124 0.0
O75 O 0.55066 0.54345 0.13417 0.0
Mg76 Mg 0.50479 0.51149 0.04059 0.0
O77 O 0.55089 0.44925 0.03755 0.0
O78 O 0.56056 0.40111 0.12143 0.0
O79 O 0.45841 0.47837 0.94727 0.0
O80 O 0.55579 0.52977 0.9684 0.0
Mg81 Mg 0.48468 0.57113 0.9558 0.0
O82 O 0.45857 0.57353 0.04465 0.0
O83 O 0.45511 0.52984 0.87322 0.0
O84 O 0.5453 0.59776 0.9568 0.0
O85 O 0.44435 0.62022 0.95906 0.0
C86 C 0.43829 0.45969 0.12679 0.0
C87 C 0.55935 0.529 0.19524 0.0
C88 C 0.5698 0.41497 0.06443 0.0
C89 C 0.4453 0.49242 0.8867 0.0
C90 C 0.56869 0.56567 0.95142 0.0
C91 C 0.43835 0.60738 0.01858 0.0
O92 O 0.45653 0.42573 0.11179 0.0
O93 O 0.45525 0.49475 0.11505 0.0
H94 H 0.14304 0.23661 0.39024 0.0
H95 H 0.23014 0.25918 0.58443 0.0
H96 H 0.20091 0.19761 0.63342 0.0
H97 H 0.15031 0.13886 0.62223 0.0
H98 H 0.06036 0.11626 0.43076 0.0
H99 H 0.09118 0.17643 0.37915 0.0
C100 C 0.15582 0.22763 0.443 0.0
C101 C 0.18948 0.25166 0.4832 0.0
C102 C 0.13834 0.19245 0.47118 0.0
C103 C 0.20501 0.24055 0.55208 0.0
C104 C 0.18817 0.20551 0.58014 0.0
C105 C 0.13736 0.14676 0.56899 0.0
C106 C 0.10306 0.12289 0.53039 0.0
C107 C 0.15484 0.18138 0.54025 0.0
C108 C 0.08679 0.13398 0.46162 0.0
C109 C 0.10438 0.16841 0.43218 0.0
H110 H 0.29305 0.68045 0.17946 0.0
H111 H 0.28068 0.76818 0.01178 0.0
H112 H 0.34112 0.73426 0.96884 0.0
H113 H 0.39551 0.67898 0.97579 0.0
H114 H 0.40799 0.58784 0.13864 0.0
H115 H 0.34995 0.62428 0.18742 0.0
C116 C 0.30405 0.69233 0.13404 0.0
C117 C 0.28294 0.72747 0.09987 0.0
C118 C 0.33878 0.67215 0.10885 0.0
C119 C 0.29672 0.74185 0.03995 0.0
C120 C 0.33129 0.72237 0.0152 0.0
C121 C 0.38593 0.66696 0.02227 0.0
C122 C 0.40615 0.63056 0.05336 0.0
C123 C 0.35231 0.68744 0.04893 0.0
C124 C 0.39311 0.61582 0.11369 0.0
C125 C 0.35978 0.63656 0.14137 0.0
H126 H 0.82048 0.81385 0.67833 0.0
H127 H 0.77061 0.75779 0.47575 0.0
H128 H 0.81386 0.80697 0.42174 0.0
H129 H 0.86212 0.86789 0.43144 0.0
H130 H 0.91238 0.92551 0.63304 0.0
H131 H 0.8729 0.87335 0.68856 0.0
C132 C 0.81945 0.81232 0.62245 0.0
C133 C 0.79228 0.78256 0.58069 0.0
C134 C 0.84419 0.84095 0.59183 0.0
C135 C 0.79125 0.7806 0.50851 0.0
C136 C 0.81585 0.8087 0.47779 0.0
C137 C 0.86465 0.86915 0.48763 0.0
C138 C 0.88976 0.90098 0.52796 0.0
C139 C 0.84184 0.83938 0.51882 0.0
C140 C 0.89311 0.90152 0.60075 0.0
C141 C 0.87047 0.87176 0.63244 0.0
H142 H 0.70579 0.33005 0.89562 0.0
H143 H 0.73427 0.25891 0.08307 0.0
H144 H 0.67945 0.2993 0.13294 0.0
H145 H 0.62272 0.35291 0.12217 0.0
H146 H 0.59346 0.42578 0.9363 0.0
H147 H 0.64938 0.38652 0.88648 0.0
C148 C 0.6999 0.32359 0.9474 0.0
C149 C 0.72349 0.29123 0.98555 0.0
C150 C 0.66821 0.34697 0.97561 0.0
C151 C 0.71613 0.28339 0.05282 0.0
C152 C 0.68483 0.30641 0.08115 0.0
C153 C 0.62829 0.3603 0.07056 0.0
C154 C 0.60352 0.39205 0.03274 0.0
C155 C 0.66044 0.33791 0.04276 0.0
C156 C 0.61185 0.4014 0.96641 0.0
C157 C 0.64383 0.37895 0.93798 0.0
H158 H 0.13686 0.84255 0.24355 0.0
H159 H 0.10617 0.93605 0.08477 0.0
H160 H 0.06431 0.97641 0.15776 0.0
H161 H 0.03389 0.9845 0.26517 0.0
H162 H 0.07205 0.89748 0.43051 0.0
H163 H 0.11468 0.85615 0.35744 0.0
C164 C 0.12177 0.87207 0.22503 0.0
C165 C 0.12372 0.88497 0.15709 0.0
C166 C 0.09917 0.89661 0.26877 0.0
C167 C 0.10374 0.9237 0.13501 0.0
C168 C 0.08015 0.94739 0.17723 0.0
C169 C 0.05194 0.9567 0.28522 0.0
C170 C 0.0497 0.94367 0.35249 0.0
C171 C 0.0771 0.93385 0.24371 0.0
C172 C 0.07353 0.90803 0.37869 0.0
C173 C 0.09765 0.88432 0.33684 0.0
H174 H 0.6894 0.55992 0.72725 0.0
H175 H 0.68875 0.69546 0.77231 0.0
H176 H 0.652 0.68423 0.87022 0.0
H177 H 0.61087 0.63744 0.93159 0.0
H178 H 0.60766 0.5022 0.88423 0.0
H179 H 0.65554 0.51168 0.7994 0.0
C180 C 0.68161 0.58692 0.75905 0.0
C181 C 0.69139 0.62851 0.74189 0.0
C182 C 0.65949 0.58032 0.81451 0.0
C183 C 0.68188 0.66311 0.78442 0.0
C184 C 0.6605 0.65676 0.84016 0.0
C185 C 0.62127 0.60989 0.90363 0.0
C186 C 0.60515 0.5693 0.91321 0.0
C187 C 0.64783 0.61572 0.85403 0.0
C188 C 0.61947 0.53383 0.87756 0.0
C189 C 0.64656 0.53929 0.82864 0.0
H190 H 0.83236 0.18632 0.1814 0.0
H191 H 0.96388 0.20567 0.15394 0.0
H192 H 0.99034 0.16885 0.26123 0.0
H193 H 0.97556 0.12131 0.35238 0.0
H194 H 0.84365 0.10114 0.37754 0.0
H195 H 0.81817 0.14885 0.28337 0.0
C196 C 0.8668 0.18359 0.19997 0.0
C197 C 0.89601 0.19794 0.15896 0.0
C198 C 0.88184 0.16176 0.26123 0.0
C199 C 0.94064 0.19405 0.18381 0.0
C200 C 0.95584 0.17299 0.2452 0.0
C201 C 0.94138 0.12833 0.33851 0.0
C202 C 0.91155 0.1071 0.37113 0.0
C203 C 0.9267 0.15514 0.28284 0.0
C204 C 0.8673 0.11658 0.35255 0.0
C205 C 0.85261 0.14379 0.29846 0.0
H206 H 0.35074 0.35995 0.66009 0.0
H207 H 0.29921 0.47668 0.56872 0.0
H208 H 0.33666 0.5177 0.6694 0.0
H209 H 0.38861 0.52104 0.77812 0.0
H210 H 0.43961 0.40517 0.87281 0.0
H211 H 0.39751 0.36307 0.77645 0.0
C212 C 0.34695 0.39427 0.66305 0.0
C213 C 0.32264 0.41528 0.60651 0.0
C214 C 0.36891 0.4178 0.72117 0.0
C215 C 0.31825 0.45981 0.61097 0.0
C216 C 0.33969 0.4833 0.66849 0.0
C217 C 0.39045 0.48654 0.77788 0.0
C218 C 0.41774 0.46625 0.83191 0.0
C219 C 0.36602 0.46274 0.72288 0.0
C220 C 0.41903 0.42153 0.83159 0.0
C221 C 0.39501 0.39749 0.77646 0.0
H222 H 0.66224 0.65721 0.42189 0.0
H223 H 0.68518 0.54018 0.53209 0.0
H224 H 0.6446 0.50054 0.43289 0.0
H225 H 0.60051 0.49902 0.31722 0.0
H226 H 0.57833 0.61457 0.20318 0.0
H227 H 0.62096 0.65479 0.30118 0.0
C228 C 0.65885 0.62297 0.42369 0.0
C229 C 0.6763 0.60182 0.48482 0.0
C230 C 0.63538 0.60013 0.36602 0.0
C231 C 0.67142 0.55741 0.48633 0.0
C232 C 0.64831 0.53465 0.42953 0.0
C233 C 0.60487 0.53304 0.31363 0.0
C234 C 0.58584 0.55381 0.25321 0.0
C235 C 0.62961 0.55573 0.36963 0.0
C236 C 0.59249 0.5978 0.2492 0.0
C237 C 0.61686 0.6208 0.30525 0.0
H238 H 0.84992 0.16287 0.84126 0.0
H239 H 0.97236 0.20062 0.96363 0.0
H240 H 0.01051 0.16043 0.88387 0.0
H241 H 0.00942 0.11209 0.78375 0.0
H242 H 0.88824 0.07419 0.65767 0.0
H243 H 0.84911 0.11693 0.73451 0.0
C244 C 0.88492 0.16279 0.84955 0.0
C245 C 0.90835 0.18437 0.9085 0.0
C246 C 0.90679 0.13921 0.80353 0.0
C247 C 0.95369 0.18386 0.91905 0.0
C248 C 0.97551 0.16086 0.87357 0.0
C249 C 0.97439 0.11293 0.77301 0.0
C250 C 0.95173 0.08946 0.71569 0.0
C251 C 0.95241 0.1378 0.81657 0.0
C252 C 0.90641 0.09173 0.70182 0.0
C253 C 0.88409 0.11621 0.74566 0.0
H254 H 0.36752 0.44538 0.40136 0.0
H255 H 0.27946 0.35661 0.27446 0.0
H256 H 0.31115 0.37309 0.1743 0.0
H257 H 0.36812 0.40888 0.12381 0.0
H258 H 0.44555 0.50605 0.24693 0.0
H259 H 0.41117 0.49171 0.34655 0.0
C260 C 0.35334 0.43019 0.35238 0.0
C261 C 0.32143 0.39823 0.3486 0.0
C262 C 0.36958 0.4418 0.29313 0.0
C263 C 0.30539 0.37952 0.2822 0.0
C264 C 0.32304 0.38948 0.22364 0.0
C265 C 0.37643 0.42765 0.17196 0.0
C266 C 0.40936 0.45826 0.17839 0.0
C267 C 0.35587 0.41987 0.22887 0.0
C268 C 0.41998 0.48256 0.2407 0.0
C269 C 0.40069 0.47403 0.29791 0.0
H270 H 0.07444 0.84204 0.90806 0.0
H271 H 0.20997 0.85617 0.90032 0.0
H272 H 0.19205 0.88604 0.7854 0.0
H273 H 0.13854 0.91914 0.69695 0.0
H274 H 0.00294 0.90952 0.70697 0.0
H275 H 0.0202 0.86672 0.81053 0.0
C276 C 0.10005 0.85115 0.88079 0.0
C277 C 0.14351 0.84741 0.9135 0.0
C278 C 0.0895 0.86967 0.8154 0.0
C279 C 0.17628 0.85843 0.87662 0.0
C280 C 0.16605 0.87599 0.81103 0.0
C281 C 0.11264 0.90698 0.7209 0.0
C282 C 0.06957 0.91825 0.69502 0.0
C283 C 0.12285 0.88339 0.78135 0.0
C284 C 0.0364 0.90162 0.72605 0.0
C285 C 0.04628 0.87738 0.78563 0.0
loop_
_geom_bond_atom_site_label_1
_geom_bond_atom_site_label_2
_geom_bond_distance
_geom_bond_site_symmetry_2
_ccdc_geom_bond_type
H0 C7 0.929 . S
H1 C10 0.930 . S
H2 C12 0.929 1_556 S
H3 C4 0.969 . S
C4 H3 0.969 . S
C4 O5 1.550 . S
C4 H6 0.973 . S
O5 C4 1.550 . S
O5 C11 1.412 . S
H6 C4 0.973 . S
C7 H0 0.929 . S
C7 C8 1.400 . S
C7 C9 1.364 . S
C8 C7 1.400 . S
C8 C12 1.377 . S
C9 C7 1.364 . S
C9 C10 1.374 . S
C10 H1 0.930 . S
C10 C9 1.374 . S
C10 C11 1.383 . S
C11 O5 1.412 . S
C11 C10 1.383 . S
C11 C12 1.394 . S
C12 H2 0.929 1_554 S
C12 C8 1.377 . S
C12 C11 1.394 . S
H13 C20 0.929 . S
H14 C23 0.930 . S
H15 C25 0.929 . S
H16 C17 0.969 . S
C17 H16 0.969 . S
C17 O18 1.550 . S
C17 H19 0.973 . S
O18 C17 1.550 . S
O18 C24 1.412 . S
H19 C17 0.973 . S
C20 H13 0.929 . S
C20 C21 1.400 . S
C20 C22 1.364 . S
C21 C20 1.400 . S
C21 C25 1.377 . S
C22 C20 1.364 . S
C22 C23 1.374 . S
C23 H14 0.930 . S
C23 C22 1.374 . S
C23 C24 1.383 . S
C24 O18 1.412 . S
C24 C23 1.383 . S
C24 C25 1.394 . S
C25 H15 0.929 . S
C25 C21 1.377 . S
C25 C24 1.394 . S
H26 C33 0.929 . S
H27 C36 0.930 . S
H28 C38 0.929 . S
H29 C30 0.969 . S
C30 H29 0.969 . S
C30 O31 1.550 1_556 S
C30 H32 0.973 . S
O31 C30 1.550 1_554 S
O31 C37 1.412 . S
H32 C30 0.973 . S
C33 H26 0.929 . S
C33 C34 1.400 . S
C33 C35 1.364 1_554 S
C34 C33 1.400 . S
C34 C38 1.377 . S
C35 C33 1.364 1_556 S
C35 C36 1.374 . S
C36 H27 0.930 . S
C36 C35 1.374 . S
C36 C37 1.383 1_556 S
C37 O31 1.412 . S
C37 C36 1.383 1_554 S
C37 C38 1.394 . S
C38 H28 0.929 . S
C38 C34 1.377 . S
C38 C37 1.394 . S
H39 C46 0.929 . S
H40 C49 0.930 . S
H41 C51 0.929 . S
H42 C43 0.969 . S
C43 H42 0.969 . S
C43 O44 1.550 . S
C43 H45 0.973 . S
O44 C43 1.550 . S
O44 C50 1.412 . S
H45 C43 0.973 . S
C46 H39 0.929 . S
C46 C47 1.400 . S
C46 C48 1.364 . S
C47 C46 1.400 . S
C47 C51 1.377 . S
C48 C46 1.364 . S
C48 C49 1.374 . S
C49 H40 0.930 . S
C49 C48 1.374 . S
C49 C50 1.383 . S
C50 O44 1.412 . S
C50 C49 1.383 . S
C50 C51 1.394 . S
C51 H41 0.929 . S
C51 C47 1.377 . S
C51 C50 1.394 . S
O52 Mg53 1.990 . S
O52 C66 1.253 1_455 S
Mg53 O52 1.990 . S
Mg53 O56 2.180 . S
Mg53 O57 2.117 . S
Mg53 O71 2.030 . S
O54 Mg55 2.072 1_655 S
O54 C66 1.260 . S
Mg55 O54 2.072 1_455 S
Mg55 O56 2.099 . S
Mg55 O58 2.079 1_545 S
Mg55 O59 2.072 1_455 S
Mg55 O61 2.099 1_445 S
Mg55 O72 2.079 1_545 S
O56 Mg53 2.180 . S
O56 Mg55 2.099 . S
O56 C67 1.279 . S
O57 Mg53 2.117 . S
O57 C67 1.250 . S
O58 Mg55 2.079 1_565 S
O58 C68 1.264 . S
O59 Mg55 2.072 1_655 S
O59 C69 1.260 . S
Mg60 O61 2.180 . S
Mg60 O62 2.030 1_655 S
Mg60 O63 1.990 1_565 S
Mg60 O64 2.117 . S
O61 Mg55 2.099 1_665 S
O61 Mg60 2.180 . S
O61 C70 1.279 . S
O62 Mg60 2.030 1_455 S
O62 C68 1.248 . S
O63 Mg60 1.990 1_545 S
O63 C69 1.253 . S
O64 Mg60 2.117 . S
O64 C70 1.250 . S
C65 O71 1.248 1_565 S
C65 O72 1.264 . S
C66 O52 1.253 1_655 S
C66 O54 1.260 . S
C67 O56 1.279 . S
C67 O57 1.250 . S
C68 O58 1.264 . S
C68 O62 1.248 . S
C69 O59 1.260 . S
C69 O63 1.253 . S
C70 O61 1.279 . S
C70 O64 1.250 . S
O71 Mg53 2.030 . S
O71 C65 1.248 1_545 S
O72 Mg55 2.079 1_565 S
O72 C65 1.264 . S
O73 Mg74 1.990 . S
O73 C87 1.253 . S
Mg74 O73 1.990 . S
Mg74 O77 2.180 . S
Mg74 O78 2.117 . S
Mg74 O92 2.030 . S
O75 Mg76 2.072 . S
O75 C87 1.260 . S
Mg76 O75 2.072 . S
Mg76 O77 2.099 . S
Mg76 O79 2.079 1_554 S
Mg76 O80 2.072 1_554 S
Mg76 O82 2.099 . S
Mg76 O93 2.079 . S
O77 Mg74 2.180 . S
O77 Mg76 2.099 . S
O77 C88 1.279 . S
O78 Mg74 2.117 . S
O78 C88 1.250 . S
O79 Mg76 2.079 1_556 S
O79 C89 1.264 . S
O80 Mg76 2.072 1_556 S
O80 C90 1.260 . S
Mg81 O82 2.180 1_556 S
Mg81 O83 2.030 . S
Mg81 O84 1.990 . S
Mg81 O85 2.117 . S
O82 Mg76 2.099 . S
O82 Mg81 2.180 1_554 S
O82 C91 1.279 . S
O83 Mg81 2.030 . S
O83 C89 1.248 . S
O84 Mg81 1.990 . S
O84 C90 1.253 . S
O85 Mg81 2.117 . S
O85 C91 1.250 1_556 S
C86 O92 1.248 . S
C86 O93 1.264 . S
C87 O73 1.253 . S
C87 O75 1.260 . S
C88 O77 1.279 . S
C88 O78 1.250 . S
C89 O79 1.264 . S
C89 O83 1.248 . S
C90 O80 1.260 . S
C90 O84 1.253 . S
C91 O82 1.279 . S
C91 O85 1.250 1_554 S
O92 Mg74 2.030 . S
O92 C86 1.248 . S
O93 Mg76 2.079 . S
O93 C86 1.264 . S
H94 C100 0.930 . S
H95 C103 0.930 . S
H96 C104 0.930 . S
H97 C105 0.930 . S
H98 C108 0.930 . S
H99 C109 0.930 . S
C100 H94 0.930 . S
C100 C101 1.355 . S
C100 C102 1.415 . S
C101 C100 1.355 . S
C101 C103 1.419 . S
C102 C100 1.415 . S
C102 C107 1.425 . S
C102 C109 1.409 . S
C103 H95 0.930 . S
C103 C101 1.419 . S
C103 C104 1.362 . S
C104 H96 0.930 . S
C104 C103 1.362 . S
C104 C107 1.409 . S
C105 H97 0.930 . S
C105 C106 1.355 . S
C105 C107 1.415 . S
C106 C105 1.355 . S
C106 C108 1.419 . S
C107 C102 1.425 . S
C107 C104 1.409 . S
C107 C105 1.415 . S
C108 H98 0.930 . S
C108 C106 1.419 . S
C108 C109 1.362 . S
C109 H99 0.930 . S
C109 C102 1.409 . S
C109 C108 1.362 . S
H110 C116 0.930 . S
H111 C119 0.930 . S
H112 C120 0.930 . S
H113 C121 0.930 . S
H114 C124 0.930 . S
H115 C125 0.930 . S
C116 H110 0.930 . S
C116 C117 1.355 . S
C116 C118 1.415 . S
C117 C116 1.355 . S
C117 C119 1.419 . S
C118 C116 1.415 . S
C118 C123 1.425 . S
C118 C125 1.409 . S
C119 H111 0.930 . S
C119 C117 1.419 . S
C119 C120 1.362 . S
C120 H112 0.930 . S
C120 C119 1.362 . S
C120 C123 1.409 . S
C121 H113 0.930 . S
C121 C122 1.355 . S
C121 C123 1.415 . S
C122 C121 1.355 . S
C122 C124 1.419 . S
C123 C118 1.425 . S
C123 C120 1.409 . S
C123 C121 1.415 . S
C124 H114 0.930 . S
C124 C122 1.419 . S
C124 C125 1.362 . S
C125 H115 0.930 . S
C125 C118 1.409 . S
C125 C124 1.362 . S
H126 C132 0.930 . S
H127 C135 0.930 . S
H128 C136 0.930 . S
H129 C137 0.930 . S
H130 C140 0.930 . S
H131 C141 0.930 . S
C132 H126 0.930 . S
C132 C133 1.355 . S
C132 C134 1.415 . S
C133 C132 1.355 . S
C133 C135 1.419 . S
C134 C132 1.415 . S
C134 C139 1.425 . S
C134 C141 1.409 . S
C135 H127 0.930 . S
C135 C133 1.419 . S
C135 C136 1.362 . S
C136 H128 0.930 . S
C136 C135 1.362 . S
C136 C139 1.409 . S
C137 H129 0.930 . S
C137 C138 1.355 . S
C137 C139 1.415 . S
C138 C137 1.355 . S
C138 C140 1.419 . S
C139 C134 1.425 . S
C139 C136 1.409 . S
C139 C137 1.415 . S
C140 H130 0.930 . S
C140 C138 1.419 . S
C140 C141 1.362 . S
C141 H131 0.930 . S
C141 C134 1.409 . S
C141 C140 1.362 . S
H142 C148 0.930 . S
H143 C151 0.930 . S
H144 C152 0.930 . S
H145 C153 0.930 . S
H146 C156 0.930 . S
H147 C157 0.930 . S
C148 H142 0.930 . S
C148 C149 1.355 . S
C148 C150 1.415 . S
C149 C148 1.355 . S
C149 C151 1.419 1_556 S
C150 C148 1.415 . S
C150 C155 1.425 1_556 S
C150 C157 1.409 . S
C151 H143 0.930 . S
C151 C149 1.419 1_554 S
C151 C152 1.362 . S
C152 H144 0.930 . S
C152 C151 1.362 . S
C152 C155 1.409 . S
C153 H145 0.930 . S
C153 C154 1.355 . S
C153 C155 1.415 . S
C154 C153 1.355 . S
C154 C156 1.419 1_554 S
C155 C150 1.425 1_554 S
C155 C152 1.409 . S
C155 C153 1.415 . S
C156 H146 0.930 . S
C156 C154 1.419 1_556 S
C156 C157 1.362 . S
C157 H147 0.930 . S
C157 C150 1.409 . S
C157 C156 1.362 . S
H158 C164 0.930 . S
H159 C167 0.930 . S
H160 C168 0.930 . S
H161 C169 0.930 . S
H162 C172 0.930 . S
H163 C173 0.930 . S
C164 H158 0.930 . S
C164 C165 1.355 . S
C164 C166 1.415 . S
C165 C164 1.355 . S
C165 C167 1.419 . S
C166 C164 1.415 . S
C166 C171 1.425 . S
C166 C173 1.409 . S
C167 H159 0.930 . S
C167 C165 1.419 . S
C167 C168 1.362 . S
C168 H160 0.930 . S
C168 C167 1.362 . S
C168 C171 1.409 . S
C169 H161 0.930 . S
C169 C170 1.355 . S
C169 C171 1.415 . S
C170 C169 1.355 . S
C170 C172 1.419 . S
C171 C166 1.425 . S
C171 C168 1.409 . S
C171 C169 1.415 . S
C172 H162 0.930 . S
C172 C170 1.419 . S
C172 C173 1.362 . S
C173 H163 0.930 . S
C173 C166 1.409 . S
C173 C172 1.362 . S
H174 C180 0.930 . S
H175 C183 0.930 . S
H176 C184 0.930 . S
H177 C185 0.930 . S
H178 C188 0.930 . S
H179 C189 0.930 . S
C180 H174 0.930 . S
C180 C181 1.355 . S
C180 C182 1.415 . S
C181 C180 1.355 . S
C181 C183 1.419 . S
C182 C180 1.415 . S
C182 C187 1.425 . S
C182 C189 1.409 . S
C183 H175 0.930 . S
C183 C181 1.419 . S
C183 C184 1.362 . S
C184 H176 0.930 . S
C184 C183 1.362 . S
C184 C187 1.409 . S
C185 H177 0.930 . S
C185 C186 1.355 . S
C185 C187 1.415 . S
C186 C185 1.355 . S
C186 C188 1.419 . S
C187 C182 1.425 . S
C187 C184 1.409 . S
C187 C185 1.415 . S
C188 H178 0.930 . S
C188 C186 1.419 . S
C188 C189 1.362 . S
C189 H179 0.930 . S
C189 C182 1.409 . S
C189 C188 1.362 . S
H190 C196 0.930 . S
H191 C199 0.930 . S
H192 C200 0.930 . S
H193 C201 0.930 . S
H194 C204 0.930 . S
H195 C205 0.930 . S
C196 H190 0.930 . S
C196 C197 1.355 . S
C196 C198 1.415 . S
C197 C196 1.355 . S
C197 C199 1.419 . S
C198 C196 1.415 . S
C198 C203 1.425 . S
C198 C205 1.409 . S
C199 H191 0.930 . S
C199 C197 1.419 . S
C199 C200 1.362 . S
C200 H192 0.930 . S
C200 C199 1.362 . S
C200 C203 1.409 . S
C201 H193 0.930 . S
C201 C202 1.355 . S
C201 C203 1.415 . S
C202 C201 1.355 . S
C202 C204 1.419 . S
C203 C198 1.425 . S
C203 C200 1.409 . S
C203 C201 1.415 . S
C204 H194 0.930 . S
C204 C202 1.419 . S
C204 C205 1.362 . S
C205 H195 0.930 . S
C205 C198 1.409 . S
C205 C204 1.362 . S
H206 C212 0.930 . S
H207 C215 0.930 . S
H208 C216 0.930 . S
H209 C217 0.930 . S
H210 C220 0.930 . S
H211 C221 0.930 . S
C212 H206 0.930 . S
C212 C213 1.355 . S
C212 C214 1.415 . S
C213 C212 1.355 . S
C213 C215 1.419 . S
C214 C212 1.415 . S
C214 C219 1.425 . S
C214 C221 1.409 . S
C215 H207 0.930 . S
C215 C213 1.419 . S
C215 C216 1.362 . S
C216 H208 0.930 . S
C216 C215 1.362 . S
C216 C219 1.409 . S
C217 H209 0.930 . S
C217 C218 1.355 . S
C217 C219 1.415 . S
C218 C217 1.355 . S
C218 C220 1.419 . S
C219 C214 1.425 . S
C219 C216 1.409 . S
C219 C217 1.415 . S
C220 H210 0.930 . S
C220 C218 1.419 . S
C220 C221 1.362 . S
C221 H211 0.930 . S
C221 C214 1.409 . S
C221 C220 1.362 . S
H222 C228 0.930 . S
H223 C231 0.930 . S
H224 C232 0.930 . S
H225 C233 0.930 . S
H226 C236 0.930 . S
H227 C237 0.930 . S
C228 H222 0.930 . S
C228 C229 1.355 . S
C228 C230 1.415 . S
C229 C228 1.355 . S
C229 C231 1.419 . S
C230 C228 1.415 . S
C230 C235 1.425 . S
C230 C237 1.409 . S
C231 H223 0.930 . S
C231 C229 1.419 . S
C231 C232 1.362 . S
C232 H224 0.930 . S
C232 C231 1.362 . S
C232 C235 1.409 . S
C233 H225 0.930 . S
C233 C234 1.355 . S
C233 C235 1.415 . S
C234 C233 1.355 . S
C234 C236 1.419 . S
C235 C230 1.425 . S
C235 C232 1.409 . S
C235 C233 1.415 . S
C236 H226 0.930 . S
C236 C234 1.419 . S
C236 C237 1.362 . S
C237 H227 0.930 . S
C237 C230 1.409 . S
C237 C236 1.362 . S
H238 C244 0.930 . S
H239 C247 0.930 . S
H240 C248 0.930 . S
H241 C249 0.930 . S
H242 C252 0.930 . S
H243 C253 0.930 . S
C244 H238 0.930 . S
C244 C245 1.355 . S
C244 C246 1.415 . S
C245 C244 1.355 . S
C245 C247 1.419 . S
C246 C244 1.415 . S
C246 C251 1.425 . S
C246 C253 1.409 . S
C247 H239 0.930 . S
C247 C245 1.419 . S
C247 C248 1.362 . S
C248 H240 0.930 . S
C248 C247 1.362 . S
C248 C251 1.409 . S
C249 H241 0.930 . S
C249 C250 1.355 . S
C249 C251 1.415 . S
C250 C249 1.355 . S
C250 C252 1.419 . S
C251 C246 1.425 . S
C251 C248 1.409 . S
C251 C249 1.415 . S
C252 H242 0.930 . S
C252 C250 1.419 . S
C252 C253 1.362 . S
C253 H243 0.930 . S
C253 C246 1.409 . S
C253 C252 1.362 . S
H254 C260 0.930 . S
H255 C263 0.930 . S
H256 C264 0.930 . S
H257 C265 0.930 . S
H258 C268 0.930 . S
H259 C269 0.930 . S
C260 H254 0.930 . S
C260 C261 1.355 . S
C260 C262 1.415 . S
C261 C260 1.355 . S
C261 C263 1.419 . S
C262 C260 1.415 . S
C262 C267 1.425 . S
C262 C269 1.409 . S
C263 H255 0.930 . S
C263 C261 1.419 . S
C263 C264 1.362 . S
C264 H256 0.930 . S
C264 C263 1.362 . S
C264 C267 1.409 . S
C265 H257 0.930 . S
C265 C266 1.355 . S
C265 C267 1.415 . S
C266 C265 1.355 . S
C266 C268 1.419 . S
C267 C262 1.425 . S
C267 C264 1.409 . S
C267 C265 1.415 . S
C268 H258 0.930 . S
C268 C266 1.419 . S
C268 C269 1.362 . S
C269 H259 0.930 . S
C269 C262 1.409 . S
C269 C268 1.362 . S
H270 C276 0.930 . S
H271 C279 0.930 . S
H272 C280 0.930 . S
H273 C281 0.930 . S
H274 C284 0.930 . S
H275 C285 0.930 . S
C276 H270 0.930 . S
C276 C277 1.355 . S
C276 C278 1.415 . S
C277 C276 1.355 . S
C277 C279 1.419 . S
C278 C276 1.415 . S
C278 C283 1.425 . S
C278 C285 1.409 . S
C279 H271 0.930 . S
C279 C277 1.419 . S
C279 C280 1.362 . S
C280 H272 0.930 . S
C280 C279 1.362 . S
C280 C283 1.409 . S
C281 H273 0.930 . S
C281 C282 1.355 . S
C281 C283 1.415 . S
C282 C281 1.355 . S
C282 C284 1.419 . S
C283 C278 1.425 . S
C283 C280 1.409 . S
C283 C281 1.415 . S
C284 H274 0.930 . S
C284 C282 1.419 . S
C284 C285 1.362 . S
C285 H275 0.930 . S
C285 C278 1.409 . S
C285 C284 1.362 . S
C106 C67 1.342 . S
C101 C43 1.357 . S
C117 C4 1.463 . S
C122 C91 1.277 . S
C133 C17 1.480 . S
C138 C70 1.436 . S
C149 C30 1.576 . S
C154 C88 1.441 . S
C170 C68 1.446 . S
C165 C9 1.441 . S
C186 C90 1.494 . S
C181 C21 1.581 . S
C197 C34 1.563 . S
C202 C69 1.482 . S
C213 C48 1.474 . S
C218 C89 1.465 . S
C234 C87 1.525 . S
C229 C22 1.535 . S
C250 C66 1.529 . S
C245 C35 1.531 . S
C266 C86 1.408 . S
C261 C47 1.484 . S
C277 C8 1.496 1_556 S
C282 C65 1.463 . S
