# Generated by pormake.
# Topology tsx, (6,3)-cn, num edge types: 1
# Building blocks:
#     Node 0, Type 0, BuildingBlock: JUFBIX_clean_sbu_0, # of connection points: 6
#     Node 1, Type 0, BuildingBlock: JUFBIX_clean_sbu_0, # of connection points: 6
#     Node 2, Type 1, BuildingBlock: CUQRIR_clean_linker_1, # of connection points: 3
#     Node 3, Type 1, BuildingBlock: CUQRIR_clean_linker_1, # of connection points: 3
#     Node 4, Type 1, BuildingBlock: CUQRIR_clean_linker_1, # of connection points: 3
#     Node 5, Type 1, BuildingBlock: CUQRIR_clean_linker_1, # of connection points: 3
#     Edge 6, Type (0, 1), BuildingBlock: MIFKUJ_clean_linker_0, # of connection points: 2
#     Edge 7, Type (0, 1), BuildingBlock: MIFKUJ_clean_linker_0, # of connection points: 2
#     Edge 8, Type (0, 1), BuildingBlock: MIFKUJ_clean_linker_0, # of connection points: 2
#     Edge 9, Type (0, 1), BuildingBlock: MIFKUJ_clean_linker_0, # of connection points: 2
#     Edge 10, Type (0, 1), BuildingBlock: MIFKUJ_clean_linker_0, # of connection points: 2
#     Edge 11, Type (0, 1), BuildingBlock: MIFKUJ_clean_linker_0, # of connection points: 2
#     Edge 12, Type (0, 1), BuildingBlock: MIFKUJ_clean_linker_0, # of connection points: 2
#     Edge 13, Type (0, 1), BuildingBlock: MIFKUJ_clean_linker_0, # of connection points: 2
#     Edge 14, Type (0, 1), BuildingBlock: MIFKUJ_clean_linker_0, # of connection points: 2
#     Edge 15, Type (0, 1), BuildingBlock: MIFKUJ_clean_linker_0, # of connection points: 2
#     Edge 16, Type (0, 1), BuildingBlock: MIFKUJ_clean_linker_0, # of connection points: 2
#     Edge 17, Type (0, 1), BuildingBlock: MIFKUJ_clean_linker_0, # of connection points: 2
# Relax obj value: 0.139
# Max RMSD: 0.157
# Mean RMSD: 0.146
data_MOF--net-tsx--node1-JUFBIX_clean_sbu_0--node2-CUQRIR_clean_linker_1--edge1-MIFKUJ_clean_linker_0
_symmetry_space_group_name_H-M    P1
_symmetry_Int_Tables_number       1
_symmetry_cell_setting            triclinic
loop_
_symmetry_equiv_pos_as_xyz
'x, y, z'
_cell_length_a     24.408496
_cell_length_b     28.560111
_cell_length_c     41.104709
_cell_angle_alpha  82.237031
_cell_angle_beta   90.345636
_cell_angle_gamma 97.59068
loop_
_atom_site_label
_atom_site_type_symbol
_atom_site_fract_x
_atom_site_fract_y
_atom_site_fract_z
_atom_type_partial_charge
Co0 Co 0.03719 0.01348 0.98954 0.0
C1 C 0.98832 0.05801 0.93394 0.0
Co2 Co 0.97061 0.05522 -5e-05 0.0
C3 C 0.11321 0.94135 0.99166 0.0
C4 C 0.13399 1.00222 0.95525 0.0
N5 N 0.09549 0.98262 0.97831 0.0
N6 N 0.16162 0.9353 0.97803 0.0
C7 C 0.17466 0.97343 0.95516 0.0
H8 H 0.09245 0.91738 0.01182 0.0
H9 H 0.13344 0.03622 0.94011 0.0
C10 C 0.02063 0.01108 0.05543 0.0
N11 N 0.91383 0.08777 0.01079 0.0
C12 C 0.90169 0.13056 -0.0035 0.0
C13 C 0.87803 0.07518 0.03632 0.0
N14 N 0.86026 0.14534 0.01236 0.0
C15 C 0.84529 0.11067 0.03748 0.0
C16 C 0.93479 0.95929 0.9953 0.0
O17 O 0.05046 0.9966 0.03465 0.0
O18 O 0.98361 0.03682 0.04531 0.0
O19 O 0.92006 0.9992 -0.00058 0.0
O20 O 0.9857 0.95665 0.99015 0.0
O21 O 0.95881 0.07339 0.95446 0.0
H22 H 0.87652 0.04268 0.05339 0.0
H23 H 0.92408 0.15125 0.97555 0.0
O24 O 0.02352 0.03073 0.94443 0.0
O25 O 0.08766 0.07082 0.9894 0.0
O26 O 0.0212 0.11084 0.00067 0.0
C27 C 0.07196 0.10969 0.99499 0.0
H28 H 0.2115 0.98019 0.93979 0.0
H29 H 0.81305 0.11103 0.05537 0.0
Co30 Co 0.59679 0.491 0.50776 0.0
C31 C 0.56201 0.52966 0.4453 0.0
Co32 Co 0.52661 0.53368 0.50741 0.0
C33 C 0.66665 0.41303 0.51217 0.0
C34 C 0.7063 0.48038 0.48887 0.0
N35 N 0.65887 0.45939 0.50411 0.0
N36 N 0.71727 0.40465 0.50264 0.0
C37 C 0.74193 0.44726 0.488 0.0
H38 H 0.63546 0.38591 0.52424 0.0
H39 H 0.71393 0.51725 0.47782 0.0
C40 C 0.56288 0.49591 0.56987 0.0
N41 N 0.46407 0.56428 0.51064 0.0
C42 C 0.44672 0.60244 0.49216 0.0
C43 C 0.42266 0.54809 0.53253 0.0
N44 N 0.39587 0.61006 0.50159 0.0
C45 C 0.38101 0.57596 0.52708 0.0
C46 C 0.49612 0.4357 0.50589 0.0
O47 O 0.59708 0.47729 0.5541 0.0
O48 O 0.52965 0.52128 0.55417 0.0
O49 O 0.47981 0.47597 0.50635 0.0
O50 O 0.54776 0.43284 0.50591 0.0
O51 O 0.52534 0.54561 0.46096 0.0
H52 H 0.42217 0.51712 0.55091 0.0
H53 H 0.47002 0.62315 0.47157 0.0
O54 O 0.59611 0.50538 0.46109 0.0
O55 O 0.64402 0.55042 0.51038 0.0
O56 O 0.57351 0.5912 0.50842 0.0
C57 C 0.62533 0.59014 0.51018 0.0
H58 H 0.78209 0.45391 0.47603 0.0
H59 H 0.34253 0.57133 0.54082 0.0
C60 C 0.99644 0.96984 0.44744 0.0
N61 N 0.02296 0.95278 0.42368 0.0
N62 N 0.97198 1.00818 0.43472 0.0
C63 C 0.99419 0.94847 0.4827 0.0
C64 C 0.98393 0.01315 0.40223 0.0
N65 N 0.01516 0.97972 0.39558 0.0
C66 C 0.96205 0.04899 0.37694 0.0
H67 H 0.96621 0.96572 0.4968 0.0
H68 H 0.97894 0.90988 0.48479 0.0
H69 H 0.03651 0.9518 0.49278 0.0
H70 H 0.99355 0.08091 0.37191 0.0
H71 H 0.92375 0.06028 0.38596 0.0
H72 H 0.95318 0.03399 0.35365 0.0
C73 C 1.00933 0.0458 0.55768 0.0
N74 N 0.0259 0.08124 0.57559 0.0
N75 N 0.95939 0.02247 0.56845 0.0
C76 C 0.04212 0.0339 0.52993 0.0
C77 C 0.94651 0.04523 0.59369 0.0
N78 N 0.98686 0.08125 0.59788 0.0
C79 C 0.89734 0.02951 0.61631 0.0
H80 H 0.08123 0.05839 0.52506 0.0
H81 H 0.017 0.0363 0.50749 0.0
H82 H 0.05208 0.99702 0.53591 0.0
H83 H 0.91021 0.02899 0.64228 0.0
H84 H 0.87645 0.99369 0.61279 0.0
H85 H 0.86744 0.05565 0.61145 0.0
C86 C 0.5682 0.58453 0.94688 0.0
N87 N 0.58344 0.55378 0.92731 0.0
N88 N 0.52554 0.60629 0.93342 0.0
C89 C 0.59341 0.59119 0.97967 0.0
C90 C 0.51626 0.58814 0.9048 0.0
N91 N 0.55096 0.5561 0.90132 0.0
C92 C 0.47439 0.60271 0.87972 0.0
H93 H 0.59381 0.55603 0.99488 0.0
H94 H 0.57125 0.61421 0.99301 0.0
H95 H 0.63696 0.60793 0.97592 0.0
H96 H 0.46405 0.6388 0.88204 0.0
H97 H 0.43617 0.57678 0.88354 0.0
H98 H 0.49011 0.60231 0.8545 0.0
C99 C 0.47975 0.53817 0.05616 0.0
N100 N 0.51635 0.55961 0.07619 0.0
N101 N 0.45417 0.49656 0.0719 0.0
C102 C 0.468 0.5573 0.02139 0.0
C103 C 0.47612 0.49323 0.10224 0.0
N104 N 0.51438 0.53142 0.10476 0.0
C105 C 0.4609 0.45239 0.12919 0.0
H106 H 0.42329 0.54901 0.01635 0.0
H107 H 0.49085 0.53946 0.00451 0.0
H108 H 0.48005 0.5963 0.01646 0.0
H109 H 0.42093 0.43118 0.12468 0.0
H110 H 0.45866 0.4658 0.1532 0.0
H111 H 0.49335 0.42843 0.13065 0.0
H112 H 0.17845 0.12623 0.97173 0.0
H113 H 0.24632 0.19628 0.97579 0.0
H114 H 0.12503 0.25947 0.02529 0.0
H115 H 0.05655 0.19058 0.02009 0.0
H116 H 0.18372 0.32606 0.98607 0.0
H117 H 0.22484 0.19734 0.06714 0.0
H118 H 0.24682 0.1166 0.087 0.0
H119 H 0.3948 0.14358 0.02772 0.0
H120 H 0.37327 0.2243 0.00717 0.0
H121 H 0.34748 0.46881 0.08819 0.0
H122 H 0.28504 0.40615 0.06621 0.0
H123 H 0.41657 0.38238 0.00316 0.0
H124 H 0.47839 0.44602 0.02478 0.0
H125 H 0.3597 0.29824 0.0419 0.0
H126 H 0.32143 0.43431 0.96818 0.0
H127 H 0.30008 0.51677 0.95575 0.0
H128 H 0.1451 0.47693 0.00751 0.0
H129 H 0.16606 0.39438 0.02089 0.0
C130 C 0.16621 0.15525 0.98326 0.0
C131 C 0.11239 0.15274 -0.0041 0.0
C132 C 0.20503 0.19521 0.98562 0.0
C133 C 0.19108 0.2328 0.00138 0.0
C134 C 0.1368 0.23095 0.01304 0.0
C135 C 0.09776 0.19142 0.0102 0.0
C136 C 0.23345 0.27292 0.00736 0.0
C137 C 0.22208 0.31991 -0.00165 0.0
C138 C 0.28403 0.26506 0.02294 0.0
C139 C 0.29707 0.21659 0.0353 0.0
C140 C 0.26183 0.1859 0.05815 0.0
C141 C 0.27424 0.14017 0.06955 0.0
C142 C 0.32208 0.12491 0.05853 0.0
C143 C 0.35769 0.1554 0.03616 0.0
C144 C 0.34541 0.20114 0.02463 0.0
C145 C 0.36243 0.45036 0.06941 0.0
C146 C 0.41721 0.46143 0.05815 0.0
C147 C 0.32711 0.4148 0.05691 0.0
C148 C 0.34637 0.38986 0.03307 0.0
C149 C 0.40112 0.4013 0.02156 0.0
C150 C 0.43617 0.43739 0.03377 0.0
C151 C 0.30939 0.35087 0.02107 0.0
C152 C 0.32176 0.30422 0.02902 0.0
C153 C 0.25948 0.35905 0.00506 0.0
C154 C 0.24548 0.40813 -0.0043 0.0
C155 C 0.28287 0.44313 0.97703 0.0
C156 C 0.27087 0.48992 0.96983 0.0
C157 C 0.2213 0.5021 0.98088 0.0
C158 C 0.1835 0.46743 -0.00102 0.0
C159 C 0.19539 0.42061 0.00635 0.0
H160 H 0.21216 0.53838 0.97539 0.0
H161 H 0.33163 0.0895 0.0674 0.0
H162 H 0.26879 0.94689 0.99348 0.0
H163 H 0.33148 0.88627 -0.00268 0.0
H164 H 0.19422 0.77949 0.98306 0.0
H165 H 0.13103 0.84041 0.98058 0.0
H166 H 0.27035 0.74077 0.02299 0.0
H167 H 0.27204 0.83725 0.91815 0.0
H168 H 0.27953 0.91216 0.87984 0.0
H169 H 0.44571 0.95032 0.9111 0.0
H170 H 0.43889 0.87593 0.95001 0.0
H171 H 0.416 0.58755 0.94377 0.0
H172 H 0.35518 0.6406 0.96192 0.0
H173 H 0.4971 0.74361 0.97482 0.0
H174 H 0.55787 0.69079 0.9552 0.0
H175 H 0.42028 0.78374 0.93897 0.0
H176 H 0.41661 0.68395 0.04394 0.0
H177 H 0.40753 0.60629 0.07953 0.0
H178 H 0.24409 0.57064 0.04329 0.0
H179 H 0.25213 0.64824 0.00775 0.0
C180 C 0.25201 0.91019 0.99205 0.0
C181 C 0.19546 0.8981 0.98651 0.0
C182 C 0.28773 0.87563 0.99409 0.0
C183 C 0.26782 0.82854 0.9896 0.0
C184 C 0.21057 0.81564 0.98643 0.0
C185 C 0.17452 0.85027 0.98503 0.0
C186 C 0.30743 0.7946 0.98479 0.0
C187 C 0.30292 0.75005 0.00451 0.0
C188 C 0.35032 0.80668 0.96082 0.0
C189 C 0.35474 0.85126 0.93723 0.0
C190 C 0.31004 0.86177 0.91702 0.0
C191 C 0.31418 0.90412 0.89519 0.0
C192 C 0.36302 0.93604 0.89311 0.0
C193 C 0.40788 0.9256 0.91279 0.0
C194 C 0.40391 0.88335 0.93473 0.0
C195 C 0.43402 0.62147 0.95066 0.0
C196 C 0.49132 0.63549 0.94788 0.0
C197 C 0.39941 0.65149 0.96148 0.0
C198 C 0.42151 0.696 0.97009 0.0
C199 C 0.47913 0.70938 0.9684 0.0
C200 C 0.51381 0.67931 0.95735 0.0
C201 C 0.38396 0.73025 0.97751 0.0
C202 C 0.3884 0.77476 0.95791 0.0
C203 C 0.34078 0.71779 0.00122 0.0
C204 C 0.33509 0.67173 0.02318 0.0
C205 C 0.37884 0.65944 0.04359 0.0
C206 C 0.37384 0.61553 0.06376 0.0
C207 C 0.32534 0.58354 0.06359 0.0
C208 C 0.2816 0.59551 0.04343 0.0
C209 C 0.28622 0.63956 0.02342 0.0
H210 H 0.32156 0.54959 0.07919 0.0
H211 H 0.36615 0.96881 0.87618 0.0
H212 H 0.9513 0.86514 0.0006 0.0
H213 H 0.8812 0.79496 0.01208 0.0
H214 H 0.75361 0.8865 0.00944 0.0
H215 H 0.82305 0.95636 -0.0014 0.0
H216 H 0.74079 0.82228 0.06204 0.0
H217 H 0.77244 0.82041 0.94698 0.0
H218 H 0.8277 0.81918 0.89716 0.0
H219 H 0.87908 0.686 0.93873 0.0
H220 H 0.82473 0.68678 0.98902 0.0
H221 H 0.50255 0.6516 0.05843 0.0
H222 H 0.57532 0.71828 0.04105 0.0
H223 H 0.69815 0.62191 0.05566 0.0
H224 H 0.62484 0.55536 0.07246 0.0
H225 H 0.71524 0.68612 -0.00227 0.0
H226 H 0.67611 0.68665 0.11183 0.0
H227 H 0.61345 0.68663 0.15852 0.0
H228 H 0.57404 0.82443 0.11785 0.0
H229 H 0.63417 0.82425 0.06987 0.0
C230 C 0.90823 0.87022 0.00205 0.0
C231 C 0.89282 0.91635 -0.00126 0.0
C232 C 0.86818 0.83009 0.0086 0.0
C233 C 0.81203 0.83542 0.01159 0.0
C234 C 0.79663 0.88144 0.00745 0.0
C235 C 0.83647 0.92139 0.0011 0.0
C236 C 0.76924 0.79348 0.02029 0.0
C237 C 0.73487 0.7928 0.04772 0.0
C238 C 0.76222 0.75443 0.00211 0.0
C239 C 0.79505 0.75396 0.97193 0.0
C240 C 0.79593 0.79109 0.94563 0.0
C241 C 0.82701 0.79043 0.91728 0.0
C242 C 0.85703 0.75262 0.91482 0.0
C243 C 0.85591 0.71532 0.94069 0.0
C244 C 0.82495 0.71584 0.96912 0.0
C245 C 0.54508 0.64501 0.05766 0.0
C246 C 0.55862 0.5989 0.06661 0.0
C247 C 0.58653 0.68283 0.04782 0.0
C248 C 0.64216 0.67499 0.04722 0.0
C249 C 0.65552 0.62866 0.05588 0.0
C250 C 0.614 0.59093 0.06572 0.0
C251 C 0.68665 0.71546 0.03909 0.0
C252 C 0.72139 0.71568 0.01198 0.0
C253 C 0.69384 0.75425 0.05746 0.0
C254 C 0.6593 0.75521 0.08698 0.0
C255 C 0.6537 0.71678 0.1126 0.0
C256 C 0.61851 0.71675 0.1393 0.0
C257 C 0.58996 0.75555 0.14124 0.0
C258 C 0.59624 0.79439 0.11633 0.0
C259 C 0.63064 0.79427 0.08927 0.0
H260 H 0.56298 0.75552 0.16205 0.0
H261 H 0.88104 0.75216 0.89284 0.0
H262 H 0.83852 0.18937 0.9523 0.0
H263 H 0.79706 0.26319 0.93972 0.0
H264 H 0.79279 0.27623 0.04313 0.0
H265 H 0.83133 0.20106 0.0556 0.0
H266 H 0.70349 0.29742 0.02026 0.0
H267 H 0.88961 0.34776 0.98421 0.0
H268 H 0.97632 0.34653 0.95406 0.0
H269 H 0.89197 0.36822 0.86236 0.0
H270 H 0.80455 0.36888 0.89196 0.0
H271 H 0.69186 0.56278 0.94307 0.0
H272 H 0.74638 0.49729 0.96078 0.0
H273 H 0.60321 0.39503 0.94903 0.0
H274 H 0.54893 0.46025 0.93258 0.0
H275 H 0.77413 0.42573 0.9311 0.0
H276 H 0.59915 0.30069 0.00813 0.0
H277 H 0.51968 0.30767 0.04315 0.0
H278 H 0.59492 0.44599 0.06163 0.0
H279 H 0.67527 0.43955 0.02719 0.0
C280 C 0.8289 0.2083 0.97221 0.0
C281 C 0.83797 0.18967 0.00487 0.0
C282 C 0.80553 0.25064 0.96506 0.0
C283 C 0.79249 0.27602 0.99041 0.0
C284 C 0.80221 0.25747 0.02308 0.0
C285 C 0.82427 0.21456 0.03023 0.0
C286 C 0.76686 0.32084 0.98306 0.0
C287 C 0.71926 0.32547 0.00085 0.0
C288 C 0.78787 0.3583 0.95827 0.0
C289 C 0.8404 0.35793 0.94035 0.0
C290 C 0.88945 0.35191 0.95763 0.0
C291 C 0.93875 0.35136 0.94062 0.0
C292 C 0.93963 0.35717 0.90632 0.0
C293 C 0.89122 0.36365 0.88894 0.0
C294 C 0.84179 0.36416 0.90581 0.0
C295 C 0.6724 0.52622 0.94453 0.0
C296 C 0.61653 0.51616 0.93656 0.0
C297 C 0.70341 0.48896 0.95439 0.0
C298 C 0.67866 0.44128 0.95659 0.0
C299 C 0.62298 0.43148 0.94801 0.0
C300 C 0.59217 0.46859 0.9383 0.0
C301 C 0.71051 0.4014 0.9678 0.0
C302 C 0.75897 0.39772 0.9507 0.0
C303 C 0.69139 0.36558 0.99396 0.0
C304 C 0.64318 0.36968 0.01487 0.0
C305 C 0.59892 0.33248 0.0198 0.0
C306 C 0.55371 0.33635 0.03956 0.0
C307 C 0.55239 0.37716 0.05469 0.0
C308 C 0.59609 0.41435 0.04994 0.0
C309 C 0.64144 0.41063 0.03025 0.0
H310 H 0.51748 0.37996 0.0701 0.0
H311 H 0.97784 0.35674 0.89321 0.0
H312 H 0.73574 0.59986 0.525 0.0
H313 H 0.79594 0.67347 0.53221 0.0
H314 H 0.66029 0.75437 0.50908 0.0
H315 H 0.59996 0.68124 0.50191 0.0
H316 H 0.75725 0.79724 0.47754 0.0
H317 H 0.6958 0.72882 0.58679 0.0
H318 H 0.6816 0.66524 0.63405 0.0
H319 H 0.85686 0.66275 0.64054 0.0
H320 H 0.87206 0.72584 0.59295 0.0
H321 H 0.85812 0.01302 0.54224 0.0
H322 H 0.80546 0.93971 0.52733 0.0
H323 H 0.94094 0.86216 0.55883 0.0
H324 H 0.99296 0.93564 0.57396 0.0
H325 H 0.84672 0.81653 0.58444 0.0
H326 H 0.89923 0.85802 0.4637 0.0
H327 H 0.91214 0.91138 0.41102 0.0
H328 H 0.75754 0.96218 0.42591 0.0
H329 H 0.74309 0.90789 0.4782 0.0
C330 C 0.71882 0.63335 0.52129 0.0
C331 C 0.66297 0.63462 0.51301 0.0
C332 C 0.7532 0.67535 0.52555 0.0
C333 C 0.73246 0.71938 0.52146 0.0
C334 C 0.67715 0.72083 0.5124 0.0
C335 C 0.64269 0.67891 0.50841 0.0
C336 C 0.76802 0.76398 0.52696 0.0
C337 C 0.77635 0.80162 0.50105 0.0
C338 C 0.79404 0.76937 0.55733 0.0
C339 C 0.78502 0.73169 0.58609 0.0
C340 C 0.73129 0.71444 0.59812 0.0
C341 C 0.72306 0.67854 0.625 0.0
C342 C 0.76829 0.65987 0.64023 0.0
C343 C 0.82186 0.67718 0.62868 0.0
C344 C 0.83031 0.71303 0.60177 0.0
C345 C 0.87671 0.98036 0.54527 0.0
C346 C 0.92983 0.97989 0.55836 0.0
C347 C 0.84695 0.93858 0.53656 0.0
C348 C 0.86969 0.89544 0.5411 0.0
C349 C 0.92274 0.89502 0.55463 0.0
C350 C 0.95252 0.93687 0.56319 0.0
C351 C 0.83611 0.85003 0.53497 0.0
C352 C 0.82792 0.81215 0.56087 0.0
C353 C 0.81031 0.84425 0.50458 0.0
C354 C 0.82095 0.88011 0.47514 0.0
C355 C 0.86858 0.88127 0.45595 0.0
C356 C 0.87587 0.91124 0.42603 0.0
C357 C 0.83606 0.94061 0.4153 0.0
C358 C 0.7885 0.93962 0.43432 0.0
C359 C 0.78066 0.90915 0.46403 0.0
H360 H 0.842 0.96401 0.39223 0.0
H361 H 0.76184 0.63208 0.66104 0.0
H362 H 0.66132 0.31408 0.509 0.0
H363 H 0.70102 0.24008 0.5056 0.0
H364 H 0.86416 0.31959 0.49617 0.0
H365 H 0.82564 0.39274 0.5008 0.0
H366 H 0.83299 0.26279 0.44451 0.0
H367 H 0.8367 0.25108 0.56296 0.0
H368 H 0.79625 0.24561 0.61838 0.0
H369 H 0.69133 0.11766 0.60305 0.0
H370 H 0.7307 0.12272 0.54734 0.0
H371 H 0.01584 0.09778 0.43979 0.0
H372 H 0.96951 0.15974 0.45966 0.0
H373 H 0.82479 0.05711 0.48473 0.0
H374 H 0.87325 0.99454 0.46666 0.0
H375 H 0.83771 0.12102 0.52834 0.0
H376 H 0.83281 0.12968 0.41159 0.0
H377 H 0.87188 0.13261 0.35607 0.0
H378 H 0.9733 0.26431 0.36668 0.0
H379 H 0.93533 0.26188 0.42247 0.0
C380 C 0.70571 0.31572 0.50693 0.0
C381 C 0.74001 0.35987 0.50456 0.0
C382 C 0.72835 0.27333 0.5049 0.0
C383 C 0.78558 0.27436 0.50035 0.0
C384 C 0.81988 0.31794 0.49938 0.0
C385 C 0.79755 0.35995 0.50178 0.0
C386 C 0.80999 0.23128 0.49388 0.0
C387 C 0.83434 0.23197 0.46295 0.0
C388 C 0.81024 0.19035 0.51753 0.0
C389 C 0.78605 0.18768 0.5508 0.0
C390 C 0.80451 0.22211 0.57124 0.0
C391 C 0.78193 0.21899 0.60276 0.0
C392 C 0.74109 0.18142 0.61418 0.0
C393 C 0.72286 0.14681 0.59414 0.0
C394 C 0.74532 0.14978 0.5626 0.0
C395 C 0.97462 0.08847 0.45028 0.0
C396 C 0.94761 0.04179 0.45137 0.0
C397 C 0.94797 0.12379 0.46142 0.0
C398 C 0.89294 0.11354 0.47287 0.0
C399 C 0.86699 0.06613 0.47573 0.0
C400 C 0.89435 0.03046 0.46523 0.0
C401 C 0.86174 0.15309 0.47916 0.0
C402 C 0.83595 0.15169 0.50984 0.0
C403 C 0.85934 0.19331 0.45511 0.0
C404 C 0.88148 0.19543 0.4213 0.0
C405 C 0.86361 0.15917 0.40214 0.0
C406 C 0.88556 0.16074 0.37062 0.0
C407 C 0.92515 0.19855 0.35789 0.0
C408 C 0.94267 0.23501 0.37659 0.0
C409 C 0.92088 0.2336 0.40814 0.0
H410 H 0.94216 0.19965 0.3335 0.0
H411 H 0.72368 0.17904 0.6386 0.0
H412 H 0.50404 0.34418 0.53457 0.0
H413 H 0.42726 0.27923 0.54654 0.0
H414 H 0.3164 0.36731 0.49361 0.0
H415 H 0.39208 0.4322 0.48261 0.0
H416 H 0.27312 0.33225 0.55033 0.0
H417 H 0.3595 0.26782 0.4645 0.0
H418 H 0.43604 0.23994 0.43684 0.0
H419 H 0.45002 0.13316 0.51957 0.0
H420 H 0.37397 0.16084 0.54792 0.0
H421 H 0.03319 0.16727 0.53997 0.0
H422 H 0.11748 0.22382 0.52675 0.0
H423 H 0.21267 0.12732 0.58553 0.0
H424 H 0.1283 0.06995 0.59711 0.0
H425 H 0.26682 0.16433 0.53022 0.0
H426 H 0.16771 0.22628 0.61216 0.0
H427 H 0.08448 0.25256 0.63374 0.0
H428 H 0.09197 0.36729 0.55425 0.0
H429 H 0.17328 0.34024 0.53105 0.0
C430 C 0.4635 0.3491 0.5249 0.0
C431 C 0.45393 0.39321 0.50777 0.0
C432 C 0.41959 0.31206 0.5318 0.0
C433 C 0.36579 0.31839 0.52112 0.0
C434 C 0.35722 0.36164 0.50246 0.0
C435 C 0.40065 0.39864 0.496 0.0
C436 C 0.31745 0.28159 0.5308 0.0
C437 C 0.27159 0.29564 0.54561 0.0
C438 C 0.31584 0.23349 0.52549 0.0
C439 C 0.36148 0.21676 0.50848 0.0
C440 C 0.3792 0.23866 0.47691 0.0
C441 C 0.42243 0.22284 0.46108 0.0
C442 C 0.448 0.1849 0.47648 0.0
C443 C 0.43025 0.1626 0.5077 0.0
C444 C 0.38707 0.17832 0.52365 0.0
C445 C 0.07224 0.15875 0.55018 0.0
C446 C 0.07475 0.11534 0.57013 0.0
C447 C 0.12027 0.19078 0.54268 0.0
C448 C 0.17138 0.1803 0.55571 0.0
C449 C 0.17376 0.13638 0.57539 0.0
C450 C 0.12576 0.10397 0.58235 0.0
C451 C 0.22211 0.21534 0.54899 0.0
C452 C 0.26852 0.20089 0.53507 0.0
C453 C 0.22396 0.26335 0.55472 0.0
C454 C 0.17658 0.28096 0.56969 0.0
C455 C 0.15151 0.25696 0.59913 0.0
C456 C 0.10455 0.27192 0.61162 0.0
C457 C 0.08322 0.31171 0.59551 0.0
C458 C 0.1086 0.3365 0.56674 0.0
C459 C 0.15496 0.32122 0.5538 0.0
H460 H 0.04697 0.32328 0.6053 0.0
H461 H 0.48146 0.1727 0.46419 0.0
H462 H 0.43105 0.70077 0.47351 0.0
H463 H 0.37264 0.76258 0.45414 0.0
H464 H 0.22675 0.66127 0.47867 0.0
H465 H 0.28457 0.59977 0.49745 0.0
H466 H 0.21469 0.71685 0.42053 0.0
H467 H 0.27488 0.73925 0.53067 0.0
H468 H 0.34429 0.75328 0.57335 0.0
H469 H 0.41198 0.88537 0.51649 0.0
H470 H 0.34336 0.87176 0.47325 0.0
H471 H 1.00327 0.85819 0.44463 0.0
H472 H 0.07234 0.80226 0.45269 0.0
H473 H 0.20144 0.91751 0.42087 0.0
H474 H 0.13211 0.97309 0.41285 0.0
H475 H 0.22858 0.86022 0.4777 0.0
H476 H 0.16477 0.8428 0.36996 0.0
H477 H 0.09486 0.83095 0.32731 0.0
H478 H 0.03513 0.69234 0.37813 0.0
H479 H 0.10432 0.70359 0.42138 0.0
C480 C 0.38656 0.69166 0.47428 0.0
C481 C 0.36245 0.64557 0.48739 0.0
C482 C 0.3532 0.727 0.46341 0.0
C483 C 0.29519 0.71674 0.4653 0.0
C484 C 0.27128 0.67017 0.47703 0.0
C485 C 0.30445 0.63512 0.48805 0.0
C486 C 0.2589 0.75456 0.45673 0.0
C487 C 0.21759 0.74806 0.43315 0.0
C488 C 0.26336 0.79597 0.47257 0.0
C489 C 0.30446 0.80421 0.49857 0.0
C490 C 0.30486 0.77109 0.52716 0.0
C491 C 0.344 0.779 0.55147 0.0
C492 C 0.38264 0.82011 0.54759 0.0
C493 C 0.38211 0.85348 0.51943 0.0
C494 C 0.3431 0.8457 0.49502 0.0
C495 C 0.04647 0.87129 0.43963 0.0
C496 C 0.06287 0.91965 0.42842 0.0
C497 C 0.0858 0.8395 0.44399 0.0
C498 C 0.1421 0.85573 0.43732 0.0
C499 C 0.15836 0.90424 0.42626 0.0
C500 C 0.11895 0.93583 0.42158 0.0
C501 C 0.18392 0.82202 0.44197 0.0
C502 C 0.22614 0.8293 0.46479 0.0
C503 C 0.18053 0.78155 0.42529 0.0
C504 C 0.13946 0.77419 0.39907 0.0
C505 C 0.1365 0.8099 0.37218 0.0
C506 C 0.09702 0.8033 0.34788 0.0
C507 C 0.06045 0.76099 0.35007 0.0
C508 C 0.06346 0.72511 0.3765 0.0
C509 C 0.10286 0.73155 0.40089 0.0
H510 H 0.02986 0.75596 0.33124 0.0
H511 H 0.4129 0.82618 0.56643 0.0
H512 H 0.09355 0.95454 0.08585 0.0
H513 H 0.10344 0.93133 0.14503 0.0
H514 H 0.97532 0.01492 0.16424 0.0
H515 H 0.96463 0.03762 0.10553 0.0
H516 H 0.13164 0.9817 0.19461 0.0
H517 H 0.89531 0.96064 0.22638 0.0
H518 H 0.80697 0.93218 0.20162 0.0
H519 H 0.89046 0.84699 0.14478 0.0
H520 H 0.97917 0.87432 0.16956 0.0
H521 H 0.07035 0.04206 0.34805 0.0
H522 H 0.08498 0.02893 0.29128 0.0
H523 H 0.01128 0.88231 0.31509 0.0
H524 H 0.99497 0.89629 0.37161 0.0
H525 H 0.96466 0.92102 0.2637 0.0
H526 H 0.148 0.90937 0.29308 0.0
H527 H 0.23806 0.92926 0.31869 0.0
H528 H 0.26517 0.06221 0.25468 0.0
H529 H 0.17475 0.04357 0.22905 0.0
C530 C 0.06747 0.9679 0.10273 0.0
C531 C 0.02807 0.99771 0.09101 0.0
C532 C 0.07326 0.95466 0.13648 0.0
C533 C 0.03952 0.97078 0.15896 0.0
C534 C 1.00099 1.00125 0.14729 0.0
C535 C 0.99512 0.0144 0.11369 0.0
C536 C 0.04441 0.95673 0.19477 0.0
C537 C 0.09536 0.96801 0.2098 0.0
C538 C 0.99752 0.93687 0.21444 0.0
C539 C 0.94402 0.91977 0.19975 0.0
C540 C 0.89481 0.93559 0.20877 0.0
C541 C 0.84465 0.9197 0.19468 0.0
C542 C 0.84311 0.88786 0.1716 0.0
C543 C 0.89172 0.87175 0.1626 0.0
C544 C 0.94197 0.88748 0.17664 0.0
C545 C 0.05794 1.00703 0.34106 0.0
C546 C 0.03099 0.97033 0.36373 0.0
C547 C 0.06683 0.99929 0.30883 0.0
C548 C 0.04952 0.95449 0.29895 0.0
C549 C 0.02505 0.9171 0.32217 0.0
C550 C 0.016 0.92497 0.35438 0.0
C551 C 0.05118 0.94881 0.26367 0.0
C552 C 1.00137 0.93371 0.24866 0.0
C553 C 0.09951 0.96369 0.24415 0.0
C554 C 0.15435 0.9751 0.25918 0.0
C555 C 0.17297 0.943 0.28457 0.0
C556 C 0.22413 0.95405 0.2991 0.0
C557 C 0.25732 0.99699 0.28833 0.0
C558 C 0.23943 0.02894 0.26297 0.0
C559 C 0.18823 0.01811 0.24839 0.0
H560 H 0.29692 1.00549 0.29961 0.0
H561 H 0.80425 0.87563 0.16071 0.0
H562 H 0.92408 0.12172 0.90206 0.0
H563 H 0.92358 0.14986 0.8429 0.0
H564 H 0.04445 0.05779 0.82664 0.0
H565 H 0.04558 0.02997 0.88516 0.0
H566 H 0.07145 0.14724 0.79385 0.0
H567 H 0.90746 0.02745 0.81204 0.0
H568 H 0.81625 0.99551 0.83711 0.0
H569 H 0.75154 0.1233 0.79652 0.0
H570 H 0.84264 0.1562 0.77153 0.0
H571 H 0.06202 0.06465 0.64363 0.0
H572 H 0.06462 0.08804 0.69838 0.0
H573 H 0.92988 0.16993 0.67366 0.0
H574 H 0.92667 0.14464 0.61861 0.0
H575 H 0.90525 0.11396 0.72651 0.0
H576 H 0.06654 0.227 0.69906 0.0
H577 H 0.15894 0.2591 0.67548 0.0
H578 H 0.22915 0.14499 0.73241 0.0
H579 H 0.13767 0.1128 0.75691 0.0
C580 C 0.95027 0.10734 0.88579 0.0
C581 C 0.98475 0.07351 0.89829 0.0
C582 C 0.95003 0.12353 0.85207 0.0
C583 C 0.98414 0.106 0.83044 0.0
C584 C 0.0182 0.0721 0.84293 0.0
C585 C 0.01847 0.05598 0.87642 0.0
C586 C 0.98444 0.12164 0.79458 0.0
C587 C 0.03513 0.14026 0.77901 0.0
C588 C 0.93659 0.11441 0.77541 0.0
C589 C 0.88194 0.09451 0.79032 0.0
C590 C 0.87387 0.04886 0.8087 0.0
C591 C 0.8222 0.03057 0.82284 0.0
C592 C 0.77818 0.05743 0.81851 0.0
C593 C 0.78571 0.10258 0.79993 0.0
C594 C 0.83733 0.12106 0.78577 0.0
C595 C 0.0347 0.0893 0.64953 0.0
C596 C 0.99485 0.1036 0.62708 0.0
C597 C 0.03618 0.1029 0.68082 0.0
C598 C 0.99819 0.13171 0.69017 0.0
C599 C 0.95996 0.14809 0.66699 0.0
C600 C 0.95815 0.13388 0.63564 0.0
C601 C 0.99311 0.13744 0.7254 0.0
C602 C 0.94142 0.12285 0.74106 0.0
C603 C 0.04013 0.14848 0.74469 0.0
C604 C 0.09517 0.16742 0.72972 0.0
C605 C 0.10164 0.20864 0.70642 0.0
C606 C 0.15385 0.22689 0.69295 0.0
C607 C 0.19968 0.20385 0.70218 0.0
C608 C 0.1936 0.16278 0.72523 0.0
C609 C 0.14168 0.14473 0.73911 0.0
H610 H 0.23996 0.21796 0.69159 0.0
H611 H 0.7382 0.0432 0.82948 0.0
H612 H 0.60133 0.42521 0.61235 0.0
H613 H 0.59769 0.41521 0.67264 0.0
H614 H 0.52316 0.54475 0.66885 0.0
H615 H 0.52412 0.5534 0.60919 0.0
H616 H 0.6408 0.46084 0.71774 0.0
H617 H 0.43494 0.54435 0.72729 0.0
H618 H 0.34609 0.54456 0.69845 0.0
H619 H 0.36861 0.41416 0.66225 0.0
H620 H 0.45718 0.41272 0.69127 0.0
H621 H 0.63368 0.57419 0.85735 0.0
H622 H 0.63613 0.54344 0.80469 0.0
H623 H 0.48216 0.45251 0.83005 0.0
H624 H 0.4785 0.48641 0.88173 0.0
H625 H 0.47185 0.49014 0.77398 0.0
H626 H 0.61244 0.40899 0.82103 0.0
H627 H 0.6964 0.39478 0.85242 0.0
H628 H 0.79548 0.49258 0.78064 0.0
H629 H 0.71205 0.50819 0.74912 0.0
C630 C 0.58388 0.45128 0.62453 0.0
C631 C 0.56232 0.48973 0.60613 0.0
C632 C 0.58194 0.44562 0.65893 0.0
C633 C 0.55897 0.4786 0.6754 0.0
C634 C 0.53933 0.51786 0.65686 0.0
C635 C 0.54018 0.52295 0.62267 0.0
C636 C 0.55586 0.47311 0.71189 0.0
C637 C 0.60379 0.4668 0.73017 0.0
C638 C 0.50677 0.47829 0.72846 0.0
C639 C 0.45293 0.47858 0.71137 0.0
C640 C 0.42078 0.51552 0.71339 0.0
C641 C 0.37049 0.5159 0.69695 0.0
C642 C 0.35177 0.47945 0.67848 0.0
C643 C 0.38322 0.44245 0.67649 0.0
C644 C 0.4335 0.44185 0.69291 0.0
C645 C 0.60113 0.54701 0.85165 0.0
C646 C 0.55602 0.53237 0.8731 0.0
C647 C 0.6026 0.52906 0.82177 0.0
C648 C 0.55967 0.49499 0.81333 0.0
C649 C 0.51573 0.47877 0.83579 0.0
C650 C 0.51364 0.49779 0.86528 0.0
C651 C 0.55778 0.4807 0.77975 0.0
C652 C 0.50872 0.48313 0.76193 0.0
C653 C 0.60505 0.46944 0.76411 0.0
C654 C 0.65576 0.45991 0.78273 0.0
C655 C 0.65207 0.42771 0.812 0.0
C656 C 0.6996 0.4194 0.82984 0.0
C657 C 0.75124 0.44277 0.81854 0.0
C658 C 0.75545 0.47447 0.78935 0.0
C659 C 0.70802 0.48302 0.77146 0.0
H660 H 0.78798 0.43628 0.83238 0.0
H661 H 0.31287 0.47986 0.66574 0.0
H662 H 0.48231 0.55721 0.40246 0.0
H663 H 0.48703 0.56749 0.34228 0.0
H664 H 0.65454 0.53465 0.34624 0.0
H665 H 0.64993 0.52346 0.4063 0.0
H666 H 0.63304 0.61454 0.29586 0.0
H667 H 0.56772 0.44908 0.33669 0.0
H668 H 0.5058 0.38543 0.36993 0.0
H669 H 0.36536 0.43275 0.31832 0.0
H670 H 0.42645 0.49719 0.28512 0.0
H671 H 0.57897 0.4781 0.14328 0.0
H672 H 0.60371 0.48766 0.20017 0.0
H673 H 0.53594 0.62085 0.18971 0.0
H674 H 0.5099 0.61047 0.13298 0.0
H675 H 0.51349 0.49218 0.24351 0.0
H676 H 0.61678 0.68567 0.25099 0.0
H677 H 0.68204 0.74859 0.21949 0.0
H678 H 0.75105 0.64313 0.17336 0.0
H679 H 0.68721 0.57949 0.20511 0.0
C680 C 0.5203 0.55263 0.3905 0.0
C681 C 0.56553 0.53904 0.40906 0.0
C682 C 0.52298 0.55866 0.35618 0.0
C683 C 0.57118 0.55188 0.33994 0.0
C684 C 0.61715 0.5403 0.35838 0.0
C685 C 0.61421 0.53351 0.39265 0.0
C686 C 0.5719 0.5524 0.3039 0.0
C687 C 0.6068 0.58804 0.28425 0.0
C688 C 0.53823 0.5173 0.28905 0.0
C689 C 0.50156 0.47823 0.30868 0.0
C690 C 0.52359 0.44614 0.33263 0.0
C691 C 0.48866 0.40989 0.35143 0.0
C692 C 0.43166 0.40513 0.34631 0.0
C693 C 0.4095 0.43653 0.3223 0.0
C694 C 0.44426 0.4729 0.30347 0.0
C695 C 0.57054 0.50981 0.15303 0.0
C696 C 0.54161 0.54306 0.13431 0.0
C697 C 0.58476 0.51536 0.18535 0.0
C698 C 0.57122 0.55476 0.19914 0.0
C699 C 0.54696 0.59033 0.17943 0.0
C700 C 0.53227 0.5845 0.14711 0.0
C701 C 0.57436 0.55462 0.23511 0.0
C702 C 0.53974 0.51897 0.25488 0.0
C703 C 0.60841 0.58973 0.24986 0.0
C704 C 0.64661 0.62778 0.23021 0.0
C705 C 0.64599 0.67585 0.23421 0.0
C706 C 0.68291 0.71165 0.2164 0.0
C707 C 0.72075 0.69985 0.19449 0.0
C708 C 0.72171 0.65222 0.19033 0.0
C709 C 0.68504 0.61627 0.20818 0.0
H710 H 0.74913 0.72763 0.18063 0.0
H711 H 0.40469 0.37705 0.36089 0.0
loop_
_geom_bond_atom_site_label_1
_geom_bond_atom_site_label_2
_geom_bond_distance
_geom_bond_site_symmetry_2
_ccdc_geom_bond_type
Co0 N5 2.057 . S
Co0 O17 2.021 . S
Co0 O20 2.062 . S
Co0 O24 2.117 1_564 S
Co0 O25 2.020 1_565 S
C1 O21 1.259 1_455 S
C1 O24 1.258 . S
Co2 N11 2.057 . S
Co2 O18 2.117 1_655 S
Co2 O19 2.020 1_545 S
Co2 O21 2.021 1_554 S
Co2 O26 2.063 1_654 S
C3 N5 1.316 . S
C3 N6 1.347 . S
C3 H8 0.931 . S
C4 N5 1.375 1_556 S
C4 C7 1.350 . S
C4 H9 0.930 . S
N5 Co0 2.057 . S
N5 C3 1.316 . S
N5 C4 1.375 1_554 S
N6 C3 1.347 . S
N6 C7 1.373 1_554 S
C7 C4 1.350 . S
C7 N6 1.373 1_556 S
C7 H28 0.931 . S
H8 C3 0.931 . S
H9 C4 0.930 . S
C10 O17 1.259 1_545 S
C10 O18 1.258 . S
N11 Co2 2.057 . S
N11 C12 1.316 1_554 S
N11 C13 1.375 . S
C12 N11 1.316 1_556 S
C12 N14 1.347 1_556 S
C12 H23 0.931 . S
C13 N11 1.375 . S
C13 C15 1.350 . S
C13 H22 0.930 . S
N14 C12 1.347 1_554 S
N14 C15 1.373 . S
C15 C13 1.350 . S
C15 N14 1.373 . S
C15 H29 0.931 . S
C16 O19 1.256 . S
C16 O20 1.255 1_655 S
O17 Co0 2.021 . S
O17 C10 1.259 1_565 S
O18 Co2 2.117 1_455 S
O18 C10 1.258 . S
O19 Co2 2.020 1_565 S
O19 C16 1.256 . S
O20 Co0 2.062 . S
O20 C16 1.255 1_455 S
O21 C1 1.259 1_655 S
O21 Co2 2.021 1_556 S
H22 C13 0.930 . S
H23 C12 0.931 . S
O24 Co0 2.117 1_546 S
O24 C1 1.258 . S
O25 Co0 2.020 1_545 S
O25 C27 1.256 . S
O26 Co2 2.063 1_456 S
O26 C27 1.253 1_556 S
C27 O25 1.256 . S
C27 O26 1.253 1_554 S
H28 C7 0.931 . S
H29 C15 0.931 . S
Co30 N35 2.057 . S
Co30 O47 2.021 . S
Co30 O50 2.062 . S
Co30 O54 2.117 . S
Co30 O55 2.020 . S
C31 O51 1.259 . S
C31 O54 1.258 . S
Co32 N41 2.057 . S
Co32 O48 2.117 . S
Co32 O49 2.020 . S
Co32 O51 2.021 . S
Co32 O56 2.062 . S
C33 N35 1.316 . S
C33 N36 1.347 . S
C33 H38 0.931 . S
C34 N35 1.375 . S
C34 C37 1.350 . S
C34 H39 0.930 . S
N35 Co30 2.057 . S
N35 C33 1.316 . S
N35 C34 1.375 . S
N36 C33 1.347 . S
N36 C37 1.373 . S
C37 C34 1.350 . S
C37 N36 1.373 . S
C37 H58 0.931 . S
H38 C33 0.931 . S
H39 C34 0.930 . S
C40 O47 1.259 . S
C40 O48 1.258 . S
N41 Co32 2.057 . S
N41 C42 1.316 . S
N41 C43 1.375 . S
C42 N41 1.316 . S
C42 N44 1.347 . S
C42 H53 0.931 . S
C43 N41 1.375 . S
C43 C45 1.350 . S
C43 H52 0.930 . S
N44 C42 1.347 . S
N44 C45 1.373 . S
C45 C43 1.350 . S
C45 N44 1.373 . S
C45 H59 0.931 . S
C46 O49 1.256 . S
C46 O50 1.255 . S
O47 Co30 2.021 . S
O47 C40 1.259 . S
O48 Co32 2.117 . S
O48 C40 1.258 . S
O49 Co32 2.020 . S
O49 C46 1.256 . S
O50 Co30 2.062 . S
O50 C46 1.255 . S
O51 C31 1.259 . S
O51 Co32 2.021 . S
H52 C43 0.930 . S
H53 C42 0.931 . S
O54 Co30 2.117 . S
O54 C31 1.258 . S
O55 Co30 2.020 . S
O55 C57 1.256 . S
O56 Co32 2.062 . S
O56 C57 1.255 . S
C57 O55 1.256 . S
C57 O56 1.255 . S
H58 C37 0.931 . S
H59 C45 0.931 . S
C60 N61 1.317 1_545 S
C60 N62 1.348 1_455 S
C60 C63 1.485 1_545 S
N61 C60 1.317 1_565 S
N61 N65 1.370 1_565 S
N62 C60 1.348 1_655 S
N62 C64 1.346 . S
C63 C60 1.485 1_565 S
C63 H67 0.960 1_455 S
C63 H68 0.961 1_565 S
C63 H69 0.960 . S
C64 N62 1.346 . S
C64 N65 1.307 1_655 S
C64 C66 1.486 . S
N65 N61 1.370 1_545 S
N65 C64 1.307 1_455 S
C66 C64 1.486 . S
C66 H70 0.960 . S
C66 H71 0.960 . S
C66 H72 0.959 . S
H67 C63 0.960 1_655 S
H68 C63 0.961 1_545 S
H69 C63 0.960 . S
H70 C66 0.960 . S
H71 C66 0.960 . S
H72 C66 0.959 . S
C73 N74 1.317 . S
C73 N75 1.348 1_445 S
C73 C76 1.485 . S
N74 C73 1.317 . S
N74 N78 1.370 . S
N75 C73 1.348 1_665 S
N75 C77 1.350 . S
C76 C73 1.485 . S
C76 H80 0.960 1_455 S
C76 H81 0.961 . S
C76 H82 0.960 . S
C77 N75 1.350 . S
C77 N78 1.295 1_665 S
C77 C79 1.494 . S
N78 N74 1.370 . S
N78 C77 1.295 1_445 S
C79 C77 1.494 . S
C79 H83 0.960 . S
C79 H84 0.960 . S
C79 H85 0.959 . S
H80 C76 0.960 1_655 S
H81 C76 0.961 . S
H82 C76 0.960 . S
H83 C79 0.960 . S
H84 C79 0.960 . S
H85 C79 0.959 . S
C86 N87 1.317 . S
C86 N88 1.348 . S
C86 C89 1.485 1_556 S
N87 C86 1.317 . S
N87 N91 1.370 . S
N88 C86 1.348 . S
N88 C90 1.346 . S
C89 C86 1.485 1_554 S
C89 H93 0.960 . S
C89 H94 0.961 . S
C89 H95 0.960 . S
C90 N88 1.346 . S
C90 N91 1.307 . S
C90 C92 1.486 . S
N91 N87 1.370 . S
N91 C90 1.307 . S
C92 C90 1.486 . S
C92 H96 0.960 . S
C92 H97 0.960 . S
C92 H98 0.959 . S
H93 C89 0.960 . S
H94 C89 0.961 . S
H95 C89 0.960 . S
H96 C92 0.960 . S
H97 C92 0.960 . S
H98 C92 0.959 . S
C99 N100 1.317 . S
C99 N101 1.348 . S
C99 C102 1.471 1_554 S
N100 C99 1.317 . S
N100 N104 1.370 . S
N101 C99 1.348 . S
N101 C103 1.346 . S
C102 C99 1.471 1_556 S
C102 H106 0.966 . S
C102 H107 0.969 . S
C102 H108 0.960 . S
C103 N101 1.346 . S
C103 N104 1.307 . S
C103 C105 1.486 . S
N104 N100 1.370 . S
N104 C103 1.307 . S
C105 C103 1.486 . S
C105 H109 0.960 . S
C105 H110 0.960 . S
C105 H111 0.959 . S
H106 C102 0.966 . S
H107 C102 0.969 . S
H108 C102 0.960 . S
H109 C105 0.960 . S
H110 C105 0.960 . S
H111 C105 0.959 . S
H112 C130 0.951 . S
H113 C132 0.951 . S
H114 C134 0.950 . S
H115 C135 0.950 . S
H116 C137 0.950 . S
H117 C140 0.950 . S
H118 C141 0.950 . S
H119 C143 0.950 . S
H120 C144 0.950 . S
H121 C145 0.951 . S
H122 C147 0.951 . S
H123 C149 0.950 1_556 S
H124 C150 0.950 1_556 S
H125 C152 0.950 . S
H126 C155 0.950 . S
H127 C156 0.950 . S
H128 C158 0.950 . S
H129 C159 0.950 . S
C130 H112 0.951 . S
C130 C131 1.366 1_556 S
C130 C132 1.388 . S
C131 C130 1.366 1_554 S
C131 C135 1.385 . S
C132 H113 0.951 . S
C132 C130 1.388 . S
C132 C133 1.366 1_556 S
C133 C132 1.366 1_554 S
C133 C134 1.414 . S
C133 C136 1.499 . S
C134 H114 0.950 . S
C134 C133 1.414 . S
C134 C135 1.374 . S
C135 H115 0.950 . S
C135 C131 1.385 . S
C135 C134 1.374 . S
C136 C133 1.499 . S
C136 C137 1.373 . S
C136 C138 1.389 . S
C137 H116 0.950 . S
C137 C136 1.373 . S
C137 C153 1.377 . S
C138 C136 1.389 . S
C138 C139 1.516 1_554 S
C138 C152 1.377 . S
C139 C138 1.516 1_556 S
C139 C140 1.385 1_556 S
C139 C144 1.381 . S
C140 H117 0.950 . S
C140 C139 1.385 1_554 S
C140 C141 1.334 . S
C141 H118 0.950 . S
C141 C140 1.334 . S
C141 C142 1.287 1_554 S
C142 C141 1.287 1_556 S
C142 C143 1.524 . S
C142 H161 0.913 . S
C143 H119 0.950 . S
C143 C142 1.524 . S
C143 C144 1.415 . S
C144 H120 0.950 . S
C144 C139 1.381 . S
C144 C143 1.415 . S
C145 H121 0.951 . S
C145 C146 1.366 . S
C145 C147 1.388 . S
C146 C145 1.366 . S
C146 C150 1.385 . S
C147 H122 0.951 . S
C147 C145 1.388 . S
C147 C148 1.366 . S
C148 C147 1.366 . S
C148 C149 1.414 . S
C148 C151 1.499 . S
C149 H123 0.950 1_554 S
C149 C148 1.414 . S
C149 C150 1.374 . S
C150 H124 0.950 1_554 S
C150 C146 1.385 . S
C150 C149 1.374 . S
C151 C148 1.499 . S
C151 C152 1.373 . S
C151 C153 1.389 . S
C152 H125 0.950 . S
C152 C138 1.377 . S
C152 C151 1.373 . S
C153 C137 1.377 . S
C153 C151 1.389 . S
C153 C154 1.524 . S
C154 C153 1.524 . S
C154 C155 1.397 . S
C154 C159 1.363 . S
C155 H126 0.950 . S
C155 C154 1.397 . S
C155 C156 1.334 . S
C156 H127 0.950 . S
C156 C155 1.334 . S
C156 C157 1.287 . S
C157 C156 1.287 . S
C157 C158 1.524 . S
C157 H160 0.999 . S
C158 H128 0.950 . S
C158 C157 1.524 . S
C158 C159 1.415 . S
C159 H129 0.950 . S
C159 C154 1.363 . S
C159 C158 1.415 . S
H160 C157 0.999 . S
H161 C142 0.913 . S
H162 C180 0.951 . S
H163 C182 0.948 1_556 S
H164 C184 0.950 . S
H165 C185 0.950 . S
H166 C187 0.950 . S
H167 C190 0.950 . S
H168 C191 0.950 . S
H169 C193 0.950 . S
H170 C194 0.950 . S
H171 C195 0.951 . S
H172 C197 0.951 . S
H173 C199 0.950 . S
H174 C200 0.950 . S
H175 C202 0.950 . S
H176 C205 0.950 . S
H177 C206 0.950 . S
H178 C208 0.950 . S
H179 C209 0.950 . S
C180 H162 0.951 . S
C180 C181 1.366 . S
C180 C182 1.392 . S
C181 C180 1.366 . S
C181 C185 1.385 . S
C182 H163 0.948 1_554 S
C182 C180 1.392 . S
C182 C183 1.365 . S
C183 C182 1.365 . S
C183 C184 1.414 . S
C183 C186 1.499 1_554 S
C184 H164 0.950 . S
C184 C183 1.414 . S
C184 C185 1.374 . S
C185 H165 0.950 . S
C185 C181 1.385 . S
C185 C184 1.374 . S
C186 C183 1.499 1_556 S
C186 C187 1.373 1_556 S
C186 C188 1.389 . S
C187 H166 0.950 . S
C187 C186 1.373 1_554 S
C187 C203 1.377 . S
C188 C186 1.389 . S
C188 C189 1.524 . S
C188 C202 1.377 . S
C189 C188 1.524 . S
C189 C190 1.397 . S
C189 C194 1.363 . S
C190 H167 0.950 . S
C190 C189 1.397 . S
C190 C191 1.334 . S
C191 H168 0.950 . S
C191 C190 1.334 . S
C191 C192 1.287 . S
C192 C191 1.287 . S
C192 C193 1.524 . S
C192 H211 0.913 . S
C193 H169 0.950 . S
C193 C192 1.524 . S
C193 C194 1.415 . S
C194 H170 0.950 . S
C194 C189 1.363 . S
C194 C193 1.415 . S
C195 H171 0.951 . S
C195 C196 1.366 . S
C195 C197 1.388 . S
C196 C195 1.366 . S
C196 C200 1.385 . S
C197 H172 0.951 . S
C197 C195 1.388 . S
C197 C198 1.366 . S
C198 C197 1.366 . S
C198 C199 1.414 . S
C198 C201 1.499 . S
C199 H173 0.950 . S
C199 C198 1.414 . S
C199 C200 1.374 . S
C200 H174 0.950 . S
C200 C196 1.385 . S
C200 C199 1.374 . S
C201 C198 1.499 . S
C201 C202 1.373 . S
C201 C203 1.389 1_556 S
C202 H175 0.950 . S
C202 C188 1.377 . S
C202 C201 1.373 . S
C203 C187 1.377 . S
C203 C201 1.389 1_554 S
C203 C204 1.524 . S
C204 C203 1.524 . S
C204 C205 1.397 . S
C204 C209 1.363 . S
C205 H176 0.950 . S
C205 C204 1.397 . S
C205 C206 1.334 . S
C206 H177 0.950 . S
C206 C205 1.334 . S
C206 C207 1.287 . S
C207 C206 1.287 . S
C207 C208 1.524 . S
C207 H210 0.999 . S
C208 H178 0.950 . S
C208 C207 1.524 . S
C208 C209 1.415 . S
C209 H179 0.950 . S
C209 C204 1.363 . S
C209 C208 1.415 . S
H210 C207 0.999 . S
H211 C192 0.913 . S
H212 C230 0.951 . S
H213 C232 0.951 . S
H214 C234 0.950 1_556 S
H215 C235 0.950 . S
H216 C237 0.950 . S
H217 C240 0.950 . S
H218 C241 0.950 . S
H219 C243 0.950 . S
H220 C244 0.950 . S
H221 C245 0.951 . S
H222 C247 0.951 . S
H223 C249 0.950 . S
H224 C250 0.950 . S
H225 C252 0.950 . S
H226 C255 0.950 . S
H227 C256 0.950 . S
H228 C258 0.950 . S
H229 C259 0.950 . S
C230 H212 0.951 . S
C230 C231 1.366 . S
C230 C232 1.388 . S
C231 C230 1.366 . S
C231 C235 1.385 1_554 S
C232 H213 0.951 . S
C232 C230 1.388 . S
C232 C233 1.366 . S
C233 C232 1.366 . S
C233 C234 1.414 . S
C233 C236 1.499 . S
C234 H214 0.950 1_554 S
C234 C233 1.414 . S
C234 C235 1.374 1_554 S
C235 H215 0.950 . S
C235 C231 1.385 1_556 S
C235 C234 1.374 1_556 S
C236 C233 1.499 . S
C236 C237 1.373 . S
C236 C238 1.389 . S
C237 H216 0.950 . S
C237 C236 1.373 . S
C237 C253 1.377 . S
C238 C236 1.389 . S
C238 C239 1.524 . S
C238 C252 1.377 . S
C239 C238 1.524 . S
C239 C240 1.397 1_554 S
C239 C244 1.363 . S
C240 H217 0.950 . S
C240 C239 1.397 1_556 S
C240 C241 1.334 . S
C241 H218 0.950 . S
C241 C240 1.334 . S
C241 C242 1.287 . S
C242 C241 1.287 . S
C242 C243 1.524 1_556 S
C242 H261 0.913 . S
C243 H219 0.950 . S
C243 C242 1.524 1_554 S
C243 C244 1.415 . S
C244 H220 0.950 . S
C244 C239 1.363 . S
C244 C243 1.415 . S
C245 H221 0.951 . S
C245 C246 1.366 . S
C245 C247 1.388 . S
C246 C245 1.366 . S
C246 C250 1.385 . S
C247 H222 0.951 . S
C247 C245 1.388 . S
C247 C248 1.366 . S
C248 C247 1.366 . S
C248 C249 1.414 . S
C248 C251 1.499 . S
C249 H223 0.950 . S
C249 C248 1.414 . S
C249 C250 1.374 . S
C250 H224 0.950 . S
C250 C246 1.385 . S
C250 C249 1.374 . S
C251 C248 1.499 . S
C251 C252 1.373 . S
C251 C253 1.389 . S
C252 H225 0.950 . S
C252 C238 1.377 . S
C252 C251 1.373 . S
C253 C237 1.377 . S
C253 C251 1.389 . S
C253 C254 1.524 . S
C254 C253 1.524 . S
C254 C255 1.397 . S
C254 C259 1.363 . S
C255 H226 0.950 . S
C255 C254 1.397 . S
C255 C256 1.334 . S
C256 H227 0.950 . S
C256 C255 1.334 . S
C256 C257 1.287 . S
C257 C256 1.287 . S
C257 C258 1.524 . S
C257 H260 0.999 . S
C258 H228 0.950 . S
C258 C257 1.524 . S
C258 C259 1.415 . S
C259 H229 0.950 . S
C259 C254 1.363 . S
C259 C258 1.415 . S
H260 C257 0.999 . S
H261 C242 0.913 . S
H262 C280 0.951 . S
H263 C282 0.951 . S
H264 C284 0.950 . S
H265 C285 0.950 . S
H266 C287 0.950 . S
H267 C290 0.950 . S
H268 C291 0.950 . S
H269 C293 0.950 . S
H270 C294 0.950 . S
H271 C295 0.972 . S
H272 C297 0.951 1_554 S
H273 C299 0.950 . S
H274 C300 0.950 . S
H275 C302 0.950 . S
H276 C305 0.950 . S
H277 C306 0.950 . S
H278 C308 0.950 . S
H279 C309 0.950 . S
C280 H262 0.951 . S
C280 C281 1.366 . S
C280 C282 1.388 . S
C281 C280 1.366 . S
C281 C285 1.385 1_556 S
C282 H263 0.951 . S
C282 C280 1.388 . S
C282 C283 1.366 . S
C283 C282 1.366 . S
C283 C284 1.414 1_556 S
C283 C286 1.499 . S
C284 H264 0.950 . S
C284 C283 1.414 1_554 S
C284 C285 1.374 . S
C285 H265 0.950 . S
C285 C281 1.385 1_554 S
C285 C284 1.374 . S
C286 C283 1.499 . S
C286 C287 1.373 1_556 S
C286 C288 1.389 . S
C287 H266 0.950 . S
C287 C286 1.373 1_554 S
C287 C303 1.377 . S
C288 C286 1.389 . S
C288 C289 1.524 . S
C288 C302 1.377 . S
C289 C288 1.524 . S
C289 C290 1.397 . S
C289 C294 1.363 . S
C290 H267 0.950 . S
C290 C289 1.397 . S
C290 C291 1.334 . S
C291 H268 0.950 . S
C291 C290 1.334 . S
C291 C292 1.287 . S
C292 C291 1.287 . S
C292 C293 1.524 . S
C292 H311 0.913 . S
C293 H269 0.950 . S
C293 C292 1.524 . S
C293 C294 1.415 . S
C294 H270 0.950 . S
C294 C289 1.363 . S
C294 C293 1.415 . S
C295 H271 0.972 . S
C295 C296 1.366 . S
C295 C297 1.388 . S
C296 C295 1.366 . S
C296 C300 1.385 . S
C297 H272 0.951 1_556 S
C297 C295 1.388 . S
C297 C298 1.366 . S
C298 C297 1.366 . S
C298 C299 1.414 . S
C298 C301 1.499 . S
C299 H273 0.950 . S
C299 C298 1.414 . S
C299 C300 1.374 . S
C300 H274 0.950 . S
C300 C296 1.385 . S
C300 C299 1.374 . S
C301 C298 1.499 . S
C301 C302 1.373 . S
C301 C303 1.389 1_556 S
C302 H275 0.950 . S
C302 C288 1.377 . S
C302 C301 1.373 . S
C303 C287 1.377 . S
C303 C301 1.389 1_554 S
C303 C304 1.524 . S
C304 C303 1.524 . S
C304 C305 1.397 . S
C304 C309 1.363 . S
C305 H276 0.950 . S
C305 C304 1.397 . S
C305 C306 1.334 . S
C306 H277 0.950 . S
C306 C305 1.334 . S
C306 C307 1.287 . S
C307 C306 1.287 . S
C307 C308 1.524 . S
C307 H310 0.999 . S
C308 H278 0.950 . S
C308 C307 1.524 . S
C308 C309 1.415 . S
C309 H279 0.950 . S
C309 C304 1.363 . S
C309 C308 1.415 . S
H310 C307 0.999 . S
H311 C292 0.913 . S
H312 C330 0.951 . S
H313 C332 0.951 . S
H314 C334 0.950 . S
H315 C335 0.950 . S
H316 C337 0.950 . S
H317 C340 0.950 . S
H318 C341 0.950 . S
H319 C343 0.950 . S
H320 C344 0.950 . S
H321 C345 0.951 . S
H322 C347 0.951 . S
H323 C349 0.950 . S
H324 C350 0.950 . S
H325 C352 0.950 . S
H326 C355 0.950 . S
H327 C356 0.950 . S
H328 C358 0.950 . S
H329 C359 0.950 . S
C330 H312 0.951 . S
C330 C331 1.366 . S
C330 C332 1.388 . S
C331 C330 1.366 . S
C331 C335 1.385 . S
C332 H313 0.951 . S
C332 C330 1.388 . S
C332 C333 1.366 . S
C333 C332 1.366 . S
C333 C334 1.414 . S
C333 C336 1.499 . S
C334 H314 0.950 . S
C334 C333 1.414 . S
C334 C335 1.374 . S
C335 H315 0.950 . S
C335 C331 1.385 . S
C335 C334 1.374 . S
C336 C333 1.499 . S
C336 C337 1.373 . S
C336 C338 1.389 . S
C337 H316 0.950 . S
C337 C336 1.373 . S
C337 C353 1.377 . S
C338 C336 1.389 . S
C338 C339 1.524 . S
C338 C352 1.377 . S
C339 C338 1.524 . S
C339 C340 1.397 . S
C339 C344 1.363 . S
C340 H317 0.950 . S
C340 C339 1.397 . S
C340 C341 1.334 . S
C341 H318 0.950 . S
C341 C340 1.334 . S
C341 C342 1.287 . S
C342 C341 1.287 . S
C342 C343 1.524 . S
C342 H361 0.913 . S
C343 H319 0.950 . S
C343 C342 1.524 . S
C343 C344 1.415 . S
C344 H320 0.950 . S
C344 C339 1.363 . S
C344 C343 1.415 . S
C345 H321 0.951 . S
C345 C346 1.366 . S
C345 C347 1.388 . S
C346 C345 1.366 . S
C346 C350 1.385 . S
C347 H322 0.951 . S
C347 C345 1.388 . S
C347 C348 1.366 . S
C348 C347 1.366 . S
C348 C349 1.414 . S
C348 C351 1.499 . S
C349 H323 0.950 . S
C349 C348 1.414 . S
C349 C350 1.374 . S
C350 H324 0.950 . S
C350 C346 1.385 . S
C350 C349 1.374 . S
C351 C348 1.499 . S
C351 C352 1.373 . S
C351 C353 1.389 . S
C352 H325 0.950 . S
C352 C338 1.377 . S
C352 C351 1.373 . S
C353 C337 1.377 . S
C353 C351 1.389 . S
C353 C354 1.524 . S
C354 C353 1.524 . S
C354 C355 1.397 . S
C354 C359 1.363 . S
C355 H326 0.950 . S
C355 C354 1.397 . S
C355 C356 1.334 . S
C356 H327 0.950 . S
C356 C355 1.334 . S
C356 C357 1.287 . S
C357 C356 1.287 . S
C357 C358 1.524 . S
C357 H360 0.999 . S
C358 H328 0.950 . S
C358 C357 1.524 . S
C358 C359 1.415 . S
C359 H329 0.950 . S
C359 C354 1.363 . S
C359 C358 1.415 . S
H360 C357 0.999 . S
H361 C342 0.913 . S
H362 C380 0.951 . S
H363 C382 0.951 . S
H364 C384 0.950 . S
H365 C385 0.950 . S
H366 C387 0.950 . S
H367 C390 0.950 . S
H368 C391 0.950 . S
H369 C393 0.950 . S
H370 C394 0.950 . S
H371 C395 0.951 1_455 S
H372 C397 0.951 . S
H373 C399 0.950 . S
H374 C400 0.950 . S
H375 C402 0.950 . S
H376 C405 0.950 . S
H377 C406 0.950 . S
H378 C408 0.950 . S
H379 C409 0.950 . S
C380 H362 0.951 . S
C380 C381 1.366 . S
C380 C382 1.388 . S
C381 C380 1.366 . S
C381 C385 1.385 . S
C382 H363 0.951 . S
C382 C380 1.388 . S
C382 C383 1.366 . S
C383 C382 1.366 . S
C383 C384 1.414 . S
C383 C386 1.499 . S
C384 H364 0.950 . S
C384 C383 1.414 . S
C384 C385 1.374 . S
C385 H365 0.950 . S
C385 C381 1.385 . S
C385 C384 1.374 . S
C386 C383 1.499 . S
C386 C387 1.373 . S
C386 C388 1.389 . S
C387 H366 0.950 . S
C387 C386 1.373 . S
C387 C403 1.377 . S
C388 C386 1.389 . S
C388 C389 1.524 . S
C388 C402 1.377 . S
C389 C388 1.524 . S
C389 C390 1.397 . S
C389 C394 1.363 . S
C390 H367 0.950 . S
C390 C389 1.397 . S
C390 C391 1.334 . S
C391 H368 0.950 . S
C391 C390 1.334 . S
C391 C392 1.287 . S
C392 C391 1.287 . S
C392 C393 1.524 . S
C392 H411 0.913 . S
C393 H369 0.950 . S
C393 C392 1.524 . S
C393 C394 1.415 . S
C394 H370 0.950 . S
C394 C389 1.363 . S
C394 C393 1.415 . S
C395 H371 0.951 1_655 S
C395 C396 1.366 . S
C395 C397 1.388 . S
C396 C395 1.366 . S
C396 C400 1.385 . S
C397 H372 0.951 . S
C397 C395 1.388 . S
C397 C398 1.366 . S
C398 C397 1.366 . S
C398 C399 1.414 . S
C398 C401 1.499 . S
C399 H373 0.950 . S
C399 C398 1.414 . S
C399 C400 1.374 . S
C400 H374 0.950 . S
C400 C396 1.385 . S
C400 C399 1.374 . S
C401 C398 1.499 . S
C401 C402 1.373 . S
C401 C403 1.389 . S
C402 H375 0.950 . S
C402 C388 1.377 . S
C402 C401 1.373 . S
C403 C387 1.377 . S
C403 C401 1.389 . S
C403 C404 1.524 . S
C404 C403 1.524 . S
C404 C405 1.397 . S
C404 C409 1.363 . S
C405 H376 0.950 . S
C405 C404 1.397 . S
C405 C406 1.334 . S
C406 H377 0.950 . S
C406 C405 1.334 . S
C406 C407 1.287 . S
C407 C406 1.287 . S
C407 C408 1.524 . S
C407 H410 0.999 . S
C408 H378 0.950 . S
C408 C407 1.524 . S
C408 C409 1.415 . S
C409 H379 0.950 . S
C409 C404 1.363 . S
C409 C408 1.415 . S
H410 C407 0.999 . S
H411 C392 0.913 . S
H412 C430 0.951 . S
H413 C432 0.951 . S
H414 C434 0.950 . S
H415 C435 0.950 . S
H416 C437 0.950 . S
H417 C440 0.950 . S
H418 C441 0.950 . S
H419 C443 0.950 . S
H420 C444 0.950 . S
H421 C445 0.951 . S
H422 C447 0.951 . S
H423 C449 0.950 . S
H424 C450 0.950 . S
H425 C452 0.950 . S
H426 C455 0.950 . S
H427 C456 0.950 . S
H428 C458 0.950 . S
H429 C459 0.950 . S
C430 H412 0.951 . S
C430 C431 1.366 . S
C430 C432 1.388 . S
C431 C430 1.366 . S
C431 C435 1.385 . S
C432 H413 0.951 . S
C432 C430 1.388 . S
C432 C433 1.366 . S
C433 C432 1.366 . S
C433 C434 1.414 . S
C433 C436 1.499 . S
C434 H414 0.950 . S
C434 C433 1.414 . S
C434 C435 1.374 . S
C435 H415 0.950 . S
C435 C431 1.385 . S
C435 C434 1.374 . S
C436 C433 1.499 . S
C436 C437 1.373 . S
C436 C438 1.389 . S
C437 H416 0.950 . S
C437 C436 1.373 . S
C437 C453 1.377 . S
C438 C436 1.389 . S
C438 C439 1.524 . S
C438 C452 1.377 . S
C439 C438 1.524 . S
C439 C440 1.397 . S
C439 C444 1.363 . S
C440 H417 0.950 . S
C440 C439 1.397 . S
C440 C441 1.334 . S
C441 H418 0.950 . S
C441 C440 1.334 . S
C441 C442 1.287 . S
C442 C441 1.287 . S
C442 C443 1.524 . S
C442 H461 0.913 . S
C443 H419 0.950 . S
C443 C442 1.524 . S
C443 C444 1.415 . S
C444 H420 0.950 . S
C444 C439 1.363 . S
C444 C443 1.415 . S
C445 H421 0.951 . S
C445 C446 1.366 . S
C445 C447 1.388 . S
C446 C445 1.366 . S
C446 C450 1.385 . S
C447 H422 0.951 . S
C447 C445 1.388 . S
C447 C448 1.366 . S
C448 C447 1.366 . S
C448 C449 1.414 . S
C448 C451 1.499 . S
C449 H423 0.950 . S
C449 C448 1.414 . S
C449 C450 1.374 . S
C450 H424 0.950 . S
C450 C446 1.385 . S
C450 C449 1.374 . S
C451 C448 1.499 . S
C451 C452 1.373 . S
C451 C453 1.389 . S
C452 H425 0.950 . S
C452 C438 1.377 . S
C452 C451 1.373 . S
C453 C437 1.377 . S
C453 C451 1.389 . S
C453 C454 1.524 . S
C454 C453 1.524 . S
C454 C455 1.397 . S
C454 C459 1.363 . S
C455 H426 0.950 . S
C455 C454 1.397 . S
C455 C456 1.334 . S
C456 H427 0.950 . S
C456 C455 1.334 . S
C456 C457 1.287 . S
C457 C456 1.287 . S
C457 C458 1.524 . S
C457 H460 0.999 . S
C458 H428 0.950 . S
C458 C457 1.524 . S
C458 C459 1.415 . S
C459 H429 0.950 . S
C459 C454 1.363 . S
C459 C458 1.415 . S
H460 C457 0.999 . S
H461 C442 0.913 . S
H462 C480 0.951 . S
H463 C482 0.951 . S
H464 C484 0.950 . S
H465 C485 0.950 . S
H466 C487 0.950 . S
H467 C490 0.950 . S
H468 C491 0.950 . S
H469 C493 0.950 . S
H470 C494 0.950 . S
H471 C495 0.951 . S
H472 C497 0.951 . S
H473 C499 0.950 . S
H474 C500 0.950 . S
H475 C502 0.950 . S
H476 C505 0.950 . S
H477 C506 0.950 . S
H478 C508 0.950 . S
H479 C509 0.950 . S
C480 H462 0.951 . S
C480 C481 1.366 . S
C480 C482 1.388 . S
C481 C480 1.366 . S
C481 C485 1.385 . S
C482 H463 0.951 . S
C482 C480 1.388 . S
C482 C483 1.366 . S
C483 C482 1.366 . S
C483 C484 1.414 . S
C483 C486 1.499 . S
C484 H464 0.950 . S
C484 C483 1.414 . S
C484 C485 1.374 . S
C485 H465 0.950 . S
C485 C481 1.385 . S
C485 C484 1.374 . S
C486 C483 1.499 . S
C486 C487 1.373 . S
C486 C488 1.389 . S
C487 H466 0.950 . S
C487 C486 1.373 . S
C487 C503 1.377 . S
C488 C486 1.389 . S
C488 C489 1.524 . S
C488 C502 1.377 . S
C489 C488 1.524 . S
C489 C490 1.397 . S
C489 C494 1.363 . S
C490 H467 0.950 . S
C490 C489 1.397 . S
C490 C491 1.334 . S
C491 H468 0.950 . S
C491 C490 1.334 . S
C491 C492 1.287 . S
C492 C491 1.287 . S
C492 C493 1.524 . S
C492 H511 0.913 . S
C493 H469 0.950 . S
C493 C492 1.524 . S
C493 C494 1.415 . S
C494 H470 0.950 . S
C494 C489 1.363 . S
C494 C493 1.415 . S
C495 H471 0.951 . S
C495 C496 1.366 . S
C495 C497 1.388 . S
C496 C495 1.366 . S
C496 C500 1.385 . S
C497 H472 0.951 . S
C497 C495 1.388 . S
C497 C498 1.366 . S
C498 C497 1.366 . S
C498 C499 1.414 . S
C498 C501 1.499 . S
C499 H473 0.950 . S
C499 C498 1.414 . S
C499 C500 1.374 . S
C500 H474 0.950 . S
C500 C496 1.385 . S
C500 C499 1.374 . S
C501 C498 1.499 . S
C501 C502 1.373 . S
C501 C503 1.389 . S
C502 H475 0.950 . S
C502 C488 1.377 . S
C502 C501 1.373 . S
C503 C487 1.377 . S
C503 C501 1.389 . S
C503 C504 1.524 . S
C504 C503 1.524 . S
C504 C505 1.397 . S
C504 C509 1.363 . S
C505 H476 0.950 . S
C505 C504 1.397 . S
C505 C506 1.334 . S
C506 H477 0.950 . S
C506 C505 1.334 . S
C506 C507 1.287 . S
C507 C506 1.287 . S
C507 C508 1.524 . S
C507 H510 0.999 1_455 S
C508 H478 0.950 . S
C508 C507 1.524 . S
C508 C509 1.415 . S
C509 H479 0.950 . S
C509 C504 1.363 . S
C509 C508 1.415 . S
H510 C507 0.999 1_655 S
H511 C492 0.913 . S
H512 C530 0.951 . S
H513 C532 0.951 . S
H514 C534 0.948 1_655 S
H515 C535 0.950 1_655 S
H516 C537 0.950 . S
H517 C540 0.950 . S
H518 C541 0.950 . S
H519 C543 0.950 . S
H520 C544 0.950 . S
H521 C545 0.951 . S
H522 C547 0.951 . S
H523 C549 0.950 . S
H524 C550 0.950 . S
H525 C552 0.950 1_655 S
H526 C555 0.950 . S
H527 C556 0.950 . S
H528 C558 0.950 . S
H529 C559 0.950 . S
C530 H512 0.951 . S
C530 C531 1.366 1_565 S
C530 C532 1.388 . S
C531 C530 1.366 1_545 S
C531 C535 1.385 . S
C532 H513 0.951 . S
C532 C530 1.388 . S
C532 C533 1.366 1_565 S
C533 C532 1.366 1_545 S
C533 C534 1.416 . S
C533 C536 1.495 . S
C534 H514 0.948 1_455 S
C534 C533 1.416 . S
C534 C535 1.374 . S
C535 H515 0.950 1_455 S
C535 C531 1.385 . S
C535 C534 1.374 . S
C536 C533 1.495 . S
C536 C537 1.396 . S
C536 C538 1.370 1_545 S
C537 H516 0.950 . S
C537 C536 1.396 . S
C537 C553 1.377 . S
C538 C536 1.370 1_565 S
C538 C539 1.524 1_455 S
C538 C552 1.377 . S
C539 C538 1.524 1_655 S
C539 C540 1.397 . S
C539 C544 1.363 1_655 S
C540 H517 0.950 . S
C540 C539 1.397 . S
C540 C541 1.334 . S
C541 H518 0.950 . S
C541 C540 1.334 . S
C541 C542 1.287 . S
C542 C541 1.287 . S
C542 C543 1.524 . S
C542 H561 0.913 . S
C543 H519 0.950 . S
C543 C542 1.524 . S
C543 C544 1.415 1_655 S
C544 H520 0.950 . S
C544 C539 1.363 1_455 S
C544 C543 1.415 1_455 S
C545 H521 0.951 . S
C545 C546 1.366 1_645 S
C545 C547 1.388 . S
C546 C545 1.366 1_465 S
C546 C550 1.385 . S
C547 H522 0.951 . S
C547 C545 1.388 . S
C547 C548 1.349 1_645 S
C548 C547 1.349 1_465 S
C548 C549 1.429 . S
C548 C551 1.500 . S
C549 H523 0.950 . S
C549 C548 1.429 . S
C549 C550 1.374 . S
C550 H524 0.950 . S
C550 C546 1.385 . S
C550 C549 1.374 . S
C551 C548 1.500 . S
C551 C552 1.382 . S
C551 C553 1.382 1_565 S
C552 H525 0.950 1_455 S
C552 C538 1.377 . S
C552 C551 1.382 . S
C553 C537 1.377 . S
C553 C551 1.382 1_545 S
C553 C554 1.524 . S
C554 C553 1.524 . S
C554 C555 1.397 . S
C554 C559 1.363 . S
C555 H526 0.950 . S
C555 C554 1.397 . S
C555 C556 1.334 . S
C556 H527 0.950 . S
C556 C555 1.334 . S
C556 C557 1.287 . S
C557 C556 1.287 . S
C557 C558 1.524 . S
C557 H560 0.999 . S
C558 H528 0.950 . S
C558 C557 1.524 . S
C558 C559 1.415 . S
C559 H529 0.950 . S
C559 C554 1.363 . S
C559 C558 1.415 . S
H560 C557 0.999 . S
H561 C542 0.913 . S
H562 C580 0.951 . S
H563 C582 0.951 . S
H564 C584 0.950 1_655 S
H565 C585 0.950 1_655 S
H566 C587 0.950 . S
H567 C590 0.950 . S
H568 C591 0.950 . S
H569 C593 0.950 1_455 S
H570 C594 0.950 . S
H571 C595 0.951 1_565 S
H572 C597 0.951 1_565 S
H573 C599 0.950 . S
H574 C600 0.950 . S
H575 C602 0.950 . S
H576 C605 0.951 . S
H577 C606 0.950 . S
H578 C608 0.950 . S
H579 C609 0.950 . S
C580 H562 0.951 . S
C580 C581 1.366 . S
C580 C582 1.388 . S
C581 C580 1.366 . S
C581 C585 1.385 1_545 S
C582 H563 0.951 . S
C582 C580 1.388 . S
C582 C583 1.366 . S
C583 C582 1.366 . S
C583 C584 1.414 1_545 S
C583 C586 1.499 . S
C584 H564 0.950 1_455 S
C584 C583 1.414 1_565 S
C584 C585 1.374 . S
C585 H565 0.950 1_455 S
C585 C581 1.385 1_565 S
C585 C584 1.374 . S
C586 C583 1.499 . S
C586 C587 1.373 1_545 S
C586 C588 1.389 . S
C587 H566 0.950 . S
C587 C586 1.373 1_565 S
C587 C603 1.377 1_565 S
C588 C586 1.389 . S
C588 C589 1.524 1_455 S
C588 C602 1.377 . S
C589 C588 1.524 1_655 S
C589 C590 1.397 . S
C589 C594 1.363 1_655 S
C590 H567 0.950 . S
C590 C589 1.397 . S
C590 C591 1.334 . S
C591 H568 0.950 . S
C591 C590 1.334 . S
C591 C592 1.287 . S
C592 C591 1.287 . S
C592 C593 1.524 . S
C592 H611 0.913 . S
C593 H569 0.950 1_655 S
C593 C592 1.524 . S
C593 C594 1.415 1_655 S
C594 H570 0.950 . S
C594 C589 1.363 1_455 S
C594 C593 1.415 1_455 S
C595 H571 0.951 1_545 S
C595 C596 1.366 1_655 S
C595 C597 1.388 . S
C596 C595 1.366 1_455 S
C596 C600 1.385 . S
C597 H572 0.951 1_545 S
C597 C595 1.388 . S
C597 C598 1.366 1_655 S
C598 C597 1.366 1_455 S
C598 C599 1.414 . S
C598 C601 1.499 . S
C599 H573 0.950 . S
C599 C598 1.414 . S
C599 C600 1.374 . S
C600 H574 0.950 . S
C600 C596 1.385 . S
C600 C599 1.374 . S
C601 C598 1.499 . S
C601 C602 1.373 . S
C601 C603 1.390 . S
C602 H575 0.950 . S
C602 C588 1.377 . S
C602 C601 1.373 . S
C603 C587 1.377 1_545 S
C603 C601 1.390 . S
C603 C604 1.524 1_545 S
C604 C603 1.524 1_565 S
C604 C605 1.397 . S
C604 C609 1.363 . S
C605 H576 0.951 . S
C605 C604 1.397 . S
C605 C606 1.334 . S
C606 H577 0.950 . S
C606 C605 1.334 . S
C606 C607 1.287 . S
C607 C606 1.287 . S
C607 C608 1.524 . S
C607 H610 0.999 . S
C608 H578 0.950 . S
C608 C607 1.524 . S
C608 C609 1.415 . S
C609 H579 0.950 . S
C609 C604 1.363 . S
C609 C608 1.415 . S
H610 C607 0.999 . S
H611 C592 0.913 . S
H612 C630 0.951 . S
H613 C632 0.951 . S
H614 C634 0.950 . S
H615 C635 0.950 . S
H616 C637 0.950 . S
H617 C640 0.950 . S
H618 C641 0.950 . S
H619 C643 0.950 . S
H620 C644 0.950 . S
H621 C645 0.951 . S
H622 C647 0.951 . S
H623 C649 0.950 . S
H624 C650 0.950 . S
H625 C652 0.950 . S
H626 C655 0.950 . S
H627 C656 0.950 . S
H628 C658 0.950 . S
H629 C659 0.950 . S
C630 H612 0.951 . S
C630 C631 1.366 . S
C630 C632 1.388 . S
C631 C630 1.366 . S
C631 C635 1.385 . S
C632 H613 0.951 . S
C632 C630 1.388 . S
C632 C633 1.366 . S
C633 C632 1.366 . S
C633 C634 1.414 . S
C633 C636 1.499 . S
C634 H614 0.950 . S
C634 C633 1.414 . S
C634 C635 1.374 . S
C635 H615 0.950 . S
C635 C631 1.385 . S
C635 C634 1.374 . S
C636 C633 1.499 . S
C636 C637 1.373 . S
C636 C638 1.389 . S
C637 H616 0.950 . S
C637 C636 1.373 . S
C637 C653 1.377 . S
C638 C636 1.389 . S
C638 C639 1.524 . S
C638 C652 1.377 . S
C639 C638 1.524 . S
C639 C640 1.397 . S
C639 C644 1.363 . S
C640 H617 0.950 . S
C640 C639 1.397 . S
C640 C641 1.334 . S
C641 H618 0.950 . S
C641 C640 1.334 . S
C641 C642 1.287 . S
C642 C641 1.287 . S
C642 C643 1.524 . S
C642 H661 0.913 . S
C643 H619 0.950 . S
C643 C642 1.524 . S
C643 C644 1.415 . S
C644 H620 0.950 . S
C644 C639 1.363 . S
C644 C643 1.415 . S
C645 H621 0.951 . S
C645 C646 1.366 . S
C645 C647 1.388 . S
C646 C645 1.366 . S
C646 C650 1.385 . S
C647 H622 0.951 . S
C647 C645 1.388 . S
C647 C648 1.366 . S
C648 C647 1.366 . S
C648 C649 1.414 . S
C648 C651 1.499 . S
C649 H623 0.950 . S
C649 C648 1.414 . S
C649 C650 1.374 . S
C650 H624 0.950 . S
C650 C646 1.385 . S
C650 C649 1.374 . S
C651 C648 1.499 . S
C651 C652 1.373 . S
C651 C653 1.389 . S
C652 H625 0.950 . S
C652 C638 1.377 . S
C652 C651 1.373 . S
C653 C637 1.377 . S
C653 C651 1.389 . S
C653 C654 1.524 . S
C654 C653 1.524 . S
C654 C655 1.397 . S
C654 C659 1.363 . S
C655 H626 0.950 . S
C655 C654 1.397 . S
C655 C656 1.334 . S
C656 H627 0.950 . S
C656 C655 1.334 . S
C656 C657 1.287 . S
C657 C656 1.287 . S
C657 C658 1.524 . S
C657 H660 0.999 . S
C658 H628 0.950 . S
C658 C657 1.524 . S
C658 C659 1.415 . S
C659 H629 0.950 . S
C659 C654 1.363 . S
C659 C658 1.415 . S
H660 C657 0.999 . S
H661 C642 0.913 . S
H662 C680 0.951 . S
H663 C682 0.951 . S
H664 C684 0.950 . S
H665 C685 0.950 . S
H666 C687 0.950 . S
H667 C690 0.950 . S
H668 C691 0.950 . S
H669 C693 0.950 . S
H670 C694 0.950 . S
H671 C695 0.951 . S
H672 C697 0.951 . S
H673 C699 0.950 . S
H674 C700 0.950 . S
H675 C702 0.950 . S
H676 C705 0.950 . S
H677 C706 0.950 . S
H678 C708 0.950 . S
H679 C709 0.950 . S
C680 H662 0.951 . S
C680 C681 1.366 . S
C680 C682 1.388 . S
C681 C680 1.366 . S
C681 C685 1.385 . S
C682 H663 0.951 . S
C682 C680 1.388 . S
C682 C683 1.366 . S
C683 C682 1.366 . S
C683 C684 1.414 . S
C683 C686 1.499 . S
C684 H664 0.950 . S
C684 C683 1.414 . S
C684 C685 1.374 . S
C685 H665 0.950 . S
C685 C681 1.385 . S
C685 C684 1.374 . S
C686 C683 1.499 . S
C686 C687 1.373 . S
C686 C688 1.389 . S
C687 H666 0.950 . S
C687 C686 1.373 . S
C687 C703 1.377 . S
C688 C686 1.389 . S
C688 C689 1.524 . S
C688 C702 1.377 . S
C689 C688 1.524 . S
C689 C690 1.397 . S
C689 C694 1.363 . S
C690 H667 0.950 . S
C690 C689 1.397 . S
C690 C691 1.334 . S
C691 H668 0.950 . S
C691 C690 1.334 . S
C691 C692 1.287 . S
C692 C691 1.287 . S
C692 C693 1.524 . S
C692 H711 0.913 . S
C693 H669 0.950 . S
C693 C692 1.524 . S
C693 C694 1.415 . S
C694 H670 0.950 . S
C694 C689 1.363 . S
C694 C693 1.415 . S
C695 H671 0.951 . S
C695 C696 1.366 . S
C695 C697 1.388 . S
C696 C695 1.366 . S
C696 C700 1.385 . S
C697 H672 0.951 . S
C697 C695 1.388 . S
C697 C698 1.366 . S
C698 C697 1.366 . S
C698 C699 1.414 . S
C698 C701 1.499 . S
C699 H673 0.950 . S
C699 C698 1.414 . S
C699 C700 1.374 . S
C700 H674 0.950 . S
C700 C696 1.385 . S
C700 C699 1.374 . S
C701 C698 1.499 . S
C701 C702 1.373 . S
C701 C703 1.389 . S
C702 H675 0.950 . S
C702 C688 1.377 . S
C702 C701 1.373 . S
C703 C687 1.377 . S
C703 C701 1.389 . S
C703 C704 1.524 . S
C704 C703 1.524 . S
C704 C705 1.397 . S
C704 C709 1.363 . S
C705 H676 0.950 . S
C705 C704 1.397 . S
C705 C706 1.334 . S
C706 H677 0.950 . S
C706 C705 1.334 . S
C706 C707 1.287 . S
C707 C706 1.287 . S
C707 C708 1.524 . S
C707 H710 0.999 . S
C708 H678 0.950 . S
C708 C707 1.524 . S
C708 C709 1.415 . S
C709 H679 0.950 . S
C709 C704 1.363 . S
C709 C708 1.415 . S
H710 C707 0.999 . S
H711 C692 0.913 . S
C146 N101 1.325 . S
C131 C27 1.338 . S
C181 N6 1.277 . S
C196 N88 1.320 . S
C231 C16 1.468 . S
C246 N100 1.466 . S
C281 N14 1.412 1_556 S
C296 N87 1.439 . S
C331 C57 1.339 . S
C346 N75 1.324 . S
C381 N36 1.275 . S
C396 N62 1.321 . S
C446 N74 1.466 . S
C431 C46 1.468 . S
C496 N61 1.439 . S
C481 N44 1.413 . S
C531 C10 1.471 . S
C546 N65 1.451 1_565 S
C581 C1 1.554 . S
C596 N78 1.536 . S
C646 N91 1.451 . S
C631 C40 1.472 . S
C681 C31 1.554 . S
C696 N104 1.536 . S
