# Generated by pormake.
# Topology pto, (3,4)-cn, num edge types: 1
# Building blocks:
#     Node 0, Type 0, BuildingBlock: VETTIZ_charged_linker_0, # of connection points: 3
#     Node 1, Type 0, BuildingBlock: VETTIZ_charged_linker_0, # of connection points: 3
#     Node 2, Type 0, BuildingBlock: VETTIZ_charged_linker_0, # of connection points: 3
#     Node 3, Type 0, BuildingBlock: VETTIZ_charged_linker_0, # of connection points: 3
#     Node 4, Type 0, BuildingBlock: VETTIZ_charged_linker_0, # of connection points: 3
#     Node 5, Type 0, BuildingBlock: VETTIZ_charged_linker_0, # of connection points: 3
#     Node 6, Type 0, BuildingBlock: VETTIZ_charged_linker_0, # of connection points: 3
#     Node 7, Type 0, BuildingBlock: VETTIZ_charged_linker_0, # of connection points: 3
#     Node 8, Type 1, BuildingBlock: NAWXER_clean_sbu_0, # of connection points: 4
#     Node 9, Type 1, BuildingBlock: NAWXER_clean_sbu_0, # of connection points: 4
#     Node 10, Type 1, BuildingBlock: NAWXER_clean_sbu_0, # of connection points: 4
#     Node 11, Type 1, BuildingBlock: NAWXER_clean_sbu_0, # of connection points: 4
#     Node 12, Type 1, BuildingBlock: NAWXER_clean_sbu_0, # of connection points: 4
#     Node 13, Type 1, BuildingBlock: NAWXER_clean_sbu_0, # of connection points: 4
#     Edge 14, Type (0, 1), BuildingBlock: MIFKUJ_clean_linker_0, # of connection points: 2
#     Edge 15, Type (0, 1), BuildingBlock: MIFKUJ_clean_linker_0, # of connection points: 2
#     Edge 16, Type (0, 1), BuildingBlock: MIFKUJ_clean_linker_0, # of connection points: 2
#     Edge 17, Type (0, 1), BuildingBlock: MIFKUJ_clean_linker_0, # of connection points: 2
#     Edge 18, Type (0, 1), BuildingBlock: MIFKUJ_clean_linker_0, # of connection points: 2
#     Edge 19, Type (0, 1), BuildingBlock: MIFKUJ_clean_linker_0, # of connection points: 2
#     Edge 20, Type (0, 1), BuildingBlock: MIFKUJ_clean_linker_0, # of connection points: 2
#     Edge 21, Type (0, 1), BuildingBlock: MIFKUJ_clean_linker_0, # of connection points: 2
#     Edge 22, Type (0, 1), BuildingBlock: MIFKUJ_clean_linker_0, # of connection points: 2
#     Edge 23, Type (0, 1), BuildingBlock: MIFKUJ_clean_linker_0, # of connection points: 2
#     Edge 24, Type (0, 1), BuildingBlock: MIFKUJ_clean_linker_0, # of connection points: 2
#     Edge 25, Type (0, 1), BuildingBlock: MIFKUJ_clean_linker_0, # of connection points: 2
#     Edge 26, Type (0, 1), BuildingBlock: MIFKUJ_clean_linker_0, # of connection points: 2
#     Edge 27, Type (0, 1), BuildingBlock: MIFKUJ_clean_linker_0, # of connection points: 2
#     Edge 28, Type (0, 1), BuildingBlock: MIFKUJ_clean_linker_0, # of connection points: 2
#     Edge 29, Type (0, 1), BuildingBlock: MIFKUJ_clean_linker_0, # of connection points: 2
#     Edge 30, Type (0, 1), BuildingBlock: MIFKUJ_clean_linker_0, # of connection points: 2
#     Edge 31, Type (0, 1), BuildingBlock: MIFKUJ_clean_linker_0, # of connection points: 2
#     Edge 32, Type (0, 1), BuildingBlock: MIFKUJ_clean_linker_0, # of connection points: 2
#     Edge 33, Type (0, 1), BuildingBlock: MIFKUJ_clean_linker_0, # of connection points: 2
#     Edge 34, Type (0, 1), BuildingBlock: MIFKUJ_clean_linker_0, # of connection points: 2
#     Edge 35, Type (0, 1), BuildingBlock: MIFKUJ_clean_linker_0, # of connection points: 2
#     Edge 36, Type (0, 1), BuildingBlock: MIFKUJ_clean_linker_0, # of connection points: 2
#     Edge 37, Type (0, 1), BuildingBlock: MIFKUJ_clean_linker_0, # of connection points: 2
# Relax obj value: 0.000
# Max RMSD: 0.000
# Mean RMSD: 0.000
data_MOF--net-pto--node1-NAWXER_clean_sbu_0--node2-VETTIZ_charged_linker_0--edge1-MIFKUJ_clean_linker_0
_symmetry_space_group_name_H-M    P1
_symmetry_Int_Tables_number       1
_symmetry_cell_setting            triclinic
loop_
_symmetry_equiv_pos_as_xyz
'x, y, z'
_cell_length_a     67.163914
_cell_length_b     63.086215
_cell_length_c     58.947475
_cell_angle_alpha  89.964722
_cell_angle_beta   90.012022
_cell_angle_gamma 90.016961
loop_
_atom_site_label
_atom_site_type_symbol
_atom_site_fract_x
_atom_site_fract_y
_atom_site_fract_z
_atom_type_partial_charge
C0 C 0.25299 0.22187 0.30515 0.0
C1 C 0.26841 0.20701 0.30832 0.0
C2 C 0.28362 0.20564 0.29191 0.0
C3 C 0.26829 0.23374 0.27004 0.0
C4 C 0.25325 0.23504 0.28596 0.0
C5 C 0.23812 0.25175 0.2799 0.0
H6 H 0.20849 0.3308 0.20951 0.0
C7 C 0.2644 0.24975 0.25229 0.0
C8 C 0.24676 0.26041 0.25792 0.0
H9 H 0.17839 0.30644 0.26901 0.0
H10 H 0.20457 0.281 0.27461 0.0
H11 H 0.21982 0.28406 0.18945 0.0
H12 H 0.25293 0.32903 0.22963 0.0
H13 H 0.26907 0.31856 0.20902 0.0
H14 H 0.24753 0.3335 0.20018 0.0
H15 H 0.22843 0.30888 0.17819 0.0
H16 H 0.24411 0.28571 0.17846 0.0
C17 C 0.21778 0.24067 0.27609 0.0
C18 C 0.23806 0.26861 0.29898 0.0
C19 C 0.31309 0.2572 0.1871 0.0
C20 C 0.31461 0.27129 0.16869 0.0
C21 C 0.29971 0.28688 0.16588 0.0
C22 C 0.28375 0.28844 0.18118 0.0
C23 C 0.28263 0.27433 0.19961 0.0
C24 C 0.29723 0.25911 0.20231 0.0
C25 C 0.29416 0.24589 0.22319 0.0
C26 C 0.27516 0.25547 0.23251 0.0
C27 C 0.26835 0.27205 0.21863 0.0
C28 C 0.29112 0.22256 0.21567 0.0
C29 C 0.31217 0.24953 0.23925 0.0
C30 C 0.20742 0.3199 0.22366 0.0
C31 C 0.19133 0.32093 0.23896 0.0
C32 C 0.19076 0.30645 0.25723 0.0
C33 C 0.20593 0.2915 0.26038 0.0
C34 C 0.22192 0.29079 0.24507 0.0
C35 C 0.22241 0.30471 0.22696 0.0
C36 C 0.24035 0.30122 0.21209 0.0
C37 C 0.2505 0.28295 0.22429 0.0
C38 C 0.23969 0.27702 0.24371 0.0
C39 C 0.23296 0.29475 0.1882 0.0
C40 C 0.25319 0.32161 0.21251 0.0
H41 H 0.29565 0.21694 0.26106 0.0
H42 H 0.24109 0.22338 0.31744 0.0
H43 H 0.25352 0.27204 0.30472 0.0
H44 H 0.23201 0.28403 0.29348 0.0
H45 H 0.22948 0.26299 0.31393 0.0
H46 H 0.21982 0.22435 0.26931 0.0
H47 H 0.20929 0.23936 0.29219 0.0
H48 H 0.2085 0.24878 0.26326 0.0
H49 H 0.32402 0.24483 0.18972 0.0
H50 H 0.30059 0.29818 0.15208 0.0
H51 H 0.273 0.30071 0.1782 0.0
H52 H 0.28249 0.22176 0.19957 0.0
H53 H 0.30562 0.21457 0.21273 0.0
H54 H 0.28235 0.21317 0.22793 0.0
H55 H 0.31844 0.26574 0.23715 0.0
H56 H 0.30811 0.24862 0.25739 0.0
H57 H 0.32432 0.23805 0.23575 0.0
H58 H 0.29544 0.19406 0.29361 0.0
C59 C 0.28365 0.21888 0.27287 0.0
C60 C 0.20799 0.68533 0.75116 0.0
C61 C 0.19229 0.68634 0.73534 0.0
C62 C 0.19164 0.70351 0.72 0.0
C63 C 0.22206 0.71785 0.73593 0.0
C64 C 0.22265 0.70118 0.75114 0.0
C65 C 0.2404 0.70249 0.76671 0.0
H66 H 0.32403 0.75475 0.79904 0.0
C67 C 0.23969 0.73136 0.73998 0.0
C68 C 0.25056 0.72242 0.75798 0.0
H69 H 0.29891 0.69811 0.82891 0.0
H70 H 0.27222 0.69865 0.80139 0.0
H71 H 0.28229 0.77929 0.7915 0.0
H72 H 0.3194 0.74063 0.74901 0.0
H73 H 0.30828 0.7591 0.7307 0.0
H74 H 0.32447 0.76825 0.75316 0.0
H75 H 0.30652 0.78706 0.78168 0.0
H76 H 0.28456 0.79203 0.76506 0.0
C77 C 0.2327 0.70523 0.7913 0.0
C78 C 0.25338 0.68252 0.76301 0.0
C79 C 0.25121 0.79712 0.69158 0.0
C80 C 0.26708 0.81173 0.69014 0.0
C81 C 0.28362 0.80896 0.70465 0.0
C82 C 0.28417 0.79244 0.72048 0.0
C83 C 0.26817 0.77819 0.7218 0.0
C84 C 0.25221 0.78042 0.70724 0.0
C85 C 0.23721 0.76286 0.71008 0.0
C86 C 0.24666 0.75004 0.72909 0.0
C87 C 0.26463 0.75931 0.73605 0.0
C88 C 0.21719 0.77285 0.7175 0.0
C89 C 0.2362 0.75022 0.68754 0.0
C90 C 0.31294 0.74229 0.79956 0.0
C91 C 0.31365 0.72637 0.81623 0.0
C92 C 0.29862 0.71072 0.81643 0.0
C93 C 0.28317 0.71101 0.80037 0.0
C94 C 0.28265 0.72715 0.78392 0.0
C95 C 0.29745 0.74237 0.78371 0.0
C96 C 0.29465 0.75836 0.76511 0.0
C97 C 0.27553 0.75047 0.75436 0.0
C98 C 0.26854 0.73216 0.76535 0.0
C99 C 0.29197 0.78043 0.77623 0.0
C100 C 0.31262 0.75672 0.74864 0.0
H101 H 0.20498 0.73184 0.70814 0.0
H102 H 0.20904 0.67233 0.7631 0.0
H103 H 0.254 0.6783 0.7447 0.0
H104 H 0.26903 0.68481 0.76815 0.0
H105 H 0.24719 0.66868 0.77231 0.0
H106 H 0.21901 0.71517 0.79165 0.0
H107 H 0.22895 0.68967 0.79903 0.0
H108 H 0.24336 0.71361 0.80238 0.0
H109 H 0.23819 0.7986 0.68088 0.0
H110 H 0.29639 0.81937 0.70361 0.0
H111 H 0.29715 0.79136 0.73101 0.0
H112 H 0.21974 0.78576 0.73002 0.0
H113 H 0.20921 0.7798 0.70276 0.0
H114 H 0.20724 0.7615 0.72612 0.0
H115 H 0.25073 0.75058 0.67848 0.0
H116 H 0.23314 0.73318 0.69017 0.0
H117 H 0.2248 0.75692 0.67592 0.0
H118 H 0.17955 0.70494 0.70794 0.0
C119 C 0.20639 0.71921 0.72022 0.0
C120 C 0.8257 0.69945 0.22426 0.0
C121 C 0.82481 0.68318 0.20798 0.0
C122 C 0.8081 0.68205 0.19352 0.0
C123 C 0.79346 0.71266 0.21202 0.0
C124 C 0.80991 0.71386 0.22606 0.0
C125 C 0.80826 0.73161 0.243 0.0
H126 H 0.75311 0.80961 0.29034 0.0
C127 C 0.77933 0.72946 0.21893 0.0
C128 C 0.78788 0.74051 0.2372 0.0
H129 H 0.81414 0.79249 0.30552 0.0
H130 H 0.81287 0.76504 0.27726 0.0
H131 H 0.73575 0.76334 0.28359 0.0
H132 H 0.75992 0.80868 0.23653 0.0
H133 H 0.73897 0.79731 0.22356 0.0
H134 H 0.73598 0.8119 0.24961 0.0
H135 H 0.72214 0.78638 0.27475 0.0
H136 H 0.72113 0.7619 0.25893 0.0
C137 C 0.80875 0.72187 0.26711 0.0
C138 C 0.82513 0.74778 0.2382 0.0
C139 C 0.7138 0.7392 0.17661 0.0
C140 C 0.69722 0.75231 0.18048 0.0
C141 C 0.69718 0.76593 0.19938 0.0
C142 C 0.71359 0.76686 0.214 0.0
C143 C 0.73021 0.7539 0.20981 0.0
C144 C 0.73 0.74007 0.19163 0.0
C145 C 0.74842 0.72647 0.19086 0.0
C146 C 0.76009 0.73515 0.21092 0.0
C147 C 0.74938 0.75132 0.22181 0.0
C148 C 0.74212 0.70306 0.19452 0.0
C149 C 0.75923 0.73067 0.16811 0.0
C150 C 0.76634 0.80017 0.28753 0.0
C151 C 0.78372 0.80336 0.3005 0.0
C152 C 0.80037 0.79027 0.29627 0.0
C153 C 0.79971 0.7744 0.27962 0.0
C154 C 0.78228 0.7716 0.26677 0.0
C155 C 0.76607 0.78455 0.27068 0.0
C156 C 0.74922 0.78018 0.25454 0.0
C157 C 0.75794 0.76237 0.24039 0.0
C158 C 0.7772 0.75722 0.24781 0.0
C159 C 0.73098 0.77269 0.26853 0.0
C160 C 0.74561 0.80052 0.24033 0.0
H161 H 0.78021 0.69503 0.1839 0.0
H162 H 0.83819 0.70063 0.23582 0.0
H163 H 0.82941 0.74776 0.21996 0.0
H164 H 0.82059 0.76431 0.24166 0.0
H165 H 0.8387 0.74403 0.24821 0.0
H166 H 0.79945 0.70729 0.26785 0.0
H167 H 0.82417 0.71743 0.27201 0.0
H168 H 0.80263 0.73249 0.28022 0.0
H169 H 0.71398 0.72828 0.16244 0.0
H170 H 0.68449 0.77609 0.20265 0.0
H171 H 0.71269 0.77768 0.228 0.0
H172 H 0.7283 0.70193 0.20485 0.0
H173 H 0.73921 0.695 0.1781 0.0
H174 H 0.75328 0.69388 0.2042 0.0
H175 H 0.75956 0.74795 0.16432 0.0
H176 H 0.77493 0.72556 0.16827 0.0
H177 H 0.75148 0.72262 0.15386 0.0
H178 H 0.80714 0.66981 0.18069 0.0
C179 C 0.79249 0.69672 0.1954 0.0
C180 C 0.71414 0.2729 0.80251 0.0
C181 C 0.6978 0.25893 0.80189 0.0
C182 C 0.69665 0.24372 0.78447 0.0
C183 C 0.72799 0.25604 0.76898 0.0
C184 C 0.72892 0.27133 0.78574 0.0
C185 C 0.74688 0.28545 0.7831 0.0
H186 H 0.82979 0.31114 0.72323 0.0
C187 C 0.74578 0.25831 0.75444 0.0
C188 C 0.75687 0.27564 0.76246 0.0
H189 H 0.80588 0.34313 0.78216 0.0
H190 H 0.77922 0.31754 0.78424 0.0
H191 H 0.78779 0.30067 0.69822 0.0
H192 H 0.82604 0.26612 0.74346 0.0
H193 H 0.81456 0.24685 0.72648 0.0
H194 H 0.83046 0.26652 0.71349 0.0
H195 H 0.81241 0.29173 0.69111 0.0
H196 H 0.79111 0.27484 0.6874 0.0
C197 C 0.73948 0.30828 0.77832 0.0
C198 C 0.75988 0.2833 0.80465 0.0
C199 C 0.75845 0.20479 0.69163 0.0
C200 C 0.77468 0.20126 0.67694 0.0
C201 C 0.79082 0.21562 0.67754 0.0
C202 C 0.79081 0.23298 0.69236 0.0
C203 C 0.77465 0.23599 0.70712 0.0
C204 C 0.75891 0.22193 0.70671 0.0
C205 C 0.7436 0.22687 0.72457 0.0
C206 C 0.7528 0.24621 0.73578 0.0
C207 C 0.77083 0.25163 0.72527 0.0
C208 C 0.72373 0.23229 0.7125 0.0
C209 C 0.74245 0.20769 0.74098 0.0
C210 C 0.81898 0.31263 0.73676 0.0
C211 C 0.82001 0.32941 0.75244 0.0
C212 C 0.80533 0.33068 0.76955 0.0
C213 C 0.78988 0.31571 0.77082 0.0
C214 C 0.78904 0.29918 0.75488 0.0
C215 C 0.80358 0.29776 0.73837 0.0
C216 C 0.80082 0.27881 0.72327 0.0
C217 C 0.78177 0.2695 0.73287 0.0
C218 C 0.77489 0.28145 0.75139 0.0
C219 C 0.79798 0.28676 0.69862 0.0
C220 C 0.81889 0.26378 0.72662 0.0
H221 H 0.70994 0.23015 0.75536 0.0
H222 H 0.7152 0.28496 0.81551 0.0
H223 H 0.76043 0.26651 0.81041 0.0
H224 H 0.77554 0.28788 0.80181 0.0
H225 H 0.75375 0.29294 0.81878 0.0
H226 H 0.72573 0.30808 0.76778 0.0
H227 H 0.73595 0.31672 0.79436 0.0
H228 H 0.75022 0.31779 0.76846 0.0
H229 H 0.74563 0.1944 0.69161 0.0
H230 H 0.80378 0.21324 0.66693 0.0
H231 H 0.80353 0.24324 0.69194 0.0
H232 H 0.72648 0.24029 0.69596 0.0
H233 H 0.7149 0.21776 0.70905 0.0
H234 H 0.71451 0.24362 0.72219 0.0
H235 H 0.75746 0.20066 0.74369 0.0
H236 H 0.73724 0.21198 0.75812 0.0
H237 H 0.73267 0.19506 0.73407 0.0
H238 H 0.68423 0.23278 0.78373 0.0
C239 C 0.71165 0.24216 0.76808 0.0
C240 C 0.75024 0.78681 0.7045 0.0
C241 C 0.73428 0.80113 0.70211 0.0
C242 C 0.71789 0.79927 0.71698 0.0
C243 C 0.7333 0.76918 0.7357 0.0
C244 C 0.74945 0.77109 0.72132 0.0
C245 C 0.76522 0.75473 0.72613 0.0
H246 H 0.79646 0.67028 0.78777 0.0
C247 C 0.73698 0.75096 0.75101 0.0
C248 C 0.75569 0.74242 0.74545 0.0
H249 H 0.82826 0.70336 0.73468 0.0
H250 H 0.80037 0.72699 0.7295 0.0
H251 H 0.77879 0.71302 0.81221 0.0
H252 H 0.7557 0.66863 0.76355 0.0
H253 H 0.73519 0.67684 0.77972 0.0
H254 H 0.75548 0.66301 0.79337 0.0
H255 H 0.77309 0.68587 0.81868 0.0
H256 H 0.75441 0.70623 0.82039 0.0
C257 C 0.78436 0.76644 0.7338 0.0
C258 C 0.76784 0.74087 0.70467 0.0
C259 C 0.6855 0.73021 0.81062 0.0
C260 C 0.68427 0.71323 0.82617 0.0
C261 C 0.69979 0.69812 0.82641 0.0
C262 C 0.71631 0.70015 0.81207 0.0
C263 C 0.71741 0.71733 0.79699 0.0
C264 C 0.70201 0.7318 0.79611 0.0
C265 C 0.70527 0.74831 0.77799 0.0
C266 C 0.72537 0.74159 0.76854 0.0
C267 C 0.73248 0.72359 0.77997 0.0
C268 C 0.70632 0.77031 0.78955 0.0
C269 C 0.68842 0.74609 0.76018 0.0
C270 C 0.79754 0.68276 0.77521 0.0
C271 C 0.81468 0.68494 0.76169 0.0
C272 C 0.8152 0.70116 0.74519 0.0
C273 C 0.79901 0.71497 0.7423 0.0
C274 C 0.78205 0.71263 0.75605 0.0
C275 C 0.78153 0.6967 0.77214 0.0
C276 C 0.76231 0.69646 0.78519 0.0
C277 C 0.75148 0.71511 0.77455 0.0
C278 C 0.76306 0.7245 0.75745 0.0
C279 C 0.76724 0.70046 0.8105 0.0
C280 C 0.75157 0.67514 0.78045 0.0
H281 H 0.70446 0.78294 0.74446 0.0
H282 H 0.76301 0.78758 0.69332 0.0
H283 H 0.75319 0.73765 0.69656 0.0
H284 H 0.77416 0.7251 0.70837 0.0
H285 H 0.7774 0.74894 0.69194 0.0
H286 H 0.78065 0.78102 0.74353 0.0
H287 H 0.79352 0.77128 0.71899 0.0
H288 H 0.79361 0.75694 0.7455 0.0
H289 H 0.67401 0.74222 0.80983 0.0
H290 H 0.69915 0.68449 0.83754 0.0
H291 H 0.72757 0.68816 0.81328 0.0
H292 H 0.71475 0.76934 0.80577 0.0
H293 H 0.69118 0.77636 0.7935 0.0
H294 H 0.71427 0.78223 0.77927 0.0
H295 H 0.68376 0.72925 0.75831 0.0
H296 H 0.69308 0.75093 0.74298 0.0
H297 H 0.67507 0.75535 0.7652 0.0
H298 H 0.70555 0.81026 0.71589 0.0
C299 C 0.71732 0.78343 0.73369 0.0
C300 C 0.74866 0.21009 0.31515 0.0
C301 C 0.73285 0.19539 0.31558 0.0
C302 C 0.71703 0.1981 0.30005 0.0
C303 C 0.73281 0.22952 0.28444 0.0
C304 C 0.74826 0.22698 0.29969 0.0
C305 C 0.76361 0.24426 0.29763 0.0
H306 H 0.79581 0.33391 0.246 0.0
C307 C 0.73682 0.24886 0.27091 0.0
C308 C 0.75479 0.25765 0.27873 0.0
H309 H 0.82414 0.29918 0.3004 0.0
H310 H 0.7971 0.274 0.30063 0.0
H311 H 0.75279 0.33212 0.26559 0.0
H312 H 0.78203 0.29195 0.21698 0.0
H313 H 0.75814 0.29801 0.20656 0.0
H314 H 0.77564 0.31911 0.21152 0.0
H315 H 0.75552 0.33985 0.23647 0.0
H316 H 0.73444 0.32446 0.24606 0.0
C317 C 0.76438 0.25645 0.32044 0.0
C318 C 0.78359 0.23396 0.29054 0.0
C319 C 0.68946 0.27078 0.2075 0.0
C320 C 0.68884 0.28843 0.19277 0.0
C321 C 0.7038 0.30405 0.19488 0.0
C322 C 0.71917 0.30197 0.21079 0.0
C323 C 0.71968 0.28416 0.22509 0.0
C324 C 0.70481 0.2691 0.22357 0.0
C325 C 0.7072 0.25186 0.24107 0.0
C326 C 0.72623 0.25881 0.25292 0.0
C327 C 0.73355 0.27764 0.2433 0.0
C328 C 0.68896 0.25254 0.25717 0.0
C329 C 0.70992 0.23052 0.22851 0.0
C330 C 0.79628 0.32078 0.25783 0.0
C331 C 0.8122 0.31854 0.27317 0.0
C332 C 0.81198 0.30142 0.28857 0.0
C333 C 0.7963 0.28672 0.28858 0.0
C334 C 0.78055 0.28912 0.27307 0.0
C335 C 0.7807 0.30599 0.2581 0.0
C336 C 0.76264 0.30617 0.24298 0.0
C337 C 0.75172 0.28652 0.2512 0.0
C338 C 0.76229 0.27658 0.26879 0.0
C339 C 0.7507 0.32673 0.24778 0.0
C340 C 0.76982 0.30383 0.21814 0.0
H341 H 0.7045 0.21609 0.27317 0.0
H342 H 0.76124 0.20849 0.32651 0.0
H343 H 0.78104 0.22074 0.27839 0.0
H344 H 0.79358 0.24501 0.28152 0.0
H345 H 0.79155 0.22736 0.30547 0.0
H346 H 0.74935 0.25732 0.32834 0.0
H347 H 0.77446 0.2485 0.33272 0.0
H348 H 0.76902 0.27314 0.31845 0.0
H349 H 0.67839 0.25835 0.20649 0.0
H350 H 0.70356 0.31814 0.18439 0.0
H351 H 0.73006 0.31439 0.21139 0.0
H352 H 0.68296 0.26892 0.2587 0.0
H353 H 0.67673 0.24227 0.25085 0.0
H354 H 0.69271 0.24792 0.27475 0.0
H355 H 0.72019 0.23244 0.21384 0.0
H356 H 0.71667 0.21811 0.23922 0.0
H357 H 0.69547 0.22458 0.2219 0.0
H358 H 0.70445 0.18736 0.30011 0.0
C359 C 0.71697 0.21496 0.28449 0.0
C360 C 0.24788 0.20905 0.71247 0.0
C361 C 0.23052 0.20484 0.69972 0.0
C362 C 0.2135 0.21749 0.70367 0.0
C363 C 0.23135 0.23819 0.73174 0.0
C364 C 0.24788 0.22556 0.72843 0.0
C365 C 0.26478 0.23153 0.74401 0.0
H366 H 0.30208 0.29808 0.8237 0.0
C367 C 0.23625 0.25408 0.74934 0.0
C368 C 0.25578 0.25014 0.75678 0.0
H369 H 0.3297 0.24186 0.7957 0.0
H370 H 0.30088 0.2358 0.77233 0.0
H371 H 0.261 0.27639 0.83242 0.0
H372 H 0.28164 0.31508 0.7771 0.0
H373 H 0.25762 0.32379 0.7845 0.0
H374 H 0.27735 0.32515 0.80516 0.0
H375 H 0.26262 0.30469 0.83471 0.0
H376 H 0.24058 0.29177 0.82386 0.0
C377 C 0.2691 0.21248 0.7599 0.0
C378 C 0.28271 0.23839 0.72925 0.0
C379 C 0.18607 0.31161 0.76929 0.0
C380 C 0.18648 0.32863 0.78472 0.0
C381 C 0.20348 0.33153 0.79839 0.0
C382 C 0.2199 0.31793 0.79654 0.0
C383 C 0.21936 0.30112 0.7809 0.0
C384 C 0.20257 0.29806 0.76775 0.0
C385 C 0.20449 0.27907 0.75244 0.0
C386 C 0.2253 0.2714 0.7584 0.0
C387 C 0.23396 0.28446 0.77497 0.0
C388 C 0.18829 0.26272 0.75919 0.0
C389 C 0.20315 0.28689 0.72758 0.0
C390 C 0.30198 0.28431 0.81277 0.0
C391 C 0.3185 0.27058 0.81163 0.0
C392 C 0.31753 0.25305 0.79673 0.0
C393 C 0.30062 0.24938 0.78327 0.0
C394 C 0.28428 0.2632 0.78477 0.0
C395 C 0.2851 0.2802 0.7995 0.0
C396 C 0.26604 0.29271 0.79968 0.0
C397 C 0.25367 0.28047 0.78257 0.0
C398 C 0.26449 0.26333 0.77367 0.0
C399 C 0.25704 0.29156 0.82389 0.0
C400 C 0.27076 0.31546 0.79134 0.0
H401 H 0.20044 0.24309 0.72149 0.0
H402 H 0.26131 0.19986 0.71002 0.0
H403 H 0.2777 0.24883 0.71514 0.0
H404 H 0.29386 0.24768 0.73871 0.0
H405 H 0.29019 0.22439 0.72164 0.0
H406 H 0.25541 0.20296 0.76302 0.0
H407 H 0.28043 0.20172 0.75243 0.0
H408 H 0.27404 0.21746 0.77698 0.0
H409 H 0.17312 0.3088 0.75875 0.0
H410 H 0.20424 0.34462 0.81024 0.0
H411 H 0.23244 0.32113 0.80727 0.0
H412 H 0.18442 0.26401 0.77749 0.0
H413 H 0.17439 0.26518 0.74932 0.0
H414 H 0.19331 0.24615 0.75706 0.0
H415 H 0.21184 0.30176 0.72531 0.0
H416 H 0.20947 0.2756 0.71527 0.0
H417 H 0.18747 0.29027 0.72277 0.0
H418 H 0.1997 0.21442 0.69478 0.0
C419 C 0.21387 0.23411 0.71943 0.0
C420 C 0.19051 0.68734 0.27492 0.0
C421 C 0.18986 0.66928 0.2609 0.0
C422 C 0.20513 0.66636 0.24475 0.0
C423 C 0.22117 0.6989 0.25684 0.0
C424 C 0.20617 0.70188 0.27255 0.0
C425 C 0.20889 0.72196 0.28595 0.0
H426 H 0.26023 0.81267 0.30423 0.0
C427 C 0.23523 0.71689 0.25878 0.0
C428 C 0.22807 0.7305 0.27578 0.0
H429 H 0.2078 0.78989 0.33943 0.0
H430 H 0.20796 0.75831 0.31675 0.0
H431 H 0.24848 0.79636 0.25305 0.0
H432 H 0.28278 0.76949 0.3076 0.0
H433 H 0.29379 0.76043 0.28242 0.0
H434 H 0.29335 0.78851 0.28846 0.0
H435 H 0.2716 0.80719 0.26311 0.0
H436 H 0.27113 0.78656 0.24209 0.0
C437 C 0.19091 0.73662 0.28094 0.0
C438 C 0.21143 0.71598 0.3113 0.0
C439 C 0.29681 0.71971 0.20854 0.0
C440 C 0.31301 0.73387 0.2071 0.0
C441 C 0.31323 0.75171 0.2216 0.0
C442 C 0.29766 0.75548 0.23691 0.0
C443 C 0.28165 0.74119 0.23808 0.0
C444 C 0.2815 0.72357 0.22418 0.0
C445 C 0.26364 0.7097 0.22837 0.0
C446 C 0.25315 0.72187 0.24712 0.0
C447 C 0.26367 0.74044 0.25256 0.0
C448 C 0.25109 0.709 0.20632 0.0
C449 C 0.27113 0.68777 0.23662 0.0
C450 C 0.24882 0.80089 0.30725 0.0
C451 C 0.23377 0.80422 0.32356 0.0
C452 C 0.21926 0.78826 0.32664 0.0
C453 C 0.21945 0.76973 0.31353 0.0
C454 C 0.23441 0.76683 0.29719 0.0
C455 C 0.24895 0.78211 0.2945 0.0
C456 C 0.26431 0.77575 0.27718 0.0
C457 C 0.2562 0.75445 0.26943 0.0
C458 C 0.2386 0.7494 0.28109 0.0
C459 C 0.26406 0.79232 0.2578 0.0
C460 C 0.28469 0.77353 0.28935 0.0
H461 H 0.23182 0.67786 0.23001 0.0
H462 H 0.17921 0.69003 0.28769 0.0
H463 H 0.21908 0.70043 0.31316 0.0
H464 H 0.22095 0.72728 0.32066 0.0
H465 H 0.19678 0.71474 0.31994 0.0
H466 H 0.18661 0.73568 0.26273 0.0
H467 H 0.17774 0.73195 0.29118 0.0
H468 H 0.19411 0.75353 0.28395 0.0
H469 H 0.2959 0.70596 0.19762 0.0
H470 H 0.32561 0.7627 0.22139 0.0
H471 H 0.29874 0.76935 0.24735 0.0
H472 H 0.25148 0.72457 0.19745 0.0
H473 H 0.25689 0.69686 0.19439 0.0
H474 H 0.23515 0.70594 0.20949 0.0
H475 H 0.2845 0.68953 0.24761 0.0
H476 H 0.26018 0.67932 0.24725 0.0
H477 H 0.27532 0.67752 0.22207 0.0
H478 H 0.20489 0.65284 0.23344 0.0
C479 C 0.22073 0.68101 0.24266 0.0
C480 C 0.97377 0.46881 0.2632 0.0
C481 C 0.02709 0.52137 0.2661 0.0
O482 O 0.98136 0.47748 0.28064 0.0
Zn483 Zn 1.00003 0.49563 0.26498 0.0
O484 O 0.98016 0.47399 0.24343 0.0
Zn485 Zn 1.00209 0.49509 0.22905 0.0
O486 O 0.01988 0.47569 0.21375 0.0
O487 O 0.02105 0.47325 0.25109 0.0
O488 O 0.0231 0.51547 0.24581 0.0
O489 O 0.01696 0.51428 0.28264 0.0
O490 O 0.98073 0.51744 0.24789 0.0
O491 O 0.98623 0.5147 0.21115 0.0
C492 C 0.02723 0.46729 0.2315 0.0
C493 C 0.97691 0.52326 0.22751 0.0
C494 C 0.97722 0.48381 0.74263 0.0
C495 C 0.03139 0.53574 0.74177 0.0
O496 O 0.98217 0.49027 0.76245 0.0
Zn497 Zn 0.00371 0.51085 0.77766 0.0
O498 O 0.98671 0.49037 0.72533 0.0
Zn499 Zn 0.00455 0.50944 0.74137 0.0
O500 O 0.024 0.48788 0.75821 0.0
O501 O 0.02035 0.49143 0.79516 0.0
O502 O 0.02321 0.52703 0.72468 0.0
O503 O 0.02536 0.53099 0.76179 0.0
O504 O 0.98649 0.53113 0.79281 0.0
O505 O 0.98449 0.5324 0.75545 0.0
C506 C 0.02878 0.48242 0.77842 0.0
C507 C 0.97889 0.53913 0.77497 0.0
C508 C 0.26363 0.98271 0.52874 0.0
C509 C 0.26351 0.04213 0.47567 0.0
O510 O 0.24604 0.98835 0.52278 0.0
Zn511 Zn 0.23233 0.01207 0.50178 0.0
O512 O 0.27865 0.99289 0.52139 0.0
Zn513 Zn 0.26408 0.0127 0.50265 0.0
O514 O 0.24986 0.03217 0.52748 0.0
O515 O 0.21734 0.02948 0.52311 0.0
O516 O 0.27857 0.03325 0.48465 0.0
O517 O 0.24598 0.03556 0.48068 0.0
O518 O 0.21844 0.99451 0.47987 0.0
O519 O 0.25117 0.99235 0.47731 0.0
C520 C 0.23219 0.03735 0.53351 0.0
C521 C 0.23383 0.98675 0.47041 0.0
C522 C 0.52445 0.74639 0.03779 0.0
C523 C 0.46978 0.73723 0.98374 0.0
O524 O 0.51883 0.7271 0.03561 0.0
Zn525 Zn 0.49809 0.70907 0.01608 0.0
O526 O 0.51616 0.76087 0.02612 0.0
Zn527 Zn 0.49713 0.74265 0.0106 0.0
O528 O 0.47853 0.73108 0.03752 0.0
O529 O 0.48159 0.69628 0.03945 0.0
O530 O 0.47777 0.75463 0.9898 0.0
O531 O 0.47611 0.71975 0.99222 0.0
O532 O 0.51586 0.69172 0.99754 0.0
O533 O 0.51608 0.72558 0.98809 0.0
C534 C 0.4738 0.71335 0.04675 0.0
C535 C 0.52214 0.70659 0.98483 0.0
C536 C 0.7446 0.96357 0.52966 0.0
C537 C 0.74262 0.02097 0.47367 0.0
O538 O 0.72938 0.97155 0.52009 0.0
Zn539 Zn 0.74326 0.99156 0.5007 0.0
O540 O 0.76198 0.97017 0.52403 0.0
Zn541 Zn 0.77476 0.99283 0.50093 0.0
O542 O 0.78921 0.01123 0.52095 0.0
O543 O 0.75651 0.01317 0.52496 0.0
O544 O 0.7604 0.01596 0.47954 0.0
O545 O 0.72795 0.01049 0.48142 0.0
O546 O 0.75743 0.97145 0.47624 0.0
O547 O 0.78986 0.97532 0.48028 0.0
C548 C 0.77408 0.01918 0.53071 0.0
C549 C 0.77522 0.96667 0.47029 0.0
C550 C 0.53655 0.2943 0.02083 0.0
C551 C 0.48818 0.29206 0.95853 0.0
O552 O 0.5305 0.27558 0.01606 0.0
Zn553 Zn 0.5117 0.26023 0.99199 0.0
O554 O 0.53044 0.30994 0.00913 0.0
Zn555 Zn 0.51273 0.29407 0.98906 0.0
O556 O 0.49053 0.2818 0.01158 0.0
O557 O 0.49205 0.24685 0.01149 0.0
O558 O 0.49585 0.30862 0.96724 0.0
O559 O 0.49309 0.2737 0.96604 0.0
O560 O 0.53048 0.2431 0.97494 0.0
O561 O 0.53309 0.27738 0.96765 0.0
C562 C 0.48396 0.26386 0.01855 0.0
C563 C 0.53855 0.25823 0.96406 0.0
H564 H 0.17135 0.3429 0.272 0.0
H565 H 0.14335 0.36713 0.26741 0.0
H566 H 0.14679 0.36018 0.19478 0.0
H567 H 0.17447 0.33524 0.19918 0.0
H568 H 0.1413 0.40328 0.21037 0.0
H569 H 0.11232 0.33419 0.21938 0.0
H570 H 0.10755 0.29946 0.2378 0.0
H571 H 0.08867 0.33032 0.29903 0.0
H572 H 0.09362 0.36527 0.28107 0.0
H573 H 0.0463 0.45259 0.19331 0.0
H574 H 0.074 0.42734 0.19157 0.0
H575 H 0.0726 0.42108 0.26443 0.0
H576 H 0.04491 0.44594 0.26631 0.0
H577 H 0.07659 0.38331 0.24497 0.0
H578 H 0.10723 0.45189 0.23798 0.0
H579 H 0.1124 0.4872 0.22096 0.0
H580 H 0.12863 0.45827 0.1577 0.0
H581 H 0.12326 0.42278 0.17425 0.0
C582 C 0.1661 0.34631 0.25502 0.0
C583 C 0.17509 0.33683 0.23598 0.0
C584 C 0.15016 0.36031 0.25244 0.0
C585 C 0.1429 0.3653 0.23077 0.0
C586 C 0.15221 0.35654 0.21165 0.0
C587 C 0.16808 0.34234 0.21422 0.0
C588 C 0.12511 0.37906 0.22835 0.0
C589 C 0.12704 0.3988 0.21757 0.0
C590 C 0.10664 0.37335 0.23814 0.0
C591 C 0.10351 0.35235 0.24894 0.0
C592 C 0.1073 0.33358 0.23683 0.0
C593 C 0.10454 0.31385 0.24718 0.0
C594 C 0.09785 0.31268 0.26958 0.0
C595 C 0.09387 0.33125 0.28167 0.0
C596 C 0.09663 0.35102 0.27141 0.0
C597 C 0.05182 0.44574 0.20894 0.0
C598 C 0.04339 0.45134 0.22995 0.0
C599 C 0.06772 0.43139 0.20793 0.0
C600 C 0.07551 0.42247 0.2279 0.0
C601 C 0.06685 0.42774 0.2488 0.0
C602 C 0.05102 0.44203 0.24983 0.0
C603 C 0.09277 0.40774 0.22729 0.0
C604 C 0.09076 0.38776 0.23753 0.0
C605 C 0.11118 0.41336 0.21719 0.0
C606 C 0.11461 0.43468 0.20727 0.0
C607 C 0.11175 0.45306 0.22038 0.0
C608 C 0.11474 0.47311 0.21083 0.0
C609 C 0.12077 0.47497 0.18824 0.0
C610 C 0.12391 0.4568 0.17518 0.0
C611 C 0.12091 0.43671 0.18464 0.0
H612 H 0.12307 0.4905 0.18087 0.0
H613 H 0.09572 0.29739 0.27757 0.0
H614 H 0.17505 0.66808 0.69802 0.0
H615 H 0.14844 0.64167 0.69706 0.0
H616 H 0.14749 0.64023 0.7702 0.0
H617 H 0.174 0.66681 0.77132 0.0
H618 H 0.14561 0.60065 0.75248 0.0
H619 H 0.11234 0.66733 0.74072 0.0
H620 H 0.1062 0.70161 0.72186 0.0
H621 H 0.09427 0.66946 0.65912 0.0
H622 H 0.10062 0.63499 0.67755 0.0
H623 H 0.05236 0.5553 0.77533 0.0
H624 H 0.08035 0.57953 0.77156 0.0
H625 H 0.07669 0.57494 0.69869 0.0
H626 H 0.04834 0.55057 0.70228 0.0
H627 H 0.08183 0.61609 0.71327 0.0
H628 H 0.11288 0.54908 0.7259 0.0
H629 H 0.11856 0.51491 0.74514 0.0
H630 H 0.13449 0.54758 0.80639 0.0
H631 H 0.12861 0.58197 0.78762 0.0
C632 C 0.16909 0.66228 0.71392 0.0
C633 C 0.17658 0.6697 0.73476 0.0
C634 C 0.1539 0.64713 0.71333 0.0
C635 C 0.14581 0.63914 0.73355 0.0
C636 C 0.15353 0.64616 0.75438 0.0
C637 C 0.16873 0.66131 0.75499 0.0
C638 C 0.12915 0.62364 0.73304 0.0
C639 C 0.1316 0.60411 0.7441 0.0
C640 C 0.11106 0.6279 0.72155 0.0
C641 C 0.10718 0.64861 0.71046 0.0
C642 C 0.10857 0.66759 0.72286 0.0
C643 C 0.10502 0.68705 0.71225 0.0
C644 C 0.0999 0.68772 0.68929 0.0
C645 C 0.09827 0.66892 0.6769 0.0
C646 C 0.10183 0.64942 0.68742 0.0
C647 C 0.05742 0.55939 0.75844 0.0
C648 C 0.04812 0.55089 0.73908 0.0
C649 C 0.07353 0.57321 0.75634 0.0
C650 C 0.08081 0.57881 0.73486 0.0
C651 C 0.07136 0.57073 0.71544 0.0
C652 C 0.05519 0.55679 0.71752 0.0
C653 C 0.0982 0.59323 0.73296 0.0
C654 C 0.09591 0.61255 0.72147 0.0
C655 C 0.11643 0.58878 0.74406 0.0
C656 C 0.12015 0.56812 0.75539 0.0
C657 C 0.11745 0.54899 0.74352 0.0
C658 C 0.12073 0.52957 0.75434 0.0
C659 C 0.12685 0.52907 0.77699 0.0
C660 C 0.12974 0.54799 0.78885 0.0
C661 C 0.12646 0.56746 0.77812 0.0
H662 H 0.12937 0.51402 0.78533 0.0
H663 H 0.09715 0.7028 0.68111 0.0
H664 H 0.82091 0.64022 0.20354 0.0
H665 H 0.84727 0.61349 0.20426 0.0
H666 H 0.89143 0.66287 0.21009 0.0
H667 H 0.8651 0.68966 0.20962 0.0
H668 H 0.87853 0.60381 0.17911 0.0
H669 H 0.92858 0.64649 0.24481 0.0
H670 H 0.92531 0.67195 0.27637 0.0
H671 H 0.8648 0.65226 0.28689 0.0
H672 H 0.86781 0.62649 0.25564 0.0
H673 H 0.97013 0.54654 0.1888 0.0
H674 H 0.94497 0.5742 0.18313 0.0
H675 H 0.92337 0.564 0.25123 0.0
H676 H 0.9488 0.53709 0.25721 0.0
H677 H 0.92511 0.60378 0.24443 0.0
H678 H 0.89865 0.54517 0.20208 0.0
H679 H 0.89893 0.51689 0.1732 0.0
H680 H 0.90713 0.56331 0.12071 0.0
H681 H 0.90715 0.59185 0.14933 0.0
C682 C 0.83626 0.6454 0.20466 0.0
C683 C 0.84091 0.66705 0.20669 0.0
C684 C 0.85132 0.6301 0.20509 0.0
C685 C 0.87133 0.63613 0.20753 0.0
C686 C 0.87607 0.65779 0.20863 0.0
C687 C 0.86101 0.67309 0.20839 0.0
C688 C 0.8871 0.61972 0.20993 0.0
C689 C 0.88877 0.60385 0.19334 0.0
C690 C 0.90025 0.61948 0.22871 0.0
C691 C 0.89837 0.63475 0.24771 0.0
C692 C 0.9146 0.64756 0.25391 0.0
C693 C 0.91279 0.66204 0.27174 0.0
C694 C 0.89484 0.66378 0.28357 0.0
C695 C 0.87868 0.65097 0.27766 0.0
C696 C 0.88042 0.63644 0.25988 0.0
C697 C 0.95998 0.5502 0.20252 0.0
C698 C 0.96149 0.53964 0.22346 0.0
C699 C 0.94554 0.56596 0.19924 0.0
C700 C 0.9321 0.57112 0.21669 0.0
C701 C 0.93359 0.56045 0.23753 0.0
C702 C 0.94814 0.54499 0.24091 0.0
C703 C 0.9166 0.58778 0.21361 0.0
C704 C 0.915 0.60378 0.23007 0.0
C705 C 0.90315 0.58773 0.19508 0.0
C706 C 0.90311 0.57061 0.17786 0.0
C707 C 0.90066 0.54932 0.18439 0.0
C708 C 0.90074 0.53325 0.16807 0.0
C709 C 0.9031 0.53829 0.14515 0.0
C710 C 0.90533 0.55942 0.13848 0.0
C711 C 0.90529 0.57555 0.15474 0.0
H712 H 0.90316 0.52583 0.13253 0.0
H713 H 0.89346 0.67501 0.29735 0.0
H714 H 0.81803 0.37222 0.76104 0.0
H715 H 0.84458 0.39841 0.75764 0.0
H716 H 0.88503 0.34962 0.7352 0.0
H717 H 0.85903 0.32311 0.74014 0.0
H718 H 0.90376 0.37381 0.76246 0.0
H719 H 0.86245 0.38685 0.69796 0.0
H720 H 0.8313 0.39414 0.67724 0.0
H721 H 0.82461 0.45288 0.71321 0.0
H722 H 0.85558 0.4458 0.73439 0.0
H723 H 0.97301 0.45058 0.7131 0.0
H724 H 0.94593 0.42422 0.71265 0.0
H725 H 0.91613 0.458 0.76634 0.0
H726 H 0.94338 0.48379 0.7675 0.0
H727 H 0.893 0.44122 0.72076 0.0
H728 H 0.93268 0.42399 0.78853 0.0
H729 H 0.96427 0.41588 0.80802 0.0
H730 H 0.97453 0.36398 0.76241 0.0
H731 H 0.9431 0.37203 0.74241 0.0
C732 C 0.83264 0.36695 0.75572 0.0
C733 C 0.83626 0.34548 0.75074 0.0
C734 C 0.84776 0.38206 0.75342 0.0
C735 C 0.86675 0.37613 0.74566 0.0
C736 C 0.87049 0.35468 0.74104 0.0
C737 C 0.85548 0.33953 0.74364 0.0
C738 C 0.88283 0.39217 0.74279 0.0
C739 C 0.90139 0.38837 0.75303 0.0
C740 C 0.87986 0.41135 0.73066 0.0
C741 C 0.86125 0.41569 0.71791 0.0
C742 C 0.85426 0.40125 0.70158 0.0
C743 C 0.83665 0.40536 0.68973 0.0
C744 C 0.82596 0.42394 0.69394 0.0
C745 C 0.83289 0.43848 0.70998 0.0
C746 C 0.85049 0.43444 0.7219 0.0
C747 C 0.96057 0.45243 0.72462 0.0
C748 C 0.96028 0.46908 0.74042 0.0
C749 C 0.94519 0.43741 0.72437 0.0
C750 C 0.92915 0.43923 0.73952 0.0
C751 C 0.92842 0.45637 0.75458 0.0
C752 C 0.944 0.47101 0.75525 0.0
C753 C 0.91354 0.42274 0.74053 0.0
C754 C 0.8952 0.4265 0.72996 0.0
C755 C 0.91672 0.40343 0.75208 0.0
C756 C 0.93573 0.39881 0.76379 0.0
C757 C 0.94182 0.41105 0.78246 0.0
C758 C 0.95965 0.40642 0.79365 0.0
C759 C 0.97142 0.38946 0.78642 0.0
C760 C 0.96541 0.37713 0.76795 0.0
C761 C 0.9476 0.38173 0.75669 0.0
H762 H 0.98512 0.3858 0.79523 0.0
H763 H 0.81232 0.42709 0.68475 0.0
H764 H 0.30045 0.19536 0.33415 0.0
H765 H 0.30137 0.16937 0.36488 0.0
H766 H 0.23795 0.16031 0.35876 0.0
H767 H 0.23692 0.18611 0.32776 0.0
H768 H 0.25041 0.1621 0.40349 0.0
H769 H 0.26909 0.12584 0.33448 0.0
H770 H 0.28909 0.12042 0.29989 0.0
H771 H 0.34207 0.11477 0.34024 0.0
H772 H 0.3224 0.12047 0.37507 0.0
H773 H 0.2341 0.06263 0.45269 0.0
H774 H 0.23723 0.09255 0.4269 0.0
H775 H 0.30088 0.09277 0.43669 0.0
H776 H 0.29792 0.06237 0.46249 0.0
H777 H 0.29118 0.0973 0.39243 0.0
H778 H 0.27244 0.1303 0.46177 0.0
H779 H 0.25267 0.13545 0.49656 0.0
H780 H 0.2005 0.14749 0.45647 0.0
H781 H 0.21989 0.1421 0.42142 0.0
C782 C 0.28669 0.18781 0.3393 0.0
C783 C 0.26864 0.19263 0.32831 0.0
C784 C 0.28724 0.17303 0.35692 0.0
C785 C 0.26978 0.16272 0.36389 0.0
C786 C 0.2516 0.1681 0.35362 0.0
C787 C 0.25104 0.18289 0.33595 0.0
C788 C 0.27056 0.14568 0.38121 0.0
C789 C 0.25919 0.14785 0.40102 0.0
C790 C 0.28251 0.12739 0.37826 0.0
C791 C 0.29431 0.12382 0.35735 0.0
C792 C 0.28503 0.12361 0.33596 0.0
C793 C 0.2963 0.12046 0.31632 0.0
C794 C 0.31685 0.11731 0.31786 0.0
C795 C 0.32616 0.11725 0.33906 0.0
C796 C 0.31496 0.12043 0.35876 0.0
C797 C 0.24881 0.06899 0.44944 0.0
C798 C 0.26577 0.06014 0.45976 0.0
C799 C 0.25055 0.08621 0.43475 0.0
C800 C 0.26924 0.09514 0.43018 0.0
C801 C 0.28629 0.08618 0.44012 0.0
C802 C 0.28457 0.06884 0.45485 0.0
C803 C 0.27079 0.11355 0.4146 0.0
C804 C 0.28259 0.11165 0.39508 0.0
C805 C 0.25931 0.13213 0.41789 0.0
C806 C 0.24761 0.13565 0.43894 0.0
C807 C 0.25673 0.13391 0.46036 0.0
C808 C 0.24559 0.13689 0.48014 0.0
C809 C 0.22533 0.14175 0.47873 0.0
C810 C 0.21619 0.14371 0.45754 0.0
C811 C 0.22726 0.14073 0.4377 0.0
H812 H 0.21673 0.14403 0.49406 0.0
H813 H 0.32555 0.11488 0.30263 0.0
H814 H 0.35315 0.73539 0.80979 0.0
H815 H 0.37933 0.73763 0.83841 0.0
H816 H 0.33733 0.71919 0.89015 0.0
H817 H 0.31082 0.71779 0.86172 0.0
H818 H 0.35945 0.75117 0.90469 0.0
H819 H 0.37192 0.68412 0.86917 0.0
H820 H 0.37798 0.65973 0.83722 0.0
H821 H 0.43111 0.69398 0.81989 0.0
H822 H 0.42521 0.71875 0.85157 0.0
H823 H 0.45047 0.70241 0.96753 0.0
H824 H 0.42372 0.70096 0.93971 0.0
H825 H 0.42501 0.76909 0.93365 0.0
H826 H 0.45182 0.77074 0.96186 0.0
H827 H 0.42307 0.71198 0.89651 0.0
H828 H 0.37943 0.78666 0.92201 0.0
H829 H 0.371 0.80736 0.95624 0.0
H830 H 0.37677 0.7514 0.9972 0.0
H831 H 0.38557 0.73051 0.96335 0.0
C832 C 0.34943 0.73194 0.82728 0.0
C833 C 0.32985 0.72644 0.83346 0.0
C834 C 0.36447 0.73304 0.8436 0.0
C835 C 0.36034 0.72842 0.86641 0.0
C836 C 0.34086 0.72281 0.87264 0.0
C837 C 0.32576 0.72179 0.85633 0.0
C838 C 0.37631 0.72963 0.88382 0.0
C839 C 0.37338 0.74263 0.90285 0.0
C840 C 0.3944 0.71831 0.88162 0.0
C841 C 0.39802 0.7034 0.8626 0.0
C842 C 0.38481 0.68654 0.85844 0.0
C843 C 0.38823 0.67264 0.8404 0.0
C844 C 0.40489 0.67534 0.8265 0.0
C845 C 0.4182 0.69192 0.83065 0.0
C846 C 0.41483 0.70589 0.84866 0.0
C847 C 0.44508 0.71715 0.96039 0.0
C848 C 0.45333 0.73672 0.96695 0.0
C849 C 0.42979 0.71626 0.9444 0.0
C850 C 0.42229 0.73489 0.93464 0.0
C851 C 0.43041 0.7545 0.94116 0.0
C852 C 0.44579 0.75542 0.95721 0.0
C853 C 0.40623 0.73355 0.91734 0.0
C854 C 0.4092 0.72062 0.89826 0.0
C855 C 0.388 0.74453 0.91974 0.0
C856 C 0.38334 0.75712 0.94023 0.0
C857 C 0.37901 0.77884 0.93837 0.0
C858 C 0.37423 0.79061 0.95772 0.0
C859 C 0.37352 0.78075 0.97894 0.0
C860 C 0.37761 0.7591 0.98085 0.0
C861 C 0.38257 0.74731 0.96161 0.0
H862 H 0.36971 0.78985 0.99388 0.0
H863 H 0.40751 0.66456 0.81254 0.0
H864 H 0.80408 0.80342 0.34114 0.0
H865 H 0.80562 0.83156 0.36932 0.0
H866 H 0.76555 0.8695 0.32899 0.0
H867 H 0.76542 0.84238 0.29974 0.0
H868 H 0.79126 0.89416 0.34498 0.0
H869 H 0.75106 0.83997 0.37863 0.0
H870 H 0.74246 0.80412 0.39215 0.0
H871 H 0.79169 0.80565 0.43862 0.0
H872 H 0.80074 0.84142 0.42515 0.0
H873 H 0.74984 0.95626 0.43609 0.0
H874 H 0.75437 0.92903 0.40695 0.0
H875 H 0.81186 0.9135 0.43491 0.0
H876 H 0.80771 0.94122 0.46381 0.0
H877 H 0.77975 0.87794 0.42629 0.0
H878 H 0.81725 0.93529 0.39173 0.0
H879 H 0.82146 0.97215 0.37866 0.0
H880 H 0.77137 0.96519 0.334 0.0
H881 H 0.76667 0.92836 0.34709 0.0
C882 C 0.79586 0.81788 0.33798 0.0
C883 C 0.78452 0.82042 0.31806 0.0
C884 C 0.7965 0.83387 0.35438 0.0
C885 C 0.78537 0.85256 0.3516 0.0
C886 C 0.77421 0.85523 0.33167 0.0
C887 C 0.77391 0.83947 0.31504 0.0
C888 C 0.78534 0.86938 0.36934 0.0
C889 C 0.78857 0.89052 0.3627 0.0
C890 C 0.78207 0.8648 0.39262 0.0
C891 C 0.77672 0.84327 0.40069 0.0
C892 C 0.76015 0.83259 0.39159 0.0
C893 C 0.75518 0.8123 0.39928 0.0
C894 C 0.76656 0.80259 0.41618 0.0
C895 C 0.78291 0.81317 0.42549 0.0
C896 C 0.78796 0.83346 0.41785 0.0
C897 C 0.76351 0.94715 0.43595 0.0
C898 C 0.77843 0.95085 0.4522 0.0
C899 C 0.76607 0.93165 0.41931 0.0
C900 C 0.78343 0.91934 0.41887 0.0
C901 C 0.79838 0.92292 0.43504 0.0
C902 C 0.79602 0.93878 0.45142 0.0
C903 C 0.78559 0.90239 0.40176 0.0
C904 C 0.78264 0.88134 0.40855 0.0
C905 C 0.78857 0.90708 0.37859 0.0
C906 C 0.79149 0.92914 0.37056 0.0
C907 C 0.80702 0.94168 0.37929 0.0
C908 C 0.80952 0.96256 0.37184 0.0
C909 C 0.79666 0.97103 0.35555 0.0
C910 C 0.7813 0.95862 0.34664 0.0
C911 C 0.77873 0.93774 0.35405 0.0
H912 H 0.79862 0.98719 0.34981 0.0
H913 H 0.76268 0.78688 0.42211 0.0
H914 H 0.70197 0.25849 0.84798 0.0
H915 H 0.67531 0.25755 0.87655 0.0
H916 H 0.6313 0.26082 0.82339 0.0
H917 H 0.65783 0.26141 0.79483 0.0
H918 H 0.62519 0.28925 0.86199 0.0
H919 H 0.63895 0.21544 0.84434 0.0
H920 H 0.661 0.18437 0.84074 0.0
H921 H 0.67605 0.18886 0.91138 0.0
H922 H 0.65431 0.22018 0.9153 0.0
H923 H 0.53696 0.26653 0.91921 0.0
H924 H 0.56439 0.26503 0.89195 0.0
H925 H 0.60348 0.2419 0.94463 0.0
H926 H 0.57551 0.24204 0.97148 0.0
H927 H 0.61388 0.22426 0.9077 0.0
H928 H 0.60119 0.29625 0.92742 0.0
H929 H 0.58118 0.32859 0.93306 0.0
H930 H 0.56702 0.32995 0.86204 0.0
H931 H 0.58673 0.29744 0.85602 0.0
C932 C 0.6866 0.25921 0.84248 0.0
C933 C 0.6819 0.25997 0.81926 0.0
C934 C 0.67143 0.25856 0.85875 0.0
C935 C 0.65137 0.25899 0.85202 0.0
C936 C 0.64669 0.26043 0.82888 0.0
C937 C 0.66181 0.26071 0.81262 0.0
C938 C 0.63518 0.25754 0.869 0.0
C939 C 0.62255 0.275 0.87186 0.0
C940 C 0.63225 0.2392 0.88238 0.0
C941 C 0.64518 0.22028 0.88005 0.0
C942 C 0.6471 0.20992 0.85905 0.0
C943 C 0.65951 0.19224 0.85696 0.0
C944 C 0.66997 0.18468 0.8758 0.0
C945 C 0.66797 0.19475 0.89679 0.0
C946 C 0.6556 0.21245 0.89896 0.0
C947 C 0.55134 0.26068 0.92473 0.0
C948 C 0.55425 0.2543 0.94726 0.0
C949 C 0.56707 0.26007 0.90928 0.0
C950 C 0.58624 0.25401 0.91635 0.0
C951 C 0.58891 0.24677 0.93874 0.0
C952 C 0.57297 0.2468 0.95406 0.0
C953 C 0.60353 0.25594 0.90063 0.0
C954 C 0.61646 0.23861 0.89799 0.0
C955 C 0.60703 0.27463 0.88781 0.0
C956 C 0.59531 0.29431 0.89131 0.0
C957 C 0.59372 0.30338 0.91303 0.0
C958 C 0.58244 0.32175 0.91629 0.0
C959 C 0.5728 0.33129 0.89793 0.0
C960 C 0.57448 0.32252 0.87625 0.0
C961 C 0.58572 0.30414 0.8729 0.0
H962 H 0.56406 0.3455 0.90049 0.0
H963 H 0.67957 0.171 0.87415 0.0
H964 H 0.28319 0.85164 0.69468 0.0
H965 H 0.28424 0.87987 0.66675 0.0
H966 H 0.24943 0.84179 0.62065 0.0
H967 H 0.25011 0.81254 0.64755 0.0
H968 H 0.27562 0.85971 0.59758 0.0
H969 H 0.23025 0.88606 0.65291 0.0
H970 H 0.21809 0.89604 0.6909 0.0
H971 H 0.26518 0.94173 0.69712 0.0
H972 H 0.27778 0.93182 0.65927 0.0
H973 H 0.23904 0.94875 0.53259 0.0
H974 H 0.24178 0.91903 0.55911 0.0
H975 H 0.29591 0.94559 0.58626 0.0
H976 H 0.29359 0.97521 0.55921 0.0
H977 H 0.26089 0.93424 0.61841 0.0
H978 H 0.30453 0.90604 0.55996 0.0
H979 H 0.31357 0.8948 0.52124 0.0
H980 H 0.26367 0.85226 0.51983 0.0
H981 H 0.25426 0.86336 0.5585 0.0
C982 C 0.27603 0.849 0.67848 0.0
C983 C 0.26664 0.82958 0.6735 0.0
C984 C 0.27631 0.86544 0.66262 0.0
C985 C 0.26659 0.86323 0.64167 0.0
C986 C 0.25701 0.84398 0.6367 0.0
C987 C 0.25717 0.82731 0.65232 0.0
C988 C 0.26689 0.88072 0.62469 0.0
C989 C 0.27212 0.87594 0.60218 0.0
C990 C 0.2626 0.90204 0.63057 0.0
C991 C 0.25508 0.90804 0.65335 0.0
C992 C 0.2381 0.89812 0.66245 0.0
C993 C 0.23112 0.90379 0.68395 0.0
C994 C 0.24089 0.91947 0.69644 0.0
C995 C 0.25764 0.92956 0.68743 0.0
C996 C 0.2647 0.92394 0.66595 0.0
C997 C 0.25162 0.94818 0.54409 0.0
C998 C 0.26608 0.96431 0.54396 0.0
C999 C 0.25318 0.93117 0.55913 0.0
C1000 C 0.26903 0.93019 0.57455 0.0
C1001 C 0.28361 0.94613 0.57438 0.0
C1002 C 0.2823 0.96295 0.55894 0.0
C1003 C 0.26961 0.91306 0.59164 0.0
C1004 C 0.26444 0.91796 0.61405 0.0
C1005 C 0.27333 0.8918 0.58555 0.0
C1006 C 0.27861 0.88566 0.56204 0.0
C1007 C 0.29536 0.89447 0.55129 0.0
C1008 C 0.30061 0.88805 0.5294 0.0
C1009 C 0.28922 0.87279 0.51811 0.0
C1010 C 0.2725 0.86404 0.52862 0.0
C1011 C 0.26722 0.87036 0.55053 0.0
H1012 H 0.29337 0.86774 0.50122 0.0
H1013 H 0.23546 0.92383 0.71308 0.0
H1014 H 0.69686 0.75951 0.13488 0.0
H1015 H 0.66765 0.76058 0.10966 0.0
H1016 H 0.6296 0.74476 0.16608 0.0
H1017 H 0.65862 0.74435 0.19144 0.0
H1018 H 0.62742 0.7196 0.11899 0.0
H1019 H 0.6247 0.789 0.15653 0.0
H1020 H 0.6397 0.8232 0.16739 0.0
H1021 H 0.65019 0.83783 0.09724 0.0
H1022 H 0.63552 0.80351 0.08601 0.0
H1023 H 0.53085 0.72903 0.07903 0.0
H1024 H 0.56044 0.73238 0.10278 0.0
H1025 H 0.58594 0.7762 0.05456 0.0
H1026 H 0.55562 0.77373 0.03133 0.0
H1027 H 0.59686 0.78761 0.09481 0.0
H1028 H 0.59848 0.72213 0.0554 0.0
H1029 H 0.58603 0.68778 0.04138 0.0
H1030 H 0.5813 0.66491 0.10979 0.0
H1031 H 0.59344 0.69925 0.12425 0.0
C1032 C 0.68224 0.7562 0.1418 0.0
C1033 C 0.67989 0.75186 0.16502 0.0
C1034 C 0.66564 0.75688 0.12746 0.0
C1035 C 0.64656 0.75283 0.13611 0.0
C1036 C 0.64424 0.74799 0.15918 0.0
C1037 C 0.66076 0.74778 0.1736 0.0
C1038 C 0.62892 0.75357 0.12111 0.0
C1039 C 0.62056 0.73441 0.11385 0.0
C1040 C 0.62061 0.77294 0.11371 0.0
C1041 C 0.62926 0.7936 0.12047 0.0
C1042 C 0.6304 0.7994 0.14345 0.0
C1043 C 0.63879 0.81883 0.14966 0.0
C1044 C 0.64596 0.83265 0.13302 0.0
C1045 C 0.64468 0.82709 0.11012 0.0
C1046 C 0.63632 0.80767 0.10382 0.0
C1047 C 0.54263 0.73967 0.07373 0.0
C1048 C 0.54106 0.75105 0.05335 0.0
C1049 C 0.55963 0.74144 0.08719 0.0
C1050 C 0.57575 0.75399 0.08012 0.0
C1051 C 0.57378 0.76626 0.0603 0.0
C1052 C 0.55647 0.76491 0.04707 0.0
C1053 C 0.59481 0.75352 0.09304 0.0
C1054 C 0.60362 0.77271 0.09981 0.0
C1055 C 0.60387 0.73411 0.09953 0.0
C1056 C 0.59673 0.71334 0.09091 0.0
C1057 C 0.59467 0.70982 0.06746 0.0
C1058 C 0.58768 0.69035 0.05943 0.0
C1059 C 0.58284 0.67418 0.07468 0.0
C1060 C 0.58504 0.67745 0.098 0.0
C1061 C 0.59199 0.69691 0.10612 0.0
H1062 H 0.57743 0.65912 0.06844 0.0
H1063 H 0.65245 0.84769 0.13786 0.0
H1064 H 0.75862 0.1617 0.68447 0.0
H1065 H 0.75947 0.13101 0.65973 0.0
H1066 H 0.79426 0.16612 0.61096 0.0
H1067 H 0.79171 0.19767 0.63454 0.0
H1068 H 0.77043 0.14356 0.58887 0.0
H1069 H 0.81474 0.12755 0.64946 0.0
H1070 H 0.82589 0.12339 0.68907 0.0
H1071 H 0.78137 0.07561 0.70002 0.0
H1072 H 0.76977 0.07968 0.66055 0.0
H1073 H 0.80431 0.04791 0.53402 0.0
H1074 H 0.80614 0.07849 0.55967 0.0
H1075 H 0.75119 0.05918 0.59132 0.0
H1076 H 0.74891 0.02897 0.56531 0.0
H1077 H 0.7877 0.07327 0.62124 0.0
H1078 H 0.74343 0.09288 0.55839 0.0
H1079 H 0.73656 0.09615 0.51743 0.0
H1080 H 0.78707 0.13728 0.50983 0.0
H1081 H 0.79447 0.13389 0.55071 0.0
C1082 C 0.7661 0.16319 0.66829 0.0
C1083 C 0.77515 0.18236 0.66169 0.0
C1084 C 0.76691 0.14537 0.65429 0.0
C1085 C 0.77741 0.14597 0.63369 0.0
C1086 C 0.78621 0.16513 0.62685 0.0
C1087 C 0.78497 0.18314 0.64058 0.0
C1088 C 0.77901 0.12669 0.61924 0.0
C1089 C 0.77449 0.12831 0.59601 0.0
C1090 C 0.7843 0.10663 0.62835 0.0
C1091 C 0.79128 0.10406 0.65209 0.0
C1092 C 0.80724 0.11626 0.66036 0.0
C1093 C 0.81365 0.1139 0.68278 0.0
C1094 C 0.80432 0.09928 0.69707 0.0
C1095 C 0.78858 0.08695 0.68894 0.0
C1096 C 0.78209 0.08925 0.66654 0.0
C1097 C 0.79277 0.05004 0.54665 0.0
C1098 C 0.77643 0.03615 0.54767 0.0
C1099 C 0.79383 0.06749 0.56122 0.0
C1100 C 0.77878 0.07099 0.57727 0.0
C1101 C 0.76294 0.05663 0.57902 0.0
C1102 C 0.76163 0.03948 0.56413 0.0
C1103 C 0.77888 0.09034 0.59133 0.0
C1104 C 0.78376 0.08866 0.61434 0.0
C1105 C 0.77445 0.11038 0.58194 0.0
C1106 C 0.76963 0.11294 0.55754 0.0
C1107 C 0.75316 0.10248 0.54795 0.0
C1108 C 0.74916 0.10437 0.52476 0.0
C1109 C 0.76141 0.11686 0.51102 0.0
C1110 C 0.77762 0.12757 0.52048 0.0
C1111 C 0.78172 0.12568 0.54366 0.0
H1112 H 0.75831 0.11827 0.49306 0.0
H1113 H 0.8093 0.09749 0.71443 0.0
H1114 H 0.35342 0.26186 0.17901 0.0
H1115 H 0.38155 0.25881 0.15323 0.0
H1116 H 0.34369 0.27572 0.09693 0.0
H1117 H 0.31506 0.27747 0.12248 0.0
H1118 H 0.368 0.24559 0.08419 0.0
H1119 H 0.37563 0.31204 0.1221 0.0
H1120 H 0.37792 0.33631 0.15478 0.0
H1121 H 0.4296 0.30313 0.17882 0.0
H1122 H 0.42746 0.27847 0.14643 0.0
H1123 H 0.46362 0.29775 0.03514 0.0
H1124 H 0.43474 0.29779 0.05996 0.0
H1125 H 0.43616 0.22946 0.06277 0.0
H1126 H 0.46511 0.22924 0.03737 0.0
H1127 H 0.42977 0.28551 0.1017 0.0
H1128 H 0.38877 0.21123 0.06816 0.0
H1129 H 0.38496 0.19136 0.03234 0.0
H1130 H 0.39714 0.24795 0.99428 0.0
H1131 H 0.401 0.26811 0.02982 0.0
C1132 C 0.35091 0.2646 0.1611 0.0
C1133 C 0.33187 0.2699 0.15288 0.0
C1134 C 0.36713 0.26309 0.14639 0.0
C1135 C 0.36484 0.26733 0.12316 0.0
C1136 C 0.34585 0.27243 0.1148 0.0
C1137 C 0.32953 0.27369 0.12949 0.0
C1138 C 0.38234 0.26681 0.10774 0.0
C1139 C 0.38151 0.25428 0.08806 0.0
C1140 C 0.39989 0.27846 0.11249 0.0
C1141 C 0.40126 0.29329 0.13196 0.0
C1142 C 0.38739 0.30983 0.13445 0.0
C1143 C 0.38868 0.32367 0.1529 0.0
C1144 C 0.40387 0.32123 0.1689 0.0
C1145 C 0.41783 0.30498 0.16644 0.0
C1146 C 0.4166 0.29108 0.14803 0.0
C1147 C 0.45787 0.28266 0.041 0.0
C1148 C 0.46671 0.26346 0.03423 0.0
C1149 C 0.44134 0.28274 0.05527 0.0
C1150 C 0.43319 0.26366 0.06316 0.0
C1151 C 0.44205 0.2444 0.05666 0.0
C1152 C 0.45865 0.24429 0.04224 0.0
C1153 C 0.41549 0.26418 0.07826 0.0
C1154 C 0.41631 0.27669 0.09792 0.0
C1155 C 0.39774 0.2531 0.07308 0.0
C1156 C 0.39538 0.24109 0.05164 0.0
C1157 C 0.39062 0.21941 0.05213 0.0
C1158 C 0.38849 0.20809 0.03188 0.0
C1159 C 0.39093 0.21835 0.01104 0.0
C1160 C 0.39543 0.23997 0.01041 0.0
C1161 C 0.39763 0.25133 0.0306 0.0
H1162 H 0.38927 0.20957 0.99538 0.0
H1163 H 0.40484 0.33197 0.18317 0.0
H1164 H 0.83052 0.67008 0.80153 0.0
H1165 H 0.85824 0.64536 0.80641 0.0
H1166 H 0.86577 0.64235 0.73381 0.0
H1167 H 0.83767 0.66653 0.72877 0.0
H1168 H 0.86709 0.60349 0.75244 0.0
H1169 H 0.89728 0.67145 0.76735 0.0
H1170 H 0.90075 0.70592 0.78666 0.0
H1171 H 0.90791 0.67421 0.85062 0.0
H1172 H 0.90422 0.63953 0.83172 0.0
H1173 H 0.96191 0.56031 0.73971 0.0
H1174 H 0.93418 0.58506 0.74073 0.0
H1175 H 0.93166 0.57972 0.8136 0.0
H1176 H 0.95979 0.55481 0.8128 0.0
H1177 H 0.92671 0.62127 0.79842 0.0
H1178 H 0.89882 0.55322 0.78317 0.0
H1179 H 0.89603 0.51874 0.76376 0.0
H1180 H 0.88444 0.55045 0.70065 0.0
H1181 H 0.88751 0.58515 0.71961 0.0
C1182 C 0.83799 0.66404 0.78658 0.0
C1183 C 0.83187 0.67031 0.76474 0.0
C1184 C 0.85396 0.65006 0.78942 0.0
C1185 C 0.86422 0.64214 0.77049 0.0
C1186 C 0.8581 0.6483 0.74868 0.0
C1187 C 0.84215 0.66228 0.74582 0.0
C1188 C 0.88115 0.62719 0.77329 0.0
C1189 C 0.8802 0.60748 0.76231 0.0
C1190 C 0.89799 0.63209 0.78679 0.0
C1191 C 0.90025 0.65291 0.79816 0.0
C1192 C 0.89943 0.67183 0.78556 0.0
C1193 C 0.90147 0.69141 0.79643 0.0
C1194 C 0.90449 0.69226 0.81986 0.0
C1195 C 0.90554 0.67353 0.83247 0.0
C1196 C 0.90349 0.65391 0.82169 0.0
C1197 C 0.9556 0.56442 0.75603 0.0
C1198 C 0.963 0.5554 0.77619 0.0
C1199 C 0.93968 0.57856 0.75655 0.0
C1200 C 0.93063 0.58395 0.77719 0.0
C1201 C 0.93838 0.57566 0.79748 0.0
C1202 C 0.95442 0.56143 0.79699 0.0
C1203 C 0.91277 0.59782 0.77719 0.0
C1204 C 0.91351 0.61724 0.78872 0.0
C1205 C 0.89568 0.59267 0.76423 0.0
C1206 C 0.89354 0.57181 0.7528 0.0
C1207 C 0.89581 0.55285 0.76513 0.0
C1208 C 0.89416 0.53326 0.7542 0.0
C1209 C 0.89009 0.53241 0.73098 0.0
C1210 C 0.88761 0.55114 0.71864 0.0
C1211 C 0.88928 0.57078 0.72947 0.0
H1212 H 0.88883 0.51723 0.72255 0.0
H1213 H 0.90606 0.70743 0.82824 0.0
H1214 H 0.83116 0.33648 0.30961 0.0
H1215 H 0.85901 0.36152 0.30916 0.0
H1216 H 0.85898 0.36059 0.236 0.0
H1217 H 0.83142 0.33523 0.23632 0.0
H1218 H 0.89648 0.35739 0.2531 0.0
H1219 H 0.83932 0.40201 0.26434 0.0
H1220 H 0.80857 0.41393 0.28329 0.0
H1221 H 0.84101 0.42404 0.34512 0.0
H1222 H 0.87192 0.41189 0.32662 0.0
H1223 H 0.95429 0.44805 0.22914 0.0
H1224 H 0.92747 0.42219 0.23248 0.0
H1225 H 0.92962 0.42749 0.30538 0.0
H1226 H 0.95639 0.45373 0.3022 0.0
H1227 H 0.89174 0.42775 0.29028 0.0
H1228 H 0.9492 0.38439 0.27875 0.0
H1229 H 0.97999 0.37261 0.25981 0.0
H1230 H 0.94718 0.35996 0.19877 0.0
H1231 H 0.91622 0.37195 0.21725 0.0
C1232 C 0.83717 0.3415 0.29343 0.0
C1233 C 0.82904 0.33389 0.27299 0.0
C1234 C 0.85298 0.35594 0.2932 0.0
C1235 C 0.86097 0.36308 0.27254 0.0
C1236 C 0.85302 0.35535 0.25214 0.0
C1237 C 0.83716 0.34098 0.25234 0.0
C1238 C 0.87769 0.37852 0.27215 0.0
C1239 C 0.89536 0.37286 0.26101 0.0
C1240 C 0.87644 0.39849 0.28301 0.0
C1241 C 0.85788 0.40582 0.29417 0.0
C1242 C 0.83986 0.4066 0.28204 0.0
C1243 C 0.82241 0.41343 0.29268 0.0
C1244 C 0.82282 0.41968 0.31542 0.0
C1245 C 0.8407 0.41916 0.32753 0.0
C1246 C 0.85819 0.41232 0.31697 0.0
C1247 C 0.94913 0.44373 0.24593 0.0
C1248 C 0.95758 0.45293 0.26542 0.0
C1249 C 0.93382 0.42884 0.2478 0.0
C1250 C 0.9267 0.42266 0.26919 0.0
C1251 C 0.93493 0.43197 0.2887 0.0
C1252 C 0.95027 0.44692 0.28685 0.0
C1253 C 0.91049 0.40669 0.27105 0.0
C1254 C 0.89291 0.41222 0.28248 0.0
C1255 C 0.91183 0.38658 0.26048 0.0
C1256 C 0.93041 0.37925 0.24934 0.0
C1257 C 0.94857 0.37925 0.26124 0.0
C1258 C 0.96605 0.37251 0.25059 0.0
C1259 C 0.96555 0.36559 0.22809 0.0
C1260 C 0.94755 0.36534 0.2162 0.0
C1261 C 0.93003 0.37209 0.22676 0.0
H1262 H 0.9791 0.36038 0.21987 0.0
H1263 H 0.8093 0.42497 0.32363 0.0
H1264 H 0.16621 0.3471 0.74978 0.0
H1265 H 0.1393 0.37316 0.7521 0.0
H1266 H 0.14159 0.3704 0.82515 0.0
H1267 H 0.16853 0.3442 0.82295 0.0
H1268 H 0.10221 0.36993 0.80699 0.0
H1269 H 0.16237 0.41067 0.80115 0.0
H1270 H 0.19467 0.4209 0.78457 0.0
H1271 H 0.16593 0.43599 0.72153 0.0
H1272 H 0.13347 0.42554 0.73763 0.0
H1273 H 0.04205 0.46429 0.81828 0.0
H1274 H 0.06875 0.43796 0.82262 0.0
H1275 H 0.07759 0.43771 0.75015 0.0
H1276 H 0.05125 0.46378 0.74567 0.0
H1277 H 0.1125 0.44076 0.77224 0.0
H1278 H 0.05401 0.39707 0.77499 0.0
H1279 H 0.02123 0.38562 0.7891 0.0
H1280 H 0.04598 0.37537 0.8554 0.0
H1281 H 0.07897 0.38692 0.84164 0.0
C1282 C 0.16084 0.35187 0.76633 0.0
C1283 C 0.16952 0.34367 0.78618 0.0
C1284 C 0.14556 0.36684 0.76764 0.0
C1285 C 0.13859 0.37383 0.78881 0.0
C1286 C 0.14681 0.36525 0.80867 0.0
C1287 C 0.16226 0.35041 0.80737 0.0
C1288 C 0.12305 0.3905 0.79005 0.0
C1289 C 0.10455 0.38557 0.79979 0.0
C1290 C 0.12602 0.41073 0.78024 0.0
C1291 C 0.14551 0.41715 0.77055 0.0
C1292 C 0.16295 0.41601 0.7837 0.0
C1293 C 0.18129 0.42187 0.7744 0.0
C1294 C 0.18236 0.42905 0.752 0.0
C1295 C 0.16508 0.43042 0.73887 0.0
C1296 C 0.14671 0.42454 0.74808 0.0
C1297 C 0.04967 0.45856 0.8033 0.0
C1298 C 0.04448 0.46616 0.78164 0.0
C1299 C 0.06488 0.44349 0.80579 0.0
C1300 C 0.07515 0.43585 0.78668 0.0
C1301 C 0.06995 0.44343 0.76513 0.0
C1302 C 0.05478 0.45831 0.76262 0.0
C1303 C 0.0915 0.42012 0.78883 0.0
C1304 C 0.11021 0.42524 0.77974 0.0
C1305 C 0.08863 0.40002 0.79899 0.0
C1306 C 0.06887 0.39312 0.80737 0.0
C1307 C 0.05242 0.39256 0.79263 0.0
C1308 C 0.03381 0.38601 0.80056 0.0
C1309 C 0.03147 0.37987 0.82318 0.0
C1310 C 0.04779 0.38018 0.83789 0.0
C1311 C 0.06647 0.3867 0.83003 0.0
H1312 H 0.01703 0.37481 0.82928 0.0
H1313 H 0.19657 0.43358 0.74483 0.0
H1314 H 0.15021 0.67709 0.26848 0.0
H1315 H 0.12319 0.65134 0.27189 0.0
H1316 H 0.16482 0.60032 0.26105 0.0
H1317 H 0.19202 0.62592 0.25804 0.0
H1318 H 0.13134 0.59578 0.23536 0.0
H1319 H 0.14703 0.60984 0.31335 0.0
H1320 H 0.15283 0.63236 0.34687 0.0
H1321 H 0.09304 0.65609 0.34249 0.0
H1322 H 0.08696 0.63393 0.30872 0.0
H1323 H 0.06584 0.51215 0.25949 0.0
H1324 H 0.09423 0.53638 0.26182 0.0
H1325 H 0.05467 0.58714 0.28144 0.0
H1326 H 0.02644 0.56235 0.28055 0.0
H1327 H 0.0877 0.59165 0.30314 0.0
H1328 H 0.07232 0.57907 0.22426 0.0
H1329 H 0.06625 0.55663 0.1907 0.0
H1330 H 0.12515 0.53068 0.19633 0.0
H1331 H 0.13149 0.55284 0.23005 0.0
C1332 C 0.1537 0.66039 0.26712 0.0
C1333 C 0.17335 0.65362 0.26302 0.0
C1334 C 0.13821 0.64568 0.26901 0.0
C1335 C 0.14201 0.62389 0.26691 0.0
C1336 C 0.16154 0.61706 0.26269 0.0
C1337 C 0.17706 0.63175 0.26087 0.0
C1338 C 0.12556 0.60822 0.26871 0.0
C1339 C 0.12196 0.59468 0.25029 0.0
C1340 C 0.11303 0.60713 0.28798 0.0
C1341 C 0.1166 0.62037 0.30837 0.0
C1342 C 0.13516 0.61998 0.31942 0.0
C1343 C 0.13849 0.63266 0.33849 0.0
C1344 C 0.12333 0.64569 0.34678 0.0
C1345 C 0.10478 0.64601 0.33604 0.0
C1346 C 0.10138 0.63338 0.31695 0.0
C1347 C 0.06336 0.52842 0.26469 0.0
C1348 C 0.04412 0.53552 0.26988 0.0
C1349 C 0.07951 0.54232 0.26579 0.0
C1350 C 0.07658 0.56381 0.27114 0.0
C1351 C 0.05735 0.57069 0.27714 0.0
C1352 C 0.04124 0.55659 0.27664 0.0
C1353 C 0.09338 0.5792 0.26972 0.0
C1354 C 0.09706 0.59272 0.28818 0.0
C1355 C 0.10593 0.5804 0.2504 0.0
C1356 C 0.10232 0.5675 0.22976 0.0
C1357 C 0.08395 0.56854 0.21836 0.0
C1358 C 0.08047 0.55587 0.19932 0.0
C1359 C 0.09529 0.5422 0.19142 0.0
C1360 C 0.11368 0.54126 0.20247 0.0
C1361 C 0.11724 0.5539 0.22152 0.0
H1362 H 0.09255 0.53235 0.17671 0.0
H1363 H 0.12594 0.65549 0.36154 0.0
H1364 H 0.76618 0.82494 0.68789 0.0
H1365 H 0.76681 0.85228 0.65857 0.0
H1366 H 0.70393 0.84344 0.64709 0.0
H1367 H 0.70335 0.81538 0.6757 0.0
H1368 H 0.72267 0.8473 0.60781 0.0
H1369 H 0.72204 0.88622 0.67749 0.0
H1370 H 0.73336 0.8962 0.71582 0.0
H1371 H 0.79053 0.91369 0.68912 0.0
H1372 H 0.77964 0.90354 0.65066 0.0
H1373 H 0.7106 0.94314 0.54383 0.0
H1374 H 0.70776 0.91569 0.57311 0.0
H1375 H 0.77109 0.91891 0.58471 0.0
H1376 H 0.77406 0.9463 0.55567 0.0
H1377 H 0.75056 0.91847 0.6243 0.0
H1378 H 0.75124 0.87848 0.55479 0.0
H1379 H 0.7397 0.86864 0.5165 0.0
H1380 H 0.6819 0.85356 0.54313 0.0
H1381 H 0.69302 0.86359 0.58156 0.0
C1382 C 0.7525 0.82862 0.67899 0.0
C1383 C 0.73469 0.81794 0.68428 0.0
C1384 C 0.75284 0.84446 0.66237 0.0
C1385 C 0.73535 0.8502 0.65082 0.0
C1386 C 0.7176 0.8394 0.65584 0.0
C1387 C 0.71726 0.82348 0.67239 0.0
C1388 C 0.7356 0.86737 0.63345 0.0
C1389 C 0.72849 0.86296 0.61154 0.0
C1390 C 0.7435 0.88774 0.63812 0.0
C1391 C 0.75008 0.89393 0.66122 0.0
C1392 C 0.73707 0.89205 0.67982 0.0
C1393 C 0.74341 0.89776 0.70157 0.0
C1394 C 0.76267 0.90552 0.70491 0.0
C1395 C 0.77562 0.90765 0.68651 0.0
C1396 C 0.76937 0.90194 0.66472 0.0
C1397 C 0.72392 0.938 0.55261 0.0
C1398 C 0.74256 0.94691 0.54733 0.0
C1399 C 0.72228 0.92225 0.56929 0.0
C1400 C 0.73924 0.91512 0.58101 0.0
C1401 C 0.7578 0.92415 0.57591 0.0
C1402 C 0.75947 0.93978 0.55922 0.0
C1403 C 0.73777 0.89834 0.59868 0.0
C1404 C 0.74465 0.90283 0.62064 0.0
C1405 C 0.7296 0.8781 0.59407 0.0
C1406 C 0.7229 0.87201 0.571 0.0
C1407 C 0.73602 0.87324 0.55245 0.0
C1408 C 0.72956 0.86759 0.53073 0.0
C1409 C 0.71006 0.86054 0.52737 0.0
C1410 C 0.69699 0.85906 0.54575 0.0
C1411 C 0.70337 0.86471 0.5675 0.0
H1412 H 0.70509 0.85617 0.51055 0.0
H1413 H 0.76754 0.90994 0.72176 0.0
H1414 H 0.64963 0.27556 0.19546 0.0
H1415 H 0.62386 0.27833 0.16636 0.0
H1416 H 0.6651 0.3101 0.1219 0.0
H1417 H 0.69139 0.30629 0.15018 0.0
H1418 H 0.62367 0.32933 0.12768 0.0
H1419 H 0.65886 0.26459 0.10858 0.0
H1420 H 0.67299 0.22945 0.11732 0.0
H1421 H 0.61511 0.20686 0.13665 0.0
H1422 H 0.60069 0.242 0.12835 0.0
H1423 H 0.56662 0.32355 0.02503 0.0
H1424 H 0.59232 0.32469 0.0546 0.0
H1425 H 0.56352 0.27272 0.08926 0.0
H1426 H 0.53867 0.27084 0.0592 0.0
H1427 H 0.59986 0.26457 0.08846 0.0
H1428 H 0.56364 0.3272 0.10856 0.0
H1429 H 0.54803 0.36215 0.10265 0.0
H1430 H 0.60483 0.38872 0.08503 0.0
H1431 H 0.62074 0.35385 0.09056 0.0
C1432 C 0.65342 0.28287 0.17942 0.0
C1433 C 0.67277 0.29063 0.17532 0.0
C1434 C 0.63855 0.28464 0.16289 0.0
C1435 C 0.64259 0.2945 0.14206 0.0
C1436 C 0.66166 0.30262 0.13798 0.0
C1437 C 0.67666 0.3005 0.1543 0.0
C1438 C 0.62707 0.29559 0.12422 0.0
C1439 C 0.61855 0.31526 0.11885 0.0
C1440 C 0.62011 0.27714 0.11324 0.0
C1441 C 0.62874 0.25598 0.11808 0.0
C1442 C 0.64918 0.25219 0.1149 0.0
C1443 C 0.65724 0.23226 0.11973 0.0
C1444 C 0.64497 0.21594 0.1276 0.0
C1445 C 0.6246 0.21952 0.13059 0.0
C1446 C 0.61648 0.23943 0.12581 0.0
C1447 C 0.5657 0.31259 0.03915 0.0
C1448 C 0.55072 0.29707 0.03981 0.0
C1449 C 0.58035 0.31327 0.05611 0.0
C1450 C 0.57989 0.29886 0.07438 0.0
C1451 C 0.56441 0.28391 0.07535 0.0
C1452 C 0.55013 0.2829 0.05818 0.0
C1453 C 0.59598 0.2984 0.09187 0.0
C1454 C 0.60477 0.27877 0.09719 0.0
C1455 C 0.60286 0.31689 0.10311 0.0
C1456 C 0.59334 0.33786 0.09973 0.0
C1457 C 0.57277 0.34046 0.10325 0.0
C1458 C 0.56387 0.36026 0.1 0.0
C1459 C 0.57542 0.37763 0.09341 0.0
C1460 C 0.5959 0.37525 0.0901 0.0
C1461 C 0.60487 0.35547 0.09331 0.0
H1462 H 0.5685 0.39295 0.09091 0.0
H1463 H 0.65123 0.20052 0.13132 0.0
H1464 H 0.20968 0.20339 0.65943 0.0
H1465 H 0.20812 0.17447 0.63201 0.0
H1466 H 0.24947 0.13828 0.67224 0.0
H1467 H 0.25022 0.16644 0.70065 0.0
H1468 H 0.25729 0.14408 0.62092 0.0
H1469 H 0.2079 0.12173 0.67656 0.0
H1470 H 0.17785 0.12724 0.69984 0.0
H1471 H 0.14323 0.13784 0.63964 0.0
H1472 H 0.17318 0.13272 0.61601 0.0
H1473 H 0.25774 0.04547 0.56807 0.0
H1474 H 0.25565 0.07349 0.5964 0.0
H1475 H 0.19938 0.09365 0.56838 0.0
H1476 H 0.20104 0.06482 0.54045 0.0
H1477 H 0.19798 0.09783 0.6122 0.0
H1478 H 0.24396 0.11981 0.55593 0.0
H1479 H 0.27268 0.11707 0.53006 0.0
H1480 H 0.31217 0.11142 0.58704 0.0
H1481 H 0.28364 0.11379 0.61327 0.0
C1482 C 0.21819 0.18918 0.66282 0.0
C1483 C 0.23001 0.18739 0.68252 0.0
C1484 C 0.21739 0.17273 0.64694 0.0
C1485 C 0.22865 0.15428 0.65015 0.0
C1486 C 0.24072 0.15247 0.66946 0.0
C1487 C 0.24123 0.16872 0.6856 0.0
C1488 C 0.22793 0.13692 0.63325 0.0
C1489 C 0.24446 0.13376 0.61917 0.0
C1490 C 0.21082 0.12415 0.63035 0.0
C1491 C 0.19282 0.12709 0.64455 0.0
C1492 C 0.19392 0.12545 0.6683 0.0
C1493 C 0.1769 0.12845 0.68156 0.0
C1494 C 0.15865 0.13296 0.67123 0.0
C1495 C 0.15738 0.13439 0.64762 0.0
C1496 C 0.17437 0.13142 0.63429 0.0
C1497 C 0.24482 0.05574 0.56806 0.0
C1498 C 0.22963 0.05307 0.55191 0.0
C1499 C 0.2437 0.07187 0.58419 0.0
C1500 C 0.22764 0.08614 0.58418 0.0
C1501 C 0.212 0.08297 0.56866 0.0
C1502 C 0.21294 0.06649 0.55271 0.0
C1503 C 0.22759 0.10454 0.60003 0.0
C1504 C 0.21087 0.10807 0.61384 0.0
C1505 C 0.24437 0.11807 0.60227 0.0
C1506 C 0.26162 0.1168 0.58657 0.0
C1507 C 0.25875 0.11784 0.56295 0.0
C1508 C 0.275 0.11638 0.54822 0.0
C1509 C 0.29423 0.11404 0.5569 0.0
C1510 C 0.29725 0.11322 0.58034 0.0
C1511 C 0.28105 0.11464 0.59515 0.0
H1512 H 0.30679 0.1129 0.54546 0.0
H1513 H 0.14549 0.13527 0.68152 0.0
H1514 H 0.32902 0.69576 0.19321 0.0
H1515 H 0.35584 0.68991 0.16607 0.0
H1516 H 0.36253 0.75749 0.15776 0.0
H1517 H 0.33474 0.76345 0.18342 0.0
H1518 H 0.36534 0.74051 0.1189 0.0
H1519 H 0.39516 0.72487 0.19115 0.0
H1520 H 0.39843 0.7068 0.22808 0.0
H1521 H 0.4032 0.64672 0.19433 0.0
H1522 H 0.39971 0.66441 0.15719 0.0
H1523 H 0.46009 0.7472 0.07068 0.0
H1524 H 0.43344 0.74796 0.09866 0.0
H1525 H 0.42642 0.68025 0.09261 0.0
H1526 H 0.45356 0.67926 0.06468 0.0
H1527 H 0.42299 0.69441 0.13727 0.0
H1528 H 0.39599 0.71289 0.0641 0.0
H1529 H 0.39586 0.73332 0.02846 0.0
H1530 H 0.38764 0.79104 0.06589 0.0
H1531 H 0.38823 0.771 0.10182 0.0
C1532 C 0.33594 0.70942 0.18538 0.0
C1533 C 0.32962 0.73012 0.19071 0.0
C1534 C 0.35156 0.70603 0.17007 0.0
C1535 C 0.36154 0.72325 0.1601 0.0
C1536 C 0.35518 0.7439 0.16526 0.0
C1537 C 0.33938 0.74729 0.18024 0.0
C1538 C 0.37841 0.71994 0.14403 0.0
C1539 C 0.378 0.73058 0.1231 0.0
C1540 C 0.39482 0.7066 0.14912 0.0
C1541 C 0.39695 0.69594 0.17142 0.0
C1542 C 0.39675 0.70779 0.19162 0.0
C1543 C 0.39867 0.69762 0.21259 0.0
C1544 C 0.40096 0.67562 0.21356 0.0
C1545 C 0.40139 0.66375 0.19355 0.0
C1546 C 0.39946 0.67384 0.17254 0.0
C1547 C 0.45302 0.73239 0.07536 0.0
C1548 C 0.4588 0.71318 0.06521 0.0
C1549 C 0.43774 0.73288 0.09137 0.0
C1550 C 0.42765 0.71423 0.09739 0.0
C1551 C 0.43394 0.69485 0.08811 0.0
C1552 C 0.44941 0.69431 0.07213 0.0
C1553 C 0.40999 0.71533 0.11253 0.0
C1554 C 0.41022 0.70421 0.13314 0.0
C1555 C 0.39354 0.72851 0.10734 0.0
C1556 C 0.39229 0.74044 0.08567 0.0
C1557 C 0.39421 0.72995 0.06474 0.0
C1558 C 0.39408 0.74147 0.04448 0.0
C1559 C 0.39177 0.76348 0.04491 0.0
C1560 C 0.38945 0.77399 0.06559 0.0
C1561 C 0.38968 0.76256 0.08591 0.0
H1562 H 0.3918 0.77243 0.02925 0.0
H1563 H 0.40245 0.66778 0.2298 0.0
H1564 H 0.71894 0.15468 0.30955 0.0
H1565 H 0.71887 0.12557 0.33693 0.0
H1566 H 0.74726 0.1658 0.38635 0.0
H1567 H 0.74665 0.1953 0.35954 0.0
H1568 H 0.76545 0.12529 0.38084 0.0
H1569 H 0.70026 0.15567 0.39291 0.0
H1570 H 0.6671 0.16801 0.38073 0.0
H1571 H 0.6531 0.10561 0.35643 0.0
H1572 H 0.68631 0.09297 0.36818 0.0
H1573 H 0.76074 0.0592 0.47618 0.0
H1574 H 0.75723 0.08926 0.45037 0.0
H1575 H 0.71511 0.0536 0.41026 0.0
H1576 H 0.71754 0.02405 0.43726 0.0
H1577 H 0.70371 0.09166 0.40987 0.0
H1578 H 0.76747 0.06049 0.39576 0.0
H1579 H 0.8008 0.04679 0.40545 0.0
H1580 H 0.81801 0.10824 0.42985 0.0
H1581 H 0.7847 0.12225 0.42055 0.0
C1582 C 0.72488 0.15753 0.32634 0.0
C1583 C 0.7328 0.17748 0.33222 0.0
C1584 C 0.72493 0.14078 0.34194 0.0
C1585 C 0.73301 0.14354 0.36369 0.0
C1586 C 0.74102 0.16331 0.36961 0.0
C1587 C 0.74077 0.18014 0.35415 0.0
C1588 C 0.73344 0.12573 0.38017 0.0
C1589 C 0.75197 0.11807 0.38743 0.0
C1590 C 0.71585 0.11588 0.38812 0.0
C1591 C 0.69584 0.12343 0.38122 0.0
C1592 C 0.69017 0.14462 0.3848 0.0
C1593 C 0.67136 0.15167 0.37801 0.0
C1594 C 0.65802 0.13762 0.36776 0.0
C1595 C 0.66346 0.11648 0.36434 0.0
C1596 C 0.68226 0.10936 0.37109 0.0
C1597 C 0.75064 0.05788 0.46191 0.0
C1598 C 0.73955 0.0393 0.45851 0.0
C1599 C 0.74876 0.075 0.44703 0.0
C1600 C 0.73641 0.07356 0.4278 0.0
C1601 C 0.72486 0.05514 0.4248 0.0
C1602 C 0.72625 0.03824 0.44018 0.0
C1603 C 0.73581 0.09111 0.41077 0.0
C1604 C 0.71726 0.09875 0.40332 0.0
C1605 C 0.75342 0.10068 0.40224 0.0
C1606 C 0.77354 0.09237 0.40762 0.0
C1607 C 0.77834 0.07105 0.40329 0.0
C1608 C 0.79723 0.06323 0.4087 0.0
C1609 C 0.8115 0.07663 0.4183 0.0
C1610 C 0.80693 0.09788 0.42243 0.0
C1611 C 0.78806 0.10578 0.41706 0.0
H1612 H 0.82611 0.07054 0.42249 0.0
H1613 H 0.64346 0.1431 0.36251 0.0
H1614 H 0.3202 0.28744 0.85476 0.0
H1615 H 0.34964 0.29385 0.87809 0.0
H1616 H 0.38694 0.26748 0.82584 0.0
H1617 H 0.35783 0.26225 0.80161 0.0
H1618 H 0.38711 0.25202 0.87997 0.0
H1619 H 0.39558 0.30995 0.82448 0.0
H1620 H 0.38289 0.34133 0.80413 0.0
H1621 H 0.37128 0.37232 0.8676 0.0
H1622 H 0.38362 0.34095 0.88832 0.0
H1623 H 0.48258 0.26501 0.92344 0.0
H1624 H 0.45453 0.26388 0.89714 0.0
H1625 H 0.42995 0.31998 0.92831 0.0
H1626 H 0.45876 0.32178 0.9539 0.0
H1627 H 0.42166 0.32137 0.88587 0.0
H1628 H 0.41425 0.26825 0.94222 0.0
H1629 H 0.4238 0.23785 0.96617 0.0
H1630 H 0.42867 0.19847 0.90707 0.0
H1631 H 0.41963 0.22876 0.88268 0.0
C1632 C 0.33464 0.28339 0.84789 0.0
C1633 C 0.33647 0.27435 0.8261 0.0
C1634 C 0.35144 0.28692 0.8614 0.0
C1635 C 0.37039 0.2812 0.85361 0.0
C1636 C 0.37238 0.272 0.8321 0.0
C1637 C 0.35565 0.26884 0.81836 0.0
C1638 C 0.38807 0.28425 0.86823 0.0
C1639 C 0.3949 0.26705 0.88107 0.0
C1640 C 0.39752 0.30415 0.87038 0.0
C1641 C 0.39028 0.32302 0.85792 0.0
C1642 C 0.39011 0.32336 0.83409 0.0
C1643 C 0.38304 0.34117 0.82249 0.0
C1644 C 0.37622 0.35879 0.83456 0.0
C1645 C 0.37653 0.35865 0.85827 0.0
C1646 C 0.38357 0.34087 0.86994 0.0
C1647 C 0.47135 0.27731 0.9244 0.0
C1648 C 0.47274 0.29341 0.94076 0.0
C1649 C 0.45522 0.27656 0.9095 0.0
C1650 C 0.43972 0.29143 0.91117 0.0
C1651 C 0.4416 0.3082 0.92676 0.0
C1652 C 0.45807 0.30927 0.94135 0.0
C1653 C 0.4213 0.28887 0.8973 0.0
C1654 C 0.41408 0.30622 0.88479 0.0
C1655 C 0.41111 0.26918 0.89595 0.0
C1656 C 0.41643 0.25085 0.91059 0.0
C1657 C 0.4175 0.25315 0.9343 0.0
C1658 C 0.4228 0.23593 0.94797 0.0
C1659 C 0.42682 0.21625 0.93815 0.0
C1660 C 0.42556 0.21374 0.91465 0.0
C1661 C 0.42036 0.23093 0.90089 0.0
H1662 H 0.4309 0.20293 0.94877 0.0
H1663 H 0.37075 0.37256 0.82556 0.0
H1664 H 0.20093 0.82566 0.33959 0.0
H1665 H 0.20007 0.85707 0.36342 0.0
H1666 H 0.26421 0.86059 0.36144 0.0
H1667 H 0.26531 0.82804 0.3393 0.0
H1668 H 0.25363 0.8689 0.4014 0.0
H1669 H 0.2315 0.89463 0.32954 0.0
H1670 H 0.21102 0.89592 0.29484 0.0
H1671 H 0.15858 0.90623 0.335 0.0
H1672 H 0.17872 0.90474 0.36998 0.0
H1673 H 0.26323 0.97271 0.44239 0.0
H1674 H 0.26182 0.94345 0.41546 0.0
H1675 H 0.19964 0.93419 0.43074 0.0
H1676 H 0.20081 0.96391 0.45758 0.0
H1677 H 0.20865 0.92925 0.38436 0.0
H1678 H 0.23417 0.90385 0.45686 0.0
H1679 H 0.25748 0.90716 0.48906 0.0
H1680 H 0.30706 0.89955 0.44383 0.0
H1681 H 0.28407 0.89643 0.41135 0.0
C1682 C 0.21492 0.83283 0.34446 0.0
C1683 C 0.23321 0.82408 0.33741 0.0
C1684 C 0.21438 0.85113 0.35783 0.0
C1685 C 0.23205 0.86157 0.36396 0.0
C1686 C 0.25032 0.85296 0.3569 0.0
C1687 C 0.25091 0.83441 0.34392 0.0
C1688 C 0.23156 0.88111 0.37822 0.0
C1689 C 0.24393 0.88214 0.39742 0.0
C1690 C 0.21877 0.89844 0.37338 0.0
C1691 C 0.2066 0.89935 0.35239 0.0
C1692 C 0.21558 0.89701 0.33098 0.0
C1693 C 0.20403 0.89781 0.31126 0.0
C1694 C 0.1835 0.9011 0.31272 0.0
C1695 C 0.17448 0.90366 0.3339 0.0
C1696 C 0.18596 0.90286 0.35368 0.0
C1697 C 0.24916 0.96463 0.43991 0.0
C1698 C 0.23217 0.97049 0.45236 0.0
C1699 C 0.24841 0.94787 0.4245 0.0
C1700 C 0.23074 0.93636 0.42143 0.0
C1701 C 0.21346 0.9428 0.43295 0.0
C1702 C 0.21416 0.95975 0.4483 0.0
C1703 C 0.23072 0.91689 0.40725 0.0
C1704 C 0.21824 0.91589 0.38821 0.0
C1705 C 0.24373 0.89978 0.41191 0.0
C1706 C 0.25741 0.90007 0.43167 0.0
C1707 C 0.25004 0.90284 0.45381 0.0
C1708 C 0.26319 0.90473 0.47209 0.0
C1709 C 0.28372 0.90373 0.46844 0.0
C1710 C 0.29115 0.90041 0.4466 0.0
C1711 C 0.27807 0.89853 0.42826 0.0
H1712 H 0.29391 0.90557 0.48251 0.0
H1713 H 0.17459 0.90171 0.29744 0.0
H1714 H 0.68414 0.69732 0.86971 0.0
H1715 H 0.65584 0.69312 0.89525 0.0
H1716 H 0.61716 0.7214 0.84544 0.0
H1717 H 0.64504 0.72444 0.81901 0.0
H1718 H 0.61728 0.73852 0.89452 0.0
H1719 H 0.61052 0.67479 0.84892 0.0
H1720 H 0.62306 0.64163 0.83206 0.0
H1721 H 0.63584 0.61719 0.89848 0.0
H1722 H 0.62365 0.65037 0.91573 0.0
H1723 H 0.52456 0.72683 0.94452 0.0
H1724 H 0.55139 0.72498 0.91674 0.0
H1725 H 0.5807 0.67709 0.957 0.0
H1726 H 0.55318 0.67826 0.9845 0.0
H1727 H 0.5867 0.66912 0.91367 0.0
H1728 H 0.59427 0.72988 0.96033 0.0
H1729 H 0.58425 0.76275 0.97984 0.0
H1730 H 0.5737 0.79283 0.91559 0.0
H1731 H 0.58335 0.76001 0.89569 0.0
C1732 C 0.66959 0.70226 0.86384 0.0
C1733 C 0.66702 0.71113 0.84206 0.0
C1734 C 0.65346 0.69999 0.87862 0.0
C1735 C 0.63447 0.70687 0.87216 0.0
C1736 C 0.63177 0.71601 0.8507 0.0
C1737 C 0.64781 0.7179 0.83569 0.0
C1738 C 0.61751 0.70499 0.88808 0.0
C1739 C 0.61036 0.72342 0.89849 0.0
C1740 C 0.60917 0.68514 0.89393 0.0
C1741 C 0.61639 0.66516 0.88359 0.0
C1742 C 0.6162 0.66243 0.85992 0.0
C1743 C 0.6232 0.64361 0.85029 0.0
C1744 C 0.6303 0.62733 0.86419 0.0
C1745 C 0.63037 0.62982 0.88774 0.0
C1746 C 0.6234 0.64863 0.89745 0.0
C1747 C 0.53656 0.71564 0.94726 0.0
C1748 C 0.53691 0.70281 0.96673 0.0
C1749 C 0.55196 0.71469 0.93144 0.0
C1750 C 0.5684 0.70138 0.93509 0.0
C1751 C 0.56826 0.68762 0.9539 0.0
C1752 C 0.55254 0.68826 0.96957 0.0
C1753 C 0.58604 0.70279 0.91986 0.0
C1754 C 0.5935 0.68428 0.90972 0.0
C1755 C 0.59504 0.72256 0.91464 0.0
C1756 C 0.58937 0.74241 0.92652 0.0
C1757 C 0.58968 0.74346 0.95036 0.0
C1758 C 0.58408 0.76209 0.96149 0.0
C1759 C 0.5783 0.77986 0.94896 0.0
C1760 C 0.57816 0.77905 0.92527 0.0
C1761 C 0.58371 0.76044 0.91406 0.0
H1762 H 0.57397 0.79426 0.95761 0.0
H1763 H 0.63571 0.61277 0.8567 0.0
loop_
_geom_bond_atom_site_label_1
_geom_bond_atom_site_label_2
_geom_bond_distance
_geom_bond_site_symmetry_2
_ccdc_geom_bond_type
C0 C1 1.391 . S
C0 C4 1.391 . S
C0 H42 0.948 . S
C1 C0 1.391 . S
C1 C2 1.391 . S
C2 C1 1.391 . S
C2 H58 0.947 . S
C2 C59 1.392 . S
C3 C4 1.391 . S
C3 C7 1.397 . S
C3 C59 1.419 . S
C4 C0 1.391 . S
C4 C3 1.391 . S
C4 C5 1.399 . S
C5 C4 1.399 . S
C5 C8 1.396 . S
C5 C17 1.453 . S
C5 C18 1.684 . S
H6 C30 0.948 . S
C7 C3 1.397 . S
C7 C8 1.394 . S
C7 C26 1.723 . S
C8 C5 1.396 . S
C8 C7 1.394 . S
C8 C38 1.723 . S
H9 C32 0.947 . S
H10 C33 0.948 . S
H11 C39 0.982 . S
H12 C40 0.979 . S
H13 C40 0.980 . S
H14 C40 0.983 . S
H15 C39 0.979 . S
H16 C39 0.977 . S
C17 C5 1.453 . S
C17 H46 0.982 . S
C17 H47 0.979 . S
C17 H48 0.977 . S
C18 C5 1.684 . S
C18 H43 0.979 . S
C18 H44 0.980 . S
C18 H45 0.983 . S
C19 C20 1.391 . S
C19 C24 1.391 . S
C19 H49 0.948 . S
C20 C19 1.391 . S
C20 C21 1.391 . S
C21 C20 1.391 . S
C21 C22 1.392 . S
C21 H50 0.947 . S
C22 C21 1.392 . S
C22 C23 1.419 . S
C22 H51 0.948 . S
C23 C22 1.419 . S
C23 C24 1.391 . S
C23 C27 1.397 . S
C24 C19 1.391 . S
C24 C23 1.391 . S
C24 C25 1.399 . S
C25 C24 1.399 . S
C25 C26 1.396 . S
C25 C28 1.453 . S
C25 C29 1.684 . S
C26 C7 1.723 . S
C26 C25 1.396 . S
C26 C27 1.394 . S
C27 C23 1.397 . S
C27 C26 1.394 . S
C27 C37 1.723 . S
C28 C25 1.453 . S
C28 H52 0.982 . S
C28 H53 0.979 . S
C28 H54 0.977 . S
C29 C25 1.684 . S
C29 H55 0.979 . S
C29 H56 0.980 . S
C29 H57 0.983 . S
C30 H6 0.948 . S
C30 C31 1.391 . S
C30 C35 1.391 . S
C31 C30 1.391 . S
C31 C32 1.391 . S
C32 H9 0.947 . S
C32 C31 1.391 . S
C32 C33 1.392 . S
C33 H10 0.948 . S
C33 C32 1.392 . S
C33 C34 1.419 . S
C34 C33 1.419 . S
C34 C35 1.391 . S
C34 C38 1.397 . S
C35 C30 1.391 . S
C35 C34 1.391 . S
C35 C36 1.399 . S
C36 C35 1.399 . S
C36 C37 1.396 . S
C36 C39 1.453 . S
C36 C40 1.684 . S
C37 C27 1.723 . S
C37 C36 1.396 . S
C37 C38 1.394 . S
C38 C8 1.723 . S
C38 C34 1.397 . S
C38 C37 1.394 . S
C39 H11 0.982 . S
C39 H15 0.979 . S
C39 H16 0.977 . S
C39 C36 1.453 . S
C40 H12 0.979 . S
C40 H13 0.980 . S
C40 H14 0.983 . S
C40 C36 1.684 . S
H41 C59 0.948 . S
H42 C0 0.948 . S
H43 C18 0.979 . S
H44 C18 0.980 . S
H45 C18 0.983 . S
H46 C17 0.982 . S
H47 C17 0.979 . S
H48 C17 0.977 . S
H49 C19 0.948 . S
H50 C21 0.947 . S
H51 C22 0.948 . S
H52 C28 0.982 . S
H53 C28 0.979 . S
H54 C28 0.977 . S
H55 C29 0.979 . S
H56 C29 0.980 . S
H57 C29 0.983 . S
H58 C2 0.947 . S
C59 C2 1.392 . S
C59 C3 1.419 . S
C59 H41 0.948 . S
C60 C61 1.391 . S
C60 C64 1.391 . S
C60 H102 0.948 . S
C61 C60 1.391 . S
C61 C62 1.391 . S
C62 C61 1.391 . S
C62 H118 0.947 . S
C62 C119 1.392 . S
C63 C64 1.391 . S
C63 C67 1.397 . S
C63 C119 1.419 . S
C64 C60 1.391 . S
C64 C63 1.391 . S
C64 C65 1.399 . S
C65 C64 1.399 . S
C65 C68 1.396 . S
C65 C77 1.453 . S
C65 C78 1.684 . S
H66 C90 0.948 . S
C67 C63 1.397 . S
C67 C68 1.394 . S
C67 C86 1.723 . S
C68 C65 1.396 . S
C68 C67 1.394 . S
C68 C98 1.723 . S
H69 C92 0.947 . S
H70 C93 0.948 . S
H71 C99 0.982 . S
H72 C100 0.979 . S
H73 C100 0.980 . S
H74 C100 0.983 . S
H75 C99 0.979 . S
H76 C99 0.977 . S
C77 C65 1.453 . S
C77 H106 0.982 . S
C77 H107 0.979 . S
C77 H108 0.977 . S
C78 C65 1.684 . S
C78 H103 0.979 . S
C78 H104 0.980 . S
C78 H105 0.983 . S
C79 C80 1.391 . S
C79 C84 1.391 . S
C79 H109 0.948 . S
C80 C79 1.391 . S
C80 C81 1.391 . S
C81 C80 1.391 . S
C81 C82 1.392 . S
C81 H110 0.947 . S
C82 C81 1.392 . S
C82 C83 1.419 . S
C82 H111 0.948 . S
C83 C82 1.419 . S
C83 C84 1.391 . S
C83 C87 1.397 . S
C84 C79 1.391 . S
C84 C83 1.391 . S
C84 C85 1.399 . S
C85 C84 1.399 . S
C85 C86 1.396 . S
C85 C88 1.453 . S
C85 C89 1.684 . S
C86 C67 1.723 . S
C86 C85 1.396 . S
C86 C87 1.394 . S
C87 C83 1.397 . S
C87 C86 1.394 . S
C87 C97 1.723 . S
C88 C85 1.453 . S
C88 H112 0.982 . S
C88 H113 0.979 . S
C88 H114 0.977 . S
C89 C85 1.684 . S
C89 H115 0.979 . S
C89 H116 0.980 . S
C89 H117 0.983 . S
C90 H66 0.948 . S
C90 C91 1.391 . S
C90 C95 1.391 . S
C91 C90 1.391 . S
C91 C92 1.391 . S
C92 H69 0.947 . S
C92 C91 1.391 . S
C92 C93 1.392 . S
C93 H70 0.948 . S
C93 C92 1.392 . S
C93 C94 1.419 . S
C94 C93 1.419 . S
C94 C95 1.391 . S
C94 C98 1.397 . S
C95 C90 1.391 . S
C95 C94 1.391 . S
C95 C96 1.399 . S
C96 C95 1.399 . S
C96 C97 1.396 . S
C96 C99 1.453 . S
C96 C100 1.684 . S
C97 C87 1.723 . S
C97 C96 1.396 . S
C97 C98 1.394 . S
C98 C68 1.723 . S
C98 C94 1.397 . S
C98 C97 1.394 . S
C99 H71 0.982 . S
C99 H75 0.979 . S
C99 H76 0.977 . S
C99 C96 1.453 . S
C100 H72 0.979 . S
C100 H73 0.980 . S
C100 H74 0.983 . S
C100 C96 1.684 . S
H101 C119 0.948 . S
H102 C60 0.948 . S
H103 C78 0.979 . S
H104 C78 0.980 . S
H105 C78 0.983 . S
H106 C77 0.982 . S
H107 C77 0.979 . S
H108 C77 0.977 . S
H109 C79 0.948 . S
H110 C81 0.947 . S
H111 C82 0.948 . S
H112 C88 0.982 . S
H113 C88 0.979 . S
H114 C88 0.977 . S
H115 C89 0.979 . S
H116 C89 0.980 . S
H117 C89 0.983 . S
H118 C62 0.947 . S
C119 C62 1.392 . S
C119 C63 1.419 . S
C119 H101 0.948 . S
C120 C121 1.391 . S
C120 C124 1.391 . S
C120 H162 0.948 . S
C121 C120 1.391 . S
C121 C122 1.391 . S
C122 C121 1.391 . S
C122 H178 0.947 . S
C122 C179 1.392 . S
C123 C124 1.391 . S
C123 C127 1.397 . S
C123 C179 1.419 . S
C124 C120 1.391 . S
C124 C123 1.391 . S
C124 C125 1.399 . S
C125 C124 1.399 . S
C125 C128 1.396 . S
C125 C137 1.453 . S
C125 C138 1.684 . S
H126 C150 0.948 . S
C127 C123 1.397 . S
C127 C128 1.394 . S
C127 C146 1.723 . S
C128 C125 1.396 . S
C128 C127 1.394 . S
C128 C158 1.723 . S
H129 C152 0.947 . S
H130 C153 0.948 . S
H131 C159 0.982 . S
H132 C160 0.979 . S
H133 C160 0.980 . S
H134 C160 0.983 . S
H135 C159 0.979 . S
H136 C159 0.977 . S
C137 C125 1.453 . S
C137 H166 0.982 . S
C137 H167 0.979 . S
C137 H168 0.977 . S
C138 C125 1.684 . S
C138 H163 0.979 . S
C138 H164 0.980 . S
C138 H165 0.983 . S
C139 C140 1.391 . S
C139 C144 1.391 . S
C139 H169 0.948 . S
C140 C139 1.391 . S
C140 C141 1.391 . S
C141 C140 1.391 . S
C141 C142 1.392 . S
C141 H170 0.947 . S
C142 C141 1.392 . S
C142 C143 1.419 . S
C142 H171 0.948 . S
C143 C142 1.419 . S
C143 C144 1.391 . S
C143 C147 1.397 . S
C144 C139 1.391 . S
C144 C143 1.391 . S
C144 C145 1.399 . S
C145 C144 1.399 . S
C145 C146 1.396 . S
C145 C148 1.453 . S
C145 C149 1.684 . S
C146 C127 1.723 . S
C146 C145 1.396 . S
C146 C147 1.394 . S
C147 C143 1.397 . S
C147 C146 1.394 . S
C147 C157 1.723 . S
C148 C145 1.453 . S
C148 H172 0.982 . S
C148 H173 0.979 . S
C148 H174 0.977 . S
C149 C145 1.684 . S
C149 H175 0.979 . S
C149 H176 0.980 . S
C149 H177 0.983 . S
C150 H126 0.948 . S
C150 C151 1.391 . S
C150 C155 1.391 . S
C151 C150 1.391 . S
C151 C152 1.391 . S
C152 H129 0.947 . S
C152 C151 1.391 . S
C152 C153 1.392 . S
C153 H130 0.948 . S
C153 C152 1.392 . S
C153 C154 1.419 . S
C154 C153 1.419 . S
C154 C155 1.391 . S
C154 C158 1.397 . S
C155 C150 1.391 . S
C155 C154 1.391 . S
C155 C156 1.399 . S
C156 C155 1.399 . S
C156 C157 1.396 . S
C156 C159 1.453 . S
C156 C160 1.684 . S
C157 C147 1.723 . S
C157 C156 1.396 . S
C157 C158 1.394 . S
C158 C128 1.723 . S
C158 C154 1.397 . S
C158 C157 1.394 . S
C159 H131 0.982 . S
C159 H135 0.979 . S
C159 H136 0.977 . S
C159 C156 1.453 . S
C160 H132 0.979 . S
C160 H133 0.980 . S
C160 H134 0.983 . S
C160 C156 1.684 . S
H161 C179 0.948 . S
H162 C120 0.948 . S
H163 C138 0.979 . S
H164 C138 0.980 . S
H165 C138 0.983 . S
H166 C137 0.982 . S
H167 C137 0.979 . S
H168 C137 0.977 . S
H169 C139 0.948 . S
H170 C141 0.947 . S
H171 C142 0.948 . S
H172 C148 0.982 . S
H173 C148 0.979 . S
H174 C148 0.977 . S
H175 C149 0.979 . S
H176 C149 0.980 . S
H177 C149 0.983 . S
H178 C122 0.947 . S
C179 C122 1.392 . S
C179 C123 1.419 . S
C179 H161 0.948 . S
C180 C181 1.391 . S
C180 C184 1.391 . S
C180 H222 0.948 . S
C181 C180 1.391 . S
C181 C182 1.391 . S
C182 C181 1.391 . S
C182 H238 0.947 . S
C182 C239 1.392 . S
C183 C184 1.391 . S
C183 C187 1.397 . S
C183 C239 1.419 . S
C184 C180 1.391 . S
C184 C183 1.391 . S
C184 C185 1.399 . S
C185 C184 1.399 . S
C185 C188 1.396 . S
C185 C197 1.453 . S
C185 C198 1.684 . S
H186 C210 0.948 . S
C187 C183 1.397 . S
C187 C188 1.394 . S
C187 C206 1.723 . S
C188 C185 1.396 . S
C188 C187 1.394 . S
C188 C218 1.723 . S
H189 C212 0.947 . S
H190 C213 0.948 . S
H191 C219 0.982 . S
H192 C220 0.979 . S
H193 C220 0.980 . S
H194 C220 0.983 . S
H195 C219 0.979 . S
H196 C219 0.977 . S
C197 C185 1.453 . S
C197 H226 0.982 . S
C197 H227 0.979 . S
C197 H228 0.977 . S
C198 C185 1.684 . S
C198 H223 0.979 . S
C198 H224 0.980 . S
C198 H225 0.983 . S
C199 C200 1.391 . S
C199 C204 1.391 . S
C199 H229 0.948 . S
C200 C199 1.391 . S
C200 C201 1.391 . S
C201 C200 1.391 . S
C201 C202 1.392 . S
C201 H230 0.947 . S
C202 C201 1.392 . S
C202 C203 1.419 . S
C202 H231 0.948 . S
C203 C202 1.419 . S
C203 C204 1.391 . S
C203 C207 1.397 . S
C204 C199 1.391 . S
C204 C203 1.391 . S
C204 C205 1.399 . S
C205 C204 1.399 . S
C205 C206 1.396 . S
C205 C208 1.453 . S
C205 C209 1.684 . S
C206 C187 1.723 . S
C206 C205 1.396 . S
C206 C207 1.394 . S
C207 C203 1.397 . S
C207 C206 1.394 . S
C207 C217 1.723 . S
C208 C205 1.453 . S
C208 H232 0.982 . S
C208 H233 0.979 . S
C208 H234 0.977 . S
C209 C205 1.684 . S
C209 H235 0.979 . S
C209 H236 0.980 . S
C209 H237 0.983 . S
C210 H186 0.948 . S
C210 C211 1.391 . S
C210 C215 1.391 . S
C211 C210 1.391 . S
C211 C212 1.391 . S
C212 H189 0.947 . S
C212 C211 1.391 . S
C212 C213 1.392 . S
C213 H190 0.948 . S
C213 C212 1.392 . S
C213 C214 1.419 . S
C214 C213 1.419 . S
C214 C215 1.391 . S
C214 C218 1.397 . S
C215 C210 1.391 . S
C215 C214 1.391 . S
C215 C216 1.399 . S
C216 C215 1.399 . S
C216 C217 1.396 . S
C216 C219 1.453 . S
C216 C220 1.684 . S
C217 C207 1.723 . S
C217 C216 1.396 . S
C217 C218 1.394 . S
C218 C188 1.723 . S
C218 C214 1.397 . S
C218 C217 1.394 . S
C219 H191 0.982 . S
C219 H195 0.979 . S
C219 H196 0.977 . S
C219 C216 1.453 . S
C220 H192 0.979 . S
C220 H193 0.980 . S
C220 H194 0.983 . S
C220 C216 1.684 . S
H221 C239 0.948 . S
H222 C180 0.948 . S
H223 C198 0.979 . S
H224 C198 0.980 . S
H225 C198 0.983 . S
H226 C197 0.982 . S
H227 C197 0.979 . S
H228 C197 0.977 . S
H229 C199 0.948 . S
H230 C201 0.947 . S
H231 C202 0.948 . S
H232 C208 0.982 . S
H233 C208 0.979 . S
H234 C208 0.977 . S
H235 C209 0.979 . S
H236 C209 0.980 . S
H237 C209 0.983 . S
H238 C182 0.947 . S
C239 C182 1.392 . S
C239 C183 1.419 . S
C239 H221 0.948 . S
C240 C241 1.391 . S
C240 C244 1.391 . S
C240 H282 0.948 . S
C241 C240 1.391 . S
C241 C242 1.391 . S
C242 C241 1.391 . S
C242 H298 0.947 . S
C242 C299 1.392 . S
C243 C244 1.391 . S
C243 C247 1.397 . S
C243 C299 1.419 . S
C244 C240 1.391 . S
C244 C243 1.391 . S
C244 C245 1.399 . S
C245 C244 1.399 . S
C245 C248 1.396 . S
C245 C257 1.453 . S
C245 C258 1.684 . S
H246 C270 0.948 . S
C247 C243 1.397 . S
C247 C248 1.394 . S
C247 C266 1.723 . S
C248 C245 1.396 . S
C248 C247 1.394 . S
C248 C278 1.723 . S
H249 C272 0.947 . S
H250 C273 0.948 . S
H251 C279 0.982 . S
H252 C280 0.979 . S
H253 C280 0.980 . S
H254 C280 0.983 . S
H255 C279 0.979 . S
H256 C279 0.977 . S
C257 C245 1.453 . S
C257 H286 0.982 . S
C257 H287 0.979 . S
C257 H288 0.977 . S
C258 C245 1.684 . S
C258 H283 0.979 . S
C258 H284 0.980 . S
C258 H285 0.983 . S
C259 C260 1.391 . S
C259 C264 1.391 . S
C259 H289 0.948 . S
C260 C259 1.391 . S
C260 C261 1.391 . S
C261 C260 1.391 . S
C261 C262 1.392 . S
C261 H290 0.947 . S
C262 C261 1.392 . S
C262 C263 1.419 . S
C262 H291 0.948 . S
C263 C262 1.419 . S
C263 C264 1.391 . S
C263 C267 1.397 . S
C264 C259 1.391 . S
C264 C263 1.391 . S
C264 C265 1.399 . S
C265 C264 1.399 . S
C265 C266 1.396 . S
C265 C268 1.453 . S
C265 C269 1.684 . S
C266 C247 1.723 . S
C266 C265 1.396 . S
C266 C267 1.394 . S
C267 C263 1.397 . S
C267 C266 1.394 . S
C267 C277 1.723 . S
C268 C265 1.453 . S
C268 H292 0.982 . S
C268 H293 0.979 . S
C268 H294 0.977 . S
C269 C265 1.684 . S
C269 H295 0.979 . S
C269 H296 0.980 . S
C269 H297 0.983 . S
C270 H246 0.948 . S
C270 C271 1.391 . S
C270 C275 1.391 . S
C271 C270 1.391 . S
C271 C272 1.391 . S
C272 H249 0.947 . S
C272 C271 1.391 . S
C272 C273 1.392 . S
C273 H250 0.948 . S
C273 C272 1.392 . S
C273 C274 1.419 . S
C274 C273 1.419 . S
C274 C275 1.391 . S
C274 C278 1.397 . S
C275 C270 1.391 . S
C275 C274 1.391 . S
C275 C276 1.399 . S
C276 C275 1.399 . S
C276 C277 1.396 . S
C276 C279 1.453 . S
C276 C280 1.684 . S
C277 C267 1.723 . S
C277 C276 1.396 . S
C277 C278 1.394 . S
C278 C248 1.723 . S
C278 C274 1.397 . S
C278 C277 1.394 . S
C279 H251 0.982 . S
C279 H255 0.979 . S
C279 H256 0.977 . S
C279 C276 1.453 . S
C280 H252 0.979 . S
C280 H253 0.980 . S
C280 H254 0.983 . S
C280 C276 1.684 . S
H281 C299 0.948 . S
H282 C240 0.948 . S
H283 C258 0.979 . S
H284 C258 0.980 . S
H285 C258 0.983 . S
H286 C257 0.982 . S
H287 C257 0.979 . S
H288 C257 0.977 . S
H289 C259 0.948 . S
H290 C261 0.947 . S
H291 C262 0.948 . S
H292 C268 0.982 . S
H293 C268 0.979 . S
H294 C268 0.977 . S
H295 C269 0.979 . S
H296 C269 0.980 . S
H297 C269 0.983 . S
H298 C242 0.947 . S
C299 C242 1.392 . S
C299 C243 1.419 . S
C299 H281 0.948 . S
C300 C301 1.391 . S
C300 C304 1.391 . S
C300 H342 0.948 . S
C301 C300 1.391 . S
C301 C302 1.391 . S
C302 C301 1.391 . S
C302 H358 0.947 . S
C302 C359 1.392 . S
C303 C304 1.391 . S
C303 C307 1.397 . S
C303 C359 1.419 . S
C304 C300 1.391 . S
C304 C303 1.391 . S
C304 C305 1.399 . S
C305 C304 1.399 . S
C305 C308 1.396 . S
C305 C317 1.453 . S
C305 C318 1.684 . S
H306 C330 0.948 . S
C307 C303 1.397 . S
C307 C308 1.394 . S
C307 C326 1.723 . S
C308 C305 1.396 . S
C308 C307 1.394 . S
C308 C338 1.723 . S
H309 C332 0.947 . S
H310 C333 0.948 . S
H311 C339 0.982 . S
H312 C340 0.979 . S
H313 C340 0.980 . S
H314 C340 0.983 . S
H315 C339 0.979 . S
H316 C339 0.977 . S
C317 C305 1.453 . S
C317 H346 0.982 . S
C317 H347 0.979 . S
C317 H348 0.977 . S
C318 C305 1.684 . S
C318 H343 0.979 . S
C318 H344 0.980 . S
C318 H345 0.983 . S
C319 C320 1.391 . S
C319 C324 1.391 . S
C319 H349 0.948 . S
C320 C319 1.391 . S
C320 C321 1.391 . S
C321 C320 1.391 . S
C321 C322 1.392 . S
C321 H350 0.947 . S
C322 C321 1.392 . S
C322 C323 1.419 . S
C322 H351 0.948 . S
C323 C322 1.419 . S
C323 C324 1.391 . S
C323 C327 1.397 . S
C324 C319 1.391 . S
C324 C323 1.391 . S
C324 C325 1.399 . S
C325 C324 1.399 . S
C325 C326 1.396 . S
C325 C328 1.453 . S
C325 C329 1.684 . S
C326 C307 1.723 . S
C326 C325 1.396 . S
C326 C327 1.394 . S
C327 C323 1.397 . S
C327 C326 1.394 . S
C327 C337 1.723 . S
C328 C325 1.453 . S
C328 H352 0.982 . S
C328 H353 0.979 . S
C328 H354 0.977 . S
C329 C325 1.684 . S
C329 H355 0.979 . S
C329 H356 0.980 . S
C329 H357 0.983 . S
C330 H306 0.948 . S
C330 C331 1.391 . S
C330 C335 1.391 . S
C331 C330 1.391 . S
C331 C332 1.391 . S
C332 H309 0.947 . S
C332 C331 1.391 . S
C332 C333 1.392 . S
C333 H310 0.948 . S
C333 C332 1.392 . S
C333 C334 1.419 . S
C334 C333 1.419 . S
C334 C335 1.391 . S
C334 C338 1.397 . S
C335 C330 1.391 . S
C335 C334 1.391 . S
C335 C336 1.399 . S
C336 C335 1.399 . S
C336 C337 1.396 . S
C336 C339 1.453 . S
C336 C340 1.684 . S
C337 C327 1.723 . S
C337 C336 1.396 . S
C337 C338 1.394 . S
C338 C308 1.723 . S
C338 C334 1.397 . S
C338 C337 1.394 . S
C339 H311 0.982 . S
C339 H315 0.979 . S
C339 H316 0.977 . S
C339 C336 1.453 . S
C340 H312 0.979 . S
C340 H313 0.980 . S
C340 H314 0.983 . S
C340 C336 1.684 . S
H341 C359 0.948 . S
H342 C300 0.948 . S
H343 C318 0.979 . S
H344 C318 0.980 . S
H345 C318 0.983 . S
H346 C317 0.982 . S
H347 C317 0.979 . S
H348 C317 0.977 . S
H349 C319 0.948 . S
H350 C321 0.947 . S
H351 C322 0.948 . S
H352 C328 0.982 . S
H353 C328 0.979 . S
H354 C328 0.977 . S
H355 C329 0.979 . S
H356 C329 0.980 . S
H357 C329 0.983 . S
H358 C302 0.947 . S
C359 C302 1.392 . S
C359 C303 1.419 . S
C359 H341 0.948 . S
C360 C361 1.391 . S
C360 C364 1.391 . S
C360 H402 0.948 . S
C361 C360 1.391 . S
C361 C362 1.391 . S
C362 C361 1.391 . S
C362 H418 0.947 . S
C362 C419 1.392 . S
C363 C364 1.391 . S
C363 C367 1.397 . S
C363 C419 1.419 . S
C364 C360 1.391 . S
C364 C363 1.391 . S
C364 C365 1.399 . S
C365 C364 1.399 . S
C365 C368 1.396 . S
C365 C377 1.453 . S
C365 C378 1.684 . S
H366 C390 0.948 . S
C367 C363 1.397 . S
C367 C368 1.394 . S
C367 C386 1.723 . S
C368 C365 1.396 . S
C368 C367 1.394 . S
C368 C398 1.723 . S
H369 C392 0.947 . S
H370 C393 0.948 . S
H371 C399 0.982 . S
H372 C400 0.979 . S
H373 C400 0.980 . S
H374 C400 0.983 . S
H375 C399 0.979 . S
H376 C399 0.977 . S
C377 C365 1.453 . S
C377 H406 0.982 . S
C377 H407 0.979 . S
C377 H408 0.977 . S
C378 C365 1.684 . S
C378 H403 0.979 . S
C378 H404 0.980 . S
C378 H405 0.983 . S
C379 C380 1.391 . S
C379 C384 1.391 . S
C379 H409 0.948 . S
C380 C379 1.391 . S
C380 C381 1.391 . S
C381 C380 1.391 . S
C381 C382 1.392 . S
C381 H410 0.947 . S
C382 C381 1.392 . S
C382 C383 1.419 . S
C382 H411 0.948 . S
C383 C382 1.419 . S
C383 C384 1.391 . S
C383 C387 1.397 . S
C384 C379 1.391 . S
C384 C383 1.391 . S
C384 C385 1.399 . S
C385 C384 1.399 . S
C385 C386 1.396 . S
C385 C388 1.453 . S
C385 C389 1.684 . S
C386 C367 1.723 . S
C386 C385 1.396 . S
C386 C387 1.394 . S
C387 C383 1.397 . S
C387 C386 1.394 . S
C387 C397 1.723 . S
C388 C385 1.453 . S
C388 H412 0.982 . S
C388 H413 0.979 . S
C388 H414 0.977 . S
C389 C385 1.684 . S
C389 H415 0.979 . S
C389 H416 0.980 . S
C389 H417 0.983 . S
C390 H366 0.948 . S
C390 C391 1.391 . S
C390 C395 1.391 . S
C391 C390 1.391 . S
C391 C392 1.391 . S
C392 H369 0.947 . S
C392 C391 1.391 . S
C392 C393 1.392 . S
C393 H370 0.948 . S
C393 C392 1.392 . S
C393 C394 1.419 . S
C394 C393 1.419 . S
C394 C395 1.391 . S
C394 C398 1.397 . S
C395 C390 1.391 . S
C395 C394 1.391 . S
C395 C396 1.399 . S
C396 C395 1.399 . S
C396 C397 1.396 . S
C396 C399 1.453 . S
C396 C400 1.684 . S
C397 C387 1.723 . S
C397 C396 1.396 . S
C397 C398 1.394 . S
C398 C368 1.723 . S
C398 C394 1.397 . S
C398 C397 1.394 . S
C399 H371 0.982 . S
C399 H375 0.979 . S
C399 H376 0.977 . S
C399 C396 1.453 . S
C400 H372 0.979 . S
C400 H373 0.980 . S
C400 H374 0.983 . S
C400 C396 1.684 . S
H401 C419 0.948 . S
H402 C360 0.948 . S
H403 C378 0.979 . S
H404 C378 0.980 . S
H405 C378 0.983 . S
H406 C377 0.982 . S
H407 C377 0.979 . S
H408 C377 0.977 . S
H409 C379 0.948 . S
H410 C381 0.947 . S
H411 C382 0.948 . S
H412 C388 0.982 . S
H413 C388 0.979 . S
H414 C388 0.977 . S
H415 C389 0.979 . S
H416 C389 0.980 . S
H417 C389 0.983 . S
H418 C362 0.947 . S
C419 C362 1.392 . S
C419 C363 1.419 . S
C419 H401 0.948 . S
C420 C421 1.391 . S
C420 C424 1.391 . S
C420 H462 0.948 . S
C421 C420 1.391 . S
C421 C422 1.391 . S
C422 C421 1.391 . S
C422 H478 0.947 . S
C422 C479 1.392 . S
C423 C424 1.391 . S
C423 C427 1.397 . S
C423 C479 1.419 . S
C424 C420 1.391 . S
C424 C423 1.391 . S
C424 C425 1.399 . S
C425 C424 1.399 . S
C425 C428 1.396 . S
C425 C437 1.453 . S
C425 C438 1.684 . S
H426 C450 0.948 . S
C427 C423 1.397 . S
C427 C428 1.394 . S
C427 C446 1.723 . S
C428 C425 1.396 . S
C428 C427 1.394 . S
C428 C458 1.723 . S
H429 C452 0.947 . S
H430 C453 0.948 . S
H431 C459 0.982 . S
H432 C460 0.979 . S
H433 C460 0.980 . S
H434 C460 0.983 . S
H435 C459 0.979 . S
H436 C459 0.977 . S
C437 C425 1.453 . S
C437 H466 0.982 . S
C437 H467 0.979 . S
C437 H468 0.977 . S
C438 C425 1.684 . S
C438 H463 0.979 . S
C438 H464 0.980 . S
C438 H465 0.983 . S
C439 C440 1.391 . S
C439 C444 1.391 . S
C439 H469 0.948 . S
C440 C439 1.391 . S
C440 C441 1.391 . S
C441 C440 1.391 . S
C441 C442 1.392 . S
C441 H470 0.947 . S
C442 C441 1.392 . S
C442 C443 1.419 . S
C442 H471 0.948 . S
C443 C442 1.419 . S
C443 C444 1.391 . S
C443 C447 1.397 . S
C444 C439 1.391 . S
C444 C443 1.391 . S
C444 C445 1.399 . S
C445 C444 1.399 . S
C445 C446 1.396 . S
C445 C448 1.453 . S
C445 C449 1.684 . S
C446 C427 1.723 . S
C446 C445 1.396 . S
C446 C447 1.394 . S
C447 C443 1.397 . S
C447 C446 1.394 . S
C447 C457 1.723 . S
C448 C445 1.453 . S
C448 H472 0.982 . S
C448 H473 0.979 . S
C448 H474 0.977 . S
C449 C445 1.684 . S
C449 H475 0.979 . S
C449 H476 0.980 . S
C449 H477 0.983 . S
C450 H426 0.948 . S
C450 C451 1.391 . S
C450 C455 1.391 . S
C451 C450 1.391 . S
C451 C452 1.391 . S
C452 H429 0.947 . S
C452 C451 1.391 . S
C452 C453 1.392 . S
C453 H430 0.948 . S
C453 C452 1.392 . S
C453 C454 1.419 . S
C454 C453 1.419 . S
C454 C455 1.391 . S
C454 C458 1.397 . S
C455 C450 1.391 . S
C455 C454 1.391 . S
C455 C456 1.399 . S
C456 C455 1.399 . S
C456 C457 1.396 . S
C456 C459 1.453 . S
C456 C460 1.684 . S
C457 C447 1.723 . S
C457 C456 1.396 . S
C457 C458 1.394 . S
C458 C428 1.723 . S
C458 C454 1.397 . S
C458 C457 1.394 . S
C459 H431 0.982 . S
C459 H435 0.979 . S
C459 H436 0.977 . S
C459 C456 1.453 . S
C460 H432 0.979 . S
C460 H433 0.980 . S
C460 H434 0.983 . S
C460 C456 1.684 . S
H461 C479 0.948 . S
H462 C420 0.948 . S
H463 C438 0.979 . S
H464 C438 0.980 . S
H465 C438 0.983 . S
H466 C437 0.982 . S
H467 C437 0.979 . S
H468 C437 0.977 . S
H469 C439 0.948 . S
H470 C441 0.947 . S
H471 C442 0.948 . S
H472 C448 0.982 . S
H473 C448 0.979 . S
H474 C448 0.977 . S
H475 C449 0.979 . S
H476 C449 0.980 . S
H477 C449 0.983 . S
H478 C422 0.947 . S
C479 C422 1.392 . S
C479 C423 1.419 . S
C479 H461 0.948 . S
C480 O482 1.247 . S
C480 O484 1.258 . S
C481 O488 1.247 . S
C481 O489 1.258 . S
O482 C480 1.247 . S
O482 Zn483 2.026 . S
Zn483 O482 2.026 . S
Zn483 O487 2.037 1_655 S
Zn483 O489 2.037 1_655 S
Zn483 O490 2.026 . S
O484 C480 1.258 . S
O484 Zn485 2.028 1_655 S
Zn485 O484 2.028 1_455 S
Zn485 O486 2.035 . S
Zn485 O488 2.035 . S
Zn485 O491 2.028 1_455 S
O486 Zn485 2.035 . S
O486 C492 1.247 . S
O487 Zn483 2.037 1_455 S
O487 C492 1.258 . S
O488 C481 1.247 . S
O488 Zn485 2.035 . S
O489 C481 1.258 . S
O489 Zn483 2.037 1_455 S
O490 Zn483 2.026 . S
O490 C493 1.247 . S
O491 Zn485 2.028 1_655 S
O491 C493 1.258 . S
C492 O486 1.247 . S
C492 O487 1.258 . S
C493 O490 1.247 . S
C493 O491 1.258 . S
C494 O496 1.247 . S
C494 O498 1.258 . S
C495 O502 1.247 . S
C495 O503 1.258 . S
O496 C494 1.247 . S
O496 Zn497 2.026 . S
Zn497 O496 2.026 . S
Zn497 O501 2.037 1_655 S
Zn497 O503 2.037 1_655 S
Zn497 O504 2.026 . S
O498 C494 1.258 . S
O498 Zn499 2.028 1_655 S
Zn499 O498 2.028 1_455 S
Zn499 O500 2.035 . S
Zn499 O502 2.035 . S
Zn499 O505 2.028 1_455 S
O500 Zn499 2.035 . S
O500 C506 1.247 . S
O501 Zn497 2.037 1_455 S
O501 C506 1.258 . S
O502 C495 1.247 . S
O502 Zn499 2.035 . S
O503 C495 1.258 . S
O503 Zn497 2.037 1_455 S
O504 Zn497 2.026 . S
O504 C507 1.247 . S
O505 Zn499 2.028 1_655 S
O505 C507 1.258 . S
C506 O500 1.247 . S
C506 O501 1.258 . S
C507 O504 1.247 . S
C507 O505 1.258 . S
C508 O510 1.247 . S
C508 O512 1.258 . S
C509 O516 1.247 . S
C509 O517 1.258 . S
O510 C508 1.247 . S
O510 Zn511 2.026 . S
Zn511 O510 2.026 . S
Zn511 O515 2.037 1_565 S
Zn511 O517 2.037 1_565 S
Zn511 O518 2.026 . S
O512 C508 1.258 . S
O512 Zn513 2.028 1_565 S
Zn513 O512 2.028 1_545 S
Zn513 O514 2.035 . S
Zn513 O516 2.035 . S
Zn513 O519 2.028 1_545 S
O514 Zn513 2.035 . S
O514 C520 1.247 . S
O515 Zn511 2.037 1_545 S
O515 C520 1.258 . S
O516 C509 1.247 . S
O516 Zn513 2.035 . S
O517 C509 1.258 . S
O517 Zn511 2.037 1_545 S
O518 Zn511 2.026 . S
O518 C521 1.247 . S
O519 Zn513 2.028 1_565 S
O519 C521 1.258 . S
C520 O514 1.247 . S
C520 O515 1.258 . S
C521 O518 1.247 . S
C521 O519 1.258 . S
C522 O524 1.247 . S
C522 O526 1.258 . S
C523 O530 1.247 . S
C523 O531 1.258 . S
O524 C522 1.247 . S
O524 Zn525 2.028 . S
Zn525 O524 2.028 . S
Zn525 O529 2.035 . S
Zn525 O531 2.035 1_554 S
Zn525 O532 2.028 1_554 S
O526 C522 1.258 . S
O526 Zn527 2.035 . S
Zn527 O526 2.035 . S
Zn527 O528 2.028 . S
Zn527 O530 2.028 1_554 S
Zn527 O533 2.035 1_554 S
O528 Zn527 2.028 . S
O528 C534 1.247 . S
O529 Zn525 2.035 . S
O529 C534 1.258 . S
O530 C523 1.247 . S
O530 Zn527 2.028 1_556 S
O531 C523 1.258 . S
O531 Zn525 2.035 1_556 S
O532 Zn525 2.028 1_556 S
O532 C535 1.247 . S
O533 Zn527 2.035 1_556 S
O533 C535 1.258 . S
C534 O528 1.247 . S
C534 O529 1.258 . S
C535 O532 1.247 . S
C535 O533 1.258 . S
C536 O538 1.247 . S
C536 O540 1.258 . S
C537 O544 1.247 . S
C537 O545 1.258 . S
O538 C536 1.247 . S
O538 Zn539 2.026 . S
Zn539 O538 2.026 . S
Zn539 O543 2.037 1_565 S
Zn539 O545 2.037 1_565 S
Zn539 O546 2.026 . S
O540 C536 1.258 . S
O540 Zn541 2.028 1_565 S
Zn541 O540 2.028 1_545 S
Zn541 O542 2.035 . S
Zn541 O544 2.035 . S
Zn541 O547 2.028 1_545 S
O542 Zn541 2.035 . S
O542 C548 1.247 . S
O543 Zn539 2.037 1_545 S
O543 C548 1.258 . S
O544 C537 1.247 . S
O544 Zn541 2.035 . S
O545 C537 1.258 . S
O545 Zn539 2.037 1_545 S
O546 Zn539 2.026 . S
O546 C549 1.247 . S
O547 Zn541 2.028 1_565 S
O547 C549 1.258 . S
C548 O542 1.247 . S
C548 O543 1.258 . S
C549 O546 1.247 . S
C549 O547 1.258 . S
C550 O552 1.247 . S
C550 O554 1.258 . S
C551 O558 1.247 . S
C551 O559 1.258 . S
O552 C550 1.247 . S
O552 Zn553 2.028 . S
Zn553 O552 2.028 . S
Zn553 O557 2.035 . S
Zn553 O559 2.035 1_554 S
Zn553 O560 2.028 1_554 S
O554 C550 1.258 . S
O554 Zn555 2.035 . S
Zn555 O554 2.035 . S
Zn555 O556 2.028 . S
Zn555 O558 2.028 1_554 S
Zn555 O561 2.035 1_554 S
O556 Zn555 2.028 . S
O556 C562 1.247 . S
O557 Zn553 2.035 . S
O557 C562 1.258 . S
O558 C551 1.247 . S
O558 Zn555 2.028 1_556 S
O559 C551 1.258 . S
O559 Zn553 2.035 1_556 S
O560 Zn553 2.028 1_556 S
O560 C563 1.247 . S
O561 Zn555 2.035 1_556 S
O561 C563 1.258 . S
C562 O556 1.247 . S
C562 O557 1.258 . S
C563 O560 1.247 . S
C563 O561 1.258 . S
H564 C582 0.951 . S
H565 C584 0.951 . S
H566 C586 0.950 . S
H567 C587 0.950 . S
H568 C589 0.950 . S
H569 C592 0.950 . S
H570 C593 0.950 . S
H571 C595 0.950 . S
H572 C596 0.950 . S
H573 C597 0.951 . S
H574 C599 0.951 . S
H575 C601 0.950 . S
H576 C602 0.950 . S
H577 C604 0.950 . S
H578 C607 0.950 . S
H579 C608 0.950 . S
H580 C610 0.950 . S
H581 C611 0.950 . S
C582 H564 0.951 . S
C582 C583 1.366 . S
C582 C584 1.388 . S
C583 C582 1.366 . S
C583 C587 1.385 . S
C584 H565 0.951 . S
C584 C582 1.388 . S
C584 C585 1.366 . S
C585 C584 1.366 . S
C585 C586 1.414 . S
C585 C588 1.499 . S
C586 H566 0.950 . S
C586 C585 1.414 . S
C586 C587 1.374 . S
C587 H567 0.950 . S
C587 C583 1.385 . S
C587 C586 1.374 . S
C588 C585 1.499 . S
C588 C589 1.373 . S
C588 C590 1.389 . S
C589 H568 0.950 . S
C589 C588 1.373 . S
C589 C605 1.377 . S
C590 C588 1.389 . S
C590 C591 1.524 . S
C590 C604 1.377 . S
C591 C590 1.524 . S
C591 C592 1.397 . S
C591 C596 1.363 . S
C592 H569 0.950 . S
C592 C591 1.397 . S
C592 C593 1.334 . S
C593 H570 0.950 . S
C593 C592 1.334 . S
C593 C594 1.287 . S
C594 C593 1.287 . S
C594 C595 1.524 . S
C594 H613 0.913 . S
C595 H571 0.950 . S
C595 C594 1.524 . S
C595 C596 1.415 . S
C596 H572 0.950 . S
C596 C591 1.363 . S
C596 C595 1.415 . S
C597 H573 0.951 . S
C597 C598 1.366 . S
C597 C599 1.388 . S
C598 C597 1.366 . S
C598 C602 1.385 . S
C599 H574 0.951 . S
C599 C597 1.388 . S
C599 C600 1.366 . S
C600 C599 1.366 . S
C600 C601 1.414 . S
C600 C603 1.499 . S
C601 H575 0.950 . S
C601 C600 1.414 . S
C601 C602 1.374 . S
C602 H576 0.950 . S
C602 C598 1.385 . S
C602 C601 1.374 . S
C603 C600 1.499 . S
C603 C604 1.373 . S
C603 C605 1.389 . S
C604 H577 0.950 . S
C604 C590 1.377 . S
C604 C603 1.373 . S
C605 C589 1.377 . S
C605 C603 1.389 . S
C605 C606 1.524 . S
C606 C605 1.524 . S
C606 C607 1.397 . S
C606 C611 1.363 . S
C607 H578 0.950 . S
C607 C606 1.397 . S
C607 C608 1.334 . S
C608 H579 0.950 . S
C608 C607 1.334 . S
C608 C609 1.287 . S
C609 C608 1.287 . S
C609 C610 1.524 . S
C609 H612 0.999 . S
C610 H580 0.950 . S
C610 C609 1.524 . S
C610 C611 1.415 . S
C611 H581 0.950 . S
C611 C606 1.363 . S
C611 C610 1.415 . S
H612 C609 0.999 . S
H613 C594 0.913 . S
H614 C632 0.951 . S
H615 C634 0.951 . S
H616 C636 0.950 . S
H617 C637 0.950 . S
H618 C639 0.950 . S
H619 C642 0.950 . S
H620 C643 0.950 . S
H621 C645 0.950 . S
H622 C646 0.950 . S
H623 C647 0.951 . S
H624 C649 0.951 . S
H625 C651 0.950 . S
H626 C652 0.950 . S
H627 C654 0.950 . S
H628 C657 0.950 . S
H629 C658 0.950 . S
H630 C660 0.950 . S
H631 C661 0.950 . S
C632 H614 0.951 . S
C632 C633 1.366 . S
C632 C634 1.388 . S
C633 C632 1.366 . S
C633 C637 1.385 . S
C634 H615 0.951 . S
C634 C632 1.388 . S
C634 C635 1.366 . S
C635 C634 1.366 . S
C635 C636 1.414 . S
C635 C638 1.499 . S
C636 H616 0.950 . S
C636 C635 1.414 . S
C636 C637 1.374 . S
C637 H617 0.950 . S
C637 C633 1.385 . S
C637 C636 1.374 . S
C638 C635 1.499 . S
C638 C639 1.373 . S
C638 C640 1.389 . S
C639 H618 0.950 . S
C639 C638 1.373 . S
C639 C655 1.377 . S
C640 C638 1.389 . S
C640 C641 1.524 . S
C640 C654 1.377 . S
C641 C640 1.524 . S
C641 C642 1.397 . S
C641 C646 1.363 . S
C642 H619 0.950 . S
C642 C641 1.397 . S
C642 C643 1.334 . S
C643 H620 0.950 . S
C643 C642 1.334 . S
C643 C644 1.287 . S
C644 C643 1.287 . S
C644 C645 1.524 . S
C644 H663 0.913 . S
C645 H621 0.950 . S
C645 C644 1.524 . S
C645 C646 1.415 . S
C646 H622 0.950 . S
C646 C641 1.363 . S
C646 C645 1.415 . S
C647 H623 0.951 . S
C647 C648 1.366 . S
C647 C649 1.388 . S
C648 C647 1.366 . S
C648 C652 1.385 . S
C649 H624 0.951 . S
C649 C647 1.388 . S
C649 C650 1.366 . S
C650 C649 1.366 . S
C650 C651 1.414 . S
C650 C653 1.499 . S
C651 H625 0.950 . S
C651 C650 1.414 . S
C651 C652 1.374 . S
C652 H626 0.950 . S
C652 C648 1.385 . S
C652 C651 1.374 . S
C653 C650 1.499 . S
C653 C654 1.373 . S
C653 C655 1.389 . S
C654 H627 0.950 . S
C654 C640 1.377 . S
C654 C653 1.373 . S
C655 C639 1.377 . S
C655 C653 1.389 . S
C655 C656 1.524 . S
C656 C655 1.524 . S
C656 C657 1.397 . S
C656 C661 1.363 . S
C657 H628 0.950 . S
C657 C656 1.397 . S
C657 C658 1.334 . S
C658 H629 0.950 . S
C658 C657 1.334 . S
C658 C659 1.287 . S
C659 C658 1.287 . S
C659 C660 1.524 . S
C659 H662 0.999 . S
C660 H630 0.950 . S
C660 C659 1.524 . S
C660 C661 1.415 . S
C661 H631 0.950 . S
C661 C656 1.363 . S
C661 C660 1.415 . S
H662 C659 0.999 . S
H663 C644 0.913 . S
H664 C682 0.951 . S
H665 C684 0.951 . S
H666 C686 0.950 . S
H667 C687 0.950 . S
H668 C689 0.950 . S
H669 C692 0.950 . S
H670 C693 0.950 . S
H671 C695 0.950 . S
H672 C696 0.950 . S
H673 C697 0.951 . S
H674 C699 0.951 . S
H675 C701 0.950 . S
H676 C702 0.950 . S
H677 C704 0.950 . S
H678 C707 0.950 . S
H679 C708 0.950 . S
H680 C710 0.950 . S
H681 C711 0.950 . S
C682 H664 0.951 . S
C682 C683 1.366 . S
C682 C684 1.388 . S
C683 C682 1.366 . S
C683 C687 1.385 . S
C684 H665 0.951 . S
C684 C682 1.388 . S
C684 C685 1.366 . S
C685 C684 1.366 . S
C685 C686 1.414 . S
C685 C688 1.499 . S
C686 H666 0.950 . S
C686 C685 1.414 . S
C686 C687 1.374 . S
C687 H667 0.950 . S
C687 C683 1.385 . S
C687 C686 1.374 . S
C688 C685 1.499 . S
C688 C689 1.373 . S
C688 C690 1.389 . S
C689 H668 0.950 . S
C689 C688 1.373 . S
C689 C705 1.377 . S
C690 C688 1.389 . S
C690 C691 1.524 . S
C690 C704 1.377 . S
C691 C690 1.524 . S
C691 C692 1.397 . S
C691 C696 1.363 . S
C692 H669 0.950 . S
C692 C691 1.397 . S
C692 C693 1.334 . S
C693 H670 0.950 . S
C693 C692 1.334 . S
C693 C694 1.287 . S
C694 C693 1.287 . S
C694 C695 1.524 . S
C694 H713 0.913 . S
C695 H671 0.950 . S
C695 C694 1.524 . S
C695 C696 1.415 . S
C696 H672 0.950 . S
C696 C691 1.363 . S
C696 C695 1.415 . S
C697 H673 0.951 . S
C697 C698 1.366 . S
C697 C699 1.388 . S
C698 C697 1.366 . S
C698 C702 1.385 . S
C699 H674 0.951 . S
C699 C697 1.388 . S
C699 C700 1.366 . S
C700 C699 1.366 . S
C700 C701 1.414 . S
C700 C703 1.499 . S
C701 H675 0.950 . S
C701 C700 1.414 . S
C701 C702 1.374 . S
C702 H676 0.950 . S
C702 C698 1.385 . S
C702 C701 1.374 . S
C703 C700 1.499 . S
C703 C704 1.373 . S
C703 C705 1.389 . S
C704 H677 0.950 . S
C704 C690 1.377 . S
C704 C703 1.373 . S
C705 C689 1.377 . S
C705 C703 1.389 . S
C705 C706 1.524 . S
C706 C705 1.524 . S
C706 C707 1.397 . S
C706 C711 1.363 . S
C707 H678 0.950 . S
C707 C706 1.397 . S
C707 C708 1.334 . S
C708 H679 0.950 . S
C708 C707 1.334 . S
C708 C709 1.287 . S
C709 C708 1.287 . S
C709 C710 1.524 . S
C709 H712 0.999 . S
C710 H680 0.950 . S
C710 C709 1.524 . S
C710 C711 1.415 . S
C711 H681 0.950 . S
C711 C706 1.363 . S
C711 C710 1.415 . S
H712 C709 0.999 . S
H713 C694 0.913 . S
H714 C732 0.951 . S
H715 C734 0.951 . S
H716 C736 0.950 . S
H717 C737 0.950 . S
H718 C739 0.950 . S
H719 C742 0.950 . S
H720 C743 0.950 . S
H721 C745 0.950 . S
H722 C746 0.950 . S
H723 C747 0.951 . S
H724 C749 0.951 . S
H725 C751 0.950 . S
H726 C752 0.950 . S
H727 C754 0.950 . S
H728 C757 0.950 . S
H729 C758 0.950 . S
H730 C760 0.950 . S
H731 C761 0.950 . S
C732 H714 0.951 . S
C732 C733 1.366 . S
C732 C734 1.388 . S
C733 C732 1.366 . S
C733 C737 1.385 . S
C734 H715 0.951 . S
C734 C732 1.388 . S
C734 C735 1.366 . S
C735 C734 1.366 . S
C735 C736 1.414 . S
C735 C738 1.499 . S
C736 H716 0.950 . S
C736 C735 1.414 . S
C736 C737 1.374 . S
C737 H717 0.950 . S
C737 C733 1.385 . S
C737 C736 1.374 . S
C738 C735 1.499 . S
C738 C739 1.373 . S
C738 C740 1.389 . S
C739 H718 0.950 . S
C739 C738 1.373 . S
C739 C755 1.377 . S
C740 C738 1.389 . S
C740 C741 1.524 . S
C740 C754 1.377 . S
C741 C740 1.524 . S
C741 C742 1.397 . S
C741 C746 1.363 . S
C742 H719 0.950 . S
C742 C741 1.397 . S
C742 C743 1.334 . S
C743 H720 0.950 . S
C743 C742 1.334 . S
C743 C744 1.287 . S
C744 C743 1.287 . S
C744 C745 1.524 . S
C744 H763 0.913 . S
C745 H721 0.950 . S
C745 C744 1.524 . S
C745 C746 1.415 . S
C746 H722 0.950 . S
C746 C741 1.363 . S
C746 C745 1.415 . S
C747 H723 0.951 . S
C747 C748 1.366 . S
C747 C749 1.388 . S
C748 C747 1.366 . S
C748 C752 1.385 . S
C749 H724 0.951 . S
C749 C747 1.388 . S
C749 C750 1.366 . S
C750 C749 1.366 . S
C750 C751 1.414 . S
C750 C753 1.499 . S
C751 H725 0.950 . S
C751 C750 1.414 . S
C751 C752 1.374 . S
C752 H726 0.950 . S
C752 C748 1.385 . S
C752 C751 1.374 . S
C753 C750 1.499 . S
C753 C754 1.373 . S
C753 C755 1.389 . S
C754 H727 0.950 . S
C754 C740 1.377 . S
C754 C753 1.373 . S
C755 C739 1.377 . S
C755 C753 1.389 . S
C755 C756 1.524 . S
C756 C755 1.524 . S
C756 C757 1.397 . S
C756 C761 1.363 . S
C757 H728 0.950 . S
C757 C756 1.397 . S
C757 C758 1.334 . S
C758 H729 0.950 . S
C758 C757 1.334 . S
C758 C759 1.287 . S
C759 C758 1.287 . S
C759 C760 1.524 . S
C759 H762 0.999 . S
C760 H730 0.950 . S
C760 C759 1.524 . S
C760 C761 1.415 . S
C761 H731 0.950 . S
C761 C756 1.363 . S
C761 C760 1.415 . S
H762 C759 0.999 . S
H763 C744 0.913 . S
H764 C782 0.951 . S
H765 C784 0.951 . S
H766 C786 0.950 . S
H767 C787 0.950 . S
H768 C789 0.950 . S
H769 C792 0.950 . S
H770 C793 0.950 . S
H771 C795 0.950 . S
H772 C796 0.950 . S
H773 C797 0.951 . S
H774 C799 0.951 . S
H775 C801 0.950 . S
H776 C802 0.950 . S
H777 C804 0.950 . S
H778 C807 0.950 . S
H779 C808 0.950 . S
H780 C810 0.950 . S
H781 C811 0.950 . S
C782 H764 0.951 . S
C782 C783 1.366 . S
C782 C784 1.388 . S
C783 C782 1.366 . S
C783 C787 1.385 . S
C784 H765 0.951 . S
C784 C782 1.388 . S
C784 C785 1.366 . S
C785 C784 1.366 . S
C785 C786 1.414 . S
C785 C788 1.499 . S
C786 H766 0.950 . S
C786 C785 1.414 . S
C786 C787 1.374 . S
C787 H767 0.950 . S
C787 C783 1.385 . S
C787 C786 1.374 . S
C788 C785 1.499 . S
C788 C789 1.373 . S
C788 C790 1.389 . S
C789 H768 0.950 . S
C789 C788 1.373 . S
C789 C805 1.377 . S
C790 C788 1.389 . S
C790 C791 1.524 . S
C790 C804 1.377 . S
C791 C790 1.524 . S
C791 C792 1.397 . S
C791 C796 1.363 . S
C792 H769 0.950 . S
C792 C791 1.397 . S
C792 C793 1.334 . S
C793 H770 0.950 . S
C793 C792 1.334 . S
C793 C794 1.287 . S
C794 C793 1.287 . S
C794 C795 1.524 . S
C794 H813 0.913 . S
C795 H771 0.950 . S
C795 C794 1.524 . S
C795 C796 1.415 . S
C796 H772 0.950 . S
C796 C791 1.363 . S
C796 C795 1.415 . S
C797 H773 0.951 . S
C797 C798 1.366 . S
C797 C799 1.388 . S
C798 C797 1.366 . S
C798 C802 1.385 . S
C799 H774 0.951 . S
C799 C797 1.388 . S
C799 C800 1.366 . S
C800 C799 1.366 . S
C800 C801 1.414 . S
C800 C803 1.499 . S
C801 H775 0.950 . S
C801 C800 1.414 . S
C801 C802 1.374 . S
C802 H776 0.950 . S
C802 C798 1.385 . S
C802 C801 1.374 . S
C803 C800 1.499 . S
C803 C804 1.373 . S
C803 C805 1.389 . S
C804 H777 0.950 . S
C804 C790 1.377 . S
C804 C803 1.373 . S
C805 C789 1.377 . S
C805 C803 1.389 . S
C805 C806 1.524 . S
C806 C805 1.524 . S
C806 C807 1.397 . S
C806 C811 1.363 . S
C807 H778 0.950 . S
C807 C806 1.397 . S
C807 C808 1.334 . S
C808 H779 0.950 . S
C808 C807 1.334 . S
C808 C809 1.287 . S
C809 C808 1.287 . S
C809 C810 1.524 . S
C809 H812 0.999 . S
C810 H780 0.950 . S
C810 C809 1.524 . S
C810 C811 1.415 . S
C811 H781 0.950 . S
C811 C806 1.363 . S
C811 C810 1.415 . S
H812 C809 0.999 . S
H813 C794 0.913 . S
H814 C832 0.951 . S
H815 C834 0.951 . S
H816 C836 0.950 . S
H817 C837 0.950 . S
H818 C839 0.950 . S
H819 C842 0.950 . S
H820 C843 0.950 . S
H821 C845 0.950 . S
H822 C846 0.950 . S
H823 C847 0.951 . S
H824 C849 0.951 . S
H825 C851 0.950 . S
H826 C852 0.950 . S
H827 C854 0.950 . S
H828 C857 0.950 . S
H829 C858 0.950 . S
H830 C860 0.950 . S
H831 C861 0.950 . S
C832 H814 0.951 . S
C832 C833 1.366 . S
C832 C834 1.388 . S
C833 C832 1.366 . S
C833 C837 1.385 . S
C834 H815 0.951 . S
C834 C832 1.388 . S
C834 C835 1.366 . S
C835 C834 1.366 . S
C835 C836 1.414 . S
C835 C838 1.499 . S
C836 H816 0.950 . S
C836 C835 1.414 . S
C836 C837 1.374 . S
C837 H817 0.950 . S
C837 C833 1.385 . S
C837 C836 1.374 . S
C838 C835 1.499 . S
C838 C839 1.373 . S
C838 C840 1.389 . S
C839 H818 0.950 . S
C839 C838 1.373 . S
C839 C855 1.377 . S
C840 C838 1.389 . S
C840 C841 1.524 . S
C840 C854 1.377 . S
C841 C840 1.524 . S
C841 C842 1.397 . S
C841 C846 1.363 . S
C842 H819 0.950 . S
C842 C841 1.397 . S
C842 C843 1.334 . S
C843 H820 0.950 . S
C843 C842 1.334 . S
C843 C844 1.287 . S
C844 C843 1.287 . S
C844 C845 1.524 . S
C844 H863 0.913 . S
C845 H821 0.950 . S
C845 C844 1.524 . S
C845 C846 1.415 . S
C846 H822 0.950 . S
C846 C841 1.363 . S
C846 C845 1.415 . S
C847 H823 0.951 . S
C847 C848 1.366 . S
C847 C849 1.388 . S
C848 C847 1.366 . S
C848 C852 1.385 . S
C849 H824 0.951 . S
C849 C847 1.388 . S
C849 C850 1.366 . S
C850 C849 1.366 . S
C850 C851 1.414 . S
C850 C853 1.499 . S
C851 H825 0.950 . S
C851 C850 1.414 . S
C851 C852 1.374 . S
C852 H826 0.950 . S
C852 C848 1.385 . S
C852 C851 1.374 . S
C853 C850 1.499 . S
C853 C854 1.373 . S
C853 C855 1.389 . S
C854 H827 0.950 . S
C854 C840 1.377 . S
C854 C853 1.373 . S
C855 C839 1.377 . S
C855 C853 1.389 . S
C855 C856 1.524 . S
C856 C855 1.524 . S
C856 C857 1.397 . S
C856 C861 1.363 . S
C857 H828 0.950 . S
C857 C856 1.397 . S
C857 C858 1.334 . S
C858 H829 0.950 . S
C858 C857 1.334 . S
C858 C859 1.287 . S
C859 C858 1.287 . S
C859 C860 1.524 . S
C859 H862 0.999 . S
C860 H830 0.950 . S
C860 C859 1.524 . S
C860 C861 1.415 . S
C861 H831 0.950 . S
C861 C856 1.363 . S
C861 C860 1.415 . S
H862 C859 0.999 . S
H863 C844 0.913 . S
H864 C882 0.951 . S
H865 C884 0.951 . S
H866 C886 0.950 . S
H867 C887 0.950 . S
H868 C889 0.950 . S
H869 C892 0.950 . S
H870 C893 0.950 . S
H871 C895 0.950 . S
H872 C896 0.950 . S
H873 C897 0.951 . S
H874 C899 0.951 . S
H875 C901 0.950 . S
H876 C902 0.950 . S
H877 C904 0.950 . S
H878 C907 0.950 . S
H879 C908 0.950 . S
H880 C910 0.950 . S
H881 C911 0.950 . S
C882 H864 0.951 . S
C882 C883 1.366 . S
C882 C884 1.388 . S
C883 C882 1.366 . S
C883 C887 1.385 . S
C884 H865 0.951 . S
C884 C882 1.388 . S
C884 C885 1.366 . S
C885 C884 1.366 . S
C885 C886 1.414 . S
C885 C888 1.499 . S
C886 H866 0.950 . S
C886 C885 1.414 . S
C886 C887 1.374 . S
C887 H867 0.950 . S
C887 C883 1.385 . S
C887 C886 1.374 . S
C888 C885 1.499 . S
C888 C889 1.373 . S
C888 C890 1.389 . S
C889 H868 0.950 . S
C889 C888 1.373 . S
C889 C905 1.377 . S
C890 C888 1.389 . S
C890 C891 1.524 . S
C890 C904 1.377 . S
C891 C890 1.524 . S
C891 C892 1.397 . S
C891 C896 1.363 . S
C892 H869 0.950 . S
C892 C891 1.397 . S
C892 C893 1.334 . S
C893 H870 0.950 . S
C893 C892 1.334 . S
C893 C894 1.287 . S
C894 C893 1.287 . S
C894 C895 1.524 . S
C894 H913 0.913 . S
C895 H871 0.950 . S
C895 C894 1.524 . S
C895 C896 1.415 . S
C896 H872 0.950 . S
C896 C891 1.363 . S
C896 C895 1.415 . S
C897 H873 0.951 . S
C897 C898 1.366 . S
C897 C899 1.388 . S
C898 C897 1.366 . S
C898 C902 1.385 . S
C899 H874 0.951 . S
C899 C897 1.388 . S
C899 C900 1.366 . S
C900 C899 1.366 . S
C900 C901 1.414 . S
C900 C903 1.499 . S
C901 H875 0.950 . S
C901 C900 1.414 . S
C901 C902 1.374 . S
C902 H876 0.950 . S
C902 C898 1.385 . S
C902 C901 1.374 . S
C903 C900 1.499 . S
C903 C904 1.373 . S
C903 C905 1.389 . S
C904 H877 0.950 . S
C904 C890 1.377 . S
C904 C903 1.373 . S
C905 C889 1.377 . S
C905 C903 1.389 . S
C905 C906 1.524 . S
C906 C905 1.524 . S
C906 C907 1.397 . S
C906 C911 1.363 . S
C907 H878 0.950 . S
C907 C906 1.397 . S
C907 C908 1.334 . S
C908 H879 0.950 . S
C908 C907 1.334 . S
C908 C909 1.287 . S
C909 C908 1.287 . S
C909 C910 1.524 . S
C909 H912 0.999 . S
C910 H880 0.950 . S
C910 C909 1.524 . S
C910 C911 1.415 . S
C911 H881 0.950 . S
C911 C906 1.363 . S
C911 C910 1.415 . S
H912 C909 0.999 . S
H913 C894 0.913 . S
H914 C932 0.951 . S
H915 C934 0.951 . S
H916 C936 0.950 . S
H917 C937 0.950 . S
H918 C939 0.950 . S
H919 C942 0.950 . S
H920 C943 0.950 . S
H921 C945 0.950 . S
H922 C946 0.950 . S
H923 C947 0.951 . S
H924 C949 0.951 . S
H925 C951 0.950 . S
H926 C952 0.950 . S
H927 C954 0.950 . S
H928 C957 0.950 . S
H929 C958 0.950 . S
H930 C960 0.950 . S
H931 C961 0.950 . S
C932 H914 0.951 . S
C932 C933 1.366 . S
C932 C934 1.388 . S
C933 C932 1.366 . S
C933 C937 1.385 . S
C934 H915 0.951 . S
C934 C932 1.388 . S
C934 C935 1.366 . S
C935 C934 1.366 . S
C935 C936 1.414 . S
C935 C938 1.499 . S
C936 H916 0.950 . S
C936 C935 1.414 . S
C936 C937 1.374 . S
C937 H917 0.950 . S
C937 C933 1.385 . S
C937 C936 1.374 . S
C938 C935 1.499 . S
C938 C939 1.373 . S
C938 C940 1.389 . S
C939 H918 0.950 . S
C939 C938 1.373 . S
C939 C955 1.377 . S
C940 C938 1.389 . S
C940 C941 1.524 . S
C940 C954 1.377 . S
C941 C940 1.524 . S
C941 C942 1.397 . S
C941 C946 1.363 . S
C942 H919 0.950 . S
C942 C941 1.397 . S
C942 C943 1.334 . S
C943 H920 0.950 . S
C943 C942 1.334 . S
C943 C944 1.287 . S
C944 C943 1.287 . S
C944 C945 1.524 . S
C944 H963 0.913 . S
C945 H921 0.950 . S
C945 C944 1.524 . S
C945 C946 1.415 . S
C946 H922 0.950 . S
C946 C941 1.363 . S
C946 C945 1.415 . S
C947 H923 0.951 . S
C947 C948 1.366 . S
C947 C949 1.388 . S
C948 C947 1.366 . S
C948 C952 1.385 . S
C949 H924 0.951 . S
C949 C947 1.388 . S
C949 C950 1.366 . S
C950 C949 1.366 . S
C950 C951 1.414 . S
C950 C953 1.499 . S
C951 H925 0.950 . S
C951 C950 1.414 . S
C951 C952 1.374 . S
C952 H926 0.950 . S
C952 C948 1.385 . S
C952 C951 1.374 . S
C953 C950 1.499 . S
C953 C954 1.373 . S
C953 C955 1.389 . S
C954 H927 0.950 . S
C954 C940 1.377 . S
C954 C953 1.373 . S
C955 C939 1.377 . S
C955 C953 1.389 . S
C955 C956 1.524 . S
C956 C955 1.524 . S
C956 C957 1.397 . S
C956 C961 1.363 . S
C957 H928 0.950 . S
C957 C956 1.397 . S
C957 C958 1.334 . S
C958 H929 0.950 . S
C958 C957 1.334 . S
C958 C959 1.287 . S
C959 C958 1.287 . S
C959 C960 1.524 . S
C959 H962 0.999 . S
C960 H930 0.950 . S
C960 C959 1.524 . S
C960 C961 1.415 . S
C961 H931 0.950 . S
C961 C956 1.363 . S
C961 C960 1.415 . S
H962 C959 0.999 . S
H963 C944 0.913 . S
H964 C982 0.951 . S
H965 C984 0.951 . S
H966 C986 0.950 . S
H967 C987 0.950 . S
H968 C989 0.950 . S
H969 C992 0.950 . S
H970 C993 0.950 . S
H971 C995 0.950 . S
H972 C996 0.950 . S
H973 C997 0.951 . S
H974 C999 0.951 . S
H975 C1001 0.950 . S
H976 C1002 0.950 . S
H977 C1004 0.950 . S
H978 C1007 0.950 . S
H979 C1008 0.950 . S
H980 C1010 0.950 . S
H981 C1011 0.950 . S
C982 H964 0.951 . S
C982 C983 1.366 . S
C982 C984 1.388 . S
C983 C982 1.366 . S
C983 C987 1.385 . S
C984 H965 0.951 . S
C984 C982 1.388 . S
C984 C985 1.366 . S
C985 C984 1.366 . S
C985 C986 1.414 . S
C985 C988 1.499 . S
C986 H966 0.950 . S
C986 C985 1.414 . S
C986 C987 1.374 . S
C987 H967 0.950 . S
C987 C983 1.385 . S
C987 C986 1.374 . S
C988 C985 1.499 . S
C988 C989 1.373 . S
C988 C990 1.389 . S
C989 H968 0.950 . S
C989 C988 1.373 . S
C989 C1005 1.377 . S
C990 C988 1.389 . S
C990 C991 1.524 . S
C990 C1004 1.377 . S
C991 C990 1.524 . S
C991 C992 1.397 . S
C991 C996 1.363 . S
C992 H969 0.950 . S
C992 C991 1.397 . S
C992 C993 1.334 . S
C993 H970 0.950 . S
C993 C992 1.334 . S
C993 C994 1.287 . S
C994 C993 1.287 . S
C994 C995 1.524 . S
C994 H1013 0.913 . S
C995 H971 0.950 . S
C995 C994 1.524 . S
C995 C996 1.415 . S
C996 H972 0.950 . S
C996 C991 1.363 . S
C996 C995 1.415 . S
C997 H973 0.951 . S
C997 C998 1.366 . S
C997 C999 1.388 . S
C998 C997 1.366 . S
C998 C1002 1.385 . S
C999 H974 0.951 . S
C999 C997 1.388 . S
C999 C1000 1.366 . S
C1000 C999 1.366 . S
C1000 C1001 1.414 . S
C1000 C1003 1.499 . S
C1001 H975 0.950 . S
C1001 C1000 1.414 . S
C1001 C1002 1.374 . S
C1002 H976 0.950 . S
C1002 C998 1.385 . S
C1002 C1001 1.374 . S
C1003 C1000 1.499 . S
C1003 C1004 1.373 . S
C1003 C1005 1.389 . S
C1004 H977 0.950 . S
C1004 C990 1.377 . S
C1004 C1003 1.373 . S
C1005 C989 1.377 . S
C1005 C1003 1.389 . S
C1005 C1006 1.524 . S
C1006 C1005 1.524 . S
C1006 C1007 1.397 . S
C1006 C1011 1.363 . S
C1007 H978 0.950 . S
C1007 C1006 1.397 . S
C1007 C1008 1.334 . S
C1008 H979 0.950 . S
C1008 C1007 1.334 . S
C1008 C1009 1.287 . S
C1009 C1008 1.287 . S
C1009 C1010 1.524 . S
C1009 H1012 0.999 . S
C1010 H980 0.950 . S
C1010 C1009 1.524 . S
C1010 C1011 1.415 . S
C1011 H981 0.950 . S
C1011 C1006 1.363 . S
C1011 C1010 1.415 . S
H1012 C1009 0.999 . S
H1013 C994 0.913 . S
H1014 C1032 0.951 . S
H1015 C1034 0.951 . S
H1016 C1036 0.950 . S
H1017 C1037 0.950 . S
H1018 C1039 0.950 . S
H1019 C1042 0.950 . S
H1020 C1043 0.950 . S
H1021 C1045 0.950 . S
H1022 C1046 0.950 . S
H1023 C1047 0.951 . S
H1024 C1049 0.951 . S
H1025 C1051 0.950 . S
H1026 C1052 0.950 . S
H1027 C1054 0.950 . S
H1028 C1057 0.950 . S
H1029 C1058 0.950 . S
H1030 C1060 0.950 . S
H1031 C1061 0.950 . S
C1032 H1014 0.951 . S
C1032 C1033 1.366 . S
C1032 C1034 1.388 . S
C1033 C1032 1.366 . S
C1033 C1037 1.385 . S
C1034 H1015 0.951 . S
C1034 C1032 1.388 . S
C1034 C1035 1.366 . S
C1035 C1034 1.366 . S
C1035 C1036 1.414 . S
C1035 C1038 1.499 . S
C1036 H1016 0.950 . S
C1036 C1035 1.414 . S
C1036 C1037 1.374 . S
C1037 H1017 0.950 . S
C1037 C1033 1.385 . S
C1037 C1036 1.374 . S
C1038 C1035 1.499 . S
C1038 C1039 1.373 . S
C1038 C1040 1.389 . S
C1039 H1018 0.950 . S
C1039 C1038 1.373 . S
C1039 C1055 1.377 . S
C1040 C1038 1.389 . S
C1040 C1041 1.524 . S
C1040 C1054 1.377 . S
C1041 C1040 1.524 . S
C1041 C1042 1.397 . S
C1041 C1046 1.363 . S
C1042 H1019 0.950 . S
C1042 C1041 1.397 . S
C1042 C1043 1.334 . S
C1043 H1020 0.950 . S
C1043 C1042 1.334 . S
C1043 C1044 1.287 . S
C1044 C1043 1.287 . S
C1044 C1045 1.524 . S
C1044 H1063 0.913 . S
C1045 H1021 0.950 . S
C1045 C1044 1.524 . S
C1045 C1046 1.415 . S
C1046 H1022 0.950 . S
C1046 C1041 1.363 . S
C1046 C1045 1.415 . S
C1047 H1023 0.951 . S
C1047 C1048 1.366 . S
C1047 C1049 1.388 . S
C1048 C1047 1.366 . S
C1048 C1052 1.385 . S
C1049 H1024 0.951 . S
C1049 C1047 1.388 . S
C1049 C1050 1.366 . S
C1050 C1049 1.366 . S
C1050 C1051 1.414 . S
C1050 C1053 1.499 . S
C1051 H1025 0.950 . S
C1051 C1050 1.414 . S
C1051 C1052 1.374 . S
C1052 H1026 0.950 . S
C1052 C1048 1.385 . S
C1052 C1051 1.374 . S
C1053 C1050 1.499 . S
C1053 C1054 1.373 . S
C1053 C1055 1.389 . S
C1054 H1027 0.950 . S
C1054 C1040 1.377 . S
C1054 C1053 1.373 . S
C1055 C1039 1.377 . S
C1055 C1053 1.389 . S
C1055 C1056 1.524 . S
C1056 C1055 1.524 . S
C1056 C1057 1.397 . S
C1056 C1061 1.363 . S
C1057 H1028 0.950 . S
C1057 C1056 1.397 . S
C1057 C1058 1.334 . S
C1058 H1029 0.950 . S
C1058 C1057 1.334 . S
C1058 C1059 1.287 . S
C1059 C1058 1.287 . S
C1059 C1060 1.524 . S
C1059 H1062 0.999 . S
C1060 H1030 0.950 . S
C1060 C1059 1.524 . S
C1060 C1061 1.415 . S
C1061 H1031 0.950 . S
C1061 C1056 1.363 . S
C1061 C1060 1.415 . S
H1062 C1059 0.999 . S
H1063 C1044 0.913 . S
H1064 C1082 0.951 . S
H1065 C1084 0.951 . S
H1066 C1086 0.950 . S
H1067 C1087 0.950 . S
H1068 C1089 0.950 . S
H1069 C1092 0.950 . S
H1070 C1093 0.950 . S
H1071 C1095 0.950 . S
H1072 C1096 0.950 . S
H1073 C1097 0.951 . S
H1074 C1099 0.951 . S
H1075 C1101 0.950 . S
H1076 C1102 0.950 . S
H1077 C1104 0.950 . S
H1078 C1107 0.950 . S
H1079 C1108 0.950 . S
H1080 C1110 0.950 . S
H1081 C1111 0.950 . S
C1082 H1064 0.951 . S
C1082 C1083 1.366 . S
C1082 C1084 1.388 . S
C1083 C1082 1.366 . S
C1083 C1087 1.385 . S
C1084 H1065 0.951 . S
C1084 C1082 1.388 . S
C1084 C1085 1.366 . S
C1085 C1084 1.366 . S
C1085 C1086 1.414 . S
C1085 C1088 1.499 . S
C1086 H1066 0.950 . S
C1086 C1085 1.414 . S
C1086 C1087 1.374 . S
C1087 H1067 0.950 . S
C1087 C1083 1.385 . S
C1087 C1086 1.374 . S
C1088 C1085 1.499 . S
C1088 C1089 1.373 . S
C1088 C1090 1.389 . S
C1089 H1068 0.950 . S
C1089 C1088 1.373 . S
C1089 C1105 1.377 . S
C1090 C1088 1.389 . S
C1090 C1091 1.524 . S
C1090 C1104 1.377 . S
C1091 C1090 1.524 . S
C1091 C1092 1.397 . S
C1091 C1096 1.363 . S
C1092 H1069 0.950 . S
C1092 C1091 1.397 . S
C1092 C1093 1.334 . S
C1093 H1070 0.950 . S
C1093 C1092 1.334 . S
C1093 C1094 1.287 . S
C1094 C1093 1.287 . S
C1094 C1095 1.524 . S
C1094 H1113 0.913 . S
C1095 H1071 0.950 . S
C1095 C1094 1.524 . S
C1095 C1096 1.415 . S
C1096 H1072 0.950 . S
C1096 C1091 1.363 . S
C1096 C1095 1.415 . S
C1097 H1073 0.951 . S
C1097 C1098 1.366 . S
C1097 C1099 1.388 . S
C1098 C1097 1.366 . S
C1098 C1102 1.385 . S
C1099 H1074 0.951 . S
C1099 C1097 1.388 . S
C1099 C1100 1.366 . S
C1100 C1099 1.366 . S
C1100 C1101 1.414 . S
C1100 C1103 1.499 . S
C1101 H1075 0.950 . S
C1101 C1100 1.414 . S
C1101 C1102 1.374 . S
C1102 H1076 0.950 . S
C1102 C1098 1.385 . S
C1102 C1101 1.374 . S
C1103 C1100 1.499 . S
C1103 C1104 1.373 . S
C1103 C1105 1.389 . S
C1104 H1077 0.950 . S
C1104 C1090 1.377 . S
C1104 C1103 1.373 . S
C1105 C1089 1.377 . S
C1105 C1103 1.389 . S
C1105 C1106 1.524 . S
C1106 C1105 1.524 . S
C1106 C1107 1.397 . S
C1106 C1111 1.363 . S
C1107 H1078 0.950 . S
C1107 C1106 1.397 . S
C1107 C1108 1.334 . S
C1108 H1079 0.950 . S
C1108 C1107 1.334 . S
C1108 C1109 1.287 . S
C1109 C1108 1.287 . S
C1109 C1110 1.524 . S
C1109 H1112 0.999 . S
C1110 H1080 0.950 . S
C1110 C1109 1.524 . S
C1110 C1111 1.415 . S
C1111 H1081 0.950 . S
C1111 C1106 1.363 . S
C1111 C1110 1.415 . S
H1112 C1109 0.999 . S
H1113 C1094 0.913 . S
H1114 C1132 0.951 . S
H1115 C1134 0.951 . S
H1116 C1136 0.950 . S
H1117 C1137 0.950 . S
H1118 C1139 0.950 . S
H1119 C1142 0.950 . S
H1120 C1143 0.950 . S
H1121 C1145 0.950 . S
H1122 C1146 0.950 . S
H1123 C1147 0.951 . S
H1124 C1149 0.951 . S
H1125 C1151 0.950 . S
H1126 C1152 0.950 . S
H1127 C1154 0.950 . S
H1128 C1157 0.950 . S
H1129 C1158 0.950 . S
H1130 C1160 0.950 . S
H1131 C1161 0.950 . S
C1132 H1114 0.951 . S
C1132 C1133 1.366 . S
C1132 C1134 1.388 . S
C1133 C1132 1.366 . S
C1133 C1137 1.385 . S
C1134 H1115 0.951 . S
C1134 C1132 1.388 . S
C1134 C1135 1.366 . S
C1135 C1134 1.366 . S
C1135 C1136 1.414 . S
C1135 C1138 1.499 . S
C1136 H1116 0.950 . S
C1136 C1135 1.414 . S
C1136 C1137 1.374 . S
C1137 H1117 0.950 . S
C1137 C1133 1.385 . S
C1137 C1136 1.374 . S
C1138 C1135 1.499 . S
C1138 C1139 1.373 . S
C1138 C1140 1.389 . S
C1139 H1118 0.950 . S
C1139 C1138 1.373 . S
C1139 C1155 1.377 . S
C1140 C1138 1.389 . S
C1140 C1141 1.524 . S
C1140 C1154 1.377 . S
C1141 C1140 1.524 . S
C1141 C1142 1.397 . S
C1141 C1146 1.363 . S
C1142 H1119 0.950 . S
C1142 C1141 1.397 . S
C1142 C1143 1.334 . S
C1143 H1120 0.950 . S
C1143 C1142 1.334 . S
C1143 C1144 1.287 . S
C1144 C1143 1.287 . S
C1144 C1145 1.524 . S
C1144 H1163 0.913 . S
C1145 H1121 0.950 . S
C1145 C1144 1.524 . S
C1145 C1146 1.415 . S
C1146 H1122 0.950 . S
C1146 C1141 1.363 . S
C1146 C1145 1.415 . S
C1147 H1123 0.951 . S
C1147 C1148 1.366 . S
C1147 C1149 1.388 . S
C1148 C1147 1.366 . S
C1148 C1152 1.385 . S
C1149 H1124 0.951 . S
C1149 C1147 1.388 . S
C1149 C1150 1.366 . S
C1150 C1149 1.366 . S
C1150 C1151 1.414 . S
C1150 C1153 1.499 . S
C1151 H1125 0.950 . S
C1151 C1150 1.414 . S
C1151 C1152 1.374 . S
C1152 H1126 0.950 . S
C1152 C1148 1.385 . S
C1152 C1151 1.374 . S
C1153 C1150 1.499 . S
C1153 C1154 1.373 . S
C1153 C1155 1.389 . S
C1154 H1127 0.950 . S
C1154 C1140 1.377 . S
C1154 C1153 1.373 . S
C1155 C1139 1.377 . S
C1155 C1153 1.389 . S
C1155 C1156 1.524 . S
C1156 C1155 1.524 . S
C1156 C1157 1.397 . S
C1156 C1161 1.363 . S
C1157 H1128 0.950 . S
C1157 C1156 1.397 . S
C1157 C1158 1.334 . S
C1158 H1129 0.950 . S
C1158 C1157 1.334 . S
C1158 C1159 1.287 . S
C1159 C1158 1.287 . S
C1159 C1160 1.524 . S
C1159 H1162 0.999 . S
C1160 H1130 0.950 . S
C1160 C1159 1.524 . S
C1160 C1161 1.415 . S
C1161 H1131 0.950 . S
C1161 C1156 1.363 . S
C1161 C1160 1.415 . S
H1162 C1159 0.999 . S
H1163 C1144 0.913 . S
H1164 C1182 0.951 . S
H1165 C1184 0.951 . S
H1166 C1186 0.950 . S
H1167 C1187 0.950 . S
H1168 C1189 0.950 . S
H1169 C1192 0.950 . S
H1170 C1193 0.950 . S
H1171 C1195 0.950 . S
H1172 C1196 0.950 . S
H1173 C1197 0.951 . S
H1174 C1199 0.951 . S
H1175 C1201 0.950 . S
H1176 C1202 0.950 . S
H1177 C1204 0.950 . S
H1178 C1207 0.950 . S
H1179 C1208 0.950 . S
H1180 C1210 0.950 . S
H1181 C1211 0.950 . S
C1182 H1164 0.951 . S
C1182 C1183 1.366 . S
C1182 C1184 1.388 . S
C1183 C1182 1.366 . S
C1183 C1187 1.385 . S
C1184 H1165 0.951 . S
C1184 C1182 1.388 . S
C1184 C1185 1.366 . S
C1185 C1184 1.366 . S
C1185 C1186 1.414 . S
C1185 C1188 1.499 . S
C1186 H1166 0.950 . S
C1186 C1185 1.414 . S
C1186 C1187 1.374 . S
C1187 H1167 0.950 . S
C1187 C1183 1.385 . S
C1187 C1186 1.374 . S
C1188 C1185 1.499 . S
C1188 C1189 1.373 . S
C1188 C1190 1.389 . S
C1189 H1168 0.950 . S
C1189 C1188 1.373 . S
C1189 C1205 1.377 . S
C1190 C1188 1.389 . S
C1190 C1191 1.524 . S
C1190 C1204 1.377 . S
C1191 C1190 1.524 . S
C1191 C1192 1.397 . S
C1191 C1196 1.363 . S
C1192 H1169 0.950 . S
C1192 C1191 1.397 . S
C1192 C1193 1.334 . S
C1193 H1170 0.950 . S
C1193 C1192 1.334 . S
C1193 C1194 1.287 . S
C1194 C1193 1.287 . S
C1194 C1195 1.524 . S
C1194 H1213 0.913 . S
C1195 H1171 0.950 . S
C1195 C1194 1.524 . S
C1195 C1196 1.415 . S
C1196 H1172 0.950 . S
C1196 C1191 1.363 . S
C1196 C1195 1.415 . S
C1197 H1173 0.951 . S
C1197 C1198 1.366 . S
C1197 C1199 1.388 . S
C1198 C1197 1.366 . S
C1198 C1202 1.385 . S
C1199 H1174 0.951 . S
C1199 C1197 1.388 . S
C1199 C1200 1.366 . S
C1200 C1199 1.366 . S
C1200 C1201 1.414 . S
C1200 C1203 1.499 . S
C1201 H1175 0.950 . S
C1201 C1200 1.414 . S
C1201 C1202 1.374 . S
C1202 H1176 0.950 . S
C1202 C1198 1.385 . S
C1202 C1201 1.374 . S
C1203 C1200 1.499 . S
C1203 C1204 1.373 . S
C1203 C1205 1.389 . S
C1204 H1177 0.950 . S
C1204 C1190 1.377 . S
C1204 C1203 1.373 . S
C1205 C1189 1.377 . S
C1205 C1203 1.389 . S
C1205 C1206 1.524 . S
C1206 C1205 1.524 . S
C1206 C1207 1.397 . S
C1206 C1211 1.363 . S
C1207 H1178 0.950 . S
C1207 C1206 1.397 . S
C1207 C1208 1.334 . S
C1208 H1179 0.950 . S
C1208 C1207 1.334 . S
C1208 C1209 1.287 . S
C1209 C1208 1.287 . S
C1209 C1210 1.524 . S
C1209 H1212 0.999 . S
C1210 H1180 0.950 . S
C1210 C1209 1.524 . S
C1210 C1211 1.415 . S
C1211 H1181 0.950 . S
C1211 C1206 1.363 . S
C1211 C1210 1.415 . S
H1212 C1209 0.999 . S
H1213 C1194 0.913 . S
H1214 C1232 0.951 . S
H1215 C1234 0.951 . S
H1216 C1236 0.950 . S
H1217 C1237 0.950 . S
H1218 C1239 0.950 . S
H1219 C1242 0.950 . S
H1220 C1243 0.950 . S
H1221 C1245 0.950 . S
H1222 C1246 0.950 . S
H1223 C1247 0.951 . S
H1224 C1249 0.951 . S
H1225 C1251 0.950 . S
H1226 C1252 0.950 . S
H1227 C1254 0.950 . S
H1228 C1257 0.950 . S
H1229 C1258 0.950 . S
H1230 C1260 0.950 . S
H1231 C1261 0.950 . S
C1232 H1214 0.951 . S
C1232 C1233 1.366 . S
C1232 C1234 1.388 . S
C1233 C1232 1.366 . S
C1233 C1237 1.385 . S
C1234 H1215 0.951 . S
C1234 C1232 1.388 . S
C1234 C1235 1.366 . S
C1235 C1234 1.366 . S
C1235 C1236 1.414 . S
C1235 C1238 1.499 . S
C1236 H1216 0.950 . S
C1236 C1235 1.414 . S
C1236 C1237 1.374 . S
C1237 H1217 0.950 . S
C1237 C1233 1.385 . S
C1237 C1236 1.374 . S
C1238 C1235 1.499 . S
C1238 C1239 1.373 . S
C1238 C1240 1.389 . S
C1239 H1218 0.950 . S
C1239 C1238 1.373 . S
C1239 C1255 1.377 . S
C1240 C1238 1.389 . S
C1240 C1241 1.524 . S
C1240 C1254 1.377 . S
C1241 C1240 1.524 . S
C1241 C1242 1.397 . S
C1241 C1246 1.363 . S
C1242 H1219 0.950 . S
C1242 C1241 1.397 . S
C1242 C1243 1.334 . S
C1243 H1220 0.950 . S
C1243 C1242 1.334 . S
C1243 C1244 1.287 . S
C1244 C1243 1.287 . S
C1244 C1245 1.524 . S
C1244 H1263 0.913 . S
C1245 H1221 0.950 . S
C1245 C1244 1.524 . S
C1245 C1246 1.415 . S
C1246 H1222 0.950 . S
C1246 C1241 1.363 . S
C1246 C1245 1.415 . S
C1247 H1223 0.951 . S
C1247 C1248 1.366 . S
C1247 C1249 1.388 . S
C1248 C1247 1.366 . S
C1248 C1252 1.385 . S
C1249 H1224 0.951 . S
C1249 C1247 1.388 . S
C1249 C1250 1.366 . S
C1250 C1249 1.366 . S
C1250 C1251 1.414 . S
C1250 C1253 1.499 . S
C1251 H1225 0.950 . S
C1251 C1250 1.414 . S
C1251 C1252 1.374 . S
C1252 H1226 0.950 . S
C1252 C1248 1.385 . S
C1252 C1251 1.374 . S
C1253 C1250 1.499 . S
C1253 C1254 1.373 . S
C1253 C1255 1.389 . S
C1254 H1227 0.950 . S
C1254 C1240 1.377 . S
C1254 C1253 1.373 . S
C1255 C1239 1.377 . S
C1255 C1253 1.389 . S
C1255 C1256 1.524 . S
C1256 C1255 1.524 . S
C1256 C1257 1.397 . S
C1256 C1261 1.363 . S
C1257 H1228 0.950 . S
C1257 C1256 1.397 . S
C1257 C1258 1.334 . S
C1258 H1229 0.950 . S
C1258 C1257 1.334 . S
C1258 C1259 1.287 . S
C1259 C1258 1.287 . S
C1259 C1260 1.524 . S
C1259 H1262 0.999 . S
C1260 H1230 0.950 . S
C1260 C1259 1.524 . S
C1260 C1261 1.415 . S
C1261 H1231 0.950 . S
C1261 C1256 1.363 . S
C1261 C1260 1.415 . S
H1262 C1259 0.999 . S
H1263 C1244 0.913 . S
H1264 C1282 0.951 . S
H1265 C1284 0.951 . S
H1266 C1286 0.950 . S
H1267 C1287 0.950 . S
H1268 C1289 0.950 . S
H1269 C1292 0.950 . S
H1270 C1293 0.950 . S
H1271 C1295 0.950 . S
H1272 C1296 0.950 . S
H1273 C1297 0.951 . S
H1274 C1299 0.951 . S
H1275 C1301 0.950 . S
H1276 C1302 0.950 . S
H1277 C1304 0.950 . S
H1278 C1307 0.950 . S
H1279 C1308 0.950 . S
H1280 C1310 0.950 . S
H1281 C1311 0.950 . S
C1282 H1264 0.951 . S
C1282 C1283 1.366 . S
C1282 C1284 1.388 . S
C1283 C1282 1.366 . S
C1283 C1287 1.385 . S
C1284 H1265 0.951 . S
C1284 C1282 1.388 . S
C1284 C1285 1.366 . S
C1285 C1284 1.366 . S
C1285 C1286 1.414 . S
C1285 C1288 1.499 . S
C1286 H1266 0.950 . S
C1286 C1285 1.414 . S
C1286 C1287 1.374 . S
C1287 H1267 0.950 . S
C1287 C1283 1.385 . S
C1287 C1286 1.374 . S
C1288 C1285 1.499 . S
C1288 C1289 1.373 . S
C1288 C1290 1.389 . S
C1289 H1268 0.950 . S
C1289 C1288 1.373 . S
C1289 C1305 1.377 . S
C1290 C1288 1.389 . S
C1290 C1291 1.524 . S
C1290 C1304 1.377 . S
C1291 C1290 1.524 . S
C1291 C1292 1.397 . S
C1291 C1296 1.363 . S
C1292 H1269 0.950 . S
C1292 C1291 1.397 . S
C1292 C1293 1.334 . S
C1293 H1270 0.950 . S
C1293 C1292 1.334 . S
C1293 C1294 1.287 . S
C1294 C1293 1.287 . S
C1294 C1295 1.524 . S
C1294 H1313 0.913 . S
C1295 H1271 0.950 . S
C1295 C1294 1.524 . S
C1295 C1296 1.415 . S
C1296 H1272 0.950 . S
C1296 C1291 1.363 . S
C1296 C1295 1.415 . S
C1297 H1273 0.951 . S
C1297 C1298 1.366 . S
C1297 C1299 1.388 . S
C1298 C1297 1.366 . S
C1298 C1302 1.385 . S
C1299 H1274 0.951 . S
C1299 C1297 1.388 . S
C1299 C1300 1.366 . S
C1300 C1299 1.366 . S
C1300 C1301 1.414 . S
C1300 C1303 1.499 . S
C1301 H1275 0.950 . S
C1301 C1300 1.414 . S
C1301 C1302 1.374 . S
C1302 H1276 0.950 . S
C1302 C1298 1.385 . S
C1302 C1301 1.374 . S
C1303 C1300 1.499 . S
C1303 C1304 1.373 . S
C1303 C1305 1.389 . S
C1304 H1277 0.950 . S
C1304 C1290 1.377 . S
C1304 C1303 1.373 . S
C1305 C1289 1.377 . S
C1305 C1303 1.389 . S
C1305 C1306 1.524 . S
C1306 C1305 1.524 . S
C1306 C1307 1.397 . S
C1306 C1311 1.363 . S
C1307 H1278 0.950 . S
C1307 C1306 1.397 . S
C1307 C1308 1.334 . S
C1308 H1279 0.950 . S
C1308 C1307 1.334 . S
C1308 C1309 1.287 . S
C1309 C1308 1.287 . S
C1309 C1310 1.524 . S
C1309 H1312 0.999 . S
C1310 H1280 0.950 . S
C1310 C1309 1.524 . S
C1310 C1311 1.415 . S
C1311 H1281 0.950 . S
C1311 C1306 1.363 . S
C1311 C1310 1.415 . S
H1312 C1309 0.999 . S
H1313 C1294 0.913 . S
H1314 C1332 0.951 . S
H1315 C1334 0.951 . S
H1316 C1336 0.950 . S
H1317 C1337 0.950 . S
H1318 C1339 0.950 . S
H1319 C1342 0.950 . S
H1320 C1343 0.950 . S
H1321 C1345 0.950 . S
H1322 C1346 0.950 . S
H1323 C1347 0.951 . S
H1324 C1349 0.951 . S
H1325 C1351 0.950 . S
H1326 C1352 0.950 . S
H1327 C1354 0.950 . S
H1328 C1357 0.950 . S
H1329 C1358 0.950 . S
H1330 C1360 0.950 . S
H1331 C1361 0.950 . S
C1332 H1314 0.951 . S
C1332 C1333 1.366 . S
C1332 C1334 1.388 . S
C1333 C1332 1.366 . S
C1333 C1337 1.385 . S
C1334 H1315 0.951 . S
C1334 C1332 1.388 . S
C1334 C1335 1.366 . S
C1335 C1334 1.366 . S
C1335 C1336 1.414 . S
C1335 C1338 1.499 . S
C1336 H1316 0.950 . S
C1336 C1335 1.414 . S
C1336 C1337 1.374 . S
C1337 H1317 0.950 . S
C1337 C1333 1.385 . S
C1337 C1336 1.374 . S
C1338 C1335 1.499 . S
C1338 C1339 1.373 . S
C1338 C1340 1.389 . S
C1339 H1318 0.950 . S
C1339 C1338 1.373 . S
C1339 C1355 1.377 . S
C1340 C1338 1.389 . S
C1340 C1341 1.524 . S
C1340 C1354 1.377 . S
C1341 C1340 1.524 . S
C1341 C1342 1.397 . S
C1341 C1346 1.363 . S
C1342 H1319 0.950 . S
C1342 C1341 1.397 . S
C1342 C1343 1.334 . S
C1343 H1320 0.950 . S
C1343 C1342 1.334 . S
C1343 C1344 1.287 . S
C1344 C1343 1.287 . S
C1344 C1345 1.524 . S
C1344 H1363 0.913 . S
C1345 H1321 0.950 . S
C1345 C1344 1.524 . S
C1345 C1346 1.415 . S
C1346 H1322 0.950 . S
C1346 C1341 1.363 . S
C1346 C1345 1.415 . S
C1347 H1323 0.951 . S
C1347 C1348 1.366 . S
C1347 C1349 1.388 . S
C1348 C1347 1.366 . S
C1348 C1352 1.385 . S
C1349 H1324 0.951 . S
C1349 C1347 1.388 . S
C1349 C1350 1.366 . S
C1350 C1349 1.366 . S
C1350 C1351 1.414 . S
C1350 C1353 1.499 . S
C1351 H1325 0.950 . S
C1351 C1350 1.414 . S
C1351 C1352 1.374 . S
C1352 H1326 0.950 . S
C1352 C1348 1.385 . S
C1352 C1351 1.374 . S
C1353 C1350 1.499 . S
C1353 C1354 1.373 . S
C1353 C1355 1.389 . S
C1354 H1327 0.950 . S
C1354 C1340 1.377 . S
C1354 C1353 1.373 . S
C1355 C1339 1.377 . S
C1355 C1353 1.389 . S
C1355 C1356 1.524 . S
C1356 C1355 1.524 . S
C1356 C1357 1.397 . S
C1356 C1361 1.363 . S
C1357 H1328 0.950 . S
C1357 C1356 1.397 . S
C1357 C1358 1.334 . S
C1358 H1329 0.950 . S
C1358 C1357 1.334 . S
C1358 C1359 1.287 . S
C1359 C1358 1.287 . S
C1359 C1360 1.524 . S
C1359 H1362 0.999 . S
C1360 H1330 0.950 . S
C1360 C1359 1.524 . S
C1360 C1361 1.415 . S
C1361 H1331 0.950 . S
C1361 C1356 1.363 . S
C1361 C1360 1.415 . S
H1362 C1359 0.999 . S
H1363 C1344 0.913 . S
H1364 C1382 0.951 . S
H1365 C1384 0.951 . S
H1366 C1386 0.950 . S
H1367 C1387 0.950 . S
H1368 C1389 0.950 . S
H1369 C1392 0.950 . S
H1370 C1393 0.950 . S
H1371 C1395 0.950 . S
H1372 C1396 0.950 . S
H1373 C1397 0.951 . S
H1374 C1399 0.951 . S
H1375 C1401 0.950 . S
H1376 C1402 0.950 . S
H1377 C1404 0.950 . S
H1378 C1407 0.950 . S
H1379 C1408 0.950 . S
H1380 C1410 0.950 . S
H1381 C1411 0.950 . S
C1382 H1364 0.951 . S
C1382 C1383 1.366 . S
C1382 C1384 1.388 . S
C1383 C1382 1.366 . S
C1383 C1387 1.385 . S
C1384 H1365 0.951 . S
C1384 C1382 1.388 . S
C1384 C1385 1.366 . S
C1385 C1384 1.366 . S
C1385 C1386 1.414 . S
C1385 C1388 1.499 . S
C1386 H1366 0.950 . S
C1386 C1385 1.414 . S
C1386 C1387 1.374 . S
C1387 H1367 0.950 . S
C1387 C1383 1.385 . S
C1387 C1386 1.374 . S
C1388 C1385 1.499 . S
C1388 C1389 1.373 . S
C1388 C1390 1.389 . S
C1389 H1368 0.950 . S
C1389 C1388 1.373 . S
C1389 C1405 1.377 . S
C1390 C1388 1.389 . S
C1390 C1391 1.524 . S
C1390 C1404 1.377 . S
C1391 C1390 1.524 . S
C1391 C1392 1.397 . S
C1391 C1396 1.363 . S
C1392 H1369 0.950 . S
C1392 C1391 1.397 . S
C1392 C1393 1.334 . S
C1393 H1370 0.950 . S
C1393 C1392 1.334 . S
C1393 C1394 1.287 . S
C1394 C1393 1.287 . S
C1394 C1395 1.524 . S
C1394 H1413 0.913 . S
C1395 H1371 0.950 . S
C1395 C1394 1.524 . S
C1395 C1396 1.415 . S
C1396 H1372 0.950 . S
C1396 C1391 1.363 . S
C1396 C1395 1.415 . S
C1397 H1373 0.951 . S
C1397 C1398 1.366 . S
C1397 C1399 1.388 . S
C1398 C1397 1.366 . S
C1398 C1402 1.385 . S
C1399 H1374 0.951 . S
C1399 C1397 1.388 . S
C1399 C1400 1.366 . S
C1400 C1399 1.366 . S
C1400 C1401 1.414 . S
C1400 C1403 1.499 . S
C1401 H1375 0.950 . S
C1401 C1400 1.414 . S
C1401 C1402 1.374 . S
C1402 H1376 0.950 . S
C1402 C1398 1.385 . S
C1402 C1401 1.374 . S
C1403 C1400 1.499 . S
C1403 C1404 1.373 . S
C1403 C1405 1.389 . S
C1404 H1377 0.950 . S
C1404 C1390 1.377 . S
C1404 C1403 1.373 . S
C1405 C1389 1.377 . S
C1405 C1403 1.389 . S
C1405 C1406 1.524 . S
C1406 C1405 1.524 . S
C1406 C1407 1.397 . S
C1406 C1411 1.363 . S
C1407 H1378 0.950 . S
C1407 C1406 1.397 . S
C1407 C1408 1.334 . S
C1408 H1379 0.950 . S
C1408 C1407 1.334 . S
C1408 C1409 1.287 . S
C1409 C1408 1.287 . S
C1409 C1410 1.524 . S
C1409 H1412 0.999 . S
C1410 H1380 0.950 . S
C1410 C1409 1.524 . S
C1410 C1411 1.415 . S
C1411 H1381 0.950 . S
C1411 C1406 1.363 . S
C1411 C1410 1.415 . S
H1412 C1409 0.999 . S
H1413 C1394 0.913 . S
H1414 C1432 0.951 . S
H1415 C1434 0.951 . S
H1416 C1436 0.950 . S
H1417 C1437 0.950 . S
H1418 C1439 0.950 . S
H1419 C1442 0.950 . S
H1420 C1443 0.950 . S
H1421 C1445 0.950 . S
H1422 C1446 0.950 . S
H1423 C1447 0.951 . S
H1424 C1449 0.951 . S
H1425 C1451 0.950 . S
H1426 C1452 0.950 . S
H1427 C1454 0.950 . S
H1428 C1457 0.950 . S
H1429 C1458 0.950 . S
H1430 C1460 0.950 . S
H1431 C1461 0.950 . S
C1432 H1414 0.951 . S
C1432 C1433 1.366 . S
C1432 C1434 1.388 . S
C1433 C1432 1.366 . S
C1433 C1437 1.385 . S
C1434 H1415 0.951 . S
C1434 C1432 1.388 . S
C1434 C1435 1.366 . S
C1435 C1434 1.366 . S
C1435 C1436 1.414 . S
C1435 C1438 1.499 . S
C1436 H1416 0.950 . S
C1436 C1435 1.414 . S
C1436 C1437 1.374 . S
C1437 H1417 0.950 . S
C1437 C1433 1.385 . S
C1437 C1436 1.374 . S
C1438 C1435 1.499 . S
C1438 C1439 1.373 . S
C1438 C1440 1.389 . S
C1439 H1418 0.950 . S
C1439 C1438 1.373 . S
C1439 C1455 1.377 . S
C1440 C1438 1.389 . S
C1440 C1441 1.524 . S
C1440 C1454 1.377 . S
C1441 C1440 1.524 . S
C1441 C1442 1.397 . S
C1441 C1446 1.363 . S
C1442 H1419 0.950 . S
C1442 C1441 1.397 . S
C1442 C1443 1.334 . S
C1443 H1420 0.950 . S
C1443 C1442 1.334 . S
C1443 C1444 1.287 . S
C1444 C1443 1.287 . S
C1444 C1445 1.524 . S
C1444 H1463 0.913 . S
C1445 H1421 0.950 . S
C1445 C1444 1.524 . S
C1445 C1446 1.415 . S
C1446 H1422 0.950 . S
C1446 C1441 1.363 . S
C1446 C1445 1.415 . S
C1447 H1423 0.951 . S
C1447 C1448 1.366 . S
C1447 C1449 1.388 . S
C1448 C1447 1.366 . S
C1448 C1452 1.385 . S
C1449 H1424 0.951 . S
C1449 C1447 1.388 . S
C1449 C1450 1.366 . S
C1450 C1449 1.366 . S
C1450 C1451 1.414 . S
C1450 C1453 1.499 . S
C1451 H1425 0.950 . S
C1451 C1450 1.414 . S
C1451 C1452 1.374 . S
C1452 H1426 0.950 . S
C1452 C1448 1.385 . S
C1452 C1451 1.374 . S
C1453 C1450 1.499 . S
C1453 C1454 1.373 . S
C1453 C1455 1.389 . S
C1454 H1427 0.950 . S
C1454 C1440 1.377 . S
C1454 C1453 1.373 . S
C1455 C1439 1.377 . S
C1455 C1453 1.389 . S
C1455 C1456 1.524 . S
C1456 C1455 1.524 . S
C1456 C1457 1.397 . S
C1456 C1461 1.363 . S
C1457 H1428 0.950 . S
C1457 C1456 1.397 . S
C1457 C1458 1.334 . S
C1458 H1429 0.950 . S
C1458 C1457 1.334 . S
C1458 C1459 1.287 . S
C1459 C1458 1.287 . S
C1459 C1460 1.524 . S
C1459 H1462 0.999 . S
C1460 H1430 0.950 . S
C1460 C1459 1.524 . S
C1460 C1461 1.415 . S
C1461 H1431 0.950 . S
C1461 C1456 1.363 . S
C1461 C1460 1.415 . S
H1462 C1459 0.999 . S
H1463 C1444 0.913 . S
H1464 C1482 0.951 . S
H1465 C1484 0.951 . S
H1466 C1486 0.950 . S
H1467 C1487 0.950 . S
H1468 C1489 0.950 . S
H1469 C1492 0.950 . S
H1470 C1493 0.950 . S
H1471 C1495 0.950 . S
H1472 C1496 0.950 . S
H1473 C1497 0.951 . S
H1474 C1499 0.951 . S
H1475 C1501 0.950 . S
H1476 C1502 0.950 . S
H1477 C1504 0.950 . S
H1478 C1507 0.950 . S
H1479 C1508 0.950 . S
H1480 C1510 0.950 . S
H1481 C1511 0.950 . S
C1482 H1464 0.951 . S
C1482 C1483 1.366 . S
C1482 C1484 1.388 . S
C1483 C1482 1.366 . S
C1483 C1487 1.385 . S
C1484 H1465 0.951 . S
C1484 C1482 1.388 . S
C1484 C1485 1.366 . S
C1485 C1484 1.366 . S
C1485 C1486 1.414 . S
C1485 C1488 1.499 . S
C1486 H1466 0.950 . S
C1486 C1485 1.414 . S
C1486 C1487 1.374 . S
C1487 H1467 0.950 . S
C1487 C1483 1.385 . S
C1487 C1486 1.374 . S
C1488 C1485 1.499 . S
C1488 C1489 1.373 . S
C1488 C1490 1.389 . S
C1489 H1468 0.950 . S
C1489 C1488 1.373 . S
C1489 C1505 1.377 . S
C1490 C1488 1.389 . S
C1490 C1491 1.524 . S
C1490 C1504 1.377 . S
C1491 C1490 1.524 . S
C1491 C1492 1.397 . S
C1491 C1496 1.363 . S
C1492 H1469 0.950 . S
C1492 C1491 1.397 . S
C1492 C1493 1.334 . S
C1493 H1470 0.950 . S
C1493 C1492 1.334 . S
C1493 C1494 1.287 . S
C1494 C1493 1.287 . S
C1494 C1495 1.524 . S
C1494 H1513 0.913 . S
C1495 H1471 0.950 . S
C1495 C1494 1.524 . S
C1495 C1496 1.415 . S
C1496 H1472 0.950 . S
C1496 C1491 1.363 . S
C1496 C1495 1.415 . S
C1497 H1473 0.951 . S
C1497 C1498 1.366 . S
C1497 C1499 1.388 . S
C1498 C1497 1.366 . S
C1498 C1502 1.385 . S
C1499 H1474 0.951 . S
C1499 C1497 1.388 . S
C1499 C1500 1.366 . S
C1500 C1499 1.366 . S
C1500 C1501 1.414 . S
C1500 C1503 1.499 . S
C1501 H1475 0.950 . S
C1501 C1500 1.414 . S
C1501 C1502 1.374 . S
C1502 H1476 0.950 . S
C1502 C1498 1.385 . S
C1502 C1501 1.374 . S
C1503 C1500 1.499 . S
C1503 C1504 1.373 . S
C1503 C1505 1.389 . S
C1504 H1477 0.950 . S
C1504 C1490 1.377 . S
C1504 C1503 1.373 . S
C1505 C1489 1.377 . S
C1505 C1503 1.389 . S
C1505 C1506 1.524 . S
C1506 C1505 1.524 . S
C1506 C1507 1.397 . S
C1506 C1511 1.363 . S
C1507 H1478 0.950 . S
C1507 C1506 1.397 . S
C1507 C1508 1.334 . S
C1508 H1479 0.950 . S
C1508 C1507 1.334 . S
C1508 C1509 1.287 . S
C1509 C1508 1.287 . S
C1509 C1510 1.524 . S
C1509 H1512 0.999 . S
C1510 H1480 0.950 . S
C1510 C1509 1.524 . S
C1510 C1511 1.415 . S
C1511 H1481 0.950 . S
C1511 C1506 1.363 . S
C1511 C1510 1.415 . S
H1512 C1509 0.999 . S
H1513 C1494 0.913 . S
H1514 C1532 0.951 . S
H1515 C1534 0.951 . S
H1516 C1536 0.950 . S
H1517 C1537 0.950 . S
H1518 C1539 0.950 . S
H1519 C1542 0.950 . S
H1520 C1543 0.950 . S
H1521 C1545 0.950 . S
H1522 C1546 0.950 . S
H1523 C1547 0.951 . S
H1524 C1549 0.951 . S
H1525 C1551 0.950 . S
H1526 C1552 0.950 . S
H1527 C1554 0.950 . S
H1528 C1557 0.950 . S
H1529 C1558 0.950 . S
H1530 C1560 0.950 . S
H1531 C1561 0.950 . S
C1532 H1514 0.951 . S
C1532 C1533 1.366 . S
C1532 C1534 1.388 . S
C1533 C1532 1.366 . S
C1533 C1537 1.385 . S
C1534 H1515 0.951 . S
C1534 C1532 1.388 . S
C1534 C1535 1.366 . S
C1535 C1534 1.366 . S
C1535 C1536 1.414 . S
C1535 C1538 1.499 . S
C1536 H1516 0.950 . S
C1536 C1535 1.414 . S
C1536 C1537 1.374 . S
C1537 H1517 0.950 . S
C1537 C1533 1.385 . S
C1537 C1536 1.374 . S
C1538 C1535 1.499 . S
C1538 C1539 1.373 . S
C1538 C1540 1.389 . S
C1539 H1518 0.950 . S
C1539 C1538 1.373 . S
C1539 C1555 1.377 . S
C1540 C1538 1.389 . S
C1540 C1541 1.524 . S
C1540 C1554 1.377 . S
C1541 C1540 1.524 . S
C1541 C1542 1.397 . S
C1541 C1546 1.363 . S
C1542 H1519 0.950 . S
C1542 C1541 1.397 . S
C1542 C1543 1.334 . S
C1543 H1520 0.950 . S
C1543 C1542 1.334 . S
C1543 C1544 1.287 . S
C1544 C1543 1.287 . S
C1544 C1545 1.524 . S
C1544 H1563 0.913 . S
C1545 H1521 0.950 . S
C1545 C1544 1.524 . S
C1545 C1546 1.415 . S
C1546 H1522 0.950 . S
C1546 C1541 1.363 . S
C1546 C1545 1.415 . S
C1547 H1523 0.951 . S
C1547 C1548 1.366 . S
C1547 C1549 1.388 . S
C1548 C1547 1.366 . S
C1548 C1552 1.385 . S
C1549 H1524 0.951 . S
C1549 C1547 1.388 . S
C1549 C1550 1.366 . S
C1550 C1549 1.366 . S
C1550 C1551 1.414 . S
C1550 C1553 1.499 . S
C1551 H1525 0.950 . S
C1551 C1550 1.414 . S
C1551 C1552 1.374 . S
C1552 H1526 0.950 . S
C1552 C1548 1.385 . S
C1552 C1551 1.374 . S
C1553 C1550 1.499 . S
C1553 C1554 1.373 . S
C1553 C1555 1.389 . S
C1554 H1527 0.950 . S
C1554 C1540 1.377 . S
C1554 C1553 1.373 . S
C1555 C1539 1.377 . S
C1555 C1553 1.389 . S
C1555 C1556 1.524 . S
C1556 C1555 1.524 . S
C1556 C1557 1.397 . S
C1556 C1561 1.363 . S
C1557 H1528 0.950 . S
C1557 C1556 1.397 . S
C1557 C1558 1.334 . S
C1558 H1529 0.950 . S
C1558 C1557 1.334 . S
C1558 C1559 1.287 . S
C1559 C1558 1.287 . S
C1559 C1560 1.524 . S
C1559 H1562 0.999 . S
C1560 H1530 0.950 . S
C1560 C1559 1.524 . S
C1560 C1561 1.415 . S
C1561 H1531 0.950 . S
C1561 C1556 1.363 . S
C1561 C1560 1.415 . S
H1562 C1559 0.999 . S
H1563 C1544 0.913 . S
H1564 C1582 0.951 . S
H1565 C1584 0.951 . S
H1566 C1586 0.950 . S
H1567 C1587 0.950 . S
H1568 C1589 0.950 . S
H1569 C1592 0.950 . S
H1570 C1593 0.950 . S
H1571 C1595 0.950 . S
H1572 C1596 0.950 . S
H1573 C1597 0.951 . S
H1574 C1599 0.951 . S
H1575 C1601 0.950 . S
H1576 C1602 0.950 . S
H1577 C1604 0.950 . S
H1578 C1607 0.950 . S
H1579 C1608 0.950 . S
H1580 C1610 0.950 . S
H1581 C1611 0.950 . S
C1582 H1564 0.951 . S
C1582 C1583 1.366 . S
C1582 C1584 1.388 . S
C1583 C1582 1.366 . S
C1583 C1587 1.385 . S
C1584 H1565 0.951 . S
C1584 C1582 1.388 . S
C1584 C1585 1.366 . S
C1585 C1584 1.366 . S
C1585 C1586 1.414 . S
C1585 C1588 1.499 . S
C1586 H1566 0.950 . S
C1586 C1585 1.414 . S
C1586 C1587 1.374 . S
C1587 H1567 0.950 . S
C1587 C1583 1.385 . S
C1587 C1586 1.374 . S
C1588 C1585 1.499 . S
C1588 C1589 1.373 . S
C1588 C1590 1.389 . S
C1589 H1568 0.950 . S
C1589 C1588 1.373 . S
C1589 C1605 1.377 . S
C1590 C1588 1.389 . S
C1590 C1591 1.524 . S
C1590 C1604 1.377 . S
C1591 C1590 1.524 . S
C1591 C1592 1.397 . S
C1591 C1596 1.363 . S
C1592 H1569 0.950 . S
C1592 C1591 1.397 . S
C1592 C1593 1.334 . S
C1593 H1570 0.950 . S
C1593 C1592 1.334 . S
C1593 C1594 1.287 . S
C1594 C1593 1.287 . S
C1594 C1595 1.524 . S
C1594 H1613 0.913 . S
C1595 H1571 0.950 . S
C1595 C1594 1.524 . S
C1595 C1596 1.415 . S
C1596 H1572 0.950 . S
C1596 C1591 1.363 . S
C1596 C1595 1.415 . S
C1597 H1573 0.951 . S
C1597 C1598 1.366 . S
C1597 C1599 1.388 . S
C1598 C1597 1.366 . S
C1598 C1602 1.385 . S
C1599 H1574 0.951 . S
C1599 C1597 1.388 . S
C1599 C1600 1.366 . S
C1600 C1599 1.366 . S
C1600 C1601 1.414 . S
C1600 C1603 1.499 . S
C1601 H1575 0.950 . S
C1601 C1600 1.414 . S
C1601 C1602 1.374 . S
C1602 H1576 0.950 . S
C1602 C1598 1.385 . S
C1602 C1601 1.374 . S
C1603 C1600 1.499 . S
C1603 C1604 1.373 . S
C1603 C1605 1.389 . S
C1604 H1577 0.950 . S
C1604 C1590 1.377 . S
C1604 C1603 1.373 . S
C1605 C1589 1.377 . S
C1605 C1603 1.389 . S
C1605 C1606 1.524 . S
C1606 C1605 1.524 . S
C1606 C1607 1.397 . S
C1606 C1611 1.363 . S
C1607 H1578 0.950 . S
C1607 C1606 1.397 . S
C1607 C1608 1.334 . S
C1608 H1579 0.950 . S
C1608 C1607 1.334 . S
C1608 C1609 1.287 . S
C1609 C1608 1.287 . S
C1609 C1610 1.524 . S
C1609 H1612 0.999 . S
C1610 H1580 0.950 . S
C1610 C1609 1.524 . S
C1610 C1611 1.415 . S
C1611 H1581 0.950 . S
C1611 C1606 1.363 . S
C1611 C1610 1.415 . S
H1612 C1609 0.999 . S
H1613 C1594 0.913 . S
H1614 C1632 0.951 . S
H1615 C1634 0.951 . S
H1616 C1636 0.950 . S
H1617 C1637 0.950 . S
H1618 C1639 0.950 . S
H1619 C1642 0.950 . S
H1620 C1643 0.950 . S
H1621 C1645 0.950 . S
H1622 C1646 0.950 . S
H1623 C1647 0.951 . S
H1624 C1649 0.951 . S
H1625 C1651 0.950 . S
H1626 C1652 0.950 . S
H1627 C1654 0.950 . S
H1628 C1657 0.950 . S
H1629 C1658 0.950 . S
H1630 C1660 0.950 . S
H1631 C1661 0.950 . S
C1632 H1614 0.951 . S
C1632 C1633 1.366 . S
C1632 C1634 1.388 . S
C1633 C1632 1.366 . S
C1633 C1637 1.385 . S
C1634 H1615 0.951 . S
C1634 C1632 1.388 . S
C1634 C1635 1.366 . S
C1635 C1634 1.366 . S
C1635 C1636 1.414 . S
C1635 C1638 1.499 . S
C1636 H1616 0.950 . S
C1636 C1635 1.414 . S
C1636 C1637 1.374 . S
C1637 H1617 0.950 . S
C1637 C1633 1.385 . S
C1637 C1636 1.374 . S
C1638 C1635 1.499 . S
C1638 C1639 1.373 . S
C1638 C1640 1.389 . S
C1639 H1618 0.950 . S
C1639 C1638 1.373 . S
C1639 C1655 1.377 . S
C1640 C1638 1.389 . S
C1640 C1641 1.524 . S
C1640 C1654 1.377 . S
C1641 C1640 1.524 . S
C1641 C1642 1.397 . S
C1641 C1646 1.363 . S
C1642 H1619 0.950 . S
C1642 C1641 1.397 . S
C1642 C1643 1.334 . S
C1643 H1620 0.950 . S
C1643 C1642 1.334 . S
C1643 C1644 1.287 . S
C1644 C1643 1.287 . S
C1644 C1645 1.524 . S
C1644 H1663 0.913 . S
C1645 H1621 0.950 . S
C1645 C1644 1.524 . S
C1645 C1646 1.415 . S
C1646 H1622 0.950 . S
C1646 C1641 1.363 . S
C1646 C1645 1.415 . S
C1647 H1623 0.951 . S
C1647 C1648 1.366 . S
C1647 C1649 1.388 . S
C1648 C1647 1.366 . S
C1648 C1652 1.385 . S
C1649 H1624 0.951 . S
C1649 C1647 1.388 . S
C1649 C1650 1.366 . S
C1650 C1649 1.366 . S
C1650 C1651 1.414 . S
C1650 C1653 1.499 . S
C1651 H1625 0.950 . S
C1651 C1650 1.414 . S
C1651 C1652 1.374 . S
C1652 H1626 0.950 . S
C1652 C1648 1.385 . S
C1652 C1651 1.374 . S
C1653 C1650 1.499 . S
C1653 C1654 1.373 . S
C1653 C1655 1.389 . S
C1654 H1627 0.950 . S
C1654 C1640 1.377 . S
C1654 C1653 1.373 . S
C1655 C1639 1.377 . S
C1655 C1653 1.389 . S
C1655 C1656 1.524 . S
C1656 C1655 1.524 . S
C1656 C1657 1.397 . S
C1656 C1661 1.363 . S
C1657 H1628 0.950 . S
C1657 C1656 1.397 . S
C1657 C1658 1.334 . S
C1658 H1629 0.950 . S
C1658 C1657 1.334 . S
C1658 C1659 1.287 . S
C1659 C1658 1.287 . S
C1659 C1660 1.524 . S
C1659 H1662 0.999 . S
C1660 H1630 0.950 . S
C1660 C1659 1.524 . S
C1660 C1661 1.415 . S
C1661 H1631 0.950 . S
C1661 C1656 1.363 . S
C1661 C1660 1.415 . S
H1662 C1659 0.999 . S
H1663 C1644 0.913 . S
H1664 C1682 0.951 . S
H1665 C1684 0.951 . S
H1666 C1686 0.950 . S
H1667 C1687 0.950 . S
H1668 C1689 0.950 . S
H1669 C1692 0.950 . S
H1670 C1693 0.950 . S
H1671 C1695 0.950 . S
H1672 C1696 0.950 . S
H1673 C1697 0.951 . S
H1674 C1699 0.951 . S
H1675 C1701 0.950 . S
H1676 C1702 0.950 . S
H1677 C1704 0.950 . S
H1678 C1707 0.950 . S
H1679 C1708 0.950 . S
H1680 C1710 0.950 . S
H1681 C1711 0.950 . S
C1682 H1664 0.951 . S
C1682 C1683 1.366 . S
C1682 C1684 1.388 . S
C1683 C1682 1.366 . S
C1683 C1687 1.385 . S
C1684 H1665 0.951 . S
C1684 C1682 1.388 . S
C1684 C1685 1.366 . S
C1685 C1684 1.366 . S
C1685 C1686 1.414 . S
C1685 C1688 1.499 . S
C1686 H1666 0.950 . S
C1686 C1685 1.414 . S
C1686 C1687 1.374 . S
C1687 H1667 0.950 . S
C1687 C1683 1.385 . S
C1687 C1686 1.374 . S
C1688 C1685 1.499 . S
C1688 C1689 1.373 . S
C1688 C1690 1.389 . S
C1689 H1668 0.950 . S
C1689 C1688 1.373 . S
C1689 C1705 1.377 . S
C1690 C1688 1.389 . S
C1690 C1691 1.524 . S
C1690 C1704 1.377 . S
C1691 C1690 1.524 . S
C1691 C1692 1.397 . S
C1691 C1696 1.363 . S
C1692 H1669 0.950 . S
C1692 C1691 1.397 . S
C1692 C1693 1.334 . S
C1693 H1670 0.950 . S
C1693 C1692 1.334 . S
C1693 C1694 1.287 . S
C1694 C1693 1.287 . S
C1694 C1695 1.524 . S
C1694 H1713 0.913 . S
C1695 H1671 0.950 . S
C1695 C1694 1.524 . S
C1695 C1696 1.415 . S
C1696 H1672 0.950 . S
C1696 C1691 1.363 . S
C1696 C1695 1.415 . S
C1697 H1673 0.951 . S
C1697 C1698 1.366 . S
C1697 C1699 1.388 . S
C1698 C1697 1.366 . S
C1698 C1702 1.385 . S
C1699 H1674 0.951 . S
C1699 C1697 1.388 . S
C1699 C1700 1.366 . S
C1700 C1699 1.366 . S
C1700 C1701 1.414 . S
C1700 C1703 1.499 . S
C1701 H1675 0.950 . S
C1701 C1700 1.414 . S
C1701 C1702 1.374 . S
C1702 H1676 0.950 . S
C1702 C1698 1.385 . S
C1702 C1701 1.374 . S
C1703 C1700 1.499 . S
C1703 C1704 1.373 . S
C1703 C1705 1.389 . S
C1704 H1677 0.950 . S
C1704 C1690 1.377 . S
C1704 C1703 1.373 . S
C1705 C1689 1.377 . S
C1705 C1703 1.389 . S
C1705 C1706 1.524 . S
C1706 C1705 1.524 . S
C1706 C1707 1.397 . S
C1706 C1711 1.363 . S
C1707 H1678 0.950 . S
C1707 C1706 1.397 . S
C1707 C1708 1.334 . S
C1708 H1679 0.950 . S
C1708 C1707 1.334 . S
C1708 C1709 1.287 . S
C1709 C1708 1.287 . S
C1709 C1710 1.524 . S
C1709 H1712 0.999 . S
C1710 H1680 0.950 . S
C1710 C1709 1.524 . S
C1710 C1711 1.415 . S
C1711 H1681 0.950 . S
C1711 C1706 1.363 . S
C1711 C1710 1.415 . S
H1712 C1709 0.999 . S
H1713 C1694 0.913 . S
H1714 C1732 0.951 . S
H1715 C1734 0.951 . S
H1716 C1736 0.950 . S
H1717 C1737 0.950 . S
H1718 C1739 0.950 . S
H1719 C1742 0.950 . S
H1720 C1743 0.950 . S
H1721 C1745 0.950 . S
H1722 C1746 0.950 . S
H1723 C1747 0.951 . S
H1724 C1749 0.951 . S
H1725 C1751 0.950 . S
H1726 C1752 0.950 . S
H1727 C1754 0.950 . S
H1728 C1757 0.950 . S
H1729 C1758 0.950 . S
H1730 C1760 0.950 . S
H1731 C1761 0.950 . S
C1732 H1714 0.951 . S
C1732 C1733 1.366 . S
C1732 C1734 1.388 . S
C1733 C1732 1.366 . S
C1733 C1737 1.385 . S
C1734 H1715 0.951 . S
C1734 C1732 1.388 . S
C1734 C1735 1.366 . S
C1735 C1734 1.366 . S
C1735 C1736 1.414 . S
C1735 C1738 1.499 . S
C1736 H1716 0.950 . S
C1736 C1735 1.414 . S
C1736 C1737 1.374 . S
C1737 H1717 0.950 . S
C1737 C1733 1.385 . S
C1737 C1736 1.374 . S
C1738 C1735 1.499 . S
C1738 C1739 1.373 . S
C1738 C1740 1.389 . S
C1739 H1718 0.950 . S
C1739 C1738 1.373 . S
C1739 C1755 1.377 . S
C1740 C1738 1.389 . S
C1740 C1741 1.524 . S
C1740 C1754 1.377 . S
C1741 C1740 1.524 . S
C1741 C1742 1.397 . S
C1741 C1746 1.363 . S
C1742 H1719 0.950 . S
C1742 C1741 1.397 . S
C1742 C1743 1.334 . S
C1743 H1720 0.950 . S
C1743 C1742 1.334 . S
C1743 C1744 1.287 . S
C1744 C1743 1.287 . S
C1744 C1745 1.524 . S
C1744 H1763 0.913 . S
C1745 H1721 0.950 . S
C1745 C1744 1.524 . S
C1745 C1746 1.415 . S
C1746 H1722 0.950 . S
C1746 C1741 1.363 . S
C1746 C1745 1.415 . S
C1747 H1723 0.951 . S
C1747 C1748 1.366 . S
C1747 C1749 1.388 . S
C1748 C1747 1.366 . S
C1748 C1752 1.385 . S
C1749 H1724 0.951 . S
C1749 C1747 1.388 . S
C1749 C1750 1.366 . S
C1750 C1749 1.366 . S
C1750 C1751 1.414 . S
C1750 C1753 1.499 . S
C1751 H1725 0.950 . S
C1751 C1750 1.414 . S
C1751 C1752 1.374 . S
C1752 H1726 0.950 . S
C1752 C1748 1.385 . S
C1752 C1751 1.374 . S
C1753 C1750 1.499 . S
C1753 C1754 1.373 . S
C1753 C1755 1.389 . S
C1754 H1727 0.950 . S
C1754 C1740 1.377 . S
C1754 C1753 1.373 . S
C1755 C1739 1.377 . S
C1755 C1753 1.389 . S
C1755 C1756 1.524 . S
C1756 C1755 1.524 . S
C1756 C1757 1.397 . S
C1756 C1761 1.363 . S
C1757 H1728 0.950 . S
C1757 C1756 1.397 . S
C1757 C1758 1.334 . S
C1758 H1729 0.950 . S
C1758 C1757 1.334 . S
C1758 C1759 1.287 . S
C1759 C1758 1.287 . S
C1759 C1760 1.524 . S
C1759 H1762 0.999 . S
C1760 H1730 0.950 . S
C1760 C1759 1.524 . S
C1760 C1761 1.415 . S
C1761 H1731 0.950 . S
C1761 C1756 1.363 . S
C1761 C1760 1.415 . S
H1762 C1759 0.999 . S
H1763 C1744 0.913 . S
C598 C492 1.507 . S
C583 C31 1.486 . S
C648 C495 1.507 . S
C633 C61 1.486 . S
C698 C493 1.507 . S
C683 C121 1.483 . S
C748 C494 1.507 . S
C733 C211 1.483 . S
C798 C509 1.505 . S
C783 C1 1.485 . S
C848 C523 1.508 . S
C833 C91 1.489 . S
C883 C151 1.478 . S
C898 C549 1.506 . S
C948 C563 1.508 . S
C933 C181 1.488 . S
C998 C508 1.505 . S
C983 C80 1.487 . S
C1033 C140 1.486 . S
C1048 C522 1.506 . S
C1098 C548 1.505 . S
C1083 C200 1.478 . S
C1148 C562 1.508 . S
C1133 C20 1.485 . S
C1183 C271 1.488 . S
C1198 C507 1.510 . S
C1248 C480 1.507 . S
C1233 C331 1.484 . S
C1283 C380 1.487 . S
C1298 C506 1.504 . S
C1333 C421 1.486 . S
C1348 C481 1.505 . S
C1398 C536 1.504 . S
C1383 C241 1.487 . S
C1448 C550 1.508 . S
C1433 C320 1.481 . S
C1498 C520 1.505 . S
C1483 C361 1.483 . S
C1533 C440 1.489 . S
C1548 C534 1.506 . S
C1598 C537 1.505 . S
C1583 C301 1.479 . S
C1648 C551 1.508 . S
C1633 C391 1.492 . S
C1698 C521 1.505 . S
C1683 C451 1.485 . S
C1733 C260 1.487 . S
C1748 C535 1.510 . S
