# Generated by pormake.
# Topology rtl, (3,6)-cn, num edge types: 1
# Building blocks:
#     Node 0, Type 0, BuildingBlock: PAMTOO_clean_linker_0, # of connection points: 3
#     Node 1, Type 0, BuildingBlock: PAMTOO_clean_linker_0, # of connection points: 3
#     Node 2, Type 0, BuildingBlock: PAMTOO_clean_linker_0, # of connection points: 3
#     Node 3, Type 0, BuildingBlock: PAMTOO_clean_linker_0, # of connection points: 3
#     Node 4, Type 1, BuildingBlock: KUMBUR_clean_sbu_1, # of connection points: 6
#     Node 5, Type 1, BuildingBlock: KUMBUR_clean_sbu_1, # of connection points: 6
#     Edge 6, Type (0, 1), BuildingBlock: ZUJKAS_clean_linker_0, # of connection points: 2
#     Edge 7, Type (0, 1), BuildingBlock: ZUJKAS_clean_linker_0, # of connection points: 2
#     Edge 8, Type (0, 1), BuildingBlock: ZUJKAS_clean_linker_0, # of connection points: 2
#     Edge 9, Type (0, 1), BuildingBlock: ZUJKAS_clean_linker_0, # of connection points: 2
#     Edge 10, Type (0, 1), BuildingBlock: ZUJKAS_clean_linker_0, # of connection points: 2
#     Edge 11, Type (0, 1), BuildingBlock: ZUJKAS_clean_linker_0, # of connection points: 2
#     Edge 12, Type (0, 1), BuildingBlock: ZUJKAS_clean_linker_0, # of connection points: 2
#     Edge 13, Type (0, 1), BuildingBlock: ZUJKAS_clean_linker_0, # of connection points: 2
#     Edge 14, Type (0, 1), BuildingBlock: ZUJKAS_clean_linker_0, # of connection points: 2
#     Edge 15, Type (0, 1), BuildingBlock: ZUJKAS_clean_linker_0, # of connection points: 2
#     Edge 16, Type (0, 1), BuildingBlock: ZUJKAS_clean_linker_0, # of connection points: 2
#     Edge 17, Type (0, 1), BuildingBlock: ZUJKAS_clean_linker_0, # of connection points: 2
# Relax obj value: 0.051
# Max RMSD: 0.206
# Mean RMSD: 0.156
data_MOF--net-rtl--node1-KUMBUR_clean_sbu_1--node2-PAMTOO_clean_linker_0--edge1-ZUJKAS_clean_linker_0
_symmetry_space_group_name_H-M    P1
_symmetry_Int_Tables_number       1
_symmetry_cell_setting            triclinic
loop_
_symmetry_equiv_pos_as_xyz
'x, y, z'
_cell_length_a     45.363587
_cell_length_b     45.516472
_cell_length_c     34.133076
_cell_angle_alpha  81.908635
_cell_angle_beta   99.085187
_cell_angle_gamma 90.953172
loop_
_atom_site_label
_atom_site_type_symbol
_atom_site_fract_x
_atom_site_fract_y
_atom_site_fract_z
_atom_type_partial_charge
H0 H 0.16218 0.86402 0.00836 0.0
H1 H 0.22586 0.80375 0.08495 0.0
H2 H 0.22143 0.81279 0.95729 0.0
H3 H 0.22425 0.75251 0.99955 0.0
C4 C 0.24079 0.75559 0.02645 0.0
O5 O 0.24779 0.78526 0.026 0.0
H6 H 0.23029 0.74765 0.05335 0.0
C7 C 0.17982 0.84761 0.0121 0.0
C8 C 0.19003 0.83995 0.97807 0.0
C9 C 0.19256 0.83488 0.0509 0.0
C10 C 0.21602 0.81423 0.0554 0.0
C11 C 0.22624 0.80622 0.02161 0.0
C12 C 0.21352 0.81935 0.98314 0.0
H13 H 0.65608 0.66007 0.62182 0.0
H14 H 0.72254 0.71503 0.57046 0.0
H15 H 0.71408 0.71445 0.6939 0.0
H16 H 0.73259 0.77451 0.65839 0.0
C17 C 0.73712 0.76785 0.6298 0.0
O18 O 0.74265 0.7376 0.63542 0.0
H19 H 0.71686 0.77329 0.60691 0.0
C20 C 0.67409 0.67595 0.62469 0.0
C21 C 0.68326 0.68585 0.66197 0.0
C22 C 0.68811 0.68606 0.59132 0.0
C23 C 0.71118 0.70702 0.59549 0.0
C24 C 0.72038 0.71737 0.63223 0.0
C25 C 0.70673 0.70646 0.66555 0.0
H26 H 0.86029 0.14261 0.05952 0.0
H27 H 0.80199 0.20987 0.98678 0.0
H28 H 0.80899 0.19897 0.11485 0.0
H29 H 0.74885 0.2065 0.07093 0.0
C30 C 0.75289 0.22305 0.04507 0.0
O31 O 0.78303 0.22888 0.04749 0.0
H32 H 0.74487 0.21329 0.01719 0.0
C33 C 0.84399 0.16022 0.05683 0.0
C34 C 0.83593 0.16868 0.09173 0.0
C35 C 0.83215 0.17497 0.01869 0.0
C36 C 0.81174 0.19842 0.01582 0.0
C37 C 0.8033 0.20687 0.05048 0.0
C38 C 0.81568 0.19227 0.08829 0.0
H39 H 0.3667 0.36608 0.44155 0.0
H40 H 0.30991 0.30373 0.50067 0.0
H41 H 0.31455 0.3038 0.37596 0.0
H42 H 0.25407 0.289 0.39428 0.0
C43 C 0.25984 0.2835 0.42738 0.0
O44 O 0.29026 0.27853 0.43744 0.0
H45 H 0.2532 0.3029 0.44067 0.0
C46 C 0.35049 0.34834 0.44049 0.0
C47 C 0.34175 0.33689 0.40426 0.0
C48 C 0.33933 0.33665 0.47558 0.0
C49 C 0.31913 0.31289 0.47418 0.0
C50 C 0.31014 0.30113 0.43833 0.0
C51 C 0.3217 0.31292 0.40355 0.0
Tb52 Tb 0.03635 0.98023 0.51125 0.0
C53 C 0.94822 0.08086 0.50315 0.0
N54 N 0.97746 0.07956 0.51975 0.0
C55 C 0.98488 0.12874 0.48726 0.0
C56 C 0.93632 0.10582 0.47651 0.0
C57 C 0.99561 0.10346 0.5136 0.0
C58 C 0.95519 0.12978 0.4682 0.0
C59 C 0.89931 0.05845 0.49921 0.0
C60 C 0.9301 0.05751 0.51439 0.0
C61 C 0.88749 0.08257 0.47107 0.0
C62 C 0.90592 0.10632 0.45998 0.0
Tb63 Tb 0.99295 0.03771 0.56248 0.0
N64 N 0.94223 0.03517 0.54273 0.0
C65 C 0.88111 0.03593 0.51434 0.0
C66 C 0.92395 0.0151 0.56057 0.0
C67 C 0.8934 0.01451 0.5458 0.0
H68 H 0.01843 0.10281 0.52864 0.0
H69 H 0.87925 0.99798 0.55935 0.0
H70 H 0.99297 0.91953 0.5118 0.0
H71 H 0.15382 0.98879 0.5654 0.0
H72 H 0.93259 0.99985 0.58684 0.0
H73 H 0.85735 0.03578 0.50346 0.0
H74 H 0.10539 0.00461 0.52386 0.0
H75 H 0.99946 0.14742 0.48176 0.0
H76 H 0.86392 0.08359 0.45885 0.0
H77 H 0.8963 0.12529 0.43945 0.0
H78 H 0.99181 0.871 0.55362 0.0
H79 H 0.94691 0.14939 0.44786 0.0
H80 H 0.15731 0.94176 0.61232 0.0
N81 N 0.03383 0.93286 0.54439 0.0
C82 C 0.05862 0.92314 0.57057 0.0
C83 C 0.01052 0.88569 0.55932 0.0
C84 C 0.05969 0.89494 0.59392 0.0
C85 C 0.01088 0.91366 0.53635 0.0
C86 C 0.03476 0.87654 0.58893 0.0
N87 N 0.08187 0.96738 0.54807 0.0
C88 C 0.10681 0.98413 0.54436 0.0
C89 C 0.11076 0.93077 0.59602 0.0
C90 C 0.08378 0.94068 0.57168 0.0
C91 C 0.13611 0.94857 0.59411 0.0
C92 C 0.13422 0.97517 0.56771 0.0
H93 H 0.03463 0.85471 0.60629 0.0
H94 H 0.08713 0.86413 0.63868 0.0
H95 H 0.1319 0.89559 0.64054 0.0
O96 O 0.0546 0.99373 0.45864 0.0
O97 O 0.05354 0.99329 0.57029 0.0
O98 O 0.01233 0.99759 0.59965 0.0
O99 O 0.04535 0.94795 0.47607 0.0
O100 O 0.05147 0.02663 0.50263 0.0
O101 O 0.03933 0.04986 0.55504 0.0
O102 O 0.96866 0.0554 0.6016 0.0
O103 O 0.99637 0.04511 0.49838 0.0
O104 O 0.99367 0.99892 0.47899 0.0
O105 O 0.016 0.0611 0.60673 0.0
O106 O 0.9809 0.99029 0.57211 0.0
O107 O 0.98867 0.97138 0.51501 0.0
C108 C 0.03991 0.98867 0.60168 0.0
C109 C 0.04202 0.96429 0.40704 0.0
C110 C 0.04875 0.95012 0.34251 0.0
C111 C 0.0191 0.95898 0.32713 0.0
C112 C 0.01252 0.97278 0.39119 0.0
C113 C 1.00118 0.97022 0.35138 0.0
C114 C 0.06003 0.95291 0.38272 0.0
C115 C 0.05529 0.04767 0.52614 0.0
C116 C 0.05438 0.96718 0.44879 0.0
C117 C 0.086 0.88555 0.62008 0.0
C118 C 0.11154 0.90341 0.62103 0.0
C119 C 0.9869 0.02731 0.47207 0.0
C120 C 0.99499 0.05549 0.66659 0.0
C121 C 0.97796 0.06014 0.72998 0.0
C122 C 0.99808 0.03745 0.7492 0.0
C123 C 0.0149 0.03294 0.68647 0.0
C124 C 0.97664 0.06908 0.68849 0.0
C125 C 0.01638 0.02401 0.72752 0.0
C126 C 0.97464 0.97125 0.54615 0.0
C127 C 0.9924 0.06441 0.62293 0.0
H128 H 0.00958 0.9568 0.29653 0.0
H129 H 0.99833 0.98133 0.40962 0.0
H130 H 0.97836 0.97683 0.33931 0.0
H131 H 0.08291 0.94657 0.39503 0.0
H132 H 0.99997 0.03032 0.78114 0.0
H133 H 0.02929 0.0222 0.67032 0.0
H134 H 0.96098 0.08622 0.67304 0.0
H135 H 0.03177 0.00662 0.7426 0.0
Tb136 Tb 0.48944 0.48951 0.9956 0.0
C137 C 0.59112 0.57242 0.04359 0.0
N138 N 0.58831 0.54307 0.05652 0.0
C139 C 0.63815 0.53409 0.0456 0.0
C140 C 0.6172 0.58365 0.02944 0.0
C141 C 0.61162 0.52395 0.05879 0.0
C142 C 0.64083 0.56402 0.0304 0.0
C143 C 0.56985 0.62185 0.03243 0.0
C144 C 0.56775 0.59112 0.045 0.0
C145 C 0.59523 0.63309 0.01665 0.0
C146 C 0.61889 0.61403 0.01523 0.0
Tb147 Tb 0.54437 0.52874 0.07788 0.0
N148 N 0.54378 0.57942 0.06093 0.0
C149 C 0.5469 0.64044 0.03746 0.0
C150 C 0.52285 0.59788 0.06936 0.0
C151 C 0.52359 0.62845 0.05674 0.0
H152 H 0.60956 0.50079 0.07024 0.0
H153 H 0.50648 0.6428 0.06259 0.0
H154 H 0.42938 0.53458 0.97068 0.0
H155 H 0.49545 0.37157 0.04267 0.0
H156 H 0.50584 0.58933 0.0866 0.0
H157 H 0.54763 0.66417 0.02817 0.0
H158 H 0.51364 0.42054 0.01497 0.0
H159 H 0.65641 0.51881 0.04693 0.0
H160 H 0.59712 0.65659 0.00646 0.0
H161 H 0.63859 0.62307 1.00375 0.0
H162 H 0.37856 0.53535 0.98703 0.0
H163 H 0.6613 0.57178 0.01991 0.0
H164 H 0.44548 0.36746 0.06351 0.0
N165 N 0.4406 0.49235 1.00515 0.0
C166 C 0.42934 0.46704 0.02324 0.0
C167 C 0.3928 0.51617 0.99815 0.0
C168 C 0.39975 0.46575 0.03123 0.0
C169 C 0.42205 0.516 0.98997 0.0
C170 C 0.38177 0.49113 0.01963 0.0
N171 N 0.47494 0.44375 0.02188 0.0
C172 C 0.49198 0.41888 0.02442 0.0
C173 C 0.43544 0.41432 0.04663 0.0
C174 C 0.44684 0.44167 0.03091 0.0
C175 C 0.45341 0.38893 0.05152 0.0
C176 C 0.48166 0.39117 0.03986 0.0
H177 H 0.35893 0.49111 0.02528 0.0
H178 H 0.36607 0.43751 0.05543 0.0
H179 H 0.3973 0.3924 0.06861 0.0
O180 O 0.50523 0.47176 0.94906 0.0
O181 O 0.4983 0.47002 0.05937 0.0
O182 O 0.50242 0.5098 0.0938 0.0
O183 O 0.45909 0.48314 0.94407 0.0
O184 O 0.53618 0.47455 0.00817 0.0
O185 O 0.55555 0.48251 0.07338 0.0
O186 O 0.55734 0.55087 0.12816 0.0
O187 O 0.55463 0.52812 0.01688 0.0
O188 O 0.50958 0.53201 0.97524 0.0
O189 O 0.56563 0.50433 0.13161 0.0
O190 O 0.49688 0.54174 0.06522 0.0
O191 O 0.48081 0.53667 0.9987 0.0
C192 C 0.493 0.48281 0.08971 0.0
C193 C 0.47882 0.48588 0.88399 0.0
C194 C 0.46508 0.48078 0.81303 0.0
C195 C 0.47719 0.50905 0.80311 0.0
C196 C 0.49066 0.51397 0.87343 0.0
C197 C 0.48988 0.52544 0.83315 0.0
C198 C 0.46608 0.46938 0.85382 0.0
C199 C 0.55511 0.46833 0.04195 0.0
C200 C 0.47937 0.47341 0.92622 0.0
C201 C 0.38867 0.43888 0.04876 0.0
C202 C 0.40643 0.41316 0.05622 0.0
C203 C 0.53809 0.53853 0.98271 0.0
C204 C 0.59944 0.53139 0.1736 0.0
C205 C 0.63019 0.55062 0.23011 0.0
C206 C 0.65564 0.53886 0.21892 0.0
C207 C 0.62512 0.51918 0.16393 0.0
C208 C 0.60209 0.54702 0.20681 0.0
C209 C 0.65304 0.52322 0.18621 0.0
C210 C 0.47948 0.54961 0.03065 0.0
C211 C 0.56964 0.52744 0.1503 0.0
H212 H 0.47645 0.51874 0.77212 0.0
H213 H 0.50041 0.52695 0.8963 0.0
H214 H 0.49899 0.5472 0.82517 0.0
H215 H 0.45727 0.44752 0.86224 0.0
H216 H 0.67768 0.54177 0.23541 0.0
H217 H 0.62367 0.50627 0.13949 0.0
H218 H 0.58215 0.5557 0.21497 0.0
H219 H 0.67276 0.51399 0.17826 0.0
H220 H 0.24305 0.23529 0.38901 0.0
H221 H 0.2108 0.19389 0.40958 0.0
H222 H 0.20604 0.22925 0.51917 0.0
H223 H 0.2381 0.27072 0.49851 0.0
H224 H 0.21617 0.1502 0.47898 0.0
H225 H 0.11778 0.22362 0.46844 0.0
H226 H 0.15058 0.23572 0.44697 0.0
H227 H 0.15079 0.23389 0.49995 0.0
C228 C 0.23523 0.23405 0.41758 0.0
C229 C 0.24255 0.25647 0.44183 0.0
C230 C 0.21684 0.21043 0.42932 0.0
C231 C 0.20542 0.20879 0.46552 0.0
C232 C 0.21398 0.2304 0.4907 0.0
H233 H 0.07436 0.09244 0.57038 0.0
H234 H 0.11184 0.13035 0.55744 0.0
C235 C 0.23241 0.25398 0.479 0.0
C236 C 0.18404 0.18493 0.4764 0.0
H237 H 0.11212 0.17306 0.49305 0.0
C238 C 0.19341 0.15518 0.48204 0.0
C239 C 0.15433 0.19141 0.48049 0.0
C240 C 0.14257 0.22285 0.47335 0.0
C241 C 0.17404 0.13179 0.49209 0.0
C242 C 0.14421 0.13825 0.49572 0.0
C243 C 0.13494 0.16804 0.49036 0.0
C244 C 0.12205 0.11451 0.50421 0.0
C245 C 0.18593 0.1004 0.49949 0.0
C246 C 0.11497 0.09306 0.47843 0.0
C247 C 0.09358 0.07129 0.48577 0.0
C248 C 0.07845 0.07057 0.51891 0.0
C249 C 0.08548 0.0922 0.54458 0.0
C250 C 0.10695 0.11395 0.53723 0.0
H251 H 0.21065 0.09981 0.50748 0.0
H252 H 0.1762 0.08683 0.5239 0.0
H253 H 0.17995 0.09006 0.47176 0.0
H254 H 0.12566 0.09341 0.45216 0.0
H255 H 0.08869 0.05522 0.46509 0.0
H256 H 0.26843 0.74796 0.96276 0.0
H257 H 0.31067 0.71495 0.96203 0.0
H258 H 0.31764 0.69026 0.08986 0.0
H259 H 0.27538 0.72303 0.09059 0.0
H260 H 0.37076 0.71191 1.00493 0.0
H261 H 0.30583 0.61051 0.04441 0.0
H262 H 0.2884 0.64633 0.02693 0.0
H263 H 0.30647 0.63766 0.07798 0.0
C264 C 0.27917 0.73556 0.99066 0.0
C265 C 0.26837 0.7375 0.0266 0.0
C266 C 0.30325 0.71679 0.99024 0.0
C267 C 0.31688 0.69969 0.02576 0.0
C268 C 0.30703 0.70277 0.06199 0.0
H269 H 0.4523 0.56285 0.09167 0.0
H270 H 0.4138 0.60036 0.08895 0.0
C271 C 0.28301 0.72154 0.06242 0.0
C272 C 0.34075 0.67796 0.02487 0.0
H273 H 0.35741 0.6039 0.04389 0.0
C274 C 0.36785 0.68827 0.01325 0.0
C275 C 0.33683 0.64713 0.03558 0.0
C276 C 0.30774 0.63462 0.0466 0.0
C277 C 0.39147 0.66862 0.01321 0.0
C278 C 0.38762 0.6378 0.02434 0.0
C279 C 0.36037 0.62752 0.03548 0.0
C280 C 0.41173 0.6158 0.02565 0.0
C281 C 0.42063 0.68106 1.00239 0.0
C282 C 0.42327 0.61183 0.99088 0.0
C283 C 0.44543 0.59044 0.99241 0.0
C284 C 0.45626 0.57252 0.02867 0.0
C285 C 0.44458 0.57648 0.06335 0.0
C286 C 0.4225 0.59784 0.06182 0.0
H287 H 0.42243 0.70522 1.00422 0.0
H288 H 0.43989 0.66949 0.02241 0.0
H289 H 0.42213 0.67775 0.97118 0.0
H290 H 0.41489 0.62502 0.96247 0.0
H291 H 0.45407 0.58788 0.96524 0.0
H292 H 0.73703 0.81378 0.5684 0.0
H293 H 0.77855 0.84576 0.55194 0.0
H294 H 0.83804 0.79503 0.64764 0.0
H295 H 0.79638 0.76285 0.6642 0.0
H296 H 0.8128 0.88064 0.60353 0.0
H297 H 0.88428 0.80088 0.55161 0.0
H298 H 0.84541 0.79387 0.55514 0.0
H299 H 0.87302 0.78888 0.59948 0.0
C300 C 0.75907 0.80908 0.58546 0.0
C301 C 0.76356 0.7854 0.6171 0.0
C302 C 0.78277 0.82747 0.57613 0.0
C303 C 0.81156 0.82263 0.59816 0.0
C304 C 0.8162 0.79886 0.62964 0.0
H305 H 0.95763 0.94853 0.6175 0.0
H306 H 0.91835 0.91235 0.62932 0.0
C307 C 0.79241 0.78049 0.63911 0.0
C308 C 0.83613 0.84359 0.5896 0.0
H309 H 0.90488 0.84836 0.55985 0.0
C310 C 0.8329 0.87356 0.59393 0.0
C311 C 0.86227 0.83446 0.5767 0.0
C312 C 0.8665 0.80283 0.57007 0.0
C313 C 0.85522 0.89447 0.58636 0.0
C314 C 0.88163 0.88522 0.57433 0.0
C315 C 0.88471 0.85538 0.56933 0.0
C316 C 0.90624 0.90635 0.5671 0.0
C317 C 0.85031 0.92646 0.59087 0.0
C318 C 0.91288 0.91467 0.52825 0.0
C319 C 0.9352 0.93562 0.52132 0.0
C320 C 0.9515 0.9484 0.55322 0.0
C321 C 0.94525 0.93942 0.5922 0.0
C322 C 0.92283 0.9187 0.59904 0.0
H323 H 0.82662 0.9311 0.5926 0.0
H324 H 0.86425 0.93163 0.61879 0.0
H325 H 0.85712 0.94153 0.56536 0.0
H326 H 0.90038 0.9054 0.50317 0.0
H327 H 0.93941 0.94212 0.49095 0.0
H328 H 0.71757 0.25652 0.98243 0.0
H329 H 0.68672 0.29984 0.9846 0.0
H330 H 0.71858 0.2957 0.1112 0.0
H331 H 0.74963 0.25239 0.10899 0.0
H332 H 0.64112 0.29999 0.03242 0.0
H333 H 0.72783 0.38412 0.06787 0.0
H334 H 0.73586 0.35065 0.04858 0.0
H335 H 0.73191 0.34925 0.10034 0.0
C336 C 0.7182 0.26508 0.01059 0.0
C337 C 0.73575 0.25106 0.04564 0.0
C338 C 0.70059 0.28978 0.01183 0.0
C339 C 0.70048 0.30113 0.048 0.0
C340 C 0.71864 0.28761 0.08285 0.0
H341 H 0.59515 0.44387 0.10711 0.0
H342 H 0.63048 0.4031 0.11027 0.0
C343 C 0.73622 0.26284 0.08164 0.0
C344 C 0.67995 0.32589 0.04953 0.0
H345 H 0.67763 0.39776 0.06751 0.0
C346 C 0.64911 0.32138 0.04002 0.0
C347 C 0.6904 0.35368 0.05988 0.0
C348 C 0.7233 0.35995 0.06947 0.0
C349 C 0.62842 0.34387 0.04055 0.0
C350 C 0.63885 0.37191 0.04999 0.0
C351 C 0.66968 0.37629 0.0602 0.0
C352 C 0.61807 0.39717 0.04803 0.0
C353 C 0.59553 0.33722 0.03152 0.0
C354 C 0.5998 0.40778 0.01185 0.0
C355 C 0.57958 0.43092 0.00994 0.0
C356 C 0.57728 0.44423 0.04416 0.0
C357 C 0.59617 0.43407 0.08022 0.0
C358 C 0.61642 0.41079 0.08208 0.0
H359 H 0.59119 0.313 0.03664 0.0
H360 H 0.58259 0.34843 0.05023 0.0
H361 H 0.58719 0.34538 0.99956 0.0
H362 H 0.60118 0.3981 0.98495 0.0
H363 H 0.5657 0.43831 0.98151 0.0
H364 H 0.22427 0.8481 0.12164 0.0
H365 H 0.20444 0.86458 0.17791 0.0
H366 H 0.11476 0.85761 0.11557 0.0
H367 H 0.13428 0.84062 0.05989 0.0
H368 H 0.16909 0.91512 0.17502 0.0
H369 H 0.10999 0.81318 0.22731 0.0
H370 H 0.13785 0.81327 0.19488 0.0
H371 H 0.10023 0.8251 0.17448 0.0
C372 C 0.20032 0.84961 0.12029 0.0
C373 C 0.18085 0.84311 0.08627 0.0
C374 C 0.18904 0.85917 0.15232 0.0
C375 C 0.15811 0.862 0.15113 0.0
C376 C 0.13867 0.85512 0.11747 0.0
H377 H 0.0529 0.96965 0.26391 0.0
H378 H 0.08208 0.94805 0.22062 0.0
C379 C 0.14989 0.84571 0.08547 0.0
C380 C 0.14595 0.87361 0.18392 0.0
H381 H 0.09626 0.85802 0.24937 0.0
C382 C 0.15345 0.90252 0.19165 0.0
C383 C 0.12584 0.85703 0.20596 0.0
C384 C 0.1182 0.82531 0.20058 0.0
C385 C 0.14036 0.91574 0.21958 0.0
C386 C 0.11891 0.89977 0.23989 0.0
C387 C 0.11244 0.87039 0.23346 0.0
C388 C 0.1021 0.91345 0.26676 0.0
C389 C 0.14953 0.94675 0.22695 0.0
C390 C 0.10317 0.90086 0.30695 0.0
C391 C 0.08624 0.913 0.33173 0.0
C392 C 0.06767 0.93782 0.31667 0.0
C393 C 0.06675 0.9504 0.2764 0.0
C394 C 0.08371 0.93829 0.25171 0.0
H395 H 0.17186 0.95235 0.2186 0.0
H396 H 0.13315 0.96286 0.20835 0.0
H397 H 0.15004 0.94946 0.25888 0.0
H398 H 0.117 0.88152 0.31909 0.0
H399 H 0.08718 0.90253 0.36242 0.0
H400 H 0.62338 0.68133 0.66447 0.0
H401 H 0.59868 0.6594 0.72032 0.0
H402 H 0.68459 0.64048 0.7936 0.0
H403 H 0.70931 0.66334 0.73811 0.0
H404 H 0.59942 0.60497 0.75635 0.0
H405 H 0.64398 0.67566 0.87114 0.0
H406 H 0.64868 0.68484 0.81936 0.0
H407 H 0.6732 0.65834 0.85271 0.0
C408 C 0.63699 0.67277 0.69266 0.0
C409 C 0.66832 0.67419 0.69691 0.0
C410 C 0.62284 0.66021 0.72462 0.0
C411 C 0.63963 0.64858 0.76163 0.0
C412 C 0.67098 0.65003 0.76593 0.0
H413 H 0.59623 0.53561 0.97153 0.0
H414 H 0.6203 0.56368 0.91879 0.0
C415 C 0.68515 0.663 0.73409 0.0
C416 C 0.62428 0.63358 0.79471 0.0
H417 H 0.61949 0.63112 0.89429 0.0
C418 C 0.60367 0.61096 0.78637 0.0
C419 C 0.62962 0.64128 0.83408 0.0
C420 C 0.64984 0.66656 0.84479 0.0
C421 C 0.58883 0.59558 0.81621 0.0
C422 C 0.59468 0.60289 0.85557 0.0
C423 C 0.61514 0.62549 0.86407 0.0
C424 C 0.5801 0.58689 0.88842 0.0
C425 C 0.56729 0.57125 0.80567 0.0
C426 C 0.54956 0.59085 0.88918 0.0
C427 C 0.5359 0.57529 0.91991 0.0
C428 C 0.55249 0.55532 0.95029 0.0
C429 C 0.58301 0.55136 0.94925 0.0
C430 C 0.59675 0.5672 0.9189 0.0
H431 H 0.56886 0.56495 0.77578 0.0
H432 H 0.57144 0.55123 0.82853 0.0
H433 H 0.54416 0.57898 0.80531 0.0
H434 H 0.53632 0.60604 0.86604 0.0
H435 H 0.51236 0.57892 0.91994 0.0
H436 H 0.86095 0.19277 0.15816 0.0
H437 H 0.88533 0.16647 0.22244 0.0
H438 H 0.864 0.08265 0.17973 0.0
H439 H 0.84036 0.10887 0.11514 0.0
H440 H 0.86524 0.12787 0.27853 0.0
H441 H 0.95205 0.07238 0.21688 0.0
H442 H 0.92835 0.10146 0.18737 0.0
H443 H 0.91481 0.06401 0.19505 0.0
C444 C 0.86139 0.16874 0.16261 0.0
C445 C 0.84903 0.15286 0.13157 0.0
C446 C 0.87538 0.15373 0.19927 0.0
C447 C 0.87713 0.12257 0.20564 0.0
C448 C 0.86381 0.10668 0.17513 0.0
H449 H 0.94736 0.99947 0.42034 0.0
H450 H 0.91975 0.0214 0.35519 0.0
C451 C 0.85015 0.12167 0.13833 0.0
C452 C 0.89265 0.10681 0.24433 0.0
H453 H 0.94894 0.0575 0.28565 0.0
C454 C 0.88353 0.11251 0.28 0.0
C455 C 0.91666 0.0868 0.24634 0.0
C456 C 0.92877 0.08099 0.20941 0.0
C457 C 0.89768 0.09876 0.3175 0.0
C458 C 0.92149 0.07875 0.31941 0.0
C459 C 0.93045 0.07269 0.2839 0.0
C460 C 0.9384 0.06521 0.35822 0.0
C461 C 0.88737 0.10589 0.35497 0.0
C462 C 0.95831 0.08252 0.38091 0.0
C463 C 0.97439 0.06998 0.41757 0.0
C464 C 0.97055 0.04002 0.43252 0.0
C465 C 0.95081 0.02261 0.40951 0.0
C466 C 0.93496 0.0351 0.37247 0.0
H467 H 0.8654 0.11745 0.34844 0.0
H468 H 0.88573 0.08533 0.37628 0.0
H469 H 0.90404 0.12055 0.36981 0.0
H470 H 0.9615 0.10572 0.37014 0.0
H471 H 0.98999 0.08374 0.43411 0.0
H472 H 0.34659 0.39522 0.48467 0.0
H473 H 0.36648 0.41624 0.54535 0.0
H474 H 0.37294 0.3286 0.61327 0.0
H475 H 0.35403 0.3072 0.55218 0.0
H476 H 0.34619 0.41456 0.61712 0.0
H477 H 0.45746 0.36013 0.63909 0.0
H478 H 0.43122 0.36088 0.59334 0.0
H479 H 0.42633 0.33517 0.63685 0.0
C480 C 0.35245 0.38033 0.51243 0.0
C481 C 0.3491 0.34945 0.51339 0.0
C482 C 0.36362 0.39243 0.54718 0.0
C483 C 0.37172 0.37399 0.58375 0.0
C484 C 0.36742 0.34323 0.58523 0.0
H485 H 0.41444 0.44667 0.81104 0.0
H486 H 0.39158 0.41894 0.75775 0.0
C487 C 0.35627 0.33106 0.55036 0.0
C488 C 0.38493 0.38721 0.61995 0.0
H489 H 0.4485 0.3891 0.68824 0.0
C490 C 0.3685 0.40889 0.63282 0.0
C491 C 0.4142 0.38007 0.64008 0.0
C492 C 0.4335 0.358 0.62653 0.0
C493 C 0.38059 0.42378 0.66503 0.0
C494 C 0.40973 0.4164 0.68545 0.0
C495 C 0.42609 0.39457 0.67277 0.0
C496 C 0.4242 0.43208 0.71879 0.0
C497 C 0.36241 0.448 0.67598 0.0
C498 C 0.4507 0.4479 0.71526 0.0
C499 C 0.46407 0.46344 0.74592 0.0
C500 C 0.45129 0.46344 0.78091 0.0
C501 C 0.42504 0.44704 0.78468 0.0
C502 C 0.41171 0.43144 0.75401 0.0
H503 H 0.34391 0.45585 0.6515 0.0
H504 H 0.35246 0.43929 0.70295 0.0
H505 H 0.37663 0.46725 0.68299 0.0
H506 H 0.46086 0.44854 0.68849 0.0
H507 H 0.48454 0.47534 0.74225 0.0
H508 H 0.68294 0.71623 0.51476 0.0
H509 H 0.66967 0.69616 0.45141 0.0
H510 H 0.65942 0.60926 0.51638 0.0
H511 H 0.67326 0.62886 0.57974 0.0
H512 H 0.69938 0.65016 0.42496 0.0
H513 H 0.58125 0.62144 0.43528 0.0
H514 H 0.6022 0.64651 0.46563 0.0
H515 H 0.60728 0.60708 0.47882 0.0
C516 C 0.67798 0.69281 0.51564 0.0
C517 C 0.6791 0.67423 0.55252 0.0
C518 C 0.67021 0.68143 0.47937 0.0
C519 C 0.6631 0.65131 0.47915 0.0
C520 C 0.66414 0.63271 0.5158 0.0
H521 H 0.66689 0.53579 0.30185 0.0
H522 H 0.67385 0.56215 0.3601 0.0
C523 C 0.67203 0.64401 0.55206 0.0
C524 C 0.65606 0.63895 0.44071 0.0
H525 H 0.60264 0.60168 0.38487 0.0
C526 C 0.67814 0.63979 0.41603 0.0
C527 C 0.62822 0.62568 0.42887 0.0
C528 C 0.60323 0.6253 0.4533 0.0
C529 C 0.67351 0.62681 0.38058 0.0
C530 C 0.64617 0.61245 0.36963 0.0
C531 C 0.62367 0.6125 0.39351 0.0
C532 C 0.64113 0.59629 0.3343 0.0
C533 C 0.69799 0.62838 0.35514 0.0
C534 C 0.61991 0.60639 0.30069 0.0
C535 C 0.61605 0.5915 0.26695 0.0
C536 C 0.63321 0.56609 0.26636 0.0
C537 C 0.65381 0.55567 0.3007 0.0
C538 C 0.65775 0.57063 0.33419 0.0
H539 H 0.71459 0.64578 0.36253 0.0
H540 H 0.70982 0.6067 0.36045 0.0
H541 H 0.68858 0.63298 0.3228 0.0
H542 H 0.60677 0.62611 0.30028 0.0
H543 H 0.60013 0.6003 0.24105 0.0
H544 H 0.83934 0.11866 1.00232 0.0
H545 H 0.85993 0.10363 0.94617 0.0
H546 H 0.86648 0.19543 0.89592 0.0
H547 H 0.84666 0.21074 0.95279 0.0
H548 H 0.841 0.11436 0.86296 0.0
H549 H 0.95214 0.16422 0.9063 0.0
H550 H 0.92465 0.15905 0.93949 0.0
H551 H 0.92076 0.18907 0.89876 0.0
C552 C 0.84523 0.13569 0.9794 0.0
C553 C 0.84174 0.16593 0.98235 0.0
C554 C 0.8568 0.12705 0.94717 0.0
C555 C 0.86522 0.14841 0.91723 0.0
C556 C 0.86062 0.17859 0.91909 0.0
H557 H 0.96471 0.11927 0.72516 0.0
H558 H 0.9346 0.14252 0.76617 0.0
C559 C 0.84901 0.18729 0.95139 0.0
C560 C 0.87967 0.13883 0.88496 0.0
H561 H 0.94593 0.13998 0.8491 0.0
C562 C 0.86387 0.12012 0.85973 0.0
C563 C 0.90951 0.14641 0.88075 0.0
C564 C 0.92793 0.16559 0.90789 0.0
C565 C 0.87723 0.10849 0.83073 0.0
C566 C 0.90734 0.11535 0.82735 0.0
C567 C 0.92284 0.13477 0.85173 0.0
C568 C 0.9238 0.10121 0.80054 0.0
C569 C 0.85897 0.08894 0.804 0.0
C570 C 0.92778 0.07031 0.8063 0.0
C571 C 0.94487 0.05699 0.78292 0.0
C572 C 0.95853 0.07431 0.75338 0.0
C573 C 0.95422 0.10527 0.74733 0.0
C574 C 0.93715 0.1186 0.77086 0.0
H575 H 0.83467 0.09314 0.80179 0.0
H576 H 0.86497 0.09244 0.77337 0.0
H577 H 0.86338 0.06535 0.81678 0.0
H578 H 0.91818 0.05649 0.82952 0.0
H579 H 0.94749 0.03308 0.78811 0.0
H580 H 0.36467 0.30875 0.34927 0.0
H581 H 0.38957 0.33175 0.2937 0.0
H582 H 0.37091 0.41848 0.32122 0.0
H583 H 0.34635 0.39575 0.37664 0.0
H584 H 0.37115 0.37276 0.22526 0.0
H585 H 0.46117 0.4202 0.32685 0.0
H586 H 0.43579 0.39245 0.34488 0.0
H587 H 0.4245 0.43081 0.33326 0.0
C588 C 0.3656 0.33272 0.34312 0.0
C589 C 0.35392 0.3504 0.36775 0.0
C590 C 0.37993 0.34584 0.31148 0.0
C591 C 0.38282 0.37685 0.30391 0.0
C592 C 0.36978 0.39451 0.32717 0.0
H593 H 0.45981 0.50612 0.13806 0.0
H594 H 0.43278 0.47932 0.18876 0.0
C595 C 0.35565 0.38147 0.35879 0.0
C596 C 0.39983 0.39093 0.27229 0.0
H597 H 0.45809 0.43764 0.25719 0.0
C598 C 0.39032 0.38672 0.23227 0.0
C599 C 0.42495 0.40912 0.28141 0.0
C600 C 0.43742 0.41322 0.32396 0.0
C601 C 0.40464 0.40095 0.20108 0.0
C602 C 0.4293 0.41963 0.21018 0.0
C603 C 0.43906 0.42348 0.25021 0.0
C604 C 0.44517 0.43565 0.17862 0.0
C605 C 0.39275 0.39672 0.15846 0.0
C606 C 0.46151 0.42004 0.15646 0.0
C607 C 0.47725 0.43534 0.1278 0.0
C608 C 0.47673 0.46652 0.12045 0.0
C609 C 0.4606 0.48209 0.14296 0.0
C610 C 0.44505 0.46681 0.17181 0.0
H611 H 0.37046 0.38602 0.1557 0.0
H612 H 0.39103 0.4184 0.13874 0.0
H613 H 0.40841 0.38242 0.14761 0.0
H614 H 0.4625 0.39603 0.16179 0.0
H615 H 0.49017 0.42276 0.11179 0.0
H616 H 0.13045 0.84657 0.95012 0.0
H617 H 0.10649 0.87082 0.88465 0.0
H618 H 0.1929 0.88833 0.84899 0.0
H619 H 0.21703 0.86365 0.91445 0.0
H620 H 0.11174 0.92798 0.85255 0.0
H621 H 0.14881 0.85414 0.75325 0.0
H622 H 0.15253 0.84392 0.80685 0.0
H623 H 0.17887 0.86879 0.78555 0.0
C624 C 0.14435 0.85548 0.92826 0.0
C625 C 0.17563 0.85327 0.93743 0.0
C626 C 0.13063 0.86925 0.89082 0.0
C627 C 0.14784 0.88112 0.8617 0.0
C628 C 0.17911 0.87874 0.87061 0.0
H629 H 0.09944 0.99062 0.63008 0.0
H630 H 0.1262 0.96441 0.69305 0.0
C631 C 0.19288 0.86473 0.90805 0.0
C632 C 0.13294 0.8973 0.82297 0.0
H633 H 0.12395 0.89877 0.72134 0.0
C634 C 0.11434 0.92149 0.8239 0.0
C635 C 0.1364 0.88889 0.78554 0.0
C636 C 0.15501 0.86235 0.78259 0.0
C637 C 0.09924 0.93753 0.78852 0.0
C638 C 0.10267 0.92908 0.75124 0.0
C639 C 0.12146 0.90515 0.7501 0.0
C640 C 0.08653 0.94466 0.71311 0.0
C641 C 0.07995 0.96365 0.79113 0.0
C642 C 0.05544 0.94207 0.70359 0.0
C643 C 0.04023 0.95665 0.66746 0.0
C644 C 0.05591 0.97394 0.64025 0.0
C645 C 0.08696 0.97687 0.65015 0.0
C646 C 0.10221 0.96208 0.68612 0.0
H647 H 0.084 0.97068 0.8214 0.0
H648 H 0.08409 0.98279 0.76869 0.0
H649 H 0.0561 0.95747 0.78445 0.0
H650 H 0.043 0.92856 0.724 0.0
H651 H 0.01626 0.95406 0.66054 0.0
loop_
_geom_bond_atom_site_label_1
_geom_bond_atom_site_label_2
_geom_bond_distance
_geom_bond_site_symmetry_2
_ccdc_geom_bond_type
H0 C7 0.929 . S
H1 C10 0.930 . S
H2 C12 0.929 . S
H3 C4 0.969 . S
C4 H3 0.969 . S
C4 O5 1.550 . S
C4 H6 0.973 . S
O5 C4 1.550 . S
O5 C11 1.412 . S
H6 C4 0.973 . S
C7 H0 0.929 . S
C7 C8 1.400 1_554 S
C7 C9 1.364 . S
C8 C7 1.400 1_556 S
C8 C12 1.377 . S
C9 C7 1.364 . S
C9 C10 1.374 . S
C10 H1 0.930 . S
C10 C9 1.374 . S
C10 C11 1.383 . S
C11 O5 1.412 . S
C11 C10 1.383 . S
C11 C12 1.394 1_554 S
C12 H2 0.929 . S
C12 C8 1.377 . S
C12 C11 1.394 1_556 S
H13 C20 0.929 . S
H14 C23 0.930 . S
H15 C25 0.929 . S
H16 C17 0.969 . S
C17 H16 0.969 . S
C17 O18 1.550 . S
C17 H19 0.973 . S
O18 C17 1.550 . S
O18 C24 1.412 . S
H19 C17 0.973 . S
C20 H13 0.929 . S
C20 C21 1.400 . S
C20 C22 1.364 . S
C21 C20 1.400 . S
C21 C25 1.377 . S
C22 C20 1.364 . S
C22 C23 1.374 . S
C23 H14 0.930 . S
C23 C22 1.374 . S
C23 C24 1.383 . S
C24 O18 1.412 . S
C24 C23 1.383 . S
C24 C25 1.394 . S
C25 H15 0.929 . S
C25 C21 1.377 . S
C25 C24 1.394 . S
H26 C33 0.929 . S
H27 C36 0.930 1_556 S
H28 C38 0.929 . S
H29 C30 0.969 . S
C30 H29 0.969 . S
C30 O31 1.550 . S
C30 H32 0.973 1_554 S
O31 C30 1.550 . S
O31 C37 1.412 . S
H32 C30 0.973 1_556 S
C33 H26 0.929 . S
C33 C34 1.400 . S
C33 C35 1.364 . S
C34 C33 1.400 . S
C34 C38 1.377 . S
C35 C33 1.364 . S
C35 C36 1.374 . S
C36 H27 0.930 1_554 S
C36 C35 1.374 . S
C36 C37 1.383 . S
C37 O31 1.412 . S
C37 C36 1.383 . S
C37 C38 1.394 . S
C38 H28 0.929 . S
C38 C34 1.377 . S
C38 C37 1.394 . S
H39 C46 0.929 . S
H40 C49 0.930 . S
H41 C51 0.929 . S
H42 C43 0.969 . S
C43 H42 0.969 . S
C43 O44 1.550 . S
C43 H45 0.973 . S
O44 C43 1.550 . S
O44 C50 1.412 . S
H45 C43 0.973 . S
C46 H39 0.929 . S
C46 C47 1.400 . S
C46 C48 1.364 . S
C47 C46 1.400 . S
C47 C51 1.377 . S
C48 C46 1.364 . S
C48 C49 1.374 . S
C49 H40 0.930 . S
C49 C48 1.374 . S
C49 C50 1.383 . S
C50 O44 1.412 . S
C50 C49 1.383 . S
C50 C51 1.394 . S
C51 H41 0.929 . S
C51 C47 1.377 . S
C51 C50 1.394 . S
Tb52 N81 2.617 . S
Tb52 N87 2.572 . S
Tb52 O96 2.465 . S
Tb52 O97 2.387 . S
Tb52 O99 2.428 . S
Tb52 O100 2.308 1_565 S
Tb52 O104 2.349 1_465 S
Tb52 O107 2.393 1_455 S
Tb52 C116 2.802 . S
C53 N54 1.379 . S
C53 C56 1.416 . S
C53 C60 1.424 . S
N54 C53 1.379 . S
N54 C57 1.334 1_655 S
N54 Tb63 2.617 . S
C55 C57 1.390 . S
C55 C58 1.339 1_455 S
C55 H75 0.930 . S
C56 C53 1.416 . S
C56 C58 1.416 . S
C56 C62 1.448 . S
C57 N54 1.334 1_455 S
C57 C55 1.390 . S
C57 H68 0.930 . S
C58 C55 1.339 1_655 S
C58 C56 1.416 . S
C58 H79 0.930 . S
C59 C60 1.413 . S
C59 C61 1.427 . S
C59 C65 1.416 . S
C60 C53 1.424 . S
C60 C59 1.413 . S
C60 N64 1.361 . S
C61 C59 1.427 . S
C61 C62 1.328 . S
C61 H76 0.929 . S
C62 C56 1.448 . S
C62 C61 1.328 . S
C62 H77 0.930 . S
Tb63 N54 2.617 . S
Tb63 N64 2.572 . S
Tb63 O98 2.349 1_655 S
Tb63 O101 2.393 1_655 S
Tb63 O102 2.465 . S
Tb63 O103 2.387 . S
Tb63 O105 2.428 . S
Tb63 O106 2.308 1_545 S
Tb63 C127 2.802 . S
N64 C60 1.361 . S
N64 Tb63 2.572 . S
N64 C66 1.340 . S
C65 C59 1.416 . S
C65 C67 1.332 . S
C65 H73 0.931 . S
C66 N64 1.340 . S
C66 C67 1.407 . S
C66 H72 0.930 . S
C67 C65 1.332 . S
C67 C66 1.407 . S
C67 H69 0.929 . S
H68 C57 0.930 . S
H69 C67 0.929 . S
H70 C85 0.930 1_655 S
H71 C92 0.929 . S
H72 C66 0.930 . S
H73 C65 0.931 . S
H74 C88 0.930 . S
H75 C55 0.930 . S
H76 C61 0.929 . S
H77 C62 0.930 . S
H78 C83 0.930 1_655 S
H79 C58 0.930 . S
H80 C91 0.931 . S
N81 Tb52 2.617 . S
N81 C82 1.379 . S
N81 C85 1.334 . S
C82 N81 1.379 . S
C82 C84 1.416 . S
C82 C90 1.424 . S
C83 H78 0.930 1_455 S
C83 C85 1.390 . S
C83 C86 1.339 . S
C84 C82 1.416 . S
C84 C86 1.416 . S
C84 C117 1.448 . S
C85 H70 0.930 1_455 S
C85 N81 1.334 . S
C85 C83 1.390 . S
C86 C83 1.339 . S
C86 C84 1.416 . S
C86 H93 0.930 . S
N87 Tb52 2.572 . S
N87 C88 1.340 . S
N87 C90 1.361 . S
C88 H74 0.930 . S
C88 N87 1.340 . S
C88 C92 1.407 . S
C89 C90 1.413 . S
C89 C91 1.416 . S
C89 C118 1.427 . S
C90 C82 1.424 . S
C90 N87 1.361 . S
C90 C89 1.413 . S
C91 H80 0.931 . S
C91 C89 1.416 . S
C91 C92 1.332 . S
C92 H71 0.929 . S
C92 C88 1.407 . S
C92 C91 1.332 . S
H93 C86 0.930 . S
H94 C117 0.930 . S
H95 C118 0.929 . S
O96 Tb52 2.465 . S
O96 C116 1.264 . S
O97 Tb52 2.387 . S
O97 C108 1.264 . S
O98 Tb63 2.349 1_455 S
O98 C108 1.243 1_545 S
O99 Tb52 2.428 . S
O99 C116 1.256 . S
O100 Tb52 2.308 1_545 S
O100 C115 1.266 . S
O101 Tb63 2.393 1_455 S
O101 C115 1.248 . S
O102 Tb63 2.465 . S
O102 C127 1.264 . S
O103 Tb63 2.387 . S
O103 C119 1.264 . S
O104 Tb52 2.349 1_645 S
O104 C119 1.243 . S
O105 Tb63 2.428 . S
O105 C127 1.256 . S
O106 Tb63 2.308 1_565 S
O106 C126 1.266 . S
O107 Tb52 2.393 1_655 S
O107 C126 1.248 . S
C108 O97 1.264 . S
C108 O98 1.243 1_565 S
C109 C112 1.399 . S
C109 C114 1.383 . S
C109 C116 1.496 . S
C110 C111 1.399 . S
C110 C114 1.389 . S
C111 C110 1.399 . S
C111 C113 1.380 . S
C111 H128 0.929 . S
C112 C109 1.399 . S
C112 C113 1.392 . S
C112 H129 0.929 . S
C113 C111 1.380 . S
C113 C112 1.392 . S
C113 H130 0.929 . S
C114 C109 1.383 . S
C114 C110 1.389 . S
C114 H131 0.931 . S
C115 O100 1.266 . S
C115 O101 1.248 . S
C116 Tb52 2.802 . S
C116 O96 1.264 . S
C116 O99 1.256 . S
C116 C109 1.496 . S
C117 C84 1.448 . S
C117 H94 0.930 . S
C117 C118 1.328 . S
C118 C89 1.427 . S
C118 H95 0.929 . S
C118 C117 1.328 . S
C119 O103 1.264 . S
C119 O104 1.243 . S
C120 C123 1.399 . S
C120 C124 1.383 . S
C120 C127 1.496 . S
C121 C122 1.399 . S
C121 C124 1.389 . S
C122 C121 1.399 . S
C122 C125 1.380 . S
C122 H132 0.929 . S
C123 C120 1.399 . S
C123 C125 1.392 . S
C123 H133 0.929 . S
C124 C120 1.383 . S
C124 C121 1.389 . S
C124 H134 0.931 . S
C125 C122 1.380 . S
C125 C123 1.392 . S
C125 H135 0.929 . S
C126 O106 1.266 . S
C126 O107 1.248 . S
C127 Tb63 2.802 . S
C127 O102 1.264 . S
C127 O105 1.256 . S
C127 C120 1.496 . S
H128 C111 0.929 . S
H129 C112 0.929 . S
H130 C113 0.929 . S
H131 C114 0.931 . S
H132 C122 0.929 . S
H133 C123 0.929 . S
H134 C124 0.931 . S
H135 C125 0.929 . S
Tb136 N165 2.617 . S
Tb136 N171 2.572 1_556 S
Tb136 O180 2.465 . S
Tb136 O181 2.387 1_556 S
Tb136 O183 2.428 . S
Tb136 O184 2.308 1_556 S
Tb136 O188 2.349 . S
Tb136 O191 2.393 . S
Tb136 C200 2.802 . S
C137 N138 1.379 . S
C137 C140 1.416 . S
C137 C144 1.424 . S
N138 C137 1.379 . S
N138 C141 1.334 . S
N138 Tb147 2.617 . S
C139 C141 1.390 . S
C139 C142 1.339 . S
C139 H159 0.930 . S
C140 C137 1.416 . S
C140 C142 1.416 . S
C140 C146 1.448 . S
C141 N138 1.334 . S
C141 C139 1.390 . S
C141 H152 0.930 . S
C142 C139 1.339 . S
C142 C140 1.416 . S
C142 H163 0.930 . S
C143 C144 1.413 . S
C143 C145 1.427 . S
C143 C149 1.416 . S
C144 C137 1.424 . S
C144 C143 1.413 . S
C144 N148 1.361 . S
C145 C143 1.427 . S
C145 C146 1.328 . S
C145 H160 0.929 . S
C146 C140 1.448 . S
C146 C145 1.328 . S
C146 H161 0.930 . S
Tb147 N138 2.617 . S
Tb147 N148 2.572 . S
Tb147 O182 2.349 . S
Tb147 O185 2.393 . S
Tb147 O186 2.465 . S
Tb147 O187 2.387 1_554 S
Tb147 O189 2.428 . S
Tb147 O190 2.308 . S
Tb147 C211 2.802 . S
N148 C144 1.361 . S
N148 Tb147 2.572 . S
N148 C150 1.340 . S
C149 C143 1.416 . S
C149 C151 1.332 . S
C149 H157 0.931 . S
C150 N148 1.340 . S
C150 C151 1.407 . S
C150 H156 0.930 . S
C151 C149 1.332 . S
C151 C150 1.407 . S
C151 H153 0.929 . S
H152 C141 0.930 . S
H153 C151 0.929 . S
H154 C169 0.930 . S
H155 C176 0.929 . S
H156 C150 0.930 . S
H157 C149 0.931 . S
H158 C172 0.930 . S
H159 C139 0.930 . S
H160 C145 0.929 . S
H161 C146 0.930 . S
H162 C167 0.930 . S
H163 C142 0.930 . S
H164 C175 0.931 . S
N165 Tb136 2.617 . S
N165 C166 1.379 1_556 S
N165 C169 1.334 . S
C166 N165 1.379 1_554 S
C166 C168 1.416 . S
C166 C174 1.424 . S
C167 H162 0.930 . S
C167 C169 1.390 . S
C167 C170 1.339 1_556 S
C168 C166 1.416 . S
C168 C170 1.416 . S
C168 C201 1.448 . S
C169 H154 0.930 . S
C169 N165 1.334 . S
C169 C167 1.390 . S
C170 C167 1.339 1_554 S
C170 C168 1.416 . S
C170 H177 0.930 . S
N171 Tb136 2.572 1_554 S
N171 C172 1.340 . S
N171 C174 1.361 . S
C172 H158 0.930 . S
C172 N171 1.340 . S
C172 C176 1.407 . S
C173 C174 1.413 . S
C173 C175 1.416 . S
C173 C202 1.427 . S
C174 C166 1.424 . S
C174 N171 1.361 . S
C174 C173 1.413 . S
C175 H164 0.931 . S
C175 C173 1.416 . S
C175 C176 1.332 . S
C176 H155 0.929 . S
C176 C172 1.407 . S
C176 C175 1.332 . S
H177 C170 0.930 . S
H178 C201 0.930 . S
H179 C202 0.929 . S
O180 Tb136 2.465 . S
O180 C200 1.264 . S
O181 Tb136 2.387 1_554 S
O181 C192 1.264 . S
O182 Tb147 2.349 . S
O182 C192 1.243 . S
O183 Tb136 2.428 . S
O183 C200 1.256 . S
O184 Tb136 2.308 1_554 S
O184 C199 1.266 . S
O185 Tb147 2.393 . S
O185 C199 1.248 . S
O186 Tb147 2.465 . S
O186 C211 1.264 . S
O187 Tb147 2.387 1_556 S
O187 C203 1.264 . S
O188 Tb136 2.349 . S
O188 C203 1.243 . S
O189 Tb147 2.428 . S
O189 C211 1.256 . S
O190 Tb147 2.308 . S
O190 C210 1.266 . S
O191 Tb136 2.393 . S
O191 C210 1.248 1_556 S
C192 O181 1.264 . S
C192 O182 1.243 . S
C193 C196 1.399 . S
C193 C198 1.383 . S
C193 C200 1.496 . S
C194 C195 1.399 . S
C194 C198 1.389 . S
C195 C194 1.399 . S
C195 C197 1.380 . S
C195 H212 0.929 . S
C196 C193 1.399 . S
C196 C197 1.392 . S
C196 H213 0.929 . S
C197 C195 1.380 . S
C197 C196 1.392 . S
C197 H214 0.929 . S
C198 C193 1.383 . S
C198 C194 1.389 . S
C198 H215 0.931 . S
C199 O184 1.266 . S
C199 O185 1.248 . S
C200 Tb136 2.802 . S
C200 O180 1.264 . S
C200 O183 1.256 . S
C200 C193 1.496 . S
C201 C168 1.448 . S
C201 H178 0.930 . S
C201 C202 1.328 . S
C202 C173 1.427 . S
C202 H179 0.929 . S
C202 C201 1.328 . S
C203 O187 1.264 . S
C203 O188 1.243 . S
C204 C207 1.399 . S
C204 C208 1.383 . S
C204 C211 1.496 . S
C205 C206 1.399 . S
C205 C208 1.389 . S
C206 C205 1.399 . S
C206 C209 1.380 . S
C206 H216 0.929 . S
C207 C204 1.399 . S
C207 C209 1.392 . S
C207 H217 0.929 . S
C208 C204 1.383 . S
C208 C205 1.389 . S
C208 H218 0.931 . S
C209 C206 1.380 . S
C209 C207 1.392 . S
C209 H219 0.929 . S
C210 O190 1.266 . S
C210 O191 1.248 1_554 S
C211 Tb147 2.802 . S
C211 O186 1.264 . S
C211 O189 1.256 . S
C211 C204 1.496 . S
H212 C195 0.929 . S
H213 C196 0.929 . S
H214 C197 0.929 . S
H215 C198 0.931 . S
H216 C206 0.929 . S
H217 C207 0.929 . S
H218 C208 0.931 . S
H219 C209 0.929 . S
H220 C228 0.929 . S
H221 C230 0.930 . S
H222 C232 0.930 . S
H223 C235 0.929 . S
H224 C238 0.930 . S
H225 C240 0.960 . S
H226 C240 0.960 . S
H227 C240 0.960 . S
C228 H220 0.929 . S
C228 C229 1.377 . S
C228 C230 1.384 . S
C229 C228 1.377 . S
C229 C235 1.390 . S
C230 H221 0.930 . S
C230 C228 1.384 . S
C230 C231 1.372 . S
C231 C230 1.372 . S
C231 C232 1.400 . S
C231 C236 1.490 . S
C232 H222 0.930 . S
C232 C231 1.400 . S
C232 C235 1.386 . S
H233 C249 0.930 . S
H234 C250 0.931 . S
C235 H223 0.929 . S
C235 C229 1.390 . S
C235 C232 1.386 . S
C236 C231 1.490 . S
C236 C238 1.395 . S
C236 C239 1.403 . S
H237 C243 0.930 . S
C238 H224 0.930 . S
C238 C236 1.395 . S
C238 C241 1.403 . S
C239 C236 1.403 . S
C239 C240 1.524 . S
C239 C243 1.400 . S
C240 H225 0.960 . S
C240 H226 0.960 . S
C240 H227 0.960 . S
C240 C239 1.524 . S
C241 C238 1.403 . S
C241 C242 1.392 . S
C241 C245 1.495 . S
C242 C241 1.392 . S
C242 C243 1.385 . S
C242 C244 1.478 . S
C243 H237 0.930 . S
C243 C239 1.400 . S
C243 C242 1.385 . S
C244 C242 1.478 . S
C244 C246 1.381 . S
C244 C250 1.383 . S
C245 C241 1.495 . S
C245 H251 0.959 . S
C245 H252 0.961 . S
C245 H253 0.960 . S
C246 C244 1.381 . S
C246 C247 1.394 . S
C246 H254 0.930 . S
C247 C246 1.394 . S
C247 C248 1.383 . S
C247 H255 0.929 . S
C248 C247 1.383 . S
C248 C249 1.377 . S
C249 H233 0.930 . S
C249 C248 1.377 . S
C249 C250 1.379 . S
C250 H234 0.931 . S
C250 C244 1.383 . S
C250 C249 1.379 . S
H251 C245 0.959 . S
H252 C245 0.961 . S
H253 C245 0.960 . S
H254 C246 0.930 . S
H255 C247 0.929 . S
H256 C264 0.929 1_556 S
H257 C266 0.930 1_556 S
H258 C268 0.930 . S
H259 C271 0.929 . S
H260 C274 0.930 . S
H261 C276 0.960 . S
H262 C276 0.960 . S
H263 C276 0.960 . S
C264 H256 0.929 1_554 S
C264 C265 1.377 . S
C264 C266 1.384 . S
C265 C264 1.377 . S
C265 C271 1.390 . S
C266 H257 0.930 1_554 S
C266 C264 1.384 . S
C266 C267 1.372 . S
C267 C266 1.372 . S
C267 C268 1.400 . S
C267 C272 1.490 . S
C268 H258 0.930 . S
C268 C267 1.400 . S
C268 C271 1.386 . S
H269 C285 0.930 . S
H270 C286 0.931 . S
C271 H259 0.929 . S
C271 C265 1.390 . S
C271 C268 1.386 . S
C272 C267 1.490 . S
C272 C274 1.395 . S
C272 C275 1.403 . S
H273 C279 0.930 . S
C274 H260 0.930 . S
C274 C272 1.395 . S
C274 C277 1.403 . S
C275 C272 1.403 . S
C275 C276 1.524 . S
C275 C279 1.400 . S
C276 H261 0.960 . S
C276 H262 0.960 . S
C276 H263 0.960 . S
C276 C275 1.524 . S
C277 C274 1.403 . S
C277 C278 1.392 . S
C277 C281 1.495 . S
C278 C277 1.392 . S
C278 C279 1.385 . S
C278 C280 1.478 . S
C279 H273 0.930 . S
C279 C275 1.400 . S
C279 C278 1.385 . S
C280 C278 1.478 . S
C280 C282 1.381 1_554 S
C280 C286 1.383 . S
C281 C277 1.495 . S
C281 H287 0.959 . S
C281 H288 0.961 . S
C281 H289 0.960 1_554 S
C282 C280 1.381 1_556 S
C282 C283 1.394 . S
C282 H290 0.930 . S
C283 C282 1.394 . S
C283 C284 1.383 1_556 S
C283 H291 0.929 . S
C284 C283 1.383 1_554 S
C284 C285 1.377 . S
C285 H269 0.930 . S
C285 C284 1.377 . S
C285 C286 1.379 . S
C286 H270 0.931 . S
C286 C280 1.383 . S
C286 C285 1.379 . S
H287 C281 0.959 . S
H288 C281 0.961 . S
H289 C281 0.960 1_556 S
H290 C282 0.930 . S
H291 C283 0.929 . S
H292 C300 0.929 . S
H293 C302 0.930 . S
H294 C304 0.930 . S
H295 C307 0.929 . S
H296 C310 0.930 . S
H297 C312 0.960 . S
H298 C312 0.960 . S
H299 C312 0.960 . S
C300 H292 0.929 . S
C300 C301 1.377 . S
C300 C302 1.384 . S
C301 C300 1.377 . S
C301 C307 1.390 . S
C302 H293 0.930 . S
C302 C300 1.384 . S
C302 C303 1.372 . S
C303 C302 1.372 . S
C303 C304 1.400 . S
C303 C308 1.490 . S
C304 H294 0.930 . S
C304 C303 1.400 . S
C304 C307 1.386 . S
H305 C321 0.930 . S
H306 C322 0.931 . S
C307 H295 0.929 . S
C307 C301 1.390 . S
C307 C304 1.386 . S
C308 C303 1.490 . S
C308 C310 1.395 . S
C308 C311 1.403 . S
H309 C315 0.930 . S
C310 H296 0.930 . S
C310 C308 1.395 . S
C310 C313 1.403 . S
C311 C308 1.403 . S
C311 C312 1.524 . S
C311 C315 1.400 . S
C312 H297 0.960 . S
C312 H298 0.960 . S
C312 H299 0.960 . S
C312 C311 1.524 . S
C313 C310 1.403 . S
C313 C314 1.392 . S
C313 C317 1.495 . S
C314 C313 1.392 . S
C314 C315 1.385 . S
C314 C316 1.478 . S
C315 H309 0.930 . S
C315 C311 1.400 . S
C315 C314 1.385 . S
C316 C314 1.478 . S
C316 C318 1.381 . S
C316 C322 1.383 . S
C317 C313 1.495 . S
C317 H323 0.959 . S
C317 H324 0.961 . S
C317 H325 0.960 . S
C318 C316 1.381 . S
C318 C319 1.394 . S
C318 H326 0.930 . S
C319 C318 1.394 . S
C319 C320 1.383 . S
C319 H327 0.929 . S
C320 C319 1.383 . S
C320 C321 1.377 . S
C321 H305 0.930 . S
C321 C320 1.377 . S
C321 C322 1.379 . S
C322 H306 0.931 . S
C322 C316 1.383 . S
C322 C321 1.379 . S
H323 C317 0.959 . S
H324 C317 0.961 . S
H325 C317 0.960 . S
H326 C318 0.930 . S
H327 C319 0.929 . S
H328 C336 0.929 . S
H329 C338 0.930 . S
H330 C340 0.930 . S
H331 C343 0.929 . S
H332 C346 0.930 1_556 S
H333 C348 0.960 . S
H334 C348 0.960 . S
H335 C348 0.960 . S
C336 H328 0.929 . S
C336 C337 1.377 1_556 S
C336 C338 1.384 . S
C337 C336 1.377 1_554 S
C337 C343 1.390 . S
C338 H329 0.930 . S
C338 C336 1.384 . S
C338 C339 1.372 1_556 S
C339 C338 1.372 1_554 S
C339 C340 1.400 . S
C339 C344 1.490 . S
C340 H330 0.930 . S
C340 C339 1.400 . S
C340 C343 1.386 . S
H341 C357 0.930 . S
H342 C358 0.931 . S
C343 H331 0.929 . S
C343 C337 1.390 . S
C343 C340 1.386 . S
C344 C339 1.490 . S
C344 C346 1.395 . S
C344 C347 1.403 . S
H345 C351 0.930 . S
C346 H332 0.930 1_554 S
C346 C344 1.395 . S
C346 C349 1.403 . S
C347 C344 1.403 . S
C347 C348 1.524 . S
C347 C351 1.400 . S
C348 H333 0.960 . S
C348 H334 0.960 . S
C348 H335 0.960 . S
C348 C347 1.524 . S
C349 C346 1.403 . S
C349 C350 1.392 . S
C349 C353 1.495 1_554 S
C350 C349 1.392 . S
C350 C351 1.385 . S
C350 C352 1.478 . S
C351 H345 0.930 . S
C351 C347 1.400 . S
C351 C350 1.385 . S
C352 C350 1.478 . S
C352 C354 1.381 1_554 S
C352 C358 1.383 . S
C353 C349 1.495 1_556 S
C353 H359 0.959 . S
C353 H360 0.961 1_556 S
C353 H361 0.960 . S
C354 C352 1.381 1_556 S
C354 C355 1.394 . S
C354 H362 0.930 . S
C355 C354 1.394 . S
C355 C356 1.383 1_556 S
C355 H363 0.929 . S
C356 C355 1.383 1_554 S
C356 C357 1.377 . S
C357 H341 0.930 . S
C357 C356 1.377 . S
C357 C358 1.379 . S
C358 H342 0.931 . S
C358 C352 1.383 . S
C358 C357 1.379 . S
H359 C353 0.959 . S
H360 C353 0.961 1_554 S
H361 C353 0.960 . S
H362 C354 0.930 . S
H363 C355 0.929 . S
H364 C372 0.929 . S
H365 C374 0.930 . S
H366 C376 0.930 . S
H367 C379 0.929 . S
H368 C382 0.930 . S
H369 C384 0.960 . S
H370 C384 0.960 . S
H371 C384 0.960 . S
C372 H364 0.929 . S
C372 C373 1.377 . S
C372 C374 1.384 . S
C373 C372 1.377 . S
C373 C379 1.390 . S
C374 H365 0.930 . S
C374 C372 1.384 . S
C374 C375 1.372 . S
C375 C374 1.372 . S
C375 C376 1.400 . S
C375 C380 1.490 . S
C376 H366 0.930 . S
C376 C375 1.400 . S
C376 C379 1.386 . S
H377 C393 0.930 . S
H378 C394 0.931 . S
C379 H367 0.929 . S
C379 C373 1.390 . S
C379 C376 1.386 . S
C380 C375 1.490 . S
C380 C382 1.395 . S
C380 C383 1.403 . S
H381 C387 0.930 . S
C382 H368 0.930 . S
C382 C380 1.395 . S
C382 C385 1.403 . S
C383 C380 1.403 . S
C383 C384 1.524 . S
C383 C387 1.400 . S
C384 H369 0.960 . S
C384 H370 0.960 . S
C384 H371 0.960 . S
C384 C383 1.524 . S
C385 C382 1.403 . S
C385 C386 1.392 . S
C385 C389 1.495 . S
C386 C385 1.392 . S
C386 C387 1.385 . S
C386 C388 1.478 . S
C387 H381 0.930 . S
C387 C383 1.400 . S
C387 C386 1.385 . S
C388 C386 1.478 . S
C388 C390 1.381 . S
C388 C394 1.383 . S
C389 C385 1.495 . S
C389 H395 0.959 . S
C389 H396 0.961 . S
C389 H397 0.960 . S
C390 C388 1.381 . S
C390 C391 1.394 . S
C390 H398 0.930 . S
C391 C390 1.394 . S
C391 C392 1.383 . S
C391 H399 0.929 . S
C392 C391 1.383 . S
C392 C393 1.377 . S
C393 H377 0.930 . S
C393 C392 1.377 . S
C393 C394 1.379 . S
C394 H378 0.931 . S
C394 C388 1.383 . S
C394 C393 1.379 . S
H395 C389 0.959 . S
H396 C389 0.961 . S
H397 C389 0.960 . S
H398 C390 0.930 . S
H399 C391 0.929 . S
H400 C408 0.929 . S
H401 C410 0.930 . S
H402 C412 0.930 . S
H403 C415 0.929 . S
H404 C418 0.930 . S
H405 C420 0.960 . S
H406 C420 0.960 . S
H407 C420 0.960 . S
C408 H400 0.929 . S
C408 C409 1.377 . S
C408 C410 1.384 . S
C409 C408 1.377 . S
C409 C415 1.390 . S
C410 H401 0.930 . S
C410 C408 1.384 . S
C410 C411 1.372 . S
C411 C410 1.372 . S
C411 C412 1.400 . S
C411 C416 1.490 . S
C412 H402 0.930 . S
C412 C411 1.400 . S
C412 C415 1.386 . S
H413 C429 0.930 . S
H414 C430 0.931 . S
C415 H403 0.929 . S
C415 C409 1.390 . S
C415 C412 1.386 . S
C416 C411 1.490 . S
C416 C418 1.395 . S
C416 C419 1.403 . S
H417 C423 0.930 . S
C418 H404 0.930 . S
C418 C416 1.395 . S
C418 C421 1.403 . S
C419 C416 1.403 . S
C419 C420 1.524 . S
C419 C423 1.400 . S
C420 H405 0.960 . S
C420 H406 0.960 . S
C420 H407 0.960 . S
C420 C419 1.524 . S
C421 C418 1.403 . S
C421 C422 1.392 . S
C421 C425 1.495 . S
C422 C421 1.392 . S
C422 C423 1.385 . S
C422 C424 1.478 . S
C423 H417 0.930 . S
C423 C419 1.400 . S
C423 C422 1.385 . S
C424 C422 1.478 . S
C424 C426 1.381 . S
C424 C430 1.383 . S
C425 C421 1.495 . S
C425 H431 0.959 . S
C425 H432 0.961 . S
C425 H433 0.960 . S
C426 C424 1.381 . S
C426 C427 1.394 . S
C426 H434 0.930 . S
C427 C426 1.394 . S
C427 C428 1.383 . S
C427 H435 0.929 . S
C428 C427 1.383 . S
C428 C429 1.377 . S
C429 H413 0.930 . S
C429 C428 1.377 . S
C429 C430 1.379 . S
C430 H414 0.931 . S
C430 C424 1.383 . S
C430 C429 1.379 . S
H431 C425 0.959 . S
H432 C425 0.961 . S
H433 C425 0.960 . S
H434 C426 0.930 . S
H435 C427 0.929 . S
H436 C444 0.929 . S
H437 C446 0.930 . S
H438 C448 0.930 . S
H439 C451 0.929 . S
H440 C454 0.930 . S
H441 C456 0.960 . S
H442 C456 0.960 . S
H443 C456 0.960 . S
C444 H436 0.929 . S
C444 C445 1.377 . S
C444 C446 1.384 . S
C445 C444 1.377 . S
C445 C451 1.390 . S
C446 H437 0.930 . S
C446 C444 1.384 . S
C446 C447 1.372 . S
C447 C446 1.372 . S
C447 C448 1.400 . S
C447 C452 1.490 . S
C448 H438 0.930 . S
C448 C447 1.400 . S
C448 C451 1.386 . S
H449 C465 0.930 . S
H450 C466 0.931 . S
C451 H439 0.929 . S
C451 C445 1.390 . S
C451 C448 1.386 . S
C452 C447 1.490 . S
C452 C454 1.395 . S
C452 C455 1.403 . S
H453 C459 0.930 . S
C454 H440 0.930 . S
C454 C452 1.395 . S
C454 C457 1.403 . S
C455 C452 1.403 . S
C455 C456 1.524 . S
C455 C459 1.400 . S
C456 H441 0.960 . S
C456 H442 0.960 . S
C456 H443 0.960 . S
C456 C455 1.524 . S
C457 C454 1.403 . S
C457 C458 1.392 . S
C457 C461 1.495 . S
C458 C457 1.392 . S
C458 C459 1.385 . S
C458 C460 1.478 . S
C459 H453 0.930 . S
C459 C455 1.400 . S
C459 C458 1.385 . S
C460 C458 1.478 . S
C460 C462 1.381 . S
C460 C466 1.383 . S
C461 C457 1.495 . S
C461 H467 0.959 . S
C461 H468 0.961 . S
C461 H469 0.960 . S
C462 C460 1.381 . S
C462 C463 1.394 . S
C462 H470 0.930 . S
C463 C462 1.394 . S
C463 C464 1.383 . S
C463 H471 0.929 . S
C464 C463 1.383 . S
C464 C465 1.377 . S
C465 H449 0.930 . S
C465 C464 1.377 . S
C465 C466 1.379 . S
C466 H450 0.931 . S
C466 C460 1.383 . S
C466 C465 1.379 . S
H467 C461 0.959 . S
H468 C461 0.961 . S
H469 C461 0.960 . S
H470 C462 0.930 . S
H471 C463 0.929 . S
H472 C480 0.929 . S
H473 C482 0.930 . S
H474 C484 0.930 . S
H475 C487 0.929 . S
H476 C490 0.930 . S
H477 C492 0.960 . S
H478 C492 0.960 . S
H479 C492 0.960 . S
C480 H472 0.929 . S
C480 C481 1.377 . S
C480 C482 1.384 . S
C481 C480 1.377 . S
C481 C487 1.390 . S
C482 H473 0.930 . S
C482 C480 1.384 . S
C482 C483 1.372 . S
C483 C482 1.372 . S
C483 C484 1.400 . S
C483 C488 1.490 . S
C484 H474 0.930 . S
C484 C483 1.400 . S
C484 C487 1.386 . S
H485 C501 0.930 . S
H486 C502 0.931 . S
C487 H475 0.929 . S
C487 C481 1.390 . S
C487 C484 1.386 . S
C488 C483 1.490 . S
C488 C490 1.395 . S
C488 C491 1.403 . S
H489 C495 0.930 . S
C490 H476 0.930 . S
C490 C488 1.395 . S
C490 C493 1.403 . S
C491 C488 1.403 . S
C491 C492 1.524 . S
C491 C495 1.400 . S
C492 H477 0.960 . S
C492 H478 0.960 . S
C492 H479 0.960 . S
C492 C491 1.524 . S
C493 C490 1.403 . S
C493 C494 1.392 . S
C493 C497 1.495 . S
C494 C493 1.392 . S
C494 C495 1.385 . S
C494 C496 1.478 . S
C495 H489 0.930 . S
C495 C491 1.400 . S
C495 C494 1.385 . S
C496 C494 1.478 . S
C496 C498 1.381 . S
C496 C502 1.383 . S
C497 C493 1.495 . S
C497 H503 0.959 . S
C497 H504 0.961 . S
C497 H505 0.960 . S
C498 C496 1.381 . S
C498 C499 1.394 . S
C498 H506 0.930 . S
C499 C498 1.394 . S
C499 C500 1.383 . S
C499 H507 0.929 . S
C500 C499 1.383 . S
C500 C501 1.377 . S
C501 H485 0.930 . S
C501 C500 1.377 . S
C501 C502 1.379 . S
C502 H486 0.931 . S
C502 C496 1.383 . S
C502 C501 1.379 . S
H503 C497 0.959 . S
H504 C497 0.961 . S
H505 C497 0.960 . S
H506 C498 0.930 . S
H507 C499 0.929 . S
H508 C516 0.929 . S
H509 C518 0.930 . S
H510 C520 0.930 . S
H511 C523 0.929 . S
H512 C526 0.930 . S
H513 C528 0.960 . S
H514 C528 0.960 . S
H515 C528 0.960 . S
C516 H508 0.929 . S
C516 C517 1.377 . S
C516 C518 1.384 . S
C517 C516 1.377 . S
C517 C523 1.390 . S
C518 H509 0.930 . S
C518 C516 1.384 . S
C518 C519 1.372 . S
C519 C518 1.372 . S
C519 C520 1.400 . S
C519 C524 1.490 . S
C520 H510 0.930 . S
C520 C519 1.400 . S
C520 C523 1.386 . S
H521 C537 0.930 . S
H522 C538 0.931 . S
C523 H511 0.929 . S
C523 C517 1.390 . S
C523 C520 1.386 . S
C524 C519 1.490 . S
C524 C526 1.395 . S
C524 C527 1.403 . S
H525 C531 0.930 . S
C526 H512 0.930 . S
C526 C524 1.395 . S
C526 C529 1.403 . S
C527 C524 1.403 . S
C527 C528 1.524 . S
C527 C531 1.400 . S
C528 H513 0.960 . S
C528 H514 0.960 . S
C528 H515 0.960 . S
C528 C527 1.524 . S
C529 C526 1.403 . S
C529 C530 1.392 . S
C529 C533 1.495 . S
C530 C529 1.392 . S
C530 C531 1.385 . S
C530 C532 1.478 . S
C531 H525 0.930 . S
C531 C527 1.400 . S
C531 C530 1.385 . S
C532 C530 1.478 . S
C532 C534 1.381 . S
C532 C538 1.383 . S
C533 C529 1.495 . S
C533 H539 0.959 . S
C533 H540 0.961 . S
C533 H541 0.960 . S
C534 C532 1.381 . S
C534 C535 1.394 . S
C534 H542 0.930 . S
C535 C534 1.394 . S
C535 C536 1.383 . S
C535 H543 0.929 . S
C536 C535 1.383 . S
C536 C537 1.377 . S
C537 H521 0.930 . S
C537 C536 1.377 . S
C537 C538 1.379 . S
C538 H522 0.931 . S
C538 C532 1.383 . S
C538 C537 1.379 . S
H539 C533 0.959 . S
H540 C533 0.961 . S
H541 C533 0.960 . S
H542 C534 0.930 . S
H543 C535 0.929 . S
H544 C552 0.929 . S
H545 C554 0.930 . S
H546 C556 0.930 . S
H547 C559 0.929 . S
H548 C562 0.930 . S
H549 C564 0.960 . S
H550 C564 0.960 . S
H551 C564 0.960 . S
C552 H544 0.929 . S
C552 C553 1.377 . S
C552 C554 1.384 . S
C553 C552 1.377 . S
C553 C559 1.390 . S
C554 H545 0.930 . S
C554 C552 1.384 . S
C554 C555 1.372 . S
C555 C554 1.372 . S
C555 C556 1.400 . S
C555 C560 1.490 . S
C556 H546 0.930 . S
C556 C555 1.400 . S
C556 C559 1.386 . S
H557 C573 0.930 . S
H558 C574 0.931 . S
C559 H547 0.929 . S
C559 C553 1.390 . S
C559 C556 1.386 . S
C560 C555 1.490 . S
C560 C562 1.395 . S
C560 C563 1.403 . S
H561 C567 0.930 . S
C562 H548 0.930 . S
C562 C560 1.395 . S
C562 C565 1.403 . S
C563 C560 1.403 . S
C563 C564 1.524 . S
C563 C567 1.400 . S
C564 H549 0.960 . S
C564 H550 0.960 . S
C564 H551 0.960 . S
C564 C563 1.524 . S
C565 C562 1.403 . S
C565 C566 1.392 . S
C565 C569 1.495 . S
C566 C565 1.392 . S
C566 C567 1.385 . S
C566 C568 1.478 . S
C567 H561 0.930 . S
C567 C563 1.400 . S
C567 C566 1.385 . S
C568 C566 1.478 . S
C568 C570 1.381 . S
C568 C574 1.383 . S
C569 C565 1.495 . S
C569 H575 0.959 . S
C569 H576 0.961 . S
C569 H577 0.960 . S
C570 C568 1.381 . S
C570 C571 1.394 . S
C570 H578 0.930 . S
C571 C570 1.394 . S
C571 C572 1.383 . S
C571 H579 0.929 . S
C572 C571 1.383 . S
C572 C573 1.377 . S
C573 H557 0.930 . S
C573 C572 1.377 . S
C573 C574 1.379 . S
C574 H558 0.931 . S
C574 C568 1.383 . S
C574 C573 1.379 . S
H575 C569 0.959 . S
H576 C569 0.961 . S
H577 C569 0.960 . S
H578 C570 0.930 . S
H579 C571 0.929 . S
H580 C588 0.929 . S
H581 C590 0.930 . S
H582 C592 0.930 . S
H583 C595 0.929 . S
H584 C598 0.930 . S
H585 C600 0.960 . S
H586 C600 0.960 . S
H587 C600 0.960 . S
C588 H580 0.929 . S
C588 C589 1.377 . S
C588 C590 1.384 . S
C589 C588 1.377 . S
C589 C595 1.390 . S
C590 H581 0.930 . S
C590 C588 1.384 . S
C590 C591 1.372 . S
C591 C590 1.372 . S
C591 C592 1.400 . S
C591 C596 1.490 . S
C592 H582 0.930 . S
C592 C591 1.400 . S
C592 C595 1.386 . S
H593 C609 0.930 . S
H594 C610 0.931 . S
C595 H583 0.929 . S
C595 C589 1.390 . S
C595 C592 1.386 . S
C596 C591 1.490 . S
C596 C598 1.395 . S
C596 C599 1.403 . S
H597 C603 0.930 . S
C598 H584 0.930 . S
C598 C596 1.395 . S
C598 C601 1.403 . S
C599 C596 1.403 . S
C599 C600 1.524 . S
C599 C603 1.400 . S
C600 H585 0.960 . S
C600 H586 0.960 . S
C600 H587 0.960 . S
C600 C599 1.524 . S
C601 C598 1.403 . S
C601 C602 1.392 . S
C601 C605 1.495 . S
C602 C601 1.392 . S
C602 C603 1.385 . S
C602 C604 1.478 . S
C603 H597 0.930 . S
C603 C599 1.400 . S
C603 C602 1.385 . S
C604 C602 1.478 . S
C604 C606 1.381 . S
C604 C610 1.383 . S
C605 C601 1.495 . S
C605 H611 0.959 . S
C605 H612 0.961 . S
C605 H613 0.960 . S
C606 C604 1.381 . S
C606 C607 1.394 . S
C606 H614 0.930 . S
C607 C606 1.394 . S
C607 C608 1.383 . S
C607 H615 0.929 . S
C608 C607 1.383 . S
C608 C609 1.377 . S
C609 H593 0.930 . S
C609 C608 1.377 . S
C609 C610 1.379 . S
C610 H594 0.931 . S
C610 C604 1.383 . S
C610 C609 1.379 . S
H611 C605 0.959 . S
H612 C605 0.961 . S
H613 C605 0.960 . S
H614 C606 0.930 . S
H615 C607 0.929 . S
H616 C624 0.929 . S
H617 C626 0.930 . S
H618 C628 0.930 . S
H619 C631 0.929 . S
H620 C634 0.930 . S
H621 C636 0.960 . S
H622 C636 0.960 . S
H623 C636 0.960 . S
C624 H616 0.929 . S
C624 C625 1.377 . S
C624 C626 1.384 . S
C625 C624 1.377 . S
C625 C631 1.390 . S
C626 H617 0.930 . S
C626 C624 1.384 . S
C626 C627 1.372 . S
C627 C626 1.372 . S
C627 C628 1.400 . S
C627 C632 1.490 . S
C628 H618 0.930 . S
C628 C627 1.400 . S
C628 C631 1.386 . S
H629 C645 0.930 . S
H630 C646 0.931 . S
C631 H619 0.929 . S
C631 C625 1.390 . S
C631 C628 1.386 . S
C632 C627 1.490 . S
C632 C634 1.395 . S
C632 C635 1.403 . S
H633 C639 0.930 . S
C634 H620 0.930 . S
C634 C632 1.395 . S
C634 C637 1.403 . S
C635 C632 1.403 . S
C635 C636 1.524 . S
C635 C639 1.400 . S
C636 H621 0.960 . S
C636 H622 0.960 . S
C636 H623 0.960 . S
C636 C635 1.524 . S
C637 C634 1.403 . S
C637 C638 1.392 . S
C637 C641 1.495 . S
C638 C637 1.392 . S
C638 C639 1.385 . S
C638 C640 1.478 . S
C639 H633 0.930 . S
C639 C635 1.400 . S
C639 C638 1.385 . S
C640 C638 1.478 . S
C640 C642 1.381 . S
C640 C646 1.383 . S
C641 C637 1.495 . S
C641 H647 0.959 1_565 S
C641 H648 0.961 1_565 S
C641 H649 0.960 1_565 S
C642 C640 1.381 . S
C642 C643 1.394 . S
C642 H650 0.930 . S
C643 C642 1.394 . S
C643 C644 1.383 . S
C643 H651 0.929 . S
C644 C643 1.383 . S
C644 C645 1.377 . S
C645 H629 0.930 . S
C645 C644 1.377 . S
C645 C646 1.379 . S
C646 H630 0.931 . S
C646 C640 1.383 . S
C646 C645 1.379 . S
H647 C641 0.959 1_545 S
H648 C641 0.961 1_545 S
H649 C641 0.960 1_545 S
H650 C642 0.930 . S
H651 C643 0.929 . S
C248 C115 1.674 . S
C229 C43 1.604 . S
C265 C4 1.628 . S
C284 C210 1.659 . S
C301 C17 1.624 . S
C320 C126 1.688 . S
C337 C30 1.665 . S
C356 C199 1.665 . S
C392 C110 1.467 . S
C373 C9 1.598 . S
C428 C203 1.689 . S
C409 C21 1.692 . S
C445 C34 1.632 . S
C464 C119 1.631 . S
C481 C48 1.594 . S
C500 C194 1.385 . S
C536 C205 1.415 . S
C517 C22 1.596 . S
C572 C121 1.459 . S
C553 C35 1.595 1_556 S
C608 C192 1.684 . S
C589 C47 1.689 . S
C625 C8 1.628 . S
C644 C108 1.637 . S
