# Generated by pormake.
# Topology dag, (6,3)-cn, num edge types: 1
# Building blocks:
#     Node 0, Type 0, BuildingBlock: OJICUG_clean_sbu_0, # of connection points: 6
#     Node 1, Type 0, BuildingBlock: OJICUG_clean_sbu_0, # of connection points: 6
#     Node 2, Type 0, BuildingBlock: OJICUG_clean_sbu_0, # of connection points: 6
#     Node 3, Type 0, BuildingBlock: OJICUG_clean_sbu_0, # of connection points: 6
#     Node 4, Type 1, BuildingBlock: MIDCAF_clean_linker_0, # of connection points: 3
#     Node 5, Type 1, BuildingBlock: MIDCAF_clean_linker_0, # of connection points: 3
#     Node 6, Type 1, BuildingBlock: MIDCAF_clean_linker_0, # of connection points: 3
#     Node 7, Type 1, BuildingBlock: MIDCAF_clean_linker_0, # of connection points: 3
#     Node 8, Type 1, BuildingBlock: MIDCAF_clean_linker_0, # of connection points: 3
#     Node 9, Type 1, BuildingBlock: MIDCAF_clean_linker_0, # of connection points: 3
#     Node 10, Type 1, BuildingBlock: MIDCAF_clean_linker_0, # of connection points: 3
#     Node 11, Type 1, BuildingBlock: MIDCAF_clean_linker_0, # of connection points: 3
#     Edge 12, Type (0, 1), BuildingBlock: KIFKEQ_clean_linker_1, # of connection points: 2
#     Edge 13, Type (0, 1), BuildingBlock: KIFKEQ_clean_linker_1, # of connection points: 2
#     Edge 14, Type (0, 1), BuildingBlock: KIFKEQ_clean_linker_1, # of connection points: 2
#     Edge 15, Type (0, 1), BuildingBlock: KIFKEQ_clean_linker_1, # of connection points: 2
#     Edge 16, Type (0, 1), BuildingBlock: KIFKEQ_clean_linker_1, # of connection points: 2
#     Edge 17, Type (0, 1), BuildingBlock: KIFKEQ_clean_linker_1, # of connection points: 2
#     Edge 18, Type (0, 1), BuildingBlock: KIFKEQ_clean_linker_1, # of connection points: 2
#     Edge 19, Type (0, 1), BuildingBlock: KIFKEQ_clean_linker_1, # of connection points: 2
#     Edge 20, Type (0, 1), BuildingBlock: KIFKEQ_clean_linker_1, # of connection points: 2
#     Edge 21, Type (0, 1), BuildingBlock: KIFKEQ_clean_linker_1, # of connection points: 2
#     Edge 22, Type (0, 1), BuildingBlock: KIFKEQ_clean_linker_1, # of connection points: 2
#     Edge 23, Type (0, 1), BuildingBlock: KIFKEQ_clean_linker_1, # of connection points: 2
#     Edge 24, Type (0, 1), BuildingBlock: KIFKEQ_clean_linker_1, # of connection points: 2
#     Edge 25, Type (0, 1), BuildingBlock: KIFKEQ_clean_linker_1, # of connection points: 2
#     Edge 26, Type (0, 1), BuildingBlock: KIFKEQ_clean_linker_1, # of connection points: 2
#     Edge 27, Type (0, 1), BuildingBlock: KIFKEQ_clean_linker_1, # of connection points: 2
#     Edge 28, Type (0, 1), BuildingBlock: KIFKEQ_clean_linker_1, # of connection points: 2
#     Edge 29, Type (0, 1), BuildingBlock: KIFKEQ_clean_linker_1, # of connection points: 2
#     Edge 30, Type (0, 1), BuildingBlock: KIFKEQ_clean_linker_1, # of connection points: 2
#     Edge 31, Type (0, 1), BuildingBlock: KIFKEQ_clean_linker_1, # of connection points: 2
#     Edge 32, Type (0, 1), BuildingBlock: KIFKEQ_clean_linker_1, # of connection points: 2
#     Edge 33, Type (0, 1), BuildingBlock: KIFKEQ_clean_linker_1, # of connection points: 2
#     Edge 34, Type (0, 1), BuildingBlock: KIFKEQ_clean_linker_1, # of connection points: 2
#     Edge 35, Type (0, 1), BuildingBlock: KIFKEQ_clean_linker_1, # of connection points: 2
# Relax obj value: 0.257
# Max RMSD: 0.201
# Mean RMSD: 0.166
data_MOF--net-dag--node1-OJICUG_clean_sbu_0--node2-MIDCAF_clean_linker_0--edge1-KIFKEQ_clean_linker_1
_symmetry_space_group_name_H-M    P1
_symmetry_Int_Tables_number       1
_symmetry_cell_setting            triclinic
loop_
_symmetry_equiv_pos_as_xyz
'x, y, z'
_cell_length_a     46.388505
_cell_length_b     44.215856
_cell_length_c     45.426361
_cell_angle_alpha  89.755595
_cell_angle_beta   95.155315
_cell_angle_gamma 89.920982
loop_
_atom_site_label
_atom_site_type_symbol
_atom_site_fract_x
_atom_site_fract_y
_atom_site_fract_z
_atom_type_partial_charge
Sc0 Sc 0.14979 0.87391 0.02826 0.0
Sc1 Sc 0.16831 0.80866 0.99051 0.0
Sc2 Sc 0.22331 0.85589 0.02426 0.0
O3 O 0.18054 0.84615 0.01431 0.0
C4 C 0.19779 0.92188 0.01216 0.0
C5 C 0.12483 0.85949 0.96227 0.0
C6 C 0.22282 0.83166 0.95818 0.0
C7 C 0.12014 0.80931 0.03589 0.0
C8 C 0.19525 0.87036 0.08472 0.0
C9 C 0.22159 0.78403 0.03327 0.0
O10 O 0.17255 0.91459 0.01834 0.0
O11 O 0.13735 0.83388 0.96132 0.0
O12 O 0.23424 0.84726 0.97964 0.0
O13 O 0.1226 0.83747 0.04082 0.0
O14 O 0.21715 0.86556 0.07028 0.0
O15 O 0.198 0.77996 0.01723 0.0
O16 O 0.16966 0.87311 0.07248 0.0
O17 O 0.13554 0.79551 0.01855 0.0
O18 O 0.23316 0.80992 0.03736 0.0
O19 O 0.12765 0.87659 0.98479 0.0
O20 O 0.21838 0.90293 0.01207 0.0
O21 O 0.19956 0.81683 0.95957 0.0
Sc22 Sc 0.72122 0.64235 0.52641 0.0
Sc23 Sc 0.66791 0.69076 0.49176 0.0
Sc24 Sc 0.64731 0.62386 0.52566 0.0
O25 O 0.67886 0.65236 0.51469 0.0
C26 C 0.69467 0.57753 0.50761 0.0
C27 C 0.72347 0.6678 0.46114 0.0
C28 C 0.62293 0.64461 0.46063 0.0
C29 C 0.71934 0.71404 0.53667 0.0
C30 C 0.69237 0.62115 0.58347 0.0
C31 C 0.61932 0.68763 0.53753 0.0
O32 O 0.71582 0.59493 0.51542 0.0
O33 O 0.70148 0.68466 0.46285 0.0
O34 O 0.62215 0.62837 0.48367 0.0
O35 O 0.73177 0.68836 0.53902 0.0
O36 O 0.66839 0.6151 0.56894 0.0
O37 O 0.63271 0.70106 0.51804 0.0
O38 O 0.71342 0.63355 0.57195 0.0
O39 O 0.69525 0.71823 0.52154 0.0
O40 O 0.62342 0.65987 0.54419 0.0
O41 O 0.73303 0.65005 0.48192 0.0
O42 O 0.66837 0.58553 0.50804 0.0
O43 O 0.63969 0.66716 0.45931 0.0
Sc44 Sc 0.82791 0.19682 0.09156 0.0
Sc45 Sc 0.77574 0.14613 0.05865 0.0
Sc46 Sc 0.85026 0.1321 0.05563 0.0
O47 O 0.81791 0.15831 0.06861 0.0
C48 C 0.87636 0.19723 0.04569 0.0
C49 C 0.77484 0.2181 0.04762 0.0
C50 C 0.80384 0.13027 -0.00093 0.0
C51 C 0.77349 0.17222 0.12324 0.0
C52 C 0.87425 0.15062 0.12138 0.0
C53 C 0.80568 0.0822 0.07436 0.0
O54 O 0.86255 0.20969 0.0653 0.0
O55 O 0.76323 0.19196 0.04591 0.0
O56 O 0.82917 0.12704 0.01189 0.0
O57 O 0.79468 0.18993 0.12083 0.0
O58 O 0.87496 0.13484 0.09808 0.0
O59 O 0.78341 0.09904 0.07011 0.0
O60 O 0.8574 0.17314 0.12318 0.0
O61 O 0.7649 0.1532 0.10346 0.0
O62 O 0.83105 0.09143 0.07075 0.0
O63 O 0.79911 0.22319 0.06205 0.0
O64 O 0.87314 0.16958 0.03883 0.0
O65 O 0.78206 0.13741 0.01277 0.0
Sc66 Sc 0.34921 0.37388 0.55755 0.0
Sc67 Sc 0.27515 0.35654 0.55374 0.0
Sc68 Sc 0.32643 0.30722 0.59055 0.0
O69 O 0.31687 0.34583 0.56724 0.0
C70 C 0.3771 0.30999 0.54691 0.0
C71 C 0.30637 0.37743 0.49816 0.0
C72 C 0.27694 0.28481 0.54326 0.0
C73 C 0.30182 0.42087 0.57389 0.0
C74 C 0.37067 0.35279 0.62337 0.0
C75 C 0.26908 0.33005 0.61788 0.0
O76 O 0.37301 0.3376 0.53971 0.0
O77 O 0.28477 0.36525 0.50884 0.0
O78 O 0.30028 0.2801 0.55952 0.0
O79 O 0.32808 0.41243 0.57461 0.0
O80 O 0.35312 0.33084 0.62432 0.0
O81 O 0.26149 0.34897 0.59745 0.0
O82 O 0.37286 0.36857 0.60025 0.0
O83 O 0.28067 0.40385 0.56509 0.0
O84 O 0.29081 0.31261 0.61726 0.0
O85 O 0.3299 0.38328 0.5136 0.0
O86 O 0.36326 0.29683 0.56627 0.0
O87 O 0.2649 0.31067 0.54036 0.0
C88 C 0.02031 0.04847 0.28768 0.0
C89 C 0.01378 0.07943 0.28889 0.0
C90 C 0.03078 0.09801 0.30847 0.0
C91 C 0.05477 0.08615 0.32548 0.0
H92 H 0.11187 0.0896 0.4092 0.0
H93 H 0.13886 0.1251 0.44225 0.0
H94 H 0.21868 0.0959 0.40926 0.0
H95 H 0.19187 0.06001 0.37646 0.0
H96 H 0.18967 0.00436 0.33163 0.0
H97 H 0.21323 0.9691 0.30005 0.0
H98 H 0.12999 0.9311 0.27046 0.0
H99 H 0.10645 0.9662 0.30178 0.0
H100 H 0.04991 0.01301 0.30187 0.0
H101 H 0.00758 0.03373 0.27261 0.0
H102 H 0.02605 0.12194 0.30986 0.0
H103 H 0.0681 0.10138 0.33947 0.0
N104 N 0.10568 0.06065 0.35817 0.0
N105 N 0.14612 0.02911 0.35575 0.0
N106 N 0.10379 0.02041 0.32471 0.0
C107 C 0.13321 0.05293 0.36812 0.0
C108 C 0.13139 0.01251 0.33427 0.0
C109 C 0.09081 0.04451 0.33647 0.0
C110 C 0.14974 0.07213 0.39015 0.0
C111 C 0.13521 0.09048 0.40925 0.0
C112 C 0.15062 0.11065 0.42826 0.0
C113 C 0.18075 0.11321 0.42812 0.0
C114 C 0.1954 0.09437 0.40961 0.0
C115 C 0.18006 0.07377 0.39099 0.0
C116 C 0.14614 0.98828 0.31896 0.0
C117 C 0.17646 0.98804 0.31887 0.0
C118 C 0.18998 0.96796 0.30073 0.0
C119 C 0.17346 0.94743 0.28277 0.0
C120 C 0.14335 0.94645 0.28428 0.0
C121 C 0.12982 0.96675 0.30205 0.0
C122 C 0.06256 0.05558 0.32279 0.0
C123 C 0.04461 0.03668 0.30431 0.0
C124 C 0.30353 0.65866 0.59791 0.0
C125 C 0.28718 0.64195 0.61684 0.0
C126 C 0.2779 0.65608 0.64197 0.0
C127 C 0.28636 0.68568 0.64906 0.0
H128 H 0.27757 0.75374 0.70726 0.0
H129 H 0.26652 0.76949 0.756 0.0
H130 H 0.34231 0.82638 0.76374 0.0
H131 H 0.35374 0.81058 0.71443 0.0
H132 H 0.40451 0.79222 0.67089 0.0
H133 H 0.45341 0.79483 0.65493 0.0
H134 H 0.42241 0.75566 0.57106 0.0
H135 H 0.37381 0.75338 0.58673 0.0
H136 H 0.32601 0.69985 0.59078 0.0
H137 H 0.31113 0.64832 0.57845 0.0
H138 H 0.26498 0.64383 0.65675 0.0
H139 H 0.27989 0.69535 0.66932 0.0
N140 N 0.31005 0.74398 0.66641 0.0
N141 N 0.34912 0.77765 0.66655 0.0
N142 N 0.34205 0.74069 0.62968 0.0
C143 C 0.32507 0.76782 0.67875 0.0
C144 C 0.35751 0.76435 0.64174 0.0
C145 C 0.31832 0.73032 0.64186 0.0
C146 C 0.31683 0.7805 0.70699 0.0
C147 C 0.29192 0.76976 0.71907 0.0
C148 C 0.28558 0.77869 0.74711 0.0
C149 C 0.30388 0.79868 0.7638 0.0
C150 C 0.32795 0.81082 0.7513 0.0
C151 C 0.33445 0.80172 0.72311 0.0
C152 C 0.38539 0.77216 0.63022 0.0
C153 C 0.40801 0.78498 0.64874 0.0
C154 C 0.43604 0.78628 0.6397 0.0
C155 C 0.44183 0.77514 0.61188 0.0
C156 C 0.4187 0.76463 0.59255 0.0
C157 C 0.39083 0.7631 0.60164 0.0
C158 C 0.30457 0.70163 0.63131 0.0
C159 C 0.3122 0.68816 0.6051 0.0
C160 C 0.78473 0.71285 0.24755 0.0
C161 C 0.80343 0.69382 0.26524 0.0
C162 C 0.83075 0.68691 0.25596 0.0
C163 C 0.8392 0.69894 0.2295 0.0
H164 H 0.90924 0.707 0.17612 0.0
H165 H 0.95752 0.70294 0.15878 0.0
H166 H 0.92486 0.74128 0.07466 0.0
H167 H 0.87692 0.74498 0.09172 0.0
H168 H 0.82183 0.79293 0.09193 0.0
H169 H 0.80885 0.84407 0.07572 0.0
H170 H 0.7838 0.8645 0.16285 0.0
H171 H 0.79569 0.81287 0.17865 0.0
H172 H 0.77831 0.7399 0.2085 0.0
H173 H 0.7637 0.71895 0.25433 0.0
H174 H 0.84555 0.67223 0.26914 0.0
H175 H 0.86048 0.69341 0.22303 0.0
N176 N 0.85357 0.72219 0.1724 0.0
N177 N 0.84688 0.7594 0.1355 0.0
N178 N 0.81515 0.7569 0.17265 0.0
C179 C 0.86203 0.73543 0.14753 0.0
C180 C 0.82353 0.77036 0.14791 0.0
C181 C 0.8298 0.73252 0.18479 0.0
C182 C 0.88939 0.72675 0.13543 0.0
C183 C 0.91224 0.71373 0.15365 0.0
C184 C 0.93991 0.71158 0.1438 0.0
C185 C 0.94508 0.72208 0.11547 0.0
C186 C 0.92164 0.73277 0.09652 0.0
C187 C 0.89415 0.73514 0.1064 0.0
C188 C 0.81019 0.79903 0.13668 0.0
C189 C 0.81294 0.80815 0.10742 0.0
C190 C 0.80567 0.83754 0.0982 0.0
C191 C 0.79596 0.85868 0.11818 0.0
C192 C 0.79113 0.84884 0.14682 0.0
C193 C 0.79802 0.81922 0.15594 0.0
C194 C 0.82062 0.71844 0.21208 0.0
C195 C 0.79323 0.72507 0.22136 0.0
C196 C 0.68253 0.41528 0.92683 0.0
C197 C 0.6691 0.38884 0.93618 0.0
C198 C 0.63992 0.38371 0.92643 0.0
C199 C 0.62474 0.40404 0.90727 0.0
H200 H 0.55605 0.40398 0.84764 0.0
H201 H 0.51431 0.38358 0.81786 0.0
H202 H 0.50071 0.46985 0.77402 0.0
H203 H 0.54273 0.49043 0.80355 0.0
H204 H 0.59919 0.53673 0.80618 0.0
H205 H 0.62395 0.56829 0.77242 0.0
H206 H 0.70576 0.52853 0.80507 0.0
H207 H 0.68099 0.4968 0.83902 0.0
H208 H 0.67849 0.45547 0.90031 0.0
H209 H 0.70487 0.42014 0.93427 0.0
H210 H 0.62898 0.36341 0.93279 0.0
H211 H 0.60246 0.39884 0.89983 0.0
N212 N 0.59531 0.44286 0.86394 0.0
N213 N 0.59484 0.48317 0.8304 0.0
N214 N 0.63632 0.47361 0.86264 0.0
C215 C 0.58117 0.45936 0.84192 0.0
C216 C 0.62237 0.49053 0.84066 0.0
C217 C 0.62273 0.44993 0.87466 0.0
C218 C 0.55299 0.44878 0.82772 0.0
C219 C 0.54389 0.41888 0.83212 0.0
C220 C 0.52004 0.4071 0.81502 0.0
C221 C 0.50451 0.42509 0.79357 0.0
C222 C 0.51229 0.45556 0.79055 0.0
C223 C 0.53643 0.46726 0.80734 0.0
C224 C 0.63805 0.5139 0.82497 0.0
C225 C 0.62255 0.53518 0.80669 0.0
C226 C 0.63677 0.55348 0.7875 0.0
C227 C 0.66677 0.55071 0.78594 0.0
C228 C 0.68258 0.53097 0.80567 0.0
C229 C 0.66838 0.51289 0.82518 0.0
C230 C 0.63836 0.43001 0.89713 0.0
C231 C 0.66733 0.43564 0.9075 0.0
C232 C 0.57848 0.23744 0.48998 0.0
C233 C 0.55539 0.22559 0.47146 0.0
C234 C 0.56103 0.21369 0.44387 0.0
C235 C 0.58891 0.21517 0.43439 0.0
H236 H 0.63941 0.20621 0.35837 0.0
H237 H 0.65527 0.18935 0.31132 0.0
H238 H 0.74449 0.199 0.34676 0.0
H239 H 0.72845 0.21759 0.39288 0.0
H240 H 0.71635 0.30337 0.41033 0.0
H241 H 0.73128 0.35521 0.4219 0.0
H242 H 0.68966 0.35041 0.50306 0.0
H243 H 0.67476 0.29869 0.49167 0.0
H244 H 0.62316 0.2496 0.49484 0.0
H245 H 0.57489 0.24709 0.51122 0.0
H246 H 0.5437 0.20417 0.42923 0.0
H247 H 0.59234 0.20705 0.41251 0.0
N248 N 0.6484 0.2207 0.41688 0.0
N249 N 0.68885 0.25272 0.41696 0.0
N250 N 0.65537 0.25946 0.45189 0.0
C251 C 0.6734 0.22877 0.40542 0.0
C252 C 0.67991 0.26824 0.44018 0.0
C253 C 0.63956 0.23574 0.44055 0.0
C254 C 0.68273 0.21363 0.37901 0.0
C255 C 0.66239 0.20427 0.35612 0.0
C256 C 0.67153 0.19448 0.32919 0.0
C257 C 0.70122 0.19336 0.3249 0.0
C258 C 0.72146 0.20054 0.34881 0.0
C259 C 0.71232 0.21097 0.37537 0.0
C260 C 0.69401 0.29701 0.44989 0.0
C261 C 0.71099 0.31306 0.431 0.0
C262 C 0.71942 0.34283 0.43751 0.0
C263 C 0.71138 0.35694 0.46321 0.0
C264 C 0.69632 0.3401 0.48316 0.0
C265 C 0.68762 0.3105 0.47652 0.0
C266 C 0.6115 0.22891 0.45221 0.0
C267 C 0.60616 0.23914 0.48045 0.0
C268 C 0.21088 0.28863 0.83297 0.0
C269 C 0.18952 0.30138 0.81278 0.0
C270 C 0.16104 0.30377 0.82064 0.0
C271 C 0.15395 0.29323 0.84813 0.0
H272 H 0.08919 0.29504 0.90657 0.0
H273 H 0.04146 0.30141 0.9246 0.0
H274 H 0.07184 0.25601 0.00597 0.0
H275 H 0.11929 0.25018 0.98837 0.0
H276 H 0.1648 0.19889 0.98415 0.0
H277 H 0.18105 0.14889 -0.00057 0.0
H278 H 0.23303 0.14419 0.92522 0.0
H279 H 0.21579 0.19434 0.90913 0.0
H280 H 0.22047 0.26715 0.87505 0.0
H281 H 0.23296 0.28634 0.82725 0.0
H282 H 0.14423 0.31353 0.80538 0.0
H283 H 0.13169 0.29495 0.85341 0.0
N284 N 0.14318 0.27596 0.90829 0.0
N285 N 0.15078 0.23935 0.94557 0.0
N286 N 0.18248 0.24226 0.9084 0.0
C287 C 0.13512 0.2629 0.93339 0.0
C288 C 0.17438 0.22877 0.93329 0.0
C289 C 0.16709 0.26603 0.89593 0.0
C290 C 0.10792 0.27168 0.94585 0.0
C291 C 0.08584 0.2871 0.92859 0.0
C292 C 0.05846 0.2906 0.93883 0.0
C293 C 0.05276 0.279 0.96661 0.0
C294 C 0.07548 0.2655 0.9846 0.0
C295 C 0.10269 0.26187 0.97435 0.0
C296 C 0.18859 0.20058 0.9451 0.0
C297 C 0.17999 0.1875 0.97118 0.0
C298 C 0.18959 0.15875 0.98017 0.0
C299 C 0.20827 0.14227 0.96349 0.0
C300 C 0.21827 0.15603 0.93833 0.0
C301 C 0.20855 0.18491 0.92923 0.0
C302 C 0.1751 0.27946 0.86794 0.0
C303 C 0.20369 0.2775 0.86019 0.0
C304 C 0.3533 0.61762 0.15668 0.0
C305 C 0.32398 0.6129 0.14743 0.0
C306 C 0.31064 0.58604 0.15568 0.0
C307 C 0.32606 0.56495 0.17407 0.0
H308 H 0.31326 0.50284 0.24252 0.0
H309 H 0.28936 0.47094 0.27705 0.0
H310 H 0.37124 0.42871 0.30521 0.0
H311 H 0.39514 0.4605 0.27093 0.0
H312 H 0.45197 0.50815 0.27523 0.0
H313 H 0.4932 0.52837 0.30631 0.0
H314 H 0.47622 0.61712 0.26885 0.0
H315 H 0.43535 0.5971 0.23743 0.0
H316 H 0.39113 0.60145 0.18194 0.0
H317 H 0.36425 0.63789 0.15021 0.0
H318 H 0.28803 0.58188 0.14884 0.0
H319 H 0.31494 0.54492 0.18084 0.0
N320 N 0.35759 0.52564 0.21753 0.0
N321 N 0.39902 0.51586 0.24978 0.0
N322 N 0.39819 0.55717 0.21742 0.0
C323 C 0.37167 0.50832 0.23912 0.0
C324 C 0.41242 0.54028 0.23908 0.0
C325 C 0.37095 0.5499 0.20624 0.0
C326 C 0.35618 0.48451 0.25436 0.0
C327 C 0.32601 0.48611 0.25542 0.0
C328 C 0.31232 0.46795 0.27526 0.0
C329 C 0.32848 0.44756 0.29399 0.0
C330 C 0.35817 0.44406 0.29094 0.0
C331 C 0.3719 0.46246 0.27144 0.0
C332 C 0.44018 0.55104 0.25405 0.0
C333 C 0.45739 0.53184 0.27315 0.0
C334 C 0.48105 0.54335 0.29083 0.0
C335 C 0.48764 0.57431 0.29005 0.0
C336 C 0.47142 0.59319 0.26992 0.0
C337 C 0.44809 0.58163 0.25187 0.0
C338 C 0.35515 0.57031 0.18433 0.0
C339 C 0.36871 0.59658 0.17481 0.0
C340 C 0.84705 0.05747 0.79285 0.0
C341 C 0.81765 0.05408 0.79739 0.0
C342 C 0.80141 0.03175 0.78137 0.0
C343 C 0.8148 0.01199 0.76274 0.0
H344 H 0.80613 0.95166 0.68723 0.0
H345 H 0.78145 0.91599 0.65279 0.0
H346 H 0.85719 0.85852 0.66031 0.0
H347 H 0.88206 0.89426 0.69392 0.0
H348 H 0.93111 0.90502 0.74524 0.0
H349 H 0.97394 0.88925 0.77674 0.0
H350 H 0.982 0.97937 0.81281 0.0
H351 H 0.93907 0.99505 0.78185 0.0
H352 H 0.88345 0.03996 0.77281 0.0
H353 H 0.86034 0.07416 0.80501 0.0
H354 H 0.77865 0.02877 0.78419 0.0
H355 H 0.80212 0.99399 0.75192 0.0
N356 N 0.84677 0.97096 0.72567 0.0
N357 N 0.88873 0.94101 0.72625 0.0
N358 N 0.88817 0.98352 0.7566 0.0
C359 C 0.86101 0.94683 0.71526 0.0
C360 C 0.90249 0.95933 0.74685 0.0
C361 C 0.86042 0.98955 0.74621 0.0
C362 C 0.8461 0.92589 0.69347 0.0
C363 C 0.81759 0.93151 0.6814 0.0
C364 C 0.80337 0.91098 0.66175 0.0
C365 C 0.81733 0.88437 0.65377 0.0
C366 C 0.84593 0.879 0.66556 0.0
C367 C 0.86015 0.8995 0.68507 0.0
C368 C 0.93131 0.95116 0.76144 0.0
C369 C 0.94234 0.92165 0.75945 0.0
C370 C 0.96694 0.9126 0.77745 0.0
C371 C 0.98098 0.93292 0.79766 0.0
C372 C 0.97121 0.963 0.79797 0.0
C373 C 0.94664 0.972 0.78012 0.0
C374 C 0.84471 0.01401 0.76015 0.0
C375 C 0.86041 0.03765 0.77454 0.0
H376 H 0.1553 0.85919 0.12327 0.0
H377 H 0.24347 0.88927 0.11955 0.0
H378 H 0.15768 0.87177 0.17519 0.0
H379 H 0.24608 0.90162 0.17236 0.0
H380 H 0.21092 0.96721 0.24403 0.0
H381 H 0.22322 0.94182 0.19937 0.0
H382 H 0.17799 0.86188 0.22496 0.0
H383 H 0.16519 0.88764 0.26943 0.0
C384 C 0.17544 0.86804 0.13374 0.0
C385 C 0.19906 0.8737 0.11721 0.0
C386 C 0.17694 0.87492 0.1637 0.0
C387 C 0.20207 0.88777 0.178 0.0
C388 C 0.22634 0.89195 0.16189 0.0
C389 C 0.22491 0.88476 0.13174 0.0
C390 C 0.20442 0.94387 0.2406 0.0
C391 C 0.18669 0.92955 0.25993 0.0
C392 C 0.21154 0.92926 0.215 0.0
C393 C 0.20114 0.90001 0.20832 0.0
C394 C 0.18578 0.88468 0.22916 0.0
C395 C 0.17848 0.89936 0.25462 0.0
H396 H 0.58611 0.66781 0.58064 0.0
H397 H 0.6021 0.7464 0.52751 0.0
H398 H 0.54678 0.69449 0.6013 0.0
H399 H 0.56295 0.77319 0.54862 0.0
H400 H 0.4877 0.75322 0.64746 0.0
H401 H 0.53435 0.73664 0.63258 0.0
H402 H 0.51011 0.76844 0.54373 0.0
H403 H 0.46384 0.78593 0.55886 0.0
C404 C 0.58153 0.69089 0.57363 0.0
C405 C 0.59713 0.70479 0.55215 0.0
C406 C 0.55909 0.7063 0.58568 0.0
C407 C 0.55171 0.73596 0.57655 0.0
C408 C 0.56793 0.75025 0.55585 0.0
C409 C 0.59043 0.73487 0.54384 0.0
C410 C 0.49269 0.75757 0.62499 0.0
C411 C 0.47198 0.77068 0.60426 0.0
C412 C 0.51927 0.7477 0.61638 0.0
C413 C 0.52574 0.7508 0.58689 0.0
C414 C 0.50585 0.7658 0.56665 0.0
C415 C 0.47924 0.77562 0.57525 0.0
H416 H 0.84811 0.04257 0.09437 0.0
H417 H 0.75546 0.04901 0.07388 0.0
H418 H 0.84353 0.98912 0.10507 0.0
H419 H 0.75099 0.99491 0.08412 0.0
H420 H 0.7559 0.90107 0.1327 0.0
H421 H 0.75678 0.95566 0.12348 0.0
H422 H 0.8326 0.94438 0.07592 0.0
H423 H 0.83261 0.89061 0.08621 0.0
C424 C 0.82671 0.0326 0.09211 0.0
C425 C 0.80219 0.05009 0.08292 0.0
C426 C 0.82411 0.00185 0.09811 0.0
C427 C 0.79695 0.98763 0.09494 0.0
C428 C 0.77221 0.00523 0.08681 0.0
C429 C 0.7748 0.03619 0.08087 0.0
C430 C 0.77274 0.91031 0.1203 0.0
C431 C 0.79417 0.89137 0.11021 0.0
C432 C 0.7731 0.94152 0.11482 0.0
C433 C 0.79496 0.95439 0.09927 0.0
C434 C 0.81576 0.93529 0.08844 0.0
C435 C 0.81546 0.90429 0.09394 0.0
H436 H 0.35885 0.34707 0.68112 0.0
H437 H 0.4247 0.37664 0.62598 0.0
H438 H 0.38965 0.36292 0.72527 0.0
H439 H 0.45552 0.39151 0.67 0.0
H440 H 0.51063 0.37485 0.76074 0.0
H441 H 0.47676 0.355 0.7211 0.0
H442 H 0.41508 0.4244 0.73815 0.0
H443 H 0.4493 0.44485 0.77759 0.0
C444 C 0.37997 0.35662 0.67849 0.0
C445 C 0.38943 0.36068 0.65019 0.0
C446 C 0.39741 0.36576 0.70363 0.0
C447 C 0.42478 0.37832 0.70077 0.0
C448 C 0.43446 0.38179 0.6726 0.0
C449 C 0.41682 0.37336 0.64751 0.0
C450 C 0.48963 0.38551 0.75641 0.0
C451 C 0.48248 0.41132 0.77218 0.0
C452 C 0.47039 0.37423 0.73374 0.0
C453 C 0.44347 0.38819 0.72687 0.0
C454 C 0.43571 0.41321 0.74337 0.0
C455 C 0.45524 0.42492 0.76571 0.0
H456 H 0.7444 0.54458 0.52004 0.0
H457 H 0.65857 0.53962 0.47464 0.0
H458 H 0.7529 0.4917 0.50747 0.0
H459 H 0.6672 0.48707 0.46204 0.0
H460 H 0.69997 0.40176 0.42259 0.0
H461 H 0.69963 0.45619 0.43123 0.0
H462 H 0.73056 0.44118 0.52261 0.0
H463 H 0.7311 0.38657 0.51394 0.0
C464 C 0.7275 0.53235 0.50711 0.0
C465 C 0.70076 0.54625 0.49843 0.0
C466 C 0.73234 0.50209 0.50007 0.0
C467 C 0.71074 0.48537 0.48375 0.0
C468 C 0.68435 0.49952 0.47438 0.0
C469 C 0.67935 0.52956 0.48178 0.0
C470 C 0.7074 0.4101 0.44434 0.0
C471 C 0.71552 0.38992 0.46762 0.0
C472 C 0.70693 0.44122 0.44933 0.0
C473 C 0.71485 0.45284 0.47762 0.0
C474 C 0.72448 0.43282 0.50055 0.0
C475 C 0.72463 0.40161 0.49564 0.0
H476 H 0.89649 0.25436 0.05936 0.0
H477 H 0.90528 0.18062 0.99855 0.0
H478 H 0.9352 0.28155 0.03749 0.0
H479 H 0.944 0.20744 0.97726 0.0
H480 H 0.00356 0.26444 0.93205 0.0
H481 H 0.95668 0.2511 0.94851 0.0
H482 H 0.98766 0.27422 0.0381 0.0
H483 H 0.03419 0.28877 0.02143 0.0
C484 C 0.90643 0.24407 0.04117 0.0
C485 C 0.89795 0.21514 0.03093 0.0
C486 C 0.92866 0.25962 0.02873 0.0
C487 C 0.9427 0.24667 0.00566 0.0
C488 C 0.93339 0.21831 0.9947 0.0
C489 C 0.91133 0.20275 0.00716 0.0
C490 C 8e-05 0.26771 0.95507 0.0
C491 C 0.02275 0.27729 0.97551 0.0
C492 C 0.9733 0.2597 0.96457 0.0
C493 C 0.96864 0.26103 0.99469 0.0
C494 C 0.99051 0.27295 0.01473 0.0
C495 C 0.01728 0.28102 0.00523 0.0
H496 H 0.27628 0.34929 0.45114 0.0
H497 H 0.33156 0.4257 0.47428 0.0
H498 H 0.27512 0.36381 0.3986 0.0
H499 H 0.32966 0.44044 0.42239 0.0
H500 H 0.29632 0.47553 0.33289 0.0
H501 H 0.28517 0.4567 0.38114 0.0
H502 H 0.32197 0.37002 0.3624 0.0
H503 H 0.33347 0.38891 0.31394 0.0
C504 C 0.28785 0.3693 0.44503 0.0
C505 C 0.30412 0.38633 0.46668 0.0
C506 C 0.28722 0.3775 0.41511 0.0
C507 C 0.30212 0.40331 0.4067 0.0
C508 C 0.31778 0.42061 0.42844 0.0
C509 C 0.319 0.41205 0.45806 0.0
C510 C 0.30113 0.45213 0.33856 0.0
C511 C 0.31588 0.4337 0.31971 0.0
C512 C 0.29488 0.44145 0.36623 0.0
C513 C 0.30284 0.41203 0.37536 0.0
C514 C 0.31548 0.39274 0.35567 0.0
C515 C 0.32216 0.40358 0.3281 0.0
H516 H 0.10485 0.91673 0.95113 0.0
H517 H 0.10256 0.82672 0.91417 0.0
H518 H 0.07242 0.93447 0.9098 0.0
H519 H 0.06921 0.84448 0.87294 0.0
H520 H 0.02694 0.89499 0.79059 0.0
H521 H 0.06361 0.87708 0.82894 0.0
H522 H 0.02213 0.92822 0.89421 0.0
H523 H 0.98606 0.94615 0.85619 0.0
C524 C 0.09733 0.90064 0.93423 0.0
C525 C 0.10604 0.87018 0.93619 0.0
C526 C 0.07863 0.91083 0.91054 0.0
C527 C 0.06788 0.89082 0.88826 0.0
C528 C 0.07724 0.86052 0.88966 0.0
C529 C 0.09621 0.85031 0.91336 0.0
C530 C 0.0258 0.90237 0.81315 0.0
C531 C 0.00387 0.92232 0.8203 0.0
C532 C 0.04671 0.89207 0.83511 0.0
C533 C 0.04597 0.90145 0.86459 0.0
C534 C 0.02382 0.92114 0.87163 0.0
C535 C 0.00311 0.93146 0.84979 0.0
H536 H 0.84442 0.13654 0.96005 0.0
H537 H 0.75484 0.11222 0.9652 0.0
H538 H 0.84045 0.12347 0.90798 0.0
H539 H 0.75089 0.09889 0.91256 0.0
H540 H 0.7832 0.03252 0.83849 0.0
H541 H 0.77369 0.05648 0.88484 0.0
H542 H 0.81625 0.13767 0.8584 0.0
H543 H 0.82549 0.11386 0.81177 0.0
C544 C 0.82375 0.12868 0.94994 0.0
C545 C 0.80001 0.12513 0.96679 0.0
C546 C 0.82139 0.12149 0.91999 0.0
C547 C 0.79532 0.11025 0.90614 0.0
C548 C 0.77125 0.1075 0.92271 0.0
C549 C 0.77349 0.11518 0.95275 0.0
C550 C 0.78956 0.05588 0.84201 0.0
C551 C 0.80555 0.07111 0.82163 0.0
C552 C 0.78414 0.0696 0.86865 0.0
C553 C 0.79467 0.09875 0.87544 0.0
C554 C 0.80833 0.11496 0.85394 0.0
C555 C 0.81364 0.10131 0.82728 0.0
H556 H 0.40865 0.32864 0.50216 0.0
H557 H 0.39672 0.25237 0.55971 0.0
H558 H 0.44818 0.3023 0.4817 0.0
H559 H 0.43617 0.22577 0.53873 0.0
H560 H 0.5352 0.2158 0.52554 0.0
H561 H 0.48881 0.23203 0.5414 0.0
H562 H 0.46103 0.25943 0.45192 0.0
H563 H 0.5078 0.24422 0.43629 0.0
C564 C 0.4142 0.30611 0.51024 0.0
C565 C 0.39962 0.2928 0.53282 0.0
C566 C 0.43675 0.29085 0.49827 0.0
C567 C 0.44533 0.2619 0.50857 0.0
C568 C 0.43023 0.24816 0.53052 0.0
C569 C 0.40756 0.2634 0.54246 0.0
C570 C 0.51901 0.22489 0.50919 0.0
C571 C 0.52532 0.22909 0.47975 0.0
C572 C 0.49233 0.23396 0.51822 0.0
C573 C 0.47139 0.24742 0.49798 0.0
C574 C 0.47692 0.2496 0.46812 0.0
C575 C 0.5036 0.24052 0.4591 0.0
H576 H 0.23931 0.94539 0.97924 0.0
H577 H 0.16887 0.97102 0.03014 0.0
H578 H 0.24741 0.99889 0.96783 0.0
H579 H 0.17735 0.0241 0.01919 0.0
H580 H 0.21862 0.11666 0.0186 0.0
H581 H 0.21972 0.06288 0.03089 0.0
H582 H 0.21471 0.04081 0.93817 0.0
H583 H 0.21238 0.09455 0.9256 0.0
C584 C 0.22574 0.96241 0.98814 0.0
C585 C 0.20338 0.95402 0.0055 0.0
C586 C 0.23035 0.99292 0.98157 0.0
C587 C 0.21314 0.01552 0.99284 0.0
C588 C 0.19114 0.00712 0.01052 0.0
C589 C 0.18615 0.97672 0.01657 0.0
C590 C 0.21789 0.10041 0.00077 0.0
C591 C 0.21487 0.11003 0.97108 0.0
C592 C 0.21867 0.06965 0.00786 0.0
C593 C 0.21699 0.04781 0.98545 0.0
C594 C 0.21617 0.05726 0.95585 0.0
C595 C 0.21496 0.08808 0.94871 0.0
H596 H 0.63248 0.65232 0.40252 0.0
H597 H 0.56992 0.6183 0.45934 0.0
H598 H 0.60087 0.63656 0.35897 0.0
H599 H 0.5382 0.6035 0.41588 0.0
H600 H 0.47945 0.62056 0.32733 0.0
H601 H 0.51319 0.63938 0.36762 0.0
H602 H 0.57807 0.57642 0.34349 0.0
H603 H 0.54398 0.55693 0.30344 0.0
C604 C 0.6119 0.64178 0.40566 0.0
C605 C 0.6036 0.63651 0.43426 0.0
C606 C 0.59399 0.63268 0.38084 0.0
C607 C 0.56726 0.61893 0.38431 0.0
C608 C 0.55874 0.61416 0.4128 0.0
C609 C 0.57688 0.62255 0.43757 0.0
C610 C 0.50106 0.61106 0.33037 0.0
C611 C 0.50923 0.58738 0.31232 0.0
C612 C 0.52023 0.62173 0.35341 0.0
C613 C 0.54807 0.60932 0.35842 0.0
C614 C 0.5567 0.58639 0.33979 0.0
C615 C 0.53726 0.57523 0.31708 0.0
H616 H 0.25324 0.45486 0.55882 0.0
H617 H 0.33703 0.45797 0.60873 0.0
H618 H 0.24524 0.50803 0.57069 0.0
H619 H 0.32887 0.51079 0.62063 0.0
H620 H 0.29563 0.59703 0.65782 0.0
H621 H 0.29528 0.54259 0.64932 0.0
H622 H 0.26979 0.55789 0.55671 0.0
H623 H 0.26992 0.61256 0.56522 0.0
C624 C 0.26977 0.46675 0.5726 0.0
C625 C 0.29582 0.45226 0.58276 0.0
C626 C 0.26523 0.49717 0.57923 0.0
C627 C 0.28641 0.51344 0.59659 0.0
C628 C 0.31205 0.49869 0.60744 0.0
C629 C 0.31679 0.4685 0.60046 0.0
C630 C 0.28926 0.58878 0.63577 0.0
C631 C 0.28284 0.60904 0.61215 0.0
C632 C 0.28932 0.55764 0.63089 0.0
C633 C 0.28271 0.5461 0.60235 0.0
C634 C 0.27482 0.56622 0.57896 0.0
C635 C 0.27508 0.59745 0.58379 0.0
H636 H 0.10303 0.75051 0.0262 0.0
H637 H 0.08687 0.8291 0.07867 0.0
H638 H 0.06448 0.72342 0.04831 0.0
H639 H 0.04828 0.80218 0.10033 0.0
H640 H 0.96555 0.71038 0.06189 0.0
H641 H 0.01123 0.72761 0.04501 0.0
H642 H 0.03801 0.75989 0.13283 0.0
H643 H 0.992 0.74359 0.14946 0.0
C644 C 0.09144 0.76196 0.04257 0.0
C645 C 0.09793 0.79211 0.05047 0.0
C646 C 0.06931 0.74644 0.05516 0.0
C647 C 0.05336 0.76063 0.07608 0.0
C648 C 0.06043 0.79043 0.08459 0.0
C649 C 0.08241 0.80598 0.07193 0.0
C650 C 0.98141 0.72071 0.07769 0.0
C651 C 0.97501 0.72595 0.10691 0.0
C652 C 0.00767 0.73038 0.06808 0.0
C653 C 0.02804 0.74552 0.0875 0.0
C654 C 0.02252 0.74874 0.11724 0.0
C655 C 0.99629 0.73903 0.12686 0.0
H656 H 0.6726 0.56986 0.60673 0.0
H657 H 0.71928 0.65181 0.63075 0.0
H658 H 0.6744 0.55517 0.6586 0.0
H659 H 0.72034 0.63732 0.68334 0.0
H660 H 0.66072 0.60895 0.76506 0.0
H661 H 0.67421 0.62791 0.71738 0.0
H662 H 0.71577 0.54278 0.70215 0.0
H663 H 0.70249 0.52384 0.74959 0.0
C664 C 0.6834 0.58464 0.62318 0.0
C665 C 0.69574 0.61198 0.61483 0.0
C666 C 0.68459 0.57614 0.6528 0.0
C667 C 0.69763 0.59506 0.67484 0.0
C668 C 0.71029 0.62235 0.66663 0.0
C669 C 0.70975 0.63055 0.6367 0.0
C670 C 0.67344 0.59465 0.75187 0.0
C671 C 0.68038 0.56485 0.76095 0.0
C672 C 0.68131 0.60556 0.72475 0.0
C673 C 0.69586 0.58669 0.70617 0.0
C674 C 0.70455 0.55772 0.71616 0.0
C675 C 0.69706 0.54697 0.74338 0.0
H676 H 0.86563 0.15751 0.17979 0.0
H677 H 0.92731 0.12439 0.1217 0.0
H678 H 0.89816 0.14164 0.22282 0.0
H679 H 0.95992 0.10948 0.16462 0.0
H680 H 0.02032 0.12649 0.25167 0.0
H681 H 0.9854 0.14546 0.21228 0.0
H682 H 0.92205 0.08157 0.23807 0.0
H683 H 0.95731 0.06194 0.27723 0.0
C684 C 0.88619 0.14712 0.17625 0.0
C685 C 0.89398 0.14215 0.14745 0.0
C686 C 0.90463 0.13796 0.20078 0.0
C687 C 0.93139 0.12447 0.19681 0.0
C688 C 0.93936 0.11995 0.1681 0.0
C689 C 0.9207 0.12839 0.14363 0.0
C690 C -0.00122 0.11685 0.24924 0.0
C691 C 0.9914 0.09283 0.26746 0.0
C692 C 0.97894 0.12759 0.22669 0.0
C693 C 0.9512 0.11493 0.22236 0.0
C694 C 0.94333 0.09173 0.24124 0.0
C695 C 0.96343 0.0805 0.26345 0.0
H696 H 0.19961 0.7272 0.04117 0.0
H697 H 0.27676 0.78113 0.0595 0.0
H698 H 0.22324 0.68495 0.06853 0.0
H699 H 0.30049 0.73886 0.08591 0.0
H700 H 0.32325 0.67282 0.15982 0.0
H701 H 0.29769 0.71302 0.13167 0.0
H702 H 0.26156 0.64747 0.06839 0.0
H703 H 0.28686 0.60695 0.09726 0.0
C704 C 0.22168 0.72996 0.05075 0.0
C705 C 0.23619 0.75766 0.04836 0.0
C706 C 0.23526 0.70569 0.06633 0.0
C707 C 0.26366 0.7086 0.0797 0.0
C708 C 0.27836 0.73604 0.07652 0.0
C709 C 0.26478 0.76028 0.06121 0.0
C710 C 0.30993 0.66702 0.13984 0.0
C711 C 0.3073 0.63684 0.13051 0.0
C712 C 0.29533 0.69006 0.12363 0.0
C713 C 0.2779 0.68356 0.0975 0.0
C714 C 0.27468 0.65323 0.0885 0.0
C715 C 0.28918 0.63005 0.10495 0.0
H716 H 0.69655 0.77034 0.54469 0.0
H717 H 0.77415 0.71695 0.56436 0.0
H718 H 0.71976 0.81303 0.57109 0.0
H719 H 0.79711 0.75959 0.59085 0.0
H720 H 0.839 0.85145 0.60979 0.0
H721 H 0.81505 0.81126 0.5803 0.0
H722 H 0.73693 0.82586 0.62331 0.0
H723 H 0.76096 0.86574 0.65322 0.0
C724 C 0.71855 0.76769 0.55456 0.0
C725 C 0.73347 0.74016 0.55239 0.0
C726 C 0.73176 0.79212 0.5698 0.0
C727 C 0.76025 0.78966 0.58297 0.0
C728 C 0.77525 0.76227 0.58061 0.0
C729 C 0.76199 0.73777 0.56559 0.0
C730 C 0.81675 0.84604 0.61305 0.0
C731 C 0.80198 0.86168 0.63405 0.0
C732 C 0.80304 0.82305 0.59613 0.0
C733 C 0.7742 0.8153 0.59965 0.0
C734 C 0.7591 0.83154 0.61993 0.0
C735 C 0.77287 0.85444 0.637 0.0
H736 H 0.7657 0.22246 0.15523 0.0
H737 H 0.74808 0.12662 0.15298 0.0
H738 H 0.74603 0.22616 0.20277 0.0
H739 H 0.72943 0.12994 0.20172 0.0
H740 H 0.67806 0.15437 0.28157 0.0
H741 H 0.69247 0.14875 0.23142 0.0
H742 H 0.76204 0.21237 0.25146 0.0
H743 H 0.74653 0.2197 0.30018 0.0
C744 C 0.75762 0.20213 0.16502 0.0
C745 C 0.75872 0.1742 0.15062 0.0
C746 C 0.74653 0.20417 0.19241 0.0
C747 C 0.73681 0.17821 0.2065 0.0
C748 C 0.73671 0.15039 0.1915 0.0
C749 C 0.74742 0.14844 0.16366 0.0
C750 C 0.69627 0.16735 0.27514 0.0
C751 C 0.71106 0.18752 0.29509 0.0
C752 C 0.70472 0.16385 0.24648 0.0
C753 C 0.72819 0.1804 0.23721 0.0
C754 C 0.74343 0.19978 0.25749 0.0
C755 C 0.73484 0.20353 0.28583 0.0
H756 H 0.24524 0.37639 0.64724 0.0
H757 H 0.25607 0.27937 0.64754 0.0
H758 H 0.22226 0.37286 0.69391 0.0
H759 H 0.2324 0.27586 0.69337 0.0
H760 H 0.1633 0.28243 0.76025 0.0
H761 H 0.17867 0.29202 0.71081 0.0
H762 H 0.24716 0.34968 0.74857 0.0
H763 H 0.23224 0.33951 0.79817 0.0
C764 C 0.24216 0.35435 0.65698 0.0
C765 C 0.25242 0.32814 0.64395 0.0
C766 C 0.2292 0.35237 0.6836 0.0
C767 C 0.22558 0.32409 0.69697 0.0
C768 C 0.23479 0.29786 0.68329 0.0
C769 C 0.2484 0.2999 0.65721 0.0
C770 C 0.1813 0.29757 0.75788 0.0
C771 C 0.19668 0.31021 0.78288 0.0
C772 C 0.19008 0.30298 0.72971 0.0
C773 C 0.21395 0.32164 0.72608 0.0
C774 C 0.2285 0.33545 0.75091 0.0
C775 C 0.22011 0.32951 0.77917 0.0
H776 H 0.7028 0.69464 0.40954 0.0
H777 H 0.77519 0.64196 0.44857 0.0
H778 H 0.72402 0.6954 0.36285 0.0
H779 H 0.79654 0.64273 0.40102 0.0
H780 H 0.83516 0.69291 0.31909 0.0
H781 H 0.81746 0.68212 0.36723 0.0
H782 H 0.7339 0.65861 0.32382 0.0
H783 H 0.7515 0.66939 0.27591 0.0
C784 C 0.7233 0.68318 0.40824 0.0
C785 C 0.7373 0.66827 0.43295 0.0
C786 C 0.73532 0.68339 0.38127 0.0
C787 C 0.76175 0.6688 0.37818 0.0
C788 C 0.77609 0.65412 0.40283 0.0
C789 C 0.76386 0.65365 0.42998 0.0
C790 C 0.81324 0.68472 0.31985 0.0
C791 C 0.79453 0.68248 0.29382 0.0
C792 C 0.80314 0.67853 0.34738 0.0
C793 C 0.77418 0.67003 0.34925 0.0
C794 C 0.75616 0.66575 0.32305 0.0
C795 C 0.76621 0.67193 0.29566 0.0
H796 H 0.79618 0.27447 0.03746 0.0
H797 H 0.71883 0.2201 0.02267 0.0
H798 H 0.77106 0.31689 0.0121 0.0
H799 H 0.69386 0.26263 0.99717 0.0
H800 H 0.65061 0.35538 0.9818 0.0
H801 H 0.67628 0.31452 0.0093 0.0
H802 H 0.75071 0.32953 0.96051 0.0
H803 H 0.72492 0.36995 0.93252 0.0
C804 C 0.77382 0.27153 0.02885 0.0
C805 C 0.75952 0.24383 0.03213 0.0
C806 C 0.75951 0.29583 0.0142 0.0
C807 C 0.73052 0.29307 0.00272 0.0
C808 C 0.71614 0.26549 0.00609 0.0
C809 C 0.73052 0.24107 0.02052 0.0
C810 C 0.67241 0.34991 0.97683 0.0
C811 C 0.68563 0.36586 0.95481 0.0
C812 C 0.68709 0.32652 0.9926 0.0
C813 C 0.7154 0.31874 0.98691 0.0
C814 C 0.72898 0.33523 0.96555 0.0
C815 C 0.71422 0.35847 0.94961 0.0
H816 H 0.24137 0.28674 0.4921 0.0
H817 H 0.28167 0.22478 0.55728 0.0
H818 H 0.21918 0.24405 0.46457 0.0
H819 H 0.25897 0.18219 0.52988 0.0
H820 H 0.17974 0.12415 0.4871 0.0
H821 H 0.20398 0.16535 0.51564 0.0
H822 H 0.24059 0.19713 0.43712 0.0
H823 H 0.21679 0.15576 0.40875 0.0
C824 C 0.24535 0.26404 0.50061 0.0
C825 C 0.26325 0.25907 0.52682 0.0
C826 C 0.2328 0.23968 0.48479 0.0
C827 C 0.23747 0.20998 0.49518 0.0
C828 C 0.25503 0.20495 0.52154 0.0
C829 C 0.26807 0.22928 0.53708 0.0
C830 C 0.19317 0.13985 0.4761 0.0
C831 C 0.19655 0.13685 0.44585 0.0
C832 C 0.20705 0.16325 0.49237 0.0
C833 C 0.22399 0.18432 0.47845 0.0
C834 C 0.22749 0.1812 0.44824 0.0
C835 C 0.21409 0.15749 0.43213 0.0
H836 H 0.20579 0.79786 0.90988 0.0
H837 H 0.2722 0.86076 0.94314 0.0
H838 H 0.22943 0.79201 0.86499 0.0
H839 H 0.29612 0.85458 0.89738 0.0
H840 H 0.30169 0.85403 0.7909 0.0
H841 H 0.28517 0.8642 0.83988 0.0
H842 H 0.27699 0.76819 0.85468 0.0
H843 H 0.29322 0.75814 0.8062 0.0
C844 C 0.22545 0.81052 0.9077 0.0
C845 C 0.2372 0.8296 0.93038 0.0
C846 C 0.23908 0.807 0.88191 0.0
C847 C 0.26482 0.82247 0.87793 0.0
C848 C 0.2763 0.84233 0.90003 0.0
C849 C 0.26267 0.84576 0.92618 0.0
C850 C 0.29685 0.8352 0.80496 0.0
C851 C 0.29809 0.80534 0.79462 0.0
C852 C 0.28749 0.841 0.8329 0.0
C853 C 0.27934 0.81697 0.85074 0.0
C854 C 0.28256 0.78714 0.8411 0.0
C855 C 0.29179 0.7814 0.81337 0.0
loop_
_geom_bond_atom_site_label_1
_geom_bond_atom_site_label_2
_geom_bond_distance
_geom_bond_site_symmetry_2
_ccdc_geom_bond_type
Sc0 O3 2.025 . S
Sc0 O10 2.105 . S
Sc0 O13 2.105 . S
Sc0 O16 2.105 . S
Sc0 O19 2.105 1_554 S
Sc1 O3 2.026 . S
Sc1 O11 2.104 1_554 S
Sc1 O15 2.105 . S
Sc1 O17 2.106 . S
Sc1 O21 2.104 1_554 S
Sc2 O3 2.025 . S
Sc2 O12 2.105 1_554 S
Sc2 O14 2.105 . S
Sc2 O18 2.105 . S
Sc2 O20 2.105 . S
O3 Sc0 2.025 . S
O3 Sc1 2.026 . S
O3 Sc2 2.025 . S
C4 O10 1.268 1_556 S
C4 O20 1.268 1_556 S
C5 O11 1.268 . S
C5 O19 1.268 . S
C6 O12 1.268 . S
C6 O21 1.268 . S
C7 O13 1.268 . S
C7 O17 1.268 . S
C8 O14 1.268 . S
C8 O16 1.268 . S
C9 O15 1.268 . S
C9 O18 1.268 . S
O10 Sc0 2.105 . S
O10 C4 1.268 1_554 S
O11 Sc1 2.104 1_556 S
O11 C5 1.268 . S
O12 Sc2 2.105 1_556 S
O12 C6 1.268 . S
O13 Sc0 2.105 . S
O13 C7 1.268 . S
O14 Sc2 2.105 . S
O14 C8 1.268 . S
O15 Sc1 2.105 . S
O15 C9 1.268 . S
O16 Sc0 2.105 . S
O16 C8 1.268 . S
O17 Sc1 2.106 . S
O17 C7 1.268 . S
O18 Sc2 2.105 . S
O18 C9 1.268 . S
O19 Sc0 2.105 1_556 S
O19 C5 1.268 . S
O20 Sc2 2.105 . S
O20 C4 1.268 1_554 S
O21 Sc1 2.104 1_556 S
O21 C6 1.268 . S
Sc22 O25 2.025 . S
Sc22 O32 2.105 . S
Sc22 O35 2.105 . S
Sc22 O38 2.105 . S
Sc22 O41 2.105 . S
Sc23 O25 2.025 . S
Sc23 O33 2.105 . S
Sc23 O37 2.105 . S
Sc23 O39 2.105 . S
Sc23 O43 2.105 . S
Sc24 O25 2.025 . S
Sc24 O34 2.105 . S
Sc24 O36 2.105 . S
Sc24 O40 2.105 . S
Sc24 O42 2.105 . S
O25 Sc22 2.025 . S
O25 Sc23 2.025 . S
O25 Sc24 2.025 . S
C26 O32 1.268 . S
C26 O42 1.268 . S
C27 O33 1.268 . S
C27 O41 1.268 . S
C28 O34 1.268 . S
C28 O43 1.268 . S
C29 O35 1.268 . S
C29 O39 1.268 . S
C30 O36 1.268 . S
C30 O38 1.268 . S
C31 O37 1.268 . S
C31 O40 1.268 . S
O32 Sc22 2.105 . S
O32 C26 1.268 . S
O33 Sc23 2.105 . S
O33 C27 1.268 . S
O34 Sc24 2.105 . S
O34 C28 1.268 . S
O35 Sc22 2.105 . S
O35 C29 1.268 . S
O36 Sc24 2.105 . S
O36 C30 1.268 . S
O37 Sc23 2.105 . S
O37 C31 1.268 . S
O38 Sc22 2.105 . S
O38 C30 1.268 . S
O39 Sc23 2.105 . S
O39 C29 1.268 . S
O40 Sc24 2.105 . S
O40 C31 1.268 . S
O41 Sc22 2.105 . S
O41 C27 1.268 . S
O42 Sc24 2.105 . S
O42 C26 1.268 . S
O43 Sc23 2.105 . S
O43 C28 1.268 . S
Sc44 O47 2.025 . S
Sc44 O54 2.105 . S
Sc44 O57 2.105 . S
Sc44 O60 2.105 . S
Sc44 O63 2.105 . S
Sc45 O47 2.025 . S
Sc45 O55 2.105 . S
Sc45 O59 2.105 . S
Sc45 O61 2.105 . S
Sc45 O65 2.105 . S
Sc46 O47 2.025 . S
Sc46 O56 2.105 . S
Sc46 O58 2.105 . S
Sc46 O62 2.105 . S
Sc46 O64 2.105 . S
O47 Sc44 2.025 . S
O47 Sc45 2.025 . S
O47 Sc46 2.025 . S
C48 O54 1.268 . S
C48 O64 1.268 . S
C49 O55 1.268 . S
C49 O63 1.268 . S
C50 O56 1.268 . S
C50 O65 1.268 . S
C51 O57 1.268 . S
C51 O61 1.268 . S
C52 O58 1.268 . S
C52 O60 1.268 . S
C53 O59 1.268 . S
C53 O62 1.268 . S
O54 Sc44 2.105 . S
O54 C48 1.268 . S
O55 Sc45 2.105 . S
O55 C49 1.268 . S
O56 Sc46 2.105 . S
O56 C50 1.268 . S
O57 Sc44 2.105 . S
O57 C51 1.268 . S
O58 Sc46 2.105 . S
O58 C52 1.268 . S
O59 Sc45 2.105 . S
O59 C53 1.268 . S
O60 Sc44 2.105 . S
O60 C52 1.268 . S
O61 Sc45 2.105 . S
O61 C51 1.268 . S
O62 Sc46 2.105 . S
O62 C53 1.268 . S
O63 Sc44 2.105 . S
O63 C49 1.268 . S
O64 Sc46 2.105 . S
O64 C48 1.268 . S
O65 Sc45 2.105 . S
O65 C50 1.268 . S
Sc66 O69 2.025 . S
Sc66 O76 2.105 . S
Sc66 O79 2.105 . S
Sc66 O82 2.105 . S
Sc66 O85 2.105 . S
Sc67 O69 2.025 . S
Sc67 O77 2.105 . S
Sc67 O81 2.105 . S
Sc67 O83 2.105 . S
Sc67 O87 2.105 . S
Sc68 O69 2.025 . S
Sc68 O78 2.105 . S
Sc68 O80 2.105 . S
Sc68 O84 2.105 . S
Sc68 O86 2.105 . S
O69 Sc66 2.025 . S
O69 Sc67 2.025 . S
O69 Sc68 2.025 . S
C70 O76 1.268 . S
C70 O86 1.268 . S
C71 O77 1.268 . S
C71 O85 1.268 . S
C72 O78 1.268 . S
C72 O87 1.268 . S
C73 O79 1.268 . S
C73 O83 1.268 . S
C74 O80 1.268 . S
C74 O82 1.268 . S
C75 O81 1.268 . S
C75 O84 1.268 . S
O76 Sc66 2.105 . S
O76 C70 1.268 . S
O77 Sc67 2.105 . S
O77 C71 1.268 . S
O78 Sc68 2.105 . S
O78 C72 1.268 . S
O79 Sc66 2.105 . S
O79 C73 1.268 . S
O80 Sc68 2.105 . S
O80 C74 1.268 . S
O81 Sc67 2.105 . S
O81 C75 1.268 . S
O82 Sc66 2.105 . S
O82 C74 1.268 . S
O83 Sc67 2.105 . S
O83 C73 1.268 . S
O84 Sc68 2.105 . S
O84 C75 1.268 . S
O85 Sc66 2.105 . S
O85 C71 1.268 . S
O86 Sc68 2.105 . S
O86 C70 1.268 . S
O87 Sc67 2.105 . S
O87 C72 1.268 . S
C88 C89 1.384 . S
C88 H101 0.947 . S
C88 C123 1.382 . S
C89 C88 1.384 . S
C89 C90 1.378 . S
C90 C89 1.378 . S
C90 C91 1.378 . S
C90 H102 0.952 . S
C91 C90 1.378 . S
C91 H103 0.950 . S
C91 C122 1.383 . S
H92 C111 0.947 . S
H93 C112 0.946 . S
H94 C114 0.953 . S
H95 C115 0.945 . S
H96 C117 0.952 . S
H97 C118 0.949 . S
H98 C120 0.950 . S
H99 C121 0.960 . S
H100 C123 0.951 . S
H101 C88 0.947 . S
H102 C90 0.952 . S
H103 C91 0.950 . S
N104 C107 1.382 . S
N104 C109 1.363 . S
N105 C107 1.371 . S
N105 C108 1.372 . S
N106 C108 1.361 . S
N106 C109 1.377 . S
C107 N104 1.382 . S
C107 N105 1.371 . S
C107 C110 1.480 . S
C108 N105 1.372 . S
C108 N106 1.361 . S
C108 C116 1.457 . S
C109 N104 1.363 . S
C109 N106 1.377 . S
C109 C122 1.479 . S
C110 C107 1.480 . S
C110 C111 1.383 . S
C110 C115 1.385 . S
C111 H92 0.947 . S
C111 C110 1.383 . S
C111 C112 1.388 . S
C112 H93 0.946 . S
C112 C111 1.388 . S
C112 C113 1.384 . S
C113 C112 1.384 . S
C113 C114 1.377 . S
C114 H94 0.953 . S
C114 C113 1.377 . S
C114 C115 1.369 . S
C115 H95 0.945 . S
C115 C110 1.385 . S
C115 C114 1.369 . S
C116 C108 1.457 . S
C116 C117 1.372 . S
C116 C121 1.377 . S
C117 H96 0.952 . S
C117 C116 1.372 . S
C117 C118 1.389 1_545 S
C118 H97 0.949 . S
C118 C117 1.389 1_565 S
C118 C119 1.387 . S
C119 C118 1.387 . S
C119 C120 1.372 . S
C120 H98 0.950 . S
C120 C119 1.372 . S
C120 C121 1.353 1_565 S
C121 H99 0.960 . S
C121 C116 1.377 . S
C121 C120 1.353 1_545 S
C122 C91 1.383 . S
C122 C109 1.479 . S
C122 C123 1.398 . S
C123 C88 1.382 . S
C123 H100 0.951 . S
C123 C122 1.398 . S
C124 C125 1.384 . S
C124 H137 0.947 . S
C124 C159 1.382 . S
C125 C124 1.384 . S
C125 C126 1.378 . S
C126 C125 1.378 . S
C126 C127 1.378 . S
C126 H138 0.952 . S
C127 C126 1.378 . S
C127 H139 0.950 . S
C127 C158 1.383 . S
H128 C147 0.947 . S
H129 C148 0.946 . S
H130 C150 0.953 . S
H131 C151 0.945 . S
H132 C153 0.952 . S
H133 C154 0.949 . S
H134 C156 0.950 . S
H135 C157 0.948 . S
H136 C159 0.951 . S
H137 C124 0.947 . S
H138 C126 0.952 . S
H139 C127 0.950 . S
N140 C143 1.382 . S
N140 C145 1.363 . S
N141 C143 1.371 . S
N141 C144 1.372 . S
N142 C144 1.361 . S
N142 C145 1.377 . S
C143 N140 1.382 . S
C143 N141 1.371 . S
C143 C146 1.480 . S
C144 N141 1.372 . S
C144 N142 1.361 . S
C144 C152 1.457 . S
C145 N140 1.363 . S
C145 N142 1.377 . S
C145 C158 1.479 . S
C146 C143 1.480 . S
C146 C147 1.383 . S
C146 C151 1.385 . S
C147 H128 0.947 . S
C147 C146 1.383 . S
C147 C148 1.388 . S
C148 H129 0.946 . S
C148 C147 1.388 . S
C148 C149 1.384 . S
C149 C148 1.384 . S
C149 C150 1.377 . S
C150 H130 0.953 . S
C150 C149 1.377 . S
C150 C151 1.369 . S
C151 H131 0.945 . S
C151 C146 1.385 . S
C151 C150 1.369 . S
C152 C144 1.457 . S
C152 C153 1.372 . S
C152 C157 1.364 . S
C153 H132 0.952 . S
C153 C152 1.372 . S
C153 C154 1.389 . S
C154 H133 0.949 . S
C154 C153 1.389 . S
C154 C155 1.387 . S
C155 C154 1.387 . S
C155 C156 1.372 . S
C156 H134 0.950 . S
C156 C155 1.372 . S
C156 C157 1.379 . S
C157 H135 0.948 . S
C157 C152 1.364 . S
C157 C156 1.379 . S
C158 C127 1.383 . S
C158 C145 1.479 . S
C158 C159 1.398 . S
C159 C124 1.382 . S
C159 H136 0.951 . S
C159 C158 1.398 . S
C160 C161 1.384 . S
C160 H173 0.947 . S
C160 C195 1.382 . S
C161 C160 1.384 . S
C161 C162 1.378 . S
C162 C161 1.378 . S
C162 C163 1.378 . S
C162 H174 0.952 . S
C163 C162 1.378 . S
C163 H175 0.950 . S
C163 C194 1.383 . S
H164 C183 0.947 . S
H165 C184 0.946 . S
H166 C186 0.953 . S
H167 C187 0.945 . S
H168 C189 0.952 . S
H169 C190 0.949 . S
H170 C192 0.950 . S
H171 C193 0.948 . S
H172 C195 0.951 . S
H173 C160 0.947 . S
H174 C162 0.952 . S
H175 C163 0.950 . S
N176 C179 1.382 . S
N176 C181 1.363 . S
N177 C179 1.371 . S
N177 C180 1.372 . S
N178 C180 1.361 . S
N178 C181 1.377 . S
C179 N176 1.382 . S
C179 N177 1.371 . S
C179 C182 1.480 . S
C180 N177 1.372 . S
C180 N178 1.361 . S
C180 C188 1.457 . S
C181 N176 1.363 . S
C181 N178 1.377 . S
C181 C194 1.479 . S
C182 C179 1.480 . S
C182 C183 1.383 . S
C182 C187 1.385 . S
C183 H164 0.947 . S
C183 C182 1.383 . S
C183 C184 1.388 . S
C184 H165 0.946 . S
C184 C183 1.388 . S
C184 C185 1.384 . S
C185 C184 1.384 . S
C185 C186 1.377 . S
C186 H166 0.953 . S
C186 C185 1.377 . S
C186 C187 1.369 . S
C187 H167 0.945 . S
C187 C182 1.385 . S
C187 C186 1.369 . S
C188 C180 1.457 . S
C188 C189 1.372 . S
C188 C193 1.364 . S
C189 H168 0.952 . S
C189 C188 1.372 . S
C189 C190 1.389 . S
C190 H169 0.949 . S
C190 C189 1.389 . S
C190 C191 1.387 . S
C191 C190 1.387 . S
C191 C192 1.372 . S
C192 H170 0.950 . S
C192 C191 1.372 . S
C192 C193 1.379 . S
C193 H171 0.948 . S
C193 C188 1.364 . S
C193 C192 1.379 . S
C194 C163 1.383 . S
C194 C181 1.479 . S
C194 C195 1.398 . S
C195 C160 1.382 . S
C195 H172 0.951 . S
C195 C194 1.398 . S
C196 C197 1.384 . S
C196 H209 0.947 . S
C196 C231 1.382 . S
C197 C196 1.384 . S
C197 C198 1.378 . S
C198 C197 1.378 . S
C198 C199 1.378 . S
C198 H210 0.952 . S
C199 C198 1.378 . S
C199 H211 0.950 . S
C199 C230 1.383 . S
H200 C219 0.947 . S
H201 C220 0.946 . S
H202 C222 0.953 . S
H203 C223 0.945 . S
H204 C225 0.952 . S
H205 C226 0.949 . S
H206 C228 0.950 . S
H207 C229 0.948 . S
H208 C231 0.951 . S
H209 C196 0.947 . S
H210 C198 0.952 . S
H211 C199 0.950 . S
N212 C215 1.382 . S
N212 C217 1.363 . S
N213 C215 1.371 . S
N213 C216 1.372 . S
N214 C216 1.361 . S
N214 C217 1.377 . S
C215 N212 1.382 . S
C215 N213 1.371 . S
C215 C218 1.480 . S
C216 N213 1.372 . S
C216 N214 1.361 . S
C216 C224 1.457 . S
C217 N212 1.363 . S
C217 N214 1.377 . S
C217 C230 1.479 . S
C218 C215 1.480 . S
C218 C219 1.383 . S
C218 C223 1.385 . S
C219 H200 0.947 . S
C219 C218 1.383 . S
C219 C220 1.388 . S
C220 H201 0.946 . S
C220 C219 1.388 . S
C220 C221 1.384 . S
C221 C220 1.384 . S
C221 C222 1.377 . S
C222 H202 0.953 . S
C222 C221 1.377 . S
C222 C223 1.369 . S
C223 H203 0.945 . S
C223 C218 1.385 . S
C223 C222 1.369 . S
C224 C216 1.457 . S
C224 C225 1.372 . S
C224 C229 1.364 . S
C225 H204 0.952 . S
C225 C224 1.372 . S
C225 C226 1.389 . S
C226 H205 0.949 . S
C226 C225 1.389 . S
C226 C227 1.387 . S
C227 C226 1.387 . S
C227 C228 1.372 . S
C228 H206 0.950 . S
C228 C227 1.372 . S
C228 C229 1.379 . S
C229 H207 0.948 . S
C229 C224 1.364 . S
C229 C228 1.379 . S
C230 C199 1.383 . S
C230 C217 1.479 . S
C230 C231 1.398 . S
C231 C196 1.382 . S
C231 H208 0.951 . S
C231 C230 1.398 . S
C232 C233 1.384 . S
C232 H245 0.947 . S
C232 C267 1.382 . S
C233 C232 1.384 . S
C233 C234 1.378 . S
C234 C233 1.378 . S
C234 C235 1.378 . S
C234 H246 0.952 . S
C235 C234 1.378 . S
C235 H247 0.950 . S
C235 C266 1.383 . S
H236 C255 0.947 . S
H237 C256 0.946 . S
H238 C258 0.953 . S
H239 C259 0.945 . S
H240 C261 0.952 . S
H241 C262 0.949 . S
H242 C264 0.950 . S
H243 C265 0.948 . S
H244 C267 0.951 . S
H245 C232 0.947 . S
H246 C234 0.952 . S
H247 C235 0.950 . S
N248 C251 1.382 . S
N248 C253 1.363 . S
N249 C251 1.371 . S
N249 C252 1.372 . S
N250 C252 1.361 . S
N250 C253 1.377 . S
C251 N248 1.382 . S
C251 N249 1.371 . S
C251 C254 1.480 . S
C252 N249 1.372 . S
C252 N250 1.361 . S
C252 C260 1.457 . S
C253 N248 1.363 . S
C253 N250 1.377 . S
C253 C266 1.479 . S
C254 C251 1.480 . S
C254 C255 1.383 . S
C254 C259 1.385 . S
C255 H236 0.947 . S
C255 C254 1.383 . S
C255 C256 1.388 . S
C256 H237 0.946 . S
C256 C255 1.388 . S
C256 C257 1.384 . S
C257 C256 1.384 . S
C257 C258 1.377 . S
C258 H238 0.953 . S
C258 C257 1.377 . S
C258 C259 1.369 . S
C259 H239 0.945 . S
C259 C254 1.385 . S
C259 C258 1.369 . S
C260 C252 1.457 . S
C260 C261 1.372 . S
C260 C265 1.364 . S
C261 H240 0.952 . S
C261 C260 1.372 . S
C261 C262 1.389 . S
C262 H241 0.949 . S
C262 C261 1.389 . S
C262 C263 1.387 . S
C263 C262 1.387 . S
C263 C264 1.372 . S
C264 H242 0.950 . S
C264 C263 1.372 . S
C264 C265 1.379 . S
C265 H243 0.948 . S
C265 C260 1.364 . S
C265 C264 1.379 . S
C266 C235 1.383 . S
C266 C253 1.479 . S
C266 C267 1.398 . S
C267 C232 1.382 . S
C267 H244 0.951 . S
C267 C266 1.398 . S
C268 C269 1.384 . S
C268 H281 0.947 . S
C268 C303 1.382 . S
C269 C268 1.384 . S
C269 C270 1.378 . S
C270 C269 1.378 . S
C270 C271 1.378 . S
C270 H282 0.952 . S
C271 C270 1.378 . S
C271 H283 0.950 . S
C271 C302 1.383 . S
H272 C291 0.947 . S
H273 C292 0.946 . S
H274 C294 0.953 . S
H275 C295 0.945 . S
H276 C297 0.952 . S
H277 C298 0.949 . S
H278 C300 0.950 . S
H279 C301 0.948 . S
H280 C303 0.951 . S
H281 C268 0.947 . S
H282 C270 0.952 . S
H283 C271 0.950 . S
N284 C287 1.382 . S
N284 C289 1.363 . S
N285 C287 1.371 . S
N285 C288 1.372 . S
N286 C288 1.361 . S
N286 C289 1.377 . S
C287 N284 1.382 . S
C287 N285 1.371 . S
C287 C290 1.480 . S
C288 N285 1.372 . S
C288 N286 1.361 . S
C288 C296 1.457 . S
C289 N284 1.363 . S
C289 N286 1.377 . S
C289 C302 1.479 . S
C290 C287 1.480 . S
C290 C291 1.383 . S
C290 C295 1.385 . S
C291 H272 0.947 . S
C291 C290 1.383 . S
C291 C292 1.388 . S
C292 H273 0.946 . S
C292 C291 1.388 . S
C292 C293 1.384 . S
C293 C292 1.384 . S
C293 C294 1.377 . S
C294 H274 0.953 . S
C294 C293 1.377 . S
C294 C295 1.369 . S
C295 H275 0.945 . S
C295 C290 1.385 . S
C295 C294 1.369 . S
C296 C288 1.457 . S
C296 C297 1.372 . S
C296 C301 1.364 . S
C297 H276 0.952 . S
C297 C296 1.372 . S
C297 C298 1.389 . S
C298 H277 0.949 . S
C298 C297 1.389 . S
C298 C299 1.387 . S
C299 C298 1.387 . S
C299 C300 1.372 . S
C300 H278 0.950 . S
C300 C299 1.372 . S
C300 C301 1.379 . S
C301 H279 0.948 . S
C301 C296 1.364 . S
C301 C300 1.379 . S
C302 C271 1.383 . S
C302 C289 1.479 . S
C302 C303 1.398 . S
C303 C268 1.382 . S
C303 H280 0.951 . S
C303 C302 1.398 . S
C304 C305 1.384 . S
C304 H317 0.947 . S
C304 C339 1.382 . S
C305 C304 1.384 . S
C305 C306 1.378 . S
C306 C305 1.378 . S
C306 C307 1.378 . S
C306 H318 0.952 . S
C307 C306 1.378 . S
C307 H319 0.950 . S
C307 C338 1.383 . S
H308 C327 0.947 . S
H309 C328 0.946 . S
H310 C330 0.953 . S
H311 C331 0.945 . S
H312 C333 0.952 . S
H313 C334 0.949 . S
H314 C336 0.950 . S
H315 C337 0.948 . S
H316 C339 0.951 . S
H317 C304 0.947 . S
H318 C306 0.952 . S
H319 C307 0.950 . S
N320 C323 1.382 . S
N320 C325 1.363 . S
N321 C323 1.371 . S
N321 C324 1.372 . S
N322 C324 1.361 . S
N322 C325 1.377 . S
C323 N320 1.382 . S
C323 N321 1.371 . S
C323 C326 1.480 . S
C324 N321 1.372 . S
C324 N322 1.361 . S
C324 C332 1.457 . S
C325 N320 1.363 . S
C325 N322 1.377 . S
C325 C338 1.479 . S
C326 C323 1.480 . S
C326 C327 1.383 . S
C326 C331 1.385 . S
C327 H308 0.947 . S
C327 C326 1.383 . S
C327 C328 1.388 . S
C328 H309 0.946 . S
C328 C327 1.388 . S
C328 C329 1.384 . S
C329 C328 1.384 . S
C329 C330 1.377 . S
C330 H310 0.953 . S
C330 C329 1.377 . S
C330 C331 1.369 . S
C331 H311 0.945 . S
C331 C326 1.385 . S
C331 C330 1.369 . S
C332 C324 1.457 . S
C332 C333 1.372 . S
C332 C337 1.364 . S
C333 H312 0.952 . S
C333 C332 1.372 . S
C333 C334 1.389 . S
C334 H313 0.949 . S
C334 C333 1.389 . S
C334 C335 1.387 . S
C335 C334 1.387 . S
C335 C336 1.372 . S
C336 H314 0.950 . S
C336 C335 1.372 . S
C336 C337 1.379 . S
C337 H315 0.948 . S
C337 C332 1.364 . S
C337 C336 1.379 . S
C338 C307 1.383 . S
C338 C325 1.479 . S
C338 C339 1.398 . S
C339 C304 1.382 . S
C339 H316 0.951 . S
C339 C338 1.398 . S
C340 C341 1.384 . S
C340 H353 0.947 . S
C340 C375 1.382 . S
C341 C340 1.384 . S
C341 C342 1.378 . S
C342 C341 1.378 . S
C342 C343 1.378 1_545 S
C342 H354 0.952 . S
C343 C342 1.378 1_565 S
C343 H355 0.950 . S
C343 C374 1.383 . S
H344 C363 0.947 . S
H345 C364 0.946 . S
H346 C366 0.953 . S
H347 C367 0.945 . S
H348 C369 0.952 . S
H349 C370 0.949 . S
H350 C372 0.950 . S
H351 C373 0.948 . S
H352 C375 0.951 . S
H353 C340 0.947 . S
H354 C342 0.952 . S
H355 C343 0.950 . S
N356 C359 1.382 . S
N356 C361 1.363 . S
N357 C359 1.371 . S
N357 C360 1.372 . S
N358 C360 1.361 . S
N358 C361 1.377 . S
C359 N356 1.382 . S
C359 N357 1.371 . S
C359 C362 1.480 . S
C360 N357 1.372 . S
C360 N358 1.361 . S
C360 C368 1.457 . S
C361 N356 1.363 . S
C361 N358 1.377 . S
C361 C374 1.479 . S
C362 C359 1.480 . S
C362 C363 1.383 . S
C362 C367 1.385 . S
C363 H344 0.947 . S
C363 C362 1.383 . S
C363 C364 1.388 . S
C364 H345 0.946 . S
C364 C363 1.388 . S
C364 C365 1.384 . S
C365 C364 1.384 . S
C365 C366 1.377 . S
C366 H346 0.953 . S
C366 C365 1.377 . S
C366 C367 1.369 . S
C367 H347 0.945 . S
C367 C362 1.385 . S
C367 C366 1.369 . S
C368 C360 1.457 . S
C368 C369 1.372 . S
C368 C373 1.364 . S
C369 H348 0.952 . S
C369 C368 1.372 . S
C369 C370 1.389 . S
C370 H349 0.949 . S
C370 C369 1.389 . S
C370 C371 1.387 . S
C371 C370 1.387 . S
C371 C372 1.372 . S
C372 H350 0.950 . S
C372 C371 1.372 . S
C372 C373 1.379 . S
C373 H351 0.948 . S
C373 C368 1.364 . S
C373 C372 1.379 . S
C374 C343 1.383 . S
C374 C361 1.479 . S
C374 C375 1.398 1_565 S
C375 C340 1.382 . S
C375 H352 0.951 . S
C375 C374 1.398 1_545 S
H376 C384 0.950 . S
H377 C389 0.950 . S
H378 C386 0.950 . S
H379 C388 0.950 . S
H380 C390 0.950 . S
H381 C392 0.950 . S
H382 C394 0.950 . S
H383 C395 0.950 . S
C384 H376 0.950 . S
C384 C385 1.386 . S
C384 C386 1.391 . S
C385 C384 1.386 . S
C385 C389 1.393 . S
C386 H378 0.950 . S
C386 C384 1.391 . S
C386 C387 1.400 . S
C387 C386 1.400 . S
C387 C388 1.398 . S
C387 C393 1.491 . S
C388 H379 0.950 . S
C388 C387 1.398 . S
C388 C389 1.391 . S
C389 H377 0.950 . S
C389 C385 1.393 . S
C389 C388 1.391 . S
C390 H380 0.950 . S
C390 C391 1.386 . S
C390 C392 1.391 . S
C391 C390 1.386 . S
C391 C395 1.393 . S
C392 H381 0.950 . S
C392 C390 1.391 . S
C392 C393 1.400 . S
C393 C387 1.491 . S
C393 C392 1.400 . S
C393 C394 1.398 . S
C394 H382 0.950 . S
C394 C393 1.398 . S
C394 C395 1.391 . S
C395 H383 0.950 . S
C395 C391 1.393 . S
C395 C394 1.391 . S
H396 C404 0.950 . S
H397 C409 0.950 . S
H398 C406 0.950 . S
H399 C408 0.950 . S
H400 C410 0.950 . S
H401 C412 0.950 . S
H402 C414 0.950 . S
H403 C415 0.950 . S
C404 H396 0.950 . S
C404 C405 1.386 . S
C404 C406 1.391 . S
C405 C404 1.386 . S
C405 C409 1.393 . S
C406 H398 0.950 . S
C406 C404 1.391 . S
C406 C407 1.400 . S
C407 C406 1.400 . S
C407 C408 1.398 . S
C407 C413 1.491 . S
C408 H399 0.950 . S
C408 C407 1.398 . S
C408 C409 1.391 . S
C409 H397 0.950 . S
C409 C405 1.393 . S
C409 C408 1.391 . S
C410 H400 0.950 . S
C410 C411 1.386 . S
C410 C412 1.391 . S
C411 C410 1.386 . S
C411 C415 1.393 . S
C412 H401 0.950 . S
C412 C410 1.391 . S
C412 C413 1.400 . S
C413 C407 1.491 . S
C413 C412 1.400 . S
C413 C414 1.398 . S
C414 H402 0.950 . S
C414 C413 1.398 . S
C414 C415 1.391 . S
C415 H403 0.950 . S
C415 C411 1.393 . S
C415 C414 1.391 . S
H416 C424 0.950 . S
H417 C429 0.950 . S
H418 C426 0.950 1_565 S
H419 C428 0.950 . S
H420 C430 0.950 . S
H421 C432 0.950 . S
H422 C434 0.950 . S
H423 C435 0.950 . S
C424 H416 0.950 . S
C424 C425 1.386 . S
C424 C426 1.391 . S
C425 C424 1.386 . S
C425 C429 1.393 . S
C426 H418 0.950 1_545 S
C426 C424 1.391 . S
C426 C427 1.400 1_545 S
C427 C426 1.400 1_565 S
C427 C428 1.398 1_565 S
C427 C433 1.491 . S
C428 H419 0.950 . S
C428 C427 1.398 1_545 S
C428 C429 1.391 . S
C429 H417 0.950 . S
C429 C425 1.393 . S
C429 C428 1.391 . S
C430 H420 0.950 . S
C430 C431 1.386 . S
C430 C432 1.391 . S
C431 C430 1.386 . S
C431 C435 1.393 . S
C432 H421 0.950 . S
C432 C430 1.391 . S
C432 C433 1.400 . S
C433 C427 1.491 . S
C433 C432 1.400 . S
C433 C434 1.398 . S
C434 H422 0.950 . S
C434 C433 1.398 . S
C434 C435 1.391 . S
C435 H423 0.950 . S
C435 C431 1.393 . S
C435 C434 1.391 . S
H436 C444 0.950 . S
H437 C449 0.950 . S
H438 C446 0.950 . S
H439 C448 0.950 . S
H440 C450 0.950 . S
H441 C452 0.950 . S
H442 C454 0.950 . S
H443 C455 0.950 . S
C444 H436 0.950 . S
C444 C445 1.386 . S
C444 C446 1.391 . S
C445 C444 1.386 . S
C445 C449 1.393 . S
C446 H438 0.950 . S
C446 C444 1.391 . S
C446 C447 1.400 . S
C447 C446 1.400 . S
C447 C448 1.398 . S
C447 C453 1.491 . S
C448 H439 0.950 . S
C448 C447 1.398 . S
C448 C449 1.391 . S
C449 H437 0.950 . S
C449 C445 1.393 . S
C449 C448 1.391 . S
C450 H440 0.950 . S
C450 C451 1.386 . S
C450 C452 1.391 . S
C451 C450 1.386 . S
C451 C455 1.393 . S
C452 H441 0.950 . S
C452 C450 1.391 . S
C452 C453 1.400 . S
C453 C447 1.491 . S
C453 C452 1.400 . S
C453 C454 1.398 . S
C454 H442 0.950 . S
C454 C453 1.398 . S
C454 C455 1.391 . S
C455 H443 0.950 . S
C455 C451 1.393 . S
C455 C454 1.391 . S
H456 C464 0.950 . S
H457 C469 0.950 . S
H458 C466 0.950 . S
H459 C468 0.950 . S
H460 C470 0.950 . S
H461 C472 0.950 . S
H462 C474 0.950 . S
H463 C475 0.950 . S
C464 H456 0.950 . S
C464 C465 1.386 . S
C464 C466 1.391 . S
C465 C464 1.386 . S
C465 C469 1.393 . S
C466 H458 0.950 . S
C466 C464 1.391 . S
C466 C467 1.400 . S
C467 C466 1.400 . S
C467 C468 1.398 . S
C467 C473 1.491 . S
C468 H459 0.950 . S
C468 C467 1.398 . S
C468 C469 1.391 . S
C469 H457 0.950 . S
C469 C465 1.393 . S
C469 C468 1.391 . S
C470 H460 0.950 . S
C470 C471 1.386 . S
C470 C472 1.391 . S
C471 C470 1.386 . S
C471 C475 1.393 . S
C472 H461 0.950 . S
C472 C470 1.391 . S
C472 C473 1.400 . S
C473 C467 1.491 . S
C473 C472 1.400 . S
C473 C474 1.398 . S
C474 H462 0.950 . S
C474 C473 1.398 . S
C474 C475 1.391 . S
C475 H463 0.950 . S
C475 C471 1.393 . S
C475 C474 1.391 . S
H476 C484 0.950 . S
H477 C489 0.948 1_556 S
H478 C486 0.950 . S
H479 C488 0.950 . S
H480 C490 0.950 . S
H481 C492 0.950 . S
H482 C494 0.950 1_554 S
H483 C495 0.950 . S
C484 H476 0.950 . S
C484 C485 1.386 . S
C484 C486 1.391 . S
C485 C484 1.386 . S
C485 C489 1.398 . S
C486 H478 0.950 . S
C486 C484 1.391 . S
C486 C487 1.400 1_554 S
C487 C486 1.400 1_556 S
C487 C488 1.398 . S
C487 C493 1.491 . S
C488 H479 0.950 . S
C488 C487 1.398 . S
C488 C489 1.388 1_556 S
C489 H477 0.948 1_554 S
C489 C485 1.398 . S
C489 C488 1.388 1_554 S
C490 H480 0.950 . S
C490 C491 1.386 . S
C490 C492 1.391 1_455 S
C491 C490 1.386 . S
C491 C495 1.393 . S
C492 H481 0.950 . S
C492 C490 1.391 1_655 S
C492 C493 1.400 . S
C493 C487 1.491 . S
C493 C492 1.400 . S
C493 C494 1.398 . S
C494 H482 0.950 1_556 S
C494 C493 1.398 . S
C494 C495 1.391 1_655 S
C495 H483 0.950 . S
C495 C491 1.393 . S
C495 C494 1.391 1_455 S
H496 C504 0.950 . S
H497 C509 0.950 . S
H498 C506 0.950 . S
H499 C508 0.950 . S
H500 C510 0.950 . S
H501 C512 0.950 . S
H502 C514 0.950 . S
H503 C515 0.950 . S
C504 H496 0.950 . S
C504 C505 1.386 . S
C504 C506 1.391 . S
C505 C504 1.386 . S
C505 C509 1.393 . S
C506 H498 0.950 . S
C506 C504 1.391 . S
C506 C507 1.400 . S
C507 C506 1.400 . S
C507 C508 1.398 . S
C507 C513 1.491 . S
C508 H499 0.950 . S
C508 C507 1.398 . S
C508 C509 1.391 . S
C509 H497 0.950 . S
C509 C505 1.393 . S
C509 C508 1.391 . S
C510 H500 0.950 . S
C510 C511 1.386 . S
C510 C512 1.391 . S
C511 C510 1.386 . S
C511 C515 1.393 . S
C512 H501 0.950 . S
C512 C510 1.391 . S
C512 C513 1.400 . S
C513 C507 1.491 . S
C513 C512 1.400 . S
C513 C514 1.398 . S
C514 H502 0.950 . S
C514 C513 1.398 . S
C514 C515 1.391 . S
C515 H503 0.950 . S
C515 C511 1.393 . S
C515 C514 1.391 . S
H516 C524 0.950 . S
H517 C529 0.950 . S
H518 C526 0.950 . S
H519 C528 0.950 . S
H520 C530 0.950 . S
H521 C532 0.950 . S
H522 C534 0.950 . S
H523 C535 0.950 1_655 S
C524 H516 0.950 . S
C524 C525 1.386 . S
C524 C526 1.391 . S
C525 C524 1.386 . S
C525 C529 1.393 . S
C526 H518 0.950 . S
C526 C524 1.391 . S
C526 C527 1.400 . S
C527 C526 1.400 . S
C527 C528 1.398 . S
C527 C533 1.491 . S
C528 H519 0.950 . S
C528 C527 1.398 . S
C528 C529 1.391 . S
C529 H517 0.950 . S
C529 C525 1.393 . S
C529 C528 1.391 . S
C530 H520 0.950 . S
C530 C531 1.386 . S
C530 C532 1.391 . S
C531 C530 1.386 . S
C531 C535 1.393 . S
C532 H521 0.950 . S
C532 C530 1.391 . S
C532 C533 1.400 . S
C533 C527 1.491 . S
C533 C532 1.400 . S
C533 C534 1.398 . S
C534 H522 0.950 . S
C534 C533 1.398 . S
C534 C535 1.391 . S
C535 H523 0.950 1_455 S
C535 C531 1.393 . S
C535 C534 1.391 . S
H536 C544 0.950 . S
H537 C549 0.950 . S
H538 C546 0.950 . S
H539 C548 0.950 . S
H540 C550 0.950 . S
H541 C552 0.950 . S
H542 C554 0.950 . S
H543 C555 0.950 . S
C544 H536 0.950 . S
C544 C545 1.386 . S
C544 C546 1.391 . S
C545 C544 1.386 . S
C545 C549 1.393 . S
C546 H538 0.950 . S
C546 C544 1.391 . S
C546 C547 1.400 . S
C547 C546 1.400 . S
C547 C548 1.398 . S
C547 C553 1.491 . S
C548 H539 0.950 . S
C548 C547 1.398 . S
C548 C549 1.391 . S
C549 H537 0.950 . S
C549 C545 1.393 . S
C549 C548 1.391 . S
C550 H540 0.950 . S
C550 C551 1.386 . S
C550 C552 1.391 . S
C551 C550 1.386 . S
C551 C555 1.393 . S
C552 H541 0.950 . S
C552 C550 1.391 . S
C552 C553 1.400 . S
C553 C547 1.491 . S
C553 C552 1.400 . S
C553 C554 1.398 . S
C554 H542 0.950 . S
C554 C553 1.398 . S
C554 C555 1.391 . S
C555 H543 0.950 . S
C555 C551 1.393 . S
C555 C554 1.391 . S
H556 C564 0.950 . S
H557 C569 0.950 . S
H558 C566 0.950 . S
H559 C568 0.950 . S
H560 C570 0.950 . S
H561 C572 0.950 . S
H562 C574 0.950 . S
H563 C575 0.950 . S
C564 H556 0.950 . S
C564 C565 1.386 . S
C564 C566 1.391 . S
C565 C564 1.386 . S
C565 C569 1.393 . S
C566 H558 0.950 . S
C566 C564 1.391 . S
C566 C567 1.400 . S
C567 C566 1.400 . S
C567 C568 1.398 . S
C567 C573 1.491 . S
C568 H559 0.950 . S
C568 C567 1.398 . S
C568 C569 1.391 . S
C569 H557 0.950 . S
C569 C565 1.393 . S
C569 C568 1.391 . S
C570 H560 0.950 . S
C570 C571 1.386 . S
C570 C572 1.391 . S
C571 C570 1.386 . S
C571 C575 1.393 . S
C572 H561 0.950 . S
C572 C570 1.391 . S
C572 C573 1.400 . S
C573 C567 1.491 . S
C573 C572 1.400 . S
C573 C574 1.398 . S
C574 H562 0.950 . S
C574 C573 1.398 . S
C574 C575 1.391 . S
C575 H563 0.950 . S
C575 C571 1.393 . S
C575 C574 1.391 . S
H576 C584 0.950 . S
H577 C589 0.950 . S
H578 C586 0.950 . S
H579 C588 0.945 1_544 S
H580 C590 0.950 . S
H581 C592 0.950 1_554 S
H582 C594 0.950 . S
H583 C595 0.950 . S
C584 H576 0.950 . S
C584 C585 1.386 . S
C584 C586 1.391 . S
C585 C584 1.386 . S
C585 C589 1.393 1_556 S
C586 H578 0.950 . S
C586 C584 1.391 . S
C586 C587 1.400 1_565 S
C587 C586 1.400 1_545 S
C587 C588 1.396 1_545 S
C587 C593 1.491 . S
C588 H579 0.945 1_566 S
C588 C587 1.396 1_565 S
C588 C589 1.398 1_556 S
C589 H577 0.950 . S
C589 C585 1.393 1_554 S
C589 C588 1.398 1_554 S
C590 H580 0.950 . S
C590 C591 1.386 . S
C590 C592 1.391 . S
C591 C590 1.386 . S
C591 C595 1.393 . S
C592 H581 0.950 1_556 S
C592 C590 1.391 . S
C592 C593 1.400 . S
C593 C587 1.491 . S
C593 C592 1.400 . S
C593 C594 1.398 . S
C594 H582 0.950 . S
C594 C593 1.398 . S
C594 C595 1.391 . S
C595 H583 0.950 . S
C595 C591 1.393 . S
C595 C594 1.391 . S
H596 C604 0.950 . S
H597 C609 0.950 . S
H598 C606 0.950 . S
H599 C608 0.950 . S
H600 C610 0.950 . S
H601 C612 0.950 . S
H602 C614 0.950 . S
H603 C615 0.950 . S
C604 H596 0.950 . S
C604 C605 1.386 . S
C604 C606 1.391 . S
C605 C604 1.386 . S
C605 C609 1.393 . S
C606 H598 0.950 . S
C606 C604 1.391 . S
C606 C607 1.400 . S
C607 C606 1.400 . S
C607 C608 1.398 . S
C607 C613 1.491 . S
C608 H599 0.950 . S
C608 C607 1.398 . S
C608 C609 1.391 . S
C609 H597 0.950 . S
C609 C605 1.393 . S
C609 C608 1.391 . S
C610 H600 0.950 . S
C610 C611 1.386 . S
C610 C612 1.391 . S
C611 C610 1.386 . S
C611 C615 1.393 . S
C612 H601 0.950 . S
C612 C610 1.391 . S
C612 C613 1.400 . S
C613 C607 1.491 . S
C613 C612 1.400 . S
C613 C614 1.398 . S
C614 H602 0.950 . S
C614 C613 1.398 . S
C614 C615 1.391 . S
C615 H603 0.950 . S
C615 C611 1.393 . S
C615 C614 1.391 . S
H616 C624 0.950 . S
H617 C629 0.950 . S
H618 C626 0.950 . S
H619 C628 0.950 . S
H620 C630 0.950 . S
H621 C632 0.950 . S
H622 C634 0.950 . S
H623 C635 0.950 . S
C624 H616 0.950 . S
C624 C625 1.386 . S
C624 C626 1.391 . S
C625 C624 1.386 . S
C625 C629 1.393 . S
C626 H618 0.950 . S
C626 C624 1.391 . S
C626 C627 1.400 . S
C627 C626 1.400 . S
C627 C628 1.398 . S
C627 C633 1.491 . S
C628 H619 0.950 . S
C628 C627 1.398 . S
C628 C629 1.391 . S
C629 H617 0.950 . S
C629 C625 1.393 . S
C629 C628 1.391 . S
C630 H620 0.950 . S
C630 C631 1.386 . S
C630 C632 1.391 . S
C631 C630 1.386 . S
C631 C635 1.393 . S
C632 H621 0.950 . S
C632 C630 1.391 . S
C632 C633 1.400 . S
C633 C627 1.491 . S
C633 C632 1.400 . S
C633 C634 1.398 . S
C634 H622 0.950 . S
C634 C633 1.398 . S
C634 C635 1.391 . S
C635 H623 0.950 . S
C635 C631 1.393 . S
C635 C634 1.391 . S
H636 C644 0.950 . S
H637 C649 0.950 . S
H638 C646 0.950 . S
H639 C648 0.950 . S
H640 C650 0.950 . S
H641 C652 0.950 . S
H642 C654 0.950 . S
H643 C655 0.950 . S
C644 H636 0.950 . S
C644 C645 1.386 . S
C644 C646 1.391 . S
C645 C644 1.386 . S
C645 C649 1.393 . S
C646 H638 0.950 . S
C646 C644 1.391 . S
C646 C647 1.400 . S
C647 C646 1.400 . S
C647 C648 1.398 . S
C647 C653 1.491 . S
C648 H639 0.950 . S
C648 C647 1.398 . S
C648 C649 1.391 . S
C649 H637 0.950 . S
C649 C645 1.393 . S
C649 C648 1.391 . S
C650 H640 0.950 . S
C650 C651 1.386 . S
C650 C652 1.422 . S
C651 C650 1.386 . S
C651 C655 1.393 1_655 S
C652 H641 0.950 . S
C652 C650 1.422 . S
C652 C653 1.371 1_655 S
C653 C647 1.491 . S
C653 C652 1.371 1_455 S
C653 C654 1.398 . S
C654 H642 0.950 . S
C654 C653 1.398 . S
C654 C655 1.391 . S
C655 H643 0.950 . S
C655 C651 1.393 1_455 S
C655 C654 1.391 . S
H656 C664 0.950 . S
H657 C669 0.950 . S
H658 C666 0.950 . S
H659 C668 0.950 . S
H660 C670 0.950 . S
H661 C672 0.950 . S
H662 C674 0.950 . S
H663 C675 0.950 . S
C664 H656 0.950 . S
C664 C665 1.386 . S
C664 C666 1.391 . S
C665 C664 1.386 . S
C665 C669 1.393 . S
C666 H658 0.950 . S
C666 C664 1.391 . S
C666 C667 1.400 . S
C667 C666 1.400 . S
C667 C668 1.398 . S
C667 C673 1.491 . S
C668 H659 0.950 . S
C668 C667 1.398 . S
C668 C669 1.391 . S
C669 H657 0.950 . S
C669 C665 1.393 . S
C669 C668 1.391 . S
C670 H660 0.950 . S
C670 C671 1.386 . S
C670 C672 1.391 . S
C671 C670 1.386 . S
C671 C675 1.393 . S
C672 H661 0.950 . S
C672 C670 1.391 . S
C672 C673 1.400 . S
C673 C667 1.491 . S
C673 C672 1.400 . S
C673 C674 1.398 . S
C674 H662 0.950 . S
C674 C673 1.398 . S
C674 C675 1.391 . S
C675 H663 0.950 . S
C675 C671 1.393 . S
C675 C674 1.391 . S
H676 C684 0.950 . S
H677 C689 0.950 . S
H678 C686 0.950 . S
H679 C688 0.950 . S
H680 C690 0.950 1_455 S
H681 C692 0.950 . S
H682 C694 0.950 . S
H683 C695 0.950 . S
C684 H676 0.950 . S
C684 C685 1.386 . S
C684 C686 1.391 . S
C685 C684 1.386 . S
C685 C689 1.393 . S
C686 H678 0.950 . S
C686 C684 1.391 . S
C686 C687 1.400 . S
C687 C686 1.400 . S
C687 C688 1.398 . S
C687 C693 1.491 . S
C688 H679 0.950 . S
C688 C687 1.398 . S
C688 C689 1.391 . S
C689 H677 0.950 . S
C689 C685 1.393 . S
C689 C688 1.391 . S
C690 H680 0.950 1_655 S
C690 C691 1.386 . S
C690 C692 1.391 . S
C691 C690 1.386 . S
C691 C695 1.393 . S
C692 H681 0.950 . S
C692 C690 1.391 . S
C692 C693 1.400 . S
C693 C687 1.491 . S
C693 C692 1.400 . S
C693 C694 1.398 . S
C694 H682 0.950 . S
C694 C693 1.398 . S
C694 C695 1.391 . S
C695 H683 0.950 . S
C695 C691 1.393 . S
C695 C694 1.391 . S
H696 C704 0.950 . S
H697 C709 0.950 . S
H698 C706 0.950 . S
H699 C708 0.950 . S
H700 C710 0.950 . S
H701 C712 0.950 . S
H702 C714 0.950 . S
H703 C715 0.950 . S
C704 H696 0.950 . S
C704 C705 1.386 . S
C704 C706 1.391 . S
C705 C704 1.386 . S
C705 C709 1.393 . S
C706 H698 0.950 . S
C706 C704 1.391 . S
C706 C707 1.400 . S
C707 C706 1.400 . S
C707 C708 1.398 . S
C707 C713 1.491 . S
C708 H699 0.950 . S
C708 C707 1.398 . S
C708 C709 1.391 . S
C709 H697 0.950 . S
C709 C705 1.393 . S
C709 C708 1.391 . S
C710 H700 0.950 . S
C710 C711 1.386 . S
C710 C712 1.391 . S
C711 C710 1.386 . S
C711 C715 1.393 . S
C712 H701 0.950 . S
C712 C710 1.391 . S
C712 C713 1.400 . S
C713 C707 1.491 . S
C713 C712 1.400 . S
C713 C714 1.398 . S
C714 H702 0.950 . S
C714 C713 1.398 . S
C714 C715 1.391 . S
C715 H703 0.950 . S
C715 C711 1.393 . S
C715 C714 1.391 . S
H716 C724 0.950 . S
H717 C729 0.950 . S
H718 C726 0.950 . S
H719 C728 0.950 . S
H720 C730 0.950 . S
H721 C732 0.950 . S
H722 C734 0.950 . S
H723 C735 0.950 . S
C724 H716 0.950 . S
C724 C725 1.386 . S
C724 C726 1.391 . S
C725 C724 1.386 . S
C725 C729 1.393 . S
C726 H718 0.950 . S
C726 C724 1.391 . S
C726 C727 1.400 . S
C727 C726 1.400 . S
C727 C728 1.398 . S
C727 C733 1.491 . S
C728 H719 0.950 . S
C728 C727 1.398 . S
C728 C729 1.391 . S
C729 H717 0.950 . S
C729 C725 1.393 . S
C729 C728 1.391 . S
C730 H720 0.950 . S
C730 C731 1.386 . S
C730 C732 1.391 . S
C731 C730 1.386 . S
C731 C735 1.393 . S
C732 H721 0.950 . S
C732 C730 1.391 . S
C732 C733 1.400 . S
C733 C727 1.491 . S
C733 C732 1.400 . S
C733 C734 1.398 . S
C734 H722 0.950 . S
C734 C733 1.398 . S
C734 C735 1.391 . S
C735 H723 0.950 . S
C735 C731 1.393 . S
C735 C734 1.391 . S
H736 C744 0.950 . S
H737 C749 0.950 . S
H738 C746 0.950 . S
H739 C748 0.950 . S
H740 C750 0.950 . S
H741 C752 0.950 . S
H742 C754 0.950 . S
H743 C755 0.950 . S
C744 H736 0.950 . S
C744 C745 1.386 . S
C744 C746 1.391 . S
C745 C744 1.386 . S
C745 C749 1.393 . S
C746 H738 0.950 . S
C746 C744 1.391 . S
C746 C747 1.400 . S
C747 C746 1.400 . S
C747 C748 1.398 . S
C747 C753 1.491 . S
C748 H739 0.950 . S
C748 C747 1.398 . S
C748 C749 1.391 . S
C749 H737 0.950 . S
C749 C745 1.393 . S
C749 C748 1.391 . S
C750 H740 0.950 . S
C750 C751 1.386 . S
C750 C752 1.391 . S
C751 C750 1.386 . S
C751 C755 1.393 . S
C752 H741 0.950 . S
C752 C750 1.391 . S
C752 C753 1.400 . S
C753 C747 1.491 . S
C753 C752 1.400 . S
C753 C754 1.398 . S
C754 H742 0.950 . S
C754 C753 1.398 . S
C754 C755 1.391 . S
C755 H743 0.950 . S
C755 C751 1.393 . S
C755 C754 1.391 . S
H756 C764 0.950 . S
H757 C769 0.950 . S
H758 C766 0.950 . S
H759 C768 0.950 . S
H760 C770 0.950 . S
H761 C772 0.950 . S
H762 C774 0.950 . S
H763 C775 0.950 . S
C764 H756 0.950 . S
C764 C765 1.386 . S
C764 C766 1.391 . S
C765 C764 1.386 . S
C765 C769 1.393 . S
C766 H758 0.950 . S
C766 C764 1.391 . S
C766 C767 1.400 . S
C767 C766 1.400 . S
C767 C768 1.398 . S
C767 C773 1.491 . S
C768 H759 0.950 . S
C768 C767 1.398 . S
C768 C769 1.391 . S
C769 H757 0.950 . S
C769 C765 1.393 . S
C769 C768 1.391 . S
C770 H760 0.950 . S
C770 C771 1.386 . S
C770 C772 1.391 . S
C771 C770 1.386 . S
C771 C775 1.393 . S
C772 H761 0.950 . S
C772 C770 1.391 . S
C772 C773 1.400 . S
C773 C767 1.491 . S
C773 C772 1.400 . S
C773 C774 1.398 . S
C774 H762 0.950 . S
C774 C773 1.398 . S
C774 C775 1.391 . S
C775 H763 0.950 . S
C775 C771 1.393 . S
C775 C774 1.391 . S
H776 C784 0.950 . S
H777 C789 0.950 . S
H778 C786 0.950 . S
H779 C788 0.950 . S
H780 C790 0.950 . S
H781 C792 0.950 . S
H782 C794 0.950 . S
H783 C795 0.950 . S
C784 H776 0.950 . S
C784 C785 1.386 . S
C784 C786 1.391 . S
C785 C784 1.386 . S
C785 C789 1.393 . S
C786 H778 0.950 . S
C786 C784 1.391 . S
C786 C787 1.400 . S
C787 C786 1.400 . S
C787 C788 1.398 . S
C787 C793 1.491 . S
C788 H779 0.950 . S
C788 C787 1.398 . S
C788 C789 1.391 . S
C789 H777 0.950 . S
C789 C785 1.393 . S
C789 C788 1.391 . S
C790 H780 0.950 . S
C790 C791 1.386 . S
C790 C792 1.391 . S
C791 C790 1.386 . S
C791 C795 1.393 . S
C792 H781 0.950 . S
C792 C790 1.391 . S
C792 C793 1.400 . S
C793 C787 1.491 . S
C793 C792 1.400 . S
C793 C794 1.398 . S
C794 H782 0.950 . S
C794 C793 1.398 . S
C794 C795 1.391 . S
C795 H783 0.950 . S
C795 C791 1.393 . S
C795 C794 1.391 . S
H796 C804 0.950 . S
H797 C809 0.950 . S
H798 C806 0.950 . S
H799 C808 0.950 . S
H800 C810 0.950 . S
H801 C812 0.950 1_554 S
H802 C814 0.950 . S
H803 C815 0.950 . S
C804 H796 0.950 . S
C804 C805 1.386 1_556 S
C804 C806 1.391 . S
C805 C804 1.386 1_554 S
C805 C809 1.393 . S
C806 H798 0.950 . S
C806 C804 1.391 . S
C806 C807 1.400 . S
C807 C806 1.400 . S
C807 C808 1.398 1_556 S
C807 C813 1.491 . S
C808 H799 0.950 . S
C808 C807 1.398 1_554 S
C808 C809 1.391 . S
C809 H797 0.950 . S
C809 C805 1.393 . S
C809 C808 1.391 . S
C810 H800 0.950 . S
C810 C811 1.386 . S
C810 C812 1.391 . S
C811 C810 1.386 . S
C811 C815 1.393 . S
C812 H801 0.950 1_556 S
C812 C810 1.391 . S
C812 C813 1.400 . S
C813 C807 1.491 . S
C813 C812 1.400 . S
C813 C814 1.398 . S
C814 H802 0.950 . S
C814 C813 1.398 . S
C814 C815 1.391 . S
C815 H803 0.950 . S
C815 C811 1.393 . S
C815 C814 1.391 . S
H816 C824 0.950 . S
H817 C829 0.950 . S
H818 C826 0.950 . S
H819 C828 0.950 . S
H820 C830 0.950 . S
H821 C832 0.950 . S
H822 C834 0.950 . S
H823 C835 0.950 . S
C824 H816 0.950 . S
C824 C825 1.386 . S
C824 C826 1.391 . S
C825 C824 1.386 . S
C825 C829 1.393 . S
C826 H818 0.950 . S
C826 C824 1.391 . S
C826 C827 1.400 . S
C827 C826 1.400 . S
C827 C828 1.398 . S
C827 C833 1.491 . S
C828 H819 0.950 . S
C828 C827 1.398 . S
C828 C829 1.391 . S
C829 H817 0.950 . S
C829 C825 1.393 . S
C829 C828 1.391 . S
C830 H820 0.950 . S
C830 C831 1.386 . S
C830 C832 1.391 . S
C831 C830 1.386 . S
C831 C835 1.393 . S
C832 H821 0.950 . S
C832 C830 1.391 . S
C832 C833 1.400 . S
C833 C827 1.491 . S
C833 C832 1.400 . S
C833 C834 1.398 . S
C834 H822 0.950 . S
C834 C833 1.398 . S
C834 C835 1.391 . S
C835 H823 0.950 . S
C835 C831 1.393 . S
C835 C834 1.391 . S
H836 C844 0.950 . S
H837 C849 0.950 . S
H838 C846 0.950 . S
H839 C848 0.950 . S
H840 C850 0.950 . S
H841 C852 0.950 . S
H842 C854 0.950 . S
H843 C855 0.950 . S
C844 H836 0.950 . S
C844 C845 1.386 . S
C844 C846 1.391 . S
C845 C844 1.386 . S
C845 C849 1.393 . S
C846 H838 0.950 . S
C846 C844 1.391 . S
C846 C847 1.400 . S
C847 C846 1.400 . S
C847 C848 1.398 . S
C847 C853 1.491 . S
C848 H839 0.950 . S
C848 C847 1.398 . S
C848 C849 1.391 . S
C849 H837 0.950 . S
C849 C845 1.393 . S
C849 C848 1.391 . S
C850 H840 0.950 . S
C850 C851 1.386 . S
C850 C852 1.391 . S
C851 C850 1.386 . S
C851 C855 1.393 . S
C852 H841 0.950 . S
C852 C850 1.391 . S
C852 C853 1.400 . S
C853 C847 1.491 . S
C853 C852 1.400 . S
C853 C854 1.398 . S
C854 H842 0.950 . S
C854 C853 1.398 . S
C854 C855 1.391 . S
C855 H843 0.950 . S
C855 C851 1.393 . S
C855 C854 1.391 . S
C385 C8 1.521 . S
C391 C119 1.359 . S
C405 C31 1.800 . S
C411 C155 1.710 . S
C425 C53 1.449 . S
C431 C191 1.422 . S
C451 C221 1.462 . S
C445 C74 1.585 . S
C471 C263 1.460 . S
C465 C26 1.445 . S
C485 C48 1.777 . S
C491 C293 1.688 . S
C505 C71 1.508 . S
C511 C329 1.351 . S
C525 C5 1.604 . S
C531 C371 1.486 1_455 S
C545 C50 1.497 1_556 S
C551 C341 1.415 . S
C571 C233 1.720 . S
C565 C70 1.771 . S
C591 C299 1.458 . S
C585 C4 1.434 . S
C605 C28 1.607 . S
C611 C335 1.521 . S
C631 C125 1.448 . S
C625 C73 1.448 . S
C645 C7 1.788 . S
C651 C185 1.647 . S
C671 C227 1.392 . S
C665 C30 1.532 . S
C691 C89 1.511 1_655 S
C685 C52 1.573 . S
C711 C305 1.346 . S
C705 C9 1.374 . S
C731 C365 1.349 . S
C725 C29 1.386 . S
C745 C51 1.560 . S
C751 C257 1.519 . S
C771 C269 1.506 . S
C765 C75 1.545 . S
C791 C161 1.486 . S
C785 C27 1.549 . S
C805 C49 1.386 . S
C811 C197 1.356 . S
C831 C113 1.332 . S
C825 C72 1.372 . S
C851 C149 1.525 . S
C845 C6 1.563 . S
