# Generated by pormake.
# Topology nom, (4,4)-cn, num edge types: 1
# Building blocks:
#     Node 0, Type 0, BuildingBlock: KUFVIS_clean_linker_0, # of connection points: 4
#     Node 1, Type 0, BuildingBlock: KUFVIS_clean_linker_0, # of connection points: 4
#     Node 2, Type 0, BuildingBlock: KUFVIS_clean_linker_0, # of connection points: 4
#     Node 3, Type 0, BuildingBlock: KUFVIS_clean_linker_0, # of connection points: 4
#     Node 4, Type 0, BuildingBlock: KUFVIS_clean_linker_0, # of connection points: 4
#     Node 5, Type 0, BuildingBlock: KUFVIS_clean_linker_0, # of connection points: 4
#     Node 6, Type 1, BuildingBlock: TATPOV_clean_sbu_0, # of connection points: 4
#     Node 7, Type 1, BuildingBlock: TATPOV_clean_sbu_0, # of connection points: 4
#     Node 8, Type 1, BuildingBlock: TATPOV_clean_sbu_0, # of connection points: 4
#     Node 9, Type 1, BuildingBlock: TATPOV_clean_sbu_0, # of connection points: 4
#     Node 10, Type 1, BuildingBlock: TATPOV_clean_sbu_0, # of connection points: 4
#     Node 11, Type 1, BuildingBlock: TATPOV_clean_sbu_0, # of connection points: 4
#     Edge 12, Type (0, 1), BuildingBlock: UVAHIK_clean_linker_0, # of connection points: 2
#     Edge 13, Type (0, 1), BuildingBlock: UVAHIK_clean_linker_0, # of connection points: 2
#     Edge 14, Type (0, 1), BuildingBlock: UVAHIK_clean_linker_0, # of connection points: 2
#     Edge 15, Type (0, 1), BuildingBlock: UVAHIK_clean_linker_0, # of connection points: 2
#     Edge 16, Type (0, 1), BuildingBlock: UVAHIK_clean_linker_0, # of connection points: 2
#     Edge 17, Type (0, 1), BuildingBlock: UVAHIK_clean_linker_0, # of connection points: 2
#     Edge 18, Type (0, 1), BuildingBlock: UVAHIK_clean_linker_0, # of connection points: 2
#     Edge 19, Type (0, 1), BuildingBlock: UVAHIK_clean_linker_0, # of connection points: 2
#     Edge 20, Type (0, 1), BuildingBlock: UVAHIK_clean_linker_0, # of connection points: 2
#     Edge 21, Type (0, 1), BuildingBlock: UVAHIK_clean_linker_0, # of connection points: 2
#     Edge 22, Type (0, 1), BuildingBlock: UVAHIK_clean_linker_0, # of connection points: 2
#     Edge 23, Type (0, 1), BuildingBlock: UVAHIK_clean_linker_0, # of connection points: 2
#     Edge 24, Type (0, 1), BuildingBlock: UVAHIK_clean_linker_0, # of connection points: 2
#     Edge 25, Type (0, 1), BuildingBlock: UVAHIK_clean_linker_0, # of connection points: 2
#     Edge 26, Type (0, 1), BuildingBlock: UVAHIK_clean_linker_0, # of connection points: 2
#     Edge 27, Type (0, 1), BuildingBlock: UVAHIK_clean_linker_0, # of connection points: 2
#     Edge 28, Type (0, 1), BuildingBlock: UVAHIK_clean_linker_0, # of connection points: 2
#     Edge 29, Type (0, 1), BuildingBlock: UVAHIK_clean_linker_0, # of connection points: 2
#     Edge 30, Type (0, 1), BuildingBlock: UVAHIK_clean_linker_0, # of connection points: 2
#     Edge 31, Type (0, 1), BuildingBlock: UVAHIK_clean_linker_0, # of connection points: 2
#     Edge 32, Type (0, 1), BuildingBlock: UVAHIK_clean_linker_0, # of connection points: 2
#     Edge 33, Type (0, 1), BuildingBlock: UVAHIK_clean_linker_0, # of connection points: 2
#     Edge 34, Type (0, 1), BuildingBlock: UVAHIK_clean_linker_0, # of connection points: 2
#     Edge 35, Type (0, 1), BuildingBlock: UVAHIK_clean_linker_0, # of connection points: 2
# Relax obj value: 0.019
# Max RMSD: 0.117
# Mean RMSD: 0.079
data_MOF--net-nom--node1-TATPOV_clean_sbu_0--node2-KUFVIS_clean_linker_0--edge1-UVAHIK_clean_linker_0
_symmetry_space_group_name_H-M    P1
_symmetry_Int_Tables_number       1
_symmetry_cell_setting            triclinic
loop_
_symmetry_equiv_pos_as_xyz
'x, y, z'
_cell_length_a     57.459362
_cell_length_b     58.050684
_cell_length_c     60.707964
_cell_angle_alpha  90.569569
_cell_angle_beta   90.442763
_cell_angle_gamma 120.00745
loop_
_atom_site_label
_atom_site_type_symbol
_atom_site_fract_x
_atom_site_fract_y
_atom_site_fract_z
_atom_type_partial_charge
H0 H 0.11868 0.55308 0.31664 0.0
H1 H 0.04804 0.52192 0.27564 0.0
H2 H 0.04369 0.49066 0.34082 0.0
H3 H 1.00255 0.49233 0.33753 0.0
H4 H 0.93564 0.43983 0.29623 0.0
H5 H 1.01562 0.4754 0.27075 0.0
C6 C 0.09746 0.53894 0.31409 0.0
C7 C 0.08277 0.52153 0.33092 0.0
C8 C 0.08512 0.53914 0.29423 0.0
C9 C 0.0576 0.52131 0.29091 0.0
C10 C 0.04225 0.50374 0.30775 0.0
C11 C 0.0551 0.5041 0.32778 0.0
C12 C 1.01278 0.48557 0.30467 0.0
C13 C 0.99496 0.48175 0.32196 0.0
C14 C 0.9672 0.46473 0.31905 0.0
C15 C 0.95722 0.4518 0.29871 0.0
C16 C 0.9744 0.45578 0.28109 0.0
C17 C 1.00223 0.47254 0.28423 0.0
H18 H 0.5848 0.12888 0.47339 0.0
H19 H 0.53813 0.05987 0.43248 0.0
H20 H 0.56788 0.05229 0.4961 0.0
H21 H 0.52414 1.01399 0.49439 0.0
H22 H 0.50462 0.94619 0.45334 0.0
H23 H 0.54791 0.02449 0.42615 0.0
C24 C 0.57606 0.10762 0.47066 0.0
C25 C 0.57825 0.09197 0.48702 0.0
C26 C 0.56183 0.09622 0.45105 0.0
C27 C 0.54956 0.06862 0.44755 0.0
C28 C 0.55141 0.05238 0.46387 0.0
C29 C 0.56593 0.06437 0.48353 0.0
C30 C 0.53808 0.02296 0.46071 0.0
C31 C 0.5253 1.0059 0.47853 0.0
C32 C 0.51385 0.9783 0.47594 0.0
C33 C 0.51459 0.96764 0.45541 0.0
C34 C 0.52645 0.98402 0.43727 0.0
C35 C 0.53826 1.01173 0.44002 0.0
H36 H 0.53855 0.46281 0.62189 0.0
H37 H 0.51298 0.50237 0.66704 0.0
H38 H 0.51788 0.51948 0.59736 0.0
H39 H 0.48293 0.52662 0.60642 0.0
H40 H 0.48269 0.58529 0.64964 0.0
H41 H 0.52513 0.54554 0.66927 0.0
C42 C 0.5312 0.47653 0.62475 0.0
C43 C 0.52774 0.48981 0.60703 0.0
C44 C 0.52642 0.4815 0.64628 0.0
C45 C 0.5173 0.49943 0.65025 0.0
C46 C 0.51397 0.51346 0.63271 0.0
C47 C 0.51956 0.50858 0.61107 0.0
C48 C 0.50549 0.53362 0.63711 0.0
C49 C 0.48969 0.53812 0.62164 0.0
C50 C 0.48226 0.5574 0.6259 0.0
C51 C 0.48977 0.57152 0.64594 0.0
C52 C 0.5045 0.56673 0.66185 0.0
C53 C 0.51288 0.54831 0.65714 0.0
H54 H 0.09996 0.55545 0.77716 0.0
H55 H 0.04148 0.50615 0.82405 0.0
H56 H 1.01765 0.50944 0.75661 0.0
H57 H 0.98381 0.46941 0.76341 0.0
H58 H 0.92231 0.43506 0.81164 0.0
H59 H 1.00055 0.49748 0.83133 0.0
C60 C 0.07917 0.54172 0.78119 0.0
C61 C 0.05954 0.53267 0.76458 0.0
C62 C 0.07256 0.53277 0.80272 0.0
C63 C 0.04587 0.5139 0.80754 0.0
C64 C 0.02527 0.50526 0.7912 0.0
C65 C 0.03257 0.51522 0.76963 0.0
C66 C 0.99651 0.48588 0.79669 0.0
C67 C 0.97786 0.46896 0.78033 0.0
C68 C 0.95118 0.45084 0.7858 0.0
C69 C 0.94309 0.44888 0.80764 0.0
C70 C 0.96092 0.46537 0.82412 0.0
C71 C 0.98734 0.4842 0.81852 0.0
H72 H 0.54023 0.93669 -0.01408 0.0
H73 H 0.5652 0.99897 0.93896 0.0
H74 H 0.5572 1.01412 0.00766 0.0
H75 H 0.59279 0.05542 -0.00126 0.0
H76 H 0.58902 0.11159 0.95582 0.0
H77 H 0.55167 0.02967 0.9355 0.0
C78 C 0.54734 0.95744 -0.01758 0.0
C79 C 0.54896 0.97465 -0.00058 0.0
C80 C 0.5527 0.96599 0.96065 0.0
C81 C 0.56074 0.99253 0.95585 0.0
C82 C 0.5631 1.01054 0.9728 0.0
C83 C 0.55672 1.00111 -0.00547 0.0
C84 C 0.57102 0.03873 0.96782 0.0
C85 C 0.58588 0.05945 -0.01662 0.0
C86 C 0.59174 0.08555 0.97923 0.0
C87 C 0.58361 0.09121 0.95924 0.0
C88 C 0.56971 0.0713 0.94327 0.0
C89 C 0.56326 0.04508 0.94766 0.0
H90 H 0.513 0.60915 0.13852 0.0
H91 H 0.53452 0.56573 0.1827 0.0
H92 H 0.52805 0.54894 0.11258 0.0
H93 H 0.56006 0.53895 0.12054 0.0
H94 H 0.55495 0.47566 0.15937 0.0
H95 H 0.52098 0.5218 0.18383 0.0
C96 C 0.51919 0.59449 0.14092 0.0
C97 C 0.52098 0.58038 0.1228 0.0
C98 C 0.52392 0.58919 0.16237 0.0
C99 C 0.53057 0.56932 0.16599 0.0
C100 C 0.53244 0.55459 0.14804 0.0
C101 C 0.52737 0.56031 0.12653 0.0
C102 C 0.53908 0.53296 0.15152 0.0
C103 C 0.55289 0.52707 0.1352 0.0
C104 C 0.55769 0.50579 0.13768 0.0
C105 C 0.54978 0.49106 0.15698 0.0
C106 C 0.53716 0.49712 0.17387 0.0
C107 C 0.5315 0.51782 0.17097 0.0
Zn108 Zn 0.68798 0.46341 0.38378 0.0
Zn109 Zn 0.66165 0.4104 0.38845 0.0
O110 O 0.70226 0.42239 0.38697 0.0
O111 O 0.72415 0.46596 0.38443 0.0
O112 O 0.64513 0.37042 0.39007 0.0
O113 O 0.67062 0.46553 0.41201 0.0
O114 O 0.64972 0.42208 0.41627 0.0
C115 C 0.72438 0.44434 0.38569 0.0
C116 C 0.64909 0.43578 0.34931 0.0
O117 O 0.64389 0.41553 0.36078 0.0
O118 O 0.66819 0.45859 0.3549 0.0
C119 C 0.62161 0.354 0.39656 0.0
O120 O 0.60583 0.3629 0.40326 0.0
C121 C 0.65491 0.44513 0.42286 0.0
Zn122 Zn 0.24876 0.70014 0.54701 0.0
Zn123 Zn 0.27741 0.6761 0.55609 0.0
O124 O 0.30522 0.71644 0.55427 0.0
O125 O 0.28187 0.73637 0.54802 0.0
O126 O 0.30145 0.66054 0.56189 0.0
O127 O 0.22775 0.6841 0.57468 0.0
O128 O 0.25128 0.66452 0.58208 0.0
C129 C 0.30428 0.73769 0.55129 0.0
C130 C 0.24221 0.66101 0.51429 0.0
O131 O 0.25754 0.65746 0.52736 0.0
O132 O 0.2363 0.67889 0.51841 0.0
C133 C 0.29351 0.63578 0.56174 0.0
O134 O 0.26791 0.6186 0.55827 0.0
C135 C 0.23247 0.66926 0.58686 0.0
Zn136 Zn 0.57083 0.23728 0.71349 0.0
Zn137 Zn 0.6236 0.26698 0.72309 0.0
O138 O 0.61045 0.29449 0.7223 0.0
O139 O 0.56685 0.26957 0.71645 0.0
O140 O 0.66369 0.28938 0.72933 0.0
O141 O 0.56663 0.21486 0.73994 0.0
O142 O 0.60942 0.24053 0.74874 0.0
C143 C 0.58731 0.29226 0.71989 0.0
C144 C 0.60336 0.23382 0.67994 0.0
O145 O 0.62206 0.24835 0.69362 0.0
O146 O 0.57922 0.22711 0.684 0.0
C147 C 0.6802 0.30047 0.71377 0.0
O148 O 0.67092 0.29787 0.69351 0.0
C149 C 0.58638 0.2206 0.75272 0.0
Zn150 Zn 0.36945 0.59276 0.89175 0.0
Zn151 Zn 0.39189 0.64573 0.8896 0.0
O152 O 0.35075 0.63169 0.8868 0.0
O153 O 0.33286 0.58815 0.88712 0.0
O154 O 0.40895 0.68586 0.8888 0.0
O155 O 0.38362 0.59592 0.92257 0.0
O156 O 0.40565 0.63955 0.91929 0.0
C157 C 0.33009 0.6084 0.88591 0.0
C158 C 0.40734 0.61573 0.85648 0.0
O159 O 0.40867 0.63722 0.86323 0.0
O160 O 0.39222 0.59404 0.86604 0.0
C161 C 0.43423 0.70008 0.89187 0.0
O162 O 0.4483 0.68822 0.89526 0.0
C163 C 0.39998 0.61882 0.93025 0.0
Zn164 Zn 0.80885 0.46153 0.06441 0.0
Zn165 Zn 0.77671 0.40877 0.0576 0.0
O166 O 0.75039 0.42338 0.06068 0.0
O167 O 0.77681 0.46664 0.06488 0.0
O168 O 0.75202 0.36914 0.05299 0.0
O169 O 0.82703 0.46326 0.03566 0.0
O170 O 0.80003 0.4203 0.02993 0.0
C171 C 0.75343 0.44661 0.06316 0.0
C172 C 0.81569 0.43028 0.09736 0.0
O173 O 0.79862 0.41099 0.08534 0.0
O174 O 0.82269 0.45403 0.09254 0.0
C175 C 0.76141 0.35345 0.0514 0.0
O176 O 0.78756 0.36336 0.05263 0.0
C177 C 0.8194 0.44257 0.02379 0.0
Zn178 Zn 0.36277 0.80362 0.21672 0.0
Zn179 Zn 0.38688 0.77418 0.21665 0.0
O180 O 0.34588 0.74702 0.21666 0.0
O181 O 0.32613 0.77105 0.21411 0.0
O182 O 0.40304 0.75021 0.21765 0.0
O183 O 0.38338 0.8215 0.18938 0.0
O184 O 0.40203 0.79633 0.18861 0.0
C185 C 0.32453 0.74855 0.21509 0.0
C186 C 0.39751 0.81414 0.25427 0.0
O187 O 0.40262 0.79776 0.24437 0.0
O188 O 0.3799 0.81901 0.24656 0.0
C189 C 0.42821 0.75907 0.21671 0.0
O190 O 0.44452 0.78477 0.21466 0.0
C191 C 0.39904 0.81485 0.18042 0.0
C192 C 0.1144 0.58628 0.28404 0.0
C193 C 0.10153 0.55931 0.27785 0.0
C194 C 0.13463 0.60543 0.27111 0.0
C195 C 0.1863 0.61168 0.23277 0.0
H196 H 0.20184 0.68475 0.23167 0.0
C197 C 0.29398 0.7007 0.22468 0.0
C198 C 0.29766 0.72429 0.21532 0.0
C199 C 0.26808 0.6789 0.22715 0.0
C200 C 0.19776 0.66442 0.23135 0.0
H201 H 0.09851 0.53112 0.25284 0.0
H202 H 0.13391 0.56482 0.22978 0.0
H203 H 0.15826 0.65015 0.24381 0.0
H204 H 0.27728 0.7429 0.19973 0.0
H205 H 0.23237 0.70473 0.20324 0.0
H206 H 0.22587 0.626 0.22025 0.0
C207 C 0.12849 0.57113 0.24479 0.0
C208 C 0.17277 0.64456 0.23861 0.0
C209 C 0.10806 0.55189 0.25779 0.0
C210 C 0.27507 0.72513 0.20735 0.0
C211 C 0.24928 0.70325 0.20948 0.0
C212 C 0.21129 0.63155 0.22531 0.0
C213 C 0.14255 0.59803 0.25166 0.0
C214 C 0.16702 0.61808 0.24011 0.0
C215 C 0.24532 0.68011 0.22 0.0
C216 C 0.21764 0.65832 0.22511 0.0
H217 H 0.10979 0.59238 0.29957 0.0
H218 H 0.14516 0.62582 0.27714 0.0
H219 H 0.18266 0.59153 0.23381 0.0
H220 H 0.311 0.69948 0.23102 0.0
H221 H 0.26592 0.66159 0.23556 0.0
C222 C 0.54186 0.12343 0.43925 0.0
C223 C 0.5597 0.11408 0.43509 0.0
C224 C 0.5454 0.14653 0.4292 0.0
C225 C 0.60143 0.20878 0.40962 0.0
H226 H 0.54594 0.22568 0.39492 0.0
C227 C 0.62838 0.31549 0.38764 0.0
C228 C 0.61243 0.32512 0.39681 0.0
C229 C 0.62031 0.28846 0.38847 0.0
C230 C 0.56167 0.22131 0.39911 0.0
H231 H 0.59422 0.12035 0.41644 0.0
H232 H 0.60013 0.16043 0.39835 0.0
H233 H 0.5337 0.17951 0.40155 0.0
H234 H 0.57516 0.31371 0.41368 0.0
H235 H 0.56135 0.26662 0.41558 0.0
H236 H 0.62931 0.25045 0.40799 0.0
C237 C 0.58352 0.15011 0.40948 0.0
C238 C 0.55465 0.19483 0.4028 0.0
C239 C 0.57994 0.12699 0.41954 0.0
C240 C 0.58793 0.30696 0.40646 0.0
C241 C 0.57991 0.2799 0.4074 0.0
C242 C 0.60842 0.23518 0.406 0.0
C243 C 0.56704 0.16083 0.41498 0.0
C244 C 0.57443 0.18829 0.40837 0.0
C245 C 0.59615 0.27033 0.39862 0.0
C246 C 0.58863 0.24188 0.40098 0.0
H247 H 0.5265 0.11407 0.45159 0.0
H248 H 0.53247 0.15428 0.43398 0.0
H249 H 0.61715 0.20461 0.41436 0.0
H250 H 0.64725 0.32885 0.37988 0.0
H251 H 0.63311 0.28178 0.38119 0.0
C252 C 0.4383 0.54266 0.60655 0.0
C253 C 0.46516 0.56232 0.61054 0.0
C254 C 0.42016 0.54943 0.5972 0.0
C255 C 0.41153 0.60787 0.59538 0.0
H256 H 0.35148 0.56501 0.55585 0.0
C257 C 0.34082 0.64498 0.56623 0.0
C258 C 0.31313 0.62654 0.56508 0.0
C259 C 0.35942 0.63648 0.56951 0.0
C260 C 0.36802 0.57708 0.56707 0.0
H261 H 0.49475 0.60382 0.60641 0.0
H262 H 0.46347 0.61555 0.58953 0.0
H263 H 0.38429 0.55098 0.56414 0.0
H264 H 0.28333 0.58458 0.56624 0.0
H265 H 0.3158 0.56976 0.57245 0.0
H266 H 0.39522 0.63363 0.59883 0.0
C267 C 0.45612 0.59506 0.59404 0.0
C268 C 0.38685 0.56907 0.57175 0.0
C269 C 0.47411 0.58833 0.60346 0.0
C270 C 0.30451 0.59932 0.56705 0.0
C271 C 0.32316 0.5908 0.57046 0.0
C272 C 0.39275 0.61579 0.59079 0.0
C273 C 0.42869 0.57599 0.59173 0.0
C274 C 0.4089 0.58447 0.5859 0.0
C275 C 0.35086 0.60931 0.57189 0.0
C276 C 0.37078 0.60058 0.57654 0.0
H277 H 0.4309 0.52254 0.61215 0.0
H278 H 0.39917 0.53428 0.59569 0.0
H279 H 0.42783 0.61985 0.60683 0.0
H280 H 0.34821 0.66608 0.56456 0.0
H281 H 0.38059 0.65128 0.5701 0.0
C282 C 0.91845 0.40704 0.76896 0.0
C283 C 0.9304 0.43482 0.76904 0.0
C284 C 0.89363 0.39114 0.75839 0.0
C285 C 0.83341 0.36436 0.75401 0.0
H286 H 0.80575 0.38488 0.70411 0.0
C287 C 0.71974 0.32074 0.73995 0.0
C288 C 0.70959 0.31542 0.71823 0.0
C289 C 0.74747 0.33445 0.74408 0.0
C290 C 0.81316 0.37863 0.71793 0.0
H291 H 0.92678 0.46797 0.75743 0.0
H292 H 0.88325 0.44041 0.73927 0.0
H293 H 0.85381 0.4092 0.71251 0.0
H294 H 0.72071 0.32033 0.6838 0.0
H295 H 0.76899 0.34372 0.691 0.0
H296 H 0.79297 0.33357 0.75926 0.0
C297 C 0.89311 0.43068 0.74682 0.0
C298 C 0.84074 0.39278 0.72289 0.0
C299 C 0.91812 0.44655 0.75715 0.0
C300 C 0.72783 0.32421 0.70075 0.0
C301 C 0.75557 0.33776 0.70488 0.0
C302 C 0.80594 0.35013 0.74898 0.0
C303 C 0.87999 0.40274 0.74813 0.0
C304 C 0.8512 0.38608 0.7412 0.0
C305 C 0.76578 0.34301 0.7266 0.0
C306 C 0.79534 0.35734 0.73111 0.0
H307 H 0.92748 0.39762 0.77828 0.0
H308 H 0.88451 0.36973 0.75928 0.0
H309 H 0.8405 0.35878 0.76846 0.0
H310 H 0.70627 0.3144 0.7538 0.0
H311 H 0.75453 0.33857 0.76103 0.0
C312 C 0.55935 0.93015 0.94436 0.0
C313 C 0.54707 0.94581 0.94321 0.0
C314 C 0.54909 0.9065 0.93207 0.0
C315 C 0.48418 0.85384 0.91247 0.0
H316 H 0.52546 0.82403 0.8875 0.0
C317 C 0.4335 0.7427 0.8869 0.0
C318 C 0.44763 0.72955 0.89246 0.0
C319 C 0.44609 0.7705 0.88828 0.0
C320 C 0.51362 0.83197 0.89454 0.0
H321 H 0.51551 0.95 0.92747 0.0
H322 H 0.49739 0.90846 0.90591 0.0
H323 H 0.54784 0.87127 0.89738 0.0
H324 H 0.48621 0.73539 0.90357 0.0
H325 H 0.50784 0.78351 0.90658 0.0
H326 H 0.45027 0.81448 0.91081 0.0
C327 C 0.51499 0.91452 0.91629 0.0
C328 C 0.52645 0.85909 0.90005 0.0
C329 C 0.52551 0.9384 0.9284 0.0
C330 C 0.47472 0.74484 0.89909 0.0
C331 C 0.48724 0.77256 0.90063 0.0
C332 C 0.4714 0.82669 0.90716 0.0
C333 C 0.52608 0.89785 0.91862 0.0
C334 C 0.51198 0.87021 0.90951 0.0
C335 C 0.47307 0.7858 0.89541 0.0
C336 C 0.48606 0.81524 0.8986 0.0
H337 H 0.57582 0.93536 0.95586 0.0
H338 H 0.55798 0.89405 0.93439 0.0
H339 H 0.47253 0.86169 0.92004 0.0
H340 H 0.41265 0.73152 0.88157 0.0
H341 H 0.43463 0.77997 0.88381 0.0
C342 C 0.59799 0.51896 0.11414 0.0
C343 C 0.57246 0.4994 0.12104 0.0
C344 C 0.6142 0.51175 0.10222 0.0
C345 C 0.62414 0.45428 0.09636 0.0
H346 H 0.67676 0.49784 0.05317 0.0
C347 C 0.70351 0.4289 0.06493 0.0
C348 C 0.7299 0.45058 0.06454 0.0
C349 C 0.68169 0.43311 0.06752 0.0
C350 C 0.6622 0.48548 0.06525 0.0
H351 H 0.54287 0.4574 0.11932 0.0
H352 H 0.57088 0.44485 0.09819 0.0
H353 H 0.64285 0.50889 0.06478 0.0
H354 H 0.75391 0.49372 0.06586 0.0
H355 H 0.71617 0.50093 0.07064 0.0
H356 H 0.64393 0.4314 0.09744 0.0
C357 C 0.57873 0.46564 0.10243 0.0
C358 C 0.64278 0.49182 0.07189 0.0
C359 C 0.56263 0.47282 0.11439 0.0
C360 C 0.73388 0.47651 0.06615 0.0
C361 C 0.71217 0.48069 0.06869 0.0
C362 C 0.64355 0.44797 0.08975 0.0
C363 C 0.60509 0.48485 0.09693 0.0
C364 C 0.62383 0.47659 0.08784 0.0
C365 C 0.68582 0.45908 0.06968 0.0
C366 C 0.66318 0.46382 0.07448 0.0
H367 H 0.6061 0.53955 0.1192 0.0
H368 H 0.63446 0.52704 0.09837 0.0
H369 H 0.61016 0.44235 0.10894 0.0
H370 H 0.69972 0.40869 0.06362 0.0
H371 H 0.6616 0.41603 0.06801 0.0
C372 C 0.47557 0.95741 0.50201 0.0
C373 C 0.49942 0.95971 0.49392 0.0
C374 C 0.45821 0.9354 0.51453 0.0
C375 C 0.44086 0.86554 0.51997 0.0
H376 H 0.39052 0.8636 0.56306 0.0
C377 C 0.35471 0.76597 0.5512 0.0
C378 C 0.32929 0.76396 0.55081 0.0
C379 C 0.37807 0.79072 0.54903 0.0
C380 C 0.40447 0.86384 0.55104 0.0
H381 H 0.52512 0.94237 0.49396 0.0
H382 H 0.49544 0.9045 0.5165 0.0
H383 H 0.42771 0.90644 0.55163 0.0
H384 H 0.30863 0.78661 0.54878 0.0
H385 H 0.34918 0.8295 0.54484 0.0
H386 H 0.4173 0.82309 0.51888 0.0
C387 C 0.4896 0.91912 0.51271 0.0
C388 C 0.42576 0.88838 0.54448 0.0
C389 C 0.50675 0.94092 0.50003 0.0
C390 C 0.32785 0.78737 0.54905 0.0
C391 C 0.35116 0.81206 0.54698 0.0
C392 C 0.41968 0.84107 0.52657 0.0
C393 C 0.46453 0.91542 0.51925 0.0
C394 C 0.44392 0.88955 0.52851 0.0
C395 C 0.37652 0.814 0.54656 0.0
C396 C 0.40088 0.83992 0.54182 0.0
H397 H 0.46939 0.97152 0.49727 0.0
H398 H 0.43903 0.93316 0.51913 0.0
H399 H 0.45406 0.86557 0.50732 0.0
H400 H 0.35656 0.74837 0.55264 0.0
H401 H 0.39735 0.7916 0.54899 0.0
C402 C 0.55929 0.48028 0.67231 0.0
C403 C 0.53276 0.46868 0.66434 0.0
C404 C 0.56732 0.46556 0.68516 0.0
C405 C 0.54286 0.40266 0.71584 0.0
H406 H 0.60527 0.4033 0.69121 0.0
C407 C 0.55789 0.31255 0.71912 0.0
C408 C 0.58389 0.31596 0.72027 0.0
C409 C 0.55414 0.33443 0.71773 0.0
C410 C 0.5882 0.40322 0.69871 0.0
H411 H 0.49351 0.43332 0.66403 0.0
H412 H 0.50732 0.40749 0.68673 0.0
H413 H 0.5937 0.43641 0.67978 0.0
H414 H 0.62638 0.34526 0.72174 0.0
H415 H 0.61979 0.38372 0.7194 0.0
H416 H 0.53691 0.36896 0.73429 0.0
C417 C 0.52191 0.42802 0.68336 0.0
C418 C 0.58153 0.42224 0.69213 0.0
C419 C 0.51395 0.44273 0.67041 0.0
C420 C 0.60609 0.34194 0.72078 0.0
C421 C 0.60231 0.36395 0.71935 0.0
C422 C 0.54962 0.38373 0.72253 0.0
C423 C 0.54892 0.43896 0.6902 0.0
C424 C 0.55832 0.42166 0.7001 0.0
C425 C 0.57626 0.36041 0.71748 0.0
C426 C 0.57185 0.38323 0.71348 0.0
H427 H 0.57416 0.50019 0.66748 0.0
H428 H 0.58819 0.4746 0.69034 0.0
H429 H 0.5251 0.40196 0.72252 0.0
H430 H 0.54028 0.29286 0.71876 0.0
H431 H 0.53381 0.33083 0.71594 0.0
C432 C 0.1002 0.52557 0.83103 0.0
C433 C 0.09432 0.54298 0.8196 0.0
C434 C 0.12409 0.53556 0.84338 0.0
C435 C 0.19236 0.59349 0.84347 0.0
H436 H 0.20234 0.56104 0.89547 0.0
C437 C 0.29835 0.62567 0.87844 0.0
C438 C 0.30264 0.60441 0.88317 0.0
C439 C 0.27225 0.62105 0.87462 0.0
C440 C 0.19987 0.57031 0.88094 0.0
H441 H 0.10739 0.58435 0.81352 0.0
H442 H 0.1487 0.60185 0.83544 0.0
H443 H 0.15689 0.54729 0.88227 0.0
H444 H 0.28272 0.56179 0.8884 0.0
H445 H 0.23769 0.55384 0.88155 0.0
H446 H 0.23522 0.61585 0.84165 0.0
C447 C 0.13537 0.58051 0.83445 0.0
C448 C 0.17383 0.56241 0.87338 0.0
C449 C 0.11166 0.57054 0.82204 0.0
C450 C 0.28024 0.57866 0.88469 0.0
C451 C 0.25429 0.5741 0.88098 0.0
C452 C 0.21834 0.60137 0.85102 0.0
C453 C 0.14241 0.56313 0.84456 0.0
C454 C 0.16978 0.57352 0.85428 0.0
C455 C 0.24996 0.59513 0.87561 0.0
C456 C 0.22243 0.58944 0.86953 0.0
H457 H 0.08722 0.50424 0.82925 0.0
H458 H 0.12895 0.52159 0.85084 0.0
H459 H 0.19004 0.60218 0.8285 0.0
H460 H 0.31515 0.64575 0.87725 0.0
H461 H 0.26954 0.63773 0.87069 0.0
C462 C 0.5952 0.12258 0.00259 0.0
C463 C 0.60686 0.10777 -0.0049 0.0
C464 C 0.61093 0.14728 0.01299 0.0
C465 C 0.67836 0.19395 0.03733 0.0
H466 H 0.6637 0.24723 0.01351 0.0
C467 C 0.75362 0.30733 0.04477 0.0
C468 C 0.74317 0.32444 0.04792 0.0
C469 C 0.73647 0.28007 0.04091 0.0
C470 C 0.66786 0.23263 0.02065 0.0
H471 H 0.64367 0.10627 -0.00642 0.0
H472 H 0.67146 0.14974 0.01167 0.0
H473 H 0.6346 0.20075 0.00349 0.0
H474 H 0.70638 0.32612 0.05004 0.0
H475 H 0.6765 0.27863 0.04357 0.0
H476 H 0.712 0.22614 0.05422 0.0
C477 C 0.65007 0.14214 0.00979 0.0
C478 C 0.65111 0.20587 0.01491 0.0
C479 C 0.63421 0.11724 -0.00051 0.0
C480 C 0.71514 0.31357 0.04751 0.0
C481 C 0.69799 0.28632 0.0437 0.0
C482 C 0.69517 0.22082 0.04311 0.0
C483 C 0.63878 0.1579 0.01587 0.0
C484 C 0.65613 0.18616 0.02312 0.0
C485 C 0.70843 0.26925 0.04013 0.0
C486 C 0.69017 0.24051 0.03476 0.0
H487 H 0.57412 0.11564 -0.00066 0.0
H488 H 0.60144 0.15858 0.01793 0.0
H489 H 0.6827 0.17927 0.04406 0.0
H490 H 0.77512 0.31502 0.04498 0.0
H491 H 0.74524 0.26761 0.03797 0.0
C492 C 0.53611 0.63183 0.1815 0.0
C493 C 0.51999 0.60401 0.18049 0.0
C494 C 0.52749 0.64718 0.19288 0.0
C495 C 0.46369 0.64339 0.20411 0.0
H496 H 0.50834 0.71247 0.23194 0.0
C497 C 0.42198 0.71355 0.22243 0.0
C498 C 0.43895 0.74057 0.21771 0.0
C499 C 0.43196 0.69596 0.22281 0.0
C500 C 0.49561 0.69328 0.22408 0.0
H501 H 0.48331 0.57022 0.19178 0.0
H502 H 0.46823 0.59703 0.212 0.0
H503 H 0.52653 0.68288 0.22579 0.0
H504 H 0.47987 0.77035 0.21001 0.0
H505 H 0.49711 0.73963 0.21007 0.0
H506 H 0.43322 0.65407 0.20138 0.0
C507 C 0.48748 0.60701 0.20392 0.0
C508 C 0.50601 0.67627 0.22069 0.0
C509 C 0.49624 0.59163 0.19263 0.0
C510 C 0.46624 0.74967 0.21373 0.0
C511 C 0.47619 0.73205 0.21396 0.0
C512 C 0.45336 0.66041 0.20737 0.0
C513 C 0.5024 0.63499 0.20326 0.0
C514 C 0.49033 0.65133 0.21025 0.0
C515 C 0.45914 0.7049 0.21832 0.0
C516 C 0.46935 0.68582 0.21698 0.0
H517 H 0.55429 0.64177 0.17194 0.0
H518 H 0.5394 0.66863 0.19188 0.0
H519 H 0.4512 0.62455 0.19563 0.0
H520 H 0.4009 0.7059 0.22579 0.0
H521 H 0.41831 0.67531 0.22658 0.0
C522 C 0.9274 0.43637 0.34204 0.0
C523 C 0.94767 0.46187 0.33608 0.0
C524 C 0.90496 0.43301 0.3535 0.0
C525 C 0.87478 0.4687 0.38241 0.0
H526 H 0.80911 0.41352 0.35465 0.0
C527 C 0.77468 0.46913 0.38404 0.0
C528 C 0.75041 0.44477 0.38514 0.0
C529 C 0.79921 0.46973 0.38236 0.0
C530 C 0.82715 0.42869 0.36293 0.0
H531 H 0.96139 0.50396 0.33864 0.0
H532 H 0.92201 0.4982 0.35846 0.0
H533 H 0.85184 0.41736 0.34513 0.0
H534 H 0.73307 0.40193 0.38605 0.0
H535 H 0.77598 0.40301 0.38319 0.0
H536 H 0.84993 0.48051 0.39966 0.0
C537 C 0.92353 0.48076 0.35459 0.0
C538 C 0.85175 0.43089 0.35749 0.0
C539 C 0.94614 0.48412 0.34327 0.0
C540 C 0.75135 0.42103 0.38511 0.0
C541 C 0.77594 0.42164 0.38339 0.0
C542 C 0.85012 0.46651 0.38784 0.0
C543 C 0.90215 0.45508 0.35901 0.0
C544 C 0.87594 0.45118 0.36689 0.0
C545 C 0.80014 0.446 0.38172 0.0
C546 C 0.82605 0.44675 0.37786 0.0
H547 H 0.92822 0.41892 0.33673 0.0
H548 H 0.88921 0.41301 0.35712 0.0
H549 H 0.89298 0.48435 0.39015 0.0
H550 H 0.77475 0.48782 0.38407 0.0
H551 H 0.81737 0.48882 0.38081 0.0
C552 C 0.0866 0.52734 0.37201 0.0
C553 C 0.09668 0.52356 0.35213 0.0
C554 C 0.10291 0.53599 0.39101 0.0
C555 C 0.1733 0.57884 0.40362 0.0
H556 H 0.15369 0.56005 0.46451 0.0
C557 C 0.22058 0.65161 0.47699 0.0
C558 C 0.22954 0.64308 0.49507 0.0
C559 C 0.20631 0.63402 0.45969 0.0
C560 C 0.1595 0.56527 0.44755 0.0
H561 H 0.13043 0.52291 0.33706 0.0
H562 H 0.15889 0.53815 0.37014 0.0
H563 H 0.12327 0.53175 0.43475 0.0
H564 H 0.23084 0.60955 0.50918 0.0
H565 H 0.2051 0.57847 0.47898 0.0
H566 H 0.20882 0.61299 0.41633 0.0
C567 C 0.13862 0.53485 0.37098 0.0
C568 C 0.14209 0.54921 0.4306 0.0
C569 C 0.12234 0.52612 0.3521 0.0
C570 C 0.22433 0.6167 0.49535 0.0
C571 C 0.2095 0.5989 0.47821 0.0
C572 C 0.19041 0.59507 0.42052 0.0
C573 C 0.1295 0.541 0.39033 0.0
C574 C 0.14874 0.55603 0.40848 0.0
C575 C 0.20025 0.60742 0.46033 0.0
C576 C 0.1835 0.58863 0.44261 0.0
H577 H 0.06695 0.52564 0.37246 0.0
H578 H 0.09541 0.54066 0.40571 0.0
H579 H 0.17878 0.58479 0.38673 0.0
H580 H 0.2243 0.67182 0.47636 0.0
H581 H 0.19925 0.64099 0.44611 0.0
C582 C 0.61538 0.12971 0.50846 0.0
C583 C 0.59172 0.10474 0.50826 0.0
C584 C 0.62474 0.14469 0.52794 0.0
C585 C 0.61905 0.17794 0.56399 0.0
H586 H 0.61888 0.15294 0.62303 0.0
C587 C 0.59206 0.21636 0.64136 0.0
C588 C 0.60935 0.2235 0.65978 0.0
C589 C 0.59625 0.20456 0.62286 0.0
C590 C 0.6194 0.16029 0.60661 0.0
H591 H 0.56075 0.07486 0.52866 0.0
H592 H 0.57733 0.10095 0.56281 0.0
H593 H 0.61579 0.12523 0.59108 0.0
H594 H 0.64479 0.22424 0.67324 0.0
H595 H 0.6516 0.20265 0.64089 0.0
H596 H 0.62106 0.21223 0.57946 0.0
C597 C 0.58857 0.10893 0.54786 0.0
C598 C 0.61749 0.14442 0.5884 0.0
C599 C 0.57908 0.09398 0.52831 0.0
C600 C 0.63125 0.21904 0.65919 0.0
C601 C 0.63508 0.20662 0.64081 0.0
C602 C 0.62051 0.19354 0.58215 0.0
C603 C 0.61077 0.13489 0.54764 0.0
C604 C 0.61679 0.15291 0.56693 0.0
C605 C 0.61749 0.19917 0.62258 0.0
C606 C 0.62013 0.1846 0.60358 0.0
H607 H 0.62585 0.13827 0.49331 0.0
H608 H 0.64215 0.16449 0.5274 0.0
H609 H 0.61821 0.18486 0.54766 0.0
H610 H 0.57507 0.21963 0.64136 0.0
H611 H 0.58232 0.1988 0.60903 0.0
C612 C 0.51478 0.60546 0.68684 0.0
C613 C 0.50809 0.57875 0.68418 0.0
C614 C 0.51223 0.61511 0.70732 0.0
C615 C 0.49836 0.59804 0.76672 0.0
H616 H 0.45761 0.63458 0.76167 0.0
C617 C 0.42534 0.59298 0.83273 0.0
C618 C 0.42405 0.61596 0.83795 0.0
C619 C 0.44124 0.59296 0.81551 0.0
C620 C 0.46942 0.62486 0.76344 0.0
H621 H 0.49532 0.54175 0.70117 0.0
H622 H 0.49069 0.55842 0.73679 0.0
H623 H 0.47732 0.62713 0.72898 0.0
H624 H 0.43866 0.65706 0.82919 0.0
H625 H 0.46627 0.65686 0.79876 0.0
H626 H 0.48925 0.5947 0.80108 0.0
C627 C 0.4982 0.57209 0.7232 0.0
C628 C 0.48082 0.62064 0.74469 0.0
C629 C 0.50086 0.56249 0.70275 0.0
C630 C 0.43915 0.639 0.82555 0.0
C631 C 0.45493 0.6389 0.80813 0.0
C632 C 0.48684 0.60215 0.78544 0.0
C633 C 0.50285 0.59821 0.72553 0.0
C634 C 0.4948 0.60652 0.746 0.0
C635 C 0.45613 0.61586 0.80297 0.0
C636 C 0.47161 0.61495 0.78387 0.0
H637 H 0.52077 0.61854 0.67283 0.0
H638 H 0.51654 0.6355 0.70867 0.0
H639 H 0.50941 0.58752 0.76837 0.0
H640 H 0.41405 0.57489 0.84196 0.0
H641 H 0.44137 0.57476 0.81169 0.0
C642 C 0.95585 0.48594 0.85903 0.0
C643 C 0.95112 0.4632 0.84695 0.0
C644 C 0.94343 0.4834 0.87931 0.0
C645 C 0.88306 0.43596 0.90867 0.0
H646 H 0.91778 0.48211 0.95936 0.0
C647 C 0.82926 0.42129 -0.00825 0.0
C648 C 0.83392 0.44436 0.00328 0.0
C649 C 0.84419 0.42317 0.97308 0.0
C650 C 0.90772 0.46925 0.94525 0.0
H651 H 0.93129 0.42013 0.84726 0.0
H652 H 0.90968 0.41572 0.8826 0.0
H653 H 0.94393 0.48645 0.92657 0.0
H654 H 0.85746 0.48751 0.00392 0.0
H655 H 0.88297 0.49075 0.9712 0.0
H656 H 0.84676 0.41906 0.92708 0.0
C657 C 0.92249 0.43545 0.87623 0.0
C658 C 0.92273 0.47171 0.92652 0.0
C659 C 0.9349 0.43799 0.85605 0.0
C660 C 0.85346 0.46932 -0.00448 0.0
C661 C 0.86827 0.47119 0.97684 0.0
C662 C 0.86802 0.43359 0.92734 0.0
C663 C 0.92607 0.45808 0.88782 0.0
C664 C 0.91054 0.45512 0.90802 0.0
C665 C 0.86399 0.44815 0.9655 0.0
C666 C 0.88014 0.45027 0.94583 0.0
H667 H 0.96808 0.50561 0.85234 0.0
H668 H 0.94646 0.5012 0.88782 0.0
H669 H 0.87298 0.42319 0.89452 0.0
H670 H 0.81445 0.40176 -0.00263 0.0
H671 H 0.84057 0.40501 0.96485 0.0
C672 C 0.54809 0.9466 0.0308 0.0
C673 C 0.54004 0.96374 0.02172 0.0
C674 C 0.53601 0.93234 0.04976 0.0
C675 C 0.49211 0.92676 0.09632 0.0
H676 H 0.46981 0.85174 0.09232 0.0
C677 C 0.41092 0.84997 0.15224 0.0
C678 C 0.41524 0.83027 0.16146 0.0
C679 C 0.42769 0.8665 0.13588 0.0
C680 C 0.47619 0.87268 0.09385 0.0
H681 H 0.51401 0.98042 0.02598 0.0
H682 H 0.49285 0.95554 0.05914 0.0
H683 H 0.49776 0.8817 0.06367 0.0
H684 H 0.44021 0.81202 0.16022 0.0
H685 H 0.46959 0.84101 0.1315 0.0
H686 H 0.47015 0.91762 0.12633 0.0
C687 C 0.50866 0.95325 0.05172 0.0
C688 C 0.49227 0.8899 0.07746 0.0
C689 C 0.52082 0.96757 0.03274 0.0
C690 C 0.43628 0.82694 0.15342 0.0
C691 C 0.4531 0.84354 0.13697 0.0
C692 C 0.47602 0.90954 0.1127 0.0
C693 C 0.51556 0.93487 0.06005 0.0
C694 C 0.50018 0.91709 0.07837 0.0
C695 C 0.44923 0.86379 0.1283 0.0
C696 C 0.46758 0.88224 0.1115 0.0
H697 H 0.56311 0.94352 0.02275 0.0
H698 H 0.54219 0.91879 0.05603 0.0
H699 H 0.49817 0.94764 0.09769 0.0
H700 H 0.39481 0.853 0.15792 0.0
H701 H 0.42378 0.88149 0.1292 0.0
C702 C 0.54309 0.49817 0.21482 0.0
C703 C 0.53293 0.48331 0.19517 0.0
C704 C 0.54685 0.48641 0.23352 0.0
C705 C 0.56752 0.43863 0.24348 0.0
H706 H 0.56053 0.45042 0.30547 0.0
C707 C 0.64201 0.45102 0.31295 0.0
C708 C 0.63147 0.43349 0.33063 0.0
C709 C 0.62498 0.45133 0.29659 0.0
C710 C 0.56225 0.44668 0.28821 0.0
H711 H 0.51547 0.44383 0.18047 0.0
H712 H 0.52242 0.42347 0.213 0.0
H713 H 0.53651 0.46157 0.27769 0.0
H714 H 0.59496 0.40231 0.34502 0.0
H715 H 0.56495 0.40357 0.31657 0.0
H716 H 0.5947 0.42553 0.25387 0.0
C717 C 0.52777 0.4442 0.21388 0.0
C718 C 0.54865 0.45312 0.27239 0.0
C719 C 0.52379 0.45585 0.19531 0.0
C720 C 0.6036 0.41582 0.33141 0.0
C721 C 0.58646 0.41663 0.31531 0.0
C722 C 0.5815 0.43274 0.25923 0.0
C723 C 0.54059 0.4597 0.23276 0.0
C724 C 0.5515 0.44951 0.24986 0.0
C725 C 0.59707 0.43458 0.29792 0.0
C726 C 0.57931 0.43711 0.28166 0.0
H727 H 0.55041 0.51937 0.21518 0.0
H728 H 0.55684 0.49882 0.24787 0.0
H729 H 0.57041 0.43602 0.22621 0.0
H730 H 0.66341 0.46487 0.31201 0.0
H731 H 0.63352 0.46538 0.28332 0.0
C732 C 0.52726 0.94874 0.4138 0.0
C733 C 0.52429 0.97133 0.4154 0.0
C734 C 0.51872 0.93264 0.39488 0.0
C735 C 0.49894 0.92631 0.33689 0.0
H736 H 0.44209 0.85558 0.35211 0.0
C737 C 0.44061 0.83564 0.27601 0.0
C738 C 0.4137 0.8294 0.2737 0.0
C739 C 0.4569 0.8528 0.29294 0.0
C740 C 0.45812 0.87516 0.34771 0.0
H741 H 0.51254 0.99618 0.39758 0.0
H742 H 0.49832 0.9683 0.36412 0.0
H743 H 0.46838 0.88777 0.38138 0.0
H744 H 0.38243 0.83531 0.28768 0.0
H745 H 0.41069 0.86439 0.31789 0.0
H746 H 0.48845 0.91348 0.30313 0.0
C747 C 0.50694 0.96298 0.37772 0.0
C748 C 0.47318 0.8935 0.36435 0.0
C749 C 0.51518 0.97897 0.39682 0.0
C750 C 0.40309 0.83979 0.28909 0.0
C751 C 0.41919 0.85639 0.30631 0.0
C752 C 0.48422 0.90771 0.3202 0.0
C753 C 0.50754 0.93908 0.37702 0.0
C754 C 0.49348 0.91933 0.3591 0.0
C755 C 0.44629 0.86337 0.3081 0.0
C756 C 0.46346 0.88217 0.32555 0.0
H757 H 0.53476 0.94265 0.42769 0.0
H758 H 0.51972 0.91448 0.39458 0.0
H759 H 0.51445 0.94613 0.3325 0.0
H760 H 0.44936 0.8281 0.26424 0.0
H761 H 0.47778 0.85796 0.29415 0.0
C762 C 0.55306 0.50572 0.57181 0.0
C763 C 0.5344 0.48469 0.58465 0.0
C764 C 0.5632 0.50046 0.5527 0.0
C765 C 0.57487 0.4483 0.52955 0.0
H766 H 0.59405 0.49103 0.47701 0.0
C767 C 0.62034 0.42619 0.45264 0.0
C768 C 0.6412 0.44836 0.44224 0.0
C769 C 0.60589 0.42965 0.46956 0.0
C770 C 0.589 0.47905 0.49166 0.0
H771 H 0.51011 0.44183 0.5868 0.0
H772 H 0.52737 0.43262 0.55328 0.0
H773 H 0.56991 0.49895 0.50629 0.0
H774 H 0.66379 0.49156 0.44203 0.0
H775 H 0.63893 0.49748 0.47158 0.0
H776 H 0.59423 0.42862 0.51505 0.0
C777 C 0.53476 0.45314 0.55821 0.0
C778 C 0.57514 0.48358 0.50841 0.0
C779 C 0.52474 0.45839 0.57729 0.0
C780 C 0.64775 0.474 0.44955 0.0
C781 C 0.63333 0.47744 0.46639 0.0
C782 C 0.58871 0.44377 0.5128 0.0
C783 C 0.55476 0.47408 0.54609 0.0
C784 C 0.56809 0.46839 0.52763 0.0
C785 C 0.61199 0.45534 0.47638 0.0
C786 C 0.59618 0.45927 0.49377 0.0
H787 H 0.561 0.52616 0.57724 0.0
H788 H 0.5787 0.51706 0.54381 0.0
H789 H 0.57018 0.43655 0.5443 0.0
H790 H 0.61471 0.40617 0.44735 0.0
H791 H 0.58947 0.41221 0.47689 0.0
C792 C 0.06553 0.56121 0.73219 0.0
C793 C 0.0684 0.54095 0.74188 0.0
C794 C 0.07979 0.57353 0.71317 0.0
C795 C 0.12178 0.56864 0.66878 0.0
H796 H 0.1592 0.64571 0.67238 0.0
C797 C 0.21425 0.63418 0.61584 0.0
C798 C 0.21453 0.65592 0.60559 0.0
C799 C 0.1952 0.61991 0.63188 0.0
C800 C 0.1487 0.62421 0.67101 0.0
H801 H 0.08708 0.51669 0.73915 0.0
H802 H 0.11188 0.53793 0.70602 0.0
H803 H 0.12545 0.61983 0.69962 0.0
H804 H 0.19566 0.68029 0.60473 0.0
H805 H 0.16268 0.65553 0.63273 0.0
H806 H 0.14557 0.57311 0.64044 0.0
C807 C 0.09852 0.54426 0.71271 0.0
C808 C 0.12922 0.60935 0.68654 0.0
C809 C 0.08435 0.53207 0.73167 0.0
C810 C 0.19599 0.66361 0.61227 0.0
C811 C 0.17711 0.64949 0.62838 0.0
C812 C 0.14136 0.58351 0.65332 0.0
C813 C 0.09714 0.56574 0.70364 0.0
C814 C 0.1157 0.58138 0.68575 0.0
C815 C 0.17622 0.62723 0.63811 0.0
C816 C 0.15521 0.61145 0.65439 0.0
H817 H 0.05357 0.56855 0.74004 0.0
H818 H 0.07804 0.5898 0.7064 0.0
H819 H 0.11152 0.54714 0.66754 0.0
H820 H 0.22822 0.62771 0.61105 0.0
H821 H 0.19523 0.60305 0.63934 0.0
C822 C 0.55282 0.096 0.92096 0.0
C823 C 0.5634 0.07882 0.92172 0.0
C824 C 0.55176 0.10746 0.90117 0.0
C825 C 0.58714 0.12758 0.84879 0.0
H826 H 0.53177 0.14469 0.83417 0.0
C827 C 0.60399 0.20864 0.78616 0.0
C828 C 0.58256 0.20331 0.77175 0.0
C829 C 0.60027 0.19159 0.8036 0.0
C830 C 0.54731 0.13988 0.83787 0.0
H831 H 0.57957 0.05879 0.90219 0.0
H832 H 0.5773 0.07853 0.86736 0.0
H833 H 0.52539 0.11558 0.86495 0.0
H834 H 0.54037 0.17583 0.76443 0.0
H835 H 0.53405 0.14616 0.79457 0.0
H836 H 0.609 0.15178 0.82163 0.0
C837 C 0.57025 0.08346 0.88218 0.0
C838 C 0.54373 0.12335 0.85562 0.0
C839 C 0.57123 0.07191 0.90204 0.0
C840 C 0.55733 0.18066 0.77525 0.0
C841 C 0.55364 0.16365 0.79262 0.0
C842 C 0.59071 0.1441 0.83102 0.0
C843 C 0.56125 0.10199 0.88167 0.0
C844 C 0.56374 0.11726 0.86147 0.0
C845 C 0.57505 0.16886 0.80699 0.0
C846 C 0.57097 0.15068 0.82549 0.0
H847 H 0.54647 0.10151 0.9359 0.0
H848 H 0.54487 0.12174 0.90143 0.0
H849 H 0.60311 0.12357 0.85301 0.0
H850 H 0.62367 0.22591 0.78394 0.0
H851 H 0.6171 0.19638 0.81456 0.0
C852 C 0.5214 0.61207 0.09471 0.0
C853 C 0.51465 0.58602 0.10032 0.0
C854 C 0.51186 0.61701 0.07517 0.0
C855 C 0.45747 0.58111 0.03325 0.0
H856 H 0.49172 0.65038 0.00617 0.0
C857 C 0.39989 0.60471 0.96869 0.0
C858 C 0.41415 0.62076 0.95102 0.0
C859 C 0.41355 0.60278 -0.01297 0.0
C860 C 0.48195 0.63077 0.01327 0.0
H861 H 0.49436 0.545 0.08861 0.0
H862 H 0.47962 0.55387 0.05378 0.0
H863 H 0.51514 0.64138 0.03518 0.0
H864 H 0.45365 0.64791 0.93859 0.0
H865 H 0.47778 0.64348 0.96998 0.0
H866 H 0.42514 0.56982 0.01041 0.0
C867 C 0.49104 0.57039 0.06508 0.0
C868 C 0.49527 0.6257 0.03026 0.0
C869 C 0.49999 0.56533 0.08496 0.0
C870 C 0.44228 0.63566 0.95224 0.0
C871 C 0.45605 0.63309 0.97029 0.0
C872 C 0.4445 0.58594 0.01592 0.0
C873 C 0.49595 0.59614 0.06028 0.0
C874 C 0.48303 0.60092 0.04077 0.0
C875 C 0.44186 0.61605 -0.01229 0.0
C876 C 0.45627 0.61099 0.00592 0.0
H877 H 0.53335 0.62868 0.10581 0.0
H878 H 0.51608 0.6371 0.07233 0.0
H879 H 0.447 0.56191 0.04102 0.0
H880 H 0.37813 0.59315 0.96809 0.0
H881 H 0.40179 0.59029 0.0004 0.0
C882 C 0.97096 0.46069 0.24037 0.0
C883 C 0.96242 0.44453 0.25906 0.0
C884 C 0.95552 0.45249 0.22092 0.0
C885 C 0.88556 0.41658 0.20649 0.0
H886 H 0.90875 0.42574 0.14578 0.0
C887 C 0.83808 0.44321 0.13431 0.0
C888 C 0.82883 0.4254 0.11626 0.0
C889 C 0.85274 0.44021 0.15134 0.0
C890 C 0.902 0.42279 0.16267 0.0
H891 H 0.93278 0.40588 0.27119 0.0
H892 H 0.90555 0.39193 0.23741 0.0
H893 H 0.93998 0.42973 0.17547 0.0
H894 H 0.82747 0.39041 0.10184 0.0
H895 H 0.85413 0.38576 0.13152 0.0
H896 H 0.84826 0.41138 0.19385 0.0
C897 C 0.924 0.41098 0.2379 0.0
C898 C 0.91982 0.42516 0.17957 0.0
C899 C 0.93956 0.41902 0.25722 0.0
C900 C 0.83418 0.40427 0.11569 0.0
C901 C 0.8495 0.40168 0.13251 0.0
C902 C 0.86801 0.41477 0.18967 0.0
C903 C 0.93125 0.4281 0.21992 0.0
C904 C 0.91183 0.4224 0.20165 0.0
C905 C 0.85896 0.41975 0.15036 0.0
C906 C 0.87623 0.41821 0.16769 0.0
H907 H 0.98836 0.4805 0.24127 0.0
H908 H 0.96148 0.4661 0.20729 0.0
H909 H 0.87903 0.41474 0.22339 0.0
H910 H 0.83422 0.45966 0.13514 0.0
H911 H 0.85997 0.4544 0.16497 0.0
loop_
_geom_bond_atom_site_label_1
_geom_bond_atom_site_label_2
_geom_bond_distance
_geom_bond_site_symmetry_2
_ccdc_geom_bond_type
H0 C6 0.930 . S
H1 C9 0.931 . S
H2 C11 0.931 . S
H3 C13 0.930 . S
H4 C15 0.930 . S
H5 C17 0.931 . S
C6 H0 0.930 . S
C6 C7 1.380 . S
C6 C8 1.394 . S
C7 C6 1.380 . S
C7 C11 1.382 . S
C8 C6 1.394 . S
C8 C9 1.400 . S
C9 H1 0.931 . S
C9 C8 1.400 . S
C9 C10 1.375 . S
C10 C9 1.375 . S
C10 C11 1.415 . S
C10 C12 1.501 1_455 S
C11 H2 0.931 . S
C11 C7 1.382 . S
C11 C10 1.415 . S
C12 C10 1.501 1_655 S
C12 C13 1.384 . S
C12 C17 1.408 . S
C13 H3 0.930 . S
C13 C12 1.384 . S
C13 C14 1.389 . S
C14 C13 1.389 . S
C14 C15 1.405 . S
C15 H4 0.930 . S
C15 C14 1.405 . S
C15 C16 1.364 . S
C16 C15 1.364 . S
C16 C17 1.400 . S
C17 H5 0.931 . S
C17 C12 1.408 . S
C17 C16 1.400 . S
H18 C24 0.930 . S
H19 C27 0.931 . S
H20 C29 0.931 . S
H21 C31 0.930 . S
H22 C33 0.930 . S
H23 C35 0.931 . S
C24 H18 0.930 . S
C24 C25 1.380 . S
C24 C26 1.394 . S
C25 C24 1.380 . S
C25 C29 1.382 . S
C26 C24 1.394 . S
C26 C27 1.400 . S
C27 H19 0.931 . S
C27 C26 1.400 . S
C27 C28 1.375 . S
C28 C27 1.375 . S
C28 C29 1.415 . S
C28 C30 1.501 1_545 S
C29 H20 0.931 . S
C29 C25 1.382 . S
C29 C28 1.415 . S
C30 C28 1.501 1_565 S
C30 C31 1.384 . S
C30 C35 1.408 . S
C31 H21 0.930 . S
C31 C30 1.384 . S
C31 C32 1.389 . S
C32 C31 1.389 . S
C32 C33 1.405 . S
C33 H22 0.930 . S
C33 C32 1.405 . S
C33 C34 1.364 . S
C34 C33 1.364 . S
C34 C35 1.400 . S
C35 H23 0.931 . S
C35 C30 1.408 . S
C35 C34 1.400 . S
H36 C42 0.930 . S
H37 C45 0.931 . S
H38 C47 0.931 . S
H39 C49 0.930 . S
H40 C51 0.930 . S
H41 C53 0.931 . S
C42 H36 0.930 . S
C42 C43 1.380 . S
C42 C44 1.394 . S
C43 C42 1.380 . S
C43 C47 1.382 . S
C44 C42 1.394 . S
C44 C45 1.400 . S
C45 H37 0.931 . S
C45 C44 1.400 . S
C45 C46 1.375 . S
C46 C45 1.375 . S
C46 C47 1.415 . S
C46 C48 1.501 . S
C47 H38 0.931 . S
C47 C43 1.382 . S
C47 C46 1.415 . S
C48 C46 1.501 . S
C48 C49 1.384 . S
C48 C53 1.408 . S
C49 H39 0.930 . S
C49 C48 1.384 . S
C49 C50 1.389 . S
C50 C49 1.389 . S
C50 C51 1.405 . S
C51 H40 0.930 . S
C51 C50 1.405 . S
C51 C52 1.364 . S
C52 C51 1.364 . S
C52 C53 1.400 . S
C53 H41 0.931 . S
C53 C48 1.408 . S
C53 C52 1.400 . S
H54 C60 0.930 . S
H55 C63 0.931 . S
H56 C65 0.931 . S
H57 C67 0.930 . S
H58 C69 0.930 . S
H59 C71 0.905 1_455 S
C60 H54 0.930 . S
C60 C61 1.380 . S
C60 C62 1.394 . S
C61 C60 1.380 . S
C61 C65 1.382 . S
C62 C60 1.394 . S
C62 C63 1.400 . S
C63 H55 0.931 . S
C63 C62 1.400 . S
C63 C64 1.375 . S
C64 C63 1.375 . S
C64 C65 1.415 . S
C64 C66 1.501 1_455 S
C65 H56 0.931 . S
C65 C61 1.382 . S
C65 C64 1.415 . S
C66 C64 1.501 1_655 S
C66 C67 1.384 . S
C66 C71 1.408 . S
C67 H57 0.930 . S
C67 C66 1.384 . S
C67 C68 1.389 . S
C68 C67 1.389 . S
C68 C69 1.405 . S
C69 H58 0.930 . S
C69 C68 1.405 . S
C69 C70 1.364 . S
C70 C69 1.364 . S
C70 C71 1.400 . S
C71 H59 0.905 1_655 S
C71 C66 1.408 . S
C71 C70 1.400 . S
H72 C78 0.930 . S
H73 C81 0.931 . S
H74 C83 0.896 1_545 S
H75 C85 0.930 . S
H76 C87 0.930 . S
H77 C89 0.931 . S
C78 H72 0.930 . S
C78 C79 1.380 . S
C78 C80 1.394 1_554 S
C79 C78 1.380 . S
C79 C83 1.382 . S
C80 C78 1.394 1_556 S
C80 C81 1.400 . S
C81 H73 0.931 . S
C81 C80 1.400 . S
C81 C82 1.375 . S
C82 C81 1.375 . S
C82 C83 1.415 1_556 S
C82 C84 1.501 1_565 S
C83 H74 0.896 1_565 S
C83 C79 1.382 . S
C83 C82 1.415 1_554 S
C84 C82 1.501 1_545 S
C84 C85 1.384 1_556 S
C84 C89 1.408 . S
C85 H75 0.930 . S
C85 C84 1.384 1_554 S
C85 C86 1.389 1_554 S
C86 C85 1.389 1_556 S
C86 C87 1.405 . S
C87 H76 0.930 . S
C87 C86 1.405 . S
C87 C88 1.364 . S
C88 C87 1.364 . S
C88 C89 1.400 . S
C89 H77 0.931 . S
C89 C84 1.408 . S
C89 C88 1.400 . S
H90 C96 0.930 . S
H91 C99 0.931 . S
H92 C101 0.931 . S
H93 C103 0.930 . S
H94 C105 0.930 . S
H95 C107 0.931 . S
C96 H90 0.930 . S
C96 C97 1.380 . S
C96 C98 1.394 . S
C97 C96 1.380 . S
C97 C101 1.382 . S
C98 C96 1.394 . S
C98 C99 1.400 . S
C99 H91 0.931 . S
C99 C98 1.400 . S
C99 C100 1.375 . S
C100 C99 1.375 . S
C100 C101 1.415 . S
C100 C102 1.501 . S
C101 H92 0.931 . S
C101 C97 1.382 . S
C101 C100 1.415 . S
C102 C100 1.501 . S
C102 C103 1.384 . S
C102 C107 1.408 . S
C103 H93 0.930 . S
C103 C102 1.384 . S
C103 C104 1.389 . S
C104 C103 1.389 . S
C104 C105 1.405 . S
C105 H94 0.930 . S
C105 C104 1.405 . S
C105 C106 1.364 . S
C106 C105 1.364 . S
C106 C107 1.400 . S
C107 H95 0.931 . S
C107 C102 1.408 . S
C107 C106 1.400 . S
Zn108 O111 2.031 . S
Zn108 O113 2.049 . S
Zn108 O118 2.067 . S
Zn109 O110 1.962 . S
Zn109 O112 1.986 . S
Zn109 O114 1.996 . S
Zn109 O117 1.943 . S
O110 Zn109 1.962 . S
O110 C115 1.254 . S
O111 Zn108 2.031 . S
O111 C115 1.269 . S
O112 Zn109 1.986 . S
O112 C119 1.262 . S
O113 Zn108 2.049 . S
O113 C121 1.260 . S
O114 Zn109 1.996 . S
O114 C121 1.257 . S
C115 O110 1.254 . S
C115 O111 1.269 . S
C116 O117 1.249 . S
C116 O118 1.270 . S
O117 Zn109 1.943 . S
O117 C116 1.249 . S
O118 Zn108 2.067 . S
O118 C116 1.270 . S
C119 O112 1.262 . S
C119 O120 1.232 . S
O120 C119 1.232 . S
C121 O113 1.260 . S
C121 O114 1.257 . S
Zn122 O125 2.031 . S
Zn122 O127 2.049 . S
Zn122 O132 2.067 . S
Zn123 O124 1.962 . S
Zn123 O126 1.986 . S
Zn123 O128 1.996 . S
Zn123 O131 1.943 . S
O124 Zn123 1.962 . S
O124 C129 1.254 . S
O125 Zn122 2.031 . S
O125 C129 1.269 . S
O126 Zn123 1.986 . S
O126 C133 1.262 . S
O127 Zn122 2.049 . S
O127 C135 1.260 . S
O128 Zn123 1.996 . S
O128 C135 1.257 . S
C129 O124 1.254 . S
C129 O125 1.269 . S
C130 O131 1.249 . S
C130 O132 1.270 . S
O131 Zn123 1.943 . S
O131 C130 1.249 . S
O132 Zn122 2.067 . S
O132 C130 1.270 . S
C133 O126 1.262 . S
C133 O134 1.232 . S
O134 C133 1.232 . S
C135 O127 1.260 . S
C135 O128 1.257 . S
Zn136 O139 2.031 . S
Zn136 O141 2.049 . S
Zn136 O146 2.067 . S
Zn137 O138 1.962 . S
Zn137 O140 1.986 . S
Zn137 O142 1.996 . S
Zn137 O145 1.943 . S
O138 Zn137 1.962 . S
O138 C143 1.254 . S
O139 Zn136 2.031 . S
O139 C143 1.269 . S
O140 Zn137 1.986 . S
O140 C147 1.262 . S
O141 Zn136 2.049 . S
O141 C149 1.260 . S
O142 Zn137 1.996 . S
O142 C149 1.257 . S
C143 O138 1.254 . S
C143 O139 1.269 . S
C144 O145 1.249 . S
C144 O146 1.270 . S
O145 Zn137 1.943 . S
O145 C144 1.249 . S
O146 Zn136 2.067 . S
O146 C144 1.270 . S
C147 O140 1.262 . S
C147 O148 1.232 . S
O148 C147 1.232 . S
C149 O141 1.260 . S
C149 O142 1.257 . S
Zn150 O153 2.031 . S
Zn150 O155 2.049 . S
Zn150 O160 2.067 . S
Zn151 O152 1.962 . S
Zn151 O154 1.986 . S
Zn151 O156 1.996 . S
Zn151 O159 1.943 . S
O152 Zn151 1.962 . S
O152 C157 1.254 . S
O153 Zn150 2.031 . S
O153 C157 1.269 . S
O154 Zn151 1.986 . S
O154 C161 1.262 . S
O155 Zn150 2.049 . S
O155 C163 1.260 . S
O156 Zn151 1.996 . S
O156 C163 1.257 . S
C157 O152 1.254 . S
C157 O153 1.269 . S
C158 O159 1.249 . S
C158 O160 1.270 . S
O159 Zn151 1.943 . S
O159 C158 1.249 . S
O160 Zn150 2.067 . S
O160 C158 1.270 . S
C161 O154 1.262 . S
C161 O162 1.232 . S
O162 C161 1.232 . S
C163 O155 1.260 . S
C163 O156 1.257 . S
Zn164 O167 2.031 . S
Zn164 O169 2.049 . S
Zn164 O174 2.067 . S
Zn165 O166 1.962 . S
Zn165 O168 1.986 . S
Zn165 O170 1.996 . S
Zn165 O173 1.943 . S
O166 Zn165 1.962 . S
O166 C171 1.254 . S
O167 Zn164 2.031 . S
O167 C171 1.269 . S
O168 Zn165 1.986 . S
O168 C175 1.262 . S
O169 Zn164 2.049 . S
O169 C177 1.260 . S
O170 Zn165 1.996 . S
O170 C177 1.257 . S
C171 O166 1.254 . S
C171 O167 1.269 . S
C172 O173 1.249 . S
C172 O174 1.270 . S
O173 Zn165 1.943 . S
O173 C172 1.249 . S
O174 Zn164 2.067 . S
O174 C172 1.270 . S
C175 O168 1.262 . S
C175 O176 1.232 . S
O176 C175 1.232 . S
C177 O169 1.260 . S
C177 O170 1.257 . S
Zn178 O181 2.031 . S
Zn178 O183 2.049 . S
Zn178 O188 2.067 . S
Zn179 O180 1.962 . S
Zn179 O182 1.986 . S
Zn179 O184 1.996 . S
Zn179 O187 1.943 . S
O180 Zn179 1.962 . S
O180 C185 1.254 . S
O181 Zn178 2.031 . S
O181 C185 1.269 . S
O182 Zn179 1.986 . S
O182 C189 1.262 . S
O183 Zn178 2.049 . S
O183 C191 1.260 . S
O184 Zn179 1.996 . S
O184 C191 1.257 . S
C185 O180 1.254 . S
C185 O181 1.269 . S
C186 O187 1.249 . S
C186 O188 1.270 . S
O187 Zn179 1.943 . S
O187 C186 1.249 . S
O188 Zn178 2.067 . S
O188 C186 1.270 . S
C189 O182 1.262 . S
C189 O190 1.232 . S
O190 C189 1.232 . S
C191 O183 1.260 . S
C191 O184 1.257 . S
C192 C193 1.349 . S
C192 C194 1.327 . S
C192 H217 0.950 . S
C193 C192 1.349 . S
C193 C209 1.349 . S
C194 C192 1.327 . S
C194 C213 1.429 . S
C194 H218 0.950 . S
C195 C212 1.574 . S
C195 C214 1.368 . S
C195 H219 0.949 . S
H196 C200 0.949 . S
C197 C198 1.349 . S
C197 C199 1.327 . S
C197 H220 0.950 . S
C198 C197 1.349 . S
C198 C210 1.349 . S
C199 C197 1.327 . S
C199 C215 1.429 . S
C199 H221 0.950 . S
C200 H196 0.949 . S
C200 C208 1.574 . S
C200 C216 1.368 . S
H201 C209 0.950 . S
H202 C207 0.950 . S
H203 C208 0.949 . S
H204 C210 0.950 . S
H205 C211 0.950 . S
H206 C212 0.949 . S
C207 H202 0.950 . S
C207 C209 1.327 . S
C207 C213 1.429 . S
C208 C200 1.574 . S
C208 H203 0.949 . S
C208 C214 1.368 . S
C209 C193 1.349 . S
C209 H201 0.950 . S
C209 C207 1.327 . S
C210 C198 1.349 . S
C210 H204 0.950 . S
C210 C211 1.327 . S
C211 H205 0.950 . S
C211 C210 1.327 . S
C211 C215 1.429 . S
C212 C195 1.574 . S
C212 H206 0.949 . S
C212 C216 1.368 . S
C213 C194 1.429 . S
C213 C207 1.429 . S
C213 C214 1.523 . S
C214 C195 1.368 . S
C214 C208 1.368 . S
C214 C213 1.523 . S
C215 C199 1.429 . S
C215 C211 1.429 . S
C215 C216 1.523 . S
C216 C200 1.368 . S
C216 C212 1.368 . S
C216 C215 1.523 . S
H217 C192 0.950 . S
H218 C194 0.950 . S
H219 C195 0.949 . S
H220 C197 0.950 . S
H221 C199 0.950 . S
C222 C223 1.349 . S
C222 C224 1.327 . S
C222 H247 0.950 . S
C223 C222 1.349 . S
C223 C239 1.349 . S
C224 C222 1.327 . S
C224 C243 1.429 . S
C224 H248 0.950 . S
C225 C242 1.574 . S
C225 C244 1.368 . S
C225 H249 0.949 . S
H226 C230 0.949 . S
C227 C228 1.349 . S
C227 C229 1.327 . S
C227 H250 0.950 . S
C228 C227 1.349 . S
C228 C240 1.349 . S
C229 C227 1.327 . S
C229 C245 1.429 . S
C229 H251 0.950 . S
C230 H226 0.949 . S
C230 C238 1.574 . S
C230 C246 1.368 . S
H231 C239 0.950 . S
H232 C237 0.950 . S
H233 C238 0.949 . S
H234 C240 0.950 . S
H235 C241 0.950 . S
H236 C242 0.949 . S
C237 H232 0.950 . S
C237 C239 1.327 . S
C237 C243 1.429 . S
C238 C230 1.574 . S
C238 H233 0.949 . S
C238 C244 1.368 . S
C239 C223 1.349 . S
C239 H231 0.950 . S
C239 C237 1.327 . S
C240 C228 1.349 . S
C240 H234 0.950 . S
C240 C241 1.327 . S
C241 H235 0.950 . S
C241 C240 1.327 . S
C241 C245 1.429 . S
C242 C225 1.574 . S
C242 H236 0.949 . S
C242 C246 1.368 . S
C243 C224 1.429 . S
C243 C237 1.429 . S
C243 C244 1.523 . S
C244 C225 1.368 . S
C244 C238 1.368 . S
C244 C243 1.523 . S
C245 C229 1.429 . S
C245 C241 1.429 . S
C245 C246 1.523 . S
C246 C230 1.368 . S
C246 C242 1.368 . S
C246 C245 1.523 . S
H247 C222 0.950 . S
H248 C224 0.950 . S
H249 C225 0.949 . S
H250 C227 0.950 . S
H251 C229 0.950 . S
C252 C253 1.349 . S
C252 C254 1.327 . S
C252 H277 0.950 . S
C253 C252 1.349 . S
C253 C269 1.349 . S
C254 C252 1.327 . S
C254 C273 1.429 . S
C254 H278 0.950 . S
C255 C272 1.574 . S
C255 C274 1.368 . S
C255 H279 0.949 . S
H256 C260 0.949 . S
C257 C258 1.349 . S
C257 C259 1.327 . S
C257 H280 0.950 . S
C258 C257 1.349 . S
C258 C270 1.349 . S
C259 C257 1.327 . S
C259 C275 1.429 . S
C259 H281 0.950 . S
C260 H256 0.949 . S
C260 C268 1.574 . S
C260 C276 1.368 . S
H261 C269 0.950 . S
H262 C267 0.950 . S
H263 C268 0.949 . S
H264 C270 0.950 . S
H265 C271 0.950 . S
H266 C272 0.949 . S
C267 H262 0.950 . S
C267 C269 1.327 . S
C267 C273 1.429 . S
C268 C260 1.574 . S
C268 H263 0.949 . S
C268 C274 1.368 . S
C269 C253 1.349 . S
C269 H261 0.950 . S
C269 C267 1.327 . S
C270 C258 1.349 . S
C270 H264 0.950 . S
C270 C271 1.327 . S
C271 H265 0.950 . S
C271 C270 1.327 . S
C271 C275 1.429 . S
C272 C255 1.574 . S
C272 H266 0.949 . S
C272 C276 1.368 . S
C273 C254 1.429 . S
C273 C267 1.429 . S
C273 C274 1.523 . S
C274 C255 1.368 . S
C274 C268 1.368 . S
C274 C273 1.523 . S
C275 C259 1.429 . S
C275 C271 1.429 . S
C275 C276 1.523 . S
C276 C260 1.368 . S
C276 C272 1.368 . S
C276 C275 1.523 . S
H277 C252 0.950 . S
H278 C254 0.950 . S
H279 C255 0.949 . S
H280 C257 0.950 . S
H281 C259 0.950 . S
C282 C283 1.349 . S
C282 C284 1.327 . S
C282 H307 0.950 . S
C283 C282 1.349 . S
C283 C299 1.349 . S
C284 C282 1.327 . S
C284 C303 1.429 . S
C284 H308 0.950 . S
C285 C302 1.574 . S
C285 C304 1.368 . S
C285 H309 0.949 . S
H286 C290 0.949 . S
C287 C288 1.349 . S
C287 C289 1.327 . S
C287 H310 0.950 . S
C288 C287 1.349 . S
C288 C300 1.349 . S
C289 C287 1.327 . S
C289 C305 1.429 . S
C289 H311 0.950 . S
C290 H286 0.949 . S
C290 C298 1.574 . S
C290 C306 1.368 . S
H291 C299 0.950 . S
H292 C297 0.950 . S
H293 C298 0.949 . S
H294 C300 0.950 . S
H295 C301 0.950 . S
H296 C302 0.949 . S
C297 H292 0.950 . S
C297 C299 1.327 . S
C297 C303 1.429 . S
C298 C290 1.574 . S
C298 H293 0.949 . S
C298 C304 1.368 . S
C299 C283 1.349 . S
C299 H291 0.950 . S
C299 C297 1.327 . S
C300 C288 1.349 . S
C300 H294 0.950 . S
C300 C301 1.327 . S
C301 H295 0.950 . S
C301 C300 1.327 . S
C301 C305 1.429 . S
C302 C285 1.574 . S
C302 H296 0.949 . S
C302 C306 1.368 . S
C303 C284 1.429 . S
C303 C297 1.429 . S
C303 C304 1.523 . S
C304 C285 1.368 . S
C304 C298 1.368 . S
C304 C303 1.523 . S
C305 C289 1.429 . S
C305 C301 1.429 . S
C305 C306 1.523 . S
C306 C290 1.368 . S
C306 C302 1.368 . S
C306 C305 1.523 . S
H307 C282 0.950 . S
H308 C284 0.950 . S
H309 C285 0.949 . S
H310 C287 0.950 . S
H311 C289 0.950 . S
C312 C313 1.349 . S
C312 C314 1.327 . S
C312 H337 0.950 . S
C313 C312 1.349 . S
C313 C329 1.349 . S
C314 C312 1.327 . S
C314 C333 1.429 . S
C314 H338 0.950 . S
C315 C332 1.574 . S
C315 C334 1.368 . S
C315 H339 0.949 . S
H316 C320 0.949 . S
C317 C318 1.349 . S
C317 C319 1.327 . S
C317 H340 0.950 . S
C318 C317 1.349 . S
C318 C330 1.349 . S
C319 C317 1.327 . S
C319 C335 1.429 . S
C319 H341 0.950 . S
C320 H316 0.949 . S
C320 C328 1.574 . S
C320 C336 1.368 . S
H321 C329 0.950 . S
H322 C327 0.950 . S
H323 C328 0.949 . S
H324 C330 0.950 . S
H325 C331 0.950 . S
H326 C332 0.949 . S
C327 H322 0.950 . S
C327 C329 1.327 . S
C327 C333 1.429 . S
C328 C320 1.574 . S
C328 H323 0.949 . S
C328 C334 1.368 . S
C329 C313 1.349 . S
C329 H321 0.950 . S
C329 C327 1.327 . S
C330 C318 1.349 . S
C330 H324 0.950 . S
C330 C331 1.327 . S
C331 H325 0.950 . S
C331 C330 1.327 . S
C331 C335 1.429 . S
C332 C315 1.574 . S
C332 H326 0.949 . S
C332 C336 1.368 . S
C333 C314 1.429 . S
C333 C327 1.429 . S
C333 C334 1.523 . S
C334 C315 1.368 . S
C334 C328 1.368 . S
C334 C333 1.523 . S
C335 C319 1.429 . S
C335 C331 1.429 . S
C335 C336 1.523 . S
C336 C320 1.368 . S
C336 C332 1.368 . S
C336 C335 1.523 . S
H337 C312 0.950 . S
H338 C314 0.950 . S
H339 C315 0.949 . S
H340 C317 0.950 . S
H341 C319 0.950 . S
C342 C343 1.349 . S
C342 C344 1.327 . S
C342 H367 0.950 . S
C343 C342 1.349 . S
C343 C359 1.349 . S
C344 C342 1.327 . S
C344 C363 1.429 . S
C344 H368 0.950 . S
C345 C362 1.574 . S
C345 C364 1.368 . S
C345 H369 0.949 . S
H346 C350 0.949 . S
C347 C348 1.349 . S
C347 C349 1.327 . S
C347 H370 0.950 . S
C348 C347 1.349 . S
C348 C360 1.349 . S
C349 C347 1.327 . S
C349 C365 1.429 . S
C349 H371 0.950 . S
C350 H346 0.949 . S
C350 C358 1.574 . S
C350 C366 1.368 . S
H351 C359 0.950 . S
H352 C357 0.950 . S
H353 C358 0.949 . S
H354 C360 0.950 . S
H355 C361 0.950 . S
H356 C362 0.949 . S
C357 H352 0.950 . S
C357 C359 1.327 . S
C357 C363 1.429 . S
C358 C350 1.574 . S
C358 H353 0.949 . S
C358 C364 1.368 . S
C359 C343 1.349 . S
C359 H351 0.950 . S
C359 C357 1.327 . S
C360 C348 1.349 . S
C360 H354 0.950 . S
C360 C361 1.327 . S
C361 H355 0.950 . S
C361 C360 1.327 . S
C361 C365 1.429 . S
C362 C345 1.574 . S
C362 H356 0.949 . S
C362 C366 1.368 . S
C363 C344 1.429 . S
C363 C357 1.429 . S
C363 C364 1.523 . S
C364 C345 1.368 . S
C364 C358 1.368 . S
C364 C363 1.523 . S
C365 C349 1.429 . S
C365 C361 1.429 . S
C365 C366 1.523 . S
C366 C350 1.368 . S
C366 C362 1.368 . S
C366 C365 1.523 . S
H367 C342 0.950 . S
H368 C344 0.950 . S
H369 C345 0.949 . S
H370 C347 0.950 . S
H371 C349 0.950 . S
C372 C373 1.349 . S
C372 C374 1.327 . S
C372 H397 0.950 . S
C373 C372 1.349 . S
C373 C389 1.349 . S
C374 C372 1.327 . S
C374 C393 1.429 . S
C374 H398 0.950 . S
C375 C392 1.574 . S
C375 C394 1.368 . S
C375 H399 0.949 . S
H376 C380 0.949 . S
C377 C378 1.349 . S
C377 C379 1.327 . S
C377 H400 0.950 . S
C378 C377 1.349 . S
C378 C390 1.349 . S
C379 C377 1.327 . S
C379 C395 1.429 . S
C379 H401 0.950 . S
C380 H376 0.949 . S
C380 C388 1.574 . S
C380 C396 1.368 . S
H381 C389 0.950 . S
H382 C387 0.950 . S
H383 C388 0.949 . S
H384 C390 0.950 . S
H385 C391 0.950 . S
H386 C392 0.949 . S
C387 H382 0.950 . S
C387 C389 1.327 . S
C387 C393 1.429 . S
C388 C380 1.574 . S
C388 H383 0.949 . S
C388 C394 1.368 . S
C389 C373 1.349 . S
C389 H381 0.950 . S
C389 C387 1.327 . S
C390 C378 1.349 . S
C390 H384 0.950 . S
C390 C391 1.327 . S
C391 H385 0.950 . S
C391 C390 1.327 . S
C391 C395 1.429 . S
C392 C375 1.574 . S
C392 H386 0.949 . S
C392 C396 1.368 . S
C393 C374 1.429 . S
C393 C387 1.429 . S
C393 C394 1.523 . S
C394 C375 1.368 . S
C394 C388 1.368 . S
C394 C393 1.523 . S
C395 C379 1.429 . S
C395 C391 1.429 . S
C395 C396 1.523 . S
C396 C380 1.368 . S
C396 C392 1.368 . S
C396 C395 1.523 . S
H397 C372 0.950 . S
H398 C374 0.950 . S
H399 C375 0.949 . S
H400 C377 0.950 . S
H401 C379 0.950 . S
C402 C403 1.349 . S
C402 C404 1.327 . S
C402 H427 0.950 . S
C403 C402 1.349 . S
C403 C419 1.349 . S
C404 C402 1.327 . S
C404 C423 1.429 . S
C404 H428 0.950 . S
C405 C422 1.574 . S
C405 C424 1.368 . S
C405 H429 0.949 . S
H406 C410 0.949 . S
C407 C408 1.349 . S
C407 C409 1.327 . S
C407 H430 0.950 . S
C408 C407 1.349 . S
C408 C420 1.349 . S
C409 C407 1.327 . S
C409 C425 1.429 . S
C409 H431 0.950 . S
C410 H406 0.949 . S
C410 C418 1.574 . S
C410 C426 1.368 . S
H411 C419 0.950 . S
H412 C417 0.950 . S
H413 C418 0.949 . S
H414 C420 0.950 . S
H415 C421 0.950 . S
H416 C422 0.949 . S
C417 H412 0.950 . S
C417 C419 1.327 . S
C417 C423 1.429 . S
C418 C410 1.574 . S
C418 H413 0.949 . S
C418 C424 1.368 . S
C419 C403 1.349 . S
C419 H411 0.950 . S
C419 C417 1.327 . S
C420 C408 1.349 . S
C420 H414 0.950 . S
C420 C421 1.327 . S
C421 H415 0.950 . S
C421 C420 1.327 . S
C421 C425 1.429 . S
C422 C405 1.574 . S
C422 H416 0.949 . S
C422 C426 1.368 . S
C423 C404 1.429 . S
C423 C417 1.429 . S
C423 C424 1.523 . S
C424 C405 1.368 . S
C424 C418 1.368 . S
C424 C423 1.523 . S
C425 C409 1.429 . S
C425 C421 1.429 . S
C425 C426 1.523 . S
C426 C410 1.368 . S
C426 C422 1.368 . S
C426 C425 1.523 . S
H427 C402 0.950 . S
H428 C404 0.950 . S
H429 C405 0.949 . S
H430 C407 0.950 . S
H431 C409 0.950 . S
C432 C433 1.349 . S
C432 C434 1.327 . S
C432 H457 0.950 . S
C433 C432 1.349 . S
C433 C449 1.349 . S
C434 C432 1.327 . S
C434 C453 1.429 . S
C434 H458 0.950 . S
C435 C452 1.574 . S
C435 C454 1.368 . S
C435 H459 0.949 . S
H436 C440 0.949 . S
C437 C438 1.349 . S
C437 C439 1.327 . S
C437 H460 0.950 . S
C438 C437 1.349 . S
C438 C450 1.349 . S
C439 C437 1.327 . S
C439 C455 1.429 . S
C439 H461 0.950 . S
C440 H436 0.949 . S
C440 C448 1.574 . S
C440 C456 1.368 . S
H441 C449 0.950 . S
H442 C447 0.950 . S
H443 C448 0.949 . S
H444 C450 0.950 . S
H445 C451 0.950 . S
H446 C452 0.949 . S
C447 H442 0.950 . S
C447 C449 1.327 . S
C447 C453 1.429 . S
C448 C440 1.574 . S
C448 H443 0.949 . S
C448 C454 1.368 . S
C449 C433 1.349 . S
C449 H441 0.950 . S
C449 C447 1.327 . S
C450 C438 1.349 . S
C450 H444 0.950 . S
C450 C451 1.327 . S
C451 H445 0.950 . S
C451 C450 1.327 . S
C451 C455 1.429 . S
C452 C435 1.574 . S
C452 H446 0.949 . S
C452 C456 1.368 . S
C453 C434 1.429 . S
C453 C447 1.429 . S
C453 C454 1.523 . S
C454 C435 1.368 . S
C454 C448 1.368 . S
C454 C453 1.523 . S
C455 C439 1.429 . S
C455 C451 1.429 . S
C455 C456 1.523 . S
C456 C440 1.368 . S
C456 C452 1.368 . S
C456 C455 1.523 . S
H457 C432 0.950 . S
H458 C434 0.950 . S
H459 C435 0.949 . S
H460 C437 0.950 . S
H461 C439 0.950 . S
C462 C463 1.349 1_556 S
C462 C464 1.327 . S
C462 H487 0.950 . S
C463 C462 1.349 1_554 S
C463 C479 1.349 . S
C464 C462 1.327 . S
C464 C483 1.429 1_556 S
C464 H488 0.950 . S
C465 C482 1.574 . S
C465 C484 1.368 . S
C465 H489 0.949 . S
H466 C470 0.949 . S
C467 C468 1.349 . S
C467 C469 1.327 . S
C467 H490 0.950 . S
C468 C467 1.349 . S
C468 C480 1.349 . S
C469 C467 1.327 . S
C469 C485 1.429 . S
C469 H491 0.950 . S
C470 H466 0.949 . S
C470 C478 1.574 . S
C470 C486 1.368 . S
H471 C479 0.950 . S
H472 C477 0.950 . S
H473 C478 0.949 1_556 S
H474 C480 0.950 . S
H475 C481 0.950 . S
H476 C482 0.949 . S
C477 H472 0.950 . S
C477 C479 1.327 . S
C477 C483 1.429 . S
C478 C470 1.574 . S
C478 H473 0.949 1_554 S
C478 C484 1.368 . S
C479 C463 1.349 . S
C479 H471 0.950 . S
C479 C477 1.327 . S
C480 C468 1.349 . S
C480 H474 0.950 . S
C480 C481 1.327 . S
C481 H475 0.950 . S
C481 C480 1.327 . S
C481 C485 1.429 . S
C482 C465 1.574 . S
C482 H476 0.949 . S
C482 C486 1.368 . S
C483 C464 1.429 1_554 S
C483 C477 1.429 . S
C483 C484 1.523 . S
C484 C465 1.368 . S
C484 C478 1.368 . S
C484 C483 1.523 . S
C485 C469 1.429 . S
C485 C481 1.429 . S
C485 C486 1.523 . S
C486 C470 1.368 . S
C486 C482 1.368 . S
C486 C485 1.523 . S
H487 C462 0.950 . S
H488 C464 0.950 . S
H489 C465 0.949 . S
H490 C467 0.950 . S
H491 C469 0.950 . S
C492 C493 1.349 . S
C492 C494 1.327 . S
C492 H517 0.950 . S
C493 C492 1.349 . S
C493 C509 1.349 . S
C494 C492 1.327 . S
C494 C513 1.429 . S
C494 H518 0.950 . S
C495 C512 1.574 . S
C495 C514 1.368 . S
C495 H519 0.949 . S
H496 C500 0.949 . S
C497 C498 1.349 . S
C497 C499 1.327 . S
C497 H520 0.950 . S
C498 C497 1.349 . S
C498 C510 1.349 . S
C499 C497 1.327 . S
C499 C515 1.429 . S
C499 H521 0.950 . S
C500 H496 0.949 . S
C500 C508 1.574 . S
C500 C516 1.368 . S
H501 C509 0.950 . S
H502 C507 0.950 . S
H503 C508 0.949 . S
H504 C510 0.950 . S
H505 C511 0.950 . S
H506 C512 0.949 . S
C507 H502 0.950 . S
C507 C509 1.327 . S
C507 C513 1.429 . S
C508 C500 1.574 . S
C508 H503 0.949 . S
C508 C514 1.368 . S
C509 C493 1.349 . S
C509 H501 0.950 . S
C509 C507 1.327 . S
C510 C498 1.349 . S
C510 H504 0.950 . S
C510 C511 1.327 . S
C511 H505 0.950 . S
C511 C510 1.327 . S
C511 C515 1.429 . S
C512 C495 1.574 . S
C512 H506 0.949 . S
C512 C516 1.368 . S
C513 C494 1.429 . S
C513 C507 1.429 . S
C513 C514 1.523 . S
C514 C495 1.368 . S
C514 C508 1.368 . S
C514 C513 1.523 . S
C515 C499 1.429 . S
C515 C511 1.429 . S
C515 C516 1.523 . S
C516 C500 1.368 . S
C516 C512 1.368 . S
C516 C515 1.523 . S
H517 C492 0.950 . S
H518 C494 0.950 . S
H519 C495 0.949 . S
H520 C497 0.950 . S
H521 C499 0.950 . S
C522 C523 1.349 . S
C522 C524 1.327 . S
C522 H547 0.950 . S
C523 C522 1.349 . S
C523 C539 1.349 . S
C524 C522 1.327 . S
C524 C543 1.429 . S
C524 H548 0.950 . S
C525 C542 1.574 . S
C525 C544 1.368 . S
C525 H549 0.949 . S
H526 C530 0.949 . S
C527 C528 1.349 . S
C527 C529 1.327 . S
C527 H550 0.950 . S
C528 C527 1.349 . S
C528 C540 1.349 . S
C529 C527 1.327 . S
C529 C545 1.429 . S
C529 H551 0.950 . S
C530 H526 0.949 . S
C530 C538 1.574 . S
C530 C546 1.368 . S
H531 C539 0.950 . S
H532 C537 0.950 . S
H533 C538 0.949 . S
H534 C540 0.950 . S
H535 C541 0.950 . S
H536 C542 0.949 . S
C537 H532 0.950 . S
C537 C539 1.327 . S
C537 C543 1.429 . S
C538 C530 1.574 . S
C538 H533 0.949 . S
C538 C544 1.368 . S
C539 C523 1.349 . S
C539 H531 0.950 . S
C539 C537 1.327 . S
C540 C528 1.349 . S
C540 H534 0.950 . S
C540 C541 1.327 . S
C541 H535 0.950 . S
C541 C540 1.327 . S
C541 C545 1.429 . S
C542 C525 1.574 . S
C542 H536 0.949 . S
C542 C546 1.368 . S
C543 C524 1.429 . S
C543 C537 1.429 . S
C543 C544 1.523 . S
C544 C525 1.368 . S
C544 C538 1.368 . S
C544 C543 1.523 . S
C545 C529 1.429 . S
C545 C541 1.429 . S
C545 C546 1.523 . S
C546 C530 1.368 . S
C546 C542 1.368 . S
C546 C545 1.523 . S
H547 C522 0.950 . S
H548 C524 0.950 . S
H549 C525 0.949 . S
H550 C527 0.950 . S
H551 C529 0.950 . S
C552 C553 1.349 . S
C552 C554 1.327 . S
C552 H577 0.950 . S
C553 C552 1.349 . S
C553 C569 1.349 . S
C554 C552 1.327 . S
C554 C573 1.429 . S
C554 H578 0.950 . S
C555 C572 1.574 . S
C555 C574 1.368 . S
C555 H579 0.949 . S
H556 C560 0.949 . S
C557 C558 1.349 . S
C557 C559 1.327 . S
C557 H580 0.950 . S
C558 C557 1.349 . S
C558 C570 1.349 . S
C559 C557 1.327 . S
C559 C575 1.429 . S
C559 H581 0.950 . S
C560 H556 0.949 . S
C560 C568 1.574 . S
C560 C576 1.368 . S
H561 C569 0.950 . S
H562 C567 0.950 . S
H563 C568 0.949 . S
H564 C570 0.950 . S
H565 C571 0.950 . S
H566 C572 0.949 . S
C567 H562 0.950 . S
C567 C569 1.327 . S
C567 C573 1.429 . S
C568 C560 1.574 . S
C568 H563 0.949 . S
C568 C574 1.368 . S
C569 C553 1.349 . S
C569 H561 0.950 . S
C569 C567 1.327 . S
C570 C558 1.349 . S
C570 H564 0.950 . S
C570 C571 1.327 . S
C571 H565 0.950 . S
C571 C570 1.327 . S
C571 C575 1.429 . S
C572 C555 1.574 . S
C572 H566 0.949 . S
C572 C576 1.368 . S
C573 C554 1.429 . S
C573 C567 1.429 . S
C573 C574 1.523 . S
C574 C555 1.368 . S
C574 C568 1.368 . S
C574 C573 1.523 . S
C575 C559 1.429 . S
C575 C571 1.429 . S
C575 C576 1.523 . S
C576 C560 1.368 . S
C576 C572 1.368 . S
C576 C575 1.523 . S
H577 C552 0.950 . S
H578 C554 0.950 . S
H579 C555 0.949 . S
H580 C557 0.950 . S
H581 C559 0.950 . S
C582 C583 1.349 . S
C582 C584 1.327 . S
C582 H607 0.950 . S
C583 C582 1.349 . S
C583 C599 1.349 . S
C584 C582 1.327 . S
C584 C603 1.429 . S
C584 H608 0.950 . S
C585 C602 1.574 . S
C585 C604 1.368 . S
C585 H609 0.949 . S
H586 C590 0.949 . S
C587 C588 1.349 . S
C587 C589 1.327 . S
C587 H610 0.950 . S
C588 C587 1.349 . S
C588 C600 1.349 . S
C589 C587 1.327 . S
C589 C605 1.429 . S
C589 H611 0.950 . S
C590 H586 0.949 . S
C590 C598 1.574 . S
C590 C606 1.368 . S
H591 C599 0.950 . S
H592 C597 0.950 . S
H593 C598 0.949 . S
H594 C600 0.950 . S
H595 C601 0.950 . S
H596 C602 0.949 . S
C597 H592 0.950 . S
C597 C599 1.327 . S
C597 C603 1.429 . S
C598 C590 1.574 . S
C598 H593 0.949 . S
C598 C604 1.368 . S
C599 C583 1.349 . S
C599 H591 0.950 . S
C599 C597 1.327 . S
C600 C588 1.349 . S
C600 H594 0.950 . S
C600 C601 1.327 . S
C601 H595 0.950 . S
C601 C600 1.327 . S
C601 C605 1.429 . S
C602 C585 1.574 . S
C602 H596 0.949 . S
C602 C606 1.368 . S
C603 C584 1.429 . S
C603 C597 1.429 . S
C603 C604 1.523 . S
C604 C585 1.368 . S
C604 C598 1.368 . S
C604 C603 1.523 . S
C605 C589 1.429 . S
C605 C601 1.429 . S
C605 C606 1.523 . S
C606 C590 1.368 . S
C606 C602 1.368 . S
C606 C605 1.523 . S
H607 C582 0.950 . S
H608 C584 0.950 . S
H609 C585 0.949 . S
H610 C587 0.950 . S
H611 C589 0.950 . S
C612 C613 1.349 . S
C612 C614 1.327 . S
C612 H637 0.950 . S
C613 C612 1.349 . S
C613 C629 1.349 . S
C614 C612 1.327 . S
C614 C633 1.429 . S
C614 H638 0.950 . S
C615 C632 1.574 . S
C615 C634 1.368 . S
C615 H639 0.949 . S
H616 C620 0.949 . S
C617 C618 1.349 . S
C617 C619 1.327 . S
C617 H640 0.950 . S
C618 C617 1.349 . S
C618 C630 1.349 . S
C619 C617 1.327 . S
C619 C635 1.429 . S
C619 H641 0.950 . S
C620 H616 0.949 . S
C620 C628 1.574 . S
C620 C636 1.368 . S
H621 C629 0.950 . S
H622 C627 0.950 . S
H623 C628 0.949 . S
H624 C630 0.950 . S
H625 C631 0.950 . S
H626 C632 0.949 . S
C627 H622 0.950 . S
C627 C629 1.327 . S
C627 C633 1.429 . S
C628 C620 1.574 . S
C628 H623 0.949 . S
C628 C634 1.368 . S
C629 C613 1.349 . S
C629 H621 0.950 . S
C629 C627 1.327 . S
C630 C618 1.349 . S
C630 H624 0.950 . S
C630 C631 1.327 . S
C631 H625 0.950 . S
C631 C630 1.327 . S
C631 C635 1.429 . S
C632 C615 1.574 . S
C632 H626 0.949 . S
C632 C636 1.368 . S
C633 C614 1.429 . S
C633 C627 1.429 . S
C633 C634 1.523 . S
C634 C615 1.368 . S
C634 C628 1.368 . S
C634 C633 1.523 . S
C635 C619 1.429 . S
C635 C631 1.429 . S
C635 C636 1.523 . S
C636 C620 1.368 . S
C636 C632 1.368 . S
C636 C635 1.523 . S
H637 C612 0.950 . S
H638 C614 0.950 . S
H639 C615 0.949 . S
H640 C617 0.950 . S
H641 C619 0.950 . S
C642 C643 1.349 . S
C642 C644 1.327 . S
C642 H667 0.950 . S
C643 C642 1.349 . S
C643 C659 1.349 . S
C644 C642 1.327 . S
C644 C663 1.429 . S
C644 H668 0.950 . S
C645 C662 1.574 . S
C645 C664 1.368 . S
C645 H669 0.949 . S
H646 C650 0.949 . S
C647 C648 1.349 . S
C647 C649 1.327 1_554 S
C647 H670 0.950 . S
C648 C647 1.349 . S
C648 C660 1.349 . S
C649 C647 1.327 1_556 S
C649 C665 1.429 . S
C649 H671 0.950 . S
C650 H646 0.949 . S
C650 C658 1.574 . S
C650 C666 1.368 . S
H651 C659 0.950 . S
H652 C657 0.950 . S
H653 C658 0.949 . S
H654 C660 0.950 . S
H655 C661 0.950 . S
H656 C662 0.949 . S
C657 H652 0.950 . S
C657 C659 1.327 . S
C657 C663 1.429 . S
C658 C650 1.574 . S
C658 H653 0.949 . S
C658 C664 1.368 . S
C659 C643 1.349 . S
C659 H651 0.950 . S
C659 C657 1.327 . S
C660 C648 1.349 . S
C660 H654 0.950 . S
C660 C661 1.327 1_554 S
C661 H655 0.950 . S
C661 C660 1.327 1_556 S
C661 C665 1.429 . S
C662 C645 1.574 . S
C662 H656 0.949 . S
C662 C666 1.368 . S
C663 C644 1.429 . S
C663 C657 1.429 . S
C663 C664 1.523 . S
C664 C645 1.368 . S
C664 C658 1.368 . S
C664 C663 1.523 . S
C665 C649 1.429 . S
C665 C661 1.429 . S
C665 C666 1.523 . S
C666 C650 1.368 . S
C666 C662 1.368 . S
C666 C665 1.523 . S
H667 C642 0.950 . S
H668 C644 0.950 . S
H669 C645 0.949 . S
H670 C647 0.950 . S
H671 C649 0.950 . S
C672 C673 1.349 . S
C672 C674 1.327 . S
C672 H697 0.950 . S
C673 C672 1.349 . S
C673 C689 1.349 . S
C674 C672 1.327 . S
C674 C693 1.429 . S
C674 H698 0.950 . S
C675 C692 1.574 . S
C675 C694 1.368 . S
C675 H699 0.949 . S
H676 C680 0.949 . S
C677 C678 1.349 . S
C677 C679 1.327 . S
C677 H700 0.950 . S
C678 C677 1.349 . S
C678 C690 1.349 . S
C679 C677 1.327 . S
C679 C695 1.429 . S
C679 H701 0.950 . S
C680 H676 0.949 . S
C680 C688 1.574 . S
C680 C696 1.368 . S
H681 C689 0.950 . S
H682 C687 0.950 . S
H683 C688 0.949 . S
H684 C690 0.950 . S
H685 C691 0.950 . S
H686 C692 0.949 . S
C687 H682 0.950 . S
C687 C689 1.327 . S
C687 C693 1.429 . S
C688 C680 1.574 . S
C688 H683 0.949 . S
C688 C694 1.368 . S
C689 C673 1.349 . S
C689 H681 0.950 . S
C689 C687 1.327 . S
C690 C678 1.349 . S
C690 H684 0.950 . S
C690 C691 1.327 . S
C691 H685 0.950 . S
C691 C690 1.327 . S
C691 C695 1.429 . S
C692 C675 1.574 . S
C692 H686 0.949 . S
C692 C696 1.368 . S
C693 C674 1.429 . S
C693 C687 1.429 . S
C693 C694 1.523 . S
C694 C675 1.368 . S
C694 C688 1.368 . S
C694 C693 1.523 . S
C695 C679 1.429 . S
C695 C691 1.429 . S
C695 C696 1.523 . S
C696 C680 1.368 . S
C696 C692 1.368 . S
C696 C695 1.523 . S
H697 C672 0.950 . S
H698 C674 0.950 . S
H699 C675 0.949 . S
H700 C677 0.950 . S
H701 C679 0.950 . S
C702 C703 1.349 . S
C702 C704 1.327 . S
C702 H727 0.950 . S
C703 C702 1.349 . S
C703 C719 1.349 . S
C704 C702 1.327 . S
C704 C723 1.429 . S
C704 H728 0.950 . S
C705 C722 1.574 . S
C705 C724 1.368 . S
C705 H729 0.949 . S
H706 C710 0.949 . S
C707 C708 1.349 . S
C707 C709 1.327 . S
C707 H730 0.950 . S
C708 C707 1.349 . S
C708 C720 1.349 . S
C709 C707 1.327 . S
C709 C725 1.429 . S
C709 H731 0.950 . S
C710 H706 0.949 . S
C710 C718 1.574 . S
C710 C726 1.368 . S
H711 C719 0.950 . S
H712 C717 0.950 . S
H713 C718 0.949 . S
H714 C720 0.950 . S
H715 C721 0.950 . S
H716 C722 0.949 . S
C717 H712 0.950 . S
C717 C719 1.327 . S
C717 C723 1.429 . S
C718 C710 1.574 . S
C718 H713 0.949 . S
C718 C724 1.368 . S
C719 C703 1.349 . S
C719 H711 0.950 . S
C719 C717 1.327 . S
C720 C708 1.349 . S
C720 H714 0.950 . S
C720 C721 1.327 . S
C721 H715 0.950 . S
C721 C720 1.327 . S
C721 C725 1.429 . S
C722 C705 1.574 . S
C722 H716 0.949 . S
C722 C726 1.368 . S
C723 C704 1.429 . S
C723 C717 1.429 . S
C723 C724 1.523 . S
C724 C705 1.368 . S
C724 C718 1.368 . S
C724 C723 1.523 . S
C725 C709 1.429 . S
C725 C721 1.429 . S
C725 C726 1.523 . S
C726 C710 1.368 . S
C726 C722 1.368 . S
C726 C725 1.523 . S
H727 C702 0.950 . S
H728 C704 0.950 . S
H729 C705 0.949 . S
H730 C707 0.950 . S
H731 C709 0.950 . S
C732 C733 1.349 . S
C732 C734 1.327 . S
C732 H757 0.950 . S
C733 C732 1.349 . S
C733 C749 1.349 . S
C734 C732 1.327 . S
C734 C753 1.429 . S
C734 H758 0.950 . S
C735 C752 1.574 . S
C735 C754 1.368 . S
C735 H759 0.949 . S
H736 C740 0.949 . S
C737 C738 1.349 . S
C737 C739 1.327 . S
C737 H760 0.950 . S
C738 C737 1.349 . S
C738 C750 1.349 . S
C739 C737 1.327 . S
C739 C755 1.429 . S
C739 H761 0.950 . S
C740 H736 0.949 . S
C740 C748 1.574 . S
C740 C756 1.368 . S
H741 C749 0.950 . S
H742 C747 0.950 . S
H743 C748 0.949 . S
H744 C750 0.950 . S
H745 C751 0.950 . S
H746 C752 0.949 . S
C747 H742 0.950 . S
C747 C749 1.327 . S
C747 C753 1.429 . S
C748 C740 1.574 . S
C748 H743 0.949 . S
C748 C754 1.368 . S
C749 C733 1.349 . S
C749 H741 0.950 . S
C749 C747 1.327 . S
C750 C738 1.349 . S
C750 H744 0.950 . S
C750 C751 1.327 . S
C751 H745 0.950 . S
C751 C750 1.327 . S
C751 C755 1.429 . S
C752 C735 1.574 . S
C752 H746 0.949 . S
C752 C756 1.368 . S
C753 C734 1.429 . S
C753 C747 1.429 . S
C753 C754 1.523 . S
C754 C735 1.368 . S
C754 C748 1.368 . S
C754 C753 1.523 . S
C755 C739 1.429 . S
C755 C751 1.429 . S
C755 C756 1.523 . S
C756 C740 1.368 . S
C756 C752 1.368 . S
C756 C755 1.523 . S
H757 C732 0.950 . S
H758 C734 0.950 . S
H759 C735 0.949 . S
H760 C737 0.950 . S
H761 C739 0.950 . S
C762 C763 1.349 . S
C762 C764 1.327 . S
C762 H787 0.950 . S
C763 C762 1.349 . S
C763 C779 1.349 . S
C764 C762 1.327 . S
C764 C783 1.429 . S
C764 H788 0.950 . S
C765 C782 1.574 . S
C765 C784 1.368 . S
C765 H789 0.949 . S
H766 C770 0.949 . S
C767 C768 1.349 . S
C767 C769 1.327 . S
C767 H790 0.950 . S
C768 C767 1.349 . S
C768 C780 1.349 . S
C769 C767 1.327 . S
C769 C785 1.429 . S
C769 H791 0.950 . S
C770 H766 0.949 . S
C770 C778 1.574 . S
C770 C786 1.368 . S
H771 C779 0.950 . S
H772 C777 0.950 . S
H773 C778 0.949 . S
H774 C780 0.950 . S
H775 C781 0.950 . S
H776 C782 0.949 . S
C777 H772 0.950 . S
C777 C779 1.327 . S
C777 C783 1.429 . S
C778 C770 1.574 . S
C778 H773 0.949 . S
C778 C784 1.368 . S
C779 C763 1.349 . S
C779 H771 0.950 . S
C779 C777 1.327 . S
C780 C768 1.349 . S
C780 H774 0.950 . S
C780 C781 1.327 . S
C781 H775 0.950 . S
C781 C780 1.327 . S
C781 C785 1.429 . S
C782 C765 1.574 . S
C782 H776 0.949 . S
C782 C786 1.368 . S
C783 C764 1.429 . S
C783 C777 1.429 . S
C783 C784 1.523 . S
C784 C765 1.368 . S
C784 C778 1.368 . S
C784 C783 1.523 . S
C785 C769 1.429 . S
C785 C781 1.429 . S
C785 C786 1.523 . S
C786 C770 1.368 . S
C786 C782 1.368 . S
C786 C785 1.523 . S
H787 C762 0.950 . S
H788 C764 0.950 . S
H789 C765 0.949 . S
H790 C767 0.950 . S
H791 C769 0.950 . S
C792 C793 1.349 . S
C792 C794 1.327 . S
C792 H817 0.950 . S
C793 C792 1.349 . S
C793 C809 1.349 . S
C794 C792 1.327 . S
C794 C813 1.429 . S
C794 H818 0.950 . S
C795 C812 1.574 . S
C795 C814 1.368 . S
C795 H819 0.949 . S
H796 C800 0.949 . S
C797 C798 1.349 . S
C797 C799 1.327 . S
C797 H820 0.950 . S
C798 C797 1.349 . S
C798 C810 1.349 . S
C799 C797 1.327 . S
C799 C815 1.429 . S
C799 H821 0.950 . S
C800 H796 0.949 . S
C800 C808 1.574 . S
C800 C816 1.368 . S
H801 C809 0.950 . S
H802 C807 0.950 . S
H803 C808 0.949 . S
H804 C810 0.950 . S
H805 C811 0.950 . S
H806 C812 0.949 . S
C807 H802 0.950 . S
C807 C809 1.327 . S
C807 C813 1.429 . S
C808 C800 1.574 . S
C808 H803 0.949 . S
C808 C814 1.368 . S
C809 C793 1.349 . S
C809 H801 0.950 . S
C809 C807 1.327 . S
C810 C798 1.349 . S
C810 H804 0.950 . S
C810 C811 1.327 . S
C811 H805 0.950 . S
C811 C810 1.327 . S
C811 C815 1.429 . S
C812 C795 1.574 . S
C812 H806 0.949 . S
C812 C816 1.368 . S
C813 C794 1.429 . S
C813 C807 1.429 . S
C813 C814 1.523 . S
C814 C795 1.368 . S
C814 C808 1.368 . S
C814 C813 1.523 . S
C815 C799 1.429 . S
C815 C811 1.429 . S
C815 C816 1.523 . S
C816 C800 1.368 . S
C816 C812 1.368 . S
C816 C815 1.523 . S
H817 C792 0.950 . S
H818 C794 0.950 . S
H819 C795 0.949 . S
H820 C797 0.950 . S
H821 C799 0.950 . S
C822 C823 1.349 . S
C822 C824 1.327 . S
C822 H847 0.950 . S
C823 C822 1.349 . S
C823 C839 1.349 . S
C824 C822 1.327 . S
C824 C843 1.429 . S
C824 H848 0.950 . S
C825 C842 1.574 . S
C825 C844 1.368 . S
C825 H849 0.949 . S
H826 C830 0.949 . S
C827 C828 1.349 . S
C827 C829 1.327 . S
C827 H850 0.950 . S
C828 C827 1.349 . S
C828 C840 1.349 . S
C829 C827 1.327 . S
C829 C845 1.429 . S
C829 H851 0.950 . S
C830 H826 0.949 . S
C830 C838 1.574 . S
C830 C846 1.368 . S
H831 C839 0.950 . S
H832 C837 0.950 . S
H833 C838 0.949 . S
H834 C840 0.950 . S
H835 C841 0.950 . S
H836 C842 0.949 . S
C837 H832 0.950 . S
C837 C839 1.327 . S
C837 C843 1.429 . S
C838 C830 1.574 . S
C838 H833 0.949 . S
C838 C844 1.368 . S
C839 C823 1.349 . S
C839 H831 0.950 . S
C839 C837 1.327 . S
C840 C828 1.349 . S
C840 H834 0.950 . S
C840 C841 1.327 . S
C841 H835 0.950 . S
C841 C840 1.327 . S
C841 C845 1.429 . S
C842 C825 1.574 . S
C842 H836 0.949 . S
C842 C846 1.368 . S
C843 C824 1.429 . S
C843 C837 1.429 . S
C843 C844 1.523 . S
C844 C825 1.368 . S
C844 C838 1.368 . S
C844 C843 1.523 . S
C845 C829 1.429 . S
C845 C841 1.429 . S
C845 C846 1.523 . S
C846 C830 1.368 . S
C846 C842 1.368 . S
C846 C845 1.523 . S
H847 C822 0.950 . S
H848 C824 0.950 . S
H849 C825 0.949 . S
H850 C827 0.950 . S
H851 C829 0.950 . S
C852 C853 1.349 . S
C852 C854 1.327 . S
C852 H877 0.950 . S
C853 C852 1.349 . S
C853 C869 1.349 . S
C854 C852 1.327 . S
C854 C873 1.429 . S
C854 H878 0.950 . S
C855 C872 1.574 . S
C855 C874 1.368 . S
C855 H879 0.949 . S
H856 C860 0.949 . S
C857 C858 1.349 . S
C857 C859 1.327 . S
C857 H880 0.950 . S
C858 C857 1.349 . S
C858 C870 1.349 . S
C859 C857 1.327 . S
C859 C875 1.429 . S
C859 H881 0.950 1_556 S
C860 H856 0.949 . S
C860 C868 1.574 . S
C860 C876 1.368 . S
H861 C869 0.950 . S
H862 C867 0.950 . S
H863 C868 0.949 . S
H864 C870 0.950 . S
H865 C871 0.950 . S
H866 C872 0.949 . S
C867 H862 0.950 . S
C867 C869 1.327 . S
C867 C873 1.429 . S
C868 C860 1.574 . S
C868 H863 0.949 . S
C868 C874 1.368 . S
C869 C853 1.349 . S
C869 H861 0.950 . S
C869 C867 1.327 . S
C870 C858 1.349 . S
C870 H864 0.950 . S
C870 C871 1.327 . S
C871 H865 0.950 . S
C871 C870 1.327 . S
C871 C875 1.429 . S
C872 C855 1.574 . S
C872 H866 0.949 . S
C872 C876 1.368 . S
C873 C854 1.429 . S
C873 C867 1.429 . S
C873 C874 1.523 . S
C874 C855 1.368 . S
C874 C868 1.368 . S
C874 C873 1.523 . S
C875 C859 1.429 . S
C875 C871 1.429 . S
C875 C876 1.523 1_556 S
C876 C860 1.368 . S
C876 C872 1.368 . S
C876 C875 1.523 1_554 S
H877 C852 0.950 . S
H878 C854 0.950 . S
H879 C855 0.949 . S
H880 C857 0.950 . S
H881 C859 0.950 1_554 S
C882 C883 1.349 . S
C882 C884 1.327 . S
C882 H907 0.950 . S
C883 C882 1.349 . S
C883 C899 1.349 . S
C884 C882 1.327 . S
C884 C903 1.429 . S
C884 H908 0.950 . S
C885 C902 1.574 . S
C885 C904 1.368 . S
C885 H909 0.949 . S
H886 C890 0.949 . S
C887 C888 1.349 . S
C887 C889 1.327 . S
C887 H910 0.950 . S
C888 C887 1.349 . S
C888 C900 1.349 . S
C889 C887 1.327 . S
C889 C905 1.429 . S
C889 H911 0.950 . S
C890 H886 0.949 . S
C890 C898 1.574 . S
C890 C906 1.368 . S
H891 C899 0.950 . S
H892 C897 0.950 . S
H893 C898 0.949 . S
H894 C900 0.950 . S
H895 C901 0.950 . S
H896 C902 0.949 . S
C897 H892 0.950 . S
C897 C899 1.327 . S
C897 C903 1.429 . S
C898 C890 1.574 . S
C898 H893 0.949 . S
C898 C904 1.368 . S
C899 C883 1.349 . S
C899 H891 0.950 . S
C899 C897 1.327 . S
C900 C888 1.349 . S
C900 H894 0.950 . S
C900 C901 1.327 . S
C901 H895 0.950 . S
C901 C900 1.327 . S
C901 C905 1.429 . S
C902 C885 1.574 . S
C902 H896 0.949 . S
C902 C906 1.368 . S
C903 C884 1.429 . S
C903 C897 1.429 . S
C903 C904 1.523 . S
C904 C885 1.368 . S
C904 C898 1.368 . S
C904 C903 1.523 . S
C905 C889 1.429 . S
C905 C901 1.429 . S
C905 C906 1.523 . S
C906 C890 1.368 . S
C906 C902 1.368 . S
C906 C905 1.523 . S
H907 C882 0.950 . S
H908 C884 0.950 . S
H909 C885 0.949 . S
H910 C887 0.950 . S
H911 C889 0.950 . S
C198 C185 1.567 . S
C193 C8 1.525 . S
C223 C26 1.419 . S
C228 C119 1.451 . S
C253 C50 1.348 . S
C258 C133 1.381 . S
C283 C68 1.401 . S
C288 C147 1.438 . S
C318 C161 1.454 . S
C313 C80 1.423 . S
C343 C104 1.460 . S
C348 C171 1.504 . S
C373 C32 1.523 . S
C378 C129 1.569 . S
C403 C44 1.579 . S
C408 C143 1.628 . S
C433 C62 1.500 . S
C438 C157 1.547 . S
C468 C175 1.440 . S
C463 C86 1.405 1_554 S
C498 C189 1.495 . S
C493 C98 1.459 . S
C528 C115 1.549 . S
C523 C14 1.505 . S
C553 C7 1.470 . S
C558 C130 1.457 . S
C583 C25 1.548 . S
C588 C144 1.538 . S
C618 C158 1.542 . S
C613 C52 1.555 . S
C643 C70 1.444 . S
C648 C177 1.416 . S
C678 C191 1.390 . S
C673 C79 1.419 . S
C708 C116 1.436 . S
C703 C106 1.450 . S
C738 C186 1.432 . S
C733 C34 1.446 . S
C763 C43 1.333 . S
C768 C121 1.312 . S
C798 C135 1.326 . S
C793 C61 1.344 . S
C823 C88 1.423 . S
C828 C149 1.397 . S
C853 C97 1.436 . S
C858 C163 1.409 . S
C883 C16 1.477 . S
C888 C172 1.460 . S
