# Generated by pormake.
# Topology the, (3,8)-cn, num edge types: 1
# Building blocks:
#     Node 0, Type 0, BuildingBlock: VETTIZ_charged_linker_0, # of connection points: 3
#     Node 1, Type 0, BuildingBlock: VETTIZ_charged_linker_0, # of connection points: 3
#     Node 2, Type 0, BuildingBlock: VETTIZ_charged_linker_0, # of connection points: 3
#     Node 3, Type 0, BuildingBlock: VETTIZ_charged_linker_0, # of connection points: 3
#     Node 4, Type 0, BuildingBlock: VETTIZ_charged_linker_0, # of connection points: 3
#     Node 5, Type 0, BuildingBlock: VETTIZ_charged_linker_0, # of connection points: 3
#     Node 6, Type 0, BuildingBlock: VETTIZ_charged_linker_0, # of connection points: 3
#     Node 7, Type 0, BuildingBlock: VETTIZ_charged_linker_0, # of connection points: 3
#     Node 8, Type 1, BuildingBlock: GIZVER_clean_sbu_0, # of connection points: 8
#     Node 9, Type 1, BuildingBlock: GIZVER_clean_sbu_0, # of connection points: 8
#     Node 10, Type 1, BuildingBlock: GIZVER_clean_sbu_0, # of connection points: 8
#     Edge 11, Type (0, 1), BuildingBlock: CIFDUS_clean_linker_0, # of connection points: 2
#     Edge 12, Type (0, 1), BuildingBlock: CIFDUS_clean_linker_0, # of connection points: 2
#     Edge 13, Type (0, 1), BuildingBlock: CIFDUS_clean_linker_0, # of connection points: 2
#     Edge 14, Type (0, 1), BuildingBlock: CIFDUS_clean_linker_0, # of connection points: 2
#     Edge 15, Type (0, 1), BuildingBlock: CIFDUS_clean_linker_0, # of connection points: 2
#     Edge 16, Type (0, 1), BuildingBlock: CIFDUS_clean_linker_0, # of connection points: 2
#     Edge 17, Type (0, 1), BuildingBlock: CIFDUS_clean_linker_0, # of connection points: 2
#     Edge 18, Type (0, 1), BuildingBlock: CIFDUS_clean_linker_0, # of connection points: 2
#     Edge 19, Type (0, 1), BuildingBlock: CIFDUS_clean_linker_0, # of connection points: 2
#     Edge 20, Type (0, 1), BuildingBlock: CIFDUS_clean_linker_0, # of connection points: 2
#     Edge 21, Type (0, 1), BuildingBlock: CIFDUS_clean_linker_0, # of connection points: 2
#     Edge 22, Type (0, 1), BuildingBlock: CIFDUS_clean_linker_0, # of connection points: 2
#     Edge 23, Type (0, 1), BuildingBlock: CIFDUS_clean_linker_0, # of connection points: 2
#     Edge 24, Type (0, 1), BuildingBlock: CIFDUS_clean_linker_0, # of connection points: 2
#     Edge 25, Type (0, 1), BuildingBlock: CIFDUS_clean_linker_0, # of connection points: 2
#     Edge 26, Type (0, 1), BuildingBlock: CIFDUS_clean_linker_0, # of connection points: 2
#     Edge 27, Type (0, 1), BuildingBlock: CIFDUS_clean_linker_0, # of connection points: 2
#     Edge 28, Type (0, 1), BuildingBlock: CIFDUS_clean_linker_0, # of connection points: 2
#     Edge 29, Type (0, 1), BuildingBlock: CIFDUS_clean_linker_0, # of connection points: 2
#     Edge 30, Type (0, 1), BuildingBlock: CIFDUS_clean_linker_0, # of connection points: 2
#     Edge 31, Type (0, 1), BuildingBlock: CIFDUS_clean_linker_0, # of connection points: 2
#     Edge 32, Type (0, 1), BuildingBlock: CIFDUS_clean_linker_0, # of connection points: 2
#     Edge 33, Type (0, 1), BuildingBlock: CIFDUS_clean_linker_0, # of connection points: 2
#     Edge 34, Type (0, 1), BuildingBlock: CIFDUS_clean_linker_0, # of connection points: 2
# Relax obj value: 0.047
# Max RMSD: 0.138
# Mean RMSD: 0.070
data_MOF--net-the--node1-GIZVER_clean_sbu_0--node2-VETTIZ_charged_linker_0--edge1-CIFDUS_clean_linker_0
_symmetry_space_group_name_H-M    P1
_symmetry_Int_Tables_number       1
_symmetry_cell_setting            triclinic
loop_
_symmetry_equiv_pos_as_xyz
'x, y, z'
_cell_length_a     44.931616
_cell_length_b     42.529134
_cell_length_c     39.326674
_cell_angle_alpha  86.567925
_cell_angle_beta   94.782581
_cell_angle_gamma 102.57241
loop_
_atom_site_label
_atom_site_type_symbol
_atom_site_fract_x
_atom_site_fract_y
_atom_site_fract_z
_atom_type_partial_charge
C0 C 0.34807 0.24534 0.44359 0.0
C1 C 0.37596 0.2384 0.43629 0.0
C2 C 0.39554 0.26034 0.41545 0.0
C3 C 0.35883 0.29465 0.40818 0.0
C4 C 0.34007 0.27357 0.42943 0.0
C5 C 0.3112 0.28451 0.43444 0.0
H6 H 0.22384 0.39479 0.40051 0.0
C7 C 0.34325 0.32093 0.39656 0.0
C8 C 0.31543 0.31522 0.41205 0.0
H9 H 0.206 0.30949 0.46739 0.0
H10 H 0.25268 0.29549 0.45278 0.0
H11 H 0.24346 0.36128 0.34045 0.0
H12 H 0.29639 0.41654 0.42118 0.0
H13 H 0.31343 0.42988 0.38266 0.0
H14 H 0.27471 0.43327 0.38706 0.0
H15 H 0.2523 0.4045 0.33777 0.0
H16 H 0.27749 0.38126 0.32294 0.0
C17 C 0.2837 0.25849 0.42084 0.0
C18 C 0.31114 0.29129 0.47274 0.0
C19 C 0.38897 0.40493 0.30739 0.0
C20 C 0.37773 0.42965 0.28879 0.0
C21 C 0.35014 0.43683 0.29708 0.0
C22 C 0.33355 0.4191 0.3231 0.0
C23 C 0.34445 0.3936 0.34064 0.0
C24 C 0.37185 0.38702 0.33285 0.0
C25 C 0.37891 0.35782 0.35266 0.0
C26 C 0.35108 0.34779 0.37335 0.0
C27 C 0.33115 0.36894 0.36634 0.0
C28 C 0.38057 0.33221 0.32681 0.0
C29 C 0.40865 0.36871 0.37571 0.0
C30 C 0.23017 0.37319 0.41212 0.0
C31 C 0.2117 0.35336 0.43542 0.0
C32 C 0.22008 0.32505 0.44941 0.0
C33 C 0.24721 0.31714 0.44103 0.0
C34 C 0.26586 0.33768 0.41824 0.0
C35 C 0.25698 0.36494 0.4039 0.0
C36 C 0.27905 0.38352 0.3795 0.0
C37 C 0.30332 0.36356 0.38248 0.0
C38 C 0.29548 0.33679 0.40513 0.0
C39 C 0.26238 0.38293 0.34327 0.0
C40 C 0.29156 0.41773 0.39297 0.0
H41 H 0.40281 0.30394 0.38537 0.0
H42 H 0.33278 0.2291 0.45988 0.0
H43 H 0.33474 0.30098 0.48383 0.0
H44 H 0.29831 0.3099 0.47707 0.0
H45 H 0.30171 0.26891 0.48778 0.0
H46 H 0.28929 0.24767 0.39774 0.0
H47 H 0.2774 0.23866 0.44034 0.0
H48 H 0.26332 0.26828 0.4125 0.0
H49 H 0.40982 0.39852 0.30098 0.0
H50 H 0.34115 0.4558 0.28292 0.0
H51 H 0.31254 0.42548 0.32801 0.0
H52 H 0.36324 0.33251 0.30493 0.0
H53 H 0.40341 0.33693 0.31634 0.0
H54 H 0.37534 0.30729 0.33772 0.0
H55 H 0.41022 0.3933 0.38492 0.0
H56 H 0.40968 0.35325 0.39919 0.0
H57 H 0.4292 0.36942 0.36158 0.0
H58 H 0.41704 0.25532 0.40926 0.0
C59 C 0.38714 0.28843 0.4014 0.0
C60 C 0.65775 0.22251 0.37573 0.0
C61 C 0.62779 0.20554 0.36661 0.0
C62 C 0.6111 0.21805 0.33897 0.0
C63 C 0.65338 0.26376 0.3312 0.0
C64 C 0.66984 0.25151 0.35803 0.0
C65 C 0.70047 0.27338 0.36603 0.0
H66 H 0.80594 0.40933 0.33285 0.0
C67 C 0.67224 0.29488 0.31904 0.0
C68 C 0.69978 0.30072 0.33938 0.0
H69 H 0.80772 0.33554 0.41356 0.0
H70 H 0.75879 0.30699 0.39292 0.0
H71 H 0.73194 0.41115 0.34215 0.0
H72 H 0.77043 0.36058 0.27001 0.0
H73 H 0.74443 0.38279 0.24954 0.0
H74 H 0.77936 0.40387 0.27093 0.0
H75 H 0.75655 0.43256 0.31075 0.0
H76 H 0.71657 0.41684 0.3 0.0
C77 C 0.70124 0.28479 0.40297 0.0
C78 C 0.72546 0.25465 0.36017 0.0
C79 C 0.62771 0.35776 0.22218 0.0
C80 C 0.63693 0.38833 0.20613 0.0
C81 C 0.6667 0.40627 0.21485 0.0
C82 C 0.68617 0.39438 0.24029 0.0
C83 C 0.67575 0.36428 0.25728 0.0
C84 C 0.64697 0.34654 0.24757 0.0
C85 C 0.63849 0.31572 0.26842 0.0
C86 C 0.66676 0.31749 0.29253 0.0
C87 C 0.6889 0.34589 0.28621 0.0
C88 C 0.60992 0.31701 0.28757 0.0
C89 C 0.63398 0.28736 0.24418 0.0
C90 C 0.79577 0.38703 0.34607 0.0
C91 C 0.81185 0.37441 0.37444 0.0
C92 C 0.79712 0.34545 0.39087 0.0
C93 C 0.76815 0.32887 0.37908 0.0
C94 C 0.75275 0.34128 0.35071 0.0
C95 C 0.76617 0.37011 0.33478 0.0
C96 C 0.74491 0.37994 0.30598 0.0
C97 C 0.71714 0.35182 0.30702 0.0
C98 C 0.72224 0.32932 0.33342 0.0
C99 C 0.73707 0.41193 0.31489 0.0
C100 C 0.76053 0.38212 0.27218 0.0
H101 H 0.60964 0.25494 0.30066 0.0
H102 H 0.67158 0.21371 0.39647 0.0
H103 H 0.71891 0.2399 0.33721 0.0
H104 H 0.74769 0.27055 0.35508 0.0
H105 H 0.72878 0.23802 0.38235 0.0
H106 H 0.67785 0.28418 0.41071 0.0
H107 H 0.71189 0.26925 0.42178 0.0
H108 H 0.71337 0.31022 0.40567 0.0
H109 H 0.60529 0.34297 0.21583 0.0
H110 H 0.6745 0.42992 0.2029 0.0
H111 H 0.70834 0.40926 0.24625 0.0
H112 H 0.60931 0.34223 0.29302 0.0
H113 H 0.58844 0.30687 0.27223 0.0
H114 H 0.60972 0.30437 0.31296 0.0
H115 H 0.6509 0.29271 0.22437 0.0
H116 H 0.63774 0.26475 0.2574 0.0
H117 H 0.61079 0.28285 0.23078 0.0
H118 H 0.5878 0.20617 0.33158 0.0
C119 C 0.62374 0.24678 0.32118 0.0
C120 C 0.80764 0.71037 0.38014 0.0
C121 C 0.81985 0.6852 0.36936 0.0
C122 C 0.80802 0.6706 0.33846 0.0
C123 C 0.77003 0.70338 0.33146 0.0
C124 C 0.78266 0.71899 0.3608 0.0
C125 C 0.76535 0.7437 0.36941 0.0
H126 H 0.64353 0.81344 0.33733 0.0
C127 C 0.74277 0.71592 0.31889 0.0
C128 C 0.74012 0.73994 0.34065 0.0
H129 H 0.71584 0.83278 0.41801 0.0
H130 H 0.74088 0.79479 0.39556 0.0
H131 H 0.63725 0.73474 0.34198 0.0
H132 H 0.68664 0.80991 0.2765 0.0
H133 H 0.67023 0.77663 0.25165 0.0
H134 H 0.64574 0.7973 0.27178 0.0
H135 H 0.6184 0.7582 0.31124 0.0
H136 H 0.63056 0.72308 0.29933 0.0
C137 C 0.75246 0.73373 0.40476 0.0
C138 C 0.78716 0.77735 0.36764 0.0
C139 C 0.67228 0.65995 0.22293 0.0
C140 C 0.64446 0.66447 0.20661 0.0
C141 C 0.63292 0.6912 0.21459 0.0
C142 C 0.64823 0.71222 0.23983 0.0
C143 C 0.67538 0.70646 0.25716 0.0
C144 C 0.68738 0.68121 0.24777 0.0
C145 C 0.71678 0.67904 0.26799 0.0
C146 C 0.72008 0.7065 0.29191 0.0
C147 C 0.69559 0.72228 0.28588 0.0
C148 C 0.71196 0.64574 0.28751 0.0
C149 C 0.74269 0.68519 0.2431 0.0
C150 C 0.66468 0.80937 0.35028 0.0
C151 C 0.67765 0.82628 0.37958 0.0
C152 C 0.7055 0.82055 0.39519 0.0
C153 C 0.71993 0.79821 0.38225 0.0
C154 C 0.70637 0.78108 0.35345 0.0
C155 C 0.67932 0.78693 0.33776 0.0
C156 C 0.6682 0.7662 0.30754 0.0
C157 C 0.69308 0.74702 0.30767 0.0
C158 C 0.71528 0.75578 0.33481 0.0
C159 C 0.63686 0.74443 0.31507 0.0
C160 C 0.66737 0.78848 0.27504 0.0
H161 H 0.77499 0.66705 0.29656 0.0
H162 H 0.81626 0.72185 0.40389 0.0
H163 H 0.80393 0.77857 0.34806 0.0
H164 H 0.77506 0.79689 0.35968 0.0
H165 H 0.80031 0.78294 0.39252 0.0
H166 H 0.74442 0.70709 0.40746 0.0
H167 H 0.77022 0.7412 0.42581 0.0
H168 H 0.73228 0.74355 0.40872 0.0
H169 H 0.68175 0.63973 0.217 0.0
H170 H 0.61145 0.69504 0.20227 0.0
H171 H 0.638 0.73172 0.24542 0.0
H172 H 0.68908 0.63961 0.29807 0.0
H173 H 0.71324 0.62637 0.27031 0.0
H174 H 0.72843 0.64488 0.30975 0.0
H175 H 0.73727 0.70012 0.22016 0.0
H176 H 0.76456 0.69912 0.25463 0.0
H177 H 0.74643 0.6622 0.23404 0.0
H178 H 0.81733 0.65133 0.32962 0.0
C179 C 0.78335 0.67967 0.31938 0.0
C180 C 0.37001 0.79878 0.36672 0.0
C181 C 0.3608 0.81019 0.3964 0.0
C182 C 0.33471 0.79121 0.41127 0.0
C183 C 0.32803 0.75176 0.36755 0.0
C184 C 0.35398 0.76941 0.3535 0.0
C185 C 0.36342 0.7522 0.32514 0.0
H186 H 0.34124 0.61836 0.23274 0.0
C187 C 0.31686 0.7223 0.34783 0.0
C188 C 0.33787 0.7222 0.32327 0.0
H189 H 0.4181 0.69973 0.23467 0.0
H190 H 0.39319 0.72659 0.27258 0.0
H191 H 0.32981 0.61421 0.31357 0.0
H192 H 0.29098 0.65938 0.22539 0.0
H193 H 0.26272 0.65256 0.25489 0.0
H194 H 0.27482 0.61872 0.23889 0.0
H195 H 0.30755 0.59342 0.27835 0.0
H196 H 0.28947 0.60445 0.31339 0.0
C197 C 0.39494 0.74407 0.33647 0.0
C198 C 0.36323 0.77362 0.29196 0.0
C199 C 0.2163 0.64454 0.37296 0.0
C200 C 0.19944 0.61674 0.35679 0.0
C201 C 0.21048 0.60742 0.32716 0.0
C202 C 0.23824 0.62401 0.31507 0.0
C203 C 0.25534 0.65071 0.33228 0.0
C204 C 0.24392 0.6613 0.36001 0.0
C205 C 0.26457 0.69161 0.3734 0.0
C206 C 0.29019 0.69713 0.3492 0.0
C207 C 0.28489 0.67252 0.32573 0.0
C208 C 0.27612 0.68437 0.41065 0.0
C209 C 0.24645 0.71881 0.36945 0.0
C210 C 0.35258 0.64208 0.24106 0.0
C211 C 0.382 0.65657 0.2311 0.0
C212 C 0.39581 0.68759 0.24254 0.0
C213 C 0.38133 0.70319 0.26462 0.0
C214 C 0.35268 0.68767 0.27572 0.0
C215 C 0.33848 0.65794 0.26338 0.0
C216 C 0.30783 0.64535 0.27763 0.0
C217 C 0.30695 0.67148 0.30214 0.0
C218 C 0.33323 0.69625 0.30082 0.0
C219 C 0.30843 0.61253 0.29668 0.0
C220 C 0.28269 0.64367 0.24781 0.0
H221 H 0.2988 0.74947 0.4096 0.0
H222 H 0.38952 0.81189 0.3538 0.0
H223 H 0.3423 0.7838 0.28893 0.0
H224 H 0.36293 0.76011 0.26877 0.0
H225 H 0.38338 0.79409 0.29243 0.0
H226 H 0.39902 0.7429 0.36478 0.0
H227 H 0.41396 0.76254 0.32632 0.0
H228 H 0.39669 0.72002 0.32868 0.0
H229 H 0.20867 0.6527 0.39561 0.0
H230 H 0.19768 0.58704 0.31316 0.0
H231 H 0.24547 0.61517 0.29289 0.0
H232 H 0.27894 0.659 0.41427 0.0
H233 H 0.25978 0.68794 0.42901 0.0
H234 H 0.29897 0.69917 0.4178 0.0
H235 H 0.23355 0.71835 0.34401 0.0
H236 H 0.26118 0.74313 0.37081 0.0
H237 H 0.22968 0.71584 0.38925 0.0
H238 H 0.32712 0.79774 0.43469 0.0
C239 C 0.31823 0.76255 0.39686 0.0
C240 C 0.38578 0.65133 0.81621 0.0
C241 C 0.37211 0.62288 0.83405 0.0
C242 C 0.34155 0.60814 0.82358 0.0
C243 C 0.33988 0.64947 0.77821 0.0
C244 C 0.36932 0.66425 0.78916 0.0
C245 C 0.38091 0.69492 0.76912 0.0
H246 H 0.36828 0.79712 0.63396 0.0
C247 C 0.32994 0.6691 0.74847 0.0
C248 C 0.35393 0.69589 0.7435 0.0
H249 H 0.44106 0.80161 0.71397 0.0
H250 H 0.41238 0.75546 0.74291 0.0
H251 H 0.31262 0.77982 0.68805 0.0
H252 H 0.35131 0.7186 0.62852 0.0
H253 H 0.31105 0.70748 0.62396 0.0
H254 H 0.33 0.74708 0.60933 0.0
H255 H 0.30507 0.77826 0.64255 0.0
H256 H 0.28287 0.74949 0.67128 0.0
C257 C 0.3867 0.72315 0.79387 0.0
C258 C 0.4095 0.69088 0.75165 0.0
C259 C 0.22756 0.63037 0.68117 0.0
C260 C 0.2127 0.64276 0.65196 0.0
C261 C 0.2275 0.67242 0.63679 0.0
C262 C 0.25636 0.68899 0.64992 0.0
C263 C 0.27093 0.67606 0.67877 0.0
C264 C 0.25637 0.64733 0.6941 0.0
C265 C 0.27501 0.63743 0.72497 0.0
C266 C 0.30318 0.66478 0.72556 0.0
C267 C 0.3008 0.6874 0.69823 0.0
C268 C 0.25675 0.63666 0.75679 0.0
C269 C 0.28279 0.60477 0.71825 0.0
C270 C 0.37767 0.78821 0.65796 0.0
C271 C 0.40737 0.80266 0.67132 0.0
C272 C 0.41863 0.79057 0.70274 0.0
C273 C 0.40181 0.76367 0.71968 0.0
C274 C 0.37308 0.74832 0.70537 0.0
C275 C 0.36089 0.76097 0.67555 0.0
C276 C 0.32933 0.74138 0.66533 0.0
C277 C 0.32531 0.71465 0.69344 0.0
C278 C 0.35135 0.71892 0.7164 0.0
C279 C 0.30609 0.76324 0.66655 0.0
C280 C 0.33017 0.72796 0.62982 0.0
H281 H 0.30252 0.60863 0.78899 0.0
H282 H 0.40923 0.66336 0.82252 0.0
H283 H 0.40634 0.66602 0.74253 0.0
H284 H 0.41414 0.70678 0.72863 0.0
H285 H 0.43019 0.69521 0.76971 0.0
H286 H 0.37288 0.71694 0.81649 0.0
H287 H 0.4111 0.7296 0.80354 0.0
H288 H 0.3797 0.74493 0.78194 0.0
H289 H 0.21731 0.6076 0.69349 0.0
H290 H 0.21666 0.6831 0.61477 0.0
H291 H 0.26629 0.71128 0.63703 0.0
H292 H 0.24382 0.65631 0.75477 0.0
H293 H 0.24001 0.61339 0.75963 0.0
H294 H 0.27162 0.64083 0.78061 0.0
H295 H 0.28991 0.60483 0.69181 0.0
H296 H 0.30204 0.59943 0.73519 0.0
H297 H 0.26263 0.58464 0.72115 0.0
H298 H 0.32985 0.58659 0.83692 0.0
C299 C 0.32551 0.62113 0.79577 0.0
C300 C 0.24147 0.33717 0.63203 0.0
C301 C 0.23095 0.36326 0.64343 0.0
C302 C 0.24179 0.37519 0.67579 0.0
C303 C 0.27479 0.33689 0.68412 0.0
C304 C 0.26356 0.3245 0.65273 0.0
C305 C 0.27906 0.29823 0.64395 0.0
H306 H 0.38987 0.2131 0.68276 0.0
C307 C 0.29899 0.32015 0.69831 0.0
C308 C 0.30165 0.29738 0.67495 0.0
H309 H 0.32506 0.20551 0.59439 0.0
H310 H 0.30158 0.2453 0.61636 0.0
H311 H 0.4037 0.29035 0.68445 0.0
H312 H 0.34097 0.21676 0.73837 0.0
H313 H 0.35866 0.24627 0.76738 0.0
H314 H 0.38163 0.22365 0.74758 0.0
H315 H 0.41645 0.26467 0.71787 0.0
H316 H 0.40533 0.30135 0.72703 0.0
C317 C 0.29547 0.30915 0.61078 0.0
C318 C 0.25461 0.26643 0.64135 0.0
C319 C 0.35884 0.35645 0.80971 0.0
C320 C 0.38458 0.34828 0.82803 0.0
C321 C 0.39637 0.32294 0.81645 0.0
C322 C 0.38341 0.30689 0.78674 0.0
C323 C 0.35842 0.31628 0.76808 0.0
C324 C 0.34641 0.34046 0.77995 0.0
C325 C 0.3205 0.34811 0.75651 0.0
C326 C 0.31883 0.32452 0.72856 0.0
C327 C 0.34108 0.30589 0.73537 0.0
C328 C 0.32997 0.38371 0.74311 0.0
C329 C 0.29124 0.34052 0.77641 0.0
C330 C 0.37072 0.22012 0.66802 0.0
C331 C 0.35946 0.20611 0.63664 0.0
C332 C 0.33408 0.2156 0.61872 0.0
C333 C 0.32059 0.23892 0.63142 0.0
C334 C 0.33252 0.25312 0.66245 0.0
C335 C 0.35697 0.24337 0.68039 0.0
C336 C 0.36651 0.26086 0.71304 0.0
C337 C 0.34383 0.28277 0.71173 0.0
C338 C 0.32407 0.27833 0.68187 0.0
C339 C 0.39979 0.28024 0.71086 0.0
C340 C 0.36199 0.23574 0.74336 0.0
H341 H 0.27096 0.37256 0.72041 0.0
H342 H 0.23367 0.32781 0.60708 0.0
H343 H 0.2373 0.26507 0.66034 0.0
H344 H 0.26427 0.2448 0.64726 0.0
H345 H 0.24234 0.26457 0.61559 0.0
H346 H 0.3062 0.33533 0.61084 0.0
H347 H 0.27911 0.30509 0.58788 0.0
H348 H 0.31439 0.29705 0.60781 0.0
H349 H 0.34879 0.37541 0.81794 0.0
H350 H 0.41633 0.31623 0.82966 0.0
H351 H 0.39379 0.28824 0.77903 0.0
H352 H 0.35515 0.39106 0.74134 0.0
H353 H 0.32336 0.4004 0.76032 0.0
H354 H 0.32031 0.38788 0.71689 0.0
H355 H 0.29071 0.31868 0.79361 0.0
H356 H 0.27001 0.33484 0.75957 0.0
H357 H 0.29022 0.36081 0.79247 0.0
H358 H 0.23389 0.39525 0.68497 0.0
C359 C 0.26342 0.36205 0.69625 0.0
C360 C 0.65135 0.22821 0.67145 0.0
C361 C 0.66265 0.20825 0.65061 0.0
C362 C 0.69305 0.21861 0.64112 0.0
C363 C 0.69978 0.26744 0.67289 0.0
C364 C 0.67018 0.25717 0.68245 0.0
C365 C 0.66154 0.28008 0.70565 0.0
H366 H 0.70064 0.41675 0.7943 0.0
C367 C 0.71308 0.29879 0.68882 0.0
C368 C 0.69066 0.30601 0.7083 0.0
H369 H 0.61434 0.34784 0.79009 0.0
H370 H 0.63341 0.31624 0.75117 0.0
H371 H 0.70707 0.42113 0.71764 0.0
H372 H 0.74467 0.36494 0.79728 0.0
H373 H 0.77408 0.38119 0.77036 0.0
H374 H 0.75631 0.40794 0.79153 0.0
H375 H 0.74189 0.43751 0.74203 0.0
H376 H 0.74176 0.41692 0.70311 0.0
C377 C 0.63446 0.29321 0.6876 0.0
C378 C 0.65465 0.26198 0.74044 0.0
C379 C 0.82091 0.36265 0.66564 0.0
C380 C 0.8378 0.39303 0.67632 0.0
C381 C 0.82427 0.41027 0.69805 0.0
C382 C 0.79527 0.39772 0.70937 0.0
C383 C 0.77882 0.3676 0.69868 0.0
C384 C 0.79144 0.35051 0.67703 0.0
C385 C 0.76967 0.31918 0.66785 0.0
C386 C 0.74201 0.32074 0.68728 0.0
C387 C 0.74788 0.34917 0.70546 0.0
C388 C 0.76218 0.32001 0.62877 0.0
C389 C 0.78461 0.29097 0.68147 0.0
C390 C 0.68602 0.39462 0.78533 0.0
C391 C 0.65607 0.38463 0.79554 0.0
C392 C 0.6375 0.3561 0.78255 0.0
C393 C 0.64867 0.33772 0.76004 0.0
C394 C 0.67873 0.34801 0.75009 0.0
C395 C 0.6967 0.3762 0.76254 0.0
C396 C 0.72748 0.38438 0.74808 0.0
C397 C 0.72547 0.35596 0.72569 0.0
C398 C 0.69695 0.33464 0.72699 0.0
C399 C 0.72998 0.41671 0.72677 0.0
C400 C 0.75212 0.38492 0.7782 0.0
H401 H 0.73439 0.25437 0.64395 0.0
H402 H 0.62809 0.22175 0.67894 0.0
H403 H 0.67024 0.24512 0.74702 0.0
H404 H 0.65843 0.27819 0.76199 0.0
H405 H 0.63082 0.24756 0.73978 0.0
H406 H 0.63689 0.29682 0.65962 0.0
H407 H 0.61234 0.27615 0.69135 0.0
H408 H 0.63327 0.31711 0.69621 0.0
H409 H 0.83035 0.34861 0.64895 0.0
H410 H 0.83582 0.43407 0.70592 0.0
H411 H 0.78671 0.41228 0.72587 0.0
H412 H 0.75789 0.344 0.61959 0.0
H413 H 0.7815 0.31558 0.6152 0.0
H414 H 0.74129 0.30238 0.62074 0.0
H415 H 0.79696 0.29621 0.7069 0.0
H416 H 0.76773 0.26825 0.68555 0.0
H417 H 0.80138 0.28688 0.6639 0.0
H418 H 0.70281 0.20382 0.62559 0.0
C419 C 0.71155 0.24798 0.65203 0.0
C420 C 0.64368 0.59802 0.70882 0.0
C421 C 0.6169 0.60375 0.72098 0.0
C422 C 0.60099 0.62493 0.70214 0.0
C423 C 0.63955 0.63602 0.66094 0.0
C424 C 0.65438 0.61414 0.67864 0.0
C425 C 0.68213 0.61044 0.66167 0.0
H426 H 0.78145 0.65886 0.53898 0.0
C427 C 0.65765 0.65018 0.63195 0.0
C428 C 0.68246 0.63514 0.63202 0.0
H429 H 0.77721 0.57871 0.61256 0.0
H430 H 0.73331 0.5913 0.63542 0.0
H431 H 0.76534 0.70906 0.59008 0.0
H432 H 0.70718 0.64525 0.51889 0.0
H433 H 0.69845 0.68382 0.51373 0.0
H434 H 0.73601 0.67908 0.50568 0.0
H435 H 0.76474 0.71773 0.54483 0.0
H436 H 0.73775 0.72922 0.57061 0.0
C437 C 0.71041 0.61972 0.68725 0.0
C438 C 0.67645 0.57544 0.6494 0.0
C439 C 0.62805 0.74344 0.56115 0.0
C440 C 0.64271 0.76533 0.53658 0.0
C441 C 0.6704 0.76102 0.52519 0.0
C442 C 0.68329 0.73507 0.53829 0.0
C443 C 0.66858 0.71369 0.56348 0.0
C444 C 0.64148 0.71828 0.57453 0.0
C445 C 0.63032 0.69535 0.60353 0.0
C446 C 0.65486 0.67575 0.60784 0.0
C447 C 0.67708 0.68625 0.58411 0.0
C448 C 0.63009 0.71541 0.63519 0.0
C449 C 0.59879 0.67453 0.5917 0.0
C450 C 0.77091 0.64423 0.56005 0.0
C451 C 0.7825 0.61778 0.57413 0.0
C452 C 0.76835 0.59903 0.60134 0.0
C453 C 0.74288 0.60635 0.61452 0.0
C454 C 0.73117 0.63254 0.60011 0.0
C455 C 0.74491 0.6509 0.57315 0.0
C456 C 0.72825 0.67699 0.56045 0.0
C457 C 0.70195 0.67059 0.5837 0.0
C458 C 0.70425 0.64489 0.60723 0.0
C459 C 0.75004 0.71009 0.56648 0.0
C460 C 0.71692 0.6713 0.52262 0.0
H461 H 0.59932 0.65738 0.65938 0.0
H462 H 0.656 0.58139 0.72255 0.0
H463 H 0.65169 0.56387 0.64715 0.0
H464 H 0.68413 0.57456 0.62349 0.0
H465 H 0.68798 0.55997 0.66741 0.0
H466 H 0.70979 0.6422 0.70001 0.0
H467 H 0.71098 0.60038 0.70742 0.0
H468 H 0.73225 0.62472 0.67498 0.0
H469 H 0.60724 0.74683 0.57113 0.0
H470 H 0.68218 0.77794 0.5065 0.0
H471 H 0.70448 0.73302 0.52883 0.0
H472 H 0.64892 0.73728 0.63539 0.0
H473 H 0.60823 0.72356 0.63531 0.0
H474 H 0.6341 0.70235 0.65965 0.0
H475 H 0.59797 0.66911 0.56426 0.0
H476 H 0.59379 0.65068 0.6053 0.0
H477 H 0.58009 0.68721 0.5948 0.0
H478 H 0.58033 0.6297 0.71114 0.0
C479 C 0.61218 0.64112 0.67223 0.0
Co480 Co 0.07377 0.47593 0.52994 0.0
Co481 Co 0.04198 0.465 0.47037 0.0
Co482 Co 0.01275 0.51087 0.50987 0.0
O483 O 0.03169 0.47236 0.5139 0.0
H484 H 0.01844 0.45336 0.52323 0.0
O485 O 0.99308 0.5492 0.50642 0.0
Co486 Co 0.95023 0.5442 0.49034 0.0
Co487 Co 0.98141 0.55449 0.55074 0.0
H488 H 1.0061 0.56856 0.49748 0.0
O489 O 0.0535 0.42701 0.45942 0.0
O490 O 0.08334 0.47061 0.4831 0.0
O491 O 0.03954 0.49847 0.43569 0.0
O492 O 0.04109 0.53464 0.4745 0.0
O493 O 0.98272 0.48933 0.47279 0.0
O494 O 0.91225 0.54258 0.47568 0.0
O495 O 0.95034 0.58668 0.47868 0.0
O496 O 0.94414 0.49942 0.49775 0.0
O497 O 0.98454 0.48645 0.54465 0.0
O498 O 0.98182 0.51958 0.58506 0.0
O499 O 0.94024 0.54979 0.53707 0.0
O500 O 0.97026 0.59246 0.56223 0.0
C501 C 0.10056 0.4446 0.54972 0.0
C502 C 0.07209 0.538 0.54235 0.0
C503 C 0.04753 0.52723 0.4453 0.0
C504 C 0.08043 0.44282 0.46993 0.0
C505 C 0.92183 0.5733 0.46992 0.0
C506 C 0.95395 0.48488 0.4752 0.0
C507 C 0.97657 0.49137 0.57395 0.0
C508 C 0.94338 0.5776 0.55047 0.0
O509 O 0.11181 0.47531 0.54541 0.0
O510 O 0.07166 0.43328 0.54084 0.0
O511 O 0.04342 0.53299 0.54646 0.0
O512 O 0.08186 0.52096 0.52222 0.0
Co513 Co 0.54433 0.94662 0.48875 0.0
Co514 Co 0.56464 0.96618 0.55035 0.0
Co515 Co 0.51746 1.00816 0.51902 0.0
O516 O 0.55197 0.98735 0.51039 0.0
H517 H 0.56907 1.00264 0.50157 0.0
O518 O 0.48344 0.02955 0.52718 0.0
Co519 Co 0.49169 0.07265 0.54383 0.0
Co520 Co 0.4705 0.04655 0.48469 0.0
H521 H 0.46664 0.01512 0.53758 0.0
O522 O 0.60313 0.95556 0.55572 0.0
O523 O 0.55979 0.92653 0.53114 0.0
O524 O 0.53717 0.95745 0.58624 0.0
O525 O 0.49967 0.97456 0.55507 0.0
O526 O 0.54561 0.03491 0.55424 0.0
O527 O 0.49572 0.1113 0.56035 0.0
O528 O 0.45352 0.0715 0.55723 0.0
O529 O 0.53302 0.08 0.53351 0.0
O530 O 0.53446 0.04164 0.4827 0.0
O531 O 0.49479 0.04528 0.44638 0.0
O532 O 0.48036 0.08907 0.49773 0.0
O533 O 0.43445 0.0621 0.4771 0.0
C534 C 0.56806 0.9227 0.46035 0.0
C535 C 0.48521 0.9505 0.48539 0.0
C536 C 0.5091 0.95812 0.58042 0.0
C537 C 0.58854 0.92948 0.54119 0.0
C538 C 0.46718 0.10051 0.56629 0.0
C539 C 0.55119 0.06569 0.55157 0.0
C540 C 0.52342 0.05037 0.45351 0.0
C541 C 0.4524 0.08893 0.4863 0.0
O542 O 0.54027 0.91011 0.46795 0.0
O543 O 0.58137 0.95119 0.47118 0.0
O544 O 0.48958 0.98124 0.48379 0.0
O545 O 0.50427 0.93693 0.50298 0.0
Co546 Co 0.48091 0.5322 0.08061 0.0
Co547 Co 0.46768 0.47224 0.06495 0.0
Co548 Co 0.51239 0.51293 0.01101 0.0
O549 O 0.47655 0.51008 0.03888 0.0
H550 H 0.45849 0.51279 0.02489 0.0
O551 O 0.54773 0.51616 0.9821 0.0
Co552 Co 0.53992 0.49906 0.93708 0.0
Co553 Co 0.55702 0.55728 0.96066 0.0
H554 H 0.56551 0.51078 0.99464 0.0
O555 O 0.42873 0.4568 0.07952 0.0
O556 O 0.4679 0.49084 0.10637 0.0
O557 O 0.499 0.44801 0.07164 0.0
O558 O 0.53338 0.48302 0.04284 0.0
O559 O 0.48767 0.47571 0.98405 0.0
O560 O 0.53558 0.48259 0.8964 0.0
O561 O 0.57784 0.4915 0.93246 0.0
O562 O 0.49925 0.50296 0.93599 0.0
O563 O 0.49187 0.54318 0.98007 0.0
O564 O 0.52767 0.58452 0.96277 0.0
O565 O 0.5514 0.54293 0.91636 0.0
O566 O 0.59428 0.57287 0.94084 0.0
C567 C 0.45384 0.55408 0.10711 0.0
C568 C 0.54054 0.54883 0.0701 0.0
C569 C 0.52632 0.45875 0.06388 0.0
C570 C 0.44031 0.47324 0.10604 0.0
C571 C 0.56378 0.48032 0.90375 0.0
C572 C 0.48206 0.48025 0.95194 0.0
C573 C 0.49979 0.57143 0.96618 0.0
C574 C 0.5791 0.55953 0.91401 0.0
O575 O 0.48183 0.5536 0.1183 0.0
O576 O 0.44247 0.53961 0.07902 0.0
O577 O 0.53681 0.55028 0.03752 0.0
O578 O 0.52194 0.52837 0.08712 0.0
H579 H 0.20904 0.41083 0.45809 0.0
H580 H 0.15324 0.31759 0.43492 0.0
H581 H 0.10708 0.33666 0.44502 0.0
H582 H 0.08275 0.38136 0.45628 0.0
H583 H 0.13961 0.47457 0.47884 0.0
H584 H 0.18529 0.45398 0.47317 0.0
C585 C 0.18673 0.39469 0.45545 0.0
C586 C 0.18425 0.36311 0.44539 0.0
C587 C 0.16058 0.40589 0.46091 0.0
C588 C 0.15548 0.34207 0.44264 0.0
C589 C 0.12918 0.35302 0.44819 0.0
C590 C 0.10515 0.39711 0.45994 0.0
C591 C 0.10778 0.42951 0.46751 0.0
C592 C 0.13144 0.38513 0.45659 0.0
C593 C 0.13694 0.44956 0.47276 0.0
C594 C 0.16311 0.43784 0.46954 0.0
H595 H 0.5865 0.15195 0.3438 0.0
H596 H 0.63612 0.19252 0.43553 0.0
H597 H 0.61107 0.14602 0.46928 0.0
H598 H 0.57191 0.0963 0.47378 0.0
H599 H 0.51829 0.05809 0.3838 0.0
H600 H 0.54759 0.10149 0.34839 0.0
C601 C 0.59177 0.15085 0.37118 0.0
C602 C 0.6134 0.17601 0.38683 0.0
C603 C 0.5764 0.12445 0.39083 0.0
C604 C 0.62017 0.17349 0.42239 0.0
C605 C 0.60559 0.14696 0.44191 0.0
C606 C 0.56723 0.09698 0.44635 0.0
C607 C 0.5434 0.07373 0.43136 0.0
C608 C 0.5834 0.12255 0.42648 0.0
C609 C 0.53673 0.07559 0.39586 0.0
C610 C 0.55339 0.10046 0.37568 0.0
H611 H 0.81256 0.6239 0.39206 0.0
H612 H 0.87664 0.71515 0.39695 0.0
H613 H 0.91435 0.68915 0.43016 0.0
H614 H 0.92971 0.63893 0.45482 0.0
H615 H 0.86305 0.54878 0.44905 0.0
H616 H 0.82596 0.57587 0.41939 0.0
C617 C 0.83481 0.63809 0.40046 0.0
C618 C 0.84216 0.67112 0.39171 0.0
C619 C 0.85599 0.6231 0.4193 0.0
C620 C 0.87069 0.68953 0.40331 0.0
C621 C 0.8922 0.67465 0.42214 0.0
C622 C 0.90704 0.62536 0.44716 0.0
C623 C 0.89953 0.59175 0.45384 0.0
C624 C 0.88527 0.64122 0.42983 0.0
C625 C 0.86982 0.57458 0.44411 0.0
C626 C 0.84839 0.59002 0.42705 0.0
H627 H 0.42112 0.84148 0.38892 0.0
H628 H 0.34198 0.8495 0.44091 0.0
H629 H 0.37268 0.89429 0.47186 0.0
H630 H 0.42339 0.92954 0.48733 0.0
H631 H 0.49911 0.92663 0.42819 0.0
H632 H 0.46781 0.88251 0.39584 0.0
C633 C 0.40978 0.85317 0.40604 0.0
C634 C 0.37889 0.84056 0.41268 0.0
C635 C 0.42712 0.88033 0.42262 0.0
C636 C 0.36582 0.85688 0.43587 0.0
C637 C 0.38333 0.88316 0.45344 0.0
C638 C 0.43266 0.91978 0.46669 0.0
C639 C 0.46369 0.9307 0.46061 0.0
C640 C 0.41418 0.89478 0.4475 0.0
C641 C 0.47552 0.91792 0.4339 0.0
C642 C 0.45758 0.89275 0.41534 0.0
H643 H 0.19218 0.63786 0.58442 0.0
H644 H 0.16441 0.60634 0.68554 0.0
H645 H 0.1166 0.57403 0.66095 0.0
H646 H 0.08388 0.55141 0.61016 0.0
H647 H 0.11276 0.58306 0.50969 0.0
H648 H 0.15802 0.61939 0.53451 0.0
C649 C 0.17551 0.62454 0.60127 0.0
C650 C 0.18238 0.62458 0.63695 0.0
C651 C 0.14786 0.60608 0.58696 0.0
C652 C 0.16035 0.60643 0.65801 0.0
C653 C 0.13274 0.58807 0.64395 0.0
C654 C 0.09964 0.56704 0.59383 0.0
C655 C 0.09475 0.56488 0.55812 0.0
C656 C 0.12636 0.5873 0.6084 0.0
C657 C 0.11584 0.58458 0.53723 0.0
C658 C 0.1419 0.60515 0.55142 0.0
H659 H 0.42042 0.20894 0.63583 0.0
H660 H 0.33259 0.15022 0.6045 0.0
H661 H 0.35775 0.11201 0.58025 0.0
H662 H 0.40516 0.09521 0.56786 0.0
H663 H 0.49252 0.15502 0.59949 0.0
H664 H 0.46712 0.19238 0.62393 0.0
C665 C 0.40672 0.18759 0.62409 0.0
C666 C 0.37463 0.18246 0.62222 0.0
C667 C 0.42131 0.16574 0.61022 0.0
C668 C 0.35733 0.15496 0.60613 0.0
C669 C 0.37172 0.13298 0.59238 0.0
C670 C 0.41858 0.11627 0.58036 0.0
C671 C 0.45074 0.1221 0.58195 0.0
C672 C 0.40375 0.13809 0.59428 0.0
C673 C 0.46776 0.14982 0.59782 0.0
C674 C 0.45326 0.1713 0.61188 0.0
H675 H 0.85973 0.38903 0.61371 0.0
H676 H 0.88637 0.43076 0.71203 0.0
H677 H 0.93252 0.46364 0.68987 0.0
H678 H 0.96292 0.48487 0.64091 0.0
H679 H 0.93873 0.43979 0.54413 0.0
H680 H 0.89486 0.40353 0.56768 0.0
C681 C 0.8759 0.40466 0.63064 0.0
C682 C 0.86871 0.40806 0.66425 0.0
C683 C 0.90303 0.42317 0.61796 0.0
C684 C 0.89039 0.42848 0.68562 0.0
C685 C 0.91706 0.44722 0.67306 0.0
C686 C 0.94839 0.46669 0.62519 0.0
C687 C 0.95404 0.46544 0.5907 0.0
C688 C 0.92318 0.44554 0.63897 0.0
C689 C 0.93508 0.44145 0.57079 0.0
C690 C 0.90975 0.42074 0.58416 0.0
H691 H 0.67185 0.82776 0.5417 0.0
H692 H 0.58529 0.76704 0.50984 0.0
H693 H 0.56117 0.8136 0.50558 0.0
H694 H 0.56332 0.8696 0.51879 0.0
H695 H 0.64955 0.93025 0.55261 0.0
H696 H 0.67515 0.88564 0.54855 0.0
C697 C 0.64792 0.82501 0.53289 0.0
C698 C 0.63027 0.79417 0.52617 0.0
C699 C 0.63402 0.85164 0.53175 0.0
C700 C 0.59921 0.79065 0.5152 0.0
C701 C 0.58541 0.81717 0.51303 0.0
C702 C 0.58778 0.87324 0.5249 0.0
C703 C 0.60439 0.90311 0.53647 0.0
C704 C 0.60233 0.84749 0.5226 0.0
C705 C 0.6361 0.90737 0.54411 0.0
C706 C 0.65081 0.88191 0.54166 0.0
H707 H 0.43051 0.23013 0.46582 0.0
H708 H 0.33963 0.17809 0.43503 0.0
H709 H 0.35461 0.12689 0.45046 0.0
H710 H 0.39475 0.09703 0.46798 0.0
H711 H 0.48596 0.14941 0.49761 0.0
H712 H 0.46958 0.20032 0.48751 0.0
C713 C 0.41401 0.20754 0.46263 0.0
C714 C 0.38418 0.20777 0.449 0.0
C715 C 0.42286 0.17829 0.47114 0.0
C716 C 0.36275 0.17846 0.44559 0.0
C717 C 0.37134 0.14921 0.4542 0.0
C718 C 0.411 0.11957 0.4724 0.0
C719 C 0.4416 0.11942 0.48301 0.0
C720 C 0.40152 0.14884 0.46626 0.0
C721 C 0.46229 0.14882 0.48913 0.0
C722 C 0.45298 0.17799 0.48334 0.0
H723 H 0.83774 0.43972 0.37554 0.0
H724 H 0.85803 0.34655 0.4042 0.0
H725 H 0.90449 0.37214 0.43651 0.0
H726 H 0.9372 0.42097 0.46183 0.0
H727 H 0.92128 0.51403 0.42665 0.0
H728 H 0.87593 0.48872 0.39159 0.0
C729 C 0.85254 0.4249 0.38812 0.0
C730 C 0.84323 0.391 0.38839 0.0
C731 C 0.88012 0.43984 0.406 0.0
C732 C 0.86339 0.3726 0.40474 0.0
C733 C 0.89036 0.38723 0.42308 0.0
C734 C 0.92417 0.43562 0.44585 0.0
C735 C 0.93175 0.46931 0.44797 0.0
C736 C 0.89855 0.42081 0.42478 0.0
C737 C 0.91491 0.48803 0.42685 0.0
C738 C 0.88915 0.47353 0.40643 0.0
H739 H 0.61672 0.81871 0.38613 0.0
H740 H 0.70302 0.88471 0.40738 0.0
H741 H 0.67699 0.92076 0.43385 0.0
H742 H 0.62943 0.93337 0.45146 0.0
H743 H 0.54348 0.86707 0.4287 0.0
H744 H 0.56963 0.8318 0.40195 0.0
C745 C 0.62985 0.84122 0.39601 0.0
C746 C 0.66179 0.84894 0.39459 0.0
C747 C 0.61476 0.86194 0.41093 0.0
C748 C 0.67843 0.87792 0.40838 0.0
C749 C 0.66354 0.89868 0.42338 0.0
C750 C 0.61643 0.91143 0.44023 0.0
C751 C 0.58451 0.90308 0.44195 0.0
C752 C 0.63168 0.89094 0.42484 0.0
C753 C 0.56806 0.87424 0.42773 0.0
C754 C 0.58299 0.85393 0.41242 0.0
H755 H 0.15463 0.63601 0.38961 0.0
H756 H 0.1808 0.55118 0.35696 0.0
H757 H 0.13459 0.51742 0.37738 0.0
H758 H 0.08788 0.51097 0.40621 0.0
H759 H 0.06322 0.59356 0.44558 0.0
H760 H 0.10768 0.62904 0.42099 0.0
C761 C 0.15038 0.61014 0.38715 0.0
C762 C 0.17119 0.59651 0.3709 0.0
C763 C 0.12388 0.59036 0.40003 0.0
C764 C 0.16499 0.56279 0.36812 0.0
C765 C 0.13857 0.54325 0.38011 0.0
C766 C 0.09175 0.53682 0.40889 0.0
C767 C 0.0718 0.54965 0.42709 0.0
C768 C 0.11787 0.55673 0.39601 0.0
C769 C 0.07793 0.58311 0.43122 0.0
C770 C 0.10348 0.60335 0.41737 0.0
H771 H 0.39661 0.86027 0.64222 0.0
H772 H 0.46546 0.80319 0.65834 0.0
H773 H 0.50319 0.84708 0.63459 0.0
H774 H 0.51726 0.90153 0.61014 0.0
H775 H 0.44916 0.95896 0.58968 0.0
H776 H 0.41072 0.91545 0.61455 0.0
C777 C 0.41977 0.85743 0.64007 0.0
C778 C 0.42828 0.82861 0.65246 0.0
C779 C 0.44166 0.88302 0.62618 0.0
C780 C 0.45842 0.82527 0.6495 0.0
C781 C 0.48007 0.85038 0.63597 0.0
C782 C 0.49415 0.90488 0.6116 0.0
C783 C 0.48632 0.93381 0.59875 0.0
C784 C 0.4721 0.87948 0.62472 0.0
C785 C 0.45594 0.93714 0.59989 0.0
C786 C 0.4339 0.91215 0.61387 0.0
H787 H 0.17164 0.34083 0.61902 0.0
H788 H 0.24565 0.42452 0.61864 0.0
H789 H 0.21226 0.45635 0.58753 0.0
H790 H 0.16161 0.46161 0.56445 0.0
H791 H 0.08604 0.37933 0.56597 0.0
H792 H 0.12036 0.34566 0.59237 0.0
C793 C 0.18038 0.3659 0.61158 0.0
C794 C 0.21097 0.38045 0.62105 0.0
C795 C 0.16074 0.38434 0.59429 0.0
C796 C 0.22214 0.41297 0.61163 0.0
C797 C 0.20306 0.43116 0.59395 0.0
C798 C 0.1525 0.43629 0.57044 0.0
C799 C 0.12113 0.42318 0.5637 0.0
C800 C 0.17221 0.41731 0.58584 0.0
C801 C 0.11001 0.39016 0.57119 0.0
C802 C 0.12965 0.3709 0.58629 0.0
H803 H 0.66144 0.17893 0.58964 0.0
H804 H 0.61846 0.16647 0.68523 0.0
H805 H 0.5821 0.11928 0.66435 0.0
H806 H 0.55942 0.08391 0.61705 0.0
H807 H 0.60369 0.09457 0.52288 0.0
H808 H 0.64296 0.13926 0.54535 0.0
C809 C 0.64462 0.16562 0.60633 0.0
C810 C 0.64257 0.17712 0.63883 0.0
C811 C 0.62392 0.13787 0.5944 0.0
C812 C 0.62022 0.15922 0.65968 0.0
C813 C 0.59947 0.13186 0.6479 0.0
C814 C 0.57828 0.09537 0.60197 0.0
C815 C 0.57883 0.08587 0.56845 0.0
C816 C 0.60068 0.12129 0.61506 0.0
C817 C 0.60287 0.10142 0.54877 0.0
C818 C 0.62526 0.1271 0.5616 0.0
H819 H 0.8409 0.65205 0.5775 0.0
H820 H 0.78355 0.56324 0.54288 0.0
H821 H 0.8286 0.5438 0.52995 0.0
H822 H 0.88401 0.54973 0.53445 0.0
H823 H 0.94207 0.63762 0.57114 0.0
H824 H 0.89708 0.65972 0.57765 0.0
C825 C 0.83843 0.62878 0.56644 0.0
C826 C 0.80922 0.60902 0.56099 0.0
C827 C 0.86448 0.61739 0.56014 0.0
C828 C 0.80599 0.57873 0.54712 0.0
C829 C 0.83167 0.56759 0.53996 0.0
C830 C 0.88693 0.57388 0.5435 0.0
C831 C 0.91637 0.59187 0.55256 0.0
C832 C 0.86103 0.58631 0.54734 0.0
C833 C 0.91964 0.62311 0.56429 0.0
C834 C 0.89393 0.63581 0.56793 0.0
H835 H 0.35228 0.43375 0.22467 0.0
H836 H 0.4377 0.45939 0.28531 0.0
H837 H 0.46428 0.47897 0.23371 0.0
H838 H 0.46377 0.48372 0.17113 0.0
H839 H 0.37885 0.45351 0.11043 0.0
H840 H 0.35133 0.44119 0.16227 0.0
C841 C 0.3766 0.44427 0.22654 0.0
C842 C 0.3931 0.44533 0.25853 0.0
C843 C 0.39177 0.45436 0.19678 0.0
C844 C 0.42467 0.45838 0.2608 0.0
C845 C 0.4398 0.46949 0.23137 0.0
C846 C 0.43918 0.47486 0.16926 0.0
C847 C 0.42336 0.46924 0.13709 0.0
C848 C 0.4237 0.46683 0.19916 0.0
C849 C 0.39154 0.45767 0.13499 0.0
C850 C 0.3758 0.45064 0.16458 0.0
H851 H 0.41839 0.65415 0.87839 0.0
H852 H 0.3672 0.5587 0.85417 0.0
H853 H 0.39943 0.53516 0.89667 0.0
H854 H 0.44512 0.54109 0.93686 0.0
H855 H 0.50112 0.63567 0.95366 0.0
H856 H 0.46433 0.66004 0.91757 0.0
C857 C 0.41433 0.62814 0.88179 0.0
C858 C 0.39023 0.60846 0.86235 0.0
C859 C 0.43405 0.61452 0.905 0.0
C860 C 0.38505 0.57481 0.8687 0.0
C861 C 0.40378 0.56117 0.89288 0.0
C862 C 0.44914 0.56705 0.93285 0.0
C863 C 0.47585 0.58655 0.94793 0.0
C864 C 0.42871 0.58074 0.91066 0.0
C865 C 0.48078 0.62015 0.94236 0.0
C866 C 0.45978 0.63405 0.92164 0.0
H867 H 0.39342 0.41305 0.83401 0.0
H868 H 0.41173 0.32728 0.88822 0.0
H869 H 0.44073 0.36008 0.93397 0.0
H870 H 0.46422 0.41413 0.95653 0.0
H871 H 0.44633 0.49884 0.89982 0.0
H872 H 0.41288 0.46547 0.85811 0.0
C873 C 0.40306 0.40128 0.85615 0.0
C874 C 0.40029 0.36763 0.85746 0.0
C875 C 0.41969 0.42023 0.88226 0.0
C876 C 0.41377 0.35315 0.88616 0.0
C877 C 0.43023 0.37191 0.9125 0.0
C878 C 0.45228 0.42509 0.93553 0.0
C879 C 0.45745 0.45893 0.93154 0.0
C880 C 0.43378 0.4056 0.91061 0.0
C881 C 0.44245 0.47289 0.90373 0.0
C882 C 0.42352 0.45381 0.87962 0.0
H883 H 0.60204 0.40367 0.78793 0.0
H884 H 0.6834 0.40997 0.85564 0.0
H885 H 0.66303 0.44143 0.89477 0.0
H886 H 0.62087 0.46566 0.91067 0.0
H887 H 0.54029 0.45959 0.84121 0.0
H888 H 0.56159 0.42987 0.8021 0.0
C889 C 0.61523 0.41181 0.81134 0.0
C890 C 0.64401 0.40421 0.81905 0.0
C891 C 0.60352 0.43006 0.83349 0.0
C892 C 0.66115 0.41552 0.84913 0.0
C893 C 0.64949 0.43346 0.87154 0.0
C894 C 0.60812 0.45803 0.88687 0.0
C895 C 0.57885 0.46467 0.87925 0.0
C896 C 0.62055 0.44073 0.86412 0.0
C897 C 0.56274 0.45468 0.84811 0.0
C898 C 0.57487 0.43758 0.82557 0.0
H899 H 0.6499 0.60523 0.78184 0.0
H900 H 0.55983 0.57016 0.73399 0.0
H901 H 0.54083 0.55052 0.78961 0.0
H902 H 0.54899 0.54718 0.85195 0.0
H903 H 0.6383 0.58552 0.90033 0.0
H904 H 0.65858 0.59973 0.84436 0.0
C905 C 0.62624 0.59282 0.78365 0.0
C906 C 0.60623 0.58909 0.75404 0.0
C907 C 0.61535 0.58243 0.81576 0.0
C908 C 0.57554 0.5734 0.75658 0.0
C909 C 0.56471 0.5622 0.78831 0.0
C910 C 0.57297 0.55837 0.8503 0.0
C911 C 0.59205 0.56554 0.88028 0.0
C912 C 0.58427 0.56719 0.81812 0.0
C913 C 0.62306 0.58002 0.87764 0.0
C914 C 0.63468 0.58814 0.84566 0.0
H915 H 0.62429 0.67126 0.13942 0.0
H916 H 0.6242 0.60158 0.22368 0.0
H917 H 0.59337 0.55937 0.18836 0.0
H918 H 0.56509 0.54257 0.1344 0.0
H919 H 0.5663 0.61074 0.04858 0.0
H920 H 0.59846 0.65309 0.08326 0.0
C921 C 0.61746 0.64679 0.14985 0.0
C922 C 0.62627 0.63946 0.1841 0.0
C923 C 0.60016 0.6224 0.12909 0.0
C924 C 0.61767 0.60767 0.19737 0.0
C925 C 0.60006 0.58357 0.17721 0.0
C926 C 0.57259 0.56665 0.12317 0.0
C927 C 0.56317 0.57356 0.08905 0.0
C928 C 0.59104 0.59068 0.14315 0.0
C929 C 0.57335 0.60476 0.07475 0.0
C930 C 0.59154 0.62903 0.09466 0.0
H931 H 0.3606 0.61911 0.17588 0.0
H932 H 0.44206 0.65368 0.24091 0.0
H933 H 0.47093 0.6251 0.20858 0.0
H934 H 0.47346 0.59049 0.16213 0.0
H935 H 0.39274 0.5552 0.09644 0.0
H936 H 0.36318 0.5835 0.12895 0.0
C937 C 0.38463 0.62025 0.18305 0.0
C938 C 0.39913 0.63888 0.21068 0.0
C939 C 0.40126 0.60355 0.16429 0.0
C940 C 0.43037 0.64017 0.21942 0.0
C941 C 0.44691 0.6236 0.20108 0.0
C942 C 0.44937 0.58885 0.15485 0.0
C943 C 0.4354 0.57073 0.12677 0.0
C944 C 0.43264 0.6053 0.17347 0.0
C945 C 0.40415 0.56904 0.11782 0.0
C946 C 0.38723 0.58523 0.13644 0.0
H947 H 0.64445 0.42136 0.14321 0.0
H948 H 0.57763 0.38545 0.21682 0.0
H949 H 0.53795 0.4016 0.17849 0.0
H950 H 0.52154 0.4254 0.12462 0.0
H951 H 0.58709 0.46525 0.05098 0.0
H952 H 0.62766 0.44797 0.08849 0.0
C953 C 0.62126 0.41736 0.15089 0.0
C954 C 0.61408 0.40154 0.18276 0.0
C955 C 0.59815 0.42709 0.12855 0.0
C956 C 0.58383 0.39674 0.19224 0.0
C957 C 0.56102 0.40608 0.17034 0.0
C958 C 0.54458 0.43002 0.11634 0.0
C959 C 0.55099 0.44615 0.08458 0.0
C960 C 0.56779 0.42091 0.13836 0.0
C961 C 0.58131 0.45254 0.07503 0.0
C962 C 0.60458 0.44281 0.09662 0.0
loop_
_geom_bond_atom_site_label_1
_geom_bond_atom_site_label_2
_geom_bond_distance
_geom_bond_site_symmetry_2
_ccdc_geom_bond_type
C0 C1 1.391 . S
C0 C4 1.391 . S
C0 H42 0.948 . S
C1 C0 1.391 . S
C1 C2 1.391 . S
C2 C1 1.391 . S
C2 H58 0.947 . S
C2 C59 1.392 . S
C3 C4 1.391 . S
C3 C7 1.397 . S
C3 C59 1.419 . S
C4 C0 1.391 . S
C4 C3 1.391 . S
C4 C5 1.399 . S
C5 C4 1.399 . S
C5 C8 1.396 . S
C5 C17 1.453 . S
C5 C18 1.684 . S
H6 C30 0.948 . S
C7 C3 1.397 . S
C7 C8 1.394 . S
C7 C26 1.723 . S
C8 C5 1.396 . S
C8 C7 1.394 . S
C8 C38 1.723 . S
H9 C32 0.947 . S
H10 C33 0.948 . S
H11 C39 0.982 . S
H12 C40 0.979 . S
H13 C40 0.980 . S
H14 C40 0.983 . S
H15 C39 0.979 . S
H16 C39 0.977 . S
C17 C5 1.453 . S
C17 H46 0.982 . S
C17 H47 0.979 . S
C17 H48 0.977 . S
C18 C5 1.684 . S
C18 H43 0.979 . S
C18 H44 0.980 . S
C18 H45 0.983 . S
C19 C20 1.391 . S
C19 C24 1.391 . S
C19 H49 0.948 . S
C20 C19 1.391 . S
C20 C21 1.391 . S
C21 C20 1.391 . S
C21 C22 1.392 . S
C21 H50 0.947 . S
C22 C21 1.392 . S
C22 C23 1.419 . S
C22 H51 0.948 . S
C23 C22 1.419 . S
C23 C24 1.391 . S
C23 C27 1.397 . S
C24 C19 1.391 . S
C24 C23 1.391 . S
C24 C25 1.399 . S
C25 C24 1.399 . S
C25 C26 1.396 . S
C25 C28 1.453 . S
C25 C29 1.684 . S
C26 C7 1.723 . S
C26 C25 1.396 . S
C26 C27 1.394 . S
C27 C23 1.397 . S
C27 C26 1.394 . S
C27 C37 1.723 . S
C28 C25 1.453 . S
C28 H52 0.982 . S
C28 H53 0.979 . S
C28 H54 0.977 . S
C29 C25 1.684 . S
C29 H55 0.979 . S
C29 H56 0.980 . S
C29 H57 0.983 . S
C30 H6 0.948 . S
C30 C31 1.391 . S
C30 C35 1.391 . S
C31 C30 1.391 . S
C31 C32 1.391 . S
C32 H9 0.947 . S
C32 C31 1.391 . S
C32 C33 1.392 . S
C33 H10 0.948 . S
C33 C32 1.392 . S
C33 C34 1.419 . S
C34 C33 1.419 . S
C34 C35 1.391 . S
C34 C38 1.397 . S
C35 C30 1.391 . S
C35 C34 1.391 . S
C35 C36 1.399 . S
C36 C35 1.399 . S
C36 C37 1.396 . S
C36 C39 1.453 . S
C36 C40 1.684 . S
C37 C27 1.723 . S
C37 C36 1.396 . S
C37 C38 1.394 . S
C38 C8 1.723 . S
C38 C34 1.397 . S
C38 C37 1.394 . S
C39 H11 0.982 . S
C39 H15 0.979 . S
C39 H16 0.977 . S
C39 C36 1.453 . S
C40 H12 0.979 . S
C40 H13 0.980 . S
C40 H14 0.983 . S
C40 C36 1.684 . S
H41 C59 0.948 . S
H42 C0 0.948 . S
H43 C18 0.979 . S
H44 C18 0.980 . S
H45 C18 0.983 . S
H46 C17 0.982 . S
H47 C17 0.979 . S
H48 C17 0.977 . S
H49 C19 0.948 . S
H50 C21 0.947 . S
H51 C22 0.948 . S
H52 C28 0.982 . S
H53 C28 0.979 . S
H54 C28 0.977 . S
H55 C29 0.979 . S
H56 C29 0.980 . S
H57 C29 0.983 . S
H58 C2 0.947 . S
C59 C2 1.392 . S
C59 C3 1.419 . S
C59 H41 0.948 . S
C60 C61 1.391 . S
C60 C64 1.391 . S
C60 H102 0.948 . S
C61 C60 1.391 . S
C61 C62 1.391 . S
C62 C61 1.391 . S
C62 H118 0.947 . S
C62 C119 1.392 . S
C63 C64 1.391 . S
C63 C67 1.397 . S
C63 C119 1.419 . S
C64 C60 1.391 . S
C64 C63 1.391 . S
C64 C65 1.399 . S
C65 C64 1.399 . S
C65 C68 1.396 . S
C65 C77 1.453 . S
C65 C78 1.684 . S
H66 C90 0.948 . S
C67 C63 1.397 . S
C67 C68 1.394 . S
C67 C86 1.723 . S
C68 C65 1.396 . S
C68 C67 1.394 . S
C68 C98 1.723 . S
H69 C92 0.947 . S
H70 C93 0.948 . S
H71 C99 0.982 . S
H72 C100 0.979 . S
H73 C100 0.980 . S
H74 C100 0.983 . S
H75 C99 0.979 . S
H76 C99 0.977 . S
C77 C65 1.453 . S
C77 H106 0.982 . S
C77 H107 0.979 . S
C77 H108 0.977 . S
C78 C65 1.684 . S
C78 H103 0.979 . S
C78 H104 0.980 . S
C78 H105 0.983 . S
C79 C80 1.391 . S
C79 C84 1.391 . S
C79 H109 0.948 . S
C80 C79 1.391 . S
C80 C81 1.391 . S
C81 C80 1.391 . S
C81 C82 1.392 . S
C81 H110 0.947 . S
C82 C81 1.392 . S
C82 C83 1.419 . S
C82 H111 0.948 . S
C83 C82 1.419 . S
C83 C84 1.391 . S
C83 C87 1.397 . S
C84 C79 1.391 . S
C84 C83 1.391 . S
C84 C85 1.399 . S
C85 C84 1.399 . S
C85 C86 1.396 . S
C85 C88 1.453 . S
C85 C89 1.684 . S
C86 C67 1.723 . S
C86 C85 1.396 . S
C86 C87 1.394 . S
C87 C83 1.397 . S
C87 C86 1.394 . S
C87 C97 1.723 . S
C88 C85 1.453 . S
C88 H112 0.982 . S
C88 H113 0.979 . S
C88 H114 0.977 . S
C89 C85 1.684 . S
C89 H115 0.979 . S
C89 H116 0.980 . S
C89 H117 0.983 . S
C90 H66 0.948 . S
C90 C91 1.391 . S
C90 C95 1.391 . S
C91 C90 1.391 . S
C91 C92 1.391 . S
C92 H69 0.947 . S
C92 C91 1.391 . S
C92 C93 1.392 . S
C93 H70 0.948 . S
C93 C92 1.392 . S
C93 C94 1.419 . S
C94 C93 1.419 . S
C94 C95 1.391 . S
C94 C98 1.397 . S
C95 C90 1.391 . S
C95 C94 1.391 . S
C95 C96 1.399 . S
C96 C95 1.399 . S
C96 C97 1.396 . S
C96 C99 1.453 . S
C96 C100 1.684 . S
C97 C87 1.723 . S
C97 C96 1.396 . S
C97 C98 1.394 . S
C98 C68 1.723 . S
C98 C94 1.397 . S
C98 C97 1.394 . S
C99 H71 0.982 . S
C99 H75 0.979 . S
C99 H76 0.977 . S
C99 C96 1.453 . S
C100 H72 0.979 . S
C100 H73 0.980 . S
C100 H74 0.983 . S
C100 C96 1.684 . S
H101 C119 0.948 . S
H102 C60 0.948 . S
H103 C78 0.979 . S
H104 C78 0.980 . S
H105 C78 0.983 . S
H106 C77 0.982 . S
H107 C77 0.979 . S
H108 C77 0.977 . S
H109 C79 0.948 . S
H110 C81 0.947 . S
H111 C82 0.948 . S
H112 C88 0.982 . S
H113 C88 0.979 . S
H114 C88 0.977 . S
H115 C89 0.979 . S
H116 C89 0.980 . S
H117 C89 0.983 . S
H118 C62 0.947 . S
C119 C62 1.392 . S
C119 C63 1.419 . S
C119 H101 0.948 . S
C120 C121 1.391 . S
C120 C124 1.391 . S
C120 H162 0.948 . S
C121 C120 1.391 . S
C121 C122 1.391 . S
C122 C121 1.391 . S
C122 H178 0.947 . S
C122 C179 1.392 . S
C123 C124 1.391 . S
C123 C127 1.397 . S
C123 C179 1.419 . S
C124 C120 1.391 . S
C124 C123 1.391 . S
C124 C125 1.399 . S
C125 C124 1.399 . S
C125 C128 1.396 . S
C125 C137 1.453 . S
C125 C138 1.684 . S
H126 C150 0.948 . S
C127 C123 1.397 . S
C127 C128 1.394 . S
C127 C146 1.723 . S
C128 C125 1.396 . S
C128 C127 1.394 . S
C128 C158 1.723 . S
H129 C152 0.947 . S
H130 C153 0.948 . S
H131 C159 0.982 . S
H132 C160 0.979 . S
H133 C160 0.980 . S
H134 C160 0.983 . S
H135 C159 0.979 . S
H136 C159 0.977 . S
C137 C125 1.453 . S
C137 H166 0.982 . S
C137 H167 0.979 . S
C137 H168 0.977 . S
C138 C125 1.684 . S
C138 H163 0.979 . S
C138 H164 0.980 . S
C138 H165 0.983 . S
C139 C140 1.391 . S
C139 C144 1.391 . S
C139 H169 0.948 . S
C140 C139 1.391 . S
C140 C141 1.391 . S
C141 C140 1.391 . S
C141 C142 1.392 . S
C141 H170 0.947 . S
C142 C141 1.392 . S
C142 C143 1.419 . S
C142 H171 0.948 . S
C143 C142 1.419 . S
C143 C144 1.391 . S
C143 C147 1.397 . S
C144 C139 1.391 . S
C144 C143 1.391 . S
C144 C145 1.399 . S
C145 C144 1.399 . S
C145 C146 1.396 . S
C145 C148 1.453 . S
C145 C149 1.684 . S
C146 C127 1.723 . S
C146 C145 1.396 . S
C146 C147 1.394 . S
C147 C143 1.397 . S
C147 C146 1.394 . S
C147 C157 1.723 . S
C148 C145 1.453 . S
C148 H172 0.982 . S
C148 H173 0.979 . S
C148 H174 0.977 . S
C149 C145 1.684 . S
C149 H175 0.979 . S
C149 H176 0.980 . S
C149 H177 0.983 . S
C150 H126 0.948 . S
C150 C151 1.391 . S
C150 C155 1.391 . S
C151 C150 1.391 . S
C151 C152 1.391 . S
C152 H129 0.947 . S
C152 C151 1.391 . S
C152 C153 1.392 . S
C153 H130 0.948 . S
C153 C152 1.392 . S
C153 C154 1.419 . S
C154 C153 1.419 . S
C154 C155 1.391 . S
C154 C158 1.397 . S
C155 C150 1.391 . S
C155 C154 1.391 . S
C155 C156 1.399 . S
C156 C155 1.399 . S
C156 C157 1.396 . S
C156 C159 1.453 . S
C156 C160 1.684 . S
C157 C147 1.723 . S
C157 C156 1.396 . S
C157 C158 1.394 . S
C158 C128 1.723 . S
C158 C154 1.397 . S
C158 C157 1.394 . S
C159 H131 0.982 . S
C159 H135 0.979 . S
C159 H136 0.977 . S
C159 C156 1.453 . S
C160 H132 0.979 . S
C160 H133 0.980 . S
C160 H134 0.983 . S
C160 C156 1.684 . S
H161 C179 0.948 . S
H162 C120 0.948 . S
H163 C138 0.979 . S
H164 C138 0.980 . S
H165 C138 0.983 . S
H166 C137 0.982 . S
H167 C137 0.979 . S
H168 C137 0.977 . S
H169 C139 0.948 . S
H170 C141 0.947 . S
H171 C142 0.948 . S
H172 C148 0.982 . S
H173 C148 0.979 . S
H174 C148 0.977 . S
H175 C149 0.979 . S
H176 C149 0.980 . S
H177 C149 0.983 . S
H178 C122 0.947 . S
C179 C122 1.392 . S
C179 C123 1.419 . S
C179 H161 0.948 . S
C180 C181 1.391 . S
C180 C184 1.391 . S
C180 H222 0.948 . S
C181 C180 1.391 . S
C181 C182 1.391 . S
C182 C181 1.391 . S
C182 H238 0.947 . S
C182 C239 1.392 . S
C183 C184 1.391 . S
C183 C187 1.397 . S
C183 C239 1.419 . S
C184 C180 1.391 . S
C184 C183 1.391 . S
C184 C185 1.399 . S
C185 C184 1.399 . S
C185 C188 1.396 . S
C185 C197 1.453 . S
C185 C198 1.684 . S
H186 C210 0.948 . S
C187 C183 1.397 . S
C187 C188 1.394 . S
C187 C206 1.723 . S
C188 C185 1.396 . S
C188 C187 1.394 . S
C188 C218 1.723 . S
H189 C212 0.947 . S
H190 C213 0.948 . S
H191 C219 0.982 . S
H192 C220 0.979 . S
H193 C220 0.980 . S
H194 C220 0.983 . S
H195 C219 0.979 . S
H196 C219 0.977 . S
C197 C185 1.453 . S
C197 H226 0.982 . S
C197 H227 0.979 . S
C197 H228 0.977 . S
C198 C185 1.684 . S
C198 H223 0.979 . S
C198 H224 0.980 . S
C198 H225 0.983 . S
C199 C200 1.391 . S
C199 C204 1.391 . S
C199 H229 0.948 . S
C200 C199 1.391 . S
C200 C201 1.391 . S
C201 C200 1.391 . S
C201 C202 1.392 . S
C201 H230 0.947 . S
C202 C201 1.392 . S
C202 C203 1.419 . S
C202 H231 0.948 . S
C203 C202 1.419 . S
C203 C204 1.391 . S
C203 C207 1.397 . S
C204 C199 1.391 . S
C204 C203 1.391 . S
C204 C205 1.399 . S
C205 C204 1.399 . S
C205 C206 1.396 . S
C205 C208 1.453 . S
C205 C209 1.684 . S
C206 C187 1.723 . S
C206 C205 1.396 . S
C206 C207 1.394 . S
C207 C203 1.397 . S
C207 C206 1.394 . S
C207 C217 1.723 . S
C208 C205 1.453 . S
C208 H232 0.982 . S
C208 H233 0.979 . S
C208 H234 0.977 . S
C209 C205 1.684 . S
C209 H235 0.979 . S
C209 H236 0.980 . S
C209 H237 0.983 . S
C210 H186 0.948 . S
C210 C211 1.391 . S
C210 C215 1.391 . S
C211 C210 1.391 . S
C211 C212 1.391 . S
C212 H189 0.947 . S
C212 C211 1.391 . S
C212 C213 1.392 . S
C213 H190 0.948 . S
C213 C212 1.392 . S
C213 C214 1.419 . S
C214 C213 1.419 . S
C214 C215 1.391 . S
C214 C218 1.397 . S
C215 C210 1.391 . S
C215 C214 1.391 . S
C215 C216 1.399 . S
C216 C215 1.399 . S
C216 C217 1.396 . S
C216 C219 1.453 . S
C216 C220 1.684 . S
C217 C207 1.723 . S
C217 C216 1.396 . S
C217 C218 1.394 . S
C218 C188 1.723 . S
C218 C214 1.397 . S
C218 C217 1.394 . S
C219 H191 0.982 . S
C219 H195 0.979 . S
C219 H196 0.977 . S
C219 C216 1.453 . S
C220 H192 0.979 . S
C220 H193 0.980 . S
C220 H194 0.983 . S
C220 C216 1.684 . S
H221 C239 0.948 . S
H222 C180 0.948 . S
H223 C198 0.979 . S
H224 C198 0.980 . S
H225 C198 0.983 . S
H226 C197 0.982 . S
H227 C197 0.979 . S
H228 C197 0.977 . S
H229 C199 0.948 . S
H230 C201 0.947 . S
H231 C202 0.948 . S
H232 C208 0.982 . S
H233 C208 0.979 . S
H234 C208 0.977 . S
H235 C209 0.979 . S
H236 C209 0.980 . S
H237 C209 0.983 . S
H238 C182 0.947 . S
C239 C182 1.392 . S
C239 C183 1.419 . S
C239 H221 0.948 . S
C240 C241 1.391 . S
C240 C244 1.391 . S
C240 H282 0.948 . S
C241 C240 1.391 . S
C241 C242 1.391 . S
C242 C241 1.391 . S
C242 H298 0.947 . S
C242 C299 1.392 . S
C243 C244 1.391 . S
C243 C247 1.397 . S
C243 C299 1.419 . S
C244 C240 1.391 . S
C244 C243 1.391 . S
C244 C245 1.399 . S
C245 C244 1.399 . S
C245 C248 1.396 . S
C245 C257 1.453 . S
C245 C258 1.684 . S
H246 C270 0.948 . S
C247 C243 1.397 . S
C247 C248 1.394 . S
C247 C266 1.723 . S
C248 C245 1.396 . S
C248 C247 1.394 . S
C248 C278 1.723 . S
H249 C272 0.947 . S
H250 C273 0.948 . S
H251 C279 0.982 . S
H252 C280 0.979 . S
H253 C280 0.980 . S
H254 C280 0.983 . S
H255 C279 0.979 . S
H256 C279 0.977 . S
C257 C245 1.453 . S
C257 H286 0.982 . S
C257 H287 0.979 . S
C257 H288 0.977 . S
C258 C245 1.684 . S
C258 H283 0.979 . S
C258 H284 0.980 . S
C258 H285 0.983 . S
C259 C260 1.391 . S
C259 C264 1.391 . S
C259 H289 0.948 . S
C260 C259 1.391 . S
C260 C261 1.391 . S
C261 C260 1.391 . S
C261 C262 1.392 . S
C261 H290 0.947 . S
C262 C261 1.392 . S
C262 C263 1.419 . S
C262 H291 0.948 . S
C263 C262 1.419 . S
C263 C264 1.391 . S
C263 C267 1.397 . S
C264 C259 1.391 . S
C264 C263 1.391 . S
C264 C265 1.399 . S
C265 C264 1.399 . S
C265 C266 1.396 . S
C265 C268 1.453 . S
C265 C269 1.684 . S
C266 C247 1.723 . S
C266 C265 1.396 . S
C266 C267 1.394 . S
C267 C263 1.397 . S
C267 C266 1.394 . S
C267 C277 1.723 . S
C268 C265 1.453 . S
C268 H292 0.982 . S
C268 H293 0.979 . S
C268 H294 0.977 . S
C269 C265 1.684 . S
C269 H295 0.979 . S
C269 H296 0.980 . S
C269 H297 0.983 . S
C270 H246 0.948 . S
C270 C271 1.391 . S
C270 C275 1.391 . S
C271 C270 1.391 . S
C271 C272 1.391 . S
C272 H249 0.947 . S
C272 C271 1.391 . S
C272 C273 1.392 . S
C273 H250 0.948 . S
C273 C272 1.392 . S
C273 C274 1.419 . S
C274 C273 1.419 . S
C274 C275 1.391 . S
C274 C278 1.397 . S
C275 C270 1.391 . S
C275 C274 1.391 . S
C275 C276 1.399 . S
C276 C275 1.399 . S
C276 C277 1.396 . S
C276 C279 1.453 . S
C276 C280 1.684 . S
C277 C267 1.723 . S
C277 C276 1.396 . S
C277 C278 1.394 . S
C278 C248 1.723 . S
C278 C274 1.397 . S
C278 C277 1.394 . S
C279 H251 0.982 . S
C279 H255 0.979 . S
C279 H256 0.977 . S
C279 C276 1.453 . S
C280 H252 0.979 . S
C280 H253 0.980 . S
C280 H254 0.983 . S
C280 C276 1.684 . S
H281 C299 0.948 . S
H282 C240 0.948 . S
H283 C258 0.979 . S
H284 C258 0.980 . S
H285 C258 0.983 . S
H286 C257 0.982 . S
H287 C257 0.979 . S
H288 C257 0.977 . S
H289 C259 0.948 . S
H290 C261 0.947 . S
H291 C262 0.948 . S
H292 C268 0.982 . S
H293 C268 0.979 . S
H294 C268 0.977 . S
H295 C269 0.979 . S
H296 C269 0.980 . S
H297 C269 0.983 . S
H298 C242 0.947 . S
C299 C242 1.392 . S
C299 C243 1.419 . S
C299 H281 0.948 . S
C300 C301 1.391 . S
C300 C304 1.391 . S
C300 H342 0.948 . S
C301 C300 1.391 . S
C301 C302 1.391 . S
C302 C301 1.391 . S
C302 H358 0.947 . S
C302 C359 1.392 . S
C303 C304 1.391 . S
C303 C307 1.397 . S
C303 C359 1.419 . S
C304 C300 1.391 . S
C304 C303 1.391 . S
C304 C305 1.399 . S
C305 C304 1.399 . S
C305 C308 1.396 . S
C305 C317 1.453 . S
C305 C318 1.684 . S
H306 C330 0.948 . S
C307 C303 1.397 . S
C307 C308 1.394 . S
C307 C326 1.723 . S
C308 C305 1.396 . S
C308 C307 1.394 . S
C308 C338 1.723 . S
H309 C332 0.947 . S
H310 C333 0.948 . S
H311 C339 0.982 . S
H312 C340 0.979 . S
H313 C340 0.980 . S
H314 C340 0.983 . S
H315 C339 0.979 . S
H316 C339 0.977 . S
C317 C305 1.453 . S
C317 H346 0.982 . S
C317 H347 0.979 . S
C317 H348 0.977 . S
C318 C305 1.684 . S
C318 H343 0.979 . S
C318 H344 0.980 . S
C318 H345 0.983 . S
C319 C320 1.391 . S
C319 C324 1.391 . S
C319 H349 0.948 . S
C320 C319 1.391 . S
C320 C321 1.391 . S
C321 C320 1.391 . S
C321 C322 1.392 . S
C321 H350 0.947 . S
C322 C321 1.392 . S
C322 C323 1.419 . S
C322 H351 0.948 . S
C323 C322 1.419 . S
C323 C324 1.391 . S
C323 C327 1.397 . S
C324 C319 1.391 . S
C324 C323 1.391 . S
C324 C325 1.399 . S
C325 C324 1.399 . S
C325 C326 1.396 . S
C325 C328 1.453 . S
C325 C329 1.684 . S
C326 C307 1.723 . S
C326 C325 1.396 . S
C326 C327 1.394 . S
C327 C323 1.397 . S
C327 C326 1.394 . S
C327 C337 1.723 . S
C328 C325 1.453 . S
C328 H352 0.982 . S
C328 H353 0.979 . S
C328 H354 0.977 . S
C329 C325 1.684 . S
C329 H355 0.979 . S
C329 H356 0.980 . S
C329 H357 0.983 . S
C330 H306 0.948 . S
C330 C331 1.391 . S
C330 C335 1.391 . S
C331 C330 1.391 . S
C331 C332 1.391 . S
C332 H309 0.947 . S
C332 C331 1.391 . S
C332 C333 1.392 . S
C333 H310 0.948 . S
C333 C332 1.392 . S
C333 C334 1.419 . S
C334 C333 1.419 . S
C334 C335 1.391 . S
C334 C338 1.397 . S
C335 C330 1.391 . S
C335 C334 1.391 . S
C335 C336 1.399 . S
C336 C335 1.399 . S
C336 C337 1.396 . S
C336 C339 1.453 . S
C336 C340 1.684 . S
C337 C327 1.723 . S
C337 C336 1.396 . S
C337 C338 1.394 . S
C338 C308 1.723 . S
C338 C334 1.397 . S
C338 C337 1.394 . S
C339 H311 0.982 . S
C339 H315 0.979 . S
C339 H316 0.977 . S
C339 C336 1.453 . S
C340 H312 0.979 . S
C340 H313 0.980 . S
C340 H314 0.983 . S
C340 C336 1.684 . S
H341 C359 0.948 . S
H342 C300 0.948 . S
H343 C318 0.979 . S
H344 C318 0.980 . S
H345 C318 0.983 . S
H346 C317 0.982 . S
H347 C317 0.979 . S
H348 C317 0.977 . S
H349 C319 0.948 . S
H350 C321 0.947 . S
H351 C322 0.948 . S
H352 C328 0.982 . S
H353 C328 0.979 . S
H354 C328 0.977 . S
H355 C329 0.979 . S
H356 C329 0.980 . S
H357 C329 0.983 . S
H358 C302 0.947 . S
C359 C302 1.392 . S
C359 C303 1.419 . S
C359 H341 0.948 . S
C360 C361 1.391 . S
C360 C364 1.391 . S
C360 H402 0.948 . S
C361 C360 1.391 . S
C361 C362 1.391 . S
C362 C361 1.391 . S
C362 H418 0.947 . S
C362 C419 1.392 . S
C363 C364 1.391 . S
C363 C367 1.397 . S
C363 C419 1.419 . S
C364 C360 1.391 . S
C364 C363 1.391 . S
C364 C365 1.399 . S
C365 C364 1.399 . S
C365 C368 1.396 . S
C365 C377 1.453 . S
C365 C378 1.684 . S
H366 C390 0.948 . S
C367 C363 1.397 . S
C367 C368 1.394 . S
C367 C386 1.723 . S
C368 C365 1.396 . S
C368 C367 1.394 . S
C368 C398 1.723 . S
H369 C392 0.947 . S
H370 C393 0.948 . S
H371 C399 0.982 . S
H372 C400 0.979 . S
H373 C400 0.980 . S
H374 C400 0.983 . S
H375 C399 0.979 . S
H376 C399 0.977 . S
C377 C365 1.453 . S
C377 H406 0.982 . S
C377 H407 0.979 . S
C377 H408 0.977 . S
C378 C365 1.684 . S
C378 H403 0.979 . S
C378 H404 0.980 . S
C378 H405 0.983 . S
C379 C380 1.391 . S
C379 C384 1.391 . S
C379 H409 0.948 . S
C380 C379 1.391 . S
C380 C381 1.391 . S
C381 C380 1.391 . S
C381 C382 1.392 . S
C381 H410 0.947 . S
C382 C381 1.392 . S
C382 C383 1.419 . S
C382 H411 0.948 . S
C383 C382 1.419 . S
C383 C384 1.391 . S
C383 C387 1.397 . S
C384 C379 1.391 . S
C384 C383 1.391 . S
C384 C385 1.399 . S
C385 C384 1.399 . S
C385 C386 1.396 . S
C385 C388 1.453 . S
C385 C389 1.684 . S
C386 C367 1.723 . S
C386 C385 1.396 . S
C386 C387 1.394 . S
C387 C383 1.397 . S
C387 C386 1.394 . S
C387 C397 1.723 . S
C388 C385 1.453 . S
C388 H412 0.982 . S
C388 H413 0.979 . S
C388 H414 0.977 . S
C389 C385 1.684 . S
C389 H415 0.979 . S
C389 H416 0.980 . S
C389 H417 0.983 . S
C390 H366 0.948 . S
C390 C391 1.391 . S
C390 C395 1.391 . S
C391 C390 1.391 . S
C391 C392 1.391 . S
C392 H369 0.947 . S
C392 C391 1.391 . S
C392 C393 1.392 . S
C393 H370 0.948 . S
C393 C392 1.392 . S
C393 C394 1.419 . S
C394 C393 1.419 . S
C394 C395 1.391 . S
C394 C398 1.397 . S
C395 C390 1.391 . S
C395 C394 1.391 . S
C395 C396 1.399 . S
C396 C395 1.399 . S
C396 C397 1.396 . S
C396 C399 1.453 . S
C396 C400 1.684 . S
C397 C387 1.723 . S
C397 C396 1.396 . S
C397 C398 1.394 . S
C398 C368 1.723 . S
C398 C394 1.397 . S
C398 C397 1.394 . S
C399 H371 0.982 . S
C399 H375 0.979 . S
C399 H376 0.977 . S
C399 C396 1.453 . S
C400 H372 0.979 . S
C400 H373 0.980 . S
C400 H374 0.983 . S
C400 C396 1.684 . S
H401 C419 0.948 . S
H402 C360 0.948 . S
H403 C378 0.979 . S
H404 C378 0.980 . S
H405 C378 0.983 . S
H406 C377 0.982 . S
H407 C377 0.979 . S
H408 C377 0.977 . S
H409 C379 0.948 . S
H410 C381 0.947 . S
H411 C382 0.948 . S
H412 C388 0.982 . S
H413 C388 0.979 . S
H414 C388 0.977 . S
H415 C389 0.979 . S
H416 C389 0.980 . S
H417 C389 0.983 . S
H418 C362 0.947 . S
C419 C362 1.392 . S
C419 C363 1.419 . S
C419 H401 0.948 . S
C420 C421 1.391 . S
C420 C424 1.391 . S
C420 H462 0.948 . S
C421 C420 1.391 . S
C421 C422 1.391 . S
C422 C421 1.391 . S
C422 H478 0.947 . S
C422 C479 1.392 . S
C423 C424 1.391 . S
C423 C427 1.397 . S
C423 C479 1.419 . S
C424 C420 1.391 . S
C424 C423 1.391 . S
C424 C425 1.399 . S
C425 C424 1.399 . S
C425 C428 1.396 . S
C425 C437 1.453 . S
C425 C438 1.684 . S
H426 C450 0.948 . S
C427 C423 1.397 . S
C427 C428 1.394 . S
C427 C446 1.723 . S
C428 C425 1.396 . S
C428 C427 1.394 . S
C428 C458 1.723 . S
H429 C452 0.947 . S
H430 C453 0.948 . S
H431 C459 0.982 . S
H432 C460 0.979 . S
H433 C460 0.980 . S
H434 C460 0.983 . S
H435 C459 0.979 . S
H436 C459 0.977 . S
C437 C425 1.453 . S
C437 H466 0.982 . S
C437 H467 0.979 . S
C437 H468 0.977 . S
C438 C425 1.684 . S
C438 H463 0.979 . S
C438 H464 0.980 . S
C438 H465 0.983 . S
C439 C440 1.391 . S
C439 C444 1.391 . S
C439 H469 0.948 . S
C440 C439 1.391 . S
C440 C441 1.391 . S
C441 C440 1.391 . S
C441 C442 1.392 . S
C441 H470 0.947 . S
C442 C441 1.392 . S
C442 C443 1.419 . S
C442 H471 0.948 . S
C443 C442 1.419 . S
C443 C444 1.391 . S
C443 C447 1.397 . S
C444 C439 1.391 . S
C444 C443 1.391 . S
C444 C445 1.399 . S
C445 C444 1.399 . S
C445 C446 1.396 . S
C445 C448 1.453 . S
C445 C449 1.684 . S
C446 C427 1.723 . S
C446 C445 1.396 . S
C446 C447 1.394 . S
C447 C443 1.397 . S
C447 C446 1.394 . S
C447 C457 1.723 . S
C448 C445 1.453 . S
C448 H472 0.982 . S
C448 H473 0.979 . S
C448 H474 0.977 . S
C449 C445 1.684 . S
C449 H475 0.979 . S
C449 H476 0.980 . S
C449 H477 0.983 . S
C450 H426 0.948 . S
C450 C451 1.391 . S
C450 C455 1.391 . S
C451 C450 1.391 . S
C451 C452 1.391 . S
C452 H429 0.947 . S
C452 C451 1.391 . S
C452 C453 1.392 . S
C453 H430 0.948 . S
C453 C452 1.392 . S
C453 C454 1.419 . S
C454 C453 1.419 . S
C454 C455 1.391 . S
C454 C458 1.397 . S
C455 C450 1.391 . S
C455 C454 1.391 . S
C455 C456 1.399 . S
C456 C455 1.399 . S
C456 C457 1.396 . S
C456 C459 1.453 . S
C456 C460 1.684 . S
C457 C447 1.723 . S
C457 C456 1.396 . S
C457 C458 1.394 . S
C458 C428 1.723 . S
C458 C454 1.397 . S
C458 C457 1.394 . S
C459 H431 0.982 . S
C459 H435 0.979 . S
C459 H436 0.977 . S
C459 C456 1.453 . S
C460 H432 0.979 . S
C460 H433 0.980 . S
C460 H434 0.983 . S
C460 C456 1.684 . S
H461 C479 0.948 . S
H462 C420 0.948 . S
H463 C438 0.979 . S
H464 C438 0.980 . S
H465 C438 0.983 . S
H466 C437 0.982 . S
H467 C437 0.979 . S
H468 C437 0.977 . S
H469 C439 0.948 . S
H470 C441 0.947 . S
H471 C442 0.948 . S
H472 C448 0.982 . S
H473 C448 0.979 . S
H474 C448 0.977 . S
H475 C449 0.979 . S
H476 C449 0.980 . S
H477 C449 0.983 . S
H478 C422 0.947 . S
C479 C422 1.392 . S
C479 C423 1.419 . S
C479 H461 0.948 . S
Co480 O483 2.042 . S
Co480 O490 2.264 . S
Co480 O509 2.286 . S
Co480 O510 2.069 . S
Co480 O512 2.015 . S
Co481 O483 2.122 . S
Co481 O489 2.073 . S
Co481 O490 2.327 . S
Co481 O491 1.976 . S
Co482 O483 2.098 . S
Co482 O485 2.076 1_455 S
Co482 O492 2.117 . S
Co482 O493 2.136 1_455 S
Co482 O497 2.106 1_455 S
Co482 O511 2.151 . S
O483 Co480 2.042 . S
O483 Co481 2.122 . S
O483 Co482 2.098 . S
O483 H484 0.980 . S
H484 O483 0.980 . S
O485 Co482 2.076 1_655 S
O485 Co486 2.042 . S
O485 Co487 2.122 . S
O485 H488 0.980 . S
Co486 O485 2.042 . S
Co486 O494 2.286 . S
Co486 O495 2.069 . S
Co486 O496 2.015 . S
Co486 O499 2.264 . S
Co487 O485 2.122 . S
Co487 O498 1.976 . S
Co487 O499 2.327 . S
Co487 O500 2.073 . S
H488 O485 0.980 . S
O489 Co481 2.073 . S
O489 C504 1.245 . S
O490 Co480 2.264 . S
O490 Co481 2.327 . S
O490 C504 1.257 . S
O491 Co481 1.976 . S
O491 C503 1.251 . S
O492 Co482 2.117 . S
O492 C503 1.274 . S
O493 Co482 2.136 1_655 S
O493 C506 1.246 . S
O494 Co486 2.286 . S
O494 C505 1.259 . S
O495 Co486 2.069 . S
O495 C505 1.289 . S
O496 Co486 2.015 . S
O496 C506 1.257 . S
O497 Co482 2.106 1_655 S
O497 C507 1.274 . S
O498 Co487 1.976 . S
O498 C507 1.251 . S
O499 Co486 2.264 . S
O499 Co487 2.327 . S
O499 C508 1.257 . S
O500 Co487 2.073 . S
O500 C508 1.245 . S
C501 O509 1.259 . S
C501 O510 1.289 . S
C502 O511 1.246 . S
C502 O512 1.257 . S
C503 O491 1.251 . S
C503 O492 1.274 . S
C504 O489 1.245 . S
C504 O490 1.257 . S
C505 O494 1.259 . S
C505 O495 1.289 . S
C506 O493 1.246 . S
C506 O496 1.257 . S
C507 O497 1.274 . S
C507 O498 1.251 . S
C508 O499 1.257 . S
C508 O500 1.245 . S
O509 Co480 2.286 . S
O509 C501 1.259 . S
O510 Co480 2.069 . S
O510 C501 1.289 . S
O511 Co482 2.151 . S
O511 C502 1.246 . S
O512 Co480 2.015 . S
O512 C502 1.257 . S
Co513 O516 2.042 . S
Co513 O523 2.264 . S
Co513 O542 2.286 . S
Co513 O543 2.069 . S
Co513 O545 2.015 . S
Co514 O516 2.122 . S
Co514 O522 2.073 . S
Co514 O523 2.327 . S
Co514 O524 1.976 . S
Co515 O516 2.072 1_545 S
Co515 O518 2.102 . S
Co515 O525 2.104 1_545 S
Co515 O526 2.155 . S
Co515 O530 2.118 . S
Co515 O544 2.132 1_545 S
O516 Co513 2.042 . S
O516 Co514 2.122 . S
O516 Co515 2.072 1_565 S
O516 H517 0.980 . S
H517 O516 0.980 . S
O518 Co515 2.102 . S
O518 Co519 2.042 . S
O518 Co520 2.122 . S
O518 H521 0.980 . S
Co519 O518 2.042 . S
Co519 O527 2.286 . S
Co519 O528 2.069 . S
Co519 O529 2.015 . S
Co519 O532 2.264 . S
Co520 O518 2.122 . S
Co520 O531 1.976 . S
Co520 O532 2.327 . S
Co520 O533 2.073 . S
H521 O518 0.980 . S
O522 Co514 2.073 . S
O522 C537 1.245 . S
O523 Co513 2.264 . S
O523 Co514 2.327 . S
O523 C537 1.257 . S
O524 Co514 1.976 . S
O524 C536 1.251 . S
O525 Co515 2.104 1_565 S
O525 C536 1.274 . S
O526 Co515 2.155 . S
O526 C539 1.246 . S
O527 Co519 2.286 . S
O527 C538 1.259 . S
O528 Co519 2.069 . S
O528 C538 1.289 . S
O529 Co519 2.015 . S
O529 C539 1.257 . S
O530 Co515 2.118 . S
O530 C540 1.274 . S
O531 Co520 1.976 . S
O531 C540 1.251 . S
O532 Co519 2.264 . S
O532 Co520 2.327 . S
O532 C541 1.257 . S
O533 Co520 2.073 . S
O533 C541 1.245 . S
C534 O542 1.259 . S
C534 O543 1.289 . S
C535 O544 1.246 . S
C535 O545 1.257 . S
C536 O524 1.251 . S
C536 O525 1.274 . S
C537 O522 1.245 . S
C537 O523 1.257 . S
C538 O527 1.259 . S
C538 O528 1.289 . S
C539 O526 1.246 . S
C539 O529 1.257 . S
C540 O530 1.274 . S
C540 O531 1.251 . S
C541 O532 1.257 . S
C541 O533 1.245 . S
O542 Co513 2.286 . S
O542 C534 1.259 . S
O543 Co513 2.069 . S
O543 C534 1.289 . S
O544 Co515 2.132 1_565 S
O544 C535 1.246 . S
O545 Co513 2.015 . S
O545 C535 1.257 . S
Co546 O549 2.042 . S
Co546 O556 2.264 . S
Co546 O575 2.286 . S
Co546 O576 2.069 . S
Co546 O578 2.015 . S
Co547 O549 2.122 . S
Co547 O555 2.073 . S
Co547 O556 2.327 . S
Co547 O557 1.976 . S
Co548 O549 2.092 . S
Co548 O551 2.082 1_554 S
Co548 O558 2.113 . S
Co548 O559 2.140 1_554 S
Co548 O563 2.109 1_554 S
Co548 O577 2.147 . S
O549 Co546 2.042 . S
O549 Co547 2.122 . S
O549 Co548 2.092 . S
O549 H550 0.980 . S
H550 O549 0.980 . S
O551 Co548 2.082 1_556 S
O551 Co552 2.042 . S
O551 Co553 2.122 . S
O551 H554 0.980 . S
Co552 O551 2.042 . S
Co552 O560 2.286 . S
Co552 O561 2.069 . S
Co552 O562 2.015 . S
Co552 O565 2.264 . S
Co553 O551 2.122 . S
Co553 O564 1.976 . S
Co553 O565 2.327 . S
Co553 O566 2.073 . S
H554 O551 0.980 . S
O555 Co547 2.073 . S
O555 C570 1.245 . S
O556 Co546 2.264 . S
O556 Co547 2.327 . S
O556 C570 1.257 . S
O557 Co547 1.976 . S
O557 C569 1.251 . S
O558 Co548 2.113 . S
O558 C569 1.274 . S
O559 Co548 2.140 1_556 S
O559 C572 1.246 . S
O560 Co552 2.286 . S
O560 C571 1.259 . S
O561 Co552 2.069 . S
O561 C571 1.289 . S
O562 Co552 2.015 . S
O562 C572 1.257 . S
O563 Co548 2.109 1_556 S
O563 C573 1.274 . S
O564 Co553 1.976 . S
O564 C573 1.251 . S
O565 Co552 2.264 . S
O565 Co553 2.327 . S
O565 C574 1.257 . S
O566 Co553 2.073 . S
O566 C574 1.245 . S
C567 O575 1.259 . S
C567 O576 1.289 . S
C568 O577 1.246 . S
C568 O578 1.257 . S
C569 O557 1.251 . S
C569 O558 1.274 . S
C570 O555 1.245 . S
C570 O556 1.257 . S
C571 O560 1.259 . S
C571 O561 1.289 . S
C572 O559 1.246 . S
C572 O562 1.257 . S
C573 O563 1.274 . S
C573 O564 1.251 . S
C574 O565 1.257 . S
C574 O566 1.245 . S
O575 Co546 2.286 . S
O575 C567 1.259 . S
O576 Co546 2.069 . S
O576 C567 1.289 . S
O577 Co548 2.147 . S
O577 C568 1.246 . S
O578 Co546 2.015 . S
O578 C568 1.257 . S
H579 C585 0.930 . S
H580 C588 0.930 . S
H581 C589 0.930 . S
H582 C590 0.930 . S
H583 C593 0.930 . S
H584 C594 0.930 . S
C585 H579 0.930 . S
C585 C586 1.355 . S
C585 C587 1.415 . S
C586 C585 1.355 . S
C586 C588 1.419 . S
C587 C585 1.415 . S
C587 C592 1.425 . S
C587 C594 1.409 . S
C588 H580 0.930 . S
C588 C586 1.419 . S
C588 C589 1.362 . S
C589 H581 0.930 . S
C589 C588 1.362 . S
C589 C592 1.409 . S
C590 H582 0.930 . S
C590 C591 1.355 . S
C590 C592 1.415 . S
C591 C590 1.355 . S
C591 C593 1.419 . S
C592 C587 1.425 . S
C592 C589 1.409 . S
C592 C590 1.415 . S
C593 H583 0.930 . S
C593 C591 1.419 . S
C593 C594 1.362 . S
C594 H584 0.930 . S
C594 C587 1.409 . S
C594 C593 1.362 . S
H595 C601 0.930 . S
H596 C604 0.930 . S
H597 C605 0.930 . S
H598 C606 0.930 . S
H599 C609 0.930 . S
H600 C610 0.930 . S
C601 H595 0.930 . S
C601 C602 1.355 . S
C601 C603 1.415 . S
C602 C601 1.355 . S
C602 C604 1.419 . S
C603 C601 1.415 . S
C603 C608 1.425 . S
C603 C610 1.409 . S
C604 H596 0.930 . S
C604 C602 1.419 . S
C604 C605 1.362 . S
C605 H597 0.930 . S
C605 C604 1.362 . S
C605 C608 1.409 . S
C606 H598 0.930 . S
C606 C607 1.355 . S
C606 C608 1.415 . S
C607 C606 1.355 . S
C607 C609 1.419 . S
C608 C603 1.425 . S
C608 C605 1.409 . S
C608 C606 1.415 . S
C609 H599 0.930 . S
C609 C607 1.419 . S
C609 C610 1.362 . S
C610 H600 0.930 . S
C610 C603 1.409 . S
C610 C609 1.362 . S
H611 C617 0.930 . S
H612 C620 0.930 . S
H613 C621 0.930 . S
H614 C622 0.930 . S
H615 C625 0.930 . S
H616 C626 0.930 . S
C617 H611 0.930 . S
C617 C618 1.355 . S
C617 C619 1.415 . S
C618 C617 1.355 . S
C618 C620 1.419 . S
C619 C617 1.415 . S
C619 C624 1.425 . S
C619 C626 1.409 . S
C620 H612 0.930 . S
C620 C618 1.419 . S
C620 C621 1.362 . S
C621 H613 0.930 . S
C621 C620 1.362 . S
C621 C624 1.409 . S
C622 H614 0.930 . S
C622 C623 1.355 . S
C622 C624 1.415 . S
C623 C622 1.355 . S
C623 C625 1.419 . S
C624 C619 1.425 . S
C624 C621 1.409 . S
C624 C622 1.415 . S
C625 H615 0.930 . S
C625 C623 1.419 . S
C625 C626 1.362 . S
C626 H616 0.930 . S
C626 C619 1.409 . S
C626 C625 1.362 . S
H627 C633 0.930 . S
H628 C636 0.930 . S
H629 C637 0.930 . S
H630 C638 0.930 . S
H631 C641 0.930 . S
H632 C642 0.930 . S
C633 H627 0.930 . S
C633 C634 1.355 . S
C633 C635 1.415 . S
C634 C633 1.355 . S
C634 C636 1.419 . S
C635 C633 1.415 . S
C635 C640 1.425 . S
C635 C642 1.409 . S
C636 H628 0.930 . S
C636 C634 1.419 . S
C636 C637 1.362 . S
C637 H629 0.930 . S
C637 C636 1.362 . S
C637 C640 1.409 . S
C638 H630 0.930 . S
C638 C639 1.355 . S
C638 C640 1.415 . S
C639 C638 1.355 . S
C639 C641 1.419 . S
C640 C635 1.425 . S
C640 C637 1.409 . S
C640 C638 1.415 . S
C641 H631 0.930 . S
C641 C639 1.419 . S
C641 C642 1.362 . S
C642 H632 0.930 . S
C642 C635 1.409 . S
C642 C641 1.362 . S
H643 C649 0.930 . S
H644 C652 0.930 . S
H645 C653 0.930 . S
H646 C654 0.930 . S
H647 C657 0.930 . S
H648 C658 0.930 . S
C649 H643 0.930 . S
C649 C650 1.355 . S
C649 C651 1.415 . S
C650 C649 1.355 . S
C650 C652 1.419 . S
C651 C649 1.415 . S
C651 C656 1.425 . S
C651 C658 1.409 . S
C652 H644 0.930 . S
C652 C650 1.419 . S
C652 C653 1.362 . S
C653 H645 0.930 . S
C653 C652 1.362 . S
C653 C656 1.409 . S
C654 H646 0.930 . S
C654 C655 1.355 . S
C654 C656 1.415 . S
C655 C654 1.355 . S
C655 C657 1.419 . S
C656 C651 1.425 . S
C656 C653 1.409 . S
C656 C654 1.415 . S
C657 H647 0.930 . S
C657 C655 1.419 . S
C657 C658 1.362 . S
C658 H648 0.930 . S
C658 C651 1.409 . S
C658 C657 1.362 . S
H659 C665 0.930 . S
H660 C668 0.930 . S
H661 C669 0.930 . S
H662 C670 0.930 . S
H663 C673 0.930 . S
H664 C674 0.930 . S
C665 H659 0.930 . S
C665 C666 1.355 . S
C665 C667 1.415 . S
C666 C665 1.355 . S
C666 C668 1.419 . S
C667 C665 1.415 . S
C667 C672 1.425 . S
C667 C674 1.409 . S
C668 H660 0.930 . S
C668 C666 1.419 . S
C668 C669 1.362 . S
C669 H661 0.930 . S
C669 C668 1.362 . S
C669 C672 1.409 . S
C670 H662 0.930 . S
C670 C671 1.355 . S
C670 C672 1.415 . S
C671 C670 1.355 . S
C671 C673 1.419 . S
C672 C667 1.425 . S
C672 C669 1.409 . S
C672 C670 1.415 . S
C673 H663 0.930 . S
C673 C671 1.419 . S
C673 C674 1.362 . S
C674 H664 0.930 . S
C674 C667 1.409 . S
C674 C673 1.362 . S
H675 C681 0.930 . S
H676 C684 0.930 . S
H677 C685 0.930 . S
H678 C686 0.930 . S
H679 C689 0.930 . S
H680 C690 0.930 . S
C681 H675 0.930 . S
C681 C682 1.355 . S
C681 C683 1.415 . S
C682 C681 1.355 . S
C682 C684 1.419 . S
C683 C681 1.415 . S
C683 C688 1.425 . S
C683 C690 1.409 . S
C684 H676 0.930 . S
C684 C682 1.419 . S
C684 C685 1.362 . S
C685 H677 0.930 . S
C685 C684 1.362 . S
C685 C688 1.409 . S
C686 H678 0.930 . S
C686 C687 1.355 . S
C686 C688 1.415 . S
C687 C686 1.355 . S
C687 C689 1.419 . S
C688 C683 1.425 . S
C688 C685 1.409 . S
C688 C686 1.415 . S
C689 H679 0.930 . S
C689 C687 1.419 . S
C689 C690 1.362 . S
C690 H680 0.930 . S
C690 C683 1.409 . S
C690 C689 1.362 . S
H691 C697 0.930 . S
H692 C700 0.930 . S
H693 C701 0.930 . S
H694 C702 0.930 . S
H695 C705 0.930 . S
H696 C706 0.930 . S
C697 H691 0.930 . S
C697 C698 1.355 . S
C697 C699 1.415 . S
C698 C697 1.355 . S
C698 C700 1.419 . S
C699 C697 1.415 . S
C699 C704 1.425 . S
C699 C706 1.409 . S
C700 H692 0.930 . S
C700 C698 1.419 . S
C700 C701 1.362 . S
C701 H693 0.930 . S
C701 C700 1.362 . S
C701 C704 1.409 . S
C702 H694 0.930 . S
C702 C703 1.355 . S
C702 C704 1.415 . S
C703 C702 1.355 . S
C703 C705 1.419 . S
C704 C699 1.425 . S
C704 C701 1.409 . S
C704 C702 1.415 . S
C705 H695 0.930 . S
C705 C703 1.419 . S
C705 C706 1.362 . S
C706 H696 0.930 . S
C706 C699 1.409 . S
C706 C705 1.362 . S
H707 C713 0.930 . S
H708 C716 0.930 . S
H709 C717 0.930 . S
H710 C718 0.930 . S
H711 C721 0.930 . S
H712 C722 0.930 . S
C713 H707 0.930 . S
C713 C714 1.355 . S
C713 C715 1.415 . S
C714 C713 1.355 . S
C714 C716 1.419 . S
C715 C713 1.415 . S
C715 C720 1.425 . S
C715 C722 1.409 . S
C716 H708 0.930 . S
C716 C714 1.419 . S
C716 C717 1.362 . S
C717 H709 0.930 . S
C717 C716 1.362 . S
C717 C720 1.409 . S
C718 H710 0.930 . S
C718 C719 1.355 . S
C718 C720 1.415 . S
C719 C718 1.355 . S
C719 C721 1.419 . S
C720 C715 1.425 . S
C720 C717 1.409 . S
C720 C718 1.415 . S
C721 H711 0.930 . S
C721 C719 1.419 . S
C721 C722 1.362 . S
C722 H712 0.930 . S
C722 C715 1.409 . S
C722 C721 1.362 . S
H723 C729 0.930 . S
H724 C732 0.930 . S
H725 C733 0.930 . S
H726 C734 0.930 . S
H727 C737 0.930 . S
H728 C738 0.930 . S
C729 H723 0.930 . S
C729 C730 1.355 . S
C729 C731 1.415 . S
C730 C729 1.355 . S
C730 C732 1.419 . S
C731 C729 1.415 . S
C731 C736 1.425 . S
C731 C738 1.409 . S
C732 H724 0.930 . S
C732 C730 1.419 . S
C732 C733 1.362 . S
C733 H725 0.930 . S
C733 C732 1.362 . S
C733 C736 1.409 . S
C734 H726 0.930 . S
C734 C735 1.355 . S
C734 C736 1.415 . S
C735 C734 1.355 . S
C735 C737 1.419 . S
C736 C731 1.425 . S
C736 C733 1.409 . S
C736 C734 1.415 . S
C737 H727 0.930 . S
C737 C735 1.419 . S
C737 C738 1.362 . S
C738 H728 0.930 . S
C738 C731 1.409 . S
C738 C737 1.362 . S
H739 C745 0.930 . S
H740 C748 0.930 . S
H741 C749 0.930 . S
H742 C750 0.930 . S
H743 C753 0.930 . S
H744 C754 0.930 . S
C745 H739 0.930 . S
C745 C746 1.355 . S
C745 C747 1.415 . S
C746 C745 1.355 . S
C746 C748 1.419 . S
C747 C745 1.415 . S
C747 C752 1.425 . S
C747 C754 1.409 . S
C748 H740 0.930 . S
C748 C746 1.419 . S
C748 C749 1.362 . S
C749 H741 0.930 . S
C749 C748 1.362 . S
C749 C752 1.409 . S
C750 H742 0.930 . S
C750 C751 1.355 . S
C750 C752 1.415 . S
C751 C750 1.355 . S
C751 C753 1.419 . S
C752 C747 1.425 . S
C752 C749 1.409 . S
C752 C750 1.415 . S
C753 H743 0.930 . S
C753 C751 1.419 . S
C753 C754 1.362 . S
C754 H744 0.930 . S
C754 C747 1.409 . S
C754 C753 1.362 . S
H755 C761 0.930 . S
H756 C764 0.930 . S
H757 C765 0.930 . S
H758 C766 0.930 . S
H759 C769 0.930 . S
H760 C770 0.930 . S
C761 H755 0.930 . S
C761 C762 1.355 . S
C761 C763 1.415 . S
C762 C761 1.355 . S
C762 C764 1.419 . S
C763 C761 1.415 . S
C763 C768 1.425 . S
C763 C770 1.409 . S
C764 H756 0.930 . S
C764 C762 1.419 . S
C764 C765 1.362 . S
C765 H757 0.930 . S
C765 C764 1.362 . S
C765 C768 1.409 . S
C766 H758 0.930 . S
C766 C767 1.355 . S
C766 C768 1.415 . S
C767 C766 1.355 . S
C767 C769 1.419 . S
C768 C763 1.425 . S
C768 C765 1.409 . S
C768 C766 1.415 . S
C769 H759 0.930 . S
C769 C767 1.419 . S
C769 C770 1.362 . S
C770 H760 0.930 . S
C770 C763 1.409 . S
C770 C769 1.362 . S
H771 C777 0.930 . S
H772 C780 0.930 . S
H773 C781 0.930 . S
H774 C782 0.930 . S
H775 C785 0.930 . S
H776 C786 0.930 . S
C777 H771 0.930 . S
C777 C778 1.355 . S
C777 C779 1.415 . S
C778 C777 1.355 . S
C778 C780 1.419 . S
C779 C777 1.415 . S
C779 C784 1.425 . S
C779 C786 1.409 . S
C780 H772 0.930 . S
C780 C778 1.419 . S
C780 C781 1.362 . S
C781 H773 0.930 . S
C781 C780 1.362 . S
C781 C784 1.409 . S
C782 H774 0.930 . S
C782 C783 1.355 . S
C782 C784 1.415 . S
C783 C782 1.355 . S
C783 C785 1.419 . S
C784 C779 1.425 . S
C784 C781 1.409 . S
C784 C782 1.415 . S
C785 H775 0.930 . S
C785 C783 1.419 . S
C785 C786 1.362 . S
C786 H776 0.930 . S
C786 C779 1.409 . S
C786 C785 1.362 . S
H787 C793 0.930 . S
H788 C796 0.930 . S
H789 C797 0.930 . S
H790 C798 0.930 . S
H791 C801 0.930 . S
H792 C802 0.930 . S
C793 H787 0.930 . S
C793 C794 1.355 . S
C793 C795 1.415 . S
C794 C793 1.355 . S
C794 C796 1.419 . S
C795 C793 1.415 . S
C795 C800 1.425 . S
C795 C802 1.409 . S
C796 H788 0.930 . S
C796 C794 1.419 . S
C796 C797 1.362 . S
C797 H789 0.930 . S
C797 C796 1.362 . S
C797 C800 1.409 . S
C798 H790 0.930 . S
C798 C799 1.355 . S
C798 C800 1.415 . S
C799 C798 1.355 . S
C799 C801 1.419 . S
C800 C795 1.425 . S
C800 C797 1.409 . S
C800 C798 1.415 . S
C801 H791 0.930 . S
C801 C799 1.419 . S
C801 C802 1.362 . S
C802 H792 0.930 . S
C802 C795 1.409 . S
C802 C801 1.362 . S
H803 C809 0.930 . S
H804 C812 0.930 . S
H805 C813 0.930 . S
H806 C814 0.930 . S
H807 C817 0.930 . S
H808 C818 0.930 . S
C809 H803 0.930 . S
C809 C810 1.355 . S
C809 C811 1.415 . S
C810 C809 1.355 . S
C810 C812 1.419 . S
C811 C809 1.415 . S
C811 C816 1.425 . S
C811 C818 1.409 . S
C812 H804 0.930 . S
C812 C810 1.419 . S
C812 C813 1.362 . S
C813 H805 0.930 . S
C813 C812 1.362 . S
C813 C816 1.409 . S
C814 H806 0.930 . S
C814 C815 1.355 . S
C814 C816 1.415 . S
C815 C814 1.355 . S
C815 C817 1.419 . S
C816 C811 1.425 . S
C816 C813 1.409 . S
C816 C814 1.415 . S
C817 H807 0.930 . S
C817 C815 1.419 . S
C817 C818 1.362 . S
C818 H808 0.930 . S
C818 C811 1.409 . S
C818 C817 1.362 . S
H819 C825 0.930 . S
H820 C828 0.930 . S
H821 C829 0.930 . S
H822 C830 0.930 . S
H823 C833 0.930 . S
H824 C834 0.930 . S
C825 H819 0.930 . S
C825 C826 1.355 . S
C825 C827 1.415 . S
C826 C825 1.355 . S
C826 C828 1.419 . S
C827 C825 1.415 . S
C827 C832 1.425 . S
C827 C834 1.409 . S
C828 H820 0.930 . S
C828 C826 1.419 . S
C828 C829 1.362 . S
C829 H821 0.930 . S
C829 C828 1.362 . S
C829 C832 1.409 . S
C830 H822 0.930 . S
C830 C831 1.355 . S
C830 C832 1.415 . S
C831 C830 1.355 . S
C831 C833 1.419 . S
C832 C827 1.425 . S
C832 C829 1.409 . S
C832 C830 1.415 . S
C833 H823 0.930 . S
C833 C831 1.419 . S
C833 C834 1.362 . S
C834 H824 0.930 . S
C834 C827 1.409 . S
C834 C833 1.362 . S
H835 C841 0.930 . S
H836 C844 0.930 . S
H837 C845 0.930 . S
H838 C846 0.930 . S
H839 C849 0.930 . S
H840 C850 0.930 . S
C841 H835 0.930 . S
C841 C842 1.355 . S
C841 C843 1.415 . S
C842 C841 1.355 . S
C842 C844 1.419 . S
C843 C841 1.415 . S
C843 C848 1.425 . S
C843 C850 1.409 . S
C844 H836 0.930 . S
C844 C842 1.419 . S
C844 C845 1.362 . S
C845 H837 0.930 . S
C845 C844 1.362 . S
C845 C848 1.409 . S
C846 H838 0.930 . S
C846 C847 1.355 . S
C846 C848 1.415 . S
C847 C846 1.355 . S
C847 C849 1.419 . S
C848 C843 1.425 . S
C848 C845 1.409 . S
C848 C846 1.415 . S
C849 H839 0.930 . S
C849 C847 1.419 . S
C849 C850 1.362 . S
C850 H840 0.930 . S
C850 C843 1.409 . S
C850 C849 1.362 . S
H851 C857 0.930 . S
H852 C860 0.930 . S
H853 C861 0.930 . S
H854 C862 0.930 . S
H855 C865 0.930 . S
H856 C866 0.930 . S
C857 H851 0.930 . S
C857 C858 1.355 . S
C857 C859 1.415 . S
C858 C857 1.355 . S
C858 C860 1.419 . S
C859 C857 1.415 . S
C859 C864 1.425 . S
C859 C866 1.409 . S
C860 H852 0.930 . S
C860 C858 1.419 . S
C860 C861 1.362 . S
C861 H853 0.930 . S
C861 C860 1.362 . S
C861 C864 1.409 . S
C862 H854 0.930 . S
C862 C863 1.355 . S
C862 C864 1.415 . S
C863 C862 1.355 . S
C863 C865 1.419 . S
C864 C859 1.425 . S
C864 C861 1.409 . S
C864 C862 1.415 . S
C865 H855 0.930 . S
C865 C863 1.419 . S
C865 C866 1.362 . S
C866 H856 0.930 . S
C866 C859 1.409 . S
C866 C865 1.362 . S
H867 C873 0.930 . S
H868 C876 0.930 . S
H869 C877 0.930 . S
H870 C878 0.930 . S
H871 C881 0.930 . S
H872 C882 0.930 . S
C873 H867 0.930 . S
C873 C874 1.355 . S
C873 C875 1.415 . S
C874 C873 1.355 . S
C874 C876 1.419 . S
C875 C873 1.415 . S
C875 C880 1.425 . S
C875 C882 1.409 . S
C876 H868 0.930 . S
C876 C874 1.419 . S
C876 C877 1.362 . S
C877 H869 0.930 . S
C877 C876 1.362 . S
C877 C880 1.409 . S
C878 H870 0.930 . S
C878 C879 1.355 . S
C878 C880 1.415 . S
C879 C878 1.355 . S
C879 C881 1.419 . S
C880 C875 1.425 . S
C880 C877 1.409 . S
C880 C878 1.415 . S
C881 H871 0.930 . S
C881 C879 1.419 . S
C881 C882 1.362 . S
C882 H872 0.930 . S
C882 C875 1.409 . S
C882 C881 1.362 . S
H883 C889 0.930 . S
H884 C892 0.930 . S
H885 C893 0.930 . S
H886 C894 0.930 . S
H887 C897 0.930 . S
H888 C898 0.930 . S
C889 H883 0.930 . S
C889 C890 1.355 . S
C889 C891 1.415 . S
C890 C889 1.355 . S
C890 C892 1.419 . S
C891 C889 1.415 . S
C891 C896 1.425 . S
C891 C898 1.409 . S
C892 H884 0.930 . S
C892 C890 1.419 . S
C892 C893 1.362 . S
C893 H885 0.930 . S
C893 C892 1.362 . S
C893 C896 1.409 . S
C894 H886 0.930 . S
C894 C895 1.355 . S
C894 C896 1.415 . S
C895 C894 1.355 . S
C895 C897 1.419 . S
C896 C891 1.425 . S
C896 C893 1.409 . S
C896 C894 1.415 . S
C897 H887 0.930 . S
C897 C895 1.419 . S
C897 C898 1.362 . S
C898 H888 0.930 . S
C898 C891 1.409 . S
C898 C897 1.362 . S
H899 C905 0.930 . S
H900 C908 0.930 . S
H901 C909 0.930 . S
H902 C910 0.930 . S
H903 C913 0.930 . S
H904 C914 0.930 . S
C905 H899 0.930 . S
C905 C906 1.355 . S
C905 C907 1.415 . S
C906 C905 1.355 . S
C906 C908 1.419 . S
C907 C905 1.415 . S
C907 C912 1.425 . S
C907 C914 1.409 . S
C908 H900 0.930 . S
C908 C906 1.419 . S
C908 C909 1.362 . S
C909 H901 0.930 . S
C909 C908 1.362 . S
C909 C912 1.409 . S
C910 H902 0.930 . S
C910 C911 1.355 . S
C910 C912 1.415 . S
C911 C910 1.355 . S
C911 C913 1.419 . S
C912 C907 1.425 . S
C912 C909 1.409 . S
C912 C910 1.415 . S
C913 H903 0.930 . S
C913 C911 1.419 . S
C913 C914 1.362 . S
C914 H904 0.930 . S
C914 C907 1.409 . S
C914 C913 1.362 . S
H915 C921 0.930 . S
H916 C924 0.930 . S
H917 C925 0.930 . S
H918 C926 0.930 . S
H919 C929 0.930 . S
H920 C930 0.930 . S
C921 H915 0.930 . S
C921 C922 1.355 . S
C921 C923 1.415 . S
C922 C921 1.355 . S
C922 C924 1.419 . S
C923 C921 1.415 . S
C923 C928 1.425 . S
C923 C930 1.409 . S
C924 H916 0.930 . S
C924 C922 1.419 . S
C924 C925 1.362 . S
C925 H917 0.930 . S
C925 C924 1.362 . S
C925 C928 1.409 . S
C926 H918 0.930 . S
C926 C927 1.355 . S
C926 C928 1.415 . S
C927 C926 1.355 . S
C927 C929 1.419 . S
C928 C923 1.425 . S
C928 C925 1.409 . S
C928 C926 1.415 . S
C929 H919 0.930 . S
C929 C927 1.419 . S
C929 C930 1.362 . S
C930 H920 0.930 . S
C930 C923 1.409 . S
C930 C929 1.362 . S
H931 C937 0.930 . S
H932 C940 0.930 . S
H933 C941 0.930 . S
H934 C942 0.930 . S
H935 C945 0.930 . S
H936 C946 0.930 . S
C937 H931 0.930 . S
C937 C938 1.355 . S
C937 C939 1.415 . S
C938 C937 1.355 . S
C938 C940 1.419 . S
C939 C937 1.415 . S
C939 C944 1.425 . S
C939 C946 1.409 . S
C940 H932 0.930 . S
C940 C938 1.419 . S
C940 C941 1.362 . S
C941 H933 0.930 . S
C941 C940 1.362 . S
C941 C944 1.409 . S
C942 H934 0.930 . S
C942 C943 1.355 . S
C942 C944 1.415 . S
C943 C942 1.355 . S
C943 C945 1.419 . S
C944 C939 1.425 . S
C944 C941 1.409 . S
C944 C942 1.415 . S
C945 H935 0.930 . S
C945 C943 1.419 . S
C945 C946 1.362 . S
C946 H936 0.930 . S
C946 C939 1.409 . S
C946 C945 1.362 . S
H947 C953 0.930 . S
H948 C956 0.930 . S
H949 C957 0.930 . S
H950 C958 0.930 . S
H951 C961 0.930 . S
H952 C962 0.930 . S
C953 H947 0.930 . S
C953 C954 1.355 . S
C953 C955 1.415 . S
C954 C953 1.355 . S
C954 C956 1.419 . S
C955 C953 1.415 . S
C955 C960 1.425 . S
C955 C962 1.409 . S
C956 H948 0.930 . S
C956 C954 1.419 . S
C956 C957 1.362 . S
C957 H949 0.930 . S
C957 C956 1.362 . S
C957 C960 1.409 . S
C958 H950 0.930 . S
C958 C959 1.355 . S
C958 C960 1.415 . S
C959 C958 1.355 . S
C959 C961 1.419 . S
C960 C955 1.425 . S
C960 C957 1.409 . S
C960 C958 1.415 . S
C961 H951 0.930 . S
C961 C959 1.419 . S
C961 C962 1.362 . S
C962 H952 0.930 . S
C962 C955 1.409 . S
C962 C961 1.362 . S
C591 C504 1.065 . S
C586 C31 1.144 . S
C607 C540 1.624 . S
C602 C61 1.775 . S
C623 C505 1.413 . S
C618 C121 1.408 . S
C639 C535 1.519 . S
C634 C181 1.576 . S
C655 C502 1.486 . S
C650 C260 1.521 . S
C666 C331 1.696 . S
C671 C538 1.696 . S
C682 C380 1.267 . S
C687 C507 1.126 . S
C703 C537 1.493 . S
C698 C440 1.472 . S
C719 C541 1.473 . S
C714 C1 1.424 . S
C735 C506 1.480 . S
C730 C91 1.546 . S
C751 C534 1.698 . S
C746 C151 1.699 . S
C767 C503 1.152 . S
C762 C200 1.250 . S
C783 C536 1.666 . S
C778 C271 1.679 . S
C794 C301 1.383 . S
C799 C501 1.427 . S
C810 C361 1.598 . S
C815 C539 1.544 . S
C831 C508 1.066 . S
C826 C451 1.170 . S
C847 C570 1.656 . S
C842 C20 1.700 . S
C858 C241 1.933 . S
C863 C573 1.875 . S
C879 C572 1.686 . S
C874 C320 1.750 . S
C890 C391 2.053 . S
C895 C571 2.017 . S
C911 C574 1.576 . S
C906 C421 1.697 . S
C922 C140 1.729 . S
C927 C568 1.699 . S
C943 C567 2.038 . S
C938 C211 2.023 . S
C954 C80 2.019 . S
C959 C569 1.920 . S
