# Generated by pormake.
# Topology nom, (4,4)-cn, num edge types: 1
# Building blocks:
#     Node 0, Type 0, BuildingBlock: KUFVIS_clean_linker_0, # of connection points: 4
#     Node 1, Type 0, BuildingBlock: KUFVIS_clean_linker_0, # of connection points: 4
#     Node 2, Type 0, BuildingBlock: KUFVIS_clean_linker_0, # of connection points: 4
#     Node 3, Type 0, BuildingBlock: KUFVIS_clean_linker_0, # of connection points: 4
#     Node 4, Type 0, BuildingBlock: KUFVIS_clean_linker_0, # of connection points: 4
#     Node 5, Type 0, BuildingBlock: KUFVIS_clean_linker_0, # of connection points: 4
#     Node 6, Type 1, BuildingBlock: GALJAG_clean_sbu_0, # of connection points: 4
#     Node 7, Type 1, BuildingBlock: GALJAG_clean_sbu_0, # of connection points: 4
#     Node 8, Type 1, BuildingBlock: GALJAG_clean_sbu_0, # of connection points: 4
#     Node 9, Type 1, BuildingBlock: GALJAG_clean_sbu_0, # of connection points: 4
#     Node 10, Type 1, BuildingBlock: GALJAG_clean_sbu_0, # of connection points: 4
#     Node 11, Type 1, BuildingBlock: GALJAG_clean_sbu_0, # of connection points: 4
#     Edge 12, Type (0, 1), BuildingBlock: ZUJKAS_clean_linker_0, # of connection points: 2
#     Edge 13, Type (0, 1), BuildingBlock: ZUJKAS_clean_linker_0, # of connection points: 2
#     Edge 14, Type (0, 1), BuildingBlock: ZUJKAS_clean_linker_0, # of connection points: 2
#     Edge 15, Type (0, 1), BuildingBlock: ZUJKAS_clean_linker_0, # of connection points: 2
#     Edge 16, Type (0, 1), BuildingBlock: ZUJKAS_clean_linker_0, # of connection points: 2
#     Edge 17, Type (0, 1), BuildingBlock: ZUJKAS_clean_linker_0, # of connection points: 2
#     Edge 18, Type (0, 1), BuildingBlock: ZUJKAS_clean_linker_0, # of connection points: 2
#     Edge 19, Type (0, 1), BuildingBlock: ZUJKAS_clean_linker_0, # of connection points: 2
#     Edge 20, Type (0, 1), BuildingBlock: ZUJKAS_clean_linker_0, # of connection points: 2
#     Edge 21, Type (0, 1), BuildingBlock: ZUJKAS_clean_linker_0, # of connection points: 2
#     Edge 22, Type (0, 1), BuildingBlock: ZUJKAS_clean_linker_0, # of connection points: 2
#     Edge 23, Type (0, 1), BuildingBlock: ZUJKAS_clean_linker_0, # of connection points: 2
#     Edge 24, Type (0, 1), BuildingBlock: ZUJKAS_clean_linker_0, # of connection points: 2
#     Edge 25, Type (0, 1), BuildingBlock: ZUJKAS_clean_linker_0, # of connection points: 2
#     Edge 26, Type (0, 1), BuildingBlock: ZUJKAS_clean_linker_0, # of connection points: 2
#     Edge 27, Type (0, 1), BuildingBlock: ZUJKAS_clean_linker_0, # of connection points: 2
#     Edge 28, Type (0, 1), BuildingBlock: ZUJKAS_clean_linker_0, # of connection points: 2
#     Edge 29, Type (0, 1), BuildingBlock: ZUJKAS_clean_linker_0, # of connection points: 2
#     Edge 30, Type (0, 1), BuildingBlock: ZUJKAS_clean_linker_0, # of connection points: 2
#     Edge 31, Type (0, 1), BuildingBlock: ZUJKAS_clean_linker_0, # of connection points: 2
#     Edge 32, Type (0, 1), BuildingBlock: ZUJKAS_clean_linker_0, # of connection points: 2
#     Edge 33, Type (0, 1), BuildingBlock: ZUJKAS_clean_linker_0, # of connection points: 2
#     Edge 34, Type (0, 1), BuildingBlock: ZUJKAS_clean_linker_0, # of connection points: 2
#     Edge 35, Type (0, 1), BuildingBlock: ZUJKAS_clean_linker_0, # of connection points: 2
# Relax obj value: 0.012
# Max RMSD: 0.070
# Mean RMSD: 0.062
data_MOF--net-nom--node1-GALJAG_clean_sbu_0--node2-KUFVIS_clean_linker_0--edge1-ZUJKAS_clean_linker_0
_symmetry_space_group_name_H-M    P1
_symmetry_Int_Tables_number       1
_symmetry_cell_setting            triclinic
loop_
_symmetry_equiv_pos_as_xyz
'x, y, z'
_cell_length_a     58.123762
_cell_length_b     58.123519
_cell_length_c     61.985038
_cell_angle_alpha  89.98207
_cell_angle_beta   90.053717
_cell_angle_gamma 120.09738
loop_
_atom_site_label
_atom_site_type_symbol
_atom_site_fract_x
_atom_site_fract_y
_atom_site_fract_z
_atom_type_partial_charge
H0 H 0.12165 0.6018 0.33905 0.0
H1 H 0.06318 0.58818 0.29115 0.0
H2 H 0.03932 0.55927 0.35652 0.0
H3 H 1.00463 0.56398 0.34834 0.0
H4 H 0.94414 0.52995 0.29987 0.0
H5 H 0.02415 0.55252 0.28323 0.0
C6 C 0.1009 0.59341 0.33458 0.0
C7 C 0.0812 0.58126 0.35032 0.0
C8 C 0.09442 0.59539 0.31324 0.0
C9 C 0.06769 0.58534 0.30754 0.0
C10 C 0.04714 0.57173 0.3229 0.0
C11 C 0.05435 0.56961 0.34432 0.0
C12 C 1.01844 0.56002 0.31661 0.0
C13 C 0.99908 0.55732 0.33187 0.0
C14 C 0.97231 0.54651 0.32585 0.0
C15 C 0.9649 0.53886 0.30443 0.0
C16 C 0.98355 0.54146 0.28896 0.0
C17 C 1.01012 0.55146 0.2952 0.0
H18 H 0.52616 0.11375 0.50829 0.0
H19 H 0.4976 0.05429 0.45884 0.0
H20 H 0.50836 0.03479 0.52417 0.0
H21 H 0.47231 0.99512 0.51499 0.0
H22 H 0.4674 0.93894 0.46784 0.0
H23 H 0.50685 0.02164 0.45156 0.0
C24 C 0.5186 0.09323 0.50352 0.0
C25 C 0.51713 0.07483 0.51879 0.0
C26 C 0.51217 0.08604 0.4819 0.0
C27 C 0.50311 0.05967 0.47554 0.0
C28 C 0.50091 0.04049 0.49076 0.0
C29 C 0.50865 0.04864 0.51233 0.0
C30 C 0.49117 1.01224 0.48424 0.0
C31 C 0.4771 0.99118 0.49904 0.0
C32 C 0.46914 0.96481 0.4934 0.0
C33 C 0.47445 0.95938 0.47259 0.0
C34 C 0.48752 0.97969 0.45743 0.0
C35 C 0.49603 1.00607 0.46329 0.0
H36 H 0.55397 0.45894 0.63546 0.0
H37 H 0.50288 0.46486 0.68212 0.0
H38 H 0.51075 0.4979 0.61806 0.0
H39 H 0.46911 0.48894 0.6248 0.0
H40 H 0.43764 0.51823 0.67302 0.0
H41 H 0.49788 0.49984 0.69065 0.0
C42 C 0.54063 0.4661 0.63997 0.0
C43 C 0.53336 0.47879 0.62448 0.0
C44 C 0.53008 0.46139 0.66084 0.0
C45 C 0.51155 0.46929 0.66614 0.0
C46 C 0.50438 0.48286 0.65097 0.0
C47 C 0.51547 0.48734 0.63004 0.0
C48 C 0.48566 0.49251 0.65702 0.0
C49 C 0.46899 0.49463 0.64141 0.0
C50 C 0.45167 0.50383 0.64723 0.0
C51 C 0.45055 0.51047 0.66871 0.0
C52 C 0.46693 0.50882 0.68444 0.0
C53 C 0.48471 0.50023 0.67849 0.0
H54 H 0.12288 0.53241 0.79856 0.0
H55 H 0.06268 0.497 0.84717 0.0
H56 H 0.04178 0.50438 0.78136 0.0
H57 H 1.00342 0.4676 0.7904 0.0
H58 H 0.9452 0.45869 0.83702 0.0
H59 H 0.02763 0.50222 0.85412 0.0
C60 C 0.10207 0.5228 0.80314 0.0
C61 C 0.08291 0.51809 0.78748 0.0
C62 C 0.09494 0.51589 0.8247 0.0
C63 C 0.06795 0.503 0.83054 0.0
C64 C 0.04816 0.49858 0.81506 0.0
C65 C 0.05615 0.50669 0.79353 0.0
C66 C 1.01949 0.48663 0.82137 0.0
C67 C 0.99887 0.47177 0.80635 0.0
C68 C 0.97214 0.46242 0.81174 0.0
C69 C 0.96589 0.46685 0.83254 0.0
C70 C 0.98574 0.48064 0.84792 0.0
C71 C 1.01248 0.4907 0.84227 0.0
H72 H 0.52732 0.9367 0.00631 0.0
H73 H 0.57329 0.99715 0.95979 0.0
H74 H 0.55631 0.01825 0.02245 0.0
H75 H 0.59657 0.0551 0.01644 0.0
H76 H 0.6167 0.11554 0.96881 0.0
H77 H 0.5705 0.03358 0.95027 0.0
C78 C 0.53843 0.95754 0.00181 0.0
C79 C 0.54094 0.97675 0.01665 0.0
C80 C 0.54995 0.96472 0.98132 0.0
C81 C 0.56408 0.99175 0.97555 0.0
C82 C 0.56685 1.01161 0.9903 0.0
C83 C 0.55515 1.00369 0.01094 0.0
C84 C 0.58145 0.04044 0.98417 0.0
C85 C 0.59536 0.06037 -0.00011 0.0
C86 C 0.60753 0.08738 0.99439 0.0
C87 C 0.60708 0.0946 0.97298 0.0
C88 C 0.59448 0.07535 0.9569 0.0
C89 C 0.5811 0.04832 0.96264 0.0
H90 H 0.52544 0.60595 0.13339 0.0
H91 H 0.57035 0.5905 0.18029 0.0
H92 H 0.5522 0.55146 0.11797 0.0
H93 H 0.59281 0.55438 0.12474 0.0
H94 H 0.60815 0.51114 0.17321 0.0
H95 H 0.5637 0.54917 0.18986 0.0
C96 C 0.53626 0.59597 0.13799 0.0
C97 C 0.53797 0.57858 0.12342 0.0
C98 C 0.54785 0.60036 0.15846 0.0
C99 C 0.56128 0.58687 0.16446 0.0
C100 C 0.56335 0.5692 0.14991 0.0
C101 C 0.55164 0.56538 0.12927 0.0
C102 C 0.57667 0.55394 0.15648 0.0
C103 C 0.59058 0.54738 0.14122 0.0
C104 C 0.60134 0.53136 0.14709 0.0
C105 C 0.59902 0.52271 0.16846 0.0
C106 C 0.58585 0.52936 0.18396 0.0
C107 C 0.57465 0.5449 0.17793 0.0
In108 In 0.65552 0.40567 0.4043 0.0
O109 O 0.69835 0.42912 0.41648 0.0
O110 O 0.69219 0.41364 0.38466 0.0
C111 C 0.63451 0.4179 0.43832 0.0
C112 C 0.6444 0.42905 0.37139 0.0
C113 C 0.63385 0.35219 0.40847 0.0
O114 O 0.65892 0.4254 0.43693 0.0
O115 O 0.62061 0.4038 0.42277 0.0
O116 O 0.62427 0.36261 0.39627 0.0
O117 O 0.65451 0.36868 0.41845 0.0
C118 C 0.70868 0.42687 0.39931 0.0
O119 O 0.64018 0.40555 0.37033 0.0
O120 O 0.6548 0.44092 0.38882 0.0
In121 In 0.27701 0.64627 0.56794 0.0
O122 O 0.28665 0.61332 0.56091 0.0
O123 O 0.31536 0.64715 0.57808 0.0
C124 C 0.24004 0.62708 0.53612 0.0
C125 C 0.24707 0.63111 0.60406 0.0
C126 C 0.30704 0.69975 0.56272 0.0
O127 O 0.2644 0.63581 0.53251 0.0
O128 O 0.23447 0.62803 0.55559 0.0
O129 O 0.29992 0.68896 0.58101 0.0
O130 O 0.29923 0.68362 0.54716 0.0
C131 C 0.30898 0.62474 0.57016 0.0
O132 O 0.25084 0.65092 0.59296 0.0
O133 O 0.25899 0.61942 0.59725 0.0
In134 In 0.65438 0.26967 0.7379 0.0
O135 O 0.69683 0.29227 0.72431 0.0
O136 O 0.69207 0.29224 0.75821 0.0
C137 C 0.63605 0.23907 0.70219 0.0
C138 C 0.63745 0.23311 0.76996 0.0
C139 C 0.63384 0.30251 0.73611 0.0
O140 O 0.65806 0.24506 0.7108 0.0
O141 O 0.62369 0.24908 0.71126 0.0
O142 O 0.62253 0.28052 0.74588 0.0
O143 O 0.65567 0.30811 0.72742 0.0
C144 C 0.70793 0.29971 0.74248 0.0
O145 O 0.64339 0.25689 0.77319 0.0
O146 O 0.64009 0.22789 0.75073 0.0
In147 In 0.41064 0.64738 0.90404 0.0
O148 O 0.369 0.61053 0.90592 0.0
O149 O 0.3717 0.64726 0.89794 0.0
C150 C 0.42855 0.63497 0.93985 0.0
C151 C 0.42548 0.62865 0.86991 0.0
C152 C 0.43368 0.70098 0.90741 0.0
O153 O 0.40417 0.62696 0.93687 0.0
O154 O 0.44374 0.64968 0.9251 0.0
O155 O 0.43679 0.68981 0.89112 0.0
O156 O 0.41878 0.68515 0.92177 0.0
C157 C 0.35681 0.62268 0.90114 0.0
O158 O 0.4126 0.64066 0.86763 0.0
O159 O 0.43088 0.62635 0.88915 0.0
In160 In 0.7912 0.40558 0.06825 0.0
O161 O 0.80125 0.40852 0.10447 0.0
O162 O 0.83171 0.43368 0.08279 0.0
C163 C 0.76152 0.35206 0.06402 0.0
C164 C 0.76049 0.42854 0.07152 0.0
C165 C 0.82262 0.41639 0.03336 0.0
O166 O 0.7761 0.36307 0.08024 0.0
O167 O 0.76174 0.36801 0.0501 0.0
O168 O 0.8048 0.42276 0.03441 0.0
O169 O 0.82394 0.40398 0.04959 0.0
C170 C 0.82525 0.4263 0.10199 0.0
O171 O 0.78357 0.44041 0.06365 0.0
O172 O 0.75285 0.40512 0.07764 0.0
In173 In 0.414 0.78339 0.23799 0.0
O174 O 0.43562 0.76201 0.25015 0.0
O175 O 0.42244 0.75544 0.21771 0.0
C176 C 0.42823 0.81847 0.27089 0.0
C177 C 0.43497 0.81801 0.20481 0.0
C178 C 0.36082 0.751 0.24351 0.0
O179 O 0.43805 0.80363 0.2682 0.0
O180 O 0.4109 0.81539 0.25714 0.0
O181 O 0.37066 0.76623 0.22752 0.0
O182 O 0.37776 0.75185 0.25669 0.0
C183 C 0.43435 0.75068 0.23251 0.0
O184 O 0.41116 0.79926 0.20503 0.0
O185 O 0.44837 0.81909 0.22118 0.0
H186 H 0.13022 0.58069 0.30218 0.0
H187 H 0.17265 0.60786 0.28371 0.0
H188 H 0.15148 0.66795 0.27139 0.0
H189 H 0.10881 0.64065 0.29004 0.0
H190 H 0.18941 0.63368 0.24206 0.0
H191 H 0.21829 0.70386 0.31135 0.0
H192 H 0.18944 0.67096 0.31213 0.0
H193 H 0.18857 0.69682 0.29697 0.0
C194 C 0.13432 0.59935 0.29495 0.0
C195 C 0.11639 0.60868 0.29752 0.0
C196 C 0.15854 0.61485 0.28444 0.0
C197 C 0.16535 0.64006 0.27648 0.0
C198 C 0.14665 0.64863 0.27762 0.0
H199 H 0.32091 0.74534 0.21672 0.0
H200 H 0.27286 0.71888 0.22296 0.0
C201 C 0.12225 0.63298 0.28807 0.0
C202 C 0.19306 0.65819 0.26933 0.0
H203 H 0.25108 0.71257 0.28547 0.0
C204 C 0.20286 0.65116 0.25133 0.0
C205 C 0.21061 0.68069 0.28173 0.0
C206 C 0.20139 0.68856 0.30173 0.0
C207 C 0.22987 0.66587 0.24557 0.0
C208 C 0.24743 0.6882 0.25812 0.0
C209 C 0.23752 0.69548 0.27587 0.0
C210 C 0.27642 0.70356 0.25382 0.0
C211 C 0.23966 0.65685 0.22665 0.0
C212 C 0.29435 0.70391 0.2692 0.0
C213 C 0.32177 0.719 0.26571 0.0
C214 C 0.33178 0.7342 0.24682 0.0
C215 C 0.31378 0.73375 0.2314 0.0
C216 C 0.28633 0.71857 0.23488 0.0
H217 H 0.22468 0.63657 0.22115 0.0
H218 H 0.2441 0.6708 0.21299 0.0
H219 H 0.25829 0.65697 0.23088 0.0
H220 H 0.28708 0.69252 0.28396 0.0
H221 H 0.33512 0.71899 0.27791 0.0
H222 H 0.54796 0.10387 0.44906 0.0
H223 H 0.56639 0.14728 0.43117 0.0
H224 H 0.50744 0.16008 0.46237 0.0
H225 H 0.48956 0.11712 0.4807 0.0
H226 H 0.54908 0.17591 0.40529 0.0
H227 H 0.57789 0.21819 0.48769 0.0
H228 H 0.56533 0.18346 0.48205 0.0
H229 H 0.54281 0.19608 0.48446 0.0
C230 C 0.53838 0.11557 0.45142 0.0
C231 C 0.51743 0.10731 0.46624 0.0
C232 C 0.54899 0.1404 0.44132 0.0
C233 C 0.53868 0.15716 0.44588 0.0
C234 C 0.51603 0.14768 0.45899 0.0
H235 H 0.58586 0.3135 0.39298 0.0
H236 H 0.5635 0.26575 0.4004 0.0
C237 C 0.50566 0.12307 0.46927 0.0
C238 C 0.55335 0.18548 0.43913 0.0
H239 H 0.58581 0.24858 0.45945 0.0
C240 C 0.55714 0.19184 0.41708 0.0
C241 C 0.56443 0.20623 0.45457 0.0
C242 C 0.56269 0.20073 0.47851 0.0
C243 C 0.57123 0.21846 0.41008 0.0
C244 C 0.58137 0.2392 0.42555 0.0
C245 C 0.5779 0.23273 0.44757 0.0
C246 C 0.59568 0.26782 0.41951 0.0
C247 C 0.57558 0.22407 0.38622 0.0
C248 C 0.62106 0.28503 0.42804 0.0
C249 C 0.63369 0.31238 0.42412 0.0
C250 C 0.62121 0.32309 0.41153 0.0
C251 C 0.59605 0.30581 0.40263 0.0
C252 C 0.58333 0.27846 0.40671 0.0
H253 H 0.57382 0.20672 0.37722 0.0
H254 H 0.56022 0.22831 0.37988 0.0
H255 H 0.59545 0.24159 0.38296 0.0
H256 H 0.63095 0.27732 0.43805 0.0
H257 H 0.65308 0.32518 0.43118 0.0
H258 H 0.47001 0.53753 0.61286 0.0
H259 H 0.44573 0.5559 0.59375 0.0
H260 H 0.37381 0.50074 0.62708 0.0
H261 H 0.39809 0.48276 0.64644 0.0
H262 H 0.39686 0.53626 0.56842 0.0
H263 H 0.39223 0.57557 0.64897 0.0
H264 H 0.41331 0.56173 0.64347 0.0
H265 H 0.37833 0.54015 0.64809 0.0
C266 C 0.4488 0.52869 0.61543 0.0
C267 C 0.43587 0.50884 0.63113 0.0
C268 C 0.435 0.53927 0.60462 0.0
C269 C 0.40813 0.53003 0.60936 0.0
C270 C 0.39464 0.50841 0.62345 0.0
H271 H 0.29682 0.5746 0.55825 0.0
H272 H 0.32244 0.55251 0.56564 0.0
C273 C 0.40844 0.49802 0.63437 0.0
C274 C 0.39514 0.545 0.60191 0.0
H275 H 0.36844 0.58171 0.62077 0.0
C276 C 0.39066 0.54626 0.5798 0.0
C277 C 0.38761 0.55851 0.61679 0.0
C278 C 0.39331 0.55921 0.64064 0.0
C279 C 0.37818 0.56014 0.57224 0.0
C280 C 0.36973 0.57276 0.58724 0.0
C281 C 0.37477 0.57192 0.60928 0.0
C282 C 0.3554 0.58684 0.5807 0.0
C283 C 0.37453 0.5615 0.54827 0.0
C284 C 0.36523 0.61342 0.58687 0.0
C285 C 0.35048 0.62597 0.58291 0.0
C286 C 0.32556 0.61218 0.57272 0.0
C287 C 0.31603 0.58579 0.56603 0.0
C288 C 0.33075 0.5732 0.5701 0.0
H289 H 0.38862 0.55776 0.53892 0.0
H290 H 0.35404 0.54604 0.54375 0.0
H291 H 0.37736 0.58119 0.54357 0.0
H292 H 0.38413 0.6243 0.59517 0.0
H293 H 0.35836 0.64631 0.58824 0.0
H294 H 0.96169 0.41883 0.78731 0.0
H295 H 0.92065 0.39008 0.76709 0.0
H296 H 0.89141 0.44329 0.78228 0.0
H297 H 0.93232 0.47211 0.80186 0.0
H298 H 0.87227 0.36416 0.78531 0.0
H299 H 0.86936 0.42727 0.72021 0.0
H300 H 0.8995 0.43581 0.73483 0.0
H301 H 0.87576 0.44409 0.74563 0.0
C302 C 0.94683 0.42475 0.78567 0.0
C303 C 0.95011 0.44762 0.79618 0.0
C304 C 0.92335 0.40828 0.77425 0.0
C305 C 0.90301 0.41464 0.77295 0.0
C306 C 0.90696 0.4382 0.78256 0.0
H307 H 0.73547 0.31928 0.77996 0.0
H308 H 0.78361 0.34518 0.78484 0.0
C309 C 0.93028 0.45456 0.79394 0.0
C310 C 0.87638 0.39538 0.76409 0.0
H311 H 0.82638 0.39159 0.73253 0.0
C312 C 0.86244 0.36997 0.77342 0.0
C313 C 0.86356 0.40271 0.74835 0.0
C314 C 0.87797 0.42887 0.73653 0.0
C315 C 0.83559 0.35244 0.76852 0.0
C316 C 0.82212 0.36075 0.75426 0.0
C317 C 0.83652 0.3854 0.74379 0.0
C318 C 0.79287 0.34488 0.75105 0.0
C319 C 0.8218 0.32535 0.77897 0.0
C320 C 0.78195 0.33683 0.73032 0.0
C321 C 0.75432 0.32222 0.72746 0.0
C322 C 0.73715 0.31554 0.74527 0.0
C323 C 0.74815 0.32394 0.76594 0.0
C324 C 0.7757 0.33857 0.76877 0.0
H325 H 0.83619 0.3188 0.78326 0.0
H326 H 0.81209 0.32628 0.79409 0.0
H327 H 0.80633 0.3102 0.76821 0.0
H328 H 0.79481 0.34169 0.71639 0.0
H329 H 0.74642 0.31607 0.71132 0.0
H330 H 0.53115 0.95627 0.93978 0.0
H331 H 0.51554 0.91528 0.91862 0.0
H332 H 0.54331 0.88334 0.96851 0.0
H333 H 0.55944 0.92427 0.98926 0.0
H334 H 0.55029 0.86865 0.92785 0.0
H335 H 0.44724 0.84991 0.93901 0.0
H336 H 0.46979 0.87991 0.92495 0.0
H337 H 0.47533 0.87628 0.95295 0.0
C338 C 0.53462 0.94079 0.94584 0.0
C339 C 0.54617 0.94325 0.96626 0.0
C340 C 0.52544 0.91729 0.93389 0.0
C341 C 0.52765 0.89598 0.94225 0.0
C342 C 0.54119 0.8994 0.96179 0.0
H343 H 0.43131 0.72866 0.94195 0.0
H344 H 0.45459 0.77682 0.94695 0.0
C345 C 0.55035 0.92277 0.97367 0.0
C346 C 0.51384 0.8692 0.93211 0.0
H347 H 0.45189 0.81574 0.92356 0.0
C348 C 0.5288 0.85717 0.92655 0.0
C349 C 0.48574 0.85416 0.93074 0.0
C350 C 0.46847 0.86554 0.93735 0.0
C351 C 0.51642 0.83027 0.92043 0.0
C352 C 0.48832 0.81513 0.91949 0.0
C353 C 0.47342 0.82744 0.92422 0.0
C354 C 0.47387 0.78593 0.91575 0.0
C355 C 0.53346 0.81793 0.91621 0.0
C356 C 0.47669 0.77499 0.89642 0.0
C357 C 0.46345 0.74735 0.89355 0.0
C358 C 0.44702 0.73023 0.90992 0.0
C359 C 0.44384 0.74129 0.92904 0.0
C360 C 0.45711 0.76883 0.93191 0.0
H361 H 0.55427 0.83087 0.92179 0.0
H362 H 0.52512 0.79836 0.92439 0.0
H363 H 0.53391 0.81467 0.89862 0.0
H364 H 0.48912 0.7878 0.88356 0.0
H365 H 0.46618 0.7394 0.87858 0.0
H366 H 0.59241 0.4815 0.13987 0.0
H367 H 0.62022 0.46869 0.11961 0.0
H368 H 0.66956 0.54981 0.09851 0.0
H369 H 0.6419 0.5629 0.11932 0.0
H370 H 0.63609 0.47256 0.07663 0.0
H371 H 0.72179 0.53415 0.13092 0.0
H372 H 0.68852 0.52714 0.13689 0.0
H373 H 0.70788 0.55127 0.11665 0.0
C374 C 0.60899 0.49656 0.13068 0.0
C375 C 0.61524 0.52326 0.1314 0.0
C376 C 0.62481 0.4892 0.11906 0.0
C377 C 0.64728 0.50837 0.10791 0.0
C378 C 0.65259 0.53478 0.10735 0.0
H379 H 0.77377 0.47959 0.06146 0.0
H380 H 0.74681 0.50077 0.06681 0.0
C381 C 0.63666 0.54219 0.11903 0.0
C382 C 0.66584 0.5006 0.0984 0.0
H383 H 0.72703 0.50696 0.10589 0.0
C384 C 0.65612 0.48034 0.0828 0.0
C385 C 0.69197 0.51074 0.10649 0.0
C386 C 0.70322 0.53189 0.12377 0.0
C387 C 0.6715 0.46943 0.07555 0.0
C388 C 0.69713 0.47873 0.08437 0.0
C389 C 0.70735 0.49983 0.09919 0.0
C390 C 0.71285 0.46555 0.07976 0.0
C391 C 0.66002 0.44777 0.05872 0.0
C392 C 0.7028 0.4388 0.08542 0.0
C393 C 0.71815 0.4267 0.08246 0.0
C394 C 0.74394 0.44116 0.07387 0.0
C395 C 0.75394 0.46791 0.06807 0.0
C396 C 0.73857 0.48004 0.0711 0.0
H397 H 0.64447 0.44871 0.04896 0.0
H398 H 0.67573 0.44911 0.04773 0.0
H399 H 0.65064 0.42812 0.06686 0.0
H400 H 0.68326 0.4274 0.09261 0.0
H401 H 0.70993 0.4061 0.08718 0.0
H402 H 0.4254 0.9533 0.51797 0.0
H403 H 0.39711 0.9119 0.53781 0.0
H404 H 0.45085 0.88366 0.52158 0.0
H405 H 0.47933 0.925 0.50242 0.0
H406 H 0.37145 0.86379 0.51919 0.0
H407 H 0.43552 0.86092 0.58355 0.0
H408 H 0.44368 0.89111 0.56919 0.0
H409 H 0.452 0.86759 0.55797 0.0
C410 C 0.43156 0.93858 0.51928 0.0
C411 C 0.45449 0.9423 0.5086 0.0
C412 C 0.41533 0.91489 0.5305 0.0
C413 C 0.42196 0.89473 0.5314 0.0
C414 C 0.44555 0.89907 0.52158 0.0
H415 H 0.3261 0.72673 0.52496 0.0
H416 H 0.35221 0.77481 0.51971 0.0
C417 C 0.4617 0.92262 0.51042 0.0
C418 C 0.40295 0.86796 0.54012 0.0
H419 H 0.39962 0.81803 0.57146 0.0
C420 C 0.37744 0.85398 0.53095 0.0
C421 C 0.41053 0.85518 0.55569 0.0
C422 C 0.43684 0.86963 0.56732 0.0
C423 C 0.35998 0.82714 0.53591 0.0
C424 C 0.36847 0.81373 0.55005 0.0
C425 C 0.39328 0.82815 0.5603 0.0
C426 C 0.35253 0.78452 0.55347 0.0
C427 C 0.33274 0.81332 0.52569 0.0
C428 C 0.34475 0.77389 0.57429 0.0
C429 C 0.33002 0.74632 0.57737 0.0
C430 C 0.32294 0.72891 0.55967 0.0
C431 C 0.33107 0.73961 0.5389 0.0
C432 C 0.34582 0.76712 0.53585 0.0
H433 H 0.32619 0.82772 0.52141 0.0
H434 H 0.33342 0.80342 0.5106 0.0
H435 H 0.31772 0.79801 0.53661 0.0
H436 H 0.3499 0.78694 0.58814 0.0
H437 H 0.3241 0.73865 0.59357 0.0
H438 H 0.5804 0.47203 0.66925 0.0
H439 H 0.59386 0.4445 0.68914 0.0
H440 H 0.51245 0.39215 0.70817 0.0
H441 H 0.49865 0.41925 0.68744 0.0
H442 H 0.59064 0.42776 0.73055 0.0
H443 H 0.52983 0.34181 0.6764 0.0
H444 H 0.53538 0.37468 0.67094 0.0
H445 H 0.51173 0.35423 0.69112 0.0
C446 C 0.56536 0.45476 0.67782 0.0
C447 C 0.53839 0.44751 0.67645 0.0
C448 C 0.5731 0.43911 0.68928 0.0
C449 C 0.5541 0.41588 0.69972 0.0
C450 C 0.52737 0.40963 0.69978 0.0
H451 H 0.58434 0.29147 0.7489 0.0
H452 H 0.56358 0.31879 0.74339 0.0
C453 C 0.51955 0.4253 0.68817 0.0
C454 C 0.56244 0.39764 0.70908 0.0
H455 H 0.5565 0.33656 0.70205 0.0
C456 C 0.58295 0.4077 0.7245 0.0
C457 C 0.55248 0.37148 0.70112 0.0
C458 C 0.5313 0.35988 0.68386 0.0
C459 C 0.59421 0.3926 0.73173 0.0
C460 C 0.58484 0.36685 0.72321 0.0
C461 C 0.5636 0.35633 0.70853 0.0
C462 C 0.59801 0.35121 0.72808 0.0
C463 C 0.61631 0.40444 0.74817 0.0
C464 C 0.62421 0.36036 0.72122 0.0
C465 C 0.63604 0.34475 0.72419 0.0
C466 C 0.62188 0.31968 0.7341 0.0
C467 C 0.59579 0.31074 0.74128 0.0
C468 C 0.58389 0.3263 0.73815 0.0
H469 H 0.61633 0.42093 0.75727 0.0
H470 H 0.61458 0.38911 0.75979 0.0
H471 H 0.6357 0.41258 0.73978 0.0
H472 H 0.63528 0.37932 0.71305 0.0
H473 H 0.65613 0.35214 0.71843 0.0
H474 H 0.13505 0.56556 0.833 0.0
H475 H 0.17548 0.57841 0.85375 0.0
H476 H 0.1445 0.49676 0.87291 0.0
H477 H 0.10377 0.48375 0.85183 0.0
H478 H 0.18632 0.57192 0.89765 0.0
H479 H 0.21386 0.51648 0.83963 0.0
H480 H 0.18755 0.52355 0.83406 0.0
H481 H 0.18232 0.49808 0.85307 0.0
C482 C 0.13666 0.55045 0.84201 0.0
C483 C 0.11646 0.52367 0.84076 0.0
C484 C 0.15972 0.55779 0.85386 0.0
C485 C 0.16317 0.5385 0.86459 0.0
C486 C 0.14234 0.5119 0.86449 0.0
H487 H 0.32069 0.57001 0.90749 0.0
H488 H 0.27239 0.54744 0.90226 0.0
C489 C 0.11905 0.50452 0.85265 0.0
C490 C 0.18953 0.54639 0.87417 0.0
H491 H 0.24593 0.54342 0.86503 0.0
C492 C 0.19924 0.56539 0.89077 0.0
C493 C 0.20636 0.53786 0.86515 0.0
C494 C 0.19721 0.518 0.8469 0.0
C495 C 0.22558 0.57667 0.89815 0.0
C496 C 0.24282 0.56917 0.88834 0.0
C497 C 0.23273 0.54923 0.87248 0.0
C498 C 0.2718 0.58306 0.89307 0.0
C499 C 0.23474 0.59674 0.91621 0.0
C500 C 0.28757 0.61056 0.8895 0.0
C501 C 0.31512 0.62348 0.8925 0.0
C502 C 0.32751 0.60912 0.89891 0.0
C503 C 0.31171 0.58162 0.90258 0.0
C504 C 0.28412 0.5687 0.89961 0.0
H505 H 0.21781 0.59369 0.92652 0.0
H506 H 0.24982 0.59566 0.9265 0.0
H507 H 0.2438 0.61703 0.90925 0.0
H508 H 0.27866 0.62196 0.88388 0.0
H509 H 0.32675 0.64464 0.88941 0.0
H510 H 0.65202 0.09997 0.01801 0.0
H511 H 0.67944 0.14157 0.03804 0.0
H512 H 0.62112 0.16516 0.02568 0.0
H513 H 0.59393 0.12385 0.0058 0.0
H514 H 0.69985 0.19044 0.01746 0.0
H515 H 0.64101 0.1875 0.08857 0.0
H516 H 0.63464 0.15788 0.0741 0.0
H517 H 0.62185 0.17837 0.06413 0.0
C518 C 0.64472 0.11367 0.02031 0.0
C519 C 0.62088 0.10878 0.01056 0.0
C520 C 0.6604 0.13743 0.03162 0.0
C521 C 0.65219 0.15636 0.03355 0.0
C522 C 0.6276 0.15066 0.02483 0.0
H523 H 0.7324 0.32458 0.02895 0.0
H524 H 0.70768 0.27638 0.02371 0.0
C525 C 0.61212 0.12712 0.01342 0.0
C526 C 0.67064 0.1835 0.04181 0.0
H527 H 0.67415 0.23118 0.07611 0.0
C528 C 0.69448 0.19918 0.03058 0.0
C529 C 0.66371 0.19491 0.05897 0.0
C530 C 0.63902 0.1787 0.07228 0.0
C531 C 0.7108 0.22631 0.03523 0.0
C532 C 0.70295 0.23811 0.05141 0.0
C533 C 0.67994 0.22214 0.06352 0.0
C534 C 0.71759 0.26725 0.05501 0.0
C535 C 0.73603 0.24232 0.02246 0.0
C536 C 0.73086 0.27805 0.07455 0.0
C537 C 0.74508 0.30566 0.07758 0.0
C538 C 0.74596 0.32285 0.0612 0.0
C539 C 0.73217 0.31188 0.04184 0.0
C540 C 0.71814 0.28436 0.03878 0.0
H541 H 0.74271 0.22939 0.0148 0.0
H542 H 0.73238 0.25325 0.00947 0.0
H543 H 0.75227 0.25711 0.03288 0.0
H544 H 0.73053 0.26514 0.0873 0.0
H545 H 0.75545 0.31353 0.0927 0.0
H546 H 0.52699 0.58951 0.19924 0.0
H547 H 0.51111 0.61518 0.21958 0.0
H548 H 0.54351 0.67637 0.17084 0.0
H549 H 0.5597 0.65112 0.15081 0.0
H550 H 0.54829 0.69658 0.21278 0.0
H551 H 0.44545 0.61518 0.19458 0.0
H552 H 0.46612 0.60593 0.20947 0.0
H553 H 0.47433 0.61703 0.18205 0.0
C554 C 0.53146 0.60886 0.19332 0.0
C555 C 0.54434 0.61828 0.1734 0.0
C556 C 0.52215 0.62335 0.20479 0.0
C557 C 0.52561 0.64739 0.19645 0.0
C558 C 0.54047 0.65781 0.17752 0.0
H559 H 0.43446 0.72482 0.19581 0.0
H560 H 0.45674 0.69912 0.18983 0.0
C561 C 0.5497 0.64338 0.16608 0.0
C562 C 0.51167 0.66054 0.20587 0.0
H563 H 0.44991 0.65343 0.21116 0.0
C564 C 0.52677 0.68705 0.21277 0.0
C565 C 0.48358 0.64816 0.20547 0.0
C566 C 0.46632 0.62009 0.19736 0.0
C567 C 0.51457 0.70174 0.21877 0.0
C568 C 0.48651 0.68945 0.21808 0.0
C569 C 0.4714 0.66273 0.21176 0.0
C570 C 0.47253 0.70448 0.22223 0.0
C571 C 0.53184 0.73064 0.22478 0.0
C572 C 0.47365 0.71568 0.24254 0.0
C573 C 0.46092 0.7304 0.246 0.0
C574 C 0.44676 0.73408 0.22922 0.0
C575 C 0.44523 0.72238 0.20904 0.0
C576 C 0.45794 0.70768 0.20561 0.0
H577 H 0.55302 0.73842 0.22043 0.0
H578 H 0.52477 0.743 0.21666 0.0
H579 H 0.53073 0.7329 0.24246 0.0
H580 H 0.48441 0.71308 0.2557 0.0
H581 H 0.46237 0.73909 0.26175 0.0
H582 H 0.93458 0.56088 0.32236 0.0
H583 H 0.89359 0.54341 0.34311 0.0
H584 H 0.92059 0.50286 0.3855 0.0
H585 H 0.96162 0.51994 0.36427 0.0
H586 H 0.87269 0.4693 0.36862 0.0
H587 H 0.87005 0.55657 0.4004 0.0
H588 H 0.87719 0.56024 0.37208 0.0
H589 H 0.9003 0.55868 0.39059 0.0
C590 C 0.93211 0.54886 0.33648 0.0
C591 C 0.95121 0.54166 0.34167 0.0
C592 C 0.90873 0.53902 0.34845 0.0
C593 C 0.90402 0.52197 0.36601 0.0
C594 C 0.92385 0.51611 0.37209 0.0
H595 H 0.74769 0.45603 0.4287 0.0
H596 H 0.79591 0.47785 0.42352 0.0
C597 C 0.94736 0.52601 0.36007 0.0
C598 C 0.87708 0.50759 0.37583 0.0
H599 H 0.82712 0.51674 0.39486 0.0
C600 C 0.86291 0.47968 0.37478 0.0
C601 C 0.86432 0.521 0.3841 0.0
C602 C 0.87889 0.55077 0.38707 0.0
C603 C 0.83595 0.46498 0.38053 0.0
C604 C 0.82263 0.47856 0.3871 0.0
C605 C 0.83719 0.50633 0.38944 0.0
C606 C 0.79341 0.46447 0.39058 0.0
C607 C 0.82192 0.43504 0.37924 0.0
C608 C 0.77596 0.44986 0.37374 0.0
C609 C 0.74843 0.43733 0.37667 0.0
C610 C 0.7378 0.43936 0.39645 0.0
C611 C 0.75528 0.45403 0.41329 0.0
C612 C 0.78284 0.46653 0.41036 0.0
H613 H 0.83616 0.42766 0.38086 0.0
H614 H 0.80652 0.42568 0.39197 0.0
H615 H 0.81208 0.42853 0.36328 0.0
H616 H 0.78365 0.44852 0.35817 0.0
H617 H 0.7355 0.42635 0.36334 0.0
H618 H 0.11719 0.62438 0.37263 0.0
H619 H 0.13666 0.62543 0.4077 0.0
H620 H 0.08341 0.54101 0.41474 0.0
H621 H 0.06417 0.53976 0.37903 0.0
H622 H 0.11668 0.61174 0.44874 0.0
H623 H 0.15716 0.54842 0.4197 0.0
H624 H 0.14323 0.56253 0.40157 0.0
H625 H 0.12173 0.53431 0.41793 0.0
C626 C 0.10948 0.60605 0.38172 0.0
C627 C 0.0895 0.58191 0.37302 0.0
C628 C 0.12053 0.6067 0.40179 0.0
C629 C 0.11184 0.58323 0.41364 0.0
C630 C 0.09074 0.55926 0.40563 0.0
H631 H 0.1863 0.6028 0.54112 0.0
H632 H 0.15248 0.58845 0.51284 0.0
C633 C 0.0796 0.55859 0.38539 0.0
C634 C 0.12627 0.58425 0.43367 0.0
H635 H 0.16989 0.5668 0.45432 0.0
C636 C 0.12801 0.60161 0.45016 0.0
C637 C 0.14132 0.57129 0.43527 0.0
C638 C 0.14104 0.55322 0.41766 0.0
C639 C 0.14516 0.60717 0.46781 0.0
C640 C 0.1605 0.5945 0.46925 0.0
C641 C 0.15803 0.5764 0.45317 0.0
C642 C 0.18061 0.60124 0.48647 0.0
C643 C 0.14774 0.62766 0.48409 0.0
C644 C 0.20757 0.61224 0.48102 0.0
C645 C 0.22692 0.62016 0.49714 0.0
C646 C 0.21962 0.61726 0.51899 0.0
C647 C 0.19255 0.60553 0.5244 0.0
C648 C 0.1732 0.59743 0.50828 0.0
H649 H 0.13935 0.63989 0.47796 0.0
H650 H 0.13674 0.61742 0.49895 0.0
H651 H 0.16889 0.64114 0.48849 0.0
H652 H 0.2137 0.61527 0.46427 0.0
H653 H 0.24761 0.62906 0.4925 0.0
H654 H 0.50159 0.10213 0.54483 0.0
H655 H 0.52213 0.1245 0.57879 0.0
H656 H 0.57395 0.09142 0.57685 0.0
H657 H 0.55349 0.06902 0.54266 0.0
H658 H 0.53107 0.10491 0.6202 0.0
H659 H 0.62356 0.17466 0.57581 0.0
H660 H 0.5923 0.1543 0.56216 0.0
H661 H 0.61088 0.13959 0.57231 0.0
C662 C 0.51705 0.09926 0.55186 0.0
C663 C 0.52611 0.08403 0.54111 0.0
C664 C 0.52871 0.11199 0.57123 0.0
C665 C 0.54976 0.10987 0.5801 0.0
C666 C 0.55787 0.09345 0.57009 0.0
H667 H 0.65673 0.2114 0.68243 0.0
H668 H 0.63622 0.17802 0.65383 0.0
C669 C 0.54605 0.08052 0.55071 0.0
C670 C 0.56431 0.12656 0.59888 0.0
H671 H 0.62184 0.18294 0.61264 0.0
C672 C 0.55102 0.12181 0.61867 0.0
C673 C 0.59033 0.14856 0.59674 0.0
C674 C 0.60518 0.15484 0.57562 0.0
C675 C 0.56296 0.13877 0.63637 0.0
C676 C 0.58856 0.16141 0.63398 0.0
C677 C 0.60219 0.16563 0.61439 0.0
C678 C 0.60103 0.18163 0.65124 0.0
C679 C 0.54801 0.13229 0.65744 0.0
C680 C 0.58836 0.19519 0.65886 0.0
C681 C 0.6 0.21422 0.67516 0.0
C682 C 0.62468 0.22024 0.68398 0.0
C683 C 0.6377 0.20717 0.67594 0.0
C684 C 0.62598 0.18805 0.65966 0.0
H685 H 0.5331 0.11076 0.65864 0.0
H686 H 0.56176 0.13797 0.67142 0.0
H687 H 0.5372 0.14348 0.65847 0.0
H688 H 0.56945 0.19108 0.65218 0.0
H689 H 0.58956 0.22407 0.68095 0.0
H690 H 0.42289 0.4954 0.70855 0.0
H691 H 0.42044 0.51566 0.74232 0.0
H692 H 0.50608 0.56198 0.74477 0.0
H693 H 0.50864 0.54227 0.71046 0.0
H694 H 0.44015 0.51896 0.78336 0.0
H695 H 0.48395 0.61867 0.74495 0.0
H696 H 0.47307 0.58864 0.72952 0.0
H697 H 0.50412 0.60331 0.74387 0.0
C698 C 0.44122 0.50974 0.71638 0.0
C699 C 0.46595 0.51755 0.70674 0.0
C700 C 0.43979 0.52122 0.7357 0.0
C701 C 0.46305 0.54073 0.74579 0.0
C702 C 0.48788 0.54734 0.73698 0.0
H703 H 0.45592 0.60523 0.8716 0.0
H704 H 0.46705 0.58475 0.84202 0.0
C705 C 0.48933 0.53585 0.71754 0.0
C706 C 0.46086 0.55498 0.76479 0.0
H707 H 0.47173 0.61564 0.78149 0.0
C708 C 0.44726 0.54014 0.78307 0.0
C709 C 0.46975 0.58254 0.76415 0.0
C710 C 0.48334 0.59927 0.74454 0.0
C711 C 0.442 0.55203 0.80063 0.0
C712 C 0.45106 0.57962 0.80006 0.0
C713 C 0.46495 0.59453 0.78191 0.0
C714 C 0.44545 0.59318 0.8178 0.0
C715 C 0.42592 0.53474 0.81928 0.0
C716 C 0.43041 0.60557 0.81384 0.0
C717 C 0.42423 0.61755 0.83069 0.0
C718 C 0.43304 0.61734 0.85176 0.0
C719 C 0.44865 0.60551 0.85556 0.0
C720 C 0.45492 0.59366 0.83871 0.0
H721 H 0.41498 0.51333 0.81486 0.0
H722 H 0.43948 0.53734 0.83285 0.0
H723 H 0.41137 0.54043 0.82503 0.0
H724 H 0.42304 0.60552 0.79777 0.0
H725 H 0.41222 0.62656 0.82729 0.0
H726 H 0.95255 0.49865 0.85987 0.0
H727 H 0.9311 0.49275 0.89492 0.0
H728 H 0.97844 0.46112 0.92089 0.0
H729 H 0.99983 0.46676 0.88561 0.0
H730 H 0.92366 0.42714 0.92469 0.0
H731 H 0.95163 0.5277 0.9544 0.0
H732 H 0.94056 0.5222 0.92686 0.0
H733 H 0.97052 0.52213 0.93402 0.0
C734 C 0.95891 0.49116 0.87324 0.0
C735 C 0.97775 0.48306 0.87008 0.0
C736 C 0.94677 0.48795 0.89329 0.0
C737 C 0.95331 0.47667 0.91055 0.0
C738 C 0.97327 0.47003 0.90779 0.0
H739 H 0.86442 0.40784 0.0296 0.0
H740 H 0.89738 0.42274 0.0007 0.0
C741 C 0.98557 0.47339 0.88772 0.0
C742 C 0.93666 0.46845 0.93024 0.0
H743 H 0.91243 0.49124 0.96988 0.0
C744 C 0.92152 0.44117 0.93481 0.0
C745 C 0.9337 0.48679 0.94323 0.0
C746 C 0.95015 0.51637 0.93952 0.0
C747 C 0.90271 0.43161 0.95151 0.0
C748 C 0.89937 0.44991 0.96425 0.0
C749 C 0.91495 0.47725 0.96001 0.0
C750 C 0.87947 0.44099 0.98183 0.0
C751 C 0.88585 0.40195 0.95479 0.0
C752 C 0.85874 0.44675 0.981 0.0
C753 C 0.83992 0.43838 -0.00242 0.0
C754 C 0.84161 0.42419 0.01527 0.0
C755 C 0.86243 0.4185 0.01606 0.0
C756 C 0.88126 0.42695 -0.00046 0.0
H757 H 0.88617 0.39067 0.94043 0.0
H758 H 0.89368 0.39597 0.96872 0.0
H759 H 0.8649 0.39615 0.95831 0.0
H760 H 0.85706 0.45764 0.96748 0.0
H761 H 0.82419 0.44318 -0.0034 0.0
H762 H 0.56582 0.99081 0.05576 0.0
H763 H 0.54777 0.96792 0.09028 0.0
H764 H 0.47118 0.91956 0.06032 0.0
H765 H 0.48923 0.94198 0.02586 0.0
H766 H 0.50243 0.95625 0.1174 0.0
H767 H 0.4949 0.86637 0.07912 0.0
H768 H 0.51342 0.89901 0.06721 0.0
H769 H 0.47782 0.88014 0.06467 0.0
C770 C 0.54496 0.97582 0.05679 0.0
C771 C 0.52891 0.9679 0.03824 0.0
C772 C 0.53472 0.96271 0.07642 0.0
C773 C 0.50833 0.94168 0.07765 0.0
C774 C 0.49174 0.93539 0.05956 0.0
H775 H 0.4103 0.81807 0.16742 0.0
H776 H 0.42882 0.8498 0.1376 0.0
C777 C 0.50199 0.94827 0.03996 0.0
C778 C 0.49874 0.92457 0.09705 0.0
H779 H 0.47528 0.86062 0.11366 0.0
C780 C 0.49662 0.93538 0.11668 0.0
C781 C 0.49144 0.89741 0.09604 0.0
C782 C 0.49472 0.88505 0.0757 0.0
C783 C 0.48648 0.91942 0.1352 0.0
C784 C 0.47859 0.89214 0.13398 0.0
C785 C 0.48117 0.88151 0.11446 0.0
C786 C 0.46723 0.87399 0.15265 0.0
C787 C 0.48361 0.93162 0.15577 0.0
C788 C 0.48281 0.87701 0.17089 0.0
C789 C 0.47233 0.85882 0.18791 0.0
C790 C 0.44612 0.83732 0.18691 0.0
C791 C 0.43055 0.83444 0.16864 0.0
C792 C 0.44107 0.85255 0.15163 0.0
H793 H 0.48553 0.95138 0.15291 0.0
H794 H 0.46407 0.91836 0.16345 0.0
H795 H 0.49939 0.93424 0.16727 0.0
H796 H 0.5032 0.89316 0.17179 0.0
H797 H 0.48479 0.86153 0.20178 0.0
H798 H 0.5982 0.5587 0.22111 0.0
H799 H 0.60383 0.54482 0.25727 0.0
H800 H 0.57728 0.46575 0.23325 0.0
H801 H 0.57112 0.4793 0.19741 0.0
H802 H 0.55831 0.46668 0.27498 0.0
H803 H 0.6678 0.53392 0.26759 0.0
H804 H 0.6476 0.54917 0.26515 0.0
H805 H 0.64558 0.52611 0.24493 0.0
C806 C 0.59294 0.53821 0.22375 0.0
C807 C 0.58457 0.52015 0.20646 0.0
C808 C 0.5964 0.53038 0.2443 0.0
C809 C 0.59151 0.50442 0.24777 0.0
C810 C 0.58135 0.48592 0.23087 0.0
H811 H 0.6192 0.4063 0.33356 0.0
H812 H 0.60529 0.42618 0.30533 0.0
C813 C 0.57794 0.49371 0.2104 0.0
C814 C 0.59879 0.49672 0.26834 0.0
H815 H 0.65244 0.50613 0.29793 0.0
C816 C 0.57884 0.47551 0.28017 0.0
C817 C 0.62563 0.50824 0.27501 0.0
C818 C 0.64799 0.5305 0.26249 0.0
C819 C 0.58508 0.46511 0.29824 0.0
C820 C 0.612 0.47595 0.30438 0.0
C821 C 0.63183 0.49784 0.2931 0.0
C822 C 0.62016 0.46393 0.32167 0.0
C823 C 0.56284 0.44244 0.31048 0.0
C824 C 0.63381 0.47884 0.33991 0.0
C825 C 0.64192 0.46758 0.35601 0.0
C826 C 0.63672 0.44129 0.35402 0.0
C827 C 0.62342 0.42656 0.33557 0.0
C828 C 0.61527 0.43781 0.31952 0.0
H829 H 0.54353 0.44159 0.30777 0.0
H830 H 0.56079 0.42339 0.30482 0.0
H831 H 0.56706 0.44423 0.32807 0.0
H832 H 0.63801 0.49913 0.34174 0.0
H833 H 0.65216 0.47942 0.37004 0.0
H834 H 0.51065 0.95119 0.44516 0.0
H835 H 0.50571 0.92946 0.4103 0.0
H836 H 0.46441 0.9681 0.38525 0.0
H837 H 0.46981 0.99029 0.42009 0.0
H838 H 0.45537 0.89457 0.39584 0.0
H839 H 0.5106 0.97218 0.33396 0.0
H840 H 0.5172 0.97826 0.3625 0.0
H841 H 0.48885 0.97807 0.3507 0.0
C842 C 0.50135 0.95573 0.43195 0.0
C843 C 0.49059 0.97234 0.43522 0.0
C844 C 0.49847 0.94328 0.41209 0.0
C845 C 0.48471 0.94716 0.39517 0.0
C846 C 0.47551 0.96517 0.39794 0.0
H847 H 0.41244 0.85485 0.27847 0.0
H848 H 0.42646 0.88707 0.30815 0.0
C849 C 0.47859 0.97784 0.41783 0.0
C850 C 0.47678 0.9295 0.37604 0.0
H851 H 0.48114 0.92838 0.32113 0.0
C852 C 0.46117 0.90199 0.37952 0.0
C853 C 0.48404 0.93924 0.35476 0.0
C854 C 0.50128 0.96854 0.35018 0.0
C855 C 0.45266 0.88392 0.36233 0.0
C856 C 0.46022 0.89358 0.34109 0.0
C857 C 0.47548 0.9211 0.33749 0.0
C858 C 0.45278 0.87516 0.32257 0.0
C859 C 0.43537 0.85461 0.36699 0.0
C860 C 0.4632 0.85809 0.3208 0.0
C861 C 0.45525 0.83971 0.30396 0.0
C862 C 0.43673 0.83811 0.28857 0.0
C863 C 0.42663 0.85554 0.29017 0.0
C864 C 0.43469 0.87401 0.30702 0.0
H865 H 0.42642 0.85096 0.38335 0.0
H866 H 0.41914 0.84501 0.3549 0.0
H867 H 0.44762 0.84491 0.36605 0.0
H868 H 0.47737 0.85888 0.33257 0.0
H869 H 0.46349 0.82666 0.30307 0.0
H870 H 0.58497 0.50007 0.61236 0.0
H871 H 0.60126 0.49409 0.57766 0.0
H872 H 0.52146 0.45598 0.55216 0.0
H873 H 0.50507 0.4621 0.58696 0.0
H874 H 0.58082 0.44101 0.56309 0.0
H875 H 0.56816 0.50349 0.50151 0.0
H876 H 0.5702 0.5106 0.53006 0.0
H877 H 0.54016 0.48395 0.51882 0.0
C878 C 0.57106 0.49118 0.59912 0.0
C879 C 0.54378 0.48142 0.60229 0.0
C880 C 0.58036 0.48775 0.57935 0.0
C881 C 0.56257 0.47459 0.56238 0.0
C882 C 0.53556 0.46653 0.56497 0.0
H883 H 0.58325 0.40687 0.44325 0.0
H884 H 0.5649 0.42042 0.47303 0.0
C885 C 0.52622 0.47006 0.58481 0.0
C886 C 0.57176 0.46598 0.54339 0.0
H887 H 0.58142 0.47338 0.48893 0.0
C888 C 0.58104 0.44816 0.54688 0.0
C889 C 0.57162 0.47505 0.52227 0.0
C890 C 0.56218 0.49447 0.51782 0.0
C891 C 0.59037 0.43926 0.52983 0.0
C892 C 0.59088 0.44882 0.50877 0.0
C893 C 0.58111 0.46623 0.50515 0.0
C894 C 0.60208 0.44129 0.49047 0.0
C895 C 0.59933 0.41946 0.53445 0.0
C896 C 0.62909 0.44877 0.49038 0.0
C897 C 0.6396 0.44104 0.47347 0.0
C898 C 0.62327 0.42574 0.45633 0.0
C899 C 0.59627 0.41851 0.45633 0.0
C900 C 0.58578 0.42633 0.47324 0.0
H901 H 0.59141 0.40909 0.55007 0.0
H902 H 0.59289 0.40434 0.52144 0.0
H903 H 0.62136 0.43006 0.53532 0.0
H904 H 0.64205 0.46062 0.50342 0.0
H905 H 0.6605 0.44706 0.47384 0.0
H906 H 0.07534 0.55219 0.76208 0.0
H907 H 0.097 0.57115 0.72729 0.0
H908 H 0.13271 0.52159 0.72826 0.0
H909 H 0.11123 0.50276 0.76281 0.0
H910 H 0.15364 0.59861 0.72312 0.0
H911 H 0.10554 0.51442 0.66574 0.0
H912 H 0.09023 0.51523 0.69088 0.0
H913 H 0.11547 0.50596 0.69056 0.0
C914 C 0.0872 0.54488 0.75448 0.0
C915 C 0.09166 0.52605 0.76497 0.0
C916 C 0.09963 0.55576 0.73474 0.0
C917 C 0.11623 0.54756 0.72514 0.0
C918 C 0.11961 0.52784 0.73518 0.0
H919 H 0.23625 0.5892 0.63024 0.0
H920 H 0.20328 0.57064 0.65916 0.0
C921 C 0.10746 0.5172 0.75493 0.0
C922 C 0.13249 0.56147 0.70601 0.0
H923 H 0.1485 0.55038 0.65564 0.0
C924 C 0.15224 0.58828 0.70817 0.0
C925 C 0.13066 0.54783 0.68665 0.0
C926 C 0.10917 0.51933 0.68319 0.0
C927 C 0.17118 0.60143 0.6919 0.0
C928 C 0.16994 0.58747 0.67284 0.0
C929 C 0.14951 0.56097 0.67034 0.0
C930 C 0.19039 0.59951 0.65573 0.0
C931 C 0.19313 0.62968 0.69571 0.0
C932 C 0.19413 0.62197 0.64429 0.0
C933 C 0.21311 0.63274 0.62785 0.0
C934 C 0.22848 0.62106 0.62248 0.0
C935 C 0.22478 0.59868 0.63406 0.0
C936 C 0.20589 0.588 0.65052 0.0
H937 H 0.19464 0.63545 0.71296 0.0
H938 H 0.21262 0.63243 0.69045 0.0
H939 H 0.18905 0.64339 0.68616 0.0
H940 H 0.18206 0.63088 0.64781 0.0
H941 H 0.21536 0.64986 0.61906 0.0
H942 H 0.63805 0.11225 0.93532 0.0
H943 H 0.63963 0.13223 0.90041 0.0
H944 H 0.55559 0.07814 0.89186 0.0
H945 H 0.55371 0.05858 0.92746 0.0
H946 H 0.62793 0.11363 0.85944 0.0
H947 H 0.5609 0.15047 0.88657 0.0
H948 H 0.5747 0.13657 0.90502 0.0
H949 H 0.54729 0.1151 0.88788 0.0
C950 C 0.61989 0.10453 0.92599 0.0
C951 C 0.59566 0.0842 0.93427 0.0
C952 C 0.62085 0.11586 0.90598 0.0
C953 C 0.59764 0.10707 0.89373 0.0
C954 C 0.57364 0.08562 0.90129 0.0
H955 H 0.61724 0.17973 0.76553 0.0
H956 H 0.60432 0.14656 0.79419 0.0
C957 C 0.57263 0.07427 0.92148 0.0
C958 C 0.59887 0.12158 0.87367 0.0
H959 H 0.57916 0.16291 0.85186 0.0
C960 C 0.61704 0.12416 0.85762 0.0
C961 C 0.5849 0.13559 0.87154 0.0
C962 C 0.566 0.13456 0.8887 0.0
C963 C 0.62231 0.14105 0.83985 0.0
C964 C 0.60846 0.15521 0.83778 0.0
C965 C 0.58966 0.15196 0.85347 0.0
C966 C 0.61449 0.17482 0.82026 0.0
C967 C 0.64365 0.14461 0.8241 0.0
C968 C 0.62346 0.20155 0.82537 0.0
C969 C 0.63047 0.22048 0.80902 0.0
C970 C 0.62872 0.213 0.78727 0.0
C971 C 0.61908 0.18612 0.78217 0.0
C972 C 0.61182 0.16716 0.79852 0.0
H973 H 0.65675 0.13758 0.83087 0.0
H974 H 0.63417 0.13288 0.80932 0.0
H975 H 0.65619 0.1658 0.8194 0.0
H976 H 0.62558 0.20788 0.84205 0.0
H977 H 0.63776 0.24104 0.81341 0.0
H978 H 0.4853 0.55668 0.11577 0.0
H979 H 0.46441 0.55973 0.08241 0.0
H980 H 0.54078 0.59703 0.05071 0.0
H981 H 0.56153 0.59325 0.08401 0.0
H982 H 0.4775 0.60759 0.06595 0.0
H983 H 0.49283 0.54831 0.00352 0.0
H984 H 0.49646 0.54431 0.032 0.0
H985 H 0.52284 0.57136 0.0173 0.0
C986 C 0.49737 0.56459 0.1014 0.0
C987 C 0.5249 0.57456 0.10225 0.0
C988 C 0.4855 0.56646 0.08242 0.0
C989 C 0.50099 0.5785 0.06402 0.0
C990 C 0.52832 0.58714 0.06453 0.0
H991 H 0.4797 0.64781 0.94796 0.0
H992 H 0.49627 0.63306 0.97814 0.0
C993 C 0.54019 0.58502 0.08352 0.0
C994 C 0.48921 0.58522 0.04554 0.0
H995 H 0.47998 0.57918 0.99096 0.0
C996 C 0.47776 0.6011 0.04959 0.0
C997 C 0.4898 0.57695 0.02419 0.0
C998 C 0.50092 0.55909 0.01897 0.0
C999 C 0.46732 0.60935 0.03285 0.0
C1000 C 0.46809 0.60126 0.01151 0.0
C1001 C 0.47942 0.5853 0.0074 0.0
C1002 C 0.45776 0.60976 0.99319 0.0
C1003 C 0.45625 0.62728 0.03805 0.0
C1004 C 0.43059 0.60144 0.99167 0.0
C1005 C 0.42105 0.60989 0.97447 0.0
C1006 C 0.43856 0.62674 0.95851 0.0
C1007 C 0.46575 0.63494 0.96007 0.0
C1008 C 0.47523 0.62645 0.97723 0.0
H1009 H 0.46229 0.63624 0.05437 0.0
H1010 H 0.46293 0.64353 0.02599 0.0
H1011 H 0.4342 0.61552 0.03754 0.0
H1012 H 0.41675 0.5883 0.00372 0.0
H1013 H 0.39998 0.60309 0.97359 0.0
H1014 H 0.99461 0.51057 0.26221 0.0
H1015 H 0.97458 0.49251 0.22683 0.0
H1016 H 0.93094 0.53443 0.23044 0.0
H1017 H 0.95154 0.55319 0.2651 0.0
H1018 H 0.92249 0.45997 0.21914 0.0
H1019 H 0.95724 0.55021 0.16951 0.0
H1020 H 0.97228 0.55064 0.19511 0.0
H1021 H 0.94255 0.55302 0.19404 0.0
C1022 C 0.98133 0.51649 0.25511 0.0
C1023 C 0.97454 0.53319 0.26643 0.0
C1024 C 0.96977 0.50604 0.23501 0.0
C1025 C 0.95148 0.51236 0.22587 0.0
C1026 C 0.94542 0.52972 0.23688 0.0
H1027 H 0.81538 0.41996 0.14539 0.0
H1028 H 0.84782 0.43983 0.17471 0.0
C1029 C 0.95698 0.5402 0.25683 0.0
C1030 C 0.93672 0.4991 0.20588 0.0
H1031 H 0.91639 0.51152 0.15785 0.0
C1032 C 0.9215 0.47121 0.20555 0.0
C1033 C 0.93572 0.51371 0.18801 0.0
C1034 C 0.95307 0.54353 0.18658 0.0
C1035 C 0.90429 0.45763 0.18832 0.0
C1036 C 0.90171 0.47239 0.17128 0.0
C1037 C 0.91796 0.50019 0.1711 0.0
C1038 C 0.88204 0.45956 0.15362 0.0
C1039 C 0.88907 0.42763 0.18862 0.0
C1040 C 0.89034 0.46465 0.13204 0.0
C1041 C 0.87181 0.45378 0.11533 0.0
C1042 C 0.84459 0.4375 0.11986 0.0
C1043 C 0.83625 0.43228 0.14145 0.0
C1044 C 0.85481 0.44343 0.1582 0.0
H1045 H 0.89952 0.41963 0.1984 0.0
H1046 H 0.86928 0.42061 0.19604 0.0
H1047 H 0.8861 0.41931 0.17206 0.0
H1048 H 0.9112 0.47713 0.12811 0.0
H1049 H 0.87884 0.45811 0.09883 0.0
loop_
_geom_bond_atom_site_label_1
_geom_bond_atom_site_label_2
_geom_bond_distance
_geom_bond_site_symmetry_2
_ccdc_geom_bond_type
H0 C6 0.930 . S
H1 C9 0.931 . S
H2 C11 0.931 . S
H3 C13 0.930 . S
H4 C15 0.930 . S
H5 C17 0.931 1_455 S
C6 H0 0.930 . S
C6 C7 1.380 . S
C6 C8 1.394 . S
C7 C6 1.380 . S
C7 C11 1.382 . S
C8 C6 1.394 . S
C8 C9 1.400 . S
C9 H1 0.931 . S
C9 C8 1.400 . S
C9 C10 1.375 . S
C10 C9 1.375 . S
C10 C11 1.415 . S
C10 C12 1.501 1_455 S
C11 H2 0.931 . S
C11 C7 1.382 . S
C11 C10 1.415 . S
C12 C10 1.501 1_655 S
C12 C13 1.384 . S
C12 C17 1.408 . S
C13 H3 0.930 . S
C13 C12 1.384 . S
C13 C14 1.389 . S
C14 C13 1.389 . S
C14 C15 1.405 . S
C15 H4 0.930 . S
C15 C14 1.405 . S
C15 C16 1.364 . S
C16 C15 1.364 . S
C16 C17 1.400 . S
C17 H5 0.931 1_655 S
C17 C12 1.408 . S
C17 C16 1.400 . S
H18 C24 0.930 . S
H19 C27 0.931 . S
H20 C29 0.931 . S
H21 C31 0.930 . S
H22 C33 0.930 . S
H23 C35 0.931 1_545 S
C24 H18 0.930 . S
C24 C25 1.380 . S
C24 C26 1.394 . S
C25 C24 1.380 . S
C25 C29 1.382 . S
C26 C24 1.394 . S
C26 C27 1.400 . S
C27 H19 0.931 . S
C27 C26 1.400 . S
C27 C28 1.375 . S
C28 C27 1.375 . S
C28 C29 1.415 . S
C28 C30 1.501 1_545 S
C29 H20 0.931 . S
C29 C25 1.382 . S
C29 C28 1.415 . S
C30 C28 1.501 1_565 S
C30 C31 1.384 . S
C30 C35 1.408 . S
C31 H21 0.930 . S
C31 C30 1.384 . S
C31 C32 1.389 . S
C32 C31 1.389 . S
C32 C33 1.405 . S
C33 H22 0.930 . S
C33 C32 1.405 . S
C33 C34 1.364 . S
C34 C33 1.364 . S
C34 C35 1.400 . S
C35 H23 0.931 1_565 S
C35 C30 1.408 . S
C35 C34 1.400 . S
H36 C42 0.930 . S
H37 C45 0.931 . S
H38 C47 0.931 . S
H39 C49 0.930 . S
H40 C51 0.930 . S
H41 C53 0.931 . S
C42 H36 0.930 . S
C42 C43 1.380 . S
C42 C44 1.394 . S
C43 C42 1.380 . S
C43 C47 1.382 . S
C44 C42 1.394 . S
C44 C45 1.400 . S
C45 H37 0.931 . S
C45 C44 1.400 . S
C45 C46 1.375 . S
C46 C45 1.375 . S
C46 C47 1.415 . S
C46 C48 1.501 . S
C47 H38 0.931 . S
C47 C43 1.382 . S
C47 C46 1.415 . S
C48 C46 1.501 . S
C48 C49 1.384 . S
C48 C53 1.408 . S
C49 H39 0.930 . S
C49 C48 1.384 . S
C49 C50 1.389 . S
C50 C49 1.389 . S
C50 C51 1.405 . S
C51 H40 0.930 . S
C51 C50 1.405 . S
C51 C52 1.364 . S
C52 C51 1.364 . S
C52 C53 1.400 . S
C53 H41 0.931 . S
C53 C48 1.408 . S
C53 C52 1.400 . S
H54 C60 0.930 . S
H55 C63 0.931 . S
H56 C65 0.931 . S
H57 C67 0.930 . S
H58 C69 0.930 . S
H59 C71 0.931 1_455 S
C60 H54 0.930 . S
C60 C61 1.380 . S
C60 C62 1.394 . S
C61 C60 1.380 . S
C61 C65 1.382 . S
C62 C60 1.394 . S
C62 C63 1.400 . S
C63 H55 0.931 . S
C63 C62 1.400 . S
C63 C64 1.375 . S
C64 C63 1.375 . S
C64 C65 1.415 . S
C64 C66 1.501 1_455 S
C65 H56 0.931 . S
C65 C61 1.382 . S
C65 C64 1.415 . S
C66 C64 1.501 1_655 S
C66 C67 1.384 . S
C66 C71 1.408 . S
C67 H57 0.930 . S
C67 C66 1.384 . S
C67 C68 1.389 . S
C68 C67 1.389 . S
C68 C69 1.405 . S
C69 H58 0.930 . S
C69 C68 1.405 . S
C69 C70 1.364 . S
C70 C69 1.364 . S
C70 C71 1.400 . S
C71 H59 0.931 1_655 S
C71 C66 1.408 . S
C71 C70 1.400 . S
H72 C78 0.930 . S
H73 C81 0.931 . S
H74 C83 0.931 1_545 S
H75 C85 0.930 . S
H76 C87 0.930 . S
H77 C89 0.931 . S
C78 H72 0.930 . S
C78 C79 1.380 . S
C78 C80 1.394 1_554 S
C79 C78 1.380 . S
C79 C83 1.382 . S
C80 C78 1.394 1_556 S
C80 C81 1.400 . S
C81 H73 0.931 . S
C81 C80 1.400 . S
C81 C82 1.375 . S
C82 C81 1.375 . S
C82 C83 1.415 1_556 S
C82 C84 1.501 1_565 S
C83 H74 0.931 1_565 S
C83 C79 1.382 . S
C83 C82 1.415 1_554 S
C84 C82 1.501 1_545 S
C84 C85 1.384 1_556 S
C84 C89 1.408 . S
C85 H75 0.930 . S
C85 C84 1.384 1_554 S
C85 C86 1.389 1_554 S
C86 C85 1.389 1_556 S
C86 C87 1.405 . S
C87 H76 0.930 . S
C87 C86 1.405 . S
C87 C88 1.364 . S
C88 C87 1.364 . S
C88 C89 1.400 . S
C89 H77 0.931 . S
C89 C84 1.408 . S
C89 C88 1.400 . S
H90 C96 0.930 . S
H91 C99 0.931 . S
H92 C101 0.931 . S
H93 C103 0.930 . S
H94 C105 0.930 . S
H95 C107 0.931 . S
C96 H90 0.930 . S
C96 C97 1.380 . S
C96 C98 1.394 . S
C97 C96 1.380 . S
C97 C101 1.382 . S
C98 C96 1.394 . S
C98 C99 1.400 . S
C99 H91 0.931 . S
C99 C98 1.400 . S
C99 C100 1.375 . S
C100 C99 1.375 . S
C100 C101 1.415 . S
C100 C102 1.501 . S
C101 H92 0.931 . S
C101 C97 1.382 . S
C101 C100 1.415 . S
C102 C100 1.501 . S
C102 C103 1.384 . S
C102 C107 1.408 . S
C103 H93 0.930 . S
C103 C102 1.384 . S
C103 C104 1.389 . S
C104 C103 1.389 . S
C104 C105 1.405 . S
C105 H94 0.930 . S
C105 C104 1.405 . S
C105 C106 1.364 . S
C106 C105 1.364 . S
C106 C107 1.400 . S
C107 H95 0.931 . S
C107 C102 1.408 . S
C107 C106 1.400 . S
In108 O109 2.294 . S
In108 O110 2.326 . S
In108 O114 2.266 . S
In108 O115 2.326 . S
In108 O116 2.266 . S
In108 O117 2.326 . S
In108 O119 2.294 . S
In108 O120 2.326 . S
O109 In108 2.294 . S
O109 C118 1.240 . S
O110 In108 2.326 . S
O110 C118 1.252 . S
C111 O114 1.252 . S
C111 O115 1.260 . S
C112 O119 1.240 . S
C112 O120 1.252 . S
C113 O116 1.252 . S
C113 O117 1.260 . S
O114 In108 2.266 . S
O114 C111 1.252 . S
O115 In108 2.326 . S
O115 C111 1.260 . S
O116 In108 2.266 . S
O116 C113 1.252 . S
O117 In108 2.326 . S
O117 C113 1.260 . S
C118 O109 1.240 . S
C118 O110 1.252 . S
O119 In108 2.294 . S
O119 C112 1.240 . S
O120 In108 2.326 . S
O120 C112 1.252 . S
In121 O122 2.294 . S
In121 O123 2.326 . S
In121 O127 2.266 . S
In121 O128 2.326 . S
In121 O129 2.266 . S
In121 O130 2.326 . S
In121 O132 2.294 . S
In121 O133 2.326 . S
O122 In121 2.294 . S
O122 C131 1.240 . S
O123 In121 2.326 . S
O123 C131 1.252 . S
C124 O127 1.252 . S
C124 O128 1.260 . S
C125 O132 1.240 . S
C125 O133 1.252 . S
C126 O129 1.252 . S
C126 O130 1.260 . S
O127 In121 2.266 . S
O127 C124 1.252 . S
O128 In121 2.326 . S
O128 C124 1.260 . S
O129 In121 2.266 . S
O129 C126 1.252 . S
O130 In121 2.326 . S
O130 C126 1.260 . S
C131 O122 1.240 . S
C131 O123 1.252 . S
O132 In121 2.294 . S
O132 C125 1.240 . S
O133 In121 2.326 . S
O133 C125 1.252 . S
In134 O135 2.294 . S
In134 O136 2.326 . S
In134 O140 2.266 . S
In134 O141 2.326 . S
In134 O142 2.266 . S
In134 O143 2.326 . S
In134 O145 2.294 . S
In134 O146 2.326 . S
O135 In134 2.294 . S
O135 C144 1.240 . S
O136 In134 2.326 . S
O136 C144 1.252 . S
C137 O140 1.252 . S
C137 O141 1.260 . S
C138 O145 1.240 . S
C138 O146 1.252 . S
C139 O142 1.252 . S
C139 O143 1.260 . S
O140 In134 2.266 . S
O140 C137 1.252 . S
O141 In134 2.326 . S
O141 C137 1.260 . S
O142 In134 2.266 . S
O142 C139 1.252 . S
O143 In134 2.326 . S
O143 C139 1.260 . S
C144 O135 1.240 . S
C144 O136 1.252 . S
O145 In134 2.294 . S
O145 C138 1.240 . S
O146 In134 2.326 . S
O146 C138 1.252 . S
In147 O148 2.294 . S
In147 O149 2.326 . S
In147 O153 2.266 . S
In147 O154 2.326 . S
In147 O155 2.266 . S
In147 O156 2.326 . S
In147 O158 2.294 . S
In147 O159 2.326 . S
O148 In147 2.294 . S
O148 C157 1.240 . S
O149 In147 2.326 . S
O149 C157 1.252 . S
C150 O153 1.252 . S
C150 O154 1.260 . S
C151 O158 1.240 . S
C151 O159 1.252 . S
C152 O155 1.252 . S
C152 O156 1.260 . S
O153 In147 2.266 . S
O153 C150 1.252 . S
O154 In147 2.326 . S
O154 C150 1.260 . S
O155 In147 2.266 . S
O155 C152 1.252 . S
O156 In147 2.326 . S
O156 C152 1.260 . S
C157 O148 1.240 . S
C157 O149 1.252 . S
O158 In147 2.294 . S
O158 C151 1.240 . S
O159 In147 2.326 . S
O159 C151 1.252 . S
In160 O161 2.294 . S
In160 O162 2.326 . S
In160 O166 2.266 . S
In160 O167 2.326 . S
In160 O168 2.266 . S
In160 O169 2.326 . S
In160 O171 2.294 . S
In160 O172 2.326 . S
O161 In160 2.294 . S
O161 C170 1.240 . S
O162 In160 2.326 . S
O162 C170 1.252 . S
C163 O166 1.252 . S
C163 O167 1.260 . S
C164 O171 1.240 . S
C164 O172 1.252 . S
C165 O168 1.252 . S
C165 O169 1.260 . S
O166 In160 2.266 . S
O166 C163 1.252 . S
O167 In160 2.326 . S
O167 C163 1.260 . S
O168 In160 2.266 . S
O168 C165 1.252 . S
O169 In160 2.326 . S
O169 C165 1.260 . S
C170 O161 1.240 . S
C170 O162 1.252 . S
O171 In160 2.294 . S
O171 C164 1.240 . S
O172 In160 2.326 . S
O172 C164 1.252 . S
In173 O174 2.294 . S
In173 O175 2.326 . S
In173 O179 2.266 . S
In173 O180 2.326 . S
In173 O181 2.266 . S
In173 O182 2.326 . S
In173 O184 2.294 . S
In173 O185 2.326 . S
O174 In173 2.294 . S
O174 C183 1.240 . S
O175 In173 2.326 . S
O175 C183 1.252 . S
C176 O179 1.252 . S
C176 O180 1.260 . S
C177 O184 1.240 . S
C177 O185 1.252 . S
C178 O181 1.252 . S
C178 O182 1.260 . S
O179 In173 2.266 . S
O179 C176 1.252 . S
O180 In173 2.326 . S
O180 C176 1.260 . S
O181 In173 2.266 . S
O181 C178 1.252 . S
O182 In173 2.326 . S
O182 C178 1.260 . S
C183 O174 1.240 . S
C183 O175 1.252 . S
O184 In173 2.294 . S
O184 C177 1.240 . S
O185 In173 2.326 . S
O185 C177 1.252 . S
H186 C194 0.929 . S
H187 C196 0.930 . S
H188 C198 0.930 . S
H189 C201 0.929 . S
H190 C204 0.930 . S
H191 C206 0.960 . S
H192 C206 0.960 . S
H193 C206 0.960 . S
C194 H186 0.929 . S
C194 C195 1.377 . S
C194 C196 1.384 . S
C195 C194 1.377 . S
C195 C201 1.390 . S
C196 H187 0.930 . S
C196 C194 1.384 . S
C196 C197 1.372 . S
C197 C196 1.372 . S
C197 C198 1.400 . S
C197 C202 1.490 . S
C198 H188 0.930 . S
C198 C197 1.400 . S
C198 C201 1.386 . S
H199 C215 0.930 . S
H200 C216 0.931 . S
C201 H189 0.929 . S
C201 C195 1.390 . S
C201 C198 1.386 . S
C202 C197 1.490 . S
C202 C204 1.395 . S
C202 C205 1.403 . S
H203 C209 0.930 . S
C204 H190 0.930 . S
C204 C202 1.395 . S
C204 C207 1.403 . S
C205 C202 1.403 . S
C205 C206 1.524 . S
C205 C209 1.400 . S
C206 H191 0.960 . S
C206 H192 0.960 . S
C206 H193 0.960 . S
C206 C205 1.524 . S
C207 C204 1.403 . S
C207 C208 1.392 . S
C207 C211 1.495 . S
C208 C207 1.392 . S
C208 C209 1.385 . S
C208 C210 1.478 . S
C209 H203 0.930 . S
C209 C205 1.400 . S
C209 C208 1.385 . S
C210 C208 1.478 . S
C210 C212 1.381 . S
C210 C216 1.383 . S
C211 C207 1.495 . S
C211 H217 0.959 . S
C211 H218 0.961 . S
C211 H219 0.960 . S
C212 C210 1.381 . S
C212 C213 1.394 . S
C212 H220 0.930 . S
C213 C212 1.394 . S
C213 C214 1.383 . S
C213 H221 0.929 . S
C214 C213 1.383 . S
C214 C215 1.377 . S
C215 H199 0.930 . S
C215 C214 1.377 . S
C215 C216 1.379 . S
C216 H200 0.931 . S
C216 C210 1.383 . S
C216 C215 1.379 . S
H217 C211 0.959 . S
H218 C211 0.961 . S
H219 C211 0.960 . S
H220 C212 0.930 . S
H221 C213 0.929 . S
H222 C230 0.929 . S
H223 C232 0.930 . S
H224 C234 0.930 . S
H225 C237 0.929 . S
H226 C240 0.930 . S
H227 C242 0.960 . S
H228 C242 0.960 . S
H229 C242 0.960 . S
C230 H222 0.929 . S
C230 C231 1.377 . S
C230 C232 1.384 . S
C231 C230 1.377 . S
C231 C237 1.390 . S
C232 H223 0.930 . S
C232 C230 1.384 . S
C232 C233 1.372 . S
C233 C232 1.372 . S
C233 C234 1.400 . S
C233 C238 1.490 . S
C234 H224 0.930 . S
C234 C233 1.400 . S
C234 C237 1.386 . S
H235 C251 0.930 . S
H236 C252 0.931 . S
C237 H225 0.929 . S
C237 C231 1.390 . S
C237 C234 1.386 . S
C238 C233 1.490 . S
C238 C240 1.395 . S
C238 C241 1.403 . S
H239 C245 0.930 . S
C240 H226 0.930 . S
C240 C238 1.395 . S
C240 C243 1.403 . S
C241 C238 1.403 . S
C241 C242 1.524 . S
C241 C245 1.400 . S
C242 H227 0.960 . S
C242 H228 0.960 . S
C242 H229 0.960 . S
C242 C241 1.524 . S
C243 C240 1.403 . S
C243 C244 1.392 . S
C243 C247 1.495 . S
C244 C243 1.392 . S
C244 C245 1.385 . S
C244 C246 1.478 . S
C245 H239 0.930 . S
C245 C241 1.400 . S
C245 C244 1.385 . S
C246 C244 1.478 . S
C246 C248 1.381 . S
C246 C252 1.383 . S
C247 C243 1.495 . S
C247 H253 0.959 . S
C247 H254 0.961 . S
C247 H255 0.960 . S
C248 C246 1.381 . S
C248 C249 1.394 . S
C248 H256 0.930 . S
C249 C248 1.394 . S
C249 C250 1.383 . S
C249 H257 0.929 . S
C250 C249 1.383 . S
C250 C251 1.377 . S
C251 H235 0.930 . S
C251 C250 1.377 . S
C251 C252 1.379 . S
C252 H236 0.931 . S
C252 C246 1.383 . S
C252 C251 1.379 . S
H253 C247 0.959 . S
H254 C247 0.961 . S
H255 C247 0.960 . S
H256 C248 0.930 . S
H257 C249 0.929 . S
H258 C266 0.929 . S
H259 C268 0.930 . S
H260 C270 0.930 . S
H261 C273 0.929 . S
H262 C276 0.930 . S
H263 C278 0.960 . S
H264 C278 0.960 . S
H265 C278 0.960 . S
C266 H258 0.929 . S
C266 C267 1.377 . S
C266 C268 1.384 . S
C267 C266 1.377 . S
C267 C273 1.390 . S
C268 H259 0.930 . S
C268 C266 1.384 . S
C268 C269 1.372 . S
C269 C268 1.372 . S
C269 C270 1.400 . S
C269 C274 1.490 . S
C270 H260 0.930 . S
C270 C269 1.400 . S
C270 C273 1.386 . S
H271 C287 0.930 . S
H272 C288 0.931 . S
C273 H261 0.929 . S
C273 C267 1.390 . S
C273 C270 1.386 . S
C274 C269 1.490 . S
C274 C276 1.395 . S
C274 C277 1.403 . S
H275 C281 0.930 . S
C276 H262 0.930 . S
C276 C274 1.395 . S
C276 C279 1.403 . S
C277 C274 1.403 . S
C277 C278 1.524 . S
C277 C281 1.400 . S
C278 H263 0.960 . S
C278 H264 0.960 . S
C278 H265 0.960 . S
C278 C277 1.524 . S
C279 C276 1.403 . S
C279 C280 1.392 . S
C279 C283 1.495 . S
C280 C279 1.392 . S
C280 C281 1.385 . S
C280 C282 1.478 . S
C281 H275 0.930 . S
C281 C277 1.400 . S
C281 C280 1.385 . S
C282 C280 1.478 . S
C282 C284 1.381 . S
C282 C288 1.383 . S
C283 C279 1.495 . S
C283 H289 0.959 . S
C283 H290 0.961 . S
C283 H291 0.960 . S
C284 C282 1.381 . S
C284 C285 1.394 . S
C284 H292 0.930 . S
C285 C284 1.394 . S
C285 C286 1.383 . S
C285 H293 0.929 . S
C286 C285 1.383 . S
C286 C287 1.377 . S
C287 H271 0.930 . S
C287 C286 1.377 . S
C287 C288 1.379 . S
C288 H272 0.931 . S
C288 C282 1.383 . S
C288 C287 1.379 . S
H289 C283 0.959 . S
H290 C283 0.961 . S
H291 C283 0.960 . S
H292 C284 0.930 . S
H293 C285 0.929 . S
H294 C302 0.929 . S
H295 C304 0.930 . S
H296 C306 0.930 . S
H297 C309 0.929 . S
H298 C312 0.930 . S
H299 C314 0.960 . S
H300 C314 0.960 . S
H301 C314 0.960 . S
C302 H294 0.929 . S
C302 C303 1.377 . S
C302 C304 1.384 . S
C303 C302 1.377 . S
C303 C309 1.390 . S
C304 H295 0.930 . S
C304 C302 1.384 . S
C304 C305 1.372 . S
C305 C304 1.372 . S
C305 C306 1.400 . S
C305 C310 1.490 . S
C306 H296 0.930 . S
C306 C305 1.400 . S
C306 C309 1.386 . S
H307 C323 0.930 . S
H308 C324 0.931 . S
C309 H297 0.929 . S
C309 C303 1.390 . S
C309 C306 1.386 . S
C310 C305 1.490 . S
C310 C312 1.395 . S
C310 C313 1.403 . S
H311 C317 0.930 . S
C312 H298 0.930 . S
C312 C310 1.395 . S
C312 C315 1.403 . S
C313 C310 1.403 . S
C313 C314 1.524 . S
C313 C317 1.400 . S
C314 H299 0.960 . S
C314 H300 0.960 . S
C314 H301 0.960 . S
C314 C313 1.524 . S
C315 C312 1.403 . S
C315 C316 1.392 . S
C315 C319 1.495 . S
C316 C315 1.392 . S
C316 C317 1.385 . S
C316 C318 1.478 . S
C317 H311 0.930 . S
C317 C313 1.400 . S
C317 C316 1.385 . S
C318 C316 1.478 . S
C318 C320 1.381 . S
C318 C324 1.383 . S
C319 C315 1.495 . S
C319 H325 0.959 . S
C319 H326 0.961 . S
C319 H327 0.960 . S
C320 C318 1.381 . S
C320 C321 1.394 . S
C320 H328 0.930 . S
C321 C320 1.394 . S
C321 C322 1.383 . S
C321 H329 0.929 . S
C322 C321 1.383 . S
C322 C323 1.377 . S
C323 H307 0.930 . S
C323 C322 1.377 . S
C323 C324 1.379 . S
C324 H308 0.931 . S
C324 C318 1.383 . S
C324 C323 1.379 . S
H325 C319 0.959 . S
H326 C319 0.961 . S
H327 C319 0.960 . S
H328 C320 0.930 . S
H329 C321 0.929 . S
H330 C338 0.929 . S
H331 C340 0.930 . S
H332 C342 0.930 . S
H333 C345 0.929 1_554 S
H334 C348 0.930 . S
H335 C350 0.960 . S
H336 C350 0.960 . S
H337 C350 0.960 . S
C338 H330 0.929 . S
C338 C339 1.377 . S
C338 C340 1.384 . S
C339 C338 1.377 . S
C339 C345 1.390 . S
C340 H331 0.930 . S
C340 C338 1.384 . S
C340 C341 1.372 . S
C341 C340 1.372 . S
C341 C342 1.400 . S
C341 C346 1.490 . S
C342 H332 0.930 . S
C342 C341 1.400 . S
C342 C345 1.386 . S
H343 C359 0.930 . S
H344 C360 0.931 . S
C345 H333 0.929 1_556 S
C345 C339 1.390 . S
C345 C342 1.386 . S
C346 C341 1.490 . S
C346 C348 1.395 . S
C346 C349 1.403 . S
H347 C353 0.930 . S
C348 H334 0.930 . S
C348 C346 1.395 . S
C348 C351 1.403 . S
C349 C346 1.403 . S
C349 C350 1.524 . S
C349 C353 1.400 . S
C350 H335 0.960 . S
C350 H336 0.960 . S
C350 H337 0.960 . S
C350 C349 1.524 . S
C351 C348 1.403 . S
C351 C352 1.392 . S
C351 C355 1.495 . S
C352 C351 1.392 . S
C352 C353 1.385 . S
C352 C354 1.478 . S
C353 H347 0.930 . S
C353 C349 1.400 . S
C353 C352 1.385 . S
C354 C352 1.478 . S
C354 C356 1.381 . S
C354 C360 1.383 . S
C355 C351 1.495 . S
C355 H361 0.959 . S
C355 H362 0.961 . S
C355 H363 0.960 . S
C356 C354 1.381 . S
C356 C357 1.394 . S
C356 H364 0.930 . S
C357 C356 1.394 . S
C357 C358 1.383 . S
C357 H365 0.929 . S
C358 C357 1.383 . S
C358 C359 1.377 . S
C359 H343 0.930 . S
C359 C358 1.377 . S
C359 C360 1.379 . S
C360 H344 0.931 . S
C360 C354 1.383 . S
C360 C359 1.379 . S
H361 C355 0.959 . S
H362 C355 0.961 . S
H363 C355 0.960 . S
H364 C356 0.930 . S
H365 C357 0.929 . S
H366 C374 0.929 . S
H367 C376 0.930 . S
H368 C378 0.930 . S
H369 C381 0.929 . S
H370 C384 0.930 . S
H371 C386 0.960 . S
H372 C386 0.960 . S
H373 C386 0.960 . S
C374 H366 0.929 . S
C374 C375 1.377 . S
C374 C376 1.384 . S
C375 C374 1.377 . S
C375 C381 1.390 . S
C376 H367 0.930 . S
C376 C374 1.384 . S
C376 C377 1.372 . S
C377 C376 1.372 . S
C377 C378 1.400 . S
C377 C382 1.490 . S
C378 H368 0.930 . S
C378 C377 1.400 . S
C378 C381 1.386 . S
H379 C395 0.930 . S
H380 C396 0.931 . S
C381 H369 0.929 . S
C381 C375 1.390 . S
C381 C378 1.386 . S
C382 C377 1.490 . S
C382 C384 1.395 . S
C382 C385 1.403 . S
H383 C389 0.930 . S
C384 H370 0.930 . S
C384 C382 1.395 . S
C384 C387 1.403 . S
C385 C382 1.403 . S
C385 C386 1.524 . S
C385 C389 1.400 . S
C386 H371 0.960 . S
C386 H372 0.960 . S
C386 H373 0.960 . S
C386 C385 1.524 . S
C387 C384 1.403 . S
C387 C388 1.392 . S
C387 C391 1.495 . S
C388 C387 1.392 . S
C388 C389 1.385 . S
C388 C390 1.478 . S
C389 H383 0.930 . S
C389 C385 1.400 . S
C389 C388 1.385 . S
C390 C388 1.478 . S
C390 C392 1.381 . S
C390 C396 1.383 . S
C391 C387 1.495 . S
C391 H397 0.959 . S
C391 H398 0.961 . S
C391 H399 0.960 . S
C392 C390 1.381 . S
C392 C393 1.394 . S
C392 H400 0.930 . S
C393 C392 1.394 . S
C393 C394 1.383 . S
C393 H401 0.929 . S
C394 C393 1.383 . S
C394 C395 1.377 . S
C395 H379 0.930 . S
C395 C394 1.377 . S
C395 C396 1.379 . S
C396 H380 0.931 . S
C396 C390 1.383 . S
C396 C395 1.379 . S
H397 C391 0.959 . S
H398 C391 0.961 . S
H399 C391 0.960 . S
H400 C392 0.930 . S
H401 C393 0.929 . S
H402 C410 0.929 . S
H403 C412 0.930 . S
H404 C414 0.930 . S
H405 C417 0.929 . S
H406 C420 0.930 . S
H407 C422 0.960 . S
H408 C422 0.960 . S
H409 C422 0.960 . S
C410 H402 0.929 . S
C410 C411 1.377 . S
C410 C412 1.384 . S
C411 C410 1.377 . S
C411 C417 1.390 . S
C412 H403 0.930 . S
C412 C410 1.384 . S
C412 C413 1.372 . S
C413 C412 1.372 . S
C413 C414 1.400 . S
C413 C418 1.490 . S
C414 H404 0.930 . S
C414 C413 1.400 . S
C414 C417 1.386 . S
H415 C431 0.930 . S
H416 C432 0.931 . S
C417 H405 0.929 . S
C417 C411 1.390 . S
C417 C414 1.386 . S
C418 C413 1.490 . S
C418 C420 1.395 . S
C418 C421 1.403 . S
H419 C425 0.930 . S
C420 H406 0.930 . S
C420 C418 1.395 . S
C420 C423 1.403 . S
C421 C418 1.403 . S
C421 C422 1.524 . S
C421 C425 1.400 . S
C422 H407 0.960 . S
C422 H408 0.960 . S
C422 H409 0.960 . S
C422 C421 1.524 . S
C423 C420 1.403 . S
C423 C424 1.392 . S
C423 C427 1.495 . S
C424 C423 1.392 . S
C424 C425 1.385 . S
C424 C426 1.478 . S
C425 H419 0.930 . S
C425 C421 1.400 . S
C425 C424 1.385 . S
C426 C424 1.478 . S
C426 C428 1.381 . S
C426 C432 1.383 . S
C427 C423 1.495 . S
C427 H433 0.959 . S
C427 H434 0.961 . S
C427 H435 0.960 . S
C428 C426 1.381 . S
C428 C429 1.394 . S
C428 H436 0.930 . S
C429 C428 1.394 . S
C429 C430 1.383 . S
C429 H437 0.929 . S
C430 C429 1.383 . S
C430 C431 1.377 . S
C431 H415 0.930 . S
C431 C430 1.377 . S
C431 C432 1.379 . S
C432 H416 0.931 . S
C432 C426 1.383 . S
C432 C431 1.379 . S
H433 C427 0.959 . S
H434 C427 0.961 . S
H435 C427 0.960 . S
H436 C428 0.930 . S
H437 C429 0.929 . S
H438 C446 0.929 . S
H439 C448 0.930 . S
H440 C450 0.930 . S
H441 C453 0.929 . S
H442 C456 0.930 . S
H443 C458 0.960 . S
H444 C458 0.960 . S
H445 C458 0.960 . S
C446 H438 0.929 . S
C446 C447 1.377 . S
C446 C448 1.384 . S
C447 C446 1.377 . S
C447 C453 1.390 . S
C448 H439 0.930 . S
C448 C446 1.384 . S
C448 C449 1.372 . S
C449 C448 1.372 . S
C449 C450 1.400 . S
C449 C454 1.490 . S
C450 H440 0.930 . S
C450 C449 1.400 . S
C450 C453 1.386 . S
H451 C467 0.930 . S
H452 C468 0.931 . S
C453 H441 0.929 . S
C453 C447 1.390 . S
C453 C450 1.386 . S
C454 C449 1.490 . S
C454 C456 1.395 . S
C454 C457 1.403 . S
H455 C461 0.930 . S
C456 H442 0.930 . S
C456 C454 1.395 . S
C456 C459 1.403 . S
C457 C454 1.403 . S
C457 C458 1.524 . S
C457 C461 1.400 . S
C458 H443 0.960 . S
C458 H444 0.960 . S
C458 H445 0.960 . S
C458 C457 1.524 . S
C459 C456 1.403 . S
C459 C460 1.392 . S
C459 C463 1.495 . S
C460 C459 1.392 . S
C460 C461 1.385 . S
C460 C462 1.478 . S
C461 H455 0.930 . S
C461 C457 1.400 . S
C461 C460 1.385 . S
C462 C460 1.478 . S
C462 C464 1.381 . S
C462 C468 1.383 . S
C463 C459 1.495 . S
C463 H469 0.959 . S
C463 H470 0.961 . S
C463 H471 0.960 . S
C464 C462 1.381 . S
C464 C465 1.394 . S
C464 H472 0.930 . S
C465 C464 1.394 . S
C465 C466 1.383 . S
C465 H473 0.929 . S
C466 C465 1.383 . S
C466 C467 1.377 . S
C467 H451 0.930 . S
C467 C466 1.377 . S
C467 C468 1.379 . S
C468 H452 0.931 . S
C468 C462 1.383 . S
C468 C467 1.379 . S
H469 C463 0.959 . S
H470 C463 0.961 . S
H471 C463 0.960 . S
H472 C464 0.930 . S
H473 C465 0.929 . S
H474 C482 0.929 . S
H475 C484 0.930 . S
H476 C486 0.930 . S
H477 C489 0.929 . S
H478 C492 0.930 . S
H479 C494 0.960 . S
H480 C494 0.960 . S
H481 C494 0.960 . S
C482 H474 0.929 . S
C482 C483 1.377 . S
C482 C484 1.384 . S
C483 C482 1.377 . S
C483 C489 1.390 . S
C484 H475 0.930 . S
C484 C482 1.384 . S
C484 C485 1.372 . S
C485 C484 1.372 . S
C485 C486 1.400 . S
C485 C490 1.490 . S
C486 H476 0.930 . S
C486 C485 1.400 . S
C486 C489 1.386 . S
H487 C503 0.930 . S
H488 C504 0.931 . S
C489 H477 0.929 . S
C489 C483 1.390 . S
C489 C486 1.386 . S
C490 C485 1.490 . S
C490 C492 1.395 . S
C490 C493 1.403 . S
H491 C497 0.930 . S
C492 H478 0.930 . S
C492 C490 1.395 . S
C492 C495 1.403 . S
C493 C490 1.403 . S
C493 C494 1.524 . S
C493 C497 1.400 . S
C494 H479 0.960 . S
C494 H480 0.960 . S
C494 H481 0.960 . S
C494 C493 1.524 . S
C495 C492 1.403 . S
C495 C496 1.392 . S
C495 C499 1.495 . S
C496 C495 1.392 . S
C496 C497 1.385 . S
C496 C498 1.478 . S
C497 H491 0.930 . S
C497 C493 1.400 . S
C497 C496 1.385 . S
C498 C496 1.478 . S
C498 C500 1.381 . S
C498 C504 1.383 . S
C499 C495 1.495 . S
C499 H505 0.959 . S
C499 H506 0.961 . S
C499 H507 0.960 . S
C500 C498 1.381 . S
C500 C501 1.394 . S
C500 H508 0.930 . S
C501 C500 1.394 . S
C501 C502 1.383 . S
C501 H509 0.929 . S
C502 C501 1.383 . S
C502 C503 1.377 . S
C503 H487 0.930 . S
C503 C502 1.377 . S
C503 C504 1.379 . S
C504 H488 0.931 . S
C504 C498 1.383 . S
C504 C503 1.379 . S
H505 C499 0.959 . S
H506 C499 0.961 . S
H507 C499 0.960 . S
H508 C500 0.930 . S
H509 C501 0.929 . S
H510 C518 0.929 . S
H511 C520 0.930 . S
H512 C522 0.930 . S
H513 C525 0.929 . S
H514 C528 0.962 . S
H515 C530 0.960 . S
H516 C530 0.960 . S
H517 C530 0.960 . S
C518 H510 0.929 . S
C518 C519 1.377 . S
C518 C520 1.384 . S
C519 C518 1.377 . S
C519 C525 1.390 . S
C520 H511 0.930 . S
C520 C518 1.384 . S
C520 C521 1.372 . S
C521 C520 1.372 . S
C521 C522 1.400 . S
C521 C526 1.490 . S
C522 H512 0.930 . S
C522 C521 1.400 . S
C522 C525 1.386 . S
H523 C539 0.930 . S
H524 C540 0.931 . S
C525 H513 0.929 . S
C525 C519 1.390 . S
C525 C522 1.386 . S
C526 C521 1.490 . S
C526 C528 1.395 . S
C526 C529 1.403 . S
H527 C533 0.930 . S
C528 H514 0.962 . S
C528 C526 1.395 . S
C528 C531 1.403 . S
C529 C526 1.403 . S
C529 C530 1.524 . S
C529 C533 1.400 . S
C530 H515 0.960 . S
C530 H516 0.960 . S
C530 H517 0.960 . S
C530 C529 1.524 . S
C531 C528 1.403 . S
C531 C532 1.392 . S
C531 C535 1.495 . S
C532 C531 1.392 . S
C532 C533 1.385 . S
C532 C534 1.478 . S
C533 H527 0.930 . S
C533 C529 1.400 . S
C533 C532 1.385 . S
C534 C532 1.478 . S
C534 C536 1.381 . S
C534 C540 1.383 . S
C535 C531 1.495 . S
C535 H541 0.959 1_554 S
C535 H542 0.961 1_554 S
C535 H543 0.960 . S
C536 C534 1.381 . S
C536 C537 1.394 . S
C536 H544 0.930 . S
C537 C536 1.394 . S
C537 C538 1.383 . S
C537 H545 0.929 . S
C538 C537 1.383 . S
C538 C539 1.377 . S
C539 H523 0.930 . S
C539 C538 1.377 . S
C539 C540 1.379 . S
C540 H524 0.931 . S
C540 C534 1.383 . S
C540 C539 1.379 . S
H541 C535 0.959 1_556 S
H542 C535 0.961 1_556 S
H543 C535 0.960 . S
H544 C536 0.930 . S
H545 C537 0.929 . S
H546 C554 0.929 . S
H547 C556 0.930 . S
H548 C558 0.930 . S
H549 C561 0.929 . S
H550 C564 0.930 . S
H551 C566 0.960 . S
H552 C566 0.960 . S
H553 C566 0.960 . S
C554 H546 0.929 . S
C554 C555 1.377 . S
C554 C556 1.384 . S
C555 C554 1.377 . S
C555 C561 1.390 . S
C556 H547 0.930 . S
C556 C554 1.384 . S
C556 C557 1.372 . S
C557 C556 1.372 . S
C557 C558 1.400 . S
C557 C562 1.490 . S
C558 H548 0.930 . S
C558 C557 1.400 . S
C558 C561 1.386 . S
H559 C575 0.930 . S
H560 C576 0.931 . S
C561 H549 0.929 . S
C561 C555 1.390 . S
C561 C558 1.386 . S
C562 C557 1.490 . S
C562 C564 1.395 . S
C562 C565 1.403 . S
H563 C569 0.930 . S
C564 H550 0.930 . S
C564 C562 1.395 . S
C564 C567 1.403 . S
C565 C562 1.403 . S
C565 C566 1.524 . S
C565 C569 1.400 . S
C566 H551 0.960 . S
C566 H552 0.960 . S
C566 H553 0.960 . S
C566 C565 1.524 . S
C567 C564 1.403 . S
C567 C568 1.392 . S
C567 C571 1.495 . S
C568 C567 1.392 . S
C568 C569 1.385 . S
C568 C570 1.478 . S
C569 H563 0.930 . S
C569 C565 1.400 . S
C569 C568 1.385 . S
C570 C568 1.478 . S
C570 C572 1.381 . S
C570 C576 1.383 . S
C571 C567 1.495 . S
C571 H577 0.959 . S
C571 H578 0.961 . S
C571 H579 0.960 . S
C572 C570 1.381 . S
C572 C573 1.394 . S
C572 H580 0.930 . S
C573 C572 1.394 . S
C573 C574 1.383 . S
C573 H581 0.929 . S
C574 C573 1.383 . S
C574 C575 1.377 . S
C575 H559 0.930 . S
C575 C574 1.377 . S
C575 C576 1.379 . S
C576 H560 0.931 . S
C576 C570 1.383 . S
C576 C575 1.379 . S
H577 C571 0.959 . S
H578 C571 0.961 . S
H579 C571 0.960 . S
H580 C572 0.930 . S
H581 C573 0.929 . S
H582 C590 0.929 . S
H583 C592 0.930 . S
H584 C594 0.930 . S
H585 C597 0.929 . S
H586 C600 0.930 . S
H587 C602 0.960 . S
H588 C602 0.960 . S
H589 C602 0.960 . S
C590 H582 0.929 . S
C590 C591 1.377 . S
C590 C592 1.384 . S
C591 C590 1.377 . S
C591 C597 1.390 . S
C592 H583 0.930 . S
C592 C590 1.384 . S
C592 C593 1.372 . S
C593 C592 1.372 . S
C593 C594 1.400 . S
C593 C598 1.490 . S
C594 H584 0.930 . S
C594 C593 1.400 . S
C594 C597 1.386 . S
H595 C611 0.930 . S
H596 C612 0.931 . S
C597 H585 0.929 . S
C597 C591 1.390 . S
C597 C594 1.386 . S
C598 C593 1.490 . S
C598 C600 1.395 . S
C598 C601 1.403 . S
H599 C605 0.930 . S
C600 H586 0.930 . S
C600 C598 1.395 . S
C600 C603 1.403 . S
C601 C598 1.403 . S
C601 C602 1.524 . S
C601 C605 1.400 . S
C602 H587 0.960 . S
C602 H588 0.960 . S
C602 H589 0.960 . S
C602 C601 1.524 . S
C603 C600 1.403 . S
C603 C604 1.392 . S
C603 C607 1.495 . S
C604 C603 1.392 . S
C604 C605 1.385 . S
C604 C606 1.478 . S
C605 H599 0.930 . S
C605 C601 1.400 . S
C605 C604 1.385 . S
C606 C604 1.478 . S
C606 C608 1.381 . S
C606 C612 1.383 . S
C607 C603 1.495 . S
C607 H613 0.959 . S
C607 H614 0.961 . S
C607 H615 0.960 . S
C608 C606 1.381 . S
C608 C609 1.394 . S
C608 H616 0.930 . S
C609 C608 1.394 . S
C609 C610 1.383 . S
C609 H617 0.929 . S
C610 C609 1.383 . S
C610 C611 1.377 . S
C611 H595 0.930 . S
C611 C610 1.377 . S
C611 C612 1.379 . S
C612 H596 0.931 . S
C612 C606 1.383 . S
C612 C611 1.379 . S
H613 C607 0.959 . S
H614 C607 0.961 . S
H615 C607 0.960 . S
H616 C608 0.930 . S
H617 C609 0.929 . S
H618 C626 0.929 . S
H619 C628 0.930 . S
H620 C630 0.930 . S
H621 C633 0.929 . S
H622 C636 0.930 . S
H623 C638 0.960 . S
H624 C638 0.960 . S
H625 C638 0.960 . S
C626 H618 0.929 . S
C626 C627 1.377 . S
C626 C628 1.384 . S
C627 C626 1.377 . S
C627 C633 1.390 . S
C628 H619 0.930 . S
C628 C626 1.384 . S
C628 C629 1.372 . S
C629 C628 1.372 . S
C629 C630 1.400 . S
C629 C634 1.490 . S
C630 H620 0.930 . S
C630 C629 1.400 . S
C630 C633 1.386 . S
H631 C647 0.930 . S
H632 C648 0.931 . S
C633 H621 0.929 . S
C633 C627 1.390 . S
C633 C630 1.386 . S
C634 C629 1.490 . S
C634 C636 1.395 . S
C634 C637 1.403 . S
H635 C641 0.930 . S
C636 H622 0.930 . S
C636 C634 1.395 . S
C636 C639 1.403 . S
C637 C634 1.403 . S
C637 C638 1.524 . S
C637 C641 1.400 . S
C638 H623 0.960 . S
C638 H624 0.960 . S
C638 H625 0.960 . S
C638 C637 1.524 . S
C639 C636 1.403 . S
C639 C640 1.392 . S
C639 C643 1.495 . S
C640 C639 1.392 . S
C640 C641 1.385 . S
C640 C642 1.478 . S
C641 H635 0.930 . S
C641 C637 1.400 . S
C641 C640 1.385 . S
C642 C640 1.478 . S
C642 C644 1.381 . S
C642 C648 1.383 . S
C643 C639 1.495 . S
C643 H649 0.959 . S
C643 H650 0.961 . S
C643 H651 0.960 . S
C644 C642 1.381 . S
C644 C645 1.394 . S
C644 H652 0.930 . S
C645 C644 1.394 . S
C645 C646 1.383 . S
C645 H653 0.929 . S
C646 C645 1.383 . S
C646 C647 1.377 . S
C647 H631 0.930 . S
C647 C646 1.377 . S
C647 C648 1.379 . S
C648 H632 0.931 . S
C648 C642 1.383 . S
C648 C647 1.379 . S
H649 C643 0.959 . S
H650 C643 0.961 . S
H651 C643 0.960 . S
H652 C644 0.930 . S
H653 C645 0.929 . S
H654 C662 0.929 . S
H655 C664 0.930 . S
H656 C666 0.930 . S
H657 C669 0.929 . S
H658 C672 0.930 . S
H659 C674 0.960 . S
H660 C674 0.960 . S
H661 C674 0.960 . S
C662 H654 0.929 . S
C662 C663 1.377 . S
C662 C664 1.384 . S
C663 C662 1.377 . S
C663 C669 1.390 . S
C664 H655 0.930 . S
C664 C662 1.384 . S
C664 C665 1.372 . S
C665 C664 1.372 . S
C665 C666 1.400 . S
C665 C670 1.490 . S
C666 H656 0.930 . S
C666 C665 1.400 . S
C666 C669 1.386 . S
H667 C683 0.930 . S
H668 C684 0.931 . S
C669 H657 0.929 . S
C669 C663 1.390 . S
C669 C666 1.386 . S
C670 C665 1.490 . S
C670 C672 1.395 . S
C670 C673 1.403 . S
H671 C677 0.930 . S
C672 H658 0.930 . S
C672 C670 1.395 . S
C672 C675 1.403 . S
C673 C670 1.403 . S
C673 C674 1.524 . S
C673 C677 1.400 . S
C674 H659 0.960 . S
C674 H660 0.960 . S
C674 H661 0.960 . S
C674 C673 1.524 . S
C675 C672 1.403 . S
C675 C676 1.392 . S
C675 C679 1.495 . S
C676 C675 1.392 . S
C676 C677 1.385 . S
C676 C678 1.478 . S
C677 H671 0.930 . S
C677 C673 1.400 . S
C677 C676 1.385 . S
C678 C676 1.478 . S
C678 C680 1.381 . S
C678 C684 1.383 . S
C679 C675 1.495 . S
C679 H685 0.959 . S
C679 H686 0.961 . S
C679 H687 0.960 . S
C680 C678 1.381 . S
C680 C681 1.394 . S
C680 H688 0.930 . S
C681 C680 1.394 . S
C681 C682 1.383 . S
C681 H689 0.929 . S
C682 C681 1.383 . S
C682 C683 1.377 . S
C683 H667 0.930 . S
C683 C682 1.377 . S
C683 C684 1.379 . S
C684 H668 0.931 . S
C684 C678 1.383 . S
C684 C683 1.379 . S
H685 C679 0.959 . S
H686 C679 0.961 . S
H687 C679 0.960 . S
H688 C680 0.930 . S
H689 C681 0.929 . S
H690 C698 0.929 . S
H691 C700 0.930 . S
H692 C702 0.930 . S
H693 C705 0.929 . S
H694 C708 0.930 . S
H695 C710 0.960 . S
H696 C710 0.960 . S
H697 C710 0.960 . S
C698 H690 0.929 . S
C698 C699 1.377 . S
C698 C700 1.384 . S
C699 C698 1.377 . S
C699 C705 1.390 . S
C700 H691 0.930 . S
C700 C698 1.384 . S
C700 C701 1.372 . S
C701 C700 1.372 . S
C701 C702 1.400 . S
C701 C706 1.490 . S
C702 H692 0.930 . S
C702 C701 1.400 . S
C702 C705 1.386 . S
H703 C719 0.930 . S
H704 C720 0.931 . S
C705 H693 0.929 . S
C705 C699 1.390 . S
C705 C702 1.386 . S
C706 C701 1.490 . S
C706 C708 1.395 . S
C706 C709 1.403 . S
H707 C713 0.930 . S
C708 H694 0.930 . S
C708 C706 1.395 . S
C708 C711 1.403 . S
C709 C706 1.403 . S
C709 C710 1.524 . S
C709 C713 1.400 . S
C710 H695 0.960 . S
C710 H696 0.960 . S
C710 H697 0.960 . S
C710 C709 1.524 . S
C711 C708 1.403 . S
C711 C712 1.392 . S
C711 C715 1.495 . S
C712 C711 1.392 . S
C712 C713 1.385 . S
C712 C714 1.478 . S
C713 H707 0.930 . S
C713 C709 1.400 . S
C713 C712 1.385 . S
C714 C712 1.478 . S
C714 C716 1.381 . S
C714 C720 1.383 . S
C715 C711 1.495 . S
C715 H721 0.959 . S
C715 H722 0.961 . S
C715 H723 0.960 . S
C716 C714 1.381 . S
C716 C717 1.394 . S
C716 H724 0.930 . S
C717 C716 1.394 . S
C717 C718 1.383 . S
C717 H725 0.929 . S
C718 C717 1.383 . S
C718 C719 1.377 . S
C719 H703 0.930 . S
C719 C718 1.377 . S
C719 C720 1.379 . S
C720 H704 0.931 . S
C720 C714 1.383 . S
C720 C719 1.379 . S
H721 C715 0.959 . S
H722 C715 0.961 . S
H723 C715 0.960 . S
H724 C716 0.930 . S
H725 C717 0.929 . S
H726 C734 0.929 . S
H727 C736 0.930 . S
H728 C738 0.930 . S
H729 C741 0.929 . S
H730 C744 0.930 . S
H731 C746 0.960 . S
H732 C746 0.960 . S
H733 C746 0.960 . S
C734 H726 0.929 . S
C734 C735 1.377 . S
C734 C736 1.384 . S
C735 C734 1.377 . S
C735 C741 1.390 . S
C736 H727 0.930 . S
C736 C734 1.384 . S
C736 C737 1.372 . S
C737 C736 1.372 . S
C737 C738 1.400 . S
C737 C742 1.490 . S
C738 H728 0.930 . S
C738 C737 1.400 . S
C738 C741 1.386 . S
H739 C755 0.930 . S
H740 C756 0.931 . S
C741 H729 0.929 . S
C741 C735 1.390 . S
C741 C738 1.386 . S
C742 C737 1.490 . S
C742 C744 1.395 . S
C742 C745 1.403 . S
H743 C749 0.930 . S
C744 H730 0.930 . S
C744 C742 1.395 . S
C744 C747 1.403 . S
C745 C742 1.403 . S
C745 C746 1.524 . S
C745 C749 1.400 . S
C746 H731 0.960 . S
C746 H732 0.960 . S
C746 H733 0.960 . S
C746 C745 1.524 . S
C747 C744 1.403 . S
C747 C748 1.392 . S
C747 C751 1.495 . S
C748 C747 1.392 . S
C748 C749 1.385 . S
C748 C750 1.478 . S
C749 H743 0.930 . S
C749 C745 1.400 . S
C749 C748 1.385 . S
C750 C748 1.478 . S
C750 C752 1.381 . S
C750 C756 1.383 1_556 S
C751 C747 1.495 . S
C751 H757 0.959 . S
C751 H758 0.961 . S
C751 H759 0.960 . S
C752 C750 1.381 . S
C752 C753 1.392 1_556 S
C752 H760 0.930 . S
C753 C752 1.392 1_554 S
C753 C754 1.386 . S
C753 H761 0.929 1_554 S
C754 C753 1.386 . S
C754 C755 1.377 . S
C755 H739 0.930 . S
C755 C754 1.377 . S
C755 C756 1.379 . S
C756 H740 0.931 . S
C756 C750 1.383 1_554 S
C756 C755 1.379 . S
H757 C751 0.959 . S
H758 C751 0.961 . S
H759 C751 0.960 . S
H760 C752 0.930 . S
H761 C753 0.929 1_556 S
H762 C770 0.929 . S
H763 C772 0.930 . S
H764 C774 0.930 . S
H765 C777 0.929 . S
H766 C780 0.930 . S
H767 C782 0.960 . S
H768 C782 0.960 . S
H769 C782 0.960 . S
C770 H762 0.929 . S
C770 C771 1.377 . S
C770 C772 1.384 . S
C771 C770 1.377 . S
C771 C777 1.390 . S
C772 H763 0.930 . S
C772 C770 1.384 . S
C772 C773 1.372 . S
C773 C772 1.372 . S
C773 C774 1.400 . S
C773 C778 1.490 . S
C774 H764 0.930 . S
C774 C773 1.400 . S
C774 C777 1.386 . S
H775 C791 0.930 . S
H776 C792 0.931 . S
C777 H765 0.929 . S
C777 C771 1.390 . S
C777 C774 1.386 . S
C778 C773 1.490 . S
C778 C780 1.395 . S
C778 C781 1.403 . S
H779 C785 0.930 . S
C780 H766 0.930 . S
C780 C778 1.395 . S
C780 C783 1.403 . S
C781 C778 1.403 . S
C781 C782 1.524 . S
C781 C785 1.400 . S
C782 H767 0.960 . S
C782 H768 0.960 . S
C782 H769 0.960 . S
C782 C781 1.524 . S
C783 C780 1.403 . S
C783 C784 1.392 . S
C783 C787 1.495 . S
C784 C783 1.392 . S
C784 C785 1.385 . S
C784 C786 1.478 . S
C785 H779 0.930 . S
C785 C781 1.400 . S
C785 C784 1.385 . S
C786 C784 1.478 . S
C786 C788 1.381 . S
C786 C792 1.383 . S
C787 C783 1.495 . S
C787 H793 0.959 . S
C787 H794 0.961 . S
C787 H795 0.960 . S
C788 C786 1.381 . S
C788 C789 1.394 . S
C788 H796 0.930 . S
C789 C788 1.394 . S
C789 C790 1.383 . S
C789 H797 0.929 . S
C790 C789 1.383 . S
C790 C791 1.377 . S
C791 H775 0.930 . S
C791 C790 1.377 . S
C791 C792 1.379 . S
C792 H776 0.931 . S
C792 C786 1.383 . S
C792 C791 1.379 . S
H793 C787 0.959 . S
H794 C787 0.961 . S
H795 C787 0.960 . S
H796 C788 0.930 . S
H797 C789 0.929 . S
H798 C806 0.929 . S
H799 C808 0.930 . S
H800 C810 0.930 . S
H801 C813 0.929 . S
H802 C816 0.930 . S
H803 C818 0.960 . S
H804 C818 0.960 . S
H805 C818 0.960 . S
C806 H798 0.929 . S
C806 C807 1.377 . S
C806 C808 1.384 . S
C807 C806 1.377 . S
C807 C813 1.390 . S
C808 H799 0.930 . S
C808 C806 1.384 . S
C808 C809 1.372 . S
C809 C808 1.372 . S
C809 C810 1.400 . S
C809 C814 1.490 . S
C810 H800 0.930 . S
C810 C809 1.400 . S
C810 C813 1.386 . S
H811 C827 0.930 . S
H812 C828 0.931 . S
C813 H801 0.929 . S
C813 C807 1.390 . S
C813 C810 1.386 . S
C814 C809 1.490 . S
C814 C816 1.395 . S
C814 C817 1.403 . S
H815 C821 0.930 . S
C816 H802 0.930 . S
C816 C814 1.395 . S
C816 C819 1.403 . S
C817 C814 1.403 . S
C817 C818 1.524 . S
C817 C821 1.400 . S
C818 H803 0.960 . S
C818 H804 0.960 . S
C818 H805 0.960 . S
C818 C817 1.524 . S
C819 C816 1.403 . S
C819 C820 1.392 . S
C819 C823 1.495 . S
C820 C819 1.392 . S
C820 C821 1.385 . S
C820 C822 1.478 . S
C821 H815 0.930 . S
C821 C817 1.400 . S
C821 C820 1.385 . S
C822 C820 1.478 . S
C822 C824 1.381 . S
C822 C828 1.383 . S
C823 C819 1.495 . S
C823 H829 0.959 . S
C823 H830 0.961 . S
C823 H831 0.960 . S
C824 C822 1.381 . S
C824 C825 1.394 . S
C824 H832 0.930 . S
C825 C824 1.394 . S
C825 C826 1.383 . S
C825 H833 0.929 . S
C826 C825 1.383 . S
C826 C827 1.377 . S
C827 H811 0.930 . S
C827 C826 1.377 . S
C827 C828 1.379 . S
C828 H812 0.931 . S
C828 C822 1.383 . S
C828 C827 1.379 . S
H829 C823 0.959 . S
H830 C823 0.961 . S
H831 C823 0.960 . S
H832 C824 0.930 . S
H833 C825 0.929 . S
H834 C842 0.929 . S
H835 C844 0.930 . S
H836 C846 0.930 . S
H837 C849 0.929 . S
H838 C852 0.930 . S
H839 C854 0.960 . S
H840 C854 0.960 . S
H841 C854 0.960 . S
C842 H834 0.929 . S
C842 C843 1.377 . S
C842 C844 1.384 . S
C843 C842 1.377 . S
C843 C849 1.390 . S
C844 H835 0.930 . S
C844 C842 1.384 . S
C844 C845 1.372 . S
C845 C844 1.372 . S
C845 C846 1.400 . S
C845 C850 1.490 . S
C846 H836 0.930 . S
C846 C845 1.400 . S
C846 C849 1.386 . S
H847 C863 0.930 . S
H848 C864 0.931 . S
C849 H837 0.929 . S
C849 C843 1.390 . S
C849 C846 1.386 . S
C850 C845 1.490 . S
C850 C852 1.395 . S
C850 C853 1.403 . S
H851 C857 0.930 . S
C852 H838 0.930 . S
C852 C850 1.395 . S
C852 C855 1.403 . S
C853 C850 1.403 . S
C853 C854 1.524 . S
C853 C857 1.400 . S
C854 H839 0.960 . S
C854 H840 0.960 . S
C854 H841 0.960 . S
C854 C853 1.524 . S
C855 C852 1.403 . S
C855 C856 1.392 . S
C855 C859 1.495 . S
C856 C855 1.392 . S
C856 C857 1.385 . S
C856 C858 1.478 . S
C857 H851 0.930 . S
C857 C853 1.400 . S
C857 C856 1.385 . S
C858 C856 1.478 . S
C858 C860 1.381 . S
C858 C864 1.383 . S
C859 C855 1.495 . S
C859 H865 0.959 . S
C859 H866 0.961 . S
C859 H867 0.960 . S
C860 C858 1.381 . S
C860 C861 1.394 . S
C860 H868 0.930 . S
C861 C860 1.394 . S
C861 C862 1.383 . S
C861 H869 0.929 . S
C862 C861 1.383 . S
C862 C863 1.377 . S
C863 H847 0.930 . S
C863 C862 1.377 . S
C863 C864 1.379 . S
C864 H848 0.931 . S
C864 C858 1.383 . S
C864 C863 1.379 . S
H865 C859 0.959 . S
H866 C859 0.961 . S
H867 C859 0.960 . S
H868 C860 0.930 . S
H869 C861 0.929 . S
H870 C878 0.929 . S
H871 C880 0.930 . S
H872 C882 0.930 . S
H873 C885 0.929 . S
H874 C888 0.930 . S
H875 C890 0.960 . S
H876 C890 0.960 . S
H877 C890 0.960 . S
C878 H870 0.929 . S
C878 C879 1.377 . S
C878 C880 1.384 . S
C879 C878 1.377 . S
C879 C885 1.390 . S
C880 H871 0.930 . S
C880 C878 1.384 . S
C880 C881 1.372 . S
C881 C880 1.372 . S
C881 C882 1.400 . S
C881 C886 1.490 . S
C882 H872 0.930 . S
C882 C881 1.400 . S
C882 C885 1.386 . S
H883 C899 0.930 . S
H884 C900 0.931 . S
C885 H873 0.929 . S
C885 C879 1.390 . S
C885 C882 1.386 . S
C886 C881 1.490 . S
C886 C888 1.395 . S
C886 C889 1.403 . S
H887 C893 0.930 . S
C888 H874 0.930 . S
C888 C886 1.395 . S
C888 C891 1.403 . S
C889 C886 1.403 . S
C889 C890 1.524 . S
C889 C893 1.400 . S
C890 H875 0.960 . S
C890 H876 0.960 . S
C890 H877 0.960 . S
C890 C889 1.524 . S
C891 C888 1.403 . S
C891 C892 1.392 . S
C891 C895 1.495 . S
C892 C891 1.392 . S
C892 C893 1.385 . S
C892 C894 1.478 . S
C893 H887 0.930 . S
C893 C889 1.400 . S
C893 C892 1.385 . S
C894 C892 1.478 . S
C894 C896 1.381 . S
C894 C900 1.383 . S
C895 C891 1.495 . S
C895 H901 0.959 . S
C895 H902 0.961 . S
C895 H903 0.960 . S
C896 C894 1.381 . S
C896 C897 1.394 . S
C896 H904 0.930 . S
C897 C896 1.394 . S
C897 C898 1.383 . S
C897 H905 0.929 . S
C898 C897 1.383 . S
C898 C899 1.377 . S
C899 H883 0.930 . S
C899 C898 1.377 . S
C899 C900 1.379 . S
C900 H884 0.931 . S
C900 C894 1.383 . S
C900 C899 1.379 . S
H901 C895 0.959 . S
H902 C895 0.961 . S
H903 C895 0.960 . S
H904 C896 0.930 . S
H905 C897 0.929 . S
H906 C914 0.929 . S
H907 C916 0.930 . S
H908 C918 0.930 . S
H909 C921 0.929 . S
H910 C924 0.930 . S
H911 C926 0.960 . S
H912 C926 0.960 . S
H913 C926 0.960 . S
C914 H906 0.929 . S
C914 C915 1.377 . S
C914 C916 1.384 . S
C915 C914 1.377 . S
C915 C921 1.390 . S
C916 H907 0.930 . S
C916 C914 1.384 . S
C916 C917 1.372 . S
C917 C916 1.372 . S
C917 C918 1.400 . S
C917 C922 1.490 . S
C918 H908 0.930 . S
C918 C917 1.400 . S
C918 C921 1.386 . S
H919 C935 0.930 . S
H920 C936 0.931 . S
C921 H909 0.929 . S
C921 C915 1.390 . S
C921 C918 1.386 . S
C922 C917 1.490 . S
C922 C924 1.395 . S
C922 C925 1.403 . S
H923 C929 0.930 . S
C924 H910 0.930 . S
C924 C922 1.395 . S
C924 C927 1.403 . S
C925 C922 1.403 . S
C925 C926 1.524 . S
C925 C929 1.400 . S
C926 H911 0.960 . S
C926 H912 0.960 . S
C926 H913 0.960 . S
C926 C925 1.524 . S
C927 C924 1.403 . S
C927 C928 1.392 . S
C927 C931 1.495 . S
C928 C927 1.392 . S
C928 C929 1.385 . S
C928 C930 1.478 . S
C929 H923 0.930 . S
C929 C925 1.400 . S
C929 C928 1.385 . S
C930 C928 1.478 . S
C930 C932 1.381 . S
C930 C936 1.383 . S
C931 C927 1.495 . S
C931 H937 0.959 . S
C931 H938 0.961 . S
C931 H939 0.960 . S
C932 C930 1.381 . S
C932 C933 1.394 . S
C932 H940 0.930 . S
C933 C932 1.394 . S
C933 C934 1.383 . S
C933 H941 0.929 . S
C934 C933 1.383 . S
C934 C935 1.377 . S
C935 H919 0.930 . S
C935 C934 1.377 . S
C935 C936 1.379 . S
C936 H920 0.931 . S
C936 C930 1.383 . S
C936 C935 1.379 . S
H937 C931 0.959 . S
H938 C931 0.961 . S
H939 C931 0.960 . S
H940 C932 0.930 . S
H941 C933 0.929 . S
H942 C950 0.929 . S
H943 C952 0.930 . S
H944 C954 0.930 . S
H945 C957 0.929 . S
H946 C960 0.930 . S
H947 C962 0.960 . S
H948 C962 0.960 . S
H949 C962 0.960 . S
C950 H942 0.929 . S
C950 C951 1.377 . S
C950 C952 1.384 . S
C951 C950 1.377 . S
C951 C957 1.390 . S
C952 H943 0.930 . S
C952 C950 1.384 . S
C952 C953 1.372 . S
C953 C952 1.372 . S
C953 C954 1.400 . S
C953 C958 1.490 . S
C954 H944 0.930 . S
C954 C953 1.400 . S
C954 C957 1.386 . S
H955 C971 0.930 . S
H956 C972 0.931 . S
C957 H945 0.929 . S
C957 C951 1.390 . S
C957 C954 1.386 . S
C958 C953 1.490 . S
C958 C960 1.395 . S
C958 C961 1.403 . S
H959 C965 0.930 . S
C960 H946 0.930 . S
C960 C958 1.395 . S
C960 C963 1.403 . S
C961 C958 1.403 . S
C961 C962 1.524 . S
C961 C965 1.400 . S
C962 H947 0.960 . S
C962 H948 0.960 . S
C962 H949 0.960 . S
C962 C961 1.524 . S
C963 C960 1.403 . S
C963 C964 1.392 . S
C963 C967 1.495 . S
C964 C963 1.392 . S
C964 C965 1.385 . S
C964 C966 1.478 . S
C965 H959 0.930 . S
C965 C961 1.400 . S
C965 C964 1.385 . S
C966 C964 1.478 . S
C966 C968 1.381 . S
C966 C972 1.383 . S
C967 C963 1.495 . S
C967 H973 0.959 . S
C967 H974 0.961 . S
C967 H975 0.960 . S
C968 C966 1.381 . S
C968 C969 1.394 . S
C968 H976 0.930 . S
C969 C968 1.394 . S
C969 C970 1.383 . S
C969 H977 0.929 . S
C970 C969 1.383 . S
C970 C971 1.377 . S
C971 H955 0.930 . S
C971 C970 1.377 . S
C971 C972 1.379 . S
C972 H956 0.931 . S
C972 C966 1.383 . S
C972 C971 1.379 . S
H973 C967 0.959 . S
H974 C967 0.961 . S
H975 C967 0.960 . S
H976 C968 0.930 . S
H977 C969 0.929 . S
H978 C986 0.929 . S
H979 C988 0.930 . S
H980 C990 0.930 . S
H981 C993 0.929 . S
H982 C996 0.930 . S
H983 C998 0.960 . S
H984 C998 0.960 . S
H985 C998 0.960 . S
C986 H978 0.929 . S
C986 C987 1.377 . S
C986 C988 1.384 . S
C987 C986 1.377 . S
C987 C993 1.390 . S
C988 H979 0.930 . S
C988 C986 1.384 . S
C988 C989 1.372 . S
C989 C988 1.372 . S
C989 C990 1.400 . S
C989 C994 1.490 . S
C990 H980 0.930 . S
C990 C989 1.400 . S
C990 C993 1.386 . S
H991 C1007 0.930 . S
H992 C1008 0.931 . S
C993 H981 0.929 . S
C993 C987 1.390 . S
C993 C990 1.386 . S
C994 C989 1.490 . S
C994 C996 1.395 . S
C994 C997 1.403 . S
H995 C1001 0.930 1_556 S
C996 H982 0.930 . S
C996 C994 1.395 . S
C996 C999 1.403 . S
C997 C994 1.403 . S
C997 C998 1.524 . S
C997 C1001 1.400 . S
C998 H983 0.960 . S
C998 H984 0.960 . S
C998 H985 0.960 . S
C998 C997 1.524 . S
C999 C996 1.403 . S
C999 C1000 1.392 . S
C999 C1003 1.495 . S
C1000 C999 1.392 . S
C1000 C1001 1.385 . S
C1000 C1002 1.456 1_554 S
C1001 H995 0.930 1_554 S
C1001 C997 1.400 . S
C1001 C1000 1.385 . S
C1002 C1000 1.456 1_556 S
C1002 C1004 1.386 . S
C1002 C1008 1.402 . S
C1003 C999 1.495 . S
C1003 H1009 0.959 . S
C1003 H1010 0.961 . S
C1003 H1011 0.960 . S
C1004 C1002 1.386 . S
C1004 C1005 1.394 . S
C1004 H1012 0.930 1_556 S
C1005 C1004 1.394 . S
C1005 C1006 1.383 . S
C1005 H1013 0.929 . S
C1006 C1005 1.383 . S
C1006 C1007 1.377 . S
C1007 H991 0.930 . S
C1007 C1006 1.377 . S
C1007 C1008 1.379 . S
C1008 H992 0.931 . S
C1008 C1002 1.402 . S
C1008 C1007 1.379 . S
H1009 C1003 0.959 . S
H1010 C1003 0.961 . S
H1011 C1003 0.960 . S
H1012 C1004 0.930 1_554 S
H1013 C1005 0.929 . S
H1014 C1022 0.929 . S
H1015 C1024 0.930 . S
H1016 C1026 0.930 . S
H1017 C1029 0.929 . S
H1018 C1032 0.930 . S
H1019 C1034 0.960 . S
H1020 C1034 0.960 . S
H1021 C1034 0.960 . S
C1022 H1014 0.929 . S
C1022 C1023 1.377 . S
C1022 C1024 1.384 . S
C1023 C1022 1.377 . S
C1023 C1029 1.390 . S
C1024 H1015 0.930 . S
C1024 C1022 1.384 . S
C1024 C1025 1.372 . S
C1025 C1024 1.372 . S
C1025 C1026 1.400 . S
C1025 C1030 1.490 . S
C1026 H1016 0.930 . S
C1026 C1025 1.400 . S
C1026 C1029 1.386 . S
H1027 C1043 0.930 . S
H1028 C1044 0.931 . S
C1029 H1017 0.929 . S
C1029 C1023 1.390 . S
C1029 C1026 1.386 . S
C1030 C1025 1.490 . S
C1030 C1032 1.395 . S
C1030 C1033 1.403 . S
H1031 C1037 0.930 . S
C1032 H1018 0.930 . S
C1032 C1030 1.395 . S
C1032 C1035 1.403 . S
C1033 C1030 1.403 . S
C1033 C1034 1.524 . S
C1033 C1037 1.400 . S
C1034 H1019 0.960 . S
C1034 H1020 0.960 . S
C1034 H1021 0.960 . S
C1034 C1033 1.524 . S
C1035 C1032 1.403 . S
C1035 C1036 1.392 . S
C1035 C1039 1.495 . S
C1036 C1035 1.392 . S
C1036 C1037 1.385 . S
C1036 C1038 1.478 . S
C1037 H1031 0.930 . S
C1037 C1033 1.400 . S
C1037 C1036 1.385 . S
C1038 C1036 1.478 . S
C1038 C1040 1.381 . S
C1038 C1044 1.383 . S
C1039 C1035 1.495 . S
C1039 H1045 0.959 . S
C1039 H1046 0.961 . S
C1039 H1047 0.960 . S
C1040 C1038 1.381 . S
C1040 C1041 1.394 . S
C1040 H1048 0.930 . S
C1041 C1040 1.394 . S
C1041 C1042 1.383 . S
C1041 H1049 0.929 . S
C1042 C1041 1.383 . S
C1042 C1043 1.377 . S
C1043 H1027 0.930 . S
C1043 C1042 1.377 . S
C1043 C1044 1.379 . S
C1044 H1028 0.931 . S
C1044 C1038 1.383 . S
C1044 C1043 1.379 . S
H1045 C1039 0.959 . S
H1046 C1039 0.961 . S
H1047 C1039 0.960 . S
H1048 C1040 0.930 . S
H1049 C1041 0.929 . S
C214 C178 1.629 . S
C195 C8 1.582 . S
C231 C26 1.590 . S
C250 C113 1.632 . S
C267 C50 1.591 . S
C286 C131 1.635 . S
C303 C68 1.583 . S
C322 C144 1.614 . S
C358 C152 1.627 . S
C339 C80 1.592 . S
C375 C104 1.582 . S
C394 C164 1.633 . S
C411 C32 1.602 . S
C430 C126 1.640 . S
C447 C44 1.584 . S
C466 C139 1.632 . S
C483 C62 1.580 . S
C502 C157 1.628 . S
C538 C163 1.633 . S
C519 C86 1.596 1_554 S
C574 C183 1.609 . S
C555 C98 1.580 . S
C610 C118 1.632 . S
C591 C14 1.584 . S
C627 C7 1.552 . S
C646 C124 1.602 . S
C663 C25 1.555 . S
C682 C137 1.602 . S
C718 C151 1.598 . S
C699 C52 1.551 . S
C735 C70 1.564 . S
C754 C165 1.610 . S
C790 C177 1.593 . S
C771 C79 1.550 . S
C826 C112 1.596 . S
C807 C106 1.558 . S
C862 C176 1.603 . S
C843 C34 1.559 . S
C879 C43 1.554 . S
C898 C111 1.603 . S
C934 C125 1.601 . S
C915 C61 1.559 . S
C951 C88 1.548 . S
C970 C138 1.593 . S
C987 C97 1.561 . S
C1006 C150 1.607 . S
C1023 C16 1.564 . S
C1042 C170 1.602 . S
