# Generated by pormake.
# Topology hwx, (6,3)-cn, num edge types: 1
# Building blocks:
#     Node 0, Type 0, BuildingBlock: OJICUG_clean_sbu_0, # of connection points: 6
#     Node 1, Type 0, BuildingBlock: OJICUG_clean_sbu_0, # of connection points: 6
#     Node 2, Type 0, BuildingBlock: OJICUG_clean_sbu_0, # of connection points: 6
#     Node 3, Type 0, BuildingBlock: OJICUG_clean_sbu_0, # of connection points: 6
#     Node 4, Type 1, BuildingBlock: BELTOD_clean_linker_0, # of connection points: 3
#     Node 5, Type 1, BuildingBlock: BELTOD_clean_linker_0, # of connection points: 3
#     Node 6, Type 1, BuildingBlock: BELTOD_clean_linker_0, # of connection points: 3
#     Node 7, Type 1, BuildingBlock: BELTOD_clean_linker_0, # of connection points: 3
#     Node 8, Type 1, BuildingBlock: BELTOD_clean_linker_0, # of connection points: 3
#     Node 9, Type 1, BuildingBlock: BELTOD_clean_linker_0, # of connection points: 3
#     Node 10, Type 1, BuildingBlock: BELTOD_clean_linker_0, # of connection points: 3
#     Node 11, Type 1, BuildingBlock: BELTOD_clean_linker_0, # of connection points: 3
#     Edge 12, Type (0, 1), BuildingBlock: XUDNAN_clean_linker_2, # of connection points: 2
#     Edge 13, Type (0, 1), BuildingBlock: XUDNAN_clean_linker_2, # of connection points: 2
#     Edge 14, Type (0, 1), BuildingBlock: XUDNAN_clean_linker_2, # of connection points: 2
#     Edge 15, Type (0, 1), BuildingBlock: XUDNAN_clean_linker_2, # of connection points: 2
#     Edge 16, Type (0, 1), BuildingBlock: XUDNAN_clean_linker_2, # of connection points: 2
#     Edge 17, Type (0, 1), BuildingBlock: XUDNAN_clean_linker_2, # of connection points: 2
#     Edge 18, Type (0, 1), BuildingBlock: XUDNAN_clean_linker_2, # of connection points: 2
#     Edge 19, Type (0, 1), BuildingBlock: XUDNAN_clean_linker_2, # of connection points: 2
#     Edge 20, Type (0, 1), BuildingBlock: XUDNAN_clean_linker_2, # of connection points: 2
#     Edge 21, Type (0, 1), BuildingBlock: XUDNAN_clean_linker_2, # of connection points: 2
#     Edge 22, Type (0, 1), BuildingBlock: XUDNAN_clean_linker_2, # of connection points: 2
#     Edge 23, Type (0, 1), BuildingBlock: XUDNAN_clean_linker_2, # of connection points: 2
#     Edge 24, Type (0, 1), BuildingBlock: XUDNAN_clean_linker_2, # of connection points: 2
#     Edge 25, Type (0, 1), BuildingBlock: XUDNAN_clean_linker_2, # of connection points: 2
#     Edge 26, Type (0, 1), BuildingBlock: XUDNAN_clean_linker_2, # of connection points: 2
#     Edge 27, Type (0, 1), BuildingBlock: XUDNAN_clean_linker_2, # of connection points: 2
#     Edge 28, Type (0, 1), BuildingBlock: XUDNAN_clean_linker_2, # of connection points: 2
#     Edge 29, Type (0, 1), BuildingBlock: XUDNAN_clean_linker_2, # of connection points: 2
#     Edge 30, Type (0, 1), BuildingBlock: XUDNAN_clean_linker_2, # of connection points: 2
#     Edge 31, Type (0, 1), BuildingBlock: XUDNAN_clean_linker_2, # of connection points: 2
#     Edge 32, Type (0, 1), BuildingBlock: XUDNAN_clean_linker_2, # of connection points: 2
#     Edge 33, Type (0, 1), BuildingBlock: XUDNAN_clean_linker_2, # of connection points: 2
#     Edge 34, Type (0, 1), BuildingBlock: XUDNAN_clean_linker_2, # of connection points: 2
#     Edge 35, Type (0, 1), BuildingBlock: XUDNAN_clean_linker_2, # of connection points: 2
# Relax obj value: 0.069
# Max RMSD: 0.096
# Mean RMSD: 0.086
data_MOF--net-hwx--node1-OJICUG_clean_sbu_0--node2-BELTOD_clean_linker_0--edge1-XUDNAN_clean_linker_2
_symmetry_space_group_name_H-M    P1
_symmetry_Int_Tables_number       1
_symmetry_cell_setting            triclinic
loop_
_symmetry_equiv_pos_as_xyz
'x, y, z'
_cell_length_a     56.776437
_cell_length_b     56.7481
_cell_length_c     25.324349
_cell_angle_alpha  89.440941
_cell_angle_beta   90.572005
_cell_angle_gamma 89.980822
loop_
_atom_site_label
_atom_site_type_symbol
_atom_site_fract_x
_atom_site_fract_y
_atom_site_fract_z
_atom_type_partial_charge
Sc0 Sc 0.21508 0.20847 0.06984 0.0
Sc1 Sc 0.16995 0.17849 0.00083 0.0
Sc2 Sc 0.21159 0.21333 0.93219 0.0
O3 O 0.19887 0.20003 0.00093 0.0
C4 C 0.21805 0.25738 0.00847 0.0
C5 C 0.16044 0.21211 0.09821 0.0
C6 C 0.15647 0.21745 0.91329 0.0
C7 C 0.20235 0.15456 0.09053 0.0
C8 C 0.25891 0.2003 0.99396 0.0
C9 C 0.19806 0.16026 0.90133 0.0
O10 O 0.21707 0.24512 0.05047 0.0
O11 O 0.1529 0.19867 0.06182 0.0
O12 O 0.17736 0.22484 0.9072 0.0
O13 O 0.21479 0.17283 0.09759 0.0
O14 O 0.24715 0.20324 0.95143 0.0
O15 O 0.18434 0.15654 0.93996 0.0
O16 O 0.2499 0.20216 0.03954 0.0
O17 O 0.18507 0.15402 0.05816 0.0
O18 O 0.20791 0.18005 0.89293 0.0
O19 O 0.18213 0.21642 0.10616 0.0
O20 O 0.21707 0.24839 0.96273 0.0
O21 O 0.15114 0.20011 0.94309 0.0
Sc22 Sc 0.27739 0.72049 0.41725 0.0
Sc23 Sc 0.31551 0.67837 0.47501 0.0
Sc24 Sc 0.2747 0.70848 0.55384 0.0
O25 O 0.28915 0.70241 0.482 0.0
C26 C 0.27641 0.76042 0.50522 0.0
C27 C 0.33228 0.71907 0.39511 0.0
C28 C 0.32993 0.70526 0.58027 0.0
C29 C 0.2849 0.66841 0.37201 0.0
C30 C 0.22955 0.7091 0.47787 0.0
C31 C 0.28276 0.65307 0.56037 0.0
O32 O 0.27709 0.75389 0.45738 0.0
O33 O 0.33559 0.70046 0.42248 0.0
O34 O 0.30894 0.71114 0.59157 0.0
O35 O 0.27665 0.68925 0.36936 0.0
O36 O 0.23914 0.70689 0.52326 0.0
O37 O 0.29928 0.6529 0.52692 0.0
O38 O 0.24113 0.71378 0.43634 0.0
O39 O 0.29845 0.66138 0.40928 0.0
O40 O 0.27184 0.67168 0.57285 0.0
O41 O 0.31231 0.72906 0.39098 0.0
O42 O 0.27557 0.74599 0.54374 0.0
O43 O 0.33501 0.69358 0.53931 0.0
Sc44 Sc 0.76604 0.77275 0.95329 0.0
Sc45 Sc 0.79785 0.8091 0.03937 0.0
Sc46 Sc 0.76627 0.7609 0.09052 0.0
O47 O 0.77666 0.78091 0.02776 0.0
C48 C 0.71942 0.76419 0.01922 0.0
C49 C 0.76377 0.82921 0.95043 0.0
C50 C 0.76311 0.81244 0.13777 0.0
C51 C 0.8194 0.78675 0.93485 0.0
C52 C 0.77578 0.72173 0.00456 0.0
C53 C 0.82004 0.77164 0.11903 0.0
O54 O 0.72953 0.77075 0.97687 0.0
O55 O 0.77589 0.83214 0.99228 0.0
O56 O 0.75564 0.79135 0.13519 0.0
O57 O 0.80165 0.77402 0.92338 0.0
O58 O 0.77567 0.72837 0.0524 0.0
O59 O 0.82202 0.78874 0.0867 0.0
O60 O 0.7713 0.73558 0.96602 0.0
O61 O 0.81951 0.80101 0.97318 0.0
O62 O 0.80077 0.76086 0.12718 0.0
O63 O 0.75994 0.80902 0.93073 0.0
O64 O 0.7307 0.75886 0.0613 0.0
O65 O 0.77889 0.82054 0.10738 0.0
Sc66 Sc 0.71099 0.27828 0.56844 0.0
Sc67 Sc 0.68579 0.3234 0.48925 0.0
Sc68 Sc 0.71749 0.27756 0.4299 0.0
O69 O 0.70481 0.29308 0.49595 0.0
C70 C 0.76026 0.27105 0.51209 0.0
C71 C 0.71618 0.33334 0.59311 0.0
C72 C 0.72661 0.33195 0.40554 0.0
C73 C 0.65758 0.29477 0.57755 0.0
C74 C 0.70136 0.23285 0.49732 0.0
C75 C 0.66617 0.29386 0.39213 0.0
O76 O 0.74772 0.27328 0.55301 0.0
O77 O 0.70451 0.34007 0.55265 0.0
O78 O 0.73113 0.31022 0.39998 0.0
O79 O 0.6748 0.28171 0.59138 0.0
O80 O 0.70558 0.24324 0.45379 0.0
O81 O 0.66451 0.30973 0.42677 0.0
O82 O 0.70301 0.24301 0.5418 0.0
O83 O 0.65905 0.31064 0.54197 0.0
O84 O 0.68448 0.28122 0.38677 0.0
O85 O 0.71995 0.31171 0.60404 0.0
O86 O 0.75181 0.27194 0.46538 0.0
O87 O 0.7104 0.33959 0.43513 0.0
P88 P 0.31113 0.49157 0.97643 0.0
H89 H 0.33524 0.51044 0.06976 0.0
H90 H 0.32497 0.54143 0.13151 0.0
H91 H 0.25793 0.55058 0.05111 0.0
H92 H 0.26901 0.52057 0.98788 0.0
H93 H 0.32201 0.44358 0.94589 0.0
H94 H 0.30163 0.40604 0.95853 0.0
H95 H 0.24573 0.44209 0.03968 0.0
H96 H 0.26648 0.47924 0.0284 0.0
H97 H 0.33568 0.52475 0.9088 0.0
H98 H 0.27068 0.48551 0.90442 0.0
O99 O 0.3401 0.48676 0.98045 0.0
H100 H 0.32432 0.54529 0.82739 0.0
H101 H 0.25936 0.50562 0.82226 0.0
C102 C 0.30298 0.51337 0.02403 0.0
C103 C 0.31836 0.51917 0.06543 0.0
C104 C 0.31233 0.53678 0.10108 0.0
C105 C 0.29059 0.54865 0.09639 0.0
C106 C 0.275 0.54225 0.05542 0.0
C107 C 0.28124 0.52493 0.01939 0.0
C108 C 0.29606 0.46412 0.98717 0.0
C109 C 0.30546 0.44332 0.96681 0.0
C110 C 0.29365 0.42193 0.97354 0.0
C111 C 0.27207 0.42106 0.0003 0.0
C112 C 0.26251 0.44208 0.01974 0.0
C113 C 0.27439 0.46342 0.01317 0.0
C114 C 0.30424 0.50336 0.91208 0.0
C115 C 0.31925 0.52011 0.88947 0.0
C116 C 0.31274 0.53177 0.8428 0.0
C117 C 0.29097 0.527 0.81817 0.0
C118 C 0.27619 0.50975 0.84041 0.0
C119 C 0.28274 0.4981 0.88715 0.0
P120 P 0.98953 0.77126 0.5323 0.0
H121 H 0.004 0.76959 0.6431 0.0
H122 H 0.98138 0.76667 0.7244 0.0
H123 H 0.91819 0.75401 0.63205 0.0
H124 H 0.94108 0.75513 0.55221 0.0
H125 H 0.02592 0.7804 0.45676 0.0
H126 H 0.06376 0.76187 0.43889 0.0
H127 H 0.0531 0.71331 0.5688 0.0
H128 H 0.01471 0.73167 0.58587 0.0
H129 H 0.94977 0.79676 0.48677 0.0
H130 H 0.98909 0.73368 0.45282 0.0
O131 O 0.99411 0.80024 0.53588 0.0
H132 H 0.9245 0.78976 0.40957 0.0
H133 H 0.9643 0.72712 0.3745 0.0
C134 C 0.97433 0.76264 0.59148 0.0
C135 C 0.98543 0.76531 0.64066 0.0
C136 C 0.97236 0.76397 0.68709 0.0
C137 C 0.94777 0.76063 0.685 0.0
C138 C 0.93705 0.75642 0.63567 0.0
C139 C 0.95022 0.75731 0.58948 0.0
C140 C 0.01773 0.75764 0.52305 0.0
C141 C 0.03173 0.76581 0.48155 0.0
C142 C 0.05323 0.75511 0.47111 0.0
C143 C 0.06123 0.73611 0.50234 0.0
C144 C 0.04729 0.728 0.54433 0.0
C145 C 0.02546 0.73853 0.55423 0.0
C146 C 0.97152 0.766 0.47487 0.0
C147 C 0.95307 0.78154 0.46245 0.0
C148 C 0.93859 0.77746 0.41872 0.0
C149 C 0.94259 0.75794 0.38639 0.0
C150 C 0.96104 0.74234 0.39886 0.0
C151 C 0.97522 0.74616 0.44338 0.0
P152 P 0.82721 0.4724 -0.00072 0.0
H153 H 0.84254 0.44029 0.91603 0.0
H154 H 0.82093 0.41945 0.84653 0.0
H155 H 0.75551 0.44735 0.90512 0.0
H156 H 0.7772 0.46802 0.97476 0.0
H157 H 0.83434 0.51149 0.0722 0.0
H158 H 0.8272 0.55395 0.06415 0.0
H159 H 0.7974 0.54349 0.90833 0.0
H160 H 0.80562 0.50164 0.91565 0.0
H161 H 0.84616 0.43207 0.0563 0.0
H162 H 0.79101 0.48317 0.07786 0.0
O163 O 0.85615 0.46973 0.99004 0.0
H164 H 0.83434 0.41155 0.1366 0.0
H165 H 0.77954 0.4633 0.15988 0.0
C166 C 0.81145 0.45599 0.94987 0.0
C167 C 0.82355 0.44184 0.91408 0.0
C168 C 0.81119 0.42983 0.8746 0.0
C169 C 0.78658 0.43196 0.87024 0.0
C170 C 0.7745 0.44565 0.90718 0.0
C171 C 0.78684 0.4574 0.94696 0.0
C172 C 0.81999 0.50329 0.99513 0.0
C173 C 0.82607 0.51839 0.03657 0.0
C174 C 0.82189 0.54265 0.03196 0.0
C175 C 0.81171 0.5522 0.98557 0.0
C176 C 0.80556 0.53687 0.94435 0.0
C177 C 0.80994 0.51274 0.94883 0.0
C178 C 0.8199 0.45947 0.06201 0.0
C179 C 0.83187 0.43922 0.07919 0.0
C180 C 0.82511 0.42755 0.12534 0.0
C181 C 0.80614 0.43591 0.15527 0.0
C182 C 0.79416 0.45632 0.13779 0.0
C183 C 0.80087 0.46787 0.09123 0.0
P184 P 0.00937 0.3052 0.49357 0.0
H185 H 0.01282 0.32421 0.38677 0.0
H186 H 0.03454 0.31153 0.30923 0.0
H187 H 0.05724 0.24891 0.39382 0.0
H188 H 0.03508 0.26154 0.47103 0.0
H189 H 0.97619 0.31068 0.57834 0.0
H190 H 0.93517 0.29895 0.58941 0.0
H191 H 0.93528 0.2677 0.43448 0.0
H192 H 0.97644 0.27961 0.42355 0.0
H193 H 0.05047 0.32562 0.54525 0.0
H194 H 0.00602 0.26474 0.56642 0.0
O195 O 0.00924 0.33459 0.49043 0.0
H196 H 0.07311 0.31449 0.62409 0.0
H197 H 0.02806 0.25386 0.64643 0.0
C198 C 0.02295 0.29415 0.435 0.0
C199 C 0.02231 0.30766 0.38847 0.0
C200 C 0.03473 0.3004 0.34423 0.0
C201 C 0.0479 0.27941 0.34574 0.0
C202 C 0.04723 0.26514 0.39142 0.0
C203 C 0.03476 0.27245 0.43573 0.0
C204 C 0.97939 0.29574 0.50052 0.0
C205 C 0.96743 0.30115 0.54692 0.0
C206 C 0.94404 0.29434 0.55328 0.0
C207 C 0.93211 0.28221 0.513 0.0
C208 C 0.94406 0.27707 0.46611 0.0
C209 C 0.9676 0.28377 0.45995 0.0
C210 C 0.02623 0.29636 0.5509 0.0
C211 C 0.04546 0.30997 0.56722 0.0
C212 C 0.0583 0.30364 0.61248 0.0
C213 C 0.05215 0.2835 0.64215 0.0
C214 C 0.03328 0.26946 0.62454 0.0
C215 C 0.02052 0.27578 0.57907 0.0
P216 P 0.75229 0.99005 0.52224 0.0
H217 H 0.75415 0.99184 0.40752 0.0
H218 H 0.74509 0.96273 0.33974 0.0
H219 H 0.7181 0.91563 0.46002 0.0
H220 H 0.72605 0.94516 0.52664 0.0
H221 H 0.76684 0.03612 0.55832 0.0
H222 H 0.74868 0.07499 0.55291 0.0
H223 H 0.68672 0.04441 0.48034 0.0
H224 H 0.7054 0.00547 0.48492 0.0
H225 H 0.77869 0.95164 0.56939 0.0
H226 H 0.72141 0.99701 0.6141 0.0
O227 O 0.78072 0.99477 0.50977 0.0
H228 H 0.77483 0.9296 0.6522 0.0
H229 H 0.71767 0.97509 0.69771 0.0
C230 C 0.74128 0.9705 0.47218 0.0
C231 C 0.74583 0.97542 0.41899 0.0
C232 C 0.7408 0.95867 0.38039 0.0
C233 C 0.7313 0.93659 0.39448 0.0
C234 C 0.72533 0.93242 0.44753 0.0
C235 C 0.73014 0.94929 0.48596 0.0
C236 C 0.73767 0.01811 0.52091 0.0
C237 C 0.74932 0.03779 0.54135 0.0
C238 C 0.73878 0.05998 0.53874 0.0
C239 C 0.71623 0.06285 0.51605 0.0
C240 C 0.70424 0.04284 0.49734 0.0
C241 C 0.71486 0.02059 0.49997 0.0
C242 C 0.75056 0.97608 0.58601 0.0
C243 C 0.76551 0.95706 0.59744 0.0
C244 C 0.76316 0.94438 0.64447 0.0
C245 C 0.74586 0.95062 0.68106 0.0
C246 C 0.7312 0.97005 0.67016 0.0
C247 C 0.73337 0.98257 0.62254 0.0
P248 P 0.49036 0.2834 0.98788 0.0
H249 H 0.48863 0.31255 0.89231 0.0
H250 H 0.5104 0.31128 0.80994 0.0
H251 H 0.54403 0.24656 0.86189 0.0
H252 H 0.52301 0.2487 0.94537 0.0
H253 H 0.44292 0.29088 0.02704 0.0
H254 H 0.40764 0.26648 0.0273 0.0
H255 H 0.44663 0.20971 0.95645 0.0
H256 H 0.48192 0.23446 0.95569 0.0
H257 H 0.53927 0.29658 0.00435 0.0
H258 H 0.48652 0.25637 0.08715 0.0
O259 O 0.48191 0.31132 0.99567 0.0
H260 H 0.56624 0.29195 0.0794 0.0
H261 H 0.51355 0.25132 0.16205 0.0
C262 C 0.50453 0.28093 0.92513 0.0
C263 C 0.50065 0.29806 0.88586 0.0
C264 C 0.51294 0.29715 0.83847 0.0
C265 C 0.5291 0.27887 0.82931 0.0
C266 C 0.53207 0.26112 0.86801 0.0
C267 C 0.51994 0.26221 0.9156 0.0
C268 C 0.46486 0.26469 0.99014 0.0
C269 C 0.44392 0.27319 0.01157 0.0
C270 C 0.42381 0.2591 0.01224 0.0
C271 C 0.42434 0.23615 0.99181 0.0
C272 C 0.44561 0.22742 0.97185 0.0
C273 C 0.46578 0.24156 0.97134 0.0
C274 C 0.51102 0.27661 0.03996 0.0
C275 C 0.53371 0.28626 0.0382 0.0
C276 C 0.54916 0.2835 0.08103 0.0
C277 C 0.54203 0.27125 0.12665 0.0
C278 C 0.51947 0.261 0.12759 0.0
C279 C 0.50404 0.26377 0.08465 0.0
P280 P 0.29899 0.01303 0.50296 0.0
H281 H 0.29479 0.00219 0.61576 0.0
H282 H 0.27538 0.02249 0.68823 0.0
H283 H 0.25512 0.07875 0.58089 0.0
H284 H 0.27472 0.05857 0.50898 0.0
H285 H 0.32826 0.97272 0.47541 0.0
H286 H 0.3226 0.93008 0.48499 0.0
H287 H 0.25414 0.94221 0.55257 0.0
H288 H 0.25984 0.9847 0.54264 0.0
H289 H 0.31857 0.03375 0.4064 0.0
H290 H 0.25052 0.01252 0.46409 0.0
O291 O 0.32775 0.01909 0.5035 0.0
H292 H 0.3001 0.04918 0.32568 0.0
H293 H 0.23181 0.02838 0.38399 0.0
C294 C 0.28551 0.02847 0.55663 0.0
C295 C 0.28603 0.01882 0.60781 0.0
C296 C 0.2749 0.0304 0.64914 0.0
C297 C 0.26346 0.05207 0.64012 0.0
C298 C 0.26378 0.06209 0.58913 0.0
C299 C 0.27482 0.05045 0.54784 0.0
C300 C 0.29477 0.9818 0.50979 0.0
C301 C 0.31209 0.96617 0.49249 0.0
C302 C 0.30878 0.94186 0.49761 0.0
C303 C 0.28805 0.93291 0.52007 0.0
C304 C 0.27047 0.94867 0.53604 0.0
C305 C 0.27371 0.97292 0.5304 0.0
C306 C 0.28586 0.02219 0.44127 0.0
C307 C 0.29967 0.03225 0.40153 0.0
C308 C 0.28907 0.04115 0.35549 0.0
C309 C 0.26445 0.04018 0.34859 0.0
C310 C 0.25081 0.02918 0.38776 0.0
C311 C 0.26146 0.02023 0.4337 0.0
P312 P 0.47135 0.81675 0.97877 0.0
H313 H 0.4578 0.83842 0.07874 0.0
H314 H 0.43842 0.82239 0.1578 0.0
H315 H 0.43036 0.7554 0.0806 0.0
H316 H 0.44892 0.77151 0.00148 0.0
H317 H 0.51624 0.84063 0.95763 0.0
H318 H 0.55735 0.82871 0.97141 0.0
H319 H 0.53386 0.76118 0.03126 0.0
H320 H 0.49325 0.77344 0.01921 0.0
H321 H 0.43038 0.82905 0.91411 0.0
H322 H 0.48486 0.77605 0.91446 0.0
O323 O 0.46943 0.84607 0.97491 0.0
H324 H 0.41144 0.81009 0.83842 0.0
H325 H 0.46574 0.75663 0.84065 0.0
C326 C 0.45457 0.80623 0.03409 0.0
C327 C 0.45141 0.82045 0.07847 0.0
C328 C 0.44043 0.81132 0.12351 0.0
C329 C 0.43309 0.78771 0.12495 0.0
C330 C 0.43598 0.77365 0.08025 0.0
C331 C 0.44647 0.7829 0.03504 0.0
C332 C 0.50164 0.80815 0.9885 0.0
C333 C 0.52001 0.82335 0.97414 0.0
C334 C 0.5435 0.81642 0.98157 0.0
C335 C 0.54893 0.79406 0.003 0.0
C336 C 0.53037 0.77874 0.016 0.0
C337 C 0.50703 0.78575 0.00901 0.0
C338 C 0.45924 0.80425 0.91939 0.0
C339 C 0.43841 0.8135 0.89752 0.0
C340 C 0.42747 0.80248 0.85466 0.0
C341 C 0.43706 0.78181 0.83337 0.0
C342 C 0.45808 0.77275 0.8553 0.0
C343 C 0.46904 0.78385 0.89787 0.0
H344 H 0.12124 0.19653 0.152 0.0
H345 H 0.16213 0.25884 0.11372 0.0
H346 H 0.13555 0.28311 0.16704 0.0
H347 H 0.06298 0.22524 0.15679 0.0
H348 H 0.05355 0.20816 0.21311 0.0
H349 H 0.07416 0.19581 0.1673 0.0
H350 H 0.10357 0.18766 0.2442 0.0
H351 H 0.08308 0.2 0.29018 0.0
H352 H 0.11258 0.21157 0.28618 0.0
H353 H 0.10633 0.30037 0.22646 0.0
H354 H 0.07725 0.3096 0.2946 0.0
H355 H 0.05559 0.23623 0.29929 0.0
C356 C 0.12424 0.21534 0.15435 0.0
C357 C 0.14353 0.22596 0.12867 0.0
C358 C 0.14739 0.25049 0.13329 0.0
C359 C 0.13235 0.26441 0.16318 0.0
C360 C 0.11366 0.25349 0.1887 0.0
C361 C 0.10959 0.22952 0.18513 0.0
C362 C 0.08936 0.22212 0.22034 0.0
C363 C 0.06879 0.21225 0.18741 0.0
C364 C 0.09765 0.20429 0.26274 0.0
C365 C 0.083 0.24562 0.24454 0.0
C366 C 0.09705 0.26347 0.22494 0.0
C367 C 0.09504 0.28662 0.24185 0.0
C368 C 0.07837 0.29171 0.28036 0.0
C369 C 0.06401 0.2737 0.30192 0.0
C370 C 0.06631 0.25036 0.28346 0.0
H371 H 0.31205 0.61586 0.5812 0.0
H372 H 0.24112 0.64141 0.60706 0.0
H373 H 0.23351 0.60743 0.66604 0.0
H374 H 0.29871 0.55096 0.59181 0.0
H375 H 0.32599 0.54534 0.62672 0.0
H376 H 0.32426 0.56878 0.57826 0.0
H377 H 0.33912 0.59842 0.64831 0.0
H378 H 0.34073 0.5752 0.69695 0.0
H379 H 0.32342 0.60115 0.7095 0.0
H380 H 0.23545 0.57446 0.73144 0.0
H381 H 0.24718 0.54582 0.80062 0.0
H382 H 0.31705 0.54176 0.73335 0.0
C383 C 0.29465 0.61383 0.59777 0.0
C384 C 0.27708 0.63109 0.58918 0.0
C385 C 0.25478 0.62829 0.61298 0.0
C386 C 0.25026 0.60899 0.64627 0.0
C387 C 0.26822 0.59266 0.65534 0.0
C388 C 0.28997 0.59483 0.63165 0.0
C389 C 0.30721 0.57669 0.65318 0.0
C390 C 0.31446 0.55941 0.6099 0.0
C391 C 0.32888 0.58858 0.67849 0.0
C392 C 0.29208 0.56468 0.69426 0.0
C393 C 0.2695 0.57379 0.69406 0.0
C394 C 0.25292 0.56681 0.73124 0.0
C395 C 0.25972 0.55045 0.7703 0.0
C396 C 0.283 0.54144 0.77221 0.0
C397 C 0.29913 0.5483 0.73284 0.0
H398 H 0.82259 0.76136 0.22403 0.0
H399 H 0.86474 0.76736 0.08281 0.0
H400 H 0.90075 0.75892 0.13554 0.0
H401 H 0.86125 0.79262 0.30323 0.0
H402 H 0.85628 0.7757 0.36269 0.0
H403 H 0.83355 0.77773 0.31291 0.0
H404 H 0.83193 0.73216 0.30758 0.0
H405 H 0.85468 0.72997 0.35757 0.0
H406 H 0.85851 0.71588 0.29475 0.0
H407 H 0.93223 0.75297 0.20425 0.0
H408 H 0.95726 0.75385 0.28488 0.0
H409 H 0.89475 0.75487 0.38165 0.0
C410 C 0.83936 0.76019 0.20418 0.0
C411 C 0.84104 0.76456 0.1495 0.0
C412 C 0.86325 0.76382 0.12476 0.0
C413 C 0.8837 0.75892 0.15428 0.0
C414 C 0.88157 0.75511 0.20847 0.0
C415 C 0.85998 0.7559 0.23328 0.0
C416 C 0.86279 0.7543 0.29267 0.0
C417 C 0.85289 0.7764 0.31941 0.0
C418 C 0.8513 0.73173 0.31441 0.0
C419 C 0.88933 0.75314 0.29746 0.0
C420 C 0.89983 0.753 0.24843 0.0
C421 C 0.92423 0.75285 0.24286 0.0
C422 C 0.93828 0.75331 0.28868 0.0
C423 C 0.9278 0.75441 0.33901 0.0
C424 C 0.90308 0.75397 0.34341 0.0
H425 H 0.74911 0.32866 0.67351 0.0
H426 H 0.70272 0.37952 0.59614 0.0
H427 H 0.71573 0.40992 0.65854 0.0
H428 H 0.7408 0.34861 0.80578 0.0
H429 H 0.77107 0.34427 0.82573 0.0
H430 H 0.75833 0.32627 0.77471 0.0
H431 H 0.79157 0.33876 0.71092 0.0
H432 H 0.80446 0.35675 0.76179 0.0
H433 H 0.79685 0.36964 0.69856 0.0
H434 H 0.73241 0.43449 0.73063 0.0
H435 H 0.75376 0.45247 0.80549 0.0
H436 H 0.79032 0.38641 0.83512 0.0
C437 C 0.74172 0.34619 0.66964 0.0
C438 C 0.72484 0.35163 0.62988 0.0
C439 C 0.71573 0.37487 0.62603 0.0
C440 C 0.72295 0.39229 0.66142 0.0
C441 C 0.73946 0.38632 0.70023 0.0
C442 C 0.74892 0.36393 0.70437 0.0
C443 C 0.76663 0.36234 0.74947 0.0
C444 C 0.75873 0.3443 0.7914 0.0
C445 C 0.79134 0.35653 0.72894 0.0
C446 C 0.76545 0.38728 0.77018 0.0
C447 C 0.74956 0.40075 0.74131 0.0
C448 C 0.74498 0.42418 0.75346 0.0
C449 C 0.75707 0.43418 0.79617 0.0
C450 C 0.77364 0.42082 0.82599 0.0
C451 C 0.77788 0.39707 0.81266 0.0
H452 H 0.66326 0.27823 0.28928 0.0
H453 H 0.62103 0.29835 0.42355 0.0
H454 H 0.58483 0.29093 0.37221 0.0
H455 H 0.62707 0.30655 0.19317 0.0
H456 H 0.63062 0.28439 0.14336 0.0
H457 H 0.65344 0.28887 0.19206 0.0
H458 H 0.65126 0.24475 0.21894 0.0
H459 H 0.62835 0.24016 0.17034 0.0
H460 H 0.62343 0.23228 0.23847 0.0
H461 H 0.55342 0.28341 0.3067 0.0
H462 H 0.52823 0.27899 0.22776 0.0
H463 H 0.59008 0.26455 0.13382 0.0
C464 C 0.64637 0.28076 0.30788 0.0
C465 C 0.6449 0.28884 0.36031 0.0
C466 C 0.62252 0.29233 0.38325 0.0
C467 C 0.60186 0.28798 0.3546 0.0
C468 C 0.60382 0.28028 0.3029 0.0
C469 C 0.62543 0.27685 0.27943 0.0
C470 C 0.62237 0.27027 0.22187 0.0
C471 C 0.63406 0.28862 0.18548 0.0
C472 C 0.63192 0.24538 0.21183 0.0
C473 C 0.59574 0.271 0.21669 0.0
C474 C 0.58545 0.27641 0.26423 0.0
C475 C 0.5612 0.2789 0.26929 0.0
C476 C 0.54702 0.27621 0.22427 0.0
C477 C 0.55715 0.27125 0.17472 0.0
C478 C 0.58184 0.26832 0.17119 0.0
H479 H 0.22556 0.16189 0.81307 0.0
H480 H 0.18404 0.11389 0.90911 0.0
H481 H 0.19593 0.08088 0.85226 0.0
H482 H 0.21312 0.13473 0.68733 0.0
H483 H 0.2424 0.13986 0.66287 0.0
H484 H 0.2299 0.15967 0.71016 0.0
H485 H 0.26584 0.15282 0.7724 0.0
H486 H 0.2784 0.13292 0.72545 0.0
H487 H 0.27351 0.1232 0.79243 0.0
H488 H 0.21372 0.05286 0.78641 0.0
H489 H 0.23467 0.03244 0.7149 0.0
H490 H 0.26449 0.09911 0.66344 0.0
C491 C 0.21875 0.14451 0.82212 0.0
C492 C 0.20381 0.14055 0.86566 0.0
C493 C 0.19543 0.11744 0.87592 0.0
C494 C 0.20213 0.09855 0.84391 0.0
C495 C 0.21713 0.1031 0.80177 0.0
C496 C 0.22521 0.12554 0.7907 0.0
C497 C 0.24142 0.12578 0.74367 0.0
C498 C 0.23108 0.1409 0.69833 0.0
C499 C 0.26626 0.13417 0.75946 0.0
C500 C 0.24131 0.09992 0.73003 0.0
C501 C 0.22724 0.08708 0.76399 0.0
C502 C 0.22473 0.06275 0.75952 0.0
C503 C 0.23681 0.0513 0.71904 0.0
C504 C 0.25116 0.0642 0.68357 0.0
C505 C 0.25341 0.08881 0.68946 0.0
H506 H 0.33312 0.75922 0.33314 0.0
H507 H 0.37664 0.70053 0.38693 0.0
H508 H 0.40865 0.71426 0.32949 0.0
H509 H 0.3491 0.75767 0.20143 0.0
H510 H 0.34946 0.78914 0.19106 0.0
H511 H 0.33087 0.77647 0.24092 0.0
H512 H 0.35036 0.80295 0.31173 0.0
H513 H 0.36898 0.81583 0.26195 0.0
H514 H 0.38192 0.8025 0.32027 0.0
H515 H 0.43381 0.73102 0.25876 0.0
H516 H 0.45138 0.75124 0.18166 0.0
H517 H 0.3926 0.79995 0.17556 0.0
C518 C 0.34952 0.74947 0.33364 0.0
C519 C 0.35228 0.72874 0.3646 0.0
C520 C 0.37403 0.71647 0.36372 0.0
C521 C 0.39238 0.72414 0.33127 0.0
C522 C 0.38886 0.74429 0.3004 0.0
C523 C 0.3681 0.75697 0.3017 0.0
C524 C 0.36839 0.77726 0.26234 0.0
C525 C 0.34826 0.77498 0.22153 0.0
C526 C 0.36736 0.80105 0.29078 0.0
C527 C 0.39221 0.77346 0.23738 0.0
C528 C 0.40377 0.75442 0.26023 0.0
C529 C 0.42519 0.74625 0.24124 0.0
C530 C 0.43497 0.75773 0.19747 0.0
C531 C 0.42339 0.77719 0.1735 0.0
C532 C 0.40195 0.78538 0.19413 0.0
H533 H 0.75144 0.83195 0.84619 0.0
H534 H 0.75855 0.87428 0.98725 0.0
H535 H 0.74952 0.91012 0.93455 0.0
H536 H 0.78111 0.86992 0.76463 0.0
H537 H 0.76325 0.86482 0.70661 0.0
H538 H 0.76596 0.84224 0.75657 0.0
H539 H 0.72055 0.84084 0.76579 0.0
H540 H 0.71766 0.86336 0.71544 0.0
H541 H 0.7046 0.86756 0.77925 0.0
H542 H 0.74387 0.94172 0.86456 0.0
H543 H 0.74395 0.96623 0.78296 0.0
H544 H 0.74208 0.90295 0.68855 0.0
C545 C 0.7504 0.84864 0.8664 0.0
C546 C 0.75548 0.85029 0.92092 0.0
C547 C 0.75461 0.87259 0.94553 0.0
C548 C 0.74939 0.89303 0.91597 0.0
C549 C 0.74512 0.89083 0.86193 0.0
C550 C 0.74554 0.86916 0.83745 0.0
C551 C 0.74302 0.87169 0.77818 0.0
C552 C 0.76462 0.86158 0.74988 0.0
C553 C 0.72009 0.86018 0.75852 0.0
C554 C 0.74189 0.89821 0.7729 0.0
C555 C 0.74262 0.90898 0.8216 0.0
C556 C 0.74299 0.93346 0.82626 0.0
C557 C 0.743 0.94723 0.77986 0.0
C558 C 0.74308 0.9364 0.72978 0.0
C559 C 0.74208 0.91163 0.72647 0.0
H560 H 0.82944 0.75601 0.85367 0.0
H561 H 0.85931 0.8131 0.94603 0.0
H562 H 0.8962 0.81 0.8971 0.0
H563 H 0.88381 0.72182 0.84409 0.0
H564 H 0.878 0.71294 0.77707 0.0
H565 H 0.85387 0.71867 0.82083 0.0
H566 H 0.83675 0.74914 0.75393 0.0
H567 H 0.86073 0.74341 0.7099 0.0
H568 H 0.85505 0.77307 0.73121 0.0
H569 H 0.92894 0.80268 0.83627 0.0
H570 H 0.95537 0.79241 0.7641 0.0
H571 H 0.90592 0.73863 0.71242 0.0
C572 C 0.84375 0.76782 0.86368 0.0
C573 C 0.84134 0.78479 0.90387 0.0
C574 C 0.86057 0.7999 0.91559 0.0
C575 C 0.88172 0.79826 0.88813 0.0
C576 C 0.88354 0.78135 0.84909 0.0
C577 C 0.86514 0.76639 0.83666 0.0
C578 C 0.87167 0.75036 0.7915 0.0
C579 C 0.87185 0.72441 0.80947 0.0
C580 C 0.85507 0.75424 0.74382 0.0
C581 C 0.89638 0.75907 0.77999 0.0
C582 C 0.90287 0.7768 0.81407 0.0
C583 C 0.92428 0.78853 0.80979 0.0
C584 C 0.93933 0.78235 0.76879 0.0
C585 C 0.93302 0.76447 0.73251 0.0
C586 C 0.91137 0.75241 0.73916 0.0
H587 H 0.71396 0.36788 0.33798 0.0
H588 H 0.77409 0.33312 0.41125 0.0
H589 H 0.801 0.35948 0.36232 0.0
H590 H 0.73896 0.37143 0.212 0.0
H591 H 0.72621 0.39955 0.19436 0.0
H592 H 0.7116 0.38058 0.24099 0.0
H593 H 0.71188 0.41414 0.30969 0.0
H594 H 0.72656 0.43322 0.26319 0.0
H595 H 0.73938 0.42793 0.32763 0.0
H596 H 0.82128 0.38777 0.30253 0.0
H597 H 0.83399 0.41369 0.22965 0.0
H598 H 0.76079 0.42778 0.18889 0.0
C599 C 0.73279 0.36632 0.34446 0.0
C600 C 0.74211 0.34888 0.37878 0.0
C601 C 0.76677 0.34661 0.3853 0.0
C602 C 0.78213 0.36154 0.35795 0.0
C603 C 0.7725 0.3784 0.32372 0.0
C604 C 0.74842 0.38075 0.31641 0.0
C605 C 0.74282 0.39845 0.27287 0.0
C606 C 0.7291 0.3868 0.22737 0.0
C607 C 0.72936 0.4197 0.29466 0.0
C608 C 0.76748 0.40533 0.2563 0.0
C609 C 0.78429 0.39391 0.28691 0.0
C610 C 0.80829 0.39683 0.27824 0.0
C611 C 0.81532 0.41145 0.23643 0.0
C612 C 0.79843 0.42266 0.20307 0.0
C613 C 0.77419 0.41981 0.21398 0.0
H614 H 0.12531 0.20022 0.84033 0.0
H615 H 0.14694 0.26385 0.92053 0.0
H616 H 0.1192 0.28721 0.86528 0.0
H617 H 0.124 0.22558 0.71477 0.0
H618 H 0.09897 0.2093 0.6904 0.0
H619 H 0.11732 0.19688 0.74188 0.0
H620 H 0.08091 0.19182 0.80183 0.0
H621 H 0.06238 0.2041 0.7503 0.0
H622 H 0.06252 0.21693 0.81513 0.0
H623 H 0.09218 0.304 0.79709 0.0
H624 H 0.06825 0.31364 0.7181 0.0
H625 H 0.06598 0.23949 0.67753 0.0
C626 C 0.12353 0.21895 0.84718 0.0
C627 C 0.13772 0.23033 0.88512 0.0
C628 C 0.13584 0.25494 0.89197 0.0
C629 C 0.12015 0.26828 0.86091 0.0
C630 C 0.10672 0.25671 0.82284 0.0
C631 C 0.10824 0.23262 0.81569 0.0
C632 C 0.09379 0.22502 0.76816 0.0
C633 C 0.10946 0.21353 0.72634 0.0
C634 C 0.07371 0.20849 0.78487 0.0
C635 C 0.08438 0.24865 0.74917 0.0
C636 C 0.09177 0.26661 0.78179 0.0
C637 C 0.08616 0.29008 0.77135 0.0
C638 C 0.07275 0.2954 0.72609 0.0
C639 C 0.06533 0.27736 0.69137 0.0
C640 C 0.07106 0.25365 0.7036 0.0
H641 H 0.29833 0.62205 0.36283 0.0
H642 H 0.26013 0.67802 0.28076 0.0
H643 H 0.25503 0.65234 0.20366 0.0
H644 H 0.32995 0.60238 0.25483 0.0
H645 H 0.32845 0.57149 0.27178 0.0
H646 H 0.32708 0.59325 0.32286 0.0
H647 H 0.28743 0.57589 0.35483 0.0
H648 H 0.28877 0.5539 0.30409 0.0
H649 H 0.26333 0.57276 0.30854 0.0
H650 H 0.25785 0.62243 0.13223 0.0
H651 H 0.26669 0.5896 0.07284 0.0
H652 H 0.3013 0.55221 0.20258 0.0
C653 C 0.28853 0.62882 0.32906 0.0
C654 C 0.27968 0.65212 0.32801 0.0
C655 C 0.26707 0.66025 0.28275 0.0
C656 C 0.26405 0.64579 0.23867 0.0
C657 C 0.2735 0.62315 0.2406 0.0
C658 C 0.28524 0.61459 0.28482 0.0
C659 C 0.29462 0.58998 0.2758 0.0
C660 C 0.32162 0.58925 0.28165 0.0
C661 C 0.28283 0.57207 0.31302 0.0
C662 C 0.28693 0.58635 0.21905 0.0
C663 C 0.27467 0.60564 0.19961 0.0
C664 C 0.267 0.607 0.1473 0.0
C665 C 0.27202 0.58815 0.1139 0.0
C666 C 0.28452 0.56809 0.13292 0.0
C667 C 0.29183 0.56724 0.18649 0.0
H668 H 0.32709 0.7299 0.6732 0.0
H669 H 0.3773 0.69988 0.56418 0.0
H670 H 0.40997 0.71626 0.61688 0.0
H671 H 0.3577 0.78351 0.69545 0.0
H672 H 0.35067 0.78495 0.76459 0.0
H673 H 0.33102 0.77017 0.71955 0.0
H674 H 0.33361 0.73209 0.77668 0.0
H675 H 0.35308 0.74683 0.8222 0.0
H676 H 0.36207 0.71961 0.79231 0.0
H677 H 0.43716 0.73742 0.67863 0.0
H678 H 0.45716 0.76002 0.74864 0.0
H679 H 0.38942 0.77511 0.81911 0.0
C680 C 0.34494 0.72656 0.66058 0.0
C681 C 0.34954 0.71356 0.61442 0.0
C682 C 0.37323 0.70969 0.5994 0.0
C683 C 0.39196 0.71898 0.62899 0.0
C684 C 0.38676 0.732 0.67368 0.0
C685 C 0.36387 0.73561 0.68976 0.0
C686 C 0.36314 0.75037 0.73923 0.0
C687 C 0.34984 0.77363 0.72907 0.0
C688 C 0.35234 0.73638 0.78533 0.0
C689 C 0.3892 0.75463 0.74816 0.0
C690 C 0.4025 0.74393 0.70982 0.0
C691 C 0.42695 0.74568 0.70922 0.0
C692 C 0.43815 0.75847 0.74931 0.0
C693 C 0.42492 0.76926 0.78965 0.0
C694 C 0.40008 0.76733 0.78864 0.0
H695 H 0.7814 0.85448 0.16965 0.0
H696 H 0.72273 0.80691 0.19633 0.0
H697 H 0.70662 0.83463 0.2618 0.0
H698 H 0.78925 0.87112 0.30339 0.0
H699 H 0.7971 0.90109 0.28723 0.0
H700 H 0.80309 0.8779 0.24132 0.0
H701 H 0.77944 0.90047 0.16872 0.0
H702 H 0.7732 0.92366 0.2146 0.0
H703 H 0.74938 0.90889 0.18098 0.0
H704 H 0.69733 0.86796 0.32525 0.0
H705 H 0.69696 0.90237 0.38443 0.0
H706 H 0.76278 0.92647 0.31675 0.0
C707 C 0.76506 0.84986 0.18887 0.0
C708 C 0.75326 0.82855 0.1776 0.0
C709 C 0.7321 0.82313 0.20435 0.0
C710 C 0.72276 0.83881 0.24137 0.0
C711 C 0.73487 0.85973 0.25127 0.0
C712 C 0.75565 0.86513 0.22596 0.0
C713 C 0.7659 0.88816 0.24489 0.0
C714 C 0.79027 0.88433 0.27076 0.0
C715 C 0.76703 0.90637 0.1996 0.0
C716 C 0.7477 0.89493 0.28511 0.0
C717 C 0.72981 0.87848 0.28805 0.0
C718 C 0.71128 0.88092 0.32326 0.0
C719 C 0.71128 0.90048 0.35687 0.0
C720 C 0.7298 0.91725 0.3553 0.0
C721 C 0.74805 0.91438 0.31837 0.0
H722 H 0.65038 0.27585 0.67566 0.0
H723 H 0.61364 0.30697 0.54097 0.0
H724 H 0.57588 0.3029 0.58796 0.0
H725 H 0.60434 0.23419 0.71491 0.0
H726 H 0.60975 0.23861 0.78437 0.0
H727 H 0.63347 0.24178 0.73807 0.0
H728 H 0.6416 0.284 0.77202 0.0
H729 H 0.61802 0.28092 0.81846 0.0
H730 H 0.61798 0.30524 0.77213 0.0
H731 H 0.54246 0.29706 0.65137 0.0
H732 H 0.51636 0.29224 0.72813 0.0
H733 H 0.57575 0.26705 0.82225 0.0
C734 C 0.63435 0.28145 0.65567 0.0
C735 C 0.63488 0.29159 0.6046 0.0
C736 C 0.6136 0.29917 0.58019 0.0
C737 C 0.59207 0.2968 0.60639 0.0
C738 C 0.5922 0.28692 0.65698 0.0
C739 C 0.61281 0.27949 0.68145 0.0
C740 C 0.60847 0.2712 0.73744 0.0
C741 C 0.61435 0.24488 0.74406 0.0
C742 C 0.62233 0.28625 0.77734 0.0
C743 C 0.58226 0.2755 0.74098 0.0
C744 C 0.57312 0.28422 0.69397 0.0
C745 C 0.54942 0.29019 0.68837 0.0
C746 C 0.53477 0.28755 0.7323 0.0
C747 C 0.54396 0.2793 0.78136 0.0
C748 C 0.56799 0.27293 0.78519 0.0
H749 H 0.23955 0.14921 0.15859 0.0
H750 H 0.17926 0.11167 0.09427 0.0
H751 H 0.1897 0.07698 0.14988 0.0
H752 H 0.27922 0.09946 0.16731 0.0
H753 H 0.29239 0.10938 0.22821 0.0
H754 H 0.28069 0.13051 0.18134 0.0
H755 H 0.25401 0.1479 0.25382 0.0
H756 H 0.26566 0.12689 0.3009 0.0
H757 H 0.23433 0.12868 0.28938 0.0
H758 H 0.20614 0.04705 0.2168 0.0
H759 H 0.22685 0.02495 0.28821 0.0
H760 H 0.27558 0.08322 0.30709 0.0
C761 C 0.22851 0.13371 0.15569 0.0
C762 C 0.20853 0.13323 0.12199 0.0
C763 C 0.19467 0.11248 0.11973 0.0
C764 C 0.20048 0.09269 0.15111 0.0
C765 C 0.22024 0.09393 0.18419 0.0
C766 C 0.23403 0.11395 0.18643 0.0
C767 C 0.25387 0.11137 0.22623 0.0
C768 C 0.27797 0.11276 0.19914 0.0
C769 C 0.25183 0.1298 0.27017 0.0
C770 C 0.249 0.08683 0.24678 0.0
C771 C 0.22963 0.07692 0.22203 0.0
C772 C 0.22141 0.05461 0.23614 0.0
C773 C 0.2332 0.04225 0.27687 0.0
C774 C 0.25295 0.05228 0.30296 0.0
C775 C 0.26091 0.07479 0.28718 0.0
H776 H 0.23519 0.28879 0.93497 0.0
H777 H 0.20836 0.28397 0.09473 0.0
H778 H 0.21664 0.32614 0.10741 0.0
H779 H 0.28269 0.32565 0.96452 0.0
H780 H 0.28098 0.34288 0.90442 0.0
H781 H 0.27054 0.31294 0.90523 0.0
H782 H 0.22964 0.32684 0.87088 0.0
H783 H 0.24001 0.35686 0.86955 0.0
H784 H 0.21398 0.34929 0.90618 0.0
H785 H 0.23078 0.36759 0.10586 0.0
H786 H 0.24979 0.406 0.08983 0.0
H787 H 0.26715 0.38436 0.93084 0.0
C788 C 0.23061 0.29673 0.9722 0.0
C789 C 0.22112 0.2831 0.01382 0.0
C790 C 0.21574 0.29404 0.06233 0.0
C791 C 0.22027 0.31801 0.06988 0.0
C792 C 0.23014 0.33082 0.02854 0.0
C793 C 0.23516 0.32065 0.98056 0.0
C794 C 0.24712 0.33805 0.9439 0.0
C795 C 0.27179 0.32936 0.92865 0.0
C796 C 0.23177 0.34306 0.89472 0.0
C797 C 0.24853 0.35937 0.97929 0.0
C798 C 0.23841 0.35488 0.02771 0.0
C799 C 0.23845 0.37148 0.06782 0.0
C800 C 0.24921 0.39328 0.05824 0.0
C801 C 0.25985 0.39827 0.00899 0.0
C802 C 0.25929 0.38106 0.96899 0.0
H803 H 0.19694 0.71293 0.55666 0.0
H804 H 0.20354 0.70151 0.38815 0.0
H805 H 0.1603 0.70189 0.37866 0.0
H806 H 0.14154 0.67859 0.57532 0.0
H807 H 0.13028 0.69945 0.62197 0.0
H808 H 0.16158 0.69474 0.6171 0.0
H809 H 0.16776 0.73944 0.6005 0.0
H810 H 0.13656 0.74427 0.60526 0.0
H811 H 0.15202 0.75382 0.54703 0.0
H812 H 0.11716 0.70821 0.38518 0.0
H813 H 0.07683 0.72083 0.4073 0.0
H814 H 0.09785 0.72829 0.57133 0.0
C815 C 0.18928 0.70989 0.51798 0.0
C816 C 0.20363 0.70707 0.47318 0.0
C817 C 0.19292 0.70371 0.42305 0.0
C818 C 0.16836 0.70375 0.41729 0.0
C819 C 0.15474 0.7071 0.46203 0.0
C820 C 0.16478 0.71004 0.51147 0.0
C821 C 0.14627 0.71562 0.55221 0.0
C822 C 0.14484 0.69592 0.59413 0.0
C823 C 0.15093 0.73972 0.57771 0.0
C824 C 0.12437 0.71617 0.51757 0.0
C825 C 0.12963 0.71084 0.46583 0.0
C826 C 0.11272 0.71202 0.42568 0.0
C827 C 0.08993 0.71928 0.43852 0.0
C828 C 0.08431 0.72533 0.491 0.0
C829 C 0.10162 0.72323 0.53116 0.0
H830 H 0.77681 0.68315 0.07194 0.0
H831 H 0.78938 0.70449 0.90937 0.0
H832 H 0.80059 0.66384 0.88801 0.0
H833 H 0.82461 0.64134 0.0831 0.0
H834 H 0.80818 0.62045 0.12214 0.0
H835 H 0.80145 0.65142 0.12553 0.0
H836 H 0.75795 0.64279 0.10055 0.0
H837 H 0.76453 0.6118 0.09727 0.0
H838 H 0.75138 0.62671 0.04115 0.0
H839 H 0.81102 0.62141 0.88393 0.0
H840 H 0.8183 0.57897 0.89634 0.0
H841 H 0.79729 0.58416 0.06036 0.0
C842 C 0.78197 0.67928 0.0319 0.0
C843 C 0.78219 0.69707 0.99238 0.0
C844 C 0.78891 0.6912 0.94034 0.0
C845 C 0.79542 0.66816 0.92778 0.0
C846 C 0.795 0.65109 0.96755 0.0
C847 C 0.78833 0.65625 0.01846 0.0
C848 C 0.7889 0.63436 0.0533 0.0
C849 C 0.80686 0.63706 0.0987 0.0
C850 C 0.76422 0.62858 0.07429 0.0
C851 C 0.79696 0.61616 0.01392 0.0
C852 C 0.8005 0.62628 0.96483 0.0
C853 C 0.80811 0.6132 0.92206 0.0
C854 C 0.81202 0.58904 0.92946 0.0
C855 C 0.8081 0.57806 0.97916 0.0
C856 C 0.80061 0.59196 0.02197 0.0
H857 H 0.7952 0.28064 0.44095 0.0
H858 H 0.78326 0.25497 0.60056 0.0
H859 H 0.82616 0.25202 0.61533 0.0
H860 H 0.84787 0.24508 0.4143 0.0
H861 H 0.86207 0.26863 0.3785 0.0
H862 H 0.83039 0.26656 0.37851 0.0
H863 H 0.82764 0.30925 0.4134 0.0
H864 H 0.85926 0.31145 0.41349 0.0
H865 H 0.84321 0.31693 0.47319 0.0
H866 H 0.86994 0.25417 0.61502 0.0
H867 H 0.91209 0.2623 0.60031 0.0
H868 H 0.89572 0.28743 0.44174 0.0
C869 C 0.80161 0.27395 0.47864 0.0
C870 C 0.7859 0.26787 0.51949 0.0
C871 C 0.79498 0.25971 0.56869 0.0
C872 C 0.8193 0.25787 0.57739 0.0
C873 C 0.8343 0.2643 0.53657 0.0
C874 C 0.82586 0.2722 0.48818 0.0
C875 C 0.84578 0.27958 0.45231 0.0
C876 C 0.84657 0.26403 0.40299 0.0
C877 C 0.84385 0.30586 0.43724 0.0
C878 C 0.86672 0.2749 0.48843 0.0
C879 C 0.85969 0.26589 0.53665 0.0
C880 C 0.87571 0.26107 0.57732 0.0
C881 C 0.89956 0.26586 0.56871 0.0
C882 C 0.90713 0.27546 0.51992 0.0
C883 C 0.89048 0.27972 0.4791 0.0
H884 H 0.70937 0.19963 0.57465 0.0
H885 H 0.68168 0.20859 0.41542 0.0
H886 H 0.67712 0.16552 0.40801 0.0
H887 H 0.74434 0.15211 0.54756 0.0
H888 H 0.74006 0.13669 0.60929 0.0
H889 H 0.73705 0.16821 0.60623 0.0
H890 H 0.69488 0.16503 0.64391 0.0
H891 H 0.69782 0.13342 0.64744 0.0
H892 H 0.67346 0.14651 0.61161 0.0
H893 H 0.68047 0.12176 0.41321 0.0
H894 H 0.6925 0.08058 0.42973 0.0
H895 H 0.71805 0.09973 0.58564 0.0
C896 C 0.70162 0.19256 0.53892 0.0
C897 C 0.69568 0.20744 0.49579 0.0
C898 C 0.68628 0.1975 0.44901 0.0
C899 C 0.68351 0.17306 0.44453 0.0
C900 C 0.6902 0.1588 0.48717 0.0
C901 C 0.69898 0.16817 0.53358 0.0
C902 C 0.70736 0.14892 0.57114 0.0
C903 C 0.73376 0.15165 0.58428 0.0
C904 C 0.69249 0.14844 0.62151 0.0
C905 C 0.70276 0.12737 0.53778 0.0
C906 C 0.69244 0.13341 0.48991 0.0
C907 C 0.68811 0.11673 0.45098 0.0
C908 C 0.69492 0.09334 0.46083 0.0
C909 C 0.70613 0.08686 0.50907 0.0
C910 C 0.70955 0.1041 0.54835 0.0
H911 H 0.29262 0.21038 0.06798 0.0
H912 H 0.28315 0.18313 0.9097 0.0
H913 H 0.32624 0.18298 0.89795 0.0
H914 H 0.3343 0.2504 0.03623 0.0
H915 H 0.35168 0.24769 0.09595 0.0
H916 H 0.32085 0.24065 0.09683 0.0
H917 H 0.33035 0.19891 0.13365 0.0
H918 H 0.36134 0.20589 0.13333 0.0
H919 H 0.35063 0.1803 0.09898 0.0
H920 H 0.36925 0.19178 0.89793 0.0
H921 H 0.40848 0.20989 0.90866 0.0
H922 H 0.39008 0.23169 0.06671 0.0
C923 C 0.29965 0.20354 0.0316 0.0
C924 C 0.28458 0.19658 0.98992 0.0
C925 C 0.29441 0.18847 0.94223 0.0
C926 C 0.31887 0.18818 0.93531 0.0
C927 C 0.33323 0.196 0.9765 0.0
C928 C 0.32399 0.20341 0.02386 0.0
C929 C 0.34285 0.21394 0.05909 0.0
C930 C 0.33707 0.23969 0.07277 0.0
C931 C 0.34651 0.19885 0.10923 0.0
C932 C 0.36389 0.21239 0.02311 0.0
C933 C 0.35813 0.20147 0.97617 0.0
C934 C 0.37413 0.19987 0.93498 0.0
C935 C 0.39641 0.21015 0.94148 0.0
C936 C 0.40235 0.22213 0.98858 0.0
C937 C 0.38604 0.22263 0.0303 0.0
H938 H 0.28858 0.7972 0.43931 0.0
H939 H 0.26469 0.78126 0.59818 0.0
H940 H 0.26505 0.82358 0.61881 0.0
H941 H 0.3281 0.84386 0.47624 0.0
H942 H 0.32181 0.86161 0.4184 0.0
H943 H 0.31929 0.83001 0.4154 0.0
H944 H 0.27611 0.83407 0.38241 0.0
H945 H 0.27851 0.86568 0.38517 0.0
H946 H 0.25542 0.85075 0.42059 0.0
H947 H 0.26735 0.8674 0.62219 0.0
H948 H 0.27284 0.91021 0.60878 0.0
H949 H 0.29608 0.8978 0.4487 0.0
C950 C 0.28331 0.80261 0.47836 0.0
C951 C 0.27653 0.78589 0.51705 0.0
C952 C 0.27001 0.79371 0.56787 0.0
C953 C 0.2701 0.81772 0.58 0.0
C954 C 0.27692 0.83369 0.54104 0.0
C955 C 0.28352 0.82651 0.49134 0.0
C956 C 0.29049 0.84733 0.45704 0.0
C957 C 0.31647 0.84559 0.44084 0.0
C958 C 0.27415 0.84958 0.40844 0.0
C959 C 0.28665 0.86731 0.49522 0.0
C960 C 0.27872 0.85904 0.54335 0.0
C961 C 0.27358 0.87412 0.58472 0.0
C962 C 0.27664 0.89837 0.57667 0.0
C963 C 0.28487 0.90724 0.52777 0.0
C964 C 0.28999 0.89145 0.48665 0.0
H965 H 0.68743 0.78407 0.94888 0.0
H966 H 0.69238 0.74401 0.09576 0.0
H967 H 0.64946 0.74663 0.10571 0.0
H968 H 0.64365 0.82373 0.99045 0.0
H969 H 0.628 0.82501 0.92822 0.0
H970 H 0.65908 0.81868 0.92971 0.0
H971 H 0.65177 0.77997 0.87873 0.0
H972 H 0.62067 0.7863 0.87655 0.0
H973 H 0.63104 0.75873 0.90407 0.0
H974 H 0.6069 0.75583 0.10402 0.0
H975 H 0.56625 0.76927 0.08798 0.0
H976 H 0.58788 0.80247 0.94092 0.0
C977 C 0.67945 0.77548 0.98262 0.0
C978 C 0.69336 0.76384 0.02152 0.0
C979 C 0.68219 0.75311 0.06546 0.0
C980 C 0.65778 0.75446 0.07152 0.0
C981 C 0.64469 0.76652 0.03325 0.0
C982 C 0.655 0.77667 0.98939 0.0
C983 C 0.63677 0.78924 0.95512 0.0
C984 C 0.64221 0.81574 0.95064 0.0
C985 C 0.63496 0.77787 0.90037 0.0
C986 C 0.61474 0.7848 0.9871 0.0
C987 C 0.61979 0.77163 0.03194 0.0
C988 C 0.60261 0.76583 0.06862 0.0
C989 C 0.57953 0.77348 0.05898 0.0
C990 C 0.57373 0.78668 0.01284 0.0
C991 C 0.5917 0.79248 0.97663 0.0
loop_
_geom_bond_atom_site_label_1
_geom_bond_atom_site_label_2
_geom_bond_distance
_geom_bond_site_symmetry_2
_ccdc_geom_bond_type
Sc0 O3 2.025 . S
Sc0 O10 2.105 . S
Sc0 O13 2.105 . S
Sc0 O16 2.105 . S
Sc0 O19 2.105 . S
Sc1 O3 2.025 . S
Sc1 O11 2.105 . S
Sc1 O15 2.105 1_554 S
Sc1 O17 2.105 . S
Sc1 O21 2.105 1_554 S
Sc2 O3 2.025 1_556 S
Sc2 O12 2.105 . S
Sc2 O14 2.105 . S
Sc2 O18 2.105 . S
Sc2 O20 2.105 . S
O3 Sc0 2.025 . S
O3 Sc1 2.025 . S
O3 Sc2 2.025 1_554 S
C4 O10 1.268 . S
C4 O20 1.268 1_554 S
C5 O11 1.268 . S
C5 O19 1.268 . S
C6 O12 1.268 . S
C6 O21 1.268 . S
C7 O13 1.268 . S
C7 O17 1.268 . S
C8 O14 1.268 1_554 S
C8 O16 1.268 . S
C9 O15 1.268 . S
C9 O18 1.268 . S
O10 Sc0 2.105 . S
O10 C4 1.268 . S
O11 Sc1 2.105 . S
O11 C5 1.268 . S
O12 Sc2 2.105 . S
O12 C6 1.268 . S
O13 Sc0 2.105 . S
O13 C7 1.268 . S
O14 Sc2 2.105 . S
O14 C8 1.268 1_556 S
O15 Sc1 2.105 1_556 S
O15 C9 1.268 . S
O16 Sc0 2.105 . S
O16 C8 1.268 . S
O17 Sc1 2.105 . S
O17 C7 1.268 . S
O18 Sc2 2.105 . S
O18 C9 1.268 . S
O19 Sc0 2.105 . S
O19 C5 1.268 . S
O20 Sc2 2.105 . S
O20 C4 1.268 1_556 S
O21 Sc1 2.105 1_556 S
O21 C6 1.268 . S
Sc22 O25 2.025 . S
Sc22 O32 2.105 . S
Sc22 O35 2.105 . S
Sc22 O38 2.105 . S
Sc22 O41 2.105 . S
Sc23 O25 2.025 . S
Sc23 O33 2.105 . S
Sc23 O37 2.105 . S
Sc23 O39 2.105 . S
Sc23 O43 2.105 . S
Sc24 O25 2.025 . S
Sc24 O34 2.105 . S
Sc24 O36 2.105 . S
Sc24 O40 2.105 . S
Sc24 O42 2.105 . S
O25 Sc22 2.025 . S
O25 Sc23 2.025 . S
O25 Sc24 2.025 . S
C26 O32 1.268 . S
C26 O42 1.268 . S
C27 O33 1.268 . S
C27 O41 1.268 . S
C28 O34 1.268 . S
C28 O43 1.268 . S
C29 O35 1.268 . S
C29 O39 1.268 . S
C30 O36 1.268 . S
C30 O38 1.268 . S
C31 O37 1.268 . S
C31 O40 1.268 . S
O32 Sc22 2.105 . S
O32 C26 1.268 . S
O33 Sc23 2.105 . S
O33 C27 1.268 . S
O34 Sc24 2.105 . S
O34 C28 1.268 . S
O35 Sc22 2.105 . S
O35 C29 1.268 . S
O36 Sc24 2.105 . S
O36 C30 1.268 . S
O37 Sc23 2.105 . S
O37 C31 1.268 . S
O38 Sc22 2.105 . S
O38 C30 1.268 . S
O39 Sc23 2.105 . S
O39 C29 1.268 . S
O40 Sc24 2.105 . S
O40 C31 1.268 . S
O41 Sc22 2.105 . S
O41 C27 1.268 . S
O42 Sc24 2.105 . S
O42 C26 1.268 . S
O43 Sc23 2.105 . S
O43 C28 1.268 . S
Sc44 O47 2.025 1_556 S
Sc44 O54 2.105 . S
Sc44 O57 2.105 . S
Sc44 O60 2.105 . S
Sc44 O63 2.105 . S
Sc45 O47 2.025 . S
Sc45 O55 2.105 1_554 S
Sc45 O59 2.105 . S
Sc45 O61 2.105 1_554 S
Sc45 O65 2.105 . S
Sc46 O47 2.025 . S
Sc46 O56 2.105 . S
Sc46 O58 2.105 . S
Sc46 O62 2.105 . S
Sc46 O64 2.105 . S
O47 Sc44 2.025 1_554 S
O47 Sc45 2.025 . S
O47 Sc46 2.025 . S
C48 O54 1.268 1_554 S
C48 O64 1.268 . S
C49 O55 1.268 . S
C49 O63 1.268 . S
C50 O56 1.268 . S
C50 O65 1.268 . S
C51 O57 1.268 . S
C51 O61 1.268 . S
C52 O58 1.268 . S
C52 O60 1.268 1_554 S
C53 O59 1.268 . S
C53 O62 1.268 . S
O54 Sc44 2.105 . S
O54 C48 1.268 1_556 S
O55 Sc45 2.105 1_556 S
O55 C49 1.268 . S
O56 Sc46 2.105 . S
O56 C50 1.268 . S
O57 Sc44 2.105 . S
O57 C51 1.268 . S
O58 Sc46 2.105 . S
O58 C52 1.268 . S
O59 Sc45 2.105 . S
O59 C53 1.268 . S
O60 Sc44 2.105 . S
O60 C52 1.268 1_556 S
O61 Sc45 2.105 1_556 S
O61 C51 1.268 . S
O62 Sc46 2.105 . S
O62 C53 1.268 . S
O63 Sc44 2.105 . S
O63 C49 1.268 . S
O64 Sc46 2.105 . S
O64 C48 1.268 . S
O65 Sc45 2.105 . S
O65 C50 1.268 . S
Sc66 O69 2.025 . S
Sc66 O76 2.105 . S
Sc66 O79 2.105 . S
Sc66 O82 2.105 . S
Sc66 O85 2.105 . S
Sc67 O69 2.025 . S
Sc67 O77 2.105 . S
Sc67 O81 2.105 . S
Sc67 O83 2.105 . S
Sc67 O87 2.105 . S
Sc68 O69 2.025 . S
Sc68 O78 2.105 . S
Sc68 O80 2.105 . S
Sc68 O84 2.105 . S
Sc68 O86 2.105 . S
O69 Sc66 2.025 . S
O69 Sc67 2.025 . S
O69 Sc68 2.025 . S
C70 O76 1.268 . S
C70 O86 1.268 . S
C71 O77 1.268 . S
C71 O85 1.268 . S
C72 O78 1.268 . S
C72 O87 1.268 . S
C73 O79 1.268 . S
C73 O83 1.268 . S
C74 O80 1.268 . S
C74 O82 1.268 . S
C75 O81 1.268 . S
C75 O84 1.268 . S
O76 Sc66 2.105 . S
O76 C70 1.268 . S
O77 Sc67 2.105 . S
O77 C71 1.268 . S
O78 Sc68 2.105 . S
O78 C72 1.268 . S
O79 Sc66 2.105 . S
O79 C73 1.268 . S
O80 Sc68 2.105 . S
O80 C74 1.268 . S
O81 Sc67 2.105 . S
O81 C75 1.268 . S
O82 Sc66 2.105 . S
O82 C74 1.268 . S
O83 Sc67 2.105 . S
O83 C73 1.268 . S
O84 Sc68 2.105 . S
O84 C75 1.268 . S
O85 Sc66 2.105 . S
O85 C71 1.268 . S
O86 Sc68 2.105 . S
O86 C70 1.268 . S
O87 Sc67 2.105 . S
O87 C72 1.268 . S
P88 O99 1.490 . S
P88 C102 1.812 . S
P88 C108 1.803 . S
P88 C114 1.819 1_554 S
H89 C103 0.941 . S
H90 C104 0.939 . S
H91 C106 0.940 . S
H92 C107 0.940 . S
H93 C109 0.939 . S
H94 C110 0.942 . S
H95 C112 0.940 . S
H96 C113 0.939 . S
H97 C115 0.941 . S
H98 C119 0.939 . S
O99 P88 1.490 . S
H100 C116 0.939 . S
H101 C118 0.940 . S
C102 P88 1.812 . S
C102 C103 1.389 . S
C102 C107 1.391 . S
C103 H89 0.941 . S
C103 C102 1.389 . S
C103 C104 1.397 . S
C104 H90 0.939 . S
C104 C103 1.397 . S
C104 C105 1.378 . S
C105 C104 1.378 . S
C105 C106 1.378 . S
C106 H91 0.940 . S
C106 C105 1.378 . S
C106 C107 1.396 . S
C107 H92 0.940 . S
C107 C102 1.391 . S
C107 C106 1.396 . S
C108 P88 1.803 . S
C108 C109 1.378 1_554 S
C108 C113 1.400 . S
C109 H93 0.939 . S
C109 C108 1.378 1_556 S
C109 C110 1.361 . S
C110 H94 0.942 . S
C110 C109 1.361 . S
C110 C111 1.369 1_556 S
C111 C110 1.369 1_554 S
C111 C112 1.404 . S
C112 H95 0.940 . S
C112 C111 1.404 . S
C112 C113 1.389 . S
C113 H96 0.939 . S
C113 C108 1.400 . S
C113 C112 1.389 . S
C114 P88 1.819 1_556 S
C114 C115 1.391 . S
C114 C119 1.391 . S
C115 H97 0.941 . S
C115 C114 1.391 . S
C115 C116 1.396 . S
C116 H100 0.939 . S
C116 C115 1.396 . S
C116 C117 1.397 . S
C117 C116 1.397 . S
C117 C118 1.385 . S
C118 H101 0.940 . S
C118 C117 1.385 . S
C118 C119 1.388 . S
C119 H98 0.939 . S
C119 C114 1.391 . S
C119 C118 1.388 . S
P120 O131 1.490 . S
P120 C134 1.812 . S
P120 C140 1.803 1_655 S
P120 C146 1.819 . S
H121 C135 0.941 . S
H122 C136 0.939 . S
H123 C138 0.940 . S
H124 C139 0.940 . S
H125 C141 0.939 . S
H126 C142 0.942 . S
H127 C144 0.940 . S
H128 C145 0.939 . S
H129 C147 0.941 . S
H130 C151 0.939 . S
O131 P120 1.490 . S
H132 C148 0.939 . S
H133 C150 0.940 . S
C134 P120 1.812 . S
C134 C135 1.389 . S
C134 C139 1.391 . S
C135 H121 0.941 . S
C135 C134 1.389 . S
C135 C136 1.397 . S
C136 H122 0.939 . S
C136 C135 1.397 . S
C136 C137 1.378 . S
C137 C136 1.378 . S
C137 C138 1.378 . S
C138 H123 0.940 . S
C138 C137 1.378 . S
C138 C139 1.396 . S
C139 H124 0.940 . S
C139 C134 1.391 . S
C139 C138 1.396 . S
C140 P120 1.803 1_455 S
C140 C141 1.378 . S
C140 C145 1.400 . S
C141 H125 0.939 . S
C141 C140 1.378 . S
C141 C142 1.361 . S
C142 H126 0.942 . S
C142 C141 1.361 . S
C142 C143 1.369 . S
C143 C142 1.369 . S
C143 C144 1.404 . S
C144 H127 0.940 . S
C144 C143 1.404 . S
C144 C145 1.389 . S
C145 H128 0.939 . S
C145 C140 1.400 . S
C145 C144 1.389 . S
C146 P120 1.819 . S
C146 C147 1.391 . S
C146 C151 1.391 . S
C147 H129 0.941 . S
C147 C146 1.391 . S
C147 C148 1.396 . S
C148 H132 0.939 . S
C148 C147 1.396 . S
C148 C149 1.397 . S
C149 C148 1.397 . S
C149 C150 1.385 . S
C150 H133 0.940 . S
C150 C149 1.385 . S
C150 C151 1.388 . S
C151 H130 0.939 . S
C151 C146 1.391 . S
C151 C150 1.388 . S
P152 O163 1.490 . S
P152 C166 1.812 . S
P152 C172 1.803 . S
P152 C178 1.819 1_556 S
H153 C167 0.941 . S
H154 C168 0.939 . S
H155 C170 0.940 . S
H156 C171 0.940 . S
H157 C173 0.939 . S
H158 C174 0.942 . S
H159 C176 0.940 . S
H160 C177 0.939 . S
H161 C179 0.941 . S
H162 C183 0.939 . S
O163 P152 1.490 . S
H164 C180 0.939 . S
H165 C182 0.940 . S
C166 P152 1.812 . S
C166 C167 1.389 . S
C166 C171 1.391 . S
C167 H153 0.941 . S
C167 C166 1.389 . S
C167 C168 1.397 . S
C168 H154 0.939 . S
C168 C167 1.397 . S
C168 C169 1.378 . S
C169 C168 1.378 . S
C169 C170 1.378 . S
C170 H155 0.940 . S
C170 C169 1.378 . S
C170 C171 1.396 . S
C171 H156 0.940 . S
C171 C166 1.391 . S
C171 C170 1.396 . S
C172 P152 1.803 . S
C172 C173 1.378 1_556 S
C172 C177 1.400 . S
C173 H157 0.939 . S
C173 C172 1.378 1_554 S
C173 C174 1.361 . S
C174 H158 0.942 . S
C174 C173 1.361 . S
C174 C175 1.369 . S
C175 C174 1.369 . S
C175 C176 1.404 1_554 S
C176 H159 0.940 . S
C176 C175 1.404 1_556 S
C176 C177 1.389 . S
C177 H160 0.939 . S
C177 C172 1.400 . S
C177 C176 1.389 . S
C178 P152 1.819 1_554 S
C178 C179 1.391 . S
C178 C183 1.391 . S
C179 H161 0.941 . S
C179 C178 1.391 . S
C179 C180 1.396 . S
C180 H164 0.939 . S
C180 C179 1.396 . S
C180 C181 1.397 . S
C181 C180 1.397 . S
C181 C182 1.385 . S
C182 H165 0.940 . S
C182 C181 1.385 . S
C182 C183 1.388 . S
C183 H162 0.939 . S
C183 C178 1.391 . S
C183 C182 1.388 . S
P184 O195 1.490 . S
P184 C198 1.812 . S
P184 C204 1.803 1_455 S
P184 C210 1.819 . S
H185 C199 0.941 . S
H186 C200 0.939 . S
H187 C202 0.940 . S
H188 C203 0.940 . S
H189 C205 0.939 . S
H190 C206 0.942 . S
H191 C208 0.940 . S
H192 C209 0.939 . S
H193 C211 0.941 . S
H194 C215 0.939 . S
O195 P184 1.490 . S
H196 C212 0.939 . S
H197 C214 0.940 . S
C198 P184 1.812 . S
C198 C199 1.389 . S
C198 C203 1.391 . S
C199 H185 0.941 . S
C199 C198 1.389 . S
C199 C200 1.397 . S
C200 H186 0.939 . S
C200 C199 1.397 . S
C200 C201 1.378 . S
C201 C200 1.378 . S
C201 C202 1.378 . S
C202 H187 0.940 . S
C202 C201 1.378 . S
C202 C203 1.396 . S
C203 H188 0.940 . S
C203 C198 1.391 . S
C203 C202 1.396 . S
C204 P184 1.803 1_655 S
C204 C205 1.378 . S
C204 C209 1.400 . S
C205 H189 0.939 . S
C205 C204 1.378 . S
C205 C206 1.361 . S
C206 H190 0.942 . S
C206 C205 1.361 . S
C206 C207 1.369 . S
C207 C206 1.369 . S
C207 C208 1.404 . S
C208 H191 0.940 . S
C208 C207 1.404 . S
C208 C209 1.389 . S
C209 H192 0.939 . S
C209 C204 1.400 . S
C209 C208 1.389 . S
C210 P184 1.819 . S
C210 C211 1.391 . S
C210 C215 1.391 . S
C211 H193 0.941 . S
C211 C210 1.391 . S
C211 C212 1.396 . S
C212 H196 0.939 . S
C212 C211 1.396 . S
C212 C213 1.397 . S
C213 C212 1.397 . S
C213 C214 1.385 . S
C214 H197 0.940 . S
C214 C213 1.385 . S
C214 C215 1.388 . S
C215 H194 0.939 . S
C215 C210 1.391 . S
C215 C214 1.388 . S
P216 O227 1.490 . S
P216 C230 1.812 . S
P216 C236 1.803 1_565 S
P216 C242 1.819 . S
H217 C231 0.941 . S
H218 C232 0.939 . S
H219 C234 0.940 . S
H220 C235 0.940 . S
H221 C237 0.939 . S
H222 C238 0.942 . S
H223 C240 0.940 . S
H224 C241 0.939 . S
H225 C243 0.941 . S
H226 C247 0.939 . S
O227 P216 1.490 . S
H228 C244 0.939 . S
H229 C246 0.940 . S
C230 P216 1.812 . S
C230 C231 1.389 . S
C230 C235 1.391 . S
C231 H217 0.941 . S
C231 C230 1.389 . S
C231 C232 1.397 . S
C232 H218 0.939 . S
C232 C231 1.397 . S
C232 C233 1.378 . S
C233 C232 1.378 . S
C233 C234 1.378 . S
C234 H219 0.940 . S
C234 C233 1.378 . S
C234 C235 1.396 . S
C235 H220 0.940 . S
C235 C230 1.391 . S
C235 C234 1.396 . S
C236 P216 1.803 1_545 S
C236 C237 1.378 . S
C236 C241 1.400 . S
C237 H221 0.939 . S
C237 C236 1.378 . S
C237 C238 1.361 . S
C238 H222 0.942 . S
C238 C237 1.361 . S
C238 C239 1.369 . S
C239 C238 1.369 . S
C239 C240 1.404 . S
C240 H223 0.940 . S
C240 C239 1.404 . S
C240 C241 1.389 . S
C241 H224 0.939 . S
C241 C236 1.400 . S
C241 C240 1.389 . S
C242 P216 1.819 . S
C242 C243 1.391 . S
C242 C247 1.391 . S
C243 H225 0.941 . S
C243 C242 1.391 . S
C243 C244 1.396 . S
C244 H228 0.939 . S
C244 C243 1.396 . S
C244 C245 1.397 . S
C245 C244 1.397 . S
C245 C246 1.385 . S
C246 H229 0.940 . S
C246 C245 1.385 . S
C246 C247 1.388 . S
C247 H226 0.939 . S
C247 C242 1.391 . S
C247 C246 1.388 . S
P248 O259 1.490 . S
P248 C262 1.812 . S
P248 C268 1.803 . S
P248 C274 1.819 1_556 S
H249 C263 0.941 . S
H250 C264 0.939 . S
H251 C266 0.940 . S
H252 C267 0.940 . S
H253 C269 0.939 . S
H254 C270 0.942 . S
H255 C272 0.940 . S
H256 C273 0.939 . S
H257 C275 0.941 . S
H258 C279 0.939 . S
O259 P248 1.490 . S
H260 C276 0.939 . S
H261 C278 0.940 . S
C262 P248 1.812 . S
C262 C263 1.389 . S
C262 C267 1.391 . S
C263 H249 0.941 . S
C263 C262 1.389 . S
C263 C264 1.397 . S
C264 H250 0.939 . S
C264 C263 1.397 . S
C264 C265 1.378 . S
C265 C264 1.378 . S
C265 C266 1.378 . S
C266 H251 0.940 . S
C266 C265 1.378 . S
C266 C267 1.396 . S
C267 H252 0.940 . S
C267 C262 1.391 . S
C267 C266 1.396 . S
C268 P248 1.803 . S
C268 C269 1.378 1_556 S
C268 C273 1.400 . S
C269 H253 0.939 . S
C269 C268 1.378 1_554 S
C269 C270 1.361 . S
C270 H254 0.942 . S
C270 C269 1.361 . S
C270 C271 1.369 . S
C271 C270 1.369 . S
C271 C272 1.404 1_554 S
C272 H255 0.940 . S
C272 C271 1.404 1_556 S
C272 C273 1.389 . S
C273 H256 0.939 . S
C273 C268 1.400 . S
C273 C272 1.389 . S
C274 P248 1.819 1_554 S
C274 C275 1.391 . S
C274 C279 1.391 . S
C275 H257 0.941 . S
C275 C274 1.391 . S
C275 C276 1.396 . S
C276 H260 0.939 . S
C276 C275 1.396 . S
C276 C277 1.397 . S
C277 C276 1.397 . S
C277 C278 1.385 . S
C278 H261 0.940 . S
C278 C277 1.385 . S
C278 C279 1.388 . S
C279 H258 0.939 . S
C279 C274 1.391 . S
C279 C278 1.388 . S
P280 O291 1.490 . S
P280 C294 1.812 . S
P280 C300 1.803 1_545 S
P280 C306 1.819 . S
H281 C295 0.941 . S
H282 C296 0.939 . S
H283 C298 0.940 . S
H284 C299 0.940 . S
H285 C301 0.939 . S
H286 C302 0.942 . S
H287 C304 0.940 . S
H288 C305 0.939 . S
H289 C307 0.941 . S
H290 C311 0.939 . S
O291 P280 1.490 . S
H292 C308 0.939 . S
H293 C310 0.940 . S
C294 P280 1.812 . S
C294 C295 1.389 . S
C294 C299 1.391 . S
C295 H281 0.941 . S
C295 C294 1.389 . S
C295 C296 1.397 . S
C296 H282 0.939 . S
C296 C295 1.397 . S
C296 C297 1.378 . S
C297 C296 1.378 . S
C297 C298 1.378 . S
C298 H283 0.940 . S
C298 C297 1.378 . S
C298 C299 1.396 . S
C299 H284 0.940 . S
C299 C294 1.391 . S
C299 C298 1.396 . S
C300 P280 1.803 1_565 S
C300 C301 1.378 . S
C300 C305 1.400 . S
C301 H285 0.939 . S
C301 C300 1.378 . S
C301 C302 1.361 . S
C302 H286 0.942 . S
C302 C301 1.361 . S
C302 C303 1.369 . S
C303 C302 1.369 . S
C303 C304 1.404 . S
C304 H287 0.940 . S
C304 C303 1.404 . S
C304 C305 1.389 . S
C305 H288 0.939 . S
C305 C300 1.400 . S
C305 C304 1.389 . S
C306 P280 1.819 . S
C306 C307 1.391 . S
C306 C311 1.391 . S
C307 H289 0.941 . S
C307 C306 1.391 . S
C307 C308 1.396 . S
C308 H292 0.939 . S
C308 C307 1.396 . S
C308 C309 1.397 . S
C309 C308 1.397 . S
C309 C310 1.385 . S
C310 H293 0.940 . S
C310 C309 1.385 . S
C310 C311 1.388 . S
C311 H290 0.939 . S
C311 C306 1.391 . S
C311 C310 1.388 . S
P312 O323 1.490 . S
P312 C326 1.812 . S
P312 C332 1.803 . S
P312 C338 1.819 1_554 S
H313 C327 0.941 . S
H314 C328 0.939 . S
H315 C330 0.940 . S
H316 C331 0.940 . S
H317 C333 0.939 . S
H318 C334 0.942 . S
H319 C336 0.940 . S
H320 C337 0.939 . S
H321 C339 0.941 . S
H322 C343 0.939 . S
O323 P312 1.490 . S
H324 C340 0.939 . S
H325 C342 0.940 . S
C326 P312 1.812 . S
C326 C327 1.389 . S
C326 C331 1.391 . S
C327 H313 0.941 . S
C327 C326 1.389 . S
C327 C328 1.397 . S
C328 H314 0.939 . S
C328 C327 1.397 . S
C328 C329 1.378 . S
C329 C328 1.378 . S
C329 C330 1.378 . S
C330 H315 0.940 . S
C330 C329 1.378 . S
C330 C331 1.396 . S
C331 H316 0.940 . S
C331 C326 1.391 . S
C331 C330 1.396 . S
C332 P312 1.803 . S
C332 C333 1.378 1_554 S
C332 C337 1.400 . S
C333 H317 0.939 . S
C333 C332 1.378 1_556 S
C333 C334 1.361 . S
C334 H318 0.942 . S
C334 C333 1.361 . S
C334 C335 1.369 1_556 S
C335 C334 1.369 1_554 S
C335 C336 1.404 . S
C336 H319 0.940 . S
C336 C335 1.404 . S
C336 C337 1.389 . S
C337 H320 0.939 . S
C337 C332 1.400 . S
C337 C336 1.389 . S
C338 P312 1.819 1_556 S
C338 C339 1.391 . S
C338 C343 1.391 . S
C339 H321 0.941 . S
C339 C338 1.391 . S
C339 C340 1.396 . S
C340 H324 0.939 . S
C340 C339 1.396 . S
C340 C341 1.397 . S
C341 C340 1.397 . S
C341 C342 1.385 . S
C342 H325 0.940 . S
C342 C341 1.385 . S
C342 C343 1.388 . S
C343 H322 0.939 . S
C343 C338 1.391 . S
C343 C342 1.388 . S
H344 C356 0.930 . S
H345 C358 0.930 . S
H346 C359 0.930 . S
H347 C363 0.959 . S
H348 C363 0.959 . S
H349 C363 0.961 . S
H350 C364 0.960 . S
H351 C364 0.961 . S
H352 C364 0.959 . S
H353 C367 0.929 . S
H354 C368 0.931 . S
H355 C370 0.930 . S
C356 H344 0.930 . S
C356 C357 1.399 . S
C356 C361 1.399 . S
C357 C356 1.399 . S
C357 C358 1.376 . S
C358 H345 0.930 . S
C358 C357 1.376 . S
C358 C359 1.388 . S
C359 H346 0.930 . S
C359 C358 1.388 . S
C359 C360 1.390 . S
C360 C359 1.390 . S
C360 C361 1.394 . S
C360 C366 1.465 . S
C361 C356 1.399 . S
C361 C360 1.394 . S
C361 C362 1.516 . S
C362 C361 1.516 . S
C362 C363 1.502 . S
C362 C364 1.561 . S
C362 C365 1.526 . S
C363 H347 0.959 . S
C363 H348 0.959 . S
C363 H349 0.961 . S
C363 C362 1.502 . S
C364 H350 0.960 . S
C364 H351 0.961 . S
C364 H352 0.959 . S
C364 C362 1.561 . S
C365 C362 1.526 . S
C365 C366 1.396 . S
C365 C370 1.390 . S
C366 C360 1.465 . S
C366 C365 1.396 . S
C366 C367 1.399 . S
C367 H353 0.929 . S
C367 C366 1.399 . S
C367 C368 1.385 . S
C368 H354 0.931 . S
C368 C367 1.385 . S
C368 C369 1.389 . S
C369 C368 1.389 . S
C369 C370 1.387 . S
C370 H355 0.930 . S
C370 C365 1.390 . S
C370 C369 1.387 . S
H371 C383 0.930 . S
H372 C385 0.930 . S
H373 C386 0.930 . S
H374 C390 0.959 . S
H375 C390 0.959 . S
H376 C390 0.961 . S
H377 C391 0.960 . S
H378 C391 0.961 . S
H379 C391 0.959 . S
H380 C394 0.929 . S
H381 C395 0.931 . S
H382 C397 0.930 . S
C383 H371 0.930 . S
C383 C384 1.399 . S
C383 C388 1.399 . S
C384 C383 1.399 . S
C384 C385 1.376 . S
C385 H372 0.930 . S
C385 C384 1.376 . S
C385 C386 1.388 . S
C386 H373 0.930 . S
C386 C385 1.388 . S
C386 C387 1.390 . S
C387 C386 1.390 . S
C387 C388 1.394 . S
C387 C393 1.465 . S
C388 C383 1.399 . S
C388 C387 1.394 . S
C388 C389 1.516 . S
C389 C388 1.516 . S
C389 C390 1.502 . S
C389 C391 1.561 . S
C389 C392 1.526 . S
C390 H374 0.959 . S
C390 H375 0.959 . S
C390 H376 0.961 . S
C390 C389 1.502 . S
C391 H377 0.960 . S
C391 H378 0.961 . S
C391 H379 0.959 . S
C391 C389 1.561 . S
C392 C389 1.526 . S
C392 C393 1.396 . S
C392 C397 1.390 . S
C393 C387 1.465 . S
C393 C392 1.396 . S
C393 C394 1.399 . S
C394 H380 0.929 . S
C394 C393 1.399 . S
C394 C395 1.385 . S
C395 H381 0.931 . S
C395 C394 1.385 . S
C395 C396 1.389 . S
C396 C395 1.389 . S
C396 C397 1.387 . S
C397 H382 0.930 . S
C397 C392 1.390 . S
C397 C396 1.387 . S
H398 C410 0.930 . S
H399 C412 0.930 . S
H400 C413 0.930 . S
H401 C417 0.959 . S
H402 C417 0.959 . S
H403 C417 0.961 . S
H404 C418 0.960 . S
H405 C418 0.961 . S
H406 C418 0.959 . S
H407 C421 0.929 . S
H408 C422 0.931 . S
H409 C424 0.930 . S
C410 H398 0.930 . S
C410 C411 1.399 . S
C410 C415 1.399 . S
C411 C410 1.399 . S
C411 C412 1.376 . S
C412 H399 0.930 . S
C412 C411 1.376 . S
C412 C413 1.388 . S
C413 H400 0.930 . S
C413 C412 1.388 . S
C413 C414 1.390 . S
C414 C413 1.390 . S
C414 C415 1.394 . S
C414 C420 1.465 . S
C415 C410 1.399 . S
C415 C414 1.394 . S
C415 C416 1.516 . S
C416 C415 1.516 . S
C416 C417 1.502 . S
C416 C418 1.561 . S
C416 C419 1.526 . S
C417 H401 0.959 . S
C417 H402 0.959 . S
C417 H403 0.961 . S
C417 C416 1.502 . S
C418 H404 0.960 . S
C418 H405 0.961 . S
C418 H406 0.959 . S
C418 C416 1.561 . S
C419 C416 1.526 . S
C419 C420 1.396 . S
C419 C424 1.390 . S
C420 C414 1.465 . S
C420 C419 1.396 . S
C420 C421 1.399 . S
C421 H407 0.929 . S
C421 C420 1.399 . S
C421 C422 1.385 . S
C422 H408 0.931 . S
C422 C421 1.385 . S
C422 C423 1.389 . S
C423 C422 1.389 . S
C423 C424 1.387 . S
C424 H409 0.930 . S
C424 C419 1.390 . S
C424 C423 1.387 . S
H425 C437 0.930 . S
H426 C439 0.930 . S
H427 C440 0.930 . S
H428 C444 0.959 . S
H429 C444 0.959 . S
H430 C444 0.961 . S
H431 C445 0.960 . S
H432 C445 0.961 . S
H433 C445 0.959 . S
H434 C448 0.929 . S
H435 C449 0.931 . S
H436 C451 0.930 . S
C437 H425 0.930 . S
C437 C438 1.399 . S
C437 C442 1.399 . S
C438 C437 1.399 . S
C438 C439 1.376 . S
C439 H426 0.930 . S
C439 C438 1.376 . S
C439 C440 1.388 . S
C440 H427 0.930 . S
C440 C439 1.388 . S
C440 C441 1.390 . S
C441 C440 1.390 . S
C441 C442 1.394 . S
C441 C447 1.465 . S
C442 C437 1.399 . S
C442 C441 1.394 . S
C442 C443 1.516 . S
C443 C442 1.516 . S
C443 C444 1.502 . S
C443 C445 1.561 . S
C443 C446 1.526 . S
C444 H428 0.959 . S
C444 H429 0.959 . S
C444 H430 0.961 . S
C444 C443 1.502 . S
C445 H431 0.960 . S
C445 H432 0.961 . S
C445 H433 0.959 . S
C445 C443 1.561 . S
C446 C443 1.526 . S
C446 C447 1.396 . S
C446 C451 1.390 . S
C447 C441 1.465 . S
C447 C446 1.396 . S
C447 C448 1.399 . S
C448 H434 0.929 . S
C448 C447 1.399 . S
C448 C449 1.385 . S
C449 H435 0.931 . S
C449 C448 1.385 . S
C449 C450 1.389 . S
C450 C449 1.389 . S
C450 C451 1.387 . S
C451 H436 0.930 . S
C451 C446 1.390 . S
C451 C450 1.387 . S
H452 C464 0.930 . S
H453 C466 0.930 . S
H454 C467 0.930 . S
H455 C471 0.959 . S
H456 C471 0.959 . S
H457 C471 0.961 . S
H458 C472 0.960 . S
H459 C472 0.961 . S
H460 C472 0.959 . S
H461 C475 0.929 . S
H462 C476 0.931 . S
H463 C478 0.930 . S
C464 H452 0.930 . S
C464 C465 1.399 . S
C464 C469 1.399 . S
C465 C464 1.399 . S
C465 C466 1.376 . S
C466 H453 0.930 . S
C466 C465 1.376 . S
C466 C467 1.388 . S
C467 H454 0.930 . S
C467 C466 1.388 . S
C467 C468 1.390 . S
C468 C467 1.390 . S
C468 C469 1.394 . S
C468 C474 1.465 . S
C469 C464 1.399 . S
C469 C468 1.394 . S
C469 C470 1.516 . S
C470 C469 1.516 . S
C470 C471 1.502 . S
C470 C472 1.561 . S
C470 C473 1.526 . S
C471 H455 0.959 . S
C471 H456 0.959 . S
C471 H457 0.961 . S
C471 C470 1.502 . S
C472 H458 0.960 . S
C472 H459 0.961 . S
C472 H460 0.959 . S
C472 C470 1.561 . S
C473 C470 1.526 . S
C473 C474 1.396 . S
C473 C478 1.390 . S
C474 C468 1.465 . S
C474 C473 1.396 . S
C474 C475 1.399 . S
C475 H461 0.929 . S
C475 C474 1.399 . S
C475 C476 1.385 . S
C476 H462 0.931 . S
C476 C475 1.385 . S
C476 C477 1.389 . S
C477 C476 1.389 . S
C477 C478 1.387 . S
C478 H463 0.930 . S
C478 C473 1.390 . S
C478 C477 1.387 . S
H479 C491 0.930 . S
H480 C493 0.930 . S
H481 C494 0.930 . S
H482 C498 0.959 . S
H483 C498 0.959 . S
H484 C498 0.961 . S
H485 C499 0.960 . S
H486 C499 0.961 . S
H487 C499 0.959 . S
H488 C502 0.929 . S
H489 C503 0.931 . S
H490 C505 0.930 . S
C491 H479 0.930 . S
C491 C492 1.399 . S
C491 C496 1.399 . S
C492 C491 1.399 . S
C492 C493 1.376 . S
C493 H480 0.930 . S
C493 C492 1.376 . S
C493 C494 1.388 . S
C494 H481 0.930 . S
C494 C493 1.388 . S
C494 C495 1.390 . S
C495 C494 1.390 . S
C495 C496 1.394 . S
C495 C501 1.465 . S
C496 C491 1.399 . S
C496 C495 1.394 . S
C496 C497 1.516 . S
C497 C496 1.516 . S
C497 C498 1.502 . S
C497 C499 1.561 . S
C497 C500 1.526 . S
C498 H482 0.959 . S
C498 H483 0.959 . S
C498 H484 0.961 . S
C498 C497 1.502 . S
C499 H485 0.960 . S
C499 H486 0.961 . S
C499 H487 0.959 . S
C499 C497 1.561 . S
C500 C497 1.526 . S
C500 C501 1.396 . S
C500 C505 1.390 . S
C501 C495 1.465 . S
C501 C500 1.396 . S
C501 C502 1.399 . S
C502 H488 0.929 . S
C502 C501 1.399 . S
C502 C503 1.385 . S
C503 H489 0.931 . S
C503 C502 1.385 . S
C503 C504 1.389 . S
C504 C503 1.389 . S
C504 C505 1.387 . S
C505 H490 0.930 . S
C505 C500 1.390 . S
C505 C504 1.387 . S
H506 C518 0.930 . S
H507 C520 0.930 . S
H508 C521 0.930 . S
H509 C525 0.959 . S
H510 C525 0.959 . S
H511 C525 0.961 . S
H512 C526 0.960 . S
H513 C526 0.961 . S
H514 C526 0.959 . S
H515 C529 0.929 . S
H516 C530 0.931 . S
H517 C532 0.930 . S
C518 H506 0.930 . S
C518 C519 1.399 . S
C518 C523 1.399 . S
C519 C518 1.399 . S
C519 C520 1.376 . S
C520 H507 0.930 . S
C520 C519 1.376 . S
C520 C521 1.388 . S
C521 H508 0.930 . S
C521 C520 1.388 . S
C521 C522 1.390 . S
C522 C521 1.390 . S
C522 C523 1.394 . S
C522 C528 1.465 . S
C523 C518 1.399 . S
C523 C522 1.394 . S
C523 C524 1.516 . S
C524 C523 1.516 . S
C524 C525 1.502 . S
C524 C526 1.561 . S
C524 C527 1.526 . S
C525 H509 0.959 . S
C525 H510 0.959 . S
C525 H511 0.961 . S
C525 C524 1.502 . S
C526 H512 0.960 . S
C526 H513 0.961 . S
C526 H514 0.959 . S
C526 C524 1.561 . S
C527 C524 1.526 . S
C527 C528 1.396 . S
C527 C532 1.390 . S
C528 C522 1.465 . S
C528 C527 1.396 . S
C528 C529 1.399 . S
C529 H515 0.929 . S
C529 C528 1.399 . S
C529 C530 1.385 . S
C530 H516 0.931 . S
C530 C529 1.385 . S
C530 C531 1.389 . S
C531 C530 1.389 . S
C531 C532 1.387 . S
C532 H517 0.930 . S
C532 C527 1.390 . S
C532 C531 1.387 . S
H533 C545 0.930 . S
H534 C547 0.930 . S
H535 C548 0.930 . S
H536 C552 0.959 . S
H537 C552 0.959 . S
H538 C552 0.961 . S
H539 C553 0.960 . S
H540 C553 0.961 . S
H541 C553 0.959 . S
H542 C556 0.929 . S
H543 C557 0.931 . S
H544 C559 0.930 . S
C545 H533 0.930 . S
C545 C546 1.399 . S
C545 C550 1.399 . S
C546 C545 1.399 . S
C546 C547 1.376 . S
C547 H534 0.930 . S
C547 C546 1.376 . S
C547 C548 1.388 . S
C548 H535 0.930 . S
C548 C547 1.388 . S
C548 C549 1.390 . S
C549 C548 1.390 . S
C549 C550 1.394 . S
C549 C555 1.465 . S
C550 C545 1.399 . S
C550 C549 1.394 . S
C550 C551 1.516 . S
C551 C550 1.516 . S
C551 C552 1.502 . S
C551 C553 1.561 . S
C551 C554 1.526 . S
C552 H536 0.959 . S
C552 H537 0.959 . S
C552 H538 0.961 . S
C552 C551 1.502 . S
C553 H539 0.960 . S
C553 H540 0.961 . S
C553 H541 0.959 . S
C553 C551 1.561 . S
C554 C551 1.526 . S
C554 C555 1.396 . S
C554 C559 1.390 . S
C555 C549 1.465 . S
C555 C554 1.396 . S
C555 C556 1.399 . S
C556 H542 0.929 . S
C556 C555 1.399 . S
C556 C557 1.385 . S
C557 H543 0.931 . S
C557 C556 1.385 . S
C557 C558 1.389 . S
C558 C557 1.389 . S
C558 C559 1.387 . S
C559 H544 0.930 . S
C559 C554 1.390 . S
C559 C558 1.387 . S
H560 C572 0.930 . S
H561 C574 0.930 . S
H562 C575 0.930 . S
H563 C579 0.959 . S
H564 C579 0.959 . S
H565 C579 0.961 . S
H566 C580 0.960 . S
H567 C580 0.961 . S
H568 C580 0.959 . S
H569 C583 0.929 . S
H570 C584 0.931 . S
H571 C586 0.930 . S
C572 H560 0.930 . S
C572 C573 1.399 . S
C572 C577 1.399 . S
C573 C572 1.399 . S
C573 C574 1.376 . S
C574 H561 0.930 . S
C574 C573 1.376 . S
C574 C575 1.388 . S
C575 H562 0.930 . S
C575 C574 1.388 . S
C575 C576 1.390 . S
C576 C575 1.390 . S
C576 C577 1.394 . S
C576 C582 1.465 . S
C577 C572 1.399 . S
C577 C576 1.394 . S
C577 C578 1.516 . S
C578 C577 1.516 . S
C578 C579 1.502 . S
C578 C580 1.561 . S
C578 C581 1.526 . S
C579 H563 0.959 . S
C579 H564 0.959 . S
C579 H565 0.961 . S
C579 C578 1.502 . S
C580 H566 0.960 . S
C580 H567 0.961 . S
C580 H568 0.959 . S
C580 C578 1.561 . S
C581 C578 1.526 . S
C581 C582 1.396 . S
C581 C586 1.390 . S
C582 C576 1.465 . S
C582 C581 1.396 . S
C582 C583 1.399 . S
C583 H569 0.929 . S
C583 C582 1.399 . S
C583 C584 1.385 . S
C584 H570 0.931 . S
C584 C583 1.385 . S
C584 C585 1.389 . S
C585 C584 1.389 . S
C585 C586 1.387 . S
C586 H571 0.930 . S
C586 C581 1.390 . S
C586 C585 1.387 . S
H587 C599 0.930 . S
H588 C601 0.930 . S
H589 C602 0.930 . S
H590 C606 0.959 . S
H591 C606 0.959 . S
H592 C606 0.961 . S
H593 C607 0.960 . S
H594 C607 0.961 . S
H595 C607 0.959 . S
H596 C610 0.929 . S
H597 C611 0.931 . S
H598 C613 0.930 . S
C599 H587 0.930 . S
C599 C600 1.399 . S
C599 C604 1.399 . S
C600 C599 1.399 . S
C600 C601 1.376 . S
C601 H588 0.930 . S
C601 C600 1.376 . S
C601 C602 1.388 . S
C602 H589 0.930 . S
C602 C601 1.388 . S
C602 C603 1.390 . S
C603 C602 1.390 . S
C603 C604 1.394 . S
C603 C609 1.465 . S
C604 C599 1.399 . S
C604 C603 1.394 . S
C604 C605 1.516 . S
C605 C604 1.516 . S
C605 C606 1.502 . S
C605 C607 1.561 . S
C605 C608 1.526 . S
C606 H590 0.959 . S
C606 H591 0.959 . S
C606 H592 0.961 . S
C606 C605 1.502 . S
C607 H593 0.960 . S
C607 H594 0.961 . S
C607 H595 0.959 . S
C607 C605 1.561 . S
C608 C605 1.526 . S
C608 C609 1.396 . S
C608 C613 1.390 . S
C609 C603 1.465 . S
C609 C608 1.396 . S
C609 C610 1.399 . S
C610 H596 0.929 . S
C610 C609 1.399 . S
C610 C611 1.385 . S
C611 H597 0.931 . S
C611 C610 1.385 . S
C611 C612 1.389 . S
C612 C611 1.389 . S
C612 C613 1.387 . S
C613 H598 0.930 . S
C613 C608 1.390 . S
C613 C612 1.387 . S
H614 C626 0.930 . S
H615 C628 0.930 . S
H616 C629 0.930 . S
H617 C633 0.959 . S
H618 C633 0.959 . S
H619 C633 0.961 . S
H620 C634 0.960 . S
H621 C634 0.961 . S
H622 C634 0.959 . S
H623 C637 0.929 . S
H624 C638 0.931 . S
H625 C640 0.930 . S
C626 H614 0.930 . S
C626 C627 1.399 . S
C626 C631 1.399 . S
C627 C626 1.399 . S
C627 C628 1.376 . S
C628 H615 0.930 . S
C628 C627 1.376 . S
C628 C629 1.388 . S
C629 H616 0.930 . S
C629 C628 1.388 . S
C629 C630 1.390 . S
C630 C629 1.390 . S
C630 C631 1.394 . S
C630 C636 1.465 . S
C631 C626 1.399 . S
C631 C630 1.394 . S
C631 C632 1.516 . S
C632 C631 1.516 . S
C632 C633 1.502 . S
C632 C634 1.561 . S
C632 C635 1.526 . S
C633 H617 0.959 . S
C633 H618 0.959 . S
C633 H619 0.961 . S
C633 C632 1.502 . S
C634 H620 0.960 . S
C634 H621 0.961 . S
C634 H622 0.959 . S
C634 C632 1.561 . S
C635 C632 1.526 . S
C635 C636 1.396 . S
C635 C640 1.390 . S
C636 C630 1.465 . S
C636 C635 1.396 . S
C636 C637 1.399 . S
C637 H623 0.929 . S
C637 C636 1.399 . S
C637 C638 1.385 . S
C638 H624 0.931 . S
C638 C637 1.385 . S
C638 C639 1.389 . S
C639 C638 1.389 . S
C639 C640 1.387 . S
C640 H625 0.930 . S
C640 C635 1.390 . S
C640 C639 1.387 . S
H641 C653 0.930 . S
H642 C655 0.930 . S
H643 C656 0.930 . S
H644 C660 0.959 . S
H645 C660 0.959 . S
H646 C660 0.961 . S
H647 C661 0.960 . S
H648 C661 0.961 . S
H649 C661 0.959 . S
H650 C664 0.929 . S
H651 C665 0.931 . S
H652 C667 0.930 . S
C653 H641 0.930 . S
C653 C654 1.399 . S
C653 C658 1.399 . S
C654 C653 1.399 . S
C654 C655 1.376 . S
C655 H642 0.930 . S
C655 C654 1.376 . S
C655 C656 1.388 . S
C656 H643 0.930 . S
C656 C655 1.388 . S
C656 C657 1.390 . S
C657 C656 1.390 . S
C657 C658 1.394 . S
C657 C663 1.465 . S
C658 C653 1.399 . S
C658 C657 1.394 . S
C658 C659 1.516 . S
C659 C658 1.516 . S
C659 C660 1.502 . S
C659 C661 1.561 . S
C659 C662 1.526 . S
C660 H644 0.959 . S
C660 H645 0.959 . S
C660 H646 0.961 . S
C660 C659 1.502 . S
C661 H647 0.960 . S
C661 H648 0.961 . S
C661 H649 0.959 . S
C661 C659 1.561 . S
C662 C659 1.526 . S
C662 C663 1.396 . S
C662 C667 1.390 . S
C663 C657 1.465 . S
C663 C662 1.396 . S
C663 C664 1.399 . S
C664 H650 0.929 . S
C664 C663 1.399 . S
C664 C665 1.385 . S
C665 H651 0.931 . S
C665 C664 1.385 . S
C665 C666 1.389 . S
C666 C665 1.389 . S
C666 C667 1.387 . S
C667 H652 0.930 . S
C667 C662 1.390 . S
C667 C666 1.387 . S
H668 C680 0.930 . S
H669 C682 0.930 . S
H670 C683 0.930 . S
H671 C687 0.959 . S
H672 C687 0.959 . S
H673 C687 0.961 . S
H674 C688 0.960 . S
H675 C688 0.961 . S
H676 C688 0.959 . S
H677 C691 0.929 . S
H678 C692 0.931 . S
H679 C694 0.930 . S
C680 H668 0.930 . S
C680 C681 1.399 . S
C680 C685 1.399 . S
C681 C680 1.399 . S
C681 C682 1.376 . S
C682 H669 0.930 . S
C682 C681 1.376 . S
C682 C683 1.388 . S
C683 H670 0.930 . S
C683 C682 1.388 . S
C683 C684 1.390 . S
C684 C683 1.390 . S
C684 C685 1.394 . S
C684 C690 1.465 . S
C685 C680 1.399 . S
C685 C684 1.394 . S
C685 C686 1.516 . S
C686 C685 1.516 . S
C686 C687 1.502 . S
C686 C688 1.561 . S
C686 C689 1.526 . S
C687 H671 0.959 . S
C687 H672 0.959 . S
C687 H673 0.961 . S
C687 C686 1.502 . S
C688 H674 0.960 . S
C688 H675 0.961 . S
C688 H676 0.959 . S
C688 C686 1.561 . S
C689 C686 1.526 . S
C689 C690 1.396 . S
C689 C694 1.390 . S
C690 C684 1.465 . S
C690 C689 1.396 . S
C690 C691 1.399 . S
C691 H677 0.929 . S
C691 C690 1.399 . S
C691 C692 1.385 . S
C692 H678 0.931 . S
C692 C691 1.385 . S
C692 C693 1.389 . S
C693 C692 1.389 . S
C693 C694 1.387 . S
C694 H679 0.930 . S
C694 C689 1.390 . S
C694 C693 1.387 . S
H695 C707 0.930 . S
H696 C709 0.930 . S
H697 C710 0.930 . S
H698 C714 0.959 . S
H699 C714 0.959 . S
H700 C714 0.961 . S
H701 C715 0.960 . S
H702 C715 0.961 . S
H703 C715 0.959 . S
H704 C718 0.929 . S
H705 C719 0.931 . S
H706 C721 0.930 . S
C707 H695 0.930 . S
C707 C708 1.399 . S
C707 C712 1.399 . S
C708 C707 1.399 . S
C708 C709 1.376 . S
C709 H696 0.930 . S
C709 C708 1.376 . S
C709 C710 1.388 . S
C710 H697 0.930 . S
C710 C709 1.388 . S
C710 C711 1.390 . S
C711 C710 1.390 . S
C711 C712 1.394 . S
C711 C717 1.465 . S
C712 C707 1.399 . S
C712 C711 1.394 . S
C712 C713 1.516 . S
C713 C712 1.516 . S
C713 C714 1.502 . S
C713 C715 1.561 . S
C713 C716 1.526 . S
C714 H698 0.959 . S
C714 H699 0.959 . S
C714 H700 0.961 . S
C714 C713 1.502 . S
C715 H701 0.960 . S
C715 H702 0.961 . S
C715 H703 0.959 . S
C715 C713 1.561 . S
C716 C713 1.526 . S
C716 C717 1.396 . S
C716 C721 1.390 . S
C717 C711 1.465 . S
C717 C716 1.396 . S
C717 C718 1.399 . S
C718 H704 0.929 . S
C718 C717 1.399 . S
C718 C719 1.385 . S
C719 H705 0.931 . S
C719 C718 1.385 . S
C719 C720 1.389 . S
C720 C719 1.389 . S
C720 C721 1.387 . S
C721 H706 0.930 . S
C721 C716 1.390 . S
C721 C720 1.387 . S
H722 C734 0.930 . S
H723 C736 0.930 . S
H724 C737 0.930 . S
H725 C741 0.959 . S
H726 C741 0.959 . S
H727 C741 0.961 . S
H728 C742 0.960 . S
H729 C742 0.961 . S
H730 C742 0.959 . S
H731 C745 0.929 . S
H732 C746 0.931 . S
H733 C748 0.930 . S
C734 H722 0.930 . S
C734 C735 1.399 . S
C734 C739 1.399 . S
C735 C734 1.399 . S
C735 C736 1.376 . S
C736 H723 0.930 . S
C736 C735 1.376 . S
C736 C737 1.388 . S
C737 H724 0.930 . S
C737 C736 1.388 . S
C737 C738 1.390 . S
C738 C737 1.390 . S
C738 C739 1.394 . S
C738 C744 1.465 . S
C739 C734 1.399 . S
C739 C738 1.394 . S
C739 C740 1.516 . S
C740 C739 1.516 . S
C740 C741 1.502 . S
C740 C742 1.561 . S
C740 C743 1.526 . S
C741 H725 0.959 . S
C741 H726 0.959 . S
C741 H727 0.961 . S
C741 C740 1.502 . S
C742 H728 0.960 . S
C742 H729 0.961 . S
C742 H730 0.959 . S
C742 C740 1.561 . S
C743 C740 1.526 . S
C743 C744 1.396 . S
C743 C748 1.390 . S
C744 C738 1.465 . S
C744 C743 1.396 . S
C744 C745 1.399 . S
C745 H731 0.929 . S
C745 C744 1.399 . S
C745 C746 1.385 . S
C746 H732 0.931 . S
C746 C745 1.385 . S
C746 C747 1.389 . S
C747 C746 1.389 . S
C747 C748 1.387 . S
C748 H733 0.930 . S
C748 C743 1.390 . S
C748 C747 1.387 . S
H749 C761 0.930 . S
H750 C763 0.930 . S
H751 C764 0.930 . S
H752 C768 0.959 . S
H753 C768 0.959 . S
H754 C768 0.961 . S
H755 C769 0.960 . S
H756 C769 0.961 . S
H757 C769 0.959 . S
H758 C772 0.929 . S
H759 C773 0.931 . S
H760 C775 0.930 . S
C761 H749 0.930 . S
C761 C762 1.399 . S
C761 C766 1.399 . S
C762 C761 1.399 . S
C762 C763 1.376 . S
C763 H750 0.930 . S
C763 C762 1.376 . S
C763 C764 1.388 . S
C764 H751 0.930 . S
C764 C763 1.388 . S
C764 C765 1.390 . S
C765 C764 1.390 . S
C765 C766 1.394 . S
C765 C771 1.465 . S
C766 C761 1.399 . S
C766 C765 1.394 . S
C766 C767 1.516 . S
C767 C766 1.516 . S
C767 C768 1.502 . S
C767 C769 1.561 . S
C767 C770 1.526 . S
C768 H752 0.959 . S
C768 H753 0.959 . S
C768 H754 0.961 . S
C768 C767 1.502 . S
C769 H755 0.960 . S
C769 H756 0.961 . S
C769 H757 0.959 . S
C769 C767 1.561 . S
C770 C767 1.526 . S
C770 C771 1.396 . S
C770 C775 1.390 . S
C771 C765 1.465 . S
C771 C770 1.396 . S
C771 C772 1.399 . S
C772 H758 0.929 . S
C772 C771 1.399 . S
C772 C773 1.385 . S
C773 H759 0.931 . S
C773 C772 1.385 . S
C773 C774 1.389 . S
C774 C773 1.389 . S
C774 C775 1.387 . S
C775 H760 0.930 . S
C775 C770 1.390 . S
C775 C774 1.387 . S
H776 C788 0.930 . S
H777 C790 0.930 . S
H778 C791 0.930 . S
H779 C795 0.959 . S
H780 C795 0.959 . S
H781 C795 0.961 . S
H782 C796 0.960 . S
H783 C796 0.961 . S
H784 C796 0.959 . S
H785 C799 0.929 . S
H786 C800 0.931 . S
H787 C802 0.930 . S
C788 H776 0.930 . S
C788 C789 1.399 1_556 S
C788 C793 1.399 . S
C789 C788 1.399 1_554 S
C789 C790 1.376 . S
C790 H777 0.930 . S
C790 C789 1.376 . S
C790 C791 1.388 . S
C791 H778 0.930 . S
C791 C790 1.388 . S
C791 C792 1.390 . S
C792 C791 1.390 . S
C792 C793 1.394 1_554 S
C792 C798 1.465 . S
C793 C788 1.399 . S
C793 C792 1.394 1_556 S
C793 C794 1.516 . S
C794 C793 1.516 . S
C794 C795 1.502 . S
C794 C796 1.561 . S
C794 C797 1.526 . S
C795 H779 0.959 . S
C795 H780 0.959 . S
C795 H781 0.961 . S
C795 C794 1.502 . S
C796 H782 0.960 . S
C796 H783 0.961 . S
C796 H784 0.959 . S
C796 C794 1.561 . S
C797 C794 1.526 . S
C797 C798 1.396 1_556 S
C797 C802 1.390 . S
C798 C792 1.465 . S
C798 C797 1.396 1_554 S
C798 C799 1.399 . S
C799 H785 0.929 . S
C799 C798 1.399 . S
C799 C800 1.385 . S
C800 H786 0.931 . S
C800 C799 1.385 . S
C800 C801 1.389 . S
C801 C800 1.389 . S
C801 C802 1.387 1_554 S
C802 H787 0.930 . S
C802 C797 1.390 . S
C802 C801 1.387 1_556 S
H803 C815 0.930 . S
H804 C817 0.930 . S
H805 C818 0.930 . S
H806 C822 0.959 . S
H807 C822 0.959 . S
H808 C822 0.961 . S
H809 C823 0.960 . S
H810 C823 0.961 . S
H811 C823 0.959 . S
H812 C826 0.929 . S
H813 C827 0.931 . S
H814 C829 0.930 . S
C815 H803 0.930 . S
C815 C816 1.399 . S
C815 C820 1.399 . S
C816 C815 1.399 . S
C816 C817 1.376 . S
C817 H804 0.930 . S
C817 C816 1.376 . S
C817 C818 1.388 . S
C818 H805 0.930 . S
C818 C817 1.388 . S
C818 C819 1.390 . S
C819 C818 1.390 . S
C819 C820 1.394 . S
C819 C825 1.465 . S
C820 C815 1.399 . S
C820 C819 1.394 . S
C820 C821 1.516 . S
C821 C820 1.516 . S
C821 C822 1.502 . S
C821 C823 1.561 . S
C821 C824 1.526 . S
C822 H806 0.959 . S
C822 H807 0.959 . S
C822 H808 0.961 . S
C822 C821 1.502 . S
C823 H809 0.960 . S
C823 H810 0.961 . S
C823 H811 0.959 . S
C823 C821 1.561 . S
C824 C821 1.526 . S
C824 C825 1.396 . S
C824 C829 1.390 . S
C825 C819 1.465 . S
C825 C824 1.396 . S
C825 C826 1.399 . S
C826 H812 0.929 . S
C826 C825 1.399 . S
C826 C827 1.385 . S
C827 H813 0.931 . S
C827 C826 1.385 . S
C827 C828 1.389 . S
C828 C827 1.389 . S
C828 C829 1.387 . S
C829 H814 0.930 . S
C829 C824 1.390 . S
C829 C828 1.387 . S
H830 C842 0.930 . S
H831 C844 0.930 . S
H832 C845 0.930 . S
H833 C849 0.959 . S
H834 C849 0.959 . S
H835 C849 0.961 . S
H836 C850 0.960 . S
H837 C850 0.961 . S
H838 C850 0.959 . S
H839 C853 0.929 . S
H840 C854 0.931 . S
H841 C856 0.930 . S
C842 H830 0.930 . S
C842 C843 1.399 1_554 S
C842 C847 1.399 . S
C843 C842 1.399 1_556 S
C843 C844 1.376 . S
C844 H831 0.930 . S
C844 C843 1.376 . S
C844 C845 1.388 . S
C845 H832 0.930 . S
C845 C844 1.388 . S
C845 C846 1.390 . S
C846 C845 1.390 . S
C846 C847 1.394 1_556 S
C846 C852 1.465 . S
C847 C842 1.399 . S
C847 C846 1.394 1_554 S
C847 C848 1.516 . S
C848 C847 1.516 . S
C848 C849 1.502 . S
C848 C850 1.561 . S
C848 C851 1.526 . S
C849 H833 0.959 . S
C849 H834 0.959 . S
C849 H835 0.961 . S
C849 C848 1.502 . S
C850 H836 0.960 . S
C850 H837 0.961 . S
C850 H838 0.959 . S
C850 C848 1.561 . S
C851 C848 1.526 . S
C851 C852 1.396 1_554 S
C851 C856 1.390 . S
C852 C846 1.465 . S
C852 C851 1.396 1_556 S
C852 C853 1.399 . S
C853 H839 0.929 . S
C853 C852 1.399 . S
C853 C854 1.385 . S
C854 H840 0.931 . S
C854 C853 1.385 . S
C854 C855 1.405 . S
C855 C854 1.405 . S
C855 C856 1.373 1_556 S
C856 H841 0.930 . S
C856 C851 1.390 . S
C856 C855 1.373 1_554 S
H857 C869 0.930 . S
H858 C871 0.930 . S
H859 C872 0.930 . S
H860 C876 0.959 . S
H861 C876 0.959 . S
H862 C876 0.961 . S
H863 C877 0.960 . S
H864 C877 0.961 . S
H865 C877 0.959 . S
H866 C880 0.929 . S
H867 C881 0.931 . S
H868 C883 0.930 . S
C869 H857 0.930 . S
C869 C870 1.399 . S
C869 C874 1.399 . S
C870 C869 1.399 . S
C870 C871 1.376 . S
C871 H858 0.930 . S
C871 C870 1.376 . S
C871 C872 1.388 . S
C872 H859 0.930 . S
C872 C871 1.388 . S
C872 C873 1.390 . S
C873 C872 1.390 . S
C873 C874 1.394 . S
C873 C879 1.465 . S
C874 C869 1.399 . S
C874 C873 1.394 . S
C874 C875 1.516 . S
C875 C874 1.516 . S
C875 C876 1.502 . S
C875 C877 1.561 . S
C875 C878 1.526 . S
C876 H860 0.959 . S
C876 H861 0.959 . S
C876 H862 0.961 . S
C876 C875 1.502 . S
C877 H863 0.960 . S
C877 H864 0.961 . S
C877 H865 0.959 . S
C877 C875 1.561 . S
C878 C875 1.526 . S
C878 C879 1.396 . S
C878 C883 1.390 . S
C879 C873 1.465 . S
C879 C878 1.396 . S
C879 C880 1.399 . S
C880 H866 0.929 . S
C880 C879 1.399 . S
C880 C881 1.385 . S
C881 H867 0.931 . S
C881 C880 1.385 . S
C881 C882 1.389 . S
C882 C881 1.389 . S
C882 C883 1.387 . S
C883 H868 0.930 . S
C883 C878 1.390 . S
C883 C882 1.387 . S
H884 C896 0.930 . S
H885 C898 0.930 . S
H886 C899 0.930 . S
H887 C903 0.959 . S
H888 C903 0.959 . S
H889 C903 0.961 . S
H890 C904 0.960 . S
H891 C904 0.961 . S
H892 C904 0.959 . S
H893 C907 0.929 . S
H894 C908 0.931 . S
H895 C910 0.930 . S
C896 H884 0.930 . S
C896 C897 1.399 . S
C896 C901 1.399 . S
C897 C896 1.399 . S
C897 C898 1.376 . S
C898 H885 0.930 . S
C898 C897 1.376 . S
C898 C899 1.388 . S
C899 H886 0.930 . S
C899 C898 1.388 . S
C899 C900 1.390 . S
C900 C899 1.390 . S
C900 C901 1.394 . S
C900 C906 1.465 . S
C901 C896 1.399 . S
C901 C900 1.394 . S
C901 C902 1.516 . S
C902 C901 1.516 . S
C902 C903 1.502 . S
C902 C904 1.561 . S
C902 C905 1.526 . S
C903 H887 0.959 . S
C903 H888 0.959 . S
C903 H889 0.961 . S
C903 C902 1.502 . S
C904 H890 0.960 . S
C904 H891 0.961 . S
C904 H892 0.959 . S
C904 C902 1.561 . S
C905 C902 1.526 . S
C905 C906 1.396 . S
C905 C910 1.390 . S
C906 C900 1.465 . S
C906 C905 1.396 . S
C906 C907 1.399 . S
C907 H893 0.929 . S
C907 C906 1.399 . S
C907 C908 1.385 . S
C908 H894 0.931 . S
C908 C907 1.385 . S
C908 C909 1.389 . S
C909 C908 1.389 . S
C909 C910 1.387 . S
C910 H895 0.930 . S
C910 C905 1.390 . S
C910 C909 1.387 . S
H911 C923 0.930 . S
H912 C925 0.930 . S
H913 C926 0.930 . S
H914 C930 0.959 . S
H915 C930 0.959 . S
H916 C930 0.961 . S
H917 C931 0.960 . S
H918 C931 0.961 . S
H919 C931 0.959 . S
H920 C934 0.929 . S
H921 C935 0.931 . S
H922 C937 0.930 . S
C923 H911 0.930 . S
C923 C924 1.399 1_554 S
C923 C928 1.399 . S
C924 C923 1.399 1_556 S
C924 C925 1.376 . S
C925 H912 0.930 . S
C925 C924 1.376 . S
C925 C926 1.388 . S
C926 H913 0.930 . S
C926 C925 1.388 . S
C926 C927 1.390 . S
C927 C926 1.390 . S
C927 C928 1.394 1_556 S
C927 C933 1.465 . S
C928 C923 1.399 . S
C928 C927 1.394 1_554 S
C928 C929 1.516 . S
C929 C928 1.516 . S
C929 C930 1.502 . S
C929 C931 1.561 . S
C929 C932 1.526 . S
C930 H914 0.959 . S
C930 H915 0.959 . S
C930 H916 0.961 . S
C930 C929 1.502 . S
C931 H917 0.960 . S
C931 H918 0.961 . S
C931 H919 0.959 . S
C931 C929 1.561 . S
C932 C929 1.526 . S
C932 C933 1.396 1_554 S
C932 C937 1.390 . S
C933 C927 1.465 . S
C933 C932 1.396 1_556 S
C933 C934 1.399 . S
C934 H920 0.929 . S
C934 C933 1.399 . S
C934 C935 1.385 . S
C935 H921 0.931 . S
C935 C934 1.385 . S
C935 C936 1.389 . S
C936 C935 1.389 . S
C936 C937 1.387 1_556 S
C937 H922 0.930 . S
C937 C932 1.390 . S
C937 C936 1.387 1_554 S
H938 C950 0.930 . S
H939 C952 0.930 . S
H940 C953 0.930 . S
H941 C957 0.959 . S
H942 C957 0.959 . S
H943 C957 0.961 . S
H944 C958 0.960 . S
H945 C958 0.961 . S
H946 C958 0.959 . S
H947 C961 0.929 . S
H948 C962 0.931 . S
H949 C964 0.930 . S
C950 H938 0.930 . S
C950 C951 1.399 . S
C950 C955 1.399 . S
C951 C950 1.399 . S
C951 C952 1.376 . S
C952 H939 0.930 . S
C952 C951 1.376 . S
C952 C953 1.388 . S
C953 H940 0.930 . S
C953 C952 1.388 . S
C953 C954 1.390 . S
C954 C953 1.390 . S
C954 C955 1.394 . S
C954 C960 1.465 . S
C955 C950 1.399 . S
C955 C954 1.394 . S
C955 C956 1.516 . S
C956 C955 1.516 . S
C956 C957 1.502 . S
C956 C958 1.561 . S
C956 C959 1.526 . S
C957 H941 0.959 . S
C957 H942 0.959 . S
C957 H943 0.961 . S
C957 C956 1.502 . S
C958 H944 0.960 . S
C958 H945 0.961 . S
C958 H946 0.959 . S
C958 C956 1.561 . S
C959 C956 1.526 . S
C959 C960 1.396 . S
C959 C964 1.390 . S
C960 C954 1.465 . S
C960 C959 1.396 . S
C960 C961 1.399 . S
C961 H947 0.929 . S
C961 C960 1.399 . S
C961 C962 1.385 . S
C962 H948 0.931 . S
C962 C961 1.385 . S
C962 C963 1.389 . S
C963 C962 1.389 . S
C963 C964 1.387 . S
C964 H949 0.930 . S
C964 C959 1.390 . S
C964 C963 1.387 . S
H965 C977 0.930 . S
H966 C979 0.930 . S
H967 C980 0.930 . S
H968 C984 0.959 . S
H969 C984 0.959 . S
H970 C984 0.961 . S
H971 C985 0.960 . S
H972 C985 0.961 . S
H973 C985 0.959 . S
H974 C988 0.929 . S
H975 C989 0.931 . S
H976 C991 0.930 . S
C977 H965 0.930 . S
C977 C978 1.399 1_556 S
C977 C982 1.399 . S
C978 C977 1.399 1_554 S
C978 C979 1.376 . S
C979 H966 0.930 . S
C979 C978 1.376 . S
C979 C980 1.388 . S
C980 H967 0.930 . S
C980 C979 1.388 . S
C980 C981 1.390 . S
C981 C980 1.390 . S
C981 C982 1.394 1_554 S
C981 C987 1.465 . S
C982 C977 1.399 . S
C982 C981 1.394 1_556 S
C982 C983 1.516 . S
C983 C982 1.516 . S
C983 C984 1.502 . S
C983 C985 1.561 . S
C983 C986 1.526 . S
C984 H968 0.959 . S
C984 H969 0.959 . S
C984 H970 0.961 . S
C984 C983 1.502 . S
C985 H971 0.960 . S
C985 H972 0.961 . S
C985 H973 0.959 . S
C985 C983 1.561 . S
C986 C983 1.526 . S
C986 C987 1.396 1_556 S
C986 C991 1.390 . S
C987 C981 1.465 . S
C987 C986 1.396 1_554 S
C987 C988 1.399 . S
C988 H974 0.929 . S
C988 C987 1.399 . S
C988 C989 1.385 . S
C989 H975 0.931 . S
C989 C988 1.385 . S
C989 C990 1.389 . S
C990 C989 1.389 . S
C990 C991 1.387 1_554 S
C991 H976 0.930 . S
C991 C986 1.390 . S
C991 C990 1.387 1_556 S
C357 C5 1.430 . S
C369 C201 1.441 . S
C384 C31 1.430 . S
C396 C117 1.395 . S
C423 C149 1.372 . S
C411 C53 1.462 . S
C438 C71 1.440 . S
C450 C169 1.463 . S
C477 C277 1.432 . S
C465 C75 1.478 . S
C504 C297 1.462 . S
C492 C9 1.467 . S
C531 C329 1.461 . S
C519 C27 1.432 . S
C558 C245 1.420 . S
C546 C49 1.473 . S
C573 C51 1.417 . S
C585 C137 1.373 . S
C600 C72 1.478 . S
C612 C181 1.456 . S
C627 C6 1.472 . S
C639 C213 1.449 . S
C666 C105 1.417 . S
C654 C29 1.431 . S
C681 C28 1.478 . S
C693 C341 1.456 . S
C720 C233 1.446 . S
C708 C50 1.461 . S
C747 C265 1.415 . S
C735 C73 1.457 . S
C762 C7 1.459 . S
C774 C309 1.473 . S
C801 C111 1.434 . S
C789 C4 1.493 . S
C828 C143 1.442 . S
C816 C30 1.483 . S
C843 C52 1.474 1_556 S
C855 C175 1.494 1_556 S
C870 C70 1.501 . S
C882 C207 1.485 . S
C909 C239 1.440 . S
C897 C74 1.495 . S
C924 C8 1.486 1_556 S
C936 C271 1.418 1_556 S
C951 C26 1.476 . S
C963 C303 1.491 . S
C978 C48 1.476 . S
C990 C335 1.491 . S
