# Generated by pormake.
# Topology nom, (4,4)-cn, num edge types: 1
# Building blocks:
#     Node 0, Type 0, BuildingBlock: AZAVOO_clean_linker_0, # of connection points: 4
#     Node 1, Type 0, BuildingBlock: AZAVOO_clean_linker_0, # of connection points: 4
#     Node 2, Type 0, BuildingBlock: AZAVOO_clean_linker_0, # of connection points: 4
#     Node 3, Type 0, BuildingBlock: AZAVOO_clean_linker_0, # of connection points: 4
#     Node 4, Type 0, BuildingBlock: AZAVOO_clean_linker_0, # of connection points: 4
#     Node 5, Type 0, BuildingBlock: AZAVOO_clean_linker_0, # of connection points: 4
#     Node 6, Type 1, BuildingBlock: UXUYUI_clean_sbu_0, # of connection points: 4
#     Node 7, Type 1, BuildingBlock: UXUYUI_clean_sbu_0, # of connection points: 4
#     Node 8, Type 1, BuildingBlock: UXUYUI_clean_sbu_0, # of connection points: 4
#     Node 9, Type 1, BuildingBlock: UXUYUI_clean_sbu_0, # of connection points: 4
#     Node 10, Type 1, BuildingBlock: UXUYUI_clean_sbu_0, # of connection points: 4
#     Node 11, Type 1, BuildingBlock: UXUYUI_clean_sbu_0, # of connection points: 4
#     Edge 12, Type (0, 1), BuildingBlock: KIFKEQ_clean_linker_1, # of connection points: 2
#     Edge 13, Type (0, 1), BuildingBlock: KIFKEQ_clean_linker_1, # of connection points: 2
#     Edge 14, Type (0, 1), BuildingBlock: KIFKEQ_clean_linker_1, # of connection points: 2
#     Edge 15, Type (0, 1), BuildingBlock: KIFKEQ_clean_linker_1, # of connection points: 2
#     Edge 16, Type (0, 1), BuildingBlock: KIFKEQ_clean_linker_1, # of connection points: 2
#     Edge 17, Type (0, 1), BuildingBlock: KIFKEQ_clean_linker_1, # of connection points: 2
#     Edge 18, Type (0, 1), BuildingBlock: KIFKEQ_clean_linker_1, # of connection points: 2
#     Edge 19, Type (0, 1), BuildingBlock: KIFKEQ_clean_linker_1, # of connection points: 2
#     Edge 20, Type (0, 1), BuildingBlock: KIFKEQ_clean_linker_1, # of connection points: 2
#     Edge 21, Type (0, 1), BuildingBlock: KIFKEQ_clean_linker_1, # of connection points: 2
#     Edge 22, Type (0, 1), BuildingBlock: KIFKEQ_clean_linker_1, # of connection points: 2
#     Edge 23, Type (0, 1), BuildingBlock: KIFKEQ_clean_linker_1, # of connection points: 2
#     Edge 24, Type (0, 1), BuildingBlock: KIFKEQ_clean_linker_1, # of connection points: 2
#     Edge 25, Type (0, 1), BuildingBlock: KIFKEQ_clean_linker_1, # of connection points: 2
#     Edge 26, Type (0, 1), BuildingBlock: KIFKEQ_clean_linker_1, # of connection points: 2
#     Edge 27, Type (0, 1), BuildingBlock: KIFKEQ_clean_linker_1, # of connection points: 2
#     Edge 28, Type (0, 1), BuildingBlock: KIFKEQ_clean_linker_1, # of connection points: 2
#     Edge 29, Type (0, 1), BuildingBlock: KIFKEQ_clean_linker_1, # of connection points: 2
#     Edge 30, Type (0, 1), BuildingBlock: KIFKEQ_clean_linker_1, # of connection points: 2
#     Edge 31, Type (0, 1), BuildingBlock: KIFKEQ_clean_linker_1, # of connection points: 2
#     Edge 32, Type (0, 1), BuildingBlock: KIFKEQ_clean_linker_1, # of connection points: 2
#     Edge 33, Type (0, 1), BuildingBlock: KIFKEQ_clean_linker_1, # of connection points: 2
#     Edge 34, Type (0, 1), BuildingBlock: KIFKEQ_clean_linker_1, # of connection points: 2
#     Edge 35, Type (0, 1), BuildingBlock: KIFKEQ_clean_linker_1, # of connection points: 2
# Relax obj value: 0.170
# Max RMSD: 0.224
# Mean RMSD: 0.184
data_MOF--net-nom--node1-UXUYUI_clean_sbu_0--node2-AZAVOO_clean_linker_0--edge1-KIFKEQ_clean_linker_1
_symmetry_space_group_name_H-M    P1
_symmetry_Int_Tables_number       1
_symmetry_cell_setting            triclinic
loop_
_symmetry_equiv_pos_as_xyz
'x, y, z'
_cell_length_a     58.302588
_cell_length_b     59.322926
_cell_length_c     73.169879
_cell_angle_alpha  89.990649
_cell_angle_beta   89.868853
_cell_angle_gamma 121.30872
loop_
_atom_site_label
_atom_site_type_symbol
_atom_site_fract_x
_atom_site_fract_y
_atom_site_fract_z
_atom_type_partial_charge
H0 H 0.05601 0.48837 0.19865 0.0
H1 H 0.21075 0.64953 0.36935 0.0
H2 H 0.01274 0.46831 0.2938 0.0
H3 H 0.97904 0.44612 0.26991 0.0
H4 H 0.96246 0.50913 0.27115 0.0
H5 H 0.99616 0.53111 0.2952 0.0
H6 H 0.07236 0.49996 0.27775 0.0
H7 H 0.06915 0.49078 0.24493 0.0
H8 H 0.03647 0.54083 0.23657 0.0
H9 H 0.04016 0.55012 0.26936 0.0
H10 H 0.124 0.53824 0.30284 0.0
H11 H 0.1674 0.56726 0.28794 0.0
H12 H 0.13802 0.61619 0.26792 0.0
H13 H 0.09504 0.58748 0.2832 0.0
H14 H 0.10983 0.53121 0.34359 0.0
H15 H 0.15186 0.55796 0.36031 0.0
H16 H 0.15455 0.6288 0.34242 0.0
H17 H 0.11236 0.60176 0.32593 0.0
H18 H 0.05557 0.50114 0.35837 0.0
H19 H 0.06945 0.50917 0.39028 0.0
H20 H 0.07718 0.5857 0.38703 0.0
H21 H 0.06505 0.57799 0.35474 0.0
H22 H 0.99008 0.47313 0.333 0.0
H23 H 0.94838 0.46254 0.34889 0.0
H24 H 0.97842 0.5458 0.35485 0.0
H25 H 0.01948 0.55611 0.33883 0.0
O26 O 0.05757 0.49265 0.21152 0.0
O27 O 0.04058 0.51836 0.20799 0.0
O28 O 0.19185 0.60147 0.37163 0.0
O29 O 0.19422 0.63849 0.36276 0.0
C30 C 0.03248 0.51801 0.30602 0.0
C31 C 0.05679 0.5297 0.29596 0.0
C32 C 0.08149 0.54551 0.30491 0.0
C33 C 0.08211 0.54829 0.32406 0.0
C34 C 0.05789 0.53661 0.33412 0.0
C35 C 0.03297 0.52251 0.32501 0.0
C36 C 0.0069 0.50132 0.29616 0.0
C37 C 0.00109 0.47679 0.2894 0.0
C38 C 0.9821 0.46434 0.27561 0.0
C39 C 0.96853 0.47617 0.26842 0.0
C40 C 0.97257 0.49952 0.27645 0.0
C41 C 0.99169 0.51205 0.29024 0.0
C42 C 0.05634 0.52555 0.27591 0.0
C43 C 0.06474 0.50909 0.26876 0.0
C44 C 0.06278 0.5038 0.25004 0.0
C45 C 0.05241 0.51495 0.23813 0.0
C46 C 0.04445 0.53184 0.24535 0.0
C47 C 0.04651 0.53717 0.26407 0.0
C48 C 0.10652 0.56088 0.29414 0.0
C49 C 0.12691 0.55506 0.29504 0.0
C50 C 0.15157 0.57154 0.28644 0.0
C51 C 0.15613 0.59408 0.27686 0.0
C52 C 0.13519 0.59917 0.2754 0.0
C53 C 0.11061 0.58271 0.28399 0.0
C54 C 0.10812 0.56459 0.33359 0.0
C55 C 0.11957 0.55251 0.3433 0.0
C56 C 0.14356 0.56783 0.35283 0.0
C57 C 0.15656 0.59554 0.35273 0.0
C58 C 0.14507 0.60754 0.34281 0.0
C59 C 0.12104 0.59217 0.33333 0.0
C60 C 0.0592 0.53892 0.35431 0.0
C61 C 0.05956 0.51932 0.36474 0.0
C62 C 0.06751 0.524 0.38303 0.0
C63 C 0.07488 0.5483 0.39129 0.0
C64 C 0.07239 0.56705 0.38106 0.0
C65 C 0.06497 0.56253 0.36268 0.0
C66 C 0.00791 0.51539 0.33496 0.0
C67 C 0.98759 0.489 0.3378 0.0
C68 C 0.96385 0.48302 0.34683 0.0
C69 C 0.9603 0.50337 0.35326 0.0
C70 C 0.98079 0.52972 0.35039 0.0
C71 C 0.00425 0.53563 0.34123 0.0
C72 C 0.04981 0.50884 0.21831 0.0
C73 C 0.18192 0.61191 0.36295 0.0
H74 H 0.59452 0.07615 0.3757 0.0
H75 H 0.55162 0.18153 0.55505 0.0
H76 H 0.56157 0.00954 0.46931 0.0
H77 H 0.55537 0.97607 0.44709 0.0
H78 H 0.47255 0.95403 0.44024 0.0
H79 H 0.4788 0.98677 0.46315 0.0
H80 H 0.58717 0.07218 0.45551 0.0
H81 H 0.59836 0.07775 0.42291 0.0
H82 H 0.51385 0.03821 0.4098 0.0
H83 H 0.503 0.03304 0.44244 0.0
H84 H 0.59254 0.11562 0.48469 0.0
H85 H 0.60604 0.15947 0.47283 0.0
H86 H 0.52832 0.1271 0.44737 0.0
H87 H 0.51483 0.08357 0.45968 0.0
H88 H 0.57919 0.09175 0.52534 0.0
H89 H 0.58947 0.1287 0.54554 0.0
H90 H 0.52346 0.13251 0.52223 0.0
H91 H 0.51314 0.09527 0.50232 0.0
H92 H 0.55398 0.03147 0.53353 0.0
H93 H 0.55601 0.03883 0.56654 0.0
H94 H 0.49213 0.05519 0.56214 0.0
H95 H 0.49042 0.04798 0.52911 0.0
H96 H 0.53227 0.98263 0.50494 0.0
H97 H 0.50289 0.93825 0.51765 0.0
H98 H 0.43787 0.95322 0.5206 0.0
H99 H 0.46737 0.99737 0.50823 0.0
O100 O 0.58967 0.07382 0.38851 0.0
O101 O 0.54597 0.05327 0.38251 0.0
O102 O 0.58161 0.16401 0.55881 0.0
O103 O 0.54814 0.16704 0.54711 0.0
C104 C 0.52574 0.02325 0.47916 0.0
C105 C 0.53768 0.04856 0.47108 0.0
C106 C 0.54328 0.07057 0.48183 0.0
C107 C 0.53845 0.06757 0.50083 0.0
C108 C 0.52634 0.04222 0.50888 0.0
C109 C 0.51906 0.01993 0.49792 0.0
C110 C 0.52063 0.00048 0.46778 0.0
C111 C 0.54196 0.99701 0.46328 0.0
C112 C 0.53842 0.97808 0.45043 0.0
C113 C 0.51355 0.96254 0.44164 0.0
C114 C 0.49189 0.96538 0.44684 0.0
C115 C 0.4954 0.98412 0.45988 0.0
C116 C 0.5443 0.05205 0.45129 0.0
C117 C 0.57114 0.06478 0.44556 0.0
C118 C 0.57745 0.0679 0.42694 0.0
C119 C 0.55699 0.05835 0.41374 0.0
C120 C 0.53009 0.04572 0.4196 0.0
C121 C 0.52382 0.04266 0.43822 0.0
C122 C 0.55271 0.0965 0.47307 0.0
C123 C 0.57859 0.11803 0.4764 0.0
C124 C 0.58627 0.14299 0.46955 0.0
C125 C 0.56816 0.14676 0.45926 0.0
C126 C 0.54256 0.1249 0.45547 0.0
C127 C 0.53492 0.1 0.46233 0.0
C128 C 0.54547 0.0909 0.51237 0.0
C129 C 0.56703 0.10065 0.5246 0.0
C130 C 0.57284 0.12174 0.53612 0.0
C131 C 0.55726 0.13355 0.53551 0.0
C132 C 0.53585 0.12388 0.52306 0.0
C133 C 0.52998 0.1027 0.51161 0.0
C134 C 0.52229 0.03951 0.52896 0.0
C135 C 0.53981 0.03574 0.53981 0.0
C136 C 0.54094 0.03997 0.55866 0.0
C137 C 0.52454 0.04804 0.56687 0.0
C138 C 0.50533 0.04945 0.55613 0.0
C139 C 0.50418 0.04515 0.53732 0.0
C140 C 0.50192 0.99316 0.50572 0.0
C141 C 0.51168 0.97623 0.50837 0.0
C142 C 0.49486 0.95091 0.51557 0.0
C143 C 0.46806 0.94224 0.52023 0.0
C144 C 0.4585 0.9594 0.5175 0.0
C145 C 0.47527 0.98459 0.51034 0.0
C146 C 0.56376 0.06161 0.39397 0.0
C147 C 0.56316 0.15578 0.54786 0.0
H148 H 0.53111 0.48429 0.77481 0.0
H149 H 0.58339 0.44442 0.56517 0.0
H150 H 0.53155 0.55993 0.67679 0.0
H151 H 0.51974 0.57764 0.70294 0.0
H152 H 0.45146 0.49993 0.71415 0.0
H153 H 0.46308 0.48255 0.68768 0.0
H154 H 0.54932 0.52629 0.70039 0.0
H155 H 0.54759 0.51615 0.73296 0.0
H156 H 0.48486 0.4355 0.72227 0.0
H157 H 0.48656 0.44602 0.68976 0.0
H158 H 0.57386 0.49428 0.68079 0.0
H159 H 0.58416 0.46214 0.69328 0.0
H160 H 0.5148 0.3994 0.66564 0.0
H161 H 0.50441 0.43154 0.65362 0.0
H162 H 0.5866 0.51825 0.63509 0.0
H163 H 0.61024 0.50923 0.61121 0.0
H164 H 0.53529 0.43998 0.59523 0.0
H165 H 0.51194 0.44934 0.61913 0.0
H166 H 0.5642 0.55362 0.62388 0.0
H167 H 0.58235 0.56261 0.59279 0.0
H168 H 0.51226 0.49059 0.57432 0.0
H169 H 0.49415 0.48193 0.60546 0.0
H170 H 0.52446 0.56574 0.63973 0.0
H171 H 0.49492 0.58155 0.62982 0.0
H172 H 0.42721 0.50136 0.63106 0.0
H173 H 0.45661 0.48609 0.64137 0.0
O174 O 0.53145 0.48786 0.76187 0.0
O175 O 0.4994 0.44658 0.75564 0.0
O176 O 0.6127 0.4838 0.58382 0.0
O177 O 0.57471 0.44798 0.57508 0.0
C178 C 0.50858 0.5088 0.66695 0.0
C179 C 0.51902 0.49328 0.67304 0.0
C180 C 0.53032 0.48386 0.66034 0.0
C181 C 0.53311 0.49168 0.64191 0.0
C182 C 0.52277 0.50731 0.63589 0.0
C183 C 0.50935 0.51474 0.64822 0.0
C184 C 0.49822 0.51998 0.68043 0.0
C185 C 0.51361 0.54692 0.68459 0.0
C186 C 0.50701 0.55692 0.69963 0.0
C187 C 0.4849 0.5401 0.71073 0.0
C188 C 0.46852 0.51341 0.7058 0.0
C189 C 0.47514 0.50342 0.69074 0.0
C190 C 0.51809 0.48688 0.69275 0.0
C191 C 0.5352 0.50646 0.70513 0.0
C192 C 0.53418 0.5006 0.72372 0.0
C193 C 0.51609 0.475 0.73023 0.0
C194 C 0.49903 0.4554 0.71772 0.0
C195 C 0.5 0.46133 0.69915 0.0
C196 C 0.53846 0.46517 0.66629 0.0
C197 C 0.56113 0.47362 0.6773 0.0
C198 C 0.56698 0.45527 0.68437 0.0
C199 C 0.55016 0.42823 0.68053 0.0
C200 C 0.52789 0.42004 0.66906 0.0
C201 C 0.5221 0.43836 0.66201 0.0
C202 C 0.54765 0.48434 0.62887 0.0
C203 C 0.57544 0.50093 0.62659 0.0
C204 C 0.58884 0.49581 0.61288 0.0
C205 C 0.57463 0.47392 0.60126 0.0
C206 C 0.54683 0.457 0.60392 0.0
C207 C 0.53347 0.46219 0.61762 0.0
C208 C 0.52796 0.51709 0.61685 0.0
C209 C 0.55218 0.54048 0.61294 0.0
C210 C 0.56264 0.54542 0.59525 0.0
C211 C 0.54894 0.52704 0.58126 0.0
C212 C 0.52321 0.50515 0.58482 0.0
C213 C 0.51277 0.50019 0.60257 0.0
C214 C 0.49256 0.52484 0.6413 0.0
C215 C 0.50325 0.55171 0.63778 0.0
C216 C 0.48638 0.56063 0.63207 0.0
C217 C 0.45864 0.54273 0.62982 0.0
C218 C 0.44832 0.51575 0.63303 0.0
C219 C 0.4651 0.50695 0.63877 0.0
C220 C 0.51507 0.46885 0.74998 0.0
C221 C 0.58859 0.46893 0.58625 0.0
H222 H 0.01433 0.53098 0.95087 0.0
H223 H 0.19004 0.57642 0.77864 0.0
H224 H 0.9774 0.52578 0.85519 0.0
H225 H 0.94335 0.50382 0.87911 0.0
H226 H 0.9405 0.43093 0.86809 0.0
H227 H 0.9743 0.45294 0.84398 0.0
H228 H 0.03628 0.55635 0.8731 0.0
H229 H 0.02965 0.55357 0.90628 0.0
H230 H 0.00729 0.47172 0.90491 0.0
H231 H 0.01422 0.47487 0.87181 0.0
H232 H 0.09716 0.57727 0.85112 0.0
H233 H 0.13772 0.58524 0.86716 0.0
H234 H 0.10292 0.50102 0.8727 0.0
H235 H 0.06282 0.49341 0.8569 0.0
H236 H 0.08515 0.58194 0.80935 0.0
H237 H 0.12892 0.6032 0.79406 0.0
H238 H 0.13154 0.53223 0.80146 0.0
H239 H 0.08767 0.51119 0.81658 0.0
H240 H 0.03433 0.55806 0.78943 0.0
H241 H 0.05329 0.56969 0.75863 0.0
H242 H 0.06002 0.50042 0.75782 0.0
H243 H 0.04286 0.49017 0.789 0.0
H244 H 0.96327 0.51113 0.81498 0.0
H245 H 0.92111 0.47961 0.79999 0.0
H246 H 0.95604 0.43405 0.78288 0.0
H247 H 0.99684 0.46415 0.79932 0.0
O248 O 0.01731 0.53179 0.93782 0.0
O249 O 0.00523 0.48958 0.93627 0.0
O250 O 0.17051 0.60459 0.78131 0.0
O251 O 0.17284 0.56859 0.78477 0.0
C252 C 0.00484 0.50582 0.83876 0.0
C253 C 0.02806 0.51724 0.84984 0.0
C254 C 0.05365 0.52919 0.84174 0.0
C255 C 0.05631 0.53194 0.82261 0.0
C256 C 0.03319 0.5207 0.81146 0.0
C257 C 0.00734 0.50661 0.8195 0.0
C258 C 0.9783 0.49094 0.84791 0.0
C259 C 0.96842 0.50477 0.85732 0.0
C260 C 0.94909 0.49224 0.87102 0.0
C261 C 0.93966 0.46582 0.87556 0.0
C262 C 0.94764 0.45137 0.86488 0.0
C263 C 0.96669 0.46382 0.85101 0.0
C264 C 0.02553 0.51577 0.87008 0.0
C265 C 0.03013 0.53791 0.88004 0.0
C266 C 0.02624 0.53623 0.89896 0.0
C267 C 0.01776 0.51236 0.90824 0.0
C268 C 0.01369 0.49036 0.8982 0.0
C269 C 0.01762 0.49209 0.87929 0.0
C270 C 0.07708 0.53479 0.853 0.0
C271 C 0.09826 0.56066 0.8561 0.0
C272 C 0.12136 0.56513 0.86517 0.0
C273 C 0.12346 0.54374 0.87125 0.0
C274 C 0.10176 0.51792 0.86854 0.0
C275 C 0.07885 0.51352 0.85946 0.0
C276 C 0.08336 0.54511 0.81408 0.0
C277 C 0.09529 0.5711 0.8077 0.0
C278 C 0.12025 0.58315 0.79896 0.0
C279 C 0.13373 0.56939 0.79652 0.0
C280 C 0.12173 0.54338 0.80311 0.0
C281 C 0.09674 0.53134 0.8118 0.0
C282 C 0.03686 0.52308 0.79135 0.0
C283 C 0.0391 0.54498 0.78232 0.0
C284 C 0.05003 0.55161 0.7647 0.0
C285 C 0.05864 0.53623 0.75577 0.0
C286 C 0.05427 0.5131 0.7644 0.0
C287 C 0.04386 0.50683 0.7821 0.0
C288 C 0.98329 0.49015 0.80808 0.0
C289 C 0.9618 0.49443 0.80784 0.0
C290 C 0.93778 0.47646 0.79912 0.0
C291 C 0.93497 0.45406 0.79027 0.0
C292 C 0.95713 0.45067 0.78984 0.0
C293 C 0.9808 0.46825 0.7989 0.0
C294 C 0.01305 0.51046 0.92827 0.0
C295 C 0.16012 0.58201 0.78708 0.0
H296 H 0.43616 0.99076 0.88402 0.0
H297 H 0.44798 0.82864 0.04121 0.0
H298 H 0.48429 0.0378 0.97568 0.0
H299 H 0.50032 0.073 0.95288 0.0
H300 H 0.57585 0.07575 0.94987 0.0
H301 H 0.55991 0.04129 0.97311 0.0
H302 H 0.44389 0.97585 0.96231 0.0
H303 H 0.43271 0.97922 0.93059 0.0
H304 H 0.51443 0.00613 0.9145 0.0
H305 H 0.52519 0.00224 0.94619 0.0
H306 H 0.43108 0.92026 0.98537 0.0
H307 H 0.41451 0.87807 0.9695 0.0
H308 H 0.49156 0.91017 0.94281 0.0
H309 H 0.50785 0.95177 0.95872 0.0
H310 H 0.4471 0.93957 0.02812 0.0
H311 H 0.4289 0.89693 0.04349 0.0
H312 H 0.48538 0.88382 0.01409 0.0
H313 H 0.50361 0.92664 -0.00099 0.0
H314 H 0.48515 0.99889 0.04256 0.0
H315 H 0.49083 0.99202 0.07493 0.0
H316 H 0.54106 0.96141 0.05941 0.0
H317 H 0.53535 0.96843 0.0272 0.0
H318 H 0.51503 0.05481 0.01308 0.0
H319 H 0.5516 0.09546 0.02647 0.0
H320 H 0.59967 0.05943 0.03023 0.0
H321 H 0.56394 0.01992 0.0156 0.0
O322 O 0.44092 0.98927 0.89642 0.0
O323 O 0.48328 0.00339 0.88892 0.0
O324 O 0.42636 0.8534 0.05027 0.0
O325 O 0.45484 0.84561 0.03537 0.0
C326 C 0.5089 0.01147 0.98577 0.0
C327 C 0.4922 0.98794 0.97598 0.0
C328 C 0.48251 0.96327 0.98447 0.0
C329 C 0.48755 0.96203 0.0032 0.0
C330 C 0.50398 0.98554 0.01305 0.0
C331 C 0.51559 0.01025 0.00414 0.0
C332 C 0.52092 0.03699 0.97594 0.0
C333 C 0.50464 0.04674 0.97055 0.0
C334 C 0.51373 0.0666 0.95736 0.0
C335 C 0.53917 0.07684 0.94924 0.0
C336 C 0.55624 0.0685 0.95587 0.0
C337 C 0.54719 0.04879 0.96918 0.0
C338 C 0.48539 0.98907 0.95656 0.0
C339 C 0.45929 0.98233 0.95189 0.0
C340 C 0.45299 0.98435 0.93377 0.0
C341 C 0.47271 0.99309 0.92002 0.0
C342 C 0.49879 -0.00055 0.92475 0.0
C343 C 0.50502 0.99733 0.94285 0.0
C344 C 0.47063 0.93905 0.97315 0.0
C345 C 0.44413 0.91822 0.97583 0.0
C346 C 0.43477 0.8942 0.96682 0.0
C347 C 0.45174 0.89085 0.9549 0.0
C348 C 0.47783 0.91224 0.95164 0.0
C349 C 0.4872 0.93604 0.96074 0.0
C350 C 0.47653 0.93608 0.01239 0.0
C351 C 0.45551 0.92745 0.02505 0.0
C352 C 0.44515 0.90309 0.03378 0.0
C353 C 0.45565 0.88693 0.02998 0.0
C354 C 0.4768 0.89574 0.01731 0.0
C355 C 0.4872 0.92014 0.00864 0.0
C356 C 0.50973 0.98401 0.0326 0.0
C357 C 0.49768 0.99107 0.04622 0.0
C358 C 0.50084 0.98703 0.06464 0.0
C359 C 0.51635 0.97614 0.06967 0.0
C360 C 0.52925 0.9701 0.05597 0.0
C361 C 0.52588 0.97393 0.03759 0.0
C362 C 0.53677 0.03437 0.01343 0.0
C363 C 0.53352 0.05582 0.01678 0.0
C364 C 0.55437 0.07892 0.02461 0.0
C365 C 0.57871 0.08083 0.02943 0.0
C366 C 0.5815 0.05896 0.02641 0.0
C367 C 0.5609 0.03615 0.01829 0.0
C368 C 0.46607 0.99558 0.90084 0.0
C369 C 0.44467 0.861 0.03919 0.0
H370 H 0.45794 0.43547 0.04436 0.0
H371 H 0.62201 0.43223 0.20675 0.0
H372 H 0.45891 0.47977 0.136 0.0
H373 H 0.44252 0.49616 0.11173 0.0
H374 H 0.51935 0.5693 0.1106 0.0
H375 H 0.53524 0.55292 0.13509 0.0
H376 H 0.47767 0.43928 0.12299 0.0
H377 H 0.46376 0.42989 0.09098 0.0
H378 H 0.5256 0.50943 0.07636 0.0
H379 H 0.53957 0.51837 0.10835 0.0
H380 H 0.51633 0.4229 0.14551 0.0
H381 H 0.54048 0.40475 0.12979 0.0
H382 H 0.59646 0.48227 0.10796 0.0
H383 H 0.57187 0.49972 0.12314 0.0
H384 H 0.51366 0.43979 0.19009 0.0
H385 H 0.53493 0.41948 0.20652 0.0
H386 H 0.60954 0.47116 0.17822 0.0
H387 H 0.58814 0.49153 0.1621 0.0
H388 H 0.49789 0.4826 0.20458 0.0
H389 H 0.51122 0.4874 0.23677 0.0
H390 H 0.59465 0.52826 0.22019 0.0
H391 H 0.58111 0.52439 0.18834 0.0
H392 H 0.47316 0.50868 0.17574 0.0
H393 H 0.47064 0.54492 0.18977 0.0
H394 H 0.5573 0.59309 0.18948 0.0
H395 H 0.55957 0.55687 0.17562 0.0
O396 O 0.46406 0.43944 0.05688 0.0
O397 O 0.49575 0.48073 0.05018 0.0
O398 O 0.5743 0.41386 0.21468 0.0
O399 O 0.61309 0.43987 0.20043 0.0
C400 C 0.5106 0.50244 0.14724 0.0
C401 C 0.51668 0.4855 0.13759 0.0
C402 C 0.53039 0.47484 0.14639 0.0
C403 C 0.53632 0.47948 0.16519 0.0
C404 C 0.53058 0.4967 0.17477 0.0
C405 C 0.51847 0.50885 0.16565 0.0
C406 C 0.49827 0.51512 0.13716 0.0
C407 C 0.47175 0.49973 0.131 0.0
C408 C 0.46257 0.50901 0.117 0.0
C409 C 0.47985 0.53379 0.10898 0.0
C410 C 0.5055 0.55018 0.11652 0.0
C411 C 0.51462 0.5409 0.13056 0.0
C412 C 0.50942 0.47955 0.11799 0.0
C413 C 0.48829 0.45456 0.11282 0.0
C414 C 0.48034 0.4493 0.09454 0.0
C415 C 0.49345 0.46897 0.08112 0.0
C416 C 0.51499 0.49388 0.08635 0.0
C417 C 0.52298 0.49906 0.10461 0.0
C418 C 0.54234 0.46255 0.13536 0.0
C419 C 0.53349 0.43569 0.13699 0.0
C420 C 0.54743 0.42547 0.12812 0.0
C421 C 0.57046 0.44203 0.11759 0.0
C422 C 0.57855 0.46875 0.11558 0.0
C423 C 0.56458 0.47884 0.12433 0.0
C424 C 0.54929 0.46693 0.1748 0.0
C425 C 0.53458 0.44664 0.18745 0.0
C426 C 0.54678 0.43509 0.1968 0.0
C427 C 0.57394 0.44366 0.19365 0.0
C428 C 0.58859 0.46404 0.18094 0.0
C429 C 0.57639 0.47563 0.17165 0.0
C430 C 0.53855 0.50283 0.19419 0.0
C431 C 0.51903 0.49311 0.20801 0.0
C432 C 0.52669 0.49569 0.22634 0.0
C433 C 0.554 0.50796 0.23108 0.0
C434 C 0.57347 0.51896 0.21713 0.0
C435 C 0.5658 0.51655 0.19888 0.0
C436 C 0.51654 0.53012 0.17478 0.0
C437 C 0.49154 0.52704 0.17882 0.0
C438 C 0.49016 0.54776 0.18675 0.0
C439 C 0.51379 0.57185 0.19079 0.0
C440 C 0.53876 0.57467 0.18685 0.0
C441 C 0.5401 0.55403 0.17888 0.0
C442 C 0.48459 0.46351 0.06178 0.0
C443 C 0.58701 0.4315 0.20358 0.0
Li444 Li 0.6658 0.46351 0.4278 0.0
Li445 Li 0.65796 0.42303 0.41573 0.0
Li446 Li 0.70167 0.46276 0.41295 0.0
Li447 Li 0.66314 0.45864 0.39585 0.0
C448 C 0.67307 0.43156 0.45199 0.0
N449 N 0.65261 0.40615 0.48497 0.0
C450 C 0.64593 0.42086 0.45619 0.0
C451 C 0.68978 0.42931 0.46455 0.0
C452 C 0.63598 0.4081 0.47294 0.0
C453 C 0.67907 0.4164 0.48116 0.0
C454 C 0.61122 0.42016 0.40465 0.0
C455 C 0.58853 0.38863 0.38046 0.0
N456 N 0.56468 0.38493 0.38639 0.0
C457 C 0.58649 0.41603 0.41049 0.0
C458 C 0.61228 0.40634 0.3895 0.0
C459 C 0.56319 0.39814 0.40109 0.0
C460 C 0.63396 0.48076 0.44256 0.0
N461 N 0.65554 0.47868 0.44651 0.0
C462 C 0.65847 0.49602 0.47643 0.0
C463 C 0.66812 0.48636 0.46293 0.0
C464 C 0.63563 0.49758 0.47291 0.0
C465 C 0.62359 0.49017 0.45563 0.0
H466 H 0.62461 0.47478 0.42928 0.0
H467 H 0.68533 0.48454 0.46565 0.0
C468 C 0.65867 0.37684 0.4162 0.0
N469 N 0.64211 0.38621 0.41908 0.0
C470 C 0.64957 0.35027 0.41917 0.0
C471 C 0.60647 0.34347 0.42817 0.0
C472 C 0.61643 0.37022 0.42499 0.0
C473 C 0.62317 0.33321 0.42532 0.0
H474 H 0.67919 0.39022 0.41194 0.0
H475 H 0.60381 0.37827 0.42752 0.0
C476 C 0.70057 0.51198 0.41929 0.0
N477 N 0.71763 0.5566 0.4403 0.0
C478 C 0.68925 0.52754 0.41683 0.0
C479 C 0.72066 0.51918 0.43235 0.0
C480 C 0.69811 0.55 0.42762 0.0
C481 C 0.729 0.54181 0.44285 0.0
C482 C 0.69654 0.44104 0.37898 0.0
C483 C 0.71065 0.46584 0.37063 0.0
C484 C 0.70015 0.42079 0.37283 0.0
C485 C 0.72813 0.46995 0.35619 0.0
C486 C 0.7178 0.42569 0.35833 0.0
N487 N 0.73131 0.44996 0.35039 0.0
C488 C 0.74404 0.45489 0.4174 0.0
C489 C 0.75668 0.49523 0.40248 0.0
C490 C 0.76918 0.45831 0.41394 0.0
N491 N 0.73819 0.47298 0.41137 0.0
C492 C 0.78208 0.49937 0.3986 0.0
C493 C 0.78838 0.48043 0.40398 0.0
H494 H 0.72873 0.43724 0.42425 0.0
H495 H 0.75124 0.50903 0.39758 0.0
C496 C 0.63746 0.48025 0.37802 0.0
N497 N 0.65012 0.46682 0.37474 0.0
C498 C 0.62632 0.48682 0.36366 0.0
C499 C 0.64123 0.46536 0.3428 0.0
C500 C 0.65177 0.45889 0.35761 0.0
C501 C 0.62835 0.47952 0.34578 0.0
H502 H 0.63577 0.48557 0.39187 0.0
H503 H 0.66087 0.44725 0.35543 0.0
O504 O 0.68345 0.44413 0.43568 0.0
O505 O 0.63411 0.43776 0.41379 0.0
O506 O 0.69168 0.48951 0.40926 0.0
O507 O 0.6799 0.43681 0.39348 0.0
H508 H 0.63263 0.42238 0.44671 0.0
H509 H 0.71084 0.43746 0.46149 0.0
H510 H 0.61503 0.39975 0.47637 0.0
H511 H 0.69178 0.41452 0.49101 0.0
H512 H 0.58906 0.37782 0.36872 0.0
H513 H 0.58532 0.42655 0.4222 0.0
H514 H 0.63112 0.40914 0.38472 0.0
H515 H 0.54391 0.39477 0.40547 0.0
H516 H 0.66819 0.50136 0.48964 0.0
H517 H 0.6062 0.49143 0.45229 0.0
H518 H 0.6633 0.34335 0.41716 0.0
H519 H 0.58596 0.33098 0.43283 0.0
H520 H 0.67369 0.52227 0.4068 0.0
H521 H 0.72946 0.50721 0.43453 0.0
H522 H 0.68945 0.56216 0.42594 0.0
H523 H 0.74443 0.54753 0.45308 0.0
H524 H 0.70824 0.48179 0.37531 0.0
H525 H 0.68943 0.4015 0.37916 0.0
H526 H 0.73921 0.48906 0.34962 0.0
H527 H 0.72079 0.4102 0.35342 0.0
H528 H 0.77328 0.44344 0.41863 0.0
H529 H 0.79608 0.51653 0.39069 0.0
H530 H 0.61645 0.49768 0.36648 0.0
H531 H 0.64264 0.45892 0.32922 0.0
Li532 Li 0.23482 0.63402 0.59278 0.0
Li533 Li 0.26816 0.62554 0.57999 0.0
Li534 Li 0.26976 0.66893 0.57409 0.0
Li535 Li 0.23442 0.62678 0.56096 0.0
C536 C 0.27567 0.65785 0.61578 0.0
N537 N 0.27691 0.66439 0.65323 0.0
C538 C 0.27904 0.64102 0.62733 0.0
C539 C 0.27331 0.67823 0.62326 0.0
C540 C 0.27952 0.64459 0.64623 0.0
C541 C 0.27387 0.68114 0.64223 0.0
C542 C 0.20278 0.58123 0.58201 0.0
C543 C 0.16973 0.53532 0.58713 0.0
N544 N 0.14989 0.54074 0.58519 0.0
C545 C 0.18207 0.58636 0.5801 0.0
C546 C 0.19661 0.55554 0.58559 0.0
C547 C 0.15546 0.56563 0.58174 0.0
C548 C 0.19639 0.63547 0.61757 0.0
N549 N 0.21227 0.62544 0.61402 0.0
C550 C 0.19476 0.59721 0.64015 0.0
C551 C 0.21173 0.60668 0.62498 0.0
C552 C 0.17764 0.60672 0.64397 0.0
C553 C 0.17881 0.6263 0.63249 0.0
H554 H 0.19674 0.65011 0.60869 0.0
H555 H 0.22426 0.59873 0.62174 0.0
C556 C 0.31532 0.62477 0.57573 0.0
N557 N 0.29067 0.61183 0.58371 0.0
C558 C 0.33377 0.61705 0.57929 0.0
C559 C 0.3009 0.58255 0.59899 0.0
C560 C 0.28302 0.59087 0.59497 0.0
C561 C 0.32682 0.59591 0.59128 0.0
H562 H 0.32081 0.64143 0.56687 0.0
H563 H 0.26334 0.58116 0.60125 0.0
C564 C 0.21807 0.66777 0.5756 0.0
N565 N 0.19177 0.69481 0.58103 0.0
C566 C 0.1922 0.65774 0.56871 0.0
C567 C 0.2307 0.69173 0.58503 0.0
C568 C 0.1792 0.67165 0.57167 0.0
C569 C 0.21704 0.70505 0.58769 0.0
C570 C 0.27468 0.63922 0.53891 0.0
C571 C 0.27867 0.65732 0.5252 0.0
C572 C 0.27032 0.61447 0.53421 0.0
C573 C 0.27805 0.65024 0.50692 0.0
C574 C 0.26985 0.60814 0.51577 0.0
N575 N 0.27367 0.626 0.50262 0.0
C576 C 0.31741 0.71747 0.5789 0.0
C577 C 0.28803 0.71797 0.55676 0.0
C578 C 0.33677 0.74367 0.57496 0.0
N579 N 0.29376 0.70522 0.56971 0.0
C580 C 0.30676 0.74424 0.55245 0.0
C581 C 0.33165 0.75732 0.56145 0.0
H582 H 0.32141 0.70669 0.58905 0.0
H583 H 0.26913 0.70753 0.54953 0.0
C584 C 0.19862 0.58728 0.53531 0.0
N585 N 0.21269 0.61335 0.53966 0.0
C586 C 0.18183 0.57855 0.52003 0.0
C587 C 0.19537 0.62378 0.51359 0.0
C588 C 0.21149 0.63154 0.52913 0.0
C589 C 0.17987 0.59689 0.50896 0.0
H590 H 0.20014 0.57321 0.54381 0.0
H591 H 0.2231 0.65217 0.53285 0.0
O592 O 0.27463 0.65434 0.59726 0.0
O593 O 0.22902 0.60124 0.58068 0.0
O594 O 0.23117 0.65453 0.57266 0.0
O595 O 0.27437 0.64543 0.55685 0.0
H596 H 0.28099 0.62522 0.62177 0.0
H597 H 0.27102 0.6916 0.61453 0.0
H598 H 0.28191 0.63159 0.65533 0.0
H599 H 0.27191 0.69674 0.6482 0.0
H600 H 0.16466 0.51532 0.58988 0.0
H601 H 0.1865 0.60613 0.57745 0.0
H602 H 0.21244 0.55128 0.58718 0.0
H603 H 0.13924 0.56934 0.5803 0.0
H604 H 0.19506 0.58251 0.64874 0.0
H605 H 0.16578 0.63401 0.63467 0.0
H606 H 0.35332 0.62765 0.5728 0.0
H607 H 0.29476 0.56639 0.60849 0.0
H608 H 0.18226 0.63943 0.56113 0.0
H609 H 0.25084 0.7 0.59021 0.0
H610 H 0.15913 0.66407 0.56648 0.0
H611 H 0.22654 0.72357 0.59503 0.0
H612 H 0.28194 0.67652 0.52865 0.0
H613 H 0.26704 0.60021 0.5447 0.0
H614 H 0.28097 0.66398 0.49615 0.0
H615 H 0.26635 0.589 0.51191 0.0
H616 H 0.35558 0.75311 0.58235 0.0
H617 H 0.30214 0.75394 0.5418 0.0
H618 H 0.17017 0.55762 0.51718 0.0
H619 H 0.19523 0.6388 0.50528 0.0
Li620 Li 0.66004 0.23892 0.75141 0.0
Li621 Li 0.62189 0.20837 0.76955 0.0
Li622 Li 0.62289 0.20095 0.73566 0.0
Li623 Li 0.61735 0.23668 0.74845 0.0
C624 C 0.66602 0.1948 0.75301 0.0
N625 N 0.7054 0.18261 0.7482 0.0
C626 C 0.67852 0.19145 0.76816 0.0
C627 C 0.67338 0.19171 0.73542 0.0
C628 C 0.69843 0.18536 0.76545 0.0
C629 C 0.69337 0.18561 0.73327 0.0
C630 C 0.64473 0.25341 0.78791 0.0
C631 C 0.62779 0.25658 0.81731 0.0
N632 N 0.65208 0.26437 0.82488 0.0
C633 C 0.66956 0.26155 0.79598 0.0
C634 C 0.6237 0.25103 0.79864 0.0
C635 C 0.67287 0.26698 0.81469 0.0
C636 C 0.70206 0.28989 0.75249 0.0
N637 N 0.69753 0.26503 0.75148 0.0
C638 C 0.74466 0.28177 0.75311 0.0
C639 C 0.7182 0.26063 0.75151 0.0
C640 C 0.7499 0.30771 0.75446 0.0
C641 C 0.7281 0.31156 0.75373 0.0
H642 H 0.68526 0.29285 0.75267 0.0
H643 H 0.71437 0.24084 0.75076 0.0
C644 C 0.58409 0.1756 0.79632 0.0
N645 N 0.61074 0.19129 0.79267 0.0
C646 C 0.57545 0.1639 0.8135 0.0
C647 C 0.62186 0.18457 0.82279 0.0
C648 C 0.62958 0.19561 0.80537 0.0
C649 C 0.59447 0.16854 0.82703 0.0
H650 H 0.56953 0.17229 0.78593 0.0
H651 H 0.65064 0.20794 0.80206 0.0
C652 C 0.65994 0.25678 0.71729 0.0
N653 N 0.69913 0.29491 0.69489 0.0
C654 C 0.66389 0.28212 0.71668 0.0
C655 C 0.6757 0.25075 0.70634 0.0
C656 C 0.68387 0.30114 0.70531 0.0
C657 C 0.69547 0.27032 0.69516 0.0
C658 C 0.56878 0.19572 0.74829 0.0
C659 C 0.55519 0.18559 0.73181 0.0
C660 C 0.55788 0.20443 0.76158 0.0
C661 C 0.53106 0.18467 0.72879 0.0
C662 C 0.53373 0.20321 0.75804 0.0
N663 N 0.52094 0.19346 0.74185 0.0
C664 C 0.60614 0.15172 0.71765 0.0
C665 C 0.60691 0.18576 0.70013 0.0
C666 C 0.59529 0.13424 0.7029 0.0
N667 N 0.61145 0.17683 0.71598 0.0
C668 C 0.59579 0.16896 0.68521 0.0
C669 C 0.58951 0.14276 0.68657 0.0
H670 H 0.60981 0.14515 0.73051 0.0
H671 H 0.61115 0.20578 0.69929 0.0
C672 C 0.60467 0.276 0.75501 0.0
N673 N 0.60226 0.25742 0.74301 0.0
C674 C 0.59655 0.2935 0.75 0.0
C675 C 0.5832 0.27202 0.72055 0.0
C676 C 0.59159 0.25497 0.72612 0.0
C677 C 0.58606 0.29191 0.73245 0.0
H678 H 0.61369 0.27779 0.76822 0.0
H679 H 0.59053 0.24036 0.71675 0.0
O680 O 0.64631 0.2005 0.75544 0.0
O681 O 0.64098 0.2477 0.76965 0.0
O682 O 0.64071 0.23798 0.72852 0.0
O683 O 0.59273 0.19733 0.75134 0.0
H684 H 0.67297 0.19358 0.78187 0.0
H685 H 0.6638 0.19399 0.72355 0.0
H686 H 0.70834 0.18281 0.77705 0.0
H687 H 0.69932 0.18325 0.71973 0.0
H688 H 0.61164 0.25465 0.82579 0.0
H689 H 0.68602 0.2633 0.78797 0.0
H690 H 0.60435 0.24474 0.79265 0.0
H691 H 0.69193 0.27315 0.82112 0.0
H692 H 0.76068 0.27767 0.75387 0.0
H693 H 0.73098 0.33111 0.75431 0.0
H694 H 0.55414 0.15171 0.81627 0.0
H695 H 0.63713 0.18831 0.83277 0.0
H696 H 0.65191 0.28716 0.72507 0.0
H697 H 0.67272 0.23119 0.70648 0.0
H698 H 0.68728 0.32088 0.70481 0.0
H699 H 0.7079 0.26595 0.68667 0.0
H700 H 0.56319 0.17858 0.72142 0.0
H701 H 0.56812 0.21229 0.77441 0.0
H702 H 0.52039 0.17699 0.71606 0.0
H703 H 0.52518 0.21007 0.76815 0.0
H704 H 0.59064 0.11413 0.70442 0.0
H705 H 0.59193 0.17633 0.67277 0.0
H706 H 0.59889 0.3084 0.75964 0.0
H707 H 0.57565 0.27035 0.7068 0.0
Li708 Li 0.42883 0.60386 0.92733 0.0
Li709 Li 0.4266 0.63882 0.91152 0.0
Li710 Li 0.38768 0.59214 0.91195 0.0
Li711 Li 0.42721 0.60442 0.89308 0.0
C712 C 0.40473 0.62045 0.95075 0.0
N713 N 0.40617 0.62704 0.9882 0.0
C714 C 0.42073 0.64551 0.95838 0.0
C715 C 0.38913 0.59881 0.96215 0.0
C716 C 0.42124 0.64842 0.97735 0.0
C717 C 0.39025 0.60252 0.98105 0.0
C718 C 0.47987 0.65327 0.90644 0.0
C719 C 0.51 0.68783 0.88577 0.0
N720 N 0.52838 0.69901 0.8994 0.0
C721 C 0.49918 0.66494 0.92019 0.0
C722 C 0.48543 0.66466 0.88904 0.0
C723 C 0.52353 0.68811 0.91638 0.0
C724 C 0.43407 0.57089 0.95258 0.0
N725 N 0.4422 0.59636 0.94862 0.0
C726 C 0.46294 0.61053 0.97785 0.0
C727 C 0.45704 0.61617 0.96061 0.0
C728 C 0.45374 0.58426 0.98265 0.0
C729 C 0.43974 0.56436 0.96961 0.0
H730 H 0.42232 0.55552 0.94279 0.0
H731 H 0.46317 0.63624 0.95713 0.0
C732 C 0.41073 0.67444 0.90859 0.0
N733 N 0.43303 0.67352 0.91236 0.0
C734 C 0.41103 0.69794 0.91039 0.0
C735 C 0.45745 0.71937 0.91979 0.0
C736 C 0.45626 0.69536 0.91775 0.0
C737 C 0.43445 0.72071 0.91638 0.0
H738 H 0.39242 0.65663 0.90461 0.0
H739 H 0.47351 0.69402 0.92115 0.0
C740 C 0.38795 0.54773 0.90964 0.0
N741 N 0.34682 0.49549 0.9085 0.0
C742 C 0.38388 0.53269 0.89394 0.0
C743 C 0.37137 0.53606 0.92486 0.0
C744 C 0.36291 0.50635 0.8936 0.0
C745 C 0.35061 0.50966 0.92399 0.0
C746 C 0.39951 0.62544 0.87463 0.0
C747 C 0.37657 0.60931 0.86426 0.0
C748 C 0.41911 0.65004 0.86775 0.0
C749 C 0.37398 0.61776 0.84698 0.0
C750 C 0.41578 0.65781 0.85042 0.0
N751 N 0.3935 0.64162 0.84046 0.0
C752 C 0.33823 0.58232 0.92395 0.0
C753 C 0.33529 0.55541 0.89903 0.0
C754 C 0.31122 0.57415 0.92217 0.0
N755 N 0.34979 0.57342 0.91216 0.0
C756 C 0.30815 0.5466 0.89679 0.0
C757 C 0.29606 0.55681 0.90801 0.0
H758 H 0.35039 0.59716 0.93395 0.0
H759 H 0.34515 0.54919 0.88953 0.0
C760 C 0.4635 0.60551 0.86614 0.0
N761 N 0.43754 0.59723 0.87026 0.0
C762 C 0.47026 0.60104 0.84873 0.0
C763 C 0.42334 0.57883 0.84048 0.0
C764 C 0.41754 0.58373 0.85797 0.0
C765 C 0.45003 0.58779 0.83557 0.0
H766 H 0.47898 0.61581 0.87628 0.0
H767 H 0.39699 0.57662 0.86182 0.0
O768 O 0.40434 0.61713 0.93221 0.0
O769 O 0.45589 0.63059 0.90996 0.0
O770 O 0.40829 0.57362 0.91019 0.0
O771 O 0.40231 0.61746 0.89161 0.0
H772 H 0.43289 0.66249 0.94979 0.0
H773 H 0.37636 0.57935 0.95648 0.0
H774 H 0.4337 0.66767 0.98345 0.0
H775 H 0.37845 0.58591 0.99004 0.0
H776 H 0.51451 0.69687 0.87237 0.0
H777 H 0.49545 0.65623 0.93365 0.0
H778 H 0.47107 0.65557 0.8781 0.0
H779 H 0.53859 0.69741 0.92693 0.0
H780 H 0.47408 0.62646 0.98745 0.0
H781 H 0.43219 0.54385 0.97283 0.0
H782 H 0.39295 0.69815 0.90742 0.0
H783 H 0.4758 0.73639 0.92471 0.0
H784 H 0.39682 0.54119 0.88217 0.0
H785 H 0.37441 0.5473 0.93718 0.0
H786 H 0.35947 0.49452 0.88151 0.0
H787 H 0.33752 0.50046 0.93563 0.0
H788 H 0.36102 0.59035 0.86941 0.0
H789 H 0.43655 0.6632 0.87577 0.0
H790 H 0.35644 0.60535 0.83876 0.0
H791 H 0.43086 0.67678 0.84493 0.0
H792 H 0.3029 0.58286 0.93094 0.0
H793 H 0.29711 0.53301 0.88581 0.0
H794 H 0.4911 0.60829 0.84552 0.0
H795 H 0.40703 0.56791 0.83095 0.0
Li796 Li 0.7835 0.38898 0.07726 0.0
Li797 Li 0.82065 0.38891 0.0939 0.0
Li798 Li 0.81747 0.38774 0.05945 0.0
Li799 Li 0.78667 0.34893 0.07746 0.0
C800 C 0.82317 0.43938 0.07785 0.0
N801 N 0.82272 0.48558 0.08075 0.0
C802 C 0.83222 0.45441 0.09382 0.0
C803 C 0.81422 0.44801 0.06327 0.0
C804 C 0.83176 0.47768 0.09504 0.0
C805 C 0.81404 0.47137 0.06502 0.0
C806 C 0.76404 0.35278 0.11174 0.0
C807 C 0.75315 0.32791 0.13982 0.0
N808 N 0.72764 0.32295 0.13885 0.0
C809 C 0.73779 0.3477 0.11115 0.0
C810 C 0.77186 0.34303 0.1263 0.0
C811 C 0.71966 0.33248 0.12492 0.0
C812 C 0.73645 0.38716 0.06715 0.0
N813 N 0.7578 0.39932 0.07864 0.0
C814 C 0.73838 0.42087 0.09413 0.0
C815 C 0.75913 0.41586 0.09202 0.0
C816 C 0.71584 0.40808 0.08272 0.0
C817 C 0.71504 0.39119 0.06902 0.0
H818 H 0.73557 0.37354 0.05698 0.0
H819 H 0.77583 0.42446 0.1014 0.0
C820 C 0.86615 0.4034 0.11672 0.0
N821 N 0.84177 0.40109 0.11537 0.0
C822 C 0.88034 0.41146 0.13317 0.0
C823 C 0.84424 0.41497 0.14632 0.0
C824 C 0.83074 0.40676 0.12969 0.0
C825 C 0.86934 0.41731 0.14826 0.0
H826 H 0.87447 0.39882 0.10507 0.0
H827 H 0.81129 0.40471 0.12818 0.0
C828 C 0.77331 0.36057 0.03887 0.0
N829 N 0.76533 0.35236 0.00166 0.0
C830 C 0.76782 0.33667 0.03123 0.0
C831 C 0.77438 0.38015 0.02762 0.0
C832 C 0.76391 0.33293 0.01238 0.0
C833 C 0.77041 0.37567 0.00884 0.0
C834 C 0.83706 0.35169 0.08057 0.0
C835 C 0.85241 0.34746 0.0679 0.0
C836 C 0.83251 0.34037 0.09794 0.0
C837 C 0.8629 0.33184 0.07283 0.0
C838 C 0.84336 0.3249 0.10237 0.0
N839 N 0.85819 0.32098 0.08982 0.0
C840 C 0.84968 0.4239 0.03156 0.0
C841 C 0.83491 0.37908 0.02581 0.0
C842 C 0.86123 0.43107 0.01417 0.0
N843 N 0.83653 0.39822 0.03689 0.0
C844 C 0.84571 0.38526 0.0082 0.0
C845 C 0.8589 0.41156 0.00204 0.0
H846 H 0.85088 0.43877 0.04072 0.0
H847 H 0.82443 0.35882 0.03045 0.0
C848 C 0.73829 0.3016 0.08036 0.0
N849 N 0.76485 0.3115 0.07732 0.0
C850 C 0.7198 0.27474 0.07833 0.0
C851 C 0.75622 0.26861 0.06963 0.0
C852 C 0.77412 0.29562 0.07213 0.0
C853 C 0.72866 0.258 0.07257 0.0
H854 H 0.73125 0.31478 0.08345 0.0
H855 H 0.79512 0.30398 0.06905 0.0
O856 O 0.82329 0.41645 0.07645 0.0
O857 O 0.78214 0.36788 0.09844 0.0
O858 O 0.77762 0.36478 0.05725 0.0
O859 O 0.82652 0.36678 0.07589 0.0
H860 H 0.83948 0.44818 0.10516 0.0
H861 H 0.80732 0.43671 0.05078 0.0
H862 H 0.83859 0.48945 0.10735 0.0
H863 H 0.80699 0.47818 0.05389 0.0
H864 H 0.75894 0.32019 0.15114 0.0
H865 H 0.73134 0.35516 0.10007 0.0
H866 H 0.7922 0.34726 0.1273 0.0
H867 H 0.69924 0.32824 0.12454 0.0
H868 H 0.73941 0.43371 0.10504 0.0
H869 H 0.69789 0.38096 0.06002 0.0
H870 H 0.89978 0.41327 0.13404 0.0
H871 H 0.83486 0.41896 0.15763 0.0
H872 H 0.76685 0.32128 0.03971 0.0
H873 H 0.77837 0.39865 0.03333 0.0
H874 H 0.75983 0.31461 0.00627 0.0
H875 H 0.77139 0.39072 -4e-05 0.0
H876 H 0.85616 0.35613 0.05439 0.0
H877 H 0.82071 0.34346 0.10787 0.0
H878 H 0.87478 0.32837 0.06316 0.0
H879 H 0.83997 0.31599 0.11577 0.0
H880 H 0.87175 0.45168 0.01028 0.0
H881 H 0.84299 0.36941 -0.00061 0.0
H882 H 0.69863 0.26741 0.08024 0.0
H883 H 0.76372 0.25628 0.06499 0.0
Li884 Li 0.47644 0.81846 0.26979 0.0
Li885 Li 0.4397 0.78958 0.24912 0.0
Li886 Li 0.48337 0.79083 0.24921 0.0
Li887 Li 0.48101 0.82747 0.23596 0.0
C888 C 0.45031 0.77081 0.28632 0.0
N889 N 0.43902 0.75431 0.32227 0.0
C890 C 0.42411 0.75938 0.29302 0.0
C891 C 0.4707 0.77353 0.29783 0.0
C892 C 0.41882 0.75124 0.31126 0.0
C893 C 0.46461 0.76517 0.31598 0.0
C894 C 0.43851 0.83734 0.25112 0.0
C895 C 0.41428 0.85011 0.23116 0.0
N896 N 0.40504 0.85687 0.24598 0.0
C897 C 0.42902 0.84473 0.26613 0.0
C898 C 0.43128 0.84029 0.23347 0.0
C899 C 0.41203 0.85443 0.26326 0.0
C900 C 0.50799 0.85237 0.29883 0.0
N901 N 0.48279 0.83396 0.29337 0.0
C902 C 0.46429 0.83804 0.32144 0.0
C903 C 0.46113 0.8267 0.30425 0.0
C904 C 0.48998 0.85757 0.3274 0.0
C905 C 0.51207 0.86455 0.31587 0.0
H906 H 0.52484 0.85797 0.2898 0.0
H907 H 0.44127 0.81231 0.29946 0.0
C908 C 0.39386 0.74241 0.23945 0.0
N909 N 0.40211 0.76635 0.24702 0.0
C910 C 0.36662 0.72312 0.23887 0.0
C911 C 0.35684 0.75369 0.25361 0.0
C912 C 0.38429 0.77233 0.25399 0.0
C913 C 0.34775 0.72858 0.24621 0.0
H914 H 0.40857 0.73813 0.23425 0.0
H915 H 0.39133 0.79116 0.26042 0.0
C916 C 0.53268 0.83189 0.25219 0.0
N917 N 0.58185 0.8358 0.24908 0.0
C918 C 0.5479 0.84203 0.23623 0.0
C919 C 0.5426 0.82406 0.26666 0.0
C920 C 0.57269 0.84377 0.2349 0.0
C921 C 0.56746 0.82609 0.26479 0.0
C922 C 0.45263 0.78425 0.21057 0.0
C923 C 0.46474 0.77563 0.19818 0.0
C924 C 0.43091 0.78632 0.20492 0.0
C925 C 0.45533 0.76983 0.18023 0.0
C926 C 0.42206 0.78031 0.18686 0.0
N927 N 0.43438 0.7723 0.17498 0.0
C928 C 0.48727 0.74636 0.25611 0.0
C929 C 0.5137 0.77252 0.23116 0.0
C930 C 0.49294 0.72683 0.25182 0.0
N931 N 0.49726 0.76841 0.2456 0.0
C932 C 0.51989 0.7535 0.22637 0.0
C933 C 0.50885 0.72994 0.23647 0.0
H934 H 0.47373 0.74325 0.26724 0.0
H935 H 0.52089 0.78994 0.22278 0.0
C936 C 0.49579 0.87709 0.22078 0.0
N937 N 0.49407 0.85374 0.21736 0.0
C938 C 0.50282 0.89563 0.2068 0.0
C939 C 0.50746 0.86625 0.18635 0.0
C940 C 0.50044 0.84837 0.20071 0.0
C941 C 0.50827 0.89009 0.18919 0.0
H942 H 0.49103 0.88103 0.23425 0.0
H943 H 0.49965 0.83001 0.19848 0.0
O944 O 0.45591 0.7791 0.26855 0.0
O945 O 0.45523 0.82784 0.25373 0.0
O946 O 0.50828 0.82981 0.25368 0.0
O947 O 0.4616 0.78993 0.22823 0.0
H948 H 0.40806 0.757 0.28428 0.0
H949 H 0.49101 0.78211 0.29281 0.0
H950 H 0.39867 0.74251 0.31666 0.0
H951 H 0.48022 0.76731 0.32507 0.0
H952 H 0.40853 0.85246 0.21757 0.0
H953 H 0.43462 0.84291 0.27988 0.0
H954 H 0.43899 0.83545 0.22165 0.0
H955 H 0.40442 0.86006 0.27477 0.0
H956 H 0.44669 0.83163 0.3299 0.0
H957 H 0.5322 0.87976 0.31971 0.0
H958 H 0.36041 0.70404 0.23299 0.0
H959 H 0.34298 0.7585 0.25974 0.0
H960 H 0.54058 0.84831 0.22495 0.0
H961 H 0.5312 0.81647 0.27917 0.0
H962 H 0.58462 0.85143 0.22259 0.0
H963 H 0.57532 0.81997 0.27584 0.0
H964 H 0.48136 0.7736 0.20231 0.0
H965 H 0.4207 0.79211 0.2144 0.0
H966 H 0.46467 0.76334 0.17047 0.0
H967 H 0.4053 0.78189 0.18232 0.0
H968 H 0.48366 0.70884 0.25982 0.0
H969 H 0.53245 0.75682 0.21453 0.0
H970 H 0.50366 0.91395 0.20971 0.0
H971 H 0.51129 0.86097 0.17301 0.0
H972 H 0.19029 0.58382 0.25788 0.0
H973 H 0.18314 0.64759 0.27963 0.0
H974 H 0.2359 0.61562 0.24755 0.0
H975 H 0.22857 0.67921 0.26957 0.0
H976 H 0.30427 0.73291 0.23871 0.0
H977 H 0.25696 0.6996 0.24336 0.0
H978 H 0.27918 0.64413 0.26142 0.0
H979 H 0.3263 0.67728 0.25651 0.0
C980 C 0.19846 0.60462 0.26041 0.0
C981 C 0.18315 0.61323 0.26952 0.0
C982 C 0.22455 0.62282 0.25452 0.0
C983 C 0.23588 0.64996 0.25772 0.0
C984 C 0.22031 0.65852 0.26654 0.0
C985 C 0.19426 0.64038 0.27235 0.0
C986 C 0.29897 0.71353 0.24355 0.0
C987 C 0.31896 0.70773 0.24733 0.0
C988 C 0.27191 0.69446 0.24624 0.0
C989 C 0.26429 0.66925 0.25289 0.0
C990 C 0.28429 0.66321 0.25605 0.0
C991 C 0.31132 0.68223 0.25326 0.0
H992 H 0.53708 0.16875 0.46046 0.0
H993 H 0.61581 0.18541 0.44453 0.0
H994 H 0.54919 0.21306 0.45117 0.0
H995 H 0.62825 0.2301 0.4358 0.0
H996 H 0.63198 0.29933 0.40543 0.0
H997 H 0.61806 0.25385 0.41287 0.0
H998 H 0.57892 0.25826 0.46177 0.0
H999 H 0.59287 0.30369 0.45438 0.0
C1000 C 0.55692 0.18183 0.45485 0.0
C1001 C 0.57548 0.17356 0.45318 0.0
C1002 C 0.56396 0.20731 0.44972 0.0
C1003 C 0.5897 0.22511 0.4428 0.0
C1004 C 0.60817 0.21676 0.44092 0.0
C1005 C 0.60115 0.19127 0.4461 0.0
C1006 C 0.62047 0.2906 0.4178 0.0
C1007 C 0.61356 0.30513 0.42933 0.0
C1008 C 0.61252 0.26457 0.42206 0.0
C1009 C 0.59744 0.25248 0.43793 0.0
C1010 C 0.59019 0.26688 0.44931 0.0
C1011 C 0.59816 0.29291 0.44506 0.0
H1012 H 0.40839 0.52585 0.64305 0.0
H1013 H 0.46721 0.58038 0.60433 0.0
H1014 H 0.37708 0.53884 0.63315 0.0
H1015 H 0.43583 0.59366 0.59459 0.0
H1016 H 0.3807 0.62869 0.59754 0.0
H1017 H 0.41314 0.61656 0.6065 0.0
H1018 H 0.35059 0.53423 0.60551 0.0
H1019 H 0.31818 0.54626 0.59628 0.0
C1020 C 0.4146 0.5405 0.63233 0.0
C1021 C 0.44024 0.55188 0.62435 0.0
C1022 C 0.39663 0.54795 0.62668 0.0
C1023 C 0.40388 0.56709 0.61297 0.0
C1024 C 0.42973 0.57896 0.60526 0.0
C1025 C 0.44772 0.5714 0.61087 0.0
C1026 C 0.37391 0.60796 0.59895 0.0
C1027 C 0.34677 0.58844 0.5962 0.0
C1028 C 0.39252 0.60104 0.60413 0.0
C1029 C 0.3844 0.57446 0.60679 0.0
C1030 C 0.35737 0.55493 0.60385 0.0
C1031 C 0.33879 0.56182 0.59858 0.0
H1032 H 0.91318 0.40047 0.79021 0.0
H1033 H 0.89665 0.4605 0.77318 0.0
H1034 H 0.86956 0.36647 0.77891 0.0
H1035 H 0.85224 0.42601 0.76276 0.0
H1036 H 0.76544 0.35193 0.77515 0.0
H1037 H 0.81069 0.38844 0.78103 0.0
H1038 H 0.84299 0.35134 0.74776 0.0
H1039 H 0.79753 0.31519 0.74095 0.0
C1040 C 0.90055 0.40656 0.78379 0.0
C1041 C 0.90867 0.43341 0.78258 0.0
C1042 C 0.87546 0.38697 0.7774 0.0
C1043 C 0.85765 0.39368 0.76996 0.0
C1044 C 0.86565 0.42039 0.76854 0.0
C1045 C 0.891 0.44008 0.77464 0.0
C1046 C 0.78201 0.35173 0.76862 0.0
C1047 C 0.77765 0.33047 0.7575 0.0
C1048 C 0.80797 0.37268 0.77209 0.0
C1049 C 0.83022 0.37266 0.76482 0.0
C1050 C 0.82607 0.35168 0.75359 0.0
C1051 C 0.80004 0.3309 0.74983 0.0
H1052 H 0.42613 0.84344 0.9725 0.0
H1053 H 0.45975 0.87924 0.92015 0.0
H1054 H 0.41937 0.80166 0.96154 0.0
H1055 H 0.45299 0.83734 0.90915 0.0
H1056 H 0.47371 0.7716 0.90846 0.0
H1057 H 0.47432 0.8119 0.91625 0.0
H1058 H 0.39514 0.76537 0.94 0.0
H1059 H 0.39493 0.72518 0.93283 0.0
C1060 C 0.4314 0.84219 0.95849 0.0
C1061 C 0.44359 0.86463 0.94721 0.0
C1062 C 0.4276 0.81826 0.95222 0.0
C1063 C 0.43591 0.8163 0.93454 0.0
C1064 C 0.44685 0.8384 0.92295 0.0
C1065 C 0.45063 0.86233 0.92922 0.0
C1066 C 0.45647 0.77001 0.91536 0.0
C1067 C 0.43432 0.74522 0.92006 0.0
C1068 C 0.45666 0.79306 0.91962 0.0
C1069 C 0.43474 0.79179 0.92872 0.0
C1070 C 0.4124 0.76698 0.9331 0.0
C1071 C 0.41219 0.74396 0.92883 0.0
H1072 H 0.59744 0.45527 0.08485 0.0
H1073 H 0.58248 0.40732 0.13309 0.0
H1074 H 0.63137 0.44556 0.0749 0.0
H1075 H 0.61553 0.39673 0.12256 0.0
H1076 H 0.66369 0.3693 0.0877 0.0
H1077 H 0.62544 0.37453 0.09432 0.0
H1078 H 0.67766 0.45915 0.0911 0.0
H1079 H 0.71595 0.45393 0.0848 0.0
C1080 C 0.60112 0.44244 0.09323 0.0
C1081 C 0.58747 0.4324 0.10992 0.0
C1082 C 0.62045 0.43682 0.08747 0.0
C1083 C 0.62611 0.42061 0.09806 0.0
C1084 C 0.61136 0.40918 0.11412 0.0
C1085 C 0.59232 0.41515 0.12007 0.0
C1086 C 0.66685 0.38897 0.08826 0.0
C1087 C 0.69264 0.41125 0.08575 0.0
C1088 C 0.64508 0.39193 0.0921 0.0
C1089 C 0.6487 0.4172 0.09312 0.0
C1090 C 0.67438 0.43945 0.0902 0.0
C1091 C 0.69623 0.43651 0.08672 0.0
H1092 H 0.46349 0.89586 0.50934 0.0
H1093 H 0.43121 0.92763 0.5478 0.0
H1094 H 0.43133 0.85135 0.52017 0.0
H1095 H 0.39894 0.88316 0.55843 0.0
H1096 H 0.32492 0.79893 0.555 0.0
H1097 H 0.35894 0.84367 0.54575 0.0
H1098 H 0.4195 0.82253 0.54749 0.0
H1099 H 0.38536 0.77761 0.55633 0.0
C1100 C 0.4498 0.89339 0.52027 0.0
C1101 C 0.4498 0.91529 0.52761 0.0
C1102 C 0.43135 0.86789 0.52644 0.0
C1103 C 0.41247 0.86375 0.54005 0.0
C1104 C 0.41291 0.88568 0.5477 0.0
C1105 C 0.4314 0.91115 0.54159 0.0
C1106 C 0.34547 0.80382 0.55334 0.0
C1107 C 0.35245 0.78475 0.5564 0.0
C1108 C 0.365 0.8295 0.54822 0.0
C1109 C 0.39191 0.83662 0.54592 0.0
C1110 C 0.39891 0.81758 0.54902 0.0
C1111 C 0.3794 0.79194 0.55426 0.0
H1112 H 0.51362 0.38099 0.69593 0.0
H1113 H 0.59824 0.43092 0.68407 0.0
H1114 H 0.52172 0.34817 0.70938 0.0
H1115 H 0.60637 0.39802 0.69746 0.0
H1116 H 0.61487 0.34512 0.73836 0.0
H1117 H 0.60573 0.37817 0.72675 0.0
H1118 H 0.53455 0.31695 0.69982 0.0
H1119 H 0.54312 0.28377 0.71204 0.0
C1120 C 0.53393 0.38484 0.69606 0.0
C1121 C 0.55528 0.40847 0.68886 0.0
C1122 C 0.53857 0.36605 0.70378 0.0
C1123 C 0.56467 0.37046 0.70446 0.0
C1124 C 0.58607 0.39419 0.69738 0.0
C1125 C 0.58143 0.41302 0.68968 0.0
C1126 C 0.59701 0.33866 0.73023 0.0
C1127 C 0.57968 0.31181 0.72614 0.0
C1128 C 0.59198 0.35764 0.72338 0.0
C1129 C 0.56951 0.35021 0.71228 0.0
C1130 C 0.55192 0.32331 0.70845 0.0
C1131 C 0.55696 0.30432 0.7153 0.0
H1132 H 0.12972 0.51814 0.90017 0.0
H1133 H 0.1745 0.57834 0.85956 0.0
H1134 H 0.17084 0.52022 0.90971 0.0
H1135 H 0.21573 0.58129 0.86964 0.0
H1136 H 0.27581 0.5555 0.87424 0.0
H1137 H 0.23397 0.55293 0.86679 0.0
H1138 H 0.2144 0.54753 0.92424 0.0
H1139 H 0.2559 0.54886 0.93171 0.0
C1140 C 0.14841 0.53207 0.89346 0.0
C1141 C 0.14884 0.54791 0.879 0.0
C1142 C 0.17198 0.5334 0.89902 0.0
C1143 C 0.19645 0.55064 0.89025 0.0
C1144 C 0.19707 0.5674 0.87641 0.0
C1145 C 0.17352 0.56602 0.87082 0.0
C1146 C 0.26233 0.55311 0.88529 0.0
C1147 C 0.26918 0.5523 0.90358 0.0
C1148 C 0.23856 0.55214 0.88103 0.0
C1149 C 0.22109 0.55048 0.89494 0.0
C1150 C 0.22745 0.5488 0.91321 0.0
C1151 C 0.25127 0.54971 0.91749 0.0
H1152 H 0.57658 0.11564 0.05313 0.0
H1153 H 0.63251 0.10261 0.02294 0.0
H1154 H 0.61371 0.15731 0.06427 0.0
H1155 H 0.66966 0.14306 0.03527 0.0
H1156 H 0.72582 0.23222 0.04121 0.0
H1157 H 0.69009 0.18868 0.03167 0.0
H1158 H 0.65096 0.17754 0.08404 0.0
H1159 H 0.68636 0.22173 0.09319 0.0
C1160 C 0.59677 0.12154 0.04894 0.0
C1161 C 0.60143 0.10571 0.03705 0.0
C1162 C 0.61816 0.14527 0.0556 0.0
C1163 C 0.64478 0.15363 0.05071 0.0
C1164 C 0.64945 0.13751 0.03913 0.0
C1165 C 0.62807 0.11401 0.03228 0.0
C1166 C 0.7098 0.22024 0.05077 0.0
C1167 C 0.70881 0.23026 0.06792 0.0
C1168 C 0.68929 0.19523 0.04533 0.0
C1169 C 0.66748 0.17953 0.05704 0.0
C1170 C 0.66711 0.18926 0.07451 0.0
C1171 C 0.68746 0.21445 0.07983 0.0
H1172 H 0.48003 0.58888 0.18106 0.0
H1173 H 0.54496 0.60586 0.21783 0.0
H1174 H 0.47945 0.62709 0.19265 0.0
H1175 H 0.54501 0.64466 0.22897 0.0
H1176 H 0.51724 0.69625 0.25711 0.0
H1177 H 0.51786 0.65746 0.24668 0.0
H1178 H 0.50797 0.67498 0.19097 0.0
H1179 H 0.50635 0.71306 0.20142 0.0
C1180 C 0.49405 0.60066 0.19171 0.0
C1181 C 0.51257 0.59436 0.1985 0.0
C1182 C 0.49395 0.62276 0.19819 0.0
C1183 C 0.51235 0.63906 0.21161 0.0
C1184 C 0.5305 0.63245 0.21868 0.0
C1185 C 0.53063 0.61036 0.21218 0.0
C1186 C 0.51519 0.69179 0.24264 0.0
C1187 C 0.51176 0.70776 0.23011 0.0
C1188 C 0.51575 0.66968 0.23665 0.0
C1189 C 0.51277 0.66304 0.21801 0.0
C1190 C 0.50991 0.67933 0.20545 0.0
C1191 C 0.5094 0.70141 0.21143 0.0
H1192 H 0.95496 0.5257 0.38433 0.0
H1193 H 0.9088 0.46812 0.34279 0.0
H1194 H 0.91367 0.51906 0.39796 0.0
H1195 H 0.86747 0.46175 0.35617 0.0
H1196 H 0.79633 0.44114 0.39239 0.0
H1197 H 0.83788 0.44501 0.38201 0.0
H1198 H 0.87983 0.52922 0.39094 0.0
H1199 H 0.83851 0.52514 0.40228 0.0
C1200 C 0.93593 0.51159 0.37814 0.0
C1201 C 0.93508 0.49751 0.36245 0.0
C1202 C 0.91229 0.50786 0.38589 0.0
C1203 C 0.88724 0.49005 0.37809 0.0
C1204 C 0.88638 0.4754 0.36269 0.0
C1205 C 0.91004 0.47903 0.35499 0.0
C1206 C 0.81451 0.46043 0.39251 0.0
C1207 C 0.81406 0.48283 0.39826 0.0
C1208 C 0.83828 0.46268 0.3863 0.0
C1209 C 0.86221 0.48742 0.38556 0.0
C1210 C 0.86185 0.5098 0.39152 0.0
C1211 C 0.83808 0.50752 0.39781 0.0
H1212 H 0.11525 0.59637 0.40365 0.0
H1213 H 0.06356 0.51528 0.42093 0.0
H1214 H 0.13773 0.60687 0.43307 0.0
H1215 H 0.08743 0.5258 0.45005 0.0
H1216 H 0.16754 0.55597 0.48532 0.0
H1217 H 0.13916 0.54302 0.4582 0.0
H1218 H 0.12391 0.60575 0.46801 0.0
H1219 H 0.15098 0.61799 0.49566 0.0
C1220 C 0.10828 0.58083 0.41376 0.0
C1221 C 0.08735 0.55494 0.40981 0.0
C1222 C 0.1214 0.58687 0.43058 0.0
C1223 C 0.11432 0.56712 0.44374 0.0
C1224 C 0.09336 0.54132 0.44001 0.0
C1225 C 0.07981 0.53533 0.4233 0.0
C1226 C 0.15771 0.5667 0.482 0.0
C1227 C 0.16185 0.58823 0.49271 0.0
C1228 C 0.14154 0.55929 0.46641 0.0
C1229 C 0.12951 0.57348 0.46105 0.0
C1230 C 0.13322 0.59468 0.4718 0.0
C1231 C 0.14895 0.60179 0.48755 0.0
H1232 H 0.52807 0.09292 0.57914 0.0
H1233 H 0.53419 0.02694 0.59726 0.0
H1234 H 0.54098 0.1125 0.60926 0.0
H1235 H 0.54694 0.04652 0.62778 0.0
H1236 H 0.60353 0.1099 0.67055 0.0
H1237 H 0.58475 0.08386 0.64269 0.0
H1238 H 0.52654 0.1081 0.64024 0.0
H1239 H 0.54584 0.13457 0.66765 0.0
C1240 C 0.5315 0.08223 0.58973 0.0
C1241 C 0.52983 0.05823 0.58587 0.0
C1242 C 0.53895 0.09349 0.60705 0.0
C1243 C 0.54487 0.08103 0.62102 0.0
C1244 C 0.54276 0.05676 0.61728 0.0
C1245 C 0.53537 0.0455 0.59985 0.0
C1246 C 0.5865 0.1093 0.66413 0.0
C1247 C 0.57639 0.12453 0.67103 0.0
C1248 C 0.57566 0.09434 0.64823 0.0
C1249 C 0.55435 0.09417 0.63907 0.0
C1250 C 0.54336 0.1083 0.64666 0.0
C1251 C 0.55435 0.1234 0.66238 0.0
H1252 H 0.52232 0.57139 0.73595 0.0
H1253 H 0.43713 0.53017 0.72517 0.0
H1254 H 0.51484 0.58509 0.76565 0.0
H1255 H 0.42955 0.54325 0.75518 0.0
H1256 H 0.42917 0.59216 0.80328 0.0
H1257 H 0.43812 0.58246 0.77261 0.0
H1258 H 0.49446 0.56322 0.79485 0.0
H1259 H 0.48542 0.57277 0.82555 0.0
C1260 C 0.50202 0.56553 0.73984 0.0
C1261 C 0.4803 0.54978 0.72821 0.0
C1262 C 0.49772 0.57311 0.75694 0.0
C1263 C 0.47161 0.56514 0.76278 0.0
C1264 C 0.44993 0.54987 0.75099 0.0
C1265 C 0.45422 0.54221 0.73389 0.0
C1266 C 0.44337 0.58573 0.80163 0.0
C1267 C 0.45648 0.58309 0.81686 0.0
C1268 C 0.4485 0.58021 0.78407 0.0
C1269 C 0.46692 0.57201 0.78133 0.0
C1270 C 0.4804 0.56983 0.79651 0.0
C1271 C 0.47524 0.57531 0.81409 0.0
H1272 H 0.95328 0.44409 0.90271 0.0
H1273 H 0.89439 0.46406 0.88796 0.0
H1274 H 0.93335 0.43067 0.93292 0.0
H1275 H 0.87321 0.44923 0.91799 0.0
H1276 H 0.86105 0.44963 0.97941 0.0
H1277 H 0.87953 0.46148 0.94877 0.0
H1278 H 0.89739 0.39929 0.95011 0.0
H1279 H 0.88118 0.38905 0.98132 0.0
C1280 C 0.93555 0.44491 0.90583 0.0
C1281 C 0.92518 0.45486 0.89299 0.0
C1282 C 0.92403 0.43714 0.92316 0.0
C1283 C 0.90153 0.43874 0.92801 0.0
C1284 C 0.89078 0.44813 0.91492 0.0
C1285 C 0.90267 0.45637 0.89765 0.0
C1286 C 0.86937 0.43877 0.97334 0.0
C1287 C 0.86972 0.41846 0.98304 0.0
C1288 C 0.87953 0.44526 0.95554 0.0
C1289 C 0.88997 0.43135 0.94681 0.0
C1290 C 0.88994 0.41077 0.95641 0.0
C1291 C 0.8802 0.40458 0.9743 0.0
H1292 H 0.56043 0.98517 0.08904 0.0
H1293 H 0.47475 0.95086 0.09365 0.0
H1294 H 0.56132 0.96921 0.11965 0.0
H1295 H 0.47541 0.9344 0.12397 0.0
H1296 H 0.48395 0.91817 0.18217 0.0
H1297 H 0.48878 0.94418 0.15511 0.0
H1298 H 0.54733 0.92748 0.13326 0.0
H1299 H 0.54369 0.90284 0.16076 0.0
C1300 C 0.54182 0.97434 0.09667 0.0
C1301 C 0.51751 0.96918 0.08896 0.0
C1302 C 0.54229 0.96512 0.11416 0.0
C1303 C 0.51841 0.95034 0.12426 0.0
C1304 C 0.49426 0.94606 0.11676 0.0
C1305 C 0.49384 0.95545 0.09934 0.0
C1306 C 0.49838 0.92062 0.17182 0.0
C1307 C 0.51326 0.90819 0.1736 0.0
C1308 C 0.50088 0.93526 0.15617 0.0
C1309 C 0.5182 0.9377 0.14188 0.0
C1310 C 0.53394 0.92623 0.14402 0.0
C1311 C 0.53157 0.91175 0.15971 0.0
H1312 H 0.5978 0.54644 0.24964 0.0
H1313 H 0.52921 0.46729 0.25556 0.0
H1314 H 0.61526 0.54184 0.2788 0.0
H1315 H 0.54632 0.46318 0.2849 0.0
H1316 H 0.57837 0.47259 0.34339 0.0
H1317 H 0.55884 0.48247 0.31725 0.0
H1318 H 0.63294 0.51169 0.28729 0.0
H1319 H 0.65242 0.50185 0.31337 0.0
C1320 C 0.58628 0.52821 0.25724 0.0
C1321 C 0.56225 0.50713 0.25014 0.0
C1322 C 0.59625 0.52564 0.27394 0.0
C1323 C 0.58222 0.50209 0.28398 0.0
C1324 C 0.55741 0.48164 0.27748 0.0
C1325 C 0.54758 0.48407 0.26069 0.0
C1326 C 0.59052 0.48138 0.33127 0.0
C1327 C 0.61684 0.48638 0.33031 0.0
C1328 C 0.57933 0.48692 0.31633 0.0
C1329 C 0.59444 0.49792 0.30032 0.0
C1330 C 0.62098 0.50349 0.29956 0.0
C1331 C 0.63201 0.49763 0.31437 0.0
H1332 H 0.47004 0.91385 0.43305 0.0
H1333 H 0.55054 0.97129 0.41512 0.0
H1334 H 0.46438 0.88693 0.40623 0.0
H1335 H 0.54505 0.94389 0.38878 0.0
H1336 H 0.53153 0.87492 0.35192 0.0
H1337 H 0.5376 0.89863 0.38052 0.0
H1338 H 0.46211 0.89414 0.37203 0.0
H1339 H 0.45638 0.8714 0.34323 0.0
C1340 C 0.48656 0.92071 0.42348 0.0
C1341 C 0.51072 0.94483 0.42627 0.0
C1342 C 0.48333 0.90522 0.40818 0.0
C1343 C 0.50428 0.91336 0.39545 0.0
C1344 C 0.5287 0.93698 0.3985 0.0
C1345 C 0.53184 0.95262 0.41367 0.0
C1346 C 0.51632 0.87915 0.35605 0.0
C1347 C 0.49344 0.87116 0.3452 0.0
C1348 C 0.51975 0.8926 0.37248 0.0
C1349 C 0.50024 0.89805 0.37852 0.0
C1350 C 0.47724 0.88978 0.36786 0.0
C1351 C 0.47395 0.87666 0.35135 0.0
H1352 H 0.59916 0.53552 0.57803 0.0
H1353 H 0.53027 0.52 0.54609 0.0
H1354 H 0.62071 0.53163 0.5508 0.0
H1355 H 0.55216 0.51664 0.51852 0.0
H1356 H 0.58268 0.47423 0.48176 0.0
H1357 H 0.56266 0.48529 0.50671 0.0
H1358 H 0.64112 0.55016 0.52184 0.0
H1359 H 0.66121 0.53869 0.49695 0.0
C1360 C 0.58897 0.53208 0.56504 0.0
C1361 C 0.56311 0.52826 0.56413 0.0
C1362 C 0.60134 0.52983 0.54941 0.0
C1363 C 0.58818 0.5238 0.53245 0.0
C1364 C 0.56268 0.52094 0.53143 0.0
C1365 C 0.55019 0.52299 0.54714 0.0
C1366 C 0.59561 0.49111 0.49024 0.0
C1367 C 0.62352 0.50556 0.48745 0.0
C1368 C 0.58412 0.49752 0.50452 0.0
C1369 C 0.60026 0.51863 0.51629 0.0
C1370 C 0.62815 0.53354 0.51318 0.0
C1371 C 0.63967 0.527 0.49895 0.0
H1372 H 0.10141 0.53198 0.74551 0.0
H1373 H 0.05211 0.5622 0.72682 0.0
H1374 H 0.12807 0.54804 0.71774 0.0
H1375 H 0.0799 0.57937 0.69929 0.0
H1376 H 0.16151 0.6329 0.66674 0.0
H1377 H 0.13065 0.61495 0.69269 0.0
H1378 H 0.12 0.53835 0.68301 0.0
H1379 H 0.1498 0.55575 0.65664 0.0
C1380 C 0.0959 0.54165 0.73539 0.0
C1381 C 0.07427 0.54544 0.73839 0.0
C1382 C 0.11138 0.55103 0.71953 0.0
C1383 C 0.10598 0.56486 0.70638 0.0
C1384 C 0.08455 0.56888 0.7093 0.0
C1385 C 0.06871 0.5591 0.72509 0.0
C1386 C 0.15225 0.61212 0.6699 0.0
C1387 C 0.15842 0.59587 0.65961 0.0
C1388 C 0.13463 0.6019 0.68479 0.0
C1389 C 0.12309 0.57533 0.68986 0.0
C1390 C 0.1289 0.559 0.6795 0.0
C1391 C 0.14617 0.56907 0.66447 0.0
H1392 H 0.58865 0.11893 0.93955 0.0
H1393 H 0.50662 0.07207 0.92084 0.0
H1394 H 0.60163 0.14195 0.91029 0.0
H1395 H 0.51922 0.09618 0.89218 0.0
H1396 H 0.55652 0.11767 0.83532 0.0
H1397 H 0.54286 0.09751 0.86544 0.0
H1398 H 0.59884 0.17241 0.89045 0.0
H1399 H 0.61296 0.19234 0.86016 0.0
C1400 C 0.57332 0.11381 0.92931 0.0
C1401 C 0.54662 0.09357 0.93257 0.0
C1402 C 0.5807 0.12721 0.91259 0.0
C1403 C 0.56152 0.12078 0.89878 0.0
C1404 C 0.53463 0.10133 0.90236 0.0
C1405 C 0.5273 0.0878 0.91898 0.0
C1406 C 0.56573 0.12984 0.84727 0.0
C1407 C 0.5858 0.15654 0.84541 0.0
C1408 C 0.55784 0.11835 0.86456 0.0
C1409 C 0.56964 0.13335 0.88043 0.0
C1410 C 0.58959 0.16017 0.87854 0.0
C1411 C 0.59765 0.17161 0.86121 0.0
H1412 H 0.45523 0.50171 0.07979 0.0
H1413 H 0.4893 0.58219 0.09805 0.0
H1414 H 0.44763 0.51391 0.04973 0.0
H1415 H 0.48295 0.59474 0.06756 0.0
H1416 H 0.44559 0.60258 0.01468 0.0
H1417 H 0.44988 0.59015 0.0457 0.0
H1418 H 0.47463 0.53827 0.02396 0.0
H1419 H 0.46987 0.55041 0.99298 0.0
C1420 C 0.4607 0.52195 0.07749 0.0
C1421 C 0.47272 0.54096 0.09137 0.0
C1422 C 0.45678 0.52904 0.06013 0.0
C1423 C 0.46497 0.55536 0.05616 0.0
C1424 C 0.47626 0.57425 0.07019 0.0
C1425 C 0.48009 0.56712 0.08761 0.0
C1426 C 0.4522 0.58872 0.01657 0.0
C1427 C 0.45746 0.57749 0.00144 0.0
C1428 C 0.45463 0.58158 0.03433 0.0
C1429 C 0.46247 0.56313 0.03732 0.0
C1430 C 0.46802 0.55214 0.02214 0.0
C1431 C 0.46543 0.55916 0.0044 0.0
H1432 H 0.91936 0.46944 0.26049 0.0
H1433 H 0.9825 0.46046 0.23761 0.0
H1434 H 0.89475 0.45442 0.23167 0.0
H1435 H 0.95823 0.44579 0.20888 0.0
H1436 H 0.89597 0.39675 0.1656 0.0
H1437 H 0.91873 0.40966 0.19505 0.0
H1438 H 0.89796 0.46946 0.20048 0.0
H1439 H 0.87502 0.45637 0.17112 0.0
C1440 C 0.92792 0.46421 0.24931 0.0
C1441 C 0.95268 0.46583 0.25138 0.0
C1442 C 0.91392 0.45571 0.23279 0.0
C1443 C 0.92449 0.44884 0.21795 0.0
C1444 C 0.94923 0.4504 0.22011 0.0
C1445 C 0.96313 0.45878 0.2366 0.0
C1446 C 0.89647 0.41279 0.17302 0.0
C1447 C 0.88371 0.42555 0.16601 0.0
C1448 C 0.90948 0.42019 0.18991 0.0
C1449 C 0.91014 0.44058 0.20016 0.0
C1450 C 0.89742 0.45336 0.19312 0.0
C1451 C 0.88434 0.44592 0.17626 0.0
loop_
_geom_bond_atom_site_label_1
_geom_bond_atom_site_label_2
_geom_bond_distance
_geom_bond_site_symmetry_2
_ccdc_geom_bond_type
H0 O26 0.856 . S
H1 O29 0.854 . S
H2 C37 0.930 . S
H3 C38 0.930 . S
H4 C40 0.930 . S
H5 C41 0.943 1_455 S
H6 C43 0.931 . S
H7 C44 0.930 . S
H8 C46 0.930 . S
H9 C47 0.929 . S
H10 C49 0.930 . S
H11 C50 0.931 . S
H12 C52 0.930 . S
H13 C53 0.929 . S
H14 C55 0.931 . S
H15 C56 0.930 . S
H16 C58 0.930 . S
H17 C59 0.932 . S
H18 C61 0.930 . S
H19 C62 0.929 . S
H20 C64 0.931 . S
H21 C65 0.930 . S
H22 C67 0.929 . S
H23 C68 0.931 . S
H24 C70 0.930 . S
H25 C71 0.929 . S
O26 H0 0.856 . S
O26 C72 1.300 . S
O27 C72 1.209 . S
O28 C73 1.199 . S
O29 H1 0.854 . S
O29 C73 1.297 . S
C30 C31 1.404 . S
C30 C35 1.397 . S
C30 C36 1.492 . S
C31 C30 1.404 . S
C31 C32 1.396 . S
C31 C42 1.492 . S
C32 C31 1.396 . S
C32 C33 1.397 . S
C32 C48 1.509 . S
C33 C32 1.397 . S
C33 C34 1.412 . S
C33 C54 1.485 . S
C34 C33 1.412 . S
C34 C35 1.388 . S
C34 C60 1.490 . S
C35 C30 1.397 . S
C35 C34 1.388 . S
C35 C66 1.519 . S
C36 C30 1.492 . S
C36 C37 1.363 . S
C36 C41 1.390 1_455 S
C37 H2 0.930 . S
C37 C36 1.363 . S
C37 C38 1.372 1_455 S
C38 H3 0.930 . S
C38 C37 1.372 1_655 S
C38 C39 1.383 . S
C39 C38 1.383 . S
C39 C40 1.395 . S
C40 H4 0.930 . S
C40 C39 1.395 . S
C40 C41 1.362 . S
C41 H5 0.943 1_655 S
C41 C36 1.390 1_655 S
C41 C40 1.362 . S
C42 C31 1.492 . S
C42 C43 1.377 . S
C42 C47 1.397 . S
C43 H6 0.931 . S
C43 C42 1.377 . S
C43 C44 1.376 . S
C44 H7 0.930 . S
C44 C43 1.376 . S
C44 C45 1.376 . S
C45 C44 1.376 . S
C45 C46 1.378 . S
C45 C72 1.486 . S
C46 H8 0.930 . S
C46 C45 1.378 . S
C46 C47 1.376 . S
C47 H9 0.929 . S
C47 C42 1.397 . S
C47 C46 1.376 . S
C48 C32 1.509 . S
C48 C49 1.391 . S
C48 C53 1.386 . S
C49 H10 0.930 . S
C49 C48 1.391 . S
C49 C50 1.375 . S
C50 H11 0.931 . S
C50 C49 1.375 . S
C50 C51 1.375 . S
C51 C50 1.375 . S
C51 C52 1.361 . S
C52 H12 0.930 . S
C52 C51 1.361 . S
C52 C53 1.399 . S
C53 H13 0.929 . S
C53 C48 1.386 . S
C53 C52 1.399 . S
C54 C33 1.485 . S
C54 C55 1.394 . S
C54 C59 1.360 . S
C55 H14 0.931 . S
C55 C54 1.394 . S
C55 C56 1.372 . S
C56 H15 0.930 . S
C56 C55 1.372 . S
C56 C57 1.397 . S
C57 C56 1.397 . S
C57 C58 1.390 . S
C57 C73 1.476 . S
C58 H16 0.930 . S
C58 C57 1.390 . S
C58 C59 1.366 . S
C59 H17 0.932 . S
C59 C54 1.360 . S
C59 C58 1.366 . S
C60 C34 1.490 . S
C60 C61 1.380 . S
C60 C65 1.386 . S
C61 H18 0.930 . S
C61 C60 1.380 . S
C61 C62 1.381 . S
C62 H19 0.929 . S
C62 C61 1.381 . S
C62 C63 1.371 . S
C63 C62 1.371 . S
C63 C64 1.380 . S
C64 H20 0.931 . S
C64 C63 1.380 . S
C64 C65 1.387 . S
C65 H21 0.930 . S
C65 C60 1.386 . S
C65 C64 1.387 . S
C66 C35 1.519 . S
C66 C67 1.377 1_455 S
C66 C71 1.361 . S
C67 H22 0.929 . S
C67 C66 1.377 1_655 S
C67 C68 1.386 . S
C68 H23 0.931 . S
C68 C67 1.386 . S
C68 C69 1.363 . S
C69 C68 1.363 . S
C69 C70 1.385 . S
C70 H24 0.930 . S
C70 C69 1.385 . S
C70 C71 1.396 1_655 S
C71 H25 0.929 . S
C71 C66 1.361 . S
C71 C70 1.396 1_455 S
C72 O26 1.300 . S
C72 O27 1.209 . S
C72 C45 1.486 . S
C73 O28 1.199 . S
C73 O29 1.297 . S
C73 C57 1.476 . S
H74 O100 0.856 . S
H75 O103 0.854 . S
H76 C111 0.930 . S
H77 C112 0.930 . S
H78 C114 0.930 . S
H79 C115 0.932 . S
H80 C117 0.931 . S
H81 C118 0.930 . S
H82 C120 0.930 . S
H83 C121 0.929 . S
H84 C123 0.930 . S
H85 C124 0.931 . S
H86 C126 0.930 . S
H87 C127 0.929 . S
H88 C129 0.931 . S
H89 C130 0.930 . S
H90 C132 0.930 . S
H91 C133 0.932 . S
H92 C135 0.930 . S
H93 C136 0.929 . S
H94 C138 0.931 . S
H95 C139 0.930 . S
H96 C141 0.929 1_545 S
H97 C142 0.931 . S
H98 C144 0.930 . S
H99 C145 0.929 . S
O100 H74 0.856 . S
O100 C146 1.300 . S
O101 C146 1.209 . S
O102 C147 1.199 . S
O103 H75 0.854 . S
O103 C147 1.297 . S
C104 C105 1.404 . S
C104 C109 1.397 . S
C104 C110 1.492 . S
C105 C104 1.404 . S
C105 C106 1.396 . S
C105 C116 1.492 . S
C106 C105 1.396 . S
C106 C107 1.397 . S
C106 C122 1.509 . S
C107 C106 1.397 . S
C107 C108 1.412 . S
C107 C128 1.485 . S
C108 C107 1.412 . S
C108 C109 1.388 . S
C108 C134 1.490 . S
C109 C104 1.397 . S
C109 C108 1.388 . S
C109 C140 1.519 . S
C110 C104 1.492 . S
C110 C111 1.363 . S
C110 C115 1.391 . S
C111 H76 0.930 . S
C111 C110 1.363 . S
C111 C112 1.372 1_545 S
C112 H77 0.930 . S
C112 C111 1.372 1_565 S
C112 C113 1.383 . S
C113 C112 1.383 . S
C113 C114 1.395 . S
C114 H78 0.930 . S
C114 C113 1.395 . S
C114 C115 1.359 1_565 S
C115 H79 0.932 . S
C115 C110 1.391 . S
C115 C114 1.359 1_545 S
C116 C105 1.492 . S
C116 C117 1.377 . S
C116 C121 1.397 . S
C117 H80 0.931 . S
C117 C116 1.377 . S
C117 C118 1.376 . S
C118 H81 0.930 . S
C118 C117 1.376 . S
C118 C119 1.376 . S
C119 C118 1.376 . S
C119 C120 1.378 . S
C119 C146 1.486 . S
C120 H82 0.930 . S
C120 C119 1.378 . S
C120 C121 1.376 . S
C121 H83 0.929 . S
C121 C116 1.397 . S
C121 C120 1.376 . S
C122 C106 1.509 . S
C122 C123 1.391 . S
C122 C127 1.386 . S
C123 H84 0.930 . S
C123 C122 1.391 . S
C123 C124 1.375 . S
C124 H85 0.931 . S
C124 C123 1.375 . S
C124 C125 1.375 . S
C125 C124 1.375 . S
C125 C126 1.361 . S
C126 H86 0.930 . S
C126 C125 1.361 . S
C126 C127 1.399 . S
C127 H87 0.929 . S
C127 C122 1.386 . S
C127 C126 1.399 . S
C128 C107 1.485 . S
C128 C129 1.394 . S
C128 C133 1.360 . S
C129 H88 0.931 . S
C129 C128 1.394 . S
C129 C130 1.372 . S
C130 H89 0.930 . S
C130 C129 1.372 . S
C130 C131 1.397 . S
C131 C130 1.397 . S
C131 C132 1.390 . S
C131 C147 1.476 . S
C132 H90 0.930 . S
C132 C131 1.390 . S
C132 C133 1.366 . S
C133 H91 0.932 . S
C133 C128 1.360 . S
C133 C132 1.366 . S
C134 C108 1.490 . S
C134 C135 1.380 . S
C134 C139 1.386 . S
C135 H92 0.930 . S
C135 C134 1.380 . S
C135 C136 1.381 . S
C136 H93 0.929 . S
C136 C135 1.381 . S
C136 C137 1.371 . S
C137 C136 1.371 . S
C137 C138 1.380 . S
C138 H94 0.931 . S
C138 C137 1.380 . S
C138 C139 1.387 . S
C139 H95 0.930 . S
C139 C134 1.386 . S
C139 C138 1.387 . S
C140 C109 1.519 . S
C140 C141 1.377 1_545 S
C140 C145 1.361 . S
C141 H96 0.929 1_565 S
C141 C140 1.377 1_565 S
C141 C142 1.386 . S
C142 H97 0.931 . S
C142 C141 1.386 . S
C142 C143 1.363 . S
C143 C142 1.363 . S
C143 C144 1.385 . S
C144 H98 0.930 . S
C144 C143 1.385 . S
C144 C145 1.396 1_565 S
C145 H99 0.929 . S
C145 C140 1.361 . S
C145 C144 1.396 1_545 S
C146 O100 1.300 . S
C146 O101 1.209 . S
C146 C119 1.486 . S
C147 O102 1.199 . S
C147 O103 1.297 . S
C147 C131 1.476 . S
H148 O174 0.856 . S
H149 O177 0.854 . S
H150 C185 0.930 . S
H151 C186 0.930 . S
H152 C188 0.930 . S
H153 C189 0.930 . S
H154 C191 0.931 . S
H155 C192 0.930 . S
H156 C194 0.930 . S
H157 C195 0.929 . S
H158 C197 0.930 . S
H159 C198 0.931 . S
H160 C200 0.930 . S
H161 C201 0.929 . S
H162 C203 0.931 . S
H163 C204 0.930 . S
H164 C206 0.930 . S
H165 C207 0.932 . S
H166 C209 0.930 . S
H167 C210 0.929 . S
H168 C212 0.931 . S
H169 C213 0.930 . S
H170 C215 0.929 . S
H171 C216 0.931 . S
H172 C218 0.930 . S
H173 C219 0.929 . S
O174 H148 0.856 . S
O174 C220 1.300 . S
O175 C220 1.209 . S
O176 C221 1.199 . S
O177 H149 0.854 . S
O177 C221 1.297 . S
C178 C179 1.404 . S
C178 C183 1.397 . S
C178 C184 1.492 . S
C179 C178 1.404 . S
C179 C180 1.396 . S
C179 C190 1.492 . S
C180 C179 1.396 . S
C180 C181 1.397 . S
C180 C196 1.509 . S
C181 C180 1.397 . S
C181 C182 1.412 . S
C181 C202 1.485 . S
C182 C181 1.412 . S
C182 C183 1.388 . S
C182 C208 1.490 . S
C183 C178 1.397 . S
C183 C182 1.388 . S
C183 C214 1.519 . S
C184 C178 1.492 . S
C184 C185 1.363 . S
C184 C189 1.390 . S
C185 H150 0.930 . S
C185 C184 1.363 . S
C185 C186 1.372 . S
C186 H151 0.930 . S
C186 C185 1.372 . S
C186 C187 1.383 . S
C187 C186 1.383 . S
C187 C188 1.395 . S
C188 H152 0.930 . S
C188 C187 1.395 . S
C188 C189 1.362 . S
C189 H153 0.930 . S
C189 C184 1.390 . S
C189 C188 1.362 . S
C190 C179 1.492 . S
C190 C191 1.377 . S
C190 C195 1.397 . S
C191 H154 0.931 . S
C191 C190 1.377 . S
C191 C192 1.376 . S
C192 H155 0.930 . S
C192 C191 1.376 . S
C192 C193 1.376 . S
C193 C192 1.376 . S
C193 C194 1.378 . S
C193 C220 1.486 . S
C194 H156 0.930 . S
C194 C193 1.378 . S
C194 C195 1.376 . S
C195 H157 0.929 . S
C195 C190 1.397 . S
C195 C194 1.376 . S
C196 C180 1.509 . S
C196 C197 1.391 . S
C196 C201 1.386 . S
C197 H158 0.930 . S
C197 C196 1.391 . S
C197 C198 1.375 . S
C198 H159 0.931 . S
C198 C197 1.375 . S
C198 C199 1.375 . S
C199 C198 1.375 . S
C199 C200 1.361 . S
C200 H160 0.930 . S
C200 C199 1.361 . S
C200 C201 1.399 . S
C201 H161 0.929 . S
C201 C196 1.386 . S
C201 C200 1.399 . S
C202 C181 1.485 . S
C202 C203 1.394 . S
C202 C207 1.360 . S
C203 H162 0.931 . S
C203 C202 1.394 . S
C203 C204 1.372 . S
C204 H163 0.930 . S
C204 C203 1.372 . S
C204 C205 1.397 . S
C205 C204 1.397 . S
C205 C206 1.390 . S
C205 C221 1.476 . S
C206 H164 0.930 . S
C206 C205 1.390 . S
C206 C207 1.366 . S
C207 H165 0.932 . S
C207 C202 1.360 . S
C207 C206 1.366 . S
C208 C182 1.490 . S
C208 C209 1.380 . S
C208 C213 1.386 . S
C209 H166 0.930 . S
C209 C208 1.380 . S
C209 C210 1.381 . S
C210 H167 0.929 . S
C210 C209 1.381 . S
C210 C211 1.371 . S
C211 C210 1.371 . S
C211 C212 1.380 . S
C212 H168 0.931 . S
C212 C211 1.380 . S
C212 C213 1.387 . S
C213 H169 0.930 . S
C213 C208 1.386 . S
C213 C212 1.387 . S
C214 C183 1.519 . S
C214 C215 1.377 . S
C214 C219 1.361 . S
C215 H170 0.929 . S
C215 C214 1.377 . S
C215 C216 1.386 . S
C216 H171 0.931 . S
C216 C215 1.386 . S
C216 C217 1.363 . S
C217 C216 1.363 . S
C217 C218 1.385 . S
C218 H172 0.930 . S
C218 C217 1.385 . S
C218 C219 1.396 . S
C219 H173 0.929 . S
C219 C214 1.361 . S
C219 C218 1.396 . S
C220 O174 1.300 . S
C220 O175 1.209 . S
C220 C193 1.486 . S
C221 O176 1.199 . S
C221 O177 1.297 . S
C221 C205 1.476 . S
H222 O248 0.856 . S
H223 O251 0.854 . S
H224 C259 0.929 1_455 S
H225 C260 0.930 . S
H226 C262 0.930 . S
H227 C263 0.930 . S
H228 C265 0.931 . S
H229 C266 0.930 . S
H230 C268 0.930 . S
H231 C269 0.929 . S
H232 C271 0.930 . S
H233 C272 0.931 . S
H234 C274 0.930 . S
H235 C275 0.929 . S
H236 C277 0.931 . S
H237 C278 0.930 . S
H238 C280 0.930 . S
H239 C281 0.932 . S
H240 C283 0.930 . S
H241 C284 0.929 . S
H242 C286 0.931 . S
H243 C287 0.930 . S
H244 C289 0.929 . S
H245 C290 0.931 . S
H246 C292 0.930 . S
H247 C293 0.929 1_455 S
O248 H222 0.856 . S
O248 C294 1.300 . S
O249 C294 1.209 . S
O250 C295 1.199 . S
O251 H223 0.854 . S
O251 C295 1.297 . S
C252 C253 1.404 . S
C252 C257 1.397 . S
C252 C258 1.492 . S
C253 C252 1.404 . S
C253 C254 1.396 . S
C253 C264 1.492 . S
C254 C253 1.396 . S
C254 C255 1.397 . S
C254 C270 1.509 . S
C255 C254 1.397 . S
C255 C256 1.412 . S
C255 C276 1.485 . S
C256 C255 1.412 . S
C256 C257 1.388 . S
C256 C282 1.490 . S
C257 C252 1.397 . S
C257 C256 1.388 . S
C257 C288 1.519 1_455 S
C258 C252 1.492 . S
C258 C259 1.361 1_455 S
C258 C263 1.390 1_455 S
C259 H224 0.929 1_655 S
C259 C258 1.361 1_655 S
C259 C260 1.376 . S
C260 H225 0.930 . S
C260 C259 1.376 . S
C260 C261 1.383 . S
C261 C260 1.383 . S
C261 C262 1.395 . S
C262 H226 0.930 . S
C262 C261 1.395 . S
C262 C263 1.362 . S
C263 H227 0.930 . S
C263 C258 1.390 1_655 S
C263 C262 1.362 . S
C264 C253 1.492 . S
C264 C265 1.377 . S
C264 C269 1.397 . S
C265 H228 0.931 . S
C265 C264 1.377 . S
C265 C266 1.376 . S
C266 H229 0.930 . S
C266 C265 1.376 . S
C266 C267 1.376 . S
C267 C266 1.376 . S
C267 C268 1.378 . S
C267 C294 1.486 . S
C268 H230 0.930 . S
C268 C267 1.378 . S
C268 C269 1.376 . S
C269 H231 0.929 . S
C269 C264 1.397 . S
C269 C268 1.376 . S
C270 C254 1.509 . S
C270 C271 1.391 . S
C270 C275 1.386 . S
C271 H232 0.930 . S
C271 C270 1.391 . S
C271 C272 1.375 . S
C272 H233 0.931 . S
C272 C271 1.375 . S
C272 C273 1.375 . S
C273 C272 1.375 . S
C273 C274 1.361 . S
C274 H234 0.930 . S
C274 C273 1.361 . S
C274 C275 1.399 . S
C275 H235 0.929 . S
C275 C270 1.386 . S
C275 C274 1.399 . S
C276 C255 1.485 . S
C276 C277 1.394 . S
C276 C281 1.360 . S
C277 H236 0.931 . S
C277 C276 1.394 . S
C277 C278 1.372 . S
C278 H237 0.930 . S
C278 C277 1.372 . S
C278 C279 1.397 . S
C279 C278 1.397 . S
C279 C280 1.390 . S
C279 C295 1.476 . S
C280 H238 0.930 . S
C280 C279 1.390 . S
C280 C281 1.366 . S
C281 H239 0.932 . S
C281 C276 1.360 . S
C281 C280 1.366 . S
C282 C256 1.490 . S
C282 C283 1.380 . S
C282 C287 1.386 . S
C283 H240 0.930 . S
C283 C282 1.380 . S
C283 C284 1.381 . S
C284 H241 0.929 . S
C284 C283 1.381 . S
C284 C285 1.371 . S
C285 C284 1.371 . S
C285 C286 1.380 . S
C286 H242 0.931 . S
C286 C285 1.380 . S
C286 C287 1.387 . S
C287 H243 0.930 . S
C287 C282 1.386 . S
C287 C286 1.387 . S
C288 C257 1.519 1_655 S
C288 C289 1.377 . S
C288 C293 1.361 . S
C289 H244 0.929 . S
C289 C288 1.377 . S
C289 C290 1.386 . S
C290 H245 0.931 . S
C290 C289 1.386 . S
C290 C291 1.363 . S
C291 C290 1.363 . S
C291 C292 1.385 . S
C292 H246 0.930 . S
C292 C291 1.385 . S
C292 C293 1.396 . S
C293 H247 0.929 1_655 S
C293 C288 1.361 . S
C293 C292 1.396 . S
C294 O248 1.300 . S
C294 O249 1.209 . S
C294 C267 1.486 . S
C295 O250 1.199 . S
C295 O251 1.297 . S
C295 C279 1.476 . S
H296 O322 0.856 . S
H297 O325 0.854 . S
H298 C333 0.930 . S
H299 C334 0.930 . S
H300 C336 0.930 . S
H301 C337 0.930 . S
H302 C339 0.931 . S
H303 C340 0.930 . S
H304 C342 0.930 . S
H305 C343 0.929 . S
H306 C345 0.930 . S
H307 C346 0.931 . S
H308 C348 0.930 . S
H309 C349 0.929 . S
H310 C351 0.931 . S
H311 C352 0.930 . S
H312 C354 0.930 . S
H313 C355 0.932 . S
H314 C357 0.930 . S
H315 C358 0.929 . S
H316 C360 0.931 . S
H317 C361 0.930 . S
H318 C363 0.929 1_556 S
H319 C364 0.931 . S
H320 C366 0.930 . S
H321 C367 0.929 . S
O322 H296 0.856 . S
O322 C368 1.300 . S
O323 C368 1.209 . S
O324 C369 1.199 . S
O325 H297 0.854 . S
O325 C369 1.297 . S
C326 C327 1.404 . S
C326 C331 1.397 . S
C326 C332 1.492 1_565 S
C327 C326 1.404 . S
C327 C328 1.396 . S
C327 C338 1.492 . S
C328 C327 1.396 . S
C328 C329 1.397 . S
C328 C344 1.509 . S
C329 C328 1.397 . S
C329 C330 1.412 1_556 S
C329 C350 1.485 1_556 S
C330 C329 1.412 1_554 S
C330 C331 1.388 1_554 S
C330 C356 1.490 . S
C331 C326 1.397 . S
C331 C330 1.388 1_556 S
C331 C362 1.519 1_566 S
C332 C326 1.492 1_545 S
C332 C333 1.363 . S
C332 C337 1.390 . S
C333 H298 0.930 . S
C333 C332 1.363 . S
C333 C334 1.372 . S
C334 H299 0.930 . S
C334 C333 1.372 . S
C334 C335 1.383 . S
C335 C334 1.383 . S
C335 C336 1.395 . S
C336 H300 0.930 . S
C336 C335 1.395 . S
C336 C337 1.362 . S
C337 H301 0.930 . S
C337 C332 1.390 . S
C337 C336 1.362 . S
C338 C327 1.492 . S
C338 C339 1.377 . S
C338 C343 1.397 . S
C339 H302 0.931 . S
C339 C338 1.377 . S
C339 C340 1.376 . S
C340 H303 0.930 . S
C340 C339 1.376 . S
C340 C341 1.376 . S
C341 C340 1.376 . S
C341 C342 1.378 . S
C341 C368 1.486 . S
C342 H304 0.930 . S
C342 C341 1.378 . S
C342 C343 1.376 . S
C343 H305 0.929 . S
C343 C338 1.397 . S
C343 C342 1.376 . S
C344 C328 1.509 . S
C344 C345 1.391 . S
C344 C349 1.386 . S
C345 H306 0.930 . S
C345 C344 1.391 . S
C345 C346 1.375 . S
C346 H307 0.931 . S
C346 C345 1.375 . S
C346 C347 1.375 . S
C347 C346 1.375 . S
C347 C348 1.361 . S
C348 H308 0.930 . S
C348 C347 1.361 . S
C348 C349 1.399 . S
C349 H309 0.929 . S
C349 C344 1.386 . S
C349 C348 1.399 . S
C350 C329 1.485 1_554 S
C350 C351 1.394 . S
C350 C355 1.360 . S
C351 H310 0.931 . S
C351 C350 1.394 . S
C351 C352 1.372 . S
C352 H311 0.930 . S
C352 C351 1.372 . S
C352 C353 1.397 . S
C353 C352 1.397 . S
C353 C354 1.390 . S
C353 C369 1.476 . S
C354 H312 0.930 . S
C354 C353 1.390 . S
C354 C355 1.366 . S
C355 H313 0.932 . S
C355 C350 1.360 . S
C355 C354 1.366 . S
C356 C330 1.490 . S
C356 C357 1.380 . S
C356 C361 1.386 . S
C357 H314 0.930 . S
C357 C356 1.380 . S
C357 C358 1.381 . S
C358 H315 0.929 . S
C358 C357 1.381 . S
C358 C359 1.371 . S
C359 C358 1.371 . S
C359 C360 1.380 . S
C360 H316 0.931 . S
C360 C359 1.380 . S
C360 C361 1.387 . S
C361 H317 0.930 . S
C361 C356 1.386 . S
C361 C360 1.387 . S
C362 C331 1.519 1_544 S
C362 C363 1.377 . S
C362 C367 1.361 . S
C363 H318 0.929 1_554 S
C363 C362 1.377 . S
C363 C364 1.386 . S
C364 H319 0.931 . S
C364 C363 1.386 . S
C364 C365 1.363 . S
C365 C364 1.363 . S
C365 C366 1.385 . S
C366 H320 0.930 . S
C366 C365 1.385 . S
C366 C367 1.396 . S
C367 H321 0.929 . S
C367 C362 1.361 . S
C367 C366 1.396 . S
C368 O322 1.300 . S
C368 O323 1.209 . S
C368 C341 1.486 . S
C369 O324 1.199 . S
C369 O325 1.297 . S
C369 C353 1.476 . S
H370 O396 0.856 . S
H371 O399 0.854 . S
H372 C407 0.930 . S
H373 C408 0.930 . S
H374 C410 0.930 . S
H375 C411 0.930 . S
H376 C413 0.931 . S
H377 C414 0.930 . S
H378 C416 0.930 . S
H379 C417 0.929 . S
H380 C419 0.930 . S
H381 C420 0.931 . S
H382 C422 0.930 . S
H383 C423 0.929 . S
H384 C425 0.931 . S
H385 C426 0.930 . S
H386 C428 0.930 . S
H387 C429 0.932 . S
H388 C431 0.930 . S
H389 C432 0.929 . S
H390 C434 0.931 . S
H391 C435 0.930 . S
H392 C437 0.929 . S
H393 C438 0.931 . S
H394 C440 0.930 . S
H395 C441 0.929 . S
O396 H370 0.856 . S
O396 C442 1.300 . S
O397 C442 1.209 . S
O398 C443 1.199 . S
O399 H371 0.854 . S
O399 C443 1.297 . S
C400 C401 1.404 . S
C400 C405 1.397 . S
C400 C406 1.492 . S
C401 C400 1.404 . S
C401 C402 1.396 . S
C401 C412 1.492 . S
C402 C401 1.396 . S
C402 C403 1.397 . S
C402 C418 1.509 . S
C403 C402 1.397 . S
C403 C404 1.412 . S
C403 C424 1.485 . S
C404 C403 1.412 . S
C404 C405 1.388 . S
C404 C430 1.490 . S
C405 C400 1.397 . S
C405 C404 1.388 . S
C405 C436 1.519 . S
C406 C400 1.492 . S
C406 C407 1.363 . S
C406 C411 1.390 . S
C407 H372 0.930 . S
C407 C406 1.363 . S
C407 C408 1.372 . S
C408 H373 0.930 . S
C408 C407 1.372 . S
C408 C409 1.383 . S
C409 C408 1.383 . S
C409 C410 1.395 . S
C410 H374 0.930 . S
C410 C409 1.395 . S
C410 C411 1.362 . S
C411 H375 0.930 . S
C411 C406 1.390 . S
C411 C410 1.362 . S
C412 C401 1.492 . S
C412 C413 1.377 . S
C412 C417 1.397 . S
C413 H376 0.931 . S
C413 C412 1.377 . S
C413 C414 1.376 . S
C414 H377 0.930 . S
C414 C413 1.376 . S
C414 C415 1.376 . S
C415 C414 1.376 . S
C415 C416 1.378 . S
C415 C442 1.486 . S
C416 H378 0.930 . S
C416 C415 1.378 . S
C416 C417 1.376 . S
C417 H379 0.929 . S
C417 C412 1.397 . S
C417 C416 1.376 . S
C418 C402 1.509 . S
C418 C419 1.391 . S
C418 C423 1.386 . S
C419 H380 0.930 . S
C419 C418 1.391 . S
C419 C420 1.375 . S
C420 H381 0.931 . S
C420 C419 1.375 . S
C420 C421 1.375 . S
C421 C420 1.375 . S
C421 C422 1.361 . S
C422 H382 0.930 . S
C422 C421 1.361 . S
C422 C423 1.399 . S
C423 H383 0.929 . S
C423 C418 1.386 . S
C423 C422 1.399 . S
C424 C403 1.485 . S
C424 C425 1.394 . S
C424 C429 1.360 . S
C425 H384 0.931 . S
C425 C424 1.394 . S
C425 C426 1.372 . S
C426 H385 0.930 . S
C426 C425 1.372 . S
C426 C427 1.397 . S
C427 C426 1.397 . S
C427 C428 1.390 . S
C427 C443 1.476 . S
C428 H386 0.930 . S
C428 C427 1.390 . S
C428 C429 1.366 . S
C429 H387 0.932 . S
C429 C424 1.360 . S
C429 C428 1.366 . S
C430 C404 1.490 . S
C430 C431 1.380 . S
C430 C435 1.386 . S
C431 H388 0.930 . S
C431 C430 1.380 . S
C431 C432 1.381 . S
C432 H389 0.929 . S
C432 C431 1.381 . S
C432 C433 1.371 . S
C433 C432 1.371 . S
C433 C434 1.380 . S
C434 H390 0.931 . S
C434 C433 1.380 . S
C434 C435 1.387 . S
C435 H391 0.930 . S
C435 C430 1.386 . S
C435 C434 1.387 . S
C436 C405 1.519 . S
C436 C437 1.377 . S
C436 C441 1.361 . S
C437 H392 0.929 . S
C437 C436 1.377 . S
C437 C438 1.386 . S
C438 H393 0.931 . S
C438 C437 1.386 . S
C438 C439 1.363 . S
C439 C438 1.363 . S
C439 C440 1.385 . S
C440 H394 0.930 . S
C440 C439 1.385 . S
C440 C441 1.396 . S
C441 H395 0.929 . S
C441 C436 1.361 . S
C441 C440 1.396 . S
C442 O396 1.300 . S
C442 O397 1.209 . S
C442 C415 1.486 . S
C443 O398 1.199 . S
C443 O399 1.297 . S
C443 C427 1.476 . S
Li444 N461 1.990 . S
Li444 O504 1.956 . S
Li444 O505 1.970 . S
Li444 O506 1.961 . S
Li445 N469 1.990 . S
Li445 O504 1.970 . S
Li445 O505 1.956 . S
Li445 O507 1.961 . S
Li446 N491 1.990 . S
Li446 O504 1.961 . S
Li446 O506 1.956 . S
Li446 O507 1.970 . S
Li447 N497 1.990 . S
Li447 O505 1.961 . S
Li447 O506 1.970 . S
Li447 O507 1.956 . S
C448 C450 1.348 . S
C448 C451 1.356 . S
C448 O504 1.325 . S
N449 C452 1.314 . S
N449 C453 1.279 . S
C450 C448 1.348 . S
C450 C452 1.353 . S
C450 H508 0.929 . S
C451 C448 1.356 . S
C451 C453 1.358 . S
C451 H509 0.930 . S
C452 N449 1.314 . S
C452 C450 1.353 . S
C452 H510 0.930 . S
C453 N449 1.279 . S
C453 C451 1.358 . S
C453 H511 0.930 . S
C454 C457 1.348 . S
C454 C458 1.356 . S
C454 O505 1.325 . S
C455 N456 1.279 . S
C455 C458 1.358 . S
C455 H512 0.930 . S
N456 C455 1.279 . S
N456 C459 1.314 . S
C457 C454 1.348 . S
C457 C459 1.353 . S
C457 H513 0.929 . S
C458 C454 1.356 . S
C458 C455 1.358 . S
C458 H514 0.930 . S
C459 N456 1.314 . S
C459 C457 1.353 . S
C459 H515 0.930 . S
C460 N461 1.314 . S
C460 C465 1.353 . S
C460 H466 0.930 . S
N461 Li444 1.990 . S
N461 C460 1.314 . S
N461 C463 1.279 . S
C462 C463 1.358 . S
C462 C464 1.356 . S
C462 H516 0.930 . S
C463 N461 1.279 . S
C463 C462 1.358 . S
C463 H467 0.930 . S
C464 C462 1.356 . S
C464 C465 1.348 . S
C465 C460 1.353 . S
C465 C464 1.348 . S
C465 H517 0.929 . S
H466 C460 0.930 . S
H467 C463 0.930 . S
C468 N469 1.314 . S
C468 C470 1.353 . S
C468 H474 0.930 . S
N469 Li445 1.990 . S
N469 C468 1.314 . S
N469 C472 1.279 . S
C470 C468 1.353 . S
C470 C473 1.348 . S
C470 H518 0.929 . S
C471 C472 1.358 . S
C471 C473 1.356 . S
C471 H519 0.930 . S
C472 N469 1.279 . S
C472 C471 1.358 . S
C472 H475 0.930 . S
C473 C470 1.348 . S
C473 C471 1.356 . S
H474 C468 0.930 . S
H475 C472 0.930 . S
C476 C478 1.348 . S
C476 C479 1.356 . S
C476 O506 1.325 . S
N477 C480 1.314 . S
N477 C481 1.279 . S
C478 C476 1.348 . S
C478 C480 1.353 . S
C478 H520 0.929 . S
C479 C476 1.356 . S
C479 C481 1.358 . S
C479 H521 0.930 . S
C480 N477 1.314 . S
C480 C478 1.353 . S
C480 H522 0.930 . S
C481 N477 1.279 . S
C481 C479 1.358 . S
C481 H523 0.930 . S
C482 C483 1.348 . S
C482 C484 1.356 . S
C482 O507 1.325 . S
C483 C482 1.348 . S
C483 C485 1.353 . S
C483 H524 0.929 . S
C484 C482 1.356 . S
C484 C486 1.358 . S
C484 H525 0.930 . S
C485 C483 1.353 . S
C485 N487 1.314 . S
C485 H526 0.930 . S
C486 C484 1.358 . S
C486 N487 1.279 . S
C486 H527 0.930 . S
N487 C485 1.314 . S
N487 C486 1.279 . S
C488 C490 1.353 . S
C488 N491 1.314 . S
C488 H494 0.930 . S
C489 N491 1.279 . S
C489 C492 1.358 . S
C489 H495 0.930 . S
C490 C488 1.353 . S
C490 C493 1.348 . S
C490 H528 0.929 . S
N491 Li446 1.990 . S
N491 C488 1.314 . S
N491 C489 1.279 . S
C492 C489 1.358 . S
C492 C493 1.356 . S
C492 H529 0.930 . S
C493 C490 1.348 . S
C493 C492 1.356 . S
H494 C488 0.930 . S
H495 C489 0.930 . S
C496 N497 1.314 . S
C496 C498 1.353 . S
C496 H502 0.930 . S
N497 Li447 1.990 . S
N497 C496 1.314 . S
N497 C500 1.279 . S
C498 C496 1.353 . S
C498 C501 1.348 . S
C498 H530 0.929 . S
C499 C500 1.358 . S
C499 C501 1.356 . S
C499 H531 0.930 . S
C500 N497 1.279 . S
C500 C499 1.358 . S
C500 H503 0.930 . S
C501 C498 1.348 . S
C501 C499 1.356 . S
H502 C496 0.930 . S
H503 C500 0.930 . S
O504 Li444 1.956 . S
O504 Li445 1.970 . S
O504 Li446 1.961 . S
O504 C448 1.325 . S
O505 Li444 1.970 . S
O505 Li445 1.956 . S
O505 Li447 1.961 . S
O505 C454 1.325 . S
O506 Li444 1.961 . S
O506 Li446 1.956 . S
O506 Li447 1.970 . S
O506 C476 1.325 . S
O507 Li445 1.961 . S
O507 Li446 1.970 . S
O507 Li447 1.956 . S
O507 C482 1.325 . S
H508 C450 0.929 . S
H509 C451 0.930 . S
H510 C452 0.930 . S
H511 C453 0.930 . S
H512 C455 0.930 . S
H513 C457 0.929 . S
H514 C458 0.930 . S
H515 C459 0.930 . S
H516 C462 0.930 . S
H517 C465 0.929 . S
H518 C470 0.929 . S
H519 C471 0.930 . S
H520 C478 0.929 . S
H521 C479 0.930 . S
H522 C480 0.930 . S
H523 C481 0.930 . S
H524 C483 0.929 . S
H525 C484 0.930 . S
H526 C485 0.930 . S
H527 C486 0.930 . S
H528 C490 0.929 . S
H529 C492 0.930 . S
H530 C498 0.929 . S
H531 C499 0.930 . S
Li532 N549 1.990 . S
Li532 O592 1.956 . S
Li532 O593 1.970 . S
Li532 O594 1.961 . S
Li533 N557 1.990 . S
Li533 O592 1.970 . S
Li533 O593 1.956 . S
Li533 O595 1.961 . S
Li534 N579 1.990 . S
Li534 O592 1.961 . S
Li534 O594 1.956 . S
Li534 O595 1.970 . S
Li535 N585 1.990 . S
Li535 O593 1.961 . S
Li535 O594 1.970 . S
Li535 O595 1.956 . S
C536 C538 1.348 . S
C536 C539 1.356 . S
C536 O592 1.325 . S
N537 C540 1.314 . S
N537 C541 1.279 . S
C538 C536 1.348 . S
C538 C540 1.353 . S
C538 H596 0.929 . S
C539 C536 1.356 . S
C539 C541 1.358 . S
C539 H597 0.930 . S
C540 N537 1.314 . S
C540 C538 1.353 . S
C540 H598 0.930 . S
C541 N537 1.279 . S
C541 C539 1.358 . S
C541 H599 0.930 . S
C542 C545 1.348 . S
C542 C546 1.356 . S
C542 O593 1.325 . S
C543 N544 1.279 . S
C543 C546 1.358 . S
C543 H600 0.930 . S
N544 C543 1.279 . S
N544 C547 1.314 . S
C545 C542 1.348 . S
C545 C547 1.353 . S
C545 H601 0.929 . S
C546 C542 1.356 . S
C546 C543 1.358 . S
C546 H602 0.930 . S
C547 N544 1.314 . S
C547 C545 1.353 . S
C547 H603 0.930 . S
C548 N549 1.314 . S
C548 C553 1.353 . S
C548 H554 0.930 . S
N549 Li532 1.990 . S
N549 C548 1.314 . S
N549 C551 1.279 . S
C550 C551 1.358 . S
C550 C552 1.356 . S
C550 H604 0.930 . S
C551 N549 1.279 . S
C551 C550 1.358 . S
C551 H555 0.930 . S
C552 C550 1.356 . S
C552 C553 1.348 . S
C553 C548 1.353 . S
C553 C552 1.348 . S
C553 H605 0.929 . S
H554 C548 0.930 . S
H555 C551 0.930 . S
C556 N557 1.314 . S
C556 C558 1.353 . S
C556 H562 0.930 . S
N557 Li533 1.990 . S
N557 C556 1.314 . S
N557 C560 1.279 . S
C558 C556 1.353 . S
C558 C561 1.348 . S
C558 H606 0.929 . S
C559 C560 1.358 . S
C559 C561 1.356 . S
C559 H607 0.930 . S
C560 N557 1.279 . S
C560 C559 1.358 . S
C560 H563 0.930 . S
C561 C558 1.348 . S
C561 C559 1.356 . S
H562 C556 0.930 . S
H563 C560 0.930 . S
C564 C566 1.348 . S
C564 C567 1.356 . S
C564 O594 1.325 . S
N565 C568 1.314 . S
N565 C569 1.279 . S
C566 C564 1.348 . S
C566 C568 1.353 . S
C566 H608 0.929 . S
C567 C564 1.356 . S
C567 C569 1.358 . S
C567 H609 0.930 . S
C568 N565 1.314 . S
C568 C566 1.353 . S
C568 H610 0.930 . S
C569 N565 1.279 . S
C569 C567 1.358 . S
C569 H611 0.930 . S
C570 C571 1.348 . S
C570 C572 1.356 . S
C570 O595 1.325 . S
C571 C570 1.348 . S
C571 C573 1.353 . S
C571 H612 0.929 . S
C572 C570 1.356 . S
C572 C574 1.358 . S
C572 H613 0.930 . S
C573 C571 1.353 . S
C573 N575 1.314 . S
C573 H614 0.930 . S
C574 C572 1.358 . S
C574 N575 1.279 . S
C574 H615 0.930 . S
N575 C573 1.314 . S
N575 C574 1.279 . S
C576 C578 1.353 . S
C576 N579 1.314 . S
C576 H582 0.930 . S
C577 N579 1.279 . S
C577 C580 1.358 . S
C577 H583 0.930 . S
C578 C576 1.353 . S
C578 C581 1.348 . S
C578 H616 0.929 . S
N579 Li534 1.990 . S
N579 C576 1.314 . S
N579 C577 1.279 . S
C580 C577 1.358 . S
C580 C581 1.356 . S
C580 H617 0.930 . S
C581 C578 1.348 . S
C581 C580 1.356 . S
H582 C576 0.930 . S
H583 C577 0.930 . S
C584 N585 1.314 . S
C584 C586 1.353 . S
C584 H590 0.930 . S
N585 Li535 1.990 . S
N585 C584 1.314 . S
N585 C588 1.279 . S
C586 C584 1.353 . S
C586 C589 1.348 . S
C586 H618 0.929 . S
C587 C588 1.358 . S
C587 C589 1.356 . S
C587 H619 0.930 . S
C588 N585 1.279 . S
C588 C587 1.358 . S
C588 H591 0.930 . S
C589 C586 1.348 . S
C589 C587 1.356 . S
H590 C584 0.930 . S
H591 C588 0.930 . S
O592 Li532 1.956 . S
O592 Li533 1.970 . S
O592 Li534 1.961 . S
O592 C536 1.325 . S
O593 Li532 1.970 . S
O593 Li533 1.956 . S
O593 Li535 1.961 . S
O593 C542 1.325 . S
O594 Li532 1.961 . S
O594 Li534 1.956 . S
O594 Li535 1.970 . S
O594 C564 1.325 . S
O595 Li533 1.961 . S
O595 Li534 1.970 . S
O595 Li535 1.956 . S
O595 C570 1.325 . S
H596 C538 0.929 . S
H597 C539 0.930 . S
H598 C540 0.930 . S
H599 C541 0.930 . S
H600 C543 0.930 . S
H601 C545 0.929 . S
H602 C546 0.930 . S
H603 C547 0.930 . S
H604 C550 0.930 . S
H605 C553 0.929 . S
H606 C558 0.929 . S
H607 C559 0.930 . S
H608 C566 0.929 . S
H609 C567 0.930 . S
H610 C568 0.930 . S
H611 C569 0.930 . S
H612 C571 0.929 . S
H613 C572 0.930 . S
H614 C573 0.930 . S
H615 C574 0.930 . S
H616 C578 0.929 . S
H617 C580 0.930 . S
H618 C586 0.929 . S
H619 C587 0.930 . S
Li620 N637 1.990 . S
Li620 O680 1.956 . S
Li620 O681 1.970 . S
Li620 O682 1.961 . S
Li621 N645 1.990 . S
Li621 O680 1.970 . S
Li621 O681 1.956 . S
Li621 O683 1.961 . S
Li622 N667 1.990 . S
Li622 O680 1.961 . S
Li622 O682 1.956 . S
Li622 O683 1.970 . S
Li623 N673 1.990 . S
Li623 O681 1.961 . S
Li623 O682 1.970 . S
Li623 O683 1.956 . S
C624 C626 1.348 . S
C624 C627 1.356 . S
C624 O680 1.325 . S
N625 C628 1.314 . S
N625 C629 1.279 . S
C626 C624 1.348 . S
C626 C628 1.353 . S
C626 H684 0.929 . S
C627 C624 1.356 . S
C627 C629 1.358 . S
C627 H685 0.930 . S
C628 N625 1.314 . S
C628 C626 1.353 . S
C628 H686 0.930 . S
C629 N625 1.279 . S
C629 C627 1.358 . S
C629 H687 0.930 . S
C630 C633 1.348 . S
C630 C634 1.356 . S
C630 O681 1.325 . S
C631 N632 1.279 . S
C631 C634 1.358 . S
C631 H688 0.930 . S
N632 C631 1.279 . S
N632 C635 1.314 . S
C633 C630 1.348 . S
C633 C635 1.353 . S
C633 H689 0.929 . S
C634 C630 1.356 . S
C634 C631 1.358 . S
C634 H690 0.930 . S
C635 N632 1.314 . S
C635 C633 1.353 . S
C635 H691 0.930 . S
C636 N637 1.314 . S
C636 C641 1.353 . S
C636 H642 0.930 . S
N637 Li620 1.990 . S
N637 C636 1.314 . S
N637 C639 1.279 . S
C638 C639 1.358 . S
C638 C640 1.356 . S
C638 H692 0.930 . S
C639 N637 1.279 . S
C639 C638 1.358 . S
C639 H643 0.930 . S
C640 C638 1.356 . S
C640 C641 1.348 . S
C641 C636 1.353 . S
C641 C640 1.348 . S
C641 H693 0.929 . S
H642 C636 0.930 . S
H643 C639 0.930 . S
C644 N645 1.314 . S
C644 C646 1.353 . S
C644 H650 0.930 . S
N645 Li621 1.990 . S
N645 C644 1.314 . S
N645 C648 1.279 . S
C646 C644 1.353 . S
C646 C649 1.348 . S
C646 H694 0.929 . S
C647 C648 1.358 . S
C647 C649 1.356 . S
C647 H695 0.930 . S
C648 N645 1.279 . S
C648 C647 1.358 . S
C648 H651 0.930 . S
C649 C646 1.348 . S
C649 C647 1.356 . S
H650 C644 0.930 . S
H651 C648 0.930 . S
C652 C654 1.348 . S
C652 C655 1.356 . S
C652 O682 1.325 . S
N653 C656 1.314 . S
N653 C657 1.279 . S
C654 C652 1.348 . S
C654 C656 1.353 . S
C654 H696 0.929 . S
C655 C652 1.356 . S
C655 C657 1.358 . S
C655 H697 0.930 . S
C656 N653 1.314 . S
C656 C654 1.353 . S
C656 H698 0.930 . S
C657 N653 1.279 . S
C657 C655 1.358 . S
C657 H699 0.930 . S
C658 C659 1.348 . S
C658 C660 1.356 . S
C658 O683 1.325 . S
C659 C658 1.348 . S
C659 C661 1.353 . S
C659 H700 0.929 . S
C660 C658 1.356 . S
C660 C662 1.358 . S
C660 H701 0.930 . S
C661 C659 1.353 . S
C661 N663 1.314 . S
C661 H702 0.930 . S
C662 C660 1.358 . S
C662 N663 1.279 . S
C662 H703 0.930 . S
N663 C661 1.314 . S
N663 C662 1.279 . S
C664 C666 1.353 . S
C664 N667 1.314 . S
C664 H670 0.930 . S
C665 N667 1.279 . S
C665 C668 1.358 . S
C665 H671 0.930 . S
C666 C664 1.353 . S
C666 C669 1.348 . S
C666 H704 0.929 . S
N667 Li622 1.990 . S
N667 C664 1.314 . S
N667 C665 1.279 . S
C668 C665 1.358 . S
C668 C669 1.356 . S
C668 H705 0.930 . S
C669 C666 1.348 . S
C669 C668 1.356 . S
H670 C664 0.930 . S
H671 C665 0.930 . S
C672 N673 1.314 . S
C672 C674 1.353 . S
C672 H678 0.930 . S
N673 Li623 1.990 . S
N673 C672 1.314 . S
N673 C676 1.279 . S
C674 C672 1.353 . S
C674 C677 1.348 . S
C674 H706 0.929 . S
C675 C676 1.358 . S
C675 C677 1.356 . S
C675 H707 0.930 . S
C676 N673 1.279 . S
C676 C675 1.358 . S
C676 H679 0.930 . S
C677 C674 1.348 . S
C677 C675 1.356 . S
H678 C672 0.930 . S
H679 C676 0.930 . S
O680 Li620 1.956 . S
O680 Li621 1.970 . S
O680 Li622 1.961 . S
O680 C624 1.325 . S
O681 Li620 1.970 . S
O681 Li621 1.956 . S
O681 Li623 1.961 . S
O681 C630 1.325 . S
O682 Li620 1.961 . S
O682 Li622 1.956 . S
O682 Li623 1.970 . S
O682 C652 1.325 . S
O683 Li621 1.961 . S
O683 Li622 1.970 . S
O683 Li623 1.956 . S
O683 C658 1.325 . S
H684 C626 0.929 . S
H685 C627 0.930 . S
H686 C628 0.930 . S
H687 C629 0.930 . S
H688 C631 0.930 . S
H689 C633 0.929 . S
H690 C634 0.930 . S
H691 C635 0.930 . S
H692 C638 0.930 . S
H693 C641 0.929 . S
H694 C646 0.929 . S
H695 C647 0.930 . S
H696 C654 0.929 . S
H697 C655 0.930 . S
H698 C656 0.930 . S
H699 C657 0.930 . S
H700 C659 0.929 . S
H701 C660 0.930 . S
H702 C661 0.930 . S
H703 C662 0.930 . S
H704 C666 0.929 . S
H705 C668 0.930 . S
H706 C674 0.929 . S
H707 C675 0.930 . S
Li708 N725 1.990 . S
Li708 O768 1.956 . S
Li708 O769 1.970 . S
Li708 O770 1.961 . S
Li709 N733 1.990 . S
Li709 O768 1.970 . S
Li709 O769 1.956 . S
Li709 O771 1.961 . S
Li710 N755 1.990 . S
Li710 O768 1.961 . S
Li710 O770 1.956 . S
Li710 O771 1.970 . S
Li711 N761 1.990 . S
Li711 O769 1.961 . S
Li711 O770 1.970 . S
Li711 O771 1.956 . S
C712 C714 1.348 . S
C712 C715 1.356 . S
C712 O768 1.325 . S
N713 C716 1.314 . S
N713 C717 1.279 . S
C714 C712 1.348 . S
C714 C716 1.353 . S
C714 H772 0.929 . S
C715 C712 1.356 . S
C715 C717 1.358 . S
C715 H773 0.930 . S
C716 N713 1.314 . S
C716 C714 1.353 . S
C716 H774 0.930 . S
C717 N713 1.279 . S
C717 C715 1.358 . S
C717 H775 0.930 . S
C718 C721 1.348 . S
C718 C722 1.356 . S
C718 O769 1.325 . S
C719 N720 1.279 . S
C719 C722 1.358 . S
C719 H776 0.930 . S
N720 C719 1.279 . S
N720 C723 1.314 . S
C721 C718 1.348 . S
C721 C723 1.353 . S
C721 H777 0.929 . S
C722 C718 1.356 . S
C722 C719 1.358 . S
C722 H778 0.930 . S
C723 N720 1.314 . S
C723 C721 1.353 . S
C723 H779 0.930 . S
C724 N725 1.314 . S
C724 C729 1.353 . S
C724 H730 0.930 . S
N725 Li708 1.990 . S
N725 C724 1.314 . S
N725 C727 1.279 . S
C726 C727 1.358 . S
C726 C728 1.356 . S
C726 H780 0.930 . S
C727 N725 1.279 . S
C727 C726 1.358 . S
C727 H731 0.930 . S
C728 C726 1.356 . S
C728 C729 1.348 . S
C729 C724 1.353 . S
C729 C728 1.348 . S
C729 H781 0.929 . S
H730 C724 0.930 . S
H731 C727 0.930 . S
C732 N733 1.314 . S
C732 C734 1.353 . S
C732 H738 0.930 . S
N733 Li709 1.990 . S
N733 C732 1.314 . S
N733 C736 1.279 . S
C734 C732 1.353 . S
C734 C737 1.348 . S
C734 H782 0.929 . S
C735 C736 1.358 . S
C735 C737 1.356 . S
C735 H783 0.930 . S
C736 N733 1.279 . S
C736 C735 1.358 . S
C736 H739 0.930 . S
C737 C734 1.348 . S
C737 C735 1.356 . S
H738 C732 0.930 . S
H739 C736 0.930 . S
C740 C742 1.348 . S
C740 C743 1.356 . S
C740 O770 1.325 . S
N741 C744 1.314 . S
N741 C745 1.279 . S
C742 C740 1.348 . S
C742 C744 1.353 . S
C742 H784 0.929 . S
C743 C740 1.356 . S
C743 C745 1.358 . S
C743 H785 0.930 . S
C744 N741 1.314 . S
C744 C742 1.353 . S
C744 H786 0.930 . S
C745 N741 1.279 . S
C745 C743 1.358 . S
C745 H787 0.930 . S
C746 C747 1.348 . S
C746 C748 1.356 . S
C746 O771 1.325 . S
C747 C746 1.348 . S
C747 C749 1.353 . S
C747 H788 0.929 . S
C748 C746 1.356 . S
C748 C750 1.358 . S
C748 H789 0.930 . S
C749 C747 1.353 . S
C749 N751 1.314 . S
C749 H790 0.930 . S
C750 C748 1.358 . S
C750 N751 1.279 . S
C750 H791 0.930 . S
N751 C749 1.314 . S
N751 C750 1.279 . S
C752 C754 1.353 . S
C752 N755 1.314 . S
C752 H758 0.930 . S
C753 N755 1.279 . S
C753 C756 1.358 . S
C753 H759 0.930 . S
C754 C752 1.353 . S
C754 C757 1.348 . S
C754 H792 0.929 . S
N755 Li710 1.990 . S
N755 C752 1.314 . S
N755 C753 1.279 . S
C756 C753 1.358 . S
C756 C757 1.356 . S
C756 H793 0.930 . S
C757 C754 1.348 . S
C757 C756 1.356 . S
H758 C752 0.930 . S
H759 C753 0.930 . S
C760 N761 1.314 . S
C760 C762 1.353 . S
C760 H766 0.930 . S
N761 Li711 1.990 . S
N761 C760 1.314 . S
N761 C764 1.279 . S
C762 C760 1.353 . S
C762 C765 1.348 . S
C762 H794 0.929 . S
C763 C764 1.358 . S
C763 C765 1.356 . S
C763 H795 0.930 . S
C764 N761 1.279 . S
C764 C763 1.358 . S
C764 H767 0.930 . S
C765 C762 1.348 . S
C765 C763 1.356 . S
H766 C760 0.930 . S
H767 C764 0.930 . S
O768 Li708 1.956 . S
O768 Li709 1.970 . S
O768 Li710 1.961 . S
O768 C712 1.325 . S
O769 Li708 1.970 . S
O769 Li709 1.956 . S
O769 Li711 1.961 . S
O769 C718 1.325 . S
O770 Li708 1.961 . S
O770 Li710 1.956 . S
O770 Li711 1.970 . S
O770 C740 1.325 . S
O771 Li709 1.961 . S
O771 Li710 1.970 . S
O771 Li711 1.956 . S
O771 C746 1.325 . S
H772 C714 0.929 . S
H773 C715 0.930 . S
H774 C716 0.930 . S
H775 C717 0.930 . S
H776 C719 0.930 . S
H777 C721 0.929 . S
H778 C722 0.930 . S
H779 C723 0.930 . S
H780 C726 0.930 . S
H781 C729 0.929 . S
H782 C734 0.929 . S
H783 C735 0.930 . S
H784 C742 0.929 . S
H785 C743 0.930 . S
H786 C744 0.930 . S
H787 C745 0.930 . S
H788 C747 0.929 . S
H789 C748 0.930 . S
H790 C749 0.930 . S
H791 C750 0.930 . S
H792 C754 0.929 . S
H793 C756 0.930 . S
H794 C762 0.929 . S
H795 C763 0.930 . S
Li796 N813 1.990 . S
Li796 O856 1.956 . S
Li796 O857 1.970 . S
Li796 O858 1.961 . S
Li797 N821 1.990 . S
Li797 O856 1.970 . S
Li797 O857 1.956 . S
Li797 O859 1.961 . S
Li798 N843 1.990 . S
Li798 O856 1.961 . S
Li798 O858 1.956 . S
Li798 O859 1.970 . S
Li799 N849 1.990 . S
Li799 O857 1.961 . S
Li799 O858 1.970 . S
Li799 O859 1.956 . S
C800 C802 1.348 . S
C800 C803 1.356 . S
C800 O856 1.325 . S
N801 C804 1.314 . S
N801 C805 1.279 . S
C802 C800 1.348 . S
C802 C804 1.353 . S
C802 H860 0.929 . S
C803 C800 1.356 . S
C803 C805 1.358 . S
C803 H861 0.930 . S
C804 N801 1.314 . S
C804 C802 1.353 . S
C804 H862 0.930 . S
C805 N801 1.279 . S
C805 C803 1.358 . S
C805 H863 0.930 . S
C806 C809 1.348 . S
C806 C810 1.356 . S
C806 O857 1.325 . S
C807 N808 1.279 . S
C807 C810 1.358 . S
C807 H864 0.930 . S
N808 C807 1.279 . S
N808 C811 1.314 . S
C809 C806 1.348 . S
C809 C811 1.353 . S
C809 H865 0.929 . S
C810 C806 1.356 . S
C810 C807 1.358 . S
C810 H866 0.930 . S
C811 N808 1.314 . S
C811 C809 1.353 . S
C811 H867 0.930 . S
C812 N813 1.314 . S
C812 C817 1.353 . S
C812 H818 0.930 . S
N813 Li796 1.990 . S
N813 C812 1.314 . S
N813 C815 1.279 . S
C814 C815 1.358 . S
C814 C816 1.356 . S
C814 H868 0.930 . S
C815 N813 1.279 . S
C815 C814 1.358 . S
C815 H819 0.930 . S
C816 C814 1.356 . S
C816 C817 1.348 . S
C817 C812 1.353 . S
C817 C816 1.348 . S
C817 H869 0.929 . S
H818 C812 0.930 . S
H819 C815 0.930 . S
C820 N821 1.314 . S
C820 C822 1.353 . S
C820 H826 0.930 . S
N821 Li797 1.990 . S
N821 C820 1.314 . S
N821 C824 1.279 . S
C822 C820 1.353 . S
C822 C825 1.348 . S
C822 H870 0.929 . S
C823 C824 1.358 . S
C823 C825 1.356 . S
C823 H871 0.930 . S
C824 N821 1.279 . S
C824 C823 1.358 . S
C824 H827 0.930 . S
C825 C822 1.348 . S
C825 C823 1.356 . S
H826 C820 0.930 . S
H827 C824 0.930 . S
C828 C830 1.348 . S
C828 C831 1.356 . S
C828 O858 1.325 . S
N829 C832 1.314 . S
N829 C833 1.279 . S
C830 C828 1.348 . S
C830 C832 1.353 . S
C830 H872 0.929 . S
C831 C828 1.356 . S
C831 C833 1.358 . S
C831 H873 0.930 . S
C832 N829 1.314 . S
C832 C830 1.353 . S
C832 H874 0.930 . S
C833 N829 1.279 . S
C833 C831 1.358 . S
C833 H875 0.930 . S
C834 C835 1.348 . S
C834 C836 1.356 . S
C834 O859 1.325 . S
C835 C834 1.348 . S
C835 C837 1.353 . S
C835 H876 0.929 . S
C836 C834 1.356 . S
C836 C838 1.358 . S
C836 H877 0.930 . S
C837 C835 1.353 . S
C837 N839 1.314 . S
C837 H878 0.930 . S
C838 C836 1.358 . S
C838 N839 1.279 . S
C838 H879 0.930 . S
N839 C837 1.314 . S
N839 C838 1.279 . S
C840 C842 1.353 . S
C840 N843 1.314 . S
C840 H846 0.930 . S
C841 N843 1.279 . S
C841 C844 1.358 . S
C841 H847 0.930 . S
C842 C840 1.353 . S
C842 C845 1.348 . S
C842 H880 0.929 . S
N843 Li798 1.990 . S
N843 C840 1.314 . S
N843 C841 1.279 . S
C844 C841 1.358 . S
C844 C845 1.356 . S
C844 H881 0.930 1_554 S
C845 C842 1.348 . S
C845 C844 1.356 . S
H846 C840 0.930 . S
H847 C841 0.930 . S
C848 N849 1.314 . S
C848 C850 1.353 . S
C848 H854 0.930 . S
N849 Li799 1.990 . S
N849 C848 1.314 . S
N849 C852 1.279 . S
C850 C848 1.353 . S
C850 C853 1.348 . S
C850 H882 0.929 . S
C851 C852 1.358 . S
C851 C853 1.356 . S
C851 H883 0.930 . S
C852 N849 1.279 . S
C852 C851 1.358 . S
C852 H855 0.930 . S
C853 C850 1.348 . S
C853 C851 1.356 . S
H854 C848 0.930 . S
H855 C852 0.930 . S
O856 Li796 1.956 . S
O856 Li797 1.970 . S
O856 Li798 1.961 . S
O856 C800 1.325 . S
O857 Li796 1.970 . S
O857 Li797 1.956 . S
O857 Li799 1.961 . S
O857 C806 1.325 . S
O858 Li796 1.961 . S
O858 Li798 1.956 . S
O858 Li799 1.970 . S
O858 C828 1.325 . S
O859 Li797 1.961 . S
O859 Li798 1.970 . S
O859 Li799 1.956 . S
O859 C834 1.325 . S
H860 C802 0.929 . S
H861 C803 0.930 . S
H862 C804 0.930 . S
H863 C805 0.930 . S
H864 C807 0.930 . S
H865 C809 0.929 . S
H866 C810 0.930 . S
H867 C811 0.930 . S
H868 C814 0.930 . S
H869 C817 0.929 . S
H870 C822 0.929 . S
H871 C823 0.930 . S
H872 C830 0.929 . S
H873 C831 0.930 . S
H874 C832 0.930 . S
H875 C833 0.930 . S
H876 C835 0.929 . S
H877 C836 0.930 . S
H878 C837 0.930 . S
H879 C838 0.930 . S
H880 C842 0.929 . S
H881 C844 0.930 1_556 S
H882 C850 0.929 . S
H883 C851 0.930 . S
Li884 N901 1.990 . S
Li884 O944 1.956 . S
Li884 O945 1.970 . S
Li884 O946 1.961 . S
Li885 N909 1.990 . S
Li885 O944 1.970 . S
Li885 O945 1.956 . S
Li885 O947 1.961 . S
Li886 N931 1.990 . S
Li886 O944 1.961 . S
Li886 O946 1.956 . S
Li886 O947 1.970 . S
Li887 N937 1.990 . S
Li887 O945 1.961 . S
Li887 O946 1.970 . S
Li887 O947 1.956 . S
C888 C890 1.348 . S
C888 C891 1.356 . S
C888 O944 1.325 . S
N889 C892 1.314 . S
N889 C893 1.279 . S
C890 C888 1.348 . S
C890 C892 1.353 . S
C890 H948 0.929 . S
C891 C888 1.356 . S
C891 C893 1.358 . S
C891 H949 0.930 . S
C892 N889 1.314 . S
C892 C890 1.353 . S
C892 H950 0.930 . S
C893 N889 1.279 . S
C893 C891 1.358 . S
C893 H951 0.930 . S
C894 C897 1.348 . S
C894 C898 1.356 . S
C894 O945 1.325 . S
C895 N896 1.279 . S
C895 C898 1.358 . S
C895 H952 0.930 . S
N896 C895 1.279 . S
N896 C899 1.314 . S
C897 C894 1.348 . S
C897 C899 1.353 . S
C897 H953 0.929 . S
C898 C894 1.356 . S
C898 C895 1.358 . S
C898 H954 0.930 . S
C899 N896 1.314 . S
C899 C897 1.353 . S
C899 H955 0.930 . S
C900 N901 1.314 . S
C900 C905 1.353 . S
C900 H906 0.930 . S
N901 Li884 1.990 . S
N901 C900 1.314 . S
N901 C903 1.279 . S
C902 C903 1.358 . S
C902 C904 1.356 . S
C902 H956 0.930 . S
C903 N901 1.279 . S
C903 C902 1.358 . S
C903 H907 0.930 . S
C904 C902 1.356 . S
C904 C905 1.348 . S
C905 C900 1.353 . S
C905 C904 1.348 . S
C905 H957 0.929 . S
H906 C900 0.930 . S
H907 C903 0.930 . S
C908 N909 1.314 . S
C908 C910 1.353 . S
C908 H914 0.930 . S
N909 Li885 1.990 . S
N909 C908 1.314 . S
N909 C912 1.279 . S
C910 C908 1.353 . S
C910 C913 1.348 . S
C910 H958 0.929 . S
C911 C912 1.358 . S
C911 C913 1.356 . S
C911 H959 0.930 . S
C912 N909 1.279 . S
C912 C911 1.358 . S
C912 H915 0.930 . S
C913 C910 1.348 . S
C913 C911 1.356 . S
H914 C908 0.930 . S
H915 C912 0.930 . S
C916 C918 1.348 . S
C916 C919 1.356 . S
C916 O946 1.325 . S
N917 C920 1.314 . S
N917 C921 1.279 . S
C918 C916 1.348 . S
C918 C920 1.353 . S
C918 H960 0.929 . S
C919 C916 1.356 . S
C919 C921 1.358 . S
C919 H961 0.930 . S
C920 N917 1.314 . S
C920 C918 1.353 . S
C920 H962 0.930 . S
C921 N917 1.279 . S
C921 C919 1.358 . S
C921 H963 0.930 . S
C922 C923 1.348 . S
C922 C924 1.356 . S
C922 O947 1.325 . S
C923 C922 1.348 . S
C923 C925 1.353 . S
C923 H964 0.929 . S
C924 C922 1.356 . S
C924 C926 1.358 . S
C924 H965 0.930 . S
C925 C923 1.353 . S
C925 N927 1.314 . S
C925 H966 0.930 . S
C926 C924 1.358 . S
C926 N927 1.279 . S
C926 H967 0.930 . S
N927 C925 1.314 . S
N927 C926 1.279 . S
C928 C930 1.353 . S
C928 N931 1.314 . S
C928 H934 0.930 . S
C929 N931 1.279 . S
C929 C932 1.358 . S
C929 H935 0.930 . S
C930 C928 1.353 . S
C930 C933 1.348 . S
C930 H968 0.929 . S
N931 Li886 1.990 . S
N931 C928 1.314 . S
N931 C929 1.279 . S
C932 C929 1.358 . S
C932 C933 1.356 . S
C932 H969 0.930 . S
C933 C930 1.348 . S
C933 C932 1.356 . S
H934 C928 0.930 . S
H935 C929 0.930 . S
C936 N937 1.314 . S
C936 C938 1.353 . S
C936 H942 0.930 . S
N937 Li887 1.990 . S
N937 C936 1.314 . S
N937 C940 1.279 . S
C938 C936 1.353 . S
C938 C941 1.348 . S
C938 H970 0.929 . S
C939 C940 1.358 . S
C939 C941 1.356 . S
C939 H971 0.930 . S
C940 N937 1.279 . S
C940 C939 1.358 . S
C940 H943 0.930 . S
C941 C938 1.348 . S
C941 C939 1.356 . S
H942 C936 0.930 . S
H943 C940 0.930 . S
O944 Li884 1.956 . S
O944 Li885 1.970 . S
O944 Li886 1.961 . S
O944 C888 1.325 . S
O945 Li884 1.970 . S
O945 Li885 1.956 . S
O945 Li887 1.961 . S
O945 C894 1.325 . S
O946 Li884 1.961 . S
O946 Li886 1.956 . S
O946 Li887 1.970 . S
O946 C916 1.325 . S
O947 Li885 1.961 . S
O947 Li886 1.970 . S
O947 Li887 1.956 . S
O947 C922 1.325 . S
H948 C890 0.929 . S
H949 C891 0.930 . S
H950 C892 0.930 . S
H951 C893 0.930 . S
H952 C895 0.930 . S
H953 C897 0.929 . S
H954 C898 0.930 . S
H955 C899 0.930 . S
H956 C902 0.930 . S
H957 C905 0.929 . S
H958 C910 0.929 . S
H959 C911 0.930 . S
H960 C918 0.929 . S
H961 C919 0.930 . S
H962 C920 0.930 . S
H963 C921 0.930 . S
H964 C923 0.929 . S
H965 C924 0.930 . S
H966 C925 0.930 . S
H967 C926 0.930 . S
H968 C930 0.929 . S
H969 C932 0.930 . S
H970 C938 0.929 . S
H971 C939 0.930 . S
H972 C980 0.950 . S
H973 C985 0.950 . S
H974 C982 0.950 . S
H975 C984 0.950 . S
H976 C986 0.950 . S
H977 C988 0.950 . S
H978 C990 0.950 . S
H979 C991 0.950 . S
C980 H972 0.950 . S
C980 C981 1.386 . S
C980 C982 1.391 . S
C981 C980 1.386 . S
C981 C985 1.393 . S
C982 H974 0.950 . S
C982 C980 1.391 . S
C982 C983 1.400 . S
C983 C982 1.400 . S
C983 C984 1.398 . S
C983 C989 1.491 . S
C984 H975 0.950 . S
C984 C983 1.398 . S
C984 C985 1.391 . S
C985 H973 0.950 . S
C985 C981 1.393 . S
C985 C984 1.391 . S
C986 H976 0.950 . S
C986 C987 1.386 . S
C986 C988 1.391 . S
C987 C986 1.386 . S
C987 C991 1.393 . S
C988 H977 0.950 . S
C988 C986 1.391 . S
C988 C989 1.400 . S
C989 C983 1.491 . S
C989 C988 1.400 . S
C989 C990 1.398 . S
C990 H978 0.950 . S
C990 C989 1.398 . S
C990 C991 1.391 . S
C991 H979 0.950 . S
C991 C987 1.393 . S
C991 C990 1.391 . S
H992 C1000 0.950 . S
H993 C1005 0.950 . S
H994 C1002 0.950 . S
H995 C1004 0.950 . S
H996 C1006 0.950 . S
H997 C1008 0.950 . S
H998 C1010 0.950 . S
H999 C1011 0.950 . S
C1000 H992 0.950 . S
C1000 C1001 1.386 . S
C1000 C1002 1.391 . S
C1001 C1000 1.386 . S
C1001 C1005 1.393 . S
C1002 H994 0.950 . S
C1002 C1000 1.391 . S
C1002 C1003 1.400 . S
C1003 C1002 1.400 . S
C1003 C1004 1.398 . S
C1003 C1009 1.491 . S
C1004 H995 0.950 . S
C1004 C1003 1.398 . S
C1004 C1005 1.391 . S
C1005 H993 0.950 . S
C1005 C1001 1.393 . S
C1005 C1004 1.391 . S
C1006 H996 0.950 . S
C1006 C1007 1.386 . S
C1006 C1008 1.391 . S
C1007 C1006 1.386 . S
C1007 C1011 1.393 . S
C1008 H997 0.950 . S
C1008 C1006 1.391 . S
C1008 C1009 1.400 . S
C1009 C1003 1.491 . S
C1009 C1008 1.400 . S
C1009 C1010 1.398 . S
C1010 H998 0.950 . S
C1010 C1009 1.398 . S
C1010 C1011 1.391 . S
C1011 H999 0.950 . S
C1011 C1007 1.393 . S
C1011 C1010 1.391 . S
H1012 C1020 0.950 . S
H1013 C1025 0.950 . S
H1014 C1022 0.950 . S
H1015 C1024 0.950 . S
H1016 C1026 0.950 . S
H1017 C1028 0.950 . S
H1018 C1030 0.950 . S
H1019 C1031 0.950 . S
C1020 H1012 0.950 . S
C1020 C1021 1.386 . S
C1020 C1022 1.391 . S
C1021 C1020 1.386 . S
C1021 C1025 1.393 . S
C1022 H1014 0.950 . S
C1022 C1020 1.391 . S
C1022 C1023 1.400 . S
C1023 C1022 1.400 . S
C1023 C1024 1.398 . S
C1023 C1029 1.491 . S
C1024 H1015 0.950 . S
C1024 C1023 1.398 . S
C1024 C1025 1.391 . S
C1025 H1013 0.950 . S
C1025 C1021 1.393 . S
C1025 C1024 1.391 . S
C1026 H1016 0.950 . S
C1026 C1027 1.386 . S
C1026 C1028 1.391 . S
C1027 C1026 1.386 . S
C1027 C1031 1.393 . S
C1028 H1017 0.950 . S
C1028 C1026 1.391 . S
C1028 C1029 1.400 . S
C1029 C1023 1.491 . S
C1029 C1028 1.400 . S
C1029 C1030 1.398 . S
C1030 H1018 0.950 . S
C1030 C1029 1.398 . S
C1030 C1031 1.391 . S
C1031 H1019 0.950 . S
C1031 C1027 1.393 . S
C1031 C1030 1.391 . S
H1032 C1040 0.950 . S
H1033 C1045 0.950 . S
H1034 C1042 0.950 . S
H1035 C1044 0.950 . S
H1036 C1046 0.950 . S
H1037 C1048 0.950 . S
H1038 C1050 0.950 . S
H1039 C1051 0.950 . S
C1040 H1032 0.950 . S
C1040 C1041 1.386 . S
C1040 C1042 1.391 . S
C1041 C1040 1.386 . S
C1041 C1045 1.393 . S
C1042 H1034 0.950 . S
C1042 C1040 1.391 . S
C1042 C1043 1.400 . S
C1043 C1042 1.400 . S
C1043 C1044 1.398 . S
C1043 C1049 1.491 . S
C1044 H1035 0.950 . S
C1044 C1043 1.398 . S
C1044 C1045 1.391 . S
C1045 H1033 0.950 . S
C1045 C1041 1.393 . S
C1045 C1044 1.391 . S
C1046 H1036 0.950 . S
C1046 C1047 1.386 . S
C1046 C1048 1.391 . S
C1047 C1046 1.386 . S
C1047 C1051 1.393 . S
C1048 H1037 0.950 . S
C1048 C1046 1.391 . S
C1048 C1049 1.400 . S
C1049 C1043 1.491 . S
C1049 C1048 1.400 . S
C1049 C1050 1.398 . S
C1050 H1038 0.950 . S
C1050 C1049 1.398 . S
C1050 C1051 1.391 . S
C1051 H1039 0.950 . S
C1051 C1047 1.393 . S
C1051 C1050 1.391 . S
H1052 C1060 0.950 . S
H1053 C1065 0.950 . S
H1054 C1062 0.950 . S
H1055 C1064 0.950 . S
H1056 C1066 0.950 . S
H1057 C1068 0.950 . S
H1058 C1070 0.950 . S
H1059 C1071 0.950 . S
C1060 H1052 0.950 . S
C1060 C1061 1.386 . S
C1060 C1062 1.391 . S
C1061 C1060 1.386 . S
C1061 C1065 1.393 . S
C1062 H1054 0.950 . S
C1062 C1060 1.391 . S
C1062 C1063 1.400 . S
C1063 C1062 1.400 . S
C1063 C1064 1.398 . S
C1063 C1069 1.491 . S
C1064 H1055 0.950 . S
C1064 C1063 1.398 . S
C1064 C1065 1.391 . S
C1065 H1053 0.950 . S
C1065 C1061 1.393 . S
C1065 C1064 1.391 . S
C1066 H1056 0.950 . S
C1066 C1067 1.386 . S
C1066 C1068 1.391 . S
C1067 C1066 1.386 . S
C1067 C1071 1.393 . S
C1068 H1057 0.950 . S
C1068 C1066 1.391 . S
C1068 C1069 1.400 . S
C1069 C1063 1.491 . S
C1069 C1068 1.400 . S
C1069 C1070 1.398 . S
C1070 H1058 0.950 . S
C1070 C1069 1.398 . S
C1070 C1071 1.391 . S
C1071 H1059 0.950 . S
C1071 C1067 1.393 . S
C1071 C1070 1.391 . S
H1072 C1080 0.950 . S
H1073 C1085 0.950 . S
H1074 C1082 0.950 . S
H1075 C1084 0.950 . S
H1076 C1086 0.950 . S
H1077 C1088 0.950 . S
H1078 C1090 0.950 . S
H1079 C1091 0.950 . S
C1080 H1072 0.950 . S
C1080 C1081 1.386 . S
C1080 C1082 1.391 . S
C1081 C1080 1.386 . S
C1081 C1085 1.393 . S
C1082 H1074 0.950 . S
C1082 C1080 1.391 . S
C1082 C1083 1.400 . S
C1083 C1082 1.400 . S
C1083 C1084 1.398 . S
C1083 C1089 1.491 . S
C1084 H1075 0.950 . S
C1084 C1083 1.398 . S
C1084 C1085 1.391 . S
C1085 H1073 0.950 . S
C1085 C1081 1.393 . S
C1085 C1084 1.391 . S
C1086 H1076 0.950 . S
C1086 C1087 1.386 . S
C1086 C1088 1.391 . S
C1087 C1086 1.386 . S
C1087 C1091 1.393 . S
C1088 H1077 0.950 . S
C1088 C1086 1.391 . S
C1088 C1089 1.400 . S
C1089 C1083 1.491 . S
C1089 C1088 1.400 . S
C1089 C1090 1.398 . S
C1090 H1078 0.950 . S
C1090 C1089 1.398 . S
C1090 C1091 1.391 . S
C1091 H1079 0.950 . S
C1091 C1087 1.393 . S
C1091 C1090 1.391 . S
H1092 C1100 0.950 . S
H1093 C1105 0.950 . S
H1094 C1102 0.950 . S
H1095 C1104 0.950 . S
H1096 C1106 0.950 . S
H1097 C1108 0.950 . S
H1098 C1110 0.950 . S
H1099 C1111 0.950 . S
C1100 H1092 0.950 . S
C1100 C1101 1.386 . S
C1100 C1102 1.391 . S
C1101 C1100 1.386 . S
C1101 C1105 1.393 . S
C1102 H1094 0.950 . S
C1102 C1100 1.391 . S
C1102 C1103 1.400 . S
C1103 C1102 1.400 . S
C1103 C1104 1.398 . S
C1103 C1109 1.491 . S
C1104 H1095 0.950 . S
C1104 C1103 1.398 . S
C1104 C1105 1.391 . S
C1105 H1093 0.950 . S
C1105 C1101 1.393 . S
C1105 C1104 1.391 . S
C1106 H1096 0.950 . S
C1106 C1107 1.386 . S
C1106 C1108 1.391 . S
C1107 C1106 1.386 . S
C1107 C1111 1.393 . S
C1108 H1097 0.950 . S
C1108 C1106 1.391 . S
C1108 C1109 1.400 . S
C1109 C1103 1.491 . S
C1109 C1108 1.400 . S
C1109 C1110 1.398 . S
C1110 H1098 0.950 . S
C1110 C1109 1.398 . S
C1110 C1111 1.391 . S
C1111 H1099 0.950 . S
C1111 C1107 1.393 . S
C1111 C1110 1.391 . S
H1112 C1120 0.950 . S
H1113 C1125 0.950 . S
H1114 C1122 0.950 . S
H1115 C1124 0.950 . S
H1116 C1126 0.950 . S
H1117 C1128 0.950 . S
H1118 C1130 0.950 . S
H1119 C1131 0.950 . S
C1120 H1112 0.950 . S
C1120 C1121 1.386 . S
C1120 C1122 1.391 . S
C1121 C1120 1.386 . S
C1121 C1125 1.393 . S
C1122 H1114 0.950 . S
C1122 C1120 1.391 . S
C1122 C1123 1.400 . S
C1123 C1122 1.400 . S
C1123 C1124 1.398 . S
C1123 C1129 1.491 . S
C1124 H1115 0.950 . S
C1124 C1123 1.398 . S
C1124 C1125 1.391 . S
C1125 H1113 0.950 . S
C1125 C1121 1.393 . S
C1125 C1124 1.391 . S
C1126 H1116 0.950 . S
C1126 C1127 1.386 . S
C1126 C1128 1.391 . S
C1127 C1126 1.386 . S
C1127 C1131 1.393 . S
C1128 H1117 0.950 . S
C1128 C1126 1.391 . S
C1128 C1129 1.400 . S
C1129 C1123 1.491 . S
C1129 C1128 1.400 . S
C1129 C1130 1.398 . S
C1130 H1118 0.950 . S
C1130 C1129 1.398 . S
C1130 C1131 1.391 . S
C1131 H1119 0.950 . S
C1131 C1127 1.393 . S
C1131 C1130 1.391 . S
H1132 C1140 0.950 . S
H1133 C1145 0.950 . S
H1134 C1142 0.950 . S
H1135 C1144 0.950 . S
H1136 C1146 0.950 . S
H1137 C1148 0.950 . S
H1138 C1150 0.950 . S
H1139 C1151 0.950 . S
C1140 H1132 0.950 . S
C1140 C1141 1.386 . S
C1140 C1142 1.391 . S
C1141 C1140 1.386 . S
C1141 C1145 1.393 . S
C1142 H1134 0.950 . S
C1142 C1140 1.391 . S
C1142 C1143 1.400 . S
C1143 C1142 1.400 . S
C1143 C1144 1.398 . S
C1143 C1149 1.491 . S
C1144 H1135 0.950 . S
C1144 C1143 1.398 . S
C1144 C1145 1.391 . S
C1145 H1133 0.950 . S
C1145 C1141 1.393 . S
C1145 C1144 1.391 . S
C1146 H1136 0.950 . S
C1146 C1147 1.386 . S
C1146 C1148 1.391 . S
C1147 C1146 1.386 . S
C1147 C1151 1.393 . S
C1148 H1137 0.950 . S
C1148 C1146 1.391 . S
C1148 C1149 1.400 . S
C1149 C1143 1.491 . S
C1149 C1148 1.400 . S
C1149 C1150 1.398 . S
C1150 H1138 0.950 . S
C1150 C1149 1.398 . S
C1150 C1151 1.391 . S
C1151 H1139 0.950 . S
C1151 C1147 1.393 . S
C1151 C1150 1.391 . S
H1152 C1160 0.950 . S
H1153 C1165 0.950 . S
H1154 C1162 0.950 . S
H1155 C1164 0.950 . S
H1156 C1166 0.950 . S
H1157 C1168 0.950 . S
H1158 C1170 0.950 . S
H1159 C1171 0.950 . S
C1160 H1152 0.950 . S
C1160 C1161 1.386 . S
C1160 C1162 1.391 . S
C1161 C1160 1.386 . S
C1161 C1165 1.393 . S
C1162 H1154 0.950 . S
C1162 C1160 1.391 . S
C1162 C1163 1.400 . S
C1163 C1162 1.400 . S
C1163 C1164 1.398 . S
C1163 C1169 1.491 . S
C1164 H1155 0.950 . S
C1164 C1163 1.398 . S
C1164 C1165 1.391 . S
C1165 H1153 0.950 . S
C1165 C1161 1.393 . S
C1165 C1164 1.391 . S
C1166 H1156 0.950 . S
C1166 C1167 1.386 . S
C1166 C1168 1.391 . S
C1167 C1166 1.386 . S
C1167 C1171 1.393 . S
C1168 H1157 0.950 . S
C1168 C1166 1.391 . S
C1168 C1169 1.400 . S
C1169 C1163 1.491 . S
C1169 C1168 1.400 . S
C1169 C1170 1.398 . S
C1170 H1158 0.950 . S
C1170 C1169 1.398 . S
C1170 C1171 1.391 . S
C1171 H1159 0.950 . S
C1171 C1167 1.393 . S
C1171 C1170 1.391 . S
H1172 C1180 0.950 . S
H1173 C1185 0.950 . S
H1174 C1182 0.950 . S
H1175 C1184 0.950 . S
H1176 C1186 0.950 . S
H1177 C1188 0.950 . S
H1178 C1190 0.950 . S
H1179 C1191 0.950 . S
C1180 H1172 0.950 . S
C1180 C1181 1.386 . S
C1180 C1182 1.391 . S
C1181 C1180 1.386 . S
C1181 C1185 1.393 . S
C1182 H1174 0.950 . S
C1182 C1180 1.391 . S
C1182 C1183 1.400 . S
C1183 C1182 1.400 . S
C1183 C1184 1.398 . S
C1183 C1189 1.491 . S
C1184 H1175 0.950 . S
C1184 C1183 1.398 . S
C1184 C1185 1.391 . S
C1185 H1173 0.950 . S
C1185 C1181 1.393 . S
C1185 C1184 1.391 . S
C1186 H1176 0.950 . S
C1186 C1187 1.386 . S
C1186 C1188 1.391 . S
C1187 C1186 1.386 . S
C1187 C1191 1.393 . S
C1188 H1177 0.950 . S
C1188 C1186 1.391 . S
C1188 C1189 1.400 . S
C1189 C1183 1.491 . S
C1189 C1188 1.400 . S
C1189 C1190 1.398 . S
C1190 H1178 0.950 . S
C1190 C1189 1.398 . S
C1190 C1191 1.391 . S
C1191 H1179 0.950 . S
C1191 C1187 1.393 . S
C1191 C1190 1.391 . S
H1192 C1200 0.950 . S
H1193 C1205 0.950 . S
H1194 C1202 0.950 . S
H1195 C1204 0.950 . S
H1196 C1206 0.950 . S
H1197 C1208 0.950 . S
H1198 C1210 0.950 . S
H1199 C1211 0.950 . S
C1200 H1192 0.950 . S
C1200 C1201 1.386 . S
C1200 C1202 1.391 . S
C1201 C1200 1.386 . S
C1201 C1205 1.393 . S
C1202 H1194 0.950 . S
C1202 C1200 1.391 . S
C1202 C1203 1.400 . S
C1203 C1202 1.400 . S
C1203 C1204 1.398 . S
C1203 C1209 1.491 . S
C1204 H1195 0.950 . S
C1204 C1203 1.398 . S
C1204 C1205 1.391 . S
C1205 H1193 0.950 . S
C1205 C1201 1.393 . S
C1205 C1204 1.391 . S
C1206 H1196 0.950 . S
C1206 C1207 1.386 . S
C1206 C1208 1.391 . S
C1207 C1206 1.386 . S
C1207 C1211 1.393 . S
C1208 H1197 0.950 . S
C1208 C1206 1.391 . S
C1208 C1209 1.400 . S
C1209 C1203 1.491 . S
C1209 C1208 1.400 . S
C1209 C1210 1.398 . S
C1210 H1198 0.950 . S
C1210 C1209 1.398 . S
C1210 C1211 1.391 . S
C1211 H1199 0.950 . S
C1211 C1207 1.393 . S
C1211 C1210 1.391 . S
H1212 C1220 0.950 . S
H1213 C1225 0.950 . S
H1214 C1222 0.950 . S
H1215 C1224 0.950 . S
H1216 C1226 0.950 . S
H1217 C1228 0.950 . S
H1218 C1230 0.950 . S
H1219 C1231 0.950 . S
C1220 H1212 0.950 . S
C1220 C1221 1.386 . S
C1220 C1222 1.391 . S
C1221 C1220 1.386 . S
C1221 C1225 1.393 . S
C1222 H1214 0.950 . S
C1222 C1220 1.391 . S
C1222 C1223 1.400 . S
C1223 C1222 1.400 . S
C1223 C1224 1.398 . S
C1223 C1229 1.491 . S
C1224 H1215 0.950 . S
C1224 C1223 1.398 . S
C1224 C1225 1.391 . S
C1225 H1213 0.950 . S
C1225 C1221 1.393 . S
C1225 C1224 1.391 . S
C1226 H1216 0.950 . S
C1226 C1227 1.386 . S
C1226 C1228 1.391 . S
C1227 C1226 1.386 . S
C1227 C1231 1.393 . S
C1228 H1217 0.950 . S
C1228 C1226 1.391 . S
C1228 C1229 1.400 . S
C1229 C1223 1.491 . S
C1229 C1228 1.400 . S
C1229 C1230 1.398 . S
C1230 H1218 0.950 . S
C1230 C1229 1.398 . S
C1230 C1231 1.391 . S
C1231 H1219 0.950 . S
C1231 C1227 1.393 . S
C1231 C1230 1.391 . S
H1232 C1240 0.950 . S
H1233 C1245 0.950 . S
H1234 C1242 0.950 . S
H1235 C1244 0.950 . S
H1236 C1246 0.950 . S
H1237 C1248 0.950 . S
H1238 C1250 0.950 . S
H1239 C1251 0.950 . S
C1240 H1232 0.950 . S
C1240 C1241 1.386 . S
C1240 C1242 1.391 . S
C1241 C1240 1.386 . S
C1241 C1245 1.393 . S
C1242 H1234 0.950 . S
C1242 C1240 1.391 . S
C1242 C1243 1.400 . S
C1243 C1242 1.400 . S
C1243 C1244 1.398 . S
C1243 C1249 1.491 . S
C1244 H1235 0.950 . S
C1244 C1243 1.398 . S
C1244 C1245 1.391 . S
C1245 H1233 0.950 . S
C1245 C1241 1.393 . S
C1245 C1244 1.391 . S
C1246 H1236 0.950 . S
C1246 C1247 1.386 . S
C1246 C1248 1.391 . S
C1247 C1246 1.386 . S
C1247 C1251 1.393 . S
C1248 H1237 0.950 . S
C1248 C1246 1.391 . S
C1248 C1249 1.400 . S
C1249 C1243 1.491 . S
C1249 C1248 1.400 . S
C1249 C1250 1.398 . S
C1250 H1238 0.950 . S
C1250 C1249 1.398 . S
C1250 C1251 1.391 . S
C1251 H1239 0.950 . S
C1251 C1247 1.393 . S
C1251 C1250 1.391 . S
H1252 C1260 0.950 . S
H1253 C1265 0.950 . S
H1254 C1262 0.950 . S
H1255 C1264 0.950 . S
H1256 C1266 0.950 . S
H1257 C1268 0.950 . S
H1258 C1270 0.950 . S
H1259 C1271 0.950 . S
C1260 H1252 0.950 . S
C1260 C1261 1.386 . S
C1260 C1262 1.391 . S
C1261 C1260 1.386 . S
C1261 C1265 1.393 . S
C1262 H1254 0.950 . S
C1262 C1260 1.391 . S
C1262 C1263 1.400 . S
C1263 C1262 1.400 . S
C1263 C1264 1.398 . S
C1263 C1269 1.491 . S
C1264 H1255 0.950 . S
C1264 C1263 1.398 . S
C1264 C1265 1.391 . S
C1265 H1253 0.950 . S
C1265 C1261 1.393 . S
C1265 C1264 1.391 . S
C1266 H1256 0.950 . S
C1266 C1267 1.386 . S
C1266 C1268 1.391 . S
C1267 C1266 1.386 . S
C1267 C1271 1.393 . S
C1268 H1257 0.950 . S
C1268 C1266 1.391 . S
C1268 C1269 1.400 . S
C1269 C1263 1.491 . S
C1269 C1268 1.400 . S
C1269 C1270 1.398 . S
C1270 H1258 0.950 . S
C1270 C1269 1.398 . S
C1270 C1271 1.391 . S
C1271 H1259 0.950 . S
C1271 C1267 1.393 . S
C1271 C1270 1.391 . S
H1272 C1280 0.950 . S
H1273 C1285 0.950 . S
H1274 C1282 0.950 . S
H1275 C1284 0.950 . S
H1276 C1286 0.950 . S
H1277 C1288 0.950 . S
H1278 C1290 0.950 . S
H1279 C1291 0.950 . S
C1280 H1272 0.950 . S
C1280 C1281 1.386 . S
C1280 C1282 1.391 . S
C1281 C1280 1.386 . S
C1281 C1285 1.393 . S
C1282 H1274 0.950 . S
C1282 C1280 1.391 . S
C1282 C1283 1.400 . S
C1283 C1282 1.400 . S
C1283 C1284 1.398 . S
C1283 C1289 1.491 . S
C1284 H1275 0.950 . S
C1284 C1283 1.398 . S
C1284 C1285 1.391 . S
C1285 H1273 0.950 . S
C1285 C1281 1.393 . S
C1285 C1284 1.391 . S
C1286 H1276 0.950 . S
C1286 C1287 1.386 . S
C1286 C1288 1.391 . S
C1287 C1286 1.386 . S
C1287 C1291 1.393 . S
C1288 H1277 0.950 . S
C1288 C1286 1.391 . S
C1288 C1289 1.400 . S
C1289 C1283 1.491 . S
C1289 C1288 1.400 . S
C1289 C1290 1.398 . S
C1290 H1278 0.950 . S
C1290 C1289 1.398 . S
C1290 C1291 1.391 . S
C1291 H1279 0.950 . S
C1291 C1287 1.393 . S
C1291 C1290 1.391 . S
H1292 C1300 0.950 . S
H1293 C1305 0.950 . S
H1294 C1302 0.950 . S
H1295 C1304 0.950 . S
H1296 C1306 0.950 . S
H1297 C1308 0.950 . S
H1298 C1310 0.950 . S
H1299 C1311 0.950 . S
C1300 H1292 0.950 . S
C1300 C1301 1.386 . S
C1300 C1302 1.391 . S
C1301 C1300 1.386 . S
C1301 C1305 1.393 . S
C1302 H1294 0.950 . S
C1302 C1300 1.391 . S
C1302 C1303 1.400 . S
C1303 C1302 1.400 . S
C1303 C1304 1.398 . S
C1303 C1309 1.491 . S
C1304 H1295 0.950 . S
C1304 C1303 1.398 . S
C1304 C1305 1.391 . S
C1305 H1293 0.950 . S
C1305 C1301 1.393 . S
C1305 C1304 1.391 . S
C1306 H1296 0.950 . S
C1306 C1307 1.386 . S
C1306 C1308 1.391 . S
C1307 C1306 1.386 . S
C1307 C1311 1.393 . S
C1308 H1297 0.950 . S
C1308 C1306 1.391 . S
C1308 C1309 1.400 . S
C1309 C1303 1.491 . S
C1309 C1308 1.400 . S
C1309 C1310 1.398 . S
C1310 H1298 0.950 . S
C1310 C1309 1.398 . S
C1310 C1311 1.391 . S
C1311 H1299 0.950 . S
C1311 C1307 1.393 . S
C1311 C1310 1.391 . S
H1312 C1320 0.950 . S
H1313 C1325 0.950 . S
H1314 C1322 0.950 . S
H1315 C1324 0.950 . S
H1316 C1326 0.950 . S
H1317 C1328 0.950 . S
H1318 C1330 0.950 . S
H1319 C1331 0.950 . S
C1320 H1312 0.950 . S
C1320 C1321 1.386 . S
C1320 C1322 1.391 . S
C1321 C1320 1.386 . S
C1321 C1325 1.393 . S
C1322 H1314 0.950 . S
C1322 C1320 1.391 . S
C1322 C1323 1.400 . S
C1323 C1322 1.400 . S
C1323 C1324 1.398 . S
C1323 C1329 1.491 . S
C1324 H1315 0.950 . S
C1324 C1323 1.398 . S
C1324 C1325 1.391 . S
C1325 H1313 0.950 . S
C1325 C1321 1.393 . S
C1325 C1324 1.391 . S
C1326 H1316 0.950 . S
C1326 C1327 1.386 . S
C1326 C1328 1.391 . S
C1327 C1326 1.386 . S
C1327 C1331 1.393 . S
C1328 H1317 0.950 . S
C1328 C1326 1.391 . S
C1328 C1329 1.400 . S
C1329 C1323 1.491 . S
C1329 C1328 1.400 . S
C1329 C1330 1.398 . S
C1330 H1318 0.950 . S
C1330 C1329 1.398 . S
C1330 C1331 1.391 . S
C1331 H1319 0.950 . S
C1331 C1327 1.393 . S
C1331 C1330 1.391 . S
H1332 C1340 0.950 . S
H1333 C1345 0.950 . S
H1334 C1342 0.950 . S
H1335 C1344 0.950 . S
H1336 C1346 0.950 . S
H1337 C1348 0.950 . S
H1338 C1350 0.950 . S
H1339 C1351 0.950 . S
C1340 H1332 0.950 . S
C1340 C1341 1.386 . S
C1340 C1342 1.391 . S
C1341 C1340 1.386 . S
C1341 C1345 1.393 . S
C1342 H1334 0.950 . S
C1342 C1340 1.391 . S
C1342 C1343 1.400 . S
C1343 C1342 1.400 . S
C1343 C1344 1.398 . S
C1343 C1349 1.491 . S
C1344 H1335 0.950 . S
C1344 C1343 1.398 . S
C1344 C1345 1.391 . S
C1345 H1333 0.950 . S
C1345 C1341 1.393 . S
C1345 C1344 1.391 . S
C1346 H1336 0.950 . S
C1346 C1347 1.386 . S
C1346 C1348 1.391 . S
C1347 C1346 1.386 . S
C1347 C1351 1.393 . S
C1348 H1337 0.950 . S
C1348 C1346 1.391 . S
C1348 C1349 1.400 . S
C1349 C1343 1.491 . S
C1349 C1348 1.400 . S
C1349 C1350 1.398 . S
C1350 H1338 0.950 . S
C1350 C1349 1.398 . S
C1350 C1351 1.391 . S
C1351 H1339 0.950 . S
C1351 C1347 1.393 . S
C1351 C1350 1.391 . S
H1352 C1360 0.950 . S
H1353 C1365 0.950 . S
H1354 C1362 0.950 . S
H1355 C1364 0.950 . S
H1356 C1366 0.950 . S
H1357 C1368 0.950 . S
H1358 C1370 0.950 . S
H1359 C1371 0.950 . S
C1360 H1352 0.950 . S
C1360 C1361 1.386 . S
C1360 C1362 1.391 . S
C1361 C1360 1.386 . S
C1361 C1365 1.393 . S
C1362 H1354 0.950 . S
C1362 C1360 1.391 . S
C1362 C1363 1.400 . S
C1363 C1362 1.400 . S
C1363 C1364 1.398 . S
C1363 C1369 1.491 . S
C1364 H1355 0.950 . S
C1364 C1363 1.398 . S
C1364 C1365 1.391 . S
C1365 H1353 0.950 . S
C1365 C1361 1.393 . S
C1365 C1364 1.391 . S
C1366 H1356 0.950 . S
C1366 C1367 1.386 . S
C1366 C1368 1.391 . S
C1367 C1366 1.386 . S
C1367 C1371 1.393 . S
C1368 H1357 0.950 . S
C1368 C1366 1.391 . S
C1368 C1369 1.400 . S
C1369 C1363 1.491 . S
C1369 C1368 1.400 . S
C1369 C1370 1.398 . S
C1370 H1358 0.950 . S
C1370 C1369 1.398 . S
C1370 C1371 1.391 . S
C1371 H1359 0.950 . S
C1371 C1367 1.393 . S
C1371 C1370 1.391 . S
H1372 C1380 0.950 . S
H1373 C1385 0.950 . S
H1374 C1382 0.950 . S
H1375 C1384 0.950 . S
H1376 C1386 0.950 . S
H1377 C1388 0.950 . S
H1378 C1390 0.950 . S
H1379 C1391 0.950 . S
C1380 H1372 0.950 . S
C1380 C1381 1.386 . S
C1380 C1382 1.391 . S
C1381 C1380 1.386 . S
C1381 C1385 1.393 . S
C1382 H1374 0.950 . S
C1382 C1380 1.391 . S
C1382 C1383 1.400 . S
C1383 C1382 1.400 . S
C1383 C1384 1.398 . S
C1383 C1389 1.491 . S
C1384 H1375 0.950 . S
C1384 C1383 1.398 . S
C1384 C1385 1.391 . S
C1385 H1373 0.950 . S
C1385 C1381 1.393 . S
C1385 C1384 1.391 . S
C1386 H1376 0.950 . S
C1386 C1387 1.386 . S
C1386 C1388 1.391 . S
C1387 C1386 1.386 . S
C1387 C1391 1.393 . S
C1388 H1377 0.950 . S
C1388 C1386 1.391 . S
C1388 C1389 1.400 . S
C1389 C1383 1.491 . S
C1389 C1388 1.400 . S
C1389 C1390 1.398 . S
C1390 H1378 0.950 . S
C1390 C1389 1.398 . S
C1390 C1391 1.391 . S
C1391 H1379 0.950 . S
C1391 C1387 1.393 . S
C1391 C1390 1.391 . S
H1392 C1400 0.950 . S
H1393 C1405 0.950 . S
H1394 C1402 0.950 . S
H1395 C1404 0.950 . S
H1396 C1406 0.950 . S
H1397 C1408 0.950 . S
H1398 C1410 0.950 . S
H1399 C1411 0.950 . S
C1400 H1392 0.950 . S
C1400 C1401 1.386 . S
C1400 C1402 1.391 . S
C1401 C1400 1.386 . S
C1401 C1405 1.393 . S
C1402 H1394 0.950 . S
C1402 C1400 1.391 . S
C1402 C1403 1.400 . S
C1403 C1402 1.400 . S
C1403 C1404 1.398 . S
C1403 C1409 1.491 . S
C1404 H1395 0.950 . S
C1404 C1403 1.398 . S
C1404 C1405 1.391 . S
C1405 H1393 0.950 . S
C1405 C1401 1.393 . S
C1405 C1404 1.391 . S
C1406 H1396 0.950 . S
C1406 C1407 1.386 . S
C1406 C1408 1.391 . S
C1407 C1406 1.386 . S
C1407 C1411 1.393 . S
C1408 H1397 0.950 . S
C1408 C1406 1.391 . S
C1408 C1409 1.400 . S
C1409 C1403 1.491 . S
C1409 C1408 1.400 . S
C1409 C1410 1.398 . S
C1410 H1398 0.950 . S
C1410 C1409 1.398 . S
C1410 C1411 1.391 . S
C1411 H1399 0.950 . S
C1411 C1407 1.393 . S
C1411 C1410 1.391 . S
H1412 C1420 0.950 . S
H1413 C1425 0.950 . S
H1414 C1422 0.950 . S
H1415 C1424 0.950 . S
H1416 C1426 0.950 . S
H1417 C1428 0.950 . S
H1418 C1430 0.950 . S
H1419 C1431 0.950 1_556 S
C1420 H1412 0.950 . S
C1420 C1421 1.386 . S
C1420 C1422 1.391 . S
C1421 C1420 1.386 . S
C1421 C1425 1.393 . S
C1422 H1414 0.950 . S
C1422 C1420 1.391 . S
C1422 C1423 1.400 . S
C1423 C1422 1.400 . S
C1423 C1424 1.398 . S
C1423 C1429 1.491 . S
C1424 H1415 0.950 . S
C1424 C1423 1.398 . S
C1424 C1425 1.391 . S
C1425 H1413 0.950 . S
C1425 C1421 1.393 . S
C1425 C1424 1.391 . S
C1426 H1416 0.950 . S
C1426 C1427 1.386 1_554 S
C1426 C1428 1.391 . S
C1427 C1426 1.386 1_556 S
C1427 C1431 1.393 1_556 S
C1428 H1417 0.950 . S
C1428 C1426 1.391 . S
C1428 C1429 1.400 . S
C1429 C1423 1.491 . S
C1429 C1428 1.400 . S
C1429 C1430 1.398 . S
C1430 H1418 0.950 . S
C1430 C1429 1.398 . S
C1430 C1431 1.391 . S
C1431 H1419 0.950 1_554 S
C1431 C1427 1.393 1_554 S
C1431 C1430 1.391 . S
H1432 C1440 0.950 . S
H1433 C1445 0.950 . S
H1434 C1442 0.950 . S
H1435 C1444 0.950 . S
H1436 C1446 0.950 . S
H1437 C1448 0.950 . S
H1438 C1450 0.950 . S
H1439 C1451 0.950 . S
C1440 H1432 0.950 . S
C1440 C1441 1.386 . S
C1440 C1442 1.391 . S
C1441 C1440 1.386 . S
C1441 C1445 1.393 . S
C1442 H1434 0.950 . S
C1442 C1440 1.391 . S
C1442 C1443 1.400 . S
C1443 C1442 1.400 . S
C1443 C1444 1.398 . S
C1443 C1449 1.491 . S
C1444 H1435 0.950 . S
C1444 C1443 1.398 . S
C1444 C1445 1.391 . S
C1445 H1433 0.950 . S
C1445 C1441 1.393 . S
C1445 C1444 1.391 . S
C1446 H1436 0.950 . S
C1446 C1447 1.386 . S
C1446 C1448 1.391 . S
C1447 C1446 1.386 . S
C1447 C1451 1.393 . S
C1448 H1437 0.950 . S
C1448 C1446 1.391 . S
C1448 C1449 1.400 . S
C1449 C1443 1.491 . S
C1449 C1448 1.400 . S
C1449 C1450 1.398 . S
C1450 H1438 0.950 . S
C1450 C1449 1.398 . S
C1450 C1451 1.391 . S
C1451 H1439 0.950 . S
C1451 C1447 1.393 . S
C1451 C1450 1.391 . S
C987 C913 1.176 . S
C981 C51 1.165 . S
C1001 C125 1.645 . S
C1007 C473 1.651 . S
C1021 C217 2.610 . S
C1027 C561 2.616 . S
C1041 C291 1.832 . S
C1047 C640 1.839 . S
C1067 C737 0.684 . S
C1061 C347 0.697 . S
C1081 C421 0.916 . S
C1087 C816 0.934 . S
C1101 C143 2.621 . S
C1107 C581 2.621 . S
C1121 C199 1.397 . S
C1127 C677 1.396 . S
C1141 C273 0.677 . S
C1147 C757 0.677 . S
C1167 C853 1.526 . S
C1161 C365 1.533 . S
C1187 C933 2.208 . S
C1181 C439 2.233 . S
C1207 C493 2.496 . S
C1201 C69 2.514 . S
C1221 C63 1.348 . S
C1227 C589 1.413 . S
C1241 C137 1.421 . S
C1247 C669 1.469 . S
C1267 C765 1.271 . S
C1261 C187 1.245 . S
C1281 C261 1.354 . S
C1287 C845 1.405 1_556 S
C1307 C941 1.287 . S
C1301 C359 1.223 . S
C1327 C501 1.025 . S
C1321 C433 1.004 . S
C1347 C904 1.627 . S
C1341 C113 1.620 . S
C1361 C211 1.340 . S
C1367 C464 1.389 . S
C1387 C552 1.480 . S
C1381 C285 1.403 . S
C1401 C335 1.209 . S
C1407 C649 1.258 . S
C1421 C409 1.315 . S
C1427 C728 1.347 . S
C1441 C39 1.718 . S
C1447 C825 1.737 . S
