# Generated by pormake.
# Topology zzz, (3,6)-cn, num edge types: 1
# Building blocks:
#     Node 0, Type 0, BuildingBlock: KAKCAD_clean_linker_0, # of connection points: 3
#     Node 1, Type 0, BuildingBlock: KAKCAD_clean_linker_0, # of connection points: 3
#     Node 2, Type 0, BuildingBlock: KAKCAD_clean_linker_0, # of connection points: 3
#     Node 3, Type 0, BuildingBlock: KAKCAD_clean_linker_0, # of connection points: 3
#     Node 4, Type 0, BuildingBlock: KAKCAD_clean_linker_0, # of connection points: 3
#     Node 5, Type 0, BuildingBlock: KAKCAD_clean_linker_0, # of connection points: 3
#     Node 6, Type 0, BuildingBlock: KAKCAD_clean_linker_0, # of connection points: 3
#     Node 7, Type 0, BuildingBlock: KAKCAD_clean_linker_0, # of connection points: 3
#     Node 8, Type 1, BuildingBlock: FUNLAD_clean_sbu_0, # of connection points: 6
#     Node 9, Type 1, BuildingBlock: FUNLAD_clean_sbu_0, # of connection points: 6
#     Node 10, Type 1, BuildingBlock: FUNLAD_clean_sbu_0, # of connection points: 6
#     Node 11, Type 1, BuildingBlock: FUNLAD_clean_sbu_0, # of connection points: 6
#     Edge 12, Type (0, 1), BuildingBlock: TEMPAE_clean_linker_10, # of connection points: 2
#     Edge 13, Type (0, 1), BuildingBlock: TEMPAE_clean_linker_10, # of connection points: 2
#     Edge 14, Type (0, 1), BuildingBlock: TEMPAE_clean_linker_10, # of connection points: 2
#     Edge 15, Type (0, 1), BuildingBlock: TEMPAE_clean_linker_10, # of connection points: 2
#     Edge 16, Type (0, 1), BuildingBlock: TEMPAE_clean_linker_10, # of connection points: 2
#     Edge 17, Type (0, 1), BuildingBlock: TEMPAE_clean_linker_10, # of connection points: 2
#     Edge 18, Type (0, 1), BuildingBlock: TEMPAE_clean_linker_10, # of connection points: 2
#     Edge 19, Type (0, 1), BuildingBlock: TEMPAE_clean_linker_10, # of connection points: 2
#     Edge 20, Type (0, 1), BuildingBlock: TEMPAE_clean_linker_10, # of connection points: 2
#     Edge 21, Type (0, 1), BuildingBlock: TEMPAE_clean_linker_10, # of connection points: 2
#     Edge 22, Type (0, 1), BuildingBlock: TEMPAE_clean_linker_10, # of connection points: 2
#     Edge 23, Type (0, 1), BuildingBlock: TEMPAE_clean_linker_10, # of connection points: 2
#     Edge 24, Type (0, 1), BuildingBlock: TEMPAE_clean_linker_10, # of connection points: 2
#     Edge 25, Type (0, 1), BuildingBlock: TEMPAE_clean_linker_10, # of connection points: 2
#     Edge 26, Type (0, 1), BuildingBlock: TEMPAE_clean_linker_10, # of connection points: 2
#     Edge 27, Type (0, 1), BuildingBlock: TEMPAE_clean_linker_10, # of connection points: 2
#     Edge 28, Type (0, 1), BuildingBlock: TEMPAE_clean_linker_10, # of connection points: 2
#     Edge 29, Type (0, 1), BuildingBlock: TEMPAE_clean_linker_10, # of connection points: 2
#     Edge 30, Type (0, 1), BuildingBlock: TEMPAE_clean_linker_10, # of connection points: 2
#     Edge 31, Type (0, 1), BuildingBlock: TEMPAE_clean_linker_10, # of connection points: 2
#     Edge 32, Type (0, 1), BuildingBlock: TEMPAE_clean_linker_10, # of connection points: 2
#     Edge 33, Type (0, 1), BuildingBlock: TEMPAE_clean_linker_10, # of connection points: 2
#     Edge 34, Type (0, 1), BuildingBlock: TEMPAE_clean_linker_10, # of connection points: 2
#     Edge 35, Type (0, 1), BuildingBlock: TEMPAE_clean_linker_10, # of connection points: 2
# Relax obj value: 0.278
# Max RMSD: 0.225
# Mean RMSD: 0.191
data_MOF--net-zzz--node1-FUNLAD_clean_sbu_0--node2-KAKCAD_clean_linker_0--edge1-TEMPAE_clean_linker_10
_symmetry_space_group_name_H-M    P1
_symmetry_Int_Tables_number       1
_symmetry_cell_setting            triclinic
loop_
_symmetry_equiv_pos_as_xyz
'x, y, z'
_cell_length_a     58.772371
_cell_length_b     63.504031
_cell_length_c     22.861027
_cell_angle_alpha  86.835235
_cell_angle_beta   87.232865
_cell_angle_gamma 92.258397
loop_
_atom_site_label
_atom_site_type_symbol
_atom_site_fract_x
_atom_site_fract_y
_atom_site_fract_z
_atom_type_partial_charge
C0 C 0.85776 0.40967 0.01792 0.0
C1 C 0.87677 0.39843 0.03466 0.0
C2 C 0.83949 0.41208 0.05777 0.0
C3 C 0.83972 0.40335 0.11553 0.0
C4 C 0.85799 0.39092 0.13131 0.0
C5 C 0.87633 0.38846 0.09123 0.0
C6 C 0.82248 0.40963 0.16028 0.0
C7 C 0.79972 0.41197 0.14612 0.0
C8 C 0.78444 0.42202 0.18346 0.0
C9 C 0.79199 0.42937 0.23642 0.0
C10 C 0.81449 0.42635 0.25232 0.0
C11 C 0.82952 0.41638 0.21417 0.0
C12 C 0.82342 0.43531 0.30555 0.0
C13 C 0.82107 0.45676 0.31571 0.0
C14 C 0.83689 0.42312 0.34226 0.0
C15 C 0.84884 0.43241 0.3861 0.0
C16 C 0.8477 0.45415 0.39393 0.0
C17 C 0.76145 0.42656 0.16334 0.0
C18 C 0.7537 0.44721 0.16276 0.0
C19 C 0.74828 0.4108 0.13837 0.0
C20 C 0.72834 0.41578 0.11076 0.0
C21 C 0.72124 0.43668 0.10701 0.0
C22 C 0.73382 0.45224 0.13472 0.0
C23 C 0.83321 0.46613 0.35936 0.0
H24 H 0.85762 0.41794 0.97523 0.0
H25 H 0.82593 0.42206 0.04431 0.0
H26 H 0.8585 0.38378 0.17534 0.0
H27 H 0.89057 0.37946 0.10527 0.0
H28 H 0.79421 0.40699 0.10427 0.0
H29 H 0.84726 0.41535 0.22463 0.0
H30 H 0.78046 0.43752 0.26497 0.0
H31 H 0.81092 0.46654 0.28772 0.0
H32 H 0.83893 0.40654 0.33537 0.0
H33 H 0.86001 0.42278 0.41159 0.0
H34 H 0.76367 0.45972 0.18111 0.0
H35 H 0.75377 0.39471 0.13878 0.0
H36 H 0.83187 0.48288 0.36476 0.0
H37 H 0.72896 0.46853 0.13228 0.0
H38 H 0.71877 0.40332 0.09111 0.0
C39 C 0.9713 0.81987 0.98694 0.0
C40 C 0.98949 0.83183 0.00788 0.0
C41 C 0.96019 0.80366 0.02247 0.0
C42 C 0.96695 0.79927 0.07978 0.0
C43 C 0.9857 0.81071 0.09991 0.0
C44 C 0.99694 0.82679 0.06417 0.0
C45 C 0.9536 0.78376 0.11973 0.0
C46 C 0.94699 0.76386 0.10129 0.0
C47 C 0.93411 0.74923 0.13929 0.0
C48 C 0.92753 0.75488 0.19623 0.0
C49 C 0.93396 0.77488 0.21457 0.0
C50 C 0.94702 0.78911 0.17641 0.0
C51 C 0.92738 0.78183 0.27313 0.0
C52 C 0.90623 0.79087 0.2827 0.0
C53 C 0.94432 0.78453 0.31342 0.0
C54 C 0.94094 0.79761 0.35983 0.0
C55 C 0.92058 0.80838 0.36649 0.0
C56 C 0.92896 0.7278 0.1195 0.0
C57 C 0.92161 0.72529 0.06263 0.0
C58 C 0.93408 0.70984 0.15422 0.0
C59 C 0.93352 0.68993 0.13083 0.0
C60 C 0.92772 0.68765 0.07244 0.0
C61 C 0.92098 0.70544 0.03935 0.0
C62 C 0.90281 0.80403 0.3292 0.0
H63 H 0.96537 0.82336 0.94346 0.0
H64 H 0.94575 0.79513 0.00599 0.0
H65 H 0.99138 0.80747 0.14376 0.0
H66 H 0.01085 0.83584 0.08142 0.0
H67 H 0.95255 0.75952 0.05784 0.0
H68 H 0.95169 0.80464 0.19072 0.0
H69 H 0.91756 0.74382 0.22598 0.0
H70 H 0.89308 0.78921 0.25144 0.0
H71 H 0.9609 0.77797 0.30604 0.0
H72 H 0.95511 0.80075 0.38711 0.0
H73 H 0.91733 0.73887 0.03515 0.0
H74 H 0.93985 0.71133 0.19814 0.0
H75 H 0.88684 0.81188 0.3336 0.0
H76 H 0.91656 0.70428 0.99416 0.0
H77 H 0.93851 0.67646 0.15764 0.0
C78 C 0.70005 0.0384 0.97956 0.0
C79 C 0.68422 0.05317 0.99731 0.0
C80 C 0.71753 0.03257 0.01553 0.0
C81 C 0.71945 0.04117 0.07037 0.0
C82 C 0.70448 0.05676 0.0869 0.0
C83 C 0.68713 0.0628 0.05056 0.0
C84 C 0.73532 0.03214 0.11246 0.0
C85 C 0.75789 0.02844 0.0948 0.0
C86 C 0.77226 0.01781 0.13289 0.0
C87 C 0.7636 0.01046 0.18946 0.0
C88 C 0.74103 0.01464 0.20795 0.0
C89 C 0.72721 0.02552 0.16931 0.0
C90 C 0.73064 0.0076 0.26648 0.0
C91 C 0.72133 0.98694 0.27645 0.0
C92 C 0.72489 0.0228 0.30636 0.0
C93 C 0.70914 0.0178 0.35347 0.0
C94 C 0.69854 0.99751 0.36143 0.0
C95 C 0.7961 0.01469 0.11137 0.0
C96 C 0.80396 0.9944 0.10323 0.0
C97 C 0.80993 0.03229 0.09036 0.0
C98 C 0.83065 0.02974 0.0594 0.0
C99 C 0.838 0.00949 0.04778 0.0
C100 C 0.8247 0.99182 0.07162 0.0
C101 C 0.70544 0.98193 0.32348 0.0
H102 H 0.69819 0.03032 0.93946 0.0
H103 H 0.72867 0.02035 0.002 0.0
H104 H 0.70579 0.0638 0.12877 0.0
H105 H 0.67555 0.07451 0.06512 0.0
H106 H 0.76425 0.03362 0.05081 0.0
H107 H 0.70964 0.02808 0.18297 0.0
H108 H 0.77438 0.00202 0.219 0.0
H109 H 0.72511 0.97507 0.24554 0.0
H110 H 0.73142 0.03897 0.29872 0.0
H111 H 0.70412 0.03029 0.38119 0.0
H112 H 0.79347 0.98058 0.11833 0.0
H113 H 0.80428 0.04812 0.09613 0.0
H114 H 0.69783 0.96609 0.32866 0.0
H115 H 0.82971 0.97598 0.06345 0.0
H116 H 0.84065 0.04374 0.04326 0.0
C117 C 0.57215 0.68012 0.40079 0.0
C118 C 0.58277 0.66074 0.39541 0.0
C119 C 0.56831 0.69309 0.35096 0.0
C120 C 0.57532 0.68708 0.29491 0.0
C121 C 0.58833 0.6691 0.29036 0.0
C122 C 0.59179 0.65597 0.33974 0.0
C123 C 0.56602 0.69715 0.2414 0.0
C124 C 0.56424 0.71918 0.23339 0.0
C125 C 0.55357 0.72781 0.18424 0.0
C126 C 0.54488 0.71439 0.14311 0.0
C127 C 0.54696 0.69257 0.15005 0.0
C128 C 0.55738 0.68409 0.19923 0.0
C129 C 0.53852 0.67849 0.10576 0.0
C130 C 0.51622 0.67977 0.08667 0.0
C131 C 0.55271 0.66327 0.08342 0.0
C132 C 0.54471 0.6494 0.0432 0.0
C133 C 0.52228 0.65033 0.02494 0.0
C134 C 0.55183 0.75081 0.17317 0.0
C135 C 0.53057 0.75898 0.16149 0.0
C136 C 0.57155 0.76402 0.1645 0.0
C137 C 0.5702 0.7846 0.13983 0.0
C138 C 0.54907 0.79219 0.12374 0.0
C139 C 0.52919 0.77949 0.13729 0.0
C140 C 0.50808 0.66566 0.0469 0.0
H141 H 0.56563 0.68473 0.44308 0.0
H142 H 0.5584 0.70696 0.35602 0.0
H143 H 0.59448 0.66433 0.24785 0.0
H144 H 0.60001 0.64129 0.33307 0.0
H145 H 0.5709 0.72952 0.26525 0.0
H146 H 0.55805 0.66708 0.20548 0.0
H147 H 0.53708 0.72101 0.10457 0.0
H148 H 0.50495 0.69135 0.10357 0.0
H149 H 0.57002 0.66207 0.09722 0.0
H150 H 0.55592 0.63757 0.02742 0.0
H151 H 0.51512 0.74907 0.16821 0.0
H152 H 0.58814 0.75796 0.17278 0.0
H153 H 0.49073 0.66668 0.03336 0.0
H154 H 0.51263 0.78508 0.12661 0.0
H155 H 0.58581 0.79401 0.12981 0.0
C156 C 0.15996 0.61286 0.30371 0.0
C157 C 0.15888 0.60281 0.36024 0.0
C158 C 0.17825 0.6097 0.26407 0.0
C159 C 0.19581 0.59646 0.28025 0.0
C160 C 0.19546 0.58765 0.33803 0.0
C161 C 0.17725 0.59077 0.37744 0.0
C162 C 0.21276 0.58944 0.23582 0.0
C163 C 0.23524 0.5859 0.25062 0.0
C164 C 0.24996 0.57506 0.21371 0.0
C165 C 0.24219 0.56824 0.16039 0.0
C166 C 0.22001 0.57242 0.14386 0.0
C167 C 0.20551 0.58312 0.18167 0.0
C168 C 0.21072 0.56385 0.09049 0.0
C169 C 0.19777 0.57657 0.05374 0.0
C170 C 0.21227 0.54234 0.08007 0.0
C171 C 0.19989 0.53346 0.03609 0.0
C172 C 0.18592 0.54598 0.00145 0.0
C173 C 0.27242 0.56905 0.23473 0.0
C174 C 0.2864 0.58382 0.2613 0.0
C175 C 0.27878 0.54796 0.23447 0.0
C176 C 0.29807 0.54155 0.26303 0.0
C177 C 0.31146 0.55616 0.29196 0.0
C178 C 0.30577 0.57746 0.28944 0.0
C179 C 0.18556 0.56775 0.0096 0.0
H180 H 0.14622 0.62245 0.28933 0.0
H181 H 0.1782 0.61693 0.22004 0.0
H182 H 0.20843 0.57706 0.3518 0.0
H183 H 0.17687 0.58242 0.42011 0.0
H184 H 0.24089 0.59049 0.29271 0.0
H185 H 0.18793 0.58503 0.1708 0.0
H186 H 0.25327 0.55953 0.13213 0.0
H187 H 0.19636 0.59321 0.06075 0.0
H188 H 0.222 0.53215 0.10804 0.0
H189 H 0.20065 0.51667 0.03045 0.0
H190 H 0.28192 0.6002 0.26191 0.0
H191 H 0.26822 0.53619 0.21479 0.0
H192 H 0.17481 0.5778 0.98405 0.0
H193 H 0.31567 0.58905 0.31159 0.0
H194 H 0.30221 0.52507 0.26375 0.0
C195 C 0.0465 0.18188 0.39201 0.0
C196 C 0.0562 0.162 0.39661 0.0
C197 C 0.05707 0.19831 0.3561 0.0
C198 C 0.07769 0.19529 0.32439 0.0
C199 C 0.08767 0.17559 0.33034 0.0
C200 C 0.07698 0.15912 0.36552 0.0
C201 C 0.08813 0.21217 0.28278 0.0
C202 C 0.08761 0.23349 0.29558 0.0
C203 C 0.09621 0.24949 0.25446 0.0
C204 C 0.1058 0.24401 0.20003 0.0
C205 C 0.10659 0.22268 0.18722 0.0
C206 C 0.09778 0.20698 0.2285 0.0
C207 C 0.11425 0.21592 0.12919 0.0
C208 C 0.09864 0.21557 0.08484 0.0
C209 C 0.13397 0.20429 0.124 0.0
C210 C 0.13695 0.19091 0.07795 0.0
C211 C 0.11996 0.18858 0.03715 0.0
C212 C 0.09436 0.2718 0.26902 0.0
C213 C 0.07352 0.27866 0.29203 0.0
C214 C 0.11354 0.2858 0.26496 0.0
C215 C 0.11214 0.30597 0.2865 0.0
C216 C 0.09145 0.31251 0.3117 0.0
C217 C 0.07207 0.29877 0.31305 0.0
C218 C 0.10141 0.20198 0.03924 0.0
H219 H 0.0307 0.18475 0.416 0.0
H220 H 0.04876 0.2132 0.35209 0.0
H221 H 0.1037 0.17278 0.30728 0.0
H222 H 0.08483 0.14397 0.36728 0.0
H223 H 0.08058 0.2377 0.33786 0.0
H224 H 0.09757 0.19065 0.21689 0.0
H225 H 0.11205 0.25619 0.16748 0.0
H226 H 0.08309 0.22411 0.08876 0.0
H227 H 0.14608 0.20419 0.15828 0.0
H228 H 0.1517 0.18122 0.07691 0.0
H229 H 0.05844 0.26821 0.29525 0.0
H230 H 0.12981 0.28082 0.24754 0.0
H231 H 0.08786 0.20058 0.00909 0.0
H232 H 0.05595 0.30319 0.33274 0.0
H233 H 0.1273 0.3163 0.28449 0.0
C234 C 0.33619 0.94113 0.4112 0.0
C235 C 0.35854 0.94953 0.40038 0.0
C236 C 0.31883 0.94749 0.37507 0.0
C237 C 0.32349 0.96266 0.32827 0.0
C238 C 0.34591 0.97117 0.3184 0.0
C239 C 0.36322 0.96453 0.3536 0.0
C240 C 0.30527 0.96985 0.28969 0.0
C241 C 0.28307 0.97268 0.31232 0.0
C242 C 0.26599 0.98021 0.27615 0.0
C243 C 0.27199 0.98611 0.21648 0.0
C244 C 0.29433 0.9833 0.19354 0.0
C245 C 0.31044 0.97472 0.22999 0.0
C246 C 0.30251 0.9899 0.1327 0.0
C247 C 0.30852 0.97434 0.09413 0.0
C248 C 0.31119 0.01067 0.12038 0.0
C249 C 0.3271 0.01539 0.07328 0.0
C250 C 0.33467 -0.00059 0.0376 0.0
C251 C 0.24227 0.98177 0.30239 0.0
C252 C 0.23359 0.96646 0.34549 0.0
C253 C 0.22862 0.99884 0.28792 0.0
C254 C 0.2073 0.00086 0.3174 0.0
C255 C 0.19912 0.98594 0.36238 0.0
C256 C 0.21261 0.96864 0.37541 0.0
C257 C 0.32433 0.97904 0.04692 0.0
H258 H 0.3322 0.92965 0.44744 0.0
H259 H 0.30183 0.94046 0.38366 0.0
H260 H 0.3501 0.98334 0.2841 0.0
H261 H 0.38021 0.97167 0.34539 0.0
H262 H 0.27922 0.96953 0.35887 0.0
H263 H 0.3274 0.97225 0.21149 0.0
H264 H 0.25943 0.99242 0.18793 0.0
H265 H 0.30256 0.95809 0.10364 0.0
H266 H 0.30727 0.02284 0.15026 0.0
H267 H 0.33444 0.03131 0.06688 0.0
H268 H 0.24324 0.9528 0.35711 0.0
H269 H 0.23467 0.01097 0.25507 0.0
H270 H 0.32982 0.96628 0.0208 0.0
H271 H 0.20738 0.95691 0.41008 0.0
H272 H 0.19734 0.01423 0.3051 0.0
C273 C 0.43533 0.33363 0.07187 0.0
C274 C 0.44885 0.33625 0.01922 0.0
C275 C 0.44183 0.32012 0.11792 0.0
C276 C 0.46164 0.30867 0.11165 0.0
C277 C 0.47391 0.30964 0.05746 0.0
C278 C 0.4676 0.32333 0.01161 0.0
C279 C 0.47237 0.3001 0.16423 0.0
C280 C 0.47209 0.27833 0.17939 0.0
C281 C 0.48337 0.27093 0.22893 0.0
C282 C 0.49455 0.28544 0.26315 0.0
C283 C 0.49489 0.3071 0.24816 0.0
C284 C 0.48385 0.31433 0.19853 0.0
C285 C 0.5062 0.32221 0.28543 0.0
C286 C 0.50085 0.32135 0.34596 0.0
C287 C 0.52189 0.33784 0.26074 0.0
C288 C 0.53183 0.35259 0.29601 0.0
C289 C 0.52595 0.35221 0.35651 0.0
C290 C 0.48364 0.24823 0.24695 0.0
C291 C 0.46323 0.23629 0.26008 0.0
C292 C 0.50446 0.23928 0.25924 0.0
C293 C 0.50486 0.21938 0.28797 0.0
C294 C 0.48442 0.20803 0.30529 0.0
C295 C 0.46361 0.21629 0.28914 0.0
C296 C 0.51046 0.33627 0.38103 0.0
H297 H 0.42056 0.34301 0.07888 0.0
H298 H 0.43228 0.31969 0.15974 0.0
H299 H 0.48947 0.30119 0.05223 0.0
H300 H 0.47861 0.32503 0.97213 0.0
H301 H 0.46342 0.26729 0.15264 0.0
H302 H 0.48398 0.33112 0.18675 0.0
H303 H 0.50301 0.27983 0.30182 0.0
H304 H 0.48861 0.30956 0.36587 0.0
H305 H 0.52644 0.33864 0.21416 0.0
H306 H 0.54393 0.36442 0.27572 0.0
H307 H 0.44697 0.24296 0.2513 0.0
H308 H 0.52043 0.24812 0.24896 0.0
H309 H 0.50503 0.33571 0.42704 0.0
H310 H 0.44761 0.20787 0.30194 0.0
H311 H 0.52116 0.2132 0.29859 0.0
C312 C 0.03062 0.96369 0.76898 0.0
N313 N 0.99186 0.96845 0.62109 0.0
C314 C 0.00356 0.95159 0.60398 0.0
C315 C 0.99278 0.93567 0.57468 0.0
C316 C 0.96966 0.93699 0.56268 0.0
C317 C 0.95803 0.95474 0.57988 0.0
C318 C 0.96955 0.97041 0.60914 0.0
Zn319 Zn 0.00839 0.98908 0.67179 0.0
C320 C 0.97893 -0.00018 0.77618 0.0
N321 N 0.04438 0.02847 0.78433 0.0
C322 C 0.06649 0.02631 0.79796 0.0
C323 C 0.03283 0.04567 0.79943 0.0
C324 C 0.04356 0.06175 0.82816 0.0
C325 C 0.06648 0.06024 0.84193 0.0
C326 C 0.07795 0.04212 0.82693 0.0
Zn327 Zn 0.02786 0.00772 0.73383 0.0
O328 O 0.0191 0.96301 0.72346 0.0
C329 C 0.05727 0.99703 0.62937 0.0
O330 O 0.03731 0.98145 0.78639 0.0
H331 H 0.01537 0.04727 0.78755 0.0
H332 H 0.02117 0.95015 0.61461 0.0
H333 H 0.0754 0.01257 0.78522 0.0
O334 O 0.03841 0.98868 0.61547 0.0
O335 O 0.05818 0.00587 0.67791 0.0
H336 H 0.96054 0.98389 0.62345 0.0
O337 O 0.01794 0.03372 0.6807 0.0
O338 O 0.99822 0.01535 0.62047 0.0
O339 O 0.99753 0.00905 0.78865 0.0
O340 O 0.97838 0.99003 0.72911 0.0
C341 C 0.00575 0.03305 0.63641 0.0
H342 H 0.00232 0.92211 0.56323 0.0
H343 H 0.94023 0.95643 0.57109 0.0
H344 H 0.03414 0.07557 0.8378 0.0
H345 H 0.09557 0.04023 0.83716 0.0
C346 C 0.49021 0.97743 0.63658 0.0
N347 N 0.50991 0.04127 0.63725 0.0
C348 C 0.51075 0.04014 0.57793 0.0
C349 C 0.50652 0.05775 0.54166 0.0
C350 C 0.50147 0.07686 0.56643 0.0
C351 C 0.50064 0.07761 0.62788 0.0
C352 C 0.50493 0.05952 0.66268 0.0
Zn353 Zn 0.51587 0.01425 0.68593 0.0
C354 C 0.48096 0.00418 0.78251 0.0
N355 N 0.5277 0.9557 0.77713 0.0
C356 C 0.50971 0.9428 0.7977 0.0
C357 C 0.54934 0.95174 0.79198 0.0
C358 C 0.55346 0.93453 0.83014 0.0
C359 C 0.53512 0.92136 0.8535 0.0
C360 C 0.51305 0.92549 0.83618 0.0
Zn361 Zn 0.52173 0.98283 0.72906 0.0
O362 O 0.49439 0.99725 0.63245 0.0
C363 C 0.5565 0.99295 0.63192 0.0
O364 O 0.49997 0.96619 0.67479 0.0
H365 H 0.56337 0.96229 0.77551 0.0
H366 H 0.51463 0.02548 0.5585 0.0
H367 H 0.49266 0.94621 0.78534 0.0
O368 O 0.54486 0.00941 0.62885 0.0
O369 O 0.55053 0.97826 0.67038 0.0
H370 H 0.50433 0.06004 0.70994 0.0
O371 O 0.54331 -0.00024 0.78251 0.0
O372 O 0.53755 0.03089 0.74064 0.0
O373 O 0.49288 0.98791 0.78681 0.0
O374 O 0.48686 0.01869 0.74348 0.0
C375 C 0.54747 0.01959 0.77849 0.0
H376 H 0.50699 0.05632 0.49463 0.0
H377 H 0.49704 0.09209 0.64879 0.0
H378 H 0.57072 0.93196 0.84267 0.0
H379 H 0.4985 0.91551 0.85252 0.0
C380 C 0.52777 0.46895 0.62699 0.0
N381 N 0.4718 0.50714 0.63277 0.0
C382 C 0.47606 0.50976 0.57373 0.0
C383 C 0.45849 0.51413 0.53668 0.0
C384 C 0.43617 0.51572 0.56034 0.0
C385 C 0.43221 0.51289 0.62151 0.0
C386 C 0.45038 0.5086 0.65711 0.0
Zn387 Zn 0.49888 0.50106 0.68318 0.0
C388 C 0.49061 0.46562 0.76964 0.0
N389 N 0.55785 0.48838 0.77853 0.0
C390 C 0.57935 0.48754 0.75415 0.0
C391 C 0.55345 0.48453 0.83723 0.0
C392 C 0.57094 0.47934 0.87377 0.0
C393 C 0.59326 0.47813 0.84988 0.0
C394 C 0.59744 0.48248 0.78926 0.0
Zn395 Zn 0.53084 0.49488 0.72828 0.0
O396 O 0.50896 0.4781 0.62591 0.0
C397 C 0.53941 0.53013 0.64219 0.0
O398 O 0.54189 0.47352 0.66524 0.0
H399 H 0.53627 0.48536 0.85586 0.0
H400 H 0.4932 0.50856 0.55516 0.0
H401 H 0.58245 0.49061 0.70737 0.0
O402 O 0.5189 0.52483 0.63254 0.0
O403 O 0.54954 0.52018 0.68228 0.0
H404 H 0.44737 0.50643 0.70415 0.0
O405 O 0.51937 0.5162 0.78982 0.0
O406 O 0.48911 0.52407 0.74169 0.0
O407 O 0.51176 0.46984 0.77386 0.0
O408 O 0.47944 0.47701 0.73467 0.0
C409 C 0.50168 0.52689 0.7845 0.0
H410 H 0.46246 0.51654 0.48998 0.0
H411 H 0.41523 0.51376 0.64161 0.0
H412 H 0.56704 0.4764 0.92037 0.0
H413 H 0.61439 0.48156 0.76906 0.0
C414 C 0.03866 0.53108 0.61706 0.0
N415 N 0.0396 0.46512 0.62694 0.0
C416 C 0.03928 0.4672 0.56742 0.0
C417 C 0.04843 0.45187 0.53296 0.0
C418 C 0.05795 0.43411 0.55987 0.0
C419 C 0.05823 0.43241 0.6214 0.0
C420 C 0.04896 0.44822 0.65428 0.0
Zn421 Zn 0.02509 0.48803 0.67393 0.0
C422 C 0.05423 0.50408 0.7638 0.0
N423 N 0.99411 0.53759 0.76306 0.0
C424 C 0.98419 0.55408 0.73525 0.0
C425 C 0.9944 0.53574 0.8226 0.0
C426 C 0.9845 0.55082 0.85662 0.0
C427 C 0.97421 0.56807 0.82922 0.0
C428 C 0.97413 0.56961 0.76766 0.0
Zn429 Zn 0.00878 0.51471 0.71638 0.0
O430 O 0.04123 0.51136 0.61506 0.0
C431 C 0.97962 0.49863 0.62659 0.0
O432 O 0.02514 0.53778 0.65625 0.0
H433 H 0.00243 0.52254 0.84387 0.0
H434 H 0.03165 0.48069 0.54651 0.0
H435 H 0.98408 0.5552 0.68788 0.0
O436 O 0.99625 0.48652 0.62171 0.0
O437 O 0.98018 0.51279 0.6637 0.0
H438 H 0.04908 0.44691 0.70164 0.0
O439 O 0.99265 0.49141 0.77533 0.0
O440 O 0.00872 0.46498 0.73409 0.0
O441 O 0.03762 0.51622 0.76862 0.0
O442 O 0.05368 0.48991 0.72666 0.0
C443 C 0.99522 0.47168 0.77334 0.0
H444 H 0.04752 0.45365 0.48575 0.0
H445 H 0.06554 0.41902 0.64383 0.0
H446 H 0.98528 0.5492 0.90389 0.0
H447 H 0.96622 0.58258 0.74483 0.0
C448 C 0.16976 0.00857 0.41044 0.0
C449 C 0.17709 0.98848 0.39711 0.0
C450 C 0.1499 0.01096 0.44618 0.0
C451 C 0.13724 0.99285 0.47062 0.0
C452 C 0.14433 0.97258 0.45683 0.0
C453 C 0.16382 0.97067 0.41966 0.0
C454 C 0.14263 0.03289 0.45844 0.0
C455 C 0.13156 0.95282 0.48236 0.0
C456 C 0.09975 0.99732 0.61032 0.0
C457 C 0.0778 0.99663 0.58887 0.0
C458 C 0.11923 0.99618 0.57238 0.0
C459 C 0.11676 0.99497 0.51121 0.0
C460 C 0.09463 0.99494 0.48921 0.0
C461 C 0.07544 0.99544 0.52832 0.0
C462 C 0.14242 0.99574 0.59795 0.0
C463 C 0.09119 0.9943 0.42429 0.0
H464 H 0.17981 0.02252 0.39418 0.0
H465 H 0.1687 0.95505 0.40864 0.0
H466 H 0.12453 0.03464 0.44794 0.0
H467 H 0.14389 0.03551 0.50575 0.0
H468 H 0.15325 0.04533 0.43272 0.0
H469 H 0.13954 0.93821 0.46844 0.0
H470 H 0.13094 0.95265 0.53098 0.0
H471 H 0.1137 0.95258 0.46871 0.0
H472 H 0.10169 0.99817 0.65706 0.0
H473 H 0.05853 0.99516 0.51134 0.0
H474 H 0.15358 0.00896 0.578 0.0
H475 H 0.15063 0.98086 0.58754 0.0
H476 H 0.14148 0.99688 0.64632 0.0
H477 H 0.10152 0.00724 0.39993 0.0
H478 H 0.07304 0.99582 0.41386 0.0
H479 H 0.09712 0.97921 0.40808 0.0
C480 C 0.49896 0.18832 0.39223 0.0
C481 C 0.485 0.18857 0.34413 0.0
C482 C 0.50034 0.17012 0.42913 0.0
C483 C 0.48746 0.15164 0.41771 0.0
C484 C 0.47294 0.15187 0.36997 0.0
C485 C 0.47182 0.1704 0.33377 0.0
C486 C 0.51589 0.17058 0.47983 0.0
C487 C 0.45902 0.13243 0.35641 0.0
C488 C 0.51103 0.10036 0.47628 0.0
C489 C 0.49744 0.09586 0.52797 0.0
C490 C 0.50752 0.11815 0.43926 0.0
C491 C 0.4901 0.13191 0.45441 0.0
C492 C 0.47618 0.12742 0.50625 0.0
C493 C 0.48002 0.10943 0.54243 0.0
C494 C 0.52279 0.12244 0.38449 0.0
C495 C 0.45747 0.14177 0.52387 0.0
H496 H 0.50879 0.20248 0.4012 0.0
H497 H 0.46103 0.17055 0.29662 0.0
H498 H 0.50614 0.1658 0.52152 0.0
H499 H 0.52945 0.15911 0.47394 0.0
H500 H 0.5241 0.18646 0.48395 0.0
H501 H 0.44776 0.13548 0.31949 0.0
H502 H 0.47055 0.1197 0.34489 0.0
H503 H 0.44834 0.1265 0.39567 0.0
H504 H 0.52475 0.09014 0.46521 0.0
H505 H 0.46925 0.1059 0.58187 0.0
H506 H 0.53291 0.13743 0.38761 0.0
H507 H 0.51237 0.12435 0.34552 0.0
H508 H 0.53475 0.1096 0.37736 0.0
H509 H 0.46493 0.15764 0.53161 0.0
H510 H 0.44758 0.13562 0.56428 0.0
H511 H 0.4456 0.14379 0.4879 0.0
C512 C 0.35121 0.56053 0.32602 0.0
C513 C 0.33031 0.54903 0.32818 0.0
C514 C 0.36859 0.55467 0.36293 0.0
C515 C 0.36487 0.53699 0.40326 0.0
C516 C 0.34391 0.52515 0.40509 0.0
C517 C 0.32691 0.53127 0.3674 0.0
C518 C 0.39082 0.56754 0.35924 0.0
C519 C 0.33924 0.50629 0.44778 0.0
C520 C 0.41634 0.51148 0.46664 0.0
C521 C 0.41734 0.52056 0.52115 0.0
C522 C 0.39934 0.51664 0.42792 0.0
C523 C 0.38278 0.53109 0.44424 0.0
C524 C 0.38341 0.54002 0.49957 0.0
C525 C 0.40071 0.5347 0.53729 0.0
C526 C 0.39922 0.50677 0.36932 0.0
C527 C 0.36596 0.55542 0.51864 0.0
H528 H 0.35396 0.57416 0.29545 0.0
H529 H 0.31064 0.52252 0.36988 0.0
H530 H 0.39357 0.57457 0.40184 0.0
H531 H 0.40524 0.55723 0.35038 0.0
H532 H 0.39124 0.58046 0.32435 0.0
H533 H 0.32229 0.49844 0.44259 0.0
H534 H 0.35254 0.49458 0.44167 0.0
H535 H 0.33996 0.51131 0.4934 0.0
H536 H 0.42888 0.50026 0.4542 0.0
H537 H 0.4015 0.54199 0.57894 0.0
H538 H 0.40084 0.51928 0.33334 0.0
H539 H 0.38277 0.49795 0.36501 0.0
H540 H 0.4133 0.49579 0.36331 0.0
H541 H 0.36698 0.56962 0.48794 0.0
H542 H 0.36843 0.56049 0.56371 0.0
H543 H 0.34853 0.54816 0.51718 0.0
C544 C 0.10678 0.33885 0.37909 0.0
C545 C 0.09013 0.33284 0.34059 0.0
C546 C 0.104 0.35637 0.41327 0.0
C547 C 0.08409 0.36808 0.40886 0.0
C548 C 0.06782 0.36273 0.36788 0.0
C549 C 0.07106 0.34521 0.33417 0.0
C550 C 0.12181 0.36168 0.45618 0.0
C551 C 0.04643 0.37491 0.36156 0.0
C552 C 0.06071 0.39591 0.5401 0.0
C553 C 0.06651 0.4171 0.5237 0.0
C554 C 0.06693 0.37975 0.50383 0.0
C555 C 0.07933 0.38492 0.44993 0.0
C556 C 0.08594 0.40621 0.43408 0.0
C557 C 0.07941 0.42207 0.47111 0.0
C558 C 0.05949 0.35722 0.52221 0.0
C559 C 0.09936 0.4123 0.37728 0.0
H560 H 0.12145 0.32925 0.38466 0.0
H561 H 0.05832 0.34082 0.30381 0.0
H562 H 0.12668 0.37877 0.45186 0.0
H563 H 0.11467 0.35814 0.50164 0.0
H564 H 0.13739 0.35256 0.44975 0.0
H565 H 0.03625 0.36962 0.32497 0.0
H566 H 0.03564 0.37287 0.40284 0.0
H567 H 0.0508 0.39202 0.35384 0.0
H568 H 0.05054 0.39199 0.58033 0.0
H569 H 0.0842 0.43841 0.45864 0.0
H570 H 0.0744 0.34704 0.52159 0.0
H571 H 0.04746 0.35111 0.49061 0.0
H572 H 0.05098 0.35574 0.56679 0.0
H573 H 0.11485 0.40292 0.37367 0.0
H574 H 0.10459 0.42934 0.37342 0.0
H575 H 0.0889 0.4087 0.33967 0.0
C576 C 0.87401 0.99103 0.01952 0.0
C577 C 0.85874 0.00707 0.00829 0.0
C578 C 0.89355 0.98888 0.98239 0.0
C579 C 0.89803 0.00311 0.93279 0.0
C580 C 0.88259 0.01918 0.92096 0.0
C581 C 0.86318 0.0209 0.95851 0.0
C582 C 0.90952 0.97148 0.99652 0.0
C583 C 0.88663 0.03469 0.86863 0.0
C584 C 0.95873 0.01215 0.86668 0.0
C585 C 0.95827 0.00035 0.81653 0.0
C586 C 0.9394 0.01292 0.90521 0.0
C587 C 0.91903 0.00155 0.89368 0.0
C588 C 0.91852 0.98941 0.84351 0.0
C589 C 0.93808 0.98899 0.80553 0.0
C590 C 0.94071 0.02615 0.95792 0.0
C591 C 0.89721 0.97699 0.82962 0.0
H592 H 0.87089 0.98033 0.0579 0.0
H593 H 0.8513 0.03304 0.94838 0.0
H594 H 0.91163 0.96145 0.95857 0.0
H595 H 0.92662 0.97839 0.00477 0.0
H596 H 0.90332 0.96132 0.03562 0.0
H597 H 0.87297 0.04624 0.86534 0.0
H598 H 0.90318 0.04349 0.87153 0.0
H599 H 0.8876 0.02613 0.82764 0.0
H600 H 0.9742 0.02098 0.87576 0.0
H601 H 0.93753 0.97974 0.76713 0.0
H602 H 0.93612 0.01628 0.99865 0.0
H603 H 0.92824 0.03879 0.95499 0.0
H604 H 0.95797 0.03359 0.96168 0.0
H605 H 0.89158 0.966 0.8674 0.0
H606 H 0.89979 0.96774 0.79016 0.0
H607 H 0.8832 0.98788 0.82209 0.0
C608 C 0.56044 0.83046 0.10005 0.0
C609 C 0.54787 0.81219 0.08737 0.0
C610 C 0.55958 0.84917 0.06444 0.0
C611 C 0.54599 0.84947 0.01488 0.0
C612 C 0.53341 0.83102 0.00179 0.0
C613 C 0.53451 0.81265 0.03813 0.0
C614 C 0.57313 0.8686 0.07982 0.0
C615 C 0.51885 0.83063 0.94912 0.0
C616 C 0.52428 0.90019 0.94693 0.0
C617 C 0.53885 0.90364 0.89661 0.0
C618 C 0.527 0.88308 0.98711 0.0
C619 C 0.54464 0.86902 0.97651 0.0
C620 C 0.55979 0.87274 0.92661 0.0
C621 C 0.55675 0.89006 0.8873 0.0
C622 C 0.5106 0.87972 0.04001 0.0
C623 C 0.5787 0.85801 0.91361 0.0
H624 H 0.57076 0.83018 0.1381 0.0
H625 H 0.52517 0.79845 0.02729 0.0
H626 H 0.58525 0.87394 0.04277 0.0
H627 H 0.56153 0.88166 0.08722 0.0
H628 H 0.58289 0.86575 0.11973 0.0
H629 H 0.51022 0.81495 0.94493 0.0
H630 H 0.50565 0.84259 0.95236 0.0
H631 H 0.52951 0.83479 0.90844 0.0
H632 H 0.51068 0.91088 0.95485 0.0
H633 H 0.56798 0.89262 0.84831 0.0
H634 H 0.52011 0.87796 0.08063 0.0
H635 H 0.5002 0.86491 0.03669 0.0
H636 H 0.49891 0.89294 0.04423 0.0
H637 H 0.58919 0.85574 0.95235 0.0
H638 H 0.59001 0.86395 0.87542 0.0
H639 H 0.57127 0.84229 0.90424 0.0
C640 C 0.6991 0.43362 0.01669 0.0
C641 C 0.70173 0.44244 0.07107 0.0
C642 C 0.68134 0.43934 0.98103 0.0
C643 C 0.66588 0.4544 0.99987 0.0
C644 C 0.66834 0.46335 0.05471 0.0
C645 C 0.68621 0.45723 0.08973 0.0
C646 C 0.67925 0.42941 0.92289 0.0
C647 C 0.65217 0.47946 0.07624 0.0
C648 C 0.63313 0.48315 0.88267 0.0
C649 C 0.61193 0.47212 0.88818 0.0
C650 C 0.65078 0.47771 0.91921 0.0
C651 C 0.64715 0.46076 0.96199 0.0
C652 C 0.62579 0.44954 0.96767 0.0
C653 C 0.60844 0.45538 0.93076 0.0
C654 C 0.67329 0.4901 0.91208 0.0
C655 C 0.62135 0.43124 0.01233 0.0
H656 H 0.71126 0.42251 0.00132 0.0
H657 H 0.68798 0.46397 0.13188 0.0
H658 H 0.66215 0.4215 0.92099 0.0
H659 H 0.68095 0.4418 0.88661 0.0
H660 H 0.69238 0.41762 0.91523 0.0
H661 H 0.65646 0.48497 0.1198 0.0
H662 H 0.65253 0.49331 0.04438 0.0
H663 H 0.63446 0.47261 0.07948 0.0
H664 H 0.63582 0.49624 0.85028 0.0
H665 H 0.59218 0.44662 0.93469 0.0
H666 H 0.68715 0.47946 0.90075 0.0
H667 H 0.67736 0.497 0.95409 0.0
H668 H 0.67324 0.50306 0.87739 0.0
H669 H 0.63343 0.41866 0.00359 0.0
H670 H 0.60368 0.42439 0.01182 0.0
H671 H 0.62427 0.43644 0.057 0.0
C672 C 0.95133 0.6568 0.05161 0.0
C673 C 0.93119 0.66752 0.04369 0.0
C674 C 0.9566 0.63951 0.01862 0.0
C675 C 0.94136 0.63276 0.97667 0.0
C676 C 0.92051 0.64286 0.97037 0.0
C677 C 0.91568 0.66017 0.00392 0.0
C678 C 0.97903 0.62916 0.02664 0.0
C679 C 0.90374 0.63597 0.9265 0.0
C680 C 0.96858 0.60602 0.84809 0.0
C681 C 0.96429 0.58461 0.86488 0.0
C682 C 0.96066 0.62184 0.88338 0.0
C683 C 0.94811 0.61613 0.93672 0.0
C684 C 0.94314 0.59456 0.9531 0.0
C685 C 0.95132 0.57905 0.91701 0.0
C686 C 0.96638 0.64468 0.86449 0.0
C687 C 0.92967 0.58787 0.00941 0.0
H688 H 0.96356 0.66256 0.08157 0.0
H689 H 0.89998 0.66826 0.99807 0.0
H690 H 0.97621 0.61182 0.0342 0.0
H691 H 0.99014 0.632 0.98611 0.0
H692 H 0.98819 0.63528 0.06398 0.0
H693 H 0.88743 0.64415 0.93077 0.0
H694 H 0.91127 0.6394 0.88136 0.0
H695 H 0.90006 0.61869 0.932 0.0
H696 H 0.97879 0.61041 0.80821 0.0
H697 H 0.94767 0.56253 0.92977 0.0
H698 H 0.97741 0.65187 0.89671 0.0
H699 H 0.9506 0.6537 0.86345 0.0
H700 H 0.97535 0.64651 0.82049 0.0
H701 H 0.93932 0.5926 0.04744 0.0
H702 H 0.92601 0.57055 0.01396 0.0
H703 H 0.91328 0.59596 0.01149 0.0
C704 C 0.02083 0.14099 0.43459 0.0
C705 C 0.04466 0.14415 0.43287 0.0
C706 C 0.00996 0.1237 0.46704 0.0
C707 C 0.02327 0.10905 0.49744 0.0
C708 C 0.04728 0.11222 0.49619 0.0
C709 C 0.05762 0.12984 0.46458 0.0
C710 C 0.9843 0.12101 0.46843 0.0
C711 C 0.06213 0.09689 0.52791 0.0
C712 C 0.00403 0.07202 0.62615 0.0
C713 C 0.00358 0.0526 0.5999 0.0
C714 C 0.00813 0.09095 0.59226 0.0
C715 C 0.01248 0.0903 0.53099 0.0
C716 C 0.01007 0.07087 0.50379 0.0
C717 C 0.00538 0.05219 0.5387 0.0
C718 C 0.0099 0.1114 0.62276 0.0
C719 C 0.01483 0.06947 0.43867 0.0
H720 H 0.01067 0.1518 0.4097 0.0
H721 H 0.07595 0.13239 0.46474 0.0
H722 H 0.97929 0.10625 0.44774 0.0
H723 H 0.97729 0.11955 0.51449 0.0
H724 H 0.97634 0.13443 0.44514 0.0
H725 H 0.08058 0.1013 0.52086 0.0
H726 H 0.05769 0.09624 0.5757 0.0
H727 H 0.0591 0.08077 0.51269 0.0
H728 H 0.00246 0.0723 0.67357 0.0
H729 H 0.00518 0.03714 0.51846 0.0
H730 H 1.00167 0.12419 0.59758 0.0
H731 H 0.02813 0.11627 0.6257 0.0
H732 H 0.00191 0.1098 0.66792 0.0
H733 H 0.00658 0.08226 0.41363 0.0
H734 H 0.00881 0.05403 0.42322 0.0
H735 H 0.03348 0.07143 0.42856 0.0
C736 C 0.39819 0.93887 0.41654 0.0
C737 C 0.37689 0.94433 0.43996 0.0
C738 C 0.41737 0.93912 0.45065 0.0
C739 C 0.41515 0.94538 0.50904 0.0
C740 C 0.39325 0.94886 0.53447 0.0
C741 C 0.37428 0.94819 0.49954 0.0
C742 C 0.44031 0.93479 0.42234 0.0
C743 C 0.39015 0.95558 0.59657 0.0
C744 C 0.46518 0.94695 0.60867 0.0
C745 C 0.4727 0.9682 0.60011 0.0
C746 C 0.44684 0.93894 0.57806 0.0
C747 C 0.43574 0.95261 0.53868 0.0
C748 C 0.44378 0.97387 0.52858 0.0
C749 C 0.4622 0.98133 0.55911 0.0
C750 C 0.43893 0.91612 0.58917 0.0
C751 C 0.43247 0.98901 0.48683 0.0
H752 H 0.40009 0.93564 0.37051 0.0
H753 H 0.3578 0.95245 0.51755 0.0
H754 H 0.4498 0.94998 0.41028 0.0
H755 H 0.45063 0.92558 0.45318 0.0
H756 H 0.43859 0.92604 0.38191 0.0
H757 H 0.37198 0.9543 0.61269 0.0
H758 H 0.4003 0.9459 0.62669 0.0
H759 H 0.39634 0.97227 0.5983 0.0
H760 H 0.47323 0.9367 0.64028 0.0
H761 H 0.46796 0.99774 0.55189 0.0
H762 H 0.43643 0.90861 0.54713 0.0
H763 H 0.42223 0.91519 0.61417 0.0
H764 H 0.45119 0.90694 0.61461 0.0
H765 H 0.43259 0.98284 0.44237 0.0
H766 H 0.44104 0.00497 0.48351 0.0
H767 H 0.41439 0.99056 0.50173 0.0
C768 C 0.53823 0.36481 0.4528 0.0
C769 C 0.53431 0.36923 0.39336 0.0
C770 C 0.54156 0.38112 0.49081 0.0
C771 C 0.54152 0.40235 0.4685 0.0
C772 C 0.53999 0.40687 0.40756 0.0
C773 C 0.53613 0.39028 0.37079 0.0
C774 C 0.54294 0.3756 0.5556 0.0
C775 C 0.54038 0.42931 0.38186 0.0
C776 C 0.51327 0.44134 0.5644 0.0
C777 C 0.53198 0.45209 0.58648 0.0
C778 C 0.51628 0.42496 0.52678 0.0
C779 C 0.53863 0.41948 0.50953 0.0
C780 C 0.55768 0.43036 0.53122 0.0
C781 C 0.55412 0.44643 0.57025 0.0
C782 C 0.49546 0.41348 0.5057 0.0
C783 C 0.58171 0.42522 0.51259 0.0
H784 H 0.5376 0.34858 0.47036 0.0
H785 H 0.53309 0.394 0.32509 0.0
H786 H 0.55645 0.3854 0.57455 0.0
H787 H 0.5265 0.37891 0.57856 0.0
H788 H 0.54637 0.35868 0.56463 0.0
H789 H 0.54349 0.43014 0.33345 0.0
H790 H 0.52372 0.43626 0.39204 0.0
H791 H 0.55374 0.43915 0.40135 0.0
H792 H 0.4961 0.44548 0.57744 0.0
H793 H 0.56859 0.4548 0.58721 0.0
H794 H 0.49611 0.3963 0.51698 0.0
H795 H 0.49512 0.41562 0.45727 0.0
H796 H 0.47931 0.41918 0.52519 0.0
H797 H 0.58453 0.4083 0.52321 0.0
H798 H 0.59467 0.43492 0.53412 0.0
H799 H 0.58437 0.42795 0.46434 0.0
C800 C 0.11641 0.59827 0.37399 0.0
C801 C 0.13757 0.60201 0.39833 0.0
C802 C 0.09715 0.59142 0.40966 0.0
C803 C 0.09926 0.58791 0.47078 0.0
C804 C 0.11981 0.59407 0.49615 0.0
C805 C 0.13868 0.60126 0.45958 0.0
C806 C 0.0753 0.58571 0.38111 0.0
C807 C 0.12277 0.59075 0.56119 0.0
C808 C 0.04961 0.56771 0.57483 0.0
C809 C 0.05269 0.54588 0.57654 0.0
C810 C 0.06413 0.58173 0.53909 0.0
C811 C 0.08233 0.57368 0.50543 0.0
C812 C 0.08516 0.55162 0.50619 0.0
C813 C 0.07023 0.53804 0.54126 0.0
C814 C 0.06032 0.6051 0.5385 0.0
C815 C 0.10442 0.54232 0.47118 0.0
H816 H 0.11525 0.59887 0.32677 0.0
H817 H 0.15481 0.60475 0.47881 0.0
H818 H 0.07401 0.56838 0.37681 0.0
H819 H 0.06024 0.59008 0.40827 0.0
H820 H 0.07471 0.59359 0.33663 0.0
H821 H 0.13815 0.59949 0.5751 0.0
H822 H 0.10763 0.5958 0.58673 0.0
H823 H 0.12457 0.57367 0.57231 0.0
H824 H 0.03603 0.57387 0.60185 0.0
H825 H 0.07276 0.52121 0.54222 0.0
H826 H 0.06177 0.61224 0.49299 0.0
H827 H 0.0736 0.61297 0.56352 0.0
H828 H 0.04335 0.60844 0.55859 0.0
H829 H 0.10334 0.54684 0.42387 0.0
H830 H 0.10418 0.52482 0.47668 0.0
H831 H 0.12105 0.54866 0.48503 0.0
C832 C 0.98508 0.86531 0.94856 0.0
C833 C 0.99949 0.85052 0.97287 0.0
C834 C 0.99397 0.88352 0.91686 0.0
C835 C 0.01791 0.88691 0.90874 0.0
C836 C 0.0326 0.872 0.93305 0.0
C837 C 0.02319 0.854 0.9653 0.0
C838 C 0.97769 0.89914 0.89211 0.0
C839 C 0.05817 0.87499 0.92452 0.0
C840 C 0.0318 0.92461 0.77775 0.0
C841 C 0.03338 0.94394 0.80438 0.0
C842 C 0.02889 0.90555 0.81158 0.0
C843 C 0.02715 0.90592 0.87344 0.0
C844 C 0.0307 0.92523 0.90055 0.0
C845 C 0.03396 0.94408 0.86553 0.0
C846 C 0.02564 0.88526 0.78095 0.0
C847 C 0.02889 0.92629 0.9664 0.0
H848 H 0.96676 0.86282 0.95528 0.0
H849 H 0.03433 0.8425 0.98403 0.0
H850 H 0.98136 0.91497 0.90855 0.0
H851 H 0.98003 0.90061 0.84359 0.0
H852 H 0.95957 0.89443 0.90392 0.0
H853 H 0.06723 0.86209 0.94705 0.0
H854 H 0.06322 0.87561 0.87704 0.0
H855 H 0.06391 0.89025 0.94144 0.0
H856 H 0.03162 0.92446 0.73035 0.0
H857 H 0.03514 0.95902 0.88622 0.0
H858 H 0.0073 0.88021 0.78404 0.0
H859 H 0.03517 0.87246 0.80228 0.0
H860 H 0.0313 0.88713 0.73381 0.0
H861 H 0.01071 0.92424 0.98189 0.0
H862 H 0.03569 0.94164 0.98067 0.0
H863 H 0.03818 0.91339 0.988 0.0
C864 C 0.64206 0.05747 0.99343 0.0
C865 C 0.66343 0.05639 0.96368 0.0
C866 C 0.62183 0.05601 0.96346 0.0
C867 C 0.62299 0.05298 0.90258 0.0
C868 C 0.64446 0.05377 0.87149 0.0
C869 C 0.66442 0.05568 0.90236 0.0
C870 C 0.59926 0.05577 0.998 0.0
C871 C 0.64646 0.05056 0.80652 0.0
C872 C 0.57877 0.01522 0.84695 0.0
C873 C 0.56531 0.02877 0.81415 0.0
C874 C 0.59732 0.02303 0.87639 0.0
C875 C 0.60242 0.04504 0.87396 0.0
C876 C 0.58842 0.05895 0.84294 0.0
C877 C 0.57008 0.05062 0.81285 0.0
C878 C 0.6119 0.00759 0.90866 0.0
C879 C 0.59309 0.08253 0.84047 0.0
H880 H 0.64095 0.05796 0.04078 0.0
H881 H 0.68084 0.05546 0.87875 0.0
H882 H 0.58662 0.06477 0.97348 0.0
H883 H 0.59241 0.03925 0.00529 0.0
H884 H 0.60101 0.06252 0.04145 0.0
H885 H 0.66394 0.05461 0.78748 0.0
H886 H 0.64224 0.03377 0.79898 0.0
H887 H 0.63422 0.06026 0.78271 0.0
H888 H 0.57527 0.9983 0.84822 0.0
H889 H 0.55972 0.06118 0.7877 0.0
H890 H 0.61238 0.01125 0.95548 0.0
H891 H 0.62967 0.00903 0.88972 0.0
H892 H 0.60553 0.99097 0.90639 0.0
H893 H 0.5953 0.08799 0.88519 0.0
H894 H 0.57918 0.09127 0.82027 0.0
H895 H 0.60922 0.0866 0.81437 0.0
C896 C 0.49347 0.62269 0.99976 0.0
C897 C 0.51371 0.63462 0.98501 0.0
C898 C 0.48708 0.60554 0.96704 0.0
C899 C 0.50125 0.6004 0.91852 0.0
C900 C 0.52088 0.61332 0.90122 0.0
C901 C 0.52692 0.63023 0.93487 0.0
C902 C 0.46601 0.59216 0.98668 0.0
C903 C 0.53629 0.60852 0.84924 0.0
C904 C 0.5087 0.54431 0.87704 0.0
C905 C 0.49758 0.54404 0.82423 0.0
C906 C 0.50866 0.56216 0.9103 0.0
C907 C 0.49738 0.58023 0.88995 0.0
C908 C 0.48478 0.57954 0.83881 0.0
C909 C 0.48495 0.56135 0.80654 0.0
C910 C 0.52204 0.56215 0.9651 0.0
C911 C 0.47251 0.59848 0.81585 0.0
H912 H 0.4833 0.62605 0.03871 0.0
H913 H 0.5424 0.63968 0.92305 0.0
H914 H 0.4558 0.58852 0.94866 0.0
H915 H 0.47113 0.57693 0.00709 0.0
H916 H 0.45508 0.60001 0.01921 0.0
H917 H 0.54953 0.62128 0.83817 0.0
H918 H 0.54496 0.59361 0.85908 0.0
H919 H 0.52618 0.60624 0.81017 0.0
H920 H 0.51827 0.53086 0.8912 0.0
H921 H 0.47634 0.56121 0.76568 0.0
H922 H 0.51162 0.56801 0.00207 0.0
H923 H 0.53732 0.57296 0.95742 0.0
H924 H 0.52775 0.54618 0.97826 0.0
H925 H 0.46056 0.59433 0.78169 0.0
H926 H 0.4852 0.61059 0.79632 0.0
H927 H 0.46287 0.60571 0.85196 0.0
C928 C 0.89655 0.40047 0.93474 0.0
C929 C 0.89792 0.39993 0.99591 0.0
C930 C 0.91509 0.40801 0.8975 0.0
C931 C 0.93559 0.41475 0.92211 0.0
C932 C 0.93801 0.41161 0.98321 0.0
C933 C 0.91907 0.40439 0.01954 0.0
C934 C 0.91179 0.41098 0.83253 0.0
C935 C 0.95982 0.41803 0.011 0.0
C936 C 0.98474 0.43511 0.81664 0.0
C937 C 0.98132 0.45688 0.81412 0.0
C938 C 0.97045 0.42108 0.85298 0.0
C939 C 0.95216 0.42905 0.88645 0.0
C940 C 0.94894 0.45105 0.88474 0.0
C941 C 0.96364 0.46466 0.84905 0.0
C942 C 0.97465 0.39777 0.85462 0.0
C943 C 0.92956 0.46026 0.91949 0.0
H944 H 0.88044 0.39644 0.91607 0.0
H945 H 0.92042 0.40399 0.06669 0.0
H946 H 0.90948 0.42795 0.82103 0.0
H947 H 0.92699 0.4062 0.80671 0.0
H948 H 0.89658 0.40181 0.81931 0.0
H949 H 0.96076 0.41044 0.05573 0.0
H950 H 0.97493 0.41386 0.98374 0.0
H951 H 0.96064 0.4354 0.01452 0.0
H952 H 0.99843 0.429 0.78989 0.0
H953 H 0.96083 0.48145 0.84742 0.0
H954 H 0.96096 0.3894 0.83215 0.0
H955 H 0.9742 0.39111 0.90059 0.0
H956 H 0.99131 0.39446 0.83269 0.0
H957 H 0.913 0.45354 0.90619 0.0
H958 H 0.92946 0.47773 0.91316 0.0
H959 H 0.9308 0.45607 0.96694 0.0
C960 C 0.10991 0.17149 0.94448 0.0
C961 C 0.11931 0.17007 0.99977 0.0
C962 C 0.1045 0.15327 0.91496 0.0
C963 C 0.10887 0.13318 0.941 0.0
C964 C 0.12019 0.13175 0.99419 0.0
C965 C 0.12512 0.15016 0.02312 0.0
C966 C 0.0925 0.15548 0.85816 0.0
C967 C 0.12546 0.11065 0.02304 0.0
C968 C 0.06666 0.08854 0.91388 0.0
C969 C 0.07826 0.0779 0.87012 0.0
C970 C 0.07655 0.10642 0.93736 0.0
C971 C 0.09877 0.11377 0.91723 0.0
C972 C 0.11094 0.10272 0.87454 0.0
C973 C 0.1005 0.08494 0.85128 0.0
C974 C 0.063 0.11769 0.98306 0.0
C975 C 0.13477 0.10993 0.85265 0.0
H976 H 0.10577 0.1868 0.92548 0.0
H977 H 0.13213 0.14871 0.06605 0.0
H978 H 0.10037 0.14557 0.8249 0.0
H979 H 0.07443 0.14986 0.86584 0.0
H980 H 0.09291 0.17209 0.84005 0.0
H981 H 0.13753 0.11233 0.05858 0.0
H982 H 0.10945 0.10271 0.04228 0.0
H983 H 0.13282 0.10021 0.99036 0.0
H984 H 0.04966 0.08296 0.92952 0.0
H985 H 0.1095 0.07693 0.81711 0.0
H986 H 0.06067 0.13424 0.96708 0.0
H987 H 0.07242 0.1182 0.02388 0.0
H988 H 0.04593 0.10993 0.99392 0.0
H989 H 0.13442 0.12571 0.82941 0.0
H990 H 0.14247 0.09883 0.82223 0.0
H991 H 0.1459 0.11155 0.89012 0.0
C992 C 0.3744 0.01455 0.01296 0.0
C993 C 0.35505 0.00317 0.99593 0.0
C994 C 0.39473 0.01622 0.97758 0.0
C995 C 0.39587 0.00632 0.92355 0.0
C996 C 0.37618 0.99546 0.90506 0.0
C997 C 0.35608 0.99396 0.94146 0.0
C998 C 0.41528 0.02787 0.99923 0.0
C999 C 0.37655 0.98483 0.84758 0.0
C1000 C 0.44482 0.02195 0.81134 0.0
C1001 C 0.45974 0.00546 0.82039 0.0
C1002 C 0.42405 0.02251 0.84459 0.0
C1003 C 0.41801 0.00625 0.88819 0.0
C1004 C 0.43316 0.98975 0.89809 0.0
C1005 C 0.45374 0.98954 0.86411 0.0
C1006 C 0.40841 0.04036 0.83253 0.0
C1007 C 0.42753 0.97216 0.94431 0.0
H1008 H 0.37401 0.02143 0.05532 0.0
H1009 H 0.34121 0.9853 0.92761 0.0
H1010 H 0.42884 0.0166 0.00796 0.0
H1011 H 0.42234 0.0398 0.96518 0.0
H1012 H 0.41121 0.03595 0.0401 0.0
H1013 H 0.35947 0.97825 0.8376 0.0
H1014 H 0.38274 0.99621 0.81116 0.0
H1015 H 0.38858 0.9718 0.84905 0.0
H1016 H 0.4492 0.0343 0.77758 0.0
H1017 H 0.46507 0.9767 0.87156 0.0
H1018 H 0.40496 0.04874 0.87314 0.0
H1019 H 0.39179 0.03397 0.81874 0.0
H1020 H 0.41568 0.05195 0.79776 0.0
H1021 H 0.42466 0.97879 0.98781 0.0
H1022 H 0.44127 0.96068 0.94731 0.0
H1023 H 0.41151 0.96356 0.93429 0.0
C1024 C 0.45097 0.35303 0.91662 0.0
C1025 C 0.44593 0.35454 0.97686 0.0
C1026 C 0.45376 0.37121 0.87866 0.0
C1027 C 0.45128 0.39133 0.90144 0.0
C1028 C 0.44384 0.39278 0.9608 0.0
C1029 C 0.44139 0.3744 0.99785 0.0
C1030 C 0.46151 0.36894 0.8155 0.0
C1031 C 0.44074 0.41389 0.98681 0.0
C1032 C 0.49317 0.43478 0.84069 0.0
C1033 C 0.47983 0.44706 0.80394 0.0
C1034 C 0.484 0.41665 0.87213 0.0
C1035 C 0.46078 0.41056 0.86719 0.0
C1036 C 0.44705 0.42293 0.83067 0.0
C1037 C 0.45677 0.44107 0.79926 0.0
C1038 C 0.4993 0.40396 0.91061 0.0
C1039 C 0.4222 0.41697 0.82474 0.0
H1040 H 0.45399 0.33773 0.89968 0.0
H1041 H 0.43764 0.37591 0.04427 0.0
H1042 H 0.45249 0.3798 0.7858 0.0
H1043 H 0.48001 0.3732 0.80965 0.0
H1044 H 0.45867 0.35253 0.80209 0.0
H1045 H 0.43083 0.41228 0.02956 0.0
H1046 H 0.45772 0.42131 0.99402 0.0
H1047 H 0.43195 0.42472 0.95649 0.0
H1048 H 0.511 0.43924 0.84473 0.0
H1049 H 0.44636 0.45045 0.7709 0.0
H1050 H 0.49974 0.38751 0.89668 0.0
H1051 H 0.49247 0.40325 0.95681 0.0
H1052 H 0.51705 0.41074 0.909 0.0
H1053 H 0.42048 0.40108 0.80721 0.0
H1054 H 0.41376 0.42841 0.79525 0.0
H1055 H 0.41305 0.41613 0.86846 0.0
C1056 C 0.15648 0.51824 0.98037 0.0
C1057 C 0.16996 0.53627 0.96121 0.0
C1058 C 0.13882 0.51073 0.94685 0.0
C1059 C 0.13457 0.52149 0.89285 0.0
C1060 C 0.14897 0.53895 0.87167 0.0
C1061 C 0.16646 0.54615 0.90619 0.0
C1062 C 0.12385 0.49209 0.97098 0.0
C1063 C 0.14514 0.55072 0.81402 0.0
C1064 C 0.09457 0.49682 0.78719 0.0
C1065 C 0.07443 0.5073 0.79915 0.0
C1066 C 0.11427 0.50103 0.81783 0.0
C1067 C 0.11372 0.51596 0.86157 0.0
C1068 C 0.09327 0.52616 0.8748 0.0
C1069 C 0.07391 0.52174 0.84339 0.0
C1070 C 0.13578 0.48987 0.80252 0.0
C1071 C 0.09192 0.54208 0.92147 0.0
H1072 H 0.15892 0.51065 0.02312 0.0
H1073 H 0.17702 0.55993 0.89087 0.0
H1074 H 0.10671 0.49753 0.98394 0.0
H1075 H 0.12155 0.48049 0.93698 0.0
H1076 H 0.13097 0.48399 0.00991 0.0
H1077 H 0.15918 0.56251 0.80097 0.0
H1078 H 0.14351 0.53954 0.7787 0.0
H1079 H 0.12894 0.55908 0.81762 0.0
H1080 H 0.09513 0.48567 0.75297 0.0
H1081 H 0.0584 0.52984 0.85314 0.0
H1082 H 0.1422 0.48185 0.84242 0.0
H1083 H 0.14927 0.50157 0.785 0.0
H1084 H 0.13312 0.47799 0.76935 0.0
H1085 H 0.09701 0.53487 0.96394 0.0
H1086 H 0.07452 0.54809 0.92775 0.0
H1087 H 0.10398 0.55567 0.90934 0.0
C1088 C 0.91176 0.84585 0.38358 0.0
C1089 C 0.91973 0.82649 0.40506 0.0
C1090 C 0.91579 0.86443 0.41265 0.0
C1091 C 0.92823 0.86365 0.46411 0.0
C1092 C 0.93454 0.84391 0.48877 0.0
C1093 C 0.93013 0.82554 0.45905 0.0
C1094 C 0.90846 0.88511 0.38537 0.0
C1095 C 0.9477 0.84236 0.54384 0.0
C1096 C 0.96902 0.90971 0.48796 0.0
C1097 C 0.95786 0.91947 0.53411 0.0
C1098 C 0.95929 0.8918 0.46423 0.0
C1099 C 0.93772 0.88349 0.48679 0.0
C1100 C 0.9259 0.89374 0.53177 0.0
C1101 C 0.93615 0.91161 0.55506 0.0
C1102 C 0.97243 0.88144 0.41597 0.0
C1103 C 0.90278 0.88547 0.55644 0.0
H1104 H 0.90386 0.84685 0.34171 0.0
H1105 H 0.93595 0.81058 0.47646 0.0
H1106 H 0.90124 0.89511 0.41935 0.0
H1107 H 0.92353 0.8939 0.3636 0.0
H1108 H 0.8956 0.8827 0.35205 0.0
H1109 H 0.94862 0.82579 0.56157 0.0
H1110 H 0.96534 0.84893 0.53403 0.0
H1111 H 0.93981 0.85179 0.57822 0.0
H1112 H 0.9856 0.91594 0.47083 0.0
H1113 H 0.9275 0.91897 0.59104 0.0
H1114 H 0.96203 0.88045 0.37692 0.0
H1115 H 0.9762 0.86508 0.43088 0.0
H1116 H 0.98879 0.89015 0.40256 0.0
H1117 H 0.89112 0.88295 0.52049 0.0
H1118 H 0.89489 0.89636 0.58716 0.0
H1119 H 0.90444 0.86995 0.58026 0.0
C1120 C 0.65903 0.9824 0.3897 0.0
C1121 C 0.67886 0.99342 0.40517 0.0
C1122 C 0.63934 0.98055 0.4275 0.0
C1123 C 0.63935 0.98992 0.48234 0.0
C1124 C 0.65958 0.00032 0.49923 0.0
C1125 C 0.67902 0.00197 0.46052 0.0
C1126 C 0.61818 0.96937 0.40757 0.0
C1127 C 0.66044 0.0104 0.55742 0.0
C1128 C 0.58297 0.00754 0.54877 0.0
C1129 C 0.57726 0.99151 0.59241 0.0
C1130 C 0.60296 0.00708 0.5126 0.0
C1131 C 0.6178 0.99019 0.52002 0.0
C1132 C 0.61205 0.97382 0.56354 0.0
C1133 C 0.59187 0.97465 0.59914 0.0
C1134 C 0.60831 0.02484 0.46668 0.0
C1135 C 0.62737 0.95554 0.57292 0.0
H1136 H 0.65853 0.97599 0.34681 0.0
H1137 H 0.6943 0.01029 0.47324 0.0
H1138 H 0.61137 0.9574 0.44181 0.0
H1139 H 0.60475 0.98092 0.40063 0.0
H1140 H 0.62145 0.96143 0.36606 0.0
H1141 H 0.67787 0.0165 0.56598 0.0
H1142 H 0.64876 0.0237 0.55815 0.0
H1143 H 0.65453 0.99884 0.59365 0.0
H1144 H 0.57185 0.02064 0.54301 0.0
H1145 H 0.5877 0.96221 0.63276 0.0
H1146 H 0.61022 0.01842 0.42263 0.0
H1147 H 0.62475 0.033 0.47527 0.0
H1148 H 0.59485 0.03664 0.4658 0.0
H1149 H 0.62989 0.94737 0.53158 0.0
H1150 H 0.62034 0.94388 0.60783 0.0
H1151 H 0.64441 0.96144 0.58518 0.0
C1152 C 0.56198 0.64178 0.48278 0.0
C1153 C 0.58153 0.64418 0.44473 0.0
C1154 C 0.55817 0.62385 0.52117 0.0
C1155 C 0.57394 0.60759 0.5205 0.0
C1156 C 0.59447 0.61052 0.48557 0.0
C1157 C 0.5982 0.62894 0.44889 0.0
C1158 C 0.53638 0.62164 0.55921 0.0
C1159 C 0.61167 0.59351 0.48331 0.0
C1160 C 0.56501 0.56257 0.63732 0.0
C1161 C 0.55059 0.54865 0.60934 0.0
C1162 C 0.57327 0.5817 0.60864 0.0
C1163 C 0.56743 0.58663 0.55023 0.0
C1164 C 0.55385 0.57202 0.52092 0.0
C1165 C 0.54529 0.55337 0.55119 0.0
C1166 C 0.58714 0.5971 0.64192 0.0
C1167 C 0.54771 0.57639 0.45812 0.0
H1168 H 0.5488 0.65318 0.48016 0.0
H1169 H 0.61373 0.63086 0.42127 0.0
H1170 H 0.52446 0.61004 0.54084 0.0
H1171 H 0.53983 0.61565 0.6043 0.0
H1172 H 0.52779 0.63686 0.56177 0.0
H1173 H 0.628 0.59927 0.46032 0.0
H1174 H 0.6152 0.58732 0.52812 0.0
H1175 H 0.60459 0.58012 0.45969 0.0
H1176 H 0.56887 0.55901 0.68261 0.0
H1177 H 0.53421 0.54253 0.52953 0.0
H1178 H 0.57682 0.61091 0.65114 0.0
H1179 H 0.60257 0.60308 0.61536 0.0
H1180 H 0.59245 0.58993 0.68428 0.0
H1181 H 0.53632 0.58989 0.45548 0.0
H1182 H 0.5389 0.56256 0.44006 0.0
H1183 H 0.56327 0.58081 0.43001 0.0
C1184 C 0.8764 0.48271 0.4137 0.0
C1185 C 0.86347 0.46444 0.4336 0.0
C1186 C 0.89406 0.4907 0.44645 0.0
C1187 C 0.89885 0.48018 0.50039 0.0
C1188 C 0.88494 0.46252 0.5224 0.0
C1189 C 0.86744 0.45483 0.48866 0.0
C1190 C 0.9085 0.50956 0.42146 0.0
C1191 C 0.88934 0.45099 0.58004 0.0
C1192 C 0.95986 0.48086 0.54734 0.0
C1193 C 0.95935 0.49529 0.5916 0.0
C1194 C 0.94039 0.47619 0.5166 0.0
C1195 C 0.91984 0.48613 0.53056 0.0
C1196 C 0.91931 0.5011 0.5742 0.0
C1197 C 0.93912 0.50556 0.60415 0.0
C1198 C 0.94173 0.46025 0.47001 0.0
C1199 C 0.89769 0.51198 0.59026 0.0
H1200 H 0.87358 0.49009 0.37092 0.0
H1201 H 0.85729 0.44087 0.50454 0.0
H1202 H 0.91087 0.52123 0.45523 0.0
H1203 H 0.92566 0.5044 0.40754 0.0
H1204 H 0.90089 0.51747 0.38295 0.0
H1205 H 0.87556 0.43903 0.59392 0.0
H1206 H 0.90568 0.44288 0.57588 0.0
H1207 H 0.891 0.46231 0.61502 0.0
H1208 H 0.97544 0.47293 0.53713 0.0
H1209 H 0.93857 0.5167 0.63839 0.0
H1210 H 0.9362 0.46729 0.4278 0.0
H1211 H 0.93 0.44647 0.4828 0.0
H1212 H 0.95922 0.45454 0.46292 0.0
H1213 H 0.90042 0.52407 0.62283 0.0
H1214 H 0.88454 0.50015 0.60888 0.0
H1215 H 0.8908 0.51969 0.55053 0.0
loop_
_geom_bond_atom_site_label_1
_geom_bond_atom_site_label_2
_geom_bond_distance
_geom_bond_site_symmetry_2
_ccdc_geom_bond_type
C0 C1 1.386 . S
C0 C2 1.397 . S
C0 H24 0.931 . S
C1 C0 1.386 . S
C1 C5 1.397 1_556 S
C2 C0 1.397 . S
C2 C3 1.384 1_556 S
C2 H25 0.930 . S
C3 C2 1.384 1_554 S
C3 C4 1.377 . S
C3 C6 1.481 . S
C4 C3 1.377 . S
C4 C5 1.389 . S
C4 H26 0.929 . S
C5 C1 1.397 1_554 S
C5 C4 1.389 . S
C5 H27 0.931 . S
C6 C3 1.481 . S
C6 C7 1.387 . S
C6 C11 1.390 . S
C7 C6 1.387 . S
C7 C8 1.401 . S
C7 H28 0.930 . S
C8 C7 1.401 . S
C8 C9 1.376 . S
C8 C17 1.511 . S
C9 C8 1.376 . S
C9 C10 1.392 . S
C9 H30 0.931 . S
C10 C9 1.392 . S
C10 C11 1.361 . S
C10 C12 1.500 . S
C11 C6 1.390 . S
C11 C10 1.361 . S
C11 H29 0.931 . S
C12 C10 1.500 . S
C12 C13 1.371 . S
C12 C14 1.365 . S
C13 C12 1.371 . S
C13 C23 1.386 . S
C13 H31 0.931 . S
C14 C12 1.365 . S
C14 C15 1.409 . S
C14 H32 0.929 . S
C15 C14 1.409 . S
C15 C16 1.380 . S
C15 H33 0.930 . S
C16 C15 1.380 . S
C16 C23 1.357 . S
C17 C8 1.511 . S
C17 C18 1.341 . S
C17 C19 1.371 . S
C18 C17 1.341 . S
C18 C22 1.394 . S
C18 H34 0.930 . S
C19 C17 1.371 . S
C19 C20 1.392 . S
C19 H35 0.931 . S
C20 C19 1.392 . S
C20 C21 1.331 . S
C20 H38 0.932 . S
C21 C20 1.331 . S
C21 C22 1.336 . S
C22 C18 1.394 . S
C22 C21 1.336 . S
C22 H37 0.929 . S
C23 C13 1.386 . S
C23 C16 1.357 . S
C23 H36 0.928 . S
H24 C0 0.931 . S
H25 C2 0.930 . S
H26 C4 0.929 . S
H27 C5 0.931 . S
H28 C7 0.930 . S
H29 C11 0.931 . S
H30 C9 0.931 . S
H31 C13 0.931 . S
H32 C14 0.929 . S
H33 C15 0.930 . S
H34 C18 0.930 . S
H35 C19 0.931 . S
H36 C23 0.928 . S
H37 C22 0.929 . S
H38 C20 0.932 . S
C39 C40 1.386 . S
C39 C41 1.397 . S
C39 H63 0.931 . S
C40 C39 1.386 . S
C40 C44 1.397 . S
C41 C39 1.397 . S
C41 C42 1.384 . S
C41 H64 0.930 . S
C42 C41 1.384 . S
C42 C43 1.377 . S
C42 C45 1.481 . S
C43 C42 1.377 . S
C43 C44 1.389 . S
C43 H65 0.929 . S
C44 C40 1.397 . S
C44 C43 1.389 . S
C44 H66 0.931 . S
C45 C42 1.481 . S
C45 C46 1.387 . S
C45 C50 1.390 1_556 S
C46 C45 1.387 . S
C46 C47 1.401 . S
C46 H67 0.930 . S
C47 C46 1.401 . S
C47 C48 1.376 1_556 S
C47 C56 1.511 . S
C48 C47 1.376 1_554 S
C48 C49 1.392 . S
C48 H69 0.931 . S
C49 C48 1.392 . S
C49 C50 1.361 . S
C49 C51 1.500 . S
C50 C45 1.390 1_554 S
C50 C49 1.361 . S
C50 H68 0.931 . S
C51 C49 1.500 . S
C51 C52 1.371 . S
C51 C53 1.365 . S
C52 C51 1.371 . S
C52 C62 1.386 . S
C52 H70 0.931 . S
C53 C51 1.365 . S
C53 C54 1.409 . S
C53 H71 0.929 . S
C54 C53 1.409 . S
C54 C55 1.380 . S
C54 H72 0.930 . S
C55 C54 1.380 . S
C55 C62 1.357 . S
C56 C47 1.511 . S
C56 C57 1.341 . S
C56 C58 1.371 1_556 S
C57 C56 1.341 . S
C57 C61 1.394 . S
C57 H73 0.930 . S
C58 C56 1.371 1_554 S
C58 C59 1.392 . S
C58 H74 0.931 . S
C59 C58 1.392 . S
C59 C60 1.331 1_554 S
C59 H77 0.932 . S
C60 C59 1.331 1_556 S
C60 C61 1.336 . S
C61 C57 1.394 . S
C61 C60 1.336 . S
C61 H76 0.929 . S
C62 C52 1.386 . S
C62 C55 1.357 . S
C62 H75 0.928 . S
H63 C39 0.931 . S
H64 C41 0.930 . S
H65 C43 0.929 . S
H66 C44 0.931 . S
H67 C46 0.930 . S
H68 C50 0.931 . S
H69 C48 0.931 . S
H70 C52 0.931 . S
H71 C53 0.929 . S
H72 C54 0.930 . S
H73 C57 0.930 . S
H74 C58 0.931 . S
H75 C62 0.928 . S
H76 C61 0.929 . S
H77 C59 0.932 . S
C78 C79 1.395 . S
C78 C80 1.397 . S
C78 H102 0.931 . S
C79 C78 1.395 . S
C79 C83 1.388 1_565 S
C80 C78 1.397 . S
C80 C81 1.389 . S
C80 H103 0.930 . S
C81 C80 1.389 . S
C81 C82 1.373 1_565 S
C81 C84 1.481 1_556 S
C82 C81 1.373 1_545 S
C82 C83 1.399 . S
C82 H104 0.919 1_556 S
C83 C79 1.388 1_545 S
C83 C82 1.399 . S
C83 H105 0.931 . S
C84 C81 1.481 1_554 S
C84 C85 1.390 . S
C84 C89 1.389 . S
C85 C84 1.390 . S
C85 C86 1.403 . S
C85 H106 0.930 1_554 S
C86 C85 1.403 . S
C86 C87 1.377 . S
C86 C95 1.514 . S
C87 C86 1.377 . S
C87 C88 1.389 . S
C87 H108 0.934 . S
C88 C87 1.389 . S
C88 C89 1.361 . S
C88 C90 1.497 1_565 S
C89 C84 1.389 . S
C89 C88 1.361 . S
C89 H107 0.931 . S
C90 C88 1.497 1_545 S
C90 C91 1.363 1_545 S
C90 C92 1.375 . S
C91 C90 1.363 1_565 S
C91 C101 1.386 . S
C91 H109 0.931 . S
C92 C90 1.375 . S
C92 C93 1.409 . S
C92 H110 0.929 . S
C93 C92 1.409 . S
C93 C94 1.379 . S
C93 H111 0.930 . S
C94 C93 1.379 . S
C94 C101 1.359 1_545 S
C95 C86 1.514 . S
C95 C96 1.341 . S
C95 C97 1.371 1_565 S
C96 C95 1.341 . S
C96 C100 1.394 1_554 S
C96 H112 0.930 1_554 S
C97 C95 1.371 1_545 S
C97 C98 1.392 . S
C97 H113 0.931 . S
C98 C97 1.392 . S
C98 C99 1.321 1_545 S
C98 H116 0.932 . S
C99 C98 1.321 1_565 S
C99 C100 1.345 1_554 S
C100 C96 1.394 1_556 S
C100 C99 1.345 1_556 S
C100 H115 0.929 . S
C101 C91 1.386 . S
C101 C94 1.359 1_565 S
C101 H114 0.928 . S
H102 C78 0.931 . S
H103 C80 0.930 . S
H104 C82 0.919 1_554 S
H105 C83 0.931 . S
H106 C85 0.930 1_556 S
H107 C89 0.931 . S
H108 C87 0.934 . S
H109 C91 0.931 . S
H110 C92 0.929 . S
H111 C93 0.930 . S
H112 C96 0.930 1_556 S
H113 C97 0.931 . S
H114 C101 0.928 . S
H115 C100 0.929 . S
H116 C98 0.932 . S
C117 C118 1.386 . S
C117 C119 1.397 . S
C117 H141 0.931 . S
C118 C117 1.386 . S
C118 C122 1.397 . S
C119 C117 1.397 . S
C119 C120 1.384 . S
C119 H142 0.930 . S
C120 C119 1.384 . S
C120 C121 1.377 . S
C120 C123 1.481 . S
C121 C120 1.377 . S
C121 C122 1.389 . S
C121 H143 0.929 . S
C122 C118 1.397 . S
C122 C121 1.389 . S
C122 H144 0.931 . S
C123 C120 1.481 . S
C123 C124 1.387 . S
C123 C128 1.390 . S
C124 C123 1.387 . S
C124 C125 1.401 . S
C124 H145 0.930 . S
C125 C124 1.401 . S
C125 C126 1.376 . S
C125 C134 1.511 . S
C126 C125 1.376 . S
C126 C127 1.392 . S
C126 H147 0.931 1_554 S
C127 C126 1.392 . S
C127 C128 1.361 . S
C127 C129 1.500 . S
C128 C123 1.390 . S
C128 C127 1.361 . S
C128 H146 0.931 . S
C129 C127 1.500 . S
C129 C130 1.371 1_554 S
C129 C131 1.365 . S
C130 C129 1.371 1_556 S
C130 C140 1.386 . S
C130 H148 0.931 . S
C131 C129 1.365 . S
C131 C132 1.409 1_554 S
C131 H149 0.929 . S
C132 C131 1.409 1_556 S
C132 C133 1.380 . S
C132 H150 0.930 . S
C133 C132 1.380 . S
C133 C140 1.357 . S
C134 C125 1.511 . S
C134 C135 1.341 . S
C134 C136 1.371 . S
C135 C134 1.341 . S
C135 C139 1.394 . S
C135 H151 0.930 . S
C136 C134 1.371 . S
C136 C137 1.392 1_554 S
C136 H152 0.931 1_554 S
C137 C136 1.392 1_556 S
C137 C138 1.331 1_556 S
C137 H155 0.932 . S
C138 C137 1.331 1_554 S
C138 C139 1.336 . S
C139 C135 1.394 . S
C139 C138 1.336 . S
C139 H154 0.929 . S
C140 C130 1.386 . S
C140 C133 1.357 . S
C140 H153 0.928 . S
H141 C117 0.931 . S
H142 C119 0.930 . S
H143 C121 0.929 . S
H144 C122 0.931 . S
H145 C124 0.930 . S
H146 C128 0.931 . S
H147 C126 0.931 1_556 S
H148 C130 0.931 . S
H149 C131 0.929 . S
H150 C132 0.930 . S
H151 C135 0.930 . S
H152 C136 0.931 1_556 S
H153 C140 0.928 . S
H154 C139 0.929 . S
H155 C137 0.932 . S
C156 C157 1.386 . S
C156 C158 1.397 . S
C156 H180 0.931 . S
C157 C156 1.386 . S
C157 C161 1.397 . S
C158 C156 1.397 . S
C158 C159 1.384 . S
C158 H181 0.930 . S
C159 C158 1.384 . S
C159 C160 1.377 . S
C159 C162 1.481 . S
C160 C159 1.377 . S
C160 C161 1.389 . S
C160 H182 0.929 . S
C161 C157 1.397 . S
C161 C160 1.389 . S
C161 H183 0.931 . S
C162 C159 1.481 . S
C162 C163 1.387 . S
C162 C167 1.390 . S
C163 C162 1.387 . S
C163 C164 1.401 . S
C163 H184 0.930 . S
C164 C163 1.401 . S
C164 C165 1.376 . S
C164 C173 1.511 . S
C165 C164 1.376 . S
C165 C166 1.392 . S
C165 H186 0.931 . S
C166 C165 1.392 . S
C166 C167 1.361 . S
C166 C168 1.500 . S
C167 C162 1.390 . S
C167 C166 1.361 . S
C167 H185 0.931 . S
C168 C166 1.500 . S
C168 C169 1.371 . S
C168 C170 1.365 . S
C169 C168 1.371 . S
C169 C179 1.386 . S
C169 H187 0.931 . S
C170 C168 1.365 . S
C170 C171 1.409 . S
C170 H188 0.929 . S
C171 C170 1.409 . S
C171 C172 1.380 . S
C171 H189 0.930 . S
C172 C171 1.380 . S
C172 C179 1.357 . S
C173 C164 1.511 . S
C173 C174 1.341 . S
C173 C175 1.371 . S
C174 C173 1.341 . S
C174 C178 1.394 . S
C174 H190 0.930 . S
C175 C173 1.371 . S
C175 C176 1.392 . S
C175 H191 0.931 . S
C176 C175 1.392 . S
C176 C177 1.331 . S
C176 H194 0.932 . S
C177 C176 1.331 . S
C177 C178 1.336 . S
C178 C174 1.394 . S
C178 C177 1.336 . S
C178 H193 0.929 . S
C179 C169 1.386 . S
C179 C172 1.357 . S
C179 H192 0.928 . S
H180 C156 0.931 . S
H181 C158 0.930 . S
H182 C160 0.929 . S
H183 C161 0.931 . S
H184 C163 0.930 . S
H185 C167 0.931 . S
H186 C165 0.931 . S
H187 C169 0.931 . S
H188 C170 0.929 . S
H189 C171 0.930 . S
H190 C174 0.930 . S
H191 C175 0.931 . S
H192 C179 0.928 . S
H193 C178 0.929 . S
H194 C176 0.932 . S
C195 C196 1.386 . S
C195 C197 1.397 . S
C195 H219 0.931 . S
C196 C195 1.386 . S
C196 C200 1.397 . S
C197 C195 1.397 . S
C197 C198 1.384 . S
C197 H220 0.930 . S
C198 C197 1.384 . S
C198 C199 1.377 . S
C198 C201 1.481 . S
C199 C198 1.377 . S
C199 C200 1.389 . S
C199 H221 0.929 . S
C200 C196 1.397 . S
C200 C199 1.389 . S
C200 H222 0.931 . S
C201 C198 1.481 . S
C201 C202 1.387 . S
C201 C206 1.390 . S
C202 C201 1.387 . S
C202 C203 1.401 . S
C202 H223 0.930 . S
C203 C202 1.401 . S
C203 C204 1.376 . S
C203 C212 1.511 . S
C204 C203 1.376 . S
C204 C205 1.392 . S
C204 H225 0.931 . S
C205 C204 1.392 . S
C205 C206 1.361 . S
C205 C207 1.500 . S
C206 C201 1.390 . S
C206 C205 1.361 . S
C206 H224 0.931 . S
C207 C205 1.500 . S
C207 C208 1.371 . S
C207 C209 1.365 . S
C208 C207 1.371 . S
C208 C218 1.386 . S
C208 H226 0.931 . S
C209 C207 1.365 . S
C209 C210 1.409 . S
C209 H227 0.929 . S
C210 C209 1.409 . S
C210 C211 1.380 . S
C210 H228 0.930 . S
C211 C210 1.380 . S
C211 C218 1.357 . S
C212 C203 1.511 . S
C212 C213 1.341 . S
C212 C214 1.371 . S
C213 C212 1.341 . S
C213 C217 1.394 . S
C213 H229 0.930 . S
C214 C212 1.371 . S
C214 C215 1.392 . S
C214 H230 0.931 . S
C215 C214 1.392 . S
C215 C216 1.331 . S
C215 H233 0.932 . S
C216 C215 1.331 . S
C216 C217 1.336 . S
C217 C213 1.394 . S
C217 C216 1.336 . S
C217 H232 0.929 . S
C218 C208 1.386 . S
C218 C211 1.357 . S
C218 H231 0.928 . S
H219 C195 0.931 . S
H220 C197 0.930 . S
H221 C199 0.929 . S
H222 C200 0.931 . S
H223 C202 0.930 . S
H224 C206 0.931 . S
H225 C204 0.931 . S
H226 C208 0.931 . S
H227 C209 0.929 . S
H228 C210 0.930 . S
H229 C213 0.930 . S
H230 C214 0.931 . S
H231 C218 0.928 . S
H232 C217 0.929 . S
H233 C215 0.932 . S
C234 C235 1.387 . S
C234 C236 1.397 . S
C234 H258 0.931 . S
C235 C234 1.387 . S
C235 C239 1.396 1_565 S
C236 C234 1.397 . S
C236 C237 1.381 . S
C236 H259 0.930 . S
C237 C236 1.381 . S
C237 C238 1.380 1_565 S
C237 C240 1.480 . S
C238 C237 1.380 1_545 S
C238 C239 1.389 . S
C238 H260 0.929 . S
C239 C235 1.396 1_545 S
C239 C238 1.389 . S
C239 H261 0.931 . S
C240 C237 1.480 . S
C240 C241 1.387 . S
C240 C245 1.392 . S
C241 C240 1.387 . S
C241 C242 1.401 . S
C241 H262 0.930 . S
C242 C241 1.401 . S
C242 C243 1.375 . S
C242 C251 1.511 . S
C243 C242 1.375 . S
C243 C244 1.393 1_565 S
C243 H264 0.934 . S
C244 C243 1.393 1_545 S
C244 C245 1.361 1_545 S
C244 C246 1.502 . S
C245 C240 1.392 . S
C245 C244 1.361 1_565 S
C245 H263 0.931 . S
C246 C244 1.502 . S
C246 C247 1.356 1_545 S
C246 C248 1.379 . S
C247 C246 1.356 1_565 S
C247 C257 1.386 . S
C247 H265 0.931 . S
C248 C246 1.379 . S
C248 C249 1.409 . S
C248 H266 0.929 . S
C249 C248 1.409 . S
C249 C250 1.384 . S
C249 H267 0.930 . S
C250 C249 1.384 . S
C250 C257 1.354 1_545 S
C251 C242 1.511 . S
C251 C252 1.341 . S
C251 C253 1.371 1_565 S
C252 C251 1.341 . S
C252 C256 1.394 . S
C252 H268 0.930 . S
C253 C251 1.371 1_545 S
C253 C254 1.392 . S
C253 H269 0.931 . S
C254 C253 1.392 . S
C254 C255 1.327 1_545 S
C254 H272 0.932 . S
C255 C254 1.327 1_565 S
C255 C256 1.341 . S
C256 C252 1.394 . S
C256 C255 1.341 . S
C256 H271 0.929 . S
C257 C247 1.386 . S
C257 C250 1.354 1_565 S
C257 H270 0.928 . S
H258 C234 0.931 . S
H259 C236 0.930 . S
H260 C238 0.929 . S
H261 C239 0.931 . S
H262 C241 0.930 . S
H263 C245 0.931 . S
H264 C243 0.934 . S
H265 C247 0.931 . S
H266 C248 0.929 . S
H267 C249 0.930 . S
H268 C252 0.930 . S
H269 C253 0.931 . S
H270 C257 0.928 . S
H271 C256 0.929 . S
H272 C254 0.932 . S
C273 C274 1.386 . S
C273 C275 1.397 . S
C273 H297 0.931 . S
C274 C273 1.386 . S
C274 C278 1.397 . S
C275 C273 1.397 . S
C275 C276 1.384 . S
C275 H298 0.930 . S
C276 C275 1.384 . S
C276 C277 1.377 . S
C276 C279 1.481 . S
C277 C276 1.377 . S
C277 C278 1.389 . S
C277 H299 0.929 . S
C278 C274 1.397 . S
C278 C277 1.389 . S
C278 H300 0.931 . S
C279 C276 1.481 . S
C279 C280 1.387 . S
C279 C284 1.390 . S
C280 C279 1.387 . S
C280 C281 1.401 . S
C280 H301 0.930 . S
C281 C280 1.401 . S
C281 C282 1.376 . S
C281 C290 1.511 . S
C282 C281 1.376 . S
C282 C283 1.392 . S
C282 H303 0.931 . S
C283 C282 1.392 . S
C283 C284 1.361 . S
C283 C285 1.500 . S
C284 C279 1.390 . S
C284 C283 1.361 . S
C284 H302 0.931 . S
C285 C283 1.500 . S
C285 C286 1.371 . S
C285 C287 1.365 . S
C286 C285 1.371 . S
C286 C296 1.386 . S
C286 H304 0.931 . S
C287 C285 1.365 . S
C287 C288 1.409 . S
C287 H305 0.929 . S
C288 C287 1.409 . S
C288 C289 1.380 . S
C288 H306 0.930 . S
C289 C288 1.380 . S
C289 C296 1.357 . S
C290 C281 1.511 . S
C290 C291 1.341 . S
C290 C292 1.371 . S
C291 C290 1.341 . S
C291 C295 1.394 . S
C291 H307 0.930 . S
C292 C290 1.371 . S
C292 C293 1.392 . S
C292 H308 0.931 . S
C293 C292 1.392 . S
C293 C294 1.331 . S
C293 H311 0.932 . S
C294 C293 1.331 . S
C294 C295 1.336 . S
C295 C291 1.394 . S
C295 C294 1.336 . S
C295 H310 0.929 . S
C296 C286 1.386 . S
C296 C289 1.357 . S
C296 H309 0.928 . S
H297 C273 0.931 . S
H298 C275 0.930 . S
H299 C277 0.929 . S
H300 C278 0.931 . S
H301 C280 0.930 . S
H302 C284 0.931 . S
H303 C282 0.931 . S
H304 C286 0.931 . S
H305 C287 0.929 . S
H306 C288 0.930 . S
H307 C291 0.930 . S
H308 C292 0.931 . S
H309 C296 0.928 . S
H310 C295 0.929 . S
H311 C293 0.932 . S
C312 O328 1.251 . S
C312 O330 1.254 . S
N313 C314 1.338 . S
N313 C318 1.307 . S
N313 Zn319 2.020 1_655 S
C314 N313 1.338 . S
C314 C315 1.390 . S
C314 H332 0.936 1_655 S
C315 C314 1.390 . S
C315 C316 1.390 . S
C315 H342 0.949 . S
C316 C315 1.390 . S
C316 C317 1.357 . S
C317 C316 1.357 . S
C317 C318 1.370 . S
C317 H343 0.950 . S
C318 N313 1.307 . S
C318 C317 1.370 . S
C318 H336 0.964 . S
Zn319 N313 2.020 1_455 S
Zn319 O328 2.039 . S
Zn319 O334 2.034 . S
Zn319 O338 2.025 1_565 S
Zn319 O340 2.039 1_455 S
C320 O339 1.246 . S
C320 O340 1.229 1_545 S
N321 C322 1.307 . S
N321 C323 1.333 . S
N321 Zn327 2.020 . S
C322 N321 1.307 . S
C322 C326 1.370 . S
C322 H333 0.976 . S
C323 N321 1.333 . S
C323 C324 1.379 . S
C323 H331 0.952 . S
C324 C323 1.379 . S
C324 C325 1.390 . S
C324 H344 0.949 . S
C325 C324 1.390 . S
C325 C326 1.357 . S
C326 C322 1.370 . S
C326 C325 1.357 . S
C326 H345 0.950 . S
Zn327 N321 2.020 . S
Zn327 O330 2.025 1_545 S
Zn327 O335 2.024 . S
Zn327 O337 2.039 . S
Zn327 O339 2.034 1_455 S
O328 C312 1.251 . S
O328 Zn319 2.039 . S
C329 O334 1.246 . S
C329 O335 1.249 1_565 S
O330 C312 1.254 . S
O330 Zn327 2.025 1_565 S
H331 C323 0.952 . S
H332 C314 0.936 1_455 S
H333 C322 0.976 . S
O334 Zn319 2.034 . S
O334 C329 1.246 . S
O335 Zn327 2.024 . S
O335 C329 1.249 1_545 S
H336 C318 0.964 . S
O337 Zn327 2.039 . S
O337 C341 1.251 . S
O338 Zn319 2.025 1_545 S
O338 C341 1.254 . S
O339 C320 1.246 . S
O339 Zn327 2.034 1_655 S
O340 Zn319 2.039 1_655 S
O340 C320 1.229 1_565 S
C341 O337 1.251 . S
C341 O338 1.254 . S
H342 C315 0.949 . S
H343 C317 0.950 . S
H344 C324 0.949 . S
H345 C326 0.950 . S
C346 O362 1.251 1_565 S
C346 O364 1.254 . S
N347 C348 1.333 . S
N347 C352 1.307 . S
N347 Zn353 2.020 . S
C348 N347 1.333 . S
C348 C349 1.379 . S
C348 H366 0.952 . S
C349 C348 1.379 . S
C349 C350 1.390 . S
C349 H376 0.949 . S
C350 C349 1.390 . S
C350 C351 1.357 . S
C351 C350 1.357 . S
C351 C352 1.370 . S
C351 H377 0.950 . S
C352 N347 1.307 . S
C352 C351 1.370 . S
C352 H370 0.948 . S
Zn353 N347 2.020 . S
Zn353 O362 2.039 . S
Zn353 O368 2.034 . S
Zn353 O372 2.025 . S
Zn353 O374 2.024 . S
C354 O373 1.246 1_545 S
C354 O374 1.249 . S
N355 C356 1.307 . S
N355 C357 1.333 . S
N355 Zn361 2.020 . S
C356 N355 1.307 . S
C356 C360 1.370 . S
C356 H367 0.948 . S
C357 N355 1.333 . S
C357 C358 1.379 . S
C357 H365 0.952 . S
C358 C357 1.379 . S
C358 C359 1.390 . S
C358 H378 0.949 . S
C359 C358 1.390 . S
C359 C360 1.357 . S
C360 C356 1.370 . S
C360 C359 1.357 . S
C360 H379 0.950 . S
Zn361 N355 2.020 . S
Zn361 O364 2.025 . S
Zn361 O369 2.024 . S
Zn361 O371 2.039 . S
Zn361 O373 2.034 . S
O362 C346 1.251 1_545 S
O362 Zn353 2.039 . S
C363 O368 1.246 1_565 S
C363 O369 1.249 . S
O364 C346 1.254 . S
O364 Zn361 2.025 . S
H365 C357 0.952 . S
H366 C348 0.952 . S
H367 C356 0.948 . S
O368 Zn353 2.034 . S
O368 C363 1.246 1_545 S
O369 Zn361 2.024 . S
O369 C363 1.249 . S
H370 C352 0.948 . S
O371 Zn361 2.039 . S
O371 C375 1.251 1_565 S
O372 Zn353 2.025 . S
O372 C375 1.254 . S
O373 C354 1.246 1_565 S
O373 Zn361 2.034 . S
O374 Zn353 2.024 . S
O374 C354 1.249 . S
C375 O371 1.251 1_545 S
C375 O372 1.254 . S
H376 C349 0.949 . S
H377 C351 0.950 . S
H378 C358 0.949 . S
H379 C360 0.950 . S
C380 O396 1.251 . S
C380 O398 1.254 . S
N381 C382 1.333 . S
N381 C386 1.307 . S
N381 Zn387 2.020 . S
C382 N381 1.333 . S
C382 C383 1.379 . S
C382 H400 0.952 . S
C383 C382 1.379 . S
C383 C384 1.390 . S
C383 H410 0.949 . S
C384 C383 1.390 . S
C384 C385 1.357 . S
C385 C384 1.357 . S
C385 C386 1.370 . S
C385 H411 0.950 . S
C386 N381 1.307 . S
C386 C385 1.370 . S
C386 H404 0.948 . S
Zn387 N381 2.020 . S
Zn387 O396 2.039 . S
Zn387 O402 2.034 . S
Zn387 O406 2.025 . S
Zn387 O408 2.024 . S
C388 O407 1.246 . S
C388 O408 1.249 . S
N389 C390 1.307 . S
N389 C391 1.333 . S
N389 Zn395 2.020 . S
C390 N389 1.307 . S
C390 C394 1.370 . S
C390 H401 0.948 . S
C391 N389 1.333 . S
C391 C392 1.379 . S
C391 H399 0.952 . S
C392 C391 1.379 . S
C392 C393 1.390 . S
C392 H412 0.949 . S
C393 C392 1.390 . S
C393 C394 1.357 . S
C394 C390 1.370 . S
C394 C393 1.357 . S
C394 H413 0.950 . S
Zn395 N389 2.020 . S
Zn395 O398 2.025 . S
Zn395 O403 2.024 . S
Zn395 O405 2.039 . S
Zn395 O407 2.034 . S
O396 C380 1.251 . S
O396 Zn387 2.039 . S
C397 O402 1.246 . S
C397 O403 1.249 . S
O398 C380 1.254 . S
O398 Zn395 2.025 . S
H399 C391 0.952 . S
H400 C382 0.952 . S
H401 C390 0.948 . S
O402 Zn387 2.034 . S
O402 C397 1.246 . S
O403 Zn395 2.024 . S
O403 C397 1.249 . S
H404 C386 0.948 . S
O405 Zn395 2.039 . S
O405 C409 1.251 . S
O406 Zn387 2.025 . S
O406 C409 1.254 . S
O407 C388 1.246 . S
O407 Zn395 2.034 . S
O408 Zn387 2.024 . S
O408 C388 1.249 . S
C409 O405 1.251 . S
C409 O406 1.254 . S
H410 C383 0.949 . S
H411 C385 0.950 . S
H412 C392 0.949 . S
H413 C394 0.950 . S
C414 O430 1.251 . S
C414 O432 1.254 . S
N415 C416 1.333 . S
N415 C420 1.307 . S
N415 Zn421 2.020 . S
C416 N415 1.333 . S
C416 C417 1.379 . S
C416 H434 0.952 . S
C417 C416 1.379 . S
C417 C418 1.390 . S
C417 H444 0.949 . S
C418 C417 1.390 . S
C418 C419 1.357 . S
C419 C418 1.357 . S
C419 C420 1.370 . S
C419 H445 0.950 . S
C420 N415 1.307 . S
C420 C419 1.370 . S
C420 H438 0.948 . S
Zn421 N415 2.020 . S
Zn421 O430 2.039 . S
Zn421 O436 2.009 1_455 S
Zn421 O440 2.025 1_455 S
Zn421 O442 2.024 . S
C422 O441 1.246 . S
C422 O442 1.249 . S
N423 C424 1.307 . S
N423 C425 1.333 1_455 S
N423 Zn429 2.020 . S
C424 N423 1.307 . S
C424 C428 1.370 1_455 S
C424 H435 0.948 . S
C425 N423 1.333 1_655 S
C425 C426 1.379 . S
C425 H433 0.952 . S
C426 C425 1.379 . S
C426 C427 1.390 . S
C426 H446 0.949 . S
C427 C426 1.390 . S
C427 C428 1.357 . S
C428 C424 1.370 1_655 S
C428 C427 1.357 . S
C428 H447 0.949 1_655 S
Zn429 N423 2.020 . S
Zn429 O432 2.025 . S
Zn429 O437 2.024 1_455 S
Zn429 O439 2.039 1_455 S
Zn429 O441 2.034 . S
O430 C414 1.251 . S
O430 Zn421 2.039 . S
C431 O436 1.268 . S
C431 O437 1.249 . S
O432 C414 1.254 . S
O432 Zn429 2.025 . S
H433 C425 0.952 . S
H434 C416 0.952 . S
H435 C424 0.948 . S
O436 Zn421 2.009 1_655 S
O436 C431 1.268 . S
O437 Zn429 2.024 1_655 S
O437 C431 1.249 . S
H438 C420 0.948 . S
O439 Zn429 2.039 1_655 S
O439 C443 1.251 . S
O440 Zn421 2.025 1_655 S
O440 C443 1.254 . S
O441 C422 1.246 . S
O441 Zn429 2.034 . S
O442 Zn421 2.024 . S
O442 C422 1.249 . S
C443 O439 1.251 . S
C443 O440 1.254 . S
H444 C417 0.949 . S
H445 C419 0.950 . S
H446 C426 0.949 . S
H447 C428 0.949 1_455 S
C448 C449 1.410 . S
C448 C450 1.394 . S
C448 H464 0.931 . S
C449 C448 1.410 . S
C449 C453 1.362 1_545 S
C450 C448 1.394 . S
C450 C451 1.369 . S
C450 C454 1.531 . S
C451 C450 1.369 . S
C451 C452 1.410 1_545 S
C451 C459 1.503 1_545 S
C452 C451 1.410 1_565 S
C452 C453 1.392 . S
C452 C455 1.511 . S
C453 C449 1.362 1_565 S
C453 C452 1.392 . S
C453 H465 0.929 . S
C454 C450 1.531 . S
C454 H466 0.960 . S
C454 H467 0.962 . S
C454 H468 0.960 . S
C455 C452 1.511 . S
C455 H469 0.961 . S
C455 H470 0.961 . S
C455 H471 0.961 . S
C456 C457 1.370 . S
C456 C458 1.363 . S
C456 H472 0.931 . S
C457 C456 1.370 . S
C457 C461 1.408 1_565 S
C458 C456 1.363 . S
C458 C459 1.370 . S
C458 C462 1.524 . S
C459 C451 1.503 1_565 S
C459 C458 1.370 . S
C459 C460 1.403 1_565 S
C460 C459 1.403 1_545 S
C460 C461 1.404 . S
C460 C463 1.539 . S
C461 C457 1.408 1_545 S
C461 C460 1.404 . S
C461 H473 0.930 . S
C462 C458 1.524 . S
C462 H474 0.956 . S
C462 H475 0.961 . S
C462 H476 0.961 . S
C463 C460 1.539 . S
C463 H477 0.958 . S
C463 H478 0.961 . S
C463 H479 0.960 . S
H464 C448 0.931 . S
H465 C453 0.929 . S
H466 C454 0.960 . S
H467 C454 0.962 . S
H468 C454 0.960 . S
H469 C455 0.961 . S
H470 C455 0.961 . S
H471 C455 0.961 . S
H472 C456 0.931 . S
H473 C461 0.930 . S
H474 C462 0.956 . S
H475 C462 0.961 . S
H476 C462 0.961 . S
H477 C463 0.958 . S
H478 C463 0.961 . S
H479 C463 0.960 . S
C480 C481 1.391 . S
C480 C482 1.394 . S
C480 H496 0.931 . S
C481 C480 1.391 . S
C481 C485 1.376 . S
C482 C480 1.394 . S
C482 C483 1.369 . S
C482 C486 1.531 . S
C483 C482 1.369 . S
C483 C484 1.410 . S
C483 C491 1.503 . S
C484 C483 1.410 . S
C484 C485 1.392 . S
C484 C487 1.511 . S
C485 C481 1.376 . S
C485 C484 1.392 . S
C485 H497 0.929 . S
C486 C482 1.531 . S
C486 H498 0.960 . S
C486 H499 0.962 . S
C486 H500 0.960 . S
C487 C484 1.511 . S
C487 H501 0.961 . S
C487 H502 0.961 . S
C487 H503 0.961 . S
C488 C489 1.370 . S
C488 C490 1.363 . S
C488 H504 0.931 . S
C489 C488 1.370 . S
C489 C493 1.408 . S
C490 C488 1.363 . S
C490 C491 1.370 . S
C490 C494 1.524 . S
C491 C483 1.503 . S
C491 C490 1.370 . S
C491 C492 1.403 . S
C492 C491 1.403 . S
C492 C493 1.404 . S
C492 C495 1.539 . S
C493 C489 1.408 . S
C493 C492 1.404 . S
C493 H505 0.930 . S
C494 C490 1.524 . S
C494 H506 0.956 . S
C494 H507 0.961 . S
C494 H508 0.961 . S
C495 C492 1.539 . S
C495 H509 0.958 . S
C495 H510 0.961 . S
C495 H511 0.960 . S
H496 C480 0.931 . S
H497 C485 0.929 . S
H498 C486 0.960 . S
H499 C486 0.962 . S
H500 C486 0.960 . S
H501 C487 0.961 . S
H502 C487 0.961 . S
H503 C487 0.961 . S
H504 C488 0.931 . S
H505 C493 0.930 . S
H506 C494 0.956 . S
H507 C494 0.961 . S
H508 C494 0.961 . S
H509 C495 0.958 . S
H510 C495 0.961 . S
H511 C495 0.960 . S
C512 C513 1.391 . S
C512 C514 1.394 . S
C512 H528 0.931 . S
C513 C512 1.391 . S
C513 C517 1.376 . S
C514 C512 1.394 . S
C514 C515 1.369 . S
C514 C518 1.531 . S
C515 C514 1.369 . S
C515 C516 1.410 . S
C515 C523 1.503 . S
C516 C515 1.410 . S
C516 C517 1.392 . S
C516 C519 1.511 . S
C517 C513 1.376 . S
C517 C516 1.392 . S
C517 H529 0.929 . S
C518 C514 1.531 . S
C518 H530 0.960 . S
C518 H531 0.962 . S
C518 H532 0.960 . S
C519 C516 1.511 . S
C519 H533 0.961 . S
C519 H534 0.961 . S
C519 H535 0.961 . S
C520 C521 1.370 . S
C520 C522 1.363 . S
C520 H536 0.931 . S
C521 C520 1.370 . S
C521 C525 1.408 . S
C522 C520 1.363 . S
C522 C523 1.370 . S
C522 C526 1.524 . S
C523 C515 1.503 . S
C523 C522 1.370 . S
C523 C524 1.403 . S
C524 C523 1.403 . S
C524 C525 1.404 . S
C524 C527 1.539 . S
C525 C521 1.408 . S
C525 C524 1.404 . S
C525 H537 0.930 . S
C526 C522 1.524 . S
C526 H538 0.956 . S
C526 H539 0.961 . S
C526 H540 0.961 . S
C527 C524 1.539 . S
C527 H541 0.958 . S
C527 H542 0.961 . S
C527 H543 0.960 . S
H528 C512 0.931 . S
H529 C517 0.929 . S
H530 C518 0.960 . S
H531 C518 0.962 . S
H532 C518 0.960 . S
H533 C519 0.961 . S
H534 C519 0.961 . S
H535 C519 0.961 . S
H536 C520 0.931 . S
H537 C525 0.930 . S
H538 C526 0.956 . S
H539 C526 0.961 . S
H540 C526 0.961 . S
H541 C527 0.958 . S
H542 C527 0.961 . S
H543 C527 0.960 . S
C544 C545 1.391 . S
C544 C546 1.394 . S
C544 H560 0.931 . S
C545 C544 1.391 . S
C545 C549 1.376 . S
C546 C544 1.394 . S
C546 C547 1.369 . S
C546 C550 1.531 . S
C547 C546 1.369 . S
C547 C548 1.410 . S
C547 C555 1.503 . S
C548 C547 1.410 . S
C548 C549 1.392 . S
C548 C551 1.511 . S
C549 C545 1.376 . S
C549 C548 1.392 . S
C549 H561 0.929 . S
C550 C546 1.531 . S
C550 H562 0.960 . S
C550 H563 0.962 . S
C550 H564 0.960 . S
C551 C548 1.511 . S
C551 H565 0.961 . S
C551 H566 0.961 . S
C551 H567 0.961 . S
C552 C553 1.370 . S
C552 C554 1.363 . S
C552 H568 0.931 . S
C553 C552 1.370 . S
C553 C557 1.408 . S
C554 C552 1.363 . S
C554 C555 1.370 . S
C554 C558 1.524 . S
C555 C547 1.503 . S
C555 C554 1.370 . S
C555 C556 1.403 . S
C556 C555 1.403 . S
C556 C557 1.404 . S
C556 C559 1.539 . S
C557 C553 1.408 . S
C557 C556 1.404 . S
C557 H569 0.930 . S
C558 C554 1.524 . S
C558 H570 0.956 . S
C558 H571 0.961 . S
C558 H572 0.961 . S
C559 C556 1.539 . S
C559 H573 0.958 . S
C559 H574 0.961 . S
C559 H575 0.960 . S
H560 C544 0.931 . S
H561 C549 0.929 . S
H562 C550 0.960 . S
H563 C550 0.962 . S
H564 C550 0.960 . S
H565 C551 0.961 . S
H566 C551 0.961 . S
H567 C551 0.961 . S
H568 C552 0.931 . S
H569 C557 0.930 . S
H570 C558 0.956 . S
H571 C558 0.961 . S
H572 C558 0.961 . S
H573 C559 0.958 . S
H574 C559 0.961 . S
H575 C559 0.960 . S
C576 C577 1.404 . S
C576 C578 1.394 . S
C576 H592 0.931 1_556 S
C577 C576 1.404 . S
C577 C581 1.367 1_565 S
C578 C576 1.394 . S
C578 C579 1.369 . S
C578 C582 1.531 . S
C579 C578 1.369 . S
C579 C580 1.410 1_565 S
C579 C587 1.503 1_565 S
C580 C579 1.410 1_545 S
C580 C581 1.392 . S
C580 C583 1.511 . S
C581 C577 1.367 1_545 S
C581 C580 1.392 . S
C581 H593 0.929 . S
C582 C578 1.531 . S
C582 H594 0.960 . S
C582 H595 0.962 . S
C582 H596 0.960 1_556 S
C583 C580 1.511 . S
C583 H597 0.961 . S
C583 H598 0.961 . S
C583 H599 0.961 . S
C584 C585 1.370 . S
C584 C586 1.363 . S
C584 H600 0.931 . S
C585 C584 1.370 . S
C585 C589 1.408 1_545 S
C586 C584 1.363 . S
C586 C587 1.370 . S
C586 C590 1.524 . S
C587 C579 1.503 1_545 S
C587 C586 1.370 . S
C587 C588 1.403 1_545 S
C588 C587 1.403 1_565 S
C588 C589 1.404 . S
C588 C591 1.539 . S
C589 C585 1.408 1_565 S
C589 C588 1.404 . S
C589 H601 0.930 . S
C590 C586 1.524 . S
C590 H602 0.956 . S
C590 H603 0.961 . S
C590 H604 0.961 . S
C591 C588 1.539 . S
C591 H605 0.958 . S
C591 H606 0.961 . S
C591 H607 0.960 . S
H592 C576 0.931 1_554 S
H593 C581 0.929 . S
H594 C582 0.960 . S
H595 C582 0.962 . S
H596 C582 0.960 1_554 S
H597 C583 0.961 . S
H598 C583 0.961 . S
H599 C583 0.961 . S
H600 C584 0.931 . S
H601 C589 0.930 . S
H602 C590 0.956 . S
H603 C590 0.961 . S
H604 C590 0.961 . S
H605 C591 0.958 . S
H606 C591 0.961 . S
H607 C591 0.960 . S
C608 C609 1.391 . S
C608 C610 1.394 . S
C608 H624 0.931 . S
C609 C608 1.391 . S
C609 C613 1.376 . S
C610 C608 1.394 . S
C610 C611 1.369 . S
C610 C614 1.531 . S
C611 C610 1.369 . S
C611 C612 1.410 . S
C611 C619 1.503 . S
C612 C611 1.410 . S
C612 C613 1.392 . S
C612 C615 1.511 . S
C613 C609 1.376 . S
C613 C612 1.392 . S
C613 H625 0.929 1_556 S
C614 C610 1.531 . S
C614 H626 0.960 . S
C614 H627 0.962 . S
C614 H628 0.960 . S
C615 C612 1.511 . S
C615 H629 0.961 . S
C615 H630 0.961 . S
C615 H631 0.961 . S
C616 C617 1.370 . S
C616 C618 1.363 . S
C616 H632 0.931 . S
C617 C616 1.370 . S
C617 C621 1.408 . S
C618 C616 1.363 . S
C618 C619 1.370 . S
C618 C622 1.524 . S
C619 C611 1.503 . S
C619 C618 1.370 . S
C619 C620 1.403 . S
C620 C619 1.403 . S
C620 C621 1.404 . S
C620 C623 1.539 . S
C621 C617 1.408 . S
C621 C620 1.404 . S
C621 H633 0.930 . S
C622 C618 1.524 . S
C622 H634 0.956 . S
C622 H635 0.961 . S
C622 H636 0.961 . S
C623 C620 1.539 . S
C623 H637 0.958 . S
C623 H638 0.961 . S
C623 H639 0.960 . S
H624 C608 0.931 . S
H625 C613 0.929 1_554 S
H626 C614 0.960 . S
H627 C614 0.962 . S
H628 C614 0.960 . S
H629 C615 0.961 . S
H630 C615 0.961 . S
H631 C615 0.961 . S
H632 C616 0.931 . S
H633 C621 0.930 . S
H634 C622 0.956 . S
H635 C622 0.961 . S
H636 C622 0.961 . S
H637 C623 0.958 . S
H638 C623 0.961 . S
H639 C623 0.960 . S
C640 C641 1.391 1_556 S
C640 C642 1.394 . S
C640 H656 0.931 . S
C641 C640 1.391 1_554 S
C641 C645 1.376 . S
C642 C640 1.394 . S
C642 C643 1.369 . S
C642 C646 1.531 . S
C643 C642 1.369 . S
C643 C644 1.410 1_556 S
C643 C651 1.503 . S
C644 C643 1.410 1_554 S
C644 C645 1.392 . S
C644 C647 1.511 . S
C645 C641 1.376 . S
C645 C644 1.392 . S
C645 H657 0.929 . S
C646 C642 1.531 . S
C646 H658 0.960 . S
C646 H659 0.962 . S
C646 H660 0.960 . S
C647 C644 1.511 . S
C647 H661 0.961 . S
C647 H662 0.961 1_554 S
C647 H663 0.961 . S
C648 C649 1.370 . S
C648 C650 1.363 . S
C648 H664 0.931 . S
C649 C648 1.370 . S
C649 C653 1.408 . S
C650 C648 1.363 . S
C650 C651 1.370 . S
C650 C654 1.524 . S
C651 C643 1.503 . S
C651 C650 1.370 . S
C651 C652 1.403 . S
C652 C651 1.403 . S
C652 C653 1.404 . S
C652 C655 1.539 . S
C653 C649 1.408 . S
C653 C652 1.404 . S
C653 H665 0.930 . S
C654 C650 1.524 . S
C654 H666 0.956 . S
C654 H667 0.961 . S
C654 H668 0.961 . S
C655 C652 1.539 . S
C655 H669 0.958 . S
C655 H670 0.961 . S
C655 H671 0.960 . S
H656 C640 0.931 . S
H657 C645 0.929 . S
H658 C646 0.960 . S
H659 C646 0.962 . S
H660 C646 0.960 . S
H661 C647 0.961 . S
H662 C647 0.961 1_556 S
H663 C647 0.961 . S
H664 C648 0.931 . S
H665 C653 0.930 . S
H666 C654 0.956 . S
H667 C654 0.961 . S
H668 C654 0.961 . S
H669 C655 0.958 . S
H670 C655 0.961 . S
H671 C655 0.960 . S
C672 C673 1.391 . S
C672 C674 1.394 . S
C672 H688 0.931 . S
C673 C672 1.391 . S
C673 C677 1.376 . S
C674 C672 1.394 . S
C674 C675 1.369 . S
C674 C678 1.531 . S
C675 C674 1.369 . S
C675 C676 1.410 . S
C675 C683 1.503 . S
C676 C675 1.410 . S
C676 C677 1.392 . S
C676 C679 1.511 . S
C677 C673 1.376 . S
C677 C676 1.392 . S
C677 H689 0.929 . S
C678 C674 1.531 . S
C678 H690 0.960 . S
C678 H691 0.962 . S
C678 H692 0.960 . S
C679 C676 1.511 . S
C679 H693 0.961 . S
C679 H694 0.961 . S
C679 H695 0.961 . S
C680 C681 1.370 . S
C680 C682 1.363 . S
C680 H696 0.931 . S
C681 C680 1.370 . S
C681 C685 1.408 . S
C682 C680 1.363 . S
C682 C683 1.370 . S
C682 C686 1.524 . S
C683 C675 1.503 . S
C683 C682 1.370 . S
C683 C684 1.403 . S
C684 C683 1.403 . S
C684 C685 1.404 . S
C684 C687 1.539 . S
C685 C681 1.408 . S
C685 C684 1.404 . S
C685 H697 0.930 . S
C686 C682 1.524 . S
C686 H698 0.956 . S
C686 H699 0.961 . S
C686 H700 0.961 . S
C687 C684 1.539 . S
C687 H701 0.958 . S
C687 H702 0.961 . S
C687 H703 0.960 . S
H688 C672 0.931 . S
H689 C677 0.929 . S
H690 C678 0.960 . S
H691 C678 0.962 . S
H692 C678 0.960 . S
H693 C679 0.961 . S
H694 C679 0.961 . S
H695 C679 0.961 . S
H696 C680 0.931 . S
H697 C685 0.930 . S
H698 C686 0.956 . S
H699 C686 0.961 . S
H700 C686 0.961 . S
H701 C687 0.958 . S
H702 C687 0.961 . S
H703 C687 0.960 . S
C704 C705 1.391 . S
C704 C706 1.394 . S
C704 H720 0.931 . S
C705 C704 1.391 . S
C705 C709 1.376 . S
C706 C704 1.394 . S
C706 C707 1.369 . S
C706 C710 1.531 . S
C707 C706 1.369 . S
C707 C708 1.410 . S
C707 C715 1.503 . S
C708 C707 1.410 . S
C708 C709 1.392 . S
C708 C711 1.511 . S
C709 C705 1.376 . S
C709 C708 1.392 . S
C709 H721 0.929 . S
C710 C706 1.531 . S
C710 H722 0.960 . S
C710 H723 0.962 . S
C710 H724 0.960 . S
C711 C708 1.511 . S
C711 H725 0.961 . S
C711 H726 0.961 . S
C711 H727 0.961 . S
C712 C713 1.370 . S
C712 C714 1.363 . S
C712 H728 0.931 . S
C713 C712 1.370 . S
C713 C717 1.408 . S
C714 C712 1.363 . S
C714 C715 1.370 . S
C714 C718 1.524 . S
C715 C707 1.503 . S
C715 C714 1.370 . S
C715 C716 1.403 . S
C716 C715 1.403 . S
C716 C717 1.404 . S
C716 C719 1.539 . S
C717 C713 1.408 . S
C717 C716 1.404 . S
C717 H729 0.930 . S
C718 C714 1.524 . S
C718 H730 0.956 . S
C718 H731 0.961 . S
C718 H732 0.961 . S
C719 C716 1.539 . S
C719 H733 0.958 . S
C719 H734 0.961 . S
C719 H735 0.960 . S
H720 C704 0.931 . S
H721 C709 0.929 . S
H722 C710 0.960 . S
H723 C710 0.962 . S
H724 C710 0.960 . S
H725 C711 0.961 . S
H726 C711 0.961 . S
H727 C711 0.961 . S
H728 C712 0.931 . S
H729 C717 0.930 . S
H730 C718 0.956 . S
H731 C718 0.961 . S
H732 C718 0.961 . S
H733 C719 0.958 . S
H734 C719 0.961 . S
H735 C719 0.960 . S
C736 C737 1.391 . S
C736 C738 1.394 . S
C736 H752 0.931 . S
C737 C736 1.391 . S
C737 C741 1.376 1_545 S
C738 C736 1.394 . S
C738 C739 1.369 . S
C738 C742 1.531 . S
C739 C738 1.369 . S
C739 C740 1.410 1_545 S
C739 C747 1.503 1_545 S
C740 C739 1.410 1_565 S
C740 C741 1.392 . S
C740 C743 1.511 . S
C741 C737 1.376 1_565 S
C741 C740 1.392 . S
C741 H753 0.929 . S
C742 C738 1.531 . S
C742 H754 0.960 . S
C742 H755 0.962 . S
C742 H756 0.960 . S
C743 C740 1.511 . S
C743 H757 0.961 . S
C743 H758 0.961 . S
C743 H759 0.928 1_565 S
C744 C745 1.370 . S
C744 C746 1.363 . S
C744 H760 0.931 . S
C745 C744 1.370 . S
C745 C749 1.408 1_565 S
C746 C744 1.363 . S
C746 C747 1.370 . S
C746 C750 1.524 . S
C747 C739 1.503 1_565 S
C747 C746 1.370 . S
C747 C748 1.403 1_565 S
C748 C747 1.403 1_545 S
C748 C749 1.404 . S
C748 C751 1.539 . S
C749 C745 1.408 1_545 S
C749 C748 1.404 . S
C749 H761 0.930 . S
C750 C746 1.524 . S
C750 H762 0.956 . S
C750 H763 0.961 . S
C750 H764 0.961 . S
C751 C748 1.539 . S
C751 H765 0.958 . S
C751 H766 0.961 . S
C751 H767 0.960 . S
H752 C736 0.931 . S
H753 C741 0.929 . S
H754 C742 0.960 . S
H755 C742 0.962 . S
H756 C742 0.960 . S
H757 C743 0.961 . S
H758 C743 0.961 . S
H759 C743 0.928 1_545 S
H760 C744 0.931 . S
H761 C749 0.930 . S
H762 C750 0.956 . S
H763 C750 0.961 . S
H764 C750 0.961 . S
H765 C751 0.958 . S
H766 C751 0.961 . S
H767 C751 0.960 . S
C768 C769 1.391 . S
C768 C770 1.394 . S
C768 H784 0.931 . S
C769 C768 1.391 . S
C769 C773 1.376 . S
C770 C768 1.394 . S
C770 C771 1.369 . S
C770 C774 1.531 . S
C771 C770 1.369 . S
C771 C772 1.410 . S
C771 C779 1.503 . S
C772 C771 1.410 . S
C772 C773 1.392 . S
C772 C775 1.511 . S
C773 C769 1.376 . S
C773 C772 1.392 . S
C773 H785 0.929 . S
C774 C770 1.531 . S
C774 H786 0.960 . S
C774 H787 0.962 . S
C774 H788 0.960 . S
C775 C772 1.511 . S
C775 H789 0.961 . S
C775 H790 0.961 . S
C775 H791 0.961 . S
C776 C777 1.370 . S
C776 C778 1.363 . S
C776 H792 0.931 . S
C777 C776 1.370 . S
C777 C781 1.408 . S
C778 C776 1.363 . S
C778 C779 1.370 . S
C778 C782 1.524 . S
C779 C771 1.503 . S
C779 C778 1.370 . S
C779 C780 1.403 . S
C780 C779 1.403 . S
C780 C781 1.404 . S
C780 C783 1.539 . S
C781 C777 1.408 . S
C781 C780 1.404 . S
C781 H793 0.930 . S
C782 C778 1.524 . S
C782 H794 0.956 . S
C782 H795 0.961 . S
C782 H796 0.961 . S
C783 C780 1.539 . S
C783 H797 0.958 . S
C783 H798 0.961 . S
C783 H799 0.960 . S
H784 C768 0.931 . S
H785 C773 0.929 . S
H786 C774 0.960 . S
H787 C774 0.962 . S
H788 C774 0.960 . S
H789 C775 0.961 . S
H790 C775 0.961 . S
H791 C775 0.961 . S
H792 C776 0.931 . S
H793 C781 0.930 . S
H794 C782 0.956 . S
H795 C782 0.961 . S
H796 C782 0.961 . S
H797 C783 0.958 . S
H798 C783 0.961 . S
H799 C783 0.960 . S
C800 C801 1.391 . S
C800 C802 1.394 . S
C800 H816 0.931 . S
C801 C800 1.391 . S
C801 C805 1.376 . S
C802 C800 1.394 . S
C802 C803 1.369 . S
C802 C806 1.531 . S
C803 C802 1.369 . S
C803 C804 1.410 . S
C803 C811 1.503 . S
C804 C803 1.410 . S
C804 C805 1.392 . S
C804 C807 1.511 . S
C805 C801 1.376 . S
C805 C804 1.392 . S
C805 H817 0.929 . S
C806 C802 1.531 . S
C806 H818 0.960 . S
C806 H819 0.962 . S
C806 H820 0.960 . S
C807 C804 1.511 . S
C807 H821 0.961 . S
C807 H822 0.961 . S
C807 H823 0.961 . S
C808 C809 1.370 . S
C808 C810 1.363 . S
C808 H824 0.931 . S
C809 C808 1.370 . S
C809 C813 1.408 . S
C810 C808 1.363 . S
C810 C811 1.370 . S
C810 C814 1.524 . S
C811 C803 1.503 . S
C811 C810 1.370 . S
C811 C812 1.403 . S
C812 C811 1.403 . S
C812 C813 1.404 . S
C812 C815 1.539 . S
C813 C809 1.408 . S
C813 C812 1.404 . S
C813 H825 0.930 . S
C814 C810 1.524 . S
C814 H826 0.956 . S
C814 H827 0.961 . S
C814 H828 0.961 . S
C815 C812 1.539 . S
C815 H829 0.958 . S
C815 H830 0.961 . S
C815 H831 0.960 . S
H816 C800 0.931 . S
H817 C805 0.929 . S
H818 C806 0.960 . S
H819 C806 0.962 . S
H820 C806 0.960 . S
H821 C807 0.961 . S
H822 C807 0.961 . S
H823 C807 0.961 . S
H824 C808 0.931 . S
H825 C813 0.930 . S
H826 C814 0.956 . S
H827 C814 0.961 . S
H828 C814 0.961 . S
H829 C815 0.958 . S
H830 C815 0.961 . S
H831 C815 0.960 . S
C832 C833 1.391 . S
C832 C834 1.394 . S
C832 H848 0.931 . S
C833 C832 1.391 . S
C833 C837 1.376 . S
C834 C832 1.394 . S
C834 C835 1.369 . S
C834 C838 1.531 . S
C835 C834 1.369 . S
C835 C836 1.410 . S
C835 C843 1.503 . S
C836 C835 1.410 . S
C836 C837 1.392 . S
C836 C839 1.511 . S
C837 C833 1.376 . S
C837 C836 1.392 . S
C837 H849 0.929 . S
C838 C834 1.531 . S
C838 H850 0.960 . S
C838 H851 0.962 . S
C838 H852 0.960 . S
C839 C836 1.511 . S
C839 H853 0.961 . S
C839 H854 0.961 . S
C839 H855 0.961 . S
C840 C841 1.370 1_655 S
C840 C842 1.363 . S
C840 H856 0.931 . S
C841 C840 1.370 1_455 S
C841 C845 1.408 . S
C842 C840 1.363 . S
C842 C843 1.370 . S
C842 C846 1.524 . S
C843 C835 1.503 . S
C843 C842 1.370 . S
C843 C844 1.403 . S
C844 C843 1.403 . S
C844 C845 1.404 1_655 S
C844 C847 1.539 . S
C845 C841 1.408 . S
C845 C844 1.404 1_455 S
C845 H857 0.930 . S
C846 C842 1.524 . S
C846 H858 0.956 . S
C846 H859 0.961 . S
C846 H860 0.961 . S
C847 C844 1.539 . S
C847 H861 0.958 . S
C847 H862 0.961 1_655 S
C847 H863 0.960 . S
H848 C832 0.931 . S
H849 C837 0.929 . S
H850 C838 0.960 . S
H851 C838 0.962 . S
H852 C838 0.960 . S
H853 C839 0.961 . S
H854 C839 0.961 . S
H855 C839 0.961 . S
H856 C840 0.931 . S
H857 C845 0.930 . S
H858 C846 0.956 . S
H859 C846 0.961 . S
H860 C846 0.961 . S
H861 C847 0.958 . S
H862 C847 0.961 1_455 S
H863 C847 0.960 . S
C864 C865 1.391 1_565 S
C864 C866 1.394 . S
C864 H880 0.931 . S
C865 C864 1.391 1_545 S
C865 C869 1.376 . S
C866 C864 1.394 . S
C866 C867 1.369 1_565 S
C866 C870 1.531 . S
C867 C866 1.369 1_545 S
C867 C868 1.410 . S
C867 C875 1.503 . S
C868 C867 1.410 . S
C868 C869 1.392 . S
C868 C871 1.511 . S
C869 C865 1.376 . S
C869 C868 1.392 . S
C869 H881 0.929 . S
C870 C866 1.531 . S
C870 H882 0.960 . S
C870 H883 0.962 . S
C870 H884 0.960 . S
C871 C868 1.511 . S
C871 H885 0.961 . S
C871 H886 0.961 . S
C871 H887 0.961 . S
C872 C873 1.370 1_565 S
C872 C874 1.363 . S
C872 H888 0.931 . S
C873 C872 1.370 1_545 S
C873 C877 1.408 . S
C874 C872 1.363 . S
C874 C875 1.370 1_565 S
C874 C878 1.524 . S
C875 C867 1.503 . S
C875 C874 1.370 1_545 S
C875 C876 1.403 . S
C876 C875 1.403 . S
C876 C877 1.404 . S
C876 C879 1.539 . S
C877 C873 1.408 . S
C877 C876 1.404 . S
C877 H889 0.930 . S
C878 C874 1.524 . S
C878 H890 0.956 . S
C878 H891 0.961 . S
C878 H892 0.961 . S
C879 C876 1.539 . S
C879 H893 0.958 . S
C879 H894 0.961 . S
C879 H895 0.960 . S
H880 C864 0.931 . S
H881 C869 0.929 . S
H882 C870 0.960 . S
H883 C870 0.962 . S
H884 C870 0.960 . S
H885 C871 0.961 . S
H886 C871 0.961 . S
H887 C871 0.961 . S
H888 C872 0.931 . S
H889 C877 0.930 . S
H890 C878 0.956 . S
H891 C878 0.961 . S
H892 C878 0.961 . S
H893 C879 0.958 . S
H894 C879 0.961 . S
H895 C879 0.960 . S
C896 C897 1.391 . S
C896 C898 1.394 . S
C896 H912 0.931 . S
C897 C896 1.391 . S
C897 C901 1.376 . S
C898 C896 1.394 . S
C898 C899 1.369 . S
C898 C902 1.531 . S
C899 C898 1.369 . S
C899 C900 1.410 . S
C899 C907 1.503 . S
C900 C899 1.410 . S
C900 C901 1.392 . S
C900 C903 1.511 . S
C901 C897 1.376 . S
C901 C900 1.392 . S
C901 H913 0.929 . S
C902 C898 1.531 . S
C902 H914 0.960 . S
C902 H915 0.962 . S
C902 H916 0.960 . S
C903 C900 1.511 . S
C903 H917 0.961 . S
C903 H918 0.961 . S
C903 H919 0.961 . S
C904 C905 1.370 . S
C904 C906 1.363 . S
C904 H920 0.931 . S
C905 C904 1.370 . S
C905 C909 1.408 . S
C906 C904 1.363 . S
C906 C907 1.370 . S
C906 C910 1.524 . S
C907 C899 1.503 . S
C907 C906 1.370 . S
C907 C908 1.403 . S
C908 C907 1.403 . S
C908 C909 1.404 . S
C908 C911 1.539 . S
C909 C905 1.408 . S
C909 C908 1.404 . S
C909 H921 0.930 . S
C910 C906 1.524 . S
C910 H922 0.956 . S
C910 H923 0.961 . S
C910 H924 0.961 . S
C911 C908 1.539 . S
C911 H925 0.958 . S
C911 H926 0.961 . S
C911 H927 0.960 . S
H912 C896 0.931 . S
H913 C901 0.929 . S
H914 C902 0.960 . S
H915 C902 0.962 . S
H916 C902 0.960 . S
H917 C903 0.961 . S
H918 C903 0.961 . S
H919 C903 0.961 . S
H920 C904 0.931 . S
H921 C909 0.930 . S
H922 C910 0.956 . S
H923 C910 0.961 . S
H924 C910 0.961 . S
H925 C911 0.958 . S
H926 C911 0.961 . S
H927 C911 0.960 . S
C928 C929 1.391 . S
C928 C930 1.394 . S
C928 H944 0.931 . S
C929 C928 1.391 . S
C929 C933 1.376 . S
C930 C928 1.394 . S
C930 C931 1.369 . S
C930 C934 1.531 . S
C931 C930 1.369 . S
C931 C932 1.410 . S
C931 C939 1.503 . S
C932 C931 1.410 . S
C932 C933 1.392 . S
C932 C935 1.511 . S
C933 C929 1.376 . S
C933 C932 1.392 . S
C933 H945 0.929 1_556 S
C934 C930 1.531 . S
C934 H946 0.960 . S
C934 H947 0.962 . S
C934 H948 0.960 . S
C935 C932 1.511 . S
C935 H949 0.961 1_556 S
C935 H950 0.961 . S
C935 H951 0.961 . S
C936 C937 1.370 . S
C936 C938 1.363 . S
C936 H952 0.931 . S
C937 C936 1.370 . S
C937 C941 1.408 . S
C938 C936 1.363 . S
C938 C939 1.370 . S
C938 C942 1.524 . S
C939 C931 1.503 . S
C939 C938 1.370 . S
C939 C940 1.403 . S
C940 C939 1.403 . S
C940 C941 1.404 . S
C940 C943 1.539 . S
C941 C937 1.408 . S
C941 C940 1.404 . S
C941 H953 0.930 . S
C942 C938 1.524 . S
C942 H954 0.956 . S
C942 H955 0.961 . S
C942 H956 0.961 . S
C943 C940 1.539 . S
C943 H957 0.958 . S
C943 H958 0.961 . S
C943 H959 0.960 . S
H944 C928 0.931 . S
H945 C933 0.929 1_554 S
H946 C934 0.960 . S
H947 C934 0.962 . S
H948 C934 0.960 . S
H949 C935 0.961 1_554 S
H950 C935 0.961 . S
H951 C935 0.961 . S
H952 C936 0.931 . S
H953 C941 0.930 . S
H954 C942 0.956 . S
H955 C942 0.961 . S
H956 C942 0.961 . S
H957 C943 0.958 . S
H958 C943 0.961 . S
H959 C943 0.960 . S
C960 C961 1.391 . S
C960 C962 1.394 . S
C960 H976 0.931 . S
C961 C960 1.391 . S
C961 C965 1.376 . S
C962 C960 1.394 . S
C962 C963 1.369 . S
C962 C966 1.531 1_554 S
C963 C962 1.369 . S
C963 C964 1.410 . S
C963 C971 1.503 . S
C964 C963 1.410 . S
C964 C965 1.392 . S
C964 C967 1.511 . S
C965 C961 1.376 . S
C965 C964 1.392 . S
C965 H977 0.929 . S
C966 C962 1.531 1_556 S
C966 H978 0.960 . S
C966 H979 0.962 . S
C966 H980 0.960 . S
C967 C964 1.511 . S
C967 H981 0.961 . S
C967 H982 0.961 . S
C967 H983 0.961 . S
C968 C969 1.370 1_554 S
C968 C970 1.363 . S
C968 H984 0.931 . S
C969 C968 1.370 1_556 S
C969 C973 1.408 . S
C970 C968 1.363 . S
C970 C971 1.370 . S
C970 C974 1.524 . S
C971 C963 1.503 . S
C971 C970 1.370 . S
C971 C972 1.403 1_554 S
C972 C971 1.403 1_556 S
C972 C973 1.404 . S
C972 C975 1.539 . S
C973 C969 1.408 . S
C973 C972 1.404 . S
C973 H985 0.930 . S
C974 C970 1.524 . S
C974 H986 0.956 . S
C974 H987 0.961 . S
C974 H988 0.961 . S
C975 C972 1.539 . S
C975 H989 0.958 . S
C975 H990 0.961 . S
C975 H991 0.960 . S
H976 C960 0.931 . S
H977 C965 0.929 . S
H978 C966 0.960 . S
H979 C966 0.962 . S
H980 C966 0.960 . S
H981 C967 0.961 . S
H982 C967 0.961 . S
H983 C967 0.961 . S
H984 C968 0.931 . S
H985 C973 0.930 . S
H986 C974 0.956 . S
H987 C974 0.961 . S
H988 C974 0.961 . S
H989 C975 0.958 . S
H990 C975 0.961 . S
H991 C975 0.960 . S
C992 C993 1.391 . S
C992 C994 1.394 1_554 S
C992 H1008 0.931 . S
C993 C992 1.391 . S
C993 C997 1.376 1_564 S
C994 C992 1.394 1_556 S
C994 C995 1.369 . S
C994 C998 1.531 1_556 S
C995 C994 1.369 . S
C995 C996 1.410 1_565 S
C995 C1003 1.503 . S
C996 C995 1.410 1_545 S
C996 C997 1.392 . S
C996 C999 1.511 . S
C997 C993 1.376 1_546 S
C997 C996 1.392 . S
C997 H1009 0.929 . S
C998 C994 1.531 1_554 S
C998 H1010 0.960 1_554 S
C998 H1011 0.962 . S
C998 H1012 0.960 . S
C999 C996 1.511 . S
C999 H1013 0.961 . S
C999 H1014 0.961 . S
C999 H1015 0.961 . S
C1000 C1001 1.370 . S
C1000 C1002 1.363 . S
C1000 H1016 0.931 . S
C1001 C1000 1.370 . S
C1001 C1005 1.408 1_545 S
C1002 C1000 1.363 . S
C1002 C1003 1.370 1_545 S
C1002 C1006 1.524 . S
C1003 C995 1.503 . S
C1003 C1002 1.370 1_565 S
C1003 C1004 1.403 . S
C1004 C1003 1.403 . S
C1004 C1005 1.404 . S
C1004 C1007 1.539 . S
C1005 C1001 1.408 1_565 S
C1005 C1004 1.404 . S
C1005 H1017 0.930 . S
C1006 C1002 1.524 . S
C1006 H1018 0.956 . S
C1006 H1019 0.961 . S
C1006 H1020 0.961 . S
C1007 C1004 1.539 . S
C1007 H1021 0.958 . S
C1007 H1022 0.961 . S
C1007 H1023 0.960 . S
H1008 C992 0.931 . S
H1009 C997 0.929 . S
H1010 C998 0.960 1_556 S
H1011 C998 0.962 . S
H1012 C998 0.960 . S
H1013 C999 0.961 . S
H1014 C999 0.961 . S
H1015 C999 0.961 . S
H1016 C1000 0.931 . S
H1017 C1005 0.930 . S
H1018 C1006 0.956 . S
H1019 C1006 0.961 . S
H1020 C1006 0.961 . S
H1021 C1007 0.958 . S
H1022 C1007 0.961 . S
H1023 C1007 0.960 . S
C1024 C1025 1.391 1_556 S
C1024 C1026 1.394 . S
C1024 H1040 0.931 . S
C1025 C1024 1.391 1_554 S
C1025 C1029 1.376 . S
C1026 C1024 1.394 . S
C1026 C1027 1.369 . S
C1026 C1030 1.531 . S
C1027 C1026 1.369 . S
C1027 C1028 1.410 . S
C1027 C1035 1.503 . S
C1028 C1027 1.410 . S
C1028 C1029 1.392 1_556 S
C1028 C1031 1.511 . S
C1029 C1025 1.376 . S
C1029 C1028 1.392 1_554 S
C1029 H1041 0.929 . S
C1030 C1026 1.531 . S
C1030 H1042 0.960 . S
C1030 H1043 0.962 . S
C1030 H1044 0.960 . S
C1031 C1028 1.511 . S
C1031 H1045 0.961 1_556 S
C1031 H1046 0.961 . S
C1031 H1047 0.961 . S
C1032 C1033 1.370 . S
C1032 C1034 1.363 . S
C1032 H1048 0.931 . S
C1033 C1032 1.370 . S
C1033 C1037 1.408 . S
C1034 C1032 1.363 . S
C1034 C1035 1.370 . S
C1034 C1038 1.524 . S
C1035 C1027 1.503 . S
C1035 C1034 1.370 . S
C1035 C1036 1.403 . S
C1036 C1035 1.403 . S
C1036 C1037 1.404 . S
C1036 C1039 1.539 . S
C1037 C1033 1.408 . S
C1037 C1036 1.404 . S
C1037 H1049 0.930 . S
C1038 C1034 1.524 . S
C1038 H1050 0.956 . S
C1038 H1051 0.961 1_556 S
C1038 H1052 0.961 . S
C1039 C1036 1.539 . S
C1039 H1053 0.958 . S
C1039 H1054 0.961 . S
C1039 H1055 0.960 . S
H1040 C1024 0.931 . S
H1041 C1029 0.929 . S
H1042 C1030 0.960 . S
H1043 C1030 0.962 . S
H1044 C1030 0.960 . S
H1045 C1031 0.961 1_554 S
H1046 C1031 0.961 . S
H1047 C1031 0.961 . S
H1048 C1032 0.931 . S
H1049 C1037 0.930 . S
H1050 C1038 0.956 . S
H1051 C1038 0.961 1_554 S
H1052 C1038 0.961 . S
H1053 C1039 0.958 . S
H1054 C1039 0.961 . S
H1055 C1039 0.960 . S
C1056 C1057 1.391 1_554 S
C1056 C1058 1.394 1_554 S
C1056 H1072 0.931 . S
C1057 C1056 1.391 1_556 S
C1057 C1061 1.376 . S
C1058 C1056 1.394 1_556 S
C1058 C1059 1.369 . S
C1058 C1062 1.531 1_556 S
C1059 C1058 1.369 . S
C1059 C1060 1.410 . S
C1059 C1067 1.503 . S
C1060 C1059 1.410 . S
C1060 C1061 1.392 . S
C1060 C1063 1.511 . S
C1061 C1057 1.376 . S
C1061 C1060 1.392 . S
C1061 H1073 0.929 . S
C1062 C1058 1.531 1_554 S
C1062 H1074 0.960 1_554 S
C1062 H1075 0.962 . S
C1062 H1076 0.960 . S
C1063 C1060 1.511 . S
C1063 H1077 0.961 . S
C1063 H1078 0.961 . S
C1063 H1079 0.961 . S
C1064 C1065 1.370 . S
C1064 C1066 1.363 . S
C1064 H1080 0.931 . S
C1065 C1064 1.370 . S
C1065 C1069 1.408 . S
C1066 C1064 1.363 . S
C1066 C1067 1.370 . S
C1066 C1070 1.524 . S
C1067 C1059 1.503 . S
C1067 C1066 1.370 . S
C1067 C1068 1.403 . S
C1068 C1067 1.403 . S
C1068 C1069 1.404 . S
C1068 C1071 1.539 . S
C1069 C1065 1.408 . S
C1069 C1068 1.404 . S
C1069 H1081 0.930 . S
C1070 C1066 1.524 . S
C1070 H1082 0.956 . S
C1070 H1083 0.961 . S
C1070 H1084 0.961 . S
C1071 C1068 1.539 . S
C1071 H1085 0.958 . S
C1071 H1086 0.961 . S
C1071 H1087 0.960 . S
H1072 C1056 0.931 . S
H1073 C1061 0.929 . S
H1074 C1062 0.960 1_556 S
H1075 C1062 0.962 . S
H1076 C1062 0.960 . S
H1077 C1063 0.961 . S
H1078 C1063 0.961 . S
H1079 C1063 0.961 . S
H1080 C1064 0.931 . S
H1081 C1069 0.930 . S
H1082 C1070 0.956 . S
H1083 C1070 0.961 . S
H1084 C1070 0.961 . S
H1085 C1071 0.958 . S
H1086 C1071 0.961 . S
H1087 C1071 0.960 . S
C1088 C1089 1.391 . S
C1088 C1090 1.394 . S
C1088 H1104 0.931 . S
C1089 C1088 1.391 . S
C1089 C1093 1.376 . S
C1090 C1088 1.394 . S
C1090 C1091 1.369 . S
C1090 C1094 1.531 . S
C1091 C1090 1.369 . S
C1091 C1092 1.410 . S
C1091 C1099 1.503 . S
C1092 C1091 1.410 . S
C1092 C1093 1.392 . S
C1092 C1095 1.511 . S
C1093 C1089 1.376 . S
C1093 C1092 1.392 . S
C1093 H1105 0.929 . S
C1094 C1090 1.531 . S
C1094 H1106 0.960 . S
C1094 H1107 0.962 . S
C1094 H1108 0.960 . S
C1095 C1092 1.511 . S
C1095 H1109 0.961 . S
C1095 H1110 0.961 . S
C1095 H1111 0.961 . S
C1096 C1097 1.370 . S
C1096 C1098 1.363 . S
C1096 H1112 0.949 . S
C1097 C1096 1.370 . S
C1097 C1101 1.408 . S
C1098 C1096 1.363 . S
C1098 C1099 1.370 . S
C1098 C1102 1.524 . S
C1099 C1091 1.503 . S
C1099 C1098 1.370 . S
C1099 C1100 1.403 . S
C1100 C1099 1.403 . S
C1100 C1101 1.404 . S
C1100 C1103 1.539 . S
C1101 C1097 1.408 . S
C1101 C1100 1.404 . S
C1101 H1113 0.930 . S
C1102 C1098 1.524 . S
C1102 H1114 0.956 . S
C1102 H1115 0.961 . S
C1102 H1116 0.961 1_655 S
C1103 C1100 1.539 . S
C1103 H1117 0.958 . S
C1103 H1118 0.961 . S
C1103 H1119 0.960 . S
H1104 C1088 0.931 . S
H1105 C1093 0.929 . S
H1106 C1094 0.960 . S
H1107 C1094 0.962 . S
H1108 C1094 0.960 . S
H1109 C1095 0.961 . S
H1110 C1095 0.961 . S
H1111 C1095 0.961 . S
H1112 C1096 0.949 . S
H1113 C1101 0.930 . S
H1114 C1102 0.956 . S
H1115 C1102 0.961 . S
H1116 C1102 0.961 1_455 S
H1117 C1103 0.958 . S
H1118 C1103 0.961 . S
H1119 C1103 0.960 . S
C1120 C1121 1.391 . S
C1120 C1122 1.394 . S
C1120 H1136 0.931 . S
C1121 C1120 1.391 . S
C1121 C1125 1.376 1_565 S
C1122 C1120 1.394 . S
C1122 C1123 1.369 . S
C1122 C1126 1.531 . S
C1123 C1122 1.369 . S
C1123 C1124 1.410 1_565 S
C1123 C1131 1.503 . S
C1124 C1123 1.410 1_545 S
C1124 C1125 1.392 . S
C1124 C1127 1.511 . S
C1125 C1121 1.376 1_545 S
C1125 C1124 1.392 . S
C1125 H1137 0.929 . S
C1126 C1122 1.531 . S
C1126 H1138 0.960 . S
C1126 H1139 0.962 . S
C1126 H1140 0.960 . S
C1127 C1124 1.511 . S
C1127 H1141 0.961 . S
C1127 H1142 0.961 . S
C1127 H1143 0.961 . S
C1128 C1129 1.370 1_545 S
C1128 C1130 1.363 . S
C1128 H1144 0.931 . S
C1129 C1128 1.370 1_565 S
C1129 C1133 1.408 . S
C1130 C1128 1.363 . S
C1130 C1131 1.370 1_545 S
C1130 C1134 1.524 . S
C1131 C1123 1.503 . S
C1131 C1130 1.370 1_565 S
C1131 C1132 1.403 . S
C1132 C1131 1.403 . S
C1132 C1133 1.404 . S
C1132 C1135 1.539 . S
C1133 C1129 1.408 . S
C1133 C1132 1.404 . S
C1133 H1145 0.930 . S
C1134 C1130 1.524 . S
C1134 H1146 0.956 . S
C1134 H1147 0.961 . S
C1134 H1148 0.961 . S
C1135 C1132 1.539 . S
C1135 H1149 0.958 . S
C1135 H1150 0.961 . S
C1135 H1151 0.960 . S
H1136 C1120 0.931 . S
H1137 C1125 0.929 . S
H1138 C1126 0.960 . S
H1139 C1126 0.962 . S
H1140 C1126 0.960 . S
H1141 C1127 0.961 . S
H1142 C1127 0.961 . S
H1143 C1127 0.961 . S
H1144 C1128 0.931 . S
H1145 C1133 0.930 . S
H1146 C1134 0.956 . S
H1147 C1134 0.961 . S
H1148 C1134 0.961 . S
H1149 C1135 0.958 . S
H1150 C1135 0.961 . S
H1151 C1135 0.960 . S
C1152 C1153 1.391 . S
C1152 C1154 1.394 . S
C1152 H1168 0.931 . S
C1153 C1152 1.391 . S
C1153 C1157 1.376 . S
C1154 C1152 1.394 . S
C1154 C1155 1.369 . S
C1154 C1158 1.531 . S
C1155 C1154 1.369 . S
C1155 C1156 1.410 . S
C1155 C1163 1.503 . S
C1156 C1155 1.410 . S
C1156 C1157 1.392 . S
C1156 C1159 1.511 . S
C1157 C1153 1.376 . S
C1157 C1156 1.392 . S
C1157 H1169 0.929 . S
C1158 C1154 1.531 . S
C1158 H1170 0.960 . S
C1158 H1171 0.962 . S
C1158 H1172 0.960 . S
C1159 C1156 1.511 . S
C1159 H1173 0.961 . S
C1159 H1174 0.961 . S
C1159 H1175 0.961 . S
C1160 C1161 1.370 . S
C1160 C1162 1.363 . S
C1160 H1176 0.931 . S
C1161 C1160 1.370 . S
C1161 C1165 1.408 . S
C1162 C1160 1.363 . S
C1162 C1163 1.370 . S
C1162 C1166 1.524 . S
C1163 C1155 1.503 . S
C1163 C1162 1.370 . S
C1163 C1164 1.403 . S
C1164 C1163 1.403 . S
C1164 C1165 1.404 . S
C1164 C1167 1.539 . S
C1165 C1161 1.408 . S
C1165 C1164 1.404 . S
C1165 H1177 0.930 . S
C1166 C1162 1.524 . S
C1166 H1178 0.956 . S
C1166 H1179 0.961 . S
C1166 H1180 0.961 . S
C1167 C1164 1.539 . S
C1167 H1181 0.958 . S
C1167 H1182 0.961 . S
C1167 H1183 0.960 . S
H1168 C1152 0.931 . S
H1169 C1157 0.929 . S
H1170 C1158 0.960 . S
H1171 C1158 0.962 . S
H1172 C1158 0.960 . S
H1173 C1159 0.961 . S
H1174 C1159 0.961 . S
H1175 C1159 0.961 . S
H1176 C1160 0.931 . S
H1177 C1165 0.930 . S
H1178 C1166 0.956 . S
H1179 C1166 0.961 . S
H1180 C1166 0.961 . S
H1181 C1167 0.958 . S
H1182 C1167 0.961 . S
H1183 C1167 0.960 . S
C1184 C1185 1.391 . S
C1184 C1186 1.394 . S
C1184 H1200 0.931 . S
C1185 C1184 1.391 . S
C1185 C1189 1.376 . S
C1186 C1184 1.394 . S
C1186 C1187 1.369 . S
C1186 C1190 1.531 . S
C1187 C1186 1.369 . S
C1187 C1188 1.410 . S
C1187 C1195 1.503 . S
C1188 C1187 1.410 . S
C1188 C1189 1.392 . S
C1188 C1191 1.511 . S
C1189 C1185 1.376 . S
C1189 C1188 1.392 . S
C1189 H1201 0.929 . S
C1190 C1186 1.531 . S
C1190 H1202 0.960 . S
C1190 H1203 0.962 . S
C1190 H1204 0.960 . S
C1191 C1188 1.511 . S
C1191 H1205 0.961 . S
C1191 H1206 0.961 . S
C1191 H1207 0.961 . S
C1192 C1193 1.370 . S
C1192 C1194 1.363 . S
C1192 H1208 0.931 . S
C1193 C1192 1.370 . S
C1193 C1197 1.408 . S
C1194 C1192 1.363 . S
C1194 C1195 1.370 . S
C1194 C1198 1.524 . S
C1195 C1187 1.503 . S
C1195 C1194 1.370 . S
C1195 C1196 1.403 . S
C1196 C1195 1.403 . S
C1196 C1197 1.404 . S
C1196 C1199 1.539 . S
C1197 C1193 1.408 . S
C1197 C1196 1.404 . S
C1197 H1209 0.930 . S
C1198 C1194 1.524 . S
C1198 H1210 0.956 . S
C1198 H1211 0.961 . S
C1198 H1212 0.961 . S
C1199 C1196 1.539 . S
C1199 H1213 0.958 . S
C1199 H1214 0.961 . S
C1199 H1215 0.960 . S
H1200 C1184 0.931 . S
H1201 C1189 0.929 . S
H1202 C1190 0.960 . S
H1203 C1190 0.962 . S
H1204 C1190 0.960 . S
H1205 C1191 0.961 . S
H1206 C1191 0.961 . S
H1207 C1191 0.961 . S
H1208 C1192 0.931 . S
H1209 C1197 0.930 . S
H1210 C1198 0.956 . S
H1211 C1198 0.961 . S
H1212 C1198 0.961 . S
H1213 C1199 0.958 . S
H1214 C1199 0.961 . S
H1215 C1199 0.960 . S
C449 C255 1.880 1_545 S
C457 C329 1.890 . S
C489 C350 1.738 . S
C481 C294 1.712 . S
C521 C384 1.572 . S
C513 C177 1.530 . S
C553 C418 1.711 . S
C545 C216 1.696 . S
C585 C320 1.897 . S
C577 C99 1.864 1_556 S
C609 C138 1.664 1_556 S
C617 C359 1.756 . S
C641 C21 1.560 . S
C649 C393 1.556 . S
C673 C60 1.706 . S
C681 C427 1.711 . S
C713 C341 0.580 . S
C705 C196 0.763 . S
C745 C346 0.403 . S
C737 C235 0.495 1_545 S
C777 C380 0.619 . S
C769 C289 0.528 . S
C801 C157 0.189 . S
C809 C414 0.172 . S
C833 C40 0.559 . S
C841 C312 0.663 . S
C873 C375 0.454 . S
C865 C79 0.405 1_545 S
C905 C409 0.572 . S
C897 C133 0.683 . S
C929 C1 0.222 . S
C937 C443 0.170 . S
C961 C211 1.689 . S
C969 C325 1.754 . S
C993 C250 2.042 1_565 S
C1001 C354 2.139 . S
C1033 C388 1.891 . S
C1025 C274 1.813 . S
C1065 C422 1.932 . S
C1057 C172 1.816 1_556 S
C1089 C55 1.677 . S
C1097 C316 1.762 . S
C1129 C363 2.140 . S
C1121 C94 2.042 1_565 S
C1161 C397 1.895 . S
C1153 C118 1.748 . S
C1185 C16 1.845 . S
C1193 C431 1.932 . S
