# Generated by pormake.
# Topology llj, (12,3)-cn, num edge types: 1
# Building blocks:
#     Node 0, Type 0, BuildingBlock: QEWDON_clean_sbu_0, # of connection points: 12
#     Node 1, Type 0, BuildingBlock: QEWDON_clean_sbu_0, # of connection points: 12
#     Node 2, Type 1, BuildingBlock: MIDCAF_clean_linker_0, # of connection points: 3
#     Node 3, Type 1, BuildingBlock: MIDCAF_clean_linker_0, # of connection points: 3
#     Node 4, Type 1, BuildingBlock: MIDCAF_clean_linker_0, # of connection points: 3
#     Node 5, Type 1, BuildingBlock: MIDCAF_clean_linker_0, # of connection points: 3
#     Node 6, Type 1, BuildingBlock: MIDCAF_clean_linker_0, # of connection points: 3
#     Node 7, Type 1, BuildingBlock: MIDCAF_clean_linker_0, # of connection points: 3
#     Node 8, Type 1, BuildingBlock: MIDCAF_clean_linker_0, # of connection points: 3
#     Node 9, Type 1, BuildingBlock: MIDCAF_clean_linker_0, # of connection points: 3
#     Edge 10, Type (0, 1), BuildingBlock: ZUJKAS_clean_linker_0, # of connection points: 2
#     Edge 11, Type (0, 1), BuildingBlock: ZUJKAS_clean_linker_0, # of connection points: 2
#     Edge 12, Type (0, 1), BuildingBlock: ZUJKAS_clean_linker_0, # of connection points: 2
#     Edge 13, Type (0, 1), BuildingBlock: ZUJKAS_clean_linker_0, # of connection points: 2
#     Edge 14, Type (0, 1), BuildingBlock: ZUJKAS_clean_linker_0, # of connection points: 2
#     Edge 15, Type (0, 1), BuildingBlock: ZUJKAS_clean_linker_0, # of connection points: 2
#     Edge 16, Type (0, 1), BuildingBlock: ZUJKAS_clean_linker_0, # of connection points: 2
#     Edge 17, Type (0, 1), BuildingBlock: ZUJKAS_clean_linker_0, # of connection points: 2
#     Edge 18, Type (0, 1), BuildingBlock: ZUJKAS_clean_linker_0, # of connection points: 2
#     Edge 19, Type (0, 1), BuildingBlock: ZUJKAS_clean_linker_0, # of connection points: 2
#     Edge 20, Type (0, 1), BuildingBlock: ZUJKAS_clean_linker_0, # of connection points: 2
#     Edge 21, Type (0, 1), BuildingBlock: ZUJKAS_clean_linker_0, # of connection points: 2
#     Edge 22, Type (0, 1), BuildingBlock: ZUJKAS_clean_linker_0, # of connection points: 2
#     Edge 23, Type (0, 1), BuildingBlock: ZUJKAS_clean_linker_0, # of connection points: 2
#     Edge 24, Type (0, 1), BuildingBlock: ZUJKAS_clean_linker_0, # of connection points: 2
#     Edge 25, Type (0, 1), BuildingBlock: ZUJKAS_clean_linker_0, # of connection points: 2
#     Edge 26, Type (0, 1), BuildingBlock: ZUJKAS_clean_linker_0, # of connection points: 2
#     Edge 27, Type (0, 1), BuildingBlock: ZUJKAS_clean_linker_0, # of connection points: 2
#     Edge 28, Type (0, 1), BuildingBlock: ZUJKAS_clean_linker_0, # of connection points: 2
#     Edge 29, Type (0, 1), BuildingBlock: ZUJKAS_clean_linker_0, # of connection points: 2
#     Edge 30, Type (0, 1), BuildingBlock: ZUJKAS_clean_linker_0, # of connection points: 2
#     Edge 31, Type (0, 1), BuildingBlock: ZUJKAS_clean_linker_0, # of connection points: 2
#     Edge 32, Type (0, 1), BuildingBlock: ZUJKAS_clean_linker_0, # of connection points: 2
#     Edge 33, Type (0, 1), BuildingBlock: ZUJKAS_clean_linker_0, # of connection points: 2
# Relax obj value: 0.012
# Max RMSD: 0.053
# Mean RMSD: 0.050
data_MOF--net-llj--node1-QEWDON_clean_sbu_0--node2-MIDCAF_clean_linker_0--edge1-ZUJKAS_clean_linker_0
_symmetry_space_group_name_H-M    P1
_symmetry_Int_Tables_number       1
_symmetry_cell_setting            triclinic
loop_
_symmetry_equiv_pos_as_xyz
'x, y, z'
_cell_length_a     54.859316
_cell_length_b     54.830896
_cell_length_c     38.514894
_cell_angle_alpha  89.801403
_cell_angle_beta   90.018688
_cell_angle_gamma 89.840906
loop_
_atom_site_label
_atom_site_type_symbol
_atom_site_fract_x
_atom_site_fract_y
_atom_site_fract_z
_atom_type_partial_charge
Zn0 Zn 0.95076 0.04178 0.98476 0.0
Zn1 Zn 0.95103 0.03775 0.06753 0.0
O2 O 0.97235 0.03477 0.02611 0.0
H3 H 0.98646 0.02428 0.02478 0.0
C4 C 0.95719 0.97365 0.92569 0.0
O5 O 0.97455 0.98392 0.94402 0.0
Zn6 Zn 0.0421 0.95573 0.05948 0.0
Zn7 Zn 0.04586 0.96075 0.97839 0.0
O8 O 0.02093 0.95813 0.01755 0.0
H9 H 0.00431 0.96397 0.01667 0.0
Zn10 Zn 0.95437 0.94343 0.98761 0.0
O11 O 0.95185 0.96982 0.02416 0.0
Zn12 Zn 0.95375 0.95074 0.06803 0.0
H13 H 0.95681 0.98652 0.0206 0.0
Zn14 Zn 0.03515 0.04621 0.98291 0.0
O15 O 0.03543 0.02194 0.02259 0.0
H16 H 0.02825 0.00592 0.02074 0.0
Zn17 Zn 0.03805 0.04217 0.06524 0.0
C18 C 0.06093 0.01544 0.93708 0.0
O19 O 0.07068 0.01036 0.96743 0.0
O20 O 0.919 0.05976 0.99778 0.0
O21 O 0.91985 0.05616 0.05532 0.0
O22 O 0.07797 0.94218 0.98873 0.0
O23 O 0.074 0.93942 0.04604 0.0
O24 O 0.94069 0.91023 0.00396 0.0
O25 O 0.93908 0.91733 0.06071 0.0
C26 C 0.99188 0.05754 0.10539 0.0
O27 O 0.0523 0.07821 0.99594 0.0
O28 O 0.05482 0.07428 0.05334 0.0
O29 O 0.03173 0.95978 0.92852 0.0
C30 C 0.90963 0.06377 0.02752 0.0
O31 O 0.96955 0.0533 0.94132 0.0
C32 C 0.00254 0.9339 0.09878 0.0
O33 O 0.94608 0.95529 0.9381 0.0
C34 C 0.0859 0.93516 0.01826 0.0
O35 O 0.04406 0.0313 0.93546 0.0
C36 C 0.93296 0.99155 0.10525 0.0
O37 O 0.9688 0.05601 0.10544 0.0
O38 O 0.00338 0.04734 0.08073 0.0
C39 C 0.93533 0.90347 0.03473 0.0
O40 O 0.02557 0.93498 0.09599 0.0
O41 O 0.9897 0.94736 0.07887 0.0
C42 C 0.05872 0.00078 0.10105 0.0
O43 O 0.93434 0.96844 0.10518 0.0
O44 O 0.94481 0.00309 0.08214 0.0
C45 C 0.05903 0.0862 0.02544 0.0
O46 O 0.05744 0.02391 0.10209 0.0
O47 O 0.0475 0.99001 0.07662 0.0
C48 C 0.01608 0.94319 0.92329 0.0
O49 O 0.01076 0.92819 0.94885 0.0
C50 C 0.98677 0.06821 0.94696 0.0
O51 O 0.99087 0.07541 0.97894 0.0
Zn52 Zn 0.45142 0.53136 0.49567 0.0
Zn53 Zn 0.4607 0.5294 0.57577 0.0
O54 O 0.47858 0.52842 0.53106 0.0
H55 H 0.49393 0.5203 0.52682 0.0
C56 C 0.43203 0.46903 0.42495 0.0
O57 O 0.41657 0.46293 0.44953 0.0
Zn58 Zn 0.54532 0.46623 0.56616 0.0
Zn59 Zn 0.54787 0.45897 0.48419 0.0
O60 O 0.52545 0.46902 0.52319 0.0
H61 H 0.5109 0.4788 0.52041 0.0
Zn62 Zn 0.46244 0.44967 0.4774 0.0
O63 O 0.45358 0.47121 0.51831 0.0
Zn64 Zn 0.45796 0.44776 0.55745 0.0
H65 H 0.44225 0.48472 0.51736 0.0
Zn66 Zn 0.5459 0.56188 0.48022 0.0
O67 O 0.55022 0.53462 0.51571 0.0
H68 H 0.54921 0.5173 0.51146 0.0
Zn69 Zn 0.54735 0.55188 0.56081 0.0
C70 C 0.54684 0.53257 0.41853 0.0
O71 O 0.53155 0.52009 0.43788 0.0
O72 O 0.4216 0.54996 0.51476 0.0
O73 O 0.43001 0.5503 0.57123 0.0
O74 O 0.57791 0.43919 0.50044 0.0
O75 O 0.57516 0.44474 0.55752 0.0
O76 O 0.45029 0.41445 0.48473 0.0
O77 O 0.44683 0.41429 0.54218 0.0
C78 C 0.50433 0.5497 0.6065 0.0
O79 O 0.55763 0.59518 0.49846 0.0
O80 O 0.55876 0.58692 0.55499 0.0
O81 O 0.52997 0.44928 0.43921 0.0
C82 C 0.41648 0.55647 0.54565 0.0
O83 O 0.46379 0.54233 0.44767 0.0
C84 C 0.5029 0.44545 0.59947 0.0
O85 O 0.45457 0.46504 0.42977 0.0
C86 C 0.58581 0.43548 0.53117 0.0
O87 O 0.55542 0.5524 0.43019 0.0
C88 C 0.43838 0.48183 0.6034 0.0
O89 O 0.48273 0.54284 0.61325 0.0
O90 O 0.51224 0.54828 0.5756 0.0
C91 C 0.44465 0.40366 0.51293 0.0
O92 O 0.52501 0.45116 0.60466 0.0
O93 O 0.49352 0.44945 0.56988 0.0
C94 C 0.56816 0.51222 0.59856 0.0
O95 O 0.43735 0.45906 0.59786 0.0
O96 O 0.45264 0.49425 0.58436 0.0
C97 C 0.56207 0.60158 0.52961 0.0
O98 O 0.56876 0.53534 0.59649 0.0
O99 O 0.55434 0.50095 0.57754 0.0
C100 C 0.51364 0.43299 0.44165 0.0
O101 O 0.50989 0.42242 0.47185 0.0
C102 C 0.48019 0.55859 0.44917 0.0
O103 O 0.48717 0.56652 0.47974 0.0
C104 C 0.38828 0.36202 0.11237 0.0
C105 C 0.3768 0.35843 0.14457 0.0
C106 C 0.35544 0.34438 0.14599 0.0
C107 C 0.34573 0.33418 0.1158 0.0
H108 H 0.29384 0.28631 0.08076 0.0
H109 H 0.25721 0.26141 0.08335 0.0
H110 H 0.25316 0.26162 0.97138 0.0
H111 H 0.28969 0.28674 0.96857 0.0
H112 H 0.33384 0.30883 0.92508 0.0
H113 H 0.35288 0.31944 0.86982 0.0
H114 H 0.40803 0.36036 0.92432 0.0
H115 H 0.38949 0.34949 0.97934 0.0
H116 H 0.38804 0.35499 0.05793 0.0
H117 H 0.40502 0.37237 0.11049 0.0
H118 H 0.34607 0.34145 0.1704 0.0
H119 H 0.32919 0.32353 0.11781 0.0
N120 N 0.32665 0.31317 0.05247 0.0
N121 N 0.32792 0.30866 0.99193 0.0
N122 N 0.35761 0.33188 0.02027 0.0
C123 C 0.31702 0.30379 0.02289 0.0
C124 C 0.34828 0.32267 0.99045 0.0
C125 C 0.34694 0.32727 0.05136 0.0
C126 C 0.29477 0.28856 0.02444 0.0
C127 C 0.28517 0.28113 0.05663 0.0
C128 C 0.26423 0.26675 0.05817 0.0
C129 C 0.25233 0.2596 0.02758 0.0
C130 C 0.2618 0.2671 0.9954 0.0
C131 C 0.28284 0.28136 0.99383 0.0
C132 C 0.36005 0.32835 0.95675 0.0
C133 C 0.35011 0.31998 0.92532 0.0
C134 C 0.36094 0.32614 0.89362 0.0
C135 C 0.38197 0.34072 0.8927 0.0
C136 C 0.39206 0.34879 0.92413 0.0
C137 C 0.38127 0.34268 0.95574 0.0
C138 C 0.35721 0.33782 0.08355 0.0
C139 C 0.37861 0.35186 0.08223 0.0
C140 C 0.67749 0.42687 0.11033 0.0
C141 C 0.67631 0.41504 0.14269 0.0
C142 C 0.68594 0.39137 0.14593 0.0
C143 C 0.69594 0.37951 0.11717 0.0
H144 H 0.73202 0.3173 0.08698 0.0
H145 H 0.75033 0.27699 0.09238 0.0
H146 H 0.75387 0.27137 0.98067 0.0
H147 H 0.7352 0.31149 0.97506 0.0
H148 H 0.70418 0.35183 0.92995 0.0
H149 H 0.69121 0.36914 0.87456 0.0
H150 H 0.68864 0.4408 0.92091 0.0
H151 H 0.70069 0.42338 0.97644 0.0
H152 H 0.68749 0.42455 0.0569 0.0
H153 H 0.67001 0.44502 0.1069 0.0
H154 H 0.68555 0.38192 0.17067 0.0
H155 H 0.70278 0.3611 0.12045 0.0
N156 N 0.71479 0.35516 0.05604 0.0
N157 N 0.71788 0.35271 0.99537 0.0
N158 N 0.70177 0.38782 0.02131 0.0
C159 C 0.72142 0.34251 0.02723 0.0
C160 C 0.70816 0.37543 0.99227 0.0
C161 C 0.70495 0.37784 0.05328 0.0
C162 C 0.73217 0.31777 0.03056 0.0
C163 C 0.73658 0.30749 0.0635 0.0
C164 C 0.74718 0.28439 0.06666 0.0
C165 C 0.75355 0.27099 0.03697 0.0
C166 C 0.74886 0.28109 0.00405 0.0
C167 C 0.73832 0.30421 0.00086 0.0
C168 C 0.70315 0.38617 0.9577 0.0
C169 C 0.7011 0.37131 0.9282 0.0
C170 C 0.69376 0.38128 0.89638 0.0
C171 C 0.68858 0.40634 0.89333 0.0
C172 C 0.69187 0.42133 0.9225 0.0
C173 C 0.69891 0.41135 0.95433 0.0
C174 C 0.69638 0.39105 0.0845 0.0
C175 C 0.68738 0.41502 0.08158 0.0
C176 C 0.60344 0.65518 0.93151 0.0
C177 C 0.61874 0.65519 0.9023 0.0
C178 C 0.64215 0.66534 0.90504 0.0
C179 C 0.65041 0.67447 0.93678 0.0
H180 H 0.70385 0.71803 0.98549 0.0
H181 H 0.74353 0.73706 0.99191 0.0
H182 H 0.74374 0.7185 0.10111 0.0
H183 H 0.70361 0.70026 0.09495 0.0
H184 H 0.6524 0.68769 0.13004 0.0
H185 H 0.62899 0.67541 0.18093 0.0
H186 H 0.57033 0.65152 0.11449 0.0
H187 H 0.59334 0.66413 0.06373 0.0
H188 H 0.59942 0.66357 0.98519 0.0
H189 H 0.58511 0.64796 0.92999 0.0
H190 H 0.65437 0.66552 0.88295 0.0
H191 H 0.66877 0.68159 0.93828 0.0
N192 N 0.66705 0.6913 0.00418 0.0
N193 N 0.66212 0.69249 0.06469 0.0
N194 N 0.63103 0.67698 0.02957 0.0
C195 C 0.67591 0.69701 0.03609 0.0
C196 C 0.63958 0.68256 0.06159 0.0
C197 C 0.64459 0.68125 0.00075 0.0
C198 C 0.70047 0.70776 0.03974 0.0
C199 C 0.71239 0.71791 0.01085 0.0
C200 C 0.73527 0.72866 0.01449 0.0
C201 C 0.7469 0.72929 0.04704 0.0
C202 C 0.73516 0.71869 0.07578 0.0
C203 C 0.71216 0.70816 0.07222 0.0
C204 C 0.62487 0.67673 0.09272 0.0
C205 C 0.63443 0.68003 0.12625 0.0
C206 C 0.62108 0.67289 0.15543 0.0
C207 C 0.59789 0.66239 0.15168 0.0
C208 C 0.58804 0.65979 0.11825 0.0
C209 C 0.60136 0.66687 0.08911 0.0
C210 C 0.63537 0.67363 0.96634 0.0
C211 C 0.61165 0.66427 0.96314 0.0
C212 C 0.30704 0.57962 0.90786 0.0
C213 C 0.30469 0.5937 0.87751 0.0
C214 C 0.29638 0.61788 0.88008 0.0
C215 C 0.29109 0.62797 0.91251 0.0
H216 H 0.25387 0.68358 0.96101 0.0
H217 H 0.23331 0.72272 0.96548 0.0
H218 H 0.25061 0.72562 0.07476 0.0
H219 H 0.27158 0.68642 0.07041 0.0
H220 H 0.29511 0.63854 0.10649 0.0
H221 H 0.31402 0.61862 0.15653 0.0
H222 H 0.34325 0.56275 0.08953 0.0
H223 H 0.32472 0.58257 0.03958 0.0
H224 H 0.30453 0.57851 0.96316 0.0
H225 H 0.31367 0.56102 0.90671 0.0
H226 H 0.29428 0.62908 0.85703 0.0
H227 H 0.28517 0.64681 0.91368 0.0
N228 N 0.2794 0.64715 0.98082 0.0
N229 N 0.2861 0.64641 0.04101 0.0
N230 N 0.29986 0.61415 0.00631 0.0
C231 C 0.27687 0.65781 0.01243 0.0
C232 C 0.29764 0.62452 0.0381 0.0
C233 C 0.2908 0.62529 0.97758 0.0
C234 C 0.26438 0.68173 0.01538 0.0
C235 C 0.25339 0.69248 0.98606 0.0
C236 C 0.24146 0.7149 0.98861 0.0
C237 C 0.24027 0.7272 0.02048 0.0
C238 C 0.25143 0.71665 0.04978 0.0
C239 C 0.2633 0.69411 0.04729 0.0
C240 C 0.30841 0.61225 0.0689 0.0
C241 C 0.30554 0.622 0.1024 0.0
C242 C 0.31627 0.61053 0.13111 0.0
C243 C 0.33022 0.58919 0.12691 0.0
C244 C 0.33291 0.57937 0.09352 0.0
C245 C 0.32212 0.59071 0.0649 0.0
C246 C 0.29431 0.61414 0.943 0.0
C247 C 0.302 0.58974 0.94025 0.0
C248 C 0.89911 0.87058 0.59225 0.0
C249 C 0.88603 0.87491 0.62298 0.0
C250 C 0.86256 0.86495 0.6265 0.0
C251 C 0.85253 0.85074 0.60009 0.0
H252 H 0.79143 0.81141 0.57398 0.0
H253 H 0.75218 0.79147 0.58162 0.0
H254 H 0.76275 0.7528 0.48519 0.0
H255 H 0.80159 0.77315 0.477 0.0
H256 H 0.8394 0.80025 0.42222 0.0
H257 H 0.85958 0.80206 0.36575 0.0
H258 H 0.92554 0.82712 0.41513 0.0
H259 H 0.90555 0.82534 0.47148 0.0
H260 H 0.89984 0.8533 0.54266 0.0
H261 H 0.91738 0.87766 0.58892 0.0
H262 H 0.85189 0.86818 0.64969 0.0
H263 H 0.83444 0.84332 0.60376 0.0
N264 N 0.83335 0.81982 0.54579 0.0
N265 N 0.83596 0.80363 0.48961 0.0
N266 N 0.8674 0.82817 0.51107 0.0
C267 C 0.82362 0.80605 0.52 0.0
C268 C 0.85789 0.81459 0.485 0.0
C269 C 0.85526 0.83093 0.54151 0.0
C270 C 0.79972 0.79394 0.52483 0.0
C271 C 0.78539 0.79869 0.55434 0.0
C272 C 0.76289 0.78718 0.55882 0.0
C273 C 0.75425 0.77058 0.53398 0.0
C274 C 0.76861 0.76583 0.50452 0.0
C275 C 0.79101 0.77741 0.49995 0.0
C276 C 0.87077 0.81294 0.45133 0.0
C277 C 0.85832 0.80579 0.42112 0.0
C278 C 0.86982 0.80688 0.38878 0.0
C279 C 0.89407 0.81481 0.38609 0.0
C280 C 0.9069 0.82074 0.41646 0.0
C281 C 0.89535 0.81992 0.44871 0.0
C282 C 0.86573 0.84619 0.56948 0.0
C283 C 0.88909 0.85642 0.56581 0.0
C284 C 0.16103 0.90748 0.60499 0.0
C285 C 0.16593 0.89926 0.63886 0.0
C286 C 0.18155 0.87912 0.6435 0.0
C287 C 0.19189 0.86738 0.61487 0.0
H288 H 0.22959 0.80613 0.58658 0.0
H289 H 0.25273 0.76866 0.59437 0.0
H290 H 0.26325 0.76386 0.48348 0.0
H291 H 0.24038 0.80165 0.47552 0.0
H292 H 0.20356 0.83699 0.42641 0.0
H293 H 0.18926 0.85278 0.37046 0.0
H294 H 0.1733 0.92218 0.41821 0.0
H295 H 0.18696 0.90643 0.47382 0.0
H296 H 0.16699 0.90263 0.55074 0.0
H297 H 0.1488 0.9227 0.60044 0.0
H298 H 0.18596 0.87254 0.6693 0.0
H299 H 0.2038 0.8519 0.61938 0.0
N300 N 0.21024 0.84197 0.55405 0.0
N301 N 0.21464 0.83923 0.49349 0.0
N302 N 0.19319 0.87191 0.51807 0.0
C303 C 0.21906 0.83001 0.52579 0.0
C304 C 0.20178 0.86031 0.48953 0.0
C305 C 0.19725 0.86293 0.55037 0.0
C306 C 0.23308 0.80702 0.53037 0.0
C307 C 0.23679 0.79716 0.56376 0.0
C308 C 0.24995 0.77554 0.56827 0.0
C309 C 0.25979 0.76324 0.53956 0.0
C310 C 0.25612 0.77305 0.50617 0.0
C311 C 0.24289 0.79467 0.50162 0.0
C312 C 0.19603 0.8703 0.4547 0.0
C313 C 0.19724 0.85569 0.42482 0.0
C314 C 0.18911 0.86475 0.39276 0.0
C315 C 0.17974 0.8886 0.39005 0.0
C316 C 0.17979 0.90353 0.4196 0.0
C317 C 0.18774 0.89449 0.4515 0.0
C318 C 0.18688 0.87557 0.58097 0.0
C319 C 0.17141 0.89584 0.57643 0.0
C320 C 0.09608 0.16556 0.42881 0.0
C321 C 0.10659 0.17186 0.39676 0.0
C322 C 0.12849 0.1851 0.39651 0.0
C323 C 0.13985 0.19151 0.42764 0.0
H324 H 0.20399 0.21753 0.46619 0.0
H325 H 0.24372 0.23709 0.46527 0.0
H326 H 0.24339 0.24047 0.57728 0.0
H327 H 0.20345 0.22116 0.5784 0.0
H328 H 0.16074 0.19571 0.6201 0.0
H329 H 0.14243 0.18221 0.67451 0.0
H330 H 0.08263 0.15036 0.61765 0.0
H331 H 0.10048 0.16421 0.56345 0.0
H332 H 0.09889 0.16646 0.48405 0.0
H333 H 0.07941 0.15505 0.42995 0.0
H334 H 0.13688 0.19049 0.37222 0.0
H335 H 0.15682 0.20152 0.42646 0.0
N336 N 0.16425 0.20145 0.49266 0.0
N337 N 0.16552 0.19971 0.55349 0.0
N338 N 0.13184 0.18415 0.52355 0.0
C339 C 0.17608 0.20614 0.52288 0.0
C340 C 0.14337 0.18869 0.55401 0.0
C341 C 0.14208 0.1905 0.49276 0.0
C342 C 0.20042 0.2178 0.52238 0.0
C343 C 0.21233 0.22239 0.49069 0.0
C344 C 0.23522 0.23344 0.49012 0.0
C345 C 0.24669 0.24025 0.5212 0.0
C346 C 0.23489 0.2356 0.5529 0.0
C347 C 0.21203 0.22444 0.5535 0.0
C348 C 0.13213 0.18105 0.5873 0.0
C349 C 0.14364 0.18591 0.61917 0.0
C350 C 0.13322 0.17806 0.65038 0.0
C351 C 0.11109 0.1652 0.6504 0.0
C352 C 0.09952 0.16053 0.61858 0.0
C353 C 0.10987 0.16838 0.58743 0.0
C354 C 0.12955 0.18479 0.45971 0.0
C355 C 0.10739 0.17198 0.4599 0.0
C356 C 0.81309 0.08588 0.42219 0.0
C357 C 0.80879 0.09993 0.39222 0.0
C358 C 0.79896 0.12348 0.39579 0.0
C359 C 0.79418 0.13303 0.42874 0.0
H360 H 0.75444 0.18551 0.48327 0.0
H361 H 0.73307 0.22395 0.49001 0.0
H362 H 0.76313 0.23161 0.59313 0.0
H363 H 0.78401 0.19254 0.58682 0.0
H364 H 0.82019 0.14844 0.61586 0.0
H365 H 0.84214 0.12777 0.66291 0.0
H366 H 0.83998 0.06037 0.60543 0.0
H367 H 0.8182 0.08082 0.55852 0.0
H368 H 0.81257 0.08425 0.47754 0.0
H369 H 0.82094 0.06779 0.42037 0.0
H370 H 0.79527 0.13464 0.37312 0.0
H371 H 0.7871 0.15144 0.43063 0.0
N372 N 0.7852 0.15178 0.49824 0.0
N373 N 0.79426 0.15073 0.55785 0.0
N374 N 0.8067 0.1187 0.52171 0.0
C375 C 0.7838 0.1622 0.53017 0.0
C376 C 0.80565 0.12886 0.55374 0.0
C377 C 0.79665 0.13003 0.4938 0.0
C378 C 0.77101 0.18587 0.53449 0.0
C379 C 0.7566 0.19535 0.5074 0.0
C380 C 0.74442 0.21756 0.51119 0.0
C381 C 0.74648 0.23104 0.54203 0.0
C382 C 0.76091 0.22159 0.56916 0.0
C383 C 0.77298 0.19922 0.56547 0.0
C384 C 0.81753 0.11631 0.58338 0.0
C385 C 0.82423 0.12917 0.61341 0.0
C386 C 0.83693 0.11741 0.64021 0.0
C387 C 0.8428 0.0925 0.63772 0.0
C388 C 0.83555 0.07953 0.60813 0.0
C389 C 0.82319 0.09132 0.58119 0.0
C390 C 0.79936 0.11928 0.45877 0.0
C391 C 0.80847 0.09544 0.45505 0.0
H392 H 0.07459 0.11437 0.97109 0.0
H393 H 0.10451 0.14725 0.97289 0.0
H394 H 0.10777 0.14149 0.08443 0.0
H395 H 0.07783 0.10849 0.08311 0.0
H396 H 0.10748 0.19257 0.05132 0.0
H397 H 0.17715 0.12724 0.002 0.0
H398 H 0.14881 0.12889 0.97856 0.0
H399 H 0.14916 0.1173 0.02218 0.0
C400 C 0.08133 0.1203 0.99611 0.0
C401 C 0.07408 0.10853 0.02694 0.0
C402 C 0.09843 0.13908 0.99702 0.0
C403 C 0.10846 0.14648 0.02873 0.0
C404 C 0.1002 0.1359 0.05972 0.0
H405 H 0.24509 0.21922 0.06786 0.0
H406 H 0.2091 0.19295 0.06958 0.0
C407 C 0.08315 0.11703 0.05887 0.0
C408 C 0.12907 0.1637 0.02925 0.0
H409 H 0.18951 0.16802 0.00948 0.0
C410 C 0.12543 0.18731 0.04216 0.0
C411 C 0.15243 0.15652 0.01763 0.0
C412 C 0.15733 0.13107 0.00449 0.0
C413 C 0.14466 0.20414 0.04329 0.0
C414 C 0.16793 0.19706 0.03113 0.0
C415 C 0.17158 0.17335 0.01863 0.0
C416 C 0.18893 0.21384 0.03141 0.0
C417 C 0.14014 0.22923 0.0579 0.0
C418 C 0.18944 0.23417 0.00924 0.0
C419 C 0.20997 0.24917 0.00813 0.0
C420 C 0.23029 0.24407 0.02924 0.0
C421 C 0.2296 0.22377 0.05162 0.0
C422 C 0.20913 0.20872 0.05254 0.0
H423 H 0.12259 0.23027 0.07223 0.0
H424 H 0.15515 0.23456 0.07564 0.0
H425 H 0.13954 0.24267 0.03631 0.0
H426 H 0.17412 0.23819 0.99239 0.0
H427 H 0.20995 0.26479 0.99083 0.0
H428 H 0.88523 0.08653 0.97458 0.0
H429 H 0.85432 0.11843 0.97961 0.0
H430 H 0.85417 0.10984 0.09089 0.0
H431 H 0.88514 0.07779 0.08633 0.0
H432 H 0.80514 0.11814 0.05375 0.0
H433 H 0.87866 0.185 0.02509 0.0
H434 H 0.87611 0.15971 0.9957 0.0
H435 H 0.88495 0.15435 0.03995 0.0
C436 C 0.87834 0.09103 0.00013 0.0
C437 C 0.88797 0.07985 0.0301 0.0
C438 C 0.86068 0.10928 0.0029 0.0
C439 C 0.8523 0.11661 0.03561 0.0
C440 C 0.86055 0.10441 0.06544 0.0
H441 H 0.79021 0.25829 0.08156 0.0
H442 H 0.81231 0.21956 0.08452 0.0
C443 C 0.87828 0.08616 0.06273 0.0
C444 C 0.83688 0.1386 0.03873 0.0
H445 H 0.83852 0.20038 0.02862 0.0
C446 C 0.81236 0.13616 0.04838 0.0
C447 C 0.84657 0.16202 0.03215 0.0
C448 C 0.87306 0.16561 0.02289 0.0
C449 C 0.79704 0.15668 0.05081 0.0
C450 C 0.80659 0.18003 0.0432 0.0
C451 C 0.83126 0.18242 0.0343 0.0
C452 C 0.79141 0.20236 0.04379 0.0
C453 C 0.77088 0.15329 0.06177 0.0
C454 C 0.77228 0.20543 0.01998 0.0
C455 C 0.75958 0.22754 0.01826 0.0
C456 C 0.76586 0.24696 0.04027 0.0
C457 C 0.78472 0.24359 0.06457 0.0
C458 C 0.79743 0.22153 0.0662 0.0
H459 H 0.76803 0.1354 0.07477 0.0
H460 H 0.76506 0.16804 0.07965 0.0
H461 H 0.759 0.15403 0.03846 0.0
H462 H 0.76765 0.191 0.00204 0.0
H463 H 0.74502 0.22952 -0.00053 0.0
H464 H 0.92228 0.86967 0.98592 0.0
H465 H 0.8953 0.83469 0.99424 0.0
H466 H 0.892 0.84946 0.10394 0.0
H467 H 0.91902 0.88442 0.09614 0.0
H468 H 0.89623 0.79113 0.04708 0.0
H469 H 0.82081 0.85892 0.05938 0.0
H470 H 0.84951 0.86642 0.03913 0.0
H471 H 0.84764 0.86348 0.08544 0.0
C472 C 0.91625 0.86522 0.01195 0.0
C473 C 0.92249 0.88009 0.04028 0.0
C474 C 0.90093 0.84518 0.01663 0.0
C475 C 0.89164 0.83975 0.04963 0.0
C476 C 0.89905 0.85352 0.07829 0.0
H477 H 0.76175 0.75782 0.10123 0.0
H478 H 0.7992 0.7814 0.1058 0.0
C479 C 0.91442 0.8735 0.07371 0.0
C480 C 0.87196 0.82169 0.05336 0.0
H481 H 0.81039 0.81761 0.06296 0.0
C482 C 0.87744 0.79679 0.05076 0.0
C483 C 0.8476 0.82931 0.05823 0.0
C484 C 0.84083 0.85597 0.06054 0.0
C485 C 0.85898 0.77914 0.05293 0.0
C486 C 0.83448 0.78681 0.05692 0.0
C487 C 0.82918 0.81176 0.06003 0.0
C488 C 0.81374 0.76959 0.05639 0.0
C489 C 0.86592 0.75254 0.05125 0.0
C490 C 0.80963 0.75482 0.02731 0.0
C491 C 0.78838 0.74098 0.02485 0.0
C492 C 0.77062 0.74197 0.05117 0.0
C493 C 0.77513 0.75631 0.08069 0.0
C494 C 0.79649 0.76994 0.08327 0.0
H495 H 0.88508 0.74957 0.05966 0.0
H496 H 0.85377 0.74122 0.06775 0.0
H497 H 0.86432 0.74617 0.02403 0.0
H498 H 0.8224 0.75468 0.00588 0.0
H499 H 0.78565 0.72988 0.00198 0.0
H500 H 0.10978 0.91995 0.07675 0.0
H501 H 0.14169 0.88898 0.08083 0.0
H502 H 0.14331 0.8834 0.96918 0.0
H503 H 0.1116 0.91463 0.96473 0.0
H504 H 0.1343 0.84261 0.05796 0.0
H505 H 0.2156 0.88194 0.99369 0.0
H506 H 0.19035 0.90045 0.00837 0.0
H507 H 0.18847 0.88438 0.96782 0.0
C508 C 0.11727 0.91255 0.05297 0.0
C509 C 0.10796 0.91961 0.02039 0.0
C510 C 0.13554 0.89486 0.05539 0.0
C511 C 0.14496 0.88399 0.02533 0.0
C512 C 0.13663 0.89188 0.99269 0.0
H513 H 0.19608 0.73891 0.99252 0.0
H514 H 0.17436 0.7778 0.99604 0.0
C515 C 0.11838 0.90965 0.99021 0.0
C516 C 0.16108 0.86237 0.02823 0.0
H517 H 0.21521 0.83836 0.00078 0.0
C518 C 0.15214 0.84181 0.04585 0.0
C519 C 0.1844 0.86141 0.01264 0.0
C520 C 0.19541 0.88331 0.99485 0.0
C521 C 0.16547 0.82 0.04717 0.0
C522 C 0.18819 0.81864 0.03003 0.0
C523 C 0.19765 0.83945 0.0136 0.0
C524 C 0.20176 0.7954 0.02758 0.0
C525 C 0.15502 0.79848 0.06658 0.0
C526 C 0.22453 0.79262 0.04369 0.0
C527 C 0.23704 0.77041 0.04164 0.0
C528 C 0.22706 0.75076 0.02309 0.0
C529 C 0.20434 0.75377 0.00673 0.0
C530 C 0.19183 0.77589 0.00893 0.0
H531 H 0.14082 0.8042 0.08546 0.0
H532 H 0.14649 0.78581 0.04777 0.0
H533 H 0.16954 0.78836 0.08071 0.0
H534 H 0.2325 0.80757 0.05806 0.0
H535 H 0.25464 0.7687 0.05418 0.0
H536 H 0.57809 0.61975 0.59169 0.0
H537 H 0.605 0.65463 0.60034 0.0
H538 H 0.60127 0.67131 0.49097 0.0
H539 H 0.5742 0.63671 0.48203 0.0
H540 H 0.64986 0.65561 0.56786 0.0
H541 H 0.59742 0.73894 0.53483 0.0
H542 H 0.58293 0.71032 0.54551 0.0
H543 H 0.59486 0.71551 0.50262 0.0
C544 C 0.58244 0.6312 0.56959 0.0
C545 C 0.57419 0.62525 0.53607 0.0
C546 C 0.59783 0.65114 0.57463 0.0
C547 C 0.60502 0.66563 0.54636 0.0
C548 C 0.5956 0.66066 0.51327 0.0
H549 H 0.71969 0.76038 0.48485 0.0
H550 H 0.68257 0.7364 0.49204 0.0
C551 C 0.58023 0.64072 0.50817 0.0
C552 C 0.625 0.6835 0.55031 0.0
H553 H 0.64111 0.74239 0.53313 0.0
C554 C 0.64788 0.67471 0.56091 0.0
C555 C 0.62235 0.70831 0.54095 0.0
C556 C 0.598 0.71891 0.53065 0.0
C557 C 0.66849 0.68976 0.56079 0.0
C558 C 0.666 0.71445 0.55052 0.0
C559 C 0.64295 0.72346 0.54099 0.0
C560 C 0.68744 0.73063 0.54721 0.0
C561 C 0.69294 0.67875 0.56989 0.0
C562 C 0.7022 0.73579 0.57601 0.0
C563 C 0.72366 0.74917 0.5719 0.0
C564 C 0.73061 0.75785 0.53893 0.0
C565 C 0.71517 0.75353 0.51045 0.0
C566 C 0.69381 0.74005 0.51457 0.0
H567 H 0.69251 0.65849 0.56949 0.0
H568 H 0.70725 0.68507 0.55159 0.0
H569 H 0.69819 0.68452 0.59643 0.0
H570 H 0.69738 0.72903 0.60155 0.0
H571 H 0.73516 0.75205 0.59436 0.0
H572 H 0.4017 0.57769 0.60668 0.0
H573 H 0.37081 0.60964 0.6138 0.0
H574 H 0.35387 0.60571 0.50462 0.0
H575 H 0.38433 0.57377 0.49726 0.0
H576 H 0.37299 0.65431 0.58043 0.0
H577 H 0.28638 0.60807 0.54852 0.0
H578 H 0.31381 0.59151 0.5597 0.0
H579 H 0.30942 0.60297 0.51628 0.0
C580 C 0.39108 0.58329 0.5843 0.0
C581 C 0.39564 0.57327 0.55132 0.0
C582 C 0.37345 0.60156 0.58844 0.0
C583 C 0.35991 0.6099 0.5598 0.0
C584 C 0.36375 0.59923 0.52721 0.0
H585 H 0.30219 0.74983 0.5074 0.0
H586 H 0.32569 0.71232 0.51588 0.0
C587 C 0.38134 0.58105 0.52302 0.0
C588 C 0.34365 0.63141 0.56284 0.0
H589 H 0.28643 0.6519 0.54329 0.0
C590 C 0.35395 0.65371 0.57286 0.0
C591 C 0.31877 0.63058 0.55328 0.0
C592 C 0.30637 0.60693 0.54418 0.0
C593 C 0.34036 0.67542 0.57189 0.0
C594 C 0.31596 0.67482 0.5601 0.0
C595 C 0.30527 0.65235 0.55182 0.0
C596 C 0.30155 0.69743 0.55496 0.0
C597 C 0.35234 0.69884 0.58314 0.0
C598 C 0.27984 0.70118 0.57342 0.0
C599 C 0.26624 0.72251 0.56838 0.0
C600 C 0.27401 0.74038 0.54455 0.0
C601 C 0.29561 0.73637 0.52575 0.0
C602 C 0.30921 0.71508 0.53086 0.0
H603 H 0.36815 0.6953 0.6005 0.0
H604 H 0.35911 0.70871 0.55988 0.0
H605 H 0.3392 0.71087 0.59685 0.0
H606 H 0.2735 0.68766 0.59189 0.0
H607 H 0.2495 0.7249 0.5829 0.0
H608 H 0.43111 0.378 0.45514 0.0
H609 H 0.40251 0.34391 0.45312 0.0
H610 H 0.4006 0.34169 0.56499 0.0
H611 H 0.42932 0.37555 0.56745 0.0
H612 H 0.39813 0.29417 0.53032 0.0
H613 H 0.33146 0.36309 0.48165 0.0
H614 H 0.35919 0.35992 0.45718 0.0
H615 H 0.36026 0.37156 0.50067 0.0
C616 C 0.42512 0.36988 0.47935 0.0
C617 C 0.4321 0.37984 0.51148 0.0
C618 C 0.40874 0.35044 0.47811 0.0
C619 C 0.39916 0.34069 0.5089 0.0
C620 C 0.40775 0.3491 0.54095 0.0
H621 H 0.26039 0.28007 0.55861 0.0
H622 H 0.2989 0.3023 0.55516 0.0
C623 C 0.42411 0.36852 0.54227 0.0
C624 C 0.378 0.32411 0.508 0.0
H625 H 0.31699 0.32334 0.49073 0.0
C626 C 0.38042 0.30037 0.52133 0.0
C627 C 0.3549 0.33252 0.49675 0.0
C628 C 0.35109 0.35821 0.48347 0.0
C629 C 0.36018 0.28483 0.52389 0.0
C630 C 0.33712 0.29334 0.51278 0.0
C631 C 0.33479 0.31694 0.4991 0.0
C632 C 0.31481 0.27856 0.51652 0.0
C633 C 0.36334 0.25974 0.53946 0.0
C634 C 0.31115 0.25785 0.49596 0.0
C635 C 0.28916 0.2451 0.49788 0.0
C636 C 0.27053 0.25289 0.52041 0.0
C637 C 0.2745 0.27344 0.54136 0.0
C638 C 0.29641 0.28621 0.53931 0.0
H639 H 0.38155 0.25732 0.55165 0.0
H640 H 0.34907 0.25627 0.5593 0.0
H641 H 0.36128 0.24585 0.51878 0.0
H642 H 0.32507 0.25188 0.47793 0.0
H643 H 0.28667 0.22922 0.48162 0.0
H644 H 0.60276 0.41672 0.59267 0.0
H645 H 0.63407 0.38531 0.60064 0.0
H646 H 0.64715 0.38451 0.49029 0.0
H647 H 0.61583 0.41575 0.4819 0.0
H648 H 0.63067 0.33797 0.56552 0.0
H649 H 0.71657 0.38726 0.53608 0.0
H650 H 0.68902 0.4027 0.54961 0.0
H651 H 0.69207 0.39211 0.50576 0.0
C652 C 0.61254 0.41016 0.57011 0.0
C653 C 0.60667 0.41866 0.53658 0.0
C654 C 0.63041 0.39221 0.57476 0.0
C655 C 0.64299 0.38277 0.54609 0.0
C656 C 0.63785 0.39183 0.51279 0.0
H657 H 0.7398 0.26662 0.49277 0.0
H658 H 0.71534 0.30368 0.49734 0.0
C659 C 0.61984 0.4096 0.50805 0.0
C660 C 0.65984 0.36187 0.55037 0.0
H661 H 0.71877 0.34392 0.53789 0.0
C662 C 0.65001 0.33926 0.55997 0.0
C663 C 0.68495 0.36371 0.54284 0.0
C664 C 0.69642 0.38777 0.53324 0.0
C665 C 0.66447 0.31811 0.56082 0.0
C666 C 0.6896 0.31982 0.55279 0.0
C667 C 0.69953 0.34263 0.54409 0.0
C668 C 0.70551 0.29793 0.55114 0.0
C669 C 0.6524 0.29399 0.56863 0.0
C670 C 0.70857 0.28261 0.58011 0.0
C671 C 0.72219 0.26109 0.5774 0.0
C672 C 0.73329 0.25466 0.54577 0.0
C673 C 0.73104 0.27066 0.51729 0.0
C674 C 0.71726 0.29202 0.51994 0.0
H675 H 0.63228 0.29501 0.56552 0.0
H676 H 0.65948 0.27941 0.55139 0.0
H677 H 0.65631 0.28871 0.5959 0.0
H678 H 0.70012 0.28709 0.60468 0.0
H679 H 0.72345 0.24921 0.59984 0.0
H680 H 0.04101 0.06617 0.11424 0.0
H681 H 0.06084 0.08704 0.16221 0.0
H682 H 0.99071 0.10057 0.20894 0.0
H683 H 0.97078 0.07925 0.16136 0.0
H684 H 0.05488 0.13492 0.18595 0.0
H685 H 0.029 0.0674 0.28703 0.0
H686 H 0.0266 0.06112 0.24119 0.0
H687 H 0.00363 0.07906 0.26258 0.0
C688 C 0.02978 0.07337 0.13462 0.0
C689 C 0.00433 0.07068 0.13389 0.0
C690 C 0.04115 0.08543 0.16207 0.0
C691 C 0.02725 0.09498 0.18938 0.0
C692 C 0.00181 0.09286 0.18845 0.0
H693 H 0.05808 0.17134 0.38011 0.0
H694 H 0.03919 0.15421 0.32811 0.0
C695 C 0.99046 0.08076 0.16108 0.0
C696 C 0.03931 0.10721 0.21886 0.0
H697 H 0.04633 0.10447 0.30679 0.0
C698 C 0.05314 0.12824 0.21237 0.0
C699 C 0.03703 0.09834 0.25322 0.0
C700 C 0.02346 0.07511 0.26149 0.0
C701 C 0.06434 0.14098 0.23957 0.0
C702 C 0.06175 0.13226 0.27393 0.0
C703 C 0.04807 0.11117 0.28037 0.0
C704 C 0.07336 0.14448 0.30375 0.0
C705 C 0.07844 0.16388 0.23151 0.0
C706 C 0.0988 0.14474 0.30705 0.0
C707 C 0.10965 0.1543 0.33684 0.0
C708 C 0.09519 0.16369 0.36387 0.0
C709 C 0.0697 0.16394 0.35998 0.0
C710 C 0.05888 0.15431 0.33025 0.0
H711 H 0.07428 0.17102 0.20513 0.0
H712 H 0.07437 0.17831 0.25085 0.0
H713 H 0.09825 0.15984 0.23283 0.0
H714 H 0.11024 0.1368 0.28711 0.0
H715 H 0.1293 0.15349 0.33925 0.0
H716 H 0.90406 0.97024 0.15411 0.0
H717 H 0.87927 0.99005 0.19837 0.0
H718 H 0.90274 0.06052 0.16149 0.0
H719 H 0.92702 0.04085 0.11675 0.0
H720 H 0.89563 0.01899 0.25026 0.0
H721 H 0.82972 0.07051 0.16858 0.0
H722 H 0.84887 0.04662 0.15134 0.0
H723 H 0.86108 0.07657 0.15855 0.0
C724 C 0.90386 0.98998 0.15514 0.0
C725 C 0.91771 0.00397 0.13167 0.0
C726 C 0.88961 0.00126 0.18047 0.0
C727 C 0.88886 0.02677 0.18291 0.0
C728 C 0.90257 0.04082 0.15958 0.0
H729 H 0.83284 0.12426 0.34054 0.0
H730 H 0.85029 0.10692 0.28753 0.0
C731 C 0.91672 0.02951 0.13409 0.0
C732 C 0.87503 0.03844 0.21139 0.0
H733 H 0.82954 0.07923 0.22919 0.0
C734 C 0.88106 0.03202 0.24563 0.0
C735 C 0.85618 0.05561 0.20523 0.0
C736 C 0.84839 0.06261 0.16894 0.0
C737 C 0.86892 0.04241 0.27394 0.0
C738 C 0.84997 0.05942 0.26783 0.0
C739 C 0.84401 0.06607 0.23365 0.0
C740 C 0.83649 0.07059 0.29695 0.0
C741 C 0.87677 0.03545 0.31023 0.0
C742 C 0.82223 0.05606 0.31897 0.0
C743 C 0.8122 0.06588 0.34917 0.0
C744 C 0.81621 0.09045 0.35776 0.0
C745 C 0.82929 0.10532 0.33452 0.0
C746 C 0.83934 0.09544 0.30431 0.0
H747 H 0.89495 0.02647 0.3105 0.0
H748 H 0.87743 0.05173 0.32727 0.0
H749 H 0.86336 0.0225 0.3214 0.0
H750 H 0.81953 0.03691 0.31336 0.0
H751 H 0.80185 0.0541 0.36627 0.0
H752 H 0.02576 0.89745 0.13413 0.0
H753 H 0.00874 0.86991 0.17778 0.0
H754 H 0.93815 0.90342 0.1646 0.0
H755 H 0.9551 0.93106 0.12151 0.0
H756 H 0.98686 0.88546 0.23947 0.0
H757 H 0.92283 0.83006 0.1615 0.0
H758 H 0.94653 0.84838 0.14199 0.0
H759 H 0.91857 0.86233 0.15627 0.0
C760 C 0.00653 0.89884 0.14021 0.0
C761 C 0.99167 0.91646 0.12386 0.0
C762 C 0.99685 0.883 0.16509 0.0
C763 C 0.9721 0.88433 0.17392 0.0
C764 C 0.95717 0.90165 0.15749 0.0
H765 H 0.87391 0.8384 0.33084 0.0
H766 H 0.89432 0.85144 0.2776 0.0
C767 C 0.9669 0.91755 0.13276 0.0
C768 C 0.96234 0.86927 0.2026 0.0
H769 H 0.91735 0.82892 0.22336 0.0
C770 C 0.97193 0.87277 0.23595 0.0
C771 C 0.9428 0.85288 0.1978 0.0
C772 C 0.93222 0.84798 0.16238 0.0
C773 C 0.9617 0.86126 0.26502 0.0
C774 C 0.94176 0.84524 0.26038 0.0
C775 C 0.9327 0.84111 0.22682 0.0
C776 C 0.92881 0.83435 0.29036 0.0
C777 C 0.9715 0.86743 0.30057 0.0
C778 C 0.94116 0.81961 0.31455 0.0
C779 C 0.92957 0.81231 0.34517 0.0
C780 C 0.90533 0.81926 0.35172 0.0
C781 C 0.89254 0.83262 0.32637 0.0
C782 C 0.9042 0.84014 0.29599 0.0
H783 H 0.98286 0.88418 0.30012 0.0
H784 H 0.95643 0.87015 0.3194 0.0
H785 H 0.98308 0.85218 0.31003 0.0
H786 H 0.95997 0.81441 0.31027 0.0
H787 H 0.93972 0.80173 0.36411 0.0
H788 H 0.0825 0.01985 0.157 0.0
H789 H 0.1056 0.99809 0.20162 0.0
H790 H 0.09097 0.9299 0.15034 0.0
H791 H 0.06746 0.95143 0.10647 0.0
H792 H 0.08212 0.92727 0.21904 0.0
H793 H 0.17313 0.96786 0.19689 0.0
H794 H 0.14989 0.99046 0.20349 0.0
H795 H 0.14849 0.97092 0.16609 0.0
C796 C 0.08428 0.00022 0.15502 0.0
C797 C 0.07308 0.98739 0.12774 0.0
C798 C 0.0977 0.98784 0.18044 0.0
C799 C 0.10043 0.96241 0.17894 0.0
C800 C 0.08929 0.94956 0.15187 0.0
H801 H 0.19646 0.88275 0.32325 0.0
H802 H 0.17766 0.89819 0.26957 0.0
C803 C 0.07578 0.96194 0.12661 0.0
C804 C 0.11361 0.94906 0.20673 0.0
H805 H 0.16756 0.94655 0.25084 0.0
C806 C 0.10089 0.9313 0.22574 0.0
C807 C 0.13823 0.95398 0.21502 0.0
C808 C 0.15333 0.97166 0.19406 0.0
C809 C 0.11179 0.91911 0.25379 0.0
C810 C 0.13588 0.92519 0.26351 0.0
C811 C 0.14899 0.94213 0.24356 0.0
C812 C 0.14715 0.91532 0.29555 0.0
C813 C 0.09734 0.89991 0.27291 0.0
C814 C 0.13635 0.92006 0.3278 0.0
C815 C 0.1469 0.91122 0.35827 0.0
C816 C 0.16868 0.89765 0.35723 0.0
C817 C 0.17958 0.89296 0.32486 0.0
C818 C 0.16894 0.90186 0.29424 0.0
H819 H 0.08283 0.89209 0.2562 0.0
H820 H 0.10929 0.88487 0.28221 0.0
H821 H 0.08838 0.90834 0.29576 0.0
H822 H 0.11977 0.93078 0.32944 0.0
H823 H 0.13785 0.91489 0.38269 0.0
H824 H 0.04514 0.0216 0.87006 0.0
H825 H 0.06151 0.00207 0.81782 0.0
H826 H 0.11312 0.96208 0.88064 0.0
H827 H 0.0971 0.98151 0.93278 0.0
H828 H 0.13336 0.98744 0.82181 0.0
H829 H 0.0542 0.92887 0.7886 0.0
H830 H 0.0476 0.96063 0.79596 0.0
H831 H 0.05829 0.94194 0.83115 0.0
C832 C 0.05996 0.00863 0.87272 0.0
C833 C 0.06997 0.00323 0.90549 0.0
C834 C 0.06917 0.99741 0.84291 0.0
C835 C 0.08842 0.9806 0.84553 0.0
C836 C 0.09825 0.97503 0.87819 0.0
H837 H 0.14673 0.87818 0.6973 0.0
H838 H 0.12806 0.89863 0.74703 0.0
C839 C 0.08906 0.98616 0.90792 0.0
C840 C 0.09904 0.96931 0.81423 0.0
H841 H 0.08719 0.92902 0.74912 0.0
C842 C 0.12329 0.97472 0.8058 0.0
C843 C 0.08587 0.95253 0.79385 0.0
C844 C 0.06009 0.94542 0.80285 0.0
C845 C 0.13482 0.96374 0.77735 0.0
C846 C 0.12153 0.94725 0.75652 0.0
C847 C 0.09725 0.94181 0.76503 0.0
C848 C 0.13273 0.93503 0.72627 0.0
C849 C 0.16128 0.96942 0.77041 0.0
C850 C 0.14138 0.94874 0.69807 0.0
C851 C 0.15232 0.93716 0.66984 0.0
C852 C 0.1546 0.91159 0.66913 0.0
C853 C 0.14564 0.8979 0.69729 0.0
C854 C 0.13476 0.90953 0.72556 0.0
H855 H 0.17037 0.97734 0.79355 0.0
H856 H 0.17141 0.95277 0.76252 0.0
H857 H 0.16251 0.98292 0.74896 0.0
H858 H 0.13964 0.96842 0.69788 0.0
H859 H 0.1592 0.94826 0.64872 0.0
H860 H 0.98464 0.05545 0.87851 0.0
H861 H 0.0093 0.07141 0.83077 0.0
H862 H 0.04799 0.11757 0.90246 0.0
H863 H 0.02311 0.10204 0.9502 0.0
H864 H 0.03083 0.14215 0.84464 0.0
H865 H 0.08078 0.05833 0.80605 0.0
H866 H 0.04841 0.05441 0.81006 0.0
H867 H 0.06621 0.06168 0.8478 0.0
C868 C 0.99854 0.06882 0.88415 0.0
C869 C 0.00202 0.07736 0.91815 0.0
C870 C 0.01273 0.07779 0.8569 0.0
C871 C 0.03073 0.09537 0.86322 0.0
C872 C 0.03432 0.10386 0.89713 0.0
H873 H 0.13445 0.14431 0.70593 0.0
H874 H 0.11616 0.12866 0.7595 0.0
C875 C 0.02011 0.09492 0.92437 0.0
C876 C 0.04464 0.10611 0.8341 0.0
H877 H 0.08221 0.09186 0.76653 0.0
C878 C 0.04224 0.13121 0.82771 0.0
C879 C 0.05977 0.09184 0.81245 0.0
C880 C 0.0642 0.06511 0.81951 0.0
C881 C 0.05396 0.14233 0.7995 0.0
C882 C 0.06806 0.12783 0.77674 0.0
C883 C 0.07114 0.10287 0.78381 0.0
C884 C 0.07921 0.1381 0.74495 0.0
C885 C 0.05122 0.1695 0.79442 0.0
C886 C 0.06447 0.1485 0.71906 0.0
C887 C 0.07486 0.15765 0.68864 0.0
C888 C 0.10019 0.15635 0.68337 0.0
C889 C 0.11493 0.14591 0.70941 0.0
C890 C 0.1045 0.1368 0.73989 0.0
H891 H 0.04622 0.17876 0.81903 0.0
H892 H 0.0683 0.17771 0.78434 0.0
H893 H 0.03647 0.17308 0.77533 0.0
H894 H 0.04486 0.14929 0.72219 0.0
H895 H 0.06303 0.16576 0.66924 0.0
H896 H 0.98065 0.00832 0.88697 0.0
H897 H 0.96595 0.02799 0.83356 0.0
H898 H 0.90139 0.9834 0.83626 0.0
H899 H 0.91617 0.96317 0.8888 0.0
H900 H 0.92472 0.98906 0.76827 0.0
H901 H 0.90721 0.07675 0.83663 0.0
H902 H 0.93722 0.06375 0.84073 0.0
H903 H 0.91164 0.04838 0.85973 0.0
C904 C 0.96339 0.00262 0.87604 0.0
C905 C 0.94943 0.98438 0.89225 0.0
C906 C 0.95504 0.01388 0.84564 0.0
C907 C 0.93247 0.00733 0.83139 0.0
C908 C 0.91885 0.98871 0.84697 0.0
H909 H 0.83307 0.04871 0.66854 0.0
H910 H 0.85673 0.02792 0.71368 0.0
C911 C 0.92731 0.97721 0.87702 0.0
C912 C 0.92227 0.02056 0.80122 0.0
H913 H 0.89649 0.07481 0.77772 0.0
C914 C 0.91867 0.00785 0.77013 0.0
C915 C 0.91457 0.04509 0.80388 0.0
C916 C 0.91765 0.05937 0.83704 0.0
C917 C 0.9073 0.019 0.74152 0.0
C918 C 0.89876 0.04333 0.74453 0.0
C919 C 0.90298 0.05618 0.77543 0.0
C920 C 0.8847 0.05564 0.71654 0.0
C921 C 0.90475 0.0046 0.7084 0.0
C922 C 0.89198 0.0786 0.70409 0.0
C923 C 0.8782 0.09074 0.67882 0.0
C924 C 0.85694 0.08007 0.66543 0.0
C925 C 0.84958 0.05718 0.67808 0.0
C926 C 0.8632 0.0452 0.70364 0.0
H927 H 0.91897 0.99018 0.70652 0.0
H928 H 0.88675 0.99543 0.70818 0.0
H929 H 0.90603 0.01658 0.68517 0.0
H930 H 0.9084 0.08711 0.71385 0.0
H931 H 0.88439 0.10828 0.66932 0.0
H932 H 0.98124 0.9103 0.90546 0.0
H933 H 0.95893 0.90757 0.85091 0.0
H934 H 0.99843 0.96945 0.81082 0.0
H935 H 0.02115 0.97219 0.86548 0.0
H936 H 0.92919 0.94288 0.81903 0.0
H937 H 0.00796 0.91673 0.73582 0.0
H938 H 0.00939 0.91568 0.78262 0.0
H939 H 0.01087 0.94444 0.76026 0.0
C940 C 0.98538 0.92324 0.88501 0.0
C941 C 0.00315 0.94133 0.8897 0.0
C942 C 0.9725 0.92173 0.8539 0.0
C943 C 0.9772 0.93814 0.82674 0.0
C944 C 0.99483 0.95634 0.83127 0.0
H945 H 0.91382 0.91643 0.61899 0.0
H946 H 0.93465 0.93735 0.66667 0.0
C947 C 0.00777 0.9579 0.86252 0.0
C948 C 0.96348 0.93576 0.79386 0.0
H949 H 0.96928 0.91699 0.70989 0.0
C950 C 0.938 0.93788 0.79494 0.0
C951 C 0.97501 0.92902 0.76248 0.0
C952 C 0.0023 0.92614 0.76002 0.0
C953 C 0.92367 0.93275 0.76578 0.0
C954 C 0.93506 0.92425 0.73523 0.0
C955 C 0.9606 0.92341 0.73346 0.0
C956 C 0.92087 0.91324 0.70663 0.0
C957 C 0.89641 0.93603 0.76819 0.0
C958 C 0.90636 0.89274 0.71334 0.0
C959 C 0.89462 0.88069 0.68627 0.0
C960 C 0.89727 0.88882 0.65184 0.0
C961 C 0.91159 0.90959 0.6452 0.0
C962 C 0.92338 0.92165 0.67238 0.0
H963 H 0.89157 0.9503 0.78744 0.0
H964 H 0.88846 0.94116 0.74266 0.0
H965 H 0.88803 0.91866 0.77689 0.0
H966 H 0.90474 0.88552 0.73945 0.0
H967 H 0.88416 0.86449 0.69223 0.0
H968 H 0.53132 0.59071 0.60555 0.0
H969 H 0.55636 0.60732 0.65241 0.0
H970 H 0.53486 0.54749 0.71865 0.0
H971 H 0.51078 0.53026 0.67095 0.0
H972 H 0.53832 0.62219 0.71463 0.0
H973 H 0.60821 0.55026 0.73519 0.0
H974 H 0.58989 0.55225 0.69635 0.0
H975 H 0.5775 0.539 0.73523 0.0
C976 C 0.53293 0.5806 0.62957 0.0
C977 C 0.51999 0.55886 0.63439 0.0
C978 C 0.54685 0.59025 0.65648 0.0
C979 C 0.54787 0.57836 0.68874 0.0
C980 C 0.53485 0.55659 0.69364 0.0
H981 H 0.59468 0.61217 0.89458 0.0
H982 H 0.57909 0.59433 0.841 0.0
C983 C 0.52096 0.54691 0.66661 0.0
C984 C 0.56069 0.58993 0.71812 0.0
H985 H 0.60455 0.58041 0.77954 0.0
C986 C 0.553 0.6132 0.7286 0.0
C987 C 0.57978 0.57809 0.73624 0.0
C988 C 0.58953 0.55361 0.72506 0.0
C989 C 0.56336 0.62466 0.75748 0.0
C990 C 0.58214 0.61263 0.77598 0.0
C991 C 0.59014 0.58954 0.76519 0.0
C992 C 0.5927 0.62314 0.80782 0.0
C993 C 0.55354 0.64914 0.76874 0.0
C994 C 0.60582 0.64507 0.80671 0.0
C995 C 0.6146 0.65543 0.83735 0.0
C996 C 0.61038 0.64397 0.86949 0.0
C997 C 0.59779 0.62167 0.87028 0.0
C998 C 0.58907 0.61134 0.83971 0.0
H999 H 0.5359 0.65358 0.75599 0.0
H1000 H 0.55093 0.6496 0.79732 0.0
H1001 H 0.56682 0.66356 0.7617 0.0
H1002 H 0.60905 0.65425 0.7822 0.0
H1003 H 0.6242 0.67264 0.83598 0.0
H1004 H 0.44093 0.52806 0.63002 0.0
H1005 H 0.41401 0.54689 0.67256 0.0
H1006 H 0.37306 0.48007 0.68011 0.0
H1007 H 0.39973 0.46124 0.63691 0.0
H1008 H 0.36223 0.5532 0.67045 0.0
H1009 H 0.39342 0.4957 0.78087 0.0
H1010 H 0.40884 0.49593 0.7395 0.0
H1011 H 0.38114 0.47884 0.74508 0.0
C1012 C 0.42607 0.51746 0.64024 0.0
C1013 C 0.4224 0.49327 0.62968 0.0
C1014 C 0.41073 0.52822 0.66472 0.0
C1015 C 0.39163 0.51483 0.67952 0.0
C1016 C 0.38784 0.49064 0.66915 0.0
H1017 H 0.29438 0.54885 0.85059 0.0
H1018 H 0.31224 0.53019 0.79881 0.0
C1019 C 0.40311 0.47994 0.64447 0.0
C1020 C 0.37594 0.52615 0.70619 0.0
H1021 H 0.36047 0.52254 0.79174 0.0
C1022 C 0.36175 0.54651 0.69699 0.0
C1023 C 0.37541 0.51732 0.74069 0.0
C1024 C 0.3907 0.49589 0.75228 0.0
C1025 C 0.34686 0.55824 0.72146 0.0
C1026 C 0.3466 0.54959 0.75611 0.0
C1027 C 0.36061 0.52907 0.76512 0.0
C1028 C 0.333 0.5621 0.78409 0.0
C1029 C 0.3314 0.57956 0.7099 0.0
C1030 C 0.33845 0.58635 0.79263 0.0
C1031 C 0.3282 0.59705 0.82207 0.0
C1032 C 0.31261 0.58356 0.84375 0.0
C1033 C 0.30649 0.55959 0.83447 0.0
C1034 C 0.31661 0.54895 0.80489 0.0
H1035 H 0.32774 0.57896 0.68154 0.0
H1036 H 0.31373 0.57998 0.72394 0.0
H1037 H 0.34125 0.59677 0.71542 0.0
H1038 H 0.35154 0.59662 0.7775 0.0
H1039 H 0.33353 0.61543 0.82889 0.0
H1040 H 0.47213 0.40716 0.59506 0.0
H1041 H 0.44831 0.38847 0.6418 0.0
H1042 H 0.47899 0.4395 0.71467 0.0
H1043 H 0.50231 0.45867 0.66752 0.0
H1044 H 0.46672 0.36656 0.70173 0.0
H1045 H 0.40457 0.44315 0.73146 0.0
H1046 H 0.42359 0.44277 0.69332 0.0
H1047 H 0.43605 0.45187 0.73449 0.0
C1048 C 0.47313 0.41482 0.62082 0.0
C1049 C 0.48836 0.43473 0.62762 0.0
C1050 C 0.45984 0.40394 0.64756 0.0
C1051 C 0.46165 0.41285 0.68153 0.0
C1052 C 0.47705 0.43266 0.68847 0.0
H1053 H 0.4304 0.34298 0.87618 0.0
H1054 H 0.44862 0.35898 0.82297 0.0
C1055 C 0.49042 0.44348 0.66168 0.0
C1056 C 0.44821 0.40075 0.70999 0.0
H1057 H 0.40649 0.41108 0.77391 0.0
C1058 C 0.45341 0.3762 0.71739 0.0
C1059 C 0.43057 0.41327 0.72988 0.0
C1060 C 0.42318 0.43917 0.72168 0.0
C1061 C 0.44196 0.36404 0.745 0.0
C1062 C 0.42526 0.37696 0.76606 0.0
C1063 C 0.41949 0.40127 0.75792 0.0
C1064 C 0.41415 0.36591 0.79736 0.0
C1065 C 0.44779 0.33748 0.75124 0.0
C1066 C 0.38872 0.36479 0.80079 0.0
C1067 C 0.37823 0.35596 0.83139 0.0
C1068 C 0.39302 0.34824 0.85918 0.0
C1069 C 0.41851 0.34899 0.85537 0.0
C1070 C 0.42896 0.35786 0.82482 0.0
H1071 H 0.45476 0.32857 0.72733 0.0
H1072 H 0.46217 0.336 0.77142 0.0
H1073 H 0.4315 0.32738 0.76045 0.0
H1074 H 0.37699 0.37109 0.77995 0.0
H1075 H 0.35855 0.35591 0.83368 0.0
H1076 H 0.60198 0.53213 0.64173 0.0
H1077 H 0.62471 0.51206 0.68822 0.0
H1078 H 0.59172 0.44334 0.66141 0.0
H1079 H 0.56802 0.46358 0.61644 0.0
H1080 H 0.58926 0.45094 0.72887 0.0
H1081 H 0.68377 0.46867 0.68576 0.0
H1082 H 0.66629 0.49624 0.68919 0.0
H1083 H 0.65778 0.47352 0.65782 0.0
C1084 C 0.5996 0.51272 0.64561 0.0
C1085 C 0.58312 0.49944 0.62507 0.0
C1086 C 0.61288 0.50121 0.67196 0.0
C1087 C 0.61032 0.47609 0.67788 0.0
C1088 C 0.59416 0.46272 0.65714 0.0
H1089 H 0.70084 0.39485 0.82606 0.0
H1090 H 0.68192 0.41023 0.77265 0.0
C1091 C 0.58066 0.47432 0.63113 0.0
C1092 C 0.62302 0.4641 0.70733 0.0
H1093 H 0.6788 0.45621 0.74519 0.0
C1094 C 0.60888 0.45187 0.73222 0.0
C1095 C 0.64865 0.46498 0.71143 0.0
C1096 C 0.66502 0.47634 0.68442 0.0
C1097 C 0.61953 0.44117 0.76164 0.0
C1098 C 0.64496 0.44339 0.76684 0.0
C1099 C 0.65925 0.45486 0.74139 0.0
C1100 C 0.65687 0.43446 0.79898 0.0
C1101 C 0.60341 0.42749 0.78674 0.0
C1102 C 0.64939 0.44335 0.83136 0.0
C1103 C 0.65986 0.43438 0.86184 0.0
C1104 C 0.67838 0.4166 0.86059 0.0
C1105 C 0.68637 0.40825 0.82799 0.0
C1106 C 0.67571 0.41713 0.79744 0.0
H1107 H 0.58653 0.42092 0.77389 0.0
H1108 H 0.61309 0.41158 0.79823 0.0
H1109 H 0.5979 0.43988 0.80807 0.0
H1110 H 0.63525 0.45712 0.8331 0.0
H1111 H 0.653 0.44104 0.88641 0.0
H1112 H 0.57585 0.55466 0.36992 0.0
H1113 H 0.59646 0.53514 0.32096 0.0
H1114 H 0.56049 0.46728 0.34501 0.0
H1115 H 0.54024 0.48659 0.39431 0.0
H1116 H 0.61103 0.46318 0.33979 0.0
H1117 H 0.57249 0.51229 0.22604 0.0
H1118 H 0.58511 0.53175 0.2588 0.0
H1119 H 0.55872 0.5136 0.2686 0.0
C1120 C 0.57208 0.53567 0.36447 0.0
C1121 C 0.55653 0.52205 0.38608 0.0
C1122 C 0.58375 0.52459 0.33636 0.0
C1123 C 0.57993 0.49978 0.32932 0.0
C1124 C 0.56367 0.48645 0.35001 0.0
H1125 H 0.64421 0.39464 0.18842 0.0
H1126 H 0.62168 0.41496 0.23485 0.0
C1127 C 0.552 0.49752 0.37804 0.0
C1128 C 0.59437 0.48722 0.30227 0.0
H1129 H 0.60699 0.48695 0.21554 0.0
C1130 C 0.61004 0.46825 0.31257 0.0
C1131 C 0.59316 0.49401 0.26689 0.0
C1132 C 0.57628 0.51388 0.25428 0.0
C1133 C 0.62485 0.45611 0.28845 0.0
C1134 C 0.62358 0.46286 0.25304 0.0
C1135 C 0.60792 0.48184 0.24274 0.0
C1136 C 0.63811 0.4503 0.22612 0.0
C1137 C 0.64211 0.43656 0.30121 0.0
C1138 C 0.6546 0.4635 0.20559 0.0
C1139 C 0.66747 0.45195 0.17901 0.0
C1140 C 0.66398 0.427 0.1724 0.0
C1141 C 0.64763 0.41377 0.19329 0.0
C1142 C 0.63473 0.42535 0.2198 0.0
H1143 H 0.64566 0.43817 0.32951 0.0
H1144 H 0.63391 0.41839 0.29647 0.0
H1145 H 0.65978 0.4374 0.28719 0.0
H1146 H 0.65741 0.48279 0.21006 0.0
H1147 H 0.68008 0.46257 0.16353 0.0
H1148 H 0.51544 0.59328 0.44458 0.0
H1149 H 0.53333 0.61057 0.39212 0.0
H1150 H 0.48745 0.5647 0.32918 0.0
H1151 H 0.46986 0.54668 0.38173 0.0
H1152 H 0.53426 0.56585 0.30586 0.0
H1153 H 0.50081 0.65984 0.32855 0.0
H1154 H 0.51804 0.64818 0.36459 0.0
H1155 H 0.4897 0.63394 0.35282 0.0
C1156 C 0.50908 0.58688 0.41961 0.0
C1157 C 0.49106 0.56879 0.41728 0.0
C1158 C 0.51923 0.5969 0.38966 0.0
C1159 C 0.51126 0.58935 0.35683 0.0
C1160 C 0.49364 0.57093 0.35434 0.0
H1161 H 0.54921 0.66694 0.16598 0.0
H1162 H 0.52678 0.64873 0.21452 0.0
C1163 C 0.48358 0.56072 0.38435 0.0
C1164 C 0.52168 0.6005 0.3252 0.0
H1165 H 0.53214 0.6553 0.28573 0.0
C1166 C 0.53358 0.58537 0.30126 0.0
C1167 C 0.52037 0.62592 0.31894 0.0
C1168 C 0.50631 0.64288 0.3424 0.0
C1169 C 0.54497 0.59515 0.27179 0.0
C1170 C 0.54506 0.6207 0.26681 0.0
C1171 C 0.53239 0.63574 0.29001 0.0
C1172 C 0.55863 0.63217 0.238 0.0
C1173 C 0.55665 0.57802 0.24611 0.0
C1174 C 0.58398 0.62928 0.23568 0.0
C1175 C 0.5968 0.63954 0.20801 0.0
C1176 C 0.58447 0.65299 0.18227 0.0
C1177 C 0.55913 0.6564 0.18519 0.0
C1178 C 0.54633 0.64613 0.21293 0.0
H1179 H 0.54835 0.55959 0.24754 0.0
H1180 H 0.5548 0.58494 0.21911 0.0
H1181 H 0.57635 0.57629 0.2522 0.0
H1182 H 0.59383 0.61889 0.25516 0.0
H1183 H 0.61626 0.63641 0.20631 0.0
H1184 H 0.38518 0.48071 0.40828 0.0
H1185 H 0.37045 0.50073 0.35554 0.0
H1186 H 0.4438 0.50355 0.31564 0.0
H1187 H 0.45888 0.48368 0.36863 0.0
H1188 H 0.39089 0.54941 0.32964 0.0
H1189 H 0.39756 0.47139 0.23761 0.0
H1190 H 0.39446 0.46684 0.2839 0.0
H1191 H 0.42281 0.47726 0.26633 0.0
C1192 C 0.39823 0.4855 0.3883 0.0
C1193 C 0.42321 0.48062 0.39263 0.0
C1194 C 0.38975 0.4969 0.35821 0.0
C1195 C 0.40604 0.50341 0.33181 0.0
C1196 C 0.43097 0.4984 0.33573 0.0
H1197 H 0.37649 0.57081 0.13093 0.0
H1198 H 0.39587 0.55056 0.18053 0.0
C1199 C 0.43953 0.48711 0.36599 0.0
C1200 C 0.39686 0.51638 0.30084 0.0
H1201 H 0.38252 0.50867 0.21543 0.0
C1202 C 0.38912 0.54061 0.30459 0.0
C1203 C 0.39481 0.50474 0.26835 0.0
C1204 C 0.40271 0.47858 0.26352 0.0
C1205 C 0.37916 0.5536 0.27654 0.0
C1206 C 0.37635 0.54177 0.2442 0.0
C1207 C 0.38459 0.51764 0.24031 0.0
C1208 C 0.36454 0.55404 0.21426 0.0
C1209 C 0.37202 0.57993 0.28174 0.0
C1210 C 0.34041 0.56246 0.2167 0.0
C1211 C 0.32932 0.57408 0.18846 0.0
C1212 C 0.34206 0.5772 0.15712 0.0
C1213 C 0.36614 0.56849 0.15465 0.0
C1214 C 0.37726 0.55698 0.18296 0.0
H1215 H 0.38175 0.58811 0.30415 0.0
H1216 H 0.37592 0.59099 0.2582 0.0
H1217 H 0.35217 0.58101 0.28712 0.0
H1218 H 0.33007 0.55985 0.24037 0.0
H1219 H 0.31062 0.58023 0.19095 0.0
H1220 H 0.51131 0.45662 0.37913 0.0
H1221 H 0.48484 0.44742 0.33003 0.0
H1222 H 0.45462 0.3865 0.38647 0.0
H1223 H 0.48096 0.39571 0.43587 0.0
H1224 H 0.484 0.40636 0.29175 0.0
H1225 H 0.3939 0.42168 0.35235 0.0
H1226 H 0.42202 0.42983 0.37354 0.0
H1227 H 0.41124 0.39892 0.37523 0.0
C1228 C 0.49905 0.44128 0.38117 0.0
C1229 C 0.49816 0.42698 0.4115 0.0
C1230 C 0.48386 0.43611 0.35311 0.0
C1231 C 0.46746 0.41657 0.35486 0.0
C1232 C 0.46669 0.40207 0.38493 0.0
H1233 H 0.38145 0.33671 0.20831 0.0
H1234 H 0.40191 0.35298 0.25972 0.0
C1235 C 0.48186 0.40727 0.41306 0.0
C1236 C 0.45235 0.41041 0.32433 0.0
H1237 H 0.39388 0.40007 0.29784 0.0
C1238 C 0.46428 0.40526 0.29297 0.0
C1239 C 0.42662 0.409 0.32605 0.0
C1240 C 0.41269 0.41539 0.35854 0.0
C1241 C 0.45124 0.39796 0.26353 0.0
C1242 C 0.42561 0.39603 0.26549 0.0
C1243 C 0.41358 0.40155 0.2966 0.0
C1244 C 0.4112 0.38741 0.23564 0.0
C1245 C 0.465 0.39164 0.23083 0.0
C1246 C 0.40924 0.4017 0.20553 0.0
C1247 C 0.3975 0.39253 0.17621 0.0
C1248 C 0.38752 0.36891 0.17657 0.0
C1249 C 0.38877 0.35503 0.20729 0.0
C1250 C 0.40049 0.36424 0.23662 0.0
H1251 H 0.48494 0.39007 0.23542 0.0
H1252 H 0.45832 0.37418 0.2199 0.0
H1253 H 0.4619 0.40613 0.2111 0.0
H1254 H 0.41717 0.41976 0.20456 0.0
H1255 H 0.39643 0.40384 0.15315 0.0
loop_
_geom_bond_atom_site_label_1
_geom_bond_atom_site_label_2
_geom_bond_distance
_geom_bond_site_symmetry_2
_ccdc_geom_bond_type
Zn0 O2 1.933 1_556 S
Zn0 O20 1.985 . S
Zn0 O31 1.955 . S
Zn1 O2 1.911 . S
Zn1 O21 1.970 . S
Zn1 O37 1.945 . S
Zn1 O44 1.981 . S
O2 Zn0 1.933 1_554 S
O2 Zn1 1.911 . S
O2 H3 0.841 1_655 S
H3 O2 0.841 1_455 S
C4 O5 1.246 . S
C4 O33 1.276 1_545 S
O5 C4 1.246 . S
Zn6 O8 1.911 . S
Zn6 O23 1.970 . S
Zn6 O40 1.945 . S
Zn6 O47 1.981 . S
Zn7 O8 1.933 1_556 S
Zn7 O22 1.985 . S
Zn7 O29 1.955 . S
O8 Zn6 1.911 . S
O8 Zn7 1.933 1_554 S
O8 H9 0.841 1_455 S
H9 O8 0.841 1_655 S
Zn10 O11 1.933 1_556 S
Zn10 O24 1.985 . S
Zn10 O33 1.955 . S
O11 Zn10 1.933 1_554 S
O11 Zn12 1.911 . S
O11 H13 0.841 1_565 S
Zn12 O11 1.911 . S
Zn12 O25 1.970 . S
Zn12 O41 1.981 . S
Zn12 O43 1.945 . S
H13 O11 0.841 1_545 S
Zn14 O15 1.933 1_556 S
Zn14 O27 1.985 . S
Zn14 O35 1.955 . S
O15 Zn14 1.933 1_554 S
O15 H16 0.841 1_545 S
O15 Zn17 1.911 . S
H16 O15 0.841 1_565 S
Zn17 O15 1.911 . S
Zn17 O28 1.970 . S
Zn17 O38 1.981 . S
Zn17 O46 1.945 . S
C18 O19 1.246 . S
C18 O35 1.276 1_565 S
O19 C18 1.246 . S
O20 Zn0 1.985 . S
O20 C30 1.245 1_556 S
O21 Zn1 1.970 . S
O21 C30 1.263 . S
O22 Zn7 1.985 . S
O22 C34 1.245 1_556 S
O23 Zn6 1.970 . S
O23 C34 1.263 . S
O24 Zn10 1.985 . S
O24 C39 1.245 1_556 S
O25 Zn12 1.970 . S
O25 C39 1.263 . S
C26 O37 1.262 1_455 S
C26 O38 1.245 . S
O27 Zn14 1.985 . S
O27 C45 1.245 1_556 S
O28 Zn17 1.970 . S
O28 C45 1.263 . S
O29 Zn7 1.955 . S
O29 C48 1.276 1_455 S
C30 O20 1.245 1_554 S
C30 O21 1.263 . S
O31 Zn0 1.955 . S
O31 C50 1.276 1_655 S
C32 O40 1.262 1_655 S
C32 O41 1.245 . S
O33 C4 1.276 1_565 S
O33 Zn10 1.955 . S
C34 O22 1.245 1_554 S
C34 O23 1.263 . S
O35 Zn14 1.955 . S
O35 C18 1.276 1_545 S
C36 O43 1.262 1_545 S
C36 O44 1.245 . S
O37 Zn1 1.945 . S
O37 C26 1.262 1_655 S
O38 Zn17 1.981 . S
O38 C26 1.245 . S
C39 O24 1.245 1_554 S
C39 O25 1.263 . S
O40 Zn6 1.945 . S
O40 C32 1.262 1_455 S
O41 Zn12 1.981 . S
O41 C32 1.245 . S
C42 O46 1.262 1_565 S
C42 O47 1.245 . S
O43 Zn12 1.945 . S
O43 C36 1.262 1_565 S
O44 Zn1 1.981 . S
O44 C36 1.245 . S
C45 O27 1.245 1_554 S
C45 O28 1.263 . S
O46 Zn17 1.945 . S
O46 C42 1.262 1_545 S
O47 Zn6 1.981 . S
O47 C42 1.245 . S
C48 O29 1.276 1_655 S
C48 O49 1.246 . S
O49 C48 1.246 . S
C50 O31 1.276 1_455 S
C50 O51 1.246 . S
O51 C50 1.246 . S
Zn52 O54 1.933 . S
Zn52 O72 1.985 . S
Zn52 O83 1.955 . S
Zn53 O54 1.911 . S
Zn53 O73 1.970 . S
Zn53 O89 1.945 . S
Zn53 O96 1.981 . S
O54 Zn52 1.933 . S
O54 Zn53 1.911 . S
O54 H55 0.841 . S
H55 O54 0.841 . S
C56 O57 1.246 . S
C56 O85 1.276 . S
O57 C56 1.246 . S
Zn58 O60 1.911 . S
Zn58 O75 1.970 . S
Zn58 O92 1.945 . S
Zn58 O99 1.981 . S
Zn59 O60 1.933 . S
Zn59 O74 1.985 . S
Zn59 O81 1.955 . S
O60 Zn58 1.911 . S
O60 Zn59 1.933 . S
O60 H61 0.841 . S
H61 O60 0.841 . S
Zn62 O63 1.933 . S
Zn62 O76 1.985 . S
Zn62 O85 1.955 . S
O63 Zn62 1.933 . S
O63 Zn64 1.911 . S
O63 H65 0.841 . S
Zn64 O63 1.911 . S
Zn64 O77 1.970 . S
Zn64 O93 1.981 . S
Zn64 O95 1.945 . S
H65 O63 0.841 . S
Zn66 O67 1.933 . S
Zn66 O79 1.985 . S
Zn66 O87 1.955 . S
O67 Zn66 1.933 . S
O67 H68 0.841 . S
O67 Zn69 1.911 . S
H68 O67 0.841 . S
Zn69 O67 1.911 . S
Zn69 O80 1.970 . S
Zn69 O90 1.981 . S
Zn69 O98 1.945 . S
C70 O71 1.246 . S
C70 O87 1.276 . S
O71 C70 1.246 . S
O72 Zn52 1.985 . S
O72 C82 1.245 . S
O73 Zn53 1.970 . S
O73 C82 1.263 . S
O74 Zn59 1.985 . S
O74 C86 1.245 . S
O75 Zn58 1.970 . S
O75 C86 1.263 . S
O76 Zn62 1.985 . S
O76 C91 1.245 . S
O77 Zn64 1.970 . S
O77 C91 1.263 . S
C78 O89 1.262 . S
C78 O90 1.245 . S
O79 Zn66 1.985 . S
O79 C97 1.245 . S
O80 Zn69 1.970 . S
O80 C97 1.263 . S
O81 Zn59 1.955 . S
O81 C100 1.276 . S
C82 O72 1.245 . S
C82 O73 1.263 . S
O83 Zn52 1.955 . S
O83 C102 1.276 . S
C84 O92 1.262 . S
C84 O93 1.245 . S
O85 C56 1.276 . S
O85 Zn62 1.955 . S
C86 O74 1.245 . S
C86 O75 1.263 . S
O87 Zn66 1.955 . S
O87 C70 1.276 . S
C88 O95 1.262 . S
C88 O96 1.245 . S
O89 Zn53 1.945 . S
O89 C78 1.262 . S
O90 Zn69 1.981 . S
O90 C78 1.245 . S
C91 O76 1.245 . S
C91 O77 1.263 . S
O92 Zn58 1.945 . S
O92 C84 1.262 . S
O93 Zn64 1.981 . S
O93 C84 1.245 . S
C94 O98 1.262 . S
C94 O99 1.245 . S
O95 Zn64 1.945 . S
O95 C88 1.262 . S
O96 Zn53 1.981 . S
O96 C88 1.245 . S
C97 O79 1.245 . S
C97 O80 1.263 . S
O98 Zn69 1.945 . S
O98 C94 1.262 . S
O99 Zn58 1.981 . S
O99 C94 1.245 . S
C100 O81 1.276 . S
C100 O101 1.246 . S
O101 C100 1.246 . S
C102 O83 1.276 . S
C102 O103 1.246 . S
O103 C102 1.246 . S
C104 C105 1.384 . S
C104 H117 0.947 . S
C104 C139 1.382 . S
C105 C104 1.384 . S
C105 C106 1.378 . S
C106 C105 1.378 . S
C106 C107 1.378 . S
C106 H118 0.952 . S
C107 C106 1.378 . S
C107 H119 0.950 . S
C107 C138 1.383 . S
H108 C127 0.947 . S
H109 C128 0.946 . S
H110 C130 0.953 . S
H111 C131 0.945 . S
H112 C133 0.952 . S
H113 C134 0.949 . S
H114 C136 0.950 . S
H115 C137 0.948 . S
H116 C139 0.951 . S
H117 C104 0.947 . S
H118 C106 0.952 . S
H119 C107 0.950 . S
N120 C123 1.382 . S
N120 C125 1.363 . S
N121 C123 1.371 1_556 S
N121 C124 1.372 . S
N122 C124 1.361 1_554 S
N122 C125 1.377 . S
C123 N120 1.382 . S
C123 N121 1.371 1_554 S
C123 C126 1.480 . S
C124 N121 1.372 . S
C124 N122 1.361 1_556 S
C124 C132 1.457 . S
C125 N120 1.363 . S
C125 N122 1.377 . S
C125 C138 1.479 . S
C126 C123 1.480 . S
C126 C127 1.383 . S
C126 C131 1.385 1_554 S
C127 H108 0.947 . S
C127 C126 1.383 . S
C127 C128 1.388 . S
C128 H109 0.946 . S
C128 C127 1.388 . S
C128 C129 1.384 . S
C129 C128 1.384 . S
C129 C130 1.377 1_554 S
C130 H110 0.953 . S
C130 C129 1.377 1_556 S
C130 C131 1.369 . S
C131 H111 0.945 . S
C131 C126 1.385 1_556 S
C131 C130 1.369 . S
C132 C124 1.457 . S
C132 C133 1.372 . S
C132 C137 1.364 . S
C133 H112 0.952 . S
C133 C132 1.372 . S
C133 C134 1.389 . S
C134 H113 0.949 . S
C134 C133 1.389 . S
C134 C135 1.387 . S
C135 C134 1.387 . S
C135 C136 1.372 . S
C136 H114 0.950 . S
C136 C135 1.372 . S
C136 C137 1.379 . S
C137 H115 0.948 . S
C137 C132 1.364 . S
C137 C136 1.379 . S
C138 C107 1.383 . S
C138 C125 1.479 . S
C138 C139 1.398 . S
C139 C104 1.382 . S
C139 H116 0.951 . S
C139 C138 1.398 . S
C140 C141 1.384 . S
C140 H153 0.947 . S
C140 C175 1.382 . S
C141 C140 1.384 . S
C141 C142 1.378 . S
C142 C141 1.378 . S
C142 C143 1.378 . S
C142 H154 0.952 . S
C143 C142 1.378 . S
C143 H155 0.950 . S
C143 C174 1.383 . S
H144 C163 0.947 . S
H145 C164 0.946 . S
H146 C166 0.953 . S
H147 C167 0.945 . S
H148 C169 0.952 . S
H149 C170 0.949 . S
H150 C172 0.950 . S
H151 C173 0.948 . S
H152 C175 0.951 . S
H153 C140 0.947 . S
H154 C142 0.952 . S
H155 C143 0.950 . S
N156 C159 1.382 . S
N156 C161 1.363 . S
N157 C159 1.371 1_556 S
N157 C160 1.372 . S
N158 C160 1.361 1_554 S
N158 C161 1.377 . S
C159 N156 1.382 . S
C159 N157 1.371 1_554 S
C159 C162 1.480 . S
C160 N157 1.372 . S
C160 N158 1.361 1_556 S
C160 C168 1.457 . S
C161 N156 1.363 . S
C161 N158 1.377 . S
C161 C174 1.479 . S
C162 C159 1.480 . S
C162 C163 1.383 . S
C162 C167 1.385 1_554 S
C163 H144 0.947 . S
C163 C162 1.383 . S
C163 C164 1.388 . S
C164 H145 0.946 . S
C164 C163 1.388 . S
C164 C165 1.384 . S
C165 C164 1.384 . S
C165 C166 1.377 1_554 S
C166 H146 0.953 . S
C166 C165 1.377 1_556 S
C166 C167 1.369 . S
C167 H147 0.945 . S
C167 C162 1.385 1_556 S
C167 C166 1.369 . S
C168 C160 1.457 . S
C168 C169 1.372 . S
C168 C173 1.364 . S
C169 H148 0.952 . S
C169 C168 1.372 . S
C169 C170 1.389 . S
C170 H149 0.949 . S
C170 C169 1.389 . S
C170 C171 1.387 . S
C171 C170 1.387 . S
C171 C172 1.372 . S
C172 H150 0.950 . S
C172 C171 1.372 . S
C172 C173 1.379 . S
C173 H151 0.948 . S
C173 C168 1.364 . S
C173 C172 1.379 . S
C174 C143 1.383 . S
C174 C161 1.479 . S
C174 C175 1.398 . S
C175 C140 1.382 . S
C175 H152 0.951 . S
C175 C174 1.398 . S
C176 C177 1.384 . S
C176 H189 0.947 . S
C176 C211 1.382 . S
C177 C176 1.384 . S
C177 C178 1.378 . S
C178 C177 1.378 . S
C178 C179 1.378 . S
C178 H190 0.952 . S
C179 C178 1.378 . S
C179 H191 0.950 . S
C179 C210 1.383 . S
H180 C199 0.947 . S
H181 C200 0.946 . S
H182 C202 0.953 . S
H183 C203 0.945 . S
H184 C205 0.952 . S
H185 C206 0.949 . S
H186 C208 0.950 . S
H187 C209 0.948 . S
H188 C211 0.951 . S
H189 C176 0.947 . S
H190 C178 0.952 . S
H191 C179 0.950 . S
N192 C195 1.382 1_556 S
N192 C197 1.363 . S
N193 C195 1.371 . S
N193 C196 1.372 . S
N194 C196 1.361 . S
N194 C197 1.377 1_554 S
C195 N192 1.382 1_554 S
C195 N193 1.371 . S
C195 C198 1.480 . S
C196 N193 1.372 . S
C196 N194 1.361 . S
C196 C204 1.457 . S
C197 N192 1.363 . S
C197 N194 1.377 1_556 S
C197 C210 1.479 . S
C198 C195 1.480 . S
C198 C199 1.383 1_554 S
C198 C203 1.385 . S
C199 H180 0.947 . S
C199 C198 1.383 1_556 S
C199 C200 1.388 . S
C200 H181 0.946 . S
C200 C199 1.388 . S
C200 C201 1.384 1_556 S
C201 C200 1.384 1_554 S
C201 C202 1.377 . S
C202 H182 0.953 . S
C202 C201 1.377 . S
C202 C203 1.369 . S
C203 H183 0.945 . S
C203 C198 1.385 . S
C203 C202 1.369 . S
C204 C196 1.457 . S
C204 C205 1.372 . S
C204 C209 1.364 . S
C205 H184 0.952 . S
C205 C204 1.372 . S
C205 C206 1.389 . S
C206 H185 0.949 . S
C206 C205 1.389 . S
C206 C207 1.387 . S
C207 C206 1.387 . S
C207 C208 1.372 . S
C208 H186 0.950 . S
C208 C207 1.372 . S
C208 C209 1.379 . S
C209 H187 0.948 . S
C209 C204 1.364 . S
C209 C208 1.379 . S
C210 C179 1.383 . S
C210 C197 1.479 . S
C210 C211 1.398 . S
C211 C176 1.382 . S
C211 H188 0.951 . S
C211 C210 1.398 . S
C212 C213 1.384 . S
C212 H225 0.947 . S
C212 C247 1.382 . S
C213 C212 1.384 . S
C213 C214 1.378 . S
C214 C213 1.378 . S
C214 C215 1.378 . S
C214 H226 0.952 . S
C215 C214 1.378 . S
C215 H227 0.950 . S
C215 C246 1.383 . S
H216 C235 0.947 . S
H217 C236 0.946 . S
H218 C238 0.953 . S
H219 C239 0.945 . S
H220 C241 0.952 . S
H221 C242 0.949 . S
H222 C244 0.950 . S
H223 C245 0.948 . S
H224 C247 0.951 . S
H225 C212 0.947 . S
H226 C214 0.952 . S
H227 C215 0.950 . S
N228 C231 1.382 1_556 S
N228 C233 1.363 . S
N229 C231 1.371 . S
N229 C232 1.372 . S
N230 C232 1.361 . S
N230 C233 1.377 1_554 S
C231 N228 1.382 1_554 S
C231 N229 1.371 . S
C231 C234 1.480 . S
C232 N229 1.372 . S
C232 N230 1.361 . S
C232 C240 1.457 . S
C233 N228 1.363 . S
C233 N230 1.377 1_556 S
C233 C246 1.479 . S
C234 C231 1.480 . S
C234 C235 1.383 1_554 S
C234 C239 1.385 . S
C235 H216 0.947 . S
C235 C234 1.383 1_556 S
C235 C236 1.388 . S
C236 H217 0.946 . S
C236 C235 1.388 . S
C236 C237 1.384 1_556 S
C237 C236 1.384 1_554 S
C237 C238 1.377 . S
C238 H218 0.953 . S
C238 C237 1.377 . S
C238 C239 1.369 . S
C239 H219 0.945 . S
C239 C234 1.385 . S
C239 C238 1.369 . S
C240 C232 1.457 . S
C240 C241 1.372 . S
C240 C245 1.364 . S
C241 H220 0.952 . S
C241 C240 1.372 . S
C241 C242 1.389 . S
C242 H221 0.949 . S
C242 C241 1.389 . S
C242 C243 1.387 . S
C243 C242 1.387 . S
C243 C244 1.372 . S
C244 H222 0.950 . S
C244 C243 1.372 . S
C244 C245 1.379 . S
C245 H223 0.948 . S
C245 C240 1.364 . S
C245 C244 1.379 . S
C246 C215 1.383 . S
C246 C233 1.479 . S
C246 C247 1.398 . S
C247 C212 1.382 . S
C247 H224 0.951 . S
C247 C246 1.398 . S
C248 C249 1.384 . S
C248 H261 0.947 . S
C248 C283 1.382 . S
C249 C248 1.384 . S
C249 C250 1.378 . S
C250 C249 1.378 . S
C250 C251 1.378 . S
C250 H262 0.952 . S
C251 C250 1.378 . S
C251 H263 0.950 . S
C251 C282 1.383 . S
H252 C271 0.947 . S
H253 C272 0.946 . S
H254 C274 0.953 . S
H255 C275 0.945 . S
H256 C277 0.952 . S
H257 C278 0.949 . S
H258 C280 0.950 . S
H259 C281 0.948 . S
H260 C283 0.951 . S
H261 C248 0.947 . S
H262 C250 0.952 . S
H263 C251 0.950 . S
N264 C267 1.382 . S
N264 C269 1.363 . S
N265 C267 1.371 . S
N265 C268 1.372 . S
N266 C268 1.361 . S
N266 C269 1.377 . S
C267 N264 1.382 . S
C267 N265 1.371 . S
C267 C270 1.480 . S
C268 N265 1.372 . S
C268 N266 1.361 . S
C268 C276 1.457 . S
C269 N264 1.363 . S
C269 N266 1.377 . S
C269 C282 1.479 . S
C270 C267 1.480 . S
C270 C271 1.383 . S
C270 C275 1.385 . S
C271 H252 0.947 . S
C271 C270 1.383 . S
C271 C272 1.388 . S
C272 H253 0.946 . S
C272 C271 1.388 . S
C272 C273 1.384 . S
C273 C272 1.384 . S
C273 C274 1.377 . S
C274 H254 0.953 . S
C274 C273 1.377 . S
C274 C275 1.369 . S
C275 H255 0.945 . S
C275 C270 1.385 . S
C275 C274 1.369 . S
C276 C268 1.457 . S
C276 C277 1.372 . S
C276 C281 1.364 . S
C277 H256 0.952 . S
C277 C276 1.372 . S
C277 C278 1.389 . S
C278 H257 0.949 . S
C278 C277 1.389 . S
C278 C279 1.387 . S
C279 C278 1.387 . S
C279 C280 1.372 . S
C280 H258 0.950 . S
C280 C279 1.372 . S
C280 C281 1.379 . S
C281 H259 0.948 . S
C281 C276 1.364 . S
C281 C280 1.379 . S
C282 C251 1.383 . S
C282 C269 1.479 . S
C282 C283 1.398 . S
C283 C248 1.382 . S
C283 H260 0.951 . S
C283 C282 1.398 . S
C284 C285 1.384 . S
C284 H297 0.947 . S
C284 C319 1.382 . S
C285 C284 1.384 . S
C285 C286 1.378 . S
C286 C285 1.378 . S
C286 C287 1.378 . S
C286 H298 0.952 . S
C287 C286 1.378 . S
C287 H299 0.950 . S
C287 C318 1.383 . S
H288 C307 0.947 . S
H289 C308 0.946 . S
H290 C310 0.953 . S
H291 C311 0.945 . S
H292 C313 0.952 . S
H293 C314 0.949 . S
H294 C316 0.950 . S
H295 C317 0.948 . S
H296 C319 0.951 . S
H297 C284 0.947 . S
H298 C286 0.952 . S
H299 C287 0.950 . S
N300 C303 1.382 . S
N300 C305 1.363 . S
N301 C303 1.371 . S
N301 C304 1.372 . S
N302 C304 1.361 . S
N302 C305 1.377 . S
C303 N300 1.382 . S
C303 N301 1.371 . S
C303 C306 1.480 . S
C304 N301 1.372 . S
C304 N302 1.361 . S
C304 C312 1.457 . S
C305 N300 1.363 . S
C305 N302 1.377 . S
C305 C318 1.479 . S
C306 C303 1.480 . S
C306 C307 1.383 . S
C306 C311 1.385 . S
C307 H288 0.947 . S
C307 C306 1.383 . S
C307 C308 1.388 . S
C308 H289 0.946 . S
C308 C307 1.388 . S
C308 C309 1.384 . S
C309 C308 1.384 . S
C309 C310 1.377 . S
C310 H290 0.953 . S
C310 C309 1.377 . S
C310 C311 1.369 . S
C311 H291 0.945 . S
C311 C306 1.385 . S
C311 C310 1.369 . S
C312 C304 1.457 . S
C312 C313 1.372 . S
C312 C317 1.364 . S
C313 H292 0.952 . S
C313 C312 1.372 . S
C313 C314 1.389 . S
C314 H293 0.949 . S
C314 C313 1.389 . S
C314 C315 1.387 . S
C315 C314 1.387 . S
C315 C316 1.372 . S
C316 H294 0.950 . S
C316 C315 1.372 . S
C316 C317 1.379 . S
C317 H295 0.948 . S
C317 C312 1.364 . S
C317 C316 1.379 . S
C318 C287 1.383 . S
C318 C305 1.479 . S
C318 C319 1.398 . S
C319 C284 1.382 . S
C319 H296 0.951 . S
C319 C318 1.398 . S
C320 C321 1.384 . S
C320 H333 0.947 . S
C320 C355 1.382 . S
C321 C320 1.384 . S
C321 C322 1.378 . S
C322 C321 1.378 . S
C322 C323 1.378 . S
C322 H334 0.952 . S
C323 C322 1.378 . S
C323 H335 0.950 . S
C323 C354 1.383 . S
H324 C343 0.947 . S
H325 C344 0.946 . S
H326 C346 0.953 . S
H327 C347 0.945 . S
H328 C349 0.952 . S
H329 C350 0.949 . S
H330 C352 0.950 . S
H331 C353 0.948 . S
H332 C355 0.951 . S
H333 C320 0.947 . S
H334 C322 0.952 . S
H335 C323 0.950 . S
N336 C339 1.382 . S
N336 C341 1.363 . S
N337 C339 1.371 . S
N337 C340 1.372 . S
N338 C340 1.361 . S
N338 C341 1.377 . S
C339 N336 1.382 . S
C339 N337 1.371 . S
C339 C342 1.480 . S
C340 N337 1.372 . S
C340 N338 1.361 . S
C340 C348 1.457 . S
C341 N336 1.363 . S
C341 N338 1.377 . S
C341 C354 1.479 . S
C342 C339 1.480 . S
C342 C343 1.383 . S
C342 C347 1.385 . S
C343 H324 0.947 . S
C343 C342 1.383 . S
C343 C344 1.388 . S
C344 H325 0.946 . S
C344 C343 1.388 . S
C344 C345 1.384 . S
C345 C344 1.384 . S
C345 C346 1.377 . S
C346 H326 0.953 . S
C346 C345 1.377 . S
C346 C347 1.369 . S
C347 H327 0.945 . S
C347 C342 1.385 . S
C347 C346 1.369 . S
C348 C340 1.457 . S
C348 C349 1.372 . S
C348 C353 1.364 . S
C349 H328 0.952 . S
C349 C348 1.372 . S
C349 C350 1.389 . S
C350 H329 0.949 . S
C350 C349 1.389 . S
C350 C351 1.387 . S
C351 C350 1.387 . S
C351 C352 1.372 . S
C352 H330 0.950 . S
C352 C351 1.372 . S
C352 C353 1.379 . S
C353 H331 0.948 . S
C353 C348 1.364 . S
C353 C352 1.379 . S
C354 C323 1.383 . S
C354 C341 1.479 . S
C354 C355 1.398 . S
C355 C320 1.382 . S
C355 H332 0.951 . S
C355 C354 1.398 . S
C356 C357 1.384 . S
C356 H369 0.947 . S
C356 C391 1.382 . S
C357 C356 1.384 . S
C357 C358 1.378 . S
C358 C357 1.378 . S
C358 C359 1.378 . S
C358 H370 0.952 . S
C359 C358 1.378 . S
C359 H371 0.950 . S
C359 C390 1.383 . S
H360 C379 0.947 . S
H361 C380 0.946 . S
H362 C382 0.953 . S
H363 C383 0.945 . S
H364 C385 0.952 . S
H365 C386 0.949 . S
H366 C388 0.950 . S
H367 C389 0.948 . S
H368 C391 0.951 . S
H369 C356 0.947 . S
H370 C358 0.952 . S
H371 C359 0.950 . S
N372 C375 1.382 . S
N372 C377 1.363 . S
N373 C375 1.371 . S
N373 C376 1.372 . S
N374 C376 1.361 . S
N374 C377 1.377 . S
C375 N372 1.382 . S
C375 N373 1.371 . S
C375 C378 1.480 . S
C376 N373 1.372 . S
C376 N374 1.361 . S
C376 C384 1.457 . S
C377 N372 1.363 . S
C377 N374 1.377 . S
C377 C390 1.479 . S
C378 C375 1.480 . S
C378 C379 1.383 . S
C378 C383 1.385 . S
C379 H360 0.947 . S
C379 C378 1.383 . S
C379 C380 1.388 . S
C380 H361 0.946 . S
C380 C379 1.388 . S
C380 C381 1.384 . S
C381 C380 1.384 . S
C381 C382 1.377 . S
C382 H362 0.953 . S
C382 C381 1.377 . S
C382 C383 1.369 . S
C383 H363 0.945 . S
C383 C378 1.385 . S
C383 C382 1.369 . S
C384 C376 1.457 . S
C384 C385 1.372 . S
C384 C389 1.364 . S
C385 H364 0.952 . S
C385 C384 1.372 . S
C385 C386 1.389 . S
C386 H365 0.949 . S
C386 C385 1.389 . S
C386 C387 1.387 . S
C387 C386 1.387 . S
C387 C388 1.372 . S
C388 H366 0.950 . S
C388 C387 1.372 . S
C388 C389 1.379 . S
C389 H367 0.948 . S
C389 C384 1.364 . S
C389 C388 1.379 . S
C390 C359 1.383 . S
C390 C377 1.479 . S
C390 C391 1.398 . S
C391 C356 1.382 . S
C391 H368 0.951 . S
C391 C390 1.398 . S
H392 C400 0.929 1_556 S
H393 C402 0.930 1_556 S
H394 C404 0.930 . S
H395 C407 0.929 . S
H396 C410 0.930 . S
H397 C412 0.960 . S
H398 C412 0.960 . S
H399 C412 0.960 1_554 S
C400 H392 0.929 1_554 S
C400 C401 1.377 . S
C400 C402 1.384 . S
C401 C400 1.377 . S
C401 C407 1.390 . S
C402 H393 0.930 1_554 S
C402 C400 1.384 . S
C402 C403 1.372 . S
C403 C402 1.372 . S
C403 C404 1.400 . S
C403 C408 1.490 . S
C404 H394 0.930 . S
C404 C403 1.400 . S
C404 C407 1.386 . S
H405 C421 0.930 . S
H406 C422 0.931 . S
C407 H395 0.929 . S
C407 C401 1.390 . S
C407 C404 1.386 . S
C408 C403 1.490 . S
C408 C410 1.395 . S
C408 C411 1.403 . S
H409 C415 0.930 . S
C410 H396 0.930 . S
C410 C408 1.395 . S
C410 C413 1.403 . S
C411 C408 1.403 . S
C411 C412 1.524 1_554 S
C411 C415 1.400 . S
C412 H397 0.960 . S
C412 H398 0.960 . S
C412 H399 0.960 1_556 S
C412 C411 1.524 1_556 S
C413 C410 1.403 . S
C413 C414 1.392 . S
C413 C417 1.495 . S
C414 C413 1.392 . S
C414 C415 1.385 . S
C414 C416 1.478 . S
C415 H409 0.930 . S
C415 C411 1.400 . S
C415 C414 1.385 . S
C416 C414 1.478 . S
C416 C418 1.381 . S
C416 C422 1.383 . S
C417 C413 1.495 . S
C417 H423 0.959 . S
C417 H424 0.961 . S
C417 H425 0.960 . S
C418 C416 1.381 . S
C418 C419 1.394 . S
C418 H426 0.930 1_554 S
C419 C418 1.394 . S
C419 C420 1.383 . S
C419 H427 0.929 1_554 S
C420 C419 1.383 . S
C420 C421 1.377 . S
C421 H405 0.930 . S
C421 C420 1.377 . S
C421 C422 1.379 . S
C422 H406 0.931 . S
C422 C416 1.383 . S
C422 C421 1.379 . S
H423 C417 0.959 . S
H424 C417 0.961 . S
H425 C417 0.960 . S
H426 C418 0.930 1_556 S
H427 C419 0.929 1_556 S
H428 C436 0.929 . S
H429 C438 0.930 . S
H430 C440 0.930 . S
H431 C443 0.929 . S
H432 C446 0.930 . S
H433 C448 0.960 . S
H434 C448 0.960 . S
H435 C448 0.960 . S
C436 H428 0.929 . S
C436 C437 1.377 1_556 S
C436 C438 1.384 . S
C437 C436 1.377 1_554 S
C437 C443 1.390 . S
C438 H429 0.930 . S
C438 C436 1.384 . S
C438 C439 1.372 1_556 S
C439 C438 1.372 1_554 S
C439 C440 1.400 . S
C439 C444 1.490 . S
C440 H430 0.930 . S
C440 C439 1.400 . S
C440 C443 1.386 . S
H441 C457 0.930 . S
H442 C458 0.931 . S
C443 H431 0.929 . S
C443 C437 1.390 . S
C443 C440 1.386 . S
C444 C439 1.490 . S
C444 C446 1.395 . S
C444 C447 1.403 . S
H445 C451 0.930 . S
C446 H432 0.930 . S
C446 C444 1.395 . S
C446 C449 1.403 . S
C447 C444 1.403 . S
C447 C448 1.524 . S
C447 C451 1.400 . S
C448 H433 0.960 . S
C448 H434 0.960 . S
C448 H435 0.960 . S
C448 C447 1.524 . S
C449 C446 1.403 . S
C449 C450 1.392 . S
C449 C453 1.495 . S
C450 C449 1.392 . S
C450 C451 1.385 . S
C450 C452 1.478 . S
C451 H445 0.930 . S
C451 C447 1.400 . S
C451 C450 1.385 . S
C452 C450 1.478 . S
C452 C454 1.381 1_554 S
C452 C458 1.383 . S
C453 C449 1.495 . S
C453 H459 0.959 . S
C453 H460 0.961 . S
C453 H461 0.960 1_554 S
C454 C452 1.381 1_556 S
C454 C455 1.394 . S
C454 H462 0.930 . S
C455 C454 1.394 . S
C455 C456 1.383 1_556 S
C455 H463 0.929 . S
C456 C455 1.383 1_554 S
C456 C457 1.377 . S
C457 H441 0.930 . S
C457 C456 1.377 . S
C457 C458 1.379 . S
C458 H442 0.931 . S
C458 C452 1.383 . S
C458 C457 1.379 . S
H459 C453 0.959 . S
H460 C453 0.961 . S
H461 C453 0.960 1_556 S
H462 C454 0.930 . S
H463 C455 0.929 . S
H464 C472 0.929 . S
H465 C474 0.930 . S
H466 C476 0.930 . S
H467 C479 0.929 . S
H468 C482 0.930 . S
H469 C484 0.960 . S
H470 C484 0.960 1_556 S
H471 C484 0.960 . S
C472 H464 0.929 . S
C472 C473 1.377 1_556 S
C472 C474 1.384 . S
C473 C472 1.377 1_554 S
C473 C479 1.390 . S
C474 H465 0.930 . S
C474 C472 1.384 . S
C474 C475 1.372 1_556 S
C475 C474 1.372 1_554 S
C475 C476 1.400 . S
C475 C480 1.490 . S
C476 H466 0.930 . S
C476 C475 1.400 . S
C476 C479 1.386 . S
H477 C493 0.930 . S
H478 C494 0.931 . S
C479 H467 0.929 . S
C479 C473 1.390 . S
C479 C476 1.386 . S
C480 C475 1.490 . S
C480 C482 1.395 . S
C480 C483 1.403 . S
H481 C487 0.930 . S
C482 H468 0.930 . S
C482 C480 1.395 . S
C482 C485 1.403 . S
C483 C480 1.403 . S
C483 C484 1.524 . S
C483 C487 1.400 . S
C484 H469 0.960 . S
C484 H470 0.960 1_554 S
C484 H471 0.960 . S
C484 C483 1.524 . S
C485 C482 1.403 . S
C485 C486 1.392 . S
C485 C489 1.495 . S
C486 C485 1.392 . S
C486 C487 1.385 . S
C486 C488 1.478 . S
C487 H481 0.930 . S
C487 C483 1.400 . S
C487 C486 1.385 . S
C488 C486 1.478 . S
C488 C490 1.381 1_554 S
C488 C494 1.383 . S
C489 C485 1.495 . S
C489 H495 0.959 . S
C489 H496 0.961 . S
C489 H497 0.960 . S
C490 C488 1.381 1_556 S
C490 C491 1.394 . S
C490 H498 0.930 . S
C491 C490 1.394 . S
C491 C492 1.383 1_556 S
C491 H499 0.929 . S
C492 C491 1.383 1_554 S
C492 C493 1.377 . S
C493 H477 0.930 . S
C493 C492 1.377 . S
C493 C494 1.379 . S
C494 H478 0.931 . S
C494 C488 1.383 . S
C494 C493 1.379 . S
H495 C489 0.959 . S
H496 C489 0.961 . S
H497 C489 0.960 . S
H498 C490 0.930 . S
H499 C491 0.929 . S
H500 C508 0.929 . S
H501 C510 0.930 . S
H502 C512 0.930 . S
H503 C515 0.929 . S
H504 C518 0.930 . S
H505 C520 0.960 . S
H506 C520 0.960 . S
H507 C520 0.960 . S
C508 H500 0.929 . S
C508 C509 1.377 . S
C508 C510 1.384 . S
C509 C508 1.377 . S
C509 C515 1.390 1_554 S
C510 H501 0.930 . S
C510 C508 1.384 . S
C510 C511 1.372 . S
C511 C510 1.372 . S
C511 C512 1.400 1_554 S
C511 C516 1.490 . S
C512 H502 0.930 . S
C512 C511 1.400 1_556 S
C512 C515 1.386 . S
H513 C529 0.935 . S
H514 C530 0.931 1_556 S
C515 H503 0.929 . S
C515 C509 1.390 1_556 S
C515 C512 1.386 . S
C516 C511 1.490 . S
C516 C518 1.395 . S
C516 C519 1.403 . S
H517 C523 0.930 1_556 S
C518 H504 0.930 . S
C518 C516 1.395 . S
C518 C521 1.403 . S
C519 C516 1.403 . S
C519 C520 1.524 1_554 S
C519 C523 1.400 . S
C520 H505 0.960 . S
C520 H506 0.960 . S
C520 H507 0.960 . S
C520 C519 1.524 1_556 S
C521 C518 1.403 . S
C521 C522 1.392 . S
C521 C525 1.495 . S
C522 C521 1.392 . S
C522 C523 1.385 . S
C522 C524 1.478 . S
C523 H517 0.930 1_554 S
C523 C519 1.400 . S
C523 C522 1.385 . S
C524 C522 1.478 . S
C524 C526 1.381 . S
C524 C530 1.383 . S
C525 C521 1.495 . S
C525 H531 0.959 . S
C525 H532 0.961 . S
C525 H533 0.960 . S
C526 C524 1.381 . S
C526 C527 1.394 . S
C526 H534 0.930 . S
C527 C526 1.394 . S
C527 C528 1.383 . S
C527 H535 0.929 . S
C528 C527 1.383 . S
C528 C529 1.371 1_554 S
C529 H513 0.935 . S
C529 C528 1.371 1_556 S
C529 C530 1.379 1_556 S
C530 H514 0.931 1_554 S
C530 C524 1.383 . S
C530 C529 1.379 1_554 S
H531 C525 0.959 . S
H532 C525 0.961 . S
H533 C525 0.960 . S
H534 C526 0.930 . S
H535 C527 0.929 . S
H536 C544 0.929 . S
H537 C546 0.930 . S
H538 C548 0.930 . S
H539 C551 0.929 . S
H540 C554 0.930 . S
H541 C556 0.960 . S
H542 C556 0.960 . S
H543 C556 0.960 . S
C544 H536 0.929 . S
C544 C545 1.377 . S
C544 C546 1.384 . S
C545 C544 1.377 . S
C545 C551 1.390 . S
C546 H537 0.930 . S
C546 C544 1.384 . S
C546 C547 1.372 . S
C547 C546 1.372 . S
C547 C548 1.400 . S
C547 C552 1.490 . S
C548 H538 0.930 . S
C548 C547 1.400 . S
C548 C551 1.386 . S
H549 C565 0.930 . S
H550 C566 0.931 . S
C551 H539 0.929 . S
C551 C545 1.390 . S
C551 C548 1.386 . S
C552 C547 1.490 . S
C552 C554 1.395 . S
C552 C555 1.403 . S
H553 C559 0.930 . S
C554 H540 0.930 . S
C554 C552 1.395 . S
C554 C557 1.403 . S
C555 C552 1.403 . S
C555 C556 1.524 . S
C555 C559 1.400 . S
C556 H541 0.960 . S
C556 H542 0.960 . S
C556 H543 0.960 . S
C556 C555 1.524 . S
C557 C554 1.403 . S
C557 C558 1.392 . S
C557 C561 1.495 . S
C558 C557 1.392 . S
C558 C559 1.385 . S
C558 C560 1.478 . S
C559 H553 0.930 . S
C559 C555 1.400 . S
C559 C558 1.385 . S
C560 C558 1.478 . S
C560 C562 1.381 . S
C560 C566 1.383 . S
C561 C557 1.495 . S
C561 H567 0.959 . S
C561 H568 0.961 . S
C561 H569 0.960 . S
C562 C560 1.381 . S
C562 C563 1.394 . S
C562 H570 0.930 . S
C563 C562 1.394 . S
C563 C564 1.383 . S
C563 H571 0.929 . S
C564 C563 1.383 . S
C564 C565 1.377 . S
C565 H549 0.930 . S
C565 C564 1.377 . S
C565 C566 1.379 . S
C566 H550 0.931 . S
C566 C560 1.383 . S
C566 C565 1.379 . S
H567 C561 0.959 . S
H568 C561 0.961 . S
H569 C561 0.960 . S
H570 C562 0.930 . S
H571 C563 0.929 . S
H572 C580 0.929 . S
H573 C582 0.930 . S
H574 C584 0.930 . S
H575 C587 0.929 . S
H576 C590 0.930 . S
H577 C592 0.960 . S
H578 C592 0.960 . S
H579 C592 0.960 . S
C580 H572 0.929 . S
C580 C581 1.377 . S
C580 C582 1.384 . S
C581 C580 1.377 . S
C581 C587 1.390 . S
C582 H573 0.930 . S
C582 C580 1.384 . S
C582 C583 1.372 . S
C583 C582 1.372 . S
C583 C584 1.400 . S
C583 C588 1.490 . S
C584 H574 0.930 . S
C584 C583 1.400 . S
C584 C587 1.386 . S
H585 C601 0.930 . S
H586 C602 0.931 . S
C587 H575 0.929 . S
C587 C581 1.390 . S
C587 C584 1.386 . S
C588 C583 1.490 . S
C588 C590 1.395 . S
C588 C591 1.403 . S
H589 C595 0.930 . S
C590 H576 0.930 . S
C590 C588 1.395 . S
C590 C593 1.403 . S
C591 C588 1.403 . S
C591 C592 1.524 . S
C591 C595 1.400 . S
C592 H577 0.960 . S
C592 H578 0.960 . S
C592 H579 0.960 . S
C592 C591 1.524 . S
C593 C590 1.403 . S
C593 C594 1.392 . S
C593 C597 1.495 . S
C594 C593 1.392 . S
C594 C595 1.385 . S
C594 C596 1.478 . S
C595 H589 0.930 . S
C595 C591 1.400 . S
C595 C594 1.385 . S
C596 C594 1.478 . S
C596 C598 1.381 . S
C596 C602 1.383 . S
C597 C593 1.495 . S
C597 H603 0.959 . S
C597 H604 0.961 . S
C597 H605 0.960 . S
C598 C596 1.381 . S
C598 C599 1.394 . S
C598 H606 0.930 . S
C599 C598 1.394 . S
C599 C600 1.383 . S
C599 H607 0.929 . S
C600 C599 1.383 . S
C600 C601 1.377 . S
C601 H585 0.930 . S
C601 C600 1.377 . S
C601 C602 1.379 . S
C602 H586 0.931 . S
C602 C596 1.383 . S
C602 C601 1.379 . S
H603 C597 0.959 . S
H604 C597 0.961 . S
H605 C597 0.960 . S
H606 C598 0.930 . S
H607 C599 0.929 . S
H608 C616 0.929 . S
H609 C618 0.930 . S
H610 C620 0.930 . S
H611 C623 0.929 . S
H612 C626 0.930 . S
H613 C628 0.960 . S
H614 C628 0.960 . S
H615 C628 0.960 . S
C616 H608 0.929 . S
C616 C617 1.377 . S
C616 C618 1.384 . S
C617 C616 1.377 . S
C617 C623 1.390 . S
C618 H609 0.930 . S
C618 C616 1.384 . S
C618 C619 1.372 . S
C619 C618 1.372 . S
C619 C620 1.400 . S
C619 C624 1.490 . S
C620 H610 0.930 . S
C620 C619 1.400 . S
C620 C623 1.386 . S
H621 C637 0.930 . S
H622 C638 0.931 . S
C623 H611 0.929 . S
C623 C617 1.390 . S
C623 C620 1.386 . S
C624 C619 1.490 . S
C624 C626 1.395 . S
C624 C627 1.403 . S
H625 C631 0.930 . S
C626 H612 0.930 . S
C626 C624 1.395 . S
C626 C629 1.403 . S
C627 C624 1.403 . S
C627 C628 1.524 . S
C627 C631 1.400 . S
C628 H613 0.960 . S
C628 H614 0.960 . S
C628 H615 0.960 . S
C628 C627 1.524 . S
C629 C626 1.403 . S
C629 C630 1.392 . S
C629 C633 1.495 . S
C630 C629 1.392 . S
C630 C631 1.385 . S
C630 C632 1.478 . S
C631 H625 0.930 . S
C631 C627 1.400 . S
C631 C630 1.385 . S
C632 C630 1.478 . S
C632 C634 1.381 . S
C632 C638 1.383 . S
C633 C629 1.495 . S
C633 H639 0.959 . S
C633 H640 0.961 . S
C633 H641 0.960 . S
C634 C632 1.381 . S
C634 C635 1.394 . S
C634 H642 0.930 . S
C635 C634 1.394 . S
C635 C636 1.383 . S
C635 H643 0.929 . S
C636 C635 1.383 . S
C636 C637 1.377 . S
C637 H621 0.930 . S
C637 C636 1.377 . S
C637 C638 1.379 . S
C638 H622 0.931 . S
C638 C632 1.383 . S
C638 C637 1.379 . S
H639 C633 0.959 . S
H640 C633 0.961 . S
H641 C633 0.960 . S
H642 C634 0.930 . S
H643 C635 0.929 . S
H644 C652 0.929 . S
H645 C654 0.930 . S
H646 C656 0.930 . S
H647 C659 0.929 . S
H648 C662 0.930 . S
H649 C664 0.960 . S
H650 C664 0.960 . S
H651 C664 0.960 . S
C652 H644 0.929 . S
C652 C653 1.377 . S
C652 C654 1.384 . S
C653 C652 1.377 . S
C653 C659 1.390 . S
C654 H645 0.930 . S
C654 C652 1.384 . S
C654 C655 1.372 . S
C655 C654 1.372 . S
C655 C656 1.400 . S
C655 C660 1.490 . S
C656 H646 0.930 . S
C656 C655 1.400 . S
C656 C659 1.386 . S
H657 C673 0.930 . S
H658 C674 0.931 . S
C659 H647 0.929 . S
C659 C653 1.390 . S
C659 C656 1.386 . S
C660 C655 1.490 . S
C660 C662 1.395 . S
C660 C663 1.403 . S
H661 C667 0.930 . S
C662 H648 0.930 . S
C662 C660 1.395 . S
C662 C665 1.403 . S
C663 C660 1.403 . S
C663 C664 1.524 . S
C663 C667 1.400 . S
C664 H649 0.960 . S
C664 H650 0.960 . S
C664 H651 0.960 . S
C664 C663 1.524 . S
C665 C662 1.403 . S
C665 C666 1.392 . S
C665 C669 1.495 . S
C666 C665 1.392 . S
C666 C667 1.385 . S
C666 C668 1.478 . S
C667 H661 0.930 . S
C667 C663 1.400 . S
C667 C666 1.385 . S
C668 C666 1.478 . S
C668 C670 1.381 . S
C668 C674 1.383 . S
C669 C665 1.495 . S
C669 H675 0.959 . S
C669 H676 0.961 . S
C669 H677 0.960 . S
C670 C668 1.381 . S
C670 C671 1.394 . S
C670 H678 0.930 . S
C671 C670 1.394 . S
C671 C672 1.383 . S
C671 H679 0.929 . S
C672 C671 1.383 . S
C672 C673 1.377 . S
C673 H657 0.930 . S
C673 C672 1.377 . S
C673 C674 1.379 . S
C674 H658 0.931 . S
C674 C668 1.383 . S
C674 C673 1.379 . S
H675 C669 0.959 . S
H676 C669 0.961 . S
H677 C669 0.960 . S
H678 C670 0.930 . S
H679 C671 0.929 . S
H680 C688 0.929 . S
H681 C690 0.930 . S
H682 C692 0.930 . S
H683 C695 0.929 1_655 S
H684 C698 0.930 . S
H685 C700 0.960 . S
H686 C700 0.960 . S
H687 C700 0.960 . S
C688 H680 0.929 . S
C688 C689 1.377 . S
C688 C690 1.384 . S
C689 C688 1.377 . S
C689 C695 1.390 . S
C690 H681 0.930 . S
C690 C688 1.384 . S
C690 C691 1.372 . S
C691 C690 1.372 . S
C691 C692 1.400 . S
C691 C696 1.490 . S
C692 H682 0.930 . S
C692 C691 1.400 . S
C692 C695 1.386 . S
H693 C709 0.930 . S
H694 C710 0.931 . S
C695 H683 0.929 1_455 S
C695 C689 1.390 . S
C695 C692 1.386 . S
C696 C691 1.490 . S
C696 C698 1.395 . S
C696 C699 1.403 . S
H697 C703 0.930 . S
C698 H684 0.930 . S
C698 C696 1.395 . S
C698 C701 1.403 . S
C699 C696 1.403 . S
C699 C700 1.524 . S
C699 C703 1.400 . S
C700 H685 0.960 . S
C700 H686 0.960 . S
C700 H687 0.960 . S
C700 C699 1.524 . S
C701 C698 1.403 . S
C701 C702 1.392 . S
C701 C705 1.495 . S
C702 C701 1.392 . S
C702 C703 1.385 . S
C702 C704 1.478 . S
C703 H697 0.930 . S
C703 C699 1.400 . S
C703 C702 1.385 . S
C704 C702 1.478 . S
C704 C706 1.381 . S
C704 C710 1.383 . S
C705 C701 1.495 . S
C705 H711 0.959 . S
C705 H712 0.961 . S
C705 H713 0.960 . S
C706 C704 1.381 . S
C706 C707 1.394 . S
C706 H714 0.930 . S
C707 C706 1.394 . S
C707 C708 1.383 . S
C707 H715 0.929 . S
C708 C707 1.383 . S
C708 C709 1.377 . S
C709 H693 0.930 . S
C709 C708 1.377 . S
C709 C710 1.379 . S
C710 H694 0.931 . S
C710 C704 1.383 . S
C710 C709 1.379 . S
H711 C705 0.959 . S
H712 C705 0.961 . S
H713 C705 0.960 . S
H714 C706 0.930 . S
H715 C707 0.929 . S
H716 C724 0.929 1_565 S
H717 C726 0.930 . S
H718 C728 0.930 . S
H719 C731 0.929 . S
H720 C734 0.930 . S
H721 C736 0.960 . S
H722 C736 0.960 . S
H723 C736 0.960 . S
C724 H716 0.929 1_545 S
C724 C725 1.377 . S
C724 C726 1.384 . S
C725 C724 1.377 . S
C725 C731 1.390 . S
C726 H717 0.930 . S
C726 C724 1.384 . S
C726 C727 1.372 . S
C727 C726 1.372 . S
C727 C728 1.400 . S
C727 C732 1.490 . S
C728 H718 0.930 . S
C728 C727 1.400 . S
C728 C731 1.386 . S
H729 C745 0.930 . S
H730 C746 0.931 . S
C731 H719 0.929 . S
C731 C725 1.390 . S
C731 C728 1.386 . S
C732 C727 1.490 . S
C732 C734 1.395 . S
C732 C735 1.403 . S
H733 C739 0.930 . S
C734 H720 0.930 . S
C734 C732 1.395 . S
C734 C737 1.403 . S
C735 C732 1.403 . S
C735 C736 1.524 . S
C735 C739 1.400 . S
C736 H721 0.960 . S
C736 H722 0.960 . S
C736 H723 0.960 . S
C736 C735 1.524 . S
C737 C734 1.403 . S
C737 C738 1.392 . S
C737 C741 1.495 . S
C738 C737 1.392 . S
C738 C739 1.385 . S
C738 C740 1.478 . S
C739 H733 0.930 . S
C739 C735 1.400 . S
C739 C738 1.385 . S
C740 C738 1.478 . S
C740 C742 1.381 . S
C740 C746 1.383 . S
C741 C737 1.495 . S
C741 H747 0.959 . S
C741 H748 0.961 . S
C741 H749 0.960 . S
C742 C740 1.381 . S
C742 C743 1.394 . S
C742 H750 0.930 . S
C743 C742 1.394 . S
C743 C744 1.383 . S
C743 H751 0.929 . S
C744 C743 1.383 . S
C744 C745 1.377 . S
C745 H729 0.930 . S
C745 C744 1.377 . S
C745 C746 1.379 . S
C746 H730 0.931 . S
C746 C740 1.383 . S
C746 C745 1.379 . S
H747 C741 0.959 . S
H748 C741 0.961 . S
H749 C741 0.960 . S
H750 C742 0.930 . S
H751 C743 0.929 . S
H752 C760 0.924 1_455 S
H753 C762 0.930 . S
H754 C764 0.930 . S
H755 C767 0.929 . S
H756 C770 0.930 . S
H757 C772 0.960 . S
H758 C772 0.960 . S
H759 C772 0.960 . S
C760 H752 0.924 1_655 S
C760 C761 1.377 . S
C760 C762 1.384 . S
C761 C760 1.377 . S
C761 C767 1.390 . S
C762 H753 0.930 . S
C762 C760 1.384 . S
C762 C763 1.372 . S
C763 C762 1.372 . S
C763 C764 1.400 . S
C763 C768 1.490 . S
C764 H754 0.930 . S
C764 C763 1.400 . S
C764 C767 1.386 . S
H765 C781 0.930 . S
H766 C782 0.931 . S
C767 H755 0.929 . S
C767 C761 1.390 . S
C767 C764 1.386 . S
C768 C763 1.490 . S
C768 C770 1.395 . S
C768 C771 1.403 . S
H769 C775 0.930 . S
C770 H756 0.930 . S
C770 C768 1.395 . S
C770 C773 1.403 . S
C771 C768 1.403 . S
C771 C772 1.524 . S
C771 C775 1.400 . S
C772 H757 0.960 . S
C772 H758 0.960 . S
C772 H759 0.960 . S
C772 C771 1.524 . S
C773 C770 1.403 . S
C773 C774 1.392 . S
C773 C777 1.495 . S
C774 C773 1.392 . S
C774 C775 1.385 . S
C774 C776 1.478 . S
C775 H769 0.930 . S
C775 C771 1.400 . S
C775 C774 1.385 . S
C776 C774 1.478 . S
C776 C778 1.381 . S
C776 C782 1.383 . S
C777 C773 1.495 . S
C777 H783 0.959 1_655 S
C777 H784 0.961 . S
C777 H785 0.963 . S
C778 C776 1.381 . S
C778 C779 1.394 . S
C778 H786 0.930 . S
C779 C778 1.394 . S
C779 C780 1.383 . S
C779 H787 0.929 . S
C780 C779 1.383 . S
C780 C781 1.377 . S
C781 H765 0.930 . S
C781 C780 1.377 . S
C781 C782 1.379 . S
C782 H766 0.931 . S
C782 C776 1.383 . S
C782 C781 1.379 . S
H783 C777 0.959 1_455 S
H784 C777 0.961 . S
H785 C777 0.963 . S
H786 C778 0.930 . S
H787 C779 0.929 . S
H788 C796 0.929 . S
H789 C798 0.930 . S
H790 C800 0.930 . S
H791 C803 0.929 . S
H792 C806 0.930 . S
H793 C808 0.960 . S
H794 C808 0.960 . S
H795 C808 0.960 . S
C796 H788 0.929 . S
C796 C797 1.377 . S
C796 C798 1.384 . S
C797 C796 1.377 . S
C797 C803 1.390 . S
C798 H789 0.930 . S
C798 C796 1.384 . S
C798 C799 1.372 . S
C799 C798 1.372 . S
C799 C800 1.400 . S
C799 C804 1.490 . S
C800 H790 0.930 . S
C800 C799 1.400 . S
C800 C803 1.386 . S
H801 C817 0.930 . S
H802 C818 0.931 . S
C803 H791 0.929 . S
C803 C797 1.390 . S
C803 C800 1.386 . S
C804 C799 1.490 . S
C804 C806 1.395 . S
C804 C807 1.403 . S
H805 C811 0.930 . S
C806 H792 0.930 . S
C806 C804 1.395 . S
C806 C809 1.403 . S
C807 C804 1.403 . S
C807 C808 1.524 . S
C807 C811 1.400 . S
C808 H793 0.960 . S
C808 H794 0.960 . S
C808 H795 0.960 . S
C808 C807 1.524 . S
C809 C806 1.403 . S
C809 C810 1.392 . S
C809 C813 1.495 . S
C810 C809 1.392 . S
C810 C811 1.385 . S
C810 C812 1.478 . S
C811 H805 0.930 . S
C811 C807 1.400 . S
C811 C810 1.385 . S
C812 C810 1.478 . S
C812 C814 1.381 . S
C812 C818 1.383 . S
C813 C809 1.495 . S
C813 H819 0.959 . S
C813 H820 0.961 . S
C813 H821 0.960 . S
C814 C812 1.381 . S
C814 C815 1.394 . S
C814 H822 0.930 . S
C815 C814 1.394 . S
C815 C816 1.383 . S
C815 H823 0.929 . S
C816 C815 1.383 . S
C816 C817 1.377 . S
C817 H801 0.930 . S
C817 C816 1.377 . S
C817 C818 1.379 . S
C818 H802 0.931 . S
C818 C812 1.383 . S
C818 C817 1.379 . S
H819 C813 0.959 . S
H820 C813 0.961 . S
H821 C813 0.960 . S
H822 C814 0.930 . S
H823 C815 0.929 . S
H824 C832 0.913 1_545 S
H825 C834 0.930 . S
H826 C836 0.930 . S
H827 C839 0.929 . S
H828 C842 0.930 . S
H829 C844 0.960 . S
H830 C844 0.960 . S
H831 C844 0.960 . S
C832 H824 0.913 1_565 S
C832 C833 1.377 . S
C832 C834 1.384 . S
C833 C832 1.377 . S
C833 C839 1.390 . S
C834 H825 0.930 . S
C834 C832 1.384 . S
C834 C835 1.372 . S
C835 C834 1.372 . S
C835 C836 1.400 . S
C835 C840 1.490 . S
C836 H826 0.930 . S
C836 C835 1.400 . S
C836 C839 1.386 . S
H837 C853 0.930 . S
H838 C854 0.931 . S
C839 H827 0.929 . S
C839 C833 1.390 . S
C839 C836 1.386 . S
C840 C835 1.490 . S
C840 C842 1.395 . S
C840 C843 1.403 . S
H841 C847 0.930 . S
C842 H828 0.930 . S
C842 C840 1.395 . S
C842 C845 1.403 . S
C843 C840 1.403 . S
C843 C844 1.524 . S
C843 C847 1.400 . S
C844 H829 0.960 . S
C844 H830 0.960 . S
C844 H831 0.960 . S
C844 C843 1.524 . S
C845 C842 1.403 . S
C845 C846 1.392 . S
C845 C849 1.495 . S
C846 C845 1.392 . S
C846 C847 1.385 . S
C846 C848 1.478 . S
C847 H841 0.930 . S
C847 C843 1.400 . S
C847 C846 1.385 . S
C848 C846 1.478 . S
C848 C850 1.381 . S
C848 C854 1.383 . S
C849 C845 1.495 . S
C849 H855 0.959 1_565 S
C849 H856 0.961 . S
C849 H857 0.959 . S
C850 C848 1.381 . S
C850 C851 1.394 . S
C850 H858 0.930 . S
C851 C850 1.394 . S
C851 C852 1.383 . S
C851 H859 0.929 . S
C852 C851 1.383 . S
C852 C853 1.377 . S
C853 H837 0.930 . S
C853 C852 1.377 . S
C853 C854 1.379 . S
C854 H838 0.931 . S
C854 C848 1.383 . S
C854 C853 1.379 . S
H855 C849 0.959 1_545 S
H856 C849 0.961 . S
H857 C849 0.959 . S
H858 C850 0.930 . S
H859 C851 0.929 . S
H860 C868 0.900 1_655 S
H861 C870 0.930 . S
H862 C872 0.930 . S
H863 C875 0.929 . S
H864 C878 0.930 . S
H865 C880 0.960 . S
H866 C880 0.960 . S
H867 C880 0.960 . S
C868 H860 0.900 1_455 S
C868 C869 1.377 . S
C868 C870 1.384 . S
C869 C868 1.377 . S
C869 C875 1.390 . S
C870 H861 0.930 . S
C870 C868 1.384 . S
C870 C871 1.372 . S
C871 C870 1.372 . S
C871 C872 1.400 . S
C871 C876 1.490 . S
C872 H862 0.930 . S
C872 C871 1.400 . S
C872 C875 1.386 . S
H873 C889 0.930 . S
H874 C890 0.931 . S
C875 H863 0.929 . S
C875 C869 1.390 . S
C875 C872 1.386 . S
C876 C871 1.490 . S
C876 C878 1.395 . S
C876 C879 1.403 . S
H877 C883 0.930 . S
C878 H864 0.930 . S
C878 C876 1.395 . S
C878 C881 1.403 . S
C879 C876 1.403 . S
C879 C880 1.524 . S
C879 C883 1.400 . S
C880 H865 0.960 . S
C880 H866 0.960 . S
C880 H867 0.960 . S
C880 C879 1.524 . S
C881 C878 1.403 . S
C881 C882 1.392 . S
C881 C885 1.495 . S
C882 C881 1.392 . S
C882 C883 1.385 . S
C882 C884 1.478 . S
C883 H877 0.930 . S
C883 C879 1.400 . S
C883 C882 1.385 . S
C884 C882 1.478 . S
C884 C886 1.381 . S
C884 C890 1.383 . S
C885 C881 1.495 . S
C885 H891 0.959 1_455 S
C885 H892 0.961 . S
C885 H893 0.960 . S
C886 C884 1.381 . S
C886 C887 1.394 . S
C886 H894 0.930 . S
C887 C886 1.394 . S
C887 C888 1.383 . S
C887 H895 0.929 . S
C888 C887 1.383 . S
C888 C889 1.377 . S
C889 H873 0.930 . S
C889 C888 1.377 . S
C889 C890 1.379 . S
C890 H874 0.931 . S
C890 C884 1.383 . S
C890 C889 1.379 . S
H891 C885 0.959 1_655 S
H892 C885 0.961 . S
H893 C885 0.960 . S
H894 C886 0.930 . S
H895 C887 0.929 . S
H896 C904 0.929 . S
H897 C906 0.930 . S
H898 C908 0.930 . S
H899 C911 0.941 . S
H900 C914 0.930 . S
H901 C916 0.960 . S
H902 C916 0.960 . S
H903 C916 0.960 . S
C904 H896 0.929 . S
C904 C905 1.377 . S
C904 C906 1.384 . S
C905 C904 1.377 . S
C905 C911 1.390 . S
C906 H897 0.930 . S
C906 C904 1.384 . S
C906 C907 1.372 . S
C907 C906 1.372 . S
C907 C908 1.400 . S
C907 C912 1.490 . S
C908 H898 0.930 . S
C908 C907 1.400 . S
C908 C911 1.386 . S
H909 C925 0.930 . S
H910 C926 0.931 . S
C911 H899 0.941 . S
C911 C905 1.390 . S
C911 C908 1.386 . S
C912 C907 1.490 . S
C912 C914 1.395 . S
C912 C915 1.403 . S
H913 C919 0.930 . S
C914 H900 0.930 . S
C914 C912 1.395 . S
C914 C917 1.403 . S
C915 C912 1.403 . S
C915 C916 1.524 . S
C915 C919 1.400 . S
C916 H901 0.960 . S
C916 H902 0.960 . S
C916 H903 0.960 . S
C916 C915 1.524 . S
C917 C914 1.403 . S
C917 C918 1.392 . S
C917 C921 1.495 . S
C918 C917 1.392 . S
C918 C919 1.385 . S
C918 C920 1.478 . S
C919 H913 0.930 . S
C919 C915 1.400 . S
C919 C918 1.385 . S
C920 C918 1.478 . S
C920 C922 1.381 . S
C920 C926 1.383 . S
C921 C917 1.495 . S
C921 H927 0.959 . S
C921 H928 0.961 . S
C921 H929 0.960 . S
C922 C920 1.381 . S
C922 C923 1.394 . S
C922 H930 0.930 . S
C923 C922 1.394 . S
C923 C924 1.383 . S
C923 H931 0.929 . S
C924 C923 1.383 . S
C924 C925 1.377 . S
C925 H909 0.930 . S
C925 C924 1.377 . S
C925 C926 1.379 . S
C926 H910 0.931 . S
C926 C920 1.383 . S
C926 C925 1.379 . S
H927 C921 0.959 . S
H928 C921 0.961 . S
H929 C921 0.960 . S
H930 C922 0.930 . S
H931 C923 0.929 . S
H932 C940 0.929 . S
H933 C942 0.930 . S
H934 C944 0.930 . S
H935 C947 0.929 . S
H936 C950 0.930 . S
H937 C952 0.949 1_455 S
H938 C952 0.949 1_455 S
H939 C952 0.961 . S
C940 H932 0.929 . S
C940 C941 1.377 . S
C940 C942 1.384 . S
C941 C940 1.377 . S
C941 C947 1.390 . S
C942 H933 0.930 . S
C942 C940 1.384 . S
C942 C943 1.372 . S
C943 C942 1.372 . S
C943 C944 1.400 . S
C943 C948 1.490 . S
C944 H934 0.930 . S
C944 C943 1.400 . S
C944 C947 1.386 . S
H945 C961 0.930 . S
H946 C962 0.931 . S
C947 H935 0.929 . S
C947 C941 1.390 . S
C947 C944 1.386 . S
C948 C943 1.490 . S
C948 C950 1.395 . S
C948 C951 1.403 . S
H949 C955 0.930 . S
C950 H936 0.930 . S
C950 C948 1.395 . S
C950 C953 1.403 . S
C951 C948 1.403 . S
C951 C952 1.545 . S
C951 C955 1.400 . S
C952 H937 0.949 1_655 S
C952 H938 0.949 1_655 S
C952 H939 0.961 . S
C952 C951 1.545 . S
C953 C950 1.403 . S
C953 C954 1.392 . S
C953 C957 1.495 . S
C954 C953 1.392 . S
C954 C955 1.385 . S
C954 C956 1.478 . S
C955 H949 0.930 . S
C955 C951 1.400 . S
C955 C954 1.385 . S
C956 C954 1.478 . S
C956 C958 1.381 . S
C956 C962 1.383 . S
C957 C953 1.495 . S
C957 H963 0.959 . S
C957 H964 0.961 . S
C957 H965 0.960 . S
C958 C956 1.381 . S
C958 C959 1.394 . S
C958 H966 0.930 . S
C959 C958 1.394 . S
C959 C960 1.383 . S
C959 H967 0.929 . S
C960 C959 1.383 . S
C960 C961 1.377 . S
C961 H945 0.930 . S
C961 C960 1.377 . S
C961 C962 1.379 . S
C962 H946 0.931 . S
C962 C956 1.383 . S
C962 C961 1.379 . S
H963 C957 0.959 . S
H964 C957 0.961 . S
H965 C957 0.960 . S
H966 C958 0.930 . S
H967 C959 0.929 . S
H968 C976 0.929 . S
H969 C978 0.930 . S
H970 C980 0.930 . S
H971 C983 0.929 . S
H972 C986 0.930 . S
H973 C988 0.960 . S
H974 C988 0.960 . S
H975 C988 0.960 . S
C976 H968 0.929 . S
C976 C977 1.377 . S
C976 C978 1.384 . S
C977 C976 1.377 . S
C977 C983 1.390 . S
C978 H969 0.930 . S
C978 C976 1.384 . S
C978 C979 1.372 . S
C979 C978 1.372 . S
C979 C980 1.400 . S
C979 C984 1.490 . S
C980 H970 0.930 . S
C980 C979 1.400 . S
C980 C983 1.386 . S
H981 C997 0.930 . S
H982 C998 0.931 . S
C983 H971 0.929 . S
C983 C977 1.390 . S
C983 C980 1.386 . S
C984 C979 1.490 . S
C984 C986 1.395 . S
C984 C987 1.403 . S
H985 C991 0.930 . S
C986 H972 0.930 . S
C986 C984 1.395 . S
C986 C989 1.403 . S
C987 C984 1.403 . S
C987 C988 1.524 . S
C987 C991 1.400 . S
C988 H973 0.960 . S
C988 H974 0.960 . S
C988 H975 0.960 . S
C988 C987 1.524 . S
C989 C986 1.403 . S
C989 C990 1.392 . S
C989 C993 1.495 . S
C990 C989 1.392 . S
C990 C991 1.385 . S
C990 C992 1.478 . S
C991 H985 0.930 . S
C991 C987 1.400 . S
C991 C990 1.385 . S
C992 C990 1.478 . S
C992 C994 1.381 . S
C992 C998 1.383 . S
C993 C989 1.495 . S
C993 H999 0.959 . S
C993 H1000 0.961 . S
C993 H1001 0.960 . S
C994 C992 1.381 . S
C994 C995 1.394 . S
C994 H1002 0.930 . S
C995 C994 1.394 . S
C995 C996 1.383 . S
C995 H1003 0.929 . S
C996 C995 1.383 . S
C996 C997 1.377 . S
C997 H981 0.930 . S
C997 C996 1.377 . S
C997 C998 1.379 . S
C998 H982 0.931 . S
C998 C992 1.383 . S
C998 C997 1.379 . S
H999 C993 0.959 . S
H1000 C993 0.961 . S
H1001 C993 0.960 . S
H1002 C994 0.930 . S
H1003 C995 0.929 . S
H1004 C1012 0.929 . S
H1005 C1014 0.930 . S
H1006 C1016 0.930 . S
H1007 C1019 0.929 . S
H1008 C1022 0.930 . S
H1009 C1024 0.960 . S
H1010 C1024 0.960 . S
H1011 C1024 0.960 . S
C1012 H1004 0.929 . S
C1012 C1013 1.377 . S
C1012 C1014 1.384 . S
C1013 C1012 1.377 . S
C1013 C1019 1.390 . S
C1014 H1005 0.930 . S
C1014 C1012 1.384 . S
C1014 C1015 1.372 . S
C1015 C1014 1.372 . S
C1015 C1016 1.400 . S
C1015 C1020 1.490 . S
C1016 H1006 0.930 . S
C1016 C1015 1.400 . S
C1016 C1019 1.386 . S
H1017 C1033 0.930 . S
H1018 C1034 0.931 . S
C1019 H1007 0.929 . S
C1019 C1013 1.390 . S
C1019 C1016 1.386 . S
C1020 C1015 1.490 . S
C1020 C1022 1.395 . S
C1020 C1023 1.403 . S
H1021 C1027 0.930 . S
C1022 H1008 0.930 . S
C1022 C1020 1.395 . S
C1022 C1025 1.403 . S
C1023 C1020 1.403 . S
C1023 C1024 1.524 . S
C1023 C1027 1.400 . S
C1024 H1009 0.960 . S
C1024 H1010 0.960 . S
C1024 H1011 0.960 . S
C1024 C1023 1.524 . S
C1025 C1022 1.403 . S
C1025 C1026 1.392 . S
C1025 C1029 1.495 . S
C1026 C1025 1.392 . S
C1026 C1027 1.385 . S
C1026 C1028 1.478 . S
C1027 H1021 0.930 . S
C1027 C1023 1.400 . S
C1027 C1026 1.385 . S
C1028 C1026 1.478 . S
C1028 C1030 1.381 . S
C1028 C1034 1.383 . S
C1029 C1025 1.495 . S
C1029 H1035 0.959 . S
C1029 H1036 0.961 . S
C1029 H1037 0.960 . S
C1030 C1028 1.381 . S
C1030 C1031 1.394 . S
C1030 H1038 0.930 . S
C1031 C1030 1.394 . S
C1031 C1032 1.383 . S
C1031 H1039 0.929 . S
C1032 C1031 1.383 . S
C1032 C1033 1.377 . S
C1033 H1017 0.930 . S
C1033 C1032 1.377 . S
C1033 C1034 1.379 . S
C1034 H1018 0.931 . S
C1034 C1028 1.383 . S
C1034 C1033 1.379 . S
H1035 C1029 0.959 . S
H1036 C1029 0.961 . S
H1037 C1029 0.960 . S
H1038 C1030 0.930 . S
H1039 C1031 0.929 . S
H1040 C1048 0.929 . S
H1041 C1050 0.930 . S
H1042 C1052 0.930 . S
H1043 C1055 0.929 . S
H1044 C1058 0.930 . S
H1045 C1060 0.960 . S
H1046 C1060 0.960 . S
H1047 C1060 0.960 . S
C1048 H1040 0.929 . S
C1048 C1049 1.377 . S
C1048 C1050 1.384 . S
C1049 C1048 1.377 . S
C1049 C1055 1.390 . S
C1050 H1041 0.930 . S
C1050 C1048 1.384 . S
C1050 C1051 1.372 . S
C1051 C1050 1.372 . S
C1051 C1052 1.400 . S
C1051 C1056 1.490 . S
C1052 H1042 0.930 . S
C1052 C1051 1.400 . S
C1052 C1055 1.386 . S
H1053 C1069 0.930 . S
H1054 C1070 0.931 . S
C1055 H1043 0.929 . S
C1055 C1049 1.390 . S
C1055 C1052 1.386 . S
C1056 C1051 1.490 . S
C1056 C1058 1.395 . S
C1056 C1059 1.403 . S
H1057 C1063 0.930 . S
C1058 H1044 0.930 . S
C1058 C1056 1.395 . S
C1058 C1061 1.403 . S
C1059 C1056 1.403 . S
C1059 C1060 1.524 . S
C1059 C1063 1.400 . S
C1060 H1045 0.960 . S
C1060 H1046 0.960 . S
C1060 H1047 0.960 . S
C1060 C1059 1.524 . S
C1061 C1058 1.403 . S
C1061 C1062 1.392 . S
C1061 C1065 1.495 . S
C1062 C1061 1.392 . S
C1062 C1063 1.385 . S
C1062 C1064 1.478 . S
C1063 H1057 0.930 . S
C1063 C1059 1.400 . S
C1063 C1062 1.385 . S
C1064 C1062 1.478 . S
C1064 C1066 1.381 . S
C1064 C1070 1.383 . S
C1065 C1061 1.495 . S
C1065 H1071 0.959 . S
C1065 H1072 0.961 . S
C1065 H1073 0.960 . S
C1066 C1064 1.381 . S
C1066 C1067 1.394 . S
C1066 H1074 0.930 . S
C1067 C1066 1.394 . S
C1067 C1068 1.383 . S
C1067 H1075 0.929 . S
C1068 C1067 1.383 . S
C1068 C1069 1.377 . S
C1069 H1053 0.930 . S
C1069 C1068 1.377 . S
C1069 C1070 1.379 . S
C1070 H1054 0.931 . S
C1070 C1064 1.383 . S
C1070 C1069 1.379 . S
H1071 C1065 0.959 . S
H1072 C1065 0.961 . S
H1073 C1065 0.960 . S
H1074 C1066 0.930 . S
H1075 C1067 0.929 . S
H1076 C1084 0.929 . S
H1077 C1086 0.930 . S
H1078 C1088 0.930 . S
H1079 C1091 0.929 . S
H1080 C1094 0.930 . S
H1081 C1096 0.960 . S
H1082 C1096 0.960 . S
H1083 C1096 0.960 . S
C1084 H1076 0.929 . S
C1084 C1085 1.377 . S
C1084 C1086 1.384 . S
C1085 C1084 1.377 . S
C1085 C1091 1.390 . S
C1086 H1077 0.930 . S
C1086 C1084 1.384 . S
C1086 C1087 1.372 . S
C1087 C1086 1.372 . S
C1087 C1088 1.400 . S
C1087 C1092 1.490 . S
C1088 H1078 0.930 . S
C1088 C1087 1.400 . S
C1088 C1091 1.386 . S
H1089 C1105 0.930 . S
H1090 C1106 0.931 . S
C1091 H1079 0.929 . S
C1091 C1085 1.390 . S
C1091 C1088 1.386 . S
C1092 C1087 1.490 . S
C1092 C1094 1.395 . S
C1092 C1095 1.403 . S
H1093 C1099 0.930 . S
C1094 H1080 0.930 . S
C1094 C1092 1.395 . S
C1094 C1097 1.403 . S
C1095 C1092 1.403 . S
C1095 C1096 1.524 . S
C1095 C1099 1.400 . S
C1096 H1081 0.960 . S
C1096 H1082 0.960 . S
C1096 H1083 0.960 . S
C1096 C1095 1.524 . S
C1097 C1094 1.403 . S
C1097 C1098 1.392 . S
C1097 C1101 1.495 . S
C1098 C1097 1.392 . S
C1098 C1099 1.385 . S
C1098 C1100 1.478 . S
C1099 H1093 0.930 . S
C1099 C1095 1.400 . S
C1099 C1098 1.385 . S
C1100 C1098 1.478 . S
C1100 C1102 1.381 . S
C1100 C1106 1.383 . S
C1101 C1097 1.495 . S
C1101 H1107 0.959 . S
C1101 H1108 0.961 . S
C1101 H1109 0.960 . S
C1102 C1100 1.381 . S
C1102 C1103 1.394 . S
C1102 H1110 0.930 . S
C1103 C1102 1.394 . S
C1103 C1104 1.383 . S
C1103 H1111 0.929 . S
C1104 C1103 1.383 . S
C1104 C1105 1.377 . S
C1105 H1089 0.930 . S
C1105 C1104 1.377 . S
C1105 C1106 1.379 . S
C1106 H1090 0.931 . S
C1106 C1100 1.383 . S
C1106 C1105 1.379 . S
H1107 C1101 0.959 . S
H1108 C1101 0.961 . S
H1109 C1101 0.960 . S
H1110 C1102 0.930 . S
H1111 C1103 0.929 . S
H1112 C1120 0.929 . S
H1113 C1122 0.930 . S
H1114 C1124 0.930 . S
H1115 C1127 0.929 . S
H1116 C1130 0.930 . S
H1117 C1132 0.960 . S
H1118 C1132 0.960 . S
H1119 C1132 0.960 . S
C1120 H1112 0.929 . S
C1120 C1121 1.377 . S
C1120 C1122 1.384 . S
C1121 C1120 1.377 . S
C1121 C1127 1.390 . S
C1122 H1113 0.930 . S
C1122 C1120 1.384 . S
C1122 C1123 1.372 . S
C1123 C1122 1.372 . S
C1123 C1124 1.400 . S
C1123 C1128 1.490 . S
C1124 H1114 0.930 . S
C1124 C1123 1.400 . S
C1124 C1127 1.386 . S
H1125 C1141 0.930 . S
H1126 C1142 0.931 . S
C1127 H1115 0.929 . S
C1127 C1121 1.390 . S
C1127 C1124 1.386 . S
C1128 C1123 1.490 . S
C1128 C1130 1.395 . S
C1128 C1131 1.403 . S
H1129 C1135 0.930 . S
C1130 H1116 0.930 . S
C1130 C1128 1.395 . S
C1130 C1133 1.403 . S
C1131 C1128 1.403 . S
C1131 C1132 1.524 . S
C1131 C1135 1.400 . S
C1132 H1117 0.960 . S
C1132 H1118 0.960 . S
C1132 H1119 0.960 . S
C1132 C1131 1.524 . S
C1133 C1130 1.403 . S
C1133 C1134 1.392 . S
C1133 C1137 1.495 . S
C1134 C1133 1.392 . S
C1134 C1135 1.385 . S
C1134 C1136 1.478 . S
C1135 H1129 0.930 . S
C1135 C1131 1.400 . S
C1135 C1134 1.385 . S
C1136 C1134 1.478 . S
C1136 C1138 1.381 . S
C1136 C1142 1.383 . S
C1137 C1133 1.495 . S
C1137 H1143 0.959 . S
C1137 H1144 0.961 . S
C1137 H1145 0.960 . S
C1138 C1136 1.381 . S
C1138 C1139 1.394 . S
C1138 H1146 0.930 . S
C1139 C1138 1.394 . S
C1139 C1140 1.383 . S
C1139 H1147 0.929 . S
C1140 C1139 1.383 . S
C1140 C1141 1.377 . S
C1141 H1125 0.930 . S
C1141 C1140 1.377 . S
C1141 C1142 1.379 . S
C1142 H1126 0.931 . S
C1142 C1136 1.383 . S
C1142 C1141 1.379 . S
H1143 C1137 0.959 . S
H1144 C1137 0.961 . S
H1145 C1137 0.960 . S
H1146 C1138 0.930 . S
H1147 C1139 0.929 . S
H1148 C1156 0.929 . S
H1149 C1158 0.930 . S
H1150 C1160 0.930 . S
H1151 C1163 0.929 . S
H1152 C1166 0.930 . S
H1153 C1168 0.960 . S
H1154 C1168 0.960 . S
H1155 C1168 0.960 . S
C1156 H1148 0.929 . S
C1156 C1157 1.377 . S
C1156 C1158 1.384 . S
C1157 C1156 1.377 . S
C1157 C1163 1.390 . S
C1158 H1149 0.930 . S
C1158 C1156 1.384 . S
C1158 C1159 1.372 . S
C1159 C1158 1.372 . S
C1159 C1160 1.400 . S
C1159 C1164 1.490 . S
C1160 H1150 0.930 . S
C1160 C1159 1.400 . S
C1160 C1163 1.386 . S
H1161 C1177 0.930 . S
H1162 C1178 0.931 . S
C1163 H1151 0.929 . S
C1163 C1157 1.390 . S
C1163 C1160 1.386 . S
C1164 C1159 1.490 . S
C1164 C1166 1.395 . S
C1164 C1167 1.403 . S
H1165 C1171 0.930 . S
C1166 H1152 0.930 . S
C1166 C1164 1.395 . S
C1166 C1169 1.403 . S
C1167 C1164 1.403 . S
C1167 C1168 1.524 . S
C1167 C1171 1.400 . S
C1168 H1153 0.960 . S
C1168 H1154 0.960 . S
C1168 H1155 0.960 . S
C1168 C1167 1.524 . S
C1169 C1166 1.403 . S
C1169 C1170 1.392 . S
C1169 C1173 1.495 . S
C1170 C1169 1.392 . S
C1170 C1171 1.385 . S
C1170 C1172 1.478 . S
C1171 H1165 0.930 . S
C1171 C1167 1.400 . S
C1171 C1170 1.385 . S
C1172 C1170 1.478 . S
C1172 C1174 1.381 . S
C1172 C1178 1.383 . S
C1173 C1169 1.495 . S
C1173 H1179 0.959 . S
C1173 H1180 0.961 . S
C1173 H1181 0.960 . S
C1174 C1172 1.381 . S
C1174 C1175 1.394 . S
C1174 H1182 0.930 . S
C1175 C1174 1.394 . S
C1175 C1176 1.383 . S
C1175 H1183 0.929 . S
C1176 C1175 1.383 . S
C1176 C1177 1.377 . S
C1177 H1161 0.930 . S
C1177 C1176 1.377 . S
C1177 C1178 1.379 . S
C1178 H1162 0.931 . S
C1178 C1172 1.383 . S
C1178 C1177 1.379 . S
H1179 C1173 0.959 . S
H1180 C1173 0.961 . S
H1181 C1173 0.960 . S
H1182 C1174 0.930 . S
H1183 C1175 0.929 . S
H1184 C1192 0.929 . S
H1185 C1194 0.930 . S
H1186 C1196 0.930 . S
H1187 C1199 0.929 . S
H1188 C1202 0.930 . S
H1189 C1204 0.960 . S
H1190 C1204 0.960 . S
H1191 C1204 0.960 . S
C1192 H1184 0.929 . S
C1192 C1193 1.377 . S
C1192 C1194 1.384 . S
C1193 C1192 1.377 . S
C1193 C1199 1.390 . S
C1194 H1185 0.930 . S
C1194 C1192 1.384 . S
C1194 C1195 1.372 . S
C1195 C1194 1.372 . S
C1195 C1196 1.400 . S
C1195 C1200 1.490 . S
C1196 H1186 0.930 . S
C1196 C1195 1.400 . S
C1196 C1199 1.386 . S
H1197 C1213 0.930 . S
H1198 C1214 0.931 . S
C1199 H1187 0.929 . S
C1199 C1193 1.390 . S
C1199 C1196 1.386 . S
C1200 C1195 1.490 . S
C1200 C1202 1.395 . S
C1200 C1203 1.403 . S
H1201 C1207 0.930 . S
C1202 H1188 0.930 . S
C1202 C1200 1.395 . S
C1202 C1205 1.403 . S
C1203 C1200 1.403 . S
C1203 C1204 1.524 . S
C1203 C1207 1.400 . S
C1204 H1189 0.960 . S
C1204 H1190 0.960 . S
C1204 H1191 0.960 . S
C1204 C1203 1.524 . S
C1205 C1202 1.403 . S
C1205 C1206 1.392 . S
C1205 C1209 1.495 . S
C1206 C1205 1.392 . S
C1206 C1207 1.385 . S
C1206 C1208 1.478 . S
C1207 H1201 0.930 . S
C1207 C1203 1.400 . S
C1207 C1206 1.385 . S
C1208 C1206 1.478 . S
C1208 C1210 1.381 . S
C1208 C1214 1.383 . S
C1209 C1205 1.495 . S
C1209 H1215 0.959 . S
C1209 H1216 0.961 . S
C1209 H1217 0.960 . S
C1210 C1208 1.381 . S
C1210 C1211 1.394 . S
C1210 H1218 0.930 . S
C1211 C1210 1.394 . S
C1211 C1212 1.383 . S
C1211 H1219 0.929 . S
C1212 C1211 1.383 . S
C1212 C1213 1.377 . S
C1213 H1197 0.930 . S
C1213 C1212 1.377 . S
C1213 C1214 1.379 . S
C1214 H1198 0.931 . S
C1214 C1208 1.383 . S
C1214 C1213 1.379 . S
H1215 C1209 0.959 . S
H1216 C1209 0.961 . S
H1217 C1209 0.960 . S
H1218 C1210 0.930 . S
H1219 C1211 0.929 . S
H1220 C1228 0.929 . S
H1221 C1230 0.930 . S
H1222 C1232 0.930 . S
H1223 C1235 0.929 . S
H1224 C1238 0.930 . S
H1225 C1240 0.960 . S
H1226 C1240 0.960 . S
H1227 C1240 0.960 . S
C1228 H1220 0.929 . S
C1228 C1229 1.377 . S
C1228 C1230 1.384 . S
C1229 C1228 1.377 . S
C1229 C1235 1.390 . S
C1230 H1221 0.930 . S
C1230 C1228 1.384 . S
C1230 C1231 1.372 . S
C1231 C1230 1.372 . S
C1231 C1232 1.400 . S
C1231 C1236 1.490 . S
C1232 H1222 0.930 . S
C1232 C1231 1.400 . S
C1232 C1235 1.386 . S
H1233 C1249 0.930 . S
H1234 C1250 0.931 . S
C1235 H1223 0.929 . S
C1235 C1229 1.390 . S
C1235 C1232 1.386 . S
C1236 C1231 1.490 . S
C1236 C1238 1.395 . S
C1236 C1239 1.403 . S
H1237 C1243 0.930 . S
C1238 H1224 0.930 . S
C1238 C1236 1.395 . S
C1238 C1241 1.403 . S
C1239 C1236 1.403 . S
C1239 C1240 1.524 . S
C1239 C1243 1.400 . S
C1240 H1225 0.960 . S
C1240 H1226 0.960 . S
C1240 H1227 0.960 . S
C1240 C1239 1.524 . S
C1241 C1238 1.403 . S
C1241 C1242 1.392 . S
C1241 C1245 1.495 . S
C1242 C1241 1.392 . S
C1242 C1243 1.385 . S
C1242 C1244 1.478 . S
C1243 H1237 0.930 . S
C1243 C1239 1.400 . S
C1243 C1242 1.385 . S
C1244 C1242 1.478 . S
C1244 C1246 1.381 . S
C1244 C1250 1.383 . S
C1245 C1241 1.495 . S
C1245 H1251 0.959 . S
C1245 H1252 0.961 . S
C1245 H1253 0.960 . S
C1246 C1244 1.381 . S
C1246 C1247 1.394 . S
C1246 H1254 0.930 . S
C1247 C1246 1.394 . S
C1247 C1248 1.383 . S
C1247 H1255 0.929 . S
C1248 C1247 1.383 . S
C1248 C1249 1.377 . S
C1249 H1233 0.930 . S
C1249 C1248 1.377 . S
C1249 C1250 1.379 . S
C1250 H1234 0.931 . S
C1250 C1244 1.383 . S
C1250 C1249 1.379 . S
H1251 C1245 0.959 . S
H1252 C1245 0.961 . S
H1253 C1245 0.960 . S
H1254 C1246 0.930 . S
H1255 C1247 0.929 . S
C401 C45 1.633 . S
C420 C129 1.645 . S
C437 C30 1.631 . S
C456 C165 1.647 . S
C473 C39 1.631 . S
C492 C201 1.599 . S
C528 C237 1.628 . S
C509 C34 1.634 . S
C545 C97 1.635 . S
C564 C273 1.661 . S
C600 C309 1.660 . S
C581 C82 1.636 . S
C636 C345 1.596 . S
C617 C91 1.632 . S
C672 C381 1.635 . S
C653 C86 1.635 . S
C708 C321 1.520 . S
C689 C26 1.478 . S
C744 C357 1.490 . S
C725 C36 1.470 . S
C780 C279 1.525 . S
C761 C32 1.473 . S
C816 C315 1.518 . S
C797 C42 1.472 . S
C833 C18 1.566 . S
C852 C285 1.641 . S
C888 C351 1.618 . S
C869 C50 1.568 . S
C905 C4 1.566 . S
C924 C387 1.582 . S
C941 C48 1.555 . S
C960 C249 1.630 . S
C996 C177 1.525 . S
C977 C78 1.476 . S
C1013 C88 1.480 . S
C1032 C213 1.517 . S
C1068 C135 1.541 . S
C1049 C84 1.482 . S
C1104 C171 1.520 . S
C1085 C94 1.475 . S
C1140 C141 1.640 . S
C1121 C70 1.559 . S
C1176 C207 1.574 . S
C1157 C102 1.561 . S
C1193 C56 1.559 . S
C1212 C243 1.599 . S
C1229 C100 1.566 . S
C1248 C105 1.633 . S
