# Generated by pormake.
# Topology pyr, (3,6)-cn, num edge types: 1
# Building blocks:
#     Node 0, Type 0, BuildingBlock: BETDAH_clean_linker_0, # of connection points: 3
#     Node 1, Type 0, BuildingBlock: BETDAH_clean_linker_0, # of connection points: 3
#     Node 2, Type 0, BuildingBlock: BETDAH_clean_linker_0, # of connection points: 3
#     Node 3, Type 0, BuildingBlock: BETDAH_clean_linker_0, # of connection points: 3
#     Node 4, Type 0, BuildingBlock: BETDAH_clean_linker_0, # of connection points: 3
#     Node 5, Type 0, BuildingBlock: BETDAH_clean_linker_0, # of connection points: 3
#     Node 6, Type 0, BuildingBlock: BETDAH_clean_linker_0, # of connection points: 3
#     Node 7, Type 0, BuildingBlock: BETDAH_clean_linker_0, # of connection points: 3
#     Node 8, Type 1, BuildingBlock: CIFDUS_clean_sbu_1, # of connection points: 6
#     Node 9, Type 1, BuildingBlock: CIFDUS_clean_sbu_1, # of connection points: 6
#     Node 10, Type 1, BuildingBlock: CIFDUS_clean_sbu_1, # of connection points: 6
#     Node 11, Type 1, BuildingBlock: CIFDUS_clean_sbu_1, # of connection points: 6
#     Edge 12, Type (0, 1), BuildingBlock: MIFKUJ_clean_linker_0, # of connection points: 2
#     Edge 13, Type (0, 1), BuildingBlock: MIFKUJ_clean_linker_0, # of connection points: 2
#     Edge 14, Type (0, 1), BuildingBlock: MIFKUJ_clean_linker_0, # of connection points: 2
#     Edge 15, Type (0, 1), BuildingBlock: MIFKUJ_clean_linker_0, # of connection points: 2
#     Edge 16, Type (0, 1), BuildingBlock: MIFKUJ_clean_linker_0, # of connection points: 2
#     Edge 17, Type (0, 1), BuildingBlock: MIFKUJ_clean_linker_0, # of connection points: 2
#     Edge 18, Type (0, 1), BuildingBlock: MIFKUJ_clean_linker_0, # of connection points: 2
#     Edge 19, Type (0, 1), BuildingBlock: MIFKUJ_clean_linker_0, # of connection points: 2
#     Edge 20, Type (0, 1), BuildingBlock: MIFKUJ_clean_linker_0, # of connection points: 2
#     Edge 21, Type (0, 1), BuildingBlock: MIFKUJ_clean_linker_0, # of connection points: 2
#     Edge 22, Type (0, 1), BuildingBlock: MIFKUJ_clean_linker_0, # of connection points: 2
#     Edge 23, Type (0, 1), BuildingBlock: MIFKUJ_clean_linker_0, # of connection points: 2
#     Edge 24, Type (0, 1), BuildingBlock: MIFKUJ_clean_linker_0, # of connection points: 2
#     Edge 25, Type (0, 1), BuildingBlock: MIFKUJ_clean_linker_0, # of connection points: 2
#     Edge 26, Type (0, 1), BuildingBlock: MIFKUJ_clean_linker_0, # of connection points: 2
#     Edge 27, Type (0, 1), BuildingBlock: MIFKUJ_clean_linker_0, # of connection points: 2
#     Edge 28, Type (0, 1), BuildingBlock: MIFKUJ_clean_linker_0, # of connection points: 2
#     Edge 29, Type (0, 1), BuildingBlock: MIFKUJ_clean_linker_0, # of connection points: 2
#     Edge 30, Type (0, 1), BuildingBlock: MIFKUJ_clean_linker_0, # of connection points: 2
#     Edge 31, Type (0, 1), BuildingBlock: MIFKUJ_clean_linker_0, # of connection points: 2
#     Edge 32, Type (0, 1), BuildingBlock: MIFKUJ_clean_linker_0, # of connection points: 2
#     Edge 33, Type (0, 1), BuildingBlock: MIFKUJ_clean_linker_0, # of connection points: 2
#     Edge 34, Type (0, 1), BuildingBlock: MIFKUJ_clean_linker_0, # of connection points: 2
#     Edge 35, Type (0, 1), BuildingBlock: MIFKUJ_clean_linker_0, # of connection points: 2
# Relax obj value: 0.081
# Max RMSD: 0.173
# Mean RMSD: 0.138
data_MOF--net-pry--node1-CIFDUS_clean_sbu_1--node2-BETDAH_clean_linker_0--edge1-MIFKUJ_clean_linker_0
_symmetry_space_group_name_H-M    P1
_symmetry_Int_Tables_number       1
_symmetry_cell_setting            triclinic
loop_
_symmetry_equiv_pos_as_xyz
'x, y, z'
_cell_length_a     46.749708
_cell_length_b     45.63602
_cell_length_c     46.825493
_cell_angle_alpha  92.161692
_cell_angle_beta   91.824845
_cell_angle_gamma 99.7395
loop_
_atom_site_label
_atom_site_type_symbol
_atom_site_fract_x
_atom_site_fract_y
_atom_site_fract_z
_atom_type_partial_charge
H0 H 0.2039 0.15576 0.22405 0.0
H1 H 0.20658 0.20083 0.14498 0.0
H2 H 0.14621 0.21853 0.20769 0.0
C3 C 0.19661 0.17204 0.21061 0.0
C4 C 0.17421 0.18711 0.21997 0.0
C5 C 0.20869 0.1766 0.18358 0.0
C6 C 0.1977 0.1966 0.1658 0.0
C7 C 0.17535 0.2117 0.1741 0.0
C8 C 0.16366 0.20713 0.20135 0.0
N9 N 0.16391 0.2287 0.15286 0.0
C10 C 0.15006 0.25345 0.15591 0.0
H11 H 0.40196 0.8711 0.71058 0.0
H12 H 0.36328 0.94983 0.70404 0.0
H13 H 0.35659 0.88726 0.63253 0.0
C14 C 0.38916 0.88445 0.69855 0.0
C15 C 0.38008 0.87576 0.66997 0.0
C16 C 0.3833 0.91122 0.71112 0.0
C17 C 0.36792 0.92907 0.69484 0.0
C18 C 0.35769 0.9202 0.66692 0.0
C19 C 0.36377 0.89357 0.65447 0.0
N20 N 0.34339 0.93979 0.65118 0.0
C21 C 0.3179 0.93098 0.63468 0.0
H22 H 0.71079 0.30406 0.87849 0.0
H23 H 0.6979 0.37208 0.82026 0.0
H24 H 0.63584 0.29137 0.82095 0.0
C25 C 0.69815 0.31196 0.86156 0.0
C26 C 0.67254 0.29374 0.85072 0.0
C27 C 0.7075 0.34041 0.85104 0.0
C28 C 0.69091 0.35044 0.82884 0.0
C29 C 0.6652 0.33235 0.81784 0.0
C30 C 0.65615 0.30452 0.82911 0.0
N31 N 0.64718 0.34115 0.79589 0.0
C32 C 0.65389 0.36541 0.77877 0.0
H33 H 0.84994 0.69947 0.43449 0.0
H34 H 0.92254 0.70612 0.37937 0.0
H35 H 0.84092 0.65252 0.35246 0.0
C36 C 0.85964 0.69337 0.41491 0.0
C37 C 0.84254 0.67371 0.39479 0.0
C38 C 0.88849 0.70578 0.40966 0.0
C39 C 0.90007 0.69783 0.3837 0.0
C40 C 0.883 0.67946 0.36272 0.0
C41 C 0.854 0.66746 0.36819 0.0
N42 N 0.89658 0.67273 0.33714 0.0
C43 C 0.88297 0.66382 0.3106 0.0
H44 H 0.89513 0.85534 0.84008 0.0
H45 H 0.85449 0.86617 0.91986 0.0
H46 H 0.84169 0.92343 0.8519 0.0
C47 C 0.88103 0.86647 0.85297 0.0
C48 C 0.86909 0.89054 0.84188 0.0
C49 C 0.87529 0.85689 0.88088 0.0
C50 C 0.85803 0.87225 0.89793 0.0
C51 C 0.84579 0.89598 0.88769 0.0
C52 C 0.85098 0.90487 0.85955 0.0
N53 N 0.83168 0.91239 0.90778 0.0
C54 C 0.80708 0.92547 0.90318 0.0
H55 H 0.69289 0.15234 0.3826 0.0
H56 H 0.68369 0.19565 0.46435 0.0
H57 H 0.61698 0.19152 0.39875 0.0
C58 C 0.68089 0.16484 0.39662 0.0
C59 C 0.65384 0.1712 0.38693 0.0
C60 C 0.69217 0.17372 0.42447 0.0
C61 C 0.67583 0.18906 0.44265 0.0
C62 C 0.64912 0.19595 0.43329 0.0
C63 C 0.63826 0.18727 0.40539 0.0
N64 N 0.63148 0.20726 0.45359 0.0
C65 C 0.62475 0.23579 0.4535 0.0
H66 H 0.31044 0.79176 0.20508 0.0
H67 H 0.31102 0.70351 0.23348 0.0
H68 H 0.36674 0.77769 0.27634 0.0
C69 C 0.31825 0.7771 0.22008 0.0
C70 C 0.33986 0.78868 0.24112 0.0
C71 C 0.30779 0.74643 0.2171 0.0
C72 C 0.31894 0.72727 0.23553 0.0
C73 C 0.33954 0.73838 0.25728 0.0
C74 C 0.35011 0.76914 0.26008 0.0
N75 N 0.34999 0.71759 0.27491 0.0
C76 C 0.36084 0.72335 0.30291 0.0
H77 H 0.18134 0.38097 0.62439 0.0
H78 H 0.18001 0.42611 0.70698 0.0
H79 H 0.10766 0.36009 0.67684 0.0
C80 C 0.17027 0.38507 0.64375 0.0
C81 C 0.14288 0.36819 0.64795 0.0
C82 C 0.18403 0.40614 0.66483 0.0
C83 C 0.16993 0.40987 0.69065 0.0
C84 C 0.14229 0.39317 0.69487 0.0
C85 C 0.129 0.37274 0.67343 0.0
N86 N 0.12655 0.39645 0.71991 0.0
C87 C 0.1376 0.40986 0.74606 0.0
O88 O 0.96951 0.06067 0.51396 0.0
Mn89 Mn 1.00569 0.04037 0.52445 0.0
O90 O 0.94896 0.03754 0.47303 0.0
Mn91 Mn 0.9787 0.0171 0.46479 0.0
O92 O 0.04162 0.0202 0.53488 0.0
O93 O 0.02128 0.07534 0.55073 0.0
Mn94 Mn 0.03157 0.06384 0.58442 0.0
O95 O 0.98185 0.0181 0.55825 0.0
O96 O 0.05973 0.04047 0.57776 0.0
O97 O 0.02934 0.06277 0.49092 0.0
O98 O 0.01016 0.0403 0.4493 0.0
O99 O 0.03974 0.10494 0.58631 0.0
O100 O 0.99796 0.04415 0.59913 0.0
C101 C 0.98418 0.97847 0.4875 0.0
C102 C 0.94959 0.05658 0.49378 0.0
C103 C 0.06017 0.02263 0.55615 0.0
C104 C 0.02965 0.10242 0.56012 0.0
C105 C 0.98039 0.02362 0.58553 0.0
C106 C 0.02859 0.05979 0.46327 0.0
O107 O 0.99071 0.00544 0.4978 0.0
O108 O 0.9735 0.9761 0.46151 0.0
O109 O 0.48664 0.02065 0.01366 0.0
Mn110 Mn 0.50812 0.03852 0.05239 0.0
O111 O 0.47955 0.97078 0.01587 0.0
Mn112 Mn 0.5046 0.97014 0.04722 0.0
O113 O 0.52933 0.05688 0.09089 0.0
O114 O 0.51789 0.07782 0.0345 0.0
Mn115 Mn 0.50745 0.10641 0.05587 0.0
O116 O 0.46833 0.04913 0.06736 0.0
O117 O 0.52791 0.10605 0.09057 0.0
O118 O 0.54767 0.02751 0.03727 0.0
O119 O 0.54353 0.97776 0.03927 0.0
O120 O 0.52573 0.12436 0.02491 0.0
O121 O 0.46752 0.09692 0.05779 0.0
C122 C 0.49072 0.97965 0.08921 0.0
C123 C 0.4762 0.9943 1.0032 0.0
C124 C 0.53499 0.08342 0.10253 0.0
C125 C 0.52935 0.09768 0.01754 0.0
C126 C 0.45517 0.07183 0.06614 0.0
C127 C 0.55804 1.00308 0.03388 0.0
O128 O 0.49865 0.99928 0.07067 0.0
O129 O 0.49213 0.95268 0.08059 0.0
O130 O 0.55146 0.58363 0.52596 0.0
Mn131 Mn 0.51507 0.56716 0.54899 0.0
O132 O 0.5401 0.56687 0.48015 0.0
Mn133 Mn 0.5031 0.54523 0.48515 0.0
O134 O 0.47852 0.55009 0.57135 0.0
O135 O 0.53997 0.56964 0.58534 0.0
Mn136 Mn 0.52404 0.58883 0.61239 0.0
O137 O 0.50598 0.61042 0.55649 0.0
O138 O 0.48779 0.56563 0.61748 0.0
O139 O 0.52369 0.52364 0.54094 0.0
O140 O 0.5025 0.50741 0.49814 0.0
O141 O 0.55687 0.57866 0.62919 0.0
O142 O 0.52333 0.62678 0.60044 0.0
C143 C 0.47113 0.57246 0.49576 0.0
C144 C 0.55757 0.5814 0.49938 0.0
C145 C 0.47126 0.55114 0.59759 0.0
C146 C 0.55929 0.56562 0.60457 0.0
C147 C 0.51178 0.63104 0.57635 0.0
C148 C 0.51577 0.50295 0.52134 0.0
O149 O 0.49011 0.56498 0.5133 0.0
O150 O 0.47084 0.55948 0.4707 0.0
O151 O 0.97508 0.53021 0.99809 0.0
Mn152 Mn 0.012 0.55497 0.01986 0.0
O153 O 0.97944 0.54215 0.95202 0.0
Mn154 Mn 0.0136 0.56941 0.95674 0.0
O155 O 0.04908 0.57996 0.04084 0.0
O156 O 0.98942 0.55416 0.05645 0.0
Mn157 Mn 0.01214 0.54313 0.08355 0.0
O158 O 0.02718 0.51427 0.02873 0.0
O159 O 0.04458 0.57264 0.08784 0.0
O160 O 0.99678 0.59576 0.01133 0.0
O161 O 0.00983 0.60768 0.96706 0.0
O162 O 0.97945 0.54831 0.10162 0.0
O163 O 0.01841 0.50525 0.0747 0.0
C164 C 0.05311 0.55354 0.96373 0.0
C165 C 0.96584 0.52769 0.9717 0.0
C166 C 0.05788 0.58528 0.06711 0.0
C167 C 0.97139 0.55622 0.07677 0.0
C168 C 0.02668 0.49747 0.05045 0.0
C169 C 0.99959 0.61411 0.99079 0.0
O170 O 0.03468 0.5559 0.98355 0.0
O171 O 0.04613 0.5626 0.93899 0.0
H172 H 0.20253 0.17781 0.27048 0.0
H173 H 0.18161 0.16185 0.31562 0.0
H174 H 0.096 0.16563 0.28065 0.0
H175 H 0.11677 0.18118 0.23507 0.0
H176 H 0.10273 0.18744 0.33664 0.0
H177 H 0.12047 0.09951 0.28438 0.0
H178 H 0.15046 0.06859 0.25843 0.0
H179 H 0.20697 0.07098 0.33291 0.0
H180 H 0.17752 0.10229 0.35919 0.0
H181 H 0.01063 0.08913 0.41931 0.0
H182 H 0.03954 0.11667 0.38362 0.0
H183 H 0.11805 0.10505 0.42944 0.0
H184 H 0.08865 0.07711 0.46572 0.0
H185 H 0.1199 0.09053 0.37206 0.0
H186 H 0.09994 0.17366 0.42629 0.0
H187 H 0.07039 0.20435 0.453 0.0
H188 H 0.01934 0.21182 0.37658 0.0
H189 H 0.04832 0.18074 0.34946 0.0
C190 C 0.17921 0.17519 0.27221 0.0
C191 C 0.16142 0.18049 0.24869 0.0
C192 C 0.16724 0.1661 0.29822 0.0
C193 C 0.13708 0.16198 0.30163 0.0
C194 C 0.11932 0.16852 0.2787 0.0
C195 C 0.13129 0.17757 0.25256 0.0
C196 C 0.12407 0.14986 0.32865 0.0
C197 C 0.1063 0.16613 0.34421 0.0
C198 C 0.1294 0.1225 0.33934 0.0
C199 C 0.14699 0.10351 0.32364 0.0
C200 C 0.13942 0.09363 0.29515 0.0
C201 C 0.1563 0.07601 0.2804 0.0
C202 C 0.18066 0.0679 0.29399 0.0
C203 C 0.18813 0.07732 0.32239 0.0
C204 C 0.17135 0.09499 0.33723 0.0
C205 C 0.03408 0.09297 0.4222 0.0
C206 C 0.04731 0.08107 0.44548 0.0
C207 C 0.05065 0.10881 0.40171 0.0
C208 C 0.08112 0.11323 0.40367 0.0
C209 C 0.09458 0.10206 0.42738 0.0
C210 C 0.07782 0.08636 0.44829 0.0
C211 C 0.09821 0.12789 0.37986 0.0
C212 C 0.11664 0.11205 0.36478 0.0
C213 C 0.09364 0.15574 0.36974 0.0
C214 C 0.07623 0.17468 0.38586 0.0
C215 C 0.08229 0.18166 0.4152 0.0
C216 C 0.06564 0.19915 0.43042 0.0
C217 C 0.04296 0.21 0.4165 0.0
C218 C 0.03692 0.2034 0.38733 0.0
C219 C 0.05348 0.18587 0.372 0.0
H220 H 0.03011 0.22358 0.42829 0.0
H221 H 0.1937 0.05425 0.28253 0.0
H222 H 0.40964 0.96674 0.73108 0.0
H223 H 0.42381 0.98361 0.78052 0.0
H224 H 0.39422 0.89499 0.8084 0.0
H225 H 0.3797 0.878 0.75889 0.0
H226 H 0.37476 0.93797 0.84214 0.0
H227 H 0.46536 0.92055 0.8051 0.0
H228 H 0.50531 0.9258 0.77154 0.0
H229 H 0.52341 0.02004 0.79055 0.0
H230 H 0.48327 0.01541 0.82394 0.0
H231 H 0.44205 0.94423 0.97977 0.0
H232 H 0.42436 0.93433 0.93036 0.0
H233 H 0.46008 0.02441 0.91069 0.0
H234 H 0.47821 0.0345 0.96052 0.0
H235 H 0.47542 0.9846 0.87217 0.0
H236 H 0.38689 1.00194 0.91146 0.0
H237 H 0.34724 0.99686 0.94534 0.0
H238 H 0.32505 0.90362 0.92228 0.0
H239 H 0.36486 0.90804 0.88856 0.0
C240 C 0.40612 0.95082 0.74774 0.0
C241 C 0.39346 0.92101 0.74104 0.0
C242 C 0.4144 0.96047 0.77598 0.0
C243 C 0.41018 0.94057 0.79822 0.0
C244 C 0.39768 0.91076 0.79161 0.0
C245 C 0.3896 0.90102 0.76329 0.0
C246 C 0.41841 0.95098 0.82839 0.0
C247 C 0.39684 0.94786 0.84878 0.0
C248 C 0.44701 0.96482 0.8369 0.0
C249 C 0.47108 0.96767 0.81676 0.0
C250 C 0.47767 0.94243 0.80192 0.0
C251 C 0.50039 0.94529 0.78297 0.0
C252 C 0.51683 0.97325 0.77885 0.0
C253 C 0.51062 0.99841 0.79372 0.0
C254 C 0.4879 0.99568 0.81267 0.0
C255 C 0.44585 0.96218 0.96513 0.0
C256 C 0.46173 0.9902 0.97419 0.0
C257 C 0.43556 0.95647 0.9368 0.0
C258 C 0.44073 0.97862 0.91672 0.0
C259 C 0.45581 0.00695 0.92579 0.0
C260 C 0.46601 0.01276 0.95433 0.0
C261 C 0.43183 0.97134 0.88605 0.0
C262 C 0.45327 0.97499 0.86552 0.0
C263 C 0.40308 0.95807 0.8774 0.0
C264 C 0.37904 0.95529 0.89763 0.0
C265 C 0.37371 0.9803 0.91377 0.0
C266 C 0.35117 0.97755 0.93292 0.0
C267 C 0.33367 0.94992 0.936 0.0
C268 C 0.33864 0.925 0.91989 0.0
C269 C 0.36117 0.92763 0.90072 0.0
H270 H 0.31623 0.94784 0.95084 0.0
H271 H 0.53442 0.97541 0.76418 0.0
H272 H 0.66592 0.35915 0.72333 0.0
H273 H 0.65667 0.39222 0.68523 0.0
H274 H 0.63165 0.45369 0.74819 0.0
H275 H 0.64052 0.4203 0.78617 0.0
H276 H 0.59145 0.44132 0.70663 0.0
H277 H 0.69501 0.47052 0.71164 0.0
H278 H 0.74593 0.46271 0.71149 0.0
H279 H 0.73202 0.42327 0.62639 0.0
H280 H 0.68088 0.4305 0.62618 0.0
H281 H 0.61642 0.57336 0.61883 0.0
H282 H 0.64038 0.5348 0.63882 0.0
H283 H 0.56792 0.46803 0.60894 0.0
H284 H 0.54335 0.50687 0.59024 0.0
H285 H 0.65768 0.48094 0.63113 0.0
H286 H 0.54466 0.42867 0.66468 0.0
H287 H 0.49529 0.44107 0.66615 0.0
H288 H 0.53137 0.53377 0.67927 0.0
H289 H 0.58089 0.52183 0.67833 0.0
C290 C 0.65925 0.38016 0.72899 0.0
C291 C 0.65428 0.38756 0.75753 0.0
C292 C 0.65391 0.399 0.70724 0.0
C293 C 0.6435 0.42552 0.71379 0.0
C294 C 0.63963 0.43335 0.74259 0.0
C295 C 0.64494 0.41448 0.76429 0.0
C296 C 0.63449 0.44391 0.69062 0.0
C297 C 0.60598 0.44984 0.69012 0.0
C298 C 0.65332 0.45511 0.66896 0.0
C299 C 0.68405 0.45078 0.66901 0.0
C300 C 0.70275 0.45996 0.69298 0.0
C301 C 0.73166 0.45569 0.69295 0.0
C302 C 0.74218 0.44243 0.66898 0.0
C303 C 0.72383 0.4335 0.64496 0.0
C304 C 0.69489 0.43771 0.64489 0.0
C305 C 0.60638 0.55028 0.61509 0.0
C306 C 0.5782 0.54304 0.60269 0.0
C307 C 0.62006 0.5282 0.62663 0.0
C308 C 0.60562 0.49861 0.62605 0.0
C309 C 0.57931 0.49081 0.60996 0.0
C310 C 0.56544 0.513 0.59875 0.0
C311 C 0.6147 0.47811 0.6472 0.0
C312 C 0.64312 0.4719 0.64741 0.0
C313 C 0.59603 0.46709 0.66906 0.0
C314 C 0.5664 0.47436 0.67118 0.0
C315 C 0.54201 0.45165 0.66811 0.0
C316 C 0.51402 0.45861 0.66881 0.0
C317 C 0.51019 0.4882 0.67271 0.0
C318 C 0.53435 0.51087 0.6762 0.0
C319 C 0.56237 0.50401 0.67563 0.0
H320 H 0.48851 0.49355 0.67307 0.0
H321 H 0.76457 0.43914 0.66899 0.0
H322 H 0.90536 0.69567 0.26745 0.0
H323 H 0.904 0.6795 0.21703 0.0
H324 H 0.84608 0.59877 0.23528 0.0
H325 H 0.84836 0.61477 0.28618 0.0
H326 H 0.88883 0.58524 0.20856 0.0
H327 H 0.82633 0.65437 0.18997 0.0
H328 H 0.80855 0.70224 0.19158 0.0
H329 H 0.88383 0.74313 0.14857 0.0
H330 H 0.90236 0.69568 0.14714 0.0
H331 H 0.91481 0.53083 0.07663 0.0
H332 H 0.88148 0.55228 0.10701 0.0
H333 H 0.93947 0.63662 0.10998 0.0
H334 H 0.97207 0.61542 0.07858 0.0
H335 H 0.88518 0.64495 0.12256 0.0
H336 H 0.95268 0.58119 0.15711 0.0
H337 H 0.97301 0.53468 0.1586 0.0
H338 H 0.88825 0.48525 0.17214 0.0
H339 H 0.86754 0.53156 0.17116 0.0
C340 C 0.89167 0.67488 0.26047 0.0
C341 C 0.87678 0.65651 0.28045 0.0
C342 C 0.89074 0.66568 0.23157 0.0
C343 C 0.87465 0.63799 0.22201 0.0
C344 C 0.85855 0.62028 0.24197 0.0
C345 C 0.85971 0.62943 0.271 0.0
C346 C 0.87822 0.62586 0.19245 0.0
C347 C 0.88706 0.59804 0.1897 0.0
C348 C 0.87681 0.64271 0.16771 0.0
C349 C 0.86584 0.67142 0.16864 0.0
C350 C 0.83924 0.67362 0.18108 0.0
C351 C 0.82901 0.70069 0.18193 0.0
C352 C 0.84508 0.72572 0.17024 0.0
C353 C 0.87141 0.72373 0.15764 0.0
C354 C 0.88178 0.69673 0.15679 0.0
C355 C 0.9193 0.55453 0.0819 0.0
C356 C 0.94614 0.5714 0.07545 0.0
C357 C 0.90052 0.56666 0.09986 0.0
C358 C 0.90864 0.59568 0.11193 0.0
C359 C 0.93289 0.61402 0.10138 0.0
C360 C 0.95139 0.60198 0.08298 0.0
C361 C 0.89597 0.60471 0.1391 0.0
C362 C 0.88585 0.63194 0.14141 0.0
C363 C 0.89627 0.5875 0.16366 0.0
C364 C 0.90855 0.55967 0.16372 0.0
C365 C 0.9384 0.56035 0.16026 0.0
C366 C 0.94999 0.53407 0.16109 0.0
C367 C 0.9319 0.50701 0.16523 0.0
C368 C 0.90222 0.5062 0.16882 0.0
C369 C 0.89056 0.53245 0.16825 0.0
H370 H 0.94091 0.48669 0.16578 0.0
H371 H 0.8371 0.74665 0.1709 0.0
H372 H 0.25313 0.15828 0.21533 0.0
H373 H 0.29189 0.13316 0.19834 0.0
H374 H 0.25833 0.13451 0.11162 0.0
H375 H 0.2182 0.15703 0.1286 0.0
H376 H 0.27603 0.08616 0.11525 0.0
H377 H 0.32094 0.18593 0.14438 0.0
H378 H 0.33465 0.22989 0.17732 0.0
H379 H 0.37847 0.17866 0.23397 0.0
H380 H 0.36468 0.13428 0.20152 0.0
H381 H 0.40802 0.08854 0.04021 0.0
H382 H 0.36385 0.09854 0.06278 0.0
H383 H 0.3934 0.06703 0.14227 0.0
H384 H 0.43745 0.05641 0.11946 0.0
H385 H 0.37815 0.12594 0.14589 0.0
H386 H 0.33671 0.02741 0.11092 0.0
H387 H 0.32481 0.98637 0.07446 0.0
H388 H 0.27611 0.03937 0.02459 0.0
H389 H 0.28807 0.08091 0.06056 0.0
C390 C 0.25358 0.15282 0.19268 0.0
C391 C 0.23237 0.16034 0.17347 0.0
C392 C 0.27621 0.13878 0.18286 0.0
C393 C 0.27882 0.13244 0.15345 0.0
C394 C 0.25727 0.13921 0.13438 0.0
C395 C 0.23437 0.15267 0.14419 0.0
C396 C 0.3039 0.11911 0.14232 0.0
C397 C 0.29832 0.09517 0.12187 0.0
C398 C 0.33326 0.1301 0.15112 0.0
C399 C 0.34146 0.15671 0.17071 0.0
C400 C 0.3333 0.18399 0.16397 0.0
C401 C 0.34111 0.20898 0.18254 0.0
C402 C 0.35733 0.20704 0.20778 0.0
C403 C 0.36584 0.18011 0.21446 0.0
C404 C 0.35804 0.15503 0.19599 0.0
C405 C 0.40459 0.08276 0.06222 0.0
C406 C 0.42588 0.071 0.07785 0.0
C407 C 0.37941 0.08865 0.07517 0.0
C408 C 0.37518 0.08358 0.10427 0.0
C409 C 0.39605 0.07103 0.11977 0.0
C410 C 0.42103 0.06454 0.10662 0.0
C411 C 0.35012 0.09353 0.1187 0.0
C412 C 0.35577 0.11684 0.13964 0.0
C413 C 0.32093 0.0824 0.10992 0.0
C414 C 0.31349 0.05737 0.08835 0.0
C415 C 0.32365 0.03041 0.09207 0.0
C416 C 0.31686 0.00703 0.07151 0.0
C417 C 0.29976 0.01028 0.04719 0.0
C418 C 0.28936 0.03689 0.04343 0.0
C419 C 0.29611 0.06035 0.06392 0.0
H420 H 0.29454 0.99216 0.03129 0.0
H421 H 0.36337 0.22642 0.22211 0.0
H422 H 0.2658 0.92262 0.65821 0.0
H423 H 0.21926 0.92671 0.63471 0.0
H424 H 0.26079 0.93721 0.55379 0.0
H425 H 0.30764 0.93382 0.57772 0.0
H426 H 0.23072 0.97908 0.56147 0.0
H427 H 0.20802 0.87474 0.56678 0.0
H428 H 0.2037 0.82557 0.58783 0.0
H429 H 0.14426 0.8508 0.64841 0.0
H430 H 0.14854 0.9003 0.62804 0.0
H431 H 0.0891 1.00232 0.51107 0.0
H432 H 0.13056 0.97545 0.5142 0.0
H433 H 0.12309 0.97295 0.60567 0.0
H434 H 0.08244 0.99996 0.60277 0.0
H435 H 0.13487 0.91903 0.57993 0.0
H436 H 0.16881 0.02685 0.58026 0.0
H437 H 0.17298 0.07571 0.5585 0.0
H438 H 0.21115 0.04137 0.48492 0.0
H439 H 0.20683 0.99216 0.50614 0.0
C440 C 0.26473 0.92495 0.63527 0.0
C441 C 0.29 0.92758 0.61962 0.0
C442 C 0.23812 0.92719 0.62178 0.0
C443 C 0.23627 0.93193 0.5923 0.0
C444 C 0.26154 0.93342 0.57648 0.0
C445 C 0.28823 0.9313 0.59007 0.0
C446 C 0.20879 0.93867 0.57904 0.0
C447 C 0.20985 0.96541 0.56484 0.0
C448 C 0.18137 0.9211 0.58347 0.0
C449 C 0.17874 0.89135 0.59593 0.0
C450 C 0.19419 0.86991 0.58473 0.0
C451 C 0.19172 0.84195 0.59652 0.0
C452 C 0.17375 0.83507 0.61946 0.0
C453 C 0.15817 0.85615 0.63063 0.0
C454 C 0.16058 0.88416 0.61893 0.0
C455 C 0.09613 0.99562 0.53172 0.0
C456 C 0.08284 1.00358 0.55671 0.0
C457 C 0.11976 0.98032 0.5335 0.0
C458 C 0.12995 0.97232 0.56021 0.0
C459 C 0.11557 0.97883 0.58486 0.0
C460 C 0.09248 0.99449 0.58317 0.0
C461 C 0.15709 0.95969 0.56344 0.0
C462 C 0.1559 0.93201 0.57584 0.0
C463 C 0.1844 0.9762 0.55719 0.0
C464 C 0.18716 0.00578 0.54458 0.0
C465 C 0.17787 0.02967 0.55934 0.0
C466 C 0.1803 0.05743 0.54713 0.0
C467 C 0.19223 0.06161 0.52029 0.0
C468 C 0.20185 0.03807 0.50566 0.0
C469 C 0.19942 0.01025 0.51777 0.0
H470 H 0.19409 0.08312 0.51088 0.0
H471 H 0.17186 0.81341 0.62856 0.0
H472 H 0.75865 0.32313 0.86759 0.0
H473 H 0.80069 0.35283 0.89273 0.0
H474 H 0.7604 0.43093 0.88749 0.0
H475 H 0.71726 0.40078 0.86379 0.0
H476 H 0.83879 0.39479 0.87874 0.0
H477 H 0.78426 0.48043 0.94336 0.0
H478 H 0.73797 0.48279 0.96648 0.0
H479 H 0.72357 0.38808 0.9746 0.0
H480 H 0.76995 0.38519 0.95191 0.0
H481 H 0.9404 0.51915 0.91822 0.0
H482 H 0.89645 0.48582 0.90228 0.0
H483 H 0.88425 0.4559 0.98798 0.0
H484 H 0.92871 0.49007 1.00462 0.0
H485 H 0.83266 0.46367 0.96203 0.0
H486 H 0.90736 0.40891 0.93964 0.0
H487 H 0.9539 0.39943 0.92139 0.0
H488 H 0.92851 0.42252 0.83734 0.0
H489 H 0.88156 0.43182 0.85512 0.0
C490 C 0.75846 0.34655 0.87209 0.0
C491 C 0.7343 0.35942 0.86392 0.0
C492 C 0.78271 0.36361 0.88631 0.0
C493 C 0.78368 0.39411 0.89251 0.0
C494 C 0.76 0.40732 0.88358 0.0
C495 C 0.73549 0.39013 0.86958 0.0
C496 C 0.80992 0.41201 0.9075 0.0
C497 C 0.83728 0.40977 0.89697 0.0
C498 C 0.80832 0.43105 0.93185 0.0
C499 C 0.78045 0.43258 0.94565 0.0
C500 C 0.77126 0.46012 0.95016 0.0
C501 C 0.745 0.46155 0.96318 0.0
C502 C 0.72779 0.43559 0.97191 0.0
C503 C 0.73686 0.40815 0.96772 0.0
C504 C 0.76311 0.40661 0.95474 0.0
C505 C 0.92856 0.50562 0.93394 0.0
C506 C 0.9384 0.50728 0.96282 0.0
C507 C 0.90334 0.4864 0.92464 0.0
C508 C 0.88724 0.46797 0.94378 0.0
C509 C 0.89643 0.46986 0.97279 0.0
C510 C 0.92188 0.48931 0.98226 0.0
C511 C 0.86114 0.44672 0.93279 0.0
C512 C 0.83393 0.44847 0.94393 0.0
C513 C 0.86282 0.42638 0.90959 0.0
C514 C 0.89109 0.42125 0.89875 0.0
C515 C 0.91179 0.41213 0.9173 0.0
C516 C 0.9382 0.4067 0.90701 0.0
C517 C 0.94426 0.41051 0.87823 0.0
C518 C 0.92381 0.41959 0.85963 0.0
C519 C 0.89722 0.4248 0.86977 0.0
H520 H 0.96478 0.40638 0.87032 0.0
H521 H 0.70747 0.43675 0.98198 0.0
H522 H 0.79096 0.67295 0.3649 0.0
H523 H 0.74182 0.65636 0.38182 0.0
H524 H 0.77854 0.62743 0.45938 0.0
H525 H 0.82741 0.64388 0.44256 0.0
H526 H 0.73032 0.58828 0.43987 0.0
H527 H 0.75825 0.69281 0.46024 0.0
H528 H 0.77612 0.74493 0.44915 0.0
H529 H 0.70282 0.74365 0.39118 0.0
H530 H 0.68476 0.69128 0.40158 0.0
H531 H 0.60951 0.58823 0.52973 0.0
H532 H 0.65814 0.6041 0.51143 0.0
H533 H 0.61973 0.62075 0.42999 0.0
H534 H 0.57126 0.60437 0.44785 0.0
H535 H 0.66849 0.66599 0.45156 0.0
H536 H 0.64111 0.55986 0.43264 0.0
H537 H 0.62365 0.50857 0.44667 0.0
H538 H 0.69695 0.51407 0.50544 0.0
H539 H 0.71461 0.56562 0.49207 0.0
C540 C 0.78843 0.66249 0.38526 0.0
C541 C 0.8129 0.65986 0.40252 0.0
C542 C 0.76043 0.65321 0.395 0.0
C543 C 0.75654 0.64099 0.42205 0.0
C544 C 0.78099 0.63683 0.43851 0.0
C545 C 0.80888 0.64633 0.42893 0.0
C546 C 0.72722 0.63428 0.43409 0.0
C547 C 0.71692 0.60533 0.44261 0.0
C548 C 0.70966 0.6565 0.43765 0.0
C549 C 0.72033 0.68802 0.43143 0.0
C550 C 0.74607 0.70356 0.44493 0.0
C551 C 0.75622 0.73316 0.43881 0.0
C552 C 0.74066 0.74758 0.41941 0.0
C553 C 0.71488 0.73243 0.40616 0.0
C554 C 0.70467 0.70278 0.41216 0.0
C555 C 0.61147 0.5958 0.50811 0.0
C556 C 0.58664 0.59498 0.49017 0.0
C557 C 0.63921 0.6047 0.49765 0.0
C558 C 0.64246 0.6134 0.4693 0.0
C559 C 0.61766 0.61411 0.4519 0.0
C560 C 0.59002 0.60467 0.46212 0.0
C561 C 0.67163 0.62003 0.45712 0.0
C562 C 0.68189 0.64896 0.44867 0.0
C563 C 0.68927 0.59789 0.45391 0.0
C564 C 0.67901 0.56671 0.46158 0.0
C565 C 0.65339 0.55022 0.44872 0.0
C566 C 0.64346 0.52109 0.45652 0.0
C567 C 0.65912 0.5081 0.477 0.0
C568 C 0.68481 0.52418 0.48962 0.0
C569 C 0.6948 0.55335 0.48192 0.0
H570 H 0.65139 0.48555 0.48303 0.0
H571 H 0.74854 0.77051 0.4147 0.0
H572 H 0.09354 0.26147 0.15729 0.0
H573 H 0.07286 0.30243 0.13665 0.0
H574 H 0.15859 0.34446 0.11464 0.0
H575 H 0.17916 0.30405 0.13604 0.0
H576 H 0.13042 0.38608 0.12998 0.0
H577 H 0.10755 0.30113 0.06486 0.0
H578 H 0.0875 0.24916 0.04975 0.0
H579 H 1.00226 0.26295 0.07215 0.0
H580 H 0.02189 0.31492 0.08773 0.0
H581 H 0.08045 0.48662 0.03522 0.0
H582 H 0.10267 0.44389 0.04945 0.0
H583 H 0.02073 0.40199 0.08091 0.0
H584 H 0.99872 0.44436 0.06671 0.0
H585 H 0.04868 0.36037 0.05834 0.0
H586 H 0.07272 0.44501 0.12515 0.0
H587 H 0.09308 0.49722 0.1391 0.0
H588 H 0.17699 0.48385 0.11199 0.0
H589 H 0.157 0.43164 0.09749 0.0
C590 C 0.10796 0.27989 0.14871 0.0
C591 C 0.13799 0.27984 0.14867 0.0
C592 C 0.09612 0.30314 0.13648 0.0
C593 C 0.11398 0.32652 0.12337 0.0
C594 C 0.14417 0.32689 0.12444 0.0
C595 C 0.15598 0.3038 0.13683 0.0
C596 C 0.10137 0.35008 0.10787 0.0
C597 C 0.11282 0.3803 0.11404 0.0
C598 C 0.07812 0.34301 0.08714 0.0
C599 C 0.06624 0.31182 0.07772 0.0
C600 C 0.08457 0.29301 0.06674 0.0
C601 C 0.07327 0.26357 0.05807 0.0
C602 C 0.04364 0.25274 0.06006 0.0
C603 C 0.02522 0.27136 0.07066 0.0
C604 C 0.03641 0.30082 0.07939 0.0
C605 C 0.06694 0.4677 0.04401 0.0
C606 C 0.03771 0.46872 0.04948 0.0
C607 C 0.07976 0.44344 0.05263 0.0
C608 C 0.06358 0.41977 0.06688 0.0
C609 C 0.03383 0.41981 0.07012 0.0
C610 C 0.02116 0.44403 0.06177 0.0
C611 C 0.07767 0.39622 0.08056 0.0
C612 C 0.06644 0.36604 0.07413 0.0
C613 C 0.10121 0.40331 0.10093 0.0
C614 C 0.11331 0.43454 0.10996 0.0
C615 C 0.09547 0.45327 0.122 0.0
C616 C 0.10694 0.48285 0.13002 0.0
C617 C 0.13629 0.49387 0.12636 0.0
C618 C 0.15425 0.47529 0.11476 0.0
C619 C 0.14287 0.44571 0.10664 0.0
H620 H 0.14513 0.51677 0.13257 0.0
H621 H 0.03493 0.22994 0.05333 0.0
H622 H 0.64473 0.24283 0.82154 0.0
H623 H 0.62425 0.19538 0.84134 0.0
H624 H 0.65821 0.22828 0.92522 0.0
H625 H 0.67722 0.27645 0.90618 0.0
H626 H 0.66449 0.16422 0.90531 0.0
H627 H 0.59528 0.2337 0.91645 0.0
H628 H 0.56488 0.26805 0.89702 0.0
H629 H 0.5212 0.1985 0.83894 0.0
H630 H 0.5517 0.16386 0.8578 0.0
H631 H 0.58746 0.1098 0.02069 0.0
H632 H 0.61743 0.12559 0.98084 0.0
H633 H 0.54491 0.09366 0.92197 0.0
H634 H 0.51457 0.07903 0.96242 0.0
H635 H 0.55804 0.14825 0.91709 0.0
H636 H 0.61896 0.07586 0.90855 0.0
H637 H 0.65178 0.0404 0.91966 0.0
H638 H 0.71001 0.10944 0.96678 0.0
H639 H 0.67808 0.14559 0.95524 0.0
C640 C 0.64774 0.24018 0.84426 0.0
C641 C 0.66244 0.26382 0.86225 0.0
C642 C 0.63633 0.21285 0.85541 0.0
C643 C 0.63988 0.20838 0.88465 0.0
C644 C 0.65559 0.23128 0.9025 0.0
C645 C 0.66652 0.25882 0.89149 0.0
C646 C 0.62486 0.181 0.89726 0.0
C647 C 0.64122 0.16054 0.90804 0.0
C648 C 0.5944 0.1756 0.8994 0.0
C649 C 0.57601 0.19635 0.88823 0.0
C650 C 0.57939 0.22584 0.89934 0.0
C651 C 0.56211 0.24534 0.88848 0.0
C652 C 0.54119 0.2355 0.86668 0.0
C653 C 0.53746 0.20611 0.85577 0.0
C654 C 0.55473 0.18654 0.86654 0.0
C655 C 0.57845 0.10457 0.99913 0.0
C656 C 0.54886 0.09297 0.99452 0.0
C657 C 0.59568 0.11355 0.97617 0.0
C658 C 0.58352 0.11116 0.94815 0.0
C659 C 0.55485 0.09591 0.94333 0.0
C660 C 0.53753 0.08716 0.96643 0.0
C661 C 0.59765 0.13123 0.92635 0.0
C662 C 0.58118 0.15085 0.91383 0.0
C663 C 0.62793 0.13538 0.92212 0.0
C664 C 0.64602 0.11339 0.93116 0.0
C665 C 0.63859 0.08341 0.92157 0.0
C666 C 0.65712 0.06324 0.92775 0.0
C667 C 0.68282 0.07263 0.94402 0.0
C668 C 0.69008 0.10222 0.95416 0.0
C669 C 0.67191 0.12261 0.94761 0.0
H670 H 0.69718 0.05702 0.9486 0.0
H671 H 0.52782 0.25062 0.85831 0.0
H672 H 0.88637 0.70893 0.46876 0.0
H673 H 0.90971 0.74956 0.50155 0.0
H674 H 0.95484 0.79267 0.43169 0.0
H675 H 0.9302 0.75372 0.39838 0.0
H676 H 0.9882 0.79226 0.49141 0.0
H677 H 0.89904 0.8155 0.44083 0.0
H678 H 0.84647 0.80241 0.42909 0.0
H679 H 0.82909 0.7989 0.51852 0.0
H680 H 0.88166 0.81155 0.53071 0.0
H681 H 0.0185 0.94027 0.47111 0.0
H682 H 0.01014 0.88772 0.48019 0.0
H683 H 0.94946 0.90242 0.54475 0.0
H684 H 0.95715 0.95547 0.53436 0.0
H685 H 0.92282 0.86563 0.50847 0.0
H686 H 0.00971 0.86391 0.5582 0.0
H687 H 0.06163 0.87646 0.57256 0.0
H688 H 0.08416 0.83743 0.49334 0.0
H689 H 0.03244 0.82514 0.47818 0.0
C690 C 0.90117 0.72703 0.4602 0.0
C691 C 0.90589 0.728 0.43058 0.0
C692 C 0.91487 0.74997 0.47916 0.0
C693 C 0.93413 0.77391 0.46903 0.0
C694 C 0.94036 0.77409 0.43996 0.0
C695 C 0.9262 0.75162 0.4209 0.0
C696 C 0.94453 0.80099 0.48736 0.0
C697 C 0.97409 0.8084 0.49549 0.0
C698 C 0.92569 0.82118 0.49401 0.0
C699 C 0.89419 0.81411 0.48665 0.0
C700 C 0.88399 0.81171 0.45795 0.0
C701 C 0.85422 0.80441 0.45122 0.0
C702 C 0.83445 0.79974 0.47304 0.0
C703 C 0.84443 0.80245 0.50164 0.0
C704 C 0.87419 0.80969 0.50847 0.0
C705 C 1.0046 0.93253 0.48835 0.0
C706 C 0.98865 0.95177 0.50225 0.0
C707 C 0.99983 0.90232 0.49368 0.0
C708 C 0.97908 0.89073 0.51322 0.0
C709 C 0.96556 0.91069 0.52955 0.0
C710 C 0.97024 0.94108 0.52397 0.0
C711 C 0.96728 0.8582 0.51127 0.0
C712 C 0.93721 0.84948 0.50593 0.0
C713 C 0.98568 0.83664 0.50803 0.0
C714 C 0.01701 0.84355 0.51704 0.0
C715 C 0.0257 0.8581 0.54374 0.0
C716 C 0.05514 0.86518 0.55204 0.0
C717 C 0.07618 0.85773 0.53389 0.0
C718 C 0.06782 0.84313 0.50742 0.0
C719 C 0.03841 0.83602 0.49899 0.0
H720 H 0.09896 0.86328 0.54034 0.0
H721 H 0.81141 0.79412 0.46779 0.0
H722 H 0.40323 0.87155 0.61735 0.0
H723 H 0.42272 0.82971 0.59604 0.0
H724 H 0.39736 0.77811 0.66926 0.0
H725 H 0.37857 0.82028 0.69095 0.0
H726 H 0.44818 0.77184 0.6591 0.0
H727 H 0.3632 0.76315 0.60003 0.0
H728 H 0.32595 0.77706 0.5672 0.0
H729 H 0.38971 0.79817 0.50379 0.0
H730 H 0.42747 0.78484 0.53642 0.0
H731 H 0.45719 0.63651 0.55859 0.0
H732 H 0.43303 0.67891 0.56897 0.0
H733 H 0.5145 0.73038 0.60093 0.0
H734 H 0.53845 0.68741 0.59173 0.0
H735 H 0.4333 0.73467 0.55793 0.0
H736 H 0.50516 0.76905 0.66104 0.0
H737 H 0.53472 0.74619 0.69561 0.0
H738 H 0.48322 0.66037 0.675 0.0
H739 H 0.45311 0.68278 0.64065 0.0
C740 C 0.40137 0.8511 0.62868 0.0
C741 C 0.38937 0.84925 0.65588 0.0
C742 C 0.41248 0.82709 0.61642 0.0
C743 C 0.41141 0.80048 0.63084 0.0
C744 C 0.39866 0.79836 0.65768 0.0
C745 C 0.38789 0.82249 0.6701 0.0
C746 C 0.42541 0.77572 0.61901 0.0
C747 C 0.44472 0.76374 0.63697 0.0
C748 C 0.42069 0.76446 0.59026 0.0
C749 C 0.39827 0.77341 0.57087 0.0
C750 C 0.36938 0.77114 0.57924 0.0
C751 C 0.34814 0.77883 0.56062 0.0
C752 C 0.35548 0.78861 0.53347 0.0
C753 C 0.38407 0.79068 0.52487 0.0
C754 C 0.4054 0.78307 0.54342 0.0
C755 C 0.47015 0.65726 0.56674 0.0
C756 C 0.49973 0.65878 0.57417 0.0
C757 C 0.45626 0.68151 0.57284 0.0
C758 C 0.47173 0.70774 0.58632 0.0
C759 C 0.5019 0.71019 0.59116 0.0
C760 C 0.51567 0.68576 0.58561 0.0
C761 C 0.45597 0.73112 0.59798 0.0
C762 C 0.43654 0.74286 0.58002 0.0
C763 C 0.4594 0.74115 0.6271 0.0
C764 C 0.47711 0.72757 0.64806 0.0
C765 C 0.50008 0.74533 0.66399 0.0
C766 C 0.51694 0.73244 0.68353 0.0
C767 C 0.51092 0.70183 0.68743 0.0
C768 C 0.48793 0.68406 0.6719 0.0
C769 C 0.47098 0.69684 0.65238 0.0
H770 H 0.52402 0.6919 0.70253 0.0
H771 H 0.33899 0.79449 0.51907 0.0
H772 H 0.87783 0.94818 0.82356 0.0
H773 H 0.89087 0.96569 0.77632 0.0
H774 H 0.89167 0.87559 0.74585 0.0
H775 H 0.87787 0.85767 0.7929 0.0
H776 H 0.93887 0.91288 0.72799 0.0
H777 H 0.83627 0.9115 0.72593 0.0
H778 H 0.79004 0.92276 0.74362 0.0
H779 H 0.8221 0.01637 0.73979 0.0
H780 H 0.8687 0.00568 0.72245 0.0
H781 H 0.96523 0.96225 0.58677 0.0
H782 H 0.94021 0.9343 0.62534 0.0
H783 H 0.92554 0.01665 0.66587 0.0
H784 H 0.94928 0.0441 0.62713 0.0
H785 H 0.88168 0.97722 0.67552 0.0
H786 H 0.98557 0.97954 0.68383 0.0
H787 H 0.03265 0.96967 0.66699 0.0
H788 H 0.99913 0.87598 0.66012 0.0
H789 H 0.95171 0.88535 0.6766 0.0
C790 C 0.88022 0.93187 0.8068 0.0
C791 C 0.87653 0.90132 0.81244 0.0
C792 C 0.88788 0.94202 0.77965 0.0
C793 C 0.89211 0.92204 0.75717 0.0
C794 C 0.88865 0.89159 0.76269 0.0
C795 C 0.88083 0.88136 0.78982 0.0
C796 C 0.90042 0.93303 0.72815 0.0
C797 C 0.92605 0.92652 0.71632 0.0
C798 C 0.88413 0.95127 0.71284 0.0
C799 C 0.85607 0.95778 0.7231 0.0
C800 C 0.83354 0.93449 0.72905 0.0
C801 C 0.80726 0.94077 0.73899 0.0
C802 C 0.80316 0.97027 0.74289 0.0
C803 C 0.82532 0.99354 0.73679 0.0
C804 C 0.85166 0.98738 0.72687 0.0
C805 C 0.95555 0.97418 0.60325 0.0
C806 C 0.95901 0.00543 0.60361 0.0
C807 C 0.94173 0.95825 0.62572 0.0
C808 C 0.93143 0.97328 0.6492 0.0
C809 C 0.93322 1.00427 0.64835 0.0
C810 C 0.94682 0.02004 0.62601 0.0
C811 C 0.9205 0.95765 0.67557 0.0
C812 C 0.89436 0.9633 0.68698 0.0
C813 C 0.93647 0.93886 0.69063 0.0
C814 C 0.96504 0.93317 0.68113 0.0
C815 C 0.98821 0.95685 0.67858 0.0
C816 C 0.01495 0.95135 0.66912 0.0
C817 C 0.01885 0.92222 0.66241 0.0
C818 C 0.99605 0.89853 0.66527 0.0
C819 C 0.96925 0.90392 0.67468 0.0
H820 H 0.03955 0.91801 0.65506 0.0
H821 H 0.78279 0.97508 0.75059 0.0
H822 H 0.65185 0.11544 0.36237 0.0
H823 H 0.63153 0.0963 0.31526 0.0
H824 H 0.6072 0.18142 0.29913 0.0
H825 H 0.62702 0.20048 0.34659 0.0
H826 H 0.56501 0.13933 0.28111 0.0
H827 H 0.66835 0.15695 0.26941 0.0
H828 H 0.71913 0.15197 0.28077 0.0
H829 H 0.6978 0.05743 0.26443 0.0
H830 H 0.64677 0.06182 0.25332 0.0
H831 H 0.551 0.13664 0.13213 0.0
H832 H 0.57078 0.14595 0.18079 0.0
H833 H 0.57157 0.05231 0.18864 0.0
H834 H 0.55126 0.04244 0.13937 0.0
H835 H 0.62368 0.09251 0.21184 0.0
H836 H 0.52053 0.07742 0.21771 0.0
H837 H 0.47097 0.08486 0.20412 0.0
H838 H 0.49304 0.17735 0.23021 0.0
H839 H 0.54298 0.17066 0.24329 0.0
C840 C 0.64237 0.13018 0.3487 0.0
C841 C 0.64131 0.15962 0.35816 0.0
C842 C 0.63074 0.11918 0.32171 0.0
C843 C 0.61819 0.13749 0.30327 0.0
C844 C 0.61676 0.16679 0.31285 0.0
C845 C 0.62811 0.1777 0.34 0.0
C846 C 0.60646 0.1262 0.2741 0.0
C847 C 0.57799 0.12935 0.26594 0.0
C848 C 0.62298 0.11233 0.25439 0.0
C849 C 0.65368 0.10968 0.26085 0.0
C850 C 0.67445 0.13508 0.26843 0.0
C851 C 0.70328 0.13237 0.2748 0.0
C852 C 0.71167 0.10439 0.27341 0.0
C853 C 0.69126 0.07908 0.26555 0.0
C854 C 0.66238 0.08167 0.2592 0.0
C855 C 0.55543 0.11782 0.14394 0.0
C856 C 0.54928 0.08866 0.13166 0.0
C857 C 0.56677 0.12331 0.17189 0.0
C858 C 0.57238 0.09985 0.18848 0.0
C859 C 0.56735 0.07075 0.17619 0.0
C860 C 0.55572 0.06514 0.14804 0.0
C861 C 0.58257 0.10622 0.21887 0.0
C862 C 0.61067 0.10217 0.22721 0.0
C863 C 0.56583 0.11954 0.23868 0.0
C864 C 0.53561 0.12355 0.23132 0.0
C865 C 0.5149 0.0994 0.22035 0.0
C866 C 0.48673 0.10348 0.21274 0.0
C867 C 0.47886 0.13155 0.2163 0.0
C868 C 0.49917 0.15561 0.22748 0.0
C869 C 0.52742 0.15168 0.23499 0.0
H870 H 0.45703 0.13466 0.21042 0.0
H871 H 0.73399 0.10233 0.27836 0.0
H872 H 0.40926 0.75475 0.33031 0.0
H873 H 0.42862 0.74504 0.3779 0.0
H874 H 0.35371 0.67706 0.38794 0.0
H875 H 0.33418 0.68747 0.34107 0.0
H876 H 0.36997 0.70352 0.43818 0.0
H877 H 0.41872 0.66178 0.35975 0.0
H878 H 0.44787 0.66441 0.31662 0.0
H879 H 0.51728 0.723 0.3623 0.0
H880 H 0.48835 0.72095 0.40562 0.0
H881 H 0.41398 0.57543 0.49008 0.0
H882 H 0.39491 0.61869 0.47364 0.0
H883 H 0.47945 0.6728 0.48866 0.0
H884 H 0.49858 0.62929 0.5045 0.0
H885 H 0.46435 0.66809 0.43407 0.0
H886 H 0.41774 0.69831 0.51641 0.0
H887 H 0.387 0.69475 0.55859 0.0
H888 H 0.31314 0.65435 0.50579 0.0
H889 H 0.34317 0.65797 0.46331 0.0
C890 C 0.39671 0.73836 0.34316 0.0
C891 C 0.37033 0.72181 0.33235 0.0
C892 C 0.40779 0.73269 0.37021 0.0
C893 C 0.39286 0.70996 0.3864 0.0
C894 C 0.36564 0.69473 0.37602 0.0
C895 C 0.35452 0.7006 0.34922 0.0
C896 C 0.40654 0.69945 0.4124 0.0
C897 C 0.39067 0.69583 0.43739 0.0
C898 C 0.43395 0.69022 0.41178 0.0
C899 C 0.45124 0.69157 0.38574 0.0
C900 C 0.44011 0.6754 0.3605 0.0
C901 C 0.4566 0.67676 0.33605 0.0
C902 C 0.48436 0.69396 0.33669 0.0
C903 C 0.49573 0.70977 0.36181 0.0
C904 C 0.4793 0.70853 0.38631 0.0
C905 C 0.42799 0.59697 0.49156 0.0
C906 C 0.45757 0.59915 0.49913 0.0
C907 C 0.41709 0.6218 0.48213 0.0
C908 C 0.43573 0.64914 0.47978 0.0
C909 C 0.46459 0.65204 0.49041 0.0
C910 C 0.47546 0.62719 0.49985 0.0
C911 C 0.42734 0.67108 0.45972 0.0
C912 C 0.44416 0.67671 0.43555 0.0
C913 C 0.40066 0.68171 0.46105 0.0
C914 C 0.38277 0.6783 0.48671 0.0
C915 C 0.395 0.68844 0.51386 0.0
C916 C 0.37769 0.68653 0.53778 0.0
C917 C 0.34825 0.67421 0.53487 0.0
C918 C 0.33597 0.66388 0.50802 0.0
C919 C 0.35308 0.666 0.484 0.0
H920 H 0.33493 0.67275 0.55342 0.0
H921 H 0.4971 0.69496 0.31774 0.0
H922 H 0.16 0.46574 0.7669 0.0
H923 H 0.15812 0.48458 0.81666 0.0
H924 H 0.12088 0.39643 0.84098 0.0
H925 H 0.12292 0.37771 0.79146 0.0
H926 H 0.08756 0.43853 0.85499 0.0
H927 H 0.18708 0.42684 0.86692 0.0
H928 H 0.23857 0.43324 0.85458 0.0
H929 H 0.24571 0.52809 0.86521 0.0
H930 H 0.19413 0.5223 0.87721 0.0
H931 H 0.05421 0.49732 0.98142 0.0
H932 H 0.08372 0.46485 0.95786 0.0
H933 H 0.13532 0.54138 0.92244 0.0
H934 H 0.1071 0.57369 0.94731 0.0
H935 H 0.1646 0.49732 0.91914 0.0
H936 H 0.06612 0.5108 0.89159 0.0
H937 H 0.01445 0.50935 0.902 0.0
H938 H 1.00564 0.41613 0.91746 0.0
H939 H 0.05717 0.41712 0.90719 0.0
C940 C 0.15227 0.45036 0.78314 0.0
C941 C 0.14182 0.42033 0.77566 0.0
C942 C 0.15119 0.46106 0.81151 0.0
C943 C 0.13945 0.44187 0.83262 0.0
C944 C 0.13013 0.4116 0.82515 0.0
C945 C 0.1314 0.40092 0.79692 0.0
C946 C 0.13356 0.4539 0.86142 0.0
C947 C 0.10454 0.45071 0.86932 0.0
C948 C 0.15556 0.47056 0.87979 0.0
C949 C 0.18665 0.47412 0.87278 0.0
C950 C 0.19956 0.44908 0.86642 0.0
C951 C 0.22878 0.45259 0.85952 0.0
C952 C 0.24539 0.48105 0.85906 0.0
C953 C 0.23282 0.50606 0.86557 0.0
C954 C 0.2036 0.50267 0.87246 0.0
C955 C 0.07327 0.50736 0.97053 0.0
C956 C 0.07813 0.53794 0.96577 0.0
C957 C 0.08986 0.48871 0.95652 0.0
C958 C 0.11076 0.50055 0.9371 0.0
C959 C 0.119 0.53154 0.93678 0.0
C960 C 0.10288 0.55011 0.9512 0.0
C961 C 0.1186 0.48195 0.9126 0.0
C962 C 0.1478 0.48427 0.90521 0.0
C963 C 0.09676 0.46504 0.89415 0.0
C964 C 0.06544 0.46406 0.89884 0.0
C965 C 0.05305 0.48999 0.89708 0.0
C966 C 0.02382 0.48927 0.903 0.0
C967 C 0.00673 0.46269 0.91042 0.0
C968 C 0.0188 0.43672 0.91169 0.0
C969 C 0.04801 0.43732 0.90577 0.0
H970 H 0.98417 0.46225 0.9152 0.0
H971 H 0.26801 0.48373 0.85371 0.0
H972 H 0.80246 0.9841 0.906 0.0
H973 H 0.76091 0.00552 0.9231 0.0
H974 H 0.71245 0.91702 0.93054 0.0
H975 H 0.75365 0.89585 0.91281 0.0
H976 H 0.67675 0.9512 0.91314 0.0
H977 H 0.75126 0.96024 0.98854 0.0
H978 H 0.80018 0.97702 1.01062 0.0
H979 H 0.79135 0.06809 0.99957 0.0
H980 H 0.7425 0.05182 0.97712 0.0
H981 H 0.58541 0.95528 0.02661 0.0
H982 H 0.62803 0.95118 0.99976 0.0
H983 H 0.64018 0.04492 0.98464 0.0
H984 H 0.59631 0.04927 0.01123 0.0
H985 H 0.69393 0.01783 1.00041 0.0
H986 H 0.61239 0.00505 0.93417 0.0
H987 H 0.56296 0.98464 0.91566 0.0
H988 H 0.58392 0.89658 0.91274 0.0
H989 H 0.63348 0.91638 0.93168 0.0
C990 C 0.78258 0.96934 0.91053 0.0
C991 C 0.78104 0.93835 0.9077 0.0
C992 C 0.75894 0.98156 0.92066 0.0
C993 C 0.73348 0.96298 0.92869 0.0
C994 C 0.73165 0.93198 0.92456 0.0
C995 C 0.75519 0.91983 0.9143 0.0
C996 C 0.7093 0.97532 0.94273 0.0
C997 C 0.6806 0.96578 0.9322 0.0
C998 C 0.71407 0.99498 0.96734 0.0
C999 C 0.74341 1.0048 0.98079 0.0
C1000 C 0.75986 0.98383 0.99061 0.0
C1001 C 0.78755 0.99326 1.00323 0.0
C1002 C 0.79891 0.0236 1.00639 0.0
C1003 C 0.78256 0.04459 0.99702 0.0
C1004 C 0.75486 0.03528 0.98435 0.0
C1005 C 0.597 0.97531 0.01784 0.0
C1006 C 0.58688 1.00267 0.02093 0.0
C1007 C 0.62154 0.97279 1.00238 0.0
C1008 C 0.63709 0.99753 0.98966 0.0
C1009 C 0.62833 0.02538 0.99396 0.0
C1010 C 0.60327 0.02789 1.00927 0.0
C1011 C 0.66156 0.99313 0.97109 0.0
C1012 C 0.69021 1.00389 0.98091 0.0
C1013 C 0.65672 0.97426 0.94603 0.0
C1014 C 0.62684 0.96229 0.93441 0.0
C1015 C 0.60656 0.98133 0.92971 0.0
C1016 C 0.57844 0.96985 0.91913 0.0
C1017 C 0.5703 0.93933 0.91301 0.0
C1018 C 0.59027 0.92023 0.91745 0.0
C1019 C 0.61841 0.93159 0.92808 0.0
H1020 H 0.54851 0.93048 0.90482 0.0
H1021 H 0.82036 0.03086 0.01618 0.0
H1022 H 0.74216 0.17438 0.39509 0.0
H1023 H 0.78726 0.15882 0.41139 0.0
H1024 H 0.75166 0.14042 0.49388 0.0
H1025 H 0.70618 0.15523 0.47761 0.0
H1026 H 0.8112 0.16908 0.49697 0.0
H1027 H 0.75016 0.08451 0.449 0.0
H1028 H 0.71922 0.05875 0.40892 0.0
H1029 H 0.7907 0.07531 0.35304 0.0
H1030 H 0.82196 0.10157 0.39271 0.0
H1031 H 0.9146 0.07268 0.53609 0.0
H1032 H 0.87197 0.09732 0.52888 0.0
H1033 H 0.89253 0.10847 0.44031 0.0
H1034 H 0.93411 0.08351 0.44726 0.0
H1035 H 0.83862 0.08262 0.44372 0.0
H1036 H 0.90026 0.1668 0.48999 0.0
H1037 H 0.93213 0.19358 0.52889 0.0
H1038 H 0.86176 0.18014 0.58629 0.0
H1039 H 0.82963 0.1525 0.54794 0.0
C1040 C 0.74381 0.16693 0.41668 0.0
C1041 C 0.72034 0.16588 0.43491 0.0
C1042 C 0.76972 0.15827 0.42604 0.0
C1043 C 0.77278 0.14834 0.45382 0.0
C1044 C 0.74984 0.14819 0.47243 0.0
C1045 C 0.72384 0.15672 0.46305 0.0
C1046 C 0.79909 0.13614 0.46262 0.0
C1047 C 0.8171 0.14996 0.48561 0.0
C1048 C 0.80695 0.11147 0.44753 0.0
C1049 C 0.78832 0.09522 0.42377 0.0
C1050 C 0.75922 0.08282 0.42813 0.0
C1051 C 0.74164 0.06811 0.40549 0.0
C1052 C 0.75296 0.06545 0.37844 0.0
C1053 C 0.78194 0.07741 0.374 0.0
C1054 C 0.79961 0.09218 0.39656 0.0
C1055 C 0.91022 0.08103 0.51534 0.0
C1056 C 0.92737 0.07599 0.49216 0.0
C1057 C 0.8859 0.09503 0.51118 0.0
C1058 C 0.87885 0.10451 0.48392 0.0
C1059 C 0.89721 0.10104 0.4614 0.0
C1060 C 0.92104 0.08685 0.46543 0.0
C1061 C 0.85136 0.11591 0.47774 0.0
C1062 C 0.83288 0.10175 0.45525 0.0
C1063 C 0.84338 0.14041 0.49314 0.0
C1064 C 0.86261 0.15724 0.51617 0.0
C1065 C 0.89163 0.16929 0.51098 0.0
C1066 C 0.90974 0.18468 0.53291 0.0
C1067 C 0.89899 0.18858 0.56003 0.0
C1068 C 0.87008 0.17708 0.56527 0.0
C1069 C 0.85191 0.1615 0.54346 0.0
H1070 H 0.91304 0.20054 0.57697 0.0
H1071 H 0.73931 0.05408 0.36093 0.0
H1072 H 0.25606 0.76479 0.20688 0.0
H1073 H 0.21579 0.74082 0.17465 0.0
H1074 H 0.26757 0.67671 0.14552 0.0
H1075 H 0.30781 0.70032 0.17809 0.0
H1076 H 0.22953 0.70155 0.10069 0.0
H1077 H 0.22805 0.65215 0.19083 0.0
H1078 H 0.22971 0.65168 0.24349 0.0
H1079 H 0.15417 0.69359 0.24613 0.0
H1080 H 0.15238 0.69476 0.19345 0.0
H1081 H 0.11236 0.587 0.04679 0.0
H1082 H 0.15732 0.61802 0.06641 0.0
H1083 H 0.10706 0.66407 0.12323 0.0
H1084 H 0.06267 0.63197 0.10486 0.0
H1085 H 0.14699 0.6482 0.15269 0.0
H1086 H 0.14594 0.69645 0.06325 0.0
H1087 H 0.14422 0.69941 1.01076 0.0
H1088 H 0.2228 0.66281 1.00597 0.0
H1089 H 0.2248 0.65928 0.05843 0.0
C1090 C 0.25903 0.74594 0.1932 0.0
C1091 C 0.28491 0.73423 0.19511 0.0
C1092 C 0.23607 0.73231 0.17482 0.0
C1093 C 0.23878 0.70704 0.15776 0.0
C1094 C 0.26516 0.69629 0.15843 0.0
C1095 C 0.28798 0.70962 0.17717 0.0
C1096 C 0.21302 0.68997 0.14187 0.0
C1097 C 0.21149 0.6896 0.11188 0.0
C1098 C 0.18946 0.67487 0.15662 0.0
C1099 C 0.19028 0.67384 0.18825 0.0
C1100 C 0.21196 0.66151 0.20266 0.0
C1101 C 0.2129 0.66107 0.2325 0.0
C1102 C 0.1921 0.67268 0.24816 0.0
C1103 C 0.17028 0.68466 0.23398 0.0
C1104 C 0.16929 0.6852 0.20413 0.0
C1105 C 0.11106 0.60422 0.06304 0.0
C1106 C 0.08424 0.60721 0.07441 0.0
C1107 C 0.13671 0.62201 0.07422 0.0
C1108 C 0.13572 0.64355 0.09637 0.0
C1109 C 0.10856 0.64751 0.10639 0.0
C1110 C 0.08317 0.62931 0.09579 0.0
C1111 C 0.16273 0.66012 0.11111 0.0
C1112 C 0.16473 0.6602 0.14114 0.0
C1113 C 0.18648 0.67516 0.09627 0.0
C1114 C 0.18535 0.67732 0.06474 0.0
C1115 C 0.16273 0.68882 0.05099 0.0
C1116 C 0.16173 0.69064 0.02124 0.0
C1117 C 0.18334 0.68123 1.00504 0.0
C1118 C 0.20605 0.67005 0.01855 0.0
C1119 C 0.20715 0.66817 0.04829 0.0
H1120 H 0.18252 0.68265 0.98201 0.0
H1121 H 0.19286 0.67231 0.27127 0.0
H1122 H 0.23074 0.42182 0.70291 0.0
H1123 H 0.27959 0.44742 0.69293 0.0
H1124 H 0.25262 0.4547 0.60495 0.0
H1125 H 0.20369 0.43 0.61483 0.0
H1126 H 0.30388 0.43207 0.61052 0.0
H1127 H 0.26271 0.51467 0.64839 0.0
H1128 H 0.23813 0.54135 0.68436 0.0
H1129 H 0.3071 0.53732 0.74611 0.0
H1130 H 0.3319 0.51023 0.71059 0.0
H1131 H 0.42428 0.53022 0.5616 0.0
H1132 H 0.37599 0.50609 0.57441 0.0
H1133 H 0.40416 0.51181 0.6634 0.0
H1134 H 0.45229 0.53671 0.65083 0.0
H1135 H 0.35278 0.5267 0.65892 0.0
H1136 H 0.39473 0.44522 0.62218 0.0
H1137 H 0.41971 0.4176 0.58732 0.0
H1138 H 0.35012 0.41758 0.52522 0.0
H1139 H 0.32491 0.4456 0.55957 0.0
C1140 C 0.23503 0.42934 0.68156 0.0
C1141 C 0.21325 0.42359 0.65963 0.0
C1142 C 0.26303 0.44383 0.67586 0.0
C1143 C 0.26977 0.45286 0.64816 0.0
C1144 C 0.24797 0.44768 0.62641 0.0
C1145 C 0.22001 0.43344 0.63211 0.0
C1146 C 0.29969 0.46701 0.64149 0.0
C1147 C 0.31448 0.45294 0.62085 0.0
C1148 C 0.31381 0.49375 0.6556 0.0
C1149 C 0.299 0.51015 0.67693 0.0
C1150 C 0.27251 0.51925 0.66971 0.0
C1151 C 0.25857 0.53449 0.69 0.0
C1152 C 0.27101 0.54095 0.71753 0.0
C1153 C 0.29747 0.53226 0.7248 0.0
C1154 C 0.31149 0.51698 0.70459 0.0
C1155 C 0.42029 0.52619 0.58389 0.0
C1156 C 0.44222 0.53538 0.60517 0.0
C1157 C 0.39264 0.51229 0.5912 0.0
C1158 C 0.38644 0.50674 0.61988 0.0
C1159 C 0.40834 0.51585 0.64114 0.0
C1160 C 0.4359 0.53004 0.63389 0.0
C1161 C 0.35703 0.49188 0.62773 0.0
C1162 C 0.3423 0.50577 0.64862 0.0
C1163 C 0.34305 0.46477 0.61404 0.0
C1164 C 0.35806 0.44775 0.59337 0.0
C1165 C 0.38485 0.43951 0.60102 0.0
C1166 C 0.39904 0.42376 0.58136 0.0
C1167 C 0.38654 0.4159 0.55405 0.0
C1168 C 0.35979 0.42371 0.54637 0.0
C1169 C 0.34553 0.43951 0.56593 0.0
H1170 H 0.39757 0.40371 0.53886 0.0
H1171 H 0.26018 0.55275 0.73321 0.0
H1172 H 0.93133 0.84561 0.87863 0.0
H1173 H 0.9521 0.80625 0.90167 0.0
H1174 H 0.86833 0.77134 0.93393 0.0
H1175 H 0.84775 0.81109 0.91158 0.0
H1176 H 0.90642 0.76879 0.97423 0.0
H1177 H 0.89974 0.73754 0.87533 0.0
H1178 H 0.90716 0.7421 0.82367 0.0
H1179 H 0.99959 0.75727 0.83935 0.0
H1180 H 0.99272 0.75319 0.89117 0.0
H1181 H 0.94532 0.62449 1.00505 0.0
H1182 H 0.92336 0.66737 0.99078 0.0
H1183 H 0.00636 0.71043 0.96261 0.0
H1184 H 0.02795 0.66769 0.9763 0.0
H1185 H 0.96682 0.70779 0.92084 0.0
H1186 H 0.97172 0.73718 0.02121 0.0
H1187 H 0.96218 0.72971 0.07215 0.0
H1188 H 0.87033 0.71447 0.05282 0.0
H1189 H 0.87933 0.72144 1.00167 0.0
C1190 C 0.91725 0.82935 0.89034 0.0
C1191 C 0.8878 0.83157 0.89308 0.0
C1192 C 0.92916 0.80675 0.90359 0.0
C1193 C 0.91184 0.78531 0.91947 0.0
C1194 C 0.88237 0.78746 0.92204 0.0
C1195 C 0.87055 0.81023 0.9091 0.0
C1196 C 0.92432 0.76074 0.93336 0.0
C1197 C 0.91935 0.75527 0.96239 0.0
C1198 C 0.94149 0.74296 0.9183 0.0
C1199 C 0.94571 0.74535 0.88715 0.0
C1200 C 0.92165 0.74206 0.86778 0.0
C1201 C 0.92575 0.74452 0.83847 0.0
C1202 C 0.95383 0.75005 0.82824 0.0
C1203 C 0.97786 0.75304 0.84731 0.0
C1204 C 0.97387 0.75062 0.87665 0.0
C1205 C 0.95907 0.64369 0.99697 0.0
C1206 C 0.98846 0.64281 0.99209 0.0
C1207 C 0.94646 0.66815 0.98853 0.0
C1208 C 0.96308 0.69226 0.97527 0.0
C1209 C 0.99289 0.69218 0.97247 0.0
C1210 C 1.00535 0.66782 0.98067 0.0
C1211 C 0.94939 0.7162 0.9618 0.0
C1212 C 0.95399 0.72141 0.93273 0.0
C1213 C 0.93163 0.73336 0.97676 0.0
C1214 C 0.92621 0.72955 1.00755 0.0
C1215 C 0.94949 0.73203 0.02778 0.0
C1216 C 0.94418 0.72792 0.0567 0.0
C1217 C 0.91567 0.72153 0.06571 0.0
C1218 C 0.89241 0.71937 0.04581 0.0
C1219 C 0.8976 0.72344 0.01686 0.0
H1220 H 0.9116 0.71833 0.0881 0.0
H1221 H 0.95696 0.75195 0.80554 0.0
H1222 H 0.31276 0.8371 0.23588 0.0
H1223 H 0.33538 0.88741 0.22434 0.0
H1224 H 0.42008 0.86262 0.23378 0.0
H1225 H 0.39765 0.81235 0.2453 0.0
H1226 H 0.42056 0.92305 0.24956 0.0
H1227 H 0.38504 0.85136 0.17089 0.0
H1228 H 0.3466 0.81595 0.14457 0.0
H1229 H 0.29623 0.88548 0.1337 0.0
H1230 H 0.3342 0.92118 0.16044 0.0
H1231 H 0.51139 0.96526 0.13988 0.0
H1232 H 0.48188 0.95237 0.18072 0.0
H1233 H 0.41273 0.99114 0.14213 0.0
H1234 H 0.44237 1.00319 0.10056 0.0
H1235 H 0.39526 0.93558 0.14758 0.0
H1236 H 0.4383 0.01044 0.21524 0.0
H1237 H 0.47692 0.04531 0.24177 0.0
H1238 H 0.51411 0.97206 0.27235 0.0
H1239 H 0.47555 0.93665 0.24624 0.0
C1240 C 0.33624 0.84259 0.23617 0.0
C1241 C 0.35341 0.82061 0.241 0.0
C1242 C 0.34913 0.87139 0.22973 0.0
C1243 C 0.37939 0.87862 0.22775 0.0
C1244 C 0.39669 0.85756 0.23524 0.0
C1245 C 0.38382 0.82877 0.24179 0.0
C1246 C 0.39265 0.90572 0.21324 0.0
C1247 C 0.41503 0.92604 0.22731 0.0
C1248 C 0.38478 0.9101 0.18448 0.0
C1249 C 0.36223 0.8888 0.16795 0.0
C1250 C 0.36567 0.85903 0.16303 0.0
C1251 C 0.34398 0.83892 0.14805 0.0
C1252 C 0.31894 0.84844 0.13755 0.0
C1253 C 0.3156 0.87812 0.14192 0.0
C1254 C 0.33718 0.89829 0.157 0.0
C1255 C 0.49056 0.97258 0.14091 0.0
C1256 C 0.47917 0.98535 0.11727 0.0
C1257 C 0.47359 0.96526 0.1644 0.0
C1258 C 0.44485 0.97057 0.16464 0.0
C1259 C 0.4348 0.98677 0.14251 0.0
C1260 C 0.45188 0.99405 0.11888 0.0
C1261 C 0.42406 0.95285 0.1835 0.0
C1262 C 0.40024 0.93378 0.17017 0.0
C1263 C 0.4307 0.94977 0.21287 0.0
C1264 C 0.45402 0.97087 0.22868 0.0
C1265 C 0.45479 1.00175 0.2275 0.0
C1266 C 0.47667 0.02162 0.24248 0.0
C1267 C 0.49808 0.01094 0.25855 0.0
C1268 C 0.49752 0.98031 0.25987 0.0
C1269 C 0.47554 0.96031 0.24513 0.0
H1270 H 0.51506 0.0264 0.27005 0.0
H1271 H 0.30217 0.83283 0.12595 0.0
H1272 H 0.1186 0.31118 0.6578 0.0
H1273 H 0.09782 0.27163 0.62284 0.0
H1274 H 0.11575 0.33199 0.55451 0.0
H1275 H 0.13689 0.37198 0.58964 0.0
H1276 H 0.05631 0.2916 0.55296 0.0
H1277 H 0.15783 0.28958 0.55448 0.0
H1278 H 0.20648 0.29189 0.57727 0.0
H1279 H 0.17555 0.21379 0.62314 0.0
H1280 H 0.12658 0.2113 0.60098 0.0
H1281 H 0.06299 0.12029 0.51529 0.0
H1282 H 0.07979 0.17282 0.50601 0.0
H1283 H 0.01539 0.19757 0.562 0.0
H1284 H 0.99858 0.14553 0.57065 0.0
H1285 H 0.10529 0.2033 0.54933 0.0
H1286 H 1.00594 0.26648 0.55996 0.0
H1287 H 0.95736 0.26393 0.53703 0.0
H1288 H 0.98419 0.21949 0.46264 0.0
H1289 H 0.03308 0.22214 0.48491 0.0
C1290 C 0.11784 0.31619 0.63538 0.0
C1291 C 0.12935 0.34468 0.62646 0.0
C1292 C 0.10604 0.29356 0.61543 0.0
C1293 C 0.10529 0.29892 0.58613 0.0
C1294 C 0.1161 0.32749 0.57705 0.0
C1295 C 0.12831 0.35017 0.59708 0.0
C1296 C 0.09436 0.27382 0.56545 0.0
C1297 C 0.06703 0.27232 0.55166 0.0
C1298 C 0.10898 0.24924 0.56298 0.0
C1299 C 0.13851 0.25032 0.5761 0.0
C1300 C 0.16136 0.273 0.56955 0.0
C1301 C 0.189 0.27433 0.58235 0.0
C1302 C 0.1941 0.25301 0.60165 0.0
C1303 C 0.17158 0.23028 0.60816 0.0
C1304 C 0.14388 0.22887 0.59544 0.0
C1305 C 0.05125 0.13691 0.52398 0.0
C1306 C 0.02953 0.12908 0.54365 0.0
C1307 C 0.06104 0.16697 0.51894 0.0
C1308 C 0.04918 0.18937 0.53358 0.0
C1309 C 0.02479 0.18099 0.55008 0.0
C1310 C 0.0151 0.1511 0.55508 0.0
C1311 C 0.06609 0.22002 0.53813 0.0
C1312 C 0.09471 0.2227 0.54931 0.0
C1313 C 0.05265 0.24564 0.53784 0.0
C1314 C 0.02332 0.24457 0.52414 0.0
C1315 C 1.00165 0.25646 0.53858 0.0
C1316 C 0.97399 0.25493 0.52572 0.0
C1317 C 0.96772 0.24164 0.49837 0.0
C1318 C 0.98908 0.22981 0.48382 0.0
C1319 C 0.01676 0.23129 0.49657 0.0
H1320 H 0.94627 0.2404 0.4885 0.0
H1321 H 0.21551 0.25409 0.61156 0.0
H1322 H 0.65594 0.28282 0.48319 0.0
H1323 H 0.63965 0.32956 0.49721 0.0
H1324 H 0.55818 0.29956 0.45057 0.0
H1325 H 0.57472 0.25301 0.43632 0.0
H1326 H 0.57771 0.3576 0.44267 0.0
H1327 H 0.56506 0.2946 0.52353 0.0
H1328 H 0.58103 0.26386 0.56112 0.0
H1329 H 0.64187 0.33899 0.59559 0.0
H1330 H 0.62654 0.37008 0.55792 0.0
H1331 H 0.48747 0.4489 0.50107 0.0
H1332 H 0.50845 0.40392 0.49261 0.0
H1333 H 0.58883 0.44691 0.53467 0.0
H1334 H 0.56809 0.49232 0.54254 0.0
H1335 H 0.57348 0.38483 0.54593 0.0
H1336 H 0.5863 0.44818 0.46684 0.0
H1337 H 0.57082 0.47994 0.42992 0.0
H1338 H 0.51137 0.40533 0.39242 0.0
H1339 H 0.52613 0.3732 0.42945 0.0
C1340 C 0.63478 0.28656 0.47558 0.0
C1341 C 0.61659 0.26466 0.45856 0.0
C1342 C 0.62537 0.31308 0.48379 0.0
C1343 C 0.59749 0.31795 0.47532 0.0
C1344 C 0.57974 0.29634 0.45742 0.0
C1345 C 0.58918 0.26983 0.44922 0.0
C1346 C 0.58645 0.34513 0.48556 0.0
C1347 C 0.57653 0.36332 0.46525 0.0
C1348 C 0.58569 0.35324 0.51506 0.0
C1349 C 0.59489 0.33457 0.53771 0.0
C1350 C 0.58202 0.30449 0.53897 0.0
C1351 C 0.59092 0.28702 0.56032 0.0
C1352 C 0.61252 0.29943 0.58067 0.0
C1353 C 0.62519 0.32938 0.57977 0.0
C1354 C 0.61639 0.34694 0.55844 0.0
C1355 C 0.50935 0.4485 0.50923 0.0
C1356 C 0.52598 0.47402 0.5229 0.0
C1357 C 0.52136 0.42283 0.50427 0.0
C1358 C 0.55032 0.42219 0.5127 0.0
C1359 C 0.5664 0.44689 0.5281 0.0
C1360 C 0.55438 0.47271 0.53296 0.0
C1361 C 0.5643 0.39679 0.50302 0.0
C1362 C 0.57482 0.37908 0.52337 0.0
C1363 C 0.56585 0.38919 0.47357 0.0
C1364 C 0.55712 0.40834 0.45108 0.0
C1365 C 0.56975 0.43859 0.45086 0.0
C1366 C 0.56114 0.45666 0.4299 0.0
C1367 C 0.54008 0.44468 0.40888 0.0
C1368 C 0.52765 0.41458 0.40874 0.0
C1369 C 0.53615 0.39642 0.4297 0.0
H1370 H 0.53344 0.4587 0.39266 0.0
H1371 H 0.61937 0.28587 0.59719 0.0
loop_
_geom_bond_atom_site_label_1
_geom_bond_atom_site_label_2
_geom_bond_distance
_geom_bond_site_symmetry_2
_ccdc_geom_bond_type
H0 C3 0.929 . S
H1 C6 0.929 . S
H2 C8 0.930 . S
C3 H0 0.929 . S
C3 C4 1.398 . S
C3 C5 1.396 . S
C4 C3 1.398 . S
C4 C8 1.407 . S
C5 C3 1.396 . S
C5 C6 1.394 . S
C6 H1 0.929 . S
C6 C5 1.394 . S
C6 C7 1.382 . S
C7 C6 1.382 . S
C7 C8 1.392 . S
C7 N9 1.420 . S
C8 H2 0.930 . S
C8 C4 1.407 . S
C8 C7 1.392 . S
N9 C7 1.420 . S
N9 C10 1.244 . S
C10 N9 1.244 . S
H11 C14 0.929 . S
H12 C17 0.929 . S
H13 C19 0.930 . S
C14 H11 0.929 . S
C14 C15 1.398 . S
C14 C16 1.396 . S
C15 C14 1.398 . S
C15 C19 1.407 . S
C16 C14 1.396 . S
C16 C17 1.394 . S
C17 H12 0.929 . S
C17 C16 1.394 . S
C17 C18 1.382 . S
C18 C17 1.382 . S
C18 C19 1.392 . S
C18 N20 1.420 . S
C19 H13 0.930 . S
C19 C15 1.407 . S
C19 C18 1.392 . S
N20 C18 1.420 . S
N20 C21 1.244 . S
C21 N20 1.244 . S
H22 C25 0.929 . S
H23 C28 0.929 . S
H24 C30 0.930 . S
C25 H22 0.929 . S
C25 C26 1.398 . S
C25 C27 1.396 . S
C26 C25 1.398 . S
C26 C30 1.407 . S
C27 C25 1.396 . S
C27 C28 1.394 . S
C28 H23 0.929 . S
C28 C27 1.394 . S
C28 C29 1.382 . S
C29 C28 1.382 . S
C29 C30 1.392 . S
C29 N31 1.420 . S
C30 H24 0.930 . S
C30 C26 1.407 . S
C30 C29 1.392 . S
N31 C29 1.420 . S
N31 C32 1.244 . S
C32 N31 1.244 . S
H33 C36 0.929 . S
H34 C39 0.929 . S
H35 C41 0.930 . S
C36 H33 0.929 . S
C36 C37 1.398 . S
C36 C38 1.396 . S
C37 C36 1.398 . S
C37 C41 1.407 . S
C38 C36 1.396 . S
C38 C39 1.394 . S
C39 H34 0.929 . S
C39 C38 1.394 . S
C39 C40 1.382 . S
C40 C39 1.382 . S
C40 C41 1.392 . S
C40 N42 1.420 . S
C41 H35 0.930 . S
C41 C37 1.407 . S
C41 C40 1.392 . S
N42 C40 1.420 . S
N42 C43 1.244 . S
C43 N42 1.244 . S
H44 C47 0.929 . S
H45 C50 0.929 . S
H46 C52 0.930 . S
C47 H44 0.929 . S
C47 C48 1.398 . S
C47 C49 1.396 . S
C48 C47 1.398 . S
C48 C52 1.407 . S
C49 C47 1.396 . S
C49 C50 1.394 . S
C50 H45 0.929 . S
C50 C49 1.394 . S
C50 C51 1.382 . S
C51 C50 1.382 . S
C51 C52 1.392 . S
C51 N53 1.420 . S
C52 H46 0.930 . S
C52 C48 1.407 . S
C52 C51 1.392 . S
N53 C51 1.420 . S
N53 C54 1.244 . S
C54 N53 1.244 . S
H55 C58 0.929 . S
H56 C61 0.929 . S
H57 C63 0.930 . S
C58 H55 0.929 . S
C58 C59 1.398 . S
C58 C60 1.396 . S
C59 C58 1.398 . S
C59 C63 1.407 . S
C60 C58 1.396 . S
C60 C61 1.394 . S
C61 H56 0.929 . S
C61 C60 1.394 . S
C61 C62 1.382 . S
C62 C61 1.382 . S
C62 C63 1.392 . S
C62 N64 1.420 . S
C63 H57 0.930 . S
C63 C59 1.407 . S
C63 C62 1.392 . S
N64 C62 1.420 . S
N64 C65 1.244 . S
C65 N64 1.244 . S
H66 C69 0.929 . S
H67 C72 0.929 . S
H68 C74 0.930 . S
C69 H66 0.929 . S
C69 C70 1.398 . S
C69 C71 1.396 . S
C70 C69 1.398 . S
C70 C74 1.407 . S
C71 C69 1.396 . S
C71 C72 1.394 . S
C72 H67 0.929 . S
C72 C71 1.394 . S
C72 C73 1.382 . S
C73 C72 1.382 . S
C73 C74 1.392 . S
C73 N75 1.420 . S
C74 H68 0.930 . S
C74 C70 1.407 . S
C74 C73 1.392 . S
N75 C73 1.420 . S
N75 C76 1.244 . S
C76 N75 1.244 . S
H77 C80 0.929 . S
H78 C83 0.929 . S
H79 C85 0.930 . S
C80 H77 0.929 . S
C80 C81 1.398 . S
C80 C82 1.396 . S
C81 C80 1.398 . S
C81 C85 1.407 . S
C82 C80 1.396 . S
C82 C83 1.394 . S
C83 H78 0.929 . S
C83 C82 1.394 . S
C83 C84 1.382 . S
C84 C83 1.382 . S
C84 C85 1.392 . S
C84 N86 1.420 . S
C85 H79 0.930 . S
C85 C81 1.407 . S
C85 C84 1.392 . S
N86 C84 1.420 . S
N86 C87 1.244 . S
C87 N86 1.244 . S
O88 Mn89 2.163 1_655 S
O88 C102 1.244 . S
Mn89 O88 2.163 1_455 S
Mn89 O92 2.160 . S
Mn89 O93 2.221 . S
Mn89 O95 2.163 1_455 S
Mn89 O97 2.160 . S
Mn89 O107 2.221 1_445 S
O90 Mn91 2.087 1_545 S
O90 C102 1.256 . S
Mn91 O90 2.087 1_565 S
Mn91 O98 2.089 1_565 S
Mn91 O107 2.290 . S
Mn91 O108 2.251 . S
O92 Mn89 2.160 . S
O92 C103 1.239 . S
O93 Mn89 2.221 . S
O93 Mn94 2.290 . S
O93 C104 1.278 . S
Mn94 O93 2.290 . S
Mn94 O96 2.089 . S
Mn94 O99 2.251 . S
Mn94 O100 2.087 . S
O95 Mn89 2.163 1_655 S
O95 C105 1.244 . S
O96 Mn94 2.089 . S
O96 C103 1.256 . S
O97 Mn89 2.160 . S
O97 C106 1.239 . S
O98 Mn91 2.089 1_545 S
O98 C106 1.256 1_655 S
O99 Mn94 2.251 . S
O99 C104 1.241 . S
O100 Mn94 2.087 . S
O100 C105 1.256 1_455 S
C101 O107 1.278 . S
C101 O108 1.241 . S
C102 O88 1.244 . S
C102 O90 1.256 . S
C103 O92 1.239 . S
C103 O96 1.256 . S
C104 O93 1.278 . S
C104 O99 1.241 . S
C105 O95 1.244 . S
C105 O100 1.256 1_655 S
C106 O97 1.239 . S
C106 O98 1.256 1_455 S
O107 Mn89 2.221 1_665 S
O107 Mn91 2.290 . S
O107 C101 1.278 . S
O108 Mn91 2.251 . S
O108 C101 1.241 . S
O109 Mn110 2.163 1_556 S
O109 C123 1.244 . S
Mn110 O109 2.163 1_554 S
Mn110 O113 2.160 . S
Mn110 O114 2.221 . S
Mn110 O116 2.163 . S
Mn110 O118 2.160 . S
Mn110 O128 2.221 1_545 S
O111 Mn112 2.087 1_556 S
O111 C123 1.256 1_565 S
Mn112 O111 2.087 1_554 S
Mn112 O119 2.089 . S
Mn112 O128 2.290 . S
Mn112 O129 2.251 . S
O113 Mn110 2.160 . S
O113 C124 1.239 . S
O114 Mn110 2.221 . S
O114 Mn115 2.290 . S
O114 C125 1.278 . S
Mn115 O114 2.290 . S
Mn115 O117 2.089 . S
Mn115 O120 2.251 . S
Mn115 O121 2.087 . S
O116 Mn110 2.163 . S
O116 C126 1.244 . S
O117 Mn115 2.089 . S
O117 C124 1.256 . S
O118 Mn110 2.160 . S
O118 C127 1.239 . S
O119 Mn112 2.089 . S
O119 C127 1.256 1_565 S
O120 Mn115 2.251 . S
O120 C125 1.241 . S
O121 Mn115 2.087 . S
O121 C126 1.256 . S
C122 O128 1.278 . S
C122 O129 1.241 . S
C123 O109 1.244 . S
C123 O111 1.256 1_545 S
C124 O113 1.239 . S
C124 O117 1.256 . S
C125 O114 1.278 . S
C125 O120 1.241 . S
C126 O116 1.244 . S
C126 O121 1.256 . S
C127 O118 1.239 . S
C127 O119 1.256 1_545 S
O128 Mn110 2.221 1_565 S
O128 Mn112 2.290 . S
O128 C122 1.278 . S
O129 Mn112 2.251 . S
O129 C122 1.241 . S
O130 Mn131 2.163 . S
O130 C144 1.244 . S
Mn131 O130 2.163 . S
Mn131 O134 2.160 . S
Mn131 O135 2.221 . S
Mn131 O137 2.163 . S
Mn131 O139 2.160 . S
Mn131 O149 2.221 . S
O132 Mn133 2.087 . S
O132 C144 1.256 . S
Mn133 O132 2.087 . S
Mn133 O140 2.089 . S
Mn133 O149 2.290 . S
Mn133 O150 2.251 . S
O134 Mn131 2.160 . S
O134 C145 1.239 . S
O135 Mn131 2.221 . S
O135 Mn136 2.290 . S
O135 C146 1.278 . S
Mn136 O135 2.290 . S
Mn136 O138 2.089 . S
Mn136 O141 2.251 . S
Mn136 O142 2.087 . S
O137 Mn131 2.163 . S
O137 C147 1.244 . S
O138 Mn136 2.089 . S
O138 C145 1.256 . S
O139 Mn131 2.160 . S
O139 C148 1.239 . S
O140 Mn133 2.089 . S
O140 C148 1.256 . S
O141 Mn136 2.251 . S
O141 C146 1.241 . S
O142 Mn136 2.087 . S
O142 C147 1.256 . S
C143 O149 1.278 . S
C143 O150 1.241 . S
C144 O130 1.244 . S
C144 O132 1.256 . S
C145 O134 1.239 . S
C145 O138 1.256 . S
C146 O135 1.278 . S
C146 O141 1.241 . S
C147 O137 1.244 . S
C147 O142 1.256 . S
C148 O139 1.239 . S
C148 O140 1.256 . S
O149 Mn131 2.221 . S
O149 Mn133 2.290 . S
O149 C143 1.278 . S
O150 Mn133 2.251 . S
O150 C143 1.241 . S
O151 Mn152 2.163 1_655 S
O151 C165 1.244 1_554 S
Mn152 O151 2.163 1_455 S
Mn152 O155 2.160 . S
Mn152 O156 2.221 . S
Mn152 O158 2.163 . S
Mn152 O160 2.160 . S
Mn152 O170 2.221 1_554 S
O153 Mn154 2.087 . S
O153 C165 1.256 . S
Mn154 O153 2.087 . S
Mn154 O161 2.089 . S
Mn154 O170 2.290 1_655 S
Mn154 O171 2.251 1_655 S
O155 Mn152 2.160 . S
O155 C166 1.239 . S
O156 Mn152 2.221 . S
O156 Mn157 2.290 . S
O156 C167 1.278 1_455 S
Mn157 O156 2.290 . S
Mn157 O159 2.089 . S
Mn157 O162 2.251 1_455 S
Mn157 O163 2.087 . S
O158 Mn152 2.163 . S
O158 C168 1.244 . S
O159 Mn157 2.089 . S
O159 C166 1.256 . S
O160 Mn152 2.160 . S
O160 C169 1.239 1_454 S
O161 Mn154 2.089 . S
O161 C169 1.256 . S
O162 Mn157 2.251 1_655 S
O162 C167 1.241 . S
O163 Mn157 2.087 . S
O163 C168 1.256 . S
C164 O170 1.278 . S
C164 O171 1.241 . S
C165 O151 1.244 1_556 S
C165 O153 1.256 . S
C166 O155 1.239 . S
C166 O159 1.256 . S
C167 O156 1.278 1_655 S
C167 O162 1.241 . S
C168 O158 1.244 . S
C168 O163 1.256 . S
C169 O160 1.239 1_656 S
C169 O161 1.256 . S
O170 Mn152 2.221 1_556 S
O170 Mn154 2.290 1_455 S
O170 C164 1.278 . S
O171 Mn154 2.251 1_455 S
O171 C164 1.241 . S
H172 C190 0.951 . S
H173 C192 0.951 . S
H174 C194 0.950 . S
H175 C195 0.950 . S
H176 C197 0.950 . S
H177 C200 0.950 . S
H178 C201 0.950 . S
H179 C203 0.950 . S
H180 C204 0.950 . S
H181 C205 0.951 . S
H182 C207 0.951 . S
H183 C209 0.950 . S
H184 C210 0.950 . S
H185 C212 0.950 . S
H186 C215 0.950 . S
H187 C216 0.950 . S
H188 C218 0.950 . S
H189 C219 0.950 1_455 S
C190 H172 0.951 . S
C190 C191 1.366 . S
C190 C192 1.388 . S
C191 C190 1.366 . S
C191 C195 1.385 . S
C192 H173 0.951 . S
C192 C190 1.388 . S
C192 C193 1.366 . S
C193 C192 1.366 . S
C193 C194 1.414 . S
C193 C196 1.499 . S
C194 H174 0.950 . S
C194 C193 1.414 . S
C194 C195 1.374 . S
C195 H175 0.950 . S
C195 C191 1.385 . S
C195 C194 1.374 . S
C196 C193 1.499 . S
C196 C197 1.373 . S
C196 C198 1.389 . S
C197 H176 0.950 . S
C197 C196 1.373 . S
C197 C213 1.377 . S
C198 C196 1.389 . S
C198 C199 1.524 . S
C198 C212 1.377 . S
C199 C198 1.524 . S
C199 C200 1.397 . S
C199 C204 1.363 . S
C200 H177 0.950 . S
C200 C199 1.397 . S
C200 C201 1.334 . S
C201 H178 0.950 . S
C201 C200 1.334 . S
C201 C202 1.287 . S
C202 C201 1.287 . S
C202 C203 1.524 . S
C202 H221 0.913 . S
C203 H179 0.950 . S
C203 C202 1.524 . S
C203 C204 1.415 . S
C204 H180 0.950 . S
C204 C199 1.363 . S
C204 C203 1.415 . S
C205 H181 0.951 . S
C205 C206 1.366 . S
C205 C207 1.388 . S
C206 C205 1.366 . S
C206 C210 1.385 . S
C207 H182 0.951 . S
C207 C205 1.388 . S
C207 C208 1.366 . S
C208 C207 1.366 . S
C208 C209 1.414 . S
C208 C211 1.499 . S
C209 H183 0.950 . S
C209 C208 1.414 . S
C209 C210 1.374 . S
C210 H184 0.950 . S
C210 C206 1.385 . S
C210 C209 1.374 . S
C211 C208 1.499 . S
C211 C212 1.373 . S
C211 C213 1.389 . S
C212 H185 0.950 . S
C212 C198 1.377 . S
C212 C211 1.373 . S
C213 C197 1.377 . S
C213 C211 1.389 . S
C213 C214 1.524 . S
C214 C213 1.524 . S
C214 C215 1.397 . S
C214 C219 1.363 1_455 S
C215 H186 0.950 . S
C215 C214 1.397 . S
C215 C216 1.334 1_455 S
C216 H187 0.950 . S
C216 C215 1.334 1_655 S
C216 C217 1.287 . S
C217 C216 1.287 . S
C217 C218 1.524 . S
C217 H220 0.999 . S
C218 H188 0.950 . S
C218 C217 1.524 . S
C218 C219 1.415 . S
C219 H189 0.950 1_655 S
C219 C214 1.363 1_655 S
C219 C218 1.415 . S
H220 C217 0.999 . S
H221 C202 0.913 . S
H222 C240 0.951 . S
H223 C242 0.951 . S
H224 C244 0.950 . S
H225 C245 0.950 . S
H226 C247 0.950 . S
H227 C250 0.950 . S
H228 C251 0.950 . S
H229 C253 0.950 . S
H230 C254 0.954 . S
H231 C255 0.951 . S
H232 C257 0.951 . S
H233 C259 0.950 . S
H234 C260 0.950 . S
H235 C262 0.950 . S
H236 C265 0.950 . S
H237 C266 0.950 . S
H238 C268 0.950 . S
H239 C269 0.950 . S
C240 H222 0.951 . S
C240 C241 1.366 . S
C240 C242 1.388 . S
C241 C240 1.366 . S
C241 C245 1.385 . S
C242 H223 0.951 . S
C242 C240 1.388 . S
C242 C243 1.366 . S
C243 C242 1.366 . S
C243 C244 1.414 . S
C243 C246 1.499 . S
C244 H224 0.950 . S
C244 C243 1.414 . S
C244 C245 1.374 . S
C245 H225 0.950 . S
C245 C241 1.385 . S
C245 C244 1.374 . S
C246 C243 1.499 . S
C246 C247 1.373 . S
C246 C248 1.389 . S
C247 H226 0.950 . S
C247 C246 1.373 . S
C247 C263 1.377 . S
C248 C246 1.389 . S
C248 C249 1.524 . S
C248 C262 1.377 . S
C249 C248 1.524 . S
C249 C250 1.397 . S
C249 C254 1.363 . S
C250 H227 0.950 . S
C250 C249 1.397 . S
C250 C251 1.334 . S
C251 H228 0.950 . S
C251 C250 1.334 . S
C251 C252 1.287 . S
C252 C251 1.287 . S
C252 C253 1.524 . S
C252 H271 0.913 . S
C253 H229 0.950 . S
C253 C252 1.524 . S
C253 C254 1.415 . S
C254 H230 0.954 . S
C254 C249 1.363 . S
C254 C253 1.415 . S
C255 H231 0.951 . S
C255 C256 1.366 1_565 S
C255 C257 1.388 . S
C256 C255 1.366 1_545 S
C256 C260 1.385 . S
C257 H232 0.951 . S
C257 C255 1.388 . S
C257 C258 1.366 . S
C258 C257 1.366 . S
C258 C259 1.414 1_565 S
C258 C261 1.499 . S
C259 H233 0.950 . S
C259 C258 1.414 1_545 S
C259 C260 1.374 . S
C260 H234 0.950 . S
C260 C256 1.385 . S
C260 C259 1.374 . S
C261 C258 1.499 . S
C261 C262 1.373 . S
C261 C263 1.389 . S
C262 H235 0.950 . S
C262 C248 1.377 . S
C262 C261 1.373 . S
C263 C247 1.377 . S
C263 C261 1.389 . S
C263 C264 1.524 . S
C264 C263 1.524 . S
C264 C265 1.397 1_565 S
C264 C269 1.363 . S
C265 H236 0.950 . S
C265 C264 1.397 1_545 S
C265 C266 1.334 . S
C266 H237 0.950 . S
C266 C265 1.334 . S
C266 C267 1.275 1_545 S
C267 C266 1.275 1_565 S
C267 C268 1.545 . S
C267 H270 0.992 1_565 S
C268 H238 0.950 . S
C268 C267 1.545 . S
C268 C269 1.415 . S
C269 H239 0.950 . S
C269 C264 1.363 . S
C269 C268 1.415 . S
H270 C267 0.992 1_545 S
H271 C252 0.913 . S
H272 C290 0.951 . S
H273 C292 0.951 . S
H274 C294 0.950 . S
H275 C295 0.950 . S
H276 C297 0.950 . S
H277 C300 0.950 . S
H278 C301 0.950 . S
H279 C303 0.950 . S
H280 C304 0.950 . S
H281 C305 0.951 . S
H282 C307 0.951 . S
H283 C309 0.950 . S
H284 C310 0.950 . S
H285 C312 0.950 . S
H286 C315 0.950 . S
H287 C316 0.950 . S
H288 C318 0.950 . S
H289 C319 0.950 . S
C290 H272 0.951 . S
C290 C291 1.366 . S
C290 C292 1.388 . S
C291 C290 1.366 . S
C291 C295 1.385 . S
C292 H273 0.951 . S
C292 C290 1.388 . S
C292 C293 1.366 . S
C293 C292 1.366 . S
C293 C294 1.414 . S
C293 C296 1.499 . S
C294 H274 0.950 . S
C294 C293 1.414 . S
C294 C295 1.374 . S
C295 H275 0.950 . S
C295 C291 1.385 . S
C295 C294 1.374 . S
C296 C293 1.499 . S
C296 C297 1.373 . S
C296 C298 1.389 . S
C297 H276 0.950 . S
C297 C296 1.373 . S
C297 C313 1.377 . S
C298 C296 1.389 . S
C298 C299 1.524 . S
C298 C312 1.377 . S
C299 C298 1.524 . S
C299 C300 1.397 . S
C299 C304 1.363 . S
C300 H277 0.950 . S
C300 C299 1.397 . S
C300 C301 1.334 . S
C301 H278 0.950 . S
C301 C300 1.334 . S
C301 C302 1.287 . S
C302 C301 1.287 . S
C302 C303 1.524 . S
C302 H321 0.913 . S
C303 H279 0.950 . S
C303 C302 1.524 . S
C303 C304 1.415 . S
C304 H280 0.950 . S
C304 C299 1.363 . S
C304 C303 1.415 . S
C305 H281 0.951 . S
C305 C306 1.366 . S
C305 C307 1.388 . S
C306 C305 1.366 . S
C306 C310 1.385 . S
C307 H282 0.951 . S
C307 C305 1.388 . S
C307 C308 1.366 . S
C308 C307 1.366 . S
C308 C309 1.414 . S
C308 C311 1.499 . S
C309 H283 0.950 . S
C309 C308 1.414 . S
C309 C310 1.374 . S
C310 H284 0.950 . S
C310 C306 1.385 . S
C310 C309 1.374 . S
C311 C308 1.499 . S
C311 C312 1.373 . S
C311 C313 1.389 . S
C312 H285 0.950 . S
C312 C298 1.377 . S
C312 C311 1.373 . S
C313 C297 1.377 . S
C313 C311 1.389 . S
C313 C314 1.524 . S
C314 C313 1.524 . S
C314 C315 1.397 . S
C314 C319 1.363 . S
C315 H286 0.950 . S
C315 C314 1.397 . S
C315 C316 1.334 . S
C316 H287 0.950 . S
C316 C315 1.334 . S
C316 C317 1.287 . S
C317 C316 1.287 . S
C317 C318 1.524 . S
C317 H320 0.999 . S
C318 H288 0.950 . S
C318 C317 1.524 . S
C318 C319 1.415 . S
C319 H289 0.950 . S
C319 C314 1.363 . S
C319 C318 1.415 . S
H320 C317 0.999 . S
H321 C302 0.913 . S
H322 C340 0.951 . S
H323 C342 0.951 . S
H324 C344 0.950 . S
H325 C345 0.950 . S
H326 C347 0.950 . S
H327 C350 0.950 . S
H328 C351 0.950 . S
H329 C353 0.950 . S
H330 C354 0.948 1_455 S
H331 C355 0.951 . S
H332 C357 0.951 . S
H333 C359 0.950 . S
H334 C360 0.950 1_455 S
H335 C362 0.950 . S
H336 C365 0.950 . S
H337 C366 0.950 . S
H338 C368 0.950 . S
H339 C369 0.950 . S
C340 H322 0.951 . S
C340 C341 1.366 . S
C340 C342 1.388 . S
C341 C340 1.366 . S
C341 C345 1.385 . S
C342 H323 0.951 . S
C342 C340 1.388 . S
C342 C343 1.366 . S
C343 C342 1.366 . S
C343 C344 1.414 . S
C343 C346 1.499 . S
C344 H324 0.950 . S
C344 C343 1.414 . S
C344 C345 1.374 . S
C345 H325 0.950 . S
C345 C341 1.385 . S
C345 C344 1.374 . S
C346 C343 1.499 . S
C346 C347 1.373 . S
C346 C348 1.389 . S
C347 H326 0.950 . S
C347 C346 1.373 . S
C347 C363 1.377 . S
C348 C346 1.389 . S
C348 C349 1.524 . S
C348 C362 1.377 . S
C349 C348 1.524 . S
C349 C350 1.397 . S
C349 C354 1.367 . S
C350 H327 0.950 . S
C350 C349 1.397 . S
C350 C351 1.334 . S
C351 H328 0.950 . S
C351 C350 1.334 . S
C351 C352 1.287 . S
C352 C351 1.287 . S
C352 C353 1.524 1_655 S
C352 H371 0.913 1_655 S
C353 H329 0.950 . S
C353 C352 1.524 1_455 S
C353 C354 1.413 1_455 S
C354 H330 0.948 1_655 S
C354 C349 1.367 . S
C354 C353 1.413 1_655 S
C355 H331 0.951 . S
C355 C356 1.366 . S
C355 C357 1.388 . S
C356 C355 1.366 . S
C356 C360 1.385 . S
C357 H332 0.951 . S
C357 C355 1.388 . S
C357 C358 1.366 . S
C358 C357 1.366 . S
C358 C359 1.414 . S
C358 C361 1.499 . S
C359 H333 0.950 . S
C359 C358 1.414 . S
C359 C360 1.374 . S
C360 H334 0.950 1_655 S
C360 C356 1.385 . S
C360 C359 1.374 . S
C361 C358 1.499 . S
C361 C362 1.373 . S
C361 C363 1.389 . S
C362 H335 0.950 . S
C362 C348 1.377 . S
C362 C361 1.373 . S
C363 C347 1.377 . S
C363 C361 1.389 . S
C363 C364 1.524 . S
C364 C363 1.524 . S
C364 C365 1.397 . S
C364 C369 1.363 . S
C365 H336 0.950 . S
C365 C364 1.397 . S
C365 C366 1.334 . S
C366 H337 0.950 . S
C366 C365 1.334 . S
C366 C367 1.287 . S
C367 C366 1.287 . S
C367 C368 1.524 . S
C367 H370 0.999 . S
C368 H338 0.950 . S
C368 C367 1.524 . S
C368 C369 1.415 . S
C369 H339 0.950 . S
C369 C364 1.363 . S
C369 C368 1.415 . S
H370 C367 0.999 . S
H371 C352 0.913 1_455 S
H372 C390 0.951 . S
H373 C392 0.951 . S
H374 C394 0.950 . S
H375 C395 0.950 . S
H376 C397 0.950 . S
H377 C400 0.950 . S
H378 C401 0.950 . S
H379 C403 0.950 . S
H380 C404 0.950 . S
H381 C405 0.951 . S
H382 C407 0.951 . S
H383 C409 0.950 . S
H384 C410 0.950 . S
H385 C412 0.950 . S
H386 C415 0.950 . S
H387 C416 0.950 . S
H388 C418 0.950 . S
H389 C419 0.950 . S
C390 H372 0.951 . S
C390 C391 1.366 . S
C390 C392 1.388 . S
C391 C390 1.366 . S
C391 C395 1.385 . S
C392 H373 0.951 . S
C392 C390 1.388 . S
C392 C393 1.366 . S
C393 C392 1.366 . S
C393 C394 1.414 . S
C393 C396 1.499 . S
C394 H374 0.950 . S
C394 C393 1.414 . S
C394 C395 1.374 . S
C395 H375 0.950 . S
C395 C391 1.385 . S
C395 C394 1.374 . S
C396 C393 1.499 . S
C396 C397 1.373 . S
C396 C398 1.389 . S
C397 H376 0.950 . S
C397 C396 1.373 . S
C397 C413 1.377 . S
C398 C396 1.389 . S
C398 C399 1.524 . S
C398 C412 1.377 . S
C399 C398 1.524 . S
C399 C400 1.397 . S
C399 C404 1.363 . S
C400 H377 0.950 . S
C400 C399 1.397 . S
C400 C401 1.334 . S
C401 H378 0.950 . S
C401 C400 1.334 . S
C401 C402 1.287 . S
C402 C401 1.287 . S
C402 C403 1.524 . S
C402 H421 0.913 . S
C403 H379 0.950 . S
C403 C402 1.524 . S
C403 C404 1.415 . S
C404 H380 0.950 . S
C404 C399 1.363 . S
C404 C403 1.415 . S
C405 H381 0.951 . S
C405 C406 1.366 . S
C405 C407 1.388 . S
C406 C405 1.366 . S
C406 C410 1.385 . S
C407 H382 0.951 . S
C407 C405 1.388 . S
C407 C408 1.366 . S
C408 C407 1.366 . S
C408 C409 1.414 . S
C408 C411 1.499 . S
C409 H383 0.950 . S
C409 C408 1.414 . S
C409 C410 1.374 . S
C410 H384 0.950 . S
C410 C406 1.385 . S
C410 C409 1.374 . S
C411 C408 1.499 . S
C411 C412 1.373 . S
C411 C413 1.389 . S
C412 H385 0.950 . S
C412 C398 1.377 . S
C412 C411 1.373 . S
C413 C397 1.377 . S
C413 C411 1.389 . S
C413 C414 1.524 . S
C414 C413 1.524 . S
C414 C415 1.397 . S
C414 C419 1.363 . S
C415 H386 0.950 . S
C415 C414 1.397 . S
C415 C416 1.334 . S
C416 H387 0.950 . S
C416 C415 1.334 . S
C416 C417 1.287 1_545 S
C417 C416 1.287 1_565 S
C417 C418 1.524 . S
C417 H420 0.999 . S
C418 H388 0.950 . S
C418 C417 1.524 . S
C418 C419 1.415 1_565 S
C419 H389 0.950 . S
C419 C414 1.363 . S
C419 C418 1.415 1_545 S
H420 C417 0.999 . S
H421 C402 0.913 . S
H422 C440 0.951 . S
H423 C442 0.951 . S
H424 C444 0.950 . S
H425 C445 0.950 . S
H426 C447 0.950 1_545 S
H427 C450 0.950 . S
H428 C451 0.950 . S
H429 C453 0.950 . S
H430 C454 0.950 . S
H431 C455 0.962 . S
H432 C457 0.951 . S
H433 C459 0.950 . S
H434 C460 0.950 . S
H435 C462 0.950 . S
H436 C465 0.950 . S
H437 C466 0.950 . S
H438 C468 0.950 . S
H439 C469 0.950 . S
C440 H422 0.951 . S
C440 C441 1.366 . S
C440 C442 1.388 . S
C441 C440 1.366 . S
C441 C445 1.385 . S
C442 H423 0.951 . S
C442 C440 1.388 . S
C442 C443 1.366 . S
C443 C442 1.366 . S
C443 C444 1.414 . S
C443 C446 1.499 . S
C444 H424 0.950 . S
C444 C443 1.414 . S
C444 C445 1.374 . S
C445 H425 0.950 . S
C445 C441 1.385 . S
C445 C444 1.374 . S
C446 C443 1.499 . S
C446 C447 1.373 . S
C446 C448 1.389 . S
C447 H426 0.950 1_565 S
C447 C446 1.373 . S
C447 C463 1.377 . S
C448 C446 1.389 . S
C448 C449 1.524 . S
C448 C462 1.377 . S
C449 C448 1.524 . S
C449 C450 1.397 . S
C449 C454 1.363 . S
C450 H427 0.950 . S
C450 C449 1.397 . S
C450 C451 1.334 . S
C451 H428 0.950 . S
C451 C450 1.334 . S
C451 C452 1.287 . S
C452 C451 1.287 . S
C452 C453 1.524 . S
C452 H471 0.913 . S
C453 H429 0.950 . S
C453 C452 1.524 . S
C453 C454 1.415 . S
C454 H430 0.950 . S
C454 C449 1.363 . S
C454 C453 1.415 . S
C455 H431 0.962 . S
C455 C456 1.365 1_545 S
C455 C457 1.378 1_545 S
C456 C455 1.365 1_565 S
C456 C460 1.385 . S
C457 H432 0.951 . S
C457 C455 1.378 1_565 S
C457 C458 1.366 . S
C458 C457 1.366 . S
C458 C459 1.414 . S
C458 C461 1.499 . S
C459 H433 0.950 . S
C459 C458 1.414 . S
C459 C460 1.374 . S
C460 H434 0.950 . S
C460 C456 1.385 . S
C460 C459 1.374 . S
C461 C458 1.499 . S
C461 C462 1.373 . S
C461 C463 1.389 . S
C462 H435 0.950 . S
C462 C448 1.377 . S
C462 C461 1.373 . S
C463 C447 1.377 . S
C463 C461 1.389 . S
C463 C464 1.524 1_565 S
C464 C463 1.524 1_545 S
C464 C465 1.397 . S
C464 C469 1.363 . S
C465 H436 0.950 . S
C465 C464 1.397 . S
C465 C466 1.334 . S
C466 H437 0.950 . S
C466 C465 1.334 . S
C466 C467 1.287 . S
C467 C466 1.287 . S
C467 C468 1.524 . S
C467 H470 0.999 . S
C468 H438 0.950 . S
C468 C467 1.524 . S
C468 C469 1.415 . S
C469 H439 0.950 . S
C469 C464 1.363 . S
C469 C468 1.415 . S
H470 C467 0.999 . S
H471 C452 0.913 . S
H472 C490 0.951 . S
H473 C492 0.951 . S
H474 C494 0.950 . S
H475 C495 0.950 . S
H476 C497 0.950 . S
H477 C500 0.950 . S
H478 C501 0.950 . S
H479 C503 0.950 . S
H480 C504 0.950 . S
H481 C505 0.951 . S
H482 C507 0.951 . S
H483 C509 0.950 . S
H484 C510 0.950 1_554 S
H485 C512 0.950 . S
H486 C515 0.950 . S
H487 C516 0.950 . S
H488 C518 0.950 . S
H489 C519 0.950 . S
C490 H472 0.951 . S
C490 C491 1.366 . S
C490 C492 1.388 . S
C491 C490 1.366 . S
C491 C495 1.385 . S
C492 H473 0.951 . S
C492 C490 1.388 . S
C492 C493 1.366 . S
C493 C492 1.366 . S
C493 C494 1.414 . S
C493 C496 1.499 . S
C494 H474 0.950 . S
C494 C493 1.414 . S
C494 C495 1.374 . S
C495 H475 0.950 . S
C495 C491 1.385 . S
C495 C494 1.374 . S
C496 C493 1.499 . S
C496 C497 1.373 . S
C496 C498 1.389 . S
C497 H476 0.950 . S
C497 C496 1.373 . S
C497 C513 1.377 . S
C498 C496 1.389 . S
C498 C499 1.524 . S
C498 C512 1.377 . S
C499 C498 1.524 . S
C499 C500 1.397 . S
C499 C504 1.363 1_556 S
C500 H477 0.950 . S
C500 C499 1.397 . S
C500 C501 1.334 1_556 S
C501 H478 0.950 . S
C501 C500 1.334 1_554 S
C501 C502 1.287 . S
C502 C501 1.287 . S
C502 C503 1.524 . S
C502 H521 0.913 . S
C503 H479 0.950 . S
C503 C502 1.524 . S
C503 C504 1.415 . S
C504 H480 0.950 . S
C504 C499 1.363 1_554 S
C504 C503 1.415 . S
C505 H481 0.951 . S
C505 C506 1.366 . S
C505 C507 1.388 . S
C506 C505 1.366 . S
C506 C510 1.385 . S
C507 H482 0.951 . S
C507 C505 1.388 . S
C507 C508 1.366 . S
C508 C507 1.366 . S
C508 C509 1.414 . S
C508 C511 1.499 . S
C509 H483 0.950 . S
C509 C508 1.414 . S
C509 C510 1.374 . S
C510 H484 0.950 1_556 S
C510 C506 1.385 . S
C510 C509 1.374 . S
C511 C508 1.499 . S
C511 C512 1.373 . S
C511 C513 1.389 . S
C512 H485 0.950 . S
C512 C498 1.377 . S
C512 C511 1.373 . S
C513 C497 1.377 . S
C513 C511 1.389 . S
C513 C514 1.524 . S
C514 C513 1.524 . S
C514 C515 1.397 . S
C514 C519 1.363 . S
C515 H486 0.950 . S
C515 C514 1.397 . S
C515 C516 1.334 . S
C516 H487 0.950 . S
C516 C515 1.334 . S
C516 C517 1.287 . S
C517 C516 1.287 . S
C517 C518 1.524 . S
C517 H520 0.999 . S
C518 H488 0.950 . S
C518 C517 1.524 . S
C518 C519 1.415 . S
C519 H489 0.950 . S
C519 C514 1.363 . S
C519 C518 1.415 . S
H520 C517 0.999 . S
H521 C502 0.913 . S
H522 C540 0.951 . S
H523 C542 0.951 . S
H524 C544 0.950 . S
H525 C545 0.950 . S
H526 C547 0.950 . S
H527 C550 0.950 . S
H528 C551 0.950 . S
H529 C553 0.950 . S
H530 C554 0.950 . S
H531 C555 0.951 . S
H532 C557 0.951 . S
H533 C559 0.950 . S
H534 C560 0.950 . S
H535 C562 0.950 . S
H536 C565 0.950 . S
H537 C566 0.950 . S
H538 C568 0.950 . S
H539 C569 0.950 . S
C540 H522 0.951 . S
C540 C541 1.366 . S
C540 C542 1.388 . S
C541 C540 1.366 . S
C541 C545 1.385 . S
C542 H523 0.951 . S
C542 C540 1.388 . S
C542 C543 1.366 . S
C543 C542 1.366 . S
C543 C544 1.414 . S
C543 C546 1.499 . S
C544 H524 0.950 . S
C544 C543 1.414 . S
C544 C545 1.374 . S
C545 H525 0.950 . S
C545 C541 1.385 . S
C545 C544 1.374 . S
C546 C543 1.499 . S
C546 C547 1.373 . S
C546 C548 1.389 . S
C547 H526 0.950 . S
C547 C546 1.373 . S
C547 C563 1.377 . S
C548 C546 1.389 . S
C548 C549 1.524 . S
C548 C562 1.377 . S
C549 C548 1.524 . S
C549 C550 1.397 . S
C549 C554 1.363 . S
C550 H527 0.950 . S
C550 C549 1.397 . S
C550 C551 1.334 . S
C551 H528 0.950 . S
C551 C550 1.334 . S
C551 C552 1.287 . S
C552 C551 1.287 . S
C552 C553 1.524 . S
C552 H571 0.913 . S
C553 H529 0.950 . S
C553 C552 1.524 . S
C553 C554 1.415 . S
C554 H530 0.950 . S
C554 C549 1.363 . S
C554 C553 1.415 . S
C555 H531 0.951 . S
C555 C556 1.366 . S
C555 C557 1.388 . S
C556 C555 1.366 . S
C556 C560 1.385 . S
C557 H532 0.951 . S
C557 C555 1.388 . S
C557 C558 1.366 . S
C558 C557 1.366 . S
C558 C559 1.414 . S
C558 C561 1.499 . S
C559 H533 0.950 . S
C559 C558 1.414 . S
C559 C560 1.374 . S
C560 H534 0.950 . S
C560 C556 1.385 . S
C560 C559 1.374 . S
C561 C558 1.499 . S
C561 C562 1.373 . S
C561 C563 1.389 . S
C562 H535 0.950 . S
C562 C548 1.377 . S
C562 C561 1.373 . S
C563 C547 1.377 . S
C563 C561 1.389 . S
C563 C564 1.524 . S
C564 C563 1.524 . S
C564 C565 1.397 . S
C564 C569 1.363 . S
C565 H536 0.950 . S
C565 C564 1.397 . S
C565 C566 1.334 . S
C566 H537 0.950 . S
C566 C565 1.334 . S
C566 C567 1.287 . S
C567 C566 1.287 . S
C567 C568 1.524 . S
C567 H570 0.999 . S
C568 H538 0.950 . S
C568 C567 1.524 . S
C568 C569 1.415 . S
C569 H539 0.950 . S
C569 C564 1.363 . S
C569 C568 1.415 . S
H570 C567 0.999 . S
H571 C552 0.913 . S
H572 C590 0.951 . S
H573 C592 0.951 . S
H574 C594 0.950 . S
H575 C595 0.950 . S
H576 C597 0.950 . S
H577 C600 0.950 . S
H578 C601 0.950 . S
H579 C603 0.950 . S
H580 C604 0.950 . S
H581 C605 0.951 . S
H582 C607 0.951 . S
H583 C609 0.950 . S
H584 C610 0.950 . S
H585 C612 0.950 . S
H586 C615 0.950 . S
H587 C616 0.950 . S
H588 C618 0.950 . S
H589 C619 0.950 . S
C590 H572 0.951 . S
C590 C591 1.366 . S
C590 C592 1.388 . S
C591 C590 1.366 . S
C591 C595 1.385 . S
C592 H573 0.951 . S
C592 C590 1.388 . S
C592 C593 1.366 . S
C593 C592 1.366 . S
C593 C594 1.414 . S
C593 C596 1.499 . S
C594 H574 0.950 . S
C594 C593 1.414 . S
C594 C595 1.374 . S
C595 H575 0.950 . S
C595 C591 1.385 . S
C595 C594 1.374 . S
C596 C593 1.499 . S
C596 C597 1.373 . S
C596 C598 1.389 . S
C597 H576 0.950 . S
C597 C596 1.373 . S
C597 C613 1.377 . S
C598 C596 1.389 . S
C598 C599 1.524 . S
C598 C612 1.377 . S
C599 C598 1.524 . S
C599 C600 1.397 . S
C599 C604 1.363 . S
C600 H577 0.950 . S
C600 C599 1.397 . S
C600 C601 1.334 1_554 S
C601 H578 0.950 . S
C601 C600 1.334 1_556 S
C601 C602 1.287 . S
C602 C601 1.287 . S
C602 C603 1.524 . S
C602 H621 0.913 . S
C603 H579 0.950 . S
C603 C602 1.524 . S
C603 C604 1.415 1_556 S
C604 H580 0.950 . S
C604 C599 1.363 . S
C604 C603 1.415 1_554 S
C605 H581 0.951 . S
C605 C606 1.366 . S
C605 C607 1.388 . S
C606 C605 1.366 . S
C606 C610 1.385 . S
C607 H582 0.951 . S
C607 C605 1.388 . S
C607 C608 1.366 . S
C608 C607 1.366 . S
C608 C609 1.414 . S
C608 C611 1.499 . S
C609 H583 0.950 . S
C609 C608 1.414 . S
C609 C610 1.374 . S
C610 H584 0.950 . S
C610 C606 1.385 . S
C610 C609 1.374 . S
C611 C608 1.499 . S
C611 C612 1.373 . S
C611 C613 1.389 . S
C612 H585 0.950 . S
C612 C598 1.377 . S
C612 C611 1.373 . S
C613 C597 1.377 . S
C613 C611 1.389 . S
C613 C614 1.524 . S
C614 C613 1.524 . S
C614 C615 1.397 . S
C614 C619 1.363 . S
C615 H586 0.950 . S
C615 C614 1.397 . S
C615 C616 1.334 . S
C616 H587 0.950 . S
C616 C615 1.334 . S
C616 C617 1.287 . S
C617 C616 1.287 . S
C617 C618 1.524 . S
C617 H620 0.999 . S
C618 H588 0.950 . S
C618 C617 1.524 . S
C618 C619 1.415 . S
C619 H589 0.950 . S
C619 C614 1.363 . S
C619 C618 1.415 . S
H620 C617 0.999 . S
H621 C602 0.913 . S
H622 C640 0.951 . S
H623 C642 0.951 . S
H624 C644 0.950 . S
H625 C645 0.950 . S
H626 C647 0.950 . S
H627 C650 0.950 . S
H628 C651 0.950 . S
H629 C653 0.950 . S
H630 C654 0.950 . S
H631 C655 0.951 . S
H632 C657 0.951 . S
H633 C659 0.950 . S
H634 C660 0.950 . S
H635 C662 0.950 . S
H636 C665 0.950 1_556 S
H637 C666 0.950 . S
H638 C668 0.950 . S
H639 C669 0.950 . S
C640 H622 0.951 . S
C640 C641 1.366 . S
C640 C642 1.388 . S
C641 C640 1.366 . S
C641 C645 1.385 . S
C642 H623 0.951 . S
C642 C640 1.388 . S
C642 C643 1.366 . S
C643 C642 1.366 . S
C643 C644 1.414 . S
C643 C646 1.499 . S
C644 H624 0.950 . S
C644 C643 1.414 . S
C644 C645 1.374 . S
C645 H625 0.950 . S
C645 C641 1.385 . S
C645 C644 1.374 . S
C646 C643 1.499 . S
C646 C647 1.373 . S
C646 C648 1.389 . S
C647 H626 0.950 . S
C647 C646 1.373 . S
C647 C663 1.377 . S
C648 C646 1.389 . S
C648 C649 1.524 . S
C648 C662 1.377 . S
C649 C648 1.524 . S
C649 C650 1.397 . S
C649 C654 1.363 . S
C650 H627 0.950 . S
C650 C649 1.397 . S
C650 C651 1.334 . S
C651 H628 0.950 . S
C651 C650 1.334 . S
C651 C652 1.287 . S
C652 C651 1.287 . S
C652 C653 1.524 . S
C652 H671 0.913 . S
C653 H629 0.950 . S
C653 C652 1.524 . S
C653 C654 1.415 . S
C654 H630 0.950 . S
C654 C649 1.363 . S
C654 C653 1.415 . S
C655 H631 0.951 . S
C655 C656 1.366 1_554 S
C655 C657 1.388 . S
C656 C655 1.366 1_556 S
C656 C660 1.385 . S
C657 H632 0.951 . S
C657 C655 1.388 . S
C657 C658 1.366 1_554 S
C658 C657 1.366 1_556 S
C658 C659 1.414 . S
C658 C661 1.499 . S
C659 H633 0.950 . S
C659 C658 1.414 . S
C659 C660 1.374 . S
C660 H634 0.950 . S
C660 C656 1.385 . S
C660 C659 1.374 . S
C661 C658 1.499 . S
C661 C662 1.373 . S
C661 C663 1.389 . S
C662 H635 0.950 . S
C662 C648 1.377 . S
C662 C661 1.373 . S
C663 C647 1.377 . S
C663 C661 1.389 . S
C663 C664 1.524 1_556 S
C664 C663 1.524 1_554 S
C664 C665 1.397 . S
C664 C669 1.363 . S
C665 H636 0.950 1_554 S
C665 C664 1.397 . S
C665 C666 1.334 . S
C666 H637 0.950 . S
C666 C665 1.334 . S
C666 C667 1.287 . S
C667 C666 1.287 . S
C667 C668 1.524 . S
C667 H670 0.999 . S
C668 H638 0.950 . S
C668 C667 1.524 . S
C668 C669 1.415 . S
C669 H639 0.950 . S
C669 C664 1.363 . S
C669 C668 1.415 . S
H670 C667 0.999 . S
H671 C652 0.913 . S
H672 C690 0.951 . S
H673 C692 0.951 . S
H674 C694 0.950 . S
H675 C695 0.950 . S
H676 C697 0.950 . S
H677 C700 0.950 . S
H678 C701 0.950 . S
H679 C703 0.950 . S
H680 C704 0.950 . S
H681 C705 0.951 1_455 S
H682 C707 0.951 . S
H683 C709 0.950 . S
H684 C710 0.950 . S
H685 C712 0.950 . S
H686 C715 0.950 . S
H687 C716 0.950 . S
H688 C718 0.950 . S
H689 C719 0.950 . S
C690 H672 0.951 . S
C690 C691 1.366 . S
C690 C692 1.388 . S
C691 C690 1.366 . S
C691 C695 1.385 . S
C692 H673 0.951 . S
C692 C690 1.388 . S
C692 C693 1.366 . S
C693 C692 1.366 . S
C693 C694 1.414 . S
C693 C696 1.499 . S
C694 H674 0.950 . S
C694 C693 1.414 . S
C694 C695 1.374 . S
C695 H675 0.950 . S
C695 C691 1.385 . S
C695 C694 1.374 . S
C696 C693 1.499 . S
C696 C697 1.373 . S
C696 C698 1.389 . S
C697 H676 0.950 . S
C697 C696 1.373 . S
C697 C713 1.377 . S
C698 C696 1.389 . S
C698 C699 1.524 . S
C698 C712 1.377 . S
C699 C698 1.524 . S
C699 C700 1.397 . S
C699 C704 1.363 . S
C700 H677 0.950 . S
C700 C699 1.397 . S
C700 C701 1.334 . S
C701 H678 0.950 . S
C701 C700 1.334 . S
C701 C702 1.287 . S
C702 C701 1.287 . S
C702 C703 1.524 . S
C702 H721 0.913 . S
C703 H679 0.950 . S
C703 C702 1.524 . S
C703 C704 1.415 . S
C704 H680 0.950 . S
C704 C699 1.363 . S
C704 C703 1.415 . S
C705 H681 0.951 1_655 S
C705 C706 1.366 . S
C705 C707 1.388 . S
C706 C705 1.366 . S
C706 C710 1.385 . S
C707 H682 0.951 . S
C707 C705 1.388 . S
C707 C708 1.366 . S
C708 C707 1.366 . S
C708 C709 1.414 . S
C708 C711 1.499 . S
C709 H683 0.950 . S
C709 C708 1.414 . S
C709 C710 1.374 . S
C710 H684 0.950 . S
C710 C706 1.385 . S
C710 C709 1.374 . S
C711 C708 1.499 . S
C711 C712 1.373 . S
C711 C713 1.389 . S
C712 H685 0.950 . S
C712 C698 1.377 . S
C712 C711 1.373 . S
C713 C697 1.377 . S
C713 C711 1.389 . S
C713 C714 1.524 . S
C714 C713 1.524 . S
C714 C715 1.397 . S
C714 C719 1.363 1_655 S
C715 H686 0.950 . S
C715 C714 1.397 . S
C715 C716 1.334 1_655 S
C716 H687 0.950 . S
C716 C715 1.334 1_455 S
C716 C717 1.287 . S
C717 C716 1.287 . S
C717 C718 1.524 . S
C717 H720 0.999 . S
C718 H688 0.950 . S
C718 C717 1.524 . S
C718 C719 1.415 . S
C719 H689 0.950 . S
C719 C714 1.363 1_455 S
C719 C718 1.415 . S
H720 C717 0.999 . S
H721 C702 0.913 . S
H722 C740 0.951 . S
H723 C742 0.951 . S
H724 C744 0.950 . S
H725 C745 0.950 . S
H726 C747 0.950 . S
H727 C750 0.950 . S
H728 C751 0.950 . S
H729 C753 0.950 . S
H730 C754 0.950 . S
H731 C755 0.951 . S
H732 C757 0.951 . S
H733 C759 0.950 . S
H734 C760 0.950 . S
H735 C762 0.950 . S
H736 C765 0.950 . S
H737 C766 0.950 . S
H738 C768 0.950 . S
H739 C769 0.950 . S
C740 H722 0.951 . S
C740 C741 1.366 . S
C740 C742 1.388 . S
C741 C740 1.366 . S
C741 C745 1.385 . S
C742 H723 0.951 . S
C742 C740 1.388 . S
C742 C743 1.366 . S
C743 C742 1.366 . S
C743 C744 1.414 . S
C743 C746 1.499 . S
C744 H724 0.950 . S
C744 C743 1.414 . S
C744 C745 1.374 . S
C745 H725 0.950 . S
C745 C741 1.385 . S
C745 C744 1.374 . S
C746 C743 1.499 . S
C746 C747 1.373 . S
C746 C748 1.389 . S
C747 H726 0.950 . S
C747 C746 1.373 . S
C747 C763 1.377 . S
C748 C746 1.389 . S
C748 C749 1.524 . S
C748 C762 1.377 . S
C749 C748 1.524 . S
C749 C750 1.397 . S
C749 C754 1.363 . S
C750 H727 0.950 . S
C750 C749 1.397 . S
C750 C751 1.334 . S
C751 H728 0.950 . S
C751 C750 1.334 . S
C751 C752 1.287 . S
C752 C751 1.287 . S
C752 C753 1.524 . S
C752 H771 0.913 . S
C753 H729 0.950 . S
C753 C752 1.524 . S
C753 C754 1.415 . S
C754 H730 0.950 . S
C754 C749 1.363 . S
C754 C753 1.415 . S
C755 H731 0.951 . S
C755 C756 1.366 . S
C755 C757 1.388 . S
C756 C755 1.366 . S
C756 C760 1.385 . S
C757 H732 0.951 . S
C757 C755 1.388 . S
C757 C758 1.366 . S
C758 C757 1.366 . S
C758 C759 1.414 . S
C758 C761 1.499 . S
C759 H733 0.950 . S
C759 C758 1.414 . S
C759 C760 1.374 . S
C760 H734 0.950 . S
C760 C756 1.385 . S
C760 C759 1.374 . S
C761 C758 1.499 . S
C761 C762 1.373 . S
C761 C763 1.389 . S
C762 H735 0.950 . S
C762 C748 1.377 . S
C762 C761 1.373 . S
C763 C747 1.377 . S
C763 C761 1.389 . S
C763 C764 1.524 . S
C764 C763 1.524 . S
C764 C765 1.397 . S
C764 C769 1.363 . S
C765 H736 0.950 . S
C765 C764 1.397 . S
C765 C766 1.334 . S
C766 H737 0.950 . S
C766 C765 1.334 . S
C766 C767 1.287 . S
C767 C766 1.287 . S
C767 C768 1.524 . S
C767 H770 0.999 . S
C768 H738 0.950 . S
C768 C767 1.524 . S
C768 C769 1.415 . S
C769 H739 0.950 . S
C769 C764 1.363 . S
C769 C768 1.415 . S
H770 C767 0.999 . S
H771 C752 0.913 . S
H772 C790 0.951 . S
H773 C792 0.951 . S
H774 C794 0.950 . S
H775 C795 0.950 . S
H776 C797 0.950 . S
H777 C800 0.950 . S
H778 C801 0.950 . S
H779 C803 0.950 . S
H780 C804 0.950 . S
H781 C805 0.951 . S
H782 C807 0.951 . S
H783 C809 0.950 . S
H784 C810 0.950 . S
H785 C812 0.950 . S
H786 C815 0.950 . S
H787 C816 0.950 . S
H788 C818 0.950 . S
H789 C819 0.950 1_655 S
C790 H772 0.951 . S
C790 C791 1.366 . S
C790 C792 1.388 . S
C791 C790 1.366 . S
C791 C795 1.385 . S
C792 H773 0.951 . S
C792 C790 1.388 . S
C792 C793 1.366 . S
C793 C792 1.366 . S
C793 C794 1.414 . S
C793 C796 1.499 . S
C794 H774 0.950 . S
C794 C793 1.414 . S
C794 C795 1.374 . S
C795 H775 0.950 . S
C795 C791 1.385 . S
C795 C794 1.374 . S
C796 C793 1.499 . S
C796 C797 1.373 . S
C796 C798 1.389 . S
C797 H776 0.950 . S
C797 C796 1.373 . S
C797 C813 1.377 . S
C798 C796 1.389 . S
C798 C799 1.524 . S
C798 C812 1.377 . S
C799 C798 1.524 . S
C799 C800 1.397 . S
C799 C804 1.363 1_565 S
C800 H777 0.950 . S
C800 C799 1.397 . S
C800 C801 1.334 . S
C801 H778 0.950 . S
C801 C800 1.334 . S
C801 C802 1.287 . S
C802 C801 1.287 . S
C802 C803 1.524 1_565 S
C802 H821 0.913 . S
C803 H779 0.950 . S
C803 C802 1.524 1_545 S
C803 C804 1.415 . S
C804 H780 0.950 . S
C804 C799 1.363 1_545 S
C804 C803 1.415 . S
C805 H781 0.951 . S
C805 C806 1.366 . S
C805 C807 1.388 . S
C806 C805 1.366 . S
C806 C810 1.385 1_565 S
C807 H782 0.951 . S
C807 C805 1.388 . S
C807 C808 1.366 . S
C808 C807 1.366 . S
C808 C809 1.414 1_565 S
C808 C811 1.499 . S
C809 H783 0.950 . S
C809 C808 1.414 1_545 S
C809 C810 1.374 . S
C810 H784 0.950 . S
C810 C806 1.385 1_545 S
C810 C809 1.374 . S
C811 C808 1.499 . S
C811 C812 1.373 . S
C811 C813 1.389 . S
C812 H785 0.950 . S
C812 C798 1.377 . S
C812 C811 1.373 . S
C813 C797 1.377 . S
C813 C811 1.389 . S
C813 C814 1.493 1_655 S
C814 C813 1.493 1_455 S
C814 C815 1.415 . S
C814 C819 1.376 . S
C815 H786 0.950 . S
C815 C814 1.415 . S
C815 C816 1.334 . S
C816 H787 0.950 . S
C816 C815 1.334 . S
C816 C817 1.287 . S
C817 C816 1.287 . S
C817 C818 1.524 . S
C817 H820 0.999 . S
C818 H788 0.950 . S
C818 C817 1.524 . S
C818 C819 1.415 . S
C819 H789 0.950 1_455 S
C819 C814 1.376 . S
C819 C818 1.415 . S
H820 C817 0.999 . S
H821 C802 0.913 . S
H822 C840 0.951 . S
H823 C842 0.951 . S
H824 C844 0.950 . S
H825 C845 0.950 . S
H826 C847 0.950 . S
H827 C850 0.950 . S
H828 C851 0.950 . S
H829 C853 0.950 . S
H830 C854 0.950 . S
H831 C855 0.951 . S
H832 C857 0.951 . S
H833 C859 0.950 . S
H834 C860 0.950 . S
H835 C862 0.950 . S
H836 C865 0.950 . S
H837 C866 0.950 . S
H838 C868 0.950 . S
H839 C869 0.950 . S
C840 H822 0.951 . S
C840 C841 1.366 . S
C840 C842 1.388 . S
C841 C840 1.366 . S
C841 C845 1.385 . S
C842 H823 0.951 . S
C842 C840 1.388 . S
C842 C843 1.366 . S
C843 C842 1.366 . S
C843 C844 1.414 . S
C843 C846 1.499 . S
C844 H824 0.950 . S
C844 C843 1.414 . S
C844 C845 1.374 . S
C845 H825 0.950 . S
C845 C841 1.385 . S
C845 C844 1.374 . S
C846 C843 1.499 . S
C846 C847 1.373 . S
C846 C848 1.389 . S
C847 H826 0.950 . S
C847 C846 1.373 . S
C847 C863 1.377 . S
C848 C846 1.389 . S
C848 C849 1.524 . S
C848 C862 1.377 . S
C849 C848 1.524 . S
C849 C850 1.397 . S
C849 C854 1.363 . S
C850 H827 0.950 . S
C850 C849 1.397 . S
C850 C851 1.334 . S
C851 H828 0.950 . S
C851 C850 1.334 . S
C851 C852 1.287 . S
C852 C851 1.287 . S
C852 C853 1.524 . S
C852 H871 0.913 . S
C853 H829 0.950 . S
C853 C852 1.524 . S
C853 C854 1.415 . S
C854 H830 0.950 . S
C854 C849 1.363 . S
C854 C853 1.415 . S
C855 H831 0.951 . S
C855 C856 1.366 . S
C855 C857 1.388 . S
C856 C855 1.366 . S
C856 C860 1.385 . S
C857 H832 0.951 . S
C857 C855 1.388 . S
C857 C858 1.366 . S
C858 C857 1.366 . S
C858 C859 1.414 . S
C858 C861 1.499 . S
C859 H833 0.950 . S
C859 C858 1.414 . S
C859 C860 1.374 . S
C860 H834 0.950 . S
C860 C856 1.385 . S
C860 C859 1.374 . S
C861 C858 1.499 . S
C861 C862 1.373 . S
C861 C863 1.389 . S
C862 H835 0.950 . S
C862 C848 1.377 . S
C862 C861 1.373 . S
C863 C847 1.377 . S
C863 C861 1.389 . S
C863 C864 1.524 . S
C864 C863 1.524 . S
C864 C865 1.397 . S
C864 C869 1.363 . S
C865 H836 0.950 . S
C865 C864 1.397 . S
C865 C866 1.334 . S
C866 H837 0.950 . S
C866 C865 1.334 . S
C866 C867 1.287 . S
C867 C866 1.287 . S
C867 C868 1.524 . S
C867 H870 0.999 . S
C868 H838 0.950 . S
C868 C867 1.524 . S
C868 C869 1.415 . S
C869 H839 0.950 . S
C869 C864 1.363 . S
C869 C868 1.415 . S
H870 C867 0.999 . S
H871 C852 0.913 . S
H872 C890 0.951 . S
H873 C892 0.951 . S
H874 C894 0.950 . S
H875 C895 0.950 . S
H876 C897 0.950 . S
H877 C900 0.950 . S
H878 C901 0.950 . S
H879 C903 0.950 . S
H880 C904 0.950 . S
H881 C905 0.951 . S
H882 C907 0.951 . S
H883 C909 0.950 . S
H884 C910 0.950 . S
H885 C912 0.950 . S
H886 C915 0.950 . S
H887 C916 0.950 . S
H888 C918 0.950 . S
H889 C919 0.950 . S
C890 H872 0.951 . S
C890 C891 1.366 . S
C890 C892 1.388 . S
C891 C890 1.366 . S
C891 C895 1.385 . S
C892 H873 0.951 . S
C892 C890 1.388 . S
C892 C893 1.366 . S
C893 C892 1.366 . S
C893 C894 1.414 . S
C893 C896 1.499 . S
C894 H874 0.950 . S
C894 C893 1.414 . S
C894 C895 1.374 . S
C895 H875 0.950 . S
C895 C891 1.385 . S
C895 C894 1.374 . S
C896 C893 1.499 . S
C896 C897 1.373 . S
C896 C898 1.389 . S
C897 H876 0.950 . S
C897 C896 1.373 . S
C897 C913 1.377 . S
C898 C896 1.389 . S
C898 C899 1.524 . S
C898 C912 1.377 . S
C899 C898 1.524 . S
C899 C900 1.397 . S
C899 C904 1.363 . S
C900 H877 0.950 . S
C900 C899 1.397 . S
C900 C901 1.334 . S
C901 H878 0.950 . S
C901 C900 1.334 . S
C901 C902 1.287 . S
C902 C901 1.287 . S
C902 C903 1.524 . S
C902 H921 0.913 . S
C903 H879 0.950 . S
C903 C902 1.524 . S
C903 C904 1.415 . S
C904 H880 0.950 . S
C904 C899 1.363 . S
C904 C903 1.415 . S
C905 H881 0.951 . S
C905 C906 1.366 . S
C905 C907 1.388 . S
C906 C905 1.366 . S
C906 C910 1.385 . S
C907 H882 0.951 . S
C907 C905 1.388 . S
C907 C908 1.366 . S
C908 C907 1.366 . S
C908 C909 1.414 . S
C908 C911 1.499 . S
C909 H883 0.950 . S
C909 C908 1.414 . S
C909 C910 1.374 . S
C910 H884 0.950 . S
C910 C906 1.385 . S
C910 C909 1.374 . S
C911 C908 1.499 . S
C911 C912 1.373 . S
C911 C913 1.389 . S
C912 H885 0.950 . S
C912 C898 1.377 . S
C912 C911 1.373 . S
C913 C897 1.377 . S
C913 C911 1.389 . S
C913 C914 1.524 . S
C914 C913 1.524 . S
C914 C915 1.397 . S
C914 C919 1.363 . S
C915 H886 0.950 . S
C915 C914 1.397 . S
C915 C916 1.334 . S
C916 H887 0.950 . S
C916 C915 1.334 . S
C916 C917 1.287 . S
C917 C916 1.287 . S
C917 C918 1.524 . S
C917 H920 0.999 . S
C918 H888 0.950 . S
C918 C917 1.524 . S
C918 C919 1.415 . S
C919 H889 0.950 . S
C919 C914 1.363 . S
C919 C918 1.415 . S
H920 C917 0.999 . S
H921 C902 0.913 . S
H922 C940 0.951 . S
H923 C942 0.951 . S
H924 C944 0.950 . S
H925 C945 0.950 . S
H926 C947 0.950 . S
H927 C950 0.950 . S
H928 C951 0.950 . S
H929 C953 0.950 . S
H930 C954 0.950 . S
H931 C955 0.975 . S
H932 C957 0.951 . S
H933 C959 0.950 . S
H934 C960 0.950 . S
H935 C962 0.950 . S
H936 C965 0.950 . S
H937 C966 0.950 . S
H938 C968 0.950 . S
H939 C969 0.950 . S
C940 H922 0.951 . S
C940 C941 1.366 . S
C940 C942 1.388 . S
C941 C940 1.366 . S
C941 C945 1.385 . S
C942 H923 0.951 . S
C942 C940 1.388 . S
C942 C943 1.366 . S
C943 C942 1.366 . S
C943 C944 1.414 . S
C943 C946 1.499 . S
C944 H924 0.950 . S
C944 C943 1.414 . S
C944 C945 1.374 . S
C945 H925 0.950 . S
C945 C941 1.385 . S
C945 C944 1.374 . S
C946 C943 1.499 . S
C946 C947 1.373 . S
C946 C948 1.389 . S
C947 H926 0.950 . S
C947 C946 1.373 . S
C947 C963 1.377 . S
C948 C946 1.389 . S
C948 C949 1.524 . S
C948 C962 1.377 . S
C949 C948 1.524 . S
C949 C950 1.397 . S
C949 C954 1.363 . S
C950 H927 0.950 . S
C950 C949 1.397 . S
C950 C951 1.334 . S
C951 H928 0.950 . S
C951 C950 1.334 . S
C951 C952 1.287 . S
C952 C951 1.287 . S
C952 C953 1.524 . S
C952 H971 0.913 . S
C953 H929 0.950 . S
C953 C952 1.524 . S
C953 C954 1.415 . S
C954 H930 0.950 . S
C954 C949 1.363 . S
C954 C953 1.415 . S
C955 H931 0.975 . S
C955 C956 1.366 . S
C955 C957 1.388 . S
C956 C955 1.366 . S
C956 C960 1.385 . S
C957 H932 0.951 . S
C957 C955 1.388 . S
C957 C958 1.366 . S
C958 C957 1.366 . S
C958 C959 1.414 . S
C958 C961 1.499 . S
C959 H933 0.950 . S
C959 C958 1.414 . S
C959 C960 1.374 . S
C960 H934 0.950 . S
C960 C956 1.385 . S
C960 C959 1.374 . S
C961 C958 1.499 . S
C961 C962 1.373 . S
C961 C963 1.389 . S
C962 H935 0.950 . S
C962 C948 1.377 . S
C962 C961 1.373 . S
C963 C947 1.377 . S
C963 C961 1.389 . S
C963 C964 1.524 . S
C964 C963 1.524 . S
C964 C965 1.397 . S
C964 C969 1.363 1_455 S
C965 H936 0.950 . S
C965 C964 1.397 . S
C965 C966 1.334 . S
C966 H937 0.950 . S
C966 C965 1.334 . S
C966 C967 1.287 1_455 S
C967 C966 1.287 1_655 S
C967 C968 1.524 . S
C967 H970 0.999 . S
C968 H938 0.950 . S
C968 C967 1.524 . S
C968 C969 1.415 . S
C969 H939 0.950 . S
C969 C964 1.363 1_655 S
C969 C968 1.415 . S
H970 C967 0.999 . S
H971 C952 0.913 . S
H972 C990 0.951 . S
H973 C992 0.951 . S
H974 C994 0.950 . S
H975 C995 0.950 . S
H976 C997 0.950 . S
H977 C1000 0.950 . S
H978 C1001 0.950 . S
H979 C1003 0.950 1_545 S
H980 C1004 0.950 1_545 S
H981 C1005 0.951 . S
H982 C1007 0.951 . S
H983 C1009 0.950 . S
H984 C1010 0.950 . S
H985 C1012 0.950 1_554 S
H986 C1015 0.950 . S
H987 C1016 0.950 . S
H988 C1018 0.950 . S
H989 C1019 0.950 . S
C990 H972 0.951 . S
C990 C991 1.366 . S
C990 C992 1.388 . S
C991 C990 1.366 . S
C991 C995 1.385 . S
C992 H973 0.951 . S
C992 C990 1.388 . S
C992 C993 1.366 . S
C993 C992 1.366 . S
C993 C994 1.414 . S
C993 C996 1.499 . S
C994 H974 0.950 . S
C994 C993 1.414 . S
C994 C995 1.374 . S
C995 H975 0.950 . S
C995 C991 1.385 . S
C995 C994 1.374 . S
C996 C993 1.499 . S
C996 C997 1.373 . S
C996 C998 1.389 . S
C997 H976 0.950 . S
C997 C996 1.373 . S
C997 C1013 1.377 . S
C998 C996 1.389 . S
C998 C999 1.524 1_556 S
C998 C1012 1.377 . S
C999 C998 1.524 1_554 S
C999 C1000 1.397 . S
C999 C1004 1.363 . S
C1000 H977 0.950 . S
C1000 C999 1.397 . S
C1000 C1001 1.334 . S
C1001 H978 0.950 . S
C1001 C1000 1.334 . S
C1001 C1002 1.287 . S
C1002 C1001 1.287 . S
C1002 C1003 1.524 . S
C1002 H1021 0.913 . S
C1003 H979 0.950 1_565 S
C1003 C1002 1.524 . S
C1003 C1004 1.415 . S
C1004 H980 0.950 1_565 S
C1004 C999 1.363 . S
C1004 C1003 1.415 . S
C1005 H981 0.951 . S
C1005 C1006 1.366 1_566 S
C1005 C1007 1.388 . S
C1006 C1005 1.366 1_544 S
C1006 C1010 1.385 . S
C1007 H982 0.951 . S
C1007 C1005 1.388 . S
C1007 C1008 1.366 . S
C1008 C1007 1.366 . S
C1008 C1009 1.414 1_566 S
C1008 C1011 1.499 . S
C1009 H983 0.950 . S
C1009 C1008 1.414 1_544 S
C1009 C1010 1.374 . S
C1010 H984 0.950 . S
C1010 C1006 1.385 . S
C1010 C1009 1.374 . S
C1011 C1008 1.499 . S
C1011 C1012 1.373 . S
C1011 C1013 1.389 . S
C1012 H985 0.950 1_556 S
C1012 C998 1.377 . S
C1012 C1011 1.373 . S
C1013 C997 1.377 . S
C1013 C1011 1.389 . S
C1013 C1014 1.524 . S
C1014 C1013 1.524 . S
C1014 C1015 1.397 1_565 S
C1014 C1019 1.363 . S
C1015 H986 0.950 . S
C1015 C1014 1.397 1_545 S
C1015 C1016 1.334 . S
C1016 H987 0.950 . S
C1016 C1015 1.334 . S
C1016 C1017 1.287 1_545 S
C1017 C1016 1.287 1_565 S
C1017 C1018 1.524 . S
C1017 H1020 0.999 1_565 S
C1018 H988 0.950 . S
C1018 C1017 1.524 . S
C1018 C1019 1.415 . S
C1019 H989 0.950 . S
C1019 C1014 1.363 . S
C1019 C1018 1.415 . S
H1020 C1017 0.999 1_545 S
H1021 C1002 0.913 . S
H1022 C1040 0.951 . S
H1023 C1042 0.951 . S
H1024 C1044 0.950 . S
H1025 C1045 0.950 . S
H1026 C1047 0.950 . S
H1027 C1050 0.950 . S
H1028 C1051 0.950 . S
H1029 C1053 0.950 . S
H1030 C1054 0.950 . S
H1031 C1055 0.951 . S
H1032 C1057 0.951 . S
H1033 C1059 0.950 . S
H1034 C1060 0.950 . S
H1035 C1062 0.950 . S
H1036 C1065 0.950 . S
H1037 C1066 0.950 . S
H1038 C1068 0.950 . S
H1039 C1069 0.950 . S
C1040 H1022 0.951 . S
C1040 C1041 1.366 . S
C1040 C1042 1.388 . S
C1041 C1040 1.366 . S
C1041 C1045 1.385 . S
C1042 H1023 0.951 . S
C1042 C1040 1.388 . S
C1042 C1043 1.366 . S
C1043 C1042 1.366 . S
C1043 C1044 1.414 . S
C1043 C1046 1.499 . S
C1044 H1024 0.950 . S
C1044 C1043 1.414 . S
C1044 C1045 1.374 . S
C1045 H1025 0.950 . S
C1045 C1041 1.385 . S
C1045 C1044 1.374 . S
C1046 C1043 1.499 . S
C1046 C1047 1.373 . S
C1046 C1048 1.389 . S
C1047 H1026 0.950 . S
C1047 C1046 1.373 . S
C1047 C1063 1.377 . S
C1048 C1046 1.389 . S
C1048 C1049 1.524 . S
C1048 C1062 1.377 . S
C1049 C1048 1.524 . S
C1049 C1050 1.397 . S
C1049 C1054 1.363 . S
C1050 H1027 0.950 . S
C1050 C1049 1.397 . S
C1050 C1051 1.334 . S
C1051 H1028 0.950 . S
C1051 C1050 1.334 . S
C1051 C1052 1.287 . S
C1052 C1051 1.287 . S
C1052 C1053 1.524 . S
C1052 H1071 0.913 . S
C1053 H1029 0.950 . S
C1053 C1052 1.524 . S
C1053 C1054 1.415 . S
C1054 H1030 0.950 . S
C1054 C1049 1.363 . S
C1054 C1053 1.415 . S
C1055 H1031 0.951 . S
C1055 C1056 1.366 . S
C1055 C1057 1.388 . S
C1056 C1055 1.366 . S
C1056 C1060 1.385 . S
C1057 H1032 0.951 . S
C1057 C1055 1.388 . S
C1057 C1058 1.366 . S
C1058 C1057 1.366 . S
C1058 C1059 1.414 . S
C1058 C1061 1.499 . S
C1059 H1033 0.950 . S
C1059 C1058 1.414 . S
C1059 C1060 1.374 . S
C1060 H1034 0.950 . S
C1060 C1056 1.385 . S
C1060 C1059 1.374 . S
C1061 C1058 1.499 . S
C1061 C1062 1.373 . S
C1061 C1063 1.389 . S
C1062 H1035 0.950 . S
C1062 C1048 1.377 . S
C1062 C1061 1.373 . S
C1063 C1047 1.377 . S
C1063 C1061 1.389 . S
C1063 C1064 1.524 . S
C1064 C1063 1.524 . S
C1064 C1065 1.397 . S
C1064 C1069 1.363 . S
C1065 H1036 0.950 . S
C1065 C1064 1.397 . S
C1065 C1066 1.334 . S
C1066 H1037 0.950 . S
C1066 C1065 1.334 . S
C1066 C1067 1.287 . S
C1067 C1066 1.287 . S
C1067 C1068 1.524 . S
C1067 H1070 0.999 . S
C1068 H1038 0.950 . S
C1068 C1067 1.524 . S
C1068 C1069 1.415 . S
C1069 H1039 0.950 . S
C1069 C1064 1.363 . S
C1069 C1068 1.415 . S
H1070 C1067 0.999 . S
H1071 C1052 0.913 . S
H1072 C1090 0.951 . S
H1073 C1092 0.951 . S
H1074 C1094 0.950 . S
H1075 C1095 0.950 . S
H1076 C1097 0.950 . S
H1077 C1100 0.950 . S
H1078 C1101 0.950 . S
H1079 C1103 0.950 . S
H1080 C1104 0.950 . S
H1081 C1105 0.951 . S
H1082 C1107 0.951 . S
H1083 C1109 0.950 . S
H1084 C1110 0.950 . S
H1085 C1112 0.950 . S
H1086 C1115 0.950 . S
H1087 C1116 0.950 1_556 S
H1088 C1118 0.950 . S
H1089 C1119 0.950 . S
C1090 H1072 0.951 . S
C1090 C1091 1.366 . S
C1090 C1092 1.388 . S
C1091 C1090 1.366 . S
C1091 C1095 1.385 . S
C1092 H1073 0.951 . S
C1092 C1090 1.388 . S
C1092 C1093 1.366 . S
C1093 C1092 1.366 . S
C1093 C1094 1.414 . S
C1093 C1096 1.499 . S
C1094 H1074 0.950 . S
C1094 C1093 1.414 . S
C1094 C1095 1.374 . S
C1095 H1075 0.950 . S
C1095 C1091 1.385 . S
C1095 C1094 1.374 . S
C1096 C1093 1.499 . S
C1096 C1097 1.373 . S
C1096 C1098 1.389 . S
C1097 H1076 0.950 . S
C1097 C1096 1.373 . S
C1097 C1113 1.377 . S
C1098 C1096 1.389 . S
C1098 C1099 1.524 . S
C1098 C1112 1.377 . S
C1099 C1098 1.524 . S
C1099 C1100 1.397 . S
C1099 C1104 1.363 . S
C1100 H1077 0.950 . S
C1100 C1099 1.397 . S
C1100 C1101 1.334 . S
C1101 H1078 0.950 . S
C1101 C1100 1.334 . S
C1101 C1102 1.287 . S
C1102 C1101 1.287 . S
C1102 C1103 1.524 . S
C1102 H1121 0.913 . S
C1103 H1079 0.950 . S
C1103 C1102 1.524 . S
C1103 C1104 1.415 . S
C1104 H1080 0.950 . S
C1104 C1099 1.363 . S
C1104 C1103 1.415 . S
C1105 H1081 0.951 . S
C1105 C1106 1.366 . S
C1105 C1107 1.388 . S
C1106 C1105 1.366 . S
C1106 C1110 1.385 . S
C1107 H1082 0.951 . S
C1107 C1105 1.388 . S
C1107 C1108 1.366 . S
C1108 C1107 1.366 . S
C1108 C1109 1.414 . S
C1108 C1111 1.499 . S
C1109 H1083 0.950 . S
C1109 C1108 1.414 . S
C1109 C1110 1.374 . S
C1110 H1084 0.950 . S
C1110 C1106 1.385 . S
C1110 C1109 1.374 . S
C1111 C1108 1.499 . S
C1111 C1112 1.373 . S
C1111 C1113 1.389 . S
C1112 H1085 0.950 . S
C1112 C1098 1.377 . S
C1112 C1111 1.373 . S
C1113 C1097 1.377 . S
C1113 C1111 1.389 . S
C1113 C1114 1.524 . S
C1114 C1113 1.524 . S
C1114 C1115 1.397 . S
C1114 C1119 1.363 . S
C1115 H1086 0.950 . S
C1115 C1114 1.397 . S
C1115 C1116 1.334 . S
C1116 H1087 0.950 1_554 S
C1116 C1115 1.334 . S
C1116 C1117 1.287 1_554 S
C1117 C1116 1.287 1_556 S
C1117 C1118 1.524 . S
C1117 H1120 0.999 . S
C1118 H1088 0.950 . S
C1118 C1117 1.524 . S
C1118 C1119 1.415 1_556 S
C1119 H1089 0.950 . S
C1119 C1114 1.363 . S
C1119 C1118 1.415 1_554 S
H1120 C1117 0.999 . S
H1121 C1102 0.913 . S
H1122 C1140 0.951 . S
H1123 C1142 0.951 . S
H1124 C1144 0.950 . S
H1125 C1145 0.950 . S
H1126 C1147 0.950 . S
H1127 C1150 0.950 . S
H1128 C1151 0.950 . S
H1129 C1153 0.950 . S
H1130 C1154 0.950 . S
H1131 C1155 0.951 . S
H1132 C1157 0.951 . S
H1133 C1159 0.950 . S
H1134 C1160 0.950 . S
H1135 C1162 0.950 . S
H1136 C1165 0.950 . S
H1137 C1166 0.950 . S
H1138 C1168 0.950 . S
H1139 C1169 0.950 . S
C1140 H1122 0.951 . S
C1140 C1141 1.366 . S
C1140 C1142 1.388 . S
C1141 C1140 1.366 . S
C1141 C1145 1.385 . S
C1142 H1123 0.951 . S
C1142 C1140 1.388 . S
C1142 C1143 1.366 . S
C1143 C1142 1.366 . S
C1143 C1144 1.414 . S
C1143 C1146 1.499 . S
C1144 H1124 0.950 . S
C1144 C1143 1.414 . S
C1144 C1145 1.374 . S
C1145 H1125 0.950 . S
C1145 C1141 1.385 . S
C1145 C1144 1.374 . S
C1146 C1143 1.499 . S
C1146 C1147 1.373 . S
C1146 C1148 1.389 . S
C1147 H1126 0.950 . S
C1147 C1146 1.373 . S
C1147 C1163 1.377 . S
C1148 C1146 1.389 . S
C1148 C1149 1.524 . S
C1148 C1162 1.377 . S
C1149 C1148 1.524 . S
C1149 C1150 1.397 . S
C1149 C1154 1.363 . S
C1150 H1127 0.950 . S
C1150 C1149 1.397 . S
C1150 C1151 1.334 . S
C1151 H1128 0.950 . S
C1151 C1150 1.334 . S
C1151 C1152 1.287 . S
C1152 C1151 1.287 . S
C1152 C1153 1.524 . S
C1152 H1171 0.913 . S
C1153 H1129 0.950 . S
C1153 C1152 1.524 . S
C1153 C1154 1.415 . S
C1154 H1130 0.950 . S
C1154 C1149 1.363 . S
C1154 C1153 1.415 . S
C1155 H1131 0.951 . S
C1155 C1156 1.366 . S
C1155 C1157 1.388 . S
C1156 C1155 1.366 . S
C1156 C1160 1.385 . S
C1157 H1132 0.951 . S
C1157 C1155 1.388 . S
C1157 C1158 1.366 . S
C1158 C1157 1.366 . S
C1158 C1159 1.414 . S
C1158 C1161 1.499 . S
C1159 H1133 0.950 . S
C1159 C1158 1.414 . S
C1159 C1160 1.374 . S
C1160 H1134 0.950 . S
C1160 C1156 1.385 . S
C1160 C1159 1.374 . S
C1161 C1158 1.499 . S
C1161 C1162 1.373 . S
C1161 C1163 1.389 . S
C1162 H1135 0.950 . S
C1162 C1148 1.377 . S
C1162 C1161 1.373 . S
C1163 C1147 1.377 . S
C1163 C1161 1.389 . S
C1163 C1164 1.524 . S
C1164 C1163 1.524 . S
C1164 C1165 1.397 . S
C1164 C1169 1.363 . S
C1165 H1136 0.950 . S
C1165 C1164 1.397 . S
C1165 C1166 1.334 . S
C1166 H1137 0.950 . S
C1166 C1165 1.334 . S
C1166 C1167 1.287 . S
C1167 C1166 1.287 . S
C1167 C1168 1.524 . S
C1167 H1170 0.999 . S
C1168 H1138 0.950 . S
C1168 C1167 1.524 . S
C1168 C1169 1.415 . S
C1169 H1139 0.950 . S
C1169 C1164 1.363 . S
C1169 C1168 1.415 . S
H1170 C1167 0.999 . S
H1171 C1152 0.913 . S
H1172 C1190 0.951 . S
H1173 C1192 0.951 . S
H1174 C1194 0.950 . S
H1175 C1195 0.950 . S
H1176 C1197 0.950 . S
H1177 C1200 0.950 . S
H1178 C1201 0.950 . S
H1179 C1203 0.950 1_455 S
H1180 C1204 0.926 1_455 S
H1181 C1205 0.951 . S
H1182 C1207 0.951 . S
H1183 C1209 0.950 1_455 S
H1184 C1210 0.950 . S
H1185 C1212 0.950 . S
H1186 C1215 0.950 . S
H1187 C1216 0.950 . S
H1188 C1218 0.950 . S
H1189 C1219 0.950 . S
C1190 H1172 0.951 . S
C1190 C1191 1.366 . S
C1190 C1192 1.388 . S
C1191 C1190 1.366 . S
C1191 C1195 1.385 . S
C1192 H1173 0.951 . S
C1192 C1190 1.388 . S
C1192 C1193 1.366 . S
C1193 C1192 1.366 . S
C1193 C1194 1.414 . S
C1193 C1196 1.499 . S
C1194 H1174 0.950 . S
C1194 C1193 1.414 . S
C1194 C1195 1.374 . S
C1195 H1175 0.950 . S
C1195 C1191 1.385 . S
C1195 C1194 1.374 . S
C1196 C1193 1.499 . S
C1196 C1197 1.373 . S
C1196 C1198 1.389 . S
C1197 H1176 0.950 . S
C1197 C1196 1.373 . S
C1197 C1213 1.377 . S
C1198 C1196 1.389 . S
C1198 C1199 1.524 . S
C1198 C1212 1.377 . S
C1199 C1198 1.524 . S
C1199 C1200 1.397 . S
C1199 C1204 1.363 . S
C1200 H1177 0.950 . S
C1200 C1199 1.397 . S
C1200 C1201 1.334 . S
C1201 H1178 0.950 . S
C1201 C1200 1.334 . S
C1201 C1202 1.287 . S
C1202 C1201 1.287 . S
C1202 C1203 1.524 . S
C1202 H1221 0.913 . S
C1203 H1179 0.950 1_655 S
C1203 C1202 1.524 . S
C1203 C1204 1.415 . S
C1204 H1180 0.926 1_655 S
C1204 C1199 1.363 . S
C1204 C1203 1.415 . S
C1205 H1181 0.951 . S
C1205 C1206 1.366 . S
C1205 C1207 1.388 . S
C1206 C1205 1.366 . S
C1206 C1210 1.385 1_655 S
C1207 H1182 0.951 . S
C1207 C1205 1.388 . S
C1207 C1208 1.366 . S
C1208 C1207 1.366 . S
C1208 C1209 1.414 . S
C1208 C1211 1.499 . S
C1209 H1183 0.950 1_655 S
C1209 C1208 1.414 . S
C1209 C1210 1.374 1_655 S
C1210 H1184 0.950 . S
C1210 C1206 1.385 1_455 S
C1210 C1209 1.374 1_455 S
C1211 C1208 1.499 . S
C1211 C1212 1.373 . S
C1211 C1213 1.389 . S
C1212 H1185 0.950 . S
C1212 C1198 1.377 . S
C1212 C1211 1.373 . S
C1213 C1197 1.377 . S
C1213 C1211 1.389 . S
C1213 C1214 1.524 1_556 S
C1214 C1213 1.524 1_554 S
C1214 C1215 1.397 . S
C1214 C1219 1.363 . S
C1215 H1186 0.950 . S
C1215 C1214 1.397 . S
C1215 C1216 1.334 . S
C1216 H1187 0.950 . S
C1216 C1215 1.334 . S
C1216 C1217 1.287 . S
C1217 C1216 1.287 . S
C1217 C1218 1.524 . S
C1217 H1220 0.999 . S
C1218 H1188 0.950 . S
C1218 C1217 1.524 . S
C1218 C1219 1.415 . S
C1219 H1189 0.950 . S
C1219 C1214 1.363 . S
C1219 C1218 1.415 . S
H1220 C1217 0.999 . S
H1221 C1202 0.913 . S
H1222 C1240 0.951 . S
H1223 C1242 0.951 . S
H1224 C1244 0.950 . S
H1225 C1245 0.950 . S
H1226 C1247 0.950 . S
H1227 C1250 0.950 . S
H1228 C1251 0.950 . S
H1229 C1253 0.950 . S
H1230 C1254 0.950 . S
H1231 C1255 0.951 . S
H1232 C1257 0.951 . S
H1233 C1259 0.950 . S
H1234 C1260 0.950 . S
H1235 C1262 0.950 . S
H1236 C1265 0.950 . S
H1237 C1266 0.950 . S
H1238 C1268 0.950 . S
H1239 C1269 0.950 . S
C1240 H1222 0.951 . S
C1240 C1241 1.366 . S
C1240 C1242 1.388 . S
C1241 C1240 1.366 . S
C1241 C1245 1.385 . S
C1242 H1223 0.951 . S
C1242 C1240 1.388 . S
C1242 C1243 1.366 . S
C1243 C1242 1.366 . S
C1243 C1244 1.414 . S
C1243 C1246 1.499 . S
C1244 H1224 0.950 . S
C1244 C1243 1.414 . S
C1244 C1245 1.374 . S
C1245 H1225 0.950 . S
C1245 C1241 1.385 . S
C1245 C1244 1.374 . S
C1246 C1243 1.499 . S
C1246 C1247 1.373 . S
C1246 C1248 1.389 . S
C1247 H1226 0.950 . S
C1247 C1246 1.373 . S
C1247 C1263 1.377 . S
C1248 C1246 1.389 . S
C1248 C1249 1.524 . S
C1248 C1262 1.377 . S
C1249 C1248 1.524 . S
C1249 C1250 1.397 . S
C1249 C1254 1.363 . S
C1250 H1227 0.950 . S
C1250 C1249 1.397 . S
C1250 C1251 1.334 . S
C1251 H1228 0.950 . S
C1251 C1250 1.334 . S
C1251 C1252 1.287 . S
C1252 C1251 1.287 . S
C1252 C1253 1.524 . S
C1252 H1271 0.913 . S
C1253 H1229 0.950 . S
C1253 C1252 1.524 . S
C1253 C1254 1.415 . S
C1254 H1230 0.950 . S
C1254 C1249 1.363 . S
C1254 C1253 1.415 . S
C1255 H1231 0.951 . S
C1255 C1256 1.366 . S
C1255 C1257 1.388 . S
C1256 C1255 1.366 . S
C1256 C1260 1.385 . S
C1257 H1232 0.951 . S
C1257 C1255 1.388 . S
C1257 C1258 1.366 . S
C1258 C1257 1.366 . S
C1258 C1259 1.414 . S
C1258 C1261 1.499 . S
C1259 H1233 0.950 . S
C1259 C1258 1.414 . S
C1259 C1260 1.374 . S
C1260 H1234 0.950 . S
C1260 C1256 1.385 . S
C1260 C1259 1.374 . S
C1261 C1258 1.499 . S
C1261 C1262 1.373 . S
C1261 C1263 1.389 . S
C1262 H1235 0.950 . S
C1262 C1248 1.377 . S
C1262 C1261 1.373 . S
C1263 C1247 1.377 . S
C1263 C1261 1.389 . S
C1263 C1264 1.524 . S
C1264 C1263 1.524 . S
C1264 C1265 1.397 . S
C1264 C1269 1.363 . S
C1265 H1236 0.950 . S
C1265 C1264 1.397 . S
C1265 C1266 1.334 . S
C1266 H1237 0.950 . S
C1266 C1265 1.334 . S
C1266 C1267 1.287 . S
C1267 C1266 1.287 . S
C1267 C1268 1.524 . S
C1267 H1270 0.999 . S
C1268 H1238 0.950 . S
C1268 C1267 1.524 . S
C1268 C1269 1.415 . S
C1269 H1239 0.950 . S
C1269 C1264 1.363 . S
C1269 C1268 1.415 . S
H1270 C1267 0.999 . S
H1271 C1252 0.913 . S
H1272 C1290 0.951 . S
H1273 C1292 0.951 . S
H1274 C1294 0.950 . S
H1275 C1295 0.950 . S
H1276 C1297 0.950 . S
H1277 C1300 0.950 . S
H1278 C1301 0.950 . S
H1279 C1303 0.950 . S
H1280 C1304 0.950 . S
H1281 C1305 0.951 . S
H1282 C1307 0.951 . S
H1283 C1309 0.950 . S
H1284 C1310 0.950 . S
H1285 C1312 0.950 . S
H1286 C1315 0.950 . S
H1287 C1316 0.950 . S
H1288 C1318 0.950 . S
H1289 C1319 0.950 . S
C1290 H1272 0.951 . S
C1290 C1291 1.366 . S
C1290 C1292 1.388 . S
C1291 C1290 1.366 . S
C1291 C1295 1.385 . S
C1292 H1273 0.951 . S
C1292 C1290 1.388 . S
C1292 C1293 1.366 . S
C1293 C1292 1.366 . S
C1293 C1294 1.414 . S
C1293 C1296 1.499 . S
C1294 H1274 0.950 . S
C1294 C1293 1.414 . S
C1294 C1295 1.374 . S
C1295 H1275 0.950 . S
C1295 C1291 1.385 . S
C1295 C1294 1.374 . S
C1296 C1293 1.499 . S
C1296 C1297 1.373 . S
C1296 C1298 1.389 . S
C1297 H1276 0.950 . S
C1297 C1296 1.373 . S
C1297 C1313 1.377 . S
C1298 C1296 1.389 . S
C1298 C1299 1.524 . S
C1298 C1312 1.377 . S
C1299 C1298 1.524 . S
C1299 C1300 1.397 . S
C1299 C1304 1.363 . S
C1300 H1277 0.950 . S
C1300 C1299 1.397 . S
C1300 C1301 1.334 . S
C1301 H1278 0.950 . S
C1301 C1300 1.334 . S
C1301 C1302 1.287 . S
C1302 C1301 1.287 . S
C1302 C1303 1.524 . S
C1302 H1321 0.913 . S
C1303 H1279 0.950 . S
C1303 C1302 1.524 . S
C1303 C1304 1.415 . S
C1304 H1280 0.950 . S
C1304 C1299 1.363 . S
C1304 C1303 1.415 . S
C1305 H1281 0.951 . S
C1305 C1306 1.366 . S
C1305 C1307 1.388 . S
C1306 C1305 1.366 . S
C1306 C1310 1.385 . S
C1307 H1282 0.951 . S
C1307 C1305 1.388 . S
C1307 C1308 1.366 . S
C1308 C1307 1.366 . S
C1308 C1309 1.414 . S
C1308 C1311 1.499 . S
C1309 H1283 0.950 . S
C1309 C1308 1.414 . S
C1309 C1310 1.374 . S
C1310 H1284 0.950 . S
C1310 C1306 1.385 . S
C1310 C1309 1.374 . S
C1311 C1308 1.499 . S
C1311 C1312 1.373 . S
C1311 C1313 1.389 . S
C1312 H1285 0.950 . S
C1312 C1298 1.377 . S
C1312 C1311 1.373 . S
C1313 C1297 1.377 . S
C1313 C1311 1.389 . S
C1313 C1314 1.524 . S
C1314 C1313 1.524 . S
C1314 C1315 1.397 1_455 S
C1314 C1319 1.363 . S
C1315 H1286 0.950 . S
C1315 C1314 1.397 1_655 S
C1315 C1316 1.334 . S
C1316 H1287 0.950 . S
C1316 C1315 1.334 . S
C1316 C1317 1.287 . S
C1317 C1316 1.287 . S
C1317 C1318 1.524 . S
C1317 H1320 0.999 . S
C1318 H1288 0.950 . S
C1318 C1317 1.524 . S
C1318 C1319 1.415 1_655 S
C1319 H1289 0.950 . S
C1319 C1314 1.363 . S
C1319 C1318 1.415 1_455 S
H1320 C1317 0.999 . S
H1321 C1302 0.913 . S
H1322 C1340 0.951 . S
H1323 C1342 0.951 . S
H1324 C1344 0.950 . S
H1325 C1345 0.950 . S
H1326 C1347 0.950 . S
H1327 C1350 0.950 . S
H1328 C1351 0.950 . S
H1329 C1353 0.950 . S
H1330 C1354 0.950 . S
H1331 C1355 0.951 . S
H1332 C1357 0.951 . S
H1333 C1359 0.950 . S
H1334 C1360 0.950 . S
H1335 C1362 0.950 . S
H1336 C1365 0.950 . S
H1337 C1366 0.950 . S
H1338 C1368 0.950 . S
H1339 C1369 0.950 . S
C1340 H1322 0.951 . S
C1340 C1341 1.366 . S
C1340 C1342 1.388 . S
C1341 C1340 1.366 . S
C1341 C1345 1.385 . S
C1342 H1323 0.951 . S
C1342 C1340 1.388 . S
C1342 C1343 1.366 . S
C1343 C1342 1.366 . S
C1343 C1344 1.414 . S
C1343 C1346 1.499 . S
C1344 H1324 0.950 . S
C1344 C1343 1.414 . S
C1344 C1345 1.374 . S
C1345 H1325 0.950 . S
C1345 C1341 1.385 . S
C1345 C1344 1.374 . S
C1346 C1343 1.499 . S
C1346 C1347 1.373 . S
C1346 C1348 1.389 . S
C1347 H1326 0.950 . S
C1347 C1346 1.373 . S
C1347 C1363 1.377 . S
C1348 C1346 1.389 . S
C1348 C1349 1.524 . S
C1348 C1362 1.377 . S
C1349 C1348 1.524 . S
C1349 C1350 1.397 . S
C1349 C1354 1.363 . S
C1350 H1327 0.950 . S
C1350 C1349 1.397 . S
C1350 C1351 1.334 . S
C1351 H1328 0.950 . S
C1351 C1350 1.334 . S
C1351 C1352 1.287 . S
C1352 C1351 1.287 . S
C1352 C1353 1.524 . S
C1352 H1371 0.913 . S
C1353 H1329 0.950 . S
C1353 C1352 1.524 . S
C1353 C1354 1.415 . S
C1354 H1330 0.950 . S
C1354 C1349 1.363 . S
C1354 C1353 1.415 . S
C1355 H1331 0.951 . S
C1355 C1356 1.366 . S
C1355 C1357 1.388 . S
C1356 C1355 1.366 . S
C1356 C1360 1.385 . S
C1357 H1332 0.951 . S
C1357 C1355 1.388 . S
C1357 C1358 1.366 . S
C1358 C1357 1.366 . S
C1358 C1359 1.414 . S
C1358 C1361 1.499 . S
C1359 H1333 0.950 . S
C1359 C1358 1.414 . S
C1359 C1360 1.374 . S
C1360 H1334 0.950 . S
C1360 C1356 1.385 . S
C1360 C1359 1.374 . S
C1361 C1358 1.499 . S
C1361 C1362 1.373 . S
C1361 C1363 1.389 . S
C1362 H1335 0.950 . S
C1362 C1348 1.377 . S
C1362 C1361 1.373 . S
C1363 C1347 1.377 . S
C1363 C1361 1.389 . S
C1363 C1364 1.524 . S
C1364 C1363 1.524 . S
C1364 C1365 1.397 . S
C1364 C1369 1.363 . S
C1365 H1336 0.950 . S
C1365 C1364 1.397 . S
C1365 C1366 1.334 . S
C1366 H1337 0.950 . S
C1366 C1365 1.334 . S
C1366 C1367 1.287 . S
C1367 C1366 1.287 . S
C1367 C1368 1.524 . S
C1367 H1370 0.999 . S
C1368 H1338 0.950 . S
C1368 C1367 1.524 . S
C1368 C1369 1.415 . S
C1369 H1339 0.950 . S
C1369 C1364 1.363 . S
C1369 C1368 1.415 . S
H1370 C1367 0.999 . S
H1371 C1352 0.913 . S
C191 C4 1.816 . S
C206 C106 1.767 . S
C241 C16 1.828 . S
C256 C123 1.782 . S
C306 C146 0.844 . S
C291 C32 0.927 . S
C341 C43 1.588 . S
C356 C167 1.322 . S
C406 C126 2.259 . S
C391 C5 2.335 . S
C456 C103 1.409 1_565 S
C441 C21 1.458 . S
C506 C165 1.083 . S
C491 C27 1.111 . S
C556 C144 1.209 . S
C541 C37 1.278 . S
C591 C10 1.774 . S
C606 C168 1.723 . S
C656 C125 1.414 1_556 S
C641 C26 1.686 . S
C691 C38 1.413 . S
C706 C101 1.238 . S
C741 C15 1.640 . S
C756 C147 1.604 . S
C806 C105 1.918 1_565 S
C791 C48 2.006 . S
C841 C59 1.403 . S
C856 C124 1.368 . S
C891 C76 1.319 . S
C906 C143 1.124 . S
C941 C87 1.290 . S
C956 C164 1.077 . S
C991 C54 1.598 . S
C1006 C127 1.559 . S
C1056 C102 2.221 . S
C1041 C60 2.250 . S
C1106 C166 1.005 . S
C1091 C71 1.055 . S
C1156 C145 1.301 . S
C1141 C82 1.332 . S
C1191 C49 1.863 . S
C1206 C169 1.804 . S
C1256 C122 0.978 . S
C1241 C70 1.130 . S
C1306 C104 1.295 . S
C1291 C81 1.492 . S
C1341 C65 1.481 . S
C1356 C148 1.439 . S
