# Generated by pormake.
# Topology rtl, (3,6)-cn, num edge types: 1
# Building blocks:
#     Node 0, Type 0, BuildingBlock: BETDIP_clean_linker_0, # of connection points: 3
#     Node 1, Type 0, BuildingBlock: BETDIP_clean_linker_0, # of connection points: 3
#     Node 2, Type 0, BuildingBlock: BETDIP_clean_linker_0, # of connection points: 3
#     Node 3, Type 0, BuildingBlock: BETDIP_clean_linker_0, # of connection points: 3
#     Node 4, Type 1, BuildingBlock: CIFDUS_clean_sbu_1, # of connection points: 6
#     Node 5, Type 1, BuildingBlock: CIFDUS_clean_sbu_1, # of connection points: 6
#     Edge 6, Type (0, 1), BuildingBlock: FUNLAD_clean_linker_0, # of connection points: 2
#     Edge 7, Type (0, 1), BuildingBlock: FUNLAD_clean_linker_0, # of connection points: 2
#     Edge 8, Type (0, 1), BuildingBlock: FUNLAD_clean_linker_0, # of connection points: 2
#     Edge 9, Type (0, 1), BuildingBlock: FUNLAD_clean_linker_0, # of connection points: 2
#     Edge 10, Type (0, 1), BuildingBlock: FUNLAD_clean_linker_0, # of connection points: 2
#     Edge 11, Type (0, 1), BuildingBlock: FUNLAD_clean_linker_0, # of connection points: 2
#     Edge 12, Type (0, 1), BuildingBlock: FUNLAD_clean_linker_0, # of connection points: 2
#     Edge 13, Type (0, 1), BuildingBlock: FUNLAD_clean_linker_0, # of connection points: 2
#     Edge 14, Type (0, 1), BuildingBlock: FUNLAD_clean_linker_0, # of connection points: 2
#     Edge 15, Type (0, 1), BuildingBlock: FUNLAD_clean_linker_0, # of connection points: 2
#     Edge 16, Type (0, 1), BuildingBlock: FUNLAD_clean_linker_0, # of connection points: 2
#     Edge 17, Type (0, 1), BuildingBlock: FUNLAD_clean_linker_0, # of connection points: 2
# Relax obj value: 0.017
# Max RMSD: 0.117
# Mean RMSD: 0.089
data_MOF--net-rtl--node1-CIFDUS_clean_sbu_1--node2-BETDIP_clean_linker_0--edge1-FUNLAD_clean_linker_0
_symmetry_space_group_name_H-M    P1
_symmetry_Int_Tables_number       1
_symmetry_cell_setting            triclinic
loop_
_symmetry_equiv_pos_as_xyz
'x, y, z'
_cell_length_a     39.950297
_cell_length_b     40.608258
_cell_length_c     25.842258
_cell_angle_alpha  90.884242
_cell_angle_beta   100.33844
_cell_angle_gamma 89.601563
loop_
_atom_site_label
_atom_site_type_symbol
_atom_site_fract_x
_atom_site_fract_y
_atom_site_fract_z
_atom_type_partial_charge
H0 H 0.21554 0.81883 0.99693 0.0
H1 H 0.23668 0.83678 0.16404 0.0
H2 H 0.16108 0.89474 0.06571 0.0
H3 H 0.28604 0.81062 0.15985 0.0
C4 C 0.2801 0.79266 0.12803 0.0
C5 C 0.2109 0.83288 0.03095 0.0
C6 C 0.18604 0.85791 0.02494 0.0
C7 C 0.22967 0.82533 0.08067 0.0
C8 C 0.22305 0.84281 0.1253 0.0
C9 C 0.19834 0.868 0.12017 0.0
C10 C 0.18017 0.87541 0.06985 0.0
N11 N 0.25383 0.79911 0.08423 0.0
H12 H 0.72644 0.74217 0.68923 0.0
H13 H 0.71916 0.75184 0.52222 0.0
H14 H 0.65197 0.68624 0.58348 0.0
H15 H 0.77777 0.76385 0.55028 0.0
C16 C 0.77669 0.77947 0.58446 0.0
C17 C 0.71455 0.7352 0.64955 0.0
C18 C 0.68793 0.71231 0.64145 0.0
C19 C 0.72662 0.7488 0.60705 0.0
C20 C 0.71099 0.74026 0.55526 0.0
C21 C 0.6835 0.71802 0.54626 0.0
C22 C 0.67272 0.70374 0.58977 0.0
N23 N 0.75331 0.77225 0.61812 0.0
H24 H 0.81991 0.23666 0.89728 0.0
H25 H 0.81328 0.24318 0.06132 0.0
H26 H 0.8938 0.187 0.0121 0.0
H27 H 0.75564 0.24488 0.02434 0.0
C28 C 0.75615 0.26265 0.99348 0.0
C29 C 0.82971 0.23013 0.93769 0.0
C30 C 0.85923 0.21063 0.94979 0.0
C31 C 0.81252 0.24131 0.97742 0.0
C32 C 0.82562 0.23361 0.03019 0.0
C33 C 0.85529 0.21438 0.0432 0.0
C34 C 0.8717 0.20288 1.00263 0.0
N35 N 0.78267 0.26096 0.96342 0.0
H36 H 0.33328 0.32158 0.41308 0.0
H37 H 0.33041 0.3148 0.57789 0.0
H38 H 0.40712 0.37344 0.52589 0.0
H39 H 0.3183 0.26084 0.551 0.0
C40 C 0.29951 0.2642 0.51544 0.0
C41 C 0.34334 0.32861 0.45348 0.0
C42 C 0.37142 0.34978 0.46482 0.0
C43 C 0.32955 0.31466 0.49422 0.0
C44 C 0.3425 0.32396 0.54677 0.0
C45 C 0.37042 0.34549 0.55909 0.0
C46 C 0.38496 0.35772 0.51752 0.0
N47 N 0.30344 0.29061 0.48152 0.0
O48 O 1.00646 0.06937 0.47442 0.0
Mn49 Mn 0.02574 0.03369 0.53073 0.0
O50 O 0.96152 0.04662 0.42127 0.0
Mn51 Mn 0.97179 1.00394 0.44206 0.0
O52 O 0.04521 0.99821 0.58724 0.0
O53 O 0.06747 0.06175 0.55036 0.0
Mn54 Mn 0.07948 0.06426 0.61927 0.0
O55 O 1.00168 0.05895 0.5855 0.0
O56 O 0.08969 0.02162 0.64078 0.0
O57 O 0.04974 1.00837 0.47599 0.0
O58 O 1.0081 0.98397 0.41798 0.0
O59 O 0.11054 0.08928 0.59254 0.0
O60 O 0.04303 0.08424 0.64282 0.0
C61 C 0.95846 0.98654 0.51317 0.0
C62 C 0.98039 0.07118 0.43716 0.0
C63 C 0.07109 0.99684 0.62494 0.0
C64 C 0.09271 0.08089 0.54749 0.0
C65 C 1.0117 0.07838 0.62502 0.0
C66 C 0.0395 0.98929 0.43611 0.0
O67 O 0.98388 1.00566 0.51104 0.0
O68 O 0.94045 0.97891 0.46787 0.0
O69 O 0.54804 0.57083 0.10889 0.0
Mn70 Mn 0.52835 0.53366 0.05368 0.0
O71 O 0.59613 0.5505 0.15682 0.0
Mn72 Mn 0.58572 0.50711 0.13964 0.0
O73 O 0.50905 0.49682 0.99798 0.0
O74 O 0.48557 0.56092 0.03594 0.0
Mn75 Mn 0.47222 0.56112 0.96712 0.0
O76 O 0.55019 0.55769 0.99691 0.0
O77 O 0.4627 0.51795 0.94661 0.0
O78 O 0.50684 0.50936 0.11072 0.0
O79 O 0.55081 0.48924 0.16883 0.0
O80 O 0.44089 0.58639 0.99413 0.0
O81 O 0.50725 0.58067 0.94039 0.0
C82 C 0.59601 0.48695 0.0671 0.0
C83 C 0.57567 0.57421 0.14297 0.0
C84 C 0.4827 0.49401 0.9613 0.0
C85 C 0.45972 0.57975 0.03894 0.0
C86 C 0.53892 0.57552 0.95675 0.0
C87 C 0.51891 0.49305 0.15236 0.0
O88 O 0.57089 0.50636 0.07131 0.0
O89 O 0.61568 0.48057 0.11127 0.0
C90 C 0.24643 0.24125 0.45811 0.0
C91 C 0.27363 0.23814 0.50066 0.0
C92 C 0.22209 0.21611 0.44636 0.0
C93 C 0.22485 0.18739 0.47684 0.0
C94 C 0.25252 0.18431 0.5185 0.0
C95 C 0.27639 0.20941 0.53052 0.0
C96 C 0.1996 0.16012 0.46815 0.0
C97 C 0.16663 0.16336 0.44518 0.0
C98 C 0.14111 0.13794 0.45233 0.0
C99 C 0.10925 0.14828 0.46244 0.0
C100 C 0.08933 0.1269 0.48611 0.0
C101 C 0.10091 0.09489 0.49937 0.0
H102 H 0.17362 0.0952 0.44851 0.0
C103 C 0.13006 0.08309 0.48188 0.0
C104 C 0.14991 0.10437 0.45802 0.0
H105 H 0.13964 0.05857 0.49213 0.0
H106 H 0.24376 0.26314 0.43429 0.0
H107 H 0.20146 0.21917 0.4134 0.0
H108 H 0.25542 0.16254 0.54268 0.0
H109 H 0.29715 0.20631 0.5634 0.0
H110 H 0.20776 0.13724 0.4879 0.0
H111 H 0.15726 0.18696 0.42936 0.0
H112 H 0.10152 0.17384 0.45761 0.0
H113 H 0.06715 0.13667 0.49993 0.0
C114 C 0.3303 0.75856 0.16859 0.0
C115 C 0.30163 0.76266 0.1288 0.0
C116 C 0.35098 0.73043 0.16928 0.0
C117 C 0.34321 0.70578 0.13011 0.0
C118 C 0.31416 0.70979 0.09099 0.0
C119 C 0.29372 0.7379 0.09013 0.0
C120 C 0.36422 0.67545 0.12798 0.0
C121 C 0.3972 0.67209 0.15104 0.0
C122 C 0.41796 0.64342 0.13825 0.0
C123 C 0.4517 0.64843 0.13155 0.0
C124 C 0.46849 0.62452 0.10576 0.0
C125 C 0.45179 0.59526 0.08696 0.0
H126 H 0.37791 0.60697 0.13265 0.0
C127 C 0.42001 0.58847 0.10012 0.0
C128 C 0.40332 0.6122 0.126 0.0
H129 H 0.40653 0.56617 0.08557 0.0
H130 H 0.3368 0.7772 0.19913 0.0
H131 H 0.37266 0.72803 0.20075 0.0
H132 H 0.30738 0.6912 0.06043 0.0
H133 H 0.27169 0.74011 0.05911 0.0
H134 H 0.35256 0.65591 0.10175 0.0
H135 H 0.41037 0.69244 0.17346 0.0
H136 H 0.46383 0.67204 0.14145 0.0
H137 H 0.49278 0.63052 0.09524 0.0
C138 C 0.8293 0.80863 0.5713 0.0
C139 C 0.80193 0.80623 0.59828 0.0
C140 C 0.85263 0.83446 0.58249 0.0
C141 C 0.84889 0.85864 0.62077 0.0
C142 C 0.82161 0.85602 0.64798 0.0
C143 C 0.79855 0.82993 0.63727 0.0
C144 C 0.87033 0.88879 0.62816 0.0
C145 C 0.90243 0.88957 0.6186 0.0
C146 C 0.92053 0.92045 0.60963 0.0
C147 C 0.95506 0.91848 0.60495 0.0
C148 C 0.97016 0.94365 0.58071 0.0
C149 C 0.95081 0.97101 0.56054 0.0
H150 H 0.87615 0.95285 0.59796 0.0
C151 C 0.9178 0.97494 0.5711 0.0
C152 C 0.90275 0.95001 0.59557 0.0
H153 H 0.90223 0.99561 0.55499 0.0
H154 H 0.83239 0.79076 0.54092 0.0
H155 H 0.87264 0.83615 0.55945 0.0
H156 H 0.81779 0.87453 0.67703 0.0
H157 H 0.77761 0.82886 0.6586 0.0
H158 H 0.85845 0.91122 0.63953 0.0
H159 H 0.91503 0.86644 0.61221 0.0
H160 H 0.96949 0.89615 0.61558 0.0
H161 H 0.99547 0.93977 0.57207 0.0
C162 C 0.72799 0.31224 0.94571 0.0
C163 C 0.72831 0.28731 0.98297 0.0
C164 C 0.70223 0.33631 0.93901 0.0
C165 C 0.67635 0.33589 0.96964 0.0
C166 C 0.67624 0.31014 0.00534 0.0
C167 C 0.70193 0.28629 0.01208 0.0
C168 C 0.64999 0.36229 0.96838 0.0
C169 C 0.65242 0.39277 0.9492 0.0
C170 C 0.63155 0.42085 0.96379 0.0
C171 C 0.64711 0.45176 0.97375 0.0
C172 C 0.63254 0.47609 1.00161 0.0
C173 C 0.6018 0.47018 0.0188 0.0
H174 H 0.58531 0.39349 0.96626 0.0
C175 C 0.58395 0.4411 1.00274 0.0
C176 C 0.59865 0.41657 0.97518 0.0
H177 H 0.56039 0.43587 0.0162 0.0
H178 H 0.74788 0.3135 0.92233 0.0
H179 H 0.70297 0.35515 0.91014 0.0
H180 H 0.65668 0.30894 0.02937 0.0
H181 H 0.70144 0.26725 0.04086 0.0
H182 H 0.62986 0.35758 0.99049 0.0
H183 H 0.67375 0.39874 0.93041 0.0
H184 H 0.6722 0.45595 0.9648 0.0
H185 H 0.64699 0.49816 0.01432 0.0
C186 C 0.18629 0.86861 0.21245 0.0
C187 C 0.19029 0.88587 0.16722 0.0
C188 C 0.1752 0.88492 0.25446 0.0
C189 C 0.16772 0.91887 0.25204 0.0
C190 C 0.17366 0.93641 0.20821 0.0
C191 C 0.18463 0.9201 0.16616 0.0
C192 C 0.15207 0.9364 0.29295 0.0
C193 C 0.13106 0.92122 0.32025 0.0
C194 C 0.10949 0.93896 0.35302 0.0
C195 C 0.07801 0.92513 0.35688 0.0
C196 C 0.05574 0.94145 0.38439 0.0
C197 C 0.06464 0.97179 0.40986 0.0
H198 H 0.14345 0.97997 0.37833 0.0
C199 C 0.0968 0.98515 0.40812 0.0
C200 C 0.119 0.96899 0.37953 0.0
H201 H 0.10438 1.00843 0.4276 0.0
H202 H 0.19049 0.84225 0.21462 0.0
H203 H 0.17205 0.87071 0.28833 0.0
H204 H 0.16855 0.96263 0.20554 0.0
H205 H 0.18814 0.93423 0.13233 0.0
H206 H 0.15454 0.96302 0.2958 0.0
H207 H 0.12613 0.8951 0.31344 0.0
H208 H 0.07013 0.90193 0.33729 0.0
H209 H 0.03134 0.93026 0.38555 0.0
C210 C 0.66836 0.66436 0.68851 0.0
C211 C 0.67512 0.69821 0.68686 0.0
C212 C 0.6545 0.65146 0.7299 0.0
C213 C 0.64697 0.67226 0.7704 0.0
C214 C 0.65417 0.70599 0.769 0.0
C215 C 0.66834 0.71881 0.72796 0.0
C216 C 0.6286 0.66031 0.81159 0.0
C217 C 0.62946 0.62888 0.82786 0.0
C218 C 0.60721 0.6169 0.86391 0.0
C219 C 0.61777 0.59032 0.89719 0.0
C220 C 0.59615 0.57742 0.92892 0.0
C221 C 0.56324 0.59044 0.92693 0.0
H222 H 0.56503 0.65005 0.83651 0.0
C223 C 0.55284 0.61713 0.89378 0.0
C224 C 0.57451 0.63023 0.86275 0.0
H225 H 0.52765 0.62775 0.89122 0.0
H226 H 0.67347 0.64789 0.65745 0.0
H227 H 0.64855 0.62547 0.72886 0.0
H228 H 0.64828 0.72262 0.79935 0.0
H229 H 0.67294 0.74505 0.72748 0.0
H230 H 0.61364 0.67835 0.82916 0.0
H231 H 0.64689 0.61136 0.81459 0.0
H232 H 0.64271 0.57937 0.89838 0.0
H233 H 0.60481 0.55667 0.95372 0.0
C234 C 0.90394 0.20481 0.1184 0.0
C235 C 0.8687 0.20527 0.09878 0.0
C236 C 0.91665 0.19364 0.16921 0.0
C237 C 0.89432 0.1827 0.20168 0.0
C238 C 0.85911 0.18406 0.18246 0.0
C239 C 0.84643 0.19529 0.13181 0.0
C240 C 0.90629 0.16691 0.25351 0.0
C241 C 0.93816 0.16904 0.28192 0.0
C242 C 0.94987 0.14893 0.32981 0.0
C243 C 0.98463 0.14085 0.34404 0.0
C244 C 0.99558 0.11759 0.38318 0.0
C245 C 0.97183 0.10206 0.40847 0.0
H246 H 0.90027 0.14263 0.35211 0.0
C247 C 0.93771 0.1123 0.39768 0.0
C248 C 0.9269 0.13582 0.35943 0.0
H249 H 0.91901 0.10087 0.41718 0.0
H250 H 0.92179 0.21265 0.09413 0.0
H251 H 0.94393 0.19254 0.18178 0.0
H252 H 0.84124 0.17562 0.20631 0.0
H253 H 0.8192 0.19496 0.11787 0.0
H254 H 0.88779 0.1515 0.26741 0.0
H255 H 0.95703 0.18396 0.26797 0.0
H256 H 1.00304 0.15099 0.32265 0.0
H257 H 0.02203 0.10994 0.39069 0.0
C258 C 0.39931 0.38638 0.62719 0.0
C259 C 0.38464 0.3551 0.61496 0.0
C260 C 0.41307 0.39534 0.67906 0.0
C261 C 0.41193 0.37357 0.72042 0.0
C262 C 0.39678 0.34265 0.70879 0.0
C263 C 0.38378 0.33328 0.65666 0.0
C264 C 0.42388 0.384 0.77601 0.0
C265 C 0.45198 0.40246 0.79084 0.0
C266 C 0.46085 0.41912 0.84319 0.0
C267 C 0.4947 0.42867 0.86177 0.0
C268 C 0.50268 0.45046 0.90477 0.0
C269 C 0.47676 0.46355 0.92918 0.0
H270 H 0.40897 0.4239 0.85709 0.0
C271 C 0.4433 0.45231 0.91295 0.0
C272 C 0.43541 0.43013 0.87067 0.0
H273 H 0.42281 0.46243 0.93072 0.0
H274 H 0.39964 0.40441 0.59689 0.0
H275 H 0.42356 0.4198 0.68694 0.0
H276 H 0.39528 0.32557 0.74008 0.0
H277 H 0.37331 0.30881 0.64923 0.0
H278 H 0.40884 0.3767 0.80497 0.0
H279 H 0.46847 0.40692 0.76249 0.0
H280 H 0.51475 0.42076 0.84113 0.0
H281 H 0.52852 0.45933 0.91568 0.0
C282 C 0.68333 0.70403 0.45062 0.0
C283 C 0.66535 0.70994 0.49192 0.0
C284 C 0.66621 0.6939 0.40077 0.0
C285 C 0.6306 0.68965 0.39099 0.0
C286 C 0.61266 0.69649 0.43191 0.0
C287 C 0.62971 0.70669 0.48153 0.0
C288 C 0.61169 0.67507 0.34087 0.0
C289 C 0.62324 0.67471 0.29492 0.0
C290 C 0.60785 0.654 0.24871 0.0
C291 C 0.62948 0.64107 0.21623 0.0
C292 C 0.61791 0.61693 0.17833 0.0
C293 C 0.58418 0.60579 0.17105 0.0
H294 H 0.55552 0.65505 0.26164 0.0
C295 C 0.56149 0.62091 0.19977 0.0
C296 C 0.57325 0.64479 0.23856 0.0
H297 H 0.5354 0.61255 0.19507 0.0
H298 H 0.7108 0.70596 0.45737 0.0
H299 H 0.68127 0.68806 0.37099 0.0
H300 H 0.5853 0.6934 0.42575 0.0
H301 H 0.6149 0.71165 0.51204 0.0
H302 H 0.58805 0.66258 0.34311 0.0
H303 H 0.64687 0.68714 0.29255 0.0
H304 H 0.65608 0.64794 0.2226 0.0
H305 H 0.63592 0.60556 0.1567 0.0
C306 C 0.85909 0.18507 0.86007 0.0
C307 C 0.8772 0.19803 0.9077 0.0
C308 C 0.87638 0.17186 0.82177 0.0
C309 C 0.91223 0.17133 0.83044 0.0
C310 C 0.93011 0.18497 0.87759 0.0
C311 C 0.91291 0.19809 0.91567 0.0
C312 C 0.93242 0.15753 0.79185 0.0
C313 C 0.92001 0.13878 0.74914 0.0
C314 C 0.94232 0.12484 0.71358 0.0
C315 C 0.93287 0.09566 0.68468 0.0
C316 C 0.9547 0.08088 0.65406 0.0
C317 C 0.98643 0.09504 0.65206 0.0
H318 H 0.9807 0.16331 0.72766 0.0
C319 C 0.995 0.12507 0.67873 0.0
C320 C 0.97313 0.13997 0.70853 0.0
H321 H 1.01889 0.13707 0.67687 0.0
H322 H 0.83154 0.18455 0.8528 0.0
H323 H 0.86146 0.1623 0.78569 0.0
H324 H 0.95768 0.18533 0.88532 0.0
H325 H 0.92767 0.2084 0.95145 0.0
H326 H 0.95961 0.162 0.80102 0.0
H327 H 0.89345 0.13168 0.74148 0.0
H328 H 0.90903 0.08373 0.68706 0.0
H329 H 0.94733 0.05784 0.63363 0.0
C330 C 0.369 0.3783 0.37828 0.0
C331 C 0.38797 0.36253 0.42216 0.0
C332 C 0.38536 0.3919 0.33989 0.0
C333 C 0.42098 0.38956 0.34461 0.0
C334 C 0.43957 0.37278 0.38764 0.0
C335 C 0.42335 0.35965 0.42609 0.0
C336 C 0.44027 0.40412 0.3064 0.0
C337 C 0.42944 0.42946 0.27434 0.0
C338 C 0.45226 0.44594 0.24299 0.0
C339 C 0.43857 0.46164 0.19569 0.0
C340 C 0.45992 0.47723 0.166 0.0
C341 C 0.49539 0.47761 0.18338 0.0
H342 H 0.49916 0.43702 0.29834 0.0
C343 C 0.50879 0.46269 0.23149 0.0
C344 C 0.4876 0.44731 0.26095 0.0
H345 H 0.53584 0.46295 0.24687 0.0
H346 H 0.34164 0.38074 0.37429 0.0
H347 H 0.37003 0.40397 0.30674 0.0
H348 H 0.46697 0.37034 0.39217 0.0
H349 H 0.43855 0.34722 0.45909 0.0
H350 H 0.46574 0.3944 0.30711 0.0
H351 H 0.40376 0.439 0.27167 0.0
H352 H 0.41137 0.46149 0.18138 0.0
H353 H 0.44867 0.48871 0.12935 0.0
C354 C 0.18234 0.86788 0.92803 0.0
C355 C 0.16623 0.86605 0.972 0.0
C356 C 0.16423 0.87784 0.87919 0.0
C357 C 0.12937 0.88602 0.87301 0.0
C358 C 0.11319 0.88338 0.91673 0.0
C359 C 0.13128 0.87343 0.96548 0.0
C360 C 0.10985 0.90032 0.8236 0.0
C361 C 0.11982 0.89856 0.77642 0.0
C362 C 0.10425 0.91903 0.73095 0.0
C363 C 0.12555 0.93098 0.6979 0.0
C364 C 0.11373 0.9546 0.66023 0.0
C365 C 0.08003 0.96604 0.65364 0.0
H366 H 0.05237 0.91934 0.74569 0.0
C367 C 0.0577 0.95204 0.68325 0.0
C368 C 0.06976 0.92878 0.72192 0.0
H369 H 0.03167 0.96074 0.67912 0.0
H370 H 0.20932 0.86283 0.93178 0.0
H371 H 0.17818 0.88034 0.84731 0.0
H372 H 0.08647 0.88959 0.91344 0.0
H373 H 0.11788 0.8718 0.99825 0.0
H374 H 0.08727 0.91458 0.82731 0.0
H375 H 0.14241 0.88456 0.7722 0.0
H376 H 0.15209 0.92369 0.70357 0.0
H377 H 0.13145 0.96525 0.63804 0.0
loop_
_geom_bond_atom_site_label_1
_geom_bond_atom_site_label_2
_geom_bond_distance
_geom_bond_site_symmetry_2
_ccdc_geom_bond_type
H0 C5 0.930 1_556 S
H1 C8 0.930 . S
H2 C10 0.930 . S
H3 C4 1.016 . S
C4 H3 1.016 . S
C4 N11 1.286 . S
C5 H0 0.930 1_554 S
C5 C6 1.397 . S
C5 C7 1.361 . S
C6 C5 1.397 . S
C6 C10 1.390 . S
C7 C5 1.361 . S
C7 C8 1.393 . S
C7 N11 1.413 . S
C8 H1 0.930 . S
C8 C7 1.393 . S
C8 C9 1.399 . S
C9 C8 1.399 . S
C9 C10 1.381 . S
C10 H2 0.930 . S
C10 C6 1.390 . S
C10 C9 1.381 . S
N11 C4 1.286 . S
N11 C7 1.413 . S
H12 C17 0.930 . S
H13 C20 0.930 . S
H14 C22 0.930 . S
H15 C16 1.016 . S
C16 H15 1.016 . S
C16 N23 1.286 . S
C17 H12 0.930 . S
C17 C18 1.397 . S
C17 C19 1.361 . S
C18 C17 1.397 . S
C18 C22 1.390 . S
C19 C17 1.361 . S
C19 C20 1.393 . S
C19 N23 1.413 . S
C20 H13 0.930 . S
C20 C19 1.393 . S
C20 C21 1.399 . S
C21 C20 1.399 . S
C21 C22 1.381 . S
C22 H14 0.930 . S
C22 C18 1.390 . S
C22 C21 1.381 . S
N23 C16 1.286 . S
N23 C19 1.413 . S
H24 C29 0.930 . S
H25 C32 0.930 . S
H26 C34 0.930 . S
H27 C28 1.016 . S
C28 H27 1.016 . S
C28 N35 1.286 1_554 S
C29 H24 0.930 . S
C29 C30 1.397 . S
C29 C31 1.361 . S
C30 C29 1.397 . S
C30 C34 1.390 1_556 S
C31 C29 1.361 . S
C31 C32 1.393 1_556 S
C31 N35 1.413 . S
C32 H25 0.930 . S
C32 C31 1.393 1_554 S
C32 C33 1.399 . S
C33 C32 1.399 . S
C33 C34 1.381 . S
C34 H26 0.930 . S
C34 C30 1.390 1_554 S
C34 C33 1.381 . S
N35 C28 1.286 1_556 S
N35 C31 1.413 . S
H36 C41 0.930 . S
H37 C44 0.930 . S
H38 C46 0.930 . S
H39 C40 1.016 . S
C40 H39 1.016 . S
C40 N47 1.286 . S
C41 H36 0.930 . S
C41 C42 1.397 . S
C41 C43 1.361 . S
C42 C41 1.397 . S
C42 C46 1.390 . S
C43 C41 1.361 . S
C43 C44 1.393 . S
C43 N47 1.413 . S
C44 H37 0.930 . S
C44 C43 1.393 . S
C44 C45 1.399 . S
C45 C44 1.399 . S
C45 C46 1.381 . S
C46 H38 0.930 . S
C46 C42 1.390 . S
C46 C45 1.381 . S
N47 C40 1.286 . S
N47 C43 1.413 . S
O48 Mn49 2.163 1_655 S
O48 C62 1.244 . S
Mn49 O48 2.163 1_455 S
Mn49 O52 2.160 1_545 S
Mn49 O53 2.221 . S
Mn49 O55 2.163 1_455 S
Mn49 O57 2.160 1_545 S
Mn49 O67 2.221 1_445 S
O50 Mn51 2.087 1_545 S
O50 C62 1.256 . S
Mn51 O50 2.087 1_565 S
Mn51 O58 2.089 1_655 S
Mn51 O67 2.290 . S
Mn51 O68 2.251 . S
O52 Mn49 2.160 1_565 S
O52 C63 1.239 . S
O53 Mn49 2.221 . S
O53 Mn54 2.290 . S
O53 C64 1.278 . S
Mn54 O53 2.290 . S
Mn54 O56 2.089 . S
Mn54 O59 2.251 . S
Mn54 O60 2.087 . S
O55 Mn49 2.163 1_655 S
O55 C65 1.244 . S
O56 Mn54 2.089 . S
O56 C63 1.256 1_545 S
O57 Mn49 2.160 1_565 S
O57 C66 1.239 . S
O58 Mn51 2.089 1_455 S
O58 C66 1.256 . S
O59 Mn54 2.251 . S
O59 C64 1.241 . S
O60 Mn54 2.087 . S
O60 C65 1.256 1_455 S
C61 O67 1.278 . S
C61 O68 1.241 . S
C62 O48 1.244 . S
C62 O50 1.256 . S
C63 O52 1.239 . S
C63 O56 1.256 1_565 S
C64 O53 1.278 . S
C64 O59 1.241 . S
C65 O55 1.244 . S
C65 O60 1.256 1_655 S
C66 O57 1.239 . S
C66 O58 1.256 . S
O67 Mn49 2.221 1_665 S
O67 Mn51 2.290 . S
O67 C61 1.278 . S
O68 Mn51 2.251 . S
O68 C61 1.241 . S
O69 Mn70 2.163 . S
O69 C83 1.244 . S
Mn70 O69 2.163 . S
Mn70 O73 2.160 1_554 S
Mn70 O74 2.221 . S
Mn70 O76 2.163 1_554 S
Mn70 O78 2.160 . S
Mn70 O88 2.221 . S
O71 Mn72 2.087 . S
O71 C83 1.256 . S
Mn72 O71 2.087 . S
Mn72 O79 2.089 . S
Mn72 O88 2.290 . S
Mn72 O89 2.251 . S
O73 Mn70 2.160 1_556 S
O73 C84 1.239 . S
O74 Mn70 2.221 . S
O74 Mn75 2.290 1_554 S
O74 C85 1.278 . S
Mn75 O74 2.290 1_556 S
Mn75 O77 2.089 . S
Mn75 O80 2.251 . S
Mn75 O81 2.087 . S
O76 Mn70 2.163 1_556 S
O76 C86 1.244 . S
O77 Mn75 2.089 . S
O77 C84 1.256 . S
O78 Mn70 2.160 . S
O78 C87 1.239 . S
O79 Mn72 2.089 . S
O79 C87 1.256 . S
O80 Mn75 2.251 . S
O80 C85 1.241 1_556 S
O81 Mn75 2.087 . S
O81 C86 1.256 . S
C82 O88 1.278 . S
C82 O89 1.241 . S
C83 O69 1.244 . S
C83 O71 1.256 . S
C84 O73 1.239 . S
C84 O77 1.256 . S
C85 O74 1.278 . S
C85 O80 1.241 1_554 S
C86 O76 1.244 . S
C86 O81 1.256 . S
C87 O78 1.239 . S
C87 O79 1.256 . S
O88 Mn70 2.221 . S
O88 Mn72 2.290 . S
O88 C82 1.278 . S
O89 Mn72 2.251 . S
O89 C82 1.241 . S
C90 C91 1.386 . S
C90 C92 1.383 . S
C90 H106 0.951 . S
C91 C90 1.386 . S
C91 C95 1.383 . S
C92 C90 1.383 . S
C92 C93 1.402 . S
C92 H107 0.951 . S
C93 C92 1.402 . S
C93 C94 1.375 . S
C93 C96 1.481 . S
C94 C93 1.375 . S
C94 C95 1.367 . S
C94 H108 0.951 . S
C95 C91 1.383 . S
C95 C94 1.367 . S
C95 H109 0.950 . S
C96 C93 1.481 . S
C96 C97 1.297 . S
C96 H110 0.950 . S
C97 C96 1.297 . S
C97 C98 1.479 . S
C97 H111 0.950 . S
C98 C97 1.479 . S
C98 C99 1.375 . S
C98 C104 1.404 . S
C99 C98 1.375 . S
C99 C100 1.369 . S
C99 H112 0.950 . S
C100 C99 1.369 . S
C100 C101 1.392 . S
C100 H113 0.951 . S
C101 C100 1.392 . S
C101 C103 1.384 . S
H102 C104 0.949 . S
C103 C101 1.384 . S
C103 C104 1.385 . S
C103 H105 0.950 . S
C104 C98 1.404 . S
C104 H102 0.949 . S
C104 C103 1.385 . S
H105 C103 0.950 . S
H106 C90 0.951 . S
H107 C92 0.951 . S
H108 C94 0.951 . S
H109 C95 0.950 . S
H110 C96 0.950 . S
H111 C97 0.950 . S
H112 C99 0.950 . S
H113 C100 0.951 . S
C114 C115 1.386 . S
C114 C116 1.383 . S
C114 H130 0.951 . S
C115 C114 1.386 . S
C115 C119 1.383 . S
C116 C114 1.383 . S
C116 C117 1.402 . S
C116 H131 0.951 . S
C117 C116 1.402 . S
C117 C118 1.375 . S
C117 C120 1.481 . S
C118 C117 1.375 . S
C118 C119 1.367 . S
C118 H132 0.951 1_554 S
C119 C115 1.383 . S
C119 C118 1.367 . S
C119 H133 0.950 . S
C120 C117 1.481 . S
C120 C121 1.297 . S
C120 H134 0.950 . S
C121 C120 1.297 . S
C121 C122 1.479 . S
C121 H135 0.950 . S
C122 C121 1.479 . S
C122 C123 1.375 . S
C122 C128 1.404 . S
C123 C122 1.375 . S
C123 C124 1.369 . S
C123 H136 0.950 . S
C124 C123 1.369 . S
C124 C125 1.392 . S
C124 H137 0.951 . S
C125 C124 1.392 . S
C125 C127 1.384 . S
H126 C128 0.949 1_556 S
C127 C125 1.384 . S
C127 C128 1.385 . S
C127 H129 0.950 1_554 S
C128 C122 1.404 . S
C128 H126 0.949 1_554 S
C128 C127 1.385 . S
H129 C127 0.950 1_556 S
H130 C114 0.951 . S
H131 C116 0.951 . S
H132 C118 0.951 1_556 S
H133 C119 0.950 . S
H134 C120 0.950 . S
H135 C121 0.950 . S
H136 C123 0.950 . S
H137 C124 0.951 . S
C138 C139 1.386 . S
C138 C140 1.383 . S
C138 H154 0.951 . S
C139 C138 1.386 . S
C139 C143 1.383 . S
C140 C138 1.383 . S
C140 C141 1.402 . S
C140 H155 0.951 . S
C141 C140 1.402 . S
C141 C142 1.375 . S
C141 C144 1.481 . S
C142 C141 1.375 . S
C142 C143 1.367 . S
C142 H156 0.951 . S
C143 C139 1.383 . S
C143 C142 1.367 . S
C143 H157 0.950 . S
C144 C141 1.481 . S
C144 C145 1.297 . S
C144 H158 0.950 . S
C145 C144 1.297 . S
C145 C146 1.479 . S
C145 H159 0.950 . S
C146 C145 1.479 . S
C146 C147 1.375 . S
C146 C152 1.404 . S
C147 C146 1.375 . S
C147 C148 1.369 . S
C147 H160 0.950 . S
C148 C147 1.369 . S
C148 C149 1.392 . S
C148 H161 0.951 . S
C149 C148 1.392 . S
C149 C151 1.384 . S
H150 C152 0.949 . S
C151 C149 1.384 . S
C151 C152 1.385 . S
C151 H153 0.950 . S
C152 C146 1.404 . S
C152 H150 0.949 . S
C152 C151 1.385 . S
H153 C151 0.950 . S
H154 C138 0.951 . S
H155 C140 0.951 . S
H156 C142 0.951 . S
H157 C143 0.950 . S
H158 C144 0.950 . S
H159 C145 0.950 . S
H160 C147 0.950 . S
H161 C148 0.951 . S
C162 C163 1.386 1_556 S
C162 C164 1.383 . S
C162 H178 0.951 . S
C163 C162 1.386 1_554 S
C163 C167 1.383 . S
C164 C162 1.383 . S
C164 C165 1.402 1_556 S
C164 H179 0.951 . S
C165 C164 1.402 1_554 S
C165 C166 1.375 . S
C165 C168 1.481 . S
C166 C165 1.375 . S
C166 C167 1.367 . S
C166 H180 0.951 . S
C167 C163 1.383 . S
C167 C166 1.367 . S
C167 H181 0.950 . S
C168 C165 1.481 . S
C168 C169 1.284 1_554 S
C168 H182 0.950 . S
C169 C168 1.284 1_556 S
C169 C170 1.474 1_556 S
C169 H183 0.971 . S
C170 C169 1.474 1_554 S
C170 C171 1.375 1_554 S
C170 C176 1.404 . S
C171 C170 1.375 1_556 S
C171 C172 1.369 . S
C171 H184 0.950 . S
C172 C171 1.369 . S
C172 C173 1.392 1_556 S
C172 H185 0.951 . S
C173 C172 1.392 1_554 S
C173 C175 1.384 . S
H174 C176 0.949 . S
C175 C173 1.384 . S
C175 C176 1.385 . S
C175 H177 0.950 . S
C176 C170 1.404 . S
C176 H174 0.949 . S
C176 C175 1.385 . S
H177 C175 0.950 . S
H178 C162 0.951 . S
H179 C164 0.951 . S
H180 C166 0.951 . S
H181 C167 0.950 . S
H182 C168 0.950 . S
H183 C169 0.971 . S
H184 C171 0.950 . S
H185 C172 0.951 . S
C186 C187 1.386 . S
C186 C188 1.383 . S
C186 H202 0.951 . S
C187 C186 1.386 . S
C187 C191 1.383 . S
C188 C186 1.383 . S
C188 C189 1.402 . S
C188 H203 0.951 . S
C189 C188 1.402 . S
C189 C190 1.375 . S
C189 C192 1.481 . S
C190 C189 1.375 . S
C190 C191 1.367 . S
C190 H204 0.951 . S
C191 C187 1.383 . S
C191 C190 1.367 . S
C191 H205 0.950 . S
C192 C189 1.481 . S
C192 C193 1.297 . S
C192 H206 0.950 . S
C193 C192 1.297 . S
C193 C194 1.479 . S
C193 H207 0.950 . S
C194 C193 1.479 . S
C194 C195 1.375 . S
C194 C200 1.404 . S
C195 C194 1.375 . S
C195 C196 1.369 . S
C195 H208 0.950 . S
C196 C195 1.369 . S
C196 C197 1.392 . S
C196 H209 0.951 . S
C197 C196 1.392 . S
C197 C199 1.384 . S
H198 C200 0.949 . S
C199 C197 1.384 . S
C199 C200 1.385 . S
C199 H201 0.950 1_565 S
C200 C194 1.404 . S
C200 H198 0.949 . S
C200 C199 1.385 . S
H201 C199 0.950 1_545 S
H202 C186 0.951 . S
H203 C188 0.951 . S
H204 C190 0.951 . S
H205 C191 0.950 . S
H206 C192 0.950 . S
H207 C193 0.950 . S
H208 C195 0.950 . S
H209 C196 0.951 . S
C210 C211 1.386 . S
C210 C212 1.383 . S
C210 H226 0.951 . S
C211 C210 1.386 . S
C211 C215 1.383 . S
C212 C210 1.383 . S
C212 C213 1.402 . S
C212 H227 0.951 . S
C213 C212 1.402 . S
C213 C214 1.375 . S
C213 C216 1.481 . S
C214 C213 1.375 . S
C214 C215 1.367 . S
C214 H228 0.951 . S
C215 C211 1.383 . S
C215 C214 1.367 . S
C215 H229 0.950 . S
C216 C213 1.481 . S
C216 C217 1.297 . S
C216 H230 0.950 . S
C217 C216 1.297 . S
C217 C218 1.479 . S
C217 H231 0.950 . S
C218 C217 1.479 . S
C218 C219 1.375 . S
C218 C224 1.404 . S
C219 C218 1.375 . S
C219 C220 1.369 . S
C219 H232 0.950 . S
C220 C219 1.369 . S
C220 C221 1.392 . S
C220 H233 0.951 . S
C221 C220 1.392 . S
C221 C223 1.384 . S
H222 C224 0.949 . S
C223 C221 1.384 . S
C223 C224 1.385 . S
C223 H225 0.950 . S
C224 C218 1.404 . S
C224 H222 0.949 . S
C224 C223 1.385 . S
H225 C223 0.950 . S
H226 C210 0.951 . S
H227 C212 0.951 . S
H228 C214 0.951 . S
H229 C215 0.950 . S
H230 C216 0.950 . S
H231 C217 0.950 . S
H232 C219 0.950 . S
H233 C220 0.951 . S
C234 C235 1.386 . S
C234 C236 1.383 . S
C234 H250 0.951 . S
C235 C234 1.386 . S
C235 C239 1.383 . S
C236 C234 1.383 . S
C236 C237 1.402 . S
C236 H251 0.951 . S
C237 C236 1.402 . S
C237 C238 1.375 . S
C237 C240 1.481 . S
C238 C237 1.375 . S
C238 C239 1.367 . S
C238 H252 0.951 . S
C239 C235 1.383 . S
C239 C238 1.367 . S
C239 H253 0.950 . S
C240 C237 1.481 . S
C240 C241 1.297 . S
C240 H254 0.950 . S
C241 C240 1.297 . S
C241 C242 1.479 . S
C241 H255 0.950 . S
C242 C241 1.479 . S
C242 C243 1.375 . S
C242 C248 1.404 . S
C243 C242 1.375 . S
C243 C244 1.369 . S
C243 H256 0.950 . S
C244 C243 1.369 . S
C244 C245 1.392 . S
C244 H257 0.951 1_655 S
C245 C244 1.392 . S
C245 C247 1.384 . S
H246 C248 0.949 . S
C247 C245 1.384 . S
C247 C248 1.385 . S
C247 H249 0.950 . S
C248 C242 1.404 . S
C248 H246 0.949 . S
C248 C247 1.385 . S
H249 C247 0.950 . S
H250 C234 0.951 . S
H251 C236 0.951 . S
H252 C238 0.951 . S
H253 C239 0.950 . S
H254 C240 0.950 . S
H255 C241 0.950 . S
H256 C243 0.950 . S
H257 C244 0.951 1_455 S
C258 C259 1.386 . S
C258 C260 1.383 . S
C258 H274 0.951 . S
C259 C258 1.386 . S
C259 C263 1.383 . S
C260 C258 1.383 . S
C260 C261 1.402 . S
C260 H275 0.951 . S
C261 C260 1.402 . S
C261 C262 1.375 . S
C261 C264 1.481 . S
C262 C261 1.375 . S
C262 C263 1.367 . S
C262 H276 0.951 . S
C263 C259 1.383 . S
C263 C262 1.367 . S
C263 H277 0.950 . S
C264 C261 1.481 . S
C264 C265 1.297 . S
C264 H278 0.950 . S
C265 C264 1.297 . S
C265 C266 1.479 . S
C265 H279 0.950 . S
C266 C265 1.479 . S
C266 C267 1.375 . S
C266 C272 1.404 . S
C267 C266 1.375 . S
C267 C268 1.369 . S
C267 H280 0.950 . S
C268 C267 1.369 . S
C268 C269 1.392 . S
C268 H281 0.951 . S
C269 C268 1.392 . S
C269 C271 1.384 . S
H270 C272 0.949 . S
C271 C269 1.384 . S
C271 C272 1.385 . S
C271 H273 0.950 . S
C272 C266 1.404 . S
C272 H270 0.949 . S
C272 C271 1.385 . S
H273 C271 0.950 . S
H274 C258 0.951 . S
H275 C260 0.951 . S
H276 C262 0.951 . S
H277 C263 0.950 . S
H278 C264 0.950 . S
H279 C265 0.950 . S
H280 C267 0.950 . S
H281 C268 0.951 . S
C282 C283 1.386 . S
C282 C284 1.383 . S
C282 H298 0.951 . S
C283 C282 1.386 . S
C283 C287 1.383 . S
C284 C282 1.383 . S
C284 C285 1.402 . S
C284 H299 0.951 . S
C285 C284 1.402 . S
C285 C286 1.375 . S
C285 C288 1.481 . S
C286 C285 1.375 . S
C286 C287 1.367 . S
C286 H300 0.951 . S
C287 C283 1.383 . S
C287 C286 1.367 . S
C287 H301 0.950 . S
C288 C285 1.481 . S
C288 C289 1.297 . S
C288 H302 0.950 . S
C289 C288 1.297 . S
C289 C290 1.479 . S
C289 H303 0.950 . S
C290 C289 1.479 . S
C290 C291 1.375 . S
C290 C296 1.404 . S
C291 C290 1.375 . S
C291 C292 1.369 . S
C291 H304 0.950 . S
C292 C291 1.369 . S
C292 C293 1.392 . S
C292 H305 0.951 . S
C293 C292 1.392 . S
C293 C295 1.384 . S
H294 C296 0.949 . S
C295 C293 1.384 . S
C295 C296 1.385 . S
C295 H297 0.950 . S
C296 C290 1.404 . S
C296 H294 0.949 . S
C296 C295 1.385 . S
H297 C295 0.950 . S
H298 C282 0.951 . S
H299 C284 0.951 . S
H300 C286 0.951 . S
H301 C287 0.950 . S
H302 C288 0.950 . S
H303 C289 0.950 . S
H304 C291 0.950 . S
H305 C292 0.951 . S
C306 C307 1.386 . S
C306 C308 1.383 . S
C306 H322 0.951 . S
C307 C306 1.386 . S
C307 C311 1.383 . S
C308 C306 1.383 . S
C308 C309 1.402 . S
C308 H323 0.951 . S
C309 C308 1.402 . S
C309 C310 1.375 . S
C309 C312 1.481 . S
C310 C309 1.375 . S
C310 C311 1.367 . S
C310 H324 0.951 . S
C311 C307 1.383 . S
C311 C310 1.367 . S
C311 H325 0.950 . S
C312 C309 1.481 . S
C312 C313 1.297 . S
C312 H326 0.950 . S
C313 C312 1.297 . S
C313 C314 1.479 . S
C313 H327 0.950 . S
C314 C313 1.479 . S
C314 C315 1.375 . S
C314 C320 1.404 . S
C315 C314 1.375 . S
C315 C316 1.369 . S
C315 H328 0.950 . S
C316 C315 1.369 . S
C316 C317 1.392 . S
C316 H329 0.951 . S
C317 C316 1.392 . S
C317 C319 1.384 . S
H318 C320 0.949 . S
C319 C317 1.384 . S
C319 C320 1.385 . S
C319 H321 0.950 . S
C320 C314 1.404 . S
C320 H318 0.949 . S
C320 C319 1.385 . S
H321 C319 0.950 . S
H322 C306 0.951 . S
H323 C308 0.951 . S
H324 C310 0.951 . S
H325 C311 0.950 . S
H326 C312 0.950 . S
H327 C313 0.950 . S
H328 C315 0.950 . S
H329 C316 0.951 . S
C330 C331 1.386 . S
C330 C332 1.383 . S
C330 H346 0.951 . S
C331 C330 1.386 . S
C331 C335 1.383 . S
C332 C330 1.383 . S
C332 C333 1.402 . S
C332 H347 0.951 . S
C333 C332 1.402 . S
C333 C334 1.375 . S
C333 C336 1.481 . S
C334 C333 1.375 . S
C334 C335 1.367 . S
C334 H348 0.951 . S
C335 C331 1.383 . S
C335 C334 1.367 . S
C335 H349 0.950 . S
C336 C333 1.481 . S
C336 C337 1.297 . S
C336 H350 0.950 . S
C337 C336 1.297 . S
C337 C338 1.479 . S
C337 H351 0.950 . S
C338 C337 1.479 . S
C338 C339 1.375 . S
C338 C344 1.404 . S
C339 C338 1.375 . S
C339 C340 1.369 . S
C339 H352 0.950 . S
C340 C339 1.369 . S
C340 C341 1.392 . S
C340 H353 0.951 . S
C341 C340 1.392 . S
C341 C343 1.384 . S
H342 C344 0.949 . S
C343 C341 1.384 . S
C343 C344 1.385 . S
C343 H345 0.950 . S
C344 C338 1.404 . S
C344 H342 0.949 . S
C344 C343 1.385 . S
H345 C343 0.950 . S
H346 C330 0.951 . S
H347 C332 0.951 . S
H348 C334 0.951 . S
H349 C335 0.950 . S
H350 C336 0.950 . S
H351 C337 0.950 . S
H352 C339 0.950 . S
H353 C340 0.951 . S
C354 C355 1.386 . S
C354 C356 1.383 . S
C354 H370 0.951 . S
C355 C354 1.386 . S
C355 C359 1.383 . S
C356 C354 1.383 . S
C356 C357 1.402 . S
C356 H371 0.951 . S
C357 C356 1.402 . S
C357 C358 1.375 . S
C357 C360 1.481 . S
C358 C357 1.375 . S
C358 C359 1.367 . S
C358 H372 0.951 . S
C359 C355 1.383 . S
C359 C358 1.367 . S
C359 H373 0.950 1_556 S
C360 C357 1.481 . S
C360 C361 1.297 . S
C360 H374 0.950 . S
C361 C360 1.297 . S
C361 C362 1.479 . S
C361 H375 0.950 . S
C362 C361 1.479 . S
C362 C363 1.375 . S
C362 C368 1.404 . S
C363 C362 1.375 . S
C363 C364 1.369 . S
C363 H376 0.950 . S
C364 C363 1.369 . S
C364 C365 1.392 . S
C364 H377 0.951 . S
C365 C364 1.392 . S
C365 C367 1.384 . S
H366 C368 0.949 . S
C367 C365 1.384 . S
C367 C368 1.385 . S
C367 H369 0.950 . S
C368 C362 1.404 . S
C368 H366 0.949 . S
C368 C367 1.385 . S
H369 C367 0.950 . S
H370 C354 0.951 . S
H371 C356 0.951 . S
H372 C358 0.951 . S
H373 C359 0.950 1_554 S
H374 C360 0.950 . S
H375 C361 0.950 . S
H376 C363 0.950 . S
H377 C364 0.951 . S
C101 C64 1.327 . S
C91 C40 1.433 . S
C115 C4 1.458 . S
C125 C85 1.283 . S
C139 C16 1.599 . S
C149 C61 1.334 . S
C163 C28 1.600 . S
C173 C82 1.435 . S
C197 C66 1.521 . S
C187 C9 1.519 . S
C221 C86 1.567 . S
C211 C18 1.612 . S
C235 C33 1.595 . S
C245 C62 1.574 . S
C259 C45 1.530 . S
C269 C84 1.431 . S
C293 C83 1.454 . S
C283 C21 1.507 . S
C317 C65 1.460 . S
C307 C30 1.535 . S
C341 C87 1.429 . S
C331 C42 1.452 . S
C355 C6 1.454 1_556 S
C365 C63 1.455 . S
