# Generated by pormake.
# Topology llj, (12,3)-cn, num edge types: 1
# Building blocks:
#     Node 0, Type 0, BuildingBlock: QEWDON_clean_sbu_0, # of connection points: 12
#     Node 1, Type 0, BuildingBlock: QEWDON_clean_sbu_0, # of connection points: 12
#     Node 2, Type 1, BuildingBlock: PAMTOO_clean_linker_0, # of connection points: 3
#     Node 3, Type 1, BuildingBlock: PAMTOO_clean_linker_0, # of connection points: 3
#     Node 4, Type 1, BuildingBlock: PAMTOO_clean_linker_0, # of connection points: 3
#     Node 5, Type 1, BuildingBlock: PAMTOO_clean_linker_0, # of connection points: 3
#     Node 6, Type 1, BuildingBlock: PAMTOO_clean_linker_0, # of connection points: 3
#     Node 7, Type 1, BuildingBlock: PAMTOO_clean_linker_0, # of connection points: 3
#     Node 8, Type 1, BuildingBlock: PAMTOO_clean_linker_0, # of connection points: 3
#     Node 9, Type 1, BuildingBlock: PAMTOO_clean_linker_0, # of connection points: 3
#     Edge 10, Type (0, 1), BuildingBlock: ZUJKAS_clean_linker_0, # of connection points: 2
#     Edge 11, Type (0, 1), BuildingBlock: ZUJKAS_clean_linker_0, # of connection points: 2
#     Edge 12, Type (0, 1), BuildingBlock: ZUJKAS_clean_linker_0, # of connection points: 2
#     Edge 13, Type (0, 1), BuildingBlock: ZUJKAS_clean_linker_0, # of connection points: 2
#     Edge 14, Type (0, 1), BuildingBlock: ZUJKAS_clean_linker_0, # of connection points: 2
#     Edge 15, Type (0, 1), BuildingBlock: ZUJKAS_clean_linker_0, # of connection points: 2
#     Edge 16, Type (0, 1), BuildingBlock: ZUJKAS_clean_linker_0, # of connection points: 2
#     Edge 17, Type (0, 1), BuildingBlock: ZUJKAS_clean_linker_0, # of connection points: 2
#     Edge 18, Type (0, 1), BuildingBlock: ZUJKAS_clean_linker_0, # of connection points: 2
#     Edge 19, Type (0, 1), BuildingBlock: ZUJKAS_clean_linker_0, # of connection points: 2
#     Edge 20, Type (0, 1), BuildingBlock: ZUJKAS_clean_linker_0, # of connection points: 2
#     Edge 21, Type (0, 1), BuildingBlock: ZUJKAS_clean_linker_0, # of connection points: 2
#     Edge 22, Type (0, 1), BuildingBlock: ZUJKAS_clean_linker_0, # of connection points: 2
#     Edge 23, Type (0, 1), BuildingBlock: ZUJKAS_clean_linker_0, # of connection points: 2
#     Edge 24, Type (0, 1), BuildingBlock: ZUJKAS_clean_linker_0, # of connection points: 2
#     Edge 25, Type (0, 1), BuildingBlock: ZUJKAS_clean_linker_0, # of connection points: 2
#     Edge 26, Type (0, 1), BuildingBlock: ZUJKAS_clean_linker_0, # of connection points: 2
#     Edge 27, Type (0, 1), BuildingBlock: ZUJKAS_clean_linker_0, # of connection points: 2
#     Edge 28, Type (0, 1), BuildingBlock: ZUJKAS_clean_linker_0, # of connection points: 2
#     Edge 29, Type (0, 1), BuildingBlock: ZUJKAS_clean_linker_0, # of connection points: 2
#     Edge 30, Type (0, 1), BuildingBlock: ZUJKAS_clean_linker_0, # of connection points: 2
#     Edge 31, Type (0, 1), BuildingBlock: ZUJKAS_clean_linker_0, # of connection points: 2
#     Edge 32, Type (0, 1), BuildingBlock: ZUJKAS_clean_linker_0, # of connection points: 2
#     Edge 33, Type (0, 1), BuildingBlock: ZUJKAS_clean_linker_0, # of connection points: 2
# Relax obj value: 0.009
# Max RMSD: 0.108
# Mean RMSD: 0.091
data_MOF--net-llj--node1-QEWDON_clean_sbu_0--node2-PAMTOO_clean_linker_0--edge1-ZUJKAS_clean_linker_0
_symmetry_space_group_name_H-M    P1
_symmetry_Int_Tables_number       1
_symmetry_cell_setting            triclinic
loop_
_symmetry_equiv_pos_as_xyz
'x, y, z'
_cell_length_a     49.743909
_cell_length_b     49.749748
_cell_length_c     31.276956
_cell_angle_alpha  91.239008
_cell_angle_beta   90.322288
_cell_angle_gamma 89.806909
loop_
_atom_site_label
_atom_site_type_symbol
_atom_site_fract_x
_atom_site_fract_y
_atom_site_fract_z
_atom_type_partial_charge
Zn0 Zn 0.95532 0.04678 0.96373 0.0
Zn1 Zn 0.95822 0.04961 0.06495 0.0
O2 O 0.98112 0.04625 0.01337 0.0
H3 H -0.00058 0.03987 0.01128 0.0
C4 C 0.93113 0.99866 0.9214 0.0
O5 O 0.91943 0.99869 0.95897 0.0
Zn6 Zn 0.05681 0.94021 0.06321 0.0
Zn7 Zn 0.0533 0.92242 0.9637 0.0
O8 O 0.03252 0.93964 0.01222 0.0
H9 H 0.01778 0.95195 0.00771 0.0
Zn10 Zn 0.96177 0.95903 0.96505 0.0
O11 O 0.97156 0.97928 0.01982 0.0
Zn12 Zn 0.96437 0.95427 0.06728 0.0
H13 H 0.98542 0.99281 0.02107 0.0
Zn14 Zn 0.04717 0.04707 0.97171 0.0
O15 O 0.0488 0.01799 0.01596 0.0
H16 H 0.03925 0.0012 0.0125 0.0
Zn17 Zn 0.05307 0.03963 0.06985 0.0
C18 C 0.03635 0.01353 0.89687 0.0
O19 O 0.01768 0.00465 0.92252 0.0
O20 O 0.9204 0.06679 0.97872 0.0
O21 O 0.923 0.069 0.04976 0.0
O22 O 0.08887 0.90473 0.98206 0.0
O23 O 0.09069 0.91789 0.05055 0.0
O24 O 0.9386 0.92554 0.97494 0.0
O25 O 0.94052 0.92354 0.04588 0.0
C26 C 0.0043 0.06768 0.11214 0.0
O27 O 0.06841 0.08095 0.98998 0.0
O28 O 0.07563 0.07314 0.05889 0.0
O29 O 0.03107 0.90686 0.91284 0.0
C30 C 0.91081 0.07422 0.01479 0.0
O31 O 0.97342 0.05517 0.90667 0.0
C32 C 0.01194 0.9286 0.11521 0.0
O33 O 0.95079 0.98282 0.91458 0.0
C34 C 0.10067 0.90517 0.01837 0.0
O35 O 0.05128 0.03277 0.90967 0.0
C36 C 0.94402 -0.00042 0.11637 0.0
O37 O 0.97893 0.07059 0.11011 0.0
O38 O 0.0153 0.05108 0.08605 0.0
C39 C 0.93211 0.91447 0.00974 0.0
O40 O 0.03721 0.92485 0.11394 0.0
O41 O 0.00111 0.941 0.08444 0.0
C42 C 0.07144 0.99067 0.11074 0.0
O43 O 0.9463 0.97414 0.11691 0.0
O44 O 0.95283 0.01156 0.08385 0.0
C45 C 0.07889 0.08755 0.02599 0.0
O46 O 0.06971 0.01607 0.11561 0.0
O47 O 0.06363 0.97974 0.07578 0.0
C48 C 0.00735 0.89888 0.92036 0.0
O49 O 0.99835 0.90024 0.95977 0.0
C50 C 0.99314 0.0712 0.91 0.0
O51 O -0.0004 0.08114 0.94792 0.0
Zn52 Zn 0.46096 0.56888 0.44947 0.0
Zn53 Zn 0.45872 0.55936 0.5498 0.0
O54 O 0.48192 0.55369 0.49891 0.0
H55 H 0.49518 0.53958 0.49557 0.0
C56 C 0.45944 0.47608 0.38383 0.0
O57 O 0.47958 0.48445 0.40791 0.0
Zn58 Zn 0.5408 0.44956 0.55712 0.0
Zn59 Zn 0.53955 0.43888 0.45563 0.0
O60 O 0.51795 0.45373 0.50521 0.0
H61 H 0.5034 0.46648 0.50236 0.0
Zn62 Zn 0.44815 0.44878 0.46182 0.0
O63 O 0.44937 0.48084 0.50279 0.0
Zn64 Zn 0.44522 0.46337 0.55909 0.0
H65 H 0.45974 0.49672 0.497 0.0
Zn66 Zn 0.55954 0.54304 0.44809 0.0
O67 O 0.54902 0.52138 0.49938 0.0
H68 H 0.53768 0.50567 0.4977 0.0
Zn69 Zn 0.55442 0.54523 0.55083 0.0
C70 C 0.5612 0.50119 0.3815 0.0
O71 O 0.53869 0.49429 0.40001 0.0
O72 O 0.42802 0.59187 0.4671 0.0
O73 O 0.42816 0.58554 0.53731 0.0
O74 O 0.57269 0.41682 0.47375 0.0
O75 O 0.57282 0.42483 0.54407 0.0
O76 O 0.42533 0.4178 0.48443 0.0
O77 O 0.42106 0.43074 0.5526 0.0
C78 C 0.50618 0.5691 0.60077 0.0
O79 O 0.57925 0.57803 0.46402 0.0
O80 O 0.57712 0.57803 0.53505 0.0
O81 O 0.51754 0.42712 0.40224 0.0
C82 C 0.41815 0.59637 0.50412 0.0
O83 O 0.48425 0.58071 0.39903 0.0
C84 C 0.49267 0.43611 0.6036 0.0
O85 O 0.44302 0.4593 0.39889 0.0
C86 C 0.58293 0.41352 0.51075 0.0
O87 O 0.57386 0.52166 0.39566 0.0
C88 C 0.43349 0.51521 0.59705 0.0
O89 O 0.4809 0.57297 0.59985 0.0
O90 O 0.517 0.55699 0.56895 0.0
C91 C 0.41575 0.41443 0.52165 0.0
O92 O 0.51796 0.43251 0.60304 0.0
O93 O 0.48252 0.45179 0.57621 0.0
C94 C 0.57002 0.49834 0.59859 0.0
O95 O 0.43011 0.49027 0.60247 0.0
O96 O 0.44531 0.52275 0.56361 0.0
C97 C 0.5849 0.58864 0.50038 0.0
O98 O 0.5735 0.52361 0.59657 0.0
O99 O 0.55323 0.48739 0.57281 0.0
C100 C 0.4957 0.41458 0.40807 0.0
O101 O 0.48863 0.40889 0.44725 0.0
C102 C 0.5067 0.59147 0.40851 0.0
O103 O 0.51334 0.59484 0.44898 0.0
H104 H 0.37443 0.35533 0.99449 0.0
H105 H 0.31295 0.31421 0.06375 0.0
H106 H 0.31114 0.31335 0.9266 0.0
H107 H 0.25698 0.31885 0.96788 0.0
C108 C 0.2617 0.30842 -0.00185 0.0
O109 O 0.28704 0.2972 0.99572 0.0
H110 H 0.26082 0.3236 0.0248 0.0
C111 C 0.35626 0.34336 0.99468 0.0
C112 C 0.34421 0.33538 0.9557 0.0
C113 C 0.34523 0.3359 0.0339 0.0
C114 C 0.32169 0.32041 0.03388 0.0
C115 C 0.30947 0.31239 0.99526 0.0
C116 C 0.32079 0.31969 0.95627 0.0
H117 H 0.65038 0.37951 0.98462 0.0
H118 H 0.68715 0.31627 0.05664 0.0
H119 H 0.69513 0.31669 0.9201 0.0
H120 H 0.68462 0.26333 0.95743 0.0
C121 C 0.69537 0.26626 0.98849 0.0
O122 O 0.7074 0.29119 0.99002 0.0
H123 H 0.68032 0.2648 0.01455 0.0
C124 C 0.66186 0.36097 0.9857 0.0
C125 C 0.67175 0.34947 0.94751 0.0
C126 C 0.66719 0.34926 0.02531 0.0
C127 C 0.68297 0.32583 0.0265 0.0
C128 C 0.69286 0.31411 0.98858 0.0
C129 C 0.68748 0.32602 0.94922 0.0
H130 H 0.62194 0.65504 0.00896 0.0
H131 H 0.67826 0.69924 0.93378 0.0
H132 H 0.6825 0.70406 0.07065 0.0
H133 H 0.68633 0.75466 0.02576 0.0
C134 C 0.69888 0.74796 -0.00188 0.0
O135 O 0.70338 0.72064 -0.00051 0.0
H136 H 0.68778 0.75285 0.96826 0.0
C137 C 0.63876 0.66874 0.00692 0.0
C138 C 0.65084 0.67874 0.04468 0.0
C139 C 0.64845 0.67587 0.96666 0.0
C140 C 0.67072 0.69304 0.96445 0.0
C141 C 0.68283 0.70314 0.00193 0.0
C142 C 0.67313 0.69579 0.04192 0.0
H143 H 0.37049 0.61466 -0.00152 0.0
H144 H 0.33807 0.66899 0.09427 0.0
H145 H 0.32448 0.68385 0.96128 0.0
H146 H 0.34118 0.7297 0.0185 0.0
C147 C 0.32678 0.72591 0.04483 0.0
O148 O 0.31521 0.7009 0.03951 0.0
H149 H 0.33816 0.72678 0.07554 0.0
C150 C 0.35912 0.63259 0.00705 0.0
C151 C 0.34795 0.64827 0.97462 0.0
C152 C 0.35585 0.63982 0.05036 0.0
C153 C 0.34084 0.66295 0.06109 0.0
C154 C 0.32975 0.67881 0.02895 0.0
C155 C 0.33334 0.67154 0.98584 0.0
H156 H 0.88634 0.85037 0.51433 0.0
H157 H 0.81901 0.80951 0.56899 0.0
H158 H 0.82625 0.81332 0.43282 0.0
H159 H 0.76992 0.81951 0.46444 0.0
C160 C 0.77216 0.80821 0.49458 0.0
O161 O 0.79709 0.79603 0.49571 0.0
H162 H 0.77003 0.82279 0.52188 0.0
C163 C 0.86783 0.83915 0.51035 0.0
C164 C 0.85819 0.83298 0.46896 0.0
C165 C 0.85399 0.83075 0.54674 0.0
C166 C 0.83008 0.81612 0.54141 0.0
C167 C 0.82001 0.81026 0.5004 0.0
C168 C 0.83403 0.81857 0.46432 0.0
H169 H 0.12435 0.87456 0.50841 0.0
H170 H 0.16995 0.82551 0.59458 0.0
H171 H 0.18071 0.81603 0.45903 0.0
H172 H 0.17431 0.76663 0.51063 0.0
C173 C 0.18832 0.77241 0.53715 0.0
O174 O 0.19561 0.79902 0.53413 0.0
H175 H 0.17765 0.76941 0.56784 0.0
C176 C 0.1387 0.85851 0.51377 0.0
C177 C 0.15135 0.84597 0.47861 0.0
C178 C 0.14524 0.85145 0.55578 0.0
C179 C 0.16471 0.83142 0.56245 0.0
C180 C 0.17724 0.81856 0.52753 0.0
C181 C 0.17078 0.82602 0.48575 0.0
H182 H 0.10608 0.15794 0.50213 0.0
H183 H 0.16815 0.20969 0.4561 0.0
H184 H 0.16232 0.19496 0.5904 0.0
H185 H 0.17306 0.24989 0.57291 0.0
C186 C 0.18332 0.24787 0.54147 0.0
O187 O 0.18803 0.22106 0.53215 0.0
H188 H 0.17 0.25669 0.51668 0.0
C189 C 0.12317 0.17093 0.50851 0.0
C190 C 0.13262 0.17468 0.55055 0.0
C191 C 0.13588 0.18338 0.47432 0.0
C192 C 0.15833 0.1997 0.4822 0.0
C193 C 0.16759 0.20393 0.52415 0.0
C194 C 0.15505 0.19119 0.5581 0.0
H195 H 0.85581 0.11241 0.52242 0.0
H196 H 0.80601 0.16704 0.45183 0.0
H197 H 0.80754 0.17169 0.58887 0.0
H198 H 0.75506 0.17528 0.54947 0.0
C199 C 0.75994 0.18739 0.52102 0.0
O200 O 0.7872 0.19219 0.51965 0.0
H201 H 0.75364 0.17561 0.49201 0.0
C202 C 0.84136 0.12875 0.52179 0.0
C203 C 0.83271 0.1406 0.5605 0.0
C204 C 0.83189 0.13796 0.48231 0.0
C205 C 0.8139 0.15979 0.48183 0.0
C206 C 0.80527 0.17188 0.52027 0.0
C207 C 0.8148 0.16246 0.55943 0.0
H208 H 0.10418 0.10933 0.09705 0.0
H209 H 0.13312 0.14915 0.10052 0.0
H210 H 0.12064 0.16081 0.96563 0.0
H211 H 0.09165 0.1215 0.96181 0.0
H212 H 0.18075 0.15701 0.05448 0.0
H213 H 0.10552 0.23545 0.01712 0.0
H214 H 0.09618 0.20225 0.03385 0.0
H215 H 0.10519 0.2079 0.97913 0.0
C216 C 0.10745 0.12049 0.06819 0.0
C217 C 0.0956 0.11216 0.02912 0.0
C218 C 0.12397 0.14323 0.07026 0.0
C219 C 0.12871 0.15813 0.03345 0.0
C220 C 0.11679 0.14995 0.9946 0.0
H221 H 0.2296 0.28207 0.93951 0.0
H222 H 0.19735 0.24594 0.95223 0.0
C223 C 0.10033 0.12731 0.99246 0.0
C224 C 0.14729 0.18137 0.0346 0.0
H225 H 0.15179 0.24742 0.00817 0.0
C226 C 0.17439 0.17691 0.04505 0.0
C227 C 0.13889 0.20728 0.02227 0.0
C228 C 0.1098 0.21362 0.01287 0.0
C229 C 0.1936 0.19737 0.04143 0.0
C230 C 0.18533 0.223 0.02756 0.0
C231 C 0.15808 0.22769 0.01851 0.0
C232 C 0.2048 0.24489 0.02042 0.0
C233 C 0.22273 0.19111 0.05067 0.0
C234 C 0.21953 0.25632 0.05459 0.0
C235 C 0.23788 0.27696 0.04736 0.0
C236 C 0.24151 0.28667 0.00595 0.0
C237 C 0.22685 0.27513 0.97178 0.0
C238 C 0.2085 0.25454 0.97902 0.0
H239 H 0.22647 0.16914 0.05268 0.0
H240 H 0.23588 0.19934 0.02557 0.0
H241 H 0.22858 0.20065 0.08173 0.0
H242 H 0.21676 0.24935 0.08683 0.0
H243 H 0.24921 0.28542 0.07406 0.0
H244 H 0.87966 0.08849 0.94674 0.0
H245 H 0.84184 0.11974 0.94648 0.0
H246 H 0.848 0.12956 0.08346 0.0
H247 H 0.88595 0.09798 0.08428 0.0
H248 H 0.7935 0.12409 0.04899 0.0
H249 H 0.85356 0.20162 0.96779 0.0
H250 H 0.85374 0.16912 0.9416 0.0
H251 H 0.86875 0.17322 0.99372 0.0
C252 C 0.8729 0.09703 0.97696 0.0
C253 C 0.88608 0.09091 0.01551 0.0
C254 C 0.85132 0.115 0.97668 0.0
C255 C 0.84252 0.12731 0.01483 0.0
C256 C 0.8547 0.12037 0.05365 0.0
H257 H 0.71725 0.24805 0.06287 0.0
H258 H 0.75272 0.2141 0.0715 0.0
C259 C 0.87636 0.10234 0.05402 0.0
C260 C 0.82119 0.14809 0.01368 0.0
H261 H 0.80669 0.20974 0.97351 0.0
C262 C 0.79636 0.14293 0.03281 0.0
C263 C 0.82513 0.17262 0.99259 0.0
C264 C 0.8518 0.17968 0.97305 0.0
C265 C 0.77496 0.16134 0.03013 0.0
C266 C 0.77878 0.18569 0.00839 0.0
C267 C 0.80379 0.191 0.98995 0.0
C268 C 0.75699 0.20581 0.00363 0.0
C269 C 0.74824 0.15423 0.04937 0.0
C270 C 0.74819 0.2129 0.96264 0.0
C271 C 0.72813 0.23233 0.95773 0.0
C272 C 0.71647 0.24488 0.99374 0.0
C273 C 0.72561 0.23816 0.03472 0.0
C274 C 0.74571 0.21874 0.03965 0.0
H275 H 0.74673 0.13238 0.05557 0.0
H276 H 0.74586 0.1653 0.08031 0.0
H277 H 0.73139 0.16008 0.02803 0.0
H278 H 0.75686 0.20337 0.93444 0.0
H279 H 0.72172 0.23758 0.92581 0.0
H280 H 0.91436 0.88506 0.07686 0.0
H281 H 0.87851 0.85159 0.07588 0.0
H282 H 0.8697 0.8599 0.93954 0.0
H283 H 0.90558 0.8932 0.94001 0.0
H284 H 0.82653 0.86328 0.04989 0.0
H285 H 0.86809 0.77839 0.95296 0.0
H286 H 0.88903 0.80438 0.97663 0.0
H287 H 0.87079 0.81041 0.92795 0.0
C288 C 0.90514 0.87945 0.04651 0.0
C289 C 0.9128 0.8919 0.00851 0.0
C290 C 0.88468 0.8603 0.04604 0.0
C291 C 0.87165 0.8531 0.00761 0.0
C292 C 0.87987 0.86476 0.96942 0.0
H293 H 0.72667 0.77018 0.93226 0.0
H294 H 0.76947 0.79454 0.93619 0.0
C295 C 0.90032 0.88392 0.96982 0.0
C296 C 0.84766 0.83563 0.00807 0.0
H297 H 0.82068 0.77809 0.96499 0.0
C298 C 0.82534 0.84448 0.03177 0.0
C299 C 0.84617 0.81126 0.98409 0.0
C300 C 0.86988 0.80038 0.95925 0.0
C301 C 0.80122 0.83 0.0312 0.0
C302 C 0.79961 0.80575 0.00691 0.0
C303 C 0.82204 0.7967 0.98359 0.0
C304 C 0.7745 0.78995 0.00443 0.0
C305 C 0.77739 0.84128 0.05539 0.0
C306 C 0.76353 0.7789 0.04136 0.0
C307 C 0.73907 0.76523 0.03919 0.0
C308 C 0.72529 0.76239 8e-05 0.0
C309 C 0.73677 0.77257 0.96288 0.0
C310 C 0.76119 0.78632 0.96507 0.0
H311 H 0.77998 0.86294 0.06374 0.0
H312 H 0.75859 0.83883 0.03642 0.0
H313 H 0.77505 0.83026 0.0856 0.0
H314 H 0.77381 0.781 0.07186 0.0
H315 H 0.73076 0.75703 0.06806 0.0
H316 H 0.12943 0.87853 0.95628 0.0
H317 H 0.1695 0.85073 0.96535 0.0
H318 H 0.16951 0.86877 0.10079 0.0
H319 H 0.1292 0.89657 0.09221 0.0
H320 H 0.22102 0.86482 0.00132 0.0
H321 H 0.16902 0.78534 0.09186 0.0
H322 H 0.15096 0.81004 0.06137 0.0
H323 H 0.16537 0.8192 0.11236 0.0
C324 C 0.13793 0.87671 0.98805 0.0
C325 C 0.12594 0.88967 0.02359 0.0
C326 C 0.16088 0.86083 0.99311 0.0
C327 C 0.17221 0.85743 0.03378 0.0
C328 C 0.16078 0.87084 0.06922 0.0
H329 H 0.30318 0.75184 0.11335 0.0
H330 H 0.26682 0.78534 0.11228 0.0
C331 C 0.13784 0.88682 0.06419 0.0
C332 C 0.19577 0.83951 0.03885 0.0
H333 H 0.21547 0.77962 0.08034 0.0
C334 C 0.21989 0.84624 0.01872 0.0
C335 C 0.19417 0.81534 0.06167 0.0
C336 C 0.16848 0.80682 0.08285 0.0
C337 C 0.24252 0.82937 0.02072 0.0
C338 C 0.24073 0.80486 0.04266 0.0
C339 C 0.21676 0.79841 0.0635 0.0
C340 C 0.26322 0.78524 0.04327 0.0
C341 C 0.26818 0.83806 -0.00036 0.0
C342 C 0.27293 0.77381 0.00489 0.0
C343 C 0.29371 0.75486 0.00549 0.0
C344 C 0.30509 0.747 0.04445 0.0
C345 C 0.29502 0.758 0.08289 0.0
C346 C 0.27426 0.77702 0.08229 0.0
H347 H 0.26869 0.86019 0.99553 0.0
H348 H 0.28608 0.83201 0.01855 0.0
H349 H 0.26955 0.82835 0.96745 0.0
H350 H 0.26418 0.77927 0.9745 0.0
H351 H 0.30081 0.74615 0.97556 0.0
H352 H 0.60494 0.61623 0.43311 0.0
H353 H 0.63519 0.65464 0.43541 0.0
H354 H 0.63432 0.65482 0.57325 0.0
H355 H 0.60349 0.61645 0.57142 0.0
H356 H 0.6299 0.70685 0.53676 0.0
H357 H 0.71506 0.64812 0.46846 0.0
H358 H 0.68479 0.64621 0.43701 0.0
H359 H 0.68546 0.63241 0.48967 0.0
C360 C 0.61095 0.62447 0.46401 0.0
C361 C 0.6019 0.61307 0.50211 0.0
C362 C 0.62841 0.64636 0.46522 0.0
C363 C 0.63741 0.6572 0.50447 0.0
C364 C 0.62775 0.64656 0.54262 0.0
H365 H 0.75001 0.78713 0.56631 0.0
H366 H 0.7167 0.75097 0.57051 0.0
C367 C 0.61017 0.62463 0.54149 0.0
C368 C 0.65725 0.67934 0.50538 0.0
H369 H 0.72051 0.69552 0.47315 0.0
C370 C 0.64979 0.70438 0.52318 0.0
C371 C 0.68319 0.67597 0.4877 0.0
C372 C 0.69276 0.64917 0.46998 0.0
C373 C 0.66734 0.72645 0.52251 0.0
C374 C 0.69311 0.72316 0.50415 0.0
C375 C 0.70067 0.698 0.48697 0.0
C376 C 0.71254 0.7456 0.50193 0.0
C377 C 0.65791 0.75326 0.54032 0.0
C378 C 0.72166 0.75411 0.46205 0.0
C379 C 0.74068 0.77463 0.45965 0.0
C380 C 0.75079 0.78702 0.49711 0.0
C381 C 0.74198 0.77824 0.53702 0.0
C382 C 0.72294 0.75771 0.53942 0.0
H383 H 0.6357 0.754 0.54385 0.0
H384 H 0.66706 0.75678 0.57238 0.0
H385 H 0.66421 0.76985 0.51945 0.0
H386 H 0.7141 0.7448 0.43276 0.0
H387 H 0.74761 0.78074 0.42857 0.0
H388 H 0.39469 0.61492 0.57814 0.0
H389 H 0.35618 0.64528 0.58551 0.0
H390 H 0.35003 0.64976 0.44827 0.0
H391 H 0.38865 0.6196 0.44052 0.0
H392 H 0.34734 0.69978 0.49004 0.0
H393 H 0.27719 0.62728 0.56259 0.0
H394 H 0.30882 0.63089 0.59006 0.0
H395 H 0.30794 0.61683 0.53666 0.0
C396 C 0.38504 0.62216 0.54949 0.0
C397 C 0.39467 0.61463 0.50873 0.0
C398 C 0.36297 0.63947 0.55378 0.0
C399 C 0.35 0.64944 0.51742 0.0
C400 C 0.35969 0.64218 0.47673 0.0
H401 H 0.21439 0.75405 0.4656 0.0
H402 H 0.25437 0.72508 0.46136 0.0
C403 C 0.38177 0.62492 0.47239 0.0
C404 C 0.32669 0.66792 0.52168 0.0
H405 H 0.26247 0.67252 0.55924 0.0
C406 C 0.32875 0.69382 0.50507 0.0
C407 C 0.30251 0.6601 0.54143 0.0
C408 C 0.29878 0.63219 0.5584 0.0
C409 C 0.30735 0.71222 0.50802 0.0
C410 C 0.28311 0.70432 0.52747 0.0
C411 C 0.28111 0.67851 0.54439 0.0
C412 C 0.25936 0.72236 0.52994 0.0
C413 C 0.31102 0.74009 0.4909 0.0
C414 C 0.24873 0.73009 0.56985 0.0
C415 C 0.22584 0.74644 0.57225 0.0
C416 C 0.21302 0.75495 0.53476 0.0
C417 C 0.22384 0.74747 0.49487 0.0
C418 C 0.24673 0.73114 0.49247 0.0
H419 H 0.33262 0.74524 0.48766 0.0
H420 H 0.30157 0.74109 0.45876 0.0
H421 H 0.30127 0.75543 0.51201 0.0
H422 H 0.25818 0.72351 0.59912 0.0
H423 H 0.21801 0.75226 0.60335 0.0
H424 H 0.3884 0.40271 0.59467 0.0
H425 H 0.35187 0.37037 0.60181 0.0
H426 H 0.36278 0.34412 0.47073 0.0
H427 H 0.39909 0.37646 0.46301 0.0
H428 H 0.31035 0.36202 0.49156 0.0
H429 H 0.34845 0.28741 0.60721 0.0
H430 H 0.35207 0.3221 0.62342 0.0
H431 H 0.37051 0.30922 0.5782 0.0
C432 C 0.38337 0.38972 0.56758 0.0
C433 C 0.39645 0.39238 0.52811 0.0
C434 C 0.36262 0.37114 0.57183 0.0
C435 C 0.3548 0.35482 0.53685 0.0
C436 C 0.36863 0.35654 0.49809 0.0
H437 H 0.21792 0.25382 0.47537 0.0
H438 H 0.2603 0.27888 0.47499 0.0
C439 C 0.38935 0.37507 0.49377 0.0
C440 C 0.33032 0.33824 0.53895 0.0
H441 H 0.30219 0.28476 0.58826 0.0
C442 C 0.30859 0.34502 0.51249 0.0
C443 C 0.32808 0.31637 0.56676 0.0
C444 C 0.35106 0.30812 0.59534 0.0
C445 C 0.2845 0.33059 0.51321 0.0
C446 C 0.28237 0.30838 0.54043 0.0
C447 C 0.30401 0.30172 0.56726 0.0
C448 C 0.25773 0.29191 0.54135 0.0
C449 C 0.26137 0.33964 0.48551 0.0
C450 C 0.24282 0.29025 0.57914 0.0
C451 C 0.21881 0.27577 0.57945 0.0
C452 C 0.20948 0.26274 0.54198 0.0
C453 C 0.22474 0.26391 0.50448 0.0
C454 C 0.24878 0.27825 0.50423 0.0
H455 H 0.2637 0.36087 0.47587 0.0
H456 H 0.26062 0.32691 0.45597 0.0
H457 H 0.2419 0.33766 0.50235 0.0
H458 H 0.24949 0.30059 0.60812 0.0
H459 H 0.2074 0.27501 0.60879 0.0
H460 H 0.60794 0.39787 0.58469 0.0
H461 H 0.64317 0.36373 0.59193 0.0
H462 H 0.64484 0.35238 0.45492 0.0
H463 H 0.60999 0.38648 0.44721 0.0
H464 H 0.63806 0.31051 0.56537 0.0
H465 H 0.72452 0.35716 0.48497 0.0
H466 H 0.69558 0.37631 0.5027 0.0
H467 H 0.69444 0.3574 0.45302 0.0
C468 C 0.6161 0.38842 0.55604 0.0
C469 C 0.60604 0.39488 0.51534 0.0
C470 C 0.63623 0.36893 0.56028 0.0
C471 C 0.64686 0.35578 0.52396 0.0
C472 C 0.63736 0.36268 0.48333 0.0
H473 H 0.73881 0.21607 0.45503 0.0
H474 H 0.71295 0.25814 0.45925 0.0
C475 C 0.61724 0.38208 0.47902 0.0
C476 C 0.66607 0.33316 0.52839 0.0
H477 H 0.72682 0.30938 0.49379 0.0
C478 C 0.65766 0.31039 0.55035 0.0
C479 C 0.69157 0.33306 0.50862 0.0
C480 C 0.7022 0.3574 0.48635 0.0
C481 C 0.67355 0.28704 0.55139 0.0
C482 C 0.69871 0.28667 0.53051 0.0
C483 C 0.70748 0.30971 0.50963 0.0
C484 C 0.71556 0.26207 0.52821 0.0
C485 C 0.66274 0.26258 0.57318 0.0
C486 C 0.72609 0.25073 0.56548 0.0
C487 C 0.7407 0.22669 0.56309 0.0
C488 C 0.74493 0.21364 0.52342 0.0
C489 C 0.73535 0.22557 0.48601 0.0
C490 C 0.72072 0.24958 0.4884 0.0
H491 H 0.64085 0.26434 0.57958 0.0
H492 H 0.66633 0.24413 0.55339 0.0
H493 H 0.67326 0.26018 0.60424 0.0
H494 H 0.72284 0.26038 0.5964 0.0
H495 H 0.74843 0.21808 0.59223 0.0
H496 H 0.98595 0.10845 0.16383 0.0
H497 H 0.01081 0.13361 0.21898 0.0
H498 H 0.08269 0.08898 0.18761 0.0
H499 H 0.05792 0.06341 0.1333 0.0
H500 H 0.03865 0.10511 0.28822 0.0
H501 H 0.10621 0.17064 0.19504 0.0
H502 H 0.07527 0.15708 0.17307 0.0
H503 H 0.10414 0.13576 0.17878 0.0
C504 C 0.00713 0.10412 0.16825 0.0
C505 C 0.02001 0.08391 0.14364 0.0
C506 C 0.02129 0.11863 0.19964 0.0
C507 C 0.04862 0.11341 0.20672 0.0
C508 C 0.06171 0.09368 0.18187 0.0
H509 H 0.16194 0.16187 0.4052 0.0
H510 H 0.14134 0.14704 0.33707 0.0
C511 C 0.04748 0.07901 0.15072 0.0
C512 C 0.06263 0.12646 0.2432 0.0
H513 H 0.11254 0.17064 0.2703 0.0
C514 C 0.05469 0.11958 0.2844 0.0
C515 C 0.08381 0.14488 0.23775 0.0
C516 C 0.09288 0.15275 0.19383 0.0
C517 C 0.06752 0.13051 0.32064 0.0
C518 C 0.08827 0.14957 0.31543 0.0
C519 C 0.09643 0.15627 0.2741 0.0
C520 C 0.10173 0.1623 0.35289 0.0
C521 C 0.05918 0.12096 0.36411 0.0
C522 C 0.08654 0.17682 0.38324 0.0
C523 C 0.09811 0.18486 0.4221 0.0
C524 C 0.1252 0.17907 0.43072 0.0
C525 C 0.141 0.16652 0.39902 0.0
C526 C 0.12928 0.15808 0.36027 0.0
H527 H 0.04881 0.10123 0.36191 0.0
H528 H 0.07681 0.11904 0.38579 0.0
H529 H 0.04499 0.13573 0.37867 0.0
H530 H 0.06541 0.18083 0.37766 0.0
H531 H 0.08569 0.19476 0.44607 0.0
H532 H 0.93042 0.05307 0.12353 0.0
H533 H 0.91131 0.07699 0.18483 0.0
H534 H 0.90991 0.00315 0.25447 0.0
H535 H 0.92996 0.97922 0.19347 0.0
H536 H 0.86321 0.06907 0.2247 0.0
H537 H 0.94782 0.05398 0.33813 0.0
H538 H 0.95092 0.04755 0.28136 0.0
H539 H 0.93514 0.02326 0.31473 0.0
C540 C 0.92652 0.04195 0.15186 0.0
C541 C 0.9322 0.01432 0.1535 0.0
C542 C 0.91537 0.05564 0.18695 0.0
C543 C 0.90961 0.04196 0.22449 0.0
C544 C 0.91478 0.01425 0.22616 0.0
H545 H 0.83714 0.08401 0.46655 0.0
H546 H 0.85499 0.06152 0.40253 0.0
C547 C 0.92607 0.00058 0.19109 0.0
C548 C 0.89763 0.05662 0.26149 0.0
H549 H 0.9074 0.07201 0.36729 0.0
C550 C 0.87293 0.06987 0.25583 0.0
C551 C 0.91044 0.05769 0.30199 0.0
C552 C 0.93767 0.04509 0.30944 0.0
C553 C 0.86037 0.08366 0.28992 0.0
C554 C 0.873 0.08437 0.33049 0.0
C555 C 0.89777 0.0713 0.33609 0.0
C556 C 0.86073 0.09819 0.36791 0.0
C557 C 0.83343 0.09686 0.28263 0.0
C558 C 0.85793 0.12628 0.36945 0.0
C559 C 0.84792 0.13926 0.4062 0.0
C560 C 0.8407 0.12433 0.44202 0.0
C561 C 0.84297 0.09613 0.43981 0.0
C562 C 0.85302 0.08322 0.40321 0.0
H563 H 0.82401 0.09002 0.25201 0.0
H564 H 0.81951 0.09256 0.30924 0.0
H565 H 0.83613 0.11897 0.2816 0.0
H566 H 0.86413 0.13818 0.34267 0.0
H567 H 0.84665 0.161 0.40707 0.0
H568 H 0.95739 0.92232 0.12047 0.0
H569 H 0.93139 0.90689 0.18078 0.0
H570 H 0.00463 0.8959 0.25286 0.0
H571 H 0.03076 0.91235 0.19278 0.0
H572 H 0.93382 0.85789 0.21934 0.0
H573 H 0.95838 0.94002 0.33589 0.0
H574 H 0.96478 0.9425 0.27937 0.0
H575 H 0.98729 0.92378 0.31274 0.0
C576 C 0.96797 0.91717 0.14923 0.0
C577 C 0.99609 0.91904 0.15182 0.0
C578 C 0.95308 0.9081 0.18369 0.0
C579 C 0.96602 0.90065 0.22157 0.0
C580 C 0.99416 0.90211 0.22425 0.0
H581 H 0.91272 0.83181 0.45775 0.0
H582 H 0.93824 0.84796 0.39699 0.0
C583 C 0.00907 0.9113 0.18973 0.0
C584 C 0.95001 0.89056 0.25764 0.0
H585 H 0.93506 0.90242 0.3628 0.0
C586 C 0.93398 0.86768 0.25066 0.0
C587 C 0.95019 0.90348 0.29838 0.0
C588 C 0.96587 0.92895 0.30709 0.0
C589 C 0.91849 0.85706 0.28361 0.0
C590 C 0.91894 0.8698 0.32442 0.0
C591 C 0.93488 0.8927 0.33142 0.0
C592 C 0.90318 0.8595 0.3605 0.0
C593 C 0.90215 0.83203 0.27487 0.0
C594 C 0.875 0.8607 0.36002 0.0
C595 C 0.8603 0.85175 0.39493 0.0
C596 C 0.87358 0.84149 0.43095 0.0
C597 C 0.90185 0.84003 0.43091 0.0
C598 C 0.91649 0.8491 0.39613 0.0
H599 H 0.90793 0.82181 0.24433 0.0
H600 H 0.9046 0.81766 0.3013 0.0
H601 H 0.88055 0.83754 0.27282 0.0
H602 H 0.86441 0.86901 0.33295 0.0
H603 H 0.8386 0.85347 0.39414 0.0
H604 H 0.05825 0.996 0.1948 0.0
H605 H 0.07386 0.96797 0.25381 0.0
H606 H 0.12167 0.92063 0.16544 0.0
H607 H 0.10675 0.9492 0.10684 0.0
H608 H 0.08753 0.89053 0.22529 0.0
H609 H 0.15303 0.96806 0.3026 0.0
H610 H 0.11929 0.97863 0.29028 0.0
H611 H 0.14194 0.96995 0.24763 0.0
C612 C 0.0721 0.9796 0.18814 0.0
C613 C 0.08079 0.9741 0.14624 0.0
C614 C 0.08096 0.96366 0.2217 0.0
C615 C 0.09882 0.94224 0.21378 0.0
C616 C 0.10761 0.93686 0.17197 0.0
H617 H 0.18597 0.85877 0.41467 0.0
H618 H 0.17455 0.87898 0.34598 0.0
C619 C 0.09882 0.95286 0.13851 0.0
C620 C 0.10853 0.92557 0.24919 0.0
H621 H 0.146 0.92806 0.34081 0.0
C622 C 0.10045 0.89861 0.25046 0.0
C623 C 0.12568 0.93617 0.28146 0.0
C624 C 0.13574 0.96473 0.28048 0.0
C625 C 0.10843 0.88214 0.28415 0.0
C626 C 0.12471 0.89306 0.31737 0.0
C627 C 0.13348 0.91978 0.31529 0.0
C628 C 0.13157 0.87776 0.35596 0.0
C629 C 0.09935 0.85325 0.28403 0.0
C630 C 0.11116 0.87012 0.3839 0.0
C631 C 0.11761 0.85866 0.42297 0.0
C632 C 0.1446 0.85469 0.43485 0.0
C633 C 0.16501 0.86137 0.40611 0.0
C634 C 0.15853 0.87301 0.36705 0.0
H635 H 0.09358 0.84604 0.25139 0.0
H636 H 0.11539 0.83993 0.29658 0.0
H637 H 0.08151 0.85151 0.3049 0.0
H638 H 0.09026 0.87401 0.37625 0.0
H639 H 0.10149 0.85355 0.44445 0.0
H640 H 0.01371 0.9669 0.86602 0.0
H641 H 0.02905 0.93928 0.80519 0.0
H642 H 0.08884 0.99868 0.77656 0.0
H643 H 0.07333 0.02677 0.83665 0.0
H644 H 0.06335 0.97585 0.70369 0.0
H645 H 0.10136 0.89837 0.81442 0.0
H646 H 0.06639 0.9066 0.82035 0.0
H647 H 0.0914 0.93161 0.83251 0.0
C648 C 0.02986 0.9743 0.84643 0.0
C649 C 0.04266 0.9988 0.85662 0.0
C650 C 0.03872 0.95838 0.81193 0.0
C651 C 0.06054 0.96661 0.78728 0.0
C652 C 0.07217 0.99184 0.7956 0.0
H653 H 0.16876 0.87151 0.62905 0.0
H654 H 0.14752 0.89893 0.68557 0.0
C655 C 0.06331 0.00782 0.82999 0.0
C656 C 0.07219 0.94843 0.75419 0.0
H657 H 0.10461 0.88827 0.74036 0.0
C658 C 0.0723 0.95665 0.71159 0.0
C659 C 0.08432 0.92367 0.76489 0.0
C660 C 0.08616 0.91456 0.81055 0.0
C661 C 0.08397 0.9406 0.67921 0.0
C662 C 0.09542 0.91549 0.68973 0.0
C663 C 0.09556 0.9074 0.7324 0.0
C664 C 0.10783 0.89758 0.65693 0.0
C665 C 0.08452 0.95094 0.63421 0.0
C666 C 0.09235 0.88709 0.62294 0.0
C667 C 0.10438 0.8714 0.5908 0.0
C668 C 0.1321 0.86577 0.59219 0.0
C669 C 0.14735 0.87537 0.62725 0.0
C670 C 0.13528 0.89114 0.65939 0.0
H671 H 0.08111 0.97301 0.63351 0.0
H672 H 0.10404 0.94625 0.61864 0.0
H673 H 0.06835 0.94105 0.61509 0.0
H674 H 0.071 0.89128 0.62105 0.0
H675 H 0.09203 0.86387 0.56457 0.0
H676 H 0.03647 0.10439 0.90756 0.0
H677 H 0.06063 0.11898 0.8445 0.0
H678 H 0.0091 0.07 0.7637 0.0
H679 H 0.98477 0.05506 0.82677 0.0
H680 H 0.06746 0.06811 0.74504 0.0
H681 H 0.02434 0.17123 0.75761 0.0
H682 H 0.03928 0.15888 0.80587 0.0
H683 H 0.00977 0.14289 0.78408 0.0
C684 C 0.03026 0.09665 0.87642 0.0
C685 C 0.00844 0.07892 0.87201 0.0
C686 C 0.0441 0.105 0.8405 0.0
C687 C 0.03633 0.09581 0.79964 0.0
C688 C 0.01523 0.07735 0.79511 0.0
H689 H 0.07852 0.17084 0.56273 0.0
H690 H 0.05522 0.14954 0.62151 0.0
C691 C 0.00132 0.06896 0.83109 0.0
C692 C 0.04966 0.1064 0.76164 0.0
H693 H 0.05913 0.16418 0.70719 0.0
C694 C 0.06562 0.08906 0.73651 0.0
C695 C 0.04684 0.13365 0.75061 0.0
C696 C 0.02896 0.15277 0.77567 0.0
C697 C 0.07939 0.09851 0.70083 0.0
C698 C 0.07726 0.12601 0.69064 0.0
C699 C 0.06085 0.14316 0.71537 0.0
C700 C 0.09163 0.13751 0.65418 0.0
C701 C 0.09581 0.07901 0.67409 0.0
C702 C 0.11981 0.13794 0.65338 0.0
C703 C 0.13321 0.14998 0.61969 0.0
C704 C 0.11859 0.16185 0.5864 0.0
C705 C 0.09034 0.16147 0.58752 0.0
C706 C 0.077 0.14944 0.62115 0.0
H707 H 0.09004 0.05782 0.67973 0.0
H708 H 0.09343 0.08308 0.6395 0.0
H709 H 0.11737 0.08133 0.68259 0.0
H710 H 0.13143 0.1293 0.67908 0.0
H711 H 0.15499 0.14986 0.61955 0.0
H712 H 0.95133 0.00429 0.8409 0.0
H713 H 0.9347 0.03377 0.7851 0.0
H714 H 0.87341 0.0643 0.87046 0.0
H715 H 0.88927 0.0342 0.92589 0.0
H716 H 0.85274 0.05053 0.79504 0.0
H717 H 0.94252 0.11343 0.76947 0.0
H718 H 0.95007 0.07826 0.76405 0.0
H719 H 0.93937 0.09195 0.81496 0.0
C720 C 0.93437 0.01734 0.84785 0.0
C721 C 0.92164 0.01695 0.88786 0.0
C722 C 0.9251 0.03443 0.81609 0.0
C723 C 0.90316 0.05165 0.82391 0.0
C724 C 0.89053 0.05137 0.86389 0.0
H725 H 0.84922 0.16791 0.63319 0.0
H726 H 0.86499 0.14862 0.70053 0.0
C727 C 0.89965 0.03415 0.89554 0.0
C728 C 0.892 0.06828 0.7893 0.0
H729 H 0.90887 0.1136 0.7136 0.0
C730 C 0.86495 0.06459 0.77764 0.0
C731 C 0.90779 0.08694 0.76701 0.0
C732 C 0.93646 0.09311 0.77981 0.0
C733 C 0.85357 0.07814 0.74312 0.0
C734 C 0.86985 0.09539 0.71905 0.0
C735 C 0.89654 0.10009 0.73184 0.0
C736 C 0.85994 0.10731 0.67899 0.0
C737 C 0.82427 0.07365 0.73249 0.0
C738 C 0.85209 0.09046 0.64469 0.0
C739 C 0.84299 0.10134 0.60655 0.0
C740 C 0.8418 0.12935 0.60172 0.0
C741 C 0.84968 0.14626 0.63614 0.0
C742 C 0.85884 0.1353 0.67444 0.0
H743 H 0.81292 0.06694 0.76082 0.0
H744 H 0.81473 0.09223 0.72039 0.0
H745 H 0.82257 0.05769 0.70729 0.0
H746 H 0.8532 0.0688 0.64732 0.0
H747 H 0.83677 0.08777 0.58083 0.0
H748 H 0.95584 0.88034 0.92581 0.0
H749 H 0.92627 0.86564 0.86708 0.0
H750 H 0.98938 0.88074 0.77677 0.0
H751 H 0.01909 0.89511 0.83524 0.0
H752 H 0.90927 0.89516 0.79689 0.0
H753 H 0.9658 0.80411 0.74499 0.0
H754 H 0.97161 0.82088 0.79597 0.0
H755 H 0.98624 0.83376 0.74812 0.0
C756 C 0.96344 0.88047 0.89346 0.0
C757 C 0.98977 0.88905 0.88513 0.0
C758 C 0.94653 0.87203 0.85998 0.0
C759 C 0.95576 0.87179 0.81768 0.0
C760 C 0.98204 0.88028 0.80928 0.0
H761 H 0.87508 0.87822 0.57666 0.0
H762 H 0.89694 0.88709 0.64563 0.0
C763 C 0.99894 0.8887 0.84271 0.0
C764 C 0.9377 0.86362 0.78201 0.0
H765 H 0.93275 0.82048 0.69607 0.0
C766 C 0.9142 0.87864 0.77509 0.0
C767 C 0.94399 0.84181 0.75406 0.0
C768 C 0.96815 0.82402 0.76133 0.0
C769 C 0.89742 0.87316 0.73977 0.0
C770 C 0.90458 0.85235 0.71044 0.0
C771 C 0.92743 0.83658 0.71842 0.0
C772 C 0.88951 0.84745 0.67009 0.0
C773 C 0.87229 0.88977 0.73405 0.0
C774 C 0.87833 0.82212 0.66079 0.0
C775 C 0.86605 0.81689 0.62117 0.0
C776 C 0.865 0.83686 0.59004 0.0
C777 C 0.87579 0.86236 0.59984 0.0
C778 C 0.88801 0.86756 0.63942 0.0
H779 H 0.86549 0.8989 0.7649 0.0
H780 H 0.87654 0.90636 0.71193 0.0
H781 H 0.85569 0.87746 0.72018 0.0
H782 H 0.8795 0.80627 0.68394 0.0
H783 H 0.85819 0.79697 0.61437 0.0
H784 H 0.56101 0.57415 0.60905 0.0
H785 H 0.58634 0.59078 0.67088 0.0
H786 H 0.51226 0.60383 0.73937 0.0
H787 H 0.48686 0.58641 0.67783 0.0
H788 H 0.58272 0.64135 0.70988 0.0
H789 H 0.55763 0.56135 0.82385 0.0
H790 H 0.55213 0.55756 0.76694 0.0
H791 H 0.52878 0.57655 0.79935 0.0
C792 C 0.5501 0.58009 0.63724 0.0
C793 C 0.52194 0.5787 0.63834 0.0
C794 C 0.56462 0.58978 0.67262 0.0
C795 C 0.5512 0.59818 0.70987 0.0
C796 C 0.52306 0.59695 0.71119 0.0
H797 H 0.59451 0.67214 0.95135 0.0
H798 H 0.57203 0.6535 0.88774 0.0
C799 C 0.50857 0.5872 0.67582 0.0
C800 C 0.56658 0.60917 0.7468 0.0
H801 H 0.57894 0.60046 0.85299 0.0
C802 C 0.5821 0.63232 0.74112 0.0
C803 C 0.56569 0.59727 0.78739 0.0
C804 C 0.55037 0.57167 0.79479 0.0
C805 C 0.59621 0.64437 0.7754 0.0
C806 C 0.59497 0.63269 0.81612 0.0
C807 C 0.57972 0.60937 0.82167 0.0
C808 C 0.60887 0.64466 0.85375 0.0
C809 C 0.6117 0.66987 0.76811 0.0
C810 C 0.63703 0.64579 0.85557 0.0
C811 C 0.64997 0.65631 0.89199 0.0
C812 C 0.63491 0.66568 0.92722 0.0
C813 C 0.60668 0.66471 0.925 0.0
C814 C 0.5938 0.6542 0.88865 0.0
H815 H 0.60595 0.67933 0.73751 0.0
H816 H 0.60837 0.68464 0.7947 0.0
H817 H 0.6335 0.66515 0.76696 0.0
H818 H 0.64899 0.63811 0.82915 0.0
H819 H 0.67173 0.65651 0.89299 0.0
H820 H 0.40042 0.55827 0.58852 0.0
H821 H 0.38513 0.58955 0.6453 0.0
H822 H 0.43124 0.54543 0.73779 0.0
H823 H 0.44687 0.51458 0.68094 0.0
H824 H 0.35591 0.57503 0.71652 0.0
H825 H 0.45151 0.62373 0.76639 0.0
H826 H 0.44691 0.60736 0.71476 0.0
H827 H 0.45387 0.58778 0.76121 0.0
C828 C 0.40797 0.55596 0.62074 0.0
C829 C 0.42533 0.53466 0.63044 0.0
C830 C 0.39906 0.57358 0.65312 0.0
C831 C 0.4076 0.57018 0.6955 0.0
C832 C 0.42501 0.54885 0.70511 0.0
H833 H 0.34133 0.5985 0.93841 0.0
H834 H 0.3532 0.58369 0.86599 0.0
C835 C 0.43373 0.53114 0.67281 0.0
C836 C 0.39657 0.58735 0.73043 0.0
H837 H 0.41529 0.62627 0.81657 0.0
C838 C 0.36881 0.58663 0.738 0.0
C839 C 0.41337 0.60282 0.75792 0.0
C840 C 0.44305 0.60575 0.74953 0.0
C841 C 0.35763 0.59961 0.77399 0.0
C842 C 0.37474 0.61331 0.80331 0.0
C843 C 0.40225 0.61549 0.79425 0.0
C844 C 0.36506 0.62318 0.84546 0.0
C845 C 0.32768 0.59803 0.78081 0.0
C846 C 0.3679 0.65029 0.85797 0.0
C847 C 0.36122 0.6588 0.89953 0.0
C848 C 0.35202 0.64019 0.92927 0.0
C849 C 0.34856 0.61322 0.91621 0.0
C850 C 0.35507 0.60479 0.87474 0.0
H851 H 0.31676 0.59478 0.75005 0.0
H852 H 0.32325 0.58077 0.8015 0.0
H853 H 0.31989 0.61662 0.79672 0.0
H854 H 0.3758 0.66472 0.83588 0.0
H855 H 0.36429 0.67965 0.90892 0.0
H856 H 0.50747 0.39309 0.65114 0.0
H857 H 0.48105 0.37009 0.70484 0.0
H858 H 0.4144 0.42356 0.68162 0.0
H859 H 0.44054 0.44618 0.62795 0.0
H860 H 0.46224 0.39116 0.77745 0.0
H861 H 0.37635 0.35228 0.68206 0.0
H862 H 0.40654 0.36469 0.65766 0.0
H863 H 0.38071 0.3877 0.67552 0.0
C864 C 0.48706 0.39979 0.65709 0.0
C865 C 0.47604 0.42154 0.63479 0.0
C866 C 0.47197 0.38654 0.68774 0.0
C867 C 0.44553 0.39474 0.69675 0.0
C868 C 0.43444 0.41629 0.6744 0.0
H869 H 0.3624 0.38494 0.93458 0.0
H870 H 0.38663 0.39727 0.87019 0.0
C871 C 0.44951 0.42942 0.64367 0.0
C872 C 0.43045 0.38252 0.73219 0.0
H873 H 0.36982 0.35548 0.7584 0.0
C874 C 0.44217 0.38304 0.77312 0.0
C875 C 0.4044 0.37156 0.72652 0.0
C876 C 0.3914 0.36874 0.68296 0.0
C877 C 0.42818 0.37396 0.80877 0.0
C878 C 0.40147 0.36471 0.80358 0.0
C879 C 0.39013 0.36303 0.76242 0.0
C880 C 0.38489 0.35752 0.84083 0.0
C881 C 0.44216 0.37444 0.85175 0.0
C882 C 0.37477 0.33138 0.84476 0.0
C883 C 0.36071 0.32432 0.88151 0.0
C884 C 0.35659 0.34331 0.91481 0.0
C885 C 0.36574 0.36975 0.90982 0.0
C886 C 0.37962 0.3768 0.87311 0.0
H887 H 0.46438 0.37426 0.84829 0.0
H888 H 0.43652 0.39313 0.86957 0.0
H889 H 0.43619 0.35698 0.87105 0.0
H890 H 0.37846 0.31626 0.82003 0.0
H891 H 0.35395 0.30378 0.88455 0.0
H892 H 0.61267 0.51535 0.64754 0.0
H893 H 0.63807 0.48982 0.70022 0.0
H894 H 0.58839 0.42053 0.67345 0.0
H895 H 0.56363 0.44565 0.62062 0.0
H896 H 0.61975 0.46962 0.77151 0.0
H897 H 0.66109 0.38582 0.67347 0.0
H898 H 0.64659 0.41539 0.64993 0.0
H899 H 0.6254 0.38825 0.66649 0.0
C900 C 0.60735 0.49455 0.65247 0.0
C901 C 0.58599 0.4825 0.62947 0.0
C902 C 0.62196 0.47997 0.68253 0.0
C903 C 0.61554 0.45305 0.69021 0.0
C904 C 0.59435 0.44099 0.6672 0.0
H905 H 0.62295 0.36736 0.92055 0.0
H906 H 0.61273 0.39269 0.85646 0.0
C907 C 0.57992 0.4555 0.63704 0.0
C908 C 0.62901 0.43833 0.72512 0.0
H909 H 0.65727 0.37783 0.74958 0.0
C910 C 0.62839 0.44976 0.76652 0.0
C911 C 0.64067 0.41255 0.71863 0.0
C912 C 0.64375 0.39996 0.67461 0.0
C913 C 0.63766 0.43552 0.80187 0.0
C914 C 0.64727 0.40893 0.79579 0.0
C915 C 0.64944 0.39806 0.7542 0.0
C916 C 0.65348 0.39173 0.83261 0.0
C917 C 0.63665 0.44895 0.84558 0.0
C918 C 0.67954 0.38173 0.83937 0.0
C919 C 0.68544 0.36707 0.87603 0.0
C920 C 0.66531 0.36226 0.9063 0.0
C921 C 0.63898 0.37124 0.89823 0.0
C922 C 0.63312 0.38574 0.86169 0.0
H923 H 0.63669 0.47121 0.84339 0.0
H924 H 0.61784 0.44306 0.86178 0.0
H925 H 0.65395 0.44272 0.86572 0.0
H926 H 0.69546 0.38597 0.81702 0.0
H927 H 0.7059 0.36041 0.88151 0.0
H928 H 0.53793 0.45828 0.34021 0.0
H929 H 0.55686 0.4304 0.28228 0.0
H930 H 0.62826 0.47937 0.28379 0.0
H931 H 0.60949 0.50727 0.34164 0.0
H932 H 0.6064 0.46983 0.202 0.0
H933 H 0.61884 0.37517 0.29118 0.0
H934 H 0.58577 0.38978 0.29372 0.0
H935 H 0.61371 0.40743 0.31757 0.0
C936 C 0.55773 0.46294 0.32844 0.0
C937 C 0.57229 0.48477 0.34577 0.0
C938 C 0.56856 0.44696 0.29547 0.0
C939 C 0.59415 0.45257 0.27935 0.0
C940 C 0.60856 0.47461 0.29609 0.0
H941 H 0.69261 0.35729 0.10259 0.0
H942 H 0.67512 0.38147 0.16583 0.0
C943 C 0.59777 0.49054 0.32908 0.0
C944 C 0.60557 0.43609 0.24393 0.0
H945 H 0.62606 0.37253 0.21607 0.0
C946 C 0.61078 0.44858 0.20508 0.0
C947 C 0.61155 0.40847 0.24835 0.0
C948 C 0.60743 0.39439 0.29004 0.0
C949 C 0.62131 0.43402 0.17012 0.0
C950 C 0.62646 0.40622 0.17406 0.0
C951 C 0.62184 0.39382 0.21317 0.0
C952 C 0.63629 0.38976 0.13747 0.0
C953 C 0.62701 0.44852 0.12928 0.0
C954 C 0.61992 0.38583 0.10131 0.0
C955 C 0.62973 0.37198 0.06541 0.0
C956 C 0.65615 0.36179 0.06501 0.0
C957 C 0.67216 0.36481 0.10201 0.0
C958 C 0.66226 0.37868 0.13803 0.0
H959 H 0.62781 0.47067 0.13454 0.0
H960 H 0.64635 0.44164 0.11519 0.0
H961 H 0.61079 0.44405 0.10571 0.0
H962 H 0.59964 0.39384 0.10064 0.0
H963 H 0.61671 0.36947 0.03775 0.0
H964 H 0.5527 0.62087 0.41785 0.0
H965 H 0.58239 0.63629 0.36128 0.0
H966 H 0.53168 0.59761 0.26627 0.0
H967 H 0.502 0.58193 0.32251 0.0
H968 H 0.58966 0.58889 0.25693 0.0
H969 H 0.56005 0.69656 0.2764 0.0
H970 H 0.57069 0.67947 0.32374 0.0
H971 H 0.54009 0.66962 0.29723 0.0
C972 C 0.54796 0.61552 0.38493 0.0
C973 C 0.52496 0.60029 0.37458 0.0
C974 C 0.56487 0.62442 0.35272 0.0
C975 C 0.55903 0.61824 0.30974 0.0
C976 C 0.53644 0.60259 0.29935 0.0
H977 H 0.59823 0.67942 0.06788 0.0
H978 H 0.57897 0.66536 0.13552 0.0
C979 C 0.51947 0.59375 0.33148 0.0
C980 C 0.576 0.62856 0.27525 0.0
H981 H 0.59128 0.68577 0.22241 0.0
C982 C 0.59032 0.61009 0.24958 0.0
C983 C 0.57656 0.65621 0.26585 0.0
C984 C 0.56093 0.67671 0.29196 0.0
C985 C 0.60484 0.61854 0.214 0.0
C986 C 0.60503 0.64613 0.20419 0.0
C987 C 0.59119 0.66466 0.2304 0.0
C988 C 0.61729 0.65575 0.16452 0.0
C989 C 0.61892 0.59784 0.18608 0.0
C990 C 0.64525 0.65537 0.1589 0.0
C991 C 0.65634 0.66339 0.12021 0.0
C992 C 0.63954 0.67173 0.08667 0.0
C993 C 0.6116 0.67268 0.09295 0.0
C994 C 0.6006 0.66484 0.13159 0.0
H995 H 0.61388 0.57696 0.19498 0.0
H996 H 0.61346 0.60061 0.15198 0.0
H997 H 0.64099 0.60047 0.18923 0.0
H998 H 0.65841 0.64862 0.18423 0.0
H999 H 0.67793 0.66243 0.11613 0.0
H1000 H 0.48649 0.51752 0.34766 0.0
H1001 H 0.47202 0.54383 0.28651 0.0
H1002 H 0.40426 0.49104 0.26682 0.0
H1003 H 0.41887 0.46423 0.32729 0.0
H1004 H 0.42699 0.50729 0.19094 0.0
H1005 H 0.40764 0.59439 0.30083 0.0
H1006 H 0.44159 0.58204 0.302 0.0
H1007 H 0.41466 0.56112 0.31989 0.0
C1008 C 0.46875 0.51123 0.32992 0.0
C1009 C 0.45346 0.48915 0.34288 0.0
C1010 C 0.46042 0.52641 0.29518 0.0
C1011 C 0.43663 0.51985 0.27306 0.0
C1012 C 0.42248 0.49665 0.2839 0.0
H1013 H 0.33342 0.6239 0.12547 0.0
H1014 H 0.35339 0.59453 0.17905 0.0
C1015 C 0.43082 0.48139 0.31852 0.0
C1016 C 0.42553 0.53799 0.24045 0.0
H1017 H 0.40096 0.60144 0.22699 0.0
C1018 C 0.42137 0.5279 0.19871 0.0
C1019 C 0.41774 0.56471 0.25102 0.0
C1020 C 0.42037 0.5762 0.29593 0.0
C1021 C 0.40988 0.54395 0.16704 0.0
C1022 C 0.40275 0.57087 0.17736 0.0
C1023 C 0.40667 0.58086 0.21918 0.0
C1024 C 0.39093 0.58895 0.1453 0.0
C1025 C 0.40495 0.53182 0.12307 0.0
C1026 C 0.40567 0.59596 0.10918 0.0
C1027 C 0.39441 0.61281 0.07874 0.0
C1028 C 0.36819 0.62304 0.08394 0.0
C1029 C 0.35371 0.61649 0.12072 0.0
C1030 C 0.36502 0.59961 0.15119 0.0
H1031 H 0.40529 0.50949 0.12334 0.0
H1032 H 0.38528 0.53851 0.11003 0.0
H1033 H 0.42094 0.53851 0.10116 0.0
H1034 H 0.42595 0.58847 0.1046 0.0
H1035 H 0.40628 0.61792 0.05118 0.0
H1036 H 0.44866 0.38634 0.40945 0.0
H1037 H 0.4198 0.37388 0.34861 0.0
H1038 H 0.47368 0.41389 0.26342 0.0
H1039 H 0.50267 0.42641 0.32386 0.0
H1040 H 0.41655 0.4247 0.25056 0.0
H1041 H 0.44194 0.31576 0.25671 0.0
H1042 H 0.4307 0.3314 0.30585 0.0
H1043 H 0.4621 0.34133 0.28312 0.0
C1044 C 0.45442 0.39245 0.37777 0.0
C1045 C 0.47815 0.40712 0.37143 0.0
C1046 C 0.4379 0.38532 0.3431 0.0
C1047 C 0.44482 0.39274 0.3016 0.0
C1048 C 0.4681 0.40791 0.29526 0.0
H1049 H 0.39871 0.33339 0.05304 0.0
H1050 H 0.42116 0.34796 0.1193 0.0
C1051 C 0.48469 0.41494 0.32983 0.0
C1052 C 0.42825 0.3841 0.26446 0.0
H1053 H 0.41044 0.3288 0.20448 0.0
C1054 C 0.41502 0.40374 0.24055 0.0
C1055 C 0.42661 0.35676 0.25146 0.0
C1056 C 0.44121 0.33502 0.27532 0.0
C1057 C 0.4002 0.3967 0.20367 0.0
C1058 C 0.39854 0.36934 0.19072 0.0
C1059 C 0.41165 0.34973 0.21479 0.0
C1060 C 0.38458 0.36076 0.15089 0.0
C1061 C 0.38709 0.41857 0.17809 0.0
C1062 C 0.35654 0.36287 0.14704 0.0
C1063 C 0.34364 0.35453 0.10919 0.0
C1064 C 0.35862 0.34405 0.07462 0.0
C1065 C 0.38668 0.34173 0.07889 0.0
C1066 C 0.39951 0.34991 0.11674 0.0
H1067 H 0.39401 0.43892 0.18841 0.0
H1068 H 0.3914 0.4156 0.1435 0.0
H1069 H 0.36497 0.41766 0.18224 0.0
H1070 H 0.34467 0.37089 0.17332 0.0
H1071 H 0.32201 0.35666 0.10671 0.0
loop_
_geom_bond_atom_site_label_1
_geom_bond_atom_site_label_2
_geom_bond_distance
_geom_bond_site_symmetry_2
_ccdc_geom_bond_type
Zn0 O2 1.933 1_556 S
Zn0 O20 1.985 . S
Zn0 O31 1.955 . S
Zn1 O2 1.911 . S
Zn1 O21 1.970 . S
Zn1 O37 1.945 . S
Zn1 O44 1.981 . S
O2 Zn0 1.933 1_554 S
O2 Zn1 1.911 . S
O2 H3 0.841 1_655 S
H3 O2 0.841 1_455 S
C4 O5 1.246 . S
C4 O33 1.251 1_545 S
O5 C4 1.246 . S
Zn6 O8 1.911 . S
Zn6 O23 1.970 . S
Zn6 O40 1.945 . S
Zn6 O47 1.981 . S
Zn7 O8 1.933 1_556 S
Zn7 O22 1.985 . S
Zn7 O29 1.955 . S
O8 Zn6 1.911 . S
O8 Zn7 1.933 1_554 S
O8 H9 0.841 1_455 S
H9 O8 0.841 1_655 S
Zn10 O11 1.933 1_556 S
Zn10 O24 1.985 . S
Zn10 O33 1.965 . S
O11 Zn10 1.933 1_554 S
O11 Zn12 1.911 . S
O11 H13 0.841 1_565 S
Zn12 O11 1.911 . S
Zn12 O25 1.970 . S
Zn12 O41 1.981 . S
Zn12 O43 1.945 . S
H13 O11 0.841 1_545 S
Zn14 O15 1.933 1_556 S
Zn14 O27 1.985 . S
Zn14 O35 1.955 . S
O15 Zn14 1.933 1_554 S
O15 H16 0.841 1_545 S
O15 Zn17 1.911 . S
H16 O15 0.841 1_565 S
Zn17 O15 1.911 . S
Zn17 O28 1.970 . S
Zn17 O38 1.981 . S
Zn17 O46 1.945 . S
C18 O19 1.246 . S
C18 O35 1.276 1_565 S
O19 C18 1.246 . S
O20 Zn0 1.985 . S
O20 C30 1.245 1_556 S
O21 Zn1 1.970 . S
O21 C30 1.263 . S
O22 Zn7 1.985 . S
O22 C34 1.245 1_556 S
O23 Zn6 1.970 . S
O23 C34 1.263 . S
O24 Zn10 1.985 . S
O24 C39 1.245 1_556 S
O25 Zn12 1.970 . S
O25 C39 1.263 . S
C26 O37 1.262 1_455 S
C26 O38 1.245 . S
O27 Zn14 1.985 . S
O27 C45 1.245 1_556 S
O28 Zn17 1.970 . S
O28 C45 1.263 . S
O29 Zn7 1.955 . S
O29 C48 1.276 1_455 S
C30 O20 1.245 1_554 S
C30 O21 1.263 . S
O31 Zn0 1.955 . S
O31 C50 1.276 1_655 S
C32 O40 1.262 1_655 S
C32 O41 1.245 . S
O33 C4 1.251 1_565 S
O33 Zn10 1.965 . S
C34 O22 1.245 1_554 S
C34 O23 1.263 . S
O35 Zn14 1.955 . S
O35 C18 1.276 1_545 S
C36 O43 1.262 1_545 S
C36 O44 1.245 . S
O37 Zn1 1.945 . S
O37 C26 1.262 1_655 S
O38 Zn17 1.981 . S
O38 C26 1.245 . S
C39 O24 1.245 1_554 S
C39 O25 1.263 . S
O40 Zn6 1.945 . S
O40 C32 1.262 1_455 S
O41 Zn12 1.981 . S
O41 C32 1.245 . S
C42 O46 1.262 1_565 S
C42 O47 1.245 . S
O43 Zn12 1.945 . S
O43 C36 1.262 1_565 S
O44 Zn1 1.981 . S
O44 C36 1.245 . S
C45 O27 1.245 1_554 S
C45 O28 1.263 . S
O46 Zn17 1.945 . S
O46 C42 1.262 1_545 S
O47 Zn6 1.981 . S
O47 C42 1.245 . S
C48 O29 1.276 1_655 S
C48 O49 1.246 . S
O49 C48 1.246 . S
C50 O31 1.276 1_455 S
C50 O51 1.246 . S
O51 C50 1.246 . S
Zn52 O54 1.933 . S
Zn52 O72 1.985 . S
Zn52 O83 1.955 . S
Zn53 O54 1.911 . S
Zn53 O73 1.970 . S
Zn53 O89 1.945 . S
Zn53 O96 1.981 . S
O54 Zn52 1.933 . S
O54 Zn53 1.911 . S
O54 H55 0.841 . S
H55 O54 0.841 . S
C56 O57 1.246 . S
C56 O85 1.276 . S
O57 C56 1.246 . S
Zn58 O60 1.911 . S
Zn58 O75 1.970 . S
Zn58 O92 1.945 . S
Zn58 O99 1.981 . S
Zn59 O60 1.933 . S
Zn59 O74 1.985 . S
Zn59 O81 1.955 . S
O60 Zn58 1.911 . S
O60 Zn59 1.933 . S
O60 H61 0.841 . S
H61 O60 0.841 . S
Zn62 O63 1.933 . S
Zn62 O76 1.985 . S
Zn62 O85 1.955 . S
O63 Zn62 1.933 . S
O63 Zn64 1.911 . S
O63 H65 0.841 . S
Zn64 O63 1.911 . S
Zn64 O77 1.970 . S
Zn64 O93 1.981 . S
Zn64 O95 1.945 . S
H65 O63 0.841 . S
Zn66 O67 1.933 . S
Zn66 O79 1.985 . S
Zn66 O87 1.955 . S
O67 Zn66 1.933 . S
O67 H68 0.841 . S
O67 Zn69 1.911 . S
H68 O67 0.841 . S
Zn69 O67 1.911 . S
Zn69 O80 1.970 . S
Zn69 O90 1.981 . S
Zn69 O98 1.945 . S
C70 O71 1.246 . S
C70 O87 1.276 . S
O71 C70 1.246 . S
O72 Zn52 1.985 . S
O72 C82 1.245 . S
O73 Zn53 1.970 . S
O73 C82 1.263 . S
O74 Zn59 1.985 . S
O74 C86 1.245 . S
O75 Zn58 1.970 . S
O75 C86 1.263 . S
O76 Zn62 1.985 . S
O76 C91 1.245 . S
O77 Zn64 1.970 . S
O77 C91 1.263 . S
C78 O89 1.262 . S
C78 O90 1.245 . S
O79 Zn66 1.985 . S
O79 C97 1.245 . S
O80 Zn69 1.970 . S
O80 C97 1.263 . S
O81 Zn59 1.955 . S
O81 C100 1.276 . S
C82 O72 1.245 . S
C82 O73 1.263 . S
O83 Zn52 1.955 . S
O83 C102 1.276 . S
C84 O92 1.262 . S
C84 O93 1.245 . S
O85 C56 1.276 . S
O85 Zn62 1.955 . S
C86 O74 1.245 . S
C86 O75 1.263 . S
O87 Zn66 1.955 . S
O87 C70 1.276 . S
C88 O95 1.262 . S
C88 O96 1.245 . S
O89 Zn53 1.945 . S
O89 C78 1.262 . S
O90 Zn69 1.981 . S
O90 C78 1.245 . S
C91 O76 1.245 . S
C91 O77 1.263 . S
O92 Zn58 1.945 . S
O92 C84 1.262 . S
O93 Zn64 1.981 . S
O93 C84 1.245 . S
C94 O98 1.262 . S
C94 O99 1.245 . S
O95 Zn64 1.945 . S
O95 C88 1.262 . S
O96 Zn53 1.981 . S
O96 C88 1.245 . S
C97 O79 1.245 . S
C97 O80 1.263 . S
O98 Zn69 1.945 . S
O98 C94 1.262 . S
O99 Zn58 1.981 . S
O99 C94 1.245 . S
C100 O81 1.276 . S
C100 O101 1.246 . S
O101 C100 1.246 . S
C102 O83 1.276 . S
C102 O103 1.246 . S
O103 C102 1.246 . S
H104 C111 0.929 . S
H105 C114 0.930 . S
H106 C116 0.929 . S
H107 C108 0.969 . S
C108 H107 0.969 . S
C108 O109 1.550 1_554 S
C108 H110 0.973 . S
O109 C108 1.550 1_556 S
O109 C115 1.412 . S
H110 C108 0.973 . S
C111 H104 0.929 . S
C111 C112 1.400 1_554 S
C111 C113 1.364 . S
C112 C111 1.400 1_556 S
C112 C116 1.377 . S
C113 C111 1.364 . S
C113 C114 1.374 . S
C114 H105 0.930 . S
C114 C113 1.374 . S
C114 C115 1.383 1_554 S
C115 O109 1.412 . S
C115 C114 1.383 1_556 S
C115 C116 1.394 . S
C116 H106 0.929 . S
C116 C112 1.377 . S
C116 C115 1.394 . S
H117 C124 0.929 . S
H118 C127 0.930 . S
H119 C129 0.929 . S
H120 C121 0.969 . S
C121 H120 0.969 . S
C121 O122 1.550 1_554 S
C121 H123 0.973 . S
O122 C121 1.550 1_556 S
O122 C128 1.412 1_556 S
H123 C121 0.973 . S
C124 H117 0.929 . S
C124 C125 1.400 1_554 S
C124 C126 1.364 . S
C125 C124 1.400 1_556 S
C125 C129 1.377 . S
C126 C124 1.364 . S
C126 C127 1.374 . S
C127 H118 0.930 . S
C127 C126 1.374 . S
C127 C128 1.383 . S
C128 O122 1.412 1_554 S
C128 C127 1.383 . S
C128 C129 1.394 1_554 S
C129 H119 0.929 . S
C129 C125 1.377 . S
C129 C128 1.394 1_556 S
H130 C137 0.929 . S
H131 C140 0.930 . S
H132 C142 0.929 . S
H133 C134 0.969 . S
C134 H133 0.969 . S
C134 O135 1.550 1_556 S
C134 H136 0.973 . S
O135 C134 1.550 1_554 S
O135 C141 1.412 . S
H136 C134 0.973 . S
C137 H130 0.929 . S
C137 C138 1.400 . S
C137 C139 1.364 1_554 S
C138 C137 1.400 . S
C138 C142 1.377 . S
C139 C137 1.364 1_556 S
C139 C140 1.374 . S
C140 H131 0.930 . S
C140 C139 1.374 . S
C140 C141 1.383 1_556 S
C141 O135 1.412 . S
C141 C140 1.383 1_554 S
C141 C142 1.394 . S
C142 H132 0.929 . S
C142 C138 1.377 . S
C142 C141 1.394 . S
H143 C150 0.929 . S
H144 C153 0.930 . S
H145 C155 0.929 . S
H146 C147 0.969 . S
C147 H146 0.969 . S
C147 O148 1.550 1_554 S
C147 H149 0.973 . S
O148 C147 1.550 1_556 S
O148 C154 1.411 1_556 S
H149 C147 0.973 . S
C150 H143 0.929 . S
C150 C151 1.400 1_554 S
C150 C152 1.364 . S
C151 C150 1.400 1_556 S
C151 C155 1.377 . S
C152 C150 1.364 . S
C152 C153 1.374 . S
C153 H144 0.930 . S
C153 C152 1.374 . S
C153 C154 1.390 . S
C154 O148 1.411 1_554 S
C154 C153 1.390 . S
C154 C155 1.388 1_554 S
C155 H145 0.929 . S
C155 C151 1.377 . S
C155 C154 1.388 1_556 S
H156 C163 0.929 . S
H157 C166 0.930 . S
H158 C168 0.929 . S
H159 C160 0.969 . S
C160 H159 0.969 . S
C160 O161 1.550 . S
C160 H162 0.973 . S
O161 C160 1.550 . S
O161 C167 1.412 . S
H162 C160 0.973 . S
C163 H156 0.929 . S
C163 C164 1.400 . S
C163 C165 1.364 . S
C164 C163 1.400 . S
C164 C168 1.377 . S
C165 C163 1.364 . S
C165 C166 1.374 . S
C166 H157 0.930 . S
C166 C165 1.374 . S
C166 C167 1.383 . S
C167 O161 1.412 . S
C167 C166 1.383 . S
C167 C168 1.394 . S
C168 H158 0.929 . S
C168 C164 1.377 . S
C168 C167 1.394 . S
H169 C176 0.929 . S
H170 C179 0.930 . S
H171 C181 0.929 . S
H172 C173 0.969 . S
C173 H172 0.969 . S
C173 O174 1.550 . S
C173 H175 0.973 . S
O174 C173 1.550 . S
O174 C180 1.412 . S
H175 C173 0.973 . S
C176 H169 0.929 . S
C176 C177 1.400 . S
C176 C178 1.364 . S
C177 C176 1.400 . S
C177 C181 1.377 . S
C178 C176 1.364 . S
C178 C179 1.374 . S
C179 H170 0.930 . S
C179 C178 1.374 . S
C179 C180 1.383 . S
C180 O174 1.412 . S
C180 C179 1.383 . S
C180 C181 1.394 . S
C181 H171 0.929 . S
C181 C177 1.377 . S
C181 C180 1.394 . S
H182 C189 0.929 . S
H183 C192 0.930 . S
H184 C194 0.929 . S
H185 C186 0.969 . S
C186 H185 0.969 . S
C186 O187 1.550 . S
C186 H188 0.973 . S
O187 C186 1.550 . S
O187 C193 1.412 . S
H188 C186 0.973 . S
C189 H182 0.929 . S
C189 C190 1.400 . S
C189 C191 1.364 . S
C190 C189 1.400 . S
C190 C194 1.377 . S
C191 C189 1.364 . S
C191 C192 1.374 . S
C192 H183 0.930 . S
C192 C191 1.374 . S
C192 C193 1.383 . S
C193 O187 1.412 . S
C193 C192 1.383 . S
C193 C194 1.394 . S
C194 H184 0.929 . S
C194 C190 1.377 . S
C194 C193 1.394 . S
H195 C202 0.929 . S
H196 C205 0.930 . S
H197 C207 0.929 . S
H198 C199 0.969 . S
C199 H198 0.969 . S
C199 O200 1.550 . S
C199 H201 0.973 . S
O200 C199 1.550 . S
O200 C206 1.412 . S
H201 C199 0.973 . S
C202 H195 0.929 . S
C202 C203 1.400 . S
C202 C204 1.364 . S
C203 C202 1.400 . S
C203 C207 1.377 . S
C204 C202 1.364 . S
C204 C205 1.374 . S
C205 H196 0.930 . S
C205 C204 1.374 . S
C205 C206 1.383 . S
C206 O200 1.412 . S
C206 C205 1.383 . S
C206 C207 1.394 . S
C207 H197 0.929 . S
C207 C203 1.377 . S
C207 C206 1.394 . S
H208 C216 0.929 . S
H209 C218 0.930 . S
H210 C220 0.930 . S
H211 C223 0.929 . S
H212 C226 0.930 . S
H213 C228 0.960 . S
H214 C228 0.960 . S
H215 C228 0.960 1_556 S
C216 H208 0.929 . S
C216 C217 1.377 . S
C216 C218 1.384 . S
C217 C216 1.377 . S
C217 C223 1.390 1_554 S
C218 H209 0.930 . S
C218 C216 1.384 . S
C218 C219 1.372 . S
C219 C218 1.372 . S
C219 C220 1.400 1_554 S
C219 C224 1.490 . S
C220 H210 0.930 . S
C220 C219 1.400 1_556 S
C220 C223 1.386 . S
H221 C237 0.930 . S
H222 C238 0.931 . S
C223 H211 0.929 . S
C223 C217 1.390 1_556 S
C223 C220 1.386 . S
C224 C219 1.490 . S
C224 C226 1.395 . S
C224 C227 1.403 . S
H225 C231 0.930 . S
C226 H212 0.930 . S
C226 C224 1.395 . S
C226 C229 1.403 . S
C227 C224 1.403 . S
C227 C228 1.524 . S
C227 C231 1.400 . S
C228 H213 0.960 . S
C228 H214 0.960 . S
C228 H215 0.960 1_554 S
C228 C227 1.524 . S
C229 C226 1.403 . S
C229 C230 1.392 . S
C229 C233 1.495 . S
C230 C229 1.392 . S
C230 C231 1.385 . S
C230 C232 1.478 . S
C231 H225 0.930 . S
C231 C227 1.400 . S
C231 C230 1.385 . S
C232 C230 1.478 . S
C232 C234 1.381 . S
C232 C238 1.383 1_554 S
C233 C229 1.495 . S
C233 H239 0.959 . S
C233 H240 0.961 1_554 S
C233 H241 0.960 . S
C234 C232 1.381 . S
C234 C235 1.394 . S
C234 H242 0.930 . S
C235 C234 1.394 . S
C235 C236 1.383 . S
C235 H243 0.929 . S
C236 C235 1.383 . S
C236 C237 1.377 1_554 S
C237 H221 0.930 . S
C237 C236 1.377 1_556 S
C237 C238 1.379 . S
C238 H222 0.931 . S
C238 C232 1.383 1_556 S
C238 C237 1.379 . S
H239 C233 0.959 . S
H240 C233 0.961 1_556 S
H241 C233 0.960 . S
H242 C234 0.930 . S
H243 C235 0.929 . S
H244 C252 0.929 . S
H245 C254 0.930 . S
H246 C256 0.930 . S
H247 C259 0.929 . S
H248 C262 0.930 . S
H249 C264 0.960 . S
H250 C264 0.960 . S
H251 C264 0.960 1_554 S
C252 H244 0.929 . S
C252 C253 1.377 1_556 S
C252 C254 1.384 . S
C253 C252 1.377 1_554 S
C253 C259 1.390 . S
C254 H245 0.930 . S
C254 C252 1.384 . S
C254 C255 1.372 1_556 S
C255 C254 1.372 1_554 S
C255 C256 1.400 . S
C255 C260 1.490 . S
C256 H246 0.930 . S
C256 C255 1.400 . S
C256 C259 1.386 . S
H257 C273 0.930 . S
H258 C274 0.931 . S
C259 H247 0.929 . S
C259 C253 1.390 . S
C259 C256 1.386 . S
C260 C255 1.490 . S
C260 C262 1.395 . S
C260 C263 1.403 . S
H261 C267 0.930 . S
C262 H248 0.930 . S
C262 C260 1.395 . S
C262 C265 1.403 . S
C263 C260 1.403 . S
C263 C264 1.524 1_554 S
C263 C267 1.400 . S
C264 H249 0.960 . S
C264 H250 0.960 . S
C264 H251 0.960 1_556 S
C264 C263 1.524 1_556 S
C265 C262 1.403 . S
C265 C266 1.392 . S
C265 C269 1.495 . S
C266 C265 1.392 . S
C266 C267 1.385 . S
C266 C268 1.478 . S
C267 H261 0.930 . S
C267 C263 1.400 . S
C267 C266 1.385 . S
C268 C266 1.478 . S
C268 C270 1.381 1_554 S
C268 C274 1.383 . S
C269 C265 1.495 . S
C269 H275 0.959 . S
C269 H276 0.961 . S
C269 H277 0.960 . S
C270 C268 1.381 1_556 S
C270 C271 1.394 . S
C270 H278 0.930 . S
C271 C270 1.394 . S
C271 C272 1.383 1_556 S
C271 H279 0.929 . S
C272 C271 1.383 1_554 S
C272 C273 1.377 . S
C273 H257 0.930 . S
C273 C272 1.377 . S
C273 C274 1.379 . S
C274 H258 0.931 . S
C274 C268 1.383 . S
C274 C273 1.379 . S
H275 C269 0.959 . S
H276 C269 0.961 . S
H277 C269 0.960 . S
H278 C270 0.930 . S
H279 C271 0.929 . S
H280 C288 0.929 . S
H281 C290 0.930 . S
H282 C292 0.930 . S
H283 C295 0.929 . S
H284 C298 0.930 . S
H285 C300 0.960 . S
H286 C300 0.960 . S
H287 C300 0.960 . S
C288 H280 0.929 . S
C288 C289 1.377 . S
C288 C290 1.384 . S
C289 C288 1.377 . S
C289 C295 1.390 1_554 S
C290 H281 0.930 . S
C290 C288 1.384 . S
C290 C291 1.372 . S
C291 C290 1.372 . S
C291 C292 1.400 1_554 S
C291 C296 1.490 . S
C292 H282 0.930 . S
C292 C291 1.400 1_556 S
C292 C295 1.386 . S
H293 C309 0.930 . S
H294 C310 0.931 . S
C295 H283 0.929 . S
C295 C289 1.390 1_556 S
C295 C292 1.386 . S
C296 C291 1.490 . S
C296 C298 1.395 . S
C296 C299 1.403 1_554 S
H297 C303 0.930 . S
C298 H284 0.930 . S
C298 C296 1.395 . S
C298 C301 1.403 . S
C299 C296 1.403 1_556 S
C299 C300 1.524 . S
C299 C303 1.400 . S
C300 H285 0.960 . S
C300 H286 0.960 . S
C300 H287 0.960 . S
C300 C299 1.524 . S
C301 C298 1.403 . S
C301 C302 1.392 . S
C301 C305 1.495 . S
C302 C301 1.392 . S
C302 C303 1.385 1_554 S
C302 C304 1.478 . S
C303 H297 0.930 . S
C303 C299 1.400 . S
C303 C302 1.385 1_556 S
C304 C302 1.478 . S
C304 C306 1.381 . S
C304 C310 1.383 1_554 S
C305 C301 1.495 . S
C305 H311 0.959 . S
C305 H312 0.961 . S
C305 H313 0.960 . S
C306 C304 1.381 . S
C306 C307 1.394 . S
C306 H314 0.930 . S
C307 C306 1.394 . S
C307 C308 1.383 . S
C307 H315 0.929 . S
C308 C307 1.383 . S
C308 C309 1.377 1_554 S
C309 H293 0.930 . S
C309 C308 1.377 1_556 S
C309 C310 1.379 . S
C310 H294 0.931 . S
C310 C304 1.383 1_556 S
C310 C309 1.379 . S
H311 C305 0.959 . S
H312 C305 0.961 . S
H313 C305 0.960 . S
H314 C306 0.930 . S
H315 C307 0.929 . S
H316 C324 0.929 . S
H317 C326 0.930 . S
H318 C328 0.930 . S
H319 C331 0.929 . S
H320 C334 0.930 . S
H321 C336 0.960 . S
H322 C336 0.960 . S
H323 C336 0.960 . S
C324 H316 0.929 . S
C324 C325 1.377 1_556 S
C324 C326 1.384 . S
C325 C324 1.377 1_554 S
C325 C331 1.390 . S
C326 H317 0.930 . S
C326 C324 1.384 . S
C326 C327 1.372 1_556 S
C327 C326 1.372 1_554 S
C327 C328 1.400 . S
C327 C332 1.490 . S
C328 H318 0.930 . S
C328 C327 1.400 . S
C328 C331 1.386 . S
H329 C345 0.930 . S
H330 C346 0.931 . S
C331 H319 0.929 . S
C331 C325 1.390 . S
C331 C328 1.386 . S
C332 C327 1.490 . S
C332 C334 1.395 1_554 S
C332 C335 1.403 . S
H333 C339 0.930 . S
C334 H320 0.930 . S
C334 C332 1.395 1_556 S
C334 C337 1.403 . S
C335 C332 1.403 . S
C335 C336 1.524 . S
C335 C339 1.400 . S
C336 H321 0.960 . S
C336 H322 0.960 . S
C336 H323 0.960 . S
C336 C335 1.524 . S
C337 C334 1.403 . S
C337 C338 1.392 1_556 S
C337 C341 1.495 . S
C338 C337 1.392 1_554 S
C338 C339 1.385 . S
C338 C340 1.478 . S
C339 H333 0.930 . S
C339 C335 1.400 . S
C339 C338 1.385 . S
C340 C338 1.478 . S
C340 C342 1.381 1_554 S
C340 C346 1.383 . S
C341 C337 1.495 . S
C341 H347 0.959 . S
C341 H348 0.961 . S
C341 H349 0.960 . S
C342 C340 1.381 1_556 S
C342 C343 1.394 . S
C342 H350 0.930 . S
C343 C342 1.394 . S
C343 C344 1.383 1_556 S
C343 H351 0.929 . S
C344 C343 1.383 1_554 S
C344 C345 1.377 . S
C345 H329 0.930 . S
C345 C344 1.377 . S
C345 C346 1.379 . S
C346 H330 0.931 . S
C346 C340 1.383 . S
C346 C345 1.379 . S
H347 C341 0.959 . S
H348 C341 0.961 . S
H349 C341 0.960 . S
H350 C342 0.930 . S
H351 C343 0.929 . S
H352 C360 0.929 . S
H353 C362 0.930 . S
H354 C364 0.930 . S
H355 C367 0.929 . S
H356 C370 0.930 . S
H357 C372 0.960 . S
H358 C372 0.960 . S
H359 C372 0.960 . S
C360 H352 0.929 . S
C360 C361 1.377 . S
C360 C362 1.384 . S
C361 C360 1.377 . S
C361 C367 1.390 . S
C362 H353 0.930 . S
C362 C360 1.384 . S
C362 C363 1.372 . S
C363 C362 1.372 . S
C363 C364 1.400 . S
C363 C368 1.490 . S
C364 H354 0.930 . S
C364 C363 1.400 . S
C364 C367 1.386 . S
H365 C381 0.930 . S
H366 C382 0.931 . S
C367 H355 0.929 . S
C367 C361 1.390 . S
C367 C364 1.386 . S
C368 C363 1.490 . S
C368 C370 1.395 . S
C368 C371 1.403 . S
H369 C375 0.930 . S
C370 H356 0.930 . S
C370 C368 1.395 . S
C370 C373 1.403 . S
C371 C368 1.403 . S
C371 C372 1.524 . S
C371 C375 1.400 . S
C372 H357 0.960 . S
C372 H358 0.960 . S
C372 H359 0.960 . S
C372 C371 1.524 . S
C373 C370 1.403 . S
C373 C374 1.392 . S
C373 C377 1.495 . S
C374 C373 1.392 . S
C374 C375 1.385 . S
C374 C376 1.478 . S
C375 H369 0.930 . S
C375 C371 1.400 . S
C375 C374 1.385 . S
C376 C374 1.478 . S
C376 C378 1.381 . S
C376 C382 1.383 . S
C377 C373 1.495 . S
C377 H383 0.959 . S
C377 H384 0.961 . S
C377 H385 0.960 . S
C378 C376 1.381 . S
C378 C379 1.394 . S
C378 H386 0.930 . S
C379 C378 1.394 . S
C379 C380 1.383 . S
C379 H387 0.929 . S
C380 C379 1.383 . S
C380 C381 1.377 . S
C381 H365 0.930 . S
C381 C380 1.377 . S
C381 C382 1.379 . S
C382 H366 0.931 . S
C382 C376 1.383 . S
C382 C381 1.379 . S
H383 C377 0.959 . S
H384 C377 0.961 . S
H385 C377 0.960 . S
H386 C378 0.930 . S
H387 C379 0.929 . S
H388 C396 0.929 . S
H389 C398 0.930 . S
H390 C400 0.930 . S
H391 C403 0.929 . S
H392 C406 0.930 . S
H393 C408 0.960 . S
H394 C408 0.960 . S
H395 C408 0.960 . S
C396 H388 0.929 . S
C396 C397 1.377 . S
C396 C398 1.384 . S
C397 C396 1.377 . S
C397 C403 1.390 . S
C398 H389 0.930 . S
C398 C396 1.384 . S
C398 C399 1.372 . S
C399 C398 1.372 . S
C399 C400 1.400 . S
C399 C404 1.490 . S
C400 H390 0.930 . S
C400 C399 1.400 . S
C400 C403 1.386 . S
H401 C417 0.930 . S
H402 C418 0.931 . S
C403 H391 0.929 . S
C403 C397 1.390 . S
C403 C400 1.386 . S
C404 C399 1.490 . S
C404 C406 1.395 . S
C404 C407 1.403 . S
H405 C411 0.930 . S
C406 H392 0.930 . S
C406 C404 1.395 . S
C406 C409 1.403 . S
C407 C404 1.403 . S
C407 C408 1.524 . S
C407 C411 1.400 . S
C408 H393 0.960 . S
C408 H394 0.960 . S
C408 H395 0.960 . S
C408 C407 1.524 . S
C409 C406 1.403 . S
C409 C410 1.392 . S
C409 C413 1.495 . S
C410 C409 1.392 . S
C410 C411 1.385 . S
C410 C412 1.478 . S
C411 H405 0.930 . S
C411 C407 1.400 . S
C411 C410 1.385 . S
C412 C410 1.478 . S
C412 C414 1.381 . S
C412 C418 1.383 . S
C413 C409 1.495 . S
C413 H419 0.959 . S
C413 H420 0.961 . S
C413 H421 0.960 . S
C414 C412 1.381 . S
C414 C415 1.394 . S
C414 H422 0.930 . S
C415 C414 1.394 . S
C415 C416 1.383 . S
C415 H423 0.929 . S
C416 C415 1.383 . S
C416 C417 1.377 . S
C417 H401 0.930 . S
C417 C416 1.377 . S
C417 C418 1.379 . S
C418 H402 0.931 . S
C418 C412 1.383 . S
C418 C417 1.379 . S
H419 C413 0.959 . S
H420 C413 0.961 . S
H421 C413 0.960 . S
H422 C414 0.930 . S
H423 C415 0.929 . S
H424 C432 0.929 . S
H425 C434 0.930 . S
H426 C436 0.930 . S
H427 C439 0.929 . S
H428 C442 0.930 . S
H429 C444 0.960 . S
H430 C444 0.960 . S
H431 C444 0.960 . S
C432 H424 0.929 . S
C432 C433 1.377 . S
C432 C434 1.384 . S
C433 C432 1.377 . S
C433 C439 1.390 . S
C434 H425 0.930 . S
C434 C432 1.384 . S
C434 C435 1.372 . S
C435 C434 1.372 . S
C435 C436 1.400 . S
C435 C440 1.490 . S
C436 H426 0.930 . S
C436 C435 1.400 . S
C436 C439 1.386 . S
H437 C453 0.930 . S
H438 C454 0.931 . S
C439 H427 0.929 . S
C439 C433 1.390 . S
C439 C436 1.386 . S
C440 C435 1.490 . S
C440 C442 1.395 . S
C440 C443 1.403 . S
H441 C447 0.930 . S
C442 H428 0.930 . S
C442 C440 1.395 . S
C442 C445 1.403 . S
C443 C440 1.403 . S
C443 C444 1.524 . S
C443 C447 1.400 . S
C444 H429 0.960 . S
C444 H430 0.960 . S
C444 H431 0.960 . S
C444 C443 1.524 . S
C445 C442 1.403 . S
C445 C446 1.392 . S
C445 C449 1.495 . S
C446 C445 1.392 . S
C446 C447 1.385 . S
C446 C448 1.478 . S
C447 H441 0.930 . S
C447 C443 1.400 . S
C447 C446 1.385 . S
C448 C446 1.478 . S
C448 C450 1.381 . S
C448 C454 1.383 . S
C449 C445 1.495 . S
C449 H455 0.959 . S
C449 H456 0.961 . S
C449 H457 0.960 . S
C450 C448 1.381 . S
C450 C451 1.394 . S
C450 H458 0.930 . S
C451 C450 1.394 . S
C451 C452 1.383 . S
C451 H459 0.929 . S
C452 C451 1.383 . S
C452 C453 1.377 . S
C453 H437 0.930 . S
C453 C452 1.377 . S
C453 C454 1.379 . S
C454 H438 0.931 . S
C454 C448 1.383 . S
C454 C453 1.379 . S
H455 C449 0.959 . S
H456 C449 0.961 . S
H457 C449 0.960 . S
H458 C450 0.930 . S
H459 C451 0.929 . S
H460 C468 0.929 . S
H461 C470 0.930 . S
H462 C472 0.930 . S
H463 C475 0.929 . S
H464 C478 0.930 . S
H465 C480 0.960 . S
H466 C480 0.960 . S
H467 C480 0.960 . S
C468 H460 0.929 . S
C468 C469 1.377 . S
C468 C470 1.384 . S
C469 C468 1.377 . S
C469 C475 1.390 . S
C470 H461 0.930 . S
C470 C468 1.384 . S
C470 C471 1.372 . S
C471 C470 1.372 . S
C471 C472 1.400 . S
C471 C476 1.490 . S
C472 H462 0.930 . S
C472 C471 1.400 . S
C472 C475 1.386 . S
H473 C489 0.930 . S
H474 C490 0.931 . S
C475 H463 0.929 . S
C475 C469 1.390 . S
C475 C472 1.386 . S
C476 C471 1.490 . S
C476 C478 1.395 . S
C476 C479 1.403 . S
H477 C483 0.930 . S
C478 H464 0.930 . S
C478 C476 1.395 . S
C478 C481 1.403 . S
C479 C476 1.403 . S
C479 C480 1.524 . S
C479 C483 1.400 . S
C480 H465 0.960 . S
C480 H466 0.960 . S
C480 H467 0.960 . S
C480 C479 1.524 . S
C481 C478 1.403 . S
C481 C482 1.392 . S
C481 C485 1.495 . S
C482 C481 1.392 . S
C482 C483 1.385 . S
C482 C484 1.478 . S
C483 H477 0.930 . S
C483 C479 1.400 . S
C483 C482 1.385 . S
C484 C482 1.478 . S
C484 C486 1.381 . S
C484 C490 1.383 . S
C485 C481 1.495 . S
C485 H491 0.959 . S
C485 H492 0.961 . S
C485 H493 0.960 . S
C486 C484 1.381 . S
C486 C487 1.394 . S
C486 H494 0.930 . S
C487 C486 1.394 . S
C487 C488 1.383 . S
C487 H495 0.929 . S
C488 C487 1.383 . S
C488 C489 1.377 . S
C489 H473 0.930 . S
C489 C488 1.377 . S
C489 C490 1.379 . S
C490 H474 0.931 . S
C490 C484 1.383 . S
C490 C489 1.379 . S
H491 C485 0.959 . S
H492 C485 0.961 . S
H493 C485 0.960 . S
H494 C486 0.930 . S
H495 C487 0.929 . S
H496 C504 0.929 1_655 S
H497 C506 0.930 . S
H498 C508 0.930 . S
H499 C511 0.929 . S
H500 C514 0.930 . S
H501 C516 0.960 . S
H502 C516 0.960 . S
H503 C516 0.960 . S
C504 H496 0.929 1_455 S
C504 C505 1.377 . S
C504 C506 1.384 . S
C505 C504 1.377 . S
C505 C511 1.390 . S
C506 H497 0.930 . S
C506 C504 1.384 . S
C506 C507 1.372 . S
C507 C506 1.372 . S
C507 C508 1.400 . S
C507 C512 1.490 . S
C508 H498 0.930 . S
C508 C507 1.400 . S
C508 C511 1.386 . S
H509 C525 0.930 . S
H510 C526 0.931 . S
C511 H499 0.929 . S
C511 C505 1.390 . S
C511 C508 1.386 . S
C512 C507 1.490 . S
C512 C514 1.395 . S
C512 C515 1.403 . S
H513 C519 0.930 . S
C514 H500 0.930 . S
C514 C512 1.395 . S
C514 C517 1.403 . S
C515 C512 1.403 . S
C515 C516 1.524 . S
C515 C519 1.400 . S
C516 H501 0.960 . S
C516 H502 0.960 . S
C516 H503 0.960 . S
C516 C515 1.524 . S
C517 C514 1.403 . S
C517 C518 1.392 . S
C517 C521 1.495 . S
C518 C517 1.392 . S
C518 C519 1.385 . S
C518 C520 1.478 . S
C519 H513 0.930 . S
C519 C515 1.400 . S
C519 C518 1.385 . S
C520 C518 1.478 . S
C520 C522 1.381 . S
C520 C526 1.383 . S
C521 C517 1.495 . S
C521 H527 0.959 . S
C521 H528 0.961 . S
C521 H529 0.960 . S
C522 C520 1.381 . S
C522 C523 1.394 . S
C522 H530 0.930 . S
C523 C522 1.394 . S
C523 C524 1.383 . S
C523 H531 0.929 . S
C524 C523 1.383 . S
C524 C525 1.377 . S
C525 H509 0.930 . S
C525 C524 1.377 . S
C525 C526 1.379 . S
C526 H510 0.931 . S
C526 C520 1.383 . S
C526 C525 1.379 . S
H527 C521 0.959 . S
H528 C521 0.961 . S
H529 C521 0.960 . S
H530 C522 0.930 . S
H531 C523 0.929 . S
H532 C540 0.929 . S
H533 C542 0.930 . S
H534 C544 0.930 . S
H535 C547 0.929 . S
H536 C550 0.930 . S
H537 C552 0.960 . S
H538 C552 0.960 . S
H539 C552 0.960 . S
C540 H532 0.929 . S
C540 C541 1.377 . S
C540 C542 1.384 . S
C541 C540 1.377 . S
C541 C547 1.390 . S
C542 H533 0.930 . S
C542 C540 1.384 . S
C542 C543 1.372 . S
C543 C542 1.372 . S
C543 C544 1.400 . S
C543 C548 1.490 . S
C544 H534 0.930 . S
C544 C543 1.400 . S
C544 C547 1.386 . S
H545 C561 0.930 . S
H546 C562 0.931 . S
C547 H535 0.929 . S
C547 C541 1.390 . S
C547 C544 1.386 . S
C548 C543 1.490 . S
C548 C550 1.395 . S
C548 C551 1.403 . S
H549 C555 0.930 . S
C550 H536 0.930 . S
C550 C548 1.395 . S
C550 C553 1.403 . S
C551 C548 1.403 . S
C551 C552 1.524 . S
C551 C555 1.400 . S
C552 H537 0.960 . S
C552 H538 0.960 . S
C552 H539 0.960 . S
C552 C551 1.524 . S
C553 C550 1.403 . S
C553 C554 1.392 . S
C553 C557 1.495 . S
C554 C553 1.392 . S
C554 C555 1.385 . S
C554 C556 1.478 . S
C555 H549 0.930 . S
C555 C551 1.400 . S
C555 C554 1.385 . S
C556 C554 1.478 . S
C556 C558 1.381 . S
C556 C562 1.383 . S
C557 C553 1.495 . S
C557 H563 0.959 . S
C557 H564 0.961 . S
C557 H565 0.960 . S
C558 C556 1.381 . S
C558 C559 1.394 . S
C558 H566 0.930 . S
C559 C558 1.394 . S
C559 C560 1.383 . S
C559 H567 0.929 . S
C560 C559 1.383 . S
C560 C561 1.377 . S
C561 H545 0.930 . S
C561 C560 1.377 . S
C561 C562 1.379 . S
C562 H546 0.931 . S
C562 C556 1.383 . S
C562 C561 1.379 . S
H563 C557 0.959 . S
H564 C557 0.961 . S
H565 C557 0.960 . S
H566 C558 0.930 . S
H567 C559 0.929 . S
H568 C576 0.929 . S
H569 C578 0.930 . S
H570 C580 0.930 . S
H571 C583 0.929 1_455 S
H572 C586 0.930 . S
H573 C588 0.960 . S
H574 C588 0.960 . S
H575 C588 0.960 . S
C576 H568 0.929 . S
C576 C577 1.377 . S
C576 C578 1.384 . S
C577 C576 1.377 . S
C577 C583 1.390 . S
C578 H569 0.930 . S
C578 C576 1.384 . S
C578 C579 1.372 . S
C579 C578 1.372 . S
C579 C580 1.400 . S
C579 C584 1.490 . S
C580 H570 0.930 . S
C580 C579 1.400 . S
C580 C583 1.386 . S
H581 C597 0.930 . S
H582 C598 0.931 . S
C583 H571 0.929 1_655 S
C583 C577 1.390 . S
C583 C580 1.386 . S
C584 C579 1.490 . S
C584 C586 1.395 . S
C584 C587 1.403 . S
H585 C591 0.930 . S
C586 H572 0.930 . S
C586 C584 1.395 . S
C586 C589 1.403 . S
C587 C584 1.403 . S
C587 C588 1.524 . S
C587 C591 1.400 . S
C588 H573 0.960 . S
C588 H574 0.960 . S
C588 H575 0.960 . S
C588 C587 1.524 . S
C589 C586 1.403 . S
C589 C590 1.392 . S
C589 C593 1.495 . S
C590 C589 1.392 . S
C590 C591 1.385 . S
C590 C592 1.478 . S
C591 H585 0.930 . S
C591 C587 1.400 . S
C591 C590 1.385 . S
C592 C590 1.478 . S
C592 C594 1.381 . S
C592 C598 1.383 . S
C593 C589 1.495 . S
C593 H599 0.959 . S
C593 H600 0.961 . S
C593 H601 0.960 . S
C594 C592 1.381 . S
C594 C595 1.394 . S
C594 H602 0.930 . S
C595 C594 1.394 . S
C595 C596 1.383 . S
C595 H603 0.929 . S
C596 C595 1.383 . S
C596 C597 1.377 . S
C597 H581 0.930 . S
C597 C596 1.377 . S
C597 C598 1.379 . S
C598 H582 0.931 . S
C598 C592 1.383 . S
C598 C597 1.379 . S
H599 C593 0.959 . S
H600 C593 0.961 . S
H601 C593 0.960 . S
H602 C594 0.930 . S
H603 C595 0.929 . S
H604 C612 0.929 . S
H605 C614 0.930 . S
H606 C616 0.930 . S
H607 C619 0.929 . S
H608 C622 0.930 . S
H609 C624 0.960 . S
H610 C624 0.960 1_545 S
H611 C624 0.960 . S
C612 H604 0.929 . S
C612 C613 1.377 . S
C612 C614 1.384 . S
C613 C612 1.377 . S
C613 C619 1.390 . S
C614 H605 0.930 . S
C614 C612 1.384 . S
C614 C615 1.372 . S
C615 C614 1.372 . S
C615 C616 1.400 . S
C615 C620 1.490 . S
C616 H606 0.930 . S
C616 C615 1.400 . S
C616 C619 1.386 . S
H617 C633 0.930 . S
H618 C634 0.931 . S
C619 H607 0.929 . S
C619 C613 1.390 . S
C619 C616 1.386 . S
C620 C615 1.490 . S
C620 C622 1.395 . S
C620 C623 1.403 . S
H621 C627 0.930 . S
C622 H608 0.930 . S
C622 C620 1.395 . S
C622 C625 1.403 . S
C623 C620 1.403 . S
C623 C624 1.524 . S
C623 C627 1.400 . S
C624 H609 0.960 . S
C624 H610 0.960 1_565 S
C624 H611 0.960 . S
C624 C623 1.524 . S
C625 C622 1.403 . S
C625 C626 1.392 . S
C625 C629 1.495 . S
C626 C625 1.392 . S
C626 C627 1.385 . S
C626 C628 1.478 . S
C627 H621 0.930 . S
C627 C623 1.400 . S
C627 C626 1.385 . S
C628 C626 1.478 . S
C628 C630 1.381 . S
C628 C634 1.383 . S
C629 C625 1.495 . S
C629 H635 0.959 . S
C629 H636 0.961 . S
C629 H637 0.960 . S
C630 C628 1.381 . S
C630 C631 1.394 . S
C630 H638 0.930 . S
C631 C630 1.394 . S
C631 C632 1.383 . S
C631 H639 0.929 . S
C632 C631 1.383 . S
C632 C633 1.377 . S
C633 H617 0.930 . S
C633 C632 1.377 . S
C633 C634 1.379 . S
C634 H618 0.931 . S
C634 C628 1.383 . S
C634 C633 1.379 . S
H635 C629 0.959 . S
H636 C629 0.961 . S
H637 C629 0.960 . S
H638 C630 0.930 . S
H639 C631 0.929 . S
H640 C648 0.929 . S
H641 C650 0.930 . S
H642 C652 0.930 . S
H643 C655 0.929 . S
H644 C658 0.930 . S
H645 C660 0.960 . S
H646 C660 0.960 . S
H647 C660 0.960 . S
C648 H640 0.929 . S
C648 C649 1.377 . S
C648 C650 1.384 . S
C649 C648 1.377 . S
C649 C655 1.390 . S
C650 H641 0.930 . S
C650 C648 1.384 . S
C650 C651 1.372 . S
C651 C650 1.372 . S
C651 C652 1.400 . S
C651 C656 1.490 . S
C652 H642 0.930 . S
C652 C651 1.400 . S
C652 C655 1.386 . S
H653 C669 0.930 . S
H654 C670 0.931 . S
C655 H643 0.929 . S
C655 C649 1.390 . S
C655 C652 1.386 . S
C656 C651 1.490 . S
C656 C658 1.395 . S
C656 C659 1.403 . S
H657 C663 0.930 . S
C658 H644 0.930 . S
C658 C656 1.395 . S
C658 C661 1.403 . S
C659 C656 1.403 . S
C659 C660 1.524 . S
C659 C663 1.400 . S
C660 H645 0.960 . S
C660 H646 0.960 . S
C660 H647 0.960 . S
C660 C659 1.524 . S
C661 C658 1.403 . S
C661 C662 1.392 . S
C661 C665 1.495 . S
C662 C661 1.392 . S
C662 C663 1.385 . S
C662 C664 1.478 . S
C663 H657 0.930 . S
C663 C659 1.400 . S
C663 C662 1.385 . S
C664 C662 1.478 . S
C664 C666 1.381 . S
C664 C670 1.383 . S
C665 C661 1.495 . S
C665 H671 0.959 . S
C665 H672 0.961 . S
C665 H673 0.960 . S
C666 C664 1.381 . S
C666 C667 1.394 . S
C666 H674 0.930 . S
C667 C666 1.394 . S
C667 C668 1.383 . S
C667 H675 0.929 . S
C668 C667 1.383 . S
C668 C669 1.377 . S
C669 H653 0.930 . S
C669 C668 1.377 . S
C669 C670 1.379 . S
C670 H654 0.931 . S
C670 C664 1.383 . S
C670 C669 1.379 . S
H671 C665 0.959 . S
H672 C665 0.961 . S
H673 C665 0.960 . S
H674 C666 0.930 . S
H675 C667 0.929 . S
H676 C684 0.929 . S
H677 C686 0.930 . S
H678 C688 0.930 . S
H679 C691 0.934 . S
H680 C694 0.930 . S
H681 C696 0.960 . S
H682 C696 0.960 . S
H683 C696 0.960 . S
C684 H676 0.929 . S
C684 C685 1.377 . S
C684 C686 1.384 . S
C685 C684 1.377 . S
C685 C691 1.390 . S
C686 H677 0.930 . S
C686 C684 1.384 . S
C686 C687 1.372 . S
C687 C686 1.372 . S
C687 C688 1.400 . S
C687 C692 1.490 . S
C688 H678 0.930 . S
C688 C687 1.400 . S
C688 C691 1.386 . S
H689 C705 0.930 . S
H690 C706 0.931 . S
C691 H679 0.934 . S
C691 C685 1.390 . S
C691 C688 1.386 . S
C692 C687 1.490 . S
C692 C694 1.395 . S
C692 C695 1.403 . S
H693 C699 0.930 . S
C694 H680 0.930 . S
C694 C692 1.395 . S
C694 C697 1.403 . S
C695 C692 1.403 . S
C695 C696 1.524 . S
C695 C699 1.400 . S
C696 H681 0.960 . S
C696 H682 0.960 . S
C696 H683 0.960 . S
C696 C695 1.524 . S
C697 C694 1.403 . S
C697 C698 1.392 . S
C697 C701 1.495 . S
C698 C697 1.392 . S
C698 C699 1.385 . S
C698 C700 1.478 . S
C699 H693 0.930 . S
C699 C695 1.400 . S
C699 C698 1.385 . S
C700 C698 1.478 . S
C700 C702 1.381 . S
C700 C706 1.383 . S
C701 C697 1.495 . S
C701 H707 0.959 . S
C701 H708 0.961 . S
C701 H709 0.960 . S
C702 C700 1.381 . S
C702 C703 1.394 . S
C702 H710 0.930 . S
C703 C702 1.394 . S
C703 C704 1.383 . S
C703 H711 0.929 . S
C704 C703 1.383 . S
C704 C705 1.377 . S
C705 H689 0.930 . S
C705 C704 1.377 . S
C705 C706 1.379 . S
C706 H690 0.931 . S
C706 C700 1.383 . S
C706 C705 1.379 . S
H707 C701 0.959 . S
H708 C701 0.961 . S
H709 C701 0.960 . S
H710 C702 0.930 . S
H711 C703 0.929 . S
H712 C720 0.929 . S
H713 C722 0.930 . S
H714 C724 0.930 . S
H715 C727 0.929 . S
H716 C730 0.930 . S
H717 C732 0.960 . S
H718 C732 0.960 . S
H719 C732 0.960 . S
C720 H712 0.929 . S
C720 C721 1.377 . S
C720 C722 1.384 . S
C721 C720 1.377 . S
C721 C727 1.390 . S
C722 H713 0.930 . S
C722 C720 1.384 . S
C722 C723 1.372 . S
C723 C722 1.372 . S
C723 C724 1.400 . S
C723 C728 1.490 . S
C724 H714 0.930 . S
C724 C723 1.400 . S
C724 C727 1.386 . S
H725 C741 0.930 . S
H726 C742 0.931 . S
C727 H715 0.929 . S
C727 C721 1.390 . S
C727 C724 1.386 . S
C728 C723 1.490 . S
C728 C730 1.395 . S
C728 C731 1.403 . S
H729 C735 0.930 . S
C730 H716 0.930 . S
C730 C728 1.395 . S
C730 C733 1.403 . S
C731 C728 1.403 . S
C731 C732 1.524 . S
C731 C735 1.400 . S
C732 H717 0.960 . S
C732 H718 0.960 . S
C732 H719 0.960 . S
C732 C731 1.524 . S
C733 C730 1.403 . S
C733 C734 1.392 . S
C733 C737 1.495 . S
C734 C733 1.392 . S
C734 C735 1.385 . S
C734 C736 1.478 . S
C735 H729 0.930 . S
C735 C731 1.400 . S
C735 C734 1.385 . S
C736 C734 1.478 . S
C736 C738 1.381 . S
C736 C742 1.383 . S
C737 C733 1.495 . S
C737 H743 0.959 . S
C737 H744 0.961 . S
C737 H745 0.960 . S
C738 C736 1.381 . S
C738 C739 1.394 . S
C738 H746 0.930 . S
C739 C738 1.394 . S
C739 C740 1.383 . S
C739 H747 0.929 . S
C740 C739 1.383 . S
C740 C741 1.377 . S
C741 H725 0.930 . S
C741 C740 1.377 . S
C741 C742 1.379 . S
C742 H726 0.931 . S
C742 C736 1.383 . S
C742 C741 1.379 . S
H743 C737 0.959 . S
H744 C737 0.961 . S
H745 C737 0.960 . S
H746 C738 0.930 . S
H747 C739 0.929 . S
H748 C756 0.929 . S
H749 C758 0.930 . S
H750 C760 0.930 . S
H751 C763 0.929 . S
H752 C766 0.930 . S
H753 C768 0.961 . S
H754 C768 0.960 . S
H755 C768 0.960 . S
C756 H748 0.929 . S
C756 C757 1.377 . S
C756 C758 1.384 . S
C757 C756 1.377 . S
C757 C763 1.390 . S
C758 H749 0.930 . S
C758 C756 1.384 . S
C758 C759 1.372 . S
C759 C758 1.372 . S
C759 C760 1.400 . S
C759 C764 1.490 . S
C760 H750 0.930 . S
C760 C759 1.400 . S
C760 C763 1.386 . S
H761 C777 0.930 . S
H762 C778 0.931 . S
C763 H751 0.929 . S
C763 C757 1.390 . S
C763 C760 1.386 . S
C764 C759 1.490 . S
C764 C766 1.395 . S
C764 C767 1.403 . S
H765 C771 0.930 . S
C766 H752 0.930 . S
C766 C764 1.395 . S
C766 C769 1.403 . S
C767 C764 1.403 . S
C767 C768 1.524 . S
C767 C771 1.400 . S
C768 H753 0.961 . S
C768 H754 0.960 . S
C768 H755 0.960 . S
C768 C767 1.524 . S
C769 C766 1.403 . S
C769 C770 1.392 . S
C769 C773 1.495 . S
C770 C769 1.392 . S
C770 C771 1.385 . S
C770 C772 1.478 . S
C771 H765 0.930 . S
C771 C767 1.400 . S
C771 C770 1.385 . S
C772 C770 1.478 . S
C772 C774 1.381 . S
C772 C778 1.383 . S
C773 C769 1.495 . S
C773 H779 0.959 . S
C773 H780 0.961 . S
C773 H781 0.960 . S
C774 C772 1.381 . S
C774 C775 1.394 . S
C774 H782 0.930 . S
C775 C774 1.394 . S
C775 C776 1.383 . S
C775 H783 0.929 . S
C776 C775 1.383 . S
C776 C777 1.377 . S
C777 H761 0.930 . S
C777 C776 1.377 . S
C777 C778 1.379 . S
C778 H762 0.931 . S
C778 C772 1.383 . S
C778 C777 1.379 . S
H779 C773 0.959 . S
H780 C773 0.961 . S
H781 C773 0.960 . S
H782 C774 0.930 . S
H783 C775 0.929 . S
H784 C792 0.929 . S
H785 C794 0.930 . S
H786 C796 0.930 . S
H787 C799 0.929 . S
H788 C802 0.930 . S
H789 C804 0.960 . S
H790 C804 0.960 . S
H791 C804 0.960 . S
C792 H784 0.929 . S
C792 C793 1.377 . S
C792 C794 1.384 . S
C793 C792 1.377 . S
C793 C799 1.390 . S
C794 H785 0.930 . S
C794 C792 1.384 . S
C794 C795 1.372 . S
C795 C794 1.372 . S
C795 C796 1.400 . S
C795 C800 1.490 . S
C796 H786 0.930 . S
C796 C795 1.400 . S
C796 C799 1.386 . S
H797 C813 0.930 . S
H798 C814 0.931 . S
C799 H787 0.929 . S
C799 C793 1.390 . S
C799 C796 1.386 . S
C800 C795 1.490 . S
C800 C802 1.395 . S
C800 C803 1.403 . S
H801 C807 0.930 . S
C802 H788 0.930 . S
C802 C800 1.395 . S
C802 C805 1.403 . S
C803 C800 1.403 . S
C803 C804 1.524 . S
C803 C807 1.400 . S
C804 H789 0.960 . S
C804 H790 0.960 . S
C804 H791 0.960 . S
C804 C803 1.524 . S
C805 C802 1.403 . S
C805 C806 1.392 . S
C805 C809 1.495 . S
C806 C805 1.392 . S
C806 C807 1.385 . S
C806 C808 1.478 . S
C807 H801 0.930 . S
C807 C803 1.400 . S
C807 C806 1.385 . S
C808 C806 1.478 . S
C808 C810 1.381 . S
C808 C814 1.383 . S
C809 C805 1.495 . S
C809 H815 0.959 . S
C809 H816 0.961 . S
C809 H817 0.960 . S
C810 C808 1.381 . S
C810 C811 1.394 . S
C810 H818 0.930 . S
C811 C810 1.394 . S
C811 C812 1.383 . S
C811 H819 0.929 . S
C812 C811 1.383 . S
C812 C813 1.377 . S
C813 H797 0.930 . S
C813 C812 1.377 . S
C813 C814 1.379 . S
C814 H798 0.931 . S
C814 C808 1.383 . S
C814 C813 1.379 . S
H815 C809 0.959 . S
H816 C809 0.961 . S
H817 C809 0.960 . S
H818 C810 0.930 . S
H819 C811 0.929 . S
H820 C828 0.929 . S
H821 C830 0.930 . S
H822 C832 0.930 . S
H823 C835 0.929 . S
H824 C838 0.930 . S
H825 C840 0.960 . S
H826 C840 0.960 . S
H827 C840 0.960 . S
C828 H820 0.929 . S
C828 C829 1.377 . S
C828 C830 1.384 . S
C829 C828 1.377 . S
C829 C835 1.390 . S
C830 H821 0.930 . S
C830 C828 1.384 . S
C830 C831 1.372 . S
C831 C830 1.372 . S
C831 C832 1.400 . S
C831 C836 1.490 . S
C832 H822 0.930 . S
C832 C831 1.400 . S
C832 C835 1.386 . S
H833 C849 0.930 . S
H834 C850 0.931 . S
C835 H823 0.929 . S
C835 C829 1.390 . S
C835 C832 1.386 . S
C836 C831 1.490 . S
C836 C838 1.395 . S
C836 C839 1.403 . S
H837 C843 0.930 . S
C838 H824 0.930 . S
C838 C836 1.395 . S
C838 C841 1.403 . S
C839 C836 1.403 . S
C839 C840 1.524 . S
C839 C843 1.400 . S
C840 H825 0.960 . S
C840 H826 0.960 . S
C840 H827 0.960 . S
C840 C839 1.524 . S
C841 C838 1.403 . S
C841 C842 1.392 . S
C841 C845 1.495 . S
C842 C841 1.392 . S
C842 C843 1.385 . S
C842 C844 1.478 . S
C843 H837 0.930 . S
C843 C839 1.400 . S
C843 C842 1.385 . S
C844 C842 1.478 . S
C844 C846 1.381 . S
C844 C850 1.383 . S
C845 C841 1.495 . S
C845 H851 0.959 . S
C845 H852 0.961 . S
C845 H853 0.960 . S
C846 C844 1.381 . S
C846 C847 1.394 . S
C846 H854 0.930 . S
C847 C846 1.394 . S
C847 C848 1.383 . S
C847 H855 0.929 . S
C848 C847 1.383 . S
C848 C849 1.377 . S
C849 H833 0.930 . S
C849 C848 1.377 . S
C849 C850 1.379 . S
C850 H834 0.931 . S
C850 C844 1.383 . S
C850 C849 1.379 . S
H851 C845 0.959 . S
H852 C845 0.961 . S
H853 C845 0.960 . S
H854 C846 0.930 . S
H855 C847 0.929 . S
H856 C864 0.929 . S
H857 C866 0.930 . S
H858 C868 0.930 . S
H859 C871 0.929 . S
H860 C874 0.930 . S
H861 C876 0.960 . S
H862 C876 0.960 . S
H863 C876 0.960 . S
C864 H856 0.929 . S
C864 C865 1.377 . S
C864 C866 1.384 . S
C865 C864 1.377 . S
C865 C871 1.390 . S
C866 H857 0.930 . S
C866 C864 1.384 . S
C866 C867 1.372 . S
C867 C866 1.372 . S
C867 C868 1.400 . S
C867 C872 1.490 . S
C868 H858 0.930 . S
C868 C867 1.400 . S
C868 C871 1.386 . S
H869 C885 0.930 . S
H870 C886 0.931 . S
C871 H859 0.929 . S
C871 C865 1.390 . S
C871 C868 1.386 . S
C872 C867 1.490 . S
C872 C874 1.395 . S
C872 C875 1.403 . S
H873 C879 0.930 . S
C874 H860 0.930 . S
C874 C872 1.395 . S
C874 C877 1.403 . S
C875 C872 1.403 . S
C875 C876 1.524 . S
C875 C879 1.400 . S
C876 H861 0.960 . S
C876 H862 0.960 . S
C876 H863 0.960 . S
C876 C875 1.524 . S
C877 C874 1.403 . S
C877 C878 1.392 . S
C877 C881 1.495 . S
C878 C877 1.392 . S
C878 C879 1.385 . S
C878 C880 1.478 . S
C879 H873 0.930 . S
C879 C875 1.400 . S
C879 C878 1.385 . S
C880 C878 1.478 . S
C880 C882 1.381 . S
C880 C886 1.383 . S
C881 C877 1.495 . S
C881 H887 0.959 . S
C881 H888 0.961 . S
C881 H889 0.960 . S
C882 C880 1.381 . S
C882 C883 1.394 . S
C882 H890 0.930 . S
C883 C882 1.394 . S
C883 C884 1.383 . S
C883 H891 0.929 . S
C884 C883 1.383 . S
C884 C885 1.377 . S
C885 H869 0.930 . S
C885 C884 1.377 . S
C885 C886 1.379 . S
C886 H870 0.931 . S
C886 C880 1.383 . S
C886 C885 1.379 . S
H887 C881 0.959 . S
H888 C881 0.961 . S
H889 C881 0.960 . S
H890 C882 0.930 . S
H891 C883 0.929 . S
H892 C900 0.929 . S
H893 C902 0.930 . S
H894 C904 0.930 . S
H895 C907 0.929 . S
H896 C910 0.930 . S
H897 C912 0.960 . S
H898 C912 0.960 . S
H899 C912 0.960 . S
C900 H892 0.929 . S
C900 C901 1.377 . S
C900 C902 1.384 . S
C901 C900 1.377 . S
C901 C907 1.390 . S
C902 H893 0.930 . S
C902 C900 1.384 . S
C902 C903 1.372 . S
C903 C902 1.372 . S
C903 C904 1.400 . S
C903 C908 1.490 . S
C904 H894 0.930 . S
C904 C903 1.400 . S
C904 C907 1.386 . S
H905 C921 0.930 . S
H906 C922 0.931 . S
C907 H895 0.929 . S
C907 C901 1.390 . S
C907 C904 1.386 . S
C908 C903 1.490 . S
C908 C910 1.395 . S
C908 C911 1.403 . S
H909 C915 0.930 . S
C910 H896 0.930 . S
C910 C908 1.395 . S
C910 C913 1.403 . S
C911 C908 1.403 . S
C911 C912 1.524 . S
C911 C915 1.400 . S
C912 H897 0.960 . S
C912 H898 0.960 . S
C912 H899 0.960 . S
C912 C911 1.524 . S
C913 C910 1.403 . S
C913 C914 1.392 . S
C913 C917 1.495 . S
C914 C913 1.392 . S
C914 C915 1.385 . S
C914 C916 1.478 . S
C915 H909 0.930 . S
C915 C911 1.400 . S
C915 C914 1.385 . S
C916 C914 1.478 . S
C916 C918 1.381 . S
C916 C922 1.383 . S
C917 C913 1.495 . S
C917 H923 0.959 . S
C917 H924 0.961 . S
C917 H925 0.960 . S
C918 C916 1.381 . S
C918 C919 1.394 . S
C918 H926 0.930 . S
C919 C918 1.394 . S
C919 C920 1.383 . S
C919 H927 0.929 . S
C920 C919 1.383 . S
C920 C921 1.377 . S
C921 H905 0.930 . S
C921 C920 1.377 . S
C921 C922 1.379 . S
C922 H906 0.931 . S
C922 C916 1.383 . S
C922 C921 1.379 . S
H923 C917 0.959 . S
H924 C917 0.961 . S
H925 C917 0.960 . S
H926 C918 0.930 . S
H927 C919 0.929 . S
H928 C936 0.929 . S
H929 C938 0.930 . S
H930 C940 0.930 . S
H931 C943 0.929 . S
H932 C946 0.930 . S
H933 C948 0.960 . S
H934 C948 0.960 . S
H935 C948 0.960 . S
C936 H928 0.929 . S
C936 C937 1.377 . S
C936 C938 1.384 . S
C937 C936 1.377 . S
C937 C943 1.390 . S
C938 H929 0.930 . S
C938 C936 1.384 . S
C938 C939 1.372 . S
C939 C938 1.372 . S
C939 C940 1.400 . S
C939 C944 1.490 . S
C940 H930 0.930 . S
C940 C939 1.400 . S
C940 C943 1.386 . S
H941 C957 0.930 . S
H942 C958 0.931 . S
C943 H931 0.929 . S
C943 C937 1.390 . S
C943 C940 1.386 . S
C944 C939 1.490 . S
C944 C946 1.395 . S
C944 C947 1.403 . S
H945 C951 0.930 . S
C946 H932 0.930 . S
C946 C944 1.395 . S
C946 C949 1.403 . S
C947 C944 1.403 . S
C947 C948 1.524 . S
C947 C951 1.400 . S
C948 H933 0.960 . S
C948 H934 0.960 . S
C948 H935 0.960 . S
C948 C947 1.524 . S
C949 C946 1.403 . S
C949 C950 1.392 . S
C949 C953 1.495 . S
C950 C949 1.392 . S
C950 C951 1.385 . S
C950 C952 1.478 . S
C951 H945 0.930 . S
C951 C947 1.400 . S
C951 C950 1.385 . S
C952 C950 1.478 . S
C952 C954 1.381 . S
C952 C958 1.383 . S
C953 C949 1.495 . S
C953 H959 0.959 . S
C953 H960 0.961 . S
C953 H961 0.960 . S
C954 C952 1.381 . S
C954 C955 1.394 . S
C954 H962 0.930 . S
C955 C954 1.394 . S
C955 C956 1.383 . S
C955 H963 0.929 . S
C956 C955 1.383 . S
C956 C957 1.377 . S
C957 H941 0.930 . S
C957 C956 1.377 . S
C957 C958 1.379 . S
C958 H942 0.931 . S
C958 C952 1.383 . S
C958 C957 1.379 . S
H959 C953 0.959 . S
H960 C953 0.961 . S
H961 C953 0.960 . S
H962 C954 0.930 . S
H963 C955 0.929 . S
H964 C972 0.929 . S
H965 C974 0.930 . S
H966 C976 0.930 . S
H967 C979 0.929 . S
H968 C982 0.930 . S
H969 C984 0.960 . S
H970 C984 0.960 . S
H971 C984 0.960 . S
C972 H964 0.929 . S
C972 C973 1.377 . S
C972 C974 1.384 . S
C973 C972 1.377 . S
C973 C979 1.390 . S
C974 H965 0.930 . S
C974 C972 1.384 . S
C974 C975 1.372 . S
C975 C974 1.372 . S
C975 C976 1.400 . S
C975 C980 1.490 . S
C976 H966 0.930 . S
C976 C975 1.400 . S
C976 C979 1.386 . S
H977 C993 0.930 . S
H978 C994 0.931 . S
C979 H967 0.929 . S
C979 C973 1.390 . S
C979 C976 1.386 . S
C980 C975 1.490 . S
C980 C982 1.395 . S
C980 C983 1.403 . S
H981 C987 0.930 . S
C982 H968 0.930 . S
C982 C980 1.395 . S
C982 C985 1.403 . S
C983 C980 1.403 . S
C983 C984 1.524 . S
C983 C987 1.400 . S
C984 H969 0.960 . S
C984 H970 0.960 . S
C984 H971 0.960 . S
C984 C983 1.524 . S
C985 C982 1.403 . S
C985 C986 1.392 . S
C985 C989 1.495 . S
C986 C985 1.392 . S
C986 C987 1.385 . S
C986 C988 1.478 . S
C987 H981 0.930 . S
C987 C983 1.400 . S
C987 C986 1.385 . S
C988 C986 1.478 . S
C988 C990 1.381 . S
C988 C994 1.383 . S
C989 C985 1.495 . S
C989 H995 0.959 . S
C989 H996 0.961 . S
C989 H997 0.960 . S
C990 C988 1.381 . S
C990 C991 1.394 . S
C990 H998 0.930 . S
C991 C990 1.394 . S
C991 C992 1.383 . S
C991 H999 0.929 . S
C992 C991 1.383 . S
C992 C993 1.377 . S
C993 H977 0.930 . S
C993 C992 1.377 . S
C993 C994 1.379 . S
C994 H978 0.931 . S
C994 C988 1.383 . S
C994 C993 1.379 . S
H995 C989 0.959 . S
H996 C989 0.961 . S
H997 C989 0.960 . S
H998 C990 0.930 . S
H999 C991 0.929 . S
H1000 C1008 0.929 . S
H1001 C1010 0.930 . S
H1002 C1012 0.930 . S
H1003 C1015 0.929 . S
H1004 C1018 0.930 . S
H1005 C1020 0.960 . S
H1006 C1020 0.960 . S
H1007 C1020 0.960 . S
C1008 H1000 0.929 . S
C1008 C1009 1.377 . S
C1008 C1010 1.384 . S
C1009 C1008 1.377 . S
C1009 C1015 1.390 . S
C1010 H1001 0.930 . S
C1010 C1008 1.384 . S
C1010 C1011 1.372 . S
C1011 C1010 1.372 . S
C1011 C1012 1.400 . S
C1011 C1016 1.490 . S
C1012 H1002 0.930 . S
C1012 C1011 1.400 . S
C1012 C1015 1.386 . S
H1013 C1029 0.930 . S
H1014 C1030 0.931 . S
C1015 H1003 0.929 . S
C1015 C1009 1.390 . S
C1015 C1012 1.386 . S
C1016 C1011 1.490 . S
C1016 C1018 1.395 . S
C1016 C1019 1.403 . S
H1017 C1023 0.930 . S
C1018 H1004 0.930 . S
C1018 C1016 1.395 . S
C1018 C1021 1.403 . S
C1019 C1016 1.403 . S
C1019 C1020 1.524 . S
C1019 C1023 1.400 . S
C1020 H1005 0.960 . S
C1020 H1006 0.960 . S
C1020 H1007 0.960 . S
C1020 C1019 1.524 . S
C1021 C1018 1.403 . S
C1021 C1022 1.392 . S
C1021 C1025 1.495 . S
C1022 C1021 1.392 . S
C1022 C1023 1.385 . S
C1022 C1024 1.478 . S
C1023 H1017 0.930 . S
C1023 C1019 1.400 . S
C1023 C1022 1.385 . S
C1024 C1022 1.478 . S
C1024 C1026 1.381 . S
C1024 C1030 1.383 . S
C1025 C1021 1.495 . S
C1025 H1031 0.959 . S
C1025 H1032 0.961 . S
C1025 H1033 0.960 . S
C1026 C1024 1.381 . S
C1026 C1027 1.394 . S
C1026 H1034 0.930 . S
C1027 C1026 1.394 . S
C1027 C1028 1.383 . S
C1027 H1035 0.929 . S
C1028 C1027 1.383 . S
C1028 C1029 1.377 . S
C1029 H1013 0.930 . S
C1029 C1028 1.377 . S
C1029 C1030 1.379 . S
C1030 H1014 0.931 . S
C1030 C1024 1.383 . S
C1030 C1029 1.379 . S
H1031 C1025 0.959 . S
H1032 C1025 0.961 . S
H1033 C1025 0.960 . S
H1034 C1026 0.930 . S
H1035 C1027 0.929 . S
H1036 C1044 0.929 . S
H1037 C1046 0.930 . S
H1038 C1048 0.930 . S
H1039 C1051 0.929 . S
H1040 C1054 0.930 . S
H1041 C1056 0.960 . S
H1042 C1056 0.960 . S
H1043 C1056 0.960 . S
C1044 H1036 0.929 . S
C1044 C1045 1.377 . S
C1044 C1046 1.384 . S
C1045 C1044 1.377 . S
C1045 C1051 1.390 . S
C1046 H1037 0.930 . S
C1046 C1044 1.384 . S
C1046 C1047 1.372 . S
C1047 C1046 1.372 . S
C1047 C1048 1.400 . S
C1047 C1052 1.490 . S
C1048 H1038 0.930 . S
C1048 C1047 1.400 . S
C1048 C1051 1.386 . S
H1049 C1065 0.930 . S
H1050 C1066 0.931 . S
C1051 H1039 0.929 . S
C1051 C1045 1.390 . S
C1051 C1048 1.386 . S
C1052 C1047 1.490 . S
C1052 C1054 1.395 . S
C1052 C1055 1.403 . S
H1053 C1059 0.930 . S
C1054 H1040 0.930 . S
C1054 C1052 1.395 . S
C1054 C1057 1.403 . S
C1055 C1052 1.403 . S
C1055 C1056 1.524 . S
C1055 C1059 1.400 . S
C1056 H1041 0.960 . S
C1056 H1042 0.960 . S
C1056 H1043 0.960 . S
C1056 C1055 1.524 . S
C1057 C1054 1.403 . S
C1057 C1058 1.392 . S
C1057 C1061 1.495 . S
C1058 C1057 1.392 . S
C1058 C1059 1.385 . S
C1058 C1060 1.478 . S
C1059 H1053 0.930 . S
C1059 C1055 1.400 . S
C1059 C1058 1.385 . S
C1060 C1058 1.478 . S
C1060 C1062 1.381 . S
C1060 C1066 1.383 . S
C1061 C1057 1.495 . S
C1061 H1067 0.959 . S
C1061 H1068 0.961 . S
C1061 H1069 0.960 . S
C1062 C1060 1.381 . S
C1062 C1063 1.394 . S
C1062 H1070 0.930 . S
C1063 C1062 1.394 . S
C1063 C1064 1.383 . S
C1063 H1071 0.929 . S
C1064 C1063 1.383 . S
C1064 C1065 1.377 . S
C1065 H1049 0.930 . S
C1065 C1064 1.377 . S
C1065 C1066 1.379 . S
C1066 H1050 0.931 . S
C1066 C1060 1.383 . S
C1066 C1065 1.379 . S
H1067 C1061 0.959 . S
H1068 C1061 0.961 . S
H1069 C1061 0.960 . S
H1070 C1062 0.930 . S
H1071 C1063 0.929 . S
C217 C45 1.578 . S
C236 C108 1.526 . S
C253 C30 1.576 . S
C272 C121 1.473 . S
C289 C39 1.579 . S
C308 C134 1.573 1_554 S
C344 C147 1.495 . S
C325 C34 1.576 . S
C361 C97 1.578 . S
C380 C160 1.475 . S
C416 C173 1.535 . S
C397 C82 1.576 . S
C452 C186 1.542 . S
C433 C91 1.576 . S
C488 C199 1.566 . S
C469 C86 1.579 . S
C524 C191 1.522 . S
C505 C26 1.497 . S
C560 C204 1.577 . S
C541 C36 1.531 . S
C596 C164 1.533 . S
C577 C32 1.489 . S
C632 C177 1.484 . S
C613 C42 1.461 . S
C649 C18 1.637 . S
C668 C178 1.665 . S
C704 C190 1.638 . S
C685 C50 1.585 . S
C721 C4 1.570 . S
C740 C203 1.631 . S
C757 C48 1.604 . S
C776 C165 1.650 . S
C812 C139 1.577 . S
C793 C78 1.533 . S
C829 C88 1.424 . S
C848 C151 1.471 . S
C884 C112 1.570 . S
C865 C84 1.518 . S
C920 C125 1.519 . S
C901 C94 1.473 . S
C956 C126 1.647 . S
C937 C70 1.619 . S
C992 C138 1.611 . S
C973 C102 1.559 . S
C1009 C56 1.679 . S
C1028 C152 1.705 . S
C1045 C100 1.572 . S
C1064 C113 1.601 . S
