# Generated by pormake.
# Topology zzz, (3,6)-cn, num edge types: 1
# Building blocks:
#     Node 0, Type 0, BuildingBlock: MIDCAF_clean_linker_0, # of connection points: 3
#     Node 1, Type 0, BuildingBlock: MIDCAF_clean_linker_0, # of connection points: 3
#     Node 2, Type 0, BuildingBlock: MIDCAF_clean_linker_0, # of connection points: 3
#     Node 3, Type 0, BuildingBlock: MIDCAF_clean_linker_0, # of connection points: 3
#     Node 4, Type 0, BuildingBlock: MIDCAF_clean_linker_0, # of connection points: 3
#     Node 5, Type 0, BuildingBlock: MIDCAF_clean_linker_0, # of connection points: 3
#     Node 6, Type 0, BuildingBlock: MIDCAF_clean_linker_0, # of connection points: 3
#     Node 7, Type 0, BuildingBlock: MIDCAF_clean_linker_0, # of connection points: 3
#     Node 8, Type 1, BuildingBlock: PAMTOO_clean_sbu_0, # of connection points: 6
#     Node 9, Type 1, BuildingBlock: PAMTOO_clean_sbu_0, # of connection points: 6
#     Node 10, Type 1, BuildingBlock: PAMTOO_clean_sbu_0, # of connection points: 6
#     Node 11, Type 1, BuildingBlock: PAMTOO_clean_sbu_0, # of connection points: 6
#     Edge 12, Type (0, 1), BuildingBlock: UVAHIK_clean_linker_0, # of connection points: 2
#     Edge 13, Type (0, 1), BuildingBlock: UVAHIK_clean_linker_0, # of connection points: 2
#     Edge 14, Type (0, 1), BuildingBlock: UVAHIK_clean_linker_0, # of connection points: 2
#     Edge 15, Type (0, 1), BuildingBlock: UVAHIK_clean_linker_0, # of connection points: 2
#     Edge 16, Type (0, 1), BuildingBlock: UVAHIK_clean_linker_0, # of connection points: 2
#     Edge 17, Type (0, 1), BuildingBlock: UVAHIK_clean_linker_0, # of connection points: 2
#     Edge 18, Type (0, 1), BuildingBlock: UVAHIK_clean_linker_0, # of connection points: 2
#     Edge 19, Type (0, 1), BuildingBlock: UVAHIK_clean_linker_0, # of connection points: 2
#     Edge 20, Type (0, 1), BuildingBlock: UVAHIK_clean_linker_0, # of connection points: 2
#     Edge 21, Type (0, 1), BuildingBlock: UVAHIK_clean_linker_0, # of connection points: 2
#     Edge 22, Type (0, 1), BuildingBlock: UVAHIK_clean_linker_0, # of connection points: 2
#     Edge 23, Type (0, 1), BuildingBlock: UVAHIK_clean_linker_0, # of connection points: 2
#     Edge 24, Type (0, 1), BuildingBlock: UVAHIK_clean_linker_0, # of connection points: 2
#     Edge 25, Type (0, 1), BuildingBlock: UVAHIK_clean_linker_0, # of connection points: 2
#     Edge 26, Type (0, 1), BuildingBlock: UVAHIK_clean_linker_0, # of connection points: 2
#     Edge 27, Type (0, 1), BuildingBlock: UVAHIK_clean_linker_0, # of connection points: 2
#     Edge 28, Type (0, 1), BuildingBlock: UVAHIK_clean_linker_0, # of connection points: 2
#     Edge 29, Type (0, 1), BuildingBlock: UVAHIK_clean_linker_0, # of connection points: 2
#     Edge 30, Type (0, 1), BuildingBlock: UVAHIK_clean_linker_0, # of connection points: 2
#     Edge 31, Type (0, 1), BuildingBlock: UVAHIK_clean_linker_0, # of connection points: 2
#     Edge 32, Type (0, 1), BuildingBlock: UVAHIK_clean_linker_0, # of connection points: 2
#     Edge 33, Type (0, 1), BuildingBlock: UVAHIK_clean_linker_0, # of connection points: 2
#     Edge 34, Type (0, 1), BuildingBlock: UVAHIK_clean_linker_0, # of connection points: 2
#     Edge 35, Type (0, 1), BuildingBlock: UVAHIK_clean_linker_0, # of connection points: 2
# Relax obj value: 0.330
# Max RMSD: 0.270
# Mean RMSD: 0.217
data_MOF--net-zzz--node1-PAMTOO_clean_sbu_0--node2-MIDCAF_clean_linker_0--edge1-UVAHIK_clean_linker_0
_symmetry_space_group_name_H-M    P1
_symmetry_Int_Tables_number       1
_symmetry_cell_setting            triclinic
loop_
_symmetry_equiv_pos_as_xyz
'x, y, z'
_cell_length_a     78.397732
_cell_length_b     69.037291
_cell_length_c     25.8799
_cell_angle_alpha  90.383743
_cell_angle_beta   82.845742
_cell_angle_gamma 85.028673
loop_
_atom_site_label
_atom_site_type_symbol
_atom_site_fract_x
_atom_site_fract_y
_atom_site_fract_z
_atom_type_partial_charge
C0 C 0.79339 0.51016 0.49608 0.0
C1 C 0.80898 0.49913 0.47763 0.0
C2 C 0.81058 0.49059 0.4275 0.0
C3 C 0.79763 0.4943 0.39529 0.0
H4 H 0.72183 0.54562 0.31053 0.0
H5 H 0.69767 0.53927 0.26417 0.0
H6 H 0.71489 0.47804 0.25637 0.0
H7 H 0.73885 0.4845 0.30488 0.0
H8 H 0.76327 0.55643 0.21706 0.0
H9 H 0.7823 0.56808 0.14446 0.0
H10 H 0.82559 0.55717 0.23212 0.0
H11 H 0.80663 0.5467 0.30468 0.0
H12 H 0.76919 0.52367 0.4774 0.0
H13 H 0.79157 0.51676 0.53466 0.0
H14 H 0.8224 0.48222 0.41147 0.0
H15 H 0.79992 0.48891 0.35538 0.0
N16 N 0.75689 0.51128 0.36421 0.0
N17 N 0.75735 0.53379 0.29598 0.0
N18 N 0.78095 0.52913 0.34248 0.0
C19 C 0.749 0.52053 0.32572 0.0
C20 C 0.77333 0.53814 0.30397 0.0
C21 C 0.7729 0.51596 0.373 0.0
C22 C 0.73217 0.51556 0.31147 0.0
C23 C 0.72011 0.53072 0.30045 0.0
C24 C 0.70639 0.52708 0.27317 0.0
C25 C 0.70454 0.5082 0.25512 0.0
C26 C 0.71587 0.49276 0.26962 0.0
C27 C 0.72956 0.49641 0.29769 0.0
C28 C 0.78352 0.54996 0.26604 0.0
C29 C 0.77678 0.55711 0.22132 0.0
C30 C 0.78772 0.5637 0.1795 0.0
C31 C 0.80564 0.56302 0.1814 0.0
C32 C 0.81193 0.55801 0.22861 0.0
C33 C 0.801 0.5517 0.27047 0.0
C34 C 0.78266 0.50643 0.41247 0.0
C35 C 0.78039 0.51383 0.46373 0.0
C36 C 0.99746 0.76774 0.42454 0.0
C37 C 0.981 0.77446 0.4491 0.0
C38 C 0.96656 0.76554 0.43612 0.0
C39 C 0.96851 0.75097 0.39718 0.0
H40 H 0.99197 0.67298 0.30383 0.0
H41 H 0.98805 0.64152 0.26431 0.0
H42 H 0.95261 0.67034 0.16844 0.0
H43 H 0.95666 0.70152 0.20776 0.0
H44 H 0.01232 0.71563 0.13963 0.0
H45 H 0.02629 0.73109 0.06247 0.0
H46 H 0.0155 0.7871 0.14017 0.0
H47 H 1.00185 0.7718 0.21745 0.0
H48 H 0.01208 0.74957 0.36452 0.0
H49 H 0.00881 0.77441 0.43314 0.0
H50 H 0.95372 0.77038 0.45457 0.0
H51 H 0.95713 0.74512 0.38569 0.0
N52 N 0.97959 0.71732 0.31515 0.0
N53 N 0.99002 0.71644 0.22569 0.0
N54 N 0.99536 0.74237 0.27793 0.0
C55 C 0.98135 0.70829 0.26747 0.0
C56 C 0.99706 0.73346 0.23059 0.0
C57 C 0.98671 0.73448 0.32024 0.0
C58 C 0.97446 0.68953 0.2591 0.0
C59 C 0.98273 0.67236 0.27615 0.0
C60 C 0.98065 0.65443 0.25303 0.0
C61 C 0.97017 0.65346 0.2128 0.0
C62 C 0.96064 0.6705 0.19957 0.0
C63 C 0.96291 0.68838 0.22216 0.0
C64 C 0.00598 0.74253 0.18454 0.0
C65 C 0.01299 0.73124 0.14026 0.0
C66 C 0.02103 0.74001 0.09628 0.0
C67 C 0.02182 0.76022 0.09559 0.0
C68 C 0.0149 0.77148 0.13983 0.0
C69 C 0.00719 0.7627 0.18406 0.0
C70 C 0.98487 0.74541 0.3701 0.0
C71 C 0.99934 0.75351 0.38517 0.0
C72 C 0.70945 0.97124 0.33535 0.0
C73 C 0.71039 0.9782 0.38599 0.0
C74 C 0.72511 0.98738 0.39547 0.0
C75 C 0.73803 0.99061 0.35447 0.0
H76 H 0.79572 0.96969 0.22064 0.0
H77 H 0.82624 0.96612 0.18328 0.0
H78 H 0.82308 0.02687 0.14389 0.0
H79 H 0.79266 0.03027 0.17995 0.0
H80 H 0.75554 0.03778 0.10899 0.0
H81 H 0.73894 0.05111 0.04081 0.0
H82 H 0.69963 0.01229 0.08607 0.0
H83 H 0.71586 0.99924 0.15417 0.0
H84 H 0.72046 0.97025 0.25542 0.0
H85 H 0.69828 0.96431 0.32635 0.0
H86 H 0.72629 0.99276 0.43415 0.0
H87 H 0.74867 0.99876 0.36215 0.0
N88 N 0.76418 0.99298 0.25422 0.0
N89 N 0.76395 0.00968 0.17508 0.0
N90 N 0.73812 0.00094 0.21995 0.0
C91 C 0.77285 0.00138 0.21228 0.0
C92 C 0.7466 0.00941 0.17856 0.0
C93 C 0.74666 0.99294 0.25813 0.0
C94 C 0.7919 0.00026 0.20326 0.0
C95 C 0.80175 0.98238 0.20559 0.0
C96 C 0.81913 0.98031 0.1838 0.0
C97 C 0.827 0.9962 0.16047 0.0
C98 C 0.81743 0.01441 0.16193 0.0
C99 C 0.80002 0.01636 0.18256 0.0
C100 C 0.73697 0.0175 0.13696 0.0
C101 C 0.74337 0.0321 0.10419 0.0
C102 C 0.7339 0.03976 0.06542 0.0
C103 C 0.71814 0.03258 0.05819 0.0
C104 C 0.71186 0.0179 0.09061 0.0
C105 C 0.7211 0.01055 0.1298 0.0
C106 C 0.73627 0.98495 0.30333 0.0
C107 C 0.72217 0.97468 0.29457 0.0
C108 C 0.51665 0.67402 0.12546 0.0
C109 C 0.50871 0.67882 0.08096 0.0
C110 C 0.50954 0.69766 0.0611 0.0
C111 C 0.51807 0.71144 0.08546 0.0
H112 H 0.53271 0.76547 0.07323 0.0
H113 H 0.53095 0.79797 0.03943 0.0
H114 H 0.55032 0.81965 0.17563 0.0
H115 H 0.55227 0.78656 0.21029 0.0
H116 H 0.53912 0.74287 0.32609 0.0
H117 H 0.54238 0.72383 0.40448 0.0
H118 H 0.5772 0.68134 0.31191 0.0
H119 H 0.574 0.70042 0.23471 0.0
H120 H 0.53116 0.6834 0.18388 0.0
H121 H 0.51656 0.65951 0.14111 0.0
H122 H 0.50348 0.7018 0.02694 0.0
H123 H 0.5184 0.72585 0.06933 0.0
N124 N 0.53508 0.73963 0.13993 0.0
N125 N 0.5495 0.74826 0.2101 0.0
N126 N 0.54213 0.71626 0.20007 0.0
C127 C 0.54247 0.75327 0.16578 0.0
C128 C 0.54948 0.72956 0.22674 0.0
C129 C 0.53478 0.72115 0.15692 0.0
C130 C 0.54242 0.77332 0.14507 0.0
C131 C 0.53662 0.77703 0.09646 0.0
C132 C 0.53554 0.79575 0.07693 0.0
C133 C 0.5402 0.81143 0.10525 0.0
C134 C 0.5466 0.80781 0.15303 0.0
C135 C 0.54766 0.78889 0.17289 0.0
C136 C 0.55638 0.72309 0.27466 0.0
C137 C 0.54814 0.72999 0.32333 0.0
C138 C 0.54982 0.71892 0.36795 0.0
C139 C 0.55981 0.70085 0.36439 0.0
C140 C 0.5695 0.69518 0.31644 0.0
C141 C 0.56771 0.70614 0.27204 0.0
C142 C 0.52601 0.7066 0.13007 0.0
C143 C 0.52519 0.68771 0.1497 0.0
C144 C 0.21862 0.46014 0.90015 0.0
C145 C 0.20848 0.47803 0.90656 0.0
C146 C 0.21353 0.49241 0.939 0.0
C147 C 0.22767 0.48851 0.96693 0.0
H148 H 0.27983 0.50154 0.0618 0.0
H149 H 0.30439 0.51152 0.10303 0.0
H150 H 0.32301 0.45118 0.11506 0.0
H151 H 0.29867 0.44145 0.07429 0.0
H152 H 0.25009 0.45047 0.18636 0.0
H153 H 0.2272 0.44755 0.25633 0.0
H154 H 0.1985 0.41821 0.15166 0.0
H155 H 0.22113 0.42257 0.08029 0.0
H156 H 0.23918 0.44169 0.92629 0.0
H157 H 0.21504 0.44866 0.876 0.0
H158 H 0.20607 0.50639 0.94456 0.0
H159 H 0.23047 0.49932 0.99448 0.0
N160 N 0.26259 0.47036 0.01219 0.0
N161 N 0.26288 0.45236 0.08918 0.0
N162 N 0.23964 0.45165 0.04121 0.0
C163 C 0.27073 0.46418 0.05376 0.0
C164 C 0.24733 0.44611 0.08337 0.0
C165 C 0.2471 0.46359 0.00543 0.0
C166 C 0.28747 0.47074 0.06436 0.0
C167 C 0.28956 0.49053 0.07155 0.0
C168 C 0.30349 0.49619 0.09585 0.0
C169 C 0.31566 0.48215 0.11278 0.0
C170 C 0.31407 0.46243 0.10217 0.0
C171 C 0.30011 0.45682 0.07869 0.0
C172 C 0.23709 0.43739 0.12749 0.0
C173 C 0.23918 0.4428 0.17854 0.0
C174 C 0.22595 0.441 0.21905 0.0
C175 C 0.21053 0.43338 0.20943 0.0
C176 C 0.20981 0.42501 0.16003 0.0
C177 C 0.22285 0.42731 0.11915 0.0
C178 C 0.23696 0.47012 0.96328 0.0
C179 C 0.23255 0.45617 0.92865 0.0
C180 C 0.05529 0.22829 0.92315 0.0
C181 C 0.03811 0.22731 0.91379 0.0
C182 C 0.02558 0.24211 0.93453 0.0
C183 C 0.02997 0.25684 0.96679 0.0
H184 H 0.07209 0.32364 0.06606 0.0
H185 H 0.06887 0.35436 0.11527 0.0
H186 H 0.01556 0.34549 0.16624 0.0
H187 H 0.01884 0.31505 0.11593 0.0
H188 H 0.05648 0.27826 0.21239 0.0
H189 H 0.05399 0.25799 0.28912 0.0
H190 H 0.06346 0.2065 0.19051 0.0
H191 H 0.06613 0.22662 0.11383 0.0
H192 H 0.07264 0.24222 0.96595 0.0
H193 H 0.0652 0.21703 0.90823 0.0
H194 H 0.01225 0.24177 0.92777 0.0
H195 H 0.01988 0.26728 0.98518 0.0
N196 N 0.04673 0.28734 0.0314 0.0
N197 N 0.05484 0.28546 0.11598 0.0
N198 N 0.05595 0.2572 0.0654 0.0
C199 C 0.04941 0.29624 0.07661 0.0
C200 C 0.0581 0.26593 0.11086 0.0
C201 C 0.05038 0.26767 0.0256 0.0
C202 C 0.04563 0.31724 0.08653 0.0
C203 C 0.05947 0.32886 0.0855 0.0
C204 C 0.05768 0.34626 0.11446 0.0
C205 C 0.04205 0.35222 0.14563 0.0
C206 C 0.02774 0.34146 0.1425 0.0
C207 C 0.02955 0.32407 0.11336 0.0
C208 C 0.06105 0.25405 0.15682 0.0
C209 C 0.05852 0.26262 0.20699 0.0
C210 C 0.05704 0.25104 0.25104 0.0
C211 C 0.05821 0.2307 0.24574 0.0
C212 C 0.06252 0.22214 0.19589 0.0
C213 C 0.06392 0.23371 0.15183 0.0
C214 C 0.04687 0.25678 0.97942 0.0
C215 C 0.05957 0.24274 0.95607 0.0
C216 C 0.28349 0.02182 0.99081 0.0
C217 C 0.29456 0.00468 0.99157 0.0
C218 C 0.28971 0.99009 0.02672 0.0
C219 C 0.27508 0.99335 0.06365 0.0
H220 H 0.21019 0.99384 0.15432 0.0
H221 H 0.18078 0.9894 0.19534 0.0
H222 H 0.18065 0.04215 0.28599 0.0
H223 H 0.20975 0.04645 0.24569 0.0
H224 H 0.25105 0.02889 0.30761 0.0
H225 H 0.27202 0.03026 0.36969 0.0
H226 H 0.31107 0.0425 0.2439 0.0
H227 H 0.29022 0.04161 0.18267 0.0
H228 H 0.26169 0.03928 0.03038 0.0
H229 H 0.28693 0.03339 0.96451 0.0
H230 H 0.29789 0.97667 0.02797 0.0
H231 H 0.27262 0.98264 0.09345 0.0
N232 N 0.23839 0.01616 0.13053 0.0
N233 N 0.24073 0.02853 0.21435 0.0
N234 N 0.26509 0.02448 0.15233 0.0
C235 C 0.23086 0.02191 0.17945 0.0
C236 C 0.25784 0.02984 0.20101 0.0
C237 C 0.2556 0.01776 0.11698 0.0
C238 C 0.21228 0.02045 0.1969 0.0
C239 C 0.20368 0.00465 0.18219 0.0
C240 C 0.18693 0.00204 0.20598 0.0
C241 C 0.17839 0.01541 0.24402 0.0
C242 C 0.18675 0.03168 0.25656 0.0
C243 C 0.20349 0.03409 0.2336 0.0
C244 C 0.26907 0.03478 0.2401 0.0
C245 C 0.26399 0.03244 0.29356 0.0
C246 C 0.27602 0.03308 0.32907 0.0
C247 C 0.29327 0.03623 0.3117 0.0
C248 C 0.29789 0.04019 0.25885 0.0
C249 C 0.28594 0.03948 0.22352 0.0
C250 C 0.26501 0.01124 0.06621 0.0
C251 C 0.26892 0.02513 0.02816 0.0
C252 C 0.45186 0.32305 0.28698 0.0
C253 C 0.45418 0.31978 0.33929 0.0
C254 C 0.45198 0.30123 0.35978 0.0
C255 C 0.44897 0.2859 0.32755 0.0
H256 H 0.46382 0.22985 0.31629 0.0
H257 H 0.46692 0.19857 0.35674 0.0
H258 H 0.45589 0.17038 0.21672 0.0
H259 H 0.4529 0.20224 0.17504 0.0
H260 H 0.48078 0.25138 0.08096 0.0
H261 H 0.48865 0.27044 0.00335 0.0
H262 H 0.43751 0.30043 0.02267 0.0
H263 H 0.42982 0.28144 0.09956 0.0
H264 H 0.44798 0.31068 0.21411 0.0
H265 H 0.45356 0.33712 0.26976 0.0
H266 H 0.45328 0.29835 0.40026 0.0
H267 H 0.44823 0.27157 0.34401 0.0
N268 N 0.45138 0.25374 0.25479 0.0
N269 N 0.45527 0.24148 0.16867 0.0
N270 N 0.44909 0.27503 0.18615 0.0
C271 C 0.45454 0.23833 0.22097 0.0
C272 C 0.45227 0.25997 0.15143 0.0
C273 C 0.44867 0.2721 0.23785 0.0
C274 C 0.45781 0.21866 0.24251 0.0
C275 C 0.46201 0.21709 0.29371 0.0
C276 C 0.46373 0.19909 0.31718 0.0
C277 C 0.46125 0.18202 0.29044 0.0
C278 C 0.4578 0.18333 0.23838 0.0
C279 C 0.45609 0.20154 0.21455 0.0
C280 C 0.45468 0.2649 0.09589 0.0
C281 C 0.47101 0.26133 0.06684 0.0
C282 C 0.47557 0.27247 0.02295 0.0
C283 C 0.4638 0.2872 0.00731 0.0
C284 C 0.44687 0.28917 0.03327 0.0
C285 C 0.44241 0.27823 0.0773 0.0
C286 C 0.44806 0.28885 0.27422 0.0
C287 C 0.44876 0.30779 0.25487 0.0
Dy288 Dy 0.98954 0.0093 0.66301 0.0
Dy289 Dy 0.0167 0.99017 0.73871 0.0
C290 C 0.02906 8e-05 0.62246 0.0
O291 O 0.99202 0.97777 0.64103 0.0
O292 O 0.00439 0.96459 0.71067 0.0
O293 O 0.98233 0.0145 0.58613 0.0
O294 O 0.96624 0.02735 0.65393 0.0
O295 O 0.99215 0.00063 0.78886 0.0
O296 O 0.97392 0.99575 0.72886 0.0
O297 O 0.02061 0.02191 0.73903 0.0
O298 O 0.99466 0.0337 0.71436 0.0
O299 O 0.02167 0.97531 0.80892 0.0
O300 O 0.04298 0.9842 0.75554 0.0
C301 C 0.99676 0.96274 0.66856 0.0
O302 O 0.01632 0.01384 0.62678 0.0
O303 O 0.02919 0.9861 0.65644 0.0
C304 C 0.97222 0.04717 0.5826 0.0
C305 C 0.97805 0.08408 0.54245 0.0
C306 C 0.98918 0.07494 0.57516 0.0
C307 C 0.9863 0.05669 0.59488 0.0
C308 C 0.96087 0.0562 0.55059 0.0
C309 C 0.9638 0.07458 0.53041 0.0
C310 C 0.97001 0.02776 0.60342 0.0
C311 C 0.97674 0.9975 0.77749 0.0
C312 C 0.00898 0.0364 0.73367 0.0
C313 C 0.04707 0.95447 0.79794 0.0
C314 C 0.06104 0.91601 0.80958 0.0
C315 C 0.04814 0.92008 0.77694 0.0
C316 C 0.04131 0.93914 0.771 0.0
C317 C 0.0605 0.95073 0.82838 0.0
C318 C 0.06752 0.93164 0.83395 0.0
C319 C 0.03838 0.9741 0.79652 0.0
H320 H 1.0005 0.08159 0.58422 0.0
H321 H 0.9953 0.04983 0.61914 0.0
H322 H 0.94993 0.04899 0.54082 0.0
H323 H 0.95502 0.08131 0.50529 0.0
H324 H 0.04261 0.9085 0.7581 0.0
H325 H 0.03103 0.94186 0.747 0.0
H326 H 0.06521 0.96247 0.84901 0.0
H327 H 0.07765 0.92908 0.8586 0.0
Dy328 Dy 0.50034 0.98107 0.66424 0.0
Dy329 Dy 0.50883 0.01581 0.74065 0.0
C330 C 0.49554 0.02532 0.63269 0.0
O331 O 0.52907 0.97789 0.6613 0.0
O332 O 0.53189 0.00977 0.68047 0.0
O333 O 0.50454 0.96575 0.59006 0.0
O334 O 0.48501 0.95745 0.6504 0.0
O335 O 0.52053 0.98828 0.77183 0.0
O336 O 0.50286 0.96737 0.74105 0.0
O337 O 0.48261 0.00766 0.77301 0.0
O338 O 0.47498 0.99682 0.69619 0.0
O339 O 0.51288 0.02694 0.81618 0.0
O340 O 0.51497 0.04542 0.74897 0.0
C341 C 0.53855 0.99268 0.66143 0.0
O342 O 0.50218 0.0079 0.61692 0.0
O343 O 0.49323 0.03004 0.6824 0.0
C344 C 0.47752 0.95997 0.56621 0.0
C345 C 0.44882 0.96858 0.51226 0.0
C346 C 0.45855 0.98346 0.52659 0.0
C347 C 0.4727 0.97919 0.5533 0.0
C348 C 0.46819 0.94494 0.55101 0.0
C349 C 0.45393 0.94921 0.52407 0.0
C350 C 0.49083 0.95636 0.60096 0.0
C351 C 0.51358 0.97162 0.77373 0.0
C352 C 0.47077 0.00284 0.74473 0.0
C353 C 0.53509 0.04785 0.80775 0.0
C354 C 0.56835 0.05531 0.8286 0.0
C355 C 0.56618 0.04355 0.78574 0.0
C356 C 0.54974 0.03975 0.77574 0.0
C357 C 0.53706 0.0599 0.84997 0.0
C358 C 0.55359 0.06361 0.86039 0.0
C359 C 0.51792 0.04324 0.79715 0.0
H360 H 0.45479 0.99856 0.51927 0.0
H361 H 0.47948 0.99108 0.56562 0.0
H362 H 0.47162 0.93005 0.5613 0.0
H363 H 0.44673 0.93744 0.51329 0.0
H364 H 0.57721 0.03718 0.75993 0.0
H365 H 0.54846 0.03035 0.74311 0.0
H366 H 0.52585 0.06619 0.8752 0.0
H367 H 0.55482 0.07254 0.89407 0.0
Dy368 Dy 0.53013 0.49161 0.70366 0.0
Dy369 Dy 0.49045 0.49907 0.66617 0.0
C370 C 0.50086 0.46477 0.74403 0.0
O371 O 0.52757 0.46964 0.64167 0.0
O372 O 0.50919 0.48877 0.59821 0.0
O373 O 0.55089 0.47271 0.72904 0.0
O374 O 0.55433 0.50305 0.71445 0.0
O375 O 0.50349 0.52634 0.65097 0.0
O376 O 0.5315 0.5129 0.63873 0.0
O377 O 0.48688 0.51008 0.74822 0.0
O378 O 0.51536 0.51396 0.75833 0.0
O379 O 0.46885 0.51729 0.64225 0.0
O380 O 0.46848 0.48603 0.6429 0.0
C381 C 0.51971 0.4731 0.6003 0.0
O382 O 0.5132 0.47457 0.75809 0.0
O383 O 0.49278 0.46994 0.70397 0.0
C384 C 0.57054 0.48782 0.77678 0.0
C385 C 0.59005 0.49009 0.86157 0.0
C386 C 0.57346 0.48335 0.86881 0.0
C387 C 0.56376 0.48228 0.82683 0.0
C388 C 0.58705 0.49447 0.76952 0.0
C389 C 0.59668 0.4956 0.81126 0.0
C390 C 0.561 0.48668 0.73111 0.0
C391 C 0.51988 0.52747 0.634 0.0
C392 C 0.49864 0.51721 0.77319 0.0
C393 C 0.4527 0.50301 0.58115 0.0
C394 C 0.4333 0.50318 0.49517 0.0
C395 C 0.4335 0.52009 0.52581 0.0
C396 C 0.44299 0.51997 0.5683 0.0
C397 C 0.45303 0.48627 0.54954 0.0
C398 C 0.44347 0.48636 0.50716 0.0
C399 C 0.46074 0.50248 0.6304 0.0
H400 H 0.56787 0.47915 0.90703 0.0
H401 H 0.55101 0.47715 0.83348 0.0
H402 H 0.59258 0.49872 0.73125 0.0
H403 H 0.60949 0.50054 0.80385 0.0
H404 H 0.42614 0.53345 0.51739 0.0
H405 H 0.44237 0.53307 0.59202 0.0
H406 H 0.46026 0.47287 0.55837 0.0
H407 H 0.44356 0.47297 0.48506 0.0
Dy408 Dy 0.01169 0.51389 0.66353 0.0
Dy409 Dy 1.00307 0.47542 0.73195 0.0
C410 C 0.01869 0.47142 0.6117 0.0
O411 O 0.98618 0.50618 0.64306 0.0
O412 O 0.97748 0.49012 0.7174 0.0
O413 O 0.01354 0.52894 0.59037 0.0
O414 O 0.02004 0.54293 0.65947 0.0
O415 O 1.00136 0.50042 0.78828 0.0
O416 O 0.9947 0.5254 0.73468 0.0
O417 O 0.03194 0.47433 0.72186 0.0
O418 O 0.03412 0.50683 0.7084 0.0
O419 O 0.00704 0.45689 0.7972 0.0
O420 O 0.98816 0.45066 0.74663 0.0
C421 C 0.97404 0.49865 0.67418 0.0
O422 O 0.02467 0.4885 0.61547 0.0
O423 O 0.00813 0.46472 0.64945 0.0
C424 C 0.03845 0.54536 0.58119 0.0
C425 C 0.07058 0.54021 0.51853 0.0
C426 C 0.0689 0.53422 0.57057 0.0
C427 C 0.05301 0.53677 0.60146 0.0
C428 C 0.04029 0.55277 0.53073 0.0
C429 C 0.05629 0.55032 0.49963 0.0
C430 C 0.02123 0.54301 0.60872 0.0
C431 C 0.99534 0.51843 0.78151 0.0
C432 C 0.04084 0.48964 0.72097 0.0
C433 C 0.97921 0.45062 0.83637 0.0
C434 C 0.94864 0.4658 0.89751 0.0
C435 C 0.96458 0.47265 0.90455 0.0
C436 C 0.9797 0.46505 0.87462 0.0
C437 C 0.96366 0.44226 0.83329 0.0
C438 C 0.9485 0.44975 0.86376 0.0
C439 C 0.99321 0.44809 0.79246 0.0
H440 H 0.07945 0.52613 0.58643 0.0
H441 H 0.05187 0.5307 0.64002 0.0
H442 H 0.02916 0.55933 0.51429 0.0
H443 H 0.05723 0.55538 0.45995 0.0
H444 H 0.9653 0.48501 0.92993 0.0
H445 H 0.99147 0.47176 0.87838 0.0
H446 H 0.96295 0.43107 0.80429 0.0
H447 H 0.93652 0.44372 0.85852 0.0
C448 C 0.15854 0.99376 0.29527 0.0
C449 C 0.16137 0.01199 0.27353 0.0
C450 C 0.14347 0.99126 0.3289 0.0
C451 C 0.09896 0.01295 0.37216 0.0
H452 H 0.10524 0.98701 0.50168 0.0
C453 C 0.04503 0.01682 0.54765 0.0
C454 C 0.04354 0.00051 0.57963 0.0
C455 C 0.05889 0.01738 0.50807 0.0
C456 C 0.10313 0.99402 0.46544 0.0
H457 H 0.15019 0.04161 0.26797 0.0
H458 H 0.12387 0.03723 0.32627 0.0
H459 H 0.12987 0.98893 0.4352 0.0
H460 H 0.05534 0.97181 0.59419 0.0
H461 H 0.07922 0.97257 0.5246 0.0
H462 H 0.07222 0.018 0.40218 0.0
C463 C 0.13331 0.02487 0.31752 0.0
C464 C 0.11731 0.99513 0.42725 0.0
C465 C 0.14844 0.02742 0.28435 0.0
C466 C 0.05614 0.98468 0.57059 0.0
C467 C 0.06993 0.98517 0.53076 0.0
C468 C 0.08474 0.01171 0.41018 0.0
C469 C 0.13079 0.00687 0.34111 0.0
C470 C 0.11544 0.00475 0.3803 0.0
C471 C 0.07159 0.00158 0.49909 0.0
C472 C 0.08663 0.00236 0.45762 0.0
H473 H 0.16831 0.98163 0.28809 0.0
H474 H 0.14184 0.97715 0.34596 0.0
H475 H 0.09704 0.02028 0.33619 0.0
H476 H 0.0356 0.02932 0.55362 0.0
H477 H 0.05982 0.03041 0.48519 0.0
C478 C 0.45424 0.16248 0.37012 0.0
C479 C 0.46197 0.16323 0.31824 0.0
C480 C 0.45634 0.14566 0.39898 0.0
C481 C 0.48599 0.10142 0.40467 0.0
H482 H 0.45064 0.08813 0.51399 0.0
C483 C 0.49525 0.03572 0.54009 0.0
C484 C 0.49063 0.0397 0.59365 0.0
C485 C 0.49086 0.04935 0.50313 0.0
C486 C 0.46065 0.09171 0.48372 0.0
H487 H 0.4773 0.14648 0.25515 0.0
H488 H 0.4807 0.11674 0.30539 0.0
H489 H 0.44395 0.11371 0.45326 0.0
H490 H 0.4775 0.06103 0.65023 0.0
H491 H 0.46973 0.08475 0.58563 0.0
H492 H 0.50266 0.07934 0.43541 0.0
C493 C 0.47328 0.12941 0.32403 0.0
C494 C 0.45684 0.10639 0.44891 0.0
C495 C 0.47119 0.14636 0.29503 0.0
C496 C 0.48131 0.05752 0.60934 0.0
C497 C 0.47676 0.07105 0.57233 0.0
C498 C 0.48974 0.0866 0.43922 0.0
C499 C 0.46613 0.12897 0.37671 0.0
C500 C 0.46957 0.11175 0.40961 0.0
C501 C 0.48157 0.06716 0.51884 0.0
C502 C 0.47721 0.08186 0.47975 0.0
H503 H 0.44681 0.17513 0.38893 0.0
H504 H 0.45079 0.14604 0.43948 0.0
H505 H 0.49619 0.10529 0.37543 0.0
H506 H 0.50239 0.02212 0.52659 0.0
H507 H 0.49463 0.04588 0.46219 0.0
C508 C 0.32463 0.50125 0.18682 0.0
C509 C 0.32899 0.48761 0.14562 0.0
C510 C 0.33638 0.5045 0.22196 0.0
C511 C 0.38276 0.49709 0.24196 0.0
H512 H 0.3645 0.49961 0.38831 0.0
C513 C 0.4272 0.49183 0.40638 0.0
C514 C 0.42196 0.50284 0.45254 0.0
C515 C 0.41625 0.49097 0.36761 0.0
C516 C 0.36986 0.49925 0.34764 0.0
H517 H 0.34957 0.46742 0.10784 0.0
H518 H 0.37001 0.47304 0.16904 0.0
H519 H 0.34501 0.49704 0.3229 0.0
H520 H 0.40083 0.52159 0.49342 0.0
H521 H 0.38211 0.5206 0.42554 0.0
H522 H 0.40763 0.4993 0.26673 0.0
C523 C 0.35749 0.48125 0.17426 0.0
C524 C 0.35862 0.49776 0.30999 0.0
C525 C 0.3457 0.47791 0.13932 0.0
C526 C 0.40551 0.51315 0.45832 0.0
C527 C 0.3946 0.51234 0.41952 0.0
C528 C 0.39401 0.49868 0.27966 0.0
C529 C 0.35288 0.4943 0.21673 0.0
C530 C 0.3649 0.49659 0.2566 0.0
C531 C 0.39972 0.50111 0.37371 0.0
C532 C 0.38774 0.49973 0.33314 0.0
H533 H 0.31186 0.50886 0.19328 0.0
H534 H 0.33245 0.51486 0.25371 0.0
H535 H 0.38806 0.49645 0.20123 0.0
H536 H 0.43982 0.48386 0.40004 0.0
H537 H 0.42065 0.482 0.33325 0.0
C538 C 0.05508 0.368 0.21714 0.0
C539 C 0.0414 0.36759 0.18681 0.0
C540 C 0.05379 0.38054 0.26031 0.0
C541 C 0.02993 0.42448 0.32482 0.0
H542 H 0.0434 0.40065 0.45065 0.0
C543 C 0.03096 0.46814 0.51717 0.0
C544 C 0.02328 0.45975 0.56273 0.0
C545 C 0.03404 0.45753 0.47008 0.0
C546 C 0.03956 0.40752 0.41589 0.0
H547 H 0.0159 0.38075 0.1771 0.0
H548 H 0.01364 0.40273 0.25279 0.0
H549 H 0.04695 0.38164 0.36969 0.0
H550 H 0.01317 0.43346 0.59456 0.0
H551 H 0.01873 0.41496 0.51278 0.0
H552 H 0.02233 0.45033 0.37149 0.0
C553 C 0.02539 0.3933 0.24289 0.0
C554 C 0.04174 0.39668 0.36935 0.0
C555 C 0.02664 0.38062 0.19972 0.0
C556 C 0.01912 0.44039 0.56031 0.0
C557 C 0.02236 0.42974 0.51343 0.0
C558 C 0.0279 0.43541 0.37138 0.0
C559 C 0.0388 0.39307 0.27437 0.0
C560 C 0.03687 0.40498 0.32329 0.0
C561 C 0.0297 0.43823 0.46764 0.0
C562 C 0.03256 0.42699 0.41754 0.0
H563 H 0.06655 0.358 0.209 0.0
H564 H 0.06443 0.38017 0.28335 0.0
H565 H 0.02613 0.43132 0.28996 0.0
H566 H 0.03428 0.48304 0.51755 0.0
H567 H 0.03987 0.46441 0.43558 0.0
C568 C 0.8477 0.979 0.09006 0.0
C569 C 0.84429 0.99354 0.12917 0.0
C570 C 0.86286 0.9782 0.05503 0.0
C571 C 0.90703 0.99234 0.03255 0.0
H572 H 0.89982 0.99402 0.88711 0.0
C573 C 0.96264 0.00456 0.86906 0.0
C574 C 0.96231 0.99609 0.81973 0.0
C575 C 0.9487 0.00365 0.90828 0.0
C576 C 0.90223 0.99314 0.92734 0.0
H577 H 0.85444 0.01806 0.16379 0.0
H578 H 0.88126 0.01629 0.10328 0.0
H579 H 0.87529 0.99242 0.95388 0.0
H580 H 0.94739 0.97942 0.7734 0.0
H581 H 0.92357 0.977 0.84201 0.0
H582 H 0.934 0.99246 0.00634 0.0
C583 C 0.87209 0.00566 0.09956 0.0
C584 C 0.88808 0.99234 0.96566 0.0
C585 C 0.85675 0.00669 0.13404 0.0
C586 C 0.94794 0.98633 0.81081 0.0
C587 C 0.93417 0.98507 0.85024 0.0
C588 C 0.92128 0.99275 0.99412 0.0
C589 C 0.87508 0.99171 0.05891 0.0
C590 C 0.89031 0.992 0.01863 0.0
C591 C 0.93421 0.99393 0.89946 0.0
C592 C 0.91909 0.99323 0.94084 0.0
H593 H 0.83826 0.96881 0.08495 0.0
H594 H 0.8649 0.96724 0.02421 0.0
H595 H 0.90911 0.992 0.07315 0.0
H596 H 0.9735 0.01228 0.87703 0.0
H597 H 0.94919 0.01095 0.94514 0.0
C598 C 0.52253 0.83727 0.06366 0.0
C599 C 0.5378 0.83138 0.08462 0.0
C600 C 0.52067 0.85505 0.03892 0.0
C601 C 0.54623 0.89112 0.96896 0.0
H602 H 0.50109 0.91924 0.97165 0.0
C603 C 0.53162 0.959 0.84229 0.0
C604 C 0.51752 0.95743 0.81422 0.0
C605 C 0.53502 0.94558 0.88096 0.0
C606 C 0.51378 0.91156 0.97059 0.0
H607 H 0.56284 0.83992 0.09804 0.0
H608 H 0.5595 0.87138 0.05512 0.0
H609 H 0.50528 0.893 0.03251 0.0
H610 H 0.49591 0.94063 0.80501 0.0
H611 H 0.50171 0.91753 0.87263 0.0
H612 H 0.55459 0.90974 0.90643 0.0
C613 C 0.54906 0.86201 0.0573 0.0
C614 C 0.5162 0.89649 0.00534 0.0
C615 C 0.55092 0.84411 0.08229 0.0
C616 C 0.5069 0.94225 0.82573 0.0
C617 C 0.51013 0.92908 0.86477 0.0
C618 C 0.54384 0.90639 0.93445 0.0
C619 C 0.53398 0.86756 0.03464 0.0
C620 C 0.53229 0.88563 0.00382 0.0
C621 C 0.52419 0.93061 0.89285 0.0
C622 C 0.52745 0.91633 0.93388 0.0
H623 H 0.51209 0.82789 0.06539 0.0
H624 H 0.50897 0.85863 0.02139 0.0
H625 H 0.55877 0.883 0.96641 0.0
H626 H 0.54006 0.97051 0.83425 0.0
H627 H 0.54594 0.94708 0.90207 0.0
C628 C 0.6826 0.48861 0.21872 0.0
C629 C 0.69195 0.50516 0.21737 0.0
C630 C 0.6712 0.4859 0.18192 0.0
C631 C 0.66212 0.50183 0.05019 0.0
H632 H 0.61716 0.48313 0.08913 0.0
C633 C 0.61053 0.50723 0.90985 0.0
C634 C 0.60056 0.49142 0.90576 0.0
C635 C 0.62122 0.50807 0.9491 0.0
C636 C 0.62975 0.48817 0.07746 0.0
H637 H 0.69675 0.5316 0.17505 0.0
H638 H 0.67681 0.52714 0.11248 0.0
H639 H 0.63679 0.48573 0.1549 0.0
H640 H 0.59386 0.46425 0.94098 0.0
H641 H 0.61254 0.46574 0.00969 0.0
H642 H 0.65518 0.50436 0.97303 0.0
C643 C 0.6783 0.51613 0.1416 0.0
C644 C 0.64102 0.48964 0.11521 0.0
C645 C 0.6896 0.51884 0.1782 0.0
C646 C 0.60124 0.47672 0.94311 0.0
C647 C 0.61197 0.47757 0.98253 0.0
C648 C 0.6509 0.50037 0.01263 0.0
C649 C 0.669 0.49958 0.14259 0.0
C650 C 0.65727 0.49677 0.10221 0.0
C651 C 0.62231 0.49314 0.98559 0.0
C652 C 0.63445 0.49378 0.02577 0.0
H653 H 0.68402 0.47779 0.24834 0.0
H654 H 0.66434 0.47292 0.18373 0.0
H655 H 0.67467 0.50692 0.03831 0.0
H656 H 0.61007 0.51905 0.88263 0.0
H657 H 0.62864 0.52053 0.95089 0.0
C658 C 0.95647 0.6297 0.15989 0.0
C659 C 0.97122 0.63576 0.17898 0.0
C660 C 0.95801 0.61528 0.12082 0.0
C661 C 0.98873 0.59661 0.0106 0.0
H662 H 0.95957 0.55422 0.00542 0.0
C663 C 0.98803 0.55165 0.82256 0.0
C664 C 0.99005 0.53136 0.82781 0.0
C665 C 0.98446 0.56388 0.86663 0.0
C666 C 0.9678 0.566 0.00642 0.0
H667 H 0.99911 0.63085 0.17324 0.0
H668 H 1.00176 0.60571 0.10545 0.0
H669 H 0.95617 0.57556 0.08293 0.0
H670 H 0.9892 0.50802 0.88351 0.0
H671 H 0.98271 0.52937 0.96028 0.0
H672 H 1.00031 0.58723 0.93427 0.0
C673 C 0.98901 0.61215 0.1206 0.0
C674 C 0.9658 0.57824 0.05061 0.0
C675 C 0.98746 0.62639 0.15993 0.0
C676 C 0.98778 0.52357 0.87805 0.0
C677 C 0.98397 0.5358 0.92208 0.0
C678 C 0.99056 0.58458 0.9663 0.0
C679 C 0.97437 0.60681 0.09963 0.0
C680 C 0.97635 0.59359 0.05327 0.0
C681 C 0.9826 0.55609 0.91689 0.0
C682 C 0.98016 0.56911 0.96371 0.0
H683 H 0.94378 0.63659 0.17393 0.0
H684 H 0.9465 0.61146 0.10538 0.0
H685 H 0.99689 0.60847 0.01121 0.0
H686 H 0.98968 0.55815 0.78448 0.0
H687 H 0.98329 0.57948 0.86141 0.0
C688 C 0.03648 0.22416 0.32096 0.0
C689 C 0.05223 0.21857 0.29018 0.0
C690 C 0.02874 0.21115 0.35548 0.0
C691 C 0.02742 0.15856 0.36853 0.0
H692 H 0.99848 0.17264 0.49826 0.0
C693 C 0.98188 0.10536 0.46471 0.0
C694 C 0.98237 0.10271 0.51826 0.0
C695 C 0.98906 0.12121 0.43998 0.0
C696 C 0.00657 0.16847 0.4622 0.0
H697 H 0.07294 0.19563 0.27463 0.0
H698 H 0.05958 0.17293 0.33585 0.0
H699 H 0.01598 0.19664 0.45406 0.0
H700 H 0.9893 0.11547 0.58874 0.0
H701 H 1.00219 0.14283 0.54542 0.0
H702 H 0.01839 0.13033 0.37701 0.0
C703 C 0.053 0.18722 0.33222 0.0
C704 C 0.01652 0.18224 0.43677 0.0
C705 C 0.0607 0.20021 0.29742 0.0
C706 C 0.98902 0.11696 0.5472 0.0
C707 C 0.99627 0.13274 0.52246 0.0
C708 C 0.01755 0.14482 0.39397 0.0
C709 C 0.03662 0.19228 0.36008 0.0
C710 C 0.02701 0.17744 0.38953 0.0
C711 C 0.9969 0.13466 0.46828 0.0
C712 C 0.00692 0.14963 0.4409 0.0
H713 H 0.02951 0.23812 0.31575 0.0
H714 H 0.01606 0.21547 0.37596 0.0
H715 H 0.0351 0.15446 0.33176 0.0
H716 H 0.97688 0.09462 0.44132 0.0
H717 H 0.989 0.12254 0.39832 0.0
C718 C 0.32128 0.04392 0.3411 0.0
C719 C 0.30699 0.03278 0.34611 0.0
C720 C 0.33599 0.03791 0.36409 0.0
C721 C 0.35387 0.00556 0.45992 0.0
H722 H 0.39485 0.00105 0.35824 0.0
C723 C 0.4176 0.96498 0.50532 0.0
C724 C 0.4328 0.97373 0.48846 0.0
C725 C 0.402 0.9717 0.48797 0.0
C726 C 0.38362 0.00243 0.38739 0.0
H727 H 0.29648 0.00744 0.3827 0.0
H728 H 0.32202 0.99729 0.42389 0.0
H729 H 0.36777 0.01584 0.33378 0.0
H730 H 0.44373 0.99565 0.43793 0.0
H731 H 0.41656 0.00777 0.40916 0.0
H732 H 0.36976 0.99244 0.51388 0.0
C733 C 0.32184 0.01058 0.40183 0.0
C734 C 0.36811 0.01093 0.37334 0.0
C735 C 0.30717 0.01647 0.37842 0.0
C736 C 0.4322 0.98877 0.45224 0.0
C737 C 0.41662 0.99559 0.43528 0.0
C738 C 0.36947 0.99725 0.47424 0.0
C739 C 0.33661 0.0208 0.39306 0.0
C740 C 0.35311 0.01259 0.40945 0.0
C741 C 0.40126 0.98737 0.4536 0.0
C742 C 0.38453 0.99559 0.4381 0.0
H743 H 0.32141 0.05677 0.31732 0.0
H744 H 0.34713 0.04625 0.3576 0.0
H745 H 0.34247 0.0067 0.48845 0.0
H746 H 0.41759 0.95346 0.53352 0.0
H747 H 0.39047 0.96479 0.5021 0.0
C748 C 0.45538 0.35477 0.36473 0.0
C749 C 0.46081 0.33502 0.37014 0.0
C750 C 0.46349 0.36919 0.38785 0.0
C751 C 0.49031 0.37855 0.49006 0.0
H752 H 0.50415 0.42133 0.40265 0.0
C753 C 0.52637 0.43846 0.57 0.0
C754 C 0.5192 0.45738 0.5617 0.0
C755 C 0.52221 0.42276 0.54106 0.0
C756 C 0.50032 0.40952 0.4276 0.0
H757 H 0.47869 0.31498 0.40553 0.0
H758 H 0.49247 0.34015 0.44688 0.0
H759 H 0.48924 0.39568 0.3671 0.0
H760 H 0.50338 0.47488 0.51325 0.0
H761 H 0.49598 0.44764 0.46369 0.0
H762 H 0.50086 0.3926 0.55107 0.0
C763 C 0.48197 0.34443 0.42468 0.0
C764 C 0.49174 0.39489 0.40731 0.0
C765 C 0.47397 0.33002 0.40124 0.0
C766 C 0.50905 0.46047 0.5209 0.0
C767 C 0.50485 0.44481 0.49221 0.0
C768 C 0.49877 0.39325 0.5105 0.0
C769 C 0.47707 0.36414 0.41719 0.0
C770 C 0.48648 0.3794 0.43854 0.0
C771 C 0.51082 0.42571 0.50337 0.0
C772 C 0.5037 0.40903 0.47969 0.0
H773 H 0.4451 0.35911 0.34175 0.0
H774 H 0.45925 0.38431 0.38236 0.0
H775 H 0.4863 0.36681 0.51503 0.0
H776 H 0.53432 0.43559 0.60091 0.0
H777 H 0.52732 0.40823 0.54975 0.0
C778 C 0.17884 0.44348 0.2262 0.0
C779 C 0.19445 0.43811 0.24614 0.0
C780 C 0.16493 0.45307 0.25769 0.0
C781 C 0.14831 0.46972 0.39319 0.0
H782 H 0.12714 0.51271 0.32076 0.0
C783 C 0.1025 0.53088 0.50075 0.0
C784 C 0.08623 0.53313 0.48281 0.0
C785 C 0.11637 0.52021 0.47141 0.0
C786 C 0.13294 0.50076 0.34139 0.0
H787 H 0.20667 0.43645 0.31703 0.0
H788 H 0.18271 0.45416 0.37123 0.0
H789 H 0.14898 0.48991 0.27297 0.0
H790 H 0.07217 0.52693 0.41821 0.0
H791 H 0.09655 0.50906 0.36639 0.0
H792 H 0.13239 0.48105 0.46194 0.0
C793 C 0.18124 0.45089 0.33113 0.0
C794 C 0.14531 0.48754 0.31402 0.0
C795 C 0.19509 0.4409 0.2998 0.0
C796 C 0.08453 0.52579 0.43304 0.0
C797 C 0.09847 0.51538 0.40344 0.0
C798 C 0.13606 0.48312 0.42072 0.0
C799 C 0.16633 0.45792 0.30966 0.0
C800 C 0.15301 0.47171 0.3394 0.0
C801 C 0.11431 0.51193 0.42318 0.0
C802 C 0.12818 0.49864 0.3949 0.0
H803 H 0.17765 0.44174 0.18526 0.0
H804 H 0.15338 0.45765 0.24038 0.0
H805 H 0.15389 0.45766 0.41389 0.0
H806 H 0.10435 0.53668 0.53845 0.0
H807 H 0.12858 0.518 0.48697 0.0
C808 C 0.04672 0.76462 0.02742 0.0
C809 C 0.02957 0.76983 0.04877 0.0
C810 C 0.05454 0.77536 0.98681 0.0
C811 C 0.0455 0.81152 0.88684 0.0
H812 H 0.08552 0.83522 0.92372 0.0
C813 C 0.06647 0.88034 0.78597 0.0
C814 C 0.06603 0.89553 0.82283 0.0
C815 C 0.06751 0.86095 0.80145 0.0
C816 C 0.07454 0.82849 0.91233 0.0
H817 H 0.00679 0.78937 0.04302 0.0
H818 H 0.02029 0.80797 0.97181 0.0
H819 H 0.07537 0.80731 0.97225 0.0
H820 H 0.06772 0.90202 0.9042 0.0
H821 H 0.06987 0.86842 0.93065 0.0
H822 H 0.04391 0.83347 0.82941 0.0
C823 C 0.02775 0.79568 0.98624 0.0
C824 C 0.06881 0.81245 0.93984 0.0
C825 C 0.02007 0.78519 0.02724 0.0
C826 C 0.06822 0.89079 0.8745 0.0
C827 C 0.06944 0.87145 0.88978 0.0
C828 C 0.05131 0.82744 0.85909 0.0
C829 C 0.04517 0.79117 0.96642 0.0
C830 C 0.05374 0.80445 0.92895 0.0
C831 C 0.06838 0.85638 0.8539 0.0
C832 C 0.06538 0.83666 0.87326 0.0
H833 H 0.05427 0.75281 0.04365 0.0
H834 H 0.06799 0.77163 0.97219 0.0
H835 H 0.03394 0.80548 0.87743 0.0
H836 H 0.06523 0.88344 0.74559 0.0
H837 H 0.06685 0.84958 0.77288 0.0
C838 C 0.70237 0.06029 0.01714 0.0
C839 C 0.70783 0.0404 0.01782 0.0
C840 C 0.69011 0.06703 0.98498 0.0
C841 C 0.66716 0.05276 0.87528 0.0
H842 H 0.62688 0.07988 0.95511 0.0
C843 C 0.59878 0.04237 0.83544 0.0
C844 C 0.58598 0.05807 0.84107 0.0
C845 C 0.6153 0.04458 0.84778 0.0
C846 C 0.63812 0.07273 0.93173 0.0
H847 H 0.7059 0.01216 0.98324 0.0
H848 H 0.68467 0.02382 0.92697 0.0
H849 H 0.65417 0.07638 0.99154 0.0
H850 H 0.58063 0.08853 0.86345 0.0
H851 H 0.6096 0.0923 0.88606 0.0
H852 H 0.65089 0.04827 0.81658 0.0
C853 C 0.68975 0.03429 0.95098 0.0
C854 C 0.65378 0.07075 0.95258 0.0
C855 C 0.7018 0.02756 0.98345 0.0
C856 C 0.59015 0.0761 0.85923 0.0
C857 C 0.60673 0.0783 0.8719 0.0
C858 C 0.65154 0.05476 0.85443 0.0
C859 C 0.68336 0.05397 0.95259 0.0
C860 C 0.66825 0.06003 0.92547 0.0
C861 C 0.61946 0.06252 0.86638 0.0
C862 C 0.63668 0.06403 0.88342 0.0
H863 H 0.70682 0.07042 0.04355 0.0
H864 H 0.68546 0.08228 0.98678 0.0
H865 H 0.6782 0.0447 0.85318 0.0
H866 H 0.59594 0.02815 0.82273 0.0
H867 H 0.62467 0.032 0.84439 0.0
C868 C 0.50319 0.66158 1.00002 0.0
C869 C 0.50029 0.66384 0.05446 0.0
C870 C 0.49706 0.64597 0.97557 0.0
C871 C 0.48762 0.59613 0.00291 0.0
H872 H 0.474 0.59787 0.86391 0.0
C873 C 0.47699 0.54186 0.82124 0.0
C874 C 0.49305 0.53085 0.81736 0.0
C875 C 0.47304 0.55708 0.85789 0.0
C876 C 0.47743 0.59714 0.90317 0.0
H877 H 0.48758 0.65241 0.12561 0.0
H878 H 0.47696 0.62505 0.08285 0.0
H879 H 0.47515 0.62816 0.91209 0.0
H880 H 0.51701 0.52612 0.85113 0.0
H881 H 0.51009 0.55248 0.91505 0.0
H882 H 0.49054 0.56515 0.99319 0.0
C883 C 0.4842 0.63518 0.05922 0.0
C884 C 0.47827 0.61448 0.93049 0.0
C885 C 0.49031 0.6508 0.08366 0.0
C886 C 0.50457 0.53445 0.85298 0.0
C887 C 0.50055 0.54946 0.8899 0.0
C888 C 0.48685 0.57881 0.97552 0.0
C889 C 0.48789 0.63231 0.00506 0.0
C890 C 0.48393 0.61416 0.97993 0.0
C891 C 0.48498 0.56131 0.8917 0.0
C892 C 0.48232 0.57918 0.9247 0.0
H893 H 0.51096 0.67127 0.9765 0.0
H894 H 0.50033 0.64402 0.93384 0.0
H895 H 0.49214 0.59538 0.04079 0.0
H896 H 0.46787 0.53943 0.79419 0.0
H897 H 0.4609 0.56594 0.8587 0.0
C898 C 0.83479 0.56909 0.135 0.0
C899 C 0.81802 0.5636 0.13291 0.0
C900 C 0.84813 0.56308 0.09584 0.0
C901 C 0.85731 0.52164 0.00292 0.0
H902 H 0.90271 0.54068 0.98395 0.0
C903 C 0.91837 0.47977 0.89045 0.0
C904 C 0.9323 0.47702 0.91994 0.0
C905 C 0.90385 0.49228 0.90837 0.0
C906 C 0.89005 0.53529 0.98882 0.0
H907 H 0.80165 0.55053 0.0829 0.0
H908 H 0.82451 0.54164 0.01317 0.0
H909 H 0.87791 0.56218 0.02233 0.0
H910 H 0.94143 0.48477 0.99258 0.0
H911 H 0.91626 0.50709 0.02283 0.0
H912 H 0.86958 0.49481 0.96901 0.0
C913 C 0.82765 0.54934 0.04685 0.0
C914 C 0.87584 0.54754 0.01091 0.0
C915 C 0.81439 0.55485 0.08669 0.0
C916 C 0.93113 0.48677 0.96835 0.0
C917 C 0.91676 0.49957 0.98571 0.0
C918 C 0.87144 0.50959 0.97988 0.0
C919 C 0.84488 0.55199 0.05286 0.0
C920 C 0.85936 0.54067 0.0199 0.0
C921 C 0.90311 0.50256 0.95559 0.0
C922 C 0.88797 0.51612 0.97417 0.0
H923 H 0.83795 0.57657 0.16898 0.0
H924 H 0.86115 0.56572 0.1019 0.0
H925 H 0.845 0.51554 0.00999 0.0
H926 H 0.91891 0.47289 0.8525 0.0
H927 H 0.89342 0.49438 0.8846 0.0
C928 C 0.01937 0.19972 0.91197 0.0
C929 C 0.03313 0.20962 0.8882 0.0
C930 C 0.01617 0.18157 0.89268 0.0
C931 C 0.02358 0.14873 0.77798 0.0
H932 H 0.01888 0.10779 0.87944 0.0
C933 C 1.00232 0.0726 0.73179 0.0
C934 C 0.01197 0.05642 0.74964 0.0
C935 C 0.00502 0.0915 0.74671 0.0
C936 C 0.02023 0.11905 0.85063 0.0
H937 H 0.05382 0.20862 0.82415 0.0
H938 H 0.04799 0.17704 0.78975 0.0
H939 H 0.02266 0.14079 0.90813 0.0
H940 H 0.03204 0.04749 0.79728 0.0
H941 H 0.03649 0.08054 0.82424 0.0
H942 H 0.02101 0.12696 0.72053 0.0
C943 C 0.03977 0.1833 0.82355 0.0
C944 C 0.02223 0.13797 0.8671 0.0
C945 C 0.04314 0.20134 0.84331 0.0
C946 C 0.02439 0.05961 0.78282 0.0
C947 C 0.02689 0.07853 0.79844 0.0
C948 C 0.0213 0.12984 0.76159 0.0
C949 C 0.0265 0.17301 0.84877 0.0
C950 C 0.02397 0.15302 0.83098 0.0
C951 C 0.01724 0.09468 0.78053 0.0
C952 C 0.01968 0.11477 0.79773 0.0
H953 H 0.01155 0.20558 0.94697 0.0
H954 H 0.00575 0.17408 0.91264 0.0
H955 H 0.02484 0.16003 0.74928 0.0
H956 H 0.99268 0.0707 0.70606 0.0
H957 H 0.99731 0.10364 0.73255 0.0
C958 C 0.31493 0.00847 0.90913 0.0
C959 C 0.31218 0.00327 0.96178 0.0
C960 C 0.33176 0.00842 0.88302 0.0
C961 C 0.37595 0.01444 0.90746 0.0
H962 H 0.39061 0.98759 0.77536 0.0
C963 C 0.44791 0.00471 0.82219 0.0
C964 C 0.45237 0.00405 0.7679 0.0
C965 C 0.43063 0.00502 0.84415 0.0
C966 C 0.38673 0.9955 0.81176 0.0
H967 H 0.32497 0.99417 0.02834 0.0
H968 H 0.35418 0.99434 0.98312 0.0
H969 H 0.36072 0.98749 0.81545 0.0
H970 H 0.44206 0.0036 0.694 0.0
H971 H 0.41194 0.00498 0.73202 0.0
H972 H 0.4016 0.023 0.90367 0.0
C973 C 0.34336 0.99825 0.96187 0.0
C974 C 0.36957 0.99533 0.83481 0.0
C975 C 0.32661 0.99796 0.98758 0.0
C976 C 0.43909 0.004 0.73604 0.0
C977 C 0.42177 0.00463 0.75797 0.0
C978 C 0.39299 0.01491 0.88408 0.0
C979 C 0.34614 0.00361 0.90944 0.0
C980 C 0.36407 0.00458 0.88325 0.0
C981 C 0.41725 0.00501 0.81244 0.0
C982 C 0.39876 0.00522 0.83617 0.0
H983 H 0.30408 0.01268 0.88828 0.0
H984 H 0.33353 0.01267 0.84263 0.0
H985 H 0.37201 0.02194 0.94448 0.0
H986 H 0.45782 0.00455 0.84791 0.0
H987 H 0.42786 0.00487 0.88616 0.0
C988 C 0.48506 0.31089 0.97531 0.0
C989 C 0.46965 0.30242 0.97028 0.0
C990 C 0.4892 0.3275 0.94751 0.0
C991 C 0.4791 0.35815 0.83657 0.0
H992 H 0.49352 0.39945 0.91905 0.0
C993 C 0.48306 0.43631 0.75935 0.0
C994 C 0.49684 0.44656 0.7714 0.0
C995 C 0.47989 0.41854 0.78279 0.0
C996 C 0.48975 0.38802 0.89513 0.0
H997 H 0.44701 0.30417 0.92966 0.0
H998 H 0.45427 0.33319 0.88093 0.0
H999 H 0.48859 0.36818 0.95838 0.0
H1000 H 0.51806 0.4461 0.8179 0.0
H1001 H 0.51274 0.41506 0.85802 0.0
H1002 H 0.48036 0.37795 0.77317 0.0
C1003 C 0.46314 0.32696 0.90652 0.0
C1004 C 0.48692 0.37006 0.91775 0.0
C1005 C 0.45894 0.31039 0.93461 0.0
C1006 C 0.50725 0.4387 0.80794 0.0
C1007 C 0.50415 0.42088 0.83114 0.0
C1008 C 0.48205 0.3761 0.81378 0.0
C1009 C 0.47808 0.33603 0.91379 0.0
C1010 C 0.48154 0.3549 0.8888 0.0
C1011 C 0.49048 0.41049 0.81868 0.0
C1012 C 0.48737 0.39131 0.84281 0.0
H1013 H 0.49351 0.30532 0.00288 0.0
H1014 H 0.50093 0.33396 0.95341 0.0
H1015 H 0.47511 0.34672 0.81309 0.0
H1016 H 0.47473 0.44194 0.73152 0.0
H1017 H 0.46907 0.41117 0.77289 0.0
C1018 C 0.17663 0.48841 0.91463 0.0
C1019 C 0.19182 0.48079 0.88377 0.0
C1020 C 0.16065 0.48933 0.89531 0.0
C1021 C 0.14004 0.48997 0.77443 0.0
H1022 H 0.10099 0.47221 0.86278 0.0
C1023 C 0.06921 0.50331 0.72891 0.0
C1024 C 0.05866 0.48781 0.73624 0.0
C1025 C 0.08574 0.50196 0.74465 0.0
C1026 C 0.11177 0.47713 0.83749 0.0
H1027 H 0.20206 0.46864 0.80767 0.0
H1028 H 0.17418 0.47055 0.77359 0.0
H1029 H 0.12916 0.47132 0.89439 0.0
H1030 H 0.05743 0.45864 0.76626 0.0
H1031 H 0.08618 0.45642 0.79453 0.0
H1032 H 0.12258 0.49595 0.71771 0.0
C1033 C 0.17466 0.47573 0.81293 0.0
C1034 C 0.1279 0.47679 0.8558 0.0
C1035 C 0.19063 0.47456 0.83253 0.0
C1036 C 0.06516 0.47086 0.75977 0.0
C1037 C 0.08162 0.46962 0.77627 0.0
C1038 C 0.12384 0.49057 0.75639 0.0
C1039 C 0.15942 0.48286 0.84434 0.0
C1040 C 0.14225 0.48321 0.82455 0.0
C1041 C 0.09212 0.48518 0.76898 0.0
C1042 C 0.10949 0.48414 0.78767 0.0
H1043 H 0.177 0.49311 0.95447 0.0
H1044 H 0.14921 0.49507 0.92041 0.0
H1045 H 0.15079 0.4951 0.74942 0.0
H1046 H 0.06469 0.51665 0.71133 0.0
H1047 H 0.09338 0.51429 0.73891 0.0
C1048 C 0.9669 0.80775 0.47434 0.0
C1049 C 0.97898 0.79222 0.48302 0.0
C1050 C 0.96694 0.82574 0.49953 0.0
C1051 C 0.9824 0.851 0.60894 0.0
H1052 H 0.98317 0.89487 0.51621 0.0
C1053 C 1.00134 0.92624 0.67163 0.0
C1054 C 0.99335 0.94303 0.65129 0.0
C1055 C 0.99847 0.90771 0.65401 0.0
C1056 C 0.98266 0.88291 0.54305 0.0
H1057 H 0.99986 0.78305 0.52734 0.0
H1058 H 0.99981 0.81444 0.57183 0.0
H1059 H 0.97925 0.8628 0.48265 0.0
H1060 H 0.97559 0.95339 0.59758 0.0
H1061 H 0.97017 0.92125 0.56818 0.0
H1062 H 0.98567 0.87111 0.66953 0.0
C1063 C 0.99037 0.81271 0.54533 0.0
C1064 C 0.98044 0.86447 0.52366 0.0
C1065 C 0.99045 0.79477 0.5197 0.0
C1066 C 0.98213 0.94081 0.61371 0.0
C1067 C 0.9791 0.9223 0.59657 0.0
C1068 C 0.98443 0.86952 0.62856 0.0
C1069 C 0.97895 0.82856 0.53439 0.0
C1070 C 0.98038 0.84827 0.55625 0.0
C1071 C 0.98736 0.90546 0.61601 0.0
C1072 C 0.9847 0.88574 0.59579 0.0
H1073 H 0.95801 0.80633 0.44596 0.0
H1074 H 0.95786 0.83762 0.49074 0.0
H1075 H 0.98229 0.83881 0.63509 0.0
H1076 H 0.01007 0.92736 0.70053 0.0
H1077 H 0.00528 0.89517 0.66946 0.0
C1078 C 0.68526 0.96165 0.43054 0.0
C1079 C 0.6951 0.97781 0.42644 0.0
C1080 C 0.66935 0.96254 0.46216 0.0
C1081 C 0.63414 0.99864 0.51574 0.0
H1082 H 0.61671 0.95534 0.59424 0.0
C1083 C 0.56731 0.00604 0.63915 0.0
C1084 C 0.55704 0.99032 0.63886 0.0
C1085 C 0.58461 0.00409 0.61724 0.0
C1086 C 0.62131 0.96751 0.57208 0.0
H1087 H 0.69616 0.0073 0.45443 0.0
H1088 H 0.66861 0.00872 0.51026 0.0
H1089 H 0.64638 0.95254 0.55098 0.0
H1090 H 0.5571 0.9601 0.61536 0.0
H1091 H 0.5872 0.9568 0.57614 0.0
H1092 H 0.60909 0.01351 0.53573 0.0
C1093 C 0.6731 0.99543 0.48839 0.0
C1094 C 0.63835 0.96592 0.5474 0.0
C1095 C 0.68903 0.99452 0.45691 0.0
C1096 C 0.5646 0.97252 0.61638 0.0
C1097 C 0.58193 0.97058 0.59419 0.0
C1098 C 0.61713 0.00021 0.5402 0.0
C1099 C 0.66283 0.97964 0.49036 0.0
C1100 C 0.64498 0.98146 0.51882 0.0
C1101 C 0.59215 0.98639 0.59402 0.0
C1102 C 0.61044 0.98467 0.56866 0.0
H1103 H 0.68962 0.94848 0.40796 0.0
H1104 H 0.66179 0.95011 0.46256 0.0
H1105 H 0.63866 0.01076 0.49317 0.0
H1106 H 0.56199 0.01999 0.65605 0.0
H1107 H 0.5921 0.0165 0.61871 0.0
C1108 C 0.57204 0.67351 0.41673 0.0
C1109 C 0.55797 0.68647 0.40698 0.0
C1110 C 0.5695 0.65748 0.44873 0.0
C1111 C 0.53744 0.6355 0.54423 0.0
H1112 H 0.55982 0.58673 0.4844 0.0
C1113 C 0.51309 0.56157 0.60495 0.0
C1114 C 0.52534 0.54579 0.61005 0.0
C1115 C 0.51822 0.57911 0.58426 0.0
C1116 C 0.55366 0.60022 0.50214 0.0
H1117 H 0.53031 0.69313 0.4256 0.0
H1118 H 0.52596 0.66544 0.48152 0.0
H1119 H 0.56714 0.61726 0.44443 0.0
H1120 H 0.55265 0.53616 0.59713 0.0
H1121 H 0.56158 0.56681 0.56113 0.0
H1122 H 0.52371 0.6184 0.60133 0.0
C1123 C 0.53898 0.6677 0.4648 0.0
C1124 C 0.55789 0.61776 0.47928 0.0
C1125 C 0.54151 0.68369 0.43279 0.0
C1126 C 0.54285 0.54796 0.59356 0.0
C1127 C 0.54798 0.56553 0.57278 0.0
C1128 C 0.53321 0.61795 0.56708 0.0
C1129 C 0.55285 0.65405 0.47186 0.0
C1130 C 0.54964 0.63561 0.49956 0.0
C1131 C 0.53573 0.58136 0.56811 0.0
C1132 C 0.54107 0.60007 0.54583 0.0
H1133 H 0.58493 0.67536 0.39805 0.0
H1134 H 0.58052 0.64746 0.4542 0.0
H1135 H 0.53103 0.64898 0.56131 0.0
H1136 H 0.49949 0.56044 0.61711 0.0
H1137 H 0.5084 0.59086 0.58037 0.0
C1138 C 0.82808 0.51484 0.53426 0.0
C1139 C 0.8242 0.49824 0.50766 0.0
C1140 C 0.84335 0.51484 0.5573 0.0
C1141 C 0.87951 0.48258 0.60028 0.0
H1142 H 0.90416 0.52887 0.58218 0.0
C1143 C 0.94295 0.49087 0.69069 0.0
C1144 C 0.95617 0.49948 0.65954 0.0
C1145 C 0.92637 0.49095 0.67546 0.0
C1146 C 0.89752 0.51577 0.58741 0.0
H1147 H 0.83319 0.46828 0.48676 0.0
H1148 H 0.85988 0.46837 0.52615 0.0
H1149 H 0.87632 0.52809 0.55018 0.0
H1150 H 0.96211 0.51507 0.58794 0.0
H1151 H 0.93341 0.51511 0.56143 0.0
H1152 H 0.901 0.47009 0.63625 0.0
C1153 C 0.85106 0.48141 0.52949 0.0
C1154 C 0.88139 0.51541 0.5696 0.0
C1155 C 0.83578 0.48141 0.5064 0.0
C1156 C 0.95229 0.50836 0.61313 0.0
C1157 C 0.93574 0.50847 0.59799 0.0
C1158 C 0.89566 0.48296 0.61822 0.0
C1159 C 0.85522 0.49824 0.55446 0.0
C1160 C 0.87216 0.49877 0.57546 0.0
C1161 C 0.92253 0.4997 0.62876 0.0
C1162 C 0.90497 0.49951 0.61166 0.0
H1163 H 0.81966 0.52817 0.53564 0.0
H1164 H 0.84593 0.52799 0.57685 0.0
H1165 H 0.87276 0.46958 0.606 0.0
H1166 H 0.94542 0.48389 0.72672 0.0
H1167 H 0.91651 0.48426 0.70054 0.0
loop_
_geom_bond_atom_site_label_1
_geom_bond_atom_site_label_2
_geom_bond_distance
_geom_bond_site_symmetry_2
_ccdc_geom_bond_type
C0 C1 1.384 . S
C0 H13 0.947 . S
C0 C35 1.382 . S
C1 C0 1.384 . S
C1 C2 1.378 . S
C2 C1 1.378 . S
C2 C3 1.378 . S
C2 H14 0.952 . S
C3 C2 1.378 . S
C3 H15 0.950 . S
C3 C34 1.383 . S
H4 C23 0.947 . S
H5 C24 0.946 . S
H6 C26 0.953 . S
H7 C27 0.945 . S
H8 C29 0.952 . S
H9 C30 0.949 . S
H10 C32 0.950 . S
H11 C33 0.948 . S
H12 C35 0.951 . S
H13 C0 0.947 . S
H14 C2 0.952 . S
H15 C3 0.950 . S
N16 C19 1.382 . S
N16 C21 1.363 . S
N17 C19 1.371 . S
N17 C20 1.372 . S
N18 C20 1.361 . S
N18 C21 1.377 . S
C19 N16 1.382 . S
C19 N17 1.371 . S
C19 C22 1.480 . S
C20 N17 1.372 . S
C20 N18 1.361 . S
C20 C28 1.457 . S
C21 N16 1.363 . S
C21 N18 1.377 . S
C21 C34 1.479 . S
C22 C19 1.480 . S
C22 C23 1.383 . S
C22 C27 1.385 . S
C23 H4 0.947 . S
C23 C22 1.383 . S
C23 C24 1.388 . S
C24 H5 0.946 . S
C24 C23 1.388 . S
C24 C25 1.384 . S
C25 C24 1.384 . S
C25 C26 1.377 . S
C26 H6 0.953 . S
C26 C25 1.377 . S
C26 C27 1.369 . S
C27 H7 0.945 . S
C27 C22 1.385 . S
C27 C26 1.369 . S
C28 C20 1.457 . S
C28 C29 1.372 . S
C28 C33 1.364 . S
C29 H8 0.952 . S
C29 C28 1.372 . S
C29 C30 1.389 . S
C30 H9 0.949 . S
C30 C29 1.389 . S
C30 C31 1.387 . S
C31 C30 1.387 . S
C31 C32 1.372 . S
C32 H10 0.950 . S
C32 C31 1.372 . S
C32 C33 1.379 . S
C33 H11 0.948 . S
C33 C28 1.364 . S
C33 C32 1.379 . S
C34 C3 1.383 . S
C34 C21 1.479 . S
C34 C35 1.398 . S
C35 C0 1.382 . S
C35 H12 0.951 . S
C35 C34 1.398 . S
C36 C37 1.384 . S
C36 H49 0.947 . S
C36 C71 1.382 . S
C37 C36 1.384 . S
C37 C38 1.378 . S
C38 C37 1.378 . S
C38 C39 1.378 . S
C38 H50 0.952 . S
C39 C38 1.378 . S
C39 H51 0.950 . S
C39 C70 1.383 . S
H40 C59 0.947 . S
H41 C60 0.946 . S
H42 C62 0.953 . S
H43 C63 0.945 . S
H44 C65 0.952 . S
H45 C66 0.949 . S
H46 C68 0.950 . S
H47 C69 0.948 . S
H48 C71 0.951 . S
H49 C36 0.947 . S
H50 C38 0.952 . S
H51 C39 0.950 . S
N52 C55 1.382 . S
N52 C57 1.363 . S
N53 C55 1.371 . S
N53 C56 1.372 . S
N54 C56 1.361 . S
N54 C57 1.377 . S
C55 N52 1.382 . S
C55 N53 1.371 . S
C55 C58 1.480 . S
C56 N53 1.372 . S
C56 N54 1.361 . S
C56 C64 1.457 . S
C57 N52 1.363 . S
C57 N54 1.377 . S
C57 C70 1.479 . S
C58 C55 1.480 . S
C58 C59 1.383 . S
C58 C63 1.385 . S
C59 H40 0.947 . S
C59 C58 1.383 . S
C59 C60 1.388 . S
C60 H41 0.946 . S
C60 C59 1.388 . S
C60 C61 1.384 . S
C61 C60 1.384 . S
C61 C62 1.377 . S
C62 H42 0.953 . S
C62 C61 1.377 . S
C62 C63 1.369 . S
C63 H43 0.945 . S
C63 C58 1.385 . S
C63 C62 1.369 . S
C64 C56 1.457 . S
C64 C65 1.372 . S
C64 C69 1.364 . S
C65 H44 0.952 . S
C65 C64 1.372 . S
C65 C66 1.389 . S
C66 H45 0.949 . S
C66 C65 1.389 . S
C66 C67 1.387 . S
C67 C66 1.387 . S
C67 C68 1.372 . S
C68 H46 0.950 . S
C68 C67 1.372 . S
C68 C69 1.379 . S
C69 H47 0.948 . S
C69 C64 1.364 . S
C69 C68 1.379 . S
C70 C39 1.383 . S
C70 C57 1.479 . S
C70 C71 1.398 . S
C71 C36 1.382 . S
C71 H48 0.951 . S
C71 C70 1.398 . S
C72 C73 1.383 1_565 S
C72 H85 0.948 . S
C72 C107 1.382 1_565 S
C73 C72 1.383 1_545 S
C73 C74 1.378 . S
C74 C73 1.378 . S
C74 C75 1.378 . S
C74 H86 0.952 . S
C75 C74 1.378 . S
C75 H87 0.950 . S
C75 C106 1.383 . S
H76 C95 0.947 . S
H77 C96 0.950 . S
H78 C98 0.953 . S
H79 C99 0.945 . S
H80 C101 0.951 1_565 S
H81 C102 0.955 . S
H82 C104 0.950 . S
H83 C105 0.948 . S
H84 C107 0.952 1_565 S
H85 C72 0.948 . S
H86 C74 0.952 . S
H87 C75 0.950 . S
N88 C91 1.382 . S
N88 C93 1.363 . S
N89 C91 1.371 . S
N89 C92 1.372 . S
N90 C92 1.361 . S
N90 C93 1.377 . S
C91 N88 1.382 . S
C91 N89 1.371 . S
C91 C94 1.480 . S
C92 N89 1.372 . S
C92 N90 1.361 . S
C92 C100 1.457 . S
C93 N88 1.363 . S
C93 N90 1.377 . S
C93 C106 1.479 . S
C94 C91 1.480 . S
C94 C95 1.383 . S
C94 C99 1.385 . S
C95 H76 0.947 . S
C95 C94 1.383 . S
C95 C96 1.388 1_545 S
C96 H77 0.950 . S
C96 C95 1.388 1_565 S
C96 C97 1.380 1_565 S
C97 C96 1.380 1_545 S
C97 C98 1.377 . S
C98 H78 0.953 . S
C98 C97 1.377 . S
C98 C99 1.369 . S
C99 H79 0.945 . S
C99 C94 1.385 . S
C99 C98 1.369 . S
C100 C92 1.457 . S
C100 C101 1.375 . S
C100 C105 1.364 . S
C101 H80 0.951 1_545 S
C101 C100 1.375 . S
C101 C102 1.383 1_545 S
C102 H81 0.955 . S
C102 C101 1.383 1_565 S
C102 C103 1.387 1_565 S
C103 C102 1.387 1_545 S
C103 C104 1.372 . S
C104 H82 0.950 . S
C104 C103 1.372 . S
C104 C105 1.379 . S
C105 H83 0.948 . S
C105 C100 1.364 . S
C105 C104 1.379 . S
C106 C75 1.383 . S
C106 C93 1.479 . S
C106 C107 1.397 . S
C107 C72 1.382 1_545 S
C107 H84 0.952 1_545 S
C107 C106 1.397 . S
C108 C109 1.384 . S
C108 H121 0.947 . S
C108 C143 1.379 1_556 S
C109 C108 1.384 . S
C109 C110 1.378 . S
C110 C109 1.378 . S
C110 C111 1.378 . S
C110 H122 0.952 . S
C111 C110 1.378 . S
C111 H123 0.950 . S
C111 C142 1.383 . S
H112 C131 0.947 . S
H113 C132 0.946 . S
H114 C134 0.953 . S
H115 C135 0.945 . S
H116 C137 0.952 . S
H117 C138 0.949 . S
H118 C140 0.950 . S
H119 C141 0.948 . S
H120 C143 0.954 . S
H121 C108 0.947 . S
H122 C110 0.952 . S
H123 C111 0.950 . S
N124 C127 1.382 . S
N124 C129 1.363 . S
N125 C127 1.371 . S
N125 C128 1.372 . S
N126 C128 1.361 . S
N126 C129 1.377 . S
C127 N124 1.382 . S
C127 N125 1.371 . S
C127 C130 1.480 . S
C128 N125 1.372 . S
C128 N126 1.361 . S
C128 C136 1.457 . S
C129 N124 1.363 . S
C129 N126 1.377 . S
C129 C142 1.479 1_554 S
C130 C127 1.480 . S
C130 C131 1.383 1_554 S
C130 C135 1.385 . S
C131 H112 0.947 . S
C131 C130 1.383 1_556 S
C131 C132 1.388 . S
C132 H113 0.946 . S
C132 C131 1.388 . S
C132 C133 1.384 1_556 S
C133 C132 1.384 1_554 S
C133 C134 1.377 . S
C134 H114 0.953 . S
C134 C133 1.377 . S
C134 C135 1.369 . S
C135 H115 0.945 . S
C135 C130 1.385 . S
C135 C134 1.369 . S
C136 C128 1.457 . S
C136 C137 1.372 . S
C136 C141 1.364 . S
C137 H116 0.952 . S
C137 C136 1.372 . S
C137 C138 1.389 . S
C138 H117 0.949 . S
C138 C137 1.389 . S
C138 C139 1.387 . S
C139 C138 1.387 . S
C139 C140 1.372 . S
C140 H118 0.950 . S
C140 C139 1.372 . S
C140 C141 1.379 . S
C141 H119 0.948 . S
C141 C136 1.364 . S
C141 C140 1.379 . S
C142 C111 1.383 . S
C142 C129 1.479 1_556 S
C142 C143 1.397 1_556 S
C143 C108 1.379 1_554 S
C143 H120 0.954 . S
C143 C142 1.397 1_554 S
C144 C145 1.384 . S
C144 H157 0.947 . S
C144 C179 1.382 . S
C145 C144 1.384 . S
C145 C146 1.378 . S
C146 C145 1.378 . S
C146 C147 1.378 . S
C146 H158 0.952 . S
C147 C146 1.378 . S
C147 H159 0.950 . S
C147 C178 1.383 . S
H148 C167 0.947 . S
H149 C168 0.946 . S
H150 C170 0.953 . S
H151 C171 0.945 . S
H152 C173 0.952 . S
H153 C174 0.949 . S
H154 C176 0.950 . S
H155 C177 0.948 . S
H156 C179 0.951 . S
H157 C144 0.947 . S
H158 C146 0.952 . S
H159 C147 0.950 . S
N160 C163 1.382 1_556 S
N160 C165 1.363 . S
N161 C163 1.371 . S
N161 C164 1.372 . S
N162 C164 1.361 1_556 S
N162 C165 1.377 . S
C163 N160 1.382 1_554 S
C163 N161 1.371 . S
C163 C166 1.480 . S
C164 N161 1.372 . S
C164 N162 1.361 1_554 S
C164 C172 1.457 . S
C165 N160 1.363 . S
C165 N162 1.377 . S
C165 C178 1.479 . S
C166 C163 1.480 . S
C166 C167 1.383 1_554 S
C166 C171 1.385 . S
C167 H148 0.947 . S
C167 C166 1.383 1_556 S
C167 C168 1.388 . S
C168 H149 0.946 . S
C168 C167 1.388 . S
C168 C169 1.384 1_556 S
C169 C168 1.384 1_554 S
C169 C170 1.377 . S
C170 H150 0.953 . S
C170 C169 1.377 . S
C170 C171 1.369 . S
C171 H151 0.945 . S
C171 C166 1.385 . S
C171 C170 1.369 . S
C172 C164 1.457 . S
C172 C173 1.372 . S
C172 C177 1.364 . S
C173 H152 0.952 . S
C173 C172 1.372 . S
C173 C174 1.389 . S
C174 H153 0.949 . S
C174 C173 1.389 . S
C174 C175 1.387 . S
C175 C174 1.387 . S
C175 C176 1.372 . S
C176 H154 0.950 . S
C176 C175 1.372 . S
C176 C177 1.379 . S
C177 H155 0.948 . S
C177 C172 1.364 . S
C177 C176 1.379 . S
C178 C147 1.383 . S
C178 C165 1.479 . S
C178 C179 1.398 . S
C179 C144 1.382 . S
C179 H156 0.951 . S
C179 C178 1.398 . S
C180 C181 1.384 . S
C180 H193 0.947 . S
C180 C215 1.382 . S
C181 C180 1.384 . S
C181 C182 1.378 . S
C182 C181 1.378 . S
C182 C183 1.378 . S
C182 H194 0.952 . S
C183 C182 1.378 . S
C183 H195 0.950 . S
C183 C214 1.383 . S
H184 C203 0.947 . S
H185 C204 0.946 . S
H186 C206 0.953 . S
H187 C207 0.945 . S
H188 C209 0.952 . S
H189 C210 0.949 . S
H190 C212 0.950 . S
H191 C213 0.948 . S
H192 C215 0.951 1_554 S
H193 C180 0.947 . S
H194 C182 0.952 . S
H195 C183 0.950 . S
N196 C199 1.382 . S
N196 C201 1.363 . S
N197 C199 1.371 . S
N197 C200 1.372 . S
N198 C200 1.361 . S
N198 C201 1.377 . S
C199 N196 1.382 . S
C199 N197 1.371 . S
C199 C202 1.480 . S
C200 N197 1.372 . S
C200 N198 1.361 . S
C200 C208 1.457 . S
C201 N196 1.363 . S
C201 N198 1.377 . S
C201 C214 1.479 1_554 S
C202 C199 1.480 . S
C202 C203 1.383 . S
C202 C207 1.385 . S
C203 H184 0.947 . S
C203 C202 1.383 . S
C203 C204 1.388 . S
C204 H185 0.946 . S
C204 C203 1.388 . S
C204 C205 1.384 . S
C205 C204 1.384 . S
C205 C206 1.377 . S
C206 H186 0.953 . S
C206 C205 1.377 . S
C206 C207 1.369 . S
C207 H187 0.945 . S
C207 C202 1.385 . S
C207 C206 1.369 . S
C208 C200 1.457 . S
C208 C209 1.372 . S
C208 C213 1.364 . S
C209 H188 0.952 . S
C209 C208 1.372 . S
C209 C210 1.389 . S
C210 H189 0.949 . S
C210 C209 1.389 . S
C210 C211 1.387 . S
C211 C210 1.387 . S
C211 C212 1.372 . S
C212 H190 0.950 . S
C212 C211 1.372 . S
C212 C213 1.379 . S
C213 H191 0.948 . S
C213 C208 1.364 . S
C213 C212 1.379 . S
C214 C183 1.383 . S
C214 C201 1.479 1_556 S
C214 C215 1.398 . S
C215 C180 1.382 . S
C215 H192 0.951 1_556 S
C215 C214 1.398 . S
C216 C217 1.384 . S
C216 H229 0.947 1_545 S
C216 C251 1.382 1_556 S
C217 C216 1.384 . S
C217 C218 1.378 . S
C218 C217 1.378 . S
C218 C219 1.378 1_556 S
C218 H230 0.952 . S
C219 C218 1.378 1_554 S
C219 H231 0.950 . S
C219 C250 1.383 . S
H220 C239 0.947 . S
H221 C240 0.949 . S
H222 C242 0.953 . S
H223 C243 0.945 . S
H224 C245 0.945 1_565 S
H225 C246 0.955 . S
H226 C248 0.950 . S
H227 C249 0.948 . S
H228 C251 0.951 1_565 S
H229 C216 0.947 1_565 S
H230 C218 0.952 . S
H231 C219 0.950 . S
N232 C235 1.382 . S
N232 C237 1.363 . S
N233 C235 1.371 . S
N233 C236 1.372 . S
N234 C236 1.361 . S
N234 C237 1.377 . S
C235 N232 1.382 . S
C235 N233 1.371 . S
C235 C238 1.480 . S
C236 N233 1.372 . S
C236 N234 1.361 . S
C236 C244 1.457 . S
C237 N232 1.363 . S
C237 N234 1.377 . S
C237 C250 1.479 . S
C238 C235 1.480 . S
C238 C239 1.383 . S
C238 C243 1.385 . S
C239 H220 0.947 . S
C239 C238 1.383 . S
C239 C240 1.386 1_545 S
C240 H221 0.949 . S
C240 C239 1.386 1_565 S
C240 C241 1.383 1_565 S
C241 C240 1.383 1_545 S
C241 C242 1.377 . S
C242 H222 0.953 . S
C242 C241 1.377 . S
C242 C243 1.369 . S
C243 H223 0.945 . S
C243 C238 1.385 . S
C243 C242 1.369 . S
C244 C236 1.457 . S
C244 C245 1.380 . S
C244 C249 1.364 . S
C245 H224 0.945 1_545 S
C245 C244 1.380 . S
C245 C246 1.390 1_545 S
C246 H225 0.955 . S
C246 C245 1.390 1_565 S
C246 C247 1.381 1_565 S
C247 C246 1.381 1_545 S
C247 C248 1.372 . S
C248 H226 0.950 . S
C248 C247 1.372 . S
C248 C249 1.379 . S
C249 H227 0.948 . S
C249 C244 1.364 . S
C249 C248 1.379 . S
C250 C219 1.383 . S
C250 C237 1.479 . S
C250 C251 1.398 . S
C251 C216 1.382 1_554 S
C251 H228 0.951 1_545 S
C251 C250 1.398 . S
C252 C253 1.384 . S
C252 H265 0.947 . S
C252 C287 1.382 . S
C253 C252 1.384 . S
C253 C254 1.378 . S
C254 C253 1.378 . S
C254 C255 1.378 . S
C254 H266 0.952 . S
C255 C254 1.378 . S
C255 H267 0.950 . S
C255 C286 1.383 . S
H256 C275 0.947 . S
H257 C276 0.946 . S
H258 C278 0.953 . S
H259 C279 0.945 . S
H260 C281 0.952 . S
H261 C282 0.949 . S
H262 C284 0.950 . S
H263 C285 0.948 . S
H264 C287 0.951 . S
H265 C252 0.947 . S
H266 C254 0.952 . S
H267 C255 0.950 . S
N268 C271 1.382 . S
N268 C273 1.363 . S
N269 C271 1.371 . S
N269 C272 1.372 . S
N270 C272 1.361 . S
N270 C273 1.377 . S
C271 N268 1.382 . S
C271 N269 1.371 . S
C271 C274 1.480 . S
C272 N269 1.372 . S
C272 N270 1.361 . S
C272 C280 1.457 . S
C273 N268 1.363 . S
C273 N270 1.377 . S
C273 C286 1.479 . S
C274 C271 1.480 . S
C274 C275 1.383 . S
C274 C279 1.385 . S
C275 H256 0.947 . S
C275 C274 1.383 . S
C275 C276 1.388 . S
C276 H257 0.946 . S
C276 C275 1.388 . S
C276 C277 1.384 . S
C277 C276 1.384 . S
C277 C278 1.377 . S
C278 H258 0.953 . S
C278 C277 1.377 . S
C278 C279 1.369 . S
C279 H259 0.945 . S
C279 C274 1.385 . S
C279 C278 1.369 . S
C280 C272 1.457 . S
C280 C281 1.372 . S
C280 C285 1.364 . S
C281 H260 0.952 . S
C281 C280 1.372 . S
C281 C282 1.389 . S
C282 H261 0.949 . S
C282 C281 1.389 . S
C282 C283 1.387 . S
C283 C282 1.387 . S
C283 C284 1.372 . S
C284 H262 0.950 . S
C284 C283 1.372 . S
C284 C285 1.379 . S
C285 H263 0.948 . S
C285 C280 1.364 . S
C285 C284 1.379 . S
C286 C255 1.383 . S
C286 C273 1.479 . S
C286 C287 1.398 . S
C287 C252 1.382 . S
C287 H264 0.951 . S
C287 C286 1.398 . S
Dy288 O291 2.307 1_545 S
Dy288 O293 2.395 1_655 S
Dy288 O294 2.379 . S
Dy288 O296 2.339 . S
Dy288 O298 2.300 . S
Dy288 O302 2.275 1_655 S
Dy288 C310 2.738 . S
Dy289 O292 2.298 . S
Dy289 O295 2.275 1_455 S
Dy289 O297 2.307 1_565 S
Dy289 O299 2.394 . S
Dy289 O300 2.379 . S
Dy289 O303 2.339 . S
Dy289 C319 2.738 . S
C290 O302 1.254 1_565 S
C290 O303 1.257 . S
O291 Dy288 2.307 1_565 S
O291 C301 1.266 . S
O292 Dy289 2.298 . S
O292 C301 1.236 1_455 S
O293 Dy288 2.395 1_455 S
O293 C310 1.255 1_455 S
O294 Dy288 2.379 . S
O294 C310 1.249 . S
O295 Dy289 2.275 1_655 S
O295 C311 1.254 1_565 S
O296 Dy288 2.339 . S
O296 C311 1.257 . S
O297 Dy289 2.307 1_545 S
O297 C312 1.266 . S
O298 Dy288 2.300 . S
O298 C312 1.232 1_655 S
O299 Dy289 2.394 . S
O299 C319 1.254 . S
O300 Dy289 2.379 . S
O300 C319 1.249 . S
C301 O291 1.266 . S
C301 O292 1.236 1_655 S
O302 Dy288 2.275 1_455 S
O302 C290 1.254 1_545 S
O303 Dy289 2.339 . S
O303 C290 1.257 . S
C304 C307 1.344 1_655 S
C304 C308 1.328 . S
C304 C310 1.516 . S
C305 C306 1.304 1_655 S
C305 C309 1.323 . S
C306 C305 1.304 1_455 S
C306 C307 1.371 . S
C306 H320 0.930 . S
C307 C304 1.344 1_455 S
C307 C306 1.371 . S
C307 H321 0.931 . S
C308 C304 1.328 . S
C308 C309 1.433 . S
C308 H322 0.931 . S
C309 C305 1.323 . S
C309 C308 1.433 . S
C309 H323 0.933 . S
C310 Dy288 2.738 . S
C310 O293 1.255 1_655 S
C310 O294 1.249 . S
C310 C304 1.516 . S
C311 O295 1.254 1_545 S
C311 O296 1.257 . S
C312 O297 1.266 . S
C312 O298 1.232 1_455 S
C313 C316 1.322 1_455 S
C313 C317 1.328 . S
C313 C319 1.516 . S
C314 C315 1.301 1_455 S
C314 C318 1.323 . S
C315 C314 1.301 1_655 S
C315 C316 1.371 . S
C315 H324 0.933 . S
C316 C313 1.322 1_655 S
C316 C315 1.371 . S
C316 H325 0.953 . S
C317 C313 1.328 . S
C317 C318 1.433 . S
C317 H326 0.931 . S
C318 C314 1.323 . S
C318 C317 1.433 . S
C318 H327 0.933 . S
C319 Dy289 2.738 . S
C319 O299 1.254 . S
C319 O300 1.249 . S
C319 C313 1.516 . S
H320 C306 0.930 . S
H321 C307 0.931 . S
H322 C308 0.931 . S
H323 C309 0.933 . S
H324 C315 0.933 . S
H325 C316 0.953 . S
H326 C317 0.931 . S
H327 C318 0.933 . S
Dy328 O331 2.307 . S
Dy328 O333 2.395 1_565 S
Dy328 O334 2.379 . S
Dy328 O336 2.339 . S
Dy328 O338 2.298 . S
Dy328 O342 2.275 1_565 S
Dy328 C350 2.738 . S
Dy329 O332 2.298 . S
Dy329 O335 2.275 1_545 S
Dy329 O337 2.307 . S
Dy329 O339 2.395 1_545 S
Dy329 O340 2.379 . S
Dy329 O343 2.339 . S
Dy329 C359 2.738 . S
C330 O342 1.254 . S
C330 O343 1.257 . S
O331 Dy328 2.307 . S
O331 C341 1.266 . S
O332 Dy329 2.298 . S
O332 C341 1.236 1_545 S
O333 Dy328 2.395 1_545 S
O333 C350 1.255 1_545 S
O334 Dy328 2.379 . S
O334 C350 1.249 . S
O335 Dy329 2.275 1_565 S
O335 C351 1.254 . S
O336 Dy328 2.339 . S
O336 C351 1.257 . S
O337 Dy329 2.307 . S
O337 C352 1.266 . S
O338 Dy328 2.298 . S
O338 C352 1.236 1_565 S
O339 Dy329 2.395 1_565 S
O339 C359 1.255 1_565 S
O340 Dy329 2.379 . S
O340 C359 1.249 . S
C341 O331 1.266 . S
C341 O332 1.236 1_565 S
O342 Dy328 2.275 1_545 S
O342 C330 1.254 . S
O343 Dy329 2.339 . S
O343 C330 1.257 . S
C344 C347 1.344 1_565 S
C344 C348 1.328 . S
C344 C350 1.516 . S
C345 C346 1.307 . S
C345 C349 1.323 . S
C346 C345 1.307 . S
C346 C347 1.370 1_565 S
C346 H360 0.927 1_565 S
C347 C344 1.344 1_545 S
C347 C346 1.370 1_545 S
C347 H361 0.931 . S
C348 C344 1.328 . S
C348 C349 1.433 . S
C348 H362 0.931 . S
C349 C345 1.323 . S
C349 C348 1.433 . S
C349 H363 0.933 . S
C350 Dy328 2.738 . S
C350 O333 1.255 1_565 S
C350 O334 1.249 . S
C350 C344 1.516 . S
C351 O335 1.254 . S
C351 O336 1.257 . S
C352 O337 1.266 . S
C352 O338 1.236 1_545 S
C353 C356 1.307 1_545 S
C353 C357 1.328 . S
C353 C359 1.516 . S
C354 C355 1.320 . S
C354 C358 1.323 . S
C355 C354 1.320 . S
C355 C356 1.364 1_545 S
C355 H364 0.917 1_545 S
C356 C353 1.307 1_565 S
C356 C355 1.364 1_565 S
C356 H365 0.975 . S
C357 C353 1.328 . S
C357 C358 1.433 . S
C357 H366 0.931 . S
C358 C354 1.323 . S
C358 C357 1.433 . S
C358 H367 0.933 . S
C359 Dy329 2.738 . S
C359 O339 1.255 1_545 S
C359 O340 1.249 . S
C359 C353 1.516 . S
H360 C346 0.927 1_545 S
H361 C347 0.931 . S
H362 C348 0.931 . S
H363 C349 0.933 . S
H364 C355 0.917 1_565 S
H365 C356 0.975 . S
H366 C357 0.931 . S
H367 C358 0.933 . S
Dy368 O371 2.307 . S
Dy368 O373 2.395 . S
Dy368 O374 2.379 . S
Dy368 O376 2.339 . S
Dy368 O378 2.298 . S
Dy368 O382 2.275 . S
Dy368 C390 2.738 . S
Dy369 O372 2.298 . S
Dy369 O375 2.275 . S
Dy369 O377 2.307 . S
Dy369 O379 2.395 . S
Dy369 O380 2.379 . S
Dy369 O383 2.339 . S
Dy369 C399 2.738 . S
C370 O382 1.254 . S
C370 O383 1.257 . S
O371 Dy368 2.307 . S
O371 C381 1.266 . S
O372 Dy369 2.298 . S
O372 C381 1.236 . S
O373 Dy368 2.395 . S
O373 C390 1.255 . S
O374 Dy368 2.379 . S
O374 C390 1.249 . S
O375 Dy369 2.275 . S
O375 C391 1.254 . S
O376 Dy368 2.339 . S
O376 C391 1.257 . S
O377 Dy369 2.307 . S
O377 C392 1.266 . S
O378 Dy368 2.298 . S
O378 C392 1.236 . S
O379 Dy369 2.395 . S
O379 C399 1.255 . S
O380 Dy369 2.379 . S
O380 C399 1.249 . S
C381 O371 1.266 . S
C381 O372 1.236 . S
O382 Dy368 2.275 . S
O382 C370 1.254 . S
O383 Dy369 2.339 . S
O383 C370 1.257 . S
C384 C387 1.344 . S
C384 C388 1.328 . S
C384 C390 1.516 . S
C385 C386 1.304 . S
C385 C389 1.323 . S
C386 C385 1.304 . S
C386 C387 1.371 . S
C386 H400 0.930 . S
C387 C384 1.344 . S
C387 C386 1.371 . S
C387 H401 0.931 . S
C388 C384 1.328 . S
C388 C389 1.433 . S
C388 H402 0.931 . S
C389 C385 1.323 . S
C389 C388 1.433 . S
C389 H403 0.933 . S
C390 Dy368 2.738 . S
C390 O373 1.255 . S
C390 O374 1.249 . S
C390 C384 1.516 . S
C391 O375 1.254 . S
C391 O376 1.257 . S
C392 O377 1.266 . S
C392 O378 1.236 . S
C393 C396 1.344 . S
C393 C397 1.328 . S
C393 C399 1.516 . S
C394 C395 1.304 . S
C394 C398 1.323 . S
C395 C394 1.304 . S
C395 C396 1.371 . S
C395 H404 0.930 . S
C396 C393 1.344 . S
C396 C395 1.371 . S
C396 H405 0.931 . S
C397 C393 1.328 . S
C397 C398 1.433 . S
C397 H406 0.931 . S
C398 C394 1.323 . S
C398 C397 1.433 . S
C398 H407 0.933 . S
C399 Dy369 2.738 . S
C399 O379 1.255 . S
C399 O380 1.249 . S
C399 C393 1.516 . S
H400 C386 0.930 . S
H401 C387 0.931 . S
H402 C388 0.931 . S
H403 C389 0.933 . S
H404 C395 0.930 . S
H405 C396 0.931 . S
H406 C397 0.931 . S
H407 C398 0.933 . S
Dy408 O411 2.307 1_455 S
Dy408 O413 2.395 . S
Dy408 O414 2.379 . S
Dy408 O416 2.339 . S
Dy408 O418 2.298 . S
Dy408 O422 2.275 . S
Dy408 C430 2.738 . S
Dy409 O412 2.298 . S
Dy409 O415 2.273 . S
Dy409 O417 2.307 1_655 S
Dy409 O419 2.395 . S
Dy409 O420 2.379 . S
Dy409 O423 2.339 . S
Dy409 C439 2.738 . S
C410 O422 1.254 . S
C410 O423 1.257 1_455 S
O411 Dy408 2.307 1_655 S
O411 C421 1.266 . S
O412 Dy409 2.298 . S
O412 C421 1.236 . S
O413 Dy408 2.395 . S
O413 C430 1.255 . S
O414 Dy408 2.379 . S
O414 C430 1.249 . S
O415 Dy409 2.273 . S
O415 C431 1.256 1_655 S
O416 Dy408 2.339 . S
O416 C431 1.257 . S
O417 Dy409 2.307 1_455 S
O417 C432 1.266 . S
O418 Dy408 2.298 . S
O418 C432 1.236 . S
O419 Dy409 2.395 . S
O419 C439 1.255 . S
O420 Dy409 2.379 . S
O420 C439 1.249 . S
C421 O411 1.266 . S
C421 O412 1.236 . S
O422 Dy408 2.275 . S
O422 C410 1.254 . S
O423 Dy409 2.339 . S
O423 C410 1.257 1_655 S
C424 C427 1.344 . S
C424 C428 1.328 . S
C424 C430 1.516 . S
C425 C426 1.304 . S
C425 C429 1.323 . S
C426 C425 1.304 . S
C426 C427 1.371 . S
C426 H440 0.930 . S
C427 C424 1.344 . S
C427 C426 1.371 . S
C427 H441 0.931 . S
C428 C424 1.328 . S
C428 C429 1.433 . S
C428 H442 0.931 . S
C429 C425 1.323 . S
C429 C428 1.433 . S
C429 H443 0.933 . S
C430 Dy408 2.738 . S
C430 O413 1.255 . S
C430 O414 1.249 . S
C430 C424 1.516 . S
C431 O415 1.256 1_455 S
C431 O416 1.257 . S
C432 O417 1.266 . S
C432 O418 1.236 . S
C433 C436 1.344 . S
C433 C437 1.328 . S
C433 C439 1.516 . S
C434 C435 1.304 . S
C434 C438 1.323 . S
C435 C434 1.304 . S
C435 C436 1.371 . S
C435 H444 0.930 . S
C436 C433 1.344 . S
C436 C435 1.371 . S
C436 H445 0.931 . S
C437 C433 1.328 . S
C437 C438 1.433 . S
C437 H446 0.931 . S
C438 C434 1.323 . S
C438 C437 1.433 . S
C438 H447 0.933 . S
C439 Dy409 2.738 . S
C439 O419 1.255 . S
C439 O420 1.249 . S
C439 C433 1.516 . S
H440 C426 0.930 . S
H441 C427 0.931 . S
H442 C428 0.931 . S
H443 C429 0.933 . S
H444 C435 0.930 . S
H445 C436 0.931 . S
H446 C437 0.931 . S
H447 C438 0.933 . S
C448 C449 1.350 1_565 S
C448 C450 1.327 . S
C448 H473 0.950 . S
C449 C448 1.350 1_545 S
C449 C465 1.348 . S
C450 C448 1.327 . S
C450 C469 1.432 1_565 S
C450 H474 0.950 . S
C451 C468 1.574 . S
C451 C470 1.373 1_545 S
C451 H475 0.949 . S
H452 C456 0.949 . S
C453 C454 1.346 1_545 S
C453 C455 1.327 . S
C453 H476 0.950 . S
C454 C453 1.346 1_565 S
C454 C466 1.352 . S
C455 C453 1.327 . S
C455 C471 1.429 1_545 S
C455 H477 0.950 . S
C456 H452 0.949 . S
C456 C464 1.574 . S
C456 C472 1.367 . S
H457 C465 0.950 . S
H458 C463 0.950 . S
H459 C464 0.949 . S
H460 C466 0.950 . S
H461 C467 0.950 . S
H462 C468 0.949 . S
C463 H458 0.950 . S
C463 C465 1.327 . S
C463 C469 1.424 . S
C464 C456 1.574 . S
C464 H459 0.949 . S
C464 C470 1.363 . S
C465 C449 1.348 . S
C465 H457 0.950 . S
C465 C463 1.327 . S
C466 C454 1.352 . S
C466 H460 0.950 . S
C466 C467 1.327 . S
C467 H461 0.950 . S
C467 C466 1.327 . S
C467 C471 1.428 . S
C468 C451 1.574 . S
C468 H462 0.949 . S
C468 C472 1.370 1_545 S
C469 C450 1.432 1_545 S
C469 C463 1.424 . S
C469 C470 1.524 1_545 S
C470 C451 1.373 1_565 S
C470 C464 1.363 . S
C470 C469 1.524 1_565 S
C471 C455 1.429 1_565 S
C471 C467 1.428 . S
C471 C472 1.523 . S
C472 C456 1.367 . S
C472 C468 1.370 1_565 S
C472 C471 1.523 . S
H473 C448 0.950 . S
H474 C450 0.950 . S
H475 C451 0.949 . S
H476 C453 0.950 . S
H477 C455 0.950 . S
C478 C479 1.349 . S
C478 C480 1.327 . S
C478 H503 0.950 . S
C479 C478 1.349 . S
C479 C495 1.349 . S
C480 C478 1.327 . S
C480 C499 1.429 . S
C480 H504 0.950 . S
C481 C498 1.574 . S
C481 C500 1.368 . S
C481 H505 0.949 . S
H482 C486 0.949 . S
C483 C484 1.349 . S
C483 C485 1.327 . S
C483 H506 0.950 . S
C484 C483 1.349 . S
C484 C496 1.349 . S
C485 C483 1.327 . S
C485 C501 1.429 . S
C485 H507 0.950 . S
C486 H482 0.949 . S
C486 C494 1.574 . S
C486 C502 1.368 . S
H487 C495 0.950 . S
H488 C493 0.950 . S
H489 C494 0.949 . S
H490 C496 0.950 . S
H491 C497 0.950 . S
H492 C498 0.949 . S
C493 H488 0.950 . S
C493 C495 1.327 . S
C493 C499 1.429 . S
C494 C486 1.574 . S
C494 H489 0.949 . S
C494 C500 1.368 . S
C495 C479 1.349 . S
C495 H487 0.950 . S
C495 C493 1.327 . S
C496 C484 1.349 . S
C496 H490 0.950 . S
C496 C497 1.327 . S
C497 H491 0.950 . S
C497 C496 1.327 . S
C497 C501 1.429 . S
C498 C481 1.574 . S
C498 H492 0.949 . S
C498 C502 1.368 . S
C499 C480 1.429 . S
C499 C493 1.429 . S
C499 C500 1.523 . S
C500 C481 1.368 . S
C500 C494 1.368 . S
C500 C499 1.523 . S
C501 C485 1.429 . S
C501 C497 1.429 . S
C501 C502 1.523 . S
C502 C486 1.368 . S
C502 C498 1.368 . S
C502 C501 1.523 . S
H503 C478 0.950 . S
H504 C480 0.950 . S
H505 C481 0.949 . S
H506 C483 0.950 . S
H507 C485 0.950 . S
C508 C509 1.349 . S
C508 C510 1.327 . S
C508 H533 0.950 . S
C509 C508 1.349 . S
C509 C525 1.349 . S
C510 C508 1.327 . S
C510 C529 1.429 . S
C510 H534 0.950 . S
C511 C528 1.574 . S
C511 C530 1.368 . S
C511 H535 0.949 . S
H512 C516 0.949 . S
C513 C514 1.349 . S
C513 C515 1.327 . S
C513 H536 0.950 . S
C514 C513 1.349 . S
C514 C526 1.349 . S
C515 C513 1.327 . S
C515 C531 1.429 . S
C515 H537 0.950 . S
C516 H512 0.949 . S
C516 C524 1.574 . S
C516 C532 1.368 . S
H517 C525 0.950 . S
H518 C523 0.950 . S
H519 C524 0.949 . S
H520 C526 0.950 . S
H521 C527 0.950 . S
H522 C528 0.949 . S
C523 H518 0.950 . S
C523 C525 1.327 . S
C523 C529 1.429 . S
C524 C516 1.574 . S
C524 H519 0.949 . S
C524 C530 1.368 . S
C525 C509 1.349 . S
C525 H517 0.950 . S
C525 C523 1.327 . S
C526 C514 1.349 . S
C526 H520 0.950 . S
C526 C527 1.327 . S
C527 H521 0.950 . S
C527 C526 1.327 . S
C527 C531 1.429 . S
C528 C511 1.574 . S
C528 H522 0.949 . S
C528 C532 1.368 . S
C529 C510 1.429 . S
C529 C523 1.429 . S
C529 C530 1.523 . S
C530 C511 1.368 . S
C530 C524 1.368 . S
C530 C529 1.523 . S
C531 C515 1.429 . S
C531 C527 1.429 . S
C531 C532 1.523 . S
C532 C516 1.368 . S
C532 C528 1.368 . S
C532 C531 1.523 . S
H533 C508 0.950 . S
H534 C510 0.950 . S
H535 C511 0.949 . S
H536 C513 0.950 . S
H537 C515 0.950 . S
C538 C539 1.349 . S
C538 C540 1.327 . S
C538 H563 0.950 . S
C539 C538 1.349 . S
C539 C555 1.349 . S
C540 C538 1.327 . S
C540 C559 1.429 . S
C540 H564 0.950 . S
C541 C558 1.574 . S
C541 C560 1.368 . S
C541 H565 0.949 . S
H542 C546 0.949 . S
C543 C544 1.353 . S
C543 C545 1.327 . S
C543 H566 0.946 1_455 S
C544 C543 1.353 . S
C544 C556 1.349 . S
C545 C543 1.327 . S
C545 C561 1.429 . S
C545 H567 0.950 1_455 S
C546 H542 0.949 . S
C546 C554 1.574 . S
C546 C562 1.368 . S
H547 C555 0.950 . S
H548 C553 0.950 . S
H549 C554 0.949 . S
H550 C556 0.950 . S
H551 C557 0.950 . S
H552 C558 0.949 1_655 S
C553 H548 0.950 . S
C553 C555 1.327 . S
C553 C559 1.429 . S
C554 C546 1.574 . S
C554 H549 0.949 . S
C554 C560 1.368 . S
C555 C539 1.349 . S
C555 H547 0.950 . S
C555 C553 1.327 . S
C556 C544 1.349 . S
C556 H550 0.950 . S
C556 C557 1.327 . S
C557 H551 0.950 . S
C557 C556 1.327 . S
C557 C561 1.429 . S
C558 C541 1.574 . S
C558 H552 0.949 1_455 S
C558 C562 1.368 . S
C559 C540 1.429 . S
C559 C553 1.429 . S
C559 C560 1.523 . S
C560 C541 1.368 . S
C560 C554 1.368 . S
C560 C559 1.523 . S
C561 C545 1.429 . S
C561 C557 1.429 . S
C561 C562 1.523 . S
C562 C546 1.368 . S
C562 C558 1.368 . S
C562 C561 1.523 . S
H563 C538 0.950 . S
H564 C540 0.950 . S
H565 C541 0.949 . S
H566 C543 0.946 1_655 S
H567 C545 0.950 1_655 S
C568 C569 1.348 1_565 S
C568 C570 1.327 . S
C568 H593 0.950 . S
C569 C568 1.348 1_545 S
C569 C585 1.350 . S
C570 C568 1.327 . S
C570 C589 1.425 1_565 S
C570 H594 0.950 . S
C571 C588 1.574 . S
C571 C590 1.374 . S
C571 H595 0.949 1_556 S
H572 C576 0.949 . S
C573 C574 1.361 . S
C573 C575 1.327 . S
C573 H596 0.950 . S
C574 C573 1.361 . S
C574 C586 1.335 1_545 S
C575 C573 1.327 . S
C575 C591 1.439 . S
C575 H597 0.950 . S
C576 H572 0.949 . S
C576 C584 1.574 . S
C576 C592 1.359 1_565 S
H577 C585 0.950 . S
H578 C583 0.950 . S
H579 C584 0.949 . S
H580 C586 0.950 . S
H581 C587 0.950 . S
H582 C588 0.949 . S
C583 H578 0.950 . S
C583 C585 1.327 . S
C583 C589 1.432 . S
C584 C576 1.574 . S
C584 H579 0.949 . S
C584 C590 1.363 1_565 S
C585 C569 1.350 . S
C585 H577 0.950 . S
C585 C583 1.327 . S
C586 C574 1.335 1_565 S
C586 H580 0.950 . S
C586 C587 1.327 . S
C587 H581 0.950 . S
C587 C586 1.327 . S
C587 C591 1.419 1_565 S
C588 C571 1.574 . S
C588 H582 0.949 . S
C588 C592 1.377 . S
C589 C570 1.425 1_545 S
C589 C583 1.432 . S
C589 C590 1.523 1_554 S
C590 C571 1.374 . S
C590 C584 1.363 1_545 S
C590 C589 1.523 1_556 S
C591 C575 1.439 . S
C591 C587 1.419 1_545 S
C591 C592 1.523 . S
C592 C576 1.359 1_545 S
C592 C588 1.377 . S
C592 C591 1.523 . S
H593 C568 0.950 . S
H594 C570 0.950 . S
H595 C571 0.949 1_554 S
H596 C573 0.950 . S
H597 C575 0.950 . S
C598 C599 1.349 . S
C598 C600 1.327 . S
C598 H623 0.950 . S
C599 C598 1.349 . S
C599 C615 1.349 . S
C600 C598 1.327 . S
C600 C619 1.429 . S
C600 H624 0.950 . S
C601 C618 1.574 . S
C601 C620 1.368 . S
C601 H625 0.949 . S
H602 C606 0.949 . S
C603 C604 1.349 . S
C603 C605 1.327 . S
C603 H626 0.950 . S
C604 C603 1.349 . S
C604 C616 1.349 . S
C605 C603 1.327 . S
C605 C621 1.429 . S
C605 H627 0.950 . S
C606 H602 0.949 . S
C606 C614 1.574 . S
C606 C622 1.368 . S
H607 C615 0.950 . S
H608 C613 0.950 . S
H609 C614 0.949 . S
H610 C616 0.950 . S
H611 C617 0.950 . S
H612 C618 0.949 . S
C613 H608 0.950 . S
C613 C615 1.327 . S
C613 C619 1.429 . S
C614 C606 1.574 . S
C614 H609 0.949 . S
C614 C620 1.368 . S
C615 C599 1.349 . S
C615 H607 0.950 . S
C615 C613 1.327 . S
C616 C604 1.349 . S
C616 H610 0.950 . S
C616 C617 1.327 . S
C617 H611 0.950 . S
C617 C616 1.327 . S
C617 C621 1.429 . S
C618 C601 1.574 . S
C618 H612 0.949 . S
C618 C622 1.368 . S
C619 C600 1.429 . S
C619 C613 1.429 . S
C619 C620 1.523 . S
C620 C601 1.368 . S
C620 C614 1.368 . S
C620 C619 1.523 . S
C621 C605 1.429 . S
C621 C617 1.429 . S
C621 C622 1.523 . S
C622 C606 1.368 . S
C622 C618 1.368 . S
C622 C621 1.523 . S
H623 C598 0.950 . S
H624 C600 0.950 . S
H625 C601 0.949 . S
H626 C603 0.950 . S
H627 C605 0.950 . S
C628 C629 1.349 . S
C628 C630 1.327 . S
C628 H653 0.950 . S
C629 C628 1.349 . S
C629 C645 1.349 . S
C630 C628 1.327 . S
C630 C649 1.429 . S
C630 H654 0.950 . S
C631 C648 1.574 . S
C631 C650 1.368 . S
C631 H655 0.949 . S
H632 C636 0.949 . S
C633 C634 1.349 . S
C633 C635 1.327 . S
C633 H656 0.950 . S
C634 C633 1.349 . S
C634 C646 1.349 . S
C635 C633 1.327 . S
C635 C651 1.429 1_556 S
C635 H657 0.950 . S
C636 H632 0.949 . S
C636 C644 1.574 . S
C636 C652 1.368 . S
H637 C645 0.950 . S
H638 C643 0.950 . S
H639 C644 0.949 . S
H640 C646 0.950 . S
H641 C647 0.950 1_554 S
H642 C648 0.949 . S
C643 H638 0.950 . S
C643 C645 1.327 . S
C643 C649 1.429 . S
C644 C636 1.574 . S
C644 H639 0.949 . S
C644 C650 1.368 . S
C645 C629 1.349 . S
C645 H637 0.950 . S
C645 C643 1.327 . S
C646 C634 1.349 . S
C646 H640 0.950 . S
C646 C647 1.327 . S
C647 H641 0.950 1_556 S
C647 C646 1.327 . S
C647 C651 1.429 1_556 S
C648 C631 1.574 . S
C648 H642 0.949 . S
C648 C652 1.368 . S
C649 C630 1.429 . S
C649 C643 1.429 . S
C649 C650 1.523 . S
C650 C631 1.368 . S
C650 C644 1.368 . S
C650 C649 1.523 . S
C651 C635 1.429 1_554 S
C651 C647 1.429 1_554 S
C651 C652 1.523 . S
C652 C636 1.368 . S
C652 C648 1.368 . S
C652 C651 1.523 . S
H653 C628 0.950 . S
H654 C630 0.950 . S
H655 C631 0.949 . S
H656 C633 0.950 . S
H657 C635 0.950 . S
C658 C659 1.349 . S
C658 C660 1.327 . S
C658 H683 0.950 . S
C659 C658 1.349 . S
C659 C675 1.349 . S
C660 C658 1.327 . S
C660 C679 1.429 . S
C660 H684 0.950 . S
C661 C678 1.574 . S
C661 C680 1.368 1_556 S
C661 H685 0.949 . S
H662 C666 0.949 . S
C663 C664 1.340 1_455 S
C663 C665 1.327 1_455 S
C663 H686 0.950 . S
C664 C663 1.340 1_655 S
C664 C676 1.357 . S
C665 C663 1.327 1_655 S
C665 C681 1.429 . S
C665 H687 0.957 . S
C666 H662 0.949 . S
C666 C674 1.574 1_556 S
C666 C682 1.368 . S
H667 C675 0.950 . S
H668 C673 0.950 . S
H669 C674 0.949 . S
H670 C676 0.950 . S
H671 C677 0.950 . S
H672 C678 0.949 . S
C673 H668 0.950 . S
C673 C675 1.327 . S
C673 C679 1.429 . S
C674 C666 1.574 1_554 S
C674 H669 0.949 . S
C674 C680 1.368 . S
C675 C659 1.349 . S
C675 H667 0.950 . S
C675 C673 1.327 . S
C676 C664 1.357 . S
C676 H670 0.950 . S
C676 C677 1.327 . S
C677 H671 0.950 . S
C677 C676 1.327 . S
C677 C681 1.429 . S
C678 C661 1.574 . S
C678 H672 0.949 . S
C678 C682 1.368 . S
C679 C660 1.429 . S
C679 C673 1.429 . S
C679 C680 1.523 . S
C680 C661 1.368 1_554 S
C680 C674 1.368 . S
C680 C679 1.523 . S
C681 C665 1.429 . S
C681 C677 1.429 . S
C681 C682 1.523 . S
C682 C666 1.368 . S
C682 C678 1.368 . S
C682 C681 1.523 . S
H683 C658 0.950 . S
H684 C660 0.950 . S
H685 C661 0.949 . S
H686 C663 0.950 . S
H687 C665 0.957 . S
C688 C689 1.349 . S
C688 C690 1.327 . S
C688 H713 0.950 . S
C689 C688 1.349 . S
C689 C705 1.349 . S
C690 C688 1.327 . S
C690 C709 1.429 . S
C690 H714 0.950 1_455 S
C691 C708 1.574 . S
C691 C710 1.368 . S
C691 H715 0.949 . S
H692 C696 0.949 . S
C693 C694 1.349 1_455 S
C693 C695 1.327 . S
C693 H716 0.950 . S
C694 C693 1.349 1_655 S
C694 C706 1.349 . S
C695 C693 1.327 . S
C695 C711 1.429 1_455 S
C695 H717 0.950 . S
C696 H692 0.949 . S
C696 C704 1.574 . S
C696 C712 1.368 1_655 S
H697 C705 0.950 . S
H698 C703 0.950 . S
H699 C704 0.949 . S
H700 C706 0.950 . S
H701 C707 0.950 . S
H702 C708 0.949 . S
C703 H698 0.950 . S
C703 C705 1.327 . S
C703 C709 1.429 . S
C704 C696 1.574 . S
C704 H699 0.949 . S
C704 C710 1.368 1_655 S
C705 C689 1.349 . S
C705 H697 0.950 . S
C705 C703 1.327 . S
C706 C694 1.349 . S
C706 H700 0.950 . S
C706 C707 1.327 . S
C707 H701 0.950 . S
C707 C706 1.327 . S
C707 C711 1.429 . S
C708 C691 1.574 . S
C708 H702 0.949 . S
C708 C712 1.368 . S
C709 C690 1.429 . S
C709 C703 1.429 . S
C709 C710 1.523 . S
C710 C691 1.368 . S
C710 C704 1.368 1_455 S
C710 C709 1.523 . S
C711 C695 1.429 1_655 S
C711 C707 1.429 . S
C711 C712 1.523 1_655 S
C712 C696 1.368 1_455 S
C712 C708 1.368 . S
C712 C711 1.523 1_455 S
H713 C688 0.950 . S
H714 C690 0.950 1_655 S
H715 C691 0.949 . S
H716 C693 0.950 . S
H717 C695 0.950 . S
C718 C719 1.366 . S
C718 C720 1.327 . S
C718 H743 0.950 . S
C719 C718 1.366 . S
C719 C735 1.331 1_545 S
C720 C718 1.327 . S
C720 C739 1.429 1_545 S
C720 H744 0.950 . S
C721 C738 1.574 . S
C721 C740 1.368 . S
C721 H745 0.949 . S
H722 C726 0.949 . S
C723 C724 1.349 . S
C723 C725 1.327 . S
C723 H746 0.950 . S
C724 C723 1.349 . S
C724 C736 1.349 . S
C725 C723 1.327 . S
C725 C741 1.429 . S
C725 H747 0.950 . S
C726 H722 0.949 . S
C726 C734 1.574 . S
C726 C742 1.368 . S
H727 C735 0.950 . S
H728 C733 0.950 . S
H729 C734 0.949 1_545 S
H730 C736 0.950 . S
H731 C737 0.950 . S
H732 C738 0.949 . S
C733 H728 0.950 . S
C733 C735 1.327 . S
C733 C739 1.429 . S
C734 C726 1.574 . S
C734 H729 0.949 1_565 S
C734 C740 1.368 . S
C735 C719 1.331 1_565 S
C735 H727 0.950 . S
C735 C733 1.327 . S
C736 C724 1.349 . S
C736 H730 0.950 . S
C736 C737 1.327 . S
C737 H731 0.950 . S
C737 C736 1.327 . S
C737 C741 1.429 . S
C738 C721 1.574 . S
C738 H732 0.949 . S
C738 C742 1.368 . S
C739 C720 1.429 1_565 S
C739 C733 1.429 . S
C739 C740 1.523 . S
C740 C721 1.368 . S
C740 C734 1.368 . S
C740 C739 1.523 . S
C741 C725 1.429 . S
C741 C737 1.429 . S
C741 C742 1.523 . S
C742 C726 1.368 . S
C742 C738 1.368 . S
C742 C741 1.523 . S
H743 C718 0.950 . S
H744 C720 0.950 . S
H745 C721 0.949 . S
H746 C723 0.950 . S
H747 C725 0.950 . S
C748 C749 1.349 . S
C748 C750 1.327 . S
C748 H773 0.950 . S
C749 C748 1.349 . S
C749 C765 1.349 . S
C750 C748 1.327 . S
C750 C769 1.429 . S
C750 H774 0.950 . S
C751 C768 1.574 . S
C751 C770 1.368 . S
C751 H775 0.949 . S
H752 C756 0.949 . S
C753 C754 1.349 . S
C753 C755 1.327 . S
C753 H776 0.950 . S
C754 C753 1.349 . S
C754 C766 1.349 . S
C755 C753 1.327 . S
C755 C771 1.429 . S
C755 H777 0.950 . S
C756 H752 0.949 . S
C756 C764 1.574 . S
C756 C772 1.368 . S
H757 C765 0.950 . S
H758 C763 0.950 . S
H759 C764 0.949 . S
H760 C766 0.950 . S
H761 C767 0.950 . S
H762 C768 0.949 . S
C763 H758 0.950 . S
C763 C765 1.327 . S
C763 C769 1.429 . S
C764 C756 1.574 . S
C764 H759 0.949 . S
C764 C770 1.368 . S
C765 C749 1.349 . S
C765 H757 0.950 . S
C765 C763 1.327 . S
C766 C754 1.349 . S
C766 H760 0.950 . S
C766 C767 1.327 . S
C767 H761 0.950 . S
C767 C766 1.327 . S
C767 C771 1.429 . S
C768 C751 1.574 . S
C768 H762 0.949 . S
C768 C772 1.368 . S
C769 C750 1.429 . S
C769 C763 1.429 . S
C769 C770 1.523 . S
C770 C751 1.368 . S
C770 C764 1.368 . S
C770 C769 1.523 . S
C771 C755 1.429 . S
C771 C767 1.429 . S
C771 C772 1.523 . S
C772 C756 1.368 . S
C772 C768 1.368 . S
C772 C771 1.523 . S
H773 C748 0.950 . S
H774 C750 0.950 . S
H775 C751 0.949 . S
H776 C753 0.950 . S
H777 C755 0.950 . S
C778 C779 1.349 . S
C778 C780 1.327 . S
C778 H803 0.950 . S
C779 C778 1.349 . S
C779 C795 1.349 . S
C780 C778 1.327 . S
C780 C799 1.429 . S
C780 H804 0.950 . S
C781 C798 1.574 . S
C781 C800 1.368 . S
C781 H805 0.949 . S
H782 C786 0.949 . S
C783 C784 1.349 . S
C783 C785 1.327 . S
C783 H806 0.950 . S
C784 C783 1.349 . S
C784 C796 1.349 . S
C785 C783 1.327 . S
C785 C801 1.429 . S
C785 H807 0.950 . S
C786 H782 0.949 . S
C786 C794 1.574 . S
C786 C802 1.368 . S
H787 C795 0.950 . S
H788 C793 0.950 . S
H789 C794 0.949 . S
H790 C796 0.950 . S
H791 C797 0.950 . S
H792 C798 0.949 . S
C793 H788 0.950 . S
C793 C795 1.327 . S
C793 C799 1.429 . S
C794 C786 1.574 . S
C794 H789 0.949 . S
C794 C800 1.368 . S
C795 C779 1.349 . S
C795 H787 0.950 . S
C795 C793 1.327 . S
C796 C784 1.349 . S
C796 H790 0.950 . S
C796 C797 1.327 . S
C797 H791 0.950 . S
C797 C796 1.327 . S
C797 C801 1.429 . S
C798 C781 1.574 . S
C798 H792 0.949 . S
C798 C802 1.368 . S
C799 C780 1.429 . S
C799 C793 1.429 . S
C799 C800 1.523 . S
C800 C781 1.368 . S
C800 C794 1.368 . S
C800 C799 1.523 . S
C801 C785 1.429 . S
C801 C797 1.429 . S
C801 C802 1.523 . S
C802 C786 1.368 . S
C802 C798 1.368 . S
C802 C801 1.523 . S
H803 C778 0.950 . S
H804 C780 0.950 . S
H805 C781 0.949 . S
H806 C783 0.950 . S
H807 C785 0.950 . S
C808 C809 1.349 . S
C808 C810 1.326 1_655 S
C808 H833 0.950 1_655 S
C809 C808 1.349 . S
C809 C825 1.349 . S
C810 C808 1.326 1_455 S
C810 C829 1.426 1_455 S
C810 H834 0.953 . S
C811 C828 1.574 . S
C811 C830 1.368 1_556 S
C811 H835 0.949 . S
H812 C816 0.948 1_554 S
C813 C814 1.349 . S
C813 C815 1.314 1_455 S
C813 H836 0.950 1_455 S
C814 C813 1.349 . S
C814 C826 1.349 . S
C815 C813 1.314 1_655 S
C815 C831 1.398 1_655 S
C815 H837 0.996 . S
C816 H812 0.948 1_556 S
C816 C824 1.570 1_556 S
C816 C832 1.373 . S
H817 C825 0.950 . S
H818 C823 0.950 . S
H819 C824 0.949 . S
H820 C826 0.950 . S
H821 C827 0.950 . S
H822 C828 0.949 . S
C823 H818 0.950 . S
C823 C825 1.327 . S
C823 C829 1.429 . S
C824 C816 1.570 1_554 S
C824 H819 0.949 . S
C824 C830 1.368 1_455 S
C825 C809 1.349 . S
C825 H817 0.950 . S
C825 C823 1.327 . S
C826 C814 1.349 . S
C826 H820 0.950 . S
C826 C827 1.327 . S
C827 H821 0.950 . S
C827 C826 1.327 . S
C827 C831 1.429 . S
C828 C811 1.574 . S
C828 H822 0.949 . S
C828 C832 1.368 1_655 S
C829 C810 1.426 1_655 S
C829 C823 1.429 . S
C829 C830 1.523 . S
C830 C811 1.368 1_554 S
C830 C824 1.368 1_655 S
C830 C829 1.523 . S
C831 C815 1.398 1_455 S
C831 C827 1.429 . S
C831 C832 1.523 . S
C832 C816 1.373 . S
C832 C828 1.368 1_455 S
C832 C831 1.523 . S
H833 C808 0.950 1_455 S
H834 C810 0.953 . S
H835 C811 0.949 . S
H836 C813 0.950 1_655 S
H837 C815 0.996 . S
C838 C839 1.315 1_545 S
C838 C840 1.327 1_554 S
C838 H863 0.950 . S
C839 C838 1.315 1_565 S
C839 C855 1.381 . S
C840 C838 1.327 1_556 S
C840 C859 1.429 1_556 S
C840 H864 0.950 . S
C841 C858 1.574 . S
C841 C860 1.368 1_565 S
C841 H865 0.949 1_556 S
H842 C846 0.949 . S
C843 C844 1.349 . S
C843 C845 1.327 . S
C843 H866 0.950 1_545 S
C844 C843 1.349 . S
C844 C856 1.349 . S
C845 C843 1.327 . S
C845 C861 1.429 . S
C845 H867 0.950 1_545 S
C846 H842 0.949 . S
C846 C854 1.574 . S
C846 C862 1.368 . S
H847 C855 0.950 . S
H848 C853 0.950 . S
H849 C854 0.949 . S
H850 C856 0.950 . S
H851 C857 0.950 . S
H852 C858 0.949 . S
C853 H848 0.950 . S
C853 C855 1.327 . S
C853 C859 1.429 1_565 S
C854 C846 1.574 . S
C854 H849 0.949 . S
C854 C860 1.368 . S
C855 C839 1.381 . S
C855 H847 0.950 . S
C855 C853 1.327 . S
C856 C844 1.349 . S
C856 H850 0.950 . S
C856 C857 1.327 . S
C857 H851 0.950 . S
C857 C856 1.327 . S
C857 C861 1.429 . S
C858 C841 1.574 . S
C858 H852 0.949 . S
C858 C862 1.368 1_565 S
C859 C840 1.429 1_554 S
C859 C853 1.429 1_545 S
C859 C860 1.523 1_554 S
C860 C841 1.368 1_545 S
C860 C854 1.368 . S
C860 C859 1.523 1_556 S
C861 C845 1.429 . S
C861 C857 1.429 . S
C861 C862 1.523 . S
C862 C846 1.368 . S
C862 C858 1.368 1_545 S
C862 C861 1.523 . S
H863 C838 0.950 . S
H864 C840 0.950 . S
H865 C841 0.949 1_554 S
H866 C843 0.950 1_565 S
H867 C845 0.950 1_565 S
C868 C869 1.349 . S
C868 C870 1.327 . S
C868 H893 0.950 . S
C869 C868 1.349 . S
C869 C885 1.349 . S
C870 C868 1.327 . S
C870 C889 1.429 . S
C870 H894 0.950 . S
C871 C888 1.574 . S
C871 C890 1.368 . S
C871 H895 0.949 . S
H872 C876 0.949 . S
C873 C874 1.349 . S
C873 C875 1.327 . S
C873 H896 0.950 . S
C874 C873 1.349 . S
C874 C886 1.349 . S
C875 C873 1.327 . S
C875 C891 1.429 . S
C875 H897 0.950 . S
C876 H872 0.949 . S
C876 C884 1.574 . S
C876 C892 1.368 . S
H877 C885 0.950 . S
H878 C883 0.950 . S
H879 C884 0.949 . S
H880 C886 0.950 . S
H881 C887 0.950 . S
H882 C888 0.949 . S
C883 H878 0.950 . S
C883 C885 1.327 . S
C883 C889 1.429 . S
C884 C876 1.574 . S
C884 H879 0.949 . S
C884 C890 1.368 . S
C885 C869 1.349 . S
C885 H877 0.950 . S
C885 C883 1.327 . S
C886 C874 1.349 . S
C886 H880 0.950 . S
C886 C887 1.327 . S
C887 H881 0.950 . S
C887 C886 1.327 . S
C887 C891 1.429 . S
C888 C871 1.574 . S
C888 H882 0.949 . S
C888 C892 1.368 . S
C889 C870 1.429 . S
C889 C883 1.429 . S
C889 C890 1.523 . S
C890 C871 1.368 . S
C890 C884 1.368 . S
C890 C889 1.523 . S
C891 C875 1.429 . S
C891 C887 1.429 . S
C891 C892 1.523 . S
C892 C876 1.368 . S
C892 C888 1.368 . S
C892 C891 1.523 . S
H893 C868 0.950 . S
H894 C870 0.950 . S
H895 C871 0.949 . S
H896 C873 0.950 . S
H897 C875 0.950 . S
C898 C899 1.349 . S
C898 C900 1.327 . S
C898 H923 0.950 . S
C899 C898 1.349 . S
C899 C915 1.349 . S
C900 C898 1.327 . S
C900 C919 1.429 . S
C900 H924 0.950 . S
C901 C918 1.574 . S
C901 C920 1.368 . S
C901 H925 0.949 . S
H902 C906 0.949 . S
C903 C904 1.349 . S
C903 C905 1.327 . S
C903 H926 0.950 . S
C904 C903 1.349 . S
C904 C916 1.349 . S
C905 C903 1.327 . S
C905 C921 1.429 . S
C905 H927 0.950 . S
C906 H902 0.949 . S
C906 C914 1.574 . S
C906 C922 1.368 . S
H907 C915 0.950 . S
H908 C913 0.950 . S
H909 C914 0.949 . S
H910 C916 0.950 . S
H911 C917 0.950 . S
H912 C918 0.949 . S
C913 H908 0.950 . S
C913 C915 1.327 . S
C913 C919 1.429 . S
C914 C906 1.574 . S
C914 H909 0.949 . S
C914 C920 1.368 . S
C915 C899 1.349 . S
C915 H907 0.950 . S
C915 C913 1.327 . S
C916 C904 1.349 . S
C916 H910 0.950 . S
C916 C917 1.327 . S
C917 H911 0.950 . S
C917 C916 1.327 . S
C917 C921 1.429 . S
C918 C901 1.574 . S
C918 H912 0.949 . S
C918 C922 1.368 . S
C919 C900 1.429 . S
C919 C913 1.429 . S
C919 C920 1.523 . S
C920 C901 1.368 . S
C920 C914 1.368 . S
C920 C919 1.523 . S
C921 C905 1.429 . S
C921 C917 1.429 . S
C921 C922 1.523 1_556 S
C922 C906 1.368 . S
C922 C918 1.368 . S
C922 C921 1.523 1_554 S
H923 C898 0.950 . S
H924 C900 0.950 . S
H925 C901 0.949 . S
H926 C903 0.950 . S
H927 C905 0.950 . S
C928 C929 1.349 . S
C928 C930 1.327 . S
C928 H953 0.950 . S
C929 C928 1.349 . S
C929 C945 1.349 . S
C930 C928 1.327 . S
C930 C949 1.429 . S
C930 H954 0.950 . S
C931 C948 1.574 . S
C931 C950 1.368 . S
C931 H955 0.949 . S
H932 C936 0.947 1_655 S
C933 C934 1.349 . S
C933 C935 1.327 . S
C933 H956 0.950 . S
C934 C933 1.349 . S
C934 C946 1.349 . S
C935 C933 1.327 . S
C935 C951 1.429 . S
C935 H957 0.950 . S
C936 H932 0.947 1_455 S
C936 C944 1.574 . S
C936 C952 1.368 . S
H937 C945 0.950 . S
H938 C943 0.950 . S
H939 C944 0.949 . S
H940 C946 0.950 1_655 S
H941 C947 0.950 1_655 S
H942 C948 0.949 . S
C943 H938 0.950 . S
C943 C945 1.327 . S
C943 C949 1.429 . S
C944 C936 1.574 . S
C944 H939 0.949 . S
C944 C950 1.368 . S
C945 C929 1.349 . S
C945 H937 0.950 . S
C945 C943 1.327 . S
C946 C934 1.349 . S
C946 H940 0.950 1_455 S
C946 C947 1.327 . S
C947 H941 0.950 1_455 S
C947 C946 1.327 . S
C947 C951 1.429 . S
C948 C931 1.574 . S
C948 H942 0.949 . S
C948 C952 1.368 . S
C949 C930 1.429 . S
C949 C943 1.429 . S
C949 C950 1.523 . S
C950 C931 1.368 . S
C950 C944 1.368 . S
C950 C949 1.523 . S
C951 C935 1.429 . S
C951 C947 1.429 . S
C951 C952 1.523 . S
C952 C936 1.368 . S
C952 C948 1.368 . S
C952 C951 1.523 . S
H953 C928 0.950 . S
H954 C930 0.950 . S
H955 C931 0.949 . S
H956 C933 0.950 . S
H957 C935 0.950 . S
C958 C959 1.392 . S
C958 C960 1.327 . S
C958 H983 0.950 . S
C959 C958 1.392 . S
C959 C975 1.313 1_545 S
C960 C958 1.327 . S
C960 C979 1.429 . S
C960 H984 0.950 . S
C961 C978 1.574 . S
C961 C980 1.368 1_565 S
C961 H985 0.949 . S
H962 C966 0.949 . S
C963 C964 1.349 1_565 S
C963 C965 1.327 . S
C963 H986 0.950 . S
C964 C963 1.349 1_545 S
C964 C976 1.349 . S
C965 C963 1.327 . S
C965 C981 1.429 1_565 S
C965 H987 0.950 . S
C966 H962 0.949 . S
C966 C974 1.574 . S
C966 C982 1.368 . S
H967 C975 0.950 . S
H968 C973 0.950 . S
H969 C974 0.949 . S
H970 C976 0.950 . S
H971 C977 0.950 . S
H972 C978 0.949 . S
C973 H968 0.950 . S
C973 C975 1.327 . S
C973 C979 1.429 1_565 S
C974 C966 1.574 . S
C974 H969 0.949 . S
C974 C980 1.368 . S
C975 C959 1.313 1_565 S
C975 H967 0.950 . S
C975 C973 1.327 . S
C976 C964 1.349 . S
C976 H970 0.950 . S
C976 C977 1.327 . S
C977 H971 0.950 . S
C977 C976 1.327 . S
C977 C981 1.429 . S
C978 C961 1.574 . S
C978 H972 0.949 . S
C978 C982 1.368 1_565 S
C979 C960 1.429 . S
C979 C973 1.429 1_545 S
C979 C980 1.523 . S
C980 C961 1.368 1_545 S
C980 C974 1.368 . S
C980 C979 1.523 . S
C981 C965 1.429 1_545 S
C981 C977 1.429 . S
C981 C982 1.523 . S
C982 C966 1.368 . S
C982 C978 1.368 1_545 S
C982 C981 1.523 . S
H983 C958 0.950 . S
H984 C960 0.950 . S
H985 C961 0.949 . S
H986 C963 0.950 . S
H987 C965 0.950 . S
C988 C989 1.349 . S
C988 C990 1.327 . S
C988 H1013 0.950 . S
C989 C988 1.349 . S
C989 C1005 1.349 . S
C990 C988 1.327 . S
C990 C1009 1.429 1_554 S
C990 H1014 0.950 . S
C991 C1008 1.574 . S
C991 C1010 1.368 . S
C991 H1015 0.949 . S
H992 C996 0.949 . S
C993 C994 1.349 . S
C993 C995 1.327 . S
C993 H1016 0.950 . S
C994 C993 1.349 . S
C994 C1006 1.349 . S
C995 C993 1.327 . S
C995 C1011 1.429 . S
C995 H1017 0.950 . S
C996 H992 0.949 . S
C996 C1004 1.574 . S
C996 C1012 1.368 . S
H997 C1005 0.950 . S
H998 C1003 0.950 . S
H999 C1004 0.949 1_554 S
H1000 C1006 0.950 . S
H1001 C1007 0.950 . S
H1002 C1008 0.949 . S
C1003 H998 0.950 . S
C1003 C1005 1.327 1_556 S
C1003 C1009 1.429 . S
C1004 C996 1.574 . S
C1004 H999 0.949 1_556 S
C1004 C1010 1.368 . S
C1005 C989 1.349 . S
C1005 H997 0.950 . S
C1005 C1003 1.327 1_554 S
C1006 C994 1.349 . S
C1006 H1000 0.950 . S
C1006 C1007 1.327 . S
C1007 H1001 0.950 . S
C1007 C1006 1.327 . S
C1007 C1011 1.429 . S
C1008 C991 1.574 . S
C1008 H1002 0.949 . S
C1008 C1012 1.368 . S
C1009 C990 1.429 1_556 S
C1009 C1003 1.429 . S
C1009 C1010 1.523 . S
C1010 C991 1.368 . S
C1010 C1004 1.368 . S
C1010 C1009 1.523 . S
C1011 C995 1.429 . S
C1011 C1007 1.429 . S
C1011 C1012 1.523 . S
C1012 C996 1.368 . S
C1012 C1008 1.368 . S
C1012 C1011 1.523 . S
H1013 C988 0.950 . S
H1014 C990 0.950 . S
H1015 C991 0.949 . S
H1016 C993 0.950 . S
H1017 C995 0.950 . S
C1018 C1019 1.349 . S
C1018 C1020 1.327 . S
C1018 H1043 0.950 . S
C1019 C1018 1.349 . S
C1019 C1035 1.349 . S
C1020 C1018 1.327 . S
C1020 C1039 1.429 . S
C1020 H1044 0.950 . S
C1021 C1038 1.574 . S
C1021 C1040 1.368 . S
C1021 H1045 0.949 . S
H1022 C1026 0.949 . S
C1023 C1024 1.349 . S
C1023 C1025 1.327 . S
C1023 H1046 0.950 . S
C1024 C1023 1.349 . S
C1024 C1036 1.349 . S
C1025 C1023 1.327 . S
C1025 C1041 1.429 . S
C1025 H1047 0.950 . S
C1026 H1022 0.949 . S
C1026 C1034 1.574 . S
C1026 C1042 1.368 . S
H1027 C1035 0.950 . S
H1028 C1033 0.950 . S
H1029 C1034 0.949 . S
H1030 C1036 0.950 . S
H1031 C1037 0.950 . S
H1032 C1038 0.949 . S
C1033 H1028 0.950 . S
C1033 C1035 1.327 . S
C1033 C1039 1.429 . S
C1034 C1026 1.574 . S
C1034 H1029 0.949 . S
C1034 C1040 1.368 . S
C1035 C1019 1.349 . S
C1035 H1027 0.950 . S
C1035 C1033 1.327 . S
C1036 C1024 1.349 . S
C1036 H1030 0.950 . S
C1036 C1037 1.327 . S
C1037 H1031 0.950 . S
C1037 C1036 1.327 . S
C1037 C1041 1.429 . S
C1038 C1021 1.574 . S
C1038 H1032 0.949 . S
C1038 C1042 1.368 . S
C1039 C1020 1.429 . S
C1039 C1033 1.429 . S
C1039 C1040 1.523 . S
C1040 C1021 1.368 . S
C1040 C1034 1.368 . S
C1040 C1039 1.523 . S
C1041 C1025 1.429 . S
C1041 C1037 1.429 . S
C1041 C1042 1.523 . S
C1042 C1026 1.368 . S
C1042 C1038 1.368 . S
C1042 C1041 1.523 . S
H1043 C1018 0.950 . S
H1044 C1020 0.950 . S
H1045 C1021 0.949 . S
H1046 C1023 0.950 . S
H1047 C1025 0.950 . S
C1048 C1049 1.349 . S
C1048 C1050 1.327 . S
C1048 H1073 0.950 . S
C1049 C1048 1.349 . S
C1049 C1065 1.349 . S
C1050 C1048 1.327 . S
C1050 C1069 1.429 . S
C1050 H1074 0.950 . S
C1051 C1068 1.574 . S
C1051 C1070 1.368 . S
C1051 H1075 0.949 1_655 S
H1052 C1056 0.949 . S
C1053 C1054 1.348 1_455 S
C1053 C1055 1.321 1_455 S
C1053 H1076 0.951 . S
C1054 C1053 1.348 1_655 S
C1054 C1066 1.349 . S
C1055 C1053 1.321 1_655 S
C1055 C1071 1.452 . S
C1055 H1077 0.933 1_655 S
C1056 H1052 0.949 . S
C1056 C1064 1.574 . S
C1056 C1072 1.368 . S
H1057 C1065 0.950 . S
H1058 C1063 0.950 1_455 S
H1059 C1064 0.949 . S
H1060 C1066 0.950 . S
H1061 C1067 0.950 . S
H1062 C1068 0.949 1_455 S
C1063 H1058 0.950 1_655 S
C1063 C1065 1.327 . S
C1063 C1069 1.429 . S
C1064 C1056 1.574 . S
C1064 H1059 0.949 . S
C1064 C1070 1.368 . S
C1065 C1049 1.349 . S
C1065 H1057 0.950 . S
C1065 C1063 1.327 . S
C1066 C1054 1.349 . S
C1066 H1060 0.950 . S
C1066 C1067 1.327 . S
C1067 H1061 0.950 . S
C1067 C1066 1.327 . S
C1067 C1071 1.429 . S
C1068 C1051 1.574 . S
C1068 H1062 0.949 1_655 S
C1068 C1072 1.368 . S
C1069 C1050 1.429 . S
C1069 C1063 1.429 . S
C1069 C1070 1.523 . S
C1070 C1051 1.368 . S
C1070 C1064 1.368 . S
C1070 C1069 1.523 . S
C1071 C1055 1.452 . S
C1071 C1067 1.429 . S
C1071 C1072 1.523 . S
C1072 C1056 1.368 . S
C1072 C1068 1.368 . S
C1072 C1071 1.523 . S
H1073 C1048 0.950 . S
H1074 C1050 0.950 . S
H1075 C1051 0.949 1_455 S
H1076 C1053 0.951 . S
H1077 C1055 0.933 1_455 S
C1078 C1079 1.386 . S
C1078 C1080 1.327 . S
C1078 H1103 0.950 . S
C1079 C1078 1.386 . S
C1079 C1095 1.317 1_565 S
C1080 C1078 1.327 . S
C1080 C1099 1.429 . S
C1080 H1104 0.950 . S
C1081 C1098 1.574 . S
C1081 C1100 1.368 1_545 S
C1081 H1105 0.949 . S
H1082 C1086 0.949 . S
C1083 C1084 1.349 1_545 S
C1083 C1085 1.327 . S
C1083 H1106 0.950 . S
C1084 C1083 1.349 1_565 S
C1084 C1096 1.349 . S
C1085 C1083 1.327 . S
C1085 C1101 1.429 1_545 S
C1085 H1107 0.950 . S
C1086 H1082 0.949 . S
C1086 C1094 1.574 . S
C1086 C1102 1.368 . S
H1087 C1095 0.950 . S
H1088 C1093 0.950 . S
H1089 C1094 0.949 . S
H1090 C1096 0.950 . S
H1091 C1097 0.950 . S
H1092 C1098 0.949 . S
C1093 H1088 0.950 . S
C1093 C1095 1.327 . S
C1093 C1099 1.429 1_545 S
C1094 C1086 1.574 . S
C1094 H1089 0.949 . S
C1094 C1100 1.368 . S
C1095 C1079 1.317 1_545 S
C1095 H1087 0.950 . S
C1095 C1093 1.327 . S
C1096 C1084 1.349 . S
C1096 H1090 0.950 . S
C1096 C1097 1.327 . S
C1097 H1091 0.950 . S
C1097 C1096 1.327 . S
C1097 C1101 1.429 . S
C1098 C1081 1.574 . S
C1098 H1092 0.949 . S
C1098 C1102 1.368 1_545 S
C1099 C1080 1.429 . S
C1099 C1093 1.429 1_565 S
C1099 C1100 1.523 . S
C1100 C1081 1.368 1_565 S
C1100 C1094 1.368 . S
C1100 C1099 1.523 . S
C1101 C1085 1.429 1_565 S
C1101 C1097 1.429 . S
C1101 C1102 1.523 . S
C1102 C1086 1.368 . S
C1102 C1098 1.368 1_565 S
C1102 C1101 1.523 . S
H1103 C1078 0.950 . S
H1104 C1080 0.950 . S
H1105 C1081 0.949 . S
H1106 C1083 0.950 . S
H1107 C1085 0.950 . S
C1108 C1109 1.349 . S
C1108 C1110 1.327 . S
C1108 H1133 0.950 . S
C1109 C1108 1.349 . S
C1109 C1125 1.349 . S
C1110 C1108 1.327 . S
C1110 C1129 1.429 . S
C1110 H1134 0.950 . S
C1111 C1128 1.574 . S
C1111 C1130 1.368 . S
C1111 H1135 0.949 . S
H1112 C1116 0.949 . S
C1113 C1114 1.349 . S
C1113 C1115 1.327 . S
C1113 H1136 0.950 . S
C1114 C1113 1.349 . S
C1114 C1126 1.349 . S
C1115 C1113 1.327 . S
C1115 C1131 1.429 . S
C1115 H1137 0.950 . S
C1116 H1112 0.949 . S
C1116 C1124 1.574 . S
C1116 C1132 1.368 . S
H1117 C1125 0.950 . S
H1118 C1123 0.950 . S
H1119 C1124 0.949 . S
H1120 C1126 0.950 . S
H1121 C1127 0.950 . S
H1122 C1128 0.949 . S
C1123 H1118 0.950 . S
C1123 C1125 1.327 . S
C1123 C1129 1.429 . S
C1124 C1116 1.574 . S
C1124 H1119 0.949 . S
C1124 C1130 1.368 . S
C1125 C1109 1.349 . S
C1125 H1117 0.950 . S
C1125 C1123 1.327 . S
C1126 C1114 1.349 . S
C1126 H1120 0.950 . S
C1126 C1127 1.327 . S
C1127 H1121 0.950 . S
C1127 C1126 1.327 . S
C1127 C1131 1.429 . S
C1128 C1111 1.574 . S
C1128 H1122 0.949 . S
C1128 C1132 1.368 . S
C1129 C1110 1.429 . S
C1129 C1123 1.429 . S
C1129 C1130 1.523 . S
C1130 C1111 1.368 . S
C1130 C1124 1.368 . S
C1130 C1129 1.523 . S
C1131 C1115 1.429 . S
C1131 C1127 1.429 . S
C1131 C1132 1.523 . S
C1132 C1116 1.368 . S
C1132 C1128 1.368 . S
C1132 C1131 1.523 . S
H1133 C1108 0.950 . S
H1134 C1110 0.950 . S
H1135 C1111 0.949 . S
H1136 C1113 0.950 . S
H1137 C1115 0.950 . S
C1138 C1139 1.349 . S
C1138 C1140 1.327 . S
C1138 H1163 0.950 . S
C1139 C1138 1.349 . S
C1139 C1155 1.349 . S
C1140 C1138 1.327 . S
C1140 C1159 1.429 . S
C1140 H1164 0.950 . S
C1141 C1158 1.574 . S
C1141 C1160 1.368 . S
C1141 H1165 0.949 . S
H1142 C1146 0.949 . S
C1143 C1144 1.349 . S
C1143 C1145 1.327 . S
C1143 H1166 0.950 . S
C1144 C1143 1.349 . S
C1144 C1156 1.349 . S
C1145 C1143 1.327 . S
C1145 C1161 1.429 . S
C1145 H1167 0.950 . S
C1146 H1142 0.949 . S
C1146 C1154 1.574 . S
C1146 C1162 1.368 . S
H1147 C1155 0.950 . S
H1148 C1153 0.950 . S
H1149 C1154 0.949 . S
H1150 C1156 0.950 . S
H1151 C1157 0.950 . S
H1152 C1158 0.949 . S
C1153 H1148 0.950 . S
C1153 C1155 1.327 . S
C1153 C1159 1.429 . S
C1154 C1146 1.574 . S
C1154 H1149 0.949 . S
C1154 C1160 1.368 . S
C1155 C1139 1.349 . S
C1155 H1147 0.950 . S
C1155 C1153 1.327 . S
C1156 C1144 1.349 . S
C1156 H1150 0.950 . S
C1156 C1157 1.327 . S
C1157 H1151 0.950 . S
C1157 C1156 1.327 . S
C1157 C1161 1.429 . S
C1158 C1141 1.574 . S
C1158 H1152 0.949 . S
C1158 C1162 1.368 . S
C1159 C1140 1.429 . S
C1159 C1153 1.429 . S
C1159 C1160 1.523 . S
C1160 C1141 1.368 . S
C1160 C1154 1.368 . S
C1160 C1159 1.523 . S
C1161 C1145 1.429 . S
C1161 C1157 1.429 . S
C1161 C1162 1.523 . S
C1162 C1146 1.368 . S
C1162 C1158 1.368 . S
C1162 C1161 1.523 . S
H1163 C1138 0.950 . S
H1164 C1140 0.950 . S
H1165 C1141 0.949 . S
H1166 C1143 0.950 . S
H1167 C1145 0.950 . S
C449 C241 1.769 . S
C454 C290 1.855 . S
C484 C330 2.105 . S
C479 C277 2.046 . S
C514 C394 2.290 . S
C509 C169 2.191 . S
C544 C410 1.806 . S
C539 C205 1.642 . S
C574 C311 1.857 . S
C569 C97 1.769 . S
C599 C133 2.088 1_556 S
C604 C351 2.111 . S
C629 C25 2.163 . S
C634 C385 2.291 . S
C659 C61 1.627 . S
C664 C431 1.802 1_655 S
C694 C305 0.354 . S
C689 C211 0.218 . S
C724 C345 0.371 . S
C719 C247 0.382 . S
C754 C381 0.551 . S
C749 C253 0.567 . S
C779 C175 0.347 . S
C784 C425 0.483 . S
C809 C67 0.360 . S
C814 C314 0.353 . S
C844 C354 0.370 . S
C839 C103 0.381 1_565 S
C874 C392 0.551 . S
C869 C109 0.434 . S
C899 C31 0.445 . S
C904 C434 0.484 . S
C929 C181 2.474 . S
C934 C312 2.694 . S
C959 C217 2.208 . S
C964 C352 2.404 . S
C994 C370 1.774 . S
C989 C283 1.699 . S
C1024 C432 3.025 . S
C1019 C145 2.759 . S
C1049 C37 2.466 . S
C1054 C301 2.706 . S
C1084 C341 2.404 . S
C1079 C73 2.208 1_565 S
C1114 C391 1.776 . S
C1109 C139 1.733 . S
C1139 C1 2.742 . S
C1144 C421 3.026 . S
