# Generated by pormake.
# Topology pth, (4,4)-cn, num edge types: 1
# Building blocks:
#     Node 0, Type 0, BuildingBlock: AZAVOO_clean_sbu_0, # of connection points: 4
#     Node 1, Type 0, BuildingBlock: AZAVOO_clean_sbu_0, # of connection points: 4
#     Node 2, Type 0, BuildingBlock: AZAVOO_clean_sbu_0, # of connection points: 4
#     Node 3, Type 1, BuildingBlock: NAWXER_clean_linker_0, # of connection points: 4
#     Node 4, Type 1, BuildingBlock: NAWXER_clean_linker_0, # of connection points: 4
#     Node 5, Type 1, BuildingBlock: NAWXER_clean_linker_0, # of connection points: 4
#     Edge 6, Type (0, 1), BuildingBlock: UVAHIK_clean_linker_0, # of connection points: 2
#     Edge 7, Type (0, 1), BuildingBlock: UVAHIK_clean_linker_0, # of connection points: 2
#     Edge 8, Type (0, 1), BuildingBlock: UVAHIK_clean_linker_0, # of connection points: 2
#     Edge 9, Type (0, 1), BuildingBlock: UVAHIK_clean_linker_0, # of connection points: 2
#     Edge 10, Type (0, 1), BuildingBlock: UVAHIK_clean_linker_0, # of connection points: 2
#     Edge 11, Type (0, 1), BuildingBlock: UVAHIK_clean_linker_0, # of connection points: 2
#     Edge 12, Type (0, 1), BuildingBlock: UVAHIK_clean_linker_0, # of connection points: 2
#     Edge 13, Type (0, 1), BuildingBlock: UVAHIK_clean_linker_0, # of connection points: 2
#     Edge 14, Type (0, 1), BuildingBlock: UVAHIK_clean_linker_0, # of connection points: 2
#     Edge 15, Type (0, 1), BuildingBlock: UVAHIK_clean_linker_0, # of connection points: 2
#     Edge 16, Type (0, 1), BuildingBlock: UVAHIK_clean_linker_0, # of connection points: 2
#     Edge 17, Type (0, 1), BuildingBlock: UVAHIK_clean_linker_0, # of connection points: 2
# Relax obj value: 0.065
# Max RMSD: 0.210
# Mean RMSD: 0.105
data_MOF--net-pth--node1-AZAVOO_clean_sbu_0--node2-NAWXER_clean_linker_0--edge1-UVAHIK_clean_linker_0
_symmetry_space_group_name_H-M    P1
_symmetry_Int_Tables_number       1
_symmetry_cell_setting            triclinic
loop_
_symmetry_equiv_pos_as_xyz
'x, y, z'
_cell_length_a     35.700516
_cell_length_b     36.359187
_cell_length_c     80.470206
_cell_angle_alpha  90.778667
_cell_angle_beta   92.576008
_cell_angle_gamma 121.73737
loop_
_atom_site_label
_atom_site_type_symbol
_atom_site_fract_x
_atom_site_fract_y
_atom_site_fract_z
_atom_type_partial_charge
Mg0 Mg 0.09686 0.0609 0.04331 0.0
O1 O 0.03363 0.01047 0.02847 0.0
O2 O 0.01654 0.04344 0.00905 0.0
Mg3 Mg 0.07074 0.11524 0.01098 0.0
C4 C 0.00852 0.00942 0.01644 0.0
C5 C 0.07503 0.97497 0.05869 0.0
O6 O 0.0766 0.96658 0.04289 0.0
O7 O 0.05985 0.08679 0.05658 0.0
O8 O 0.04848 0.12238 0.03653 0.0
O9 O 0.13695 0.05113 0.02534 0.0
O10 O 0.11719 0.09917 0.02273 0.0
C11 C 0.04563 0.11067 0.05156 0.0
C12 C 0.13607 0.08045 0.01667 0.0
O13 O 0.08244 0.01199 0.06314 0.0
Mg14 Mg 0.94533 0.00201 0.37355 0.0
O15 O 0.00791 0.02565 0.39046 0.0
O16 O 0.02217 0.0854 0.40464 0.0
Mg17 Mg 0.96778 0.09846 0.39759 0.0
C18 C 0.0317 0.05714 0.40094 0.0
C19 C 0.92918 0.92011 0.35461 0.0
O20 O 0.88929 0.90745 0.35904 0.0
O21 O 0.98363 0.05735 0.35628 0.0
O22 O 0.99305 0.11396 0.37138 0.0
O23 O 0.90366 0.9617 0.39377 0.0
O24 O 0.92316 0.02951 0.39018 0.0
C25 C -0.00236 0.09761 0.35805 0.0
C26 C 0.90374 0.99566 0.39891 0.0
O27 O 0.96063 0.95827 0.35879 0.0
Mg28 Mg 0.98405 -0.00068 0.69991 0.0
O29 O 0.0346 0.05355 0.71797 0.0
O30 O -0.00069 0.06903 0.73635 0.0
Mg31 Mg 0.92535 0.02309 0.73018 0.0
C32 C 0.03486 0.07543 0.73055 0.0
C33 C 0.03328 0.01345 0.66709 0.0
O34 O 0.99399 0.00118 0.66036 0.0
O35 O 0.96935 0.04594 0.68699 0.0
O36 O 0.9308 0.05643 0.70554 0.0
O37 O 0.9823 0.95063 0.71687 0.0
O38 O 0.93837 0.97629 0.71811 0.0
C39 C 0.94747 0.06274 0.69136 0.0
C40 C 0.95196 0.95257 0.72435 0.0
O41 O 0.03906 0.01521 0.68284 0.0
C42 C 0.99427 0.37885 0.23035 0.0
C43 C 0.03026 0.39111 0.24178 0.0
C44 C 0.98955 0.41015 0.22239 0.0
C45 C 0.02101 0.45431 0.22554 0.0
C46 C 0.06131 0.43541 0.24514 0.0
C47 C 0.05655 0.46674 0.23715 0.0
C48 C 0.01693 0.48753 0.21674 0.0
C49 C 0.04631 0.41575 0.17896 0.0
C50 C 0.01071 0.39078 0.1673 0.0
C51 C 0.04677 0.44715 0.1893 0.0
C52 C 0.01153 0.45396 0.1882 0.0
C53 C 0.97577 0.3981 0.16609 0.0
C54 C 0.97636 0.42967 0.17638 0.0
C55 C 0.01121 0.48656 0.19923 0.0
C56 C 0.03413 0.65874 0.18638 0.0
C57 C 0.00359 0.64682 0.17266 0.0
C58 C 0.03441 0.62714 0.19596 0.0
C59 C 0.00384 0.58304 0.19212 0.0
C60 C 0.97265 0.60266 0.16899 0.0
C61 C 0.97296 0.5711 0.17858 0.0
C62 C 0.00618 0.54919 0.20124 0.0
C63 C 0.96539 0.61264 0.23804 0.0
C64 C -0.00385 0.63506 0.25152 0.0
C65 C 0.97024 0.58506 0.22736 0.0
C66 C 0.00623 0.57967 0.22984 0.0
C67 C 0.03197 0.62933 0.25408 0.0
C68 C 0.03676 0.6016 0.24339 0.0
C69 C 0.01079 0.54958 0.21879 0.0
H70 H 0.96989 0.34501 0.22744 0.0
H71 H 0.96133 0.39982 0.21372 0.0
H72 H 0.08894 0.44587 0.25411 0.0
H73 H 0.08094 0.50069 0.23986 0.0
H74 H 0.07363 0.41073 0.18019 0.0
H75 H 0.07464 0.46612 0.19815 0.0
H76 H 0.94826 0.37983 0.15703 0.0
H77 H 0.94905 0.43473 0.17525 0.0
H78 H 0.05889 0.69244 0.18934 0.0
H79 H 0.05945 0.63718 0.20604 0.0
H80 H 0.94841 0.59246 0.15861 0.0
H81 H 0.94923 0.53726 0.17534 0.0
H82 H 0.93761 0.61657 0.23567 0.0
H83 H 0.94556 0.5676 0.21726 0.0
H84 H 0.05587 0.64571 0.26449 0.0
H85 H 0.06444 0.59745 0.24565 0.0
N86 N 0.01653 0.51901 0.22588 0.0
N87 N 0.00607 0.51739 0.19215 0.0
C88 C 0.63638 0.08258 0.50108 0.0
C89 C 0.64767 0.05604 0.5097 0.0
C90 C 0.61157 0.09711 0.50848 0.0
C91 C 0.59778 0.08558 0.52465 0.0
C92 C 0.63375 0.04438 0.52586 0.0
C93 C 0.60859 0.05858 0.53319 0.0
C94 C 0.56941 0.09913 0.53202 0.0
C95 C 0.64667 0.11832 0.58572 0.0
C96 C 0.68916 0.14269 0.57974 0.0
C97 C 0.60964 0.10985 0.57578 0.0
C98 C 0.61437 0.12523 0.55966 0.0
C99 C 0.69392 0.15957 0.56384 0.0
C100 C 0.6569 0.15117 0.55394 0.0
C101 C 0.57484 0.11382 0.54881 0.0
C102 C 0.39177 0.07226 0.5594 0.0
C103 C 0.40025 0.10477 0.57131 0.0
C104 C 0.42619 0.07409 0.55115 0.0
C105 C 0.46978 0.10888 0.5544 0.0
C106 C 0.44399 0.13918 0.5748 0.0
C107 C 0.47848 0.14113 0.56645 0.0
C108 C 0.50633 0.11028 0.54586 0.0
C109 C 0.42369 0.12605 0.50697 0.0
C110 C 0.40341 0.09316 0.49433 0.0
C111 C 0.4567 0.12907 0.51792 0.0
C112 C 0.4694 0.09858 0.5168 0.0
C113 C 0.41729 0.06357 0.49286 0.0
C114 C 0.44997 0.06629 0.50398 0.0
C115 C 0.5039 0.1011 0.52857 0.0
H116 H 0.64697 0.09232 0.48864 0.0
H117 H 0.6032 0.11746 0.50157 0.0
H118 H 0.64136 0.02337 0.53267 0.0
H119 H 0.59689 0.04773 0.54542 0.0
H120 H 0.64187 0.10455 0.59786 0.0
H121 H 0.5772 0.09007 0.5805 0.0
H122 H 0.72625 0.17914 0.55902 0.0
H123 H 0.66148 0.16454 0.54172 0.0
H124 H 0.35859 0.04478 0.55674 0.0
H125 H 0.41875 0.04794 0.54237 0.0
H126 H 0.45149 0.16473 0.5839 0.0
H127 H 0.51192 0.16799 0.5693 0.0
H128 H 0.41368 0.14921 0.50861 0.0
H129 H 0.47221 0.15528 0.52731 0.0
H130 H 0.4031 0.03838 0.48307 0.0
H131 H 0.45972 0.04283 0.50266 0.0
N132 N 0.53488 0.09464 0.52241 0.0
N133 N 0.5424 0.11757 0.55525 0.0
C134 C 0.45468 0.36457 0.83773 0.0
C135 C 0.43135 0.37737 0.82721 0.0
C136 C 0.48757 0.39415 0.84934 0.0
C137 C 0.49757 0.43696 0.85065 0.0
C138 C 0.44244 0.42065 0.82831 0.0
C139 C 0.47546 0.45019 0.83982 0.0
C140 C 0.53073 0.46835 0.86329 0.0
C141 C 0.41579 0.36864 0.88989 0.0
C142 C 0.42589 0.34478 0.90081 0.0
C143 C 0.44937 0.40653 0.88343 0.0
C144 C 0.4938 0.42083 0.88742 0.0
C145 C 0.47046 0.35962 0.90503 0.0
C146 C 0.50409 0.39741 0.89843 0.0
C147 C 0.52952 0.46068 0.88046 0.0
C148 C 0.65938 0.63946 0.90993 0.0
C149 C 0.67726 0.62921 0.92375 0.0
C150 C 0.6319 0.60776 0.89775 0.0
C151 C 0.62281 0.5653 0.89874 0.0
C152 C 0.66683 0.58627 0.92501 0.0
C153 C 0.63991 0.5547 0.91263 0.0
C154 C 0.59328 0.53131 0.88594 0.0
C155 C 0.70639 0.62939 0.85625 0.0
C156 C 0.69346 0.64746 0.8436 0.0
C157 C 0.67453 0.59471 0.86495 0.0
C158 C 0.62943 0.57809 0.86122 0.0
C159 C 0.64838 0.63165 0.84035 0.0
C160 C 0.61674 0.5972 0.849 0.0
C161 C 0.59493 0.53841 0.86868 0.0
H162 H 0.44755 0.33171 0.837 0.0
H163 H 0.50499 0.38356 0.85735 0.0
H164 H 0.42479 0.43153 0.82059 0.0
H165 H 0.48282 0.48315 0.84062 0.0
H166 H 0.38187 0.35806 0.88631 0.0
H167 H 0.44056 0.42473 0.87533 0.0
H168 H 0.47938 0.34252 0.91367 0.0
H169 H 0.53817 0.40825 0.90184 0.0
H170 H 0.66686 0.67213 0.90837 0.0
H171 H 0.61758 0.61657 0.88761 0.0
H172 H 0.67911 0.57685 0.93563 0.0
H173 H 0.63257 0.52195 0.91389 0.0
H174 H 0.74091 0.64081 0.85891 0.0
H175 H 0.68504 0.57991 0.87412 0.0
H176 H 0.63751 0.64546 0.83087 0.0
H177 H 0.58215 0.58493 0.84595 0.0
N178 N 0.56332 0.50684 0.8581 0.0
N179 N 0.56088 0.49239 0.89114 0.0
C180 C 0.01271 0.1547 0.05833 0.0
C181 C 0.02941 0.12917 0.06376 0.0
C182 C 0.00401 0.17797 0.06979 0.0
C183 C 0.98984 0.19193 0.11418 0.0
H184 H 0.04195 0.31231 0.10338 0.0
C185 C 0.04858 0.3675 0.1482 0.0
C186 C 0.01042 0.35782 0.15617 0.0
C187 C 0.04801 0.33709 0.13725 0.0
C188 C 0.02738 0.27884 0.1066 0.0
H189 H 0.04707 0.10572 0.08557 0.0
H190 H 0.03204 0.14668 0.1056 0.0
H191 H 0.04324 0.26184 0.0836 0.0
H192 H 0.94209 0.30835 0.15931 0.0
H193 H 0.94107 0.25511 0.14007 0.0
H194 H 0.97473 0.20946 0.13738 0.0
C195 C 0.02566 0.14855 0.09245 0.0
C196 C 0.02761 0.24979 0.09519 0.0
C197 C 0.0344 0.1252 0.08096 0.0
C198 C 0.97186 0.31681 0.1532 0.0
C199 C 0.97138 0.28624 0.14233 0.0
C200 C 0.98933 0.22103 0.12559 0.0
C201 C 0.01176 0.17625 0.08695 0.0
C202 C 0.00907 0.20609 0.09887 0.0
C203 C 0.00934 0.29628 0.13411 0.0
C204 C 0.0085 0.26486 0.12195 0.0
H205 H 0.00787 0.15808 0.04519 0.0
H206 H 0.99244 0.19838 0.06521 0.0
H207 H 0.97519 0.1584 0.11732 0.0
H208 H 0.07867 0.39894 0.15015 0.0
H209 H 0.07789 0.34554 0.13122 0.0
C210 C 0.85797 0.95802 0.42301 0.0
C211 C 0.88264 0.99597 0.41426 0.0
C212 C 0.83518 0.95796 0.43674 0.0
C213 C 0.82781 0.03011 0.46745 0.0
H214 H 0.70207 0.94532 0.46439 0.0
C215 C 0.70949 0.04216 0.51045 0.0
C216 C 0.67345 0.04019 0.50172 0.0
C217 C 0.73519 0.02938 0.50255 0.0
C218 C 0.7372 0.96896 0.4655 0.0
H219 H 0.90315 0.06365 0.4133 0.0
H220 H 0.86448 0.06368 0.43723 0.0
H221 H 0.75001 0.93776 0.44574 0.0
H222 H 0.63471 0.02144 0.4782 0.0
H223 H 0.67973 -0.00045 0.46436 0.0
H224 H 0.8148 0.06261 0.48657 0.0
C225 C 0.86297 0.03409 0.43362 0.0
C226 C 0.76466 0.9644 0.45494 0.0
C227 C 0.88512 0.03401 0.41982 0.0
C228 C 0.66265 0.02381 0.48515 0.0
C229 C 0.68808 0.01074 0.47731 0.0
C230 C 0.80042 0.03452 0.47806 0.0
C231 C 0.83726 0.99599 0.44207 0.0
C232 C 0.80997 0.99582 0.45542 0.0
C233 C 0.725 0.014 0.48584 0.0
C234 C 0.75463 0.00484 0.47678 0.0
H235 H 0.8553 0.92813 0.419 0.0
H236 H 0.81551 0.92812 0.44305 0.0
H237 H 0.86272 0.05457 0.46816 0.0
H238 H 0.71859 0.05478 0.52323 0.0
H239 H 0.76338 0.03209 0.50943 0.0
C240 C 0.90127 0.93201 0.74755 0.0
C241 C 0.93352 0.92861 0.73954 0.0
C242 C 0.88087 0.90667 0.761 0.0
C243 C 0.81927 0.82608 0.77832 0.0
H244 H 0.87516 0.79259 0.81218 0.0
C245 C 0.71736 0.67714 0.8157 0.0
C246 C 0.72618 0.68092 0.83302 0.0
C247 C 0.74627 0.70944 0.80557 0.0
C248 C 0.85925 0.80201 0.80289 0.0
H249 H 0.97093 0.89709 0.73977 0.0
H250 H 0.93426 0.85175 0.76302 0.0
H251 H 0.92063 0.84821 0.79281 0.0
H252 H 0.7731 0.72059 0.8533 0.0
H253 H 0.82404 0.7777 0.83543 0.0
H254 H 0.7581 0.7803 0.78827 0.0
C255 C 0.92536 0.87467 0.75907 0.0
C256 C 0.88517 0.83351 0.79173 0.0
C257 C 0.94612 0.90041 0.74567 0.0
C258 C 0.76554 0.71695 0.83997 0.0
C259 C 0.79462 0.74951 0.82977 0.0
C260 C 0.79354 0.79478 0.7894 0.0
C261 C 0.89175 0.87683 0.76661 0.0
C262 C 0.86534 0.84557 0.77923 0.0
C263 C 0.78472 0.74639 0.81251 0.0
C264 C 0.8131 0.78188 0.80162 0.0
H265 H 0.8907 0.95332 0.7432 0.0
H266 H 0.85569 0.9097 0.76674 0.0
H267 H 0.80281 0.83409 0.76872 0.0
H268 H 0.68787 0.64917 0.80995 0.0
H269 H 0.73832 0.7056 0.79226 0.0
C270 C 0.05376 0.89997 0.06586 0.0
C271 C 0.06446 0.94163 0.07104 0.0
C272 C 0.04382 0.86837 0.07746 0.0
C273 C 0.06097 0.85482 0.12175 0.0
H274 H 0.96568 0.7363 0.1116 0.0
C275 C 0.01334 0.71966 0.16838 0.0
C276 C 0.00558 0.68018 0.16167 0.0
C277 C 0.01721 0.75171 0.15791 0.0
C278 C 0.99258 0.7692 0.11456 0.0
H279 H 0.0729 0.98276 0.09247 0.0
H280 H 0.05546 0.92743 0.11274 0.0
H281 H 0.97895 0.79224 0.09216 0.0
H282 H -0.00393 0.64353 0.13871 0.0
H283 H 0.00281 0.69927 0.1205 0.0
H284 H 0.07509 0.83166 0.14401 0.0
C285 C 0.05509 0.91938 0.0997 0.0
C286 C 0.00018 0.80122 0.10344 0.0
C287 C 0.0649 0.95099 0.08808 0.0
C288 C 0.00124 0.67325 0.14428 0.0
C289 C 0.00511 0.70523 0.13384 0.0
C290 C 0.05342 0.82276 0.13287 0.0
C291 C 0.04446 0.87774 0.09451 0.0
C292 C 0.03479 0.84427 0.10681 0.0
C293 C 0.01341 0.74493 0.14052 0.0
C294 C 0.01948 0.77949 0.1293 0.0
H295 H 0.05313 0.89169 0.05283 0.0
H296 H 0.03635 0.83676 0.0731 0.0
H297 H 0.0882 0.88763 0.1246 0.0
H298 H 0.01633 0.72575 0.18173 0.0
H299 H 0.02306 0.78175 0.16344 0.0
C300 C 0.10518 0.10092 0.41652 0.0
C301 C 0.07157 0.06107 0.40918 0.0
C302 C 0.14249 0.10467 0.42463 0.0
C303 C 0.20441 0.04869 0.4298 0.0
H304 H 0.25402 0.1237 0.46968 0.0
C305 C 0.33096 0.04866 0.47767 0.0
C306 C 0.36752 0.0895 0.48292 0.0
C307 C 0.29626 0.04531 0.46762 0.0
C308 C 0.24071 0.10293 0.45848 0.0
H309 H 0.05074 0.99387 0.40452 0.0
H310 H 0.11509 -5e-05 0.4192 0.0
H311 H 0.19018 0.11707 0.45444 0.0
H312 H 0.39686 0.15882 0.48107 0.0
H313 H 0.33555 0.15277 0.464 0.0
H314 H 0.25442 0.03358 0.43436 0.0
C315 C 0.11327 0.02867 0.41833 0.0
C316 C 0.20424 0.09923 0.44968 0.0
C317 C 0.07621 0.02508 0.40999 0.0
C318 C 0.36884 0.12685 0.47761 0.0
C319 C 0.33388 0.12346 0.46775 0.0
C320 C 0.24056 0.05194 0.43877 0.0
C321 C 0.14681 0.06849 0.42583 0.0
C322 C 0.18569 0.07221 0.43517 0.0
C323 C 0.29714 0.08269 0.46279 0.0
C324 C 0.2591 0.07924 0.45315 0.0
H325 H 0.10284 0.1294 0.41592 0.0
H326 H 0.16804 0.13609 0.42989 0.0
H327 H 0.1915 0.0281 0.41856 0.0
H328 H 0.32846 0.0192 0.4817 0.0
H329 H 0.26807 0.01348 0.46406 0.0
C330 C 0.11667 0.10997 0.73513 0.0
C331 C 0.07777 0.10839 0.73891 0.0
C332 C 0.15691 0.13982 0.7435 0.0
C333 C 0.21496 0.24334 0.76752 0.0
H334 H 0.28713 0.20161 0.78635 0.0
C335 C 0.38741 0.35773 0.79976 0.0
C336 C 0.39449 0.34555 0.81556 0.0
C337 C 0.35079 0.32884 0.78934 0.0
C338 C 0.2673 0.21367 0.78114 0.0
H339 H 0.0509 0.13765 0.7542 0.0
H340 H 0.12136 0.19003 0.76872 0.0
H341 H 0.21855 0.15164 0.77006 0.0
H342 H 0.36884 0.29302 0.83261 0.0
H343 H 0.30549 0.24235 0.81422 0.0
H344 H 0.26342 0.30523 0.77877 0.0
C345 C 0.12055 0.16808 0.75927 0.0
C346 C 0.22831 0.18522 0.77173 0.0
C347 C 0.08019 0.13792 0.75102 0.0
C348 C 0.36483 0.3033 0.82044 0.0
C349 C 0.32844 0.27428 0.80994 0.0
C350 C 0.2542 0.27189 0.77678 0.0
C351 C 0.1592 0.16903 0.7557 0.0
C352 C 0.20155 0.19969 0.76498 0.0
C353 C 0.32073 0.287 0.7944 0.0
C354 C 0.2805 0.25722 0.78381 0.0
H355 H 0.116 0.08769 0.72587 0.0
H356 H 0.18631 0.14014 0.74042 0.0
H357 H 0.19508 0.25537 0.76235 0.0
H358 H 0.41005 0.38973 0.79547 0.0
H359 H 0.34591 0.33923 0.77731 0.0
C360 C 0.94862 0.0887 0.66252 0.0
C361 C 0.93758 0.08711 0.67916 0.0
C362 C 0.93349 0.10617 0.65054 0.0
C363 C 0.87938 0.16957 0.64486 0.0
H364 H 0.82165 0.09267 0.60586 0.0
C365 C 0.73233 0.15718 0.60706 0.0
C366 C 0.72802 0.14867 0.58977 0.0
C367 C 0.76682 0.15894 0.61669 0.0
C368 C 0.83834 0.11507 0.61647 0.0
H369 H 0.90461 0.10547 0.69646 0.0
H370 H 0.87792 0.13526 0.67562 0.0
H371 H 0.86802 0.08035 0.62508 0.0
H372 H 0.7573 0.13666 0.56896 0.0
H373 H 0.81786 0.14035 0.58575 0.0
H374 H 0.84809 0.20322 0.63652 0.0
C375 C 0.89845 0.12331 0.67179 0.0
C376 C 0.86502 0.10804 0.6275 0.0
C377 C 0.91349 0.10584 0.68374 0.0
C378 C 0.75988 0.14358 0.58224 0.0
C379 C 0.79434 0.14529 0.59187 0.0
C380 C 0.85261 0.17658 0.63382 0.0
C381 C 0.90716 0.12254 0.65498 0.0
C382 C 0.88492 0.1345 0.64204 0.0
C383 C 0.79771 0.15218 0.60924 0.0
C384 C 0.8309 0.14872 0.61974 0.0
H385 H 0.96742 0.07487 0.65858 0.0
H386 H 0.9413 0.10571 0.63772 0.0
H387 H 0.89483 0.19093 0.65582 0.0
H388 H 0.7086 0.16175 0.6132 0.0
H389 H 0.76821 0.16388 0.63006 0.0
C390 C 0.93539 0.96483 0.00051 0.0
C391 C 0.97019 0.9671 0.01033 0.0
C392 C 0.90064 0.92502 0.99384 0.0
C393 C 0.87828 0.82156 0.97849 0.0
H394 H 0.75474 0.78271 0.98111 0.0
C395 C 0.74326 0.66344 0.9443 0.0
C396 C 0.70711 0.66343 0.93658 0.0
C397 C 0.7728 0.69704 0.95555 0.0
C398 C 0.78907 0.79327 0.98008 0.0
H399 H -0.00462 0.92929 0.0211 0.0
H400 H 0.93512 0.8599 0.00904 0.0
H401 H 0.81108 0.84883 -0.00352 0.0
H402 H 0.67272 0.69804 0.93542 0.0
H403 H 0.72547 0.75766 0.95408 0.0
H404 H 0.85714 0.7679 0.96143 0.0
C405 C 0.9347 0.88895 0.00668 0.0
C406 C 0.82123 0.83098 0.98898 0.0
C407 C 0.96904 0.92863 0.01361 0.0
C408 C 0.70069 0.69733 0.94078 0.0
C409 C 0.73063 0.73129 0.95179 0.0
C410 C 0.84627 0.78436 0.96935 0.0
C411 C 0.90045 0.88689 -0.00338 0.0
C412 C 0.86609 0.84556 0.98816 0.0
C413 C 0.76745 0.73192 0.95918 0.0
C414 C 0.8012 0.76986 0.96988 0.0
H415 H 0.93525 0.99388 -0.00217 0.0
H416 H 0.87469 0.92422 0.98602 0.0
H417 H 0.91276 0.8325 0.97751 0.0
H418 H 0.74959 0.63814 0.94134 0.0
H419 H 0.80018 0.69583 0.96124 0.0
C420 C 0.90198 0.84881 0.33972 0.0
C421 C 0.93711 0.89059 0.34467 0.0
C422 C 0.90917 0.82116 0.33005 0.0
C423 C -0.004 0.80199 0.31768 0.0
H424 H 0.9119 0.73538 0.28081 0.0
C425 C 0.02674 0.70466 0.26842 0.0
C426 C 0.99049 0.66397 0.26293 0.0
C427 C 0.02097 0.73232 0.27875 0.0
C428 C 0.93543 0.75335 0.29118 0.0
H429 H 0.00749 0.936 0.34348 0.0
H430 H 0.01995 0.88777 0.32649 0.0
H431 H 0.90044 0.78355 0.29818 0.0
H432 H 0.92005 0.61976 0.26445 0.0
H433 H 0.91 0.66785 0.28249 0.0
H434 H 0.03098 0.77169 0.31064 0.0
C435 C 0.98691 0.87628 0.33022 0.0
C436 C 0.92886 0.78097 0.30113 0.0
C437 C 0.97971 0.90398 0.33988 0.0
C438 C 0.9485 0.65124 0.26821 0.0
C439 C 0.94274 0.67881 0.27854 0.0
C440 C 0.00256 0.77428 0.30772 0.0
C441 C 0.95167 0.83464 0.32512 0.0
C442 C 0.95898 0.80551 0.31452 0.0
C443 C 0.97883 0.71981 0.28382 0.0
C444 C 0.97226 0.74955 0.29438 0.0
H445 H 0.86879 0.8374 0.34325 0.0
H446 H 0.88144 0.78906 0.32652 0.0
H447 H 0.01953 0.8201 0.32803 0.0
H448 H 0.05943 0.71556 0.26441 0.0
H449 H 0.04936 0.76389 0.28244 0.0
C450 C 0.06452 0.02235 0.6391 0.0
C451 C 0.07069 0.02573 0.65655 0.0
C452 C 0.10003 0.03399 0.62921 0.0
C453 C 0.22179 0.09823 0.63025 0.0
H454 H 0.20622 0.02211 0.59285 0.0
C455 C 0.36811 0.10975 0.5977 0.0
C456 C 0.36353 0.10173 0.58038 0.0
C457 C 0.33246 0.10383 0.6064 0.0
C458 C 0.21099 0.0441 0.60309 0.0
H459 H 0.11905 0.04419 0.67731 0.0
H460 H 0.18077 0.06417 0.66008 0.0
H461 H 0.14346 0.00517 0.60907 0.0
H462 H 0.31867 0.08311 0.55848 0.0
H463 H 0.2565 0.07306 0.57364 0.0
H464 H 0.2894 0.13699 0.62435 0.0
C465 C 0.14861 0.05296 0.65403 0.0
C466 C 0.17501 0.03434 0.61239 0.0
C467 C 0.11314 0.0412 0.6639 0.0
C468 C 0.32296 0.08887 0.57187 0.0
C469 C 0.28736 0.08306 0.58055 0.0
C470 C 0.25775 0.10805 0.62092 0.0
C471 C 0.14246 0.04943 0.63658 0.0
C472 C 0.18012 0.06105 0.62618 0.0
C473 C 0.29151 0.08989 0.59795 0.0
C474 C 0.25286 0.08087 0.60733 0.0
H475 H 0.03226 0.01067 0.63305 0.0
H476 H 0.09437 0.03128 0.61579 0.0
H477 H 0.22658 0.1198 0.64065 0.0
H478 H 0.39881 0.11918 0.60462 0.0
H479 H 0.33662 0.10882 0.61981 0.0
C480 C 0.15488 0.12452 0.99141 0.0
C481 C 0.15638 0.09253 0.00047 0.0
C482 C 0.17751 0.13922 0.97695 0.0
C483 C 0.27592 0.1553 0.95889 0.0
H484 H 0.23401 0.19388 0.92178 0.0
C485 C 0.39333 0.26918 0.9108 0.0
C486 C 0.39007 0.30565 0.90833 0.0
C487 C 0.36058 0.23347 0.91876 0.0
C488 C 0.24611 0.1831 0.93202 0.0
H489 H 0.18156 0.0497 0.0011 0.0
H490 H 0.22174 0.07594 0.97579 0.0
H491 H 0.18222 0.14638 0.94173 0.0
H492 H 0.34957 0.33294 0.91219 0.0
H493 H 0.29263 0.27086 0.92591 0.0
H494 H 0.34017 0.19368 0.94965 0.0
C495 C 0.20288 0.08949 0.97995 0.0
C496 C 0.2165 0.1559 0.94341 0.0
C497 C 0.17983 0.07446 0.99441 0.0
C498 C 0.3528 0.30513 0.9136 0.0
C499 C 0.32006 0.26946 0.92146 0.0
C500 C 0.30556 0.18251 0.94748 0.0
C501 C 0.2025 0.12255 0.97124 0.0
C502 C 0.23144 0.14315 0.95732 0.0
C503 C 0.32383 0.23347 0.92432 0.0
C504 C 0.29123 0.19804 0.93432 0.0
H505 H 0.13755 0.13947 -0.00424 0.0
H506 H 0.17719 0.16527 0.97071 0.0
H507 H 0.2885 0.14629 0.96955 0.0
H508 H 0.42129 0.26829 0.90664 0.0
H509 H 0.36419 0.20604 0.9207 0.0
C510 C 0.03648 0.17106 0.34635 0.0
C511 C 0.01682 0.1261 0.34391 0.0
C512 C 0.04862 0.19772 0.33282 0.0
C513 C 0.01407 0.19198 0.28913 0.0
H514 H 0.10743 0.3132 0.29216 0.0
C515 C -0.00262 0.32175 0.25665 0.0
C516 C 0.03464 0.35776 0.2505 0.0
C517 C 0.0014 0.29097 0.26535 0.0
C518 C 0.08165 0.27927 0.2909 0.0
H519 H -0.00249 0.07427 0.3254 0.0
H520 H 0.01901 0.12112 0.30169 0.0
H521 H 0.10779 0.26404 0.31234 0.0
H522 H 0.10517 0.38903 0.24821 0.0
H523 H 0.11225 0.33513 0.26351 0.0
H524 H 0.98752 0.20733 0.26787 0.0
C525 C 0.02439 0.13553 0.31411 0.0
C526 C 0.08163 0.25118 0.30257 0.0
C527 C 0.01229 0.10875 0.3277 0.0
C528 C 0.07596 0.36193 0.25301 0.0
C529 C 0.07999 0.33103 0.26172 0.0
C530 C 0.01419 0.22002 0.27743 0.0
C531 C 0.04147 0.18013 0.3165 0.0
C532 C 0.04691 0.20759 0.30221 0.0
C533 C 0.04277 0.29537 0.2681 0.0
C534 C 0.04702 0.26431 0.27857 0.0
H535 H 0.04087 0.18561 0.35868 0.0
H536 H 0.06121 0.2318 0.33515 0.0
H537 H 0.9867 0.15867 0.28851 0.0
H538 H 0.96521 0.31796 0.25517 0.0
H539 H 0.97221 0.26446 0.27041 0.0
loop_
_geom_bond_atom_site_label_1
_geom_bond_atom_site_label_2
_geom_bond_distance
_geom_bond_site_symmetry_2
_ccdc_geom_bond_type
Mg0 O1 2.028 . S
Mg0 O7 1.986 . S
Mg0 O9 2.114 . S
Mg0 O10 2.251 . S
Mg0 O13 2.010 . S
O1 Mg0 2.028 . S
O1 C4 1.230 1_455 S
O2 Mg3 2.028 . S
O2 C4 1.260 1_455 S
Mg3 O2 2.028 . S
Mg3 O8 2.032 . S
Mg3 O10 2.079 . S
C4 O1 1.230 1_655 S
C4 O2 1.260 1_655 S
C5 O6 1.264 1_565 S
C5 O13 1.249 1_565 S
O6 C5 1.264 1_545 S
O7 Mg0 1.986 . S
O7 C11 1.246 . S
O8 Mg3 2.032 . S
O8 C11 1.259 . S
O9 Mg0 2.114 . S
O9 C12 1.252 . S
O10 Mg0 2.251 . S
O10 Mg3 2.079 . S
O10 C12 1.273 . S
C11 O7 1.246 . S
C11 O8 1.259 . S
C12 O9 1.252 . S
C12 O10 1.273 . S
O13 Mg0 2.010 . S
O13 C5 1.249 1_545 S
Mg14 O15 2.028 1_655 S
Mg14 O21 1.986 1_655 S
Mg14 O23 2.114 1_545 S
Mg14 O24 2.251 . S
Mg14 O27 2.010 1_545 S
O15 Mg14 2.028 1_455 S
O15 C18 1.250 . S
O16 Mg17 2.028 . S
O16 C18 1.248 . S
Mg17 O16 2.028 . S
Mg17 O22 2.032 . S
Mg17 O24 2.079 1_455 S
C18 O15 1.250 . S
C18 O16 1.248 . S
C19 O20 1.264 . S
C19 O27 1.249 . S
O20 C19 1.264 . S
O21 Mg14 1.986 1_455 S
O21 C25 1.246 . S
O22 Mg17 2.032 . S
O22 C25 1.259 . S
O23 Mg14 2.114 1_565 S
O23 C26 1.252 1_565 S
O24 Mg14 2.251 . S
O24 Mg17 2.079 1_655 S
O24 C26 1.273 . S
C25 O21 1.246 . S
C25 O22 1.259 . S
C26 O23 1.252 1_545 S
C26 O24 1.273 . S
O27 Mg14 2.010 1_565 S
O27 C19 1.249 . S
Mg28 O29 2.028 . S
Mg28 O35 1.986 1_455 S
Mg28 O37 2.114 1_545 S
Mg28 O38 2.251 1_445 S
Mg28 O41 2.010 1_545 S
O29 Mg28 2.028 . S
O29 C32 1.250 . S
O30 Mg31 2.028 1_455 S
O30 C32 1.248 . S
Mg31 O30 2.028 1_655 S
Mg31 O36 2.032 . S
Mg31 O38 2.079 1_545 S
C32 O29 1.250 . S
C32 O30 1.248 . S
C33 O34 1.264 . S
C33 O41 1.249 . S
O34 C33 1.264 . S
O35 Mg28 1.986 1_655 S
O35 C39 1.246 . S
O36 Mg31 2.032 . S
O36 C39 1.259 . S
O37 Mg28 2.114 1_565 S
O37 C40 1.252 1_455 S
O38 Mg28 2.251 1_665 S
O38 Mg31 2.079 1_565 S
O38 C40 1.273 . S
C39 O35 1.246 . S
C39 O36 1.259 . S
C40 O37 1.252 1_655 S
C40 O38 1.273 . S
O41 Mg28 2.010 1_565 S
O41 C33 1.249 . S
C42 C43 1.384 1_655 S
C42 C44 1.394 1_655 S
C42 H70 0.931 . S
C43 C42 1.384 1_455 S
C43 C46 1.382 . S
C44 C42 1.394 1_455 S
C44 C45 1.386 . S
C44 H71 0.916 1_455 S
C45 C44 1.386 . S
C45 C47 1.381 . S
C45 C48 1.487 . S
C46 C43 1.382 . S
C46 C47 1.387 . S
C46 H72 0.930 . S
C47 C45 1.381 . S
C47 C46 1.387 . S
C47 H73 0.931 . S
C48 C45 1.487 . S
C48 C55 1.399 . S
C48 N86 1.343 . S
C49 C50 1.384 . S
C49 C51 1.384 . S
C49 H74 0.931 . S
C50 C49 1.384 . S
C50 C53 1.382 . S
C51 C49 1.384 . S
C51 C52 1.381 . S
C51 H75 0.930 . S
C52 C51 1.381 . S
C52 C54 1.381 . S
C52 C55 1.487 . S
C53 C50 1.382 . S
C53 C54 1.387 . S
C53 H76 0.930 1_455 S
C54 C52 1.381 . S
C54 C53 1.387 . S
C54 H77 0.931 1_455 S
C55 C48 1.399 . S
C55 C52 1.487 . S
C55 N87 1.343 . S
C56 C57 1.384 . S
C56 C58 1.384 . S
C56 H78 0.931 . S
C57 C56 1.384 . S
C57 C60 1.382 . S
C58 C56 1.384 . S
C58 C59 1.381 . S
C58 H79 0.930 . S
C59 C58 1.381 . S
C59 C61 1.381 . S
C59 C62 1.487 . S
C60 C57 1.382 . S
C60 C61 1.387 . S
C60 H80 0.930 1_455 S
C61 C59 1.381 . S
C61 C60 1.387 . S
C61 H81 0.931 1_455 S
C62 C59 1.487 . S
C62 C69 1.399 . S
C62 N87 1.343 . S
C63 C64 1.384 1_655 S
C63 C65 1.370 1_655 S
C63 H82 0.931 . S
C64 C63 1.384 1_455 S
C64 C67 1.382 . S
C65 C63 1.370 1_455 S
C65 C66 1.408 . S
C65 H83 0.917 1_455 S
C66 C65 1.408 . S
C66 C68 1.381 . S
C66 C69 1.487 . S
C67 C64 1.382 . S
C67 C68 1.387 . S
C67 H84 0.930 . S
C68 C66 1.381 . S
C68 C67 1.387 . S
C68 H85 0.931 . S
C69 C62 1.399 . S
C69 C66 1.487 . S
C69 N86 1.343 . S
H70 C42 0.931 . S
H71 C44 0.916 1_655 S
H72 C46 0.930 . S
H73 C47 0.931 . S
H74 C49 0.931 . S
H75 C51 0.930 . S
H76 C53 0.930 1_655 S
H77 C54 0.931 1_655 S
H78 C56 0.931 . S
H79 C58 0.930 . S
H80 C60 0.930 1_655 S
H81 C61 0.931 1_655 S
H82 C63 0.931 . S
H83 C65 0.917 1_655 S
H84 C67 0.930 . S
H85 C68 0.931 . S
N86 C48 1.343 . S
N86 C69 1.343 . S
N87 C55 1.343 . S
N87 C62 1.343 . S
C88 C89 1.384 . S
C88 C90 1.384 . S
C88 H116 0.931 . S
C89 C88 1.384 . S
C89 C92 1.382 . S
C90 C88 1.384 . S
C90 C91 1.381 . S
C90 H117 0.930 . S
C91 C90 1.381 . S
C91 C93 1.381 . S
C91 C94 1.487 . S
C92 C89 1.382 . S
C92 C93 1.387 . S
C92 H118 0.930 . S
C93 C91 1.381 . S
C93 C92 1.387 . S
C93 H119 0.931 . S
C94 C91 1.487 . S
C94 C101 1.399 . S
C94 N132 1.343 . S
C95 C96 1.384 . S
C95 C97 1.384 . S
C95 H120 0.931 . S
C96 C95 1.384 . S
C96 C99 1.382 . S
C97 C95 1.384 . S
C97 C98 1.381 . S
C97 H121 0.930 . S
C98 C97 1.381 . S
C98 C100 1.381 . S
C98 C101 1.487 . S
C99 C96 1.382 . S
C99 C100 1.387 . S
C99 H122 0.930 . S
C100 C98 1.381 . S
C100 C99 1.387 . S
C100 H123 0.931 . S
C101 C94 1.399 . S
C101 C98 1.487 . S
C101 N133 1.343 . S
C102 C103 1.384 . S
C102 C104 1.384 . S
C102 H124 0.931 . S
C103 C102 1.384 . S
C103 C106 1.382 . S
C104 C102 1.384 . S
C104 C105 1.381 . S
C104 H125 0.930 . S
C105 C104 1.381 . S
C105 C107 1.381 . S
C105 C108 1.487 . S
C106 C103 1.382 . S
C106 C107 1.387 . S
C106 H126 0.930 . S
C107 C105 1.381 . S
C107 C106 1.387 . S
C107 H127 0.931 . S
C108 C105 1.487 . S
C108 C115 1.399 . S
C108 N133 1.343 . S
C109 C110 1.384 . S
C109 C111 1.384 . S
C109 H128 0.931 . S
C110 C109 1.384 . S
C110 C113 1.382 . S
C111 C109 1.384 . S
C111 C112 1.381 . S
C111 H129 0.930 . S
C112 C111 1.381 . S
C112 C114 1.381 . S
C112 C115 1.487 . S
C113 C110 1.382 . S
C113 C114 1.387 . S
C113 H130 0.930 . S
C114 C112 1.381 . S
C114 C113 1.387 . S
C114 H131 0.931 . S
C115 C108 1.399 . S
C115 C112 1.487 . S
C115 N132 1.343 . S
H116 C88 0.931 . S
H117 C90 0.930 . S
H118 C92 0.930 . S
H119 C93 0.931 . S
H120 C95 0.931 . S
H121 C97 0.930 . S
H122 C99 0.930 . S
H123 C100 0.931 . S
H124 C102 0.931 . S
H125 C104 0.930 . S
H126 C106 0.930 . S
H127 C107 0.931 . S
H128 C109 0.931 . S
H129 C111 0.930 . S
H130 C113 0.930 . S
H131 C114 0.931 . S
N132 C94 1.343 . S
N132 C115 1.343 . S
N133 C101 1.343 . S
N133 C108 1.343 . S
C134 C135 1.384 . S
C134 C136 1.384 . S
C134 H162 0.931 . S
C135 C134 1.384 . S
C135 C138 1.382 . S
C136 C134 1.384 . S
C136 C137 1.381 . S
C136 H163 0.930 . S
C137 C136 1.381 . S
C137 C139 1.381 . S
C137 C140 1.487 . S
C138 C135 1.382 . S
C138 C139 1.387 . S
C138 H164 0.930 . S
C139 C137 1.381 . S
C139 C138 1.387 . S
C139 H165 0.931 . S
C140 C137 1.487 . S
C140 C147 1.399 . S
C140 N178 1.343 . S
C141 C142 1.384 . S
C141 C143 1.384 . S
C141 H166 0.931 . S
C142 C141 1.384 . S
C142 C145 1.382 . S
C143 C141 1.384 . S
C143 C144 1.381 . S
C143 H167 0.930 . S
C144 C143 1.381 . S
C144 C146 1.381 . S
C144 C147 1.487 . S
C145 C142 1.382 . S
C145 C146 1.387 . S
C145 H168 0.930 . S
C146 C144 1.381 . S
C146 C145 1.387 . S
C146 H169 0.931 . S
C147 C140 1.399 . S
C147 C144 1.487 . S
C147 N179 1.343 . S
C148 C149 1.384 . S
C148 C150 1.384 . S
C148 H170 0.931 . S
C149 C148 1.384 . S
C149 C152 1.382 . S
C150 C148 1.384 . S
C150 C151 1.381 . S
C150 H171 0.930 . S
C151 C150 1.381 . S
C151 C153 1.381 . S
C151 C154 1.487 . S
C152 C149 1.382 . S
C152 C153 1.387 . S
C152 H172 0.930 . S
C153 C151 1.381 . S
C153 C152 1.387 . S
C153 H173 0.931 . S
C154 C151 1.487 . S
C154 C161 1.399 . S
C154 N179 1.343 . S
C155 C156 1.384 . S
C155 C157 1.384 . S
C155 H174 0.931 . S
C156 C155 1.384 . S
C156 C159 1.382 . S
C157 C155 1.384 . S
C157 C158 1.381 . S
C157 H175 0.930 . S
C158 C157 1.381 . S
C158 C160 1.381 . S
C158 C161 1.487 . S
C159 C156 1.382 . S
C159 C160 1.387 . S
C159 H176 0.930 . S
C160 C158 1.381 . S
C160 C159 1.387 . S
C160 H177 0.931 . S
C161 C154 1.399 . S
C161 C158 1.487 . S
C161 N178 1.343 . S
H162 C134 0.931 . S
H163 C136 0.930 . S
H164 C138 0.930 . S
H165 C139 0.931 . S
H166 C141 0.931 . S
H167 C143 0.930 . S
H168 C145 0.930 . S
H169 C146 0.931 . S
H170 C148 0.931 . S
H171 C150 0.930 . S
H172 C152 0.930 . S
H173 C153 0.931 . S
H174 C155 0.931 . S
H175 C157 0.930 . S
H176 C159 0.930 . S
H177 C160 0.931 . S
N178 C140 1.343 . S
N178 C161 1.343 . S
N179 C147 1.343 . S
N179 C154 1.343 . S
C180 C181 1.379 . S
C180 C182 1.326 . S
C180 H205 0.934 1_455 S
C181 C180 1.379 . S
C181 C197 1.349 . S
C182 C180 1.326 . S
C182 C201 1.443 . S
C182 H206 0.922 1_455 S
C183 C200 1.574 . S
C183 C202 1.368 . S
C183 H207 0.949 . S
H184 C188 0.949 1_655 S
C185 C186 1.349 . S
C185 C187 1.327 . S
C185 H208 0.950 . S
C186 C185 1.349 . S
C186 C198 1.349 . S
C187 C185 1.327 . S
C187 C203 1.429 . S
C187 H209 0.950 . S
C188 H184 0.949 1_455 S
C188 C196 1.563 . S
C188 C204 1.368 . S
H189 C197 0.950 . S
H190 C195 0.950 . S
H191 C196 0.937 1_655 S
H192 C198 0.950 1_655 S
H193 C199 0.950 1_655 S
H194 C200 0.949 . S
C195 H190 0.950 . S
C195 C197 1.327 . S
C195 C201 1.429 . S
C196 C188 1.563 . S
C196 H191 0.937 1_455 S
C196 C202 1.393 . S
C197 C181 1.349 . S
C197 H189 0.950 . S
C197 C195 1.327 . S
C198 C186 1.349 . S
C198 H192 0.950 1_455 S
C198 C199 1.327 . S
C199 H193 0.950 1_455 S
C199 C198 1.327 . S
C199 C203 1.429 . S
C200 C183 1.574 . S
C200 H194 0.949 . S
C200 C204 1.368 . S
C201 C182 1.443 . S
C201 C195 1.429 . S
C201 C202 1.523 . S
C202 C183 1.368 . S
C202 C196 1.393 . S
C202 C201 1.523 . S
C203 C187 1.429 . S
C203 C199 1.429 . S
C203 C204 1.523 . S
C204 C188 1.368 . S
C204 C200 1.368 . S
C204 C203 1.523 . S
H205 C180 0.934 1_655 S
H206 C182 0.922 1_655 S
H207 C183 0.949 . S
H208 C185 0.950 . S
H209 C187 0.950 . S
C210 C211 1.349 1_565 S
C210 C212 1.328 1_565 S
C210 H235 0.950 . S
C211 C210 1.349 1_545 S
C211 C227 1.349 . S
C212 C210 1.328 1_545 S
C212 C231 1.429 . S
C212 H236 0.950 1_545 S
C213 C230 1.574 . S
C213 C232 1.368 . S
C213 H237 0.949 . S
H214 C218 0.949 . S
C215 C216 1.349 . S
C215 C217 1.327 . S
C215 H238 0.950 . S
C216 C215 1.349 . S
C216 C228 1.349 . S
C217 C215 1.327 . S
C217 C233 1.429 . S
C217 H239 0.950 . S
C218 H214 0.949 . S
C218 C226 1.574 . S
C218 C234 1.368 . S
H219 C227 0.950 . S
H220 C225 0.950 . S
H221 C226 0.949 . S
H222 C228 0.950 . S
H223 C229 0.950 . S
H224 C230 0.949 . S
C225 H220 0.950 . S
C225 C227 1.327 . S
C225 C231 1.429 . S
C226 C218 1.574 . S
C226 H221 0.949 . S
C226 C232 1.368 . S
C227 C211 1.349 . S
C227 H219 0.950 . S
C227 C225 1.327 . S
C228 C216 1.349 . S
C228 H222 0.950 . S
C228 C229 1.327 . S
C229 H223 0.950 . S
C229 C228 1.327 . S
C229 C233 1.429 . S
C230 C213 1.574 . S
C230 H224 0.949 . S
C230 C234 1.368 . S
C231 C212 1.429 . S
C231 C225 1.429 . S
C231 C232 1.523 . S
C232 C213 1.368 . S
C232 C226 1.368 . S
C232 C231 1.523 . S
C233 C217 1.429 . S
C233 C229 1.429 . S
C233 C234 1.523 . S
C234 C218 1.368 . S
C234 C230 1.368 . S
C234 C233 1.523 . S
H235 C210 0.950 . S
H236 C212 0.950 1_565 S
H237 C213 0.949 . S
H238 C215 0.950 . S
H239 C217 0.950 . S
C240 C241 1.349 . S
C240 C242 1.327 . S
C240 H265 0.950 . S
C241 C240 1.349 . S
C241 C257 1.349 . S
C242 C240 1.327 . S
C242 C261 1.429 . S
C242 H266 0.950 . S
C243 C260 1.574 . S
C243 C262 1.368 . S
C243 H267 0.949 . S
H244 C248 0.949 . S
C245 C246 1.349 . S
C245 C247 1.327 . S
C245 H268 0.950 . S
C246 C245 1.349 . S
C246 C258 1.349 . S
C247 C245 1.327 . S
C247 C263 1.429 . S
C247 H269 0.950 . S
C248 H244 0.949 . S
C248 C256 1.574 . S
C248 C264 1.368 . S
H249 C257 0.950 . S
H250 C255 0.950 . S
H251 C256 0.949 . S
H252 C258 0.950 . S
H253 C259 0.950 . S
H254 C260 0.949 . S
C255 H250 0.950 . S
C255 C257 1.327 . S
C255 C261 1.429 . S
C256 C248 1.574 . S
C256 H251 0.949 . S
C256 C262 1.368 . S
C257 C241 1.349 . S
C257 H249 0.950 . S
C257 C255 1.327 . S
C258 C246 1.349 . S
C258 H252 0.950 . S
C258 C259 1.327 . S
C259 H253 0.950 . S
C259 C258 1.327 . S
C259 C263 1.429 . S
C260 C243 1.574 . S
C260 H254 0.949 . S
C260 C264 1.368 . S
C261 C242 1.429 . S
C261 C255 1.429 . S
C261 C262 1.523 . S
C262 C243 1.368 . S
C262 C256 1.368 . S
C262 C261 1.523 . S
C263 C247 1.429 . S
C263 C259 1.429 . S
C263 C264 1.523 . S
C264 C248 1.368 . S
C264 C260 1.368 . S
C264 C263 1.523 . S
H265 C240 0.950 . S
H266 C242 0.950 . S
H267 C243 0.949 . S
H268 C245 0.950 . S
H269 C247 0.950 . S
C270 C271 1.349 . S
C270 C272 1.327 . S
C270 H295 0.950 . S
C271 C270 1.349 . S
C271 C287 1.349 . S
C272 C270 1.327 . S
C272 C291 1.429 . S
C272 H296 0.950 . S
C273 C290 1.574 . S
C273 C292 1.368 . S
C273 H297 0.949 . S
H274 C278 0.949 . S
C275 C276 1.349 . S
C275 C277 1.327 . S
C275 H298 0.950 . S
C276 C275 1.349 . S
C276 C288 1.349 . S
C277 C275 1.327 . S
C277 C293 1.429 . S
C277 H299 0.950 . S
C278 H274 0.949 . S
C278 C286 1.574 . S
C278 C294 1.368 . S
H279 C287 0.950 . S
H280 C285 0.950 . S
H281 C286 0.949 . S
H282 C288 0.950 . S
H283 C289 0.950 . S
H284 C290 0.949 . S
C285 H280 0.950 . S
C285 C287 1.327 . S
C285 C291 1.429 . S
C286 C278 1.574 . S
C286 H281 0.949 . S
C286 C292 1.368 . S
C287 C271 1.349 . S
C287 H279 0.950 . S
C287 C285 1.327 . S
C288 C276 1.349 . S
C288 H282 0.950 . S
C288 C289 1.327 . S
C289 H283 0.950 . S
C289 C288 1.327 . S
C289 C293 1.429 . S
C290 C273 1.574 . S
C290 H284 0.949 . S
C290 C294 1.368 . S
C291 C272 1.429 . S
C291 C285 1.429 . S
C291 C292 1.523 . S
C292 C273 1.368 . S
C292 C286 1.368 . S
C292 C291 1.523 . S
C293 C277 1.429 . S
C293 C289 1.429 . S
C293 C294 1.523 . S
C294 C278 1.368 . S
C294 C290 1.368 . S
C294 C293 1.523 . S
H295 C270 0.950 . S
H296 C272 0.950 . S
H297 C273 0.949 . S
H298 C275 0.950 . S
H299 C277 0.950 . S
C300 C301 1.349 . S
C300 C302 1.327 . S
C300 H325 0.950 . S
C301 C300 1.349 . S
C301 C317 1.349 . S
C302 C300 1.327 . S
C302 C321 1.429 . S
C302 H326 0.950 . S
C303 C320 1.574 . S
C303 C322 1.368 . S
C303 H327 0.949 1_545 S
H304 C308 0.949 . S
C305 C306 1.349 . S
C305 C307 1.327 . S
C305 H328 0.950 . S
C306 C305 1.349 . S
C306 C318 1.349 . S
C307 C305 1.327 . S
C307 C323 1.429 . S
C307 H329 0.934 1_545 S
C308 H304 0.949 . S
C308 C316 1.574 . S
C308 C324 1.368 . S
H309 C317 0.950 1_565 S
H310 C315 0.950 1_565 S
H311 C316 0.949 . S
H312 C318 0.950 . S
H313 C319 0.950 . S
H314 C320 0.949 1_565 S
C315 H310 0.950 1_545 S
C315 C317 1.327 . S
C315 C321 1.429 . S
C316 C308 1.574 . S
C316 H311 0.949 . S
C316 C322 1.368 . S
C317 C301 1.349 . S
C317 H309 0.950 1_545 S
C317 C315 1.327 . S
C318 C306 1.349 . S
C318 H312 0.950 . S
C318 C319 1.327 . S
C319 H313 0.950 . S
C319 C318 1.327 . S
C319 C323 1.429 . S
C320 C303 1.574 . S
C320 H314 0.949 1_545 S
C320 C324 1.368 . S
C321 C302 1.429 . S
C321 C315 1.429 . S
C321 C322 1.523 . S
C322 C303 1.368 . S
C322 C316 1.368 . S
C322 C321 1.523 . S
C323 C307 1.429 . S
C323 C319 1.429 . S
C323 C324 1.523 . S
C324 C308 1.368 . S
C324 C320 1.368 . S
C324 C323 1.523 . S
H325 C300 0.950 . S
H326 C302 0.950 . S
H327 C303 0.949 1_565 S
H328 C305 0.950 . S
H329 C307 0.934 1_565 S
C330 C331 1.349 . S
C330 C332 1.327 . S
C330 H355 0.950 . S
C331 C330 1.349 . S
C331 C347 1.349 . S
C332 C330 1.327 . S
C332 C351 1.429 . S
C332 H356 0.950 . S
C333 C350 1.574 . S
C333 C352 1.368 . S
C333 H357 0.949 . S
H334 C338 0.949 . S
C335 C336 1.349 . S
C335 C337 1.327 . S
C335 H358 0.950 . S
C336 C335 1.349 . S
C336 C348 1.349 . S
C337 C335 1.327 . S
C337 C353 1.429 . S
C337 H359 0.950 . S
C338 H334 0.949 . S
C338 C346 1.574 . S
C338 C354 1.368 . S
H339 C347 0.950 . S
H340 C345 0.950 . S
H341 C346 0.949 . S
H342 C348 0.950 . S
H343 C349 0.950 . S
H344 C350 0.949 . S
C345 H340 0.950 . S
C345 C347 1.327 . S
C345 C351 1.429 . S
C346 C338 1.574 . S
C346 H341 0.949 . S
C346 C352 1.368 . S
C347 C331 1.349 . S
C347 H339 0.950 . S
C347 C345 1.327 . S
C348 C336 1.349 . S
C348 H342 0.950 . S
C348 C349 1.327 . S
C349 H343 0.950 . S
C349 C348 1.327 . S
C349 C353 1.429 . S
C350 C333 1.574 . S
C350 H344 0.949 . S
C350 C354 1.368 . S
C351 C332 1.429 . S
C351 C345 1.429 . S
C351 C352 1.523 . S
C352 C333 1.368 . S
C352 C346 1.368 . S
C352 C351 1.523 . S
C353 C337 1.429 . S
C353 C349 1.429 . S
C353 C354 1.523 . S
C354 C338 1.368 . S
C354 C350 1.368 . S
C354 C353 1.523 . S
H355 C330 0.950 . S
H356 C332 0.950 . S
H357 C333 0.949 . S
H358 C335 0.950 . S
H359 C337 0.950 . S
C360 C361 1.349 . S
C360 C362 1.327 . S
C360 H385 0.950 . S
C361 C360 1.349 . S
C361 C377 1.349 . S
C362 C360 1.327 . S
C362 C381 1.429 . S
C362 H386 0.950 . S
C363 C380 1.574 . S
C363 C382 1.368 . S
C363 H387 0.949 1_545 S
H364 C368 0.949 . S
C365 C366 1.349 . S
C365 C367 1.327 . S
C365 H388 0.950 . S
C366 C365 1.349 . S
C366 C378 1.349 . S
C367 C365 1.327 . S
C367 C383 1.429 . S
C367 H389 0.950 . S
C368 H364 0.949 . S
C368 C376 1.574 . S
C368 C384 1.368 . S
H369 C377 0.950 1_565 S
H370 C375 0.950 1_565 S
H371 C376 0.949 . S
H372 C378 0.950 . S
H373 C379 0.950 . S
H374 C380 0.949 . S
C375 H370 0.950 1_545 S
C375 C377 1.327 . S
C375 C381 1.429 . S
C376 C368 1.574 . S
C376 H371 0.949 . S
C376 C382 1.368 . S
C377 C361 1.349 . S
C377 H369 0.950 1_545 S
C377 C375 1.327 . S
C378 C366 1.349 . S
C378 H372 0.950 . S
C378 C379 1.327 . S
C379 H373 0.950 . S
C379 C378 1.327 . S
C379 C383 1.429 . S
C380 C363 1.574 . S
C380 H374 0.949 . S
C380 C384 1.368 . S
C381 C362 1.429 . S
C381 C375 1.429 . S
C381 C382 1.523 . S
C382 C363 1.368 . S
C382 C376 1.368 . S
C382 C381 1.523 . S
C383 C367 1.429 . S
C383 C379 1.429 . S
C383 C384 1.523 . S
C384 C368 1.368 . S
C384 C380 1.368 . S
C384 C383 1.523 . S
H385 C360 0.950 . S
H386 C362 0.950 . S
H387 C363 0.949 1_565 S
H388 C365 0.950 . S
H389 C367 0.950 . S
C390 C391 1.349 . S
C390 C392 1.327 . S
C390 H415 0.950 . S
C391 C390 1.349 . S
C391 C407 1.349 . S
C392 C390 1.327 . S
C392 C411 1.429 1_554 S
C392 H416 0.950 . S
C393 C410 1.574 . S
C393 C412 1.368 . S
C393 H417 0.949 . S
H394 C398 0.949 . S
C395 C396 1.349 . S
C395 C397 1.327 . S
C395 H418 0.950 . S
C396 C395 1.349 . S
C396 C408 1.349 . S
C397 C395 1.327 . S
C397 C413 1.429 . S
C397 H419 0.950 . S
C398 H394 0.949 . S
C398 C406 1.574 . S
C398 C414 1.368 . S
H399 C407 0.950 1_455 S
H400 C405 0.950 . S
H401 C406 0.949 1_554 S
H402 C408 0.950 . S
H403 C409 0.950 . S
H404 C410 0.949 . S
C405 H400 0.950 . S
C405 C407 1.327 1_556 S
C405 C411 1.429 . S
C406 C398 1.574 . S
C406 H401 0.949 1_556 S
C406 C412 1.368 . S
C407 C391 1.349 . S
C407 H399 0.950 1_655 S
C407 C405 1.327 1_554 S
C408 C396 1.349 . S
C408 H402 0.950 . S
C408 C409 1.327 . S
C409 H403 0.950 . S
C409 C408 1.327 . S
C409 C413 1.429 . S
C410 C393 1.574 . S
C410 H404 0.949 . S
C410 C414 1.368 . S
C411 C392 1.429 1_556 S
C411 C405 1.429 . S
C411 C412 1.523 . S
C412 C393 1.368 . S
C412 C406 1.368 . S
C412 C411 1.523 . S
C413 C397 1.429 . S
C413 C409 1.429 . S
C413 C414 1.523 . S
C414 C398 1.368 . S
C414 C410 1.368 . S
C414 C413 1.523 . S
H415 C390 0.950 . S
H416 C392 0.950 . S
H417 C393 0.949 . S
H418 C395 0.950 . S
H419 C397 0.950 . S
C420 C421 1.349 . S
C420 C422 1.327 . S
C420 H445 0.950 . S
C421 C420 1.349 . S
C421 C437 1.349 1_655 S
C422 C420 1.327 . S
C422 C441 1.429 . S
C422 H446 0.950 . S
C423 C440 1.574 . S
C423 C442 1.357 1_455 S
C423 H447 0.949 . S
H424 C428 0.949 . S
C425 C426 1.349 . S
C425 C427 1.327 . S
C425 H448 0.950 . S
C426 C425 1.349 . S
C426 C438 1.349 1_455 S
C427 C425 1.327 . S
C427 C443 1.429 . S
C427 H449 0.950 . S
C428 H424 0.949 . S
C428 C436 1.574 . S
C428 C444 1.368 1_655 S
H429 C437 0.950 . S
H430 C435 0.950 . S
H431 C436 0.949 . S
H432 C438 0.950 . S
H433 C439 0.950 . S
H434 C440 0.949 . S
C435 H430 0.950 . S
C435 C437 1.327 . S
C435 C441 1.429 1_455 S
C436 C428 1.574 . S
C436 H431 0.949 . S
C436 C442 1.374 . S
C437 C421 1.349 1_455 S
C437 H429 0.950 . S
C437 C435 1.327 . S
C438 C426 1.349 1_655 S
C438 H432 0.950 . S
C438 C439 1.327 . S
C439 H433 0.950 . S
C439 C438 1.327 . S
C439 C443 1.429 1_655 S
C440 C423 1.574 . S
C440 H434 0.949 . S
C440 C444 1.368 . S
C441 C422 1.429 . S
C441 C435 1.429 1_655 S
C441 C442 1.531 . S
C442 C423 1.357 1_655 S
C442 C436 1.374 . S
C442 C441 1.531 . S
C443 C427 1.429 . S
C443 C439 1.429 1_455 S
C443 C444 1.523 . S
C444 C428 1.368 1_455 S
C444 C440 1.368 . S
C444 C443 1.523 . S
H445 C420 0.950 . S
H446 C422 0.950 . S
H447 C423 0.949 . S
H448 C425 0.950 . S
H449 C427 0.950 . S
C450 C451 1.349 1_565 S
C450 C452 1.327 . S
C450 H475 0.950 . S
C451 C450 1.349 1_545 S
C451 C467 1.349 . S
C452 C450 1.327 . S
C452 C471 1.429 1_565 S
C452 H476 0.950 . S
C453 C470 1.574 . S
C453 C472 1.368 . S
C453 H477 0.949 . S
H454 C458 0.949 1_565 S
C455 C456 1.349 . S
C455 C457 1.327 . S
C455 H478 0.950 . S
C456 C455 1.349 . S
C456 C468 1.349 . S
C457 C455 1.327 . S
C457 C473 1.429 . S
C457 H479 0.950 . S
C458 H454 0.949 1_545 S
C458 C466 1.574 1_545 S
C458 C474 1.368 . S
H459 C467 0.950 . S
H460 C465 0.950 . S
H461 C466 0.949 . S
H462 C468 0.950 . S
H463 C469 0.950 1_565 S
H464 C470 0.949 . S
C465 H460 0.950 . S
C465 C467 1.327 . S
C465 C471 1.429 . S
C466 C458 1.574 1_565 S
C466 H461 0.949 . S
C466 C472 1.368 1_565 S
C467 C451 1.349 . S
C467 H459 0.950 . S
C467 C465 1.327 . S
C468 C456 1.349 . S
C468 H462 0.950 . S
C468 C469 1.327 . S
C469 H463 0.950 1_545 S
C469 C468 1.327 . S
C469 C473 1.429 . S
C470 C453 1.574 . S
C470 H464 0.949 . S
C470 C474 1.368 . S
C471 C452 1.429 1_545 S
C471 C465 1.429 . S
C471 C472 1.523 . S
C472 C453 1.368 . S
C472 C466 1.368 1_545 S
C472 C471 1.523 . S
C473 C457 1.429 . S
C473 C469 1.429 . S
C473 C474 1.523 . S
C474 C458 1.368 . S
C474 C470 1.368 . S
C474 C473 1.523 . S
H475 C450 0.950 . S
H476 C452 0.950 . S
H477 C453 0.949 . S
H478 C455 0.950 . S
H479 C457 0.950 . S
C480 C481 1.349 . S
C480 C482 1.327 1_554 S
C480 H505 0.950 . S
C481 C480 1.349 . S
C481 C497 1.349 . S
C482 C480 1.327 1_556 S
C482 C501 1.429 . S
C482 H506 0.950 . S
C483 C500 1.574 . S
C483 C502 1.368 . S
C483 H507 0.949 . S
H484 C488 0.949 . S
C485 C486 1.349 . S
C485 C487 1.327 . S
C485 H508 0.950 . S
C486 C485 1.349 . S
C486 C498 1.349 . S
C487 C485 1.327 . S
C487 C503 1.429 . S
C487 H509 0.950 . S
C488 H484 0.949 . S
C488 C496 1.574 . S
C488 C504 1.368 . S
H489 C497 0.950 . S
H490 C495 0.950 . S
H491 C496 0.949 . S
H492 C498 0.950 . S
H493 C499 0.950 . S
H494 C500 0.949 . S
C495 H490 0.950 . S
C495 C497 1.327 . S
C495 C501 1.429 1_554 S
C496 C488 1.574 . S
C496 H491 0.949 . S
C496 C502 1.368 . S
C497 C481 1.349 . S
C497 H489 0.950 . S
C497 C495 1.327 . S
C498 C486 1.349 . S
C498 H492 0.950 . S
C498 C499 1.327 . S
C499 H493 0.950 . S
C499 C498 1.327 . S
C499 C503 1.429 . S
C500 C483 1.574 . S
C500 H494 0.949 . S
C500 C504 1.368 . S
C501 C482 1.429 . S
C501 C495 1.429 1_556 S
C501 C502 1.523 . S
C502 C483 1.368 . S
C502 C496 1.368 . S
C502 C501 1.523 . S
C503 C487 1.429 . S
C503 C499 1.429 . S
C503 C504 1.523 . S
C504 C488 1.368 . S
C504 C500 1.368 . S
C504 C503 1.523 . S
H505 C480 0.950 . S
H506 C482 0.950 . S
H507 C483 0.949 . S
H508 C485 0.950 . S
H509 C487 0.950 . S
C510 C511 1.349 . S
C510 C512 1.327 . S
C510 H535 0.950 . S
C511 C510 1.349 . S
C511 C527 1.349 1_455 S
C512 C510 1.327 . S
C512 C531 1.429 . S
C512 H536 0.950 . S
C513 C530 1.574 . S
C513 C532 1.368 1_655 S
C513 H537 0.949 . S
H514 C518 0.949 . S
C515 C516 1.349 1_655 S
C515 C517 1.327 . S
C515 H538 0.950 . S
C516 C515 1.349 1_455 S
C516 C528 1.349 . S
C517 C515 1.327 . S
C517 C533 1.429 1_655 S
C517 H539 0.950 . S
C518 H514 0.949 . S
C518 C526 1.574 . S
C518 C534 1.368 . S
H519 C527 0.950 . S
H520 C525 0.950 . S
H521 C526 0.949 . S
H522 C528 0.950 . S
H523 C529 0.950 . S
H524 C530 0.949 . S
C525 H520 0.950 . S
C525 C527 1.327 . S
C525 C531 1.429 1_655 S
C526 C518 1.574 . S
C526 H521 0.949 . S
C526 C532 1.368 . S
C527 C511 1.349 1_655 S
C527 H519 0.950 . S
C527 C525 1.327 . S
C528 C516 1.349 . S
C528 H522 0.950 . S
C528 C529 1.327 . S
C529 H523 0.950 . S
C529 C528 1.327 . S
C529 C533 1.429 . S
C530 C513 1.574 . S
C530 H524 0.949 . S
C530 C534 1.368 1_655 S
C531 C512 1.429 . S
C531 C525 1.429 1_455 S
C531 C532 1.523 . S
C532 C513 1.368 1_455 S
C532 C526 1.368 . S
C532 C531 1.523 . S
C533 C517 1.429 1_455 S
C533 C529 1.429 . S
C533 C534 1.523 . S
C534 C518 1.368 . S
C534 C530 1.368 1_455 S
C534 C533 1.523 . S
H535 C510 0.950 . S
H536 C512 0.950 . S
H537 C513 0.949 . S
H538 C515 0.950 . S
H539 C517 0.950 . S
C186 C50 1.346 . S
C181 C11 1.328 . S
C211 C26 1.506 . S
C216 C89 1.514 . S
C241 C40 1.377 . S
C246 C156 1.386 . S
C271 C5 1.187 . S
C276 C57 1.342 . S
C306 C110 1.510 . S
C301 C18 1.494 . S
C331 C32 1.359 . S
C336 C135 1.376 . S
C366 C96 1.220 . S
C361 C39 1.205 . S
C391 C4 1.378 1_565 S
C396 C149 1.384 . S
C426 C64 1.351 . S
C421 C19 1.198 . S
C456 C103 1.253 . S
C451 C33 1.110 1_545 S
C486 C142 1.393 . S
C481 C12 1.386 . S
C511 C25 1.334 . S
C516 C43 1.353 . S
