# Generated by pormake.
# Topology ctn, (3,4)-cn, num edge types: 1
# Building blocks:
#     Node 0, Type 0, BuildingBlock: BELTOD_clean_linker_0, # of connection points: 3
#     Node 1, Type 0, BuildingBlock: BELTOD_clean_linker_0, # of connection points: 3
#     Node 2, Type 0, BuildingBlock: BELTOD_clean_linker_0, # of connection points: 3
#     Node 3, Type 0, BuildingBlock: BELTOD_clean_linker_0, # of connection points: 3
#     Node 4, Type 0, BuildingBlock: BELTOD_clean_linker_0, # of connection points: 3
#     Node 5, Type 0, BuildingBlock: BELTOD_clean_linker_0, # of connection points: 3
#     Node 6, Type 0, BuildingBlock: BELTOD_clean_linker_0, # of connection points: 3
#     Node 7, Type 0, BuildingBlock: BELTOD_clean_linker_0, # of connection points: 3
#     Node 8, Type 0, BuildingBlock: BELTOD_clean_linker_0, # of connection points: 3
#     Node 9, Type 0, BuildingBlock: BELTOD_clean_linker_0, # of connection points: 3
#     Node 10, Type 0, BuildingBlock: BELTOD_clean_linker_0, # of connection points: 3
#     Node 11, Type 0, BuildingBlock: BELTOD_clean_linker_0, # of connection points: 3
#     Node 12, Type 0, BuildingBlock: BELTOD_clean_linker_0, # of connection points: 3
#     Node 13, Type 0, BuildingBlock: BELTOD_clean_linker_0, # of connection points: 3
#     Node 14, Type 0, BuildingBlock: BELTOD_clean_linker_0, # of connection points: 3
#     Node 15, Type 0, BuildingBlock: BELTOD_clean_linker_0, # of connection points: 3
#     Node 16, Type 1, BuildingBlock: KUFVIS_clean_sbu_0, # of connection points: 4
#     Node 17, Type 1, BuildingBlock: KUFVIS_clean_sbu_0, # of connection points: 4
#     Node 18, Type 1, BuildingBlock: KUFVIS_clean_sbu_0, # of connection points: 4
#     Node 19, Type 1, BuildingBlock: KUFVIS_clean_sbu_0, # of connection points: 4
#     Node 20, Type 1, BuildingBlock: KUFVIS_clean_sbu_0, # of connection points: 4
#     Node 21, Type 1, BuildingBlock: KUFVIS_clean_sbu_0, # of connection points: 4
#     Node 22, Type 1, BuildingBlock: KUFVIS_clean_sbu_0, # of connection points: 4
#     Node 23, Type 1, BuildingBlock: KUFVIS_clean_sbu_0, # of connection points: 4
#     Node 24, Type 1, BuildingBlock: KUFVIS_clean_sbu_0, # of connection points: 4
#     Node 25, Type 1, BuildingBlock: KUFVIS_clean_sbu_0, # of connection points: 4
#     Node 26, Type 1, BuildingBlock: KUFVIS_clean_sbu_0, # of connection points: 4
#     Node 27, Type 1, BuildingBlock: KUFVIS_clean_sbu_0, # of connection points: 4
#     Edge 28, Type (0, 1), BuildingBlock: XUDNAN_clean_linker_2, # of connection points: 2
#     Edge 29, Type (0, 1), BuildingBlock: XUDNAN_clean_linker_2, # of connection points: 2
#     Edge 30, Type (0, 1), BuildingBlock: XUDNAN_clean_linker_2, # of connection points: 2
#     Edge 31, Type (0, 1), BuildingBlock: XUDNAN_clean_linker_2, # of connection points: 2
#     Edge 32, Type (0, 1), BuildingBlock: XUDNAN_clean_linker_2, # of connection points: 2
#     Edge 33, Type (0, 1), BuildingBlock: XUDNAN_clean_linker_2, # of connection points: 2
#     Edge 34, Type (0, 1), BuildingBlock: XUDNAN_clean_linker_2, # of connection points: 2
#     Edge 35, Type (0, 1), BuildingBlock: XUDNAN_clean_linker_2, # of connection points: 2
#     Edge 36, Type (0, 1), BuildingBlock: XUDNAN_clean_linker_2, # of connection points: 2
#     Edge 37, Type (0, 1), BuildingBlock: XUDNAN_clean_linker_2, # of connection points: 2
#     Edge 38, Type (0, 1), BuildingBlock: XUDNAN_clean_linker_2, # of connection points: 2
#     Edge 39, Type (0, 1), BuildingBlock: XUDNAN_clean_linker_2, # of connection points: 2
#     Edge 40, Type (0, 1), BuildingBlock: XUDNAN_clean_linker_2, # of connection points: 2
#     Edge 41, Type (0, 1), BuildingBlock: XUDNAN_clean_linker_2, # of connection points: 2
#     Edge 42, Type (0, 1), BuildingBlock: XUDNAN_clean_linker_2, # of connection points: 2
#     Edge 43, Type (0, 1), BuildingBlock: XUDNAN_clean_linker_2, # of connection points: 2
#     Edge 44, Type (0, 1), BuildingBlock: XUDNAN_clean_linker_2, # of connection points: 2
#     Edge 45, Type (0, 1), BuildingBlock: XUDNAN_clean_linker_2, # of connection points: 2
#     Edge 46, Type (0, 1), BuildingBlock: XUDNAN_clean_linker_2, # of connection points: 2
#     Edge 47, Type (0, 1), BuildingBlock: XUDNAN_clean_linker_2, # of connection points: 2
#     Edge 48, Type (0, 1), BuildingBlock: XUDNAN_clean_linker_2, # of connection points: 2
#     Edge 49, Type (0, 1), BuildingBlock: XUDNAN_clean_linker_2, # of connection points: 2
#     Edge 50, Type (0, 1), BuildingBlock: XUDNAN_clean_linker_2, # of connection points: 2
#     Edge 51, Type (0, 1), BuildingBlock: XUDNAN_clean_linker_2, # of connection points: 2
#     Edge 52, Type (0, 1), BuildingBlock: XUDNAN_clean_linker_2, # of connection points: 2
#     Edge 53, Type (0, 1), BuildingBlock: XUDNAN_clean_linker_2, # of connection points: 2
#     Edge 54, Type (0, 1), BuildingBlock: XUDNAN_clean_linker_2, # of connection points: 2
#     Edge 55, Type (0, 1), BuildingBlock: XUDNAN_clean_linker_2, # of connection points: 2
#     Edge 56, Type (0, 1), BuildingBlock: XUDNAN_clean_linker_2, # of connection points: 2
#     Edge 57, Type (0, 1), BuildingBlock: XUDNAN_clean_linker_2, # of connection points: 2
#     Edge 58, Type (0, 1), BuildingBlock: XUDNAN_clean_linker_2, # of connection points: 2
#     Edge 59, Type (0, 1), BuildingBlock: XUDNAN_clean_linker_2, # of connection points: 2
#     Edge 60, Type (0, 1), BuildingBlock: XUDNAN_clean_linker_2, # of connection points: 2
#     Edge 61, Type (0, 1), BuildingBlock: XUDNAN_clean_linker_2, # of connection points: 2
#     Edge 62, Type (0, 1), BuildingBlock: XUDNAN_clean_linker_2, # of connection points: 2
#     Edge 63, Type (0, 1), BuildingBlock: XUDNAN_clean_linker_2, # of connection points: 2
#     Edge 64, Type (0, 1), BuildingBlock: XUDNAN_clean_linker_2, # of connection points: 2
#     Edge 65, Type (0, 1), BuildingBlock: XUDNAN_clean_linker_2, # of connection points: 2
#     Edge 66, Type (0, 1), BuildingBlock: XUDNAN_clean_linker_2, # of connection points: 2
#     Edge 67, Type (0, 1), BuildingBlock: XUDNAN_clean_linker_2, # of connection points: 2
#     Edge 68, Type (0, 1), BuildingBlock: XUDNAN_clean_linker_2, # of connection points: 2
#     Edge 69, Type (0, 1), BuildingBlock: XUDNAN_clean_linker_2, # of connection points: 2
#     Edge 70, Type (0, 1), BuildingBlock: XUDNAN_clean_linker_2, # of connection points: 2
#     Edge 71, Type (0, 1), BuildingBlock: XUDNAN_clean_linker_2, # of connection points: 2
#     Edge 72, Type (0, 1), BuildingBlock: XUDNAN_clean_linker_2, # of connection points: 2
#     Edge 73, Type (0, 1), BuildingBlock: XUDNAN_clean_linker_2, # of connection points: 2
#     Edge 74, Type (0, 1), BuildingBlock: XUDNAN_clean_linker_2, # of connection points: 2
#     Edge 75, Type (0, 1), BuildingBlock: XUDNAN_clean_linker_2, # of connection points: 2
# Relax obj value: 0.013
# Max RMSD: 0.066
# Mean RMSD: 0.034
data_MOF--net-ctn--node1-KUFVIS_clean_sbu_0--node2-BELTOD_clean_linker_0--edge1-XUDNAN_clean_linker_2
_symmetry_space_group_name_H-M    P1
_symmetry_Int_Tables_number       1
_symmetry_cell_setting            triclinic
loop_
_symmetry_equiv_pos_as_xyz
'x, y, z'
_cell_length_a     61.590739
_cell_length_b     61.809172
_cell_length_c     61.592346
_cell_angle_alpha  90.275548
_cell_angle_beta   90.384348
_cell_angle_gamma 92.387423
loop_
_atom_site_label
_atom_site_type_symbol
_atom_site_fract_x
_atom_site_fract_y
_atom_site_fract_z
_atom_type_partial_charge
P0 P 0.05668 0.06083 0.06934 0.0
H1 H 0.05535 0.0401 0.1116 0.0
H2 H 0.02556 0.02905 0.13573 0.0
H3 H 0.97923 0.04697 0.08666 0.0
H4 H 0.00909 0.05829 0.06283 0.0
H5 H 0.10369 0.0561 0.06649 0.0
H6 H 0.12589 0.02711 0.05291 0.0
H7 H 0.06761 0.98875 0.03732 0.0
H8 H 0.04545 0.0178 0.05116 0.0
H9 H 0.04607 0.10634 0.06669 0.0
H10 H 0.04558 0.05125 0.02348 0.0
O11 O 0.07225 0.07685 0.08547 0.0
H12 H 0.03456 0.12924 0.03684 0.0
H13 H 0.03361 0.07387 0.99367 0.0
C14 C 0.03445 0.05033 0.08559 0.0
C15 C 0.03876 0.04146 0.10599 0.0
C16 C 0.0217 0.03501 0.11971 0.0
C17 C 0.99997 0.03732 0.11323 0.0
C18 C 0.99576 0.04535 0.09233 0.0
C19 C 0.01285 0.05177 0.07862 0.0
C20 C 0.07291 0.03905 0.05993 0.0
C21 C 0.09566 0.04137 0.06037 0.0
C22 C 0.10837 0.02474 0.05271 0.0
C23 C 0.09852 0.00561 0.04412 0.0
C24 C 0.07567 0.00333 0.04377 0.0
C25 C 0.06299 0.01988 0.05169 0.0
C26 C 0.04728 0.07721 0.04721 0.0
C27 C 0.04344 0.09915 0.05077 0.0
C28 C 0.03663 0.1122 0.03371 0.0
C29 C 0.03334 0.1035 0.01274 0.0
C30 C 0.03642 0.08125 0.00948 0.0
C31 C 0.04325 0.06824 0.02656 0.0
P32 P 0.32553 0.69205 0.17952 0.0
H33 H 0.35052 0.73278 0.17488 0.0
H34 H 0.3447 0.76516 0.15342 0.0
H35 H 0.28085 0.73952 0.13513 0.0
H36 H 0.28673 0.70716 0.15688 0.0
H37 H 0.36088 0.6668 0.19596 0.0
H38 H 0.38372 0.66973 0.22845 0.0
H39 H 0.35019 0.72642 0.24853 0.0
H40 H 0.3274 0.72344 0.2157 0.0
H41 H 0.31396 0.64632 0.17172 0.0
H42 H 0.2866 0.70022 0.20495 0.0
O43 O 0.33923 0.67919 0.16044 0.0
H44 H 0.28489 0.62218 0.18533 0.0
H45 H 0.25706 0.67619 0.21838 0.0
C46 C 0.31888 0.71774 0.16794 0.0
C47 C 0.33499 0.73439 0.16682 0.0
C48 C 0.33173 0.75281 0.15434 0.0
C49 C 0.31235 0.75489 0.14247 0.0
C50 C 0.29585 0.73856 0.14429 0.0
C51 C 0.29918 0.72004 0.15676 0.0
C52 C 0.3428 0.69519 0.20317 0.0
C53 C 0.35857 0.68 0.20722 0.0
C54 C 0.37151 0.68159 0.22593 0.0
C55 C 0.36882 0.69834 0.2411 0.0
C56 C 0.35288 0.71352 0.23702 0.0
C57 C 0.33984 0.71183 0.2183 0.0
C58 C 0.30226 0.67515 0.18707 0.0
C59 C 0.3014 0.65308 0.18157 0.0
C60 C 0.28469 0.63925 0.18933 0.0
C61 C 0.2686 0.64719 0.20297 0.0
C62 C 0.26931 0.66946 0.2081 0.0
C63 C 0.28606 0.68328 0.2003 0.0
P64 P 0.99753 0.48985 0.0153 0.0
H65 H 0.02664 0.46924 0.98479 0.0
H66 H 0.03049 0.43181 0.97319 0.0
H67 H 0.97696 0.41169 0.01444 0.0
H68 H 0.97336 0.44929 0.02615 0.0
H69 H 0.97783 0.52759 0.03399 0.0
H70 H 0.94324 0.54439 0.02767 0.0
H71 H 0.92291 0.49086 0.98577 0.0
H72 H 0.95799 0.47478 0.9914 0.0
H73 H 0.03697 0.51106 0.03385 0.0
H74 H 0.98093 0.47425 0.05713 0.0
O75 O 0.01289 0.50575 0.99922 0.0
H76 H 0.05167 0.51353 0.07077 0.0
H77 H 0.99563 0.47655 0.09418 0.0
C78 C 0.99956 0.46214 0.0062 0.0
C79 C 0.01561 0.45683 0.99126 0.0
C80 C 0.01777 0.43537 0.98456 0.0
C81 C 0.00403 0.41867 0.99282 0.0
C82 C 0.98799 0.42407 0.00791 0.0
C83 C 0.98583 0.44559 0.01456 0.0
C84 C 0.97038 0.49969 0.01355 0.0
C85 C 0.96575 0.51927 0.02376 0.0
C86 C 0.94586 0.52886 0.02015 0.0
C87 C 0.93012 0.51907 0.00615 0.0
C88 C 0.93467 0.4991 0.99639 0.0
C89 C 0.95468 0.48965 0.99985 0.0
C90 C 0.00786 0.49241 0.04272 0.0
C91 C 0.02773 0.50362 0.04691 0.0
C92 C 0.03609 0.50513 0.06808 0.0
C93 C 0.02483 0.49523 0.08542 0.0
C94 C 0.0048 0.48417 0.08114 0.0
C95 C 0.99636 0.48284 0.05999 0.0
P96 P 0.68375 0.81069 0.19028 0.0
H97 H 0.69304 0.85732 0.18654 0.0
H98 H 0.72206 0.88151 0.20087 0.0
H99 H 0.75084 0.82726 0.23245 0.0
H100 H 0.72149 0.8032 0.21829 0.0
H101 H 0.66261 0.76915 0.17807 0.0
H102 H 0.67494 0.73838 0.15673 0.0
H103 H 0.7392 0.76881 0.15368 0.0
H104 H 0.72676 0.79961 0.17429 0.0
H105 H 0.63704 0.817 0.19226 0.0
H106 H 0.68635 0.79202 0.23417 0.0
O107 O 0.67183 0.82366 0.17 0.0
H108 H 0.61049 0.81279 0.22114 0.0
H109 H 0.6598 0.78826 0.26358 0.0
C110 C 0.70523 0.8284 0.20113 0.0
C111 C 0.70562 0.85059 0.19648 0.0
C112 C 0.72232 0.86442 0.20459 0.0
C113 C 0.7389 0.85633 0.21769 0.0
C114 C 0.73825 0.83408 0.22257 0.0
C115 C 0.72151 0.82027 0.21445 0.0
C116 C 0.69391 0.78638 0.17847 0.0
C117 C 0.67948 0.76894 0.17324 0.0
C118 C 0.68647 0.75148 0.1609 0.0
C119 C 0.70807 0.75114 0.15371 0.0
C120 C 0.72258 0.76843 0.15935 0.0
C121 C 0.71548 0.78602 0.17131 0.0
C122 C 0.66381 0.80515 0.21112 0.0
C123 C 0.6422 0.81056 0.20768 0.0
C124 C 0.62701 0.80827 0.22432 0.0
C125 C 0.63308 0.80058 0.24486 0.0
C126 C 0.65457 0.79425 0.24798 0.0
C127 C 0.66981 0.79652 0.23122 0.0
P128 P 0.05879 0.94775 0.46322 0.0
H129 H 0.10497 0.95712 0.45508 0.0
H130 H 0.13103 0.98442 0.46895 0.0
H131 H 0.08039 0.01222 0.50717 0.0
H132 H 0.05472 0.98371 0.49422 0.0
H133 H 0.01917 0.91992 0.46432 0.0
H134 H 0.00444 0.89486 0.49113 0.0
H135 H 0.05442 0.91676 0.53674 0.0
H136 H 0.06979 0.94106 0.50925 0.0
H137 H 0.03397 0.92811 0.42738 0.0
H138 H 0.04115 0.9914 0.45694 0.0
O139 O 0.07292 0.92971 0.4496 0.0
H140 H 0.00819 0.94182 0.40128 0.0
H141 H 0.01624 0.00558 0.43017 0.0
C142 C 0.07784 0.9684 0.47355 0.0
C143 C 0.09946 0.96899 0.46655 0.0
C144 C 0.11438 0.98484 0.47438 0.0
C145 C 0.10793 1.0008 0.48912 0.0
C146 C 0.08615 1.0001 0.49611 0.0
C147 C 0.07133 0.98394 0.48853 0.0
C148 C 0.04533 0.93286 0.48481 0.0
C149 C 0.02676 0.91973 0.48019 0.0
C150 C 0.01825 0.90534 0.4957 0.0
C151 C 0.02813 0.9037 0.51628 0.0
C152 C 0.04647 0.91732 0.52104 0.0
C153 C 0.05511 0.93155 0.50538 0.0
C154 C 0.03964 0.95865 0.44417 0.0
C155 C 0.03011 0.94502 0.4282 0.0
C156 C 0.01549 0.95299 0.41307 0.0
C157 C 0.01021 0.97495 0.41333 0.0
C158 C 0.01968 0.98855 0.42952 0.0
C159 C 0.03414 0.98045 0.44485 0.0
P160 P 0.22711 0.72374 0.79344 0.0
H161 H 0.2424 0.76551 0.8117 0.0
H162 H 0.24028 0.78145 0.84793 0.0
H163 H 0.20752 0.72308 0.87115 0.0
H164 H 0.21045 0.70668 0.83482 0.0
H165 H 0.27055 0.71997 0.81025 0.0
H166 H 0.29693 0.69174 0.8081 0.0
H167 H 0.24938 0.64975 0.77517 0.0
H168 H 0.22274 0.67806 0.77786 0.0
H169 H 0.18265 0.72663 0.81111 0.0
H170 H 0.21223 0.7098 0.75034 0.0
O171 O 0.23901 0.74215 0.7772 0.0
H172 H 0.14694 0.72288 0.79441 0.0
H173 H 0.1761 0.7061 0.73337 0.0
C174 C 0.22619 0.73505 0.82046 0.0
C175 C 0.23491 0.756 0.82454 0.0
C176 C 0.23382 0.76507 0.84528 0.0
C177 C 0.2237 0.75347 0.86222 0.0
C178 C 0.21533 0.73232 0.85827 0.0
C179 C 0.21695 0.72302 0.8376 0.0
C180 C 0.24472 0.70118 0.79416 0.0
C181 C 0.26565 0.70456 0.80287 0.0
C182 C 0.28078 0.68846 0.80149 0.0
C183 C 0.27536 0.6686 0.79119 0.0
C184 C 0.25403 0.66485 0.78326 0.0
C185 C 0.23881 0.68108 0.78467 0.0
C186 C 0.20029 0.718 0.78216 0.0
C187 C 0.18159 0.72158 0.79432 0.0
C188 C 0.161 0.71952 0.78468 0.0
C189 C 0.15865 0.71414 0.76257 0.0
C190 C 0.17739 0.7104 0.75042 0.0
C191 C 0.19801 0.71229 0.76015 0.0
P192 P 0.98723 0.52279 0.48871 0.0
H193 H 0.03102 0.52304 0.47068 0.0
H194 H 0.04487 0.52228 0.43364 0.0
H195 H 0.97886 0.51979 0.40902 0.0
H196 H 0.96535 0.52196 0.44593 0.0
H197 H 0.96645 0.54177 0.52641 0.0
H198 H 0.97317 0.57549 0.54674 0.0
H199 H 0.02514 0.5937 0.5031 0.0
H200 H 0.01768 0.56047 0.48196 0.0
H201 H 0.96599 0.47963 0.49049 0.0
H202 H 0.94631 0.54563 0.4873 0.0
O203 O 1.0015 0.50526 0.50284 0.0
H204 H 0.92797 0.46691 0.49179 0.0
H205 H 0.90841 0.53335 0.49027 0.0
C206 C 0.99717 0.52267 0.46114 0.0
C207 C 0.01957 0.52254 0.45725 0.0
C208 C 0.02746 0.52182 0.436 0.0
C209 C 0.01306 0.52091 0.41811 0.0
C210 C 0.99055 0.52089 0.42221 0.0
C211 C 0.98273 0.52198 0.44345 0.0
C212 C 0.99103 0.54879 0.50215 0.0
C213 C 0.9788 0.55329 0.52068 0.0
C214 C 0.98268 0.57252 0.53237 0.0
C215 C 0.99945 0.58722 0.52625 0.0
C216 C 0.01193 0.58267 0.50791 0.0
C217 C 0.00765 0.56366 0.49585 0.0
C218 C 0.95901 0.5136 0.48943 0.0
C219 C 0.95346 0.49142 0.49043 0.0
C220 C 0.93165 0.48418 0.49139 0.0
C221 C 0.91489 0.49904 0.49147 0.0
C222 C 0.92067 0.5213 0.49004 0.0
C223 C 0.94245 0.52844 0.48864 0.0
P224 P 0.83407 0.84061 0.83529 0.0
H225 H 0.82624 0.81231 0.79733 0.0
H226 H 0.84923 0.80256 0.7666 0.0
H227 H 0.9012 0.84446 0.79234 0.0
H228 H 0.87829 0.85411 0.82266 0.0
H229 H 0.8267 0.8836 0.81848 0.0
H230 H 0.79409 0.90192 0.80735 0.0
H231 H 0.75518 0.8439 0.82157 0.0
H232 H 0.78802 0.82546 0.83148 0.0
H233 H 0.80562 0.83379 0.8725 0.0
H234 H 0.85128 0.79672 0.83667 0.0
O235 O 0.84797 0.85872 0.85069 0.0
H236 H 0.7999 0.80368 0.89771 0.0
H237 H 0.84543 0.7665 0.86159 0.0
C238 C 0.85051 0.83398 0.81222 0.0
C239 C 0.84256 0.81944 0.79622 0.0
C240 C 0.85574 0.8138 0.77877 0.0
C241 C 0.87703 0.82281 0.77696 0.0
C242 C 0.8848 0.83748 0.79302 0.0
C243 C 0.8717 0.84295 0.81047 0.0
C244 C 0.80977 0.85331 0.82621 0.0
C245 C 0.81112 0.87483 0.8191 0.0
C246 C 0.79238 0.88537 0.81294 0.0
C247 C 0.77182 0.87457 0.81378 0.0
C248 C 0.77067 0.85277 0.8205 0.0
C249 C 0.78947 0.8422 0.82642 0.0
C250 C 0.82841 0.81736 0.85232 0.0
C251 C 0.8141 0.81901 0.8698 0.0
C252 C 0.81085 0.80178 0.88422 0.0
C253 C 0.82214 0.78261 0.88165 0.0
C254 C 0.83658 0.78106 0.86414 0.0
C255 C 0.83974 0.7983 0.84969 0.0
P256 P 0.32693 0.34034 0.33308 0.0
H257 H 0.31914 0.32025 0.29021 0.0
H258 H 0.3436 0.31161 0.26029 0.0
H259 H 0.39799 0.33912 0.29718 0.0
H260 H 0.37362 0.34763 0.32677 0.0
H261 H 0.32063 0.38188 0.31251 0.0
H262 H 0.2883 0.40133 0.30252 0.0
H263 H 0.24776 0.34715 0.32468 0.0
H264 H 0.28007 0.32752 0.33345 0.0
H265 H 0.3024 0.33307 0.37278 0.0
H266 H 0.33874 0.29457 0.3284 0.0
O267 O 0.34009 0.35786 0.34972 0.0
H268 H 0.29557 0.30126 0.39562 0.0
H269 H 0.33195 0.26277 0.35112 0.0
C270 C 0.34451 0.3349 0.31054 0.0
C271 C 0.33631 0.32456 0.2917 0.0
C272 C 0.35032 0.31951 0.27471 0.0
C273 C 0.37273 0.32484 0.27629 0.0
C274 C 0.38079 0.33516 0.29526 0.0
C275 C 0.36684 0.34 0.31224 0.0
C276 C 0.30282 0.35335 0.32392 0.0
C277 C 0.30474 0.37414 0.31498 0.0
C278 C 0.2862 0.38535 0.30951 0.0
C279 C 0.26528 0.37599 0.31298 0.0
C280 C 0.26351 0.35488 0.32154 0.0
C281 C 0.28208 0.34363 0.32678 0.0
C282 C 0.32085 0.31622 0.34875 0.0
C283 C 0.30871 0.31772 0.36783 0.0
C284 C 0.30477 0.29951 0.38084 0.0
C285 C 0.3132 0.27947 0.37517 0.0
C286 C 0.32538 0.27801 0.35602 0.0
C287 C 0.32914 0.29621 0.34291 0.0
P288 P 0.48501 0.98875 0.52426 0.0
H289 H 0.46184 0.96548 0.4888 0.0
H290 H 0.46592 0.92973 0.47246 0.0
H291 H 0.51492 0.91611 0.5204 0.0
H292 H 0.51088 0.95183 0.53652 0.0
H293 H 0.47179 0.03306 0.51914 0.0
H294 H 0.43649 0.04919 0.51458 0.0
H295 H 0.40459 0.9861 0.52188 0.0
H296 H 0.44009 0.97007 0.5266 0.0
H297 H 0.51869 0.01714 0.54464 0.0
H298 H 0.47356 0.96596 0.56449 0.0
O299 O 0.50165 0.00325 0.50814 0.0
H300 H 0.53465 0.01849 0.58101 0.0
H301 H 0.48928 0.9674 0.60119 0.0
C302 C 0.48546 0.96114 0.5144 0.0
C303 C 0.47302 0.95458 0.49618 0.0
C304 C 0.47542 0.93413 0.48679 0.0
C305 C 0.49071 0.91999 0.49514 0.0
C306 C 0.50307 0.9266 0.51347 0.0
C307 C 0.50056 0.94699 0.5229 0.0
C308 C 0.4586 1.00028 0.52255 0.0
C309 C 0.4572 0.02269 0.51982 0.0
C310 C 0.43699 0.03193 0.51736 0.0
C311 C 0.41772 0.0189 0.51763 0.0
C312 C 0.41915 0.99651 0.52121 0.0
C313 C 0.43943 0.98732 0.5239 0.0
C314 C 0.49519 0.99115 0.55176 0.0
C315 C 0.51206 0.0063 0.55689 0.0
C316 C 0.52109 0.00719 0.5778 0.0
C317 C 0.51339 0.99295 0.59402 0.0
C318 C 0.49584 0.97837 0.589 0.0
C319 C 0.48677 0.97757 0.56807 0.0
P320 P 0.17959 0.33512 0.67955 0.0
H321 H 0.19438 0.37837 0.66501 0.0
H322 H 0.22232 0.40447 0.67839 0.0
H323 H 0.24094 0.35868 0.72718 0.0
H324 H 0.21285 0.33313 0.71425 0.0
H325 H 0.16878 0.31844 0.63609 0.0
H326 H 0.18338 0.29015 0.61367 0.0
H327 H 0.22833 0.27527 0.66524 0.0
H328 H 0.21468 0.30474 0.68686 0.0
H329 H 0.13482 0.3412 0.69391 0.0
H330 H 0.18915 0.30445 0.71462 0.0
O331 O 0.16293 0.34892 0.66379 0.0
H332 H 0.1133 0.32637 0.72374 0.0
H333 H 0.16893 0.29164 0.74569 0.0
C334 C 0.20103 0.35385 0.68889 0.0
C335 C 0.2044 0.37396 0.67865 0.0
C336 C 0.22053 0.38884 0.68619 0.0
C337 C 0.23369 0.38381 0.70407 0.0
C338 C 0.23075 0.36333 0.71373 0.0
C339 C 0.21462 0.34856 0.70624 0.0
C340 C 0.19053 0.31378 0.66327 0.0
C341 C 0.18187 0.3092 0.64258 0.0
C342 C 0.19013 0.29274 0.62979 0.0
C343 C 0.20702 0.28012 0.63757 0.0
C344 C 0.21557 0.28474 0.65845 0.0
C345 C 0.20753 0.3015 0.67105 0.0
C346 C 0.16379 0.32415 0.70194 0.0
C347 C 0.1423 0.33018 0.70502 0.0
C348 C 0.13002 0.32185 0.72238 0.0
C349 C 0.13914 0.30764 0.73742 0.0
C350 C 0.16087 0.302 0.73435 0.0
C351 C 0.17282 0.30977 0.71663 0.0
P352 P 0.82101 0.19539 0.68926 0.0
H353 H 0.8489 0.23162 0.67598 0.0
H354 H 0.84414 0.26191 0.65163 0.0
H355 H 0.77653 0.24209 0.64286 0.0
H356 H 0.78115 0.21239 0.66834 0.0
H357 H 0.86438 0.18197 0.70266 0.0
H358 H 0.88884 0.19346 0.73224 0.0
H359 H 0.84086 0.23709 0.75529 0.0
H360 H 0.81692 0.22611 0.72503 0.0
H361 H 0.78322 0.17421 0.66721 0.0
H362 H 0.80863 0.17931 0.73253 0.0
O363 O 0.83436 0.17933 0.6726 0.0
H364 H 0.75348 0.1502 0.67992 0.0
H365 H 0.78037 0.15433 0.74495 0.0
C366 C 0.81546 0.21955 0.67401 0.0
C367 C 0.83289 0.234 0.66923 0.0
C368 C 0.83019 0.25124 0.65504 0.0
C369 C 0.81004 0.25426 0.64485 0.0
C370 C 0.79228 0.24032 0.6504 0.0
C371 C 0.79498 0.2231 0.66486 0.0
C372 C 0.83889 0.20333 0.71155 0.0
C373 C 0.85915 0.19406 0.71404 0.0
C374 C 0.87308 0.20052 0.73114 0.0
C375 C 0.86694 0.21629 0.74623 0.0
C376 C 0.84638 0.22524 0.74381 0.0
C377 C 0.83258 0.2189 0.72658 0.0
C378 C 0.79771 0.1795 0.69899 0.0
C379 C 0.78218 0.17058 0.68436 0.0
C380 C 0.76538 0.15643 0.69161 0.0
C381 C 0.76416 0.15035 0.71361 0.0
C382 C 0.78009 0.15908 0.72807 0.0
C383 C 0.79652 0.17349 0.72088 0.0
P384 P 0.56507 0.55763 0.56035 0.0
H385 H 0.55224 0.5701 0.60418 0.0
H386 H 0.52754 0.55346 0.63072 0.0
H387 H 0.51161 0.50151 0.58545 0.0
H388 H 0.53648 0.51821 0.55901 0.0
H389 H 0.60834 0.54231 0.56968 0.0
H390 H 0.63012 0.51462 0.55337 0.0
H391 H 0.57775 0.49858 0.50823 0.0
H392 H 0.55647 0.52714 0.5241 0.0
H393 H 0.52619 0.58261 0.56437 0.0
H394 H 0.57323 0.57017 0.51483 0.0
O395 O 0.58218 0.57465 0.57375 0.0
H396 H 0.50877 0.60799 0.5406 0.0
H397 H 0.55526 0.59507 0.49037 0.0
C398 C 0.54659 0.54518 0.57974 0.0
C399 C 0.54353 0.55507 0.59997 0.0
C400 C 0.52924 0.54562 0.6151 0.0
C401 C 0.51767 0.52606 0.61028 0.0
C402 C 0.52054 0.51637 0.58983 0.0
C403 C 0.53476 0.52593 0.57465 0.0
C404 C 0.58095 0.53711 0.54782 0.0
C405 C 0.60161 0.53298 0.55613 0.0
C406 C 0.61398 0.51687 0.54694 0.0
C407 C 0.60581 0.50426 0.52939 0.0
C408 C 0.58481 0.50818 0.52143 0.0
C409 C 0.57254 0.52446 0.53054 0.0
C410 C 0.55058 0.57385 0.54118 0.0
C411 C 0.53243 0.58486 0.54811 0.0
C412 C 0.52243 0.59945 0.53439 0.0
C413 C 0.53035 0.60348 0.51332 0.0
C414 C 0.5487 0.59249 0.50646 0.0
C415 C 0.55882 0.57796 0.52033 0.0
P416 P 0.5599 0.44657 0.95636 0.0
H417 H 0.60504 0.44974 0.9422 0.0
H418 H 0.63444 0.47667 0.94749 0.0
H419 H 0.59376 0.51354 0.98929 0.0
H420 H 0.56386 0.48665 0.98363 0.0
H421 H 0.53982 0.40346 0.9603 0.0
H422 H 0.52964 0.38096 0.99119 0.0
H423 H 0.54443 0.43502 0.03436 0.0
H424 H 0.55564 0.457 0.00351 0.0
H425 H 0.54367 0.49117 0.95152 0.0
H426 H 0.5294 0.42739 0.92507 0.0
O427 O 0.57045 0.42772 0.94053 0.0
H428 H 0.51769 0.50626 0.92643 0.0
H429 H 0.50423 0.44241 0.89927 0.0
C430 C 0.58206 0.4659 0.96261 0.0
C431 C 0.60228 0.46341 0.95272 0.0
C432 C 0.61918 0.47887 0.9557 0.0
C433 C 0.61635 0.49718 0.96876 0.0
C434 C 0.59641 0.49943 0.97931 0.0
C435 C 0.57933 0.48399 0.9761 0.0
C436 C 0.54902 0.43186 0.97946 0.0
C437 C 0.54078 0.41055 0.9764 0.0
C438 C 0.53473 0.39769 0.99416 0.0
C439 C 0.53646 0.40599 0.01544 0.0
C440 C 0.54341 0.42784 0.0183 0.0
C441 C 0.54971 0.4406 1.00051 0.0
C442 C 0.53877 0.45809 0.9401 0.0
C443 C 0.53496 0.48032 0.94045 0.0
C444 C 0.52014 0.48903 0.92586 0.0
C445 C 0.50888 0.47568 0.91057 0.0
C446 C 0.51225 0.45328 0.91091 0.0
C447 C 0.52685 0.44462 0.92562 0.0
P448 P 0.70597 0.20248 0.29672 0.0
H449 H 0.74114 0.2026 0.32831 0.0
H450 H 0.74967 0.22444 0.36035 0.0
H451 H 0.689 0.2564 0.35292 0.0
H452 H 0.67994 0.23345 0.32144 0.0
H453 H 0.729 0.17719 0.26481 0.0
H454 H 0.74827 0.1436 0.26728 0.0
H455 H 0.72686 0.13575 0.33359 0.0
H456 H 0.70692 0.16907 0.33064 0.0
H457 H 0.67928 0.23606 0.27949 0.0
H458 H 0.67212 0.16746 0.2913 0.0
O459 O 0.72083 0.21702 0.27905 0.0
H460 H 0.64333 0.23553 0.26265 0.0
H461 H 0.63643 0.16654 0.27359 0.0
C462 C 0.70973 0.21605 0.32258 0.0
C463 C 0.7293 0.21378 0.33392 0.0
C464 C 0.73432 0.22656 0.35213 0.0
C465 C 0.72018 0.24245 0.35908 0.0
C466 C 0.70018 0.24421 0.34815 0.0
C467 C 0.69503 0.23114 0.33002 0.0
C468 C 0.71704 0.17591 0.29773 0.0
C469 C 0.72826 0.16813 0.2798 0.0
C470 C 0.73943 0.14897 0.28132 0.0
C471 C 0.73961 0.1372 0.30082 0.0
C472 C 0.72715 0.14438 0.31833 0.0
C473 C 0.71582 0.1635 0.31672 0.0
C474 C 0.67839 0.20183 0.28663 0.0
C475 C 0.66988 0.22087 0.27855 0.0
C476 C 0.64938 0.22049 0.26868 0.0
C477 C 0.63701 0.20093 0.26643 0.0
C478 C 0.64538 0.18193 0.27515 0.0
C479 C 0.66588 0.18239 0.28522 0.0
P480 P 0.48491 0.02204 0.9911 0.0
H481 H 0.51265 0.98844 0.97513 0.0
H482 H 0.52991 0.98189 0.94053 0.0
H483 H 0.50117 0.03886 0.91418 0.0
H484 H 0.4848 0.04588 0.94941 0.0
H485 H 0.50982 0.04394 0.02602 0.0
H486 H 0.50884 0.07993 0.04181 0.0
H487 H 0.46326 0.09799 0.99197 0.0
H488 H 0.46318 0.06125 0.97726 0.0
H489 H 0.4505 0.02041 0.95745 0.0
H490 H 0.45708 0.00389 0.02504 0.0
O491 O 0.49783 0.00718 0.00927 0.0
H492 H 0.41227 0.00816 0.95814 0.0
H493 H 0.41879 0.99186 0.02595 0.0
C494 C 0.49763 0.01785 0.96508 0.0
C495 C 0.51018 0.99968 0.96201 0.0
C496 C 0.51988 0.99578 0.942 0.0
C497 C 0.51695 0.00975 0.92433 0.0
C498 C 0.50414 0.02789 0.92743 0.0
C499 C 0.49463 0.03191 0.94761 0.0
C500 C 0.4866 0.04983 1.00039 0.0
C501 C 0.49971 0.05566 0.01835 0.0
C502 C 0.49928 0.07647 0.02731 0.0
C503 C 0.48592 0.09211 0.01831 0.0
C504 C 0.47345 0.08638 0.9997 0.0
C505 C 0.47362 0.0654 0.99099 0.0
C506 C 0.45679 0.01263 0.99107 0.0
C507 C 0.44379 0.01404 0.97241 0.0
C508 C 0.42184 0.00719 0.97289 0.0
C509 C 0.41246 0.99893 0.9921 0.0
C510 C 0.42556 0.99777 0.01081 0.0
C511 C 0.44746 0.0047 0.01031 0.0
Mn512 Mn 0.24771 0.87932 0.00871 0.0
Mn513 Mn 0.24201 0.89862 0.95787 0.0
C514 C 0.23245 0.8575 0.98144 0.0
C515 C 0.26762 0.86156 0.03521 0.0
C516 C 0.21137 0.90902 0.99431 0.0
O517 O 0.26878 0.90566 0.00906 0.0
O518 O 0.26255 0.91763 0.97516 0.0
C519 C 0.28681 0.89265 0.94239 0.0
N520 N 0.26497 0.88886 0.94006 0.0
C521 C 0.26955 0.87251 0.90497 0.0
C522 C 0.29208 0.87626 0.90696 0.0
C523 C 0.30076 0.88617 0.92586 0.0
C524 C 0.25652 0.87872 0.92226 0.0
H525 H 0.29352 0.90075 0.95664 0.0
C526 C 0.27213 0.91913 0.99367 0.0
O527 O 0.25199 0.874 0.04048 0.0
O528 O 0.27204 0.85997 0.01474 0.0
N529 N 0.22301 0.88195 0.93892 0.0
C530 C 0.201 0.87898 0.93976 0.0
C531 C 0.18988 0.86822 0.92261 0.0
C532 C 0.20144 0.86115 0.90451 0.0
C533 C 0.22404 0.86476 0.90382 0.0
C534 C 0.2343 0.87502 0.92166 0.0
H535 H 0.19206 0.88444 0.95358 0.0
O536 O 0.22835 0.85349 1.00168 0.0
O537 O 0.24541 0.87417 0.97759 0.0
O538 O 0.22138 0.89909 0.00927 0.0
O539 O 0.21745 0.9093 0.97454 0.0
C540 C 0.23676 0.85892 0.88597 0.0
C541 C 0.25948 0.86297 0.88646 0.0
H542 H 0.30287 0.87158 0.8941 0.0
H543 H 0.31814 0.88912 0.92753 0.0
H544 H 0.17242 0.86552 0.92328 0.0
H545 H 0.19278 0.85309 0.8912 0.0
H546 H 0.22926 0.85117 0.87182 0.0
H547 H 0.26911 0.85822 0.87272 0.0
Mn548 Mn 0.13598 0.50749 0.25869 0.0
Mn549 Mn 0.11692 0.55782 0.25421 0.0
C550 C 0.15771 0.53574 0.24473 0.0
C551 C 0.15358 0.47913 0.27553 0.0
C552 C 0.10387 0.52164 0.22334 0.0
O553 O 0.11074 0.50645 0.28025 0.0
O554 O 0.09864 0.53992 0.2743 0.0
C555 C 0.12636 0.57242 0.29932 0.0
N556 N 0.12863 0.57531 0.27753 0.0
C557 C 0.15007 0.60834 0.28312 0.0
C558 C 0.14786 0.60577 0.30562 0.0
C559 C 0.136 0.58771 0.31374 0.0
C560 C 0.14007 0.5926 0.26954 0.0
H561 H 0.11728 0.55856 0.30566 0.0
C562 C 0.09738 0.52141 0.28363 0.0
O563 O 0.1391 0.47582 0.26043 0.0
O564 O 0.15745 0.49911 0.28166 0.0
N565 N 0.13318 0.57704 0.23558 0.0
C566 C 0.13465 0.57658 0.21352 0.0
C567 C 0.14616 0.59341 0.20282 0.0
C568 C 0.15601 0.61053 0.2149 0.0
C569 C 0.15427 0.61066 0.23757 0.0
C570 C 0.14232 0.59361 0.24731 0.0
H571 H 0.12709 0.56347 0.20417 0.0
O572 O 0.16108 0.51584 0.23926 0.0
O573 O 0.14141 0.53854 0.25756 0.0
O574 O 0.11456 0.50751 0.23325 0.0
O575 O 0.10408 0.54148 0.22914 0.0
C576 C 0.16415 0.62689 0.25089 0.0
C577 C 0.16211 0.6257 0.27366 0.0
H578 H 0.15533 0.61748 0.3168 0.0
H579 H 0.13429 0.58556 0.33108 0.0
H580 H 0.14747 0.59317 0.18531 0.0
H581 H 0.16496 0.62345 0.20661 0.0
H582 H 0.17361 0.64021 0.24381 0.0
H583 H 0.17004 0.63811 0.28375 0.0
Mn584 Mn 0.76746 0.62432 0.00409 0.0
Mn585 Mn 0.723 0.64942 0.98632 0.0
C586 C 0.73434 0.60518 1.00019 0.0
C587 C 0.79886 0.60515 0.99792 0.0
C588 C 0.74133 0.65509 0.03193 0.0
O589 O 0.78044 0.65178 0.98988 0.0
O590 O 0.74968 0.66604 0.97731 0.0
C591 C 0.72865 0.64379 0.93895 0.0
N592 N 0.71638 0.64082 0.95709 0.0
C593 C 0.68721 0.62359 0.93635 0.0
C594 C 0.6995 0.62654 0.91744 0.0
C595 C 0.72033 0.63665 0.91876 0.0
C596 C 0.69633 0.6311 0.95601 0.0
H597 H 0.74468 0.65154 0.93988 0.0
C598 C 0.77043 0.66616 0.97931 0.0
O599 O 0.79633 0.61617 0.01564 0.0
O600 O 0.7834 0.6057 0.98353 0.0
N601 N 0.6961 0.63472 0.99364 0.0
C602 C 0.68684 0.63206 0.01353 0.0
C603 C 0.66605 0.62199 0.01508 0.0
C604 C 0.655 0.61483 0.99618 0.0
C605 C 0.66493 0.61756 0.97592 0.0
C606 C 0.68554 0.62797 0.97535 0.0
H607 H 0.69521 0.63765 0.02809 0.0
O608 O 0.74915 0.59827 0.01322 0.0
O609 O 0.7393 0.62311 0.99014 0.0
O610 O 0.75671 0.64209 0.02971 0.0
O611 O 0.728 0.65916 0.01666 0.0
C612 C 0.65527 0.61018 0.9563 0.0
C613 C 0.66643 0.61314 0.93653 0.0
H614 H 0.69318 0.62096 0.90184 0.0
H615 H 0.72995 0.63891 0.90424 0.0
H616 H 0.65853 0.6198 0.03078 0.0
H617 H 0.63891 0.60719 0.9974 0.0
H618 H 0.63939 0.60197 0.95626 0.0
H619 H 0.65897 0.60713 0.92159 0.0
Mn620 Mn 0.86793 1.00078 0.2673 0.0
Mn621 Mn 0.89442 0.95434 0.2617 0.0
C622 C 0.8502 0.97003 0.25308 0.0
C623 C 0.84624 0.02489 0.28566 0.0
C624 C 0.90145 0.99263 0.23179 0.0
O625 O 0.89365 0.00534 0.2883 0.0
O626 O 0.90962 0.97341 0.28355 0.0
C627 C 0.88688 0.9359 0.30543 0.0
N628 N 0.88491 0.93418 0.28344 0.0
C629 C 0.86729 0.89882 0.28624 0.0
C630 C 0.8692 0.90018 0.30891 0.0
C631 C 0.87902 0.91881 0.31853 0.0
C632 C 0.87557 0.91629 0.274 0.0
H633 H 0.89434 0.9502 0.31292 0.0
C634 C 0.90843 0.99201 0.29271 0.0
O635 O 0.85937 0.03121 0.27038 0.0
O636 O 0.84651 0.00463 0.29117 0.0
N637 N 0.88089 0.93446 0.24133 0.0
C638 C 0.87897 0.93633 0.21938 0.0
C639 C 0.86897 0.91929 0.20732 0.0
C640 C 0.86112 0.90053 0.21795 0.0
C641 C 0.86315 0.89903 0.24056 0.0
C642 C 0.87347 0.91642 0.2517 0.0
H643 H 0.88495 0.95074 0.21114 0.0
O644 O 0.84356 0.9891 0.24829 0.0
O645 O 0.86734 0.96963 0.26544 0.0
O646 O 0.88788 0.00443 0.24116 0.0
O647 O 0.90539 0.97357 0.23816 0.0
C648 C 0.85502 0.88113 0.25251 0.0
C649 C 0.85707 0.88103 0.27534 0.0
H650 H 0.86302 0.88711 0.31909 0.0
H651 H 0.88048 0.92002 0.33602 0.0
H652 H 0.8673 0.92063 0.18988 0.0
H653 H 0.85342 0.88741 0.2086 0.0
H654 H 0.84688 0.86748 0.24434 0.0
H655 H 0.85047 0.8673 0.28438 0.0
Mn656 Mn 0.25881 0.12901 0.5075 0.0
Mn657 Mn 0.21376 0.15234 0.48868 0.0
C658 C 0.22482 0.11205 0.51197 0.0
C659 C 0.28829 0.10663 0.50324 0.0
C660 C 0.23669 0.16657 0.53023 0.0
O661 O 0.27133 0.15139 0.48626 0.0
O662 O 0.24021 0.16572 0.47496 0.0
C663 C 0.2154 0.13762 0.44294 0.0
N664 N 0.2046 0.13864 0.46211 0.0
C665 C 0.17223 0.12211 0.44611 0.0
C666 C 0.18299 0.12089 0.42618 0.0
C667 C 0.20473 0.12851 0.42464 0.0
C668 C 0.18387 0.13084 0.46391 0.0
H669 H 0.23197 0.14387 0.44157 0.0
C670 C 0.26095 0.1647 0.47474 0.0
O671 O 0.28847 0.12187 0.51781 0.0
O672 O 0.27126 0.1048 0.49073 0.0
N673 N 0.18685 0.1411 0.50023 0.0
C674 C 0.1788 0.14347 0.52062 0.0
C675 C 0.15752 0.13584 0.52512 0.0
C676 C 0.14454 0.12642 0.50848 0.0
C677 C 0.15299 0.12469 0.48749 0.0
C678 C 0.17447 0.13214 0.48409 0.0
H679 H 0.18859 0.15097 0.5334 0.0
O680 O 0.24095 0.10748 0.52456 0.0
O681 O 0.22901 0.12631 0.49694 0.0
O682 O 0.25196 0.15329 0.52905 0.0
O683 O 0.22146 0.16736 0.51615 0.0
C684 C 0.14082 0.11625 0.46971 0.0
C685 C 0.15038 0.11513 0.449 0.0
H686 H 0.17472 0.11413 0.41196 0.0
H687 H 0.21315 0.12763 0.40931 0.0
H688 H 0.15107 0.13738 0.54133 0.0
H689 H 0.12806 0.12075 0.51195 0.0
H690 H 0.1241 0.11052 0.47179 0.0
H691 H 0.14089 0.10849 0.43548 0.0
Mn692 Mn 0.38065 0.51207 0.75286 0.0
Mn693 Mn 0.38997 0.45903 0.7593 0.0
C694 C 0.35554 0.48567 0.74027 0.0
C695 C 0.36713 0.54486 0.76449 0.0
C696 C 0.4133 0.48748 0.72599 0.0
O697 O 0.40407 0.51244 0.77676 0.0
O698 O 0.40685 0.47642 0.78121 0.0
C699 C 0.36941 0.45256 0.80227 0.0
N700 N 0.37113 0.44684 0.78099 0.0
C701 C 0.34373 0.41824 0.78489 0.0
C702 C 0.34194 0.42359 0.80694 0.0
C703 C 0.35477 0.4409 0.81563 0.0
C704 C 0.35865 0.43041 0.77239 0.0
H705 H 0.37901 0.46602 0.80895 0.0
C706 C 0.41164 0.49612 0.78655 0.0
O707 O 0.38267 0.54407 0.75046 0.0
O708 O 0.35974 0.52655 0.77237 0.0
N709 N 0.37423 0.44031 0.73938 0.0
C710 C 0.37688 0.43816 0.71754 0.0
C711 C 0.36497 0.42178 0.70625 0.0
C712 C 0.35054 0.40777 0.71753 0.0
C713 C 0.34782 0.41051 0.73993 0.0
C714 C 0.36039 0.42688 0.75037 0.0
H715 H 0.38812 0.44875 0.70883 0.0
O716 O 0.35601 0.50495 0.73198 0.0
O717 O 0.3699 0.48248 0.75529 0.0
O718 O 0.40307 0.50446 0.73016 0.0
O719 O 0.41002 0.46971 0.7362 0.0
C720 C 0.33305 0.39772 0.75226 0.0
C721 C 0.33093 0.40165 0.77471 0.0
H722 H 0.33058 0.41471 0.81726 0.0
H723 H 0.3533 0.4453 0.83257 0.0
H724 H 0.367 0.41986 0.68892 0.0
H725 H 0.34155 0.39499 0.70883 0.0
H726 H 0.32301 0.38502 0.74458 0.0
H727 H 0.31924 0.39197 0.78395 0.0
Mn728 Mn 0.75254 0.3749 0.50297 0.0
Mn729 Mn 0.75256 0.39477 0.45194 0.0
C730 C 0.74223 0.35287 0.47362 0.0
C731 C 0.7703 0.35736 0.53124 0.0
C732 C 0.71756 0.40408 0.48466 0.0
O733 O 0.77225 0.40228 0.50602 0.0
O734 O 0.77074 0.41385 0.47133 0.0
C735 C 0.79887 0.38875 0.44182 0.0
N736 N 0.77743 0.38507 0.4369 0.0
C737 C 0.78613 0.36482 0.40488 0.0
C738 C 0.8083 0.3685 0.40953 0.0
C739 C 0.81468 0.38047 0.42812 0.0
C740 C 0.77111 0.37353 0.4191 0.0
H741 H 0.80386 0.3979 0.45611 0.0
C742 C 0.77745 0.41571 0.49101 0.0
O743 O 0.75352 0.36886 0.53499 0.0
O744 O 0.77699 0.35665 0.51137 0.0
N745 N 0.73585 0.37771 0.43133 0.0
C746 C 0.71387 0.3745 0.42988 0.0
C747 C 0.70481 0.36257 0.41235 0.0
C748 C 0.71843 0.3541 0.3965 0.0
C749 C 0.741 0.35747 0.39842 0.0
C750 C 0.74908 0.36975 0.41607 0.0
H751 H 0.70334 0.38099 0.44202 0.0
O752 O 0.73554 0.3481 0.49301 0.0
O753 O 0.75425 0.37052 0.47201 0.0
O754 O 0.72545 0.39346 0.50044 0.0
O755 O 0.72629 0.40523 0.46593 0.0
C756 C 0.7558 0.34888 0.38366 0.0
C757 C 0.77836 0.3525 0.38693 0.0
H758 H 0.82055 0.36206 0.39906 0.0
H759 H 0.83176 0.38329 0.43188 0.0
H760 H 0.68737 0.35989 0.41105 0.0
H761 H 0.71141 0.34492 0.38297 0.0
H762 H 0.75002 0.33921 0.36993 0.0
H763 H 0.78958 0.34554 0.37566 0.0
Mn764 Mn 0.63721 1.00168 0.75873 0.0
Mn765 Mn 0.61458 0.05066 0.75936 0.0
C766 C 0.6566 0.03226 0.74634 0.0
C767 C 0.65698 0.97359 0.7734 0.0
C768 C 0.60169 0.01527 0.72702 0.0
O769 O 0.61263 0.99753 0.78079 0.0
O770 O 0.60001 0.03135 0.78106 0.0
C771 C 0.6277 0.06553 0.80352 0.0
N772 N 0.62746 0.0687 0.78165 0.0
C773 C 0.64658 0.10327 0.7856 0.0
C774 C 0.64684 0.10046 0.80818 0.0
C775 C 0.63741 0.08147 0.81716 0.0
C776 C 0.63652 0.08689 0.77283 0.0
H777 H 0.6206 0.05092 0.8105 0.0
C778 C 0.60005 0.01184 0.78812 0.0
O779 O 0.64253 0.97033 0.75825 0.0
O780 O 0.65969 0.99331 0.7807 0.0
N781 N 0.62768 0.07091 0.73946 0.0
C782 C 0.62776 0.07023 0.71735 0.0
C783 C 0.63741 0.0876 0.7058 0.0
C784 C 0.64678 0.10549 0.71709 0.0
C785 C 0.64666 0.10574 0.73984 0.0
C786 C 0.63665 0.08806 0.75048 0.0
H787 H 0.62057 0.05652 0.7086 0.0
O788 O 0.66127 0.01313 0.7394 0.0
O789 O 0.64044 0.0329 0.75973 0.0
O790 O 0.61524 1.00192 0.73391 0.0
O791 O 0.59988 0.03403 0.73536 0.0
C792 C 0.65646 0.12264 0.75238 0.0
C793 C 0.65643 0.1214 0.77524 0.0
H794 H 0.65447 0.11264 0.81875 0.0
H795 H 0.63768 0.07911 0.83456 0.0
H796 H 0.63762 0.08721 0.68823 0.0
H797 H 0.65419 0.11887 0.70814 0.0
H798 H 0.6644 0.13648 0.74459 0.0
H799 H 0.66436 0.13431 0.7847 0.0
Mn800 Mn 0.01068 0.25254 0.87786 0.0
Mn801 Mn 0.96221 0.25338 0.90321 0.0
C802 C 0.97894 0.24182 0.85962 0.0
C803 C 0.03961 0.26578 0.8567 0.0
C804 C 0.99465 0.21909 0.91167 0.0
O805 O 0.017 0.2738 0.90299 0.0
O806 O 0.98389 0.27259 0.9188 0.0
C807 C 0.95217 0.29904 0.89472 0.0
N808 N 0.94669 0.27752 0.89298 0.0
C809 C 0.91336 0.28491 0.87434 0.0
C810 C 0.9186 0.30716 0.87604 0.0
C811 C 0.9381 0.31424 0.88625 0.0
C812 C 0.92795 0.27053 0.88322 0.0
H813 H 0.96717 0.30459 0.90247 0.0
C814 C 0.00373 0.2796 0.91762 0.0
O815 O 0.0417 0.25057 0.87081 0.0
O816 O 0.02079 0.27456 0.85567 0.0
N817 N 0.93981 0.2358 0.88936 0.0
C818 C 0.93787 0.21381 0.88777 0.0
C819 C 0.91949 0.2041 0.8775 0.0
C820 C 0.90331 0.21708 0.86903 0.0
C821 C 0.90573 0.23967 0.87074 0.0
C822 C 0.92427 0.24843 0.88136 0.0
H823 H 0.95028 0.20377 0.89422 0.0
O824 O 0.99742 0.23436 0.85377 0.0
O825 O 0.97952 0.25474 0.87635 0.0
O826 O 0.00859 0.22695 0.89849 0.0
O827 O 0.97643 0.22756 0.915 0.0
C828 C 0.89065 0.25384 0.862 0.0
C829 C 0.89448 0.27645 0.86377 0.0
H830 H 0.90787 0.31893 0.8694 0.0
H831 H 0.94231 0.33138 0.88754 0.0
H832 H 0.91781 0.18665 0.87608 0.0
H833 H 0.88915 0.20955 0.86112 0.0
H834 H 0.8762 0.24753 0.85362 0.0
H835 H 0.88292 0.28718 0.85672 0.0
Mn836 Mn 0.49887 0.74966 0.37972 0.0
Mn837 Mn 0.44846 0.75058 0.40071 0.0
C838 C 0.46983 0.73265 0.36137 0.0
C839 C 0.52588 0.7664 0.35831 0.0
C840 C 0.4831 0.72069 0.41714 0.0
O841 O 0.50181 0.77357 0.4027 0.0
O842 O 0.467 0.7747 0.41337 0.0
C843 C 0.43478 0.79209 0.38235 0.0
N844 N 0.43149 0.7703 0.38474 0.0
C845 C 0.39774 0.77062 0.3649 0.0
C846 C 0.40071 0.79307 0.3623 0.0
C847 C 0.41939 0.80382 0.37094 0.0
C848 C 0.41381 0.75973 0.37608 0.0
H849 H 0.449 0.80046 0.38916 0.0
C850 C 0.48679 0.78197 0.41373 0.0
O851 O 0.5307 0.75222 0.37288 0.0
O852 O 0.50563 0.77103 0.35653 0.0
N853 N 0.42852 0.72848 0.38979 0.0
C854 C 0.42807 0.70677 0.39367 0.0
C855 C 0.41075 0.69357 0.38553 0.0
C856 C 0.39386 0.70286 0.37386 0.0
C857 C 0.39441 0.72529 0.37051 0.0
C858 C 0.41221 0.7376 0.37881 0.0
H859 H 0.44094 0.69953 0.40269 0.0
O860 O 0.48962 0.72762 0.35728 0.0
O861 O 0.46761 0.74786 0.37574 0.0
O862 O 0.49791 0.72626 0.40355 0.0
O863 O 0.4646 0.72936 0.41771 0.0
C864 C 0.37786 0.73596 0.35951 0.0
C865 C 0.37945 0.75863 0.35686 0.0
H866 H 0.38878 0.8022 0.35366 0.0
H867 H 0.42183 0.82114 0.36897 0.0
H868 H 0.41039 0.67628 0.38829 0.0
H869 H 0.38048 0.69264 0.36767 0.0
H870 H 0.36384 0.72688 0.353 0.0
H871 H 0.36666 0.76663 0.34829 0.0
Mn872 Mn 0.00651 0.74949 0.63682 0.0
Mn873 Mn 0.98049 0.70696 0.66092 0.0
C874 C 0.00727 0.71562 0.6207 0.0
C875 C 0.00497 0.78 0.61468 0.0
C876 C 0.02442 0.72584 0.67609 0.0
O877 O 0.98744 0.76347 0.65936 0.0
O878 O 0.96807 0.73436 0.67137 0.0
C879 C 0.93682 0.71071 0.64135 0.0
N880 N 0.95459 0.69886 0.64518 0.0
C881 C 0.93727 0.66715 0.62889 0.0
C882 C 0.91875 0.67897 0.62477 0.0
C883 C 0.9186 0.7009 0.63088 0.0
C884 C 0.95513 0.67794 0.63885 0.0
H885 H 0.93652 0.72746 0.64638 0.0
C886 C 0.97226 0.75482 0.67082 0.0
O887 O 0.0202 0.77828 0.62917 0.0
O888 O 0.99067 0.76404 0.61306 0.0
N889 N 0.99041 0.67918 0.65269 0.0
C890 C 0.00943 0.66997 0.65807 0.0
C891 C 0.01245 0.64825 0.65252 0.0
C892 C 0.99563 0.63601 0.6422 0.0
C893 C 0.97593 0.64562 0.63752 0.0
C894 C 0.97405 0.66748 0.64294 0.0
H895 H 0.02226 0.67915 0.66644 0.0
O896 O 0.02113 0.73099 0.61528 0.0
O897 O 0.99257 0.72079 0.63473 0.0
O898 O 0.02719 0.73966 0.66088 0.0
O899 O 0.0072 0.71375 0.67798 0.0
C900 C 0.95793 0.63425 0.62809 0.0
C901 C 0.93862 0.64502 0.62372 0.0
H902 H 0.90456 0.67138 0.61697 0.0
H903 H 0.90437 0.71014 0.62776 0.0
H904 H 0.02762 0.64089 0.65642 0.0
H905 H 0.99792 0.61918 0.63817 0.0
H906 H 0.95882 0.61727 0.62391 0.0
H907 H 0.92499 0.63616 0.6162 0.0
Mn908 Mn 0.50023 0.25233 0.13342 0.0
Mn909 Mn 0.46644 0.21136 0.15023 0.0
C910 C 0.49562 0.22132 0.11227 0.0
C911 C 0.50698 0.28556 0.11623 0.0
C912 C 0.5114 0.22059 0.16945 0.0
O913 O 0.482 0.26644 0.1567 0.0
O914 O 0.4585 0.23878 0.16471 0.0
C915 C 0.42529 0.22553 0.13088 0.0
N916 N 0.44041 0.21023 0.13314 0.0
C917 C 0.4199 0.18537 0.10994 0.0
C918 C 0.40405 0.20082 0.10745 0.0
C919 C 0.40679 0.22101 0.11793 0.0
C920 C 0.43796 0.19077 0.12311 0.0
H921 H 0.42735 0.24107 0.13891 0.0
C922 C 0.46548 0.25852 0.1668 0.0
O923 O 0.51954 0.27872 0.13147 0.0
O924 O 0.49021 0.27313 0.11095 0.0
N925 N 0.47199 0.18387 0.1375 0.0
C926 C 0.48931 0.17121 0.14068 0.0
C927 C 0.48933 0.15061 0.13099 0.0
C928 C 0.47155 0.14322 0.11817 0.0
C929 C 0.45385 0.15647 0.11525 0.0
C930 C 0.45462 0.17674 0.12555 0.0
H931 H 0.503 0.17678 0.15055 0.0
O932 O 0.51275 0.23407 0.11007 0.0
O933 O 0.48157 0.22722 0.12663 0.0
O934 O 0.51669 0.23607 0.15671 0.0
O935 O 0.49282 0.21062 0.16879 0.0
C936 C 0.43564 0.15051 0.10226 0.0
C937 C 0.4187 0.16497 0.09956 0.0
H938 H 0.3898 0.19743 0.0974 0.0
H939 H 0.39467 0.23305 0.11601 0.0
H940 H 0.50303 0.14046 0.13338 0.0
H941 H 0.47172 0.1274 0.11055 0.0
H942 H 0.43465 0.13499 0.094 0.0
H943 H 0.40493 0.16034 0.08927 0.0
H944 H 0.2553 0.77198 0.88837 0.0
H945 H 0.18568 0.75996 0.88308 0.0
H946 H 0.18032 0.78368 0.91495 0.0
H947 H 0.2552 0.7767 0.95132 0.0
H948 H 0.27737 0.79663 0.95016 0.0
H949 H 0.27536 0.775 0.93041 0.0
H950 H 0.2787 0.80368 0.90169 0.0
H951 H 0.27643 0.82689 0.91914 0.0
H952 H 0.25705 0.82157 0.89732 0.0
H953 H 0.18259 0.81085 0.94567 0.0
H954 H 0.1922 0.84 0.97227 0.0
H955 H 0.26001 0.83663 0.95499 0.0
C956 C 0.23901 0.77381 0.89445 0.0
C957 C 0.22088 0.76416 0.88347 0.0
C958 C 0.19974 0.76705 0.89153 0.0
C959 C 0.19658 0.78047 0.90959 0.0
C960 C 0.21477 0.79043 0.91962 0.0
C961 C 0.23563 0.78677 0.9127 0.0
C962 C 0.25231 0.80058 0.92529 0.0
C963 C 0.26585 0.78638 0.94018 0.0
C964 C 0.26701 0.81407 0.91001 0.0
C965 C 0.23745 0.81432 0.93858 0.0
C966 C 0.21594 0.80738 0.93597 0.0
C967 C 0.19934 0.81652 0.94774 0.0
C968 C 0.20488 0.83308 0.96268 0.0
C969 C 0.22664 0.841 0.96488 0.0
C970 C 0.24313 0.83139 0.95283 0.0
H971 H 0.04973 0.50147 0.40235 0.0
H972 H 0.99576 0.53995 0.38203 0.0
H973 H 0.00935 0.53981 0.34465 0.0
H974 H 0.08918 0.52986 0.37039 0.0
H975 H 0.10432 0.50634 0.36403 0.0
H976 H 0.08911 0.50729 0.38884 0.0
H977 H 0.06845 0.47142 0.37809 0.0
H978 H 0.08349 0.47049 0.35312 0.0
H979 H 0.0542 0.46953 0.35244 0.0
H980 H 0.02972 0.5381 0.3102 0.0
H981 H 0.05695 0.5368 0.28117 0.0
H982 H 0.09879 0.50044 0.32312 0.0
C983 C 0.0407 0.50987 0.39009 0.0
C984 C 0.02138 0.52046 0.39533 0.0
C985 C 0.01018 0.53116 0.37857 0.0
C986 C 0.01785 0.53128 0.3572 0.0
C987 C 0.03685 0.52073 0.35268 0.0
C988 C 0.04824 0.51033 0.36863 0.0
C989 C 0.0691 0.50162 0.35962 0.0
C990 C 0.08911 0.5119 0.37142 0.0
C991 C 0.06878 0.47679 0.3609 0.0
C992 C 0.06783 0.50917 0.33623 0.0
C993 C 0.0489 0.51992 0.33261 0.0
C994 C 0.04448 0.52952 0.31276 0.0
C995 C 0.06005 0.52868 0.29637 0.0
C996 C 0.07986 0.51832 0.29981 0.0
C997 C 0.08356 0.50798 0.31986 0.0
H998 H 0.78398 0.76683 0.89953 0.0
H999 H 0.85339 0.75733 0.89929 0.0
H1000 H 0.84822 0.72731 0.9254 0.0
H1001 H 0.77559 0.75614 0.9566 0.0
H1002 H 0.74955 0.74237 0.9522 0.0
H1003 H 0.75888 0.76326 0.93379 0.0
H1004 H 0.75392 0.73648 0.90142 0.0
H1005 H 0.74451 0.71556 0.91973 0.0
H1006 H 0.76719 0.71104 0.90217 0.0
H1007 H 0.83507 0.69776 0.95158 0.0
H1008 H 0.81494 0.67069 0.9741 0.0
H1009 H 0.75448 0.7004 0.95708 0.0
C1010 C 0.79815 0.75861 0.90512 0.0
C1011 C 0.8191 0.76449 0.89735 0.0
C1012 C 0.83713 0.75299 0.90482 0.0
C1013 C 0.83438 0.73601 0.91978 0.0
C1014 C 0.81349 0.73069 0.92714 0.0
C1015 C 0.7957 0.74164 0.91999 0.0
C1016 C 0.77489 0.73249 0.9299 0.0
C1017 C 0.7641 0.74959 0.94396 0.0
C1018 C 0.75921 0.72335 0.91225 0.0
C1019 C 0.78372 0.71462 0.9437 0.0
C1020 C 0.80601 0.71383 0.94202 0.0
C1021 C 0.8176 0.6983 0.95306 0.0
C1022 C 0.80603 0.68302 0.96587 0.0
C1023 C 0.78309 0.68334 0.96748 0.0
C1024 C 0.77199 0.6996 0.95636 0.0
H1025 H 0.00595 0.96308 0.37031 0.0
H1026 H 0.9795 0.00584 0.41867 0.0
H1027 H 0.95328 0.01845 0.39149 0.0
H1028 H 0.99869 0.99741 0.32297 0.0
H1029 H 0.9909 0.97478 0.30564 0.0
H1030 H 0.00925 0.97114 0.32811 0.0
H1031 H 0.98366 0.94044 0.34312 0.0
H1032 H 0.96537 0.94388 0.32064 0.0
H1033 H 0.95554 0.94573 0.34806 0.0
H1034 H 0.92788 0.02436 0.35933 0.0
H1035 H 0.90465 0.02112 0.3264 0.0
H1036 H 0.94717 0.97335 0.30022 0.0
C1037 C 0.9947 0.97511 0.37531 0.0
C1038 C 0.99495 0.98344 0.39675 0.0
C1039 C 0.98 0.99941 0.40231 0.0
C1040 C 0.96496 0.00665 0.38697 0.0
C1041 C 0.96501 0.99782 0.36609 0.0
C1042 C 0.97949 0.98233 0.36032 0.0
C1043 C 0.97525 0.9741 0.33745 0.0
C1044 C 0.99468 0.9797 0.32267 0.0
C1045 C 0.96961 0.9496 0.33732 0.0
C1046 C 0.95577 0.98698 0.33138 0.0
C1047 C 0.95026 1.00086 0.34791 0.0
C1048 C 0.9322 0.01368 0.34622 0.0
C1049 C 0.91914 0.01182 0.3274 0.0
C1050 C 0.92407 0.99701 0.31068 0.0
C1051 C 0.94295 0.98488 0.31263 0.0
H1052 H 0.18468 0.25334 0.60828 0.0
H1053 H 0.24919 0.26667 0.63545 0.0
H1054 H 0.26338 0.23767 0.61264 0.0
H1055 H 0.18784 0.19562 0.60214 0.0
H1056 H 0.17351 0.19479 0.57652 0.0
H1057 H 0.16805 0.21549 0.59621 0.0
H1058 H 0.17687 0.24517 0.56763 0.0
H1059 H 0.18225 0.22457 0.54785 0.0
H1060 H 0.20267 0.24551 0.55394 0.0
H1061 H 0.27071 0.20726 0.58615 0.0
H1062 H 0.27084 0.17981 0.55677 0.0
H1063 H 0.20217 0.18873 0.54529 0.0
C1064 C 0.20184 0.25039 0.60942 0.0
C1065 C 0.21569 0.26239 0.62392 0.0
C1066 C 0.23801 0.25752 0.62493 0.0
C1067 C 0.24631 0.24113 0.6119 0.0
C1068 C 0.23219 0.2298 0.59774 0.0
C1069 C 0.21046 0.23435 0.59632 0.0
C1070 C 0.19888 0.2206 0.57905 0.0
C1071 C 0.18101 0.20575 0.58909 0.0
C1072 C 0.18963 0.23481 0.56106 0.0
C1073 C 0.21752 0.2077 0.57085 0.0
C1074 C 0.23656 0.21299 0.582 0.0
C1075 C 0.2559 0.20302 0.5773 0.0
C1076 C 0.2558 0.18741 0.56062 0.0
C1077 C 0.23655 0.18214 0.54864 0.0
C1078 C 0.2172 0.19243 0.55402 0.0
H1079 H 0.48866 0.54592 0.6368 0.0
H1080 H 0.51306 0.48299 0.62078 0.0
H1081 H 0.48891 0.46606 0.64835 0.0
H1082 H 0.4847 0.53763 0.69425 0.0
H1083 H 0.46006 0.55215 0.6969 0.0
H1084 H 0.47901 0.55915 0.67566 0.0
H1085 H 0.44839 0.55327 0.64689 0.0
H1086 H 0.42936 0.54626 0.66805 0.0
H1087 H 0.43315 0.52774 0.64583 0.0
H1088 H 0.4625 0.45615 0.67856 0.0
H1089 H 0.43541 0.45402 0.708 0.0
H1090 H 0.42846 0.52353 0.70393 0.0
C1091 C 0.48903 0.52859 0.63915 0.0
C1092 C 0.5028 0.51579 0.6266 0.0
C1093 C 0.5025 0.49311 0.63 0.0
C1094 C 0.48892 0.48336 0.64572 0.0
C1095 C 0.47564 0.49647 0.65787 0.0
C1096 C 0.47553 0.51859 0.65468 0.0
C1097 C 0.4597 0.52907 0.66978 0.0
C1098 C 0.47158 0.54547 0.68505 0.0
C1099 C 0.44158 0.53971 0.65686 0.0
C1100 C 0.451 0.50943 0.68207 0.0
C1101 C 0.46039 0.49077 0.67501 0.0
C1102 C 0.45501 0.47067 0.68417 0.0
C1103 C 0.43962 0.46963 0.70093 0.0
C1104 C 0.4297 0.48857 0.70835 0.0
C1105 C 0.43559 0.50868 0.69867 0.0
H1106 H 0.77589 0.28103 0.63595 0.0
H1107 H 0.83989 0.26454 0.61356 0.0
H1108 H 0.83755 0.29118 0.58428 0.0
H1109 H 0.75252 0.28668 0.58313 0.0
H1110 H 0.73622 0.30914 0.59034 0.0
H1111 H 0.74334 0.28978 0.61066 0.0
H1112 H 0.76019 0.32082 0.63455 0.0
H1113 H 0.7532 0.34028 0.61423 0.0
H1114 H 0.78095 0.33887 0.62342 0.0
H1115 H 0.82792 0.3177 0.5562 0.0
H1116 H 0.81108 0.34239 0.53037 0.0
H1117 H 0.75312 0.34251 0.57006 0.0
C1118 C 0.78943 0.28308 0.62493 0.0
C1119 C 0.80825 0.27082 0.6274 0.0
C1120 C 0.82555 0.27404 0.6125 0.0
C1121 C 0.82434 0.28908 0.59567 0.0
C1122 C 0.8057 0.30091 0.59378 0.0
C1123 C 0.78851 0.29813 0.60792 0.0
C1124 C 0.77003 0.31244 0.60156 0.0
C1125 C 0.7493 0.29869 0.5961 0.0
C1126 C 0.76585 0.32909 0.61951 0.0
C1127 C 0.77944 0.32336 0.58145 0.0
C1128 C 0.80009 0.31648 0.5774 0.0
C1129 C 0.81183 0.32337 0.55929 0.0
C1130 C 0.80212 0.33739 0.5447 0.0
C1131 C 0.78087 0.34451 0.54827 0.0
C1132 C 0.76953 0.33764 0.56711 0.0
H1133 H 0.52899 0.02735 0.6194 0.0
H1134 H 0.52366 0.9571 0.61713 0.0
H1135 H 0.54415 0.95551 0.65153 0.0
H1136 H 0.5832 0.03165 0.63973 0.0
H1137 H 0.57887 0.05457 0.65715 0.0
H1138 H 0.56261 0.05044 0.63295 0.0
H1139 H 0.52754 0.05098 0.65587 0.0
H1140 H 0.54369 0.05519 0.68015 0.0
H1141 H 0.52418 0.03267 0.67841 0.0
H1142 H 0.56732 0.9612 0.6845 0.0
H1143 H 0.59035 0.9738 0.71522 0.0
H1144 H 0.58051 0.04055 0.6972 0.0
C1145 C 0.53204 0.01163 0.6262 0.0
C1146 C 0.52455 0.99232 0.61556 0.0
C1147 C 0.52884 0.97211 0.6251 0.0
C1148 C 0.54061 0.97103 0.64459 0.0
C1149 C 0.54792 0.99031 0.65451 0.0
C1150 C 0.54369 0.01025 0.64578 0.0
C1151 C 0.55384 0.02848 0.65962 0.0
C1152 C 0.57063 0.04208 0.64658 0.0
C1153 C 0.53626 0.04267 0.66907 0.0
C1154 C 0.56471 0.01562 0.67726 0.0
C1155 C 0.56107 0.99363 0.67392 0.0
C1156 C 0.57012 0.97838 0.68741 0.0
C1157 C 0.58328 0.98573 0.70479 0.0
C1158 C 0.58723 0.00818 0.70871 0.0
C1159 C 0.57762 0.0233 0.6948 0.0
H1160 H 0.8955 0.1923 0.77027 0.0
H1161 H 0.87318 0.25759 0.7623 0.0
H1162 H 0.89823 0.27044 0.79132 0.0
H1163 H 0.90244 0.19381 0.82746 0.0
H1164 H 0.9274 0.17959 0.82849 0.0
H1165 H 0.90806 0.17418 0.80684 0.0
H1166 H 0.93629 0.18328 0.77751 0.0
H1167 H 0.95659 0.18758 0.79845 0.0
H1168 H 0.95198 0.20854 0.7789 0.0
H1169 H 0.92694 0.27688 0.81947 0.0
H1170 H 0.9569 0.2762 0.84621 0.0
H1171 H 0.96102 0.20699 0.83663 0.0
C1172 C 0.89592 0.20933 0.77451 0.0
C1173 C 0.8821 0.22386 0.76399 0.0
C1174 C 0.88315 0.24598 0.77032 0.0
C1175 C 0.89748 0.2535 0.78671 0.0
C1176 C 0.91082 0.23879 0.79664 0.0
C1177 C 0.91026 0.21718 0.79079 0.0
C1178 C 0.92677 0.20491 0.80377 0.0
C1179 C 0.91551 0.18707 0.81747 0.0
C1180 C 0.94392 0.19553 0.78876 0.0
C1181 C 0.93661 0.22302 0.8179 0.0
C1182 C 0.92719 0.24243 0.81337 0.0
C1183 C 0.93417 0.26172 0.82344 0.0
C1184 C 0.95107 0.26115 0.8387 0.0
C1185 C 0.96056 0.24141 0.8441 0.0
C1186 C 0.95353 0.22217 0.83324 0.0
H1187 H 0.46034 0.89017 0.47853 0.0
H1188 H 0.52984 0.90229 0.48656 0.0
H1189 H 0.53652 0.86794 0.46761 0.0
H1190 H 0.46039 0.83213 0.4864 0.0
H1191 H 0.43953 0.82639 0.46628 0.0
H1192 H 0.44022 0.85173 0.48088 0.0
H1193 H 0.44134 0.87257 0.44447 0.0
H1194 H 0.44066 0.8473 0.42977 0.0
H1195 H 0.4623 0.86723 0.4251 0.0
H1196 H 0.53567 0.83279 0.44625 0.0
H1197 H 0.52721 0.79924 0.42528 0.0
H1198 H 0.45828 0.80984 0.43183 0.0
C1199 C 0.47697 0.88562 0.47628 0.0
C1200 C 0.49456 0.89894 0.48415 0.0
C1201 C 0.51607 0.89225 0.481 0.0
C1202 C 0.52004 0.8728 0.47013 0.0
C1203 C 0.50235 0.86009 0.46255 0.0
C1204 C 0.48123 0.86618 0.46558 0.0
C1205 C 0.4651 0.84963 0.45578 0.0
C1206 C 0.45045 0.83936 0.47339 0.0
C1207 C 0.45156 0.85979 0.43771 0.0
C1208 C 0.48044 0.8334 0.44662 0.0
C1209 C 0.50186 0.83973 0.45063 0.0
C1210 C 0.51893 0.82761 0.44315 0.0
C1211 C 0.51396 0.80857 0.43122 0.0
C1212 C 0.49209 0.80171 0.42698 0.0
C1213 C 0.47519 0.81438 0.43495 0.0
H1214 H 0.10476 0.32553 0.75974 0.0
H1215 H 0.14315 0.26801 0.75704 0.0
H1216 H 0.12361 0.25331 0.78845 0.0
H1217 H 0.09851 0.32885 0.81754 0.0
H1218 H 0.07044 0.33599 0.81645 0.0
H1219 H 0.08842 0.34333 0.79448 0.0
H1220 H 0.06236 0.32346 0.76711 0.0
H1221 H 0.04421 0.31622 0.78896 0.0
H1222 H 0.0544 0.29544 0.7716 0.0
H1223 H 0.10126 0.24493 0.82049 0.0
H1224 H 0.07345 0.24056 0.84857 0.0
H1225 H 0.04555 0.30085 0.82871 0.0
C1226 C 0.10903 0.30976 0.76551 0.0
C1227 C 0.12617 0.29837 0.75597 0.0
C1228 C 0.13093 0.27772 0.76436 0.0
C1229 C 0.11972 0.26902 0.78218 0.0
C1230 C 0.1033 0.2808 0.79127 0.0
C1231 C 0.09755 0.30047 0.78302 0.0
C1232 C 0.07819 0.30897 0.79515 0.0
C1233 C 0.08426 0.33057 0.80658 0.0
C1234 C 0.05863 0.31115 0.77979 0.0
C1235 C 0.07408 0.29095 0.81151 0.0
C1236 C 0.0891 0.27513 0.8091 0.0
C1237 C 0.08927 0.25709 0.82245 0.0
C1238 C 0.07341 0.25485 0.83847 0.0
C1239 C 0.05723 0.27034 0.84087 0.0
C1240 C 0.05766 0.28874 0.82724 0.0
H1241 H 0.54914 0.63272 0.48406 0.0
H1242 H 0.48673 0.60997 0.50964 0.0
H1243 H 0.46859 0.63749 0.48825 0.0
H1244 H 0.53861 0.68891 0.48278 0.0
H1245 H 0.55219 0.69419 0.4574 0.0
H1246 H 0.56069 0.67253 0.47454 0.0
H1247 H 0.55484 0.64526 0.44278 0.0
H1248 H 0.54648 0.66687 0.42549 0.0
H1249 H 0.52885 0.64317 0.42912 0.0
H1250 H 0.4572 0.66837 0.46601 0.0
H1251 H 0.45252 0.69906 0.4416 0.0
H1252 H 0.5217 0.70112 0.42772 0.0
C1253 C 0.53163 0.63328 0.48494 0.0
C1254 C 0.51947 0.61924 0.49891 0.0
C1255 C 0.49657 0.62078 0.4996 0.0
C1256 C 0.48604 0.6363 0.48736 0.0
C1257 C 0.49851 0.65009 0.47417 0.0
C1258 C 0.52075 0.64861 0.47259 0.0
C1259 C 0.53015 0.66546 0.45695 0.0
C1260 C 0.54637 0.6812 0.46862 0.0
C1261 C 0.5407 0.65453 0.43742 0.0
C1262 C 0.50971 0.67673 0.4502 0.0
C1263 C 0.49173 0.6676 0.46051 0.0
C1264 C 0.47111 0.67551 0.45765 0.0
C1265 C 0.46867 0.69307 0.44371 0.0
C1266 C 0.48669 0.70256 0.43247 0.0
C1267 C 0.50754 0.69419 0.43586 0.0
H1268 H 0.88296 0.78232 0.75959 0.0
H1269 H 0.90373 0.84992 0.75308 0.0
H1270 H 0.92937 0.84008 0.72439 0.0
H1271 H 0.93476 0.76071 0.75303 0.0
H1272 H 0.92517 0.73728 0.73766 0.0
H1273 H 0.90747 0.74971 0.75675 0.0
H1274 H 0.87877 0.75432 0.72635 0.0
H1275 H 0.89637 0.74181 0.70717 0.0
H1276 H 0.88647 0.7683 0.70177 0.0
H1277 H 0.95394 0.82274 0.69753 0.0
H1278 H 0.9755 0.79921 0.67434 0.0
H1279 H 0.93864 0.74283 0.69815 0.0
C1280 C 0.89262 0.7951 0.75186 0.0
C1281 C 0.89133 0.81691 0.75863 0.0
C1282 C 0.90458 0.83308 0.74834 0.0
C1283 C 0.91911 0.82767 0.73194 0.0
C1284 C 0.92023 0.80599 0.7259 0.0
C1285 C 0.90728 0.78996 0.73547 0.0
C1286 C 0.91222 0.76782 0.72651 0.0
C1287 C 0.92039 0.75302 0.74456 0.0
C1288 C 0.89227 0.75745 0.71475 0.0
C1289 C 0.93016 0.77389 0.71065 0.0
C1290 C 0.93444 0.796 0.71046 0.0
C1291 C 0.95065 0.80541 0.69745 0.0
C1292 C 0.96285 0.79187 0.68434 0.0
C1293 C 0.95887 0.7691 0.68434 0.0
C1294 C 0.94216 0.76013 0.69766 0.0
H1295 H 0.05195 0.87963 0.54491 0.0
H1296 H 0.98575 0.88967 0.52357 0.0
H1297 H 0.97266 0.85975 0.54699 0.0
H1298 H 0.04827 0.82301 0.54763 0.0
H1299 H 0.06451 0.82099 0.57194 0.0
H1300 H 0.06875 0.84376 0.55414 0.0
H1301 H 0.06244 0.87013 0.58608 0.0
H1302 H 0.05836 0.84743 0.60406 0.0
H1303 H 0.03781 0.86723 0.60163 0.0
H1304 H 0.96708 0.82671 0.57032 0.0
H1305 H 0.96912 0.79493 0.59437 0.0
H1306 H 0.03837 0.80823 0.60289 0.0
C1307 C 0.03463 0.87597 0.54548 0.0
C1308 C 0.01996 0.88704 0.53212 0.0
C1309 C 0.99746 0.88124 0.5332 0.0
C1310 C 0.9898 0.86433 0.54661 0.0
C1311 C 0.00476 0.85353 0.55917 0.0
C1312 C 0.02666 0.85933 0.559 0.0
C1313 C 0.03935 0.84495 0.57391 0.0
C1314 C 0.05621 0.83244 0.56114 0.0
C1315 C 0.05012 0.85823 0.59253 0.0
C1316 C 0.02121 0.82991 0.58219 0.0
C1317 C 1.0014 0.83508 0.57339 0.0
C1318 C 0.98245 0.82272 0.57757 0.0
C1319 C 0.98378 0.80465 0.59117 0.0
C1320 C 0.00384 0.79927 0.60063 0.0
C1321 C 0.02275 0.81218 0.59616 0.0
H1322 H 0.1463 0.73086 0.7232 0.0
H1323 H 0.12137 0.69513 0.77884 0.0
H1324 H 0.08446 0.69486 0.76294 0.0
H1325 H 0.10083 0.76442 0.71641 0.0
H1326 H 0.10145 0.76397 0.68716 0.0
H1327 H 0.12613 0.76095 0.70251 0.0
H1328 H 0.13254 0.72475 0.68266 0.0
H1329 H 0.10798 0.72774 0.66712 0.0
H1330 H 0.11152 0.70356 0.68276 0.0
H1331 H 0.05045 0.6985 0.74135 0.0
H1332 H 0.02121 0.70539 0.7152 0.0
H1333 H 0.06775 0.73923 0.67338 0.0
C1334 C 0.13311 0.72275 0.73189 0.0
C1335 C 0.13672 0.71301 0.75229 0.0
C1336 C 0.11896 0.70286 0.76331 0.0
C1337 C 0.09796 0.70256 0.75438 0.0
C1338 C 0.09493 0.71253 0.73442 0.0
C1339 C 0.11198 0.72239 0.72325 0.0
C1340 C 0.10415 0.73214 0.70217 0.0
C1341 C 0.10839 0.75684 0.70207 0.0
C1342 C 0.11467 0.7214 0.68251 0.0
C1343 C 0.08003 0.72624 0.70328 0.0
C1344 C 0.07514 0.71488 0.72201 0.0
C1345 C 0.05407 0.70739 0.72663 0.0
C1346 C 0.03756 0.71141 0.71163 0.0
C1347 C 0.0421 0.72293 0.6922 0.0
C1348 C 0.06367 0.73057 0.68813 0.0
H1349 H 0.97446 0.62187 0.53511 0.0
H1350 H 0.03674 0.59478 0.54917 0.0
H1351 H 0.04492 0.62421 0.57578 0.0
H1352 H 0.9959 0.67986 0.54053 0.0
H1353 H 0.97042 0.68828 0.55126 0.0
H1354 H 0.97084 0.66614 0.53213 0.0
H1355 H 0.94888 0.64378 0.55899 0.0
H1356 H 0.95042 0.6634 0.58071 0.0
H1357 H 0.96056 0.63658 0.58451 0.0
H1358 H 0.0463 0.65626 0.60065 0.0
H1359 H 0.04118 0.68955 0.62211 0.0
H1360 H 0.97722 0.69526 0.59359 0.0
C1361 C 0.98993 0.62243 0.5436 0.0
C1362 C 0.00504 0.60619 0.54021 0.0
C1363 C 0.02511 0.60724 0.55152 0.0
C1364 C 0.02983 0.62383 0.56666 0.0
C1365 C 0.01445 0.63941 0.56997 0.0
C1366 C 0.99513 0.63919 0.55841 0.0
C1367 C 0.98152 0.65802 0.56501 0.0
C1368 C 0.97956 0.67402 0.54611 0.0
C1369 C 0.959 0.65002 0.57284 0.0
C1370 C 0.99549 0.66793 0.58322 0.0
C1371 C 0.01473 0.65729 0.58526 0.0
C1372 C 0.0312 0.66453 0.59945 0.0
C1373 C 0.02814 0.68334 0.61162 0.0
C1374 C 0.00849 0.69427 0.61016 0.0
C1375 C 0.99195 0.6865 0.59575 0.0
H1376 H 0.76079 0.89005 0.19693 0.0
H1377 H 0.7568 0.85624 0.25852 0.0
H1378 H 0.78565 0.88096 0.27351 0.0
H1379 H 0.81804 0.9002 0.19713 0.0
H1380 H 0.81781 0.92719 0.18617 0.0
H1381 H 0.79643 0.90753 0.17919 0.0
H1382 H 0.76681 0.9321 0.19286 0.0
H1383 H 0.78743 0.9528 0.19894 0.0
H1384 H 0.76889 0.9436 0.21978 0.0
H1385 H 0.81279 0.91058 0.28271 0.0
H1386 H 0.83861 0.94212 0.28488 0.0
H1387 H 0.82632 0.95642 0.21721 0.0
C1388 C 0.76591 0.88789 0.2136 0.0
C1389 C 0.75654 0.87111 0.22652 0.0
C1390 C 0.76392 0.86872 0.24819 0.0
C1391 C 0.78021 0.88277 0.2569 0.0
C1392 C 0.78899 0.89915 0.24377 0.0
C1393 C 0.78218 0.90178 0.22258 0.0
C1394 C 0.7942 0.92089 0.21206 0.0
C1395 C 0.80742 0.91352 0.19248 0.0
C1396 C 0.77839 0.93838 0.20553 0.0
C1397 C 0.80885 0.92857 0.23068 0.0
C1398 C 0.8054 0.91584 0.24885 0.0
C1399 C 0.81598 0.92037 0.26847 0.0
C1400 C 0.83072 0.93819 0.2695 0.0
C1401 C 0.83514 0.95098 0.25094 0.0
C1402 C 0.82372 0.9464 0.2314 0.0
H1403 H 0.78059 0.13259 0.28475 0.0
H1404 H 0.73034 0.09871 0.32205 0.0
H1405 H 0.75374 0.0673 0.3254 0.0
H1406 H 0.79577 0.08723 0.25403 0.0
H1407 H 0.82423 0.09531 0.25363 0.0
H1408 H 0.80413 0.11549 0.25582 0.0
H1409 H 0.82283 0.13022 0.29105 0.0
H1410 H 0.84289 0.10992 0.28906 0.0
H1411 H 0.82703 0.11211 0.3134 0.0
H1412 H 0.78223 0.03866 0.32282 0.0
H1413 H 0.81222 0.01506 0.31307 0.0
H1414 H 0.84303 0.06793 0.27698 0.0
C1415 C 0.77438 0.11856 0.29356 0.0
C1416 C 0.75354 0.11816 0.30309 0.0
C1417 C 0.74631 0.09954 0.31479 0.0
C1418 C 0.75948 0.0816 0.31675 0.0
C1419 C 0.77988 0.08254 0.30701 0.0
C1420 C 0.78724 0.10057 0.29561 0.0
C1421 C 0.80929 0.09726 0.28575 0.0
C1422 C 0.80828 0.09891 0.26084 0.0
C1423 C 0.82652 0.11333 0.2954 0.0
C1424 C 0.81307 0.07436 0.29298 0.0
C1425 C 0.79609 0.06618 0.30544 0.0
C1426 C 0.79569 0.04499 0.31322 0.0
C1427 C 0.81283 0.03172 0.30766 0.0
C1428 C 0.83002 0.03966 0.29434 0.0
C1429 C 0.83024 0.0614 0.28734 0.0
H1430 H 0.39412 0.9627 0.01178 0.0
H1431 H 0.37794 0.01864 0.9735 0.0
H1432 H 0.33939 0.00604 0.97317 0.0
H1433 H 0.35868 0.9252 0.98504 0.0
H1434 H 0.35128 0.91015 0.00907 0.0
H1435 H 0.37728 0.92445 0.00773 0.0
H1436 H 0.36861 0.94519 0.04309 0.0
H1437 H 0.34248 0.931 0.04444 0.0
H1438 H 0.34417 0.96019 0.04454 0.0
H1439 H 0.30335 0.98605 0.97439 0.0
H1440 H 0.27236 0.9595 0.9763 0.0
H1441 H 0.31127 0.91705 0.01495 0.0
C1442 C 0.38241 0.97253 0.00369 0.0
C1443 C 0.3891 0.99169 0.99265 0.0
C1444 C 0.37329 0.0038 0.98185 0.0
C1445 C 0.35131 0.99688 0.98175 0.0
C1446 C 0.34531 0.97787 0.99265 0.0
C1447 C 0.36038 0.96586 0.00345 0.0
C1448 C 0.34982 0.94535 0.01278 0.0
C1449 C 0.35986 0.92509 0.00307 0.0
C1450 C 0.35136 0.94545 0.0377 0.0
C1451 C 0.32656 0.94748 0.00514 0.0
C1452 C 0.32431 0.96646 0.99369 0.0
C1453 C 0.30481 0.97132 0.98362 0.0
C1454 C 0.2873 0.95616 0.9848 0.0
C1455 C 0.28932 0.93642 0.99608 0.0
C1456 C 0.30907 0.93229 0.00679 0.0
H1457 H 0.259 0.41995 0.3174 0.0
H1458 H 0.22645 0.35969 0.29622 0.0
H1459 H 0.1935 0.37934 0.28789 0.0
H1460 H 0.21199 0.4446 0.34095 0.0
H1461 H 0.21946 0.47136 0.33131 0.0
H1462 H 0.24022 0.45249 0.33718 0.0
H1463 H 0.25524 0.45701 0.2982 0.0
H1464 H 0.23466 0.47601 0.29229 0.0
H1465 H 0.2372 0.45243 0.27531 0.0
H1466 H 0.16466 0.40531 0.28029 0.0
H1467 H 0.14233 0.43634 0.27184 0.0
H1468 H 0.19339 0.48041 0.29674 0.0
C1469 C 0.245 0.41084 0.31094 0.0
C1470 C 0.2454 0.38811 0.30773 0.0
C1471 C 0.22655 0.37694 0.29936 0.0
C1472 C 0.20772 0.388 0.29446 0.0
C1473 C 0.2079 0.41029 0.29791 0.0
C1474 C 0.22606 0.42165 0.3058 0.0
C1475 C 0.22223 0.44576 0.30693 0.0
C1476 C 0.22355 0.45403 0.3305 0.0
C1477 C 0.23828 0.45855 0.29231 0.0
C1478 C 0.19917 0.44618 0.29813 0.0
C1479 C 0.1912 0.42546 0.29325 0.0
C1480 C 0.17066 0.42159 0.28416 0.0
C1481 C 0.15809 0.43936 0.27943 0.0
C1482 C 0.16604 0.46081 0.28373 0.0
C1483 C 0.18672 0.4642 0.2936 0.0
H1484 H 0.14182 0.02051 0.46651 0.0
H1485 H 0.11031 0.02062 0.52943 0.0
H1486 H 0.13583 0.05008 0.54161 0.0
H1487 H 0.19741 0.03046 0.48926 0.0
H1488 H 0.20568 0.04614 0.4659 0.0
H1489 H 0.18542 0.02441 0.46305 0.0
H1490 H 0.1611 0.05112 0.44515 0.0
H1491 H 0.17855 0.07471 0.45023 0.0
H1492 H 0.15102 0.07321 0.46047 0.0
H1493 H 0.16635 0.07817 0.54767 0.0
H1494 H 0.19809 0.10415 0.54621 0.0
H1495 H 0.20806 0.08712 0.47885 0.0
C1496 C 0.14042 0.02633 0.48301 0.0
C1497 C 0.12381 0.01815 0.4969 0.0
C1498 C 0.1225 0.02679 0.51822 0.0
C1499 C 0.1371 0.04342 0.52541 0.0
C1500 C 0.15312 0.05112 0.51121 0.0
C1501 C 0.15503 0.04265 0.49057 0.0
C1502 C 0.17366 0.05372 0.47845 0.0
C1503 C 0.1916 0.03773 0.4739 0.0
C1504 C 0.16565 0.06387 0.45732 0.0
C1505 C 0.18124 0.07061 0.49509 0.0
C1506 C 0.16965 0.06832 0.51416 0.0
C1507 C 0.17523 0.08043 0.53269 0.0
C1508 C 0.1932 0.09512 0.53175 0.0
C1509 C 0.2048 0.09817 0.5122 0.0
C1510 C 0.19875 0.08575 0.49367 0.0
H1511 H 0.74368 0.11543 0.69179 0.0
H1512 H 0.74458 0.14983 0.75361 0.0
H1513 H 0.71877 0.12249 0.76833 0.0
H1514 H 0.68625 0.10273 0.6922 0.0
H1515 H 0.68754 0.07612 0.68031 0.0
H1516 H 0.70776 0.09694 0.67375 0.0
H1517 H 0.73886 0.07349 0.68606 0.0
H1518 H 0.71941 0.05176 0.69192 0.0
H1519 H 0.73822 0.06147 0.71266 0.0
H1520 H 0.69645 0.08966 0.77782 0.0
H1521 H 0.67148 0.05754 0.77934 0.0
H1522 H 0.67971 0.04682 0.71035 0.0
C1523 C 0.73829 0.11748 0.70833 0.0
C1524 C 0.74683 0.13469 0.72163 0.0
C1525 C 0.73914 0.13649 0.74322 0.0
C1526 C 0.72429 0.12108 0.75176 0.0
C1527 C 0.71679 0.10411 0.73844 0.0
C1528 C 0.72303 0.10244 0.71705 0.0
C1529 C 0.71154 0.08299 0.7061 0.0
C1530 C 0.69742 0.09011 0.68697 0.0
C1531 C 0.728 0.06645 0.69875 0.0
C1532 C 0.69779 0.07417 0.72472 0.0
C1533 C 0.70168 0.08633 0.74334 0.0
C1534 C 0.69262 0.08048 0.76319 0.0
C1535 C 0.67836 0.06231 0.76386 0.0
C1536 C 0.67264 0.05062 0.74473 0.0
C1537 C 0.6831 0.05611 0.72502 0.0
H1538 H 0.40239 0.05684 0.53411 0.0
H1539 H 0.38491 1.00302 0.49108 0.0
H1540 H 0.35023 0.01982 0.48231 0.0
H1541 H 0.34835 0.06393 0.55493 0.0
H1542 H 0.35158 0.09303 0.55623 0.0
H1543 H 0.37492 0.07665 0.55917 0.0
H1544 H 0.39376 0.09733 0.52751 0.0
H1545 H 0.37042 0.11369 0.52438 0.0
H1546 H 0.38015 0.0986 0.50157 0.0
H1547 H 0.31795 0.04315 0.47726 0.0
H1548 H 0.28933 0.06997 0.47825 0.0
H1549 H 0.32746 0.10833 0.5251 0.0
C1550 C 0.39127 0.0486 0.52283 0.0
C1551 C 0.39638 0.02858 0.51328 0.0
C1552 C 0.38126 0.01822 0.49878 0.0
C1553 C 0.36158 0.02772 0.49358 0.0
C1554 C 0.35715 0.04755 0.50311 0.0
C1555 C 0.37147 0.05778 0.51759 0.0
C1556 C 0.36266 0.07883 0.5258 0.0
C1557 C 0.35917 0.07805 0.5505 0.0
C1558 C 0.37764 0.09826 0.51943 0.0
C1559 C 0.3412 0.07891 0.5136 0.0
C1560 C 0.3384 0.06078 0.50051 0.0
C1561 C 0.31993 0.05737 0.48753 0.0
C1562 C 0.30379 0.07274 0.48814 0.0
C1563 C 0.30611 0.09126 0.50175 0.0
C1564 C 0.32517 0.09435 0.51454 0.0
H1565 H 0.63474 0.47715 0.54907 0.0
H1566 H 0.60826 0.49396 0.48609 0.0
H1567 H 0.63162 0.46775 0.46861 0.0
H1568 H 0.68919 0.47356 0.53145 0.0
H1569 H 0.69532 0.45118 0.54879 0.0
H1570 H 0.67502 0.46973 0.55675 0.0
H1571 H 0.64683 0.4377 0.56051 0.0
H1572 H 0.66706 0.41904 0.55249 0.0
H1573 H 0.64168 0.41966 0.5378 0.0
H1574 H 0.65937 0.44187 0.45751 0.0
H1575 H 0.69029 0.41837 0.45327 0.0
H1576 H 0.69996 0.41842 0.5232 0.0
C1577 C 0.63378 0.47534 0.5316 0.0
C1578 C 0.61939 0.48762 0.51904 0.0
C1579 C 0.61867 0.4845 0.49622 0.0
C1580 C 0.63201 0.4697 0.48608 0.0
C1581 C 0.64606 0.45806 0.49892 0.0
C1582 C 0.64708 0.46067 0.52117 0.0
C1583 C 0.66449 0.44694 0.53101 0.0
C1584 C 0.68204 0.46121 0.54268 0.0
C1585 C 0.65441 0.42982 0.54636 0.0
C1586 C 0.67337 0.43653 0.51073 0.0
C1587 C 0.66232 0.44308 0.49245 0.0
C1588 C 0.66803 0.43649 0.47171 0.0
C1589 C 0.6857 0.42313 0.4695 0.0
C1590 C 0.6976 0.41641 0.4879 0.0
C1591 C 0.69105 0.42298 0.50884 0.0
H1592 H 0.69578 0.26009 0.39203 0.0
H1593 H 0.76065 0.26137 0.36459 0.0
H1594 H 0.77308 0.28789 0.39222 0.0
H1595 H 0.69382 0.31494 0.40213 0.0
H1596 H 0.68079 0.31428 0.42826 0.0
H1597 H 0.67578 0.29254 0.40906 0.0
H1598 H 0.68809 0.26361 0.4352 0.0
H1599 H 0.69166 0.28417 0.45592 0.0
H1600 H 0.71377 0.26717 0.44925 0.0
H1601 H 0.7791 0.31337 0.42264 0.0
H1602 H 0.77736 0.34042 0.452 0.0
H1603 H 0.70827 0.32594 0.45869 0.0
C1604 C 0.71261 0.26588 0.39191 0.0
C1605 C 0.72732 0.25824 0.3763 0.0
C1606 C 0.74919 0.26638 0.37669 0.0
C1607 C 0.75643 0.28156 0.39228 0.0
C1608 C 0.74163 0.2886 0.40744 0.0
C1609 C 0.72017 0.28117 0.40743 0.0
C1610 C 0.70758 0.29225 0.42516 0.0
C1611 C 0.68837 0.30425 0.41561 0.0
C1612 C 0.69982 0.27582 0.4424 0.0
C1613 C 0.72516 0.30776 0.43436 0.0
C1614 C 0.74478 0.30476 0.42425 0.0
C1615 C 0.76377 0.31618 0.43043 0.0
C1616 C 0.76259 0.3316 0.44698 0.0
C1617 C 0.74252 0.33594 0.45673 0.0
C1618 C 0.72366 0.32337 0.45089 0.0
H1619 H 0.53417 0.03936 0.89496 0.0
H1620 H 0.52347 0.97022 0.90497 0.0
H1621 H 0.54268 0.96298 0.87088 0.0
H1622 H 0.52569 0.03752 0.83621 0.0
H1623 H 0.54618 0.05857 0.8313 0.0
H1624 H 0.53133 0.05823 0.85641 0.0
H1625 H 0.56761 0.05846 0.87799 0.0
H1626 H 0.58256 0.05868 0.85297 0.0
H1627 H 0.58669 0.03775 0.87267 0.0
H1628 H 0.56529 0.9633 0.83641 0.0
H1629 H 0.58751 0.97146 0.80383 0.0
H1630 H 0.5807 0.04019 0.81542 0.0
C1631 C 0.53546 0.02267 0.88989 0.0
C1632 C 0.52738 0.0054 0.90295 0.0
C1633 C 0.52987 0.98382 0.89564 0.0
C1634 C 0.54063 0.9795 0.87615 0.0
C1635 C 0.5486 0.99691 0.86387 0.0
C1636 C 0.54592 0.01807 0.87036 0.0
C1637 C 0.5561 0.03389 0.85432 0.0
C1638 C 0.53879 0.04787 0.84394 0.0
C1639 C 0.57432 0.04802 0.86514 0.0
C1640 C 0.56515 0.01834 0.83795 0.0
C1641 C 0.56078 0.99706 0.84373 0.0
C1642 C 0.56856 0.97992 0.83159 0.0
C1643 C 0.5812 0.9847 0.81312 0.0
C1644 C 0.58574 0.00644 0.80686 0.0
C1645 C 0.57734 0.02336 0.81946 0.0
H1646 H 0.27534 0.26562 0.39495 0.0
H1647 H 0.34296 0.25006 0.38774 0.0
H1648 H 0.3372 0.21881 0.4123 0.0
H1649 H 0.27077 0.25255 0.45131 0.0
H1650 H 0.24342 0.24121 0.44883 0.0
H1651 H 0.2529 0.26205 0.43045 0.0
H1652 H 0.24278 0.23708 0.39766 0.0
H1653 H 0.23325 0.21617 0.41595 0.0
H1654 H 0.25369 0.2105 0.39616 0.0
H1655 H 0.32406 0.18975 0.43884 0.0
H1656 H 0.30428 0.16459 0.46364 0.0
H1657 H 0.24532 0.19929 0.45273 0.0
C1658 C 0.28896 0.25569 0.39859 0.0
C1659 C 0.30961 0.2603 0.38945 0.0
C1660 C 0.32694 0.24671 0.39439 0.0
C1661 C 0.32386 0.229 0.40841 0.0
C1662 C 0.30331 0.225 0.41726 0.0
C1663 C 0.28614 0.23789 0.41241 0.0
C1664 C 0.26564 0.2301 0.42389 0.0
C1665 C 0.25773 0.24751 0.43955 0.0
C1666 C 0.24779 0.22304 0.40743 0.0
C1667 C 0.27396 0.21089 0.43609 0.0
C1668 C 0.29574 0.2082 0.43215 0.0
C1669 C 0.30697 0.19167 0.44196 0.0
C1670 C 0.29561 0.17748 0.45607 0.0
C1671 C 0.2732 0.17985 0.46016 0.0
C1672 C 0.26239 0.19686 0.44995 0.0
H1673 H 0.47101 0.4575 0.89324 0.0
H1674 H 0.51418 0.51467 0.8891 0.0
H1675 H 0.49194 0.52824 0.85897 0.0
H1676 H 0.46614 0.44933 0.83731 0.0
H1677 H 0.43814 0.43964 0.8381 0.0
H1678 H 0.45551 0.43617 0.86129 0.0
H1679 H 0.42842 0.45615 0.88554 0.0
H1680 H 0.41094 0.45968 0.86236 0.0
H1681 H 0.42047 0.48287 0.8781 0.0
H1682 H 0.46578 0.53429 0.82704 0.0
H1683 H 0.43974 0.53103 0.79608 0.0
H1684 H 0.41659 0.46848 0.82023 0.0
C1685 C 0.47585 0.47293 0.88614 0.0
C1686 C 0.49442 0.48497 0.89373 0.0
C1687 C 0.49983 0.50524 0.88398 0.0
C1688 C 0.48734 0.51307 0.86672 0.0
C1689 C 0.46948 0.50045 0.85932 0.0
C1690 C 0.46381 0.48079 0.86878 0.0
C1691 C 0.44506 0.46938 0.8569 0.0
C1692 C 0.45162 0.44734 0.84786 0.0
C1693 C 0.42504 0.46688 0.8716 0.0
C1694 C 0.44139 0.48539 0.8389 0.0
C1695 C 0.45525 0.50345 0.84071 0.0
C1696 C 0.45481 0.52022 0.82557 0.0
C1697 C 0.43998 0.51827 0.80806 0.0
C1698 C 0.4262 0.49948 0.80566 0.0
C1699 C 0.42691 0.48304 0.82148 0.0
H1700 H 0.6881 0.73531 0.11671 0.0
H1701 H 0.74478 0.728 0.15774 0.0
H1702 H 0.75843 0.7009 0.13207 0.0
H1703 H 0.68183 0.67859 0.09847 0.0
H1704 H 0.67404 0.68596 0.07132 0.0
H1705 H 0.6678 0.7032 0.09393 0.0
H1706 H 0.68791 0.73559 0.07514 0.0
H1707 H 0.69429 0.71845 0.05255 0.0
H1708 H 0.71578 0.73318 0.06702 0.0
H1709 H 0.76673 0.67596 0.10104 0.0
H1710 H 0.76966 0.65582 0.06659 0.0
H1711 H 0.70792 0.68018 0.04526 0.0
C1712 C 0.70313 0.72762 0.12051 0.0
C1713 C 0.71531 0.73355 0.13931 0.0
C1714 C 0.73521 0.72362 0.14344 0.0
C1715 C 0.74304 0.70818 0.129 0.0
C1716 C 0.73082 0.70293 0.11044 0.0
C1717 C 0.71129 0.71236 0.10615 0.0
C1718 C 0.70202 0.70494 0.08437 0.0
C1719 C 0.68012 0.69242 0.0872 0.0
C1720 C 0.69988 0.72418 0.06886 0.0
C1721 C 0.71951 0.69009 0.07696 0.0
C1722 C 0.73586 0.68897 0.09233 0.0
C1723 C 0.75396 0.67663 0.08894 0.0
C1724 C 0.75546 0.66523 0.06928 0.0
C1725 C 0.73905 0.66638 0.05311 0.0
C1726 C 0.72079 0.67892 0.0572 0.0
H1727 H 0.99502 0.00335 0.14208 0.0
H1728 H 0.96424 0.06125 0.11984 0.0
H1729 H 0.93514 0.05514 0.14664 0.0
H1730 H 0.94493 0.97158 0.15287 0.0
H1731 H 0.95573 0.95912 0.1768 0.0
H1732 H 0.97364 0.96731 0.15505 0.0
H1733 H 0.99717 0.99058 0.18208 0.0
H1734 H 0.97933 0.9825 0.20389 0.0
H1735 H 0.98456 0.01083 0.19832 0.0
H1736 H 0.91064 0.04421 0.17707 0.0
H1737 H 0.89143 0.02848 0.20854 0.0
H1738 H 0.93768 0.97734 0.21138 0.0
C1739 C 0.98211 0.0147 0.14279 0.0
C1740 C 0.98188 0.03272 0.12869 0.0
C1741 C 0.96461 0.04712 0.13013 0.0
C1742 C 0.94806 0.04386 0.14542 0.0
C1743 C 0.94889 0.02609 0.15915 0.0
C1744 C 0.96537 0.01165 0.15794 0.0
C1745 C 0.96258 0.9941 0.17498 0.0
C1746 C 0.959 0.9717 0.16428 0.0
C1747 C 0.98207 0.99454 0.19075 0.0
C1748 C 0.94215 1.00115 0.18615 0.0
C1749 C 0.93455 0.01963 0.1767 0.0
C1750 C 0.91633 0.02965 0.18452 0.0
C1751 C 0.90557 0.0206 0.20248 0.0
C1752 C 0.91297 1.00162 0.21251 0.0
C1753 C 0.93148 0.99174 0.20404 0.0
H1754 H 0.27703 0.78015 0.13491 0.0
H1755 H 0.3429 0.76986 0.11378 0.0
H1756 H 0.33946 0.79806 0.08598 0.0
H1757 H 0.2544 0.78786 0.08273 0.0
H1758 H 0.23655 0.80875 0.09092 0.0
H1759 H 0.24459 0.78878 0.11022 0.0
H1760 H 0.25918 0.81926 0.13612 0.0
H1761 H 0.2512 0.83935 0.11685 0.0
H1762 H 0.27893 0.83918 0.12635 0.0
H1763 H 0.3279 0.82455 0.05822 0.0
H1764 H 0.30935 0.84907 0.03327 0.0
H1765 H 0.25153 0.84403 0.07303 0.0
C1766 C 0.29077 0.78399 0.12455 0.0
C1767 C 0.31031 0.77289 0.12668 0.0
C1768 C 0.32792 0.77838 0.11276 0.0
C1769 C 0.32609 0.79433 0.09683 0.0
C1770 C 0.30662 0.80487 0.09508 0.0
C1771 C 0.28931 0.80011 0.10866 0.0
C1772 C 0.27001 0.8135 0.10287 0.0
C1773 C 0.25022 0.79885 0.09629 0.0
C1774 C 0.26451 0.82873 0.12167 0.0
C1775 C 0.27902 0.82611 0.0836 0.0
C1776 C 0.30018 0.82084 0.07942 0.0
C1777 C 0.31148 0.82912 0.06155 0.0
C1778 C 0.30081 0.84299 0.04746 0.0
C1779 C 0.27918 0.84868 0.05144 0.0
C1780 C 0.26828 0.84037 0.06993 0.0
H1781 H 0.04465 0.5298 0.10739 0.0
H1782 H 0.02706 0.46139 0.11357 0.0
H1783 H 0.04433 0.4612 0.14984 0.0
H1784 H 0.09672 0.52825 0.133 0.0
H1785 H 0.09488 0.55392 0.14674 0.0
H1786 H 0.08048 0.549 0.12154 0.0
H1787 H 0.04435 0.55828 0.14003 0.0
H1788 H 0.05866 0.56327 0.16529 0.0
H1789 H 0.03593 0.54395 0.16417 0.0
H1790 H 0.06529 0.4677 0.18419 0.0
H1791 H 0.08705 0.48088 0.21562 0.0
H1792 H 0.09031 0.54554 0.18825 0.0
C1793 C 0.0444 0.5148 0.11642 0.0
C1794 C 0.03444 0.4956 0.10766 0.0
C1795 C 0.03432 0.47634 0.12005 0.0
C1796 C 0.04419 0.47605 0.14062 0.0
C1797 C 0.05397 0.49519 0.1487 0.0
C1798 C 0.05401 0.51427 0.13712 0.0
C1799 C 0.06579 0.53253 0.1496 0.0
C1800 C 0.08565 0.54144 0.13696 0.0
C1801 C 0.05025 0.55057 0.1551 0.0
C1802 C 0.07261 0.52064 0.16987 0.0
C1803 C 0.06566 0.4991 0.16892 0.0
C1804 C 0.07066 0.48457 0.18522 0.0
C1805 C 0.08312 0.49222 0.20298 0.0
C1806 C 0.09035 0.51426 0.20448 0.0
C1807 C 0.08483 0.52867 0.18771 0.0
H1808 H 0.38868 0.73451 0.26021 0.0
H1809 H 0.37963 0.66491 0.26751 0.0
H1810 H 0.40289 0.66648 0.3003 0.0
H1811 H 0.44513 0.73749 0.27785 0.0
H1812 H 0.44259 0.76317 0.29139 0.0
H1813 H 0.42556 0.7562 0.26831 0.0
H1814 H 0.39285 0.76419 0.29135 0.0
H1815 H 0.40814 0.76866 0.31613 0.0
H1816 H 0.38646 0.74801 0.3147 0.0
H1817 H 0.42992 0.67503 0.32998 0.0
H1818 H 0.45666 0.69056 0.35656 0.0
H1819 H 0.44514 0.75495 0.33293 0.0
C1820 C 0.39141 0.71963 0.26883 0.0
C1821 C 0.38236 0.69957 0.26122 0.0
C1822 C 0.3866 0.68043 0.27284 0.0
C1823 C 0.39971 0.68116 0.29155 0.0
C1824 C 0.40847 0.70116 0.29853 0.0
C1825 C 0.40454 0.72005 0.28753 0.0
C1826 C 0.41623 0.73937 0.29832 0.0
C1827 C 0.43339 0.74966 0.28306 0.0
C1828 C 0.39998 0.75607 0.30562 0.0
C1829 C 0.4269 0.72846 0.31743 0.0
C1830 C 0.42263 0.70631 0.31687 0.0
C1831 C 0.43289 0.69239 0.33102 0.0
C1832 C 0.44799 0.70129 0.34605 0.0
C1833 C 0.45203 0.72392 0.34741 0.0
C1834 C 0.44137 0.73767 0.33292 0.0
H1835 H 0.01215 0.40312 0.95173 0.0
H1836 H 1.00147 0.3822 0.01812 0.0
H1837 H 0.00467 0.34418 0.00657 0.0
H1838 H 0.98151 0.36043 0.92664 0.0
H1839 H 0.99935 0.35804 0.90376 0.0
H1840 H 0.99769 0.3836 0.9176 0.0
H1841 H 0.03939 0.3847 0.92392 0.0
H1842 H 0.0411 0.35898 0.91026 0.0
H1843 H 0.05165 0.36244 0.93748 0.0
H1844 H 0.0057 0.30833 0.98735 0.0
H1845 H 0.00361 0.27742 0.96159 0.0
H1846 H 0.01566 0.32132 0.90806 0.0
C1847 C 0.0109 0.3906 0.96394 0.0
C1848 C 0.00656 0.39574 0.98588 0.0
C1849 C 0.00453 0.37873 1.00119 0.0
C1850 C 0.00654 0.35707 0.99482 0.0
C1851 C 0.01074 0.35259 0.97308 0.0
C1852 C 0.0129 0.36887 0.95786 0.0
C1853 C 0.01609 0.35961 0.9353 0.0
C1854 C 0.99756 0.36578 0.91993 0.0
C1855 C 0.03839 0.36687 0.92621 0.0
C1856 C 0.01505 0.33555 0.94014 0.0
C1857 C 0.01205 0.33186 0.96208 0.0
C1858 C 0.00857 0.311 0.97023 0.0
C1859 C 0.00753 0.29354 0.95555 0.0
C1860 C 0.01028 0.297 0.93304 0.0
C1861 C 0.01453 0.31822 0.92532 0.0
H1862 H 0.62595 0.76893 0.27606 0.0
H1863 H 0.60414 0.83135 0.25482 0.0
H1864 H 0.57625 0.8303 0.28325 0.0
H1865 H 0.57411 0.74544 0.28748 0.0
H1866 H 0.5824 0.73108 0.31134 0.0
H1867 H 0.60173 0.73719 0.29022 0.0
H1868 H 0.62736 0.75673 0.31821 0.0
H1869 H 0.60809 0.75066 0.33945 0.0
H1870 H 0.61729 0.77828 0.33466 0.0
H1871 H 0.54894 0.82149 0.3116 0.0
H1872 H 0.52409 0.80561 0.339 0.0
H1873 H 0.56398 0.74959 0.34376 0.0
C1874 C 0.61554 0.78253 0.27764 0.0
C1875 C 0.61715 0.80013 0.263 0.0
C1876 C 0.603 0.81749 0.2655 0.0
C1877 C 0.58721 0.81715 0.28175 0.0
C1878 C 0.58582 0.79945 0.29563 0.0
C1879 C 0.59965 0.7825 0.2939 0.0
C1880 C 0.59399 0.76506 0.31047 0.0
C1881 C 0.58768 0.74342 0.2992 0.0
C1882 C 0.61281 0.76254 0.32666 0.0
C1883 C 0.57455 0.77469 0.32141 0.0
C1884 C 0.57023 0.79459 0.31258 0.0
C1885 C 0.55233 0.80608 0.31888 0.0
C1886 C 0.53829 0.79691 0.33442 0.0
C1887 C 0.54226 0.77652 0.34366 0.0
C1888 C 0.56084 0.76543 0.3373 0.0
H1889 H 0.00537 0.13753 0.01185 0.0
H1890 H 0.04947 0.10215 0.97152 0.0
H1891 H 0.04212 0.12634 0.94096 0.0
H1892 H 0.96606 0.14899 0.96882 0.0
H1893 H 0.96123 0.17577 0.97892 0.0
H1894 H 0.96871 0.15481 0.99745 0.0
H1895 H 1.00119 0.17912 0.01135 0.0
H1896 H 0.99381 0.20014 0.99291 0.0
H1897 H 0.02078 0.18992 0.99221 0.0
H1898 H 0.0324 0.15551 0.91565 0.0
H1899 H 0.02036 0.18785 0.89662 0.0
H1900 H 0.98196 0.20492 0.95253 0.0
C1901 C 0.01341 0.13481 0.99657 0.0
C1902 C 0.02789 0.11772 0.99412 0.0
C1903 C 0.03799 0.11476 0.97376 0.0
C1904 C 0.03401 0.12852 0.9563 0.0
C1905 C 0.01981 0.1452 0.9593 0.0
C1906 C 0.00956 0.14841 0.97886 0.0
C1907 C 0.99558 0.16809 0.97783 0.0
C1908 C 0.97146 0.16151 0.98094 0.0
C1909 C 0.00331 0.18533 0.99457 0.0
C1910 C 0.99993 0.17565 0.95477 0.0
C1911 C 0.01392 0.1621 0.94444 0.0
C1912 C 0.02128 0.16613 0.92348 0.0
C1913 C 0.01439 0.18461 0.91284 0.0
C1914 C 1.00015 0.1989 0.92303 0.0
C1915 C 0.99258 0.19414 0.9442 0.0
H1916 H 0.37403 0.28687 0.25286 0.0
H1917 H 0.40588 0.35051 0.25967 0.0
H1918 H 0.43244 0.34097 0.23169 0.0
H1919 H 0.42195 0.25779 0.24644 0.0
H1920 H 0.41041 0.2389 0.22672 0.0
H1921 H 0.39317 0.25112 0.2464 0.0
H1922 H 0.36901 0.26535 0.21542 0.0
H1923 H 0.38613 0.25309 0.19564 0.0
H1924 H 0.38128 0.2816 0.19421 0.0
H1925 H 0.45634 0.324 0.20374 0.0
H1926 H 0.47575 0.30089 0.17815 0.0
H1927 H 0.42824 0.24832 0.18969 0.0
C1928 C 0.38636 0.29893 0.2482 0.0
C1929 C 0.38785 0.31946 0.25847 0.0
C1930 C 0.40452 0.33462 0.25218 0.0
C1931 C 0.41962 0.32939 0.23622 0.0
C1932 C 0.41787 0.30892 0.22664 0.0
C1933 C 0.40163 0.29394 0.23236 0.0
C1934 C 0.40381 0.27281 0.22013 0.0
C1935 C 0.40757 0.25405 0.23586 0.0
C1936 C 0.38387 0.26794 0.20548 0.0
C1937 C 0.42391 0.27818 0.20681 0.0
C1938 C 0.43172 0.29912 0.2107 0.0
C1939 C 0.45032 0.3076 0.2005 0.0
C1940 C 0.46125 0.29432 0.18598 0.0
C1941 C 0.45363 0.27272 0.18184 0.0
C1942 C 0.43461 0.26471 0.19242 0.0
H1943 H 0.506 0.37197 0.01991 0.0
H1944 H 0.55891 0.40652 0.05407 0.0
H1945 H 0.55485 0.38118 0.08454 0.0
H1946 H 0.47357 0.35718 0.06784 0.0
H1947 H 0.46576 0.33073 0.05725 0.0
H1948 H 0.47115 0.35293 0.03893 0.0
H1949 H 0.49967 0.33057 0.01904 0.0
H1950 H 0.49441 0.30835 0.0373 0.0
H1951 H 0.52168 0.31962 0.03435 0.0
H1952 H 0.54744 0.35064 0.10996 0.0
H1953 H 0.53682 0.31688 0.12894 0.0
H1954 H 0.48917 0.30117 0.07842 0.0
C1955 C 0.51667 0.37434 0.03383 0.0
C1956 C 0.53266 0.39152 0.03453 0.0
C1957 C 0.54617 0.39394 0.05321 0.0
C1958 C 0.54411 0.37949 0.07061 0.0
C1959 C 0.52846 0.36261 0.0692 0.0
C1960 C 0.51492 0.35997 0.05135 0.0
C1961 C 0.50028 0.33971 0.05348 0.0
C1962 C 0.47626 0.34549 0.05444 0.0
C1963 C 0.50426 0.32362 0.03494 0.0
C1964 C 0.50804 0.33119 0.07513 0.0
C1965 C 0.52421 0.34478 0.08394 0.0
C1966 C 0.53464 0.33998 0.10334 0.0
C1967 C 0.52853 0.32071 0.11397 0.0
C1968 C 0.51211 0.3064 0.10523 0.0
C1969 C 0.50159 0.31189 0.08564 0.0
H1970 H 0.6266 0.22363 0.22977 0.0
H1971 H 0.59946 0.17696 0.27569 0.0
H1972 H 0.56465 0.17608 0.25544 0.0
H1973 H 0.57849 0.254 0.22383 0.0
H1974 H 0.58282 0.25915 0.19537 0.0
H1975 H 0.60569 0.25546 0.21314 0.0
H1976 H 0.61843 0.22455 0.1883 0.0
H1977 H 0.59556 0.22809 0.1705 0.0
H1978 H 0.59999 0.20191 0.18211 0.0
H1979 H 0.53252 0.18066 0.23002 0.0
H1980 H 0.50572 0.19083 0.20225 0.0
H1981 H 0.55392 0.23542 0.17399 0.0
C1982 C 0.61332 0.21337 0.23579 0.0
C1983 C 0.61587 0.20037 0.25442 0.0
C1984 C 0.59808 0.18687 0.26134 0.0
C1985 C 0.57818 0.18634 0.25 0.0
C1986 C 0.57627 0.19944 0.23177 0.0
C1987 C 0.59337 0.21274 0.22477 0.0
C1988 C 0.58712 0.22548 0.2049 0.0
C1989 C 0.58861 0.24997 0.2096 0.0
C1990 C 0.60111 0.21965 0.1853 0.0
C1991 C 0.56377 0.21736 0.20184 0.0
C1992 C 0.55782 0.20227 0.21741 0.0
C1993 C 0.53702 0.19248 0.21778 0.0
C1994 C 0.5219 0.19837 0.2019 0.0
C1995 C 0.5276 0.214 0.1859 0.0
C1996 C 0.54891 0.22348 0.18597 0.0
H1997 H 0.51772 0.11649 0.04067 0.0
H1998 H 0.44976 0.11673 0.02118 0.0
H1999 H 0.44604 0.1512 0.04062 0.0
H2000 H 0.5098 0.13266 0.09296 0.0
H2001 H 0.53346 0.15055 0.09657 0.0
H2002 H 0.53398 0.1282 0.07775 0.0
H2003 H 0.5439 0.15225 0.04548 0.0
H2004 H 0.54569 0.17521 0.06365 0.0
H2005 H 0.5285 0.17577 0.03987 0.0
H2006 H 0.44948 0.1857 0.06232 0.0
H2007 H 0.45851 0.21502 0.08877 0.0
H2008 H 0.52265 0.1902 0.09785 0.0
C2009 C 0.50203 0.12374 0.04034 0.0
C2010 C 0.48412 0.11377 0.02902 0.0
C2011 C 0.46397 0.12412 0.02909 0.0
C2012 C 0.46162 0.14373 0.04023 0.0
C2013 C 0.47951 0.15287 0.05137 0.0
C2014 C 0.49931 0.14318 0.05162 0.0
C2015 C 0.51548 0.15549 0.06627 0.0
C2016 C 0.52365 0.14089 0.08449 0.0
C2017 C 0.53452 0.16526 0.05302 0.0
C2018 C 0.50137 0.17309 0.07492 0.0
C2019 C 0.48092 0.17169 0.06551 0.0
C2020 C 0.4653 0.1867 0.0701 0.0
C2021 C 0.47046 0.20314 0.08527 0.0
C2022 C 0.49077 0.20404 0.09612 0.0
C2023 C 0.5067 0.18931 0.09031 0.0
H2024 H 0.26176 0.41198 0.68198 0.0
H2025 H 0.24238 0.39223 0.74686 0.0
H2026 H 0.27035 0.41736 0.7625 0.0
H2027 H 0.31589 0.41556 0.69011 0.0
H2028 H 0.32339 0.44034 0.67617 0.0
H2029 H 0.29978 0.42421 0.66769 0.0
H2030 H 0.27349 0.45433 0.67259 0.0
H2031 H 0.29642 0.47247 0.67871 0.0
H2032 H 0.27396 0.4701 0.69728 0.0
H2033 H 0.29971 0.44427 0.7714 0.0
H2034 H 0.33177 0.46939 0.7732 0.0
H2035 H 0.3341 0.47127 0.70291 0.0
C2036 C 0.26315 0.41323 0.69947 0.0
C2037 C 0.24994 0.39995 0.71318 0.0
C2038 C 0.25252 0.40189 0.736 0.0
C2039 C 0.26821 0.41631 0.74507 0.0
C2040 C 0.28108 0.42892 0.73115 0.0
C2041 C 0.27873 0.42769 0.70886 0.0
C2042 C 0.29538 0.44262 0.69771 0.0
C2043 C 0.30949 0.42996 0.68202 0.0
C2044 C 0.28414 0.46097 0.68588 0.0
C2045 C 0.30824 0.45136 0.71724 0.0
C2046 C 0.2991 0.44375 0.73633 0.0
C2047 C 0.3072 0.45012 0.7566 0.0
C2048 C 0.3255 0.46424 0.75745 0.0
C2049 C 0.33588 0.47137 0.73823 0.0
C2050 C 0.32677 0.46544 0.71782 0.0
H2051 H 0.27249 0.62405 0.796 0.0
H2052 H 0.31682 0.67717 0.77756 0.0
H2053 H 0.34553 0.65142 0.77106 0.0
H2054 H 0.31287 0.59202 0.82329 0.0
H2055 H 0.30121 0.56648 0.81371 0.0
H2056 H 0.28411 0.58909 0.81779 0.0
H2057 H 0.27051 0.58574 0.77797 0.0
H2058 H 0.28747 0.56307 0.77382 0.0
H2059 H 0.29 0.58627 0.75625 0.0
H2060 H 0.36887 0.62025 0.76472 0.0
H2061 H 0.38557 0.58515 0.75884 0.0
H2062 H 0.32688 0.55169 0.78191 0.0
C2063 C 0.28825 0.63023 0.79062 0.0
C2064 C 0.29245 0.65268 0.78751 0.0
C2065 C 0.31331 0.66011 0.78047 0.0
C2066 C 0.32973 0.6456 0.77664 0.0
C2067 C 0.32513 0.62365 0.77997 0.0
C2068 C 0.30495 0.61592 0.78682 0.0
C2069 C 0.30429 0.59141 0.78868 0.0
C2070 C 0.30039 0.58434 0.81227 0.0
C2071 C 0.28705 0.58102 0.77325 0.0
C2072 C 0.32712 0.58662 0.78146 0.0
C2073 C 0.33883 0.60551 0.77658 0.0
C2074 C 0.35995 0.60535 0.76867 0.0
C2075 C 0.3693 0.58533 0.76537 0.0
C2076 C 0.35761 0.56573 0.77008 0.0
C2077 C 0.33634 0.56644 0.77852 0.0
H2078 H 0.89698 0.46324 0.51291 0.0
H2079 H 0.87965 0.51699 0.47187 0.0
H2080 H 0.84139 0.50428 0.47297 0.0
H2081 H 0.86282 0.42466 0.48595 0.0
H2082 H 0.85576 0.4095 0.51 0.0
H2083 H 0.88134 0.42456 0.50875 0.0
H2084 H 0.87174 0.44504 0.544 0.0
H2085 H 0.84596 0.43018 0.54518 0.0
H2086 H 0.84687 0.45937 0.5452 0.0
H2087 H 0.80586 0.48428 0.47514 0.0
H2088 H 0.77588 0.4566 0.47583 0.0
H2089 H 0.81561 0.41476 0.51427 0.0
C2090 C 0.8852 0.47245 0.50419 0.0
C2091 C 0.89156 0.49142 0.49257 0.0
C2092 C 0.87538 0.50285 0.48146 0.0
C2093 C 0.8535 0.49569 0.4819 0.0
C2094 C 0.8479 0.47698 0.49342 0.0
C2095 C 0.86327 0.46539 0.50422 0.0
C2096 C 0.8532 0.44462 0.51354 0.0
C2097 C 0.86391 0.42466 0.50398 0.0
C2098 C 0.85452 0.44482 0.53846 0.0
C2099 C 0.82989 0.44608 0.50571 0.0
C2100 C 0.82718 0.46511 0.49447 0.0
C2101 C 0.80766 0.46949 0.48419 0.0
C2102 C 0.79072 0.45371 0.48471 0.0
C2103 C 0.79334 0.43376 0.49541 0.0
C2104 C 0.81296 0.43017 0.5066 0.0
H2105 H 0.76236 0.91757 0.82044 0.0
H2106 H 0.73571 0.85745 0.79235 0.0
H2107 H 0.70257 0.87582 0.7819 0.0
H2108 H 0.71174 0.93782 0.8405 0.0
H2109 H 0.71853 0.96552 0.83339 0.0
H2110 H 0.73976 0.94745 0.84011 0.0
H2111 H 0.75833 0.95565 0.80327 0.0
H2112 H 0.73725 0.97383 0.79651 0.0
H2113 H 0.74294 0.95177 0.77846 0.0
H2114 H 0.67298 0.90063 0.77316 0.0
H2115 H 0.64938 0.93074 0.76505 0.0
H2116 H 0.69519 0.97557 0.7975 0.0
C2117 C 0.74963 0.90822 0.81202 0.0
C2118 C 0.75173 0.88588 0.80747 0.0
C2119 C 0.73446 0.87437 0.79655 0.0
C2120 C 0.71555 0.88471 0.79041 0.0
C2121 C 0.71407 0.90665 0.79518 0.0
C2122 C 0.73066 0.91834 0.80562 0.0
C2123 C 0.72527 0.94202 0.80787 0.0
C2124 C 0.72373 0.94858 0.8319 0.0
C2125 C 0.74193 0.95668 0.79581 0.0
C2126 C 0.70314 0.94182 0.79683 0.0
C2127 C 0.69699 0.92117 0.78982 0.0
C2128 C 0.67758 0.91685 0.77864 0.0
C2129 C 0.66427 0.93411 0.77411 0.0
C2130 C 0.67037 0.95554 0.78068 0.0
C2131 C 0.68995 0.95935 0.7925 0.0
H2132 H 0.63516 0.51669 0.00514 0.0
H2133 H 0.63674 0.51655 0.93473 0.0
H2134 H 0.66658 0.54442 0.93557 0.0
H2135 H 0.6456 0.57274 0.01322 0.0
H2136 H 0.66419 0.57139 0.03587 0.0
H2137 H 0.6434 0.55037 0.03165 0.0
H2138 H 0.67055 0.52037 0.03 0.0
H2139 H 0.69205 0.54019 0.03604 0.0
H2140 H 0.69374 0.52308 0.01238 0.0
H2141 H 0.69721 0.57017 0.94357 0.0
H2142 H 0.72597 0.59502 0.95841 0.0
H2143 H 0.70475 0.58022 0.02383 0.0
C2144 C 0.64173 0.52271 0.98996 0.0
C2145 C 0.63373 0.51448 0.96984 0.0
C2146 C 0.64281 0.52253 0.95028 0.0
C2147 C 0.6597 0.53836 0.95059 0.0
C2148 C 0.66746 0.54591 0.97062 0.0
C2149 C 0.65888 0.53842 0.98998 0.0
C2150 C 0.67074 0.54906 0.00921 0.0
C2151 C 0.65508 0.56167 0.02332 0.0
C2152 C 0.68247 0.53216 0.0227 0.0
C2153 C 0.68694 0.56405 0.99754 0.0
C2154 C 0.68488 0.56162 0.97529 0.0
C2155 C 0.69873 0.57256 0.96093 0.0
C2156 C 0.71491 0.58672 0.96949 0.0
C2157 C 0.71684 0.59021 0.99213 0.0
C2158 C 0.70306 0.57832 0.0064 0.0
H2159 H 0.24618 0.61227 0.18378 0.0
H2160 H 0.25363 0.64759 0.2447 0.0
H2161 H 0.22701 0.62221 0.26169 0.0
H2162 H 0.19071 0.60118 0.18637 0.0
H2163 H 0.18976 0.5736 0.17659 0.0
H2164 H 0.21108 0.59241 0.168 0.0
H2165 H 0.24135 0.56894 0.18144 0.0
H2166 H 0.22109 0.54841 0.1887 0.0
H2167 H 0.24063 0.55837 0.20866 0.0
H2168 H 0.20153 0.59218 0.27282 0.0
H2169 H 0.17425 0.56207 0.2762 0.0
H2170 H 0.18129 0.54668 0.20795 0.0
C2171 C 0.24233 0.61459 0.20074 0.0
C2172 C 0.25199 0.63206 0.21286 0.0
C2173 C 0.24625 0.63461 0.23494 0.0
C2174 C 0.23132 0.62012 0.24483 0.0
C2175 C 0.22227 0.60306 0.23249 0.0
C2176 C 0.22741 0.60023 0.21091 0.0
C2177 C 0.21487 0.58073 0.20128 0.0
C2178 C 0.20073 0.58735 0.18194 0.0
C2179 C 0.23041 0.56307 0.19463 0.0
C2180 C 0.20127 0.57358 0.22065 0.0
C2181 C 0.20638 0.58635 0.23861 0.0
C2182 C 0.19706 0.58234 0.25878 0.0
C2183 C 0.18151 0.56531 0.26052 0.0
C2184 C 0.17498 0.55282 0.24212 0.0
C2185 C 0.18553 0.5565 0.22208 0.0
H2186 H 0.90536 0.54395 0.03321 0.0
H2187 H 0.90854 0.51997 0.96693 0.0
H2188 H 0.8754 0.53903 0.95779 0.0
H2189 H 0.84709 0.54134 0.03801 0.0
H2190 H 0.84621 0.5661 0.05351 0.0
H2191 H 0.86978 0.54985 0.05511 0.0
H2192 H 0.89426 0.58299 0.04394 0.0
H2193 H 0.87077 0.59932 0.04225 0.0
H2194 H 0.88838 0.59709 0.01917 0.0
H2195 H 0.8419 0.56102 0.95563 0.0
H2196 H 0.81069 0.58434 0.96076 0.0
H2197 H 0.83026 0.59547 0.02785 0.0
C2198 C 0.89921 0.54274 0.01672 0.0
C2199 C 0.90964 0.5302 1.00088 0.0
C2200 C 0.90073 0.52899 0.97957 0.0
C2201 C 0.88196 0.53995 0.97412 0.0
C2202 C 0.87225 0.55224 0.99009 0.0
C2203 C 0.88058 0.55373 0.01095 0.0
C2204 C 0.86721 0.56831 0.02498 0.0
C2205 C 0.85697 0.55564 0.04403 0.0
C2206 C 0.88098 0.5881 0.03305 0.0
C2207 C 0.85009 0.5748 0.00873 0.0
C2208 C 0.85324 0.56529 0.98872 0.0
C2209 C 0.83931 0.5686 0.97122 0.0
C2210 C 0.82163 0.58189 0.97428 0.0
C2211 C 0.81807 0.59183 0.99465 0.0
C2212 C 0.83262 0.58826 0.01203 0.0
H2213 H 0.13562 0.98813 0.06087 0.0
H2214 H 0.0921 0.98526 0.00513 0.0
H2215 H 0.11525 0.95877 0.98756 0.0
H2216 H 0.18492 0.98507 0.03173 0.0
H2217 H 0.19805 0.9681 0.05111 0.0
H2218 H 0.17754 0.98601 0.05999 0.0
H2219 H 0.1557 0.95357 0.07674 0.0
H2220 H 0.17618 0.93554 0.06792 0.0
H2221 H 0.1482 0.93042 0.05999 0.0
H2222 H 0.14444 0.93567 0.97455 0.0
H2223 H 0.17686 0.91503 0.96756 0.0
H2224 H 0.20117 0.9303 0.03239 0.0
C2225 C 0.13092 0.98178 0.04503 0.0
C2226 C 0.11198 0.9887 0.03438 0.0
C2227 C 0.10633 0.97999 0.01371 0.0
C2228 C 0.11944 0.965 0.00356 0.0
C2229 C 0.13803 0.95865 0.01439 0.0
C2230 C 0.1437 0.96652 0.03476 0.0
C2231 C 0.16478 0.95713 0.04259 0.0
C2232 C 0.18236 0.97515 0.04658 0.0
C2233 C 0.16098 0.94335 0.06302 0.0
C2234 C 0.17029 0.94314 0.02321 0.0
C2235 C 0.1546 0.94439 0.00716 0.0
C2236 C 0.15662 0.93421 0.98714 0.0
C2237 C 0.17517 0.92249 0.98334 0.0
C2238 C 0.19143 0.92064 0.99955 0.0
C2239 C 0.1888 0.93098 0.01987 0.0
loop_
_geom_bond_atom_site_label_1
_geom_bond_atom_site_label_2
_geom_bond_distance
_geom_bond_site_symmetry_2
_ccdc_geom_bond_type
P0 O11 1.490 . S
P0 C14 1.812 . S
P0 C20 1.803 . S
P0 C26 1.819 . S
H1 C15 0.941 . S
H2 C16 0.939 . S
H3 C18 0.940 . S
H4 C19 0.940 . S
H5 C21 0.939 . S
H6 C22 0.942 . S
H7 C24 0.940 . S
H8 C25 0.939 . S
H9 C27 0.941 . S
H10 C31 0.939 . S
O11 P0 1.490 . S
H12 C28 0.939 . S
H13 C30 0.940 . S
C14 P0 1.812 . S
C14 C15 1.389 . S
C14 C19 1.391 . S
C15 H1 0.941 . S
C15 C14 1.389 . S
C15 C16 1.397 . S
C16 H2 0.939 . S
C16 C15 1.397 . S
C16 C17 1.378 1_455 S
C17 C16 1.378 1_655 S
C17 C18 1.378 . S
C18 H3 0.940 . S
C18 C17 1.378 . S
C18 C19 1.396 1_655 S
C19 H4 0.940 . S
C19 C14 1.391 . S
C19 C18 1.396 1_455 S
C20 P0 1.803 . S
C20 C21 1.378 . S
C20 C25 1.400 . S
C21 H5 0.939 . S
C21 C20 1.378 . S
C21 C22 1.361 . S
C22 H6 0.942 . S
C22 C21 1.361 . S
C22 C23 1.369 1_545 S
C23 C22 1.369 1_565 S
C23 C24 1.404 . S
C24 H7 0.940 . S
C24 C23 1.404 . S
C24 C25 1.389 1_565 S
C25 H8 0.939 . S
C25 C20 1.400 . S
C25 C24 1.389 1_545 S
C26 P0 1.819 . S
C26 C27 1.391 . S
C26 C31 1.391 . S
C27 H9 0.941 . S
C27 C26 1.391 . S
C27 C28 1.396 . S
C28 H12 0.939 . S
C28 C27 1.396 . S
C28 C29 1.397 1_554 S
C29 C28 1.397 1_556 S
C29 C30 1.385 . S
C30 H13 0.940 . S
C30 C29 1.385 . S
C30 C31 1.388 1_556 S
C31 H10 0.939 . S
C31 C26 1.391 . S
C31 C30 1.388 1_554 S
P32 O43 1.490 . S
P32 C46 1.812 . S
P32 C52 1.803 . S
P32 C58 1.819 . S
H33 C47 0.941 . S
H34 C48 0.939 . S
H35 C50 0.940 . S
H36 C51 0.940 . S
H37 C53 0.939 . S
H38 C54 0.942 . S
H39 C56 0.940 . S
H40 C57 0.939 . S
H41 C59 0.941 . S
H42 C63 0.939 . S
O43 P32 1.490 . S
H44 C60 0.939 . S
H45 C62 0.940 . S
C46 P32 1.812 . S
C46 C47 1.389 . S
C46 C51 1.391 . S
C47 H33 0.941 . S
C47 C46 1.389 . S
C47 C48 1.397 . S
C48 H34 0.939 . S
C48 C47 1.397 . S
C48 C49 1.378 . S
C49 C48 1.378 . S
C49 C50 1.378 . S
C50 H35 0.940 . S
C50 C49 1.378 . S
C50 C51 1.396 . S
C51 H36 0.940 . S
C51 C46 1.391 . S
C51 C50 1.396 . S
C52 P32 1.803 . S
C52 C53 1.378 . S
C52 C57 1.400 . S
C53 H37 0.939 . S
C53 C52 1.378 . S
C53 C54 1.361 . S
C54 H38 0.942 . S
C54 C53 1.361 . S
C54 C55 1.369 . S
C55 C54 1.369 . S
C55 C56 1.404 . S
C56 H39 0.940 . S
C56 C55 1.404 . S
C56 C57 1.389 . S
C57 H40 0.939 . S
C57 C52 1.400 . S
C57 C56 1.389 . S
C58 P32 1.819 . S
C58 C59 1.391 . S
C58 C63 1.391 . S
C59 H41 0.941 . S
C59 C58 1.391 . S
C59 C60 1.396 . S
C60 H44 0.939 . S
C60 C59 1.396 . S
C60 C61 1.397 . S
C61 C60 1.397 . S
C61 C62 1.385 . S
C62 H45 0.940 . S
C62 C61 1.385 . S
C62 C63 1.388 . S
C63 H42 0.939 . S
C63 C58 1.391 . S
C63 C62 1.388 . S
P64 O75 1.539 . S
P64 C78 1.812 . S
P64 C84 1.803 . S
P64 C90 1.819 . S
H65 C79 0.941 . S
H66 C80 0.939 . S
H67 C82 0.940 . S
H68 C83 0.940 . S
H69 C85 0.939 . S
H70 C86 0.942 . S
H71 C88 0.940 . S
H72 C89 0.939 . S
H73 C91 0.941 . S
H74 C95 0.939 . S
O75 P64 1.539 . S
H76 C92 0.939 . S
H77 C94 0.940 . S
C78 P64 1.812 . S
C78 C79 1.389 1_554 S
C78 C83 1.391 . S
C79 H65 0.941 . S
C79 C78 1.389 1_556 S
C79 C80 1.397 . S
C80 H66 0.939 . S
C80 C79 1.397 . S
C80 C81 1.378 . S
C81 C80 1.378 . S
C81 C82 1.378 1_556 S
C82 H67 0.940 . S
C82 C81 1.378 1_554 S
C82 C83 1.396 . S
C83 H68 0.940 . S
C83 C78 1.391 . S
C83 C82 1.396 . S
C84 P64 1.803 . S
C84 C85 1.378 . S
C84 C89 1.400 . S
C85 H69 0.939 . S
C85 C84 1.378 . S
C85 C86 1.361 . S
C86 H70 0.942 . S
C86 C85 1.361 . S
C86 C87 1.369 . S
C87 C86 1.369 . S
C87 C88 1.404 . S
C88 H71 0.940 . S
C88 C87 1.404 . S
C88 C89 1.389 . S
C89 H72 0.939 . S
C89 C84 1.400 . S
C89 C88 1.389 . S
C90 P64 1.819 . S
C90 C91 1.391 1_655 S
C90 C95 1.391 . S
C91 H73 0.941 . S
C91 C90 1.391 1_455 S
C91 C92 1.396 . S
C92 H76 0.939 . S
C92 C91 1.396 . S
C92 C93 1.397 . S
C93 C92 1.397 . S
C93 C94 1.385 1_455 S
C94 H77 0.940 . S
C94 C93 1.385 1_655 S
C94 C95 1.388 . S
C95 H74 0.939 . S
C95 C90 1.391 . S
C95 C94 1.388 . S
P96 O107 1.490 . S
P96 C110 1.812 . S
P96 C116 1.803 . S
P96 C122 1.819 . S
H97 C111 0.941 . S
H98 C112 0.939 . S
H99 C114 0.940 . S
H100 C115 0.940 . S
H101 C117 0.939 . S
H102 C118 0.942 . S
H103 C120 0.940 . S
H104 C121 0.939 . S
H105 C123 0.941 . S
H106 C127 0.939 . S
O107 P96 1.490 . S
H108 C124 0.939 . S
H109 C126 0.940 . S
C110 P96 1.812 . S
C110 C111 1.389 . S
C110 C115 1.391 . S
C111 H97 0.941 . S
C111 C110 1.389 . S
C111 C112 1.397 . S
C112 H98 0.939 . S
C112 C111 1.397 . S
C112 C113 1.378 . S
C113 C112 1.378 . S
C113 C114 1.378 . S
C114 H99 0.940 . S
C114 C113 1.378 . S
C114 C115 1.396 . S
C115 H100 0.940 . S
C115 C110 1.391 . S
C115 C114 1.396 . S
C116 P96 1.803 . S
C116 C117 1.378 . S
C116 C121 1.400 . S
C117 H101 0.939 . S
C117 C116 1.378 . S
C117 C118 1.361 . S
C118 H102 0.942 . S
C118 C117 1.361 . S
C118 C119 1.369 . S
C119 C118 1.369 . S
C119 C120 1.404 . S
C120 H103 0.940 . S
C120 C119 1.404 . S
C120 C121 1.389 . S
C121 H104 0.939 . S
C121 C116 1.400 . S
C121 C120 1.389 . S
C122 P96 1.819 . S
C122 C123 1.391 . S
C122 C127 1.391 . S
C123 H105 0.941 . S
C123 C122 1.391 . S
C123 C124 1.396 . S
C124 H108 0.939 . S
C124 C123 1.396 . S
C124 C125 1.397 . S
C125 C124 1.397 . S
C125 C126 1.385 . S
C126 H109 0.940 . S
C126 C125 1.385 . S
C126 C127 1.388 . S
C127 H106 0.939 . S
C127 C122 1.391 . S
C127 C126 1.388 . S
P128 O139 1.490 . S
P128 C142 1.812 . S
P128 C148 1.803 . S
P128 C154 1.819 . S
H129 C143 0.941 . S
H130 C144 0.939 . S
H131 C146 0.940 . S
H132 C147 0.940 . S
H133 C149 0.939 . S
H134 C150 0.942 . S
H135 C152 0.940 . S
H136 C153 0.939 . S
H137 C155 0.941 . S
H138 C159 0.939 . S
O139 P128 1.490 . S
H140 C156 0.939 . S
H141 C158 0.940 . S
C142 P128 1.812 . S
C142 C143 1.389 . S
C142 C147 1.391 . S
C143 H129 0.941 . S
C143 C142 1.389 . S
C143 C144 1.397 . S
C144 H130 0.939 . S
C144 C143 1.397 . S
C144 C145 1.378 1_565 S
C145 C144 1.378 1_545 S
C145 C146 1.378 . S
C146 H131 0.940 . S
C146 C145 1.378 . S
C146 C147 1.396 1_545 S
C147 H132 0.940 . S
C147 C142 1.391 . S
C147 C146 1.396 1_565 S
C148 P128 1.803 . S
C148 C149 1.378 . S
C148 C153 1.400 . S
C149 H133 0.939 . S
C149 C148 1.378 . S
C149 C150 1.361 . S
C150 H134 0.942 . S
C150 C149 1.361 . S
C150 C151 1.369 . S
C151 C150 1.369 . S
C151 C152 1.404 . S
C152 H135 0.940 . S
C152 C151 1.404 . S
C152 C153 1.389 . S
C153 H136 0.939 . S
C153 C148 1.400 . S
C153 C152 1.389 . S
C154 P128 1.819 . S
C154 C155 1.391 . S
C154 C159 1.391 . S
C155 H137 0.941 . S
C155 C154 1.391 . S
C155 C156 1.396 . S
C156 H140 0.939 . S
C156 C155 1.396 . S
C156 C157 1.397 1_455 S
C157 C156 1.397 1_655 S
C157 C158 1.385 . S
C158 H141 0.940 . S
C158 C157 1.385 . S
C158 C159 1.388 1_655 S
C159 H138 0.939 . S
C159 C154 1.391 . S
C159 C158 1.388 1_455 S
P160 O171 1.490 . S
P160 C174 1.812 . S
P160 C180 1.803 . S
P160 C186 1.819 . S
H161 C175 0.941 . S
H162 C176 0.939 . S
H163 C178 0.940 . S
H164 C179 0.940 . S
H165 C181 0.939 . S
H166 C182 0.942 . S
H167 C184 0.940 . S
H168 C185 0.939 . S
H169 C187 0.941 . S
H170 C191 0.939 . S
O171 P160 1.490 . S
H172 C188 0.939 . S
H173 C190 0.940 . S
C174 P160 1.812 . S
C174 C175 1.389 . S
C174 C179 1.391 . S
C175 H161 0.941 . S
C175 C174 1.389 . S
C175 C176 1.397 . S
C176 H162 0.939 . S
C176 C175 1.397 . S
C176 C177 1.378 . S
C177 C176 1.378 . S
C177 C178 1.378 . S
C178 H163 0.940 . S
C178 C177 1.378 . S
C178 C179 1.396 . S
C179 H164 0.940 . S
C179 C174 1.391 . S
C179 C178 1.396 . S
C180 P160 1.803 . S
C180 C181 1.378 . S
C180 C185 1.400 . S
C181 H165 0.939 . S
C181 C180 1.378 . S
C181 C182 1.361 . S
C182 H166 0.942 . S
C182 C181 1.361 . S
C182 C183 1.369 . S
C183 C182 1.369 . S
C183 C184 1.404 . S
C184 H167 0.940 . S
C184 C183 1.404 . S
C184 C185 1.389 . S
C185 H168 0.939 . S
C185 C180 1.400 . S
C185 C184 1.389 . S
C186 P160 1.819 . S
C186 C187 1.391 . S
C186 C191 1.391 . S
C187 H169 0.941 . S
C187 C186 1.391 . S
C187 C188 1.396 . S
C188 H172 0.939 . S
C188 C187 1.396 . S
C188 C189 1.397 . S
C189 C188 1.397 . S
C189 C190 1.385 . S
C190 H173 0.940 . S
C190 C189 1.385 . S
C190 C191 1.388 . S
C191 H170 0.939 . S
C191 C186 1.391 . S
C191 C190 1.388 . S
P192 O203 1.490 1_655 S
P192 C206 1.810 . S
P192 C212 1.803 . S
P192 C218 1.819 . S
H193 C207 0.941 . S
H194 C208 0.939 . S
H195 C210 0.940 . S
H196 C211 0.940 . S
H197 C213 0.939 . S
H198 C214 0.942 . S
H199 C216 0.940 . S
H200 C217 0.939 . S
H201 C219 0.941 . S
H202 C223 0.939 . S
O203 P192 1.490 1_455 S
H204 C220 0.939 . S
H205 C222 0.940 . S
C206 P192 1.810 . S
C206 C207 1.393 1_655 S
C206 C211 1.389 . S
C207 H193 0.941 . S
C207 C206 1.393 1_455 S
C207 C208 1.397 . S
C208 H194 0.939 . S
C208 C207 1.397 . S
C208 C209 1.378 . S
C209 C208 1.378 . S
C209 C210 1.378 1_455 S
C210 H195 0.940 . S
C210 C209 1.378 1_655 S
C210 C211 1.396 . S
C211 H196 0.940 . S
C211 C206 1.389 . S
C211 C210 1.396 . S
C212 P192 1.803 . S
C212 C213 1.378 . S
C212 C217 1.400 . S
C213 H197 0.939 . S
C213 C212 1.378 . S
C213 C214 1.361 . S
C214 H198 0.942 . S
C214 C213 1.361 . S
C214 C215 1.369 . S
C215 C214 1.369 . S
C215 C216 1.404 . S
C216 H199 0.940 . S
C216 C215 1.404 . S
C216 C217 1.389 . S
C217 H200 0.939 . S
C217 C212 1.400 . S
C217 C216 1.389 . S
C218 P192 1.819 . S
C218 C219 1.391 . S
C218 C223 1.391 . S
C219 H201 0.941 . S
C219 C218 1.391 . S
C219 C220 1.396 . S
C220 H204 0.939 . S
C220 C219 1.396 . S
C220 C221 1.397 . S
C221 C220 1.397 . S
C221 C222 1.385 . S
C222 H205 0.940 . S
C222 C221 1.385 . S
C222 C223 1.388 . S
C223 H202 0.939 . S
C223 C218 1.391 . S
C223 C222 1.388 . S
P224 O235 1.490 . S
P224 C238 1.812 . S
P224 C244 1.803 . S
P224 C250 1.819 . S
H225 C239 0.941 . S
H226 C240 0.939 . S
H227 C242 0.940 . S
H228 C243 0.940 . S
H229 C245 0.939 . S
H230 C246 0.942 . S
H231 C248 0.940 . S
H232 C249 0.939 . S
H233 C251 0.941 . S
H234 C255 0.939 . S
O235 P224 1.490 . S
H236 C252 0.939 . S
H237 C254 0.940 . S
C238 P224 1.812 . S
C238 C239 1.389 . S
C238 C243 1.391 . S
C239 H225 0.941 . S
C239 C238 1.389 . S
C239 C240 1.397 . S
C240 H226 0.939 . S
C240 C239 1.397 . S
C240 C241 1.378 . S
C241 C240 1.378 . S
C241 C242 1.378 . S
C242 H227 0.940 . S
C242 C241 1.378 . S
C242 C243 1.396 . S
C243 H228 0.940 . S
C243 C238 1.391 . S
C243 C242 1.396 . S
C244 P224 1.803 . S
C244 C245 1.378 . S
C244 C249 1.400 . S
C245 H229 0.939 . S
C245 C244 1.378 . S
C245 C246 1.361 . S
C246 H230 0.942 . S
C246 C245 1.361 . S
C246 C247 1.369 . S
C247 C246 1.369 . S
C247 C248 1.404 . S
C248 H231 0.940 . S
C248 C247 1.404 . S
C248 C249 1.389 . S
C249 H232 0.939 . S
C249 C244 1.400 . S
C249 C248 1.389 . S
C250 P224 1.819 . S
C250 C251 1.391 . S
C250 C255 1.391 . S
C251 H233 0.941 . S
C251 C250 1.391 . S
C251 C252 1.396 . S
C252 H236 0.939 . S
C252 C251 1.396 . S
C252 C253 1.397 . S
C253 C252 1.397 . S
C253 C254 1.385 . S
C254 H237 0.940 . S
C254 C253 1.385 . S
C254 C255 1.388 . S
C255 H234 0.939 . S
C255 C250 1.391 . S
C255 C254 1.388 . S
P256 O267 1.490 . S
P256 C270 1.812 . S
P256 C276 1.803 . S
P256 C282 1.819 . S
H257 C271 0.941 . S
H258 C272 0.939 . S
H259 C274 0.940 . S
H260 C275 0.940 . S
H261 C277 0.939 . S
H262 C278 0.942 . S
H263 C280 0.940 . S
H264 C281 0.939 . S
H265 C283 0.941 . S
H266 C287 0.939 . S
O267 P256 1.490 . S
H268 C284 0.939 . S
H269 C286 0.940 . S
C270 P256 1.812 . S
C270 C271 1.389 . S
C270 C275 1.391 . S
C271 H257 0.941 . S
C271 C270 1.389 . S
C271 C272 1.397 . S
C272 H258 0.939 . S
C272 C271 1.397 . S
C272 C273 1.378 . S
C273 C272 1.378 . S
C273 C274 1.378 . S
C274 H259 0.940 . S
C274 C273 1.378 . S
C274 C275 1.396 . S
C275 H260 0.940 . S
C275 C270 1.391 . S
C275 C274 1.396 . S
C276 P256 1.803 . S
C276 C277 1.378 . S
C276 C281 1.400 . S
C277 H261 0.939 . S
C277 C276 1.378 . S
C277 C278 1.361 . S
C278 H262 0.942 . S
C278 C277 1.361 . S
C278 C279 1.369 . S
C279 C278 1.369 . S
C279 C280 1.404 . S
C280 H263 0.940 . S
C280 C279 1.404 . S
C280 C281 1.389 . S
C281 H264 0.939 . S
C281 C276 1.400 . S
C281 C280 1.389 . S
C282 P256 1.819 . S
C282 C283 1.391 . S
C282 C287 1.391 . S
C283 H265 0.941 . S
C283 C282 1.391 . S
C283 C284 1.396 . S
C284 H268 0.939 . S
C284 C283 1.396 . S
C284 C285 1.397 . S
C285 C284 1.397 . S
C285 C286 1.385 . S
C286 H269 0.940 . S
C286 C285 1.385 . S
C286 C287 1.388 . S
C287 H266 0.939 . S
C287 C282 1.391 . S
C287 C286 1.388 . S
P288 O299 1.490 1_565 S
P288 C302 1.812 . S
P288 C308 1.803 . S
P288 C314 1.819 . S
H289 C303 0.941 . S
H290 C304 0.939 . S
H291 C306 0.940 . S
H292 C307 0.940 . S
H293 C309 0.939 . S
H294 C310 0.942 . S
H295 C312 0.940 . S
H296 C313 0.939 . S
H297 C315 0.941 . S
H298 C319 0.939 . S
O299 P288 1.490 1_545 S
H300 C316 0.939 . S
H301 C318 0.940 . S
C302 P288 1.812 . S
C302 C303 1.389 . S
C302 C307 1.391 . S
C303 H289 0.941 . S
C303 C302 1.389 . S
C303 C304 1.397 . S
C304 H290 0.939 . S
C304 C303 1.397 . S
C304 C305 1.378 . S
C305 C304 1.378 . S
C305 C306 1.378 . S
C306 H291 0.940 . S
C306 C305 1.378 . S
C306 C307 1.396 . S
C307 H292 0.940 . S
C307 C302 1.391 . S
C307 C306 1.396 . S
C308 P288 1.803 . S
C308 C309 1.378 1_565 S
C308 C313 1.400 . S
C309 H293 0.939 . S
C309 C308 1.378 1_545 S
C309 C310 1.361 . S
C310 H294 0.942 . S
C310 C309 1.361 . S
C310 C311 1.369 . S
C311 C310 1.369 . S
C311 C312 1.404 1_545 S
C312 H295 0.940 . S
C312 C311 1.404 1_565 S
C312 C313 1.389 . S
C313 H296 0.939 . S
C313 C308 1.400 . S
C313 C312 1.389 . S
C314 P288 1.819 . S
C314 C315 1.391 . S
C314 C319 1.391 . S
C315 H297 0.941 . S
C315 C314 1.391 . S
C315 C316 1.396 . S
C316 H300 0.939 . S
C316 C315 1.396 . S
C316 C317 1.397 . S
C317 C316 1.397 . S
C317 C318 1.385 . S
C318 H301 0.940 . S
C318 C317 1.385 . S
C318 C319 1.388 . S
C319 H298 0.939 . S
C319 C314 1.391 . S
C319 C318 1.388 . S
P320 O331 1.490 . S
P320 C334 1.812 . S
P320 C340 1.803 . S
P320 C346 1.819 . S
H321 C335 0.941 . S
H322 C336 0.939 . S
H323 C338 0.940 . S
H324 C339 0.940 . S
H325 C341 0.939 . S
H326 C342 0.942 . S
H327 C344 0.940 . S
H328 C345 0.939 . S
H329 C347 0.941 . S
H330 C351 0.939 . S
O331 P320 1.490 . S
H332 C348 0.939 . S
H333 C350 0.940 . S
C334 P320 1.812 . S
C334 C335 1.389 . S
C334 C339 1.391 . S
C335 H321 0.941 . S
C335 C334 1.389 . S
C335 C336 1.397 . S
C336 H322 0.939 . S
C336 C335 1.397 . S
C336 C337 1.378 . S
C337 C336 1.378 . S
C337 C338 1.378 . S
C338 H323 0.940 . S
C338 C337 1.378 . S
C338 C339 1.396 . S
C339 H324 0.940 . S
C339 C334 1.391 . S
C339 C338 1.396 . S
C340 P320 1.803 . S
C340 C341 1.378 . S
C340 C345 1.400 . S
C341 H325 0.939 . S
C341 C340 1.378 . S
C341 C342 1.361 . S
C342 H326 0.942 . S
C342 C341 1.361 . S
C342 C343 1.369 . S
C343 C342 1.369 . S
C343 C344 1.404 . S
C344 H327 0.940 . S
C344 C343 1.404 . S
C344 C345 1.389 . S
C345 H328 0.939 . S
C345 C340 1.400 . S
C345 C344 1.389 . S
C346 P320 1.819 . S
C346 C347 1.391 . S
C346 C351 1.391 . S
C347 H329 0.941 . S
C347 C346 1.391 . S
C347 C348 1.396 . S
C348 H332 0.939 . S
C348 C347 1.396 . S
C348 C349 1.397 . S
C349 C348 1.397 . S
C349 C350 1.385 . S
C350 H333 0.940 . S
C350 C349 1.385 . S
C350 C351 1.388 . S
C351 H330 0.939 . S
C351 C346 1.391 . S
C351 C350 1.388 . S
P352 O363 1.490 . S
P352 C366 1.812 . S
P352 C372 1.803 . S
P352 C378 1.819 . S
H353 C367 0.941 . S
H354 C368 0.939 . S
H355 C370 0.940 . S
H356 C371 0.940 . S
H357 C373 0.939 . S
H358 C374 0.942 . S
H359 C376 0.940 . S
H360 C377 0.939 . S
H361 C379 0.941 . S
H362 C383 0.939 . S
O363 P352 1.490 . S
H364 C380 0.939 . S
H365 C382 0.940 . S
C366 P352 1.812 . S
C366 C367 1.389 . S
C366 C371 1.391 . S
C367 H353 0.941 . S
C367 C366 1.389 . S
C367 C368 1.397 . S
C368 H354 0.939 . S
C368 C367 1.397 . S
C368 C369 1.378 . S
C369 C368 1.378 . S
C369 C370 1.378 . S
C370 H355 0.940 . S
C370 C369 1.378 . S
C370 C371 1.396 . S
C371 H356 0.940 . S
C371 C366 1.391 . S
C371 C370 1.396 . S
C372 P352 1.803 . S
C372 C373 1.378 . S
C372 C377 1.400 . S
C373 H357 0.939 . S
C373 C372 1.378 . S
C373 C374 1.361 . S
C374 H358 0.942 . S
C374 C373 1.361 . S
C374 C375 1.369 . S
C375 C374 1.369 . S
C375 C376 1.404 . S
C376 H359 0.940 . S
C376 C375 1.404 . S
C376 C377 1.389 . S
C377 H360 0.939 . S
C377 C372 1.400 . S
C377 C376 1.389 . S
C378 P352 1.819 . S
C378 C379 1.391 . S
C378 C383 1.391 . S
C379 H361 0.941 . S
C379 C378 1.391 . S
C379 C380 1.396 . S
C380 H364 0.939 . S
C380 C379 1.396 . S
C380 C381 1.397 . S
C381 C380 1.397 . S
C381 C382 1.385 . S
C382 H365 0.940 . S
C382 C381 1.385 . S
C382 C383 1.388 . S
C383 H362 0.939 . S
C383 C378 1.391 . S
C383 C382 1.388 . S
P384 O395 1.490 . S
P384 C398 1.812 . S
P384 C404 1.803 . S
P384 C410 1.819 . S
H385 C399 0.941 . S
H386 C400 0.939 . S
H387 C402 0.940 . S
H388 C403 0.940 . S
H389 C405 0.939 . S
H390 C406 0.942 . S
H391 C408 0.940 . S
H392 C409 0.939 . S
H393 C411 0.941 . S
H394 C415 0.939 . S
O395 P384 1.490 . S
H396 C412 0.939 . S
H397 C414 0.940 . S
C398 P384 1.812 . S
C398 C399 1.389 . S
C398 C403 1.391 . S
C399 H385 0.941 . S
C399 C398 1.389 . S
C399 C400 1.397 . S
C400 H386 0.939 . S
C400 C399 1.397 . S
C400 C401 1.378 . S
C401 C400 1.378 . S
C401 C402 1.378 . S
C402 H387 0.940 . S
C402 C401 1.378 . S
C402 C403 1.396 . S
C403 H388 0.940 . S
C403 C398 1.391 . S
C403 C402 1.396 . S
C404 P384 1.803 . S
C404 C405 1.378 . S
C404 C409 1.400 . S
C405 H389 0.939 . S
C405 C404 1.378 . S
C405 C406 1.361 . S
C406 H390 0.942 . S
C406 C405 1.361 . S
C406 C407 1.369 . S
C407 C406 1.369 . S
C407 C408 1.404 . S
C408 H391 0.940 . S
C408 C407 1.404 . S
C408 C409 1.389 . S
C409 H392 0.939 . S
C409 C404 1.400 . S
C409 C408 1.389 . S
C410 P384 1.819 . S
C410 C411 1.391 . S
C410 C415 1.391 . S
C411 H393 0.941 . S
C411 C410 1.391 . S
C411 C412 1.396 . S
C412 H396 0.939 . S
C412 C411 1.396 . S
C412 C413 1.397 . S
C413 C412 1.397 . S
C413 C414 1.385 . S
C414 H397 0.940 . S
C414 C413 1.385 . S
C414 C415 1.388 . S
C415 H394 0.939 . S
C415 C410 1.391 . S
C415 C414 1.388 . S
P416 O427 1.490 . S
P416 C430 1.812 . S
P416 C436 1.803 . S
P416 C442 1.819 . S
H417 C431 0.941 . S
H418 C432 0.939 . S
H419 C434 0.940 . S
H420 C435 0.940 . S
H421 C437 0.939 . S
H422 C438 0.942 . S
H423 C440 0.940 . S
H424 C441 0.939 . S
H425 C443 0.941 . S
H426 C447 0.939 . S
O427 P416 1.490 . S
H428 C444 0.939 . S
H429 C446 0.940 . S
C430 P416 1.812 . S
C430 C431 1.389 . S
C430 C435 1.391 . S
C431 H417 0.941 . S
C431 C430 1.389 . S
C431 C432 1.397 . S
C432 H418 0.939 . S
C432 C431 1.397 . S
C432 C433 1.378 . S
C433 C432 1.378 . S
C433 C434 1.378 . S
C434 H419 0.940 . S
C434 C433 1.378 . S
C434 C435 1.396 . S
C435 H420 0.940 . S
C435 C430 1.391 . S
C435 C434 1.396 . S
C436 P416 1.803 . S
C436 C437 1.378 . S
C436 C441 1.400 . S
C437 H421 0.939 . S
C437 C436 1.378 . S
C437 C438 1.361 . S
C438 H422 0.942 . S
C438 C437 1.361 . S
C438 C439 1.369 1_556 S
C439 C438 1.369 1_554 S
C439 C440 1.404 . S
C440 H423 0.940 . S
C440 C439 1.404 . S
C440 C441 1.389 1_554 S
C441 H424 0.939 . S
C441 C436 1.400 . S
C441 C440 1.389 1_556 S
C442 P416 1.819 . S
C442 C443 1.391 . S
C442 C447 1.391 . S
C443 H425 0.941 . S
C443 C442 1.391 . S
C443 C444 1.396 . S
C444 H428 0.939 . S
C444 C443 1.396 . S
C444 C445 1.397 . S
C445 C444 1.397 . S
C445 C446 1.385 . S
C446 H429 0.940 . S
C446 C445 1.385 . S
C446 C447 1.388 . S
C447 H426 0.939 . S
C447 C442 1.391 . S
C447 C446 1.388 . S
P448 O459 1.490 . S
P448 C462 1.812 . S
P448 C468 1.803 . S
P448 C474 1.819 . S
H449 C463 0.941 . S
H450 C464 0.939 . S
H451 C466 0.940 . S
H452 C467 0.940 . S
H453 C469 0.939 . S
H454 C470 0.942 . S
H455 C472 0.940 . S
H456 C473 0.939 . S
H457 C475 0.941 . S
H458 C479 0.939 . S
O459 P448 1.490 . S
H460 C476 0.939 . S
H461 C478 0.940 . S
C462 P448 1.812 . S
C462 C463 1.389 . S
C462 C467 1.391 . S
C463 H449 0.941 . S
C463 C462 1.389 . S
C463 C464 1.397 . S
C464 H450 0.939 . S
C464 C463 1.397 . S
C464 C465 1.378 . S
C465 C464 1.378 . S
C465 C466 1.378 . S
C466 H451 0.940 . S
C466 C465 1.378 . S
C466 C467 1.396 . S
C467 H452 0.940 . S
C467 C462 1.391 . S
C467 C466 1.396 . S
C468 P448 1.803 . S
C468 C469 1.378 . S
C468 C473 1.400 . S
C469 H453 0.939 . S
C469 C468 1.378 . S
C469 C470 1.361 . S
C470 H454 0.942 . S
C470 C469 1.361 . S
C470 C471 1.369 . S
C471 C470 1.369 . S
C471 C472 1.404 . S
C472 H455 0.940 . S
C472 C471 1.404 . S
C472 C473 1.389 . S
C473 H456 0.939 . S
C473 C468 1.400 . S
C473 C472 1.389 . S
C474 P448 1.819 . S
C474 C475 1.391 . S
C474 C479 1.391 . S
C475 H457 0.941 . S
C475 C474 1.391 . S
C475 C476 1.396 . S
C476 H460 0.939 . S
C476 C475 1.396 . S
C476 C477 1.397 . S
C477 C476 1.397 . S
C477 C478 1.385 . S
C478 H461 0.940 . S
C478 C477 1.385 . S
C478 C479 1.388 . S
C479 H458 0.939 . S
C479 C474 1.391 . S
C479 C478 1.388 . S
P480 O491 1.490 1_556 S
P480 C494 1.812 . S
P480 C500 1.803 1_556 S
P480 C506 1.819 . S
H481 C495 0.941 . S
H482 C496 0.939 . S
H483 C498 0.940 . S
H484 C499 0.940 . S
H485 C501 0.939 . S
H486 C502 0.942 . S
H487 C504 0.940 . S
H488 C505 0.939 . S
H489 C507 0.941 . S
H490 C511 0.939 . S
O491 P480 1.490 1_554 S
H492 C508 0.939 . S
H493 C510 0.940 . S
C494 P480 1.812 . S
C494 C495 1.389 . S
C494 C499 1.391 . S
C495 H481 0.941 . S
C495 C494 1.389 . S
C495 C496 1.397 . S
C496 H482 0.939 . S
C496 C495 1.397 . S
C496 C497 1.378 . S
C497 C496 1.378 . S
C497 C498 1.378 . S
C498 H483 0.940 . S
C498 C497 1.378 . S
C498 C499 1.396 . S
C499 H484 0.940 . S
C499 C494 1.391 . S
C499 C498 1.396 . S
C500 P480 1.803 1_554 S
C500 C501 1.378 . S
C500 C505 1.400 1_554 S
C501 H485 0.939 . S
C501 C500 1.378 . S
C501 C502 1.361 . S
C502 H486 0.942 . S
C502 C501 1.361 . S
C502 C503 1.369 . S
C503 C502 1.369 . S
C503 C504 1.404 1_554 S
C504 H487 0.940 . S
C504 C503 1.404 1_556 S
C504 C505 1.389 . S
C505 H488 0.939 . S
C505 C500 1.400 1_556 S
C505 C504 1.389 . S
C506 P480 1.819 . S
C506 C507 1.391 1_545 S
C506 C511 1.391 . S
C507 H489 0.941 . S
C507 C506 1.391 1_565 S
C507 C508 1.396 . S
C508 H492 0.939 . S
C508 C507 1.396 . S
C508 C509 1.397 . S
C509 C508 1.397 . S
C509 C510 1.385 1_565 S
C510 H493 0.940 . S
C510 C509 1.385 1_545 S
C510 C511 1.388 . S
C511 H490 0.939 . S
C511 C506 1.391 . S
C511 C510 1.388 . S
Mn512 O517 2.095 . S
Mn512 O527 2.162 . S
Mn512 O528 2.297 . S
Mn512 O536 2.385 1_554 S
Mn512 O537 2.209 1_554 S
Mn512 O538 2.094 . S
Mn513 O518 2.121 . S
Mn513 N520 2.257 . S
Mn513 N529 2.282 . S
Mn513 O537 2.215 . S
Mn513 O539 2.117 . S
C514 O536 1.234 . S
C514 O537 1.283 . S
C515 O527 1.281 . S
C515 O528 1.236 . S
C516 O538 1.240 . S
C516 O539 1.264 1_554 S
O517 Mn512 2.095 . S
O517 C526 1.250 . S
O518 Mn513 2.121 . S
O518 C526 1.258 1_556 S
C519 N520 1.326 . S
C519 C523 1.460 . S
C519 H525 0.929 . S
N520 Mn513 2.257 . S
N520 C519 1.326 . S
N520 C524 1.362 . S
C521 C522 1.258 . S
C521 C524 1.431 . S
C521 C541 1.449 . S
C522 C521 1.258 . S
C522 C523 1.477 . S
C522 H542 0.931 . S
C523 C519 1.460 . S
C523 C522 1.477 . S
C523 H543 0.930 . S
C524 N520 1.362 . S
C524 C521 1.431 . S
C524 C534 1.476 . S
H525 C519 0.929 . S
C526 O517 1.250 . S
C526 O518 1.258 1_554 S
O527 Mn512 2.162 . S
O527 C515 1.281 . S
O528 Mn512 2.297 . S
O528 C515 1.236 . S
N529 Mn513 2.282 . S
N529 C530 1.328 . S
N529 C534 1.318 . S
C530 N529 1.328 . S
C530 C531 1.457 . S
C530 H535 0.929 . S
C531 C530 1.457 . S
C531 C532 1.291 . S
C531 H544 0.931 . S
C532 C531 1.291 . S
C532 C533 1.373 . S
C532 H545 0.929 . S
C533 C532 1.373 . S
C533 C534 1.396 . S
C533 C540 1.403 . S
C534 C524 1.476 . S
C534 N529 1.318 . S
C534 C533 1.396 . S
H535 C530 0.929 . S
O536 Mn512 2.385 1_556 S
O536 C514 1.234 . S
O537 Mn512 2.209 1_556 S
O537 Mn513 2.215 . S
O537 C514 1.283 . S
O538 Mn512 2.094 . S
O538 C516 1.240 . S
O539 Mn513 2.117 . S
O539 C516 1.264 1_556 S
C540 C533 1.403 . S
C540 C541 1.399 . S
C540 H546 0.929 . S
C541 C521 1.449 . S
C541 C540 1.399 . S
C541 H547 0.930 . S
H542 C522 0.931 . S
H543 C523 0.930 . S
H544 C531 0.931 . S
H545 C532 0.929 . S
H546 C540 0.929 . S
H547 C541 0.930 . S
Mn548 O553 2.095 . S
Mn548 O563 2.162 . S
Mn548 O564 2.297 . S
Mn548 O572 2.385 . S
Mn548 O573 2.209 . S
Mn548 O574 2.094 . S
Mn549 O554 2.121 . S
Mn549 N556 2.257 . S
Mn549 N565 2.282 . S
Mn549 O573 2.215 . S
Mn549 O575 2.117 . S
C550 O572 1.234 . S
C550 O573 1.283 . S
C551 O563 1.281 . S
C551 O564 1.236 . S
C552 O574 1.240 . S
C552 O575 1.264 . S
O553 Mn548 2.095 . S
O553 C562 1.250 . S
O554 Mn549 2.121 . S
O554 C562 1.258 . S
C555 N556 1.326 . S
C555 C559 1.460 . S
C555 H561 0.929 . S
N556 Mn549 2.257 . S
N556 C555 1.326 . S
N556 C560 1.362 . S
C557 C558 1.258 . S
C557 C560 1.431 . S
C557 C577 1.449 . S
C558 C557 1.258 . S
C558 C559 1.477 . S
C558 H578 0.931 . S
C559 C555 1.460 . S
C559 C558 1.477 . S
C559 H579 0.930 . S
C560 N556 1.362 . S
C560 C557 1.431 . S
C560 C570 1.476 . S
H561 C555 0.929 . S
C562 O553 1.250 . S
C562 O554 1.258 . S
O563 Mn548 2.162 . S
O563 C551 1.281 . S
O564 Mn548 2.297 . S
O564 C551 1.236 . S
N565 Mn549 2.282 . S
N565 C566 1.328 . S
N565 C570 1.318 . S
C566 N565 1.328 . S
C566 C567 1.457 . S
C566 H571 0.929 . S
C567 C566 1.457 . S
C567 C568 1.291 . S
C567 H580 0.931 . S
C568 C567 1.291 . S
C568 C569 1.373 . S
C568 H581 0.929 . S
C569 C568 1.373 . S
C569 C570 1.396 . S
C569 C576 1.403 . S
C570 C560 1.476 . S
C570 N565 1.318 . S
C570 C569 1.396 . S
H571 C566 0.929 . S
O572 Mn548 2.385 . S
O572 C550 1.234 . S
O573 Mn548 2.209 . S
O573 Mn549 2.215 . S
O573 C550 1.283 . S
O574 Mn548 2.094 . S
O574 C552 1.240 . S
O575 Mn549 2.117 . S
O575 C552 1.264 . S
C576 C569 1.403 . S
C576 C577 1.399 . S
C576 H582 0.929 . S
C577 C557 1.449 . S
C577 C576 1.399 . S
C577 H583 0.930 . S
H578 C558 0.931 . S
H579 C559 0.930 . S
H580 C567 0.931 . S
H581 C568 0.929 . S
H582 C576 0.929 . S
H583 C577 0.930 . S
Mn584 O589 2.095 1_554 S
Mn584 O599 2.162 . S
Mn584 O600 2.297 1_554 S
Mn584 O608 2.385 . S
Mn584 O609 2.209 1_554 S
Mn584 O610 2.094 . S
Mn585 O590 2.121 . S
Mn585 N592 2.257 . S
Mn585 N601 2.282 . S
Mn585 O609 2.215 . S
Mn585 O611 2.117 1_556 S
C586 O608 1.219 1_556 S
C586 O609 1.294 . S
C587 O599 1.281 . S
C587 O600 1.236 1_554 S
C588 O610 1.240 . S
C588 O611 1.264 . S
O589 Mn584 2.095 1_556 S
O589 C598 1.250 . S
O590 Mn585 2.121 . S
O590 C598 1.258 . S
C591 N592 1.326 . S
C591 C595 1.460 . S
C591 H597 0.929 . S
N592 Mn585 2.257 . S
N592 C591 1.326 . S
N592 C596 1.362 . S
C593 C594 1.258 . S
C593 C596 1.431 . S
C593 C613 1.449 . S
C594 C593 1.258 . S
C594 C595 1.477 . S
C594 H614 0.931 . S
C595 C591 1.460 . S
C595 C594 1.477 . S
C595 H615 0.930 . S
C596 N592 1.362 . S
C596 C593 1.431 . S
C596 C606 1.476 . S
H597 C591 0.929 . S
C598 O589 1.250 . S
C598 O590 1.258 . S
O599 Mn584 2.162 . S
O599 C587 1.281 . S
O600 Mn584 2.297 1_556 S
O600 C587 1.236 1_556 S
N601 Mn585 2.282 . S
N601 C602 1.328 1_556 S
N601 C606 1.318 . S
C602 N601 1.328 1_554 S
C602 C603 1.457 . S
C602 H607 0.929 . S
C603 C602 1.457 . S
C603 C604 1.291 . S
C603 H616 0.931 . S
C604 C603 1.291 . S
C604 C605 1.373 1_554 S
C604 H617 0.929 . S
C605 C604 1.373 1_556 S
C605 C606 1.396 . S
C605 C612 1.403 . S
C606 C596 1.476 . S
C606 N601 1.318 . S
C606 C605 1.396 . S
H607 C602 0.929 . S
O608 Mn584 2.385 . S
O608 C586 1.219 1_554 S
O609 Mn584 2.209 1_556 S
O609 Mn585 2.215 . S
O609 C586 1.294 . S
O610 Mn584 2.094 . S
O610 C588 1.240 . S
O611 Mn585 2.117 1_554 S
O611 C588 1.264 . S
C612 C605 1.403 . S
C612 C613 1.399 . S
C612 H618 0.929 . S
C613 C593 1.449 . S
C613 C612 1.399 . S
C613 H619 0.930 . S
H614 C594 0.931 . S
H615 C595 0.930 . S
H616 C603 0.931 . S
H617 C604 0.929 . S
H618 C612 0.929 . S
H619 C613 0.930 . S
Mn620 O625 2.095 . S
Mn620 O635 2.162 . S
Mn620 O636 2.297 . S
Mn620 O644 2.385 1_545 S
Mn620 O645 2.209 1_545 S
Mn620 O646 2.094 . S
Mn621 O626 2.121 . S
Mn621 N628 2.257 . S
Mn621 N637 2.282 . S
Mn621 O645 2.215 . S
Mn621 O647 2.117 . S
C622 O644 1.234 . S
C622 O645 1.283 . S
C623 O635 1.281 . S
C623 O636 1.236 . S
C624 O646 1.240 . S
C624 O647 1.264 1_545 S
O625 Mn620 2.095 . S
O625 C634 1.246 . S
O626 Mn621 2.121 . S
O626 C634 1.264 1_565 S
C627 N628 1.326 . S
C627 C631 1.460 . S
C627 H633 0.929 . S
N628 Mn621 2.257 . S
N628 C627 1.326 . S
N628 C632 1.362 . S
C629 C630 1.258 . S
C629 C632 1.431 . S
C629 C649 1.449 . S
C630 C629 1.258 . S
C630 C631 1.477 . S
C630 H650 0.931 . S
C631 C627 1.460 . S
C631 C630 1.477 . S
C631 H651 0.930 . S
C632 N628 1.362 . S
C632 C629 1.431 . S
C632 C642 1.476 . S
H633 C627 0.929 . S
C634 O625 1.246 . S
C634 O626 1.264 1_545 S
O635 Mn620 2.162 . S
O635 C623 1.281 . S
O636 Mn620 2.297 . S
O636 C623 1.236 . S
N637 Mn621 2.282 . S
N637 C638 1.328 . S
N637 C642 1.318 . S
C638 N637 1.328 . S
C638 C639 1.457 . S
C638 H643 0.929 . S
C639 C638 1.457 . S
C639 C640 1.291 . S
C639 H652 0.931 . S
C640 C639 1.291 . S
C640 C641 1.373 . S
C640 H653 0.929 . S
C641 C640 1.373 . S
C641 C642 1.396 . S
C641 C648 1.403 . S
C642 C632 1.476 . S
C642 N637 1.318 . S
C642 C641 1.396 . S
H643 C638 0.929 . S
O644 Mn620 2.385 1_565 S
O644 C622 1.234 . S
O645 Mn620 2.209 1_565 S
O645 Mn621 2.215 . S
O645 C622 1.283 . S
O646 Mn620 2.094 . S
O646 C624 1.240 . S
O647 Mn621 2.117 . S
O647 C624 1.264 1_565 S
C648 C641 1.403 . S
C648 C649 1.399 . S
C648 H654 0.929 . S
C649 C629 1.449 . S
C649 C648 1.399 . S
C649 H655 0.930 . S
H650 C630 0.931 . S
H651 C631 0.930 . S
H652 C639 0.931 . S
H653 C640 0.929 . S
H654 C648 0.929 . S
H655 C649 0.930 . S
Mn656 O661 2.095 . S
Mn656 O671 2.162 . S
Mn656 O672 2.297 . S
Mn656 O680 2.385 . S
Mn656 O681 2.209 . S
Mn656 O682 2.094 . S
Mn657 O662 2.121 . S
Mn657 N664 2.257 . S
Mn657 N673 2.282 . S
Mn657 O681 2.215 . S
Mn657 O683 2.117 . S
C658 O680 1.234 . S
C658 O681 1.283 . S
C659 O671 1.281 . S
C659 O672 1.236 . S
C660 O682 1.240 . S
C660 O683 1.264 . S
O661 Mn656 2.095 . S
O661 C670 1.250 . S
O662 Mn657 2.121 . S
O662 C670 1.258 . S
C663 N664 1.326 . S
C663 C667 1.460 . S
C663 H669 0.929 . S
N664 Mn657 2.257 . S
N664 C663 1.326 . S
N664 C668 1.362 . S
C665 C666 1.258 . S
C665 C668 1.431 . S
C665 C685 1.449 . S
C666 C665 1.258 . S
C666 C667 1.477 . S
C666 H686 0.931 . S
C667 C663 1.460 . S
C667 C666 1.477 . S
C667 H687 0.930 . S
C668 N664 1.362 . S
C668 C665 1.431 . S
C668 C678 1.476 . S
H669 C663 0.929 . S
C670 O661 1.250 . S
C670 O662 1.258 . S
O671 Mn656 2.162 . S
O671 C659 1.281 . S
O672 Mn656 2.297 . S
O672 C659 1.236 . S
N673 Mn657 2.282 . S
N673 C674 1.328 . S
N673 C678 1.318 . S
C674 N673 1.328 . S
C674 C675 1.457 . S
C674 H679 0.929 . S
C675 C674 1.457 . S
C675 C676 1.291 . S
C675 H688 0.931 . S
C676 C675 1.291 . S
C676 C677 1.373 . S
C676 H689 0.929 . S
C677 C676 1.373 . S
C677 C678 1.396 . S
C677 C684 1.403 . S
C678 C668 1.476 . S
C678 N673 1.318 . S
C678 C677 1.396 . S
H679 C674 0.929 . S
O680 Mn656 2.385 . S
O680 C658 1.234 . S
O681 Mn656 2.209 . S
O681 Mn657 2.215 . S
O681 C658 1.283 . S
O682 Mn656 2.094 . S
O682 C660 1.240 . S
O683 Mn657 2.117 . S
O683 C660 1.264 . S
C684 C677 1.403 . S
C684 C685 1.399 . S
C684 H690 0.929 . S
C685 C665 1.449 . S
C685 C684 1.399 . S
C685 H691 0.930 . S
H686 C666 0.931 . S
H687 C667 0.930 . S
H688 C675 0.931 . S
H689 C676 0.929 . S
H690 C684 0.929 . S
H691 C685 0.930 . S
Mn692 O697 2.095 . S
Mn692 O707 2.162 . S
Mn692 O708 2.297 . S
Mn692 O716 2.385 . S
Mn692 O717 2.209 . S
Mn692 O718 2.094 . S
Mn693 O698 2.121 . S
Mn693 N700 2.257 . S
Mn693 N709 2.282 . S
Mn693 O717 2.215 . S
Mn693 O719 2.117 . S
C694 O716 1.234 . S
C694 O717 1.283 . S
C695 O707 1.281 . S
C695 O708 1.236 . S
C696 O718 1.240 . S
C696 O719 1.264 . S
O697 Mn692 2.095 . S
O697 C706 1.250 . S
O698 Mn693 2.121 . S
O698 C706 1.258 . S
C699 N700 1.326 . S
C699 C703 1.460 . S
C699 H705 0.929 . S
N700 Mn693 2.257 . S
N700 C699 1.326 . S
N700 C704 1.362 . S
C701 C702 1.258 . S
C701 C704 1.431 . S
C701 C721 1.449 . S
C702 C701 1.258 . S
C702 C703 1.477 . S
C702 H722 0.931 . S
C703 C699 1.460 . S
C703 C702 1.477 . S
C703 H723 0.930 . S
C704 N700 1.362 . S
C704 C701 1.431 . S
C704 C714 1.476 . S
H705 C699 0.929 . S
C706 O697 1.250 . S
C706 O698 1.258 . S
O707 Mn692 2.162 . S
O707 C695 1.281 . S
O708 Mn692 2.297 . S
O708 C695 1.236 . S
N709 Mn693 2.282 . S
N709 C710 1.328 . S
N709 C714 1.318 . S
C710 N709 1.328 . S
C710 C711 1.457 . S
C710 H715 0.929 . S
C711 C710 1.457 . S
C711 C712 1.291 . S
C711 H724 0.931 . S
C712 C711 1.291 . S
C712 C713 1.373 . S
C712 H725 0.929 . S
C713 C712 1.373 . S
C713 C714 1.396 . S
C713 C720 1.403 . S
C714 C704 1.476 . S
C714 N709 1.318 . S
C714 C713 1.396 . S
H715 C710 0.929 . S
O716 Mn692 2.385 . S
O716 C694 1.234 . S
O717 Mn692 2.209 . S
O717 Mn693 2.215 . S
O717 C694 1.283 . S
O718 Mn692 2.094 . S
O718 C696 1.240 . S
O719 Mn693 2.117 . S
O719 C696 1.264 . S
C720 C713 1.403 . S
C720 C721 1.399 . S
C720 H726 0.929 . S
C721 C701 1.449 . S
C721 C720 1.399 . S
C721 H727 0.930 . S
H722 C702 0.931 . S
H723 C703 0.930 . S
H724 C711 0.931 . S
H725 C712 0.929 . S
H726 C720 0.929 . S
H727 C721 0.930 . S
Mn728 O733 2.095 . S
Mn728 O743 2.162 . S
Mn728 O744 2.297 . S
Mn728 O752 2.385 . S
Mn728 O753 2.209 . S
Mn728 O754 2.094 . S
Mn729 O734 2.121 . S
Mn729 N736 2.257 . S
Mn729 N745 2.282 . S
Mn729 O753 2.215 . S
Mn729 O755 2.117 . S
C730 O752 1.234 . S
C730 O753 1.283 . S
C731 O743 1.281 . S
C731 O744 1.236 . S
C732 O754 1.240 . S
C732 O755 1.264 . S
O733 Mn728 2.095 . S
O733 C742 1.250 . S
O734 Mn729 2.121 . S
O734 C742 1.258 . S
C735 N736 1.326 . S
C735 C739 1.460 . S
C735 H741 0.929 . S
N736 Mn729 2.257 . S
N736 C735 1.326 . S
N736 C740 1.362 . S
C737 C738 1.258 . S
C737 C740 1.431 . S
C737 C757 1.449 . S
C738 C737 1.258 . S
C738 C739 1.477 . S
C738 H758 0.931 . S
C739 C735 1.460 . S
C739 C738 1.477 . S
C739 H759 0.930 . S
C740 N736 1.362 . S
C740 C737 1.431 . S
C740 C750 1.476 . S
H741 C735 0.929 . S
C742 O733 1.250 . S
C742 O734 1.258 . S
O743 Mn728 2.162 . S
O743 C731 1.281 . S
O744 Mn728 2.297 . S
O744 C731 1.236 . S
N745 Mn729 2.282 . S
N745 C746 1.328 . S
N745 C750 1.318 . S
C746 N745 1.328 . S
C746 C747 1.457 . S
C746 H751 0.929 . S
C747 C746 1.457 . S
C747 C748 1.291 . S
C747 H760 0.931 . S
C748 C747 1.291 . S
C748 C749 1.373 . S
C748 H761 0.929 . S
C749 C748 1.373 . S
C749 C750 1.396 . S
C749 C756 1.403 . S
C750 C740 1.476 . S
C750 N745 1.318 . S
C750 C749 1.396 . S
H751 C746 0.929 . S
O752 Mn728 2.385 . S
O752 C730 1.234 . S
O753 Mn728 2.209 . S
O753 Mn729 2.215 . S
O753 C730 1.283 . S
O754 Mn728 2.094 . S
O754 C732 1.240 . S
O755 Mn729 2.117 . S
O755 C732 1.264 . S
C756 C749 1.403 . S
C756 C757 1.399 . S
C756 H762 0.929 . S
C757 C737 1.449 . S
C757 C756 1.399 . S
C757 H763 0.930 . S
H758 C738 0.931 . S
H759 C739 0.930 . S
H760 C747 0.931 . S
H761 C748 0.929 . S
H762 C756 0.929 . S
H763 C757 0.930 . S
Mn764 O769 2.095 . S
Mn764 O779 2.162 . S
Mn764 O780 2.297 . S
Mn764 O788 2.385 1_565 S
Mn764 O789 2.209 1_565 S
Mn764 O790 2.094 . S
Mn765 O770 2.121 . S
Mn765 N772 2.257 . S
Mn765 N781 2.282 . S
Mn765 O789 2.215 . S
Mn765 O791 2.117 . S
C766 O788 1.234 . S
C766 O789 1.283 . S
C767 O779 1.281 . S
C767 O780 1.236 . S
C768 O790 1.206 1_545 S
C768 O791 1.308 . S
O769 Mn764 2.095 . S
O769 C778 1.250 1_565 S
O770 Mn765 2.121 . S
O770 C778 1.258 . S
C771 N772 1.326 . S
C771 C775 1.460 . S
C771 H777 0.929 . S
N772 Mn765 2.257 . S
N772 C771 1.326 . S
N772 C776 1.362 . S
C773 C774 1.258 . S
C773 C776 1.431 . S
C773 C793 1.449 . S
C774 C773 1.258 . S
C774 C775 1.477 . S
C774 H794 0.931 . S
C775 C771 1.460 . S
C775 C774 1.477 . S
C775 H795 0.930 . S
C776 N772 1.362 . S
C776 C773 1.431 . S
C776 C786 1.476 . S
H777 C771 0.929 . S
C778 O769 1.250 1_545 S
C778 O770 1.258 . S
O779 Mn764 2.162 . S
O779 C767 1.281 . S
O780 Mn764 2.297 . S
O780 C767 1.236 . S
N781 Mn765 2.282 . S
N781 C782 1.328 . S
N781 C786 1.318 . S
C782 N781 1.328 . S
C782 C783 1.457 . S
C782 H787 0.929 . S
C783 C782 1.457 . S
C783 C784 1.291 . S
C783 H796 0.931 . S
C784 C783 1.291 . S
C784 C785 1.373 . S
C784 H797 0.929 . S
C785 C784 1.373 . S
C785 C786 1.396 . S
C785 C792 1.403 . S
C786 C776 1.476 . S
C786 N781 1.318 . S
C786 C785 1.396 . S
H787 C782 0.929 . S
O788 Mn764 2.385 1_545 S
O788 C766 1.234 . S
O789 Mn764 2.209 1_545 S
O789 Mn765 2.215 . S
O789 C766 1.283 . S
O790 Mn764 2.094 . S
O790 C768 1.206 1_565 S
O791 Mn765 2.117 . S
O791 C768 1.308 . S
C792 C785 1.403 . S
C792 C793 1.399 . S
C792 H798 0.929 . S
C793 C773 1.449 . S
C793 C792 1.399 . S
C793 H799 0.930 . S
H794 C774 0.931 . S
H795 C775 0.930 . S
H796 C783 0.931 . S
H797 C784 0.929 . S
H798 C792 0.929 . S
H799 C793 0.930 . S
Mn800 O805 2.095 . S
Mn800 O815 2.162 . S
Mn800 O816 2.297 . S
Mn800 O824 2.385 1_455 S
Mn800 O825 2.209 1_455 S
Mn800 O826 2.094 . S
Mn801 O806 2.121 . S
Mn801 N808 2.257 . S
Mn801 N817 2.282 . S
Mn801 O825 2.215 . S
Mn801 O827 2.117 . S
C802 O824 1.234 . S
C802 O825 1.283 . S
C803 O815 1.281 . S
C803 O816 1.236 . S
C804 O826 1.240 . S
C804 O827 1.264 1_455 S
O805 Mn800 2.095 . S
O805 C814 1.233 1_455 S
O806 Mn801 2.121 . S
O806 C814 1.280 . S
C807 N808 1.326 . S
C807 C811 1.460 . S
C807 H813 0.929 . S
N808 Mn801 2.257 . S
N808 C807 1.326 . S
N808 C812 1.362 . S
C809 C810 1.258 . S
C809 C812 1.431 . S
C809 C829 1.449 . S
C810 C809 1.258 . S
C810 C811 1.477 . S
C810 H830 0.931 . S
C811 C807 1.460 . S
C811 C810 1.477 . S
C811 H831 0.930 . S
C812 N808 1.362 . S
C812 C809 1.431 . S
C812 C822 1.476 . S
H813 C807 0.929 . S
C814 O805 1.233 1_655 S
C814 O806 1.280 . S
O815 Mn800 2.162 . S
O815 C803 1.281 . S
O816 Mn800 2.297 . S
O816 C803 1.236 . S
N817 Mn801 2.282 . S
N817 C818 1.328 . S
N817 C822 1.318 . S
C818 N817 1.328 . S
C818 C819 1.457 . S
C818 H823 0.929 . S
C819 C818 1.457 . S
C819 C820 1.291 . S
C819 H832 0.931 . S
C820 C819 1.291 . S
C820 C821 1.373 . S
C820 H833 0.929 . S
C821 C820 1.373 . S
C821 C822 1.396 . S
C821 C828 1.403 . S
C822 C812 1.476 . S
C822 N817 1.318 . S
C822 C821 1.396 . S
H823 C818 0.929 . S
O824 Mn800 2.385 1_655 S
O824 C802 1.234 . S
O825 Mn800 2.209 1_655 S
O825 Mn801 2.215 . S
O825 C802 1.283 . S
O826 Mn800 2.094 . S
O826 C804 1.240 . S
O827 Mn801 2.117 . S
O827 C804 1.264 1_655 S
C828 C821 1.403 . S
C828 C829 1.399 . S
C828 H834 0.929 . S
C829 C809 1.449 . S
C829 C828 1.399 . S
C829 H835 0.930 . S
H830 C810 0.931 . S
H831 C811 0.930 . S
H832 C819 0.931 . S
H833 C820 0.929 . S
H834 C828 0.929 . S
H835 C829 0.930 . S
Mn836 O841 2.095 . S
Mn836 O851 2.162 . S
Mn836 O852 2.297 . S
Mn836 O860 2.385 . S
Mn836 O861 2.209 . S
Mn836 O862 2.094 . S
Mn837 O842 2.121 . S
Mn837 N844 2.257 . S
Mn837 N853 2.282 . S
Mn837 O861 2.215 . S
Mn837 O863 2.117 . S
C838 O860 1.234 . S
C838 O861 1.283 . S
C839 O851 1.281 . S
C839 O852 1.236 . S
C840 O862 1.240 . S
C840 O863 1.264 . S
O841 Mn836 2.095 . S
O841 C850 1.250 . S
O842 Mn837 2.121 . S
O842 C850 1.258 . S
C843 N844 1.326 . S
C843 C847 1.460 . S
C843 H849 0.929 . S
N844 Mn837 2.257 . S
N844 C843 1.326 . S
N844 C848 1.362 . S
C845 C846 1.258 . S
C845 C848 1.431 . S
C845 C865 1.449 . S
C846 C845 1.258 . S
C846 C847 1.477 . S
C846 H866 0.931 . S
C847 C843 1.460 . S
C847 C846 1.477 . S
C847 H867 0.930 . S
C848 N844 1.362 . S
C848 C845 1.431 . S
C848 C858 1.476 . S
H849 C843 0.929 . S
C850 O841 1.250 . S
C850 O842 1.258 . S
O851 Mn836 2.162 . S
O851 C839 1.281 . S
O852 Mn836 2.297 . S
O852 C839 1.236 . S
N853 Mn837 2.282 . S
N853 C854 1.328 . S
N853 C858 1.318 . S
C854 N853 1.328 . S
C854 C855 1.457 . S
C854 H859 0.929 . S
C855 C854 1.457 . S
C855 C856 1.291 . S
C855 H868 0.931 . S
C856 C855 1.291 . S
C856 C857 1.373 . S
C856 H869 0.929 . S
C857 C856 1.373 . S
C857 C858 1.396 . S
C857 C864 1.403 . S
C858 C848 1.476 . S
C858 N853 1.318 . S
C858 C857 1.396 . S
H859 C854 0.929 . S
O860 Mn836 2.385 . S
O860 C838 1.234 . S
O861 Mn836 2.209 . S
O861 Mn837 2.215 . S
O861 C838 1.283 . S
O862 Mn836 2.094 . S
O862 C840 1.240 . S
O863 Mn837 2.117 . S
O863 C840 1.264 . S
C864 C857 1.403 . S
C864 C865 1.399 . S
C864 H870 0.929 . S
C865 C845 1.449 . S
C865 C864 1.399 . S
C865 H871 0.930 . S
H866 C846 0.931 . S
H867 C847 0.930 . S
H868 C855 0.931 . S
H869 C856 0.929 . S
H870 C864 0.929 . S
H871 C865 0.930 . S
Mn872 O877 2.095 1_455 S
Mn872 O887 2.162 . S
Mn872 O888 2.297 1_455 S
Mn872 O896 2.385 . S
Mn872 O897 2.209 1_455 S
Mn872 O898 2.094 . S
Mn873 O878 2.121 . S
Mn873 N880 2.257 . S
Mn873 N889 2.275 1_655 S
Mn873 O897 2.215 . S
Mn873 O899 2.117 1_655 S
C874 O896 1.234 . S
C874 O897 1.283 1_455 S
C875 O887 1.281 . S
C875 O888 1.236 1_455 S
C876 O898 1.240 . S
C876 O899 1.264 . S
O877 Mn872 2.095 1_655 S
O877 C886 1.250 . S
O878 Mn873 2.121 . S
O878 C886 1.258 . S
C879 N880 1.326 . S
C879 C883 1.460 . S
C879 H885 0.929 . S
N880 Mn873 2.257 . S
N880 C879 1.326 . S
N880 C884 1.362 . S
C881 C882 1.258 . S
C881 C884 1.431 . S
C881 C901 1.449 . S
C882 C881 1.258 . S
C882 C883 1.477 . S
C882 H902 0.931 . S
C883 C879 1.460 . S
C883 C882 1.477 . S
C883 H903 0.930 . S
C884 N880 1.362 . S
C884 C881 1.431 . S
C884 C894 1.476 . S
H885 C879 0.929 . S
C886 O877 1.250 . S
C886 O878 1.258 . S
O887 Mn872 2.162 . S
O887 C875 1.281 . S
O888 Mn872 2.297 1_655 S
O888 C875 1.236 1_655 S
N889 Mn873 2.275 1_455 S
N889 C890 1.345 . S
N889 C894 1.306 1_455 S
C890 N889 1.345 . S
C890 C891 1.457 . S
C890 H895 0.929 . S
C891 C890 1.457 . S
C891 C892 1.291 . S
C891 H904 0.931 . S
C892 C891 1.291 . S
C892 C893 1.373 1_455 S
C892 H905 0.929 . S
C893 C892 1.373 1_655 S
C893 C894 1.396 . S
C893 C900 1.403 . S
C894 C884 1.476 . S
C894 N889 1.306 1_655 S
C894 C893 1.396 . S
H895 C890 0.929 . S
O896 Mn872 2.385 . S
O896 C874 1.234 . S
O897 Mn872 2.209 1_655 S
O897 Mn873 2.215 . S
O897 C874 1.283 1_655 S
O898 Mn872 2.094 . S
O898 C876 1.240 . S
O899 Mn873 2.117 1_455 S
O899 C876 1.264 . S
C900 C893 1.403 . S
C900 C901 1.399 . S
C900 H906 0.929 . S
C901 C881 1.449 . S
C901 C900 1.399 . S
C901 H907 0.930 . S
H902 C882 0.931 . S
H903 C883 0.930 . S
H904 C891 0.931 . S
H905 C892 0.929 . S
H906 C900 0.929 . S
H907 C901 0.930 . S
Mn908 O913 2.095 . S
Mn908 O923 2.162 . S
Mn908 O924 2.297 . S
Mn908 O932 2.385 . S
Mn908 O933 2.209 . S
Mn908 O934 2.094 . S
Mn909 O914 2.121 . S
Mn909 N916 2.257 . S
Mn909 N925 2.282 . S
Mn909 O933 2.215 . S
Mn909 O935 2.117 . S
C910 O932 1.234 . S
C910 O933 1.283 . S
C911 O923 1.281 . S
C911 O924 1.236 . S
C912 O934 1.240 . S
C912 O935 1.264 . S
O913 Mn908 2.095 . S
O913 C922 1.250 . S
O914 Mn909 2.121 . S
O914 C922 1.258 . S
C915 N916 1.326 . S
C915 C919 1.460 . S
C915 H921 0.929 . S
N916 Mn909 2.257 . S
N916 C915 1.326 . S
N916 C920 1.362 . S
C917 C918 1.258 . S
C917 C920 1.431 . S
C917 C937 1.449 . S
C918 C917 1.258 . S
C918 C919 1.477 . S
C918 H938 0.931 . S
C919 C915 1.460 . S
C919 C918 1.477 . S
C919 H939 0.930 . S
C920 N916 1.362 . S
C920 C917 1.431 . S
C920 C930 1.476 . S
H921 C915 0.929 . S
C922 O913 1.250 . S
C922 O914 1.258 . S
O923 Mn908 2.162 . S
O923 C911 1.281 . S
O924 Mn908 2.297 . S
O924 C911 1.236 . S
N925 Mn909 2.282 . S
N925 C926 1.328 . S
N925 C930 1.318 . S
C926 N925 1.328 . S
C926 C927 1.457 . S
C926 H931 0.929 . S
C927 C926 1.457 . S
C927 C928 1.291 . S
C927 H940 0.931 . S
C928 C927 1.291 . S
C928 C929 1.373 . S
C928 H941 0.929 . S
C929 C928 1.373 . S
C929 C930 1.396 . S
C929 C936 1.403 . S
C930 C920 1.476 . S
C930 N925 1.318 . S
C930 C929 1.396 . S
H931 C926 0.929 . S
O932 Mn908 2.385 . S
O932 C910 1.234 . S
O933 Mn908 2.209 . S
O933 Mn909 2.215 . S
O933 C910 1.283 . S
O934 Mn908 2.094 . S
O934 C912 1.240 . S
O935 Mn909 2.117 . S
O935 C912 1.264 . S
C936 C929 1.403 . S
C936 C937 1.399 . S
C936 H942 0.929 . S
C937 C917 1.449 . S
C937 C936 1.399 . S
C937 H943 0.930 . S
H938 C918 0.931 . S
H939 C919 0.930 . S
H940 C927 0.931 . S
H941 C928 0.929 . S
H942 C936 0.929 . S
H943 C937 0.930 . S
H944 C956 0.930 . S
H945 C958 0.930 . S
H946 C959 0.930 . S
H947 C963 0.959 . S
H948 C963 0.959 . S
H949 C963 0.961 . S
H950 C964 0.960 . S
H951 C964 0.961 . S
H952 C964 0.959 . S
H953 C967 0.929 . S
H954 C968 0.931 . S
H955 C970 0.930 . S
C956 H944 0.930 . S
C956 C957 1.399 . S
C956 C961 1.399 . S
C957 C956 1.399 . S
C957 C958 1.376 . S
C958 H945 0.930 . S
C958 C957 1.376 . S
C958 C959 1.388 . S
C959 H946 0.930 . S
C959 C958 1.388 . S
C959 C960 1.390 . S
C960 C959 1.390 . S
C960 C961 1.394 . S
C960 C966 1.465 . S
C961 C956 1.399 . S
C961 C960 1.394 . S
C961 C962 1.516 . S
C962 C961 1.516 . S
C962 C963 1.502 . S
C962 C964 1.561 . S
C962 C965 1.526 . S
C963 H947 0.959 . S
C963 H948 0.959 . S
C963 H949 0.961 . S
C963 C962 1.502 . S
C964 H950 0.960 . S
C964 H951 0.961 . S
C964 H952 0.959 . S
C964 C962 1.561 . S
C965 C962 1.526 . S
C965 C966 1.396 . S
C965 C970 1.390 . S
C966 C960 1.465 . S
C966 C965 1.396 . S
C966 C967 1.399 . S
C967 H953 0.929 . S
C967 C966 1.399 . S
C967 C968 1.385 . S
C968 H954 0.931 . S
C968 C967 1.385 . S
C968 C969 1.389 . S
C969 C968 1.389 . S
C969 C970 1.387 . S
C970 H955 0.930 . S
C970 C965 1.390 . S
C970 C969 1.387 . S
H971 C983 0.930 . S
H972 C985 0.930 . S
H973 C986 0.930 . S
H974 C990 0.959 . S
H975 C990 0.959 . S
H976 C990 0.961 . S
H977 C991 0.960 . S
H978 C991 0.961 . S
H979 C991 0.959 . S
H980 C994 0.929 . S
H981 C995 0.931 . S
H982 C997 0.930 . S
C983 H971 0.930 . S
C983 C984 1.399 . S
C983 C988 1.399 . S
C984 C983 1.399 . S
C984 C985 1.376 . S
C985 H972 0.930 . S
C985 C984 1.376 . S
C985 C986 1.388 . S
C986 H973 0.930 . S
C986 C985 1.388 . S
C986 C987 1.390 . S
C987 C986 1.390 . S
C987 C988 1.394 . S
C987 C993 1.465 . S
C988 C983 1.399 . S
C988 C987 1.394 . S
C988 C989 1.516 . S
C989 C988 1.516 . S
C989 C990 1.502 . S
C989 C991 1.561 . S
C989 C992 1.526 . S
C990 H974 0.959 . S
C990 H975 0.959 . S
C990 H976 0.961 . S
C990 C989 1.502 . S
C991 H977 0.960 . S
C991 H978 0.961 . S
C991 H979 0.959 . S
C991 C989 1.561 . S
C992 C989 1.526 . S
C992 C993 1.396 . S
C992 C997 1.390 . S
C993 C987 1.465 . S
C993 C992 1.396 . S
C993 C994 1.399 . S
C994 H980 0.929 . S
C994 C993 1.399 . S
C994 C995 1.385 . S
C995 H981 0.931 . S
C995 C994 1.385 . S
C995 C996 1.389 . S
C996 C995 1.389 . S
C996 C997 1.387 . S
C997 H982 0.930 . S
C997 C992 1.390 . S
C997 C996 1.387 . S
H998 C1010 0.930 . S
H999 C1012 0.930 . S
H1000 C1013 0.930 . S
H1001 C1017 0.959 . S
H1002 C1017 0.959 . S
H1003 C1017 0.961 . S
H1004 C1018 0.960 . S
H1005 C1018 0.961 . S
H1006 C1018 0.959 . S
H1007 C1021 0.929 . S
H1008 C1022 0.931 . S
H1009 C1024 0.930 . S
C1010 H998 0.930 . S
C1010 C1011 1.399 . S
C1010 C1015 1.399 . S
C1011 C1010 1.399 . S
C1011 C1012 1.376 . S
C1012 H999 0.930 . S
C1012 C1011 1.376 . S
C1012 C1013 1.388 . S
C1013 H1000 0.930 . S
C1013 C1012 1.388 . S
C1013 C1014 1.390 . S
C1014 C1013 1.390 . S
C1014 C1015 1.394 . S
C1014 C1020 1.465 . S
C1015 C1010 1.399 . S
C1015 C1014 1.394 . S
C1015 C1016 1.516 . S
C1016 C1015 1.516 . S
C1016 C1017 1.502 . S
C1016 C1018 1.561 . S
C1016 C1019 1.526 . S
C1017 H1001 0.959 . S
C1017 H1002 0.959 . S
C1017 H1003 0.961 . S
C1017 C1016 1.502 . S
C1018 H1004 0.960 . S
C1018 H1005 0.961 . S
C1018 H1006 0.959 . S
C1018 C1016 1.561 . S
C1019 C1016 1.526 . S
C1019 C1020 1.396 . S
C1019 C1024 1.390 . S
C1020 C1014 1.465 . S
C1020 C1019 1.396 . S
C1020 C1021 1.399 . S
C1021 H1007 0.929 . S
C1021 C1020 1.399 . S
C1021 C1022 1.385 . S
C1022 H1008 0.931 . S
C1022 C1021 1.385 . S
C1022 C1023 1.389 . S
C1023 C1022 1.389 . S
C1023 C1024 1.387 . S
C1024 H1009 0.930 . S
C1024 C1019 1.390 . S
C1024 C1023 1.387 . S
H1025 C1037 0.939 . S
H1026 C1039 0.930 . S
H1027 C1040 0.930 . S
H1028 C1044 0.959 . S
H1029 C1044 0.959 . S
H1030 C1044 0.961 . S
H1031 C1045 0.960 . S
H1032 C1045 0.961 . S
H1033 C1045 0.959 . S
H1034 C1048 0.929 . S
H1035 C1049 0.931 . S
H1036 C1051 0.930 . S
C1037 H1025 0.939 . S
C1037 C1038 1.390 1_545 S
C1037 C1042 1.399 1_545 S
C1038 C1037 1.390 1_565 S
C1038 C1039 1.376 . S
C1039 H1026 0.930 . S
C1039 C1038 1.376 . S
C1039 C1040 1.388 . S
C1040 H1027 0.930 . S
C1040 C1039 1.388 . S
C1040 C1041 1.390 . S
C1041 C1040 1.390 . S
C1041 C1042 1.394 . S
C1041 C1047 1.465 . S
C1042 C1037 1.399 1_565 S
C1042 C1041 1.394 . S
C1042 C1043 1.516 1_565 S
C1043 C1042 1.516 1_545 S
C1043 C1044 1.502 . S
C1043 C1045 1.561 . S
C1043 C1046 1.526 . S
C1044 H1028 0.959 . S
C1044 H1029 0.959 . S
C1044 H1030 0.961 . S
C1044 C1043 1.502 . S
C1045 H1031 0.960 . S
C1045 H1032 0.961 . S
C1045 H1033 0.959 . S
C1045 C1043 1.561 . S
C1046 C1043 1.526 . S
C1046 C1047 1.396 1_545 S
C1046 C1051 1.390 . S
C1047 C1041 1.465 . S
C1047 C1046 1.396 1_565 S
C1047 C1048 1.399 . S
C1048 H1034 0.929 . S
C1048 C1047 1.399 . S
C1048 C1049 1.385 . S
C1049 H1035 0.931 . S
C1049 C1048 1.385 . S
C1049 C1050 1.389 . S
C1050 C1049 1.389 . S
C1050 C1051 1.387 1_565 S
C1051 H1036 0.930 . S
C1051 C1046 1.390 . S
C1051 C1050 1.387 1_545 S
H1052 C1064 0.930 . S
H1053 C1066 0.930 . S
H1054 C1067 0.930 . S
H1055 C1071 0.959 . S
H1056 C1071 0.959 . S
H1057 C1071 0.961 . S
H1058 C1072 0.960 . S
H1059 C1072 0.961 . S
H1060 C1072 0.959 . S
H1061 C1075 0.929 . S
H1062 C1076 0.931 . S
H1063 C1078 0.930 . S
C1064 H1052 0.930 . S
C1064 C1065 1.399 . S
C1064 C1069 1.399 . S
C1065 C1064 1.399 . S
C1065 C1066 1.376 . S
C1066 H1053 0.930 . S
C1066 C1065 1.376 . S
C1066 C1067 1.388 . S
C1067 H1054 0.930 . S
C1067 C1066 1.388 . S
C1067 C1068 1.390 . S
C1068 C1067 1.390 . S
C1068 C1069 1.394 . S
C1068 C1074 1.465 . S
C1069 C1064 1.399 . S
C1069 C1068 1.394 . S
C1069 C1070 1.516 . S
C1070 C1069 1.516 . S
C1070 C1071 1.502 . S
C1070 C1072 1.561 . S
C1070 C1073 1.526 . S
C1071 H1055 0.959 . S
C1071 H1056 0.959 . S
C1071 H1057 0.961 . S
C1071 C1070 1.502 . S
C1072 H1058 0.960 . S
C1072 H1059 0.961 . S
C1072 H1060 0.959 . S
C1072 C1070 1.561 . S
C1073 C1070 1.526 . S
C1073 C1074 1.396 . S
C1073 C1078 1.390 . S
C1074 C1068 1.465 . S
C1074 C1073 1.396 . S
C1074 C1075 1.399 . S
C1075 H1061 0.929 . S
C1075 C1074 1.399 . S
C1075 C1076 1.385 . S
C1076 H1062 0.931 . S
C1076 C1075 1.385 . S
C1076 C1077 1.389 . S
C1077 C1076 1.389 . S
C1077 C1078 1.387 . S
C1078 H1063 0.930 . S
C1078 C1073 1.390 . S
C1078 C1077 1.387 . S
H1079 C1091 0.930 . S
H1080 C1093 0.930 . S
H1081 C1094 0.930 . S
H1082 C1098 0.959 . S
H1083 C1098 0.959 . S
H1084 C1098 0.961 . S
H1085 C1099 0.960 . S
H1086 C1099 0.961 . S
H1087 C1099 0.959 . S
H1088 C1102 0.929 . S
H1089 C1103 0.931 . S
H1090 C1105 0.930 . S
C1091 H1079 0.930 . S
C1091 C1092 1.399 . S
C1091 C1096 1.399 . S
C1092 C1091 1.399 . S
C1092 C1093 1.376 . S
C1093 H1080 0.930 . S
C1093 C1092 1.376 . S
C1093 C1094 1.388 . S
C1094 H1081 0.930 . S
C1094 C1093 1.388 . S
C1094 C1095 1.390 . S
C1095 C1094 1.390 . S
C1095 C1096 1.394 . S
C1095 C1101 1.465 . S
C1096 C1091 1.399 . S
C1096 C1095 1.394 . S
C1096 C1097 1.516 . S
C1097 C1096 1.516 . S
C1097 C1098 1.502 . S
C1097 C1099 1.561 . S
C1097 C1100 1.526 . S
C1098 H1082 0.959 . S
C1098 H1083 0.959 . S
C1098 H1084 0.961 . S
C1098 C1097 1.502 . S
C1099 H1085 0.960 . S
C1099 H1086 0.961 . S
C1099 H1087 0.959 . S
C1099 C1097 1.561 . S
C1100 C1097 1.526 . S
C1100 C1101 1.396 . S
C1100 C1105 1.390 . S
C1101 C1095 1.465 . S
C1101 C1100 1.396 . S
C1101 C1102 1.399 . S
C1102 H1088 0.929 . S
C1102 C1101 1.399 . S
C1102 C1103 1.385 . S
C1103 H1089 0.931 . S
C1103 C1102 1.385 . S
C1103 C1104 1.389 . S
C1104 C1103 1.389 . S
C1104 C1105 1.387 . S
C1105 H1090 0.930 . S
C1105 C1100 1.390 . S
C1105 C1104 1.387 . S
H1106 C1118 0.930 . S
H1107 C1120 0.930 . S
H1108 C1121 0.930 . S
H1109 C1125 0.959 . S
H1110 C1125 0.959 . S
H1111 C1125 0.961 . S
H1112 C1126 0.960 . S
H1113 C1126 0.961 . S
H1114 C1126 0.959 . S
H1115 C1129 0.929 . S
H1116 C1130 0.931 . S
H1117 C1132 0.930 . S
C1118 H1106 0.930 . S
C1118 C1119 1.399 . S
C1118 C1123 1.399 . S
C1119 C1118 1.399 . S
C1119 C1120 1.376 . S
C1120 H1107 0.930 . S
C1120 C1119 1.376 . S
C1120 C1121 1.388 . S
C1121 H1108 0.930 . S
C1121 C1120 1.388 . S
C1121 C1122 1.390 . S
C1122 C1121 1.390 . S
C1122 C1123 1.394 . S
C1122 C1128 1.465 . S
C1123 C1118 1.399 . S
C1123 C1122 1.394 . S
C1123 C1124 1.516 . S
C1124 C1123 1.516 . S
C1124 C1125 1.502 . S
C1124 C1126 1.561 . S
C1124 C1127 1.526 . S
C1125 H1109 0.959 . S
C1125 H1110 0.959 . S
C1125 H1111 0.961 . S
C1125 C1124 1.502 . S
C1126 H1112 0.960 . S
C1126 H1113 0.961 . S
C1126 H1114 0.959 . S
C1126 C1124 1.561 . S
C1127 C1124 1.526 . S
C1127 C1128 1.396 . S
C1127 C1132 1.390 . S
C1128 C1122 1.465 . S
C1128 C1127 1.396 . S
C1128 C1129 1.399 . S
C1129 H1115 0.929 . S
C1129 C1128 1.399 . S
C1129 C1130 1.385 . S
C1130 H1116 0.931 . S
C1130 C1129 1.385 . S
C1130 C1131 1.389 . S
C1131 C1130 1.389 . S
C1131 C1132 1.387 . S
C1132 H1117 0.930 . S
C1132 C1127 1.390 . S
C1132 C1131 1.387 . S
H1133 C1145 0.930 1_545 S
H1134 C1147 0.930 . S
H1135 C1148 0.930 . S
H1136 C1152 0.959 . S
H1137 C1152 0.959 . S
H1138 C1152 0.961 . S
H1139 C1153 0.960 . S
H1140 C1153 0.961 . S
H1141 C1153 0.959 . S
H1142 C1156 0.929 . S
H1143 C1157 0.931 . S
H1144 C1159 0.930 . S
C1145 H1133 0.930 1_565 S
C1145 C1146 1.399 . S
C1145 C1150 1.399 . S
C1146 C1145 1.399 . S
C1146 C1147 1.376 . S
C1147 H1134 0.930 . S
C1147 C1146 1.376 . S
C1147 C1148 1.388 . S
C1148 H1135 0.930 . S
C1148 C1147 1.388 . S
C1148 C1149 1.390 . S
C1149 C1148 1.390 . S
C1149 C1150 1.394 . S
C1149 C1155 1.465 . S
C1150 C1145 1.399 . S
C1150 C1149 1.394 . S
C1150 C1151 1.516 1_565 S
C1151 C1150 1.516 1_545 S
C1151 C1152 1.502 . S
C1151 C1153 1.561 . S
C1151 C1154 1.546 . S
C1152 H1136 0.959 . S
C1152 H1137 0.959 . S
C1152 H1138 0.961 . S
C1152 C1151 1.502 . S
C1153 H1139 0.960 . S
C1153 H1140 0.961 . S
C1153 H1141 0.959 . S
C1153 C1151 1.561 . S
C1154 C1151 1.546 . S
C1154 C1155 1.362 1_545 S
C1154 C1159 1.401 . S
C1155 C1149 1.465 . S
C1155 C1154 1.362 1_565 S
C1155 C1156 1.399 . S
C1156 H1142 0.929 . S
C1156 C1155 1.399 . S
C1156 C1157 1.385 . S
C1157 H1143 0.931 . S
C1157 C1156 1.385 . S
C1157 C1158 1.389 . S
C1158 C1157 1.389 . S
C1158 C1159 1.387 1_565 S
C1159 H1144 0.930 . S
C1159 C1154 1.401 . S
C1159 C1158 1.387 1_545 S
H1160 C1172 0.930 . S
H1161 C1174 0.930 . S
H1162 C1175 0.930 . S
H1163 C1179 0.959 . S
H1164 C1179 0.959 . S
H1165 C1179 0.961 . S
H1166 C1180 0.960 . S
H1167 C1180 0.961 . S
H1168 C1180 0.959 . S
H1169 C1183 0.929 . S
H1170 C1184 0.931 . S
H1171 C1186 0.930 . S
C1172 H1160 0.930 . S
C1172 C1173 1.399 . S
C1172 C1177 1.399 . S
C1173 C1172 1.399 . S
C1173 C1174 1.376 . S
C1174 H1161 0.930 . S
C1174 C1173 1.376 . S
C1174 C1175 1.388 . S
C1175 H1162 0.930 . S
C1175 C1174 1.388 . S
C1175 C1176 1.390 . S
C1176 C1175 1.390 . S
C1176 C1177 1.394 . S
C1176 C1182 1.465 . S
C1177 C1172 1.399 . S
C1177 C1176 1.394 . S
C1177 C1178 1.516 . S
C1178 C1177 1.516 . S
C1178 C1179 1.502 . S
C1178 C1180 1.561 . S
C1178 C1181 1.526 . S
C1179 H1163 0.959 . S
C1179 H1164 0.959 . S
C1179 H1165 0.961 . S
C1179 C1178 1.502 . S
C1180 H1166 0.960 . S
C1180 H1167 0.961 . S
C1180 H1168 0.959 . S
C1180 C1178 1.561 . S
C1181 C1178 1.526 . S
C1181 C1182 1.396 . S
C1181 C1186 1.390 . S
C1182 C1176 1.465 . S
C1182 C1181 1.396 . S
C1182 C1183 1.399 . S
C1183 H1169 0.929 . S
C1183 C1182 1.399 . S
C1183 C1184 1.385 . S
C1184 H1170 0.931 . S
C1184 C1183 1.385 . S
C1184 C1185 1.389 . S
C1185 C1184 1.389 . S
C1185 C1186 1.387 . S
C1186 H1171 0.930 . S
C1186 C1181 1.390 . S
C1186 C1185 1.387 . S
H1187 C1199 0.930 . S
H1188 C1201 0.930 . S
H1189 C1202 0.930 . S
H1190 C1206 0.959 . S
H1191 C1206 0.959 . S
H1192 C1206 0.961 . S
H1193 C1207 0.960 . S
H1194 C1207 0.961 . S
H1195 C1207 0.959 . S
H1196 C1210 0.929 . S
H1197 C1211 0.931 . S
H1198 C1213 0.930 . S
C1199 H1187 0.930 . S
C1199 C1200 1.399 . S
C1199 C1204 1.399 . S
C1200 C1199 1.399 . S
C1200 C1201 1.376 . S
C1201 H1188 0.930 . S
C1201 C1200 1.376 . S
C1201 C1202 1.388 . S
C1202 H1189 0.930 . S
C1202 C1201 1.388 . S
C1202 C1203 1.390 . S
C1203 C1202 1.390 . S
C1203 C1204 1.394 . S
C1203 C1209 1.465 . S
C1204 C1199 1.399 . S
C1204 C1203 1.394 . S
C1204 C1205 1.516 . S
C1205 C1204 1.516 . S
C1205 C1206 1.502 . S
C1205 C1207 1.561 . S
C1205 C1208 1.526 . S
C1206 H1190 0.959 . S
C1206 H1191 0.959 . S
C1206 H1192 0.961 . S
C1206 C1205 1.502 . S
C1207 H1193 0.960 . S
C1207 H1194 0.961 . S
C1207 H1195 0.959 . S
C1207 C1205 1.561 . S
C1208 C1205 1.526 . S
C1208 C1209 1.396 . S
C1208 C1213 1.390 . S
C1209 C1203 1.465 . S
C1209 C1208 1.396 . S
C1209 C1210 1.399 . S
C1210 H1196 0.929 . S
C1210 C1209 1.399 . S
C1210 C1211 1.385 . S
C1211 H1197 0.931 . S
C1211 C1210 1.385 . S
C1211 C1212 1.389 . S
C1212 C1211 1.389 . S
C1212 C1213 1.387 . S
C1213 H1198 0.930 . S
C1213 C1208 1.390 . S
C1213 C1212 1.387 . S
H1214 C1226 0.930 . S
H1215 C1228 0.930 . S
H1216 C1229 0.930 . S
H1217 C1233 0.959 . S
H1218 C1233 0.959 . S
H1219 C1233 0.961 . S
H1220 C1234 0.960 . S
H1221 C1234 0.961 . S
H1222 C1234 0.959 . S
H1223 C1237 0.929 . S
H1224 C1238 0.931 . S
H1225 C1240 0.930 . S
C1226 H1214 0.930 . S
C1226 C1227 1.399 . S
C1226 C1231 1.399 . S
C1227 C1226 1.399 . S
C1227 C1228 1.376 . S
C1228 H1215 0.930 . S
C1228 C1227 1.376 . S
C1228 C1229 1.388 . S
C1229 H1216 0.930 . S
C1229 C1228 1.388 . S
C1229 C1230 1.390 . S
C1230 C1229 1.390 . S
C1230 C1231 1.394 . S
C1230 C1236 1.465 . S
C1231 C1226 1.399 . S
C1231 C1230 1.394 . S
C1231 C1232 1.516 . S
C1232 C1231 1.516 . S
C1232 C1233 1.502 . S
C1232 C1234 1.561 . S
C1232 C1235 1.526 . S
C1233 H1217 0.959 . S
C1233 H1218 0.959 . S
C1233 H1219 0.961 . S
C1233 C1232 1.502 . S
C1234 H1220 0.960 . S
C1234 H1221 0.961 . S
C1234 H1222 0.959 . S
C1234 C1232 1.561 . S
C1235 C1232 1.526 . S
C1235 C1236 1.396 . S
C1235 C1240 1.390 . S
C1236 C1230 1.465 . S
C1236 C1235 1.396 . S
C1236 C1237 1.399 . S
C1237 H1223 0.929 . S
C1237 C1236 1.399 . S
C1237 C1238 1.385 . S
C1238 H1224 0.931 . S
C1238 C1237 1.385 . S
C1238 C1239 1.389 . S
C1239 C1238 1.389 . S
C1239 C1240 1.387 . S
C1240 H1225 0.930 . S
C1240 C1235 1.390 . S
C1240 C1239 1.387 . S
H1241 C1253 0.930 . S
H1242 C1255 0.930 . S
H1243 C1256 0.930 . S
H1244 C1260 0.959 . S
H1245 C1260 0.959 . S
H1246 C1260 0.961 . S
H1247 C1261 0.960 . S
H1248 C1261 0.961 . S
H1249 C1261 0.959 . S
H1250 C1264 0.929 . S
H1251 C1265 0.931 . S
H1252 C1267 0.930 . S
C1253 H1241 0.930 . S
C1253 C1254 1.399 . S
C1253 C1258 1.399 . S
C1254 C1253 1.399 . S
C1254 C1255 1.376 . S
C1255 H1242 0.930 . S
C1255 C1254 1.376 . S
C1255 C1256 1.388 . S
C1256 H1243 0.930 . S
C1256 C1255 1.388 . S
C1256 C1257 1.390 . S
C1257 C1256 1.390 . S
C1257 C1258 1.394 . S
C1257 C1263 1.465 . S
C1258 C1253 1.399 . S
C1258 C1257 1.394 . S
C1258 C1259 1.516 . S
C1259 C1258 1.516 . S
C1259 C1260 1.502 . S
C1259 C1261 1.561 . S
C1259 C1262 1.526 . S
C1260 H1244 0.959 . S
C1260 H1245 0.959 . S
C1260 H1246 0.961 . S
C1260 C1259 1.502 . S
C1261 H1247 0.960 . S
C1261 H1248 0.961 . S
C1261 H1249 0.959 . S
C1261 C1259 1.561 . S
C1262 C1259 1.526 . S
C1262 C1263 1.396 . S
C1262 C1267 1.390 . S
C1263 C1257 1.465 . S
C1263 C1262 1.396 . S
C1263 C1264 1.399 . S
C1264 H1250 0.929 . S
C1264 C1263 1.399 . S
C1264 C1265 1.385 . S
C1265 H1251 0.931 . S
C1265 C1264 1.385 . S
C1265 C1266 1.389 . S
C1266 C1265 1.389 . S
C1266 C1267 1.387 . S
C1267 H1252 0.930 . S
C1267 C1262 1.390 . S
C1267 C1266 1.387 . S
H1268 C1280 0.930 . S
H1269 C1282 0.930 . S
H1270 C1283 0.930 . S
H1271 C1287 0.959 . S
H1272 C1287 0.959 . S
H1273 C1287 0.961 . S
H1274 C1288 0.960 . S
H1275 C1288 0.961 . S
H1276 C1288 0.959 . S
H1277 C1291 0.929 . S
H1278 C1292 0.931 . S
H1279 C1294 0.930 . S
C1280 H1268 0.930 . S
C1280 C1281 1.399 . S
C1280 C1285 1.399 . S
C1281 C1280 1.399 . S
C1281 C1282 1.376 . S
C1282 H1269 0.930 . S
C1282 C1281 1.376 . S
C1282 C1283 1.388 . S
C1283 H1270 0.930 . S
C1283 C1282 1.388 . S
C1283 C1284 1.390 . S
C1284 C1283 1.390 . S
C1284 C1285 1.394 . S
C1284 C1290 1.465 . S
C1285 C1280 1.399 . S
C1285 C1284 1.394 . S
C1285 C1286 1.516 . S
C1286 C1285 1.516 . S
C1286 C1287 1.502 . S
C1286 C1288 1.561 . S
C1286 C1289 1.526 . S
C1287 H1271 0.959 . S
C1287 H1272 0.959 . S
C1287 H1273 0.961 . S
C1287 C1286 1.502 . S
C1288 H1274 0.960 . S
C1288 H1275 0.961 . S
C1288 H1276 0.959 . S
C1288 C1286 1.561 . S
C1289 C1286 1.526 . S
C1289 C1290 1.396 . S
C1289 C1294 1.390 . S
C1290 C1284 1.465 . S
C1290 C1289 1.396 . S
C1290 C1291 1.399 . S
C1291 H1277 0.929 . S
C1291 C1290 1.399 . S
C1291 C1292 1.385 . S
C1292 H1278 0.931 . S
C1292 C1291 1.385 . S
C1292 C1293 1.389 . S
C1293 C1292 1.389 . S
C1293 C1294 1.387 . S
C1294 H1279 0.930 . S
C1294 C1289 1.390 . S
C1294 C1293 1.387 . S
H1295 C1307 0.930 . S
H1296 C1309 0.930 . S
H1297 C1310 0.930 . S
H1298 C1314 0.959 . S
H1299 C1314 0.959 . S
H1300 C1314 0.961 . S
H1301 C1315 0.960 . S
H1302 C1315 0.961 . S
H1303 C1315 0.959 . S
H1304 C1318 0.929 . S
H1305 C1319 0.931 . S
H1306 C1321 0.930 . S
C1307 H1295 0.930 . S
C1307 C1308 1.399 . S
C1307 C1312 1.399 . S
C1308 C1307 1.399 . S
C1308 C1309 1.376 . S
C1309 H1296 0.930 . S
C1309 C1308 1.376 . S
C1309 C1310 1.388 . S
C1310 H1297 0.930 . S
C1310 C1309 1.388 . S
C1310 C1311 1.390 . S
C1311 C1310 1.390 . S
C1311 C1312 1.394 . S
C1311 C1317 1.465 . S
C1312 C1307 1.399 . S
C1312 C1311 1.394 . S
C1312 C1313 1.516 . S
C1313 C1312 1.516 . S
C1313 C1314 1.502 . S
C1313 C1315 1.561 1_455 S
C1313 C1316 1.526 . S
C1314 H1298 0.959 . S
C1314 H1299 0.959 . S
C1314 H1300 0.961 . S
C1314 C1313 1.502 . S
C1315 H1301 0.960 . S
C1315 H1302 0.961 . S
C1315 H1303 0.959 . S
C1315 C1313 1.561 1_655 S
C1316 C1313 1.526 . S
C1316 C1317 1.396 . S
C1316 C1321 1.390 . S
C1317 C1311 1.465 . S
C1317 C1316 1.396 . S
C1317 C1318 1.399 . S
C1318 H1304 0.929 . S
C1318 C1317 1.399 . S
C1318 C1319 1.385 . S
C1319 H1305 0.931 . S
C1319 C1318 1.385 . S
C1319 C1320 1.389 . S
C1320 C1319 1.389 . S
C1320 C1321 1.387 . S
C1321 H1306 0.930 . S
C1321 C1316 1.390 . S
C1321 C1320 1.387 . S
H1322 C1334 0.930 . S
H1323 C1336 0.930 . S
H1324 C1337 0.930 . S
H1325 C1341 0.959 . S
H1326 C1341 0.959 . S
H1327 C1341 0.961 . S
H1328 C1342 0.960 . S
H1329 C1342 0.961 . S
H1330 C1342 0.959 . S
H1331 C1345 0.929 . S
H1332 C1346 0.931 . S
H1333 C1348 0.930 . S
C1334 H1322 0.930 . S
C1334 C1335 1.399 . S
C1334 C1339 1.399 . S
C1335 C1334 1.399 . S
C1335 C1336 1.376 . S
C1336 H1323 0.930 . S
C1336 C1335 1.376 . S
C1336 C1337 1.388 . S
C1337 H1324 0.930 . S
C1337 C1336 1.388 . S
C1337 C1338 1.390 . S
C1338 C1337 1.390 . S
C1338 C1339 1.394 . S
C1338 C1344 1.465 . S
C1339 C1334 1.399 . S
C1339 C1338 1.394 . S
C1339 C1340 1.516 . S
C1340 C1339 1.516 . S
C1340 C1341 1.502 . S
C1340 C1342 1.561 . S
C1340 C1343 1.526 . S
C1341 H1325 0.959 . S
C1341 H1326 0.959 . S
C1341 H1327 0.961 . S
C1341 C1340 1.502 . S
C1342 H1328 0.960 . S
C1342 H1329 0.961 . S
C1342 H1330 0.959 . S
C1342 C1340 1.561 . S
C1343 C1340 1.526 . S
C1343 C1344 1.396 . S
C1343 C1348 1.390 . S
C1344 C1338 1.465 . S
C1344 C1343 1.396 . S
C1344 C1345 1.399 . S
C1345 H1331 0.929 . S
C1345 C1344 1.399 . S
C1345 C1346 1.385 . S
C1346 H1332 0.931 . S
C1346 C1345 1.385 . S
C1346 C1347 1.389 . S
C1347 C1346 1.389 . S
C1347 C1348 1.387 . S
C1348 H1333 0.930 . S
C1348 C1343 1.390 . S
C1348 C1347 1.387 . S
H1349 C1361 0.930 . S
H1350 C1363 0.917 1_455 S
H1351 C1364 0.930 . S
H1352 C1368 0.959 . S
H1353 C1368 0.959 . S
H1354 C1368 0.961 . S
H1355 C1369 0.960 . S
H1356 C1369 0.961 . S
H1357 C1369 0.959 1_455 S
H1358 C1372 0.929 . S
H1359 C1373 0.931 . S
H1360 C1375 0.930 . S
C1361 H1349 0.930 . S
C1361 C1362 1.399 . S
C1361 C1366 1.399 . S
C1362 C1361 1.399 . S
C1362 C1363 1.398 . S
C1363 H1350 0.917 1_655 S
C1363 C1362 1.398 . S
C1363 C1364 1.381 1_655 S
C1364 H1351 0.930 . S
C1364 C1363 1.381 1_455 S
C1364 C1365 1.390 1_455 S
C1365 C1364 1.390 1_655 S
C1365 C1366 1.394 . S
C1365 C1371 1.465 1_655 S
C1366 C1361 1.399 . S
C1366 C1365 1.394 . S
C1366 C1367 1.516 . S
C1367 C1366 1.516 . S
C1367 C1368 1.502 . S
C1367 C1369 1.561 . S
C1367 C1370 1.526 . S
C1368 H1352 0.959 . S
C1368 H1353 0.959 . S
C1368 H1354 0.961 . S
C1368 C1367 1.502 . S
C1369 H1355 0.960 . S
C1369 H1356 0.961 . S
C1369 H1357 0.959 1_655 S
C1369 C1367 1.561 . S
C1370 C1367 1.526 . S
C1370 C1371 1.396 1_655 S
C1370 C1375 1.390 . S
C1371 C1365 1.465 1_455 S
C1371 C1370 1.396 1_455 S
C1371 C1372 1.399 . S
C1372 H1358 0.929 . S
C1372 C1371 1.399 . S
C1372 C1373 1.385 . S
C1373 H1359 0.931 . S
C1373 C1372 1.385 . S
C1373 C1374 1.374 1_455 S
C1374 C1373 1.374 1_655 S
C1374 C1375 1.401 . S
C1375 H1360 0.930 . S
C1375 C1370 1.390 . S
C1375 C1374 1.401 . S
H1376 C1388 0.930 . S
H1377 C1390 0.930 . S
H1378 C1391 0.930 . S
H1379 C1395 0.959 . S
H1380 C1395 0.959 . S
H1381 C1395 0.961 . S
H1382 C1396 0.960 . S
H1383 C1396 0.961 . S
H1384 C1396 0.959 . S
H1385 C1399 0.929 . S
H1386 C1400 0.931 . S
H1387 C1402 0.930 . S
C1388 H1376 0.930 . S
C1388 C1389 1.399 . S
C1388 C1393 1.399 . S
C1389 C1388 1.399 . S
C1389 C1390 1.376 . S
C1390 H1377 0.930 . S
C1390 C1389 1.376 . S
C1390 C1391 1.388 . S
C1391 H1378 0.930 . S
C1391 C1390 1.388 . S
C1391 C1392 1.390 . S
C1392 C1391 1.390 . S
C1392 C1393 1.394 . S
C1392 C1398 1.465 . S
C1393 C1388 1.399 . S
C1393 C1392 1.394 . S
C1393 C1394 1.516 . S
C1394 C1393 1.516 . S
C1394 C1395 1.502 . S
C1394 C1396 1.561 . S
C1394 C1397 1.526 . S
C1395 H1379 0.959 . S
C1395 H1380 0.959 . S
C1395 H1381 0.961 . S
C1395 C1394 1.502 . S
C1396 H1382 0.960 . S
C1396 H1383 0.961 . S
C1396 H1384 0.959 . S
C1396 C1394 1.561 . S
C1397 C1394 1.526 . S
C1397 C1398 1.396 . S
C1397 C1402 1.390 . S
C1398 C1392 1.465 . S
C1398 C1397 1.396 . S
C1398 C1399 1.399 . S
C1399 H1385 0.929 . S
C1399 C1398 1.399 . S
C1399 C1400 1.385 . S
C1400 H1386 0.931 . S
C1400 C1399 1.385 . S
C1400 C1401 1.389 . S
C1401 C1400 1.389 . S
C1401 C1402 1.387 . S
C1402 H1387 0.930 . S
C1402 C1397 1.390 . S
C1402 C1401 1.387 . S
H1403 C1415 0.930 . S
H1404 C1417 0.930 . S
H1405 C1418 0.930 . S
H1406 C1422 0.959 . S
H1407 C1422 0.959 . S
H1408 C1422 0.961 . S
H1409 C1423 0.960 . S
H1410 C1423 0.961 . S
H1411 C1423 0.959 . S
H1412 C1426 0.929 . S
H1413 C1427 0.931 . S
H1414 C1429 0.930 . S
C1415 H1403 0.930 . S
C1415 C1416 1.399 . S
C1415 C1420 1.399 . S
C1416 C1415 1.399 . S
C1416 C1417 1.376 . S
C1417 H1404 0.930 . S
C1417 C1416 1.376 . S
C1417 C1418 1.388 . S
C1418 H1405 0.930 . S
C1418 C1417 1.388 . S
C1418 C1419 1.390 . S
C1419 C1418 1.390 . S
C1419 C1420 1.394 . S
C1419 C1425 1.465 . S
C1420 C1415 1.399 . S
C1420 C1419 1.394 . S
C1420 C1421 1.516 . S
C1421 C1420 1.516 . S
C1421 C1422 1.502 . S
C1421 C1423 1.561 . S
C1421 C1424 1.526 . S
C1422 H1406 0.959 . S
C1422 H1407 0.959 . S
C1422 H1408 0.961 . S
C1422 C1421 1.502 . S
C1423 H1409 0.960 . S
C1423 H1410 0.961 . S
C1423 H1411 0.959 . S
C1423 C1421 1.561 . S
C1424 C1421 1.526 . S
C1424 C1425 1.396 . S
C1424 C1429 1.390 . S
C1425 C1419 1.465 . S
C1425 C1424 1.396 . S
C1425 C1426 1.399 . S
C1426 H1412 0.929 . S
C1426 C1425 1.399 . S
C1426 C1427 1.385 . S
C1427 H1413 0.931 . S
C1427 C1426 1.385 . S
C1427 C1428 1.389 . S
C1428 C1427 1.389 . S
C1428 C1429 1.387 . S
C1429 H1414 0.930 . S
C1429 C1424 1.390 . S
C1429 C1428 1.387 . S
H1430 C1442 0.930 . S
H1431 C1444 0.930 . S
H1432 C1445 0.930 . S
H1433 C1449 0.959 . S
H1434 C1449 0.959 . S
H1435 C1449 0.961 . S
H1436 C1450 0.960 . S
H1437 C1450 0.961 . S
H1438 C1450 0.959 . S
H1439 C1453 0.929 . S
H1440 C1454 0.931 . S
H1441 C1456 0.930 . S
C1442 H1430 0.930 . S
C1442 C1443 1.399 1_554 S
C1442 C1447 1.399 . S
C1443 C1442 1.399 1_556 S
C1443 C1444 1.376 . S
C1444 H1431 0.930 . S
C1444 C1443 1.376 . S
C1444 C1445 1.388 . S
C1445 H1432 0.930 . S
C1445 C1444 1.388 . S
C1445 C1446 1.390 . S
C1446 C1445 1.390 . S
C1446 C1447 1.394 1_556 S
C1446 C1452 1.465 . S
C1447 C1442 1.399 . S
C1447 C1446 1.394 1_554 S
C1447 C1448 1.516 . S
C1448 C1447 1.516 . S
C1448 C1449 1.502 . S
C1448 C1450 1.561 . S
C1448 C1451 1.526 . S
C1449 H1433 0.959 . S
C1449 H1434 0.959 . S
C1449 H1435 0.961 . S
C1449 C1448 1.502 . S
C1450 H1436 0.960 . S
C1450 H1437 0.961 . S
C1450 H1438 0.959 . S
C1450 C1448 1.561 . S
C1451 C1448 1.526 . S
C1451 C1452 1.396 1_554 S
C1451 C1456 1.390 . S
C1452 C1446 1.465 . S
C1452 C1451 1.396 1_556 S
C1452 C1453 1.399 . S
C1453 H1439 0.929 . S
C1453 C1452 1.399 . S
C1453 C1454 1.385 . S
C1454 H1440 0.931 . S
C1454 C1453 1.385 . S
C1454 C1455 1.439 . S
C1455 C1454 1.439 . S
C1455 C1456 1.355 1_556 S
C1456 H1441 0.930 . S
C1456 C1451 1.390 . S
C1456 C1455 1.355 1_554 S
H1457 C1469 0.930 . S
H1458 C1471 0.930 . S
H1459 C1472 0.930 . S
H1460 C1476 0.959 . S
H1461 C1476 0.959 . S
H1462 C1476 0.961 . S
H1463 C1477 0.960 . S
H1464 C1477 0.961 . S
H1465 C1477 0.959 . S
H1466 C1480 0.929 . S
H1467 C1481 0.931 . S
H1468 C1483 0.930 . S
C1469 H1457 0.930 . S
C1469 C1470 1.399 . S
C1469 C1474 1.399 . S
C1470 C1469 1.399 . S
C1470 C1471 1.376 . S
C1471 H1458 0.930 . S
C1471 C1470 1.376 . S
C1471 C1472 1.388 . S
C1472 H1459 0.930 . S
C1472 C1471 1.388 . S
C1472 C1473 1.390 . S
C1473 C1472 1.390 . S
C1473 C1474 1.394 . S
C1473 C1479 1.465 . S
C1474 C1469 1.399 . S
C1474 C1473 1.394 . S
C1474 C1475 1.516 . S
C1475 C1474 1.516 . S
C1475 C1476 1.502 . S
C1475 C1477 1.561 . S
C1475 C1478 1.526 . S
C1476 H1460 0.959 . S
C1476 H1461 0.959 . S
C1476 H1462 0.961 . S
C1476 C1475 1.502 . S
C1477 H1463 0.960 . S
C1477 H1464 0.961 . S
C1477 H1465 0.959 . S
C1477 C1475 1.561 . S
C1478 C1475 1.526 . S
C1478 C1479 1.396 . S
C1478 C1483 1.390 . S
C1479 C1473 1.465 . S
C1479 C1478 1.396 . S
C1479 C1480 1.399 . S
C1480 H1466 0.929 . S
C1480 C1479 1.399 . S
C1480 C1481 1.385 . S
C1481 H1467 0.931 . S
C1481 C1480 1.385 . S
C1481 C1482 1.389 . S
C1482 C1481 1.389 . S
C1482 C1483 1.387 . S
C1483 H1468 0.930 . S
C1483 C1478 1.390 . S
C1483 C1482 1.387 . S
H1484 C1496 0.930 . S
H1485 C1498 0.930 . S
H1486 C1499 0.930 . S
H1487 C1503 0.959 . S
H1488 C1503 0.959 . S
H1489 C1503 0.961 . S
H1490 C1504 0.960 . S
H1491 C1504 0.961 . S
H1492 C1504 0.959 . S
H1493 C1507 0.929 . S
H1494 C1508 0.931 . S
H1495 C1510 0.930 . S
C1496 H1484 0.930 . S
C1496 C1497 1.399 . S
C1496 C1501 1.399 . S
C1497 C1496 1.399 . S
C1497 C1498 1.376 . S
C1498 H1485 0.930 . S
C1498 C1497 1.376 . S
C1498 C1499 1.388 . S
C1499 H1486 0.930 . S
C1499 C1498 1.388 . S
C1499 C1500 1.390 . S
C1500 C1499 1.390 . S
C1500 C1501 1.394 . S
C1500 C1506 1.465 . S
C1501 C1496 1.399 . S
C1501 C1500 1.394 . S
C1501 C1502 1.516 . S
C1502 C1501 1.516 . S
C1502 C1503 1.502 . S
C1502 C1504 1.561 . S
C1502 C1505 1.526 . S
C1503 H1487 0.959 . S
C1503 H1488 0.959 . S
C1503 H1489 0.961 . S
C1503 C1502 1.502 . S
C1504 H1490 0.960 . S
C1504 H1491 0.961 . S
C1504 H1492 0.959 . S
C1504 C1502 1.561 . S
C1505 C1502 1.526 . S
C1505 C1506 1.396 . S
C1505 C1510 1.390 . S
C1506 C1500 1.465 . S
C1506 C1505 1.396 . S
C1506 C1507 1.399 . S
C1507 H1493 0.929 . S
C1507 C1506 1.399 . S
C1507 C1508 1.385 . S
C1508 H1494 0.931 . S
C1508 C1507 1.385 . S
C1508 C1509 1.389 . S
C1509 C1508 1.389 . S
C1509 C1510 1.387 . S
C1510 H1495 0.930 . S
C1510 C1505 1.390 . S
C1510 C1509 1.387 . S
H1511 C1523 0.930 . S
H1512 C1525 0.930 . S
H1513 C1526 0.930 . S
H1514 C1530 0.959 . S
H1515 C1530 0.959 . S
H1516 C1530 0.961 . S
H1517 C1531 0.960 . S
H1518 C1531 0.961 . S
H1519 C1531 0.959 . S
H1520 C1534 0.929 . S
H1521 C1535 0.931 . S
H1522 C1537 0.930 . S
C1523 H1511 0.930 . S
C1523 C1524 1.399 . S
C1523 C1528 1.399 . S
C1524 C1523 1.399 . S
C1524 C1525 1.376 . S
C1525 H1512 0.930 . S
C1525 C1524 1.376 . S
C1525 C1526 1.388 . S
C1526 H1513 0.930 . S
C1526 C1525 1.388 . S
C1526 C1527 1.390 . S
C1527 C1526 1.390 . S
C1527 C1528 1.394 . S
C1527 C1533 1.465 . S
C1528 C1523 1.399 . S
C1528 C1527 1.394 . S
C1528 C1529 1.516 . S
C1529 C1528 1.516 . S
C1529 C1530 1.502 . S
C1529 C1531 1.561 . S
C1529 C1532 1.526 . S
C1530 H1514 0.959 . S
C1530 H1515 0.959 . S
C1530 H1516 0.961 . S
C1530 C1529 1.502 . S
C1531 H1517 0.960 . S
C1531 H1518 0.961 . S
C1531 H1519 0.959 . S
C1531 C1529 1.561 . S
C1532 C1529 1.526 . S
C1532 C1533 1.396 . S
C1532 C1537 1.390 . S
C1533 C1527 1.465 . S
C1533 C1532 1.396 . S
C1533 C1534 1.399 . S
C1534 H1520 0.929 . S
C1534 C1533 1.399 . S
C1534 C1535 1.385 . S
C1535 H1521 0.931 . S
C1535 C1534 1.385 . S
C1535 C1536 1.389 . S
C1536 C1535 1.389 . S
C1536 C1537 1.387 . S
C1537 H1522 0.930 . S
C1537 C1532 1.390 . S
C1537 C1536 1.387 . S
H1538 C1550 0.930 . S
H1539 C1552 0.930 . S
H1540 C1553 0.930 . S
H1541 C1557 0.959 . S
H1542 C1557 0.959 . S
H1543 C1557 0.961 . S
H1544 C1558 0.960 . S
H1545 C1558 0.961 . S
H1546 C1558 0.959 . S
H1547 C1561 0.929 . S
H1548 C1562 0.931 . S
H1549 C1564 0.930 . S
C1550 H1538 0.930 . S
C1550 C1551 1.399 . S
C1550 C1555 1.399 . S
C1551 C1550 1.399 . S
C1551 C1552 1.376 . S
C1552 H1539 0.930 . S
C1552 C1551 1.376 . S
C1552 C1553 1.388 . S
C1553 H1540 0.930 . S
C1553 C1552 1.388 . S
C1553 C1554 1.390 . S
C1554 C1553 1.390 . S
C1554 C1555 1.394 . S
C1554 C1560 1.465 . S
C1555 C1550 1.399 . S
C1555 C1554 1.394 . S
C1555 C1556 1.516 . S
C1556 C1555 1.516 . S
C1556 C1557 1.502 . S
C1556 C1558 1.561 . S
C1556 C1559 1.526 . S
C1557 H1541 0.959 . S
C1557 H1542 0.959 . S
C1557 H1543 0.961 . S
C1557 C1556 1.502 . S
C1558 H1544 0.960 . S
C1558 H1545 0.961 . S
C1558 H1546 0.959 . S
C1558 C1556 1.561 . S
C1559 C1556 1.526 . S
C1559 C1560 1.396 . S
C1559 C1564 1.390 . S
C1560 C1554 1.465 . S
C1560 C1559 1.396 . S
C1560 C1561 1.399 . S
C1561 H1547 0.929 . S
C1561 C1560 1.399 . S
C1561 C1562 1.385 . S
C1562 H1548 0.931 . S
C1562 C1561 1.385 . S
C1562 C1563 1.389 . S
C1563 C1562 1.389 . S
C1563 C1564 1.387 . S
C1564 H1549 0.930 . S
C1564 C1559 1.390 . S
C1564 C1563 1.387 . S
H1565 C1577 0.930 . S
H1566 C1579 0.930 . S
H1567 C1580 0.930 . S
H1568 C1584 0.959 . S
H1569 C1584 0.959 . S
H1570 C1584 0.961 . S
H1571 C1585 0.960 . S
H1572 C1585 0.961 . S
H1573 C1585 0.959 . S
H1574 C1588 0.929 . S
H1575 C1589 0.931 . S
H1576 C1591 0.930 . S
C1577 H1565 0.930 . S
C1577 C1578 1.399 . S
C1577 C1582 1.399 . S
C1578 C1577 1.399 . S
C1578 C1579 1.376 . S
C1579 H1566 0.930 . S
C1579 C1578 1.376 . S
C1579 C1580 1.388 . S
C1580 H1567 0.930 . S
C1580 C1579 1.388 . S
C1580 C1581 1.390 . S
C1581 C1580 1.390 . S
C1581 C1582 1.394 . S
C1581 C1587 1.465 . S
C1582 C1577 1.399 . S
C1582 C1581 1.394 . S
C1582 C1583 1.516 . S
C1583 C1582 1.516 . S
C1583 C1584 1.502 . S
C1583 C1585 1.561 . S
C1583 C1586 1.526 . S
C1584 H1568 0.959 . S
C1584 H1569 0.959 . S
C1584 H1570 0.961 . S
C1584 C1583 1.502 . S
C1585 H1571 0.960 . S
C1585 H1572 0.961 . S
C1585 H1573 0.959 . S
C1585 C1583 1.561 . S
C1586 C1583 1.526 . S
C1586 C1587 1.396 . S
C1586 C1591 1.390 . S
C1587 C1581 1.465 . S
C1587 C1586 1.396 . S
C1587 C1588 1.399 . S
C1588 H1574 0.929 . S
C1588 C1587 1.399 . S
C1588 C1589 1.385 . S
C1589 H1575 0.931 . S
C1589 C1588 1.385 . S
C1589 C1590 1.389 . S
C1590 C1589 1.389 . S
C1590 C1591 1.387 . S
C1591 H1576 0.930 . S
C1591 C1586 1.390 . S
C1591 C1590 1.387 . S
H1592 C1604 0.930 . S
H1593 C1606 0.930 . S
H1594 C1607 0.930 . S
H1595 C1611 0.959 . S
H1596 C1611 0.959 . S
H1597 C1611 0.961 . S
H1598 C1612 0.960 . S
H1599 C1612 0.961 . S
H1600 C1612 0.959 . S
H1601 C1615 0.929 . S
H1602 C1616 0.931 . S
H1603 C1618 0.930 . S
C1604 H1592 0.930 . S
C1604 C1605 1.399 . S
C1604 C1609 1.399 . S
C1605 C1604 1.399 . S
C1605 C1606 1.376 . S
C1606 H1593 0.930 . S
C1606 C1605 1.376 . S
C1606 C1607 1.388 . S
C1607 H1594 0.930 . S
C1607 C1606 1.388 . S
C1607 C1608 1.390 . S
C1608 C1607 1.390 . S
C1608 C1609 1.394 . S
C1608 C1614 1.465 . S
C1609 C1604 1.399 . S
C1609 C1608 1.394 . S
C1609 C1610 1.516 . S
C1610 C1609 1.516 . S
C1610 C1611 1.502 . S
C1610 C1612 1.561 . S
C1610 C1613 1.526 . S
C1611 H1595 0.959 . S
C1611 H1596 0.959 . S
C1611 H1597 0.961 . S
C1611 C1610 1.502 . S
C1612 H1598 0.960 . S
C1612 H1599 0.961 . S
C1612 H1600 0.959 . S
C1612 C1610 1.561 . S
C1613 C1610 1.526 . S
C1613 C1614 1.396 . S
C1613 C1618 1.390 . S
C1614 C1608 1.465 . S
C1614 C1613 1.396 . S
C1614 C1615 1.399 . S
C1615 H1601 0.929 . S
C1615 C1614 1.399 . S
C1615 C1616 1.385 . S
C1616 H1602 0.931 . S
C1616 C1615 1.385 . S
C1616 C1617 1.389 . S
C1617 C1616 1.389 . S
C1617 C1618 1.387 . S
C1618 H1603 0.930 . S
C1618 C1613 1.390 . S
C1618 C1617 1.387 . S
H1619 C1631 0.930 . S
H1620 C1633 0.930 1_565 S
H1621 C1634 0.930 . S
H1622 C1638 0.959 . S
H1623 C1638 0.959 . S
H1624 C1638 0.961 . S
H1625 C1639 0.960 . S
H1626 C1639 0.961 . S
H1627 C1639 0.959 . S
H1628 C1642 0.929 . S
H1629 C1643 0.931 . S
H1630 C1645 0.930 . S
C1631 H1619 0.930 . S
C1631 C1632 1.399 . S
C1631 C1636 1.399 . S
C1632 C1631 1.399 . S
C1632 C1633 1.376 . S
C1633 H1620 0.930 1_545 S
C1633 C1632 1.376 . S
C1633 C1634 1.388 1_545 S
C1634 H1621 0.930 . S
C1634 C1633 1.388 1_565 S
C1634 C1635 1.390 1_565 S
C1635 C1634 1.390 1_545 S
C1635 C1636 1.394 . S
C1635 C1641 1.465 . S
C1636 C1631 1.399 . S
C1636 C1635 1.394 . S
C1636 C1637 1.516 . S
C1637 C1636 1.516 . S
C1637 C1638 1.502 . S
C1637 C1639 1.561 . S
C1637 C1640 1.526 . S
C1638 H1622 0.959 . S
C1638 H1623 0.959 . S
C1638 H1624 0.961 . S
C1638 C1637 1.502 . S
C1639 H1625 0.960 . S
C1639 H1626 0.961 . S
C1639 H1627 0.959 . S
C1639 C1637 1.561 . S
C1640 C1637 1.526 . S
C1640 C1641 1.396 . S
C1640 C1645 1.390 . S
C1641 C1635 1.465 . S
C1641 C1640 1.396 . S
C1641 C1642 1.399 1_545 S
C1642 H1628 0.929 . S
C1642 C1641 1.399 1_565 S
C1642 C1643 1.385 . S
C1643 H1629 0.931 . S
C1643 C1642 1.385 . S
C1643 C1644 1.389 1_565 S
C1644 C1643 1.389 1_545 S
C1644 C1645 1.387 . S
C1645 H1630 0.930 . S
C1645 C1640 1.390 . S
C1645 C1644 1.387 . S
H1646 C1658 0.930 . S
H1647 C1660 0.930 . S
H1648 C1661 0.930 . S
H1649 C1665 0.959 . S
H1650 C1665 0.959 . S
H1651 C1665 0.961 . S
H1652 C1666 0.960 . S
H1653 C1666 0.961 . S
H1654 C1666 0.959 . S
H1655 C1669 0.929 . S
H1656 C1670 0.931 . S
H1657 C1672 0.930 . S
C1658 H1646 0.930 . S
C1658 C1659 1.399 . S
C1658 C1663 1.399 . S
C1659 C1658 1.399 . S
C1659 C1660 1.376 . S
C1660 H1647 0.930 . S
C1660 C1659 1.376 . S
C1660 C1661 1.388 . S
C1661 H1648 0.930 . S
C1661 C1660 1.388 . S
C1661 C1662 1.390 . S
C1662 C1661 1.390 . S
C1662 C1663 1.394 . S
C1662 C1668 1.465 . S
C1663 C1658 1.399 . S
C1663 C1662 1.394 . S
C1663 C1664 1.516 . S
C1664 C1663 1.516 . S
C1664 C1665 1.502 . S
C1664 C1666 1.561 . S
C1664 C1667 1.526 . S
C1665 H1649 0.959 . S
C1665 H1650 0.959 . S
C1665 H1651 0.961 . S
C1665 C1664 1.502 . S
C1666 H1652 0.960 . S
C1666 H1653 0.961 . S
C1666 H1654 0.959 . S
C1666 C1664 1.561 . S
C1667 C1664 1.526 . S
C1667 C1668 1.396 . S
C1667 C1672 1.390 . S
C1668 C1662 1.465 . S
C1668 C1667 1.396 . S
C1668 C1669 1.399 . S
C1669 H1655 0.929 . S
C1669 C1668 1.399 . S
C1669 C1670 1.385 . S
C1670 H1656 0.931 . S
C1670 C1669 1.385 . S
C1670 C1671 1.389 . S
C1671 C1670 1.389 . S
C1671 C1672 1.387 . S
C1672 H1657 0.930 . S
C1672 C1667 1.390 . S
C1672 C1671 1.387 . S
H1673 C1685 0.930 . S
H1674 C1687 0.930 . S
H1675 C1688 0.930 . S
H1676 C1692 0.959 . S
H1677 C1692 0.959 . S
H1678 C1692 0.961 . S
H1679 C1693 0.960 . S
H1680 C1693 0.961 . S
H1681 C1693 0.959 . S
H1682 C1696 0.929 . S
H1683 C1697 0.931 . S
H1684 C1699 0.930 . S
C1685 H1673 0.930 . S
C1685 C1686 1.399 . S
C1685 C1690 1.399 . S
C1686 C1685 1.399 . S
C1686 C1687 1.376 . S
C1687 H1674 0.930 . S
C1687 C1686 1.376 . S
C1687 C1688 1.388 . S
C1688 H1675 0.930 . S
C1688 C1687 1.388 . S
C1688 C1689 1.390 . S
C1689 C1688 1.390 . S
C1689 C1690 1.394 . S
C1689 C1695 1.465 . S
C1690 C1685 1.399 . S
C1690 C1689 1.394 . S
C1690 C1691 1.516 . S
C1691 C1690 1.516 . S
C1691 C1692 1.502 . S
C1691 C1693 1.561 . S
C1691 C1694 1.526 . S
C1692 H1676 0.959 . S
C1692 H1677 0.959 . S
C1692 H1678 0.961 . S
C1692 C1691 1.502 . S
C1693 H1679 0.960 . S
C1693 H1680 0.961 . S
C1693 H1681 0.959 . S
C1693 C1691 1.561 . S
C1694 C1691 1.526 . S
C1694 C1695 1.396 . S
C1694 C1699 1.390 . S
C1695 C1689 1.465 . S
C1695 C1694 1.396 . S
C1695 C1696 1.399 . S
C1696 H1682 0.929 . S
C1696 C1695 1.399 . S
C1696 C1697 1.385 . S
C1697 H1683 0.931 . S
C1697 C1696 1.385 . S
C1697 C1698 1.389 . S
C1698 C1697 1.389 . S
C1698 C1699 1.387 . S
C1699 H1684 0.930 . S
C1699 C1694 1.390 . S
C1699 C1698 1.387 . S
H1700 C1712 0.930 . S
H1701 C1714 0.930 . S
H1702 C1715 0.930 . S
H1703 C1719 0.959 . S
H1704 C1719 0.959 . S
H1705 C1719 0.961 . S
H1706 C1720 0.960 . S
H1707 C1720 0.961 . S
H1708 C1720 0.959 . S
H1709 C1723 0.929 . S
H1710 C1724 0.931 . S
H1711 C1726 0.930 . S
C1712 H1700 0.930 . S
C1712 C1713 1.399 . S
C1712 C1717 1.399 . S
C1713 C1712 1.399 . S
C1713 C1714 1.376 . S
C1714 H1701 0.930 . S
C1714 C1713 1.376 . S
C1714 C1715 1.388 . S
C1715 H1702 0.930 . S
C1715 C1714 1.388 . S
C1715 C1716 1.390 . S
C1716 C1715 1.390 . S
C1716 C1717 1.394 . S
C1716 C1722 1.465 . S
C1717 C1712 1.399 . S
C1717 C1716 1.394 . S
C1717 C1718 1.516 . S
C1718 C1717 1.516 . S
C1718 C1719 1.502 . S
C1718 C1720 1.561 . S
C1718 C1721 1.526 . S
C1719 H1703 0.959 . S
C1719 H1704 0.959 . S
C1719 H1705 0.961 . S
C1719 C1718 1.502 . S
C1720 H1706 0.960 . S
C1720 H1707 0.961 . S
C1720 H1708 0.959 . S
C1720 C1718 1.561 . S
C1721 C1718 1.526 . S
C1721 C1722 1.396 . S
C1721 C1726 1.390 . S
C1722 C1716 1.465 . S
C1722 C1721 1.396 . S
C1722 C1723 1.399 . S
C1723 H1709 0.929 . S
C1723 C1722 1.399 . S
C1723 C1724 1.385 . S
C1724 H1710 0.931 . S
C1724 C1723 1.385 . S
C1724 C1725 1.389 . S
C1725 C1724 1.389 . S
C1725 C1726 1.387 . S
C1726 H1711 0.930 . S
C1726 C1721 1.390 . S
C1726 C1725 1.387 . S
H1727 C1739 0.930 1_565 S
H1728 C1741 0.930 . S
H1729 C1742 0.930 . S
H1730 C1746 0.959 . S
H1731 C1746 0.959 . S
H1732 C1746 0.961 . S
H1733 C1747 0.960 . S
H1734 C1747 0.961 . S
H1735 C1747 0.937 1_545 S
H1736 C1750 0.929 . S
H1737 C1751 0.931 . S
H1738 C1753 0.917 1_565 S
C1739 H1727 0.930 1_545 S
C1739 C1740 1.399 . S
C1739 C1744 1.399 . S
C1740 C1739 1.399 . S
C1740 C1741 1.376 . S
C1741 H1728 0.930 . S
C1741 C1740 1.376 . S
C1741 C1742 1.388 . S
C1742 H1729 0.930 . S
C1742 C1741 1.388 . S
C1742 C1743 1.390 . S
C1743 C1742 1.390 . S
C1743 C1744 1.394 . S
C1743 C1749 1.465 . S
C1744 C1739 1.399 . S
C1744 C1743 1.394 . S
C1744 C1745 1.516 1_545 S
C1745 C1744 1.516 1_565 S
C1745 C1746 1.502 . S
C1745 C1747 1.561 . S
C1745 C1748 1.526 1_565 S
C1746 H1730 0.959 . S
C1746 H1731 0.959 . S
C1746 H1732 0.961 . S
C1746 C1745 1.502 . S
C1747 H1733 0.960 . S
C1747 H1734 0.961 . S
C1747 H1735 0.937 1_565 S
C1747 C1745 1.561 . S
C1748 C1745 1.526 1_545 S
C1748 C1749 1.396 . S
C1748 C1753 1.393 . S
C1749 C1743 1.465 . S
C1749 C1748 1.396 . S
C1749 C1750 1.399 . S
C1750 H1736 0.929 . S
C1750 C1749 1.399 . S
C1750 C1751 1.385 . S
C1751 H1737 0.931 . S
C1751 C1750 1.385 . S
C1751 C1752 1.389 . S
C1752 C1751 1.389 . S
C1752 C1753 1.396 . S
C1753 H1738 0.917 1_545 S
C1753 C1748 1.393 . S
C1753 C1752 1.396 . S
H1754 C1766 0.930 . S
H1755 C1768 0.930 . S
H1756 C1769 0.930 . S
H1757 C1773 0.959 . S
H1758 C1773 0.959 . S
H1759 C1773 0.961 . S
H1760 C1774 0.960 . S
H1761 C1774 0.961 . S
H1762 C1774 0.959 . S
H1763 C1777 0.929 . S
H1764 C1778 0.931 . S
H1765 C1780 0.930 . S
C1766 H1754 0.930 . S
C1766 C1767 1.399 . S
C1766 C1771 1.399 . S
C1767 C1766 1.399 . S
C1767 C1768 1.376 . S
C1768 H1755 0.930 . S
C1768 C1767 1.376 . S
C1768 C1769 1.388 . S
C1769 H1756 0.930 . S
C1769 C1768 1.388 . S
C1769 C1770 1.390 . S
C1770 C1769 1.390 . S
C1770 C1771 1.394 . S
C1770 C1776 1.465 . S
C1771 C1766 1.399 . S
C1771 C1770 1.394 . S
C1771 C1772 1.516 . S
C1772 C1771 1.516 . S
C1772 C1773 1.502 . S
C1772 C1774 1.561 . S
C1772 C1775 1.526 . S
C1773 H1757 0.959 . S
C1773 H1758 0.959 . S
C1773 H1759 0.961 . S
C1773 C1772 1.502 . S
C1774 H1760 0.960 . S
C1774 H1761 0.961 . S
C1774 H1762 0.959 . S
C1774 C1772 1.561 . S
C1775 C1772 1.526 . S
C1775 C1776 1.396 . S
C1775 C1780 1.390 . S
C1776 C1770 1.465 . S
C1776 C1775 1.396 . S
C1776 C1777 1.399 . S
C1777 H1763 0.929 . S
C1777 C1776 1.399 . S
C1777 C1778 1.385 . S
C1778 H1764 0.931 . S
C1778 C1777 1.385 . S
C1778 C1779 1.389 . S
C1779 C1778 1.389 . S
C1779 C1780 1.387 . S
C1780 H1765 0.930 . S
C1780 C1775 1.390 . S
C1780 C1779 1.387 . S
H1781 C1793 0.930 . S
H1782 C1795 0.930 . S
H1783 C1796 0.930 . S
H1784 C1800 0.959 . S
H1785 C1800 0.959 . S
H1786 C1800 0.961 . S
H1787 C1801 0.960 . S
H1788 C1801 0.961 . S
H1789 C1801 0.959 . S
H1790 C1804 0.929 . S
H1791 C1805 0.931 . S
H1792 C1807 0.930 . S
C1793 H1781 0.930 . S
C1793 C1794 1.399 . S
C1793 C1798 1.399 . S
C1794 C1793 1.399 . S
C1794 C1795 1.376 . S
C1795 H1782 0.930 . S
C1795 C1794 1.376 . S
C1795 C1796 1.388 . S
C1796 H1783 0.930 . S
C1796 C1795 1.388 . S
C1796 C1797 1.390 . S
C1797 C1796 1.390 . S
C1797 C1798 1.394 . S
C1797 C1803 1.465 . S
C1798 C1793 1.399 . S
C1798 C1797 1.394 . S
C1798 C1799 1.516 . S
C1799 C1798 1.516 . S
C1799 C1800 1.502 . S
C1799 C1801 1.561 . S
C1799 C1802 1.526 . S
C1800 H1784 0.959 . S
C1800 H1785 0.959 . S
C1800 H1786 0.961 . S
C1800 C1799 1.502 . S
C1801 H1787 0.960 . S
C1801 H1788 0.961 . S
C1801 H1789 0.959 . S
C1801 C1799 1.561 . S
C1802 C1799 1.526 . S
C1802 C1803 1.396 . S
C1802 C1807 1.390 . S
C1803 C1797 1.465 . S
C1803 C1802 1.396 . S
C1803 C1804 1.399 . S
C1804 H1790 0.929 . S
C1804 C1803 1.399 . S
C1804 C1805 1.385 . S
C1805 H1791 0.931 . S
C1805 C1804 1.385 . S
C1805 C1806 1.389 . S
C1806 C1805 1.389 . S
C1806 C1807 1.387 . S
C1807 H1792 0.930 . S
C1807 C1802 1.390 . S
C1807 C1806 1.387 . S
H1808 C1820 0.930 . S
H1809 C1822 0.930 . S
H1810 C1823 0.930 . S
H1811 C1827 0.959 . S
H1812 C1827 0.959 . S
H1813 C1827 0.961 . S
H1814 C1828 0.960 . S
H1815 C1828 0.961 . S
H1816 C1828 0.959 . S
H1817 C1831 0.929 . S
H1818 C1832 0.931 . S
H1819 C1834 0.930 . S
C1820 H1808 0.930 . S
C1820 C1821 1.399 . S
C1820 C1825 1.399 . S
C1821 C1820 1.399 . S
C1821 C1822 1.376 . S
C1822 H1809 0.930 . S
C1822 C1821 1.376 . S
C1822 C1823 1.388 . S
C1823 H1810 0.930 . S
C1823 C1822 1.388 . S
C1823 C1824 1.390 . S
C1824 C1823 1.390 . S
C1824 C1825 1.394 . S
C1824 C1830 1.465 . S
C1825 C1820 1.399 . S
C1825 C1824 1.394 . S
C1825 C1826 1.516 . S
C1826 C1825 1.516 . S
C1826 C1827 1.502 . S
C1826 C1828 1.561 . S
C1826 C1829 1.526 . S
C1827 H1811 0.959 . S
C1827 H1812 0.959 . S
C1827 H1813 0.961 . S
C1827 C1826 1.502 . S
C1828 H1814 0.960 . S
C1828 H1815 0.961 . S
C1828 H1816 0.959 . S
C1828 C1826 1.561 . S
C1829 C1826 1.526 . S
C1829 C1830 1.396 . S
C1829 C1834 1.390 . S
C1830 C1824 1.465 . S
C1830 C1829 1.396 . S
C1830 C1831 1.399 . S
C1831 H1817 0.929 . S
C1831 C1830 1.399 . S
C1831 C1832 1.385 . S
C1832 H1818 0.931 . S
C1832 C1831 1.385 . S
C1832 C1833 1.389 . S
C1833 C1832 1.389 . S
C1833 C1834 1.387 . S
C1834 H1819 0.930 . S
C1834 C1829 1.390 . S
C1834 C1833 1.387 . S
H1835 C1847 0.930 . S
H1836 C1849 0.930 1_554 S
H1837 C1850 0.930 . S
H1838 C1854 0.959 . S
H1839 C1854 0.959 . S
H1840 C1854 0.961 . S
H1841 C1855 0.960 . S
H1842 C1855 0.961 . S
H1843 C1855 0.959 . S
H1844 C1858 0.928 1_455 S
H1845 C1859 0.931 . S
H1846 C1861 0.930 . S
C1847 H1835 0.930 . S
C1847 C1848 1.399 . S
C1847 C1852 1.399 . S
C1848 C1847 1.399 . S
C1848 C1849 1.376 . S
C1849 H1836 0.930 1_556 S
C1849 C1848 1.376 . S
C1849 C1850 1.388 . S
C1850 H1837 0.930 . S
C1850 C1849 1.388 . S
C1850 C1851 1.390 . S
C1851 C1850 1.390 . S
C1851 C1852 1.394 . S
C1851 C1857 1.465 . S
C1852 C1847 1.399 . S
C1852 C1851 1.394 . S
C1852 C1853 1.516 . S
C1853 C1852 1.516 . S
C1853 C1854 1.502 . S
C1853 C1855 1.561 1_655 S
C1853 C1856 1.526 . S
C1854 H1838 0.959 . S
C1854 H1839 0.959 . S
C1854 H1840 0.961 . S
C1854 C1853 1.502 . S
C1855 H1841 0.960 . S
C1855 H1842 0.961 . S
C1855 H1843 0.959 . S
C1855 C1853 1.561 1_455 S
C1856 C1853 1.526 . S
C1856 C1857 1.396 . S
C1856 C1861 1.390 . S
C1857 C1851 1.465 . S
C1857 C1856 1.396 . S
C1857 C1858 1.401 . S
C1858 H1844 0.928 1_655 S
C1858 C1857 1.401 . S
C1858 C1859 1.383 1_655 S
C1859 H1845 0.931 . S
C1859 C1858 1.383 1_455 S
C1859 C1860 1.389 . S
C1860 C1859 1.389 . S
C1860 C1861 1.387 1_455 S
C1861 H1846 0.930 . S
C1861 C1856 1.390 . S
C1861 C1860 1.387 1_655 S
H1862 C1874 0.930 . S
H1863 C1876 0.930 . S
H1864 C1877 0.930 . S
H1865 C1881 0.959 . S
H1866 C1881 0.959 . S
H1867 C1881 0.961 . S
H1868 C1882 0.960 . S
H1869 C1882 0.961 . S
H1870 C1882 0.959 . S
H1871 C1885 0.929 . S
H1872 C1886 0.931 . S
H1873 C1888 0.930 . S
C1874 H1862 0.930 . S
C1874 C1875 1.399 . S
C1874 C1879 1.399 . S
C1875 C1874 1.399 . S
C1875 C1876 1.376 . S
C1876 H1863 0.930 . S
C1876 C1875 1.376 . S
C1876 C1877 1.388 . S
C1877 H1864 0.930 . S
C1877 C1876 1.388 . S
C1877 C1878 1.390 . S
C1878 C1877 1.390 . S
C1878 C1879 1.394 . S
C1878 C1884 1.465 . S
C1879 C1874 1.399 . S
C1879 C1878 1.394 . S
C1879 C1880 1.516 . S
C1880 C1879 1.516 . S
C1880 C1881 1.502 . S
C1880 C1882 1.561 . S
C1880 C1883 1.526 . S
C1881 H1865 0.959 . S
C1881 H1866 0.959 . S
C1881 H1867 0.961 . S
C1881 C1880 1.502 . S
C1882 H1868 0.960 . S
C1882 H1869 0.961 . S
C1882 H1870 0.959 . S
C1882 C1880 1.561 . S
C1883 C1880 1.526 . S
C1883 C1884 1.396 . S
C1883 C1888 1.390 . S
C1884 C1878 1.465 . S
C1884 C1883 1.396 . S
C1884 C1885 1.399 . S
C1885 H1871 0.929 . S
C1885 C1884 1.399 . S
C1885 C1886 1.385 . S
C1886 H1872 0.931 . S
C1886 C1885 1.385 . S
C1886 C1887 1.389 . S
C1887 C1886 1.389 . S
C1887 C1888 1.387 . S
C1888 H1873 0.930 . S
C1888 C1883 1.390 . S
C1888 C1887 1.387 . S
H1889 C1901 0.930 . S
H1890 C1903 0.930 . S
H1891 C1904 0.930 . S
H1892 C1908 0.959 . S
H1893 C1908 0.959 . S
H1894 C1908 0.961 . S
H1895 C1909 0.960 1_554 S
H1896 C1909 0.961 . S
H1897 C1909 0.959 . S
H1898 C1912 0.929 . S
H1899 C1913 0.931 . S
H1900 C1915 0.934 . S
C1901 H1889 0.930 . S
C1901 C1902 1.399 . S
C1901 C1906 1.399 . S
C1902 C1901 1.399 . S
C1902 C1903 1.376 . S
C1903 H1890 0.930 . S
C1903 C1902 1.376 . S
C1903 C1904 1.388 . S
C1904 H1891 0.930 . S
C1904 C1903 1.388 . S
C1904 C1905 1.390 . S
C1905 C1904 1.390 . S
C1905 C1906 1.394 . S
C1905 C1911 1.465 . S
C1906 C1901 1.399 . S
C1906 C1905 1.394 . S
C1906 C1907 1.516 . S
C1907 C1906 1.516 . S
C1907 C1908 1.502 1_455 S
C1907 C1909 1.561 . S
C1907 C1910 1.526 . S
C1908 H1892 0.959 . S
C1908 H1893 0.959 . S
C1908 H1894 0.961 . S
C1908 C1907 1.502 1_655 S
C1909 H1895 0.960 1_556 S
C1909 H1896 0.961 . S
C1909 H1897 0.959 . S
C1909 C1907 1.561 . S
C1910 C1907 1.526 . S
C1910 C1911 1.396 . S
C1910 C1915 1.390 . S
C1911 C1905 1.465 . S
C1911 C1910 1.396 . S
C1911 C1912 1.399 . S
C1912 H1898 0.929 . S
C1912 C1911 1.399 . S
C1912 C1913 1.385 . S
C1913 H1899 0.931 . S
C1913 C1912 1.385 . S
C1913 C1914 1.389 . S
C1914 C1913 1.389 . S
C1914 C1915 1.387 . S
C1915 H1900 0.934 . S
C1915 C1910 1.390 . S
C1915 C1914 1.387 . S
H1916 C1928 0.930 . S
H1917 C1930 0.930 . S
H1918 C1931 0.930 . S
H1919 C1935 0.959 . S
H1920 C1935 0.959 . S
H1921 C1935 0.961 . S
H1922 C1936 0.960 . S
H1923 C1936 0.961 . S
H1924 C1936 0.959 . S
H1925 C1939 0.929 . S
H1926 C1940 0.931 . S
H1927 C1942 0.930 . S
C1928 H1916 0.930 . S
C1928 C1929 1.399 . S
C1928 C1933 1.399 . S
C1929 C1928 1.399 . S
C1929 C1930 1.376 . S
C1930 H1917 0.930 . S
C1930 C1929 1.376 . S
C1930 C1931 1.388 . S
C1931 H1918 0.930 . S
C1931 C1930 1.388 . S
C1931 C1932 1.390 . S
C1932 C1931 1.390 . S
C1932 C1933 1.394 . S
C1932 C1938 1.465 . S
C1933 C1928 1.399 . S
C1933 C1932 1.394 . S
C1933 C1934 1.516 . S
C1934 C1933 1.516 . S
C1934 C1935 1.502 . S
C1934 C1936 1.561 . S
C1934 C1937 1.526 . S
C1935 H1919 0.959 . S
C1935 H1920 0.959 . S
C1935 H1921 0.961 . S
C1935 C1934 1.502 . S
C1936 H1922 0.960 . S
C1936 H1923 0.961 . S
C1936 H1924 0.959 . S
C1936 C1934 1.561 . S
C1937 C1934 1.526 . S
C1937 C1938 1.396 . S
C1937 C1942 1.390 . S
C1938 C1932 1.465 . S
C1938 C1937 1.396 . S
C1938 C1939 1.399 . S
C1939 H1925 0.929 . S
C1939 C1938 1.399 . S
C1939 C1940 1.385 . S
C1940 H1926 0.931 . S
C1940 C1939 1.385 . S
C1940 C1941 1.389 . S
C1941 C1940 1.389 . S
C1941 C1942 1.387 . S
C1942 H1927 0.930 . S
C1942 C1937 1.390 . S
C1942 C1941 1.387 . S
H1943 C1955 0.930 . S
H1944 C1957 0.930 . S
H1945 C1958 0.930 . S
H1946 C1962 0.959 . S
H1947 C1962 0.959 . S
H1948 C1962 0.961 . S
H1949 C1963 0.960 . S
H1950 C1963 0.961 . S
H1951 C1963 0.959 . S
H1952 C1966 0.929 . S
H1953 C1967 0.931 . S
H1954 C1969 0.930 . S
C1955 H1943 0.930 . S
C1955 C1956 1.399 . S
C1955 C1960 1.399 . S
C1956 C1955 1.399 . S
C1956 C1957 1.376 . S
C1957 H1944 0.930 . S
C1957 C1956 1.376 . S
C1957 C1958 1.388 . S
C1958 H1945 0.930 . S
C1958 C1957 1.388 . S
C1958 C1959 1.390 . S
C1959 C1958 1.390 . S
C1959 C1960 1.394 . S
C1959 C1965 1.465 . S
C1960 C1955 1.399 . S
C1960 C1959 1.394 . S
C1960 C1961 1.516 . S
C1961 C1960 1.516 . S
C1961 C1962 1.502 . S
C1961 C1963 1.561 . S
C1961 C1964 1.526 . S
C1962 H1946 0.959 . S
C1962 H1947 0.959 . S
C1962 H1948 0.961 . S
C1962 C1961 1.502 . S
C1963 H1949 0.960 . S
C1963 H1950 0.961 . S
C1963 H1951 0.959 . S
C1963 C1961 1.561 . S
C1964 C1961 1.526 . S
C1964 C1965 1.396 . S
C1964 C1969 1.390 . S
C1965 C1959 1.465 . S
C1965 C1964 1.396 . S
C1965 C1966 1.399 . S
C1966 H1952 0.929 . S
C1966 C1965 1.399 . S
C1966 C1967 1.385 . S
C1967 H1953 0.931 . S
C1967 C1966 1.385 . S
C1967 C1968 1.389 . S
C1968 C1967 1.389 . S
C1968 C1969 1.387 . S
C1969 H1954 0.930 . S
C1969 C1964 1.390 . S
C1969 C1968 1.387 . S
H1970 C1982 0.930 . S
H1971 C1984 0.930 . S
H1972 C1985 0.930 . S
H1973 C1989 0.959 . S
H1974 C1989 0.959 . S
H1975 C1989 0.961 . S
H1976 C1990 0.960 . S
H1977 C1990 0.961 . S
H1978 C1990 0.959 . S
H1979 C1993 0.929 . S
H1980 C1994 0.931 . S
H1981 C1996 0.930 . S
C1982 H1970 0.930 . S
C1982 C1983 1.399 . S
C1982 C1987 1.399 . S
C1983 C1982 1.399 . S
C1983 C1984 1.376 . S
C1984 H1971 0.930 . S
C1984 C1983 1.376 . S
C1984 C1985 1.388 . S
C1985 H1972 0.930 . S
C1985 C1984 1.388 . S
C1985 C1986 1.390 . S
C1986 C1985 1.390 . S
C1986 C1987 1.394 . S
C1986 C1992 1.465 . S
C1987 C1982 1.399 . S
C1987 C1986 1.394 . S
C1987 C1988 1.516 . S
C1988 C1987 1.516 . S
C1988 C1989 1.502 . S
C1988 C1990 1.561 . S
C1988 C1991 1.526 . S
C1989 H1973 0.959 . S
C1989 H1974 0.959 . S
C1989 H1975 0.961 . S
C1989 C1988 1.502 . S
C1990 H1976 0.960 . S
C1990 H1977 0.961 . S
C1990 H1978 0.959 . S
C1990 C1988 1.561 . S
C1991 C1988 1.526 . S
C1991 C1992 1.396 . S
C1991 C1996 1.390 . S
C1992 C1986 1.465 . S
C1992 C1991 1.396 . S
C1992 C1993 1.399 . S
C1993 H1979 0.929 . S
C1993 C1992 1.399 . S
C1993 C1994 1.385 . S
C1994 H1980 0.931 . S
C1994 C1993 1.385 . S
C1994 C1995 1.389 . S
C1995 C1994 1.389 . S
C1995 C1996 1.387 . S
C1996 H1981 0.930 . S
C1996 C1991 1.390 . S
C1996 C1995 1.387 . S
H1997 C2009 0.930 . S
H1998 C2011 0.930 . S
H1999 C2012 0.930 . S
H2000 C2016 0.959 . S
H2001 C2016 0.959 . S
H2002 C2016 0.961 . S
H2003 C2017 0.960 . S
H2004 C2017 0.961 . S
H2005 C2017 0.959 . S
H2006 C2020 0.929 . S
H2007 C2021 0.931 . S
H2008 C2023 0.930 . S
C2009 H1997 0.930 . S
C2009 C2010 1.399 . S
C2009 C2014 1.399 . S
C2010 C2009 1.399 . S
C2010 C2011 1.376 . S
C2011 H1998 0.930 . S
C2011 C2010 1.376 . S
C2011 C2012 1.388 . S
C2012 H1999 0.930 . S
C2012 C2011 1.388 . S
C2012 C2013 1.390 . S
C2013 C2012 1.390 . S
C2013 C2014 1.394 . S
C2013 C2019 1.465 . S
C2014 C2009 1.399 . S
C2014 C2013 1.394 . S
C2014 C2015 1.516 . S
C2015 C2014 1.516 . S
C2015 C2016 1.502 . S
C2015 C2017 1.561 . S
C2015 C2018 1.526 . S
C2016 H2000 0.959 . S
C2016 H2001 0.959 . S
C2016 H2002 0.961 . S
C2016 C2015 1.502 . S
C2017 H2003 0.960 . S
C2017 H2004 0.961 . S
C2017 H2005 0.959 . S
C2017 C2015 1.561 . S
C2018 C2015 1.526 . S
C2018 C2019 1.396 . S
C2018 C2023 1.390 . S
C2019 C2013 1.465 . S
C2019 C2018 1.396 . S
C2019 C2020 1.399 . S
C2020 H2006 0.929 . S
C2020 C2019 1.399 . S
C2020 C2021 1.385 . S
C2021 H2007 0.931 . S
C2021 C2020 1.385 . S
C2021 C2022 1.389 . S
C2022 C2021 1.389 . S
C2022 C2023 1.387 . S
C2023 H2008 0.930 . S
C2023 C2018 1.390 . S
C2023 C2022 1.387 . S
H2024 C2036 0.930 . S
H2025 C2038 0.930 . S
H2026 C2039 0.930 . S
H2027 C2043 0.959 . S
H2028 C2043 0.959 . S
H2029 C2043 0.961 . S
H2030 C2044 0.960 . S
H2031 C2044 0.961 . S
H2032 C2044 0.959 . S
H2033 C2047 0.929 . S
H2034 C2048 0.931 . S
H2035 C2050 0.930 . S
C2036 H2024 0.930 . S
C2036 C2037 1.399 . S
C2036 C2041 1.399 . S
C2037 C2036 1.399 . S
C2037 C2038 1.376 . S
C2038 H2025 0.930 . S
C2038 C2037 1.376 . S
C2038 C2039 1.388 . S
C2039 H2026 0.930 . S
C2039 C2038 1.388 . S
C2039 C2040 1.390 . S
C2040 C2039 1.390 . S
C2040 C2041 1.394 . S
C2040 C2046 1.465 . S
C2041 C2036 1.399 . S
C2041 C2040 1.394 . S
C2041 C2042 1.516 . S
C2042 C2041 1.516 . S
C2042 C2043 1.502 . S
C2042 C2044 1.561 . S
C2042 C2045 1.526 . S
C2043 H2027 0.959 . S
C2043 H2028 0.959 . S
C2043 H2029 0.961 . S
C2043 C2042 1.502 . S
C2044 H2030 0.960 . S
C2044 H2031 0.961 . S
C2044 H2032 0.959 . S
C2044 C2042 1.561 . S
C2045 C2042 1.526 . S
C2045 C2046 1.396 . S
C2045 C2050 1.390 . S
C2046 C2040 1.465 . S
C2046 C2045 1.396 . S
C2046 C2047 1.399 . S
C2047 H2033 0.929 . S
C2047 C2046 1.399 . S
C2047 C2048 1.385 . S
C2048 H2034 0.931 . S
C2048 C2047 1.385 . S
C2048 C2049 1.389 . S
C2049 C2048 1.389 . S
C2049 C2050 1.387 . S
C2050 H2035 0.930 . S
C2050 C2045 1.390 . S
C2050 C2049 1.387 . S
H2051 C2063 0.930 . S
H2052 C2065 0.930 . S
H2053 C2066 0.930 . S
H2054 C2070 0.959 . S
H2055 C2070 0.959 . S
H2056 C2070 0.961 . S
H2057 C2071 0.960 . S
H2058 C2071 0.961 . S
H2059 C2071 0.959 . S
H2060 C2074 0.929 . S
H2061 C2075 0.931 . S
H2062 C2077 0.930 . S
C2063 H2051 0.930 . S
C2063 C2064 1.399 . S
C2063 C2068 1.399 . S
C2064 C2063 1.399 . S
C2064 C2065 1.376 . S
C2065 H2052 0.930 . S
C2065 C2064 1.376 . S
C2065 C2066 1.388 . S
C2066 H2053 0.930 . S
C2066 C2065 1.388 . S
C2066 C2067 1.390 . S
C2067 C2066 1.390 . S
C2067 C2068 1.394 . S
C2067 C2073 1.465 . S
C2068 C2063 1.399 . S
C2068 C2067 1.394 . S
C2068 C2069 1.516 . S
C2069 C2068 1.516 . S
C2069 C2070 1.502 . S
C2069 C2071 1.561 . S
C2069 C2072 1.526 . S
C2070 H2054 0.959 . S
C2070 H2055 0.959 . S
C2070 H2056 0.961 . S
C2070 C2069 1.502 . S
C2071 H2057 0.960 . S
C2071 H2058 0.961 . S
C2071 H2059 0.959 . S
C2071 C2069 1.561 . S
C2072 C2069 1.526 . S
C2072 C2073 1.396 . S
C2072 C2077 1.390 . S
C2073 C2067 1.465 . S
C2073 C2072 1.396 . S
C2073 C2074 1.399 . S
C2074 H2060 0.929 . S
C2074 C2073 1.399 . S
C2074 C2075 1.385 . S
C2075 H2061 0.931 . S
C2075 C2074 1.385 . S
C2075 C2076 1.389 . S
C2076 C2075 1.389 . S
C2076 C2077 1.387 . S
C2077 H2062 0.930 . S
C2077 C2072 1.390 . S
C2077 C2076 1.387 . S
H2078 C2090 0.930 . S
H2079 C2092 0.930 . S
H2080 C2093 0.930 . S
H2081 C2097 0.959 . S
H2082 C2097 0.959 . S
H2083 C2097 0.961 . S
H2084 C2098 0.960 . S
H2085 C2098 0.961 . S
H2086 C2098 0.959 . S
H2087 C2101 0.929 . S
H2088 C2102 0.931 . S
H2089 C2104 0.930 . S
C2090 H2078 0.930 . S
C2090 C2091 1.399 . S
C2090 C2095 1.399 . S
C2091 C2090 1.399 . S
C2091 C2092 1.376 . S
C2092 H2079 0.930 . S
C2092 C2091 1.376 . S
C2092 C2093 1.388 . S
C2093 H2080 0.930 . S
C2093 C2092 1.388 . S
C2093 C2094 1.390 . S
C2094 C2093 1.390 . S
C2094 C2095 1.394 . S
C2094 C2100 1.465 . S
C2095 C2090 1.399 . S
C2095 C2094 1.394 . S
C2095 C2096 1.516 . S
C2096 C2095 1.516 . S
C2096 C2097 1.502 . S
C2096 C2098 1.561 . S
C2096 C2099 1.526 . S
C2097 H2081 0.959 . S
C2097 H2082 0.959 . S
C2097 H2083 0.961 . S
C2097 C2096 1.502 . S
C2098 H2084 0.960 . S
C2098 H2085 0.961 . S
C2098 H2086 0.959 . S
C2098 C2096 1.561 . S
C2099 C2096 1.526 . S
C2099 C2100 1.396 . S
C2099 C2104 1.390 . S
C2100 C2094 1.465 . S
C2100 C2099 1.396 . S
C2100 C2101 1.399 . S
C2101 H2087 0.929 . S
C2101 C2100 1.399 . S
C2101 C2102 1.385 . S
C2102 H2088 0.931 . S
C2102 C2101 1.385 . S
C2102 C2103 1.389 . S
C2103 C2102 1.389 . S
C2103 C2104 1.387 . S
C2104 H2089 0.930 . S
C2104 C2099 1.390 . S
C2104 C2103 1.387 . S
H2105 C2117 0.930 . S
H2106 C2119 0.930 . S
H2107 C2120 0.930 . S
H2108 C2124 0.959 . S
H2109 C2124 0.959 . S
H2110 C2124 0.961 . S
H2111 C2125 0.960 . S
H2112 C2125 0.961 . S
H2113 C2125 0.959 . S
H2114 C2128 0.929 . S
H2115 C2129 0.931 . S
H2116 C2131 0.930 . S
C2117 H2105 0.930 . S
C2117 C2118 1.399 . S
C2117 C2122 1.399 . S
C2118 C2117 1.399 . S
C2118 C2119 1.376 . S
C2119 H2106 0.930 . S
C2119 C2118 1.376 . S
C2119 C2120 1.388 . S
C2120 H2107 0.930 . S
C2120 C2119 1.388 . S
C2120 C2121 1.390 . S
C2121 C2120 1.390 . S
C2121 C2122 1.394 . S
C2121 C2127 1.465 . S
C2122 C2117 1.399 . S
C2122 C2121 1.394 . S
C2122 C2123 1.516 . S
C2123 C2122 1.516 . S
C2123 C2124 1.502 . S
C2123 C2125 1.561 . S
C2123 C2126 1.526 . S
C2124 H2108 0.959 . S
C2124 H2109 0.959 . S
C2124 H2110 0.961 . S
C2124 C2123 1.502 . S
C2125 H2111 0.960 . S
C2125 H2112 0.961 . S
C2125 H2113 0.959 . S
C2125 C2123 1.561 . S
C2126 C2123 1.526 . S
C2126 C2127 1.396 . S
C2126 C2131 1.390 . S
C2127 C2121 1.465 . S
C2127 C2126 1.396 . S
C2127 C2128 1.399 . S
C2128 H2114 0.929 . S
C2128 C2127 1.399 . S
C2128 C2129 1.385 . S
C2129 H2115 0.931 . S
C2129 C2128 1.385 . S
C2129 C2130 1.389 . S
C2130 C2129 1.389 . S
C2130 C2131 1.387 . S
C2131 H2116 0.930 . S
C2131 C2126 1.390 . S
C2131 C2130 1.387 . S
H2132 C2144 0.930 1_554 S
H2133 C2146 0.930 . S
H2134 C2147 0.930 . S
H2135 C2151 0.959 . S
H2136 C2151 0.959 . S
H2137 C2151 0.961 . S
H2138 C2152 0.960 . S
H2139 C2152 0.961 . S
H2140 C2152 0.959 . S
H2141 C2155 0.929 . S
H2142 C2156 0.931 . S
H2143 C2158 0.930 . S
C2144 H2132 0.930 1_556 S
C2144 C2145 1.399 . S
C2144 C2149 1.399 . S
C2145 C2144 1.399 . S
C2145 C2146 1.376 . S
C2146 H2133 0.930 . S
C2146 C2145 1.376 . S
C2146 C2147 1.388 . S
C2147 H2134 0.930 . S
C2147 C2146 1.388 . S
C2147 C2148 1.390 . S
C2148 C2147 1.390 . S
C2148 C2149 1.394 . S
C2148 C2154 1.465 . S
C2149 C2144 1.399 . S
C2149 C2148 1.394 . S
C2149 C2150 1.516 1_556 S
C2150 C2149 1.516 1_554 S
C2150 C2151 1.502 . S
C2150 C2152 1.561 . S
C2150 C2153 1.514 1_554 S
C2151 H2135 0.959 . S
C2151 H2136 0.959 . S
C2151 H2137 0.961 . S
C2151 C2150 1.502 . S
C2152 H2138 0.960 . S
C2152 H2139 0.961 . S
C2152 H2140 0.959 . S
C2152 C2150 1.561 . S
C2153 C2150 1.514 1_556 S
C2153 C2154 1.419 . S
C2153 C2158 1.382 1_556 S
C2154 C2148 1.465 . S
C2154 C2153 1.419 . S
C2154 C2155 1.399 . S
C2155 H2141 0.929 . S
C2155 C2154 1.399 . S
C2155 C2156 1.385 . S
C2156 H2142 0.931 . S
C2156 C2155 1.385 . S
C2156 C2157 1.389 . S
C2157 C2156 1.389 . S
C2157 C2158 1.387 1_556 S
C2158 H2143 0.930 . S
C2158 C2153 1.382 1_554 S
C2158 C2157 1.387 1_554 S
H2159 C2171 0.930 . S
H2160 C2173 0.930 . S
H2161 C2174 0.930 . S
H2162 C2178 0.959 . S
H2163 C2178 0.959 . S
H2164 C2178 0.961 . S
H2165 C2179 0.960 . S
H2166 C2179 0.961 . S
H2167 C2179 0.959 . S
H2168 C2182 0.929 . S
H2169 C2183 0.931 . S
H2170 C2185 0.930 . S
C2171 H2159 0.930 . S
C2171 C2172 1.399 . S
C2171 C2176 1.399 . S
C2172 C2171 1.399 . S
C2172 C2173 1.376 . S
C2173 H2160 0.930 . S
C2173 C2172 1.376 . S
C2173 C2174 1.388 . S
C2174 H2161 0.930 . S
C2174 C2173 1.388 . S
C2174 C2175 1.390 . S
C2175 C2174 1.390 . S
C2175 C2176 1.394 . S
C2175 C2181 1.465 . S
C2176 C2171 1.399 . S
C2176 C2175 1.394 . S
C2176 C2177 1.516 . S
C2177 C2176 1.516 . S
C2177 C2178 1.502 . S
C2177 C2179 1.561 . S
C2177 C2180 1.526 . S
C2178 H2162 0.959 . S
C2178 H2163 0.959 . S
C2178 H2164 0.961 . S
C2178 C2177 1.502 . S
C2179 H2165 0.960 . S
C2179 H2166 0.961 . S
C2179 H2167 0.959 . S
C2179 C2177 1.561 . S
C2180 C2177 1.526 . S
C2180 C2181 1.396 . S
C2180 C2185 1.390 . S
C2181 C2175 1.465 . S
C2181 C2180 1.396 . S
C2181 C2182 1.399 . S
C2182 H2168 0.929 . S
C2182 C2181 1.399 . S
C2182 C2183 1.385 . S
C2183 H2169 0.931 . S
C2183 C2182 1.385 . S
C2183 C2184 1.389 . S
C2184 C2183 1.389 . S
C2184 C2185 1.387 . S
C2185 H2170 0.930 . S
C2185 C2180 1.390 . S
C2185 C2184 1.387 . S
H2186 C2198 0.930 . S
H2187 C2200 0.930 . S
H2188 C2201 0.930 . S
H2189 C2205 0.959 . S
H2190 C2205 0.959 . S
H2191 C2205 0.961 . S
H2192 C2206 0.960 . S
H2193 C2206 0.961 . S
H2194 C2206 0.959 . S
H2195 C2209 0.929 . S
H2196 C2210 0.931 . S
H2197 C2212 0.930 . S
C2198 H2186 0.930 . S
C2198 C2199 1.399 . S
C2198 C2203 1.399 . S
C2199 C2198 1.399 . S
C2199 C2200 1.376 1_554 S
C2200 H2187 0.930 . S
C2200 C2199 1.376 1_556 S
C2200 C2201 1.388 . S
C2201 H2188 0.930 . S
C2201 C2200 1.388 . S
C2201 C2202 1.390 1_556 S
C2202 C2201 1.390 1_554 S
C2202 C2203 1.394 . S
C2202 C2208 1.471 . S
C2203 C2198 1.399 . S
C2203 C2202 1.394 . S
C2203 C2204 1.516 . S
C2204 C2203 1.516 . S
C2204 C2205 1.502 . S
C2204 C2206 1.561 . S
C2204 C2207 1.526 . S
C2205 H2189 0.959 . S
C2205 H2190 0.959 . S
C2205 H2191 0.961 . S
C2205 C2204 1.502 . S
C2206 H2192 0.960 . S
C2206 H2193 0.961 . S
C2206 H2194 0.959 . S
C2206 C2204 1.561 . S
C2207 C2204 1.526 . S
C2207 C2208 1.429 . S
C2207 C2212 1.390 . S
C2208 C2202 1.471 . S
C2208 C2207 1.429 . S
C2208 C2209 1.368 1_554 S
C2209 H2195 0.929 . S
C2209 C2208 1.368 1_556 S
C2209 C2210 1.385 . S
C2210 H2196 0.931 . S
C2210 C2209 1.385 . S
C2210 C2211 1.389 1_556 S
C2211 C2210 1.389 1_554 S
C2211 C2212 1.387 . S
C2212 H2197 0.930 . S
C2212 C2207 1.390 . S
C2212 C2211 1.387 . S
H2213 C2225 0.930 . S
H2214 C2227 0.918 1_556 S
H2215 C2228 0.930 . S
H2216 C2232 0.959 . S
H2217 C2232 0.959 . S
H2218 C2232 0.961 . S
H2219 C2233 0.960 . S
H2220 C2233 0.961 . S
H2221 C2233 0.959 . S
H2222 C2236 0.929 . S
H2223 C2237 0.931 . S
H2224 C2239 0.930 . S
C2225 H2213 0.930 . S
C2225 C2226 1.399 . S
C2225 C2230 1.399 . S
C2226 C2225 1.399 . S
C2226 C2227 1.394 . S
C2227 H2214 0.918 1_554 S
C2227 C2226 1.394 . S
C2227 C2228 1.383 1_554 S
C2228 H2215 0.930 . S
C2228 C2227 1.383 1_556 S
C2228 C2229 1.390 1_556 S
C2229 C2228 1.390 1_554 S
C2229 C2230 1.394 . S
C2229 C2235 1.465 . S
C2230 C2225 1.399 . S
C2230 C2229 1.394 . S
C2230 C2231 1.516 . S
C2231 C2230 1.516 . S
C2231 C2232 1.502 . S
C2231 C2233 1.561 . S
C2231 C2234 1.526 . S
C2232 H2216 0.959 . S
C2232 H2217 0.959 . S
C2232 H2218 0.961 . S
C2232 C2231 1.502 . S
C2233 H2219 0.960 . S
C2233 H2220 0.961 . S
C2233 H2221 0.959 . S
C2233 C2231 1.561 . S
C2234 C2231 1.526 . S
C2234 C2235 1.396 . S
C2234 C2239 1.390 . S
C2235 C2229 1.465 . S
C2235 C2234 1.396 . S
C2235 C2236 1.399 1_554 S
C2236 H2222 0.929 . S
C2236 C2235 1.399 1_556 S
C2236 C2237 1.385 . S
C2237 H2223 0.931 . S
C2237 C2236 1.385 . S
C2237 C2238 1.389 1_556 S
C2238 C2237 1.389 1_554 S
C2238 C2239 1.387 . S
C2239 H2224 0.930 . S
C2239 C2234 1.390 . S
C2239 C2238 1.387 . S
C969 C514 1.412 . S
C957 C177 1.349 . S
C996 C562 1.603 . S
C984 C209 1.683 . S
C1011 C253 1.389 . S
C1023 C598 1.316 . S
C1050 C634 1.549 1_565 S
C1038 C157 1.560 . S
C1077 C660 1.456 . S
C1065 C343 1.467 . S
C1104 C696 1.547 . S
C1092 C401 1.552 . S
C1119 C369 1.491 . S
C1131 C731 1.509 . S
C1158 C768 1.596 1_565 S
C1146 C317 1.596 . S
C1173 C375 1.444 . S
C1185 C802 1.435 . S
C1212 C850 1.584 . S
C1200 C305 1.615 . S
C1227 C349 1.452 . S
C1239 C803 1.459 . S
C1266 C840 1.598 . S
C1254 C413 1.571 . S
C1281 C241 1.436 . S
C1293 C886 1.335 . S
C1308 C151 1.540 . S
C1320 C875 1.591 . S
C1335 C189 1.466 . S
C1347 C876 1.473 . S
C1362 C215 1.605 . S
C1374 C874 1.609 1_655 S
C1389 C113 1.452 . S
C1401 C622 1.435 . S
C1416 C471 1.366 . S
C1428 C623 1.427 . S
C1455 C526 1.561 1_556 S
C1443 C509 1.639 . S
C1482 C551 1.454 . S
C1470 C279 1.451 . S
C1497 C145 1.548 . S
C1509 C658 1.561 . S
C1536 C766 1.517 . S
C1524 C381 1.518 . S
C1563 C659 1.595 . S
C1551 C311 1.559 . S
C1590 C732 1.580 . S
C1578 C407 1.583 . S
C1617 C730 1.433 . S
C1605 C465 1.313 . S
C1632 C497 1.644 . S
C1644 C778 1.662 . S
C1659 C285 1.392 . S
C1671 C670 1.328 . S
C1698 C706 1.536 . S
C1686 C445 1.550 . S
C1713 C119 1.483 . S
C1725 C588 1.486 . S
C1752 C624 1.569 . S
C1740 C17 1.506 . S
C1779 C515 1.509 . S
C1767 C49 1.492 . S
C1806 C552 1.605 . S
C1794 C93 1.597 . S
C1821 C55 1.451 . S
C1833 C838 1.424 . S
C1848 C81 1.623 . S
C1860 C814 1.568 1_455 S
C1875 C125 1.465 . S
C1887 C839 1.469 . S
C1902 C29 1.553 . S
C1914 C804 1.601 . S
C1941 C922 1.335 . S
C1929 C273 1.436 . S
C1968 C911 1.570 . S
C1956 C439 1.554 . S
C1995 C912 1.479 . S
C1983 C477 1.427 . S
C2010 C503 1.630 . S
C2022 C910 1.634 . S
C2037 C337 1.445 . S
C2049 C694 1.414 . S
C2076 C695 1.426 . S
C2064 C183 1.373 . S
C2103 C742 1.565 . S
C2091 C221 1.639 . S
C2130 C767 1.454 . S
C2118 C247 1.450 . S
C2145 C433 1.525 . S
C2157 C586 1.589 . S
C2184 C550 1.501 . S
C2172 C61 1.509 . S
C2199 C87 1.558 . S
C2211 C587 1.597 . S
C2238 C516 1.580 . S
C2226 C23 1.582 . S
