# Generated by pormake.
# Topology csq, (4,8)-cn, num edge types: 1
# Building blocks:
#     Node 0, Type 0, BuildingBlock: MIFKUJ_clean_linker_1, # of connection points: 4
#     Node 1, Type 0, BuildingBlock: MIFKUJ_clean_linker_1, # of connection points: 4
#     Node 2, Type 0, BuildingBlock: MIFKUJ_clean_linker_1, # of connection points: 4
#     Node 3, Type 0, BuildingBlock: MIFKUJ_clean_linker_1, # of connection points: 4
#     Node 4, Type 0, BuildingBlock: MIFKUJ_clean_linker_1, # of connection points: 4
#     Node 5, Type 0, BuildingBlock: MIFKUJ_clean_linker_1, # of connection points: 4
#     Node 6, Type 1, BuildingBlock: TAGTUT_clean_sbu_1, # of connection points: 8
#     Node 7, Type 1, BuildingBlock: TAGTUT_clean_sbu_1, # of connection points: 8
#     Node 8, Type 1, BuildingBlock: TAGTUT_clean_sbu_1, # of connection points: 8
#     Edge 9, Type (0, 1), BuildingBlock: EZIPEK_clean_linker_0, # of connection points: 2
#     Edge 10, Type (0, 1), BuildingBlock: EZIPEK_clean_linker_0, # of connection points: 2
#     Edge 11, Type (0, 1), BuildingBlock: EZIPEK_clean_linker_0, # of connection points: 2
#     Edge 12, Type (0, 1), BuildingBlock: EZIPEK_clean_linker_0, # of connection points: 2
#     Edge 13, Type (0, 1), BuildingBlock: EZIPEK_clean_linker_0, # of connection points: 2
#     Edge 14, Type (0, 1), BuildingBlock: EZIPEK_clean_linker_0, # of connection points: 2
#     Edge 15, Type (0, 1), BuildingBlock: EZIPEK_clean_linker_0, # of connection points: 2
#     Edge 16, Type (0, 1), BuildingBlock: EZIPEK_clean_linker_0, # of connection points: 2
#     Edge 17, Type (0, 1), BuildingBlock: EZIPEK_clean_linker_0, # of connection points: 2
#     Edge 18, Type (0, 1), BuildingBlock: EZIPEK_clean_linker_0, # of connection points: 2
#     Edge 19, Type (0, 1), BuildingBlock: EZIPEK_clean_linker_0, # of connection points: 2
#     Edge 20, Type (0, 1), BuildingBlock: EZIPEK_clean_linker_0, # of connection points: 2
#     Edge 21, Type (0, 1), BuildingBlock: EZIPEK_clean_linker_0, # of connection points: 2
#     Edge 22, Type (0, 1), BuildingBlock: EZIPEK_clean_linker_0, # of connection points: 2
#     Edge 23, Type (0, 1), BuildingBlock: EZIPEK_clean_linker_0, # of connection points: 2
#     Edge 24, Type (0, 1), BuildingBlock: EZIPEK_clean_linker_0, # of connection points: 2
#     Edge 25, Type (0, 1), BuildingBlock: EZIPEK_clean_linker_0, # of connection points: 2
#     Edge 26, Type (0, 1), BuildingBlock: EZIPEK_clean_linker_0, # of connection points: 2
#     Edge 27, Type (0, 1), BuildingBlock: EZIPEK_clean_linker_0, # of connection points: 2
#     Edge 28, Type (0, 1), BuildingBlock: EZIPEK_clean_linker_0, # of connection points: 2
#     Edge 29, Type (0, 1), BuildingBlock: EZIPEK_clean_linker_0, # of connection points: 2
#     Edge 30, Type (0, 1), BuildingBlock: EZIPEK_clean_linker_0, # of connection points: 2
#     Edge 31, Type (0, 1), BuildingBlock: EZIPEK_clean_linker_0, # of connection points: 2
#     Edge 32, Type (0, 1), BuildingBlock: EZIPEK_clean_linker_0, # of connection points: 2
# Relax obj value: 0.034
# Max RMSD: 0.125
# Mean RMSD: 0.057
data_MOF--net-csq--node1-TAGTUT_clean_sbu_1--node2-MIFKUJ_clean_linker_1--edge1-EZIPEK_clean_linker_0
_symmetry_space_group_name_H-M    P1
_symmetry_Int_Tables_number       1
_symmetry_cell_setting            triclinic
loop_
_symmetry_equiv_pos_as_xyz
'x, y, z'
_cell_length_a     49.293276
_cell_length_b     48.838703
_cell_length_c     17.382087
_cell_angle_alpha  92.956923
_cell_angle_beta   92.38509
_cell_angle_gamma 119.57596
loop_
_atom_site_label
_atom_site_type_symbol
_atom_site_fract_x
_atom_site_fract_y
_atom_site_fract_z
_atom_type_partial_charge
H0 H 0.29811 0.46316 0.20977 0.0
H1 H 0.33922 0.46617 0.29999 0.0
H2 H 0.33969 0.54287 0.43572 0.0
H3 H 0.30083 0.54199 0.34228 0.0
H4 H 0.24573 0.50272 0.31054 0.0
H5 H 0.26103 0.45128 0.03027 0.0
H6 H 0.29738 0.4475 0.94435 0.0
H7 H 0.3722 0.53621 0.04982 0.0
H8 H 0.33553 0.54026 0.13607 0.0
H9 H 0.23701 0.54417 0.01243 0.0
H10 H 0.20286 0.53865 0.89999 0.0
H11 H 0.12503 0.46185 0.99696 0.0
H12 H 0.15996 0.46534 0.10656 0.0
H13 H 0.24874 0.49967 0.02657 0.0
H14 H 0.19626 0.54157 0.19306 0.0
H15 H 0.1551 0.54122 0.26923 0.0
H16 H 0.14959 0.4636 0.38841 0.0
H17 H 0.18921 0.4627 0.31017 0.0
C18 C 0.29681 0.50288 0.26776 0.0
C19 C 0.30763 0.48127 0.25744 0.0
C20 C 0.33066 0.48258 0.30967 0.0
C21 C 0.34249 0.50485 0.37415 0.0
C22 C 0.3309 0.52563 0.3861 0.0
C23 C 0.30874 0.52505 0.33268 0.0
C24 C 0.27167 0.50153 0.21484 0.0
C25 C 0.24647 0.50236 0.24823 0.0
C26 C 0.2719 0.49958 0.13333 0.0
C27 C 0.29557 0.49592 0.09021 0.0
C28 C 0.28533 0.46982 0.03569 0.0
C29 C 0.30596 0.46774 0.98624 0.0
C30 C 0.33734 0.49175 0.99002 0.0
C31 C 0.34797 0.51759 0.04562 0.0
C32 C 0.32718 0.51971 0.09534 0.0
C33 C 0.20109 0.50513 0.06809 0.0
C34 C 0.21246 0.52641 0.01034 0.0
C35 C 0.19306 0.52329 0.94608 0.0
C36 C 0.16149 0.49985 0.94014 0.0
C37 C 0.14941 0.48012 1.00067 0.0
C38 C 0.16919 0.48241 0.06378 0.0
C39 C 0.22396 0.50325 0.12243 0.0
C40 C 0.24825 0.50079 0.08903 0.0
C41 C 0.22217 0.50267 0.20357 0.0
C42 C 0.19582 0.50194 0.2449 0.0
C43 C 0.18576 0.524 0.23424 0.0
C44 C 0.16254 0.52408 0.2784 0.0
C45 C 0.14936 0.50247 0.33486 0.0
C46 C 0.15943 0.48053 0.34547 0.0
C47 C 0.1821 0.48007 0.30063 0.0
H48 H 0.80231 0.28531 0.97088 0.0
H49 H 0.84684 0.32226 0.90267 0.0
H50 H 0.90427 0.28831 0.0082 0.0
H51 H 0.86001 0.25249 0.07989 0.0
H52 H 0.77232 0.21767 0.98084 0.0
H53 H 0.82128 0.3137 0.12216 0.0
H54 H 0.86168 0.36418 0.18712 0.0
H55 H 0.88637 0.3144 0.34833 0.0
H56 H 0.84678 0.26365 0.28129 0.0
H57 H 0.76343 0.17554 0.28018 0.0
H58 H 0.72689 0.14518 0.37502 0.0
H59 H 0.65865 0.16651 0.27471 0.0
H60 H 0.6952 0.19695 0.17959 0.0
H61 H 0.78514 0.23906 0.2658 0.0
H62 H 0.71669 0.13806 0.09429 0.0
H63 H 0.67054 0.09994 0.0089 0.0
H64 H 0.67151 0.17679 0.89533 0.0
H65 H 0.71686 0.21467 0.98066 0.0
C66 C 0.82812 0.26645 0.03022 0.0
C67 C 0.82441 0.28566 0.97871 0.0
C68 C 0.84976 0.30676 0.94039 0.0
C69 C 0.87883 0.30816 0.95138 0.0
C70 C 0.88209 0.28775 0.99994 0.0
C71 C 0.85694 0.2673 0.04019 0.0
C72 C 0.80264 0.24733 0.07832 0.0
C73 C 0.77486 0.22211 0.04328 0.0
C74 C 0.80578 0.25447 0.15876 0.0
C75 C 0.83144 0.28485 0.1959 0.0
C76 C 0.83602 0.31354 0.16988 0.0
C77 C 0.85884 0.34233 0.2071 0.0
C78 C 0.87688 0.3428 0.27201 0.0
C79 C 0.87262 0.31429 0.29791 0.0
C80 C 0.85004 0.28545 0.26001 0.0
C81 C 0.73165 0.18779 0.22178 0.0
C82 C 0.74058 0.1737 0.27867 0.0
C83 C 0.72009 0.15695 0.3336 0.0
C84 C 0.69049 0.15432 0.33281 0.0
C85 C 0.68174 0.16893 0.27696 0.0
C86 C 0.70221 0.1856 0.22176 0.0
C87 C 0.75486 0.20784 0.16917 0.0
C88 C 0.78248 0.23388 0.20358 0.0
C89 C 0.7502 0.20282 0.08734 0.0
C90 C 0.72017 0.17928 0.04428 0.0
C91 C 0.70663 0.1467 0.05201 0.0
C92 C 0.6806 0.12499 0.00276 0.0
C93 C 0.66796 0.13563 0.94522 0.0
C94 C 0.68111 0.16813 0.93878 0.0
C95 C 0.70685 0.18969 0.98785 0.0
H96 H 0.585 0.74415 0.91541 0.0
H97 H 0.57741 0.69319 0.86169 0.0
H98 H 0.50447 0.64472 0.01435 0.0
H99 H 0.51149 0.69573 0.06707 0.0
H100 H 0.54254 0.76728 0.92296 0.0
H101 H 0.60117 0.73563 0.09375 0.0
H102 H 0.59799 0.69174 0.16295 0.0
H103 H 0.53449 0.69951 0.31411 0.0
H104 H 0.53591 0.74191 0.24163 0.0
H105 H 0.53669 0.82014 0.21782 0.0
H106 H 0.53704 0.86823 0.26605 0.0
H107 H 0.60002 0.92016 0.09565 0.0
H108 H 0.60121 0.87232 0.04992 0.0
H109 H 0.57678 0.79956 0.20155 0.0
H110 H 0.509 0.81931 0.03347 0.0
H111 H 0.50023 0.8567 0.9617 0.0
H112 H 0.57307 0.86865 0.81503 0.0
H113 H 0.58205 0.83139 0.88698 0.0
C114 C 0.5488 0.72354 0.9949 0.0
C115 C 0.56723 0.72256 0.93682 0.0
C116 C 0.56324 0.69369 0.90719 0.0
C117 C 0.54076 0.66557 0.93521 0.0
C118 C 0.52219 0.66639 0.99316 0.0
C119 C 0.52599 0.69531 0.0224 0.0
C120 C 0.55497 0.75433 0.03015 0.0
C121 C 0.55044 0.77458 0.98354 0.0
C122 C 0.5646 0.76326 0.10967 0.0
C123 C 0.56822 0.74165 0.16131 0.0
C124 C 0.58666 0.72803 0.142 0.0
C125 C 0.58494 0.70306 0.18153 0.0
C126 C 0.56578 0.69217 0.2432 0.0
C127 C 0.54925 0.70742 0.26635 0.0
C128 C 0.55031 0.73181 0.22547 0.0
C129 C 0.56867 0.84264 0.12994 0.0
C130 C 0.55126 0.84201 0.19215 0.0
C131 C 0.55117 0.86927 0.21897 0.0
C132 C 0.56831 0.89744 0.18363 0.0
C133 C 0.58657 0.89848 0.12304 0.0
C134 C 0.58723 0.87131 0.0973 0.0
C135 C 0.56457 0.81265 0.09422 0.0
C136 C 0.56935 0.79247 0.14072 0.0
C137 C 0.55434 0.80333 0.01512 0.0
C138 C 0.54633 0.82272 0.96579 0.0
C139 C 0.52287 0.82971 0.98535 0.0
C140 C 0.51792 0.85106 0.94475 0.0
C141 C 0.5362 0.86553 0.88368 0.0
C142 C 0.55887 0.85775 0.8623 0.0
C143 C 0.56381 0.83637 0.90285 0.0
H144 H 0.79308 0.46699 0.16648 0.0
H145 H 0.82199 0.46772 0.28301 0.0
H146 H 0.86227 0.56924 0.31603 0.0
H147 H 0.83325 0.56781 0.19966 0.0
H148 H 0.76206 0.51911 0.22269 0.0
H149 H 0.7736 0.46858 0.92184 0.0
H150 H 0.81149 0.46583 0.8404 0.0
H151 H 0.88681 0.54352 0.9815 0.0
H152 H 0.84877 0.54803 0.0601 0.0
H153 H 0.71165 0.55119 0.01565 0.0
H154 H 0.66879 0.54392 0.92602 0.0
H155 H 0.65732 0.45453 0.8358 0.0
H156 H 0.69727 0.45982 0.93369 0.0
H157 H 0.75698 0.50755 0.93725 0.0
H158 H 0.71619 0.55769 0.14229 0.0
H159 H 0.67804 0.55653 0.22907 0.0
H160 H 0.66318 0.46745 0.30246 0.0
H161 H 0.69817 0.46662 0.20713 0.0
C162 C 0.81044 0.51723 0.1758 0.0
C163 C 0.80833 0.48937 0.19933 0.0
C164 C 0.82388 0.48979 0.26894 0.0
C165 C 0.8405 0.51788 0.31862 0.0
C166 C 0.84634 0.5463 0.28716 0.0
C167 C 0.83083 0.54588 0.21793 0.0
C168 C 0.7854 0.51565 0.12363 0.0
C169 C 0.76092 0.51664 0.15997 0.0
C170 C 0.78401 0.51158 0.0421 0.0
C171 C 0.80802 0.50837 0.99833 0.0
C172 C 0.79822 0.48528 0.93552 0.0
C173 C 0.81986 0.4836 0.88882 0.0
C174 C 0.85204 0.50438 0.90474 0.0
C175 C 0.86209 0.52715 0.96817 0.0
C176 C 0.84031 0.52936 0.01397 0.0
C177 C 0.70614 0.50508 0.9856 0.0
C178 C 0.69851 0.52906 0.98082 0.0
C179 C 0.67478 0.52537 0.92755 0.0
C180 C 0.65957 0.49844 0.87499 0.0
C181 C 0.66837 0.4752 0.8768 0.0
C182 C 0.69097 0.47816 0.93282 0.0
C183 C 0.73322 0.50997 0.03625 0.0
C184 C 0.75809 0.50967 0.99991 0.0
C185 C 0.73449 0.51329 0.11801 0.0
C186 C 0.70854 0.5112 0.16337 0.0
C187 C 0.70299 0.53673 0.17212 0.0
C188 C 0.68184 0.53649 0.22393 0.0
C189 C 0.66727 0.51172 0.2723 0.0
C190 C 0.67346 0.48654 0.26502 0.0
C191 C 0.6934 0.48604 0.21035 0.0
H192 H 0.25056 0.80535 0.97556 0.0
H193 H 0.28388 0.84109 0.88324 0.0
H194 H 0.36092 0.83015 0.97022 0.0
H195 H 0.327 0.79289 0.05999 0.0
H196 H 0.2372 0.74192 0.97861 0.0
H197 H 0.26637 0.83015 0.22798 0.0
H198 H 0.30718 0.872 0.31821 0.0
H199 H 0.36715 0.83228 0.28104 0.0
H200 H 0.32564 0.78943 0.19419 0.0
H201 H 0.20136 0.68298 0.24512 0.0
H202 H 0.15333 0.65234 0.31036 0.0
H203 H 0.12067 0.71587 0.24551 0.0
H204 H 0.16825 0.74575 0.17733 0.0
H205 H 0.24309 0.7646 0.26219 0.0
H206 H 0.19332 0.66421 0.10044 0.0
H207 H 0.14744 0.61848 0.03144 0.0
H208 H 0.12829 0.68146 0.90466 0.0
H209 H 0.17376 0.72716 0.97445 0.0
C210 C 0.28659 0.79724 0.02645 0.0
C211 C 0.27465 0.81067 0.97499 0.0
C212 C 0.2935 0.8308 0.92196 0.0
C213 C 0.32478 0.83821 0.92011 0.0
C214 C 0.3368 0.82468 0.97104 0.0
C215 C 0.31768 0.804 0.02335 0.0
C216 C 0.26501 0.77387 0.07701 0.0
C217 C 0.23892 0.74672 0.04082 0.0
C218 C 0.26714 0.77973 0.15836 0.0
C219 C 0.29354 0.80749 0.202 0.0
C220 C 0.2885 0.83076 0.23837 0.0
C221 C 0.31153 0.85432 0.2904 0.0
C222 C 0.34011 0.85516 0.30613 0.0
C223 C 0.34525 0.83201 0.26943 0.0
C224 C 0.32192 0.80806 0.21857 0.0
C225 C 0.18801 0.71635 0.2066 0.0
C226 C 0.1838 0.69019 0.24487 0.0
C227 C 0.15648 0.67275 0.28156 0.0
C228 C 0.13343 0.68172 0.2816 0.0
C229 C 0.13807 0.70846 0.245 0.0
C230 C 0.16514 0.72551 0.20687 0.0
C231 C 0.21566 0.73355 0.16313 0.0
C232 C 0.24227 0.75946 0.20036 0.0
C233 C 0.21435 0.72645 0.08323 0.0
C234 C 0.18671 0.69895 0.04256 0.0
C235 C 0.1789 0.66813 0.05879 0.0
C236 C 0.15282 0.64215 0.01983 0.0
C237 C 0.13452 0.64684 0.96398 0.0
C238 C 0.14211 0.6776 0.94834 0.0
C239 C 0.16808 0.70354 0.98743 0.0
H240 H 0.52041 0.20224 0.11573 0.0
H241 H 0.51769 0.15341 0.06178 0.0
H242 H 0.42056 0.10049 0.10975 0.0
H243 H 0.42381 0.14917 0.16743 0.0
H244 H 0.46999 0.22264 0.06104 0.0
H245 H 0.5229 0.20245 0.27107 0.0
H246 H 0.52403 0.16083 0.34178 0.0
H247 H 0.43709 0.14042 0.43638 0.0
H248 H 0.43495 0.1808 0.36163 0.0
H249 H 0.42483 0.26147 0.31426 0.0
H250 H 0.42296 0.30819 0.36658 0.0
H251 H 0.50888 0.36875 0.26483 0.0
H252 H 0.51126 0.32222 0.21423 0.0
H253 H 0.47323 0.24621 0.3441 0.0
H254 H 0.41875 0.26255 0.1224 0.0
H255 H 0.41612 0.30211 0.04534 0.0
H256 H 0.50974 0.33293 0.98015 0.0
H257 H 0.51216 0.29299 0.05617 0.0
C258 C 0.47213 0.17903 0.1437 0.0
C259 C 0.49874 0.18001 0.11555 0.0
C260 C 0.49732 0.15225 0.08628 0.0
C261 C 0.46894 0.12356 0.0823 0.0
C262 C 0.44266 0.12242 0.11332 0.0
C263 C 0.44436 0.1501 0.14469 0.0
C264 C 0.47348 0.20817 0.17458 0.0
C265 C 0.47112 0.22811 0.12278 0.0
C266 C 0.47482 0.21483 0.25503 0.0
C267 C 0.47851 0.1943 0.30987 0.0
C268 C 0.50408 0.18906 0.30708 0.0
C269 C 0.50481 0.16542 0.34754 0.0
C270 C 0.48053 0.14737 0.39377 0.0
C271 C 0.45598 0.154 0.40064 0.0
C272 C 0.45489 0.1772 0.35866 0.0
C273 C 0.46826 0.2886 0.26112 0.0
C274 C 0.44313 0.28481 0.30302 0.0
C275 C 0.44176 0.31124 0.33144 0.0
C276 C 0.46552 0.34156 0.3181 0.0
C277 C 0.49012 0.34537 0.27406 0.0
C278 C 0.49161 0.31896 0.24619 0.0
C279 C 0.46961 0.26072 0.23051 0.0
C280 C 0.47236 0.24091 0.28237 0.0
C281 C 0.46899 0.25435 0.15007 0.0
C282 C 0.46561 0.27479 0.09461 0.0
C283 C 0.43847 0.27742 0.0903 0.0
C284 C 0.43705 0.30009 0.04695 0.0
C285 C 0.46285 0.32062 0.00776 0.0
C286 C 0.48965 0.31737 0.01024 0.0
C287 C 0.49092 0.29444 0.05289 0.0
C288 C 0.97248 0.40754 0.791 0.0
C289 C 0.06389 0.47264 0.72108 0.0
C290 C 0.03427 0.56037 0.74869 0.0
Mg291 Mg -6e-05 0.43502 0.63762 0.0
O292 O 0.98712 0.4633 0.67663 0.0
Mg293 Mg 0.00676 0.48593 0.78063 0.0
Mg294 Mg -0.00105 0.50065 0.61721 0.0
O295 O 0.01129 0.53795 0.55787 0.0
Mg296 Mg 0.00203 0.56883 0.5965 0.0
Mg297 Mg 0.99198 0.51585 0.45333 0.0
C298 C 0.96548 0.44143 0.48532 0.0
C299 C 0.04983 0.50399 0.49543 0.0
O300 O 0.9813 0.43548 0.82177 0.0
O301 O 0.97856 0.40218 0.72271 0.0
O302 O 0.05047 0.48257 0.76666 0.0
O303 O 0.05004 0.45601 0.65804 0.0
O304 O 0.97557 0.42588 0.52313 0.0
O305 O 0.9694 0.46833 0.51174 0.0
C306 C 0.94854 0.49718 0.74088 0.0
O307 O 0.9566 0.50236 0.6712 0.0
O308 O 0.96361 0.49024 0.7903 0.0
O309 O 0.01926 0.56614 0.41198 0.0
O310 O 0.02572 0.60098 0.51147 0.0
O311 O 0.94858 0.52109 0.46691 0.0
C312 C 0.03059 0.59451 0.4428 0.0
O313 O 0.95254 0.54945 0.57605 0.0
O314 O 0.0258 0.57732 0.71154 0.0
C315 C 0.93713 0.53277 0.51436 0.0
O316 O 0.02834 0.53291 0.72149 0.0
O317 O 0.04142 0.49912 0.56476 0.0
O318 O 0.03492 0.51053 0.4446 0.0
C319 C 0.45679 0.02254 0.87348 0.0
C320 C 0.41335 0.93391 0.74183 0.0
C321 C 0.52952 0.95713 0.69832 0.0
Mg322 Mg 0.44138 0.00103 0.69826 0.0
O323 O 0.48225 0.00839 0.71551 0.0
Mg324 Mg 0.49035 0.98409 0.79419 0.0
Mg325 Mg 0.50108 -0.00019 0.62604 0.0
O326 O 0.52035 0.99153 0.53734 0.0
Mg327 Mg 0.55975 0.99519 0.55062 0.0
Mg328 Mg 0.51308 0.01644 0.45999 0.0
C329 C 0.47275 0.04328 0.55828 0.0
C330 C 0.44647 0.95638 0.48853 0.0
O331 O 0.47481 0.0106 0.88027 0.0
O332 O 0.44086 0.01987 0.81065 0.0
O333 O 0.43966 0.94323 0.77929 0.0
O334 O 0.40932 0.95085 0.69409 0.0
O335 O 0.45092 0.03266 0.60515 0.0
O336 O 0.49387 0.03499 0.55869 0.0
C337 C 0.55742 0.04297 0.76038 0.0
O338 O 0.54899 0.03897 0.6878 0.0
O339 O 0.53942 0.02517 0.80875 0.0
O340 O 0.53134 0.99276 0.37159 0.0
O341 O 0.55681 0.97312 0.44009 0.0
O342 O 0.56265 0.05899 0.48023 0.0
C343 C 0.54595 0.9771 0.37607 0.0
O344 O 0.59449 0.04373 0.53469 0.0
O345 O 0.55166 0.96725 0.65209 0.0
C346 C 0.59 0.06394 0.50058 0.0
O347 O 0.50772 0.96436 0.69423 0.0
O348 O 0.45324 0.96109 0.56217 0.0
O349 O 0.46566 0.974 0.4419 0.0
C350 C 0.54739 0.58624 0.41468 0.0
C351 C 0.58338 0.52586 0.47578 0.0
C352 C 0.46455 0.4383 0.51427 0.0
Mg353 Mg 0.56317 0.56696 0.57223 0.0
O354 O 0.52105 0.53614 0.55267 0.0
Mg355 Mg 0.50795 0.50944 0.45222 0.0
Mg356 Mg 0.50148 0.5026 0.62613 0.0
O357 O 0.48204 0.46923 0.70004 0.0
Mg358 Mg 0.43995 0.43768 0.68433 0.0
Mg359 Mg 0.49655 0.49563 0.80097 0.0
C360 C 0.5369 0.56709 0.73925 0.0
C361 C 0.55711 0.49991 0.72518 0.0
O362 O 0.52832 0.55696 0.39261 0.0
O363 O 0.56246 0.59517 0.48147 0.0
O364 O 0.55575 0.51224 0.44227 0.0
O365 O 0.59078 0.54526 0.53566 0.0
O366 O 0.55778 0.58114 0.69115 0.0
O367 O 0.51449 0.53866 0.72559 0.0
C368 C 0.44653 0.50532 0.52451 0.0
O369 O 0.45581 0.50274 0.59244 0.0
O370 O 0.46218 0.50809 0.46574 0.0
O371 O 0.47923 0.44776 0.85751 0.0
O372 O 0.44321 0.40941 0.77177 0.0
O373 O 0.44885 0.49231 0.81585 0.0
C374 C 0.46041 0.41842 0.83558 0.0
O375 O 0.4118 0.45734 0.72809 0.0
O376 O 0.44399 0.42469 0.56343 0.0
C377 C 0.42073 0.47806 0.78567 0.0
O378 O 0.48802 0.46624 0.52787 0.0
O379 O 0.54724 0.50219 0.65779 0.0
O380 O 0.54213 0.49776 0.78469 0.0
C381 C 0.13187 0.52814 0.43702 0.0
C382 C 0.12465 0.50226 0.38252 0.0
C383 C 0.07157 0.47409 0.42582 0.0
C384 C 0.07718 0.50172 0.47031 0.0
N385 N 0.11214 0.55601 0.51602 0.0
N386 N 0.08585 0.45224 0.31711 0.0
C387 C 0.1073 0.529 0.47578 0.0
C388 C 0.09404 0.47554 0.37514 0.0
N389 N 0.16226 0.55142 0.45331 0.0
N390 N 0.0448 0.4463 0.43288 0.0
H391 H 0.10122 0.45283 0.27694 0.0
H392 H 0.06297 0.43392 0.30415 0.0
H393 H 0.02862 0.44463 0.4717 0.0
H394 H 0.04043 0.42464 0.40706 0.0
H395 H 0.16934 0.56924 0.49776 0.0
H396 H 0.18085 0.55136 0.42689 0.0
H397 H 0.13239 0.57778 0.51469 0.0
H398 H 0.09502 0.55692 0.54763 0.0
C399 C 0.64296 0.10271 0.34092 0.0
C400 C 0.66645 0.13127 0.37962 0.0
C401 C 0.64204 0.11463 0.50194 0.0
C402 C 0.61619 0.08821 0.46036 0.0
N403 N 0.58978 0.06132 0.3349 0.0
N404 N 0.6882 0.16625 0.49577 0.0
C405 C 0.61594 0.08352 0.37842 0.0
C406 C 0.66611 0.13776 0.46012 0.0
N407 N 0.64682 0.09325 0.26859 0.0
N408 N 0.64348 0.1176 0.58079 0.0
H409 H 0.7062 0.18332 0.46667 0.0
H410 H 0.68757 0.17374 0.5525 0.0
H411 H 0.62556 0.10176 0.61237 0.0
H412 H 0.66309 0.13456 0.61494 0.0
H413 H 0.63205 0.07072 0.24175 0.0
H414 H 0.66655 0.10645 0.23875 0.0
H415 H 0.58765 0.06013 0.27473 0.0
H416 H 0.56912 0.04588 0.35741 0.0
C417 C 0.53148 0.63645 0.27759 0.0
C418 C 0.56159 0.66377 0.28116 0.0
C419 C 0.58288 0.63601 0.35378 0.0
C420 C 0.55204 0.61123 0.36245 0.0
N421 N 0.4962 0.59116 0.34278 0.0
N422 N 0.61547 0.69124 0.33339 0.0
C423 C 0.52604 0.61213 0.32664 0.0
C424 C 0.58725 0.66401 0.32195 0.0
N425 N 0.5082 0.63337 0.2262 0.0
N426 N 0.60801 0.63246 0.37376 0.0
H427 H 0.61948 0.71252 0.31294 0.0
H428 H 0.63395 0.69339 0.36949 0.0
H429 H 0.60567 0.61166 0.39363 0.0
H430 H 0.6308 0.64867 0.36223 0.0
H431 H 0.48673 0.61258 0.21623 0.0
H432 H 0.51153 0.65025 0.18764 0.0
H433 H 0.47691 0.59306 0.32387 0.0
H434 H 0.49085 0.5739 0.38137 0.0
C435 C 0.87184 0.54715 0.44543 0.0
C436 C 0.85433 0.51848 0.39879 0.0
C437 C 0.88103 0.49605 0.47056 0.0
C438 C 0.90539 0.5273 0.49371 0.0
N439 N 0.9221 0.58337 0.5104 0.0
N440 N 0.82673 0.46357 0.42212 0.0
C441 C 0.89995 0.55309 0.48575 0.0
C442 C 0.85399 0.49171 0.42708 0.0
N443 N 0.86017 0.56707 0.45632 0.0
N444 N 0.88411 0.47081 0.4886 0.0
H445 H 0.80566 0.46181 0.40153 0.0
H446 H 0.82433 0.44365 0.44723 0.0
H447 H 0.90254 0.47331 0.52572 0.0
H448 H 0.86886 0.44781 0.46523 0.0
H449 H 0.87083 0.58711 0.49532 0.0
H450 H 0.83793 0.56111 0.43259 0.0
H451 H 0.91985 0.60277 0.49709 0.0
H452 H 0.94338 0.58948 0.53978 0.0
C453 C 0.37914 0.91249 0.33689 0.0
C454 C 0.36522 0.88114 0.35851 0.0
C455 C 0.40358 0.8987 0.4706 0.0
C456 C 0.4158 0.93055 0.45257 0.0
N457 N 0.40913 0.96783 0.37886 0.0
N458 N 0.35921 0.8455 0.4559 0.0
C459 C 0.40146 0.9374 0.38924 0.0
C460 C 0.3758 0.8746 0.42874 0.0
N461 N 0.3725 0.91849 0.26456 0.0
N462 N 0.41949 0.89089 0.52306 0.0
H463 H 0.33863 0.8274 0.42704 0.0
H464 H 0.36422 0.84046 0.5105 0.0
H465 H 0.44051 0.90739 0.55304 0.0
H466 H 0.41326 0.8676 0.53155 0.0
H467 H 0.38473 0.94062 0.24316 0.0
H468 H 0.35712 0.90087 0.22286 0.0
H469 H 0.39697 0.97378 0.33878 0.0
H470 H 0.42566 0.98691 0.41524 0.0
C471 C 0.44978 0.38282 0.33722 0.0
C472 C 0.46773 0.36908 0.3626 0.0
C473 C 0.48819 0.40567 0.47838 0.0
C474 C 0.46775 0.41721 0.45716 0.0
N475 N 0.42847 0.41709 0.37012 0.0
N476 N 0.50132 0.36435 0.45993 0.0
C477 C 0.44847 0.40604 0.38722 0.0
C478 C 0.48655 0.37994 0.43337 0.0
N479 N 0.43427 0.37367 0.26539 0.0
N480 N 0.50893 0.41901 0.54232 0.0
H481 H 0.50124 0.34553 0.42858 0.0
H482 H 0.51178 0.36833 0.51569 0.0
H483 H 0.50952 0.43621 0.58143 0.0
H484 H 0.52727 0.41466 0.55424 0.0
H485 H 0.42305 0.38464 0.24017 0.0
H486 H 0.4343 0.35613 0.22856 0.0
H487 H 0.41144 0.40776 0.32405 0.0
H488 H 0.42804 0.435 0.40459 0.0
C489 C 0.55272 0.92197 0.86238 0.0
C490 C 0.53201 0.8893 0.8424 0.0
C491 C 0.50506 0.90203 0.74039 0.0
C492 C 0.52826 0.93449 0.75392 0.0
N493 N 0.57461 0.97575 0.82586 0.0
N494 N 0.48955 0.84754 0.76065 0.0
C495 C 0.55214 0.94458 0.81473 0.0
C496 C 0.5082 0.87914 0.78152 0.0
N497 N 0.57249 0.9313 0.9279 0.0
N498 N 0.48018 0.89301 0.6876 0.0
H499 H 0.4907 0.8301 0.79042 0.0
H500 H 0.47431 0.83846 0.71103 0.0
H501 H 0.47783 0.90857 0.65289 0.0
H502 H 0.46065 0.87047 0.68161 0.0
H503 H 0.58597 0.95469 0.95047 0.0
H504 H 0.57365 0.91531 0.96351 0.0
H505 H 0.59482 0.98426 0.86256 0.0
H506 H 0.57375 0.99315 0.79535 0.0
C507 C 0.60345 0.46913 0.81963 0.0
C508 C 0.63434 0.49496 0.81876 0.0
C509 C 0.61517 0.52172 0.73561 0.0
C510 C 0.58457 0.49583 0.73665 0.0
N511 N 0.55143 0.44084 0.75479 0.0
N512 N 0.67066 0.54014 0.75471 0.0
C513 C 0.57957 0.46796 0.76935 0.0
C514 C 0.64058 0.51932 0.76913 0.0
N515 N 0.59612 0.44732 0.87282 0.0
N516 N 0.61979 0.54926 0.7081 0.0
H517 H 0.68967 0.53841 0.77724 0.0
H518 H 0.67628 0.55685 0.71437 0.0
H519 H 0.60147 0.55187 0.68462 0.0
H520 H 0.64138 0.57001 0.71373 0.0
H521 H 0.57321 0.43005 0.88022 0.0
H522 H 0.61224 0.44825 0.91501 0.0
H523 H 0.54725 0.4191 0.77245 0.0
H524 H 0.53354 0.4397 0.71804 0.0
C525 C 0.11609 0.61222 0.84163 0.0
C526 C 0.10927 0.61981 0.91536 0.0
C527 C 0.05357 0.58152 0.88603 0.0
C528 C 0.06 0.57733 0.8091 0.0
N529 N 0.09655 0.59002 0.71026 0.0
N530 N 0.07248 0.61251 0.01004 0.0
C531 C 0.09111 0.59269 0.78616 0.0
C532 C 0.07827 0.60435 0.93874 0.0
N533 N 0.14655 0.62382 0.8249 0.0
N534 N 0.0239 0.56371 0.90806 0.0
H535 H 0.0903 0.62833 0.05058 0.0
H536 H 0.05016 0.60479 0.02808 0.0
H537 H 0.00548 0.5472 0.86978 0.0
H538 H 0.01789 0.56355 0.96477 0.0
H539 H 0.15321 0.61702 0.77466 0.0
H540 H 0.16549 0.63842 0.86428 0.0
H541 H 0.11805 0.60385 0.68799 0.0
H542 H 0.07911 0.57518 0.66776 0.0
C543 C 0.45977 0.06803 0.06153 0.0
C544 C 0.46527 0.09668 0.03154 0.0
C545 C 0.47077 0.078 0.90435 0.0
C546 C 0.46114 0.04778 0.93094 0.0
N547 N 0.4432 0.01251 0.03252 0.0
N548 N 0.46704 0.12515 0.92019 0.0
C549 C 0.4548 0.04228 0.00916 0.0
C550 C 0.46809 0.10055 0.95168 0.0
N551 N 0.45998 0.06573 0.13952 0.0
N552 N 0.48352 0.08567 0.83483 0.0
H553 H 0.46366 0.14174 0.95221 0.0
H554 H 0.46598 0.12699 0.86077 0.0
H555 H 0.48727 0.07034 0.79866 0.0
H556 H 0.49369 0.10853 0.81723 0.0
H557 H 0.459 0.04649 0.16515 0.0
H558 H 0.46351 0.08423 0.17904 0.0
H559 H 0.43527 0.00645 0.08705 0.0
H560 H 0.43939 0.99331 0.99519 0.0
C561 C 0.36916 0.46688 0.95027 0.0
C562 C 0.35896 0.48887 0.93674 0.0
C563 C 0.38865 0.5036 0.8208 0.0
C564 C 0.39701 0.48009 0.8318 0.0
N565 N 0.39109 0.4356 0.89877 0.0
N566 N 0.35509 0.52513 0.85399 0.0
C567 C 0.38592 0.46056 0.89403 0.0
C568 C 0.36765 0.50646 0.87051 0.0
N569 N 0.36383 0.45289 0.01844 0.0
N570 N 0.40129 0.52353 0.76384 0.0
H571 H 0.34 0.52806 0.88949 0.0
H572 H 0.35782 0.536 0.80269 0.0
H573 H 0.41556 0.52102 0.72467 0.0
H574 H 0.39912 0.54348 0.75796 0.0
H575 H 0.37368 0.43941 0.03574 0.0
H576 H 0.35177 0.45703 0.06127 0.0
H577 H 0.38078 0.41846 0.9377 0.0
H578 H 0.40358 0.43034 0.85935 0.0
C579 C 0.90247 0.3294 0.82927 0.0
C580 C 0.90551 0.33112 0.91083 0.0
C581 C 0.95665 0.37884 0.91125 0.0
C582 C 0.9506 0.38019 0.83149 0.0
N583 N 0.9128 0.36014 0.71961 0.0
N584 N 0.93358 0.36056 0.03138 0.0
C585 C 0.9223 0.35627 0.79132 0.0
C586 C 0.93222 0.35656 0.95268 0.0
N587 N 0.88046 0.30223 0.78808 0.0
N588 N 0.98571 0.39838 0.94707 0.0
H589 H 0.9157 0.34543 0.06396 0.0
H590 H 0.95114 0.38058 0.06357 0.0
H591 H 0.00443 0.4143 0.91769 0.0
H592 H 0.99197 0.39638 0.00365 0.0
H593 H 0.87919 0.29914 0.72797 0.0
H594 H 0.86585 0.28178 0.81435 0.0
H595 H 0.89092 0.34433 0.69198 0.0
H596 H 0.92466 0.38079 0.69177 0.0
C597 C 0.87713 0.47383 0.85103 0.0
C598 C 0.87509 0.50189 0.85538 0.0
C599 C 0.92001 0.52675 0.77588 0.0
C600 C 0.92061 0.49799 0.76763 0.0
N601 N 0.89453 0.44198 0.78027 0.0
N602 N 0.88953 0.55208 0.80508 0.0
C603 C 0.89733 0.4708 0.79951 0.0
C604 C 0.89495 0.52744 0.81241 0.0
N605 N 0.86122 0.45075 0.89929 0.0
N606 N 0.94424 0.55384 0.75332 0.0
H607 H 0.8711 0.55314 0.82972 0.0
H608 H 0.90137 0.56979 0.76835 0.0
H609 H 0.96322 0.5544 0.72774 0.0
H610 H 0.94672 0.5761 0.76577 0.0
H611 H 0.86442 0.43134 0.904 0.0
H612 H 0.84722 0.4525 0.9404 0.0
H613 H 0.87621 0.42085 0.79608 0.0
H614 H 0.90869 0.43895 0.74165 0.0
C615 C 0.35725 0.85268 0.80484 0.0
C616 C 0.34539 0.86187 0.8682 0.0
C617 C 0.37045 0.91599 0.82981 0.0
C618 C 0.3859 0.90785 0.77338 0.0
N619 N 0.39665 0.86936 0.71165 0.0
N620 N 0.34537 0.90343 0.94966 0.0
C621 C 0.37994 0.87636 0.76187 0.0
C622 C 0.35302 0.8938 0.88269 0.0
N623 N 0.34641 0.82137 0.78496 0.0
N624 N 0.37288 0.94517 0.83417 0.0
H625 H 0.33343 0.8882 0.99148 0.0
H626 H 0.35358 0.92706 0.96767 0.0
H627 H 0.3861 0.96272 0.79845 0.0
H628 H 0.35937 0.95102 0.86854 0.0
H629 H 0.35194 0.81308 0.73501 0.0
H630 H 0.32972 0.80346 0.81507 0.0
H631 H 0.39602 0.84771 0.70694 0.0
H632 H 0.41269 0.88609 0.67788 0.0
C633 C 0.46268 0.34426 0.88278 0.0
C634 C 0.46192 0.3457 0.96423 0.0
C635 C 0.45698 0.39331 0.96123 0.0
C636 C 0.46114 0.39371 0.88087 0.0
N637 N 0.47626 0.37377 0.76988 0.0
N638 N 0.46484 0.37523 0.08302 0.0
C639 C 0.46629 0.37034 0.84285 0.0
C640 C 0.4609 0.37128 0.00417 0.0
N641 N 0.45907 0.31764 0.84304 0.0
N642 N 0.44814 0.41309 0.9961 0.0
H643 H 0.46843 0.36 0.11644 0.0
H644 H 0.46754 0.39522 0.11476 0.0
H645 H 0.44444 0.4291 0.96638 0.0
H646 H 0.44164 0.41151 0.05268 0.0
H647 H 0.45617 0.31415 0.78293 0.0
H648 H 0.45583 0.29775 0.86997 0.0
H649 H 0.48341 0.35908 0.74302 0.0
H650 H 0.48082 0.39323 0.73937 0.0
C651 C 0.13608 0.51869 0.84324 0.0
C652 C 0.14154 0.49449 0.86828 0.0
C653 C 0.10215 0.45655 0.76939 0.0
C654 C 0.09597 0.48056 0.74723 0.0
N655 N 0.1153 0.53588 0.73927 0.0
N656 N 0.13846 0.44426 0.83622 0.0
C657 C 0.11625 0.51224 0.77556 0.0
C658 C 0.12746 0.46463 0.82489 0.0
N659 N 0.14751 0.54677 0.88688 0.0
N660 N 0.08283 0.42586 0.74171 0.0
H661 H 0.15759 0.44992 0.87492 0.0
H662 H 0.13076 0.42332 0.80166 0.0
H663 H 0.06499 0.41916 0.69835 0.0
H664 H 0.08379 0.40694 0.76411 0.0
H665 H 0.1414 0.56375 0.87436 0.0
H666 H 0.16062 0.55193 0.93956 0.0
H667 H 0.13146 0.55966 0.75334 0.0
H668 H 0.10045 0.53115 0.68967 0.0
C669 C 0.61083 0.11068 0.90357 0.0
C670 C 0.64025 0.11308 0.89264 0.0
C671 C 0.61637 0.07234 0.7834 0.0
C672 C 0.5872 0.07062 0.79366 0.0
N673 N 0.5586 0.09406 0.84804 0.0
N674 N 0.67272 0.10138 0.81287 0.0
C675 C 0.58516 0.09179 0.8489 0.0
C676 C 0.64356 0.09549 0.82953 0.0
N677 N 0.60705 0.12541 0.96795 0.0
N678 N 0.61783 0.05104 0.73209 0.0
H679 H 0.69301 0.11787 0.84591 0.0
H680 H 0.67703 0.09178 0.76314 0.0
H681 H 0.59861 0.03461 0.69581 0.0
H682 H 0.63752 0.04851 0.72835 0.0
H683 H 0.58535 0.12169 0.98327 0.0
H684 H 0.6252 0.13924 0.00995 0.0
H685 H 0.55649 0.11097 0.88217 0.0
H686 H 0.53983 0.08108 0.80692 0.0
C687 C 0.55567 0.62391 0.91602 0.0
C688 C 0.53494 0.63528 0.89743 0.0
C689 C 0.50989 0.59517 0.78893 0.0
C690 C 0.53374 0.58704 0.80036 0.0
N691 N 0.57862 0.59211 0.87404 0.0
N692 N 0.49276 0.63307 0.81689 0.0
C693 C 0.55627 0.60073 0.86434 0.0
C694 C 0.51167 0.62079 0.83519 0.0
N695 N 0.57459 0.63541 0.98309 0.0
N696 N 0.48599 0.57906 0.73257 0.0
H697 H 0.49261 0.65127 0.8506 0.0
H698 H 0.47844 0.62666 0.76592 0.0
H699 H 0.48498 0.56229 0.6914 0.0
H700 H 0.46584 0.58092 0.72898 0.0
H701 H 0.58866 0.62661 0.00356 0.0
H702 H 0.57435 0.65237 0.02174 0.0
H703 H 0.5978 0.60344 0.9145 0.0
H704 H 0.57857 0.57404 0.83909 0.0
C705 C 0.50331 0.12617 0.49164 0.0
C706 C 0.48002 0.12057 0.43245 0.0
C707 C 0.45097 0.06493 0.45898 0.0
C708 C 0.47594 0.06943 0.51182 0.0
N709 N 0.5276 0.10474 0.57455 0.0
N710 N 0.43626 0.08295 0.34603 0.0
C711 C 0.50286 0.10008 0.52603 0.0
C712 C 0.45527 0.08942 0.41186 0.0
N713 N 0.52468 0.1565 0.51866 0.0
N714 N 0.42255 0.03796 0.45561 0.0
H715 H 0.43919 0.1001 0.30865 0.0
H716 H 0.41986 0.06002 0.32441 0.0
H717 H 0.41757 0.01963 0.49053 0.0
H718 H 0.40289 0.03518 0.42346 0.0
H719 H 0.53998 0.1622 0.56758 0.0
H720 H 0.52528 0.17623 0.49665 0.0
H721 H 0.5493 0.12533 0.57815 0.0
H722 H 0.52727 0.08772 0.60874 0.0
C723 C 0.39785 0.53459 0.43342 0.0
C724 C 0.36783 0.50704 0.42775 0.0
C725 C 0.38824 0.48019 0.50703 0.0
C726 C 0.41809 0.50763 0.51145 0.0
N727 N 0.44901 0.56361 0.50303 0.0
N728 N 0.33239 0.45744 0.47728 0.0
C729 C 0.42192 0.53584 0.48329 0.0
C730 C 0.36231 0.48104 0.47077 0.0
N731 N 0.40412 0.55851 0.3871 0.0
N732 N 0.38502 0.45296 0.5334 0.0
H733 H 0.31292 0.4577 0.4522 0.0
H734 H 0.32678 0.43927 0.51328 0.0
H735 H 0.40345 0.45195 0.56226 0.0
H736 H 0.36463 0.43116 0.52327 0.0
H737 H 0.42646 0.57767 0.38395 0.0
H738 H 0.38774 0.558 0.34633 0.0
H739 H 0.45227 0.58552 0.48952 0.0
H740 H 0.46696 0.56485 0.53981 0.0
C741 C 0.8879 0.38375 0.37908 0.0
C742 C 0.89881 0.373 0.31676 0.0
C743 C 0.9521 0.4165 0.35053 0.0
C744 C 0.94208 0.42345 0.42025 0.0
N745 N 0.90079 0.41274 0.50457 0.0
N746 N 0.94089 0.37844 0.24146 0.0
C747 C 0.90995 0.40732 0.43487 0.0
C748 C 0.93079 0.38946 0.30125 0.0
N749 N 0.85648 0.37114 0.38536 0.0
N750 N 0.98197 0.43587 0.33201 0.0
H751 H 0.92568 0.35904 0.20355 0.0
H752 H 0.96437 0.3873 0.23189 0.0
H753 H -0.00254 0.45615 0.36701 0.0
H754 H 0.99039 0.43366 0.27948 0.0
H755 H 0.84713 0.38039 0.42475 0.0
H756 H 0.8396 0.35312 0.34671 0.0
H757 H 0.87846 0.39875 0.52253 0.0
H758 H 0.916 0.43013 0.54692 0.0
C759 C 0.59055 0.95038 0.25733 0.0
C760 C 0.5658 0.92521 0.21023 0.0
C761 C 0.52869 0.94097 0.25395 0.0
C762 C 0.55299 0.96464 0.30541 0.0
N763 N 0.60826 -0.00035 0.33485 0.0
N764 N 0.51518 0.90367 0.14173 0.0
C765 C 0.58445 0.97213 0.29909 0.0
C766 C 0.53618 0.9232 0.20063 0.0
N767 N 0.61902 0.95211 0.26714 0.0
N768 N 0.49835 0.93371 0.25992 0.0
H769 H 0.52051 0.89054 0.10206 0.0
H770 H 0.49407 0.90294 0.12782 0.0
H771 H 0.49183 0.94624 0.29793 0.0
H772 H 0.47939 0.91409 0.23012 0.0
H773 H 0.6366 0.96774 0.30833 0.0
H774 H 0.62454 0.93664 0.23746 0.0
H775 H 0.63177 0.00778 0.32674 0.0
H776 H 0.6042 0.01579 0.36669 0.0
C777 C 0.6591 0.54086 0.38555 0.0
C778 C 0.64722 0.51344 0.33329 0.0
C779 C 0.59839 0.49093 0.39861 0.0
C780 C 0.60759 0.52096 0.43728 0.0
N781 N 0.64644 0.57701 0.45216 0.0
N782 N 0.60238 0.46373 0.28328 0.0
C783 C 0.63802 0.54664 0.42753 0.0
C784 C 0.61603 0.48863 0.33828 0.0
N785 N 0.69056 0.56133 0.39599 0.0
N786 N 0.57297 0.46451 0.41991 0.0
H787 H 0.6136 0.46192 0.23538 0.0
H788 H 0.57877 0.44664 0.28102 0.0
H789 H 0.56061 0.46516 0.46661 0.0
H790 H 0.56665 0.44177 0.39738 0.0
H791 H 0.70042 0.58026 0.43828 0.0
H792 H 0.70686 0.5572 0.36894 0.0
H793 H 0.66733 0.59633 0.43888 0.0
H794 H 0.6316 0.58364 0.47749 0.0
C795 C 0.07549 0.64424 0.28367 0.0
C796 C 0.10529 0.66364 0.32391 0.0
C797 C 0.08575 0.63845 0.44214 0.0
C798 C 0.05533 0.62026 0.40366 0.0
N799 N 0.0197 0.61074 0.29326 0.0
N800 N 0.13594 0.68611 0.44544 0.0
C801 C 0.04967 0.62478 0.32602 0.0
C802 C 0.10936 0.66313 0.40466 0.0
N803 N 0.07214 0.64318 0.20498 0.0
N804 N 0.09306 0.63065 0.51147 0.0
H805 H 0.15365 0.70485 0.41952 0.0
H806 H 0.13874 0.68834 0.50563 0.0
H807 H 0.07748 0.6112 0.53933 0.0
H808 H 0.11582 0.64138 0.53716 0.0
H809 H 0.05178 0.62687 0.1721 0.0
H810 H 0.09046 0.65711 0.17191 0.0
H811 H 0.01391 0.61547 0.23914 0.0
H812 H 0.00035 0.59664 0.32342 0.0
loop_
_geom_bond_atom_site_label_1
_geom_bond_atom_site_label_2
_geom_bond_distance
_geom_bond_site_symmetry_2
_ccdc_geom_bond_type
H0 C19 0.949 . S
H1 C20 0.950 . S
H2 C22 0.950 . S
H3 C23 0.950 . S
H4 C25 0.950 . S
H5 C28 0.950 . S
H6 C29 0.950 . S
H7 C31 0.942 1_556 S
H8 C32 0.949 . S
H9 C34 0.949 . S
H10 C35 0.950 1_556 S
H11 C37 0.950 . S
H12 C38 0.950 . S
H13 C40 0.950 . S
H14 C43 0.950 . S
H15 C44 0.950 . S
H16 C46 0.951 . S
H17 C47 0.949 . S
C18 C19 1.376 . S
C18 C23 1.386 . S
C18 C24 1.483 . S
C19 H0 0.949 . S
C19 C18 1.376 . S
C19 C20 1.397 . S
C20 H1 0.950 . S
C20 C19 1.397 . S
C20 C21 1.391 . S
C21 C20 1.391 . S
C21 C22 1.405 . S
C22 H2 0.950 . S
C22 C21 1.405 . S
C22 C23 1.367 . S
C23 H3 0.950 . S
C23 C18 1.386 . S
C23 C22 1.367 . S
C24 C18 1.483 . S
C24 C25 1.382 . S
C24 C26 1.403 . S
C25 H4 0.950 . S
C25 C24 1.382 . S
C25 C41 1.411 . S
C26 C24 1.403 . S
C26 C27 1.489 . S
C26 C40 1.411 . S
C27 C26 1.489 . S
C27 C28 1.383 . S
C27 C32 1.382 . S
C28 H5 0.950 . S
C28 C27 1.383 . S
C28 C29 1.395 . S
C29 H6 0.950 . S
C29 C28 1.395 . S
C29 C30 1.288 . S
C30 C29 1.288 . S
C30 C31 1.393 . S
C31 H7 0.942 1_554 S
C31 C30 1.393 . S
C31 C32 1.399 . S
C32 H8 0.949 . S
C32 C27 1.382 . S
C32 C31 1.399 . S
C33 C34 1.376 . S
C33 C38 1.386 . S
C33 C39 1.483 . S
C34 H9 0.949 . S
C34 C33 1.376 . S
C34 C35 1.397 . S
C35 H10 0.950 1_554 S
C35 C34 1.397 . S
C35 C36 1.391 1_554 S
C36 C35 1.391 1_556 S
C36 C37 1.405 1_556 S
C37 H11 0.950 . S
C37 C36 1.405 1_554 S
C37 C38 1.367 . S
C38 H12 0.950 . S
C38 C33 1.386 . S
C38 C37 1.367 . S
C39 C33 1.483 . S
C39 C40 1.382 . S
C39 C41 1.403 . S
C40 H13 0.950 . S
C40 C26 1.411 . S
C40 C39 1.382 . S
C41 C25 1.411 . S
C41 C39 1.403 . S
C41 C42 1.489 . S
C42 C41 1.489 . S
C42 C43 1.383 . S
C42 C47 1.382 . S
C43 H14 0.950 . S
C43 C42 1.383 . S
C43 C44 1.395 . S
C44 H15 0.950 . S
C44 C43 1.395 . S
C44 C45 1.288 . S
C45 C44 1.288 . S
C45 C46 1.392 . S
C46 H16 0.951 . S
C46 C45 1.392 . S
C46 C47 1.392 . S
C47 H17 0.949 . S
C47 C42 1.382 . S
C47 C46 1.392 . S
H48 C67 0.949 . S
H49 C68 0.950 . S
H50 C70 0.950 . S
H51 C71 0.950 . S
H52 C73 0.950 . S
H53 C76 0.950 . S
H54 C77 0.950 . S
H55 C79 0.951 . S
H56 C80 0.949 . S
H57 C82 0.949 . S
H58 C83 0.950 . S
H59 C85 0.950 . S
H60 C86 0.950 . S
H61 C88 0.950 . S
H62 C91 0.950 . S
H63 C92 0.950 . S
H64 C94 0.951 . S
H65 C95 0.949 . S
C66 C67 1.376 . S
C66 C71 1.386 . S
C66 C72 1.483 . S
C67 H48 0.949 . S
C67 C66 1.376 . S
C67 C68 1.397 1_554 S
C68 H49 0.950 . S
C68 C67 1.397 1_556 S
C68 C69 1.391 . S
C69 C68 1.391 . S
C69 C70 1.405 1_556 S
C70 H50 0.950 . S
C70 C69 1.405 1_554 S
C70 C71 1.367 . S
C71 H51 0.950 . S
C71 C66 1.386 . S
C71 C70 1.367 . S
C72 C66 1.483 . S
C72 C73 1.382 . S
C72 C74 1.403 . S
C73 H52 0.950 . S
C73 C72 1.382 . S
C73 C89 1.411 . S
C74 C72 1.403 . S
C74 C75 1.489 . S
C74 C88 1.411 . S
C75 C74 1.489 . S
C75 C76 1.383 . S
C75 C80 1.382 . S
C76 H53 0.950 . S
C76 C75 1.383 . S
C76 C77 1.395 . S
C77 H54 0.950 . S
C77 C76 1.395 . S
C77 C78 1.288 . S
C78 C77 1.288 . S
C78 C79 1.392 . S
C79 H55 0.951 . S
C79 C78 1.392 . S
C79 C80 1.392 . S
C80 H56 0.949 . S
C80 C75 1.382 . S
C80 C79 1.392 . S
C81 C82 1.376 . S
C81 C86 1.386 . S
C81 C87 1.483 . S
C82 H57 0.949 . S
C82 C81 1.376 . S
C82 C83 1.397 . S
C83 H58 0.950 . S
C83 C82 1.397 . S
C83 C84 1.391 . S
C84 C83 1.391 . S
C84 C85 1.405 . S
C85 H59 0.950 . S
C85 C84 1.405 . S
C85 C86 1.367 . S
C86 H60 0.950 . S
C86 C81 1.386 . S
C86 C85 1.367 . S
C87 C81 1.483 . S
C87 C88 1.382 . S
C87 C89 1.403 . S
C88 H61 0.950 . S
C88 C74 1.411 . S
C88 C87 1.382 . S
C89 C73 1.411 . S
C89 C87 1.403 . S
C89 C90 1.489 . S
C90 C89 1.489 . S
C90 C91 1.383 . S
C90 C95 1.382 1_554 S
C91 H62 0.950 . S
C91 C90 1.383 . S
C91 C92 1.395 . S
C92 H63 0.950 . S
C92 C91 1.395 . S
C92 C93 1.288 1_554 S
C93 C92 1.288 1_556 S
C93 C94 1.392 . S
C94 H64 0.951 . S
C94 C93 1.392 . S
C94 C95 1.392 . S
C95 H65 0.949 . S
C95 C90 1.382 1_556 S
C95 C94 1.392 . S
H96 C115 0.949 . S
H97 C116 0.950 . S
H98 C118 0.950 . S
H99 C119 0.950 . S
H100 C121 0.950 . S
H101 C124 0.950 . S
H102 C125 0.950 . S
H103 C127 0.951 . S
H104 C128 0.949 . S
H105 C130 0.949 . S
H106 C131 0.950 . S
H107 C133 0.950 . S
H108 C134 0.950 . S
H109 C136 0.950 . S
H110 C139 0.950 . S
H111 C140 0.950 . S
H112 C142 0.951 . S
H113 C143 0.949 . S
C114 C115 1.376 . S
C114 C119 1.386 . S
C114 C120 1.483 . S
C115 H96 0.949 . S
C115 C114 1.376 . S
C115 C116 1.397 . S
C116 H97 0.950 . S
C116 C115 1.397 . S
C116 C117 1.391 . S
C117 C116 1.391 . S
C117 C118 1.405 . S
C118 H98 0.950 . S
C118 C117 1.405 . S
C118 C119 1.367 . S
C119 H99 0.950 . S
C119 C114 1.386 . S
C119 C118 1.367 . S
C120 C114 1.483 . S
C120 C121 1.382 . S
C120 C122 1.403 1_556 S
C121 H100 0.950 . S
C121 C120 1.382 . S
C121 C137 1.411 . S
C122 C120 1.403 1_554 S
C122 C123 1.489 . S
C122 C136 1.411 . S
C123 C122 1.489 . S
C123 C124 1.383 . S
C123 C128 1.382 . S
C124 H101 0.950 . S
C124 C123 1.383 . S
C124 C125 1.395 . S
C125 H102 0.950 . S
C125 C124 1.395 . S
C125 C126 1.288 . S
C126 C125 1.288 . S
C126 C127 1.392 . S
C127 H103 0.951 . S
C127 C126 1.392 . S
C127 C128 1.392 . S
C128 H104 0.949 . S
C128 C123 1.382 . S
C128 C127 1.392 . S
C129 C130 1.376 . S
C129 C134 1.386 . S
C129 C135 1.483 . S
C130 H105 0.949 . S
C130 C129 1.376 . S
C130 C131 1.397 . S
C131 H106 0.950 . S
C131 C130 1.397 . S
C131 C132 1.391 . S
C132 C131 1.391 . S
C132 C133 1.405 . S
C133 H107 0.950 . S
C133 C132 1.405 . S
C133 C134 1.367 . S
C134 H108 0.950 . S
C134 C129 1.386 . S
C134 C133 1.367 . S
C135 C129 1.483 . S
C135 C136 1.382 . S
C135 C137 1.403 1_554 S
C136 H109 0.950 . S
C136 C122 1.411 . S
C136 C135 1.382 . S
C137 C121 1.411 . S
C137 C135 1.403 1_556 S
C137 C138 1.489 . S
C138 C137 1.489 . S
C138 C139 1.383 . S
C138 C143 1.382 . S
C139 H110 0.950 . S
C139 C138 1.383 . S
C139 C140 1.395 . S
C140 H111 0.950 . S
C140 C139 1.395 . S
C140 C141 1.288 . S
C141 C140 1.288 . S
C141 C142 1.392 . S
C142 H112 0.951 . S
C142 C141 1.392 . S
C142 C143 1.392 . S
C143 H113 0.949 . S
C143 C138 1.382 . S
C143 C142 1.392 . S
H144 C163 0.949 . S
H145 C164 0.950 . S
H146 C166 0.950 . S
H147 C167 0.950 . S
H148 C169 0.950 . S
H149 C172 0.950 1_554 S
H150 C173 0.950 . S
H151 C175 0.951 . S
H152 C176 0.949 . S
H153 C178 0.949 . S
H154 C179 0.950 . S
H155 C181 0.950 . S
H156 C182 0.950 1_554 S
H157 C184 0.950 . S
H158 C187 0.950 . S
H159 C188 0.950 . S
H160 C190 0.951 . S
H161 C191 0.949 . S
C162 C163 1.376 . S
C162 C167 1.386 . S
C162 C168 1.483 . S
C163 H144 0.949 . S
C163 C162 1.376 . S
C163 C164 1.397 . S
C164 H145 0.950 . S
C164 C163 1.397 . S
C164 C165 1.391 . S
C165 C164 1.391 . S
C165 C166 1.405 . S
C166 H146 0.950 . S
C166 C165 1.405 . S
C166 C167 1.367 . S
C167 H147 0.950 . S
C167 C162 1.386 . S
C167 C166 1.367 . S
C168 C162 1.483 . S
C168 C169 1.382 . S
C168 C170 1.403 . S
C169 H148 0.950 . S
C169 C168 1.382 . S
C169 C185 1.411 . S
C170 C168 1.403 . S
C170 C171 1.489 1_554 S
C170 C184 1.411 1_554 S
C171 C170 1.489 1_556 S
C171 C172 1.383 . S
C171 C176 1.382 . S
C172 H149 0.950 1_556 S
C172 C171 1.383 . S
C172 C173 1.395 . S
C173 H150 0.950 . S
C173 C172 1.395 . S
C173 C174 1.288 . S
C174 C173 1.288 . S
C174 C175 1.392 . S
C175 H151 0.951 . S
C175 C174 1.392 . S
C175 C176 1.392 . S
C176 H152 0.949 . S
C176 C171 1.382 . S
C176 C175 1.392 . S
C177 C178 1.376 . S
C177 C182 1.386 . S
C177 C183 1.483 1_556 S
C178 H153 0.949 . S
C178 C177 1.376 . S
C178 C179 1.397 . S
C179 H154 0.950 . S
C179 C178 1.397 . S
C179 C180 1.391 . S
C180 C179 1.391 . S
C180 C181 1.405 . S
C181 H155 0.950 . S
C181 C180 1.405 . S
C181 C182 1.367 . S
C182 H156 0.950 1_556 S
C182 C177 1.386 . S
C182 C181 1.367 . S
C183 C177 1.483 1_554 S
C183 C184 1.382 1_554 S
C183 C185 1.403 . S
C184 H157 0.950 . S
C184 C170 1.411 1_556 S
C184 C183 1.382 1_556 S
C185 C169 1.411 . S
C185 C183 1.403 . S
C185 C186 1.489 . S
C186 C185 1.489 . S
C186 C187 1.383 . S
C186 C191 1.382 . S
C187 H158 0.950 . S
C187 C186 1.383 . S
C187 C188 1.395 . S
C188 H159 0.950 . S
C188 C187 1.395 . S
C188 C189 1.288 . S
C189 C188 1.288 . S
C189 C190 1.392 . S
C190 H160 0.951 . S
C190 C189 1.392 . S
C190 C191 1.392 . S
C191 H161 0.949 . S
C191 C186 1.382 . S
C191 C190 1.392 . S
H192 C211 0.949 . S
H193 C212 0.950 . S
H194 C214 0.950 . S
H195 C215 0.950 . S
H196 C217 0.950 1_556 S
H197 C220 0.950 . S
H198 C221 0.950 . S
H199 C223 0.951 . S
H200 C224 0.949 . S
H201 C226 0.949 . S
H202 C227 0.950 . S
H203 C229 0.950 . S
H204 C230 0.950 . S
H205 C232 0.950 . S
H206 C235 0.950 . S
H207 C236 0.950 . S
H208 C238 0.951 . S
H209 C239 0.949 . S
C210 C211 1.376 1_554 S
C210 C215 1.386 . S
C210 C216 1.483 . S
C211 H192 0.949 . S
C211 C210 1.376 1_556 S
C211 C212 1.397 . S
C212 H193 0.950 . S
C212 C211 1.397 . S
C212 C213 1.391 . S
C213 C212 1.391 . S
C213 C214 1.405 . S
C214 H194 0.950 . S
C214 C213 1.405 . S
C214 C215 1.367 1_556 S
C215 H195 0.950 . S
C215 C210 1.386 . S
C215 C214 1.367 1_554 S
C216 C210 1.483 . S
C216 C217 1.382 . S
C216 C218 1.403 . S
C217 H196 0.950 1_554 S
C217 C216 1.382 . S
C217 C233 1.411 . S
C218 C216 1.403 . S
C218 C219 1.489 . S
C218 C232 1.411 . S
C219 C218 1.489 . S
C219 C220 1.383 . S
C219 C224 1.382 . S
C220 H197 0.950 . S
C220 C219 1.383 . S
C220 C221 1.395 . S
C221 H198 0.950 . S
C221 C220 1.395 . S
C221 C222 1.288 . S
C222 C221 1.288 . S
C222 C223 1.392 . S
C223 H199 0.951 . S
C223 C222 1.392 . S
C223 C224 1.392 . S
C224 H200 0.949 . S
C224 C219 1.382 . S
C224 C223 1.392 . S
C225 C226 1.376 . S
C225 C230 1.386 . S
C225 C231 1.483 . S
C226 H201 0.949 . S
C226 C225 1.376 . S
C226 C227 1.397 . S
C227 H202 0.950 . S
C227 C226 1.397 . S
C227 C228 1.391 . S
C228 C227 1.391 . S
C228 C229 1.405 . S
C229 H203 0.950 . S
C229 C228 1.405 . S
C229 C230 1.367 . S
C230 H204 0.950 . S
C230 C225 1.386 . S
C230 C229 1.367 . S
C231 C225 1.483 . S
C231 C232 1.382 . S
C231 C233 1.403 . S
C232 H205 0.950 . S
C232 C218 1.411 . S
C232 C231 1.382 . S
C233 C217 1.411 . S
C233 C231 1.403 . S
C233 C234 1.489 . S
C234 C233 1.489 . S
C234 C235 1.383 . S
C234 C239 1.382 1_554 S
C235 H206 0.950 . S
C235 C234 1.383 . S
C235 C236 1.395 1_554 S
C236 H207 0.950 . S
C236 C235 1.395 1_556 S
C236 C237 1.288 . S
C237 C236 1.288 . S
C237 C238 1.392 . S
C238 H208 0.951 . S
C238 C237 1.392 . S
C238 C239 1.392 . S
C239 H209 0.949 . S
C239 C234 1.382 1_556 S
C239 C238 1.392 . S
H240 C259 0.949 . S
H241 C260 0.950 . S
H242 C262 0.950 . S
H243 C263 0.950 . S
H244 C265 0.950 . S
H245 C268 0.950 . S
H246 C269 0.950 . S
H247 C271 0.951 . S
H248 C272 0.949 . S
H249 C274 0.949 . S
H250 C275 0.950 . S
H251 C277 0.950 . S
H252 C278 0.950 . S
H253 C280 0.950 . S
H254 C283 0.950 . S
H255 C284 0.950 . S
H256 C286 0.951 . S
H257 C287 0.949 . S
C258 C259 1.376 . S
C258 C263 1.386 . S
C258 C264 1.483 . S
C259 H240 0.949 . S
C259 C258 1.376 . S
C259 C260 1.397 . S
C260 H241 0.950 . S
C260 C259 1.397 . S
C260 C261 1.391 . S
C261 C260 1.391 . S
C261 C262 1.405 . S
C262 H242 0.950 . S
C262 C261 1.405 . S
C262 C263 1.367 . S
C263 H243 0.950 . S
C263 C258 1.386 . S
C263 C262 1.367 . S
C264 C258 1.483 . S
C264 C265 1.382 . S
C264 C266 1.403 . S
C265 H244 0.950 . S
C265 C264 1.382 . S
C265 C281 1.411 . S
C266 C264 1.403 . S
C266 C267 1.489 . S
C266 C280 1.411 . S
C267 C266 1.489 . S
C267 C268 1.383 . S
C267 C272 1.382 . S
C268 H245 0.950 . S
C268 C267 1.383 . S
C268 C269 1.395 . S
C269 H246 0.950 . S
C269 C268 1.395 . S
C269 C270 1.288 . S
C270 C269 1.288 . S
C270 C271 1.392 . S
C271 H247 0.951 . S
C271 C270 1.392 . S
C271 C272 1.392 . S
C272 H248 0.949 . S
C272 C267 1.382 . S
C272 C271 1.392 . S
C273 C274 1.376 . S
C273 C278 1.386 . S
C273 C279 1.483 . S
C274 H249 0.949 . S
C274 C273 1.376 . S
C274 C275 1.397 . S
C275 H250 0.950 . S
C275 C274 1.397 . S
C275 C276 1.391 . S
C276 C275 1.391 . S
C276 C277 1.405 . S
C277 H251 0.950 . S
C277 C276 1.405 . S
C277 C278 1.367 . S
C278 H252 0.950 . S
C278 C273 1.386 . S
C278 C277 1.367 . S
C279 C273 1.483 . S
C279 C280 1.382 . S
C279 C281 1.403 . S
C280 H253 0.950 . S
C280 C266 1.411 . S
C280 C279 1.382 . S
C281 C265 1.411 . S
C281 C279 1.403 . S
C281 C282 1.489 . S
C282 C281 1.489 . S
C282 C283 1.383 . S
C282 C287 1.382 . S
C283 H254 0.950 . S
C283 C282 1.383 . S
C283 C284 1.395 . S
C284 H255 0.950 . S
C284 C283 1.395 . S
C284 C285 1.288 . S
C285 C284 1.288 . S
C285 C286 1.392 . S
C286 H256 0.951 . S
C286 C285 1.392 . S
C286 C287 1.392 . S
C287 H257 0.949 . S
C287 C282 1.382 . S
C287 C286 1.392 . S
C288 O300 1.241 . S
C288 O301 1.280 . S
C289 O302 1.277 . S
C289 O303 1.245 . S
C290 O314 1.247 . S
C290 O316 1.289 . S
Mg291 O292 1.926 . S
Mg291 O301 1.984 . S
Mg291 O303 1.988 1_655 S
Mg291 O304 2.061 . S
O292 Mg291 1.926 . S
O292 Mg293 1.986 1_655 S
O292 Mg294 1.917 1_655 S
Mg293 O292 1.986 1_455 S
Mg293 O300 2.042 1_455 S
Mg293 O302 2.041 . S
Mg293 O308 2.038 1_455 S
Mg293 O316 2.238 . S
Mg294 O292 1.917 1_455 S
Mg294 O295 1.917 . S
Mg294 O305 2.106 1_455 S
Mg294 O307 2.079 1_455 S
Mg294 O316 2.106 . S
Mg294 O317 2.079 . S
O295 Mg294 1.917 . S
O295 Mg296 1.926 . S
O295 Mg297 1.986 . S
Mg296 O295 1.926 . S
Mg296 O310 1.984 . S
Mg296 O313 1.988 1_455 S
Mg296 O314 2.061 . S
Mg297 O295 1.986 . S
Mg297 O305 2.238 1_455 S
Mg297 O309 2.042 . S
Mg297 O311 2.041 1_455 S
Mg297 O318 2.038 . S
C298 O304 1.247 . S
C298 O305 1.289 . S
C299 O317 1.245 . S
C299 O318 1.274 . S
O300 C288 1.241 . S
O300 Mg293 2.042 1_655 S
O301 C288 1.280 . S
O301 Mg291 1.984 . S
O302 C289 1.277 . S
O302 Mg293 2.041 . S
O303 C289 1.245 . S
O303 Mg291 1.988 1_455 S
O304 Mg291 2.061 . S
O304 C298 1.247 . S
O305 Mg294 2.106 1_655 S
O305 Mg297 2.238 1_655 S
O305 C298 1.289 . S
C306 O307 1.245 . S
C306 O308 1.274 . S
O307 Mg294 2.079 1_655 S
O307 C306 1.245 . S
O308 Mg293 2.038 1_655 S
O308 C306 1.274 . S
O309 Mg297 2.042 . S
O309 C312 1.241 . S
O310 Mg296 1.984 . S
O310 C312 1.280 . S
O311 Mg297 2.041 1_655 S
O311 C315 1.277 . S
C312 O309 1.241 . S
C312 O310 1.280 . S
O313 Mg296 1.988 1_655 S
O313 C315 1.245 . S
O314 C290 1.247 . S
O314 Mg296 2.061 . S
C315 O311 1.277 . S
C315 O313 1.245 . S
O316 C290 1.289 . S
O316 Mg293 2.238 . S
O316 Mg294 2.106 . S
O317 Mg294 2.079 . S
O317 C299 1.245 . S
O318 Mg297 2.038 . S
O318 C299 1.274 . S
C319 O331 1.241 . S
C319 O332 1.280 . S
C320 O333 1.277 . S
C320 O334 1.245 . S
C321 O345 1.247 . S
C321 O347 1.289 . S
Mg322 O323 1.926 . S
Mg322 O332 1.984 . S
Mg322 O334 1.988 1_545 S
Mg322 O335 2.061 . S
O323 Mg322 1.926 . S
O323 Mg324 1.986 . S
O323 Mg325 1.917 . S
Mg324 O323 1.986 . S
Mg324 O331 2.042 . S
Mg324 O333 2.041 1_545 S
Mg324 O339 2.038 . S
Mg324 O347 2.238 1_545 S
Mg325 O323 1.917 . S
Mg325 O326 1.917 1_545 S
Mg325 O336 2.106 . S
Mg325 O338 2.079 . S
Mg325 O347 2.106 1_545 S
Mg325 O348 2.079 1_545 S
O326 Mg325 1.917 1_565 S
O326 Mg327 1.926 . S
O326 Mg328 1.986 1_565 S
Mg327 O326 1.926 . S
Mg327 O341 1.984 . S
Mg327 O344 1.988 1_565 S
Mg327 O345 2.061 . S
Mg328 O326 1.986 1_545 S
Mg328 O336 2.238 . S
Mg328 O340 2.042 1_545 S
Mg328 O342 2.041 . S
Mg328 O349 2.038 1_545 S
C329 O335 1.247 . S
C329 O336 1.289 . S
C330 O348 1.245 . S
C330 O349 1.274 . S
O331 C319 1.241 . S
O331 Mg324 2.042 . S
O332 C319 1.280 . S
O332 Mg322 1.984 . S
O333 C320 1.277 . S
O333 Mg324 2.041 1_565 S
O334 C320 1.245 . S
O334 Mg322 1.988 1_565 S
O335 Mg322 2.061 . S
O335 C329 1.247 . S
O336 Mg325 2.106 . S
O336 Mg328 2.238 . S
O336 C329 1.289 . S
C337 O338 1.245 . S
C337 O339 1.274 . S
O338 Mg325 2.079 . S
O338 C337 1.245 . S
O339 Mg324 2.038 . S
O339 C337 1.274 . S
O340 Mg328 2.042 1_565 S
O340 C343 1.241 . S
O341 Mg327 1.984 . S
O341 C343 1.280 . S
O342 Mg328 2.041 . S
O342 C346 1.277 . S
C343 O340 1.241 . S
C343 O341 1.280 . S
O344 Mg327 1.988 1_545 S
O344 C346 1.245 . S
O345 C321 1.247 . S
O345 Mg327 2.061 . S
C346 O342 1.277 . S
C346 O344 1.245 . S
O347 C321 1.289 . S
O347 Mg324 2.238 1_565 S
O347 Mg325 2.106 1_565 S
O348 Mg325 2.079 1_565 S
O348 C330 1.245 . S
O349 Mg328 2.038 1_565 S
O349 C330 1.274 . S
C350 O362 1.241 . S
C350 O363 1.280 . S
C351 O364 1.277 . S
C351 O365 1.245 . S
C352 O376 1.247 . S
C352 O378 1.289 . S
Mg353 O354 1.926 . S
Mg353 O363 1.984 . S
Mg353 O365 1.988 . S
Mg353 O366 2.061 . S
O354 Mg353 1.926 . S
O354 Mg355 1.986 . S
O354 Mg356 1.917 . S
Mg355 O354 1.986 . S
Mg355 O362 2.042 . S
Mg355 O364 2.041 . S
Mg355 O370 2.038 . S
Mg355 O378 2.238 . S
Mg356 O354 1.917 . S
Mg356 O357 1.917 . S
Mg356 O367 2.106 . S
Mg356 O369 2.079 . S
Mg356 O378 2.106 . S
Mg356 O379 2.079 . S
O357 Mg356 1.917 . S
O357 Mg358 1.926 . S
O357 Mg359 1.986 . S
Mg358 O357 1.926 . S
Mg358 O372 1.984 . S
Mg358 O375 1.988 . S
Mg358 O376 2.061 . S
Mg359 O357 1.986 . S
Mg359 O367 2.238 . S
Mg359 O371 2.042 . S
Mg359 O373 2.041 . S
Mg359 O380 2.038 . S
C360 O366 1.247 . S
C360 O367 1.289 . S
C361 O379 1.245 . S
C361 O380 1.274 . S
O362 C350 1.241 . S
O362 Mg355 2.042 . S
O363 C350 1.280 . S
O363 Mg353 1.984 . S
O364 C351 1.277 . S
O364 Mg355 2.041 . S
O365 C351 1.245 . S
O365 Mg353 1.988 . S
O366 Mg353 2.061 . S
O366 C360 1.247 . S
O367 Mg356 2.106 . S
O367 Mg359 2.238 . S
O367 C360 1.289 . S
C368 O369 1.245 . S
C368 O370 1.274 . S
O369 Mg356 2.079 . S
O369 C368 1.245 . S
O370 Mg355 2.038 . S
O370 C368 1.274 . S
O371 Mg359 2.042 . S
O371 C374 1.241 . S
O372 Mg358 1.984 . S
O372 C374 1.280 . S
O373 Mg359 2.041 . S
O373 C377 1.277 . S
C374 O371 1.241 . S
C374 O372 1.280 . S
O375 Mg358 1.988 . S
O375 C377 1.245 . S
O376 C352 1.247 . S
O376 Mg358 2.061 . S
C377 O373 1.277 . S
C377 O375 1.245 . S
O378 C352 1.289 . S
O378 Mg355 2.238 . S
O378 Mg356 2.106 . S
O379 Mg356 2.079 . S
O379 C361 1.245 . S
O380 Mg359 2.038 . S
O380 C361 1.274 . S
C381 C382 1.363 . S
C381 C387 1.379 . S
C381 N389 1.356 . S
C382 C381 1.363 . S
C382 C388 1.363 . S
C383 C384 1.363 . S
C383 C388 1.379 . S
C383 N390 1.356 . S
C384 C383 1.363 . S
C384 C387 1.363 . S
N385 C387 1.356 . S
N385 H397 0.984 . S
N385 H398 0.985 . S
N386 C388 1.356 . S
N386 H391 0.984 . S
N386 H392 0.985 . S
C387 C381 1.379 . S
C387 C384 1.363 . S
C387 N385 1.356 . S
C388 C382 1.363 . S
C388 C383 1.379 . S
C388 N386 1.356 . S
N389 C381 1.356 . S
N389 H395 0.984 . S
N389 H396 0.984 . S
N390 C383 1.356 . S
N390 H393 0.984 . S
N390 H394 0.985 . S
H391 N386 0.984 . S
H392 N386 0.985 . S
H393 N390 0.984 . S
H394 N390 0.985 . S
H395 N389 0.984 . S
H396 N389 0.984 . S
H397 N385 0.984 . S
H398 N385 0.985 . S
C399 C400 1.363 . S
C399 C405 1.379 . S
C399 N407 1.356 . S
C400 C399 1.363 . S
C400 C406 1.363 . S
C401 C402 1.363 . S
C401 C406 1.379 . S
C401 N408 1.356 . S
C402 C401 1.363 . S
C402 C405 1.363 . S
N403 C405 1.356 . S
N403 H415 0.984 . S
N403 H416 0.985 . S
N404 C406 1.356 . S
N404 H409 0.984 . S
N404 H410 0.985 . S
C405 C399 1.379 . S
C405 C402 1.363 . S
C405 N403 1.356 . S
C406 C400 1.363 . S
C406 C401 1.379 . S
C406 N404 1.356 . S
N407 C399 1.356 . S
N407 H413 0.984 . S
N407 H414 0.984 . S
N408 C401 1.356 . S
N408 H411 0.984 . S
N408 H412 0.985 . S
H409 N404 0.984 . S
H410 N404 0.985 . S
H411 N408 0.984 . S
H412 N408 0.985 . S
H413 N407 0.984 . S
H414 N407 0.984 . S
H415 N403 0.984 . S
H416 N403 0.985 . S
C417 C418 1.363 . S
C417 C423 1.379 . S
C417 N425 1.356 . S
C418 C417 1.363 . S
C418 C424 1.363 . S
C419 C420 1.363 . S
C419 C424 1.379 . S
C419 N426 1.356 . S
C420 C419 1.363 . S
C420 C423 1.363 . S
N421 C423 1.356 . S
N421 H433 0.984 . S
N421 H434 0.985 . S
N422 C424 1.356 . S
N422 H427 0.984 . S
N422 H428 0.985 . S
C423 C417 1.379 . S
C423 C420 1.363 . S
C423 N421 1.356 . S
C424 C418 1.363 . S
C424 C419 1.379 . S
C424 N422 1.356 . S
N425 C417 1.356 . S
N425 H431 0.984 . S
N425 H432 0.984 . S
N426 C419 1.356 . S
N426 H429 0.984 . S
N426 H430 0.985 . S
H427 N422 0.984 . S
H428 N422 0.985 . S
H429 N426 0.984 . S
H430 N426 0.985 . S
H431 N425 0.984 . S
H432 N425 0.984 . S
H433 N421 0.984 . S
H434 N421 0.985 . S
C435 C436 1.363 . S
C435 C441 1.379 . S
C435 N443 1.356 . S
C436 C435 1.363 . S
C436 C442 1.363 . S
C437 C438 1.363 . S
C437 C442 1.379 . S
C437 N444 1.356 . S
C438 C437 1.363 . S
C438 C441 1.363 . S
N439 C441 1.356 . S
N439 H451 0.984 . S
N439 H452 0.985 . S
N440 C442 1.356 . S
N440 H445 0.984 . S
N440 H446 0.985 . S
C441 C435 1.379 . S
C441 C438 1.363 . S
C441 N439 1.356 . S
C442 C436 1.363 . S
C442 C437 1.379 . S
C442 N440 1.356 . S
N443 C435 1.356 . S
N443 H449 0.984 . S
N443 H450 0.984 . S
N444 C437 1.356 . S
N444 H447 0.984 . S
N444 H448 0.985 . S
H445 N440 0.984 . S
H446 N440 0.985 . S
H447 N444 0.984 . S
H448 N444 0.985 . S
H449 N443 0.984 . S
H450 N443 0.984 . S
H451 N439 0.984 . S
H452 N439 0.985 . S
C453 C454 1.363 . S
C453 C459 1.379 . S
C453 N461 1.356 . S
C454 C453 1.363 . S
C454 C460 1.363 . S
C455 C456 1.363 . S
C455 C460 1.379 . S
C455 N462 1.356 . S
C456 C455 1.363 . S
C456 C459 1.363 . S
N457 C459 1.356 . S
N457 H469 0.984 . S
N457 H470 0.985 . S
N458 C460 1.356 . S
N458 H463 0.984 . S
N458 H464 0.985 . S
C459 C453 1.379 . S
C459 C456 1.363 . S
C459 N457 1.356 . S
C460 C454 1.363 . S
C460 C455 1.379 . S
C460 N458 1.356 . S
N461 C453 1.356 . S
N461 H467 0.984 . S
N461 H468 0.984 . S
N462 C455 1.356 . S
N462 H465 0.984 . S
N462 H466 0.985 . S
H463 N458 0.984 . S
H464 N458 0.985 . S
H465 N462 0.984 . S
H466 N462 0.985 . S
H467 N461 0.984 . S
H468 N461 0.984 . S
H469 N457 0.984 . S
H470 N457 0.985 . S
C471 C472 1.363 . S
C471 C477 1.379 . S
C471 N479 1.356 . S
C472 C471 1.363 . S
C472 C478 1.363 . S
C473 C474 1.363 . S
C473 C478 1.379 . S
C473 N480 1.356 . S
C474 C473 1.363 . S
C474 C477 1.363 . S
N475 C477 1.356 . S
N475 H487 0.984 . S
N475 H488 0.985 . S
N476 C478 1.356 . S
N476 H481 0.984 . S
N476 H482 0.985 . S
C477 C471 1.379 . S
C477 C474 1.363 . S
C477 N475 1.356 . S
C478 C472 1.363 . S
C478 C473 1.379 . S
C478 N476 1.356 . S
N479 C471 1.356 . S
N479 H485 0.984 . S
N479 H486 0.984 . S
N480 C473 1.356 . S
N480 H483 0.984 . S
N480 H484 0.985 . S
H481 N476 0.984 . S
H482 N476 0.985 . S
H483 N480 0.984 . S
H484 N480 0.985 . S
H485 N479 0.984 . S
H486 N479 0.984 . S
H487 N475 0.984 . S
H488 N475 0.985 . S
C489 C490 1.363 . S
C489 C495 1.379 . S
C489 N497 1.356 . S
C490 C489 1.363 . S
C490 C496 1.363 . S
C491 C492 1.363 . S
C491 C496 1.379 . S
C491 N498 1.356 . S
C492 C491 1.363 . S
C492 C495 1.363 . S
N493 C495 1.356 . S
N493 H505 0.984 . S
N493 H506 0.985 . S
N494 C496 1.356 . S
N494 H499 0.984 . S
N494 H500 0.985 . S
C495 C489 1.379 . S
C495 C492 1.363 . S
C495 N493 1.356 . S
C496 C490 1.363 . S
C496 C491 1.379 . S
C496 N494 1.356 . S
N497 C489 1.356 . S
N497 H503 0.984 . S
N497 H504 0.984 . S
N498 C491 1.356 . S
N498 H501 0.984 . S
N498 H502 0.985 . S
H499 N494 0.984 . S
H500 N494 0.985 . S
H501 N498 0.984 . S
H502 N498 0.985 . S
H503 N497 0.984 . S
H504 N497 0.984 . S
H505 N493 0.984 . S
H506 N493 0.985 . S
C507 C508 1.363 . S
C507 C513 1.379 . S
C507 N515 1.356 . S
C508 C507 1.363 . S
C508 C514 1.363 . S
C509 C510 1.363 . S
C509 C514 1.379 . S
C509 N516 1.356 . S
C510 C509 1.363 . S
C510 C513 1.363 . S
N511 C513 1.356 . S
N511 H523 0.984 . S
N511 H524 0.985 . S
N512 C514 1.356 . S
N512 H517 0.984 . S
N512 H518 0.985 . S
C513 C507 1.379 . S
C513 C510 1.363 . S
C513 N511 1.356 . S
C514 C508 1.363 . S
C514 C509 1.379 . S
C514 N512 1.356 . S
N515 C507 1.356 . S
N515 H521 0.984 . S
N515 H522 0.984 . S
N516 C509 1.356 . S
N516 H519 0.984 . S
N516 H520 0.985 . S
H517 N512 0.984 . S
H518 N512 0.985 . S
H519 N516 0.984 . S
H520 N516 0.985 . S
H521 N515 0.984 . S
H522 N515 0.984 . S
H523 N511 0.984 . S
H524 N511 0.985 . S
C525 C526 1.363 . S
C525 C531 1.379 . S
C525 N533 1.356 . S
C526 C525 1.363 . S
C526 C532 1.363 . S
C527 C528 1.363 . S
C527 C532 1.379 . S
C527 N534 1.356 . S
C528 C527 1.363 . S
C528 C531 1.363 . S
N529 C531 1.356 . S
N529 H541 0.984 . S
N529 H542 0.985 . S
N530 C532 1.356 . S
N530 H535 0.984 . S
N530 H536 0.985 . S
C531 C525 1.379 . S
C531 C528 1.363 . S
C531 N529 1.356 . S
C532 C526 1.363 . S
C532 C527 1.379 . S
C532 N530 1.356 . S
N533 C525 1.356 . S
N533 H539 0.984 . S
N533 H540 0.984 . S
N534 C527 1.356 . S
N534 H537 0.984 . S
N534 H538 0.985 . S
H535 N530 0.984 . S
H536 N530 0.985 . S
H537 N534 0.984 . S
H538 N534 0.985 . S
H539 N533 0.984 . S
H540 N533 0.984 . S
H541 N529 0.984 . S
H542 N529 0.985 . S
C543 C544 1.363 1_554 S
C543 C549 1.379 1_554 S
C543 N551 1.356 . S
C544 C543 1.363 1_556 S
C544 C550 1.363 . S
C545 C546 1.363 . S
C545 C550 1.379 . S
C545 N552 1.356 . S
C546 C545 1.363 . S
C546 C549 1.363 . S
N547 C549 1.356 . S
N547 H559 0.984 1_556 S
N547 H560 0.985 . S
N548 C550 1.356 . S
N548 H553 0.984 . S
N548 H554 0.985 . S
C549 C543 1.379 1_556 S
C549 C546 1.363 . S
C549 N547 1.356 . S
C550 C544 1.363 . S
C550 C545 1.379 . S
C550 N548 1.356 . S
N551 C543 1.356 . S
N551 H557 0.984 . S
N551 H558 0.984 . S
N552 C545 1.356 . S
N552 H555 0.984 . S
N552 H556 0.985 . S
H553 N548 0.984 . S
H554 N548 0.985 . S
H555 N552 0.984 . S
H556 N552 0.985 . S
H557 N551 0.984 . S
H558 N551 0.984 . S
H559 N547 0.984 1_554 S
H560 N547 0.985 . S
C561 C562 1.363 . S
C561 C567 1.379 . S
C561 N569 1.356 . S
C562 C561 1.363 . S
C562 C568 1.363 . S
C563 C564 1.363 . S
C563 C568 1.379 . S
C563 N570 1.356 . S
C564 C563 1.363 . S
C564 C567 1.363 . S
N565 C567 1.356 . S
N565 H577 0.984 . S
N565 H578 0.985 . S
N566 C568 1.356 . S
N566 H571 0.984 . S
N566 H572 0.985 . S
C567 C561 1.379 . S
C567 C564 1.363 . S
C567 N565 1.356 . S
C568 C562 1.363 . S
C568 C563 1.379 . S
C568 N566 1.356 . S
N569 C561 1.356 . S
N569 H575 0.984 . S
N569 H576 0.984 1_556 S
N570 C563 1.356 . S
N570 H573 0.984 . S
N570 H574 0.985 . S
H571 N566 0.984 . S
H572 N566 0.985 . S
H573 N570 0.984 . S
H574 N570 0.985 . S
H575 N569 0.984 . S
H576 N569 0.984 1_554 S
H577 N565 0.984 . S
H578 N565 0.985 . S
C579 C580 1.363 . S
C579 C585 1.379 . S
C579 N587 1.356 . S
C580 C579 1.363 . S
C580 C586 1.363 . S
C581 C582 1.363 . S
C581 C586 1.379 . S
C581 N588 1.356 . S
C582 C581 1.363 . S
C582 C585 1.363 . S
N583 C585 1.356 . S
N583 H595 0.984 . S
N583 H596 0.985 . S
N584 C586 1.356 1_554 S
N584 H589 0.984 . S
N584 H590 0.985 . S
C585 C579 1.379 . S
C585 C582 1.363 . S
C585 N583 1.356 . S
C586 C580 1.363 . S
C586 C581 1.379 . S
C586 N584 1.356 1_556 S
N587 C579 1.356 . S
N587 H593 0.984 . S
N587 H594 0.984 . S
N588 C581 1.356 . S
N588 H591 0.984 . S
N588 H592 0.985 . S
H589 N584 0.984 . S
H590 N584 0.985 . S
H591 N588 0.984 . S
H592 N588 0.985 . S
H593 N587 0.984 . S
H594 N587 0.984 . S
H595 N583 0.984 . S
H596 N583 0.985 . S
C597 C598 1.363 . S
C597 C603 1.379 . S
C597 N605 1.356 . S
C598 C597 1.363 . S
C598 C604 1.363 . S
C599 C600 1.363 . S
C599 C604 1.379 . S
C599 N606 1.356 . S
C600 C599 1.363 . S
C600 C603 1.363 . S
N601 C603 1.356 . S
N601 H613 0.984 . S
N601 H614 0.985 . S
N602 C604 1.356 . S
N602 H607 0.984 . S
N602 H608 0.985 . S
C603 C597 1.379 . S
C603 C600 1.363 . S
C603 N601 1.356 . S
C604 C598 1.363 . S
C604 C599 1.379 . S
C604 N602 1.356 . S
N605 C597 1.356 . S
N605 H611 0.984 . S
N605 H612 0.984 . S
N606 C599 1.356 . S
N606 H609 0.984 . S
N606 H610 0.985 . S
H607 N602 0.984 . S
H608 N602 0.985 . S
H609 N606 0.984 . S
H610 N606 0.985 . S
H611 N605 0.984 . S
H612 N605 0.984 . S
H613 N601 0.984 . S
H614 N601 0.985 . S
C615 C616 1.363 . S
C615 C621 1.379 . S
C615 N623 1.356 . S
C616 C615 1.363 . S
C616 C622 1.363 . S
C617 C618 1.363 . S
C617 C622 1.379 . S
C617 N624 1.356 . S
C618 C617 1.363 . S
C618 C621 1.363 . S
N619 C621 1.356 . S
N619 H631 0.984 . S
N619 H632 0.985 . S
N620 C622 1.356 . S
N620 H625 0.984 . S
N620 H626 0.985 1_556 S
C621 C615 1.379 . S
C621 C618 1.363 . S
C621 N619 1.356 . S
C622 C616 1.363 . S
C622 C617 1.379 . S
C622 N620 1.356 . S
N623 C615 1.356 . S
N623 H629 0.984 . S
N623 H630 0.984 . S
N624 C617 1.356 . S
N624 H627 0.984 . S
N624 H628 0.985 . S
H625 N620 0.984 . S
H626 N620 0.985 1_554 S
H627 N624 0.984 . S
H628 N624 0.985 . S
H629 N623 0.984 . S
H630 N623 0.984 . S
H631 N619 0.984 . S
H632 N619 0.985 . S
C633 C634 1.363 . S
C633 C639 1.379 . S
C633 N641 1.356 . S
C634 C633 1.363 . S
C634 C640 1.363 . S
C635 C636 1.363 . S
C635 C640 1.379 . S
C635 N642 1.356 . S
C636 C635 1.363 . S
C636 C639 1.363 . S
N637 C639 1.356 . S
N637 H649 0.984 . S
N637 H650 0.985 . S
N638 C640 1.356 1_554 S
N638 H643 0.984 . S
N638 H644 0.985 . S
C639 C633 1.379 . S
C639 C636 1.363 . S
C639 N637 1.356 . S
C640 C634 1.363 . S
C640 C635 1.379 . S
C640 N638 1.356 1_556 S
N641 C633 1.356 . S
N641 H647 0.984 . S
N641 H648 0.984 1_556 S
N642 C635 1.356 . S
N642 H645 0.984 . S
N642 H646 0.985 . S
H643 N638 0.984 . S
H644 N638 0.985 . S
H645 N642 0.984 . S
H646 N642 0.985 . S
H647 N641 0.984 . S
H648 N641 0.984 1_554 S
H649 N637 0.984 . S
H650 N637 0.985 . S
C651 C652 1.363 . S
C651 C657 1.379 . S
C651 N659 1.356 1_556 S
C652 C651 1.363 . S
C652 C658 1.363 . S
C653 C654 1.363 . S
C653 C658 1.379 . S
C653 N660 1.356 . S
C654 C653 1.363 . S
C654 C657 1.363 . S
N655 C657 1.356 . S
N655 H667 0.984 . S
N655 H668 0.985 . S
N656 C658 1.356 . S
N656 H661 0.984 . S
N656 H662 0.985 . S
C657 C651 1.379 . S
C657 C654 1.363 . S
C657 N655 1.356 . S
C658 C652 1.363 . S
C658 C653 1.379 . S
C658 N656 1.356 . S
N659 C651 1.356 1_554 S
N659 H665 0.984 . S
N659 H666 0.984 . S
N660 C653 1.356 . S
N660 H663 0.984 . S
N660 H664 0.985 . S
H661 N656 0.984 . S
H662 N656 0.985 . S
H663 N660 0.984 . S
H664 N660 0.985 . S
H665 N659 0.984 . S
H666 N659 0.984 . S
H667 N655 0.984 . S
H668 N655 0.985 . S
C669 C670 1.363 . S
C669 C675 1.379 . S
C669 N677 1.356 . S
C670 C669 1.363 . S
C670 C676 1.363 . S
C671 C672 1.363 . S
C671 C676 1.379 . S
C671 N678 1.356 . S
C672 C671 1.363 . S
C672 C675 1.363 . S
N673 C675 1.356 . S
N673 H685 0.984 . S
N673 H686 0.985 . S
N674 C676 1.356 . S
N674 H679 0.984 . S
N674 H680 0.985 . S
C675 C669 1.379 . S
C675 C672 1.363 . S
C675 N673 1.356 . S
C676 C670 1.363 . S
C676 C671 1.379 . S
C676 N674 1.356 . S
N677 C669 1.356 . S
N677 H683 0.984 . S
N677 H684 0.984 . S
N678 C671 1.356 . S
N678 H681 0.984 . S
N678 H682 0.985 . S
H679 N674 0.984 . S
H680 N674 0.985 . S
H681 N678 0.984 . S
H682 N678 0.985 . S
H683 N677 0.984 . S
H684 N677 0.984 . S
H685 N673 0.984 . S
H686 N673 0.985 . S
C687 C688 1.363 . S
C687 C693 1.379 . S
C687 N695 1.356 . S
C688 C687 1.363 . S
C688 C694 1.363 . S
C689 C690 1.363 . S
C689 C694 1.379 . S
C689 N696 1.356 . S
C690 C689 1.363 . S
C690 C693 1.363 . S
N691 C693 1.356 . S
N691 H703 0.984 . S
N691 H704 0.985 . S
N692 C694 1.356 . S
N692 H697 0.984 . S
N692 H698 0.985 . S
C693 C687 1.379 . S
C693 C690 1.363 . S
C693 N691 1.356 . S
C694 C688 1.363 . S
C694 C689 1.379 . S
C694 N692 1.356 . S
N695 C687 1.356 . S
N695 H701 0.984 . S
N695 H702 0.984 . S
N696 C689 1.356 . S
N696 H699 0.984 . S
N696 H700 0.985 . S
H697 N692 0.984 . S
H698 N692 0.985 . S
H699 N696 0.984 . S
H700 N696 0.985 . S
H701 N695 0.984 . S
H702 N695 0.984 . S
H703 N691 0.984 . S
H704 N691 0.985 . S
C705 C706 1.363 . S
C705 C711 1.379 . S
C705 N713 1.356 . S
C706 C705 1.363 . S
C706 C712 1.363 . S
C707 C708 1.363 . S
C707 C712 1.379 . S
C707 N714 1.356 . S
C708 C707 1.363 . S
C708 C711 1.363 . S
N709 C711 1.356 . S
N709 H721 0.984 . S
N709 H722 0.985 . S
N710 C712 1.356 . S
N710 H715 0.984 . S
N710 H716 0.985 . S
C711 C705 1.379 . S
C711 C708 1.363 . S
C711 N709 1.356 . S
C712 C706 1.363 . S
C712 C707 1.379 . S
C712 N710 1.356 . S
N713 C705 1.356 . S
N713 H719 0.984 . S
N713 H720 0.984 . S
N714 C707 1.356 . S
N714 H717 0.984 . S
N714 H718 0.985 . S
H715 N710 0.984 . S
H716 N710 0.985 . S
H717 N714 0.984 . S
H718 N714 0.985 . S
H719 N713 0.984 . S
H720 N713 0.984 . S
H721 N709 0.984 . S
H722 N709 0.985 . S
C723 C724 1.363 . S
C723 C729 1.379 . S
C723 N731 1.356 . S
C724 C723 1.363 . S
C724 C730 1.363 . S
C725 C726 1.363 . S
C725 C730 1.379 . S
C725 N732 1.356 . S
C726 C725 1.363 . S
C726 C729 1.363 . S
N727 C729 1.356 . S
N727 H739 0.984 . S
N727 H740 0.985 . S
N728 C730 1.356 . S
N728 H733 0.984 . S
N728 H734 0.985 . S
C729 C723 1.379 . S
C729 C726 1.363 . S
C729 N727 1.356 . S
C730 C724 1.363 . S
C730 C725 1.379 . S
C730 N728 1.356 . S
N731 C723 1.356 . S
N731 H737 0.984 . S
N731 H738 0.984 . S
N732 C725 1.356 . S
N732 H735 0.984 . S
N732 H736 0.985 . S
H733 N728 0.984 . S
H734 N728 0.985 . S
H735 N732 0.984 . S
H736 N732 0.985 . S
H737 N731 0.984 . S
H738 N731 0.984 . S
H739 N727 0.984 . S
H740 N727 0.985 . S
C741 C742 1.363 . S
C741 C747 1.379 . S
C741 N749 1.356 . S
C742 C741 1.363 . S
C742 C748 1.363 . S
C743 C744 1.363 . S
C743 C748 1.379 . S
C743 N750 1.356 . S
C744 C743 1.363 . S
C744 C747 1.363 . S
N745 C747 1.356 . S
N745 H757 0.984 . S
N745 H758 0.985 . S
N746 C748 1.356 . S
N746 H751 0.984 . S
N746 H752 0.985 . S
C747 C741 1.379 . S
C747 C744 1.363 . S
C747 N745 1.356 . S
C748 C742 1.363 . S
C748 C743 1.379 . S
C748 N746 1.356 . S
N749 C741 1.356 . S
N749 H755 0.984 . S
N749 H756 0.984 . S
N750 C743 1.356 . S
N750 H753 0.984 . S
N750 H754 0.985 . S
H751 N746 0.984 . S
H752 N746 0.985 . S
H753 N750 0.984 . S
H754 N750 0.985 . S
H755 N749 0.984 . S
H756 N749 0.984 . S
H757 N745 0.984 . S
H758 N745 0.985 . S
C759 C760 1.363 . S
C759 C765 1.379 . S
C759 N767 1.356 . S
C760 C759 1.363 . S
C760 C766 1.363 . S
C761 C762 1.363 . S
C761 C766 1.379 . S
C761 N768 1.356 . S
C762 C761 1.363 . S
C762 C765 1.363 . S
N763 C765 1.356 . S
N763 H775 0.984 . S
N763 H776 0.985 . S
N764 C766 1.356 . S
N764 H769 0.984 . S
N764 H770 0.985 . S
C765 C759 1.379 . S
C765 C762 1.363 . S
C765 N763 1.356 . S
C766 C760 1.363 . S
C766 C761 1.379 . S
C766 N764 1.356 . S
N767 C759 1.356 . S
N767 H773 0.984 . S
N767 H774 0.984 . S
N768 C761 1.356 . S
N768 H771 0.984 . S
N768 H772 0.985 . S
H769 N764 0.984 . S
H770 N764 0.985 . S
H771 N768 0.984 . S
H772 N768 0.985 . S
H773 N767 0.984 . S
H774 N767 0.984 . S
H775 N763 0.984 . S
H776 N763 0.985 . S
C777 C778 1.363 . S
C777 C783 1.379 . S
C777 N785 1.356 . S
C778 C777 1.363 . S
C778 C784 1.363 . S
C779 C780 1.363 . S
C779 C784 1.379 . S
C779 N786 1.356 . S
C780 C779 1.363 . S
C780 C783 1.363 . S
N781 C783 1.356 . S
N781 H793 0.984 . S
N781 H794 0.985 . S
N782 C784 1.356 . S
N782 H787 0.984 . S
N782 H788 0.985 . S
C783 C777 1.379 . S
C783 C780 1.363 . S
C783 N781 1.356 . S
C784 C778 1.363 . S
C784 C779 1.379 . S
C784 N782 1.356 . S
N785 C777 1.356 . S
N785 H791 0.984 . S
N785 H792 0.984 . S
N786 C779 1.356 . S
N786 H789 0.984 . S
N786 H790 0.985 . S
H787 N782 0.984 . S
H788 N782 0.985 . S
H789 N786 0.984 . S
H790 N786 0.985 . S
H791 N785 0.984 . S
H792 N785 0.984 . S
H793 N781 0.984 . S
H794 N781 0.985 . S
C795 C796 1.363 . S
C795 C801 1.379 . S
C795 N803 1.356 . S
C796 C795 1.363 . S
C796 C802 1.363 . S
C797 C798 1.363 . S
C797 C802 1.379 . S
C797 N804 1.356 . S
C798 C797 1.363 . S
C798 C801 1.363 . S
N799 C801 1.356 . S
N799 H811 0.984 . S
N799 H812 0.985 . S
N800 C802 1.356 . S
N800 H805 0.984 . S
N800 H806 0.985 . S
C801 C795 1.379 . S
C801 C798 1.363 . S
C801 N799 1.356 . S
C802 C796 1.363 . S
C802 C797 1.379 . S
C802 N800 1.356 . S
N803 C795 1.356 . S
N803 H809 0.984 . S
N803 H810 0.984 . S
N804 C797 1.356 . S
N804 H807 0.984 . S
N804 H808 0.985 . S
H805 N800 0.984 . S
H806 N800 0.985 . S
H807 N804 0.984 . S
H808 N804 0.985 . S
H809 N803 0.984 . S
H810 N803 0.984 . S
H811 N799 0.984 . S
H812 N799 0.985 . S
C382 C45 1.942 . S
C384 C299 1.850 . S
C400 C84 1.625 . S
C402 C346 1.586 . S
C420 C350 1.740 . S
C418 C126 1.786 . S
C438 C315 1.498 . S
C436 C165 1.545 . S
C454 C222 1.805 . S
C456 C330 1.765 . S
C474 C352 1.170 . S
C472 C276 1.231 . S
C492 C321 1.522 . S
C490 C141 1.626 . S
C508 C180 1.537 . S
C510 C361 1.491 . S
C528 C290 1.423 . S
C526 C237 1.536 . S
C544 C261 1.472 1_556 S
C546 C319 1.420 . S
C562 C30 1.864 1_556 S
C564 C377 1.828 . S
C582 C288 1.508 . S
C580 C69 1.555 . S
C600 C306 1.850 . S
C598 C174 1.942 . S
C618 C320 1.586 . S
C616 C213 1.625 . S
C636 C374 1.740 . S
C634 C285 1.786 1_556 S
C654 C289 1.499 . S
C652 C36 1.545 . S
C672 C337 1.765 . S
C670 C93 1.805 . S
C688 C117 1.231 . S
C690 C360 1.170 . S
C708 C329 1.522 . S
C706 C270 1.626 . S
C726 C368 1.491 . S
C724 C21 1.537 . S
C744 C298 1.423 . S
C742 C78 1.536 . S
C762 C343 1.419 . S
C760 C132 1.472 . S
C778 C189 1.864 . S
C780 C351 1.828 . S
C796 C228 1.555 . S
C798 C312 1.509 . S
