# Generated by pormake.
# Topology apo, (3,6)-cn, num edge types: 1
# Building blocks:
#     Node 0, Type 0, BuildingBlock: VETTIZ_charged_linker_0, # of connection points: 3
#     Node 1, Type 0, BuildingBlock: VETTIZ_charged_linker_0, # of connection points: 3
#     Node 2, Type 0, BuildingBlock: VETTIZ_charged_linker_0, # of connection points: 3
#     Node 3, Type 0, BuildingBlock: VETTIZ_charged_linker_0, # of connection points: 3
#     Node 4, Type 0, BuildingBlock: VETTIZ_charged_linker_0, # of connection points: 3
#     Node 5, Type 0, BuildingBlock: VETTIZ_charged_linker_0, # of connection points: 3
#     Node 6, Type 0, BuildingBlock: VETTIZ_charged_linker_0, # of connection points: 3
#     Node 7, Type 0, BuildingBlock: VETTIZ_charged_linker_0, # of connection points: 3
#     Node 8, Type 1, BuildingBlock: KUMBUR_clean_sbu_1, # of connection points: 6
#     Node 9, Type 1, BuildingBlock: KUMBUR_clean_sbu_1, # of connection points: 6
#     Node 10, Type 1, BuildingBlock: KUMBUR_clean_sbu_1, # of connection points: 6
#     Node 11, Type 1, BuildingBlock: KUMBUR_clean_sbu_1, # of connection points: 6
#     Edge 12, Type (0, 1), BuildingBlock: TEMPAE_clean_linker_10, # of connection points: 2
#     Edge 13, Type (0, 1), BuildingBlock: TEMPAE_clean_linker_10, # of connection points: 2
#     Edge 14, Type (0, 1), BuildingBlock: TEMPAE_clean_linker_10, # of connection points: 2
#     Edge 15, Type (0, 1), BuildingBlock: TEMPAE_clean_linker_10, # of connection points: 2
#     Edge 16, Type (0, 1), BuildingBlock: TEMPAE_clean_linker_10, # of connection points: 2
#     Edge 17, Type (0, 1), BuildingBlock: TEMPAE_clean_linker_10, # of connection points: 2
#     Edge 18, Type (0, 1), BuildingBlock: TEMPAE_clean_linker_10, # of connection points: 2
#     Edge 19, Type (0, 1), BuildingBlock: TEMPAE_clean_linker_10, # of connection points: 2
#     Edge 20, Type (0, 1), BuildingBlock: TEMPAE_clean_linker_10, # of connection points: 2
#     Edge 21, Type (0, 1), BuildingBlock: TEMPAE_clean_linker_10, # of connection points: 2
#     Edge 22, Type (0, 1), BuildingBlock: TEMPAE_clean_linker_10, # of connection points: 2
#     Edge 23, Type (0, 1), BuildingBlock: TEMPAE_clean_linker_10, # of connection points: 2
#     Edge 24, Type (0, 1), BuildingBlock: TEMPAE_clean_linker_10, # of connection points: 2
#     Edge 25, Type (0, 1), BuildingBlock: TEMPAE_clean_linker_10, # of connection points: 2
#     Edge 26, Type (0, 1), BuildingBlock: TEMPAE_clean_linker_10, # of connection points: 2
#     Edge 27, Type (0, 1), BuildingBlock: TEMPAE_clean_linker_10, # of connection points: 2
#     Edge 28, Type (0, 1), BuildingBlock: TEMPAE_clean_linker_10, # of connection points: 2
#     Edge 29, Type (0, 1), BuildingBlock: TEMPAE_clean_linker_10, # of connection points: 2
#     Edge 30, Type (0, 1), BuildingBlock: TEMPAE_clean_linker_10, # of connection points: 2
#     Edge 31, Type (0, 1), BuildingBlock: TEMPAE_clean_linker_10, # of connection points: 2
#     Edge 32, Type (0, 1), BuildingBlock: TEMPAE_clean_linker_10, # of connection points: 2
#     Edge 33, Type (0, 1), BuildingBlock: TEMPAE_clean_linker_10, # of connection points: 2
#     Edge 34, Type (0, 1), BuildingBlock: TEMPAE_clean_linker_10, # of connection points: 2
#     Edge 35, Type (0, 1), BuildingBlock: TEMPAE_clean_linker_10, # of connection points: 2
# Relax obj value: 0.010
# Max RMSD: 0.095
# Mean RMSD: 0.076
data_MOF--net-apo--node1-KUMBUR_clean_sbu_1--node2-VETTIZ_charged_linker_0--edge1-TEMPAE_clean_linker_10
_symmetry_space_group_name_H-M    P1
_symmetry_Int_Tables_number       1
_symmetry_cell_setting            triclinic
loop_
_symmetry_equiv_pos_as_xyz
'x, y, z'
_cell_length_a     29.256181
_cell_length_b     52.531905
_cell_length_c     64.253869
_cell_angle_alpha  89.975388
_cell_angle_beta   89.99931
_cell_angle_gamma 90.442698
loop_
_atom_site_label
_atom_site_type_symbol
_atom_site_fract_x
_atom_site_fract_y
_atom_site_fract_z
_atom_type_partial_charge
C0 C 0.30439 0.36327 0.48367 0.0
C1 C 0.32854 0.3816 0.49544 0.0
C2 C 0.34133 0.40473 0.48585 0.0
C3 C 0.30747 0.39088 0.45338 0.0
C4 C 0.29409 0.36835 0.46276 0.0
C5 C 0.26865 0.35109 0.44795 0.0
H6 H 0.18059 0.3316 0.35132 0.0
C7 C 0.2923 0.39019 0.4315 0.0
C8 C 0.26922 0.36698 0.42818 0.0
H9 H 0.17782 0.27977 0.40342 0.0
H10 H 0.21896 0.31055 0.42461 0.0
H11 H 0.16399 0.38555 0.37761 0.0
H12 H 0.28078 0.34455 0.35553 0.0
H13 H 0.29778 0.37661 0.35553 0.0
H14 H 0.25106 0.36643 0.33904 0.0
H15 H 0.17793 0.38114 0.35063 0.0
H16 H 0.20164 0.40724 0.36533 0.0
C17 C 0.21958 0.34715 0.45641 0.0
C18 C 0.29621 0.32622 0.44548 0.0
C19 C 0.33588 0.46285 0.38289 0.0
C20 C 0.33037 0.46625 0.36137 0.0
C21 C 0.30505 0.44824 0.34987 0.0
C22 C 0.28573 0.42689 0.35963 0.0
C23 C 0.2925 0.42325 0.38108 0.0
C24 C 0.31715 0.44108 0.39235 0.0
C25 C 0.32272 0.43337 0.41474 0.0
C26 C 0.298 0.40781 0.41493 0.0
C27 C 0.27994 0.40217 0.39525 0.0
C28 C 0.29811 0.45333 0.42842 0.0
C29 C 0.37458 0.43067 0.4192 0.0
C30 C 0.18831 0.32714 0.36741 0.0
C31 C 0.17555 0.30355 0.37592 0.0
C32 C 0.18724 0.29797 0.39668 0.0
C33 C 0.21108 0.31585 0.40889 0.0
C34 C 0.22402 0.33939 0.40011 0.0
C35 C 0.21289 0.34455 0.37963 0.0
C36 C 0.23232 0.36956 0.37232 0.0
C37 C 0.25565 0.37902 0.39194 0.0
C38 C 0.2505 0.3614 0.40825 0.0
C39 C 0.19209 0.38689 0.36598 0.0
C40 C 0.26707 0.36422 0.3546 0.0
H41 H 0.34186 0.42739 0.45868 0.0
H42 H 0.29414 0.34525 0.49048 0.0
H43 H 0.33361 0.33018 0.44603 0.0
H44 H 0.29055 0.31687 0.4303 0.0
H45 H 0.28804 0.31253 0.45814 0.0
H46 H 0.20572 0.36537 0.46246 0.0
H47 H 0.21913 0.33313 0.46936 0.0
H48 H 0.19514 0.34086 0.44436 0.0
H49 H 0.35566 0.47636 0.39198 0.0
H50 H 0.30041 0.45069 0.33326 0.0
H51 H 0.26678 0.41388 0.35004 0.0
H52 H 0.26691 0.46052 0.42052 0.0
H53 H 0.32069 0.46996 0.43164 0.0
H54 H 0.28557 0.44539 0.44331 0.0
H55 H 0.39281 0.42308 0.40536 0.0
H56 H 0.38213 0.41698 0.43174 0.0
H57 H 0.39033 0.44936 0.42314 0.0
H58 H 0.35888 0.41947 0.4946 0.0
C59 C 0.33102 0.40943 0.46497 0.0
C60 C 0.31439 0.17469 0.86634 0.0
C61 C 0.32392 0.19903 0.87429 0.0
C62 C 0.31136 0.20471 0.89496 0.0
C63 C 0.27992 0.16209 0.89921 0.0
C64 C 0.29222 0.15673 0.87891 0.0
C65 C 0.27711 0.13066 0.87217 0.0
H66 H 0.15404 0.02412 0.89084 0.0
C67 C 0.25604 0.13937 0.90768 0.0
C68 C 0.2541 0.12102 0.89178 0.0
H69 H 0.22726 0.04527 0.83481 0.0
H70 H 0.25615 0.08286 0.85164 0.0
H71 H 0.23658 0.03593 0.92045 0.0
H72 H 0.11911 0.08027 0.90425 0.0
H73 H 0.12606 0.08076 0.93153 0.0
H74 H 0.1172 0.05087 0.91855 0.0
H75 H 0.18378 0.03248 0.93433 0.0
H76 H 0.22671 0.05554 0.94207 0.0
C77 C 0.32025 0.11501 0.86681 0.0
C78 C 0.24276 0.13379 0.85395 0.0
C79 C 0.19821 0.1379 0.98257 0.0
C80 C 0.17609 0.11893 0.99453 0.0
C81 C 0.1666 0.09515 0.98517 0.0
C82 C 0.17757 0.09053 0.96437 0.0
C83 C 0.19886 0.10969 0.95261 0.0
C84 C 0.20958 0.13278 0.96176 0.0
C85 C 0.23401 0.15041 0.94685 0.0
C86 C 0.23637 0.13392 0.92743 0.0
C87 C 0.21503 0.11024 0.9309 0.0
C88 C 0.28207 0.15632 0.95575 0.0
C89 C 0.20392 0.17418 0.94349 0.0
C90 C 0.17662 0.0367 0.88223 0.0
C91 C 0.18727 0.03189 0.86121 0.0
C92 C 0.21714 0.04881 0.85075 0.0
C93 C 0.23421 0.07063 0.86061 0.0
C94 C 0.22163 0.07573 0.88126 0.0
C95 C 0.19435 0.05857 0.89192 0.0
C96 C 0.18662 0.06659 0.91413 0.0
C97 C 0.21172 0.09206 0.9146 0.0
C98 C 0.23178 0.09733 0.89526 0.0
C99 C 0.20921 0.04664 0.9286 0.0
C100 C 0.13454 0.06971 0.91748 0.0
H101 H 0.28086 0.19177 0.92308 0.0
H102 H 0.32279 0.16992 0.85039 0.0
H103 H 0.22219 0.15136 0.85586 0.0
H104 H 0.21713 0.1183 0.85311 0.0
H105 H 0.26081 0.13519 0.83878 0.0
H106 H 0.34927 0.12027 0.87719 0.0
H107 H 0.33137 0.11848 0.85052 0.0
H108 H 0.31531 0.09434 0.86922 0.0
H109 H 0.20616 0.15638 0.98914 0.0
H110 H 0.15112 0.0798 0.99402 0.0
H111 H 0.16903 0.07213 0.95826 0.0
H112 H 0.29752 0.13884 0.96244 0.0
H113 H 0.28026 0.17078 0.96833 0.0
H114 H 0.30649 0.16298 0.94382 0.0
H115 H 0.167 0.16891 0.94353 0.0
H116 H 0.20971 0.18337 0.92826 0.0
H117 H 0.20954 0.18841 0.95604 0.0
H118 H 0.31854 0.22336 0.90142 0.0
C119 C 0.28962 0.18633 0.9075 0.0
C120 C 0.80204 0.1385 0.52756 0.0
C121 C 0.82194 0.11968 0.51479 0.0
C122 C 0.83285 0.09599 0.52386 0.0
C123 C 0.80574 0.11032 0.5575 0.0
C124 C 0.79376 0.1333 0.54868 0.0
C125 C 0.77154 0.15079 0.56427 0.0
H126 H 0.69035 0.16859 0.66249 0.0
C127 C 0.79265 0.11083 0.57971 0.0
C128 C 0.77176 0.13435 0.58375 0.0
H129 H 0.6916 0.22299 0.61215 0.0
H130 H 0.72845 0.19221 0.58963 0.0
H131 H 0.66457 0.11863 0.63599 0.0
H132 H 0.79218 0.15207 0.65529 0.0
H133 H 0.79884 0.11909 0.65756 0.0
H134 H 0.7559 0.13481 0.67294 0.0
H135 H 0.68446 0.1174 0.66239 0.0
H136 H 0.69994 0.09341 0.6436 0.0
C137 C 0.72241 0.15639 0.55675 0.0
C138 C 0.80212 0.17477 0.56673 0.0
C139 C 0.8372 0.03763 0.62746 0.0
C140 C 0.82793 0.03249 0.64852 0.0
C141 C 0.79964 0.04907 0.65979 0.0
C142 C 0.78195 0.07097 0.65045 0.0
C143 C 0.79236 0.07631 0.62954 0.0
C144 C 0.81859 0.05946 0.61823 0.0
C145 C 0.82331 0.06747 0.59582 0.0
C146 C 0.79812 0.09273 0.59595 0.0
C147 C 0.78038 0.09781 0.61578 0.0
C148 C 0.79888 0.04727 0.58204 0.0
C149 C 0.87479 0.07104 0.59098 0.0
C150 C 0.6981 0.17371 0.64653 0.0
C151 C 0.68763 0.19803 0.63894 0.0
C152 C 0.6993 0.20429 0.61826 0.0
C153 C 0.72061 0.18638 0.60524 0.0
C154 C 0.73101 0.16207 0.61309 0.0
C155 C 0.72018 0.15629 0.63353 0.0
C156 C 0.73664 0.13042 0.63985 0.0
C157 C 0.75817 0.12125 0.61979 0.0
C158 C 0.75445 0.13966 0.60401 0.0
C159 C 0.69448 0.114 0.64596 0.0
C160 C 0.77253 0.13403 0.65742 0.0
H161 H 0.83462 0.073 0.5509 0.0
H162 H 0.79346 0.15703 0.5214 0.0
H163 H 0.83894 0.16973 0.56579 0.0
H164 H 0.7982 0.18401 0.58205 0.0
H165 H 0.79506 0.18887 0.55428 0.0
H166 H 0.70561 0.13868 0.55097 0.0
H167 H 0.7227 0.17043 0.54381 0.0
H168 H 0.70004 0.16349 0.56923 0.0
H169 H 0.85818 0.02485 0.6184 0.0
H170 H 0.79207 0.04533 0.67602 0.0
H171 H 0.76119 0.08302 0.65997 0.0
H172 H 0.7725 0.03645 0.59094 0.0
H173 H 0.82349 0.03324 0.57575 0.0
H174 H 0.77979 0.05596 0.569 0.0
H175 H 0.89181 0.08219 0.60353 0.0
H176 H 0.88123 0.08165 0.57645 0.0
H177 H 0.89211 0.05234 0.58986 0.0
H178 H 0.84692 0.08078 0.51455 0.0
C179 C 0.82516 0.09132 0.54505 0.0
C180 C 0.80618 0.32875 0.14607 0.0
C181 C 0.81651 0.30415 0.13892 0.0
C182 C 0.80617 0.29797 0.11801 0.0
C183 C 0.77368 0.33993 0.11251 0.0
C184 C 0.7843 0.34596 0.13287 0.0
C185 C 0.76752 0.37179 0.13904 0.0
H186 H 0.63788 0.47432 0.11877 0.0
C187 C 0.74868 0.36181 0.10347 0.0
C188 C 0.74461 0.38031 0.11912 0.0
H189 H 0.71438 0.45731 0.1745 0.0
H190 H 0.74541 0.41987 0.15829 0.0
H191 H 0.72399 0.46113 0.08816 0.0
H192 H 0.60552 0.41775 0.10705 0.0
H193 H 0.613 0.41353 0.0801 0.0
H194 H 0.60218 0.44492 0.09016 0.0
H195 H 0.66826 0.46724 0.07773 0.0
H196 H 0.70555 0.44379 0.06637 0.0
C197 C 0.80956 0.3887 0.14445 0.0
C198 C 0.73272 0.36819 0.15706 0.0
C199 C 0.69784 0.36113 0.02758 0.0
C200 C 0.67223 0.37827 0.01548 0.0
C201 C 0.6552 0.40046 0.02494 0.0
C202 C 0.66393 0.40571 0.04595 0.0
C203 C 0.68979 0.38853 0.0578 0.0
C204 C 0.706 0.36656 0.04865 0.0
C205 C 0.7311 0.35001 0.06399 0.0
C206 C 0.72924 0.36629 0.08351 0.0
C207 C 0.70482 0.38882 0.07976 0.0
C208 C 0.78068 0.34654 0.05622 0.0
C209 C 0.70396 0.32476 0.06655 0.0
C210 C 0.66126 0.46238 0.12738 0.0
C211 C 0.67335 0.4684 0.14799 0.0
C212 C 0.70463 0.45291 0.15863 0.0
C213 C 0.72241 0.43113 0.14921 0.0
C214 C 0.70897 0.42478 0.12885 0.0
C215 C 0.68003 0.44069 0.11803 0.0
C216 C 0.67242 0.43172 0.09602 0.0
C217 C 0.69954 0.40711 0.09587 0.0
C218 C 0.72029 0.40308 0.11525 0.0
C219 C 0.69321 0.45197 0.08115 0.0
C220 C 0.6206 0.42682 0.09295 0.0
H221 H 0.77793 0.30985 0.08911 0.0
H222 H 0.81436 0.33458 0.1618 0.0
H223 H 0.71171 0.35068 0.15468 0.0
H224 H 0.7076 0.38367 0.15817 0.0
H225 H 0.75045 0.36631 0.17226 0.0
H226 H 0.84012 0.38299 0.1353 0.0
H227 H 0.81852 0.38719 0.16119 0.0
H228 H 0.80445 0.40895 0.1404 0.0
H229 H 0.7107 0.34369 0.02084 0.0
H230 H 0.63564 0.41401 0.01594 0.0
H231 H 0.6501 0.42295 0.05216 0.0
H232 H 0.79549 0.36513 0.05122 0.0
H233 H 0.78175 0.33339 0.0427 0.0
H234 H 0.80374 0.33922 0.06838 0.0
H235 H 0.66666 0.32777 0.06437 0.0
H236 H 0.70694 0.31664 0.08236 0.0
H237 H 0.715 0.31038 0.05496 0.0
H238 H 0.81323 0.27918 0.11197 0.0
C239 C 0.78513 0.31575 0.10477 0.0
C240 C 0.69445 0.54857 0.64623 0.0
C241 C 0.66728 0.52851 0.63855 0.0
C242 C 0.65343 0.529 0.61752 0.0
C243 C 0.69323 0.56925 0.61238 0.0
C244 C 0.70669 0.56867 0.633 0.0
C245 C 0.73339 0.59201 0.63913 0.0
H246 H 0.82871 0.70533 0.61388 0.0
C247 C 0.71078 0.59326 0.60314 0.0
C248 C 0.73405 0.60669 0.61881 0.0
H249 H 0.82128 0.66833 0.67412 0.0
H250 H 0.78169 0.63308 0.65904 0.0
H251 H 0.84536 0.65263 0.58534 0.0
H252 H 0.72597 0.69502 0.60315 0.0
H253 H 0.71645 0.68372 0.57784 0.0
H254 H 0.76302 0.70573 0.58264 0.0
H255 H 0.83473 0.68467 0.57694 0.0
H256 H 0.81089 0.65783 0.56323 0.0
C257 C 0.78195 0.58349 0.64561 0.0
C258 C 0.70633 0.60616 0.65635 0.0
C259 C 0.68312 0.61256 0.5267 0.0
C260 C 0.69355 0.63366 0.51411 0.0
C261 C 0.71664 0.65471 0.52279 0.0
C262 C 0.73002 0.65456 0.54376 0.0
C263 C 0.71954 0.63328 0.55623 0.0
C264 C 0.69593 0.61288 0.5477 0.0
C265 C 0.68571 0.59248 0.5635 0.0
C266 C 0.70791 0.6037 0.58279 0.0
C267 C 0.72801 0.62753 0.57842 0.0
C268 C 0.70947 0.56771 0.55645 0.0
C269 C 0.63311 0.59012 0.56582 0.0
C270 C 0.81851 0.68969 0.62386 0.0
C271 C 0.82939 0.6897 0.64528 0.0
C272 C 0.81511 0.66875 0.65752 0.0
C273 C 0.79133 0.64826 0.64876 0.0
C274 C 0.78058 0.64861 0.62752 0.0
C275 C 0.79381 0.6691 0.6154 0.0
C276 C 0.77687 0.66656 0.59332 0.0
C277 C 0.75172 0.64108 0.5943 0.0
C278 C 0.75449 0.63067 0.61436 0.0
C279 C 0.81896 0.66549 0.57879 0.0
C280 C 0.74409 0.68893 0.58879 0.0
H281 H 0.65477 0.54845 0.58856 0.0
H282 H 0.70492 0.54901 0.6624 0.0
H283 H 0.66909 0.6018 0.65549 0.0
H284 H 0.70841 0.62712 0.65474 0.0
H285 H 0.71824 0.60067 0.67212 0.0
H286 H 0.79458 0.56831 0.63503 0.0
H287 H 0.78194 0.57572 0.66169 0.0
H288 H 0.80772 0.59889 0.64456 0.0
H289 H 0.66494 0.59627 0.52036 0.0
H290 H 0.72501 0.67108 0.51322 0.0
H291 H 0.74803 0.671 0.54945 0.0
H292 H 0.74435 0.57193 0.55039 0.0
H293 H 0.68981 0.55818 0.54384 0.0
H294 H 0.71451 0.55402 0.56926 0.0
H295 H 0.61633 0.60882 0.56336 0.0
H296 H 0.62245 0.58426 0.58162 0.0
H297 H 0.61859 0.57655 0.55429 0.0
H298 H 0.63268 0.51368 0.61121 0.0
C299 C 0.66638 0.54919 0.60439 0.0
C300 C 0.68434 0.82912 0.14592 0.0
C301 C 0.67442 0.80463 0.1382 0.0
C302 C 0.68582 0.79906 0.11733 0.0
C303 C 0.71823 0.84144 0.11287 0.0
C304 C 0.70656 0.84694 0.1332 0.0
C305 C 0.72221 0.87304 0.13974 0.0
H306 H 0.85179 0.97717 0.12131 0.0
C307 C 0.74284 0.86388 0.10428 0.0
C308 C 0.74541 0.88236 0.12004 0.0
H309 H 0.7698 0.95958 0.17572 0.0
H310 H 0.74102 0.92204 0.15904 0.0
H311 H 0.88313 0.92004 0.10811 0.0
H312 H 0.76836 0.96616 0.09068 0.0
H313 H 0.78029 0.94691 0.06908 0.0
H314 H 0.82267 0.96962 0.07804 0.0
H315 H 0.88763 0.94944 0.0939 0.0
H316 H 0.87698 0.91984 0.08074 0.0
C317 C 0.75659 0.86981 0.1579 0.0
C318 C 0.67948 0.88904 0.14514 0.0
C319 C 0.79989 0.86347 0.02941 0.0
C320 C 0.82239 0.88194 0.01728 0.0
C321 C 0.83503 0.90533 0.02634 0.0
C322 C 0.82557 0.91035 0.0473 0.0
C323 C 0.80268 0.89187 0.05929 0.0
C324 C 0.78988 0.86896 0.05029 0.0
C325 C 0.76429 0.85206 0.0653 0.0
C326 C 0.76322 0.86877 0.08459 0.0
C327 C 0.78633 0.89194 0.08104 0.0
C328 C 0.79267 0.82764 0.06874 0.0
C329 C 0.71575 0.8472 0.05649 0.0
C330 C 0.82745 0.96542 0.12968 0.0
C331 C 0.8148 0.97118 0.15037 0.0
C332 C 0.78222 0.95527 0.16026 0.0
C333 C 0.76499 0.93346 0.15045 0.0
C334 C 0.77971 0.92736 0.13031 0.0
C335 C 0.80903 0.94369 0.11992 0.0
C336 C 0.81708 0.93524 0.09779 0.0
C337 C 0.79024 0.91028 0.09724 0.0
C338 C 0.769 0.90569 0.11645 0.0
C339 C 0.86894 0.93098 0.09479 0.0
C340 C 0.79643 0.95549 0.08301 0.0
H341 H 0.7155 0.81182 0.08899 0.0
H342 H 0.6754 0.83438 0.16169 0.0
H343 H 0.64892 0.8824 0.13631 0.0
H344 H 0.68352 0.9093 0.14073 0.0
H345 H 0.67112 0.88775 0.16197 0.0
H346 H 0.77984 0.85356 0.15485 0.0
H347 H 0.73847 0.86593 0.17277 0.0
H348 H 0.77938 0.88638 0.16011 0.0
H349 H 0.78941 0.84546 0.02265 0.0
H350 H 0.85228 0.91976 0.01711 0.0
H351 H 0.8363 0.92845 0.05334 0.0
H352 H 0.82996 0.8319 0.06802 0.0
H353 H 0.78494 0.81314 0.05663 0.0
H354 H 0.78738 0.81914 0.08428 0.0
H355 H 0.70159 0.86496 0.04971 0.0
H356 H 0.69093 0.84125 0.0685 0.0
H357 H 0.71634 0.83257 0.04402 0.0
H358 H 0.67915 0.78034 0.11092 0.0
C359 C 0.70742 0.81733 0.10464 0.0
C360 C 0.17969 0.9498 0.36296 0.0
C361 C 0.15355 0.97021 0.37031 0.0
C362 C 0.14081 0.97064 0.3915 0.0
C363 C 0.18024 0.93077 0.39744 0.0
C364 C 0.19257 0.93049 0.37667 0.0
C365 C 0.21999 0.9075 0.37103 0.0
H366 H 0.32039 0.79739 0.39875 0.0
C367 C 0.19932 0.90766 0.40731 0.0
C368 C 0.22273 0.8941 0.39185 0.0
H369 H 0.31275 0.83216 0.33779 0.0
H370 H 0.27109 0.86722 0.35195 0.0
H371 H 0.34123 0.84863 0.42383 0.0
H372 H 0.2151 0.80889 0.41112 0.0
H373 H 0.21404 0.81834 0.43733 0.0
H374 H 0.25768 0.79683 0.42857 0.0
H375 H 0.32538 0.82003 0.43738 0.0
H376 H 0.30762 0.85101 0.44634 0.0
C377 C 0.26765 0.91671 0.36345 0.0
C378 C 0.1923 0.89175 0.35487 0.0
C379 C 0.17203 0.88904 0.48416 0.0
C380 C 0.18765 0.86963 0.49739 0.0
C381 C 0.21609 0.85054 0.48927 0.0
C382 C 0.22861 0.85059 0.46828 0.0
C383 C 0.21275 0.87001 0.45518 0.0
C384 C 0.18538 0.889 0.46318 0.0
C385 C 0.17373 0.90871 0.44702 0.0
C386 C 0.1977 0.89804 0.42798 0.0
C387 C 0.22024 0.87527 0.43289 0.0
C388 C 0.1947 0.93451 0.45393 0.0
C389 C 0.12118 0.90898 0.44432 0.0
C390 C 0.30956 0.81254 0.38847 0.0
C391 C 0.32039 0.81205 0.36712 0.0
C392 C 0.30581 0.83225 0.35434 0.0
C393 C 0.28119 0.85258 0.36258 0.0
C394 C 0.2706 0.85282 0.38388 0.0
C395 C 0.28466 0.83306 0.39647 0.0
C396 C 0.26961 0.83657 0.41869 0.0
C397 C 0.24387 0.86157 0.41721 0.0
C398 C 0.24484 0.87096 0.39681 0.0
C399 C 0.31295 0.83902 0.43244 0.0
C400 C 0.23765 0.81399 0.42445 0.0
H401 H 0.14336 0.95249 0.42103 0.0
H402 H 0.18942 0.9486 0.34673 0.0
H403 H 0.15486 0.89413 0.35712 0.0
H404 H 0.19769 0.87102 0.35636 0.0
H405 H 0.20054 0.89776 0.33872 0.0
H406 H 0.27928 0.9337 0.3724 0.0
H407 H 0.26677 0.92211 0.34674 0.0
H408 H 0.29475 0.9025 0.36587 0.0
H409 H 0.15074 0.90417 0.49011 0.0
H410 H 0.22841 0.83541 0.49922 0.0
H411 H 0.25023 0.83549 0.46308 0.0
H412 H 0.22836 0.93169 0.46162 0.0
H413 H 0.17206 0.94433 0.46519 0.0
H414 H 0.20195 0.94741 0.44075 0.0
H415 H 0.10709 0.88924 0.44445 0.0
H416 H 0.11027 0.91717 0.42934 0.0
H417 H 0.10465 0.91964 0.45717 0.0
H418 H 0.12098 0.98628 0.39762 0.0
C419 C 0.15405 0.95107 0.4051 0.0
C420 C 0.20068 0.6753 0.86501 0.0
C421 C 0.18844 0.69907 0.87332 0.0
C422 C 0.19669 0.70381 0.89462 0.0
C423 C 0.23034 0.66194 0.89858 0.0
C424 C 0.22148 0.65719 0.87781 0.0
C425 C 0.2378 0.6314 0.87109 0.0
H426 H 0.35304 0.52348 0.89283 0.0
C427 C 0.25399 0.63943 0.90723 0.0
C428 C 0.25856 0.62155 0.89112 0.0
H429 H 0.29218 0.54607 0.83439 0.0
H430 H 0.26292 0.5841 0.85036 0.0
H431 H 0.39283 0.57789 0.90477 0.0
H432 H 0.26704 0.54002 0.92133 0.0
H433 H 0.2862 0.55607 0.94367 0.0
H434 H 0.3209 0.53129 0.9325 0.0
H435 H 0.39068 0.55147 0.92247 0.0
H436 H 0.38332 0.58375 0.9313 0.0
C437 C 0.2742 0.63522 0.85379 0.0
C438 C 0.19556 0.61539 0.86446 0.0
C439 C 0.30557 0.63838 0.98291 0.0
C440 C 0.32935 0.62035 0.99476 0.0
C441 C 0.34264 0.5973 0.98561 0.0
C442 C 0.33256 0.59218 0.96472 0.0
C443 C 0.30904 0.6104 0.95288 0.0
C444 C 0.29579 0.63302 0.962 0.0
C445 C 0.27132 0.65012 0.94691 0.0
C446 C 0.2719 0.63398 0.9273 0.0
C447 C 0.29413 0.61077 0.93093 0.0
C448 C 0.29984 0.6749 0.94442 0.0
C449 C 0.22211 0.65423 0.95502 0.0
C450 C 0.33351 0.53666 0.88347 0.0
C451 C 0.32512 0.53176 0.86228 0.0
C452 C 0.29882 0.54923 0.85078 0.0
C453 C 0.28212 0.57143 0.86005 0.0
C454 C 0.2918 0.57639 0.88109 0.0
C455 C 0.31652 0.55896 0.8925 0.0
C456 C 0.32305 0.56727 0.9147 0.0
C457 C 0.29905 0.59282 0.91459 0.0
C458 C 0.28098 0.59809 0.89485 0.0
C459 C 0.37509 0.57014 0.91875 0.0
C460 C 0.29843 0.54768 0.92895 0.0
H461 H 0.22326 0.69029 0.92327 0.0
H462 H 0.19424 0.67083 0.84881 0.0
H463 H 0.16576 0.61951 0.87465 0.0
H464 H 0.20094 0.59469 0.86604 0.0
H465 H 0.18544 0.61972 0.84819 0.0
H466 H 0.29423 0.65304 0.85636 0.0
H467 H 0.25799 0.63656 0.83821 0.0
H468 H 0.30008 0.62004 0.85352 0.0
H469 H 0.29497 0.65622 0.98977 0.0
H470 H 0.3608 0.58323 0.99469 0.0
H471 H 0.34364 0.57427 0.95862 0.0
H472 H 0.33709 0.67086 0.94518 0.0
H473 H 0.29188 0.68871 0.95698 0.0
H474 H 0.29494 0.68418 0.92919 0.0
H475 H 0.20775 0.63622 0.96149 0.0
H476 H 0.19806 0.65991 0.94266 0.0
H477 H 0.22157 0.66875 0.96758 0.0
H478 H 0.18792 0.72199 0.90142 0.0
C479 C 0.21751 0.68541 0.90727 0.0
Tb480 Tb 0.05623 0.14446 0.23612 0.0
C481 C 0.8577 0.11521 0.26364 0.0
N482 N 0.87686 0.13879 0.26389 0.0
C483 C 0.80855 0.15645 0.24947 0.0
C484 C 0.81361 0.11111 0.25544 0.0
C485 C 0.85255 0.1595 0.25768 0.0
C486 C 0.78916 0.13211 0.24812 0.0
C487 C 0.86419 0.07035 0.27158 0.0
C488 C 0.8827 0.0952 0.27162 0.0
C489 C 0.82091 0.06591 0.26272 0.0
C490 C 0.79557 0.08627 0.25477 0.0
Tb491 Tb 0.94888 0.14176 0.27694 0.0
N492 N 0.92434 0.10033 0.28015 0.0
C493 C 0.88916 0.05088 0.28097 0.0
C494 C 0.94651 0.08186 0.2911 0.0
C495 C 0.93006 0.05677 0.29115 0.0
H496 H 0.86699 0.17841 0.25899 0.0
H497 H 0.94848 0.04211 0.29941 0.0
H498 H 0.12219 0.09525 0.25104 0.0
H499 H 0.10841 0.24044 0.21889 0.0
H500 H 0.97602 0.08632 0.30042 0.0
H501 H 0.87626 0.03149 0.28121 0.0
H502 H 0.05908 0.20187 0.21651 0.0
H503 H 0.78964 0.17288 0.24421 0.0
H504 H 0.80633 0.04689 0.26235 0.0
H505 H 0.76197 0.08264 0.24827 0.0
H506 H 0.19183 0.08949 0.27187 0.0
H507 H 0.75517 0.12978 0.24167 0.0
H508 H 0.17725 0.24007 0.24137 0.0
N509 N 0.1233 0.13582 0.25335 0.0
C510 C 0.15 0.15643 0.2577 0.0
C511 C 0.18001 0.10849 0.26835 0.0
C512 C 0.19159 0.15401 0.26858 0.0
C513 C 0.13975 0.1119 0.25697 0.0
C514 C 0.20552 0.12969 0.27464 0.0
N515 N 0.09873 0.1808 0.23806 0.0
C516 C 0.08888 0.20185 0.22645 0.0
C517 C 0.16698 0.20099 0.2512 0.0
C518 C 0.13793 0.17962 0.24927 0.0
C519 C 0.1557 0.22325 0.24039 0.0
C520 C 0.11683 0.22354 0.22769 0.0
H521 H 0.23716 0.12699 0.28309 0.0
H522 H 0.25085 0.17427 0.28058 0.0
H523 H 0.22929 0.21546 0.26526 0.0
O524 O 0.04424 0.14742 0.20382 0.0
O525 O 0.04544 0.17635 0.25787 0.0
O526 O 0.01745 0.15416 0.28532 0.0
O527 O 0.10825 0.13405 0.21531 0.0
O528 O 0.9949 0.16536 0.22697 0.0
O529 O 0.95158 0.17559 0.25663 0.0
O530 O 0.92115 0.13595 0.30716 0.0
O531 O 0.93933 0.12887 0.24452 0.0
O532 O 0.00912 0.11187 0.23591 0.0
O533 O 0.92572 0.17382 0.29329 0.0
O534 O 0.01324 0.12322 0.28567 0.0
O535 O 0.04573 0.10949 0.25477 0.0
C536 C 0.03629 0.17477 0.27782 0.0
C537 C 0.08524 0.11909 0.1825 0.0
C538 C 0.10099 0.10735 0.14643 0.0
C539 C 0.09123 0.08181 0.15151 0.0
C540 C 0.07658 0.09349 0.18729 0.0
C541 C 0.07918 0.07498 0.17179 0.0
C542 C 0.0973 0.12601 0.16207 0.0
C543 C 0.96347 0.1786 0.23689 0.0
C544 C 0.08408 0.13859 0.19884 0.0
C545 C 0.21909 0.17568 0.272 0.0
C546 C 0.20689 0.19913 0.26323 0.0
C547 C 0.96434 0.1126 0.23399 0.0
C548 C 0.89347 0.17162 0.32824 0.0
C549 C 0.8757 0.17095 0.36552 0.0
C550 C 0.85975 0.19603 0.36389 0.0
C551 C 0.87721 0.19667 0.32717 0.0
C552 C 0.89205 0.15857 0.34751 0.0
C553 C 0.86029 0.20869 0.34484 0.0
C554 C 0.03963 0.10765 0.27506 0.0
C555 C 0.91412 0.16021 0.30942 0.0
H556 H 0.09291 0.06705 0.13978 0.0
H557 H 0.06857 0.08785 0.20307 0.0
H558 H 0.07238 0.05524 0.17553 0.0
H559 H 0.10506 0.14576 0.15853 0.0
H560 H 0.84669 0.20586 0.37744 0.0
H561 H 0.87784 0.20713 0.31263 0.0
H562 H 0.90499 0.13934 0.34866 0.0
H563 H 0.84791 0.22801 0.34383 0.0
Tb564 Tb 0.45534 0.36485 0.73657 0.0
C565 C 0.65366 0.38919 0.76029 0.0
N566 N 0.63496 0.36544 0.75982 0.0
C567 C 0.69963 0.34989 0.74097 0.0
C568 C 0.69579 0.39439 0.75053 0.0
C569 C 0.65747 0.34571 0.75071 0.0
C570 C 0.71878 0.37436 0.74078 0.0
C571 C 0.64744 0.43339 0.77059 0.0
C572 C 0.62936 0.40845 0.77 0.0
C573 C 0.68925 0.43879 0.76069 0.0
C574 C 0.71336 0.41934 0.75068 0.0
Tb575 Tb 0.56634 0.36083 0.77599 0.0
N576 N 0.58847 0.40263 0.7791 0.0
C577 C 0.62333 0.45208 0.7814 0.0
C578 C 0.56712 0.42032 0.79118 0.0
C579 C 0.58344 0.44539 0.79206 0.0
H580 H 0.64296 0.32678 0.75098 0.0
H581 H 0.56575 0.4594 0.80134 0.0
H582 H 0.39334 0.41243 0.75554 0.0
H583 H 0.40939 0.26937 0.71381 0.0
H584 H 0.53875 0.4152 0.80096 0.0
H585 H 0.63603 0.47148 0.78223 0.0
H586 H 0.46037 0.30681 0.71718 0.0
H587 H 0.7173 0.33426 0.73361 0.0
H588 H 0.70345 0.45789 0.76085 0.0
H589 H 0.74562 0.42378 0.74318 0.0
H590 H 0.31638 0.41812 0.77035 0.0
H591 H 0.75133 0.37757 0.73313 0.0
H592 H 0.33051 0.27096 0.7277 0.0
N593 N 0.38469 0.37269 0.75038 0.0
C594 C 0.35452 0.35289 0.74993 0.0
C595 C 0.32685 0.39957 0.7649 0.0
C596 C 0.30946 0.3555 0.75732 0.0
C597 C 0.3709 0.39613 0.75695 0.0
C598 C 0.29609 0.3791 0.76526 0.0
N599 N 0.41185 0.32879 0.73379 0.0
C600 C 0.42644 0.30751 0.72365 0.0
C601 C 0.33763 0.3096 0.73905 0.0
C602 C 0.36821 0.33031 0.74089 0.0
C603 C 0.35289 0.28736 0.72936 0.0
C604 C 0.39745 0.28636 0.72156 0.0
H605 H 0.26177 0.38191 0.77113 0.0
H606 H 0.24423 0.33633 0.76168 0.0
H607 H 0.26903 0.29608 0.74576 0.0
O608 O 0.46258 0.36141 0.70391 0.0
O609 O 0.44965 0.33466 0.76028 0.0
O610 O 0.50833 0.33758 0.78495 0.0
O611 O 0.41696 0.38869 0.71724 0.0
O612 O 0.51511 0.34291 0.72687 0.0
O613 O 0.5546 0.32734 0.75585 0.0
O614 O 0.58815 0.36693 0.80703 0.0
O615 O 0.57328 0.37489 0.74386 0.0
O616 O 0.50565 0.39538 0.7405 0.0
O617 O 0.60766 0.33283 0.79004 0.0
O618 O 0.5026 0.37707 0.7883 0.0
O619 O 0.47096 0.39472 0.7591 0.0
C620 C 0.46949 0.32824 0.77793 0.0
C621 C 0.39425 0.37042 0.68543 0.0
C622 C 0.36583 0.36683 0.64989 0.0
C623 C 0.32303 0.35915 0.65754 0.0
C624 C 0.35087 0.36294 0.69274 0.0
C625 C 0.3157 0.35712 0.67888 0.0
C626 C 0.40167 0.37227 0.66384 0.0
C627 C 0.54159 0.32599 0.73608 0.0
C628 C 0.43064 0.37792 0.70019 0.0
C629 C 0.27896 0.33474 0.75601 0.0
C630 C 0.29302 0.31184 0.74688 0.0
C631 C 0.54845 0.39261 0.73529 0.0
C632 C 0.63481 0.33625 0.82596 0.0
C633 C 0.64756 0.33493 0.86369 0.0
C634 C 0.6795 0.31543 0.86061 0.0
C635 C 0.66689 0.31676 0.82348 0.0
C636 C 0.62558 0.34561 0.84619 0.0
C637 C 0.68918 0.30656 0.84068 0.0
C638 C 0.47207 0.39171 0.77935 0.0
C639 C 0.60947 0.34535 0.8075 0.0
H640 H 0.29513 0.35499 0.64694 0.0
H641 H 0.34362 0.36218 0.70915 0.0
H642 H 0.28243 0.35146 0.68471 0.0
H643 H 0.43462 0.37852 0.65795 0.0
H644 H 0.69739 0.30714 0.8737 0.0
H645 H 0.67461 0.30926 0.80818 0.0
H646 H 0.60049 0.36044 0.84838 0.0
H647 H 0.7139 0.29156 0.83857 0.0
Tb648 Tb 0.05482 0.85503 0.73676 0.0
C649 C 0.84973 0.84058 0.7657 0.0
N650 N 0.87436 0.86238 0.76312 0.0
C651 C 0.81105 0.88175 0.74566 0.0
C652 C 0.80479 0.83836 0.75798 0.0
C653 C 0.85562 0.88299 0.75348 0.0
C654 C 0.78554 0.85931 0.74787 0.0
C655 C 0.84671 0.79685 0.77773 0.0
C656 C 0.87073 0.82003 0.77523 0.0
C657 C 0.80179 0.79456 0.77017 0.0
C658 C 0.7809 0.81524 0.76031 0.0
Tb659 Tb 0.94631 0.86225 0.7767 0.0
N660 N 0.9148 0.82271 0.7818 0.0
C661 C 0.86846 0.77675 0.78786 0.0
C662 C 0.93468 0.80378 0.7931 0.0
C663 C 0.91239 0.78037 0.79586 0.0
H664 H 0.8746 0.90058 0.75221 0.0
H665 H 0.92878 0.7653 0.80452 0.0
H666 H 0.1215 0.80983 0.75567 0.0
H667 H 0.08449 0.95501 0.72069 0.0
H668 H 0.96682 0.80674 0.80079 0.0
H669 H 0.85122 0.75862 0.7901 0.0
H670 H 0.03973 0.91543 0.72131 0.0
H671 H 0.79635 0.89813 0.73802 0.0
H672 H 0.78291 0.77685 0.77186 0.0
H673 H 0.74635 0.81313 0.75445 0.0
H674 H 0.20067 0.80643 0.76864 0.0
H675 H 0.75109 0.85837 0.74171 0.0
H676 H 0.16464 0.95531 0.73293 0.0
N677 N 0.12731 0.84932 0.74873 0.0
C678 C 0.155 0.8702 0.74817 0.0
C679 C 0.18821 0.82449 0.76297 0.0
C680 C 0.20056 0.86907 0.75519 0.0
C681 C 0.14323 0.82655 0.75581 0.0
C682 C 0.21701 0.84584 0.76267 0.0
N683 N 0.09227 0.89341 0.73523 0.0
C684 C 0.07382 0.9152 0.72741 0.0
C685 C 0.16434 0.91517 0.74059 0.0
C686 C 0.13707 0.89295 0.74099 0.0
C687 C 0.14488 0.9378 0.73346 0.0
C688 C 0.09955 0.93774 0.72668 0.0
H689 H 0.25181 0.84419 0.76825 0.0
H690 H 0.26305 0.89069 0.76008 0.0
H691 H 0.23133 0.93105 0.7473 0.0
O692 O 0.05131 0.85913 0.70413 0.0
O693 O 0.0678 0.87583 0.76593 0.0
O694 O 0.99765 0.89242 0.77368 0.0
O695 O 0.0927 0.8301 0.71801 0.0
O696 O 0.99451 0.87606 0.72577 0.0
O697 O 0.96009 0.89354 0.75497 0.0
O698 O 0.94372 0.86161 0.81003 0.0
O699 O 0.93317 0.84259 0.74688 0.0
O700 O 0.00317 0.82548 0.74083 0.0
O701 O 0.90345 0.88798 0.79162 0.0
O702 O 0.00833 0.84293 0.7881 0.0
O703 O 0.03968 0.82424 0.75879 0.0
C704 C 0.04165 0.8907 0.77718 0.0
C705 C 0.11916 0.84813 0.6864 0.0
C706 C 0.14585 0.85669 0.6511 0.0
C707 C 0.19017 0.86074 0.65879 0.0
C708 C 0.16396 0.85197 0.69374 0.0
C709 C 0.19914 0.85829 0.67999 0.0
C710 C 0.1103 0.85032 0.66493 0.0
C711 C 0.96609 0.89216 0.73464 0.0
C712 C 0.08162 0.84157 0.70083 0.0
C713 C 0.22795 0.89115 0.75472 0.0
C714 C 0.20988 0.91414 0.74744 0.0
C715 C 0.96012 0.82793 0.73588 0.0
C716 C 0.89435 0.892 0.82877 0.0
C717 C 0.87995 0.89367 0.86619 0.0
C718 C 0.8576 0.91698 0.86348 0.0
C719 C 0.87158 0.91533 0.82654 0.0
C720 C 0.89826 0.88102 0.84876 0.0
C721 C 0.85334 0.92766 0.84377 0.0
C722 C 0.03705 0.82707 0.77913 0.0
C723 C 0.91419 0.88002 0.81004 0.0
H724 H 0.21794 0.86555 0.6483 0.0
H725 H 0.17204 0.84987 0.71003 0.0
H726 H 0.23353 0.8612 0.68579 0.0
H727 H 0.07599 0.8472 0.65902 0.0
H728 H 0.84317 0.9269 0.8767 0.0
H729 H 0.8681 0.92426 0.81143 0.0
H730 H 0.91568 0.86305 0.85079 0.0
H731 H 0.83597 0.94563 0.84186 0.0
Tb732 Tb 0.44807 0.64415 0.23517 0.0
C733 C 0.65465 0.65621 0.26008 0.0
N734 N 0.62792 0.63495 0.26083 0.0
C735 C 0.68848 0.61029 0.24608 0.0
C736 C 0.69893 0.65549 0.25144 0.0
C737 C 0.64466 0.61199 0.25462 0.0
C738 C 0.71562 0.63216 0.24431 0.0
C739 C 0.66287 0.70161 0.26597 0.0
C740 C 0.63694 0.67892 0.26749 0.0
C741 C 0.70692 0.701 0.25729 0.0
C742 C 0.72496 0.678 0.25012 0.0
Tb743 Tb 0.55759 0.63982 0.27544 0.0
N744 N 0.59365 0.6789 0.27538 0.0
C745 C 0.64357 0.7243 0.27296 0.0
C746 C 0.57504 0.70108 0.28244 0.0
C747 C 0.59954 0.724 0.28127 0.0
H748 H 0.62473 0.59483 0.25658 0.0
H749 H 0.58435 0.74147 0.28677 0.0
H750 H 0.37428 0.69038 0.24403 0.0
H751 H 0.41612 0.54723 0.21099 0.0
H752 H 0.54141 0.70166 0.28897 0.0
H753 H 0.6623 0.74214 0.27199 0.0
H754 H 0.46115 0.5868 0.21484 0.0
H755 H 0.70141 0.59206 0.24099 0.0
H756 H 0.72726 0.71826 0.25599 0.0
H757 H 0.759 0.67784 0.24347 0.0
H758 H 0.29321 0.69447 0.25417 0.0
H759 H 0.74952 0.6308 0.23763 0.0
H760 H 0.33578 0.54561 0.22306 0.0
N761 N 0.37272 0.64994 0.24368 0.0
C762 C 0.34545 0.62897 0.24337 0.0
C763 C 0.30763 0.67583 0.2516 0.0
C764 C 0.29849 0.63035 0.24817 0.0
C765 C 0.3538 0.6734 0.24634 0.0
C766 C 0.28001 0.65411 0.25297 0.0
N767 N 0.40839 0.60681 0.23044 0.0
C768 C 0.42671 0.58612 0.22069 0.0
C769 C 0.33617 0.58472 0.2337 0.0
C770 C 0.36374 0.60666 0.23607 0.0
C771 C 0.3557 0.56291 0.22506 0.0
C772 C 0.40104 0.56374 0.21827 0.0
H773 H 0.24408 0.65603 0.25669 0.0
H774 H 0.23513 0.60888 0.25073 0.0
H775 H 0.26835 0.56874 0.23822 0.0
O776 O 0.45707 0.63884 0.20272 0.0
O777 O 0.44911 0.61165 0.25674 0.0
O778 O 0.4891 0.62743 0.28487 0.0
O779 O 0.42081 0.67089 0.21439 0.0
O780 O 0.51233 0.62583 0.22615 0.0
O781 O 0.54318 0.60698 0.25543 0.0
O782 O 0.58572 0.64594 0.30564 0.0
O783 O 0.56617 0.65714 0.2447 0.0
O784 O 0.49616 0.67488 0.24207 0.0
O785 O 0.58225 0.60813 0.29155 0.0
O786 O 0.50094 0.66318 0.28692 0.0
O787 O 0.44265 0.67042 0.26221 0.0
C788 C 0.46241 0.61022 0.27628 0.0
C789 C 0.3937 0.65319 0.18299 0.0
C790 C 0.36647 0.64822 0.14732 0.0
C791 C 0.32131 0.64739 0.15465 0.0
C792 C 0.34807 0.65224 0.18989 0.0
C793 C 0.31226 0.64923 0.17583 0.0
C794 C 0.40284 0.65083 0.16155 0.0
C795 C 0.53448 0.60718 0.23532 0.0
C796 C 0.43128 0.65796 0.19793 0.0
C797 C 0.27116 0.60828 0.24689 0.0
C798 C 0.29001 0.58547 0.23967 0.0
C799 C 0.53891 0.67395 0.23638 0.0
C800 C 0.61654 0.61015 0.32583 0.0
C801 C 0.6343 0.60913 0.36295 0.0
C802 C 0.65532 0.58545 0.36022 0.0
C803 C 0.63796 0.58647 0.32351 0.0
C804 C 0.61525 0.6217 0.34566 0.0
C805 C 0.65735 0.5743 0.3406 0.0
C806 C 0.46269 0.67427 0.2806 0.0
C807 C 0.5943 0.62177 0.30756 0.0
H808 H 0.29298 0.64531 0.1439 0.0
H809 H 0.33967 0.65434 0.20609 0.0
H810 H 0.27732 0.64865 0.18136 0.0
H811 H 0.43776 0.65171 0.15594 0.0
H812 H 0.67025 0.57559 0.37336 0.0
H813 H 0.63961 0.57726 0.30845 0.0
H814 H 0.59856 0.63987 0.34775 0.0
H815 H 0.67372 0.55605 0.33864 0.0
C816 C 0.17031 1.00036 0.34096 0.0
C817 C 0.1394 0.9907 0.35576 0.0
C818 C 0.15713 0.01913 0.32667 0.0
C819 C 0.11193 0.02848 0.32717 0.0
C820 C 0.08056 0.01885 0.34207 0.0
C821 C 0.0947 1.00012 0.35622 0.0
C822 C 0.19165 0.02911 0.31114 0.0
C823 C 0.03198 0.02831 0.34303 0.0
C824 C 0.08326 0.09374 0.30598 0.0
C825 C 0.06311 0.08764 0.28686 0.0
C826 C 0.10123 0.07473 0.31881 0.0
C827 C 0.09767 0.04895 0.3126 0.0
C828 C 0.07834 0.04276 0.29299 0.0
C829 C 0.06178 0.06231 0.28016 0.0
C830 C 0.12258 0.0822 0.33933 0.0
C831 C 0.07322 0.01547 0.286 0.0
H832 H 0.20508 0.99338 0.34068 0.0
H833 H 0.07049 0.9925 0.36741 0.0
H834 H 0.17882 0.02617 0.29507 0.0
H835 H 0.19659 0.0499 0.31331 0.0
H836 H 0.22532 0.01965 0.31266 0.0
H837 H 0.01146 0.01837 0.35515 0.0
H838 H 0.03189 0.04902 0.34641 0.0
H839 H 0.01502 0.02558 0.32773 0.0
H840 H 0.08443 0.11344 0.311 0.0
H841 H 0.04565 0.05771 0.26543 0.0
H842 H 0.15689 0.07355 0.3409 0.0
H843 H 0.10124 0.07489 0.35233 0.0
H844 H 0.12611 0.10317 0.34102 0.0
H845 H 0.10656 0.00562 0.28688 0.0
H846 H 0.05994 0.01395 0.26985 0.0
H847 H 0.04931 0.00527 0.29657 0.0
C848 C 0.31925 0.49483 0.83763 0.0
C849 C 0.34509 0.50912 0.8519 0.0
C850 C 0.33868 0.47449 0.82667 0.0
C851 C 0.38513 0.46832 0.83 0.0
C852 C 0.41111 0.48226 0.84476 0.0
C853 C 0.39075 0.50245 0.85557 0.0
C854 C 0.30983 0.46002 0.8111 0.0
C855 C 0.46089 0.47645 0.84857 0.0
C856 C 0.43032 0.40439 0.81156 0.0
C857 C 0.44951 0.41102 0.79236 0.0
C858 C 0.40872 0.42278 0.82394 0.0
C859 C 0.40735 0.44842 0.81709 0.0
C860 C 0.42745 0.4552 0.7978 0.0
C861 C 0.44799 0.43638 0.78561 0.0
C862 C 0.38721 0.41479 0.84428 0.0
C863 C 0.42751 0.48237 0.79009 0.0
H864 H 0.28379 0.49968 0.83493 0.0
H865 H 0.4111 0.51359 0.86639 0.0
H866 H 0.32351 0.46312 0.79519 0.0
H867 H 0.31136 0.43928 0.81429 0.0
H868 H 0.2735 0.46602 0.81137 0.0
H869 H 0.47567 0.48817 0.86133 0.0
H870 H 0.46505 0.45605 0.85255 0.0
H871 H 0.48084 0.48008 0.83417 0.0
H872 H 0.43163 0.38475 0.81671 0.0
H873 H 0.46357 0.44158 0.77088 0.0
H874 H 0.35032 0.41953 0.84422 0.0
H875 H 0.40321 0.42543 0.85732 0.0
H876 H 0.39082 0.39407 0.84726 0.0
H877 H 0.39188 0.4891 0.7883 0.0
H878 H 0.44537 0.48452 0.77493 0.0
H879 H 0.4445 0.49496 0.80165 0.0
C880 C 0.68356 0.49616 0.66626 0.0
C881 C 0.65235 0.50761 0.65264 0.0
C882 C 0.66953 0.47695 0.68013 0.0
C883 C 0.62312 0.46912 0.68046 0.0
C884 C 0.59149 0.4806 0.66672 0.0
C885 C 0.60653 0.49963 0.65293 0.0
C886 C 0.70423 0.46516 0.69454 0.0
C887 C 0.54161 0.47297 0.66675 0.0
C888 C 0.58993 0.40465 0.70305 0.0
C889 C 0.57044 0.41178 0.72199 0.0
C890 C 0.60765 0.42312 0.68939 0.0
C891 C 0.60728 0.44913 0.69529 0.0
C892 C 0.5896 0.45614 0.71498 0.0
C893 C 0.57038 0.43739 0.72792 0.0
C894 C 0.62521 0.41493 0.66836 0.0
C895 C 0.5901 0.48347 0.72221 0.0
H896 H 0.71909 0.50216 0.66598 0.0
H897 H 0.58217 0.5087 0.64266 0.0
H898 H 0.69369 0.4679 0.71098 0.0
H899 H 0.70593 0.44434 0.69179 0.0
H900 H 0.73896 0.47346 0.69241 0.0
H901 H 0.5216 0.48338 0.65482 0.0
H902 H 0.53812 0.45223 0.66381 0.0
H903 H 0.52646 0.47679 0.68226 0.0
H904 H 0.58962 0.38474 0.69859 0.0
H905 H 0.55548 0.44268 0.74274 0.0
H906 H 0.66076 0.42186 0.66608 0.0
H907 H 0.604 0.42355 0.65593 0.0
H908 H 0.62448 0.39392 0.66644 0.0
H909 H 0.62499 0.4917 0.72069 0.0
H910 H 0.57892 0.48536 0.73867 0.0
H911 H 0.56709 0.49493 0.71226 0.0
C912 C 0.84969 0.0155 0.15157 0.0
C913 C 0.83573 0.99316 0.16193 0.0
C914 C 0.87015 0.03587 0.16245 0.0
C915 C 0.87561 0.03428 0.18431 0.0
C916 C 0.86086 0.01211 0.19492 0.0
C917 C 0.84212 0.99172 0.18361 0.0
C918 C 0.88647 0.05899 0.15053 0.0
C919 C 0.86541 0.00976 0.21827 0.0
C920 C 0.96653 0.07259 0.2129 0.0
C921 C 0.94154 0.09321 0.22065 0.0
C922 C 0.94589 0.05393 0.20035 0.0
C923 C 0.89851 0.05524 0.1961 0.0
C924 C 0.8729 0.0759 0.20396 0.0
C925 C 0.89497 0.09495 0.2157 0.0
C926 C 0.9749 0.03276 0.19169 0.0
C927 C 0.82197 0.07752 0.20051 0.0
H928 H 0.84452 0.01722 0.13494 0.0
H929 H 0.83306 0.97445 0.19188 0.0
H930 H 0.86903 0.07626 0.15633 0.0
H931 H 0.92367 0.06187 0.15308 0.0
H932 H 0.8801 0.05725 0.13354 0.0
H933 H 0.84892 0.99216 0.22436 0.0
H934 H 0.90207 0.00956 0.22267 0.0
H935 H 0.84976 0.02644 0.22602 0.0
H936 H 0.0023 0.07078 0.21682 0.0
H937 H 0.87562 0.11112 0.22109 0.0
H938 H 0.97442 0.03355 0.17443 0.0
H939 H 0.96082 0.01395 0.19634 0.0
H940 H 0.01094 0.03403 0.19704 0.0
H941 H 0.81378 0.07573 0.18372 0.0
H942 H 0.80758 0.09566 0.2064 0.0
H943 H 0.80473 0.06147 0.20865 0.0
C944 C 0.82031 0.99193 0.66847 0.0
C945 C 0.84839 0.01034 0.65911 0.0
C946 C 0.83917 0.97179 0.67991 0.0
C947 C 0.8872 0.97048 0.68246 0.0
C948 C 0.91571 0.98898 0.67285 0.0
C949 C 0.89593 0.00855 0.66105 0.0
C950 C 0.80767 0.95219 0.68957 0.0
C951 C 0.96695 0.98859 0.6756 0.0
C952 C 0.93123 0.93522 0.72999 0.0
C953 C 0.94542 0.91207 0.72134 0.0
C954 C 0.91245 0.9544 0.7175 0.0
C955 C 0.90744 0.95031 0.69583 0.0
C956 C 0.92161 0.92696 0.68702 0.0
C957 C 0.94064 0.90818 0.69986 0.0
C958 C 0.89825 0.97915 0.72746 0.0
C959 C 0.91644 0.92177 0.66403 0.0
H960 H 0.78352 0.99339 0.66691 0.0
H961 H 0.9175 0.02303 0.65397 0.0
H962 H 0.81797 0.93278 0.68475 0.0
H963 H 0.81034 0.95305 0.70678 0.0
H964 H 0.7714 0.9551 0.68511 0.0
H965 H 0.98435 0.00403 0.66673 0.0
H966 H 0.97558 0.99076 0.69233 0.0
H967 H 0.98075 0.97003 0.67045 0.0
H968 H 0.93527 0.93849 0.74655 0.0
H969 H 0.95143 0.89031 0.69309 0.0
H970 H 0.86123 0.98231 0.72491 0.0
H971 H 0.91686 0.99529 0.72011 0.0
H972 H 0.90505 0.97948 0.74447 0.0
H973 H 0.87998 0.92333 0.65949 0.0
H974 H 0.92884 0.90257 0.65964 0.0
H975 H 0.93578 0.93623 0.65494 0.0
C976 C 0.68029 0.50899 0.16792 0.0
C977 C 0.65251 0.49018 0.1589 0.0
C978 C 0.66123 0.52864 0.17981 0.0
C979 C 0.61338 0.52908 0.18312 0.0
C980 C 0.58516 0.51019 0.17386 0.0
C981 C 0.60508 0.49108 0.16165 0.0
C982 C 0.69235 0.5487 0.1891 0.0
C983 C 0.53411 0.50976 0.17734 0.0
C984 C 0.56958 0.56415 0.23077 0.0
C985 C 0.55463 0.5871 0.22207 0.0
C986 C 0.58886 0.54511 0.21828 0.0
C987 C 0.59294 0.54906 0.19655 0.0
C988 C 0.57759 0.5721 0.18766 0.0
C989 C 0.55863 0.59083 0.20051 0.0
C990 C 0.60476 0.52074 0.22832 0.0
C991 C 0.58139 0.57705 0.16457 0.0
H992 H 0.71701 0.5082 0.16574 0.0
H993 H 0.58377 0.47629 0.15486 0.0
H994 H 0.6811 0.56793 0.18423 0.0
H995 H 0.69039 0.54798 0.20633 0.0
H996 H 0.72855 0.5462 0.18435 0.0
H997 H 0.51692 0.49403 0.16877 0.0
H998 H 0.52673 0.50753 0.19419 0.0
H999 H 0.51902 0.52808 0.17234 0.0
H1000 H 0.56607 0.56099 0.24737 0.0
H1001 H 0.54719 0.60851 0.19363 0.0
H1002 H 0.64176 0.51807 0.22533 0.0
H1003 H 0.58647 0.50424 0.22135 0.0
H1004 H 0.59898 0.52058 0.2454 0.0
H1005 H 0.6177 0.57606 0.15968 0.0
H1006 H 0.56773 0.59595 0.16011 0.0
H1007 H 0.56243 0.56215 0.15581 0.0
C1008 C 0.33969 0.51291 0.35505 0.0
C1009 C 0.35248 0.48788 0.3506 0.0
C1010 C 0.35844 0.53343 0.34381 0.0
C1011 C 0.3915 0.5287 0.32818 0.0
C1012 C 0.40563 0.50344 0.32422 0.0
C1013 C 0.38549 0.48329 0.33532 0.0
C1014 C 0.34177 0.56003 0.34814 0.0
C1015 C 0.44139 0.49764 0.30799 0.0
C1016 C 0.40574 0.57529 0.28348 0.0
C1017 C 0.44414 0.58947 0.28964 0.0
C1018 C 0.38776 0.55584 0.29606 0.0
C1019 C 0.40944 0.54994 0.31513 0.0
C1020 C 0.44864 0.56395 0.32139 0.0
C1021 C 0.46525 0.58371 0.30866 0.0
C1022 C 0.34551 0.54161 0.28891 0.0
C1023 C 0.47334 0.55789 0.34139 0.0
H1024 H 0.31397 0.51631 0.36686 0.0
H1025 H 0.39547 0.46385 0.33207 0.0
H1026 H 0.37104 0.57277 0.35187 0.0
H1027 H 0.32503 0.56779 0.33402 0.0
H1028 H 0.317 0.56057 0.36123 0.0
H1029 H 0.45102 0.47722 0.30794 0.0
H1030 H 0.42833 0.50268 0.29233 0.0
H1031 H 0.47255 0.50932 0.31078 0.0
H1032 H 0.38928 0.57948 0.26893 0.0
H1033 H 0.49525 0.59439 0.3135 0.0
H1034 H 0.31849 0.54271 0.30099 0.0
H1035 H 0.35349 0.5212 0.28665 0.0
H1036 H 0.33167 0.54925 0.27409 0.0
H1037 H 0.4499 0.56026 0.35481 0.0
H1038 H 0.50386 0.57026 0.34381 0.0
H1039 H 0.4844 0.53773 0.3413 0.0
C1040 C 0.15317 0.01264 0.82901 0.0
C1041 C 0.16639 0.00994 0.8499 0.0
C1042 C 0.13373 0.9923 0.81793 0.0
C1043 C 0.1263 0.96872 0.82805 0.0
C1044 C 0.139 0.96582 0.84918 0.0
C1045 C 0.15916 0.98642 0.85982 0.0
C1046 C 0.12095 0.9961 0.79536 0.0
C1047 C 0.13125 0.94098 0.8605 0.0
C1048 C 0.03649 0.92632 0.80287 0.0
C1049 C 0.06349 0.90948 0.7913 0.0
C1050 C 0.05652 0.94505 0.81554 0.0
C1051 C 0.10474 0.94728 0.81645 0.0
C1052 C 0.13219 0.92988 0.80533 0.0
C1053 C 0.11121 0.91098 0.79313 0.0
C1054 C 0.02601 0.96287 0.82754 0.0
C1055 C 0.18372 0.93175 0.80568 0.0
H1056 H 0.1575 0.03085 0.82129 0.0
H1057 H 0.16966 0.98398 0.87587 0.0
H1058 H 0.13822 0.98172 0.78553 0.0
H1059 H 0.08359 0.99335 0.79334 0.0
H1060 H 0.13041 0.01537 0.78959 0.0
H1061 H 0.14232 0.94192 0.87702 0.0
H1062 H 0.09446 0.93571 0.86001 0.0
H1063 H 0.15026 0.92552 0.85265 0.0
H1064 H 0.99955 0.92505 0.8019 0.0
H1065 H 0.1324 0.89765 0.78481 0.0
H1066 H 0.02979 0.98247 0.82131 0.0
H1067 H 0.03628 0.9634 0.84416 0.0
H1068 H 0.9894 0.9572 0.82659 0.0
H1069 H 0.19478 0.94945 0.79764 0.0
H1070 H 0.20009 0.91531 0.79785 0.0
H1071 H 0.19641 0.93285 0.82192 0.0
C1072 C 0.19214 0.13725 0.03012 0.0
C1073 C 0.16349 0.12325 0.01675 0.0
C1074 C 0.18262 0.13898 0.05154 0.0
C1075 C 0.14419 0.12592 0.05983 0.0
C1076 C 0.11406 0.11281 0.04627 0.0
C1077 C 0.12368 0.11199 0.02493 0.0
C1078 C 0.21494 0.15376 0.06538 0.0
C1079 C 0.07282 0.09846 0.05442 0.0
C1080 C 0.14663 0.09848 0.11435 0.0
C1081 C 0.11565 0.1141 0.12492 0.0
C1082 C 0.15774 0.10287 0.09343 0.0
C1083 C 0.13769 0.12355 0.08276 0.0
C1084 C 0.10831 0.14026 0.09361 0.0
C1085 C 0.09755 0.13531 0.11459 0.0
C1086 C 0.18939 0.08464 0.0825 0.0
C1087 C 0.08683 0.16273 0.08285 0.0
H1088 H 0.22303 0.14603 0.02408 0.0
H1089 H 0.10039 0.10188 0.01469 0.0
H1090 H 0.19571 0.16533 0.07681 0.0
H1091 H 0.23649 0.1403 0.07427 0.0
H1092 H 0.23779 0.16656 0.05627 0.0
H1093 H 0.05148 0.09036 0.04171 0.0
H1094 H 0.08418 0.08264 0.06459 0.0
H1095 H 0.05129 0.11117 0.06402 0.0
H1096 H 0.16166 0.08244 0.12239 0.0
H1097 H 0.07363 0.14749 0.12265 0.0
H1098 H 0.21793 0.09522 0.07504 0.0
H1099 H 0.17048 0.07447 0.07 0.0
H1100 H 0.20395 0.07029 0.09329 0.0
H1101 H 0.11303 0.17372 0.07408 0.0
H1102 H 0.06967 0.17567 0.09401 0.0
H1103 H 0.06107 0.15589 0.07144 0.0
C1104 C 0.30767 0.36558 0.53103 0.0
C1105 C 0.33967 0.37715 0.51773 0.0
C1106 C 0.31647 0.36306 0.5524 0.0
C1107 C 0.35812 0.37251 0.56071 0.0
C1108 C 0.39115 0.38347 0.54729 0.0
C1109 C 0.38163 0.38553 0.52596 0.0
C1110 C 0.28048 0.35106 0.5662 0.0
C1111 C 0.43595 0.39374 0.55555 0.0
C1112 C 0.35257 0.3914 0.61758 0.0
C1113 C 0.37133 0.37006 0.62728 0.0
C1114 C 0.3498 0.39288 0.59583 0.0
C1115 C 0.36571 0.37233 0.5836 0.0
C1116 C 0.38638 0.35116 0.59339 0.0
C1117 C 0.38893 0.35028 0.61521 0.0
C1118 C 0.32797 0.4159 0.586 0.0
C1119 C 0.40361 0.32887 0.58091 0.0
H1120 H 0.27501 0.35926 0.52488 0.0
H1121 H 0.40698 0.394 0.51573 0.0
H1122 H 0.29565 0.33562 0.57567 0.0
H1123 H 0.26704 0.36552 0.57715 0.0
H1124 H 0.25142 0.34306 0.55713 0.0
H1125 H 0.4592 0.40018 0.5429 0.0
H1126 H 0.4294 0.41009 0.56603 0.0
H1127 H 0.45355 0.37898 0.56487 0.0
H1128 H 0.33855 0.40651 0.62708 0.0
H1129 H 0.40278 0.33365 0.62289 0.0
H1130 H 0.29557 0.41019 0.57826 0.0
H1131 H 0.35074 0.42404 0.57386 0.0
H1132 H 0.32035 0.43097 0.59759 0.0
H1133 H 0.37419 0.31861 0.57383 0.0
H1134 H 0.42308 0.31525 0.59065 0.0
H1135 H 0.42585 0.33555 0.568 0.0
C1136 C 0.69941 0.36592 0.97994 0.0
C1137 C 0.66357 0.37327 0.99303 0.0
C1138 C 0.692 0.36148 0.95865 0.0
C1139 C 0.64747 0.36408 0.95022 0.0
C1140 C 0.61112 0.37156 0.96338 0.0
C1141 C 0.61967 0.37621 0.98459 0.0
C1142 C 0.73188 0.35383 0.94517 0.0
C1143 C 0.56307 0.37417 0.95516 0.0
C1144 C 0.6436 0.36918 0.89102 0.0
C1145 C 0.6383 0.34355 0.88536 0.0
C1146 C 0.64418 0.37646 0.91215 0.0
C1147 C 0.63904 0.35769 0.92787 0.0
C1148 C 0.63017 0.33212 0.9221 0.0
C1149 C 0.63002 0.32539 0.90096 0.0
C1150 C 0.65331 0.40396 0.91763 0.0
C1151 C 0.62363 0.31153 0.93826 0.0
H1152 H 0.7335 0.36396 0.98634 0.0
H1153 H 0.59177 0.38172 0.9947 0.0
H1154 H 0.72578 0.3345 0.93874 0.0
H1155 H 0.73527 0.36709 0.93181 0.0
H1156 H 0.76466 0.35376 0.9539 0.0
H1157 H 0.53908 0.38134 0.96717 0.0
H1158 H 0.56263 0.38733 0.94166 0.0
H1159 H 0.55043 0.35541 0.94958 0.0
H1160 H 0.65005 0.38327 0.87903 0.0
H1161 H 0.62526 0.3056 0.89662 0.0
H1162 H 0.68831 0.40587 0.92413 0.0
H1163 H 0.62912 0.41051 0.92976 0.0
H1164 H 0.6505 0.41666 0.90387 0.0
H1165 H 0.65647 0.30818 0.94642 0.0
H1166 H 0.61189 0.29328 0.93128 0.0
H1167 H 0.59838 0.31753 0.95013 0.0
C1168 C 0.86931 0.11357 0.48231 0.0
C1169 C 0.83134 0.12455 0.49219 0.0
C1170 C 0.87861 0.11798 0.46113 0.0
C1171 C 0.85006 0.13435 0.44954 0.0
C1172 C 0.81161 0.14541 0.45932 0.0
C1173 C 0.80248 0.14019 0.48038 0.0
C1174 C 0.91963 0.10554 0.4513 0.0
C1175 C 0.78046 0.16317 0.44761 0.0
C1176 C 0.89615 0.17133 0.40317 0.0
C1177 C 0.87555 0.15866 0.38636 0.0
C1178 C 0.88978 0.16291 0.42369 0.0
C1179 C 0.86184 0.14131 0.42761 0.0
C1180 C 0.84297 0.12758 0.4106 0.0
C1181 C 0.85018 0.13639 0.39012 0.0
C1182 C 0.91107 0.17798 0.44125 0.0
C1183 C 0.81335 0.10432 0.41411 0.0
H1184 H 0.89254 0.10184 0.49118 0.0
H1185 H 0.77247 0.14837 0.48754 0.0
H1186 H 0.90972 0.09598 0.43656 0.0
H1187 H 0.94563 0.12026 0.44739 0.0
H1188 H 0.93557 0.09128 0.46175 0.0
H1189 H 0.75143 0.16979 0.4573 0.0
H1190 H 0.80014 0.18007 0.44221 0.0
H1191 H 0.76657 0.15352 0.43359 0.0
H1192 H 0.91602 0.18848 0.40025 0.0
H1193 H 0.834 0.12666 0.37716 0.0
H1194 H 0.93045 0.16522 0.45174 0.0
H1195 H 0.88379 0.18695 0.45067 0.0
H1196 H 0.93454 0.19316 0.43552 0.0
H1197 H 0.83054 0.09084 0.4248 0.0
H1198 H 0.80519 0.09429 0.39934 0.0
H1199 H 0.78084 0.11003 0.42161 0.0
C1200 C 0.86451 0.86025 0.98852 0.0
C1201 C 0.83125 0.87758 0.99496 0.0
C1202 C 0.87638 0.85813 0.96736 0.0
C1203 C 0.8539 0.87346 0.95243 0.0
C1204 C 0.81873 0.8901 0.95892 0.0
C1205 C 0.8082 0.89214 0.98014 0.0
C1206 C 0.91431 0.84039 0.96114 0.0
C1207 C 0.79324 0.90647 0.94354 0.0
C1208 C 0.90754 0.89738 0.90252 0.0
C1209 C 0.88327 0.88343 0.88756 0.0
C1210 C 0.90112 0.89282 0.92383 0.0
C1211 C 0.8692 0.87401 0.93029 0.0
C1212 C 0.84744 0.85842 0.91518 0.0
C1213 C 0.85474 0.86335 0.8939 0.0
C1214 C 0.92556 0.90966 0.93934 0.0
C1215 C 0.81345 0.83806 0.9214 0.0
H1216 H 0.88239 0.84911 1.00011 0.0
H1217 H 0.78235 0.90544 0.98525 0.0
H1218 H 0.90394 0.82869 0.94754 0.0
H1219 H 0.94474 0.85173 0.95642 0.0
H1220 H 0.9243 0.82753 0.97406 0.0
H1221 H 0.76463 0.91692 0.95092 0.0
H1222 H 0.81707 0.92056 0.93648 0.0
H1223 H 0.77926 0.89456 0.93075 0.0
H1224 H 0.92934 0.91303 0.89753 0.0
H1225 H 0.83556 0.85279 0.88228 0.0
H1226 H 0.93998 0.89813 0.95219 0.0
H1227 H 0.90086 0.92315 0.94629 0.0
H1228 H 0.95363 0.92086 0.93201 0.0
H1229 H 0.82623 0.82695 0.93485 0.0
H1230 H 0.80589 0.8248 0.90836 0.0
H1231 H 0.78104 0.84716 0.92625 0.0
C1232 C 0.65069 0.65107 0.48366 0.0
C1233 C 0.68145 0.63336 0.4918 0.0
C1234 C 0.63827 0.65041 0.46251 0.0
C1235 C 0.65803 0.632 0.44923 0.0
C1236 C 0.68984 0.6144 0.45744 0.0
C1237 C 0.70068 0.6151 0.47869 0.0
C1238 C 0.60344 0.66903 0.4545 0.0
C1239 C 0.71241 0.59477 0.44378 0.0
C1240 C 0.60496 0.60778 0.39917 0.0
C1241 C 0.6324 0.61979 0.3842 0.0
C1242 C 0.61056 0.61307 0.42042 0.0
C1243 C 0.64505 0.63045 0.42682 0.0
C1244 C 0.6708 0.64387 0.41161 0.0
C1245 C 0.66408 0.63838 0.3904 0.0
C1246 C 0.58183 0.59865 0.43606 0.0
C1247 C 0.70795 0.66248 0.41777 0.0
H1248 H 0.63571 0.66507 0.49394 0.0
H1249 H 0.72465 0.60153 0.48508 0.0
H1250 H 0.61779 0.68004 0.44126 0.0
H1251 H 0.57306 0.65852 0.44859 0.0
H1252 H 0.59216 0.68256 0.46672 0.0
H1253 H 0.73784 0.58324 0.45242 0.0
H1254 H 0.68617 0.58173 0.43719 0.0
H1255 H 0.72993 0.60425 0.43054 0.0
H1256 H 0.58077 0.59322 0.39428 0.0
H1257 H 0.68568 0.64736 0.37877 0.0
H1258 H 0.56881 0.61168 0.44823 0.0
H1259 H 0.60315 0.58414 0.44391 0.0
H1260 H 0.55233 0.5888 0.42861 0.0
H1261 H 0.69548 0.67579 0.42985 0.0
H1262 H 0.72063 0.67371 0.40426 0.0
H1263 H 0.73709 0.65191 0.42454 0.0
C1264 C 0.3083 0.61821 0.0321 0.0
C1265 C 0.3398 0.62525 0.01678 0.0
C1266 C 0.31799 0.62224 0.05323 0.0
C1267 C 0.36016 0.63368 0.05903 0.0
C1268 C 0.39221 0.64067 0.04348 0.0
C1269 C 0.38162 0.63631 0.02245 0.0
C1270 C 0.28295 0.61442 0.06931 0.0
C1271 C 0.43737 0.65296 0.04905 0.0
C1272 C 0.35592 0.66558 0.11179 0.0
C1273 C 0.37411 0.64671 0.12467 0.0
C1274 C 0.35373 0.66221 0.09018 0.0
C1275 C 0.36952 0.63921 0.08134 0.0
C1276 C 0.3903 0.62068 0.09422 0.0
C1277 C 0.39252 0.62472 0.11583 0.0
C1278 C 0.33191 0.68258 0.077 0.0
C1279 C 0.40735 0.59589 0.0854 0.0
H1280 H 0.27611 0.6095 0.02751 0.0
H1281 H 0.4059 0.64157 0.01042 0.0
H1282 H 0.29846 0.60118 0.08072 0.0
H1283 H 0.27136 0.6314 0.07805 0.0
H1284 H 0.2526 0.60498 0.06224 0.0
H1285 H 0.45907 0.65654 0.03515 0.0
H1286 H 0.43134 0.67134 0.05706 0.0
H1287 H 0.45639 0.64065 0.06003 0.0
H1288 H 0.34153 0.68252 0.11877 0.0
H1289 H 0.40605 0.61004 0.12592 0.0
H1290 H 0.29856 0.67556 0.07101 0.0
H1291 H 0.35372 0.6871 0.06335 0.0
H1292 H 0.32599 0.70038 0.08591 0.0
H1293 H 0.37776 0.584 0.08048 0.0
H1294 H 0.42759 0.58497 0.09695 0.0
H1295 H 0.42876 0.59936 0.07143 0.0
C1296 C 0.12978 0.87034 0.52613 0.0
C1297 C 0.17553 0.86929 0.51974 0.0
C1298 C 0.11815 0.86838 0.54732 0.0
C1299 C 0.15321 0.86576 0.56236 0.0
C1300 C 0.19951 0.86529 0.55591 0.0
C1301 C 0.21004 0.86689 0.53468 0.0
C1302 C 0.06844 0.86866 0.55358 0.0
C1303 C 0.23804 0.86293 0.57143 0.0
C1304 C 0.13978 0.88313 0.61922 0.0
C1305 C 0.13791 0.85908 0.62853 0.0
C1306 C 0.14147 0.88567 0.5975 0.0
C1307 C 0.14214 0.86356 0.5849 0.0
C1308 C 0.13767 0.83922 0.59427 0.0
C1309 C 0.13551 0.83728 0.61607 0.0
C1310 C 0.14572 0.91195 0.58815 0.0
C1311 C 0.1383 0.8152 0.5814 0.0
H1312 H 0.1031 0.87201 0.51451 0.0
H1313 H 0.24544 0.86632 0.52971 0.0
H1314 H 0.05924 0.85039 0.56123 0.0
H1315 H 0.06238 0.88402 0.56506 0.0
H1316 H 0.04539 0.87152 0.54005 0.0
H1317 H 0.27218 0.86339 0.56387 0.0
H1318 H 0.23643 0.87867 0.58291 0.0
H1319 H 0.2345 0.8448 0.58017 0.0
H1320 H 0.14191 0.89991 0.629 0.0
H1321 H 0.13457 0.81869 0.62341 0.0
H1322 H 0.12193 0.91409 0.57483 0.0
H1323 H 0.18093 0.91481 0.58213 0.0
H1324 H 0.13854 0.92711 0.59972 0.0
H1325 H 0.11435 0.81673 0.56808 0.0
H1326 H 0.12899 0.79811 0.59072 0.0
H1327 H 0.17305 0.81243 0.5749 0.0
C1328 C 0.17295 0.26138 0.35811 0.0
C1329 C 0.1518 0.2845 0.36278 0.0
C1330 C 0.15243 0.2439 0.34439 0.0
C1331 C 0.10917 0.24942 0.33562 0.0
C1332 C 0.08718 0.27252 0.34076 0.0
C1333 C 0.10913 0.28998 0.35406 0.0
C1334 C 0.17756 0.21984 0.33884 0.0
C1335 C 0.04078 0.27892 0.33201 0.0
C1336 C 0.07631 0.21627 0.28515 0.0
C1337 C 0.05199 0.19496 0.29238 0.0
C1338 C 0.09511 0.23416 0.299 0.0
C1339 C 0.08761 0.2313 0.32065 0.0
C1340 C 0.06049 0.21074 0.32798 0.0
C1341 C 0.04357 0.19264 0.31381 0.0
C1342 C 0.12452 0.25548 0.29045 0.0
C1343 C 0.04994 0.20759 0.35083 0.0
H1344 H 0.20623 0.25737 0.36471 0.0
H1345 H 0.09293 0.30793 0.3577 0.0
H1346 H 0.15656 0.20293 0.34303 0.0
H1347 H 0.18341 0.21912 0.32178 0.0
H1348 H 0.21108 0.21848 0.34687 0.0
H1349 H 0.02712 0.29691 0.33853 0.0
H1350 H 0.04299 0.28086 0.31484 0.0
H1351 H 0.01616 0.26327 0.33534 0.0
H1352 H 0.08129 0.21884 0.26866 0.0
H1353 H 0.02393 0.17655 0.31959 0.0
H1354 H 0.16088 0.25153 0.29406 0.0
H1355 H 0.11586 0.27393 0.29779 0.0
H1356 H 0.12095 0.25747 0.27332 0.0
H1357 H 0.0818 0.20327 0.35945 0.0
H1358 H 0.02479 0.19204 0.35375 0.0
H1359 H 0.03618 0.22557 0.35727 0.0
C1360 C 0.38382 0.2122 0.84862 0.0
C1361 C 0.34563 0.21847 0.86071 0.0
C1362 C 0.40346 0.22994 0.83489 0.0
C1363 C 0.38413 0.25447 0.83306 0.0
C1364 C 0.34564 0.26094 0.84528 0.0
C1365 C 0.32698 0.24289 0.85906 0.0
C1366 C 0.44496 0.22247 0.82239 0.0
C1367 C 0.324 0.28686 0.84367 0.0
C1368 C 0.45999 0.30773 0.81272 0.0
C1369 C 0.44661 0.30939 0.79176 0.0
C1370 C 0.43986 0.29004 0.82627 0.0
C1371 C 0.4051 0.27359 0.81882 0.0
C1372 C 0.39105 0.27518 0.79776 0.0
C1373 C 0.41224 0.29296 0.78445 0.0
C1374 C 0.45606 0.28891 0.84858 0.0
C1375 C 0.354 0.25794 0.78926 0.0
H1376 H 0.39849 0.19338 0.84999 0.0
H1377 H 0.29711 0.24766 0.8682 0.0
H1378 H 0.43767 0.22433 0.80552 0.0
H1379 H 0.47394 0.23548 0.826 0.0
H1380 H 0.45573 0.20261 0.8256 0.0
H1381 H 0.29396 0.28882 0.8541 0.0
H1382 H 0.34939 0.30186 0.84769 0.0
H1383 H 0.3129 0.29039 0.82741 0.0
H1384 H 0.48635 0.32036 0.8187 0.0
H1385 H 0.4025 0.29359 0.76829 0.0
H1386 H 0.46949 0.26968 0.85206 0.0
H1387 H 0.42702 0.29229 0.8593 0.0
H1388 H 0.48332 0.30317 0.85193 0.0
H1389 H 0.36491 0.2378 0.79038 0.0
H1390 H 0.34574 0.26223 0.77276 0.0
H1391 H 0.32244 0.25984 0.79868 0.0
C1392 C 0.62413 0.21084 0.66276 0.0
C1393 C 0.66554 0.21684 0.65286 0.0
C1394 C 0.60339 0.22811 0.67647 0.0
C1395 C 0.62521 0.2517 0.68085 0.0
C1396 C 0.66732 0.25771 0.67101 0.0
C1397 C 0.68669 0.24033 0.65693 0.0
C1398 C 0.55792 0.22122 0.68615 0.0
C1399 C 0.6921 0.28242 0.67547 0.0
C1400 C 0.55418 0.30695 0.70075 0.0
C1401 C 0.56239 0.30631 0.72232 0.0
C1402 C 0.57398 0.28921 0.68721 0.0
C1403 C 0.60337 0.27036 0.69525 0.0
C1404 C 0.61183 0.26945 0.71697 0.0
C1405 C 0.59098 0.28728 0.73026 0.0
C1406 C 0.56346 0.29075 0.66422 0.0
C1407 C 0.64325 0.24974 0.72613 0.0
H1408 H 0.60774 0.19268 0.65956 0.0
H1409 H 0.71897 0.24484 0.64945 0.0
H1410 H 0.56095 0.22105 0.70335 0.0
H1411 H 0.53212 0.23576 0.68205 0.0
H1412 H 0.54517 0.20229 0.68094 0.0
H1413 H 0.72533 0.28382 0.66717 0.0
H1414 H 0.6706 0.29873 0.67075 0.0
H1415 H 0.69844 0.28426 0.69244 0.0
H1416 H 0.53225 0.32145 0.69425 0.0
H1417 H 0.59743 0.2864 0.74685 0.0
H1418 H 0.54912 0.27234 0.65871 0.0
H1419 H 0.59537 0.29438 0.65535 0.0
H1420 H 0.53876 0.30606 0.66053 0.0
H1421 H 0.62993 0.23036 0.72271 0.0
H1422 H 0.64704 0.25181 0.74325 0.0
H1423 H 0.67755 0.25132 0.71884 0.0
C1424 C 0.82426 0.28497 0.17465 0.0
C1425 C 0.83669 0.28506 0.1535 0.0
C1426 C 0.84404 0.26799 0.18884 0.0
C1427 C 0.87627 0.25006 0.18173 0.0
C1428 C 0.88819 0.24949 0.16036 0.0
C1429 C 0.86859 0.26711 0.14655 0.0
C1430 C 0.83056 0.26934 0.2115 0.0
C1431 C 0.922 0.2304 0.15214 0.0
C1432 C 0.95936 0.22144 0.22071 0.0
C1433 C 0.93925 0.19766 0.22446 0.0
C1434 C 0.93915 0.23874 0.20687 0.0
C1435 C 0.89774 0.23205 0.19671 0.0
C1436 C 0.87703 0.20808 0.2008 0.0
C1437 C 0.89841 0.19103 0.21446 0.0
C1438 C 0.96247 0.26401 0.20289 0.0
C1439 C 0.8329 0.20019 0.19038 0.0
H1440 H 0.79873 0.29815 0.18021 0.0
H1441 H 0.87892 0.26705 0.13036 0.0
H1442 H 0.81564 0.25087 0.21654 0.0
H1443 H 0.86128 0.27293 0.22123 0.0
H1444 H 0.80535 0.28459 0.21458 0.0
H1445 H 0.92656 0.23186 0.13501 0.0
H1446 H 0.95569 0.23333 0.15973 0.0
H1447 H 0.91041 0.21079 0.15598 0.0
H1448 H 0.99129 0.2263 0.22835 0.0
H1449 H 0.88379 0.17226 0.21696 0.0
H1450 H 0.93896 0.2798 0.20673 0.0
H1451 H 0.97118 0.26578 0.18614 0.0
H1452 H 0.9943 0.26636 0.21215 0.0
H1453 H 0.80618 0.21465 0.19321 0.0
H1454 H 0.82015 0.18145 0.19606 0.0
H1455 H 0.83808 0.19902 0.17331 0.0
C1456 C 0.88259 0.70734 0.67246 0.0
C1457 C 0.85376 0.71157 0.65533 0.0
C1458 C 0.90062 0.72761 0.68408 0.0
C1459 C 0.89154 0.75291 0.6779 0.0
C1460 C 0.86546 0.75745 0.65974 0.0
C1461 C 0.84621 0.73676 0.64886 0.0
C1462 C 0.9278 0.72189 0.7035 0.0
C1463 C 0.85674 0.78419 0.65217 0.0
C1464 C 0.8953 0.8024 0.7209 0.0
C1465 C 0.9408 0.81073 0.71988 0.0
C1466 C 0.87847 0.78396 0.70702 0.0
C1467 C 0.90738 0.77442 0.6912 0.0
C1468 C 0.95249 0.78404 0.68925 0.0
C1469 C 0.96891 0.80168 0.70389 0.0
C1470 C 0.83052 0.77374 0.71002 0.0
C1471 C 0.98392 0.77522 0.67212 0.0
H1472 H 0.89032 0.68805 0.67719 0.0
H1473 H 0.82402 0.74046 0.63573 0.0
H1474 H 0.96245 0.73046 0.70235 0.0
H1475 H 0.91084 0.73048 0.71723 0.0
H1476 H 0.93137 0.70112 0.70628 0.0
H1477 H 0.841 0.78443 0.63644 0.0
H1478 H 0.8335 0.79401 0.66313 0.0
H1479 H 0.88918 0.79527 0.6517 0.0
H1480 H 0.87331 0.8094 0.73303 0.0
H1481 H 0.00397 0.80829 0.70285 0.0
H1482 H 0.832 0.75332 0.71439 0.0
H1483 H 0.81091 0.77501 0.6953 0.0
H1484 H 0.81164 0.78413 0.72233 0.0
H1485 H 0.99569 0.75565 0.67552 0.0
H1486 H 0.0145 0.78776 0.67055 0.0
H1487 H 0.96564 0.77468 0.65699 0.0
C1488 C 0.62171 0.76716 0.14449 0.0
C1489 C 0.65377 0.78488 0.15211 0.0
C1490 C 0.60237 0.7485 0.15757 0.0
C1491 C 0.61477 0.74778 0.17886 0.0
C1492 C 0.64689 0.76562 0.18669 0.0
C1493 C 0.66632 0.78371 0.17321 0.0
C1494 C 0.5687 0.72952 0.14861 0.0
C1495 C 0.66066 0.76566 0.20935 0.0
C1496 C 0.53456 0.71535 0.21735 0.0
C1497 C 0.5574 0.69249 0.22122 0.0
C1498 C 0.55278 0.7335 0.20354 0.0
C1499 C 0.59428 0.72838 0.19304 0.0
C1500 C 0.61697 0.70507 0.19661 0.0
C1501 C 0.59853 0.68753 0.21085 0.0
C1502 C 0.52816 0.75839 0.20056 0.0
C1503 C 0.66081 0.69866 0.18545 0.0
H1504 H 0.61129 0.768 0.12832 0.0
H1505 H 0.6918 0.79684 0.17923 0.0
H1506 H 0.58086 0.70986 0.15142 0.0
H1507 H 0.53518 0.73133 0.15652 0.0
H1508 H 0.56357 0.73218 0.13162 0.0
H1509 H 0.68501 0.78133 0.21311 0.0
H1510 H 0.62995 0.76765 0.21934 0.0
H1511 H 0.67682 0.74729 0.21345 0.0
H1512 H 0.50295 0.71933 0.22548 0.0
H1513 H 0.6162 0.66981 0.21374 0.0
H1514 H 0.51967 0.76115 0.1839 0.0
H1515 H 0.55079 0.77444 0.20526 0.0
H1516 H 0.4961 0.75934 0.20979 0.0
H1517 H 0.65582 0.70016 0.16837 0.0
H1518 H 0.67286 0.67917 0.18917 0.0
H1519 H 0.68801 0.71247 0.18981 0.0
C1520 C 0.33491 0.76523 0.36315 0.0
C1521 C 0.34571 0.79047 0.3578 0.0
C1522 C 0.35523 0.74474 0.35269 0.0
C1523 C 0.38686 0.74968 0.33648 0.0
C1524 C 0.39935 0.77507 0.33165 0.0
C1525 C 0.37883 0.79512 0.34245 0.0
C1526 C 0.34124 0.71788 0.35829 0.0
C1527 C 0.43297 0.78114 0.31447 0.0
C1528 C 0.4635 0.69818 0.31455 0.0
C1529 C 0.4415 0.69235 0.29564 0.0
C1530 C 0.44573 0.7164 0.32827 0.0
C1531 C 0.40423 0.7286 0.32333 0.0
C1532 C 0.38064 0.72191 0.30491 0.0
C1533 C 0.39986 0.70417 0.29127 0.0
C1534 C 0.47215 0.72318 0.3477 0.0
C1535 C 0.33568 0.73408 0.29924 0.0
H1536 H 0.30916 0.76147 0.37491 0.0
H1537 H 0.38808 0.81457 0.33855 0.0
H1538 H 0.32097 0.70948 0.34538 0.0
H1539 H 0.37181 0.70581 0.36046 0.0
H1540 H 0.32032 0.71714 0.37272 0.0
H1541 H 0.44133 0.80178 0.31362 0.0
H1542 H 0.46509 0.77043 0.31682 0.0
H1543 H 0.41846 0.77511 0.29928 0.0
H1544 H 0.49536 0.68901 0.31853 0.0
H1545 H 0.38219 0.69995 0.27713 0.0
H1546 H 0.44969 0.72181 0.36157 0.0
H1547 H 0.48442 0.74317 0.34664 0.0
H1548 H 0.50216 0.71067 0.35007 0.0
H1549 H 0.31118 0.73235 0.31236 0.0
H1550 H 0.31994 0.72535 0.2852 0.0
H1551 H 0.34107 0.75469 0.29624 0.0
C1552 C 0.13116 0.73364 0.86668 0.0
C1553 C 0.16788 0.71889 0.85969 0.0
C1554 C 0.1108 0.75186 0.85367 0.0
C1555 C 0.12769 0.75553 0.83322 0.0
C1556 C 0.16524 0.74103 0.82621 0.0
C1557 C 0.18479 0.72289 0.83949 0.0
C1558 C 0.07056 0.7668 0.86166 0.0
C1559 C 0.18463 0.74458 0.80461 0.0
C1560 C 0.04917 0.78299 0.7919 0.0
C1561 C 0.0611 0.80881 0.79245 0.0
C1562 C 0.06987 0.76555 0.80543 0.0
C1563 C 0.10517 0.77396 0.81893 0.0
C1564 C 0.11869 0.79994 0.8188 0.0
C1565 C 0.09568 0.81721 0.80587 0.0
C1566 C 0.05334 0.73825 0.80554 0.0
C1567 C 0.15741 0.80949 0.83228 0.0
H1568 H 0.1176 0.73052 0.88218 0.0
H1569 H 0.21367 0.71191 0.83408 0.0
H1570 H 0.07801 0.78751 0.8607 0.0
H1571 H 0.04018 0.763 0.85177 0.0
H1572 H 0.06192 0.76197 0.87803 0.0
H1573 H 0.2153 0.73269 0.80189 0.0
H1574 H 0.1584 0.73948 0.79282 0.0
H1575 H 0.194 0.76485 0.80206 0.0
H1576 H 0.02248 0.77662 0.78136 0.0
H1577 H 0.10519 0.8372 0.80594 0.0
H1578 H 0.04217 0.73281 0.82145 0.0
H1579 H 0.08165 0.7254 0.80116 0.0
H1580 H 0.02437 0.73504 0.79465 0.0
H1581 H 0.14839 0.80712 0.84894 0.0
H1582 H 0.16556 0.82987 0.82936 0.0
H1583 H 0.18857 0.79811 0.82939 0.0
loop_
_geom_bond_atom_site_label_1
_geom_bond_atom_site_label_2
_geom_bond_distance
_geom_bond_site_symmetry_2
_ccdc_geom_bond_type
C0 C1 1.391 . S
C0 C4 1.391 . S
C0 H42 0.948 . S
C1 C0 1.391 . S
C1 C2 1.391 . S
C2 C1 1.391 . S
C2 H58 0.947 . S
C2 C59 1.392 . S
C3 C4 1.391 . S
C3 C7 1.397 . S
C3 C59 1.419 . S
C4 C0 1.391 . S
C4 C3 1.391 . S
C4 C5 1.399 . S
C5 C4 1.399 . S
C5 C8 1.396 . S
C5 C17 1.453 . S
C5 C18 1.684 . S
H6 C30 0.948 . S
C7 C3 1.397 . S
C7 C8 1.394 . S
C7 C26 1.723 . S
C8 C5 1.396 . S
C8 C7 1.394 . S
C8 C38 1.723 . S
H9 C32 0.947 . S
H10 C33 0.948 . S
H11 C39 0.982 . S
H12 C40 0.979 . S
H13 C40 0.980 . S
H14 C40 0.983 . S
H15 C39 0.979 . S
H16 C39 0.977 . S
C17 C5 1.453 . S
C17 H46 0.982 . S
C17 H47 0.979 . S
C17 H48 0.977 . S
C18 C5 1.684 . S
C18 H43 0.979 . S
C18 H44 0.980 . S
C18 H45 0.983 . S
C19 C20 1.391 . S
C19 C24 1.391 . S
C19 H49 0.948 . S
C20 C19 1.391 . S
C20 C21 1.391 . S
C21 C20 1.391 . S
C21 C22 1.392 . S
C21 H50 0.947 . S
C22 C21 1.392 . S
C22 C23 1.419 . S
C22 H51 0.948 . S
C23 C22 1.419 . S
C23 C24 1.391 . S
C23 C27 1.397 . S
C24 C19 1.391 . S
C24 C23 1.391 . S
C24 C25 1.399 . S
C25 C24 1.399 . S
C25 C26 1.396 . S
C25 C28 1.453 . S
C25 C29 1.684 . S
C26 C7 1.723 . S
C26 C25 1.396 . S
C26 C27 1.394 . S
C27 C23 1.397 . S
C27 C26 1.394 . S
C27 C37 1.723 . S
C28 C25 1.453 . S
C28 H52 0.982 . S
C28 H53 0.979 . S
C28 H54 0.977 . S
C29 C25 1.684 . S
C29 H55 0.979 . S
C29 H56 0.980 . S
C29 H57 0.983 . S
C30 H6 0.948 . S
C30 C31 1.391 . S
C30 C35 1.391 . S
C31 C30 1.391 . S
C31 C32 1.391 . S
C32 H9 0.947 . S
C32 C31 1.391 . S
C32 C33 1.392 . S
C33 H10 0.948 . S
C33 C32 1.392 . S
C33 C34 1.419 . S
C34 C33 1.419 . S
C34 C35 1.391 . S
C34 C38 1.397 . S
C35 C30 1.391 . S
C35 C34 1.391 . S
C35 C36 1.399 . S
C36 C35 1.399 . S
C36 C37 1.396 . S
C36 C39 1.453 . S
C36 C40 1.684 . S
C37 C27 1.723 . S
C37 C36 1.396 . S
C37 C38 1.394 . S
C38 C8 1.723 . S
C38 C34 1.397 . S
C38 C37 1.394 . S
C39 H11 0.982 . S
C39 H15 0.979 . S
C39 H16 0.977 . S
C39 C36 1.453 . S
C40 H12 0.979 . S
C40 H13 0.980 . S
C40 H14 0.983 . S
C40 C36 1.684 . S
H41 C59 0.948 . S
H42 C0 0.948 . S
H43 C18 0.979 . S
H44 C18 0.980 . S
H45 C18 0.983 . S
H46 C17 0.982 . S
H47 C17 0.979 . S
H48 C17 0.977 . S
H49 C19 0.948 . S
H50 C21 0.947 . S
H51 C22 0.948 . S
H52 C28 0.982 . S
H53 C28 0.979 . S
H54 C28 0.977 . S
H55 C29 0.979 . S
H56 C29 0.980 . S
H57 C29 0.983 . S
H58 C2 0.947 . S
C59 C2 1.392 . S
C59 C3 1.419 . S
C59 H41 0.948 . S
C60 C61 1.391 . S
C60 C64 1.391 . S
C60 H102 0.948 . S
C61 C60 1.391 . S
C61 C62 1.391 . S
C62 C61 1.391 . S
C62 H118 0.947 . S
C62 C119 1.392 . S
C63 C64 1.391 . S
C63 C67 1.397 . S
C63 C119 1.419 . S
C64 C60 1.391 . S
C64 C63 1.391 . S
C64 C65 1.399 . S
C65 C64 1.399 . S
C65 C68 1.396 . S
C65 C77 1.453 . S
C65 C78 1.684 . S
H66 C90 0.948 . S
C67 C63 1.397 . S
C67 C68 1.394 . S
C67 C86 1.723 . S
C68 C65 1.396 . S
C68 C67 1.394 . S
C68 C98 1.723 . S
H69 C92 0.947 . S
H70 C93 0.948 . S
H71 C99 0.982 . S
H72 C100 0.979 . S
H73 C100 0.980 . S
H74 C100 0.983 . S
H75 C99 0.979 . S
H76 C99 0.977 . S
C77 C65 1.453 . S
C77 H106 0.982 . S
C77 H107 0.979 . S
C77 H108 0.977 . S
C78 C65 1.684 . S
C78 H103 0.979 . S
C78 H104 0.980 . S
C78 H105 0.983 . S
C79 C80 1.391 . S
C79 C84 1.391 . S
C79 H109 0.948 . S
C80 C79 1.391 . S
C80 C81 1.391 . S
C81 C80 1.391 . S
C81 C82 1.392 . S
C81 H110 0.947 . S
C82 C81 1.392 . S
C82 C83 1.419 . S
C82 H111 0.948 . S
C83 C82 1.419 . S
C83 C84 1.391 . S
C83 C87 1.397 . S
C84 C79 1.391 . S
C84 C83 1.391 . S
C84 C85 1.399 . S
C85 C84 1.399 . S
C85 C86 1.396 . S
C85 C88 1.453 . S
C85 C89 1.684 . S
C86 C67 1.723 . S
C86 C85 1.396 . S
C86 C87 1.394 . S
C87 C83 1.397 . S
C87 C86 1.394 . S
C87 C97 1.723 . S
C88 C85 1.453 . S
C88 H112 0.982 . S
C88 H113 0.979 . S
C88 H114 0.977 . S
C89 C85 1.684 . S
C89 H115 0.979 . S
C89 H116 0.980 . S
C89 H117 0.983 . S
C90 H66 0.948 . S
C90 C91 1.391 . S
C90 C95 1.391 . S
C91 C90 1.391 . S
C91 C92 1.391 . S
C92 H69 0.947 . S
C92 C91 1.391 . S
C92 C93 1.392 . S
C93 H70 0.948 . S
C93 C92 1.392 . S
C93 C94 1.419 . S
C94 C93 1.419 . S
C94 C95 1.391 . S
C94 C98 1.397 . S
C95 C90 1.391 . S
C95 C94 1.391 . S
C95 C96 1.399 . S
C96 C95 1.399 . S
C96 C97 1.396 . S
C96 C99 1.453 . S
C96 C100 1.684 . S
C97 C87 1.723 . S
C97 C96 1.396 . S
C97 C98 1.394 . S
C98 C68 1.723 . S
C98 C94 1.397 . S
C98 C97 1.394 . S
C99 H71 0.982 . S
C99 H75 0.979 . S
C99 H76 0.977 . S
C99 C96 1.453 . S
C100 H72 0.979 . S
C100 H73 0.980 . S
C100 H74 0.983 . S
C100 C96 1.684 . S
H101 C119 0.948 . S
H102 C60 0.948 . S
H103 C78 0.979 . S
H104 C78 0.980 . S
H105 C78 0.983 . S
H106 C77 0.982 . S
H107 C77 0.979 . S
H108 C77 0.977 . S
H109 C79 0.948 . S
H110 C81 0.947 . S
H111 C82 0.948 . S
H112 C88 0.982 . S
H113 C88 0.979 . S
H114 C88 0.977 . S
H115 C89 0.979 . S
H116 C89 0.980 . S
H117 C89 0.983 . S
H118 C62 0.947 . S
C119 C62 1.392 . S
C119 C63 1.419 . S
C119 H101 0.948 . S
C120 C121 1.391 . S
C120 C124 1.391 . S
C120 H162 0.948 . S
C121 C120 1.391 . S
C121 C122 1.391 . S
C122 C121 1.391 . S
C122 H178 0.947 . S
C122 C179 1.392 . S
C123 C124 1.391 . S
C123 C127 1.397 . S
C123 C179 1.419 . S
C124 C120 1.391 . S
C124 C123 1.391 . S
C124 C125 1.399 . S
C125 C124 1.399 . S
C125 C128 1.396 . S
C125 C137 1.453 . S
C125 C138 1.684 . S
H126 C150 0.948 . S
C127 C123 1.397 . S
C127 C128 1.394 . S
C127 C146 1.723 . S
C128 C125 1.396 . S
C128 C127 1.394 . S
C128 C158 1.723 . S
H129 C152 0.947 . S
H130 C153 0.948 . S
H131 C159 0.982 . S
H132 C160 0.979 . S
H133 C160 0.980 . S
H134 C160 0.983 . S
H135 C159 0.979 . S
H136 C159 0.977 . S
C137 C125 1.453 . S
C137 H166 0.982 . S
C137 H167 0.979 . S
C137 H168 0.977 . S
C138 C125 1.684 . S
C138 H163 0.979 . S
C138 H164 0.980 . S
C138 H165 0.983 . S
C139 C140 1.391 . S
C139 C144 1.391 . S
C139 H169 0.948 . S
C140 C139 1.391 . S
C140 C141 1.391 . S
C141 C140 1.391 . S
C141 C142 1.392 . S
C141 H170 0.947 . S
C142 C141 1.392 . S
C142 C143 1.419 . S
C142 H171 0.948 . S
C143 C142 1.419 . S
C143 C144 1.391 . S
C143 C147 1.397 . S
C144 C139 1.391 . S
C144 C143 1.391 . S
C144 C145 1.399 . S
C145 C144 1.399 . S
C145 C146 1.396 . S
C145 C148 1.453 . S
C145 C149 1.684 . S
C146 C127 1.723 . S
C146 C145 1.396 . S
C146 C147 1.394 . S
C147 C143 1.397 . S
C147 C146 1.394 . S
C147 C157 1.723 . S
C148 C145 1.453 . S
C148 H172 0.982 . S
C148 H173 0.979 . S
C148 H174 0.977 . S
C149 C145 1.684 . S
C149 H175 0.979 . S
C149 H176 0.980 . S
C149 H177 0.983 . S
C150 H126 0.948 . S
C150 C151 1.391 . S
C150 C155 1.391 . S
C151 C150 1.391 . S
C151 C152 1.391 . S
C152 H129 0.947 . S
C152 C151 1.391 . S
C152 C153 1.392 . S
C153 H130 0.948 . S
C153 C152 1.392 . S
C153 C154 1.419 . S
C154 C153 1.419 . S
C154 C155 1.391 . S
C154 C158 1.397 . S
C155 C150 1.391 . S
C155 C154 1.391 . S
C155 C156 1.399 . S
C156 C155 1.399 . S
C156 C157 1.396 . S
C156 C159 1.453 . S
C156 C160 1.684 . S
C157 C147 1.723 . S
C157 C156 1.396 . S
C157 C158 1.394 . S
C158 C128 1.723 . S
C158 C154 1.397 . S
C158 C157 1.394 . S
C159 H131 0.982 . S
C159 H135 0.979 . S
C159 H136 0.977 . S
C159 C156 1.453 . S
C160 H132 0.979 . S
C160 H133 0.980 . S
C160 H134 0.983 . S
C160 C156 1.684 . S
H161 C179 0.948 . S
H162 C120 0.948 . S
H163 C138 0.979 . S
H164 C138 0.980 . S
H165 C138 0.983 . S
H166 C137 0.982 . S
H167 C137 0.979 . S
H168 C137 0.977 . S
H169 C139 0.948 . S
H170 C141 0.947 . S
H171 C142 0.948 . S
H172 C148 0.982 . S
H173 C148 0.979 . S
H174 C148 0.977 . S
H175 C149 0.979 . S
H176 C149 0.980 . S
H177 C149 0.983 . S
H178 C122 0.947 . S
C179 C122 1.392 . S
C179 C123 1.419 . S
C179 H161 0.948 . S
C180 C181 1.391 . S
C180 C184 1.391 . S
C180 H222 0.948 . S
C181 C180 1.391 . S
C181 C182 1.391 . S
C182 C181 1.391 . S
C182 H238 0.947 . S
C182 C239 1.392 . S
C183 C184 1.391 . S
C183 C187 1.397 . S
C183 C239 1.419 . S
C184 C180 1.391 . S
C184 C183 1.391 . S
C184 C185 1.399 . S
C185 C184 1.399 . S
C185 C188 1.396 . S
C185 C197 1.453 . S
C185 C198 1.684 . S
H186 C210 0.948 . S
C187 C183 1.397 . S
C187 C188 1.394 . S
C187 C206 1.723 . S
C188 C185 1.396 . S
C188 C187 1.394 . S
C188 C218 1.723 . S
H189 C212 0.947 . S
H190 C213 0.948 . S
H191 C219 0.982 . S
H192 C220 0.979 . S
H193 C220 0.980 . S
H194 C220 0.983 . S
H195 C219 0.979 . S
H196 C219 0.977 . S
C197 C185 1.453 . S
C197 H226 0.982 . S
C197 H227 0.979 . S
C197 H228 0.977 . S
C198 C185 1.684 . S
C198 H223 0.979 . S
C198 H224 0.980 . S
C198 H225 0.983 . S
C199 C200 1.391 . S
C199 C204 1.391 . S
C199 H229 0.948 . S
C200 C199 1.391 . S
C200 C201 1.391 . S
C201 C200 1.391 . S
C201 C202 1.392 . S
C201 H230 0.947 . S
C202 C201 1.392 . S
C202 C203 1.419 . S
C202 H231 0.948 . S
C203 C202 1.419 . S
C203 C204 1.391 . S
C203 C207 1.397 . S
C204 C199 1.391 . S
C204 C203 1.391 . S
C204 C205 1.399 . S
C205 C204 1.399 . S
C205 C206 1.396 . S
C205 C208 1.453 . S
C205 C209 1.684 . S
C206 C187 1.723 . S
C206 C205 1.396 . S
C206 C207 1.394 . S
C207 C203 1.397 . S
C207 C206 1.394 . S
C207 C217 1.723 . S
C208 C205 1.453 . S
C208 H232 0.982 . S
C208 H233 0.979 . S
C208 H234 0.977 . S
C209 C205 1.684 . S
C209 H235 0.979 . S
C209 H236 0.980 . S
C209 H237 0.983 . S
C210 H186 0.948 . S
C210 C211 1.391 . S
C210 C215 1.391 . S
C211 C210 1.391 . S
C211 C212 1.391 . S
C212 H189 0.947 . S
C212 C211 1.391 . S
C212 C213 1.392 . S
C213 H190 0.948 . S
C213 C212 1.392 . S
C213 C214 1.419 . S
C214 C213 1.419 . S
C214 C215 1.391 . S
C214 C218 1.397 . S
C215 C210 1.391 . S
C215 C214 1.391 . S
C215 C216 1.399 . S
C216 C215 1.399 . S
C216 C217 1.396 . S
C216 C219 1.453 . S
C216 C220 1.684 . S
C217 C207 1.723 . S
C217 C216 1.396 . S
C217 C218 1.394 . S
C218 C188 1.723 . S
C218 C214 1.397 . S
C218 C217 1.394 . S
C219 H191 0.982 . S
C219 H195 0.979 . S
C219 H196 0.977 . S
C219 C216 1.453 . S
C220 H192 0.979 . S
C220 H193 0.980 . S
C220 H194 0.983 . S
C220 C216 1.684 . S
H221 C239 0.948 . S
H222 C180 0.948 . S
H223 C198 0.979 . S
H224 C198 0.980 . S
H225 C198 0.983 . S
H226 C197 0.982 . S
H227 C197 0.979 . S
H228 C197 0.977 . S
H229 C199 0.948 . S
H230 C201 0.947 . S
H231 C202 0.948 . S
H232 C208 0.982 . S
H233 C208 0.979 . S
H234 C208 0.977 . S
H235 C209 0.979 . S
H236 C209 0.980 . S
H237 C209 0.983 . S
H238 C182 0.947 . S
C239 C182 1.392 . S
C239 C183 1.419 . S
C239 H221 0.948 . S
C240 C241 1.391 . S
C240 C244 1.391 . S
C240 H282 0.948 . S
C241 C240 1.391 . S
C241 C242 1.391 . S
C242 C241 1.391 . S
C242 H298 0.947 . S
C242 C299 1.392 . S
C243 C244 1.391 . S
C243 C247 1.397 . S
C243 C299 1.419 . S
C244 C240 1.391 . S
C244 C243 1.391 . S
C244 C245 1.399 . S
C245 C244 1.399 . S
C245 C248 1.396 . S
C245 C257 1.453 . S
C245 C258 1.684 . S
H246 C270 0.948 . S
C247 C243 1.397 . S
C247 C248 1.394 . S
C247 C266 1.723 . S
C248 C245 1.396 . S
C248 C247 1.394 . S
C248 C278 1.723 . S
H249 C272 0.947 . S
H250 C273 0.948 . S
H251 C279 0.982 . S
H252 C280 0.979 . S
H253 C280 0.980 . S
H254 C280 0.983 . S
H255 C279 0.979 . S
H256 C279 0.977 . S
C257 C245 1.453 . S
C257 H286 0.982 . S
C257 H287 0.979 . S
C257 H288 0.977 . S
C258 C245 1.684 . S
C258 H283 0.979 . S
C258 H284 0.980 . S
C258 H285 0.983 . S
C259 C260 1.391 . S
C259 C264 1.391 . S
C259 H289 0.948 . S
C260 C259 1.391 . S
C260 C261 1.391 . S
C261 C260 1.391 . S
C261 C262 1.392 . S
C261 H290 0.947 . S
C262 C261 1.392 . S
C262 C263 1.419 . S
C262 H291 0.948 . S
C263 C262 1.419 . S
C263 C264 1.391 . S
C263 C267 1.397 . S
C264 C259 1.391 . S
C264 C263 1.391 . S
C264 C265 1.399 . S
C265 C264 1.399 . S
C265 C266 1.396 . S
C265 C268 1.453 . S
C265 C269 1.684 . S
C266 C247 1.723 . S
C266 C265 1.396 . S
C266 C267 1.394 . S
C267 C263 1.397 . S
C267 C266 1.394 . S
C267 C277 1.723 . S
C268 C265 1.453 . S
C268 H292 0.982 . S
C268 H293 0.979 . S
C268 H294 0.977 . S
C269 C265 1.684 . S
C269 H295 0.979 . S
C269 H296 0.980 . S
C269 H297 0.983 . S
C270 H246 0.948 . S
C270 C271 1.391 . S
C270 C275 1.391 . S
C271 C270 1.391 . S
C271 C272 1.391 . S
C272 H249 0.947 . S
C272 C271 1.391 . S
C272 C273 1.392 . S
C273 H250 0.948 . S
C273 C272 1.392 . S
C273 C274 1.419 . S
C274 C273 1.419 . S
C274 C275 1.391 . S
C274 C278 1.397 . S
C275 C270 1.391 . S
C275 C274 1.391 . S
C275 C276 1.399 . S
C276 C275 1.399 . S
C276 C277 1.396 . S
C276 C279 1.453 . S
C276 C280 1.684 . S
C277 C267 1.723 . S
C277 C276 1.396 . S
C277 C278 1.394 . S
C278 C248 1.723 . S
C278 C274 1.397 . S
C278 C277 1.394 . S
C279 H251 0.982 . S
C279 H255 0.979 . S
C279 H256 0.977 . S
C279 C276 1.453 . S
C280 H252 0.979 . S
C280 H253 0.980 . S
C280 H254 0.983 . S
C280 C276 1.684 . S
H281 C299 0.948 . S
H282 C240 0.948 . S
H283 C258 0.979 . S
H284 C258 0.980 . S
H285 C258 0.983 . S
H286 C257 0.982 . S
H287 C257 0.979 . S
H288 C257 0.977 . S
H289 C259 0.948 . S
H290 C261 0.947 . S
H291 C262 0.948 . S
H292 C268 0.982 . S
H293 C268 0.979 . S
H294 C268 0.977 . S
H295 C269 0.979 . S
H296 C269 0.980 . S
H297 C269 0.983 . S
H298 C242 0.947 . S
C299 C242 1.392 . S
C299 C243 1.419 . S
C299 H281 0.948 . S
C300 C301 1.391 . S
C300 C304 1.391 . S
C300 H342 0.948 . S
C301 C300 1.391 . S
C301 C302 1.391 . S
C302 C301 1.391 . S
C302 H358 0.947 . S
C302 C359 1.392 . S
C303 C304 1.391 . S
C303 C307 1.397 . S
C303 C359 1.419 . S
C304 C300 1.391 . S
C304 C303 1.391 . S
C304 C305 1.399 . S
C305 C304 1.399 . S
C305 C308 1.396 . S
C305 C317 1.453 . S
C305 C318 1.684 . S
H306 C330 0.948 . S
C307 C303 1.397 . S
C307 C308 1.394 . S
C307 C326 1.723 . S
C308 C305 1.396 . S
C308 C307 1.394 . S
C308 C338 1.723 . S
H309 C332 0.947 . S
H310 C333 0.948 . S
H311 C339 0.982 . S
H312 C340 0.979 . S
H313 C340 0.980 . S
H314 C340 0.983 . S
H315 C339 0.979 . S
H316 C339 0.977 . S
C317 C305 1.453 . S
C317 H346 0.982 . S
C317 H347 0.979 . S
C317 H348 0.977 . S
C318 C305 1.684 . S
C318 H343 0.979 . S
C318 H344 0.980 . S
C318 H345 0.983 . S
C319 C320 1.391 . S
C319 C324 1.391 . S
C319 H349 0.948 . S
C320 C319 1.391 . S
C320 C321 1.391 . S
C321 C320 1.391 . S
C321 C322 1.392 . S
C321 H350 0.947 . S
C322 C321 1.392 . S
C322 C323 1.419 . S
C322 H351 0.948 . S
C323 C322 1.419 . S
C323 C324 1.391 . S
C323 C327 1.397 . S
C324 C319 1.391 . S
C324 C323 1.391 . S
C324 C325 1.399 . S
C325 C324 1.399 . S
C325 C326 1.396 . S
C325 C328 1.453 . S
C325 C329 1.684 . S
C326 C307 1.723 . S
C326 C325 1.396 . S
C326 C327 1.394 . S
C327 C323 1.397 . S
C327 C326 1.394 . S
C327 C337 1.723 . S
C328 C325 1.453 . S
C328 H352 0.982 . S
C328 H353 0.979 . S
C328 H354 0.977 . S
C329 C325 1.684 . S
C329 H355 0.979 . S
C329 H356 0.980 . S
C329 H357 0.983 . S
C330 H306 0.948 . S
C330 C331 1.391 . S
C330 C335 1.391 . S
C331 C330 1.391 . S
C331 C332 1.391 . S
C332 H309 0.947 . S
C332 C331 1.391 . S
C332 C333 1.392 . S
C333 H310 0.948 . S
C333 C332 1.392 . S
C333 C334 1.419 . S
C334 C333 1.419 . S
C334 C335 1.391 . S
C334 C338 1.397 . S
C335 C330 1.391 . S
C335 C334 1.391 . S
C335 C336 1.399 . S
C336 C335 1.399 . S
C336 C337 1.396 . S
C336 C339 1.453 . S
C336 C340 1.684 . S
C337 C327 1.723 . S
C337 C336 1.396 . S
C337 C338 1.394 . S
C338 C308 1.723 . S
C338 C334 1.397 . S
C338 C337 1.394 . S
C339 H311 0.982 . S
C339 H315 0.979 . S
C339 H316 0.977 . S
C339 C336 1.453 . S
C340 H312 0.979 . S
C340 H313 0.980 . S
C340 H314 0.983 . S
C340 C336 1.684 . S
H341 C359 0.948 . S
H342 C300 0.948 . S
H343 C318 0.979 . S
H344 C318 0.980 . S
H345 C318 0.983 . S
H346 C317 0.982 . S
H347 C317 0.979 . S
H348 C317 0.977 . S
H349 C319 0.948 . S
H350 C321 0.947 . S
H351 C322 0.948 . S
H352 C328 0.982 . S
H353 C328 0.979 . S
H354 C328 0.977 . S
H355 C329 0.979 . S
H356 C329 0.980 . S
H357 C329 0.983 . S
H358 C302 0.947 . S
C359 C302 1.392 . S
C359 C303 1.419 . S
C359 H341 0.948 . S
C360 C361 1.391 . S
C360 C364 1.391 . S
C360 H402 0.948 . S
C361 C360 1.391 . S
C361 C362 1.391 . S
C362 C361 1.391 . S
C362 H418 0.947 . S
C362 C419 1.392 . S
C363 C364 1.391 . S
C363 C367 1.397 . S
C363 C419 1.419 . S
C364 C360 1.391 . S
C364 C363 1.391 . S
C364 C365 1.399 . S
C365 C364 1.399 . S
C365 C368 1.396 . S
C365 C377 1.453 . S
C365 C378 1.684 . S
H366 C390 0.948 . S
C367 C363 1.397 . S
C367 C368 1.394 . S
C367 C386 1.723 . S
C368 C365 1.396 . S
C368 C367 1.394 . S
C368 C398 1.723 . S
H369 C392 0.947 . S
H370 C393 0.948 . S
H371 C399 0.982 . S
H372 C400 0.979 . S
H373 C400 0.980 . S
H374 C400 0.983 . S
H375 C399 0.979 . S
H376 C399 0.977 . S
C377 C365 1.453 . S
C377 H406 0.982 . S
C377 H407 0.979 . S
C377 H408 0.977 . S
C378 C365 1.684 . S
C378 H403 0.979 . S
C378 H404 0.980 . S
C378 H405 0.983 . S
C379 C380 1.391 . S
C379 C384 1.391 . S
C379 H409 0.948 . S
C380 C379 1.391 . S
C380 C381 1.391 . S
C381 C380 1.391 . S
C381 C382 1.392 . S
C381 H410 0.947 . S
C382 C381 1.392 . S
C382 C383 1.419 . S
C382 H411 0.948 . S
C383 C382 1.419 . S
C383 C384 1.391 . S
C383 C387 1.397 . S
C384 C379 1.391 . S
C384 C383 1.391 . S
C384 C385 1.399 . S
C385 C384 1.399 . S
C385 C386 1.396 . S
C385 C388 1.453 . S
C385 C389 1.684 . S
C386 C367 1.723 . S
C386 C385 1.396 . S
C386 C387 1.394 . S
C387 C383 1.397 . S
C387 C386 1.394 . S
C387 C397 1.723 . S
C388 C385 1.453 . S
C388 H412 0.982 . S
C388 H413 0.979 . S
C388 H414 0.977 . S
C389 C385 1.684 . S
C389 H415 0.979 . S
C389 H416 0.980 . S
C389 H417 0.983 . S
C390 H366 0.948 . S
C390 C391 1.391 . S
C390 C395 1.391 . S
C391 C390 1.391 . S
C391 C392 1.391 . S
C392 H369 0.947 . S
C392 C391 1.391 . S
C392 C393 1.392 . S
C393 H370 0.948 . S
C393 C392 1.392 . S
C393 C394 1.419 . S
C394 C393 1.419 . S
C394 C395 1.391 . S
C394 C398 1.397 . S
C395 C390 1.391 . S
C395 C394 1.391 . S
C395 C396 1.399 . S
C396 C395 1.399 . S
C396 C397 1.396 . S
C396 C399 1.453 . S
C396 C400 1.684 . S
C397 C387 1.723 . S
C397 C396 1.396 . S
C397 C398 1.394 . S
C398 C368 1.723 . S
C398 C394 1.397 . S
C398 C397 1.394 . S
C399 H371 0.982 . S
C399 H375 0.979 . S
C399 H376 0.977 . S
C399 C396 1.453 . S
C400 H372 0.979 . S
C400 H373 0.980 . S
C400 H374 0.983 . S
C400 C396 1.684 . S
H401 C419 0.948 . S
H402 C360 0.948 . S
H403 C378 0.979 . S
H404 C378 0.980 . S
H405 C378 0.983 . S
H406 C377 0.982 . S
H407 C377 0.979 . S
H408 C377 0.977 . S
H409 C379 0.948 . S
H410 C381 0.947 . S
H411 C382 0.948 . S
H412 C388 0.982 . S
H413 C388 0.979 . S
H414 C388 0.977 . S
H415 C389 0.979 . S
H416 C389 0.980 . S
H417 C389 0.983 . S
H418 C362 0.947 . S
C419 C362 1.392 . S
C419 C363 1.419 . S
C419 H401 0.948 . S
C420 C421 1.391 . S
C420 C424 1.391 . S
C420 H462 0.948 . S
C421 C420 1.391 . S
C421 C422 1.391 . S
C422 C421 1.391 . S
C422 H478 0.947 . S
C422 C479 1.392 . S
C423 C424 1.391 . S
C423 C427 1.397 . S
C423 C479 1.419 . S
C424 C420 1.391 . S
C424 C423 1.391 . S
C424 C425 1.399 . S
C425 C424 1.399 . S
C425 C428 1.396 . S
C425 C437 1.453 . S
C425 C438 1.684 . S
H426 C450 0.948 . S
C427 C423 1.397 . S
C427 C428 1.394 . S
C427 C446 1.723 . S
C428 C425 1.396 . S
C428 C427 1.394 . S
C428 C458 1.723 . S
H429 C452 0.947 . S
H430 C453 0.948 . S
H431 C459 0.982 . S
H432 C460 0.979 . S
H433 C460 0.980 . S
H434 C460 0.983 . S
H435 C459 0.979 . S
H436 C459 0.977 . S
C437 C425 1.453 . S
C437 H466 0.982 . S
C437 H467 0.979 . S
C437 H468 0.977 . S
C438 C425 1.684 . S
C438 H463 0.979 . S
C438 H464 0.980 . S
C438 H465 0.983 . S
C439 C440 1.391 . S
C439 C444 1.391 . S
C439 H469 0.948 . S
C440 C439 1.391 . S
C440 C441 1.391 . S
C441 C440 1.391 . S
C441 C442 1.392 . S
C441 H470 0.947 . S
C442 C441 1.392 . S
C442 C443 1.419 . S
C442 H471 0.948 . S
C443 C442 1.419 . S
C443 C444 1.391 . S
C443 C447 1.397 . S
C444 C439 1.391 . S
C444 C443 1.391 . S
C444 C445 1.399 . S
C445 C444 1.399 . S
C445 C446 1.396 . S
C445 C448 1.453 . S
C445 C449 1.684 . S
C446 C427 1.723 . S
C446 C445 1.396 . S
C446 C447 1.394 . S
C447 C443 1.397 . S
C447 C446 1.394 . S
C447 C457 1.723 . S
C448 C445 1.453 . S
C448 H472 0.982 . S
C448 H473 0.979 . S
C448 H474 0.977 . S
C449 C445 1.684 . S
C449 H475 0.979 . S
C449 H476 0.980 . S
C449 H477 0.983 . S
C450 H426 0.948 . S
C450 C451 1.391 . S
C450 C455 1.391 . S
C451 C450 1.391 . S
C451 C452 1.391 . S
C452 H429 0.947 . S
C452 C451 1.391 . S
C452 C453 1.392 . S
C453 H430 0.948 . S
C453 C452 1.392 . S
C453 C454 1.419 . S
C454 C453 1.419 . S
C454 C455 1.391 . S
C454 C458 1.397 . S
C455 C450 1.391 . S
C455 C454 1.391 . S
C455 C456 1.399 . S
C456 C455 1.399 . S
C456 C457 1.396 . S
C456 C459 1.453 . S
C456 C460 1.684 . S
C457 C447 1.723 . S
C457 C456 1.396 . S
C457 C458 1.394 . S
C458 C428 1.723 . S
C458 C454 1.397 . S
C458 C457 1.394 . S
C459 H431 0.982 . S
C459 H435 0.979 . S
C459 H436 0.977 . S
C459 C456 1.453 . S
C460 H432 0.979 . S
C460 H433 0.980 . S
C460 H434 0.983 . S
C460 C456 1.684 . S
H461 C479 0.948 . S
H462 C420 0.948 . S
H463 C438 0.979 . S
H464 C438 0.980 . S
H465 C438 0.983 . S
H466 C437 0.982 . S
H467 C437 0.979 . S
H468 C437 0.977 . S
H469 C439 0.948 . S
H470 C441 0.947 . S
H471 C442 0.948 . S
H472 C448 0.982 . S
H473 C448 0.979 . S
H474 C448 0.977 . S
H475 C449 0.979 . S
H476 C449 0.980 . S
H477 C449 0.983 . S
H478 C422 0.947 . S
C479 C422 1.392 . S
C479 C423 1.419 . S
C479 H461 0.948 . S
Tb480 N509 2.617 . S
Tb480 N515 2.572 . S
Tb480 O524 2.465 . S
Tb480 O525 2.387 . S
Tb480 O527 2.428 . S
Tb480 O528 2.324 . S
Tb480 O532 2.349 . S
Tb480 O535 2.393 . S
Tb480 C544 2.802 . S
C481 N482 1.379 . S
C481 C484 1.416 . S
C481 C488 1.424 . S
N482 C481 1.379 . S
N482 C485 1.334 . S
N482 Tb491 2.617 . S
C483 C485 1.390 . S
C483 C486 1.339 . S
C483 H503 0.930 . S
C484 C481 1.416 . S
C484 C486 1.416 . S
C484 C490 1.448 . S
C485 N482 1.334 . S
C485 C483 1.390 . S
C485 H496 0.930 . S
C486 C483 1.339 . S
C486 C484 1.416 . S
C486 H507 0.930 . S
C487 C488 1.413 . S
C487 C489 1.427 . S
C487 C493 1.416 . S
C488 C481 1.424 . S
C488 C487 1.413 . S
C488 N492 1.361 . S
C489 C487 1.427 . S
C489 C490 1.328 . S
C489 H504 0.929 . S
C490 C484 1.448 . S
C490 C489 1.328 . S
C490 H505 0.930 . S
Tb491 N482 2.617 . S
Tb491 N492 2.572 . S
Tb491 O526 2.338 1_655 S
Tb491 O529 2.393 . S
Tb491 O530 2.465 . S
Tb491 O531 2.387 . S
Tb491 O533 2.428 . S
Tb491 O534 2.308 1_655 S
Tb491 C555 2.802 . S
N492 C488 1.361 . S
N492 Tb491 2.572 . S
N492 C494 1.340 . S
C493 C487 1.416 . S
C493 C495 1.332 . S
C493 H501 0.931 . S
C494 N492 1.340 . S
C494 C495 1.407 . S
C494 H500 0.930 . S
C495 C493 1.332 . S
C495 C494 1.407 . S
C495 H497 0.929 . S
H496 C485 0.930 . S
H497 C495 0.929 . S
H498 C513 0.930 . S
H499 C520 0.929 . S
H500 C494 0.930 . S
H501 C493 0.931 . S
H502 C516 0.930 . S
H503 C483 0.930 . S
H504 C489 0.929 . S
H505 C490 0.930 . S
H506 C511 0.930 . S
H507 C486 0.930 . S
H508 C519 0.931 . S
N509 Tb480 2.617 . S
N509 C510 1.379 . S
N509 C513 1.334 . S
C510 N509 1.379 . S
C510 C512 1.416 . S
C510 C518 1.424 . S
C511 H506 0.930 . S
C511 C513 1.390 . S
C511 C514 1.339 . S
C512 C510 1.416 . S
C512 C514 1.416 . S
C512 C545 1.448 . S
C513 H498 0.930 . S
C513 N509 1.334 . S
C513 C511 1.390 . S
C514 C511 1.339 . S
C514 C512 1.416 . S
C514 H521 0.930 . S
N515 Tb480 2.572 . S
N515 C516 1.340 . S
N515 C518 1.361 . S
C516 H502 0.930 . S
C516 N515 1.340 . S
C516 C520 1.407 . S
C517 C518 1.413 . S
C517 C519 1.416 . S
C517 C546 1.427 . S
C518 C510 1.424 . S
C518 N515 1.361 . S
C518 C517 1.413 . S
C519 H508 0.931 . S
C519 C517 1.416 . S
C519 C520 1.332 . S
C520 H499 0.929 . S
C520 C516 1.407 . S
C520 C519 1.332 . S
H521 C514 0.930 . S
H522 C545 0.930 . S
H523 C546 0.929 . S
O524 Tb480 2.465 . S
O524 C544 1.264 . S
O525 Tb480 2.387 . S
O525 C536 1.264 . S
O526 Tb491 2.338 1_455 S
O526 C536 1.258 . S
O527 Tb480 2.428 . S
O527 C544 1.256 . S
O528 Tb480 2.324 . S
O528 C543 1.247 1_455 S
O529 Tb491 2.393 . S
O529 C543 1.248 . S
O530 Tb491 2.465 . S
O530 C555 1.264 . S
O531 Tb491 2.387 . S
O531 C547 1.264 . S
O532 Tb480 2.349 . S
O532 C547 1.243 1_455 S
O533 Tb491 2.428 . S
O533 C555 1.256 . S
O534 Tb491 2.308 1_455 S
O534 C554 1.266 . S
O535 Tb480 2.393 . S
O535 C554 1.248 . S
C536 O525 1.264 . S
C536 O526 1.258 . S
C537 C540 1.399 . S
C537 C542 1.383 . S
C537 C544 1.496 . S
C538 C539 1.399 . S
C538 C542 1.389 . S
C539 C538 1.399 . S
C539 C541 1.380 . S
C539 H556 0.929 . S
C540 C537 1.399 . S
C540 C541 1.392 . S
C540 H557 0.929 . S
C541 C539 1.380 . S
C541 C540 1.392 . S
C541 H558 0.929 . S
C542 C537 1.383 . S
C542 C538 1.389 . S
C542 H559 0.931 . S
C543 O528 1.247 1_655 S
C543 O529 1.248 . S
C544 Tb480 2.802 . S
C544 O524 1.264 . S
C544 O527 1.256 . S
C544 C537 1.496 . S
C545 C512 1.448 . S
C545 H522 0.930 . S
C545 C546 1.328 . S
C546 C517 1.427 . S
C546 H523 0.929 . S
C546 C545 1.328 . S
C547 O531 1.264 . S
C547 O532 1.243 1_655 S
C548 C551 1.399 . S
C548 C552 1.383 . S
C548 C555 1.496 . S
C549 C550 1.399 . S
C549 C552 1.389 . S
C550 C549 1.399 . S
C550 C553 1.380 . S
C550 H560 0.929 . S
C551 C548 1.399 . S
C551 C553 1.392 . S
C551 H561 0.929 . S
C552 C548 1.383 . S
C552 C549 1.389 . S
C552 H562 0.931 . S
C553 C550 1.380 . S
C553 C551 1.392 . S
C553 H563 0.929 . S
C554 O534 1.266 . S
C554 O535 1.248 . S
C555 Tb491 2.802 . S
C555 O530 1.264 . S
C555 O533 1.256 . S
C555 C548 1.496 . S
H556 C539 0.929 . S
H557 C540 0.929 . S
H558 C541 0.929 . S
H559 C542 0.931 . S
H560 C550 0.929 . S
H561 C551 0.929 . S
H562 C552 0.931 . S
H563 C553 0.929 . S
Tb564 N593 2.617 . S
Tb564 N599 2.572 . S
Tb564 O608 2.465 . S
Tb564 O609 2.387 . S
Tb564 O611 2.428 . S
Tb564 O612 2.308 . S
Tb564 O616 2.349 . S
Tb564 O619 2.393 . S
Tb564 C628 2.802 . S
C565 N566 1.379 . S
C565 C568 1.416 . S
C565 C572 1.424 . S
N566 C565 1.379 . S
N566 C569 1.334 . S
N566 Tb575 2.617 . S
C567 C569 1.390 . S
C567 C570 1.339 . S
C567 H587 0.930 . S
C568 C565 1.416 . S
C568 C570 1.416 . S
C568 C574 1.448 . S
C569 N566 1.334 . S
C569 C567 1.390 . S
C569 H580 0.930 . S
C570 C567 1.339 . S
C570 C568 1.416 . S
C570 H591 0.930 . S
C571 C572 1.413 . S
C571 C573 1.427 . S
C571 C577 1.416 . S
C572 C565 1.424 . S
C572 C571 1.413 . S
C572 N576 1.361 . S
C573 C571 1.427 . S
C573 C574 1.328 . S
C573 H588 0.929 . S
C574 C568 1.448 . S
C574 C573 1.328 . S
C574 H589 0.930 . S
Tb575 N566 2.617 . S
Tb575 N576 2.572 . S
Tb575 O610 2.349 . S
Tb575 O613 2.393 . S
Tb575 O614 2.465 . S
Tb575 O615 2.387 . S
Tb575 O617 2.428 . S
Tb575 O618 2.308 . S
Tb575 C639 2.802 . S
N576 C572 1.361 . S
N576 Tb575 2.572 . S
N576 C578 1.340 . S
C577 C571 1.416 . S
C577 C579 1.332 . S
C577 H585 0.931 . S
C578 N576 1.340 . S
C578 C579 1.407 . S
C578 H584 0.930 . S
C579 C577 1.332 . S
C579 C578 1.407 . S
C579 H581 0.929 . S
H580 C569 0.930 . S
H581 C579 0.929 . S
H582 C597 0.930 . S
H583 C604 0.929 . S
H584 C578 0.930 . S
H585 C577 0.931 . S
H586 C600 0.930 . S
H587 C567 0.930 . S
H588 C573 0.929 . S
H589 C574 0.930 . S
H590 C595 0.930 . S
H591 C570 0.930 . S
H592 C603 0.931 . S
N593 Tb564 2.617 . S
N593 C594 1.379 . S
N593 C597 1.334 . S
C594 N593 1.379 . S
C594 C596 1.416 . S
C594 C602 1.424 . S
C595 H590 0.930 . S
C595 C597 1.390 . S
C595 C598 1.339 . S
C596 C594 1.416 . S
C596 C598 1.416 . S
C596 C629 1.448 . S
C597 H582 0.930 . S
C597 N593 1.334 . S
C597 C595 1.390 . S
C598 C595 1.339 . S
C598 C596 1.416 . S
C598 H605 0.930 . S
N599 Tb564 2.572 . S
N599 C600 1.340 . S
N599 C602 1.361 . S
C600 H586 0.930 . S
C600 N599 1.340 . S
C600 C604 1.407 . S
C601 C602 1.413 . S
C601 C603 1.416 . S
C601 C630 1.427 . S
C602 C594 1.424 . S
C602 N599 1.361 . S
C602 C601 1.413 . S
C603 H592 0.931 . S
C603 C601 1.416 . S
C603 C604 1.332 . S
C604 H583 0.929 . S
C604 C600 1.407 . S
C604 C603 1.332 . S
H605 C598 0.930 . S
H606 C629 0.930 . S
H607 C630 0.929 . S
O608 Tb564 2.465 . S
O608 C628 1.264 . S
O609 Tb564 2.387 . S
O609 C620 1.264 . S
O610 Tb575 2.349 . S
O610 C620 1.243 . S
O611 Tb564 2.428 . S
O611 C628 1.256 . S
O612 Tb564 2.308 . S
O612 C627 1.266 . S
O613 Tb575 2.393 . S
O613 C627 1.248 . S
O614 Tb575 2.465 . S
O614 C639 1.264 . S
O615 Tb575 2.387 . S
O615 C631 1.264 . S
O616 Tb564 2.349 . S
O616 C631 1.243 . S
O617 Tb575 2.428 . S
O617 C639 1.256 . S
O618 Tb575 2.308 . S
O618 C638 1.266 . S
O619 Tb564 2.393 . S
O619 C638 1.248 . S
C620 O609 1.264 . S
C620 O610 1.243 . S
C621 C624 1.399 . S
C621 C626 1.383 . S
C621 C628 1.496 . S
C622 C623 1.399 . S
C622 C626 1.389 . S
C623 C622 1.399 . S
C623 C625 1.380 . S
C623 H640 0.929 . S
C624 C621 1.399 . S
C624 C625 1.392 . S
C624 H641 0.929 . S
C625 C623 1.380 . S
C625 C624 1.392 . S
C625 H642 0.929 . S
C626 C621 1.383 . S
C626 C622 1.389 . S
C626 H643 0.931 . S
C627 O612 1.266 . S
C627 O613 1.248 . S
C628 Tb564 2.802 . S
C628 O608 1.264 . S
C628 O611 1.256 . S
C628 C621 1.496 . S
C629 C596 1.448 . S
C629 H606 0.930 . S
C629 C630 1.328 . S
C630 C601 1.427 . S
C630 H607 0.929 . S
C630 C629 1.328 . S
C631 O615 1.264 . S
C631 O616 1.243 . S
C632 C635 1.399 . S
C632 C636 1.383 . S
C632 C639 1.496 . S
C633 C634 1.399 . S
C633 C636 1.389 . S
C634 C633 1.399 . S
C634 C637 1.380 . S
C634 H644 0.929 . S
C635 C632 1.399 . S
C635 C637 1.392 . S
C635 H645 0.929 . S
C636 C632 1.383 . S
C636 C633 1.389 . S
C636 H646 0.931 . S
C637 C634 1.380 . S
C637 C635 1.392 . S
C637 H647 0.929 . S
C638 O618 1.266 . S
C638 O619 1.248 . S
C639 Tb575 2.802 . S
C639 O614 1.264 . S
C639 O617 1.256 . S
C639 C632 1.496 . S
H640 C623 0.929 . S
H641 C624 0.929 . S
H642 C625 0.929 . S
H643 C626 0.931 . S
H644 C634 0.929 . S
H645 C635 0.929 . S
H646 C636 0.931 . S
H647 C637 0.929 . S
Tb648 N677 2.617 . S
Tb648 N683 2.572 . S
Tb648 O692 2.465 . S
Tb648 O693 2.387 . S
Tb648 O695 2.428 . S
Tb648 O696 2.308 . S
Tb648 O700 2.349 . S
Tb648 O703 2.393 . S
Tb648 C712 2.802 . S
C649 N650 1.379 . S
C649 C652 1.416 . S
C649 C656 1.424 . S
N650 C649 1.379 . S
N650 C653 1.334 . S
N650 Tb659 2.617 . S
C651 C653 1.390 . S
C651 C654 1.339 . S
C651 H671 0.930 . S
C652 C649 1.416 . S
C652 C654 1.416 . S
C652 C658 1.448 . S
C653 N650 1.334 . S
C653 C651 1.390 . S
C653 H664 0.930 . S
C654 C651 1.339 . S
C654 C652 1.416 . S
C654 H675 0.930 . S
C655 C656 1.413 . S
C655 C657 1.427 . S
C655 C661 1.416 . S
C656 C649 1.424 . S
C656 C655 1.413 . S
C656 N660 1.361 . S
C657 C655 1.427 . S
C657 C658 1.328 . S
C657 H672 0.929 . S
C658 C652 1.448 . S
C658 C657 1.328 . S
C658 H673 0.930 . S
Tb659 N650 2.617 . S
Tb659 N660 2.572 . S
Tb659 O694 2.349 1_655 S
Tb659 O697 2.393 . S
Tb659 O698 2.465 . S
Tb659 O699 2.387 . S
Tb659 O701 2.428 . S
Tb659 O702 2.308 1_655 S
Tb659 C723 2.802 . S
N660 C656 1.361 . S
N660 Tb659 2.572 . S
N660 C662 1.340 . S
C661 C655 1.416 . S
C661 C663 1.332 . S
C661 H669 0.931 . S
C662 N660 1.340 . S
C662 C663 1.407 . S
C662 H668 0.930 . S
C663 C661 1.332 . S
C663 C662 1.407 . S
C663 H665 0.929 . S
H664 C653 0.930 . S
H665 C663 0.929 . S
H666 C681 0.930 . S
H667 C688 0.929 . S
H668 C662 0.930 . S
H669 C661 0.931 . S
H670 C684 0.930 . S
H671 C651 0.930 . S
H672 C657 0.929 . S
H673 C658 0.930 . S
H674 C679 0.930 . S
H675 C654 0.930 . S
H676 C687 0.931 . S
N677 Tb648 2.617 . S
N677 C678 1.379 . S
N677 C681 1.334 . S
C678 N677 1.379 . S
C678 C680 1.416 . S
C678 C686 1.424 . S
C679 H674 0.930 . S
C679 C681 1.390 . S
C679 C682 1.339 . S
C680 C678 1.416 . S
C680 C682 1.416 . S
C680 C713 1.448 . S
C681 H666 0.930 . S
C681 N677 1.334 . S
C681 C679 1.390 . S
C682 C679 1.339 . S
C682 C680 1.416 . S
C682 H689 0.930 . S
N683 Tb648 2.572 . S
N683 C684 1.340 . S
N683 C686 1.361 . S
C684 H670 0.930 . S
C684 N683 1.340 . S
C684 C688 1.407 . S
C685 C686 1.413 . S
C685 C687 1.416 . S
C685 C714 1.427 . S
C686 C678 1.424 . S
C686 N683 1.361 . S
C686 C685 1.413 . S
C687 H676 0.931 . S
C687 C685 1.416 . S
C687 C688 1.332 . S
C688 H667 0.929 . S
C688 C684 1.407 . S
C688 C687 1.332 . S
H689 C682 0.930 . S
H690 C713 0.930 . S
H691 C714 0.929 . S
O692 Tb648 2.465 . S
O692 C712 1.264 . S
O693 Tb648 2.387 . S
O693 C704 1.264 . S
O694 Tb659 2.349 1_455 S
O694 C704 1.243 . S
O695 Tb648 2.428 . S
O695 C712 1.256 . S
O696 Tb648 2.308 . S
O696 C711 1.266 1_455 S
O697 Tb659 2.393 . S
O697 C711 1.248 . S
O698 Tb659 2.465 . S
O698 C723 1.264 . S
O699 Tb659 2.387 . S
O699 C715 1.264 . S
O700 Tb648 2.349 . S
O700 C715 1.243 1_455 S
O701 Tb659 2.428 . S
O701 C723 1.256 . S
O702 Tb659 2.308 1_455 S
O702 C722 1.266 . S
O703 Tb648 2.393 . S
O703 C722 1.248 . S
C704 O693 1.264 . S
C704 O694 1.243 . S
C705 C708 1.399 . S
C705 C710 1.383 . S
C705 C712 1.496 . S
C706 C707 1.399 . S
C706 C710 1.389 . S
C707 C706 1.399 . S
C707 C709 1.380 . S
C707 H724 0.929 . S
C708 C705 1.399 . S
C708 C709 1.392 . S
C708 H725 0.929 . S
C709 C707 1.380 . S
C709 C708 1.392 . S
C709 H726 0.929 . S
C710 C705 1.383 . S
C710 C706 1.389 . S
C710 H727 0.931 . S
C711 O696 1.266 1_655 S
C711 O697 1.248 . S
C712 Tb648 2.802 . S
C712 O692 1.264 . S
C712 O695 1.256 . S
C712 C705 1.496 . S
C713 C680 1.448 . S
C713 H690 0.930 . S
C713 C714 1.328 . S
C714 C685 1.427 . S
C714 H691 0.929 . S
C714 C713 1.328 . S
C715 O699 1.264 . S
C715 O700 1.243 1_655 S
C716 C719 1.399 . S
C716 C720 1.383 . S
C716 C723 1.496 . S
C717 C718 1.399 . S
C717 C720 1.389 . S
C718 C717 1.399 . S
C718 C721 1.380 . S
C718 H728 0.929 . S
C719 C716 1.399 . S
C719 C721 1.392 . S
C719 H729 0.929 . S
C720 C716 1.383 . S
C720 C717 1.389 . S
C720 H730 0.931 . S
C721 C718 1.380 . S
C721 C719 1.392 . S
C721 H731 0.929 . S
C722 O702 1.266 . S
C722 O703 1.248 . S
C723 Tb659 2.802 . S
C723 O698 1.264 . S
C723 O701 1.256 . S
C723 C716 1.496 . S
H724 C707 0.929 . S
H725 C708 0.929 . S
H726 C709 0.929 . S
H727 C710 0.931 . S
H728 C718 0.929 . S
H729 C719 0.929 . S
H730 C720 0.931 . S
H731 C721 0.929 . S
Tb732 N761 2.617 . S
Tb732 N767 2.572 . S
Tb732 O776 2.465 . S
Tb732 O777 2.387 . S
Tb732 O779 2.428 . S
Tb732 O780 2.308 . S
Tb732 O784 2.349 . S
Tb732 O787 2.393 . S
Tb732 C796 2.802 . S
C733 N734 1.379 . S
C733 C736 1.416 . S
C733 C740 1.424 . S
N734 C733 1.379 . S
N734 C737 1.334 . S
N734 Tb743 2.617 . S
C735 C737 1.390 . S
C735 C738 1.339 . S
C735 H755 0.930 . S
C736 C733 1.416 . S
C736 C738 1.416 . S
C736 C742 1.448 . S
C737 N734 1.334 . S
C737 C735 1.390 . S
C737 H748 0.930 . S
C738 C735 1.339 . S
C738 C736 1.416 . S
C738 H759 0.930 . S
C739 C740 1.413 . S
C739 C741 1.427 . S
C739 C745 1.416 . S
C740 C733 1.424 . S
C740 C739 1.413 . S
C740 N744 1.361 . S
C741 C739 1.427 . S
C741 C742 1.328 . S
C741 H756 0.929 . S
C742 C736 1.448 . S
C742 C741 1.328 . S
C742 H757 0.930 . S
Tb743 N734 2.617 . S
Tb743 N744 2.572 . S
Tb743 O778 2.349 . S
Tb743 O781 2.393 . S
Tb743 O782 2.465 . S
Tb743 O783 2.387 . S
Tb743 O785 2.428 . S
Tb743 O786 2.308 . S
Tb743 C807 2.802 . S
N744 C740 1.361 . S
N744 Tb743 2.572 . S
N744 C746 1.340 . S
C745 C739 1.416 . S
C745 C747 1.332 . S
C745 H753 0.931 . S
C746 N744 1.340 . S
C746 C747 1.407 . S
C746 H752 0.930 . S
C747 C745 1.332 . S
C747 C746 1.407 . S
C747 H749 0.929 . S
H748 C737 0.930 . S
H749 C747 0.929 . S
H750 C765 0.930 . S
H751 C772 0.929 . S
H752 C746 0.930 . S
H753 C745 0.931 . S
H754 C768 0.930 . S
H755 C735 0.930 . S
H756 C741 0.929 . S
H757 C742 0.930 . S
H758 C763 0.930 . S
H759 C738 0.930 . S
H760 C771 0.931 . S
N761 Tb732 2.617 . S
N761 C762 1.379 . S
N761 C765 1.334 . S
C762 N761 1.379 . S
C762 C764 1.416 . S
C762 C770 1.424 . S
C763 H758 0.930 . S
C763 C765 1.390 . S
C763 C766 1.339 . S
C764 C762 1.416 . S
C764 C766 1.416 . S
C764 C797 1.448 . S
C765 H750 0.930 . S
C765 N761 1.334 . S
C765 C763 1.390 . S
C766 C763 1.339 . S
C766 C764 1.416 . S
C766 H773 0.930 . S
N767 Tb732 2.572 . S
N767 C768 1.340 . S
N767 C770 1.361 . S
C768 H754 0.930 . S
C768 N767 1.340 . S
C768 C772 1.407 . S
C769 C770 1.413 . S
C769 C771 1.416 . S
C769 C798 1.427 . S
C770 C762 1.424 . S
C770 N767 1.361 . S
C770 C769 1.413 . S
C771 H760 0.931 . S
C771 C769 1.416 . S
C771 C772 1.332 . S
C772 H751 0.929 . S
C772 C768 1.407 . S
C772 C771 1.332 . S
H773 C766 0.930 . S
H774 C797 0.930 . S
H775 C798 0.929 . S
O776 Tb732 2.465 . S
O776 C796 1.264 . S
O777 Tb732 2.387 . S
O777 C788 1.264 . S
O778 Tb743 2.349 . S
O778 C788 1.243 . S
O779 Tb732 2.428 . S
O779 C796 1.256 . S
O780 Tb732 2.308 . S
O780 C795 1.266 . S
O781 Tb743 2.393 . S
O781 C795 1.248 . S
O782 Tb743 2.465 . S
O782 C807 1.264 . S
O783 Tb743 2.387 . S
O783 C799 1.264 . S
O784 Tb732 2.349 . S
O784 C799 1.243 . S
O785 Tb743 2.428 . S
O785 C807 1.256 . S
O786 Tb743 2.308 . S
O786 C806 1.266 . S
O787 Tb732 2.393 . S
O787 C806 1.248 . S
C788 O777 1.264 . S
C788 O778 1.243 . S
C789 C792 1.399 . S
C789 C794 1.383 . S
C789 C796 1.496 . S
C790 C791 1.399 . S
C790 C794 1.389 . S
C791 C790 1.399 . S
C791 C793 1.380 . S
C791 H808 0.929 . S
C792 C789 1.399 . S
C792 C793 1.392 . S
C792 H809 0.929 . S
C793 C791 1.380 . S
C793 C792 1.392 . S
C793 H810 0.929 . S
C794 C789 1.383 . S
C794 C790 1.389 . S
C794 H811 0.931 . S
C795 O780 1.266 . S
C795 O781 1.248 . S
C796 Tb732 2.802 . S
C796 O776 1.264 . S
C796 O779 1.256 . S
C796 C789 1.496 . S
C797 C764 1.448 . S
C797 H774 0.930 . S
C797 C798 1.328 . S
C798 C769 1.427 . S
C798 H775 0.929 . S
C798 C797 1.328 . S
C799 O783 1.264 . S
C799 O784 1.243 . S
C800 C803 1.399 . S
C800 C804 1.383 . S
C800 C807 1.496 . S
C801 C802 1.399 . S
C801 C804 1.389 . S
C802 C801 1.399 . S
C802 C805 1.380 . S
C802 H812 0.929 . S
C803 C800 1.399 . S
C803 C805 1.392 . S
C803 H813 0.929 . S
C804 C800 1.383 . S
C804 C801 1.389 . S
C804 H814 0.931 . S
C805 C802 1.380 . S
C805 C803 1.392 . S
C805 H815 0.929 . S
C806 O786 1.266 . S
C806 O787 1.248 . S
C807 Tb743 2.802 . S
C807 O782 1.264 . S
C807 O785 1.256 . S
C807 C800 1.496 . S
H808 C791 0.929 . S
H809 C792 0.929 . S
H810 C793 0.929 . S
H811 C794 0.931 . S
H812 C802 0.929 . S
H813 C803 0.929 . S
H814 C804 0.931 . S
H815 C805 0.929 . S
C816 C817 1.391 . S
C816 C818 1.394 1_565 S
C816 H832 0.931 . S
C817 C816 1.391 . S
C817 C821 1.376 . S
C818 C816 1.394 1_545 S
C818 C819 1.369 . S
C818 C822 1.531 . S
C819 C818 1.369 . S
C819 C820 1.410 . S
C819 C827 1.503 . S
C820 C819 1.410 . S
C820 C821 1.392 1_545 S
C820 C823 1.511 . S
C821 C817 1.376 . S
C821 C820 1.392 1_565 S
C821 H833 0.929 . S
C822 C818 1.531 . S
C822 H834 0.960 . S
C822 H835 0.962 . S
C822 H836 0.960 . S
C823 C820 1.511 . S
C823 H837 0.961 . S
C823 H838 0.961 . S
C823 H839 0.961 . S
C824 C825 1.370 . S
C824 C826 1.363 . S
C824 H840 0.931 . S
C825 C824 1.370 . S
C825 C829 1.408 . S
C826 C824 1.363 . S
C826 C827 1.370 . S
C826 C830 1.524 . S
C827 C819 1.503 . S
C827 C826 1.370 . S
C827 C828 1.403 . S
C828 C827 1.403 . S
C828 C829 1.404 . S
C828 C831 1.539 . S
C829 C825 1.408 . S
C829 C828 1.404 . S
C829 H841 0.930 . S
C830 C826 1.524 . S
C830 H842 0.956 . S
C830 H843 0.961 . S
C830 H844 0.961 . S
C831 C828 1.539 . S
C831 H845 0.958 . S
C831 H846 0.961 . S
C831 H847 0.960 . S
H832 C816 0.931 . S
H833 C821 0.929 . S
H834 C822 0.960 . S
H835 C822 0.962 . S
H836 C822 0.960 . S
H837 C823 0.961 . S
H838 C823 0.961 . S
H839 C823 0.961 . S
H840 C824 0.931 . S
H841 C829 0.930 . S
H842 C830 0.956 . S
H843 C830 0.961 . S
H844 C830 0.961 . S
H845 C831 0.958 . S
H846 C831 0.961 . S
H847 C831 0.960 . S
C848 C849 1.391 . S
C848 C850 1.394 . S
C848 H864 0.931 . S
C849 C848 1.391 . S
C849 C853 1.376 . S
C850 C848 1.394 . S
C850 C851 1.369 . S
C850 C854 1.531 . S
C851 C850 1.369 . S
C851 C852 1.410 . S
C851 C859 1.503 . S
C852 C851 1.410 . S
C852 C853 1.392 . S
C852 C855 1.511 . S
C853 C849 1.376 . S
C853 C852 1.392 . S
C853 H865 0.929 . S
C854 C850 1.531 . S
C854 H866 0.960 . S
C854 H867 0.962 . S
C854 H868 0.960 . S
C855 C852 1.511 . S
C855 H869 0.961 . S
C855 H870 0.961 . S
C855 H871 0.961 . S
C856 C857 1.370 . S
C856 C858 1.363 . S
C856 H872 0.931 . S
C857 C856 1.370 . S
C857 C861 1.408 . S
C858 C856 1.363 . S
C858 C859 1.370 . S
C858 C862 1.524 . S
C859 C851 1.503 . S
C859 C858 1.370 . S
C859 C860 1.403 . S
C860 C859 1.403 . S
C860 C861 1.404 . S
C860 C863 1.539 . S
C861 C857 1.408 . S
C861 C860 1.404 . S
C861 H873 0.930 . S
C862 C858 1.524 . S
C862 H874 0.956 . S
C862 H875 0.961 . S
C862 H876 0.961 . S
C863 C860 1.539 . S
C863 H877 0.958 . S
C863 H878 0.961 . S
C863 H879 0.960 . S
H864 C848 0.931 . S
H865 C853 0.929 . S
H866 C854 0.960 . S
H867 C854 0.962 . S
H868 C854 0.960 . S
H869 C855 0.961 . S
H870 C855 0.961 . S
H871 C855 0.961 . S
H872 C856 0.931 . S
H873 C861 0.930 . S
H874 C862 0.956 . S
H875 C862 0.961 . S
H876 C862 0.961 . S
H877 C863 0.958 . S
H878 C863 0.961 . S
H879 C863 0.960 . S
C880 C881 1.391 . S
C880 C882 1.394 . S
C880 H896 0.931 . S
C881 C880 1.391 . S
C881 C885 1.376 . S
C882 C880 1.394 . S
C882 C883 1.369 . S
C882 C886 1.531 . S
C883 C882 1.369 . S
C883 C884 1.410 . S
C883 C891 1.503 . S
C884 C883 1.410 . S
C884 C885 1.392 . S
C884 C887 1.511 . S
C885 C881 1.376 . S
C885 C884 1.392 . S
C885 H897 0.929 . S
C886 C882 1.531 . S
C886 H898 0.960 . S
C886 H899 0.962 . S
C886 H900 0.960 . S
C887 C884 1.511 . S
C887 H901 0.961 . S
C887 H902 0.961 . S
C887 H903 0.961 . S
C888 C889 1.370 . S
C888 C890 1.363 . S
C888 H904 0.931 . S
C889 C888 1.370 . S
C889 C893 1.408 . S
C890 C888 1.363 . S
C890 C891 1.370 . S
C890 C894 1.524 . S
C891 C883 1.503 . S
C891 C890 1.370 . S
C891 C892 1.403 . S
C892 C891 1.403 . S
C892 C893 1.404 . S
C892 C895 1.539 . S
C893 C889 1.408 . S
C893 C892 1.404 . S
C893 H905 0.930 . S
C894 C890 1.524 . S
C894 H906 0.956 . S
C894 H907 0.961 . S
C894 H908 0.961 . S
C895 C892 1.539 . S
C895 H909 0.958 . S
C895 H910 0.961 . S
C895 H911 0.960 . S
H896 C880 0.931 . S
H897 C885 0.929 . S
H898 C886 0.960 . S
H899 C886 0.962 . S
H900 C886 0.960 . S
H901 C887 0.961 . S
H902 C887 0.961 . S
H903 C887 0.961 . S
H904 C888 0.931 . S
H905 C893 0.930 . S
H906 C894 0.956 . S
H907 C894 0.961 . S
H908 C894 0.961 . S
H909 C895 0.958 . S
H910 C895 0.961 . S
H911 C895 0.960 . S
C912 C913 1.391 1_545 S
C912 C914 1.394 . S
C912 H928 0.931 . S
C913 C912 1.391 1_565 S
C913 C917 1.376 . S
C914 C912 1.394 . S
C914 C915 1.369 . S
C914 C918 1.531 . S
C915 C914 1.369 . S
C915 C916 1.410 . S
C915 C923 1.503 . S
C916 C915 1.410 . S
C916 C917 1.392 1_545 S
C916 C919 1.511 . S
C917 C913 1.376 . S
C917 C916 1.392 1_565 S
C917 H929 0.929 . S
C918 C914 1.531 . S
C918 H930 0.960 . S
C918 H931 0.962 . S
C918 H932 0.960 . S
C919 C916 1.511 . S
C919 H933 0.961 1_545 S
C919 H934 0.961 . S
C919 H935 0.961 . S
C920 C921 1.370 . S
C920 C922 1.363 . S
C920 H936 0.931 . S
C921 C920 1.370 . S
C921 C925 1.408 . S
C922 C920 1.363 . S
C922 C923 1.370 . S
C922 C926 1.524 . S
C923 C915 1.503 . S
C923 C922 1.370 . S
C923 C924 1.403 . S
C924 C923 1.403 . S
C924 C925 1.404 . S
C924 C927 1.539 . S
C925 C921 1.408 . S
C925 C924 1.404 . S
C925 H937 0.930 . S
C926 C922 1.524 . S
C926 H938 0.956 . S
C926 H939 0.961 . S
C926 H940 0.961 1_655 S
C927 C924 1.539 . S
C927 H941 0.958 . S
C927 H942 0.961 . S
C927 H943 0.960 . S
H928 C912 0.931 . S
H929 C917 0.929 . S
H930 C918 0.960 . S
H931 C918 0.962 . S
H932 C918 0.960 . S
H933 C919 0.961 1_565 S
H934 C919 0.961 . S
H935 C919 0.961 . S
H936 C920 0.931 . S
H937 C925 0.930 . S
H938 C926 0.956 . S
H939 C926 0.961 . S
H940 C926 0.961 1_455 S
H941 C927 0.958 . S
H942 C927 0.961 . S
H943 C927 0.960 . S
C944 C945 1.391 1_565 S
C944 C946 1.394 . S
C944 H960 0.931 . S
C945 C944 1.391 1_545 S
C945 C949 1.376 . S
C946 C944 1.394 . S
C946 C947 1.369 . S
C946 C950 1.531 . S
C947 C946 1.369 . S
C947 C948 1.410 . S
C947 C955 1.503 . S
C948 C947 1.410 . S
C948 C949 1.392 1_565 S
C948 C951 1.511 . S
C949 C945 1.376 . S
C949 C948 1.392 1_545 S
C949 H961 0.929 . S
C950 C946 1.531 . S
C950 H962 0.960 . S
C950 H963 0.962 . S
C950 H964 0.960 . S
C951 C948 1.511 . S
C951 H965 0.961 1_565 S
C951 H966 0.961 . S
C951 H967 0.961 . S
C952 C953 1.370 . S
C952 C954 1.363 . S
C952 H968 0.931 . S
C953 C952 1.370 . S
C953 C957 1.408 . S
C954 C952 1.363 . S
C954 C955 1.370 . S
C954 C958 1.524 . S
C955 C947 1.503 . S
C955 C954 1.370 . S
C955 C956 1.403 . S
C956 C955 1.403 . S
C956 C957 1.404 . S
C956 C959 1.539 . S
C957 C953 1.408 . S
C957 C956 1.404 . S
C957 H969 0.930 . S
C958 C954 1.524 . S
C958 H970 0.956 . S
C958 H971 0.961 . S
C958 H972 0.961 . S
C959 C956 1.539 . S
C959 H973 0.958 . S
C959 H974 0.961 . S
C959 H975 0.960 . S
H960 C944 0.931 . S
H961 C949 0.929 . S
H962 C950 0.960 . S
H963 C950 0.962 . S
H964 C950 0.960 . S
H965 C951 0.961 1_545 S
H966 C951 0.961 . S
H967 C951 0.961 . S
H968 C952 0.931 . S
H969 C957 0.930 . S
H970 C958 0.956 . S
H971 C958 0.961 . S
H972 C958 0.961 . S
H973 C959 0.958 . S
H974 C959 0.961 . S
H975 C959 0.960 . S
C976 C977 1.391 . S
C976 C978 1.394 . S
C976 H992 0.931 . S
C977 C976 1.391 . S
C977 C981 1.376 . S
C978 C976 1.394 . S
C978 C979 1.369 . S
C978 C982 1.531 . S
C979 C978 1.369 . S
C979 C980 1.410 . S
C979 C987 1.503 . S
C980 C979 1.410 . S
C980 C981 1.392 . S
C980 C983 1.511 . S
C981 C977 1.376 . S
C981 C980 1.392 . S
C981 H993 0.929 . S
C982 C978 1.531 . S
C982 H994 0.960 . S
C982 H995 0.962 . S
C982 H996 0.960 . S
C983 C980 1.511 . S
C983 H997 0.961 . S
C983 H998 0.961 . S
C983 H999 0.961 . S
C984 C985 1.370 . S
C984 C986 1.363 . S
C984 H1000 0.931 . S
C985 C984 1.370 . S
C985 C989 1.408 . S
C986 C984 1.363 . S
C986 C987 1.370 . S
C986 C990 1.524 . S
C987 C979 1.503 . S
C987 C986 1.370 . S
C987 C988 1.403 . S
C988 C987 1.403 . S
C988 C989 1.404 . S
C988 C991 1.539 . S
C989 C985 1.408 . S
C989 C988 1.404 . S
C989 H1001 0.930 . S
C990 C986 1.524 . S
C990 H1002 0.956 . S
C990 H1003 0.961 . S
C990 H1004 0.961 . S
C991 C988 1.539 . S
C991 H1005 0.958 . S
C991 H1006 0.961 . S
C991 H1007 0.960 . S
H992 C976 0.931 . S
H993 C981 0.929 . S
H994 C982 0.960 . S
H995 C982 0.962 . S
H996 C982 0.960 . S
H997 C983 0.961 . S
H998 C983 0.961 . S
H999 C983 0.961 . S
H1000 C984 0.931 . S
H1001 C989 0.930 . S
H1002 C990 0.956 . S
H1003 C990 0.961 . S
H1004 C990 0.961 . S
H1005 C991 0.958 . S
H1006 C991 0.961 . S
H1007 C991 0.960 . S
C1008 C1009 1.391 . S
C1008 C1010 1.394 . S
C1008 H1024 0.931 . S
C1009 C1008 1.391 . S
C1009 C1013 1.376 . S
C1010 C1008 1.394 . S
C1010 C1011 1.369 . S
C1010 C1014 1.531 . S
C1011 C1010 1.369 . S
C1011 C1012 1.410 . S
C1011 C1019 1.503 . S
C1012 C1011 1.410 . S
C1012 C1013 1.392 . S
C1012 C1015 1.511 . S
C1013 C1009 1.376 . S
C1013 C1012 1.392 . S
C1013 H1025 0.929 . S
C1014 C1010 1.531 . S
C1014 H1026 0.960 . S
C1014 H1027 0.962 . S
C1014 H1028 0.960 . S
C1015 C1012 1.511 . S
C1015 H1029 0.961 . S
C1015 H1030 0.961 . S
C1015 H1031 0.961 . S
C1016 C1017 1.370 . S
C1016 C1018 1.363 . S
C1016 H1032 0.931 . S
C1017 C1016 1.370 . S
C1017 C1021 1.408 . S
C1018 C1016 1.363 . S
C1018 C1019 1.370 . S
C1018 C1022 1.524 . S
C1019 C1011 1.503 . S
C1019 C1018 1.370 . S
C1019 C1020 1.403 . S
C1020 C1019 1.403 . S
C1020 C1021 1.404 . S
C1020 C1023 1.539 . S
C1021 C1017 1.408 . S
C1021 C1020 1.404 . S
C1021 H1033 0.930 . S
C1022 C1018 1.524 . S
C1022 H1034 0.956 . S
C1022 H1035 0.961 . S
C1022 H1036 0.961 . S
C1023 C1020 1.539 . S
C1023 H1037 0.958 . S
C1023 H1038 0.961 . S
C1023 H1039 0.960 . S
H1024 C1008 0.931 . S
H1025 C1013 0.929 . S
H1026 C1014 0.960 . S
H1027 C1014 0.962 . S
H1028 C1014 0.960 . S
H1029 C1015 0.961 . S
H1030 C1015 0.961 . S
H1031 C1015 0.961 . S
H1032 C1016 0.931 . S
H1033 C1021 0.930 . S
H1034 C1022 0.956 . S
H1035 C1022 0.961 . S
H1036 C1022 0.961 . S
H1037 C1023 0.958 . S
H1038 C1023 0.961 . S
H1039 C1023 0.960 . S
C1040 C1041 1.391 . S
C1040 C1042 1.394 1_545 S
C1040 H1056 0.931 . S
C1041 C1040 1.391 . S
C1041 C1045 1.376 1_545 S
C1042 C1040 1.394 1_565 S
C1042 C1043 1.369 . S
C1042 C1046 1.535 . S
C1043 C1042 1.369 . S
C1043 C1044 1.410 . S
C1043 C1051 1.503 . S
C1044 C1043 1.410 . S
C1044 C1045 1.392 . S
C1044 C1047 1.511 . S
C1045 C1041 1.376 1_565 S
C1045 C1044 1.392 . S
C1045 H1057 0.929 . S
C1046 C1042 1.535 . S
C1046 H1058 0.977 . S
C1046 H1059 0.955 1_565 S
C1046 H1060 0.947 1_565 S
C1047 C1044 1.511 . S
C1047 H1061 0.961 . S
C1047 H1062 0.961 . S
C1047 H1063 0.961 . S
C1048 C1049 1.370 . S
C1048 C1050 1.363 . S
C1048 H1064 0.931 . S
C1049 C1048 1.370 . S
C1049 C1053 1.408 . S
C1050 C1048 1.363 . S
C1050 C1051 1.370 . S
C1050 C1054 1.524 . S
C1051 C1043 1.503 . S
C1051 C1050 1.370 . S
C1051 C1052 1.403 . S
C1052 C1051 1.403 . S
C1052 C1053 1.404 . S
C1052 C1055 1.539 . S
C1053 C1049 1.408 . S
C1053 C1052 1.404 . S
C1053 H1065 0.930 . S
C1054 C1050 1.524 . S
C1054 H1066 0.956 . S
C1054 H1067 0.961 . S
C1054 H1068 0.961 . S
C1055 C1052 1.539 . S
C1055 H1069 0.958 . S
C1055 H1070 0.961 . S
C1055 H1071 0.960 . S
H1056 C1040 0.931 . S
H1057 C1045 0.929 . S
H1058 C1046 0.977 . S
H1059 C1046 0.955 1_545 S
H1060 C1046 0.947 1_545 S
H1061 C1047 0.961 . S
H1062 C1047 0.961 . S
H1063 C1047 0.961 . S
H1064 C1048 0.931 . S
H1065 C1053 0.930 . S
H1066 C1054 0.956 . S
H1067 C1054 0.961 . S
H1068 C1054 0.961 . S
H1069 C1055 0.958 . S
H1070 C1055 0.961 . S
H1071 C1055 0.960 . S
C1072 C1073 1.391 . S
C1072 C1074 1.394 . S
C1072 H1088 0.931 . S
C1073 C1072 1.391 . S
C1073 C1077 1.376 . S
C1074 C1072 1.394 . S
C1074 C1075 1.369 . S
C1074 C1078 1.531 . S
C1075 C1074 1.369 . S
C1075 C1076 1.410 . S
C1075 C1083 1.503 . S
C1076 C1075 1.410 . S
C1076 C1077 1.392 . S
C1076 C1079 1.511 . S
C1077 C1073 1.376 . S
C1077 C1076 1.392 . S
C1077 H1089 0.929 . S
C1078 C1074 1.531 . S
C1078 H1090 0.960 . S
C1078 H1091 0.962 . S
C1078 H1092 0.960 . S
C1079 C1076 1.511 . S
C1079 H1093 0.961 . S
C1079 H1094 0.961 . S
C1079 H1095 0.961 . S
C1080 C1081 1.370 . S
C1080 C1082 1.363 . S
C1080 H1096 0.931 . S
C1081 C1080 1.370 . S
C1081 C1085 1.408 . S
C1082 C1080 1.363 . S
C1082 C1083 1.370 . S
C1082 C1086 1.524 . S
C1083 C1075 1.503 . S
C1083 C1082 1.370 . S
C1083 C1084 1.403 . S
C1084 C1083 1.403 . S
C1084 C1085 1.404 . S
C1084 C1087 1.539 . S
C1085 C1081 1.408 . S
C1085 C1084 1.404 . S
C1085 H1097 0.930 . S
C1086 C1082 1.524 . S
C1086 H1098 0.956 . S
C1086 H1099 0.961 . S
C1086 H1100 0.961 . S
C1087 C1084 1.539 . S
C1087 H1101 0.958 . S
C1087 H1102 0.961 . S
C1087 H1103 0.960 . S
H1088 C1072 0.931 . S
H1089 C1077 0.929 . S
H1090 C1078 0.960 . S
H1091 C1078 0.962 . S
H1092 C1078 0.960 . S
H1093 C1079 0.961 . S
H1094 C1079 0.961 . S
H1095 C1079 0.961 . S
H1096 C1080 0.931 . S
H1097 C1085 0.930 . S
H1098 C1086 0.956 . S
H1099 C1086 0.961 . S
H1100 C1086 0.961 . S
H1101 C1087 0.958 . S
H1102 C1087 0.961 . S
H1103 C1087 0.960 . S
C1104 C1105 1.391 . S
C1104 C1106 1.394 . S
C1104 H1120 0.931 . S
C1105 C1104 1.391 . S
C1105 C1109 1.376 . S
C1106 C1104 1.394 . S
C1106 C1107 1.369 . S
C1106 C1110 1.531 . S
C1107 C1106 1.369 . S
C1107 C1108 1.410 . S
C1107 C1115 1.503 . S
C1108 C1107 1.410 . S
C1108 C1109 1.392 . S
C1108 C1111 1.511 . S
C1109 C1105 1.376 . S
C1109 C1108 1.392 . S
C1109 H1121 0.929 . S
C1110 C1106 1.531 . S
C1110 H1122 0.960 . S
C1110 H1123 0.962 . S
C1110 H1124 0.960 . S
C1111 C1108 1.511 . S
C1111 H1125 0.961 . S
C1111 H1126 0.961 . S
C1111 H1127 0.961 . S
C1112 C1113 1.370 . S
C1112 C1114 1.363 . S
C1112 H1128 0.931 . S
C1113 C1112 1.370 . S
C1113 C1117 1.408 . S
C1114 C1112 1.363 . S
C1114 C1115 1.370 . S
C1114 C1118 1.524 . S
C1115 C1107 1.503 . S
C1115 C1114 1.370 . S
C1115 C1116 1.403 . S
C1116 C1115 1.403 . S
C1116 C1117 1.404 . S
C1116 C1119 1.539 . S
C1117 C1113 1.408 . S
C1117 C1116 1.404 . S
C1117 H1129 0.930 . S
C1118 C1114 1.524 . S
C1118 H1130 0.956 . S
C1118 H1131 0.961 . S
C1118 H1132 0.961 . S
C1119 C1116 1.539 . S
C1119 H1133 0.958 . S
C1119 H1134 0.961 . S
C1119 H1135 0.960 . S
H1120 C1104 0.931 . S
H1121 C1109 0.929 . S
H1122 C1110 0.960 . S
H1123 C1110 0.962 . S
H1124 C1110 0.960 . S
H1125 C1111 0.961 . S
H1126 C1111 0.961 . S
H1127 C1111 0.961 . S
H1128 C1112 0.931 . S
H1129 C1117 0.930 . S
H1130 C1118 0.956 . S
H1131 C1118 0.961 . S
H1132 C1118 0.961 . S
H1133 C1119 0.958 . S
H1134 C1119 0.961 . S
H1135 C1119 0.960 . S
C1136 C1137 1.391 . S
C1136 C1138 1.394 . S
C1136 H1152 0.931 . S
C1137 C1136 1.391 . S
C1137 C1141 1.376 . S
C1138 C1136 1.394 . S
C1138 C1139 1.369 . S
C1138 C1142 1.531 . S
C1139 C1138 1.369 . S
C1139 C1140 1.410 . S
C1139 C1147 1.503 . S
C1140 C1139 1.410 . S
C1140 C1141 1.392 . S
C1140 C1143 1.511 . S
C1141 C1137 1.376 . S
C1141 C1140 1.392 . S
C1141 H1153 0.929 . S
C1142 C1138 1.531 . S
C1142 H1154 0.960 . S
C1142 H1155 0.962 . S
C1142 H1156 0.960 . S
C1143 C1140 1.511 . S
C1143 H1157 0.961 . S
C1143 H1158 0.961 . S
C1143 H1159 0.961 . S
C1144 C1145 1.370 . S
C1144 C1146 1.363 . S
C1144 H1160 0.931 . S
C1145 C1144 1.370 . S
C1145 C1149 1.408 . S
C1146 C1144 1.363 . S
C1146 C1147 1.370 . S
C1146 C1150 1.524 . S
C1147 C1139 1.503 . S
C1147 C1146 1.370 . S
C1147 C1148 1.403 . S
C1148 C1147 1.403 . S
C1148 C1149 1.404 . S
C1148 C1151 1.539 . S
C1149 C1145 1.408 . S
C1149 C1148 1.404 . S
C1149 H1161 0.930 . S
C1150 C1146 1.524 . S
C1150 H1162 0.956 . S
C1150 H1163 0.961 . S
C1150 H1164 0.961 . S
C1151 C1148 1.539 . S
C1151 H1165 0.958 . S
C1151 H1166 0.961 . S
C1151 H1167 0.960 . S
H1152 C1136 0.931 . S
H1153 C1141 0.929 . S
H1154 C1142 0.960 . S
H1155 C1142 0.962 . S
H1156 C1142 0.960 . S
H1157 C1143 0.961 . S
H1158 C1143 0.961 . S
H1159 C1143 0.961 . S
H1160 C1144 0.931 . S
H1161 C1149 0.930 . S
H1162 C1150 0.956 . S
H1163 C1150 0.961 . S
H1164 C1150 0.961 . S
H1165 C1151 0.958 . S
H1166 C1151 0.961 . S
H1167 C1151 0.960 . S
C1168 C1169 1.391 . S
C1168 C1170 1.394 . S
C1168 H1184 0.931 . S
C1169 C1168 1.391 . S
C1169 C1173 1.376 . S
C1170 C1168 1.394 . S
C1170 C1171 1.369 . S
C1170 C1174 1.531 . S
C1171 C1170 1.369 . S
C1171 C1172 1.410 . S
C1171 C1179 1.503 . S
C1172 C1171 1.410 . S
C1172 C1173 1.392 . S
C1172 C1175 1.511 . S
C1173 C1169 1.376 . S
C1173 C1172 1.392 . S
C1173 H1185 0.929 . S
C1174 C1170 1.531 . S
C1174 H1186 0.960 . S
C1174 H1187 0.962 . S
C1174 H1188 0.960 . S
C1175 C1172 1.511 . S
C1175 H1189 0.961 . S
C1175 H1190 0.961 . S
C1175 H1191 0.961 . S
C1176 C1177 1.370 . S
C1176 C1178 1.363 . S
C1176 H1192 0.931 . S
C1177 C1176 1.370 . S
C1177 C1181 1.408 . S
C1178 C1176 1.363 . S
C1178 C1179 1.370 . S
C1178 C1182 1.524 . S
C1179 C1171 1.503 . S
C1179 C1178 1.370 . S
C1179 C1180 1.403 . S
C1180 C1179 1.403 . S
C1180 C1181 1.404 . S
C1180 C1183 1.539 . S
C1181 C1177 1.408 . S
C1181 C1180 1.404 . S
C1181 H1193 0.930 . S
C1182 C1178 1.524 . S
C1182 H1194 0.956 . S
C1182 H1195 0.961 . S
C1182 H1196 0.961 . S
C1183 C1180 1.539 . S
C1183 H1197 0.958 . S
C1183 H1198 0.961 . S
C1183 H1199 0.960 . S
H1184 C1168 0.931 . S
H1185 C1173 0.929 . S
H1186 C1174 0.960 . S
H1187 C1174 0.962 . S
H1188 C1174 0.960 . S
H1189 C1175 0.961 . S
H1190 C1175 0.961 . S
H1191 C1175 0.961 . S
H1192 C1176 0.931 . S
H1193 C1181 0.930 . S
H1194 C1182 0.956 . S
H1195 C1182 0.961 . S
H1196 C1182 0.961 . S
H1197 C1183 0.958 . S
H1198 C1183 0.961 . S
H1199 C1183 0.960 . S
C1200 C1201 1.391 . S
C1200 C1202 1.394 . S
C1200 H1216 0.931 . S
C1201 C1200 1.391 . S
C1201 C1205 1.376 . S
C1202 C1200 1.394 . S
C1202 C1203 1.369 . S
C1202 C1206 1.531 . S
C1203 C1202 1.369 . S
C1203 C1204 1.410 . S
C1203 C1211 1.503 . S
C1204 C1203 1.410 . S
C1204 C1205 1.392 . S
C1204 C1207 1.511 . S
C1205 C1201 1.376 . S
C1205 C1204 1.392 . S
C1205 H1217 0.929 . S
C1206 C1202 1.531 . S
C1206 H1218 0.960 . S
C1206 H1219 0.962 . S
C1206 H1220 0.960 . S
C1207 C1204 1.511 . S
C1207 H1221 0.961 . S
C1207 H1222 0.961 . S
C1207 H1223 0.961 . S
C1208 C1209 1.370 . S
C1208 C1210 1.363 . S
C1208 H1224 0.931 . S
C1209 C1208 1.370 . S
C1209 C1213 1.408 . S
C1210 C1208 1.363 . S
C1210 C1211 1.370 . S
C1210 C1214 1.524 . S
C1211 C1203 1.503 . S
C1211 C1210 1.370 . S
C1211 C1212 1.403 . S
C1212 C1211 1.403 . S
C1212 C1213 1.404 . S
C1212 C1215 1.539 . S
C1213 C1209 1.408 . S
C1213 C1212 1.404 . S
C1213 H1225 0.930 . S
C1214 C1210 1.524 . S
C1214 H1226 0.956 . S
C1214 H1227 0.961 . S
C1214 H1228 0.961 . S
C1215 C1212 1.539 . S
C1215 H1229 0.958 . S
C1215 H1230 0.961 . S
C1215 H1231 0.960 . S
H1216 C1200 0.931 . S
H1217 C1205 0.929 . S
H1218 C1206 0.960 . S
H1219 C1206 0.962 . S
H1220 C1206 0.960 . S
H1221 C1207 0.961 . S
H1222 C1207 0.961 . S
H1223 C1207 0.961 . S
H1224 C1208 0.931 . S
H1225 C1213 0.930 . S
H1226 C1214 0.956 . S
H1227 C1214 0.961 . S
H1228 C1214 0.961 . S
H1229 C1215 0.958 . S
H1230 C1215 0.961 . S
H1231 C1215 0.960 . S
C1232 C1233 1.391 . S
C1232 C1234 1.394 . S
C1232 H1248 0.931 . S
C1233 C1232 1.391 . S
C1233 C1237 1.376 . S
C1234 C1232 1.394 . S
C1234 C1235 1.369 . S
C1234 C1238 1.531 . S
C1235 C1234 1.369 . S
C1235 C1236 1.410 . S
C1235 C1243 1.503 . S
C1236 C1235 1.410 . S
C1236 C1237 1.392 . S
C1236 C1239 1.511 . S
C1237 C1233 1.376 . S
C1237 C1236 1.392 . S
C1237 H1249 0.929 . S
C1238 C1234 1.531 . S
C1238 H1250 0.960 . S
C1238 H1251 0.962 . S
C1238 H1252 0.960 . S
C1239 C1236 1.511 . S
C1239 H1253 0.961 . S
C1239 H1254 0.961 . S
C1239 H1255 0.961 . S
C1240 C1241 1.370 . S
C1240 C1242 1.363 . S
C1240 H1256 0.931 . S
C1241 C1240 1.370 . S
C1241 C1245 1.408 . S
C1242 C1240 1.363 . S
C1242 C1243 1.370 . S
C1242 C1246 1.524 . S
C1243 C1235 1.503 . S
C1243 C1242 1.370 . S
C1243 C1244 1.403 . S
C1244 C1243 1.403 . S
C1244 C1245 1.404 . S
C1244 C1247 1.539 . S
C1245 C1241 1.408 . S
C1245 C1244 1.404 . S
C1245 H1257 0.930 . S
C1246 C1242 1.524 . S
C1246 H1258 0.956 . S
C1246 H1259 0.961 . S
C1246 H1260 0.961 . S
C1247 C1244 1.539 . S
C1247 H1261 0.958 . S
C1247 H1262 0.961 . S
C1247 H1263 0.960 . S
H1248 C1232 0.931 . S
H1249 C1237 0.929 . S
H1250 C1238 0.960 . S
H1251 C1238 0.962 . S
H1252 C1238 0.960 . S
H1253 C1239 0.961 . S
H1254 C1239 0.961 . S
H1255 C1239 0.961 . S
H1256 C1240 0.931 . S
H1257 C1245 0.930 . S
H1258 C1246 0.956 . S
H1259 C1246 0.961 . S
H1260 C1246 0.961 . S
H1261 C1247 0.958 . S
H1262 C1247 0.961 . S
H1263 C1247 0.960 . S
C1264 C1265 1.391 . S
C1264 C1266 1.394 . S
C1264 H1280 0.931 . S
C1265 C1264 1.391 . S
C1265 C1269 1.376 . S
C1266 C1264 1.394 . S
C1266 C1267 1.369 . S
C1266 C1270 1.531 . S
C1267 C1266 1.369 . S
C1267 C1268 1.410 . S
C1267 C1275 1.503 . S
C1268 C1267 1.410 . S
C1268 C1269 1.392 . S
C1268 C1271 1.511 . S
C1269 C1265 1.376 . S
C1269 C1268 1.392 . S
C1269 H1281 0.929 . S
C1270 C1266 1.531 . S
C1270 H1282 0.960 . S
C1270 H1283 0.962 . S
C1270 H1284 0.960 . S
C1271 C1268 1.511 . S
C1271 H1285 0.961 . S
C1271 H1286 0.961 . S
C1271 H1287 0.961 . S
C1272 C1273 1.370 . S
C1272 C1274 1.363 . S
C1272 H1288 0.931 . S
C1273 C1272 1.370 . S
C1273 C1277 1.408 . S
C1274 C1272 1.363 . S
C1274 C1275 1.370 . S
C1274 C1278 1.524 . S
C1275 C1267 1.503 . S
C1275 C1274 1.370 . S
C1275 C1276 1.403 . S
C1276 C1275 1.403 . S
C1276 C1277 1.404 . S
C1276 C1279 1.539 . S
C1277 C1273 1.408 . S
C1277 C1276 1.404 . S
C1277 H1289 0.930 . S
C1278 C1274 1.524 . S
C1278 H1290 0.956 . S
C1278 H1291 0.961 . S
C1278 H1292 0.961 . S
C1279 C1276 1.539 . S
C1279 H1293 0.958 . S
C1279 H1294 0.961 . S
C1279 H1295 0.960 . S
H1280 C1264 0.931 . S
H1281 C1269 0.929 . S
H1282 C1270 0.960 . S
H1283 C1270 0.962 . S
H1284 C1270 0.960 . S
H1285 C1271 0.961 . S
H1286 C1271 0.961 . S
H1287 C1271 0.961 . S
H1288 C1272 0.931 . S
H1289 C1277 0.930 . S
H1290 C1278 0.956 . S
H1291 C1278 0.961 . S
H1292 C1278 0.961 . S
H1293 C1279 0.958 . S
H1294 C1279 0.961 . S
H1295 C1279 0.960 . S
C1296 C1297 1.391 . S
C1296 C1298 1.394 . S
C1296 H1312 0.931 . S
C1297 C1296 1.391 . S
C1297 C1301 1.376 . S
C1298 C1296 1.394 . S
C1298 C1299 1.369 . S
C1298 C1302 1.531 . S
C1299 C1298 1.369 . S
C1299 C1300 1.410 . S
C1299 C1307 1.503 . S
C1300 C1299 1.410 . S
C1300 C1301 1.392 . S
C1300 C1303 1.511 . S
C1301 C1297 1.376 . S
C1301 C1300 1.392 . S
C1301 H1313 0.929 . S
C1302 C1298 1.531 . S
C1302 H1314 0.960 . S
C1302 H1315 0.962 . S
C1302 H1316 0.960 . S
C1303 C1300 1.511 . S
C1303 H1317 0.961 . S
C1303 H1318 0.961 . S
C1303 H1319 0.961 . S
C1304 C1305 1.370 . S
C1304 C1306 1.363 . S
C1304 H1320 0.931 . S
C1305 C1304 1.370 . S
C1305 C1309 1.408 . S
C1306 C1304 1.363 . S
C1306 C1307 1.370 . S
C1306 C1310 1.524 . S
C1307 C1299 1.503 . S
C1307 C1306 1.370 . S
C1307 C1308 1.403 . S
C1308 C1307 1.403 . S
C1308 C1309 1.404 . S
C1308 C1311 1.539 . S
C1309 C1305 1.408 . S
C1309 C1308 1.404 . S
C1309 H1321 0.930 . S
C1310 C1306 1.524 . S
C1310 H1322 0.956 . S
C1310 H1323 0.961 . S
C1310 H1324 0.961 . S
C1311 C1308 1.539 . S
C1311 H1325 0.958 . S
C1311 H1326 0.961 . S
C1311 H1327 0.960 . S
H1312 C1296 0.931 . S
H1313 C1301 0.929 . S
H1314 C1302 0.960 . S
H1315 C1302 0.962 . S
H1316 C1302 0.960 . S
H1317 C1303 0.961 . S
H1318 C1303 0.961 . S
H1319 C1303 0.961 . S
H1320 C1304 0.931 . S
H1321 C1309 0.930 . S
H1322 C1310 0.956 . S
H1323 C1310 0.961 . S
H1324 C1310 0.961 . S
H1325 C1311 0.958 . S
H1326 C1311 0.961 . S
H1327 C1311 0.960 . S
C1328 C1329 1.391 . S
C1328 C1330 1.394 . S
C1328 H1344 0.931 . S
C1329 C1328 1.391 . S
C1329 C1333 1.376 . S
C1330 C1328 1.394 . S
C1330 C1331 1.369 . S
C1330 C1334 1.531 . S
C1331 C1330 1.369 . S
C1331 C1332 1.410 . S
C1331 C1339 1.503 . S
C1332 C1331 1.410 . S
C1332 C1333 1.392 . S
C1332 C1335 1.511 . S
C1333 C1329 1.376 . S
C1333 C1332 1.392 . S
C1333 H1345 0.929 . S
C1334 C1330 1.531 . S
C1334 H1346 0.960 . S
C1334 H1347 0.962 . S
C1334 H1348 0.960 . S
C1335 C1332 1.511 . S
C1335 H1349 0.961 . S
C1335 H1350 0.961 . S
C1335 H1351 0.961 . S
C1336 C1337 1.370 . S
C1336 C1338 1.363 . S
C1336 H1352 0.931 . S
C1337 C1336 1.370 . S
C1337 C1341 1.408 . S
C1338 C1336 1.363 . S
C1338 C1339 1.370 . S
C1338 C1342 1.524 . S
C1339 C1331 1.503 . S
C1339 C1338 1.370 . S
C1339 C1340 1.403 . S
C1340 C1339 1.403 . S
C1340 C1341 1.404 . S
C1340 C1343 1.539 . S
C1341 C1337 1.408 . S
C1341 C1340 1.404 . S
C1341 H1353 0.930 . S
C1342 C1338 1.524 . S
C1342 H1354 0.956 . S
C1342 H1355 0.961 . S
C1342 H1356 0.961 . S
C1343 C1340 1.539 . S
C1343 H1357 0.958 . S
C1343 H1358 0.961 . S
C1343 H1359 0.960 . S
H1344 C1328 0.931 . S
H1345 C1333 0.929 . S
H1346 C1334 0.960 . S
H1347 C1334 0.962 . S
H1348 C1334 0.960 . S
H1349 C1335 0.961 . S
H1350 C1335 0.961 . S
H1351 C1335 0.961 . S
H1352 C1336 0.931 . S
H1353 C1341 0.930 . S
H1354 C1342 0.956 . S
H1355 C1342 0.961 . S
H1356 C1342 0.961 . S
H1357 C1343 0.958 . S
H1358 C1343 0.961 . S
H1359 C1343 0.960 . S
C1360 C1361 1.391 . S
C1360 C1362 1.394 . S
C1360 H1376 0.931 . S
C1361 C1360 1.391 . S
C1361 C1365 1.376 . S
C1362 C1360 1.394 . S
C1362 C1363 1.369 . S
C1362 C1366 1.531 . S
C1363 C1362 1.369 . S
C1363 C1364 1.410 . S
C1363 C1371 1.503 . S
C1364 C1363 1.410 . S
C1364 C1365 1.392 . S
C1364 C1367 1.511 . S
C1365 C1361 1.376 . S
C1365 C1364 1.392 . S
C1365 H1377 0.929 . S
C1366 C1362 1.531 . S
C1366 H1378 0.960 . S
C1366 H1379 0.962 . S
C1366 H1380 0.960 . S
C1367 C1364 1.511 . S
C1367 H1381 0.961 . S
C1367 H1382 0.961 . S
C1367 H1383 0.961 . S
C1368 C1369 1.370 . S
C1368 C1370 1.363 . S
C1368 H1384 0.931 . S
C1369 C1368 1.370 . S
C1369 C1373 1.408 . S
C1370 C1368 1.363 . S
C1370 C1371 1.370 . S
C1370 C1374 1.524 . S
C1371 C1363 1.503 . S
C1371 C1370 1.370 . S
C1371 C1372 1.403 . S
C1372 C1371 1.403 . S
C1372 C1373 1.404 . S
C1372 C1375 1.539 . S
C1373 C1369 1.408 . S
C1373 C1372 1.404 . S
C1373 H1385 0.930 . S
C1374 C1370 1.524 . S
C1374 H1386 0.956 . S
C1374 H1387 0.961 . S
C1374 H1388 0.961 . S
C1375 C1372 1.539 . S
C1375 H1389 0.958 . S
C1375 H1390 0.961 . S
C1375 H1391 0.960 . S
H1376 C1360 0.931 . S
H1377 C1365 0.929 . S
H1378 C1366 0.960 . S
H1379 C1366 0.962 . S
H1380 C1366 0.960 . S
H1381 C1367 0.961 . S
H1382 C1367 0.961 . S
H1383 C1367 0.961 . S
H1384 C1368 0.931 . S
H1385 C1373 0.930 . S
H1386 C1374 0.956 . S
H1387 C1374 0.961 . S
H1388 C1374 0.961 . S
H1389 C1375 0.958 . S
H1390 C1375 0.961 . S
H1391 C1375 0.960 . S
C1392 C1393 1.391 . S
C1392 C1394 1.394 . S
C1392 H1408 0.931 . S
C1393 C1392 1.391 . S
C1393 C1397 1.376 . S
C1394 C1392 1.394 . S
C1394 C1395 1.369 . S
C1394 C1398 1.531 . S
C1395 C1394 1.369 . S
C1395 C1396 1.410 . S
C1395 C1403 1.503 . S
C1396 C1395 1.410 . S
C1396 C1397 1.392 . S
C1396 C1399 1.511 . S
C1397 C1393 1.376 . S
C1397 C1396 1.392 . S
C1397 H1409 0.929 . S
C1398 C1394 1.531 . S
C1398 H1410 0.960 . S
C1398 H1411 0.962 . S
C1398 H1412 0.960 . S
C1399 C1396 1.511 . S
C1399 H1413 0.961 . S
C1399 H1414 0.961 . S
C1399 H1415 0.961 . S
C1400 C1401 1.370 . S
C1400 C1402 1.363 . S
C1400 H1416 0.931 . S
C1401 C1400 1.370 . S
C1401 C1405 1.408 . S
C1402 C1400 1.363 . S
C1402 C1403 1.370 . S
C1402 C1406 1.524 . S
C1403 C1395 1.503 . S
C1403 C1402 1.370 . S
C1403 C1404 1.403 . S
C1404 C1403 1.403 . S
C1404 C1405 1.404 . S
C1404 C1407 1.539 . S
C1405 C1401 1.408 . S
C1405 C1404 1.404 . S
C1405 H1417 0.930 . S
C1406 C1402 1.524 . S
C1406 H1418 0.956 . S
C1406 H1419 0.961 . S
C1406 H1420 0.961 . S
C1407 C1404 1.539 . S
C1407 H1421 0.958 . S
C1407 H1422 0.961 . S
C1407 H1423 0.960 . S
H1408 C1392 0.931 . S
H1409 C1397 0.929 . S
H1410 C1398 0.960 . S
H1411 C1398 0.962 . S
H1412 C1398 0.960 . S
H1413 C1399 0.961 . S
H1414 C1399 0.961 . S
H1415 C1399 0.961 . S
H1416 C1400 0.931 . S
H1417 C1405 0.930 . S
H1418 C1406 0.956 . S
H1419 C1406 0.961 . S
H1420 C1406 0.961 . S
H1421 C1407 0.958 . S
H1422 C1407 0.961 . S
H1423 C1407 0.960 . S
C1424 C1425 1.391 . S
C1424 C1426 1.394 . S
C1424 H1440 0.931 . S
C1425 C1424 1.391 . S
C1425 C1429 1.376 . S
C1426 C1424 1.394 . S
C1426 C1427 1.369 . S
C1426 C1430 1.531 . S
C1427 C1426 1.369 . S
C1427 C1428 1.410 . S
C1427 C1435 1.503 . S
C1428 C1427 1.410 . S
C1428 C1429 1.392 . S
C1428 C1431 1.511 . S
C1429 C1425 1.376 . S
C1429 C1428 1.392 . S
C1429 H1441 0.929 . S
C1430 C1426 1.531 . S
C1430 H1442 0.960 . S
C1430 H1443 0.962 . S
C1430 H1444 0.960 . S
C1431 C1428 1.511 . S
C1431 H1445 0.961 . S
C1431 H1446 0.961 . S
C1431 H1447 0.961 . S
C1432 C1433 1.370 . S
C1432 C1434 1.363 . S
C1432 H1448 0.931 . S
C1433 C1432 1.370 . S
C1433 C1437 1.408 . S
C1434 C1432 1.363 . S
C1434 C1435 1.370 . S
C1434 C1438 1.524 . S
C1435 C1427 1.503 . S
C1435 C1434 1.370 . S
C1435 C1436 1.403 . S
C1436 C1435 1.403 . S
C1436 C1437 1.404 . S
C1436 C1439 1.539 . S
C1437 C1433 1.408 . S
C1437 C1436 1.404 . S
C1437 H1449 0.930 . S
C1438 C1434 1.524 . S
C1438 H1450 0.956 . S
C1438 H1451 0.961 . S
C1438 H1452 0.961 1_655 S
C1439 C1436 1.539 . S
C1439 H1453 0.958 . S
C1439 H1454 0.961 . S
C1439 H1455 0.960 . S
H1440 C1424 0.931 . S
H1441 C1429 0.929 . S
H1442 C1430 0.960 . S
H1443 C1430 0.962 . S
H1444 C1430 0.960 . S
H1445 C1431 0.961 . S
H1446 C1431 0.961 . S
H1447 C1431 0.961 . S
H1448 C1432 0.931 . S
H1449 C1437 0.930 . S
H1450 C1438 0.956 . S
H1451 C1438 0.961 . S
H1452 C1438 0.961 1_455 S
H1453 C1439 0.958 . S
H1454 C1439 0.961 . S
H1455 C1439 0.960 . S
C1456 C1457 1.391 . S
C1456 C1458 1.394 . S
C1456 H1472 0.931 . S
C1457 C1456 1.391 . S
C1457 C1461 1.376 . S
C1458 C1456 1.394 . S
C1458 C1459 1.369 . S
C1458 C1462 1.531 . S
C1459 C1458 1.369 . S
C1459 C1460 1.410 . S
C1459 C1467 1.503 . S
C1460 C1459 1.410 . S
C1460 C1461 1.392 . S
C1460 C1463 1.511 . S
C1461 C1457 1.376 . S
C1461 C1460 1.392 . S
C1461 H1473 0.929 . S
C1462 C1458 1.531 . S
C1462 H1474 0.960 . S
C1462 H1475 0.962 . S
C1462 H1476 0.960 . S
C1463 C1460 1.511 . S
C1463 H1477 0.961 . S
C1463 H1478 0.961 . S
C1463 H1479 0.961 . S
C1464 C1465 1.370 . S
C1464 C1466 1.363 . S
C1464 H1480 0.931 . S
C1465 C1464 1.370 . S
C1465 C1469 1.408 . S
C1466 C1464 1.363 . S
C1466 C1467 1.370 . S
C1466 C1470 1.524 . S
C1467 C1459 1.503 . S
C1467 C1466 1.370 . S
C1467 C1468 1.403 . S
C1468 C1467 1.403 . S
C1468 C1469 1.404 . S
C1468 C1471 1.539 . S
C1469 C1465 1.408 . S
C1469 C1468 1.404 . S
C1469 H1481 0.930 1_655 S
C1470 C1466 1.524 . S
C1470 H1482 0.956 . S
C1470 H1483 0.961 . S
C1470 H1484 0.961 . S
C1471 C1468 1.539 . S
C1471 H1485 0.958 1_655 S
C1471 H1486 0.961 1_655 S
C1471 H1487 0.960 . S
H1472 C1456 0.931 . S
H1473 C1461 0.929 . S
H1474 C1462 0.960 . S
H1475 C1462 0.962 . S
H1476 C1462 0.960 . S
H1477 C1463 0.961 . S
H1478 C1463 0.961 . S
H1479 C1463 0.961 . S
H1480 C1464 0.931 . S
H1481 C1469 0.930 1_455 S
H1482 C1470 0.956 . S
H1483 C1470 0.961 . S
H1484 C1470 0.961 . S
H1485 C1471 0.958 1_455 S
H1486 C1471 0.961 1_455 S
H1487 C1471 0.960 . S
C1488 C1489 1.391 . S
C1488 C1490 1.394 . S
C1488 H1504 0.931 . S
C1489 C1488 1.391 . S
C1489 C1493 1.376 . S
C1490 C1488 1.394 . S
C1490 C1491 1.369 . S
C1490 C1494 1.531 . S
C1491 C1490 1.369 . S
C1491 C1492 1.410 . S
C1491 C1499 1.503 . S
C1492 C1491 1.410 . S
C1492 C1493 1.392 . S
C1492 C1495 1.511 . S
C1493 C1489 1.376 . S
C1493 C1492 1.392 . S
C1493 H1505 0.929 . S
C1494 C1490 1.531 . S
C1494 H1506 0.960 . S
C1494 H1507 0.962 . S
C1494 H1508 0.960 . S
C1495 C1492 1.511 . S
C1495 H1509 0.961 . S
C1495 H1510 0.961 . S
C1495 H1511 0.961 . S
C1496 C1497 1.370 . S
C1496 C1498 1.363 . S
C1496 H1512 0.931 . S
C1497 C1496 1.370 . S
C1497 C1501 1.408 . S
C1498 C1496 1.363 . S
C1498 C1499 1.370 . S
C1498 C1502 1.524 . S
C1499 C1491 1.503 . S
C1499 C1498 1.370 . S
C1499 C1500 1.403 . S
C1500 C1499 1.403 . S
C1500 C1501 1.404 . S
C1500 C1503 1.539 . S
C1501 C1497 1.408 . S
C1501 C1500 1.404 . S
C1501 H1513 0.930 . S
C1502 C1498 1.524 . S
C1502 H1514 0.956 . S
C1502 H1515 0.961 . S
C1502 H1516 0.961 . S
C1503 C1500 1.539 . S
C1503 H1517 0.958 . S
C1503 H1518 0.961 . S
C1503 H1519 0.960 . S
H1504 C1488 0.931 . S
H1505 C1493 0.929 . S
H1506 C1494 0.960 . S
H1507 C1494 0.962 . S
H1508 C1494 0.960 . S
H1509 C1495 0.961 . S
H1510 C1495 0.961 . S
H1511 C1495 0.961 . S
H1512 C1496 0.931 . S
H1513 C1501 0.930 . S
H1514 C1502 0.956 . S
H1515 C1502 0.961 . S
H1516 C1502 0.961 . S
H1517 C1503 0.958 . S
H1518 C1503 0.961 . S
H1519 C1503 0.960 . S
C1520 C1521 1.391 . S
C1520 C1522 1.394 . S
C1520 H1536 0.931 . S
C1521 C1520 1.391 . S
C1521 C1525 1.376 . S
C1522 C1520 1.394 . S
C1522 C1523 1.369 . S
C1522 C1526 1.531 . S
C1523 C1522 1.369 . S
C1523 C1524 1.410 . S
C1523 C1531 1.503 . S
C1524 C1523 1.410 . S
C1524 C1525 1.392 . S
C1524 C1527 1.511 . S
C1525 C1521 1.376 . S
C1525 C1524 1.392 . S
C1525 H1537 0.929 . S
C1526 C1522 1.531 . S
C1526 H1538 0.960 . S
C1526 H1539 0.962 . S
C1526 H1540 0.960 . S
C1527 C1524 1.511 . S
C1527 H1541 0.961 . S
C1527 H1542 0.961 . S
C1527 H1543 0.961 . S
C1528 C1529 1.370 . S
C1528 C1530 1.363 . S
C1528 H1544 0.931 . S
C1529 C1528 1.370 . S
C1529 C1533 1.408 . S
C1530 C1528 1.363 . S
C1530 C1531 1.370 . S
C1530 C1534 1.524 . S
C1531 C1523 1.503 . S
C1531 C1530 1.370 . S
C1531 C1532 1.403 . S
C1532 C1531 1.403 . S
C1532 C1533 1.404 . S
C1532 C1535 1.539 . S
C1533 C1529 1.408 . S
C1533 C1532 1.404 . S
C1533 H1545 0.930 . S
C1534 C1530 1.524 . S
C1534 H1546 0.956 . S
C1534 H1547 0.961 . S
C1534 H1548 0.961 . S
C1535 C1532 1.539 . S
C1535 H1549 0.958 . S
C1535 H1550 0.961 . S
C1535 H1551 0.960 . S
H1536 C1520 0.931 . S
H1537 C1525 0.929 . S
H1538 C1526 0.960 . S
H1539 C1526 0.962 . S
H1540 C1526 0.960 . S
H1541 C1527 0.961 . S
H1542 C1527 0.961 . S
H1543 C1527 0.961 . S
H1544 C1528 0.931 . S
H1545 C1533 0.930 . S
H1546 C1534 0.956 . S
H1547 C1534 0.961 . S
H1548 C1534 0.961 . S
H1549 C1535 0.958 . S
H1550 C1535 0.961 . S
H1551 C1535 0.960 . S
C1552 C1553 1.391 . S
C1552 C1554 1.394 . S
C1552 H1568 0.931 . S
C1553 C1552 1.391 . S
C1553 C1557 1.376 . S
C1554 C1552 1.394 . S
C1554 C1555 1.369 . S
C1554 C1558 1.531 . S
C1555 C1554 1.369 . S
C1555 C1556 1.410 . S
C1555 C1563 1.503 . S
C1556 C1555 1.410 . S
C1556 C1557 1.392 . S
C1556 C1559 1.511 . S
C1557 C1553 1.376 . S
C1557 C1556 1.392 . S
C1557 H1569 0.929 . S
C1558 C1554 1.531 . S
C1558 H1570 0.960 . S
C1558 H1571 0.962 . S
C1558 H1572 0.960 . S
C1559 C1556 1.511 . S
C1559 H1573 0.961 . S
C1559 H1574 0.961 . S
C1559 H1575 0.961 . S
C1560 C1561 1.370 . S
C1560 C1562 1.363 . S
C1560 H1576 0.931 . S
C1561 C1560 1.370 . S
C1561 C1565 1.408 . S
C1562 C1560 1.363 . S
C1562 C1563 1.370 . S
C1562 C1566 1.524 . S
C1563 C1555 1.503 . S
C1563 C1562 1.370 . S
C1563 C1564 1.403 . S
C1564 C1563 1.403 . S
C1564 C1565 1.404 . S
C1564 C1567 1.539 . S
C1565 C1561 1.408 . S
C1565 C1564 1.404 . S
C1565 H1577 0.930 . S
C1566 C1562 1.524 . S
C1566 H1578 0.956 . S
C1566 H1579 0.961 . S
C1566 H1580 0.961 1_455 S
C1567 C1564 1.539 . S
C1567 H1581 0.958 . S
C1567 H1582 0.961 . S
C1567 H1583 0.960 . S
H1568 C1552 0.931 . S
H1569 C1557 0.929 . S
H1570 C1558 0.960 . S
H1571 C1558 0.962 . S
H1572 C1558 0.960 . S
H1573 C1559 0.961 . S
H1574 C1559 0.961 . S
H1575 C1559 0.961 . S
H1576 C1560 0.931 . S
H1577 C1565 0.930 . S
H1578 C1566 0.956 . S
H1579 C1566 0.961 . S
H1580 C1566 0.961 1_655 S
H1581 C1567 0.958 . S
H1582 C1567 0.961 . S
H1583 C1567 0.960 . S
C817 C361 1.430 . S
C825 C554 1.449 . S
C857 C638 1.449 . S
C849 C451 1.440 . S
C889 C631 1.466 . S
C881 C241 1.437 . S
C913 C331 1.430 . S
C921 C547 1.461 . S
C953 C711 1.462 . S
C945 C140 1.453 . S
C985 C795 1.462 . S
C977 C211 1.453 . S
C1009 C20 1.432 . S
C1017 C788 1.462 . S
C1041 C91 1.428 . S
C1049 C704 1.460 . S
C1081 C538 1.360 . S
C1073 C80 1.459 1_554 S
C1113 C622 1.360 . S
C1105 C1 1.462 . S
C1145 C633 1.395 . S
C1137 C200 1.505 1_556 S
C1177 C549 1.395 . S
C1169 C121 1.510 . S
C1209 C717 1.338 . S
C1201 C320 1.515 1_556 S
C1233 C260 1.473 . S
C1241 C801 1.334 . S
C1273 C790 1.424 . S
C1265 C440 1.494 1_554 S
C1297 C380 1.484 . S
C1305 C706 1.388 . S
C1337 C536 1.578 . S
C1329 C31 1.552 . S
C1369 C620 1.584 . S
C1361 C61 1.557 . S
C1393 C151 1.545 . S
C1401 C627 1.552 . S
C1433 C543 1.559 . S
C1425 C181 1.526 . S
C1465 C715 1.579 . S
C1457 C271 1.544 . S
C1489 C301 1.575 . S
C1497 C799 1.580 . S
C1521 C391 1.478 . S
C1529 C806 1.554 . S
C1553 C421 1.567 . S
C1561 C722 1.557 . S
