# Generated by pormake.
# Topology zzz, (3,6)-cn, num edge types: 1
# Building blocks:
#     Node 0, Type 0, BuildingBlock: PAMTOO_clean_linker_0, # of connection points: 3
#     Node 1, Type 0, BuildingBlock: PAMTOO_clean_linker_0, # of connection points: 3
#     Node 2, Type 0, BuildingBlock: PAMTOO_clean_linker_0, # of connection points: 3
#     Node 3, Type 0, BuildingBlock: PAMTOO_clean_linker_0, # of connection points: 3
#     Node 4, Type 0, BuildingBlock: PAMTOO_clean_linker_0, # of connection points: 3
#     Node 5, Type 0, BuildingBlock: PAMTOO_clean_linker_0, # of connection points: 3
#     Node 6, Type 0, BuildingBlock: PAMTOO_clean_linker_0, # of connection points: 3
#     Node 7, Type 0, BuildingBlock: PAMTOO_clean_linker_0, # of connection points: 3
#     Node 8, Type 1, BuildingBlock: FUNLAD_clean_sbu_0, # of connection points: 6
#     Node 9, Type 1, BuildingBlock: FUNLAD_clean_sbu_0, # of connection points: 6
#     Node 10, Type 1, BuildingBlock: FUNLAD_clean_sbu_0, # of connection points: 6
#     Node 11, Type 1, BuildingBlock: FUNLAD_clean_sbu_0, # of connection points: 6
#     Edge 12, Type (0, 1), BuildingBlock: CIFDUS_clean_linker_0, # of connection points: 2
#     Edge 13, Type (0, 1), BuildingBlock: CIFDUS_clean_linker_0, # of connection points: 2
#     Edge 14, Type (0, 1), BuildingBlock: CIFDUS_clean_linker_0, # of connection points: 2
#     Edge 15, Type (0, 1), BuildingBlock: CIFDUS_clean_linker_0, # of connection points: 2
#     Edge 16, Type (0, 1), BuildingBlock: CIFDUS_clean_linker_0, # of connection points: 2
#     Edge 17, Type (0, 1), BuildingBlock: CIFDUS_clean_linker_0, # of connection points: 2
#     Edge 18, Type (0, 1), BuildingBlock: CIFDUS_clean_linker_0, # of connection points: 2
#     Edge 19, Type (0, 1), BuildingBlock: CIFDUS_clean_linker_0, # of connection points: 2
#     Edge 20, Type (0, 1), BuildingBlock: CIFDUS_clean_linker_0, # of connection points: 2
#     Edge 21, Type (0, 1), BuildingBlock: CIFDUS_clean_linker_0, # of connection points: 2
#     Edge 22, Type (0, 1), BuildingBlock: CIFDUS_clean_linker_0, # of connection points: 2
#     Edge 23, Type (0, 1), BuildingBlock: CIFDUS_clean_linker_0, # of connection points: 2
#     Edge 24, Type (0, 1), BuildingBlock: CIFDUS_clean_linker_0, # of connection points: 2
#     Edge 25, Type (0, 1), BuildingBlock: CIFDUS_clean_linker_0, # of connection points: 2
#     Edge 26, Type (0, 1), BuildingBlock: CIFDUS_clean_linker_0, # of connection points: 2
#     Edge 27, Type (0, 1), BuildingBlock: CIFDUS_clean_linker_0, # of connection points: 2
#     Edge 28, Type (0, 1), BuildingBlock: CIFDUS_clean_linker_0, # of connection points: 2
#     Edge 29, Type (0, 1), BuildingBlock: CIFDUS_clean_linker_0, # of connection points: 2
#     Edge 30, Type (0, 1), BuildingBlock: CIFDUS_clean_linker_0, # of connection points: 2
#     Edge 31, Type (0, 1), BuildingBlock: CIFDUS_clean_linker_0, # of connection points: 2
#     Edge 32, Type (0, 1), BuildingBlock: CIFDUS_clean_linker_0, # of connection points: 2
#     Edge 33, Type (0, 1), BuildingBlock: CIFDUS_clean_linker_0, # of connection points: 2
#     Edge 34, Type (0, 1), BuildingBlock: CIFDUS_clean_linker_0, # of connection points: 2
#     Edge 35, Type (0, 1), BuildingBlock: CIFDUS_clean_linker_0, # of connection points: 2
# Relax obj value: 0.113
# Max RMSD: 0.175
# Mean RMSD: 0.090
data_MOF--net-zzz--node1-FUNLAD_clean_sbu_0--node2-PAMTOO_clean_linker_0--edge1-CIFDUS_clean_linker_0
_symmetry_space_group_name_H-M    P1
_symmetry_Int_Tables_number       1
_symmetry_cell_setting            triclinic
loop_
_symmetry_equiv_pos_as_xyz
'x, y, z'
_cell_length_a     44.459925
_cell_length_b     50.852717
_cell_length_c     15.453219
_cell_angle_alpha  84.156154
_cell_angle_beta   83.999738
_cell_angle_gamma 90.221946
loop_
_atom_site_label
_atom_site_type_symbol
_atom_site_fract_x
_atom_site_fract_y
_atom_site_fract_z
_atom_type_partial_charge
H0 H 0.88929 0.49519 0.25181 0.0
H1 H 0.80468 0.4945 0.14105 0.0
H2 H 0.80889 0.52216 0.39389 0.0
H3 H 0.77915 0.54803 0.1884 0.0
C4 C 0.76113 0.53508 0.22674 0.0
O5 O 0.77341 0.51356 0.27204 0.0
H6 H 0.74881 0.54717 0.27452 0.0
C7 C 0.86506 0.49831 0.25743 0.0
C8 C 0.8511 0.50836 0.33245 0.0
C9 C 0.84871 0.49315 0.18834 0.0
C10 C 0.81769 0.49827 0.19413 0.0
C11 C 0.80342 0.50899 0.26758 0.0
C12 C 0.82013 0.51428 0.33668 0.0
H13 H 0.02035 0.83879 0.23119 0.0
H14 H 0.02169 0.78552 0.03112 0.0
H15 H 0.99177 0.75836 0.29949 0.0
H16 H 0.03992 0.72533 0.21128 0.0
C17 C 0.0341 0.72888 0.14275 0.0
O18 O 1.00819 0.74377 0.14194 0.0
H19 H 0.05328 0.73986 0.10257 0.0
C20 C 1.01566 0.81966 0.21003 0.0
C21 C 1.00323 0.79994 0.27308 0.0
C22 C 0.02067 0.8156 0.12138 0.0
C23 C 0.01731 0.78974 0.09849 0.0
C24 C 1.00832 0.7689 0.16337 0.0
C25 C 1.00019 0.77415 0.25047 0.0
H26 H 0.68185 0.01296 0.17076 0.0
H27 H 0.76482 0.00958 0.00343 0.0
H28 H 0.76525 0.99776 0.28373 0.0
H29 H 0.81952 0.0297 0.18703 0.0
C30 C 0.81881 0.02244 0.12174 0.0
O31 O 0.79925 1.00086 0.1306 0.0
H32 H 0.81031 0.03881 0.07766 0.0
C33 C 0.70626 0.01102 0.16305 0.0
C34 C 0.72149 0.0057 0.23748 0.0
C35 C 0.72147 0.01266 0.07886 0.0
C36 C 0.75278 0.00862 0.06839 0.0
C37 C 0.76877 0.0037 0.14208 0.0
C38 C 0.75302 1.00185 0.22694 0.0
H39 H 0.52472 0.63013 0.1593 0.0
H40 H 0.52758 0.70571 0.00933 0.0
H41 H 0.56275 0.69736 0.2603 0.0
H42 H 0.53665 0.75417 0.21177 0.0
C43 C 0.53409 0.75 0.14366 0.0
O44 O 0.55415 0.73043 0.12173 0.0
H45 H 0.51031 0.74336 0.14117 0.0
C46 C 0.52984 0.65114 0.15458 0.0
C47 C 0.54366 0.66165 0.22132 0.0
C48 C 0.52302 0.66685 0.0801 0.0
C49 C 0.53191 0.69349 0.06824 0.0
C50 C 0.5462 0.7045 0.13333 0.0
C51 C 0.55207 0.68862 0.21001 0.0
H52 H 0.17813 0.52528 0.1916 0.0
H53 H 0.26164 0.52091 0.30997 0.0
H54 H 0.26098 0.50945 0.0379 0.0
H55 H 0.32411 0.48232 0.13476 0.0
C56 C 0.30757 0.487 0.18986 0.0
O57 O 0.29505 0.51129 0.16764 0.0
H58 H 0.29006 0.47091 0.19926 0.0
C59 C 0.20252 0.52315 0.1862 0.0
C60 C 0.21766 0.51775 0.10634 0.0
C61 C 0.21803 0.52432 0.26006 0.0
C62 C 0.24936 0.52043 0.25314 0.0
C63 C 0.26488 0.5152 0.1731 0.0
C64 C 0.24903 0.51383 0.0994 0.0
H65 H 0.06752 0.15351 0.29061 0.0
H66 H 0.05527 0.21671 0.45556 0.0
H67 H 0.10689 0.22997 0.20296 0.0
H68 H 0.04672 0.26567 0.31708 0.0
C69 C 0.07038 0.27234 0.32157 0.0
O70 O 0.08779 0.2511 0.34715 0.0
H71 H 0.07989 0.28129 0.25578 0.0
C72 C 0.07088 0.17396 0.3019 0.0
C73 C 0.08832 0.19054 0.23788 0.0
C74 C 0.05845 0.18296 0.38035 0.0
C75 C 0.06411 0.20928 0.39488 0.0
C76 C 0.0816 0.22615 0.33106 0.0
C77 C 0.09346 0.21688 0.25203 0.0
H78 H 0.38428 0.99827 0.28925 0.0
H79 H 0.30024 0.99243 0.45469 0.0
H80 H 0.30026 0.00418 0.17408 0.0
H81 H 0.24444 0.02908 0.27109 0.0
C82 C 0.24818 0.01926 0.33663 0.0
O83 O 0.26584 0.99725 0.32613 0.0
H84 H 0.26004 0.03384 0.37079 0.0
C85 C 0.35971 0.99786 0.29633 0.0
C86 C 0.34441 1.00128 0.22155 0.0
C87 C 0.34422 0.99449 0.38009 0.0
C88 C 0.31251 0.99496 0.38996 0.0
C89 C 0.29653 0.99836 0.31577 0.0
C90 C 0.31254 1.00176 0.23126 0.0
H91 H 0.5263 0.37666 0.2907 0.0
H92 H 0.52434 0.30138 0.44546 0.0
H93 H 0.51254 0.30541 0.17107 0.0
H94 H 0.47414 0.26215 0.28442 0.0
C95 C 0.48748 0.26098 0.34166 0.0
O96 O 0.51509 0.27356 0.31671 0.0
H97 H 0.47443 0.271 0.39405 0.0
C98 C 0.52419 0.35526 0.29561 0.0
C99 C 0.51895 0.34297 0.22163 0.0
C100 C 0.52643 0.34052 0.37602 0.0
C101 C 0.52312 0.31295 0.38306 0.0
C102 C 0.51815 0.30023 0.30918 0.0
C103 C 0.51636 0.31524 0.22802 0.0
C104 C 0.04611 0.95678 0.84892 0.0
N105 N 1.01122 0.96218 0.61049 0.0
C106 C 0.0317 0.94363 0.58741 0.0
C107 C 0.02272 0.92116 0.55184 0.0
C108 C 0.99211 0.91704 0.54152 0.0
C109 C 0.97151 0.93695 0.56279 0.0
C110 C 0.98161 0.9595 0.59713 0.0
Zn111 Zn 0.02568 0.98902 0.68924 0.0
C112 C 0.97566 1.00057 0.82988 0.0
N113 N 0.05749 0.0372 0.87104 0.0
C114 C 0.08588 0.03421 0.8957 0.0
C115 C 0.04091 0.05883 0.88829 0.0
C116 C 0.05307 0.07885 0.92983 0.0
C117 C 0.08277 0.07681 0.95319 0.0
C118 C 0.09906 0.0539 0.93672 0.0
Zn119 Zn 0.04162 0.01191 0.7915 0.0
O120 O 0.03698 0.95578 0.77421 0.0
C121 C 0.0919 1.00139 0.65196 0.0
O122 O 0.05085 0.97905 0.87575 0.0
H123 H 0.01849 0.06096 0.86744 0.0
H124 H 0.05493 0.94539 0.60072 0.0
H125 H 0.09876 0.01694 0.88086 0.0
O126 O 0.07063 0.99037 0.61928 0.0
O127 O 0.08585 0.01131 0.72381 0.0
H128 H 0.96547 0.97416 0.61698 0.0
O129 O 0.03151 0.04451 0.70725 0.0
O130 O 1.0142 0.02294 0.60628 0.0
O131 O 0.99726 0.01234 0.85866 0.0
O132 O 0.98108 0.98899 0.76064 0.0
C133 C 0.02013 0.04478 0.63525 0.0
H134 H 0.03973 0.90694 0.53401 0.0
H135 H 0.94766 0.93476 0.5561 0.0
H136 H 0.03929 0.09575 0.94337 0.0
H137 H 0.12201 0.05146 0.95336 0.0
C138 C 0.48833 0.99132 0.63296 0.0
N139 N 0.52148 0.06658 0.66947 0.0
C140 C 0.52266 0.07249 0.58125 0.0
C141 C 0.51989 0.09856 0.54493 0.0
C142 C 0.51546 0.11898 0.59962 0.0
C143 C 0.51387 0.11222 0.69071 0.0
C144 C 0.51707 0.08585 0.72431 0.0
Zn145 Zn 0.52799 0.02782 0.7167 0.0
C146 C 0.48722 0.0072 0.86489 0.0
N147 N 0.5438 0.9461 0.7941 0.0
C148 C 0.54053 0.92435 0.75092 0.0
C149 C 0.5473 0.9435 0.88104 0.0
C150 C 0.54659 0.91871 0.92848 0.0
C151 C 0.54168 0.89599 0.88725 0.0
C152 C 0.53951 0.89891 0.79654 0.0
Zn153 Zn 0.53798 0.98463 0.74147 0.0
O154 O 0.49467 0.01528 0.64135 0.0
C155 C 0.57898 0.00485 0.59389 0.0
O156 O 0.50411 0.97287 0.66618 0.0
H157 H 0.54918 0.9608 0.91538 0.0
H158 H 0.52614 0.05695 0.53856 0.0
H159 H 0.53738 0.92674 0.68211 0.0
O160 O 0.56353 0.02491 0.61315 0.0
O161 O 0.57253 0.98243 0.63663 0.0
H162 H 0.51621 0.08079 0.79423 0.0
O163 O 0.57194 0.99751 0.81309 0.0
O164 O 0.56138 0.03972 0.79437 0.0
O165 O 0.50335 0.98757 0.84606 0.0
O166 O 0.49272 0.02953 0.82084 0.0
C167 C 0.57784 0.02128 0.82423 0.0
H168 H 0.52181 0.10264 0.47442 0.0
H169 H 0.51002 0.1271 0.73584 0.0
H170 H 0.5489 0.91746 -0.00213 0.0
H171 H 0.53558 0.8819 0.76217 0.0
C172 C 0.54399 0.46069 0.64532 0.0
N173 N 0.4621 0.50194 0.67664 0.0
C174 C 0.4496 0.47883 0.65903 0.0
C175 C 0.42702 0.47905 0.60201 0.0
C176 C 0.41739 0.50329 0.56265 0.0
C177 C 0.42892 0.52675 0.58788 0.0
C178 C 0.45133 0.52563 0.64486 0.0
Zn179 Zn 0.50346 0.50278 0.72634 0.0
C180 C 0.51095 0.46776 0.8744 0.0
N181 N 0.59424 0.50693 0.7887 0.0
C182 C 0.62207 0.50737 0.74232 0.0
C183 C 0.59138 0.50869 0.87649 0.0
C184 C 0.61666 0.51119 0.92097 0.0
C185 C 0.64572 0.51173 0.87569 0.0
C186 C 0.64829 0.5098 0.78482 0.0
Zn187 Zn 0.55315 0.50505 0.73805 0.0
O188 O 0.51714 0.46876 0.66244 0.0
C189 C 0.54368 0.53885 0.58654 0.0
O190 O 0.56625 0.47347 0.66654 0.0
H191 H 0.56922 0.50864 0.91262 0.0
H192 H 0.45856 0.46017 0.68412 0.0
H193 H 0.62394 0.50606 0.67253 0.0
O194 O 0.51863 0.52758 0.61528 0.0
O195 O 0.56678 0.53359 0.62718 0.0
H196 H 0.46172 0.54385 0.65805 0.0
O197 O 0.53989 0.53732 0.80555 0.0
O198 O 0.49141 0.53719 0.79045 0.0
O199 O 0.53773 0.47588 0.84652 0.0
O200 O 0.48865 0.47766 0.83812 0.0
C201 C 0.51436 0.54823 0.8146 0.0
H202 H 0.41882 0.46048 0.58418 0.0
H203 H 0.42183 0.54587 0.5602 0.0
H204 H 0.61327 0.51336 0.99028 0.0
H205 H 0.67025 0.51009 0.74712 0.0
C206 C 0.07757 0.5211 0.60966 0.0
N207 N 0.04556 0.44337 0.67495 0.0
C208 C 0.04592 0.44396 0.58656 0.0
C209 C 0.04699 0.42062 0.54664 0.0
C210 C 0.04821 0.39641 0.59777 0.0
C211 C 0.04919 0.39616 0.68831 0.0
C212 C 0.04761 0.42012 0.72608 0.0
Zn213 Zn 0.03828 0.47896 0.72459 0.0
C214 C 0.07914 0.49278 0.84261 0.0
N215 N 0.02136 0.55704 0.7935 0.0
C216 C 0.02205 0.58023 0.7408 0.0
C217 C 0.01755 0.55679 0.8821 0.0
C218 C 1.01458 0.58031 0.92102 0.0
C219 C 1.0163 0.60467 0.86878 0.0
C220 C 0.01967 0.60438 0.77722 0.0
Zn221 Zn 0.02867 0.52113 0.74506 0.0
O222 O 0.07215 0.49655 0.62973 0.0
C223 C 0.98802 0.5063 0.62591 0.0
O224 O 0.06107 0.53798 0.64612 0.0
H225 H 0.01743 0.53827 0.92321 0.0
H226 H 0.04439 0.46257 0.54683 0.0
H227 H 0.02522 0.58005 0.67051 0.0
O228 O 1.00416 0.48613 0.64075 0.0
O229 O 0.99322 0.52714 0.66134 0.0
H230 H 0.04716 0.4201 0.79621 0.0
O231 O 0.99572 0.50347 0.84164 0.0
O232 O 1.00482 0.46196 0.82092 0.0
O233 O 0.06488 0.51422 0.82778 0.0
O234 O 0.0716 0.47223 0.80928 0.0
C235 C 0.9893 0.47903 0.85949 0.0
H236 H 0.0463 0.42142 0.47653 0.0
H237 H 0.05005 0.37766 0.72941 0.0
H238 H 1.0113 0.57931 0.99169 0.0
H239 H 0.02143 0.62259 0.73403 0.0
H240 H 0.22859 0.02655 0.50637 0.0
H241 H 0.20002 0.9945 0.28035 0.0
H242 H 0.14956 0.98482 0.35818 0.0
H243 H 0.11269 0.98773 0.48867 0.0
H244 H 0.1419 0.02081 0.71303 0.0
H245 H 0.19266 0.02777 0.63807 0.0
C246 C 0.21134 0.01731 0.47444 0.0
C247 C 0.21788 0.01147 0.38745 0.0
C248 C 0.18235 0.01211 0.51928 0.0
C249 C 0.1954 0.9993 0.34711 0.0
C250 C 0.16656 0.99384 0.39156 0.0
C251 C 0.13021 0.99628 0.52138 0.0
C252 C 0.12323 0.00382 0.60649 0.0
C253 C 0.1596 1.0005 0.47738 0.0
C254 C 0.14637 0.01489 0.64759 0.0
C255 C 0.17554 0.01891 0.60471 0.0
H256 H 0.51534 0.24262 0.48456 0.0
H257 H 0.46887 0.21591 0.27778 0.0
H258 H 0.47306 0.16999 0.33944 0.0
H259 H 0.48853 0.13759 0.45434 0.0
H260 H 0.53684 0.16395 0.65882 0.0
H261 H 0.53273 0.20973 0.59711 0.0
C262 C 0.5064 0.22664 0.45289 0.0
C263 C 0.49192 0.23258 0.37669 0.0
C264 C 0.50886 0.20026 0.48888 0.0
C265 C 0.48021 0.21182 0.33629 0.0
C266 C 0.48252 0.18557 0.3717 0.0
C267 C 0.49858 0.15323 0.48501 0.0
C268 C 0.51291 0.14707 0.56163 0.0
C269 C 0.49664 0.17956 0.44825 0.0
C270 C 0.52517 0.16791 0.6009 0.0
C271 C 0.52308 0.19418 0.56515 0.0
H272 H 0.35543 0.51822 0.21073 0.0
H273 H 0.2958 0.45755 0.34946 0.0
H274 H 0.3239 0.45739 0.47777 0.0
H275 H 0.36659 0.47379 0.54907 0.0
H276 H 0.42582 0.53478 0.40872 0.0
H277 H 0.39668 0.53575 0.2835 0.0
C278 C 0.34857 0.50512 0.26942 0.0
C279 C 0.32377 0.48785 0.27072 0.0
C280 C 0.36476 0.50521 0.34279 0.0
C281 C 0.31493 0.47095 0.34695 0.0
C282 C 0.331 0.47085 0.42023 0.0
C283 C 0.37304 0.4873 0.49109 0.0
C284 C 0.39827 0.50429 0.48876 0.0
C285 C 0.35615 0.48774 0.41868 0.0
C286 C 0.40622 0.52179 0.41315 0.0
C287 C 0.3897 0.52225 0.34105 0.0
H288 H 0.02412 0.30382 0.37272 0.0
H289 H 0.11748 0.28806 0.40802 0.0
H290 H 0.11813 0.32353 0.50373 0.0
H291 H 0.09268 0.36079 0.57121 0.0
H292 H 1.00038 0.37795 0.52741 0.0
H293 H 0.99849 0.34005 0.44226 0.0
C294 C 0.04445 0.30794 0.40246 0.0
C295 C 0.07045 0.29296 0.38515 0.0
C296 C 0.04479 0.32863 0.4559 0.0
C297 C 0.09695 0.29896 0.42199 0.0
C298 C 0.09737 0.31929 0.47641 0.0
C299 C 0.0721 0.35582 0.54408 0.0
C300 C 0.0466 0.37176 0.55577 0.0
C301 C 0.07149 0.33442 0.49327 0.0
C302 C 0.02013 0.36567 0.51934 0.0
C303 C 0.01912 0.34414 0.47049 0.0
H304 H 0.83579 1.00303 0.96469 0.0
H305 H 0.87245 0.02799 0.19095 0.0
H306 H 0.92382 0.0229 0.1221 0.0
H307 H 0.95852 0.01376 -0.00558 0.0
H308 H 0.92239 0.98806 0.76809 0.0
H309 H 0.87093 0.99092 0.83977 0.0
C310 C 0.85509 0.00688 -0.00074 0.0
C311 C 0.85027 0.01567 0.08313 0.0
C312 C 0.88474 0.00404 0.95884 0.0
C313 C 0.87549 0.02097 0.12678 0.0
C314 C 0.90491 0.0182 0.08719 0.0
C315 C 0.93941 0.00867 0.96079 0.0
C316 C 0.94443 1.00091 0.87553 0.0
C317 C 0.90984 0.01017 0.00271 0.0
C318 C 0.9193 0.99414 0.83358 0.0
C319 C 0.8898 0.9958 0.87455 0.0
H320 H 0.51222 0.79803 0.17007 0.0
H321 H 0.56654 0.758 0.97782 0.0
H322 H 0.57309 0.79924 0.881 0.0
H323 H 0.5639 0.84733 0.85191 0.0
H324 H 0.50776 0.8862 0.04406 0.0
H325 H 0.50146 0.84501 0.13925 0.0
C326 C 0.52569 0.79844 0.10719 0.0
C327 C 0.53951 0.77518 0.08254 0.0
C328 C 0.52901 0.82209 0.05148 0.0
C329 C 0.55623 0.77574 -0.00027 0.0
C330 C 0.55985 0.79933 0.94397 0.0
C331 C 0.55012 0.84668 0.91428 0.0
C332 C 0.53677 0.87001 0.9412 0.0
C333 C 0.54641 0.82271 0.96924 0.0
C334 C 0.51893 0.86877 0.02238 0.0
C335 C 0.51515 0.84516 0.07688 0.0
H336 H 0.7587 0.54953 0.05131 0.0
H337 H 0.71399 0.5002 0.27097 0.0
H338 H 0.67637 0.48642 0.17929 0.0
H339 H 0.6548 0.49013 0.03948 0.0
H340 H 0.69707 0.54183 0.82147 0.0
H341 H 0.73761 0.55222 0.90861 0.0
C342 C 0.74083 0.53561 0.0787 0.0
C343 C 0.73917 0.52574 0.16765 0.0
C344 C 0.71898 0.52811 0.02578 0.0
C345 C 0.71579 0.50788 0.20258 0.0
C346 C 0.6943 0.50005 0.15023 0.0
C347 C 0.6728 0.50376 0.01083 0.0
C348 C 0.67256 0.51542 0.92411 0.0
C349 C 0.69545 0.51031 0.06213 0.0
C350 C 0.69665 0.53241 0.88767 0.0
C351 C 0.71972 0.53859 0.93785 0.0
H352 H 1.00674 0.71943 -0.00284 0.0
H353 H 0.05466 0.68074 0.20188 0.0
H354 H 0.05352 0.63928 0.13534 0.0
H355 H 0.04089 0.61459 0.0167 0.0
H356 H 0.99098 0.65208 0.8139 0.0
H357 H 0.99142 0.69355 0.8811 0.0
C358 C 1.01639 0.70175 0.02786 0.0
C359 C 0.03013 0.70295 0.10548 0.0
C360 C 1.01569 0.6779 0.98902 0.0
C361 C 0.04338 0.68014 0.14325 0.0
C362 C 0.0429 0.65648 0.10494 0.0
C363 C 0.0295 0.63159 0.98778 0.0
C364 C 1.01582 0.62998 0.9102 0.0
C365 C 0.0293 0.65518 0.02761 0.0
C366 C 1.00205 0.65267 0.87283 0.0
C367 C 1.00208 0.67639 0.91164 0.0
H368 H 0.01927 0.14347 0.3571 0.0
H369 H 0.06232 0.17823 0.55704 0.0
H370 H 0.04865 0.1393 0.65937 0.0
H371 H 0.03397 0.09275 0.68201 0.0
H372 H 0.99827 0.05517 0.4752 0.0
H373 H 1.00022 0.09771 0.3846 0.0
C374 C 0.02549 0.14263 0.42335 0.0
C375 C 0.04261 0.16347 0.44846 0.0
C376 C 0.0196 0.11939 0.47967 0.0
C377 C 0.04929 0.16254 0.53556 0.0
C378 C 0.04186 0.14007 0.5938 0.0
C379 C 0.02622 0.09379 0.61749 0.0
C380 C 1.01654 0.07066 0.58463 0.0
C381 C 0.02855 0.11792 0.56491 0.0
C382 C 1.00617 0.07258 0.50153 0.0
C383 C 1.00731 0.09689 0.44982 0.0
H384 H 0.38602 0.95759 0.41308 0.0
H385 H 0.34456 0.02682 0.50963 0.0
H386 H 0.38567 0.03114 0.60148 0.0
H387 H 0.43675 0.0189 0.63667 0.0
H388 H 0.47856 0.94977 0.53973 0.0
H389 H 0.43403 0.94176 0.4643 0.0
C390 C 0.3856 0.97309 0.45652 0.0
C391 C 0.36251 0.99193 0.45485 0.0
C392 C 0.40974 0.97588 0.50656 0.0
C393 C 0.362 0.012 0.5108 0.0
C394 C 0.38573 0.01469 0.56205 0.0
C395 C 0.43604 1.00204 0.59912 0.0
C396 C 0.4611 0.9853 0.59149 0.0
C397 C 0.41031 0.99743 0.55732 0.0
C398 C 0.45965 0.96308 0.54519 0.0
C399 C 0.43421 0.95849 0.50245 0.0
H400 H 0.57319 0.37244 0.39521 0.0
H401 H 0.48748 0.34206 0.52264 0.0
H402 H 0.48654 0.3761 0.62426 0.0
H403 H 0.5065 0.4183 0.66069 0.0
H404 H 0.59234 0.44876 0.53331 0.0
H405 H 0.59703 0.41081 0.44736 0.0
C406 C 0.55486 0.37286 0.44723 0.0
C407 C 0.53039 0.35502 0.45191 0.0
C408 C 0.55421 0.39278 0.50363 0.0
C409 C 0.50661 0.35555 0.51881 0.0
C410 C 0.50591 0.37519 0.57592 0.0
C411 C 0.52636 0.41644 0.61468 0.0
C412 C 0.54874 0.43645 0.60153 0.0
C413 C 0.52895 0.39455 0.56629 0.0
C414 C 0.57473 0.43364 0.54361 0.0
C415 C 0.57739 0.412 0.49457 0.0
H416 H 0.17463 0.55983 0.29883 0.0
H417 H 0.22078 0.49216 0.4103 0.0
H418 H 0.18188 0.4868 0.53488 0.0
H419 H 0.13096 0.49688 0.5982 0.0
H420 H 0.08394 0.56401 0.4871 0.0
H421 H 0.12694 0.57408 0.3752 0.0
C422 C 0.17647 0.54435 0.35168 0.0
C423 C 0.20018 0.52618 0.34523 0.0
C424 C 0.15356 0.54092 0.4215 0.0
C425 C 0.20274 0.5064 0.41419 0.0
C426 C 0.18031 0.50311 0.48471 0.0
C427 C 0.1303 0.51384 0.54976 0.0
C428 C 0.10425 0.52933 0.54873 0.0
C429 C 0.15498 0.51948 0.48668 0.0
C430 C 0.10376 0.5517 0.48787 0.0
C431 C 0.12827 0.55741 0.42419 0.0
H432 H 1.00264 0.86624 0.13348 0.0
H433 H 0.05434 0.8182 0.95792 0.0
H434 H 0.06709 0.85782 0.85633 0.0
H435 H 0.06408 0.90677 0.82006 0.0
H436 H 0.02089 0.95345 0.0145 0.0
H437 H 1.0064 0.91351 0.11033 0.0
C438 C 0.01792 0.8641 0.07534 0.0
C439 C 0.02816 0.83898 0.05562 0.0
C440 C 0.02728 0.8869 0.02149 0.0
C441 C 0.04594 0.83708 0.9756 0.0
C442 C 0.05362 0.85982 0.91785 0.0
C443 C 0.05217 0.90804 0.8844 0.0
C444 C 0.0437 0.93288 0.91087 0.0
C445 C 0.04465 0.88491 0.94071 0.0
C446 C 0.02809 0.93453 -0.00629 0.0
C447 C 0.01944 0.91172 0.04793 0.0
H448 H 0.68052 0.05086 0.04897 0.0
H449 H 0.72035 0.98199 0.94492 0.0
H450 H 0.6797 0.97999 0.85048 0.0
H451 H 0.62922 0.99369 0.81556 0.0
H452 H 0.58835 0.06193 0.92138 0.0
H453 H 0.63299 0.06827 -0.00156 0.0
C454 C 0.68064 0.03586 0.00376 0.0
C455 C 0.70312 0.01642 0.00421 0.0
C456 C 0.65666 0.03432 0.95227 0.0
C457 C 0.70336 0.9972 0.94519 0.0
C458 C 0.67989 0.99584 0.8923 0.0
C459 C 0.63015 0.01003 0.85527 0.0
C460 C 0.60533 0.02694 0.86501 0.0
C461 C 0.65579 0.01356 0.89844 0.0
C462 C 0.60709 0.0485 0.91416 0.0
C463 C 0.63257 0.05211 0.95793 0.0
H464 H 0.54922 0.65795 0.9221 0.0
H465 H 0.46715 0.64399 0.09476 0.0
H466 H 0.45387 0.60673 0.01684 0.0
H467 H 0.47168 0.57248 0.9205 0.0
H468 H 0.55637 0.58549 0.75766 0.0
H469 H 0.56248 0.62851 0.80951 0.0
C470 C 0.52775 0.64752 0.93959 0.0
C471 C 0.50917 0.65353 0.01341 0.0
C472 C 0.52124 0.62527 0.8979 0.0
C473 C 0.48162 0.63968 0.0372 0.0
C474 C 0.4743 0.61811 -0.00635 0.0
C475 C 0.49103 0.58507 0.89537 0.0
C476 C 0.51395 0.57562 0.83761 0.0
C477 C 0.49487 0.60974 0.92729 0.0
C478 C 0.53886 0.59212 0.8044 0.0
C479 C 0.54233 0.6168 0.83352 0.0
H480 H 0.89042 0.45455 0.17422 0.0
H481 H 0.84527 0.51513 0.02202 0.0
H482 H 0.88381 0.51274 0.89857 0.0
H483 H 0.93518 0.50026 0.84702 0.0
H484 H 0.98212 0.44136 2e-05 0.0
H485 H 0.93808 0.43619 0.11101 0.0
C486 C 0.88867 0.46667 0.11303 0.0
C487 C 0.86549 0.48538 0.10746 0.0
C488 C 0.91156 0.46594 0.04381 0.0
C489 C 0.86294 0.50065 0.02774 0.0
C490 C 0.88519 0.49953 0.95764 0.0
C491 C 0.93543 0.48593 0.90406 0.0
C492 C 0.96174 0.4716 0.91727 0.0
C493 C 0.91037 0.48337 0.967 0.0
C494 C 0.96198 0.45268 0.98968 0.0
C495 C 0.93693 0.44984 0.05289 0.0
H496 H 0.12444 0.14873 0.22377 0.0
H497 H 0.07497 0.206 0.0724 0.0
H498 H 0.07376 0.17606 0.95817 0.0
H499 H 0.07633 0.1302 0.92042 0.0
H500 H 0.11909 0.07122 0.08614 0.0
H501 H 0.13367 0.10504 0.17487 0.0
C502 C 0.11455 0.155 0.16383 0.0
C503 C 0.09949 0.17924 0.15647 0.0
C504 C 0.11188 0.13693 0.10244 0.0
C505 C 0.08675 0.18741 0.07906 0.0
C506 C 0.08555 0.17006 0.01472 0.0
C507 C 0.08901 0.12476 0.97562 0.0
C508 C 0.09594 0.09804 -0.00234 0.0
C509 C 0.09621 0.14416 0.02885 0.0
C510 C 0.11334 0.09153 0.06753 0.0
C511 C 0.12157 0.11088 0.11877 0.0
H512 H 0.38563 0.96702 0.16475 0.0
H513 H 0.34689 0.04232 0.09021 0.0
H514 H 0.38811 0.05135 0.97136 0.0
H515 H 0.43816 0.03917 0.89812 0.0
H516 H 0.47695 0.96441 0.9837 0.0
H517 H 0.4333 0.95422 0.08996 0.0
C518 C 0.38587 0.98516 0.12108 0.0
C519 C 0.36327 0.00392 0.1358 0.0
C520 C 0.41023 0.99067 0.05656 0.0
C521 C 0.36381 0.02741 0.07926 0.0
C522 C 0.38768 0.03273 0.01241 0.0
C523 C 0.4371 0.02078 0.94054 0.0
C524 C 0.46109 1.00274 0.93322 0.0
C525 C 0.4116 0.01485 0.00227 0.0
C526 C 0.45906 0.97878 0.98789 0.0
C527 C 0.43396 0.9728 0.04855 0.0
H528 H 0.47754 0.38043 0.19046 0.0
H529 H 0.55727 0.34493 0.07183 0.0
H530 H 0.56189 0.38092 0.95255 0.0
H531 H 0.54593 0.42467 0.89072 0.0
H532 H 0.46507 0.45938 0.00636 0.0
H533 H 0.45822 0.42165 0.11916 0.0
C534 C 0.4954 0.38028 0.13699 0.0
C535 C 0.51698 0.3601 0.13918 0.0
C536 C 0.49809 0.40119 0.06979 0.0
C537 C 0.54021 0.36008 0.07046 0.0
C538 C 0.54306 0.38084 0.00315 0.0
C539 C 0.52686 0.42394 0.94088 0.0
C540 C 0.5064 0.44499 0.94193 0.0
C541 C 0.52268 0.40189 0.00375 0.0
C542 C 0.48128 0.44354 0.00528 0.0
C543 C 0.47733 0.42195 0.06939 0.0
H544 H 0.18692 0.47453 0.07643 0.0
H545 H 0.20501 0.55617 0.98142 0.0
H546 H 0.16305 0.55574 0.89039 0.0
H547 H 0.11829 0.5332 0.84952 0.0
H548 H 0.10056 0.45122 0.94285 0.0
H549 H 0.14512 0.45063 0.02378 0.0
C550 C 0.18223 0.49187 0.03323 0.0
C551 C 0.19921 0.5152 0.03371 0.0
C552 C 0.15766 0.49158 0.98307 0.0
C553 C 0.19259 0.53787 0.97996 0.0
C554 C 0.16835 0.53771 0.92918 0.0
C555 C 0.12417 0.51525 0.88787 0.0
C556 C 0.10587 0.49243 0.89195 0.0
C557 C 0.15017 0.51491 0.9324 0.0
C558 C 0.11414 0.46909 0.93976 0.0
C559 C 0.13966 0.46872 0.98563 0.0
H560 H 0.9563 0.83098 0.30763 0.0
H561 H 0.02882 0.79053 0.42632 0.0
H562 H 0.02745 0.8224 0.53545 0.0
H563 H 1.01395 0.86703 0.57266 0.0
H564 H 0.94802 0.91111 0.4328 0.0
H565 H 0.9381 0.87271 0.35756 0.0
C566 C 0.97071 0.82845 0.36035 0.0
C567 C 0.99261 0.80854 0.35937 0.0
C568 C 0.97171 0.84823 0.41692 0.0
C569 C 1.01156 0.80551 0.42663 0.0
C570 C 1.01121 0.82413 0.48761 0.0
C571 C 0.99734 0.8683 0.52586 0.0
C572 C 0.98238 0.89234 0.50695 0.0
C573 C 0.99285 0.84653 0.47927 0.0
C574 C 0.96002 0.89308 0.44879 0.0
C575 C 0.95443 0.87109 0.40519 0.0
H576 H 0.68311 0.04199 0.29722 0.0
H577 H 0.71642 0.96416 0.36708 0.0
H578 H 0.67494 0.95662 0.48567 0.0
H579 H 0.62594 0.97087 0.55921 0.0
H580 H 0.59238 0.04822 0.47895 0.0
H581 H 0.63661 0.05688 0.37347 0.0
C582 C 0.68166 0.02358 0.3398 0.0
C583 C 0.70279 1.00368 0.32361 0.0
C584 C 0.65708 0.01899 0.40426 0.0
C585 C 0.70068 0.97992 0.379 0.0
C586 C 0.67664 0.97546 0.44573 0.0
C587 C 0.62825 0.98953 0.51821 0.0
C588 C 0.60553 0.00871 0.52661 0.0
C589 C 0.65407 0.99454 0.457 0.0
C590 C 0.60924 0.03297 0.47381 0.0
C591 C 0.63468 0.03806 0.41361 0.0
H592 H 0.50496 0.62411 0.30218 0.0
H593 H 0.59267 0.65821 0.32066 0.0
H594 H 0.60164 0.62287 0.43622 0.0
H595 H 0.58466 0.58018 0.52682 0.0
H596 H 0.50036 0.54438 0.47803 0.0
H597 H 0.49108 0.58148 0.3754 0.0
C598 C 0.52643 0.62373 0.32986 0.0
C599 C 0.54834 0.6435 0.30094 0.0
C600 C 0.53239 0.60248 0.38962 0.0
C601 C 0.5753 0.64325 0.34143 0.0
C602 C 0.58063 0.62278 0.40652 0.0
C603 C 0.56466 0.58033 0.49221 0.0
C604 C 0.5431 0.55952 0.51168 0.0
C605 C 0.55954 0.60183 0.4298 0.0
C606 C 0.51725 0.56012 0.46601 0.0
C607 C 0.51169 0.58148 0.40726 0.0
H608 H 0.88667 0.47197 0.40425 0.0
H609 H 0.85863 0.55245 0.41941 0.0
H610 H 0.89846 0.55938 0.51469 0.0
H611 H 0.94453 0.54301 0.58295 0.0
H612 H 0.97297 0.46292 0.5519 0.0
H613 H 0.9304 0.45575 0.47195 0.0
C614 C 0.88906 0.49099 0.42919 0.0
C615 C 0.86998 0.5117 0.40451 0.0
C616 C 0.91265 0.49509 0.47952 0.0
C617 C 0.87299 0.53613 0.43807 0.0
C618 C 0.89603 0.54017 0.49144 0.0
C619 C 0.94141 0.52409 0.55827 0.0
C620 C 0.96225 0.50367 0.57333 0.0
C621 C 0.91662 0.51995 0.51058 0.0
C622 C 0.95764 0.47916 0.54133 0.0
C623 C 0.93309 0.47487 0.49573 0.0
loop_
_geom_bond_atom_site_label_1
_geom_bond_atom_site_label_2
_geom_bond_distance
_geom_bond_site_symmetry_2
_ccdc_geom_bond_type
H0 C7 0.929 . S
H1 C10 0.930 . S
H2 C12 0.929 . S
H3 C4 0.969 . S
C4 H3 0.969 . S
C4 O5 1.550 . S
C4 H6 0.973 . S
O5 C4 1.550 . S
O5 C11 1.412 . S
H6 C4 0.973 . S
C7 H0 0.929 . S
C7 C8 1.400 . S
C7 C9 1.364 . S
C8 C7 1.400 . S
C8 C12 1.377 . S
C9 C7 1.364 . S
C9 C10 1.374 . S
C10 H1 0.930 . S
C10 C9 1.374 . S
C10 C11 1.383 . S
C11 O5 1.412 . S
C11 C10 1.383 . S
C11 C12 1.394 . S
C12 H2 0.929 . S
C12 C8 1.377 . S
C12 C11 1.394 . S
H13 C20 0.929 . S
H14 C23 0.930 . S
H15 C25 0.929 . S
H16 C17 0.969 . S
C17 H16 0.969 . S
C17 O18 1.550 1_556 S
C17 H19 0.973 . S
O18 C17 1.550 1_554 S
O18 C24 1.412 . S
H19 C17 0.973 . S
C20 H13 0.929 . S
C20 C21 1.400 . S
C20 C22 1.364 1_554 S
C21 C20 1.400 . S
C21 C25 1.377 . S
C22 C20 1.364 1_556 S
C22 C23 1.374 . S
C23 H14 0.930 . S
C23 C22 1.374 . S
C23 C24 1.383 1_556 S
C24 O18 1.412 . S
C24 C23 1.383 1_554 S
C24 C25 1.394 . S
C25 H15 0.929 . S
C25 C21 1.377 . S
C25 C24 1.394 . S
H26 C33 0.929 1_565 S
H27 C36 0.932 1_556 S
H28 C38 0.930 1_565 S
H29 C30 0.969 . S
C30 H29 0.969 . S
C30 O31 1.550 1_545 S
C30 H32 0.973 1_544 S
O31 C30 1.550 1_565 S
O31 C37 1.405 1_565 S
H32 C30 0.973 1_566 S
C33 H26 0.929 1_545 S
C33 C34 1.398 . S
C33 C35 1.364 . S
C34 C33 1.398 . S
C34 C38 1.377 . S
C35 C33 1.364 . S
C35 C36 1.374 1_545 S
C36 H27 0.932 1_554 S
C36 C35 1.374 1_565 S
C36 C37 1.380 1_565 S
C37 O31 1.405 1_545 S
C37 C36 1.380 1_545 S
C37 C38 1.397 . S
C38 H28 0.930 1_545 S
C38 C34 1.377 . S
C38 C37 1.397 . S
H39 C46 0.929 . S
H40 C49 0.930 1_556 S
H41 C51 0.929 . S
H42 C43 0.969 . S
C43 H42 0.969 . S
C43 O44 1.550 . S
C43 H45 0.973 1_554 S
O44 C43 1.550 . S
O44 C50 1.412 . S
H45 C43 0.973 1_556 S
C46 H39 0.929 . S
C46 C47 1.400 . S
C46 C48 1.364 . S
C47 C46 1.400 . S
C47 C51 1.377 . S
C48 C46 1.364 . S
C48 C49 1.374 . S
C49 H40 0.930 1_554 S
C49 C48 1.374 . S
C49 C50 1.383 . S
C50 O44 1.412 . S
C50 C49 1.383 . S
C50 C51 1.394 . S
C51 H41 0.929 . S
C51 C47 1.377 . S
C51 C50 1.394 . S
H52 C59 0.929 . S
H53 C62 0.930 . S
H54 C64 0.929 . S
H55 C56 0.969 . S
C56 H55 0.969 . S
C56 O57 1.550 . S
C56 H58 0.973 . S
O57 C56 1.550 . S
O57 C63 1.412 . S
H58 C56 0.973 . S
C59 H52 0.929 . S
C59 C60 1.400 . S
C59 C61 1.364 . S
C60 C59 1.400 . S
C60 C64 1.377 . S
C61 C59 1.364 . S
C61 C62 1.374 . S
C62 H53 0.930 . S
C62 C61 1.374 . S
C62 C63 1.383 . S
C63 O57 1.412 . S
C63 C62 1.383 . S
C63 C64 1.394 . S
C64 H54 0.929 . S
C64 C60 1.377 . S
C64 C63 1.394 . S
H65 C72 0.929 . S
H66 C75 0.930 . S
H67 C77 0.929 . S
H68 C69 0.969 . S
C69 H68 0.969 . S
C69 O70 1.550 . S
C69 H71 0.973 . S
O70 C69 1.550 . S
O70 C76 1.412 . S
H71 C69 0.973 . S
C72 H65 0.929 . S
C72 C73 1.400 . S
C72 C74 1.364 . S
C73 C72 1.400 . S
C73 C77 1.377 . S
C74 C72 1.364 . S
C74 C75 1.374 . S
C75 H66 0.930 . S
C75 C74 1.374 . S
C75 C76 1.383 . S
C76 O70 1.412 . S
C76 C75 1.383 . S
C76 C77 1.394 . S
C77 H67 0.929 . S
C77 C73 1.377 . S
C77 C76 1.394 . S
H78 C85 0.928 1_565 S
H79 C88 0.933 . S
H80 C90 0.927 1_565 S
H81 C82 0.969 . S
C82 H81 0.969 . S
C82 O83 1.550 1_545 S
C82 H84 0.973 1_545 S
O83 C82 1.550 1_565 S
O83 C89 1.402 1_565 S
H84 C82 0.973 1_565 S
C85 H78 0.928 1_545 S
C85 C86 1.401 . S
C85 C87 1.363 . S
C86 C85 1.401 . S
C86 C90 1.377 . S
C87 C85 1.363 . S
C87 C88 1.374 1_545 S
C88 H79 0.933 . S
C88 C87 1.374 1_565 S
C88 C89 1.385 1_565 S
C89 O83 1.402 1_545 S
C89 C88 1.385 1_545 S
C89 C90 1.392 . S
C90 H80 0.927 1_545 S
C90 C86 1.377 . S
C90 C89 1.392 . S
H91 C98 0.929 . S
H92 C101 0.930 . S
H93 C103 0.929 . S
H94 C95 0.969 . S
C95 H94 0.969 . S
C95 O96 1.550 . S
C95 H97 0.973 . S
O96 C95 1.550 . S
O96 C102 1.412 . S
H97 C95 0.973 . S
C98 H91 0.929 . S
C98 C99 1.400 . S
C98 C100 1.364 . S
C99 C98 1.400 . S
C99 C103 1.377 . S
C100 C98 1.364 . S
C100 C101 1.374 . S
C101 H92 0.930 . S
C101 C100 1.374 . S
C101 C102 1.383 . S
C102 O96 1.412 . S
C102 C101 1.383 . S
C102 C103 1.394 . S
C103 H93 0.929 . S
C103 C99 1.377 . S
C103 C102 1.394 . S
C104 O120 1.251 . S
C104 O122 1.254 . S
N105 C106 1.342 . S
N105 C110 1.285 1_455 S
N105 Zn111 2.029 . S
C106 N105 1.342 . S
C106 C107 1.379 . S
C106 H124 0.952 . S
C107 C106 1.379 . S
C107 C108 1.390 1_455 S
C107 H134 0.949 . S
C108 C107 1.390 1_655 S
C108 C109 1.357 . S
C109 C108 1.357 . S
C109 C110 1.370 . S
C109 H135 0.950 . S
C110 N105 1.285 1_655 S
C110 C109 1.370 . S
C110 H128 0.981 . S
Zn111 N105 2.029 . S
Zn111 O120 2.039 . S
Zn111 O126 2.034 . S
Zn111 O130 2.025 1_565 S
Zn111 O132 2.024 1_455 S
C112 O131 1.246 . S
C112 O132 1.249 1_545 S
N113 C114 1.307 . S
N113 C115 1.333 . S
N113 Zn119 2.020 . S
C114 N113 1.307 . S
C114 C118 1.370 1_556 S
C114 H125 0.991 . S
C115 N113 1.333 . S
C115 C116 1.379 1_556 S
C115 H123 0.952 . S
C116 C115 1.379 1_554 S
C116 C117 1.390 . S
C116 H136 0.949 . S
C117 C116 1.390 . S
C117 C118 1.357 . S
C118 C114 1.370 1_554 S
C118 C117 1.357 . S
C118 H137 0.950 . S
Zn119 N113 2.020 . S
Zn119 O122 2.025 1_545 S
Zn119 O127 2.024 . S
Zn119 O129 2.039 . S
Zn119 O131 2.034 1_455 S
O120 C104 1.251 . S
O120 Zn111 2.039 . S
C121 O126 1.246 . S
C121 O127 1.249 1_565 S
O122 C104 1.254 . S
O122 Zn119 2.025 1_565 S
H123 C115 0.952 . S
H124 C106 0.952 . S
H125 C114 0.991 . S
O126 Zn111 2.034 . S
O126 C121 1.246 . S
O127 Zn119 2.024 . S
O127 C121 1.249 1_545 S
H128 C110 0.981 . S
O129 Zn119 2.039 . S
O129 C133 1.251 . S
O130 Zn111 2.025 1_545 S
O130 C133 1.254 . S
O131 C112 1.246 . S
O131 Zn119 2.034 1_655 S
O132 Zn111 2.024 1_655 S
O132 C112 1.249 1_565 S
C133 O129 1.251 . S
C133 O130 1.254 . S
H134 C107 0.949 . S
H135 C109 0.950 . S
H136 C116 0.949 . S
H137 C118 0.950 . S
C138 O154 1.251 1_565 S
C138 O156 1.254 . S
N139 C140 1.333 . S
N139 C144 1.307 . S
N139 Zn145 2.020 . S
C140 N139 1.333 . S
C140 C141 1.379 . S
C140 H158 0.952 . S
C141 C140 1.379 . S
C141 C142 1.390 . S
C141 H168 0.949 . S
C142 C141 1.390 . S
C142 C143 1.357 . S
C143 C142 1.357 . S
C143 C144 1.370 . S
C143 H169 0.950 . S
C144 N139 1.307 . S
C144 C143 1.370 . S
C144 H162 0.948 . S
Zn145 N139 2.020 . S
Zn145 O154 2.039 . S
Zn145 O160 2.034 . S
Zn145 O164 2.025 . S
Zn145 O166 2.024 . S
C146 O165 1.246 1_545 S
C146 O166 1.249 . S
N147 C148 1.307 . S
N147 C149 1.333 . S
N147 Zn153 2.020 . S
C148 N147 1.307 . S
C148 C152 1.370 . S
C148 H159 0.948 . S
C149 N147 1.333 . S
C149 C150 1.379 . S
C149 H157 0.952 . S
C150 C149 1.379 . S
C150 C151 1.390 . S
C150 H170 0.949 . S
C151 C150 1.390 . S
C151 C152 1.357 . S
C152 C148 1.370 . S
C152 C151 1.357 . S
C152 H171 0.950 . S
Zn153 N147 2.020 . S
Zn153 O156 2.025 . S
Zn153 O161 2.024 . S
Zn153 O163 2.039 . S
Zn153 O165 2.034 . S
O154 C138 1.251 1_545 S
O154 Zn145 2.039 . S
C155 O160 1.246 1_565 S
C155 O161 1.249 . S
O156 C138 1.254 . S
O156 Zn153 2.025 . S
H157 C149 0.952 . S
H158 C140 0.952 . S
H159 C148 0.948 . S
O160 Zn145 2.034 . S
O160 C155 1.246 1_545 S
O161 Zn153 2.024 . S
O161 C155 1.249 . S
H162 C144 0.948 . S
O163 Zn153 2.039 . S
O163 C167 1.251 1_565 S
O164 Zn145 2.025 . S
O164 C167 1.254 . S
O165 C146 1.246 1_565 S
O165 Zn153 2.034 . S
O166 Zn145 2.024 . S
O166 C146 1.249 . S
C167 O163 1.251 1_545 S
C167 O164 1.254 . S
H168 C141 0.949 . S
H169 C143 0.950 . S
H170 C150 0.949 . S
H171 C152 0.950 . S
C172 O188 1.251 . S
C172 O190 1.254 . S
N173 C174 1.333 . S
N173 C178 1.307 . S
N173 Zn179 2.020 . S
C174 N173 1.333 . S
C174 C175 1.379 . S
C174 H192 0.952 . S
C175 C174 1.379 . S
C175 C176 1.390 . S
C175 H202 0.949 . S
C176 C175 1.390 . S
C176 C177 1.357 . S
C177 C176 1.357 . S
C177 C178 1.370 . S
C177 H203 0.950 . S
C178 N173 1.307 . S
C178 C177 1.370 . S
C178 H196 0.948 . S
Zn179 N173 2.020 . S
Zn179 O188 2.039 . S
Zn179 O194 2.034 . S
Zn179 O198 2.025 . S
Zn179 O200 2.024 . S
C180 O199 1.246 . S
C180 O200 1.249 . S
N181 C182 1.307 . S
N181 C183 1.333 . S
N181 Zn187 2.020 . S
C182 N181 1.307 . S
C182 C186 1.370 . S
C182 H193 0.948 . S
C183 N181 1.333 . S
C183 C184 1.379 . S
C183 H191 0.952 . S
C184 C183 1.379 . S
C184 C185 1.390 . S
C184 H204 0.949 . S
C185 C184 1.390 . S
C185 C186 1.357 . S
C186 C182 1.370 . S
C186 C185 1.357 . S
C186 H205 0.950 . S
Zn187 N181 2.020 . S
Zn187 O190 2.025 . S
Zn187 O195 2.024 . S
Zn187 O197 2.039 . S
Zn187 O199 2.034 . S
O188 C172 1.251 . S
O188 Zn179 2.039 . S
C189 O194 1.246 . S
C189 O195 1.249 . S
O190 C172 1.254 . S
O190 Zn187 2.025 . S
H191 C183 0.952 . S
H192 C174 0.952 . S
H193 C182 0.948 . S
O194 Zn179 2.034 . S
O194 C189 1.246 . S
O195 Zn187 2.024 . S
O195 C189 1.249 . S
H196 C178 0.948 . S
O197 Zn187 2.039 . S
O197 C201 1.251 . S
O198 Zn179 2.025 . S
O198 C201 1.254 . S
O199 C180 1.246 . S
O199 Zn187 2.034 . S
O200 Zn179 2.024 . S
O200 C180 1.249 . S
C201 O197 1.251 . S
C201 O198 1.254 . S
H202 C175 0.949 . S
H203 C177 0.950 . S
H204 C184 0.949 . S
H205 C186 0.950 . S
C206 O222 1.251 . S
C206 O224 1.254 . S
N207 C208 1.333 . S
N207 C212 1.307 . S
N207 Zn213 2.020 . S
C208 N207 1.333 . S
C208 C209 1.379 . S
C208 H226 0.952 . S
C209 C208 1.379 . S
C209 C210 1.390 . S
C209 H236 0.949 . S
C210 C209 1.390 . S
C210 C211 1.357 . S
C211 C210 1.357 . S
C211 C212 1.370 . S
C211 H237 0.950 . S
C212 N207 1.307 . S
C212 C211 1.370 . S
C212 H230 0.948 . S
Zn213 N207 2.020 . S
Zn213 O222 2.039 . S
Zn213 O228 2.034 1_455 S
Zn213 O232 2.025 1_455 S
Zn213 O234 2.024 . S
C214 O233 1.246 . S
C214 O234 1.249 . S
N215 C216 1.307 . S
N215 C217 1.333 1_455 S
N215 Zn221 2.020 . S
C216 N215 1.307 . S
C216 C220 1.370 . S
C216 H227 0.948 . S
C217 N215 1.333 1_655 S
C217 C218 1.379 . S
C217 H225 0.952 . S
C218 C217 1.379 . S
C218 C219 1.390 1_655 S
C218 H238 0.949 . S
C219 C218 1.390 1_455 S
C219 C220 1.357 . S
C220 C216 1.370 . S
C220 C219 1.357 . S
C220 H239 0.950 . S
Zn221 N215 2.020 . S
Zn221 O224 2.025 . S
Zn221 O229 2.024 1_455 S
Zn221 O231 2.039 1_455 S
Zn221 O233 2.034 . S
O222 C206 1.251 . S
O222 Zn213 2.039 . S
C223 O228 1.246 . S
C223 O229 1.249 . S
O224 C206 1.254 . S
O224 Zn221 2.025 . S
H225 C217 0.952 . S
H226 C208 0.952 . S
H227 C216 0.948 . S
O228 Zn213 2.034 1_655 S
O228 C223 1.246 . S
O229 Zn221 2.024 1_655 S
O229 C223 1.249 . S
H230 C212 0.948 . S
O231 Zn221 2.039 1_655 S
O231 C235 1.251 . S
O232 Zn213 2.025 1_655 S
O232 C235 1.254 . S
O233 C214 1.246 . S
O233 Zn221 2.034 . S
O234 Zn213 2.024 . S
O234 C214 1.249 . S
C235 O231 1.251 . S
C235 O232 1.254 . S
H236 C209 0.949 . S
H237 C211 0.950 . S
H238 C218 0.949 . S
H239 C220 0.950 . S
H240 C246 0.929 . S
H241 C249 0.930 . S
H242 C250 0.930 . S
H243 C251 0.930 . S
H244 C254 0.936 . S
H245 C255 0.930 . S
C246 H240 0.929 . S
C246 C247 1.355 1_545 S
C246 C248 1.415 1_545 S
C247 C246 1.355 1_565 S
C247 C249 1.419 . S
C248 C246 1.415 1_565 S
C248 C253 1.428 . S
C248 C255 1.406 1_565 S
C249 H241 0.930 . S
C249 C247 1.419 . S
C249 C250 1.362 . S
C250 H242 0.930 . S
C250 C249 1.362 . S
C250 C253 1.409 . S
C251 H243 0.930 . S
C251 C252 1.355 . S
C251 C253 1.415 . S
C252 C251 1.355 . S
C252 C254 1.413 1_565 S
C253 C248 1.428 . S
C253 C250 1.409 . S
C253 C251 1.415 . S
C254 H244 0.936 . S
C254 C252 1.413 1_545 S
C254 C255 1.364 . S
C255 H245 0.930 . S
C255 C248 1.406 1_545 S
C255 C254 1.364 . S
H256 C262 0.930 . S
H257 C265 0.930 . S
H258 C266 0.930 . S
H259 C267 0.930 . S
H260 C270 0.930 . S
H261 C271 0.930 . S
C262 H256 0.930 . S
C262 C263 1.355 . S
C262 C264 1.415 . S
C263 C262 1.355 . S
C263 C265 1.419 . S
C264 C262 1.415 . S
C264 C269 1.425 . S
C264 C271 1.409 . S
C265 H257 0.930 . S
C265 C263 1.419 . S
C265 C266 1.362 . S
C266 H258 0.930 . S
C266 C265 1.362 . S
C266 C269 1.409 . S
C267 H259 0.930 . S
C267 C268 1.355 . S
C267 C269 1.415 . S
C268 C267 1.355 . S
C268 C270 1.419 . S
C269 C264 1.425 . S
C269 C266 1.409 . S
C269 C267 1.415 . S
C270 H260 0.930 . S
C270 C268 1.419 . S
C270 C271 1.362 . S
C271 H261 0.930 . S
C271 C264 1.409 . S
C271 C270 1.362 . S
H272 C278 0.930 . S
H273 C281 0.930 . S
H274 C282 0.930 . S
H275 C283 0.930 . S
H276 C286 0.930 . S
H277 C287 0.930 . S
C278 H272 0.930 . S
C278 C279 1.355 . S
C278 C280 1.415 . S
C279 C278 1.355 . S
C279 C281 1.419 . S
C280 C278 1.415 . S
C280 C285 1.425 . S
C280 C287 1.409 . S
C281 H273 0.930 . S
C281 C279 1.419 . S
C281 C282 1.362 . S
C282 H274 0.930 . S
C282 C281 1.362 . S
C282 C285 1.409 . S
C283 H275 0.930 . S
C283 C284 1.355 . S
C283 C285 1.415 . S
C284 C283 1.355 . S
C284 C286 1.419 . S
C285 C280 1.425 . S
C285 C282 1.409 . S
C285 C283 1.415 . S
C286 H276 0.930 . S
C286 C284 1.419 . S
C286 C287 1.362 . S
C287 H277 0.930 . S
C287 C280 1.409 . S
C287 C286 1.362 . S
H288 C294 0.930 . S
H289 C297 0.930 . S
H290 C298 0.930 . S
H291 C299 0.930 . S
H292 C302 0.930 . S
H293 C303 0.930 . S
C294 H288 0.930 . S
C294 C295 1.355 . S
C294 C296 1.415 . S
C295 C294 1.355 . S
C295 C297 1.419 . S
C296 C294 1.415 . S
C296 C301 1.425 . S
C296 C303 1.409 . S
C297 H289 0.930 . S
C297 C295 1.419 . S
C297 C298 1.362 . S
C298 H290 0.930 . S
C298 C297 1.362 . S
C298 C301 1.409 . S
C299 H291 0.930 . S
C299 C300 1.355 . S
C299 C301 1.415 . S
C300 C299 1.355 . S
C300 C302 1.419 . S
C301 C296 1.425 . S
C301 C298 1.409 . S
C301 C299 1.415 . S
C302 H292 0.930 . S
C302 C300 1.419 . S
C302 C303 1.362 . S
C303 H293 0.930 . S
C303 C296 1.409 . S
C303 C302 1.362 . S
H304 C310 0.930 . S
H305 C313 0.930 . S
H306 C314 0.930 . S
H307 C315 0.930 . S
H308 C318 0.930 . S
H309 C319 0.930 . S
C310 H304 0.930 . S
C310 C311 1.355 1_545 S
C310 C312 1.415 . S
C311 C310 1.355 1_565 S
C311 C313 1.419 1_556 S
C312 C310 1.415 . S
C312 C317 1.425 1_545 S
C312 C319 1.409 . S
C313 H305 0.930 . S
C313 C311 1.419 1_554 S
C313 C314 1.362 . S
C314 H306 0.930 . S
C314 C313 1.362 . S
C314 C317 1.409 1_554 S
C315 H307 0.930 . S
C315 C316 1.355 1_565 S
C315 C317 1.415 . S
C316 C315 1.355 1_545 S
C316 C318 1.419 . S
C317 C312 1.425 1_565 S
C317 C314 1.409 1_556 S
C317 C315 1.415 . S
C318 H308 0.930 . S
C318 C316 1.419 . S
C318 C319 1.362 . S
C319 H309 0.930 . S
C319 C312 1.409 . S
C319 C318 1.362 . S
H320 C326 0.930 . S
H321 C329 0.930 . S
H322 C330 0.930 . S
H323 C331 0.930 . S
H324 C334 0.930 . S
H325 C335 0.930 . S
C326 H320 0.930 . S
C326 C327 1.355 . S
C326 C328 1.415 1_554 S
C327 C326 1.355 . S
C327 C329 1.419 1_554 S
C328 C326 1.415 1_556 S
C328 C333 1.425 . S
C328 C335 1.409 1_556 S
C329 H321 0.930 . S
C329 C327 1.419 1_556 S
C329 C330 1.362 . S
C330 H322 0.930 . S
C330 C329 1.362 . S
C330 C333 1.409 . S
C331 H323 0.930 . S
C331 C332 1.355 . S
C331 C333 1.415 . S
C332 C331 1.355 . S
C332 C334 1.419 . S
C333 C328 1.425 . S
C333 C330 1.409 . S
C333 C331 1.415 . S
C334 H324 0.930 . S
C334 C332 1.419 . S
C334 C335 1.362 1_556 S
C335 H325 0.930 . S
C335 C328 1.409 1_554 S
C335 C334 1.362 1_554 S
H336 C342 0.930 . S
H337 C345 0.930 . S
H338 C346 0.930 . S
H339 C347 0.930 . S
H340 C350 0.930 . S
H341 C351 0.930 . S
C342 H336 0.930 . S
C342 C343 1.355 1_556 S
C342 C344 1.415 . S
C343 C342 1.355 1_554 S
C343 C345 1.419 . S
C344 C342 1.415 . S
C344 C349 1.425 . S
C344 C351 1.409 . S
C345 H337 0.930 . S
C345 C343 1.419 . S
C345 C346 1.362 . S
C346 H338 0.930 . S
C346 C345 1.362 . S
C346 C349 1.409 1_554 S
C347 H339 0.930 . S
C347 C348 1.355 . S
C347 C349 1.415 . S
C348 C347 1.355 . S
C348 C350 1.419 . S
C349 C344 1.425 . S
C349 C346 1.409 1_556 S
C349 C347 1.415 . S
C350 H340 0.930 . S
C350 C348 1.419 . S
C350 C351 1.362 . S
C351 H341 0.930 . S
C351 C344 1.409 . S
C351 C350 1.362 . S
H352 C358 0.930 . S
H353 C361 0.930 . S
H354 C362 0.930 . S
H355 C363 0.930 . S
H356 C366 0.930 . S
H357 C367 0.930 . S
C358 H352 0.930 . S
C358 C359 1.355 . S
C358 C360 1.415 . S
C359 C358 1.355 . S
C359 C361 1.419 1_655 S
C360 C358 1.415 . S
C360 C365 1.425 1_655 S
C360 C367 1.409 . S
C361 H353 0.930 . S
C361 C359 1.419 1_455 S
C361 C362 1.362 . S
C362 H354 0.930 . S
C362 C361 1.362 . S
C362 C365 1.409 . S
C363 H355 0.930 . S
C363 C364 1.355 1_455 S
C363 C365 1.415 . S
C364 C363 1.355 1_655 S
C364 C366 1.419 . S
C365 C360 1.425 1_455 S
C365 C362 1.409 . S
C365 C363 1.415 . S
C366 H356 0.930 . S
C366 C364 1.419 . S
C366 C367 1.362 . S
C367 H357 0.930 . S
C367 C360 1.409 . S
C367 C366 1.362 . S
H368 C374 0.930 . S
H369 C377 0.930 . S
H370 C378 0.930 . S
H371 C379 0.930 . S
H372 C382 0.930 . S
H373 C383 0.919 1_655 S
C374 H368 0.930 . S
C374 C375 1.355 . S
C374 C376 1.415 . S
C375 C374 1.355 . S
C375 C377 1.419 . S
C376 C374 1.415 . S
C376 C381 1.425 . S
C376 C383 1.424 . S
C377 H369 0.930 . S
C377 C375 1.419 . S
C377 C378 1.362 . S
C378 H370 0.930 . S
C378 C377 1.362 . S
C378 C381 1.409 . S
C379 H371 0.930 . S
C379 C380 1.355 . S
C379 C381 1.415 . S
C380 C379 1.355 . S
C380 C382 1.419 1_455 S
C381 C376 1.425 . S
C381 C378 1.409 . S
C381 C379 1.415 . S
C382 H372 0.930 . S
C382 C380 1.419 1_655 S
C382 C383 1.359 1_655 S
C383 H373 0.919 1_455 S
C383 C376 1.424 . S
C383 C382 1.359 1_455 S
H384 C390 0.930 . S
H385 C393 0.930 . S
H386 C394 0.930 . S
H387 C395 0.930 . S
H388 C398 0.930 . S
H389 C399 0.930 . S
C390 H384 0.930 . S
C390 C391 1.353 . S
C390 C392 1.415 . S
C391 C390 1.353 . S
C391 C393 1.421 1_565 S
C392 C390 1.415 . S
C392 C397 1.425 1_565 S
C392 C399 1.409 . S
C393 H385 0.930 . S
C393 C391 1.421 1_545 S
C393 C394 1.362 . S
C394 H386 0.930 . S
C394 C393 1.362 . S
C394 C397 1.409 . S
C395 H387 0.930 . S
C395 C396 1.355 1_545 S
C395 C397 1.415 . S
C396 C395 1.355 1_565 S
C396 C398 1.419 . S
C397 C392 1.425 1_545 S
C397 C394 1.409 . S
C397 C395 1.415 . S
C398 H388 0.930 . S
C398 C396 1.419 . S
C398 C399 1.362 . S
C399 H389 0.930 . S
C399 C392 1.409 . S
C399 C398 1.362 . S
H400 C406 0.930 . S
H401 C409 0.930 . S
H402 C410 0.930 . S
H403 C411 0.930 . S
H404 C414 0.930 . S
H405 C415 0.930 . S
C406 H400 0.930 . S
C406 C407 1.355 . S
C406 C408 1.415 . S
C407 C406 1.355 . S
C407 C409 1.419 . S
C408 C406 1.415 . S
C408 C413 1.425 . S
C408 C415 1.409 . S
C409 H401 0.930 . S
C409 C407 1.419 . S
C409 C410 1.362 . S
C410 H402 0.930 . S
C410 C409 1.362 . S
C410 C413 1.409 . S
C411 H403 0.930 . S
C411 C412 1.355 . S
C411 C413 1.415 . S
C412 C411 1.355 . S
C412 C414 1.419 . S
C413 C408 1.425 . S
C413 C410 1.409 . S
C413 C411 1.415 . S
C414 H404 0.930 . S
C414 C412 1.419 . S
C414 C415 1.362 . S
C415 H405 0.930 . S
C415 C408 1.409 . S
C415 C414 1.362 . S
H416 C422 0.930 . S
H417 C425 0.930 . S
H418 C426 0.930 . S
H419 C427 0.930 . S
H420 C430 0.930 . S
H421 C431 0.930 . S
C422 H416 0.930 . S
C422 C423 1.355 . S
C422 C424 1.415 . S
C423 C422 1.355 . S
C423 C425 1.419 . S
C424 C422 1.415 . S
C424 C429 1.425 . S
C424 C431 1.409 . S
C425 H417 0.930 . S
C425 C423 1.419 . S
C425 C426 1.362 . S
C426 H418 0.930 . S
C426 C425 1.362 . S
C426 C429 1.409 . S
C427 H419 0.930 . S
C427 C428 1.355 . S
C427 C429 1.415 . S
C428 C427 1.355 . S
C428 C430 1.419 . S
C429 C424 1.425 . S
C429 C426 1.409 . S
C429 C427 1.415 . S
C430 H420 0.930 . S
C430 C428 1.419 . S
C430 C431 1.362 . S
C431 H421 0.930 . S
C431 C424 1.409 . S
C431 C430 1.362 . S
H432 C438 0.930 . S
H433 C441 0.930 . S
H434 C442 0.930 . S
H435 C443 0.930 . S
H436 C446 0.930 . S
H437 C447 0.930 . S
C438 H432 0.930 . S
C438 C439 1.355 . S
C438 C440 1.415 . S
C439 C438 1.355 . S
C439 C441 1.419 1_655 S
C440 C438 1.415 . S
C440 C445 1.425 1_655 S
C440 C447 1.409 . S
C441 H433 0.930 . S
C441 C439 1.419 1_455 S
C441 C442 1.362 . S
C442 H434 0.930 . S
C442 C441 1.362 . S
C442 C445 1.409 . S
C443 H435 0.930 . S
C443 C444 1.355 . S
C443 C445 1.415 . S
C444 C443 1.355 . S
C444 C446 1.419 1_455 S
C445 C440 1.425 1_455 S
C445 C442 1.409 . S
C445 C443 1.415 . S
C446 H436 0.930 . S
C446 C444 1.419 1_655 S
C446 C447 1.362 . S
C447 H437 0.930 . S
C447 C440 1.409 . S
C447 C446 1.362 . S
H448 C454 0.930 . S
H449 C457 0.930 . S
H450 C458 0.930 . S
H451 C459 0.930 . S
H452 C462 0.930 . S
H453 C463 0.930 . S
C454 H448 0.930 . S
C454 C455 1.355 1_546 S
C454 C456 1.415 . S
C455 C454 1.355 1_564 S
C455 C457 1.419 . S
C456 C454 1.415 . S
C456 C461 1.425 1_545 S
C456 C463 1.409 . S
C457 H449 0.930 . S
C457 C455 1.419 . S
C457 C458 1.362 1_554 S
C458 H450 0.930 . S
C458 C457 1.362 1_556 S
C458 C461 1.409 . S
C459 H451 0.930 . S
C459 C460 1.355 1_565 S
C459 C461 1.415 . S
C460 C459 1.355 1_545 S
C460 C462 1.419 . S
C461 C456 1.425 1_565 S
C461 C458 1.409 . S
C461 C459 1.415 . S
C462 H452 0.930 . S
C462 C460 1.419 . S
C462 C463 1.362 . S
C463 H453 0.930 . S
C463 C456 1.409 . S
C463 C462 1.362 . S
H464 C470 0.930 . S
H465 C473 0.930 . S
H466 C474 0.930 . S
H467 C475 0.930 . S
H468 C478 0.930 . S
H469 C479 0.930 . S
C470 H464 0.930 . S
C470 C471 1.355 1_556 S
C470 C472 1.415 . S
C471 C470 1.355 1_554 S
C471 C473 1.419 . S
C472 C470 1.415 . S
C472 C477 1.425 . S
C472 C479 1.409 . S
C473 H465 0.930 . S
C473 C471 1.419 . S
C473 C474 1.362 . S
C474 H466 0.930 . S
C474 C473 1.362 . S
C474 C477 1.409 1_554 S
C475 H467 0.930 . S
C475 C476 1.355 . S
C475 C477 1.415 . S
C476 C475 1.355 . S
C476 C478 1.419 . S
C477 C472 1.425 . S
C477 C474 1.409 1_556 S
C477 C475 1.415 . S
C478 H468 0.930 . S
C478 C476 1.419 . S
C478 C479 1.362 . S
C479 H469 0.930 . S
C479 C472 1.409 . S
C479 C478 1.362 . S
H480 C486 0.930 . S
H481 C489 0.930 . S
H482 C490 0.930 . S
H483 C491 0.930 . S
H484 C494 0.930 . S
H485 C495 0.930 . S
C486 H480 0.930 . S
C486 C487 1.355 . S
C486 C488 1.415 . S
C487 C486 1.355 . S
C487 C489 1.419 1_554 S
C488 C486 1.415 . S
C488 C493 1.425 1_554 S
C488 C495 1.409 . S
C489 H481 0.930 . S
C489 C487 1.419 1_556 S
C489 C490 1.362 . S
C490 H482 0.930 . S
C490 C489 1.362 . S
C490 C493 1.409 . S
C491 H483 0.930 . S
C491 C492 1.355 . S
C491 C493 1.415 . S
C492 C491 1.355 . S
C492 C494 1.419 . S
C493 C488 1.425 1_556 S
C493 C490 1.409 . S
C493 C491 1.415 . S
C494 H484 0.930 . S
C494 C492 1.419 . S
C494 C495 1.362 1_556 S
C495 H485 0.930 . S
C495 C488 1.409 . S
C495 C494 1.362 1_554 S
H496 C502 0.930 . S
H497 C505 0.930 . S
H498 C506 0.930 . S
H499 C507 0.930 . S
H500 C510 0.930 . S
H501 C511 0.930 . S
C502 H496 0.930 . S
C502 C503 1.355 . S
C502 C504 1.415 . S
C503 C502 1.355 . S
C503 C505 1.419 . S
C504 C502 1.415 . S
C504 C509 1.425 . S
C504 C511 1.409 . S
C505 H497 0.930 . S
C505 C503 1.419 . S
C505 C506 1.362 . S
C506 H498 0.930 . S
C506 C505 1.362 . S
C506 C509 1.409 . S
C507 H499 0.930 . S
C507 C508 1.355 . S
C507 C509 1.415 . S
C508 C507 1.355 . S
C508 C510 1.419 . S
C509 C504 1.425 . S
C509 C506 1.409 . S
C509 C507 1.415 . S
C510 H500 0.930 . S
C510 C508 1.419 . S
C510 C511 1.362 . S
C511 H501 0.930 . S
C511 C504 1.409 . S
C511 C510 1.362 . S
H512 C518 0.930 . S
H513 C521 0.930 . S
H514 C522 0.930 1_556 S
H515 C523 0.930 . S
H516 C526 0.930 . S
H517 C527 0.930 . S
C518 H512 0.930 . S
C518 C519 1.355 1_565 S
C518 C520 1.414 . S
C519 C518 1.355 1_545 S
C519 C521 1.419 . S
C520 C518 1.414 . S
C520 C525 1.422 1_565 S
C520 C527 1.413 . S
C521 H513 0.930 . S
C521 C519 1.419 . S
C521 C522 1.362 . S
C522 H514 0.930 1_554 S
C522 C521 1.362 . S
C522 C525 1.409 . S
C523 H515 0.930 . S
C523 C524 1.355 . S
C523 C525 1.415 1_556 S
C524 C523 1.355 . S
C524 C526 1.419 1_546 S
C525 C520 1.422 1_545 S
C525 C522 1.409 . S
C525 C523 1.415 1_554 S
C526 H516 0.930 . S
C526 C524 1.419 1_564 S
C526 C527 1.362 . S
C527 H517 0.930 . S
C527 C520 1.413 . S
C527 C526 1.362 . S
H528 C534 0.930 . S
H529 C537 0.930 . S
H530 C538 0.930 . S
H531 C539 0.930 . S
H532 C542 0.930 . S
H533 C543 0.930 . S
C534 H528 0.930 . S
C534 C535 1.355 . S
C534 C536 1.415 . S
C535 C534 1.355 . S
C535 C537 1.419 . S
C536 C534 1.415 . S
C536 C541 1.425 . S
C536 C543 1.409 . S
C537 H529 0.930 . S
C537 C535 1.419 . S
C537 C538 1.362 . S
C538 H530 0.930 . S
C538 C537 1.362 . S
C538 C541 1.409 . S
C539 H531 0.930 . S
C539 C540 1.355 . S
C539 C541 1.415 1_556 S
C540 C539 1.355 . S
C540 C542 1.419 . S
C541 C536 1.425 . S
C541 C538 1.409 . S
C541 C539 1.415 1_554 S
C542 H532 0.930 . S
C542 C540 1.419 . S
C542 C543 1.362 1_556 S
C543 H533 0.930 . S
C543 C536 1.409 . S
C543 C542 1.362 1_554 S
H544 C550 0.930 . S
H545 C553 0.930 . S
H546 C554 0.930 . S
H547 C555 0.930 . S
H548 C558 0.930 . S
H549 C559 0.930 . S
C550 H544 0.930 . S
C550 C551 1.355 . S
C550 C552 1.415 . S
C551 C550 1.355 . S
C551 C553 1.419 . S
C552 C550 1.415 . S
C552 C557 1.425 . S
C552 C559 1.409 1_554 S
C553 H545 0.930 . S
C553 C551 1.419 . S
C553 C554 1.362 . S
C554 H546 0.930 . S
C554 C553 1.362 . S
C554 C557 1.409 . S
C555 H547 0.930 . S
C555 C556 1.355 . S
C555 C557 1.415 1_556 S
C556 C555 1.355 . S
C556 C558 1.419 . S
C557 C552 1.425 . S
C557 C554 1.409 . S
C557 C555 1.415 1_554 S
C558 H548 0.930 . S
C558 C556 1.419 . S
C558 C559 1.362 . S
C559 H549 0.930 . S
C559 C552 1.409 1_556 S
C559 C558 1.362 . S
H560 C566 0.930 . S
H561 C569 0.930 1_455 S
H562 C570 0.952 . S
H563 C571 0.930 1_455 S
H564 C574 0.930 . S
H565 C575 0.930 . S
C566 H560 0.930 . S
C566 C567 1.355 . S
C566 C568 1.415 . S
C567 C566 1.355 . S
C567 C569 1.419 . S
C568 C566 1.415 . S
C568 C573 1.425 . S
C568 C575 1.409 . S
C569 H561 0.930 1_655 S
C569 C567 1.419 . S
C569 C570 1.354 1_655 S
C570 H562 0.952 . S
C570 C569 1.354 1_455 S
C570 C573 1.397 1_455 S
C571 H563 0.930 1_655 S
C571 C572 1.355 . S
C571 C573 1.415 . S
C572 C571 1.355 . S
C572 C574 1.419 . S
C573 C568 1.425 . S
C573 C570 1.397 1_655 S
C573 C571 1.415 . S
C574 H564 0.930 . S
C574 C572 1.419 . S
C574 C575 1.362 . S
C575 H565 0.930 . S
C575 C568 1.409 . S
C575 C574 1.362 . S
H576 C582 0.930 . S
H577 C585 0.930 . S
H578 C586 0.930 . S
H579 C587 0.930 . S
H580 C590 0.930 . S
H581 C591 0.932 1_545 S
C582 H576 0.930 . S
C582 C583 1.355 . S
C582 C584 1.415 1_545 S
C583 C582 1.355 . S
C583 C585 1.419 1_545 S
C584 C582 1.415 1_565 S
C584 C589 1.425 . S
C584 C591 1.409 . S
C585 H577 0.930 . S
C585 C583 1.419 1_565 S
C585 C586 1.362 . S
C586 H578 0.930 . S
C586 C585 1.362 . S
C586 C589 1.409 . S
C587 H579 0.930 . S
C587 C588 1.355 . S
C587 C589 1.415 . S
C588 C587 1.355 . S
C588 C590 1.419 . S
C589 C584 1.425 . S
C589 C586 1.409 . S
C589 C587 1.415 . S
C590 H580 0.930 . S
C590 C588 1.419 . S
C590 C591 1.362 . S
C591 H581 0.932 1_565 S
C591 C584 1.409 . S
C591 C590 1.362 . S
H592 C598 0.930 . S
H593 C601 0.930 . S
H594 C602 0.930 . S
H595 C603 0.930 . S
H596 C606 0.930 . S
H597 C607 0.930 . S
C598 H592 0.930 . S
C598 C599 1.355 . S
C598 C600 1.415 . S
C599 C598 1.355 . S
C599 C601 1.419 . S
C600 C598 1.415 . S
C600 C605 1.425 . S
C600 C607 1.409 . S
C601 H593 0.930 . S
C601 C599 1.419 . S
C601 C602 1.362 . S
C602 H594 0.930 . S
C602 C601 1.362 . S
C602 C605 1.409 . S
C603 H595 0.930 . S
C603 C604 1.355 . S
C603 C605 1.415 . S
C604 C603 1.355 . S
C604 C606 1.419 . S
C605 C600 1.425 . S
C605 C602 1.409 . S
C605 C603 1.415 . S
C606 H596 0.930 . S
C606 C604 1.419 . S
C606 C607 1.362 . S
C607 H597 0.930 . S
C607 C600 1.409 . S
C607 C606 1.362 . S
H608 C614 0.930 . S
H609 C617 0.930 . S
H610 C618 0.930 . S
H611 C619 0.930 . S
H612 C622 0.930 . S
H613 C623 0.930 . S
C614 H608 0.930 . S
C614 C615 1.355 . S
C614 C616 1.415 . S
C615 C614 1.355 . S
C615 C617 1.419 . S
C616 C614 1.415 . S
C616 C621 1.425 . S
C616 C623 1.409 . S
C617 H609 0.930 . S
C617 C615 1.419 . S
C617 C618 1.362 . S
C618 H610 0.930 . S
C618 C617 1.362 . S
C618 C621 1.409 . S
C619 H611 0.930 . S
C619 C620 1.355 . S
C619 C621 1.415 . S
C620 C619 1.355 . S
C620 C622 1.419 . S
C621 C616 1.425 . S
C621 C618 1.409 . S
C621 C619 1.415 . S
C622 H612 0.930 . S
C622 C620 1.419 . S
C622 C623 1.362 . S
C623 H613 0.930 . S
C623 C616 1.409 . S
C623 C622 1.362 . S
C247 C82 1.798 1_565 S
C252 C121 1.873 . S
C268 C142 1.535 . S
C263 C95 1.455 . S
C284 C176 1.374 . S
C279 C56 1.209 . S
C300 C210 1.532 . S
C295 C69 1.447 . S
C316 C112 1.872 . S
C311 C30 1.785 1_566 S
C327 C43 1.396 . S
C332 C151 1.527 . S
C343 C4 1.337 . S
C348 C185 1.434 . S
C359 C17 1.421 . S
C364 C219 1.544 1_655 S
C380 C133 0.723 . S
C375 C74 0.756 . S
C396 C138 1.135 . S
C391 C87 1.142 1_565 S
C412 C172 1.061 . S
C407 C100 1.019 . S
C423 C61 0.529 . S
C428 C206 0.543 . S
C439 C22 0.732 . S
C444 C104 0.679 . S
C460 C167 1.127 . S
C455 C35 1.082 1_565 S
C476 C201 1.018 . S
C471 C48 0.985 . S
C487 C9 0.567 . S
C492 C235 0.526 . S
C503 C73 1.346 . S
C508 C117 1.360 . S
C519 C86 1.729 . S
C524 C146 1.756 . S
C540 C180 1.549 . S
C535 C99 1.519 . S
C556 C214 1.609 . S
C551 C60 1.560 . S
C567 C21 1.317 . S
C572 C108 1.361 . S
C588 C155 1.757 . S
C583 C34 1.736 . S
C604 C189 1.544 . S
C599 C47 1.535 . S
C615 C8 1.590 . S
C620 C223 1.605 . S
