# Generated by pormake.
# Topology ctn, (3,4)-cn, num edge types: 1
# Building blocks:
#     Node 0, Type 0, BuildingBlock: ESEHIV_clean_linker_0, # of connection points: 3
#     Node 1, Type 0, BuildingBlock: ESEHIV_clean_linker_0, # of connection points: 3
#     Node 2, Type 0, BuildingBlock: ESEHIV_clean_linker_0, # of connection points: 3
#     Node 3, Type 0, BuildingBlock: ESEHIV_clean_linker_0, # of connection points: 3
#     Node 4, Type 0, BuildingBlock: ESEHIV_clean_linker_0, # of connection points: 3
#     Node 5, Type 0, BuildingBlock: ESEHIV_clean_linker_0, # of connection points: 3
#     Node 6, Type 0, BuildingBlock: ESEHIV_clean_linker_0, # of connection points: 3
#     Node 7, Type 0, BuildingBlock: ESEHIV_clean_linker_0, # of connection points: 3
#     Node 8, Type 0, BuildingBlock: ESEHIV_clean_linker_0, # of connection points: 3
#     Node 9, Type 0, BuildingBlock: ESEHIV_clean_linker_0, # of connection points: 3
#     Node 10, Type 0, BuildingBlock: ESEHIV_clean_linker_0, # of connection points: 3
#     Node 11, Type 0, BuildingBlock: ESEHIV_clean_linker_0, # of connection points: 3
#     Node 12, Type 0, BuildingBlock: ESEHIV_clean_linker_0, # of connection points: 3
#     Node 13, Type 0, BuildingBlock: ESEHIV_clean_linker_0, # of connection points: 3
#     Node 14, Type 0, BuildingBlock: ESEHIV_clean_linker_0, # of connection points: 3
#     Node 15, Type 0, BuildingBlock: ESEHIV_clean_linker_0, # of connection points: 3
#     Node 16, Type 1, BuildingBlock: AZAVOO_clean_sbu_0, # of connection points: 4
#     Node 17, Type 1, BuildingBlock: AZAVOO_clean_sbu_0, # of connection points: 4
#     Node 18, Type 1, BuildingBlock: AZAVOO_clean_sbu_0, # of connection points: 4
#     Node 19, Type 1, BuildingBlock: AZAVOO_clean_sbu_0, # of connection points: 4
#     Node 20, Type 1, BuildingBlock: AZAVOO_clean_sbu_0, # of connection points: 4
#     Node 21, Type 1, BuildingBlock: AZAVOO_clean_sbu_0, # of connection points: 4
#     Node 22, Type 1, BuildingBlock: AZAVOO_clean_sbu_0, # of connection points: 4
#     Node 23, Type 1, BuildingBlock: AZAVOO_clean_sbu_0, # of connection points: 4
#     Node 24, Type 1, BuildingBlock: AZAVOO_clean_sbu_0, # of connection points: 4
#     Node 25, Type 1, BuildingBlock: AZAVOO_clean_sbu_0, # of connection points: 4
#     Node 26, Type 1, BuildingBlock: AZAVOO_clean_sbu_0, # of connection points: 4
#     Node 27, Type 1, BuildingBlock: AZAVOO_clean_sbu_0, # of connection points: 4
#     Edge 28, Type (0, 1), BuildingBlock: UVAHIK_clean_linker_0, # of connection points: 2
#     Edge 29, Type (0, 1), BuildingBlock: UVAHIK_clean_linker_0, # of connection points: 2
#     Edge 30, Type (0, 1), BuildingBlock: UVAHIK_clean_linker_0, # of connection points: 2
#     Edge 31, Type (0, 1), BuildingBlock: UVAHIK_clean_linker_0, # of connection points: 2
#     Edge 32, Type (0, 1), BuildingBlock: UVAHIK_clean_linker_0, # of connection points: 2
#     Edge 33, Type (0, 1), BuildingBlock: UVAHIK_clean_linker_0, # of connection points: 2
#     Edge 34, Type (0, 1), BuildingBlock: UVAHIK_clean_linker_0, # of connection points: 2
#     Edge 35, Type (0, 1), BuildingBlock: UVAHIK_clean_linker_0, # of connection points: 2
#     Edge 36, Type (0, 1), BuildingBlock: UVAHIK_clean_linker_0, # of connection points: 2
#     Edge 37, Type (0, 1), BuildingBlock: UVAHIK_clean_linker_0, # of connection points: 2
#     Edge 38, Type (0, 1), BuildingBlock: UVAHIK_clean_linker_0, # of connection points: 2
#     Edge 39, Type (0, 1), BuildingBlock: UVAHIK_clean_linker_0, # of connection points: 2
#     Edge 40, Type (0, 1), BuildingBlock: UVAHIK_clean_linker_0, # of connection points: 2
#     Edge 41, Type (0, 1), BuildingBlock: UVAHIK_clean_linker_0, # of connection points: 2
#     Edge 42, Type (0, 1), BuildingBlock: UVAHIK_clean_linker_0, # of connection points: 2
#     Edge 43, Type (0, 1), BuildingBlock: UVAHIK_clean_linker_0, # of connection points: 2
#     Edge 44, Type (0, 1), BuildingBlock: UVAHIK_clean_linker_0, # of connection points: 2
#     Edge 45, Type (0, 1), BuildingBlock: UVAHIK_clean_linker_0, # of connection points: 2
#     Edge 46, Type (0, 1), BuildingBlock: UVAHIK_clean_linker_0, # of connection points: 2
#     Edge 47, Type (0, 1), BuildingBlock: UVAHIK_clean_linker_0, # of connection points: 2
#     Edge 48, Type (0, 1), BuildingBlock: UVAHIK_clean_linker_0, # of connection points: 2
#     Edge 49, Type (0, 1), BuildingBlock: UVAHIK_clean_linker_0, # of connection points: 2
#     Edge 50, Type (0, 1), BuildingBlock: UVAHIK_clean_linker_0, # of connection points: 2
#     Edge 51, Type (0, 1), BuildingBlock: UVAHIK_clean_linker_0, # of connection points: 2
#     Edge 52, Type (0, 1), BuildingBlock: UVAHIK_clean_linker_0, # of connection points: 2
#     Edge 53, Type (0, 1), BuildingBlock: UVAHIK_clean_linker_0, # of connection points: 2
#     Edge 54, Type (0, 1), BuildingBlock: UVAHIK_clean_linker_0, # of connection points: 2
#     Edge 55, Type (0, 1), BuildingBlock: UVAHIK_clean_linker_0, # of connection points: 2
#     Edge 56, Type (0, 1), BuildingBlock: UVAHIK_clean_linker_0, # of connection points: 2
#     Edge 57, Type (0, 1), BuildingBlock: UVAHIK_clean_linker_0, # of connection points: 2
#     Edge 58, Type (0, 1), BuildingBlock: UVAHIK_clean_linker_0, # of connection points: 2
#     Edge 59, Type (0, 1), BuildingBlock: UVAHIK_clean_linker_0, # of connection points: 2
#     Edge 60, Type (0, 1), BuildingBlock: UVAHIK_clean_linker_0, # of connection points: 2
#     Edge 61, Type (0, 1), BuildingBlock: UVAHIK_clean_linker_0, # of connection points: 2
#     Edge 62, Type (0, 1), BuildingBlock: UVAHIK_clean_linker_0, # of connection points: 2
#     Edge 63, Type (0, 1), BuildingBlock: UVAHIK_clean_linker_0, # of connection points: 2
#     Edge 64, Type (0, 1), BuildingBlock: UVAHIK_clean_linker_0, # of connection points: 2
#     Edge 65, Type (0, 1), BuildingBlock: UVAHIK_clean_linker_0, # of connection points: 2
#     Edge 66, Type (0, 1), BuildingBlock: UVAHIK_clean_linker_0, # of connection points: 2
#     Edge 67, Type (0, 1), BuildingBlock: UVAHIK_clean_linker_0, # of connection points: 2
#     Edge 68, Type (0, 1), BuildingBlock: UVAHIK_clean_linker_0, # of connection points: 2
#     Edge 69, Type (0, 1), BuildingBlock: UVAHIK_clean_linker_0, # of connection points: 2
#     Edge 70, Type (0, 1), BuildingBlock: UVAHIK_clean_linker_0, # of connection points: 2
#     Edge 71, Type (0, 1), BuildingBlock: UVAHIK_clean_linker_0, # of connection points: 2
#     Edge 72, Type (0, 1), BuildingBlock: UVAHIK_clean_linker_0, # of connection points: 2
#     Edge 73, Type (0, 1), BuildingBlock: UVAHIK_clean_linker_0, # of connection points: 2
#     Edge 74, Type (0, 1), BuildingBlock: UVAHIK_clean_linker_0, # of connection points: 2
#     Edge 75, Type (0, 1), BuildingBlock: UVAHIK_clean_linker_0, # of connection points: 2
# Relax obj value: 0.001
# Max RMSD: 0.043
# Mean RMSD: 0.022
data_MOF--net-ctn--node1-AZAVOO_clean_sbu_0--node2-ESEHIV_clean_linker_0--edge1-UVAHIK_clean_linker_0
_symmetry_space_group_name_H-M    P1
_symmetry_Int_Tables_number       1
_symmetry_cell_setting            triclinic
loop_
_symmetry_equiv_pos_as_xyz
'x, y, z'
_cell_length_a     67.091474
_cell_length_b     68.168931
_cell_length_c     68.104257
_cell_angle_alpha  90.069885
_cell_angle_beta   92.814256
_cell_angle_gamma 92.945652
loop_
_atom_site_label
_atom_site_type_symbol
_atom_site_fract_x
_atom_site_fract_y
_atom_site_fract_z
_atom_type_partial_charge
H0 H 0.00448 0.03234 0.01004 0.0
H1 H 0.0413 0.98833 0.03596 0.0
H2 H 0.05608 0.01473 0.98101 0.0
C3 C 0.01709 0.0231 0.00952 0.0
C4 C 0.02986 0.02522 0.99385 0.0
C5 C 0.02104 0.00991 0.02496 0.0
C6 C 0.0377 0.99825 0.02405 0.0
C7 C 0.05018 -0.00032 0.00808 0.0
C8 C 0.04611 0.01314 0.99303 0.0
H9 H 0.32433 0.70093 0.25493 0.0
H10 H 0.35175 0.74576 0.21888 0.0
H11 H 0.29894 0.71267 0.19742 0.0
C12 C 0.32485 0.70918 0.24137 0.0
C13 C 0.31026 0.70488 0.22631 0.0
C14 C 0.34014 0.72377 0.23886 0.0
C15 C 0.34004 0.73461 0.22126 0.0
C16 C 0.32518 0.73076 0.20633 0.0
C17 C 0.31055 0.71566 0.20884 0.0
H18 H 0.96761 0.50086 0.07589 0.0
H19 H 0.00303 0.45456 0.05629 0.0
H20 H 0.94913 0.46799 0.02349 0.0
C21 C 0.97024 0.48963 0.06519 0.0
C22 C 0.95637 0.48604 0.04924 0.0
C23 C 0.98711 0.47836 0.06787 0.0
C24 C 0.99007 0.46335 0.05434 0.0
C25 C 0.97632 0.45938 0.03845 0.0
C26 C 0.95953 0.47079 0.03598 0.0
H27 H 0.69469 0.80061 0.20894 0.0
H28 H 0.74181 0.83804 0.18678 0.0
H29 H 0.71023 0.85645 0.2366 0.0
C30 C 0.70383 0.8142 0.20977 0.0
C31 C 0.70072 0.82807 0.22443 0.0
C32 C 0.71845 0.81779 0.19602 0.0
C33 C 0.73002 0.83554 0.19696 0.0
C34 C 0.72724 0.84958 0.21159 0.0
C35 C 0.71241 0.84579 0.22518 0.0
H36 H 0.01443 0.96715 0.47078 0.0
H37 H 0.05022 0.01937 0.45816 0.0
H38 H 0.06768 0.98214 0.50637 0.0
C39 C 0.0273 0.97705 0.47419 0.0
C40 C 0.04066 0.97269 0.48989 0.0
C41 C 0.03063 0.99382 0.4626 0.0
C42 C 0.04734 0.00659 0.46724 0.0
C43 C 0.06088 0.00245 0.48295 0.0
C44 C 0.05747 0.98538 0.49411 0.0
H45 H 0.17023 0.72621 0.77294 0.0
H46 H 0.22094 0.69579 0.79533 0.0
H47 H 0.19229 0.67889 0.73955 0.0
C48 C 0.18062 0.71471 0.77136 0.0
C49 C 0.17921 0.70271 0.7545 0.0
C50 C 0.19549 0.71212 0.78619 0.0
C51 C 0.20911 0.69742 0.78411 0.0
C52 C 0.20828 0.68559 0.76717 0.0
C53 C 0.19323 0.68827 0.75246 0.0
H54 H 0.94146 0.51714 0.48194 0.0
H55 H 0.99248 0.53427 0.44915 0.0
H56 H 0.95747 0.48146 0.43352 0.0
C57 C 0.95143 0.51426 0.47035 0.0
C58 C 0.94784 0.49739 0.45853 0.0
C59 C 0.96735 0.52779 0.4669 0.0
C60 C 0.97975 0.52424 0.45144 0.0
C61 C 0.97616 0.50777 0.4391 0.0
C62 C 0.96024 0.4943 0.44284 0.0
H63 H 0.77318 0.78115 0.80882 0.0
H64 H 0.80152 0.803 0.75717 0.0
H65 H 0.82184 0.75115 0.78605 0.0
C66 C 0.78448 0.78025 0.79807 0.0
C67 C 0.79758 0.76485 0.79938 0.0
C68 C 0.78554 0.79405 0.78277 0.0
C69 C 0.80021 0.79233 0.76887 0.0
C70 C 0.81316 0.77677 0.76981 0.0
C71 C 0.81165 0.76298 0.78503 0.0
H72 H 0.26951 0.27936 0.302 0.0
H73 H 0.30421 0.30343 0.25544 0.0
H74 H 0.31937 0.24878 0.28218 0.0
C75 C 0.28182 0.27847 0.29238 0.0
C76 C 0.29418 0.26244 0.29402 0.0
C77 C 0.28518 0.29333 0.27846 0.0
C78 C 0.3013 0.29205 0.26618 0.0
C79 C 0.31357 0.27598 0.26737 0.0
C80 C 0.30994 0.26122 0.2813 0.0
H81 H 0.47146 0.00608 0.5784 0.0
H82 H 0.50906 0.96131 0.55964 0.0
H83 H 0.45526 0.97292 0.52566 0.0
C84 C 0.47471 0.99499 0.56777 0.0
C85 C 0.46147 0.99118 0.55136 0.0
C86 C 0.49175 0.98407 0.57099 0.0
C87 C 0.49558 0.9693 0.55752 0.0
C88 C 0.48243 0.96497 0.54121 0.0
C89 C 0.46546 0.97609 0.53821 0.0
H90 H 0.19493 0.29073 0.71425 0.0
H91 H 0.24151 0.3282 0.69102 0.0
H92 H 0.21156 0.34631 0.74195 0.0
C93 C 0.20412 0.3043 0.71487 0.0
C94 C 0.20152 0.31813 0.72971 0.0
C95 C 0.21824 0.30803 0.70062 0.0
C96 C 0.23004 0.32567 0.70152 0.0
C97 C 0.22789 0.33952 0.71647 0.0
C98 C 0.21337 0.33574 0.73036 0.0
H99 H 0.82238 0.20409 0.75619 0.0
H100 H 0.83744 0.25504 0.72142 0.0
H101 H 0.784 0.21939 0.70687 0.0
C102 C 0.81911 0.21368 0.74388 0.0
C103 C 0.80167 0.20989 0.732 0.0
C104 C 0.83202 0.23008 0.74034 0.0
C105 C 0.82736 0.24263 0.72458 0.0
C106 C 0.8102 0.23868 0.71231 0.0
C107 C 0.79734 0.22243 0.71626 0.0
H108 H 0.4993 0.53843 0.5157 0.0
H109 H 0.53656 0.49206 0.53458 0.0
H110 H 0.54928 0.52463 0.48209 0.0
C111 C 0.51198 0.5296 0.51343 0.0
C112 C 0.52395 0.53359 0.49745 0.0
C113 C 0.51649 0.51477 0.52693 0.0
C114 C 0.53264 0.50304 0.52378 0.0
C115 C 0.54456 0.50639 0.50751 0.0
C116 C 0.53996 0.52164 0.49438 0.0
H117 H 0.52112 0.46275 0.96939 0.0
H118 H 0.5513 0.51904 0.96065 0.0
H119 H 0.57043 0.48198 0.00846 0.0
C120 C 0.53268 0.47382 0.97374 0.0
C121 C 0.54558 0.47037 0.99006 0.0
C122 C 0.5344 0.49148 0.96321 0.0
C123 C 0.5494 0.50571 0.96917 0.0
C124 C 0.56263 0.50238 0.98537 0.0
C125 C 0.5604 0.48474 0.99591 0.0
H126 H 0.67356 0.23092 0.27571 0.0
H127 H 0.72963 0.20619 0.29186 0.0
H128 H 0.69888 0.18948 0.23732 0.0
C129 C 0.68547 0.22155 0.27226 0.0
C130 C 0.68418 0.21067 0.25459 0.0
C131 C 0.70183 0.22015 0.28578 0.0
C132 C 0.7167 0.20715 0.28179 0.0
C133 C 0.7155 0.19579 0.26457 0.0
C134 C 0.69944 0.19788 0.25086 0.0
H135 H 0.44057 0.01341 0.98553 0.0
H136 H 0.48763 0.03566 0.94977 0.0
H137 H 0.45703 0.98009 0.93578 0.0
C138 C 0.44987 0.01185 0.97313 0.0
C139 C 0.44667 0.99532 0.9608 0.0
C140 C 0.46481 0.02641 0.96947 0.0
C141 C 0.47666 0.02413 0.95325 0.0
C142 C 0.47416 0.00742 0.9411 0.0
C143 C 0.459 0.99314 0.94491 0.0
Mg144 Mg 0.23872 0.84107 0.00425 0.0
O145 O 0.26861 0.85715 0.99715 0.0
O146 O 0.29143 0.83437 0.99685 0.0
Mg147 Mg 0.27657 0.80431 0.00276 0.0
C148 C 0.28653 0.85218 0.99519 0.0
C149 C 0.22199 0.88251 0.00767 0.0
O150 O 0.23445 0.88258 0.02316 0.0
O151 O 0.2351 0.82898 0.97306 0.0
O152 O 0.2582 0.80643 0.97345 0.0
O153 O 0.2465 0.84475 0.03626 0.0
O154 O 0.25403 0.81912 0.01872 0.0
C155 C 0.24422 0.81557 0.96463 0.0
C156 C 0.25544 0.82844 0.03523 0.0
O157 O 0.22115 0.86787 0.99604 0.0
Mg158 Mg 0.15859 0.50755 0.26757 0.0
O159 O 0.13934 0.5055 0.2386 0.0
O160 O 0.16024 0.50687 0.21403 0.0
Mg161 Mg 0.19235 0.5097 0.2268 0.0
C162 C 0.14258 0.5055 0.22026 0.0
C163 C 0.12651 0.51183 0.29704 0.0
O164 O 0.13702 0.52863 0.29779 0.0
O165 O 0.16722 0.47585 0.26408 0.0
O166 O 0.1886 0.4787 0.23992 0.0
O167 O 0.15889 0.54029 0.26686 0.0
O168 O 0.18157 0.52299 0.25344 0.0
C169 C 0.1794 0.46843 0.25267 0.0
C170 C 0.17474 0.53991 0.25685 0.0
O171 O 0.13149 0.49855 0.28538 0.0
Mg172 Mg 0.77681 0.65503 0.02313 0.0
O173 O 0.74543 0.63942 0.02038 0.0
O174 O 0.72356 0.66278 0.0153 0.0
Mg175 Mg 0.74031 0.6927 0.01449 0.0
C176 C 0.72752 0.64477 0.01751 0.0
C177 C 0.79324 0.61452 0.0353 0.0
O178 O 0.7843 0.61898 0.05133 0.0
O179 O 0.77628 0.65966 0.98992 0.0
O180 O 0.75439 0.68323 0.9861 0.0
O181 O 0.77391 0.65988 0.05546 0.0
O182 O 0.76479 0.68076 0.03244 0.0
C183 C 0.76657 0.67154 0.97909 0.0
C184 C 0.76596 0.67623 0.05076 0.0
O185 O 0.79198 0.62593 0.02059 0.0
Mg186 Mg 0.90967 0.04005 0.23796 0.0
O187 O 0.88823 0.01264 0.23434 0.0
O188 O 0.90682 0.98686 0.22992 0.0
Mg189 Mg 0.93969 0.99733 0.23122 0.0
C190 C 0.88986 0.99428 0.23139 0.0
C191 C 0.8806 0.073 0.23728 0.0
O192 O 0.89215 0.07711 0.22265 0.0
O193 O 0.91868 0.03108 0.26938 0.0
O194 O 0.93751 0.00572 0.26376 0.0
O195 O 0.90859 0.04423 0.20555 0.0
O196 O 0.93071 0.02644 0.2214 0.0
C197 C 0.9298 0.01748 0.27553 0.0
C198 C 0.92321 0.03266 0.2049 0.0
O199 O 0.88409 0.05807 0.24785 0.0
Mg200 Mg 0.27666 0.15398 0.52 0.0
O201 O 0.24579 0.13717 0.51819 0.0
O202 O 0.22286 0.15977 0.51498 0.0
Mg203 Mg 0.23832 0.19027 0.51411 0.0
C204 C 0.22758 0.1419 0.51637 0.0
C205 C 0.29367 0.11357 0.53062 0.0
O206 O 0.28346 0.1169 0.54616 0.0
O207 O 0.27443 0.15931 0.48682 0.0
O208 O 0.25118 0.18175 0.48483 0.0
O209 O 0.275 0.15783 0.5526 0.0
O210 O 0.26403 0.17892 0.5306 0.0
C211 C 0.26348 0.17086 0.47684 0.0
C212 C 0.26615 0.1739 0.54875 0.0
O213 O 0.29293 0.12564 0.51642 0.0
Mg214 Mg 0.40584 0.53372 0.7411 0.0
O215 O 0.38608 0.5052 0.7384 0.0
O216 O 0.4058 0.48056 0.7328 0.0
Mg217 Mg 0.43811 0.49293 0.73313 0.0
C218 C 0.38854 0.48705 0.73512 0.0
C219 C 0.37516 0.56493 0.74123 0.0
O220 O 0.38631 0.56953 0.72643 0.0
O221 O 0.41661 0.52548 0.77227 0.0
O222 O 0.43642 0.50111 0.76578 0.0
O223 O 0.40312 0.53699 0.70853 0.0
O224 O 0.42729 0.52152 0.72409 0.0
C225 C 0.42861 0.51241 0.77793 0.0
C226 C 0.41866 0.52659 0.70771 0.0
O227 O 0.37946 0.55016 0.75172 0.0
Mg228 Mg 0.73454 0.35175 0.50443 0.0
O229 O 0.76545 0.36678 0.49956 0.0
O230 O 0.78754 0.34334 0.50241 0.0
Mg231 Mg 0.77144 0.31401 0.50929 0.0
C232 C 0.78335 0.36117 0.49931 0.0
C233 C 0.71879 0.39351 0.50465 0.0
O234 O 0.73067 0.39391 0.52058 0.0
O235 O 0.734 0.33813 0.47366 0.0
O236 O 0.75545 0.31441 0.47877 0.0
O237 O 0.73882 0.35643 0.53704 0.0
O238 O 0.7476 0.33016 0.52139 0.0
C239 C 0.74303 0.32336 0.46764 0.0
C240 C 0.74714 0.33973 0.5376 0.0
O241 O 0.71826 0.3785 0.49351 0.0
Mg242 Mg 0.65704 0.00635 0.77518 0.0
O243 O 0.63953 0.006 0.74533 0.0
O244 O 0.66141 0.00775 0.72166 0.0
Mg245 Mg 0.69287 0.00886 0.73628 0.0
C246 C 0.64348 0.00668 0.72719 0.0
C247 C 0.61406 0.00908 0.78893 0.0
O248 O 0.61581 0.02459 0.77759 0.0
O249 O 0.66479 0.97448 0.77105 0.0
O250 O 0.68728 0.97743 0.74788 0.0
O251 O 0.65856 0.03917 0.77544 0.0
O252 O 0.68138 0.02116 0.76309 0.0
C253 C 0.67716 0.96703 0.75985 0.0
C254 C 0.675 0.03828 0.76637 0.0
O255 O 0.62848 0.99769 0.79056 0.0
Mg256 Mg 0.03578 0.25255 0.90802 0.0
O257 O 0.00693 0.25056 0.88821 0.0
O258 O 0.9825 0.2384 0.90659 0.0
Mg259 Mg 0.99523 0.23316 0.93768 0.0
C260 C 0.98869 0.24492 0.89028 0.0
C261 C 0.06951 0.26368 0.88265 0.0
O262 O 0.07523 0.2491 0.89382 0.0
O263 O 0.02513 0.27991 0.92291 0.0
O264 O 0.00092 0.26662 0.9409 0.0
O265 O 0.04153 0.22178 0.9001 0.0
O266 O 0.02455 0.2299 0.9256 0.0
C267 C 0.01141 0.2815 0.93511 0.0
C268 C 0.0309 0.21635 0.91466 0.0
O269 O 0.05237 0.27024 0.88493 0.0
Mg270 Mg 0.54145 0.76085 0.408 0.0
O271 O 0.51182 0.75657 0.38962 0.0
O272 O 0.48891 0.74367 0.40939 0.0
Mg273 Mg 0.50289 0.74242 0.4405 0.0
C274 C 0.49416 0.7496 0.39254 0.0
C275 C 0.57233 0.77065 0.37854 0.0
O276 O 0.57913 0.75596 0.38892 0.0
O277 O 0.53049 0.78867 0.42138 0.0
O278 O 0.50715 0.77625 0.44086 0.0
O279 O 0.5479 0.72983 0.40191 0.0
O280 O 0.53187 0.73922 0.42761 0.0
C281 C 0.51705 0.79087 0.43372 0.0
C282 C 0.53802 0.72514 0.4172 0.0
O283 O 0.55586 0.77754 0.38292 0.0
Mg284 Mg 0.98065 0.74377 0.58795 0.0
O285 O 0.0101 0.73889 0.60576 0.0
O286 O 0.0329 0.73255 0.58404 0.0
Mg287 Mg 0.01869 0.73408 0.55299 0.0
C288 C 0.02783 0.73475 0.60171 0.0
C289 C 0.94918 0.74612 0.61736 0.0
O290 O 0.94282 0.73254 0.60451 0.0
O291 O 0.99234 0.77433 0.57925 0.0
O292 O 0.01491 0.76722 0.55756 0.0
O293 O 0.97311 0.71171 0.58873 0.0
O294 O 0.9896 0.72628 0.56505 0.0
C295 C 0.00546 0.77965 0.5671 0.0
C296 C 0.98261 0.71026 0.57277 0.0
O297 O 0.96595 0.75515 0.61501 0.0
Mg298 Mg 0.48284 0.24432 0.0881 0.0
O299 O 0.51059 0.23753 0.10765 0.0
O300 O 0.53373 0.22795 0.08755 0.0
Mg301 Mg 0.52145 0.22951 0.05572 0.0
C302 C 0.52793 0.23148 0.10473 0.0
C303 C 0.44955 0.25159 0.1139 0.0
O304 O 0.44243 0.24003 0.09948 0.0
O305 O 0.49817 0.27341 0.07942 0.0
O306 O 0.51998 0.26316 0.05833 0.0
O307 O 0.47146 0.2131 0.08904 0.0
O308 O 0.49139 0.22489 0.06658 0.0
C309 C 0.5117 0.27693 0.06715 0.0
C310 C 0.48187 0.20998 0.07398 0.0
O311 O 0.46775 0.25782 0.11385 0.0
C312 C 0.19845 0.74572 0.80122 0.0
C313 C 0.19732 0.72523 0.80357 0.0
C314 C 0.20145 0.75809 0.8176 0.0
C315 C 0.19614 0.76073 0.87073 0.0
H316 H 0.24191 0.79796 0.8713 0.0
C317 C 0.21828 0.812 0.93691 0.0
C318 C 0.23794 0.80964 0.9443 0.0
C319 C 0.21186 0.80441 0.91844 0.0
C320 C 0.22898 0.78776 0.87123 0.0
H321 H 0.19779 0.70155 0.82473 0.0
H322 H 0.20266 0.72321 0.85346 0.0
H323 H 0.23248 0.77895 0.84144 0.0
H324 H 0.26657 0.79843 0.93777 0.0
H325 H 0.25547 0.78561 0.90537 0.0
H326 H 0.19286 0.76929 0.90064 0.0
C327 C 0.20133 0.72967 0.83897 0.0
C328 C 0.22354 0.77698 0.85418 0.0
C329 C 0.19868 0.71731 0.82258 0.0
C330 C 0.2513 0.80037 0.93251 0.0
C331 C 0.245 0.79314 0.91393 0.0
C332 C 0.20137 0.77176 0.88768 0.0
C333 C 0.20299 0.75015 0.83661 0.0
C334 C 0.20734 0.76306 0.85392 0.0
C335 C 0.22513 0.79473 0.90691 0.0
C336 C 0.2181 0.78505 0.88821 0.0
H337 H 0.19757 0.75214 0.78668 0.0
H338 H 0.20265 0.77383 0.81544 0.0
H339 H 0.18353 0.75015 0.87084 0.0
H340 H 0.20764 0.81903 0.94571 0.0
H341 H 0.19648 0.80585 0.91328 0.0
C342 C 0.99619 0.4865 0.41788 0.0
C343 C 0.98921 0.50503 0.42237 0.0
C344 C 0.01011 0.48463 0.40337 0.0
C345 C 0.0507 0.51301 0.38248 0.0
H346 H 0.04559 0.47841 0.33707 0.0
C347 C 0.10198 0.52502 0.31917 0.0
C348 C 0.10956 0.50874 0.30997 0.0
C349 C 0.08689 0.52254 0.33238 0.0
C350 C 0.04738 0.48792 0.34985 0.0
H351 H 0.99016 0.53579 0.41406 0.0
H352 H 0.01474 0.53257 0.3893 0.0
H353 H 0.01947 0.47724 0.36117 0.0
H354 H 0.10682 0.47704 0.30698 0.0
H355 H 0.0805 0.47261 0.3306 0.0
H356 H 0.0785 0.52362 0.37164 0.0
C357 C 0.00964 0.51957 0.39713 0.0
C358 C 0.03242 0.48727 0.36356 0.0
C359 C 0.99565 0.52141 0.41138 0.0
C360 C 0.10128 0.48986 0.31388 0.0
C361 C 0.08618 0.48734 0.32735 0.0
C362 C 0.06566 0.51351 0.36901 0.0
C363 C 0.01733 0.50129 0.3933 0.0
C364 C 0.03377 0.50019 0.37971 0.0
C365 C 0.07909 0.50367 0.33701 0.0
C366 C 0.06395 0.50139 0.35221 0.0
H367 H 0.99156 0.47362 0.42611 0.0
H368 H 0.01587 0.47038 0.40064 0.0
H369 H 0.05226 0.52285 0.39504 0.0
H370 H 0.1078 0.53979 0.31625 0.0
H371 H 0.08138 0.5355 0.33907 0.0
C372 C 0.79526 0.73064 0.81294 0.0
C373 C 0.79683 0.75105 0.81609 0.0
C374 C 0.794 0.71776 0.82888 0.0
C375 C 0.77632 0.69808 0.86569 0.0
H376 H 0.81226 0.70608 0.91171 0.0
C377 C 0.75594 0.68063 0.94484 0.0
C378 C 0.77044 0.67312 0.95797 0.0
C379 C 0.76046 0.68507 0.92552 0.0
C380 C 0.80232 0.7034 0.89886 0.0
H381 H 0.79891 0.77403 0.83819 0.0
H382 H 0.79707 0.75156 0.86604 0.0
H383 H 0.8186 0.72444 0.88167 0.0
H384 H 0.80071 0.66341 0.96089 0.0
H385 H 0.80877 0.67165 0.92708 0.0
H386 H 0.75942 0.67782 0.88326 0.0
C387 C 0.79669 0.74552 0.8513 0.0
C388 C 0.80586 0.71401 0.88176 0.0
C389 C 0.79758 0.75836 0.8354 0.0
C390 C 0.78923 0.66915 0.95108 0.0
C391 C 0.79388 0.67393 0.9318 0.0
C392 C 0.7726 0.68766 0.88291 0.0
C393 C 0.79474 0.72512 0.84819 0.0
C394 C 0.79262 0.71181 0.86519 0.0
C395 C 0.77966 0.68237 0.919 0.0
C396 C 0.78532 0.69058 0.8998 0.0
H397 H 0.79461 0.7247 0.79814 0.0
H398 H 0.79249 0.70209 0.82614 0.0
H399 H 0.76585 0.69619 0.85312 0.0
H400 H 0.74129 0.68372 0.9497 0.0
H401 H 0.74927 0.69171 0.91603 0.0
C402 C 0.01066 0.01634 0.44098 0.0
C403 C 0.01717 0.99744 0.44514 0.0
C404 C 0.99821 0.01961 0.42431 0.0
C405 C 0.96481 0.9932 0.3865 0.0
H406 H 0.9756 0.03953 0.355 0.0
C407 C 0.94225 0.99806 0.30428 0.0
C408 C 0.93499 0.01569 0.29683 0.0
C409 C 0.94908 0.99673 0.32389 0.0
C410 C 0.97217 0.02669 0.36381 0.0
H411 H 0.01607 0.96728 0.43487 0.0
H412 H 0.99471 0.97296 0.4058 0.0
H413 H 0.99405 0.03564 0.38642 0.0
H414 H 0.9287 0.04561 0.3043 0.0
H415 H 0.94099 0.04333 0.33868 0.0
H416 H 0.94351 0.98391 0.36346 0.0
C417 C 0.99868 0.9852 0.41562 0.0
C418 C 0.98274 0.02444 0.38183 0.0
C419 C 0.011 0.98193 0.43229 0.0
C420 C 0.93416 0.03181 0.30962 0.0
C421 C 0.9413 0.03055 0.32924 0.0
C422 C 0.95438 0.99538 0.36844 0.0
C423 C 0.9921 0.00407 0.41139 0.0
C424 C 0.97949 0.00746 0.39321 0.0
C425 C 0.94905 0.01305 0.3365 0.0
C426 C 0.95824 0.01195 0.35672 0.0
H427 H 0.01503 0.02855 0.45071 0.0
H428 H 0.99327 0.03428 0.42164 0.0
H429 H 0.96156 0.98016 0.39508 0.0
H430 H 0.94301 0.98534 0.29485 0.0
H431 H 0.95513 0.98311 0.32899 0.0
C432 C 0.22266 0.2993 0.66544 0.0
C433 C 0.22115 0.29336 0.68506 0.0
C434 C 0.22627 0.2857 0.65086 0.0
C435 C 0.22551 0.23213 0.64003 0.0
H436 H 0.26108 0.24929 0.59953 0.0
C437 C 0.25896 0.17975 0.58407 0.0
C438 C 0.25882 0.18623 0.56447 0.0
C439 C 0.25324 0.19211 0.59901 0.0
C440 C 0.25098 0.24433 0.61065 0.0
H441 H 0.22215 0.26852 0.70483 0.0
H442 H 0.22889 0.24476 0.67944 0.0
H443 H 0.2534 0.27218 0.62518 0.0
H444 H 0.25228 0.21062 0.54516 0.0
H445 H 0.24239 0.23207 0.57115 0.0
H446 H 0.22355 0.20408 0.62553 0.0
C447 C 0.22686 0.25986 0.6752 0.0
C448 C 0.24651 0.25747 0.62533 0.0
C449 C 0.22305 0.27346 0.68977 0.0
C450 C 0.2525 0.20513 0.56008 0.0
C451 C 0.24697 0.2175 0.57499 0.0
C452 C 0.23016 0.21891 0.6254 0.0
C453 C 0.22869 0.26584 0.65558 0.0
C454 C 0.23358 0.25161 0.64013 0.0
C455 C 0.24752 0.21123 0.59463 0.0
C456 C 0.24281 0.22495 0.61047 0.0
H457 H 0.22098 0.31451 0.66136 0.0
H458 H 0.22712 0.29078 0.63585 0.0
H459 H 0.21534 0.22716 0.65106 0.0
H460 H 0.26376 0.16525 0.5879 0.0
H461 H 0.25389 0.18693 0.61404 0.0
C462 C 0.50143 0.52995 0.55569 0.0
C463 C 0.50532 0.51294 0.54517 0.0
C464 C 0.49052 0.52871 0.57255 0.0
C465 C 0.47424 0.49521 0.61167 0.0
H466 H 0.43739 0.53612 0.61982 0.0
C467 C 0.44514 0.51313 0.6877 0.0
C468 C 0.42607 0.52058 0.68866 0.0
C469 C 0.45292 0.50918 0.66953 0.0
C470 C 0.44732 0.52435 0.61772 0.0
H471 H 0.50122 0.48122 0.54433 0.0
H472 H 0.48187 0.47901 0.57397 0.0
H473 H 0.45424 0.53485 0.5892 0.0
H474 H 0.39973 0.52864 0.67144 0.0
H475 H 0.41306 0.52128 0.63977 0.0
H476 H 0.46711 0.48461 0.64022 0.0
C477 C 0.48739 0.49331 0.56912 0.0
C478 C 0.45724 0.52381 0.60022 0.0
C479 C 0.49843 0.49456 0.55217 0.0
C480 C 0.41458 0.52314 0.67115 0.0
C481 C 0.42227 0.519 0.65299 0.0
C482 C 0.4642 0.49568 0.6292 0.0
C483 C 0.48314 0.51043 0.57936 0.0
C484 C 0.47117 0.50954 0.59716 0.0
C485 C 0.44174 0.51244 0.65192 0.0
C486 C 0.45091 0.5105 0.63259 0.0
H487 H 0.50698 0.54429 0.55095 0.0
H488 H 0.48804 0.54214 0.58038 0.0
H489 H 0.4849 0.48404 0.60979 0.0
H490 H 0.45438 0.51105 0.70094 0.0
H491 H 0.46805 0.50438 0.6693 0.0
C492 C 0.801 0.24193 0.67664 0.0
C493 C 0.80585 0.25095 0.69489 0.0
C494 C 0.79561 0.25313 0.66033 0.0
C495 C 0.79668 0.30352 0.64015 0.0
H496 H 0.7535 0.28087 0.60603 0.0
C497 C 0.75789 0.34308 0.57336 0.0
C498 C 0.75574 0.3317 0.55608 0.0
C499 C 0.76483 0.33476 0.59105 0.0
C500 C 0.76562 0.28734 0.61539 0.0
H501 H 0.80946 0.27878 0.71037 0.0
H502 H 0.79962 0.29851 0.68177 0.0
H503 H 0.76392 0.26358 0.63568 0.0
H504 H 0.75951 0.30284 0.5437 0.0
H505 H 0.77144 0.28843 0.57442 0.0
H506 H 0.79805 0.32745 0.61968 0.0
C507 C 0.80022 0.28276 0.68005 0.0
C508 C 0.77167 0.27741 0.63233 0.0
C509 C 0.80581 0.2715 0.69641 0.0
C510 C 0.76105 0.31204 0.55671 0.0
C511 C 0.76776 0.30372 0.57433 0.0
C512 C 0.79047 0.31358 0.6232 0.0
C513 C 0.79472 0.27363 0.66191 0.0
C514 C 0.78756 0.28514 0.6447 0.0
C515 C 0.76943 0.31489 0.59171 0.0
C516 C 0.77516 0.30534 0.61049 0.0
H517 H 0.80131 0.22614 0.675 0.0
H518 H 0.79204 0.24566 0.64645 0.0
H519 H 0.80901 0.30983 0.64934 0.0
H520 H 0.75394 0.35828 0.57329 0.0
H521 H 0.76597 0.34364 0.60429 0.0
C522 C 0.51308 0.97198 0.59926 0.0
C523 C 0.50551 0.98779 0.58852 0.0
C524 C 0.52663 0.97532 0.61528 0.0
C525 C 0.54741 0.9865 0.65458 0.0
H526 H 0.59105 0.02531 0.64895 0.0
C527 C 0.60679 0.00433 0.71745 0.0
C528 C 0.62677 0.00608 0.71204 0.0
C529 C 0.59111 0.00339 0.70309 0.0
C530 C 0.57898 0.01438 0.65073 0.0
H531 H 0.50604 0.01954 0.58637 0.0
H532 H 0.52961 0.0254 0.61455 0.0
H533 H 0.56509 0.02103 0.62273 0.0
H534 H 0.64585 0.0084 0.68721 0.0
H535 H 0.61858 0.0066 0.66229 0.0
H536 H 0.56163 0.97944 0.68231 0.0
C537 C 0.52516 0.0104 0.61043 0.0
C538 C 0.56398 0.01208 0.6358 0.0
C539 C 0.51153 0.00706 0.59441 0.0
C540 C 0.63067 0.00708 0.69195 0.0
C541 C 0.61501 0.00618 0.67763 0.0
C542 C 0.56239 0.98883 0.66953 0.0
C543 C 0.53297 0.99456 0.62097 0.0
C544 C 0.54815 0.99794 0.63744 0.0
C545 C 0.59505 0.00425 0.68301 0.0
C546 C 0.57849 0.00263 0.66767 0.0
H547 H 0.50855 0.95697 0.59525 0.0
H548 H 0.5325 0.96278 0.62294 0.0
H549 H 0.5353 0.97563 0.65639 0.0
H550 H 0.60321 0.00359 0.73277 0.0
H551 H 0.57589 0.00211 0.70774 0.0
C552 C 0.85553 0.25303 0.76019 0.0
C553 C 0.85034 0.23399 0.75311 0.0
C554 C 0.87217 0.25645 0.77314 0.0
C555 C 0.91891 0.23511 0.79217 0.0
H556 H 0.91041 0.26519 0.83912 0.0
C557 C 0.95352 0.24305 0.87615 0.0
C558 C 0.97408 0.24596 0.87332 0.0
C559 C 0.93961 0.24375 0.86031 0.0
C560 C 0.91302 0.2568 0.82606 0.0
H561 H 0.85896 0.20377 0.75335 0.0
H562 H 0.88787 0.20968 0.7761 0.0
H563 H 0.88419 0.26228 0.81304 0.0
H564 H 0.99611 0.25198 0.85153 0.0
H565 H 0.97166 0.25305 0.82373 0.0
H566 H 0.94752 0.22913 0.80554 0.0
C567 C 0.87914 0.22199 0.7716 0.0
C568 C 0.89809 0.25529 0.81104 0.0
C569 C 0.86246 0.21855 0.75876 0.0
C570 C 0.98038 0.24968 0.85422 0.0
C571 C 0.96642 0.25022 0.8383 0.0
C572 C 0.93391 0.23672 0.80716 0.0
C573 C 0.88403 0.24092 0.77914 0.0
C574 C 0.90071 0.24412 0.7941 0.0
C575 C 0.94589 0.24727 0.84121 0.0
C576 C 0.93094 0.24725 0.82443 0.0
H577 H 0.84641 0.26519 0.75615 0.0
H578 H 0.87566 0.27122 0.7786 0.0
H579 H 0.92142 0.22656 0.77919 0.0
H580 H 0.94809 0.24018 0.89065 0.0
H581 H 0.92391 0.24115 0.86297 0.0
C582 C 0.49441 0.93128 0.53508 0.0
C583 C 0.48635 0.94859 0.52764 0.0
C584 C 0.49837 0.91595 0.5225 0.0
C585 C 0.51636 0.89179 0.49072 0.0
H586 H 0.47405 0.87039 0.45482 0.0
C587 C 0.52751 0.82646 0.43891 0.0
C588 C 0.51317 0.81085 0.44063 0.0
C589 C 0.52444 0.84488 0.44698 0.0
C590 C 0.48603 0.87632 0.46468 0.0
H591 H 0.47616 0.96319 0.50093 0.0
H592 H 0.48248 0.93597 0.47903 0.0
H593 H 0.46865 0.89978 0.47422 0.0
H594 H 0.48399 0.80259 0.45134 0.0
H595 H 0.47858 0.83478 0.46516 0.0
H596 H 0.53361 0.86817 0.48151 0.0
C597 C 0.48582 0.93449 0.49467 0.0
C598 C 0.48298 0.89316 0.47567 0.0
C599 C 0.48211 0.95 0.50724 0.0
C600 C 0.49538 0.81427 0.44987 0.0
C601 C 0.49221 0.83274 0.45766 0.0
C602 C 0.5195 0.87514 0.47954 0.0
C603 C 0.49411 0.91738 0.50219 0.0
C604 C 0.49798 0.90079 0.48909 0.0
C605 C 0.50685 0.84812 0.45661 0.0
C606 C 0.50423 0.86702 0.46671 0.0
H607 H 0.49743 0.92941 0.55071 0.0
H608 H 0.50444 0.90277 0.52872 0.0
H609 H 0.5282 0.89748 0.50087 0.0
H610 H 0.54137 0.82429 0.43188 0.0
H611 H 0.53592 0.85655 0.44589 0.0
C612 C 0.187 0.29585 0.75503 0.0
C613 C 0.18702 0.31386 0.74505 0.0
C614 C 0.17397 0.29206 0.77009 0.0
C615 C 0.12653 0.3048 0.78926 0.0
H616 H 0.14883 0.28485 0.83844 0.0
C617 C 0.07827 0.28837 0.85654 0.0
C618 C 0.08262 0.27139 0.86728 0.0
C619 C 0.09089 0.29525 0.84196 0.0
C620 C 0.14228 0.2902 0.82474 0.0
H621 H 0.17317 0.34184 0.7426 0.0
H622 H 0.15005 0.33503 0.76885 0.0
H623 H 0.17077 0.29312 0.81193 0.0
H624 H 0.10341 0.24815 0.87089 0.0
H625 H 0.12488 0.25969 0.84535 0.0
H626 H 0.09792 0.30124 0.8018 0.0
C627 C 0.16023 0.32395 0.76506 0.0
C628 C 0.15489 0.29499 0.8096 0.0
C629 C 0.1735 0.32788 0.75016 0.0
C630 C 0.0997 0.2614 0.86307 0.0
C631 C 0.11215 0.26813 0.84846 0.0
C632 C 0.11382 0.29975 0.80436 0.0
C633 C 0.16052 0.30609 0.7753 0.0
C634 C 0.14712 0.30209 0.79163 0.0
C635 C 0.10802 0.28519 0.83777 0.0
C636 C 0.12152 0.29209 0.8222 0.0
H637 H 0.19736 0.28486 0.75147 0.0
H638 H 0.17437 0.2781 0.77766 0.0
H639 H 0.12018 0.31019 0.77549 0.0
H640 H 0.06521 0.2964 0.85947 0.0
H641 H 0.08734 0.30853 0.83412 0.0
C642 C 0.51588 0.56896 0.49435 0.0
C643 C 0.52093 0.55144 0.48531 0.0
C644 C 0.5143 0.58617 0.48353 0.0
C645 C 0.53434 0.61106 0.44136 0.0
H646 H 0.49318 0.64753 0.45035 0.0
C647 C 0.53726 0.68933 0.40884 0.0
C648 C 0.53305 0.70437 0.42191 0.0
C649 C 0.53313 0.66964 0.4136 0.0
C650 C 0.50482 0.63754 0.44773 0.0
H651 H 0.52779 0.53831 0.45755 0.0
H652 H 0.52556 0.56875 0.43869 0.0
H653 H 0.49033 0.61442 0.46384 0.0
H654 H 0.52112 0.71059 0.45014 0.0
H655 H 0.51421 0.67635 0.45857 0.0
H656 H 0.54931 0.63439 0.42602 0.0
C657 C 0.52275 0.56895 0.45421 0.0
C658 C 0.50313 0.61857 0.45538 0.0
C659 C 0.5241 0.55157 0.46503 0.0
C660 C 0.52438 0.69936 0.43968 0.0
C661 C 0.52031 0.6797 0.44446 0.0
C662 C 0.5361 0.63009 0.4338 0.0
C663 C 0.51796 0.58643 0.46343 0.0
C664 C 0.51813 0.60532 0.4527 0.0
C665 C 0.52476 0.6646 0.43154 0.0
C666 C 0.52162 0.64371 0.43736 0.0
H667 H 0.51384 0.56962 0.51001 0.0
H668 H 0.511 0.59951 0.49112 0.0
H669 H 0.54622 0.60121 0.43923 0.0
H670 H 0.54384 0.69273 0.39497 0.0
H671 H 0.53653 0.65838 0.40323 0.0
C672 C 0.84065 0.79097 0.74962 0.0
C673 C 0.82814 0.7748 0.75476 0.0
C674 C 0.85454 0.78908 0.73516 0.0
C675 C 0.86321 0.76036 0.69155 0.0
H676 H 0.91912 0.77698 0.70016 0.0
C677 C 0.92106 0.7371 0.63861 0.0
C678 C 0.93673 0.75048 0.63398 0.0
C679 C 0.9085 0.74116 0.65362 0.0
C680 C 0.90351 0.77255 0.69739 0.0
H681 H 0.82025 0.74407 0.74885 0.0
H682 H 0.84432 0.74084 0.72338 0.0
H683 H 0.89571 0.78229 0.72588 0.0
H684 H 0.95177 0.77852 0.64171 0.0
H685 H 0.92937 0.78594 0.66778 0.0
H686 H 0.87065 0.75093 0.66307 0.0
C687 C 0.84345 0.75492 0.7306 0.0
C688 C 0.89014 0.77553 0.71215 0.0
C689 C 0.82979 0.75673 0.74523 0.0
C690 C 0.93982 0.76792 0.64497 0.0
C691 C 0.92703 0.77212 0.65994 0.0
C692 C 0.87645 0.7576 0.67676 0.0
C693 C 0.8559 0.77109 0.72538 0.0
C694 C 0.86995 0.76913 0.70946 0.0
C695 C 0.91105 0.75886 0.66427 0.0
C696 C 0.89685 0.76328 0.67961 0.0
H697 H 0.83975 0.80503 0.75686 0.0
H698 H 0.86393 0.80177 0.73134 0.0
H699 H 0.84763 0.75563 0.68897 0.0
H700 H 0.91845 0.72338 0.63063 0.0
H701 H 0.89677 0.73032 0.65688 0.0
C702 C 0.05269 0.94161 0.50477 0.0
C703 C 0.03727 0.95454 0.50149 0.0
C704 C 0.04918 0.92388 0.51461 0.0
C705 C 0.00764 0.88899 0.52773 0.0
H706 H 0.04959 0.86535 0.55936 0.0
C707 C 0.9955 0.81466 0.56756 0.0
C708 C 0.00956 0.80084 0.56334 0.0
C709 C 0.9988 0.83442 0.56251 0.0
C710 C 0.03774 0.87181 0.55058 0.0
H711 H 0.00633 0.95954 0.50658 0.0
H712 H 0.00029 0.92891 0.52433 0.0
H713 H 0.05537 0.89834 0.54624 0.0
H714 H 0.03847 0.79706 0.55127 0.0
H715 H 0.04431 0.83155 0.54278 0.0
H716 H 0.99002 0.86241 0.53224 0.0
C717 C 0.01496 0.93209 0.5188 0.0
C718 C 0.04106 0.89066 0.54295 0.0
C719 C 0.01842 0.94969 0.50872 0.0
C720 C 0.02729 0.80732 0.55462 0.0
C721 C 0.03071 0.82708 0.54987 0.0
C722 C 0.00424 0.87025 0.53559 0.0
C723 C 0.03021 0.91879 0.52164 0.0
C724 C 0.02618 0.89938 0.53111 0.0
C725 C 0.01637 0.84077 0.55347 0.0
C726 C 0.01937 0.86135 0.5468 0.0
H727 H 0.06732 0.94491 0.49915 0.0
H728 H 0.06121 0.91392 0.51616 0.0
H729 H 0.99591 0.895 0.51843 0.0
H730 H 0.98169 0.81013 0.57424 0.0
H731 H 0.98756 0.84472 0.56553 0.0
C732 C 0.16739 0.70485 0.719 0.0
C733 C 0.16321 0.70548 0.73901 0.0
C734 C 0.1524 0.70783 0.70448 0.0
C735 C 0.10343 0.72967 0.69643 0.0
H736 H 0.09975 0.69742 0.64934 0.0
C737 C 0.03805 0.73289 0.63771 0.0
C738 C 0.04303 0.73198 0.61791 0.0
C739 C 0.05239 0.72967 0.65283 0.0
C740 C 0.1007 0.70669 0.66231 0.0
H741 H 0.13988 0.70931 0.75942 0.0
H742 H 0.11375 0.71455 0.73408 0.0
H743 H 0.12539 0.69162 0.67495 0.0
H744 H 0.06719 0.72733 0.5986 0.0
H745 H 0.09208 0.722 0.62487 0.0
H746 H 0.07877 0.7448 0.68371 0.0
C747 C 0.12869 0.71205 0.72963 0.0
C748 C 0.1154 0.70336 0.67699 0.0
C749 C 0.14367 0.70904 0.74415 0.0
C750 C 0.06273 0.72803 0.61364 0.0
C751 C 0.07703 0.72484 0.62872 0.0
C752 C 0.08872 0.73301 0.68172 0.0
C753 C 0.13289 0.71152 0.70963 0.0
C754 C 0.11701 0.71487 0.69418 0.0
C755 C 0.07202 0.72547 0.6485 0.0
C756 C 0.08726 0.72164 0.66443 0.0
H757 H 0.18235 0.70243 0.71455 0.0
H758 H 0.1562 0.70761 0.68921 0.0
H759 H 0.10443 0.73895 0.7094 0.0
H760 H 0.02302 0.73586 0.64155 0.0
H761 H 0.04801 0.73011 0.66792 0.0
C762 C 0.96857 0.54534 0.49953 0.0
C763 C 0.97085 0.54586 0.47912 0.0
C764 C 0.97176 0.56243 0.51088 0.0
C765 C 0.99651 0.612 0.511 0.0
H766 H 0.9569 0.62429 0.54808 0.0
C767 C 0.99144 0.68941 0.54449 0.0
C768 C 0.98509 0.69087 0.56375 0.0
C769 C 0.99174 0.67107 0.53531 0.0
C770 C 0.96832 0.62096 0.53807 0.0
H771 H 0.978 0.56488 0.45462 0.0
H772 H 0.9838 0.59455 0.47445 0.0
H773 H 0.9535 0.59334 0.53007 0.0
H774 H 0.97507 0.67425 0.58889 0.0
H775 H 0.97608 0.64229 0.5731 0.0
H776 H 0.01133 0.63964 0.51895 0.0
C777 C 0.9798 0.58087 0.4817 0.0
C778 C 0.96632 0.60322 0.52772 0.0
C779 C 0.97648 0.56385 0.47035 0.0
C780 C 0.97985 0.67361 0.57395 0.0
C781 C 0.9803 0.65529 0.56485 0.0
C782 C 0.99859 0.62971 0.52146 0.0
C783 C 0.97741 0.58037 0.50207 0.0
C784 C 0.98026 0.59865 0.51391 0.0
C785 C 0.98582 0.65381 0.54527 0.0
C786 C 0.9844 0.6345 0.53498 0.0
H787 H 0.96453 0.53168 0.50679 0.0
H788 H 0.96999 0.56157 0.52658 0.0
H789 H 0.00764 0.60875 0.50063 0.0
H790 H 0.99549 0.70246 0.53624 0.0
H791 H 0.99587 0.67052 0.52016 0.0
C792 C 0.74894 0.87392 0.23176 0.0
C793 C 0.74072 0.86757 0.21331 0.0
C794 C 0.76307 0.88971 0.23322 0.0
C795 C 0.78711 0.92891 0.23291 0.0
H796 H 0.82885 0.92829 0.19553 0.0
C797 C 0.85252 0.98823 0.23159 0.0
C798 C 0.87158 0.9811 0.22924 0.0
C799 C 0.83537 0.97567 0.22924 0.0
C800 C 0.81733 0.92865 0.2061 0.0
H801 H 0.7401 0.8735 0.18202 0.0
H802 H 0.76478 0.90107 0.18456 0.0
H803 H 0.80061 0.90444 0.19231 0.0
H804 H 0.88747 0.95508 0.22272 0.0
H805 H 0.85772 0.93334 0.21875 0.0
H806 H 0.80425 0.95281 0.24703 0.0
C807 C 0.76054 0.89362 0.19787 0.0
C808 C 0.80101 0.91513 0.20412 0.0
C809 C 0.74641 0.87783 0.19642 0.0
C810 C 0.87307 0.96114 0.22459 0.0
C811 C 0.85598 0.94866 0.22217 0.0
C812 C 0.80344 0.94251 0.23485 0.0
C813 C 0.76932 0.89951 0.21626 0.0
C814 C 0.78583 0.91492 0.21763 0.0
C815 C 0.83693 0.95577 0.22438 0.0
C816 C 0.81888 0.94232 0.22164 0.0
H817 H 0.74507 0.86618 0.24503 0.0
H818 H 0.76972 0.89371 0.24758 0.0
H819 H 0.77556 0.92924 0.24345 0.0
H820 H 0.8508 0.00351 0.23517 0.0
H821 H 0.82088 0.9816 0.23093 0.0
C822 C 0.74052 0.18158 0.24306 0.0
C823 C 0.73123 0.18185 0.26108 0.0
C824 C 0.7562 0.16923 0.24035 0.0
C825 C 0.77915 0.12457 0.25908 0.0
H826 H 0.82719 0.14742 0.23706 0.0
C827 C 0.85211 0.08268 0.25732 0.0
C828 C 0.86342 0.08519 0.2406 0.0
C829 C 0.8358 0.09426 0.26007 0.0
C830 C 0.81381 0.14069 0.24298 0.0
H831 H 0.73051 0.16897 0.29014 0.0
H832 H 0.7578 0.14733 0.28538 0.0
H833 H 0.79856 0.16747 0.24054 0.0
H834 H 0.8663 0.10163 0.21352 0.0
H835 H 0.83777 0.12131 0.21803 0.0
H836 H 0.79424 0.09769 0.26127 0.0
C837 C 0.75304 0.15668 0.27337 0.0
C838 C 0.79741 0.15222 0.24498 0.0
C839 C 0.73753 0.16916 0.27614 0.0
C840 C 0.85803 0.09941 0.22667 0.0
C841 C 0.84169 0.11083 0.22932 0.0
C842 C 0.7955 0.11296 0.2569 0.0
C843 C 0.7627 0.15676 0.25554 0.0
C844 C 0.77991 0.1443 0.25305 0.0
C845 C 0.83039 0.10849 0.24608 0.0
C846 C 0.81305 0.12086 0.2488 0.0
H847 H 0.73603 0.19127 0.23124 0.0
H848 H 0.76328 0.16947 0.22639 0.0
H849 H 0.76578 0.11804 0.26521 0.0
H850 H 0.85591 0.07186 0.26833 0.0
H851 H 0.8276 0.09221 0.27327 0.0
C852 C 0.41774 0.97298 0.94872 0.0
C853 C 0.43025 0.98051 0.96441 0.0
C854 C 0.40185 0.95955 0.95217 0.0
C855 C 0.38393 0.92359 0.98851 0.0
H856 H 0.33272 0.92816 0.96031 0.0
C857 C 0.32216 0.86209 0.98919 0.0
C858 C 0.30239 0.86743 0.99123 0.0
C859 C 0.33734 0.8763 0.98599 0.0
C860 C 0.34688 0.92679 0.96841 0.0
H861 H 0.4361 0.97959 0.99599 0.0
H862 H 0.40824 0.95635 0.00204 0.0
H863 H 0.36006 0.95229 0.95481 0.0
H864 H 0.28311 0.89204 0.99129 0.0
H865 H 0.30976 0.91694 0.98576 0.0
H866 H 0.37074 0.89826 0.00228 0.0
C867 C 0.41077 0.96074 0.98705 0.0
C868 C 0.3626 0.94047 0.9651 0.0
C869 C 0.42662 0.97419 0.9836 0.0
C870 C 0.29815 0.88739 0.98976 0.0
C871 C 0.3134 0.90165 0.98652 0.0
C872 C 0.36825 0.90991 0.99178 0.0
C873 C 0.39816 0.95331 0.97138 0.0
C874 C 0.38133 0.93897 0.97506 0.0
C875 C 0.33319 0.89625 0.98474 0.0
C876 C 0.34958 0.91127 0.98169 0.0
H877 H 0.42003 0.9777 0.93378 0.0
H878 H 0.39256 0.95392 0.93976 0.0
H879 H 0.3982 0.92192 0.9963 0.0
H880 H 0.32601 0.84687 0.99013 0.0
H881 H 0.35235 0.87161 0.98435 0.0
C882 C 0.26394 0.31839 0.29322 0.0
C883 C 0.27164 0.30994 0.27652 0.0
C884 C 0.25104 0.33381 0.29133 0.0
C885 C 0.21871 0.35947 0.25449 0.0
H886 H 0.2249 0.40212 0.29238 0.0
C887 C 0.19324 0.43782 0.23993 0.0
C888 C 0.18445 0.44768 0.25516 0.0
C889 C 0.20052 0.41919 0.243 0.0
C890 C 0.22277 0.39017 0.28186 0.0
H891 H 0.27148 0.31102 0.24467 0.0
H892 H 0.24987 0.33845 0.24143 0.0
H893 H 0.24482 0.37346 0.29691 0.0
H894 H 0.17565 0.4454 0.28533 0.0
H895 H 0.18873 0.41288 0.29078 0.0
H896 H 0.1973 0.37677 0.239 0.0
C897 C 0.25339 0.33288 0.25601 0.0
C898 C 0.23417 0.3737 0.28445 0.0
C899 C 0.26611 0.31734 0.25789 0.0
C900 C 0.18231 0.43816 0.2733 0.0
C901 C 0.1899 0.41962 0.27646 0.0
C902 C 0.20749 0.37605 0.25179 0.0
C903 C 0.24565 0.34133 0.2727 0.0
C904 C 0.2325 0.35824 0.27065 0.0
C905 C 0.1994 0.41014 0.26145 0.0
C906 C 0.2096 0.39166 0.26532 0.0
H907 H 0.26803 0.31324 0.30783 0.0
H908 H 0.24522 0.33976 0.30451 0.0
H909 H 0.21667 0.34768 0.2438 0.0
H910 H 0.19502 0.44472 0.22576 0.0
H911 H 0.2079 0.41229 0.2312 0.0
C912 C 0.0769 0.03629 0.48786 0.0
C913 C 0.07867 0.01584 0.48758 0.0
C914 C 0.09357 0.0489 0.49241 0.0
C915 C 0.12851 0.07108 0.51393 0.0
H916 H 0.17857 0.06318 0.48961 0.0
C917 C 0.19123 0.1315 0.51313 0.0
C918 C 0.21125 0.12632 0.51524 0.0
C919 C 0.17572 0.1171 0.51127 0.0
C920 C 0.16481 0.06542 0.49678 0.0
H921 H 0.09938 0.99261 0.49156 0.0
H922 H 0.12852 0.01469 0.49959 0.0
H923 H 0.15017 0.03978 0.48329 0.0
H924 H 0.23056 0.10175 0.51733 0.0
H925 H 0.20333 0.0765 0.51426 0.0
H926 H 0.14301 0.09671 0.52736 0.0
C927 C 0.11423 0.02093 0.49626 0.0
C928 C 0.14852 0.05203 0.49312 0.0
C929 C 0.09751 0.0083 0.49184 0.0
C930 C 0.21533 0.10628 0.51569 0.0
C931 C 0.19973 0.09181 0.51383 0.0
C932 C 0.14478 0.08439 0.51765 0.0
C933 C 0.11242 0.04138 0.49667 0.0
C934 C 0.1301 0.05489 0.50142 0.0
C935 C 0.17974 0.09707 0.51152 0.0
C936 C 0.16303 0.08192 0.50887 0.0
H937 H 0.06256 0.04254 0.48479 0.0
H938 H 0.09174 0.0646 0.49237 0.0
H939 H 0.11464 0.07347 0.52085 0.0
H940 H 0.18746 0.14676 0.51265 0.0
H941 H 0.16056 0.12171 0.50918 0.0
C942 C 0.79552 0.17391 0.73794 0.0
C943 C 0.78804 0.19268 0.73571 0.0
C944 C 0.7825 0.15753 0.7404 0.0
C945 C 0.73331 0.14227 0.75723 0.0
H946 H 0.73821 0.09638 0.72447 0.0
C947 C 0.67818 0.0747 0.76128 0.0
C948 C 0.68637 0.0562 0.76029 0.0
C949 C 0.68963 0.09172 0.75689 0.0
C950 C 0.73677 0.10896 0.73392 0.0
H951 H 0.76126 0.2092 0.73481 0.0
H952 H 0.7385 0.18053 0.73946 0.0
H953 H 0.76059 0.12526 0.72049 0.0
H954 H 0.71287 0.04098 0.75375 0.0
H955 H 0.73294 0.07051 0.74666 0.0
H956 H 0.70997 0.12588 0.77116 0.0
C957 C 0.75439 0.1785 0.73915 0.0
C958 C 0.74957 0.12551 0.73158 0.0
C959 C 0.76737 0.19484 0.7364 0.0
C960 C 0.70606 0.05501 0.75448 0.0
C961 C 0.71756 0.07199 0.75031 0.0
C962 C 0.72066 0.12562 0.75977 0.0
C963 C 0.76182 0.15967 0.74097 0.0
C964 C 0.74802 0.14227 0.74328 0.0
C965 C 0.70958 0.0906 0.75162 0.0
C966 C 0.72231 0.1087 0.74822 0.0
H967 H 0.81138 0.17186 0.73734 0.0
H968 H 0.78861 0.14317 0.74193 0.0
H969 H 0.73191 0.15498 0.76654 0.0
H970 H 0.663 0.07607 0.76564 0.0
H971 H 0.68286 0.10576 0.75771 0.0
C972 C 0.42506 0.99375 0.54116 0.0
C973 C 0.44338 0.0028 0.54815 0.0
C974 C 0.40807 0.00467 0.53839 0.0
C975 C 0.38617 0.04948 0.55529 0.0
H976 H 0.35166 0.04405 0.50798 0.0
C977 C 0.31129 0.08673 0.54818 0.0
C978 C 0.30806 0.09777 0.53099 0.0
C979 C 0.32664 0.07363 0.54959 0.0
C980 C 0.36118 0.0457 0.52125 0.0
H981 H 0.45818 0.03064 0.55724 0.0
H982 H 0.42844 0.04955 0.5528 0.0
H983 H 0.38132 0.02459 0.51171 0.0
H984 H 0.31774 0.10288 0.50142 0.0
H985 H 0.34449 0.07985 0.50388 0.0
H986 H 0.36622 0.07064 0.56481 0.0
C987 C 0.42724 0.03395 0.5496 0.0
C988 C 0.37805 0.03449 0.52345 0.0
C989 C 0.44427 0.02308 0.5522 0.0
C990 C 0.31987 0.09465 0.51488 0.0
C991 C 0.33515 0.08141 0.51626 0.0
C992 C 0.36923 0.0605 0.55319 0.0
C993 C 0.40895 0.02486 0.54272 0.0
C994 C 0.3908 0.03638 0.54044 0.0
C995 C 0.33901 0.07114 0.53381 0.0
C996 C 0.35658 0.05881 0.53613 0.0
H997 H 0.42372 0.97811 0.53819 0.0
H998 H 0.39412 0.99723 0.53327 0.0
H999 H 0.39561 0.05111 0.56862 0.0
H1000 H 0.30242 0.08867 0.56083 0.0
H1001 H 0.32906 0.06569 0.56319 0.0
C1002 C 0.58032 0.50417 0.49849 0.0
C1003 C 0.56261 0.49493 0.50504 0.0
C1004 C 0.59745 0.49362 0.49672 0.0
C1005 C 0.62232 0.45164 0.51719 0.0
H1006 H 0.65393 0.45499 0.47096 0.0
C1007 C 0.70064 0.42176 0.51708 0.0
C1008 C 0.7035 0.40831 0.50193 0.0
C1009 C 0.68418 0.4335 0.51618 0.0
C1010 C 0.64522 0.45395 0.48394 0.0
H1011 H 0.54907 0.46715 0.51453 0.0
H1012 H 0.57925 0.44891 0.51202 0.0
H1013 H 0.62288 0.47244 0.47169 0.0
H1014 H 0.69206 0.39764 0.47332 0.0
H1015 H 0.66343 0.41851 0.47163 0.0
H1016 H 0.64465 0.43335 0.52954 0.0
C1017 C 0.57973 0.46435 0.50821 0.0
C1018 C 0.62755 0.46396 0.48439 0.0
C1019 C 0.56249 0.47483 0.50972 0.0
C1020 C 0.69024 0.4078 0.48526 0.0
C1021 C 0.67387 0.41975 0.48427 0.0
C1022 C 0.6401 0.44191 0.51686 0.0
C1023 C 0.59738 0.47367 0.50176 0.0
C1024 C 0.61592 0.46284 0.50101 0.0
C1025 C 0.67037 0.43226 0.50001 0.0
C1026 C 0.65172 0.44296 0.50024 0.0
H1027 H 0.58118 0.51971 0.49519 0.0
H1028 H 0.61095 0.50122 0.49198 0.0
H1029 H 0.61372 0.45067 0.53024 0.0
H1030 H 0.71059 0.4226 0.5301 0.0
H1031 H 0.68197 0.44324 0.52838 0.0
C1032 C 0.71204 0.22495 0.32151 0.0
C1033 C 0.70377 0.23251 0.30389 0.0
C1034 C 0.71565 0.23698 0.338 0.0
C1035 C 0.70141 0.28031 0.36331 0.0
H1036 H 0.75553 0.28115 0.38623 0.0
C1037 C 0.72638 0.32546 0.43371 0.0
C1038 C 0.73874 0.31572 0.4474 0.0
C1039 C 0.72217 0.31759 0.41483 0.0
C1040 C 0.7403 0.28098 0.38014 0.0
H1041 H 0.69212 0.25858 0.29015 0.0
H1042 H 0.69784 0.27941 0.3194 0.0
H1043 H 0.74706 0.26243 0.35625 0.0
H1044 H 0.75624 0.29001 0.45193 0.0
H1045 H 0.74859 0.27626 0.4196 0.0
H1046 H 0.6944 0.29815 0.38772 0.0
C1047 C 0.70168 0.26417 0.32018 0.0
C1048 C 0.73551 0.27032 0.36294 0.0
C1049 C 0.69833 0.2522 0.30351 0.0
C1050 C 0.7468 0.29805 0.44178 0.0
C1051 C 0.74252 0.29019 0.4231 0.0
C1052 C 0.70614 0.29081 0.38076 0.0
C1053 C 0.71078 0.25674 0.3374 0.0
C1054 C 0.71595 0.26956 0.3546 0.0
C1055 C 0.73021 0.29984 0.40934 0.0
C1056 C 0.72555 0.29086 0.38962 0.0
H1057 H 0.71592 0.20975 0.32254 0.0
H1058 H 0.72238 0.23084 0.35126 0.0
H1059 H 0.68622 0.27992 0.35709 0.0
H1060 H 0.71994 0.33911 0.43756 0.0
H1061 H 0.71273 0.32545 0.40454 0.0
C1062 C 0.47999 0.99742 0.90624 0.0
C1063 C 0.48749 0.00509 0.92449 0.0
C1064 C 0.49249 0.99626 0.89045 0.0
C1065 C 0.5375 0.02001 0.87152 0.0
H1066 H 0.54055 0.97328 0.83945 0.0
C1067 C 0.58275 0.02098 0.80223 0.0
C1068 C 0.59669 0.00633 0.80141 0.0
C1069 C 0.5677 0.01965 0.81569 0.0
C1070 C 0.53978 0.98642 0.84828 0.0
H1071 H 0.51429 0.01655 0.94067 0.0
H1072 H 0.53583 0.01499 0.91303 0.0
H1073 H 0.51784 0.97302 0.86666 0.0
H1074 H 0.60504 0.97823 0.8133 0.0
H1075 H 0.57857 0.97588 0.83675 0.0
H1076 H 0.55943 0.03342 0.85337 0.0
C1077 C 0.52025 0.01009 0.9109 0.0
C1078 C 0.52675 0.98631 0.86374 0.0
C1079 C 0.50787 0.01106 0.9267 0.0
C1080 C 0.59459 0.98981 0.81363 0.0
C1081 C 0.57939 0.9884 0.82699 0.0
C1082 C 0.55028 0.02021 0.85597 0.0
C1083 C 0.51265 0.00291 0.89257 0.0
C1084 C 0.52569 0.00304 0.87563 0.0
C1085 C 0.56612 0.00357 0.82848 0.0
C1086 C 0.55169 0.00339 0.84429 0.0
H1087 H 0.46435 0.99285 0.90396 0.0
H1088 H 0.48625 0.99074 0.87642 0.0
H1089 H 0.53684 0.03316 0.88036 0.0
H1090 H 0.58385 0.03385 0.79296 0.0
H1091 H 0.55751 0.03143 0.81636 0.0
C1092 C 0.30682 0.24034 0.32088 0.0
C1093 C 0.29073 0.2473 0.30934 0.0
C1094 C 0.30335 0.22782 0.33676 0.0
C1095 C 0.26534 0.21775 0.37219 0.0
H1096 H 0.29642 0.17344 0.38778 0.0
C1097 C 0.24908 0.17755 0.44332 0.0
C1098 C 0.26564 0.17286 0.45547 0.0
C1099 C 0.25143 0.18265 0.42372 0.0
C1100 C 0.2877 0.18586 0.3837 0.0
H1101 H 0.25849 0.24535 0.30448 0.0
H1102 H 0.25246 0.22374 0.3323 0.0
H1103 H 0.30219 0.18987 0.35645 0.0
H1104 H 0.29746 0.16876 0.45648 0.0
H1105 H 0.3018 0.17847 0.42235 0.0
H1106 H 0.25145 0.21457 0.39953 0.0
C1107 C 0.26773 0.22821 0.32926 0.0
C1108 C 0.29098 0.19521 0.36574 0.0
C1109 C 0.27118 0.24063 0.31337 0.0
C1110 C 0.28444 0.17227 0.44737 0.0
C1111 C 0.28688 0.17778 0.42779 0.0
C1112 C 0.26222 0.20859 0.39014 0.0
C1113 C 0.28374 0.22208 0.34142 0.0
C1114 C 0.27983 0.21128 0.35985 0.0
C1115 C 0.27048 0.18367 0.41591 0.0
C1116 C 0.27335 0.19253 0.39619 0.0
H1117 H 0.32205 0.24529 0.31823 0.0
H1118 H 0.31597 0.22345 0.34597 0.0
H1119 H 0.25682 0.23037 0.36828 0.0
H1120 H 0.23435 0.17781 0.44914 0.0
H1121 H 0.23834 0.18644 0.41487 0.0
C1122 C 0.5125 0.51289 0.94229 0.0
C1123 C 0.52097 0.49467 0.94562 0.0
C1124 C 0.49976 0.51572 0.92574 0.0
C1125 C 0.46852 0.48808 0.88736 0.0
H1126 H 0.47449 0.5361 0.85727 0.0
C1127 C 0.44333 0.49348 0.80595 0.0
C1128 C 0.4346 0.51063 0.79906 0.0
C1129 C 0.45081 0.49222 0.82536 0.0
C1130 C 0.47239 0.52275 0.8657 0.0
H1131 H 0.5231 0.46531 0.9339 0.0
H1132 H 0.50112 0.47023 0.90507 0.0
H1133 H 0.4939 0.53275 0.88825 0.0
H1134 H 0.42637 0.53975 0.80734 0.0
H1135 H 0.4397 0.53758 0.84139 0.0
H1136 H 0.44752 0.47784 0.86447 0.0
C1137 C 0.50386 0.48222 0.91545 0.0
C1138 C 0.48352 0.52081 0.88346 0.0
C1139 C 0.51652 0.4794 0.93198 0.0
C1140 C 0.43298 0.52632 0.81222 0.0
C1141 C 0.44071 0.52514 0.83165 0.0
C1142 C 0.45749 0.48998 0.8696 0.0
C1143 C 0.49525 0.50038 0.91214 0.0
C1144 C 0.48204 0.50328 0.89428 0.0
C1145 C 0.44991 0.50813 0.83834 0.0
C1146 C 0.45961 0.50716 0.85836 0.0
H1147 H 0.51549 0.52489 0.95264 0.0
H1148 H 0.49325 0.52983 0.92373 0.0
H1149 H 0.46665 0.47456 0.89555 0.0
H1150 H 0.44475 0.48108 0.79624 0.0
H1151 H 0.45798 0.47899 0.82999 0.0
C1152 C 0.72443 0.80801 0.16138 0.0
C1153 C 0.7221 0.8027 0.18107 0.0
C1154 C 0.72819 0.79384 0.14738 0.0
C1155 C 0.72571 0.73991 0.13842 0.0
H1156 H 0.76271 0.75408 0.09818 0.0
C1157 C 0.75811 0.68383 0.08556 0.0
C1158 C 0.75873 0.6895 0.06575 0.0
C1159 C 0.7526 0.69708 0.09981 0.0
C1160 C 0.75221 0.74996 0.10923 0.0
H1161 H 0.72208 0.77846 0.20163 0.0
H1162 H 0.72903 0.75376 0.17731 0.0
H1163 H 0.75537 0.77833 0.12271 0.0
H1164 H 0.75376 0.71338 0.04533 0.0
H1165 H 0.7442 0.73636 0.07012 0.0
H1166 H 0.72295 0.71134 0.125 0.0
C1167 C 0.72749 0.76877 0.17253 0.0
C1168 C 0.74794 0.76387 0.12326 0.0
C1169 C 0.72356 0.78293 0.18649 0.0
C1170 C 0.75337 0.7085 0.06044 0.0
C1171 C 0.74804 0.72175 0.07466 0.0
C1172 C 0.73014 0.72592 0.12445 0.0
C1173 C 0.72992 0.77405 0.1528 0.0
C1174 C 0.73454 0.75908 0.13798 0.0
C1175 C 0.74784 0.71628 0.09451 0.0
C1176 C 0.74332 0.73086 0.10963 0.0
H1177 H 0.72314 0.82311 0.15676 0.0
H1178 H 0.72959 0.7984 0.13226 0.0
H1179 H 0.71513 0.73576 0.14937 0.0
H1180 H 0.76217 0.66929 0.0901 0.0
H1181 H 0.75266 0.69251 0.11504 0.0
C1182 C 0.00506 0.99168 0.05292 0.0
C1183 C 0.00859 0.00929 0.04254 0.0
C1184 C 0.99419 0.99146 0.06995 0.0
C1185 C 0.956 0.01573 0.09486 0.0
H1186 H 0.98364 0.00283 0.14411 0.0
C1187 C 0.92681 0.03824 0.16905 0.0
C1188 C 0.93086 0.02692 0.18584 0.0
C1189 C 0.93484 0.03373 0.15117 0.0
C1190 C 0.97544 0.00605 0.13052 0.0
H1191 H 0.00339 0.04055 0.04236 0.0
H1192 H 0.98361 0.03978 0.07132 0.0
H1193 H 0.9999 0.99858 0.11326 0.0
H1194 H 0.94595 0.00151 0.19683 0.0
H1195 H 0.95919 0.99302 0.1655 0.0
H1196 H 0.93139 0.02286 0.11178 0.0
C1197 C 0.98937 0.02622 0.0662 0.0
C1198 C 0.98485 0.00368 0.11286 0.0
C1199 C 0.0006 0.02656 0.04949 0.0
C1200 C 0.94266 0.01063 0.18424 0.0
C1201 C 0.95039 0.00585 0.16623 0.0
C1202 C 0.9464 0.01769 0.11245 0.0
C1203 C 0.98625 0.00874 0.07666 0.0
C1204 C 0.97537 0.00892 0.09497 0.0
C1205 C 0.94682 0.0175 0.14949 0.0
C1206 C 0.95618 0.01337 0.13059 0.0
H1207 H 0.01065 0.97802 0.04792 0.0
H1208 H 0.99188 0.9778 0.07783 0.0
H1209 H 0.94838 0.01971 0.08116 0.0
H1210 H 0.9179 0.051 0.16984 0.0
H1211 H 0.93206 0.04337 0.13883 0.0
C1212 C 0.3255 0.76351 0.18976 0.0
C1213 C 0.32437 0.74292 0.18834 0.0
C1214 C 0.32234 0.77498 0.17302 0.0
C1215 C 0.31992 0.77414 0.11875 0.0
H1216 H 0.27905 0.81182 0.12354 0.0
C1217 C 0.27396 0.80183 0.05199 0.0
C1218 C 0.26737 0.82104 0.05217 0.0
C1219 C 0.28423 0.79436 0.06841 0.0
C1220 C 0.29079 0.8017 0.12197 0.0
H1221 H 0.32021 0.71818 0.16829 0.0
H1222 H 0.31471 0.73822 0.13902 0.0
H1223 H 0.29191 0.79517 0.1527 0.0
H1224 H 0.267 0.84778 0.0694 0.0
H1225 H 0.28531 0.83488 0.09798 0.0
H1226 H 0.31864 0.78046 0.08797 0.0
C1227 C 0.31803 0.7455 0.15303 0.0
C1228 C 0.29814 0.79213 0.1387 0.0
C1229 C 0.32099 0.73403 0.16978 0.0
C1230 C 0.27175 0.83285 0.06889 0.0
C1231 C 0.28218 0.82543 0.08529 0.0
C1232 C 0.3127 0.78384 0.10201 0.0
C1233 C 0.31821 0.76607 0.15455 0.0
C1234 C 0.31244 0.77794 0.13719 0.0
C1235 C 0.28828 0.80599 0.08535 0.0
C1236 C 0.2977 0.7974 0.10335 0.0
H1237 H 0.32798 0.77071 0.20392 0.0
H1238 H 0.32269 0.79082 0.17457 0.0
H1239 H 0.33113 0.76342 0.11722 0.0
H1240 H 0.27068 0.79232 0.03937 0.0
H1241 H 0.28837 0.77922 0.06804 0.0
C1242 C 0.00775 0.5014 0.09049 0.0
C1243 C 0.00155 0.4821 0.08489 0.0
C1244 C 0.02174 0.50487 0.10617 0.0
C1245 C 0.0609 0.5071 0.13068 0.0
H1246 H 0.0601 0.47491 0.17759 0.0
C1247 C 0.12878 0.50439 0.18539 0.0
C1248 C 0.12544 0.50382 0.20562 0.0
C1249 C 0.1128 0.50269 0.17147 0.0
C1250 C 0.06042 0.48416 0.16468 0.0
H1251 H 0.00477 0.45133 0.09175 0.0
H1252 H 0.02946 0.45736 0.11881 0.0
H1253 H 0.03332 0.47037 0.15215 0.0
H1254 H 0.10253 0.50107 0.22701 0.0
H1255 H 0.07459 0.49818 0.20262 0.0
H1256 H 0.08792 0.52096 0.14321 0.0
C1257 C 0.02339 0.46983 0.11121 0.0
C1258 C 0.0452 0.48142 0.15001 0.0
C1259 C 0.00943 0.46637 0.09552 0.0
C1260 C 0.10567 0.50155 0.21156 0.0
C1261 C 0.08965 0.49979 0.19759 0.0
C1262 C 0.07612 0.50982 0.14532 0.0
C1263 C 0.02982 0.48912 0.11664 0.0
C1264 C 0.04537 0.49272 0.13274 0.0
C1265 C 0.09305 0.50036 0.17738 0.0
C1266 C 0.07619 0.49824 0.1624 0.0
H1267 H 0.00206 0.51384 0.08253 0.0
H1268 H 0.02623 0.51991 0.1101 0.0
H1269 H 0.0616 0.51594 0.11751 0.0
H1270 H 0.14378 0.50607 0.18021 0.0
H1271 H 0.11598 0.50287 0.15603 0.0
C1272 C 0.36518 0.74629 0.25785 0.0
C1273 C 0.35645 0.72732 0.25433 0.0
C1274 C 0.38093 0.7494 0.2719 0.0
C1275 C 0.41866 0.72226 0.30187 0.0
H1276 H 0.42356 0.7705 0.33239 0.0
C1277 C 0.46402 0.73295 0.37577 0.0
C1278 C 0.47932 0.74783 0.37583 0.0
C1279 C 0.44998 0.73101 0.36 0.0
C1280 C 0.42239 0.75706 0.32381 0.0
H1281 H 0.35767 0.69673 0.26303 0.0
H1282 H 0.38395 0.70234 0.2883 0.0
H1283 H 0.39663 0.7659 0.3071 0.0
H1284 H 0.49182 0.77249 0.3596 0.0
H1285 H 0.46662 0.76947 0.33219 0.0
H1286 H 0.44385 0.71313 0.31952 0.0
C1287 C 0.37916 0.71479 0.27977 0.0
C1288 C 0.40706 0.75441 0.30925 0.0
C1289 C 0.36371 0.71162 0.26547 0.0
C1290 C 0.48021 0.76086 0.35988 0.0
C1291 C 0.46583 0.7592 0.34429 0.0
C1292 C 0.43368 0.72476 0.3167 0.0
C1293 C 0.38815 0.73368 0.28307 0.0
C1294 C 0.40489 0.7369 0.29815 0.0
C1295 C 0.45072 0.74418 0.34422 0.0
C1296 C 0.43559 0.74212 0.32782 0.0
H1297 H 0.35983 0.75882 0.24982 0.0
H1298 H 0.38756 0.76413 0.2738 0.0
H1299 H 0.41788 0.70881 0.29334 0.0
H1300 H 0.46305 0.72263 0.38781 0.0
H1301 H 0.43838 0.71937 0.36021 0.0
C1302 C 0.99811 0.44009 0.01748 0.0
C1303 C 0.97925 0.44285 0.02488 0.0
C1304 C 0.0012 0.42368 0.00588 0.0
C1305 C 0.98219 0.37308 0.99805 0.0
H1306 H 0.01142 0.37537 0.9503 0.0
C1307 C 0.98904 0.30397 0.95146 0.0
C1308 C 0.00738 0.30106 0.94306 0.0
C1309 C 0.98535 0.32197 0.95995 0.0
C1310 C 0.00344 0.37445 0.96373 0.0
H1311 H 0.94877 0.43083 0.02564 0.0
H1312 H 0.95417 0.4021 0.00544 0.0
H1313 H 0.00543 0.40573 0.96775 0.0
H1314 H 0.03609 0.31495 0.9366 0.0
H1315 H 0.0299 0.34632 0.95201 0.0
H1316 H 0.98062 0.34193 0.99458 0.0
C1317 C 0.96656 0.41263 0.00863 0.0
C1318 C -5e-05 0.39185 0.97366 0.0
C1319 C 0.96342 0.42913 0.02005 0.0
C1320 C 0.0218 0.31676 0.94293 0.0
C1321 C 0.01819 0.33476 0.95169 0.0
C1322 C 0.98584 0.35573 0.98829 0.0
C1323 C 0.98553 0.40961 0.00165 0.0
C1324 C 0.98918 0.39132 0.99086 0.0
C1325 C -0.0 0.33749 0.96054 0.0
C1326 C 0.9964 0.35615 0.97092 0.0
H1327 H 0.01054 0.45052 0.02085 0.0
H1328 H 0.016 0.42167 0.00077 0.0
H1329 H 0.9742 0.3722 0.01149 0.0
H1330 H 0.97747 0.29229 0.95153 0.0
H1331 H 0.97096 0.32365 0.96611 0.0
C1332 C 0.67248 0.83776 0.24478 0.0
C1333 C 0.68573 0.82363 0.23932 0.0
C1334 C 0.65821 0.83325 0.25863 0.0
C1335 C 0.6325 0.79063 0.28227 0.0
H1336 H 0.62239 0.82806 0.32309 0.0
C1337 C 0.59892 0.7674 0.35466 0.0
C1338 C 0.58342 0.77817 0.36165 0.0
C1339 C 0.6094 0.774 0.33858 0.0
C1340 C 0.62486 0.81759 0.3116 0.0
H1341 H 0.69489 0.79398 0.24455 0.0
H1342 H 0.67031 0.7862 0.26879 0.0
H1343 H 0.64477 0.83772 0.29708 0.0
H1344 H 0.56687 0.80446 0.35737 0.0
H1345 H 0.58562 0.81625 0.32925 0.0
H1346 H 0.61318 0.77031 0.29717 0.0
C1347 C 0.67047 0.80058 0.26203 0.0
C1348 C 0.63765 0.8231 0.2967 0.0
C1349 C 0.68462 0.80504 0.24817 0.0
C1350 C 0.57873 0.79584 0.35228 0.0
C1351 C 0.58946 0.80261 0.33627 0.0
C1352 C 0.61989 0.78511 0.2972 0.0
C1353 C 0.65698 0.81456 0.26734 0.0
C1354 C 0.64196 0.80952 0.28211 0.0
C1355 C 0.60479 0.79163 0.3292 0.0
C1356 C 0.61628 0.79838 0.31223 0.0
H1357 H 0.67292 0.85217 0.23808 0.0
H1358 H 0.64795 0.84431 0.26228 0.0
H1359 H 0.63506 0.77997 0.27098 0.0
H1360 H 0.60292 0.75373 0.36151 0.0
H1361 H 0.62132 0.76538 0.33361 0.0
C1362 C 0.00855 0.04638 0.97204 0.0
C1363 C 0.02752 0.04159 0.9797 0.0
C1364 C 0.00631 0.06331 0.96072 0.0
C1365 C 0.03505 0.10245 0.93423 0.0
H1366 H 0.99214 0.1349 0.94837 0.0
C1367 C 0.03021 0.18104 0.90453 0.0
C1368 C 0.02609 0.19534 0.91842 0.0
C1369 C 0.02721 0.16108 0.90873 0.0
C1370 C 0.00423 0.12603 0.94427 0.0
H1371 H 0.05903 0.05062 0.98118 0.0
H1372 H 0.05517 0.08003 0.96167 0.0
H1373 H 0.99359 0.1017 0.96131 0.0
H1374 H 0.01502 0.20001 0.94734 0.0
H1375 H 0.01031 0.16527 0.95492 0.0
H1376 H 0.04644 0.12713 0.91825 0.0
C1377 C 0.04202 0.07058 0.96398 0.0
C1378 C 0.0049 0.10687 0.95147 0.0
C1379 C 0.04425 0.05368 0.9752 0.0
C1380 C 0.01827 0.18933 0.93631 0.0
C1381 C 0.01545 0.16937 0.94059 0.0
C1382 C 0.03446 0.12163 0.92716 0.0
C1383 C 0.02299 0.07582 0.95689 0.0
C1384 C 0.02062 0.09503 0.94695 0.0
C1385 C 0.02021 0.15498 0.92699 0.0
C1386 C 0.01932 0.13384 0.93248 0.0
H1387 H 0.9954 0.03722 0.9751 0.0
H1388 H 0.99148 0.06678 0.95524 0.0
H1389 H 0.04718 0.09361 0.93019 0.0
H1390 H 0.03607 0.18523 0.89052 0.0
H1391 H 0.03068 0.15042 0.89777 0.0
C1392 C 0.34351 0.28994 0.25052 0.0
C1393 C 0.32954 0.27424 0.25333 0.0
C1394 C 0.35771 0.2887 0.23625 0.0
C1395 C 0.36409 0.26649 0.18904 0.0
H1396 H 0.42129 0.27426 0.19955 0.0
C1397 C 0.41871 0.24485 0.13211 0.0
C1398 C 0.43669 0.256 0.1302 0.0
C1399 C 0.40635 0.24845 0.1474 0.0
C1400 C 0.40535 0.2724 0.19627 0.0
H1401 H 0.31949 0.24494 0.24368 0.0
H1402 H 0.34406 0.24293 0.21844 0.0
H1403 H 0.39856 0.27796 0.22622 0.0
H1404 H 0.45583 0.27977 0.14289 0.0
H1405 H 0.43378 0.2866 0.16944 0.0
H1406 H 0.37049 0.26144 0.15915 0.0
C1407 C 0.34413 0.25608 0.2274 0.0
C1408 C 0.39238 0.27441 0.21157 0.0
C1409 C 0.33019 0.25718 0.24188 0.0
C1410 C 0.44205 0.27093 0.144 0.0
C1411 C 0.42947 0.27474 0.15926 0.0
C1412 C 0.37694 0.26481 0.17372 0.0
C1413 C 0.35787 0.2719 0.22434 0.0
C1414 C 0.37168 0.27106 0.20813 0.0
C1415 C 0.4114 0.26356 0.16109 0.0
C1416 C 0.39779 0.26727 0.17719 0.0
H1417 H 0.34331 0.30323 0.25924 0.0
H1418 H 0.36814 0.30109 0.2341 0.0
H1419 H 0.34813 0.2642 0.18596 0.0
H1420 H 0.41424 0.23304 0.1219 0.0
H1421 H 0.3929 0.23914 0.14859 0.0
C1422 C 0.54476 0.43375 0.98984 0.0
C1423 C 0.54402 0.45135 0.00043 0.0
C1424 C 0.54314 0.4157 -0.00057 0.0
C1425 C 0.52116 0.39107 0.04047 0.0
H1426 H 0.55992 0.35187 0.03269 0.0
C1427 C 0.51226 0.31325 0.07403 0.0
C1428 C 0.51747 0.29756 0.06222 0.0
C1429 C 0.51716 0.33269 0.06875 0.0
C1430 C 0.54881 0.36253 0.03486 0.0
H1431 H 0.54092 0.46405 0.02921 0.0
H1432 H 0.53745 0.43223 0.04601 0.0
H1433 H 0.5651 0.38459 0.01886 0.0
H1434 H 0.53188 0.29004 0.03559 0.0
H1435 H 0.53971 0.32365 0.02606 0.0
H1436 H 0.50425 0.36886 0.05553 0.0
C1437 C 0.53954 0.43251 0.03034 0.0
C1438 C 0.55189 0.3813 0.02704 0.0
C1439 C 0.54159 0.45063 0.02079 0.0
C1440 C 0.52779 0.30174 0.04514 0.0
C1441 C 0.53243 0.32111 0.03974 0.0
C1442 C 0.51787 0.37216 0.04802 0.0
C1443 C 0.54038 0.41491 0.01973 0.0
C1444 C 0.53796 0.39564 0.02954 0.0
C1445 C 0.52716 0.33689 0.05142 0.0
C1446 C 0.53149 0.35752 0.04502 0.0
H1447 H 0.54672 0.43398 0.97414 0.0
H1448 H 0.54368 0.40232 0.99092 0.0
H1449 H 0.51014 0.40188 0.04247 0.0
H1450 H 0.5044 0.31052 0.08735 0.0
H1451 H 0.51312 0.34442 0.07828 0.0
C1452 C 0.65919 0.19657 0.22876 0.0
C1453 C 0.66695 0.21271 0.24013 0.0
C1454 C 0.64324 0.19859 0.21505 0.0
C1455 C 0.61496 0.23674 0.18776 0.0
H1456 H 0.5778 0.19241 0.1757 0.0
C1457 C 0.54173 0.24049 0.1386 0.0
C1458 C 0.54202 0.22864 0.12172 0.0
C1459 C 0.55598 0.23854 0.15409 0.0
C1460 C 0.58807 0.20489 0.17902 0.0
H1461 H 0.66376 0.24375 0.24573 0.0
H1462 H 0.63522 0.24689 0.22302 0.0
H1463 H 0.60433 0.18924 0.20113 0.0
H1464 H 0.55688 0.20501 0.10809 0.0
H1465 H 0.58131 0.20115 0.13553 0.0
H1466 H 0.59804 0.25247 0.16596 0.0
C1467 C 0.64185 0.23276 0.22416 0.0
C1468 C 0.60342 0.20307 0.19344 0.0
C1469 C 0.65808 0.23085 0.23755 0.0
C1470 C 0.55639 0.2144 0.12088 0.0
C1471 C 0.57028 0.21212 0.13656 0.0
C1472 C 0.59932 0.23867 0.17368 0.0
C1473 C 0.63426 0.2167 0.21258 0.0
C1474 C 0.61728 0.21889 0.19784 0.0
C1475 C 0.57035 0.22435 0.15314 0.0
C1476 C 0.58593 0.22269 0.16905 0.0
H1477 H 0.66532 0.18226 0.23048 0.0
H1478 H 0.63814 0.18592 0.20624 0.0
H1479 H 0.62547 0.24916 0.19034 0.0
H1480 H 0.53088 0.25164 0.13957 0.0
H1481 H 0.55582 0.2481 0.16679 0.0
C1482 C 0.48725 0.05278 0.98622 0.0
C1483 C 0.46792 0.04415 0.98231 0.0
C1484 C 0.49011 0.06992 0.99747 0.0
C1485 C 0.46939 0.09862 0.03554 0.0
H1486 H 0.49487 0.1441 0.01118 0.0
C1487 C 0.46668 0.17618 0.06855 0.0
C1488 C 0.48242 0.19006 0.06556 0.0
C1489 C 0.46622 0.15773 0.05958 0.0
C1490 C 0.48812 0.13149 0.01846 0.0
H1491 H 0.43649 0.04692 0.98753 0.0
H1492 H 0.44172 0.07635 0.00791 0.0
H1493 H 0.4919 0.11281 0.99371 0.0
H1494 H 0.5105 0.19516 0.05156 0.0
H1495 H 0.51027 0.16271 0.03664 0.0
H1496 H 0.46603 0.11693 0.0605 0.0
C1497 C 0.45455 0.06979 0.00206 0.0
C1498 C 0.48631 0.11361 0.00834 0.0
C1499 C 0.45161 0.05286 0.99046 0.0
C1500 C 0.49804 0.18489 0.05394 0.0
C1501 C 0.49782 0.16627 0.04528 0.0
C1502 C 0.47155 0.1164 0.04585 0.0
C1503 C 0.47378 0.07857 0.00544 0.0
C1504 C 0.47669 0.09712 0.01669 0.0
C1505 C 0.48172 0.15253 0.0477 0.0
C1506 C 0.48067 0.13319 0.03733 0.0
H1507 H 0.50024 0.04629 0.98062 0.0
H1508 H 0.5051 0.07639 6e-05 0.0
H1509 H 0.46208 0.086 0.04232 0.0
H1510 H 0.45433 0.1798 0.07732 0.0
H1511 H 0.45337 0.1478 0.06155 0.0
C1512 C 0.25022 0.3633 0.73665 0.0
C1513 C 0.24168 0.35729 0.71821 0.0
C1514 C 0.26447 0.37899 0.73815 0.0
C1515 C 0.28808 0.41837 0.73811 0.0
H1516 H 0.3295 0.41887 0.70033 0.0
C1517 C 0.35153 0.47942 0.73625 0.0
C1518 C 0.37083 0.47309 0.73345 0.0
C1519 C 0.33486 0.46625 0.73417 0.0
C1520 C 0.31808 0.4189 0.71104 0.0
H1521 H 0.24074 0.36363 0.68699 0.0
H1522 H 0.26565 0.39102 0.68962 0.0
H1523 H 0.30165 0.39453 0.69716 0.0
H1524 H 0.38765 0.44782 0.72646 0.0
H1525 H 0.35866 0.42497 0.72298 0.0
H1526 H 0.30486 0.44244 0.75227 0.0
C1527 C 0.26154 0.38338 0.70288 0.0
C1528 C 0.30199 0.4051 0.70908 0.0
C1529 C 0.24727 0.36771 0.70138 0.0
C1530 C 0.37304 0.45327 0.72867 0.0
C1531 C 0.35639 0.44016 0.72653 0.0
C1532 C 0.30416 0.43223 0.74003 0.0
C1533 C 0.27052 0.38901 0.72125 0.0
C1534 C 0.2869 0.40454 0.7227 0.0
C1535 C 0.3371 0.44651 0.72916 0.0
C1536 C 0.31947 0.43249 0.72664 0.0
H1537 H 0.24648 0.35541 0.74987 0.0
H1538 H 0.27129 0.38277 0.75249 0.0
H1539 H 0.27659 0.41842 0.74875 0.0
H1540 H 0.34926 0.49458 0.73993 0.0
H1541 H 0.32017 0.47162 0.73616 0.0
C1542 C 0.22985 0.65893 0.78008 0.0
C1543 C 0.22381 0.67119 0.76453 0.0
C1544 C 0.24556 0.64648 0.77802 0.0
C1545 C 0.29075 0.64235 0.75075 0.0
H1546 H 0.28848 0.58785 0.76712 0.0
C1547 C 0.35161 0.59068 0.7312 0.0
C1548 C 0.35765 0.57654 0.74495 0.0
C1549 C 0.33511 0.60172 0.73429 0.0
C1550 C 0.28948 0.60312 0.76275 0.0
H1551 H 0.22931 0.67981 0.73457 0.0
H1552 H 0.25675 0.65808 0.73099 0.0
H1553 H 0.25961 0.60775 0.771 0.0
H1554 H 0.35103 0.56289 0.77277 0.0
H1555 H 0.32235 0.58259 0.77845 0.0
H1556 H 0.32061 0.63803 0.74283 0.0
C1557 C 0.24935 0.65814 0.74478 0.0
C1558 C 0.27291 0.61448 0.7649 0.0
C1559 C 0.23352 0.67043 0.74675 0.0
C1560 C 0.34673 0.57367 0.7619 0.0
C1561 C 0.33024 0.58488 0.76508 0.0
C1562 C 0.30734 0.6311 0.74879 0.0
C1563 C 0.25569 0.64622 0.76046 0.0
C1564 C 0.27331 0.63414 0.75869 0.0
C1565 C 0.32427 0.5991 0.75132 0.0
C1566 C 0.30686 0.61125 0.75451 0.0
H1567 H 0.22253 0.65913 0.7939 0.0
H1568 H 0.25017 0.63751 0.79038 0.0
H1569 H 0.29165 0.65759 0.74622 0.0
H1570 H 0.35953 0.59315 0.71787 0.0
H1571 H 0.33073 0.61217 0.72313 0.0
C1572 C 0.91845 0.47511 0.44715 0.0
C1573 C 0.93095 0.48323 0.46257 0.0
C1574 C 0.90226 0.46221 0.45112 0.0
C1575 C 0.88314 0.42897 0.4895 0.0
H1576 H 0.83242 0.43274 0.46024 0.0
C1577 C 0.81955 0.36958 0.4944 0.0
C1578 C 0.79988 0.37566 0.49517 0.0
C1579 C 0.83523 0.38302 0.49047 0.0
C1580 C 0.84643 0.43161 0.46865 0.0
H1581 H 0.93642 0.48388 0.49422 0.0
H1582 H 0.90804 0.46172 0.50115 0.0
H1583 H 0.86037 0.45565 0.45336 0.0
H1584 H 0.78135 0.40078 0.49237 0.0
H1585 H 0.80885 0.42432 0.48567 0.0
H1586 H 0.86917 0.40519 0.50503 0.0
C1587 C 0.91082 0.46517 0.48598 0.0
C1588 C 0.86252 0.44457 0.46454 0.0
C1589 C 0.92697 0.47804 0.48202 0.0
C1590 C 0.79629 0.39557 0.49186 0.0
C1591 C 0.81204 0.40905 0.48792 0.0
C1592 C 0.86708 0.41602 0.4936 0.0
C1593 C 0.89824 0.45711 0.47059 0.0
C1594 C 0.88108 0.44338 0.4749 0.0
C1595 C 0.8317 0.40292 0.48723 0.0
C1596 C 0.84856 0.41712 0.48317 0.0
H1597 H 0.92099 0.47896 0.43202 0.0
H1598 H 0.89299 0.4561 0.43891 0.0
H1599 H 0.89726 0.42751 0.49763 0.0
H1600 H 0.82291 0.35437 0.49677 0.0
H1601 H 0.85013 0.37773 0.48973 0.0
C1602 C 0.76385 0.81639 0.76272 0.0
C1603 C 0.77122 0.81007 0.78121 0.0
C1604 C 0.75059 0.83152 0.76121 0.0
C1605 C 0.73273 0.87306 0.7898 0.0
H1606 H 0.69327 0.87449 0.74631 0.0
C1607 C 0.67964 0.93654 0.78012 0.0
C1608 C 0.68156 0.9461 0.76198 0.0
C1609 C 0.68714 0.91795 0.7831 0.0
C1610 C 0.70416 0.87419 0.75858 0.0
H1611 H 0.77019 0.81483 0.81267 0.0
H1612 H 0.74634 0.84041 0.81007 0.0
H1613 H 0.71321 0.84572 0.75078 0.0
H1614 H 0.6915 0.94314 0.73234 0.0
H1615 H 0.70413 0.9105 0.73743 0.0
H1616 H 0.72349 0.90153 0.79759 0.0
C1617 C 0.75119 0.83403 0.79666 0.0
C1618 C 0.71573 0.85781 0.76107 0.0
C1619 C 0.76469 0.8191 0.79816 0.0
C1620 C 0.68989 0.93617 0.74651 0.0
C1621 C 0.69704 0.91746 0.74938 0.0
C1622 C 0.72093 0.88927 0.78748 0.0
C1623 C 0.74407 0.84058 0.77816 0.0
C1624 C 0.73049 0.85721 0.77647 0.0
C1625 C 0.6963 0.90845 0.76787 0.0
C1626 C 0.70682 0.89016 0.77164 0.0
H1627 H 0.76822 0.8096 0.74932 0.0
H1628 H 0.74574 0.83632 0.74668 0.0
H1629 H 0.74412 0.87336 0.80164 0.0
H1630 H 0.67336 0.94386 0.79233 0.0
H1631 H 0.68632 0.91122 0.79746 0.0
C1632 C 0.57639 0.53712 0.99036 0.0
C1633 C 0.57938 0.51687 0.99061 0.0
C1634 C 0.59237 0.55074 0.99439 0.0
C1635 C 0.64392 0.55588 0.01676 0.0
H1636 H 0.64748 0.60233 0.98407 0.0
C1637 C 0.69096 0.63548 0.01305 0.0
C1638 C 0.71071 0.62971 0.01608 0.0
C1639 C 0.67509 0.62149 0.01079 0.0
C1640 C 0.6466 0.58955 0.99348 0.0
H1641 H 0.60154 0.49505 0.99527 0.0
H1642 H 0.62941 0.51879 0.00225 0.0
H1643 H 0.61942 0.57854 0.97877 0.0
H1644 H 0.72913 0.60456 0.01949 0.0
H1645 H 0.70132 0.58008 0.0154 0.0
H1646 H 0.67124 0.56693 0.03138 0.0
C1647 C 0.61465 0.52416 -0.00074 0.0
C1648 C 0.63049 0.57591 0.99046 0.0
C1649 C 0.59866 0.51054 0.99526 0.0
C1650 C 0.71412 0.60954 0.01718 0.0
C1651 C 0.69818 0.5955 0.01492 0.0
C1652 C 0.66008 0.56954 0.01977 0.0
C1653 C 0.61173 0.54443 -0.0013 0.0
C1654 C 0.62889 0.55894 0.0021 0.0
C1655 C 0.6785 0.60134 0.01148 0.0
C1656 C 0.66156 0.58658 0.00822 0.0
H1657 H 0.56166 0.54246 0.9871 0.0
H1658 H 0.58953 0.56623 0.99417 0.0
H1659 H 0.64304 0.54307 0.02612 0.0
H1660 H 0.68769 0.65086 0.01225 0.0
H1661 H 0.66009 0.62649 0.00852 0.0
C1662 C 0.2919 0.67397 0.21461 0.0
C1663 C 0.29473 0.68902 0.22868 0.0
C1664 C 0.27735 0.65885 0.21681 0.0
C1665 C 0.24543 0.63535 0.25431 0.0
H1666 H 0.21862 0.61029 0.20839 0.0
C1667 C 0.18134 0.57621 0.25963 0.0
C1668 C 0.18526 0.5583 0.25069 0.0
C1669 C 0.19294 0.59325 0.25582 0.0
C1670 C 0.226 0.61721 0.22131 0.0
H1671 H 0.28441 0.70049 0.2558 0.0
H1672 H 0.25836 0.67457 0.25934 0.0
H1673 H 0.24208 0.63838 0.20424 0.0
H1674 H 0.20378 0.54447 0.23003 0.0
H1675 H 0.22367 0.57441 0.22297 0.0
H1676 H 0.22888 0.61435 0.27131 0.0
C1677 C 0.26777 0.67396 0.24691 0.0
C1678 C 0.23957 0.6332 0.21898 0.0
C1679 C 0.28261 0.68888 0.24488 0.0
C1680 C 0.20038 0.55799 0.23715 0.0
C1681 C 0.21173 0.57513 0.23306 0.0
C1682 C 0.23159 0.61963 0.25663 0.0
C1683 C 0.26502 0.65864 0.23297 0.0
C1684 C 0.2497 0.64232 0.23544 0.0
C1685 C 0.20842 0.59278 0.24272 0.0
C1686 C 0.22195 0.61028 0.24015 0.0
H1687 H 0.30122 0.67372 0.20207 0.0
H1688 H 0.27605 0.64715 0.20599 0.0
H1689 H 0.25315 0.64166 0.26734 0.0
H1690 H 0.16983 0.57692 0.27018 0.0
H1691 H 0.19007 0.60674 0.26337 0.0
C1692 C 0.94015 0.51842 0.05058 0.0
C1693 C 0.93856 0.49813 0.04661 0.0
C1694 C 0.92337 0.52971 0.04876 0.0
C1695 C 0.87302 0.53137 0.02518 0.0
H1696 H 0.86495 0.56855 0.06684 0.0
C1697 C 0.81734 0.59379 0.01865 0.0
C1698 C 0.80681 0.59803 0.03537 0.0
C1699 C 0.83192 0.57981 0.01951 0.0
C1700 C 0.86688 0.55812 0.05517 0.0
H1701 H 0.91794 0.47388 0.03747 0.0
H1702 H 0.88869 0.49373 0.03398 0.0
H1703 H 0.89359 0.54795 0.06929 0.0
H1704 H 0.80265 0.59017 0.06582 0.0
H1705 H 0.82803 0.56582 0.06728 0.0
H1706 H 0.84628 0.5417 0.01102 0.0
C1707 C 0.90301 0.50085 0.03844 0.0
C1708 C 0.88341 0.54647 0.05647 0.0
C1709 C 0.91979 0.4895 0.0404 0.0
C1710 C 0.81056 0.58737 0.05269 0.0
C1711 C 0.82519 0.57348 0.05358 0.0
C1712 C 0.85653 0.54318 0.02379 0.0
C1713 C 0.9046 0.52104 0.04279 0.0
C1714 C 0.88673 0.53304 0.04146 0.0
C1715 C 0.83633 0.56986 0.03714 0.0
C1716 C 0.85332 0.5567 0.03876 0.0
H1717 H 0.95443 0.52565 0.05499 0.0
H1718 H 0.92513 0.5453 0.05189 0.0
H1719 H 0.87525 0.52122 0.01333 0.0
H1720 H 0.8148 0.6017 0.00505 0.0
H1721 H 0.84032 0.5774 0.00662 0.0
C1722 C 0.07267 0.9781 0.99045 0.0
C1723 C 0.06821 0.98804 0.00764 0.0
C1724 C 0.08999 0.9676 0.98988 0.0
C1725 C 0.1287 0.94545 0.02247 0.0
H1726 H 0.15826 0.945 0.97494 0.0
C1727 C 0.20505 0.91126 0.0208 0.0
C1728 C 0.20695 0.89763 0.00559 0.0
C1729 C 0.18915 0.92372 0.02026 0.0
C1730 C 0.1501 0.94496 0.98827 0.0
H1731 H 0.07851 0.99514 0.03757 0.0
H1732 H 0.10891 0.97718 0.03653 0.0
H1733 H 0.12819 0.96367 0.97582 0.0
H1734 H 0.1943 0.88719 0.97732 0.0
H1735 H 0.1666 0.90913 0.97632 0.0
H1736 H 0.15074 0.92692 0.03495 0.0
C1737 C 0.09883 0.977 0.02362 0.0
C1738 C 0.13282 0.95556 0.98877 0.0
C1739 C 0.08142 0.98733 0.02423 0.0
C1740 C 0.19322 0.89748 0.98931 0.0
C1741 C 0.17739 0.91008 0.9887 0.0
C1742 C 0.14605 0.93504 0.02201 0.0
C1743 C 0.10334 0.96698 0.00644 0.0
C1744 C 0.12185 0.95588 0.00587 0.0
C1745 C 0.17491 0.92295 0.00442 0.0
C1746 C 0.1569 0.93464 0.00491 0.0
H1747 H 0.06265 0.97831 0.97749 0.0
H1748 H 0.09278 0.95979 0.97652 0.0
H1749 H 0.12046 0.94501 0.03575 0.0
H1750 H 0.21541 0.91184 0.03353 0.0
H1751 H 0.18776 0.93371 0.03245 0.0
loop_
_geom_bond_atom_site_label_1
_geom_bond_atom_site_label_2
_geom_bond_distance
_geom_bond_site_symmetry_2
_ccdc_geom_bond_type
H0 C3 0.931 . S
H1 C6 0.928 . S
H2 C8 0.930 . S
C3 H0 0.931 . S
C3 C4 1.413 . S
C3 C5 1.360 . S
C4 C3 1.413 . S
C4 C8 1.429 . S
C5 C3 1.360 . S
C5 C6 1.372 . S
C6 H1 0.928 . S
C6 C5 1.372 . S
C6 C7 1.404 . S
C7 C6 1.404 . S
C7 C8 1.391 . S
C8 H2 0.930 . S
C8 C4 1.429 . S
C8 C7 1.391 . S
H9 C12 0.931 . S
H10 C15 0.928 . S
H11 C17 0.930 . S
C12 H9 0.931 . S
C12 C13 1.413 . S
C12 C14 1.360 . S
C13 C12 1.413 . S
C13 C17 1.429 . S
C14 C12 1.360 . S
C14 C15 1.372 . S
C15 H10 0.928 . S
C15 C14 1.372 . S
C15 C16 1.404 . S
C16 C15 1.404 . S
C16 C17 1.391 . S
C17 H11 0.930 . S
C17 C13 1.429 . S
C17 C16 1.391 . S
H18 C21 0.931 . S
H19 C24 0.928 1_455 S
H20 C26 0.930 . S
C21 H18 0.931 . S
C21 C22 1.413 . S
C21 C23 1.360 . S
C22 C21 1.413 . S
C22 C26 1.429 . S
C23 C21 1.360 . S
C23 C24 1.372 . S
C24 H19 0.928 1_655 S
C24 C23 1.372 . S
C24 C25 1.404 . S
C25 C24 1.404 . S
C25 C26 1.391 . S
C26 H20 0.930 . S
C26 C22 1.429 . S
C26 C25 1.391 . S
H27 C30 0.931 . S
H28 C33 0.928 . S
H29 C35 0.930 . S
C30 H27 0.931 . S
C30 C31 1.413 . S
C30 C32 1.360 . S
C31 C30 1.413 . S
C31 C35 1.429 . S
C32 C30 1.360 . S
C32 C33 1.372 . S
C33 H28 0.928 . S
C33 C32 1.372 . S
C33 C34 1.404 . S
C34 C33 1.404 . S
C34 C35 1.391 . S
C35 H29 0.930 . S
C35 C31 1.429 . S
C35 C34 1.391 . S
H36 C39 0.931 . S
H37 C42 0.928 . S
H38 C44 0.930 . S
C39 H36 0.931 . S
C39 C40 1.413 . S
C39 C41 1.360 . S
C40 C39 1.413 . S
C40 C44 1.429 . S
C41 C39 1.360 . S
C41 C42 1.372 . S
C42 H37 0.928 . S
C42 C41 1.372 . S
C42 C43 1.404 . S
C43 C42 1.404 . S
C43 C44 1.391 . S
C44 H38 0.930 . S
C44 C40 1.429 . S
C44 C43 1.391 . S
H45 C48 0.931 . S
H46 C51 0.928 . S
H47 C53 0.930 . S
C48 H45 0.931 . S
C48 C49 1.413 . S
C48 C50 1.360 . S
C49 C48 1.413 . S
C49 C53 1.429 . S
C50 C48 1.360 . S
C50 C51 1.372 . S
C51 H46 0.928 . S
C51 C50 1.372 . S
C51 C52 1.404 . S
C52 C51 1.404 . S
C52 C53 1.391 . S
C53 H47 0.930 . S
C53 C49 1.429 . S
C53 C52 1.391 . S
H54 C57 0.931 . S
H55 C60 0.928 . S
H56 C62 0.930 . S
C57 H54 0.931 . S
C57 C58 1.413 . S
C57 C59 1.360 . S
C58 C57 1.413 . S
C58 C62 1.429 . S
C59 C57 1.360 . S
C59 C60 1.372 . S
C60 H55 0.928 . S
C60 C59 1.372 . S
C60 C61 1.404 . S
C61 C60 1.404 . S
C61 C62 1.391 . S
C62 H56 0.930 . S
C62 C58 1.429 . S
C62 C61 1.391 . S
H63 C66 0.931 . S
H64 C69 0.928 . S
H65 C71 0.930 . S
C66 H63 0.931 . S
C66 C67 1.413 . S
C66 C68 1.360 . S
C67 C66 1.413 . S
C67 C71 1.429 . S
C68 C66 1.360 . S
C68 C69 1.372 . S
C69 H64 0.928 . S
C69 C68 1.372 . S
C69 C70 1.404 . S
C70 C69 1.404 . S
C70 C71 1.391 . S
C71 H65 0.930 . S
C71 C67 1.429 . S
C71 C70 1.391 . S
H72 C75 0.931 . S
H73 C78 0.928 . S
H74 C80 0.930 . S
C75 H72 0.931 . S
C75 C76 1.413 . S
C75 C77 1.360 . S
C76 C75 1.413 . S
C76 C80 1.429 . S
C77 C75 1.360 . S
C77 C78 1.372 . S
C78 H73 0.928 . S
C78 C77 1.372 . S
C78 C79 1.404 . S
C79 C78 1.404 . S
C79 C80 1.391 . S
C80 H74 0.930 . S
C80 C76 1.429 . S
C80 C79 1.391 . S
H81 C84 0.931 . S
H82 C87 0.928 . S
H83 C89 0.930 . S
C84 H81 0.931 . S
C84 C85 1.413 . S
C84 C86 1.360 . S
C85 C84 1.413 . S
C85 C89 1.429 . S
C86 C84 1.360 . S
C86 C87 1.372 . S
C87 H82 0.928 . S
C87 C86 1.372 . S
C87 C88 1.404 . S
C88 C87 1.404 . S
C88 C89 1.391 . S
C89 H83 0.930 . S
C89 C85 1.429 . S
C89 C88 1.391 . S
H90 C93 0.931 . S
H91 C96 0.928 . S
H92 C98 0.930 . S
C93 H90 0.931 . S
C93 C94 1.413 . S
C93 C95 1.360 . S
C94 C93 1.413 . S
C94 C98 1.429 . S
C95 C93 1.360 . S
C95 C96 1.372 . S
C96 H91 0.928 . S
C96 C95 1.372 . S
C96 C97 1.404 . S
C97 C96 1.404 . S
C97 C98 1.391 . S
C98 H92 0.930 . S
C98 C94 1.429 . S
C98 C97 1.391 . S
H99 C102 0.931 . S
H100 C105 0.928 . S
H101 C107 0.930 . S
C102 H99 0.931 . S
C102 C103 1.413 . S
C102 C104 1.360 . S
C103 C102 1.413 . S
C103 C107 1.429 . S
C104 C102 1.360 . S
C104 C105 1.372 . S
C105 H100 0.928 . S
C105 C104 1.372 . S
C105 C106 1.404 . S
C106 C105 1.404 . S
C106 C107 1.391 . S
C107 H101 0.930 . S
C107 C103 1.429 . S
C107 C106 1.391 . S
H108 C111 0.931 . S
H109 C114 0.928 . S
H110 C116 0.930 . S
C111 H108 0.931 . S
C111 C112 1.413 . S
C111 C113 1.360 . S
C112 C111 1.413 . S
C112 C116 1.429 . S
C113 C111 1.360 . S
C113 C114 1.372 . S
C114 H109 0.928 . S
C114 C113 1.372 . S
C114 C115 1.404 . S
C115 C114 1.404 . S
C115 C116 1.391 . S
C116 H110 0.930 . S
C116 C112 1.429 . S
C116 C115 1.391 . S
H117 C120 0.931 . S
H118 C123 0.928 . S
H119 C125 0.930 . S
C120 H117 0.931 . S
C120 C121 1.413 . S
C120 C122 1.360 . S
C121 C120 1.413 . S
C121 C125 1.429 . S
C122 C120 1.360 . S
C122 C123 1.372 . S
C123 H118 0.928 . S
C123 C122 1.372 . S
C123 C124 1.404 . S
C124 C123 1.404 . S
C124 C125 1.391 . S
C125 H119 0.930 . S
C125 C121 1.429 . S
C125 C124 1.391 . S
H126 C129 0.931 . S
H127 C132 0.928 . S
H128 C134 0.930 . S
C129 H126 0.931 . S
C129 C130 1.413 . S
C129 C131 1.360 . S
C130 C129 1.413 . S
C130 C134 1.429 . S
C131 C129 1.360 . S
C131 C132 1.372 . S
C132 H127 0.928 . S
C132 C131 1.372 . S
C132 C133 1.404 . S
C133 C132 1.404 . S
C133 C134 1.391 . S
C134 H128 0.930 . S
C134 C130 1.429 . S
C134 C133 1.391 . S
H135 C138 0.931 . S
H136 C141 0.928 . S
H137 C143 0.930 . S
C138 H135 0.931 . S
C138 C139 1.413 . S
C138 C140 1.360 . S
C139 C138 1.413 . S
C139 C143 1.429 . S
C140 C138 1.360 . S
C140 C141 1.372 . S
C141 H136 0.928 . S
C141 C140 1.372 . S
C141 C142 1.404 . S
C142 C141 1.404 . S
C142 C143 1.391 . S
C143 H137 0.930 . S
C143 C139 1.429 . S
C143 C142 1.391 . S
Mg144 O145 2.029 1_554 S
Mg144 O151 1.986 1_554 S
Mg144 O153 2.114 . S
Mg144 O154 2.251 . S
Mg144 O157 2.010 . S
O145 Mg144 2.029 1_556 S
O145 C148 1.250 . S
O146 Mg147 2.028 . S
O146 C148 1.248 . S
Mg147 O146 2.028 . S
Mg147 O152 2.032 . S
Mg147 O154 2.079 1_556 S
C148 O145 1.250 . S
C148 O146 1.248 . S
C149 O150 1.264 . S
C149 O157 1.249 . S
O150 C149 1.264 . S
O151 Mg144 1.986 1_556 S
O151 C155 1.246 . S
O152 Mg147 2.032 . S
O152 C155 1.259 . S
O153 Mg144 2.114 . S
O153 C156 1.252 . S
O154 Mg144 2.251 . S
O154 Mg147 2.079 1_554 S
O154 C156 1.273 . S
C155 O151 1.246 . S
C155 O152 1.259 . S
C156 O153 1.252 . S
C156 O154 1.273 . S
O157 Mg144 2.010 . S
O157 C149 1.249 . S
Mg158 O159 2.028 . S
Mg158 O165 1.986 . S
Mg158 O167 2.114 . S
Mg158 O168 2.251 . S
Mg158 O171 2.010 . S
O159 Mg158 2.028 . S
O159 C162 1.250 . S
O160 Mg161 2.028 . S
O160 C162 1.248 . S
Mg161 O160 2.028 . S
Mg161 O166 2.032 . S
Mg161 O168 2.079 . S
C162 O159 1.250 . S
C162 O160 1.248 . S
C163 O164 1.264 . S
C163 O171 1.249 . S
O164 C163 1.264 . S
O165 Mg158 1.986 . S
O165 C169 1.246 . S
O166 Mg161 2.032 . S
O166 C169 1.259 . S
O167 Mg158 2.114 . S
O167 C170 1.252 . S
O168 Mg158 2.251 . S
O168 Mg161 2.079 . S
O168 C170 1.273 . S
C169 O165 1.246 . S
C169 O166 1.259 . S
C170 O167 1.252 . S
C170 O168 1.273 . S
O171 Mg158 2.010 . S
O171 C163 1.249 . S
Mg172 O173 2.028 . S
Mg172 O179 1.986 1_554 S
Mg172 O181 2.114 . S
Mg172 O182 2.251 . S
Mg172 O185 2.010 . S
O173 Mg172 2.028 . S
O173 C176 1.250 . S
O174 Mg175 2.028 1_554 S
O174 C176 1.247 . S
Mg175 O174 2.028 1_556 S
Mg175 O180 2.032 . S
Mg175 O182 2.079 1_556 S
C176 O173 1.250 . S
C176 O174 1.247 . S
C177 O178 1.264 . S
C177 O185 1.249 . S
O178 C177 1.264 . S
O179 Mg172 1.986 1_556 S
O179 C183 1.246 . S
O180 Mg175 2.032 . S
O180 C183 1.259 . S
O181 Mg172 2.114 . S
O181 C184 1.252 . S
O182 Mg172 2.251 . S
O182 Mg175 2.079 1_554 S
O182 C184 1.273 . S
C183 O179 1.246 . S
C183 O180 1.259 . S
C184 O181 1.252 . S
C184 O182 1.273 . S
O185 Mg172 2.010 . S
O185 C177 1.249 . S
Mg186 O187 2.028 . S
Mg186 O193 1.986 . S
Mg186 O195 2.114 . S
Mg186 O196 2.251 . S
Mg186 O199 2.010 . S
O187 Mg186 2.028 . S
O187 C190 1.250 1_545 S
O188 Mg189 2.028 . S
O188 C190 1.248 . S
Mg189 O188 2.028 . S
Mg189 O194 2.032 . S
Mg189 O196 2.079 1_565 S
C190 O187 1.250 1_565 S
C190 O188 1.248 . S
C191 O192 1.264 . S
C191 O199 1.249 . S
O192 C191 1.264 . S
O193 Mg186 1.986 . S
O193 C197 1.246 . S
O194 Mg189 2.032 . S
O194 C197 1.259 1_565 S
O195 Mg186 2.114 . S
O195 C198 1.252 . S
O196 Mg186 2.251 . S
O196 Mg189 2.079 1_545 S
O196 C198 1.273 . S
C197 O193 1.246 . S
C197 O194 1.259 1_545 S
C198 O195 1.252 . S
C198 O196 1.273 . S
O199 Mg186 2.010 . S
O199 C191 1.249 . S
Mg200 O201 2.028 . S
Mg200 O207 1.986 . S
Mg200 O209 2.114 . S
Mg200 O210 2.251 . S
Mg200 O213 2.010 . S
O201 Mg200 2.028 . S
O201 C204 1.250 . S
O202 Mg203 2.028 . S
O202 C204 1.248 . S
Mg203 O202 2.028 . S
Mg203 O208 2.032 . S
Mg203 O210 2.079 . S
C204 O201 1.250 . S
C204 O202 1.248 . S
C205 O206 1.264 . S
C205 O213 1.249 . S
O206 C205 1.264 . S
O207 Mg200 1.986 . S
O207 C211 1.246 . S
O208 Mg203 2.032 . S
O208 C211 1.259 . S
O209 Mg200 2.114 . S
O209 C212 1.252 . S
O210 Mg200 2.251 . S
O210 Mg203 2.079 . S
O210 C212 1.273 . S
C211 O207 1.246 . S
C211 O208 1.259 . S
C212 O209 1.252 . S
C212 O210 1.273 . S
O213 Mg200 2.010 . S
O213 C205 1.249 . S
Mg214 O215 2.028 . S
Mg214 O221 1.986 . S
Mg214 O223 2.114 . S
Mg214 O224 2.251 . S
Mg214 O227 2.010 . S
O215 Mg214 2.028 . S
O215 C218 1.250 . S
O216 Mg217 2.028 . S
O216 C218 1.248 . S
Mg217 O216 2.028 . S
Mg217 O222 2.032 . S
Mg217 O224 2.079 . S
C218 O215 1.250 . S
C218 O216 1.248 . S
C219 O220 1.264 . S
C219 O227 1.249 . S
O220 C219 1.264 . S
O221 Mg214 1.986 . S
O221 C225 1.246 . S
O222 Mg217 2.032 . S
O222 C225 1.259 . S
O223 Mg214 2.114 . S
O223 C226 1.252 . S
O224 Mg214 2.251 . S
O224 Mg217 2.079 . S
O224 C226 1.273 . S
C225 O221 1.246 . S
C225 O222 1.259 . S
C226 O223 1.252 . S
C226 O224 1.273 . S
O227 Mg214 2.010 . S
O227 C219 1.249 . S
Mg228 O229 2.028 . S
Mg228 O235 1.986 . S
Mg228 O237 2.114 . S
Mg228 O238 2.251 . S
Mg228 O241 2.010 . S
O229 Mg228 2.028 . S
O229 C232 1.250 . S
O230 Mg231 2.028 . S
O230 C232 1.248 . S
Mg231 O230 2.028 . S
Mg231 O236 2.032 . S
Mg231 O238 2.079 . S
C232 O229 1.250 . S
C232 O230 1.248 . S
C233 O234 1.264 . S
C233 O241 1.249 . S
O234 C233 1.264 . S
O235 Mg228 1.986 . S
O235 C239 1.246 . S
O236 Mg231 2.032 . S
O236 C239 1.259 . S
O237 Mg228 2.114 . S
O237 C240 1.252 . S
O238 Mg228 2.251 . S
O238 Mg231 2.079 . S
O238 C240 1.273 . S
C239 O235 1.246 . S
C239 O236 1.259 . S
C240 O237 1.252 . S
C240 O238 1.273 . S
O241 Mg228 2.010 . S
O241 C233 1.249 . S
Mg242 O243 2.028 1_545 S
Mg242 O249 1.986 1_545 S
Mg242 O251 2.114 . S
Mg242 O252 2.251 . S
Mg242 O255 2.010 . S
O243 Mg242 2.028 1_565 S
O243 C246 1.250 . S
O244 Mg245 2.028 . S
O244 C246 1.248 . S
Mg245 O244 2.028 . S
Mg245 O250 2.032 . S
Mg245 O252 2.079 1_565 S
C246 O243 1.250 . S
C246 O244 1.248 . S
C247 O248 1.264 . S
C247 O255 1.249 . S
O248 C247 1.264 . S
O249 Mg242 1.986 1_565 S
O249 C253 1.246 . S
O250 Mg245 2.032 . S
O250 C253 1.259 . S
O251 Mg242 2.114 . S
O251 C254 1.252 . S
O252 Mg242 2.251 . S
O252 Mg245 2.079 1_545 S
O252 C254 1.273 . S
C253 O249 1.246 . S
C253 O250 1.259 . S
C254 O251 1.252 . S
C254 O252 1.273 . S
O255 Mg242 2.010 . S
O255 C247 1.249 . S
Mg256 O257 2.028 . S
Mg256 O263 1.986 . S
Mg256 O265 2.114 . S
Mg256 O266 2.251 . S
Mg256 O269 2.010 . S
O257 Mg256 2.028 . S
O257 C260 1.250 1_455 S
O258 Mg259 2.028 . S
O258 C260 1.248 . S
Mg259 O258 2.028 . S
Mg259 O264 2.032 . S
Mg259 O266 2.079 1_655 S
C260 O257 1.250 1_655 S
C260 O258 1.248 . S
C261 O262 1.264 . S
C261 O269 1.249 . S
O262 C261 1.264 . S
O263 Mg256 1.986 . S
O263 C267 1.246 . S
O264 Mg259 2.032 . S
O264 C267 1.259 1_655 S
O265 Mg256 2.114 . S
O265 C268 1.252 . S
O266 Mg256 2.251 . S
O266 Mg259 2.079 1_455 S
O266 C268 1.273 . S
C267 O263 1.246 . S
C267 O264 1.259 1_455 S
C268 O265 1.252 . S
C268 O266 1.273 . S
O269 Mg256 2.010 . S
O269 C261 1.249 . S
Mg270 O271 2.028 . S
Mg270 O277 1.986 . S
Mg270 O279 2.114 . S
Mg270 O280 2.251 . S
Mg270 O283 2.010 . S
O271 Mg270 2.028 . S
O271 C274 1.250 . S
O272 Mg273 2.028 . S
O272 C274 1.248 . S
Mg273 O272 2.028 . S
Mg273 O278 2.032 . S
Mg273 O280 2.079 . S
C274 O271 1.250 . S
C274 O272 1.248 . S
C275 O276 1.264 . S
C275 O283 1.249 . S
O276 C275 1.264 . S
O277 Mg270 1.986 . S
O277 C281 1.246 . S
O278 Mg273 2.032 . S
O278 C281 1.259 . S
O279 Mg270 2.114 . S
O279 C282 1.252 . S
O280 Mg270 2.251 . S
O280 Mg273 2.079 . S
O280 C282 1.273 . S
C281 O277 1.246 . S
C281 O278 1.259 . S
C282 O279 1.252 . S
C282 O280 1.273 . S
O283 Mg270 2.010 . S
O283 C275 1.249 . S
Mg284 O285 2.028 1_655 S
Mg284 O291 2.000 . S
Mg284 O293 2.114 . S
Mg284 O294 2.251 1_655 S
Mg284 O297 2.010 . S
O285 Mg284 2.028 1_455 S
O285 C288 1.250 . S
O286 Mg287 2.028 . S
O286 C288 1.248 . S
Mg287 O286 2.028 . S
Mg287 O292 2.032 . S
Mg287 O294 2.079 . S
C288 O285 1.250 . S
C288 O286 1.248 . S
C289 O290 1.264 . S
C289 O297 1.249 . S
O290 C289 1.264 . S
O291 Mg284 2.000 . S
O291 C295 1.207 1_655 S
O292 Mg287 2.032 . S
O292 C295 1.259 . S
O293 Mg284 2.114 . S
O293 C296 1.252 . S
O294 Mg284 2.251 1_455 S
O294 Mg287 2.079 . S
O294 C296 1.273 1_455 S
C295 O291 1.207 1_455 S
C295 O292 1.259 . S
C296 O293 1.252 . S
C296 O294 1.273 1_655 S
O297 Mg284 2.010 . S
O297 C289 1.249 . S
Mg298 O299 2.028 . S
Mg298 O305 1.986 . S
Mg298 O307 2.114 . S
Mg298 O308 2.251 . S
Mg298 O311 2.010 . S
O299 Mg298 2.028 . S
O299 C302 1.250 . S
O300 Mg301 2.028 . S
O300 C302 1.248 . S
Mg301 O300 2.028 . S
Mg301 O306 2.032 . S
Mg301 O308 2.079 . S
C302 O299 1.250 . S
C302 O300 1.248 . S
C303 O304 1.264 . S
C303 O311 1.249 . S
O304 C303 1.264 . S
O305 Mg298 1.986 . S
O305 C309 1.246 . S
O306 Mg301 2.032 . S
O306 C309 1.259 . S
O307 Mg298 2.114 . S
O307 C310 1.252 . S
O308 Mg298 2.251 . S
O308 Mg301 2.079 . S
O308 C310 1.273 . S
C309 O305 1.246 . S
C309 O306 1.259 . S
C310 O307 1.252 . S
C310 O308 1.273 . S
O311 Mg298 2.010 . S
O311 C303 1.249 . S
C312 C313 1.349 . S
C312 C314 1.327 . S
C312 H337 0.950 . S
C313 C312 1.349 . S
C313 C329 1.349 . S
C314 C312 1.327 . S
C314 C333 1.429 . S
C314 H338 0.950 . S
C315 C332 1.574 . S
C315 C334 1.368 . S
C315 H339 0.949 . S
H316 C320 0.949 . S
C317 C318 1.349 . S
C317 C319 1.327 . S
C317 H340 0.950 . S
C318 C317 1.349 . S
C318 C330 1.349 . S
C319 C317 1.327 . S
C319 C335 1.429 . S
C319 H341 0.950 . S
C320 H316 0.949 . S
C320 C328 1.574 . S
C320 C336 1.368 . S
H321 C329 0.950 . S
H322 C327 0.950 . S
H323 C328 0.949 . S
H324 C330 0.950 . S
H325 C331 0.950 . S
H326 C332 0.949 . S
C327 H322 0.950 . S
C327 C329 1.327 . S
C327 C333 1.429 . S
C328 C320 1.574 . S
C328 H323 0.949 . S
C328 C334 1.368 . S
C329 C313 1.349 . S
C329 H321 0.950 . S
C329 C327 1.327 . S
C330 C318 1.349 . S
C330 H324 0.950 . S
C330 C331 1.327 . S
C331 H325 0.950 . S
C331 C330 1.327 . S
C331 C335 1.429 . S
C332 C315 1.574 . S
C332 H326 0.949 . S
C332 C336 1.368 . S
C333 C314 1.429 . S
C333 C327 1.429 . S
C333 C334 1.523 . S
C334 C315 1.368 . S
C334 C328 1.368 . S
C334 C333 1.523 . S
C335 C319 1.429 . S
C335 C331 1.429 . S
C335 C336 1.523 . S
C336 C320 1.368 . S
C336 C332 1.368 . S
C336 C335 1.523 . S
H337 C312 0.950 . S
H338 C314 0.950 . S
H339 C315 0.949 . S
H340 C317 0.950 . S
H341 C319 0.950 . S
C342 C343 1.349 . S
C342 C344 1.327 1_655 S
C342 H367 0.950 . S
C343 C342 1.349 . S
C343 C359 1.349 1_655 S
C344 C342 1.327 1_455 S
C344 C363 1.429 . S
C344 H368 0.950 . S
C345 C362 1.574 . S
C345 C364 1.368 . S
C345 H369 0.949 . S
H346 C350 0.949 . S
C347 C348 1.349 . S
C347 C349 1.327 . S
C347 H370 0.950 . S
C348 C347 1.349 . S
C348 C360 1.349 . S
C349 C347 1.327 . S
C349 C365 1.429 . S
C349 H371 0.950 . S
C350 H346 0.949 . S
C350 C358 1.574 . S
C350 C366 1.368 . S
H351 C359 0.950 . S
H352 C357 0.950 . S
H353 C358 0.949 . S
H354 C360 0.950 . S
H355 C361 0.950 . S
H356 C362 0.949 . S
C357 H352 0.950 . S
C357 C359 1.327 . S
C357 C363 1.429 . S
C358 C350 1.574 . S
C358 H353 0.949 . S
C358 C364 1.368 . S
C359 C343 1.349 1_455 S
C359 H351 0.950 . S
C359 C357 1.327 . S
C360 C348 1.349 . S
C360 H354 0.950 . S
C360 C361 1.327 . S
C361 H355 0.950 . S
C361 C360 1.327 . S
C361 C365 1.429 . S
C362 C345 1.574 . S
C362 H356 0.949 . S
C362 C366 1.368 . S
C363 C344 1.429 . S
C363 C357 1.429 . S
C363 C364 1.523 . S
C364 C345 1.368 . S
C364 C358 1.368 . S
C364 C363 1.523 . S
C365 C349 1.429 . S
C365 C361 1.429 . S
C365 C366 1.523 . S
C366 C350 1.368 . S
C366 C362 1.368 . S
C366 C365 1.523 . S
H367 C342 0.950 . S
H368 C344 0.950 . S
H369 C345 0.949 . S
H370 C347 0.950 . S
H371 C349 0.950 . S
C372 C373 1.349 . S
C372 C374 1.327 . S
C372 H397 0.950 . S
C373 C372 1.349 . S
C373 C389 1.349 . S
C374 C372 1.327 . S
C374 C393 1.429 . S
C374 H398 0.950 . S
C375 C392 1.574 . S
C375 C394 1.368 . S
C375 H399 0.949 . S
H376 C380 0.949 . S
C377 C378 1.349 . S
C377 C379 1.327 . S
C377 H400 0.950 . S
C378 C377 1.349 . S
C378 C390 1.349 . S
C379 C377 1.327 . S
C379 C395 1.429 . S
C379 H401 0.950 . S
C380 H376 0.949 . S
C380 C388 1.574 . S
C380 C396 1.368 . S
H381 C389 0.950 . S
H382 C387 0.950 . S
H383 C388 0.949 . S
H384 C390 0.950 . S
H385 C391 0.950 . S
H386 C392 0.949 . S
C387 H382 0.950 . S
C387 C389 1.327 . S
C387 C393 1.429 . S
C388 C380 1.574 . S
C388 H383 0.949 . S
C388 C394 1.368 . S
C389 C373 1.349 . S
C389 H381 0.950 . S
C389 C387 1.327 . S
C390 C378 1.349 . S
C390 H384 0.950 . S
C390 C391 1.327 . S
C391 H385 0.950 . S
C391 C390 1.327 . S
C391 C395 1.429 . S
C392 C375 1.574 . S
C392 H386 0.949 . S
C392 C396 1.368 . S
C393 C374 1.429 . S
C393 C387 1.429 . S
C393 C394 1.523 . S
C394 C375 1.368 . S
C394 C388 1.368 . S
C394 C393 1.523 . S
C395 C379 1.429 . S
C395 C391 1.429 . S
C395 C396 1.523 . S
C396 C380 1.368 . S
C396 C392 1.368 . S
C396 C395 1.523 . S
H397 C372 0.950 . S
H398 C374 0.950 . S
H399 C375 0.949 . S
H400 C377 0.950 . S
H401 C379 0.950 . S
C402 C403 1.349 . S
C402 C404 1.327 1_565 S
C402 H427 0.950 1_565 S
C403 C402 1.349 . S
C403 C419 1.349 . S
C404 C402 1.327 1_545 S
C404 C423 1.429 1_545 S
C404 H428 0.950 . S
C405 C422 1.574 . S
C405 C424 1.368 . S
C405 H429 0.949 . S
H406 C410 0.949 . S
C407 C408 1.349 1_565 S
C407 C409 1.327 . S
C407 H430 0.950 . S
C408 C407 1.349 1_545 S
C408 C420 1.349 . S
C409 C407 1.327 . S
C409 C425 1.444 . S
C409 H431 0.950 . S
C410 H406 0.949 . S
C410 C418 1.574 . S
C410 C426 1.368 1_545 S
H411 C419 0.950 . S
H412 C417 0.950 1_655 S
H413 C418 0.959 . S
H414 C420 0.950 . S
H415 C421 0.950 . S
H416 C422 0.949 . S
C417 H412 0.950 1_455 S
C417 C419 1.327 . S
C417 C423 1.429 . S
C418 C410 1.574 . S
C418 H413 0.959 . S
C418 C424 1.368 1_545 S
C419 C403 1.349 . S
C419 H411 0.950 . S
C419 C417 1.327 . S
C420 C408 1.349 . S
C420 H414 0.950 . S
C420 C421 1.327 . S
C421 H415 0.950 . S
C421 C420 1.327 . S
C421 C425 1.409 1_545 S
C422 C405 1.574 . S
C422 H416 0.949 . S
C422 C426 1.368 . S
C423 C404 1.429 1_565 S
C423 C417 1.429 . S
C423 C424 1.523 1_455 S
C424 C405 1.368 . S
C424 C418 1.368 1_565 S
C424 C423 1.523 1_655 S
C425 C409 1.444 . S
C425 C421 1.409 1_565 S
C425 C426 1.527 . S
C426 C410 1.368 1_565 S
C426 C422 1.368 . S
C426 C425 1.527 . S
H427 C402 0.950 1_545 S
H428 C404 0.950 . S
H429 C405 0.949 . S
H430 C407 0.950 . S
H431 C409 0.950 . S
C432 C433 1.349 . S
C432 C434 1.327 . S
C432 H457 0.950 . S
C433 C432 1.349 . S
C433 C449 1.349 . S
C434 C432 1.327 . S
C434 C453 1.429 . S
C434 H458 0.950 . S
C435 C452 1.574 . S
C435 C454 1.368 . S
C435 H459 0.949 . S
H436 C440 0.949 . S
C437 C438 1.349 . S
C437 C439 1.327 . S
C437 H460 0.950 . S
C438 C437 1.349 . S
C438 C450 1.349 . S
C439 C437 1.327 . S
C439 C455 1.429 . S
C439 H461 0.950 . S
C440 H436 0.949 . S
C440 C448 1.574 . S
C440 C456 1.368 . S
H441 C449 0.950 . S
H442 C447 0.950 . S
H443 C448 0.949 . S
H444 C450 0.950 . S
H445 C451 0.950 . S
H446 C452 0.949 . S
C447 H442 0.950 . S
C447 C449 1.327 . S
C447 C453 1.429 . S
C448 C440 1.574 . S
C448 H443 0.949 . S
C448 C454 1.368 . S
C449 C433 1.349 . S
C449 H441 0.950 . S
C449 C447 1.327 . S
C450 C438 1.349 . S
C450 H444 0.950 . S
C450 C451 1.327 . S
C451 H445 0.950 . S
C451 C450 1.327 . S
C451 C455 1.429 . S
C452 C435 1.574 . S
C452 H446 0.949 . S
C452 C456 1.368 . S
C453 C434 1.429 . S
C453 C447 1.429 . S
C453 C454 1.523 . S
C454 C435 1.368 . S
C454 C448 1.368 . S
C454 C453 1.523 . S
C455 C439 1.429 . S
C455 C451 1.429 . S
C455 C456 1.523 . S
C456 C440 1.368 . S
C456 C452 1.368 . S
C456 C455 1.523 . S
H457 C432 0.950 . S
H458 C434 0.950 . S
H459 C435 0.949 . S
H460 C437 0.950 . S
H461 C439 0.950 . S
C462 C463 1.349 . S
C462 C464 1.327 . S
C462 H487 0.950 . S
C463 C462 1.349 . S
C463 C479 1.349 . S
C464 C462 1.327 . S
C464 C483 1.429 . S
C464 H488 0.950 . S
C465 C482 1.574 . S
C465 C484 1.368 . S
C465 H489 0.949 . S
H466 C470 0.949 . S
C467 C468 1.349 . S
C467 C469 1.327 . S
C467 H490 0.950 . S
C468 C467 1.349 . S
C468 C480 1.349 . S
C469 C467 1.327 . S
C469 C485 1.429 . S
C469 H491 0.950 . S
C470 H466 0.949 . S
C470 C478 1.574 . S
C470 C486 1.368 . S
H471 C479 0.950 . S
H472 C477 0.950 . S
H473 C478 0.949 . S
H474 C480 0.950 . S
H475 C481 0.950 . S
H476 C482 0.949 . S
C477 H472 0.950 . S
C477 C479 1.327 . S
C477 C483 1.429 . S
C478 C470 1.574 . S
C478 H473 0.949 . S
C478 C484 1.368 . S
C479 C463 1.349 . S
C479 H471 0.950 . S
C479 C477 1.327 . S
C480 C468 1.349 . S
C480 H474 0.950 . S
C480 C481 1.327 . S
C481 H475 0.950 . S
C481 C480 1.327 . S
C481 C485 1.429 . S
C482 C465 1.574 . S
C482 H476 0.949 . S
C482 C486 1.368 . S
C483 C464 1.429 . S
C483 C477 1.429 . S
C483 C484 1.523 . S
C484 C465 1.368 . S
C484 C478 1.368 . S
C484 C483 1.523 . S
C485 C469 1.429 . S
C485 C481 1.429 . S
C485 C486 1.523 . S
C486 C470 1.368 . S
C486 C482 1.368 . S
C486 C485 1.523 . S
H487 C462 0.950 . S
H488 C464 0.950 . S
H489 C465 0.949 . S
H490 C467 0.950 . S
H491 C469 0.950 . S
C492 C493 1.349 . S
C492 C494 1.327 . S
C492 H517 0.950 . S
C493 C492 1.349 . S
C493 C509 1.349 . S
C494 C492 1.327 . S
C494 C513 1.429 . S
C494 H518 0.950 . S
C495 C512 1.574 . S
C495 C514 1.368 . S
C495 H519 0.949 . S
H496 C500 0.949 . S
C497 C498 1.349 . S
C497 C499 1.327 . S
C497 H520 0.950 . S
C498 C497 1.349 . S
C498 C510 1.349 . S
C499 C497 1.327 . S
C499 C515 1.429 . S
C499 H521 0.950 . S
C500 H496 0.949 . S
C500 C508 1.574 . S
C500 C516 1.368 . S
H501 C509 0.950 . S
H502 C507 0.950 . S
H503 C508 0.949 . S
H504 C510 0.950 . S
H505 C511 0.950 . S
H506 C512 0.949 . S
C507 H502 0.950 . S
C507 C509 1.327 . S
C507 C513 1.429 . S
C508 C500 1.574 . S
C508 H503 0.949 . S
C508 C514 1.368 . S
C509 C493 1.349 . S
C509 H501 0.950 . S
C509 C507 1.327 . S
C510 C498 1.349 . S
C510 H504 0.950 . S
C510 C511 1.327 . S
C511 H505 0.950 . S
C511 C510 1.327 . S
C511 C515 1.429 . S
C512 C495 1.574 . S
C512 H506 0.949 . S
C512 C516 1.368 . S
C513 C494 1.429 . S
C513 C507 1.429 . S
C513 C514 1.523 . S
C514 C495 1.368 . S
C514 C508 1.368 . S
C514 C513 1.523 . S
C515 C499 1.429 . S
C515 C511 1.429 . S
C515 C516 1.523 . S
C516 C500 1.368 . S
C516 C512 1.368 . S
C516 C515 1.523 . S
H517 C492 0.950 . S
H518 C494 0.950 . S
H519 C495 0.949 . S
H520 C497 0.950 . S
H521 C499 0.950 . S
C522 C523 1.349 . S
C522 C524 1.327 . S
C522 H547 0.950 . S
C523 C522 1.349 . S
C523 C539 1.349 . S
C524 C522 1.327 . S
C524 C543 1.429 . S
C524 H548 0.950 . S
C525 C542 1.580 . S
C525 C544 1.368 . S
C525 H549 0.949 1_565 S
H526 C530 0.949 . S
C527 C528 1.349 1_545 S
C527 C529 1.327 . S
C527 H550 0.950 . S
C528 C527 1.349 1_565 S
C528 C540 1.349 . S
C529 C527 1.327 . S
C529 C545 1.429 1_545 S
C529 H551 0.950 . S
C530 H526 0.949 . S
C530 C538 1.574 . S
C530 C546 1.368 . S
H531 C539 0.950 . S
H532 C537 0.911 1_545 S
H533 C538 0.949 . S
H534 C540 0.950 . S
H535 C541 0.950 . S
H536 C542 0.912 1_545 S
C537 H532 0.911 1_565 S
C537 C539 1.327 . S
C537 C543 1.429 . S
C538 C530 1.574 . S
C538 H533 0.949 . S
C538 C544 1.368 . S
C539 C523 1.349 . S
C539 H531 0.950 . S
C539 C537 1.327 . S
C540 C528 1.349 . S
C540 H534 0.950 . S
C540 C541 1.327 . S
C541 H535 0.950 . S
C541 C540 1.327 . S
C541 C545 1.429 . S
C542 C525 1.580 . S
C542 H536 0.912 1_565 S
C542 C546 1.406 . S
C543 C524 1.429 . S
C543 C537 1.429 . S
C543 C544 1.523 . S
C544 C525 1.368 . S
C544 C538 1.368 . S
C544 C543 1.523 . S
C545 C529 1.429 1_565 S
C545 C541 1.429 . S
C545 C546 1.523 . S
C546 C530 1.368 . S
C546 C542 1.406 . S
C546 C545 1.523 . S
H547 C522 0.950 . S
H548 C524 0.950 . S
H549 C525 0.949 1_545 S
H550 C527 0.950 . S
H551 C529 0.950 . S
C552 C553 1.349 . S
C552 C554 1.327 . S
C552 H577 0.950 . S
C553 C552 1.349 . S
C553 C569 1.349 . S
C554 C552 1.327 . S
C554 C573 1.429 . S
C554 H578 0.950 . S
C555 C572 1.574 . S
C555 C574 1.368 . S
C555 H579 0.949 . S
H556 C560 0.949 . S
C557 C558 1.349 . S
C557 C559 1.327 . S
C557 H580 0.950 . S
C558 C557 1.349 . S
C558 C570 1.349 . S
C559 C557 1.327 . S
C559 C575 1.429 . S
C559 H581 0.950 . S
C560 H556 0.949 . S
C560 C568 1.574 . S
C560 C576 1.368 . S
H561 C569 0.950 . S
H562 C567 0.950 . S
H563 C568 0.949 . S
H564 C570 0.950 . S
H565 C571 0.950 . S
H566 C572 0.949 . S
C567 H562 0.950 . S
C567 C569 1.327 . S
C567 C573 1.429 . S
C568 C560 1.574 . S
C568 H563 0.949 . S
C568 C574 1.368 . S
C569 C553 1.349 . S
C569 H561 0.950 . S
C569 C567 1.327 . S
C570 C558 1.349 . S
C570 H564 0.950 . S
C570 C571 1.327 . S
C571 H565 0.950 . S
C571 C570 1.327 . S
C571 C575 1.429 . S
C572 C555 1.574 . S
C572 H566 0.949 . S
C572 C576 1.368 . S
C573 C554 1.429 . S
C573 C567 1.429 . S
C573 C574 1.523 . S
C574 C555 1.368 . S
C574 C568 1.368 . S
C574 C573 1.523 . S
C575 C559 1.429 . S
C575 C571 1.429 . S
C575 C576 1.523 . S
C576 C560 1.368 . S
C576 C572 1.368 . S
C576 C575 1.523 . S
H577 C552 0.950 . S
H578 C554 0.950 . S
H579 C555 0.949 . S
H580 C557 0.950 . S
H581 C559 0.950 . S
C582 C583 1.349 . S
C582 C584 1.327 . S
C582 H607 0.950 . S
C583 C582 1.349 . S
C583 C599 1.349 . S
C584 C582 1.327 . S
C584 C603 1.429 . S
C584 H608 0.950 . S
C585 C602 1.574 . S
C585 C604 1.368 . S
C585 H609 0.949 . S
H586 C590 0.949 . S
C587 C588 1.349 . S
C587 C589 1.327 . S
C587 H610 0.950 . S
C588 C587 1.349 . S
C588 C600 1.349 . S
C589 C587 1.327 . S
C589 C605 1.429 . S
C589 H611 0.950 . S
C590 H586 0.949 . S
C590 C598 1.574 . S
C590 C606 1.368 . S
H591 C599 0.950 . S
H592 C597 0.950 . S
H593 C598 0.949 . S
H594 C600 0.950 . S
H595 C601 0.950 . S
H596 C602 0.949 . S
C597 H592 0.950 . S
C597 C599 1.327 . S
C597 C603 1.429 . S
C598 C590 1.574 . S
C598 H593 0.949 . S
C598 C604 1.368 . S
C599 C583 1.349 . S
C599 H591 0.950 . S
C599 C597 1.327 . S
C600 C588 1.349 . S
C600 H594 0.950 . S
C600 C601 1.327 . S
C601 H595 0.950 . S
C601 C600 1.327 . S
C601 C605 1.429 . S
C602 C585 1.574 . S
C602 H596 0.949 . S
C602 C606 1.368 . S
C603 C584 1.429 . S
C603 C597 1.429 . S
C603 C604 1.523 . S
C604 C585 1.368 . S
C604 C598 1.368 . S
C604 C603 1.523 . S
C605 C589 1.429 . S
C605 C601 1.429 . S
C605 C606 1.523 . S
C606 C590 1.368 . S
C606 C602 1.368 . S
C606 C605 1.523 . S
H607 C582 0.950 . S
H608 C584 0.950 . S
H609 C585 0.949 . S
H610 C587 0.950 . S
H611 C589 0.950 . S
C612 C613 1.349 . S
C612 C614 1.327 . S
C612 H637 0.950 . S
C613 C612 1.349 . S
C613 C629 1.349 . S
C614 C612 1.327 . S
C614 C633 1.429 . S
C614 H638 0.950 . S
C615 C632 1.574 . S
C615 C634 1.368 . S
C615 H639 0.949 . S
H616 C620 0.949 . S
C617 C618 1.349 . S
C617 C619 1.327 . S
C617 H640 0.950 . S
C618 C617 1.349 . S
C618 C630 1.349 . S
C619 C617 1.327 . S
C619 C635 1.429 . S
C619 H641 0.950 . S
C620 H616 0.949 . S
C620 C628 1.574 . S
C620 C636 1.368 . S
H621 C629 0.950 . S
H622 C627 0.950 . S
H623 C628 0.949 . S
H624 C630 0.950 . S
H625 C631 0.950 . S
H626 C632 0.949 . S
C627 H622 0.950 . S
C627 C629 1.327 . S
C627 C633 1.429 . S
C628 C620 1.574 . S
C628 H623 0.949 . S
C628 C634 1.368 . S
C629 C613 1.349 . S
C629 H621 0.950 . S
C629 C627 1.327 . S
C630 C618 1.349 . S
C630 H624 0.950 . S
C630 C631 1.327 . S
C631 H625 0.950 . S
C631 C630 1.327 . S
C631 C635 1.429 . S
C632 C615 1.574 . S
C632 H626 0.949 . S
C632 C636 1.368 . S
C633 C614 1.429 . S
C633 C627 1.429 . S
C633 C634 1.523 . S
C634 C615 1.368 . S
C634 C628 1.368 . S
C634 C633 1.523 . S
C635 C619 1.429 . S
C635 C631 1.429 . S
C635 C636 1.523 . S
C636 C620 1.368 . S
C636 C632 1.368 . S
C636 C635 1.523 . S
H637 C612 0.950 . S
H638 C614 0.950 . S
H639 C615 0.949 . S
H640 C617 0.950 . S
H641 C619 0.950 . S
C642 C643 1.349 . S
C642 C644 1.327 . S
C642 H667 0.950 . S
C643 C642 1.349 . S
C643 C659 1.349 . S
C644 C642 1.327 . S
C644 C663 1.429 . S
C644 H668 0.950 . S
C645 C662 1.574 . S
C645 C664 1.368 . S
C645 H669 0.949 . S
H646 C650 0.949 . S
C647 C648 1.349 . S
C647 C649 1.327 . S
C647 H670 0.950 . S
C648 C647 1.349 . S
C648 C660 1.349 . S
C649 C647 1.327 . S
C649 C665 1.429 . S
C649 H671 0.950 . S
C650 H646 0.949 . S
C650 C658 1.574 . S
C650 C666 1.368 . S
H651 C659 0.950 . S
H652 C657 0.950 . S
H653 C658 0.949 . S
H654 C660 0.950 . S
H655 C661 0.950 . S
H656 C662 0.949 . S
C657 H652 0.950 . S
C657 C659 1.327 . S
C657 C663 1.429 . S
C658 C650 1.574 . S
C658 H653 0.949 . S
C658 C664 1.368 . S
C659 C643 1.349 . S
C659 H651 0.950 . S
C659 C657 1.327 . S
C660 C648 1.349 . S
C660 H654 0.950 . S
C660 C661 1.327 . S
C661 H655 0.950 . S
C661 C660 1.327 . S
C661 C665 1.429 . S
C662 C645 1.574 . S
C662 H656 0.949 . S
C662 C666 1.368 . S
C663 C644 1.429 . S
C663 C657 1.429 . S
C663 C664 1.523 . S
C664 C645 1.368 . S
C664 C658 1.368 . S
C664 C663 1.523 . S
C665 C649 1.429 . S
C665 C661 1.429 . S
C665 C666 1.523 . S
C666 C650 1.368 . S
C666 C662 1.368 . S
C666 C665 1.523 . S
H667 C642 0.950 . S
H668 C644 0.950 . S
H669 C645 0.949 . S
H670 C647 0.950 . S
H671 C649 0.950 . S
C672 C673 1.349 . S
C672 C674 1.327 . S
C672 H697 0.950 . S
C673 C672 1.349 . S
C673 C689 1.349 . S
C674 C672 1.327 . S
C674 C693 1.429 . S
C674 H698 0.950 . S
C675 C692 1.574 . S
C675 C694 1.368 . S
C675 H699 0.949 . S
H676 C680 0.949 . S
C677 C678 1.349 . S
C677 C679 1.327 . S
C677 H700 0.950 . S
C678 C677 1.349 . S
C678 C690 1.349 . S
C679 C677 1.327 . S
C679 C695 1.429 . S
C679 H701 0.950 . S
C680 H676 0.949 . S
C680 C688 1.574 . S
C680 C696 1.368 . S
H681 C689 0.950 . S
H682 C687 0.950 . S
H683 C688 0.949 . S
H684 C690 0.950 . S
H685 C691 0.950 . S
H686 C692 0.949 . S
C687 H682 0.950 . S
C687 C689 1.327 . S
C687 C693 1.429 . S
C688 C680 1.574 . S
C688 H683 0.949 . S
C688 C694 1.368 . S
C689 C673 1.349 . S
C689 H681 0.950 . S
C689 C687 1.327 . S
C690 C678 1.349 . S
C690 H684 0.950 . S
C690 C691 1.327 . S
C691 H685 0.950 . S
C691 C690 1.327 . S
C691 C695 1.429 . S
C692 C675 1.574 . S
C692 H686 0.949 . S
C692 C696 1.368 . S
C693 C674 1.429 . S
C693 C687 1.429 . S
C693 C694 1.523 . S
C694 C675 1.368 . S
C694 C688 1.368 . S
C694 C693 1.523 . S
C695 C679 1.429 . S
C695 C691 1.429 . S
C695 C696 1.523 . S
C696 C680 1.368 . S
C696 C692 1.368 . S
C696 C695 1.523 . S
H697 C672 0.950 . S
H698 C674 0.950 . S
H699 C675 0.949 . S
H700 C677 0.950 . S
H701 C679 0.950 . S
C702 C703 1.349 . S
C702 C704 1.327 . S
C702 H727 0.950 . S
C703 C702 1.349 . S
C703 C719 1.349 . S
C704 C702 1.327 . S
C704 C723 1.429 . S
C704 H728 0.950 . S
C705 C722 1.574 . S
C705 C724 1.368 . S
C705 H729 0.949 . S
H706 C710 0.949 . S
C707 C708 1.376 . S
C707 C709 1.335 . S
C707 H730 0.915 1_455 S
C708 C707 1.376 . S
C708 C720 1.349 . S
C709 C707 1.335 . S
C709 C725 1.429 . S
C709 H731 0.950 1_455 S
C710 H706 0.949 . S
C710 C718 1.574 . S
C710 C726 1.368 . S
H711 C719 0.950 . S
H712 C717 0.950 . S
H713 C718 0.949 . S
H714 C720 0.950 . S
H715 C721 0.950 . S
H716 C722 0.945 . S
C717 H712 0.950 . S
C717 C719 1.327 . S
C717 C723 1.429 . S
C718 C710 1.574 . S
C718 H713 0.949 . S
C718 C724 1.368 . S
C719 C703 1.349 . S
C719 H711 0.950 . S
C719 C717 1.327 . S
C720 C708 1.349 . S
C720 H714 0.950 . S
C720 C721 1.327 . S
C721 H715 0.950 . S
C721 C720 1.327 . S
C721 C725 1.429 . S
C722 C705 1.574 . S
C722 H716 0.945 . S
C722 C726 1.368 . S
C723 C704 1.429 . S
C723 C717 1.429 . S
C723 C724 1.523 . S
C724 C705 1.368 . S
C724 C718 1.368 . S
C724 C723 1.523 . S
C725 C709 1.429 . S
C725 C721 1.429 . S
C725 C726 1.523 . S
C726 C710 1.368 . S
C726 C722 1.368 . S
C726 C725 1.523 . S
H727 C702 0.950 . S
H728 C704 0.950 . S
H729 C705 0.949 . S
H730 C707 0.915 1_655 S
H731 C709 0.950 1_655 S
C732 C733 1.349 . S
C732 C734 1.327 . S
C732 H757 0.950 . S
C733 C732 1.349 . S
C733 C749 1.349 . S
C734 C732 1.327 . S
C734 C753 1.429 . S
C734 H758 0.950 . S
C735 C752 1.574 . S
C735 C754 1.368 . S
C735 H759 0.949 . S
H736 C740 0.949 . S
C737 C738 1.349 . S
C737 C739 1.327 . S
C737 H760 0.950 . S
C738 C737 1.349 . S
C738 C750 1.349 . S
C739 C737 1.327 . S
C739 C755 1.429 . S
C739 H761 0.950 . S
C740 H736 0.949 . S
C740 C748 1.574 . S
C740 C756 1.368 . S
H741 C749 0.950 . S
H742 C747 0.950 . S
H743 C748 0.949 . S
H744 C750 0.950 . S
H745 C751 0.950 . S
H746 C752 0.949 . S
C747 H742 0.950 . S
C747 C749 1.327 . S
C747 C753 1.429 . S
C748 C740 1.574 . S
C748 H743 0.949 . S
C748 C754 1.368 . S
C749 C733 1.349 . S
C749 H741 0.950 . S
C749 C747 1.327 . S
C750 C738 1.349 . S
C750 H744 0.950 . S
C750 C751 1.327 . S
C751 H745 0.950 . S
C751 C750 1.327 . S
C751 C755 1.429 . S
C752 C735 1.574 . S
C752 H746 0.949 . S
C752 C756 1.368 . S
C753 C734 1.429 . S
C753 C747 1.429 . S
C753 C754 1.523 . S
C754 C735 1.368 . S
C754 C748 1.368 . S
C754 C753 1.523 . S
C755 C739 1.429 . S
C755 C751 1.429 . S
C755 C756 1.523 . S
C756 C740 1.368 . S
C756 C752 1.368 . S
C756 C755 1.523 . S
H757 C732 0.950 . S
H758 C734 0.950 . S
H759 C735 0.949 . S
H760 C737 0.950 . S
H761 C739 0.950 . S
C762 C763 1.349 . S
C762 C764 1.327 . S
C762 H787 0.950 . S
C763 C762 1.349 . S
C763 C779 1.349 . S
C764 C762 1.327 . S
C764 C783 1.429 . S
C764 H788 0.950 . S
C765 C782 1.574 . S
C765 C784 1.368 . S
C765 H789 0.949 1_655 S
H766 C770 0.949 . S
C767 C768 1.349 1_455 S
C767 C769 1.327 . S
C767 H790 0.950 . S
C768 C767 1.349 1_655 S
C768 C780 1.349 . S
C769 C767 1.327 . S
C769 C785 1.429 1_455 S
C769 H791 0.950 . S
C770 H766 0.949 . S
C770 C778 1.574 . S
C770 C786 1.368 . S
H771 C779 0.950 . S
H772 C777 0.976 . S
H773 C778 0.949 . S
H774 C780 0.950 . S
H775 C781 0.950 . S
H776 C782 0.949 1_455 S
C777 H772 0.976 . S
C777 C779 1.327 . S
C777 C783 1.429 . S
C778 C770 1.574 . S
C778 H773 0.949 . S
C778 C784 1.368 . S
C779 C763 1.349 . S
C779 H771 0.950 . S
C779 C777 1.327 . S
C780 C768 1.349 . S
C780 H774 0.950 . S
C780 C781 1.327 . S
C781 H775 0.950 . S
C781 C780 1.327 . S
C781 C785 1.429 . S
C782 C765 1.574 . S
C782 H776 0.949 1_655 S
C782 C786 1.368 . S
C783 C764 1.429 . S
C783 C777 1.429 . S
C783 C784 1.523 . S
C784 C765 1.368 . S
C784 C778 1.368 . S
C784 C783 1.523 . S
C785 C769 1.429 1_655 S
C785 C781 1.429 . S
C785 C786 1.523 . S
C786 C770 1.368 . S
C786 C782 1.368 . S
C786 C785 1.523 . S
H787 C762 0.950 . S
H788 C764 0.950 . S
H789 C765 0.949 1_455 S
H790 C767 0.950 . S
H791 C769 0.950 . S
C792 C793 1.349 . S
C792 C794 1.327 . S
C792 H817 0.950 . S
C793 C792 1.349 . S
C793 C809 1.349 . S
C794 C792 1.327 . S
C794 C813 1.429 . S
C794 H818 0.950 . S
C795 C812 1.574 . S
C795 C814 1.368 . S
C795 H819 0.949 . S
H796 C800 0.949 . S
C797 C798 1.349 . S
C797 C799 1.327 . S
C797 H820 0.950 . S
C798 C797 1.349 . S
C798 C810 1.349 . S
C799 C797 1.327 . S
C799 C815 1.429 . S
C799 H821 0.950 . S
C800 H796 0.949 . S
C800 C808 1.574 . S
C800 C816 1.368 . S
H801 C809 0.950 . S
H802 C807 0.950 . S
H803 C808 0.949 . S
H804 C810 0.950 . S
H805 C811 0.950 . S
H806 C812 0.949 . S
C807 H802 0.950 . S
C807 C809 1.327 . S
C807 C813 1.429 . S
C808 C800 1.574 . S
C808 H803 0.949 . S
C808 C814 1.368 . S
C809 C793 1.349 . S
C809 H801 0.950 . S
C809 C807 1.327 . S
C810 C798 1.349 . S
C810 H804 0.950 . S
C810 C811 1.327 . S
C811 H805 0.950 . S
C811 C810 1.327 . S
C811 C815 1.429 . S
C812 C795 1.574 . S
C812 H806 0.949 . S
C812 C816 1.368 . S
C813 C794 1.429 . S
C813 C807 1.429 . S
C813 C814 1.523 . S
C814 C795 1.368 . S
C814 C808 1.368 . S
C814 C813 1.523 . S
C815 C799 1.429 . S
C815 C811 1.429 . S
C815 C816 1.523 . S
C816 C800 1.368 . S
C816 C812 1.368 . S
C816 C815 1.523 . S
H817 C792 0.950 . S
H818 C794 0.950 . S
H819 C795 0.949 . S
H820 C797 0.950 . S
H821 C799 0.950 . S
C822 C823 1.349 . S
C822 C824 1.327 . S
C822 H847 0.950 . S
C823 C822 1.349 . S
C823 C839 1.349 . S
C824 C822 1.327 . S
C824 C843 1.429 . S
C824 H848 0.950 . S
C825 C842 1.574 . S
C825 C844 1.368 . S
C825 H849 0.949 . S
H826 C830 0.949 . S
C827 C828 1.349 . S
C827 C829 1.327 . S
C827 H850 0.950 . S
C828 C827 1.349 . S
C828 C840 1.349 . S
C829 C827 1.327 . S
C829 C845 1.429 . S
C829 H851 0.950 . S
C830 H826 0.949 . S
C830 C838 1.574 . S
C830 C846 1.368 . S
H831 C839 0.950 . S
H832 C837 0.950 . S
H833 C838 0.949 . S
H834 C840 0.950 . S
H835 C841 0.950 . S
H836 C842 0.949 . S
C837 H832 0.950 . S
C837 C839 1.327 . S
C837 C843 1.429 . S
C838 C830 1.574 . S
C838 H833 0.949 . S
C838 C844 1.368 . S
C839 C823 1.349 . S
C839 H831 0.950 . S
C839 C837 1.327 . S
C840 C828 1.349 . S
C840 H834 0.950 . S
C840 C841 1.327 . S
C841 H835 0.950 . S
C841 C840 1.327 . S
C841 C845 1.429 . S
C842 C825 1.574 . S
C842 H836 0.949 . S
C842 C846 1.368 . S
C843 C824 1.429 . S
C843 C837 1.429 . S
C843 C844 1.523 . S
C844 C825 1.368 . S
C844 C838 1.368 . S
C844 C843 1.523 . S
C845 C829 1.429 . S
C845 C841 1.429 . S
C845 C846 1.523 . S
C846 C830 1.368 . S
C846 C842 1.368 . S
C846 C845 1.523 . S
H847 C822 0.950 . S
H848 C824 0.950 . S
H849 C825 0.949 . S
H850 C827 0.950 . S
H851 C829 0.950 . S
C852 C853 1.349 . S
C852 C854 1.326 . S
C852 H877 0.950 . S
C853 C852 1.349 . S
C853 C869 1.349 1_545 S
C854 C852 1.326 . S
C854 C873 1.430 1_545 S
C854 H878 0.945 . S
C855 C872 1.574 . S
C855 C874 1.368 . S
C855 H879 0.949 . S
H856 C860 0.927 1_554 S
C857 C858 1.349 . S
C857 C859 1.327 . S
C857 H880 0.950 . S
C858 C857 1.349 . S
C858 C870 1.349 1_556 S
C859 C857 1.327 . S
C859 C875 1.429 . S
C859 H881 0.950 . S
C860 H856 0.927 1_556 S
C860 C868 1.580 . S
C860 C876 1.388 . S
H861 C869 0.950 . S
H862 C867 0.950 . S
H863 C868 0.949 1_554 S
H864 C870 0.950 . S
H865 C871 0.950 . S
H866 C872 0.949 . S
C867 H862 0.950 . S
C867 C869 1.327 . S
C867 C873 1.429 . S
C868 C860 1.580 . S
C868 H863 0.949 1_556 S
C868 C874 1.368 . S
C869 C853 1.349 1_565 S
C869 H861 0.950 . S
C869 C867 1.327 . S
C870 C858 1.349 1_554 S
C870 H864 0.950 . S
C870 C871 1.327 . S
C871 H865 0.950 . S
C871 C870 1.327 . S
C871 C875 1.429 1_554 S
C872 C855 1.574 . S
C872 H866 0.949 . S
C872 C876 1.368 . S
C873 C854 1.430 1_565 S
C873 C867 1.429 . S
C873 C874 1.523 . S
C874 C855 1.368 . S
C874 C868 1.368 . S
C874 C873 1.523 . S
C875 C859 1.429 . S
C875 C871 1.429 1_556 S
C875 C876 1.523 . S
C876 C860 1.388 . S
C876 C872 1.368 . S
C876 C875 1.523 . S
H877 C852 0.950 . S
H878 C854 0.945 . S
H879 C855 0.949 . S
H880 C857 0.950 . S
H881 C859 0.950 . S
C882 C883 1.349 . S
C882 C884 1.327 . S
C882 H907 0.950 . S
C883 C882 1.349 . S
C883 C899 1.349 . S
C884 C882 1.327 . S
C884 C903 1.429 . S
C884 H908 0.950 . S
C885 C902 1.574 . S
C885 C904 1.368 . S
C885 H909 0.949 . S
H886 C890 0.949 . S
C887 C888 1.349 . S
C887 C889 1.327 . S
C887 H910 0.950 . S
C888 C887 1.349 . S
C888 C900 1.349 . S
C889 C887 1.327 . S
C889 C905 1.429 . S
C889 H911 0.950 . S
C890 H886 0.949 . S
C890 C898 1.574 . S
C890 C906 1.368 . S
H891 C899 0.950 . S
H892 C897 0.950 . S
H893 C898 0.949 . S
H894 C900 0.950 . S
H895 C901 0.950 . S
H896 C902 0.949 . S
C897 H892 0.950 . S
C897 C899 1.327 . S
C897 C903 1.429 . S
C898 C890 1.574 . S
C898 H893 0.949 . S
C898 C904 1.368 . S
C899 C883 1.349 . S
C899 H891 0.950 . S
C899 C897 1.327 . S
C900 C888 1.349 . S
C900 H894 0.950 . S
C900 C901 1.327 . S
C901 H895 0.950 . S
C901 C900 1.327 . S
C901 C905 1.429 . S
C902 C885 1.574 . S
C902 H896 0.949 . S
C902 C906 1.368 . S
C903 C884 1.429 . S
C903 C897 1.429 . S
C903 C904 1.523 . S
C904 C885 1.368 . S
C904 C898 1.368 . S
C904 C903 1.523 . S
C905 C889 1.429 . S
C905 C901 1.429 . S
C905 C906 1.523 . S
C906 C890 1.368 . S
C906 C902 1.368 . S
C906 C905 1.523 . S
H907 C882 0.950 . S
H908 C884 0.950 . S
H909 C885 0.949 . S
H910 C887 0.950 . S
H911 C889 0.950 . S
C912 C913 1.349 1_545 S
C912 C914 1.327 . S
C912 H937 0.950 . S
C913 C912 1.349 1_565 S
C913 C929 1.349 . S
C914 C912 1.327 . S
C914 C933 1.429 . S
C914 H938 0.950 . S
C915 C932 1.574 . S
C915 C934 1.368 . S
C915 H939 0.949 . S
H916 C920 0.949 . S
C917 C918 1.349 . S
C917 C919 1.327 . S
C917 H940 0.950 . S
C918 C917 1.349 . S
C918 C930 1.349 . S
C919 C917 1.327 . S
C919 C935 1.429 . S
C919 H941 0.950 . S
C920 H916 0.949 . S
C920 C928 1.574 . S
C920 C936 1.368 . S
H921 C929 0.950 . S
H922 C927 0.950 . S
H923 C928 0.949 . S
H924 C930 0.950 . S
H925 C931 0.950 . S
H926 C932 0.949 . S
C927 H922 0.950 . S
C927 C929 1.327 1_545 S
C927 C933 1.429 . S
C928 C920 1.574 . S
C928 H923 0.949 . S
C928 C934 1.368 . S
C929 C913 1.349 . S
C929 H921 0.950 . S
C929 C927 1.327 1_565 S
C930 C918 1.349 . S
C930 H924 0.950 . S
C930 C931 1.327 . S
C931 H925 0.950 . S
C931 C930 1.327 . S
C931 C935 1.429 . S
C932 C915 1.574 . S
C932 H926 0.949 . S
C932 C936 1.368 . S
C933 C914 1.429 . S
C933 C927 1.429 . S
C933 C934 1.523 . S
C934 C915 1.368 . S
C934 C928 1.368 . S
C934 C933 1.523 . S
C935 C919 1.429 . S
C935 C931 1.429 . S
C935 C936 1.523 . S
C936 C920 1.368 . S
C936 C932 1.368 . S
C936 C935 1.523 . S
H937 C912 0.950 . S
H938 C914 0.950 . S
H939 C915 0.949 . S
H940 C917 0.950 . S
H941 C919 0.950 . S
C942 C943 1.349 . S
C942 C944 1.327 . S
C942 H967 0.950 . S
C943 C942 1.349 . S
C943 C959 1.349 . S
C944 C942 1.327 . S
C944 C963 1.429 . S
C944 H968 0.950 . S
C945 C962 1.574 . S
C945 C964 1.368 . S
C945 H969 0.949 . S
H946 C950 0.949 . S
C947 C948 1.349 . S
C947 C949 1.327 . S
C947 H970 0.950 . S
C948 C947 1.349 . S
C948 C960 1.349 . S
C949 C947 1.327 . S
C949 C965 1.429 . S
C949 H971 0.950 . S
C950 H946 0.949 . S
C950 C958 1.574 . S
C950 C966 1.368 . S
H951 C959 0.950 . S
H952 C957 0.950 . S
H953 C958 0.949 . S
H954 C960 0.950 . S
H955 C961 0.950 . S
H956 C962 0.949 . S
C957 H952 0.950 . S
C957 C959 1.327 . S
C957 C963 1.429 . S
C958 C950 1.574 . S
C958 H953 0.949 . S
C958 C964 1.368 . S
C959 C943 1.349 . S
C959 H951 0.950 . S
C959 C957 1.327 . S
C960 C948 1.349 . S
C960 H954 0.950 . S
C960 C961 1.327 . S
C961 H955 0.950 . S
C961 C960 1.327 . S
C961 C965 1.429 . S
C962 C945 1.574 . S
C962 H956 0.949 . S
C962 C966 1.368 . S
C963 C944 1.429 . S
C963 C957 1.429 . S
C963 C964 1.523 . S
C964 C945 1.368 . S
C964 C958 1.368 . S
C964 C963 1.523 . S
C965 C949 1.429 . S
C965 C961 1.429 . S
C965 C966 1.523 . S
C966 C950 1.368 . S
C966 C962 1.368 . S
C966 C965 1.523 . S
H967 C942 0.950 . S
H968 C944 0.950 . S
H969 C945 0.949 . S
H970 C947 0.950 . S
H971 C949 0.950 . S
C972 C973 1.349 . S
C972 C974 1.327 . S
C972 H997 0.950 . S
C973 C972 1.349 . S
C973 C989 1.349 1_565 S
C974 C972 1.327 . S
C974 C993 1.429 1_565 S
C974 H998 0.950 . S
C975 C992 1.574 . S
C975 C994 1.368 . S
C975 H999 0.949 . S
H976 C980 0.949 . S
C977 C978 1.349 . S
C977 C979 1.327 . S
C977 H1000 0.950 . S
C978 C977 1.349 . S
C978 C990 1.349 . S
C979 C977 1.327 . S
C979 C995 1.429 . S
C979 H1001 0.950 . S
C980 H976 0.949 . S
C980 C988 1.574 . S
C980 C996 1.368 . S
H981 C989 0.950 . S
H982 C987 0.950 . S
H983 C988 0.949 . S
H984 C990 0.950 . S
H985 C991 0.950 . S
H986 C992 0.949 . S
C987 H982 0.950 . S
C987 C989 1.327 . S
C987 C993 1.429 . S
C988 C980 1.574 . S
C988 H983 0.949 . S
C988 C994 1.368 . S
C989 C973 1.349 1_545 S
C989 H981 0.950 . S
C989 C987 1.327 . S
C990 C978 1.349 . S
C990 H984 0.950 . S
C990 C991 1.327 . S
C991 H985 0.950 . S
C991 C990 1.327 . S
C991 C995 1.429 . S
C992 C975 1.574 . S
C992 H986 0.949 . S
C992 C996 1.368 . S
C993 C974 1.429 1_545 S
C993 C987 1.429 . S
C993 C994 1.523 . S
C994 C975 1.368 . S
C994 C988 1.368 . S
C994 C993 1.523 . S
C995 C979 1.429 . S
C995 C991 1.429 . S
C995 C996 1.523 . S
C996 C980 1.368 . S
C996 C992 1.368 . S
C996 C995 1.523 . S
H997 C972 0.950 . S
H998 C974 0.950 . S
H999 C975 0.949 . S
H1000 C977 0.950 . S
H1001 C979 0.950 . S
C1002 C1003 1.349 . S
C1002 C1004 1.327 . S
C1002 H1027 0.950 . S
C1003 C1002 1.349 . S
C1003 C1019 1.349 . S
C1004 C1002 1.327 . S
C1004 C1023 1.429 . S
C1004 H1028 0.950 . S
C1005 C1022 1.574 . S
C1005 C1024 1.368 . S
C1005 H1029 0.949 . S
H1006 C1010 0.949 . S
C1007 C1008 1.349 . S
C1007 C1009 1.327 . S
C1007 H1030 0.950 . S
C1008 C1007 1.349 . S
C1008 C1020 1.349 . S
C1009 C1007 1.327 . S
C1009 C1025 1.429 . S
C1009 H1031 0.950 . S
C1010 H1006 0.949 . S
C1010 C1018 1.574 . S
C1010 C1026 1.368 . S
H1011 C1019 0.950 . S
H1012 C1017 0.950 . S
H1013 C1018 0.949 . S
H1014 C1020 0.950 . S
H1015 C1021 0.950 . S
H1016 C1022 0.949 . S
C1017 H1012 0.950 . S
C1017 C1019 1.327 . S
C1017 C1023 1.429 . S
C1018 C1010 1.574 . S
C1018 H1013 0.949 . S
C1018 C1024 1.368 . S
C1019 C1003 1.349 . S
C1019 H1011 0.950 . S
C1019 C1017 1.327 . S
C1020 C1008 1.349 . S
C1020 H1014 0.950 . S
C1020 C1021 1.327 . S
C1021 H1015 0.950 . S
C1021 C1020 1.327 . S
C1021 C1025 1.429 . S
C1022 C1005 1.574 . S
C1022 H1016 0.949 . S
C1022 C1026 1.368 . S
C1023 C1004 1.429 . S
C1023 C1017 1.429 . S
C1023 C1024 1.523 . S
C1024 C1005 1.368 . S
C1024 C1018 1.368 . S
C1024 C1023 1.523 . S
C1025 C1009 1.429 . S
C1025 C1021 1.429 . S
C1025 C1026 1.523 . S
C1026 C1010 1.368 . S
C1026 C1022 1.368 . S
C1026 C1025 1.523 . S
H1027 C1002 0.950 . S
H1028 C1004 0.950 . S
H1029 C1005 0.949 . S
H1030 C1007 0.950 . S
H1031 C1009 0.950 . S
C1032 C1033 1.349 . S
C1032 C1034 1.327 . S
C1032 H1057 0.950 . S
C1033 C1032 1.349 . S
C1033 C1049 1.349 . S
C1034 C1032 1.327 . S
C1034 C1053 1.429 . S
C1034 H1058 0.950 . S
C1035 C1052 1.574 . S
C1035 C1054 1.368 . S
C1035 H1059 0.949 . S
H1036 C1040 0.949 . S
C1037 C1038 1.349 . S
C1037 C1039 1.327 . S
C1037 H1060 0.950 . S
C1038 C1037 1.349 . S
C1038 C1050 1.349 . S
C1039 C1037 1.327 . S
C1039 C1055 1.429 . S
C1039 H1061 0.950 . S
C1040 H1036 0.949 . S
C1040 C1048 1.574 . S
C1040 C1056 1.368 . S
H1041 C1049 0.950 . S
H1042 C1047 0.950 . S
H1043 C1048 0.949 . S
H1044 C1050 0.950 . S
H1045 C1051 0.950 . S
H1046 C1052 0.949 . S
C1047 H1042 0.950 . S
C1047 C1049 1.327 . S
C1047 C1053 1.429 . S
C1048 C1040 1.574 . S
C1048 H1043 0.949 . S
C1048 C1054 1.368 . S
C1049 C1033 1.349 . S
C1049 H1041 0.950 . S
C1049 C1047 1.327 . S
C1050 C1038 1.349 . S
C1050 H1044 0.950 . S
C1050 C1051 1.327 . S
C1051 H1045 0.950 . S
C1051 C1050 1.327 . S
C1051 C1055 1.429 . S
C1052 C1035 1.574 . S
C1052 H1046 0.949 . S
C1052 C1056 1.368 . S
C1053 C1034 1.429 . S
C1053 C1047 1.429 . S
C1053 C1054 1.523 . S
C1054 C1035 1.368 . S
C1054 C1048 1.368 . S
C1054 C1053 1.523 . S
C1055 C1039 1.429 . S
C1055 C1051 1.429 . S
C1055 C1056 1.523 . S
C1056 C1040 1.368 . S
C1056 C1052 1.368 . S
C1056 C1055 1.523 . S
H1057 C1032 0.950 . S
H1058 C1034 0.950 . S
H1059 C1035 0.949 . S
H1060 C1037 0.950 . S
H1061 C1039 0.950 . S
C1062 C1063 1.349 . S
C1062 C1064 1.327 . S
C1062 H1087 0.950 . S
C1063 C1062 1.349 . S
C1063 C1079 1.349 . S
C1064 C1062 1.327 . S
C1064 C1083 1.429 . S
C1064 H1088 0.950 1_545 S
C1065 C1082 1.574 . S
C1065 C1084 1.368 . S
C1065 H1089 0.949 . S
H1066 C1070 0.948 1_565 S
C1067 C1068 1.349 . S
C1067 C1069 1.327 . S
C1067 H1090 0.950 . S
C1068 C1067 1.349 . S
C1068 C1080 1.349 1_545 S
C1069 C1067 1.327 . S
C1069 C1085 1.429 . S
C1069 H1091 0.950 . S
C1070 H1066 0.948 1_545 S
C1070 C1078 1.574 . S
C1070 C1086 1.369 . S
H1071 C1079 0.950 . S
H1072 C1077 0.950 . S
H1073 C1078 0.949 1_565 S
H1074 C1080 0.950 . S
H1075 C1081 0.950 . S
H1076 C1082 0.949 . S
C1077 H1072 0.950 . S
C1077 C1079 1.327 . S
C1077 C1083 1.429 . S
C1078 C1070 1.574 . S
C1078 H1073 0.949 1_545 S
C1078 C1084 1.368 . S
C1079 C1063 1.349 . S
C1079 H1071 0.950 . S
C1079 C1077 1.327 . S
C1080 C1068 1.349 1_565 S
C1080 H1074 0.950 . S
C1080 C1081 1.327 . S
C1081 H1075 0.950 . S
C1081 C1080 1.327 . S
C1081 C1085 1.429 1_565 S
C1082 C1065 1.574 . S
C1082 H1076 0.949 . S
C1082 C1086 1.368 . S
C1083 C1064 1.429 . S
C1083 C1077 1.429 . S
C1083 C1084 1.523 . S
C1084 C1065 1.368 . S
C1084 C1078 1.368 . S
C1084 C1083 1.523 . S
C1085 C1069 1.429 . S
C1085 C1081 1.429 1_545 S
C1085 C1086 1.523 . S
C1086 C1070 1.369 . S
C1086 C1082 1.368 . S
C1086 C1085 1.523 . S
H1087 C1062 0.950 . S
H1088 C1064 0.950 1_565 S
H1089 C1065 0.949 . S
H1090 C1067 0.950 . S
H1091 C1069 0.950 . S
C1092 C1093 1.349 . S
C1092 C1094 1.327 . S
C1092 H1117 0.950 . S
C1093 C1092 1.349 . S
C1093 C1109 1.349 . S
C1094 C1092 1.327 . S
C1094 C1113 1.429 . S
C1094 H1118 0.950 . S
C1095 C1112 1.574 . S
C1095 C1114 1.368 . S
C1095 H1119 0.949 . S
H1096 C1100 0.949 . S
C1097 C1098 1.349 . S
C1097 C1099 1.327 . S
C1097 H1120 0.950 . S
C1098 C1097 1.349 . S
C1098 C1110 1.349 . S
C1099 C1097 1.327 . S
C1099 C1115 1.429 . S
C1099 H1121 0.950 . S
C1100 H1096 0.949 . S
C1100 C1108 1.574 . S
C1100 C1116 1.368 . S
H1101 C1109 0.950 . S
H1102 C1107 0.950 . S
H1103 C1108 0.949 . S
H1104 C1110 0.950 . S
H1105 C1111 0.950 . S
H1106 C1112 0.949 . S
C1107 H1102 0.950 . S
C1107 C1109 1.327 . S
C1107 C1113 1.429 . S
C1108 C1100 1.574 . S
C1108 H1103 0.949 . S
C1108 C1114 1.368 . S
C1109 C1093 1.349 . S
C1109 H1101 0.950 . S
C1109 C1107 1.327 . S
C1110 C1098 1.349 . S
C1110 H1104 0.950 . S
C1110 C1111 1.327 . S
C1111 H1105 0.950 . S
C1111 C1110 1.327 . S
C1111 C1115 1.429 . S
C1112 C1095 1.574 . S
C1112 H1106 0.949 . S
C1112 C1116 1.368 . S
C1113 C1094 1.429 . S
C1113 C1107 1.429 . S
C1113 C1114 1.523 . S
C1114 C1095 1.368 . S
C1114 C1108 1.368 . S
C1114 C1113 1.523 . S
C1115 C1099 1.429 . S
C1115 C1111 1.429 . S
C1115 C1116 1.523 . S
C1116 C1100 1.368 . S
C1116 C1112 1.368 . S
C1116 C1115 1.523 . S
H1117 C1092 0.950 . S
H1118 C1094 0.950 . S
H1119 C1095 0.949 . S
H1120 C1097 0.950 . S
H1121 C1099 0.950 . S
C1122 C1123 1.349 . S
C1122 C1124 1.327 . S
C1122 H1147 0.950 . S
C1123 C1122 1.349 . S
C1123 C1139 1.349 . S
C1124 C1122 1.327 . S
C1124 C1143 1.429 . S
C1124 H1148 0.950 . S
C1125 C1142 1.574 . S
C1125 C1144 1.368 . S
C1125 H1149 0.949 . S
H1126 C1130 0.949 . S
C1127 C1128 1.349 . S
C1127 C1129 1.327 . S
C1127 H1150 0.950 . S
C1128 C1127 1.349 . S
C1128 C1140 1.349 . S
C1129 C1127 1.327 . S
C1129 C1145 1.429 . S
C1129 H1151 0.950 . S
C1130 H1126 0.949 . S
C1130 C1138 1.574 . S
C1130 C1146 1.368 . S
H1131 C1139 0.950 . S
H1132 C1137 0.950 . S
H1133 C1138 0.949 . S
H1134 C1140 0.950 . S
H1135 C1141 0.950 . S
H1136 C1142 0.949 . S
C1137 H1132 0.950 . S
C1137 C1139 1.327 . S
C1137 C1143 1.429 . S
C1138 C1130 1.574 . S
C1138 H1133 0.949 . S
C1138 C1144 1.368 . S
C1139 C1123 1.349 . S
C1139 H1131 0.950 . S
C1139 C1137 1.327 . S
C1140 C1128 1.349 . S
C1140 H1134 0.950 . S
C1140 C1141 1.327 . S
C1141 H1135 0.950 . S
C1141 C1140 1.327 . S
C1141 C1145 1.429 . S
C1142 C1125 1.574 . S
C1142 H1136 0.949 . S
C1142 C1146 1.368 . S
C1143 C1124 1.429 . S
C1143 C1137 1.429 . S
C1143 C1144 1.523 . S
C1144 C1125 1.368 . S
C1144 C1138 1.368 . S
C1144 C1143 1.523 . S
C1145 C1129 1.429 . S
C1145 C1141 1.429 . S
C1145 C1146 1.523 . S
C1146 C1130 1.368 . S
C1146 C1142 1.368 . S
C1146 C1145 1.523 . S
H1147 C1122 0.950 . S
H1148 C1124 0.950 . S
H1149 C1125 0.949 . S
H1150 C1127 0.950 . S
H1151 C1129 0.950 . S
C1152 C1153 1.349 . S
C1152 C1154 1.327 . S
C1152 H1177 0.950 . S
C1153 C1152 1.349 . S
C1153 C1169 1.349 . S
C1154 C1152 1.327 . S
C1154 C1173 1.429 . S
C1154 H1178 0.950 . S
C1155 C1172 1.574 . S
C1155 C1174 1.368 . S
C1155 H1179 0.949 . S
H1156 C1160 0.949 . S
C1157 C1158 1.349 . S
C1157 C1159 1.327 . S
C1157 H1180 0.950 . S
C1158 C1157 1.349 . S
C1158 C1170 1.349 . S
C1159 C1157 1.327 . S
C1159 C1175 1.429 . S
C1159 H1181 0.950 . S
C1160 H1156 0.949 . S
C1160 C1168 1.574 . S
C1160 C1176 1.368 . S
H1161 C1169 0.950 . S
H1162 C1167 0.950 . S
H1163 C1168 0.949 . S
H1164 C1170 0.950 . S
H1165 C1171 0.950 . S
H1166 C1172 0.949 . S
C1167 H1162 0.950 . S
C1167 C1169 1.327 . S
C1167 C1173 1.429 . S
C1168 C1160 1.574 . S
C1168 H1163 0.949 . S
C1168 C1174 1.368 . S
C1169 C1153 1.349 . S
C1169 H1161 0.950 . S
C1169 C1167 1.327 . S
C1170 C1158 1.349 . S
C1170 H1164 0.950 . S
C1170 C1171 1.327 . S
C1171 H1165 0.950 . S
C1171 C1170 1.327 . S
C1171 C1175 1.429 . S
C1172 C1155 1.574 . S
C1172 H1166 0.949 . S
C1172 C1176 1.368 . S
C1173 C1154 1.429 . S
C1173 C1167 1.429 . S
C1173 C1174 1.523 . S
C1174 C1155 1.368 . S
C1174 C1168 1.368 . S
C1174 C1173 1.523 . S
C1175 C1159 1.429 . S
C1175 C1171 1.429 . S
C1175 C1176 1.523 . S
C1176 C1160 1.368 . S
C1176 C1172 1.368 . S
C1176 C1175 1.523 . S
H1177 C1152 0.950 . S
H1178 C1154 0.950 . S
H1179 C1155 0.949 . S
H1180 C1157 0.950 . S
H1181 C1159 0.950 . S
C1182 C1183 1.349 . S
C1182 C1184 1.327 . S
C1182 H1207 0.950 . S
C1183 C1182 1.349 . S
C1183 C1199 1.349 1_455 S
C1184 C1182 1.327 . S
C1184 C1203 1.429 1_455 S
C1184 H1208 0.950 . S
C1185 C1202 1.574 . S
C1185 C1204 1.368 . S
C1185 H1209 0.949 . S
H1186 C1190 0.949 1_565 S
C1187 C1188 1.349 . S
C1187 C1189 1.327 . S
C1187 H1210 0.950 . S
C1188 C1187 1.349 . S
C1188 C1200 1.349 . S
C1189 C1187 1.327 . S
C1189 C1205 1.429 . S
C1189 H1211 0.950 . S
C1190 H1186 0.949 1_545 S
C1190 C1198 1.574 . S
C1190 C1206 1.368 . S
H1191 C1199 0.950 . S
H1192 C1197 0.950 . S
H1193 C1198 0.949 . S
H1194 C1200 0.950 1_565 S
H1195 C1201 0.950 1_565 S
H1196 C1202 0.949 . S
C1197 H1192 0.950 . S
C1197 C1199 1.327 . S
C1197 C1203 1.429 . S
C1198 C1190 1.574 . S
C1198 H1193 0.949 . S
C1198 C1204 1.368 . S
C1199 C1183 1.349 1_655 S
C1199 H1191 0.950 . S
C1199 C1197 1.327 . S
C1200 C1188 1.349 . S
C1200 H1194 0.950 1_545 S
C1200 C1201 1.327 . S
C1201 H1195 0.950 1_545 S
C1201 C1200 1.327 . S
C1201 C1205 1.429 . S
C1202 C1185 1.574 . S
C1202 H1196 0.949 . S
C1202 C1206 1.368 . S
C1203 C1184 1.429 1_655 S
C1203 C1197 1.429 . S
C1203 C1204 1.523 . S
C1204 C1185 1.368 . S
C1204 C1198 1.368 . S
C1204 C1203 1.523 . S
C1205 C1189 1.429 . S
C1205 C1201 1.429 . S
C1205 C1206 1.523 . S
C1206 C1190 1.368 . S
C1206 C1202 1.368 . S
C1206 C1205 1.523 . S
H1207 C1182 0.950 . S
H1208 C1184 0.950 . S
H1209 C1185 0.949 . S
H1210 C1187 0.950 . S
H1211 C1189 0.950 . S
C1212 C1213 1.349 . S
C1212 C1214 1.327 . S
C1212 H1237 0.950 . S
C1213 C1212 1.349 . S
C1213 C1229 1.349 . S
C1214 C1212 1.327 . S
C1214 C1233 1.429 . S
C1214 H1238 0.950 . S
C1215 C1232 1.574 . S
C1215 C1234 1.368 . S
C1215 H1239 0.949 . S
H1216 C1220 0.949 . S
C1217 C1218 1.349 . S
C1217 C1219 1.327 . S
C1217 H1240 0.950 . S
C1218 C1217 1.349 . S
C1218 C1230 1.349 . S
C1219 C1217 1.327 . S
C1219 C1235 1.429 . S
C1219 H1241 0.950 . S
C1220 H1216 0.949 . S
C1220 C1228 1.574 . S
C1220 C1236 1.368 . S
H1221 C1229 0.950 . S
H1222 C1227 0.950 . S
H1223 C1228 0.949 . S
H1224 C1230 0.950 . S
H1225 C1231 0.950 . S
H1226 C1232 0.949 . S
C1227 H1222 0.950 . S
C1227 C1229 1.327 . S
C1227 C1233 1.429 . S
C1228 C1220 1.574 . S
C1228 H1223 0.949 . S
C1228 C1234 1.368 . S
C1229 C1213 1.349 . S
C1229 H1221 0.950 . S
C1229 C1227 1.327 . S
C1230 C1218 1.349 . S
C1230 H1224 0.950 . S
C1230 C1231 1.327 . S
C1231 H1225 0.950 . S
C1231 C1230 1.327 . S
C1231 C1235 1.429 . S
C1232 C1215 1.574 . S
C1232 H1226 0.949 . S
C1232 C1236 1.368 . S
C1233 C1214 1.429 . S
C1233 C1227 1.429 . S
C1233 C1234 1.523 . S
C1234 C1215 1.368 . S
C1234 C1228 1.368 . S
C1234 C1233 1.523 . S
C1235 C1219 1.429 . S
C1235 C1231 1.429 . S
C1235 C1236 1.523 . S
C1236 C1220 1.368 . S
C1236 C1232 1.368 . S
C1236 C1235 1.523 . S
H1237 C1212 0.950 . S
H1238 C1214 0.950 . S
H1239 C1215 0.949 . S
H1240 C1217 0.950 . S
H1241 C1219 0.950 . S
C1242 C1243 1.349 . S
C1242 C1244 1.327 . S
C1242 H1267 0.950 1_455 S
C1243 C1242 1.349 . S
C1243 C1259 1.349 . S
C1244 C1242 1.327 . S
C1244 C1263 1.429 . S
C1244 H1268 0.950 . S
C1245 C1262 1.574 . S
C1245 C1264 1.368 . S
C1245 H1269 0.949 . S
H1246 C1250 0.949 . S
C1247 C1248 1.349 . S
C1247 C1249 1.327 . S
C1247 H1270 0.950 . S
C1248 C1247 1.349 . S
C1248 C1260 1.349 . S
C1249 C1247 1.327 . S
C1249 C1265 1.429 . S
C1249 H1271 0.950 . S
C1250 H1246 0.949 . S
C1250 C1258 1.574 . S
C1250 C1266 1.368 . S
H1251 C1259 0.950 . S
H1252 C1257 0.950 . S
H1253 C1258 0.949 . S
H1254 C1260 0.950 . S
H1255 C1261 0.950 . S
H1256 C1262 0.949 . S
C1257 H1252 0.950 . S
C1257 C1259 1.327 . S
C1257 C1263 1.429 . S
C1258 C1250 1.574 . S
C1258 H1253 0.949 . S
C1258 C1264 1.368 . S
C1259 C1243 1.349 . S
C1259 H1251 0.950 . S
C1259 C1257 1.327 . S
C1260 C1248 1.349 . S
C1260 H1254 0.950 . S
C1260 C1261 1.327 . S
C1261 H1255 0.950 . S
C1261 C1260 1.327 . S
C1261 C1265 1.429 . S
C1262 C1245 1.574 . S
C1262 H1256 0.949 . S
C1262 C1266 1.368 . S
C1263 C1244 1.429 . S
C1263 C1257 1.429 . S
C1263 C1264 1.523 . S
C1264 C1245 1.368 . S
C1264 C1258 1.368 . S
C1264 C1263 1.523 . S
C1265 C1249 1.429 . S
C1265 C1261 1.429 . S
C1265 C1266 1.523 . S
C1266 C1250 1.368 . S
C1266 C1262 1.368 . S
C1266 C1265 1.523 . S
H1267 C1242 0.950 1_655 S
H1268 C1244 0.950 . S
H1269 C1245 0.949 . S
H1270 C1247 0.950 . S
H1271 C1249 0.950 . S
C1272 C1273 1.349 . S
C1272 C1274 1.327 . S
C1272 H1297 0.950 . S
C1273 C1272 1.349 . S
C1273 C1289 1.349 . S
C1274 C1272 1.327 . S
C1274 C1293 1.429 . S
C1274 H1298 0.950 . S
C1275 C1292 1.574 . S
C1275 C1294 1.368 . S
C1275 H1299 0.949 . S
H1276 C1280 0.949 . S
C1277 C1278 1.349 . S
C1277 C1279 1.327 . S
C1277 H1300 0.950 . S
C1278 C1277 1.349 . S
C1278 C1290 1.349 . S
C1279 C1277 1.327 . S
C1279 C1295 1.429 . S
C1279 H1301 0.950 . S
C1280 H1276 0.949 . S
C1280 C1288 1.574 . S
C1280 C1296 1.368 . S
H1281 C1289 0.950 . S
H1282 C1287 0.950 . S
H1283 C1288 0.949 . S
H1284 C1290 0.950 . S
H1285 C1291 0.950 . S
H1286 C1292 0.949 . S
C1287 H1282 0.950 . S
C1287 C1289 1.327 . S
C1287 C1293 1.429 . S
C1288 C1280 1.574 . S
C1288 H1283 0.949 . S
C1288 C1294 1.368 . S
C1289 C1273 1.349 . S
C1289 H1281 0.950 . S
C1289 C1287 1.327 . S
C1290 C1278 1.349 . S
C1290 H1284 0.950 . S
C1290 C1291 1.327 . S
C1291 H1285 0.950 . S
C1291 C1290 1.327 . S
C1291 C1295 1.429 . S
C1292 C1275 1.574 . S
C1292 H1286 0.949 . S
C1292 C1296 1.368 . S
C1293 C1274 1.429 . S
C1293 C1287 1.429 . S
C1293 C1294 1.523 . S
C1294 C1275 1.368 . S
C1294 C1288 1.368 . S
C1294 C1293 1.523 . S
C1295 C1279 1.429 . S
C1295 C1291 1.429 . S
C1295 C1296 1.523 . S
C1296 C1280 1.368 . S
C1296 C1292 1.368 . S
C1296 C1295 1.523 . S
H1297 C1272 0.950 . S
H1298 C1274 0.950 . S
H1299 C1275 0.949 . S
H1300 C1277 0.950 . S
H1301 C1279 0.950 . S
C1302 C1303 1.349 1_455 S
C1302 C1304 1.327 1_554 S
C1302 H1327 0.950 . S
C1303 C1302 1.349 1_655 S
C1303 C1319 1.349 . S
C1304 C1302 1.327 1_556 S
C1304 C1323 1.429 1_455 S
C1304 H1328 0.950 . S
C1305 C1322 1.574 . S
C1305 C1324 1.368 . S
C1305 H1329 0.949 . S
H1306 C1310 0.949 . S
C1307 C1308 1.349 1_655 S
C1307 C1309 1.327 . S
C1307 H1330 0.950 . S
C1308 C1307 1.349 1_455 S
C1308 C1320 1.349 . S
C1309 C1307 1.327 . S
C1309 C1325 1.429 1_655 S
C1309 H1331 0.950 . S
C1310 H1306 0.949 . S
C1310 C1318 1.574 . S
C1310 C1326 1.348 1_455 S
H1311 C1319 0.950 . S
H1312 C1317 0.950 . S
H1313 C1318 0.949 . S
H1314 C1320 0.950 . S
H1315 C1321 0.950 . S
H1316 C1322 0.949 . S
C1317 H1312 0.950 . S
C1317 C1319 1.327 . S
C1317 C1323 1.429 1_554 S
C1318 C1310 1.574 . S
C1318 H1313 0.949 . S
C1318 C1324 1.368 1_455 S
C1319 C1303 1.349 . S
C1319 H1311 0.950 . S
C1319 C1317 1.327 . S
C1320 C1308 1.349 . S
C1320 H1314 0.950 . S
C1320 C1321 1.327 . S
C1321 H1315 0.950 . S
C1321 C1320 1.327 . S
C1321 C1325 1.429 . S
C1322 C1305 1.574 . S
C1322 H1316 0.949 . S
C1322 C1326 1.394 . S
C1323 C1304 1.429 1_655 S
C1323 C1317 1.429 1_556 S
C1323 C1324 1.523 . S
C1324 C1305 1.368 . S
C1324 C1318 1.368 1_655 S
C1324 C1323 1.523 . S
C1325 C1309 1.429 1_455 S
C1325 C1321 1.429 . S
C1325 C1326 1.517 1_455 S
C1326 C1310 1.348 1_655 S
C1326 C1322 1.394 . S
C1326 C1325 1.517 1_655 S
H1327 C1302 0.950 . S
H1328 C1304 0.950 . S
H1329 C1305 0.949 . S
H1330 C1307 0.950 . S
H1331 C1309 0.950 . S
C1332 C1333 1.349 . S
C1332 C1334 1.327 . S
C1332 H1357 0.950 . S
C1333 C1332 1.349 . S
C1333 C1349 1.349 . S
C1334 C1332 1.327 . S
C1334 C1353 1.429 . S
C1334 H1358 0.950 . S
C1335 C1352 1.574 . S
C1335 C1354 1.368 . S
C1335 H1359 0.949 . S
H1336 C1340 0.949 . S
C1337 C1338 1.349 . S
C1337 C1339 1.327 . S
C1337 H1360 0.950 . S
C1338 C1337 1.349 . S
C1338 C1350 1.349 . S
C1339 C1337 1.327 . S
C1339 C1355 1.429 . S
C1339 H1361 0.950 . S
C1340 H1336 0.949 . S
C1340 C1348 1.574 . S
C1340 C1356 1.368 . S
H1341 C1349 0.950 . S
H1342 C1347 0.950 . S
H1343 C1348 0.949 . S
H1344 C1350 0.950 . S
H1345 C1351 0.950 . S
H1346 C1352 0.949 . S
C1347 H1342 0.950 . S
C1347 C1349 1.327 . S
C1347 C1353 1.429 . S
C1348 C1340 1.574 . S
C1348 H1343 0.949 . S
C1348 C1354 1.368 . S
C1349 C1333 1.349 . S
C1349 H1341 0.950 . S
C1349 C1347 1.327 . S
C1350 C1338 1.349 . S
C1350 H1344 0.950 . S
C1350 C1351 1.327 . S
C1351 H1345 0.950 . S
C1351 C1350 1.327 . S
C1351 C1355 1.429 . S
C1352 C1335 1.574 . S
C1352 H1346 0.949 . S
C1352 C1356 1.368 . S
C1353 C1334 1.429 . S
C1353 C1347 1.429 . S
C1353 C1354 1.523 . S
C1354 C1335 1.368 . S
C1354 C1348 1.368 . S
C1354 C1353 1.523 . S
C1355 C1339 1.429 . S
C1355 C1351 1.429 . S
C1355 C1356 1.523 . S
C1356 C1340 1.368 . S
C1356 C1352 1.368 . S
C1356 C1355 1.523 . S
H1357 C1332 0.950 . S
H1358 C1334 0.950 . S
H1359 C1335 0.949 . S
H1360 C1337 0.950 . S
H1361 C1339 0.950 . S
C1362 C1363 1.349 1_556 S
C1362 C1364 1.327 . S
C1362 H1387 0.950 1_556 S
C1363 C1362 1.349 1_554 S
C1363 C1379 1.349 1_554 S
C1364 C1362 1.327 . S
C1364 C1383 1.429 . S
C1364 H1388 0.950 1_455 S
C1365 C1382 1.574 . S
C1365 C1384 1.368 . S
C1365 H1389 0.949 . S
H1366 C1370 0.949 1_655 S
C1367 C1368 1.349 . S
C1367 C1369 1.327 . S
C1367 H1390 0.950 . S
C1368 C1367 1.349 . S
C1368 C1380 1.349 . S
C1369 C1367 1.327 . S
C1369 C1385 1.429 . S
C1369 H1391 0.950 . S
C1370 H1366 0.949 1_455 S
C1370 C1378 1.574 . S
C1370 C1386 1.368 . S
H1371 C1379 0.957 . S
H1372 C1377 0.950 . S
H1373 C1378 0.949 1_655 S
H1374 C1380 0.950 1_655 S
H1375 C1381 0.950 1_655 S
H1376 C1382 0.949 . S
C1377 H1372 0.950 . S
C1377 C1379 1.327 . S
C1377 C1383 1.429 . S
C1378 C1370 1.574 . S
C1378 H1373 0.949 1_455 S
C1378 C1384 1.368 . S
C1379 C1363 1.349 1_556 S
C1379 H1371 0.957 . S
C1379 C1377 1.327 . S
C1380 C1368 1.349 . S
C1380 H1374 0.950 1_455 S
C1380 C1381 1.327 . S
C1381 H1375 0.950 1_455 S
C1381 C1380 1.327 . S
C1381 C1385 1.429 . S
C1382 C1365 1.574 . S
C1382 H1376 0.949 . S
C1382 C1386 1.368 . S
C1383 C1364 1.429 . S
C1383 C1377 1.429 . S
C1383 C1384 1.523 . S
C1384 C1365 1.368 . S
C1384 C1378 1.368 . S
C1384 C1383 1.523 . S
C1385 C1369 1.429 . S
C1385 C1381 1.429 . S
C1385 C1386 1.523 . S
C1386 C1370 1.368 . S
C1386 C1382 1.368 . S
C1386 C1385 1.523 . S
H1387 C1362 0.950 1_554 S
H1388 C1364 0.950 1_655 S
H1389 C1365 0.949 . S
H1390 C1367 0.950 . S
H1391 C1369 0.950 . S
C1392 C1393 1.349 . S
C1392 C1394 1.327 . S
C1392 H1417 0.950 . S
C1393 C1392 1.349 . S
C1393 C1409 1.349 . S
C1394 C1392 1.327 . S
C1394 C1413 1.429 . S
C1394 H1418 0.950 . S
C1395 C1412 1.574 . S
C1395 C1414 1.368 . S
C1395 H1419 0.949 . S
H1396 C1400 0.949 . S
C1397 C1398 1.349 . S
C1397 C1399 1.327 . S
C1397 H1420 0.950 . S
C1398 C1397 1.349 . S
C1398 C1410 1.349 . S
C1399 C1397 1.327 . S
C1399 C1415 1.429 . S
C1399 H1421 0.950 . S
C1400 H1396 0.949 . S
C1400 C1408 1.574 . S
C1400 C1416 1.368 . S
H1401 C1409 0.950 . S
H1402 C1407 0.950 . S
H1403 C1408 0.949 . S
H1404 C1410 0.950 . S
H1405 C1411 0.950 . S
H1406 C1412 0.949 . S
C1407 H1402 0.950 . S
C1407 C1409 1.327 . S
C1407 C1413 1.429 . S
C1408 C1400 1.574 . S
C1408 H1403 0.949 . S
C1408 C1414 1.368 . S
C1409 C1393 1.349 . S
C1409 H1401 0.950 . S
C1409 C1407 1.327 . S
C1410 C1398 1.349 . S
C1410 H1404 0.950 . S
C1410 C1411 1.327 . S
C1411 H1405 0.950 . S
C1411 C1410 1.327 . S
C1411 C1415 1.429 . S
C1412 C1395 1.574 . S
C1412 H1406 0.949 . S
C1412 C1416 1.368 . S
C1413 C1394 1.429 . S
C1413 C1407 1.429 . S
C1413 C1414 1.523 . S
C1414 C1395 1.368 . S
C1414 C1408 1.368 . S
C1414 C1413 1.523 . S
C1415 C1399 1.429 . S
C1415 C1411 1.429 . S
C1415 C1416 1.523 . S
C1416 C1400 1.368 . S
C1416 C1412 1.368 . S
C1416 C1415 1.523 . S
H1417 C1392 0.950 . S
H1418 C1394 0.950 . S
H1419 C1395 0.949 . S
H1420 C1397 0.950 . S
H1421 C1399 0.950 . S
C1422 C1423 1.349 . S
C1422 C1424 1.327 . S
C1422 H1447 0.950 . S
C1423 C1422 1.349 . S
C1423 C1439 1.349 1_556 S
C1424 C1422 1.327 . S
C1424 C1443 1.429 1_556 S
C1424 H1448 0.950 . S
C1425 C1442 1.574 . S
C1425 C1444 1.368 . S
C1425 H1449 0.949 . S
H1426 C1430 0.949 . S
C1427 C1428 1.349 . S
C1427 C1429 1.327 . S
C1427 H1450 0.950 . S
C1428 C1427 1.349 . S
C1428 C1440 1.349 . S
C1429 C1427 1.327 . S
C1429 C1445 1.429 . S
C1429 H1451 0.950 . S
C1430 H1426 0.949 . S
C1430 C1438 1.574 . S
C1430 C1446 1.368 . S
H1431 C1439 0.950 . S
H1432 C1437 0.950 . S
H1433 C1438 0.949 . S
H1434 C1440 0.950 . S
H1435 C1441 0.950 . S
H1436 C1442 0.949 . S
C1437 H1432 0.950 . S
C1437 C1439 1.327 . S
C1437 C1443 1.429 . S
C1438 C1430 1.574 . S
C1438 H1433 0.949 . S
C1438 C1444 1.368 . S
C1439 C1423 1.349 1_554 S
C1439 H1431 0.950 . S
C1439 C1437 1.327 . S
C1440 C1428 1.349 . S
C1440 H1434 0.950 . S
C1440 C1441 1.327 . S
C1441 H1435 0.950 . S
C1441 C1440 1.327 . S
C1441 C1445 1.429 . S
C1442 C1425 1.574 . S
C1442 H1436 0.949 . S
C1442 C1446 1.368 . S
C1443 C1424 1.429 1_554 S
C1443 C1437 1.429 . S
C1443 C1444 1.523 . S
C1444 C1425 1.368 . S
C1444 C1438 1.368 . S
C1444 C1443 1.523 . S
C1445 C1429 1.429 . S
C1445 C1441 1.429 . S
C1445 C1446 1.523 . S
C1446 C1430 1.368 . S
C1446 C1442 1.368 . S
C1446 C1445 1.523 . S
H1447 C1422 0.950 . S
H1448 C1424 0.950 . S
H1449 C1425 0.949 . S
H1450 C1427 0.950 . S
H1451 C1429 0.950 . S
C1452 C1453 1.349 . S
C1452 C1454 1.327 . S
C1452 H1477 0.950 . S
C1453 C1452 1.349 . S
C1453 C1469 1.349 . S
C1454 C1452 1.327 . S
C1454 C1473 1.429 . S
C1454 H1478 0.950 . S
C1455 C1472 1.574 . S
C1455 C1474 1.368 . S
C1455 H1479 0.949 . S
H1456 C1460 0.949 . S
C1457 C1458 1.349 . S
C1457 C1459 1.327 . S
C1457 H1480 0.950 . S
C1458 C1457 1.349 . S
C1458 C1470 1.349 . S
C1459 C1457 1.327 . S
C1459 C1475 1.429 . S
C1459 H1481 0.950 . S
C1460 H1456 0.949 . S
C1460 C1468 1.574 . S
C1460 C1476 1.368 . S
H1461 C1469 0.950 . S
H1462 C1467 0.950 . S
H1463 C1468 0.949 . S
H1464 C1470 0.950 . S
H1465 C1471 0.950 . S
H1466 C1472 0.949 . S
C1467 H1462 0.950 . S
C1467 C1469 1.327 . S
C1467 C1473 1.429 . S
C1468 C1460 1.574 . S
C1468 H1463 0.949 . S
C1468 C1474 1.368 . S
C1469 C1453 1.349 . S
C1469 H1461 0.950 . S
C1469 C1467 1.327 . S
C1470 C1458 1.349 . S
C1470 H1464 0.950 . S
C1470 C1471 1.327 . S
C1471 H1465 0.950 . S
C1471 C1470 1.327 . S
C1471 C1475 1.429 . S
C1472 C1455 1.574 . S
C1472 H1466 0.949 . S
C1472 C1476 1.368 . S
C1473 C1454 1.429 . S
C1473 C1467 1.429 . S
C1473 C1474 1.523 . S
C1474 C1455 1.368 . S
C1474 C1468 1.368 . S
C1474 C1473 1.523 . S
C1475 C1459 1.429 . S
C1475 C1471 1.429 . S
C1475 C1476 1.523 . S
C1476 C1460 1.368 . S
C1476 C1472 1.368 . S
C1476 C1475 1.523 . S
H1477 C1452 0.950 . S
H1478 C1454 0.950 . S
H1479 C1455 0.949 . S
H1480 C1457 0.950 . S
H1481 C1459 0.950 . S
C1482 C1483 1.349 . S
C1482 C1484 1.327 1_556 S
C1482 H1507 0.950 . S
C1483 C1482 1.349 . S
C1483 C1499 1.349 1_556 S
C1484 C1482 1.327 1_554 S
C1484 C1503 1.429 . S
C1484 H1508 0.950 . S
C1485 C1502 1.574 . S
C1485 C1504 1.368 . S
C1485 H1509 0.949 . S
H1486 C1490 0.949 . S
C1487 C1488 1.349 . S
C1487 C1489 1.327 . S
C1487 H1510 0.950 . S
C1488 C1487 1.349 . S
C1488 C1500 1.349 . S
C1489 C1487 1.327 . S
C1489 C1505 1.429 . S
C1489 H1511 0.950 . S
C1490 H1486 0.949 . S
C1490 C1498 1.574 . S
C1490 C1506 1.368 . S
H1491 C1499 0.950 . S
H1492 C1497 0.950 . S
H1493 C1498 0.949 . S
H1494 C1500 0.950 . S
H1495 C1501 0.950 . S
H1496 C1502 0.949 . S
C1497 H1492 0.950 . S
C1497 C1499 1.327 . S
C1497 C1503 1.429 . S
C1498 C1490 1.574 . S
C1498 H1493 0.949 . S
C1498 C1504 1.368 . S
C1499 C1483 1.349 1_554 S
C1499 H1491 0.950 . S
C1499 C1497 1.327 . S
C1500 C1488 1.349 . S
C1500 H1494 0.950 . S
C1500 C1501 1.327 . S
C1501 H1495 0.950 . S
C1501 C1500 1.327 . S
C1501 C1505 1.429 . S
C1502 C1485 1.574 . S
C1502 H1496 0.949 . S
C1502 C1506 1.368 . S
C1503 C1484 1.429 . S
C1503 C1497 1.429 . S
C1503 C1504 1.523 . S
C1504 C1485 1.368 . S
C1504 C1498 1.368 . S
C1504 C1503 1.523 . S
C1505 C1489 1.429 . S
C1505 C1501 1.429 . S
C1505 C1506 1.523 . S
C1506 C1490 1.368 . S
C1506 C1502 1.368 . S
C1506 C1505 1.523 . S
H1507 C1482 0.950 . S
H1508 C1484 0.950 . S
H1509 C1485 0.949 . S
H1510 C1487 0.950 . S
H1511 C1489 0.950 . S
C1512 C1513 1.349 . S
C1512 C1514 1.327 . S
C1512 H1537 0.950 . S
C1513 C1512 1.349 . S
C1513 C1529 1.349 . S
C1514 C1512 1.327 . S
C1514 C1533 1.429 . S
C1514 H1538 0.950 . S
C1515 C1532 1.574 . S
C1515 C1534 1.368 . S
C1515 H1539 0.949 . S
H1516 C1520 0.949 . S
C1517 C1518 1.349 . S
C1517 C1519 1.327 . S
C1517 H1540 0.950 . S
C1518 C1517 1.349 . S
C1518 C1530 1.349 . S
C1519 C1517 1.327 . S
C1519 C1535 1.429 . S
C1519 H1541 0.950 . S
C1520 H1516 0.949 . S
C1520 C1528 1.574 . S
C1520 C1536 1.368 . S
H1521 C1529 0.950 . S
H1522 C1527 0.950 . S
H1523 C1528 0.949 . S
H1524 C1530 0.950 . S
H1525 C1531 0.950 . S
H1526 C1532 0.949 . S
C1527 H1522 0.950 . S
C1527 C1529 1.327 . S
C1527 C1533 1.429 . S
C1528 C1520 1.574 . S
C1528 H1523 0.949 . S
C1528 C1534 1.368 . S
C1529 C1513 1.349 . S
C1529 H1521 0.950 . S
C1529 C1527 1.327 . S
C1530 C1518 1.349 . S
C1530 H1524 0.950 . S
C1530 C1531 1.327 . S
C1531 H1525 0.950 . S
C1531 C1530 1.327 . S
C1531 C1535 1.429 . S
C1532 C1515 1.574 . S
C1532 H1526 0.949 . S
C1532 C1536 1.368 . S
C1533 C1514 1.429 . S
C1533 C1527 1.429 . S
C1533 C1534 1.523 . S
C1534 C1515 1.368 . S
C1534 C1528 1.368 . S
C1534 C1533 1.523 . S
C1535 C1519 1.429 . S
C1535 C1531 1.429 . S
C1535 C1536 1.523 . S
C1536 C1520 1.368 . S
C1536 C1532 1.368 . S
C1536 C1535 1.523 . S
H1537 C1512 0.950 . S
H1538 C1514 0.950 . S
H1539 C1515 0.949 . S
H1540 C1517 0.950 . S
H1541 C1519 0.950 . S
C1542 C1543 1.349 . S
C1542 C1544 1.327 . S
C1542 H1567 0.950 . S
C1543 C1542 1.349 . S
C1543 C1559 1.349 . S
C1544 C1542 1.327 . S
C1544 C1563 1.429 . S
C1544 H1568 0.950 . S
C1545 C1562 1.574 . S
C1545 C1564 1.368 . S
C1545 H1569 0.949 . S
H1546 C1550 0.949 . S
C1547 C1548 1.349 . S
C1547 C1549 1.327 . S
C1547 H1570 0.950 . S
C1548 C1547 1.349 . S
C1548 C1560 1.349 . S
C1549 C1547 1.327 . S
C1549 C1565 1.429 . S
C1549 H1571 0.950 . S
C1550 H1546 0.949 . S
C1550 C1558 1.574 . S
C1550 C1566 1.368 . S
H1551 C1559 0.950 . S
H1552 C1557 0.950 . S
H1553 C1558 0.949 . S
H1554 C1560 0.950 . S
H1555 C1561 0.950 . S
H1556 C1562 0.949 . S
C1557 H1552 0.950 . S
C1557 C1559 1.327 . S
C1557 C1563 1.429 . S
C1558 C1550 1.574 . S
C1558 H1553 0.949 . S
C1558 C1564 1.368 . S
C1559 C1543 1.349 . S
C1559 H1551 0.950 . S
C1559 C1557 1.327 . S
C1560 C1548 1.349 . S
C1560 H1554 0.950 . S
C1560 C1561 1.327 . S
C1561 H1555 0.950 . S
C1561 C1560 1.327 . S
C1561 C1565 1.429 . S
C1562 C1545 1.574 . S
C1562 H1556 0.949 . S
C1562 C1566 1.368 . S
C1563 C1544 1.429 . S
C1563 C1557 1.429 . S
C1563 C1564 1.523 . S
C1564 C1545 1.368 . S
C1564 C1558 1.368 . S
C1564 C1563 1.523 . S
C1565 C1549 1.429 . S
C1565 C1561 1.429 . S
C1565 C1566 1.523 . S
C1566 C1550 1.368 . S
C1566 C1562 1.368 . S
C1566 C1565 1.523 . S
H1567 C1542 0.950 . S
H1568 C1544 0.950 . S
H1569 C1545 0.949 . S
H1570 C1547 0.950 . S
H1571 C1549 0.950 . S
C1572 C1573 1.349 . S
C1572 C1574 1.327 . S
C1572 H1597 0.950 . S
C1573 C1572 1.349 . S
C1573 C1589 1.349 . S
C1574 C1572 1.327 . S
C1574 C1593 1.429 . S
C1574 H1598 0.950 . S
C1575 C1592 1.574 . S
C1575 C1594 1.368 . S
C1575 H1599 0.949 . S
H1576 C1580 0.949 . S
C1577 C1578 1.349 . S
C1577 C1579 1.327 . S
C1577 H1600 0.950 . S
C1578 C1577 1.349 . S
C1578 C1590 1.349 . S
C1579 C1577 1.327 . S
C1579 C1595 1.429 . S
C1579 H1601 0.950 . S
C1580 H1576 0.949 . S
C1580 C1588 1.574 . S
C1580 C1596 1.368 . S
H1581 C1589 0.950 . S
H1582 C1587 0.950 . S
H1583 C1588 0.949 . S
H1584 C1590 0.950 . S
H1585 C1591 0.950 . S
H1586 C1592 0.949 . S
C1587 H1582 0.950 . S
C1587 C1589 1.327 . S
C1587 C1593 1.429 . S
C1588 C1580 1.574 . S
C1588 H1583 0.949 . S
C1588 C1594 1.368 . S
C1589 C1573 1.349 . S
C1589 H1581 0.950 . S
C1589 C1587 1.327 . S
C1590 C1578 1.349 . S
C1590 H1584 0.950 . S
C1590 C1591 1.327 . S
C1591 H1585 0.950 . S
C1591 C1590 1.327 . S
C1591 C1595 1.429 . S
C1592 C1575 1.574 . S
C1592 H1586 0.949 . S
C1592 C1596 1.368 . S
C1593 C1574 1.429 . S
C1593 C1587 1.429 . S
C1593 C1594 1.523 . S
C1594 C1575 1.368 . S
C1594 C1588 1.368 . S
C1594 C1593 1.523 . S
C1595 C1579 1.429 . S
C1595 C1591 1.429 . S
C1595 C1596 1.523 . S
C1596 C1580 1.368 . S
C1596 C1592 1.368 . S
C1596 C1595 1.523 . S
H1597 C1572 0.950 . S
H1598 C1574 0.950 . S
H1599 C1575 0.949 . S
H1600 C1577 0.950 . S
H1601 C1579 0.950 . S
C1602 C1603 1.349 . S
C1602 C1604 1.327 . S
C1602 H1627 0.950 . S
C1603 C1602 1.349 . S
C1603 C1619 1.349 . S
C1604 C1602 1.327 . S
C1604 C1623 1.429 . S
C1604 H1628 0.950 . S
C1605 C1622 1.574 . S
C1605 C1624 1.368 . S
C1605 H1629 0.949 . S
H1606 C1610 0.949 . S
C1607 C1608 1.349 . S
C1607 C1609 1.327 . S
C1607 H1630 0.950 . S
C1608 C1607 1.349 . S
C1608 C1620 1.349 . S
C1609 C1607 1.327 . S
C1609 C1625 1.429 . S
C1609 H1631 0.950 . S
C1610 H1606 0.949 . S
C1610 C1618 1.574 . S
C1610 C1626 1.368 . S
H1611 C1619 0.950 . S
H1612 C1617 0.950 . S
H1613 C1618 0.949 . S
H1614 C1620 0.950 . S
H1615 C1621 0.950 . S
H1616 C1622 0.949 . S
C1617 H1612 0.950 . S
C1617 C1619 1.327 . S
C1617 C1623 1.429 . S
C1618 C1610 1.574 . S
C1618 H1613 0.949 . S
C1618 C1624 1.368 . S
C1619 C1603 1.349 . S
C1619 H1611 0.950 . S
C1619 C1617 1.327 . S
C1620 C1608 1.349 . S
C1620 H1614 0.950 . S
C1620 C1621 1.327 . S
C1621 H1615 0.950 . S
C1621 C1620 1.327 . S
C1621 C1625 1.429 . S
C1622 C1605 1.574 . S
C1622 H1616 0.949 . S
C1622 C1626 1.368 . S
C1623 C1604 1.429 . S
C1623 C1617 1.429 . S
C1623 C1624 1.523 . S
C1624 C1605 1.368 . S
C1624 C1618 1.368 . S
C1624 C1623 1.523 . S
C1625 C1609 1.429 . S
C1625 C1621 1.429 . S
C1625 C1626 1.523 . S
C1626 C1610 1.368 . S
C1626 C1622 1.368 . S
C1626 C1625 1.523 . S
H1627 C1602 0.950 . S
H1628 C1604 0.950 . S
H1629 C1605 0.949 . S
H1630 C1607 0.950 . S
H1631 C1609 0.950 . S
C1632 C1633 1.349 . S
C1632 C1634 1.327 . S
C1632 H1657 0.950 . S
C1633 C1632 1.349 . S
C1633 C1649 1.349 . S
C1634 C1632 1.327 . S
C1634 C1653 1.429 . S
C1634 H1658 0.950 . S
C1635 C1652 1.567 1_556 S
C1635 C1654 1.368 . S
C1635 H1659 0.949 1_556 S
H1636 C1640 0.949 . S
C1637 C1638 1.335 1_554 S
C1637 C1639 1.327 . S
C1637 H1660 0.950 . S
C1638 C1637 1.335 1_556 S
C1638 C1650 1.366 . S
C1639 C1637 1.327 . S
C1639 C1655 1.429 1_554 S
C1639 H1661 0.950 . S
C1640 H1636 0.949 . S
C1640 C1648 1.574 . S
C1640 C1656 1.368 . S
H1641 C1649 0.950 . S
H1642 C1647 0.969 . S
H1643 C1648 0.949 . S
H1644 C1650 0.950 . S
H1645 C1651 0.950 . S
H1646 C1652 0.988 . S
C1647 H1642 0.969 . S
C1647 C1649 1.327 . S
C1647 C1653 1.429 . S
C1648 C1640 1.574 . S
C1648 H1643 0.949 . S
C1648 C1654 1.368 . S
C1649 C1633 1.349 . S
C1649 H1641 0.950 . S
C1649 C1647 1.327 . S
C1650 C1638 1.366 . S
C1650 H1644 0.950 . S
C1650 C1651 1.327 . S
C1651 H1645 0.950 . S
C1651 C1650 1.327 . S
C1651 C1655 1.429 . S
C1652 C1635 1.567 1_554 S
C1652 H1646 0.988 . S
C1652 C1656 1.335 1_554 S
C1653 C1634 1.429 . S
C1653 C1647 1.429 . S
C1653 C1654 1.523 . S
C1654 C1635 1.368 . S
C1654 C1648 1.368 . S
C1654 C1653 1.523 . S
C1655 C1639 1.429 1_556 S
C1655 C1651 1.429 . S
C1655 C1656 1.523 . S
C1656 C1640 1.368 . S
C1656 C1652 1.335 1_556 S
C1656 C1655 1.523 . S
H1657 C1632 0.950 . S
H1658 C1634 0.950 . S
H1659 C1635 0.949 1_554 S
H1660 C1637 0.950 . S
H1661 C1639 0.950 . S
C1662 C1663 1.349 . S
C1662 C1664 1.327 . S
C1662 H1687 0.950 . S
C1663 C1662 1.349 . S
C1663 C1679 1.349 . S
C1664 C1662 1.327 . S
C1664 C1683 1.429 . S
C1664 H1688 0.950 . S
C1665 C1682 1.574 . S
C1665 C1684 1.368 . S
C1665 H1689 0.949 . S
H1666 C1670 0.949 . S
C1667 C1668 1.349 . S
C1667 C1669 1.327 . S
C1667 H1690 0.950 . S
C1668 C1667 1.349 . S
C1668 C1680 1.349 . S
C1669 C1667 1.327 . S
C1669 C1685 1.429 . S
C1669 H1691 0.950 . S
C1670 H1666 0.949 . S
C1670 C1678 1.574 . S
C1670 C1686 1.368 . S
H1671 C1679 0.950 . S
H1672 C1677 0.950 . S
H1673 C1678 0.949 . S
H1674 C1680 0.950 . S
H1675 C1681 0.950 . S
H1676 C1682 0.949 . S
C1677 H1672 0.950 . S
C1677 C1679 1.327 . S
C1677 C1683 1.429 . S
C1678 C1670 1.574 . S
C1678 H1673 0.949 . S
C1678 C1684 1.368 . S
C1679 C1663 1.349 . S
C1679 H1671 0.950 . S
C1679 C1677 1.327 . S
C1680 C1668 1.349 . S
C1680 H1674 0.950 . S
C1680 C1681 1.327 . S
C1681 H1675 0.950 . S
C1681 C1680 1.327 . S
C1681 C1685 1.429 . S
C1682 C1665 1.574 . S
C1682 H1676 0.949 . S
C1682 C1686 1.368 . S
C1683 C1664 1.429 . S
C1683 C1677 1.429 . S
C1683 C1684 1.523 . S
C1684 C1665 1.368 . S
C1684 C1678 1.368 . S
C1684 C1683 1.523 . S
C1685 C1669 1.429 . S
C1685 C1681 1.429 . S
C1685 C1686 1.523 . S
C1686 C1670 1.368 . S
C1686 C1682 1.368 . S
C1686 C1685 1.523 . S
H1687 C1662 0.950 . S
H1688 C1664 0.950 . S
H1689 C1665 0.949 . S
H1690 C1667 0.950 . S
H1691 C1669 0.950 . S
C1692 C1693 1.349 . S
C1692 C1694 1.327 . S
C1692 H1717 0.950 . S
C1693 C1692 1.349 . S
C1693 C1709 1.349 . S
C1694 C1692 1.327 . S
C1694 C1713 1.429 . S
C1694 H1718 0.950 . S
C1695 C1712 1.574 . S
C1695 C1714 1.368 . S
C1695 H1719 0.949 . S
H1696 C1700 0.949 . S
C1697 C1698 1.349 . S
C1697 C1699 1.327 . S
C1697 H1720 0.950 1_554 S
C1698 C1697 1.349 . S
C1698 C1710 1.349 . S
C1699 C1697 1.327 . S
C1699 C1715 1.429 . S
C1699 H1721 0.914 1_554 S
C1700 H1696 0.949 . S
C1700 C1708 1.574 . S
C1700 C1716 1.368 . S
H1701 C1709 0.950 . S
H1702 C1707 0.950 . S
H1703 C1708 0.949 . S
H1704 C1710 0.950 . S
H1705 C1711 0.950 . S
H1706 C1712 0.949 . S
C1707 H1702 0.950 . S
C1707 C1709 1.327 . S
C1707 C1713 1.429 . S
C1708 C1700 1.574 . S
C1708 H1703 0.949 . S
C1708 C1714 1.368 . S
C1709 C1693 1.349 . S
C1709 H1701 0.950 . S
C1709 C1707 1.327 . S
C1710 C1698 1.349 . S
C1710 H1704 0.950 . S
C1710 C1711 1.327 . S
C1711 H1705 0.950 . S
C1711 C1710 1.327 . S
C1711 C1715 1.429 . S
C1712 C1695 1.574 . S
C1712 H1706 0.949 . S
C1712 C1716 1.368 . S
C1713 C1694 1.429 . S
C1713 C1707 1.429 . S
C1713 C1714 1.523 . S
C1714 C1695 1.368 . S
C1714 C1708 1.368 . S
C1714 C1713 1.523 . S
C1715 C1699 1.429 . S
C1715 C1711 1.429 . S
C1715 C1716 1.523 . S
C1716 C1700 1.368 . S
C1716 C1712 1.368 . S
C1716 C1715 1.523 . S
H1717 C1692 0.950 . S
H1718 C1694 0.950 . S
H1719 C1695 0.949 . S
H1720 C1697 0.950 1_556 S
H1721 C1699 0.914 1_556 S
C1722 C1723 1.349 . S
C1722 C1724 1.327 1_545 S
C1722 H1747 0.950 1_554 S
C1723 C1722 1.349 . S
C1723 C1739 1.349 . S
C1724 C1722 1.327 1_565 S
C1724 C1743 1.429 . S
C1724 H1748 0.950 1_554 S
C1725 C1742 1.574 . S
C1725 C1744 1.368 . S
C1725 H1749 0.949 . S
H1726 C1730 0.949 . S
C1727 C1728 1.349 . S
C1727 C1729 1.327 . S
C1727 H1750 0.950 . S
C1728 C1727 1.349 . S
C1728 C1740 1.349 1_554 S
C1729 C1727 1.327 . S
C1729 C1745 1.429 . S
C1729 H1751 0.950 . S
C1730 H1726 0.949 . S
C1730 C1738 1.574 . S
C1730 C1746 1.368 1_556 S
H1731 C1739 0.950 . S
H1732 C1737 0.950 . S
H1733 C1738 0.949 . S
H1734 C1740 0.950 . S
H1735 C1741 0.950 . S
H1736 C1742 0.949 . S
C1737 H1732 0.950 . S
C1737 C1739 1.327 1_565 S
C1737 C1743 1.429 . S
C1738 C1730 1.574 . S
C1738 H1733 0.949 . S
C1738 C1744 1.368 1_556 S
C1739 C1723 1.349 . S
C1739 H1731 0.950 . S
C1739 C1737 1.327 1_545 S
C1740 C1728 1.349 1_556 S
C1740 H1734 0.950 . S
C1740 C1741 1.327 . S
C1741 H1735 0.950 . S
C1741 C1740 1.327 . S
C1741 C1745 1.429 1_556 S
C1742 C1725 1.574 . S
C1742 H1736 0.949 . S
C1742 C1746 1.368 . S
C1743 C1724 1.429 . S
C1743 C1737 1.429 . S
C1743 C1744 1.523 . S
C1744 C1725 1.368 . S
C1744 C1738 1.368 1_554 S
C1744 C1743 1.523 . S
C1745 C1729 1.429 . S
C1745 C1741 1.429 1_554 S
C1745 C1746 1.523 . S
C1746 C1730 1.368 1_554 S
C1746 C1742 1.368 . S
C1746 C1745 1.523 . S
H1747 C1722 0.950 1_556 S
H1748 C1724 0.950 1_556 S
H1749 C1725 0.949 . S
H1750 C1727 0.950 . S
H1751 C1729 0.950 . S
C318 C155 1.449 . S
C313 C50 1.470 . S
C348 C163 1.279 . S
C343 C61 1.527 . S
C373 C67 1.439 . S
C378 C183 1.415 . S
C408 C197 1.496 . S
C403 C41 1.519 . S
C438 C212 1.525 . S
C433 C95 1.526 . S
C468 C226 1.511 . S
C463 C113 1.508 . S
C493 C106 1.554 . S
C498 C240 1.553 . S
C528 C246 1.449 . S
C523 C86 1.490 . S
C553 C104 1.516 . S
C558 C260 1.478 . S
C588 C281 1.534 . S
C583 C88 1.560 . S
C613 C94 1.480 . S
C618 C261 1.242 . S
C648 C282 1.519 . S
C643 C112 1.517 . S
C673 C70 1.467 . S
C678 C289 1.227 . S
C703 C40 1.514 . S
C708 C295 1.493 . S
C733 C49 1.511 . S
C738 C288 1.472 . S
C763 C59 1.481 . S
C768 C296 1.482 . S
C793 C34 1.490 . S
C798 C190 1.451 . S
C823 C133 1.489 . S
C828 C191 1.250 . S
C858 C148 1.518 . S
C853 C139 1.560 . S
C888 C169 1.439 . S
C883 C77 1.464 . S
C913 C43 1.479 . S
C918 C204 1.441 . S
C948 C254 1.531 . S
C943 C103 1.531 . S
C978 C205 1.230 . S
C973 C85 1.466 . S
C1008 C233 1.270 . S
C1003 C115 1.527 . S
C1038 C239 1.449 . S
C1033 C131 1.470 . S
C1063 C142 1.527 . S
C1068 C247 1.279 . S
C1093 C76 1.439 . S
C1098 C211 1.415 . S
C1128 C225 1.496 . S
C1123 C122 1.519 . S
C1153 C32 1.526 . S
C1158 C184 1.525 . S
C1188 C198 1.511 . S
C1183 C5 1.508 . S
C1218 C156 1.553 . S
C1213 C16 1.554 . S
C1248 C162 1.449 . S
C1243 C23 1.490 1_455 S
C1273 C14 1.516 . S
C1278 C274 1.478 . S
C1303 C25 1.560 . S
C1308 C267 1.534 . S
C1333 C31 1.480 . S
C1338 C275 1.242 . S
C1363 C4 1.517 . S
C1368 C268 1.519 . S
C1398 C303 1.227 . S
C1393 C79 1.467 . S
C1428 C309 1.493 . S
C1423 C121 1.514 . S
C1458 C302 1.472 . S
C1453 C130 1.511 . S
C1483 C140 1.481 . S
C1488 C310 1.482 . S
C1513 C97 1.490 . S
C1518 C218 1.451 . S
C1548 C219 1.250 . S
C1543 C52 1.489 . S
C1578 C232 1.518 . S
C1573 C58 1.560 . S
C1608 C253 1.439 . S
C1603 C68 1.464 . S
C1633 C124 1.479 . S
C1638 C176 1.440 1_556 S
C1668 C170 1.531 . S
C1663 C13 1.531 . S
C1693 C22 1.466 . S
C1698 C177 1.230 . S
C1728 C149 1.270 . S
C1723 C7 1.527 . S
