# Generated by pormake.
# Topology csq, (4,8)-cn, num edge types: 1
# Building blocks:
#     Node 0, Type 0, BuildingBlock: NAWXER_clean_linker_0, # of connection points: 4
#     Node 1, Type 0, BuildingBlock: NAWXER_clean_linker_0, # of connection points: 4
#     Node 2, Type 0, BuildingBlock: NAWXER_clean_linker_0, # of connection points: 4
#     Node 3, Type 0, BuildingBlock: NAWXER_clean_linker_0, # of connection points: 4
#     Node 4, Type 0, BuildingBlock: NAWXER_clean_linker_0, # of connection points: 4
#     Node 5, Type 0, BuildingBlock: NAWXER_clean_linker_0, # of connection points: 4
#     Node 6, Type 1, BuildingBlock: TAGTUT_clean_sbu_3, # of connection points: 8
#     Node 7, Type 1, BuildingBlock: TAGTUT_clean_sbu_3, # of connection points: 8
#     Node 8, Type 1, BuildingBlock: TAGTUT_clean_sbu_3, # of connection points: 8
#     Edge 9, Type (0, 1), None
#     Edge 10, Type (0, 1), None
#     Edge 11, Type (0, 1), None
#     Edge 12, Type (0, 1), None
#     Edge 13, Type (0, 1), None
#     Edge 14, Type (0, 1), None
#     Edge 15, Type (0, 1), None
#     Edge 16, Type (0, 1), None
#     Edge 17, Type (0, 1), None
#     Edge 18, Type (0, 1), None
#     Edge 19, Type (0, 1), None
#     Edge 20, Type (0, 1), None
#     Edge 21, Type (0, 1), None
#     Edge 22, Type (0, 1), None
#     Edge 23, Type (0, 1), None
#     Edge 24, Type (0, 1), None
#     Edge 25, Type (0, 1), None
#     Edge 26, Type (0, 1), None
#     Edge 27, Type (0, 1), None
#     Edge 28, Type (0, 1), None
#     Edge 29, Type (0, 1), None
#     Edge 30, Type (0, 1), None
#     Edge 31, Type (0, 1), None
#     Edge 32, Type (0, 1), None
# Relax obj value: 0.031
# Max RMSD: 0.101
# Mean RMSD: 0.035
data_MOF--net-csq--node1-TAGTUT_clean_sbu_3--node2-NAWXER_clean_linker_0--edge1-none
_symmetry_space_group_name_H-M    P1
_symmetry_Int_Tables_number       1
_symmetry_cell_setting            triclinic
loop_
_symmetry_equiv_pos_as_xyz
'x, y, z'
_cell_length_a     35.520881
_cell_length_b     35.116863
_cell_length_c     12.369173
_cell_angle_alpha  92.595488
_cell_angle_beta   93.787658
_cell_angle_gamma 120.38329
loop_
_atom_site_label
_atom_site_type_symbol
_atom_site_fract_x
_atom_site_fract_y
_atom_site_fract_z
_atom_type_partial_charge
C0 C 0.37453 0.50797 0.08396 0.0
C1 C 0.36485 0.46898 0.02214 0.0
C2 C 0.34148 0.51031 0.1351 0.0
C3 C 0.29836 0.47361 0.1263 0.0
C4 C 0.32147 0.43253 0.01335 0.0
C5 C 0.2887 0.43488 0.06442 0.0
C6 C 0.26423 0.47389 0.18934 0.0
C7 C 0.32887 0.42485 0.41718 0.0
C8 C 0.37009 0.46176 0.45287 0.0
C9 C 0.29578 0.43086 0.37091 0.0
C10 C 0.30348 0.47374 0.36131 0.0
C11 C 0.37803 0.50475 0.44006 0.0
C12 C 0.34457 0.51071 0.39564 0.0
C13 C 0.2694 0.47863 0.30367 0.0
C14 C 0.09248 0.42129 0.43953 0.0
C15 C 0.09347 0.45957 0.48287 0.0
C16 C 0.12701 0.42461 0.38416 0.0
C17 C 0.16379 0.46621 0.37347 0.0
C18 C 0.13025 0.50128 0.47155 0.0
C19 C 0.16548 0.5045 0.41906 0.0
C20 C 0.19878 0.46973 0.30783 0.0
C21 C 0.09279 0.46663 0.09718 0.0
C22 C 0.06978 0.42891 0.02176 0.0
C23 C 0.13319 0.47794 0.14903 0.0
C24 C 0.15053 0.45053 0.13237 0.0
C25 C 0.08749 0.40166 0.00323 0.0
C26 C 0.12765 0.4123 0.05913 0.0
C27 C 0.19222 0.46179 0.19313 0.0
H28 H 0.40712 0.53691 0.09036 0.0
H29 H 0.34958 0.54082 0.1816 0.0
H30 H 0.31261 0.40185 0.96635 0.0
H31 H 0.25595 0.40601 0.05748 0.0
H32 H 0.32202 0.3915 0.42714 0.0
H33 H 0.26414 0.40209 0.34235 0.0
H34 H 0.40939 0.53379 0.46899 0.0
H35 H 0.3508 0.54392 0.38702 0.0
H36 H 0.06465 0.38871 0.44721 0.0
H37 H 0.12494 0.3947 0.34902 0.0
H38 H 0.13214 0.53131 0.50507 0.0
H39 H 0.19343 0.53694 0.41091 0.0
H40 H 0.08104 0.48929 0.11207 0.0
H41 H 0.15121 0.50865 0.20104 0.0
H42 H 0.07093 0.37293 0.94422 0.0
H43 H 0.14093 0.39093 0.04494 0.0
N44 N 0.22515 0.46435 0.13749 0.0
N45 N 0.2369 0.47675 0.35955 0.0
C46 C 0.60875 0.0922 0.23911 0.0
C47 C 0.62139 0.06452 0.2878 0.0
C48 C 0.64029 0.13326 0.21076 0.0
C49 C 0.68488 0.14666 0.22657 0.0
C50 C 0.66616 0.07795 0.3034 0.0
C51 C 0.69779 0.11886 0.27251 0.0
C52 C 0.71699 0.18761 0.18365 0.0
C53 C 0.65179 0.08211 0.90692 0.0
C54 C 0.61435 0.08153 0.86014 0.0
C55 C 0.684 0.11899 0.97409 0.0
C56 C 0.67979 0.15628 0.99423 0.0
C57 C 0.61009 0.11888 0.88126 0.0
C58 C 0.64279 0.15613 0.94679 0.0
C59 C 0.71219 0.19342 0.07296 0.0
C60 C 0.87569 0.33111 0.97001 0.0
C61 C 0.86902 0.3635 0.92514 0.0
C62 C 0.84557 0.30116 0.03358 0.0
C63 C 0.80792 0.3026 0.05175 0.0
C64 C 0.83208 0.36615 0.94648 0.0
C65 C 0.80094 0.33495 0.00781 0.0
C66 C 0.77386 0.26614 0.10373 0.0
C67 C 0.86234 0.37288 0.3584 0.0
C68 C 0.89193 0.36418 0.4175 0.0
C69 C 0.82505 0.33881 0.29663 0.0
C70 C 0.81656 0.29511 0.29132 0.0
C71 C 0.88236 0.32019 0.41779 0.0
C72 C 0.84467 0.28579 0.35567 0.0
C73 C 0.77971 0.26006 0.21475 0.0
H74 H 0.57469 0.08342 0.22882 0.0
H75 H 0.62987 0.15464 0.17606 0.0
H76 H 0.67672 0.05743 0.34238 0.0
H77 H 0.73212 0.12864 0.28367 0.0
H78 H 0.65616 0.05404 0.89162 0.0
H79 H 0.71221 0.11838 0.01096 0.0
H80 H 0.58203 0.11982 0.84484 0.0
H81 H 0.63872 0.18437 0.96255 0.0
H82 H 0.90459 0.3292 0.95689 0.0
H83 H 0.85095 0.27591 0.06587 0.0
H84 H 0.82689 0.39142 0.91381 0.0
H85 H 0.77148 0.3358 0.02039 0.0
H86 H 0.86917 0.4066 0.35614 0.0
H87 H 0.80349 0.34689 0.25024 0.0
H88 H 0.90503 0.31276 0.46122 0.0
H89 H 0.83872 0.2523 0.35349 0.0
N90 N 0.75072 0.2207 0.25122 0.0
N91 N 0.74073 0.23256 0.03659 0.0
C92 C 0.5809 0.66295 0.8684 0.0
C93 C 0.54897 0.63617 0.78283 0.0
C94 C 0.57764 0.69597 0.92557 0.0
C95 C 0.54225 0.70199 0.89754 0.0
C96 C 0.5182 0.64732 0.74347 0.0
C97 C 0.51476 0.6803 0.80123 0.0
C98 C 0.53167 0.72763 0.97325 0.0
C99 C 0.50486 0.60637 0.16179 0.0
C100 C 0.52749 0.61761 0.26703 0.0
C101 C 0.50627 0.63944 0.09865 0.0
C102 C 0.53099 0.68444 0.13905 0.0
C103 C 0.55245 0.66267 0.30584 0.0
C104 C 0.55419 0.69539 0.24299 0.0
C105 C 0.52833 0.72025 0.08464 0.0
C106 C 0.47419 0.83839 0.28422 0.0
C107 C 0.50745 0.85902 0.37209 0.0
C108 C 0.47824 0.81426 0.19792 0.0
C109 C 0.51524 0.80998 0.1993 0.0
C110 C 0.54263 0.85151 0.37692 0.0
C111 C 0.54641 0.82707 0.29108 0.0
C112 C 0.51928 0.78246 0.11413 0.0
C113 C 0.53251 0.90159 0.95843 0.0
C114 C 0.50768 0.89303 0.85734 0.0
C115 C 0.53775 0.86859 0.00409 0.0
C116 C 0.51705 0.82544 0.9518 0.0
C117 C 0.4896 0.85096 0.80082 0.0
C118 C 0.49418 0.81752 0.84771 0.0
C119 C 0.52053 0.78902 0.00163 0.0
H120 H 0.60481 0.65461 0.89973 0.0
H121 H 0.60026 0.71388 0.99737 0.0
H122 H 0.49308 0.62666 0.67798 0.0
H123 H 0.48797 0.68556 0.7771 0.0
H124 H 0.48607 0.5721 0.12841 0.0
H125 H 0.48712 0.62969 0.02005 0.0
H126 H 0.57074 0.67297 0.38567 0.0
H127 H 0.57326 0.72963 0.27708 0.0
H128 H 0.44638 0.84331 0.27874 0.0
H129 H 0.4529 0.79944 0.12997 0.0
H130 H 0.56882 0.86705 0.44283 0.0
H131 H 0.57444 0.82252 0.29483 0.0
H132 H 0.54739 0.93389 0.00351 0.0
H133 H 0.55799 0.87711 0.08064 0.0
H134 H 0.47009 0.84322 0.72322 0.0
H135 H 0.47865 0.78495 0.80378 0.0
N136 N 0.52673 0.76094 0.93562 0.0
N137 N 0.52277 0.74847 0.14959 0.0
C138 C 0.89292 0.56525 0.79143 0.0
C139 C 0.89546 0.52719 0.76601 0.0
C140 C 0.85869 0.56246 0.8471 0.0
C141 C 0.826 0.52156 0.87708 0.0
C142 C 0.86193 0.48603 0.79376 0.0
C143 C 0.82744 0.48324 0.84843 0.0
C144 C 0.79616 0.52059 0.95639 0.0
C145 C 0.89543 0.49938 0.14895 0.0
C146 C 0.93057 0.54135 0.18902 0.0
C147 C 0.85566 0.49485 0.10924 0.0
C148 C 0.85128 0.5323 0.10754 0.0
C149 C 0.9272 0.57915 0.17691 0.0
C150 C 0.88752 0.57457 0.13682 0.0
C151 C 0.80942 0.52753 0.06838 0.0
C152 C 0.64299 0.49314 0.24865 0.0
C153 C 0.65336 0.53278 0.30929 0.0
C154 C 0.67372 0.49063 0.18901 0.0
C155 C 0.71568 0.52771 0.18728 0.0
C156 C 0.69636 0.56928 0.31316 0.0
C157 C 0.72731 0.56677 0.25221 0.0
C158 C 0.74447 0.5265 0.10695 0.0
C159 C 0.6549 0.5593 0.91196 0.0
C160 C 0.61993 0.52109 0.85439 0.0
C161 C 0.69039 0.55798 0.96167 0.0
C162 C 0.69141 0.51865 0.95234 0.0
C163 C 0.61944 0.48089 0.85196 0.0
C164 C 0.6555 0.47981 0.89982 0.0
C165 C 0.73098 0.51907 0.99438 0.0
H166 H 0.91803 0.59742 0.77087 0.0
H167 H 0.85869 0.59255 0.87075 0.0
H168 H 0.86234 0.45594 0.77348 0.0
H169 H 0.80291 0.45148 0.87255 0.0
H170 H 0.89713 0.46975 0.15868 0.0
H171 H 0.82788 0.46207 0.08395 0.0
H172 H 0.95404 0.6118 0.2076 0.0
H173 H 0.88465 0.60376 0.13215 0.0
H174 H 0.61057 0.46396 0.24507 0.0
H175 H 0.66408 0.46005 0.14038 0.0
H176 H 0.70549 0.60018 0.35938 0.0
H177 H 0.75953 0.59588 0.25162 0.0
H178 H 0.65586 0.59066 0.91298 0.0
H179 H 0.718 0.58812 0.00262 0.0
H180 H 0.59296 0.45137 0.8058 0.0
H181 H 0.65602 0.44921 0.89314 0.0
N182 N 0.75726 0.51676 0.92228 0.0
N183 N 0.7836 0.5306 0.14079 0.0
C184 C 0.30655 0.93515 0.02159 0.0
C185 C 0.31896 0.93075 0.9191 0.0
C186 C 0.27596 0.89755 0.06727 0.0
C187 C 0.26013 0.85512 0.01397 0.0
C188 C 0.29773 0.88925 0.8586 0.0
C189 C 0.2687 0.85148 0.90623 0.0
C190 C 0.23675 0.81467 0.07096 0.0
C191 C 0.36437 0.89155 0.31369 0.0
C192 C 0.35539 0.90844 0.40758 0.0
C193 C 0.32984 0.8621 0.23532 0.0
C194 C 0.2862 0.84906 0.25114 0.0
C195 C 0.3116 0.89555 0.42108 0.0
C196 C 0.27756 0.866 0.34456 0.0
C197 C 0.24845 0.81307 0.18124 0.0
C198 C 0.13596 0.63339 0.30884 0.0
C199 C 0.11782 0.64369 0.39589 0.0
C200 C 0.15711 0.66411 0.23416 0.0
C201 C 0.16085 0.70564 0.24634 0.0
C202 C 0.12418 0.68642 0.41113 0.0
C203 C 0.14563 0.71712 0.33699 0.0
C204 C 0.18691 0.74039 0.17724 0.0
C205 C 0.06615 0.63753 0.9687 0.0
C206 C 0.07464 0.62148 0.87223 0.0
C207 C 0.09874 0.67642 0.02908 0.0
C208 C 0.14101 0.7002 0.99558 0.0
C209 C 0.11587 0.64711 0.83399 0.0
C210 C 0.14867 0.68615 0.89503 0.0
C211 C 0.17724 0.73961 0.0638 0.0
H212 H 0.3227 0.96703 0.06913 0.0
H213 H 0.26696 0.90165 0.14693 0.0
H214 H 0.3074 0.88537 0.7794 0.0
H215 H 0.25581 0.8193 0.86192 0.0
H216 H 0.39778 0.90105 0.301 0.0
H217 H 0.33698 0.84853 0.16448 0.0
H218 H 0.30328 0.90756 0.49256 0.0
H219 H 0.24411 0.85578 0.35916 0.0
H220 H 0.13188 0.60076 0.29505 0.0
H221 H 0.17049 0.65553 0.16733 0.0
H222 H 0.11056 0.69542 0.47661 0.0
H223 H 0.14979 0.74985 0.34943 0.0
H224 H 0.03455 0.61904 0.99999 0.0
H225 H 0.09093 0.68737 0.10306 0.0
H226 H 0.12361 0.63574 0.76047 0.0
H227 H 0.18073 0.70435 0.86591 0.0
N228 N 0.20256 0.77729 0.01526 0.0
N229 N 0.22232 0.77653 0.22994 0.0
C230 C 0.51578 0.12973 0.08613 0.0
C231 C 0.50139 0.12387 0.97467 0.0
C232 C 0.51067 0.15888 0.15616 0.0
C233 C 0.48926 0.18058 0.11559 0.0
C234 C 0.48833 0.15213 0.93239 0.0
C235 C 0.48142 0.17937 0.00198 0.0
C236 C 0.47431 0.20494 0.1851 0.0
C237 C 0.43477 0.08104 0.35107 0.0
C238 C 0.46117 0.0892 0.44929 0.0
C239 C 0.43373 0.11557 0.30229 0.0
C240 C 0.45962 0.15923 0.34973 0.0
C241 C 0.48403 0.13227 0.50204 0.0
C242 C 0.4831 0.16711 0.45257 0.0
C243 C 0.46179 0.1963 0.29214 0.0
C244 C 0.40913 0.33508 0.36485 0.0
C245 C 0.43757 0.35665 0.46012 0.0
C246 C 0.40636 0.29723 0.31524 0.0
C247 C 0.43327 0.28199 0.35895 0.0
C248 C 0.45731 0.33609 0.51463 0.0
C249 C 0.45545 0.29896 0.46359 0.0
C250 C 0.44378 0.25338 0.2928 0.0
C251 C 0.4792 0.36877 0.074 0.0
C252 C 0.45386 0.35419 0.97162 0.0
C253 C 0.47797 0.3385 0.14559 0.0
C254 C 0.45124 0.29286 0.11699 0.0
C255 C 0.42714 0.30838 0.94324 0.0
C256 C 0.42622 0.2781 0.01477 0.0
C257 C 0.45415 0.26031 0.18422 0.0
H258 H 0.52761 0.10942 0.12046 0.0
H259 H 0.52153 0.16247 0.24163 0.0
H260 H 0.4787 0.14974 0.8462 0.0
H261 H 0.46704 0.1972 0.96568 0.0
H262 H 0.41658 0.04806 0.30886 0.0
H263 H 0.41423 0.10847 0.2249 0.0
H264 H 0.50486 0.13951 0.57719 0.0
H265 H 0.50248 0.20052 0.49183 0.0
H266 H 0.39277 0.35003 0.32302 0.0
H267 H 0.38664 0.2827 0.23789 0.0
H268 H 0.479 0.35193 0.58895 0.0
H269 H 0.47528 0.2867 0.50072 0.0
H270 H 0.50011 0.40379 0.09947 0.0
H271 H 0.49857 0.35073 0.22232 0.0
H272 H 0.40713 0.29592 0.86575 0.0
H273 H 0.40614 0.24294 0.98986 0.0
N274 N 0.46934 0.23621 0.13685 0.0
N275 N 0.44805 0.22168 0.34226 0.0
C276 C 0.05748 0.45553 0.5451 0.0
C277 C 0.03243 0.42429 0.95121 0.0
C278 C 0.90303 0.39546 0.8633 0.0
Mg279 Mg 0.01341 0.49824 0.39669 0.0
Mg280 Mg -0.00597 0.57097 0.52091 0.0
O281 O 0.97974 0.51179 0.50119 0.0
Mg282 Mg -0.00627 0.49035 0.63296 0.0
O283 O 0.00831 0.46662 0.75757 0.0
Mg284 Mg 0.98027 0.40256 0.70315 0.0
Mg285 Mg -0.01227 0.47733 0.88433 0.0
C286 C 0.93181 0.53014 0.707 0.0
O287 O 0.04276 0.56176 0.7256 0.0
O288 O 0.97549 0.51585 0.26893 0.0
O289 O 0.01975 0.54834 0.89264 0.0
O290 O 0.06841 0.56867 0.40455 0.0
O291 O 0.96763 0.56824 0.36065 0.0
O292 O 0.06326 0.61576 0.51983 0.0
O293 O 0.94366 0.4172 0.55997 0.0
O294 O 0.95702 0.4272 0.3871 0.0
C295 C 0.93548 0.40233 0.45921 0.0
C296 C 0.96234 0.54393 0.27406 0.0
O297 O 0.93972 0.49817 0.708 0.0
O298 O 0.02169 0.40235 0.85682 0.0
O299 O 0.95291 0.56367 0.65207 0.0
O300 O 0.92267 0.38135 0.80553 0.0
O301 O 0.01906 0.45073 0.97844 0.0
O302 O 0.91911 0.4365 0.88955 0.0
O303 O 0.04677 0.48526 0.54522 0.0
O304 O 0.03791 0.42219 0.60023 0.0
C305 C 0.0839 0.60744 0.45072 0.0
C306 C 0.04317 0.57515 0.82529 0.0
C307 C 0.4711 0.05478 0.48019 0.0
C308 C 0.58931 0.02787 0.34415 0.0
C309 C 0.51136 0.89696 0.43784 0.0
Mg310 Mg 0.41881 0.01752 0.68923 0.0
Mg311 Mg 0.45857 0.98682 0.89299 0.0
O312 O 0.43984 0.97765 0.74316 0.0
Mg313 Mg 0.48407 -0.01049 0.64185 0.0
O314 O 0.52598 0.00204 0.53478 0.0
Mg315 Mg 0.48452 0.97447 0.39907 0.0
Mg316 Mg 0.56892 0.98642 0.56341 0.0
C317 C 0.49598 0.92607 0.82212 0.0
O318 O 0.54353 0.03858 0.76179 0.0
O319 O 0.36416 0.98152 0.80121 0.0
O320 O 0.59581 0.02294 0.72434 0.0
O321 O 0.46094 0.07174 0.82553 0.0
O322 O 0.39429 0.96285 0.94018 0.0
O323 O 0.49818 0.05512 0.94672 0.0
O324 O 0.42738 0.94241 0.50852 0.0
O325 O 0.38037 0.96375 0.5529 0.0
C326 C 0.3901 0.94013 0.49236 0.0
C327 C 0.36186 0.96344 0.89028 0.0
O328 O 0.49302 0.93306 0.72072 0.0
O329 O 0.54824 0.01262 0.31659 0.0
O330 O 0.48775 0.94603 0.89805 0.0
O331 O 0.49212 0.91539 0.39414 0.0
O332 O 0.60391 0.02037 0.43311 0.0
O333 O 0.54104 0.91656 0.51792 0.0
O334 O 0.47464 0.04631 0.57909 0.0
O335 O 0.47586 0.03322 0.40213 0.0
C336 C 0.48879 0.08262 0.90875 0.0
C337 C 0.58224 0.04448 0.78069 0.0
C338 C 0.53645 0.58983 0.77057 0.0
C339 C 0.3973 0.46634 0.95665 0.0
C340 C 0.45384 0.38725 0.90007 0.0
Mg341 Mg 0.58214 0.57439 0.56295 0.0
Mg342 Mg 0.51744 0.49433 0.37737 0.0
O343 O 0.53993 0.50991 0.5247 0.0
Mg344 Mg 0.49851 0.49481 0.63946 0.0
O345 O 0.45915 0.48159 0.75806 0.0
Mg346 Mg 0.50031 0.49844 0.89169 0.0
Mg347 Mg 0.41112 0.4232 0.7486 0.0
C348 C 0.45704 0.40445 0.48212 0.0
O349 O 0.44213 0.48764 0.52963 0.0
O350 O 0.62705 0.56437 0.44249 0.0
O351 O 0.38642 0.42462 0.58389 0.0
O352 O 0.55509 0.5974 0.42091 0.0
O353 O 0.57842 0.50552 0.32699 0.0
O354 O 0.50492 0.54252 0.30383 0.0
O355 O 0.54939 0.49918 0.76944 0.0
O356 O 0.60879 0.55345 0.7052 0.0
C357 C 0.59075 0.52594 0.77594 0.0
C358 C 0.61799 0.53495 0.36262 0.0
O359 O 0.47065 0.4222 0.58067 0.0
O360 O 0.43932 0.492 0.98085 0.0
O361 O 0.46662 0.42688 0.39841 0.0
O362 O 0.47916 0.42808 0.93197 0.0
O363 O 0.38096 0.43804 0.87309 0.0
O364 O 0.42655 0.37545 0.81514 0.0
O365 O 0.52927 0.56951 0.67659 0.0
O366 O 0.52462 0.56913 0.85574 0.0
C367 C 0.52818 0.58379 0.33484 0.0
C368 C 0.4018 0.45629 0.52099 0.0
loop_
_geom_bond_atom_site_label_1
_geom_bond_atom_site_label_2
_geom_bond_distance
_geom_bond_site_symmetry_2
_ccdc_geom_bond_type
C0 C1 1.384 1_554 S
C0 C2 1.384 . S
C0 H28 0.931 . S
C1 C0 1.384 1_556 S
C1 C4 1.382 . S
C2 C0 1.384 . S
C2 C3 1.381 . S
C2 H29 0.930 . S
C3 C2 1.381 . S
C3 C5 1.381 . S
C3 C6 1.487 . S
C4 C1 1.382 . S
C4 C5 1.387 1_556 S
C4 H30 0.930 . S
C5 C3 1.381 . S
C5 C4 1.387 1_554 S
C5 H31 0.931 . S
C6 C3 1.487 . S
C6 C13 1.399 . S
C6 N44 1.343 . S
C7 C8 1.384 . S
C7 C9 1.384 . S
C7 H32 0.931 . S
C8 C7 1.384 . S
C8 C11 1.382 . S
C9 C7 1.384 . S
C9 C10 1.381 . S
C9 H33 0.930 . S
C10 C9 1.381 . S
C10 C12 1.381 . S
C10 C13 1.487 . S
C11 C8 1.382 . S
C11 C12 1.387 . S
C11 H34 0.930 . S
C12 C10 1.381 . S
C12 C11 1.387 . S
C12 H35 0.931 . S
C13 C6 1.399 . S
C13 C10 1.487 . S
C13 N45 1.343 . S
C14 C15 1.384 . S
C14 C16 1.384 . S
C14 H36 0.931 . S
C15 C14 1.384 . S
C15 C18 1.382 . S
C16 C14 1.384 . S
C16 C17 1.381 . S
C16 H37 0.930 . S
C17 C16 1.381 . S
C17 C19 1.381 . S
C17 C20 1.487 . S
C18 C15 1.382 . S
C18 C19 1.387 . S
C18 H38 0.930 . S
C19 C17 1.381 . S
C19 C18 1.387 . S
C19 H39 0.931 . S
C20 C17 1.487 . S
C20 C27 1.399 . S
C20 N45 1.343 . S
C21 C22 1.384 1_554 S
C21 C23 1.384 . S
C21 H40 0.931 . S
C22 C21 1.384 1_556 S
C22 C25 1.382 . S
C23 C21 1.384 . S
C23 C24 1.381 . S
C23 H41 0.930 . S
C24 C23 1.381 . S
C24 C26 1.381 . S
C24 C27 1.487 . S
C25 C22 1.382 . S
C25 C26 1.387 1_556 S
C25 H42 0.930 . S
C26 C24 1.381 . S
C26 C25 1.387 1_554 S
C26 H43 0.931 . S
C27 C20 1.399 . S
C27 C24 1.487 . S
C27 N44 1.343 . S
H28 C0 0.931 . S
H29 C2 0.930 . S
H30 C4 0.930 . S
H31 C5 0.931 . S
H32 C7 0.931 . S
H33 C9 0.930 . S
H34 C11 0.930 . S
H35 C12 0.931 . S
H36 C14 0.931 . S
H37 C16 0.930 . S
H38 C18 0.930 . S
H39 C19 0.931 . S
H40 C21 0.931 . S
H41 C23 0.930 . S
H42 C25 0.930 . S
H43 C26 0.931 . S
N44 C6 1.343 . S
N44 C27 1.343 . S
N45 C13 1.343 . S
N45 C20 1.343 . S
C46 C47 1.384 . S
C46 C48 1.384 . S
C46 H74 0.931 . S
C47 C46 1.384 . S
C47 C50 1.382 . S
C48 C46 1.384 . S
C48 C49 1.381 . S
C48 H75 0.930 . S
C49 C48 1.381 . S
C49 C51 1.381 . S
C49 C52 1.487 . S
C50 C47 1.382 . S
C50 C51 1.387 . S
C50 H76 0.930 . S
C51 C49 1.381 . S
C51 C50 1.387 . S
C51 H77 0.931 . S
C52 C49 1.487 . S
C52 C59 1.399 . S
C52 N90 1.343 . S
C53 C54 1.384 . S
C53 C55 1.381 1_556 S
C53 H78 0.931 . S
C54 C53 1.384 . S
C54 C57 1.382 . S
C55 C53 1.381 1_554 S
C55 C56 1.380 1_554 S
C55 H79 0.934 . S
C56 C55 1.380 1_556 S
C56 C58 1.381 . S
C56 C59 1.487 1_556 S
C57 C54 1.382 . S
C57 C58 1.387 . S
C57 H80 0.930 . S
C58 C56 1.381 . S
C58 C57 1.387 . S
C58 H81 0.931 . S
C59 C52 1.399 . S
C59 C56 1.487 1_554 S
C59 N91 1.343 . S
C60 C61 1.384 . S
C60 C62 1.384 1_556 S
C60 H82 0.931 . S
C61 C60 1.384 . S
C61 C64 1.382 . S
C62 C60 1.384 1_554 S
C62 C63 1.381 . S
C62 H83 0.930 . S
C63 C62 1.381 . S
C63 C65 1.381 1_554 S
C63 C66 1.487 . S
C64 C61 1.382 . S
C64 C65 1.387 . S
C64 H84 0.930 . S
C65 C63 1.381 1_556 S
C65 C64 1.387 . S
C65 H85 0.931 . S
C66 C63 1.487 . S
C66 C73 1.399 . S
C66 N91 1.343 . S
C67 C68 1.384 . S
C67 C69 1.384 . S
C67 H86 0.931 . S
C68 C67 1.384 . S
C68 C71 1.382 . S
C69 C67 1.384 . S
C69 C70 1.381 . S
C69 H87 0.930 . S
C70 C69 1.381 . S
C70 C72 1.381 . S
C70 C73 1.487 . S
C71 C68 1.382 . S
C71 C72 1.387 . S
C71 H88 0.930 . S
C72 C70 1.381 . S
C72 C71 1.387 . S
C72 H89 0.931 . S
C73 C66 1.399 . S
C73 C70 1.487 . S
C73 N90 1.343 . S
H74 C46 0.931 . S
H75 C48 0.930 . S
H76 C50 0.930 . S
H77 C51 0.931 . S
H78 C53 0.931 . S
H79 C55 0.934 . S
H80 C57 0.930 . S
H81 C58 0.931 . S
H82 C60 0.931 . S
H83 C62 0.930 . S
H84 C64 0.930 . S
H85 C65 0.931 . S
H86 C67 0.931 . S
H87 C69 0.930 . S
H88 C71 0.930 . S
H89 C72 0.931 . S
N90 C52 1.343 . S
N90 C73 1.343 . S
N91 C59 1.343 . S
N91 C66 1.343 . S
C92 C93 1.384 . S
C92 C94 1.384 . S
C92 H120 0.931 . S
C93 C92 1.384 . S
C93 C96 1.382 . S
C94 C92 1.384 . S
C94 C95 1.381 . S
C94 H121 0.930 1_556 S
C95 C94 1.381 . S
C95 C97 1.381 . S
C95 C98 1.487 . S
C96 C93 1.382 . S
C96 C97 1.387 . S
C96 H122 0.930 . S
C97 C95 1.381 . S
C97 C96 1.387 . S
C97 H123 0.931 . S
C98 C95 1.487 . S
C98 C105 1.399 1_556 S
C98 N136 1.343 . S
C99 C100 1.384 . S
C99 C101 1.384 . S
C99 H124 0.931 . S
C100 C99 1.384 . S
C100 C103 1.382 . S
C101 C99 1.384 . S
C101 C102 1.381 . S
C101 H125 0.930 . S
C102 C101 1.381 . S
C102 C104 1.381 . S
C102 C105 1.487 . S
C103 C100 1.382 . S
C103 C104 1.387 . S
C103 H126 0.930 . S
C104 C102 1.381 . S
C104 C103 1.387 . S
C104 H127 0.931 . S
C105 C98 1.399 1_554 S
C105 C102 1.487 . S
C105 N137 1.343 . S
C106 C107 1.384 . S
C106 C108 1.384 . S
C106 H128 0.931 . S
C107 C106 1.384 . S
C107 C110 1.382 . S
C108 C106 1.384 . S
C108 C109 1.381 . S
C108 H129 0.930 . S
C109 C108 1.381 . S
C109 C111 1.381 . S
C109 C112 1.487 . S
C110 C107 1.382 . S
C110 C111 1.387 . S
C110 H130 0.930 . S
C111 C109 1.381 . S
C111 C110 1.387 . S
C111 H131 0.931 . S
C112 C109 1.487 . S
C112 C119 1.399 1_554 S
C112 N137 1.343 . S
C113 C114 1.384 . S
C113 C115 1.384 . S
C113 H132 0.931 . S
C114 C113 1.384 . S
C114 C117 1.382 . S
C115 C113 1.384 . S
C115 C116 1.381 . S
C115 H133 0.930 1_556 S
C116 C115 1.381 . S
C116 C118 1.381 . S
C116 C119 1.487 . S
C117 C114 1.382 . S
C117 C118 1.387 . S
C117 H134 0.930 . S
C118 C116 1.381 . S
C118 C117 1.387 . S
C118 H135 0.931 . S
C119 C112 1.399 1_556 S
C119 C116 1.487 . S
C119 N136 1.343 . S
H120 C92 0.931 . S
H121 C94 0.930 1_554 S
H122 C96 0.930 . S
H123 C97 0.931 . S
H124 C99 0.931 . S
H125 C101 0.930 . S
H126 C103 0.930 . S
H127 C104 0.931 . S
H128 C106 0.931 . S
H129 C108 0.930 . S
H130 C110 0.930 . S
H131 C111 0.931 . S
H132 C113 0.931 . S
H133 C115 0.930 1_554 S
H134 C117 0.930 . S
H135 C118 0.931 . S
N136 C98 1.343 . S
N136 C119 1.343 . S
N137 C105 1.343 . S
N137 C112 1.343 . S
C138 C139 1.384 . S
C138 C140 1.384 . S
C138 H166 0.931 . S
C139 C138 1.384 . S
C139 C142 1.382 . S
C140 C138 1.384 . S
C140 C141 1.381 . S
C140 H167 0.930 . S
C141 C140 1.381 . S
C141 C143 1.381 . S
C141 C144 1.487 . S
C142 C139 1.382 . S
C142 C143 1.387 . S
C142 H168 0.930 . S
C143 C141 1.381 . S
C143 C142 1.387 . S
C143 H169 0.931 . S
C144 C141 1.487 . S
C144 C151 1.399 1_556 S
C144 N182 1.343 . S
C145 C146 1.384 . S
C145 C147 1.384 . S
C145 H170 0.931 . S
C146 C145 1.384 . S
C146 C149 1.382 . S
C147 C145 1.384 . S
C147 C148 1.381 . S
C147 H171 0.930 . S
C148 C147 1.381 . S
C148 C150 1.381 . S
C148 C151 1.487 . S
C149 C146 1.382 . S
C149 C150 1.387 . S
C149 H172 0.930 . S
C150 C148 1.381 . S
C150 C149 1.387 . S
C150 H173 0.931 . S
C151 C144 1.399 1_554 S
C151 C148 1.487 . S
C151 N183 1.343 . S
C152 C153 1.384 . S
C152 C154 1.384 . S
C152 H174 0.931 . S
C153 C152 1.384 . S
C153 C156 1.382 . S
C154 C152 1.384 . S
C154 C155 1.381 . S
C154 H175 0.930 . S
C155 C154 1.381 . S
C155 C157 1.381 . S
C155 C158 1.487 . S
C156 C153 1.382 . S
C156 C157 1.387 . S
C156 H176 0.930 . S
C157 C155 1.381 . S
C157 C156 1.387 . S
C157 H177 0.931 . S
C158 C155 1.487 . S
C158 C165 1.399 1_554 S
C158 N183 1.343 . S
C159 C160 1.384 . S
C159 C161 1.384 . S
C159 H178 0.931 . S
C160 C159 1.384 . S
C160 C163 1.382 . S
C161 C159 1.384 . S
C161 C162 1.381 . S
C161 H179 0.930 . S
C162 C161 1.381 . S
C162 C164 1.381 . S
C162 C165 1.487 . S
C163 C160 1.382 . S
C163 C164 1.387 . S
C163 H180 0.930 . S
C164 C162 1.381 . S
C164 C163 1.387 . S
C164 H181 0.931 . S
C165 C158 1.399 1_556 S
C165 C162 1.487 . S
C165 N182 1.343 . S
H166 C138 0.931 . S
H167 C140 0.930 . S
H168 C142 0.930 . S
H169 C143 0.931 . S
H170 C145 0.931 . S
H171 C147 0.930 . S
H172 C149 0.930 . S
H173 C150 0.931 . S
H174 C152 0.931 . S
H175 C154 0.930 . S
H176 C156 0.930 . S
H177 C157 0.931 . S
H178 C159 0.931 . S
H179 C161 0.930 . S
H180 C163 0.930 . S
H181 C164 0.931 . S
N182 C144 1.343 . S
N182 C165 1.343 . S
N183 C151 1.343 . S
N183 C158 1.343 . S
C184 C185 1.384 . S
C184 C186 1.384 1_556 S
C184 H212 0.931 . S
C185 C184 1.384 . S
C185 C188 1.382 . S
C186 C184 1.384 1_554 S
C186 C187 1.381 . S
C186 H213 0.930 . S
C187 C186 1.381 . S
C187 C189 1.381 1_554 S
C187 C190 1.487 . S
C188 C185 1.382 . S
C188 C189 1.387 . S
C188 H214 0.930 . S
C189 C187 1.381 1_556 S
C189 C188 1.387 . S
C189 H215 0.931 . S
C190 C187 1.487 . S
C190 C197 1.399 . S
C190 N228 1.343 . S
C191 C192 1.384 . S
C191 C193 1.384 . S
C191 H216 0.931 . S
C192 C191 1.384 . S
C192 C195 1.382 . S
C193 C191 1.384 . S
C193 C194 1.381 . S
C193 H217 0.930 . S
C194 C193 1.381 . S
C194 C196 1.381 . S
C194 C197 1.487 . S
C195 C192 1.382 . S
C195 C196 1.387 . S
C195 H218 0.930 . S
C196 C194 1.381 . S
C196 C195 1.387 . S
C196 H219 0.931 . S
C197 C190 1.399 . S
C197 C194 1.487 . S
C197 N229 1.343 . S
C198 C199 1.384 . S
C198 C200 1.384 . S
C198 H220 0.931 . S
C199 C198 1.384 . S
C199 C202 1.382 . S
C200 C198 1.384 . S
C200 C201 1.381 . S
C200 H221 0.930 . S
C201 C200 1.381 . S
C201 C203 1.381 . S
C201 C204 1.487 . S
C202 C199 1.382 . S
C202 C203 1.387 . S
C202 H222 0.930 . S
C203 C201 1.381 . S
C203 C202 1.387 . S
C203 H223 0.931 . S
C204 C201 1.487 . S
C204 C211 1.399 . S
C204 N229 1.343 . S
C205 C206 1.384 . S
C205 C207 1.384 1_556 S
C205 H224 0.931 . S
C206 C205 1.384 . S
C206 C209 1.382 . S
C207 C205 1.384 1_554 S
C207 C208 1.381 . S
C207 H225 0.930 . S
C208 C207 1.381 . S
C208 C210 1.381 1_554 S
C208 C211 1.487 . S
C209 C206 1.382 . S
C209 C210 1.387 . S
C209 H226 0.930 . S
C210 C208 1.381 1_556 S
C210 C209 1.387 . S
C210 H227 0.931 . S
C211 C204 1.399 . S
C211 C208 1.487 . S
C211 N228 1.343 . S
H212 C184 0.931 . S
H213 C186 0.930 . S
H214 C188 0.930 . S
H215 C189 0.931 . S
H216 C191 0.931 . S
H217 C193 0.930 . S
H218 C195 0.930 . S
H219 C196 0.931 . S
H220 C198 0.931 . S
H221 C200 0.930 . S
H222 C202 0.930 . S
H223 C203 0.931 . S
H224 C205 0.931 . S
H225 C207 0.930 . S
H226 C209 0.930 . S
H227 C210 0.931 . S
N228 C190 1.343 . S
N228 C211 1.343 . S
N229 C197 1.343 . S
N229 C204 1.343 . S
C230 C231 1.384 1_554 S
C230 C232 1.384 . S
C230 H258 0.931 . S
C231 C230 1.384 1_556 S
C231 C234 1.382 . S
C232 C230 1.384 . S
C232 C233 1.381 . S
C232 H259 0.930 . S
C233 C232 1.381 . S
C233 C235 1.381 . S
C233 C236 1.487 . S
C234 C231 1.382 . S
C234 C235 1.387 1_556 S
C234 H260 0.930 . S
C235 C233 1.381 . S
C235 C234 1.387 1_554 S
C235 H261 0.931 1_554 S
C236 C233 1.487 . S
C236 C243 1.399 . S
C236 N274 1.343 . S
C237 C238 1.384 . S
C237 C239 1.384 . S
C237 H262 0.931 . S
C238 C237 1.384 . S
C238 C241 1.382 . S
C239 C237 1.384 . S
C239 C240 1.381 . S
C239 H263 0.930 . S
C240 C239 1.381 . S
C240 C242 1.381 . S
C240 C243 1.487 . S
C241 C238 1.382 . S
C241 C242 1.387 . S
C241 H264 0.930 . S
C242 C240 1.381 . S
C242 C241 1.387 . S
C242 H265 0.931 . S
C243 C236 1.399 . S
C243 C240 1.487 . S
C243 N275 1.343 . S
C244 C245 1.384 . S
C244 C246 1.384 . S
C244 H266 0.931 . S
C245 C244 1.384 . S
C245 C248 1.382 . S
C246 C244 1.384 . S
C246 C247 1.381 . S
C246 H267 0.930 . S
C247 C246 1.381 . S
C247 C249 1.381 . S
C247 C250 1.487 . S
C248 C245 1.382 . S
C248 C249 1.387 . S
C248 H268 0.930 . S
C249 C247 1.381 . S
C249 C248 1.387 . S
C249 H269 0.931 . S
C250 C247 1.487 . S
C250 C257 1.399 . S
C250 N275 1.343 . S
C251 C252 1.384 1_554 S
C251 C253 1.384 . S
C251 H270 0.931 . S
C252 C251 1.384 1_556 S
C252 C255 1.382 . S
C253 C251 1.384 . S
C253 C254 1.381 . S
C253 H271 0.930 . S
C254 C253 1.381 . S
C254 C256 1.381 . S
C254 C257 1.487 . S
C255 C252 1.382 . S
C255 C256 1.387 1_556 S
C255 H272 0.930 . S
C256 C254 1.381 . S
C256 C255 1.387 1_554 S
C256 H273 0.931 1_554 S
C257 C250 1.399 . S
C257 C254 1.487 . S
C257 N274 1.343 . S
H258 C230 0.931 . S
H259 C232 0.930 . S
H260 C234 0.930 . S
H261 C235 0.931 1_556 S
H262 C237 0.931 . S
H263 C239 0.930 . S
H264 C241 0.930 . S
H265 C242 0.931 . S
H266 C244 0.931 . S
H267 C246 0.930 . S
H268 C248 0.930 . S
H269 C249 0.931 . S
H270 C251 0.931 . S
H271 C253 0.930 . S
H272 C255 0.930 . S
H273 C256 0.931 1_556 S
N274 C236 1.343 . S
N274 C257 1.343 . S
N275 C243 1.343 . S
N275 C250 1.343 . S
C276 O303 1.312 . S
C276 O304 1.208 . S
C277 O298 1.331 . S
C277 O301 1.244 . S
C278 O300 1.264 . S
C278 O302 1.273 . S
Mg279 O281 1.936 1_455 S
Mg279 O288 2.081 1_455 S
Mg279 O290 2.023 . S
Mg279 O294 2.031 1_455 S
Mg279 O303 2.291 . S
Mg280 O281 1.963 . S
Mg280 O291 1.942 . S
Mg280 O292 1.955 1_655 S
Mg280 O299 1.986 . S
O281 Mg279 1.936 1_655 S
O281 Mg280 1.963 . S
O281 Mg282 1.915 1_655 S
Mg282 O281 1.915 1_455 S
Mg282 O283 1.915 . S
Mg282 O287 2.013 . S
Mg282 O293 2.114 1_455 S
Mg282 O297 2.013 1_455 S
Mg282 O303 2.114 . S
O283 Mg282 1.915 . S
O283 Mg284 1.936 . S
O283 Mg285 1.963 . S
Mg284 O283 1.936 . S
Mg284 O293 2.291 1_455 S
Mg284 O298 2.081 . S
Mg284 O300 2.023 1_455 S
Mg284 O304 2.031 . S
Mg285 O283 1.963 . S
Mg285 O289 1.986 . S
Mg285 O301 1.942 . S
Mg285 O302 1.955 1_455 S
C286 O297 1.191 . S
C286 O299 1.307 . S
O287 Mg282 2.013 . S
O287 C306 1.191 . S
O288 Mg279 2.081 1_655 S
O288 C296 1.331 . S
O289 Mg285 1.986 . S
O289 C306 1.307 . S
O290 Mg279 2.023 . S
O290 C305 1.264 . S
O291 Mg280 1.942 . S
O291 C296 1.244 . S
O292 Mg280 1.955 1_455 S
O292 C305 1.273 . S
O293 Mg282 2.114 1_655 S
O293 Mg284 2.291 1_655 S
O293 C295 1.312 . S
O294 Mg279 2.031 1_655 S
O294 C295 1.208 . S
C295 O293 1.312 . S
C295 O294 1.208 . S
C296 O288 1.331 . S
C296 O291 1.244 . S
O297 Mg282 2.013 1_655 S
O297 C286 1.191 . S
O298 C277 1.331 . S
O298 Mg284 2.081 . S
O299 Mg280 1.986 . S
O299 C286 1.307 . S
O300 C278 1.264 . S
O300 Mg284 2.023 1_655 S
O301 C277 1.244 . S
O301 Mg285 1.942 . S
O302 C278 1.273 . S
O302 Mg285 1.955 1_655 S
O303 C276 1.312 . S
O303 Mg279 2.291 . S
O303 Mg282 2.114 . S
O304 C276 1.208 . S
O304 Mg284 2.031 . S
C305 O290 1.264 . S
C305 O292 1.273 . S
C306 O287 1.191 . S
C306 O289 1.307 . S
C307 O334 1.312 . S
C307 O335 1.208 . S
C308 O329 1.331 . S
C308 O332 1.244 . S
C309 O331 1.264 . S
C309 O333 1.273 . S
Mg310 O312 1.936 1_545 S
Mg310 O319 2.081 1_545 S
Mg310 O321 2.023 . S
Mg310 O325 2.031 1_545 S
Mg310 O334 2.291 . S
Mg311 O312 1.963 . S
Mg311 O322 1.942 . S
Mg311 O323 1.955 1_565 S
Mg311 O330 1.986 . S
O312 Mg310 1.936 1_565 S
O312 Mg311 1.963 . S
O312 Mg313 1.915 1_565 S
Mg313 O312 1.915 1_545 S
Mg313 O314 1.915 . S
Mg313 O318 2.013 . S
Mg313 O324 2.114 1_545 S
Mg313 O328 2.013 1_545 S
Mg313 O334 2.114 . S
O314 Mg313 1.915 . S
O314 Mg315 1.936 . S
O314 Mg316 1.963 . S
Mg315 O314 1.936 . S
Mg315 O324 2.291 1_545 S
Mg315 O329 2.081 . S
Mg315 O331 2.023 1_545 S
Mg315 O335 2.031 . S
Mg316 O314 1.963 . S
Mg316 O320 1.986 . S
Mg316 O332 1.942 . S
Mg316 O333 1.955 1_545 S
C317 O328 1.191 . S
C317 O330 1.307 . S
O318 Mg313 2.013 . S
O318 C337 1.191 . S
O319 Mg310 2.081 1_565 S
O319 C327 1.331 . S
O320 Mg316 1.986 . S
O320 C337 1.307 . S
O321 Mg310 2.023 . S
O321 C336 1.264 . S
O322 Mg311 1.942 . S
O322 C327 1.244 . S
O323 Mg311 1.955 1_545 S
O323 C336 1.273 . S
O324 Mg313 2.114 1_565 S
O324 Mg315 2.291 1_565 S
O324 C326 1.312 . S
O325 Mg310 2.031 1_565 S
O325 C326 1.208 . S
C326 O324 1.312 . S
C326 O325 1.208 . S
C327 O319 1.331 . S
C327 O322 1.244 . S
O328 Mg313 2.013 1_565 S
O328 C317 1.191 . S
O329 C308 1.331 . S
O329 Mg315 2.081 . S
O330 Mg311 1.986 . S
O330 C317 1.307 . S
O331 C309 1.264 . S
O331 Mg315 2.023 1_565 S
O332 C308 1.244 . S
O332 Mg316 1.942 . S
O333 C309 1.273 . S
O333 Mg316 1.955 1_565 S
O334 C307 1.312 . S
O334 Mg310 2.291 . S
O334 Mg313 2.114 . S
O335 C307 1.208 . S
O335 Mg315 2.031 . S
C336 O321 1.264 . S
C336 O323 1.273 . S
C337 O318 1.191 . S
C337 O320 1.307 . S
C338 O365 1.312 . S
C338 O366 1.208 . S
C339 O360 1.331 . S
C339 O363 1.244 . S
C340 O362 1.264 . S
C340 O364 1.273 . S
Mg341 O343 1.936 . S
Mg341 O350 2.081 . S
Mg341 O352 2.023 . S
Mg341 O356 2.031 . S
Mg341 O365 2.291 . S
Mg342 O343 1.963 . S
Mg342 O353 1.942 . S
Mg342 O354 1.955 . S
Mg342 O361 1.986 . S
O343 Mg341 1.936 . S
O343 Mg342 1.963 . S
O343 Mg344 1.915 . S
Mg344 O343 1.915 . S
Mg344 O345 1.915 . S
Mg344 O349 2.013 . S
Mg344 O355 2.114 . S
Mg344 O359 2.013 . S
Mg344 O365 2.114 . S
O345 Mg344 1.915 . S
O345 Mg346 1.936 . S
O345 Mg347 1.963 . S
Mg346 O345 1.936 . S
Mg346 O355 2.291 . S
Mg346 O360 2.081 . S
Mg346 O362 2.023 . S
Mg346 O366 2.031 . S
Mg347 O345 1.963 . S
Mg347 O351 1.986 . S
Mg347 O363 1.942 . S
Mg347 O364 1.955 . S
C348 O359 1.191 . S
C348 O361 1.307 . S
O349 Mg344 2.013 . S
O349 C368 1.191 . S
O350 Mg341 2.081 . S
O350 C358 1.331 . S
O351 Mg347 1.986 . S
O351 C368 1.307 . S
O352 Mg341 2.023 . S
O352 C367 1.264 . S
O353 Mg342 1.942 . S
O353 C358 1.244 . S
O354 Mg342 1.955 . S
O354 C367 1.273 . S
O355 Mg344 2.114 . S
O355 Mg346 2.291 . S
O355 C357 1.312 . S
O356 Mg341 2.031 . S
O356 C357 1.208 . S
C357 O355 1.312 . S
C357 O356 1.208 . S
C358 O350 1.331 . S
C358 O353 1.244 . S
O359 Mg344 2.013 . S
O359 C348 1.191 . S
O360 C339 1.331 . S
O360 Mg346 2.081 . S
O361 Mg342 1.986 . S
O361 C348 1.307 . S
O362 C340 1.264 . S
O362 Mg346 2.023 . S
O363 C339 1.244 . S
O363 Mg347 1.942 . S
O364 C340 1.273 . S
O364 Mg347 1.955 . S
O365 C338 1.312 . S
O365 Mg341 2.291 . S
O365 Mg344 2.114 . S
O366 C338 1.208 . S
O366 Mg346 2.031 . S
C367 O352 1.264 . S
C367 O354 1.273 . S
C368 O349 1.191 . S
C368 O351 1.307 . S
C15 C276 2.261 . S
C47 C308 1.636 . S
C367 C100 2.047 . S
C296 C146 1.325 . S
C192 C326 2.184 . S
C348 C245 1.749 . S
C317 C114 2.300 . S
C160 C357 1.686 . S
C306 C206 2.265 . S
C231 C336 1.436 . S
C1 C339 1.921 . S
C278 C61 1.716 . S
C286 C139 2.150 . S
C327 C185 1.417 . S
C340 C252 2.038 . S
C277 C22 1.301 . S
C337 C54 2.002 . S
C93 C338 1.638 . S
C307 C238 2.178 . S
C368 C8 1.599 . S
C295 C68 2.130 . S
C309 C107 1.438 . S
C153 C358 1.884 . S
C199 C305 1.664 . S
