# Generated by pormake.
# Topology pts, (4,4)-cn, num edge types: 1
# Building blocks:
#     Node 0, Type 0, BuildingBlock: KUFVIS_clean_linker_0, # of connection points: 4
#     Node 1, Type 0, BuildingBlock: KUFVIS_clean_linker_0, # of connection points: 4
#     Node 2, Type 1, BuildingBlock: UXUYUI_clean_sbu_0, # of connection points: 4
#     Node 3, Type 1, BuildingBlock: UXUYUI_clean_sbu_0, # of connection points: 4
#     Edge 4, Type (0, 1), BuildingBlock: XUDNAN_clean_linker_2, # of connection points: 2
#     Edge 5, Type (0, 1), BuildingBlock: XUDNAN_clean_linker_2, # of connection points: 2
#     Edge 6, Type (0, 1), BuildingBlock: XUDNAN_clean_linker_2, # of connection points: 2
#     Edge 7, Type (0, 1), BuildingBlock: XUDNAN_clean_linker_2, # of connection points: 2
#     Edge 8, Type (0, 1), BuildingBlock: XUDNAN_clean_linker_2, # of connection points: 2
#     Edge 9, Type (0, 1), BuildingBlock: XUDNAN_clean_linker_2, # of connection points: 2
#     Edge 10, Type (0, 1), BuildingBlock: XUDNAN_clean_linker_2, # of connection points: 2
#     Edge 11, Type (0, 1), BuildingBlock: XUDNAN_clean_linker_2, # of connection points: 2
# Relax obj value: 0.008
# Max RMSD: 0.067
# Mean RMSD: 0.060
data_MOF--net-pts--node1-UXUYUI_clean_sbu_0--node2-KUFVIS_clean_linker_0--edge1-XUDNAN_clean_linker_2
_symmetry_space_group_name_H-M    P1
_symmetry_Int_Tables_number       1
_symmetry_cell_setting            triclinic
loop_
_symmetry_equiv_pos_as_xyz
'x, y, z'
_cell_length_a     31.673803
_cell_length_b     31.653581
_cell_length_c     41.497709
_cell_angle_alpha  89.933294
_cell_angle_beta   90.10799
_cell_angle_gamma 90.530333
loop_
_atom_site_label
_atom_site_type_symbol
_atom_site_fract_x
_atom_site_fract_y
_atom_site_fract_z
_atom_type_partial_charge
H0 H 0.38033 0.02352 0.99246 0.0
H1 H 0.49952 0.04128 0.94603 0.0
H2 H 0.49332 1.01293 0.04825 0.0
H3 H 0.55474 0.04485 0.04993 0.0
H4 H 0.67394 0.03396 0.00313 0.0
H5 H 0.56089 1.00895 0.94932 0.0
C6 C 0.41446 0.02571 0.99403 0.0
C7 C 0.43416 0.01993 0.02386 0.0
C8 C 0.43775 0.03314 0.96601 0.0
C9 C 0.48207 0.03403 0.96776 0.0
C10 C 0.50333 0.02675 0.99735 0.0
C11 C 0.47854 0.01921 0.02527 0.0
C12 C 0.55095 0.02773 -0.00089 0.0
C13 C 0.57217 0.03752 0.02831 0.0
C14 C 0.61647 0.03884 0.02989 0.0
C15 C 0.63984 0.03186 0.00189 0.0
C16 C 0.62019 0.02128 0.97269 0.0
C17 C 0.57578 0.0188 0.97158 0.0
H18 H 0.01991 0.66646 0.49486 0.0
H19 H 0.04012 0.55291 0.5481 0.0
H20 H 1.01072 0.54789 0.44595 0.0
H21 H 0.04222 0.48702 0.44745 0.0
H22 H 0.03389 0.37261 0.50218 0.0
H23 H 1.01129 0.48994 0.54935 0.0
C24 C 0.02028 0.6322 0.49561 0.0
C25 C 1.01486 0.60934 0.46709 0.0
C26 C 0.02824 0.61195 0.52488 0.0
C27 C 0.03202 0.56776 0.52547 0.0
C28 C 0.02538 0.54332 0.49724 0.0
C29 C 1.0167 0.56498 0.46805 0.0
C30 C 0.02747 0.49568 0.49837 0.0
C31 C 0.03631 0.47171 0.4703 0.0
C32 C 0.03684 0.42728 0.47134 0.0
C33 C 0.03207 0.40681 0.50099 0.0
C34 C 0.02375 0.4294 0.52905 0.0
C35 C 0.02002 0.47349 0.52758 0.0
Li36 Li 0.03209 0.05788 0.26798 0.0
Li37 Li 0.02234 0.98216 0.27032 0.0
Li38 Li 0.06652 1.01409 0.22884 0.0
Li39 Li 0.98654 0.01929 0.22659 0.0
C40 C 0.09714 0.03314 0.30047 0.0
N41 N 0.13923 0.07319 0.35035 0.0
C42 C 0.09112 0.01967 0.33223 0.0
C43 C 0.12482 0.06676 0.29405 0.0
C44 C 0.11266 0.04036 0.35712 0.0
C45 C 0.1457 0.08668 0.31961 0.0
C46 C 0.94993 1.01357 0.29655 0.0
C47 C 0.8798 0.99092 0.31168 0.0
N48 N 0.89269 0.98772 0.34287 0.0
C49 C 0.96244 1.01025 0.32876 0.0
C50 C 0.90827 1.00396 0.2879 0.0
C51 C 0.93305 0.99703 0.35181 0.0
C52 C 0.03177 0.11275 0.32327 0.0
N53 N 0.03636 0.11078 0.29073 0.0
C54 C 0.04822 0.18554 0.28813 0.0
C55 C 0.04413 0.14625 0.27309 0.0
C56 C 0.04387 0.18855 0.3217 0.0
C57 C 0.03549 0.15143 0.33932 0.0
H58 H 0.02556 0.08431 0.33688 0.0
H59 H 0.04689 0.14416 0.24724 0.0
C60 C 0.05517 0.91326 0.30441 0.0
N61 N 0.01803 0.93169 0.29627 0.0
C62 C 0.05553 0.87323 0.3186 0.0
C63 C 0.9793 0.87217 0.31678 0.0
C64 C 0.98043 0.91199 0.30218 0.0
C65 C 0.01724 0.85199 0.32464 0.0
H66 H 0.08468 0.92898 0.29866 0.0
H67 H 0.95134 0.92604 0.29414 0.0
C68 C 0.04835 0.0812 0.193 0.0
N69 N 0.08504 0.113 0.13758 0.0
C70 C 0.02836 0.07577 0.16322 0.0
C71 C 0.08693 0.10294 0.19462 0.0
C72 C 0.04742 0.0921 0.13548 0.0
C73 C 0.105 0.1187 0.16632 0.0
C74 C 0.02876 0.92591 0.22327 0.0
C75 C 0.06956 0.90944 0.2225 0.0
C76 C 0.99416 0.89837 0.22592 0.0
C77 C 0.07505 0.86576 0.22444 0.0
C78 C 1.00096 0.85488 0.22785 0.0
N79 N 0.04093 0.83962 0.22708 0.0
C80 C 0.15431 1.00512 0.22192 0.0
C81 C 0.11809 1.00654 0.17193 0.0
C82 C 0.19306 1.00148 0.20627 0.0
N83 N 0.11788 1.00817 0.20469 0.0
C84 C 0.15629 1.00356 0.15524 0.0
C85 C 0.19445 1.00114 0.17249 0.0
H86 H 0.15334 1.0054 0.24792 0.0
H87 H 0.08867 1.00785 0.15876 0.0
C88 C 0.91765 0.06197 0.19853 0.0
N89 N 0.93559 0.02335 0.2021 0.0
C90 C 0.87785 0.0657 0.18414 0.0
C91 C 0.8758 0.98988 0.17742 0.0
C92 C 0.91588 0.98772 0.19138 0.0
C93 C 0.85611 0.0292 0.17401 0.0
H94 H 0.93385 0.08977 0.20759 0.0
H95 H 0.9308 0.9575 0.19433 0.0
O96 O 0.07585 1.01374 0.2758 0.0
O97 O 0.97815 0.02639 0.27357 0.0
O98 O 0.03029 0.0652 0.2204 0.0
O99 O 0.02288 0.96875 0.22239 0.0
H100 H 0.06982 0.99373 0.33766 0.0
H101 H 0.1297 0.07768 0.26961 0.0
H102 H 0.10816 0.03041 0.38183 0.0
H103 H 0.16695 0.11293 0.31501 0.0
H104 H 0.84748 0.98329 0.30533 0.0
H105 H 0.99464 1.01702 0.3358 0.0
H106 H 0.89802 1.00647 0.2631 0.0
H107 H 0.94237 0.99403 0.3768 0.0
H108 H 0.05399 0.21338 0.27353 0.0
H109 H 0.03233 0.15216 0.36529 0.0
H110 H 0.08547 0.85885 0.32446 0.0
H111 H 0.94915 0.85655 0.32059 0.0
H112 H 0.99861 0.05887 0.16149 0.0
H113 H 0.10301 0.10714 0.21743 0.0
H114 H 0.03237 0.08802 0.11225 0.0
H115 H 0.13497 0.13534 0.16719 0.0
H116 H 0.09681 0.93007 0.22088 0.0
H117 H 0.96242 0.91037 0.2275 0.0
H118 H 0.10647 0.85267 0.22403 0.0
H119 H 0.97447 0.8333 0.23026 0.0
H120 H 0.22173 0.99976 0.22046 0.0
H121 H 0.15598 1.00277 0.12915 0.0
H122 H 0.86361 0.09655 0.18197 0.0
H123 H 0.86024 0.96109 0.16948 0.0
Li124 Li 0.98888 1.01644 0.76866 0.0
Li125 Li 0.06641 0.02234 0.76984 0.0
Li126 Li 0.02137 0.05774 0.72584 0.0
Li127 Li 0.02788 0.98028 0.72874 0.0
C128 C 1.01484 0.09596 0.79704 0.0
N129 N 0.99673 0.15283 0.84545 0.0
C130 C 0.0311 0.09003 0.82804 0.0
C131 C 0.99016 0.13136 0.79049 0.0
C132 C 0.02137 0.11899 0.85223 0.0
C133 C 0.98112 0.15958 0.81534 0.0
C134 C 1.01405 0.95136 0.80162 0.0
C135 C 0.96388 0.90176 0.82402 0.0
N136 N 0.97592 0.91363 0.85419 0.0
C137 C 0.0262 0.96283 0.8328 0.0
C138 C 0.9829 0.92037 0.7971 0.0
C139 C 1.00646 0.94345 0.85909 0.0
C140 C 0.9051 0.9901 0.78014 0.0
N141 N 0.93786 1.01128 0.79424 0.0
C142 C 0.8952 0.02576 0.84046 0.0
C143 C 0.93388 0.02806 0.82425 0.0
C144 C 0.86032 1.00633 0.82547 0.0
C145 C 0.86574 0.98785 0.79512 0.0
H146 H 0.90931 0.97537 0.75692 0.0
H147 H 0.96044 0.04346 0.83563 0.0
C148 C 0.13549 0.06449 0.8007 0.0
N149 N 0.11844 0.02634 0.79265 0.0
C150 C 0.17564 0.06687 0.81477 0.0
C151 C 0.1799 0.99077 0.81168 0.0
C152 C 0.13956 0.98983 0.79801 0.0
C153 C 0.19861 0.02968 0.82002 0.0
H154 H 0.11828 0.09309 0.7956 0.0
H155 H 0.12535 0.96 0.79103 0.0
C156 C 0.9392 0.03067 0.71178 0.0
N157 N 0.86365 0.06529 0.69213 0.0
C158 C 0.91712 1.01324 0.68574 0.0
C159 C 0.92279 0.06557 0.7279 0.0
C160 C 0.879 0.03125 0.67613 0.0
C161 C 0.88456 0.08264 0.7176 0.0
C162 C 0.09399 1.00607 0.69637 0.0
C163 C 0.08247 1.01658 0.66487 0.0
C164 C 0.12526 0.97601 0.70175 0.0
C165 C 0.1024 0.99656 0.63914 0.0
C166 C 0.14437 0.95664 0.67536 0.0
N167 N 0.13263 0.96722 0.64487 0.0
C168 C 0.04386 0.14092 0.71076 0.0
C169 C 0.99043 0.11363 0.67631 0.0
C170 C 0.04135 0.18054 0.69599 0.0
N171 N 0.01827 0.10861 0.70102 0.0
C172 C 0.98617 0.15298 0.66141 0.0
C173 C 1.01164 0.18701 0.67143 0.0
H174 H 0.06568 0.13607 0.73048 0.0
H175 H 0.97103 0.0874 0.66842 0.0
C176 C 0.04914 0.89533 0.72076 0.0
N177 N 0.03259 0.92902 0.705 0.0
C178 C 0.0533 0.85657 0.70513 0.0
C179 C 0.02382 0.88799 0.65709 0.0
C180 C 0.01993 0.92613 0.67377 0.0
C181 C 0.04055 0.85239 0.67282 0.0
H182 H 0.05898 0.89854 0.74561 0.0
H183 H 1.00702 0.95352 0.6618 0.0
O184 O 0.02467 0.06836 0.77291 0.0
O185 O 0.03207 0.97087 0.77561 0.0
O186 O 0.97652 1.01324 0.72143 0.0
O187 O 0.07392 0.02434 0.72184 0.0
H188 H 0.05078 0.0632 0.83342 0.0
H189 H 0.9784 0.13727 0.76643 0.0
H190 H 0.03344 0.11458 0.87639 0.0
H191 H 0.96188 0.18698 0.81064 0.0
H192 H 0.93946 0.87799 0.82093 0.0
H193 H 0.05048 0.98656 0.83664 0.0
H194 H 0.97317 0.91123 0.77306 0.0
H195 H 1.01536 0.95218 0.88338 0.0
H196 H 0.89226 0.04011 0.86402 0.0
H197 H 0.83978 0.97183 0.7831 0.0
H198 H 0.18905 0.09751 0.82062 0.0
H199 H 0.19625 0.96132 0.81569 0.0
H200 H 0.92938 0.98612 0.67307 0.0
H201 H 0.93921 0.07901 0.7483 0.0
H202 H 0.86161 0.01815 0.65597 0.0
H203 H 0.87148 0.10962 0.7299 0.0
H204 H 0.05811 0.03962 0.66039 0.0
H205 H 0.13428 0.96738 0.72603 0.0
H206 H 0.0937 1.00421 0.61461 0.0
H207 H 0.16844 0.93311 0.67912 0.0
H208 H 0.06154 0.20614 0.70425 0.0
H209 H 0.96333 0.1568 0.64218 0.0
H210 H 0.06577 0.83002 0.71845 0.0
H211 H 1.01419 0.88657 0.63207 0.0
H212 H 0.36319 0.06401 0.03869 0.0
H213 H 0.44321 0.96372 0.07444 0.0
H214 H 0.3923 0.95028 0.11869 0.0
H215 H 0.32362 0.10128 0.11606 0.0
H216 H 0.27151 0.11045 0.10013 0.0
H217 H 0.31691 0.11528 0.07425 0.0
H218 H 0.28334 0.06102 0.03485 0.0
H219 H 0.23807 0.05568 0.06071 0.0
H220 H 0.26776 1.00963 0.04963 0.0
H221 H 0.32916 0.94487 0.15676 0.0
H222 H 0.26056 0.94817 0.18514 0.0
H223 H 0.22118 0.04926 0.12154 0.0
C224 C 0.37031 0.03936 0.05593 0.0
C225 C 0.40718 1.01478 0.053 0.0
C226 C 0.41546 0.98326 0.07637 0.0
C227 C 0.38656 0.97525 0.10144 0.0
C228 C 0.34969 0.99908 0.10275 0.0
C229 C 0.34172 0.03063 0.08061 0.0
C230 C 0.29877 0.05003 0.08573 0.0
C231 C 0.30297 0.09704 0.09458 0.0
C232 C 0.27033 0.04369 0.05597 0.0
C233 C 0.28331 0.02409 0.114 0.0
C234 C 0.31323 0.99518 0.12378 0.0
C235 C 0.30569 0.96756 0.14937 0.0
C236 C 0.26669 0.96968 0.16535 0.0
C237 C 0.23554 0.99886 0.15544 0.0
C238 C 0.24418 0.02632 0.12942 0.0
H239 H 0.07992 0.37749 0.55807 0.0
H240 H 0.95245 0.42454 0.56589 0.0
H241 H 0.93689 0.37089 0.60794 0.0
H242 H 0.05535 0.27294 0.56201 0.0
H243 H 0.10035 0.25673 0.58546 0.0
H244 H 0.10385 0.30315 0.56059 0.0
H245 H 0.12594 0.34831 0.60994 0.0
H246 H 0.12333 0.30181 0.635 0.0
H247 H 0.09339 0.34792 0.64553 0.0
H248 H 0.932 0.30411 0.64124 0.0
H249 H 0.94047 0.23466 0.66806 0.0
H250 H 0.07215 0.23318 0.64016 0.0
C251 C 0.04928 0.37746 0.56964 0.0
C252 C 0.01746 0.4053 0.55924 0.0
C253 C 0.97737 0.40393 0.57413 0.0
C254 C 0.96827 0.37342 0.59782 0.0
C255 C 0.99988 0.34512 0.60657 0.0
C256 C 0.03991 0.34755 0.59344 0.0
C257 C 0.06735 0.31163 0.605 0.0
C258 C 0.0826 0.28453 0.57657 0.0
C259 C 0.10471 0.32843 0.62507 0.0
C260 C 0.03613 0.2876 0.62577 0.0
C261 C 0.99736 0.30739 0.62643 0.0
C262 C 0.96248 0.28894 0.64156 0.0
C263 C 0.96745 0.24946 0.65651 0.0
C264 C 1.00704 0.22911 0.65641 0.0
C265 C 0.04181 0.24866 0.64111 0.0
H266 H 0.68497 0.08975 0.04246 0.0
H267 H 0.60196 0.99654 0.08627 0.0
H268 H 0.65119 0.99042 0.13231 0.0
H269 H 0.77613 0.03882 0.05786 0.0
H270 H 0.80844 0.08473 0.06613 0.0
H271 H 0.76289 0.08926 0.04052 0.0
H272 H 0.73269 0.14782 0.07717 0.0
H273 H 0.77863 0.14413 0.1027 0.0
H274 H 0.7266 0.13808 0.11972 0.0
H275 H 0.7155 0.98401 0.16743 0.0
H276 H 0.78681 0.98292 0.1918 0.0
H277 H 0.82822 0.08033 0.12521 0.0
C278 C 0.67646 0.06918 0.06233 0.0
C279 C 0.63955 0.04374 0.06091 0.0
C280 C 0.62965 1.01685 0.08715 0.0
C281 C 0.65762 1.01297 0.11328 0.0
C282 C 0.69501 0.03665 0.11297 0.0
C283 C 0.70405 0.06492 0.08847 0.0
C284 C 0.74813 0.08341 0.09203 0.0
C285 C 0.77549 0.07343 0.06238 0.0
C286 C 0.7464 0.1312 0.09829 0.0
C287 C 0.76323 0.05982 0.12157 0.0
C288 C 0.73201 0.03325 0.13346 0.0
C289 C 0.73981 1.00541 0.1588 0.0
C290 C 0.78045 1.00475 0.1723 0.0
C291 C 0.8128 0.03177 0.16052 0.0
C292 C 0.80379 0.06 0.1351 0.0
H293 H 0.97704 0.67527 0.54491 0.0
H294 H 0.09182 0.60929 0.57011 0.0
H295 H 0.10559 0.66143 0.61355 0.0
H296 H 0.01782 0.77661 0.55281 0.0
H297 H 0.97057 0.79951 0.56913 0.0
H298 H 0.96685 0.75403 0.54329 0.0
H299 H 0.92562 0.71294 0.5874 0.0
H300 H 0.92865 0.75855 0.61327 0.0
H301 H 0.94786 0.70833 0.62726 0.0
H302 H 0.11056 0.72597 0.64982 0.0
H303 H 0.10444 0.79429 0.67797 0.0
H304 H 0.98564 0.81698 0.6288 0.0
C305 C 1.00467 0.67131 0.56 0.0
C306 C 0.03338 0.63827 0.55425 0.0
C307 C 0.06919 0.63409 0.57442 0.0
C308 C 0.07734 0.66369 0.59897 0.0
C309 C 0.04914 0.69691 0.60313 0.0
C310 C 1.01321 0.70045 0.58443 0.0
C311 C 0.98912 0.74019 0.59227 0.0
C312 C 0.98593 0.76929 0.56261 0.0
C313 C 0.94521 0.72934 0.60587 0.0
C314 C 0.01755 0.75915 0.61784 0.0
C315 C 0.0519 0.73369 0.62394 0.0
C316 C 0.0834 0.74574 0.64562 0.0
C317 C 0.07954 0.78462 0.66159 0.0
C318 C 0.04441 0.81113 0.65582 0.0
C319 C 1.01307 0.79783 0.63366 0.0
H320 H 0.36904 0.08243 0.95487 0.0
H321 H 0.4521 0.99315 0.90849 0.0
H322 H 0.40296 0.9889 0.86207 0.0
H323 H 0.27758 0.03046 0.93736 0.0
H324 H 0.2456 0.07651 0.93088 0.0
H325 H 0.291 0.07968 0.95683 0.0
H326 H 0.32165 0.14133 0.92275 0.0
H327 H 0.27592 0.13885 0.89686 0.0
H328 H 0.32807 0.13479 0.87989 0.0
H329 H 0.33902 0.98519 0.82562 0.0
H330 H 0.26826 0.98588 0.80038 0.0
H331 H 0.22645 0.07634 0.87167 0.0
C332 C 0.37754 0.06301 0.93445 0.0
C333 C 0.41442 0.03819 0.93516 0.0
C334 C 0.42436 1.01289 0.90818 0.0
C335 C 0.39647 1.01012 0.88183 0.0
C336 C 0.35913 0.03324 0.88277 0.0
C337 C 0.35002 0.05975 0.9082 0.0
C338 C 0.30608 0.07786 0.90521 0.0
C339 C 0.27846 0.06536 0.93428 0.0
C340 C 0.30806 0.12607 0.90091 0.0
C341 C 0.29115 0.05625 0.8747 0.0
C342 C 0.32231 0.03097 0.8619 0.0
C343 C 0.3147 1.00546 0.83512 0.0
C344 C 0.27431 1.00577 0.82113 0.0
C345 C 0.24188 0.03128 0.83398 0.0
C346 C 0.25079 0.05717 0.8609 0.0
H347 H 0.98849 0.35922 0.45514 0.0
H348 H 0.09425 0.43513 0.42158 0.0
H349 H 0.10517 0.38445 0.37676 0.0
H350 H 0.03514 0.26156 0.44327 0.0
H351 H 0.98732 0.23479 0.43094 0.0
H352 H 0.98465 0.27971 0.45735 0.0
H353 H 0.93423 0.31726 0.41749 0.0
H354 H 0.93633 0.27221 0.39105 0.0
H355 H 0.94986 0.32405 0.37604 0.0
H356 H 0.1079 0.32095 0.33864 0.0
H357 H 0.10141 0.25244 0.31028 0.0
H358 H 0.99452 0.21872 0.37057 0.0
C359 C 1.01368 0.36553 0.43813 0.0
C360 C 0.04067 0.40099 0.44185 0.0
C361 C 0.07302 0.40833 0.41897 0.0
C362 C 0.07951 0.37961 0.39359 0.0
C363 C 0.05317 0.34405 0.39141 0.0
C364 C 0.02065 0.33726 0.41299 0.0
C365 C 0.99822 0.29563 0.40692 0.0
C366 C 1.00156 0.2662 0.43637 0.0
C367 C 0.95192 0.30273 0.39729 0.0
C368 C 0.02369 0.27935 0.3789 0.0
C369 C 0.055 0.30777 0.37001 0.0
C370 C 0.08318 0.29876 0.34523 0.0
C371 C 0.07919 0.2598 0.32921 0.0
C372 C 0.04747 0.23015 0.3382 0.0
C373 C 0.01935 0.24043 0.3633 0.0
H374 H 0.69751 0.98238 0.97008 0.0
H375 H 0.60439 0.04392 0.90957 0.0
H376 H 0.65367 0.04036 0.86355 0.0
H377 H 0.78245 0.04232 0.94202 0.0
H378 H 0.82037 1.00035 0.94472 0.0
H379 H 0.7753 1.00044 0.97103 0.0
H380 H 0.75393 0.9256 0.95123 0.0
H381 H 0.79918 0.9251 0.92498 0.0
H382 H 0.74707 0.91612 0.9087 0.0
H383 H 0.71599 0.03564 0.82535 0.0
H384 H 0.78599 0.03222 0.79903 0.0
H385 H 0.83987 0.98094 0.88665 0.0
C386 C 0.68713 0.99501 0.94718 0.0
C387 C 0.64691 1.01369 0.94366 0.0
C388 C 0.63466 0.02892 0.91292 0.0
C389 C 0.6626 0.02727 0.88665 0.0
C390 C 0.70271 1.01047 0.89152 0.0
C391 C 0.71488 0.99462 0.92109 0.0
C392 C 0.76092 0.98214 0.92118 0.0
C393 C 0.78623 1.00785 0.94621 0.0
C394 C 0.76553 0.9344 0.92685 0.0
C395 C 0.77317 0.99419 0.88716 0.0
C396 C 0.73899 1.00969 0.8702 0.0
C397 C 0.74284 0.02334 0.83838 0.0
C398 C 0.78263 0.02126 0.82363 0.0
C399 C 0.81816 1.0064 0.84089 0.0
C400 C 0.81321 0.9926 0.87301 0.0
H401 H 0.96319 0.67626 0.45518 0.0
H402 H 0.05847 0.59806 0.41089 0.0
H403 H 0.06373 0.64862 0.36552 0.0
H404 H 0.91415 0.71715 0.37859 0.0
H405 H 0.90675 0.76861 0.39615 0.0
H406 H 0.90438 0.72208 0.4212 0.0
H407 H 0.9622 0.7543 0.45822 0.0
H408 H 0.96535 0.80049 0.43309 0.0
H409 H 1.01213 0.77017 0.44105 0.0
H410 H 0.06772 0.71375 0.33054 0.0
H411 H 0.06582 0.78514 0.3063 0.0
H412 H 0.96862 0.8212 0.37409 0.0
C413 C 0.98412 0.66908 0.43536 0.0
C414 C 1.01031 0.63317 0.43643 0.0
C415 C 0.03764 0.62499 0.41027 0.0
C416 C 0.04101 0.65371 0.38453 0.0
C417 C 1.01645 0.6901 0.38517 0.0
C418 C 0.98793 0.69743 0.40966 0.0
C419 C 0.96826 0.7407 0.40656 0.0
C420 C 0.92055 0.73689 0.40024 0.0
C421 C 0.97756 0.768 0.4365 0.0
C422 C 0.99133 0.75733 0.37722 0.0
C423 C 0.01872 0.72758 0.36503 0.0
C424 C 0.0458 0.73695 0.33951 0.0
C425 C 0.0448 0.77768 0.32611 0.0
C426 C 0.01698 0.80859 0.33828 0.0
C427 C 0.98964 0.79796 0.36393 0.0
loop_
_geom_bond_atom_site_label_1
_geom_bond_atom_site_label_2
_geom_bond_distance
_geom_bond_site_symmetry_2
_ccdc_geom_bond_type
H0 C6 0.928 1_565 S
H1 C9 0.931 . S
H2 C11 0.932 . S
H3 C13 0.930 . S
H4 C15 0.930 . S
H5 C17 0.931 . S
C6 H0 0.928 1_545 S
C6 C7 1.379 1_545 S
C6 C8 1.398 1_554 S
C7 C6 1.379 1_565 S
C7 C11 1.382 . S
C8 C6 1.398 1_556 S
C8 C9 1.400 . S
C9 H1 0.931 . S
C9 C8 1.400 . S
C9 C10 1.375 1_556 S
C10 C9 1.375 1_554 S
C10 C11 1.414 1_545 S
C10 C12 1.501 . S
C11 H2 0.932 . S
C11 C7 1.382 . S
C11 C10 1.414 1_565 S
C12 C10 1.501 . S
C12 C13 1.384 . S
C12 C17 1.408 1_544 S
C13 H3 0.930 . S
C13 C12 1.384 . S
C13 C14 1.389 . S
C14 C13 1.389 . S
C14 C15 1.405 . S
C15 H4 0.930 . S
C15 C14 1.405 . S
C15 C16 1.363 1_544 S
C16 C15 1.363 1_566 S
C16 C17 1.400 . S
C17 H5 0.931 . S
C17 C12 1.408 1_566 S
C17 C16 1.400 . S
H18 C24 0.930 . S
H19 C27 0.931 . S
H20 C29 0.931 . S
H21 C31 0.931 . S
H22 C33 0.930 . S
H23 C35 0.931 . S
C24 H18 0.930 . S
C24 C25 1.380 . S
C24 C26 1.394 . S
C25 C24 1.380 . S
C25 C29 1.382 . S
C26 C24 1.394 . S
C26 C27 1.400 1_455 S
C27 H19 0.931 . S
C27 C26 1.400 1_655 S
C27 C28 1.375 1_655 S
C28 C27 1.375 1_455 S
C28 C29 1.415 . S
C28 C30 1.501 . S
C29 H20 0.931 . S
C29 C25 1.382 . S
C29 C28 1.415 . S
C30 C28 1.501 . S
C30 C31 1.383 1_455 S
C30 C35 1.408 . S
C31 H21 0.931 . S
C31 C30 1.383 1_655 S
C31 C32 1.389 1_655 S
C32 C31 1.389 1_455 S
C32 C33 1.405 . S
C33 H22 0.930 . S
C33 C32 1.405 . S
C33 C34 1.364 . S
C34 C33 1.364 . S
C34 C35 1.400 . S
C35 H23 0.931 . S
C35 C30 1.408 . S
C35 C34 1.400 . S
Li36 N53 1.990 . S
Li36 O96 1.958 1_545 S
Li36 O97 1.970 1_455 S
Li36 O98 1.961 . S
Li37 N61 1.990 . S
Li37 O96 1.968 . S
Li37 O97 1.956 1_465 S
Li37 O99 1.961 . S
Li38 N83 1.990 . S
Li38 O96 1.961 1_545 S
Li38 O98 1.956 . S
Li38 O99 1.970 1_545 S
Li39 N89 1.990 . S
Li39 O97 1.961 1_565 S
Li39 O98 1.969 1_665 S
Li39 O99 1.957 1_655 S
C40 C42 1.348 1_545 S
C40 C43 1.356 . S
C40 O96 1.325 1_545 S
N41 C44 1.314 1_545 S
N41 C45 1.279 . S
C42 C40 1.348 1_565 S
C42 C44 1.353 . S
C42 H100 0.929 . S
C43 C40 1.356 . S
C43 C45 1.358 . S
C43 H101 0.930 . S
C44 N41 1.314 1_565 S
C44 C42 1.353 . S
C44 H102 0.930 . S
C45 N41 1.279 . S
C45 C43 1.358 . S
C45 H103 0.930 . S
C46 C49 1.348 . S
C46 C50 1.356 1_545 S
C46 O97 1.325 . S
C47 N48 1.279 . S
C47 C50 1.358 . S
C47 H104 0.930 . S
N48 C47 1.279 . S
N48 C51 1.314 1_565 S
C49 C46 1.348 . S
C49 C51 1.353 . S
C49 H105 0.929 . S
C50 C46 1.356 1_565 S
C50 C47 1.358 . S
C50 H106 0.930 . S
C51 N48 1.314 1_545 S
C51 C49 1.353 . S
C51 H107 0.930 . S
C52 N53 1.314 1_655 S
C52 C57 1.353 . S
C52 H58 0.930 . S
N53 Li36 1.990 . S
N53 C52 1.314 1_455 S
N53 C55 1.279 . S
C54 C55 1.358 . S
C54 C56 1.356 . S
C54 H108 0.930 . S
C55 N53 1.279 . S
C55 C54 1.358 . S
C55 H59 0.930 . S
C56 C54 1.356 . S
C56 C57 1.348 1_455 S
C57 C52 1.353 . S
C57 C56 1.348 1_655 S
C57 H109 0.929 . S
H58 C52 0.930 . S
H59 C55 0.930 . S
C60 N61 1.314 . S
C60 C62 1.353 . S
C60 H66 0.930 . S
N61 Li37 1.990 . S
N61 C60 1.314 . S
N61 C64 1.279 1_455 S
C62 C60 1.353 . S
C62 C65 1.348 . S
C62 H110 0.929 . S
C63 C64 1.358 . S
C63 C65 1.356 1_655 S
C63 H111 0.930 . S
C64 N61 1.279 1_655 S
C64 C63 1.358 . S
C64 H67 0.930 . S
C65 C62 1.348 . S
C65 C63 1.356 1_455 S
H66 C60 0.930 . S
H67 C64 0.930 . S
C68 C70 1.348 1_455 S
C68 C71 1.356 . S
C68 O98 1.325 . S
N69 C72 1.314 1_455 S
N69 C73 1.279 . S
C70 C68 1.348 1_655 S
C70 C72 1.353 . S
C70 H112 0.929 . S
C71 C68 1.356 . S
C71 C73 1.358 . S
C71 H113 0.930 . S
C72 N69 1.314 1_655 S
C72 C70 1.353 . S
C72 H114 0.930 . S
C73 N69 1.279 . S
C73 C71 1.358 . S
C73 H115 0.930 . S
C74 C75 1.348 . S
C74 C76 1.356 1_455 S
C74 O99 1.325 . S
C75 C74 1.348 . S
C75 C77 1.353 . S
C75 H116 0.929 . S
C76 C74 1.356 1_655 S
C76 C78 1.358 . S
C76 H117 0.930 . S
C77 C75 1.353 . S
C77 N79 1.314 . S
C77 H118 0.930 . S
C78 C76 1.358 . S
C78 N79 1.279 1_655 S
C78 H119 0.930 . S
N79 C77 1.314 . S
N79 C78 1.279 1_455 S
C80 C82 1.353 . S
C80 N83 1.314 1_565 S
C80 H86 0.930 . S
C81 N83 1.279 . S
C81 C84 1.358 . S
C81 H87 0.930 . S
C82 C80 1.353 . S
C82 C85 1.348 1_565 S
C82 H120 0.929 . S
N83 Li38 1.990 . S
N83 C80 1.314 1_545 S
N83 C81 1.279 . S
C84 C81 1.358 . S
C84 C85 1.356 . S
C84 H121 0.930 . S
C85 C82 1.348 1_545 S
C85 C84 1.356 . S
H86 C80 0.930 . S
H87 C81 0.930 . S
C88 N89 1.314 1_545 S
C88 C90 1.353 . S
C88 H94 0.930 . S
N89 Li39 1.990 . S
N89 C88 1.314 1_565 S
N89 C92 1.279 . S
C90 C88 1.353 . S
C90 C93 1.348 . S
C90 H122 0.929 . S
C91 C92 1.358 . S
C91 C93 1.356 1_565 S
C91 H123 0.930 . S
C92 N89 1.279 . S
C92 C91 1.358 . S
C92 H95 0.930 . S
C93 C90 1.348 . S
C93 C91 1.356 1_545 S
H94 C88 0.930 . S
H95 C92 0.930 . S
O96 Li36 1.958 1_565 S
O96 Li37 1.968 . S
O96 Li38 1.961 1_565 S
O96 C40 1.325 1_565 S
O97 Li36 1.970 1_655 S
O97 Li37 1.956 1_645 S
O97 Li39 1.961 1_545 S
O97 C46 1.325 . S
O98 Li36 1.961 . S
O98 Li38 1.956 . S
O98 Li39 1.969 1_445 S
O98 C68 1.325 . S
O99 Li37 1.961 . S
O99 Li38 1.970 1_565 S
O99 Li39 1.957 1_455 S
O99 C74 1.325 . S
H100 C42 0.929 . S
H101 C43 0.930 . S
H102 C44 0.930 . S
H103 C45 0.930 . S
H104 C47 0.930 . S
H105 C49 0.929 . S
H106 C50 0.930 . S
H107 C51 0.930 . S
H108 C54 0.930 . S
H109 C57 0.929 . S
H110 C62 0.929 . S
H111 C63 0.930 . S
H112 C70 0.929 . S
H113 C71 0.930 . S
H114 C72 0.930 . S
H115 C73 0.930 . S
H116 C75 0.929 . S
H117 C76 0.930 . S
H118 C77 0.930 . S
H119 C78 0.930 . S
H120 C82 0.929 . S
H121 C84 0.930 . S
H122 C90 0.929 . S
H123 C91 0.930 . S
Li124 N141 1.990 . S
Li124 O184 1.956 1_655 S
Li124 O185 1.970 1_645 S
Li124 O186 1.961 . S
Li125 N149 1.990 1_545 S
Li125 O184 1.969 . S
Li125 O185 1.958 1_545 S
Li125 O187 1.961 . S
Li126 N171 1.990 . S
Li126 O184 1.961 . S
Li126 O186 1.959 1_455 S
Li126 O187 1.970 . S
Li127 N177 1.990 . S
Li127 O185 1.961 . S
Li127 O186 1.968 1_465 S
Li127 O187 1.956 1_565 S
C128 C130 1.348 . S
C128 C131 1.356 1_455 S
C128 O184 1.325 . S
N129 C132 1.331 . S
N129 C133 1.264 1_455 S
C130 C128 1.348 . S
C130 C132 1.353 . S
C130 H188 0.929 . S
C131 C128 1.356 1_655 S
C131 C133 1.358 . S
C131 H189 0.930 . S
C132 N129 1.331 . S
C132 C130 1.353 . S
C132 H190 0.930 . S
C133 N129 1.264 1_655 S
C133 C131 1.358 . S
C133 H191 0.930 . S
C134 C137 1.348 1_455 S
C134 C138 1.356 . S
C134 O185 1.325 . S
C135 N136 1.279 . S
C135 C138 1.358 . S
C135 H192 0.930 . S
N136 C135 1.279 . S
N136 C139 1.314 1_455 S
C137 C134 1.348 1_655 S
C137 C139 1.353 . S
C137 H193 0.929 . S
C138 C134 1.356 . S
C138 C135 1.358 . S
C138 H194 0.930 . S
C139 N136 1.314 1_655 S
C139 C137 1.353 . S
C139 H195 0.930 . S
C140 N141 1.314 1_565 S
C140 C145 1.353 . S
C140 H146 0.930 . S
N141 Li124 1.990 . S
N141 C140 1.314 1_545 S
N141 C143 1.279 . S
C142 C143 1.358 . S
C142 C144 1.356 . S
C142 H196 0.930 . S
C143 N141 1.279 . S
C143 C142 1.358 . S
C143 H147 0.930 . S
C144 C142 1.356 . S
C144 C145 1.348 1_545 S
C145 C140 1.353 . S
C145 C144 1.348 1_565 S
C145 H197 0.929 . S
H146 C140 0.930 . S
H147 C143 0.930 . S
C148 N149 1.314 1_545 S
C148 C150 1.353 . S
C148 H154 0.930 . S
N149 Li125 1.990 1_565 S
N149 C148 1.314 1_565 S
N149 C152 1.279 . S
C150 C148 1.353 . S
C150 C153 1.348 . S
C150 H198 0.929 . S
C151 C152 1.358 . S
C151 C153 1.356 1_565 S
C151 H199 0.930 . S
C152 N149 1.279 . S
C152 C151 1.358 . S
C152 H155 0.930 . S
C153 C150 1.348 . S
C153 C151 1.356 1_545 S
H154 C148 0.930 . S
H155 C152 0.930 . S
C156 C158 1.348 1_545 S
C156 C159 1.356 . S
C156 O186 1.325 . S
N157 C160 1.314 1_545 S
N157 C161 1.279 . S
C158 C156 1.348 1_565 S
C158 C160 1.353 . S
C158 H200 0.929 . S
C159 C156 1.356 . S
C159 C161 1.358 . S
C159 H201 0.930 . S
C160 N157 1.314 1_565 S
C160 C158 1.353 . S
C160 H202 0.930 . S
C161 N157 1.279 . S
C161 C159 1.358 . S
C161 H203 0.930 . S
C162 C163 1.348 . S
C162 C164 1.356 1_545 S
C162 O187 1.325 . S
C163 C162 1.348 . S
C163 C165 1.353 . S
C163 H204 0.929 . S
C164 C162 1.356 1_565 S
C164 C166 1.358 . S
C164 H205 0.930 . S
C165 C163 1.353 . S
C165 N167 1.314 1_545 S
C165 H206 0.930 . S
C166 C164 1.358 . S
C166 N167 1.279 . S
C166 H207 0.930 . S
N167 C165 1.314 1_565 S
N167 C166 1.279 . S
C168 C170 1.353 . S
C168 N171 1.314 . S
C168 H174 0.930 . S
C169 N171 1.279 1_655 S
C169 C172 1.358 . S
C169 H175 0.930 . S
C170 C168 1.353 . S
C170 C173 1.348 . S
C170 H208 0.929 . S
N171 Li126 1.990 . S
N171 C168 1.314 . S
N171 C169 1.279 1_455 S
C172 C169 1.358 . S
C172 C173 1.356 1_655 S
C172 H209 0.930 . S
C173 C170 1.348 . S
C173 C172 1.356 1_455 S
H174 C168 0.930 . S
H175 C169 0.930 . S
C176 N177 1.314 1_655 S
C176 C178 1.353 . S
C176 H182 0.930 . S
N177 Li127 1.990 . S
N177 C176 1.314 1_455 S
N177 C180 1.279 . S
C178 C176 1.353 . S
C178 C181 1.348 1_655 S
C178 H210 0.929 . S
C179 C180 1.358 . S
C179 C181 1.356 . S
C179 H211 0.930 . S
C180 N177 1.279 . S
C180 C179 1.358 . S
C180 H183 0.930 . S
C181 C178 1.348 1_455 S
C181 C179 1.356 . S
H182 C176 0.930 . S
H183 C180 0.930 . S
O184 Li124 1.956 1_455 S
O184 Li125 1.969 . S
O184 Li126 1.961 . S
O184 C128 1.325 . S
O185 Li124 1.970 1_465 S
O185 Li125 1.958 1_565 S
O185 Li127 1.961 . S
O185 C134 1.325 . S
O186 Li124 1.961 . S
O186 Li126 1.959 1_655 S
O186 Li127 1.968 1_645 S
O186 C156 1.325 . S
O187 Li125 1.961 . S
O187 Li126 1.970 . S
O187 Li127 1.956 1_545 S
O187 C162 1.325 . S
H188 C130 0.929 . S
H189 C131 0.930 . S
H190 C132 0.930 . S
H191 C133 0.930 . S
H192 C135 0.930 . S
H193 C137 0.929 . S
H194 C138 0.930 . S
H195 C139 0.930 . S
H196 C142 0.930 . S
H197 C145 0.929 . S
H198 C150 0.929 . S
H199 C151 0.930 . S
H200 C158 0.929 . S
H201 C159 0.930 . S
H202 C160 0.930 . S
H203 C161 0.930 . S
H204 C163 0.929 . S
H205 C164 0.930 . S
H206 C165 0.930 . S
H207 C166 0.930 . S
H208 C170 0.929 . S
H209 C172 0.930 . S
H210 C178 0.929 . S
H211 C179 0.930 . S
H212 C224 0.930 . S
H213 C226 0.930 . S
H214 C227 0.930 . S
H215 C231 0.959 . S
H216 C231 0.959 . S
H217 C231 0.961 . S
H218 C232 0.960 . S
H219 C232 0.961 . S
H220 C232 0.959 . S
H221 C235 0.929 . S
H222 C236 0.931 . S
H223 C238 0.930 . S
C224 H212 0.930 . S
C224 C225 1.399 1_545 S
C224 C229 1.399 . S
C225 C224 1.399 1_565 S
C225 C226 1.376 . S
C226 H213 0.930 . S
C226 C225 1.376 . S
C226 C227 1.388 . S
C227 H214 0.930 . S
C227 C226 1.388 . S
C227 C228 1.390 . S
C228 C227 1.390 . S
C228 C229 1.394 1_565 S
C228 C234 1.465 . S
C229 C224 1.399 . S
C229 C228 1.394 1_545 S
C229 C230 1.516 . S
C230 C229 1.516 . S
C230 C231 1.502 . S
C230 C232 1.561 . S
C230 C233 1.526 . S
C231 H215 0.959 . S
C231 H216 0.959 . S
C231 H217 0.961 . S
C231 C230 1.502 . S
C232 H218 0.960 . S
C232 H219 0.961 . S
C232 H220 0.959 . S
C232 C230 1.561 . S
C233 C230 1.526 . S
C233 C234 1.396 1_545 S
C233 C238 1.390 . S
C234 C228 1.465 . S
C234 C233 1.396 1_565 S
C234 C235 1.399 . S
C235 H221 0.929 . S
C235 C234 1.399 . S
C235 C236 1.385 . S
C236 H222 0.931 . S
C236 C235 1.385 . S
C236 C237 1.389 . S
C237 C236 1.389 . S
C237 C238 1.387 1_565 S
C238 H223 0.930 . S
C238 C233 1.390 . S
C238 C237 1.387 1_545 S
H239 C251 0.930 . S
H240 C253 0.930 . S
H241 C254 0.930 . S
H242 C258 0.959 . S
H243 C258 0.959 . S
H244 C258 0.961 . S
H245 C259 0.960 . S
H246 C259 0.961 . S
H247 C259 0.959 . S
H248 C262 0.929 . S
H249 C263 0.931 . S
H250 C265 0.930 . S
C251 H239 0.930 . S
C251 C252 1.399 . S
C251 C256 1.399 . S
C252 C251 1.399 . S
C252 C253 1.376 1_455 S
C253 H240 0.930 . S
C253 C252 1.376 1_655 S
C253 C254 1.388 . S
C254 H241 0.930 . S
C254 C253 1.388 . S
C254 C255 1.390 . S
C255 C254 1.390 . S
C255 C256 1.394 1_655 S
C255 C261 1.465 . S
C256 C251 1.399 . S
C256 C255 1.394 1_455 S
C256 C257 1.516 . S
C257 C256 1.516 . S
C257 C258 1.502 . S
C257 C259 1.561 . S
C257 C260 1.526 . S
C258 H242 0.959 . S
C258 H243 0.959 . S
C258 H244 0.961 . S
C258 C257 1.502 . S
C259 H245 0.960 . S
C259 H246 0.961 . S
C259 H247 0.959 . S
C259 C257 1.561 . S
C260 C257 1.526 . S
C260 C261 1.396 1_455 S
C260 C265 1.390 . S
C261 C255 1.465 . S
C261 C260 1.396 1_655 S
C261 C262 1.399 . S
C262 H248 0.929 . S
C262 C261 1.399 . S
C262 C263 1.385 . S
C263 H249 0.931 . S
C263 C262 1.385 . S
C263 C264 1.389 1_655 S
C264 C263 1.389 1_455 S
C264 C265 1.387 . S
C265 H250 0.930 . S
C265 C260 1.390 . S
C265 C264 1.387 . S
H266 C278 0.930 . S
H267 C280 0.930 . S
H268 C281 0.930 . S
H269 C285 0.959 . S
H270 C285 0.959 . S
H271 C285 0.961 . S
H272 C286 0.960 . S
H273 C286 0.961 . S
H274 C286 0.959 . S
H275 C289 0.929 . S
H276 C290 0.931 . S
H277 C292 0.930 . S
C278 H266 0.930 . S
C278 C279 1.399 . S
C278 C283 1.399 . S
C279 C278 1.399 . S
C279 C280 1.376 1_545 S
C280 H267 0.930 . S
C280 C279 1.376 1_565 S
C280 C281 1.388 . S
C281 H268 0.930 . S
C281 C280 1.388 . S
C281 C282 1.390 . S
C282 C281 1.390 . S
C282 C283 1.394 1_565 S
C282 C288 1.465 . S
C283 C278 1.399 . S
C283 C282 1.394 1_545 S
C283 C284 1.516 . S
C284 C283 1.516 . S
C284 C285 1.502 . S
C284 C286 1.561 . S
C284 C287 1.526 . S
C285 H269 0.959 . S
C285 H270 0.959 . S
C285 H271 0.961 . S
C285 C284 1.502 . S
C286 H272 0.960 . S
C286 H273 0.961 . S
C286 H274 0.959 . S
C286 C284 1.561 . S
C287 C284 1.526 . S
C287 C288 1.396 1_545 S
C287 C292 1.390 . S
C288 C282 1.465 . S
C288 C287 1.396 1_565 S
C288 C289 1.399 . S
C289 H275 0.929 . S
C289 C288 1.399 . S
C289 C290 1.385 . S
C290 H276 0.931 . S
C290 C289 1.385 . S
C290 C291 1.407 . S
C291 C290 1.407 . S
C291 C292 1.372 1_565 S
C292 H277 0.930 . S
C292 C287 1.390 . S
C292 C291 1.372 1_545 S
H293 C305 0.930 . S
H294 C307 0.930 . S
H295 C308 0.930 . S
H296 C312 0.959 . S
H297 C312 0.959 . S
H298 C312 0.961 . S
H299 C313 0.960 . S
H300 C313 0.961 . S
H301 C313 0.959 . S
H302 C316 0.929 . S
H303 C317 0.931 . S
H304 C319 0.930 . S
C305 H293 0.930 . S
C305 C306 1.399 1_455 S
C305 C310 1.399 1_455 S
C306 C305 1.399 1_655 S
C306 C307 1.376 . S
C307 H294 0.930 . S
C307 C306 1.376 . S
C307 C308 1.388 . S
C308 H295 0.930 . S
C308 C307 1.388 . S
C308 C309 1.390 . S
C309 C308 1.390 . S
C309 C310 1.394 . S
C309 C315 1.465 . S
C310 C305 1.399 1_655 S
C310 C309 1.394 . S
C310 C311 1.516 . S
C311 C310 1.516 . S
C311 C312 1.502 1_655 S
C311 C313 1.561 . S
C311 C314 1.526 1_655 S
C312 H296 0.959 . S
C312 H297 0.959 . S
C312 H298 0.961 . S
C312 C311 1.502 1_455 S
C313 H299 0.960 . S
C313 H300 0.961 . S
C313 H301 0.959 . S
C313 C311 1.561 . S
C314 C311 1.526 1_455 S
C314 C315 1.396 1_455 S
C314 C319 1.390 . S
C315 C309 1.465 . S
C315 C314 1.396 1_655 S
C315 C316 1.399 . S
C316 H302 0.929 . S
C316 C315 1.399 . S
C316 C317 1.385 1_655 S
C317 H303 0.931 . S
C317 C316 1.385 1_455 S
C317 C318 1.389 . S
C318 C317 1.389 . S
C318 C319 1.387 . S
C319 H304 0.930 . S
C319 C314 1.390 . S
C319 C318 1.387 . S
H320 C332 0.930 . S
H321 C334 0.930 . S
H322 C335 0.930 . S
H323 C339 0.959 . S
H324 C339 0.959 . S
H325 C339 0.961 . S
H326 C340 0.960 . S
H327 C340 0.961 . S
H328 C340 0.959 . S
H329 C343 0.929 . S
H330 C344 0.931 . S
H331 C346 0.930 . S
C332 H320 0.930 . S
C332 C333 1.399 . S
C332 C337 1.399 . S
C333 C332 1.399 . S
C333 C334 1.376 1_545 S
C334 H321 0.930 . S
C334 C333 1.376 1_565 S
C334 C335 1.388 . S
C335 H322 0.930 . S
C335 C334 1.388 . S
C335 C336 1.390 . S
C336 C335 1.390 . S
C336 C337 1.394 1_565 S
C336 C342 1.465 . S
C337 C332 1.399 . S
C337 C336 1.394 1_545 S
C337 C338 1.516 . S
C338 C337 1.516 . S
C338 C339 1.502 . S
C338 C340 1.561 . S
C338 C341 1.526 . S
C339 H323 0.959 . S
C339 H324 0.959 . S
C339 H325 0.961 . S
C339 C338 1.502 . S
C340 H326 0.960 . S
C340 H327 0.961 . S
C340 H328 0.959 . S
C340 C338 1.561 . S
C341 C338 1.526 . S
C341 C342 1.396 1_545 S
C341 C346 1.390 . S
C342 C336 1.465 . S
C342 C341 1.396 1_565 S
C342 C343 1.399 . S
C343 H329 0.929 . S
C343 C342 1.399 . S
C343 C344 1.385 . S
C344 H330 0.931 . S
C344 C343 1.385 . S
C344 C345 1.406 . S
C345 C344 1.406 . S
C345 C346 1.373 1_565 S
C346 H331 0.930 . S
C346 C341 1.390 . S
C346 C345 1.373 1_545 S
H347 C359 0.930 . S
H348 C361 0.930 . S
H349 C362 0.930 . S
H350 C366 0.959 . S
H351 C366 0.959 . S
H352 C366 0.961 . S
H353 C367 0.960 . S
H354 C367 0.961 . S
H355 C367 0.959 . S
H356 C370 0.929 . S
H357 C371 0.931 . S
H358 C373 0.925 1_655 S
C359 H347 0.930 . S
C359 C360 1.399 1_655 S
C359 C364 1.399 1_655 S
C360 C359 1.399 1_455 S
C360 C361 1.376 . S
C361 H348 0.930 . S
C361 C360 1.376 . S
C361 C362 1.388 . S
C362 H349 0.930 . S
C362 C361 1.388 . S
C362 C363 1.390 . S
C363 C362 1.390 . S
C363 C364 1.394 . S
C363 C369 1.465 . S
C364 C359 1.399 1_455 S
C364 C363 1.394 . S
C364 C365 1.515 1_455 S
C365 C364 1.515 1_655 S
C365 C366 1.514 . S
C365 C367 1.549 1_655 S
C365 C368 1.525 1_655 S
C366 H350 0.959 . S
C366 H351 0.959 . S
C366 H352 0.961 . S
C366 C365 1.514 . S
C367 H353 0.960 . S
C367 H354 0.961 . S
C367 H355 0.959 . S
C367 C365 1.549 1_455 S
C368 C365 1.525 1_455 S
C368 C369 1.396 . S
C368 C373 1.391 . S
C369 C363 1.465 . S
C369 C368 1.396 . S
C369 C370 1.399 . S
C370 H356 0.929 . S
C370 C369 1.399 . S
C370 C371 1.385 . S
C371 H357 0.931 . S
C371 C370 1.385 . S
C371 C372 1.389 . S
C372 C371 1.389 . S
C372 C373 1.390 . S
C373 H358 0.925 1_455 S
C373 C368 1.391 . S
C373 C372 1.390 . S
H374 C386 0.930 . S
H375 C388 0.930 . S
H376 C389 0.930 . S
H377 C393 0.959 1_545 S
H378 C393 0.959 . S
H379 C393 0.961 . S
H380 C394 0.960 . S
H381 C394 0.961 . S
H382 C394 0.959 . S
H383 C397 0.929 . S
H384 C398 0.931 . S
H385 C400 0.930 . S
C386 H374 0.930 . S
C386 C387 1.399 . S
C386 C391 1.399 . S
C387 C386 1.399 . S
C387 C388 1.376 1_565 S
C388 H375 0.930 . S
C388 C387 1.376 1_545 S
C388 C389 1.388 . S
C389 H376 0.930 . S
C389 C388 1.388 . S
C389 C390 1.390 . S
C390 C389 1.390 . S
C390 C391 1.394 1_545 S
C390 C396 1.465 . S
C391 C386 1.399 . S
C391 C390 1.394 1_565 S
C391 C392 1.516 . S
C392 C391 1.516 . S
C392 C393 1.502 . S
C392 C394 1.561 . S
C392 C395 1.526 . S
C393 H377 0.959 1_565 S
C393 H378 0.959 . S
C393 H379 0.961 . S
C393 C392 1.502 . S
C394 H380 0.960 . S
C394 H381 0.961 . S
C394 H382 0.959 . S
C394 C392 1.561 . S
C395 C392 1.526 . S
C395 C396 1.396 1_565 S
C395 C400 1.390 . S
C396 C390 1.465 . S
C396 C395 1.396 1_545 S
C396 C397 1.399 . S
C397 H383 0.929 . S
C397 C396 1.399 . S
C397 C398 1.385 . S
C398 H384 0.931 . S
C398 C397 1.385 . S
C398 C399 1.389 . S
C399 C398 1.389 . S
C399 C400 1.387 1_545 S
C400 H385 0.930 . S
C400 C395 1.390 . S
C400 C399 1.387 1_565 S
H401 C413 0.930 1_655 S
H402 C415 0.930 . S
H403 C416 0.930 . S
H404 C420 0.959 . S
H405 C420 0.959 . S
H406 C420 0.961 . S
H407 C421 0.960 . S
H408 C421 0.961 . S
H409 C421 0.959 . S
H410 C424 0.929 . S
H411 C425 0.931 . S
H412 C427 0.929 1_655 S
C413 H401 0.930 1_455 S
C413 C414 1.399 . S
C413 C418 1.399 . S
C414 C413 1.399 . S
C414 C415 1.376 . S
C415 H402 0.930 . S
C415 C414 1.376 . S
C415 C416 1.388 . S
C416 H403 0.930 . S
C416 C415 1.388 . S
C416 C417 1.390 . S
C417 C416 1.390 . S
C417 C418 1.394 . S
C417 C423 1.465 . S
C418 C413 1.399 . S
C418 C417 1.394 . S
C418 C419 1.516 1_455 S
C419 C418 1.516 1_655 S
C419 C420 1.502 . S
C419 C421 1.561 1_655 S
C419 C422 1.526 1_655 S
C420 H404 0.959 . S
C420 H405 0.959 . S
C420 H406 0.961 . S
C420 C419 1.502 . S
C421 H407 0.960 . S
C421 H408 0.961 . S
C421 H409 0.959 . S
C421 C419 1.561 1_455 S
C422 C419 1.526 1_455 S
C422 C423 1.396 . S
C422 C427 1.390 . S
C423 C417 1.465 . S
C423 C422 1.396 . S
C423 C424 1.399 . S
C424 H410 0.929 . S
C424 C423 1.399 . S
C424 C425 1.385 . S
C425 H411 0.931 . S
C425 C424 1.385 . S
C425 C426 1.389 . S
C426 C425 1.389 . S
C426 C427 1.387 . S
C427 H412 0.929 1_455 S
C427 C422 1.390 . S
C427 C426 1.387 . S
C237 C85 1.549 1_565 S
C225 C7 1.470 . S
C264 C173 1.537 . S
C252 C34 1.507 . S
C291 C93 1.543 1_565 S
C279 C14 1.524 . S
C318 C181 1.532 . S
C306 C26 1.523 1_655 S
C345 C153 1.533 1_565 S
C333 C8 1.513 . S
C372 C56 1.553 . S
C360 C32 1.467 . S
C399 C144 1.535 . S
C387 C16 1.522 . S
C414 C25 1.522 . S
C426 C65 1.541 . S
