# Generated by pormake.
# Topology anh, (6,3)-cn, num edge types: 1
# Building blocks:
#     Node 0, Type 0, BuildingBlock: BETFAJ_clean_sbu_0, # of connection points: 6
#     Node 1, Type 0, BuildingBlock: BETFAJ_clean_sbu_0, # of connection points: 6
#     Node 2, Type 0, BuildingBlock: BETFAJ_clean_sbu_0, # of connection points: 6
#     Node 3, Type 1, BuildingBlock: BETDAH_clean_linker_0, # of connection points: 3
#     Node 4, Type 1, BuildingBlock: BETDAH_clean_linker_0, # of connection points: 3
#     Node 5, Type 1, BuildingBlock: BETDAH_clean_linker_0, # of connection points: 3
#     Node 6, Type 1, BuildingBlock: BETDAH_clean_linker_0, # of connection points: 3
#     Node 7, Type 1, BuildingBlock: BETDAH_clean_linker_0, # of connection points: 3
#     Node 8, Type 1, BuildingBlock: BETDAH_clean_linker_0, # of connection points: 3
#     Edge 9, Type (0, 1), BuildingBlock: EYOCIG_clean_linker_4, # of connection points: 2
#     Edge 10, Type (0, 1), BuildingBlock: EYOCIG_clean_linker_4, # of connection points: 2
#     Edge 11, Type (0, 1), BuildingBlock: EYOCIG_clean_linker_4, # of connection points: 2
#     Edge 12, Type (0, 1), BuildingBlock: EYOCIG_clean_linker_4, # of connection points: 2
#     Edge 13, Type (0, 1), BuildingBlock: EYOCIG_clean_linker_4, # of connection points: 2
#     Edge 14, Type (0, 1), BuildingBlock: EYOCIG_clean_linker_4, # of connection points: 2
#     Edge 15, Type (0, 1), BuildingBlock: EYOCIG_clean_linker_4, # of connection points: 2
#     Edge 16, Type (0, 1), BuildingBlock: EYOCIG_clean_linker_4, # of connection points: 2
#     Edge 17, Type (0, 1), BuildingBlock: EYOCIG_clean_linker_4, # of connection points: 2
#     Edge 18, Type (0, 1), BuildingBlock: EYOCIG_clean_linker_4, # of connection points: 2
#     Edge 19, Type (0, 1), BuildingBlock: EYOCIG_clean_linker_4, # of connection points: 2
#     Edge 20, Type (0, 1), BuildingBlock: EYOCIG_clean_linker_4, # of connection points: 2
#     Edge 21, Type (0, 1), BuildingBlock: EYOCIG_clean_linker_4, # of connection points: 2
#     Edge 22, Type (0, 1), BuildingBlock: EYOCIG_clean_linker_4, # of connection points: 2
#     Edge 23, Type (0, 1), BuildingBlock: EYOCIG_clean_linker_4, # of connection points: 2
#     Edge 24, Type (0, 1), BuildingBlock: EYOCIG_clean_linker_4, # of connection points: 2
#     Edge 25, Type (0, 1), BuildingBlock: EYOCIG_clean_linker_4, # of connection points: 2
#     Edge 26, Type (0, 1), BuildingBlock: EYOCIG_clean_linker_4, # of connection points: 2
# Relax obj value: 0.195
# Max RMSD: 0.205
# Mean RMSD: 0.118
data_MOF--net-anh--node1-BETFAJ_clean_sbu_0--node2-BETDAH_clean_linker_0--edge1-EYOCIG_clean_linker_4
_symmetry_space_group_name_H-M    P1
_symmetry_Int_Tables_number       1
_symmetry_cell_setting            triclinic
loop_
_symmetry_equiv_pos_as_xyz
'x, y, z'
_cell_length_a     24.416301
_cell_length_b     31.641493
_cell_length_c     39.075656
_cell_angle_alpha  95.044026
_cell_angle_beta   88.387185
_cell_angle_gamma 132.02837
loop_
_atom_site_label
_atom_site_type_symbol
_atom_site_fract_x
_atom_site_fract_y
_atom_site_fract_z
_atom_type_partial_charge
Sm0 Sm 0.19902 0.56051 0.1636 0.0
Sm1 Sm 1.11831 0.58474 0.1548 0.0
C2 C 0.2874 0.54266 0.15741 0.0
C3 C 0.36662 0.58912 0.16521 0.0
C4 C 0.41226 0.62926 0.14139 0.0
C5 C 0.48824 0.67049 0.14788 0.0
C6 C 0.51897 0.67 0.1774 0.0
C7 C 0.47269 0.63835 0.20405 0.0
C8 C 0.39667 0.5969 0.19772 0.0
C9 C 0.16832 0.57652 0.22912 0.0
C10 C 0.2896 0.69516 0.16552 0.0
C11 C 1.03969 0.6107 0.16545 0.0
C12 C 0.96112 0.56424 0.16942 0.0
C13 C 0.93486 0.5346 0.19921 0.0
C14 C 0.85947 0.4901 0.20239 0.0
C15 C 0.8113 0.47684 0.17623 0.0
C16 C 0.83834 0.49636 0.14372 0.0
C17 C 0.91283 0.54236 0.14088 0.0
C18 C 0.14196 0.56261 0.08925 0.0
C19 C 1.02658 0.45021 0.1571 0.0
O20 O 0.26135 0.54688 0.13044 0.0
O21 O 0.24563 0.52668 0.18381 0.0
O22 O 0.12234 0.55184 0.20355 0.0
O23 O 0.23064 0.59191 0.22063 0.0
O24 O 0.29617 0.65824 0.17011 0.0
O25 O 0.22533 0.67776 0.15844 0.0
O26 O 1.08307 0.62049 0.19013 0.0
O27 O 1.06148 0.61012 0.13466 0.0
O28 O 0.19106 0.59034 0.11383 0.0
O29 O 1.07978 0.54653 0.09908 0.0
O30 O 1.01962 0.48797 0.15749 0.0
O31 O 1.09194 0.46678 0.15644 0.0
H32 H 0.39025 0.6267 0.11683 0.0
H33 H 0.52294 0.6953 0.12712 0.0
H34 H 0.49539 0.6381 0.2274 0.0
H35 H 0.36224 0.56876 0.21742 0.0
H36 H 0.9717 0.54752 0.22072 0.0
H37 H 0.83912 0.47349 0.22717 0.0
H38 H 0.80123 0.48437 0.12254 0.0
H39 H 0.93211 0.56188 0.1168 0.0
Sm40 Sm 0.65587 0.02846 0.46882 0.0
Sm41 Sm 0.57295 0.06495 0.47617 0.0
C42 C 0.6913 0.96743 0.47626 0.0
C43 C 0.64974 0.90539 0.47294 0.0
C44 C 0.61573 0.87359 0.50158 0.0
C45 C 0.58929 0.81846 0.50054 0.0
C46 C 0.59597 0.79436 0.47088 0.0
C47 C 0.6223 0.82307 0.44107 0.0
C48 C 0.64907 0.87845 0.44207 0.0
C49 C 0.62626 0.04492 0.40718 0.0
C50 C 0.47259 0.9297 0.47112 0.0
C51 C 0.53471 0.12395 0.46761 0.0
C52 C 0.57274 0.18521 0.47213 0.0
C53 C 0.60484 0.21894 0.44409 0.0
C54 C 0.63152 0.27445 0.44735 0.0
C55 C 0.6264 0.29647 0.47866 0.0
C56 C 0.59978 0.26487 0.50722 0.0
C57 C 0.57317 0.20964 0.50405 0.0
C58 C 0.60749 0.05143 0.53794 0.0
C59 C 0.75619 0.16408 0.47341 0.0
O60 O 0.67601 0.98675 0.50218 0.0
O61 O 0.70272 0.9913 0.44802 0.0
O62 O 0.58007 0.02022 0.43059 0.0
O63 O 0.68799 0.05872 0.41509 0.0
O64 O 0.53639 0.94337 0.47404 0.0
O65 O 0.4689 0.96893 0.46802 0.0
O66 O 0.55591 0.10825 0.44247 0.0
O67 O 0.5207 0.09834 0.49541 0.0
O68 O 0.65115 0.07505 0.51369 0.0
O69 O 0.54498 0.03706 0.53105 0.0
O70 O 0.69225 0.15042 0.47098 0.0
O71 O 0.75999 0.12481 0.47654 0.0
H72 H 0.61383 0.89249 0.52555 0.0
H73 H 0.56903 0.79652 0.52377 0.0
H74 H 0.62794 0.8048 0.41798 0.0
H75 H 0.67351 0.90137 0.41937 0.0
H76 H 0.60653 0.20168 0.4193 0.0
H77 H 0.65285 0.29893 0.42518 0.0
H78 H 0.59642 0.28193 0.53168 0.0
H79 H 0.55013 0.18536 0.52628 0.0
Sm80 Sm 0.74851 0.61731 0.83179 0.0
Sm81 Sm 0.6494 0.48936 0.8202 0.0
C82 C 0.80086 0.72178 0.8306 0.0
C83 C 0.76679 0.74686 0.83411 0.0
C84 C 0.72887 0.74302 0.80583 0.0
C85 C 0.70369 0.77168 0.8078 0.0
C86 C 0.71518 0.80409 0.83809 0.0
C87 C 0.74861 0.80543 0.8672 0.0
C88 C 0.77428 0.77681 0.86524 0.0
C89 C 0.70857 0.56371 0.88891 0.0
C90 C 0.56182 0.53485 0.82987 0.0
C91 C 0.59491 0.38541 0.82633 0.0
C92 C 0.62478 0.35731 0.82365 0.0
C93 C 0.65783 0.35706 0.85258 0.0
C94 C 0.67706 0.32413 0.85089 0.0
C95 C 0.66352 0.29152 0.8203 0.0
C96 C 0.63595 0.29492 0.79084 0.0
C97 C 0.6166 0.32756 0.79245 0.0
C98 C 0.68179 0.53986 0.76126 0.0
C99 C 0.83407 0.56977 0.83193 0.0
O100 O 0.78331 0.68821 0.8026 0.0
O101 O 0.80504 0.70336 0.85821 0.0
O102 O 0.66637 0.54694 0.86358 0.0
O103 O 0.77443 0.61267 0.88629 0.0
O104 O 0.62899 0.586 0.82814 0.0
O105 O 0.55349 0.48877 0.82997 0.0
O106 O 0.61885 0.42312 0.85274 0.0
O107 O 0.58744 0.40041 0.79784 0.0
O108 O 0.72865 0.56001 0.78567 0.0
O109 O 0.61841 0.49018 0.76617 0.0
O110 O 0.76613 0.51885 0.82976 0.0
O111 O 0.84471 0.61677 0.83047 0.0
H112 H 0.72092 0.71965 0.78165 0.0
H113 H 0.67792 0.77046 0.78512 0.0
H114 H 0.75793 0.83059 0.89079 0.0
H115 H 0.80227 0.77984 0.88764 0.0
H116 H 0.66607 0.38036 0.87685 0.0
H117 H 0.69918 0.32212 0.87373 0.0
H118 H 0.62612 0.27017 0.76692 0.0
H119 H 0.59245 0.32754 0.76962 0.0
H120 H 0.52772 0.95935 0.24322 0.0
H121 H 0.70803 0.13657 0.22841 0.0
H122 H 0.60274 1.00874 0.14153 0.0
C123 C 0.56456 0.99253 0.22617 0.0
C124 C 0.55892 0.97771 0.19094 0.0
C125 C 0.61775 0.0495 0.23976 0.0
C126 C 0.6663 0.09254 0.21776 0.0
C127 C 0.66085 0.07785 0.18201 0.0
C128 C 0.60686 0.02027 0.16891 0.0
N129 N 0.70855 0.11887 0.15828 0.0
C130 C 0.76272 0.1779 0.16581 0.0
H131 H 0.65397 0.48437 0.59188 0.0
H132 H 0.70757 0.64481 0.59293 0.0
H133 H 0.68335 0.55564 0.49693 0.0
C134 C 0.66337 0.51701 0.57821 0.0
C135 C 0.66468 0.51384 0.54223 0.0
C136 C 0.67869 0.56427 0.59656 0.0
C137 C 0.69356 0.60736 0.57889 0.0
C138 C 0.69498 0.60389 0.543 0.0
C139 C 0.6799 0.55702 0.52469 0.0
N140 N 0.72019 0.65069 0.52551 0.0
C141 C 0.67151 0.65532 0.51419 0.0
H142 H 1.07442 0.56183 0.91755 0.0
H143 H 0.23743 0.54725 0.90538 0.0
H144 H 0.13873 0.54917 0.816 0.0
C145 C 1.10714 0.55781 0.90075 0.0
C146 C 1.0994 0.55609 0.86497 0.0
C147 C 0.1564 0.55469 0.91543 0.0
C148 C 0.19968 0.54957 0.89397 0.0
C149 C 0.19431 0.54747 0.85788 0.0
C150 C 0.14352 0.55069 0.84364 0.0
N151 N 0.23818 0.54224 0.83526 0.0
C152 C 0.2925 0.5394 0.8428 0.0
H153 H 0.22687 0.66641 0.39769 0.0
H154 H 1.0586 0.48692 0.41045 0.0
H155 H 0.17732 0.60996 0.49924 0.0
C156 C 0.19539 0.63202 0.41442 0.0
C157 C 0.2083 0.64503 0.45001 0.0
C158 C 0.14167 0.57546 0.40005 0.0
C159 C 1.10027 0.53062 0.42164 0.0
C160 C 1.11311 0.54271 0.45768 0.0
C161 C 0.16761 0.60024 0.4716 0.0
N162 N 1.07221 0.499 0.48082 0.0
C163 C 1.01739 0.43986 0.47228 0.0
H164 H 0.63435 0.10329 0.71032 0.0
H165 H 0.70048 1.00642 0.7051 0.0
H166 H 0.70562 0.08378 0.80227 0.0
C167 C 0.65103 0.0841 0.72305 0.0
C168 C 0.66576 0.09507 0.75868 0.0
C169 C 0.66261 0.05144 0.7036 0.0
C170 C 0.6881 0.02947 0.72005 0.0
C171 C 0.70304 0.04093 0.75566 0.0
C172 C 0.69071 0.07288 0.77497 0.0
N173 N 0.74404 0.0304 0.77077 0.0
C174 C 0.71082 0.98171 0.78705 0.0
H175 H 0.73406 0.54519 0.05686 0.0
H176 H 0.49991 0.43997 0.038 0.0
H177 H 0.58512 0.46804 0.13958 0.0
C178 C 0.67845 0.51848 0.06615 0.0
C179 C 0.66592 0.51016 0.10083 0.0
C180 C 0.61732 0.48995 0.0435 0.0
C181 C 0.54586 0.4571 0.05536 0.0
C182 C 0.53458 0.44988 0.09019 0.0
C183 C 0.59439 0.47367 0.11236 0.0
N184 N 0.47098 0.43568 0.10427 0.0
C185 C 0.4844 0.48038 0.12414 0.0
C186 C 0.57542 0.62975 0.16105 0.0
C187 C 0.57211 0.66505 0.17042 0.0
C188 C 0.5539 0.58379 0.15087 0.0
C189 C 0.513 0.52659 0.13818 0.0
C190 C 0.87028 0.27543 0.47073 0.0
C191 C 0.82201 0.22405 0.47222 0.0
C192 C 0.92389 0.33604 0.46908 0.0
C193 C 0.97006 0.38788 0.46931 0.0
C194 C 0.68575 0.86852 0.82998 0.0
C195 C 0.70066 0.84096 0.83702 0.0
C196 C 0.6809 0.90521 0.81578 0.0
C197 C 0.69042 0.94163 0.80152 0.0
C198 C 0.73484 0.50086 0.179 0.0
C199 C 0.75646 0.47839 0.18658 0.0
C200 C 0.73647 0.53052 0.15409 0.0
C201 C 0.72232 0.53375 0.12603 0.0
C202 C 0.35916 0.81784 0.47053 0.0
C203 C 0.4069 0.86948 0.47056 0.0
C204 C 0.30661 0.75684 0.46849 0.0
C205 C 0.26124 0.70504 0.4632 0.0
C206 C 0.67074 0.2129 0.81088 0.0
C207 C 0.67065 0.25021 0.81903 0.0
C208 C 0.66627 0.16939 0.79475 0.0
C209 C 0.66581 0.13556 0.77801 0.0
C210 C 0.58794 0.70931 0.48044 0.0
C211 C 0.59214 0.7477 0.47387 0.0
C212 C 0.60431 0.67825 0.49246 0.0
C213 C 0.63366 0.66324 0.50361 0.0
C214 C 0.94518 0.56961 0.84031 0.0
C215 C 0.89716 0.57234 0.83653 0.0
C216 C 1.00024 0.56462 0.84557 0.0
C217 C 1.04614 0.56048 0.85186 0.0
C218 C 0.40146 0.80674 0.16906 0.0
C219 C 0.35263 0.75545 0.16778 0.0
C220 C 0.4571 0.86703 0.17224 0.0
C221 C 0.50477 0.91817 0.17829 0.0
C222 C 0.64947 0.38996 0.49076 0.0
C223 C 0.64154 0.34888 0.48165 0.0
C224 C 0.65361 0.43339 0.50704 0.0
C225 C 0.6586 0.46993 0.52327 0.0
C226 C 0.44723 0.53143 0.83748 0.0
C227 C 0.49758 0.53101 0.83406 0.0
C228 C 0.39816 0.53334 0.84085 0.0
C229 C 0.34078 0.53655 0.84364 0.0
C230 C 0.91441 0.34017 0.16352 0.0
C231 C 0.96347 0.39074 0.1606 0.0
C232 C 0.86668 0.28948 0.16649 0.0
C233 C 0.81068 0.2295 0.16812 0.0
C234 C 0.16186 0.56192 0.02128 0.0
C235 C 0.15714 0.56388 0.05256 0.0
C236 C 0.16326 0.55924 0.98431 0.0
C237 C 0.16192 0.55702 0.95293 0.0
C238 C 0.60945 0.05533 0.34311 0.0
C239 C 0.60997 0.04829 0.37295 0.0
C240 C 0.61647 0.06179 0.30742 0.0
C241 C 0.62212 0.06147 0.27659 0.0
C242 C 0.69975 0.5724 0.6995 0.0
C243 C 0.69863 0.56233 0.7286 0.0
C244 C 0.69323 0.57445 0.66415 0.0
C245 C 0.68714 0.5715 0.63339 0.0
C246 C 0.63952 0.04627 0.60068 0.0
C247 C 0.62828 0.04978 0.57159 0.0
C248 C 0.64867 0.04413 0.6359 0.0
C249 C 0.65589 0.04602 0.66659 0.0
C250 C 0.65942 0.51582 0.94554 0.0
C251 C 0.68175 0.53767 0.91952 0.0
C252 C 0.63883 0.50041 0.97842 0.0
C253 C 0.62762 0.49498 0.00806 0.0
C254 C 0.13674 0.56712 0.29548 0.0
C255 C 0.14751 0.57011 0.26485 0.0
C256 C 0.12995 0.56418 0.33178 0.0
C257 C 0.13129 0.56517 0.36288 0.0
loop_
_geom_bond_atom_site_label_1
_geom_bond_atom_site_label_2
_geom_bond_distance
_geom_bond_site_symmetry_2
_ccdc_geom_bond_type
Sm0 C2 2.846 . S
Sm0 O20 2.543 . S
Sm0 O21 2.450 . S
Sm0 O22 2.681 . S
Sm0 O23 2.464 . S
Sm0 O24 2.396 . S
Sm0 O28 2.386 . S
Sm0 O31 2.408 1_455 S
Sm1 C11 2.824 1_455 S
Sm1 O22 2.399 . S
Sm1 O25 2.424 . S
Sm1 O26 2.525 1_455 S
Sm1 O27 2.428 1_455 S
Sm1 O28 2.701 . S
Sm1 O29 2.469 . S
Sm1 O30 2.396 1_455 S
C2 Sm0 2.846 . S
C2 C3 1.506 . S
C2 O20 1.261 . S
C2 O21 1.242 . S
C3 C2 1.506 . S
C3 C4 1.358 . S
C3 C8 1.382 . S
C4 C3 1.358 . S
C4 C5 1.385 . S
C4 H32 0.930 . S
C5 C4 1.385 . S
C5 C6 1.395 . S
C5 H33 0.929 . S
C6 C5 1.395 . S
C6 C7 1.335 . S
C7 C6 1.335 . S
C7 C8 1.398 . S
C7 H34 0.930 . S
C8 C3 1.382 . S
C8 C7 1.398 . S
C8 H35 0.929 . S
C9 O22 1.271 . S
C9 O23 1.251 . S
C10 O24 1.252 . S
C10 O25 1.272 . S
C11 Sm1 2.824 1_655 S
C11 C12 1.506 . S
C11 O26 1.261 . S
C11 O27 1.242 . S
C12 C11 1.506 . S
C12 C13 1.358 . S
C12 C17 1.382 . S
C13 C12 1.358 . S
C13 C14 1.385 . S
C13 H36 0.930 . S
C14 C13 1.385 . S
C14 C15 1.395 . S
C14 H37 0.929 . S
C15 C14 1.395 . S
C15 C16 1.335 . S
C16 C15 1.335 . S
C16 C17 1.398 . S
C16 H38 0.930 . S
C17 C12 1.382 . S
C17 C16 1.398 . S
C17 H39 0.929 . S
C18 O28 1.271 . S
C18 O29 1.251 . S
C19 O30 1.252 . S
C19 O31 1.272 . S
O20 Sm0 2.543 . S
O20 C2 1.261 . S
O21 Sm0 2.450 . S
O21 C2 1.242 . S
O22 Sm0 2.681 . S
O22 Sm1 2.399 . S
O22 C9 1.271 . S
O23 Sm0 2.464 . S
O23 C9 1.251 . S
O24 Sm0 2.396 . S
O24 C10 1.252 . S
O25 Sm1 2.424 . S
O25 C10 1.272 . S
O26 Sm1 2.525 1_655 S
O26 C11 1.261 . S
O27 Sm1 2.428 1_655 S
O27 C11 1.242 . S
O28 Sm0 2.386 . S
O28 Sm1 2.701 . S
O28 C18 1.271 . S
O29 Sm1 2.469 . S
O29 C18 1.251 . S
O30 Sm1 2.396 1_655 S
O30 C19 1.252 . S
O31 Sm0 2.408 1_655 S
O31 C19 1.272 . S
H32 C4 0.930 . S
H33 C5 0.929 . S
H34 C7 0.930 . S
H35 C8 0.929 . S
H36 C13 0.930 . S
H37 C14 0.929 . S
H38 C16 0.930 . S
H39 C17 0.929 . S
Sm40 C42 2.846 1_545 S
Sm40 O60 2.543 1_545 S
Sm40 O61 2.450 1_545 S
Sm40 O62 2.681 . S
Sm40 O63 2.464 . S
Sm40 O64 2.396 1_545 S
Sm40 O68 2.386 . S
Sm40 O71 2.408 . S
Sm41 C51 2.846 . S
Sm41 O62 2.386 . S
Sm41 O65 2.408 1_545 S
Sm41 O66 2.543 . S
Sm41 O67 2.450 . S
Sm41 O68 2.681 . S
Sm41 O69 2.464 . S
Sm41 O70 2.396 . S
C42 Sm40 2.846 1_565 S
C42 C43 1.506 . S
C42 O60 1.261 . S
C42 O61 1.242 . S
C43 C42 1.506 . S
C43 C44 1.358 . S
C43 C48 1.382 . S
C44 C43 1.358 . S
C44 C45 1.385 . S
C44 H72 0.930 . S
C45 C44 1.385 . S
C45 C46 1.395 . S
C45 H73 0.929 . S
C46 C45 1.395 . S
C46 C47 1.335 . S
C47 C46 1.335 . S
C47 C48 1.398 . S
C47 H74 0.930 . S
C48 C43 1.382 . S
C48 C47 1.398 . S
C48 H75 0.929 . S
C49 O62 1.271 . S
C49 O63 1.251 . S
C50 O64 1.252 . S
C50 O65 1.272 . S
C51 Sm41 2.846 . S
C51 C52 1.506 . S
C51 O66 1.261 . S
C51 O67 1.242 . S
C52 C51 1.506 . S
C52 C53 1.358 . S
C52 C57 1.382 . S
C53 C52 1.358 . S
C53 C54 1.385 . S
C53 H76 0.930 . S
C54 C53 1.385 . S
C54 C55 1.395 . S
C54 H77 0.929 . S
C55 C54 1.395 . S
C55 C56 1.335 . S
C56 C55 1.335 . S
C56 C57 1.398 . S
C56 H78 0.930 . S
C57 C52 1.382 . S
C57 C56 1.398 . S
C57 H79 0.929 . S
C58 O68 1.271 . S
C58 O69 1.251 . S
C59 O70 1.252 . S
C59 O71 1.272 . S
O60 Sm40 2.543 1_565 S
O60 C42 1.261 . S
O61 Sm40 2.450 1_565 S
O61 C42 1.242 . S
O62 Sm40 2.681 . S
O62 Sm41 2.386 . S
O62 C49 1.271 . S
O63 Sm40 2.464 . S
O63 C49 1.251 . S
O64 Sm40 2.396 1_565 S
O64 C50 1.252 . S
O65 Sm41 2.408 1_565 S
O65 C50 1.272 . S
O66 Sm41 2.543 . S
O66 C51 1.261 . S
O67 Sm41 2.450 . S
O67 C51 1.242 . S
O68 Sm40 2.386 . S
O68 Sm41 2.681 . S
O68 C58 1.271 . S
O69 Sm41 2.464 . S
O69 C58 1.251 . S
O70 Sm41 2.396 . S
O70 C59 1.252 . S
O71 Sm40 2.408 . S
O71 C59 1.272 . S
H72 C44 0.930 . S
H73 C45 0.929 . S
H74 C47 0.930 . S
H75 C48 0.929 . S
H76 C53 0.930 . S
H77 C54 0.929 . S
H78 C56 0.930 . S
H79 C57 0.929 . S
Sm80 C82 2.846 . S
Sm80 O100 2.543 . S
Sm80 O101 2.450 . S
Sm80 O102 2.681 . S
Sm80 O103 2.464 . S
Sm80 O104 2.396 . S
Sm80 O108 2.386 . S
Sm80 O111 2.408 . S
Sm81 C91 2.846 . S
Sm81 O102 2.386 . S
Sm81 O105 2.408 . S
Sm81 O106 2.543 . S
Sm81 O107 2.450 . S
Sm81 O108 2.681 . S
Sm81 O109 2.464 . S
Sm81 O110 2.396 . S
C82 Sm80 2.846 . S
C82 C83 1.506 . S
C82 O100 1.261 . S
C82 O101 1.242 . S
C83 C82 1.506 . S
C83 C84 1.358 . S
C83 C88 1.382 . S
C84 C83 1.358 . S
C84 C85 1.385 . S
C84 H112 0.930 . S
C85 C84 1.385 . S
C85 C86 1.395 . S
C85 H113 0.929 . S
C86 C85 1.395 . S
C86 C87 1.335 . S
C87 C86 1.335 . S
C87 C88 1.398 . S
C87 H114 0.930 . S
C88 C83 1.382 . S
C88 C87 1.398 . S
C88 H115 0.929 . S
C89 O102 1.271 . S
C89 O103 1.251 . S
C90 O104 1.252 . S
C90 O105 1.272 . S
C91 Sm81 2.846 . S
C91 C92 1.506 . S
C91 O106 1.261 . S
C91 O107 1.242 . S
C92 C91 1.506 . S
C92 C93 1.358 . S
C92 C97 1.382 . S
C93 C92 1.358 . S
C93 C94 1.385 . S
C93 H116 0.930 . S
C94 C93 1.385 . S
C94 C95 1.395 . S
C94 H117 0.929 . S
C95 C94 1.395 . S
C95 C96 1.335 . S
C96 C95 1.335 . S
C96 C97 1.398 . S
C96 H118 0.930 . S
C97 C92 1.382 . S
C97 C96 1.398 . S
C97 H119 0.929 . S
C98 O108 1.271 . S
C98 O109 1.251 . S
C99 O110 1.252 . S
C99 O111 1.272 . S
O100 Sm80 2.543 . S
O100 C82 1.261 . S
O101 Sm80 2.450 . S
O101 C82 1.242 . S
O102 Sm80 2.681 . S
O102 Sm81 2.386 . S
O102 C89 1.271 . S
O103 Sm80 2.464 . S
O103 C89 1.251 . S
O104 Sm80 2.396 . S
O104 C90 1.252 . S
O105 Sm81 2.408 . S
O105 C90 1.272 . S
O106 Sm81 2.543 . S
O106 C91 1.261 . S
O107 Sm81 2.450 . S
O107 C91 1.242 . S
O108 Sm80 2.386 . S
O108 Sm81 2.681 . S
O108 C98 1.271 . S
O109 Sm81 2.464 . S
O109 C98 1.251 . S
O110 Sm81 2.396 . S
O110 C99 1.252 . S
O111 Sm80 2.408 . S
O111 C99 1.272 . S
H112 C84 0.930 . S
H113 C85 0.929 . S
H114 C87 0.930 . S
H115 C88 0.929 . S
H116 C93 0.930 . S
H117 C94 0.929 . S
H118 C96 0.930 . S
H119 C97 0.929 . S
H120 C123 0.929 . S
H121 C126 0.929 . S
H122 C128 0.930 . S
C123 H120 0.929 . S
C123 C124 1.398 . S
C123 C125 1.396 1_565 S
C124 C123 1.398 . S
C124 C128 1.407 1_565 S
C125 C123 1.396 1_545 S
C125 C126 1.394 . S
C126 H121 0.929 . S
C126 C125 1.394 . S
C126 C127 1.382 . S
C127 C126 1.382 . S
C127 C128 1.392 . S
C127 N129 1.420 . S
C128 H122 0.930 . S
C128 C124 1.407 1_545 S
C128 C127 1.392 . S
N129 C127 1.420 . S
N129 C130 1.244 . S
C130 N129 1.244 . S
H131 C134 0.929 . S
H132 C137 0.929 . S
H133 C139 0.930 . S
C134 H131 0.929 . S
C134 C135 1.398 . S
C134 C136 1.396 . S
C135 C134 1.398 . S
C135 C139 1.407 . S
C136 C134 1.396 . S
C136 C137 1.394 . S
C137 H132 0.929 . S
C137 C136 1.394 . S
C137 C138 1.382 . S
C138 C137 1.382 . S
C138 C139 1.392 . S
C138 N140 1.420 . S
C139 H133 0.930 . S
C139 C135 1.407 . S
C139 C138 1.392 . S
N140 C138 1.420 . S
N140 C141 1.244 . S
C141 N140 1.244 . S
H142 C145 0.929 1_655 S
H143 C148 0.929 . S
H144 C150 0.930 . S
C145 H142 0.929 1_455 S
C145 C146 1.398 1_455 S
C145 C147 1.396 . S
C146 C145 1.398 1_655 S
C146 C150 1.407 1_655 S
C147 C145 1.396 . S
C147 C148 1.394 . S
C148 H143 0.929 . S
C148 C147 1.394 . S
C148 C149 1.382 . S
C149 C148 1.382 . S
C149 C150 1.392 . S
C149 N151 1.420 . S
C150 H144 0.930 . S
C150 C146 1.407 1_455 S
C150 C149 1.392 . S
N151 C149 1.420 . S
N151 C152 1.244 . S
C152 N151 1.244 . S
H153 C156 0.929 . S
H154 C159 0.929 . S
H155 C161 0.930 . S
C156 H153 0.929 . S
C156 C157 1.398 . S
C156 C158 1.396 . S
C157 C156 1.398 . S
C157 C161 1.407 . S
C158 C156 1.396 . S
C158 C159 1.394 1_455 S
C159 H154 0.929 . S
C159 C158 1.394 1_655 S
C159 C160 1.382 . S
C160 C159 1.382 . S
C160 C161 1.392 1_655 S
C160 N162 1.420 . S
C161 H155 0.930 . S
C161 C157 1.407 . S
C161 C160 1.392 1_455 S
N162 C160 1.420 . S
N162 C163 1.244 . S
C163 N162 1.244 . S
H164 C167 0.929 . S
H165 C170 0.929 1_565 S
H166 C172 0.930 . S
C167 H164 0.929 . S
C167 C168 1.398 . S
C167 C169 1.396 . S
C168 C167 1.398 . S
C168 C172 1.407 . S
C169 C167 1.396 . S
C169 C170 1.394 . S
C170 H165 0.929 1_545 S
C170 C169 1.394 . S
C170 C171 1.382 . S
C171 C170 1.382 . S
C171 C172 1.392 . S
C171 N173 1.420 . S
C172 H166 0.930 . S
C172 C168 1.407 . S
C172 C171 1.392 . S
N173 C171 1.420 . S
N173 C174 1.244 1_545 S
C174 N173 1.244 1_565 S
H175 C178 0.929 . S
H176 C181 0.929 . S
H177 C183 0.930 . S
C178 H175 0.929 . S
C178 C179 1.398 . S
C178 C180 1.396 . S
C179 C178 1.398 . S
C179 C183 1.407 . S
C180 C178 1.396 . S
C180 C181 1.394 . S
C181 H176 0.929 . S
C181 C180 1.394 . S
C181 C182 1.382 . S
C182 C181 1.382 . S
C182 C183 1.392 . S
C182 N184 1.420 . S
C183 H177 0.930 . S
C183 C179 1.407 . S
C183 C182 1.392 . S
N184 C182 1.420 . S
N184 C185 1.244 . S
C185 N184 1.244 . S
C186 C187 1.170 . S
C186 C188 1.380 . S
C187 C186 1.170 . S
C188 C186 1.380 . S
C188 C189 1.170 . S
C189 C188 1.170 . S
C190 C191 1.170 . S
C190 C192 1.380 . S
C191 C190 1.170 . S
C192 C190 1.380 . S
C192 C193 1.170 . S
C193 C192 1.170 . S
C194 C195 1.170 . S
C194 C196 1.380 . S
C195 C194 1.170 . S
C196 C194 1.380 . S
C196 C197 1.170 . S
C197 C196 1.170 . S
C198 C199 1.170 . S
C198 C200 1.380 . S
C199 C198 1.170 . S
C200 C198 1.380 . S
C200 C201 1.170 . S
C201 C200 1.170 . S
C202 C203 1.170 . S
C202 C204 1.380 . S
C203 C202 1.170 . S
C204 C202 1.380 . S
C204 C205 1.170 . S
C205 C204 1.170 . S
C206 C207 1.170 . S
C206 C208 1.380 . S
C207 C206 1.170 . S
C208 C206 1.380 . S
C208 C209 1.170 . S
C209 C208 1.170 . S
C210 C211 1.170 . S
C210 C212 1.380 . S
C211 C210 1.170 . S
C212 C210 1.380 . S
C212 C213 1.170 . S
C213 C212 1.170 . S
C214 C215 1.170 . S
C214 C216 1.380 . S
C215 C214 1.170 . S
C216 C214 1.380 . S
C216 C217 1.170 . S
C217 C216 1.170 . S
C218 C219 1.170 . S
C218 C220 1.380 . S
C219 C218 1.170 . S
C220 C218 1.380 . S
C220 C221 1.170 . S
C221 C220 1.170 . S
C222 C223 1.170 . S
C222 C224 1.380 . S
C223 C222 1.170 . S
C224 C222 1.380 . S
C224 C225 1.170 . S
C225 C224 1.170 . S
C226 C227 1.170 . S
C226 C228 1.380 . S
C227 C226 1.170 . S
C228 C226 1.380 . S
C228 C229 1.170 . S
C229 C228 1.170 . S
C230 C231 1.170 . S
C230 C232 1.380 . S
C231 C230 1.170 . S
C232 C230 1.380 . S
C232 C233 1.170 . S
C233 C232 1.170 . S
C234 C235 1.170 . S
C234 C236 1.380 1_554 S
C235 C234 1.170 . S
C236 C234 1.380 1_556 S
C236 C237 1.170 . S
C237 C236 1.170 . S
C238 C239 1.170 . S
C238 C240 1.380 . S
C239 C238 1.170 . S
C240 C238 1.380 . S
C240 C241 1.170 . S
C241 C240 1.170 . S
C242 C243 1.170 . S
C242 C244 1.380 . S
C243 C242 1.170 . S
C244 C242 1.380 . S
C244 C245 1.170 . S
C245 C244 1.170 . S
C246 C247 1.170 . S
C246 C248 1.380 . S
C247 C246 1.170 . S
C248 C246 1.380 . S
C248 C249 1.170 . S
C249 C248 1.170 . S
C250 C251 1.170 . S
C250 C252 1.380 . S
C251 C250 1.170 . S
C252 C250 1.380 . S
C252 C253 1.170 1_556 S
C253 C252 1.170 1_554 S
C254 C255 1.170 . S
C254 C256 1.380 . S
C255 C254 1.170 . S
C256 C254 1.380 . S
C256 C257 1.170 . S
C257 C256 1.170 . S
C187 C6 1.033 . S
C189 C185 1.055 . S
C191 C59 1.967 . S
C193 C163 1.890 . S
C195 C86 1.388 . S
C197 C174 1.407 . S
C199 C15 0.634 . S
C201 C179 0.449 . S
C205 C157 1.862 . S
C203 C50 1.912 . S
C209 C168 1.234 . S
C207 C95 1.214 . S
C211 C46 1.372 . S
C213 C141 1.363 . S
C215 C99 3.072 . S
C217 C146 3.018 . S
C219 C10 1.938 . S
C221 C124 1.893 . S
C225 C135 1.234 . S
C223 C55 1.197 . S
C229 C152 3.025 . S
C227 C90 3.071 . S
C231 C19 1.973 . S
C233 C130 1.932 . S
C237 C147 1.742 . S
C235 C18 1.695 . S
C239 C49 1.401 . S
C241 C125 1.458 . S
C243 C98 1.515 . S
C245 C136 1.543 . S
C249 C169 1.496 . S
C247 C58 1.483 . S
C253 C180 1.208 . S
C251 C89 1.186 . S
C255 C9 1.364 . S
C257 C158 1.412 . S
