# Generated by pormake.
# Topology pto, (3,4)-cn, num edge types: 1
# Building blocks:
#     Node 0, Type 0, BuildingBlock: PAMTOO_clean_linker_0, # of connection points: 3
#     Node 1, Type 0, BuildingBlock: PAMTOO_clean_linker_0, # of connection points: 3
#     Node 2, Type 0, BuildingBlock: PAMTOO_clean_linker_0, # of connection points: 3
#     Node 3, Type 0, BuildingBlock: PAMTOO_clean_linker_0, # of connection points: 3
#     Node 4, Type 0, BuildingBlock: PAMTOO_clean_linker_0, # of connection points: 3
#     Node 5, Type 0, BuildingBlock: PAMTOO_clean_linker_0, # of connection points: 3
#     Node 6, Type 0, BuildingBlock: PAMTOO_clean_linker_0, # of connection points: 3
#     Node 7, Type 0, BuildingBlock: PAMTOO_clean_linker_0, # of connection points: 3
#     Node 8, Type 1, BuildingBlock: KOZSID_clean_sbu_0, # of connection points: 4
#     Node 9, Type 1, BuildingBlock: KOZSID_clean_sbu_0, # of connection points: 4
#     Node 10, Type 1, BuildingBlock: KOZSID_clean_sbu_0, # of connection points: 4
#     Node 11, Type 1, BuildingBlock: KOZSID_clean_sbu_0, # of connection points: 4
#     Node 12, Type 1, BuildingBlock: KOZSID_clean_sbu_0, # of connection points: 4
#     Node 13, Type 1, BuildingBlock: KOZSID_clean_sbu_0, # of connection points: 4
#     Edge 14, Type (0, 1), BuildingBlock: MIFKUJ_clean_linker_0, # of connection points: 2
#     Edge 15, Type (0, 1), BuildingBlock: MIFKUJ_clean_linker_0, # of connection points: 2
#     Edge 16, Type (0, 1), BuildingBlock: MIFKUJ_clean_linker_0, # of connection points: 2
#     Edge 17, Type (0, 1), BuildingBlock: MIFKUJ_clean_linker_0, # of connection points: 2
#     Edge 18, Type (0, 1), BuildingBlock: MIFKUJ_clean_linker_0, # of connection points: 2
#     Edge 19, Type (0, 1), BuildingBlock: MIFKUJ_clean_linker_0, # of connection points: 2
#     Edge 20, Type (0, 1), BuildingBlock: MIFKUJ_clean_linker_0, # of connection points: 2
#     Edge 21, Type (0, 1), BuildingBlock: MIFKUJ_clean_linker_0, # of connection points: 2
#     Edge 22, Type (0, 1), BuildingBlock: MIFKUJ_clean_linker_0, # of connection points: 2
#     Edge 23, Type (0, 1), BuildingBlock: MIFKUJ_clean_linker_0, # of connection points: 2
#     Edge 24, Type (0, 1), BuildingBlock: MIFKUJ_clean_linker_0, # of connection points: 2
#     Edge 25, Type (0, 1), BuildingBlock: MIFKUJ_clean_linker_0, # of connection points: 2
#     Edge 26, Type (0, 1), BuildingBlock: MIFKUJ_clean_linker_0, # of connection points: 2
#     Edge 27, Type (0, 1), BuildingBlock: MIFKUJ_clean_linker_0, # of connection points: 2
#     Edge 28, Type (0, 1), BuildingBlock: MIFKUJ_clean_linker_0, # of connection points: 2
#     Edge 29, Type (0, 1), BuildingBlock: MIFKUJ_clean_linker_0, # of connection points: 2
#     Edge 30, Type (0, 1), BuildingBlock: MIFKUJ_clean_linker_0, # of connection points: 2
#     Edge 31, Type (0, 1), BuildingBlock: MIFKUJ_clean_linker_0, # of connection points: 2
#     Edge 32, Type (0, 1), BuildingBlock: MIFKUJ_clean_linker_0, # of connection points: 2
#     Edge 33, Type (0, 1), BuildingBlock: MIFKUJ_clean_linker_0, # of connection points: 2
#     Edge 34, Type (0, 1), BuildingBlock: MIFKUJ_clean_linker_0, # of connection points: 2
#     Edge 35, Type (0, 1), BuildingBlock: MIFKUJ_clean_linker_0, # of connection points: 2
#     Edge 36, Type (0, 1), BuildingBlock: MIFKUJ_clean_linker_0, # of connection points: 2
#     Edge 37, Type (0, 1), BuildingBlock: MIFKUJ_clean_linker_0, # of connection points: 2
# Relax obj value: 0.024
# Max RMSD: 0.170
# Mean RMSD: 0.076
data_MOF--net-pto--node1-KOZSID_clean_sbu_0--node2-PAMTOO_clean_linker_0--edge1-MIFKUJ_clean_linker_0
_symmetry_space_group_name_H-M    P1
_symmetry_Int_Tables_number       1
_symmetry_cell_setting            triclinic
loop_
_symmetry_equiv_pos_as_xyz
'x, y, z'
_cell_length_a     49.724542
_cell_length_b     63.828634
_cell_length_c     57.968386
_cell_angle_alpha  82.508239
_cell_angle_beta   81.084068
_cell_angle_gamma 102.33548
loop_
_atom_site_label
_atom_site_type_symbol
_atom_site_fract_x
_atom_site_fract_y
_atom_site_fract_z
_atom_type_partial_charge
H0 H 0.21542 0.28797 0.37027 0.0
H1 H 0.26866 0.26671 0.31676 0.0
H2 H 0.24493 0.32675 0.30055 0.0
H3 H 0.24562 0.30096 0.26197 0.0
C4 C 0.262 0.29233 0.266 0.0
O5 O 0.27347 0.3003 0.28423 0.0
H6 H 0.25207 0.27464 0.2713 0.0
C7 C 0.22746 0.29059 0.35245 0.0
C8 C 0.22845 0.30946 0.33645 0.0
C9 C 0.24165 0.27492 0.34551 0.0
C10 C 0.2573 0.27844 0.32242 0.0
C11 C 0.25846 0.29714 0.30641 0.0
C12 C 0.24414 0.31257 0.31337 0.0
H13 H 0.22523 0.80051 0.7503 0.0
H14 H 0.2646 0.76869 0.80119 0.0
H15 H 0.28705 0.83821 0.78258 0.0
H16 H 0.33449 0.82081 0.78814 0.0
C17 C 0.32425 0.80523 0.80035 0.0
O18 O 0.2964 0.80462 0.80818 0.0
H19 H 0.3259 0.79158 0.79047 0.0
C20 C 0.2394 0.80135 0.76279 0.0
C21 C 0.25545 0.82171 0.76501 0.0
C22 C 0.24254 0.78204 0.77564 0.0
C23 C 0.2619 0.78333 0.79099 0.0
C24 C 0.27784 0.80355 0.79341 0.0
C25 C 0.27458 0.82267 0.78052 0.0
H26 H 0.73188 0.79557 0.31104 0.0
H27 H 0.76363 0.74176 0.28966 0.0
H28 H 0.78472 0.76696 0.35115 0.0
H29 H 0.83046 0.75684 0.32009 0.0
C30 C 0.81879 0.74214 0.31429 0.0
O31 O 0.79075 0.73774 0.32436 0.0
H32 H 0.82145 0.74562 0.29464 0.0
C33 C 0.74432 0.78372 0.31343 0.0
C34 C 0.75839 0.78332 0.33266 0.0
C35 C 0.74576 0.76876 0.29771 0.0
C36 C 0.7615 0.75318 0.3017 0.0
C37 C 0.77533 0.75254 0.32097 0.0
C38 C 0.77357 0.76743 0.33651 0.0
H39 H 0.76547 0.31681 0.7498 0.0
H40 H 0.72843 0.25164 0.74105 0.0
H41 H 0.79444 0.29235 0.68701 0.0
H42 H 0.75094 0.26539 0.66844 0.0
C43 C 0.74372 0.25124 0.68315 0.0
O44 O 0.76028 0.25385 0.70006 0.0
H45 H 0.72158 0.25042 0.69115 0.0
C46 C 0.76422 0.3039 0.73929 0.0
C47 C 0.78225 0.30727 0.71723 0.0
C48 C 0.7447 0.28395 0.74808 0.0
C49 C 0.7432 0.26721 0.7345 0.0
C50 C 0.76123 0.2703 0.71261 0.0
C51 C 0.78073 0.29021 0.70404 0.0
H52 H 0.76236 0.80852 0.77086 0.0
H53 H 0.7926 0.75253 0.79443 0.0
H54 H 0.81417 0.78221 0.7212 0.0
H55 H 0.79719 0.73415 0.73105 0.0
C56 C 0.80681 0.73113 0.7469 0.0
O57 O 0.8195 0.75074 0.75253 0.0
H58 H 0.78988 0.72192 0.76189 0.0
C59 C 0.77439 0.79665 0.7671 0.0
C60 C 0.78814 0.7975 0.74379 0.0
C61 C 0.77574 0.7805 0.78557 0.0
C62 C 0.79146 0.76524 0.78053 0.0
C63 C 0.805 0.7658 0.75732 0.0
C64 C 0.80337 0.78187 0.73903 0.0
H65 H 0.78003 0.26545 0.35094 0.0
H66 H 0.72797 0.23503 0.30588 0.0
H67 H 0.75794 0.30434 0.29352 0.0
H68 H 0.69774 0.28621 0.29396 0.0
C69 C 0.7 0.27299 0.28355 0.0
O70 O 0.72754 0.27146 0.2797 0.0
H71 H 0.68638 0.25743 0.29393 0.0
C72 C 0.76912 0.26673 0.3362 0.0
C73 C 0.77114 0.2873 0.32295 0.0
C74 C 0.75377 0.24771 0.33011 0.0
C75 C 0.74027 0.24944 0.31063 0.0
C76 C 0.74167 0.26985 0.29769 0.0
C77 C 0.75724 0.28866 0.30367 0.0
H78 H 0.22981 0.29464 0.70067 0.0
H79 H 0.26776 0.32485 0.75386 0.0
H80 H 0.28141 0.26329 0.73987 0.0
H81 H 0.26752 0.26613 0.79 0.0
C82 C 0.27732 0.28364 0.7894 0.0
O83 O 0.29065 0.29306 0.76658 0.0
H84 H 0.26031 0.2917 0.79537 0.0
C85 C 0.24274 0.29447 0.7141 0.0
C86 C 0.25528 0.27698 0.71854 0.0
C87 C 0.24757 0.31206 0.72643 0.0
C88 C 0.26443 0.31171 0.74373 0.0
C89 C 0.27619 0.29399 0.74876 0.0
C90 C 0.27211 0.2769 0.73587 0.0
H91 H 0.21701 0.78545 0.38307 0.0
H92 H 0.26921 0.7695 0.3245 0.0
H93 H 0.29497 0.83009 0.34824 0.0
H94 H 0.31705 0.83606 0.29823 0.0
C95 C 0.3096 0.81879 0.29633 0.0
O96 O 0.30792 0.8056 0.31765 0.0
H97 H 0.28849 0.81668 0.2914 0.0
C98 C 0.2357 0.78969 0.36937 0.0
C99 C 0.25519 0.80966 0.3675 0.0
C100 C 0.24067 0.77487 0.35419 0.0
C101 C 0.2652 0.78044 0.33673 0.0
C102 C 0.28463 0.80028 0.33471 0.0
C103 C 0.27982 0.81469 0.35022 0.0
C104 C 0.0415 0.55121 0.39619 0.0
C105 C 0.04759 0.55624 0.41768 0.0
C106 C 0.03328 0.53871 0.43468 0.0
C107 C 0.01937 0.52401 0.42264 0.0
N108 N 0.02402 0.53127 0.39919 0.0
Co109 Co 0.00808 0.51557 0.37523 0.0
N110 N 0.97781 0.49586 0.39979 0.0
C111 C 0.97758 0.49256 0.42327 0.0
C112 C 0.95384 0.47801 0.43597 0.0
C113 C 0.93836 0.47153 0.41943 0.0
C114 C 0.9537 0.48241 0.39744 0.0
N115 N 0.99237 0.49992 0.35111 0.0
C116 C 0.96718 0.48598 0.35279 0.0
C117 C 0.96545 0.47789 0.33176 0.0
C118 C 0.99049 0.48694 0.31664 0.0
C119 C 0.00613 0.49999 0.32914 0.0
N120 N 0.03849 0.5352 0.35079 0.0
C121 C 0.0475 0.53155 0.32891 0.0
C122 C 0.06877 0.54827 0.31593 0.0
C123 C 0.07346 0.5633 0.33064 0.0
C124 C 0.05477 0.55479 0.35188 0.0
N125 N 0.03191 0.49514 0.37914 0.0
C126 C 0.06671 0.46603 0.38137 0.0
C127 C 0.07731 0.48827 0.3811 0.0
C128 C 0.0596 0.50253 0.37999 0.0
C129 C 0.03812 0.45865 0.38116 0.0
C130 C 0.02114 0.47339 0.38017 0.0
N131 N 0.98433 0.53599 0.37124 0.0
C132 C 0.96668 0.56047 0.34574 0.0
C133 C 0.95228 0.56676 0.36543 0.0
C134 C 0.95396 0.55701 0.3881 0.0
C135 C 0.97004 0.54168 0.39061 0.0
C136 C 0.98252 0.54508 0.34903 0.0
H137 H 0.97112 0.5346 0.40826 0.0
H138 H 0.99364 0.54077 0.33356 0.0
H139 H 0.06843 0.5196 0.37942 0.0
H140 H 0.99938 0.46715 0.37969 0.0
C141 C 0.99795 0.50557 0.43289 0.0
C142 C 0.05395 0.56497 0.37314 0.0
C143 C 0.94619 0.47781 0.37474 0.0
C144 C 0.03212 0.51451 0.31993 0.0
H145 H 0.06091 0.57102 0.42072 0.0
H146 H 0.03215 0.53731 0.45363 0.0
H147 H 0.9481 0.47311 0.455 0.0
H148 H 0.91832 0.45982 0.42311 0.0
H149 H 0.94825 0.46619 0.3279 0.0
H150 H 0.99637 0.48453 0.29858 0.0
H151 H 0.07877 0.54985 0.29762 0.0
H152 H 0.08881 0.57873 0.32621 0.0
H153 H 0.09918 0.49469 0.38158 0.0
H154 H 0.02898 0.44169 0.381 0.0
H155 H 0.9663 0.56773 0.32787 0.0
H156 H 0.94288 0.56111 0.40384 0.0
C157 C 0.07959 0.56344 0.73912 0.0
C158 C 0.08391 0.56229 0.76229 0.0
C159 C 0.06951 0.54191 0.77399 0.0
C160 C 0.0573 0.53185 0.75735 0.0
N161 N 0.06311 0.54466 0.73601 0.0
Co162 Co 0.04959 0.53708 0.70706 0.0
N163 N 0.01854 0.51325 0.72587 0.0
C164 C 0.01715 0.50374 0.74834 0.0
C165 C 0.99367 0.48716 0.75661 0.0
C166 C 0.97962 0.48595 0.73811 0.0
C167 C 0.99538 0.50196 0.71944 0.0
N168 N 0.03616 0.52962 0.67799 0.0
C169 C 0.01143 0.51713 0.67553 0.0
C170 C 0.01082 0.51614 0.65181 0.0
C171 C 0.03634 0.52798 0.63913 0.0
C172 C 0.05103 0.53565 0.6557 0.0
N173 N 0.08091 0.56074 0.68845 0.0
C174 C 0.09156 0.56309 0.66522 0.0
C175 C 0.11304 0.58138 0.65739 0.0
C176 C 0.116 0.59106 0.67696 0.0
C177 C 0.09608 0.57805 0.69563 0.0
N178 N 0.07356 0.51653 0.70463 0.0
C179 C 0.10628 0.48581 0.70404 0.0
C180 C 0.07944 0.48113 0.69846 0.0
C181 C 0.06344 0.49656 0.69904 0.0
C182 C 0.11672 0.50656 0.70919 0.0
C183 C 0.10013 0.5217 0.70921 0.0
N184 N 0.02561 0.55753 0.70961 0.0
C185 C 0.00883 0.5873 0.69201 0.0
C186 C 0.99229 0.5876 0.71382 0.0
C187 C 0.99269 0.57235 0.73342 0.0
C188 C 0.00948 0.55754 0.73095 0.0
C189 C 0.02524 0.57213 0.69027 0.0
H190 H 0.00949 0.54614 0.74639 0.0
H191 H 0.03784 0.57235 0.67331 0.0
H192 H 0.04267 0.49211 0.69525 0.0
H193 H 0.10862 0.53747 0.7134 0.0
C194 C 0.03624 0.51258 0.76198 0.0
C195 C 0.09258 0.58194 0.72012 0.0
C196 C 0.98967 0.50388 0.6952 0.0
C197 C 0.07714 0.55062 0.65082 0.0
H198 H 0.09608 0.57485 0.76991 0.0
H199 H 0.06715 0.53562 0.79265 0.0
H200 H 0.98726 0.47736 0.77412 0.0
H201 H 0.96036 0.47419 0.7382 0.0
H202 H 0.99395 0.50731 0.64449 0.0
H203 H 0.04314 0.53097 0.62008 0.0
H204 H 0.12419 0.58759 0.6394 0.0
H205 H 0.13089 0.60603 0.67739 0.0
H206 H 0.07065 0.46559 0.69374 0.0
H207 H 0.13724 0.51096 0.71377 0.0
H208 H 0.00949 0.59891 0.67642 0.0
H209 H 0.97993 0.57167 0.75055 0.0
C210 C 0.25355 0.01121 0.58335 0.0
C211 C 0.27962 0.00789 0.5863 0.0
C212 C 0.29893 0.02179 0.56856 0.0
C213 C 0.28365 0.03259 0.55569 0.0
N214 N 0.25571 0.02658 0.56422 0.0
Co215 Co 0.22576 0.03667 0.54948 0.0
N216 N 0.25434 0.058 0.52422 0.0
C217 C 0.28255 0.06187 0.52174 0.0
C218 C 0.29673 0.07853 0.50374 0.0
C219 C 0.27635 0.0861 0.49446 0.0
C220 C 0.25085 0.07349 0.50738 0.0
N221 N 0.19583 0.0459 0.53397 0.0
C222 C 0.19797 0.06176 0.51533 0.0
C223 C 0.1719 0.06281 0.51018 0.0
C224 C 0.15256 0.04719 0.52633 0.0
C225 C 0.16786 0.03753 0.54034 0.0
N226 N 0.19718 0.01635 0.57556 0.0
C227 C 0.16903 0.01354 0.57876 0.0
C228 C 0.15482 0.99922 0.5988 0.0
C229 C 0.1751 0.99246 0.60905 0.0
C230 C 0.2006 0.00295 0.59447 0.0
N231 N 0.22629 0.05997 0.569 0.0
C232 C 0.2279 0.09481 0.59453 0.0
C233 C 0.20281 0.08397 0.58888 0.0
C234 C 0.20243 0.06661 0.57644 0.0
C235 C 0.252 0.08747 0.58758 0.0
C236 C 0.2508 0.07033 0.5748 0.0
N237 N 0.22529 0.01326 0.52987 0.0
C238 C 0.20126 0.97987 0.51897 0.0
C239 C 0.22569 0.9786 0.50421 0.0
C240 C 0.24966 0.99532 0.50203 0.0
C241 C 0.24903 0.01227 0.5149 0.0
C242 C 0.20147 0.99724 0.5314 0.0
H243 H 0.26815 0.02426 0.51248 0.0
H244 H 0.18215 0.99715 0.54234 0.0
H245 H 0.18263 0.05898 0.57278 0.0
H246 H 0.27004 0.06586 0.56965 0.0
C247 C 0.29502 0.04932 0.53639 0.0
C248 C 0.22736 0.99917 0.59897 0.0
C249 C 0.22393 0.07715 0.50328 0.0
C250 C 0.15654 0.02314 0.56158 0.0
H251 H 0.28429 0.99656 0.59981 0.0
H252 H 0.32145 0.02384 0.56548 0.0
H253 H 0.31919 0.08459 0.4982 0.0
H254 H 0.27982 0.0995 0.47997 0.0
H255 H 0.16726 0.0742 0.49672 0.0
H256 H 0.12997 0.04406 0.5284 0.0
H257 H 0.13236 0.99396 0.60495 0.0
H258 H 0.1715 0.98085 0.62524 0.0
H259 H 0.18355 0.08905 0.59358 0.0
H260 H 0.27186 0.09485 0.59197 0.0
H261 H 0.18211 0.9673 0.52139 0.0
H262 H 0.26897 0.99544 0.49037 0.0
C263 C 0.51638 0.81374 0.0772 0.0
C264 C 0.51503 0.83486 0.07966 0.0
C265 C 0.5309 0.84812 0.05944 0.0
C266 C 0.54114 0.83443 0.04588 0.0
N267 N 0.53278 0.81343 0.05638 0.0
Co268 Co 0.54316 0.78839 0.04342 0.0
N269 N 0.57562 0.80771 0.02061 0.0
C270 C 0.57952 0.82933 0.01388 0.0
C271 C 0.60361 0.83839 0.99746 0.0
C272 C 0.61543 0.82138 0.9934 0.0
C273 C 0.59777 0.80278 0.0076 0.0
N274 N 0.55339 0.76324 0.03054 0.0
C275 C 0.5774 0.762 0.01673 0.0
C276 C 0.57546 0.74117 0.01144 0.0
C277 C 0.54911 0.72916 0.02194 0.0
C278 C 0.53649 0.74321 0.0331 0.0
N279 N 0.51056 0.76918 0.06609 0.0
C280 C 0.49782 0.74871 0.06454 0.0
C281 C 0.47563 0.73955 0.08285 0.0
C282 C 0.47432 0.7553 0.0967 0.0
C283 C 0.49592 0.77321 0.08601 0.0
N284 N 0.51933 0.79116 0.01987 0.0
C285 C 0.4849 0.79421 0.98624 0.0
C286 C 0.47566 0.79613 0.0098 0.0
C287 C 0.49315 0.79455 0.0263 0.0
C288 C 0.51189 0.791 0.97986 0.0
C289 C 0.52869 0.78954 0.99687 0.0
N290 N 0.56687 0.78562 0.06695 0.0
C291 C 0.58024 0.76371 0.09817 0.0
C292 C 0.59886 0.78203 0.10243 0.0
C293 C 0.60144 0.80211 0.08808 0.0
C294 C 0.58517 0.80357 0.07064 0.0
C295 C 0.56469 0.76582 0.08027 0.0
H296 H 0.58721 0.81931 0.06028 0.0
H297 H 0.55051 0.75145 0.07749 0.0
H298 H 0.48537 0.79589 0.04434 0.0
H299 H 0.54927 0.78701 0.99134 0.0
C300 C 0.56237 0.84087 0.02572 0.0
C301 C 0.50067 0.79425 0.09418 0.0
C302 C 0.6009 0.78063 0.00593 0.0
C303 C 0.51043 0.73752 0.04845 0.0
H304 H 0.50383 0.84017 0.09448 0.0
H305 H 0.53546 0.86571 0.05562 0.0
H306 H 0.61195 0.85538 0.98975 0.0
H307 H 0.63452 0.82246 0.98098 0.0
H308 H 0.59121 0.73542 0.00064 0.0
H309 H 0.54043 0.71212 0.02182 0.0
H310 H 0.46271 0.72311 0.08631 0.0
H311 H 0.45917 0.7538 0.11276 0.0
H312 H 0.45487 0.79842 0.01558 0.0
H313 H 0.52012 0.7898 0.96179 0.0
H314 H 0.57711 0.74787 0.1089 0.0
H315 H 0.61591 0.81669 0.09025 0.0
C316 C 0.78236 0.98114 0.55256 0.0
C317 C 0.80928 0.97917 0.55431 0.0
C318 C 0.82722 0.99499 0.53742 0.0
C319 C 0.81029 0.00554 0.52627 0.0
N320 N 0.78264 0.99766 0.53521 0.0
Co321 Co 0.75077 0.00706 0.52288 0.0
N322 N 0.7771 0.02959 0.49731 0.0
C323 C 0.80535 0.03536 0.49459 0.0
C324 C 0.81783 0.05258 0.47674 0.0
C325 C 0.79625 0.05837 0.46766 0.0
C326 C 0.77174 0.04414 0.48044 0.0
N327 N 0.71886 0.01521 0.50943 0.0
C328 C 0.71901 0.03012 0.49046 0.0
C329 C 0.69206 0.03 0.48676 0.0
C330 C 0.67421 0.01475 0.5043 0.0
C331 C 0.69122 0.00632 0.51751 0.0
N332 N 0.72446 0.98552 0.54933 0.0
C333 C 0.69633 0.9825 0.55469 0.0
C334 C 0.68389 0.96696 0.57426 0.0
C335 C 0.70538 0.95955 0.5818 0.0
C336 C 0.72975 0.97099 0.56623 0.0
N337 N 0.75124 0.0297 0.54361 0.0
C338 C 0.75261 0.06327 0.57122 0.0
C339 C 0.7284 0.05442 0.56294 0.0
C340 C 0.72803 0.03764 0.54966 0.0
C341 C 0.77594 0.05462 0.56575 0.0
C342 C 0.77492 0.03822 0.55189 0.0
N343 N 0.75034 0.98457 0.50232 0.0
C344 C 0.72649 0.95161 0.49068 0.0
C345 C 0.75056 0.95139 0.47479 0.0
C346 C 0.77438 0.96827 0.47261 0.0
C347 C 0.77386 0.98453 0.48651 0.0
C348 C 0.72675 0.96832 0.50403 0.0
H349 H 0.79284 0.99676 0.4844 0.0
H350 H 0.70768 0.96769 0.51575 0.0
H351 H 0.70865 0.0316 0.54439 0.0
H352 H 0.79375 0.03287 0.54815 0.0
C353 C 0.81962 0.02348 0.50811 0.0
C354 C 0.75723 0.96697 0.56773 0.0
C355 C 0.74388 0.04555 0.47638 0.0
C356 C 0.68197 0.99206 0.53906 0.0
H357 H 0.81531 0.9675 0.56654 0.0
H358 H 0.84988 0.9984 0.53372 0.0
H359 H 0.83999 0.06 0.47098 0.0
H360 H 0.79838 0.07168 0.45337 0.0
H361 H 0.68594 0.04034 0.47318 0.0
H362 H 0.65153 0.01083 0.50753 0.0
H363 H 0.66173 0.96104 0.58155 0.0
H364 H 0.70331 0.9468 0.5967 0.0
H365 H 0.70975 0.06058 0.56625 0.0
H366 H 0.79508 0.06037 0.57211 0.0
H367 H 0.70743 0.93901 0.49268 0.0
H368 H 0.79357 0.96866 0.46062 0.0
C369 C 0.48896 0.3205 0.04585 0.0
C370 C 0.4879 0.3415 0.0491 0.0
C371 C 0.50869 0.35525 0.03238 0.0
C372 C 0.52128 0.34195 0.01999 0.0
N373 N 0.50969 0.32048 0.02765 0.0
Co374 Co 0.52219 0.29548 0.01524 0.0
N375 N 0.55337 0.31579 0.99112 0.0
C376 C 0.56004 0.3378 0.98783 0.0
C377 C 0.58166 0.3473 0.96925 0.0
C378 C 0.58908 0.33038 0.95988 0.0
C379 C 0.57155 0.31144 0.97344 0.0
N380 N 0.53468 0.27048 0.00287 0.0
C381 C 0.55482 0.27049 0.98423 0.0
C382 C 0.55666 0.24951 0.9815 0.0
C383 C 0.53653 0.23572 0.99874 0.0
C384 C 0.52371 0.249 0.01101 0.0
N385 N 0.49097 0.27515 0.03927 0.0
C386 C 0.48432 0.25312 0.04257 0.0
C387 C 0.4617 0.24363 0.06029 0.0
C388 C 0.4535 0.26057 0.06903 0.0
C389 C 0.47183 0.27949 0.05615 0.0
N390 N 0.49689 0.29578 0.99195 0.0
C391 C 0.46249 0.2959 0.95758 0.0
C392 C 0.46314 0.2765 0.97154 0.0
C393 C 0.48035 0.27681 0.9884 0.0
C394 C 0.47907 0.31529 0.9614 0.0
C395 C 0.4959 0.31486 0.97857 0.0
N396 N 0.54754 0.29518 0.03858 0.0
C397 C 0.56421 0.27566 0.06988 0.0
C398 C 0.58092 0.29496 0.07372 0.0
C399 C 0.58116 0.31433 0.05926 0.0
C400 C 0.5645 0.31406 0.04194 0.0
C401 C 0.54792 0.27614 0.05235 0.0
H402 H 0.56552 0.32938 0.03169 0.0
H403 H 0.53548 0.26089 0.0506 0.0
H404 H 0.48001 0.26147 0.99827 0.0
H405 H 0.50812 0.33016 0.98054 0.0
C406 C 0.54452 0.34911 0.00158 0.0
C407 C 0.4705 0.30113 0.06102 0.0
C408 C 0.57197 0.28979 0.96812 0.0
C409 C 0.50025 0.24179 0.02922 0.0
H410 H 0.47385 0.34639 0.06242 0.0
H411 H 0.51427 0.37285 0.02982 0.0
H412 H 0.59042 0.3645 0.96284 0.0
H413 H 0.60514 0.33189 0.94446 0.0
H414 H 0.57074 0.24469 0.96813 0.0
H415 H 0.53137 0.21811 0.0016 0.0
H416 H 0.45247 0.22644 0.06633 0.0
H417 H 0.43616 0.25913 0.08343 0.0
H418 H 0.45027 0.26107 0.96963 0.0
H419 H 0.47953 0.33074 0.95092 0.0
H420 H 0.56303 0.26023 0.08077 0.0
H421 H 0.59412 0.32969 0.06128 0.0
H422 H 0.24526 0.35395 0.32555 0.0
H423 H 0.21853 0.38042 0.33592 0.0
H424 H 0.14971 0.32831 0.37462 0.0
H425 H 0.17577 0.30168 0.36334 0.0
H426 H 0.13077 0.35643 0.34837 0.0
H427 H 0.19362 0.36149 0.40311 0.0
H428 H 0.23932 0.36609 0.41579 0.0
H429 H 0.26681 0.4301 0.37399 0.0
H430 H 0.22139 0.42576 0.36078 0.0
H431 H 0.05538 0.42395 0.40463 0.0
H432 H 0.08402 0.39755 0.39977 0.0
H433 H 0.14904 0.44681 0.35215 0.0
H434 H 0.12028 0.47323 0.35636 0.0
H435 H 0.16941 0.41983 0.38464 0.0
H436 H 0.10641 0.41356 0.32909 0.0
H437 H 0.06001 0.40887 0.31767 0.0
H438 H 0.0322 0.3464 0.3627 0.0
H439 H 0.07833 0.35089 0.3747 0.0
C440 C 0.22437 0.34809 0.33614 0.0
C441 C 0.21269 0.32566 0.34361 0.0
C442 C 0.20923 0.36327 0.3423 0.0
C443 C 0.18224 0.35638 0.35633 0.0
C444 C 0.17055 0.33402 0.36387 0.0
C445 C 0.1856 0.31882 0.3576 0.0
C446 C 0.16584 0.37245 0.36244 0.0
C447 C 0.13908 0.37008 0.35667 0.0
C448 C 0.17686 0.39053 0.37284 0.0
C449 C 0.20418 0.39322 0.38078 0.0
C450 C 0.20949 0.37648 0.39647 0.0
C451 C 0.23533 0.37905 0.40378 0.0
C452 C 0.25598 0.39835 0.39566 0.0
C453 C 0.2508 0.41514 0.38025 0.0
C454 C 0.225 0.41265 0.37286 0.0
C455 C 0.07576 0.42921 0.39311 0.0
C456 C 0.08538 0.45067 0.38067 0.0
C457 C 0.09215 0.41412 0.39047 0.0
C458 C 0.11847 0.42021 0.37541 0.0
C459 C 0.12877 0.44184 0.36388 0.0
C460 C 0.11232 0.45692 0.36639 0.0
C461 C 0.13451 0.40371 0.37057 0.0
C462 C 0.16115 0.40606 0.3765 0.0
C463 C 0.12335 0.38553 0.36046 0.0
C464 C 0.09573 0.38266 0.35298 0.0
C465 C 0.09034 0.39889 0.3367 0.0
C466 C 0.0641 0.39627 0.3301 0.0
C467 C 0.04315 0.37737 0.3395 0.0
C468 C 0.04844 0.36104 0.35546 0.0
C469 C 0.07463 0.36361 0.36216 0.0
H470 H 0.02286 0.37537 0.33437 0.0
H471 H 0.27597 0.40031 0.40134 0.0
H472 H 0.26133 0.74526 0.77077 0.0
H473 H 0.23523 0.71076 0.76274 0.0
H474 H 0.16133 0.73609 0.76403 0.0
H475 H 0.18708 0.77045 0.7727 0.0
H476 H 0.1487 0.69417 0.7868 0.0
H477 H 0.20133 0.73513 0.71201 0.0
H478 H 0.24387 0.75617 0.6839 0.0
H479 H 0.28055 0.70109 0.69055 0.0
H480 H 0.23836 0.67981 0.71898 0.0
H481 H 0.07234 0.61706 0.72815 0.0
H482 H 0.09759 0.65108 0.73839 0.0
H483 H 0.17221 0.62642 0.73556 0.0
H484 H 0.14698 0.59262 0.72495 0.0
H485 H 0.18439 0.66797 0.71381 0.0
H486 H 0.13148 0.6268 0.7883 0.0
H487 H 0.08862 0.60562 0.8159 0.0
H488 H 0.05228 0.6609 0.80963 0.0
H489 H 0.09479 0.68233 0.78167 0.0
C490 C 0.2394 0.74337 0.76972 0.0
C491 C 0.2263 0.76063 0.77224 0.0
C492 C 0.22459 0.72372 0.76492 0.0
C493 C 0.19646 0.72099 0.76246 0.0
C494 C 0.18306 0.7379 0.76575 0.0
C495 C 0.19786 0.75757 0.77052 0.0
C496 C 0.18123 0.70073 0.75576 0.0
C497 C 0.15632 0.68856 0.77071 0.0
C498 C 0.19146 0.69323 0.73498 0.0
C499 C 0.2168 0.70595 0.71781 0.0
C500 C 0.21855 0.72756 0.70762 0.0
C501 C 0.24259 0.73952 0.69161 0.0
C502 C 0.26493 0.72999 0.68549 0.0
C503 C 0.26325 0.70846 0.69533 0.0
C504 C 0.23927 0.69644 0.71138 0.0
C505 C 0.09415 0.61908 0.72969 0.0
C506 C 0.10792 0.60251 0.72583 0.0
C507 C 0.1085 0.63837 0.73561 0.0
C508 C 0.13671 0.64117 0.73799 0.0
C509 C 0.15049 0.6246 0.73382 0.0
C510 C 0.13615 0.60536 0.72784 0.0
C511 C 0.15189 0.66135 0.74487 0.0
C512 C 0.17679 0.67354 0.72993 0.0
C513 C 0.14164 0.66885 0.76565 0.0
C514 C 0.11623 0.65611 0.78274 0.0
C515 C 0.11428 0.6344 0.79269 0.0
C516 C 0.09006 0.62236 0.80841 0.0
C517 C 0.06772 0.6319 0.81448 0.0
C518 C 0.0696 0.65353 0.80489 0.0
C519 C 0.09376 0.66564 0.78912 0.0
H520 H 0.04898 0.62254 0.82665 0.0
H521 H 0.28352 0.73928 0.67309 0.0
H522 H 0.84389 0.73448 0.35236 0.0
H523 H 0.86417 0.70366 0.36347 0.0
H524 H 0.83943 0.67563 0.3039 0.0
H525 H 0.81888 0.70636 0.29297 0.0
H526 H 0.82948 0.64493 0.34332 0.0
H527 H 0.90655 0.70337 0.30088 0.0
H528 H 0.93679 0.74057 0.2927 0.0
H529 H 0.95819 0.73112 0.36166 0.0
H530 H 0.92776 0.69395 0.37037 0.0
H531 H 0.91882 0.57224 0.33281 0.0
H532 H 0.89412 0.60111 0.32656 0.0
H533 H 0.92377 0.62816 0.38499 0.0
H534 H 0.94942 0.59981 0.39078 0.0
H535 H 0.93038 0.65925 0.34808 0.0
H536 H 0.85528 0.60027 0.3901 0.0
H537 H 0.82515 0.56304 0.39855 0.0
H538 H 0.79987 0.57323 0.33123 0.0
H539 H 0.83017 0.61044 0.32222 0.0
C540 C 0.84286 0.72171 0.34169 0.0
C541 C 0.83049 0.72295 0.32151 0.0
C542 C 0.85443 0.70416 0.348 0.0
C543 C 0.85375 0.68753 0.33426 0.0
C544 C 0.84035 0.68834 0.31466 0.0
C545 C 0.82877 0.70589 0.30835 0.0
C546 C 0.86758 0.66958 0.33997 0.0
C547 C 0.8516 0.64802 0.34412 0.0
C548 C 0.89629 0.67366 0.34161 0.0
C549 C 0.91465 0.69597 0.33637 0.0
C550 C 0.91753 0.70929 0.31437 0.0
C551 C 0.93474 0.73036 0.30962 0.0
C552 C 0.94934 0.73822 0.32667 0.0
C553 C 0.94683 0.72502 0.34848 0.0
C554 C 0.92962 0.70395 0.35333 0.0
C555 C 0.9202 0.58438 0.34428 0.0
C556 C 0.93612 0.5837 0.3623 0.0
C557 C 0.9058 0.60075 0.34085 0.0
C558 C 0.90681 0.61668 0.35549 0.0
C559 C 0.92258 0.61599 0.37355 0.0
C560 C 0.93704 0.59966 0.37696 0.0
C561 C 0.89232 0.63452 0.35135 0.0
C562 C 0.9082 0.6561 0.34745 0.0
C563 C 0.86352 0.63044 0.35002 0.0
C564 C 0.84521 0.60808 0.3554 0.0
C565 C 0.84347 0.59452 0.37701 0.0
C566 C 0.82633 0.57343 0.38192 0.0
C567 C 0.81066 0.56576 0.36541 0.0
C568 C 0.81205 0.57919 0.34399 0.0
C569 C 0.82918 0.60029 0.33898 0.0
H570 H 0.7974 0.54943 0.36925 0.0
H571 H 0.96266 0.75453 0.32296 0.0
H572 H 0.83724 0.31426 0.6957 0.0
H573 H 0.87242 0.34888 0.68523 0.0
H574 H 0.80975 0.38257 0.70953 0.0
H575 H 0.77425 0.34816 0.71916 0.0
H576 H 0.84547 0.40646 0.67061 0.0
H577 H 0.85225 0.36764 0.74564 0.0
H578 H 0.8574 0.33627 0.77283 0.0
H579 H 0.93763 0.33921 0.73078 0.0
H580 H 0.93275 0.37042 0.70313 0.0
H581 H 0.93294 0.49908 0.70266 0.0
H582 H 0.89738 0.46662 0.69992 0.0
H583 H 0.96299 0.43598 0.67447 0.0
H584 H 0.99832 0.46819 0.67758 0.0
H585 H 0.92663 0.41053 0.7114 0.0
H586 H 0.92101 0.45202 0.63801 0.0
H587 H 0.91536 0.48392 0.61197 0.0
H588 H 0.83276 0.47685 0.65199 0.0
H589 H 0.83807 0.44508 0.67851 0.0
C590 C 0.83081 0.32909 0.69832 0.0
C591 C 0.80303 0.32842 0.70856 0.0
C592 C 0.85098 0.34885 0.6925 0.0
C593 C 0.8438 0.36825 0.69701 0.0
C594 C 0.81579 0.36779 0.70603 0.0
C595 C 0.7956 0.34807 0.71176 0.0
C596 C 0.86573 0.38873 0.69398 0.0
C597 C 0.86314 0.40743 0.67963 0.0
C598 C 0.88896 0.3899 0.70552 0.0
C599 C 0.89199 0.3712 0.72218 0.0
C600 C 0.87089 0.36149 0.74209 0.0
C601 C 0.87377 0.34375 0.7576 0.0
C602 C 0.8978 0.33571 0.7535 0.0
C603 C 0.91902 0.34543 0.73391 0.0
C604 C 0.91621 0.36315 0.71832 0.0
C605 C 0.93955 0.48556 0.69595 0.0
C606 C 0.96814 0.48606 0.69003 0.0
C607 C 0.91935 0.46709 0.69436 0.0
C608 C 0.92756 0.44893 0.68684 0.0
C609 C 0.9562 0.44981 0.68023 0.0
C610 C 0.97632 0.4682 0.68185 0.0
C611 C 0.90654 0.42832 0.68792 0.0
C612 C 0.90918 0.40957 0.7021 0.0
C613 C 0.88334 0.42722 0.67635 0.0
C614 C 0.88005 0.44628 0.66039 0.0
C615 C 0.90173 0.45737 0.64139 0.0
C616 C 0.89857 0.47541 0.62651 0.0
C617 C 0.87375 0.48244 0.63036 0.0
C618 C 0.852 0.4714 0.64905 0.0
C619 C 0.85506 0.45336 0.664 0.0
H620 H 0.87134 0.4964 0.61882 0.0
H621 H 0.9 0.32198 0.76553 0.0
H622 H 0.23221 0.23334 0.33644 0.0
H623 H 0.2282 0.19986 0.36399 0.0
H624 H 0.24202 0.23717 0.4198 0.0
H625 H 0.24647 0.2708 0.39219 0.0
H626 H 0.27291 0.20596 0.41812 0.0
H627 H 0.17757 0.21012 0.41902 0.0
H628 H 0.13642 0.21393 0.40143 0.0
H629 H 0.13817 0.15608 0.3714 0.0
H630 H 0.17962 0.1521 0.38852 0.0
H631 H 0.2318 0.11784 0.51382 0.0
H632 H 0.23329 0.15166 0.48753 0.0
H633 H 0.21653 0.1152 0.4315 0.0
H634 H 0.21471 0.08133 0.45802 0.0
H635 H 0.18672 0.14623 0.43371 0.0
H636 H 0.28198 0.142 0.43241 0.0
H637 H 0.32278 0.13769 0.45025 0.0
H638 H 0.32149 0.19542 0.48063 0.0
H639 H 0.28031 0.19985 0.46333 0.0
C640 C 0.23462 0.23442 0.35453 0.0
C641 C 0.23962 0.25468 0.36218 0.0
C642 C 0.23211 0.21529 0.37028 0.0
C643 C 0.23455 0.21604 0.39397 0.0
C644 C 0.23999 0.23625 0.40159 0.0
C645 C 0.24233 0.25541 0.38587 0.0
C646 C 0.2314 0.19569 0.41078 0.0
C647 C 0.25393 0.19302 0.4218 0.0
C648 C 0.20686 0.17864 0.41511 0.0
C649 C 0.18187 0.18094 0.40486 0.0
C650 C 0.16933 0.19831 0.40849 0.0
C651 C 0.14593 0.20048 0.39864 0.0
C652 C 0.13473 0.18528 0.38525 0.0
C653 C 0.14689 0.16785 0.38175 0.0
C654 C 0.17032 0.16563 0.39154 0.0
C655 C 0.22823 0.11717 0.49593 0.0
C656 C 0.22312 0.09724 0.48775 0.0
C657 C 0.22917 0.1364 0.48094 0.0
C658 C 0.22534 0.13595 0.45748 0.0
C659 C 0.21954 0.11589 0.44953 0.0
C660 C 0.21855 0.09664 0.46457 0.0
C661 C 0.22822 0.15648 0.44105 0.0
C662 C 0.20568 0.15918 0.43007 0.0
C663 C 0.25279 0.17353 0.43669 0.0
C664 C 0.27789 0.17114 0.44675 0.0
C665 C 0.29028 0.1537 0.44302 0.0
C666 C 0.31348 0.15124 0.45303 0.0
C667 C 0.32469 0.16625 0.4666 0.0
C668 C 0.31276 0.18379 0.47013 0.0
C669 C 0.28949 0.18629 0.46022 0.0
H670 H 0.34265 0.16432 0.47435 0.0
H671 H 0.11661 0.18699 0.37765 0.0
H672 H 0.35556 0.77642 0.81259 0.0
H673 H 0.38064 0.7749 0.84567 0.0
H674 H 0.35132 0.82943 0.86776 0.0
H675 H 0.32679 0.83131 0.83419 0.0
H676 H 0.40509 0.83446 0.86936 0.0
H677 H 0.32283 0.7769 0.89783 0.0
H678 H 0.28757 0.74365 0.89649 0.0
H679 H 0.35133 0.70759 0.89181 0.0
H680 H 0.38706 0.7407 0.89279 0.0
H681 H 0.45028 0.82186 0.98021 0.0
H682 H 0.42061 0.82379 0.95039 0.0
H683 H 0.44887 0.77143 0.92185 0.0
H684 H 0.47784 0.76894 0.95201 0.0
H685 H 0.3931 0.76596 0.92542 0.0
H686 H 0.47553 0.82427 0.89495 0.0
H687 H 0.51054 0.85763 0.89644 0.0
H688 H 0.44562 0.89235 0.90544 0.0
H689 H 0.41015 0.8591 0.90432 0.0
C690 C 0.35437 0.78798 0.8246 0.0
C691 C 0.33897 0.8038 0.8211 0.0
C692 C 0.36858 0.78706 0.84355 0.0
C693 C 0.36747 0.80181 0.85947 0.0
C694 C 0.35235 0.8178 0.8558 0.0
C695 C 0.33827 0.81881 0.83675 0.0
C696 C 0.38263 0.80084 0.87958 0.0
C697 C 0.40211 0.81957 0.88186 0.0
C698 C 0.37913 0.78132 0.89567 0.0
C699 C 0.35766 0.76134 0.89518 0.0
C700 C 0.32937 0.76192 0.89634 0.0
C701 C 0.30929 0.74309 0.89567 0.0
C702 C 0.31721 0.72353 0.89401 0.0
C703 C 0.34523 0.72275 0.89307 0.0
C704 C 0.3654 0.74154 0.89371 0.0
C705 C 0.44995 0.81061 0.96773 0.0
C706 C 0.46655 0.79532 0.9684 0.0
C707 C 0.43318 0.81186 0.95058 0.0
C708 C 0.43279 0.79792 0.93372 0.0
C709 C 0.44893 0.7824 0.93463 0.0
C710 C 0.46568 0.78114 0.95175 0.0
C711 C 0.41573 0.7995 0.915 0.0
C712 C 0.39589 0.78087 0.91301 0.0
C713 C 0.41884 0.81913 0.89924 0.0
C714 C 0.44016 0.83914 0.8998 0.0
C715 C 0.46869 0.83898 0.89743 0.0
C716 C 0.48862 0.85787 0.89818 0.0
C717 C 0.4803 0.87708 0.90111 0.0
C718 C 0.45203 0.87745 0.90322 0.0
C719 C 0.43201 0.85859 0.90251 0.0
H720 H 0.49576 0.89169 0.90168 0.0
H721 H 0.30164 0.70897 0.89349 0.0
H722 H 0.74667 0.777 0.38111 0.0
H723 H 0.74528 0.80485 0.40651 0.0
H724 H 0.76786 0.8549 0.34451 0.0
H725 H 0.76905 0.82717 0.31911 0.0
H726 H 0.7992 0.86357 0.38112 0.0
H727 H 0.70333 0.8412 0.37039 0.0
H728 H 0.65901 0.81442 0.37186 0.0
H729 H 0.65155 0.79579 0.44691 0.0
H730 H 0.69608 0.82225 0.44581 0.0
H731 H 0.77092 0.9549 0.42756 0.0
H732 H 0.77221 0.92547 0.40462 0.0
H733 H 0.73295 0.87822 0.46757 0.0
H734 H 0.73101 0.90768 0.49045 0.0
H735 H 0.71066 0.86658 0.43208 0.0
H736 H 0.80443 0.88864 0.44441 0.0
H737 H 0.84932 0.91419 0.4443 0.0
H738 H 0.86208 0.93163 0.36864 0.0
H739 H 0.81704 0.90641 0.36833 0.0
C740 C 0.75141 0.79396 0.37297 0.0
C741 C 0.75783 0.79997 0.34818 0.0
C742 C 0.75051 0.8098 0.38744 0.0
C743 C 0.75636 0.83188 0.37733 0.0
C744 C 0.76326 0.83793 0.35262 0.0
C745 C 0.76377 0.8221 0.33816 0.0
C746 C 0.75515 0.84878 0.39245 0.0
C747 C 0.77982 0.86441 0.39211 0.0
C748 C 0.73002 0.84937 0.40728 0.0
C749 C 0.7032 0.83352 0.40797 0.0
C750 C 0.69238 0.83125 0.38717 0.0
C751 C 0.66719 0.81616 0.38794 0.0
C752 C 0.65251 0.80336 0.40945 0.0
C753 C 0.66296 0.80568 0.43025 0.0
C754 C 0.68817 0.82073 0.42956 0.0
C755 C 0.76267 0.93823 0.4365 0.0
C756 C 0.75098 0.93357 0.4608 0.0
C757 C 0.76347 0.92141 0.4234 0.0
C758 C 0.75313 0.89958 0.43444 0.0
C759 C 0.74109 0.89491 0.45866 0.0
C760 C 0.73997 0.91175 0.47171 0.0
C761 C 0.75473 0.88165 0.42066 0.0
C762 C 0.73014 0.86577 0.42124 0.0
C763 C 0.78006 0.88064 0.40629 0.0
C764 C 0.80723 0.89577 0.40638 0.0
C765 C 0.81671 0.89804 0.42776 0.0
C766 C 0.8422 0.91245 0.42777 0.0
C767 C 0.85851 0.92456 0.40648 0.0
C768 C 0.8494 0.92225 0.38513 0.0
C769 C 0.82391 0.90789 0.38502 0.0
H770 H 0.87824 0.9357 0.40653 0.0
H771 H 0.63301 0.79169 0.41002 0.0
H772 H 0.68805 0.26704 0.75936 0.0
H773 H 0.65695 0.26462 0.79736 0.0
H774 H 0.72824 0.29162 0.82724 0.0
H775 H 0.75938 0.29389 0.78945 0.0
H776 H 0.69014 0.25717 0.85805 0.0
H777 H 0.69012 0.32397 0.80808 0.0
H778 H 0.68405 0.34586 0.77178 0.0
H779 H 0.59799 0.31067 0.7827 0.0
H780 H 0.60368 0.28835 0.8189 0.0
H781 H 0.62875 0.297 0.95652 0.0
H782 H 0.65658 0.29298 0.91922 0.0
H783 H 0.58054 0.27228 0.89254 0.0
H784 H 0.55284 0.27686 0.92968 0.0
H785 H 0.61867 0.30089 0.85975 0.0
H786 H 0.61717 0.23584 0.91133 0.0
H787 H 0.62283 0.21385 0.9477 0.0
H788 H 0.71069 0.24472 0.93396 0.0
H789 H 0.70548 0.26717 0.89768 0.0
C790 C 0.69707 0.27215 0.77416 0.0
C791 C 0.72606 0.28082 0.77144 0.0
C792 C 0.67932 0.27087 0.79577 0.0
C793 C 0.69032 0.27814 0.815 0.0
C794 C 0.71936 0.28597 0.8126 0.0
C795 C 0.73707 0.28741 0.79098 0.0
C796 C 0.67154 0.27863 0.8373 0.0
C797 C 0.67463 0.26684 0.8585 0.0
C798 C 0.6509 0.29084 0.83772 0.0
C799 C 0.64742 0.30433 0.81604 0.0
C800 C 0.66997 0.32078 0.80263 0.0
C801 C 0.66659 0.33328 0.78209 0.0
C802 C 0.64067 0.32961 0.7749 0.0
C803 C 0.61806 0.31347 0.78827 0.0
C804 C 0.62135 0.30089 0.8088 0.0
C805 C 0.61815 0.29164 0.94259 0.0
C806 C 0.58886 0.28731 0.94568 0.0
C807 C 0.63394 0.2892 0.92142 0.0
C808 C 0.6206 0.28207 0.90319 0.0
C809 C 0.59125 0.27777 0.90636 0.0
C810 C 0.57548 0.28032 0.92749 0.0
C811 C 0.63735 0.27956 0.88066 0.0
C812 C 0.63393 0.29102 0.85936 0.0
C813 C 0.65759 0.26694 0.88017 0.0
C814 C 0.66088 0.25332 0.90187 0.0
C815 C 0.63766 0.23806 0.91614 0.0
C816 C 0.6408 0.22549 0.93674 0.0
C817 C 0.6671 0.22791 0.94316 0.0
C818 C 0.69033 0.24287 0.92897 0.0
C819 C 0.6873 0.25551 0.90838 0.0
H820 H 0.66948 0.21816 0.95911 0.0
H821 H 0.63809 0.33932 0.759 0.0
H822 H 0.29772 0.85478 0.73891 0.0
H823 H 0.29346 0.88689 0.71284 0.0
H824 H 0.20334 0.86579 0.73164 0.0
H825 H 0.20747 0.83371 0.75781 0.0
H826 H 0.26808 0.8877 0.6739 0.0
H827 H 0.17778 0.91212 0.73221 0.0
H828 H 0.15983 0.9113 0.77454 0.0
H829 H 0.24173 0.91219 0.79001 0.0
H830 H 0.26025 0.91335 0.74776 0.0
H831 H 0.20898 0.95556 0.60157 0.0
H832 H 0.21304 0.9266 0.63218 0.0
H833 H 0.25197 0.97498 0.67007 0.0
H834 H 0.24715 0.00392 0.6397 0.0
H835 H 0.21638 0.94144 0.70031 0.0
H836 H 0.2914 0.95084 0.63411 0.0
H837 H 0.31178 0.95349 0.59195 0.0
H838 H 0.26656 0.88794 0.59295 0.0
H839 H 0.24552 0.88503 0.63504 0.0
C840 C 0.27702 0.85716 0.73772 0.0
C841 C 0.25291 0.84179 0.75038 0.0
C842 C 0.27462 0.8754 0.72272 0.0
C843 C 0.24811 0.87872 0.7204 0.0
C844 C 0.224 0.86359 0.73334 0.0
C845 C 0.22638 0.84525 0.74816 0.0
C846 C 0.24557 0.89759 0.70378 0.0
C847 C 0.25682 0.89947 0.67967 0.0
C848 C 0.23121 0.91308 0.7114 0.0
C849 C 0.22031 0.91259 0.73684 0.0
C850 C 0.19197 0.91222 0.74464 0.0
C851 C 0.1817 0.91169 0.76862 0.0
C852 C 0.19961 0.91162 0.78497 0.0
C853 C 0.22785 0.91215 0.77735 0.0
C854 C 0.23823 0.91271 0.75339 0.0
C855 C 0.21804 0.95988 0.61664 0.0
C856 C 0.22793 0.98178 0.6184 0.0
C857 C 0.22049 0.94342 0.63401 0.0
C858 C 0.23322 0.94866 0.6532 0.0
C859 C 0.24214 0.97059 0.65539 0.0
C860 C 0.23951 0.98706 0.63808 0.0
C861 C 0.23838 0.93128 0.67035 0.0
C862 C 0.22764 0.92967 0.69455 0.0
C863 C 0.25363 0.91622 0.66286 0.0
C864 C 0.26673 0.91778 0.63769 0.0
C865 C 0.2857 0.93703 0.62532 0.0
C866 C 0.29736 0.93858 0.60143 0.0
C867 C 0.29044 0.92091 0.58977 0.0
C868 C 0.2719 0.90162 0.602 0.0
C869 C 0.26011 0.90001 0.62588 0.0
H870 H 0.29947 0.92214 0.57127 0.0
H871 H 0.19161 0.9112 0.80352 0.0
H872 H 0.72 0.73464 0.27806 0.0
H873 H 0.69603 0.73635 0.24432 0.0
H874 H 0.71275 0.80615 0.2377 0.0
H875 H 0.73818 0.80488 0.27042 0.0
H876 H 0.6537 0.78209 0.23865 0.0
H877 H 0.75007 0.79023 0.19993 0.0
H878 H 0.79469 0.77894 0.19341 0.0
H879 H 0.75233 0.71845 0.17659 0.0
H880 H 0.70735 0.72927 0.18337 0.0
H881 H 0.6132 0.81209 0.13102 0.0
H882 H 0.63898 0.80921 0.16319 0.0
H883 H 0.6449 0.7447 0.15202 0.0
H884 H 0.62105 0.74812 0.11847 0.0
H885 H 0.69167 0.76436 0.16117 0.0
H886 H 0.59646 0.75421 0.19834 0.0
H887 H 0.55007 0.76263 0.20592 0.0
H888 H 0.58666 0.82237 0.22764 0.0
H889 H 0.63338 0.81444 0.2199 0.0
C890 C 0.71906 0.75042 0.26924 0.0
C891 C 0.73107 0.76962 0.27714 0.0
C892 C 0.70512 0.75131 0.25008 0.0
C893 C 0.70259 0.77136 0.23866 0.0
C894 C 0.71433 0.79051 0.24647 0.0
C895 C 0.7287 0.78969 0.26531 0.0
C896 C 0.6877 0.77241 0.21851 0.0
C897 C 0.66206 0.77847 0.2216 0.0
C898 C 0.69826 0.7669 0.19663 0.0
C899 C 0.72531 0.76045 0.19243 0.0
C900 C 0.75022 0.77444 0.19507 0.0
C901 C 0.77559 0.76814 0.19128 0.0
C902 C 0.77633 0.74796 0.18466 0.0
C903 C 0.75172 0.73406 0.18176 0.0
C904 C 0.72629 0.74027 0.18556 0.0
C905 C 0.6204 0.79742 0.13501 0.0
C906 C 0.61487 0.78031 0.12204 0.0
C907 C 0.63479 0.79565 0.15375 0.0
C908 C 0.64336 0.77653 0.16045 0.0
C909 C 0.63833 0.75956 0.14734 0.0
C910 C 0.62434 0.76145 0.1283 0.0
C911 C 0.65756 0.77429 0.1811 0.0
C912 C 0.68309 0.76794 0.17818 0.0
C913 C 0.64657 0.77908 0.20334 0.0
C914 C 0.61847 0.78381 0.20834 0.0
C915 C 0.59465 0.7692 0.2046 0.0
C916 C 0.56829 0.77388 0.20894 0.0
C917 C 0.56543 0.79304 0.21721 0.0
C918 C 0.58892 0.80754 0.22122 0.0
C919 C 0.61534 0.80295 0.21689 0.0
H920 H 0.54501 0.79661 0.22055 0.0
H921 H 0.79599 0.74312 0.18173 0.0
H922 H 0.70173 0.21527 0.68348 0.0
H923 H 0.70563 0.18265 0.66645 0.0
H924 H 0.79484 0.20874 0.64396 0.0
H925 H 0.79077 0.24167 0.66047 0.0
H926 H 0.77366 0.19282 0.60958 0.0
H927 H 0.76714 0.16677 0.69172 0.0
H928 H 0.74709 0.15987 0.73442 0.0
H929 H 0.67095 0.12069 0.72168 0.0
H930 H 0.6904 0.12761 0.67883 0.0
H931 H 0.79795 0.09657 0.57201 0.0
H932 H 0.7992 0.1267 0.59379 0.0
H933 H 0.71061 0.1032 0.62176 0.0
H934 H 0.7097 0.07174 0.60207 0.0
H935 H 0.73447 0.11794 0.65439 0.0
H936 H 0.74216 0.14639 0.57074 0.0
H937 H 0.76451 0.15329 0.52852 0.0
H938 H 0.84107 0.18834 0.54495 0.0
H939 H 0.81931 0.18135 0.5873 0.0
C940 C 0.72215 0.21396 0.67497 0.0
C941 C 0.74601 0.23087 0.67332 0.0
C942 C 0.72441 0.19528 0.66538 0.0
C943 C 0.7506 0.19308 0.65422 0.0
C944 C 0.77444 0.21003 0.65256 0.0
C945 C 0.77215 0.22877 0.66201 0.0
C946 C 0.75296 0.1735 0.64346 0.0
C947 C 0.76543 0.17644 0.61948 0.0
C948 C 0.74191 0.15212 0.65626 0.0
C949 C 0.73015 0.14788 0.68203 0.0
C950 C 0.74604 0.15682 0.69799 0.0
C951 C 0.73479 0.15288 0.72223 0.0
C952 C 0.70774 0.13989 0.73075 0.0
C953 C 0.69189 0.13077 0.71505 0.0
C954 C 0.70303 0.13468 0.69079 0.0
C955 C 0.77878 0.0974 0.58321 0.0
C956 C 0.75363 0.0816 0.58497 0.0
C957 C 0.77946 0.11497 0.59537 0.0
C958 C 0.75483 0.11766 0.60891 0.0
C959 C 0.72988 0.10167 0.61123 0.0
C960 C 0.72932 0.08379 0.59959 0.0
C961 C 0.75479 0.13723 0.62036 0.0
C962 C 0.74274 0.13431 0.64449 0.0
C963 C 0.76642 0.15866 0.60774 0.0
C964 C 0.77919 0.16318 0.58219 0.0
C965 C 0.76379 0.15549 0.56534 0.0
C966 C 0.77637 0.15941 0.54139 0.0
C967 C 0.80423 0.17121 0.53407 0.0
C968 C 0.81952 0.17918 0.55065 0.0
C969 C 0.80708 0.17525 0.57462 0.0
H970 H 0.81404 0.17423 0.51557 0.0
H971 H 0.69907 0.13686 0.74952 0.0
H972 H 0.31252 0.2814 0.26356 0.0
H973 H 0.34888 0.28532 0.2284 0.0
H974 H 0.29799 0.31298 0.18487 0.0
H975 H 0.26166 0.30915 0.22002 0.0
H976 H 0.31951 0.28118 0.16607 0.0
H977 H 0.35346 0.34548 0.19791 0.0
H978 H 0.36776 0.36614 0.22888 0.0
H979 H 0.43237 0.3319 0.23591 0.0
H980 H 0.41819 0.31079 0.20521 0.0
H981 H 0.42255 0.31521 0.06142 0.0
H982 H 0.38799 0.31632 0.09617 0.0
H983 H 0.43907 0.29211 0.14214 0.0
H984 H 0.47385 0.2915 0.10734 0.0
H985 H 0.41739 0.32333 0.15944 0.0
H986 H 0.38347 0.25833 0.12932 0.0
H987 H 0.36987 0.23689 0.09877 0.0
H988 H 0.30554 0.27092 0.08946 0.0
H989 H 0.31911 0.29286 0.11968 0.0
C990 C 0.30932 0.28854 0.24649 0.0
C991 C 0.28461 0.29539 0.2445 0.0
C992 C 0.33003 0.29078 0.22647 0.0
C993 C 0.32626 0.29971 0.20409 0.0
C994 C 0.30136 0.30618 0.20201 0.0
C995 C 0.28072 0.30407 0.22206 0.0
C996 C 0.34801 0.30179 0.18278 0.0
C997 C 0.3408 0.29068 0.16443 0.0
C998 C 0.37596 0.31369 0.181 0.0
C999 C 0.38458 0.3264 0.19942 0.0
C1000 C 0.37056 0.34222 0.2062 0.0
C1001 C 0.37868 0.35404 0.22368 0.0
C1002 C 0.40091 0.3503 0.2344 0.0
C1003 C 0.41512 0.33476 0.22761 0.0
C1004 C 0.40707 0.32288 0.21016 0.0
C1005 C 0.4264 0.31041 0.079 0.0
C1006 C 0.45061 0.30326 0.08194 0.0
C1007 C 0.4067 0.31093 0.09878 0.0
C1008 C 0.4108 0.30402 0.12174 0.0
C1009 C 0.43549 0.2975 0.12461 0.0
C1010 C 0.45524 0.29708 0.10483 0.0
C1011 C 0.38887 0.30276 0.1427 0.0
C1012 C 0.39606 0.31394 0.16101 0.0
C1013 C 0.36094 0.29076 0.14457 0.0
C1014 C 0.35249 0.27739 0.1266 0.0
C1015 C 0.36656 0.26135 0.12064 0.0
C1016 C 0.35884 0.2491 0.10339 0.0
C1017 C 0.33689 0.25257 0.09214 0.0
C1018 C 0.32256 0.26827 0.09817 0.0
C1019 C 0.33025 0.28062 0.11536 0.0
H1020 H 0.33094 0.24306 0.07879 0.0
H1021 H 0.40716 0.35947 0.24792 0.0
H1022 H 0.8231 0.71567 0.7062 0.0
H1023 H 0.85614 0.69257 0.69966 0.0
H1024 H 0.87099 0.69326 0.77097 0.0
H1025 H 0.8379 0.71645 0.77753 0.0
H1026 H 0.91991 0.69886 0.73847 0.0
H1027 H 0.82839 0.64996 0.75888 0.0
H1028 H 0.77927 0.63611 0.7552 0.0
H1029 H 0.80642 0.6274 0.68383 0.0
H1030 H 0.85571 0.64149 0.68698 0.0
H1031 H 0.98268 0.60937 0.75089 0.0
H1032 H 0.95249 0.63464 0.75537 0.0
H1033 H 0.93278 0.62833 0.68632 0.0
H1034 H 0.96184 0.60213 0.6822 0.0
H1035 H 0.88688 0.62634 0.71676 0.0
H1036 H 0.9785 0.67423 0.69633 0.0
H1037 H 0.02773 0.68782 0.69985 0.0
H1038 H 0.00099 0.69862 0.77046 0.0
H1039 H 0.95158 0.68481 0.76748 0.0
C1040 C 0.83354 0.71097 0.72041 0.0
C1041 C 0.82802 0.71777 0.74238 0.0
C1042 C 0.85232 0.69774 0.71669 0.0
C1043 C 0.86582 0.69105 0.73491 0.0
C1044 C 0.8608 0.69825 0.75669 0.0
C1045 C 0.84193 0.71141 0.76044 0.0
C1046 C 0.88468 0.67612 0.73141 0.0
C1047 C 0.91266 0.6829 0.73398 0.0
C1048 C 0.87533 0.65552 0.725 0.0
C1049 C 0.84571 0.647 0.72309 0.0
C1050 C 0.82387 0.64526 0.74234 0.0
C1051 C 0.796 0.63734 0.74036 0.0
C1052 C 0.78972 0.63094 0.71927 0.0
C1053 C 0.81131 0.6324 0.70014 0.0
C1054 C 0.83922 0.64034 0.70202 0.0
C1055 C 0.97174 0.61317 0.73672 0.0
C1056 C 0.97469 0.60365 0.71619 0.0
C1057 C 0.95475 0.62788 0.73919 0.0
C1058 C 0.94065 0.63365 0.72105 0.0
C1059 C 0.94355 0.6242 0.70052 0.0
C1060 C 0.9604 0.60937 0.6981 0.0
C1061 C 0.92224 0.64904 0.72378 0.0
C1062 C 0.89427 0.64233 0.72111 0.0
C1063 C 0.93166 0.66974 0.73001 0.0
C1064 C 0.96134 0.67831 0.73175 0.0
C1065 C 0.98312 0.67938 0.71266 0.0
C1066 C 0.01106 0.68714 0.71455 0.0
C1067 C 0.01748 0.69403 0.73539 0.0
C1068 C 0.99598 0.69325 0.75434 0.0
C1069 C 0.968 0.68549 0.75255 0.0
H1070 H 0.03913 0.70001 0.73682 0.0
H1071 H 0.76813 0.6248 0.71778 0.0
H1072 H 0.77222 0.298 0.3671 0.0
H1073 H 0.79964 0.33103 0.37726 0.0
H1074 H 0.83439 0.35498 0.30322 0.0
H1075 H 0.8075 0.32182 0.29297 0.0
H1076 H 0.87444 0.36036 0.32995 0.0
H1077 H 0.78391 0.37535 0.33093 0.0
H1078 H 0.73253 0.36816 0.3427 0.0
H1079 H 0.74021 0.36797 0.41549 0.0
H1080 H 0.79165 0.37486 0.40419 0.0
H1081 H 0.89867 0.47728 0.35654 0.0
H1082 H 0.86572 0.44508 0.34959 0.0
H1083 H 0.9099 0.40347 0.38527 0.0
H1084 H 0.94319 0.43554 0.39147 0.0
H1085 H 0.8296 0.40829 0.37599 0.0
H1086 H 0.91688 0.36319 0.35419 0.0
H1087 H 0.9682 0.37183 0.34098 0.0
H1088 H 0.96662 0.43481 0.30543 0.0
H1089 H 0.91524 0.42643 0.31813 0.0
C1090 C 0.78585 0.31024 0.353 0.0
C1091 C 0.78767 0.30732 0.32922 0.0
C1092 C 0.80131 0.32918 0.35882 0.0
C1093 C 0.81885 0.34554 0.34097 0.0
C1094 C 0.82092 0.34258 0.31725 0.0
C1095 C 0.80539 0.3237 0.31142 0.0
C1096 C 0.83536 0.36565 0.34702 0.0
C1097 C 0.86462 0.37082 0.34002 0.0
C1098 C 0.82252 0.37945 0.3599 0.0
C1099 C 0.79161 0.37542 0.36674 0.0
C1100 C 0.77463 0.37361 0.34947 0.0
C1101 C 0.7455 0.36961 0.35605 0.0
C1102 C 0.73311 0.36755 0.37983 0.0
C1103 C 0.74984 0.36954 0.39708 0.0
C1104 C 0.77898 0.37351 0.39059 0.0
C1105 C 0.90077 0.46119 0.36334 0.0
C1106 C 0.92314 0.45874 0.37468 0.0
C1107 C 0.88205 0.44286 0.35939 0.0
C1108 C 0.88563 0.42191 0.36663 0.0
C1109 C 0.90699 0.41949 0.37927 0.0
C1110 C 0.9258 0.43776 0.38301 0.0
C1111 C 0.86866 0.40273 0.35928 0.0
C1112 C 0.83937 0.39777 0.36598 0.0
C1113 C 0.88143 0.38927 0.3458 0.0
C1114 C 0.91223 0.39422 0.33729 0.0
C1115 C 0.92746 0.37882 0.34341 0.0
C1116 C 0.95657 0.38369 0.33605 0.0
C1117 C 0.97068 0.40389 0.32244 0.0
C1118 C 0.95568 0.4192 0.31604 0.0
C1119 C 0.92656 0.4144 0.32332 0.0
H1120 H 0.99322 0.40765 0.31683 0.0
H1121 H 0.71055 0.36446 0.38489 0.0
H1122 H 0.27335 0.35525 0.71739 0.0
H1123 H 0.25171 0.38602 0.71099 0.0
H1124 H 0.1709 0.3414 0.71926 0.0
H1125 H 0.19274 0.31063 0.72478 0.0
H1126 H 0.17508 0.37305 0.68532 0.0
H1127 H 0.19261 0.36891 0.76463 0.0
H1128 H 0.22098 0.36759 0.79587 0.0
H1129 H 0.27324 0.43044 0.76351 0.0
H1130 H 0.2454 0.432 0.73187 0.0
H1131 H 0.08668 0.4419 0.71937 0.0
H1132 H 0.11331 0.41399 0.72005 0.0
H1133 H 0.18999 0.4631 0.69313 0.0
H1134 H 0.1634 0.49125 0.69126 0.0
H1135 H 0.19027 0.43119 0.73433 0.0
H1136 H 0.16822 0.43502 0.65615 0.0
H1137 H 0.13674 0.43531 0.62723 0.0
H1138 H 0.08907 0.37135 0.66082 0.0
H1139 H 0.12003 0.37081 0.69018 0.0
C1140 C 0.25098 0.35208 0.71777 0.0
C1141 C 0.23464 0.33063 0.72169 0.0
C1142 C 0.23861 0.36964 0.71421 0.0
C1143 C 0.20956 0.36606 0.7151 0.0
C1144 C 0.19333 0.3446 0.71852 0.0
C1145 C 0.20579 0.32703 0.72168 0.0
C1146 C 0.19597 0.38463 0.71277 0.0
C1147 C 0.17824 0.38562 0.69622 0.0
C1148 C 0.20041 0.40131 0.72668 0.0
C1149 C 0.21711 0.40047 0.74574 0.0
C1150 C 0.21028 0.38238 0.76408 0.0
C1151 C 0.22625 0.3816 0.78187 0.0
C1152 C 0.24895 0.39889 0.78164 0.0
C1153 C 0.25568 0.41704 0.76365 0.0
C1154 C 0.23981 0.41789 0.74578 0.0
C1155 C 0.10914 0.44685 0.71316 0.0
C1156 C 0.12279 0.4689 0.705 0.0
C1157 C 0.12433 0.43084 0.71375 0.0
C1158 C 0.15353 0.43651 0.70648 0.0
C1159 C 0.16742 0.45846 0.69881 0.0
C1160 C 0.15218 0.47451 0.69789 0.0
C1161 C 0.16936 0.41937 0.7071 0.0
C1162 C 0.18741 0.41866 0.72334 0.0
C1163 C 0.16483 0.40274 0.69324 0.0
C1164 C 0.14631 0.40296 0.67549 0.0
C1165 C 0.15089 0.42109 0.65749 0.0
C1166 C 0.13316 0.42129 0.641 0.0
C1167 C 0.11088 0.40338 0.64222 0.0
C1168 C 0.10632 0.38522 0.65991 0.0
C1169 C 0.12397 0.38495 0.67646 0.0
H1170 H 0.09718 0.40357 0.62943 0.0
H1171 H 0.26128 0.39826 0.79544 0.0
H1172 H 0.2523 0.73506 0.35319 0.0
H1173 H 0.2192 0.69997 0.35679 0.0
H1174 H 0.15026 0.73124 0.36452 0.0
H1175 H 0.18335 0.76646 0.36106 0.0
H1176 H 0.13865 0.69399 0.3956 0.0
H1177 H 0.17298 0.7159 0.31215 0.0
H1178 H 0.20916 0.72892 0.27588 0.0
H1179 H 0.241 0.672 0.28965 0.0
H1180 H 0.20525 0.65879 0.32621 0.0
H1181 H 0.03816 0.60305 0.37472 0.0
H1182 H 0.06873 0.63946 0.37199 0.0
H1183 H 0.14101 0.61181 0.36683 0.0
H1184 H 0.11042 0.57554 0.36947 0.0
H1185 H 0.14932 0.64803 0.3336 0.0
H1186 H 0.11535 0.62661 0.41755 0.0
H1187 H 0.07904 0.61372 0.45373 0.0
H1188 H 0.04609 0.66989 0.43865 0.0
H1189 H 0.08194 0.68294 0.40213 0.0
C1190 C 0.23011 0.73449 0.35548 0.0
C1191 C 0.22044 0.75355 0.35666 0.0
C1192 C 0.2112 0.71442 0.35757 0.0
C1193 C 0.18227 0.71302 0.36058 0.0
C1194 C 0.1725 0.73195 0.36218 0.0
C1195 C 0.19141 0.75204 0.36022 0.0
C1196 C 0.16229 0.69178 0.36192 0.0
C1197 C 0.14071 0.68408 0.38187 0.0
C1198 C 0.16527 0.67869 0.3442 0.0
C1199 C 0.18657 0.68645 0.32203 0.0
C1200 C 0.18781 0.70623 0.30752 0.0
C1201 C 0.20823 0.71364 0.2869 0.0
C1202 C 0.22742 0.70133 0.28049 0.0
C1203 C 0.22615 0.68154 0.29465 0.0
C1204 C 0.20579 0.67407 0.31531 0.0
C1205 C 0.06058 0.6049 0.37306 0.0
C1206 C 0.07218 0.5868 0.37211 0.0
C1207 C 0.07798 0.62558 0.37156 0.0
C1208 C 0.10714 0.62831 0.36926 0.0
C1209 C 0.11861 0.61007 0.36849 0.0
C1210 C 0.10123 0.58944 0.37005 0.0
C1211 C 0.12586 0.65017 0.36736 0.0
C1212 C 0.14719 0.65799 0.34727 0.0
C1213 C 0.12257 0.66337 0.38491 0.0
C1214 C 0.10115 0.65564 0.40697 0.0
C1215 C 0.10022 0.63613 0.42184 0.0
C1216 C 0.07974 0.6288 0.44242 0.0
C1217 C 0.06023 0.64095 0.44846 0.0
C1218 C 0.0612 0.66048 0.43394 0.0
C1219 C 0.0816 0.66786 0.4133 0.0
H1220 H 0.04439 0.63525 0.46441 0.0
H1221 H 0.24323 0.70711 0.26454 0.0
H1222 H 0.77776 0.79264 0.69953 0.0
H1223 H 0.77225 0.8206 0.66863 0.0
H1224 H 0.78842 0.86874 0.71375 0.0
H1225 H 0.79371 0.84085 0.74472 0.0
H1226 H 0.74442 0.87242 0.69441 0.0
H1227 H 0.83797 0.86568 0.66604 0.0
H1228 H 0.87409 0.84616 0.65368 0.0
H1229 H 0.83166 0.82575 0.59837 0.0
H1230 H 0.79507 0.84492 0.61061 0.0
H1231 H 0.77115 0.96932 0.61091 0.0
H1232 H 0.77585 0.93938 0.64006 0.0
H1233 H 0.75367 0.89416 0.59295 0.0
H1234 H 0.74915 0.92425 0.56376 0.0
H1235 H 0.79888 0.88769 0.61228 0.0
H1236 H 0.70655 0.89592 0.63952 0.0
H1237 H 0.67096 0.916 0.65147 0.0
H1238 H 0.71123 0.93378 0.70885 0.0
H1239 H 0.74739 0.91411 0.69698 0.0
C1240 C 0.78047 0.80924 0.70272 0.0
C1241 C 0.78615 0.81456 0.72455 0.0
C1242 C 0.77729 0.8252 0.68507 0.0
C1243 C 0.78011 0.84682 0.6888 0.0
C1244 C 0.78603 0.85216 0.71051 0.0
C1245 C 0.78903 0.83621 0.72819 0.0
C1246 C 0.77633 0.86385 0.67036 0.0
C1247 C 0.75659 0.87592 0.67654 0.0
C1248 C 0.7916 0.86802 0.64683 0.0
C1249 C 0.81363 0.85654 0.63941 0.0
C1250 C 0.83623 0.85689 0.65136 0.0
C1251 C 0.8568 0.84591 0.64435 0.0
C1252 C 0.85513 0.83467 0.62529 0.0
C1253 C 0.83291 0.83444 0.61315 0.0
C1254 C 0.81226 0.84537 0.62011 0.0
C1255 C 0.76726 0.95294 0.60694 0.0
C1256 C 0.75976 0.94885 0.58535 0.0
C1257 C 0.76987 0.9359 0.62351 0.0
C1258 C 0.76487 0.91452 0.61873 0.0
C1259 C 0.75759 0.91052 0.59697 0.0
C1260 C 0.75492 0.92759 0.58042 0.0
C1261 C 0.7673 0.89641 0.63648 0.0
C1262 C 0.78669 0.88411 0.63015 0.0
C1263 C 0.75172 0.89204 0.65988 0.0
C1264 C 0.72983 0.90369 0.66723 0.0
C1265 C 0.70795 0.90424 0.65458 0.0
C1266 C 0.68765 0.91554 0.66135 0.0
C1267 C 0.68886 0.92619 0.68088 0.0
C1268 C 0.71034 0.92553 0.69371 0.0
C1269 C 0.73073 0.9143 0.68698 0.0
H1270 H 0.67313 0.93493 0.6861 0.0
H1271 H 0.87108 0.82618 0.61989 0.0
H1272 H 0.69851 0.2477 0.24905 0.0
H1273 H 0.6817 0.25375 0.21166 0.0
H1274 H 0.66365 0.31376 0.22861 0.0
H1275 H 0.68039 0.30771 0.26597 0.0
H1276 H 0.62006 0.28844 0.21439 0.0
H1277 H 0.719 0.31511 0.18669 0.0
H1278 H 0.76869 0.31366 0.18157 0.0
H1279 H 0.75142 0.25879 0.14589 0.0
H1280 H 0.70152 0.25971 0.1511 0.0
H1281 H 0.58787 0.32435 0.10402 0.0
H1282 H 0.61173 0.32293 0.13776 0.0
H1283 H 0.63329 0.26366 0.12213 0.0
H1284 H 0.61039 0.26541 0.08775 0.0
H1285 H 0.67624 0.29006 0.13528 0.0
H1286 H 0.57741 0.26206 0.16457 0.0
H1287 H 0.52752 0.26294 0.16973 0.0
H1288 H 0.5444 0.31955 0.20277 0.0
H1289 H 0.59451 0.31919 0.19749 0.0
C1290 C 0.69117 0.26225 0.2446 0.0
C1291 C 0.69082 0.27729 0.26023 0.0
C1292 C 0.68167 0.26573 0.22329 0.0
C1293 C 0.67166 0.28431 0.21729 0.0
C1294 C 0.67135 0.29936 0.23289 0.0
C1295 C 0.68095 0.29592 0.25416 0.0
C1296 C 0.66042 0.28757 0.19521 0.0
C1297 C 0.63249 0.28916 0.19705 0.0
C1298 C 0.67644 0.28794 0.17268 0.0
C1299 C 0.70645 0.28735 0.16949 0.0
C1300 C 0.72574 0.30261 0.17793 0.0
C1301 C 0.75396 0.30191 0.17498 0.0
C1302 C 0.76319 0.28611 0.16346 0.0
C1303 C 0.74423 0.27101 0.15483 0.0
C1304 C 0.71598 0.27162 0.15776 0.0
C1305 C 0.59813 0.31123 0.10746 0.0
C1306 C 0.59705 0.2949 0.09327 0.0
C1307 C 0.61154 0.31033 0.1269 0.0
C1308 C 0.62388 0.293 0.13268 0.0
C1309 C 0.62376 0.27712 0.11806 0.0
C1310 C 0.61043 0.27804 0.09856 0.0
C1311 C 0.6359 0.29093 0.1545 0.0
C1312 C 0.6639 0.28948 0.15262 0.0
C1313 C 0.61991 0.29058 0.17705 0.0
C1314 C 0.58976 0.29073 0.18042 0.0
C1315 C 0.57052 0.27479 0.17278 0.0
C1316 C 0.5422 0.27518 0.17574 0.0
C1317 C 0.53281 0.29132 0.18651 0.0
C1318 C 0.55172 0.30707 0.1944 0.0
C1319 C 0.58008 0.30678 0.19144 0.0
H1320 H 0.51088 0.2916 0.18879 0.0
H1321 H 0.78505 0.2856 0.16118 0.0
H1322 H 0.29491 0.26094 0.69358 0.0
H1323 H 0.28743 0.23027 0.67189 0.0
H1324 H 0.19798 0.22079 0.69255 0.0
H1325 H 0.20537 0.25185 0.71381 0.0
H1326 H 0.22361 0.18157 0.70015 0.0
H1327 H 0.21825 0.24092 0.64137 0.0
H1328 H 0.23541 0.27756 0.61725 0.0
H1329 H 0.31048 0.26048 0.5868 0.0
H1330 H 0.29395 0.22382 0.61104 0.0
H1331 H 0.18745 0.10169 0.62901 0.0
H1332 H 0.18943 0.13301 0.64916 0.0
H1333 H 0.27358 0.16152 0.61048 0.0
H1334 H 0.27092 0.13123 0.5888 0.0
H1335 H 0.24791 0.19172 0.61247 0.0
H1336 H 0.25735 0.13448 0.67065 0.0
H1337 H 0.24438 0.09817 0.69564 0.0
H1338 H 0.16732 0.11106 0.72826 0.0
H1339 H 0.17968 0.14736 0.70323 0.0
C1340 C 0.27369 0.25231 0.69341 0.0
C1341 C 0.2507 0.25868 0.70526 0.0
C1342 C 0.26945 0.23489 0.68104 0.0
C1343 C 0.24217 0.22338 0.68067 0.0
C1344 C 0.21916 0.22955 0.69268 0.0
C1345 C 0.22339 0.24727 0.70467 0.0
C1346 C 0.23786 0.20478 0.66782 0.0
C1347 C 0.22844 0.1837 0.68096 0.0
C1348 C 0.24508 0.20771 0.64289 0.0
C1349 C 0.25498 0.2297 0.62821 0.0
C1350 C 0.23854 0.24504 0.62971 0.0
C1351 C 0.24812 0.2658 0.61597 0.0
C1352 C 0.27405 0.27137 0.60055 0.0
C1353 C 0.29042 0.25616 0.59878 0.0
C1354 C 0.28094 0.23538 0.6125 0.0
C1355 C 0.20625 0.11475 0.62446 0.0
C1356 C 0.22909 0.11374 0.60728 0.0
C1357 C 0.2075 0.13255 0.63631 0.0
C1358 C 0.23187 0.14949 0.63173 0.0
C1359 C 0.25458 0.14863 0.61446 0.0
C1360 C 0.25315 0.13107 0.60228 0.0
C1361 C 0.23378 0.16821 0.64474 0.0
C1362 C 0.24284 0.18941 0.63165 0.0
C1363 C 0.22678 0.16534 0.6698 0.0
C1364 C 0.2193 0.14353 0.68488 0.0
C1365 C 0.23754 0.1295 0.68303 0.0
C1366 C 0.23032 0.10894 0.69722 0.0
C1367 C 0.20501 0.10228 0.71348 0.0
C1368 C 0.1869 0.11621 0.71563 0.0
C1369 C 0.19401 0.13679 0.70145 0.0
H1370 H 0.19945 0.08636 0.72445 0.0
H1371 H 0.28144 0.28745 0.58992 0.0
H1372 H 0.30798 0.82349 0.24928 0.0
H1373 H 0.34155 0.8173 0.21688 0.0
H1374 H 0.39089 0.79731 0.26688 0.0
H1375 H 0.35778 0.80424 0.29929 0.0
H1376 H 0.42397 0.82285 0.22966 0.0
H1377 H 0.34909 0.75975 0.24101 0.0
H1378 H 0.30011 0.73893 0.24594 0.0
H1379 H 0.29557 0.76917 0.17646 0.0
H1380 H 0.3444 0.79042 0.17124 0.0
H1381 H 0.50734 0.78358 0.13961 0.0
H1382 H 0.4759 0.78544 0.17614 0.0
H1383 H 0.42188 0.81097 0.13421 0.0
H1384 H 0.45304 0.80876 0.09789 0.0
H1385 H 0.39231 0.77904 0.16994 0.0
H1386 H 0.46761 0.84363 0.16051 0.0
H1387 H 0.51696 0.86333 0.15638 0.0
H1388 H 0.52103 0.82834 0.22372 0.0
H1389 H 0.47186 0.80807 0.22802 0.0
C1390 C 0.32582 0.81752 0.25336 0.0
C1391 C 0.32977 0.81366 0.27686 0.0
C1392 C 0.34496 0.81393 0.23486 0.0
C1393 C 0.36842 0.80631 0.23948 0.0
C1394 C 0.37279 0.80294 0.26291 0.0
C1395 C 0.35374 0.80673 0.28143 0.0
C1396 C 0.38864 0.80246 0.2197 0.0
C1397 C 0.41712 0.81295 0.21684 0.0
C1398 C 0.37971 0.7897 0.20283 0.0
C1399 C 0.35037 0.7768 0.20581 0.0
C1400 C 0.3376 0.76207 0.22684 0.0
C1401 C 0.30986 0.75017 0.22968 0.0
C1402 C 0.29472 0.75275 0.21154 0.0
C1403 C 0.30731 0.76719 0.1905 0.0
C1404 C 0.33503 0.77915 0.18758 0.0
C1405 C 0.48884 0.78974 0.13838 0.0
C1406 C 0.48268 0.79642 0.11618 0.0
C1407 C 0.47095 0.79081 0.15913 0.0
C1408 C 0.44669 0.79855 0.15788 0.0
C1409 C 0.4405 0.805 0.13559 0.0
C1410 C 0.45832 0.80391 0.11491 0.0
C1411 C 0.42745 0.79982 0.17966 0.0
C1412 C 0.39916 0.78877 0.18291 0.0
C1413 C 0.43663 0.81186 0.197 0.0
C1414 C 0.46614 0.82415 0.19446 0.0
C1415 C 0.4791 0.83998 0.17434 0.0
C1416 C 0.50704 0.85126 0.17197 0.0
C1417 C 0.52216 0.847 0.18972 0.0
C1418 C 0.50934 0.83153 0.20993 0.0
C1419 C 0.48144 0.82014 0.21234 0.0
H1420 H 0.54379 0.85576 0.18787 0.0
H1421 H 0.27325 0.74354 0.21378 0.0
H1422 H 0.76072 0.21042 0.31409 0.0
H1423 H 0.75708 0.17487 0.33773 0.0
H1424 H 0.73716 0.20069 0.40178 0.0
H1425 H 0.74148 0.23633 0.37822 0.0
H1426 H 0.77347 0.17778 0.40697 0.0
H1427 H 0.68677 0.16624 0.37835 0.0
H1428 H 0.65686 0.16582 0.34814 0.0
H1429 H 0.69617 0.12017 0.31629 0.0
H1430 H 0.7266 0.12054 0.34613 0.0
H1431 H 0.72533 0.08022 0.48871 0.0
H1432 H 0.72416 0.11333 0.46248 0.0
H1433 H 0.75492 0.08672 0.40172 0.0
H1434 H 0.75567 0.05341 0.42806 0.0
H1435 H 0.7138 0.10914 0.3937 0.0
H1436 H 0.79909 0.12015 0.42518 0.0
H1437 H 0.82639 0.12039 0.45725 0.0
H1438 H 0.78706 0.16789 0.48509 0.0
H1439 H 0.759 0.16742 0.45372 0.0
C1440 C 0.75542 0.20843 0.33321 0.0
C1441 C 0.75141 0.22611 0.34434 0.0
C1442 C 0.75324 0.1881 0.34671 0.0
C1443 C 0.74648 0.18499 0.37156 0.0
C1444 C 0.74244 0.20267 0.38265 0.0
C1445 C 0.74496 0.22304 0.36919 0.0
C1446 C 0.74439 0.16353 0.38614 0.0
C1447 C 0.76012 0.16284 0.40422 0.0
C1448 C 0.7275 0.1439 0.38224 0.0
C1449 C 0.70916 0.14359 0.36433 0.0
C1450 C 0.68919 0.15624 0.3648 0.0
C1451 C 0.67212 0.15599 0.34776 0.0
C1452 C 0.67467 0.14302 0.33027 0.0
C1453 C 0.69425 0.13023 0.32983 0.0
C1454 C 0.7114 0.13044 0.34681 0.0
C1455 C 0.73143 0.08142 0.46972 0.0
C1456 C 0.74077 0.06455 0.46025 0.0
C1457 C 0.73084 0.10026 0.45479 0.0
C1458 C 0.73983 0.10258 0.43019 0.0
C1459 C 0.74795 0.08526 0.42065 0.0
C1460 C 0.74848 0.06636 0.43561 0.0
C1461 C 0.74248 0.12359 0.41469 0.0
C1462 C 0.72708 0.12414 0.39637 0.0
C1463 C 0.75944 0.14317 0.4185 0.0
C1464 C 0.77674 0.14361 0.4372 0.0
C1465 C 0.7961 0.1305 0.43828 0.0
C1466 C 0.81171 0.13065 0.45638 0.0
C1467 C 0.80842 0.14407 0.47331 0.0
C1468 C 0.78957 0.1574 0.47212 0.0
C1469 C 0.77378 0.15718 0.45418 0.0
H1470 H 0.82053 0.1442 0.4873 0.0
H1471 H 0.66143 0.14285 0.3171 0.0
H1472 H 0.29249 0.31704 0.81349 0.0
H1473 H 0.32563 0.32022 0.84082 0.0
H1474 H 0.34283 0.25877 0.82822 0.0
H1475 H 0.30938 0.25549 0.80114 0.0
H1476 H 0.33347 0.26044 0.87468 0.0
H1477 H 0.39011 0.30655 0.80445 0.0
H1478 H 0.40182 0.33647 0.77034 0.0
H1479 H 0.39676 0.38264 0.81753 0.0
H1480 H 0.38462 0.35294 0.85194 0.0
H1481 H 0.4532 0.2664 0.92767 0.0
H1482 H 0.42269 0.2654 0.89845 0.0
H1483 H 0.40175 0.32435 0.91584 0.0
H1484 H 0.43176 0.32523 0.94559 0.0
H1485 H 0.41315 0.32437 0.86711 0.0
H1486 H 0.35618 0.278 0.93724 0.0
H1487 H 0.34485 0.24798 0.97122 0.0
H1488 H 0.3509 0.20216 0.92374 0.0
H1489 H 0.3627 0.23197 0.88947 0.0
C1490 C 0.30339 0.30426 0.81663 0.0
C1491 C 0.29813 0.28584 0.80566 0.0
C1492 C 0.32241 0.30613 0.83208 0.0
C1493 C 0.33677 0.28975 0.83649 0.0
C1494 C 0.33188 0.27153 0.82515 0.0
C1495 C 0.31285 0.26967 0.80972 0.0
C1496 C 0.35621 0.29126 0.85352 0.0
C1497 C 0.35114 0.27428 0.87281 0.0
C1498 C 0.37882 0.30958 0.85142 0.0
C1499 C 0.38617 0.32749 0.83077 0.0
C1500 C 0.39126 0.32306 0.80755 0.0
C1501 C 0.39802 0.33999 0.78817 0.0
C1502 C 0.39996 0.36144 0.79177 0.0
C1503 C 0.39521 0.36601 0.81477 0.0
C1504 C 0.38841 0.34914 0.83422 0.0
C1505 C 0.44191 0.27905 0.92549 0.0
C1506 C 0.44474 0.29579 0.93916 0.0
C1507 C 0.42461 0.27852 0.90867 0.0
C1508 C 0.40979 0.29469 0.90516 0.0
C1509 C 0.41306 0.31173 0.91829 0.0
C1510 C 0.43028 0.31223 0.93522 0.0
C1511 C 0.39044 0.29351 0.88811 0.0
C1512 C 0.3955 0.31055 0.86889 0.0
C1513 C 0.36782 0.27523 0.89022 0.0
C1514 C 0.3606 0.25725 0.9108 0.0
C1515 C 0.35533 0.26155 0.93405 0.0
C1516 C 0.34878 0.24456 0.95336 0.0
C1517 C 0.34723 0.22318 0.94964 0.0
C1518 C 0.35215 0.21873 0.9266 0.0
C1519 C 0.35875 0.23566 0.90722 0.0
H1520 H 0.34215 0.21005 0.96462 0.0
H1521 H 0.4052 0.37452 0.77674 0.0
H1522 H 0.2919 0.83297 0.39067 0.0
H1523 H 0.28344 0.85994 0.4155 0.0
H1524 H 0.1978 0.84878 0.40515 0.0
H1525 H 0.20628 0.82202 0.37991 0.0
H1526 H 0.2235 0.89226 0.39866 0.0
H1527 H 0.21132 0.82897 0.45716 0.0
H1528 H 0.22427 0.79698 0.47695 0.0
H1529 H 0.29771 0.83838 0.49148 0.0
H1530 H 0.28542 0.87061 0.47146 0.0
H1531 H 0.18466 0.95683 0.48327 0.0
H1532 H 0.18628 0.92628 0.46213 0.0
H1533 H 0.27022 0.92814 0.47403 0.0
H1534 H 0.26821 0.95782 0.49628 0.0
H1535 H 0.24152 0.8877 0.48077 0.0
H1536 H 0.25636 0.95039 0.42005 0.0
H1537 H 0.24494 0.98274 0.39944 0.0
H1538 H 0.1683 0.94299 0.38827 0.0
H1539 H 0.1791 0.91043 0.40911 0.0
C1540 C 0.27129 0.83629 0.39365 0.0
C1541 C 0.24975 0.82538 0.38335 0.0
C1542 C 0.26642 0.85156 0.40799 0.0
C1543 C 0.23992 0.85621 0.41233 0.0
C1544 C 0.21837 0.84536 0.40208 0.0
C1545 C 0.22318 0.82998 0.38782 0.0
C1546 C 0.23505 0.87285 0.42704 0.0
C1547 C 0.22696 0.8911 0.41676 0.0
C1548 C 0.24018 0.87153 0.45046 0.0
C1549 C 0.24756 0.85219 0.46263 0.0
C1550 C 0.23035 0.83124 0.46441 0.0
C1551 C 0.23755 0.81307 0.4757 0.0
C1552 C 0.26183 0.81564 0.48542 0.0
C1553 C 0.27892 0.83641 0.48392 0.0
C1554 C 0.27183 0.85464 0.47263 0.0
C1555 C 0.20334 0.95057 0.48167 0.0
C1556 C 0.22639 0.95994 0.49136 0.0
C1557 C 0.20434 0.93324 0.46934 0.0
C1558 C 0.22855 0.92512 0.46615 0.0
C1559 C 0.25137 0.93418 0.47615 0.0
C1560 C 0.2503 0.95135 0.48864 0.0
C1561 C 0.23034 0.90731 0.45229 0.0
C1562 C 0.23784 0.8888 0.46273 0.0
C1563 C 0.22487 0.90847 0.42895 0.0
C1564 C 0.21839 0.92802 0.41636 0.0
C1565 C 0.23697 0.94858 0.41336 0.0
C1566 C 0.23063 0.96695 0.40161 0.0
C1567 C 0.20587 0.96493 0.39261 0.0
C1568 C 0.18744 0.94453 0.39529 0.0
C1569 C 0.19367 0.92611 0.40705 0.0
H1570 H 0.201 0.97917 0.38352 0.0
H1571 H 0.26737 0.80155 0.49416 0.0
H1572 H 0.79394 0.77424 0.8277 0.0
H1573 H 0.76811 0.77359 0.86754 0.0
H1574 H 0.69641 0.78342 0.83793 0.0
H1575 H 0.72207 0.78419 0.79826 0.0
H1576 H 0.70658 0.80977 0.86882 0.0
H1577 H 0.69942 0.73332 0.86701 0.0
H1578 H 0.71781 0.70086 0.86237 0.0
H1579 H 0.76194 0.71117 0.91955 0.0
H1580 H 0.74409 0.74389 0.92431 0.0
H1581 H 0.59176 0.77747 0.96178 0.0
H1582 H 0.62581 0.7766 0.92675 0.0
H1583 H 0.68993 0.77762 0.96923 0.0
H1584 H 0.65556 0.77854 0.00451 0.0
H1585 H 0.68942 0.74776 0.93484 0.0
H1586 H 0.69159 0.82249 0.93891 0.0
H1587 H 0.67042 0.85356 0.94401 0.0
H1588 H 0.63395 0.84561 0.8823 0.0
H1589 H 0.65448 0.81422 0.87706 0.0
C1590 C 0.77259 0.77607 0.82977 0.0
C1591 C 0.76008 0.77938 0.80986 0.0
C1592 C 0.75787 0.77572 0.85251 0.0
C1593 C 0.73028 0.77839 0.85573 0.0
C1594 C 0.71773 0.78148 0.83587 0.0
C1595 C 0.73244 0.78196 0.8132 0.0
C1596 C 0.71435 0.77834 0.87964 0.0
C1597 C 0.70274 0.79614 0.88318 0.0
C1598 C 0.71 0.76086 0.89865 0.0
C1599 C 0.7207 0.74119 0.89582 0.0
C1600 C 0.71323 0.72877 0.87846 0.0
C1601 C 0.72352 0.71031 0.87583 0.0
C1602 C 0.74111 0.704 0.8906 0.0
C1603 C 0.74837 0.71611 0.90808 0.0
C1604 C 0.73816 0.7346 0.91076 0.0
C1605 C 0.61305 0.7772 0.96361 0.0
C1606 C 0.62125 0.77799 0.98562 0.0
C1607 C 0.63244 0.77676 0.94369 0.0
C1608 C 0.66038 0.7772 0.94542 0.0
C1609 C 0.66843 0.77723 0.96761 0.0
C1610 C 0.64894 0.77779 0.98763 0.0
C1611 C 0.68117 0.77888 0.92363 0.0
C1612 C 0.6937 0.76149 0.92053 0.0
C1613 C 0.6863 0.79668 0.90493 0.0
C1614 C 0.67445 0.81589 0.90768 0.0
C1615 C 0.67893 0.82727 0.9265 0.0
C1616 C 0.66705 0.84495 0.92941 0.0
C1617 C 0.65082 0.85153 0.91351 0.0
C1618 C 0.64652 0.84049 0.89461 0.0
C1619 C 0.6583 0.82276 0.89164 0.0
H1620 H 0.64161 0.8652 0.91581 0.0
H1621 H 0.74904 0.68969 0.88855 0.0
loop_
_geom_bond_atom_site_label_1
_geom_bond_atom_site_label_2
_geom_bond_distance
_geom_bond_site_symmetry_2
_ccdc_geom_bond_type
H0 C7 0.929 . S
H1 C10 0.930 . S
H2 C12 0.929 . S
H3 C4 0.969 . S
C4 H3 0.969 . S
C4 O5 1.550 . S
C4 H6 0.973 . S
O5 C4 1.550 . S
O5 C11 1.412 . S
H6 C4 0.973 . S
C7 H0 0.929 . S
C7 C8 1.400 . S
C7 C9 1.364 . S
C8 C7 1.400 . S
C8 C12 1.377 . S
C9 C7 1.364 . S
C9 C10 1.374 . S
C10 H1 0.930 . S
C10 C9 1.374 . S
C10 C11 1.383 . S
C11 O5 1.412 . S
C11 C10 1.383 . S
C11 C12 1.394 . S
C12 H2 0.929 . S
C12 C8 1.377 . S
C12 C11 1.394 . S
H13 C20 0.929 . S
H14 C23 0.930 . S
H15 C25 0.929 . S
H16 C17 0.969 . S
C17 H16 0.969 . S
C17 O18 1.550 . S
C17 H19 0.973 . S
O18 C17 1.550 . S
O18 C24 1.412 . S
H19 C17 0.973 . S
C20 H13 0.929 . S
C20 C21 1.400 . S
C20 C22 1.364 . S
C21 C20 1.400 . S
C21 C25 1.377 . S
C22 C20 1.364 . S
C22 C23 1.374 . S
C23 H14 0.930 . S
C23 C22 1.374 . S
C23 C24 1.383 . S
C24 O18 1.412 . S
C24 C23 1.383 . S
C24 C25 1.394 . S
C25 H15 0.929 . S
C25 C21 1.377 . S
C25 C24 1.394 . S
H26 C33 0.929 . S
H27 C36 0.930 . S
H28 C38 0.929 . S
H29 C30 0.969 . S
C30 H29 0.969 . S
C30 O31 1.550 . S
C30 H32 0.973 . S
O31 C30 1.550 . S
O31 C37 1.412 . S
H32 C30 0.973 . S
C33 H26 0.929 . S
C33 C34 1.400 . S
C33 C35 1.364 . S
C34 C33 1.400 . S
C34 C38 1.377 . S
C35 C33 1.364 . S
C35 C36 1.374 . S
C36 H27 0.930 . S
C36 C35 1.374 . S
C36 C37 1.383 . S
C37 O31 1.412 . S
C37 C36 1.383 . S
C37 C38 1.394 . S
C38 H28 0.929 . S
C38 C34 1.377 . S
C38 C37 1.394 . S
H39 C46 0.929 . S
H40 C49 0.930 . S
H41 C51 0.929 . S
H42 C43 0.969 . S
C43 H42 0.969 . S
C43 O44 1.550 . S
C43 H45 0.973 . S
O44 C43 1.550 . S
O44 C50 1.412 . S
H45 C43 0.973 . S
C46 H39 0.929 . S
C46 C47 1.400 . S
C46 C48 1.364 . S
C47 C46 1.400 . S
C47 C51 1.377 . S
C48 C46 1.364 . S
C48 C49 1.374 . S
C49 H40 0.930 . S
C49 C48 1.374 . S
C49 C50 1.383 . S
C50 O44 1.412 . S
C50 C49 1.383 . S
C50 C51 1.394 . S
C51 H41 0.929 . S
C51 C47 1.377 . S
C51 C50 1.394 . S
H52 C59 0.929 . S
H53 C62 0.930 . S
H54 C64 0.929 . S
H55 C56 0.969 . S
C56 H55 0.969 . S
C56 O57 1.550 . S
C56 H58 0.973 . S
O57 C56 1.550 . S
O57 C63 1.412 . S
H58 C56 0.973 . S
C59 H52 0.929 . S
C59 C60 1.400 . S
C59 C61 1.364 . S
C60 C59 1.400 . S
C60 C64 1.377 . S
C61 C59 1.364 . S
C61 C62 1.374 . S
C62 H53 0.930 . S
C62 C61 1.374 . S
C62 C63 1.383 . S
C63 O57 1.412 . S
C63 C62 1.383 . S
C63 C64 1.394 . S
C64 H54 0.929 . S
C64 C60 1.377 . S
C64 C63 1.394 . S
H65 C72 0.929 . S
H66 C75 0.930 . S
H67 C77 0.929 . S
H68 C69 0.969 . S
C69 H68 0.969 . S
C69 O70 1.550 . S
C69 H71 0.973 . S
O70 C69 1.550 . S
O70 C76 1.412 . S
H71 C69 0.973 . S
C72 H65 0.929 . S
C72 C73 1.400 . S
C72 C74 1.364 . S
C73 C72 1.400 . S
C73 C77 1.377 . S
C74 C72 1.364 . S
C74 C75 1.374 . S
C75 H66 0.930 . S
C75 C74 1.374 . S
C75 C76 1.383 . S
C76 O70 1.412 . S
C76 C75 1.383 . S
C76 C77 1.394 . S
C77 H67 0.929 . S
C77 C73 1.377 . S
C77 C76 1.394 . S
H78 C85 0.929 . S
H79 C88 0.930 . S
H80 C90 0.929 . S
H81 C82 0.969 . S
C82 H81 0.969 . S
C82 O83 1.550 . S
C82 H84 0.973 . S
O83 C82 1.550 . S
O83 C89 1.412 . S
H84 C82 0.973 . S
C85 H78 0.929 . S
C85 C86 1.400 . S
C85 C87 1.364 . S
C86 C85 1.400 . S
C86 C90 1.377 . S
C87 C85 1.364 . S
C87 C88 1.374 . S
C88 H79 0.930 . S
C88 C87 1.374 . S
C88 C89 1.383 . S
C89 O83 1.412 . S
C89 C88 1.383 . S
C89 C90 1.394 . S
C90 H80 0.929 . S
C90 C86 1.377 . S
C90 C89 1.394 . S
H91 C98 0.929 . S
H92 C101 0.930 . S
H93 C103 0.929 . S
H94 C95 0.969 . S
C95 H94 0.969 . S
C95 O96 1.550 . S
C95 H97 0.973 . S
O96 C95 1.550 . S
O96 C102 1.412 . S
H97 C95 0.973 . S
C98 H91 0.929 . S
C98 C99 1.400 . S
C98 C100 1.364 . S
C99 C98 1.400 . S
C99 C103 1.377 . S
C100 C98 1.364 . S
C100 C101 1.374 . S
C101 H92 0.930 . S
C101 C100 1.374 . S
C101 C102 1.383 . S
C102 O96 1.412 . S
C102 C101 1.383 . S
C102 C103 1.394 . S
C103 H93 0.929 . S
C103 C99 1.377 . S
C103 C102 1.394 . S
C104 C105 1.443 . S
C104 N108 1.376 . S
C104 C142 1.389 . S
C105 C104 1.443 . S
C105 C106 1.340 . S
C105 H145 0.951 . S
C106 C105 1.340 . S
C106 C107 1.439 1_455 S
C106 H146 0.950 . S
C107 C106 1.439 1_655 S
C107 N108 1.374 1_655 S
C107 C141 1.395 . S
N108 C104 1.376 . S
N108 C107 1.374 1_455 S
N108 Co109 2.008 . S
Co109 N108 2.008 . S
Co109 N110 1.995 1_455 S
Co109 N115 2.008 1_455 S
Co109 N120 1.995 . S
Co109 N125 2.282 . S
Co109 N131 2.282 1_455 S
N110 Co109 1.995 1_655 S
N110 C111 1.376 . S
N110 C114 1.383 . S
C111 N110 1.376 . S
C111 C112 1.446 . S
C111 C141 1.391 . S
C112 C111 1.446 . S
C112 C113 1.339 . S
C112 H147 0.949 . S
C113 C112 1.339 . S
C113 C114 1.439 . S
C113 H148 0.950 . S
C114 N110 1.383 . S
C114 C113 1.439 . S
C114 C143 1.392 . S
N115 Co109 2.008 1_655 S
N115 C116 1.376 . S
N115 C119 1.374 1_655 S
C116 N115 1.376 . S
C116 C117 1.443 . S
C116 C143 1.389 . S
C117 C116 1.443 . S
C117 C118 1.340 . S
C117 H149 0.951 . S
C118 C117 1.340 . S
C118 C119 1.439 1_655 S
C118 H150 0.950 . S
C119 N115 1.374 1_455 S
C119 C118 1.439 1_455 S
C119 C144 1.395 . S
N120 Co109 1.995 . S
N120 C121 1.376 . S
N120 C124 1.383 . S
C121 N120 1.376 . S
C121 C122 1.446 . S
C121 C144 1.391 . S
C122 C121 1.446 . S
C122 C123 1.339 . S
C122 H151 0.949 . S
C123 C122 1.339 . S
C123 C124 1.439 . S
C123 H152 0.950 . S
C124 N120 1.383 . S
C124 C123 1.439 . S
C124 C142 1.392 . S
N125 Co109 2.282 . S
N125 C128 1.332 . S
N125 C130 1.332 . S
C126 C127 1.386 . S
C126 C129 1.388 . S
C127 C126 1.386 . S
C127 C128 1.382 . S
C127 H153 0.950 . S
C128 N125 1.332 . S
C128 C127 1.382 . S
C128 H139 0.952 . S
C129 C126 1.388 . S
C129 C130 1.382 . S
C129 H154 0.950 . S
C130 N125 1.332 . S
C130 C129 1.382 . S
C130 H140 0.948 . S
N131 Co109 2.282 1_655 S
N131 C135 1.332 . S
N131 C136 1.332 . S
C132 C133 1.388 . S
C132 C136 1.382 . S
C132 H155 0.950 . S
C133 C132 1.388 . S
C133 C134 1.386 . S
C134 C133 1.386 . S
C134 C135 1.382 . S
C134 H156 0.950 . S
C135 N131 1.332 . S
C135 C134 1.382 . S
C135 H137 0.952 . S
C136 N131 1.332 . S
C136 C132 1.382 . S
C136 H138 0.948 . S
H137 C135 0.952 . S
H138 C136 0.948 . S
H139 C128 0.952 . S
H140 C130 0.948 . S
C141 C107 1.395 . S
C141 C111 1.391 . S
C142 C104 1.389 . S
C142 C124 1.392 . S
C143 C114 1.392 . S
C143 C116 1.389 . S
C144 C119 1.395 . S
C144 C121 1.391 . S
H145 C105 0.951 . S
H146 C106 0.950 . S
H147 C112 0.949 . S
H148 C113 0.950 . S
H149 C117 0.951 . S
H150 C118 0.950 . S
H151 C122 0.949 . S
H152 C123 0.950 . S
H153 C127 0.950 . S
H154 C129 0.950 . S
H155 C132 0.950 . S
H156 C134 0.950 . S
C157 C158 1.443 . S
C157 N161 1.376 . S
C157 C195 1.389 . S
C158 C157 1.443 . S
C158 C159 1.340 . S
C158 H198 0.951 . S
C159 C158 1.340 . S
C159 C160 1.439 . S
C159 H199 0.950 . S
C160 C159 1.439 . S
C160 N161 1.374 . S
C160 C194 1.395 . S
N161 C157 1.376 . S
N161 C160 1.374 . S
N161 Co162 2.008 . S
Co162 N161 2.008 . S
Co162 N163 1.995 . S
Co162 N168 2.008 . S
Co162 N173 1.995 . S
Co162 N178 2.282 . S
Co162 N184 2.282 . S
N163 Co162 1.995 . S
N163 C164 1.376 . S
N163 C167 1.383 . S
C164 N163 1.376 . S
C164 C165 1.446 1_455 S
C164 C194 1.391 . S
C165 C164 1.446 1_655 S
C165 C166 1.339 . S
C165 H200 0.949 . S
C166 C165 1.339 . S
C166 C167 1.439 1_655 S
C166 H201 0.950 . S
C167 N163 1.383 . S
C167 C166 1.439 1_455 S
C167 C196 1.392 . S
N168 Co162 2.008 . S
N168 C169 1.376 . S
N168 C172 1.374 . S
C169 N168 1.376 . S
C169 C170 1.443 . S
C169 C196 1.389 . S
C170 C169 1.443 . S
C170 C171 1.340 . S
C170 H202 0.951 . S
C171 C170 1.340 . S
C171 C172 1.439 . S
C171 H203 0.950 . S
C172 N168 1.374 . S
C172 C171 1.439 . S
C172 C197 1.395 . S
N173 Co162 1.995 . S
N173 C174 1.376 . S
N173 C177 1.383 . S
C174 N173 1.376 . S
C174 C175 1.446 . S
C174 C197 1.391 . S
C175 C174 1.446 . S
C175 C176 1.339 . S
C175 H204 0.949 . S
C176 C175 1.339 . S
C176 C177 1.439 . S
C176 H205 0.950 . S
C177 N173 1.383 . S
C177 C176 1.439 . S
C177 C195 1.392 . S
N178 Co162 2.282 . S
N178 C181 1.332 . S
N178 C183 1.332 . S
C179 C180 1.386 . S
C179 C182 1.388 . S
C180 C179 1.386 . S
C180 C181 1.382 . S
C180 H206 0.950 . S
C181 N178 1.332 . S
C181 C180 1.382 . S
C181 H192 0.952 . S
C182 C179 1.388 . S
C182 C183 1.382 . S
C182 H207 0.950 . S
C183 N178 1.332 . S
C183 C182 1.382 . S
C183 H193 0.948 . S
N184 Co162 2.282 . S
N184 C188 1.332 . S
N184 C189 1.332 . S
C185 C186 1.388 1_455 S
C185 C189 1.382 . S
C185 H208 0.950 . S
C186 C185 1.388 1_655 S
C186 C187 1.386 . S
C187 C186 1.386 . S
C187 C188 1.382 1_655 S
C187 H209 0.950 . S
C188 N184 1.332 . S
C188 C187 1.382 1_455 S
C188 H190 0.952 . S
C189 N184 1.332 . S
C189 C185 1.382 . S
C189 H191 0.948 . S
H190 C188 0.952 . S
H191 C189 0.948 . S
H192 C181 0.952 . S
H193 C183 0.948 . S
C194 C160 1.395 . S
C194 C164 1.391 . S
C195 C157 1.389 . S
C195 C177 1.392 . S
C196 C167 1.392 . S
C196 C169 1.389 . S
C197 C172 1.395 . S
C197 C174 1.391 . S
H198 C158 0.951 . S
H199 C159 0.950 . S
H200 C165 0.949 . S
H201 C166 0.950 . S
H202 C170 0.951 . S
H203 C171 0.950 . S
H204 C175 0.949 . S
H205 C176 0.950 . S
H206 C180 0.950 . S
H207 C182 0.950 . S
H208 C185 0.950 . S
H209 C187 0.950 . S
C210 C211 1.443 . S
C210 N214 1.376 1_565 S
C210 C248 1.389 . S
C211 C210 1.443 . S
C211 C212 1.340 . S
C211 H251 0.951 . S
C212 C211 1.340 . S
C212 C213 1.439 1_565 S
C212 H252 0.943 . S
C213 C212 1.439 1_545 S
C213 N214 1.374 . S
C213 C247 1.395 . S
N214 C210 1.376 1_545 S
N214 C213 1.374 . S
N214 Co215 2.008 . S
Co215 N214 2.008 . S
Co215 N216 1.995 . S
Co215 N221 2.008 . S
Co215 N226 1.995 1_545 S
Co215 N231 2.282 . S
Co215 N237 2.282 1_545 S
N216 Co215 1.995 . S
N216 C217 1.376 . S
N216 C220 1.383 . S
C217 N216 1.376 . S
C217 C218 1.446 . S
C217 C247 1.391 . S
C218 C217 1.446 . S
C218 C219 1.339 . S
C218 H253 0.949 . S
C219 C218 1.339 . S
C219 C220 1.439 . S
C219 H254 0.950 . S
C220 N216 1.383 . S
C220 C219 1.439 . S
C220 C249 1.392 . S
N221 Co215 2.008 . S
N221 C222 1.376 . S
N221 C225 1.374 . S
C222 N221 1.376 . S
C222 C223 1.443 . S
C222 C249 1.389 . S
C223 C222 1.443 . S
C223 C224 1.340 . S
C223 H255 0.951 . S
C224 C223 1.340 . S
C224 C225 1.439 . S
C224 H256 0.950 . S
C225 N221 1.374 . S
C225 C224 1.439 . S
C225 C250 1.395 . S
N226 Co215 1.995 1_565 S
N226 C227 1.376 . S
N226 C230 1.383 . S
C227 N226 1.376 . S
C227 C228 1.446 . S
C227 C250 1.391 1_565 S
C228 C227 1.446 . S
C228 C229 1.339 . S
C228 H257 0.949 . S
C229 C228 1.339 . S
C229 C230 1.439 . S
C229 H258 0.950 . S
C230 N226 1.383 . S
C230 C229 1.439 . S
C230 C248 1.392 . S
N231 Co215 2.282 . S
N231 C234 1.332 . S
N231 C236 1.332 . S
C232 C233 1.386 . S
C232 C235 1.388 . S
C233 C232 1.386 . S
C233 C234 1.382 . S
C233 H259 0.950 . S
C234 N231 1.332 . S
C234 C233 1.382 . S
C234 H245 0.952 . S
C235 C232 1.388 . S
C235 C236 1.382 . S
C235 H260 0.950 . S
C236 N231 1.332 . S
C236 C235 1.382 . S
C236 H246 0.948 . S
N237 Co215 2.282 1_565 S
N237 C241 1.332 . S
N237 C242 1.332 . S
C238 C239 1.388 . S
C238 C242 1.382 . S
C238 H261 0.950 . S
C239 C238 1.388 . S
C239 C240 1.386 . S
C240 C239 1.386 . S
C240 C241 1.382 . S
C240 H262 0.950 . S
C241 N237 1.332 . S
C241 C240 1.382 . S
C241 H243 0.952 1_565 S
C242 N237 1.332 . S
C242 C238 1.382 . S
C242 H244 0.948 . S
H243 C241 0.952 1_545 S
H244 C242 0.948 . S
H245 C234 0.952 . S
H246 C236 0.948 . S
C247 C213 1.395 . S
C247 C217 1.391 . S
C248 C210 1.389 . S
C248 C230 1.392 . S
C249 C220 1.392 . S
C249 C222 1.389 . S
C250 C225 1.395 . S
C250 C227 1.391 1_545 S
H251 C211 0.951 . S
H252 C212 0.943 . S
H253 C218 0.949 . S
H254 C219 0.950 . S
H255 C223 0.951 . S
H256 C224 0.950 . S
H257 C228 0.949 . S
H258 C229 0.950 . S
H259 C233 0.950 . S
H260 C235 0.950 . S
H261 C238 0.950 . S
H262 C240 0.950 . S
C263 C264 1.443 . S
C263 N267 1.376 . S
C263 C301 1.389 . S
C264 C263 1.443 . S
C264 C265 1.340 . S
C264 H304 0.951 . S
C265 C264 1.340 . S
C265 C266 1.439 . S
C265 H305 0.950 . S
C266 C265 1.439 . S
C266 N267 1.374 . S
C266 C300 1.395 . S
N267 C263 1.376 . S
N267 C266 1.374 . S
N267 Co268 2.008 . S
Co268 N267 2.008 . S
Co268 N269 1.995 . S
Co268 N274 2.008 . S
Co268 N279 1.995 . S
Co268 N284 2.282 . S
Co268 N290 2.282 . S
N269 Co268 1.995 . S
N269 C270 1.376 . S
N269 C273 1.383 1_554 S
C270 N269 1.376 . S
C270 C271 1.446 1_554 S
C270 C300 1.391 . S
C271 C270 1.446 1_556 S
C271 C272 1.339 . S
C271 H306 0.949 . S
C272 C271 1.339 . S
C272 C273 1.439 . S
C272 H307 0.950 . S
C273 N269 1.383 1_556 S
C273 C272 1.439 . S
C273 C302 1.392 . S
N274 Co268 2.008 . S
N274 C275 1.376 1_554 S
N274 C278 1.374 . S
C275 N274 1.376 1_556 S
C275 C276 1.443 . S
C275 C302 1.389 . S
C276 C275 1.443 . S
C276 C277 1.340 1_556 S
C276 H308 0.951 . S
C277 C276 1.340 1_554 S
C277 C278 1.439 . S
C277 H309 0.950 . S
C278 N274 1.374 . S
C278 C277 1.439 . S
C278 C303 1.395 . S
N279 Co268 1.995 . S
N279 C280 1.376 . S
N279 C283 1.383 . S
C280 N279 1.376 . S
C280 C281 1.446 . S
C280 C303 1.391 . S
C281 C280 1.446 . S
C281 C282 1.339 . S
C281 H310 0.949 . S
C282 C281 1.339 . S
C282 C283 1.439 . S
C282 H311 0.950 . S
C283 N279 1.383 . S
C283 C282 1.439 . S
C283 C301 1.392 . S
N284 Co268 2.282 . S
N284 C287 1.332 . S
N284 C289 1.332 1_554 S
C285 C286 1.386 . S
C285 C288 1.388 . S
C286 C285 1.386 . S
C286 C287 1.382 1_556 S
C286 H312 0.950 . S
C287 N284 1.332 . S
C287 C286 1.382 1_554 S
C287 H298 0.952 . S
C288 C285 1.388 . S
C288 C289 1.382 . S
C288 H313 0.950 . S
C289 N284 1.332 1_556 S
C289 C288 1.382 . S
C289 H299 0.948 . S
N290 Co268 2.282 . S
N290 C294 1.332 . S
N290 C295 1.332 . S
C291 C292 1.388 . S
C291 C295 1.382 . S
C291 H314 0.950 . S
C292 C291 1.388 . S
C292 C293 1.386 . S
C293 C292 1.386 . S
C293 C294 1.382 . S
C293 H315 0.950 . S
C294 N290 1.332 . S
C294 C293 1.382 . S
C294 H296 0.952 . S
C295 N290 1.332 . S
C295 C291 1.382 . S
C295 H297 0.948 . S
H296 C294 0.952 . S
H297 C295 0.948 . S
H298 C287 0.952 . S
H299 C289 0.948 . S
C300 C266 1.395 . S
C300 C270 1.391 . S
C301 C263 1.389 . S
C301 C283 1.392 . S
C302 C273 1.392 . S
C302 C275 1.389 . S
C303 C278 1.395 . S
C303 C280 1.391 . S
H304 C264 0.951 . S
H305 C265 0.950 . S
H306 C271 0.949 . S
H307 C272 0.950 . S
H308 C276 0.951 . S
H309 C277 0.950 . S
H310 C281 0.949 . S
H311 C282 0.950 . S
H312 C286 0.950 . S
H313 C288 0.950 . S
H314 C291 0.950 . S
H315 C293 0.950 . S
C316 C317 1.443 . S
C316 N320 1.376 . S
C316 C354 1.389 . S
C317 C316 1.443 . S
C317 C318 1.340 . S
C317 H357 0.951 . S
C318 C317 1.340 . S
C318 C319 1.439 . S
C318 H358 0.950 . S
C319 C318 1.439 . S
C319 N320 1.374 . S
C319 C353 1.395 1_565 S
N320 C316 1.376 . S
N320 C319 1.374 . S
N320 Co321 2.008 1_565 S
Co321 N320 2.008 1_545 S
Co321 N322 1.995 . S
Co321 N327 2.008 . S
Co321 N332 1.995 1_545 S
Co321 N337 2.282 . S
Co321 N343 2.282 1_545 S
N322 Co321 1.995 . S
N322 C323 1.376 . S
N322 C326 1.383 . S
C323 N322 1.376 . S
C323 C324 1.446 . S
C323 C353 1.391 . S
C324 C323 1.446 . S
C324 C325 1.339 . S
C324 H359 0.949 . S
C325 C324 1.339 . S
C325 C326 1.439 . S
C325 H360 0.950 . S
C326 N322 1.383 . S
C326 C325 1.439 . S
C326 C355 1.392 . S
N327 Co321 2.008 . S
N327 C328 1.376 . S
N327 C331 1.374 . S
C328 N327 1.376 . S
C328 C329 1.443 . S
C328 C355 1.389 . S
C329 C328 1.443 . S
C329 C330 1.340 . S
C329 H361 0.951 . S
C330 C329 1.340 . S
C330 C331 1.439 . S
C330 H362 0.950 . S
C331 N327 1.374 . S
C331 C330 1.439 . S
C331 C356 1.395 1_545 S
N332 Co321 1.995 1_565 S
N332 C333 1.376 . S
N332 C336 1.383 . S
C333 N332 1.376 . S
C333 C334 1.446 . S
C333 C356 1.391 . S
C334 C333 1.446 . S
C334 C335 1.339 . S
C334 H363 0.949 . S
C335 C334 1.339 . S
C335 C336 1.439 . S
C335 H364 0.950 . S
C336 N332 1.383 . S
C336 C335 1.439 . S
C336 C354 1.392 . S
N337 Co321 2.282 . S
N337 C340 1.332 . S
N337 C342 1.332 . S
C338 C339 1.386 . S
C338 C341 1.388 . S
C339 C338 1.386 . S
C339 C340 1.382 . S
C339 H365 0.950 . S
C340 N337 1.332 . S
C340 C339 1.382 . S
C340 H351 0.952 . S
C341 C338 1.388 . S
C341 C342 1.382 . S
C341 H366 0.950 . S
C342 N337 1.332 . S
C342 C341 1.382 . S
C342 H352 0.948 . S
N343 Co321 2.282 1_565 S
N343 C347 1.332 . S
N343 C348 1.332 . S
C344 C345 1.388 . S
C344 C348 1.382 . S
C344 H367 0.950 . S
C345 C344 1.388 . S
C345 C346 1.386 . S
C346 C345 1.386 . S
C346 C347 1.382 . S
C346 H368 0.950 . S
C347 N343 1.332 . S
C347 C346 1.382 . S
C347 H349 0.952 . S
C348 N343 1.332 . S
C348 C344 1.382 . S
C348 H350 0.948 . S
H349 C347 0.952 . S
H350 C348 0.948 . S
H351 C340 0.952 . S
H352 C342 0.948 . S
C353 C319 1.395 1_545 S
C353 C323 1.391 . S
C354 C316 1.389 . S
C354 C336 1.392 . S
C355 C326 1.392 . S
C355 C328 1.389 . S
C356 C331 1.395 1_565 S
C356 C333 1.391 . S
H357 C317 0.951 . S
H358 C318 0.950 . S
H359 C324 0.949 . S
H360 C325 0.950 . S
H361 C329 0.951 . S
H362 C330 0.950 . S
H363 C334 0.949 . S
H364 C335 0.950 . S
H365 C339 0.950 . S
H366 C341 0.950 . S
H367 C344 0.950 . S
H368 C346 0.950 . S
C369 C370 1.443 . S
C369 N373 1.376 . S
C369 C407 1.389 . S
C370 C369 1.443 . S
C370 C371 1.340 . S
C370 H410 0.951 . S
C371 C370 1.340 . S
C371 C372 1.439 . S
C371 H411 0.950 . S
C372 C371 1.439 . S
C372 N373 1.374 . S
C372 C406 1.395 1_554 S
N373 C369 1.376 . S
N373 C372 1.374 . S
N373 Co374 2.008 . S
Co374 N373 2.008 . S
Co374 N375 1.995 1_554 S
Co374 N380 2.008 1_554 S
Co374 N385 1.995 . S
Co374 N390 2.282 1_554 S
Co374 N396 2.282 . S
N375 Co374 1.995 1_556 S
N375 C376 1.376 . S
N375 C379 1.383 . S
C376 N375 1.376 . S
C376 C377 1.446 . S
C376 C406 1.391 . S
C377 C376 1.446 . S
C377 C378 1.339 . S
C377 H412 0.949 . S
C378 C377 1.339 . S
C378 C379 1.439 . S
C378 H413 0.950 . S
C379 N375 1.383 . S
C379 C378 1.439 . S
C379 C408 1.392 . S
N380 Co374 2.008 1_556 S
N380 C381 1.376 . S
N380 C384 1.374 . S
C381 N380 1.376 . S
C381 C382 1.443 . S
C381 C408 1.389 . S
C382 C381 1.443 . S
C382 C383 1.340 . S
C382 H414 0.951 . S
C383 C382 1.340 . S
C383 C384 1.439 . S
C383 H415 0.950 . S
C384 N380 1.374 . S
C384 C383 1.439 . S
C384 C409 1.395 1_556 S
N385 Co374 1.995 . S
N385 C386 1.376 . S
N385 C389 1.383 . S
C386 N385 1.376 . S
C386 C387 1.446 . S
C386 C409 1.391 . S
C387 C386 1.446 . S
C387 C388 1.339 . S
C387 H416 0.949 . S
C388 C387 1.339 . S
C388 C389 1.439 . S
C388 H417 0.950 . S
C389 N385 1.383 . S
C389 C388 1.439 . S
C389 C407 1.392 . S
N390 Co374 2.282 1_556 S
N390 C393 1.332 . S
N390 C395 1.332 . S
C391 C392 1.386 . S
C391 C394 1.388 . S
C392 C391 1.386 . S
C392 C393 1.382 . S
C392 H418 0.950 . S
C393 N390 1.332 . S
C393 C392 1.382 . S
C393 H404 0.952 . S
C394 C391 1.388 . S
C394 C395 1.382 . S
C394 H419 0.950 . S
C395 N390 1.332 . S
C395 C394 1.382 . S
C395 H405 0.948 . S
N396 Co374 2.282 . S
N396 C400 1.332 . S
N396 C401 1.332 . S
C397 C398 1.388 . S
C397 C401 1.382 . S
C397 H420 0.950 . S
C398 C397 1.388 . S
C398 C399 1.386 . S
C399 C398 1.386 . S
C399 C400 1.382 . S
C399 H421 0.950 . S
C400 N396 1.332 . S
C400 C399 1.382 . S
C400 H402 0.952 . S
C401 N396 1.332 . S
C401 C397 1.382 . S
C401 H403 0.948 . S
H402 C400 0.952 . S
H403 C401 0.948 . S
H404 C393 0.952 . S
H405 C395 0.948 . S
C406 C372 1.395 1_556 S
C406 C376 1.391 . S
C407 C369 1.389 . S
C407 C389 1.392 . S
C408 C379 1.392 . S
C408 C381 1.389 . S
C409 C384 1.395 1_554 S
C409 C386 1.391 . S
H410 C370 0.951 . S
H411 C371 0.950 . S
H412 C377 0.949 . S
H413 C378 0.950 . S
H414 C382 0.951 . S
H415 C383 0.950 . S
H416 C387 0.949 . S
H417 C388 0.950 . S
H418 C392 0.950 . S
H419 C394 0.950 . S
H420 C397 0.950 . S
H421 C399 0.950 . S
H422 C440 0.951 . S
H423 C442 0.951 . S
H424 C444 0.950 . S
H425 C445 0.950 . S
H426 C447 0.950 . S
H427 C450 0.950 . S
H428 C451 0.950 . S
H429 C453 0.950 . S
H430 C454 0.950 . S
H431 C455 0.951 . S
H432 C457 0.951 . S
H433 C459 0.950 . S
H434 C460 0.950 . S
H435 C462 0.950 . S
H436 C465 0.950 . S
H437 C466 0.950 . S
H438 C468 0.950 . S
H439 C469 0.950 . S
C440 H422 0.951 . S
C440 C441 1.366 . S
C440 C442 1.388 . S
C441 C440 1.366 . S
C441 C445 1.385 . S
C442 H423 0.951 . S
C442 C440 1.388 . S
C442 C443 1.366 . S
C443 C442 1.366 . S
C443 C444 1.414 . S
C443 C446 1.499 . S
C444 H424 0.950 . S
C444 C443 1.414 . S
C444 C445 1.374 . S
C445 H425 0.950 . S
C445 C441 1.385 . S
C445 C444 1.374 . S
C446 C443 1.499 . S
C446 C447 1.373 . S
C446 C448 1.389 . S
C447 H426 0.950 . S
C447 C446 1.373 . S
C447 C463 1.377 . S
C448 C446 1.389 . S
C448 C449 1.524 . S
C448 C462 1.377 . S
C449 C448 1.524 . S
C449 C450 1.397 . S
C449 C454 1.363 . S
C450 H427 0.950 . S
C450 C449 1.397 . S
C450 C451 1.334 . S
C451 H428 0.950 . S
C451 C450 1.334 . S
C451 C452 1.287 . S
C452 C451 1.287 . S
C452 C453 1.524 . S
C452 H471 0.913 . S
C453 H429 0.950 . S
C453 C452 1.524 . S
C453 C454 1.415 . S
C454 H430 0.950 . S
C454 C449 1.363 . S
C454 C453 1.415 . S
C455 H431 0.951 . S
C455 C456 1.366 . S
C455 C457 1.388 . S
C456 C455 1.366 . S
C456 C460 1.385 . S
C457 H432 0.951 . S
C457 C455 1.388 . S
C457 C458 1.366 . S
C458 C457 1.366 . S
C458 C459 1.414 . S
C458 C461 1.499 . S
C459 H433 0.950 . S
C459 C458 1.414 . S
C459 C460 1.374 . S
C460 H434 0.950 . S
C460 C456 1.385 . S
C460 C459 1.374 . S
C461 C458 1.499 . S
C461 C462 1.373 . S
C461 C463 1.389 . S
C462 H435 0.950 . S
C462 C448 1.377 . S
C462 C461 1.373 . S
C463 C447 1.377 . S
C463 C461 1.389 . S
C463 C464 1.524 . S
C464 C463 1.524 . S
C464 C465 1.397 . S
C464 C469 1.363 . S
C465 H436 0.950 . S
C465 C464 1.397 . S
C465 C466 1.334 . S
C466 H437 0.950 . S
C466 C465 1.334 . S
C466 C467 1.287 . S
C467 C466 1.287 . S
C467 C468 1.524 . S
C467 H470 0.999 . S
C468 H438 0.950 . S
C468 C467 1.524 . S
C468 C469 1.415 . S
C469 H439 0.950 . S
C469 C464 1.363 . S
C469 C468 1.415 . S
H470 C467 0.999 . S
H471 C452 0.913 . S
H472 C490 0.951 . S
H473 C492 0.951 . S
H474 C494 0.950 . S
H475 C495 0.950 . S
H476 C497 0.950 . S
H477 C500 0.950 . S
H478 C501 0.950 . S
H479 C503 0.950 . S
H480 C504 0.950 . S
H481 C505 0.951 . S
H482 C507 0.951 . S
H483 C509 0.950 . S
H484 C510 0.950 . S
H485 C512 0.950 . S
H486 C515 0.950 . S
H487 C516 0.950 . S
H488 C518 0.950 . S
H489 C519 0.950 . S
C490 H472 0.951 . S
C490 C491 1.366 . S
C490 C492 1.388 . S
C491 C490 1.366 . S
C491 C495 1.385 . S
C492 H473 0.951 . S
C492 C490 1.388 . S
C492 C493 1.366 . S
C493 C492 1.366 . S
C493 C494 1.414 . S
C493 C496 1.499 . S
C494 H474 0.950 . S
C494 C493 1.414 . S
C494 C495 1.374 . S
C495 H475 0.950 . S
C495 C491 1.385 . S
C495 C494 1.374 . S
C496 C493 1.499 . S
C496 C497 1.373 . S
C496 C498 1.389 . S
C497 H476 0.950 . S
C497 C496 1.373 . S
C497 C513 1.377 . S
C498 C496 1.389 . S
C498 C499 1.524 . S
C498 C512 1.377 . S
C499 C498 1.524 . S
C499 C500 1.397 . S
C499 C504 1.363 . S
C500 H477 0.950 . S
C500 C499 1.397 . S
C500 C501 1.334 . S
C501 H478 0.950 . S
C501 C500 1.334 . S
C501 C502 1.287 . S
C502 C501 1.287 . S
C502 C503 1.524 . S
C502 H521 0.913 . S
C503 H479 0.950 . S
C503 C502 1.524 . S
C503 C504 1.415 . S
C504 H480 0.950 . S
C504 C499 1.363 . S
C504 C503 1.415 . S
C505 H481 0.951 . S
C505 C506 1.366 . S
C505 C507 1.388 . S
C506 C505 1.366 . S
C506 C510 1.385 . S
C507 H482 0.951 . S
C507 C505 1.388 . S
C507 C508 1.366 . S
C508 C507 1.366 . S
C508 C509 1.414 . S
C508 C511 1.499 . S
C509 H483 0.950 . S
C509 C508 1.414 . S
C509 C510 1.374 . S
C510 H484 0.950 . S
C510 C506 1.385 . S
C510 C509 1.374 . S
C511 C508 1.499 . S
C511 C512 1.373 . S
C511 C513 1.389 . S
C512 H485 0.950 . S
C512 C498 1.377 . S
C512 C511 1.373 . S
C513 C497 1.377 . S
C513 C511 1.389 . S
C513 C514 1.524 . S
C514 C513 1.524 . S
C514 C515 1.397 . S
C514 C519 1.363 . S
C515 H486 0.950 . S
C515 C514 1.397 . S
C515 C516 1.334 . S
C516 H487 0.950 . S
C516 C515 1.334 . S
C516 C517 1.287 . S
C517 C516 1.287 . S
C517 C518 1.524 . S
C517 H520 0.999 . S
C518 H488 0.950 . S
C518 C517 1.524 . S
C518 C519 1.415 . S
C519 H489 0.950 . S
C519 C514 1.363 . S
C519 C518 1.415 . S
H520 C517 0.999 . S
H521 C502 0.913 . S
H522 C540 0.951 . S
H523 C542 0.951 . S
H524 C544 0.950 . S
H525 C545 0.950 . S
H526 C547 0.950 . S
H527 C550 0.950 . S
H528 C551 0.950 . S
H529 C553 0.950 . S
H530 C554 0.950 . S
H531 C555 0.951 . S
H532 C557 0.951 . S
H533 C559 0.950 . S
H534 C560 0.950 . S
H535 C562 0.950 . S
H536 C565 0.950 . S
H537 C566 0.950 . S
H538 C568 0.950 . S
H539 C569 0.950 . S
C540 H522 0.951 . S
C540 C541 1.366 . S
C540 C542 1.388 . S
C541 C540 1.366 . S
C541 C545 1.385 . S
C542 H523 0.951 . S
C542 C540 1.388 . S
C542 C543 1.366 . S
C543 C542 1.366 . S
C543 C544 1.414 . S
C543 C546 1.499 . S
C544 H524 0.950 . S
C544 C543 1.414 . S
C544 C545 1.374 . S
C545 H525 0.950 . S
C545 C541 1.385 . S
C545 C544 1.374 . S
C546 C543 1.499 . S
C546 C547 1.373 . S
C546 C548 1.389 . S
C547 H526 0.950 . S
C547 C546 1.373 . S
C547 C563 1.377 . S
C548 C546 1.389 . S
C548 C549 1.524 . S
C548 C562 1.377 . S
C549 C548 1.524 . S
C549 C550 1.397 . S
C549 C554 1.363 . S
C550 H527 0.950 . S
C550 C549 1.397 . S
C550 C551 1.334 . S
C551 H528 0.950 . S
C551 C550 1.334 . S
C551 C552 1.287 . S
C552 C551 1.287 . S
C552 C553 1.524 . S
C552 H571 0.913 . S
C553 H529 0.950 . S
C553 C552 1.524 . S
C553 C554 1.415 . S
C554 H530 0.950 . S
C554 C549 1.363 . S
C554 C553 1.415 . S
C555 H531 0.951 . S
C555 C556 1.366 . S
C555 C557 1.388 . S
C556 C555 1.366 . S
C556 C560 1.385 . S
C557 H532 0.951 . S
C557 C555 1.388 . S
C557 C558 1.366 . S
C558 C557 1.366 . S
C558 C559 1.414 . S
C558 C561 1.499 . S
C559 H533 0.950 . S
C559 C558 1.414 . S
C559 C560 1.374 . S
C560 H534 0.950 . S
C560 C556 1.385 . S
C560 C559 1.374 . S
C561 C558 1.499 . S
C561 C562 1.373 . S
C561 C563 1.389 . S
C562 H535 0.950 . S
C562 C548 1.377 . S
C562 C561 1.373 . S
C563 C547 1.377 . S
C563 C561 1.389 . S
C563 C564 1.524 . S
C564 C563 1.524 . S
C564 C565 1.397 . S
C564 C569 1.363 . S
C565 H536 0.950 . S
C565 C564 1.397 . S
C565 C566 1.334 . S
C566 H537 0.950 . S
C566 C565 1.334 . S
C566 C567 1.287 . S
C567 C566 1.287 . S
C567 C568 1.524 . S
C567 H570 0.999 . S
C568 H538 0.950 . S
C568 C567 1.524 . S
C568 C569 1.415 . S
C569 H539 0.950 . S
C569 C564 1.363 . S
C569 C568 1.415 . S
H570 C567 0.999 . S
H571 C552 0.913 . S
H572 C590 0.951 . S
H573 C592 0.951 . S
H574 C594 0.950 . S
H575 C595 0.950 . S
H576 C597 0.950 . S
H577 C600 0.950 . S
H578 C601 0.950 . S
H579 C603 0.950 . S
H580 C604 0.950 . S
H581 C605 0.951 . S
H582 C607 0.951 . S
H583 C609 0.950 . S
H584 C610 0.950 1_455 S
H585 C612 0.950 . S
H586 C615 0.950 . S
H587 C616 0.950 . S
H588 C618 0.950 . S
H589 C619 0.950 . S
C590 H572 0.951 . S
C590 C591 1.366 . S
C590 C592 1.388 . S
C591 C590 1.366 . S
C591 C595 1.385 . S
C592 H573 0.951 . S
C592 C590 1.388 . S
C592 C593 1.366 . S
C593 C592 1.366 . S
C593 C594 1.414 . S
C593 C596 1.499 . S
C594 H574 0.950 . S
C594 C593 1.414 . S
C594 C595 1.374 . S
C595 H575 0.950 . S
C595 C591 1.385 . S
C595 C594 1.374 . S
C596 C593 1.499 . S
C596 C597 1.373 . S
C596 C598 1.389 . S
C597 H576 0.950 . S
C597 C596 1.373 . S
C597 C613 1.377 . S
C598 C596 1.389 . S
C598 C599 1.524 . S
C598 C612 1.377 . S
C599 C598 1.524 . S
C599 C600 1.397 . S
C599 C604 1.363 . S
C600 H577 0.950 . S
C600 C599 1.397 . S
C600 C601 1.334 . S
C601 H578 0.950 . S
C601 C600 1.334 . S
C601 C602 1.287 . S
C602 C601 1.287 . S
C602 C603 1.524 . S
C602 H621 0.913 . S
C603 H579 0.950 . S
C603 C602 1.524 . S
C603 C604 1.415 . S
C604 H580 0.950 . S
C604 C599 1.363 . S
C604 C603 1.415 . S
C605 H581 0.951 . S
C605 C606 1.366 . S
C605 C607 1.388 . S
C606 C605 1.366 . S
C606 C610 1.385 . S
C607 H582 0.951 . S
C607 C605 1.388 . S
C607 C608 1.366 . S
C608 C607 1.366 . S
C608 C609 1.414 . S
C608 C611 1.499 . S
C609 H583 0.950 . S
C609 C608 1.414 . S
C609 C610 1.374 . S
C610 H584 0.950 1_655 S
C610 C606 1.385 . S
C610 C609 1.374 . S
C611 C608 1.499 . S
C611 C612 1.373 . S
C611 C613 1.389 . S
C612 H585 0.950 . S
C612 C598 1.377 . S
C612 C611 1.373 . S
C613 C597 1.377 . S
C613 C611 1.389 . S
C613 C614 1.524 . S
C614 C613 1.524 . S
C614 C615 1.397 . S
C614 C619 1.363 . S
C615 H586 0.950 . S
C615 C614 1.397 . S
C615 C616 1.334 . S
C616 H587 0.950 . S
C616 C615 1.334 . S
C616 C617 1.287 . S
C617 C616 1.287 . S
C617 C618 1.524 . S
C617 H620 0.999 . S
C618 H588 0.950 . S
C618 C617 1.524 . S
C618 C619 1.415 . S
C619 H589 0.950 . S
C619 C614 1.363 . S
C619 C618 1.415 . S
H620 C617 0.999 . S
H621 C602 0.913 . S
H622 C640 0.951 . S
H623 C642 0.951 . S
H624 C644 0.950 . S
H625 C645 0.950 . S
H626 C647 0.950 . S
H627 C650 0.950 . S
H628 C651 0.950 . S
H629 C653 0.950 . S
H630 C654 0.950 . S
H631 C655 0.951 . S
H632 C657 0.951 . S
H633 C659 0.950 . S
H634 C660 0.950 . S
H635 C662 0.950 . S
H636 C665 0.950 . S
H637 C666 0.950 . S
H638 C668 0.950 . S
H639 C669 0.950 . S
C640 H622 0.951 . S
C640 C641 1.366 . S
C640 C642 1.388 . S
C641 C640 1.366 . S
C641 C645 1.385 . S
C642 H623 0.951 . S
C642 C640 1.388 . S
C642 C643 1.366 . S
C643 C642 1.366 . S
C643 C644 1.414 . S
C643 C646 1.499 . S
C644 H624 0.950 . S
C644 C643 1.414 . S
C644 C645 1.374 . S
C645 H625 0.950 . S
C645 C641 1.385 . S
C645 C644 1.374 . S
C646 C643 1.499 . S
C646 C647 1.373 . S
C646 C648 1.389 . S
C647 H626 0.950 . S
C647 C646 1.373 . S
C647 C663 1.377 . S
C648 C646 1.389 . S
C648 C649 1.524 . S
C648 C662 1.377 . S
C649 C648 1.524 . S
C649 C650 1.397 . S
C649 C654 1.363 . S
C650 H627 0.950 . S
C650 C649 1.397 . S
C650 C651 1.334 . S
C651 H628 0.950 . S
C651 C650 1.334 . S
C651 C652 1.287 . S
C652 C651 1.287 . S
C652 C653 1.524 . S
C652 H671 0.913 . S
C653 H629 0.950 . S
C653 C652 1.524 . S
C653 C654 1.415 . S
C654 H630 0.950 . S
C654 C649 1.363 . S
C654 C653 1.415 . S
C655 H631 0.951 . S
C655 C656 1.366 . S
C655 C657 1.388 . S
C656 C655 1.366 . S
C656 C660 1.385 . S
C657 H632 0.951 . S
C657 C655 1.388 . S
C657 C658 1.366 . S
C658 C657 1.366 . S
C658 C659 1.414 . S
C658 C661 1.499 . S
C659 H633 0.950 . S
C659 C658 1.414 . S
C659 C660 1.374 . S
C660 H634 0.950 . S
C660 C656 1.385 . S
C660 C659 1.374 . S
C661 C658 1.499 . S
C661 C662 1.373 . S
C661 C663 1.389 . S
C662 H635 0.950 . S
C662 C648 1.377 . S
C662 C661 1.373 . S
C663 C647 1.377 . S
C663 C661 1.389 . S
C663 C664 1.524 . S
C664 C663 1.524 . S
C664 C665 1.397 . S
C664 C669 1.363 . S
C665 H636 0.950 . S
C665 C664 1.397 . S
C665 C666 1.334 . S
C666 H637 0.950 . S
C666 C665 1.334 . S
C666 C667 1.287 . S
C667 C666 1.287 . S
C667 C668 1.524 . S
C667 H670 0.999 . S
C668 H638 0.950 . S
C668 C667 1.524 . S
C668 C669 1.415 . S
C669 H639 0.950 . S
C669 C664 1.363 . S
C669 C668 1.415 . S
H670 C667 0.999 . S
H671 C652 0.913 . S
H672 C690 0.951 . S
H673 C692 0.951 . S
H674 C694 0.950 . S
H675 C695 0.950 . S
H676 C697 0.950 . S
H677 C700 0.950 . S
H678 C701 0.950 . S
H679 C703 0.950 . S
H680 C704 0.950 . S
H681 C705 0.951 . S
H682 C707 0.951 . S
H683 C709 0.950 . S
H684 C710 0.950 . S
H685 C712 0.950 . S
H686 C715 0.950 . S
H687 C716 0.950 . S
H688 C718 0.950 . S
H689 C719 0.950 . S
C690 H672 0.951 . S
C690 C691 1.366 . S
C690 C692 1.388 . S
C691 C690 1.366 . S
C691 C695 1.385 . S
C692 H673 0.951 . S
C692 C690 1.388 . S
C692 C693 1.366 . S
C693 C692 1.366 . S
C693 C694 1.414 . S
C693 C696 1.499 . S
C694 H674 0.950 . S
C694 C693 1.414 . S
C694 C695 1.374 . S
C695 H675 0.950 . S
C695 C691 1.385 . S
C695 C694 1.374 . S
C696 C693 1.499 . S
C696 C697 1.373 . S
C696 C698 1.389 . S
C697 H676 0.950 . S
C697 C696 1.373 . S
C697 C713 1.377 . S
C698 C696 1.389 . S
C698 C699 1.524 . S
C698 C712 1.377 . S
C699 C698 1.524 . S
C699 C700 1.397 . S
C699 C704 1.363 . S
C700 H677 0.950 . S
C700 C699 1.397 . S
C700 C701 1.334 . S
C701 H678 0.950 . S
C701 C700 1.334 . S
C701 C702 1.287 . S
C702 C701 1.287 . S
C702 C703 1.524 . S
C702 H721 0.913 . S
C703 H679 0.950 . S
C703 C702 1.524 . S
C703 C704 1.415 . S
C704 H680 0.950 . S
C704 C699 1.363 . S
C704 C703 1.415 . S
C705 H681 0.951 . S
C705 C706 1.366 . S
C705 C707 1.388 . S
C706 C705 1.366 . S
C706 C710 1.385 . S
C707 H682 0.951 . S
C707 C705 1.388 . S
C707 C708 1.366 . S
C708 C707 1.366 . S
C708 C709 1.414 . S
C708 C711 1.499 . S
C709 H683 0.950 . S
C709 C708 1.414 . S
C709 C710 1.374 . S
C710 H684 0.950 . S
C710 C706 1.385 . S
C710 C709 1.374 . S
C711 C708 1.499 . S
C711 C712 1.373 . S
C711 C713 1.389 . S
C712 H685 0.950 . S
C712 C698 1.377 . S
C712 C711 1.373 . S
C713 C697 1.377 . S
C713 C711 1.389 . S
C713 C714 1.524 . S
C714 C713 1.524 . S
C714 C715 1.397 . S
C714 C719 1.363 . S
C715 H686 0.950 . S
C715 C714 1.397 . S
C715 C716 1.334 . S
C716 H687 0.950 . S
C716 C715 1.334 . S
C716 C717 1.287 . S
C717 C716 1.287 . S
C717 C718 1.524 . S
C717 H720 0.999 . S
C718 H688 0.950 . S
C718 C717 1.524 . S
C718 C719 1.415 . S
C719 H689 0.950 . S
C719 C714 1.363 . S
C719 C718 1.415 . S
H720 C717 0.999 . S
H721 C702 0.913 . S
H722 C740 0.951 . S
H723 C742 0.951 . S
H724 C744 0.950 . S
H725 C745 0.950 . S
H726 C747 0.950 . S
H727 C750 0.950 . S
H728 C751 0.950 . S
H729 C753 0.950 . S
H730 C754 0.950 . S
H731 C755 0.951 . S
H732 C757 0.951 . S
H733 C759 0.950 . S
H734 C760 0.950 . S
H735 C762 0.950 . S
H736 C765 0.950 . S
H737 C766 0.950 . S
H738 C768 0.950 . S
H739 C769 0.950 . S
C740 H722 0.951 . S
C740 C741 1.366 . S
C740 C742 1.388 . S
C741 C740 1.366 . S
C741 C745 1.385 . S
C742 H723 0.951 . S
C742 C740 1.388 . S
C742 C743 1.366 . S
C743 C742 1.366 . S
C743 C744 1.414 . S
C743 C746 1.499 . S
C744 H724 0.950 . S
C744 C743 1.414 . S
C744 C745 1.374 . S
C745 H725 0.950 . S
C745 C741 1.385 . S
C745 C744 1.374 . S
C746 C743 1.499 . S
C746 C747 1.373 . S
C746 C748 1.389 . S
C747 H726 0.950 . S
C747 C746 1.373 . S
C747 C763 1.377 . S
C748 C746 1.389 . S
C748 C749 1.524 . S
C748 C762 1.377 . S
C749 C748 1.524 . S
C749 C750 1.397 . S
C749 C754 1.363 . S
C750 H727 0.950 . S
C750 C749 1.397 . S
C750 C751 1.334 . S
C751 H728 0.950 . S
C751 C750 1.334 . S
C751 C752 1.287 . S
C752 C751 1.287 . S
C752 C753 1.524 . S
C752 H771 0.913 . S
C753 H729 0.950 . S
C753 C752 1.524 . S
C753 C754 1.415 . S
C754 H730 0.950 . S
C754 C749 1.363 . S
C754 C753 1.415 . S
C755 H731 0.951 . S
C755 C756 1.366 . S
C755 C757 1.388 . S
C756 C755 1.366 . S
C756 C760 1.385 . S
C757 H732 0.951 . S
C757 C755 1.388 . S
C757 C758 1.366 . S
C758 C757 1.366 . S
C758 C759 1.414 . S
C758 C761 1.499 . S
C759 H733 0.950 . S
C759 C758 1.414 . S
C759 C760 1.374 . S
C760 H734 0.950 . S
C760 C756 1.385 . S
C760 C759 1.374 . S
C761 C758 1.499 . S
C761 C762 1.373 . S
C761 C763 1.389 . S
C762 H735 0.950 . S
C762 C748 1.377 . S
C762 C761 1.373 . S
C763 C747 1.377 . S
C763 C761 1.389 . S
C763 C764 1.524 . S
C764 C763 1.524 . S
C764 C765 1.397 . S
C764 C769 1.363 . S
C765 H736 0.950 . S
C765 C764 1.397 . S
C765 C766 1.334 . S
C766 H737 0.950 . S
C766 C765 1.334 . S
C766 C767 1.287 . S
C767 C766 1.287 . S
C767 C768 1.524 . S
C767 H770 0.999 . S
C768 H738 0.950 . S
C768 C767 1.524 . S
C768 C769 1.415 . S
C769 H739 0.950 . S
C769 C764 1.363 . S
C769 C768 1.415 . S
H770 C767 0.999 . S
H771 C752 0.913 . S
H772 C790 0.951 . S
H773 C792 0.951 . S
H774 C794 0.950 . S
H775 C795 0.950 . S
H776 C797 0.950 . S
H777 C800 0.950 . S
H778 C801 0.950 . S
H779 C803 0.950 . S
H780 C804 0.950 . S
H781 C805 0.951 . S
H782 C807 0.951 . S
H783 C809 0.950 . S
H784 C810 0.950 . S
H785 C812 0.950 . S
H786 C815 0.950 . S
H787 C816 0.950 . S
H788 C818 0.950 . S
H789 C819 0.950 . S
C790 H772 0.951 . S
C790 C791 1.366 . S
C790 C792 1.388 . S
C791 C790 1.366 . S
C791 C795 1.385 . S
C792 H773 0.951 . S
C792 C790 1.388 . S
C792 C793 1.366 . S
C793 C792 1.366 . S
C793 C794 1.414 . S
C793 C796 1.499 . S
C794 H774 0.950 . S
C794 C793 1.414 . S
C794 C795 1.374 . S
C795 H775 0.950 . S
C795 C791 1.385 . S
C795 C794 1.374 . S
C796 C793 1.499 . S
C796 C797 1.373 . S
C796 C798 1.389 . S
C797 H776 0.950 . S
C797 C796 1.373 . S
C797 C813 1.377 . S
C798 C796 1.389 . S
C798 C799 1.524 . S
C798 C812 1.377 . S
C799 C798 1.524 . S
C799 C800 1.397 . S
C799 C804 1.363 . S
C800 H777 0.950 . S
C800 C799 1.397 . S
C800 C801 1.334 . S
C801 H778 0.950 . S
C801 C800 1.334 . S
C801 C802 1.287 . S
C802 C801 1.287 . S
C802 C803 1.524 . S
C802 H821 0.913 . S
C803 H779 0.950 . S
C803 C802 1.524 . S
C803 C804 1.415 . S
C804 H780 0.950 . S
C804 C799 1.363 . S
C804 C803 1.415 . S
C805 H781 0.951 . S
C805 C806 1.366 . S
C805 C807 1.388 . S
C806 C805 1.366 . S
C806 C810 1.385 . S
C807 H782 0.951 . S
C807 C805 1.388 . S
C807 C808 1.366 . S
C808 C807 1.366 . S
C808 C809 1.414 . S
C808 C811 1.499 . S
C809 H783 0.950 . S
C809 C808 1.414 . S
C809 C810 1.374 . S
C810 H784 0.950 . S
C810 C806 1.385 . S
C810 C809 1.374 . S
C811 C808 1.499 . S
C811 C812 1.373 . S
C811 C813 1.389 . S
C812 H785 0.950 . S
C812 C798 1.377 . S
C812 C811 1.373 . S
C813 C797 1.377 . S
C813 C811 1.389 . S
C813 C814 1.524 . S
C814 C813 1.524 . S
C814 C815 1.397 . S
C814 C819 1.363 . S
C815 H786 0.950 . S
C815 C814 1.397 . S
C815 C816 1.334 . S
C816 H787 0.950 . S
C816 C815 1.334 . S
C816 C817 1.287 . S
C817 C816 1.287 . S
C817 C818 1.524 . S
C817 H820 0.999 . S
C818 H788 0.950 . S
C818 C817 1.524 . S
C818 C819 1.415 . S
C819 H789 0.950 . S
C819 C814 1.363 . S
C819 C818 1.415 . S
H820 C817 0.999 . S
H821 C802 0.913 . S
H822 C840 0.951 . S
H823 C842 0.951 . S
H824 C844 0.950 . S
H825 C845 0.950 . S
H826 C847 0.950 . S
H827 C850 0.950 . S
H828 C851 0.950 . S
H829 C853 0.950 . S
H830 C854 0.950 . S
H831 C855 0.951 . S
H832 C857 0.951 . S
H833 C859 0.950 . S
H834 C860 0.950 . S
H835 C862 0.950 . S
H836 C865 0.950 . S
H837 C866 0.950 . S
H838 C868 0.950 . S
H839 C869 0.950 . S
C840 H822 0.951 . S
C840 C841 1.366 . S
C840 C842 1.388 . S
C841 C840 1.366 . S
C841 C845 1.385 . S
C842 H823 0.951 . S
C842 C840 1.388 . S
C842 C843 1.366 . S
C843 C842 1.366 . S
C843 C844 1.414 . S
C843 C846 1.499 . S
C844 H824 0.950 . S
C844 C843 1.414 . S
C844 C845 1.374 . S
C845 H825 0.950 . S
C845 C841 1.385 . S
C845 C844 1.374 . S
C846 C843 1.499 . S
C846 C847 1.373 . S
C846 C848 1.389 . S
C847 H826 0.950 . S
C847 C846 1.373 . S
C847 C863 1.377 . S
C848 C846 1.389 . S
C848 C849 1.524 . S
C848 C862 1.377 . S
C849 C848 1.524 . S
C849 C850 1.397 . S
C849 C854 1.363 . S
C850 H827 0.950 . S
C850 C849 1.397 . S
C850 C851 1.334 . S
C851 H828 0.950 . S
C851 C850 1.334 . S
C851 C852 1.287 . S
C852 C851 1.287 . S
C852 C853 1.524 . S
C852 H871 0.913 . S
C853 H829 0.950 . S
C853 C852 1.524 . S
C853 C854 1.415 . S
C854 H830 0.950 . S
C854 C849 1.363 . S
C854 C853 1.415 . S
C855 H831 0.951 . S
C855 C856 1.366 . S
C855 C857 1.388 . S
C856 C855 1.366 . S
C856 C860 1.385 . S
C857 H832 0.951 . S
C857 C855 1.388 . S
C857 C858 1.366 . S
C858 C857 1.366 . S
C858 C859 1.414 . S
C858 C861 1.499 . S
C859 H833 0.950 . S
C859 C858 1.414 . S
C859 C860 1.374 . S
C860 H834 0.950 . S
C860 C856 1.385 . S
C860 C859 1.374 . S
C861 C858 1.499 . S
C861 C862 1.373 . S
C861 C863 1.389 . S
C862 H835 0.950 . S
C862 C848 1.377 . S
C862 C861 1.373 . S
C863 C847 1.377 . S
C863 C861 1.389 . S
C863 C864 1.524 . S
C864 C863 1.524 . S
C864 C865 1.397 . S
C864 C869 1.363 . S
C865 H836 0.950 . S
C865 C864 1.397 . S
C865 C866 1.334 . S
C866 H837 0.950 . S
C866 C865 1.334 . S
C866 C867 1.287 . S
C867 C866 1.287 . S
C867 C868 1.524 . S
C867 H870 0.999 . S
C868 H838 0.950 . S
C868 C867 1.524 . S
C868 C869 1.415 . S
C869 H839 0.950 . S
C869 C864 1.363 . S
C869 C868 1.415 . S
H870 C867 0.999 . S
H871 C852 0.913 . S
H872 C890 0.951 . S
H873 C892 0.951 . S
H874 C894 0.950 . S
H875 C895 0.950 . S
H876 C897 0.950 . S
H877 C900 0.950 . S
H878 C901 0.950 . S
H879 C903 0.950 . S
H880 C904 0.950 . S
H881 C905 0.951 . S
H882 C907 0.951 . S
H883 C909 0.950 . S
H884 C910 0.950 . S
H885 C912 0.950 . S
H886 C915 0.950 . S
H887 C916 0.950 . S
H888 C918 0.950 . S
H889 C919 0.950 . S
C890 H872 0.951 . S
C890 C891 1.366 . S
C890 C892 1.388 . S
C891 C890 1.366 . S
C891 C895 1.385 . S
C892 H873 0.951 . S
C892 C890 1.388 . S
C892 C893 1.366 . S
C893 C892 1.366 . S
C893 C894 1.414 . S
C893 C896 1.499 . S
C894 H874 0.950 . S
C894 C893 1.414 . S
C894 C895 1.374 . S
C895 H875 0.950 . S
C895 C891 1.385 . S
C895 C894 1.374 . S
C896 C893 1.499 . S
C896 C897 1.373 . S
C896 C898 1.389 . S
C897 H876 0.950 . S
C897 C896 1.373 . S
C897 C913 1.377 . S
C898 C896 1.389 . S
C898 C899 1.524 . S
C898 C912 1.377 . S
C899 C898 1.524 . S
C899 C900 1.397 . S
C899 C904 1.363 . S
C900 H877 0.950 . S
C900 C899 1.397 . S
C900 C901 1.334 . S
C901 H878 0.950 . S
C901 C900 1.334 . S
C901 C902 1.287 . S
C902 C901 1.287 . S
C902 C903 1.524 . S
C902 H921 0.913 . S
C903 H879 0.950 . S
C903 C902 1.524 . S
C903 C904 1.415 . S
C904 H880 0.950 . S
C904 C899 1.363 . S
C904 C903 1.415 . S
C905 H881 0.951 . S
C905 C906 1.366 . S
C905 C907 1.388 . S
C906 C905 1.366 . S
C906 C910 1.385 . S
C907 H882 0.951 . S
C907 C905 1.388 . S
C907 C908 1.366 . S
C908 C907 1.366 . S
C908 C909 1.414 . S
C908 C911 1.499 . S
C909 H883 0.950 . S
C909 C908 1.414 . S
C909 C910 1.374 . S
C910 H884 0.950 . S
C910 C906 1.385 . S
C910 C909 1.374 . S
C911 C908 1.499 . S
C911 C912 1.373 . S
C911 C913 1.389 . S
C912 H885 0.950 . S
C912 C898 1.377 . S
C912 C911 1.373 . S
C913 C897 1.377 . S
C913 C911 1.389 . S
C913 C914 1.524 . S
C914 C913 1.524 . S
C914 C915 1.397 . S
C914 C919 1.363 . S
C915 H886 0.950 . S
C915 C914 1.397 . S
C915 C916 1.334 . S
C916 H887 0.950 . S
C916 C915 1.334 . S
C916 C917 1.287 . S
C917 C916 1.287 . S
C917 C918 1.524 . S
C917 H920 0.999 . S
C918 H888 0.950 . S
C918 C917 1.524 . S
C918 C919 1.415 . S
C919 H889 0.950 . S
C919 C914 1.363 . S
C919 C918 1.415 . S
H920 C917 0.999 . S
H921 C902 0.913 . S
H922 C940 0.951 . S
H923 C942 0.951 . S
H924 C944 0.950 . S
H925 C945 0.950 . S
H926 C947 0.950 . S
H927 C950 0.950 . S
H928 C951 0.950 . S
H929 C953 0.950 . S
H930 C954 0.950 . S
H931 C955 0.951 . S
H932 C957 0.951 . S
H933 C959 0.950 . S
H934 C960 0.950 . S
H935 C962 0.950 . S
H936 C965 0.950 . S
H937 C966 0.950 . S
H938 C968 0.950 . S
H939 C969 0.950 . S
C940 H922 0.951 . S
C940 C941 1.366 . S
C940 C942 1.388 . S
C941 C940 1.366 . S
C941 C945 1.385 . S
C942 H923 0.951 . S
C942 C940 1.388 . S
C942 C943 1.366 . S
C943 C942 1.366 . S
C943 C944 1.414 . S
C943 C946 1.499 . S
C944 H924 0.950 . S
C944 C943 1.414 . S
C944 C945 1.374 . S
C945 H925 0.950 . S
C945 C941 1.385 . S
C945 C944 1.374 . S
C946 C943 1.499 . S
C946 C947 1.373 . S
C946 C948 1.389 . S
C947 H926 0.950 . S
C947 C946 1.373 . S
C947 C963 1.377 . S
C948 C946 1.389 . S
C948 C949 1.524 . S
C948 C962 1.377 . S
C949 C948 1.524 . S
C949 C950 1.397 . S
C949 C954 1.363 . S
C950 H927 0.950 . S
C950 C949 1.397 . S
C950 C951 1.334 . S
C951 H928 0.950 . S
C951 C950 1.334 . S
C951 C952 1.287 . S
C952 C951 1.287 . S
C952 C953 1.524 . S
C952 H971 0.913 . S
C953 H929 0.950 . S
C953 C952 1.524 . S
C953 C954 1.415 . S
C954 H930 0.950 . S
C954 C949 1.363 . S
C954 C953 1.415 . S
C955 H931 0.951 . S
C955 C956 1.366 . S
C955 C957 1.388 . S
C956 C955 1.366 . S
C956 C960 1.385 . S
C957 H932 0.951 . S
C957 C955 1.388 . S
C957 C958 1.366 . S
C958 C957 1.366 . S
C958 C959 1.414 . S
C958 C961 1.499 . S
C959 H933 0.950 . S
C959 C958 1.414 . S
C959 C960 1.374 . S
C960 H934 0.950 . S
C960 C956 1.385 . S
C960 C959 1.374 . S
C961 C958 1.499 . S
C961 C962 1.373 . S
C961 C963 1.389 . S
C962 H935 0.950 . S
C962 C948 1.377 . S
C962 C961 1.373 . S
C963 C947 1.377 . S
C963 C961 1.389 . S
C963 C964 1.524 . S
C964 C963 1.524 . S
C964 C965 1.397 . S
C964 C969 1.363 . S
C965 H936 0.950 . S
C965 C964 1.397 . S
C965 C966 1.334 . S
C966 H937 0.950 . S
C966 C965 1.334 . S
C966 C967 1.287 . S
C967 C966 1.287 . S
C967 C968 1.524 . S
C967 H970 0.999 . S
C968 H938 0.950 . S
C968 C967 1.524 . S
C968 C969 1.415 . S
C969 H939 0.950 . S
C969 C964 1.363 . S
C969 C968 1.415 . S
H970 C967 0.999 . S
H971 C952 0.913 . S
H972 C990 0.951 . S
H973 C992 0.951 . S
H974 C994 0.950 . S
H975 C995 0.950 . S
H976 C997 0.950 . S
H977 C1000 0.950 . S
H978 C1001 0.950 . S
H979 C1003 0.950 . S
H980 C1004 0.950 . S
H981 C1005 0.951 . S
H982 C1007 0.951 . S
H983 C1009 0.950 . S
H984 C1010 0.950 . S
H985 C1012 0.950 . S
H986 C1015 0.950 . S
H987 C1016 0.950 . S
H988 C1018 0.950 . S
H989 C1019 0.950 . S
C990 H972 0.951 . S
C990 C991 1.366 . S
C990 C992 1.388 . S
C991 C990 1.366 . S
C991 C995 1.385 . S
C992 H973 0.951 . S
C992 C990 1.388 . S
C992 C993 1.366 . S
C993 C992 1.366 . S
C993 C994 1.414 . S
C993 C996 1.499 . S
C994 H974 0.950 . S
C994 C993 1.414 . S
C994 C995 1.374 . S
C995 H975 0.950 . S
C995 C991 1.385 . S
C995 C994 1.374 . S
C996 C993 1.499 . S
C996 C997 1.373 . S
C996 C998 1.389 . S
C997 H976 0.950 . S
C997 C996 1.373 . S
C997 C1013 1.377 . S
C998 C996 1.389 . S
C998 C999 1.524 . S
C998 C1012 1.377 . S
C999 C998 1.524 . S
C999 C1000 1.397 . S
C999 C1004 1.363 . S
C1000 H977 0.950 . S
C1000 C999 1.397 . S
C1000 C1001 1.334 . S
C1001 H978 0.950 . S
C1001 C1000 1.334 . S
C1001 C1002 1.287 . S
C1002 C1001 1.287 . S
C1002 C1003 1.524 . S
C1002 H1021 0.913 . S
C1003 H979 0.950 . S
C1003 C1002 1.524 . S
C1003 C1004 1.415 . S
C1004 H980 0.950 . S
C1004 C999 1.363 . S
C1004 C1003 1.415 . S
C1005 H981 0.951 . S
C1005 C1006 1.366 . S
C1005 C1007 1.388 . S
C1006 C1005 1.366 . S
C1006 C1010 1.385 . S
C1007 H982 0.951 . S
C1007 C1005 1.388 . S
C1007 C1008 1.366 . S
C1008 C1007 1.366 . S
C1008 C1009 1.414 . S
C1008 C1011 1.499 . S
C1009 H983 0.950 . S
C1009 C1008 1.414 . S
C1009 C1010 1.374 . S
C1010 H984 0.950 . S
C1010 C1006 1.385 . S
C1010 C1009 1.374 . S
C1011 C1008 1.499 . S
C1011 C1012 1.373 . S
C1011 C1013 1.389 . S
C1012 H985 0.950 . S
C1012 C998 1.377 . S
C1012 C1011 1.373 . S
C1013 C997 1.377 . S
C1013 C1011 1.389 . S
C1013 C1014 1.524 . S
C1014 C1013 1.524 . S
C1014 C1015 1.397 . S
C1014 C1019 1.363 . S
C1015 H986 0.950 . S
C1015 C1014 1.397 . S
C1015 C1016 1.334 . S
C1016 H987 0.950 . S
C1016 C1015 1.334 . S
C1016 C1017 1.287 . S
C1017 C1016 1.287 . S
C1017 C1018 1.524 . S
C1017 H1020 0.999 . S
C1018 H988 0.950 . S
C1018 C1017 1.524 . S
C1018 C1019 1.415 . S
C1019 H989 0.950 . S
C1019 C1014 1.363 . S
C1019 C1018 1.415 . S
H1020 C1017 0.999 . S
H1021 C1002 0.913 . S
H1022 C1040 0.951 . S
H1023 C1042 0.951 . S
H1024 C1044 0.950 . S
H1025 C1045 0.950 . S
H1026 C1047 0.950 . S
H1027 C1050 0.950 . S
H1028 C1051 0.950 . S
H1029 C1053 0.950 . S
H1030 C1054 0.950 . S
H1031 C1055 0.951 . S
H1032 C1057 0.951 . S
H1033 C1059 0.950 . S
H1034 C1060 0.950 . S
H1035 C1062 0.950 . S
H1036 C1065 0.950 . S
H1037 C1066 0.950 . S
H1038 C1068 0.950 . S
H1039 C1069 0.950 . S
C1040 H1022 0.951 . S
C1040 C1041 1.366 . S
C1040 C1042 1.388 . S
C1041 C1040 1.366 . S
C1041 C1045 1.385 . S
C1042 H1023 0.951 . S
C1042 C1040 1.388 . S
C1042 C1043 1.366 . S
C1043 C1042 1.366 . S
C1043 C1044 1.414 . S
C1043 C1046 1.499 . S
C1044 H1024 0.950 . S
C1044 C1043 1.414 . S
C1044 C1045 1.374 . S
C1045 H1025 0.950 . S
C1045 C1041 1.385 . S
C1045 C1044 1.374 . S
C1046 C1043 1.499 . S
C1046 C1047 1.373 . S
C1046 C1048 1.389 . S
C1047 H1026 0.950 . S
C1047 C1046 1.373 . S
C1047 C1063 1.377 . S
C1048 C1046 1.389 . S
C1048 C1049 1.524 . S
C1048 C1062 1.377 . S
C1049 C1048 1.524 . S
C1049 C1050 1.397 . S
C1049 C1054 1.363 . S
C1050 H1027 0.950 . S
C1050 C1049 1.397 . S
C1050 C1051 1.334 . S
C1051 H1028 0.950 . S
C1051 C1050 1.334 . S
C1051 C1052 1.287 . S
C1052 C1051 1.287 . S
C1052 C1053 1.524 . S
C1052 H1071 0.913 . S
C1053 H1029 0.950 . S
C1053 C1052 1.524 . S
C1053 C1054 1.415 . S
C1054 H1030 0.950 . S
C1054 C1049 1.363 . S
C1054 C1053 1.415 . S
C1055 H1031 0.951 . S
C1055 C1056 1.366 . S
C1055 C1057 1.388 . S
C1056 C1055 1.366 . S
C1056 C1060 1.385 . S
C1057 H1032 0.951 . S
C1057 C1055 1.388 . S
C1057 C1058 1.366 . S
C1058 C1057 1.366 . S
C1058 C1059 1.414 . S
C1058 C1061 1.499 . S
C1059 H1033 0.950 . S
C1059 C1058 1.414 . S
C1059 C1060 1.374 . S
C1060 H1034 0.950 . S
C1060 C1056 1.385 . S
C1060 C1059 1.374 . S
C1061 C1058 1.499 . S
C1061 C1062 1.373 . S
C1061 C1063 1.389 . S
C1062 H1035 0.950 . S
C1062 C1048 1.377 . S
C1062 C1061 1.373 . S
C1063 C1047 1.377 . S
C1063 C1061 1.389 . S
C1063 C1064 1.524 . S
C1064 C1063 1.524 . S
C1064 C1065 1.397 . S
C1064 C1069 1.363 . S
C1065 H1036 0.950 . S
C1065 C1064 1.397 . S
C1065 C1066 1.334 1_655 S
C1066 H1037 0.950 . S
C1066 C1065 1.334 1_455 S
C1066 C1067 1.287 . S
C1067 C1066 1.287 . S
C1067 C1068 1.524 . S
C1067 H1070 0.999 . S
C1068 H1038 0.950 . S
C1068 C1067 1.524 . S
C1068 C1069 1.415 1_455 S
C1069 H1039 0.950 . S
C1069 C1064 1.363 . S
C1069 C1068 1.415 1_655 S
H1070 C1067 0.999 . S
H1071 C1052 0.913 . S
H1072 C1090 0.951 . S
H1073 C1092 0.951 . S
H1074 C1094 0.950 . S
H1075 C1095 0.950 . S
H1076 C1097 0.950 . S
H1077 C1100 0.950 . S
H1078 C1101 0.950 . S
H1079 C1103 0.950 . S
H1080 C1104 0.950 . S
H1081 C1105 0.951 . S
H1082 C1107 0.951 . S
H1083 C1109 0.950 . S
H1084 C1110 0.950 . S
H1085 C1112 0.950 . S
H1086 C1115 0.950 . S
H1087 C1116 0.950 . S
H1088 C1118 0.950 . S
H1089 C1119 0.950 . S
C1090 H1072 0.951 . S
C1090 C1091 1.366 . S
C1090 C1092 1.388 . S
C1091 C1090 1.366 . S
C1091 C1095 1.385 . S
C1092 H1073 0.951 . S
C1092 C1090 1.388 . S
C1092 C1093 1.366 . S
C1093 C1092 1.366 . S
C1093 C1094 1.414 . S
C1093 C1096 1.499 . S
C1094 H1074 0.950 . S
C1094 C1093 1.414 . S
C1094 C1095 1.374 . S
C1095 H1075 0.950 . S
C1095 C1091 1.385 . S
C1095 C1094 1.374 . S
C1096 C1093 1.499 . S
C1096 C1097 1.373 . S
C1096 C1098 1.389 . S
C1097 H1076 0.950 . S
C1097 C1096 1.373 . S
C1097 C1113 1.377 . S
C1098 C1096 1.389 . S
C1098 C1099 1.524 . S
C1098 C1112 1.377 . S
C1099 C1098 1.524 . S
C1099 C1100 1.397 . S
C1099 C1104 1.363 . S
C1100 H1077 0.950 . S
C1100 C1099 1.397 . S
C1100 C1101 1.334 . S
C1101 H1078 0.950 . S
C1101 C1100 1.334 . S
C1101 C1102 1.287 . S
C1102 C1101 1.287 . S
C1102 C1103 1.524 . S
C1102 H1121 0.913 . S
C1103 H1079 0.950 . S
C1103 C1102 1.524 . S
C1103 C1104 1.415 . S
C1104 H1080 0.950 . S
C1104 C1099 1.363 . S
C1104 C1103 1.415 . S
C1105 H1081 0.951 . S
C1105 C1106 1.366 . S
C1105 C1107 1.388 . S
C1106 C1105 1.366 . S
C1106 C1110 1.385 . S
C1107 H1082 0.951 . S
C1107 C1105 1.388 . S
C1107 C1108 1.366 . S
C1108 C1107 1.366 . S
C1108 C1109 1.414 . S
C1108 C1111 1.499 . S
C1109 H1083 0.950 . S
C1109 C1108 1.414 . S
C1109 C1110 1.374 . S
C1110 H1084 0.950 . S
C1110 C1106 1.385 . S
C1110 C1109 1.374 . S
C1111 C1108 1.499 . S
C1111 C1112 1.373 . S
C1111 C1113 1.389 . S
C1112 H1085 0.950 . S
C1112 C1098 1.377 . S
C1112 C1111 1.373 . S
C1113 C1097 1.377 . S
C1113 C1111 1.389 . S
C1113 C1114 1.524 . S
C1114 C1113 1.524 . S
C1114 C1115 1.397 . S
C1114 C1119 1.363 . S
C1115 H1086 0.950 . S
C1115 C1114 1.397 . S
C1115 C1116 1.334 . S
C1116 H1087 0.950 . S
C1116 C1115 1.334 . S
C1116 C1117 1.287 . S
C1117 C1116 1.287 . S
C1117 C1118 1.524 . S
C1117 H1120 0.999 1_655 S
C1118 H1088 0.950 . S
C1118 C1117 1.524 . S
C1118 C1119 1.415 . S
C1119 H1089 0.950 . S
C1119 C1114 1.363 . S
C1119 C1118 1.415 . S
H1120 C1117 0.999 1_455 S
H1121 C1102 0.913 . S
H1122 C1140 0.951 . S
H1123 C1142 0.951 . S
H1124 C1144 0.950 . S
H1125 C1145 0.950 . S
H1126 C1147 0.950 . S
H1127 C1150 0.950 . S
H1128 C1151 0.950 . S
H1129 C1153 0.950 . S
H1130 C1154 0.950 . S
H1131 C1155 0.951 . S
H1132 C1157 0.951 . S
H1133 C1159 0.950 . S
H1134 C1160 0.950 . S
H1135 C1162 0.950 . S
H1136 C1165 0.950 . S
H1137 C1166 0.950 . S
H1138 C1168 0.950 . S
H1139 C1169 0.950 . S
C1140 H1122 0.951 . S
C1140 C1141 1.366 . S
C1140 C1142 1.388 . S
C1141 C1140 1.366 . S
C1141 C1145 1.385 . S
C1142 H1123 0.951 . S
C1142 C1140 1.388 . S
C1142 C1143 1.366 . S
C1143 C1142 1.366 . S
C1143 C1144 1.414 . S
C1143 C1146 1.499 . S
C1144 H1124 0.950 . S
C1144 C1143 1.414 . S
C1144 C1145 1.374 . S
C1145 H1125 0.950 . S
C1145 C1141 1.385 . S
C1145 C1144 1.374 . S
C1146 C1143 1.499 . S
C1146 C1147 1.373 . S
C1146 C1148 1.389 . S
C1147 H1126 0.950 . S
C1147 C1146 1.373 . S
C1147 C1163 1.377 . S
C1148 C1146 1.389 . S
C1148 C1149 1.524 . S
C1148 C1162 1.377 . S
C1149 C1148 1.524 . S
C1149 C1150 1.397 . S
C1149 C1154 1.363 . S
C1150 H1127 0.950 . S
C1150 C1149 1.397 . S
C1150 C1151 1.334 . S
C1151 H1128 0.950 . S
C1151 C1150 1.334 . S
C1151 C1152 1.287 . S
C1152 C1151 1.287 . S
C1152 C1153 1.524 . S
C1152 H1171 0.913 . S
C1153 H1129 0.950 . S
C1153 C1152 1.524 . S
C1153 C1154 1.415 . S
C1154 H1130 0.950 . S
C1154 C1149 1.363 . S
C1154 C1153 1.415 . S
C1155 H1131 0.951 . S
C1155 C1156 1.366 . S
C1155 C1157 1.388 . S
C1156 C1155 1.366 . S
C1156 C1160 1.385 . S
C1157 H1132 0.951 . S
C1157 C1155 1.388 . S
C1157 C1158 1.366 . S
C1158 C1157 1.366 . S
C1158 C1159 1.414 . S
C1158 C1161 1.499 . S
C1159 H1133 0.950 . S
C1159 C1158 1.414 . S
C1159 C1160 1.374 . S
C1160 H1134 0.950 . S
C1160 C1156 1.385 . S
C1160 C1159 1.374 . S
C1161 C1158 1.499 . S
C1161 C1162 1.373 . S
C1161 C1163 1.389 . S
C1162 H1135 0.950 . S
C1162 C1148 1.377 . S
C1162 C1161 1.373 . S
C1163 C1147 1.377 . S
C1163 C1161 1.389 . S
C1163 C1164 1.524 . S
C1164 C1163 1.524 . S
C1164 C1165 1.397 . S
C1164 C1169 1.363 . S
C1165 H1136 0.950 . S
C1165 C1164 1.397 . S
C1165 C1166 1.334 . S
C1166 H1137 0.950 . S
C1166 C1165 1.334 . S
C1166 C1167 1.287 . S
C1167 C1166 1.287 . S
C1167 C1168 1.524 . S
C1167 H1170 0.999 . S
C1168 H1138 0.950 . S
C1168 C1167 1.524 . S
C1168 C1169 1.415 . S
C1169 H1139 0.950 . S
C1169 C1164 1.363 . S
C1169 C1168 1.415 . S
H1170 C1167 0.999 . S
H1171 C1152 0.913 . S
H1172 C1190 0.951 . S
H1173 C1192 0.951 . S
H1174 C1194 0.950 . S
H1175 C1195 0.950 . S
H1176 C1197 0.950 . S
H1177 C1200 0.950 . S
H1178 C1201 0.950 . S
H1179 C1203 0.950 . S
H1180 C1204 0.950 . S
H1181 C1205 0.951 . S
H1182 C1207 0.951 . S
H1183 C1209 0.950 . S
H1184 C1210 0.950 . S
H1185 C1212 0.950 . S
H1186 C1215 0.950 . S
H1187 C1216 0.950 . S
H1188 C1218 0.950 . S
H1189 C1219 0.950 . S
C1190 H1172 0.951 . S
C1190 C1191 1.366 . S
C1190 C1192 1.388 . S
C1191 C1190 1.366 . S
C1191 C1195 1.385 . S
C1192 H1173 0.951 . S
C1192 C1190 1.388 . S
C1192 C1193 1.366 . S
C1193 C1192 1.366 . S
C1193 C1194 1.414 . S
C1193 C1196 1.499 . S
C1194 H1174 0.950 . S
C1194 C1193 1.414 . S
C1194 C1195 1.374 . S
C1195 H1175 0.950 . S
C1195 C1191 1.385 . S
C1195 C1194 1.374 . S
C1196 C1193 1.499 . S
C1196 C1197 1.373 . S
C1196 C1198 1.389 . S
C1197 H1176 0.950 . S
C1197 C1196 1.373 . S
C1197 C1213 1.377 . S
C1198 C1196 1.389 . S
C1198 C1199 1.524 . S
C1198 C1212 1.377 . S
C1199 C1198 1.524 . S
C1199 C1200 1.397 . S
C1199 C1204 1.363 . S
C1200 H1177 0.950 . S
C1200 C1199 1.397 . S
C1200 C1201 1.334 . S
C1201 H1178 0.950 . S
C1201 C1200 1.334 . S
C1201 C1202 1.287 . S
C1202 C1201 1.287 . S
C1202 C1203 1.524 . S
C1202 H1221 0.913 . S
C1203 H1179 0.950 . S
C1203 C1202 1.524 . S
C1203 C1204 1.415 . S
C1204 H1180 0.950 . S
C1204 C1199 1.363 . S
C1204 C1203 1.415 . S
C1205 H1181 0.951 . S
C1205 C1206 1.366 . S
C1205 C1207 1.388 . S
C1206 C1205 1.366 . S
C1206 C1210 1.385 . S
C1207 H1182 0.951 . S
C1207 C1205 1.388 . S
C1207 C1208 1.366 . S
C1208 C1207 1.366 . S
C1208 C1209 1.414 . S
C1208 C1211 1.499 . S
C1209 H1183 0.950 . S
C1209 C1208 1.414 . S
C1209 C1210 1.374 . S
C1210 H1184 0.950 . S
C1210 C1206 1.385 . S
C1210 C1209 1.374 . S
C1211 C1208 1.499 . S
C1211 C1212 1.373 . S
C1211 C1213 1.389 . S
C1212 H1185 0.950 . S
C1212 C1198 1.377 . S
C1212 C1211 1.373 . S
C1213 C1197 1.377 . S
C1213 C1211 1.389 . S
C1213 C1214 1.524 . S
C1214 C1213 1.524 . S
C1214 C1215 1.397 . S
C1214 C1219 1.363 . S
C1215 H1186 0.950 . S
C1215 C1214 1.397 . S
C1215 C1216 1.334 . S
C1216 H1187 0.950 . S
C1216 C1215 1.334 . S
C1216 C1217 1.287 . S
C1217 C1216 1.287 . S
C1217 C1218 1.524 . S
C1217 H1220 0.999 . S
C1218 H1188 0.950 . S
C1218 C1217 1.524 . S
C1218 C1219 1.415 . S
C1219 H1189 0.950 . S
C1219 C1214 1.363 . S
C1219 C1218 1.415 . S
H1220 C1217 0.999 . S
H1221 C1202 0.913 . S
H1222 C1240 0.951 . S
H1223 C1242 0.951 . S
H1224 C1244 0.950 . S
H1225 C1245 0.950 . S
H1226 C1247 0.950 . S
H1227 C1250 0.950 . S
H1228 C1251 0.950 . S
H1229 C1253 0.950 . S
H1230 C1254 0.950 . S
H1231 C1255 0.951 . S
H1232 C1257 0.951 . S
H1233 C1259 0.950 . S
H1234 C1260 0.950 . S
H1235 C1262 0.950 . S
H1236 C1265 0.950 . S
H1237 C1266 0.950 . S
H1238 C1268 0.950 . S
H1239 C1269 0.950 . S
C1240 H1222 0.951 . S
C1240 C1241 1.366 . S
C1240 C1242 1.388 . S
C1241 C1240 1.366 . S
C1241 C1245 1.385 . S
C1242 H1223 0.951 . S
C1242 C1240 1.388 . S
C1242 C1243 1.366 . S
C1243 C1242 1.366 . S
C1243 C1244 1.414 . S
C1243 C1246 1.499 . S
C1244 H1224 0.950 . S
C1244 C1243 1.414 . S
C1244 C1245 1.374 . S
C1245 H1225 0.950 . S
C1245 C1241 1.385 . S
C1245 C1244 1.374 . S
C1246 C1243 1.499 . S
C1246 C1247 1.373 . S
C1246 C1248 1.389 . S
C1247 H1226 0.950 . S
C1247 C1246 1.373 . S
C1247 C1263 1.377 . S
C1248 C1246 1.389 . S
C1248 C1249 1.524 . S
C1248 C1262 1.377 . S
C1249 C1248 1.524 . S
C1249 C1250 1.397 . S
C1249 C1254 1.363 . S
C1250 H1227 0.950 . S
C1250 C1249 1.397 . S
C1250 C1251 1.334 . S
C1251 H1228 0.950 . S
C1251 C1250 1.334 . S
C1251 C1252 1.287 . S
C1252 C1251 1.287 . S
C1252 C1253 1.524 . S
C1252 H1271 0.913 . S
C1253 H1229 0.950 . S
C1253 C1252 1.524 . S
C1253 C1254 1.415 . S
C1254 H1230 0.950 . S
C1254 C1249 1.363 . S
C1254 C1253 1.415 . S
C1255 H1231 0.951 . S
C1255 C1256 1.366 . S
C1255 C1257 1.388 . S
C1256 C1255 1.366 . S
C1256 C1260 1.385 . S
C1257 H1232 0.951 . S
C1257 C1255 1.388 . S
C1257 C1258 1.366 . S
C1258 C1257 1.366 . S
C1258 C1259 1.414 . S
C1258 C1261 1.499 . S
C1259 H1233 0.950 . S
C1259 C1258 1.414 . S
C1259 C1260 1.374 . S
C1260 H1234 0.950 . S
C1260 C1256 1.385 . S
C1260 C1259 1.374 . S
C1261 C1258 1.499 . S
C1261 C1262 1.373 . S
C1261 C1263 1.389 . S
C1262 H1235 0.950 . S
C1262 C1248 1.377 . S
C1262 C1261 1.373 . S
C1263 C1247 1.377 . S
C1263 C1261 1.389 . S
C1263 C1264 1.524 . S
C1264 C1263 1.524 . S
C1264 C1265 1.397 . S
C1264 C1269 1.363 . S
C1265 H1236 0.950 . S
C1265 C1264 1.397 . S
C1265 C1266 1.334 . S
C1266 H1237 0.950 . S
C1266 C1265 1.334 . S
C1266 C1267 1.287 . S
C1267 C1266 1.287 . S
C1267 C1268 1.524 . S
C1267 H1270 0.999 . S
C1268 H1238 0.950 . S
C1268 C1267 1.524 . S
C1268 C1269 1.415 . S
C1269 H1239 0.950 . S
C1269 C1264 1.363 . S
C1269 C1268 1.415 . S
H1270 C1267 0.999 . S
H1271 C1252 0.913 . S
H1272 C1290 0.951 . S
H1273 C1292 0.951 . S
H1274 C1294 0.950 . S
H1275 C1295 0.950 . S
H1276 C1297 0.950 . S
H1277 C1300 0.950 . S
H1278 C1301 0.950 . S
H1279 C1303 0.950 . S
H1280 C1304 0.950 . S
H1281 C1305 0.951 . S
H1282 C1307 0.951 . S
H1283 C1309 0.950 . S
H1284 C1310 0.950 . S
H1285 C1312 0.950 . S
H1286 C1315 0.950 . S
H1287 C1316 0.950 . S
H1288 C1318 0.950 . S
H1289 C1319 0.950 . S
C1290 H1272 0.951 . S
C1290 C1291 1.366 . S
C1290 C1292 1.388 . S
C1291 C1290 1.366 . S
C1291 C1295 1.385 . S
C1292 H1273 0.951 . S
C1292 C1290 1.388 . S
C1292 C1293 1.366 . S
C1293 C1292 1.366 . S
C1293 C1294 1.414 . S
C1293 C1296 1.499 . S
C1294 H1274 0.950 . S
C1294 C1293 1.414 . S
C1294 C1295 1.374 . S
C1295 H1275 0.950 . S
C1295 C1291 1.385 . S
C1295 C1294 1.374 . S
C1296 C1293 1.499 . S
C1296 C1297 1.373 . S
C1296 C1298 1.389 . S
C1297 H1276 0.950 . S
C1297 C1296 1.373 . S
C1297 C1313 1.377 . S
C1298 C1296 1.389 . S
C1298 C1299 1.524 . S
C1298 C1312 1.377 . S
C1299 C1298 1.524 . S
C1299 C1300 1.397 . S
C1299 C1304 1.363 . S
C1300 H1277 0.950 . S
C1300 C1299 1.397 . S
C1300 C1301 1.334 . S
C1301 H1278 0.950 . S
C1301 C1300 1.334 . S
C1301 C1302 1.287 . S
C1302 C1301 1.287 . S
C1302 C1303 1.524 . S
C1302 H1321 0.913 . S
C1303 H1279 0.950 . S
C1303 C1302 1.524 . S
C1303 C1304 1.415 . S
C1304 H1280 0.950 . S
C1304 C1299 1.363 . S
C1304 C1303 1.415 . S
C1305 H1281 0.951 . S
C1305 C1306 1.366 . S
C1305 C1307 1.388 . S
C1306 C1305 1.366 . S
C1306 C1310 1.385 . S
C1307 H1282 0.951 . S
C1307 C1305 1.388 . S
C1307 C1308 1.366 . S
C1308 C1307 1.366 . S
C1308 C1309 1.414 . S
C1308 C1311 1.499 . S
C1309 H1283 0.950 . S
C1309 C1308 1.414 . S
C1309 C1310 1.374 . S
C1310 H1284 0.950 . S
C1310 C1306 1.385 . S
C1310 C1309 1.374 . S
C1311 C1308 1.499 . S
C1311 C1312 1.373 . S
C1311 C1313 1.389 . S
C1312 H1285 0.950 . S
C1312 C1298 1.377 . S
C1312 C1311 1.373 . S
C1313 C1297 1.377 . S
C1313 C1311 1.389 . S
C1313 C1314 1.524 . S
C1314 C1313 1.524 . S
C1314 C1315 1.397 . S
C1314 C1319 1.363 . S
C1315 H1286 0.950 . S
C1315 C1314 1.397 . S
C1315 C1316 1.334 . S
C1316 H1287 0.950 . S
C1316 C1315 1.334 . S
C1316 C1317 1.287 . S
C1317 C1316 1.287 . S
C1317 C1318 1.524 . S
C1317 H1320 0.999 . S
C1318 H1288 0.950 . S
C1318 C1317 1.524 . S
C1318 C1319 1.415 . S
C1319 H1289 0.950 . S
C1319 C1314 1.363 . S
C1319 C1318 1.415 . S
H1320 C1317 0.999 . S
H1321 C1302 0.913 . S
H1322 C1340 0.951 . S
H1323 C1342 0.951 . S
H1324 C1344 0.950 . S
H1325 C1345 0.950 . S
H1326 C1347 0.950 . S
H1327 C1350 0.950 . S
H1328 C1351 0.950 . S
H1329 C1353 0.950 . S
H1330 C1354 0.950 . S
H1331 C1355 0.951 . S
H1332 C1357 0.951 . S
H1333 C1359 0.950 . S
H1334 C1360 0.950 . S
H1335 C1362 0.950 . S
H1336 C1365 0.950 . S
H1337 C1366 0.950 . S
H1338 C1368 0.950 . S
H1339 C1369 0.950 . S
C1340 H1322 0.951 . S
C1340 C1341 1.366 . S
C1340 C1342 1.388 . S
C1341 C1340 1.366 . S
C1341 C1345 1.385 . S
C1342 H1323 0.951 . S
C1342 C1340 1.388 . S
C1342 C1343 1.366 . S
C1343 C1342 1.366 . S
C1343 C1344 1.414 . S
C1343 C1346 1.499 . S
C1344 H1324 0.950 . S
C1344 C1343 1.414 . S
C1344 C1345 1.374 . S
C1345 H1325 0.950 . S
C1345 C1341 1.385 . S
C1345 C1344 1.374 . S
C1346 C1343 1.499 . S
C1346 C1347 1.373 . S
C1346 C1348 1.389 . S
C1347 H1326 0.950 . S
C1347 C1346 1.373 . S
C1347 C1363 1.377 . S
C1348 C1346 1.389 . S
C1348 C1349 1.524 . S
C1348 C1362 1.377 . S
C1349 C1348 1.524 . S
C1349 C1350 1.397 . S
C1349 C1354 1.363 . S
C1350 H1327 0.950 . S
C1350 C1349 1.397 . S
C1350 C1351 1.334 . S
C1351 H1328 0.950 . S
C1351 C1350 1.334 . S
C1351 C1352 1.287 . S
C1352 C1351 1.287 . S
C1352 C1353 1.524 . S
C1352 H1371 0.913 . S
C1353 H1329 0.950 . S
C1353 C1352 1.524 . S
C1353 C1354 1.415 . S
C1354 H1330 0.950 . S
C1354 C1349 1.363 . S
C1354 C1353 1.415 . S
C1355 H1331 0.951 . S
C1355 C1356 1.366 . S
C1355 C1357 1.388 . S
C1356 C1355 1.366 . S
C1356 C1360 1.385 . S
C1357 H1332 0.951 . S
C1357 C1355 1.388 . S
C1357 C1358 1.366 . S
C1358 C1357 1.366 . S
C1358 C1359 1.414 . S
C1358 C1361 1.499 . S
C1359 H1333 0.950 . S
C1359 C1358 1.414 . S
C1359 C1360 1.374 . S
C1360 H1334 0.950 . S
C1360 C1356 1.385 . S
C1360 C1359 1.374 . S
C1361 C1358 1.499 . S
C1361 C1362 1.373 . S
C1361 C1363 1.389 . S
C1362 H1335 0.950 . S
C1362 C1348 1.377 . S
C1362 C1361 1.373 . S
C1363 C1347 1.377 . S
C1363 C1361 1.389 . S
C1363 C1364 1.524 . S
C1364 C1363 1.524 . S
C1364 C1365 1.397 . S
C1364 C1369 1.363 . S
C1365 H1336 0.950 . S
C1365 C1364 1.397 . S
C1365 C1366 1.334 . S
C1366 H1337 0.950 . S
C1366 C1365 1.334 . S
C1366 C1367 1.287 . S
C1367 C1366 1.287 . S
C1367 C1368 1.524 . S
C1367 H1370 0.999 . S
C1368 H1338 0.950 . S
C1368 C1367 1.524 . S
C1368 C1369 1.415 . S
C1369 H1339 0.950 . S
C1369 C1364 1.363 . S
C1369 C1368 1.415 . S
H1370 C1367 0.999 . S
H1371 C1352 0.913 . S
H1372 C1390 0.951 . S
H1373 C1392 0.951 . S
H1374 C1394 0.950 . S
H1375 C1395 0.950 . S
H1376 C1397 0.950 . S
H1377 C1400 0.950 . S
H1378 C1401 0.950 . S
H1379 C1403 0.950 . S
H1380 C1404 0.950 . S
H1381 C1405 0.951 . S
H1382 C1407 0.951 . S
H1383 C1409 0.950 . S
H1384 C1410 0.950 . S
H1385 C1412 0.950 . S
H1386 C1415 0.950 . S
H1387 C1416 0.950 . S
H1388 C1418 0.950 . S
H1389 C1419 0.950 . S
C1390 H1372 0.951 . S
C1390 C1391 1.366 . S
C1390 C1392 1.388 . S
C1391 C1390 1.366 . S
C1391 C1395 1.385 . S
C1392 H1373 0.951 . S
C1392 C1390 1.388 . S
C1392 C1393 1.366 . S
C1393 C1392 1.366 . S
C1393 C1394 1.414 . S
C1393 C1396 1.499 . S
C1394 H1374 0.950 . S
C1394 C1393 1.414 . S
C1394 C1395 1.374 . S
C1395 H1375 0.950 . S
C1395 C1391 1.385 . S
C1395 C1394 1.374 . S
C1396 C1393 1.499 . S
C1396 C1397 1.373 . S
C1396 C1398 1.389 . S
C1397 H1376 0.950 . S
C1397 C1396 1.373 . S
C1397 C1413 1.377 . S
C1398 C1396 1.389 . S
C1398 C1399 1.524 . S
C1398 C1412 1.377 . S
C1399 C1398 1.524 . S
C1399 C1400 1.397 . S
C1399 C1404 1.363 . S
C1400 H1377 0.950 . S
C1400 C1399 1.397 . S
C1400 C1401 1.334 . S
C1401 H1378 0.950 . S
C1401 C1400 1.334 . S
C1401 C1402 1.287 . S
C1402 C1401 1.287 . S
C1402 C1403 1.524 . S
C1402 H1421 0.913 . S
C1403 H1379 0.950 . S
C1403 C1402 1.524 . S
C1403 C1404 1.415 . S
C1404 H1380 0.950 . S
C1404 C1399 1.363 . S
C1404 C1403 1.415 . S
C1405 H1381 0.951 . S
C1405 C1406 1.366 . S
C1405 C1407 1.388 . S
C1406 C1405 1.366 . S
C1406 C1410 1.385 . S
C1407 H1382 0.951 . S
C1407 C1405 1.388 . S
C1407 C1408 1.366 . S
C1408 C1407 1.366 . S
C1408 C1409 1.414 . S
C1408 C1411 1.499 . S
C1409 H1383 0.950 . S
C1409 C1408 1.414 . S
C1409 C1410 1.374 . S
C1410 H1384 0.950 . S
C1410 C1406 1.385 . S
C1410 C1409 1.374 . S
C1411 C1408 1.499 . S
C1411 C1412 1.373 . S
C1411 C1413 1.389 . S
C1412 H1385 0.950 . S
C1412 C1398 1.377 . S
C1412 C1411 1.373 . S
C1413 C1397 1.377 . S
C1413 C1411 1.389 . S
C1413 C1414 1.524 . S
C1414 C1413 1.524 . S
C1414 C1415 1.397 . S
C1414 C1419 1.363 . S
C1415 H1386 0.950 . S
C1415 C1414 1.397 . S
C1415 C1416 1.334 . S
C1416 H1387 0.950 . S
C1416 C1415 1.334 . S
C1416 C1417 1.287 . S
C1417 C1416 1.287 . S
C1417 C1418 1.524 . S
C1417 H1420 0.999 . S
C1418 H1388 0.950 . S
C1418 C1417 1.524 . S
C1418 C1419 1.415 . S
C1419 H1389 0.950 . S
C1419 C1414 1.363 . S
C1419 C1418 1.415 . S
H1420 C1417 0.999 . S
H1421 C1402 0.913 . S
H1422 C1440 0.951 . S
H1423 C1442 0.951 . S
H1424 C1444 0.950 . S
H1425 C1445 0.950 . S
H1426 C1447 0.950 . S
H1427 C1450 0.950 . S
H1428 C1451 0.950 . S
H1429 C1453 0.950 . S
H1430 C1454 0.950 . S
H1431 C1455 0.951 . S
H1432 C1457 0.951 . S
H1433 C1459 0.950 . S
H1434 C1460 0.950 . S
H1435 C1462 0.950 . S
H1436 C1465 0.950 . S
H1437 C1466 0.950 . S
H1438 C1468 0.950 . S
H1439 C1469 0.950 . S
C1440 H1422 0.951 . S
C1440 C1441 1.366 . S
C1440 C1442 1.388 . S
C1441 C1440 1.366 . S
C1441 C1445 1.385 . S
C1442 H1423 0.951 . S
C1442 C1440 1.388 . S
C1442 C1443 1.366 . S
C1443 C1442 1.366 . S
C1443 C1444 1.414 . S
C1443 C1446 1.499 . S
C1444 H1424 0.950 . S
C1444 C1443 1.414 . S
C1444 C1445 1.374 . S
C1445 H1425 0.950 . S
C1445 C1441 1.385 . S
C1445 C1444 1.374 . S
C1446 C1443 1.499 . S
C1446 C1447 1.373 . S
C1446 C1448 1.389 . S
C1447 H1426 0.950 . S
C1447 C1446 1.373 . S
C1447 C1463 1.377 . S
C1448 C1446 1.389 . S
C1448 C1449 1.524 . S
C1448 C1462 1.377 . S
C1449 C1448 1.524 . S
C1449 C1450 1.397 . S
C1449 C1454 1.363 . S
C1450 H1427 0.950 . S
C1450 C1449 1.397 . S
C1450 C1451 1.334 . S
C1451 H1428 0.950 . S
C1451 C1450 1.334 . S
C1451 C1452 1.287 . S
C1452 C1451 1.287 . S
C1452 C1453 1.524 . S
C1452 H1471 0.913 . S
C1453 H1429 0.950 . S
C1453 C1452 1.524 . S
C1453 C1454 1.415 . S
C1454 H1430 0.950 . S
C1454 C1449 1.363 . S
C1454 C1453 1.415 . S
C1455 H1431 0.951 . S
C1455 C1456 1.366 . S
C1455 C1457 1.388 . S
C1456 C1455 1.366 . S
C1456 C1460 1.385 . S
C1457 H1432 0.951 . S
C1457 C1455 1.388 . S
C1457 C1458 1.366 . S
C1458 C1457 1.366 . S
C1458 C1459 1.414 . S
C1458 C1461 1.499 . S
C1459 H1433 0.950 . S
C1459 C1458 1.414 . S
C1459 C1460 1.374 . S
C1460 H1434 0.950 . S
C1460 C1456 1.385 . S
C1460 C1459 1.374 . S
C1461 C1458 1.499 . S
C1461 C1462 1.373 . S
C1461 C1463 1.389 . S
C1462 H1435 0.950 . S
C1462 C1448 1.377 . S
C1462 C1461 1.373 . S
C1463 C1447 1.377 . S
C1463 C1461 1.389 . S
C1463 C1464 1.524 . S
C1464 C1463 1.524 . S
C1464 C1465 1.397 . S
C1464 C1469 1.363 . S
C1465 H1436 0.950 . S
C1465 C1464 1.397 . S
C1465 C1466 1.334 . S
C1466 H1437 0.950 . S
C1466 C1465 1.334 . S
C1466 C1467 1.287 . S
C1467 C1466 1.287 . S
C1467 C1468 1.524 . S
C1467 H1470 0.999 . S
C1468 H1438 0.950 . S
C1468 C1467 1.524 . S
C1468 C1469 1.415 . S
C1469 H1439 0.950 . S
C1469 C1464 1.363 . S
C1469 C1468 1.415 . S
H1470 C1467 0.999 . S
H1471 C1452 0.913 . S
H1472 C1490 0.951 . S
H1473 C1492 0.951 . S
H1474 C1494 0.950 . S
H1475 C1495 0.950 . S
H1476 C1497 0.950 . S
H1477 C1500 0.950 . S
H1478 C1501 0.950 . S
H1479 C1503 0.950 . S
H1480 C1504 0.950 . S
H1481 C1505 0.951 . S
H1482 C1507 0.951 . S
H1483 C1509 0.950 . S
H1484 C1510 0.950 . S
H1485 C1512 0.950 . S
H1486 C1515 0.950 . S
H1487 C1516 0.950 . S
H1488 C1518 0.950 . S
H1489 C1519 0.950 . S
C1490 H1472 0.951 . S
C1490 C1491 1.366 . S
C1490 C1492 1.388 . S
C1491 C1490 1.366 . S
C1491 C1495 1.385 . S
C1492 H1473 0.951 . S
C1492 C1490 1.388 . S
C1492 C1493 1.366 . S
C1493 C1492 1.366 . S
C1493 C1494 1.414 . S
C1493 C1496 1.499 . S
C1494 H1474 0.950 . S
C1494 C1493 1.414 . S
C1494 C1495 1.374 . S
C1495 H1475 0.950 . S
C1495 C1491 1.385 . S
C1495 C1494 1.374 . S
C1496 C1493 1.499 . S
C1496 C1497 1.373 . S
C1496 C1498 1.389 . S
C1497 H1476 0.950 . S
C1497 C1496 1.373 . S
C1497 C1513 1.377 . S
C1498 C1496 1.389 . S
C1498 C1499 1.524 . S
C1498 C1512 1.377 . S
C1499 C1498 1.524 . S
C1499 C1500 1.397 . S
C1499 C1504 1.363 . S
C1500 H1477 0.950 . S
C1500 C1499 1.397 . S
C1500 C1501 1.334 . S
C1501 H1478 0.950 . S
C1501 C1500 1.334 . S
C1501 C1502 1.287 . S
C1502 C1501 1.287 . S
C1502 C1503 1.524 . S
C1502 H1521 0.913 . S
C1503 H1479 0.950 . S
C1503 C1502 1.524 . S
C1503 C1504 1.415 . S
C1504 H1480 0.950 . S
C1504 C1499 1.363 . S
C1504 C1503 1.415 . S
C1505 H1481 0.951 . S
C1505 C1506 1.366 . S
C1505 C1507 1.388 . S
C1506 C1505 1.366 . S
C1506 C1510 1.385 . S
C1507 H1482 0.951 . S
C1507 C1505 1.388 . S
C1507 C1508 1.366 . S
C1508 C1507 1.366 . S
C1508 C1509 1.414 . S
C1508 C1511 1.499 . S
C1509 H1483 0.950 . S
C1509 C1508 1.414 . S
C1509 C1510 1.374 . S
C1510 H1484 0.950 . S
C1510 C1506 1.385 . S
C1510 C1509 1.374 . S
C1511 C1508 1.499 . S
C1511 C1512 1.373 . S
C1511 C1513 1.389 . S
C1512 H1485 0.950 . S
C1512 C1498 1.377 . S
C1512 C1511 1.373 . S
C1513 C1497 1.377 . S
C1513 C1511 1.389 . S
C1513 C1514 1.524 . S
C1514 C1513 1.524 . S
C1514 C1515 1.397 . S
C1514 C1519 1.363 . S
C1515 H1486 0.950 . S
C1515 C1514 1.397 . S
C1515 C1516 1.334 . S
C1516 H1487 0.950 . S
C1516 C1515 1.334 . S
C1516 C1517 1.287 . S
C1517 C1516 1.287 . S
C1517 C1518 1.524 . S
C1517 H1520 0.999 . S
C1518 H1488 0.950 . S
C1518 C1517 1.524 . S
C1518 C1519 1.415 . S
C1519 H1489 0.950 . S
C1519 C1514 1.363 . S
C1519 C1518 1.415 . S
H1520 C1517 0.999 . S
H1521 C1502 0.913 . S
H1522 C1540 0.951 . S
H1523 C1542 0.951 . S
H1524 C1544 0.950 . S
H1525 C1545 0.950 . S
H1526 C1547 0.950 . S
H1527 C1550 0.950 . S
H1528 C1551 0.950 . S
H1529 C1553 0.950 . S
H1530 C1554 0.950 . S
H1531 C1555 0.951 . S
H1532 C1557 0.951 . S
H1533 C1559 0.950 . S
H1534 C1560 0.950 . S
H1535 C1562 0.950 . S
H1536 C1565 0.950 . S
H1537 C1566 0.950 . S
H1538 C1568 0.950 . S
H1539 C1569 0.950 . S
C1540 H1522 0.951 . S
C1540 C1541 1.366 . S
C1540 C1542 1.388 . S
C1541 C1540 1.366 . S
C1541 C1545 1.385 . S
C1542 H1523 0.951 . S
C1542 C1540 1.388 . S
C1542 C1543 1.366 . S
C1543 C1542 1.366 . S
C1543 C1544 1.414 . S
C1543 C1546 1.499 . S
C1544 H1524 0.950 . S
C1544 C1543 1.414 . S
C1544 C1545 1.374 . S
C1545 H1525 0.950 . S
C1545 C1541 1.385 . S
C1545 C1544 1.374 . S
C1546 C1543 1.499 . S
C1546 C1547 1.373 . S
C1546 C1548 1.389 . S
C1547 H1526 0.950 . S
C1547 C1546 1.373 . S
C1547 C1563 1.377 . S
C1548 C1546 1.389 . S
C1548 C1549 1.524 . S
C1548 C1562 1.377 . S
C1549 C1548 1.524 . S
C1549 C1550 1.397 . S
C1549 C1554 1.363 . S
C1550 H1527 0.950 . S
C1550 C1549 1.397 . S
C1550 C1551 1.334 . S
C1551 H1528 0.950 . S
C1551 C1550 1.334 . S
C1551 C1552 1.287 . S
C1552 C1551 1.287 . S
C1552 C1553 1.524 . S
C1552 H1571 0.913 . S
C1553 H1529 0.950 . S
C1553 C1552 1.524 . S
C1553 C1554 1.415 . S
C1554 H1530 0.950 . S
C1554 C1549 1.363 . S
C1554 C1553 1.415 . S
C1555 H1531 0.951 . S
C1555 C1556 1.366 . S
C1555 C1557 1.388 . S
C1556 C1555 1.366 . S
C1556 C1560 1.385 . S
C1557 H1532 0.951 . S
C1557 C1555 1.388 . S
C1557 C1558 1.366 . S
C1558 C1557 1.366 . S
C1558 C1559 1.414 . S
C1558 C1561 1.499 . S
C1559 H1533 0.950 . S
C1559 C1558 1.414 . S
C1559 C1560 1.374 . S
C1560 H1534 0.950 . S
C1560 C1556 1.385 . S
C1560 C1559 1.374 . S
C1561 C1558 1.499 . S
C1561 C1562 1.373 . S
C1561 C1563 1.389 . S
C1562 H1535 0.950 . S
C1562 C1548 1.377 . S
C1562 C1561 1.373 . S
C1563 C1547 1.377 . S
C1563 C1561 1.389 . S
C1563 C1564 1.524 . S
C1564 C1563 1.524 . S
C1564 C1565 1.397 . S
C1564 C1569 1.363 . S
C1565 H1536 0.950 . S
C1565 C1564 1.397 . S
C1565 C1566 1.334 . S
C1566 H1537 0.950 . S
C1566 C1565 1.334 . S
C1566 C1567 1.287 . S
C1567 C1566 1.287 . S
C1567 C1568 1.524 . S
C1567 H1570 0.999 . S
C1568 H1538 0.950 . S
C1568 C1567 1.524 . S
C1568 C1569 1.415 . S
C1569 H1539 0.950 . S
C1569 C1564 1.363 . S
C1569 C1568 1.415 . S
H1570 C1567 0.999 . S
H1571 C1552 0.913 . S
H1572 C1590 0.951 . S
H1573 C1592 0.951 . S
H1574 C1594 0.950 . S
H1575 C1595 0.950 . S
H1576 C1597 0.950 . S
H1577 C1600 0.950 . S
H1578 C1601 0.950 . S
H1579 C1603 0.950 . S
H1580 C1604 0.950 . S
H1581 C1605 0.951 . S
H1582 C1607 0.951 . S
H1583 C1609 0.950 . S
H1584 C1610 0.950 . S
H1585 C1612 0.950 . S
H1586 C1615 0.950 . S
H1587 C1616 0.950 . S
H1588 C1618 0.950 . S
H1589 C1619 0.950 . S
C1590 H1572 0.951 . S
C1590 C1591 1.366 . S
C1590 C1592 1.388 . S
C1591 C1590 1.366 . S
C1591 C1595 1.385 . S
C1592 H1573 0.951 . S
C1592 C1590 1.388 . S
C1592 C1593 1.366 . S
C1593 C1592 1.366 . S
C1593 C1594 1.414 . S
C1593 C1596 1.499 . S
C1594 H1574 0.950 . S
C1594 C1593 1.414 . S
C1594 C1595 1.374 . S
C1595 H1575 0.950 . S
C1595 C1591 1.385 . S
C1595 C1594 1.374 . S
C1596 C1593 1.499 . S
C1596 C1597 1.373 . S
C1596 C1598 1.389 . S
C1597 H1576 0.950 . S
C1597 C1596 1.373 . S
C1597 C1613 1.377 . S
C1598 C1596 1.389 . S
C1598 C1599 1.524 . S
C1598 C1612 1.377 . S
C1599 C1598 1.524 . S
C1599 C1600 1.397 . S
C1599 C1604 1.363 . S
C1600 H1577 0.950 . S
C1600 C1599 1.397 . S
C1600 C1601 1.334 . S
C1601 H1578 0.950 . S
C1601 C1600 1.334 . S
C1601 C1602 1.287 . S
C1602 C1601 1.287 . S
C1602 C1603 1.524 . S
C1602 H1621 0.913 . S
C1603 H1579 0.950 . S
C1603 C1602 1.524 . S
C1603 C1604 1.415 . S
C1604 H1580 0.950 . S
C1604 C1599 1.363 . S
C1604 C1603 1.415 . S
C1605 H1581 0.951 . S
C1605 C1606 1.366 . S
C1605 C1607 1.388 . S
C1606 C1605 1.366 . S
C1606 C1610 1.385 . S
C1607 H1582 0.951 . S
C1607 C1605 1.388 . S
C1607 C1608 1.366 . S
C1608 C1607 1.366 . S
C1608 C1609 1.414 . S
C1608 C1611 1.499 . S
C1609 H1583 0.950 . S
C1609 C1608 1.414 . S
C1609 C1610 1.374 . S
C1610 H1584 0.950 . S
C1610 C1606 1.385 . S
C1610 C1609 1.374 . S
C1611 C1608 1.499 . S
C1611 C1612 1.373 . S
C1611 C1613 1.389 . S
C1612 H1585 0.950 . S
C1612 C1598 1.377 . S
C1612 C1611 1.373 . S
C1613 C1597 1.377 . S
C1613 C1611 1.389 . S
C1613 C1614 1.524 . S
C1614 C1613 1.524 . S
C1614 C1615 1.397 . S
C1614 C1619 1.363 . S
C1615 H1586 0.950 . S
C1615 C1614 1.397 . S
C1615 C1616 1.334 . S
C1616 H1587 0.950 . S
C1616 C1615 1.334 . S
C1616 C1617 1.287 . S
C1617 C1616 1.287 . S
C1617 C1618 1.524 . S
C1617 H1620 0.999 . S
C1618 H1588 0.950 . S
C1618 C1617 1.524 . S
C1618 C1619 1.415 . S
C1619 H1589 0.950 . S
C1619 C1614 1.363 . S
C1619 C1618 1.415 . S
H1620 C1617 0.999 . S
H1621 C1602 0.913 . S
C456 C126 1.893 . S
C441 C8 1.919 . S
C506 C195 1.739 . S
C491 C22 1.729 . S
C556 C133 1.751 . S
C541 C30 1.774 . S
C606 C196 1.321 1_655 S
C591 C47 1.331 . S
C656 C249 1.842 . S
C641 C9 1.857 . S
C706 C285 1.804 . S
C691 C17 1.766 . S
C741 C34 1.590 . S
C756 C345 1.581 . S
C806 C408 1.488 . S
C791 C48 1.475 . S
C856 C248 1.931 . S
C841 C21 1.967 . S
C891 C35 1.891 . S
C906 C292 1.905 . S
C956 C338 1.254 . S
C941 C43 1.211 . S
C1006 C407 1.586 . S
C991 C4 1.530 . S
C1041 C56 1.496 . S
C1056 C186 1.524 . S
C1106 C143 1.762 . S
C1091 C73 1.796 . S
C1141 C87 1.752 . S
C1156 C179 1.744 . S
C1191 C100 2.046 . S
C1206 C142 2.019 . S
C1256 C354 1.640 . S
C1241 C60 1.656 . S
C1306 C398 1.368 . S
C1291 C69 1.322 . S
C1356 C232 1.943 . S
C1341 C86 1.979 . S
C1391 C95 1.505 . S
C1406 C301 1.578 . S
C1456 C355 1.612 . S
C1441 C74 1.618 . S
C1506 C391 1.365 . S
C1491 C82 1.309 . S
C1556 C239 2.068 . S
C1541 C99 2.090 . S
C1591 C61 1.698 . S
C1606 C302 1.711 . S
