# Generated by pormake.
# Topology nom, (4,4)-cn, num edge types: 1
# Building blocks:
#     Node 0, Type 0, BuildingBlock: MIFKUJ_clean_linker_1, # of connection points: 4
#     Node 1, Type 0, BuildingBlock: MIFKUJ_clean_linker_1, # of connection points: 4
#     Node 2, Type 0, BuildingBlock: MIFKUJ_clean_linker_1, # of connection points: 4
#     Node 3, Type 0, BuildingBlock: MIFKUJ_clean_linker_1, # of connection points: 4
#     Node 4, Type 0, BuildingBlock: MIFKUJ_clean_linker_1, # of connection points: 4
#     Node 5, Type 0, BuildingBlock: MIFKUJ_clean_linker_1, # of connection points: 4
#     Node 6, Type 1, BuildingBlock: QUQFOY_clean_sbu_3, # of connection points: 4
#     Node 7, Type 1, BuildingBlock: QUQFOY_clean_sbu_3, # of connection points: 4
#     Node 8, Type 1, BuildingBlock: QUQFOY_clean_sbu_3, # of connection points: 4
#     Node 9, Type 1, BuildingBlock: QUQFOY_clean_sbu_3, # of connection points: 4
#     Node 10, Type 1, BuildingBlock: QUQFOY_clean_sbu_3, # of connection points: 4
#     Node 11, Type 1, BuildingBlock: QUQFOY_clean_sbu_3, # of connection points: 4
#     Edge 12, Type (0, 1), BuildingBlock: ZUJKAS_clean_linker_0, # of connection points: 2
#     Edge 13, Type (0, 1), BuildingBlock: ZUJKAS_clean_linker_0, # of connection points: 2
#     Edge 14, Type (0, 1), BuildingBlock: ZUJKAS_clean_linker_0, # of connection points: 2
#     Edge 15, Type (0, 1), BuildingBlock: ZUJKAS_clean_linker_0, # of connection points: 2
#     Edge 16, Type (0, 1), BuildingBlock: ZUJKAS_clean_linker_0, # of connection points: 2
#     Edge 17, Type (0, 1), BuildingBlock: ZUJKAS_clean_linker_0, # of connection points: 2
#     Edge 18, Type (0, 1), BuildingBlock: ZUJKAS_clean_linker_0, # of connection points: 2
#     Edge 19, Type (0, 1), BuildingBlock: ZUJKAS_clean_linker_0, # of connection points: 2
#     Edge 20, Type (0, 1), BuildingBlock: ZUJKAS_clean_linker_0, # of connection points: 2
#     Edge 21, Type (0, 1), BuildingBlock: ZUJKAS_clean_linker_0, # of connection points: 2
#     Edge 22, Type (0, 1), BuildingBlock: ZUJKAS_clean_linker_0, # of connection points: 2
#     Edge 23, Type (0, 1), BuildingBlock: ZUJKAS_clean_linker_0, # of connection points: 2
#     Edge 24, Type (0, 1), BuildingBlock: ZUJKAS_clean_linker_0, # of connection points: 2
#     Edge 25, Type (0, 1), BuildingBlock: ZUJKAS_clean_linker_0, # of connection points: 2
#     Edge 26, Type (0, 1), BuildingBlock: ZUJKAS_clean_linker_0, # of connection points: 2
#     Edge 27, Type (0, 1), BuildingBlock: ZUJKAS_clean_linker_0, # of connection points: 2
#     Edge 28, Type (0, 1), BuildingBlock: ZUJKAS_clean_linker_0, # of connection points: 2
#     Edge 29, Type (0, 1), BuildingBlock: ZUJKAS_clean_linker_0, # of connection points: 2
#     Edge 30, Type (0, 1), BuildingBlock: ZUJKAS_clean_linker_0, # of connection points: 2
#     Edge 31, Type (0, 1), BuildingBlock: ZUJKAS_clean_linker_0, # of connection points: 2
#     Edge 32, Type (0, 1), BuildingBlock: ZUJKAS_clean_linker_0, # of connection points: 2
#     Edge 33, Type (0, 1), BuildingBlock: ZUJKAS_clean_linker_0, # of connection points: 2
#     Edge 34, Type (0, 1), BuildingBlock: ZUJKAS_clean_linker_0, # of connection points: 2
#     Edge 35, Type (0, 1), BuildingBlock: ZUJKAS_clean_linker_0, # of connection points: 2
# Relax obj value: 0.002
# Max RMSD: 0.098
# Mean RMSD: 0.065
data_MOF--net-nom--node1-QUQFOY_clean_sbu_3--node2-MIFKUJ_clean_linker_1--edge1-ZUJKAS_clean_linker_0
_symmetry_space_group_name_H-M    P1
_symmetry_Int_Tables_number       1
_symmetry_cell_setting            triclinic
loop_
_symmetry_equiv_pos_as_xyz
'x, y, z'
_cell_length_a     66.587599
_cell_length_b     68.090404
_cell_length_c     70.784596
_cell_angle_alpha  89.995395
_cell_angle_beta   90.007846
_cell_angle_gamma 120.00533
loop_
_atom_site_label
_atom_site_type_symbol
_atom_site_fract_x
_atom_site_fract_y
_atom_site_fract_z
_atom_type_partial_charge
H0 H 0.98569 0.46705 0.28204 0.0
H1 H 0.95742 0.45013 0.25635 0.0
H2 H 0.92739 0.49119 0.27225 0.0
H3 H 0.95573 0.5081 0.29774 0.0
H4 H 0.01868 0.51245 0.28868 0.0
H5 H 0.94813 0.45312 0.32118 0.0
H6 H 0.90676 0.43616 0.32885 0.0
H7 H 0.91984 0.50025 0.35193 0.0
H8 H 0.96085 0.51708 0.34405 0.0
H9 H 0.02292 0.54803 0.36422 0.0
H10 H 0.05075 0.56537 0.39005 0.0
H11 H 0.08823 0.5329 0.36991 0.0
H12 H 0.06034 0.51556 0.34417 0.0
H13 H 0.99344 0.50639 0.35544 0.0
H14 H 0.05503 0.56719 0.325 0.0
H15 H 0.09494 0.59379 0.31597 0.0
H16 H 0.09892 0.53988 0.28715 0.0
H17 H 0.05896 0.51305 0.29679 0.0
C18 C 0.97257 0.48855 0.29197 0.0
C19 C 0.97303 0.47241 0.27994 0.0
C20 C 0.95691 0.46279 0.26528 0.0
C21 C 0.94006 0.46919 0.2624 0.0
C22 C 0.93985 0.48558 0.27435 0.0
C23 C 0.95605 0.49528 0.2889 0.0
C24 C 0.98947 0.49849 0.30766 0.0
C25 C 0.01322 0.51069 0.30332 0.0
C26 C 0.98228 0.49731 0.32664 0.0
C27 C 0.95749 0.48638 0.33197 0.0
C28 C 0.94202 0.46345 0.3279 0.0
C29 C 0.91846 0.45378 0.33234 0.0
C30 C 0.91008 0.46696 0.34082 0.0
C31 C 0.92573 0.48979 0.34512 0.0
C32 C 0.9492 0.49936 0.3408 0.0
C33 C 0.03961 0.5306 0.35219 0.0
C34 C 0.03708 0.54458 0.36542 0.0
C35 C 0.05298 0.55447 0.38017 0.0
C36 C 0.07172 0.55056 0.38197 0.0
C37 C 0.0742 0.53653 0.36871 0.0
C38 C 0.05824 0.52658 0.35402 0.0
C39 C 0.0227 0.5201 0.33653 0.0
C40 C -0.00101 0.50778 0.34084 0.0
C41 C 0.02985 0.52214 0.31745 0.0
C42 C 0.05413 0.53808 0.31177 0.0
C43 C 0.06455 0.56102 0.3169 0.0
C44 C 0.0873 0.57627 0.31156 0.0
C45 C 0.10008 0.56896 0.30079 0.0
C46 C 0.0896 0.54597 0.2956 0.0
C47 C 0.06675 0.53067 0.30097 0.0
H48 H 0.45461 0.96607 0.51539 0.0
H49 H 0.43287 0.92786 0.52834 0.0
H50 H 0.48622 0.91408 0.50908 0.0
H51 H 0.50778 0.95241 0.49584 0.0
H52 H 0.49746 0.00024 0.52402 0.0
H53 H 0.4583 0.95442 0.46957 0.0
H54 H 0.44744 0.92535 0.44525 0.0
H55 H 0.5194 0.95493 0.4291 0.0
H56 H 0.53016 0.98396 0.4535 0.0
H57 H 0.55741 0.056 0.46273 0.0
H58 H 0.57078 0.09374 0.4491 0.0
H59 H 0.51016 0.09314 0.47155 0.0
H60 H 0.49688 0.05557 0.48498 0.0
H61 H 0.51658 0.01552 0.45593 0.0
H62 H 0.55573 0.06232 0.5085 0.0
H63 H 0.56737 0.09192 0.53246 0.0
H64 H 0.49659 0.06048 0.55225 0.0
H65 H 0.48494 0.03118 0.52797 0.0
C66 C 0.48274 0.96204 0.50458 0.0
C67 C 0.46168 0.95485 0.51403 0.0
C68 C 0.44933 0.93302 0.52152 0.0
C69 C 0.45787 0.91793 0.51986 0.0
C70 C 0.47905 0.9252 0.51043 0.0
C71 C 0.4914 0.94709 0.50288 0.0
C72 C 0.49556 0.98533 0.49678 0.0
C73 C 0.50146 0.00356 0.5091 0.0
C74 C 0.50159 0.98969 0.47744 0.0
C75 C 0.49508 0.97123 0.46348 0.0
C76 C 0.47179 0.9544 0.46103 0.0
C77 C 0.4656 0.93778 0.44713 0.0
C78 C 0.48257 0.93783 0.43526 0.0
C79 C 0.50591 0.95457 0.43789 0.0
C80 C 0.51209 0.97112 0.45185 0.0
C81 C 0.52628 0.05313 0.47499 0.0
C82 C 0.54705 0.06406 0.46468 0.0
C83 C 0.55469 0.08559 0.45699 0.0
C84 C 0.54145 0.0963 0.45923 0.0
C85 C 0.52058 0.08519 0.46943 0.0
C86 C 0.51309 0.06383 0.47725 0.0
C87 C 0.51787 0.03028 0.48311 0.0
C88 C 0.51284 0.01218 0.47089 0.0
C89 C 0.51268 0.02598 0.50254 0.0
C90 C 0.51945 0.04459 0.5164 0.0
C91 C 0.54266 0.06199 0.51781 0.0
C92 C 0.54932 0.07878 0.53161 0.0
C93 C 0.5329 0.07847 0.54428 0.0
C94 C 0.50958 0.06129 0.54258 0.0
C95 C 0.50295 0.04445 0.52882 0.0
H96 H 0.52833 0.55078 0.70046 0.0
H97 H 0.51585 0.56642 0.72595 0.0
H98 H 0.44481 0.526 0.70714 0.0
H99 H 0.45732 0.50961 0.68232 0.0
H100 H 0.51643 0.50662 0.69453 0.0
H101 H 0.50554 0.56368 0.65948 0.0
H102 H 0.48085 0.57931 0.65005 0.0
H103 H 0.43122 0.51437 0.62638 0.0
H104 H 0.45564 0.49883 0.63606 0.0
H105 H 0.48886 0.46979 0.61857 0.0
H106 H 0.50108 0.45342 0.59353 0.0
H107 H 0.57036 0.48636 0.61688 0.0
H108 H 0.5583 0.50361 0.64131 0.0
H109 H 0.49992 0.51058 0.62673 0.0
H110 H 0.50196 0.45179 0.65904 0.0
H111 H 0.51637 0.42721 0.67016 0.0
H112 H 0.57117 0.48349 0.70065 0.0
H113 H 0.55671 0.50817 0.68931 0.0
C114 C 0.49382 0.52925 0.68934 0.0
C115 C 0.51007 0.5453 0.70186 0.0
C116 C 0.50292 0.55438 0.71631 0.0
C117 C 0.47932 0.54756 0.71856 0.0
C118 C 0.46308 0.53148 0.70595 0.0
C119 C 0.47024 0.52229 0.69159 0.0
C120 C 0.50152 0.51931 0.67432 0.0
C121 C 0.51328 0.50789 0.67966 0.0
C122 C 0.49625 0.51988 0.65503 0.0
C123 C 0.48231 0.53006 0.64858 0.0
C124 C 0.48934 0.55287 0.65225 0.0
C125 C 0.47531 0.56179 0.64678 0.0
C126 C 0.45402 0.54798 0.63764 0.0
C127 C 0.44733 0.5253 0.63367 0.0
C128 C 0.46137 0.51646 0.63903 0.0
C129 C 0.52261 0.48785 0.6319 0.0
C130 C 0.50672 0.4736 0.61823 0.0
C131 C 0.51368 0.46403 0.60404 0.0
C132 C 0.53669 0.46848 0.60322 0.0
C133 C 0.55257 0.48276 0.61696 0.0
C134 C 0.54563 0.49244 0.63107 0.0
C135 C 0.51514 0.49811 0.64688 0.0
C136 C 0.50347 0.50961 0.64156 0.0
C137 C 0.51951 0.49668 0.66627 0.0
C138 C 0.5285 0.48193 0.67306 0.0
C139 C 0.51726 0.45895 0.66791 0.0
C140 C 0.52551 0.4449 0.67429 0.0
C141 C 0.545 0.45347 0.68617 0.0
C142 C 0.55603 0.4764 0.6916 0.0
C143 C 0.54783 0.49051 0.68509 0.0
H144 H 0.03243 0.55315 0.78392 0.0
H145 H 0.0606 0.56747 0.758 0.0
H146 H 0.08553 0.52249 0.77503 0.0
H147 H 0.05716 0.50808 0.80076 0.0
H148 H -0.00295 0.50677 0.78971 0.0
H149 H 0.06737 0.56516 0.82146 0.0
H150 H 0.10807 0.58173 0.83097 0.0
H151 H 0.09155 0.51945 0.85973 0.0
H152 H 0.05115 0.50297 0.85009 0.0
H153 H 0.98872 0.47186 0.86573 0.0
H154 H 0.9596 0.45474 0.89067 0.0
H155 H 0.92354 0.48752 0.86798 0.0
H156 H 0.95313 0.50517 0.84345 0.0
H157 H 0.01905 0.51373 0.85738 0.0
H158 H 0.95902 0.45276 0.82577 0.0
H159 H 0.91965 0.42605 0.81548 0.0
H160 H 0.91692 0.47989 0.78538 0.0
H161 H 0.95636 0.50681 0.79619 0.0
C162 C 0.04285 0.5297 0.79429 0.0
C163 C 0.04404 0.54646 0.78207 0.0
C164 C 0.06023 0.55472 0.76739 0.0
C165 C 0.07529 0.54612 0.76453 0.0
C166 C 0.07405 0.52932 0.77682 0.0
C167 C 0.05797 0.52119 0.79158 0.0
C168 C 0.02536 0.52064 0.80957 0.0
C169 C 0.00182 0.50874 0.80453 0.0
C170 C 0.03168 0.52207 0.82882 0.0
C171 C 0.05623 0.53277 0.83496 0.0
C172 C 0.07256 0.55507 0.82974 0.0
C173 C 0.09578 0.56451 0.83518 0.0
C174 C 0.10296 0.5519 0.84614 0.0
C175 C 0.08649 0.52972 0.85154 0.0
C176 C 0.06339 0.52026 0.84601 0.0
C177 C 0.97307 0.48973 0.85269 0.0
C178 C 0.97462 0.47547 0.86621 0.0
C179 C 0.95783 0.46551 0.88033 0.0
C180 C 0.93921 0.46971 0.88125 0.0
C181 C 0.93777 0.4841 0.86775 0.0
C182 C 0.95457 0.49405 0.85363 0.0
C183 C 0.99075 0.50003 0.83755 0.0
C184 C 0.01425 0.51215 0.84258 0.0
C185 C 0.9845 0.49775 0.81823 0.0
C186 C 0.9605 0.48182 0.81194 0.0
C187 C 0.94988 0.45889 0.81711 0.0
C188 C 0.92746 0.44359 0.81106 0.0
C189 C 0.91521 0.45085 0.79956 0.0
C190 C 0.92586 0.47385 0.79437 0.0
C191 C 0.9484 0.4892 0.80042 0.0
H192 H 0.55454 0.04856 0.01583 0.0
H193 H 0.57798 0.08723 0.02754 0.0
H194 H 0.52955 0.10481 0.00313 0.0
H195 H 0.50566 0.06571 0.99193 0.0
H196 H 0.51139 0.01633 0.02309 0.0
H197 H 0.55394 0.05999 0.96863 0.0
H198 H 0.56684 0.08866 0.94375 0.0
H199 H 0.4958 0.0615 0.92571 0.0
H200 H 0.483 0.03287 0.95069 0.0
H201 H 0.4537 0.96028 0.96086 0.0
H202 H 0.44069 0.92262 0.94726 0.0
H203 H 0.49958 0.92222 0.97247 0.0
H204 H 0.51254 0.95977 0.98583 0.0
H205 H 0.49504 8e-05 0.95477 0.0
H206 H 0.45417 0.95218 0.00639 0.0
H207 H 0.4427 0.92232 0.02998 0.0
H208 H 0.51173 0.95791 0.0538 0.0
H209 H 0.52343 0.98697 0.0295 0.0
C210 C 0.52846 0.05429 0.00288 0.0
C211 C 0.54884 0.06068 0.01314 0.0
C212 C 0.56234 0.08284 0.01968 0.0
C213 C 0.55573 0.09913 0.01612 0.0
C214 C 0.53502 0.09261 0.00619 0.0
C215 C 0.52147 0.07035 -0.00036 0.0
C216 C 0.51491 0.03085 0.99544 0.0
C217 C 0.50793 0.01275 0.00813 0.0
C218 C 0.50969 0.02621 0.97601 0.0
C219 C 0.51747 0.04444 0.96165 0.0
C220 C 0.5411 0.06046 0.95954 0.0
C221 C 0.54845 0.07685 0.94531 0.0
C222 C 0.53233 0.07735 0.93277 0.0
C223 C 0.50865 0.06141 0.93504 0.0
C224 C 0.50131 0.0451 0.94932 0.0
C225 C 0.48394 0.96268 0.97449 0.0
C226 C 0.46374 0.95201 0.96345 0.0
C227 C 0.4563 0.93052 0.95577 0.0
C228 C 0.46917 0.91956 0.95877 0.0
C229 C 0.48945 0.93037 0.96975 0.0
C230 C 0.49675 0.95171 0.97754 0.0
C231 C 0.49228 0.98563 0.98235 0.0
C232 C 0.49816 0.00361 0.96976 0.0
C233 C 0.4967 0.99018 0.00187 0.0
C234 C 0.48974 0.97177 0.01603 0.0
C235 C 0.46696 0.95334 0.01648 0.0
C236 C 0.46033 0.9364 0.03015 0.0
C237 C 0.47626 0.93769 0.04386 0.0
C238 C 0.49908 0.95614 0.04332 0.0
C239 C 0.50574 0.97295 0.02954 0.0
H240 H 0.48256 0.46086 0.19851 0.0
H241 H 0.49574 0.44554 0.2239 0.0
H242 H 0.5669 0.49154 0.20812 0.0
H243 H 0.55363 0.507 0.18297 0.0
H244 H 0.4937 0.50659 0.19479 0.0
H245 H 0.50617 0.45167 0.15968 0.0
H246 H 0.53017 0.43583 0.14905 0.0
H247 H 0.57827 0.5002 0.12361 0.0
H248 H 0.55446 0.51594 0.13436 0.0
H249 H 0.52411 0.54922 0.12168 0.0
H250 H 0.5127 0.567 0.09712 0.0
H251 H 0.44172 0.52929 0.11648 0.0
H252 H 0.45317 0.51125 0.14079 0.0
H253 H 0.51184 0.50612 0.12687 0.0
H254 H 0.51157 0.56356 0.16307 0.0
H255 H 0.49818 0.58846 0.17554 0.0
H256 H 0.4387 0.53062 0.20027 0.0
H257 H 0.45214 0.50562 0.18752 0.0
C258 C 0.51711 0.48493 0.18881 0.0
C259 C 0.50099 0.46752 0.20048 0.0
C260 C 0.50853 0.45869 0.21487 0.0
C261 C 0.53235 0.46734 0.21797 0.0
C262 C 0.54845 0.48466 0.20615 0.0
C263 C 0.5409 0.49339 0.19171 0.0
C264 C 0.50911 0.49492 0.17411 0.0
C265 C 0.49718 0.50602 0.17988 0.0
C266 C 0.5148 0.49525 0.15481 0.0
C267 C 0.52861 0.48505 0.14794 0.0
C268 C 0.52194 0.46237 0.15188 0.0
C269 C 0.53564 0.45334 0.1458 0.0
C270 C 0.55606 0.46676 0.13545 0.0
C271 C 0.56245 0.48933 0.13129 0.0
C272 C 0.54888 0.49836 0.13747 0.0
C273 C 0.4895 0.52895 0.13308 0.0
C274 C 0.5061 0.5448 0.12063 0.0
C275 C 0.49959 0.55508 0.10672 0.0
C276 C 0.47632 0.54954 0.10489 0.0
C277 C 0.45975 0.53376 0.11745 0.0
C278 C 0.46629 0.52357 0.13143 0.0
C279 C 0.49636 0.51766 0.14755 0.0
C280 C 0.50799 0.5063 0.14174 0.0
C281 C 0.49138 0.51796 0.16692 0.0
C282 C 0.4827 0.53273 0.17421 0.0
C283 C 0.49554 0.5562 0.17104 0.0
C284 C 0.488 0.57043 0.17832 0.0
C285 C 0.46745 0.56148 0.18894 0.0
C286 C 0.45452 0.53794 0.19203 0.0
C287 C 0.4622 0.52369 0.18485 0.0
C288 C 0.68426 0.41141 0.4046 0.0
O289 O 0.68353 0.42825 0.41154 0.0
Cd290 Cd 0.64844 0.42626 0.42237 0.0
O291 O 0.66599 0.39198 0.40375 0.0
Cd292 Cd 0.62445 0.37305 0.41277 0.0
C293 C 0.61535 0.40602 0.38198 0.0
O294 O 0.63016 0.39355 0.44233 0.0
O295 O 0.59462 0.37199 0.43376 0.0
O296 O 0.62995 0.34169 0.42211 0.0
C297 C 0.6088 0.38526 0.446 0.0
O298 O 0.62633 0.42218 0.39365 0.0
C299 C 0.61219 0.32644 0.41361 0.0
O300 O 0.61291 0.3865 0.38501 0.0
O301 O 0.60003 0.33286 0.40451 0.0
C302 C 0.28337 0.60232 0.57459 0.0
O303 O 0.26523 0.58565 0.56773 0.0
Cd304 Cd 0.23173 0.58794 0.55872 0.0
O305 O 0.28489 0.62166 0.5762 0.0
Cd306 Cd 0.26231 0.64064 0.56883 0.0
C307 C 0.22083 0.60731 0.60032 0.0
O308 O 0.24531 0.62096 0.5393 0.0
O309 O 0.23176 0.6416 0.55026 0.0
O310 O 0.29804 0.67201 0.55668 0.0
C311 C 0.23199 0.62909 0.5371 0.0
O312 O 0.21493 0.59139 0.58835 0.0
C313 C 0.29778 0.68716 0.56694 0.0
O314 O 0.23821 0.62693 0.59726 0.0
O315 O 0.28093 0.68068 0.57839 0.0
C316 C 0.6881 0.27755 0.74163 0.0
O317 O 0.68625 0.25917 0.73555 0.0
Cd318 Cd 0.64991 0.22723 0.72623 0.0
O319 O 0.67031 0.27989 0.7427 0.0
Cd320 Cd 0.62822 0.25814 0.73554 0.0
C321 C 0.61903 0.21732 0.76742 0.0
O322 O 0.63142 0.24163 0.70591 0.0
O323 O 0.59671 0.22849 0.71663 0.0
O324 O 0.63273 0.29371 0.72399 0.0
C325 C 0.6098 0.22901 0.7034 0.0
O326 O 0.62853 0.21057 0.75543 0.0
C327 C 0.61637 0.29304 0.73369 0.0
O328 O 0.61778 0.23511 0.76431 0.0
O329 O 0.60546 0.27607 0.74456 0.0
C330 C 0.33002 0.60431 0.9048 0.0
O331 O 0.33133 0.58769 0.91151 0.0
Cd332 Cd 0.36694 0.59116 0.92292 0.0
O333 O 0.3479 0.62403 0.90425 0.0
Cd334 Cd 0.38937 0.64349 0.91329 0.0
C335 C 0.40008 0.61146 0.88282 0.0
O336 O 0.38432 0.62375 0.9432 0.0
O337 O 0.41962 0.64459 0.93377 0.0
O338 O 0.38373 0.67475 0.92272 0.0
C339 C 0.40576 0.63215 0.94656 0.0
O340 O 0.39015 0.59547 0.89482 0.0
C341 C 0.4013 0.69002 0.91404 0.0
O342 O 0.40099 0.6304 0.88542 0.0
O343 O 0.41338 0.68363 0.9048 0.0
C344 C 0.73081 0.41587 0.07623 0.0
O345 O 0.74928 0.4325 0.06975 0.0
Cd346 Cd 0.78175 0.42912 0.05937 0.0
O347 O 0.72854 0.39617 0.07699 0.0
Cd348 Cd 0.75013 0.37656 0.06854 0.0
C349 C 0.79274 0.40806 0.09984 0.0
O350 O 0.76655 0.39673 0.03899 0.0
O351 O 0.7795 0.3751 0.04872 0.0
O352 O 0.71288 0.34633 0.05756 0.0
C353 C 0.77918 0.388 0.03595 0.0
O354 O 0.79917 0.42421 0.08802 0.0
C355 C 0.71379 0.33042 0.06613 0.0
O356 O 0.77453 0.389 0.0969 0.0
O357 O 0.73164 0.33598 0.07622 0.0
C358 C 0.32842 0.74114 0.24464 0.0
O359 O 0.33027 0.75968 0.23899 0.0
Cd360 Cd 0.36615 0.7916 0.22881 0.0
O361 O 0.34606 0.73847 0.24488 0.0
Cd362 Cd 0.38789 0.75982 0.23662 0.0
C363 C 0.39859 0.80083 0.26901 0.0
O364 O 0.38289 0.77629 0.20765 0.0
O365 O 0.41827 0.78801 0.21592 0.0
O366 O 0.38188 0.72315 0.22626 0.0
C367 C 0.4043 0.78821 0.20386 0.0
O368 O 0.38867 0.80778 0.25762 0.0
C369 C 0.39947 0.72474 0.23467 0.0
O370 O 0.39968 0.78307 0.26532 0.0
O371 O 0.41167 0.74266 0.24422 0.0
H372 H 0.13808 0.56329 0.30077 0.0
H373 H 0.17803 0.5913 0.29208 0.0
H374 H 0.15632 0.63971 0.27888 0.0
H375 H 0.11646 0.61188 0.28734 0.0
H376 H 0.19564 0.61492 0.25735 0.0
H377 H 0.20984 0.67372 0.31666 0.0
H378 H 0.18627 0.64473 0.31636 0.0
H379 H 0.18415 0.66619 0.30316 0.0
C380 C 0.1418 0.57985 0.29587 0.0
C381 C 0.12416 0.58546 0.29492 0.0
C382 C 0.16462 0.59584 0.29101 0.0
C383 C 0.17015 0.61768 0.28521 0.0
C384 C 0.15249 0.62312 0.28378 0.0
H385 H 0.28726 0.74091 0.24617 0.0
H386 H 0.24953 0.70996 0.25624 0.0
C387 C 0.12974 0.6072 0.28863 0.0
C388 C 0.1943 0.63485 0.2804 0.0
H389 H 0.2377 0.68803 0.2918 0.0
C390 C 0.20498 0.63082 0.26498 0.0
C391 C 0.20639 0.65551 0.29045 0.0
C392 C 0.19619 0.66027 0.30769 0.0
C393 C 0.22715 0.64734 0.25884 0.0
C394 C 0.23898 0.66823 0.26861 0.0
C395 C 0.2285 0.67202 0.2843 0.0
C396 C 0.26193 0.68674 0.26241 0.0
C397 C 0.23739 0.64265 0.24159 0.0
C398 C 0.28144 0.68397 0.26274 0.0
C399 C 0.30306 0.70163 0.25697 0.0
C400 C 0.30556 0.72242 0.25086 0.0
C401 C 0.28597 0.72514 0.25074 0.0
C402 C 0.26439 0.70748 0.25651 0.0
H403 H 0.22413 0.62794 0.23339 0.0
H404 H 0.24557 0.65772 0.23218 0.0
H405 H 0.25102 0.63879 0.24605 0.0
H406 H 0.27996 0.66821 0.26759 0.0
H407 H 0.3178 0.69899 0.25734 0.0
H408 H 0.58475 0.1337 0.46116 0.0
H409 H 0.59675 0.17216 0.45015 0.0
H410 H 0.5281 0.14868 0.42796 0.0
H411 H 0.51594 0.11033 0.43916 0.0
H412 H 0.59721 0.19012 0.41486 0.0
H413 H 0.53691 0.19931 0.46341 0.0
H414 H 0.54307 0.17644 0.46547 0.0
H415 H 0.52292 0.17525 0.44796 0.0
C416 C 0.57231 0.13673 0.45376 0.0
C417 C 0.54935 0.11912 0.45121 0.0
C418 C 0.57916 0.15867 0.44752 0.0
C419 C 0.56317 0.16334 0.4386 0.0
C420 C 0.54054 0.14556 0.43526 0.0
H421 H 0.57237 0.2895 0.40096 0.0
H422 H 0.56072 0.24943 0.405 0.0
C423 C 0.53363 0.12368 0.44163 0.0
C424 C 0.56999 0.18691 0.43329 0.0
H425 H 0.55733 0.22896 0.44147 0.0
C426 C 0.58851 0.19863 0.42067 0.0
C427 C 0.55862 0.19797 0.44094 0.0
C428 C 0.53942 0.18671 0.45533 0.0
C429 C 0.59587 0.22111 0.41539 0.0
C430 C 0.5845 0.23212 0.42307 0.0
C431 C 0.56586 0.22035 0.43552 0.0
C432 C 0.59234 0.25622 0.41917 0.0
C433 C 0.61562 0.23289 0.40158 0.0
C434 C 0.61395 0.27322 0.42582 0.0
C435 C 0.62058 0.29605 0.42366 0.0
C436 C 0.60569 0.30229 0.41481 0.0
C437 C 0.58423 0.28522 0.4078 0.0
C438 C 0.57756 0.26236 0.41009 0.0
H439 H 0.61876 0.22063 0.3936 0.0
H440 H 0.61213 0.24323 0.39138 0.0
H441 H 0.6317 0.24446 0.40942 0.0
H442 H 0.62543 0.2688 0.43316 0.0
H443 H 0.63721 0.3088 0.42922 0.0
H444 H 0.40734 0.52767 0.64288 0.0
H445 H 0.38125 0.54102 0.63237 0.0
H446 H 0.43951 0.6019 0.61027 0.0
H447 H 0.4658 0.58845 0.62053 0.0
H448 H 0.38214 0.58304 0.64136 0.0
H449 H 0.39371 0.57258 0.56479 0.0
H450 H 0.40178 0.55925 0.583 0.0
H451 H 0.41962 0.58905 0.57848 0.0
C452 C 0.4146 0.54388 0.63574 0.0
C453 C 0.43857 0.55692 0.63234 0.0
C454 C 0.39971 0.55153 0.62986 0.0
C455 C 0.40847 0.57229 0.62038 0.0
C456 C 0.43244 0.5857 0.6174 0.0
H457 H 0.32352 0.63335 0.59215 0.0
H458 H 0.35519 0.62784 0.60318 0.0
C459 C 0.44741 0.57809 0.62337 0.0
C460 C 0.39222 0.57943 0.61327 0.0
H461 H 0.36802 0.58557 0.5728 0.0
C462 C 0.37918 0.58384 0.62638 0.0
C463 C 0.38831 0.58016 0.59372 0.0
C464 C 0.40143 0.57488 0.5791 0.0
C465 C 0.36204 0.58872 0.62044 0.0
C466 C 0.35804 0.58933 0.60089 0.0
C467 C 0.37128 0.5852 0.58777 0.0
C468 C 0.33929 0.593 0.5938 0.0
C469 C 0.3478 0.59244 0.63507 0.0
C470 C 0.32013 0.57534 0.58458 0.0
C471 C 0.302 0.57839 0.57826 0.0
C472 C 0.30281 0.59924 0.58094 0.0
C473 C 0.32229 0.61705 0.58991 0.0
C474 C 0.34037 0.61393 0.59629 0.0
H475 H 0.35028 0.58746 0.64945 0.0
H476 H 0.353 0.61067 0.63538 0.0
H477 H 0.32908 0.58262 0.63145 0.0
H478 H 0.31906 0.55908 0.5825 0.0
H479 H 0.28733 0.56436 0.57135 0.0
H480 H 0.87699 0.45607 0.79813 0.0
H481 H 0.8375 0.42776 0.78854 0.0
H482 H 0.86059 0.38015 0.7764 0.0
H483 H 0.89996 0.40825 0.78586 0.0
H484 H 0.82085 0.40426 0.75391 0.0
H485 H 0.80642 0.34531 0.81315 0.0
H486 H 0.82981 0.37438 0.81306 0.0
H487 H 0.83236 0.35311 0.79994 0.0
C488 C 0.87366 0.43962 0.79327 0.0
C489 C 0.89151 0.43428 0.79295 0.0
C490 C 0.85111 0.42347 0.78788 0.0
C491 C 0.84608 0.40175 0.78214 0.0
C492 C 0.86401 0.39663 0.78125 0.0
H493 H 0.72945 0.27807 0.7423 0.0
H494 H 0.76729 0.30915 0.75206 0.0
C495 C 0.88648 0.4127 0.78666 0.0
C496 C 0.82214 0.38433 0.77699 0.0
H497 H 0.77897 0.3309 0.78802 0.0
C498 C 0.81156 0.3883 0.76145 0.0
C499 C 0.8101 0.36358 0.78692 0.0
C500 C 0.82013 0.35887 0.80431 0.0
C501 C 0.78953 0.37167 0.75514 0.0
C502 C 0.77775 0.35072 0.76482 0.0
C503 C 0.78815 0.34695 0.78058 0.0
C504 C 0.75481 0.33222 0.75861 0.0
C505 C 0.77933 0.37633 0.73785 0.0
C506 C 0.73526 0.33489 0.75924 0.0
C507 C 0.71357 0.31715 0.75369 0.0
C508 C 0.71107 0.29639 0.74748 0.0
C509 C 0.73074 0.29381 0.74696 0.0
C510 C 0.75238 0.31154 0.75254 0.0
H511 H 0.79256 0.39116 0.72975 0.0
H512 H 0.77137 0.36131 0.72838 0.0
H513 H 0.76553 0.37997 0.74225 0.0
H514 H 0.73673 0.3506 0.7642 0.0
H515 H 0.69878 0.31969 0.75433 0.0
H516 H 0.49566 0.90546 0.94029 0.0
H517 H 0.48374 0.86733 0.92867 0.0
H518 H 0.41386 0.84422 0.94766 0.0
H519 H 0.42563 0.88242 0.95906 0.0
H520 H 0.46721 0.82959 0.94981 0.0
H521 H 0.40233 0.81733 0.89519 0.0
H522 H 0.42215 0.84481 0.90506 0.0
H523 H 0.39629 0.82536 0.9177 0.0
C524 C 0.47772 0.89227 0.94184 0.0
C525 C 0.46157 0.89687 0.9506 0.0
C526 C 0.47092 0.87054 0.93514 0.0
C527 C 0.44785 0.853 0.93706 0.0
C528 C 0.43161 0.85762 0.94557 0.0
H529 H 0.37676 0.70764 0.93057 0.0
H530 H 0.38852 0.74767 0.93445 0.0
C531 C 0.43836 0.87942 0.95215 0.0
C532 C 0.44129 0.82953 0.93155 0.0
H533 H 0.40282 0.78401 0.90534 0.0
C534 C 0.45332 0.81973 0.93991 0.0
C535 C 0.42313 0.81668 0.91865 0.0
C536 C 0.41038 0.82665 0.90849 0.0
C537 C 0.44728 0.79722 0.93612 0.0
C538 C 0.42884 0.78426 0.92354 0.0
C539 C 0.41695 0.79407 0.91499 0.0
C540 C 0.42114 0.76018 0.91976 0.0
C541 C 0.46017 0.78722 0.94603 0.0
C542 C 0.43544 0.75405 0.90988 0.0
C543 C 0.42877 0.73119 0.9076 0.0
C544 C 0.40771 0.71414 0.91523 0.0
C545 C 0.39314 0.72038 0.92463 0.0
C546 C 0.39977 0.74322 0.92681 0.0
H547 H 0.47125 0.79822 0.9577 0.0
H548 H 0.44782 0.77024 0.95188 0.0
H549 H 0.47147 0.78507 0.93571 0.0
H550 H 0.45191 0.76697 0.9042 0.0
H551 H 0.44032 0.72691 0.90023 0.0
H552 H 0.56934 0.44108 0.15597 0.0
H553 H 0.59682 0.42884 0.14657 0.0
H554 H 0.6046 0.46007 0.09202 0.0
H555 H 0.57682 0.47192 0.10113 0.0
H556 H 0.60044 0.41613 0.09106 0.0
H557 H 0.66727 0.47496 0.14189 0.0
H558 H 0.63927 0.4558 0.15174 0.0
H559 H 0.64235 0.47738 0.13549 0.0
C560 C 0.57663 0.44501 0.14187 0.0
C561 C 0.5711 0.45764 0.12933 0.0
C562 C 0.59245 0.43819 0.13659 0.0
C563 C 0.60296 0.44388 0.11872 0.0
C564 C 0.59676 0.45566 0.10592 0.0
H565 H 0.7296 0.45546 0.077 0.0
H566 H 0.69778 0.46092 0.08756 0.0
C567 C 0.58102 0.46253 0.11119 0.0
C568 C 0.62111 0.4384 0.1135 0.0
H569 H 0.67662 0.45169 0.12362 0.0
C570 C 0.61705 0.42376 0.09822 0.0
C571 C 0.64283 0.44867 0.12277 0.0
C572 C 0.64839 0.46523 0.13879 0.0
C573 C 0.63425 0.41914 0.09189 0.0
C574 C 0.65592 0.42929 0.10125 0.0
C575 C 0.65992 0.44386 0.11658 0.0
C576 C 0.67501 0.42572 0.09491 0.0
C577 C 0.62935 0.40398 0.07493 0.0
C578 C 0.67279 0.40415 0.09574 0.0
C579 C 0.69093 0.40094 0.0897 0.0
C580 C 0.71166 0.4193 0.0828 0.0
C581 C 0.71387 0.44094 0.08218 0.0
C582 C 0.69573 0.44412 0.08823 0.0
H583 H 0.6139 0.40155 0.06695 0.0
H584 H 0.64449 0.41111 0.06523 0.0
H585 H 0.62603 0.38709 0.07971 0.0
H586 H 0.65707 0.38981 0.10116 0.0
H587 H 0.68867 0.38406 0.09046 0.0
H588 H 0.43415 0.9047 0.55335 0.0
H589 H 0.40921 0.86602 0.56482 0.0
H590 H 0.42617 0.8397 0.51574 0.0
H591 H 0.45076 0.87828 0.50391 0.0
H592 H 0.37037 0.83184 0.54384 0.0
H593 H 0.43508 0.80583 0.56116 0.0
H594 H 0.44263 0.83518 0.55906 0.0
H595 H 0.43833 0.81846 0.53824 0.0
C596 C 0.4326 0.8907 0.54498 0.0
C597 C 0.44436 0.89459 0.52764 0.0
C598 C 0.41848 0.86864 0.55164 0.0
C599 C 0.41606 0.85008 0.54121 0.0
C600 C 0.42817 0.85386 0.52415 0.0
H601 H 0.33291 0.70555 0.54125 0.0
H602 H 0.36172 0.74549 0.53689 0.0
C603 C 0.44223 0.87592 0.51743 0.0
C604 C 0.39951 0.82671 0.54742 0.0
H605 H 0.39552 0.77659 0.56026 0.0
C606 C 0.37582 0.81978 0.54765 0.0
C607 C 0.40678 0.81112 0.5523 0.0
C608 C 0.4321 0.81799 0.55286 0.0
C609 C 0.35904 0.79733 0.55192 0.0
C610 C 0.36626 0.78159 0.55654 0.0
C611 C 0.39003 0.7887 0.55674 0.0
C612 C 0.34937 0.75734 0.56007 0.0
C613 C 0.33373 0.79048 0.55063 0.0
C614 C 0.3331 0.7507 0.57478 0.0
C615 C 0.31642 0.72783 0.57721 0.0
C616 C 0.31594 0.71124 0.56509 0.0
C617 C 0.33275 0.71791 0.55078 0.0
C618 C 0.34928 0.74074 0.54829 0.0
H619 H 0.33113 0.80303 0.54255 0.0
H620 H 0.32353 0.77365 0.54376 0.0
H621 H 0.32676 0.78933 0.56507 0.0
H622 H 0.3332 0.7632 0.58429 0.0
H623 H 0.30383 0.72318 0.58847 0.0
H624 H 0.5588 0.45009 0.7219 0.0
H625 H 0.5715 0.42395 0.73301 0.0
H626 H 0.56322 0.39665 0.67673 0.0
H627 H 0.55049 0.42263 0.66556 0.0
H628 H 0.5427 0.36356 0.70426 0.0
H629 H 0.63351 0.42672 0.7235 0.0
H630 H 0.61163 0.43111 0.73426 0.0
H631 H 0.61568 0.43385 0.70911 0.0
C632 C 0.55999 0.43871 0.71186 0.0
C633 C 0.55364 0.43839 0.69286 0.0
C634 C 0.56725 0.42381 0.71822 0.0
C635 C 0.5685 0.40852 0.70565 0.0
C636 C 0.56234 0.4083 0.68666 0.0
H637 H 0.63588 0.32986 0.71044 0.0
H638 H 0.62379 0.35794 0.70568 0.0
C639 C 0.55501 0.4231 0.68032 0.0
C640 C 0.57552 0.39219 0.71223 0.0
H641 H 0.62095 0.38831 0.73031 0.0
C642 C 0.55977 0.36894 0.71004 0.0
C643 C 0.59785 0.39932 0.71966 0.0
C644 C 0.61576 0.4241 0.72166 0.0
C645 C 0.56584 0.35259 0.7148 0.0
C646 C 0.58814 0.3597 0.72228 0.0
C647 C 0.6038 0.38294 0.72473 0.0
C648 C 0.59612 0.34335 0.7263 0.0
C649 C 0.54865 0.32791 0.71109 0.0
C650 C 0.58485 0.32609 0.73976 0.0
C651 C 0.59164 0.30988 0.74245 0.0
C652 C 0.60993 0.31082 0.73181 0.0
C653 C 0.62167 0.3286 0.71881 0.0
C654 C 0.61483 0.34471 0.7161 0.0
H655 H 0.53444 0.32576 0.70155 0.0
H656 H 0.55736 0.31923 0.70469 0.0
H657 H 0.54077 0.31936 0.72466 0.0
H658 H 0.57064 0.325 0.74802 0.0
H659 H 0.58238 0.29648 0.75267 0.0
H660 H 0.11993 0.54944 0.88061 0.0
H661 H 0.16022 0.56229 0.88906 0.0
H662 H 0.18198 0.58895 0.83284 0.0
H663 H 0.14153 0.57566 0.82413 0.0
H664 H 0.19913 0.56099 0.84521 0.0
H665 H 0.21446 0.62659 0.89862 0.0
H666 H 0.18864 0.5999 0.90287 0.0
H667 H 0.19068 0.61589 0.88203 0.0
C668 C 0.13331 0.55813 0.87007 0.0
C669 C 0.12759 0.5615 0.85169 0.0
C670 C 0.15633 0.56567 0.87498 0.0
C671 C 0.17408 0.57681 0.86164 0.0
C672 C 0.16851 0.58053 0.84336 0.0
H673 H 0.32073 0.63615 0.89018 0.0
H674 H 0.28363 0.63033 0.87837 0.0
C675 C 0.14545 0.57306 0.83845 0.0
C676 C 0.19818 0.58311 0.86649 0.0
H677 H 0.24162 0.61331 0.89808 0.0
C678 C 0.20855 0.57262 0.85662 0.0
C679 C 0.21047 0.59845 0.88126 0.0
C680 C 0.20061 0.61104 0.8917 0.0
C681 C 0.23061 0.57644 0.86161 0.0
C682 C 0.2424 0.59088 0.87701 0.0
C683 C 0.2324 0.60204 0.88641 0.0
C684 C 0.2649 0.59425 0.88385 0.0
C685 C 0.24109 0.56495 0.85037 0.0
C686 C 0.26656 0.5759 0.89102 0.0
C687 C 0.28771 0.57914 0.89779 0.0
C688 C 0.30759 0.60083 0.89759 0.0
C689 C 0.30579 0.61921 0.8905 0.0
C690 C 0.28462 0.61594 0.88375 0.0
H691 H 0.23295 0.55962 0.8362 0.0
H692 H 0.26006 0.57632 0.84855 0.0
H693 H 0.23826 0.54955 0.85803 0.0
H694 H 0.25142 0.5591 0.89155 0.0
H695 H 0.28843 0.56464 0.90323 0.0
H696 H 0.60287 0.12452 0.01388 0.0
H697 H 0.62791 0.16347 0.02454 0.0
H698 H 0.56788 0.16694 0.04254 0.0
H699 H 0.54265 0.12761 0.03236 0.0
H700 H 0.62734 0.20202 0.01193 0.0
H701 H 0.6109 0.18919 0.08918 0.0
H702 H 0.60342 0.166 0.07303 0.0
H703 H 0.58546 0.1787 0.07462 0.0
C704 C 0.59499 0.13343 0.02035 0.0
C705 C 0.57078 0.12292 0.02241 0.0
C706 C 0.60931 0.15573 0.02633 0.0
C707 C 0.59976 0.16795 0.03456 0.0
C708 C 0.57561 0.15764 0.03652 0.0
H709 H 0.67343 0.31451 0.04641 0.0
H710 H 0.64467 0.27501 0.03978 0.0
C711 C 0.56121 0.13528 0.03051 0.0
C712 C 0.61519 0.19176 0.04038 0.0
H713 H 0.63421 0.22709 0.07862 0.0
C714 C 0.62882 0.20752 0.0265 0.0
C715 C 0.61723 0.19877 0.05944 0.0
C716 C 0.60365 0.18229 0.075 0.0
C717 C 0.64442 0.23018 0.03113 0.0
C718 C 0.64616 0.23731 0.05012 0.0
C719 C 0.63265 0.22155 0.06406 0.0
C720 C 0.66233 0.26105 0.05572 0.0
C721 C 0.65929 0.24619 0.01572 0.0
C722 C 0.68131 0.26619 0.06747 0.0
C723 C 0.69777 0.28877 0.07138 0.0
C724 C 0.69543 0.30653 0.06359 0.0
C725 C 0.67585 0.30123 0.05248 0.0
C726 C 0.65942 0.27869 0.04863 0.0
H727 H 0.65974 0.23695 0.00294 0.0
H728 H 0.65209 0.25716 0.01157 0.0
H729 H 0.67733 0.25731 0.02074 0.0
H730 H 0.68376 0.25275 0.07314 0.0
H731 H 0.71261 0.29232 0.08004 0.0
H732 H 0.4936 0.60166 0.20729 0.0
H733 H 0.48144 0.62814 0.21837 0.0
H734 H 0.41189 0.58272 0.19877 0.0
H735 H 0.4239 0.55602 0.18787 0.0
H736 H 0.46495 0.64964 0.19689 0.0
H737 H 0.39969 0.59805 0.25118 0.0
H738 H 0.41978 0.59019 0.24152 0.0
H739 H 0.39405 0.58424 0.22863 0.0
C740 C 0.47567 0.59727 0.20546 0.0
C741 C 0.45969 0.5768 0.1967 0.0
C742 C 0.46874 0.61236 0.21186 0.0
C743 C 0.44569 0.60728 0.20963 0.0
C744 C 0.42961 0.58673 0.20108 0.0
H745 H 0.37474 0.68356 0.2174 0.0
H746 H 0.38631 0.655 0.21267 0.0
C747 C 0.43651 0.57153 0.19479 0.0
C748 C 0.43896 0.62424 0.21503 0.0
H749 H 0.40045 0.63201 0.24131 0.0
C750 C 0.45101 0.64586 0.20676 0.0
C751 C 0.42075 0.61925 0.22789 0.0
C752 C 0.40796 0.59675 0.23797 0.0
C753 C 0.44497 0.66244 0.21064 0.0
C754 C 0.42653 0.65731 0.22323 0.0
C755 C 0.41458 0.63581 0.23165 0.0
C756 C 0.41903 0.67395 0.22732 0.0
C757 C 0.45795 0.68514 0.20087 0.0
C758 C 0.43346 0.69383 0.23744 0.0
C759 C 0.42689 0.71017 0.24022 0.0
C760 C 0.40581 0.70688 0.23286 0.0
C761 C 0.39114 0.68665 0.22316 0.0
C762 C 0.39767 0.67028 0.22048 0.0
H763 H 0.46893 0.685 0.18912 0.0
H764 H 0.44565 0.69021 0.19518 0.0
H765 H 0.46935 0.69821 0.21124 0.0
H766 H 0.44993 0.69682 0.24296 0.0
H767 H 0.43853 0.72555 0.2478 0.0
H768 H 0.88297 0.48566 0.33396 0.0
H769 H 0.84284 0.47138 0.34386 0.0
H770 H 0.84052 0.41184 0.36735 0.0
H771 H 0.88094 0.42623 0.35771 0.0
H772 H 0.80102 0.42864 0.33577 0.0
H773 H 0.82471 0.44206 0.41205 0.0
H774 H 0.84603 0.45496 0.39353 0.0
H775 H 0.83386 0.42537 0.39877 0.0
C776 C 0.87391 0.46951 0.34122 0.0
C777 C 0.88514 0.45718 0.34528 0.0
C778 C 0.85097 0.46132 0.34674 0.0
C779 C 0.83889 0.44072 0.35651 0.0
C780 C 0.84971 0.42791 0.35999 0.0
H781 H 0.69195 0.37989 0.38705 0.0
H782 H 0.72883 0.38506 0.3752 0.0
C783 C 0.87268 0.43606 0.35437 0.0
C784 C 0.81537 0.4334 0.36376 0.0
H785 H 0.78558 0.42849 0.40437 0.0
C786 C 0.79751 0.42833 0.35077 0.0
C787 C 0.81105 0.43332 0.38332 0.0
C788 C 0.8299 0.43935 0.3978 0.0
C789 C 0.77543 0.42348 0.35685 0.0
C790 C 0.77119 0.4236 0.3764 0.0
C791 C 0.78894 0.42832 0.3894 0.0
C792 C 0.74886 0.42023 0.38363 0.0
C793 C 0.75704 0.41907 0.34233 0.0
C794 C 0.74806 0.43822 0.39254 0.0
C795 C 0.72709 0.43537 0.39933 0.0
C796 C 0.70652 0.41438 0.39746 0.0
C797 C 0.70745 0.39629 0.38868 0.0
C798 C 0.72846 0.39921 0.38183 0.0
H799 H 0.76428 0.42341 0.32781 0.0
H800 H 0.74362 0.40084 0.3426 0.0
H801 H 0.74841 0.42902 0.34565 0.0
H802 H 0.76369 0.45456 0.39409 0.0
H803 H 0.72703 0.44963 0.40605 0.0
H804 H 0.11898 0.57046 0.38066 0.0
H805 H 0.14626 0.5854 0.40714 0.0
H806 H 0.08962 0.569 0.44539 0.0
H807 H 0.06216 0.55358 0.41908 0.0
H808 H 0.15401 0.62051 0.4341 0.0
H809 H 0.12293 0.53605 0.46721 0.0
H810 H 0.1163 0.5393 0.44307 0.0
H811 H 0.10092 0.54324 0.46218 0.0
C812 C 0.11233 0.56994 0.39473 0.0
C813 C 0.08841 0.56068 0.39782 0.0
C814 C 0.12793 0.57862 0.40979 0.0
C815 C 0.11988 0.57804 0.4282 0.0
C816 C 0.0961 0.56933 0.43129 0.0
H817 H 0.20142 0.64364 0.52885 0.0
H818 H 0.17452 0.63222 0.50212 0.0
C819 C 0.08049 0.56071 0.41623 0.0
C820 C 0.13633 0.58608 0.44421 0.0
H821 H 0.15117 0.56797 0.48399 0.0
C822 C 0.15342 0.60908 0.44505 0.0
C823 C 0.13558 0.57101 0.4583 0.0
C824 C 0.11809 0.54598 0.45767 0.0
C825 C 0.16976 0.61747 0.45976 0.0
C826 C 0.16877 0.60245 0.474 0.0
C827 C 0.15176 0.57943 0.47308 0.0
C828 C 0.18556 0.61009 0.48978 0.0
C829 C 0.1882 0.6422 0.45977 0.0
C830 C 0.20044 0.6012 0.49178 0.0
C831 C 0.21574 0.60762 0.50703 0.0
C832 C 0.21631 0.62292 0.52064 0.0
C833 C 0.20143 0.63187 0.51856 0.0
C834 C 0.18615 0.62547 0.50326 0.0
H835 H 0.18966 0.65028 0.44581 0.0
H836 H 0.18374 0.65132 0.47046 0.0
H837 H 0.20534 0.6443 0.46358 0.0
H838 H 0.20015 0.58923 0.48154 0.0
H839 H 0.22696 0.6004 0.50825 0.0
H840 H 0.5116 0.10174 0.55649 0.0
H841 H 0.52309 0.12835 0.58306 0.0
H842 H 0.58209 0.11986 0.59354 0.0
H843 H 0.57059 0.09306 0.56726 0.0
H844 H 0.55306 0.11474 0.6261 0.0
H845 H 0.58062 0.19429 0.58556 0.0
H846 H 0.55269 0.17042 0.57986 0.0
H847 H 0.57846 0.1692 0.5749 0.0
C848 C 0.52703 0.10557 0.56446 0.0
C849 C 0.54025 0.09538 0.55976 0.0
C850 C 0.53365 0.12088 0.57952 0.0
C851 C 0.55353 0.12616 0.59011 0.0
C852 C 0.56676 0.11606 0.58544 0.0
H853 H 0.63388 0.22807 0.67257 0.0
H854 H 0.61875 0.20314 0.64504 0.0
C855 C 0.56025 0.10088 0.57035 0.0
C856 C 0.56023 0.14163 0.6065 0.0
H857 H 0.58184 0.19708 0.61885 0.0
C858 C 0.55925 0.13272 0.62456 0.0
C859 C 0.5684 0.16507 0.60434 0.0
C860 C 0.57032 0.17547 0.58514 0.0
C861 C 0.56635 0.1467 0.6406 0.0
C862 C 0.5745 0.17013 0.63846 0.0
C863 C 0.57542 0.17905 0.6204 0.0
C864 C 0.58319 0.1858 0.65475 0.0
C865 C 0.56568 0.13644 0.65965 0.0
C866 C 0.5681 0.18446 0.66915 0.0
C867 C 0.57667 0.19871 0.6849 0.0
C868 C 0.60049 0.21448 0.68647 0.0
C869 C 0.61547 0.21603 0.67182 0.0
C870 C 0.60686 0.20186 0.65606 0.0
H871 H 0.56286 0.11897 0.65843 0.0
H872 H 0.5821 0.14709 0.66746 0.0
H873 H 0.5513 0.13569 0.66813 0.0
H874 H 0.54972 0.1723 0.66826 0.0
H875 H 0.56468 0.19718 0.69592 0.0
H876 H 0.44066 0.5247 0.74071 0.0
H877 H 0.42859 0.53949 0.76712 0.0
H878 H 0.48873 0.60556 0.75909 0.0
H879 H 0.5007 0.59111 0.73226 0.0
H880 H 0.48077 0.58749 0.79739 0.0
H881 H 0.40304 0.58451 0.76552 0.0
H882 H 0.40451 0.55898 0.76296 0.0
H883 H 0.42574 0.58455 0.7515 0.0
C884 C 0.45112 0.54249 0.74428 0.0
C885 C 0.47163 0.55673 0.73429 0.0
C886 C 0.44421 0.55089 0.75942 0.0
C887 C 0.45766 0.57364 0.76489 0.0
C888 C 0.47811 0.58795 0.75501 0.0
H889 H 0.41617 0.6384 0.85132 0.0
H890 H 0.43185 0.63129 0.82245 0.0
C891 C 0.48497 0.57961 0.73977 0.0
C892 C 0.45086 0.58213 0.78151 0.0
H893 H 0.40762 0.5901 0.79882 0.0
C894 C 0.46491 0.58829 0.79767 0.0
C895 C 0.43027 0.58332 0.78172 0.0
C896 C 0.41507 0.57769 0.76446 0.0
C897 C 0.45841 0.59482 0.81434 0.0
C898 C 0.43732 0.59506 0.81479 0.0
C899 C 0.42372 0.58974 0.79842 0.0
C900 C 0.42857 0.59978 0.8324 0.0
C901 C 0.474 0.60119 0.83141 0.0
C902 C 0.42144 0.58432 0.84742 0.0
C903 C 0.41236 0.58822 0.86384 0.0
C904 C 0.41029 0.60772 0.86556 0.0
C905 C 0.41762 0.62328 0.85049 0.0
C906 C 0.42654 0.61924 0.83398 0.0
H907 H 0.49182 0.60513 0.82758 0.0
H908 H 0.47502 0.61611 0.83871 0.0
H909 H 0.46674 0.5868 0.84151 0.0
H910 H 0.42262 0.56906 0.84632 0.0
H911 H 0.40688 0.57589 0.87515 0.0
H912 H 0.91983 0.48979 0.9021 0.0
H913 H 0.89117 0.47283 0.92747 0.0
H914 H 0.89029 0.40955 0.92038 0.0
H915 H 0.91868 0.4262 0.89472 0.0
H916 H 0.84265 0.41821 0.92292 0.0
H917 H 0.90839 0.44263 0.98026 0.0
H918 H 0.9141 0.46114 0.96023 0.0
H919 H 0.91323 0.43463 0.9571 0.0
C920 C 0.91334 0.47219 0.90576 0.0
C921 C 0.92154 0.45933 0.89641 0.0
C922 C 0.89708 0.46259 0.92029 0.0
C923 C 0.88876 0.44003 0.92569 0.0
C924 C 0.89664 0.42703 0.91634 0.0
H925 H 0.80784 0.37181 0.02587 0.0
H926 H 0.83329 0.38246 -0.00176 0.0
C927 C 0.91293 0.43661 0.9018 0.0
C928 C 0.87212 0.43024 0.94141 0.0
H929 H 0.86919 0.42516 0.98938 0.0
C930 C 0.84834 0.41958 0.93747 0.0
C931 C 0.87978 0.43197 0.96023 0.0
C932 C 0.90526 0.44317 0.9649 0.0
C933 C 0.83188 0.41081 0.95206 0.0
C934 C 0.83954 0.41321 0.97101 0.0
C935 C 0.86337 0.42342 0.97484 0.0
C936 C 0.82323 0.40589 0.98714 0.0
C937 C 0.80645 0.39894 0.94705 0.0
C938 C 0.80925 0.41564 0.99008 0.0
C939 C 0.79468 0.40958 0.00581 0.0
C940 C 0.794 0.3938 0.01898 0.0
C941 C 0.80798 0.38401 0.01597 0.0
C942 C 0.82251 0.39006 0.00021 0.0
H943 H 0.80342 0.39275 0.93222 0.0
H944 H 0.79617 0.38434 0.95659 0.0
H945 H 0.79998 0.41105 0.94852 0.0
H946 H 0.80993 0.42829 0.9804 0.0
H947 H 0.78422 0.41752 0.00779 0.0
H948 H 0.50117 0.91954 0.05946 0.0
H949 H 0.48982 0.89272 0.08578 0.0
H950 H 0.42348 0.88924 0.08867 0.0
H951 H 0.43486 0.91662 0.06288 0.0
H952 H 0.47251 0.90045 0.12385 0.0
H953 H 0.41142 0.82107 0.08591 0.0
H954 H 0.43455 0.84533 0.07399 0.0
H955 H 0.40905 0.84586 0.08133 0.0
C956 C 0.4842 0.91319 0.06574 0.0
C957 C 0.46895 0.92031 0.05904 0.0
C958 C 0.47772 0.89776 0.08067 0.0
C959 C 0.45579 0.88895 0.08899 0.0
C960 C 0.44038 0.89568 0.08222 0.0
H961 H 0.37853 0.79699 0.17895 0.0
H962 H 0.39216 0.8215 0.15112 0.0
C963 C 0.4469 0.91125 0.06741 0.0
C964 C 0.44933 0.87353 0.10537 0.0
H965 H 0.41312 0.81891 0.11916 0.0
C966 C 0.45967 0.88257 0.12287 0.0
C967 C 0.43248 0.85033 0.10393 0.0
C968 C 0.42124 0.8399 0.08528 0.0
C969 C 0.45309 0.86909 0.13921 0.0
C970 C 0.43618 0.8458 0.13782 0.0
C971 C 0.42609 0.83673 0.12019 0.0
C972 C 0.42812 0.83071 0.15458 0.0
C973 C 0.46368 0.88012 0.15788 0.0
C974 C 0.44377 0.8275 0.16563 0.0
C975 C 0.43605 0.81368 0.18167 0.0
C976 C 0.4125 0.80255 0.18676 0.0
C977 C 0.39679 0.80537 0.17541 0.0
C978 C 0.40455 0.81934 0.15949 0.0
H979 H 0.47133 0.89883 0.15731 0.0
H980 H 0.45059 0.87333 0.16938 0.0
H981 H 0.47777 0.87656 0.1615 0.0
H982 H 0.46194 0.83566 0.16183 0.0
H983 H 0.44852 0.81166 0.19003 0.0
H984 H 0.51606 0.42337 0.22909 0.0
H985 H 0.52845 0.41007 0.25657 0.0
H986 H 0.579 0.47914 0.27045 0.0
H987 H 0.56667 0.49259 0.24318 0.0
H988 H 0.5784 0.42181 0.26604 0.0
H989 H 0.53548 0.44938 0.31869 0.0
H990 H 0.52655 0.44396 0.29423 0.0
H991 H 0.5524 0.46965 0.3007 0.0
C992 C 0.52979 0.4357 0.23803 0.0
C993 C 0.54038 0.45902 0.23402 0.0
C994 C 0.5369 0.42807 0.25362 0.0
C995 C 0.55448 0.44367 0.26552 0.0
C996 C 0.5653 0.4669 0.26143 0.0
H997 H 0.62163 0.44655 0.3692 0.0
H998 H 0.60605 0.45377 0.34055 0.0
C999 C 0.55835 0.47452 0.2458 0.0
C1000 C 0.56143 0.43587 0.28247 0.0
H1001 H 0.56082 0.4374 0.3306 0.0
C1002 C 0.57442 0.42497 0.28019 0.0
C1003 C 0.55616 0.44011 0.3008 0.0
C1004 C 0.54174 0.45127 0.30388 0.0
C1005 C 0.58308 0.41895 0.2959 0.0
C1006 C 0.57812 0.42353 0.31429 0.0
C1007 C 0.56462 0.43394 0.31649 0.0
C1008 C 0.58766 0.41873 0.33148 0.0
C1009 C 0.59823 0.4086 0.29264 0.0
C1010 C 0.58235 0.39657 0.33598 0.0
C1011 C 0.59137 0.39236 0.35235 0.0
C1012 C 0.60565 0.41023 0.36461 0.0
C1013 C 0.61069 0.43236 0.36011 0.0
C1014 C 0.60179 0.43655 0.34373 0.0
H1015 H 0.6049 0.41128 0.27793 0.0
H1016 H 0.6132 0.41586 0.30251 0.0
H1017 H 0.58792 0.39006 0.29519 0.0
H1018 H 0.57105 0.3825 0.32694 0.0
H1019 H 0.58702 0.3751 0.35547 0.0
H1020 H 0.45099 0.89231 0.43605 0.0
H1021 H 0.43806 0.86563 0.40953 0.0
H1022 H 0.48542 0.91922 0.37255 0.0
H1023 H 0.49842 0.94589 0.39892 0.0
H1024 H 0.4171 0.86805 0.37754 0.0
H1025 H 0.49811 0.86863 0.35897 0.0
H1026 H 0.49446 0.87971 0.38108 0.0
H1027 H 0.50203 0.89666 0.35995 0.0
C1028 C 0.45874 0.89835 0.42228 0.0
C1029 C 0.47578 0.9212 0.41959 0.0
C1030 C 0.45143 0.88308 0.40718 0.0
C1031 C 0.46105 0.89034 0.38913 0.0
C1032 C 0.47821 0.91308 0.38645 0.0
H1033 H 0.40073 0.8401 0.28062 0.0
H1034 H 0.41565 0.86007 0.31046 0.0
C1035 C 0.4856 0.92833 0.40154 0.0
C1036 C 0.4519 0.8747 0.37276 0.0
H1037 H 0.46829 0.85444 0.33522 0.0
C1038 C 0.42824 0.86484 0.36842 0.0
C1039 C 0.46637 0.87026 0.36101 0.0
C1040 C 0.49161 0.87918 0.36559 0.0
C1041 C 0.41885 0.85146 0.35222 0.0
C1042 C 0.43362 0.84822 0.33984 0.0
C1043 C 0.45707 0.85722 0.3446 0.0
C1044 C 0.42517 0.83624 0.32157 0.0
C1045 C 0.3932 0.84098 0.34848 0.0
C1046 C 0.4263 0.81662 0.31766 0.0
C1047 C 0.41791 0.80519 0.30049 0.0
C1048 C 0.40836 0.81328 0.28692 0.0
C1049 C 0.40777 0.83326 0.29078 0.0
C1050 C 0.41618 0.84465 0.30789 0.0
H1051 H 0.38344 0.83936 0.36168 0.0
H1052 H 0.39031 0.85199 0.33861 0.0
H1053 H 0.38601 0.82394 0.34195 0.0
H1054 H 0.43336 0.80997 0.32799 0.0
H1055 H 0.4187 0.7899 0.29796 0.0
H1056 H 0.51255 0.42576 0.588 0.0
H1057 H 0.52435 0.41016 0.56189 0.0
H1058 H 0.58953 0.4727 0.55796 0.0
H1059 H 0.57769 0.4888 0.58362 0.0
H1060 H 0.54459 0.43831 0.52243 0.0
H1061 H 0.59921 0.41267 0.56347 0.0
H1062 H 0.57464 0.41305 0.57394 0.0
H1063 H 0.6006 0.43921 0.56891 0.0
C1064 C 0.52933 0.43629 0.58151 0.0
C1065 C 0.54415 0.45858 0.5879 0.0
C1066 C 0.53607 0.42728 0.5667 0.0
C1067 C 0.5578 0.4403 0.55816 0.0
C1068 C 0.57275 0.4624 0.56455 0.0
H1069 H 0.63544 0.41795 0.47167 0.0
H1070 H 0.62224 0.4306 0.49888 0.0
C1071 C 0.56599 0.47149 0.57928 0.0
C1072 C 0.56463 0.43109 0.54212 0.0
H1073 H 0.59799 0.40788 0.53042 0.0
C1074 C 0.55616 0.43153 0.52411 0.0
C1075 C 0.57984 0.42249 0.5445 0.0
C1076 C 0.58915 0.42166 0.56373 0.0
C1077 C 0.56286 0.42389 0.50821 0.0
C1078 C 0.57798 0.41507 0.51056 0.0
C1079 C 0.58635 0.41456 0.52867 0.0
C1080 C 0.5858 0.40684 0.49434 0.0
C1081 C 0.55427 0.426 0.489 0.0
C1082 C 0.56971 0.389 0.48296 0.0
C1083 C 0.57718 0.38185 0.46731 0.0
C1084 C 0.60091 0.39222 0.46292 0.0
C1085 C 0.61703 0.40965 0.47466 0.0
C1086 C 0.60953 0.41689 0.49022 0.0
H1087 H 0.54816 0.43849 0.48906 0.0
H1088 H 0.56809 0.43123 0.47817 0.0
H1089 H 0.53946 0.40932 0.4848 0.0
H1090 H 0.55135 0.38063 0.48615 0.0
H1091 H 0.56436 0.36824 0.45864 0.0
H1092 H 0.10367 0.5898 0.75272 0.0
H1093 H 0.12969 0.60261 0.72527 0.0
H1094 H 0.1099 0.53332 0.71258 0.0
H1095 H 0.0838 0.52037 0.73986 0.0
H1096 H 0.16779 0.59068 0.7166 0.0
H1097 H 0.09695 0.56224 0.66355 0.0
H1098 H 0.09345 0.56817 0.68783 0.0
H1099 H 0.09312 0.54239 0.68193 0.0
C1100 C 0.10485 0.57732 0.74404 0.0
C1101 C 0.09168 0.55409 0.7484 0.0
C1102 C 0.11977 0.58466 0.72847 0.0
C1103 C 0.12152 0.56886 0.71692 0.0
C1104 C 0.10864 0.54572 0.72133 0.0
H1105 H 0.18639 0.56646 0.61321 0.0
H1106 H 0.16353 0.55878 0.64199 0.0
C1107 C 0.09388 0.53838 0.73696 0.0
C1108 C 0.13655 0.5764 0.70003 0.0
H1109 H 0.13468 0.57462 0.6519 0.0
C1110 C 0.16067 0.58738 0.70242 0.0
C1111 C 0.12705 0.57197 0.68165 0.0
C1112 C 0.10123 0.56069 0.67845 0.0
C1113 C 0.1756 0.5934 0.68679 0.0
C1114 C 0.16608 0.58873 0.66835 0.0
C1115 C 0.14194 0.57815 0.66603 0.0
C1116 C 0.18067 0.59375 0.65123 0.0
C1117 C 0.20132 0.60389 0.69018 0.0
C1118 C 0.19786 0.61601 0.64681 0.0
C1119 C 0.21113 0.62048 0.63037 0.0
C1120 C 0.20721 0.60278 0.61795 0.0
C1121 C 0.18987 0.58053 0.62242 0.0
C1122 C 0.17676 0.57608 0.63887 0.0
H1123 H 0.20517 0.60114 0.7049 0.0
H1124 H 0.20906 0.59681 0.68032 0.0
H1125 H 0.20987 0.62245 0.68774 0.0
H1126 H 0.20082 0.62997 0.65594 0.0
H1127 H 0.22423 0.63783 0.62729 0.0
H1128 H 0.51765 0.06913 0.89611 0.0
H1129 H 0.53219 0.09546 0.86947 0.0
H1130 H 0.57955 0.14884 0.9066 0.0
H1131 H 0.56511 0.12253 0.93338 0.0
H1132 H 0.53372 0.13639 0.86299 0.0
H1133 H 0.62228 0.1476 0.86578 0.0
H1134 H 0.5982 0.12558 0.87873 0.0
H1135 H 0.61273 0.15425 0.88733 0.0
C1136 C 0.53097 0.08654 0.89866 0.0
C1137 C 0.54032 0.09373 0.91684 0.0
C1138 C 0.53931 0.10154 0.88341 0.0
C1139 C 0.55718 0.124 0.88601 0.0
C1140 C 0.56609 0.13144 0.90422 0.0
H1141 H 0.60043 0.22795 0.79767 0.0
H1142 H 0.58541 0.20651 0.82705 0.0
C1143 C 0.55782 0.11641 0.9195 0.0
C1144 C 0.5667 0.13934 0.86951 0.0
H1145 H 0.61577 0.16926 0.84314 0.0
C1146 C 0.55168 0.14368 0.85867 0.0
C1147 C 0.59008 0.14859 0.86382 0.0
C1148 C 0.60676 0.14366 0.87439 0.0
C1149 C 0.55937 0.1569 0.84219 0.0
C1150 C 0.5828 0.16631 0.8366 0.0
C1151 C 0.59785 0.16214 0.84754 0.0
C1152 C 0.5918 0.17948 0.8189 0.0
C1153 C 0.54217 0.16002 0.83056 0.0
C1154 C 0.60081 0.17165 0.80476 0.0
C1155 C 0.60957 0.18391 0.78806 0.0
C1156 C 0.60954 0.20434 0.78515 0.0
C1157 C 0.60058 0.21222 0.79939 0.0
C1158 C 0.59187 0.19994 0.81616 0.0
H1159 H 0.52397 0.14749 0.83437 0.0
H1160 H 0.54484 0.17725 0.83309 0.0
H1161 H 0.54466 0.15839 0.81525 0.0
H1162 H 0.60095 0.15592 0.80661 0.0
H1163 H 0.61633 0.17732 0.77743 0.0
H1164 H 0.49792 0.59389 0.09346 0.0
H1165 H 0.48686 0.61009 0.06724 0.0
H1166 H 0.42784 0.54431 0.05551 0.0
H1167 H 0.43891 0.52794 0.08149 0.0
H1168 H 0.45756 0.56862 0.02338 0.0
H1169 H 0.4294 0.61998 0.06503 0.0
H1170 H 0.45716 0.62313 0.07094 0.0
H1171 H 0.43123 0.59656 0.07514 0.0
C1172 C 0.48259 0.5829 0.08528 0.0
C1173 C 0.46924 0.55966 0.08955 0.0
C1174 C 0.47621 0.5922 0.07043 0.0
C1175 C 0.45644 0.5784 0.0596 0.0
C1176 C 0.44309 0.55523 0.06381 0.0
H1177 H 0.37992 0.6066 0.97639 0.0
H1178 H 0.39338 0.59483 0.00403 0.0
C1179 C 0.44935 0.54595 0.07871 0.0
C1180 C 0.45006 0.58787 0.04341 0.0
H1181 H 0.4294 0.62317 0.03177 0.0
C1182 C 0.45147 0.58061 0.02517 0.0
C1183 C 0.44201 0.60337 0.0459 0.0
C1184 C 0.43965 0.61118 0.06529 0.0
C1185 C 0.44503 0.58847 0.00927 0.0
C1186 C 0.43711 0.60407 0.01174 0.0
C1187 C 0.43565 0.61132 0.02998 0.0
C1188 C 0.4294 0.61233 0.99553 0.0
C1189 C 0.44624 0.57968 0.98999 0.0
C1190 C 0.44531 0.62637 0.98181 0.0
C1191 C 0.43771 0.63317 0.96603 0.0
C1192 C 0.41404 0.62598 0.96371 0.0
C1193 C 0.39824 0.61233 0.97773 0.0
C1194 C 0.40588 0.60564 0.99354 0.0
H1195 H 0.44867 0.56471 0.99085 0.0
H1196 H 0.4302 0.57493 0.98183 0.0
H1197 H 0.46109 0.59323 0.98206 0.0
H1198 H 0.46358 0.63189 0.98325 0.0
H1199 H 0.45031 0.64377 0.95551 0.0
H1200 H 0.89356 0.45418 0.26361 0.0
H1201 H 0.86584 0.43955 0.23744 0.0
H1202 H 0.92029 0.44731 0.19981 0.0
H1203 H 0.94805 0.46182 0.22591 0.0
H1204 H 0.86729 0.46194 0.20545 0.0
H1205 H 0.8689 0.38366 0.18717 0.0
H1206 H 0.88062 0.39877 0.20904 0.0
H1207 H 0.8973 0.40831 0.1876 0.0
C1208 C 0.89959 0.45266 0.24977 0.0
C1209 C 0.92298 0.45915 0.2468 0.0
C1210 C 0.88372 0.44421 0.23487 0.0
C1211 C 0.89092 0.44202 0.21674 0.0
C1212 C 0.91421 0.44828 0.21378 0.0
H1213 H 0.83328 0.44591 0.10966 0.0
H1214 H 0.8556 0.4527 0.13863 0.0
C1215 C 0.93008 0.45664 0.22869 0.0
C1216 C 0.87449 0.43481 0.20065 0.0
H1217 H 0.85239 0.39723 0.16404 0.0
C1218 C 0.86384 0.44764 0.19652 0.0
C1219 C 0.86975 0.41597 0.18916 0.0
C1220 C 0.87955 0.40074 0.19356 0.0
C1221 C 0.84926 0.44264 0.18081 0.0
C1222 C 0.84558 0.42461 0.1687 0.0
C1223 C 0.85548 0.41122 0.17322 0.0
C1224 C 0.83219 0.41998 0.15095 0.0
C1225 C 0.83793 0.45676 0.1773 0.0
C1226 C 0.812 0.39902 0.14801 0.0
C1227 C 0.7992 0.39498 0.13134 0.0
C1228 C 0.80648 0.41183 0.11731 0.0
C1229 C 0.82702 0.43261 0.1202 0.0
C1230 C 0.83977 0.4366 0.13681 0.0
H1231 H 0.83695 0.46517 0.19043 0.0
H1232 H 0.84837 0.4702 0.16685 0.0
H1233 H 0.82015 0.44624 0.17154 0.0
H1234 H 0.80598 0.38592 0.15872 0.0
H1235 H 0.78352 0.37876 0.12954 0.0
loop_
_geom_bond_atom_site_label_1
_geom_bond_atom_site_label_2
_geom_bond_distance
_geom_bond_site_symmetry_2
_ccdc_geom_bond_type
H0 C19 0.949 . S
H1 C20 0.950 . S
H2 C22 0.950 . S
H3 C23 0.950 . S
H4 C25 0.950 . S
H5 C28 0.950 . S
H6 C29 0.950 . S
H7 C31 0.951 . S
H8 C32 0.949 . S
H9 C34 0.949 . S
H10 C35 0.950 . S
H11 C37 0.950 . S
H12 C38 0.950 . S
H13 C40 0.963 . S
H14 C43 0.950 . S
H15 C44 0.950 . S
H16 C46 0.951 . S
H17 C47 0.949 . S
C18 C19 1.376 . S
C18 C23 1.386 . S
C18 C24 1.483 . S
C19 H0 0.949 . S
C19 C18 1.376 . S
C19 C20 1.397 . S
C20 H1 0.950 . S
C20 C19 1.397 . S
C20 C21 1.391 . S
C21 C20 1.391 . S
C21 C22 1.405 . S
C22 H2 0.950 . S
C22 C21 1.405 . S
C22 C23 1.367 . S
C23 H3 0.950 . S
C23 C18 1.386 . S
C23 C22 1.367 . S
C24 C18 1.483 . S
C24 C25 1.382 1_655 S
C24 C26 1.403 . S
C25 H4 0.950 . S
C25 C24 1.382 1_455 S
C25 C41 1.411 . S
C26 C24 1.403 . S
C26 C27 1.489 . S
C26 C40 1.411 1_655 S
C27 C26 1.489 . S
C27 C28 1.383 . S
C27 C32 1.382 . S
C28 H5 0.950 . S
C28 C27 1.383 . S
C28 C29 1.395 . S
C29 H6 0.950 . S
C29 C28 1.395 . S
C29 C30 1.288 . S
C30 C29 1.288 . S
C30 C31 1.392 . S
C31 H7 0.951 . S
C31 C30 1.392 . S
C31 C32 1.392 . S
C32 H8 0.949 . S
C32 C27 1.382 . S
C32 C31 1.392 . S
C33 C34 1.376 . S
C33 C38 1.386 . S
C33 C39 1.483 . S
C34 H9 0.949 . S
C34 C33 1.376 . S
C34 C35 1.397 . S
C35 H10 0.950 . S
C35 C34 1.397 . S
C35 C36 1.391 . S
C36 C35 1.391 . S
C36 C37 1.405 . S
C37 H11 0.950 . S
C37 C36 1.405 . S
C37 C38 1.367 . S
C38 H12 0.950 . S
C38 C33 1.386 . S
C38 C37 1.367 . S
C39 C33 1.483 . S
C39 C40 1.382 . S
C39 C41 1.403 . S
C40 H13 0.963 . S
C40 C26 1.411 1_455 S
C40 C39 1.382 . S
C41 C25 1.411 . S
C41 C39 1.403 . S
C41 C42 1.489 . S
C42 C41 1.489 . S
C42 C43 1.383 . S
C42 C47 1.382 . S
C43 H14 0.950 . S
C43 C42 1.383 . S
C43 C44 1.395 . S
C44 H15 0.950 . S
C44 C43 1.395 . S
C44 C45 1.288 . S
C45 C44 1.288 . S
C45 C46 1.392 . S
C46 H16 0.951 . S
C46 C45 1.392 . S
C46 C47 1.392 . S
C47 H17 0.949 . S
C47 C42 1.382 . S
C47 C46 1.392 . S
H48 C67 0.949 . S
H49 C68 0.950 . S
H50 C70 0.950 . S
H51 C71 0.950 . S
H52 C73 0.943 1_565 S
H53 C76 0.950 . S
H54 C77 0.950 . S
H55 C79 0.951 . S
H56 C80 0.949 . S
H57 C82 0.949 . S
H58 C83 0.950 . S
H59 C85 0.950 . S
H60 C86 0.950 . S
H61 C88 0.950 . S
H62 C91 0.950 . S
H63 C92 0.950 . S
H64 C94 0.951 . S
H65 C95 0.949 . S
C66 C67 1.376 . S
C66 C71 1.386 . S
C66 C72 1.483 . S
C67 H48 0.949 . S
C67 C66 1.376 . S
C67 C68 1.397 . S
C68 H49 0.950 . S
C68 C67 1.397 . S
C68 C69 1.391 . S
C69 C68 1.391 . S
C69 C70 1.405 . S
C70 H50 0.950 . S
C70 C69 1.405 . S
C70 C71 1.367 . S
C71 H51 0.950 . S
C71 C66 1.386 . S
C71 C70 1.367 . S
C72 C66 1.483 . S
C72 C73 1.382 1_565 S
C72 C74 1.403 . S
C73 H52 0.943 1_545 S
C73 C72 1.382 1_545 S
C73 C89 1.411 . S
C74 C72 1.403 . S
C74 C75 1.489 . S
C74 C88 1.411 1_565 S
C75 C74 1.489 . S
C75 C76 1.383 . S
C75 C80 1.382 . S
C76 H53 0.950 . S
C76 C75 1.383 . S
C76 C77 1.395 . S
C77 H54 0.950 . S
C77 C76 1.395 . S
C77 C78 1.288 . S
C78 C77 1.288 . S
C78 C79 1.392 . S
C79 H55 0.951 . S
C79 C78 1.392 . S
C79 C80 1.392 . S
C80 H56 0.949 . S
C80 C75 1.382 . S
C80 C79 1.392 . S
C81 C82 1.376 . S
C81 C86 1.386 . S
C81 C87 1.483 . S
C82 H57 0.949 . S
C82 C81 1.376 . S
C82 C83 1.397 . S
C83 H58 0.950 . S
C83 C82 1.397 . S
C83 C84 1.391 . S
C84 C83 1.391 . S
C84 C85 1.405 . S
C85 H59 0.950 . S
C85 C84 1.405 . S
C85 C86 1.367 . S
C86 H60 0.950 . S
C86 C81 1.386 . S
C86 C85 1.367 . S
C87 C81 1.483 . S
C87 C88 1.382 . S
C87 C89 1.403 . S
C88 H61 0.950 . S
C88 C74 1.411 1_545 S
C88 C87 1.382 . S
C89 C73 1.411 . S
C89 C87 1.403 . S
C89 C90 1.489 . S
C90 C89 1.489 . S
C90 C91 1.383 . S
C90 C95 1.382 . S
C91 H62 0.950 . S
C91 C90 1.383 . S
C91 C92 1.395 . S
C92 H63 0.950 . S
C92 C91 1.395 . S
C92 C93 1.288 . S
C93 C92 1.288 . S
C93 C94 1.392 . S
C94 H64 0.951 . S
C94 C93 1.392 . S
C94 C95 1.392 . S
C95 H65 0.949 . S
C95 C90 1.382 . S
C95 C94 1.392 . S
H96 C115 0.949 . S
H97 C116 0.950 . S
H98 C118 0.950 . S
H99 C119 0.950 . S
H100 C121 0.950 . S
H101 C124 0.950 . S
H102 C125 0.950 . S
H103 C127 0.951 . S
H104 C128 0.949 . S
H105 C130 0.949 . S
H106 C131 0.950 . S
H107 C133 0.950 . S
H108 C134 0.950 . S
H109 C136 0.950 . S
H110 C139 0.950 . S
H111 C140 0.950 . S
H112 C142 0.951 . S
H113 C143 0.949 . S
C114 C115 1.376 . S
C114 C119 1.386 . S
C114 C120 1.483 . S
C115 H96 0.949 . S
C115 C114 1.376 . S
C115 C116 1.397 . S
C116 H97 0.950 . S
C116 C115 1.397 . S
C116 C117 1.391 . S
C117 C116 1.391 . S
C117 C118 1.405 . S
C118 H98 0.950 . S
C118 C117 1.405 . S
C118 C119 1.367 . S
C119 H99 0.950 . S
C119 C114 1.386 . S
C119 C118 1.367 . S
C120 C114 1.483 . S
C120 C121 1.382 . S
C120 C122 1.403 . S
C121 H100 0.950 . S
C121 C120 1.382 . S
C121 C137 1.411 . S
C122 C120 1.403 . S
C122 C123 1.489 . S
C122 C136 1.411 . S
C123 C122 1.489 . S
C123 C124 1.383 . S
C123 C128 1.382 . S
C124 H101 0.950 . S
C124 C123 1.383 . S
C124 C125 1.395 . S
C125 H102 0.950 . S
C125 C124 1.395 . S
C125 C126 1.288 . S
C126 C125 1.288 . S
C126 C127 1.392 . S
C127 H103 0.951 . S
C127 C126 1.392 . S
C127 C128 1.392 . S
C128 H104 0.949 . S
C128 C123 1.382 . S
C128 C127 1.392 . S
C129 C130 1.376 . S
C129 C134 1.386 . S
C129 C135 1.483 . S
C130 H105 0.949 . S
C130 C129 1.376 . S
C130 C131 1.397 . S
C131 H106 0.950 . S
C131 C130 1.397 . S
C131 C132 1.391 . S
C132 C131 1.391 . S
C132 C133 1.405 . S
C133 H107 0.950 . S
C133 C132 1.405 . S
C133 C134 1.367 . S
C134 H108 0.950 . S
C134 C129 1.386 . S
C134 C133 1.367 . S
C135 C129 1.483 . S
C135 C136 1.382 . S
C135 C137 1.403 . S
C136 H109 0.950 . S
C136 C122 1.411 . S
C136 C135 1.382 . S
C137 C121 1.411 . S
C137 C135 1.403 . S
C137 C138 1.489 . S
C138 C137 1.489 . S
C138 C139 1.383 . S
C138 C143 1.382 . S
C139 H110 0.950 . S
C139 C138 1.383 . S
C139 C140 1.395 . S
C140 H111 0.950 . S
C140 C139 1.395 . S
C140 C141 1.288 . S
C141 C140 1.288 . S
C141 C142 1.392 . S
C142 H112 0.951 . S
C142 C141 1.392 . S
C142 C143 1.392 . S
C143 H113 0.949 . S
C143 C138 1.382 . S
C143 C142 1.392 . S
H144 C163 0.949 . S
H145 C164 0.950 . S
H146 C166 0.950 . S
H147 C167 0.950 . S
H148 C169 0.950 1_655 S
H149 C172 0.950 . S
H150 C173 0.950 . S
H151 C175 0.951 . S
H152 C176 0.949 . S
H153 C178 0.949 . S
H154 C179 0.950 . S
H155 C181 0.950 . S
H156 C182 0.950 . S
H157 C184 0.950 . S
H158 C187 0.950 . S
H159 C188 0.950 . S
H160 C190 0.951 . S
H161 C191 0.949 . S
C162 C163 1.376 . S
C162 C167 1.386 . S
C162 C168 1.483 . S
C163 H144 0.949 . S
C163 C162 1.376 . S
C163 C164 1.397 . S
C164 H145 0.950 . S
C164 C163 1.397 . S
C164 C165 1.391 . S
C165 C164 1.391 . S
C165 C166 1.405 . S
C166 H146 0.950 . S
C166 C165 1.405 . S
C166 C167 1.367 . S
C167 H147 0.950 . S
C167 C162 1.386 . S
C167 C166 1.367 . S
C168 C162 1.483 . S
C168 C169 1.382 . S
C168 C170 1.403 . S
C169 H148 0.950 1_455 S
C169 C168 1.382 . S
C169 C185 1.411 1_455 S
C170 C168 1.403 . S
C170 C171 1.489 . S
C170 C184 1.411 . S
C171 C170 1.489 . S
C171 C172 1.383 . S
C171 C176 1.382 . S
C172 H149 0.950 . S
C172 C171 1.383 . S
C172 C173 1.395 . S
C173 H150 0.950 . S
C173 C172 1.395 . S
C173 C174 1.288 . S
C174 C173 1.288 . S
C174 C175 1.392 . S
C175 H151 0.951 . S
C175 C174 1.392 . S
C175 C176 1.392 . S
C176 H152 0.949 . S
C176 C171 1.382 . S
C176 C175 1.392 . S
C177 C178 1.376 . S
C177 C182 1.386 . S
C177 C183 1.483 . S
C178 H153 0.949 . S
C178 C177 1.376 . S
C178 C179 1.397 . S
C179 H154 0.950 . S
C179 C178 1.397 . S
C179 C180 1.391 . S
C180 C179 1.391 . S
C180 C181 1.405 . S
C181 H155 0.950 . S
C181 C180 1.405 . S
C181 C182 1.367 . S
C182 H156 0.950 . S
C182 C177 1.386 . S
C182 C181 1.367 . S
C183 C177 1.483 . S
C183 C184 1.382 1_655 S
C183 C185 1.403 . S
C184 H157 0.950 . S
C184 C170 1.411 . S
C184 C183 1.382 1_455 S
C185 C169 1.411 1_655 S
C185 C183 1.403 . S
C185 C186 1.489 . S
C186 C185 1.489 . S
C186 C187 1.383 . S
C186 C191 1.382 . S
C187 H158 0.950 . S
C187 C186 1.383 . S
C187 C188 1.395 . S
C188 H159 0.950 . S
C188 C187 1.395 . S
C188 C189 1.288 . S
C189 C188 1.288 . S
C189 C190 1.392 . S
C190 H160 0.951 . S
C190 C189 1.392 . S
C190 C191 1.392 . S
C191 H161 0.949 . S
C191 C186 1.382 . S
C191 C190 1.392 . S
H192 C211 0.949 . S
H193 C212 0.950 . S
H194 C214 0.950 . S
H195 C215 0.950 . S
H196 C217 0.950 . S
H197 C220 0.950 . S
H198 C221 0.950 . S
H199 C223 0.951 . S
H200 C224 0.949 . S
H201 C226 0.949 . S
H202 C227 0.950 . S
H203 C229 0.950 . S
H204 C230 0.950 . S
H205 C232 0.950 1_565 S
H206 C235 0.950 . S
H207 C236 0.950 . S
H208 C238 0.951 . S
H209 C239 0.949 . S
C210 C211 1.376 . S
C210 C215 1.386 1_554 S
C210 C216 1.483 1_554 S
C211 H192 0.949 . S
C211 C210 1.376 . S
C211 C212 1.397 . S
C212 H193 0.950 . S
C212 C211 1.397 . S
C212 C213 1.391 . S
C213 C212 1.391 . S
C213 C214 1.405 . S
C214 H194 0.950 . S
C214 C213 1.405 . S
C214 C215 1.367 1_554 S
C215 H195 0.950 . S
C215 C210 1.386 1_556 S
C215 C214 1.367 1_556 S
C216 C210 1.483 1_556 S
C216 C217 1.382 1_556 S
C216 C218 1.403 . S
C217 H196 0.950 . S
C217 C216 1.382 1_554 S
C217 C233 1.411 1_545 S
C218 C216 1.403 . S
C218 C219 1.489 . S
C218 C232 1.411 . S
C219 C218 1.489 . S
C219 C220 1.383 . S
C219 C224 1.382 . S
C220 H197 0.950 . S
C220 C219 1.383 . S
C220 C221 1.395 . S
C221 H198 0.950 . S
C221 C220 1.395 . S
C221 C222 1.288 . S
C222 C221 1.288 . S
C222 C223 1.392 . S
C223 H199 0.951 . S
C223 C222 1.392 . S
C223 C224 1.392 . S
C224 H200 0.949 . S
C224 C219 1.382 . S
C224 C223 1.392 . S
C225 C226 1.376 . S
C225 C230 1.386 . S
C225 C231 1.483 . S
C226 H201 0.949 . S
C226 C225 1.376 . S
C226 C227 1.397 . S
C227 H202 0.950 . S
C227 C226 1.397 . S
C227 C228 1.391 . S
C228 C227 1.391 . S
C228 C229 1.405 . S
C229 H203 0.950 . S
C229 C228 1.405 . S
C229 C230 1.367 . S
C230 H204 0.950 . S
C230 C225 1.386 . S
C230 C229 1.367 . S
C231 C225 1.483 . S
C231 C232 1.382 1_565 S
C231 C233 1.403 1_556 S
C232 H205 0.950 1_545 S
C232 C218 1.411 . S
C232 C231 1.382 1_545 S
C233 C217 1.411 1_565 S
C233 C231 1.403 1_554 S
C233 C234 1.489 . S
C234 C233 1.489 . S
C234 C235 1.383 . S
C234 C239 1.382 . S
C235 H206 0.950 . S
C235 C234 1.383 . S
C235 C236 1.395 . S
C236 H207 0.950 . S
C236 C235 1.395 . S
C236 C237 1.288 . S
C237 C236 1.288 . S
C237 C238 1.392 . S
C238 H208 0.951 . S
C238 C237 1.392 . S
C238 C239 1.392 . S
C239 H209 0.949 . S
C239 C234 1.382 . S
C239 C238 1.392 . S
H240 C259 0.949 . S
H241 C260 0.950 . S
H242 C262 0.950 . S
H243 C263 0.950 . S
H244 C265 0.950 . S
H245 C268 0.950 . S
H246 C269 0.950 . S
H247 C271 0.951 . S
H248 C272 0.949 . S
H249 C274 0.949 . S
H250 C275 0.950 . S
H251 C277 0.950 . S
H252 C278 0.950 . S
H253 C280 0.950 . S
H254 C283 0.950 . S
H255 C284 0.950 . S
H256 C286 0.951 . S
H257 C287 0.949 . S
C258 C259 1.376 . S
C258 C263 1.386 . S
C258 C264 1.483 . S
C259 H240 0.949 . S
C259 C258 1.376 . S
C259 C260 1.397 . S
C260 H241 0.950 . S
C260 C259 1.397 . S
C260 C261 1.391 . S
C261 C260 1.391 . S
C261 C262 1.405 . S
C262 H242 0.950 . S
C262 C261 1.405 . S
C262 C263 1.367 . S
C263 H243 0.950 . S
C263 C258 1.386 . S
C263 C262 1.367 . S
C264 C258 1.483 . S
C264 C265 1.382 . S
C264 C266 1.403 . S
C265 H244 0.950 . S
C265 C264 1.382 . S
C265 C281 1.411 . S
C266 C264 1.403 . S
C266 C267 1.489 . S
C266 C280 1.411 . S
C267 C266 1.489 . S
C267 C268 1.383 . S
C267 C272 1.382 . S
C268 H245 0.950 . S
C268 C267 1.383 . S
C268 C269 1.395 . S
C269 H246 0.950 . S
C269 C268 1.395 . S
C269 C270 1.288 . S
C270 C269 1.288 . S
C270 C271 1.392 . S
C271 H247 0.951 . S
C271 C270 1.392 . S
C271 C272 1.392 . S
C272 H248 0.949 . S
C272 C267 1.382 . S
C272 C271 1.392 . S
C273 C274 1.376 . S
C273 C278 1.386 . S
C273 C279 1.483 . S
C274 H249 0.949 . S
C274 C273 1.376 . S
C274 C275 1.397 . S
C275 H250 0.950 . S
C275 C274 1.397 . S
C275 C276 1.391 . S
C276 C275 1.391 . S
C276 C277 1.405 . S
C277 H251 0.950 . S
C277 C276 1.405 . S
C277 C278 1.367 . S
C278 H252 0.950 . S
C278 C273 1.386 . S
C278 C277 1.367 . S
C279 C273 1.483 . S
C279 C280 1.382 . S
C279 C281 1.403 . S
C280 H253 0.950 . S
C280 C266 1.411 . S
C280 C279 1.382 . S
C281 C265 1.411 . S
C281 C279 1.403 . S
C281 C282 1.489 . S
C282 C281 1.489 . S
C282 C283 1.383 . S
C282 C287 1.382 . S
C283 H254 0.950 . S
C283 C282 1.383 . S
C283 C284 1.395 . S
C284 H255 0.950 . S
C284 C283 1.395 . S
C284 C285 1.288 . S
C285 C284 1.288 . S
C285 C286 1.392 . S
C286 H256 0.951 . S
C286 C285 1.392 . S
C286 C287 1.392 . S
C287 H257 0.949 . S
C287 C282 1.382 . S
C287 C286 1.392 . S
C288 O289 1.306 . S
C288 O291 1.160 . S
O289 C288 1.306 . S
O289 Cd290 2.228 . S
Cd290 O289 2.228 . S
Cd290 O294 2.273 . S
Cd290 O298 2.277 . S
O291 C288 1.160 . S
O291 Cd292 2.203 . S
Cd292 O291 2.203 . S
Cd292 O294 2.411 . S
Cd292 O295 2.333 . S
Cd292 O296 2.352 . S
Cd292 O300 2.277 . S
Cd292 O301 2.356 . S
C293 O298 1.209 . S
C293 O300 1.226 . S
O294 Cd290 2.273 . S
O294 Cd292 2.411 . S
O294 C297 1.320 . S
O295 Cd292 2.333 . S
O295 C297 1.214 . S
O296 Cd292 2.352 . S
O296 C299 1.258 . S
C297 O294 1.320 . S
C297 O295 1.214 . S
O298 Cd290 2.277 . S
O298 C293 1.209 . S
C299 O296 1.258 . S
C299 O301 1.282 . S
O300 Cd292 2.277 . S
O300 C293 1.226 . S
O301 Cd292 2.356 . S
O301 C299 1.282 . S
C302 O303 1.306 . S
C302 O305 1.160 . S
O303 C302 1.306 . S
O303 Cd304 2.228 . S
Cd304 O303 2.228 . S
Cd304 O308 2.273 . S
Cd304 O312 2.277 . S
O305 C302 1.160 . S
O305 Cd306 2.203 . S
Cd306 O305 2.203 . S
Cd306 O308 2.411 . S
Cd306 O309 2.333 . S
Cd306 O310 2.352 . S
Cd306 O314 2.277 . S
Cd306 O315 2.356 . S
C307 O312 1.209 . S
C307 O314 1.226 . S
O308 Cd304 2.273 . S
O308 Cd306 2.411 . S
O308 C311 1.320 . S
O309 Cd306 2.333 . S
O309 C311 1.214 . S
O310 Cd306 2.352 . S
O310 C313 1.258 . S
C311 O308 1.320 . S
C311 O309 1.214 . S
O312 Cd304 2.277 . S
O312 C307 1.209 . S
C313 O310 1.258 . S
C313 O315 1.282 . S
O314 Cd306 2.277 . S
O314 C307 1.226 . S
O315 Cd306 2.356 . S
O315 C313 1.282 . S
C316 O317 1.306 . S
C316 O319 1.160 . S
O317 C316 1.306 . S
O317 Cd318 2.228 . S
Cd318 O317 2.228 . S
Cd318 O322 2.273 . S
Cd318 O326 2.277 . S
O319 C316 1.160 . S
O319 Cd320 2.203 . S
Cd320 O319 2.203 . S
Cd320 O322 2.411 . S
Cd320 O323 2.333 . S
Cd320 O324 2.352 . S
Cd320 O328 2.277 . S
Cd320 O329 2.356 . S
C321 O326 1.209 . S
C321 O328 1.226 . S
O322 Cd318 2.273 . S
O322 Cd320 2.411 . S
O322 C325 1.320 . S
O323 Cd320 2.333 . S
O323 C325 1.214 . S
O324 Cd320 2.352 . S
O324 C327 1.258 . S
C325 O322 1.320 . S
C325 O323 1.214 . S
O326 Cd318 2.277 . S
O326 C321 1.209 . S
C327 O324 1.258 . S
C327 O329 1.282 . S
O328 Cd320 2.277 . S
O328 C321 1.226 . S
O329 Cd320 2.356 . S
O329 C327 1.282 . S
C330 O331 1.306 . S
C330 O333 1.160 . S
O331 C330 1.306 . S
O331 Cd332 2.228 . S
Cd332 O331 2.228 . S
Cd332 O336 2.273 . S
Cd332 O340 2.277 . S
O333 C330 1.160 . S
O333 Cd334 2.203 . S
Cd334 O333 2.203 . S
Cd334 O336 2.411 . S
Cd334 O337 2.333 . S
Cd334 O338 2.352 . S
Cd334 O342 2.277 . S
Cd334 O343 2.356 . S
C335 O340 1.209 . S
C335 O342 1.226 . S
O336 Cd332 2.273 . S
O336 Cd334 2.411 . S
O336 C339 1.320 . S
O337 Cd334 2.333 . S
O337 C339 1.214 . S
O338 Cd334 2.352 . S
O338 C341 1.258 . S
C339 O336 1.320 . S
C339 O337 1.214 . S
O340 Cd332 2.277 . S
O340 C335 1.209 . S
C341 O338 1.258 . S
C341 O343 1.282 . S
O342 Cd334 2.277 . S
O342 C335 1.226 . S
O343 Cd334 2.356 . S
O343 C341 1.282 . S
C344 O345 1.306 . S
C344 O347 1.160 . S
O345 C344 1.306 . S
O345 Cd346 2.228 . S
Cd346 O345 2.228 . S
Cd346 O350 2.273 . S
Cd346 O354 2.277 . S
O347 C344 1.160 . S
O347 Cd348 2.203 . S
Cd348 O347 2.203 . S
Cd348 O350 2.411 . S
Cd348 O351 2.333 . S
Cd348 O352 2.352 . S
Cd348 O356 2.277 . S
Cd348 O357 2.356 . S
C349 O354 1.209 . S
C349 O356 1.226 . S
O350 Cd346 2.273 . S
O350 Cd348 2.411 . S
O350 C353 1.320 . S
O351 Cd348 2.333 . S
O351 C353 1.214 . S
O352 Cd348 2.352 . S
O352 C355 1.258 . S
C353 O350 1.320 . S
C353 O351 1.214 . S
O354 Cd346 2.277 . S
O354 C349 1.209 . S
C355 O352 1.258 . S
C355 O357 1.282 . S
O356 Cd348 2.277 . S
O356 C349 1.226 . S
O357 Cd348 2.356 . S
O357 C355 1.282 . S
C358 O359 1.306 . S
C358 O361 1.160 . S
O359 C358 1.306 . S
O359 Cd360 2.228 . S
Cd360 O359 2.228 . S
Cd360 O364 2.273 . S
Cd360 O368 2.277 . S
O361 C358 1.160 . S
O361 Cd362 2.203 . S
Cd362 O361 2.203 . S
Cd362 O364 2.411 . S
Cd362 O365 2.333 . S
Cd362 O366 2.352 . S
Cd362 O370 2.277 . S
Cd362 O371 2.356 . S
C363 O368 1.209 . S
C363 O370 1.226 . S
O364 Cd360 2.273 . S
O364 Cd362 2.411 . S
O364 C367 1.320 . S
O365 Cd362 2.333 . S
O365 C367 1.214 . S
O366 Cd362 2.352 . S
O366 C369 1.258 . S
C367 O364 1.320 . S
C367 O365 1.214 . S
O368 Cd360 2.277 . S
O368 C363 1.209 . S
C369 O366 1.258 . S
C369 O371 1.282 . S
O370 Cd362 2.277 . S
O370 C363 1.226 . S
O371 Cd362 2.356 . S
O371 C369 1.282 . S
H372 C380 0.929 . S
H373 C382 0.930 . S
H374 C384 0.930 . S
H375 C387 0.929 . S
H376 C390 0.930 . S
H377 C392 0.960 . S
H378 C392 0.960 . S
H379 C392 0.960 . S
C380 H372 0.929 . S
C380 C381 1.377 . S
C380 C382 1.384 . S
C381 C380 1.377 . S
C381 C387 1.390 . S
C382 H373 0.930 . S
C382 C380 1.384 . S
C382 C383 1.372 . S
C383 C382 1.372 . S
C383 C384 1.400 . S
C383 C388 1.490 . S
C384 H374 0.930 . S
C384 C383 1.400 . S
C384 C387 1.386 . S
H385 C401 0.930 . S
H386 C402 0.931 . S
C387 H375 0.929 . S
C387 C381 1.390 . S
C387 C384 1.386 . S
C388 C383 1.490 . S
C388 C390 1.395 . S
C388 C391 1.403 . S
H389 C395 0.930 . S
C390 H376 0.930 . S
C390 C388 1.395 . S
C390 C393 1.403 . S
C391 C388 1.403 . S
C391 C392 1.524 . S
C391 C395 1.400 . S
C392 H377 0.960 . S
C392 H378 0.960 . S
C392 H379 0.960 . S
C392 C391 1.524 . S
C393 C390 1.403 . S
C393 C394 1.392 . S
C393 C397 1.495 . S
C394 C393 1.392 . S
C394 C395 1.385 . S
C394 C396 1.478 . S
C395 H389 0.930 . S
C395 C391 1.400 . S
C395 C394 1.385 . S
C396 C394 1.478 . S
C396 C398 1.381 . S
C396 C402 1.383 . S
C397 C393 1.495 . S
C397 H403 0.959 . S
C397 H404 0.961 . S
C397 H405 0.960 . S
C398 C396 1.381 . S
C398 C399 1.394 . S
C398 H406 0.930 . S
C399 C398 1.394 . S
C399 C400 1.383 . S
C399 H407 0.929 . S
C400 C399 1.383 . S
C400 C401 1.377 . S
C401 H385 0.930 . S
C401 C400 1.377 . S
C401 C402 1.379 . S
C402 H386 0.931 . S
C402 C396 1.383 . S
C402 C401 1.379 . S
H403 C397 0.959 . S
H404 C397 0.961 . S
H405 C397 0.960 . S
H406 C398 0.930 . S
H407 C399 0.929 . S
H408 C416 0.929 . S
H409 C418 0.930 . S
H410 C420 0.930 . S
H411 C423 0.929 . S
H412 C426 0.930 . S
H413 C428 0.960 . S
H414 C428 0.960 . S
H415 C428 0.960 . S
C416 H408 0.929 . S
C416 C417 1.377 . S
C416 C418 1.384 . S
C417 C416 1.377 . S
C417 C423 1.390 . S
C418 H409 0.930 . S
C418 C416 1.384 . S
C418 C419 1.372 . S
C419 C418 1.372 . S
C419 C420 1.400 . S
C419 C424 1.490 . S
C420 H410 0.930 . S
C420 C419 1.400 . S
C420 C423 1.386 . S
H421 C437 0.930 . S
H422 C438 0.931 . S
C423 H411 0.929 . S
C423 C417 1.390 . S
C423 C420 1.386 . S
C424 C419 1.490 . S
C424 C426 1.395 . S
C424 C427 1.403 . S
H425 C431 0.930 . S
C426 H412 0.930 . S
C426 C424 1.395 . S
C426 C429 1.403 . S
C427 C424 1.403 . S
C427 C428 1.524 . S
C427 C431 1.400 . S
C428 H413 0.960 . S
C428 H414 0.960 . S
C428 H415 0.960 . S
C428 C427 1.524 . S
C429 C426 1.403 . S
C429 C430 1.392 . S
C429 C433 1.495 . S
C430 C429 1.392 . S
C430 C431 1.385 . S
C430 C432 1.478 . S
C431 H425 0.930 . S
C431 C427 1.400 . S
C431 C430 1.385 . S
C432 C430 1.478 . S
C432 C434 1.381 . S
C432 C438 1.383 . S
C433 C429 1.495 . S
C433 H439 0.959 . S
C433 H440 0.961 . S
C433 H441 0.960 . S
C434 C432 1.381 . S
C434 C435 1.394 . S
C434 H442 0.930 . S
C435 C434 1.394 . S
C435 C436 1.383 . S
C435 H443 0.929 . S
C436 C435 1.383 . S
C436 C437 1.377 . S
C437 H421 0.930 . S
C437 C436 1.377 . S
C437 C438 1.379 . S
C438 H422 0.931 . S
C438 C432 1.383 . S
C438 C437 1.379 . S
H439 C433 0.959 . S
H440 C433 0.961 . S
H441 C433 0.960 . S
H442 C434 0.930 . S
H443 C435 0.929 . S
H444 C452 0.929 . S
H445 C454 0.930 . S
H446 C456 0.930 . S
H447 C459 0.929 . S
H448 C462 0.930 . S
H449 C464 0.960 . S
H450 C464 0.960 . S
H451 C464 0.960 . S
C452 H444 0.929 . S
C452 C453 1.377 . S
C452 C454 1.384 . S
C453 C452 1.377 . S
C453 C459 1.390 . S
C454 H445 0.930 . S
C454 C452 1.384 . S
C454 C455 1.372 . S
C455 C454 1.372 . S
C455 C456 1.400 . S
C455 C460 1.490 . S
C456 H446 0.930 . S
C456 C455 1.400 . S
C456 C459 1.386 . S
H457 C473 0.930 . S
H458 C474 0.931 . S
C459 H447 0.929 . S
C459 C453 1.390 . S
C459 C456 1.386 . S
C460 C455 1.490 . S
C460 C462 1.395 . S
C460 C463 1.403 . S
H461 C467 0.930 . S
C462 H448 0.930 . S
C462 C460 1.395 . S
C462 C465 1.403 . S
C463 C460 1.403 . S
C463 C464 1.524 . S
C463 C467 1.400 . S
C464 H449 0.960 . S
C464 H450 0.960 . S
C464 H451 0.960 . S
C464 C463 1.524 . S
C465 C462 1.403 . S
C465 C466 1.392 . S
C465 C469 1.495 . S
C466 C465 1.392 . S
C466 C467 1.385 . S
C466 C468 1.478 . S
C467 H461 0.930 . S
C467 C463 1.400 . S
C467 C466 1.385 . S
C468 C466 1.478 . S
C468 C470 1.381 . S
C468 C474 1.383 . S
C469 C465 1.495 . S
C469 H475 0.959 . S
C469 H476 0.961 . S
C469 H477 0.960 . S
C470 C468 1.381 . S
C470 C471 1.394 . S
C470 H478 0.930 . S
C471 C470 1.394 . S
C471 C472 1.383 . S
C471 H479 0.929 . S
C472 C471 1.383 . S
C472 C473 1.377 . S
C473 H457 0.930 . S
C473 C472 1.377 . S
C473 C474 1.379 . S
C474 H458 0.931 . S
C474 C468 1.383 . S
C474 C473 1.379 . S
H475 C469 0.959 . S
H476 C469 0.961 . S
H477 C469 0.960 . S
H478 C470 0.930 . S
H479 C471 0.929 . S
H480 C488 0.929 . S
H481 C490 0.930 . S
H482 C492 0.930 . S
H483 C495 0.929 . S
H484 C498 0.930 . S
H485 C500 0.960 . S
H486 C500 0.960 . S
H487 C500 0.960 . S
C488 H480 0.929 . S
C488 C489 1.377 . S
C488 C490 1.384 . S
C489 C488 1.377 . S
C489 C495 1.390 . S
C490 H481 0.930 . S
C490 C488 1.384 . S
C490 C491 1.372 . S
C491 C490 1.372 . S
C491 C492 1.400 . S
C491 C496 1.490 . S
C492 H482 0.930 . S
C492 C491 1.400 . S
C492 C495 1.386 . S
H493 C509 0.930 . S
H494 C510 0.931 . S
C495 H483 0.929 . S
C495 C489 1.390 . S
C495 C492 1.386 . S
C496 C491 1.490 . S
C496 C498 1.395 . S
C496 C499 1.403 . S
H497 C503 0.930 . S
C498 H484 0.930 . S
C498 C496 1.395 . S
C498 C501 1.403 . S
C499 C496 1.403 . S
C499 C500 1.524 . S
C499 C503 1.400 . S
C500 H485 0.960 . S
C500 H486 0.960 . S
C500 H487 0.960 . S
C500 C499 1.524 . S
C501 C498 1.403 . S
C501 C502 1.392 . S
C501 C505 1.495 . S
C502 C501 1.392 . S
C502 C503 1.385 . S
C502 C504 1.478 . S
C503 H497 0.930 . S
C503 C499 1.400 . S
C503 C502 1.385 . S
C504 C502 1.478 . S
C504 C506 1.381 . S
C504 C510 1.383 . S
C505 C501 1.495 . S
C505 H511 0.959 . S
C505 H512 0.961 . S
C505 H513 0.960 . S
C506 C504 1.381 . S
C506 C507 1.394 . S
C506 H514 0.930 . S
C507 C506 1.394 . S
C507 C508 1.383 . S
C507 H515 0.929 . S
C508 C507 1.383 . S
C508 C509 1.377 . S
C509 H493 0.930 . S
C509 C508 1.377 . S
C509 C510 1.379 . S
C510 H494 0.931 . S
C510 C504 1.383 . S
C510 C509 1.379 . S
H511 C505 0.959 . S
H512 C505 0.961 . S
H513 C505 0.960 . S
H514 C506 0.930 . S
H515 C507 0.929 . S
H516 C524 0.929 . S
H517 C526 0.930 . S
H518 C528 0.930 . S
H519 C531 0.929 . S
H520 C534 0.930 . S
H521 C536 0.960 . S
H522 C536 0.960 . S
H523 C536 0.960 . S
C524 H516 0.929 . S
C524 C525 1.377 . S
C524 C526 1.384 . S
C525 C524 1.377 . S
C525 C531 1.390 . S
C526 H517 0.930 . S
C526 C524 1.384 . S
C526 C527 1.372 . S
C527 C526 1.372 . S
C527 C528 1.400 . S
C527 C532 1.490 . S
C528 H518 0.930 . S
C528 C527 1.400 . S
C528 C531 1.386 . S
H529 C545 0.930 . S
H530 C546 0.931 . S
C531 H519 0.929 . S
C531 C525 1.390 . S
C531 C528 1.386 . S
C532 C527 1.490 . S
C532 C534 1.395 . S
C532 C535 1.403 . S
H533 C539 0.930 . S
C534 H520 0.930 . S
C534 C532 1.395 . S
C534 C537 1.403 . S
C535 C532 1.403 . S
C535 C536 1.524 . S
C535 C539 1.400 . S
C536 H521 0.960 . S
C536 H522 0.960 . S
C536 H523 0.960 . S
C536 C535 1.524 . S
C537 C534 1.403 . S
C537 C538 1.392 . S
C537 C541 1.495 . S
C538 C537 1.392 . S
C538 C539 1.385 . S
C538 C540 1.478 . S
C539 H533 0.930 . S
C539 C535 1.400 . S
C539 C538 1.385 . S
C540 C538 1.478 . S
C540 C542 1.381 . S
C540 C546 1.383 . S
C541 C537 1.495 . S
C541 H547 0.959 . S
C541 H548 0.961 . S
C541 H549 0.960 . S
C542 C540 1.381 . S
C542 C543 1.394 . S
C542 H550 0.930 . S
C543 C542 1.394 . S
C543 C544 1.383 . S
C543 H551 0.929 . S
C544 C543 1.383 . S
C544 C545 1.377 . S
C545 H529 0.930 . S
C545 C544 1.377 . S
C545 C546 1.379 . S
C546 H530 0.931 . S
C546 C540 1.383 . S
C546 C545 1.379 . S
H547 C541 0.959 . S
H548 C541 0.961 . S
H549 C541 0.960 . S
H550 C542 0.930 . S
H551 C543 0.929 . S
H552 C560 0.929 . S
H553 C562 0.930 . S
H554 C564 0.930 . S
H555 C567 0.929 . S
H556 C570 0.930 . S
H557 C572 0.960 . S
H558 C572 0.960 . S
H559 C572 0.960 . S
C560 H552 0.929 . S
C560 C561 1.377 . S
C560 C562 1.384 . S
C561 C560 1.377 . S
C561 C567 1.390 . S
C562 H553 0.930 . S
C562 C560 1.384 . S
C562 C563 1.372 . S
C563 C562 1.372 . S
C563 C564 1.400 . S
C563 C568 1.490 . S
C564 H554 0.930 . S
C564 C563 1.400 . S
C564 C567 1.386 . S
H565 C581 0.930 . S
H566 C582 0.931 . S
C567 H555 0.929 . S
C567 C561 1.390 . S
C567 C564 1.386 . S
C568 C563 1.490 . S
C568 C570 1.395 . S
C568 C571 1.403 . S
H569 C575 0.930 . S
C570 H556 0.930 . S
C570 C568 1.395 . S
C570 C573 1.403 . S
C571 C568 1.403 . S
C571 C572 1.524 . S
C571 C575 1.400 . S
C572 H557 0.960 . S
C572 H558 0.960 . S
C572 H559 0.960 . S
C572 C571 1.524 . S
C573 C570 1.403 . S
C573 C574 1.392 . S
C573 C577 1.495 . S
C574 C573 1.392 . S
C574 C575 1.385 . S
C574 C576 1.478 . S
C575 H569 0.930 . S
C575 C571 1.400 . S
C575 C574 1.385 . S
C576 C574 1.478 . S
C576 C578 1.381 . S
C576 C582 1.383 . S
C577 C573 1.495 . S
C577 H583 0.959 . S
C577 H584 0.961 . S
C577 H585 0.960 . S
C578 C576 1.381 . S
C578 C579 1.394 . S
C578 H586 0.930 . S
C579 C578 1.394 . S
C579 C580 1.383 . S
C579 H587 0.929 . S
C580 C579 1.383 . S
C580 C581 1.377 . S
C581 H565 0.930 . S
C581 C580 1.377 . S
C581 C582 1.379 . S
C582 H566 0.931 . S
C582 C576 1.383 . S
C582 C581 1.379 . S
H583 C577 0.959 . S
H584 C577 0.961 . S
H585 C577 0.960 . S
H586 C578 0.930 . S
H587 C579 0.929 . S
H588 C596 0.929 . S
H589 C598 0.930 . S
H590 C600 0.930 . S
H591 C603 0.929 . S
H592 C606 0.930 . S
H593 C608 0.960 . S
H594 C608 0.960 . S
H595 C608 0.960 . S
C596 H588 0.929 . S
C596 C597 1.377 . S
C596 C598 1.384 . S
C597 C596 1.377 . S
C597 C603 1.390 . S
C598 H589 0.930 . S
C598 C596 1.384 . S
C598 C599 1.372 . S
C599 C598 1.372 . S
C599 C600 1.400 . S
C599 C604 1.490 . S
C600 H590 0.930 . S
C600 C599 1.400 . S
C600 C603 1.386 . S
H601 C617 0.930 . S
H602 C618 0.931 . S
C603 H591 0.929 . S
C603 C597 1.390 . S
C603 C600 1.386 . S
C604 C599 1.490 . S
C604 C606 1.395 . S
C604 C607 1.403 . S
H605 C611 0.930 . S
C606 H592 0.930 . S
C606 C604 1.395 . S
C606 C609 1.403 . S
C607 C604 1.403 . S
C607 C608 1.524 . S
C607 C611 1.400 . S
C608 H593 0.960 . S
C608 H594 0.960 . S
C608 H595 0.960 . S
C608 C607 1.524 . S
C609 C606 1.403 . S
C609 C610 1.392 . S
C609 C613 1.495 . S
C610 C609 1.392 . S
C610 C611 1.385 . S
C610 C612 1.478 . S
C611 H605 0.930 . S
C611 C607 1.400 . S
C611 C610 1.385 . S
C612 C610 1.478 . S
C612 C614 1.381 . S
C612 C618 1.383 . S
C613 C609 1.495 . S
C613 H619 0.959 . S
C613 H620 0.961 . S
C613 H621 0.960 . S
C614 C612 1.381 . S
C614 C615 1.394 . S
C614 H622 0.930 . S
C615 C614 1.394 . S
C615 C616 1.383 . S
C615 H623 0.929 . S
C616 C615 1.383 . S
C616 C617 1.377 . S
C617 H601 0.930 . S
C617 C616 1.377 . S
C617 C618 1.379 . S
C618 H602 0.931 . S
C618 C612 1.383 . S
C618 C617 1.379 . S
H619 C613 0.959 . S
H620 C613 0.961 . S
H621 C613 0.960 . S
H622 C614 0.930 . S
H623 C615 0.929 . S
H624 C632 0.929 . S
H625 C634 0.930 . S
H626 C636 0.930 . S
H627 C639 0.929 . S
H628 C642 0.930 . S
H629 C644 0.960 . S
H630 C644 0.960 . S
H631 C644 0.960 . S
C632 H624 0.929 . S
C632 C633 1.377 . S
C632 C634 1.384 . S
C633 C632 1.377 . S
C633 C639 1.390 . S
C634 H625 0.930 . S
C634 C632 1.384 . S
C634 C635 1.372 . S
C635 C634 1.372 . S
C635 C636 1.400 . S
C635 C640 1.490 . S
C636 H626 0.930 . S
C636 C635 1.400 . S
C636 C639 1.386 . S
H637 C653 0.930 . S
H638 C654 0.931 . S
C639 H627 0.929 . S
C639 C633 1.390 . S
C639 C636 1.386 . S
C640 C635 1.490 . S
C640 C642 1.395 . S
C640 C643 1.403 . S
H641 C647 0.930 . S
C642 H628 0.930 . S
C642 C640 1.395 . S
C642 C645 1.403 . S
C643 C640 1.403 . S
C643 C644 1.524 . S
C643 C647 1.400 . S
C644 H629 0.960 . S
C644 H630 0.960 . S
C644 H631 0.960 . S
C644 C643 1.524 . S
C645 C642 1.403 . S
C645 C646 1.392 . S
C645 C649 1.495 . S
C646 C645 1.392 . S
C646 C647 1.385 . S
C646 C648 1.478 . S
C647 H641 0.930 . S
C647 C643 1.400 . S
C647 C646 1.385 . S
C648 C646 1.478 . S
C648 C650 1.381 . S
C648 C654 1.383 . S
C649 C645 1.495 . S
C649 H655 0.959 . S
C649 H656 0.961 . S
C649 H657 0.960 . S
C650 C648 1.381 . S
C650 C651 1.394 . S
C650 H658 0.930 . S
C651 C650 1.394 . S
C651 C652 1.383 . S
C651 H659 0.929 . S
C652 C651 1.383 . S
C652 C653 1.377 . S
C653 H637 0.930 . S
C653 C652 1.377 . S
C653 C654 1.379 . S
C654 H638 0.931 . S
C654 C648 1.383 . S
C654 C653 1.379 . S
H655 C649 0.959 . S
H656 C649 0.961 . S
H657 C649 0.960 . S
H658 C650 0.930 . S
H659 C651 0.929 . S
H660 C668 0.929 . S
H661 C670 0.930 . S
H662 C672 0.930 . S
H663 C675 0.929 . S
H664 C678 0.930 . S
H665 C680 0.960 . S
H666 C680 0.960 . S
H667 C680 0.960 . S
C668 H660 0.929 . S
C668 C669 1.377 . S
C668 C670 1.384 . S
C669 C668 1.377 . S
C669 C675 1.390 . S
C670 H661 0.930 . S
C670 C668 1.384 . S
C670 C671 1.372 . S
C671 C670 1.372 . S
C671 C672 1.400 . S
C671 C676 1.490 . S
C672 H662 0.930 . S
C672 C671 1.400 . S
C672 C675 1.386 . S
H673 C689 0.930 . S
H674 C690 0.931 . S
C675 H663 0.929 . S
C675 C669 1.390 . S
C675 C672 1.386 . S
C676 C671 1.490 . S
C676 C678 1.395 . S
C676 C679 1.403 . S
H677 C683 0.930 . S
C678 H664 0.930 . S
C678 C676 1.395 . S
C678 C681 1.403 . S
C679 C676 1.403 . S
C679 C680 1.524 . S
C679 C683 1.400 . S
C680 H665 0.960 . S
C680 H666 0.960 . S
C680 H667 0.960 . S
C680 C679 1.524 . S
C681 C678 1.403 . S
C681 C682 1.392 . S
C681 C685 1.495 . S
C682 C681 1.392 . S
C682 C683 1.385 . S
C682 C684 1.478 . S
C683 H677 0.930 . S
C683 C679 1.400 . S
C683 C682 1.385 . S
C684 C682 1.478 . S
C684 C686 1.381 . S
C684 C690 1.383 . S
C685 C681 1.495 . S
C685 H691 0.959 . S
C685 H692 0.961 . S
C685 H693 0.960 . S
C686 C684 1.381 . S
C686 C687 1.394 . S
C686 H694 0.930 . S
C687 C686 1.394 . S
C687 C688 1.383 . S
C687 H695 0.929 . S
C688 C687 1.383 . S
C688 C689 1.377 . S
C689 H673 0.930 . S
C689 C688 1.377 . S
C689 C690 1.379 . S
C690 H674 0.931 . S
C690 C684 1.383 . S
C690 C689 1.379 . S
H691 C685 0.959 . S
H692 C685 0.961 . S
H693 C685 0.960 . S
H694 C686 0.930 . S
H695 C687 0.929 . S
H696 C704 0.929 . S
H697 C706 0.930 . S
H698 C708 0.930 . S
H699 C711 0.929 . S
H700 C714 0.930 . S
H701 C716 0.960 . S
H702 C716 0.960 . S
H703 C716 0.960 . S
C704 H696 0.929 . S
C704 C705 1.377 . S
C704 C706 1.384 . S
C705 C704 1.377 . S
C705 C711 1.390 . S
C706 H697 0.930 . S
C706 C704 1.384 . S
C706 C707 1.372 . S
C707 C706 1.372 . S
C707 C708 1.400 . S
C707 C712 1.490 . S
C708 H698 0.930 . S
C708 C707 1.400 . S
C708 C711 1.386 . S
H709 C725 0.930 . S
H710 C726 0.931 . S
C711 H699 0.929 . S
C711 C705 1.390 . S
C711 C708 1.386 . S
C712 C707 1.490 . S
C712 C714 1.395 . S
C712 C715 1.403 . S
H713 C719 0.930 . S
C714 H700 0.930 . S
C714 C712 1.395 . S
C714 C717 1.403 . S
C715 C712 1.403 . S
C715 C716 1.524 . S
C715 C719 1.400 . S
C716 H701 0.960 . S
C716 H702 0.960 . S
C716 H703 0.960 . S
C716 C715 1.524 . S
C717 C714 1.403 . S
C717 C718 1.392 . S
C717 C721 1.495 . S
C718 C717 1.392 . S
C718 C719 1.385 . S
C718 C720 1.478 . S
C719 H713 0.930 . S
C719 C715 1.400 . S
C719 C718 1.385 . S
C720 C718 1.478 . S
C720 C722 1.381 . S
C720 C726 1.383 . S
C721 C717 1.495 . S
C721 H727 0.959 . S
C721 H728 0.961 . S
C721 H729 0.960 . S
C722 C720 1.381 . S
C722 C723 1.394 . S
C722 H730 0.930 . S
C723 C722 1.394 . S
C723 C724 1.383 . S
C723 H731 0.929 . S
C724 C723 1.383 . S
C724 C725 1.377 . S
C725 H709 0.930 . S
C725 C724 1.377 . S
C725 C726 1.379 . S
C726 H710 0.931 . S
C726 C720 1.383 . S
C726 C725 1.379 . S
H727 C721 0.959 . S
H728 C721 0.961 . S
H729 C721 0.960 . S
H730 C722 0.930 . S
H731 C723 0.929 . S
H732 C740 0.929 . S
H733 C742 0.930 . S
H734 C744 0.930 . S
H735 C747 0.929 . S
H736 C750 0.930 . S
H737 C752 0.960 . S
H738 C752 0.960 . S
H739 C752 0.960 . S
C740 H732 0.929 . S
C740 C741 1.377 . S
C740 C742 1.384 . S
C741 C740 1.377 . S
C741 C747 1.390 . S
C742 H733 0.930 . S
C742 C740 1.384 . S
C742 C743 1.372 . S
C743 C742 1.372 . S
C743 C744 1.400 . S
C743 C748 1.490 . S
C744 H734 0.930 . S
C744 C743 1.400 . S
C744 C747 1.386 . S
H745 C761 0.930 . S
H746 C762 0.931 . S
C747 H735 0.929 . S
C747 C741 1.390 . S
C747 C744 1.386 . S
C748 C743 1.490 . S
C748 C750 1.395 . S
C748 C751 1.403 . S
H749 C755 0.930 . S
C750 H736 0.930 . S
C750 C748 1.395 . S
C750 C753 1.403 . S
C751 C748 1.403 . S
C751 C752 1.524 . S
C751 C755 1.400 . S
C752 H737 0.960 . S
C752 H738 0.960 . S
C752 H739 0.960 . S
C752 C751 1.524 . S
C753 C750 1.403 . S
C753 C754 1.392 . S
C753 C757 1.495 . S
C754 C753 1.392 . S
C754 C755 1.385 . S
C754 C756 1.478 . S
C755 H749 0.930 . S
C755 C751 1.400 . S
C755 C754 1.385 . S
C756 C754 1.478 . S
C756 C758 1.381 . S
C756 C762 1.383 . S
C757 C753 1.495 . S
C757 H763 0.959 . S
C757 H764 0.961 . S
C757 H765 0.960 . S
C758 C756 1.381 . S
C758 C759 1.394 . S
C758 H766 0.930 . S
C759 C758 1.394 . S
C759 C760 1.383 . S
C759 H767 0.929 . S
C760 C759 1.383 . S
C760 C761 1.377 . S
C761 H745 0.930 . S
C761 C760 1.377 . S
C761 C762 1.379 . S
C762 H746 0.931 . S
C762 C756 1.383 . S
C762 C761 1.379 . S
H763 C757 0.959 . S
H764 C757 0.961 . S
H765 C757 0.960 . S
H766 C758 0.930 . S
H767 C759 0.929 . S
H768 C776 0.929 . S
H769 C778 0.930 . S
H770 C780 0.930 . S
H771 C783 0.929 . S
H772 C786 0.930 . S
H773 C788 0.960 . S
H774 C788 0.960 . S
H775 C788 0.960 . S
C776 H768 0.929 . S
C776 C777 1.377 . S
C776 C778 1.384 . S
C777 C776 1.377 . S
C777 C783 1.390 . S
C778 H769 0.930 . S
C778 C776 1.384 . S
C778 C779 1.372 . S
C779 C778 1.372 . S
C779 C780 1.400 . S
C779 C784 1.490 . S
C780 H770 0.930 . S
C780 C779 1.400 . S
C780 C783 1.386 . S
H781 C797 0.930 . S
H782 C798 0.931 . S
C783 H771 0.929 . S
C783 C777 1.390 . S
C783 C780 1.386 . S
C784 C779 1.490 . S
C784 C786 1.395 . S
C784 C787 1.403 . S
H785 C791 0.930 . S
C786 H772 0.930 . S
C786 C784 1.395 . S
C786 C789 1.403 . S
C787 C784 1.403 . S
C787 C788 1.524 . S
C787 C791 1.400 . S
C788 H773 0.960 . S
C788 H774 0.960 . S
C788 H775 0.960 . S
C788 C787 1.524 . S
C789 C786 1.403 . S
C789 C790 1.392 . S
C789 C793 1.495 . S
C790 C789 1.392 . S
C790 C791 1.385 . S
C790 C792 1.478 . S
C791 H785 0.930 . S
C791 C787 1.400 . S
C791 C790 1.385 . S
C792 C790 1.478 . S
C792 C794 1.381 . S
C792 C798 1.383 . S
C793 C789 1.495 . S
C793 H799 0.959 . S
C793 H800 0.961 . S
C793 H801 0.960 . S
C794 C792 1.381 . S
C794 C795 1.394 . S
C794 H802 0.930 . S
C795 C794 1.394 . S
C795 C796 1.383 . S
C795 H803 0.929 . S
C796 C795 1.383 . S
C796 C797 1.377 . S
C797 H781 0.930 . S
C797 C796 1.377 . S
C797 C798 1.379 . S
C798 H782 0.931 . S
C798 C792 1.383 . S
C798 C797 1.379 . S
H799 C793 0.959 . S
H800 C793 0.961 . S
H801 C793 0.960 . S
H802 C794 0.930 . S
H803 C795 0.929 . S
H804 C812 0.929 . S
H805 C814 0.930 . S
H806 C816 0.930 . S
H807 C819 0.929 . S
H808 C822 0.930 . S
H809 C824 0.960 . S
H810 C824 0.960 . S
H811 C824 0.960 . S
C812 H804 0.929 . S
C812 C813 1.377 . S
C812 C814 1.384 . S
C813 C812 1.377 . S
C813 C819 1.390 . S
C814 H805 0.930 . S
C814 C812 1.384 . S
C814 C815 1.372 . S
C815 C814 1.372 . S
C815 C816 1.400 . S
C815 C820 1.490 . S
C816 H806 0.930 . S
C816 C815 1.400 . S
C816 C819 1.386 . S
H817 C833 0.930 . S
H818 C834 0.931 . S
C819 H807 0.929 . S
C819 C813 1.390 . S
C819 C816 1.386 . S
C820 C815 1.490 . S
C820 C822 1.395 . S
C820 C823 1.403 . S
H821 C827 0.930 . S
C822 H808 0.930 . S
C822 C820 1.395 . S
C822 C825 1.403 . S
C823 C820 1.403 . S
C823 C824 1.524 . S
C823 C827 1.400 . S
C824 H809 0.960 . S
C824 H810 0.960 . S
C824 H811 0.960 . S
C824 C823 1.524 . S
C825 C822 1.403 . S
C825 C826 1.392 . S
C825 C829 1.495 . S
C826 C825 1.392 . S
C826 C827 1.385 . S
C826 C828 1.478 . S
C827 H821 0.930 . S
C827 C823 1.400 . S
C827 C826 1.385 . S
C828 C826 1.478 . S
C828 C830 1.381 . S
C828 C834 1.383 . S
C829 C825 1.495 . S
C829 H835 0.959 . S
C829 H836 0.961 . S
C829 H837 0.960 . S
C830 C828 1.381 . S
C830 C831 1.394 . S
C830 H838 0.930 . S
C831 C830 1.394 . S
C831 C832 1.383 . S
C831 H839 0.929 . S
C832 C831 1.383 . S
C832 C833 1.377 . S
C833 H817 0.930 . S
C833 C832 1.377 . S
C833 C834 1.379 . S
C834 H818 0.931 . S
C834 C828 1.383 . S
C834 C833 1.379 . S
H835 C829 0.959 . S
H836 C829 0.961 . S
H837 C829 0.960 . S
H838 C830 0.930 . S
H839 C831 0.929 . S
H840 C848 0.929 . S
H841 C850 0.930 . S
H842 C852 0.930 . S
H843 C855 0.929 . S
H844 C858 0.930 . S
H845 C860 0.960 . S
H846 C860 0.960 . S
H847 C860 0.960 . S
C848 H840 0.929 . S
C848 C849 1.377 . S
C848 C850 1.384 . S
C849 C848 1.377 . S
C849 C855 1.390 . S
C850 H841 0.930 . S
C850 C848 1.384 . S
C850 C851 1.372 . S
C851 C850 1.372 . S
C851 C852 1.400 . S
C851 C856 1.490 . S
C852 H842 0.930 . S
C852 C851 1.400 . S
C852 C855 1.386 . S
H853 C869 0.930 . S
H854 C870 0.931 . S
C855 H843 0.929 . S
C855 C849 1.390 . S
C855 C852 1.386 . S
C856 C851 1.490 . S
C856 C858 1.395 . S
C856 C859 1.403 . S
H857 C863 0.930 . S
C858 H844 0.930 . S
C858 C856 1.395 . S
C858 C861 1.403 . S
C859 C856 1.403 . S
C859 C860 1.524 . S
C859 C863 1.400 . S
C860 H845 0.960 . S
C860 H846 0.960 . S
C860 H847 0.960 . S
C860 C859 1.524 . S
C861 C858 1.403 . S
C861 C862 1.392 . S
C861 C865 1.495 . S
C862 C861 1.392 . S
C862 C863 1.385 . S
C862 C864 1.478 . S
C863 H857 0.930 . S
C863 C859 1.400 . S
C863 C862 1.385 . S
C864 C862 1.478 . S
C864 C866 1.381 . S
C864 C870 1.383 . S
C865 C861 1.495 . S
C865 H871 0.959 . S
C865 H872 0.961 . S
C865 H873 0.960 . S
C866 C864 1.381 . S
C866 C867 1.394 . S
C866 H874 0.930 . S
C867 C866 1.394 . S
C867 C868 1.383 . S
C867 H875 0.929 . S
C868 C867 1.383 . S
C868 C869 1.377 . S
C869 H853 0.930 . S
C869 C868 1.377 . S
C869 C870 1.379 . S
C870 H854 0.931 . S
C870 C864 1.383 . S
C870 C869 1.379 . S
H871 C865 0.959 . S
H872 C865 0.961 . S
H873 C865 0.960 . S
H874 C866 0.930 . S
H875 C867 0.929 . S
H876 C884 0.929 . S
H877 C886 0.930 . S
H878 C888 0.930 . S
H879 C891 0.929 . S
H880 C894 0.930 . S
H881 C896 0.960 . S
H882 C896 0.960 . S
H883 C896 0.960 . S
C884 H876 0.929 . S
C884 C885 1.377 . S
C884 C886 1.384 . S
C885 C884 1.377 . S
C885 C891 1.390 . S
C886 H877 0.930 . S
C886 C884 1.384 . S
C886 C887 1.372 . S
C887 C886 1.372 . S
C887 C888 1.400 . S
C887 C892 1.490 . S
C888 H878 0.930 . S
C888 C887 1.400 . S
C888 C891 1.386 . S
H889 C905 0.930 . S
H890 C906 0.931 . S
C891 H879 0.929 . S
C891 C885 1.390 . S
C891 C888 1.386 . S
C892 C887 1.490 . S
C892 C894 1.395 . S
C892 C895 1.403 . S
H893 C899 0.930 . S
C894 H880 0.930 . S
C894 C892 1.395 . S
C894 C897 1.403 . S
C895 C892 1.403 . S
C895 C896 1.524 . S
C895 C899 1.400 . S
C896 H881 0.960 . S
C896 H882 0.960 . S
C896 H883 0.960 . S
C896 C895 1.524 . S
C897 C894 1.403 . S
C897 C898 1.392 . S
C897 C901 1.495 . S
C898 C897 1.392 . S
C898 C899 1.385 . S
C898 C900 1.478 . S
C899 H893 0.930 . S
C899 C895 1.400 . S
C899 C898 1.385 . S
C900 C898 1.478 . S
C900 C902 1.381 . S
C900 C906 1.383 . S
C901 C897 1.495 . S
C901 H907 0.959 . S
C901 H908 0.961 . S
C901 H909 0.960 . S
C902 C900 1.381 . S
C902 C903 1.394 . S
C902 H910 0.930 . S
C903 C902 1.394 . S
C903 C904 1.383 . S
C903 H911 0.929 . S
C904 C903 1.383 . S
C904 C905 1.377 . S
C905 H889 0.930 . S
C905 C904 1.377 . S
C905 C906 1.379 . S
C906 H890 0.931 . S
C906 C900 1.383 . S
C906 C905 1.379 . S
H907 C901 0.959 . S
H908 C901 0.961 . S
H909 C901 0.960 . S
H910 C902 0.930 . S
H911 C903 0.929 . S
H912 C920 0.929 . S
H913 C922 0.930 . S
H914 C924 0.930 . S
H915 C927 0.929 . S
H916 C930 0.930 . S
H917 C932 0.960 . S
H918 C932 0.960 . S
H919 C932 0.960 . S
C920 H912 0.929 . S
C920 C921 1.377 . S
C920 C922 1.384 . S
C921 C920 1.377 . S
C921 C927 1.390 . S
C922 H913 0.930 . S
C922 C920 1.384 . S
C922 C923 1.372 . S
C923 C922 1.372 . S
C923 C924 1.400 . S
C923 C928 1.490 . S
C924 H914 0.930 . S
C924 C923 1.400 . S
C924 C927 1.386 . S
H925 C941 0.930 . S
H926 C942 0.931 1_556 S
C927 H915 0.929 . S
C927 C921 1.390 . S
C927 C924 1.386 . S
C928 C923 1.490 . S
C928 C930 1.395 . S
C928 C931 1.403 . S
H929 C935 0.930 . S
C930 H916 0.930 . S
C930 C928 1.395 . S
C930 C933 1.403 . S
C931 C928 1.403 . S
C931 C932 1.524 . S
C931 C935 1.400 . S
C932 H917 0.960 . S
C932 H918 0.960 . S
C932 H919 0.960 . S
C932 C931 1.524 . S
C933 C930 1.403 . S
C933 C934 1.392 . S
C933 C937 1.495 . S
C934 C933 1.392 . S
C934 C935 1.385 . S
C934 C936 1.473 1_556 S
C935 H929 0.930 . S
C935 C931 1.400 . S
C935 C934 1.385 . S
C936 C934 1.473 1_554 S
C936 C938 1.385 . S
C936 C942 1.384 . S
C937 C933 1.495 . S
C937 H943 0.959 . S
C937 H944 0.961 . S
C937 H945 0.960 . S
C938 C936 1.385 . S
C938 C939 1.394 . S
C938 H946 0.930 . S
C939 C938 1.394 . S
C939 C940 1.383 . S
C939 H947 0.929 . S
C940 C939 1.383 . S
C940 C941 1.377 . S
C941 H925 0.930 . S
C941 C940 1.377 . S
C941 C942 1.379 . S
C942 H926 0.931 1_554 S
C942 C936 1.384 . S
C942 C941 1.379 . S
H943 C937 0.959 . S
H944 C937 0.961 . S
H945 C937 0.960 . S
H946 C938 0.930 . S
H947 C939 0.929 . S
H948 C956 0.929 . S
H949 C958 0.930 . S
H950 C960 0.930 . S
H951 C963 0.929 . S
H952 C966 0.930 . S
H953 C968 0.960 . S
H954 C968 0.960 . S
H955 C968 0.960 . S
C956 H948 0.929 . S
C956 C957 1.377 . S
C956 C958 1.384 . S
C957 C956 1.377 . S
C957 C963 1.390 . S
C958 H949 0.930 . S
C958 C956 1.384 . S
C958 C959 1.372 . S
C959 C958 1.372 . S
C959 C960 1.400 . S
C959 C964 1.490 . S
C960 H950 0.930 . S
C960 C959 1.400 . S
C960 C963 1.386 . S
H961 C977 0.930 . S
H962 C978 0.931 . S
C963 H951 0.929 . S
C963 C957 1.390 . S
C963 C960 1.386 . S
C964 C959 1.490 . S
C964 C966 1.395 . S
C964 C967 1.403 . S
H965 C971 0.930 . S
C966 H952 0.930 . S
C966 C964 1.395 . S
C966 C969 1.403 . S
C967 C964 1.403 . S
C967 C968 1.524 . S
C967 C971 1.400 . S
C968 H953 0.960 . S
C968 H954 0.960 . S
C968 H955 0.960 . S
C968 C967 1.524 . S
C969 C966 1.403 . S
C969 C970 1.392 . S
C969 C973 1.495 . S
C970 C969 1.392 . S
C970 C971 1.385 . S
C970 C972 1.478 . S
C971 H965 0.930 . S
C971 C967 1.400 . S
C971 C970 1.385 . S
C972 C970 1.478 . S
C972 C974 1.381 . S
C972 C978 1.383 . S
C973 C969 1.495 . S
C973 H979 0.959 . S
C973 H980 0.961 . S
C973 H981 0.960 . S
C974 C972 1.381 . S
C974 C975 1.394 . S
C974 H982 0.930 . S
C975 C974 1.394 . S
C975 C976 1.383 . S
C975 H983 0.929 . S
C976 C975 1.383 . S
C976 C977 1.377 . S
C977 H961 0.930 . S
C977 C976 1.377 . S
C977 C978 1.379 . S
C978 H962 0.931 . S
C978 C972 1.383 . S
C978 C977 1.379 . S
H979 C973 0.959 . S
H980 C973 0.961 . S
H981 C973 0.960 . S
H982 C974 0.930 . S
H983 C975 0.929 . S
H984 C992 0.929 . S
H985 C994 0.930 . S
H986 C996 0.930 . S
H987 C999 0.929 . S
H988 C1002 0.930 . S
H989 C1004 0.960 . S
H990 C1004 0.960 . S
H991 C1004 0.960 . S
C992 H984 0.929 . S
C992 C993 1.377 . S
C992 C994 1.384 . S
C993 C992 1.377 . S
C993 C999 1.390 . S
C994 H985 0.930 . S
C994 C992 1.384 . S
C994 C995 1.372 . S
C995 C994 1.372 . S
C995 C996 1.400 . S
C995 C1000 1.490 . S
C996 H986 0.930 . S
C996 C995 1.400 . S
C996 C999 1.386 . S
H997 C1013 0.930 . S
H998 C1014 0.931 . S
C999 H987 0.929 . S
C999 C993 1.390 . S
C999 C996 1.386 . S
C1000 C995 1.490 . S
C1000 C1002 1.395 . S
C1000 C1003 1.403 . S
H1001 C1007 0.930 . S
C1002 H988 0.930 . S
C1002 C1000 1.395 . S
C1002 C1005 1.403 . S
C1003 C1000 1.403 . S
C1003 C1004 1.524 . S
C1003 C1007 1.400 . S
C1004 H989 0.960 . S
C1004 H990 0.960 . S
C1004 H991 0.960 . S
C1004 C1003 1.524 . S
C1005 C1002 1.403 . S
C1005 C1006 1.392 . S
C1005 C1009 1.495 . S
C1006 C1005 1.392 . S
C1006 C1007 1.385 . S
C1006 C1008 1.478 . S
C1007 H1001 0.930 . S
C1007 C1003 1.400 . S
C1007 C1006 1.385 . S
C1008 C1006 1.478 . S
C1008 C1010 1.381 . S
C1008 C1014 1.383 . S
C1009 C1005 1.495 . S
C1009 H1015 0.959 . S
C1009 H1016 0.961 . S
C1009 H1017 0.960 . S
C1010 C1008 1.381 . S
C1010 C1011 1.394 . S
C1010 H1018 0.930 . S
C1011 C1010 1.394 . S
C1011 C1012 1.383 . S
C1011 H1019 0.929 . S
C1012 C1011 1.383 . S
C1012 C1013 1.377 . S
C1013 H997 0.930 . S
C1013 C1012 1.377 . S
C1013 C1014 1.379 . S
C1014 H998 0.931 . S
C1014 C1008 1.383 . S
C1014 C1013 1.379 . S
H1015 C1009 0.959 . S
H1016 C1009 0.961 . S
H1017 C1009 0.960 . S
H1018 C1010 0.930 . S
H1019 C1011 0.929 . S
H1020 C1028 0.929 . S
H1021 C1030 0.930 . S
H1022 C1032 0.930 . S
H1023 C1035 0.929 . S
H1024 C1038 0.930 . S
H1025 C1040 0.960 . S
H1026 C1040 0.960 . S
H1027 C1040 0.960 . S
C1028 H1020 0.929 . S
C1028 C1029 1.377 . S
C1028 C1030 1.384 . S
C1029 C1028 1.377 . S
C1029 C1035 1.390 . S
C1030 H1021 0.930 . S
C1030 C1028 1.384 . S
C1030 C1031 1.372 . S
C1031 C1030 1.372 . S
C1031 C1032 1.400 . S
C1031 C1036 1.490 . S
C1032 H1022 0.930 . S
C1032 C1031 1.400 . S
C1032 C1035 1.386 . S
H1033 C1049 0.930 . S
H1034 C1050 0.931 . S
C1035 H1023 0.929 . S
C1035 C1029 1.390 . S
C1035 C1032 1.386 . S
C1036 C1031 1.490 . S
C1036 C1038 1.395 . S
C1036 C1039 1.403 . S
H1037 C1043 0.930 . S
C1038 H1024 0.930 . S
C1038 C1036 1.395 . S
C1038 C1041 1.403 . S
C1039 C1036 1.403 . S
C1039 C1040 1.524 . S
C1039 C1043 1.400 . S
C1040 H1025 0.960 . S
C1040 H1026 0.960 . S
C1040 H1027 0.960 . S
C1040 C1039 1.524 . S
C1041 C1038 1.403 . S
C1041 C1042 1.392 . S
C1041 C1045 1.495 . S
C1042 C1041 1.392 . S
C1042 C1043 1.385 . S
C1042 C1044 1.478 . S
C1043 H1037 0.930 . S
C1043 C1039 1.400 . S
C1043 C1042 1.385 . S
C1044 C1042 1.478 . S
C1044 C1046 1.381 . S
C1044 C1050 1.383 . S
C1045 C1041 1.495 . S
C1045 H1051 0.959 . S
C1045 H1052 0.961 . S
C1045 H1053 0.960 . S
C1046 C1044 1.381 . S
C1046 C1047 1.394 . S
C1046 H1054 0.930 . S
C1047 C1046 1.394 . S
C1047 C1048 1.383 . S
C1047 H1055 0.929 . S
C1048 C1047 1.383 . S
C1048 C1049 1.377 . S
C1049 H1033 0.930 . S
C1049 C1048 1.377 . S
C1049 C1050 1.379 . S
C1050 H1034 0.931 . S
C1050 C1044 1.383 . S
C1050 C1049 1.379 . S
H1051 C1045 0.959 . S
H1052 C1045 0.961 . S
H1053 C1045 0.960 . S
H1054 C1046 0.930 . S
H1055 C1047 0.929 . S
H1056 C1064 0.929 . S
H1057 C1066 0.930 . S
H1058 C1068 0.930 . S
H1059 C1071 0.929 . S
H1060 C1074 0.930 . S
H1061 C1076 0.960 . S
H1062 C1076 0.960 . S
H1063 C1076 0.960 . S
C1064 H1056 0.929 . S
C1064 C1065 1.377 . S
C1064 C1066 1.384 . S
C1065 C1064 1.377 . S
C1065 C1071 1.390 . S
C1066 H1057 0.930 . S
C1066 C1064 1.384 . S
C1066 C1067 1.372 . S
C1067 C1066 1.372 . S
C1067 C1068 1.400 . S
C1067 C1072 1.490 . S
C1068 H1058 0.930 . S
C1068 C1067 1.400 . S
C1068 C1071 1.386 . S
H1069 C1085 0.930 . S
H1070 C1086 0.931 . S
C1071 H1059 0.929 . S
C1071 C1065 1.390 . S
C1071 C1068 1.386 . S
C1072 C1067 1.490 . S
C1072 C1074 1.395 . S
C1072 C1075 1.403 . S
H1073 C1079 0.930 . S
C1074 H1060 0.930 . S
C1074 C1072 1.395 . S
C1074 C1077 1.403 . S
C1075 C1072 1.403 . S
C1075 C1076 1.524 . S
C1075 C1079 1.400 . S
C1076 H1061 0.960 . S
C1076 H1062 0.960 . S
C1076 H1063 0.960 . S
C1076 C1075 1.524 . S
C1077 C1074 1.403 . S
C1077 C1078 1.392 . S
C1077 C1081 1.495 . S
C1078 C1077 1.392 . S
C1078 C1079 1.385 . S
C1078 C1080 1.478 . S
C1079 H1073 0.930 . S
C1079 C1075 1.400 . S
C1079 C1078 1.385 . S
C1080 C1078 1.478 . S
C1080 C1082 1.381 . S
C1080 C1086 1.383 . S
C1081 C1077 1.495 . S
C1081 H1087 0.959 . S
C1081 H1088 0.961 . S
C1081 H1089 0.960 . S
C1082 C1080 1.381 . S
C1082 C1083 1.394 . S
C1082 H1090 0.930 . S
C1083 C1082 1.394 . S
C1083 C1084 1.383 . S
C1083 H1091 0.929 . S
C1084 C1083 1.383 . S
C1084 C1085 1.377 . S
C1085 H1069 0.930 . S
C1085 C1084 1.377 . S
C1085 C1086 1.379 . S
C1086 H1070 0.931 . S
C1086 C1080 1.383 . S
C1086 C1085 1.379 . S
H1087 C1081 0.959 . S
H1088 C1081 0.961 . S
H1089 C1081 0.960 . S
H1090 C1082 0.930 . S
H1091 C1083 0.929 . S
H1092 C1100 0.929 . S
H1093 C1102 0.930 . S
H1094 C1104 0.930 . S
H1095 C1107 0.929 . S
H1096 C1110 0.930 . S
H1097 C1112 0.960 . S
H1098 C1112 0.960 . S
H1099 C1112 0.960 . S
C1100 H1092 0.929 . S
C1100 C1101 1.377 . S
C1100 C1102 1.384 . S
C1101 C1100 1.377 . S
C1101 C1107 1.390 . S
C1102 H1093 0.930 . S
C1102 C1100 1.384 . S
C1102 C1103 1.372 . S
C1103 C1102 1.372 . S
C1103 C1104 1.400 . S
C1103 C1108 1.490 . S
C1104 H1094 0.930 . S
C1104 C1103 1.400 . S
C1104 C1107 1.386 . S
H1105 C1121 0.930 . S
H1106 C1122 0.931 . S
C1107 H1095 0.929 . S
C1107 C1101 1.390 . S
C1107 C1104 1.386 . S
C1108 C1103 1.490 . S
C1108 C1110 1.395 . S
C1108 C1111 1.403 . S
H1109 C1115 0.930 . S
C1110 H1096 0.930 . S
C1110 C1108 1.395 . S
C1110 C1113 1.403 . S
C1111 C1108 1.403 . S
C1111 C1112 1.524 . S
C1111 C1115 1.400 . S
C1112 H1097 0.960 . S
C1112 H1098 0.960 . S
C1112 H1099 0.960 . S
C1112 C1111 1.524 . S
C1113 C1110 1.403 . S
C1113 C1114 1.392 . S
C1113 C1117 1.495 . S
C1114 C1113 1.392 . S
C1114 C1115 1.385 . S
C1114 C1116 1.478 . S
C1115 H1109 0.930 . S
C1115 C1111 1.400 . S
C1115 C1114 1.385 . S
C1116 C1114 1.478 . S
C1116 C1118 1.381 . S
C1116 C1122 1.383 . S
C1117 C1113 1.495 . S
C1117 H1123 0.959 . S
C1117 H1124 0.961 . S
C1117 H1125 0.960 . S
C1118 C1116 1.381 . S
C1118 C1119 1.394 . S
C1118 H1126 0.930 . S
C1119 C1118 1.394 . S
C1119 C1120 1.383 . S
C1119 H1127 0.929 . S
C1120 C1119 1.383 . S
C1120 C1121 1.377 . S
C1121 H1105 0.930 . S
C1121 C1120 1.377 . S
C1121 C1122 1.379 . S
C1122 H1106 0.931 . S
C1122 C1116 1.383 . S
C1122 C1121 1.379 . S
H1123 C1117 0.959 . S
H1124 C1117 0.961 . S
H1125 C1117 0.960 . S
H1126 C1118 0.930 . S
H1127 C1119 0.929 . S
H1128 C1136 0.929 . S
H1129 C1138 0.930 . S
H1130 C1140 0.930 . S
H1131 C1143 0.929 . S
H1132 C1146 0.930 . S
H1133 C1148 0.960 . S
H1134 C1148 0.960 . S
H1135 C1148 0.960 . S
C1136 H1128 0.929 . S
C1136 C1137 1.377 . S
C1136 C1138 1.384 . S
C1137 C1136 1.377 . S
C1137 C1143 1.390 . S
C1138 H1129 0.930 . S
C1138 C1136 1.384 . S
C1138 C1139 1.372 . S
C1139 C1138 1.372 . S
C1139 C1140 1.400 . S
C1139 C1144 1.490 . S
C1140 H1130 0.930 . S
C1140 C1139 1.400 . S
C1140 C1143 1.386 . S
H1141 C1157 0.930 . S
H1142 C1158 0.931 . S
C1143 H1131 0.929 . S
C1143 C1137 1.390 . S
C1143 C1140 1.386 . S
C1144 C1139 1.490 . S
C1144 C1146 1.395 . S
C1144 C1147 1.403 . S
H1145 C1151 0.930 . S
C1146 H1132 0.930 . S
C1146 C1144 1.395 . S
C1146 C1149 1.403 . S
C1147 C1144 1.403 . S
C1147 C1148 1.524 . S
C1147 C1151 1.400 . S
C1148 H1133 0.960 . S
C1148 H1134 0.960 . S
C1148 H1135 0.960 . S
C1148 C1147 1.524 . S
C1149 C1146 1.403 . S
C1149 C1150 1.392 . S
C1149 C1153 1.495 . S
C1150 C1149 1.392 . S
C1150 C1151 1.385 . S
C1150 C1152 1.478 . S
C1151 H1145 0.930 . S
C1151 C1147 1.400 . S
C1151 C1150 1.385 . S
C1152 C1150 1.478 . S
C1152 C1154 1.381 . S
C1152 C1158 1.383 . S
C1153 C1149 1.495 . S
C1153 H1159 0.959 . S
C1153 H1160 0.961 . S
C1153 H1161 0.960 . S
C1154 C1152 1.381 . S
C1154 C1155 1.394 . S
C1154 H1162 0.930 . S
C1155 C1154 1.394 . S
C1155 C1156 1.383 . S
C1155 H1163 0.929 . S
C1156 C1155 1.383 . S
C1156 C1157 1.377 . S
C1157 H1141 0.930 . S
C1157 C1156 1.377 . S
C1157 C1158 1.379 . S
C1158 H1142 0.931 . S
C1158 C1152 1.383 . S
C1158 C1157 1.379 . S
H1159 C1153 0.959 . S
H1160 C1153 0.961 . S
H1161 C1153 0.960 . S
H1162 C1154 0.930 . S
H1163 C1155 0.929 . S
H1164 C1172 0.929 . S
H1165 C1174 0.930 . S
H1166 C1176 0.930 . S
H1167 C1179 0.929 . S
H1168 C1182 0.930 . S
H1169 C1184 0.960 . S
H1170 C1184 0.960 . S
H1171 C1184 0.960 . S
C1172 H1164 0.929 . S
C1172 C1173 1.377 . S
C1172 C1174 1.384 . S
C1173 C1172 1.377 . S
C1173 C1179 1.390 . S
C1174 H1165 0.930 . S
C1174 C1172 1.384 . S
C1174 C1175 1.372 . S
C1175 C1174 1.372 . S
C1175 C1176 1.400 . S
C1175 C1180 1.490 . S
C1176 H1166 0.930 . S
C1176 C1175 1.400 . S
C1176 C1179 1.386 . S
H1177 C1193 0.930 . S
H1178 C1194 0.931 . S
C1179 H1167 0.929 . S
C1179 C1173 1.390 . S
C1179 C1176 1.386 . S
C1180 C1175 1.490 . S
C1180 C1182 1.395 . S
C1180 C1183 1.403 . S
H1181 C1187 0.930 . S
C1182 H1168 0.930 . S
C1182 C1180 1.395 . S
C1182 C1185 1.403 1_554 S
C1183 C1180 1.403 . S
C1183 C1184 1.524 . S
C1183 C1187 1.400 . S
C1184 H1169 0.960 . S
C1184 H1170 0.960 . S
C1184 H1171 0.960 . S
C1184 C1183 1.524 . S
C1185 C1182 1.403 1_556 S
C1185 C1186 1.392 . S
C1185 C1189 1.495 . S
C1186 C1185 1.392 . S
C1186 C1187 1.385 1_556 S
C1186 C1188 1.478 . S
C1187 H1181 0.930 . S
C1187 C1183 1.400 . S
C1187 C1186 1.385 1_554 S
C1188 C1186 1.478 . S
C1188 C1190 1.381 . S
C1188 C1194 1.383 . S
C1189 C1185 1.495 . S
C1189 H1195 0.959 . S
C1189 H1196 0.961 . S
C1189 H1197 0.960 . S
C1190 C1188 1.381 . S
C1190 C1191 1.394 . S
C1190 H1198 0.930 . S
C1191 C1190 1.394 . S
C1191 C1192 1.383 . S
C1191 H1199 0.929 . S
C1192 C1191 1.383 . S
C1192 C1193 1.377 . S
C1193 H1177 0.930 . S
C1193 C1192 1.377 . S
C1193 C1194 1.379 . S
C1194 H1178 0.931 . S
C1194 C1188 1.383 . S
C1194 C1193 1.379 . S
H1195 C1189 0.959 . S
H1196 C1189 0.961 . S
H1197 C1189 0.960 . S
H1198 C1190 0.930 . S
H1199 C1191 0.929 . S
H1200 C1208 0.929 . S
H1201 C1210 0.930 . S
H1202 C1212 0.930 . S
H1203 C1215 0.929 . S
H1204 C1218 0.930 . S
H1205 C1220 0.960 . S
H1206 C1220 0.960 . S
H1207 C1220 0.960 . S
C1208 H1200 0.929 . S
C1208 C1209 1.377 . S
C1208 C1210 1.384 . S
C1209 C1208 1.377 . S
C1209 C1215 1.390 . S
C1210 H1201 0.930 . S
C1210 C1208 1.384 . S
C1210 C1211 1.372 . S
C1211 C1210 1.372 . S
C1211 C1212 1.400 . S
C1211 C1216 1.490 . S
C1212 H1202 0.930 . S
C1212 C1211 1.400 . S
C1212 C1215 1.386 . S
H1213 C1229 0.930 . S
H1214 C1230 0.931 . S
C1215 H1203 0.929 . S
C1215 C1209 1.390 . S
C1215 C1212 1.386 . S
C1216 C1211 1.490 . S
C1216 C1218 1.395 . S
C1216 C1219 1.403 . S
H1217 C1223 0.930 . S
C1218 H1204 0.930 . S
C1218 C1216 1.395 . S
C1218 C1221 1.403 . S
C1219 C1216 1.403 . S
C1219 C1220 1.524 . S
C1219 C1223 1.400 . S
C1220 H1205 0.960 . S
C1220 H1206 0.960 . S
C1220 H1207 0.960 . S
C1220 C1219 1.524 . S
C1221 C1218 1.403 . S
C1221 C1222 1.392 . S
C1221 C1225 1.495 . S
C1222 C1221 1.392 . S
C1222 C1223 1.385 . S
C1222 C1224 1.478 . S
C1223 H1217 0.930 . S
C1223 C1219 1.400 . S
C1223 C1222 1.385 . S
C1224 C1222 1.478 . S
C1224 C1226 1.381 . S
C1224 C1230 1.383 . S
C1225 C1221 1.495 . S
C1225 H1231 0.959 . S
C1225 H1232 0.961 . S
C1225 H1233 0.960 . S
C1226 C1224 1.381 . S
C1226 C1227 1.394 . S
C1226 H1234 0.930 . S
C1227 C1226 1.394 . S
C1227 C1228 1.383 . S
C1227 H1235 0.929 . S
C1228 C1227 1.383 . S
C1228 C1229 1.377 . S
C1229 H1213 0.930 . S
C1229 C1228 1.377 . S
C1229 C1230 1.379 . S
C1230 H1214 0.931 . S
C1230 C1224 1.383 . S
C1230 C1229 1.379 . S
H1231 C1225 0.959 . S
H1232 C1225 0.961 . S
H1233 C1225 0.960 . S
H1234 C1226 0.930 . S
H1235 C1227 0.929 . S
C400 C358 1.616 . S
C381 C45 1.620 . S
C417 C84 1.615 . S
C436 C299 1.619 . S
C453 C126 1.570 . S
C472 C302 1.593 . S
C489 C189 1.619 . S
C508 C316 1.619 . S
C544 C341 1.623 . S
C525 C228 1.615 . S
C561 C270 1.568 . S
C580 C344 1.602 . S
C597 C69 1.567 . S
C616 C313 1.579 . S
C633 C141 1.600 . S
C652 C327 1.593 . S
C669 C174 1.555 . S
C688 C330 1.569 . S
C724 C355 1.582 . S
C705 C213 1.564 . S
C760 C369 1.597 . S
C741 C285 1.599 . S
C796 C288 1.579 . S
C777 C30 1.550 . S
C813 C36 1.479 . S
C832 C311 1.463 . S
C849 C93 1.491 . S
C868 C325 1.490 . S
C904 C335 1.497 . S
C885 C117 1.498 . S
C921 C180 1.481 . S
C940 C353 1.475 . S
C976 C367 1.487 . S
C957 C237 1.492 . S
C1012 C293 1.497 . S
C993 C261 1.496 . S
C1048 C363 1.525 . S
C1029 C78 1.521 . S
C1065 C132 1.506 . S
C1084 C297 1.500 . S
C1120 C307 1.508 . S
C1101 C165 1.506 . S
C1137 C222 1.524 . S
C1156 C321 1.526 . S
C1173 C276 1.506 . S
C1192 C339 1.501 . S
C1209 C21 1.505 . S
C1228 C349 1.507 . S
