# Generated by pormake.
# Topology zzz, (3,6)-cn, num edge types: 1
# Building blocks:
#     Node 0, Type 0, BuildingBlock: BELTOD_clean_linker_0, # of connection points: 3
#     Node 1, Type 0, BuildingBlock: BELTOD_clean_linker_0, # of connection points: 3
#     Node 2, Type 0, BuildingBlock: BELTOD_clean_linker_0, # of connection points: 3
#     Node 3, Type 0, BuildingBlock: BELTOD_clean_linker_0, # of connection points: 3
#     Node 4, Type 0, BuildingBlock: BELTOD_clean_linker_0, # of connection points: 3
#     Node 5, Type 0, BuildingBlock: BELTOD_clean_linker_0, # of connection points: 3
#     Node 6, Type 0, BuildingBlock: BELTOD_clean_linker_0, # of connection points: 3
#     Node 7, Type 0, BuildingBlock: BELTOD_clean_linker_0, # of connection points: 3
#     Node 8, Type 1, BuildingBlock: INOVEN_clean_sbu_0, # of connection points: 6
#     Node 9, Type 1, BuildingBlock: INOVEN_clean_sbu_0, # of connection points: 6
#     Node 10, Type 1, BuildingBlock: INOVEN_clean_sbu_0, # of connection points: 6
#     Node 11, Type 1, BuildingBlock: INOVEN_clean_sbu_0, # of connection points: 6
#     Edge 12, Type (0, 1), BuildingBlock: OJICUG_clean_linker_0, # of connection points: 2
#     Edge 13, Type (0, 1), BuildingBlock: OJICUG_clean_linker_0, # of connection points: 2
#     Edge 14, Type (0, 1), BuildingBlock: OJICUG_clean_linker_0, # of connection points: 2
#     Edge 15, Type (0, 1), BuildingBlock: OJICUG_clean_linker_0, # of connection points: 2
#     Edge 16, Type (0, 1), BuildingBlock: OJICUG_clean_linker_0, # of connection points: 2
#     Edge 17, Type (0, 1), BuildingBlock: OJICUG_clean_linker_0, # of connection points: 2
#     Edge 18, Type (0, 1), BuildingBlock: OJICUG_clean_linker_0, # of connection points: 2
#     Edge 19, Type (0, 1), BuildingBlock: OJICUG_clean_linker_0, # of connection points: 2
#     Edge 20, Type (0, 1), BuildingBlock: OJICUG_clean_linker_0, # of connection points: 2
#     Edge 21, Type (0, 1), BuildingBlock: OJICUG_clean_linker_0, # of connection points: 2
#     Edge 22, Type (0, 1), BuildingBlock: OJICUG_clean_linker_0, # of connection points: 2
#     Edge 23, Type (0, 1), BuildingBlock: OJICUG_clean_linker_0, # of connection points: 2
#     Edge 24, Type (0, 1), BuildingBlock: OJICUG_clean_linker_0, # of connection points: 2
#     Edge 25, Type (0, 1), BuildingBlock: OJICUG_clean_linker_0, # of connection points: 2
#     Edge 26, Type (0, 1), BuildingBlock: OJICUG_clean_linker_0, # of connection points: 2
#     Edge 27, Type (0, 1), BuildingBlock: OJICUG_clean_linker_0, # of connection points: 2
#     Edge 28, Type (0, 1), BuildingBlock: OJICUG_clean_linker_0, # of connection points: 2
#     Edge 29, Type (0, 1), BuildingBlock: OJICUG_clean_linker_0, # of connection points: 2
#     Edge 30, Type (0, 1), BuildingBlock: OJICUG_clean_linker_0, # of connection points: 2
#     Edge 31, Type (0, 1), BuildingBlock: OJICUG_clean_linker_0, # of connection points: 2
#     Edge 32, Type (0, 1), BuildingBlock: OJICUG_clean_linker_0, # of connection points: 2
#     Edge 33, Type (0, 1), BuildingBlock: OJICUG_clean_linker_0, # of connection points: 2
#     Edge 34, Type (0, 1), BuildingBlock: OJICUG_clean_linker_0, # of connection points: 2
#     Edge 35, Type (0, 1), BuildingBlock: OJICUG_clean_linker_0, # of connection points: 2
# Relax obj value: 0.484
# Max RMSD: 0.248
# Mean RMSD: 0.243
data_MOF--net-zzz--node1-INOVEN_clean_sbu_0--node2-BELTOD_clean_linker_0--edge1-OJICUG_clean_linker_0
_symmetry_space_group_name_H-M    P1
_symmetry_Int_Tables_number       1
_symmetry_cell_setting            triclinic
loop_
_symmetry_equiv_pos_as_xyz
'x, y, z'
_cell_length_a     42.289706
_cell_length_b     42.346702
_cell_length_c     13.221471
_cell_angle_alpha  89.782201
_cell_angle_beta   90.095883
_cell_angle_gamma 89.976326
loop_
_atom_site_label
_atom_site_type_symbol
_atom_site_fract_x
_atom_site_fract_y
_atom_site_fract_z
_atom_type_partial_charge
P0 P 0.71818 0.47964 0.45519 0.0
H1 H 0.73855 0.49991 0.65634 0.0
H2 H 0.79124 0.51138 0.71982 0.0
H3 H 0.82514 0.51968 0.41269 0.0
H4 H 0.77182 0.50982 0.3501 0.0
H5 H 0.66542 0.44693 0.36935 0.0
H6 H 0.62692 0.4592 0.23959 0.0
H7 H 0.6665 0.55307 0.21071 0.0
H8 H 0.70676 0.53935 0.33789 0.0
H9 H 0.75361 0.42842 0.54651 0.0
H10 H 0.73311 0.46288 0.24598 0.0
O11 O 0.69852 0.46614 0.55577 0.0
H12 H 0.8005 0.40156 0.48255 0.0
H13 H 0.77963 0.4362 0.18206 0.0
C14 C 0.7508 0.50413 0.49805 0.0
C15 C 0.75688 0.5057 0.60235 0.0
C16 C 0.78746 0.51151 0.63883 0.0
C17 C 0.81301 0.51563 0.57194 0.0
C18 C 0.80631 0.51678 0.4673 0.0
C19 C 0.77553 0.51141 0.43097 0.0
C20 C 0.68885 0.49225 0.36375 0.0
C21 C 0.66575 0.47027 0.33545 0.0
C22 C 0.64334 0.47754 0.26144 0.0
C23 C 0.64288 0.5074 0.21433 0.0
C24 C 0.66605 0.52969 0.24399 0.0
C25 C 0.689 0.52208 0.31757 0.0
C26 C 0.73976 0.44748 0.40109 0.0
C27 C 0.75806 0.42861 0.46585 0.0
C28 C 0.78505 0.41356 0.42948 0.0
C29 C 0.79388 0.41717 0.32778 0.0
C30 C 0.77326 0.43273 0.26066 0.0
C31 C 0.74644 0.44796 0.29726 0.0
P32 P 0.03428 0.71772 0.43707 0.0
H33 H 0.033 0.74435 0.63907 0.0
H34 H 0.02461 0.79728 0.69758 0.0
H35 H 0.98366 0.82216 0.40765 0.0
H36 H 0.99538 0.76932 0.34666 0.0
H37 H 0.03226 0.64883 0.43815 0.0
H38 H 0.01768 0.61038 0.31251 0.0
H39 H 0.98245 0.6858 0.12058 0.0
H40 H 0.99381 0.72343 0.2527 0.0
H41 H 0.08959 0.75035 0.51159 0.0
H42 H 0.05024 0.72721 0.2197 0.0
O43 O 0.04945 0.69741 0.53416 0.0
H44 H 0.12066 0.79229 0.43358 0.0
H45 H 0.07958 0.76958 0.14327 0.0
C46 C 0.01416 0.75204 0.48868 0.0
C47 C 0.02123 0.76074 0.58854 0.0
C48 C 0.01636 0.79161 0.62241 0.0
C49 C 1.00355 0.81498 0.55816 0.0
C50 C 0.99436 0.80556 0.45978 0.0
C51 C 1.00014 0.77471 0.42504 0.0
C52 C 0.01447 0.68938 0.35547 0.0
C53 C 0.02033 0.65708 0.37057 0.0
C54 C 0.01255 0.63489 0.29648 0.0
C55 C 0.99972 0.64438 0.20268 0.0
C56 C 0.992 0.67674 0.19076 0.0
C57 C 0.99863 0.69875 0.2671 0.0
C58 C 0.06683 0.73604 0.37244 0.0
C59 C 0.08852 0.75334 0.43026 0.0
C60 C 0.10607 0.77752 0.38576 0.0
C61 C 0.1019 0.78483 0.28289 0.0
C62 C 0.08338 0.7647 0.22285 0.0
C63 C 0.06601 0.74046 0.26736 0.0
P64 P 0.7988 0.04064 0.42613 0.0
H65 H 0.77775 0.0245 0.63097 0.0
H66 H 0.72522 0.01286 0.696 0.0
H67 H 0.69147 0.99955 0.39042 0.0
H68 H 0.74449 0.01022 0.32636 0.0
H69 H 0.86369 0.05837 0.39403 0.0
H70 H 0.90199 0.04471 0.26675 0.0
H71 H 0.84107 0.96904 0.16459 0.0
H72 H 0.8015 0.98486 0.2896 0.0
H73 H 0.75004 0.0866 0.46782 0.0
H74 H 0.80625 0.05903 0.21037 0.0
O75 O 0.81564 0.05917 0.52349 0.0
H76 H 0.71325 0.11345 0.35582 0.0
H77 H 0.7707 0.08747 0.09879 0.0
C78 C 0.76539 0.0181 0.47353 0.0
C79 C 0.75944 0.01779 0.57794 0.0
C80 C 0.72902 0.01176 0.61514 0.0
C81 C 0.70362 1.00601 0.54878 0.0
C82 C 0.71025 1.00372 0.44446 0.0
C83 C 0.74082 0.00954 0.4074 0.0
C84 C 0.82995 0.0222 0.35346 0.0
C85 C 0.85889 0.03817 0.34642 0.0
C86 C 0.88104 0.03019 0.27265 0.0
C87 C 0.87514 1.00559 0.20372 0.0
C88 C 0.84656 0.98851 0.21435 0.0
C89 C 0.824 0.99704 0.2875 0.0
C90 C 0.78046 0.07017 0.34776 0.0
C91 C 0.75528 0.08755 0.38768 0.0
C92 C 0.73432 0.10313 0.32325 0.0
C93 C 0.73867 0.10202 0.21785 0.0
C94 C 0.76624 0.08799 0.17942 0.0
C95 C 0.78678 0.07179 0.24373 0.0
P96 P 0.47729 0.8008 0.44857 0.0
H97 H 0.49802 0.77978 0.64895 0.0
H98 H 0.50897 0.72682 0.71114 0.0
H99 H 0.51617 0.69376 0.40322 0.0
H100 H 0.50669 0.74731 0.34186 0.0
H101 H 0.44449 0.85321 0.3602 0.0
H102 H 0.45678 0.89129 0.22902 0.0
H103 H 0.55046 0.85115 0.20121 0.0
H104 H 0.5368 0.81135 0.33012 0.0
H105 H 0.42661 0.76571 0.54374 0.0
H106 H 0.45841 0.7863 0.2407 0.0
O107 O 0.46484 0.82082 0.54942 0.0
H108 H 0.39911 0.71897 0.4818 0.0
H109 H 0.43106 0.74002 0.17884 0.0
C110 C 0.50169 0.76794 0.49036 0.0
C111 C 0.50348 0.76156 0.59452 0.0
C112 C 0.50898 0.73085 0.63024 0.0
C113 C 0.51259 0.70551 0.56268 0.0
C114 C 0.51362 0.71246 0.45821 0.0
C115 C 0.50851 0.74336 0.42263 0.0
C116 C 0.48977 0.82959 0.35548 0.0
C117 C 0.46779 0.85266 0.3263 0.0
C118 C 0.47505 0.87479 0.25155 0.0
C119 C 0.5049 0.87501 0.20476 0.0
C120 C 0.52714 0.85179 0.23476 0.0
C121 C 0.51955 0.82912 0.30917 0.0
C122 C 0.4444 0.7796 0.39695 0.0
C123 C 0.42602 0.76136 0.46308 0.0
C124 C 0.41059 0.73447 0.42783 0.0
C125 C 0.4133 0.72571 0.32591 0.0
C126 C 0.42825 0.74634 0.25764 0.0
C127 C 0.44389 0.77304 0.29311 0.0
P128 P 0.30195 0.46842 0.06505 0.0
H129 H 0.27426 0.45718 0.86559 0.0
H130 H 0.22145 0.46838 0.80097 0.0
H131 H 0.20647 0.53485 0.04165 0.0
H132 H 0.25951 0.52298 0.10899 0.0
H133 H 0.36275 0.44092 0.113 0.0
H134 H 0.40347 0.45445 0.23433 0.0
H135 H 0.35931 0.54522 0.28 0.0
H136 H 0.31794 0.53119 0.15725 0.0
H137 H 0.25274 0.42085 0.06605 0.0
H138 H 0.29551 0.48401 0.28207 0.0
O139 O 0.31399 0.43783 0.99575 0.0
H140 H 0.20261 0.42519 0.15495 0.0
H141 H 0.2458 0.48921 0.36808 0.0
C142 C 0.27181 0.48964 0.99169 0.0
C143 C 0.26053 0.47532 0.90263 0.0
C144 C 0.22994 0.48139 0.86599 0.0
C145 C 0.20978 0.50245 0.91608 0.0
C146 C 0.22163 0.51872 1.00076 0.0
C147 C 0.25228 0.51231 0.03838 0.0
C148 C 0.33717 0.48507 0.1243 0.0
C149 C 0.36233 0.46434 0.14551 0.0
C150 C 0.38583 0.4721 0.21585 0.0
C151 C 0.38476 0.50081 0.26856 0.0
C152 C 0.36075 0.52264 0.24209 0.0
C153 C 0.33725 0.51489 0.1705 0.0
C154 C 0.27752 0.45319 0.16447 0.0
C155 C 0.252 0.43409 0.13596 0.0
C156 C 0.22318 0.43694 0.18597 0.0
C157 C 0.22006 0.45865 0.26531 0.0
C158 C 0.2473 0.47265 0.30602 0.0
C159 C 0.27602 0.46977 0.25592 0.0
P160 P 0.05079 0.2994 0.07964 0.0
H161 H 0.05168 0.27687 0.86929 0.0
H162 H 0.03835 0.22548 0.79898 0.0
H163 H 0.98722 0.20227 0.07138 0.0
H164 H 1.00084 0.25388 0.14185 0.0
H165 H 0.08366 0.35542 0.14188 0.0
H166 H 0.0716 0.39661 0.26109 0.0
H167 H 0.97426 0.36521 0.2697 0.0
H168 H 0.98756 0.32223 0.15343 0.0
H169 H 0.0959 0.24787 0.08755 0.0
H170 H 0.03721 0.29861 0.29895 0.0
O171 O 0.08137 0.30912 1.00625 0.0
H172 H 0.09287 0.20124 0.19533 0.0
H173 H 0.03363 0.25233 0.40408 0.0
C174 C 0.02733 0.26986 0.01145 0.0
C175 C 0.03644 0.26145 0.91276 0.0
C176 C 0.02895 0.23164 0.87244 0.0
C177 C 0.01221 0.20912 0.9298 0.0
C178 C 1.00071 0.21859 0.02528 0.0
C179 C 1.008 0.24856 0.06519 0.0
C180 C 0.03648 0.33586 0.13641 0.0
C181 C 0.05937 0.35794 0.16645 0.0
C182 C 0.05234 0.38181 0.23579 0.0
C183 C 0.0219 0.3847 0.27762 0.0
C184 C 0.99827 0.36366 0.24205 0.0
C185 C 1.00556 0.33931 0.17322 0.0
C186 C 0.0659 0.27637 0.18301 0.0
C187 C 0.08413 0.24975 0.15999 0.0
C188 C 0.08229 0.22304 0.22152 0.0
C189 C 0.06193 0.22296 0.30537 0.0
C190 C 0.04916 0.25159 0.33902 0.0
C191 C 0.05102 0.27824 0.27763 0.0
P192 P 0.22652 0.05865 0.10472 0.0
H193 H 0.25182 0.07712 0.90708 0.0
H194 H 0.30171 0.06243 0.82823 0.0
H195 H 0.30786 0.9806 0.0215 0.0
H196 H 0.25786 0.99572 0.10296 0.0
H197 H 0.17065 0.09622 0.14355 0.0
H198 H 0.12607 0.08747 0.25425 0.0
H199 H 0.14982 0.98857 0.27505 0.0
H200 H 0.19506 0.99748 0.16096 0.0
H201 H 0.29202 0.07568 0.13642 0.0
H202 H 0.21609 0.03837 0.31976 0.0
O203 O 0.22535 0.09645 0.06864 0.0
H204 H 0.33028 0.04931 0.24594 0.0
H205 H 0.25436 0.01175 0.42727 0.0
C206 C 0.25052 0.03763 0.01156 0.0
C207 C 0.2628 0.05513 0.92989 0.0
C208 C 0.29169 0.0469 0.88508 0.0
C209 C 0.30881 0.02049 0.91893 0.0
C210 C 0.29505 1.00095 0.99315 0.0
C211 C 0.2661 0.00937 0.03879 0.0
C212 C 0.18658 0.04759 0.14297 0.0
C213 C 0.16582 0.07226 0.16768 0.0
C214 C 0.14036 0.06734 0.23294 0.0
C215 C 0.1348 0.03754 0.27637 0.0
C216 C 0.15347 0.01191 0.2434 0.0
C217 C 0.17918 0.01689 0.17695 0.0
C218 C 0.25119 0.05712 0.21536 0.0
C219 C 0.28352 0.06314 0.20259 0.0
C220 C 0.30538 0.04805 0.2648 0.0
C221 C 0.29479 0.02798 0.34204 0.0
C222 C 0.2627 0.02682 0.3665 0.0
C223 C 0.24084 0.04167 0.30354 0.0
P224 P 0.46266 0.22692 0.09934 0.0
H225 H 0.44048 0.25074 0.90346 0.0
H226 H 0.45258 0.30045 0.81948 0.0
H227 H 0.53769 0.30909 0.99684 0.0
H228 H 0.52512 0.25919 0.08338 0.0
H229 H 0.42454 0.17181 0.14398 0.0
H230 H 0.43359 0.1268 0.25245 0.0
H231 H 0.53319 0.14868 0.26331 0.0
H232 H 0.52401 0.19404 0.14928 0.0
H233 H 0.43908 0.28972 0.13448 0.0
H234 H 0.49503 0.2216 0.30061 0.0
O235 O 0.42418 0.22611 0.07095 0.0
H236 H 0.46529 0.33226 0.22537 0.0
H237 H 0.52143 0.26399 0.38915 0.0
C238 C 0.48171 0.2507 1.00078 0.0
C239 C 0.46254 0.26232 0.92194 0.0
C240 C 0.46924 0.29124 0.8745 0.0
C241 C 0.49576 0.30921 0.90266 0.0
C242 C 0.51703 0.29592 0.97318 0.0
C243 C 0.51007 0.26697 0.02176 0.0
C244 C 0.47346 0.18692 0.13839 0.0
C245 C 0.44867 0.16657 0.16555 0.0
C246 C 0.4538 0.14081 0.22959 0.0
C247 C 0.4839 0.13465 0.27021 0.0
C248 C 0.50958 0.15284 0.23434 0.0
C249 C 0.50441 0.17867 0.16813 0.0
C250 C 0.46626 0.25255 0.20639 0.0
C251 C 0.45577 0.28371 0.19379 0.0
C252 C 0.47094 0.30802 0.24482 0.0
C253 C 0.49599 0.30106 0.31071 0.0
C254 C 0.5025 0.2697 0.33684 0.0
C255 C 0.48755 0.24541 0.28485 0.0
Gd256 Gd 0.03041 1.00666 0.80856 0.0
Gd257 Gd 0.97961 0.01748 0.67329 0.0
C258 C 1.00224 0.94715 0.6863 0.0
C259 C 0.07163 0.98972 0.94291 0.0
C260 C 0.08107 0.96123 0.99889 0.0
C261 C 0.11003 0.9466 0.97671 0.0
C262 C 0.06174 0.94865 0.07522 0.0
C263 C 0.09975 0.90662 0.10402 0.0
C264 C 0.071 0.92157 0.12719 0.0
C265 C 0.11923 0.91937 0.0285 0.0
C266 C 0.05078 0.02815 0.62508 0.0
C267 C 1.00774 0.07702 0.79691 0.0
C268 C 0.9421 0.03849 0.53513 0.0
C269 C 0.94665 0.06737 0.47474 0.0
C270 C 0.94167 0.09705 0.51919 0.0
C271 C 0.96388 0.06552 0.38428 0.0
C272 C 0.97878 0.12046 0.40146 0.0
C273 C 0.98022 0.09176 0.3487 0.0
C274 C 0.95765 0.12344 0.48269 0.0
C275 C 0.95854 0.9961 0.85507 0.0
O276 O 0.0151 0.95617 0.77282 0.0
O277 O 0.98976 0.96815 0.62488 0.0
O278 O 0.0773 0.98974 0.84595 0.0
O279 O 0.04421 1.00206 0.96516 0.0
O280 O 0.06038 0.0388 0.71139 0.0
O281 O 0.02983 1.00746 0.6396 0.0
O282 O 0.99599 0.06794 0.70876 0.0
O283 O 0.01952 0.05575 0.85886 0.0
O284 O 0.93684 0.04261 0.63154 0.0
O285 O 0.963 0.01639 0.51883 0.0
O286 O 0.94796 0.98683 0.76829 0.0
O287 O 0.98013 0.01628 0.84167 0.0
H288 H 0.12545 0.95612 0.91878 0.0
H289 H 0.03931 0.95944 0.09432 0.0
H290 H 0.05521 0.91187 0.18377 0.0
H291 H 0.14153 0.90828 0.00953 0.0
H292 H 0.9279 0.09942 0.58777 0.0
H293 H 0.96767 0.04303 0.34737 0.0
H294 H 0.99604 0.08866 0.28521 0.0
H295 H 0.95506 0.14565 0.5222 0.0
Gd296 Gd 0.5118 0.03199 0.80916 0.0
Gd297 Gd 0.50208 0.98058 0.67918 0.0
C298 C 0.57244 1.00404 0.68601 0.0
C299 C 0.52986 0.07216 0.94381 0.0
C300 C 0.55946 0.08836 0.96513 0.0
C301 C 0.58315 0.09007 0.89126 0.0
C302 C 0.56543 0.09899 0.06321 0.0
C303 C 0.62003 0.10932 0.01731 0.0
C304 C 0.59556 0.10947 0.0893 0.0
C305 C 0.61327 0.10061 0.91714 0.0
C306 C 0.49332 0.05154 0.62239 0.0
C307 C 0.44131 0.00927 0.7995 0.0
C308 C 0.48379 0.93913 0.54926 0.0
C309 C 0.45213 0.93032 0.51558 0.0
C310 C 0.42777 0.926 0.58642 0.0
C311 C 0.44468 0.93462 0.41344 0.0
C312 C 0.38947 0.94015 0.45815 0.0
C313 C 0.41348 0.93967 0.38465 0.0
C314 C 0.39647 0.93053 0.55732 0.0
C315 C 0.52047 0.96159 0.86611 0.0
O316 O 0.56283 0.02061 0.76488 0.0
O317 O 0.55194 0.98819 0.63172 0.0
O318 O 0.51565 0.08029 0.86006 0.0
O319 O 0.53067 0.04161 0.95787 0.0
O320 O 0.48161 0.06168 0.70656 0.0
O321 O 0.51369 0.03033 0.6402 0.0
O322 O 0.45081 0.99434 0.71693 0.0
O323 O 0.46226 0.0228 0.85853 0.0
O324 O 0.49114 0.93199 0.64244 0.0
O325 O 0.49185 0.96795 0.5247 0.0
O326 O 0.53286 0.95169 0.78263 0.0
O327 O 0.50002 0.98258 0.84695 0.0
H328 H 0.57877 0.08193 0.81494 0.0
H329 H 0.54729 0.09758 0.12084 0.0
H330 H 0.60017 0.11553 0.16746 0.0
H331 H 0.63166 0.10044 0.86018 0.0
H332 H 0.43292 0.92245 0.66595 0.0
H333 H 0.46325 0.93809 0.35823 0.0
H334 H 0.40896 0.94697 0.30738 0.0
H335 H 0.37817 0.92982 0.61454 0.0
Gd336 Gd 0.48628 0.51409 0.82546 0.0
Gd337 Gd 0.5399 0.50445 0.68569 0.0
C338 C 0.51258 0.57414 0.70021 0.0
C339 C 0.45672 0.52372 0.99361 0.0
C340 C 0.44508 0.55054 0.05324 0.0
C341 C 0.41296 0.55908 0.05029 0.0
C342 C 0.46599 0.56761 0.11485 0.0
C343 C 0.42341 0.60251 0.16459 0.0
C344 C 0.45527 0.59336 0.16973 0.0
C345 C 0.40224 0.5851 0.10503 0.0
C346 C 0.45908 0.50815 0.64034 0.0
C347 C 0.50608 0.44205 0.78287 0.0
C348 C 0.58283 0.49041 0.55495 0.0
C349 C 0.58786 0.46243 0.49209 0.0
C350 C 0.60226 0.43535 0.53318 0.0
C351 C 0.57281 0.4606 0.39781 0.0
C352 C 0.57765 0.40376 0.40313 0.0
C353 C 0.56761 0.43141 0.35364 0.0
C354 C 0.59711 0.40607 0.48882 0.0
C355 C 0.55709 0.52313 0.87332 0.0
O356 O 0.49844 0.565 0.78486 0.0
O357 O 0.52685 0.55359 0.64155 0.0
O358 O 0.44223 0.51778 0.90849 0.0
O359 O 0.4874 0.52084 0.98664 0.0
O360 O 0.44406 0.51255 0.72418 0.0
O361 O 0.48871 0.50679 0.65682 0.0
O362 O 0.52682 0.45293 0.71612 0.0
O363 O 0.48791 0.46131 0.83494 0.0
O364 O 0.58645 0.48627 0.65229 0.0
O365 O 0.55758 0.50699 0.53312 0.0
O366 O 0.56752 0.53573 0.79075 0.0
O367 O 0.53665 0.50249 0.85151 0.0
H368 H 0.39624 0.54591 1.00486 0.0
H369 H 0.49081 0.56145 0.11978 0.0
H370 H 0.4722 0.60674 0.2138 0.0
H371 H 0.37753 0.59171 0.10048 0.0
H372 H 0.61486 0.43626 0.60453 0.0
H373 H 0.56209 0.48127 0.36349 0.0
H374 H 0.55268 0.43049 0.28709 0.0
H375 H 0.60581 0.38505 0.52668 0.0
Gd376 Gd 1.00371 0.48613 0.82774 0.0
Gd377 Gd 0.01705 0.53715 0.668 0.0
C378 C 0.94455 0.5156 0.70909 0.0
C379 C 0.99793 0.45385 0.99262 0.0
C380 C 0.97157 0.44323 0.05698 0.0
C381 C 0.961 0.41182 0.05233 0.0
C382 C 0.95618 0.46454 0.12152 0.0
C383 C 0.91849 0.42397 0.1689 0.0
C384 C 0.92989 0.455 0.17677 0.0
C385 C 0.93449 0.40231 0.10735 0.0
C386 C 1.00522 0.4641 0.63634 0.0
C387 C 0.07701 0.50854 0.79145 0.0
C388 C 0.0289 0.5641 0.49794 0.0
C389 C 0.0547 0.55823 0.42614 0.0
C390 C 0.08469 0.57131 0.44458 0.0
C391 C 0.05147 0.53448 0.35287 0.0
C392 C 0.10835 0.53067 0.34183 0.0
C393 C 0.07827 0.52064 0.31112 0.0
C394 C 0.11143 0.55736 0.40337 0.0
C395 C 1.00086 0.56611 0.84408 0.0
O396 O 0.9535 0.50185 0.79494 0.0
O397 O 0.96531 0.52747 0.64483 0.0
O398 O 1.00012 0.44079 0.90334 0.0
O399 O 1.00346 0.48427 0.99065 0.0
O400 O 0.986 0.45443 0.70634 0.0
O401 O 0.02416 0.48482 0.67177 0.0
O402 O 0.06758 0.52782 0.71813 0.0
O403 O 0.05686 0.49034 0.84105 0.0
O404 O 0.03766 0.57586 0.58515 0.0
O405 O 1.00815 0.54123 0.50748 0.0
O406 O 1.00677 0.58112 0.76108 0.0
O407 O 1.00273 0.53706 0.82671 0.0
H408 H 0.97279 0.39478 1.00445 0.0
H409 H 0.96385 0.48887 0.1276 0.0
H410 H 0.91771 0.47233 0.22252 0.0
H411 H 0.92626 0.37818 0.10082 0.0
H412 H 0.08785 0.59029 0.4984 0.0
H413 H 0.02854 0.52446 0.3354 0.0
H414 H 0.07549 0.50028 0.26253 0.0
H415 H 0.13456 0.56592 0.42551 0.0
C416 C 0.09057 0.00956 0.37229 0.0
C417 C 0.11216 0.03475 0.36332 0.0
H418 H 0.05353 0.98803 0.46062 0.0
C419 C 0.11238 0.05787 0.43975 0.0
H420 H 0.08971 0.99136 0.31499 0.0
C421 C 0.09194 0.0559 0.52266 0.0
C422 C 0.07039 0.03089 0.53184 0.0
H423 H 0.12897 0.07734 0.43673 0.0
H424 H 0.09327 0.07392 0.58048 0.0
C425 C 0.06968 1.00781 0.45523 0.0
C426 C 0.5123 0.09063 0.36753 0.0
C427 C 0.48693 0.11206 0.35768 0.0
H428 H 0.53404 0.05391 0.45764 0.0
C429 C 0.46375 0.11228 0.43412 0.0
H430 H 0.53061 0.0898 0.31045 0.0
C431 C 0.4657 0.09195 0.51734 0.0
C432 C 0.49086 0.07057 0.52759 0.0
H433 H 0.44421 0.1288 0.43101 0.0
H434 H 0.44754 0.09332 0.57488 0.0
C435 C 0.51411 0.06988 0.45132 0.0
C436 C 0.43755 0.49494 0.36154 0.0
C437 C 0.40589 0.50581 0.35889 0.0
H438 H 0.47963 0.48736 0.45152 0.0
C439 C 0.3933 0.51879 0.44777 0.0
H440 H 0.44819 0.48489 0.29455 0.0
C441 C 0.41112 0.5199 0.53688 0.0
C442 C 0.44234 0.50835 0.54069 0.0
H443 H 0.36902 0.52689 0.45015 0.0
H444 H 0.40004 0.52945 0.60397 0.0
C445 C 0.45567 0.49641 0.45131 0.0
C446 C 0.99333 0.40021 0.43858 0.0
C447 C 0.01598 0.40736 0.36404 0.0
H448 H 0.97214 0.41238 0.57956 0.0
C449 C 0.03437 0.43504 0.37802 0.0
H450 H 0.97901 0.37911 0.43373 0.0
C451 C 0.03102 0.45393 0.46516 0.0
C452 C 1.00877 0.44605 0.53985 0.0
H453 H 0.05166 0.44214 0.32224 0.0
H454 H 0.04602 0.47442 0.47451 0.0
C455 C 0.98963 0.4193 0.52399 0.0
C456 C 0.88644 0.98848 0.02371 0.0
C457 C 0.8976 0.99974 0.11741 0.0
H458 H 0.89691 0.97787 0.86918 0.0
C459 C 0.93005 1.00744 0.12506 0.0
H460 H 0.86174 0.98281 0.01266 0.0
C461 C 0.9501 1.00558 0.04078 0.0
C462 C 0.93852 0.99512 0.94723 0.0
H463 H 0.94011 0.01535 0.19581 0.0
H464 H 0.97458 0.01272 0.04854 0.0
C465 C 0.90667 0.98587 0.94041 0.0
C466 C 0.498 0.92906 0.12417 0.0
C467 C 0.51185 0.89869 0.12286 0.0
H468 H 0.48981 0.97266 0.0448 0.0
C469 C 0.53083 0.89065 0.03946 0.0
H470 H 0.48384 0.93665 0.18759 0.0
C471 C 0.53483 0.91176 0.95859 0.0
C472 C 0.51969 0.94136 0.95813 0.0
H473 H 0.54163 0.86755 0.03429 0.0
H474 H 0.54883 0.90431 0.89443 0.0
C475 C 0.50167 0.94999 0.04263 0.0
C476 C 0.62687 0.53425 0.05038 0.0
C477 C 0.61918 0.5143 0.13213 0.0
H478 H 0.61315 0.55311 0.90639 0.0
C479 C 0.58922 0.49951 0.13122 0.0
H480 H 0.64966 0.54579 0.04644 0.0
C481 C 0.56843 0.50327 0.04932 0.0
C482 C 0.57679 0.52228 0.96649 0.0
H483 H 0.58186 0.48446 0.19287 0.0
H484 H 0.54617 0.49061 0.04973 0.0
C485 C 0.6059 0.53833 0.96921 0.0
C486 C 0.0154 0.59363 0.11152 0.0
C487 C 0.99655 0.62129 0.11627 0.0
H488 H 0.03053 0.55379 0.02337 0.0
C489 C 0.97622 0.62756 0.03381 0.0
H490 H 0.032 0.5877 0.17084 0.0
C491 C 0.97658 0.60854 0.94744 0.0
C492 C 0.99609 0.58184 0.94239 0.0
H493 H 0.96039 0.6476 0.03392 0.0
H494 H 0.96203 0.61516 0.88322 0.0
C495 C 0.01475 0.57393 0.02635 0.0
C496 C 0.03712 0.18743 0.43416 0.0
C497 C 0.04546 0.19364 0.33358 0.0
H498 H 1.00955 0.15927 0.53448 0.0
C499 C 0.03231 0.17529 0.256 0.0
H500 H 0.04662 0.20158 0.49514 0.0
C501 C 0.01035 0.15187 0.2777 0.0
C502 C 1.00141 0.14597 0.37796 0.0
H503 H 0.03762 0.18039 0.17773 0.0
H504 H 0.99973 0.13905 0.21564 0.0
C505 C 0.01542 0.16363 0.45621 0.0
C506 C 0.32435 0.97902 0.31127 0.0
C507 C 0.31568 1.00307 0.37834 0.0
H508 H 0.35363 0.93872 0.28627 0.0
C509 C 0.32742 1.00329 0.47697 0.0
H510 H 0.31482 0.97841 0.23512 0.0
C511 C 0.34977 0.98086 0.50599 0.0
C512 C 0.36019 0.95782 0.43681 0.0
H513 H 0.32054 0.02164 0.52943 0.0
H514 H 0.36043 0.98305 0.58004 0.0
C515 C 0.34629 0.95634 0.34059 0.0
C516 C 0.53315 0.34269 0.25665 0.0
C517 C 0.51891 0.32563 0.33552 0.0
H518 H 0.56464 0.38003 0.21623 0.0
C519 C 0.52767 0.33129 0.4358 0.0
H520 H 0.52731 0.33784 0.17838 0.0
C521 C 0.54888 0.35546 0.45753 0.0
C522 C 0.56191 0.37379 0.37884 0.0
H523 H 0.51718 0.31791 0.49717 0.0
H524 H 0.55351 0.36094 0.53613 0.0
C525 C 0.55469 0.36647 0.27811 0.0
C526 C 0.169 0.48152 0.20714 0.0
C527 C 0.189 0.47271 0.28775 0.0
H528 H 0.12782 0.50732 0.16106 0.0
C529 C 0.18155 0.48227 0.3863 0.0
H530 H 0.17465 0.47531 0.12994 0.0
C531 C 0.15528 0.50126 0.40335 0.0
C532 C 0.13599 0.5108 0.32223 0.0
H533 H 0.19655 0.47583 0.44961 0.0
H534 H 0.15007 0.5086 0.47999 0.0
C535 C 0.14255 0.50026 0.22439 0.0
C536 C 0.10342 0.84316 0.30257 0.0
C537 C 0.1103 0.81646 0.2436 0.0
H538 H 0.09533 0.89294 0.30441 0.0
C539 C 0.11901 0.82063 0.1419 0.0
H540 H 0.09618 0.84085 0.38079 0.0
C541 C 0.11777 0.85055 0.0976 0.0
C542 C 0.108 0.87669 0.15467 0.0
H543 H 0.12469 0.80051 0.09496 0.0
H544 H 0.12221 0.85279 0.01723 0.0
C545 C 0.1024 0.873 0.25852 0.0
C546 C 0.70472 0.08893 0.06975 0.0
C547 C 0.7119 0.10959 0.1496 0.0
H548 H 0.66999 0.07278 0.96536 0.0
C549 C 0.69043 0.13379 0.17334 0.0
H550 H 0.72032 0.0696 0.05037 0.0
C551 C 0.66116 0.1354 0.12469 0.0
C552 C 0.65308 0.11301 0.05101 0.0
H553 H 0.69548 0.15037 0.23338 0.0
H554 H 0.64423 0.15309 0.14835 0.0
C555 C 0.67567 0.09068 0.02083 0.0
C556 C 0.42113 0.66826 0.35362 0.0
C557 C 0.40775 0.6927 0.29537 0.0
H558 H 0.43607 0.62005 0.35777 0.0
C559 C 0.39483 0.68573 0.20014 0.0
H560 H 0.43184 0.67302 0.4265 0.0
C561 C 0.39758 0.65537 0.16043 0.0
C562 C 0.41344 0.63174 0.21534 0.0
H563 H 0.38448 0.70422 0.15389 0.0
H564 H 0.3895 0.65108 0.08391 0.0
C565 C 0.42392 0.63802 0.31391 0.0
C566 C 0.83366 0.39904 0.20068 0.0
C567 C 0.82686 0.41143 0.29654 0.0
H568 H 0.86847 0.39316 0.08503 0.0
C569 C 0.8516 0.42369 0.35573 0.0
H570 H 0.81496 0.38954 0.15367 0.0
C571 C 0.88209 0.42568 0.31679 0.0
C572 C 0.88838 0.4155 0.21802 0.0
H573 H 0.84699 0.43397 0.42918 0.0
H574 H 0.90039 0.43677 0.36183 0.0
C575 C 0.86425 0.40097 0.16176 0.0
C576 C 1.00414 0.16762 0.79173 0.0
C577 C 1.00933 0.17533 0.89434 0.0
H578 H 0.99876 0.1307 0.68088 0.0
C579 C 0.01344 0.15018 0.96307 0.0
H580 H 1.00073 0.18613 0.73607 0.0
C581 C 0.01296 0.11868 0.93098 0.0
C582 C 1.00782 0.11095 0.82882 0.0
H583 H 0.01787 0.15474 0.04193 0.0
H584 H 0.01659 0.10028 0.98699 0.0
C585 C 1.00301 0.13585 0.75975 0.0
C586 C 0.35238 0.9925 0.8217 0.0
C587 C 0.34257 0.01655 0.88785 0.0
H588 H 0.39125 0.97141 0.74092 0.0
C589 C 0.36531 0.03797 0.92353 0.0
H590 H 0.33533 0.97572 0.79272 0.0
C591 C 0.39708 0.03541 0.89457 0.0
C592 C 0.4071 0.0116 0.82764 0.0
H593 H 0.35847 0.05674 0.97451 0.0
H594 H 0.41382 0.0524 0.92423 0.0
C595 C 0.3843 0.99019 0.7914 0.0
C596 C 0.52727 0.35497 0.82717 0.0
C597 C 0.49883 0.34284 0.86698 0.0
H598 H 0.55172 0.39546 0.76604 0.0
C599 C 0.4728 0.36342 0.87465 0.0
H600 H 0.54779 0.33983 0.82033 0.0
C601 C 0.47516 0.39518 0.8452 0.0
C602 C 0.50346 0.40742 0.80512 0.0
H603 H 0.45065 0.35512 0.90601 0.0
H604 H 0.4547 0.41029 0.85459 0.0
C605 C 0.52943 0.38678 0.79532 0.0
C606 C 0.16417 0.53079 0.83012 0.0
C607 C 0.17576 0.50476 0.88524 0.0
H608 H 0.12424 0.55223 0.75538 0.0
C609 C 0.15484 0.47991 0.90759 0.0
H610 H 0.1798 0.55016 0.81118 0.0
C611 C 0.12302 0.48121 0.87708 0.0
C612 C 0.11128 0.5071 0.82105 0.0
H613 H 0.16314 0.45941 0.94911 0.0
H614 H 0.10766 0.46168 0.89678 0.0
C615 C 0.13239 0.53183 0.79761 0.0
C616 C 1.00086 0.85722 0.69551 0.0
C617 C 1.00183 0.84905 0.59179 0.0
H618 H 1.00108 0.89418 0.80675 0.0
C619 C 1.0027 0.87401 0.52077 0.0
H620 H 0.99933 0.83929 0.75366 0.0
C621 C 1.0024 0.90559 0.55198 0.0
C622 C 1.00221 0.91343 0.6552 0.0
H623 H 1.00436 0.86946 0.44055 0.0
H624 H 1.00312 0.92399 0.49482 0.0
C625 C 1.00161 0.8889 0.72666 0.0
C626 C 0.64778 0.98454 0.54192 0.0
C627 C 0.67027 1.00443 0.5875 0.0
H628 H 0.59978 0.96873 0.53708 0.0
C629 C 0.66027 0.0237 0.66834 0.0
H630 H 0.65444 0.96903 0.48063 0.0
C631 C 0.62877 0.02326 0.70182 0.0
C632 C 0.60631 1.00374 0.65489 0.0
H633 H 0.67657 0.03982 0.70449 0.0
H634 H 0.62196 0.03865 0.76327 0.0
C635 C 0.61632 0.98425 0.57493 0.0
C636 C 0.49524 0.66256 0.68523 0.0
C637 C 0.51339 0.67201 0.60073 0.0
H638 H 0.48073 0.62464 0.78334 0.0
C639 C 0.53149 0.64891 0.55127 0.0
H640 H 0.48043 0.67937 0.72445 0.0
C641 C 0.53124 0.61745 0.58434 0.0
C642 C 0.51301 0.608 0.66834 0.0
H643 H 0.54612 0.65507 0.48705 0.0
H644 H 0.5455 0.60051 0.54352 0.0
C645 C 0.49517 0.63103 0.71883 0.0
C646 C 0.86962 0.53494 0.56108 0.0
C647 C 0.84646 0.51683 0.61082 0.0
H648 H 0.91809 0.54895 0.553 0.0
C649 C 0.85587 0.499 0.69632 0.0
H650 H 0.86352 0.54936 0.49612 0.0
C651 C 0.88739 0.49913 0.7303 0.0
C652 C 0.91049 0.51685 0.6792 0.0
H653 H 0.83908 0.48415 0.73584 0.0
H654 H 0.89376 0.48473 0.79507 0.0
C655 C 0.90107 0.53487 0.59447 0.0
loop_
_geom_bond_atom_site_label_1
_geom_bond_atom_site_label_2
_geom_bond_distance
_geom_bond_site_symmetry_2
_ccdc_geom_bond_type
P0 O11 1.490 . S
P0 C14 1.812 . S
P0 C20 1.803 . S
P0 C26 1.819 . S
H1 C15 0.941 . S
H2 C16 0.939 . S
H3 C18 0.940 . S
H4 C19 0.940 . S
H5 C21 0.939 . S
H6 C22 0.942 . S
H7 C24 0.940 . S
H8 C25 0.939 . S
H9 C27 0.941 . S
H10 C31 0.939 . S
O11 P0 1.490 . S
H12 C28 0.939 . S
H13 C30 0.940 . S
C14 P0 1.812 . S
C14 C15 1.389 . S
C14 C19 1.391 . S
C15 H1 0.941 . S
C15 C14 1.389 . S
C15 C16 1.397 . S
C16 H2 0.939 . S
C16 C15 1.397 . S
C16 C17 1.378 . S
C17 C16 1.378 . S
C17 C18 1.378 . S
C18 H3 0.940 . S
C18 C17 1.378 . S
C18 C19 1.396 . S
C19 H4 0.940 . S
C19 C14 1.391 . S
C19 C18 1.396 . S
C20 P0 1.803 . S
C20 C21 1.378 . S
C20 C25 1.400 . S
C21 H5 0.939 . S
C21 C20 1.378 . S
C21 C22 1.361 . S
C22 H6 0.942 . S
C22 C21 1.361 . S
C22 C23 1.369 . S
C23 C22 1.369 . S
C23 C24 1.404 . S
C24 H7 0.940 . S
C24 C23 1.404 . S
C24 C25 1.389 . S
C25 H8 0.939 . S
C25 C20 1.400 . S
C25 C24 1.389 . S
C26 P0 1.819 . S
C26 C27 1.391 . S
C26 C31 1.391 . S
C27 H9 0.941 . S
C27 C26 1.391 . S
C27 C28 1.396 . S
C28 H12 0.939 . S
C28 C27 1.396 . S
C28 C29 1.397 . S
C29 C28 1.397 . S
C29 C30 1.385 . S
C30 H13 0.940 . S
C30 C29 1.385 . S
C30 C31 1.388 . S
C31 H10 0.939 . S
C31 C26 1.391 . S
C31 C30 1.388 . S
P32 O43 1.490 . S
P32 C46 1.812 . S
P32 C52 1.803 . S
P32 C58 1.819 . S
H33 C47 0.941 . S
H34 C48 0.939 . S
H35 C50 0.940 . S
H36 C51 0.950 . S
H37 C53 0.939 . S
H38 C54 0.942 . S
H39 C56 0.940 . S
H40 C57 0.959 . S
H41 C59 0.941 . S
H42 C63 0.929 1_655 S
O43 P32 1.490 . S
H44 C60 0.939 . S
H45 C62 0.940 . S
C46 P32 1.812 . S
C46 C47 1.389 . S
C46 C51 1.375 1_455 S
C47 H33 0.941 . S
C47 C46 1.389 . S
C47 C48 1.397 . S
C48 H34 0.939 . S
C48 C47 1.397 . S
C48 C49 1.378 . S
C49 C48 1.378 . S
C49 C50 1.378 1_455 S
C50 H35 0.940 . S
C50 C49 1.378 1_655 S
C50 C51 1.403 . S
C51 H36 0.950 . S
C51 C46 1.375 1_655 S
C51 C50 1.403 . S
C52 P32 1.803 . S
C52 C53 1.378 . S
C52 C57 1.368 1_455 S
C53 H37 0.939 . S
C53 C52 1.378 . S
C53 C54 1.361 . S
C54 H38 0.942 . S
C54 C53 1.361 . S
C54 C55 1.369 . S
C55 C54 1.369 . S
C55 C56 1.404 1_455 S
C56 H39 0.940 . S
C56 C55 1.404 1_655 S
C56 C57 1.402 . S
C57 H40 0.959 . S
C57 C52 1.368 1_655 S
C57 C56 1.402 . S
C58 P32 1.819 . S
C58 C59 1.391 . S
C58 C63 1.391 . S
C59 H41 0.941 . S
C59 C58 1.391 . S
C59 C60 1.396 . S
C60 H44 0.939 . S
C60 C59 1.396 . S
C60 C61 1.397 . S
C61 C60 1.397 . S
C61 C62 1.385 1_455 S
C62 H45 0.940 . S
C62 C61 1.385 1_655 S
C62 C63 1.388 1_655 S
C63 H42 0.929 1_455 S
C63 C58 1.391 . S
C63 C62 1.388 1_455 S
P64 O75 1.490 . S
P64 C78 1.812 . S
P64 C84 1.803 . S
P64 C90 1.819 . S
H65 C79 0.941 . S
H66 C80 0.939 . S
H67 C82 0.940 . S
H68 C83 0.950 . S
H69 C85 0.939 . S
H70 C86 0.942 . S
H71 C88 0.940 . S
H72 C89 0.959 . S
H73 C91 0.941 . S
H74 C95 0.929 1_565 S
O75 P64 1.490 . S
H76 C92 0.939 . S
H77 C94 0.940 . S
C78 P64 1.812 . S
C78 C79 1.389 . S
C78 C83 1.375 1_545 S
C79 H65 0.941 . S
C79 C78 1.389 . S
C79 C80 1.397 . S
C80 H66 0.939 . S
C80 C79 1.397 . S
C80 C81 1.378 . S
C81 C80 1.378 . S
C81 C82 1.378 1_545 S
C82 H67 0.940 . S
C82 C81 1.378 1_565 S
C82 C83 1.403 . S
C83 H68 0.950 . S
C83 C78 1.375 1_565 S
C83 C82 1.403 . S
C84 P64 1.803 . S
C84 C85 1.378 . S
C84 C89 1.368 1_545 S
C85 H69 0.939 . S
C85 C84 1.378 . S
C85 C86 1.361 . S
C86 H70 0.942 . S
C86 C85 1.361 . S
C86 C87 1.369 . S
C87 C86 1.369 . S
C87 C88 1.404 1_545 S
C88 H71 0.940 . S
C88 C87 1.404 1_565 S
C88 C89 1.402 . S
C89 H72 0.959 . S
C89 C84 1.368 1_565 S
C89 C88 1.402 . S
C90 P64 1.819 . S
C90 C91 1.391 . S
C90 C95 1.391 . S
C91 H73 0.941 . S
C91 C90 1.391 . S
C91 C92 1.396 . S
C92 H76 0.939 . S
C92 C91 1.396 . S
C92 C93 1.397 . S
C93 C92 1.397 . S
C93 C94 1.385 1_545 S
C94 H77 0.940 . S
C94 C93 1.385 1_565 S
C94 C95 1.388 1_565 S
C95 H74 0.929 1_545 S
C95 C90 1.391 . S
C95 C94 1.388 1_545 S
P96 O107 1.490 . S
P96 C110 1.812 . S
P96 C116 1.803 . S
P96 C122 1.819 . S
H97 C111 0.941 . S
H98 C112 0.939 . S
H99 C114 0.940 . S
H100 C115 0.940 . S
H101 C117 0.939 . S
H102 C118 0.942 . S
H103 C120 0.940 . S
H104 C121 0.939 . S
H105 C123 0.941 . S
H106 C127 0.939 . S
O107 P96 1.490 . S
H108 C124 0.939 . S
H109 C126 0.940 . S
C110 P96 1.812 . S
C110 C111 1.389 . S
C110 C115 1.391 . S
C111 H97 0.941 . S
C111 C110 1.389 . S
C111 C112 1.397 . S
C112 H98 0.939 . S
C112 C111 1.397 . S
C112 C113 1.378 . S
C113 C112 1.378 . S
C113 C114 1.378 . S
C114 H99 0.940 . S
C114 C113 1.378 . S
C114 C115 1.396 . S
C115 H100 0.940 . S
C115 C110 1.391 . S
C115 C114 1.396 . S
C116 P96 1.803 . S
C116 C117 1.378 . S
C116 C121 1.400 . S
C117 H101 0.939 . S
C117 C116 1.378 . S
C117 C118 1.361 . S
C118 H102 0.942 . S
C118 C117 1.361 . S
C118 C119 1.369 . S
C119 C118 1.369 . S
C119 C120 1.404 . S
C120 H103 0.940 . S
C120 C119 1.404 . S
C120 C121 1.389 . S
C121 H104 0.939 . S
C121 C116 1.400 . S
C121 C120 1.389 . S
C122 P96 1.819 . S
C122 C123 1.391 . S
C122 C127 1.391 . S
C123 H105 0.941 . S
C123 C122 1.391 . S
C123 C124 1.396 . S
C124 H108 0.939 . S
C124 C123 1.396 . S
C124 C125 1.397 . S
C125 C124 1.397 . S
C125 C126 1.385 . S
C126 H109 0.940 . S
C126 C125 1.385 . S
C126 C127 1.388 . S
C127 H106 0.939 . S
C127 C122 1.391 . S
C127 C126 1.388 . S
P128 O139 1.490 . S
P128 C142 1.812 1_554 S
P128 C148 1.803 . S
P128 C154 1.819 . S
H129 C143 0.941 . S
H130 C144 0.939 . S
H131 C146 0.940 . S
H132 C147 0.940 . S
H133 C149 0.939 . S
H134 C150 0.942 . S
H135 C152 0.940 . S
H136 C153 0.939 1_556 S
H137 C155 0.941 . S
H138 C159 0.939 . S
O139 P128 1.490 . S
H140 C156 0.939 . S
H141 C158 0.940 . S
C142 P128 1.812 1_556 S
C142 C143 1.389 . S
C142 C147 1.391 . S
C143 H129 0.941 . S
C143 C142 1.389 . S
C143 C144 1.397 . S
C144 H130 0.939 . S
C144 C143 1.397 . S
C144 C145 1.378 . S
C145 C144 1.378 . S
C145 C146 1.378 . S
C146 H131 0.940 . S
C146 C145 1.378 . S
C146 C147 1.396 . S
C147 H132 0.940 . S
C147 C142 1.391 . S
C147 C146 1.396 . S
C148 P128 1.803 . S
C148 C149 1.378 . S
C148 C153 1.400 . S
C149 H133 0.939 . S
C149 C148 1.378 . S
C149 C150 1.361 . S
C150 H134 0.942 . S
C150 C149 1.361 . S
C150 C151 1.369 . S
C151 C150 1.369 . S
C151 C152 1.404 . S
C152 H135 0.940 . S
C152 C151 1.404 . S
C152 C153 1.389 . S
C153 H136 0.939 1_554 S
C153 C148 1.400 . S
C153 C152 1.389 . S
C154 P128 1.819 . S
C154 C155 1.391 . S
C154 C159 1.391 . S
C155 H137 0.941 . S
C155 C154 1.391 . S
C155 C156 1.396 . S
C156 H140 0.939 . S
C156 C155 1.396 . S
C156 C157 1.397 . S
C157 C156 1.397 . S
C157 C158 1.385 . S
C158 H141 0.940 . S
C158 C157 1.385 . S
C158 C159 1.388 . S
C159 H138 0.939 . S
C159 C154 1.391 . S
C159 C158 1.388 . S
P160 O171 1.490 . S
P160 C174 1.812 1_554 S
P160 C180 1.803 . S
P160 C186 1.819 . S
H161 C175 0.941 . S
H162 C176 0.939 . S
H163 C178 0.940 . S
H164 C179 0.945 . S
H165 C181 0.939 . S
H166 C182 0.942 . S
H167 C184 0.940 . S
H168 C185 0.954 1_556 S
H169 C187 0.941 . S
H170 C191 0.932 1_655 S
O171 P160 1.490 . S
H172 C188 0.939 . S
H173 C190 0.940 . S
C174 P160 1.812 1_556 S
C174 C175 1.389 . S
C174 C179 1.383 1_455 S
C175 H161 0.941 . S
C175 C174 1.389 . S
C175 C176 1.397 . S
C176 H162 0.939 . S
C176 C175 1.397 . S
C176 C177 1.378 . S
C177 C176 1.378 . S
C177 C178 1.378 1_455 S
C178 H163 0.940 . S
C178 C177 1.378 1_655 S
C178 C179 1.400 . S
C179 H164 0.945 . S
C179 C174 1.383 1_655 S
C179 C178 1.400 . S
C180 P160 1.803 . S
C180 C181 1.378 . S
C180 C185 1.376 1_455 S
C181 H165 0.939 . S
C181 C180 1.378 . S
C181 C182 1.361 . S
C182 H166 0.942 . S
C182 C181 1.361 . S
C182 C183 1.369 . S
C183 C182 1.369 . S
C183 C184 1.404 1_455 S
C184 H167 0.940 . S
C184 C183 1.404 1_655 S
C184 C185 1.399 . S
C185 H168 0.954 1_554 S
C185 C180 1.376 1_655 S
C185 C184 1.399 . S
C186 P160 1.819 . S
C186 C187 1.391 . S
C186 C191 1.391 . S
C187 H169 0.941 . S
C187 C186 1.391 . S
C187 C188 1.396 . S
C188 H172 0.939 . S
C188 C187 1.396 . S
C188 C189 1.397 . S
C189 C188 1.397 . S
C189 C190 1.385 1_455 S
C190 H173 0.940 . S
C190 C189 1.385 1_655 S
C190 C191 1.388 1_655 S
C191 H170 0.932 1_455 S
C191 C186 1.391 . S
C191 C190 1.388 1_455 S
P192 O203 1.490 . S
P192 C206 1.812 1_554 S
P192 C212 1.803 . S
P192 C218 1.819 . S
H193 C207 0.941 . S
H194 C208 0.939 . S
H195 C210 0.940 . S
H196 C211 0.945 . S
H197 C213 0.939 . S
H198 C214 0.942 . S
H199 C216 0.940 . S
H200 C217 0.954 1_556 S
H201 C219 0.941 . S
H202 C223 0.932 1_565 S
O203 P192 1.490 . S
H204 C220 0.939 . S
H205 C222 0.940 . S
C206 P192 1.812 1_556 S
C206 C207 1.389 . S
C206 C211 1.383 1_545 S
C207 H193 0.941 . S
C207 C206 1.389 . S
C207 C208 1.397 . S
C208 H194 0.939 . S
C208 C207 1.397 . S
C208 C209 1.378 . S
C209 C208 1.378 . S
C209 C210 1.378 1_545 S
C210 H195 0.940 . S
C210 C209 1.378 1_565 S
C210 C211 1.400 . S
C211 H196 0.945 . S
C211 C206 1.383 1_565 S
C211 C210 1.400 . S
C212 P192 1.803 . S
C212 C213 1.378 . S
C212 C217 1.376 1_545 S
C213 H197 0.939 . S
C213 C212 1.378 . S
C213 C214 1.361 . S
C214 H198 0.942 . S
C214 C213 1.361 . S
C214 C215 1.369 . S
C215 C214 1.369 . S
C215 C216 1.404 1_545 S
C216 H199 0.940 . S
C216 C215 1.404 1_565 S
C216 C217 1.399 . S
C217 H200 0.954 1_554 S
C217 C212 1.376 1_565 S
C217 C216 1.399 . S
C218 P192 1.819 . S
C218 C219 1.391 . S
C218 C223 1.391 . S
C219 H201 0.941 . S
C219 C218 1.391 . S
C219 C220 1.396 . S
C220 H204 0.939 . S
C220 C219 1.396 . S
C220 C221 1.397 . S
C221 C220 1.397 . S
C221 C222 1.385 1_545 S
C222 H205 0.940 . S
C222 C221 1.385 1_565 S
C222 C223 1.388 1_565 S
C223 H202 0.932 1_545 S
C223 C218 1.391 . S
C223 C222 1.388 1_545 S
P224 O235 1.490 . S
P224 C238 1.812 1_554 S
P224 C244 1.803 . S
P224 C250 1.819 . S
H225 C239 0.941 . S
H226 C240 0.939 . S
H227 C242 0.940 . S
H228 C243 0.940 . S
H229 C245 0.939 . S
H230 C246 0.942 . S
H231 C248 0.940 . S
H232 C249 0.939 1_556 S
H233 C251 0.941 . S
H234 C255 0.939 . S
O235 P224 1.490 . S
H236 C252 0.939 . S
H237 C254 0.940 . S
C238 P224 1.812 1_556 S
C238 C239 1.389 . S
C238 C243 1.391 . S
C239 H225 0.941 . S
C239 C238 1.389 . S
C239 C240 1.397 . S
C240 H226 0.939 . S
C240 C239 1.397 . S
C240 C241 1.378 . S
C241 C240 1.378 . S
C241 C242 1.378 . S
C242 H227 0.940 . S
C242 C241 1.378 . S
C242 C243 1.396 . S
C243 H228 0.940 . S
C243 C238 1.391 . S
C243 C242 1.396 . S
C244 P224 1.803 . S
C244 C245 1.378 . S
C244 C249 1.400 . S
C245 H229 0.939 . S
C245 C244 1.378 . S
C245 C246 1.361 . S
C246 H230 0.942 . S
C246 C245 1.361 . S
C246 C247 1.369 . S
C247 C246 1.369 . S
C247 C248 1.404 . S
C248 H231 0.940 . S
C248 C247 1.404 . S
C248 C249 1.389 . S
C249 H232 0.939 1_554 S
C249 C244 1.400 . S
C249 C248 1.389 . S
C250 P224 1.819 . S
C250 C251 1.391 . S
C250 C255 1.391 . S
C251 H233 0.941 . S
C251 C250 1.391 . S
C251 C252 1.396 . S
C252 H236 0.939 . S
C252 C251 1.396 . S
C252 C253 1.397 . S
C253 C252 1.397 . S
C253 C254 1.385 . S
C254 H237 0.940 . S
C254 C253 1.385 . S
C254 C255 1.388 . S
C255 H234 0.939 . S
C255 C250 1.391 . S
C255 C254 1.388 . S
Gd256 C259 2.818 . S
Gd256 O276 2.377 . S
Gd256 O278 2.448 . S
Gd256 O279 2.506 . S
Gd256 O280 2.435 . S
Gd256 O281 2.717 1_565 S
Gd256 O283 2.395 1_565 S
Gd256 O287 2.327 1_455 S
Gd257 C268 2.818 . S
Gd257 O277 2.395 1_545 S
Gd257 O281 2.327 1_655 S
Gd257 O282 2.377 . S
Gd257 O284 2.448 . S
Gd257 O285 2.506 . S
Gd257 O286 2.435 . S
Gd257 O287 2.717 1_545 S
C258 O276 1.240 1_655 S
C258 O277 1.240 . S
C259 Gd256 2.818 . S
C259 C260 1.510 1_556 S
C259 O278 1.249 . S
C259 O279 1.252 . S
C260 C259 1.510 1_554 S
C260 C261 1.404 . S
C260 C262 1.352 . S
C261 C260 1.404 . S
C261 C265 1.389 . S
C261 H288 0.930 1_554 S
C262 C260 1.352 . S
C262 C264 1.374 . S
C262 H289 0.931 1_455 S
C263 C264 1.359 . S
C263 C265 1.364 . S
C264 C262 1.374 . S
C264 C263 1.359 . S
C264 H290 0.931 . S
C265 C261 1.389 . S
C265 C263 1.364 . S
C265 H291 0.931 . S
C266 O280 1.256 . S
C266 O281 1.257 1_565 S
C267 O282 1.240 1_455 S
C267 O283 1.240 . S
C268 Gd257 2.818 . S
C268 C269 1.510 . S
C268 O284 1.249 . S
C268 O285 1.252 . S
C269 C268 1.510 . S
C269 C270 1.404 . S
C269 C271 1.352 . S
C270 C269 1.404 . S
C270 C274 1.389 . S
C270 H292 0.930 . S
C271 C269 1.352 . S
C271 C273 1.374 . S
C271 H293 0.931 1_655 S
C272 C273 1.359 . S
C272 C274 1.364 . S
C273 C271 1.374 . S
C273 C272 1.359 . S
C273 H294 0.931 . S
C274 C270 1.389 . S
C274 C272 1.364 . S
C274 H295 0.931 . S
C275 O286 1.256 . S
C275 O287 1.257 1_545 S
O276 Gd256 2.377 . S
O276 C258 1.240 1_455 S
O277 Gd257 2.395 1_565 S
O277 C258 1.240 . S
O278 Gd256 2.448 . S
O278 C259 1.249 . S
O279 Gd256 2.506 . S
O279 C259 1.252 . S
O280 Gd256 2.435 . S
O280 C266 1.256 . S
O281 Gd256 2.717 1_545 S
O281 Gd257 2.327 1_455 S
O281 C266 1.257 1_545 S
O282 Gd257 2.377 . S
O282 C267 1.240 1_655 S
O283 Gd256 2.395 1_545 S
O283 C267 1.240 . S
O284 Gd257 2.448 . S
O284 C268 1.249 . S
O285 Gd257 2.506 . S
O285 C268 1.252 . S
O286 Gd257 2.435 . S
O286 C275 1.256 . S
O287 Gd256 2.327 1_655 S
O287 Gd257 2.717 1_565 S
O287 C275 1.257 1_565 S
H288 C261 0.930 1_556 S
H289 C262 0.931 1_655 S
H290 C264 0.931 . S
H291 C265 0.931 . S
H292 C270 0.930 . S
H293 C271 0.931 1_455 S
H294 C273 0.931 . S
H295 C274 0.931 . S
Gd296 C299 2.818 . S
Gd296 O316 2.377 . S
Gd296 O318 2.448 . S
Gd296 O319 2.506 . S
Gd296 O320 2.435 . S
Gd296 O321 2.717 . S
Gd296 O323 2.395 . S
Gd296 O327 2.327 1_545 S
Gd297 C308 2.818 . S
Gd297 O317 2.395 . S
Gd297 O321 2.327 1_565 S
Gd297 O322 2.377 . S
Gd297 O324 2.448 . S
Gd297 O325 2.506 . S
Gd297 O326 2.435 . S
Gd297 O327 2.717 . S
C298 O316 1.240 1_565 S
C298 O317 1.240 . S
C299 Gd296 2.818 . S
C299 C300 1.510 1_556 S
C299 O318 1.249 . S
C299 O319 1.252 . S
C300 C299 1.510 1_554 S
C300 C301 1.404 . S
C300 C302 1.352 . S
C301 C300 1.404 . S
C301 C305 1.389 . S
C301 H328 0.930 1_554 S
C302 C300 1.352 . S
C302 C304 1.374 . S
C302 H329 0.931 1_545 S
C303 C304 1.359 . S
C303 C305 1.364 . S
C304 C302 1.374 . S
C304 C303 1.359 . S
C304 H330 0.931 . S
C305 C301 1.389 . S
C305 C303 1.364 . S
C305 H331 0.931 . S
C306 O320 1.256 . S
C306 O321 1.257 . S
C307 O322 1.240 1_545 S
C307 O323 1.240 . S
C308 Gd297 2.818 . S
C308 C309 1.510 . S
C308 O324 1.249 . S
C308 O325 1.252 . S
C309 C308 1.510 . S
C309 C310 1.404 . S
C309 C311 1.352 . S
C310 C309 1.404 . S
C310 C314 1.389 . S
C310 H332 0.930 . S
C311 C309 1.352 . S
C311 C313 1.374 . S
C311 H333 0.931 1_565 S
C312 C313 1.359 . S
C312 C314 1.364 . S
C313 C311 1.374 . S
C313 C312 1.359 . S
C313 H334 0.931 . S
C314 C310 1.389 . S
C314 C312 1.364 . S
C314 H335 0.931 . S
C315 O326 1.256 . S
C315 O327 1.257 . S
O316 Gd296 2.377 . S
O316 C298 1.240 1_545 S
O317 Gd297 2.395 . S
O317 C298 1.240 . S
O318 Gd296 2.448 . S
O318 C299 1.249 . S
O319 Gd296 2.506 . S
O319 C299 1.252 . S
O320 Gd296 2.435 . S
O320 C306 1.256 . S
O321 Gd296 2.717 . S
O321 Gd297 2.327 1_545 S
O321 C306 1.257 . S
O322 Gd297 2.377 . S
O322 C307 1.240 1_565 S
O323 Gd296 2.395 . S
O323 C307 1.240 . S
O324 Gd297 2.448 . S
O324 C308 1.249 . S
O325 Gd297 2.506 . S
O325 C308 1.252 . S
O326 Gd297 2.435 . S
O326 C315 1.256 . S
O327 Gd296 2.327 1_565 S
O327 Gd297 2.717 . S
O327 C315 1.257 . S
H328 C301 0.930 1_556 S
H329 C302 0.931 1_565 S
H330 C304 0.931 . S
H331 C305 0.931 . S
H332 C310 0.930 . S
H333 C311 0.931 1_545 S
H334 C313 0.931 . S
H335 C314 0.931 . S
Gd336 C339 2.818 . S
Gd336 O356 2.377 . S
Gd336 O358 2.448 . S
Gd336 O359 2.506 . S
Gd336 O360 2.435 . S
Gd336 O361 2.717 . S
Gd336 O363 2.395 . S
Gd336 O367 2.327 . S
Gd337 C348 2.818 . S
Gd337 O357 2.395 . S
Gd337 O361 2.327 . S
Gd337 O362 2.377 . S
Gd337 O364 2.448 . S
Gd337 O365 2.506 . S
Gd337 O366 2.435 . S
Gd337 O367 2.717 . S
C338 O356 1.240 . S
C338 O357 1.240 . S
C339 Gd336 2.818 . S
C339 C340 1.510 1_556 S
C339 O358 1.249 . S
C339 O359 1.252 . S
C340 C339 1.510 1_554 S
C340 C341 1.404 . S
C340 C342 1.352 . S
C341 C340 1.404 . S
C341 C345 1.389 . S
C341 H368 0.930 1_554 S
C342 C340 1.352 . S
C342 C344 1.374 . S
C342 H369 0.931 . S
C343 C344 1.359 . S
C343 C345 1.364 . S
C344 C342 1.374 . S
C344 C343 1.359 . S
C344 H370 0.931 . S
C345 C341 1.389 . S
C345 C343 1.364 . S
C345 H371 0.931 . S
C346 O360 1.256 . S
C346 O361 1.257 . S
C347 O362 1.240 . S
C347 O363 1.240 . S
C348 Gd337 2.818 . S
C348 C349 1.510 . S
C348 O364 1.249 . S
C348 O365 1.252 . S
C349 C348 1.510 . S
C349 C350 1.404 . S
C349 C351 1.352 . S
C350 C349 1.404 . S
C350 C354 1.389 . S
C350 H372 0.930 . S
C351 C349 1.352 . S
C351 C353 1.374 . S
C351 H373 0.931 . S
C352 C353 1.359 . S
C352 C354 1.364 . S
C353 C351 1.374 . S
C353 C352 1.359 . S
C353 H374 0.931 . S
C354 C350 1.389 . S
C354 C352 1.364 . S
C354 H375 0.931 . S
C355 O366 1.256 . S
C355 O367 1.257 . S
O356 Gd336 2.377 . S
O356 C338 1.240 . S
O357 Gd337 2.395 . S
O357 C338 1.240 . S
O358 Gd336 2.448 . S
O358 C339 1.249 . S
O359 Gd336 2.506 . S
O359 C339 1.252 . S
O360 Gd336 2.435 . S
O360 C346 1.256 . S
O361 Gd336 2.717 . S
O361 Gd337 2.327 . S
O361 C346 1.257 . S
O362 Gd337 2.377 . S
O362 C347 1.240 . S
O363 Gd336 2.395 . S
O363 C347 1.240 . S
O364 Gd337 2.448 . S
O364 C348 1.249 . S
O365 Gd337 2.506 . S
O365 C348 1.252 . S
O366 Gd337 2.435 . S
O366 C355 1.256 . S
O367 Gd336 2.327 . S
O367 Gd337 2.717 . S
O367 C355 1.257 . S
H368 C341 0.930 1_556 S
H369 C342 0.931 . S
H370 C344 0.931 . S
H371 C345 0.931 . S
H372 C350 0.930 . S
H373 C351 0.931 . S
H374 C353 0.931 . S
H375 C354 0.931 . S
Gd376 C379 2.818 . S
Gd376 O396 2.377 . S
Gd376 O398 2.448 . S
Gd376 O399 2.506 . S
Gd376 O400 2.435 . S
Gd376 O401 2.717 1_655 S
Gd376 O403 2.395 1_655 S
Gd376 O407 2.327 . S
Gd377 C388 2.818 . S
Gd377 O397 2.395 1_455 S
Gd377 O401 2.327 . S
Gd377 O402 2.377 . S
Gd377 O404 2.448 . S
Gd377 O405 2.506 . S
Gd377 O406 2.435 . S
Gd377 O407 2.717 1_455 S
C378 O396 1.240 . S
C378 O397 1.240 . S
C379 Gd376 2.818 . S
C379 C380 1.510 1_556 S
C379 O398 1.249 . S
C379 O399 1.252 . S
C380 C379 1.510 1_554 S
C380 C381 1.404 . S
C380 C382 1.352 . S
C381 C380 1.404 . S
C381 C385 1.389 . S
C381 H408 0.930 1_554 S
C382 C380 1.352 . S
C382 C384 1.374 . S
C382 H409 0.931 . S
C383 C384 1.359 . S
C383 C385 1.364 . S
C384 C382 1.374 . S
C384 C383 1.359 . S
C384 H410 0.931 . S
C385 C381 1.389 . S
C385 C383 1.364 . S
C385 H411 0.931 . S
C386 O400 1.270 . S
C386 O401 1.250 1_655 S
C387 O402 1.240 . S
C387 O403 1.240 . S
C388 Gd377 2.818 . S
C388 C389 1.510 . S
C388 O404 1.249 . S
C388 O405 1.252 . S
C389 C388 1.510 . S
C389 C390 1.404 . S
C389 C391 1.352 . S
C390 C389 1.404 . S
C390 C394 1.389 . S
C390 H412 0.930 . S
C391 C389 1.352 . S
C391 C393 1.374 . S
C391 H413 0.931 . S
C392 C393 1.359 . S
C392 C394 1.364 . S
C393 C391 1.374 . S
C393 C392 1.359 . S
C393 H414 0.931 . S
C394 C390 1.389 . S
C394 C392 1.364 . S
C394 H415 0.931 . S
C395 O406 1.274 . S
C395 O407 1.248 1_455 S
O396 Gd376 2.377 . S
O396 C378 1.240 . S
O397 Gd377 2.395 1_655 S
O397 C378 1.240 . S
O398 Gd376 2.448 . S
O398 C379 1.249 . S
O399 Gd376 2.506 . S
O399 C379 1.252 . S
O400 Gd376 2.435 . S
O400 C386 1.270 . S
O401 Gd376 2.717 1_455 S
O401 Gd377 2.327 . S
O401 C386 1.250 1_455 S
O402 Gd377 2.377 . S
O402 C387 1.240 . S
O403 Gd376 2.395 1_455 S
O403 C387 1.240 . S
O404 Gd377 2.448 . S
O404 C388 1.249 . S
O405 Gd377 2.506 . S
O405 C388 1.252 . S
O406 Gd377 2.435 . S
O406 C395 1.274 . S
O407 Gd376 2.327 . S
O407 Gd377 2.717 1_655 S
O407 C395 1.248 1_655 S
H408 C381 0.930 1_556 S
H409 C382 0.931 . S
H410 C384 0.931 . S
H411 C385 0.931 . S
H412 C390 0.930 . S
H413 C391 0.931 . S
H414 C393 0.931 . S
H415 C394 0.931 . S
C416 C417 1.363 1_565 S
C416 H420 0.950 . S
C416 C425 1.390 . S
C417 C416 1.363 1_545 S
C417 C419 1.412 . S
H418 C425 0.950 . S
C419 C417 1.412 . S
C419 C421 1.390 . S
C419 H423 0.950 . S
H420 C416 0.950 . S
C421 C419 1.390 . S
C421 C422 1.387 . S
C421 H424 0.950 . S
C422 C421 1.387 . S
C422 C425 1.387 1_545 S
H423 C419 0.950 . S
H424 C421 0.950 . S
C425 C416 1.390 . S
C425 H418 0.950 . S
C425 C422 1.387 1_565 S
C426 C427 1.387 . S
C426 H430 0.950 . S
C426 C435 1.390 . S
C427 C426 1.387 . S
C427 C429 1.387 . S
H428 C435 0.950 . S
C429 C427 1.387 . S
C429 C431 1.390 . S
C429 H433 0.950 . S
H430 C426 0.950 . S
C431 C429 1.390 . S
C431 C432 1.387 . S
C431 H434 0.950 . S
C432 C431 1.387 . S
C432 C435 1.387 . S
H433 C429 0.950 . S
H434 C431 0.950 . S
C435 C426 1.390 . S
C435 H428 0.950 . S
C435 C432 1.387 . S
C436 C437 1.387 . S
C436 H440 0.950 . S
C436 C445 1.390 . S
C437 C436 1.387 . S
C437 C439 1.387 . S
H438 C445 0.950 . S
C439 C437 1.387 . S
C439 C441 1.390 . S
C439 H443 0.950 . S
H440 C436 0.950 . S
C441 C439 1.390 . S
C441 C442 1.387 . S
C441 H444 0.950 . S
C442 C441 1.387 . S
C442 C445 1.387 . S
H443 C439 0.950 . S
H444 C441 0.950 . S
C445 C436 1.390 . S
C445 H438 0.950 . S
C445 C442 1.387 . S
C446 C447 1.367 1_655 S
C446 H450 0.950 . S
C446 C455 1.390 . S
C447 C446 1.367 1_455 S
C447 C449 1.409 . S
H448 C455 0.950 . S
C449 C447 1.409 . S
C449 C451 1.390 . S
C449 H453 0.950 . S
H450 C446 0.950 . S
C451 C449 1.390 . S
C451 C452 1.387 . S
C451 H454 0.950 . S
C452 C451 1.387 . S
C452 C455 1.387 1_455 S
H453 C449 0.950 . S
H454 C451 0.950 . S
C455 C446 1.390 . S
C455 H448 0.950 . S
C455 C452 1.387 1_655 S
C456 C457 1.405 . S
C456 H460 0.950 . S
C456 C465 1.390 . S
C457 C456 1.405 . S
C457 C459 1.371 1_565 S
H458 C465 0.950 . S
C459 C457 1.371 1_545 S
C459 C461 1.390 . S
C459 H463 0.950 . S
H460 C456 0.950 . S
C461 C459 1.390 . S
C461 C462 1.387 1_545 S
C461 H464 0.950 . S
C462 C461 1.387 1_565 S
C462 C465 1.387 . S
H463 C459 0.950 . S
H464 C461 0.950 . S
C465 C456 1.390 . S
C465 H458 0.950 . S
C465 C462 1.387 . S
C466 C467 1.387 . S
C466 H470 0.950 . S
C466 C475 1.390 . S
C467 C466 1.387 . S
C467 C469 1.387 . S
H468 C475 0.950 . S
C469 C467 1.387 . S
C469 C471 1.390 . S
C469 H473 0.950 . S
H470 C466 0.950 . S
C471 C469 1.390 . S
C471 C472 1.387 . S
C471 H474 0.950 . S
C472 C471 1.387 . S
C472 C475 1.387 . S
H473 C469 0.950 . S
H474 C471 0.950 . S
C475 C466 1.390 . S
C475 H468 0.950 . S
C475 C472 1.387 . S
C476 C477 1.387 . S
C476 H480 0.950 . S
C476 C485 1.390 . S
C477 C476 1.387 . S
C477 C479 1.387 . S
H478 C485 0.950 . S
C479 C477 1.387 . S
C479 C481 1.390 . S
C479 H483 0.950 . S
H480 C476 0.950 . S
C481 C479 1.390 . S
C481 C482 1.387 . S
C481 H484 0.950 . S
C482 C481 1.387 . S
C482 C485 1.387 . S
H483 C479 0.950 . S
H484 C481 0.950 . S
C485 C476 1.390 . S
C485 H478 0.950 . S
C485 C482 1.387 . S
C486 C487 1.355 1_455 S
C486 H490 0.950 . S
C486 C495 1.390 . S
C487 C486 1.355 1_655 S
C487 C489 1.421 . S
H488 C495 0.950 . S
C489 C487 1.421 . S
C489 C491 1.390 . S
C489 H493 0.950 . S
H490 C486 0.950 . S
C491 C489 1.390 . S
C491 C492 1.387 . S
C491 H494 0.950 . S
C492 C491 1.387 . S
C492 C495 1.387 1_655 S
H493 C489 0.950 . S
H494 C491 0.950 . S
C495 C486 1.390 . S
C495 H488 0.950 . S
C495 C492 1.387 1_455 S
C496 C497 1.387 . S
C496 H500 0.950 . S
C496 C505 1.390 . S
C497 C496 1.387 . S
C497 C499 1.387 . S
H498 C505 0.950 . S
C499 C497 1.387 . S
C499 C501 1.390 . S
C499 H503 0.950 . S
H500 C496 0.950 . S
C501 C499 1.390 . S
C501 C502 1.387 . S
C501 H504 0.950 . S
C502 C501 1.387 . S
C502 C505 1.387 . S
H503 C499 0.950 . S
H504 C501 0.950 . S
C505 C496 1.390 . S
C505 H498 0.950 . S
C505 C502 1.387 . S
C506 C507 1.387 . S
C506 H510 0.950 . S
C506 C515 1.390 . S
C507 C506 1.387 . S
C507 C509 1.387 . S
H508 C515 0.950 . S
C509 C507 1.387 . S
C509 C511 1.390 . S
C509 H513 0.950 1_565 S
H510 C506 0.950 . S
C511 C509 1.390 . S
C511 C512 1.387 . S
C511 H514 0.950 . S
C512 C511 1.387 . S
C512 C515 1.387 . S
H513 C509 0.950 1_545 S
H514 C511 0.950 . S
C515 C506 1.390 . S
C515 H508 0.950 . S
C515 C512 1.387 . S
C516 C517 1.387 . S
C516 H520 0.950 . S
C516 C525 1.390 . S
C517 C516 1.387 . S
C517 C519 1.387 . S
H518 C525 0.950 . S
C519 C517 1.387 . S
C519 C521 1.390 . S
C519 H523 0.950 . S
H520 C516 0.950 . S
C521 C519 1.390 . S
C521 C522 1.387 . S
C521 H524 0.950 . S
C522 C521 1.387 . S
C522 C525 1.387 . S
H523 C519 0.950 . S
H524 C521 0.950 . S
C525 C516 1.390 . S
C525 H518 0.950 . S
C525 C522 1.387 . S
C526 C527 1.387 . S
C526 H530 0.950 . S
C526 C535 1.390 . S
C527 C526 1.387 . S
C527 C529 1.387 . S
H528 C535 0.950 . S
C529 C527 1.387 . S
C529 C531 1.390 . S
C529 H533 0.950 . S
H530 C526 0.950 . S
C531 C529 1.390 . S
C531 C532 1.387 . S
C531 H534 0.950 . S
C532 C531 1.387 . S
C532 C535 1.387 . S
H533 C529 0.950 . S
H534 C531 0.950 . S
C535 C526 1.390 . S
C535 H528 0.950 . S
C535 C532 1.387 . S
C536 C537 1.387 . S
C536 H540 0.950 . S
C536 C545 1.390 . S
C537 C536 1.387 . S
C537 C539 1.387 . S
H538 C545 0.950 . S
C539 C537 1.387 . S
C539 C541 1.390 . S
C539 H543 0.951 . S
H540 C536 0.950 . S
C541 C539 1.390 . S
C541 C542 1.387 . S
C541 H544 0.950 1_554 S
C542 C541 1.387 . S
C542 C545 1.387 . S
H543 C539 0.951 . S
H544 C541 0.950 1_556 S
C545 C536 1.390 . S
C545 H538 0.950 . S
C545 C542 1.387 . S
C546 C547 1.387 1_565 S
C546 H550 0.950 . S
C546 C555 1.390 1_565 S
C547 C546 1.387 1_545 S
C547 C549 1.387 . S
H548 C555 0.950 . S
C549 C547 1.387 . S
C549 C551 1.390 . S
C549 H553 0.950 . S
H550 C546 0.950 . S
C551 C549 1.390 . S
C551 C552 1.387 . S
C551 H554 0.950 . S
C552 C551 1.387 . S
C552 C555 1.387 . S
H553 C549 0.950 . S
H554 C551 0.950 . S
C555 C546 1.390 1_545 S
C555 H548 0.950 . S
C555 C552 1.387 . S
C556 C557 1.387 . S
C556 H560 0.950 . S
C556 C565 1.390 . S
C557 C556 1.387 . S
C557 C559 1.387 . S
H558 C565 0.950 . S
C559 C557 1.387 . S
C559 C561 1.390 . S
C559 H563 0.950 . S
H560 C556 0.950 . S
C561 C559 1.390 . S
C561 C562 1.387 . S
C561 H564 0.950 . S
C562 C561 1.387 . S
C562 C565 1.387 . S
H563 C559 0.950 . S
H564 C561 0.950 . S
C565 C556 1.390 . S
C565 H558 0.950 . S
C565 C562 1.387 . S
C566 C567 1.387 . S
C566 H570 0.950 . S
C566 C575 1.390 . S
C567 C566 1.387 . S
C567 C569 1.387 . S
H568 C575 0.950 . S
C569 C567 1.387 . S
C569 C571 1.390 . S
C569 H573 0.950 . S
H570 C566 0.950 . S
C571 C569 1.390 . S
C571 C572 1.387 . S
C571 H574 0.950 . S
C572 C571 1.387 . S
C572 C575 1.387 . S
H573 C569 0.950 . S
H574 C571 0.950 . S
C575 C566 1.390 . S
C575 H568 0.950 . S
C575 C572 1.387 . S
C576 C577 1.387 . S
C576 H580 0.950 . S
C576 C585 1.390 . S
C577 C576 1.387 . S
C577 C579 1.387 1_455 S
H578 C585 0.950 . S
C579 C577 1.387 1_655 S
C579 C581 1.390 . S
C579 H583 0.950 . S
H580 C576 0.950 . S
C581 C579 1.390 . S
C581 C582 1.387 1_655 S
C581 H584 0.950 . S
C582 C581 1.387 1_455 S
C582 C585 1.387 . S
H583 C579 0.950 . S
H584 C581 0.950 . S
C585 C576 1.390 . S
C585 H578 0.950 . S
C585 C582 1.387 . S
C586 C587 1.387 1_565 S
C586 H590 0.950 . S
C586 C595 1.390 . S
C587 C586 1.387 1_545 S
C587 C589 1.387 . S
H588 C595 0.950 . S
C589 C587 1.387 . S
C589 C591 1.390 . S
C589 H593 0.950 . S
H590 C586 0.950 . S
C591 C589 1.390 . S
C591 C592 1.387 . S
C591 H594 0.950 . S
C592 C591 1.387 . S
C592 C595 1.387 1_545 S
H593 C589 0.950 . S
H594 C591 0.950 . S
C595 C586 1.390 . S
C595 H588 0.950 . S
C595 C592 1.387 1_565 S
C596 C597 1.387 . S
C596 H600 0.950 . S
C596 C605 1.390 . S
C597 C596 1.387 . S
C597 C599 1.387 . S
H598 C605 0.950 . S
C599 C597 1.387 . S
C599 C601 1.390 . S
C599 H603 0.950 . S
H600 C596 0.950 . S
C601 C599 1.390 . S
C601 C602 1.387 . S
C601 H604 0.950 . S
C602 C601 1.387 . S
C602 C605 1.387 . S
H603 C599 0.950 . S
H604 C601 0.950 . S
C605 C596 1.390 . S
C605 H598 0.950 . S
C605 C602 1.387 . S
C606 C607 1.387 . S
C606 H610 0.950 . S
C606 C615 1.390 . S
C607 C606 1.387 . S
C607 C609 1.387 . S
H608 C615 0.950 . S
C609 C607 1.387 . S
C609 C611 1.390 . S
C609 H613 0.950 . S
H610 C606 0.950 . S
C611 C609 1.390 . S
C611 C612 1.387 . S
C611 H614 0.950 . S
C612 C611 1.387 . S
C612 C615 1.387 . S
H613 C609 0.950 . S
H614 C611 0.950 . S
C615 C606 1.390 . S
C615 H608 0.950 . S
C615 C612 1.387 . S
C616 C617 1.387 1_455 S
C616 H620 0.950 . S
C616 C625 1.390 . S
C617 C616 1.387 1_655 S
C617 C619 1.387 . S
H618 C625 0.950 . S
C619 C617 1.387 . S
C619 C621 1.390 . S
C619 H623 0.950 . S
H620 C616 0.950 . S
C621 C619 1.390 . S
C621 C622 1.387 . S
C621 H624 0.950 . S
C622 C621 1.387 . S
C622 C625 1.387 1_655 S
H623 C619 0.950 . S
H624 C621 0.950 . S
C625 C616 1.390 . S
C625 H618 0.950 . S
C625 C622 1.387 1_455 S
C626 C627 1.387 . S
C626 H630 0.950 . S
C626 C635 1.390 . S
C627 C626 1.387 . S
C627 C629 1.387 1_565 S
H628 C635 0.950 . S
C629 C627 1.387 1_545 S
C629 C631 1.390 . S
C629 H633 0.950 . S
H630 C626 0.950 . S
C631 C629 1.390 . S
C631 C632 1.387 1_545 S
C631 H634 0.950 . S
C632 C631 1.387 1_565 S
C632 C635 1.387 . S
H633 C629 0.950 . S
H634 C631 0.950 . S
C635 C626 1.390 . S
C635 H628 0.950 . S
C635 C632 1.387 . S
C636 C637 1.387 . S
C636 H640 0.950 . S
C636 C645 1.390 . S
C637 C636 1.387 . S
C637 C639 1.387 . S
H638 C645 0.950 . S
C639 C637 1.387 . S
C639 C641 1.390 . S
C639 H643 0.950 . S
H640 C636 0.950 . S
C641 C639 1.390 . S
C641 C642 1.387 . S
C641 H644 0.950 . S
C642 C641 1.387 . S
C642 C645 1.387 . S
H643 C639 0.950 . S
H644 C641 0.950 . S
C645 C636 1.390 . S
C645 H638 0.950 . S
C645 C642 1.387 . S
C646 C647 1.387 . S
C646 H650 0.950 . S
C646 C655 1.390 . S
C647 C646 1.387 . S
C647 C649 1.387 . S
H648 C655 0.950 . S
C649 C647 1.387 . S
C649 C651 1.390 . S
C649 H653 0.950 . S
H650 C646 0.950 . S
C651 C649 1.390 . S
C651 C652 1.387 . S
C651 H654 0.950 . S
C652 C651 1.387 . S
C652 C655 1.387 . S
H653 C649 0.950 . S
H654 C651 0.950 . S
C655 C646 1.390 . S
C655 H648 0.950 . S
C655 C652 1.387 . S
C417 C215 2.330 . S
C422 C266 2.610 1_545 S
C432 C306 2.617 . S
C427 C247 2.325 . S
C442 C346 2.620 . S
C437 C151 2.328 . S
C452 C386 2.612 1_455 S
C447 C183 2.333 . S
C462 C275 2.611 1_564 S
C457 C87 2.332 1_565 S
C467 C119 2.348 . S
C472 C315 2.619 1_554 S
C477 C23 2.356 . S
C482 C355 2.621 1_554 S
C487 C55 2.331 1_655 S
C492 C395 2.611 1_654 S
C502 C272 0.825 . S
C497 C189 0.869 1_655 S
C512 C312 0.815 . S
C507 C221 0.865 1_565 S
C522 C352 0.803 . S
C517 C253 0.844 . S
C527 C157 0.848 . S
C532 C392 0.801 . S
C537 C61 0.804 . S
C542 C263 0.828 . S
C552 C303 0.818 . S
C547 C93 0.796 . S
C562 C343 0.812 . S
C557 C125 0.797 . S
C567 C29 0.790 . S
C572 C383 0.811 . S
C577 C177 2.822 . S
C582 C267 3.259 . S
C587 C209 2.802 . S
C592 C307 3.246 . S
C602 C347 3.242 . S
C597 C241 2.792 . S
C612 C387 3.258 . S
C607 C145 2.804 . S
C617 C49 2.868 1_655 S
C622 C258 3.267 . S
C632 C298 3.246 . S
C627 C81 2.848 1_565 S
C642 C338 3.242 . S
C637 C113 2.854 . S
C647 C17 2.868 . S
C652 C378 3.263 . S
