# Generated by pormake.
# Topology pyr, (3,6)-cn, num edge types: 1
# Building blocks:
#     Node 0, Type 0, BuildingBlock: ESEHIV_clean_linker_0, # of connection points: 3
#     Node 1, Type 0, BuildingBlock: ESEHIV_clean_linker_0, # of connection points: 3
#     Node 2, Type 0, BuildingBlock: ESEHIV_clean_linker_0, # of connection points: 3
#     Node 3, Type 0, BuildingBlock: ESEHIV_clean_linker_0, # of connection points: 3
#     Node 4, Type 0, BuildingBlock: ESEHIV_clean_linker_0, # of connection points: 3
#     Node 5, Type 0, BuildingBlock: ESEHIV_clean_linker_0, # of connection points: 3
#     Node 6, Type 0, BuildingBlock: ESEHIV_clean_linker_0, # of connection points: 3
#     Node 7, Type 0, BuildingBlock: ESEHIV_clean_linker_0, # of connection points: 3
#     Node 8, Type 1, BuildingBlock: BETGAK_clean_sbu_0, # of connection points: 6
#     Node 9, Type 1, BuildingBlock: BETGAK_clean_sbu_0, # of connection points: 6
#     Node 10, Type 1, BuildingBlock: BETGAK_clean_sbu_0, # of connection points: 6
#     Node 11, Type 1, BuildingBlock: BETGAK_clean_sbu_0, # of connection points: 6
#     Edge 12, Type (0, 1), BuildingBlock: ZUJKAS_clean_linker_0, # of connection points: 2
#     Edge 13, Type (0, 1), BuildingBlock: ZUJKAS_clean_linker_0, # of connection points: 2
#     Edge 14, Type (0, 1), BuildingBlock: ZUJKAS_clean_linker_0, # of connection points: 2
#     Edge 15, Type (0, 1), BuildingBlock: ZUJKAS_clean_linker_0, # of connection points: 2
#     Edge 16, Type (0, 1), BuildingBlock: ZUJKAS_clean_linker_0, # of connection points: 2
#     Edge 17, Type (0, 1), BuildingBlock: ZUJKAS_clean_linker_0, # of connection points: 2
#     Edge 18, Type (0, 1), BuildingBlock: ZUJKAS_clean_linker_0, # of connection points: 2
#     Edge 19, Type (0, 1), BuildingBlock: ZUJKAS_clean_linker_0, # of connection points: 2
#     Edge 20, Type (0, 1), BuildingBlock: ZUJKAS_clean_linker_0, # of connection points: 2
#     Edge 21, Type (0, 1), BuildingBlock: ZUJKAS_clean_linker_0, # of connection points: 2
#     Edge 22, Type (0, 1), BuildingBlock: ZUJKAS_clean_linker_0, # of connection points: 2
#     Edge 23, Type (0, 1), BuildingBlock: ZUJKAS_clean_linker_0, # of connection points: 2
#     Edge 24, Type (0, 1), BuildingBlock: ZUJKAS_clean_linker_0, # of connection points: 2
#     Edge 25, Type (0, 1), BuildingBlock: ZUJKAS_clean_linker_0, # of connection points: 2
#     Edge 26, Type (0, 1), BuildingBlock: ZUJKAS_clean_linker_0, # of connection points: 2
#     Edge 27, Type (0, 1), BuildingBlock: ZUJKAS_clean_linker_0, # of connection points: 2
#     Edge 28, Type (0, 1), BuildingBlock: ZUJKAS_clean_linker_0, # of connection points: 2
#     Edge 29, Type (0, 1), BuildingBlock: ZUJKAS_clean_linker_0, # of connection points: 2
#     Edge 30, Type (0, 1), BuildingBlock: ZUJKAS_clean_linker_0, # of connection points: 2
#     Edge 31, Type (0, 1), BuildingBlock: ZUJKAS_clean_linker_0, # of connection points: 2
#     Edge 32, Type (0, 1), BuildingBlock: ZUJKAS_clean_linker_0, # of connection points: 2
#     Edge 33, Type (0, 1), BuildingBlock: ZUJKAS_clean_linker_0, # of connection points: 2
#     Edge 34, Type (0, 1), BuildingBlock: ZUJKAS_clean_linker_0, # of connection points: 2
#     Edge 35, Type (0, 1), BuildingBlock: ZUJKAS_clean_linker_0, # of connection points: 2
# Relax obj value: 0.093
# Max RMSD: 0.120
# Mean RMSD: 0.056
data_MOF--net-pyr--node1-BETGAK_clean_sbu_0--node2-ESEHIV_clean_linker_0--edge1-ZUJKAS_clean_linker_0
_symmetry_space_group_name_H-M    P1
_symmetry_Int_Tables_number       1
_symmetry_cell_setting            triclinic
loop_
_symmetry_equiv_pos_as_xyz
'x, y, z'
_cell_length_a     46.984804
_cell_length_b     49.321454
_cell_length_c     44.64473
_cell_angle_alpha  90.550591
_cell_angle_beta   88.876219
_cell_angle_gamma 101.86219
loop_
_atom_site_label
_atom_site_type_symbol
_atom_site_fract_x
_atom_site_fract_y
_atom_site_fract_z
_atom_type_partial_charge
H0 H 0.30836 0.3257 0.25597 0.0
H1 H 0.35824 0.26297 0.26685 0.0
H2 H 0.34769 0.29432 0.17899 0.0
C3 C 0.32231 0.31275 0.24646 0.0
C4 C 0.32759 0.31293 0.21539 0.0
C5 C 0.33249 0.29421 0.26508 0.0
C6 C 0.35024 0.27723 0.25255 0.0
C7 C 0.3559 0.2769 0.22148 0.0
C8 C 0.34451 0.29499 0.20306 0.0
H9 H 0.26622 0.86032 0.67041 0.0
H10 H 0.32108 0.80744 0.6354 0.0
H11 H 0.26291 0.83759 0.57703 0.0
C12 C 0.27292 0.84852 0.65192 0.0
C13 C 0.26166 0.85056 0.62332 0.0
C14 C 0.29432 0.83298 0.65642 0.0
C15 C 0.30409 0.81898 0.6321 0.0
C16 C 0.29285 0.82059 0.60338 0.0
C17 C 0.27163 0.83637 0.59916 0.0
H18 H 0.68906 0.35413 0.90057 0.0
H19 H 0.69296 0.42139 0.83901 0.0
H20 H 0.62408 0.34891 0.83297 0.0
C21 C 0.67994 0.36339 0.8821 0.0
C22 C 0.65466 0.3484 0.86846 0.0
C23 C 0.69413 0.38969 0.87171 0.0
C24 C 0.68241 0.40108 0.84706 0.0
C25 C 0.6572 0.38661 0.83269 0.0
C26 C 0.6437 0.36006 0.84343 0.0
H27 H 0.84339 0.72182 0.39778 0.0
H28 H 0.91151 0.72619 0.33133 0.0
H29 H 0.84214 0.65365 0.33687 0.0
C30 C 0.85312 0.71246 0.3792 0.0
C31 C 0.83945 0.68603 0.36882 0.0
C32 C 0.87923 0.72703 0.3661 0.0
C33 C 0.89177 0.71473 0.34184 0.0
C34 C 0.8784 0.68832 0.33045 0.0
C35 C 0.85224 0.67425 0.34441 0.0
H36 H 0.68844 0.82426 0.82535 0.0
H37 H 0.73417 0.75784 0.83296 0.0
H38 H 0.69386 0.78672 0.91102 0.0
C39 C 0.69513 0.8085 0.83867 0.0
C40 C 0.68796 0.80673 0.86941 0.0
C41 C 0.71234 0.79139 0.82544 0.0
C42 C 0.72123 0.77143 0.84312 0.0
C43 C 0.7152 0.76986 0.87408 0.0
C44 C 0.69793 0.78718 0.88703 0.0
H45 H 0.68401 0.22298 0.46392 0.0
H46 H 0.73581 0.16401 0.43869 0.0
H47 H 0.76637 0.22625 0.50555 0.0
C48 C 0.70364 0.21489 0.4662 0.0
C49 C 0.72462 0.22694 0.48698 0.0
C50 C 0.70755 0.19215 0.44879 0.0
C51 C 0.73283 0.18164 0.45216 0.0
C52 C 0.75439 0.19384 0.47234 0.0
C53 C 0.74993 0.21638 0.49003 0.0
H54 H 0.34316 0.73442 0.17721 0.0
H55 H 0.34268 0.66697 0.23759 0.0
H56 H 0.41118 0.73999 0.2415 0.0
C57 C 0.35297 0.72541 0.19537 0.0
C58 C 0.37867 0.7406 0.20804 0.0
C59 C 0.33979 0.69878 0.20565 0.0
C60 C 0.35274 0.68736 0.22942 0.0
C61 C 0.37855 0.70192 0.24273 0.0
C62 C 0.39134 0.72858 0.2317 0.0
H63 H 0.13107 0.35766 0.74328 0.0
H64 H 0.20008 0.36155 0.67773 0.0
H65 H 0.20277 0.42821 0.74077 0.0
C66 C 0.15167 0.36835 0.7338 0.0
C67 C 0.16531 0.39452 0.74555 0.0
C68 C 0.16384 0.35632 0.70905 0.0
C69 C 0.19012 0.37088 0.69616 0.0
C70 C 0.20426 0.39691 0.7072 0.0
C71 C 0.19179 0.40833 0.73205 0.0
La72 La 0.03984 0.05091 0.51397 0.0
La73 La 1.00852 1.02738 0.56946 0.0
C74 C 0.05792 0.0705 0.46382 0.0
C75 C 0.08203 0.09345 0.45527 0.0
C76 C 0.10536 0.08771 0.43798 0.0
C77 C 0.12999 0.10838 0.43249 0.0
C78 C 0.13156 0.13527 0.44387 0.0
C79 C 0.10787 0.14132 0.46036 0.0
C80 C 0.08337 0.12053 0.46623 0.0
C81 C 0.07167 1.03042 0.55224 0.0
C82 C 0.04795 0.08895 0.57051 0.0
C83 C 0.98958 1.00835 0.61962 0.0
C84 C 0.96503 0.98592 0.62843 0.0
C85 C 0.94176 0.99249 0.64519 0.0
C86 C 0.91689 0.97227 0.65117 0.0
C87 C 0.91496 0.94499 0.64084 0.0
C88 C 0.93855 0.93814 0.62484 0.0
C89 C 0.96332 0.95848 0.61847 0.0
C90 C 0.97682 0.04725 0.53069 0.0
C91 C 1.0008 0.98927 0.51294 0.0
O92 O 0.06589 0.04911 0.47564 0.0
O93 O 0.03565 0.07704 0.47819 0.0
O94 O 0.08141 0.05187 0.53571 0.0
O95 O 0.04577 1.02055 0.54564 0.0
O96 O 0.04888 0.08854 0.5409 0.0
O97 O 0.03647 0.06628 0.58597 0.0
O98 O 0.98218 1.02983 0.60739 0.0
O99 O 1.01169 1.00122 0.60556 0.0
O100 O 0.96731 1.0255 0.54683 0.0
O101 O 1.00246 0.05766 0.53778 0.0
O102 O 1.00025 0.98958 0.54258 0.0
O103 O 1.01185 1.01205 0.49749 0.0
H104 H 0.10484 0.067 0.42935 0.0
H105 H 0.14783 0.10334 0.41931 0.0
H106 H 0.10863 0.16192 0.46937 0.0
H107 H 0.06584 0.12557 0.47989 0.0
H108 H 0.94257 1.01348 0.65309 0.0
H109 H 0.89915 0.97795 0.66398 0.0
H110 H 0.93753 0.91722 0.61666 0.0
H111 H 0.98081 0.9528 0.60528 0.0
La112 La 0.54204 0.04998 0.0483 0.0
La113 La 0.48798 1.03458 1.01724 0.0
C114 C 0.58609 0.07551 0.07544 0.0
C115 C 0.59078 0.08548 0.10651 0.0
C116 C 0.61071 0.07532 0.12398 0.0
C117 C 0.61355 0.08224 0.15429 0.0
C118 C 0.59663 0.09963 0.16764 0.0
C119 C 0.57725 0.11046 0.14998 0.0
C120 C 0.57426 0.10336 0.11966 0.0
C121 C 0.51145 1.00084 0.06494 0.0
C122 C 0.48588 0.07111 0.07302 0.0
C123 C 0.44366 1.01046 0.98938 0.0
C124 C 0.43694 0.98958 0.96546 0.0
C125 C 0.42099 0.99547 0.94107 0.0
C126 C 0.41486 0.9767 0.91743 0.0
C127 C 0.42441 0.95153 0.91781 0.0
C128 C 0.44017 0.9454 0.9424 0.0
C129 C 0.44661 0.96442 0.96602 0.0
C130 C 0.51903 0.08406 1.00226 0.0
C131 C 0.54313 1.01249 0.99397 0.0
O132 O 0.57966 0.04861 0.07228 0.0
O133 O 0.56992 0.08776 0.05881 0.0
O134 O 0.53945 1.00738 0.0626 0.0
O135 O 0.50127 1.02215 0.05973 0.0
O136 O 0.5144 0.07346 0.07364 0.0
O137 O 0.46974 0.05398 0.05435 0.0
O138 O 0.45992 1.03405 0.98123 0.0
O139 O 0.45108 1.00229 1.01536 0.0
O140 O 0.49113 0.07823 1.00628 0.0
O141 O 0.5288 0.0623 1.00598 0.0
O142 O 0.51454 1.00725 0.99706 0.0
O143 O 0.5591 1.03347 1.00834 0.0
H144 H 0.62368 0.06155 0.1143 0.0
H145 H 0.62902 0.074 0.16731 0.0
H146 H 0.56392 0.12385 0.15976 0.0
H147 H 0.55864 0.11147 0.10676 0.0
H148 H 0.41334 1.01473 0.94025 0.0
H149 H 0.40227 0.98172 0.89897 0.0
H150 H 0.44777 0.92612 0.94314 0.0
H151 H 0.45918 0.95952 0.98455 0.0
La152 La 0.51965 0.52025 0.51778 0.0
La153 La 0.52076 0.56828 0.55555 0.0
C154 C 0.53525 0.47995 0.49264 0.0
C155 C 0.55557 0.46334 0.50369 0.0
C156 C 0.54539 0.43519 0.51012 0.0
C157 C 0.56335 0.42007 0.52417 0.0
C158 C 0.59187 0.43281 0.5318 0.0
C159 C 0.6022 0.46085 0.52499 0.0
C160 C 0.5842 0.47603 0.51121 0.0
C161 C 0.46961 0.51972 0.54614 0.0
C162 C 0.54435 0.52122 0.5848 0.0
C163 C 0.50677 0.60925 0.5812 0.0
C164 C 0.49406 0.63152 0.56869 0.0
C165 C 0.50816 0.65926 0.57244 0.0
C166 C 0.49772 0.68039 0.5584 0.0
C167 C 0.473 0.67408 0.54034 0.0
C168 C 0.45888 0.64628 0.53675 0.0
C169 C 0.4693 0.62522 0.55073 0.0
C170 C 0.57089 0.56839 0.5274 0.0
C171 C 0.49624 0.5674 0.48796 0.0
O172 O 0.51096 0.47761 0.5081 0.0
O173 O 0.5465 0.50577 0.48597 0.0
O174 O 0.47216 0.51126 0.51881 0.0
O175 O 0.49472 0.52738 0.55687 0.0
O176 O 0.54466 0.51162 0.55698 0.0
O177 O 0.53257 0.54279 0.5909 0.0
O178 O 0.53328 0.60898 0.572 0.0
O179 O 0.49022 0.58441 0.58128 0.0
O180 O 0.56829 0.57675 0.55474 0.0
O181 O 0.54578 0.56111 0.5166 0.0
O182 O 0.49874 0.57893 0.51503 0.0
O183 O 0.50509 0.54407 0.48257 0.0
H184 H 0.52334 0.42505 0.50481 0.0
H185 H 0.55506 0.39832 0.52875 0.0
H186 H 0.6241 0.47113 0.53071 0.0
H187 H 0.5926 0.49784 0.50708 0.0
H188 H 0.52749 0.66455 0.58588 0.0
H189 H 0.50908 0.70164 0.56152 0.0
H190 H 0.43946 0.64076 0.52349 0.0
H191 H 0.45807 0.604 0.54713 0.0
La192 La 0.02145 0.5117 0.0487 0.0
La193 La 0.01754 0.56903 1.02243 0.0
C194 C 0.03703 0.46603 0.05227 0.0
C195 C 0.05729 0.45398 0.06997 0.0
C196 C 0.05601 0.42539 0.06861 0.0
C197 C 0.07776 0.41407 0.08154 0.0
C198 C 0.10139 0.43124 0.09578 0.0
C199 C 0.10181 0.4598 0.09821 0.0
C200 C 0.07987 0.47103 0.08552 0.0
C201 C 0.99904 0.54204 0.08956 0.0
C202 C 0.07144 0.56543 0.06202 0.0
C203 C 1.00232 0.61295 1.00737 0.0
C204 C 0.97463 0.62217 1.00551 0.0
C205 C 0.9734 0.64567 0.9887 0.0
C206 C 0.94713 0.65441 0.98597 0.0
C207 C 0.92157 0.63975 1.00004 0.0
C208 C 0.92295 0.61617 1.01701 0.0
C209 C 0.94931 0.60748 1.01977 0.0
C210 C 0.04701 0.53831 0.98986 0.0
C211 C 0.96402 0.51701 1.01595 0.0
O212 O 1.01388 0.47128 0.06621 0.0
O213 O 0.04942 0.48619 1.03446 0.0
O214 O 1.00306 0.51711 0.09404 0.0
O215 O 1.00763 0.54795 0.06308 0.0
O216 O 0.06351 0.53795 0.061 0.0
O217 O 0.05541 0.58188 0.05055 0.0
O218 O 1.00591 0.5935 0.98836 0.0
O219 O 1.01066 0.6084 1.03436 0.0
O220 O 0.05343 0.56516 0.99139 0.0
O221 O 0.02406 0.53003 1.0052 0.0
O222 O 0.97321 0.54438 1.01638 0.0
O223 O 0.9804 0.49993 1.02523 0.0
H224 H 0.03868 0.41192 0.0567 0.0
H225 H 0.07635 0.39192 0.07984 0.0
H226 H 0.11971 0.47372 0.10876 0.0
H227 H 0.08116 0.49316 0.08678 0.0
H228 H 0.99272 0.65714 0.97741 0.0
H229 H 0.94674 0.67234 0.97229 0.0
H230 H 0.90372 0.60455 1.02829 0.0
H231 H 0.9499 0.58928 1.03294 0.0
H232 H 0.35982 0.28148 0.31578 0.0
H233 H 0.33582 0.26139 0.36211 0.0
H234 H 0.25367 0.27457 0.33058 0.0
H235 H 0.27676 0.29339 0.28419 0.0
H236 H 0.26528 0.2826 0.3974 0.0
H237 H 0.28069 0.18278 0.34615 0.0
H238 H 0.31179 0.21059 0.35073 0.0
H239 H 0.28465 0.21381 0.32406 0.0
C240 C 0.33674 0.28055 0.31895 0.0
C241 C 0.32024 0.28877 0.29597 0.0
C242 C 0.32316 0.26929 0.34551 0.0
C243 C 0.29301 0.26639 0.34952 0.0
C244 C 0.27702 0.27685 0.32793 0.0
H245 H 0.13445 0.18704 0.42183 0.0
H246 H 0.17812 0.22068 0.40707 0.0
C247 C 0.29041 0.28778 0.30136 0.0
C248 C 0.2769 0.24844 0.3731 0.0
H249 H 0.24641 0.18048 0.38487 0.0
C250 C 0.26166 0.26023 0.39531 0.0
C251 C 0.27236 0.21931 0.37027 0.0
C252 C 0.28808 0.20567 0.34652 0.0
C253 C 0.24072 0.24356 0.41377 0.0
C254 C 0.23435 0.21452 0.40912 0.0
C255 C 0.25117 0.20273 0.38837 0.0
C256 C 0.20829 0.1962 0.42251 0.0
C257 C 0.22519 0.25733 0.43749 0.0
C258 C 0.21058 0.17103 0.43574 0.0
C259 C 0.1856 0.15151 0.44345 0.0
C260 C 0.1579 0.15692 0.43829 0.0
C261 C 0.15558 0.18254 0.42629 0.0
C262 C 0.18056 0.20189 0.41816 0.0
H263 H 0.23968 0.2763 0.44628 0.0
H264 H 0.20621 0.26375 0.42744 0.0
H265 H 0.21741 0.24318 0.45647 0.0
H266 H 0.23171 0.1661 0.43913 0.0
H267 H 0.1879 0.13196 0.45294 0.0
H268 H 0.35231 0.84335 0.66774 0.0
H269 H 0.37533 0.8524 0.71636 0.0
H270 H 0.29102 0.83384 0.76032 0.0
H271 H 0.26782 0.82526 0.71153 0.0
H272 H 0.32041 0.88367 0.77497 0.0
H273 H 0.39301 0.80954 0.78759 0.0
H274 H 0.39893 0.82708 0.75232 0.0
H275 H 0.36437 0.80457 0.76043 0.0
C276 C 0.33875 0.84036 0.68783 0.0
C277 C 0.30829 0.83372 0.68593 0.0
C278 C 0.35195 0.84538 0.71564 0.0
C279 C 0.33494 0.84345 0.74203 0.0
C280 C 0.30456 0.83531 0.74024 0.0
H281 H 0.40023 0.89621 0.92081 0.0
H282 H 0.37982 0.86597 0.87908 0.0
C283 C 0.29134 0.83053 0.71242 0.0
C284 C 0.34838 0.8542 0.77065 0.0
H285 H 0.40471 0.85176 0.81718 0.0
C286 C 0.33847 0.87628 0.78447 0.0
C287 C 0.37193 0.84455 0.78312 0.0
C288 C 0.38248 0.81994 0.77024 0.0
C289 C 0.35222 0.88978 0.80958 0.0
C290 C 0.37683 0.88127 0.82089 0.0
C291 C 0.38604 0.8584 0.80808 0.0
C292 C 0.39374 0.8971 0.84512 0.0
C293 C 0.34074 0.91355 0.82343 0.0
C294 C 0.40921 0.92408 0.83946 0.0
C295 C 0.42068 0.94129 0.86308 0.0
C296 C 0.41699 0.93173 0.89271 0.0
C297 C 0.4034 0.90401 0.89813 0.0
C298 C 0.39175 0.88677 0.8744 0.0
H299 H 0.31811 0.91341 0.81654 0.0
H300 H 0.34125 0.91282 0.84826 0.0
H301 H 0.35471 0.93341 0.81607 0.0
H302 H 0.4111 0.93225 0.8169 0.0
H303 H 0.43144 0.96245 0.8583 0.0
H304 H 0.63647 0.36262 0.77911 0.0
H305 H 0.61846 0.38469 0.73636 0.0
H306 H 0.63098 0.46187 0.78531 0.0
H307 H 0.64965 0.44016 0.82758 0.0
H308 H 0.57384 0.40797 0.72753 0.0
H309 H 0.67235 0.48964 0.70993 0.0
H310 H 0.67163 0.46115 0.73511 0.0
H311 H 0.65779 0.49104 0.74717 0.0
C312 C 0.63539 0.3843 0.78078 0.0
C313 C 0.64495 0.39962 0.8068 0.0
C314 C 0.62511 0.39698 0.7562 0.0
C315 C 0.62397 0.42532 0.75696 0.0
C316 C 0.63257 0.44034 0.78338 0.0
H317 H 0.55385 0.53816 0.64336 0.0
H318 H 0.57319 0.51435 0.68384 0.0
C319 C 0.64315 0.42779 0.80775 0.0
C320 C 0.61331 0.43901 0.73052 0.0
H321 H 0.62975 0.49573 0.68461 0.0
C322 C 0.58628 0.42702 0.71805 0.0
C323 C 0.62939 0.46388 0.71766 0.0
C324 C 0.65952 0.477 0.72794 0.0
C325 C 0.57469 0.43948 0.69401 0.0
C326 C 0.59041 0.46469 0.68185 0.0
C327 C 0.61751 0.47655 0.69401 0.0
C328 C 0.57892 0.47922 0.65677 0.0
C329 C 0.54531 0.42592 0.68217 0.0
C330 C 0.57601 0.46772 0.62776 0.0
C331 C 0.56517 0.48145 0.6044 0.0
C332 C 0.55678 0.50701 0.60946 0.0
C333 C 0.55995 0.51854 0.63852 0.0
C334 C 0.57106 0.50492 0.66177 0.0
H335 H 0.53369 0.40922 0.69714 0.0
H336 H 0.53155 0.4415 0.67941 0.0
H337 H 0.54819 0.4167 0.65982 0.0
H338 H 0.58222 0.44811 0.62311 0.0
H339 H 0.5631 0.47184 0.58242 0.0
H340 H 0.9366 0.69225 0.31513 0.0
H341 H 0.9576 0.67124 0.27256 0.0
H342 H 0.87164 0.63218 0.24431 0.0
H343 H 0.85041 0.6545 0.28553 0.0
H344 H 0.95788 0.62029 0.25825 0.0
H345 H 0.90376 0.66207 0.16581 0.0
H346 H 0.90222 0.67449 0.20381 0.0
H347 H 0.87767 0.64337 0.19191 0.0
C348 C 0.922 0.67972 0.29958 0.0
C349 C 0.89159 0.6754 0.30413 0.0
C350 C 0.93415 0.66741 0.27522 0.0
C351 C 0.91638 0.65036 0.25454 0.0
C352 C 0.88605 0.64577 0.25919 0.0
H353 H 0.97264 0.5247 0.14254 0.0
H354 H 0.95332 0.55156 0.18126 0.0
C355 C 0.87387 0.65826 0.28334 0.0
C356 C 0.92955 0.63649 0.22905 0.0
H357 H 0.92615 0.62382 0.15334 0.0
C358 C 0.951 0.62131 0.23532 0.0
C359 C 0.92127 0.63802 0.19876 0.0
C360 C 0.90021 0.65562 0.1896 0.0
C361 C 0.96362 0.60716 0.21268 0.0
C362 C 0.95406 0.60729 0.18271 0.0
C363 C 0.93329 0.62318 0.17623 0.0
C364 C 0.96498 0.59073 0.15808 0.0
C365 C 0.98755 0.5926 0.22119 0.0
C366 C 0.97695 0.60322 0.13111 0.0
C367 C 0.9877 0.58761 0.1085 0.0
C368 C 0.98665 0.55914 0.11226 0.0
C369 C 0.97409 0.54663 0.13891 0.0
C370 C 0.9632 0.5621 0.16131 0.0
H371 H 0.99886 0.60198 0.24158 0.0
H372 H 0.97798 0.57059 0.22623 0.0
H373 H 1.00391 0.59333 0.20278 0.0
H374 H 0.97849 0.6252 0.12775 0.0
H375 H 0.99732 0.59795 0.08845 0.0
H376 H 0.35256 0.22331 0.23986 0.0
H377 H 0.37744 0.18888 0.21891 0.0
H378 H 0.41563 0.24599 0.14957 0.0
H379 H 0.39304 0.28178 0.17226 0.0
H380 H 0.37124 0.16349 0.16944 0.0
H381 H 0.4859 0.21931 0.17246 0.0
H382 H 0.45704 0.23242 0.19102 0.0
H383 H 0.46429 0.23813 0.15152 0.0
C384 C 0.36705 0.2291 0.2208 0.0
C385 C 0.37118 0.25576 0.20823 0.0
C386 C 0.38098 0.20909 0.20852 0.0
C387 C 0.39893 0.21487 0.18294 0.0
C388 C 0.40266 0.24121 0.16986 0.0
H389 H 0.43572 0.08823 0.06238 0.0
H390 H 0.41498 0.12223 0.09056 0.0
C391 C 0.38925 0.26155 0.18258 0.0
C392 C 0.41226 0.19272 0.16923 0.0
H393 H 0.47594 0.17855 0.14162 0.0
C394 C 0.39422 0.16676 0.16368 0.0
C395 C 0.44235 0.19663 0.1622 0.0
C396 C 0.46354 0.22304 0.16993 0.0
C397 C 0.40522 0.14488 0.15084 0.0
C398 C 0.43489 0.1494 0.1419 0.0
C399 C 0.45311 0.17513 0.14808 0.0
C400 C 0.44725 0.12808 0.12532 0.0
C401 C 0.38491 0.11704 0.1476 0.0
C402 C 0.47294 0.12062 0.13481 0.0
C403 C 0.48532 0.10162 0.1182 0.0
C404 C 0.472 0.08953 0.09203 0.0
C405 C 0.44615 0.09675 0.0828 0.0
C406 C 0.43416 0.11613 0.09901 0.0
H407 H 0.36721 0.11426 0.16488 0.0
H408 H 0.37457 0.11574 0.12536 0.0
H409 H 0.39661 0.09975 0.14954 0.0
H410 H 0.48356 0.12966 0.15494 0.0
H411 H 0.5053 0.09647 0.12578 0.0
H412 H 0.26168 0.88643 0.57716 0.0
H413 H 0.2284 0.91781 0.56988 0.0
H414 H 0.18206 0.8883 0.65141 0.0
H415 H 0.215 0.85642 0.65868 0.0
H416 H 0.16633 0.90274 0.56561 0.0
H417 H 0.20269 0.97447 0.66071 0.0
H418 H 0.22437 0.95112 0.64552 0.0
H419 H 0.19358 0.93816 0.66951 0.0
C420 C 0.2442 0.88635 0.59337 0.0
C421 C 0.2409 0.86891 0.61846 0.0
C422 C 0.2254 0.90444 0.5893 0.0
C423 C 0.20313 0.90555 0.61033 0.0
C424 C 0.19951 0.88803 0.63526 0.0
H425 H 0.05498 0.97981 0.57787 0.0
H426 H 0.08658 0.94998 0.59578 0.0
C427 C 0.21829 0.86986 0.63933 0.0
C428 C 0.1832 0.92454 0.60554 0.0
H429 H 0.16261 0.98247 0.63326 0.0
C430 C 0.16541 0.92013 0.58041 0.0
C431 C 0.18241 0.94727 0.62484 0.0
C432 C 0.2019 0.9533 0.65157 0.0
C433 C 0.14668 0.93792 0.57401 0.0
C434 C 0.14555 0.96044 0.59352 0.0
C435 C 0.16343 0.96497 0.6186 0.0
C436 C 0.12647 0.97991 0.58738 0.0
C437 C 0.12865 0.93283 0.54611 0.0
C438 C 0.13854 1.00697 0.57806 0.0
C439 C 0.12054 1.02413 0.56797 0.0
C440 C 0.09032 1.01434 0.56715 0.0
C441 C 0.07822 0.98784 0.57824 0.0
C442 C 0.0962 0.97075 0.58835 0.0
H443 H 0.13637 0.9181 0.53048 0.0
H444 H 0.10572 0.92392 0.5525 0.0
H445 H 0.12912 0.95254 0.53412 0.0
H446 H 0.16191 1.01433 0.57729 0.0
H447 H 0.13033 0.04455 0.55965 0.0
H448 H 0.70646 0.39294 0.93189 0.0
H449 H 0.75133 0.41584 0.95597 0.0
H450 H 0.78815 0.44491 0.87009 0.0
H451 H 0.74368 0.42106 0.84561 0.0
H452 H 0.82672 0.42424 0.90227 0.0
H453 H 0.78037 0.4969 0.97422 0.0
H454 H 0.7625 0.46147 0.97982 0.0
H455 H 0.76035 0.47754 0.94413 0.0
C456 C 0.72409 0.40408 0.91799 0.0
C457 C 0.72121 0.40501 0.88665 0.0
C458 C 0.7497 0.41755 0.93193 0.0
C459 C 0.77315 0.43262 0.91503 0.0
C460 C 0.77039 0.43364 0.88376 0.0
H461 H 0.92518 0.54453 0.99045 0.0
H462 H 0.87945 0.52452 0.96585 0.0
C463 C 0.74476 0.42013 0.86977 0.0
C464 C 0.80087 0.44633 0.9298 0.0
H465 H 0.82861 0.49214 0.98525 0.0
C466 C 0.82709 0.43918 0.92032 0.0
C467 C 0.80167 0.4662 0.95312 0.0
C468 C 0.77477 0.47622 0.96324 0.0
C469 C 0.85376 0.45076 0.93382 0.0
C470 C 0.85437 0.4697 0.95803 0.0
C471 C 0.82826 0.47737 0.96704 0.0
C472 C 0.88186 0.48189 0.97406 0.0
C473 C 0.88115 0.44292 0.92157 0.0
C474 C 0.89831 0.46477 0.98768 0.0
C475 C 0.92458 0.47615 1.00173 0.0
C476 C 0.93502 0.50504 1.00284 0.0
C477 C 0.91801 0.5222 0.99005 0.0
C478 C 0.89176 0.51077 0.97591 0.0
H479 H 0.87842 0.43509 0.89816 0.0
H480 H 0.89982 0.46084 0.92208 0.0
H481 H 0.88646 0.42617 0.93548 0.0
H482 H 0.89089 0.44247 0.98737 0.0
H483 H 0.93683 0.4622 1.01147 0.0
H484 H 0.79007 0.6556 0.34275 0.0
H485 H 0.74415 0.63344 0.3675 0.0
H486 H 0.78043 0.65978 0.45346 0.0
H487 H 0.82615 0.68192 0.42901 0.0
H488 H 0.72967 0.59222 0.41013 0.0
H489 H 0.70685 0.69047 0.4558 0.0
H490 H 0.73477 0.68963 0.42769 0.0
H491 H 0.74166 0.68458 0.46655 0.0
C492 C 0.78837 0.6565 0.36695 0.0
C493 C 0.81184 0.67095 0.38377 0.0
C494 C 0.76201 0.64388 0.38109 0.0
C495 C 0.75842 0.64542 0.41239 0.0
C496 C 0.78219 0.65893 0.42926 0.0
H497 H 0.62482 0.59122 0.54776 0.0
H498 H 0.66945 0.60804 0.51856 0.0
C499 C 0.80843 0.67161 0.41519 0.0
C500 C 0.72995 0.63314 0.4275 0.0
H501 H 0.67759 0.6489 0.4751 0.0
C502 C 0.71816 0.60467 0.42413 0.0
C503 C 0.71468 0.64929 0.44572 0.0
C504 C 0.72495 0.68023 0.44896 0.0
C505 C 0.69227 0.59184 0.43927 0.0
C506 C 0.67743 0.60792 0.45804 0.0
C507 C 0.68895 0.63645 0.46093 0.0
C508 C 0.65038 0.59568 0.47557 0.0
C509 C 0.6815 0.56101 0.43581 0.0
C510 C 0.62457 0.58283 0.46131 0.0
C511 C 0.59886 0.57314 0.47807 0.0
C512 C 0.5984 0.57621 0.50944 0.0
C513 C 0.62437 0.58853 0.52365 0.0
C514 C 0.64995 0.59823 0.50695 0.0
H515 H 0.69866 0.5507 0.42645 0.0
H516 H 0.67379 0.5514 0.45767 0.0
H517 H 0.66293 0.55708 0.42028 0.0
H518 H 0.62407 0.58099 0.43713 0.0
H519 H 0.5792 0.56388 0.46642 0.0
H520 H 0.31893 0.36575 0.22397 0.0
H521 H 0.28319 0.38712 0.19922 0.0
H522 H 0.2646 0.31798 0.13781 0.0
H523 H 0.29914 0.29578 0.16341 0.0
H524 H 0.2734 0.40354 0.14267 0.0
H525 H 0.18619 0.31523 0.17841 0.0
H526 H 0.22284 0.32007 0.19183 0.0
H527 H 0.21406 0.30525 0.15535 0.0
C528 C 0.30743 0.35522 0.205 0.0
C529 C 0.31152 0.32883 0.19604 0.0
C530 C 0.28711 0.36751 0.1908 0.0
C531 C 0.27064 0.35374 0.16726 0.0
C532 C 0.27654 0.3286 0.15648 0.0
H533 H 0.12578 0.39095 0.0692 0.0
H534 H 0.16721 0.37264 0.08608 0.0
C535 C 0.29666 0.31614 0.17087 0.0
C536 C 0.24594 0.36473 0.1556 0.0
H537 H 0.1721 0.34911 0.14816 0.0
C538 C 0.25126 0.39165 0.14384 0.0
C539 C 0.21698 0.34927 0.15751 0.0
C540 C 0.20955 0.32097 0.17171 0.0
C541 C 0.22843 0.40336 0.13359 0.0
C542 C 0.19965 0.38777 0.13526 0.0
C543 C 0.19429 0.36087 0.14684 0.0
C544 C 0.17467 0.39906 0.12524 0.0
C545 C 0.23511 0.43223 0.12085 0.0
C546 C 0.16493 0.41964 0.14205 0.0
C547 C 0.14089 0.42984 0.1328 0.0
C548 C 0.12623 0.41968 0.10649 0.0
C549 C 0.13612 0.39892 0.08985 0.0
C550 C 0.15998 0.3886 0.09926 0.0
H551 H 0.25881 0.43993 0.11692 0.0
H552 H 0.22367 0.43276 0.0994 0.0
H553 H 0.22716 0.44657 0.13675 0.0
H554 H 0.1758 0.42764 0.16244 0.0
H555 H 0.13366 0.44552 0.14639 0.0
H556 H 0.63232 0.29983 0.83812 0.0
H557 H 0.61079 0.25433 0.85928 0.0
H558 H 0.62179 0.28887 0.9484 0.0
H559 H 0.64376 0.33407 0.92743 0.0
H560 H 0.63801 0.24079 0.9471 0.0
H561 H 0.53089 0.22624 0.8929 0.0
H562 H 0.56071 0.23129 0.86646 0.0
H563 H 0.55668 0.25881 0.89196 0.0
C564 C 0.62983 0.29781 0.86221 0.0
C565 C 0.63985 0.32076 0.88098 0.0
C566 C 0.61741 0.2717 0.87436 0.0
C567 C 0.61416 0.26795 0.90559 0.0
C568 C 0.62399 0.29095 0.92429 0.0
H569 H 0.49961 0.13197 0.99736 0.0
H570 H 0.52399 0.17554 0.97441 0.0
C571 C 0.63662 0.3169 0.91221 0.0
C572 C 0.60114 0.24018 0.91903 0.0
H573 H 0.5407 0.18773 0.91913 0.0
C574 C 0.6167 0.22923 0.94094 0.0
C575 C 0.57315 0.22499 0.91147 0.0
C576 C 0.55424 0.23602 0.88965 0.0
C577 C 0.60521 0.20386 0.95539 0.0
C578 C 0.57752 0.18835 0.94728 0.0
C579 C 0.562 0.19928 0.92531 0.0
C580 C 0.56346 0.16158 0.96226 0.0
C581 C 0.62252 0.19451 0.97996 0.0
C582 C 0.57731 0.1388 0.96345 0.0
C583 C 0.56341 0.11376 0.97706 0.0
C584 C 0.53512 0.11076 0.98931 0.0
C585 C 0.52137 0.13351 0.98811 0.0
C586 C 0.53531 0.1585 0.97485 0.0
H587 H 0.63876 0.21204 0.98921 0.0
H588 H 0.6081 0.18476 0.99857 0.0
H589 H 0.6345 0.17904 0.97072 0.0
H590 H 0.59869 0.14016 0.95337 0.0
H591 H 0.57452 0.09658 0.9774 0.0
H592 H 0.93657 0.747 0.38036 0.0
H593 H 0.95782 0.79135 0.40442 0.0
H594 H 0.8746 0.81521 0.40237 0.0
H595 H 0.85321 0.77073 0.37928 0.0
H596 H 0.96577 0.84409 0.39026 0.0
H597 H 0.89135 0.82823 0.4888 0.0
H598 H 0.8928 0.80108 0.46185 0.0
H599 H 0.8718 0.82698 0.45459 0.0
C600 C 0.92286 0.76178 0.38491 0.0
C601 C 0.89307 0.75507 0.37819 0.0
C602 C 0.93501 0.78717 0.39878 0.0
C603 C 0.91775 0.80659 0.40615 0.0
C604 C 0.88831 0.80038 0.39809 0.0
H605 H 0.9882 0.98125 0.45305 0.0
H606 H 0.9685 0.93768 0.42709 0.0
C607 C 0.87609 0.77492 0.38463 0.0
C608 C 0.93041 0.83321 0.42217 0.0
H609 H 0.91987 0.87372 0.4825 0.0
C610 C 0.95576 0.85046 0.41051 0.0
C611 C 0.9179 0.84159 0.44903 0.0
C612 C 0.89216 0.82336 0.46448 0.0
C613 C 0.9685 0.87577 0.42446 0.0
C614 C 0.95513 0.88478 0.45049 0.0
C615 C 0.93007 0.86729 0.4624 0.0
C616 C 0.96705 0.91176 0.46622 0.0
C617 C 0.99666 0.89215 0.41152 0.0
C618 C 0.9719 0.91233 0.49726 0.0
C619 C 0.9826 0.93738 0.51232 0.0
C620 C 0.98896 0.9627 0.49678 0.0
C621 C 0.98391 0.96221 0.46576 0.0
C622 C 0.97284 0.93714 0.45077 0.0
H623 H 1.00856 0.87871 0.39825 0.0
H624 H 0.99184 0.90818 0.39626 0.0
H625 H 1.01112 0.90258 0.42939 0.0
H626 H 0.96758 0.89326 0.50994 0.0
H627 H 0.98615 0.93682 0.53618 0.0
H628 H 0.31079 0.8429 0.54863 0.0
H629 H 0.33776 0.82287 0.50957 0.0
H630 H 0.32987 0.74866 0.56224 0.0
H631 H 0.3024 0.76815 0.60056 0.0
H632 H 0.38919 0.81213 0.51875 0.0
H633 H 0.32098 0.71496 0.48056 0.0
H634 H 0.3055 0.74179 0.49845 0.0
H635 H 0.31722 0.71569 0.5205 0.0
C636 C 0.31397 0.82192 0.55127 0.0
C637 C 0.30475 0.80708 0.57768 0.0
C638 C 0.32938 0.81054 0.52897 0.0
C639 C 0.33545 0.78409 0.53268 0.0
C640 C 0.32476 0.76876 0.55834 0.0
H641 H 0.46634 0.72219 0.567 0.0
H642 H 0.43767 0.75432 0.54966 0.0
C643 C 0.30947 0.78008 0.58053 0.0
C644 C 0.35721 0.7742 0.51333 0.0
H645 H 0.37268 0.71241 0.49208 0.0
C646 C 0.38541 0.79059 0.5117 0.0
C647 C 0.35238 0.74657 0.50277 0.0
C648 C 0.32222 0.72896 0.50035 0.0
C649 C 0.40937 0.77868 0.50474 0.0
C650 C 0.40485 0.74972 0.50018 0.0
C651 C 0.37637 0.73448 0.49664 0.0
C652 C 0.42782 0.73416 0.50662 0.0
C653 C 0.4394 0.79682 0.50485 0.0
C654 C 0.43211 0.71205 0.48822 0.0
C655 C 0.44838 0.69332 0.49837 0.0
C656 C 0.46047 0.69636 0.52712 0.0
C657 C 0.45771 0.71949 0.5446 0.0
C658 C 0.44143 0.73808 0.53453 0.0
H659 H 0.43915 0.81715 0.49448 0.0
H660 H 0.44646 0.80094 0.52833 0.0
H661 H 0.45549 0.78701 0.4926 0.0
H662 H 0.42163 0.70848 0.46673 0.0
H663 H 0.45047 0.67583 0.48426 0.0
H664 H 0.76772 0.79088 0.80625 0.0
H665 H 0.79134 0.80947 0.75988 0.0
H666 H 0.71039 0.82634 0.7291 0.0
H667 H 0.68596 0.80677 0.77545 0.0
H668 H 0.77944 0.80114 0.69403 0.0
H669 H 0.76796 0.9033 0.74223 0.0
H670 H 0.76258 0.8726 0.76502 0.0
H671 H 0.73588 0.8765 0.73812 0.0
C672 C 0.75448 0.79742 0.78926 0.0
C673 C 0.72489 0.7975 0.79479 0.0
C674 C 0.76814 0.80818 0.76274 0.0
C675 C 0.75265 0.81947 0.7413 0.0
C676 C 0.7227 0.81784 0.74557 0.0
H677 H 0.85872 0.94869 0.63172 0.0
H678 H 0.81468 0.91569 0.64734 0.0
C679 C 0.70887 0.80684 0.77213 0.0
C680 C 0.76916 0.83647 0.71723 0.0
H681 H 0.80097 0.90363 0.70263 0.0
C682 C 0.78369 0.82358 0.69532 0.0
C683 C 0.77448 0.8657 0.71898 0.0
C684 C 0.75957 0.88053 0.74235 0.0
C685 C 0.80462 0.83924 0.67604 0.0
C686 C 0.81172 0.86839 0.67952 0.0
C687 C 0.79565 0.88128 0.70003 0.0
C688 C 0.83777 0.88579 0.66505 0.0
C689 C 0.81936 0.82431 0.65271 0.0
C690 C 0.86538 0.8798 0.66938 0.0
C691 C 0.89048 0.89849 0.66023 0.0
C692 C 0.88843 0.92378 0.6472 0.0
C693 C 0.86083 0.92941 0.64199 0.0
C694 C 0.83571 0.91053 0.65074 0.0
H695 H 0.8044 0.8052 0.64488 0.0
H696 H 0.82698 0.83766 0.63306 0.0
H697 H 0.83837 0.81794 0.66275 0.0
H698 H 0.86765 0.86134 0.68124 0.0
H699 H 0.91153 0.89384 0.66477 0.0
H700 H 0.682 0.21973 0.4079 0.0
H701 H 0.65273 0.19986 0.36536 0.0
H702 H 0.65603 0.11762 0.39511 0.0
H703 H 0.68537 0.1374 0.43775 0.0
H704 H 0.67688 0.12872 0.33787 0.0
H705 H 0.56959 0.15781 0.35169 0.0
H706 H 0.59964 0.18653 0.35614 0.0
H707 H 0.59422 0.15842 0.38239 0.0
C708 C 0.67574 0.1974 0.40587 0.0
C709 C 0.68613 0.18009 0.42595 0.0
C710 C 0.65892 0.18607 0.38163 0.0
C711 C 0.65199 0.15727 0.37728 0.0
C712 C 0.66106 0.1399 0.39819 0.0
H713 H 0.59725 0.06403 0.21379 0.0
H714 H 0.60654 0.07577 0.2666 0.0
C715 C 0.67794 0.15121 0.42237 0.0
C716 C 0.63919 0.14563 0.3488 0.0
H717 H 0.58228 0.14435 0.30209 0.0
C718 C 0.65596 0.13169 0.33024 0.0
C719 C 0.61204 0.14981 0.33889 0.0
C720 C 0.59269 0.16374 0.35844 0.0
C721 C 0.6469 0.12276 0.30148 0.0
C722 C 0.62002 0.12743 0.29127 0.0
C723 C 0.60286 0.1408 0.31007 0.0
C724 C 0.61035 0.11984 0.26049 0.0
C725 C 0.66682 0.10954 0.28178 0.0
C726 C 0.60814 0.14064 0.23997 0.0
C727 C 0.60268 0.13398 0.20987 0.0
C728 C 0.59947 0.10643 0.19991 0.0
C729 C 0.60025 0.0855 0.22082 0.0
C730 C 0.60547 0.09214 0.25093 0.0
H731 H 0.68928 0.11316 0.2905 0.0
H732 H 0.65833 0.08683 0.28084 0.0
H733 H 0.6678 0.11766 0.25859 0.0
H734 H 0.61182 0.16215 0.24701 0.0
H735 H 0.60221 0.1505 0.19418 0.0
H736 H 0.38427 0.64773 0.24888 0.0
H737 H 0.40425 0.62647 0.29076 0.0
H738 H 0.42399 0.70551 0.33591 0.0
H739 H 0.40345 0.72687 0.29432 0.0
H740 H 0.46011 0.63799 0.3146 0.0
H741 H 0.37917 0.65538 0.40106 0.0
H742 H 0.37365 0.65906 0.36152 0.0
H743 H 0.39744 0.68598 0.38169 0.0
C744 C 0.39257 0.66064 0.26781 0.0
C745 C 0.39191 0.68911 0.26809 0.0
C746 C 0.4042 0.64841 0.29177 0.0
C747 C 0.41529 0.66415 0.31695 0.0
C748 C 0.41512 0.69267 0.31715 0.0
H749 H 0.48742 0.62085 0.48628 0.0
H750 H 0.46876 0.64428 0.44516 0.0
C751 C 0.40362 0.70497 0.29308 0.0
C752 C 0.4274 0.65072 0.34258 0.0
H753 H 0.41844 0.63654 0.41762 0.0
C754 C 0.45092 0.63763 0.3371 0.0
C755 C 0.4157 0.65031 0.37214 0.0
C756 C 0.38994 0.66321 0.37956 0.0
C757 C 0.4632 0.62456 0.36016 0.0
C758 C 0.45115 0.62364 0.38966 0.0
C759 C 0.42776 0.63698 0.39517 0.0
C760 C 0.4624 0.60901 0.415 0.0
C761 C 0.48958 0.61259 0.35269 0.0
C762 C 0.46478 0.58107 0.41239 0.0
C763 C 0.47571 0.56763 0.43592 0.0
C764 C 0.48408 0.58155 0.46305 0.0
C765 C 0.48105 0.60931 0.46591 0.0
C766 C 0.47038 0.62282 0.44227 0.0
H767 H 0.50152 0.62265 0.33266 0.0
H768 H 0.5048 0.61499 0.37169 0.0
H769 H 0.48251 0.59019 0.34754 0.0
H770 H 0.45801 0.56947 0.39216 0.0
H771 H 0.47739 0.5462 0.43288 0.0
H772 H 0.16598 0.45005 0.75585 0.0
H773 H 0.14615 0.47164 0.79852 0.0
H774 H 0.11193 0.39113 0.83614 0.0
H775 H 0.13345 0.36935 0.79447 0.0
H776 H 0.09353 0.47048 0.81819 0.0
H777 H 0.15002 0.42784 0.90868 0.0
H778 H 0.15927 0.42426 0.86966 0.0
H779 H 0.12833 0.40132 0.88632 0.0
C780 C 0.15485 0.43677 0.77343 0.0
C781 C 0.15193 0.40774 0.77152 0.0
C782 C 0.14314 0.44927 0.79785 0.0
C783 C 0.12792 0.43326 0.82124 0.0
C784 C 0.12424 0.40423 0.81908 0.0
H785 H 0.02983 0.48266 0.97647 0.0
H786 H 0.04903 0.45633 0.9365 0.0
C787 C 0.13623 0.39169 0.79476 0.0
C788 C 0.11544 0.44708 0.84722 0.0
H789 H 0.11345 0.45221 0.92398 0.0
C790 C 0.09805 0.46645 0.84127 0.0
C791 C 0.12113 0.44208 0.87762 0.0
C792 C 0.14093 0.42296 0.88601 0.0
C793 C 0.08631 0.48067 0.86448 0.0
C794 C 0.09194 0.47559 0.89472 0.0
C795 C 0.10896 0.45604 0.90084 0.0
C796 C 0.08111 0.49116 0.92007 0.0
C797 C 0.06777 0.50106 0.85655 0.0
C798 C 0.093 0.51942 0.92462 0.0
C799 C 0.08235 0.5344 0.94769 0.0
C800 C 0.05937 0.52158 0.96675 0.0
C801 C 0.0477 0.49317 0.96242 0.0
C802 C 0.0586 0.47809 0.93949 0.0
H803 H 0.06119 0.49917 0.83273 0.0
H804 H 0.0479 0.49798 0.87105 0.0
H805 H 0.08024 0.52244 0.86043 0.0
H806 H 0.11048 0.52998 0.91015 0.0
H807 H 0.09187 0.55622 0.9503 0.0
H808 H 0.64291 0.79734 0.91062 0.0
H809 H 0.61598 0.83129 0.93122 0.0
H810 H 0.67119 0.89592 0.88018 0.0
H811 H 0.69822 0.86245 0.85987 0.0
H812 H 0.63685 0.88131 0.96375 0.0
H813 H 0.58817 0.90133 0.85605 0.0
H814 H 0.60419 0.87153 0.86181 0.0
H815 H 0.62697 0.90482 0.85414 0.0
C816 C 0.64934 0.81882 0.90396 0.0
C817 C 0.67232 0.82713 0.88322 0.0
C818 C 0.63391 0.83813 0.91562 0.0
C819 C 0.64121 0.86595 0.90664 0.0
C820 C 0.66472 0.87441 0.88674 0.0
H821 H 0.60137 1.01328 0.98819 0.0
H822 H 0.62423 0.97725 0.96631 0.0
C823 C 0.68011 0.85523 0.87515 0.0
C824 C 0.62467 0.88644 0.91826 0.0
H825 H 0.58475 0.93301 0.89602 0.0
C826 C 0.62526 0.89248 0.94902 0.0
C827 C 0.60933 0.90074 0.89898 0.0
C828 C 0.60683 0.89414 0.86594 0.0
C829 C 0.61165 0.91311 0.96091 0.0
C830 C 0.59743 0.92827 0.94142 0.0
C831 C 0.59602 0.9216 0.91081 0.0
C832 C 0.5838 0.95104 0.95251 0.0
C833 C 0.61248 0.91846 0.99425 0.0
C834 C 0.55363 0.94877 0.95077 0.0
C835 C 0.54048 0.9694 0.9631 0.0
C836 C 0.55734 0.99274 0.97721 0.0
C837 C 0.58773 0.99555 0.97759 0.0
C838 C 0.60083 0.97488 0.96532 0.0
H839 H 0.61786 0.90084 1.00673 0.0
H840 H 0.62942 0.93718 0.99902 0.0
H841 H 0.59128 0.92226 1.00279 0.0
H842 H 0.54016 0.93062 0.94072 0.0
H843 H 0.51703 0.96661 0.96234 0.0
H844 H 0.78541 0.17469 0.42711 0.0
H845 H 0.82541 0.15057 0.43192 0.0
H846 H 0.82637 0.16599 0.52721 0.0
H847 H 0.78475 0.18816 0.52301 0.0
H848 H 0.87942 0.16293 0.45054 0.0
H849 H 0.81483 0.0834 0.52518 0.0
H850 H 0.79896 0.10862 0.50621 0.0
H851 H 0.81828 0.1176 0.54055 0.0
C852 C 0.79383 0.17265 0.44919 0.0
C853 C 0.78127 0.18267 0.47481 0.0
C854 C 0.81697 0.15916 0.45182 0.0
C855 C 0.82828 0.15579 0.48002 0.0
C856 C 0.81731 0.16761 0.50534 0.0
H857 H 0.98627 0.10258 0.52039 0.0
H858 H 0.95077 0.12853 0.50322 0.0
C859 C 0.79377 0.18064 0.50283 0.0
C860 C 0.85061 0.13884 0.48306 0.0
H861 H 0.86539 0.08379 0.52073 0.0
C862 C 0.87633 0.14548 0.46572 0.0
C863 C 0.84614 0.11559 0.50219 0.0
C864 C 0.81793 0.10568 0.51931 0.0
C865 C 0.8981 0.12993 0.46765 0.0
C866 C 0.89439 0.1078 0.48826 0.0
C867 C 0.86836 0.10083 0.50503 0.0
C868 C 0.91742 0.09214 0.49403 0.0
C869 C 0.92452 0.13714 0.44726 0.0
C870 C 0.91054 0.06304 0.49469 0.0
C871 C 0.93046 0.04826 0.50549 0.0
C872 C 0.95771 0.06235 0.51526 0.0
C873 C 0.96537 0.09129 0.51279 0.0
C874 C 0.94519 0.10612 0.50269 0.0
H875 H 0.91927 0.14673 0.42619 0.0
H876 H 0.94155 0.15247 0.45867 0.0
H877 H 0.93352 0.1186 0.44144 0.0
H878 H 0.88926 0.05181 0.48808 0.0
H879 H 0.92424 1.02591 0.50708 0.0
H880 H 0.29134 0.66651 0.23282 0.0
H881 H 0.24656 0.64198 0.20931 0.0
H882 H 0.28084 0.67194 0.12282 0.0
H883 H 0.32596 0.69557 0.1459 0.0
H884 H 0.20639 0.66182 0.17783 0.0
H885 H 0.25375 0.59042 0.10508 0.0
H886 H 0.2738 0.61017 0.13491 0.0
H887 H 0.27075 0.62607 0.09931 0.0
C888 C 0.2896 0.66752 0.20872 0.0
C889 C 0.3125 0.6831 0.19136 0.0
C890 C 0.26381 0.65362 0.1953 0.0
C891 C 0.26028 0.65469 0.16414 0.0
C892 C 0.28307 0.67023 0.14678 0.0
H893 H 0.09579 0.62085 0.06874 0.0
H894 H 0.1409 0.64183 0.09372 0.0
C895 C 0.30883 0.6841 0.16015 0.0
C896 C 0.23252 0.64035 0.14989 0.0
H897 H 0.20502 0.59404 0.09483 0.0
C898 C 0.20613 0.6469 0.15979 0.0
C899 C 0.23187 0.62051 0.12658 0.0
C900 C 0.25901 0.61113 0.11603 0.0
C901 C 0.17942 0.63475 0.14665 0.0
C902 C 0.17895 0.61583 0.12245 0.0
C903 C 0.20525 0.60877 0.11306 0.0
C904 C 0.15145 0.60297 0.10678 0.0
C905 C 0.15188 0.642 0.15926 0.0
C906 C 0.14254 0.57401 0.10475 0.0
C907 C 0.11678 0.56185 0.09015 0.0
C908 C 0.09924 0.57834 0.07703 0.0
C909 C 0.10848 0.60736 0.0787 0.0
C910 C 0.13427 0.61948 0.09324 0.0
H911 H 0.15472 0.64991 0.18263 0.0
H912 H 0.14598 0.65852 0.14543 0.0
H913 H 0.13354 0.62377 0.15898 0.0
H914 H 0.15539 0.5607 0.11477 0.0
H915 H 0.11063 0.53952 0.08929 0.0
H916 H 0.21767 0.40178 0.64703 0.0
H917 H 0.26307 0.4252 0.62277 0.0
H918 H 0.29892 0.45087 0.70908 0.0
H919 H 0.25376 0.42678 0.73364 0.0
H920 H 0.29107 0.4806 0.62392 0.0
H921 H 0.36213 0.41519 0.67116 0.0
H922 H 0.32295 0.40543 0.67298 0.0
H923 H 0.34197 0.43097 0.69845 0.0
C924 C 0.23528 0.41212 0.66097 0.0
C925 C 0.23195 0.41207 0.69242 0.0
C926 C 0.26124 0.42571 0.64699 0.0
C927 C 0.28475 0.43952 0.664 0.0
C928 C 0.2814 0.43996 0.69538 0.0
H929 H 0.46189 0.52339 0.60725 0.0
H930 H 0.41722 0.50628 0.63688 0.0
C931 C 0.25536 0.4264 0.70942 0.0
C932 C 0.31249 0.45362 0.64871 0.0
H933 H 0.38511 0.45313 0.64154 0.0
C934 C 0.31162 0.47458 0.62783 0.0
C935 C 0.33947 0.44599 0.65381 0.0
C936 C 0.34181 0.42302 0.67511 0.0
C937 C 0.33678 0.48803 0.61203 0.0
C938 C 0.36365 0.47999 0.61663 0.0
C939 C 0.36464 0.45939 0.63793 0.0
C940 C 0.39059 0.49174 0.59863 0.0
C941 C 0.33434 0.51104 0.59081 0.0
C942 C 0.39075 0.48933 0.56723 0.0
C943 C 0.41618 0.49915 0.55031 0.0
C944 C 0.44228 0.51146 0.56432 0.0
C945 C 0.44214 0.51415 0.59574 0.0
C946 C 0.41662 0.50427 0.61271 0.0
H947 H 0.31548 0.52052 0.59681 0.0
H948 H 0.35439 0.52752 0.59069 0.0
H949 H 0.33104 0.50244 0.56779 0.0
H950 H 0.3713 0.47924 0.55574 0.0
H951 H 0.41553 0.49658 0.52619 0.0
H952 H 0.77169 0.76512 0.86963 0.0
H953 H 0.79659 0.73581 0.8985 0.0
H954 H 0.71855 0.707 0.9512 0.0
H955 H 0.69291 0.73624 0.92168 0.0
H956 H 0.77392 0.7239 0.98431 0.0
H957 H 0.78051 0.64925 0.8923 0.0
H958 H 0.79123 0.68472 0.88076 0.0
H959 H 0.75433 0.67148 0.89302 0.0
C960 C 0.75955 0.75226 0.88702 0.0
C961 C 0.73008 0.7525 0.89289 0.0
C962 C 0.7739 0.73562 0.90359 0.0
C963 C 0.75923 0.71886 0.92651 0.0
C964 C 0.7301 0.71962 0.93332 0.0
H965 H 0.86781 0.60728 0.98984 0.0
H966 H 0.82286 0.62264 0.97852 0.0
C967 C 0.71555 0.73634 0.91655 0.0
C968 C 0.77511 0.70102 0.94315 0.0
H969 H 0.81632 0.65252 0.93071 0.0
C970 C 0.78268 0.7078 0.97292 0.0
C971 C 0.78609 0.67974 0.9284 0.0
C972 C 0.77741 0.67064 0.89693 0.0
C973 C 0.80283 0.69529 0.98754 0.0
C974 C 0.81597 0.67592 0.97171 0.0
C975 C 0.80653 0.66758 0.94279 0.0
C976 C 0.84166 0.66634 0.98311 0.0
C977 C 0.81043 0.70352 1.01947 0.0
C978 C 0.86708 0.68577 0.98972 0.0
C979 C 0.8927 0.67707 0.99635 0.0
C980 C 0.89355 0.64874 0.99616 0.0
C981 C 0.86782 0.62924 0.99047 0.0
C982 C 0.84214 0.63798 0.98389 0.0
H983 H 0.79184 0.70975 1.03149 0.0
H984 H 0.81683 0.68638 1.0319 0.0
H985 H 0.8289 0.72162 1.01952 0.0
H986 H 0.8675 0.70777 0.98854 0.0
H987 H 0.91203 0.6926 1.00097 0.0
H988 H 0.43649 0.76277 0.19544 0.0
H989 H 0.45747 0.80753 0.17218 0.0
H990 H 0.37218 0.82674 0.16887 0.0
H991 H 0.35121 0.78245 0.19254 0.0
H992 H 0.44458 0.82657 0.11574 0.0
H993 H 0.42002 0.8976 0.20519 0.0
H994 H 0.4186 0.86126 0.21168 0.0
H995 H 0.38915 0.87217 0.19336 0.0
C996 C 0.42225 0.77672 0.19027 0.0
C997 C 0.39209 0.76882 0.19595 0.0
C998 C 0.43427 0.80229 0.17674 0.0
C999 C 0.41653 0.82083 0.16893 0.0
C1000 C 0.3865 0.81317 0.17502 0.0
H1001 H 0.45301 0.98464 0.08055 0.0
H1002 H 0.42872 0.94087 0.10449 0.0
C1003 C 0.37448 0.7876 0.18835 0.0
C1004 C 0.42916 0.84754 0.15326 0.0
H1005 H 0.43771 0.91813 0.15884 0.0
C1006 C 0.44316 0.84657 0.12527 0.0
C1007 C 0.42709 0.87378 0.16535 0.0
C1008 C 0.41314 0.87642 0.19566 0.0
C1009 C 0.45486 0.87087 0.10906 0.0
C1010 C 0.45328 0.89717 0.12137 0.0
C1011 C 0.43897 0.89813 0.14923 0.0
C1012 C 0.4676 0.92381 0.10641 0.0
C1013 C 0.4683 0.86798 0.07852 0.0
C1014 C 0.49757 0.92917 0.09973 0.0
C1015 C 0.51133 0.95397 0.08601 0.0
C1016 C 0.49567 0.97442 0.07883 0.0
C1017 C 0.46568 0.9693 0.08566 0.0
C1018 C 0.45182 0.94429 0.09943 0.0
H1019 H 0.45946 0.8474 0.06834 0.0
H1020 H 0.46449 0.88431 0.06304 0.0
H1021 H 0.49211 0.86991 0.08075 0.0
H1022 H 0.51053 0.91424 0.10547 0.0
H1023 H 0.53447 0.9572 0.08125 0.0
H1024 H 0.13666 0.30885 0.73899 0.0
H1025 H 0.11647 0.26301 0.71761 0.0
H1026 H 0.13804 0.2951 0.62878 0.0
H1027 H 0.15807 0.34075 0.64982 0.0
H1028 H 0.07227 0.24401 0.67722 0.0
H1029 H 0.17743 0.22918 0.62879 0.0
H1030 H 0.17498 0.25625 0.65561 0.0
H1031 H 0.16764 0.26058 0.61673 0.0
C1032 C 0.13688 0.30625 0.71488 0.0
C1033 C 0.14947 0.32861 0.69626 0.0
C1034 C 0.12542 0.27991 0.70266 0.0
C1035 C 0.12631 0.27522 0.67153 0.0
C1036 C 0.13783 0.29777 0.65288 0.0
H1037 H 0.07416 0.13898 0.54611 0.0
H1038 H 0.09228 0.18292 0.57179 0.0
C1039 C 0.14929 0.324 0.66503 0.0
C1040 C 0.11529 0.24693 0.65839 0.0
H1041 H 0.13519 0.19721 0.61312 0.0
C1042 C 0.08611 0.23369 0.66342 0.0
C1043 C 0.13323 0.23323 0.64034 0.0
C1044 C 0.16513 0.24538 0.63525 0.0
C1045 C 0.07423 0.20779 0.65017 0.0
C1046 C 0.09208 0.19432 0.63173 0.0
C1047 C 0.12136 0.20741 0.62709 0.0
C1048 C 0.08077 0.16709 0.61638 0.0
C1049 C 0.04237 0.19555 0.65523 0.0
C1050 C 0.06851 0.14311 0.63272 0.0
C1051 C 0.05805 0.11774 0.61801 0.0
C1052 C 0.0597 0.11564 0.58654 0.0
C1053 C 0.07237 0.13962 0.57032 0.0
C1054 C 0.08281 0.1649 0.58502 0.0
H1055 H 0.0302 0.21138 0.66324 0.0
H1056 H 0.03229 0.18598 0.63434 0.0
H1057 H 0.03998 0.17919 0.67251 0.0
H1058 H 0.06721 0.14392 0.65694 0.0
H1059 H 0.04861 0.0998 0.63134 0.0
H1060 H 0.72574 0.23232 0.54794 0.0
H1061 H 0.71002 0.26899 0.57795 0.0
H1062 H 0.69685 0.31111 0.49677 0.0
H1063 H 0.71212 0.27465 0.46688 0.0
H1064 H 0.72805 0.34133 0.56356 0.0
H1065 H 0.61591 0.2776 0.55694 0.0
H1066 H 0.64761 0.26246 0.56031 0.0
H1067 H 0.63975 0.27627 0.5251 0.0
C1068 C 0.72013 0.24981 0.53667 0.0
C1069 C 0.71979 0.2507 0.50521 0.0
C1070 C 0.71124 0.27063 0.55376 0.0
C1071 C 0.70238 0.29256 0.53942 0.0
C1072 C 0.70377 0.29429 0.5081 0.0
H1073 H 0.64689 0.43098 0.5139 0.0
H1074 H 0.67608 0.39862 0.5299 0.0
C1075 C 0.7123 0.27346 0.4911 0.0
C1076 C 0.68803 0.31204 0.55603 0.0
H1077 H 0.6204 0.32621 0.56228 0.0
C1078 C 0.70449 0.3379 0.5644 0.0
C1079 C 0.65739 0.30719 0.5577 0.0
C1080 C 0.63898 0.27932 0.54975 0.0
C1081 C 0.69088 0.36001 0.57143 0.0
C1082 C 0.66032 0.35618 0.56884 0.0
C1083 C 0.64385 0.32939 0.56397 0.0
C1084 C 0.64567 0.37973 0.56463 0.0
C1085 C 0.70951 0.38757 0.57994 0.0
C1086 C 0.61871 0.38002 0.57868 0.0
C1087 C 0.6016 0.39818 0.56895 0.0
C1088 C 0.61132 0.41641 0.54518 0.0
C1089 C 0.63904 0.41733 0.53249 0.0
C1090 C 0.65592 0.399 0.54192 0.0
H1091 H 0.72779 0.38453 0.59406 0.0
H1092 H 0.71915 0.39849 0.55936 0.0
H1093 H 0.69679 0.40088 0.5923 0.0
H1094 H 0.61024 0.36522 0.59607 0.0
H1095 H 0.58039 0.39735 0.5793 0.0
loop_
_geom_bond_atom_site_label_1
_geom_bond_atom_site_label_2
_geom_bond_distance
_geom_bond_site_symmetry_2
_ccdc_geom_bond_type
H0 C3 0.931 . S
H1 C6 0.928 . S
H2 C8 0.930 . S
C3 H0 0.931 . S
C3 C4 1.413 . S
C3 C5 1.360 . S
C4 C3 1.413 . S
C4 C8 1.429 . S
C5 C3 1.360 . S
C5 C6 1.372 . S
C6 H1 0.928 . S
C6 C5 1.372 . S
C6 C7 1.404 . S
C7 C6 1.404 . S
C7 C8 1.391 . S
C8 H2 0.930 . S
C8 C4 1.429 . S
C8 C7 1.391 . S
H9 C12 0.931 . S
H10 C15 0.928 . S
H11 C17 0.930 . S
C12 H9 0.931 . S
C12 C13 1.413 . S
C12 C14 1.360 . S
C13 C12 1.413 . S
C13 C17 1.429 . S
C14 C12 1.360 . S
C14 C15 1.372 . S
C15 H10 0.928 . S
C15 C14 1.372 . S
C15 C16 1.404 . S
C16 C15 1.404 . S
C16 C17 1.391 . S
C17 H11 0.930 . S
C17 C13 1.429 . S
C17 C16 1.391 . S
H18 C21 0.931 . S
H19 C24 0.928 . S
H20 C26 0.930 . S
C21 H18 0.931 . S
C21 C22 1.413 . S
C21 C23 1.360 . S
C22 C21 1.413 . S
C22 C26 1.429 . S
C23 C21 1.360 . S
C23 C24 1.372 . S
C24 H19 0.928 . S
C24 C23 1.372 . S
C24 C25 1.404 . S
C25 C24 1.404 . S
C25 C26 1.391 . S
C26 H20 0.930 . S
C26 C22 1.429 . S
C26 C25 1.391 . S
H27 C30 0.931 . S
H28 C33 0.928 . S
H29 C35 0.930 . S
C30 H27 0.931 . S
C30 C31 1.413 . S
C30 C32 1.360 . S
C31 C30 1.413 . S
C31 C35 1.429 . S
C32 C30 1.360 . S
C32 C33 1.372 . S
C33 H28 0.928 . S
C33 C32 1.372 . S
C33 C34 1.404 . S
C34 C33 1.404 . S
C34 C35 1.391 . S
C35 H29 0.930 . S
C35 C31 1.429 . S
C35 C34 1.391 . S
H36 C39 0.931 . S
H37 C42 0.928 . S
H38 C44 0.930 . S
C39 H36 0.931 . S
C39 C40 1.413 . S
C39 C41 1.360 . S
C40 C39 1.413 . S
C40 C44 1.429 . S
C41 C39 1.360 . S
C41 C42 1.372 . S
C42 H37 0.928 . S
C42 C41 1.372 . S
C42 C43 1.404 . S
C43 C42 1.404 . S
C43 C44 1.391 . S
C44 H38 0.930 . S
C44 C40 1.429 . S
C44 C43 1.391 . S
H45 C48 0.931 . S
H46 C51 0.928 . S
H47 C53 0.930 . S
C48 H45 0.931 . S
C48 C49 1.413 . S
C48 C50 1.360 . S
C49 C48 1.413 . S
C49 C53 1.429 . S
C50 C48 1.360 . S
C50 C51 1.372 . S
C51 H46 0.928 . S
C51 C50 1.372 . S
C51 C52 1.404 . S
C52 C51 1.404 . S
C52 C53 1.391 . S
C53 H47 0.930 . S
C53 C49 1.429 . S
C53 C52 1.391 . S
H54 C57 0.931 . S
H55 C60 0.928 . S
H56 C62 0.930 . S
C57 H54 0.931 . S
C57 C58 1.413 . S
C57 C59 1.360 . S
C58 C57 1.413 . S
C58 C62 1.429 . S
C59 C57 1.360 . S
C59 C60 1.372 . S
C60 H55 0.928 . S
C60 C59 1.372 . S
C60 C61 1.404 . S
C61 C60 1.404 . S
C61 C62 1.391 . S
C62 H56 0.930 . S
C62 C58 1.429 . S
C62 C61 1.391 . S
H63 C66 0.931 . S
H64 C69 0.928 . S
H65 C71 0.930 . S
C66 H63 0.931 . S
C66 C67 1.413 . S
C66 C68 1.360 . S
C67 C66 1.413 . S
C67 C71 1.429 . S
C68 C66 1.360 . S
C68 C69 1.372 . S
C69 H64 0.928 . S
C69 C68 1.372 . S
C69 C70 1.404 . S
C70 C69 1.404 . S
C70 C71 1.391 . S
C71 H65 0.930 . S
C71 C67 1.429 . S
C71 C70 1.391 . S
La72 C74 2.928 . S
La72 O92 2.521 . S
La72 O93 2.628 . S
La72 O94 2.554 1_545 S
La72 O95 2.757 1_545 S
La72 O96 2.470 . S
La72 O101 2.482 1_455 S
La72 O103 2.503 1_445 S
La73 C83 2.928 . S
La73 O95 2.482 1_655 S
La73 O97 2.503 1_665 S
La73 O98 2.521 . S
La73 O99 2.628 . S
La73 O100 2.554 1_565 S
La73 O101 2.757 1_565 S
La73 O102 2.470 . S
C74 La72 2.928 . S
C74 C75 1.503 . S
C74 O92 1.261 . S
C74 O93 1.243 . S
C75 C74 1.503 . S
C75 C76 1.394 . S
C75 C80 1.373 . S
C76 C75 1.394 . S
C76 C77 1.380 . S
C76 H104 0.930 . S
C77 C76 1.380 . S
C77 C78 1.376 . S
C77 H105 0.930 . S
C78 C77 1.376 . S
C78 C79 1.370 . S
C79 C78 1.370 . S
C79 C80 1.396 . S
C79 H106 0.929 . S
C80 C75 1.373 . S
C80 C79 1.396 . S
C80 H107 0.929 . S
C81 O94 1.240 . S
C81 O95 1.289 . S
C82 O96 1.258 . S
C82 O97 1.256 . S
C83 La73 2.928 . S
C83 C84 1.503 . S
C83 O98 1.261 . S
C83 O99 1.243 . S
C84 C83 1.503 . S
C84 C85 1.394 . S
C84 C89 1.373 . S
C85 C84 1.394 . S
C85 C86 1.380 . S
C85 H108 0.930 . S
C86 C85 1.380 . S
C86 C87 1.376 . S
C86 H109 0.930 . S
C87 C86 1.376 . S
C87 C88 1.370 . S
C88 C87 1.370 . S
C88 C89 1.396 . S
C88 H110 0.929 . S
C89 C84 1.373 . S
C89 C88 1.396 . S
C89 H111 0.929 . S
C90 O100 1.240 . S
C90 O101 1.289 . S
C91 O102 1.258 . S
C91 O103 1.256 . S
O92 La72 2.521 . S
O92 C74 1.261 . S
O93 La72 2.628 . S
O93 C74 1.243 . S
O94 La72 2.554 1_565 S
O94 C81 1.240 . S
O95 La72 2.757 1_565 S
O95 La73 2.482 1_455 S
O95 C81 1.289 . S
O96 La72 2.470 . S
O96 C82 1.258 . S
O97 La73 2.503 1_445 S
O97 C82 1.256 . S
O98 La73 2.521 . S
O98 C83 1.261 . S
O99 La73 2.628 . S
O99 C83 1.243 . S
O100 La73 2.554 1_545 S
O100 C90 1.240 . S
O101 La72 2.482 1_655 S
O101 La73 2.757 1_545 S
O101 C90 1.289 . S
O102 La73 2.470 . S
O102 C91 1.258 . S
O103 La72 2.503 1_665 S
O103 C91 1.256 . S
H104 C76 0.930 . S
H105 C77 0.930 . S
H106 C79 0.929 . S
H107 C80 0.929 . S
H108 C85 0.930 . S
H109 C86 0.930 . S
H110 C88 0.929 . S
H111 C89 0.929 . S
La112 C114 2.917 1_565 S
La112 O132 2.519 1_565 S
La112 O133 2.609 1_565 S
La112 O134 2.570 . S
La112 O135 2.766 . S
La112 O136 2.459 1_565 S
La112 O141 2.466 1_564 S
La112 O143 2.515 1_554 S
La113 C123 2.928 1_545 S
La113 O135 2.482 1_546 S
La113 O137 2.503 1_556 S
La113 O138 2.521 1_545 S
La113 O139 2.628 1_545 S
La113 O140 2.554 . S
La113 O141 2.757 . S
La113 O142 2.470 1_545 S
C114 La112 2.917 1_545 S
C114 C115 1.503 . S
C114 O132 1.261 . S
C114 O133 1.243 . S
C115 C114 1.503 . S
C115 C116 1.394 . S
C115 C120 1.373 . S
C116 C115 1.394 . S
C116 C117 1.380 . S
C116 H144 0.930 . S
C117 C116 1.380 . S
C117 C118 1.376 . S
C117 H145 0.930 . S
C118 C117 1.376 . S
C118 C119 1.370 . S
C119 C118 1.370 . S
C119 C120 1.396 . S
C119 H146 0.929 . S
C120 C115 1.373 . S
C120 C119 1.396 . S
C120 H147 0.929 . S
C121 O134 1.240 . S
C121 O135 1.289 . S
C122 O136 1.258 . S
C122 O137 1.256 . S
C123 La113 2.928 1_565 S
C123 C124 1.503 . S
C123 O138 1.261 . S
C123 O139 1.243 . S
C124 C123 1.503 . S
C124 C125 1.394 . S
C124 C129 1.373 . S
C125 C124 1.394 . S
C125 C126 1.380 . S
C125 H148 0.930 . S
C126 C125 1.380 . S
C126 C127 1.376 . S
C126 H149 0.930 . S
C127 C126 1.376 . S
C127 C128 1.370 . S
C128 C127 1.370 . S
C128 C129 1.396 . S
C128 H150 0.929 . S
C129 C124 1.373 . S
C129 C128 1.396 . S
C129 H151 0.929 . S
C130 O140 1.240 . S
C130 O141 1.289 . S
C131 O142 1.258 . S
C131 O143 1.256 . S
O132 La112 2.519 1_545 S
O132 C114 1.261 . S
O133 La112 2.609 1_545 S
O133 C114 1.243 . S
O134 La112 2.570 . S
O134 C121 1.240 . S
O135 La112 2.766 . S
O135 La113 2.482 1_564 S
O135 C121 1.289 . S
O136 La112 2.459 1_545 S
O136 C122 1.258 . S
O137 La113 2.503 1_554 S
O137 C122 1.256 . S
O138 La113 2.521 1_565 S
O138 C123 1.261 . S
O139 La113 2.628 1_565 S
O139 C123 1.243 . S
O140 La113 2.554 . S
O140 C130 1.240 . S
O141 La112 2.466 1_546 S
O141 La113 2.757 . S
O141 C130 1.289 . S
O142 La113 2.470 1_565 S
O142 C131 1.258 . S
O143 La112 2.515 1_556 S
O143 C131 1.256 . S
H144 C116 0.930 . S
H145 C117 0.930 . S
H146 C119 0.929 . S
H147 C120 0.929 . S
H148 C125 0.930 . S
H149 C126 0.930 . S
H150 C128 0.929 . S
H151 C129 0.929 . S
La152 C154 2.928 . S
La152 O172 2.521 . S
La152 O173 2.628 . S
La152 O174 2.554 . S
La152 O175 2.757 . S
La152 O176 2.470 . S
La152 O181 2.482 . S
La152 O183 2.503 . S
La153 C163 2.928 . S
La153 O175 2.482 . S
La153 O177 2.503 . S
La153 O178 2.521 . S
La153 O179 2.628 . S
La153 O180 2.554 . S
La153 O181 2.757 . S
La153 O182 2.470 . S
C154 La152 2.928 . S
C154 C155 1.503 . S
C154 O172 1.261 . S
C154 O173 1.243 . S
C155 C154 1.503 . S
C155 C156 1.394 . S
C155 C160 1.373 . S
C156 C155 1.394 . S
C156 C157 1.380 . S
C156 H184 0.930 . S
C157 C156 1.380 . S
C157 C158 1.376 . S
C157 H185 0.930 . S
C158 C157 1.376 . S
C158 C159 1.370 . S
C159 C158 1.370 . S
C159 C160 1.396 . S
C159 H186 0.929 . S
C160 C155 1.373 . S
C160 C159 1.396 . S
C160 H187 0.929 . S
C161 O174 1.240 . S
C161 O175 1.289 . S
C162 O176 1.258 . S
C162 O177 1.256 . S
C163 La153 2.928 . S
C163 C164 1.503 . S
C163 O178 1.261 . S
C163 O179 1.243 . S
C164 C163 1.503 . S
C164 C165 1.394 . S
C164 C169 1.373 . S
C165 C164 1.394 . S
C165 C166 1.380 . S
C165 H188 0.930 . S
C166 C165 1.380 . S
C166 C167 1.376 . S
C166 H189 0.930 . S
C167 C166 1.376 . S
C167 C168 1.370 . S
C168 C167 1.370 . S
C168 C169 1.396 . S
C168 H190 0.929 . S
C169 C164 1.373 . S
C169 C168 1.396 . S
C169 H191 0.929 . S
C170 O180 1.240 . S
C170 O181 1.289 . S
C171 O182 1.258 . S
C171 O183 1.256 . S
O172 La152 2.521 . S
O172 C154 1.261 . S
O173 La152 2.628 . S
O173 C154 1.243 . S
O174 La152 2.554 . S
O174 C161 1.240 . S
O175 La152 2.757 . S
O175 La153 2.482 . S
O175 C161 1.289 . S
O176 La152 2.470 . S
O176 C162 1.258 . S
O177 La153 2.503 . S
O177 C162 1.256 . S
O178 La153 2.521 . S
O178 C163 1.261 . S
O179 La153 2.628 . S
O179 C163 1.243 . S
O180 La153 2.554 . S
O180 C170 1.240 . S
O181 La152 2.482 . S
O181 La153 2.757 . S
O181 C170 1.289 . S
O182 La153 2.470 . S
O182 C171 1.258 . S
O183 La152 2.503 . S
O183 C171 1.256 . S
H184 C156 0.930 . S
H185 C157 0.930 . S
H186 C159 0.929 . S
H187 C160 0.929 . S
H188 C165 0.930 . S
H189 C166 0.930 . S
H190 C168 0.929 . S
H191 C169 0.929 . S
La192 C194 2.928 . S
La192 O212 2.521 . S
La192 O213 2.628 . S
La192 O214 2.554 1_455 S
La192 O215 2.757 1_455 S
La192 O216 2.470 . S
La192 O221 2.482 1_554 S
La192 O223 2.503 1_454 S
La193 C203 2.928 . S
La193 O215 2.482 1_556 S
La193 O217 2.503 1_656 S
La193 O218 2.521 . S
La193 O219 2.628 . S
La193 O220 2.554 1_655 S
La193 O221 2.757 1_655 S
La193 O222 2.470 . S
C194 La192 2.928 . S
C194 C195 1.503 . S
C194 O212 1.261 . S
C194 O213 1.243 . S
C195 C194 1.503 . S
C195 C196 1.394 . S
C195 C200 1.373 . S
C196 C195 1.394 . S
C196 C197 1.380 . S
C196 H224 0.930 . S
C197 C196 1.380 . S
C197 C198 1.376 . S
C197 H225 0.930 . S
C198 C197 1.376 . S
C198 C199 1.370 . S
C199 C198 1.370 . S
C199 C200 1.396 . S
C199 H226 0.929 . S
C200 C195 1.373 . S
C200 C199 1.396 . S
C200 H227 0.929 . S
C201 O214 1.240 . S
C201 O215 1.289 . S
C202 O216 1.258 . S
C202 O217 1.256 . S
C203 La193 2.928 . S
C203 C204 1.503 . S
C203 O218 1.261 . S
C203 O219 1.243 . S
C204 C203 1.503 . S
C204 C205 1.394 . S
C204 C209 1.373 . S
C205 C204 1.394 . S
C205 C206 1.380 . S
C205 H228 0.930 . S
C206 C205 1.380 . S
C206 C207 1.376 . S
C206 H229 0.930 . S
C207 C206 1.376 . S
C207 C208 1.370 . S
C208 C207 1.370 . S
C208 C209 1.396 . S
C208 H230 0.929 . S
C209 C204 1.373 . S
C209 C208 1.396 . S
C209 H231 0.929 . S
C210 O220 1.240 . S
C210 O221 1.289 . S
C211 O222 1.258 . S
C211 O223 1.256 . S
O212 La192 2.521 . S
O212 C194 1.261 . S
O213 La192 2.628 . S
O213 C194 1.243 . S
O214 La192 2.554 1_655 S
O214 C201 1.240 . S
O215 La192 2.757 1_655 S
O215 La193 2.482 1_554 S
O215 C201 1.289 . S
O216 La192 2.470 . S
O216 C202 1.258 . S
O217 La193 2.503 1_454 S
O217 C202 1.256 . S
O218 La193 2.521 . S
O218 C203 1.261 . S
O219 La193 2.628 . S
O219 C203 1.243 . S
O220 La193 2.554 1_455 S
O220 C210 1.240 . S
O221 La192 2.482 1_556 S
O221 La193 2.757 1_455 S
O221 C210 1.289 . S
O222 La193 2.470 . S
O222 C211 1.258 . S
O223 La192 2.503 1_656 S
O223 C211 1.256 . S
H224 C196 0.930 . S
H225 C197 0.930 . S
H226 C199 0.929 . S
H227 C200 0.929 . S
H228 C205 0.930 . S
H229 C206 0.930 . S
H230 C208 0.929 . S
H231 C209 0.929 . S
H232 C240 0.929 . S
H233 C242 0.930 . S
H234 C244 0.930 . S
H235 C247 0.929 . S
H236 C250 0.930 . S
H237 C252 0.960 . S
H238 C252 0.960 . S
H239 C252 0.960 . S
C240 H232 0.929 . S
C240 C241 1.377 . S
C240 C242 1.384 . S
C241 C240 1.377 . S
C241 C247 1.390 . S
C242 H233 0.930 . S
C242 C240 1.384 . S
C242 C243 1.372 . S
C243 C242 1.372 . S
C243 C244 1.400 . S
C243 C248 1.490 . S
C244 H234 0.930 . S
C244 C243 1.400 . S
C244 C247 1.386 . S
H245 C261 0.930 . S
H246 C262 0.931 . S
C247 H235 0.929 . S
C247 C241 1.390 . S
C247 C244 1.386 . S
C248 C243 1.490 . S
C248 C250 1.395 . S
C248 C251 1.403 . S
H249 C255 0.930 . S
C250 H236 0.930 . S
C250 C248 1.395 . S
C250 C253 1.403 . S
C251 C248 1.403 . S
C251 C252 1.524 . S
C251 C255 1.400 . S
C252 H237 0.960 . S
C252 H238 0.960 . S
C252 H239 0.960 . S
C252 C251 1.524 . S
C253 C250 1.403 . S
C253 C254 1.392 . S
C253 C257 1.495 . S
C254 C253 1.392 . S
C254 C255 1.385 . S
C254 C256 1.478 . S
C255 H249 0.930 . S
C255 C251 1.400 . S
C255 C254 1.385 . S
C256 C254 1.478 . S
C256 C258 1.381 . S
C256 C262 1.383 . S
C257 C253 1.495 . S
C257 H263 0.959 . S
C257 H264 0.961 . S
C257 H265 0.960 . S
C258 C256 1.381 . S
C258 C259 1.394 . S
C258 H266 0.930 . S
C259 C258 1.394 . S
C259 C260 1.383 . S
C259 H267 0.929 . S
C260 C259 1.383 . S
C260 C261 1.377 . S
C261 H245 0.930 . S
C261 C260 1.377 . S
C261 C262 1.379 . S
C262 H246 0.931 . S
C262 C256 1.383 . S
C262 C261 1.379 . S
H263 C257 0.959 . S
H264 C257 0.961 . S
H265 C257 0.960 . S
H266 C258 0.930 . S
H267 C259 0.929 . S
H268 C276 0.929 . S
H269 C278 0.930 . S
H270 C280 0.930 . S
H271 C283 0.929 . S
H272 C286 0.930 . S
H273 C288 0.960 . S
H274 C288 0.960 . S
H275 C288 0.960 . S
C276 H268 0.929 . S
C276 C277 1.377 . S
C276 C278 1.384 . S
C277 C276 1.377 . S
C277 C283 1.390 . S
C278 H269 0.930 . S
C278 C276 1.384 . S
C278 C279 1.372 . S
C279 C278 1.372 . S
C279 C280 1.400 . S
C279 C284 1.490 . S
C280 H270 0.930 . S
C280 C279 1.400 . S
C280 C283 1.386 . S
H281 C297 0.930 . S
H282 C298 0.931 . S
C283 H271 0.929 . S
C283 C277 1.390 . S
C283 C280 1.386 . S
C284 C279 1.490 . S
C284 C286 1.395 . S
C284 C287 1.403 . S
H285 C291 0.930 . S
C286 H272 0.930 . S
C286 C284 1.395 . S
C286 C289 1.403 . S
C287 C284 1.403 . S
C287 C288 1.524 . S
C287 C291 1.400 . S
C288 H273 0.960 . S
C288 H274 0.960 . S
C288 H275 0.960 . S
C288 C287 1.524 . S
C289 C286 1.403 . S
C289 C290 1.392 . S
C289 C293 1.495 . S
C290 C289 1.392 . S
C290 C291 1.385 . S
C290 C292 1.478 . S
C291 H285 0.930 . S
C291 C287 1.400 . S
C291 C290 1.385 . S
C292 C290 1.478 . S
C292 C294 1.381 . S
C292 C298 1.383 . S
C293 C289 1.495 . S
C293 H299 0.959 . S
C293 H300 0.961 . S
C293 H301 0.960 . S
C294 C292 1.381 . S
C294 C295 1.394 . S
C294 H302 0.930 . S
C295 C294 1.394 . S
C295 C296 1.383 . S
C295 H303 0.929 . S
C296 C295 1.383 . S
C296 C297 1.377 . S
C297 H281 0.930 . S
C297 C296 1.377 . S
C297 C298 1.379 . S
C298 H282 0.931 . S
C298 C292 1.383 . S
C298 C297 1.379 . S
H299 C293 0.959 . S
H300 C293 0.961 . S
H301 C293 0.960 . S
H302 C294 0.930 . S
H303 C295 0.929 . S
H304 C312 0.929 . S
H305 C314 0.930 . S
H306 C316 0.930 . S
H307 C319 0.929 . S
H308 C322 0.930 . S
H309 C324 0.960 . S
H310 C324 0.960 . S
H311 C324 0.960 . S
C312 H304 0.929 . S
C312 C313 1.377 . S
C312 C314 1.384 . S
C313 C312 1.377 . S
C313 C319 1.390 . S
C314 H305 0.930 . S
C314 C312 1.384 . S
C314 C315 1.372 . S
C315 C314 1.372 . S
C315 C316 1.400 . S
C315 C320 1.490 . S
C316 H306 0.930 . S
C316 C315 1.400 . S
C316 C319 1.386 . S
H317 C333 0.930 . S
H318 C334 0.931 . S
C319 H307 0.929 . S
C319 C313 1.390 . S
C319 C316 1.386 . S
C320 C315 1.490 . S
C320 C322 1.395 . S
C320 C323 1.403 . S
H321 C327 0.930 . S
C322 H308 0.930 . S
C322 C320 1.395 . S
C322 C325 1.403 . S
C323 C320 1.403 . S
C323 C324 1.524 . S
C323 C327 1.400 . S
C324 H309 0.960 . S
C324 H310 0.960 . S
C324 H311 0.960 . S
C324 C323 1.524 . S
C325 C322 1.403 . S
C325 C326 1.392 . S
C325 C329 1.495 . S
C326 C325 1.392 . S
C326 C327 1.385 . S
C326 C328 1.478 . S
C327 H321 0.930 . S
C327 C323 1.400 . S
C327 C326 1.385 . S
C328 C326 1.478 . S
C328 C330 1.381 . S
C328 C334 1.383 . S
C329 C325 1.495 . S
C329 H335 0.959 . S
C329 H336 0.961 . S
C329 H337 0.960 . S
C330 C328 1.381 . S
C330 C331 1.394 . S
C330 H338 0.930 . S
C331 C330 1.394 . S
C331 C332 1.383 . S
C331 H339 0.929 . S
C332 C331 1.383 . S
C332 C333 1.377 . S
C333 H317 0.930 . S
C333 C332 1.377 . S
C333 C334 1.379 . S
C334 H318 0.931 . S
C334 C328 1.383 . S
C334 C333 1.379 . S
H335 C329 0.959 . S
H336 C329 0.961 . S
H337 C329 0.960 . S
H338 C330 0.930 . S
H339 C331 0.929 . S
H340 C348 0.929 . S
H341 C350 0.930 . S
H342 C352 0.930 . S
H343 C355 0.929 . S
H344 C358 0.930 . S
H345 C360 0.960 . S
H346 C360 0.960 . S
H347 C360 0.960 . S
C348 H340 0.929 . S
C348 C349 1.377 . S
C348 C350 1.384 . S
C349 C348 1.377 . S
C349 C355 1.390 . S
C350 H341 0.930 . S
C350 C348 1.384 . S
C350 C351 1.372 . S
C351 C350 1.372 . S
C351 C352 1.400 . S
C351 C356 1.490 . S
C352 H342 0.930 . S
C352 C351 1.400 . S
C352 C355 1.386 . S
H353 C369 0.930 . S
H354 C370 0.931 . S
C355 H343 0.929 . S
C355 C349 1.390 . S
C355 C352 1.386 . S
C356 C351 1.490 . S
C356 C358 1.395 . S
C356 C359 1.403 . S
H357 C363 0.930 . S
C358 H344 0.930 . S
C358 C356 1.395 . S
C358 C361 1.403 . S
C359 C356 1.403 . S
C359 C360 1.524 . S
C359 C363 1.400 . S
C360 H345 0.960 . S
C360 H346 0.960 . S
C360 H347 0.960 . S
C360 C359 1.524 . S
C361 C358 1.403 . S
C361 C362 1.392 . S
C361 C365 1.495 . S
C362 C361 1.392 . S
C362 C363 1.385 . S
C362 C364 1.478 . S
C363 H357 0.930 . S
C363 C359 1.400 . S
C363 C362 1.385 . S
C364 C362 1.478 . S
C364 C366 1.381 . S
C364 C370 1.383 . S
C365 C361 1.495 . S
C365 H371 0.959 . S
C365 H372 0.961 . S
C365 H373 0.960 . S
C366 C364 1.381 . S
C366 C367 1.394 . S
C366 H374 0.930 . S
C367 C366 1.394 . S
C367 C368 1.383 . S
C367 H375 0.929 . S
C368 C367 1.383 . S
C368 C369 1.377 . S
C369 H353 0.930 . S
C369 C368 1.377 . S
C369 C370 1.379 . S
C370 H354 0.931 . S
C370 C364 1.383 . S
C370 C369 1.379 . S
H371 C365 0.959 . S
H372 C365 0.961 . S
H373 C365 0.960 . S
H374 C366 0.930 . S
H375 C367 0.929 . S
H376 C384 0.929 . S
H377 C386 0.930 . S
H378 C388 0.930 . S
H379 C391 0.929 . S
H380 C394 0.930 . S
H381 C396 0.960 . S
H382 C396 0.960 . S
H383 C396 0.960 . S
C384 H376 0.929 . S
C384 C385 1.377 . S
C384 C386 1.384 . S
C385 C384 1.377 . S
C385 C391 1.390 . S
C386 H377 0.930 . S
C386 C384 1.384 . S
C386 C387 1.372 . S
C387 C386 1.372 . S
C387 C388 1.400 . S
C387 C392 1.490 . S
C388 H378 0.930 . S
C388 C387 1.400 . S
C388 C391 1.386 . S
H389 C405 0.930 . S
H390 C406 0.931 . S
C391 H379 0.929 . S
C391 C385 1.390 . S
C391 C388 1.386 . S
C392 C387 1.490 . S
C392 C394 1.395 . S
C392 C395 1.403 . S
H393 C399 0.930 . S
C394 H380 0.930 . S
C394 C392 1.395 . S
C394 C397 1.403 . S
C395 C392 1.403 . S
C395 C396 1.524 . S
C395 C399 1.400 . S
C396 H381 0.960 . S
C396 H382 0.960 . S
C396 H383 0.960 . S
C396 C395 1.524 . S
C397 C394 1.403 . S
C397 C398 1.392 . S
C397 C401 1.495 . S
C398 C397 1.392 . S
C398 C399 1.385 . S
C398 C400 1.478 . S
C399 H393 0.930 . S
C399 C395 1.400 . S
C399 C398 1.385 . S
C400 C398 1.478 . S
C400 C402 1.381 . S
C400 C406 1.383 . S
C401 C397 1.495 . S
C401 H407 0.959 . S
C401 H408 0.961 . S
C401 H409 0.960 . S
C402 C400 1.381 . S
C402 C403 1.394 . S
C402 H410 0.930 . S
C403 C402 1.394 . S
C403 C404 1.383 . S
C403 H411 0.929 . S
C404 C403 1.383 . S
C404 C405 1.377 . S
C405 H389 0.930 . S
C405 C404 1.377 . S
C405 C406 1.379 . S
C406 H390 0.931 . S
C406 C400 1.383 . S
C406 C405 1.379 . S
H407 C401 0.959 . S
H408 C401 0.961 . S
H409 C401 0.960 . S
H410 C402 0.930 . S
H411 C403 0.929 . S
H412 C420 0.929 . S
H413 C422 0.930 . S
H414 C424 0.930 . S
H415 C427 0.929 . S
H416 C430 0.930 . S
H417 C432 0.960 . S
H418 C432 0.960 . S
H419 C432 0.960 . S
C420 H412 0.929 . S
C420 C421 1.377 . S
C420 C422 1.384 . S
C421 C420 1.377 . S
C421 C427 1.390 . S
C422 H413 0.930 . S
C422 C420 1.384 . S
C422 C423 1.372 . S
C423 C422 1.372 . S
C423 C424 1.400 . S
C423 C428 1.490 . S
C424 H414 0.930 . S
C424 C423 1.400 . S
C424 C427 1.386 . S
H425 C441 0.930 . S
H426 C442 0.931 . S
C427 H415 0.929 . S
C427 C421 1.390 . S
C427 C424 1.386 . S
C428 C423 1.490 . S
C428 C430 1.395 . S
C428 C431 1.403 . S
H429 C435 0.930 . S
C430 H416 0.930 . S
C430 C428 1.395 . S
C430 C433 1.403 . S
C431 C428 1.403 . S
C431 C432 1.524 . S
C431 C435 1.400 . S
C432 H417 0.960 . S
C432 H418 0.960 . S
C432 H419 0.960 . S
C432 C431 1.524 . S
C433 C430 1.403 . S
C433 C434 1.392 . S
C433 C437 1.495 . S
C434 C433 1.392 . S
C434 C435 1.385 . S
C434 C436 1.478 . S
C435 H429 0.930 . S
C435 C431 1.400 . S
C435 C434 1.385 . S
C436 C434 1.478 . S
C436 C438 1.381 . S
C436 C442 1.383 . S
C437 C433 1.495 . S
C437 H443 0.959 . S
C437 H444 0.961 . S
C437 H445 0.960 . S
C438 C436 1.381 . S
C438 C439 1.394 . S
C438 H446 0.930 . S
C439 C438 1.394 . S
C439 C440 1.383 . S
C439 H447 0.929 . S
C440 C439 1.383 . S
C440 C441 1.377 . S
C441 H425 0.930 . S
C441 C440 1.377 . S
C441 C442 1.379 . S
C442 H426 0.931 . S
C442 C436 1.383 . S
C442 C441 1.379 . S
H443 C437 0.959 . S
H444 C437 0.961 . S
H445 C437 0.960 . S
H446 C438 0.930 . S
H447 C439 0.929 . S
H448 C456 0.929 . S
H449 C458 0.930 . S
H450 C460 0.930 . S
H451 C463 0.929 . S
H452 C466 0.930 . S
H453 C468 0.960 . S
H454 C468 0.960 . S
H455 C468 0.960 . S
C456 H448 0.929 . S
C456 C457 1.377 . S
C456 C458 1.384 . S
C457 C456 1.377 . S
C457 C463 1.390 . S
C458 H449 0.930 . S
C458 C456 1.384 . S
C458 C459 1.372 . S
C459 C458 1.372 . S
C459 C460 1.400 . S
C459 C464 1.490 . S
C460 H450 0.930 . S
C460 C459 1.400 . S
C460 C463 1.386 . S
H461 C477 0.930 . S
H462 C478 0.931 . S
C463 H451 0.929 . S
C463 C457 1.390 . S
C463 C460 1.386 . S
C464 C459 1.490 . S
C464 C466 1.395 . S
C464 C467 1.403 . S
H465 C471 0.930 . S
C466 H452 0.930 . S
C466 C464 1.395 . S
C466 C469 1.403 . S
C467 C464 1.403 . S
C467 C468 1.524 . S
C467 C471 1.400 . S
C468 H453 0.960 . S
C468 H454 0.960 . S
C468 H455 0.960 . S
C468 C467 1.524 . S
C469 C466 1.403 . S
C469 C470 1.392 . S
C469 C473 1.495 . S
C470 C469 1.392 . S
C470 C471 1.385 . S
C470 C472 1.478 . S
C471 H465 0.930 . S
C471 C467 1.400 . S
C471 C470 1.385 . S
C472 C470 1.478 . S
C472 C474 1.381 . S
C472 C478 1.383 . S
C473 C469 1.495 . S
C473 H479 0.959 . S
C473 H480 0.961 . S
C473 H481 0.960 . S
C474 C472 1.381 . S
C474 C475 1.394 . S
C474 H482 0.930 . S
C475 C474 1.394 . S
C475 C476 1.383 . S
C475 H483 0.930 . S
C476 C475 1.383 . S
C476 C477 1.377 . S
C477 H461 0.930 . S
C477 C476 1.377 . S
C477 C478 1.379 . S
C478 H462 0.931 . S
C478 C472 1.383 . S
C478 C477 1.379 . S
H479 C473 0.959 . S
H480 C473 0.961 . S
H481 C473 0.960 . S
H482 C474 0.930 . S
H483 C475 0.930 . S
H484 C492 0.929 . S
H485 C494 0.930 . S
H486 C496 0.930 . S
H487 C499 0.929 . S
H488 C502 0.930 . S
H489 C504 0.960 . S
H490 C504 0.960 . S
H491 C504 0.960 . S
C492 H484 0.929 . S
C492 C493 1.377 . S
C492 C494 1.384 . S
C493 C492 1.377 . S
C493 C499 1.390 . S
C494 H485 0.930 . S
C494 C492 1.384 . S
C494 C495 1.372 . S
C495 C494 1.372 . S
C495 C496 1.400 . S
C495 C500 1.490 . S
C496 H486 0.930 . S
C496 C495 1.400 . S
C496 C499 1.386 . S
H497 C513 0.930 . S
H498 C514 0.931 . S
C499 H487 0.929 . S
C499 C493 1.390 . S
C499 C496 1.386 . S
C500 C495 1.490 . S
C500 C502 1.395 . S
C500 C503 1.403 . S
H501 C507 0.930 . S
C502 H488 0.930 . S
C502 C500 1.395 . S
C502 C505 1.403 . S
C503 C500 1.403 . S
C503 C504 1.524 . S
C503 C507 1.400 . S
C504 H489 0.960 . S
C504 H490 0.960 . S
C504 H491 0.960 . S
C504 C503 1.524 . S
C505 C502 1.403 . S
C505 C506 1.392 . S
C505 C509 1.495 . S
C506 C505 1.392 . S
C506 C507 1.385 . S
C506 C508 1.478 . S
C507 H501 0.930 . S
C507 C503 1.400 . S
C507 C506 1.385 . S
C508 C506 1.478 . S
C508 C510 1.381 . S
C508 C514 1.383 . S
C509 C505 1.495 . S
C509 H515 0.959 . S
C509 H516 0.961 . S
C509 H517 0.960 . S
C510 C508 1.381 . S
C510 C511 1.394 . S
C510 H518 0.930 . S
C511 C510 1.394 . S
C511 C512 1.383 . S
C511 H519 0.929 . S
C512 C511 1.383 . S
C512 C513 1.377 . S
C513 H497 0.930 . S
C513 C512 1.377 . S
C513 C514 1.379 . S
C514 H498 0.931 . S
C514 C508 1.383 . S
C514 C513 1.379 . S
H515 C509 0.959 . S
H516 C509 0.961 . S
H517 C509 0.960 . S
H518 C510 0.930 . S
H519 C511 0.929 . S
H520 C528 0.929 . S
H521 C530 0.930 . S
H522 C532 0.930 . S
H523 C535 0.929 . S
H524 C538 0.930 . S
H525 C540 0.960 . S
H526 C540 0.960 . S
H527 C540 0.960 . S
C528 H520 0.929 . S
C528 C529 1.377 . S
C528 C530 1.384 . S
C529 C528 1.377 . S
C529 C535 1.390 . S
C530 H521 0.930 . S
C530 C528 1.384 . S
C530 C531 1.372 . S
C531 C530 1.372 . S
C531 C532 1.400 . S
C531 C536 1.490 . S
C532 H522 0.930 . S
C532 C531 1.400 . S
C532 C535 1.386 . S
H533 C549 0.930 . S
H534 C550 0.931 . S
C535 H523 0.929 . S
C535 C529 1.390 . S
C535 C532 1.386 . S
C536 C531 1.490 . S
C536 C538 1.395 . S
C536 C539 1.403 . S
H537 C543 0.930 . S
C538 H524 0.930 . S
C538 C536 1.395 . S
C538 C541 1.403 . S
C539 C536 1.403 . S
C539 C540 1.524 . S
C539 C543 1.400 . S
C540 H525 0.960 . S
C540 H526 0.960 . S
C540 H527 0.960 . S
C540 C539 1.524 . S
C541 C538 1.403 . S
C541 C542 1.392 . S
C541 C545 1.495 . S
C542 C541 1.392 . S
C542 C543 1.385 . S
C542 C544 1.478 . S
C543 H537 0.930 . S
C543 C539 1.400 . S
C543 C542 1.385 . S
C544 C542 1.478 . S
C544 C546 1.381 . S
C544 C550 1.383 . S
C545 C541 1.495 . S
C545 H551 0.959 . S
C545 H552 0.961 . S
C545 H553 0.960 . S
C546 C544 1.381 . S
C546 C547 1.394 . S
C546 H554 0.930 . S
C547 C546 1.394 . S
C547 C548 1.383 . S
C547 H555 0.929 . S
C548 C547 1.383 . S
C548 C549 1.377 . S
C549 H533 0.930 . S
C549 C548 1.377 . S
C549 C550 1.379 . S
C550 H534 0.931 . S
C550 C544 1.383 . S
C550 C549 1.379 . S
H551 C545 0.959 . S
H552 C545 0.961 . S
H553 C545 0.960 . S
H554 C546 0.930 . S
H555 C547 0.929 . S
H556 C564 0.929 . S
H557 C566 0.930 . S
H558 C568 0.930 . S
H559 C571 0.929 . S
H560 C574 0.930 . S
H561 C576 0.960 . S
H562 C576 0.960 . S
H563 C576 0.960 . S
C564 H556 0.929 . S
C564 C565 1.377 . S
C564 C566 1.384 . S
C565 C564 1.377 . S
C565 C571 1.390 . S
C566 H557 0.930 . S
C566 C564 1.384 . S
C566 C567 1.372 . S
C567 C566 1.372 . S
C567 C568 1.400 . S
C567 C572 1.490 . S
C568 H558 0.930 . S
C568 C567 1.400 . S
C568 C571 1.386 . S
H569 C585 0.930 . S
H570 C586 0.931 . S
C571 H559 0.929 . S
C571 C565 1.390 . S
C571 C568 1.386 . S
C572 C567 1.490 . S
C572 C574 1.395 . S
C572 C575 1.403 . S
H573 C579 0.930 . S
C574 H560 0.930 . S
C574 C572 1.395 . S
C574 C577 1.403 . S
C575 C572 1.403 . S
C575 C576 1.524 . S
C575 C579 1.400 . S
C576 H561 0.960 . S
C576 H562 0.960 . S
C576 H563 0.960 . S
C576 C575 1.524 . S
C577 C574 1.403 . S
C577 C578 1.392 . S
C577 C581 1.495 . S
C578 C577 1.392 . S
C578 C579 1.385 . S
C578 C580 1.478 . S
C579 H573 0.930 . S
C579 C575 1.400 . S
C579 C578 1.385 . S
C580 C578 1.478 . S
C580 C582 1.381 . S
C580 C586 1.383 . S
C581 C577 1.495 . S
C581 H587 0.959 . S
C581 H588 0.961 . S
C581 H589 0.960 . S
C582 C580 1.381 . S
C582 C583 1.394 . S
C582 H590 0.930 . S
C583 C582 1.394 . S
C583 C584 1.383 . S
C583 H591 0.929 . S
C584 C583 1.383 . S
C584 C585 1.377 . S
C585 H569 0.930 . S
C585 C584 1.377 . S
C585 C586 1.379 . S
C586 H570 0.931 . S
C586 C580 1.383 . S
C586 C585 1.379 . S
H587 C581 0.959 . S
H588 C581 0.961 . S
H589 C581 0.960 . S
H590 C582 0.930 . S
H591 C583 0.929 . S
H592 C600 0.929 . S
H593 C602 0.930 . S
H594 C604 0.930 . S
H595 C607 0.929 . S
H596 C610 0.930 . S
H597 C612 0.960 . S
H598 C612 0.960 . S
H599 C612 0.960 . S
C600 H592 0.929 . S
C600 C601 1.377 . S
C600 C602 1.384 . S
C601 C600 1.377 . S
C601 C607 1.390 . S
C602 H593 0.930 . S
C602 C600 1.384 . S
C602 C603 1.372 . S
C603 C602 1.372 . S
C603 C604 1.400 . S
C603 C608 1.490 . S
C604 H594 0.930 . S
C604 C603 1.400 . S
C604 C607 1.386 . S
H605 C621 0.930 . S
H606 C622 0.931 . S
C607 H595 0.929 . S
C607 C601 1.390 . S
C607 C604 1.386 . S
C608 C603 1.490 . S
C608 C610 1.395 . S
C608 C611 1.403 . S
H609 C615 0.930 . S
C610 H596 0.930 . S
C610 C608 1.395 . S
C610 C613 1.403 . S
C611 C608 1.403 . S
C611 C612 1.524 . S
C611 C615 1.400 . S
C612 H597 0.960 . S
C612 H598 0.960 . S
C612 H599 0.960 . S
C612 C611 1.524 . S
C613 C610 1.403 . S
C613 C614 1.392 . S
C613 C617 1.495 . S
C614 C613 1.392 . S
C614 C615 1.385 . S
C614 C616 1.478 . S
C615 H609 0.930 . S
C615 C611 1.400 . S
C615 C614 1.385 . S
C616 C614 1.478 . S
C616 C618 1.381 . S
C616 C622 1.383 . S
C617 C613 1.495 . S
C617 H623 0.959 . S
C617 H624 0.961 . S
C617 H625 0.960 . S
C618 C616 1.381 . S
C618 C619 1.394 . S
C618 H626 0.930 . S
C619 C618 1.394 . S
C619 C620 1.383 . S
C619 H627 0.929 . S
C620 C619 1.383 . S
C620 C621 1.377 . S
C621 H605 0.930 . S
C621 C620 1.377 . S
C621 C622 1.379 . S
C622 H606 0.931 . S
C622 C616 1.383 . S
C622 C621 1.379 . S
H623 C617 0.959 . S
H624 C617 0.961 . S
H625 C617 0.960 . S
H626 C618 0.930 . S
H627 C619 0.929 . S
H628 C636 0.929 . S
H629 C638 0.930 . S
H630 C640 0.930 . S
H631 C643 0.929 . S
H632 C646 0.930 . S
H633 C648 0.960 . S
H634 C648 0.960 . S
H635 C648 0.960 . S
C636 H628 0.929 . S
C636 C637 1.377 . S
C636 C638 1.384 . S
C637 C636 1.377 . S
C637 C643 1.390 . S
C638 H629 0.930 . S
C638 C636 1.384 . S
C638 C639 1.372 . S
C639 C638 1.372 . S
C639 C640 1.400 . S
C639 C644 1.490 . S
C640 H630 0.930 . S
C640 C639 1.400 . S
C640 C643 1.386 . S
H641 C657 0.930 . S
H642 C658 0.931 . S
C643 H631 0.929 . S
C643 C637 1.390 . S
C643 C640 1.386 . S
C644 C639 1.490 . S
C644 C646 1.395 . S
C644 C647 1.403 . S
H645 C651 0.930 . S
C646 H632 0.930 . S
C646 C644 1.395 . S
C646 C649 1.403 . S
C647 C644 1.403 . S
C647 C648 1.524 . S
C647 C651 1.400 . S
C648 H633 0.960 . S
C648 H634 0.960 . S
C648 H635 0.960 . S
C648 C647 1.524 . S
C649 C646 1.403 . S
C649 C650 1.392 . S
C649 C653 1.495 . S
C650 C649 1.392 . S
C650 C651 1.385 . S
C650 C652 1.478 . S
C651 H645 0.930 . S
C651 C647 1.400 . S
C651 C650 1.385 . S
C652 C650 1.478 . S
C652 C654 1.381 . S
C652 C658 1.383 . S
C653 C649 1.495 . S
C653 H659 0.959 . S
C653 H660 0.961 . S
C653 H661 0.960 . S
C654 C652 1.381 . S
C654 C655 1.394 . S
C654 H662 0.930 . S
C655 C654 1.394 . S
C655 C656 1.383 . S
C655 H663 0.929 . S
C656 C655 1.383 . S
C656 C657 1.377 . S
C657 H641 0.930 . S
C657 C656 1.377 . S
C657 C658 1.379 . S
C658 H642 0.931 . S
C658 C652 1.383 . S
C658 C657 1.379 . S
H659 C653 0.959 . S
H660 C653 0.961 . S
H661 C653 0.960 . S
H662 C654 0.930 . S
H663 C655 0.929 . S
H664 C672 0.929 . S
H665 C674 0.930 . S
H666 C676 0.930 . S
H667 C679 0.929 . S
H668 C682 0.930 . S
H669 C684 0.960 . S
H670 C684 0.960 . S
H671 C684 0.960 . S
C672 H664 0.929 . S
C672 C673 1.377 . S
C672 C674 1.384 . S
C673 C672 1.377 . S
C673 C679 1.390 . S
C674 H665 0.930 . S
C674 C672 1.384 . S
C674 C675 1.372 . S
C675 C674 1.372 . S
C675 C676 1.400 . S
C675 C680 1.490 . S
C676 H666 0.930 . S
C676 C675 1.400 . S
C676 C679 1.386 . S
H677 C693 0.930 . S
H678 C694 0.931 . S
C679 H667 0.929 . S
C679 C673 1.390 . S
C679 C676 1.386 . S
C680 C675 1.490 . S
C680 C682 1.395 . S
C680 C683 1.403 . S
H681 C687 0.930 . S
C682 H668 0.930 . S
C682 C680 1.395 . S
C682 C685 1.403 . S
C683 C680 1.403 . S
C683 C684 1.524 . S
C683 C687 1.400 . S
C684 H669 0.960 . S
C684 H670 0.960 . S
C684 H671 0.960 . S
C684 C683 1.524 . S
C685 C682 1.403 . S
C685 C686 1.392 . S
C685 C689 1.495 . S
C686 C685 1.392 . S
C686 C687 1.385 . S
C686 C688 1.478 . S
C687 H681 0.930 . S
C687 C683 1.400 . S
C687 C686 1.385 . S
C688 C686 1.478 . S
C688 C690 1.381 . S
C688 C694 1.383 . S
C689 C685 1.495 . S
C689 H695 0.959 . S
C689 H696 0.961 . S
C689 H697 0.960 . S
C690 C688 1.381 . S
C690 C691 1.394 . S
C690 H698 0.930 . S
C691 C690 1.394 . S
C691 C692 1.383 . S
C691 H699 0.929 . S
C692 C691 1.383 . S
C692 C693 1.377 . S
C693 H677 0.930 . S
C693 C692 1.377 . S
C693 C694 1.379 . S
C694 H678 0.931 . S
C694 C688 1.383 . S
C694 C693 1.379 . S
H695 C689 0.959 . S
H696 C689 0.961 . S
H697 C689 0.960 . S
H698 C690 0.930 . S
H699 C691 0.929 . S
H700 C708 0.929 . S
H701 C710 0.930 . S
H702 C712 0.930 . S
H703 C715 0.929 . S
H704 C718 0.930 . S
H705 C720 0.960 . S
H706 C720 0.960 . S
H707 C720 0.960 . S
C708 H700 0.929 . S
C708 C709 1.377 . S
C708 C710 1.384 . S
C709 C708 1.377 . S
C709 C715 1.390 . S
C710 H701 0.930 . S
C710 C708 1.384 . S
C710 C711 1.372 . S
C711 C710 1.372 . S
C711 C712 1.400 . S
C711 C716 1.490 . S
C712 H702 0.930 . S
C712 C711 1.400 . S
C712 C715 1.386 . S
H713 C729 0.930 . S
H714 C730 0.931 . S
C715 H703 0.929 . S
C715 C709 1.390 . S
C715 C712 1.386 . S
C716 C711 1.490 . S
C716 C718 1.395 . S
C716 C719 1.403 . S
H717 C723 0.930 . S
C718 H704 0.930 . S
C718 C716 1.395 . S
C718 C721 1.403 . S
C719 C716 1.403 . S
C719 C720 1.524 . S
C719 C723 1.400 . S
C720 H705 0.960 . S
C720 H706 0.960 . S
C720 H707 0.960 . S
C720 C719 1.524 . S
C721 C718 1.403 . S
C721 C722 1.392 . S
C721 C725 1.495 . S
C722 C721 1.392 . S
C722 C723 1.385 . S
C722 C724 1.478 . S
C723 H717 0.930 . S
C723 C719 1.400 . S
C723 C722 1.385 . S
C724 C722 1.478 . S
C724 C726 1.381 . S
C724 C730 1.383 . S
C725 C721 1.495 . S
C725 H731 0.959 . S
C725 H732 0.961 . S
C725 H733 0.960 . S
C726 C724 1.381 . S
C726 C727 1.394 . S
C726 H734 0.930 . S
C727 C726 1.394 . S
C727 C728 1.383 . S
C727 H735 0.929 . S
C728 C727 1.383 . S
C728 C729 1.377 . S
C729 H713 0.930 . S
C729 C728 1.377 . S
C729 C730 1.379 . S
C730 H714 0.931 . S
C730 C724 1.383 . S
C730 C729 1.379 . S
H731 C725 0.959 . S
H732 C725 0.961 . S
H733 C725 0.960 . S
H734 C726 0.930 . S
H735 C727 0.929 . S
H736 C744 0.929 . S
H737 C746 0.930 . S
H738 C748 0.930 . S
H739 C751 0.929 . S
H740 C754 0.930 . S
H741 C756 0.960 . S
H742 C756 0.960 . S
H743 C756 0.960 . S
C744 H736 0.929 . S
C744 C745 1.377 . S
C744 C746 1.384 . S
C745 C744 1.377 . S
C745 C751 1.390 . S
C746 H737 0.930 . S
C746 C744 1.384 . S
C746 C747 1.372 . S
C747 C746 1.372 . S
C747 C748 1.400 . S
C747 C752 1.490 . S
C748 H738 0.930 . S
C748 C747 1.400 . S
C748 C751 1.386 . S
H749 C765 0.930 . S
H750 C766 0.931 . S
C751 H739 0.929 . S
C751 C745 1.390 . S
C751 C748 1.386 . S
C752 C747 1.490 . S
C752 C754 1.395 . S
C752 C755 1.403 . S
H753 C759 0.930 . S
C754 H740 0.930 . S
C754 C752 1.395 . S
C754 C757 1.403 . S
C755 C752 1.403 . S
C755 C756 1.524 . S
C755 C759 1.400 . S
C756 H741 0.960 . S
C756 H742 0.960 . S
C756 H743 0.960 . S
C756 C755 1.524 . S
C757 C754 1.403 . S
C757 C758 1.392 . S
C757 C761 1.495 . S
C758 C757 1.392 . S
C758 C759 1.385 . S
C758 C760 1.478 . S
C759 H753 0.930 . S
C759 C755 1.400 . S
C759 C758 1.385 . S
C760 C758 1.478 . S
C760 C762 1.381 . S
C760 C766 1.383 . S
C761 C757 1.495 . S
C761 H767 0.959 . S
C761 H768 0.961 . S
C761 H769 0.960 . S
C762 C760 1.381 . S
C762 C763 1.394 . S
C762 H770 0.930 . S
C763 C762 1.394 . S
C763 C764 1.383 . S
C763 H771 0.929 . S
C764 C763 1.383 . S
C764 C765 1.377 . S
C765 H749 0.930 . S
C765 C764 1.377 . S
C765 C766 1.379 . S
C766 H750 0.931 . S
C766 C760 1.383 . S
C766 C765 1.379 . S
H767 C761 0.959 . S
H768 C761 0.961 . S
H769 C761 0.960 . S
H770 C762 0.930 . S
H771 C763 0.929 . S
H772 C780 0.929 . S
H773 C782 0.930 . S
H774 C784 0.930 . S
H775 C787 0.929 . S
H776 C790 0.930 . S
H777 C792 0.960 . S
H778 C792 0.960 . S
H779 C792 0.960 . S
C780 H772 0.929 . S
C780 C781 1.377 . S
C780 C782 1.384 . S
C781 C780 1.377 . S
C781 C787 1.390 . S
C782 H773 0.930 . S
C782 C780 1.384 . S
C782 C783 1.372 . S
C783 C782 1.372 . S
C783 C784 1.400 . S
C783 C788 1.490 . S
C784 H774 0.930 . S
C784 C783 1.400 . S
C784 C787 1.386 . S
H785 C801 0.930 . S
H786 C802 0.931 . S
C787 H775 0.929 . S
C787 C781 1.390 . S
C787 C784 1.386 . S
C788 C783 1.490 . S
C788 C790 1.395 . S
C788 C791 1.403 . S
H789 C795 0.930 . S
C790 H776 0.930 . S
C790 C788 1.395 . S
C790 C793 1.403 . S
C791 C788 1.403 . S
C791 C792 1.524 . S
C791 C795 1.400 . S
C792 H777 0.960 . S
C792 H778 0.960 . S
C792 H779 0.960 . S
C792 C791 1.524 . S
C793 C790 1.403 . S
C793 C794 1.392 . S
C793 C797 1.495 . S
C794 C793 1.392 . S
C794 C795 1.385 . S
C794 C796 1.478 . S
C795 H789 0.930 . S
C795 C791 1.400 . S
C795 C794 1.385 . S
C796 C794 1.478 . S
C796 C798 1.381 . S
C796 C802 1.383 . S
C797 C793 1.495 . S
C797 H803 0.959 . S
C797 H804 0.961 . S
C797 H805 0.960 . S
C798 C796 1.381 . S
C798 C799 1.394 . S
C798 H806 0.930 . S
C799 C798 1.394 . S
C799 C800 1.383 . S
C799 H807 0.929 . S
C800 C799 1.383 . S
C800 C801 1.377 . S
C801 H785 0.930 . S
C801 C800 1.377 . S
C801 C802 1.379 . S
C802 H786 0.931 . S
C802 C796 1.383 . S
C802 C801 1.379 . S
H803 C797 0.959 . S
H804 C797 0.961 . S
H805 C797 0.960 . S
H806 C798 0.930 . S
H807 C799 0.929 . S
H808 C816 0.929 . S
H809 C818 0.930 . S
H810 C820 0.930 . S
H811 C823 0.929 . S
H812 C826 0.930 . S
H813 C828 0.960 . S
H814 C828 0.960 . S
H815 C828 0.960 . S
C816 H808 0.929 . S
C816 C817 1.377 . S
C816 C818 1.384 . S
C817 C816 1.377 . S
C817 C823 1.390 . S
C818 H809 0.930 . S
C818 C816 1.384 . S
C818 C819 1.372 . S
C819 C818 1.372 . S
C819 C820 1.400 . S
C819 C824 1.490 . S
C820 H810 0.930 . S
C820 C819 1.400 . S
C820 C823 1.386 . S
H821 C837 0.930 . S
H822 C838 0.931 . S
C823 H811 0.929 . S
C823 C817 1.390 . S
C823 C820 1.386 . S
C824 C819 1.490 . S
C824 C826 1.395 . S
C824 C827 1.403 . S
H825 C831 0.930 . S
C826 H812 0.930 . S
C826 C824 1.395 . S
C826 C829 1.403 . S
C827 C824 1.403 . S
C827 C828 1.524 . S
C827 C831 1.400 . S
C828 H813 0.960 . S
C828 H814 0.960 . S
C828 H815 0.960 . S
C828 C827 1.524 . S
C829 C826 1.403 . S
C829 C830 1.392 . S
C829 C833 1.495 . S
C830 C829 1.392 . S
C830 C831 1.385 . S
C830 C832 1.478 . S
C831 H825 0.930 . S
C831 C827 1.400 . S
C831 C830 1.385 . S
C832 C830 1.478 . S
C832 C834 1.381 . S
C832 C838 1.383 . S
C833 C829 1.495 . S
C833 H839 0.959 . S
C833 H840 0.961 . S
C833 H841 0.960 . S
C834 C832 1.381 . S
C834 C835 1.394 . S
C834 H842 0.930 . S
C835 C834 1.394 . S
C835 C836 1.383 . S
C835 H843 0.929 . S
C836 C835 1.383 . S
C836 C837 1.377 . S
C837 H821 0.930 . S
C837 C836 1.377 . S
C837 C838 1.379 . S
C838 H822 0.931 . S
C838 C832 1.383 . S
C838 C837 1.379 . S
H839 C833 0.959 . S
H840 C833 0.961 . S
H841 C833 0.960 . S
H842 C834 0.930 . S
H843 C835 0.929 . S
H844 C852 0.929 . S
H845 C854 0.930 . S
H846 C856 0.930 . S
H847 C859 0.929 . S
H848 C862 0.930 . S
H849 C864 0.960 . S
H850 C864 0.960 . S
H851 C864 0.960 . S
C852 H844 0.929 . S
C852 C853 1.377 . S
C852 C854 1.384 . S
C853 C852 1.377 . S
C853 C859 1.390 . S
C854 H845 0.930 . S
C854 C852 1.384 . S
C854 C855 1.372 . S
C855 C854 1.372 . S
C855 C856 1.400 . S
C855 C860 1.490 . S
C856 H846 0.930 . S
C856 C855 1.400 . S
C856 C859 1.386 . S
H857 C873 0.930 . S
H858 C874 0.931 . S
C859 H847 0.929 . S
C859 C853 1.390 . S
C859 C856 1.386 . S
C860 C855 1.490 . S
C860 C862 1.395 . S
C860 C863 1.403 . S
H861 C867 0.930 . S
C862 H848 0.930 . S
C862 C860 1.395 . S
C862 C865 1.403 . S
C863 C860 1.403 . S
C863 C864 1.524 . S
C863 C867 1.400 . S
C864 H849 0.960 . S
C864 H850 0.960 . S
C864 H851 0.960 . S
C864 C863 1.524 . S
C865 C862 1.403 . S
C865 C866 1.392 . S
C865 C869 1.495 . S
C866 C865 1.392 . S
C866 C867 1.385 . S
C866 C868 1.478 . S
C867 H861 0.930 . S
C867 C863 1.400 . S
C867 C866 1.385 . S
C868 C866 1.478 . S
C868 C870 1.381 . S
C868 C874 1.383 . S
C869 C865 1.495 . S
C869 H875 0.959 . S
C869 H876 0.961 . S
C869 H877 0.960 . S
C870 C868 1.381 . S
C870 C871 1.394 . S
C870 H878 0.930 . S
C871 C870 1.394 . S
C871 C872 1.383 . S
C871 H879 0.929 . S
C872 C871 1.383 . S
C872 C873 1.377 . S
C873 H857 0.930 . S
C873 C872 1.377 . S
C873 C874 1.379 . S
C874 H858 0.931 . S
C874 C868 1.383 . S
C874 C873 1.379 . S
H875 C869 0.959 . S
H876 C869 0.961 . S
H877 C869 0.960 . S
H878 C870 0.930 . S
H879 C871 0.929 . S
H880 C888 0.929 . S
H881 C890 0.930 . S
H882 C892 0.930 . S
H883 C895 0.929 . S
H884 C898 0.930 . S
H885 C900 0.960 . S
H886 C900 0.960 . S
H887 C900 0.960 . S
C888 H880 0.929 . S
C888 C889 1.377 . S
C888 C890 1.384 . S
C889 C888 1.377 . S
C889 C895 1.390 . S
C890 H881 0.930 . S
C890 C888 1.384 . S
C890 C891 1.372 . S
C891 C890 1.372 . S
C891 C892 1.400 . S
C891 C896 1.490 . S
C892 H882 0.930 . S
C892 C891 1.400 . S
C892 C895 1.386 . S
H893 C909 0.930 . S
H894 C910 0.931 . S
C895 H883 0.929 . S
C895 C889 1.390 . S
C895 C892 1.386 . S
C896 C891 1.490 . S
C896 C898 1.395 . S
C896 C899 1.403 . S
H897 C903 0.930 . S
C898 H884 0.930 . S
C898 C896 1.395 . S
C898 C901 1.403 . S
C899 C896 1.403 . S
C899 C900 1.524 . S
C899 C903 1.400 . S
C900 H885 0.960 . S
C900 H886 0.960 . S
C900 H887 0.960 . S
C900 C899 1.524 . S
C901 C898 1.403 . S
C901 C902 1.392 . S
C901 C905 1.495 . S
C902 C901 1.392 . S
C902 C903 1.385 . S
C902 C904 1.478 . S
C903 H897 0.930 . S
C903 C899 1.400 . S
C903 C902 1.385 . S
C904 C902 1.478 . S
C904 C906 1.381 . S
C904 C910 1.383 . S
C905 C901 1.495 . S
C905 H911 0.959 . S
C905 H912 0.961 . S
C905 H913 0.960 . S
C906 C904 1.381 . S
C906 C907 1.394 . S
C906 H914 0.930 . S
C907 C906 1.394 . S
C907 C908 1.383 . S
C907 H915 0.929 . S
C908 C907 1.383 . S
C908 C909 1.377 . S
C909 H893 0.930 . S
C909 C908 1.377 . S
C909 C910 1.379 . S
C910 H894 0.931 . S
C910 C904 1.383 . S
C910 C909 1.379 . S
H911 C905 0.959 . S
H912 C905 0.961 . S
H913 C905 0.960 . S
H914 C906 0.930 . S
H915 C907 0.929 . S
H916 C924 0.929 . S
H917 C926 0.930 . S
H918 C928 0.930 . S
H919 C931 0.929 . S
H920 C934 0.930 . S
H921 C936 0.960 . S
H922 C936 0.960 . S
H923 C936 0.960 . S
C924 H916 0.929 . S
C924 C925 1.377 . S
C924 C926 1.384 . S
C925 C924 1.377 . S
C925 C931 1.390 . S
C926 H917 0.930 . S
C926 C924 1.384 . S
C926 C927 1.372 . S
C927 C926 1.372 . S
C927 C928 1.400 . S
C927 C932 1.490 . S
C928 H918 0.930 . S
C928 C927 1.400 . S
C928 C931 1.386 . S
H929 C945 0.930 . S
H930 C946 0.931 . S
C931 H919 0.929 . S
C931 C925 1.390 . S
C931 C928 1.386 . S
C932 C927 1.490 . S
C932 C934 1.395 . S
C932 C935 1.403 . S
H933 C939 0.930 . S
C934 H920 0.930 . S
C934 C932 1.395 . S
C934 C937 1.403 . S
C935 C932 1.403 . S
C935 C936 1.524 . S
C935 C939 1.400 . S
C936 H921 0.960 . S
C936 H922 0.960 . S
C936 H923 0.960 . S
C936 C935 1.524 . S
C937 C934 1.403 . S
C937 C938 1.392 . S
C937 C941 1.495 . S
C938 C937 1.392 . S
C938 C939 1.385 . S
C938 C940 1.478 . S
C939 H933 0.930 . S
C939 C935 1.400 . S
C939 C938 1.385 . S
C940 C938 1.478 . S
C940 C942 1.381 . S
C940 C946 1.383 . S
C941 C937 1.495 . S
C941 H947 0.959 . S
C941 H948 0.961 . S
C941 H949 0.960 . S
C942 C940 1.381 . S
C942 C943 1.394 . S
C942 H950 0.930 . S
C943 C942 1.394 . S
C943 C944 1.383 . S
C943 H951 0.929 . S
C944 C943 1.383 . S
C944 C945 1.377 . S
C945 H929 0.930 . S
C945 C944 1.377 . S
C945 C946 1.379 . S
C946 H930 0.931 . S
C946 C940 1.383 . S
C946 C945 1.379 . S
H947 C941 0.959 . S
H948 C941 0.961 . S
H949 C941 0.960 . S
H950 C942 0.930 . S
H951 C943 0.929 . S
H952 C960 0.929 . S
H953 C962 0.930 . S
H954 C964 0.930 . S
H955 C967 0.929 . S
H956 C970 0.930 . S
H957 C972 0.960 . S
H958 C972 0.960 . S
H959 C972 0.960 . S
C960 H952 0.929 . S
C960 C961 1.377 . S
C960 C962 1.384 . S
C961 C960 1.377 . S
C961 C967 1.390 . S
C962 H953 0.930 . S
C962 C960 1.384 . S
C962 C963 1.372 . S
C963 C962 1.372 . S
C963 C964 1.400 . S
C963 C968 1.490 . S
C964 H954 0.930 . S
C964 C963 1.400 . S
C964 C967 1.386 . S
H965 C981 0.930 . S
H966 C982 0.931 . S
C967 H955 0.929 . S
C967 C961 1.390 . S
C967 C964 1.386 . S
C968 C963 1.490 . S
C968 C970 1.395 . S
C968 C971 1.403 . S
H969 C975 0.930 . S
C970 H956 0.930 . S
C970 C968 1.395 . S
C970 C973 1.403 . S
C971 C968 1.403 . S
C971 C972 1.524 . S
C971 C975 1.400 . S
C972 H957 0.960 . S
C972 H958 0.960 . S
C972 H959 0.960 . S
C972 C971 1.524 . S
C973 C970 1.403 . S
C973 C974 1.392 . S
C973 C977 1.495 . S
C974 C973 1.392 . S
C974 C975 1.385 . S
C974 C976 1.478 . S
C975 H969 0.930 . S
C975 C971 1.400 . S
C975 C974 1.385 . S
C976 C974 1.478 . S
C976 C978 1.381 . S
C976 C982 1.383 . S
C977 C973 1.495 . S
C977 H983 0.959 . S
C977 H984 0.961 . S
C977 H985 0.960 . S
C978 C976 1.381 . S
C978 C979 1.394 . S
C978 H986 0.930 . S
C979 C978 1.394 . S
C979 C980 1.383 . S
C979 H987 0.929 . S
C980 C979 1.383 . S
C980 C981 1.377 . S
C981 H965 0.930 . S
C981 C980 1.377 . S
C981 C982 1.379 . S
C982 H966 0.931 . S
C982 C976 1.383 . S
C982 C981 1.379 . S
H983 C977 0.959 . S
H984 C977 0.961 . S
H985 C977 0.960 . S
H986 C978 0.930 . S
H987 C979 0.929 . S
H988 C996 0.929 . S
H989 C998 0.930 . S
H990 C1000 0.930 . S
H991 C1003 0.929 . S
H992 C1006 0.930 . S
H993 C1008 0.960 . S
H994 C1008 0.960 . S
H995 C1008 0.960 . S
C996 H988 0.929 . S
C996 C997 1.377 . S
C996 C998 1.384 . S
C997 C996 1.377 . S
C997 C1003 1.390 . S
C998 H989 0.930 . S
C998 C996 1.384 . S
C998 C999 1.372 . S
C999 C998 1.372 . S
C999 C1000 1.400 . S
C999 C1004 1.490 . S
C1000 H990 0.930 . S
C1000 C999 1.400 . S
C1000 C1003 1.386 . S
H1001 C1017 0.930 . S
H1002 C1018 0.931 . S
C1003 H991 0.929 . S
C1003 C997 1.390 . S
C1003 C1000 1.386 . S
C1004 C999 1.490 . S
C1004 C1006 1.395 . S
C1004 C1007 1.403 . S
H1005 C1011 0.930 . S
C1006 H992 0.930 . S
C1006 C1004 1.395 . S
C1006 C1009 1.403 . S
C1007 C1004 1.403 . S
C1007 C1008 1.524 . S
C1007 C1011 1.400 . S
C1008 H993 0.960 . S
C1008 H994 0.960 . S
C1008 H995 0.960 . S
C1008 C1007 1.524 . S
C1009 C1006 1.403 . S
C1009 C1010 1.392 . S
C1009 C1013 1.495 . S
C1010 C1009 1.392 . S
C1010 C1011 1.385 . S
C1010 C1012 1.478 . S
C1011 H1005 0.930 . S
C1011 C1007 1.400 . S
C1011 C1010 1.385 . S
C1012 C1010 1.478 . S
C1012 C1014 1.381 . S
C1012 C1018 1.383 . S
C1013 C1009 1.495 . S
C1013 H1019 0.959 . S
C1013 H1020 0.961 . S
C1013 H1021 0.960 . S
C1014 C1012 1.381 . S
C1014 C1015 1.394 . S
C1014 H1022 0.930 . S
C1015 C1014 1.394 . S
C1015 C1016 1.383 . S
C1015 H1023 0.929 . S
C1016 C1015 1.383 . S
C1016 C1017 1.377 . S
C1017 H1001 0.930 . S
C1017 C1016 1.377 . S
C1017 C1018 1.379 . S
C1018 H1002 0.931 . S
C1018 C1012 1.383 . S
C1018 C1017 1.379 . S
H1019 C1013 0.959 . S
H1020 C1013 0.961 . S
H1021 C1013 0.960 . S
H1022 C1014 0.930 . S
H1023 C1015 0.929 . S
H1024 C1032 0.929 . S
H1025 C1034 0.930 . S
H1026 C1036 0.930 . S
H1027 C1039 0.929 . S
H1028 C1042 0.930 . S
H1029 C1044 0.960 . S
H1030 C1044 0.960 . S
H1031 C1044 0.960 . S
C1032 H1024 0.929 . S
C1032 C1033 1.377 . S
C1032 C1034 1.384 . S
C1033 C1032 1.377 . S
C1033 C1039 1.390 . S
C1034 H1025 0.930 . S
C1034 C1032 1.384 . S
C1034 C1035 1.372 . S
C1035 C1034 1.372 . S
C1035 C1036 1.400 . S
C1035 C1040 1.490 . S
C1036 H1026 0.930 . S
C1036 C1035 1.400 . S
C1036 C1039 1.386 . S
H1037 C1053 0.930 . S
H1038 C1054 0.931 . S
C1039 H1027 0.929 . S
C1039 C1033 1.390 . S
C1039 C1036 1.386 . S
C1040 C1035 1.490 . S
C1040 C1042 1.395 . S
C1040 C1043 1.403 . S
H1041 C1047 0.930 . S
C1042 H1028 0.930 . S
C1042 C1040 1.395 . S
C1042 C1045 1.403 . S
C1043 C1040 1.403 . S
C1043 C1044 1.524 . S
C1043 C1047 1.400 . S
C1044 H1029 0.960 . S
C1044 H1030 0.960 . S
C1044 H1031 0.960 . S
C1044 C1043 1.524 . S
C1045 C1042 1.403 . S
C1045 C1046 1.392 . S
C1045 C1049 1.495 . S
C1046 C1045 1.392 . S
C1046 C1047 1.385 . S
C1046 C1048 1.478 . S
C1047 H1041 0.930 . S
C1047 C1043 1.400 . S
C1047 C1046 1.385 . S
C1048 C1046 1.478 . S
C1048 C1050 1.381 . S
C1048 C1054 1.383 . S
C1049 C1045 1.495 . S
C1049 H1055 0.959 . S
C1049 H1056 0.961 . S
C1049 H1057 0.960 . S
C1050 C1048 1.381 . S
C1050 C1051 1.394 . S
C1050 H1058 0.930 . S
C1051 C1050 1.394 . S
C1051 C1052 1.383 . S
C1051 H1059 0.929 . S
C1052 C1051 1.383 . S
C1052 C1053 1.377 . S
C1053 H1037 0.930 . S
C1053 C1052 1.377 . S
C1053 C1054 1.379 . S
C1054 H1038 0.931 . S
C1054 C1048 1.383 . S
C1054 C1053 1.379 . S
H1055 C1049 0.959 . S
H1056 C1049 0.961 . S
H1057 C1049 0.960 . S
H1058 C1050 0.930 . S
H1059 C1051 0.929 . S
H1060 C1068 0.929 . S
H1061 C1070 0.930 . S
H1062 C1072 0.930 . S
H1063 C1075 0.929 . S
H1064 C1078 0.930 . S
H1065 C1080 0.960 . S
H1066 C1080 0.960 . S
H1067 C1080 0.960 . S
C1068 H1060 0.929 . S
C1068 C1069 1.377 . S
C1068 C1070 1.384 . S
C1069 C1068 1.377 . S
C1069 C1075 1.390 . S
C1070 H1061 0.930 . S
C1070 C1068 1.384 . S
C1070 C1071 1.372 . S
C1071 C1070 1.372 . S
C1071 C1072 1.400 . S
C1071 C1076 1.490 . S
C1072 H1062 0.930 . S
C1072 C1071 1.400 . S
C1072 C1075 1.386 . S
H1073 C1089 0.930 . S
H1074 C1090 0.931 . S
C1075 H1063 0.929 . S
C1075 C1069 1.390 . S
C1075 C1072 1.386 . S
C1076 C1071 1.490 . S
C1076 C1078 1.395 . S
C1076 C1079 1.403 . S
H1077 C1083 0.930 . S
C1078 H1064 0.930 . S
C1078 C1076 1.395 . S
C1078 C1081 1.403 . S
C1079 C1076 1.403 . S
C1079 C1080 1.524 . S
C1079 C1083 1.400 . S
C1080 H1065 0.960 . S
C1080 H1066 0.960 . S
C1080 H1067 0.960 . S
C1080 C1079 1.524 . S
C1081 C1078 1.403 . S
C1081 C1082 1.392 . S
C1081 C1085 1.495 . S
C1082 C1081 1.392 . S
C1082 C1083 1.385 . S
C1082 C1084 1.478 . S
C1083 H1077 0.930 . S
C1083 C1079 1.400 . S
C1083 C1082 1.385 . S
C1084 C1082 1.478 . S
C1084 C1086 1.381 . S
C1084 C1090 1.383 . S
C1085 C1081 1.495 . S
C1085 H1091 0.959 . S
C1085 H1092 0.961 . S
C1085 H1093 0.960 . S
C1086 C1084 1.381 . S
C1086 C1087 1.394 . S
C1086 H1094 0.930 . S
C1087 C1086 1.394 . S
C1087 C1088 1.383 . S
C1087 H1095 0.929 . S
C1088 C1087 1.383 . S
C1088 C1089 1.377 . S
C1089 H1073 0.930 . S
C1089 C1088 1.377 . S
C1089 C1090 1.379 . S
C1090 H1074 0.931 . S
C1090 C1084 1.383 . S
C1090 C1089 1.379 . S
H1091 C1085 0.959 . S
H1092 C1085 0.961 . S
H1093 C1085 0.960 . S
H1094 C1086 0.930 . S
H1095 C1087 0.929 . S
C241 C5 0.998 . S
C260 C78 1.011 . S
C277 C14 0.866 . S
C296 C127 0.847 . S
C332 C162 2.458 . S
C313 C25 2.529 . S
C349 C34 2.399 . S
C368 C201 2.321 . S
C404 C122 2.069 . S
C385 C7 2.034 . S
C440 C81 0.806 . S
C421 C13 0.808 . S
C476 C211 1.868 . S
C457 C23 1.929 . S
C512 C170 1.615 . S
C493 C31 1.635 . S
C529 C4 1.453 . S
C548 C198 1.471 . S
C584 C130 2.325 . S
C565 C22 2.405 . S
C601 C32 2.361 . S
C620 C91 2.333 . S
C637 C16 0.716 . S
C656 C167 0.726 . S
C692 C87 1.007 . S
C673 C41 0.977 . S
C709 C50 0.875 . S
C728 C118 0.858 . S
C745 C61 2.521 . S
C764 C171 2.450 . S
C781 C67 2.411 . S
C800 C210 2.332 . S
C817 C40 2.061 . S
C836 C131 2.096 . S
C872 C90 0.816 . S
C853 C52 0.769 . S
C908 C202 1.868 . S
C889 C59 1.942 . S
C944 C161 1.598 . S
C925 C70 1.630 . S
C961 C43 1.444 . S
C980 C207 1.466 . S
C1016 C121 2.315 . S
C997 C58 2.419 . S
C1052 C82 2.316 . S
C1033 C68 2.336 . S
C1069 C49 0.712 . S
C1088 C158 0.713 . S
