# Generated by pormake.
# Topology nom, (4,4)-cn, num edge types: 1
# Building blocks:
#     Node 0, Type 0, BuildingBlock: NAWXER_clean_linker_0, # of connection points: 4
#     Node 1, Type 0, BuildingBlock: NAWXER_clean_linker_0, # of connection points: 4
#     Node 2, Type 0, BuildingBlock: NAWXER_clean_linker_0, # of connection points: 4
#     Node 3, Type 0, BuildingBlock: NAWXER_clean_linker_0, # of connection points: 4
#     Node 4, Type 0, BuildingBlock: NAWXER_clean_linker_0, # of connection points: 4
#     Node 5, Type 0, BuildingBlock: NAWXER_clean_linker_0, # of connection points: 4
#     Node 6, Type 1, BuildingBlock: TATPOV_clean_sbu_0, # of connection points: 4
#     Node 7, Type 1, BuildingBlock: TATPOV_clean_sbu_0, # of connection points: 4
#     Node 8, Type 1, BuildingBlock: TATPOV_clean_sbu_0, # of connection points: 4
#     Node 9, Type 1, BuildingBlock: TATPOV_clean_sbu_0, # of connection points: 4
#     Node 10, Type 1, BuildingBlock: TATPOV_clean_sbu_0, # of connection points: 4
#     Node 11, Type 1, BuildingBlock: TATPOV_clean_sbu_0, # of connection points: 4
#     Edge 12, Type (0, 1), BuildingBlock: XIVTED_clean_linker_0, # of connection points: 2
#     Edge 13, Type (0, 1), BuildingBlock: XIVTED_clean_linker_0, # of connection points: 2
#     Edge 14, Type (0, 1), BuildingBlock: XIVTED_clean_linker_0, # of connection points: 2
#     Edge 15, Type (0, 1), BuildingBlock: XIVTED_clean_linker_0, # of connection points: 2
#     Edge 16, Type (0, 1), BuildingBlock: XIVTED_clean_linker_0, # of connection points: 2
#     Edge 17, Type (0, 1), BuildingBlock: XIVTED_clean_linker_0, # of connection points: 2
#     Edge 18, Type (0, 1), BuildingBlock: XIVTED_clean_linker_0, # of connection points: 2
#     Edge 19, Type (0, 1), BuildingBlock: XIVTED_clean_linker_0, # of connection points: 2
#     Edge 20, Type (0, 1), BuildingBlock: XIVTED_clean_linker_0, # of connection points: 2
#     Edge 21, Type (0, 1), BuildingBlock: XIVTED_clean_linker_0, # of connection points: 2
#     Edge 22, Type (0, 1), BuildingBlock: XIVTED_clean_linker_0, # of connection points: 2
#     Edge 23, Type (0, 1), BuildingBlock: XIVTED_clean_linker_0, # of connection points: 2
#     Edge 24, Type (0, 1), BuildingBlock: XIVTED_clean_linker_0, # of connection points: 2
#     Edge 25, Type (0, 1), BuildingBlock: XIVTED_clean_linker_0, # of connection points: 2
#     Edge 26, Type (0, 1), BuildingBlock: XIVTED_clean_linker_0, # of connection points: 2
#     Edge 27, Type (0, 1), BuildingBlock: XIVTED_clean_linker_0, # of connection points: 2
#     Edge 28, Type (0, 1), BuildingBlock: XIVTED_clean_linker_0, # of connection points: 2
#     Edge 29, Type (0, 1), BuildingBlock: XIVTED_clean_linker_0, # of connection points: 2
#     Edge 30, Type (0, 1), BuildingBlock: XIVTED_clean_linker_0, # of connection points: 2
#     Edge 31, Type (0, 1), BuildingBlock: XIVTED_clean_linker_0, # of connection points: 2
#     Edge 32, Type (0, 1), BuildingBlock: XIVTED_clean_linker_0, # of connection points: 2
#     Edge 33, Type (0, 1), BuildingBlock: XIVTED_clean_linker_0, # of connection points: 2
#     Edge 34, Type (0, 1), BuildingBlock: XIVTED_clean_linker_0, # of connection points: 2
#     Edge 35, Type (0, 1), BuildingBlock: XIVTED_clean_linker_0, # of connection points: 2
# Relax obj value: 0.024
# Max RMSD: 0.116
# Mean RMSD: 0.110
data_MOF--net-nom--node1-TATPOV_clean_sbu_0--node2-NAWXER_clean_linker_0--edge1-XIVTED_clean_linker_0
_symmetry_space_group_name_H-M    P1
_symmetry_Int_Tables_number       1
_symmetry_cell_setting            triclinic
loop_
_symmetry_equiv_pos_as_xyz
'x, y, z'
_cell_length_a     51.980346
_cell_length_b     52.696225
_cell_length_c     57.436522
_cell_angle_alpha  90.496255
_cell_angle_beta   90.74746
_cell_angle_gamma 120.0274
loop_
_atom_site_label
_atom_site_type_symbol
_atom_site_fract_x
_atom_site_fract_y
_atom_site_fract_z
_atom_type_partial_charge
C0 C 0.91482 0.45313 0.34394 0.0
C1 C 0.9028 0.43523 0.36335 0.0
C2 C 0.94032 0.45619 0.33367 0.0
C3 C 0.95423 0.44119 0.34244 0.0
C4 C 0.91608 0.41943 0.37174 0.0
C5 C 0.94187 0.42268 0.3615 0.0
C6 C 0.98388 0.44863 0.33404 0.0
C7 C 0.92196 0.4038 0.27126 0.0
C8 C 0.92845 0.42244 0.25212 0.0
C9 C 0.94151 0.41257 0.29062 0.0
C10 C 0.96763 0.44013 0.29108 0.0
C11 C 0.95408 0.45028 0.25314 0.0
C12 C 0.97344 0.45892 0.27227 0.0
C13 C 0.99023 0.44968 0.31012 0.0
C14 C 0.12508 0.51373 0.30785 0.0
C15 C 0.12782 0.53371 0.29055 0.0
C16 C 0.0973 0.4947 0.31733 0.0
C17 C 0.07194 0.49544 0.30961 0.0
C18 C 0.10219 0.53401 0.28288 0.0
C19 C 0.07466 0.51499 0.29214 0.0
C20 C 0.0422 0.47652 0.31928 0.0
C21 C 0.096 0.54021 0.37703 0.0
C22 C 0.09795 0.5273 0.39781 0.0
C23 C 0.07649 0.52311 0.35908 0.0
C24 C 0.0589 0.4926 0.36124 0.0
C25 C 0.08062 0.49667 0.39986 0.0
C26 C 0.06109 0.47951 0.38179 0.0
C27 C 0.03598 0.47502 0.34325 0.0
H28 H 0.90491 0.46541 0.33704 0.0
H29 H 0.94993 0.47142 0.31954 0.0
H30 H 0.90732 0.40564 0.38679 0.0
H31 H 0.95262 0.4114 0.36884 0.0
H32 H 0.90233 0.38223 0.27096 0.0
H33 H 0.93667 0.39759 0.30486 0.0
H34 H 0.95932 0.46553 0.23904 0.0
H35 H 0.99318 0.48045 0.2723 0.0
H36 H 0.14433 0.51276 0.31404 0.0
H37 H 0.09561 0.47951 0.33061 0.0
H38 H 0.10339 0.54957 0.27014 0.0
H39 H 0.05546 0.51617 0.28604 0.0
H40 H 0.10917 0.56369 0.3748 0.0
H41 H 0.07452 0.53395 0.34379 0.0
H42 H 0.0813 0.48611 0.41575 0.0
H43 H 0.04729 0.45609 0.38401 0.0
N44 N 0.00702 0.46097 0.34969 0.0
N45 N 0.0191 0.46357 0.30385 0.0
C46 C 0.45776 0.93519 0.49902 0.0
C47 C 0.46438 0.92162 0.51723 0.0
C48 C 0.48002 0.96093 0.48943 0.0
C49 C 0.50955 0.97356 0.49758 0.0
C50 C 0.49402 0.93395 0.52519 0.0
C51 C 0.51639 0.95992 0.5156 0.0
C52 C 0.53222 0.00259 0.48903 0.0
C53 C 0.50775 0.93885 0.43011 0.0
C54 C 0.4915 0.94276 0.41215 0.0
C55 C 0.52275 0.96074 0.44712 0.0
C56 C 0.52165 0.98684 0.44648 0.0
C57 C 0.49141 0.96936 0.41109 0.0
C58 C 0.50646 0.99123 0.42802 0.0
C59 C 0.53566 0.00942 0.46517 0.0
C60 C 0.61308 0.14289 0.4674 0.0
C61 C 0.59632 0.14821 0.45075 0.0
C62 C 0.6035 0.11431 0.47484 0.0
C63 C 0.57652 0.09076 0.46629 0.0
C64 C 0.57021 0.12445 0.44139 0.0
C65 C 0.56041 0.0961 0.4491 0.0
C66 C 0.56406 0.06047 0.475 0.0
C67 C 0.5729 0.11412 0.54046 0.0
C68 C 0.58842 0.11014 0.55896 0.0
C69 C 0.56537 0.09654 0.52034 0.0
C70 C 0.574 0.07528 0.51815 0.0
C71 C 0.59767 0.0894 0.55649 0.0
C72 C 0.59051 0.07213 0.53627 0.0
C73 C 0.56239 0.05342 0.49888 0.0
H74 H 0.4352 0.9261 0.49237 0.0
H75 H 0.4739 0.97145 0.47609 0.0
H76 H 0.4997 0.92408 0.53934 0.0
H77 H 0.53892 0.96958 0.52244 0.0
H78 H 0.50822 0.91859 0.43136 0.0
H79 H 0.53488 0.95712 0.46092 0.0
H80 H 0.47955 0.97322 0.39719 0.0
H81 H 0.50552 0.01128 0.42705 0.0
H82 H 0.63355 0.16081 0.47463 0.0
H83 H 0.61696 0.11076 0.48748 0.0
H84 H 0.55675 0.1279 0.42866 0.0
H85 H 0.53963 0.07838 0.44206 0.0
H86 H 0.56503 0.12958 0.54212 0.0
H87 H 0.5517 0.09867 0.507 0.0
H88 H 0.60964 0.08592 0.57052 0.0
H89 H 0.59702 0.05558 0.53508 0.0
N90 N 0.54632 0.02477 0.5049 0.0
N91 N 0.55093 0.03806 0.45913 0.0
C92 C 0.55854 0.49076 0.59968 0.0
C93 C 0.54178 0.48106 0.57886 0.0
C94 C 0.54962 0.50221 0.61781 0.0
C95 C 0.52322 0.50337 0.6158 0.0
C96 C 0.51553 0.48239 0.57668 0.0
C97 C 0.50629 0.49336 0.59502 0.0
C98 C 0.51436 0.51683 0.63458 0.0
C99 C 0.50722 0.43768 0.66802 0.0
C100 C 0.53149 0.44364 0.68282 0.0
C101 C 0.50314 0.46031 0.65999 0.0
C102 C 0.52291 0.4894 0.66682 0.0
C103 C 0.55114 0.47292 0.68982 0.0
C104 C 0.54664 0.49557 0.68211 0.0
C105 C 0.51783 0.51295 0.65844 0.0
C106 C 0.46069 0.56859 0.71075 0.0
C107 C 0.48269 0.58321 0.72817 0.0
C108 C 0.46694 0.55751 0.69072 0.0
C109 C 0.49549 0.56154 0.68757 0.0
C110 C 0.51138 0.58779 0.7247 0.0
C111 C 0.51769 0.57703 0.7046 0.0
C112 C 0.50173 0.54675 0.66833 0.0
C113 C 0.47138 0.60531 0.63576 0.0
C114 C 0.44814 0.59063 0.61926 0.0
C115 C 0.48769 0.59237 0.64369 0.0
C116 C 0.48034 0.56416 0.63578 0.0
C117 C 0.44173 0.56303 0.61068 0.0
C118 C 0.4576 0.54995 0.61887 0.0
C119 C 0.49579 0.54877 0.64449 0.0
H120 H 0.57926 0.49067 0.60157 0.0
H121 H 0.56396 0.511 0.63309 0.0
H122 H 0.50231 0.47514 0.56072 0.0
H123 H 0.48603 0.49427 0.59288 0.0
H124 H 0.49102 0.41545 0.6628 0.0
H125 H 0.48424 0.45504 0.64864 0.0
H126 H 0.57022 0.47848 0.701 0.0
H127 H 0.56199 0.51793 0.68768 0.0
H128 H 0.43825 0.56433 0.71319 0.0
H129 H 0.44919 0.54485 0.67818 0.0
H130 H 0.52875 0.59905 0.73783 0.0
H131 H 0.53978 0.58011 0.70264 0.0
H132 H 0.477 0.62681 0.64241 0.0
H133 H 0.50583 0.60435 0.65606 0.0
H134 H 0.4238 0.55112 0.5981 0.0
H135 H 0.45157 0.52828 0.61232 0.0
N136 N 0.50287 0.53408 0.62857 0.0
N137 N 0.51213 0.52857 0.67434 0.0
C138 C 0.87969 0.41676 0.79833 0.0
C139 C 0.86583 0.42617 0.78215 0.0
C140 C 0.90912 0.43531 0.80545 0.0
C141 C 0.9253 0.46377 0.7967 0.0
C142 C 0.88242 0.45431 0.77275 0.0
C143 C 0.91198 0.4729 0.77989 0.0
C144 C 0.95615 0.48372 0.80498 0.0
C145 C 0.8994 0.47549 0.86612 0.0
C146 C 0.90345 0.46177 0.88557 0.0
C147 C 0.91864 0.48338 0.84738 0.0
C148 C 0.94224 0.47758 0.84769 0.0
C149 C 0.92678 0.45554 0.88567 0.0
C150 C 0.94614 0.4636 0.86698 0.0
C151 C 0.9642 0.48808 0.82885 0.0
C152 C 0.09731 0.57309 0.82752 0.0
C153 C 0.10574 0.55929 0.8443 0.0
C154 C 0.06766 0.56008 0.81987 0.0
C155 C 0.04641 0.53241 0.82807 0.0
C156 C 0.08417 0.53273 0.85365 0.0
C157 C 0.05481 0.51935 0.84555 0.0
C158 C 0.01531 0.51661 0.81909 0.0
C159 C 0.07505 0.53782 0.75773 0.0
C160 C 0.07204 0.5568 0.74227 0.0
C161 C 0.05352 0.52275 0.77447 0.0
C162 C 0.02889 0.52682 0.77633 0.0
C163 C 0.04645 0.55946 0.74342 0.0
C164 C 0.02512 0.54459 0.76024 0.0
C165 C 0.00716 0.5133 0.79514 0.0
H166 H 0.86781 0.39496 0.80546 0.0
H167 H 0.91925 0.4274 0.81785 0.0
H168 H 0.87236 0.46224 0.76031 0.0
H169 H 0.92419 0.49467 0.77274 0.0
H170 H 0.88155 0.48047 0.86552 0.0
H171 H 0.91555 0.49474 0.83295 0.0
H172 H 0.93072 0.44537 0.90055 0.0
H173 H 0.96437 0.45919 0.86768 0.0
H174 H 0.11369 0.59374 0.82025 0.0
H175 H 0.06155 0.57136 0.80724 0.0
H176 H 0.09029 0.5217 0.86655 0.0
H177 H 0.03881 0.49829 0.85246 0.0
H178 H 0.09442 0.53521 0.75735 0.0
H179 H 0.05651 0.50855 0.78636 0.0
H180 H 0.04294 0.5732 0.73139 0.0
H181 H 0.00602 0.54764 0.76109 0.0
N182 N 0.97786 0.49694 0.78902 0.0
N183 N 0.99343 0.50392 0.83493 0.0
C184 C 0.49174 0.90012 0.97636 0.0
C185 C 0.46799 0.88765 0.96008 0.0
C186 C 0.50244 0.92856 0.98502 0.0
C187 C 0.48945 0.94505 0.97776 0.0
C188 C 0.45552 0.90451 0.95238 0.0
C189 C 0.46629 0.93301 0.96104 0.0
C190 C 0.50064 0.97514 0.98702 0.0
C191 C 0.45698 0.91634 0.04696 0.0
C192 C 0.4743 0.92188 0.0673 0.0
C193 C 0.4676 0.93584 0.02853 0.0
C194 C 0.49625 0.96071 0.02972 0.0
C195 C 0.50274 0.94681 0.06873 0.0
C196 C 0.51369 0.96598 0.05004 0.0
C197 C 0.5069 0.98268 0.01094 0.0
C198 C 0.55472 0.11377 0.01348 0.0
C199 C 0.57999 0.1221 0.02774 0.0
C200 C 0.53774 0.0849 0.0051 0.0
C201 C 0.54615 0.06404 0.01039 0.0
C202 C 0.58782 0.10097 0.03355 0.0
C203 C 0.57106 0.07226 0.02498 0.0
C204 C 0.52896 0.03336 0.00166 0.0
C205 C 0.55622 0.08733 0.93517 0.0
C206 C 0.53109 0.08472 0.92329 0.0
C207 C 0.55291 0.06854 0.95343 0.0
C208 C 0.52445 0.04686 0.96002 0.0
C209 C 0.50267 0.06338 0.93052 0.0
C210 C 0.49943 0.04446 0.94848 0.0
C211 C 0.52016 0.02553 0.97812 0.0
H212 H 0.50231 0.88802 0.98225 0.0
H213 H 0.52098 0.93771 0.99735 0.0
H214 H 0.43708 0.8955 0.93998 0.0
H215 H 0.45613 0.94545 0.95503 0.0
H216 H 0.43469 0.8976 0.04573 0.0
H217 H 0.4529 0.93186 0.01373 0.0
H218 H 0.51636 0.95157 0.08438 0.0
H219 H 0.53563 0.98518 0.05161 0.0
H220 H 0.54788 0.12949 0.00906 0.0
H221 H 0.51795 0.07891 0.99469 0.0
H222 H 0.6073 0.10679 0.04435 0.0
H223 H 0.57784 0.05651 0.0295 0.0
H224 H 0.57844 0.10325 0.92993 0.0
H225 H 0.5725 0.07049 0.96205 0.0
H226 H 0.48279 0.06115 0.92224 0.0
H227 H 0.47729 0.0279 0.95342 0.0
N228 N 0.50673 0.99678 0.97165 0.0
N229 N 0.52157 0.01156 0.0172 0.0
C230 C 0.46665 0.57352 0.18254 0.0
C231 C 0.44587 0.56637 0.20029 0.0
C232 C 0.4729 0.5526 0.17358 0.0
C233 C 0.45856 0.52399 0.18213 0.0
C234 C 0.43183 0.53774 0.20912 0.0
C235 C 0.43834 0.51678 0.20022 0.0
C236 C 0.46653 0.50259 0.17299 0.0
C237 C 0.41176 0.51208 0.11621 0.0
C238 C 0.42809 0.52656 0.09649 0.0
C239 C 0.42433 0.50285 0.13348 0.0
C240 C 0.45337 0.50781 0.13123 0.0
C241 C 0.4572 0.53166 0.09441 0.0
C242 C 0.46962 0.52217 0.11152 0.0
C243 C 0.46672 0.49733 0.14888 0.0
C244 C 0.53546 0.43146 0.14596 0.0
C245 C 0.55672 0.44971 0.12985 0.0
C246 C 0.51394 0.43796 0.15378 0.0
C247 C 0.51371 0.463 0.14583 0.0
C248 C 0.55477 0.47328 0.12059 0.0
C249 C 0.53352 0.47984 0.12848 0.0
C250 C 0.49466 0.47349 0.15614 0.0
C251 C 0.55507 0.47495 0.21372 0.0
C252 C 0.53978 0.45685 0.23246 0.0
C253 C 0.53995 0.48164 0.19684 0.0
C254 C 0.50907 0.46975 0.19794 0.0
C255 C 0.50886 0.44521 0.23363 0.0
C256 C 0.49368 0.45173 0.21656 0.0
C257 C 0.49307 0.47734 0.1804 0.0
H258 H 0.47857 0.5955 0.17577 0.0
H259 H 0.4894 0.55896 0.16018 0.0
H260 H 0.41561 0.53143 0.22271 0.0
H261 H 0.42739 0.49492 0.20727 0.0
H262 H 0.38928 0.50789 0.11825 0.0
H263 H 0.4112 0.49141 0.14837 0.0
H264 H 0.47015 0.54236 0.07925 0.0
H265 H 0.49201 0.52614 0.10938 0.0
H266 H 0.5363 0.41303 0.1533 0.0
H267 H 0.49831 0.42412 0.16668 0.0
H268 H 0.57033 0.48728 0.1077 0.0
H269 H 0.53355 0.49902 0.12179 0.0
H270 H 0.57881 0.48409 0.21211 0.0
H271 H 0.55243 0.49624 0.18295 0.0
H272 H 0.49647 0.43166 0.24803 0.0
H273 H 0.46992 0.44275 0.21793 0.0
N274 N 0.47919 0.49189 0.18789 0.0
N275 N 0.48116 0.48342 0.1414 0.0
Zn276 Zn 0.6872 0.46617 0.41015 0.0
Zn277 Zn 0.6551 0.40796 0.413 0.0
O278 O 0.69895 0.41853 0.41297 0.0
O279 O 0.72596 0.46658 0.41396 0.0
O280 O 0.63561 0.36443 0.41772 0.0
O281 O 0.66579 0.47032 0.43757 0.0
O282 O 0.6409 0.42231 0.44092 0.0
C283 C 0.72429 0.44179 0.41376 0.0
C284 C 0.64851 0.43728 0.36984 0.0
O285 O 0.63953 0.41388 0.38144 0.0
O286 O 0.66904 0.46155 0.37805 0.0
C287 C 0.63991 0.34847 0.40338 0.0
O288 O 0.65466 0.36024 0.38434 0.0
C289 C 0.64669 0.44769 0.44791 0.0
Zn290 Zn 0.22612 0.69643 0.57191 0.0
Zn291 Zn 0.25764 0.6692 0.57749 0.0
O292 O 0.28886 0.71274 0.57296 0.0
O293 O 0.26355 0.73573 0.56943 0.0
O294 O 0.28392 0.65221 0.58449 0.0
O295 O 0.20678 0.68176 0.60301 0.0
O296 O 0.23153 0.65816 0.60654 0.0
C297 C 0.28822 0.73637 0.57007 0.0
C298 C 0.2147 0.65175 0.53621 0.0
O299 O 0.23373 0.64811 0.54772 0.0
O300 O 0.20815 0.67079 0.54291 0.0
C301 C 0.30338 0.65409 0.57036 0.0
O302 O 0.30521 0.66579 0.5499 0.0
C303 C 0.2127 0.66472 0.61432 0.0
Zn304 Zn 0.53247 0.21027 0.73616 0.0
Zn305 Zn 0.59079 0.24722 0.74521 0.0
O306 O 0.57491 0.27516 0.73905 0.0
O307 O 0.5279 0.24553 0.72934 0.0
O308 O 0.63401 0.27464 0.75259 0.0
O309 O 0.52802 0.19422 0.76858 0.0
O310 O 0.57614 0.2226 0.77479 0.0
C311 C 0.54973 0.27125 0.73232 0.0
C312 C 0.57101 0.20279 0.70474 0.0
O313 O 0.59141 0.22467 0.71606 0.0
O314 O 0.54408 0.19186 0.71038 0.0
C315 C 0.65158 0.29137 0.73726 0.0
O316 O 0.64124 0.29058 0.71611 0.0
C317 C 0.55081 0.20276 0.78162 0.0
Zn318 Zn 0.33809 0.55942 0.90223 0.0
Zn319 Zn 0.3647 0.61712 0.91131 0.0
O320 O 0.3225 0.60717 0.90182 0.0
O321 O 0.30213 0.56103 0.89018 0.0
O322 O 0.3845 0.65993 0.91983 0.0
O323 O 0.34219 0.55147 0.93604 0.0
O324 O 0.36871 0.59919 0.94185 0.0
C325 C 0.3007 0.58418 0.89281 0.0
C326 C 0.38931 0.5936 0.87422 0.0
O327 O 0.3888 0.61517 0.88394 0.0
O328 O 0.37116 0.56758 0.88007 0.0
C329 C 0.38579 0.679 0.90578 0.0
O330 O 0.37438 0.67073 0.88466 0.0
C331 C 0.35803 0.57323 0.94939 0.0
Zn332 Zn 0.79414 0.44847 0.08275 0.0
Zn333 Zn 0.75958 0.39025 0.07602 0.0
O334 O 0.7298 0.40362 0.08398 0.0
O335 O 0.75773 0.45101 0.09083 0.0
O336 O 0.73266 0.34755 0.06837 0.0
O337 O 0.80773 0.45338 0.04954 0.0
O338 O 0.78208 0.40537 0.04531 0.0
C339 C 0.73231 0.42816 0.08972 0.0
C340 C 0.80766 0.41324 0.11396 0.0
O341 O 0.78538 0.39155 0.10398 0.0
O342 O 0.81615 0.43918 0.10757 0.0
C343 C 0.71821 0.32833 0.08348 0.0
O344 O 0.72146 0.33609 0.1056 0.0
C345 C 0.79967 0.43055 0.03714 0.0
Zn346 Zn 0.33751 0.77856 0.24451 0.0
Zn347 Zn 0.37582 0.758 0.24336 0.0
O348 O 0.33463 0.72211 0.247 0.0
O349 O 0.30222 0.7372 0.24387 0.0
O350 O 0.40036 0.73856 0.23997 0.0
O351 O 0.35488 0.80039 0.21481 0.0
O352 O 0.38406 0.78129 0.2132 0.0
C353 C 0.30788 0.71662 0.24634 0.0
C354 C 0.38084 0.79814 0.28324 0.0
O355 O 0.39131 0.78408 0.27258 0.0
O356 O 0.35794 0.79808 0.27526 0.0
C357 C 0.39743 0.71878 0.25399 0.0
O358 O 0.3805 0.7134 0.27218 0.0
C359 C 0.37473 0.79749 0.2046 0.0
H360 H 0.14089 0.55386 0.24589 0.0
H361 H 0.30987 0.67367 0.2711 0.0
H362 H 0.18189 0.56342 0.31378 0.0
H363 H 0.2506 0.69123 0.22999 0.0
H364 H 0.26791 0.62505 0.27988 0.0
H365 H 0.18667 0.59616 0.23283 0.0
C366 C 0.15953 0.56465 0.25804 0.0
C367 C 0.15717 0.55548 0.28122 0.0
C368 C 0.26431 0.63952 0.26873 0.0
C369 C 0.20983 0.60322 0.26599 0.0
C370 C 0.28813 0.66711 0.26364 0.0
C371 C 0.28353 0.68647 0.24994 0.0
C372 C 0.23601 0.63108 0.25952 0.0
C373 C 0.25496 0.67701 0.24079 0.0
C374 C 0.18564 0.58865 0.25047 0.0
C375 C 0.18257 0.56967 0.29581 0.0
N376 N 0.23223 0.64989 0.2457 0.0
N377 N 0.20784 0.59305 0.28799 0.0
H378 H 0.61284 0.19619 0.47894 0.0
H379 H 0.63901 0.30593 0.37507 0.0
H380 H 0.59902 0.16873 0.4067 0.0
H381 H 0.62318 0.32226 0.44575 0.0
H382 H 0.62949 0.25733 0.3864 0.0
H383 H 0.62302 0.24492 0.46721 0.0
C384 C 0.61232 0.20056 0.4606 0.0
C385 C 0.60507 0.17845 0.44376 0.0
C386 C 0.62796 0.27152 0.39937 0.0
C387 C 0.61643 0.23393 0.43023 0.0
C388 C 0.63335 0.29924 0.39292 0.0
C389 C 0.63183 0.31818 0.40947 0.0
C390 C 0.62144 0.26285 0.42261 0.0
C391 C 0.62445 0.30835 0.43238 0.0
C392 C 0.61783 0.22824 0.45393 0.0
C393 C 0.60432 0.18514 0.42024 0.0
N394 N 0.61976 0.28146 0.43831 0.0
N395 N 0.60998 0.21231 0.41416 0.0
H396 H 0.43184 0.5952 0.57472 0.0
H397 H 0.31347 0.64025 0.61405 0.0
H398 H 0.42197 0.61408 0.64619 0.0
H399 H 0.34292 0.64783 0.54321 0.0
H400 H 0.35054 0.62711 0.62593 0.0
H401 H 0.39729 0.61161 0.56255 0.0
C402 C 0.42251 0.60299 0.58782 0.0
C403 C 0.42969 0.60326 0.61149 0.0
C404 C 0.34893 0.6317 0.6078 0.0
C405 C 0.38996 0.62173 0.59775 0.0
C406 C 0.32764 0.63902 0.60096 0.0
C407 C 0.32504 0.64509 0.57757 0.0
C408 C 0.36756 0.63008 0.5911 0.0
C409 C 0.34415 0.64333 0.56142 0.0
C410 C 0.40287 0.6124 0.58087 0.0
C411 C 0.41717 0.61374 0.62775 0.0
N412 N 0.36452 0.63585 0.56847 0.0
N413 N 0.39766 0.62229 0.6206 0.0
H414 H 0.81999 0.39124 0.8105 0.0
H415 H 0.6959 0.329 0.70862 0.0
H416 H 0.83914 0.41694 0.73881 0.0
H417 H 0.67943 0.29988 0.77971 0.0
H418 H 0.7481 0.36231 0.71925 0.0
H419 H 0.76809 0.35856 0.79945 0.0
C420 C 0.81332 0.38988 0.79238 0.0
C421 C 0.83404 0.40674 0.77553 0.0
C422 C 0.73305 0.34862 0.73251 0.0
C423 C 0.77436 0.36953 0.76277 0.0
C424 C 0.70324 0.3296 0.72646 0.0
C425 C 0.68324 0.3116 0.7433 0.0
C426 C 0.74291 0.34969 0.75558 0.0
C427 C 0.69402 0.31331 0.76613 0.0
C428 C 0.7836 0.37131 0.7861 0.0
C429 C 0.8239 0.40454 0.75241 0.0
N430 N 0.72307 0.33201 0.77158 0.0
N431 N 0.79478 0.38622 0.74669 0.0
H432 H 0.44969 0.86569 0.91558 0.0
H433 H 0.40925 0.70271 0.94874 0.0
H434 H 0.45923 0.83985 0.98483 0.0
H435 H 0.39242 0.72586 0.88057 0.0
H436 H 0.42965 0.75349 0.96166 0.0
H437 H 0.43015 0.81511 0.90194 0.0
C438 C 0.44756 0.84938 0.92794 0.0
C439 C 0.45616 0.85708 0.9514 0.0
C440 C 0.42154 0.74751 0.94386 0.0
C441 C 0.43413 0.79921 0.93583 0.0
C442 C 0.4099 0.71849 0.93644 0.0
C443 C 0.39903 0.70997 0.91353 0.0
C444 C 0.42239 0.76829 0.92827 0.0
C445 C 0.40051 0.73143 0.8984 0.0
C446 C 0.43655 0.82054 0.92011 0.0
C447 C 0.45331 0.83507 0.96653 0.0
N448 N 0.41194 0.7596 0.90605 0.0
N449 N 0.44254 0.80719 0.95849 0.0
H450 H 0.61472 0.4922 0.12669 0.0
H451 H 0.6741 0.38365 0.09117 0.0
H452 H 0.55705 0.39853 0.11997 0.0
H453 H 0.72977 0.47725 0.10116 0.0
H454 H 0.6307 0.38799 0.10098 0.0
H455 H 0.65679 0.48648 0.11662 0.0
C456 C 0.61086 0.47038 0.12288 0.0
C457 C 0.58224 0.44583 0.1239 0.0
C458 C 0.65243 0.40753 0.10101 0.0
C459 C 0.63065 0.43902 0.11266 0.0
C460 C 0.67722 0.40509 0.09539 0.0
C461 C 0.70566 0.43013 0.09534 0.0
C462 C 0.65616 0.43519 0.10657 0.0
C463 C 0.70834 0.45733 0.10097 0.0
C464 C 0.63499 0.4671 0.11728 0.0
C465 C 0.57876 0.41803 0.11941 0.0
N466 N 0.68395 0.4591 0.10633 0.0
N467 N 0.60271 0.41537 0.11389 0.0
H468 H 0.41058 0.91335 0.53039 0.0
H469 H 0.34486 0.7456 0.56509 0.0
H470 H 0.46271 0.8704 0.52945 0.0
H471 H 0.29493 0.79094 0.56558 0.0
H472 H 0.38939 0.79156 0.55501 0.0
H473 H 0.36917 0.86926 0.5461 0.0
C474 C 0.41328 0.89455 0.53348 0.0
C475 C 0.43999 0.8954 0.5283 0.0
C476 C 0.36872 0.79144 0.5575 0.0
C477 C 0.39256 0.84467 0.54647 0.0
C478 C 0.34329 0.76524 0.5633 0.0
C479 C 0.31601 0.76433 0.56603 0.0
C480 C 0.36684 0.81689 0.55441 0.0
C481 C 0.31536 0.79047 0.5635 0.0
C482 C 0.38965 0.86939 0.54257 0.0
C483 C 0.44248 0.87064 0.53318 0.0
N484 N 0.3403 0.81556 0.55773 0.0
N485 N 0.41894 0.84614 0.54182 0.0
H486 H 0.55413 0.43805 0.72508 0.0
H487 H 0.50765 0.2719 0.70396 0.0
H488 H 0.51917 0.39328 0.65889 0.0
H489 H 0.58429 0.32846 0.74715 0.0
H490 H 0.50406 0.31454 0.69235 0.0
H491 H 0.55929 0.3966 0.73795 0.0
C492 C 0.54773 0.41975 0.71316 0.0
C493 C 0.53592 0.41924 0.69086 0.0
C494 C 0.52159 0.31755 0.70442 0.0
C495 C 0.54093 0.37148 0.70589 0.0
C496 C 0.52355 0.29325 0.71118 0.0
C497 C 0.54636 0.29668 0.7265 0.0
C498 C 0.54221 0.34541 0.71338 0.0
C499 C 0.56647 0.32492 0.73521 0.0
C500 C 0.55053 0.39605 0.72062 0.0
C501 C 0.52759 0.39451 0.67643 0.0
N502 N 0.56384 0.34827 0.72861 0.0
N503 N 0.52997 0.37156 0.68428 0.0
H504 H 0.13203 0.57653 0.88739 0.0
H505 H 0.26419 0.55337 0.85636 0.0
H506 H 0.1501 0.56663 0.81589 0.0
H507 H 0.27657 0.61591 0.91057 0.0
H508 H 0.21915 0.55321 0.84321 0.0
H509 H 0.18253 0.58759 0.8985 0.0
C510 C 0.14692 0.57728 0.87404 0.0
C511 C 0.13722 0.57085 0.85074 0.0
C512 C 0.23187 0.56712 0.85787 0.0
C513 C 0.19406 0.58242 0.86329 0.0
C514 C 0.25736 0.56704 0.8655 0.0
C515 C 0.27392 0.58456 0.88464 0.0
C516 C 0.22245 0.58422 0.86986 0.0
C517 C 0.26433 0.60211 0.89573 0.0
C518 C 0.17557 0.58357 0.88034 0.0
C519 C 0.15701 0.57174 0.83401 0.0
N520 N 0.23885 0.60115 0.88841 0.0
N521 N 0.18438 0.57686 0.84067 0.0
H522 H 0.59912 0.17242 0.00313 0.0
H523 H 0.68819 0.27994 0.1107 0.0
H524 H 0.60321 0.14155 0.07165 0.0
H525 H 0.70007 0.30716 0.03908 0.0
H526 H 0.6531 0.22972 0.09757 0.0
H527 H 0.6318 0.22281 0.017 0.0
C528 C 0.60669 0.17629 0.02115 0.0
C529 C 0.59854 0.1528 0.03625 0.0
C530 C 0.66343 0.24672 0.08476 0.0
C531 C 0.63608 0.21032 0.0522 0.0
C532 C 0.68343 0.27538 0.09224 0.0
C533 C 0.69717 0.29778 0.07596 0.0
C534 C 0.65692 0.24049 0.06087 0.0
C535 C 0.69013 0.29059 0.05225 0.0
C536 C 0.62551 0.20502 0.02902 0.0
C537 C 0.60926 0.15903 0.05937 0.0
N538 N 0.67046 0.26261 0.04543 0.0
N539 N 0.62747 0.1872 0.06665 0.0
H540 H 0.43521 0.5759 0.24555 0.0
H541 H 0.42622 0.71888 0.21445 0.0
H542 H 0.44133 0.60845 0.17589 0.0
H543 H 0.39431 0.67328 0.27912 0.0
H544 H 0.43931 0.68243 0.20225 0.0
H545 H 0.42585 0.61438 0.25994 0.0
C546 C 0.43443 0.59096 0.23325 0.0
C547 C 0.43923 0.58893 0.20945 0.0
C548 C 0.42958 0.68047 0.21916 0.0
C549 C 0.4292 0.63335 0.22591 0.0
C550 C 0.42226 0.70139 0.22622 0.0
C551 C 0.40891 0.69902 0.24778 0.0
C552 C 0.42369 0.65704 0.23379 0.0
C553 C 0.4044 0.67587 0.2623 0.0
C554 C 0.4293 0.61304 0.24152 0.0
C555 C 0.43838 0.60942 0.19443 0.0
N556 N 0.41166 0.65567 0.25499 0.0
N557 N 0.43358 0.63076 0.20292 0.0
H558 H 0.85099 0.38752 0.37759 0.0
H559 H 0.78182 0.48678 0.4164 0.0
H560 H 0.89762 0.48201 0.37677 0.0
H561 H 0.72934 0.39274 0.40739 0.0
H562 H 0.82645 0.4843 0.4086 0.0
H563 H 0.80817 0.38803 0.39478 0.0
C564 C 0.85228 0.40832 0.38126 0.0
C565 C 0.87759 0.43474 0.37544 0.0
C566 C 0.80522 0.46415 0.40851 0.0
C567 C 0.82908 0.43555 0.39506 0.0
C568 C 0.77969 0.46554 0.41302 0.0
C569 C 0.75172 0.43998 0.41223 0.0
C570 C 0.80286 0.43702 0.40306 0.0
C571 C 0.75043 0.41305 0.40798 0.0
C572 C 0.82788 0.40862 0.39098 0.0
C573 C 0.87826 0.46113 0.38056 0.0
N574 N 0.77562 0.4123 0.4033 0.0
N575 N 0.85433 0.46085 0.38995 0.0
H576 H 0.10377 0.57911 0.41317 0.0
H577 H 0.21687 0.60394 0.51867 0.0
H578 H 0.13409 0.51811 0.42802 0.0
H579 H 0.17771 0.65809 0.50577 0.0
H580 H 0.18956 0.57357 0.48447 0.0
H581 H 0.13368 0.60972 0.44587 0.0
C582 C 0.11697 0.57226 0.42319 0.0
C583 C 0.11654 0.54605 0.4177 0.0
C584 C 0.18705 0.59215 0.48916 0.0
C585 C 0.15069 0.58098 0.45564 0.0
C586 C 0.20267 0.60953 0.50863 0.0
C587 C 0.19952 0.63357 0.51518 0.0
C588 C 0.16831 0.59899 0.47613 0.0
C589 C 0.18079 0.63975 0.50152 0.0
C590 C 0.13392 0.58969 0.44202 0.0
C591 C 0.13362 0.53804 0.43172 0.0
N592 N 0.16595 0.6226 0.48273 0.0
N593 N 0.15006 0.55547 0.45005 0.0
H594 H 0.57401 0.085 0.60142 0.0
H595 H 0.6167 0.23062 0.67428 0.0
H596 H 0.60949 0.16863 0.56801 0.0
H597 H 0.54174 0.14603 0.68974 0.0
H598 H 0.6255 0.20894 0.63925 0.0
H599 H 0.57404 0.10834 0.63842 0.0
C600 C 0.58234 0.1084 0.60199 0.0
C601 C 0.59171 0.12496 0.58169 0.0
C602 C 0.60732 0.19522 0.6505 0.0
C603 C 0.59173 0.15166 0.62383 0.0
C604 C 0.60238 0.20746 0.67045 0.0
C605 C 0.57834 0.19006 0.68474 0.0
C606 C 0.58855 0.16531 0.64531 0.0
C607 C 0.56033 0.16023 0.67903 0.0
C608 C 0.58214 0.12161 0.62303 0.0
C609 C 0.60191 0.15514 0.58331 0.0
N610 N 0.56587 0.14876 0.65979 0.0
N611 N 0.60165 0.1676 0.60408 0.0
H612 H 0.49565 0.57126 0.77132 0.0
H613 H 0.40948 0.63648 0.84145 0.0
H614 H 0.45171 0.61187 0.73661 0.0
H615 H 0.41455 0.56087 0.86304 0.0
H616 H 0.43734 0.63903 0.80638 0.0
H617 H 0.47849 0.57919 0.80866 0.0
C618 C 0.48283 0.58234 0.77162 0.0
C619 C 0.47494 0.59083 0.75088 0.0
C620 C 0.43264 0.62218 0.81901 0.0
C621 C 0.45528 0.59988 0.79347 0.0
C622 C 0.41699 0.62083 0.83903 0.0
C623 C 0.4096 0.5983 0.85498 0.0
C624 C 0.44143 0.60127 0.81536 0.0
C625 C 0.4196 0.57841 0.85101 0.0
C626 C 0.47293 0.58668 0.79289 0.0
C627 C 0.45799 0.60476 0.75223 0.0
N628 N 0.43501 0.58035 0.83159 0.0
N629 N 0.44862 0.60883 0.77322 0.0
H630 H 0.88648 0.49769 0.90644 0.0
H631 H 0.79801 0.38742 0.00886 0.0
H632 H 0.87801 0.41224 0.91209 0.0
H633 H 0.82843 0.48014 0.01141 0.0
H634 H 0.82053 0.39358 0.97056 0.0
H635 H 0.85815 0.48881 0.94199 0.0
C636 C 0.87833 0.4769 0.91501 0.0
C637 C 0.88465 0.45569 0.90632 0.0
C638 C 0.82213 0.41251 0.97951 0.0
C639 C 0.85245 0.44549 0.94718 0.0
C640 C 0.80921 0.40901 0.00131 0.0
C641 C 0.8115 0.43334 0.01343 0.0
C642 C 0.83713 0.44047 0.96969 0.0
C643 C 0.8263 0.4608 0.00281 0.0
C644 C 0.86236 0.47193 0.93541 0.0
C645 C 0.87389 0.4293 0.91835 0.0
N646 N 0.83855 0.4636 0.98158 0.0
N647 N 0.85831 0.42493 0.9382 0.0
H648 H 0.45116 0.86257 0.06937 0.0
H649 H 0.37671 0.84791 0.19133 0.0
H650 H 0.46795 0.93805 0.11091 0.0
H651 H 0.40456 0.78659 0.17042 0.0
H652 H 0.40222 0.87805 0.15792 0.0
H653 H 0.42689 0.83111 0.10286 0.0
C654 C 0.44986 0.87244 0.08561 0.0
C655 C 0.46161 0.90283 0.08758 0.0
C656 C 0.40268 0.85796 0.16066 0.0
C657 C 0.4335 0.86726 0.12538 0.0
C658 C 0.38796 0.84064 0.17958 0.0
C659 C 0.38856 0.81472 0.18363 0.0
C660 C 0.41758 0.84903 0.14541 0.0
C661 C 0.40368 0.80648 0.16793 0.0
C662 C 0.43613 0.85459 0.10461 0.0
C663 C 0.45937 0.91471 0.10886 0.0
N664 N 0.41747 0.82352 0.14935 0.0
N665 N 0.44524 0.89684 0.12689 0.0
H666 H 0.52299 0.40592 0.25649 0.0
H667 H 0.66931 0.48053 0.33789 0.0
H668 H 0.59429 0.49552 0.25153 0.0
H669 H 0.59537 0.39413 0.35048 0.0
H670 H 0.64391 0.48331 0.30311 0.0
H671 H 0.55038 0.39867 0.28838 0.0
C672 C 0.54436 0.42405 0.26205 0.0
C673 C 0.55633 0.45139 0.25123 0.0
C674 C 0.63318 0.46363 0.31335 0.0
C675 C 0.58786 0.44309 0.28746 0.0
C676 C 0.64774 0.46199 0.33326 0.0
C677 C 0.63431 0.43717 0.34731 0.0
C678 C 0.60479 0.44037 0.30734 0.0
C679 C 0.60648 0.41372 0.3402 0.0
C680 C 0.56003 0.41982 0.28016 0.0
C681 C 0.58432 0.47393 0.25899 0.0
N682 N 0.59246 0.416 0.32078 0.0
N683 N 0.59901 0.46927 0.2766 0.0
H684 H 0.43513 0.92399 0.39604 0.0
H685 H 0.43396 0.80927 0.30322 0.0
H686 H 0.50797 0.90734 0.3891 0.0
H687 H 0.36246 0.82781 0.31129 0.0
H688 H 0.46021 0.84227 0.33633 0.0
H689 H 0.40711 0.88629 0.36648 0.0
C690 C 0.44527 0.91243 0.3882 0.0
C691 C 0.47405 0.91903 0.39483 0.0
C692 C 0.43869 0.83893 0.33091 0.0
C693 C 0.44196 0.87555 0.36104 0.0
C694 C 0.42367 0.82006 0.31205 0.0
C695 C 0.39607 0.81594 0.30433 0.0
C696 C 0.42599 0.85373 0.34209 0.0
C697 C 0.38378 0.83046 0.31646 0.0
C698 C 0.42919 0.89076 0.37142 0.0
C699 C 0.48581 0.90288 0.38451 0.0
N700 N 0.39888 0.84878 0.33462 0.0
N701 N 0.46979 0.88199 0.36798 0.0
H702 H 0.56181 0.44183 0.57826 0.0
H703 H 0.63902 0.49421 0.45681 0.0
H704 H 0.54833 0.5003 0.53433 0.0
H705 H 0.61593 0.40877 0.4825 0.0
H706 H 0.61053 0.4996 0.48786 0.0
H707 H 0.58556 0.43137 0.54571 0.0
C708 C 0.56363 0.45221 0.56169 0.0
C709 C 0.55316 0.47195 0.55889 0.0
C710 C 0.61161 0.47963 0.48668 0.0
C711 C 0.58059 0.46056 0.52201 0.0
C712 C 0.62807 0.47661 0.46908 0.0
C713 C 0.62994 0.45103 0.46713 0.0
C714 C 0.59731 0.45716 0.50277 0.0
C715 C 0.61502 0.42884 0.4834 0.0
C716 C 0.57705 0.44619 0.54318 0.0
C717 C 0.55592 0.4848 0.53712 0.0
N718 N 0.5995 0.43252 0.50074 0.0
N719 N 0.56973 0.47918 0.5196 0.0
H720 H 0.09236 0.61355 0.72935 0.0
H721 H 0.20898 0.61772 0.63762 0.0
H722 H 0.10582 0.54018 0.7166 0.0
H723 H 0.17807 0.68 0.63947 0.0
H724 H 0.17716 0.59246 0.67055 0.0
H725 H 0.12922 0.64128 0.70019 0.0
C726 C 0.10293 0.60316 0.72035 0.0
C727 C 0.09556 0.57425 0.72526 0.0
C728 C 0.17753 0.61176 0.66381 0.0
C729 C 0.1384 0.60626 0.69204 0.0
C730 C 0.19579 0.62629 0.6451 0.0
C731 C 0.19606 0.65092 0.63566 0.0
C732 C 0.15963 0.62211 0.67326 0.0
C733 C 0.17844 0.66098 0.64605 0.0
C734 C 0.12416 0.61912 0.70379 0.0
C735 C 0.1108 0.56239 0.71349 0.0
N736 N 0.16091 0.64651 0.66422 0.0
N737 N 0.1314 0.5784 0.69735 0.0
H738 H 0.49679 0.0686 0.88338 0.0
H739 H 0.59326 0.21743 0.81629 0.0
H740 H 0.57274 0.14285 0.91621 0.0
H741 H 0.50216 0.15421 0.79793 0.0
H742 H 0.58873 0.18989 0.85172 0.0
H743 H 0.50115 0.09887 0.85036 0.0
C744 C 0.51423 0.09137 0.88383 0.0
C745 C 0.5342 0.1032 0.90288 0.0
C746 C 0.56973 0.18227 0.83997 0.0
C747 C 0.53974 0.13794 0.86455 0.0
C748 C 0.57228 0.19793 0.81976 0.0
C749 C 0.54809 0.18806 0.80405 0.0
C750 C 0.54296 0.1564 0.84427 0.0
C751 C 0.52143 0.16267 0.80947 0.0
C752 C 0.51678 0.10863 0.86484 0.0
C753 C 0.55696 0.13268 0.9019 0.0
N754 N 0.51969 0.14762 0.82899 0.0
N755 N 0.55916 0.14904 0.88302 0.0
H756 H 0.37286 0.49401 0.07628 0.0
H757 H 0.3998 0.61338 0.98 0.0
H758 H 0.45266 0.57854 0.07344 0.0
H759 H 0.33297 0.52184 0.97327 0.0
H760 H 0.41434 0.60367 0.01811 0.0
H761 H 0.35284 0.50685 0.04245 0.0
C762 C 0.38598 0.51544 0.06873 0.0
C763 C 0.41455 0.53517 0.07753 0.0
C764 C 0.39636 0.58578 0.00833 0.0
C765 C 0.39191 0.54991 0.0388 0.0
C766 C 0.38798 0.59131 0.98661 0.0
C767 C 0.36532 0.56832 0.97331 0.0
C768 C 0.38183 0.55713 0.01688 0.0
C769 C 0.35076 0.54017 0.98281 0.0
C770 C 0.37464 0.52267 0.04935 0.0
C771 C 0.4307 0.56254 0.06697 0.0
N772 N 0.35934 0.53535 0.00397 0.0
N773 N 0.41921 0.56907 0.04809 0.0
H774 H 0.94611 0.43076 0.20704 0.0
H775 H 0.78616 0.3709 0.14749 0.0
H776 H 0.86714 0.39346 0.24844 0.0
H777 H 0.86661 0.44565 0.12381 0.0
H778 H 0.81445 0.36733 0.18093 0.0
H779 H 0.91562 0.42348 0.17231 0.0
C780 C 0.92229 0.42086 0.20882 0.0
C781 C 0.90924 0.41344 0.23078 0.0
C782 C 0.82579 0.38427 0.16823 0.0
C783 C 0.87417 0.40461 0.19093 0.0
C784 C 0.80979 0.38625 0.14918 0.0
C785 C 0.82413 0.40872 0.13303 0.0
C786 C 0.85633 0.40443 0.17061 0.0
C787 C 0.85469 0.42817 0.13599 0.0
C788 C 0.90493 0.41664 0.18897 0.0
C789 C 0.87812 0.39972 0.23187 0.0
N790 N 0.86976 0.42551 0.15435 0.0
N791 N 0.86157 0.39601 0.21219 0.0
loop_
_geom_bond_atom_site_label_1
_geom_bond_atom_site_label_2
_geom_bond_distance
_geom_bond_site_symmetry_2
_ccdc_geom_bond_type
C0 C1 1.384 . S
C0 C2 1.384 . S
C0 H28 0.931 . S
C1 C0 1.384 . S
C1 C4 1.382 . S
C2 C0 1.384 . S
C2 C3 1.381 . S
C2 H29 0.930 . S
C3 C2 1.381 . S
C3 C5 1.381 . S
C3 C6 1.487 . S
C4 C1 1.382 . S
C4 C5 1.387 . S
C4 H30 0.930 . S
C5 C3 1.381 . S
C5 C4 1.387 . S
C5 H31 0.931 . S
C6 C3 1.487 . S
C6 C13 1.399 . S
C6 N44 1.343 . S
C7 C8 1.384 . S
C7 C9 1.384 . S
C7 H32 0.931 . S
C8 C7 1.384 . S
C8 C11 1.382 . S
C9 C7 1.384 . S
C9 C10 1.381 . S
C9 H33 0.930 . S
C10 C9 1.381 . S
C10 C12 1.381 . S
C10 C13 1.487 . S
C11 C8 1.382 . S
C11 C12 1.387 . S
C11 H34 0.930 . S
C12 C10 1.381 . S
C12 C11 1.387 . S
C12 H35 0.931 . S
C13 C6 1.399 . S
C13 C10 1.487 . S
C13 N45 1.343 1_655 S
C14 C15 1.384 . S
C14 C16 1.384 . S
C14 H36 0.931 . S
C15 C14 1.384 . S
C15 C18 1.382 . S
C16 C14 1.384 . S
C16 C17 1.381 . S
C16 H37 0.930 . S
C17 C16 1.381 . S
C17 C19 1.381 . S
C17 C20 1.487 . S
C18 C15 1.382 . S
C18 C19 1.387 . S
C18 H38 0.930 . S
C19 C17 1.381 . S
C19 C18 1.387 . S
C19 H39 0.931 . S
C20 C17 1.487 . S
C20 C27 1.399 . S
C20 N45 1.343 . S
C21 C22 1.384 . S
C21 C23 1.384 . S
C21 H40 0.931 . S
C22 C21 1.384 . S
C22 C25 1.382 . S
C23 C21 1.384 . S
C23 C24 1.381 . S
C23 H41 0.930 . S
C24 C23 1.381 . S
C24 C26 1.381 . S
C24 C27 1.487 . S
C25 C22 1.382 . S
C25 C26 1.387 . S
C25 H42 0.930 . S
C26 C24 1.381 . S
C26 C25 1.387 . S
C26 H43 0.931 . S
C27 C20 1.399 . S
C27 C24 1.487 . S
C27 N44 1.343 1_455 S
H28 C0 0.931 . S
H29 C2 0.930 . S
H30 C4 0.930 . S
H31 C5 0.931 . S
H32 C7 0.931 . S
H33 C9 0.930 . S
H34 C11 0.930 . S
H35 C12 0.931 . S
H36 C14 0.931 . S
H37 C16 0.930 . S
H38 C18 0.930 . S
H39 C19 0.931 . S
H40 C21 0.931 . S
H41 C23 0.930 . S
H42 C25 0.930 . S
H43 C26 0.931 . S
N44 C6 1.343 . S
N44 C27 1.343 1_655 S
N45 C13 1.343 1_455 S
N45 C20 1.343 . S
C46 C47 1.384 . S
C46 C48 1.384 . S
C46 H74 0.931 . S
C47 C46 1.384 . S
C47 C50 1.382 . S
C48 C46 1.384 . S
C48 C49 1.381 . S
C48 H75 0.930 . S
C49 C48 1.381 . S
C49 C51 1.381 . S
C49 C52 1.487 . S
C50 C47 1.382 . S
C50 C51 1.387 . S
C50 H76 0.930 . S
C51 C49 1.381 . S
C51 C50 1.387 . S
C51 H77 0.931 . S
C52 C49 1.487 . S
C52 C59 1.399 . S
C52 N90 1.343 . S
C53 C54 1.384 . S
C53 C55 1.384 . S
C53 H78 0.931 . S
C54 C53 1.384 . S
C54 C57 1.382 . S
C55 C53 1.384 . S
C55 C56 1.381 . S
C55 H79 0.930 . S
C56 C55 1.381 . S
C56 C58 1.381 . S
C56 C59 1.487 . S
C57 C54 1.382 . S
C57 C58 1.387 . S
C57 H80 0.930 . S
C58 C56 1.381 . S
C58 C57 1.387 . S
C58 H81 0.931 . S
C59 C52 1.399 . S
C59 C56 1.487 . S
C59 N91 1.343 1_565 S
C60 C61 1.384 . S
C60 C62 1.384 . S
C60 H82 0.931 . S
C61 C60 1.384 . S
C61 C64 1.382 . S
C62 C60 1.384 . S
C62 C63 1.381 . S
C62 H83 0.930 . S
C63 C62 1.381 . S
C63 C65 1.381 . S
C63 C66 1.487 . S
C64 C61 1.382 . S
C64 C65 1.387 . S
C64 H84 0.930 . S
C65 C63 1.381 . S
C65 C64 1.387 . S
C65 H85 0.931 . S
C66 C63 1.487 . S
C66 C73 1.399 . S
C66 N91 1.343 . S
C67 C68 1.384 . S
C67 C69 1.384 . S
C67 H86 0.931 . S
C68 C67 1.384 . S
C68 C71 1.382 . S
C69 C67 1.384 . S
C69 C70 1.381 . S
C69 H87 0.930 . S
C70 C69 1.381 . S
C70 C72 1.381 . S
C70 C73 1.487 . S
C71 C68 1.382 . S
C71 C72 1.387 . S
C71 H88 0.930 . S
C72 C70 1.381 . S
C72 C71 1.387 . S
C72 H89 0.931 . S
C73 C66 1.399 . S
C73 C70 1.487 . S
C73 N90 1.343 1_545 S
H74 C46 0.931 . S
H75 C48 0.930 . S
H76 C50 0.930 . S
H77 C51 0.931 . S
H78 C53 0.931 . S
H79 C55 0.930 . S
H80 C57 0.930 . S
H81 C58 0.931 . S
H82 C60 0.931 . S
H83 C62 0.930 . S
H84 C64 0.930 . S
H85 C65 0.931 . S
H86 C67 0.931 . S
H87 C69 0.930 . S
H88 C71 0.930 . S
H89 C72 0.931 . S
N90 C52 1.343 . S
N90 C73 1.343 1_565 S
N91 C59 1.343 1_545 S
N91 C66 1.343 . S
C92 C93 1.384 . S
C92 C94 1.384 . S
C92 H120 0.931 . S
C93 C92 1.384 . S
C93 C96 1.382 . S
C94 C92 1.384 . S
C94 C95 1.381 . S
C94 H121 0.930 . S
C95 C94 1.381 . S
C95 C97 1.381 . S
C95 C98 1.487 . S
C96 C93 1.382 . S
C96 C97 1.387 . S
C96 H122 0.930 . S
C97 C95 1.381 . S
C97 C96 1.387 . S
C97 H123 0.931 . S
C98 C95 1.487 . S
C98 C105 1.399 . S
C98 N136 1.343 . S
C99 C100 1.384 . S
C99 C101 1.384 . S
C99 H124 0.931 . S
C100 C99 1.384 . S
C100 C103 1.382 . S
C101 C99 1.384 . S
C101 C102 1.381 . S
C101 H125 0.930 . S
C102 C101 1.381 . S
C102 C104 1.381 . S
C102 C105 1.487 . S
C103 C100 1.382 . S
C103 C104 1.387 . S
C103 H126 0.930 . S
C104 C102 1.381 . S
C104 C103 1.387 . S
C104 H127 0.931 . S
C105 C98 1.399 . S
C105 C102 1.487 . S
C105 N137 1.343 . S
C106 C107 1.384 . S
C106 C108 1.384 . S
C106 H128 0.931 . S
C107 C106 1.384 . S
C107 C110 1.382 . S
C108 C106 1.384 . S
C108 C109 1.381 . S
C108 H129 0.930 . S
C109 C108 1.381 . S
C109 C111 1.381 . S
C109 C112 1.487 . S
C110 C107 1.382 . S
C110 C111 1.387 . S
C110 H130 0.930 . S
C111 C109 1.381 . S
C111 C110 1.387 . S
C111 H131 0.931 . S
C112 C109 1.487 . S
C112 C119 1.399 . S
C112 N137 1.343 . S
C113 C114 1.384 . S
C113 C115 1.384 . S
C113 H132 0.931 . S
C114 C113 1.384 . S
C114 C117 1.382 . S
C115 C113 1.384 . S
C115 C116 1.381 . S
C115 H133 0.930 . S
C116 C115 1.381 . S
C116 C118 1.381 . S
C116 C119 1.487 . S
C117 C114 1.382 . S
C117 C118 1.387 . S
C117 H134 0.930 . S
C118 C116 1.381 . S
C118 C117 1.387 . S
C118 H135 0.931 . S
C119 C112 1.399 . S
C119 C116 1.487 . S
C119 N136 1.343 . S
H120 C92 0.931 . S
H121 C94 0.930 . S
H122 C96 0.930 . S
H123 C97 0.931 . S
H124 C99 0.931 . S
H125 C101 0.930 . S
H126 C103 0.930 . S
H127 C104 0.931 . S
H128 C106 0.931 . S
H129 C108 0.930 . S
H130 C110 0.930 . S
H131 C111 0.931 . S
H132 C113 0.931 . S
H133 C115 0.930 . S
H134 C117 0.930 . S
H135 C118 0.931 . S
N136 C98 1.343 . S
N136 C119 1.343 . S
N137 C105 1.343 . S
N137 C112 1.343 . S
C138 C139 1.384 . S
C138 C140 1.384 . S
C138 H166 0.931 . S
C139 C138 1.384 . S
C139 C142 1.382 . S
C140 C138 1.384 . S
C140 C141 1.381 . S
C140 H167 0.930 . S
C141 C140 1.381 . S
C141 C143 1.381 . S
C141 C144 1.487 . S
C142 C139 1.382 . S
C142 C143 1.387 . S
C142 H168 0.930 . S
C143 C141 1.381 . S
C143 C142 1.387 . S
C143 H169 0.931 . S
C144 C141 1.487 . S
C144 C151 1.399 . S
C144 N182 1.329 1_655 S
C145 C146 1.384 . S
C145 C147 1.384 . S
C145 H170 0.931 . S
C146 C145 1.384 . S
C146 C149 1.382 . S
C147 C145 1.384 . S
C147 C148 1.381 . S
C147 H171 0.930 . S
C148 C147 1.381 . S
C148 C150 1.381 . S
C148 C151 1.487 . S
C149 C146 1.382 . S
C149 C150 1.387 . S
C149 H172 0.930 . S
C150 C148 1.381 . S
C150 C149 1.387 . S
C150 H173 0.931 . S
C151 C144 1.399 . S
C151 C148 1.487 . S
C151 N183 1.343 1_655 S
C152 C153 1.384 . S
C152 C154 1.384 . S
C152 H174 0.931 . S
C153 C152 1.384 . S
C153 C156 1.382 . S
C154 C152 1.384 . S
C154 C155 1.381 . S
C154 H175 0.930 . S
C155 C154 1.381 . S
C155 C157 1.381 . S
C155 C158 1.487 . S
C156 C153 1.382 . S
C156 C157 1.387 . S
C156 H176 0.930 . S
C157 C155 1.381 . S
C157 C156 1.387 . S
C157 H177 0.931 . S
C158 C155 1.487 . S
C158 C165 1.399 . S
C158 N183 1.343 . S
C159 C160 1.384 . S
C159 C161 1.384 . S
C159 H178 0.931 . S
C160 C159 1.384 . S
C160 C163 1.382 . S
C161 C159 1.384 . S
C161 C162 1.381 . S
C161 H179 0.930 . S
C162 C161 1.381 . S
C162 C164 1.381 . S
C162 C165 1.487 . S
C163 C160 1.382 . S
C163 C164 1.387 . S
C163 H180 0.930 . S
C164 C162 1.381 . S
C164 C163 1.387 . S
C164 H181 0.931 . S
C165 C158 1.399 . S
C165 C162 1.487 . S
C165 N182 1.366 . S
H166 C138 0.931 . S
H167 C140 0.930 . S
H168 C142 0.930 . S
H169 C143 0.931 . S
H170 C145 0.931 . S
H171 C147 0.930 . S
H172 C149 0.930 . S
H173 C150 0.931 . S
H174 C152 0.931 . S
H175 C154 0.930 . S
H176 C156 0.930 . S
H177 C157 0.931 . S
H178 C159 0.931 . S
H179 C161 0.930 . S
H180 C163 0.930 . S
H181 C164 0.931 . S
N182 C144 1.329 1_455 S
N182 C165 1.366 . S
N183 C151 1.343 1_455 S
N183 C158 1.343 . S
C184 C185 1.384 . S
C184 C186 1.384 . S
C184 H212 0.931 . S
C185 C184 1.384 . S
C185 C188 1.382 . S
C186 C184 1.384 . S
C186 C187 1.381 . S
C186 H213 0.935 . S
C187 C186 1.381 . S
C187 C189 1.381 . S
C187 C190 1.487 . S
C188 C185 1.382 . S
C188 C189 1.387 . S
C188 H214 0.930 . S
C189 C187 1.381 . S
C189 C188 1.387 . S
C189 H215 0.931 . S
C190 C187 1.487 . S
C190 C197 1.399 1_556 S
C190 N228 1.351 . S
C191 C192 1.384 . S
C191 C193 1.384 . S
C191 H216 0.931 . S
C192 C191 1.384 . S
C192 C195 1.382 . S
C193 C191 1.384 . S
C193 C194 1.381 . S
C193 H217 0.930 . S
C194 C193 1.381 . S
C194 C196 1.381 . S
C194 C197 1.487 . S
C195 C192 1.382 . S
C195 C196 1.387 . S
C195 H218 0.930 . S
C196 C194 1.381 . S
C196 C195 1.387 . S
C196 H219 0.931 . S
C197 C190 1.399 1_554 S
C197 C194 1.487 . S
C197 N229 1.343 1_565 S
C198 C199 1.384 . S
C198 C200 1.384 1_554 S
C198 H220 0.931 1_554 S
C199 C198 1.384 . S
C199 C202 1.382 . S
C200 C198 1.384 1_556 S
C200 C201 1.381 1_556 S
C200 H221 0.930 . S
C201 C200 1.381 1_554 S
C201 C203 1.381 . S
C201 C204 1.487 1_554 S
C202 C199 1.382 . S
C202 C203 1.387 . S
C202 H222 0.930 . S
C203 C201 1.381 . S
C203 C202 1.387 . S
C203 H223 0.931 . S
C204 C201 1.487 1_556 S
C204 C211 1.399 . S
C204 N229 1.343 1_556 S
C205 C206 1.384 . S
C205 C207 1.384 . S
C205 H224 0.931 . S
C206 C205 1.384 . S
C206 C209 1.382 . S
C207 C205 1.384 . S
C207 C208 1.381 . S
C207 H225 0.930 . S
C208 C207 1.381 . S
C208 C210 1.381 . S
C208 C211 1.487 . S
C209 C206 1.382 . S
C209 C210 1.387 . S
C209 H226 0.930 . S
C210 C208 1.381 . S
C210 C209 1.387 . S
C210 H227 0.931 . S
C211 C204 1.399 . S
C211 C208 1.487 . S
C211 N228 1.333 1_545 S
H212 C184 0.931 . S
H213 C186 0.935 . S
H214 C188 0.930 . S
H215 C189 0.931 . S
H216 C191 0.931 . S
H217 C193 0.930 . S
H218 C195 0.930 . S
H219 C196 0.931 . S
H220 C198 0.931 1_556 S
H221 C200 0.930 . S
H222 C202 0.930 . S
H223 C203 0.931 . S
H224 C205 0.931 . S
H225 C207 0.930 . S
H226 C209 0.930 . S
H227 C210 0.931 . S
N228 C190 1.351 . S
N228 C211 1.333 1_565 S
N229 C197 1.343 1_545 S
N229 C204 1.343 1_554 S
C230 C231 1.384 . S
C230 C232 1.384 . S
C230 H258 0.931 . S
C231 C230 1.384 . S
C231 C234 1.382 . S
C232 C230 1.384 . S
C232 C233 1.381 . S
C232 H259 0.930 . S
C233 C232 1.381 . S
C233 C235 1.381 . S
C233 C236 1.487 . S
C234 C231 1.382 . S
C234 C235 1.387 . S
C234 H260 0.930 . S
C235 C233 1.381 . S
C235 C234 1.387 . S
C235 H261 0.931 . S
C236 C233 1.487 . S
C236 C243 1.399 . S
C236 N274 1.343 . S
C237 C238 1.384 . S
C237 C239 1.384 . S
C237 H262 0.931 . S
C238 C237 1.384 . S
C238 C241 1.382 . S
C239 C237 1.384 . S
C239 C240 1.381 . S
C239 H263 0.930 . S
C240 C239 1.381 . S
C240 C242 1.381 . S
C240 C243 1.487 . S
C241 C238 1.382 . S
C241 C242 1.387 . S
C241 H264 0.930 . S
C242 C240 1.381 . S
C242 C241 1.387 . S
C242 H265 0.931 . S
C243 C236 1.399 . S
C243 C240 1.487 . S
C243 N275 1.343 . S
C244 C245 1.384 . S
C244 C246 1.384 . S
C244 H266 0.931 . S
C245 C244 1.384 . S
C245 C248 1.382 . S
C246 C244 1.384 . S
C246 C247 1.381 . S
C246 H267 0.930 . S
C247 C246 1.381 . S
C247 C249 1.381 . S
C247 C250 1.487 . S
C248 C245 1.382 . S
C248 C249 1.387 . S
C248 H268 0.930 . S
C249 C247 1.381 . S
C249 C248 1.387 . S
C249 H269 0.931 . S
C250 C247 1.487 . S
C250 C257 1.399 . S
C250 N275 1.343 . S
C251 C252 1.384 . S
C251 C253 1.384 . S
C251 H270 0.931 . S
C252 C251 1.384 . S
C252 C255 1.382 . S
C253 C251 1.384 . S
C253 C254 1.381 . S
C253 H271 0.930 . S
C254 C253 1.381 . S
C254 C256 1.381 . S
C254 C257 1.487 . S
C255 C252 1.382 . S
C255 C256 1.387 . S
C255 H272 0.930 . S
C256 C254 1.381 . S
C256 C255 1.387 . S
C256 H273 0.931 . S
C257 C250 1.399 . S
C257 C254 1.487 . S
C257 N274 1.343 . S
H258 C230 0.931 . S
H259 C232 0.930 . S
H260 C234 0.930 . S
H261 C235 0.931 . S
H262 C237 0.931 . S
H263 C239 0.930 . S
H264 C241 0.930 . S
H265 C242 0.931 . S
H266 C244 0.931 . S
H267 C246 0.930 . S
H268 C248 0.930 . S
H269 C249 0.931 . S
H270 C251 0.931 . S
H271 C253 0.930 . S
H272 C255 0.930 . S
H273 C256 0.931 . S
N274 C236 1.343 . S
N274 C257 1.343 . S
N275 C243 1.343 . S
N275 C250 1.343 . S
Zn276 O279 2.031 . S
Zn276 O281 2.049 . S
Zn276 O286 2.067 . S
Zn277 O278 1.962 . S
Zn277 O280 1.986 . S
Zn277 O282 1.996 . S
Zn277 O285 1.943 . S
O278 Zn277 1.962 . S
O278 C283 1.254 . S
O279 Zn276 2.031 . S
O279 C283 1.269 . S
O280 Zn277 1.986 . S
O280 C287 1.262 . S
O281 Zn276 2.049 . S
O281 C289 1.260 . S
O282 Zn277 1.996 . S
O282 C289 1.257 . S
C283 O278 1.254 . S
C283 O279 1.269 . S
C284 O285 1.249 . S
C284 O286 1.270 . S
O285 Zn277 1.943 . S
O285 C284 1.249 . S
O286 Zn276 2.067 . S
O286 C284 1.270 . S
C287 O280 1.262 . S
C287 O288 1.232 . S
O288 C287 1.232 . S
C289 O281 1.260 . S
C289 O282 1.257 . S
Zn290 O293 2.031 . S
Zn290 O295 2.049 . S
Zn290 O300 2.067 . S
Zn291 O292 1.962 . S
Zn291 O294 1.986 . S
Zn291 O296 1.996 . S
Zn291 O299 1.943 . S
O292 Zn291 1.962 . S
O292 C297 1.254 . S
O293 Zn290 2.031 . S
O293 C297 1.269 . S
O294 Zn291 1.986 . S
O294 C301 1.262 . S
O295 Zn290 2.049 . S
O295 C303 1.260 . S
O296 Zn291 1.996 . S
O296 C303 1.257 . S
C297 O292 1.254 . S
C297 O293 1.269 . S
C298 O299 1.249 . S
C298 O300 1.270 . S
O299 Zn291 1.943 . S
O299 C298 1.249 . S
O300 Zn290 2.067 . S
O300 C298 1.270 . S
C301 O294 1.262 . S
C301 O302 1.232 . S
O302 C301 1.232 . S
C303 O295 1.260 . S
C303 O296 1.257 . S
Zn304 O307 2.031 . S
Zn304 O309 2.049 . S
Zn304 O314 2.067 . S
Zn305 O306 1.962 . S
Zn305 O308 1.986 . S
Zn305 O310 1.996 . S
Zn305 O313 1.943 . S
O306 Zn305 1.962 . S
O306 C311 1.254 . S
O307 Zn304 2.031 . S
O307 C311 1.269 . S
O308 Zn305 1.986 . S
O308 C315 1.262 . S
O309 Zn304 2.049 . S
O309 C317 1.260 . S
O310 Zn305 1.996 . S
O310 C317 1.257 . S
C311 O306 1.254 . S
C311 O307 1.269 . S
C312 O313 1.249 . S
C312 O314 1.270 . S
O313 Zn305 1.943 . S
O313 C312 1.249 . S
O314 Zn304 2.067 . S
O314 C312 1.270 . S
C315 O308 1.262 . S
C315 O316 1.232 . S
O316 C315 1.232 . S
C317 O309 1.260 . S
C317 O310 1.257 . S
Zn318 O321 2.031 . S
Zn318 O323 2.049 . S
Zn318 O328 2.067 . S
Zn319 O320 1.962 . S
Zn319 O322 1.986 . S
Zn319 O324 1.996 . S
Zn319 O327 1.943 . S
O320 Zn319 1.962 . S
O320 C325 1.254 . S
O321 Zn318 2.031 . S
O321 C325 1.269 . S
O322 Zn319 1.986 . S
O322 C329 1.262 . S
O323 Zn318 2.049 . S
O323 C331 1.260 . S
O324 Zn319 1.996 . S
O324 C331 1.257 . S
C325 O320 1.254 . S
C325 O321 1.269 . S
C326 O327 1.249 . S
C326 O328 1.270 . S
O327 Zn319 1.943 . S
O327 C326 1.249 . S
O328 Zn318 2.067 . S
O328 C326 1.270 . S
C329 O322 1.262 . S
C329 O330 1.232 . S
O330 C329 1.232 . S
C331 O323 1.260 . S
C331 O324 1.257 . S
Zn332 O335 2.031 . S
Zn332 O337 2.049 . S
Zn332 O342 2.067 . S
Zn333 O334 1.962 . S
Zn333 O336 1.986 . S
Zn333 O338 1.996 . S
Zn333 O341 1.943 . S
O334 Zn333 1.962 . S
O334 C339 1.254 . S
O335 Zn332 2.031 . S
O335 C339 1.269 . S
O336 Zn333 1.986 . S
O336 C343 1.262 . S
O337 Zn332 2.049 . S
O337 C345 1.260 . S
O338 Zn333 1.996 . S
O338 C345 1.257 . S
C339 O334 1.254 . S
C339 O335 1.269 . S
C340 O341 1.249 . S
C340 O342 1.270 . S
O341 Zn333 1.943 . S
O341 C340 1.249 . S
O342 Zn332 2.067 . S
O342 C340 1.270 . S
C343 O336 1.262 . S
C343 O344 1.232 . S
O344 C343 1.232 . S
C345 O337 1.260 . S
C345 O338 1.257 . S
Zn346 O349 2.031 . S
Zn346 O351 2.049 . S
Zn346 O356 2.067 . S
Zn347 O348 1.962 . S
Zn347 O350 1.986 . S
Zn347 O352 1.996 . S
Zn347 O355 1.943 . S
O348 Zn347 1.962 . S
O348 C353 1.254 . S
O349 Zn346 2.031 . S
O349 C353 1.269 . S
O350 Zn347 1.986 . S
O350 C357 1.262 . S
O351 Zn346 2.049 . S
O351 C359 1.260 . S
O352 Zn347 1.996 . S
O352 C359 1.257 . S
C353 O348 1.254 . S
C353 O349 1.269 . S
C354 O355 1.249 . S
C354 O356 1.270 . S
O355 Zn347 1.943 . S
O355 C354 1.249 . S
O356 Zn346 2.067 . S
O356 C354 1.270 . S
C357 O350 1.262 . S
C357 O358 1.232 . S
O358 C357 1.232 . S
C359 O351 1.260 . S
C359 O352 1.257 . S
H360 C366 0.930 . S
H361 C370 0.930 . S
H362 C375 0.929 . S
H363 C373 0.929 . S
H364 C368 0.929 . S
H365 C374 0.929 . S
C366 H360 0.930 . S
C366 C367 1.367 . S
C366 C374 1.378 . S
C367 C366 1.367 . S
C367 C375 1.433 . S
C368 H364 0.929 . S
C368 C370 1.378 . S
C368 C372 1.350 . S
C369 C372 1.463 . S
C369 C374 1.350 . S
C369 N377 1.427 . S
C370 H361 0.930 . S
C370 C368 1.378 . S
C370 C371 1.367 . S
C371 C370 1.367 . S
C371 C373 1.433 . S
C372 C368 1.350 . S
C372 C369 1.463 . S
C372 N376 1.427 . S
C373 H363 0.929 . S
C373 C371 1.433 . S
C373 N376 1.384 . S
C374 H365 0.929 . S
C374 C366 1.378 . S
C374 C369 1.350 . S
C375 H362 0.929 . S
C375 C367 1.433 . S
C375 N377 1.384 . S
N376 C372 1.427 . S
N376 C373 1.384 . S
N377 C369 1.427 . S
N377 C375 1.384 . S
H378 C384 0.930 . S
H379 C388 0.930 . S
H380 C393 0.929 . S
H381 C391 0.929 . S
H382 C386 0.929 . S
H383 C392 0.929 . S
C384 H378 0.930 . S
C384 C385 1.367 . S
C384 C392 1.378 . S
C385 C384 1.367 . S
C385 C393 1.433 . S
C386 H382 0.929 . S
C386 C388 1.378 . S
C386 C390 1.350 . S
C387 C390 1.463 . S
C387 C392 1.350 . S
C387 N395 1.427 . S
C388 H379 0.930 . S
C388 C386 1.378 . S
C388 C389 1.367 . S
C389 C388 1.367 . S
C389 C391 1.433 . S
C390 C386 1.350 . S
C390 C387 1.463 . S
C390 N394 1.427 . S
C391 H381 0.929 . S
C391 C389 1.433 . S
C391 N394 1.384 . S
C392 H383 0.929 . S
C392 C384 1.378 . S
C392 C387 1.350 . S
C393 H380 0.929 . S
C393 C385 1.433 . S
C393 N395 1.384 . S
N394 C390 1.427 . S
N394 C391 1.384 . S
N395 C387 1.427 . S
N395 C393 1.384 . S
H396 C402 0.930 . S
H397 C406 0.930 . S
H398 C411 0.929 . S
H399 C409 0.929 . S
H400 C404 0.929 . S
H401 C410 0.929 . S
C402 H396 0.930 . S
C402 C403 1.367 . S
C402 C410 1.378 . S
C403 C402 1.367 . S
C403 C411 1.433 . S
C404 H400 0.929 . S
C404 C406 1.378 . S
C404 C408 1.350 . S
C405 C408 1.463 . S
C405 C410 1.350 . S
C405 N413 1.427 . S
C406 H397 0.930 . S
C406 C404 1.378 . S
C406 C407 1.367 . S
C407 C406 1.367 . S
C407 C409 1.433 . S
C408 C404 1.350 . S
C408 C405 1.463 . S
C408 N412 1.427 . S
C409 H399 0.929 . S
C409 C407 1.433 . S
C409 N412 1.384 . S
C410 H401 0.929 . S
C410 C402 1.378 . S
C410 C405 1.350 . S
C411 H398 0.929 . S
C411 C403 1.433 . S
C411 N413 1.384 . S
N412 C408 1.427 . S
N412 C409 1.384 . S
N413 C405 1.427 . S
N413 C411 1.384 . S
H414 C420 0.930 . S
H415 C424 0.930 . S
H416 C429 0.929 . S
H417 C427 0.929 . S
H418 C422 0.929 . S
H419 C428 0.929 . S
C420 H414 0.930 . S
C420 C421 1.367 . S
C420 C428 1.378 . S
C421 C420 1.367 . S
C421 C429 1.433 . S
C422 H418 0.929 . S
C422 C424 1.378 . S
C422 C426 1.350 . S
C423 C426 1.463 . S
C423 C428 1.350 . S
C423 N431 1.427 . S
C424 H415 0.930 . S
C424 C422 1.378 . S
C424 C425 1.367 . S
C425 C424 1.367 . S
C425 C427 1.433 . S
C426 C422 1.350 . S
C426 C423 1.463 . S
C426 N430 1.427 . S
C427 H417 0.929 . S
C427 C425 1.433 . S
C427 N430 1.384 . S
C428 H419 0.929 . S
C428 C420 1.378 . S
C428 C423 1.350 . S
C429 H416 0.929 . S
C429 C421 1.433 . S
C429 N431 1.384 . S
N430 C426 1.427 . S
N430 C427 1.384 . S
N431 C423 1.427 . S
N431 C429 1.384 . S
H432 C438 0.930 . S
H433 C442 0.930 . S
H434 C447 0.929 . S
H435 C445 0.929 . S
H436 C440 0.929 . S
H437 C446 0.929 . S
C438 H432 0.930 . S
C438 C439 1.367 . S
C438 C446 1.378 . S
C439 C438 1.367 . S
C439 C447 1.433 . S
C440 H436 0.929 . S
C440 C442 1.378 . S
C440 C444 1.350 . S
C441 C444 1.463 . S
C441 C446 1.350 . S
C441 N449 1.427 . S
C442 H433 0.930 . S
C442 C440 1.378 . S
C442 C443 1.367 . S
C443 C442 1.367 . S
C443 C445 1.433 . S
C444 C440 1.350 . S
C444 C441 1.463 . S
C444 N448 1.427 . S
C445 H435 0.929 . S
C445 C443 1.433 . S
C445 N448 1.384 . S
C446 H437 0.929 . S
C446 C438 1.378 . S
C446 C441 1.350 . S
C447 H434 0.929 . S
C447 C439 1.433 . S
C447 N449 1.384 . S
N448 C444 1.427 . S
N448 C445 1.384 . S
N449 C441 1.427 . S
N449 C447 1.384 . S
H450 C456 0.930 . S
H451 C460 0.930 . S
H452 C465 0.929 . S
H453 C463 0.929 . S
H454 C458 0.929 . S
H455 C464 0.929 . S
C456 H450 0.930 . S
C456 C457 1.367 . S
C456 C464 1.378 . S
C457 C456 1.367 . S
C457 C465 1.433 . S
C458 H454 0.929 . S
C458 C460 1.378 . S
C458 C462 1.350 . S
C459 C462 1.463 . S
C459 C464 1.350 . S
C459 N467 1.427 . S
C460 H451 0.930 . S
C460 C458 1.378 . S
C460 C461 1.367 . S
C461 C460 1.367 . S
C461 C463 1.433 . S
C462 C458 1.350 . S
C462 C459 1.463 . S
C462 N466 1.427 . S
C463 H453 0.929 . S
C463 C461 1.433 . S
C463 N466 1.384 . S
C464 H455 0.929 . S
C464 C456 1.378 . S
C464 C459 1.350 . S
C465 H452 0.929 . S
C465 C457 1.433 . S
C465 N467 1.384 . S
N466 C462 1.427 . S
N466 C463 1.384 . S
N467 C459 1.427 . S
N467 C465 1.384 . S
H468 C474 0.930 . S
H469 C478 0.930 . S
H470 C483 0.929 . S
H471 C481 0.929 . S
H472 C476 0.929 . S
H473 C482 0.929 . S
C474 H468 0.930 . S
C474 C475 1.367 . S
C474 C482 1.378 . S
C475 C474 1.367 . S
C475 C483 1.433 . S
C476 H472 0.929 . S
C476 C478 1.378 . S
C476 C480 1.350 . S
C477 C480 1.463 . S
C477 C482 1.350 . S
C477 N485 1.427 . S
C478 H469 0.930 . S
C478 C476 1.378 . S
C478 C479 1.367 . S
C479 C478 1.367 . S
C479 C481 1.433 . S
C480 C476 1.350 . S
C480 C477 1.463 . S
C480 N484 1.427 . S
C481 H471 0.929 . S
C481 C479 1.433 . S
C481 N484 1.384 . S
C482 H473 0.929 . S
C482 C474 1.378 . S
C482 C477 1.350 . S
C483 H470 0.929 . S
C483 C475 1.433 . S
C483 N485 1.384 . S
N484 C480 1.427 . S
N484 C481 1.384 . S
N485 C477 1.427 . S
N485 C483 1.384 . S
H486 C492 0.930 . S
H487 C496 0.930 . S
H488 C501 0.929 . S
H489 C499 0.929 . S
H490 C494 0.929 . S
H491 C500 0.929 . S
C492 H486 0.930 . S
C492 C493 1.367 . S
C492 C500 1.378 . S
C493 C492 1.367 . S
C493 C501 1.433 . S
C494 H490 0.929 . S
C494 C496 1.378 . S
C494 C498 1.350 . S
C495 C498 1.463 . S
C495 C500 1.350 . S
C495 N503 1.427 . S
C496 H487 0.930 . S
C496 C494 1.378 . S
C496 C497 1.367 . S
C497 C496 1.367 . S
C497 C499 1.433 . S
C498 C494 1.350 . S
C498 C495 1.463 . S
C498 N502 1.427 . S
C499 H489 0.929 . S
C499 C497 1.433 . S
C499 N502 1.384 . S
C500 H491 0.929 . S
C500 C492 1.378 . S
C500 C495 1.350 . S
C501 H488 0.929 . S
C501 C493 1.433 . S
C501 N503 1.384 . S
N502 C498 1.427 . S
N502 C499 1.384 . S
N503 C495 1.427 . S
N503 C501 1.384 . S
H504 C510 0.930 . S
H505 C514 0.930 . S
H506 C519 0.929 . S
H507 C517 0.929 . S
H508 C512 0.929 . S
H509 C518 0.929 . S
C510 H504 0.930 . S
C510 C511 1.367 . S
C510 C518 1.378 . S
C511 C510 1.367 . S
C511 C519 1.433 . S
C512 H508 0.929 . S
C512 C514 1.378 . S
C512 C516 1.350 . S
C513 C516 1.463 . S
C513 C518 1.350 . S
C513 N521 1.427 . S
C514 H505 0.930 . S
C514 C512 1.378 . S
C514 C515 1.367 . S
C515 C514 1.367 . S
C515 C517 1.433 . S
C516 C512 1.350 . S
C516 C513 1.463 . S
C516 N520 1.427 . S
C517 H507 0.929 . S
C517 C515 1.433 . S
C517 N520 1.384 . S
C518 H509 0.929 . S
C518 C510 1.378 . S
C518 C513 1.350 . S
C519 H506 0.929 . S
C519 C511 1.433 . S
C519 N521 1.384 . S
N520 C516 1.427 . S
N520 C517 1.384 . S
N521 C513 1.427 . S
N521 C519 1.384 . S
H522 C528 0.930 1_556 S
H523 C532 0.930 . S
H524 C537 0.929 . S
H525 C535 0.929 . S
H526 C530 0.929 . S
H527 C536 0.929 . S
C528 H522 0.930 1_554 S
C528 C529 1.367 . S
C528 C536 1.378 . S
C529 C528 1.367 . S
C529 C537 1.433 . S
C530 H526 0.929 . S
C530 C532 1.378 . S
C530 C534 1.350 . S
C531 C534 1.463 . S
C531 C536 1.350 . S
C531 N539 1.427 . S
C532 H523 0.930 . S
C532 C530 1.378 . S
C532 C533 1.367 . S
C533 C532 1.367 . S
C533 C535 1.433 . S
C534 C530 1.350 . S
C534 C531 1.463 . S
C534 N538 1.427 . S
C535 H525 0.929 . S
C535 C533 1.433 . S
C535 N538 1.384 . S
C536 H527 0.929 . S
C536 C528 1.378 . S
C536 C531 1.350 . S
C537 H524 0.929 . S
C537 C529 1.433 . S
C537 N539 1.384 . S
N538 C534 1.427 . S
N538 C535 1.384 . S
N539 C531 1.427 . S
N539 C537 1.384 . S
H540 C546 0.930 . S
H541 C550 0.930 . S
H542 C555 0.929 . S
H543 C553 0.929 . S
H544 C548 0.929 . S
H545 C554 0.929 . S
C546 H540 0.930 . S
C546 C547 1.367 . S
C546 C554 1.378 . S
C547 C546 1.367 . S
C547 C555 1.433 . S
C548 H544 0.929 . S
C548 C550 1.378 . S
C548 C552 1.350 . S
C549 C552 1.463 . S
C549 C554 1.350 . S
C549 N557 1.427 . S
C550 H541 0.930 . S
C550 C548 1.378 . S
C550 C551 1.367 . S
C551 C550 1.367 . S
C551 C553 1.433 . S
C552 C548 1.350 . S
C552 C549 1.463 . S
C552 N556 1.427 . S
C553 H543 0.929 . S
C553 C551 1.433 . S
C553 N556 1.384 . S
C554 H545 0.929 . S
C554 C546 1.378 . S
C554 C549 1.350 . S
C555 H542 0.929 . S
C555 C547 1.433 . S
C555 N557 1.384 . S
N556 C552 1.427 . S
N556 C553 1.384 . S
N557 C549 1.427 . S
N557 C555 1.384 . S
H558 C564 0.930 . S
H559 C568 0.930 . S
H560 C573 0.929 . S
H561 C571 0.929 . S
H562 C566 0.929 . S
H563 C572 0.929 . S
C564 H558 0.930 . S
C564 C565 1.367 . S
C564 C572 1.378 . S
C565 C564 1.367 . S
C565 C573 1.433 . S
C566 H562 0.929 . S
C566 C568 1.378 . S
C566 C570 1.350 . S
C567 C570 1.463 . S
C567 C572 1.350 . S
C567 N575 1.427 . S
C568 H559 0.930 . S
C568 C566 1.378 . S
C568 C569 1.367 . S
C569 C568 1.367 . S
C569 C571 1.433 . S
C570 C566 1.350 . S
C570 C567 1.463 . S
C570 N574 1.427 . S
C571 H561 0.929 . S
C571 C569 1.433 . S
C571 N574 1.384 . S
C572 H563 0.929 . S
C572 C564 1.378 . S
C572 C567 1.350 . S
C573 H560 0.929 . S
C573 C565 1.433 . S
C573 N575 1.384 . S
N574 C570 1.427 . S
N574 C571 1.384 . S
N575 C567 1.427 . S
N575 C573 1.384 . S
H576 C582 0.930 . S
H577 C586 0.930 . S
H578 C591 0.929 . S
H579 C589 0.929 . S
H580 C584 0.929 . S
H581 C590 0.929 . S
C582 H576 0.930 . S
C582 C583 1.367 . S
C582 C590 1.378 . S
C583 C582 1.367 . S
C583 C591 1.433 . S
C584 H580 0.929 . S
C584 C586 1.378 . S
C584 C588 1.350 . S
C585 C588 1.463 . S
C585 C590 1.350 . S
C585 N593 1.427 . S
C586 H577 0.930 . S
C586 C584 1.378 . S
C586 C587 1.367 . S
C587 C586 1.367 . S
C587 C589 1.433 . S
C588 C584 1.350 . S
C588 C585 1.463 . S
C588 N592 1.427 . S
C589 H579 0.929 . S
C589 C587 1.433 . S
C589 N592 1.384 . S
C590 H581 0.929 . S
C590 C582 1.378 . S
C590 C585 1.350 . S
C591 H578 0.929 . S
C591 C583 1.433 . S
C591 N593 1.384 . S
N592 C588 1.427 . S
N592 C589 1.384 . S
N593 C585 1.427 . S
N593 C591 1.384 . S
H594 C600 0.930 . S
H595 C604 0.930 . S
H596 C609 0.929 . S
H597 C607 0.929 . S
H598 C602 0.929 . S
H599 C608 0.929 . S
C600 H594 0.930 . S
C600 C601 1.367 . S
C600 C608 1.378 . S
C601 C600 1.367 . S
C601 C609 1.433 . S
C602 H598 0.929 . S
C602 C604 1.378 . S
C602 C606 1.350 . S
C603 C606 1.463 . S
C603 C608 1.350 . S
C603 N611 1.427 . S
C604 H595 0.930 . S
C604 C602 1.378 . S
C604 C605 1.367 . S
C605 C604 1.367 . S
C605 C607 1.433 . S
C606 C602 1.350 . S
C606 C603 1.463 . S
C606 N610 1.427 . S
C607 H597 0.929 . S
C607 C605 1.433 . S
C607 N610 1.384 . S
C608 H599 0.929 . S
C608 C600 1.378 . S
C608 C603 1.350 . S
C609 H596 0.929 . S
C609 C601 1.433 . S
C609 N611 1.384 . S
N610 C606 1.427 . S
N610 C607 1.384 . S
N611 C603 1.427 . S
N611 C609 1.384 . S
H612 C618 0.930 . S
H613 C622 0.930 . S
H614 C627 0.929 . S
H615 C625 0.929 . S
H616 C620 0.929 . S
H617 C626 0.929 . S
C618 H612 0.930 . S
C618 C619 1.367 . S
C618 C626 1.378 . S
C619 C618 1.367 . S
C619 C627 1.433 . S
C620 H616 0.929 . S
C620 C622 1.378 . S
C620 C624 1.350 . S
C621 C624 1.463 . S
C621 C626 1.350 . S
C621 N629 1.427 . S
C622 H613 0.930 . S
C622 C620 1.378 . S
C622 C623 1.367 . S
C623 C622 1.367 . S
C623 C625 1.433 . S
C624 C620 1.350 . S
C624 C621 1.463 . S
C624 N628 1.427 . S
C625 H615 0.929 . S
C625 C623 1.433 . S
C625 N628 1.384 . S
C626 H617 0.929 . S
C626 C618 1.378 . S
C626 C621 1.350 . S
C627 H614 0.929 . S
C627 C619 1.433 . S
C627 N629 1.384 . S
N628 C624 1.427 . S
N628 C625 1.384 . S
N629 C621 1.427 . S
N629 C627 1.384 . S
H630 C636 0.930 . S
H631 C640 0.930 . S
H632 C645 0.929 . S
H633 C643 0.929 . S
H634 C638 0.929 . S
H635 C644 0.929 . S
C636 H630 0.930 . S
C636 C637 1.367 . S
C636 C644 1.378 . S
C637 C636 1.367 . S
C637 C645 1.433 . S
C638 H634 0.929 . S
C638 C640 1.378 1_556 S
C638 C642 1.350 . S
C639 C642 1.463 . S
C639 C644 1.350 . S
C639 N647 1.427 . S
C640 H631 0.930 . S
C640 C638 1.378 1_554 S
C640 C641 1.367 . S
C641 C640 1.367 . S
C641 C643 1.433 . S
C642 C638 1.350 . S
C642 C639 1.463 . S
C642 N646 1.427 . S
C643 H633 0.929 . S
C643 C641 1.433 . S
C643 N646 1.384 1_554 S
C644 H635 0.929 . S
C644 C636 1.378 . S
C644 C639 1.350 . S
C645 H632 0.929 . S
C645 C637 1.433 . S
C645 N647 1.384 . S
N646 C642 1.427 . S
N646 C643 1.384 1_556 S
N647 C639 1.427 . S
N647 C645 1.384 . S
H648 C654 0.930 . S
H649 C658 0.930 . S
H650 C663 0.929 . S
H651 C661 0.929 . S
H652 C656 0.929 . S
H653 C662 0.929 . S
C654 H648 0.930 . S
C654 C655 1.367 . S
C654 C662 1.378 . S
C655 C654 1.367 . S
C655 C663 1.433 . S
C656 H652 0.929 . S
C656 C658 1.378 . S
C656 C660 1.350 . S
C657 C660 1.463 . S
C657 C662 1.350 . S
C657 N665 1.427 . S
C658 H649 0.930 . S
C658 C656 1.378 . S
C658 C659 1.367 . S
C659 C658 1.367 . S
C659 C661 1.433 . S
C660 C656 1.350 . S
C660 C657 1.463 . S
C660 N664 1.427 . S
C661 H651 0.929 . S
C661 C659 1.433 . S
C661 N664 1.384 . S
C662 H653 0.929 . S
C662 C654 1.378 . S
C662 C657 1.350 . S
C663 H650 0.929 . S
C663 C655 1.433 . S
C663 N665 1.384 . S
N664 C660 1.427 . S
N664 C661 1.384 . S
N665 C657 1.427 . S
N665 C663 1.384 . S
H666 C672 0.930 . S
H667 C676 0.930 . S
H668 C681 0.929 . S
H669 C679 0.929 . S
H670 C674 0.929 . S
H671 C680 0.929 . S
C672 H666 0.930 . S
C672 C673 1.367 . S
C672 C680 1.378 . S
C673 C672 1.367 . S
C673 C681 1.433 . S
C674 H670 0.929 . S
C674 C676 1.378 . S
C674 C678 1.350 . S
C675 C678 1.463 . S
C675 C680 1.350 . S
C675 N683 1.427 . S
C676 H667 0.930 . S
C676 C674 1.378 . S
C676 C677 1.367 . S
C677 C676 1.367 . S
C677 C679 1.433 . S
C678 C674 1.350 . S
C678 C675 1.463 . S
C678 N682 1.427 . S
C679 H669 0.929 . S
C679 C677 1.433 . S
C679 N682 1.384 . S
C680 H671 0.929 . S
C680 C672 1.378 . S
C680 C675 1.350 . S
C681 H668 0.929 . S
C681 C673 1.433 . S
C681 N683 1.384 . S
N682 C678 1.427 . S
N682 C679 1.384 . S
N683 C675 1.427 . S
N683 C681 1.384 . S
H684 C690 0.930 . S
H685 C694 0.930 . S
H686 C699 0.929 . S
H687 C697 0.929 . S
H688 C692 0.929 . S
H689 C698 0.929 . S
C690 H684 0.930 . S
C690 C691 1.367 . S
C690 C698 1.378 . S
C691 C690 1.367 . S
C691 C699 1.433 . S
C692 H688 0.929 . S
C692 C694 1.378 . S
C692 C696 1.350 . S
C693 C696 1.463 . S
C693 C698 1.350 . S
C693 N701 1.427 . S
C694 H685 0.930 . S
C694 C692 1.378 . S
C694 C695 1.367 . S
C695 C694 1.367 . S
C695 C697 1.433 . S
C696 C692 1.350 . S
C696 C693 1.463 . S
C696 N700 1.427 . S
C697 H687 0.929 . S
C697 C695 1.433 . S
C697 N700 1.384 . S
C698 H689 0.929 . S
C698 C690 1.378 . S
C698 C693 1.350 . S
C699 H686 0.929 . S
C699 C691 1.433 . S
C699 N701 1.384 . S
N700 C696 1.427 . S
N700 C697 1.384 . S
N701 C693 1.427 . S
N701 C699 1.384 . S
H702 C708 0.930 . S
H703 C712 0.930 . S
H704 C717 0.929 . S
H705 C715 0.929 . S
H706 C710 0.929 . S
H707 C716 0.929 . S
C708 H702 0.930 . S
C708 C709 1.367 . S
C708 C716 1.378 . S
C709 C708 1.367 . S
C709 C717 1.433 . S
C710 H706 0.929 . S
C710 C712 1.378 . S
C710 C714 1.350 . S
C711 C714 1.463 . S
C711 C716 1.350 . S
C711 N719 1.427 . S
C712 H703 0.930 . S
C712 C710 1.378 . S
C712 C713 1.367 . S
C713 C712 1.367 . S
C713 C715 1.433 . S
C714 C710 1.350 . S
C714 C711 1.463 . S
C714 N718 1.427 . S
C715 H705 0.929 . S
C715 C713 1.433 . S
C715 N718 1.384 . S
C716 H707 0.929 . S
C716 C708 1.378 . S
C716 C711 1.350 . S
C717 H704 0.929 . S
C717 C709 1.433 . S
C717 N719 1.384 . S
N718 C714 1.427 . S
N718 C715 1.384 . S
N719 C711 1.427 . S
N719 C717 1.384 . S
H720 C726 0.930 . S
H721 C730 0.930 . S
H722 C735 0.929 . S
H723 C733 0.929 . S
H724 C728 0.929 . S
H725 C734 0.929 . S
C726 H720 0.930 . S
C726 C727 1.367 . S
C726 C734 1.378 . S
C727 C726 1.367 . S
C727 C735 1.433 . S
C728 H724 0.929 . S
C728 C730 1.378 . S
C728 C732 1.350 . S
C729 C732 1.463 . S
C729 C734 1.350 . S
C729 N737 1.427 . S
C730 H721 0.930 . S
C730 C728 1.378 . S
C730 C731 1.367 . S
C731 C730 1.367 . S
C731 C733 1.433 . S
C732 C728 1.350 . S
C732 C729 1.463 . S
C732 N736 1.427 . S
C733 H723 0.929 . S
C733 C731 1.433 . S
C733 N736 1.384 . S
C734 H725 0.929 . S
C734 C726 1.378 . S
C734 C729 1.350 . S
C735 H722 0.929 . S
C735 C727 1.433 . S
C735 N737 1.384 . S
N736 C732 1.427 . S
N736 C733 1.384 . S
N737 C729 1.427 . S
N737 C735 1.384 . S
H738 C744 0.930 . S
H739 C748 0.930 . S
H740 C753 0.929 . S
H741 C751 0.929 . S
H742 C746 0.929 . S
H743 C752 0.929 . S
C744 H738 0.930 . S
C744 C745 1.367 . S
C744 C752 1.378 . S
C745 C744 1.367 . S
C745 C753 1.433 . S
C746 H742 0.929 . S
C746 C748 1.378 . S
C746 C750 1.350 . S
C747 C750 1.463 . S
C747 C752 1.350 . S
C747 N755 1.427 . S
C748 H739 0.930 . S
C748 C746 1.378 . S
C748 C749 1.367 . S
C749 C748 1.367 . S
C749 C751 1.433 . S
C750 C746 1.350 . S
C750 C747 1.463 . S
C750 N754 1.427 . S
C751 H741 0.929 . S
C751 C749 1.433 . S
C751 N754 1.384 . S
C752 H743 0.929 . S
C752 C744 1.378 . S
C752 C747 1.350 . S
C753 H740 0.929 . S
C753 C745 1.433 . S
C753 N755 1.384 . S
N754 C750 1.427 . S
N754 C751 1.384 . S
N755 C747 1.427 . S
N755 C753 1.384 . S
H756 C762 0.930 . S
H757 C766 0.930 . S
H758 C771 0.929 . S
H759 C769 0.929 . S
H760 C764 0.929 . S
H761 C770 0.929 . S
C762 H756 0.930 . S
C762 C763 1.367 . S
C762 C770 1.378 . S
C763 C762 1.367 . S
C763 C771 1.433 . S
C764 H760 0.929 . S
C764 C766 1.378 . S
C764 C768 1.350 1_556 S
C765 C768 1.463 . S
C765 C770 1.350 . S
C765 N773 1.427 . S
C766 H757 0.930 . S
C766 C764 1.378 . S
C766 C767 1.367 . S
C767 C766 1.367 . S
C767 C769 1.433 . S
C768 C764 1.350 1_554 S
C768 C765 1.463 . S
C768 N772 1.427 . S
C769 H759 0.929 . S
C769 C767 1.433 . S
C769 N772 1.384 1_556 S
C770 H761 0.929 . S
C770 C762 1.378 . S
C770 C765 1.350 . S
C771 H758 0.929 . S
C771 C763 1.433 . S
C771 N773 1.384 . S
N772 C768 1.427 . S
N772 C769 1.384 1_554 S
N773 C765 1.427 . S
N773 C771 1.384 . S
H774 C780 0.930 . S
H775 C784 0.930 . S
H776 C789 0.929 . S
H777 C787 0.929 . S
H778 C782 0.929 . S
H779 C788 0.929 . S
C780 H774 0.930 . S
C780 C781 1.367 . S
C780 C788 1.378 . S
C781 C780 1.367 . S
C781 C789 1.433 . S
C782 H778 0.929 . S
C782 C784 1.378 . S
C782 C786 1.350 . S
C783 C786 1.463 . S
C783 C788 1.350 . S
C783 N791 1.427 . S
C784 H775 0.930 . S
C784 C782 1.378 . S
C784 C785 1.367 . S
C785 C784 1.367 . S
C785 C787 1.433 . S
C786 C782 1.350 . S
C786 C783 1.463 . S
C786 N790 1.427 . S
C787 H777 0.929 . S
C787 C785 1.433 . S
C787 N790 1.384 . S
C788 H779 0.929 . S
C788 C780 1.378 . S
C788 C783 1.350 . S
C789 H776 0.929 . S
C789 C781 1.433 . S
C789 N791 1.384 . S
N790 C786 1.427 . S
N790 C787 1.384 . S
N791 C783 1.427 . S
N791 C789 1.384 . S
C371 C353 1.563 . S
C367 C15 1.541 . S
C385 C61 1.458 . S
C389 C287 1.458 . S
C403 C114 1.399 . S
C407 C301 1.394 . S
C421 C139 1.483 . S
C425 C315 1.469 . S
C443 C329 1.513 . S
C439 C185 1.534 . S
C457 C245 1.503 . S
C461 C339 1.535 . S
C475 C47 1.559 . S
C479 C297 1.578 . S
C493 C100 1.645 . S
C497 C311 1.662 . S
C511 C153 1.566 . S
C515 C325 1.598 . S
C533 C343 1.502 . S
C529 C199 1.502 . S
C551 C357 1.506 . S
C547 C231 1.524 . S
C569 C283 1.541 . S
C565 C1 1.533 . S
C583 C22 1.482 . S
C587 C298 1.434 . S
C601 C68 1.563 . S
C605 C312 1.517 . S
C623 C326 1.519 . S
C619 C107 1.566 . S
C637 C146 1.463 . S
C641 C345 1.412 . S
C659 C359 1.369 . S
C655 C192 1.439 . S
C677 C284 1.396 . S
C673 C252 1.452 . S
C695 C354 1.411 . S
C691 C54 1.463 . S
C709 C93 1.359 . S
C713 C289 1.304 . S
C731 C303 1.326 . S
C727 C160 1.359 . S
C745 C206 1.448 . S
C749 C317 1.389 . S
C763 C238 1.466 . S
C767 C331 1.416 . S
C781 C8 1.495 . S
C785 C340 1.444 . S
