# Generated by pormake.
# Topology tsx, (6,3)-cn, num edge types: 1
# Building blocks:
#     Node 0, Type 0, BuildingBlock: FUNLAD_clean_sbu_0, # of connection points: 6
#     Node 1, Type 0, BuildingBlock: FUNLAD_clean_sbu_0, # of connection points: 6
#     Node 2, Type 1, BuildingBlock: CUQRIR_clean_linker_1, # of connection points: 3
#     Node 3, Type 1, BuildingBlock: CUQRIR_clean_linker_1, # of connection points: 3
#     Node 4, Type 1, BuildingBlock: CUQRIR_clean_linker_1, # of connection points: 3
#     Node 5, Type 1, BuildingBlock: CUQRIR_clean_linker_1, # of connection points: 3
#     Edge 6, Type (0, 1), BuildingBlock: TEMPAE_clean_linker_10, # of connection points: 2
#     Edge 7, Type (0, 1), BuildingBlock: TEMPAE_clean_linker_10, # of connection points: 2
#     Edge 8, Type (0, 1), BuildingBlock: TEMPAE_clean_linker_10, # of connection points: 2
#     Edge 9, Type (0, 1), BuildingBlock: TEMPAE_clean_linker_10, # of connection points: 2
#     Edge 10, Type (0, 1), BuildingBlock: TEMPAE_clean_linker_10, # of connection points: 2
#     Edge 11, Type (0, 1), BuildingBlock: TEMPAE_clean_linker_10, # of connection points: 2
#     Edge 12, Type (0, 1), BuildingBlock: TEMPAE_clean_linker_10, # of connection points: 2
#     Edge 13, Type (0, 1), BuildingBlock: TEMPAE_clean_linker_10, # of connection points: 2
#     Edge 14, Type (0, 1), BuildingBlock: TEMPAE_clean_linker_10, # of connection points: 2
#     Edge 15, Type (0, 1), BuildingBlock: TEMPAE_clean_linker_10, # of connection points: 2
#     Edge 16, Type (0, 1), BuildingBlock: TEMPAE_clean_linker_10, # of connection points: 2
#     Edge 17, Type (0, 1), BuildingBlock: TEMPAE_clean_linker_10, # of connection points: 2
# Relax obj value: 0.158
# Max RMSD: 0.158
# Mean RMSD: 0.140
data_MOF--net-tsx--node1-FUNLAD_clean_sbu_0--node2-CUQRIR_clean_linker_1--edge1-TEMPAE_clean_linker_10
_symmetry_space_group_name_H-M    P1
_symmetry_Int_Tables_number       1
_symmetry_cell_setting            triclinic
loop_
_symmetry_equiv_pos_as_xyz
'x, y, z'
_cell_length_a     17.969472
_cell_length_b     19.839952
_cell_length_c     38.111876
_cell_angle_alpha  79.90827
_cell_angle_beta   92.061687
_cell_angle_gamma 89.39012
loop_
_atom_site_label
_atom_site_type_symbol
_atom_site_fract_x
_atom_site_fract_y
_atom_site_fract_z
_atom_type_partial_charge
C0 C 0.90763 0.9708 0.00918 0.0
N1 N 0.04609 0.05295 0.08026 0.0
C2 C 0.98873 0.04086 0.10274 0.0
C3 C 0.0026 0.02714 0.13955 0.0
C4 C 0.07604 0.02705 0.15336 0.0
C5 C 0.13413 0.04103 0.12972 0.0
C6 C 0.11788 0.05323 0.093 0.0
Zn7 Zn 0.02358 0.06717 0.02651 0.0
C8 C 0.12403 0.98655 0.98908 0.0
N9 N 0.97664 0.0968 0.91477 0.0
C10 C 0.97671 0.03856 0.90058 0.0
C11 C 0.97096 0.15962 0.8936 0.0
C12 C 0.96724 0.1654 0.85643 0.0
C13 C 0.96946 0.10591 0.84113 0.0
C14 C 0.97344 0.04193 0.86383 0.0
Zn15 Zn 0.99572 0.08521 0.96853 0.0
O16 O 0.94446 0.98963 0.03464 0.0
C17 C 0.89764 0.17024 0.00213 0.0
O18 O 0.91901 1.00016 0.97733 0.0
H19 H 0.97131 0.20528 0.90549 0.0
H20 H 0.93208 0.04135 0.09211 0.0
H21 H 0.98219 0.98918 0.91782 0.0
O22 O 0.93779 0.14501 0.02977 0.0
O23 O 0.9088 0.15105 0.97274 0.0
H24 H 0.16272 0.06243 0.07467 0.0
O25 O 0.07154 0.17113 0.96175 0.0
O26 O 0.1014 0.14372 0.0188 0.0
O27 O 0.08427 0.01968 0.96362 0.0
O28 O 0.10998 0.99267 0.02091 0.0
C29 C 0.1101 0.18172 0.98893 0.0
H30 H 0.95632 0.01754 0.1571 0.0
H31 H 0.19143 0.04138 0.13953 0.0
H32 H 0.9637 0.21571 0.83991 0.0
H33 H 0.97701 0.9947 0.85337 0.0
C34 C 0.42459 0.35031 0.51259 0.0
N35 N 0.50184 0.4391 0.59647 0.0
C36 C 0.43562 0.43388 0.61289 0.0
C37 C 0.43399 0.42711 0.65001 0.0
C38 C 0.50119 0.42529 0.67025 0.0
C39 C 0.56854 0.42874 0.65258 0.0
C40 C 0.56758 0.43585 0.61559 0.0
Zn41 Zn 0.50721 0.45431 0.54229 0.0
C42 C 0.63377 0.37561 0.51879 0.0
N43 N 0.52747 0.48572 0.42924 0.0
C44 C 0.47439 0.46351 0.40784 0.0
C45 C 0.58961 0.51683 0.41528 0.0
C46 C 0.59892 0.52888 0.3786 0.0
C47 C 0.54562 0.50589 0.35568 0.0
C48 C 0.48306 0.47181 0.37108 0.0
Zn49 Zn 0.51669 0.47082 0.48351 0.0
O50 O 0.43865 0.37445 0.54064 0.0
C51 C 0.38848 0.54976 0.50319 0.0
O52 O 0.44859 0.38055 0.48292 0.0
H53 H 0.63263 0.53262 0.43244 0.0
H54 H 0.38405 0.43627 0.59715 0.0
H55 H 0.42537 0.43875 0.41921 0.0
O56 O 0.41193 0.52538 0.53499 0.0
O57 O 0.42232 0.53335 0.47719 0.0
H58 H 0.61962 0.44062 0.60207 0.0
O59 O 0.58573 0.55837 0.48713 0.0
O60 O 0.57797 0.53394 0.54503 0.0
O61 O 0.61 0.40907 0.48911 0.0
O62 O 0.60108 0.38289 0.54702 0.0
C63 C 0.60421 0.57047 0.51792 0.0
H64 H 0.38086 0.42456 0.66269 0.0
H65 H 0.62153 0.42909 0.66702 0.0
H66 H 0.64744 0.55663 0.3686 0.0
H67 H 0.44107 0.45097 0.35518 0.0
C68 C 0.96906 0.9545 0.45663 0.0
N69 N 0.01868 0.93573 0.43405 0.0
N70 N 0.96627 0.02321 0.45409 0.0
C71 C 0.91494 0.90705 0.4769 0.0
C72 C 0.01312 0.0461 0.42795 0.0
N73 N 0.0436 0.99318 0.41498 0.0
C74 C 0.02439 0.12061 0.41314 0.0
H75 H 0.86693 0.90082 0.4587 0.0
H76 H 0.8939 0.92969 0.49914 0.0
H77 H 0.93917 0.85553 0.48685 0.0
H78 H 0.06534 0.12753 0.39175 0.0
H79 H 0.04485 0.14736 0.43472 0.0
H80 H 0.97022 0.14475 0.40263 0.0
C81 C 0.04513 0.92435 0.56633 0.0
N82 N 0.07052 0.9762 0.58224 0.0
N83 N 0.98339 0.89683 0.58225 0.0
C84 C 0.07746 0.90409 0.53378 0.0
C85 C 0.97264 0.93318 0.60852 0.0
N86 N 0.02476 0.98155 0.60828 0.0
C87 C 0.91227 0.92029 0.63519 0.0
H88 H 0.09024 0.95036 0.51416 0.0
H89 H 0.04011 0.87114 0.52109 0.0
H90 H 0.12975 0.87423 0.54156 0.0
H91 H 0.88991 0.86796 0.63685 0.0
H92 H 0.86633 0.95823 0.62699 0.0
H93 H 0.93384 0.92696 0.662 0.0
C94 C 0.57827 0.65058 0.93735 0.0
N95 N 0.60306 0.59855 0.92192 0.0
N96 N 0.52696 0.69015 0.91572 0.0
C97 C 0.605 0.66204 0.97349 0.0
C98 C 0.52284 0.66061 0.8863 0.0
N99 N 0.56913 0.60558 0.89001 0.0
C100 C 0.46918 0.6821 0.85501 0.0
H101 H 0.66658 0.65685 0.97575 0.0
H102 H 0.58306 0.62176 0.99408 0.0
H103 H 0.58762 0.71272 0.97887 0.0
H104 H 0.4476 0.73499 0.85418 0.0
H105 H 0.42182 0.64635 0.85717 0.0
H106 H 0.49667 0.67914 0.82971 0.0
C107 C 0.454 0.60714 0.04308 0.0
N108 N 0.50691 0.62025 0.06717 0.0
N109 N 0.41841 0.54858 0.05525 0.0
C110 C 0.43492 0.65073 0.00781 0.0
C111 C 0.45086 0.5262 0.08778 0.0
N112 N 0.50529 0.56936 0.09493 0.0
C113 C 0.42813 0.46271 0.11266 0.0
H114 H 0.37376 0.65945 0.00531 0.0
H115 H 0.44992 0.62216 0.9865 0.0
H116 H 0.46314 0.70054 0.00422 0.0
H117 H 0.46834 0.42057 0.11122 0.0
H118 H 0.37203 0.44573 0.10543 0.0
H119 H 0.4282 0.47186 0.14055 0.0
C120 C 0.21846 0.23513 0.01445 0.0
C121 C 0.16204 0.23936 0.98772 0.0
C122 C 0.26041 0.29218 0.01888 0.0
C123 C 0.24597 0.35547 -0.0041 0.0
C124 C 0.19248 0.35921 0.96731 0.0
C125 C 0.15087 0.30084 0.96352 0.0
C126 C 0.31738 0.28542 0.04954 0.0
C127 C 0.17633 0.42554 0.94198 0.0
C128 C 0.29594 0.50005 0.04466 0.0
C129 C 0.36979 0.51098 0.03525 0.0
C130 C 0.25217 0.45353 0.02952 0.0
C131 C 0.28332 0.41773 0.00426 0.0
C132 C 0.35596 0.43347 0.99247 0.0
C133 C 0.39843 0.4797 0.00837 0.0
C134 C 0.175 0.43841 0.04286 0.0
C135 C 0.39109 0.39756 0.96526 0.0
H136 H 0.22801 0.18744 0.03297 0.0
H137 H 0.10717 0.30438 0.94288 0.0
H138 H 0.37225 0.30373 0.03975 0.0
H139 H 0.30009 0.31776 0.06892 0.0
H140 H 0.32437 0.23177 0.06384 0.0
H141 H 0.14353 0.4174 0.91785 0.0
H142 H 0.14401 0.46046 0.95569 0.0
H143 H 0.2288 0.45153 0.93361 0.0
H144 H 0.27411 0.52505 0.06532 0.0
H145 H 0.45554 0.48865 0.00131 0.0
H146 H 0.17523 0.38706 0.06002 0.0
H147 H 0.13468 0.43744 0.02024 0.0
H148 H 0.15541 0.4767 0.05868 0.0
H149 H 0.40566 0.34396 0.97763 0.0
H150 H 0.44268 0.42309 0.955 0.0
H151 H 0.3514 0.39572 0.94248 0.0
C152 C 0.22841 0.89944 0.00662 0.0
C153 C 0.18717 0.94428 0.98033 0.0
C154 C 0.28741 0.85937 -0.00265 0.0
C155 C 0.30553 0.86457 0.96104 0.0
C156 C 0.26511 0.91091 0.93461 0.0
C157 C 0.20652 0.94977 0.94452 0.0
C158 C 0.32878 0.81015 0.02632 0.0
C159 C 0.28286 0.91871 0.89565 0.0
C160 C 0.49206 0.7981 0.93528 0.0
C161 C 0.47191 0.73547 0.92604 0.0
C162 C 0.43886 0.84031 0.9474 0.0
C163 C 0.36377 0.81927 0.95002 0.0
C164 C 0.34309 0.75656 0.93987 0.0
C165 C 0.39729 0.71586 0.92764 0.0
C166 C 0.46272 0.9076 0.95706 0.0
C167 C 0.26405 0.73167 0.94262 0.0
H168 H 0.21399 0.89493 0.0343 0.0
H169 H 0.17566 0.98472 0.9239 0.0
H170 H 0.30958 0.75743 0.02565 0.0
H171 H 0.38943 0.81109 0.02197 0.0
H172 H 0.31907 0.82199 0.05323 0.0
H173 H 0.24908 0.96004 0.87867 0.0
H174 H 0.34268 0.9302 0.89208 0.0
H175 H 0.27219 0.86998 0.88599 0.0
H176 H 0.54935 0.81385 0.93283 0.0
H177 H 0.3821 0.66707 0.92061 0.0
H178 H 0.44724 0.91025 0.98471 0.0
H179 H 0.4331 0.95042 0.93918 0.0
H180 H 0.52365 0.91522 0.95488 0.0
H181 H 0.2459 0.72868 0.97037 0.0
H182 H 0.25785 0.68045 0.93496 0.0
H183 H 0.22604 0.76848 0.92512 0.0
C184 C 0.83474 0.89138 0.05313 0.0
C185 C 0.85013 0.91741 0.01742 0.0
C186 C 0.77888 0.843 0.06193 0.0
C187 C 0.73723 0.81931 0.03445 0.0
C188 C 0.75266 0.84512 -0.00165 0.0
C189 C 0.80888 0.89374 0.99027 0.0
C190 C 0.76396 0.81773 0.10075 0.0
C191 C 0.71007 0.82133 0.96816 0.0
C192 C 0.63886 0.64899 0.05937 0.0
C193 C 0.56485 0.67037 0.06119 0.0
C194 C 0.69529 0.69675 0.05013 0.0
C195 C 0.67756 0.76777 0.0437 0.0
C196 C 0.60308 0.78948 0.04712 0.0
C197 C 0.54765 0.74042 0.05578 0.0
C198 C 0.7734 0.67112 0.04624 0.0
C199 C 0.58196 0.86449 0.04159 0.0
H200 H 0.86593 0.9094 0.07444 0.0
H201 H 0.82028 0.91339 0.96265 0.0
H202 H 0.70508 0.8286 0.10597 0.0
H203 H 0.77264 0.76142 0.1073 0.0
H204 H 0.80055 0.84193 0.11894 0.0
H205 H 0.72632 0.76756 0.96742 0.0
H206 H 0.64953 0.82303 0.97245 0.0
H207 H 0.72112 0.85295 0.94186 0.0
H208 H 0.65171 0.5946 0.06364 0.0
H209 H 0.49061 0.75645 0.05824 0.0
H210 H 0.81263 0.6918 0.06468 0.0
H211 H 0.79135 0.68965 0.01872 0.0
H212 H 0.77784 0.61432 0.05183 0.0
H213 H 0.61319 0.88946 0.06131 0.0
H214 H 0.5214 0.87287 0.04441 0.0
H215 H 0.59758 0.89019 0.0147 0.0
C216 C 0.78073 0.23157 0.97851 0.0
C217 C 0.8436 0.22696 0.00174 0.0
C218 C 0.73841 0.29232 0.96982 0.0
C219 C 0.7601 0.35034 0.98436 0.0
C220 C 0.82049 0.34462 0.00979 0.0
C221 C 0.86148 0.28262 0.01837 0.0
C222 C 0.67358 0.29566 0.94316 0.0
C223 C 0.84496 0.4053 0.02599 0.0
C224 C 0.71023 0.51938 0.92374 0.0
C225 C 0.64572 0.53911 0.93894 0.0
C226 C 0.74977 0.45933 0.93915 0.0
C227 C 0.7235 0.41794 0.97034 0.0
C228 C 0.65883 0.43859 0.98605 0.0
C229 C 0.62066 0.49874 0.96998 0.0
C230 C 0.81842 0.43917 0.92149 0.0
C231 C 0.62799 0.3959 0.01889 0.0
H232 H 0.76687 0.18847 0.96563 0.0
H233 H 0.91067 0.27945 0.03595 0.0
H234 H 0.62359 0.31809 0.95327 0.0
H235 H 0.68748 0.32936 0.91789 0.0
H236 H 0.65941 0.2444 0.93714 0.0
H237 H 0.88686 0.3906 0.04825 0.0
H238 H 0.86983 0.44383 0.00522 0.0
H239 H 0.79647 0.43022 0.03603 0.0
H240 H 0.72915 0.55077 0.89962 0.0
H241 H 0.56982 0.51345 0.98105 0.0
H242 H 0.80831 0.39094 0.91123 0.0
H243 H 0.86597 0.4294 0.94121 0.0
H244 H 0.83434 0.47917 0.89894 0.0
H245 H 0.60271 0.34917 0.01168 0.0
H246 H 0.58462 0.4242 0.03082 0.0
H247 H 0.67304 0.37915 0.03933 0.0
C248 C 0.67946 0.6303 0.55844 0.0
C249 C 0.65961 0.62254 0.52342 0.0
C250 C 0.73508 0.6752 0.56543 0.0
C251 C 0.77155 0.71421 0.53668 0.0
C252 C 0.75177 0.70739 0.50115 0.0
C253 C 0.69579 0.66137 0.49489 0.0
C254 C 0.75487 0.68067 0.60373 0.0
C255 C 0.78893 0.74924 0.46988 0.0
C256 C 0.85706 0.87209 0.56247 0.0
C257 C 0.9315 0.85114 0.56965 0.0
C258 C 0.80537 0.82956 0.54943 0.0
C259 C 0.82839 0.76362 0.54447 0.0
C260 C 0.9038 0.74224 0.55147 0.0
C261 C 0.95465 0.78646 0.56409 0.0
C262 C 0.72586 0.85474 0.54167 0.0
C263 C 0.9301 0.67209 0.54663 0.0
H264 H 0.65209 0.60048 0.58076 0.0
H265 H 0.68083 0.65546 0.4678 0.0
H266 H 0.81519 0.66979 0.60955 0.0
H267 H 0.74353 0.73355 0.60816 0.0
H268 H 0.72296 0.64473 0.62305 0.0
H269 H 0.774 0.73194 0.44438 0.0
H270 H 0.77155 0.80372 0.46747 0.0
H271 H 0.8504 0.74665 0.47404 0.0
H272 H 0.83996 0.92286 0.56614 0.0
H273 H 0.0123 0.77053 0.56996 0.0
H274 H 0.68897 0.82475 0.5611 0.0
H275 H 0.70676 0.84707 0.51467 0.0
H276 H 0.7191 0.90983 0.54329 0.0
H277 H 0.9011 0.6323 0.56512 0.0
H278 H 0.99111 0.66451 0.55175 0.0
H279 H 0.91599 0.66409 0.5191 0.0
C280 C 0.70488 0.26815 0.54624 0.0
C281 C 0.69411 0.32456 0.5186 0.0
C282 C 0.75292 0.21365 0.54223 0.0
C283 C 0.78969 0.21586 0.50979 0.0
C284 C 0.78244 0.2747 0.4829 0.0
C285 C 0.73529 0.32835 0.48776 0.0
C286 C 0.76231 0.15279 0.57198 0.0
C287 C 0.82252 0.28011 0.44831 0.0
C288 C 0.95473 0.10716 0.49382 0.0
C289 C 0.92103 0.06365 0.47306 0.0
C290 C 0.91205 0.15453 0.50819 0.0
C291 C 0.83374 0.15643 0.50254 0.0
C292 C 0.79915 0.1085 0.48395 0.0
C293 C 0.84346 0.06306 0.46906 0.0
C294 C 0.95128 0.20469 0.52767 0.0
C295 C 0.71584 0.10893 0.47728 0.0
H296 H 0.67343 0.26514 0.57019 0.0
H297 H 0.72839 0.37242 0.46655 0.0
H298 H 0.73755 0.10705 0.56338 0.0
H299 H 0.82236 0.1412 0.57817 0.0
H300 H 0.73545 0.16148 0.59664 0.0
H301 H 0.81196 0.33012 0.43044 0.0
H302 H 0.88344 0.27349 0.45389 0.0
H303 H 0.8043 0.23874 0.43393 0.0
H304 H 0.01487 0.10596 0.49741 0.0
H305 H 0.81787 0.02911 0.45294 0.0
H306 H 0.94701 0.18742 0.55681 0.0
H307 H 0.92601 0.25679 0.52086 0.0
H308 H 0.01087 0.20836 0.5212 0.0
H309 H 0.68671 0.11165 0.50218 0.0
H310 H 0.69706 0.06279 0.46684 0.0
H311 H 0.69893 0.155 0.4575 0.0
C312 C 0.38819 0.2426 0.55007 0.0
C313 C 0.38422 0.28535 0.51654 0.0
C314 C 0.34265 0.18595 0.55773 0.0
C315 C 0.29234 0.17087 0.53098 0.0
C316 C 0.29205 0.2104 0.49613 0.0
C317 C 0.33834 0.2677 0.48922 0.0
C318 C 0.34388 0.14612 0.59543 0.0
C319 C 0.2399 0.19445 0.46687 0.0
C320 C 0.19539 0.00249 0.55859 0.0
C321 C 0.12698 0.02464 0.56951 0.0
C322 C 0.24764 0.04965 0.54321 0.0
C323 C 0.23349 0.12043 0.54142 0.0
C324 C 0.16588 0.14299 0.55377 0.0
C325 C 0.11242 0.09491 0.56634 0.0
C326 C 0.31842 0.02372 0.52961 0.0
C327 C 0.15078 0.21779 0.55463 0.0
H328 H 0.42504 0.25514 0.57108 0.0
H329 H 0.33583 0.30032 0.4632 0.0
H330 H 0.29062 0.15495 0.60793 0.0
H331 H 0.34922 0.09042 0.59546 0.0
H332 H 0.39029 0.16137 0.61228 0.0
H333 H 0.2545 0.22261 0.44025 0.0
H334 H 0.24078 0.13868 0.46635 0.0
H335 H 0.18208 0.20901 0.47209 0.0
H336 H 0.20819 0.94832 0.56206 0.0
H337 H 0.05909 0.11243 0.57371 0.0
H338 H 0.31596 0.9683 0.52822 0.0
H339 H 0.36637 0.03176 0.54745 0.0
H340 H 0.32918 0.05268 0.50267 0.0
H341 H 0.19778 0.23969 0.56835 0.0
H342 H 0.09919 0.22581 0.56868 0.0
H343 H 0.1455 0.2469 0.52699 0.0
C344 C 0.30626 0.62792 0.45961 0.0
C345 C 0.32449 0.59898 0.49529 0.0
C346 C 0.25016 0.67812 0.4507 0.0
C347 C 0.20997 0.69979 0.47806 0.0
C348 C 0.22546 0.66884 0.51409 0.0
C349 C 0.28305 0.61907 0.52235 0.0
C350 C 0.2365 0.71045 0.412 0.0
C351 C 0.18328 0.6901 0.54402 0.0
C352 C 0.13922 0.88325 0.45563 0.0
C353 C 0.06565 0.87557 0.44379 0.0
C354 C 0.18594 0.82649 0.46772 0.0
C355 C 0.15797 0.75981 0.46875 0.0
C356 C 0.08279 0.75149 0.45779 0.0
C357 C 0.03767 0.80969 0.44491 0.0
C358 C 0.26557 0.83814 0.47895 0.0
C359 C 0.05026 0.68126 0.45962 0.0
H360 H 0.33745 0.61281 0.43834 0.0
H361 H 0.2963 0.59681 0.54995 0.0
H362 H 0.17672 0.70768 0.40417 0.0
H363 H 0.25097 0.76545 0.40817 0.0
H364 H 0.26987 0.68539 0.39377 0.0
H365 H 0.18894 0.65124 0.56882 0.0
H366 H 0.20549 0.73909 0.54984 0.0
H367 H 0.12329 0.69863 0.53644 0.0
H368 H 0.15993 0.93436 0.45567 0.0
H369 H 0.98039 0.80394 0.43618 0.0
H370 H 0.30422 0.81471 0.46226 0.0
H371 H 0.27677 0.8131 0.50704 0.0
H372 H 0.27832 0.8934 0.47654 0.0
H373 H 0.07759 0.65412 0.44034 0.0
H374 H 0.98926 0.68358 0.45351 0.0
H375 H 0.06103 0.65043 0.48661 0.0
C376 C 0.061 0.95649 0.2135 0.0
C377 C 0.09093 0.01399 0.19237 0.0
C378 C 0.06602 0.94794 0.2508 0.0
C379 C 0.10038 0.99894 0.26724 0.0
C380 C 0.13467 0.05501 0.24601 0.0
C381 C 0.12999 0.0616 0.20871 0.0
C382 C 0.03001 0.88674 0.2725 0.0
C383 C 0.17097 0.11089 0.26247 0.0
C384 C 0.01004 0.02752 0.35151 0.0
C385 C 0.0617 0.99719 0.37816 0.0
C386 C 0.02336 0.03011 0.31542 0.0
C387 C 0.08913 0.99951 0.30561 0.0
C388 C 0.14148 0.96809 0.33235 0.0
C389 C 0.12735 0.96779 0.36846 0.0
C390 C 0.96617 0.06463 0.28784 0.0
C391 C 0.21151 0.93387 0.32285 0.0
H392 H 0.03169 0.9192 0.20076 0.0
H393 H 0.15302 0.10612 0.19229 0.0
H394 H 0.06697 0.86383 0.29554 0.0
H395 H 0.97759 0.90329 0.28325 0.0
H396 H 0.01651 0.84674 0.2563 0.0
H397 H 0.20411 0.14536 0.24303 0.0
H398 H 0.12726 0.14202 0.27233 0.0
H399 H 0.20784 0.08874 0.28568 0.0
H400 H 0.95841 0.04868 0.3591 0.0
H401 H 0.16746 0.94448 0.38891 0.0
H402 H 0.94181 0.02644 0.27289 0.0
H403 H 0.99295 0.10416 0.26828 0.0
H404 H 0.92022 0.08938 0.29995 0.0
H405 H 0.19681 0.89221 0.308 0.0
H406 H 0.24663 0.91189 0.34679 0.0
H407 H 0.2448 0.97123 0.30504 0.0
C408 C 0.01714 0.15684 0.78117 0.0
C409 C 0.97215 0.10921 0.80194 0.0
C410 C 0.02907 0.15288 0.74532 0.0
C411 C 0.99656 0.09924 0.73035 0.0
C412 C 0.94759 0.05371 0.75057 0.0
C413 C 0.93523 0.05993 0.78589 0.0
C414 C 0.07932 0.20391 0.72416 0.0
C415 C 0.9115 0.99573 0.73563 0.0
C416 C 0.97683 0.07636 0.63461 0.0
C417 C 0.0318 0.02625 0.6339 0.0
C418 C 0.97013 0.10757 0.6646 0.0
C419 C 0.01787 0.08575 0.69491 0.0
C420 C 0.07772 0.03953 0.69291 0.0
C421 C 0.08429 0.01069 0.66209 0.0
C422 C 0.90748 0.15863 0.66499 0.0
C423 C 0.1296 0.0145 0.72466 0.0
H424 H 0.04594 0.19516 0.79331 0.0
H425 H 0.89867 0.02427 0.80146 0.0
H426 H 0.13476 0.17976 0.72258 0.0
H427 H 0.05651 0.22018 0.69648 0.0
H428 H 0.08709 0.24999 0.73669 0.0
H429 H 0.87345 0.96593 0.7546 0.0
H430 H 0.87927 0.0159 0.71057 0.0
H431 H 0.95513 0.96034 0.72913 0.0
H432 H 0.93641 0.08774 0.61251 0.0
H433 H 0.1261 0.97129 0.66123 0.0
H434 H 0.92436 0.1991 0.68025 0.0
H435 H 0.85914 0.13199 0.67806 0.0
H436 H 0.88911 0.18308 0.6375 0.0
H437 H 0.1499 0.058 0.73684 0.0
H438 H 0.1784 0.98572 0.71737 0.0
H439 H 0.09895 0.98018 0.7452 0.0
C440 C 0.55556 0.38999 0.73236 0.0
C441 C 0.50205 0.42773 0.70893 0.0
C442 C 0.56755 0.40302 0.76713 0.0
C443 C 0.52544 0.45535 0.77843 0.0
C444 C 0.46697 0.48926 0.75597 0.0
C445 C 0.45589 0.47492 0.72148 0.0
C446 C 0.62909 0.36461 0.79063 0.0
C447 C 0.42043 0.54519 0.76713 0.0
C448 C 0.52697 0.5002 0.871 0.0
C449 C 0.57193 0.55787 0.86596 0.0
C450 C 0.51566 0.46203 0.8436 0.0
C451 C 0.54971 0.48315 0.81061 0.0
C452 C 0.59999 0.53833 0.80675 0.0
C453 C 0.61036 0.57511 0.83463 0.0
C454 C 0.46294 0.40279 0.84907 0.0
C455 C 0.63792 0.56235 0.77216 0.0
H456 H 0.59046 0.35249 0.72294 0.0
H457 H 0.41469 0.50444 0.70349 0.0
H458 H 0.67859 0.3976 0.79043 0.0
H459 H 0.61188 0.35135 0.81864 0.0
H460 H 0.64572 0.3169 0.78122 0.0
H461 H 0.37221 0.56112 0.74833 0.0
H462 H 0.39934 0.52802 0.79418 0.0
H463 H 0.45541 0.59061 0.76825 0.0
H464 H 0.49728 0.48777 0.89549 0.0
H465 H 0.64474 0.62018 0.83123 0.0
H466 H 0.4835 0.36001 0.83658 0.0
H467 H 0.40791 0.41974 0.83623 0.0
H468 H 0.45491 0.3836 0.87785 0.0
H469 H 0.66513 0.51859 0.76286 0.0
H470 H 0.68055 0.6015 0.77477 0.0
H471 H 0.59577 0.58495 0.75128 0.0
C472 C 0.49231 0.52321 0.29263 0.0
C473 C 0.55487 0.51799 0.31619 0.0
C474 C 0.49985 0.53292 0.25566 0.0
C475 C 0.57151 0.54219 0.24144 0.0
C476 C 0.63491 0.53935 0.26473 0.0
C477 C 0.62602 0.52511 0.30172 0.0
C478 C 0.4307 0.5328 0.23184 0.0
C479 C 0.71253 0.55052 0.25117 0.0
C480 C 0.57434 0.50608 0.14767 0.0
C481 C 0.54399 0.56773 0.12882 0.0
C482 C 0.58933 0.49776 0.18453 0.0
C483 C 0.57821 0.554 0.20213 0.0
C484 C 0.56015 0.61934 0.18192 0.0
C485 C 0.54118 0.62512 0.14551 0.0
C486 C 0.60968 0.42743 0.20499 0.0
C487 C 0.55464 0.68186 0.19926 0.0
H488 H 0.43681 0.5201 0.30283 0.0
H489 H 0.67551 0.51944 0.31909 0.0
H490 H 0.42007 0.58473 0.21608 0.0
H491 H 0.43855 0.49729 0.21271 0.0
H492 H 0.38051 0.51719 0.24724 0.0
H493 H 0.73998 0.50012 0.25132 0.0
H494 H 0.71277 0.58049 0.22371 0.0
H495 H 0.74673 0.57757 0.26904 0.0
H496 H 0.58001 0.46276 0.13414 0.0
H497 H 0.51891 0.67324 0.13085 0.0
H498 H 0.56511 0.40934 0.22363 0.0
H499 H 0.66182 0.42949 0.22116 0.0
H500 H 0.61746 0.38944 0.18714 0.0
H501 H 0.50105 0.68185 0.21283 0.0
H502 H 0.55706 0.72985 0.17934 0.0
H503 H 0.60035 0.68154 0.21969 0.0
loop_
_geom_bond_atom_site_label_1
_geom_bond_atom_site_label_2
_geom_bond_distance
_geom_bond_site_symmetry_2
_ccdc_geom_bond_type
C0 O16 1.251 . S
C0 O18 1.254 1_554 S
N1 C2 1.333 1_445 S
N1 C6 1.307 . S
N1 Zn7 2.020 . S
C2 N1 1.333 1_665 S
C2 C3 1.379 . S
C2 H20 0.952 . S
C3 C2 1.379 . S
C3 C4 1.390 1_655 S
C3 H30 0.949 . S
C4 C3 1.390 1_455 S
C4 C5 1.357 1_565 S
C5 C4 1.357 1_545 S
C5 C6 1.370 . S
C5 H31 0.950 . S
C6 N1 1.307 . S
C6 C5 1.370 . S
C6 H24 0.948 . S
Zn7 N1 2.020 . S
Zn7 O16 2.039 1_445 S
Zn7 O22 2.034 1_455 S
Zn7 O26 2.025 . S
Zn7 O28 2.024 1_545 S
C8 O27 1.246 1_554 S
C8 O28 1.249 . S
N9 C10 1.307 1_455 S
N9 C11 1.333 . S
N9 Zn15 2.020 . S
C10 N9 1.307 1_655 S
C10 C14 1.370 . S
C10 H21 0.948 . S
C11 N9 1.333 . S
C11 C12 1.379 . S
C11 H19 0.952 . S
C12 C11 1.379 . S
C12 C13 1.390 . S
C12 H32 0.949 . S
C13 C12 1.390 . S
C13 C14 1.357 1_455 S
C14 C10 1.370 . S
C14 C13 1.357 1_655 S
C14 H33 0.950 . S
Zn15 N9 2.020 . S
Zn15 O18 2.025 1_445 S
Zn15 O23 2.024 1_455 S
Zn15 O25 2.039 . S
Zn15 O27 2.034 1_545 S
O16 C0 1.251 . S
O16 Zn7 2.039 1_665 S
C17 O22 1.246 . S
C17 O23 1.249 1_554 S
O18 C0 1.254 1_556 S
O18 Zn15 2.025 1_665 S
H19 C11 0.952 . S
H20 C2 0.952 . S
H21 C10 0.948 . S
O22 Zn7 2.034 1_655 S
O22 C17 1.246 . S
O23 Zn15 2.024 1_655 S
O23 C17 1.249 1_556 S
H24 C6 0.948 . S
O25 Zn15 2.039 . S
O25 C29 1.251 1_556 S
O26 Zn7 2.025 . S
O26 C29 1.254 . S
O27 C8 1.246 1_556 S
O27 Zn15 2.034 1_565 S
O28 Zn7 2.024 1_565 S
O28 C8 1.249 . S
C29 O25 1.251 1_554 S
C29 O26 1.254 . S
H30 C3 0.949 . S
H31 C5 0.950 . S
H32 C12 0.949 . S
H33 C14 0.950 . S
C34 O50 1.251 . S
C34 O52 1.254 . S
N35 C36 1.333 . S
N35 C40 1.307 . S
N35 Zn41 2.020 . S
C36 N35 1.333 . S
C36 C37 1.379 . S
C36 H54 0.952 . S
C37 C36 1.379 . S
C37 C38 1.390 . S
C37 H64 0.949 . S
C38 C37 1.390 . S
C38 C39 1.357 . S
C39 C38 1.357 . S
C39 C40 1.370 . S
C39 H65 0.950 . S
C40 N35 1.307 . S
C40 C39 1.370 . S
C40 H58 0.948 . S
Zn41 N35 2.020 . S
Zn41 O50 2.039 . S
Zn41 O56 2.034 . S
Zn41 O60 2.025 . S
Zn41 O62 2.024 . S
C42 O61 1.246 . S
C42 O62 1.249 . S
N43 C44 1.307 . S
N43 C45 1.333 . S
N43 Zn49 2.020 . S
C44 N43 1.307 . S
C44 C48 1.370 . S
C44 H55 0.948 . S
C45 N43 1.333 . S
C45 C46 1.379 . S
C45 H53 0.952 . S
C46 C45 1.379 . S
C46 C47 1.390 . S
C46 H66 0.949 . S
C47 C46 1.390 . S
C47 C48 1.357 . S
C48 C44 1.370 . S
C48 C47 1.357 . S
C48 H67 0.950 . S
Zn49 N43 2.020 . S
Zn49 O52 2.025 . S
Zn49 O57 2.024 . S
Zn49 O59 2.039 . S
Zn49 O61 2.034 . S
O50 C34 1.251 . S
O50 Zn41 2.039 . S
C51 O56 1.246 . S
C51 O57 1.249 . S
O52 C34 1.254 . S
O52 Zn49 2.025 . S
H53 C45 0.952 . S
H54 C36 0.952 . S
H55 C44 0.948 . S
O56 Zn41 2.034 . S
O56 C51 1.246 . S
O57 Zn49 2.024 . S
O57 C51 1.249 . S
H58 C40 0.948 . S
O59 Zn49 2.039 . S
O59 C63 1.251 . S
O60 Zn41 2.025 . S
O60 C63 1.254 . S
O61 C42 1.246 . S
O61 Zn49 2.034 . S
O62 Zn41 2.024 . S
O62 C42 1.249 . S
C63 O59 1.251 . S
C63 O60 1.254 . S
H64 C37 0.949 . S
H65 C39 0.950 . S
H66 C46 0.949 . S
H67 C48 0.950 . S
C68 N69 1.317 1_545 S
C68 N70 1.348 1_455 S
C68 C71 1.485 1_545 S
N69 C68 1.317 1_565 S
N69 N73 1.370 . S
N70 C68 1.348 1_655 S
N70 C72 1.346 . S
C71 C68 1.485 1_565 S
C71 H75 0.960 1_455 S
C71 H76 0.961 1_565 S
C71 H77 0.960 . S
C72 N70 1.346 . S
C72 N73 1.308 1_645 S
C72 C74 1.486 . S
N73 N69 1.370 . S
N73 C72 1.308 1_465 S
C74 C72 1.486 . S
C74 H78 0.960 . S
C74 H79 0.960 . S
C74 H80 0.959 . S
H75 C71 0.960 1_655 S
H76 C71 0.961 1_545 S
H77 C71 0.960 . S
H78 C74 0.960 . S
H79 C74 0.960 . S
H80 C74 0.959 . S
C81 N82 1.317 . S
C81 N83 1.348 1_445 S
C81 C84 1.485 . S
N82 C81 1.317 . S
N82 N86 1.370 . S
N83 C81 1.348 1_665 S
N83 C85 1.346 1_565 S
C84 C81 1.485 . S
C84 H88 0.970 . S
C84 H89 0.961 . S
C84 H90 0.960 . S
C85 N83 1.346 1_545 S
C85 N86 1.307 1_655 S
C85 C87 1.486 1_545 S
N86 N82 1.370 . S
N86 C85 1.307 1_455 S
C87 C85 1.486 1_565 S
C87 H91 0.960 . S
C87 H92 0.960 . S
C87 H93 0.959 . S
H88 C84 0.970 . S
H89 C84 0.961 . S
H90 C84 0.960 . S
H91 C87 0.960 . S
H92 C87 0.960 . S
H93 C87 0.959 . S
C94 N95 1.317 . S
C94 N96 1.348 . S
C94 C97 1.485 1_556 S
N95 C94 1.317 . S
N95 N99 1.370 . S
N96 C94 1.348 . S
N96 C98 1.346 . S
C97 C94 1.485 1_554 S
C97 H101 0.960 . S
C97 H102 0.961 . S
C97 H103 0.960 . S
C98 N96 1.346 . S
C98 N99 1.307 . S
C98 C100 1.486 . S
N99 N95 1.370 . S
N99 C98 1.307 . S
C100 C98 1.486 . S
C100 H104 0.960 . S
C100 H105 0.960 . S
C100 H106 0.959 . S
H101 C97 0.960 . S
H102 C97 0.961 . S
H103 C97 0.960 . S
H104 C100 0.960 . S
H105 C100 0.960 . S
H106 C100 0.959 . S
C107 N108 1.317 . S
C107 N109 1.348 . S
C107 C110 1.485 1_554 S
N108 C107 1.317 . S
N108 N112 1.370 . S
N109 C107 1.348 . S
N109 C111 1.346 . S
C110 C107 1.485 1_556 S
C110 H114 0.960 . S
C110 H115 0.961 . S
C110 H116 0.960 . S
C111 N109 1.346 . S
C111 N112 1.307 . S
C111 C113 1.486 . S
N112 N108 1.370 . S
N112 C111 1.307 . S
C113 C111 1.486 . S
C113 H117 0.960 . S
C113 H118 0.960 . S
C113 H119 0.959 . S
H114 C110 0.960 . S
H115 C110 0.961 . S
H116 C110 0.960 . S
H117 C113 0.960 . S
H118 C113 0.960 . S
H119 C113 0.959 . S
C120 C121 1.391 . S
C120 C122 1.394 . S
C120 H136 0.931 . S
C121 C120 1.391 . S
C121 C125 1.376 1_554 S
C122 C120 1.394 . S
C122 C123 1.369 . S
C122 C126 1.531 . S
C123 C122 1.369 . S
C123 C124 1.410 1_554 S
C123 C131 1.503 . S
C124 C123 1.410 1_556 S
C124 C125 1.392 . S
C124 C127 1.511 . S
C125 C121 1.376 1_556 S
C125 C124 1.392 . S
C125 H137 0.929 . S
C126 C122 1.531 . S
C126 H138 0.960 . S
C126 H139 0.962 . S
C126 H140 0.960 . S
C127 C124 1.511 . S
C127 H141 0.961 . S
C127 H142 0.961 . S
C127 H143 0.961 . S
C128 C129 1.370 . S
C128 C130 1.363 . S
C128 H144 0.931 . S
C129 C128 1.370 . S
C129 C133 1.408 1_554 S
C130 C128 1.363 . S
C130 C131 1.370 . S
C130 C134 1.524 . S
C131 C123 1.503 . S
C131 C130 1.370 . S
C131 C132 1.403 1_554 S
C132 C131 1.403 1_556 S
C132 C133 1.404 . S
C132 C135 1.539 . S
C133 C129 1.408 1_556 S
C133 C132 1.404 . S
C133 H145 0.930 . S
C134 C130 1.524 . S
C134 H146 0.956 . S
C134 H147 0.961 . S
C134 H148 0.961 . S
C135 C132 1.539 . S
C135 H149 0.958 . S
C135 H150 0.961 . S
C135 H151 0.960 . S
H136 C120 0.931 . S
H137 C125 0.929 . S
H138 C126 0.960 . S
H139 C126 0.962 . S
H140 C126 0.960 . S
H141 C127 0.961 . S
H142 C127 0.961 . S
H143 C127 0.961 . S
H144 C128 0.931 . S
H145 C133 0.930 . S
H146 C134 0.956 . S
H147 C134 0.961 . S
H148 C134 0.961 . S
H149 C135 0.958 . S
H150 C135 0.961 . S
H151 C135 0.960 . S
C152 C153 1.391 . S
C152 C154 1.394 . S
C152 H168 0.931 . S
C153 C152 1.391 . S
C153 C157 1.376 1_554 S
C154 C152 1.394 . S
C154 C155 1.369 . S
C154 C158 1.531 . S
C155 C154 1.369 . S
C155 C156 1.410 1_554 S
C155 C163 1.503 . S
C156 C155 1.410 1_556 S
C156 C157 1.392 . S
C156 C159 1.511 . S
C157 C153 1.376 1_556 S
C157 C156 1.392 . S
C157 H169 0.929 . S
C158 C154 1.531 . S
C158 H170 0.960 . S
C158 H171 0.962 . S
C158 H172 0.960 . S
C159 C156 1.511 . S
C159 H173 0.961 . S
C159 H174 0.961 . S
C159 H175 0.961 . S
C160 C161 1.370 . S
C160 C162 1.363 . S
C160 H176 0.931 . S
C161 C160 1.370 . S
C161 C165 1.408 1_556 S
C162 C160 1.363 . S
C162 C163 1.370 1_556 S
C162 C166 1.524 . S
C163 C155 1.503 . S
C163 C162 1.370 1_554 S
C163 C164 1.403 . S
C164 C163 1.403 . S
C164 C165 1.404 . S
C164 C167 1.539 . S
C165 C161 1.408 1_554 S
C165 C164 1.404 . S
C165 H177 0.930 . S
C166 C162 1.524 . S
C166 H178 0.956 . S
C166 H179 0.961 . S
C166 H180 0.961 . S
C167 C164 1.539 . S
C167 H181 0.958 . S
C167 H182 0.961 . S
C167 H183 0.960 . S
H168 C152 0.931 . S
H169 C157 0.929 . S
H170 C158 0.960 . S
H171 C158 0.962 . S
H172 C158 0.960 . S
H173 C159 0.961 . S
H174 C159 0.961 . S
H175 C159 0.961 . S
H176 C160 0.931 . S
H177 C165 0.930 . S
H178 C166 0.956 . S
H179 C166 0.961 . S
H180 C166 0.961 . S
H181 C167 0.958 . S
H182 C167 0.961 . S
H183 C167 0.960 . S
C184 C185 1.391 . S
C184 C186 1.394 . S
C184 H200 0.931 . S
C185 C184 1.391 . S
C185 C189 1.376 . S
C186 C184 1.394 . S
C186 C187 1.369 . S
C186 C190 1.531 . S
C187 C186 1.369 . S
C187 C188 1.410 . S
C187 C195 1.503 . S
C188 C187 1.410 . S
C188 C189 1.392 . S
C188 C191 1.511 . S
C189 C185 1.376 . S
C189 C188 1.392 . S
C189 H201 0.929 . S
C190 C186 1.531 . S
C190 H202 0.960 . S
C190 H203 0.962 . S
C190 H204 0.960 . S
C191 C188 1.511 . S
C191 H205 0.961 . S
C191 H206 0.961 . S
C191 H207 0.961 1_554 S
C192 C193 1.370 . S
C192 C194 1.363 . S
C192 H208 0.931 . S
C193 C192 1.370 . S
C193 C197 1.408 . S
C194 C192 1.363 . S
C194 C195 1.370 . S
C194 C198 1.524 . S
C195 C187 1.503 . S
C195 C194 1.370 . S
C195 C196 1.403 1_554 S
C196 C195 1.403 1_556 S
C196 C197 1.404 1_556 S
C196 C199 1.539 . S
C197 C193 1.408 . S
C197 C196 1.404 1_554 S
C197 H209 0.930 1_554 S
C198 C194 1.524 . S
C198 H210 0.956 . S
C198 H211 0.961 . S
C198 H212 0.961 . S
C199 C196 1.539 . S
C199 H213 0.958 . S
C199 H214 0.961 . S
C199 H215 0.960 . S
H200 C184 0.931 . S
H201 C189 0.929 . S
H202 C190 0.960 . S
H203 C190 0.962 . S
H204 C190 0.960 . S
H205 C191 0.961 . S
H206 C191 0.961 . S
H207 C191 0.961 1_556 S
H208 C192 0.931 . S
H209 C197 0.930 1_556 S
H210 C198 0.956 . S
H211 C198 0.961 . S
H212 C198 0.961 . S
H213 C199 0.958 . S
H214 C199 0.961 . S
H215 C199 0.960 . S
C216 C217 1.391 1_556 S
C216 C218 1.394 . S
C216 H232 0.931 . S
C217 C216 1.391 1_554 S
C217 C221 1.376 . S
C218 C216 1.394 . S
C218 C219 1.369 . S
C218 C222 1.531 . S
C219 C218 1.369 . S
C219 C220 1.410 1_556 S
C219 C227 1.503 . S
C220 C219 1.410 1_554 S
C220 C221 1.392 . S
C220 C223 1.511 . S
C221 C217 1.376 . S
C221 C220 1.392 . S
C221 H233 0.929 . S
C222 C218 1.531 . S
C222 H234 0.960 . S
C222 H235 0.962 . S
C222 H236 0.960 . S
C223 C220 1.511 . S
C223 H237 0.961 . S
C223 H238 0.961 . S
C223 H239 0.961 . S
C224 C225 1.370 . S
C224 C226 1.363 . S
C224 H240 0.931 . S
C225 C224 1.370 . S
C225 C229 1.408 1_556 S
C226 C224 1.363 . S
C226 C227 1.370 . S
C226 C230 1.524 . S
C227 C219 1.503 . S
C227 C226 1.370 . S
C227 C228 1.403 1_556 S
C228 C227 1.403 1_554 S
C228 C229 1.404 . S
C228 C231 1.539 . S
C229 C225 1.408 1_554 S
C229 C228 1.404 . S
C229 H241 0.930 . S
C230 C226 1.524 . S
C230 H242 0.956 . S
C230 H243 0.961 . S
C230 H244 0.961 . S
C231 C228 1.539 . S
C231 H245 0.958 . S
C231 H246 0.961 . S
C231 H247 0.960 . S
H232 C216 0.931 . S
H233 C221 0.929 . S
H234 C222 0.960 . S
H235 C222 0.962 . S
H236 C222 0.960 . S
H237 C223 0.961 . S
H238 C223 0.961 . S
H239 C223 0.961 . S
H240 C224 0.931 . S
H241 C229 0.930 . S
H242 C230 0.956 . S
H243 C230 0.961 . S
H244 C230 0.961 . S
H245 C231 0.958 . S
H246 C231 0.961 . S
H247 C231 0.960 . S
C248 C249 1.391 . S
C248 C250 1.394 . S
C248 H264 0.931 . S
C249 C248 1.391 . S
C249 C253 1.376 . S
C250 C248 1.394 . S
C250 C251 1.369 . S
C250 C254 1.531 . S
C251 C250 1.369 . S
C251 C252 1.410 . S
C251 C259 1.503 . S
C252 C251 1.410 . S
C252 C253 1.392 . S
C252 C255 1.511 . S
C253 C249 1.376 . S
C253 C252 1.392 . S
C253 H265 0.929 . S
C254 C250 1.531 . S
C254 H266 0.960 . S
C254 H267 0.962 . S
C254 H268 0.960 . S
C255 C252 1.511 . S
C255 H269 0.961 . S
C255 H270 0.961 . S
C255 H271 0.961 . S
C256 C257 1.370 . S
C256 C258 1.363 . S
C256 H272 0.931 . S
C257 C256 1.370 . S
C257 C261 1.408 . S
C258 C256 1.363 . S
C258 C259 1.370 . S
C258 C262 1.524 . S
C259 C251 1.503 . S
C259 C258 1.370 . S
C259 C260 1.403 . S
C260 C259 1.403 . S
C260 C261 1.404 . S
C260 C263 1.539 . S
C261 C257 1.408 . S
C261 C260 1.404 . S
C261 H273 0.930 1_655 S
C262 C258 1.524 . S
C262 H274 0.956 . S
C262 H275 0.961 . S
C262 H276 0.961 . S
C263 C260 1.539 . S
C263 H277 0.958 . S
C263 H278 0.961 1_655 S
C263 H279 0.960 . S
H264 C248 0.931 . S
H265 C253 0.929 . S
H266 C254 0.960 . S
H267 C254 0.962 . S
H268 C254 0.960 . S
H269 C255 0.961 . S
H270 C255 0.961 . S
H271 C255 0.961 . S
H272 C256 0.931 . S
H273 C261 0.930 1_455 S
H274 C262 0.956 . S
H275 C262 0.961 . S
H276 C262 0.961 . S
H277 C263 0.958 . S
H278 C263 0.961 1_455 S
H279 C263 0.960 . S
C280 C281 1.391 . S
C280 C282 1.394 . S
C280 H296 0.931 . S
C281 C280 1.391 . S
C281 C285 1.376 . S
C282 C280 1.394 . S
C282 C283 1.369 . S
C282 C286 1.531 . S
C283 C282 1.369 . S
C283 C284 1.410 . S
C283 C291 1.503 . S
C284 C283 1.410 . S
C284 C285 1.392 . S
C284 C287 1.511 . S
C285 C281 1.376 . S
C285 C284 1.392 . S
C285 H297 0.929 . S
C286 C282 1.531 . S
C286 H298 0.960 . S
C286 H299 0.962 . S
C286 H300 0.960 . S
C287 C284 1.511 . S
C287 H301 0.961 . S
C287 H302 0.961 . S
C287 H303 0.961 . S
C288 C289 1.370 . S
C288 C290 1.363 . S
C288 H304 0.931 . S
C289 C288 1.370 . S
C289 C293 1.408 . S
C290 C288 1.363 . S
C290 C291 1.370 . S
C290 C294 1.524 . S
C291 C283 1.503 . S
C291 C290 1.370 . S
C291 C292 1.403 . S
C292 C291 1.403 . S
C292 C293 1.404 . S
C292 C295 1.539 . S
C293 C289 1.408 . S
C293 C292 1.404 . S
C293 H305 0.930 . S
C294 C290 1.524 . S
C294 H306 0.956 . S
C294 H307 0.961 . S
C294 H308 0.961 . S
C295 C292 1.539 . S
C295 H309 0.958 . S
C295 H310 0.961 . S
C295 H311 0.960 . S
H296 C280 0.931 . S
H297 C285 0.929 . S
H298 C286 0.960 . S
H299 C286 0.962 . S
H300 C286 0.960 . S
H301 C287 0.961 . S
H302 C287 0.961 . S
H303 C287 0.961 . S
H304 C288 0.931 . S
H305 C293 0.930 . S
H306 C294 0.956 . S
H307 C294 0.961 . S
H308 C294 0.961 . S
H309 C295 0.958 . S
H310 C295 0.961 . S
H311 C295 0.960 . S
C312 C313 1.391 . S
C312 C314 1.394 . S
C312 H328 0.931 . S
C313 C312 1.391 . S
C313 C317 1.376 . S
C314 C312 1.394 . S
C314 C315 1.369 . S
C314 C318 1.531 . S
C315 C314 1.369 . S
C315 C316 1.410 . S
C315 C323 1.503 . S
C316 C315 1.410 . S
C316 C317 1.392 . S
C316 C319 1.511 . S
C317 C313 1.376 . S
C317 C316 1.392 . S
C317 H329 0.929 . S
C318 C314 1.531 . S
C318 H330 0.960 . S
C318 H331 0.962 . S
C318 H332 0.960 . S
C319 C316 1.511 . S
C319 H333 0.961 . S
C319 H334 0.961 . S
C319 H335 0.961 . S
C320 C321 1.370 . S
C320 C322 1.363 . S
C320 H336 0.931 . S
C321 C320 1.370 . S
C321 C325 1.408 . S
C322 C320 1.363 . S
C322 C323 1.370 . S
C322 C326 1.524 . S
C323 C315 1.503 . S
C323 C322 1.370 . S
C323 C324 1.403 . S
C324 C323 1.403 . S
C324 C325 1.404 . S
C324 C327 1.539 . S
C325 C321 1.408 . S
C325 C324 1.404 . S
C325 H337 0.930 . S
C326 C322 1.524 . S
C326 H338 0.956 . S
C326 H339 0.961 . S
C326 H340 0.961 . S
C327 C324 1.539 . S
C327 H341 0.958 . S
C327 H342 0.961 . S
C327 H343 0.960 . S
H328 C312 0.931 . S
H329 C317 0.929 . S
H330 C318 0.960 . S
H331 C318 0.962 . S
H332 C318 0.960 . S
H333 C319 0.961 . S
H334 C319 0.961 . S
H335 C319 0.961 . S
H336 C320 0.931 . S
H337 C325 0.930 . S
H338 C326 0.956 . S
H339 C326 0.961 . S
H340 C326 0.961 . S
H341 C327 0.958 . S
H342 C327 0.961 . S
H343 C327 0.960 . S
C344 C345 1.391 . S
C344 C346 1.394 . S
C344 H360 0.931 . S
C345 C344 1.391 . S
C345 C349 1.376 . S
C346 C344 1.394 . S
C346 C347 1.369 . S
C346 C350 1.531 . S
C347 C346 1.369 . S
C347 C348 1.410 . S
C347 C355 1.503 . S
C348 C347 1.410 . S
C348 C349 1.392 . S
C348 C351 1.511 . S
C349 C345 1.376 . S
C349 C348 1.392 . S
C349 H361 0.929 . S
C350 C346 1.531 . S
C350 H362 0.960 . S
C350 H363 0.962 . S
C350 H364 0.960 . S
C351 C348 1.511 . S
C351 H365 0.961 . S
C351 H366 0.961 . S
C351 H367 0.961 . S
C352 C353 1.370 . S
C352 C354 1.363 . S
C352 H368 0.931 . S
C353 C352 1.370 . S
C353 C357 1.408 . S
C354 C352 1.363 . S
C354 C355 1.370 . S
C354 C358 1.524 . S
C355 C347 1.503 . S
C355 C354 1.370 . S
C355 C356 1.403 . S
C356 C355 1.403 . S
C356 C357 1.404 . S
C356 C359 1.539 . S
C357 C353 1.408 . S
C357 C356 1.404 . S
C357 H369 0.930 . S
C358 C354 1.524 . S
C358 H370 0.956 . S
C358 H371 0.961 . S
C358 H372 0.961 . S
C359 C356 1.539 . S
C359 H373 0.958 . S
C359 H374 0.961 . S
C359 H375 0.960 . S
H360 C344 0.931 . S
H361 C349 0.929 . S
H362 C350 0.960 . S
H363 C350 0.962 . S
H364 C350 0.960 . S
H365 C351 0.961 . S
H366 C351 0.961 . S
H367 C351 0.961 . S
H368 C352 0.931 . S
H369 C357 0.930 . S
H370 C358 0.956 . S
H371 C358 0.961 . S
H372 C358 0.961 . S
H373 C359 0.958 . S
H374 C359 0.961 . S
H375 C359 0.960 . S
C376 C377 1.391 1_655 S
C376 C378 1.394 . S
C376 H392 0.931 . S
C377 C376 1.391 1_455 S
C377 C381 1.376 1_565 S
C378 C376 1.394 . S
C378 C379 1.369 1_655 S
C378 C382 1.531 . S
C379 C378 1.369 1_455 S
C379 C380 1.410 1_565 S
C379 C387 1.503 . S
C380 C379 1.410 1_545 S
C380 C381 1.392 . S
C380 C383 1.511 . S
C381 C377 1.376 1_545 S
C381 C380 1.392 . S
C381 H393 0.929 . S
C382 C378 1.531 . S
C382 H394 0.960 . S
C382 H395 0.962 . S
C382 H396 0.960 . S
C383 C380 1.511 . S
C383 H397 0.961 . S
C383 H398 0.961 . S
C383 H399 0.961 . S
C384 C385 1.370 1_645 S
C384 C386 1.363 . S
C384 H400 0.931 . S
C385 C384 1.370 1_465 S
C385 C389 1.408 . S
C386 C384 1.363 . S
C386 C387 1.370 1_645 S
C386 C390 1.524 . S
C387 C379 1.503 . S
C387 C386 1.370 1_465 S
C387 C388 1.403 . S
C388 C387 1.403 . S
C388 C389 1.404 . S
C388 C391 1.539 . S
C389 C385 1.408 . S
C389 C388 1.404 . S
C389 H401 0.930 . S
C390 C386 1.524 . S
C390 H402 0.956 . S
C390 H403 0.961 . S
C390 H404 0.961 . S
C391 C388 1.539 . S
C391 H405 0.958 . S
C391 H406 0.961 . S
C391 H407 0.960 . S
H392 C376 0.931 . S
H393 C381 0.929 . S
H394 C382 0.960 . S
H395 C382 0.962 . S
H396 C382 0.960 . S
H397 C383 0.961 . S
H398 C383 0.961 . S
H399 C383 0.961 . S
H400 C384 0.931 . S
H401 C389 0.930 . S
H402 C390 0.956 . S
H403 C390 0.961 . S
H404 C390 0.961 . S
H405 C391 0.958 . S
H406 C391 0.961 . S
H407 C391 0.960 . S
C408 C409 1.391 . S
C408 C410 1.394 . S
C408 H424 0.931 . S
C409 C408 1.391 . S
C409 C413 1.376 1_455 S
C410 C408 1.394 . S
C410 C411 1.369 . S
C410 C414 1.531 1_545 S
C411 C410 1.369 . S
C411 C412 1.410 1_455 S
C411 C419 1.503 . S
C412 C411 1.410 1_655 S
C412 C413 1.392 . S
C412 C415 1.511 . S
C413 C409 1.376 1_655 S
C413 C412 1.392 . S
C413 H425 0.929 . S
C414 C410 1.531 1_565 S
C414 H426 0.960 . S
C414 H427 0.962 1_565 S
C414 H428 0.960 . S
C415 C412 1.511 . S
C415 H429 0.961 . S
C415 H430 0.961 . S
C415 H431 0.961 . S
C416 C417 1.370 . S
C416 C418 1.363 . S
C416 H432 0.931 . S
C417 C416 1.370 . S
C417 C421 1.401 1_445 S
C418 C416 1.363 . S
C418 C419 1.370 . S
C418 C422 1.524 . S
C419 C411 1.503 . S
C419 C418 1.370 . S
C419 C420 1.400 1_445 S
C420 C419 1.400 1_665 S
C420 C421 1.402 . S
C420 C423 1.542 . S
C421 C417 1.401 1_665 S
C421 C420 1.402 . S
C421 H433 0.939 . S
C422 C418 1.524 . S
C422 H434 0.956 . S
C422 H435 0.961 . S
C422 H436 0.961 . S
C423 C420 1.542 . S
C423 H437 0.958 . S
C423 H438 0.961 . S
C423 H439 0.960 . S
H424 C408 0.931 . S
H425 C413 0.929 . S
H426 C414 0.960 . S
H427 C414 0.962 1_545 S
H428 C414 0.960 . S
H429 C415 0.961 . S
H430 C415 0.961 . S
H431 C415 0.961 . S
H432 C416 0.931 . S
H433 C421 0.939 . S
H434 C422 0.956 . S
H435 C422 0.961 . S
H436 C422 0.961 . S
H437 C423 0.958 . S
H438 C423 0.961 . S
H439 C423 0.960 . S
C440 C441 1.391 . S
C440 C442 1.394 . S
C440 H456 0.931 . S
C441 C440 1.391 . S
C441 C445 1.376 . S
C442 C440 1.394 . S
C442 C443 1.369 . S
C442 C446 1.531 . S
C443 C442 1.369 . S
C443 C444 1.410 . S
C443 C451 1.503 . S
C444 C443 1.410 . S
C444 C445 1.392 . S
C444 C447 1.511 . S
C445 C441 1.376 . S
C445 C444 1.392 . S
C445 H457 0.929 . S
C446 C442 1.531 . S
C446 H458 0.960 . S
C446 H459 0.962 . S
C446 H460 0.960 . S
C447 C444 1.511 . S
C447 H461 0.961 . S
C447 H462 0.961 . S
C447 H463 0.961 . S
C448 C449 1.370 . S
C448 C450 1.363 . S
C448 H464 0.931 . S
C449 C448 1.370 . S
C449 C453 1.408 . S
C450 C448 1.363 . S
C450 C451 1.370 . S
C450 C454 1.524 . S
C451 C443 1.503 . S
C451 C450 1.370 . S
C451 C452 1.403 . S
C452 C451 1.403 . S
C452 C453 1.404 . S
C452 C455 1.539 . S
C453 C449 1.408 . S
C453 C452 1.404 . S
C453 H465 0.930 . S
C454 C450 1.524 . S
C454 H466 0.956 . S
C454 H467 0.961 . S
C454 H468 0.961 . S
C455 C452 1.539 . S
C455 H469 0.958 . S
C455 H470 0.961 . S
C455 H471 0.960 . S
H456 C440 0.931 . S
H457 C445 0.929 . S
H458 C446 0.960 . S
H459 C446 0.962 . S
H460 C446 0.960 . S
H461 C447 0.961 . S
H462 C447 0.961 . S
H463 C447 0.961 . S
H464 C448 0.931 . S
H465 C453 0.930 . S
H466 C454 0.956 . S
H467 C454 0.961 . S
H468 C454 0.961 . S
H469 C455 0.958 . S
H470 C455 0.961 . S
H471 C455 0.960 . S
C472 C473 1.391 . S
C472 C474 1.394 . S
C472 H488 0.931 . S
C473 C472 1.391 . S
C473 C477 1.376 . S
C474 C472 1.394 . S
C474 C475 1.369 . S
C474 C478 1.531 . S
C475 C474 1.369 . S
C475 C476 1.410 . S
C475 C483 1.503 . S
C476 C475 1.410 . S
C476 C477 1.392 . S
C476 C479 1.511 . S
C477 C473 1.376 . S
C477 C476 1.392 . S
C477 H489 0.929 . S
C478 C474 1.531 . S
C478 H490 0.960 . S
C478 H491 0.962 . S
C478 H492 0.960 . S
C479 C476 1.511 . S
C479 H493 0.961 . S
C479 H494 0.961 . S
C479 H495 0.961 . S
C480 C481 1.370 . S
C480 C482 1.363 . S
C480 H496 0.931 . S
C481 C480 1.370 . S
C481 C485 1.408 . S
C482 C480 1.363 . S
C482 C483 1.370 . S
C482 C486 1.524 . S
C483 C475 1.503 . S
C483 C482 1.370 . S
C483 C484 1.403 . S
C484 C483 1.403 . S
C484 C485 1.404 . S
C484 C487 1.539 . S
C485 C481 1.408 . S
C485 C484 1.404 . S
C485 H497 0.930 . S
C486 C482 1.524 . S
C486 H498 0.956 . S
C486 H499 0.961 . S
C486 H500 0.961 . S
C487 C484 1.539 . S
C487 H501 0.958 . S
C487 H502 0.961 . S
C487 H503 0.960 . S
H488 C472 0.931 . S
H489 C477 0.929 . S
H490 C478 0.960 . S
H491 C478 0.962 . S
H492 C478 0.960 . S
H493 C479 0.961 . S
H494 C479 0.961 . S
H495 C479 0.961 . S
H496 C480 0.931 . S
H497 C485 0.930 . S
H498 C486 0.956 . S
H499 C486 0.961 . S
H500 C486 0.961 . S
H501 C487 0.958 . S
H502 C487 0.961 . S
H503 C487 0.960 . S
C129 N109 1.362 . S
C121 C29 1.378 . S
C153 C8 1.389 . S
C161 N96 1.376 . S
C185 C0 1.492 . S
C193 N108 1.494 . S
C217 C17 1.477 . S
C225 N95 1.491 . S
C249 C63 1.369 . S
C257 N83 1.353 . S
C281 C42 1.380 . S
C289 N70 1.367 . S
C321 N82 1.494 . S
C313 C34 1.487 . S
C353 N69 1.488 . S
C345 C51 1.469 . S
C377 C4 1.522 . S
C385 N73 1.515 . S
C409 C13 1.511 . S
C417 N86 1.512 . S
C449 N99 1.502 . S
C441 C38 1.504 . S
C473 C47 1.538 . S
C481 N112 1.527 . S
