# Generated by pormake.
# Topology apo, (3,6)-cn, num edge types: 1
# Building blocks:
#     Node 0, Type 0, BuildingBlock: BETDAH_clean_linker_0, # of connection points: 3
#     Node 1, Type 0, BuildingBlock: BETDAH_clean_linker_0, # of connection points: 3
#     Node 2, Type 0, BuildingBlock: BETDAH_clean_linker_0, # of connection points: 3
#     Node 3, Type 0, BuildingBlock: BETDAH_clean_linker_0, # of connection points: 3
#     Node 4, Type 0, BuildingBlock: BETDAH_clean_linker_0, # of connection points: 3
#     Node 5, Type 0, BuildingBlock: BETDAH_clean_linker_0, # of connection points: 3
#     Node 6, Type 0, BuildingBlock: BETDAH_clean_linker_0, # of connection points: 3
#     Node 7, Type 0, BuildingBlock: BETDAH_clean_linker_0, # of connection points: 3
#     Node 8, Type 1, BuildingBlock: KUMBOL_clean_sbu_1, # of connection points: 6
#     Node 9, Type 1, BuildingBlock: KUMBOL_clean_sbu_1, # of connection points: 6
#     Node 10, Type 1, BuildingBlock: KUMBOL_clean_sbu_1, # of connection points: 6
#     Node 11, Type 1, BuildingBlock: KUMBOL_clean_sbu_1, # of connection points: 6
#     Edge 12, Type (0, 1), BuildingBlock: XUDNAN_clean_linker_2, # of connection points: 2
#     Edge 13, Type (0, 1), BuildingBlock: XUDNAN_clean_linker_2, # of connection points: 2
#     Edge 14, Type (0, 1), BuildingBlock: XUDNAN_clean_linker_2, # of connection points: 2
#     Edge 15, Type (0, 1), BuildingBlock: XUDNAN_clean_linker_2, # of connection points: 2
#     Edge 16, Type (0, 1), BuildingBlock: XUDNAN_clean_linker_2, # of connection points: 2
#     Edge 17, Type (0, 1), BuildingBlock: XUDNAN_clean_linker_2, # of connection points: 2
#     Edge 18, Type (0, 1), BuildingBlock: XUDNAN_clean_linker_2, # of connection points: 2
#     Edge 19, Type (0, 1), BuildingBlock: XUDNAN_clean_linker_2, # of connection points: 2
#     Edge 20, Type (0, 1), BuildingBlock: XUDNAN_clean_linker_2, # of connection points: 2
#     Edge 21, Type (0, 1), BuildingBlock: XUDNAN_clean_linker_2, # of connection points: 2
#     Edge 22, Type (0, 1), BuildingBlock: XUDNAN_clean_linker_2, # of connection points: 2
#     Edge 23, Type (0, 1), BuildingBlock: XUDNAN_clean_linker_2, # of connection points: 2
#     Edge 24, Type (0, 1), BuildingBlock: XUDNAN_clean_linker_2, # of connection points: 2
#     Edge 25, Type (0, 1), BuildingBlock: XUDNAN_clean_linker_2, # of connection points: 2
#     Edge 26, Type (0, 1), BuildingBlock: XUDNAN_clean_linker_2, # of connection points: 2
#     Edge 27, Type (0, 1), BuildingBlock: XUDNAN_clean_linker_2, # of connection points: 2
#     Edge 28, Type (0, 1), BuildingBlock: XUDNAN_clean_linker_2, # of connection points: 2
#     Edge 29, Type (0, 1), BuildingBlock: XUDNAN_clean_linker_2, # of connection points: 2
#     Edge 30, Type (0, 1), BuildingBlock: XUDNAN_clean_linker_2, # of connection points: 2
#     Edge 31, Type (0, 1), BuildingBlock: XUDNAN_clean_linker_2, # of connection points: 2
#     Edge 32, Type (0, 1), BuildingBlock: XUDNAN_clean_linker_2, # of connection points: 2
#     Edge 33, Type (0, 1), BuildingBlock: XUDNAN_clean_linker_2, # of connection points: 2
#     Edge 34, Type (0, 1), BuildingBlock: XUDNAN_clean_linker_2, # of connection points: 2
#     Edge 35, Type (0, 1), BuildingBlock: XUDNAN_clean_linker_2, # of connection points: 2
# Relax obj value: 0.037
# Max RMSD: 0.221
# Mean RMSD: 0.156
data_MOF--net-apo--node1-KUMBOL_clean_sbu_1--node2-BETDAH_clean_linker_0--edge1-XUDNAN_clean_linker_2
_symmetry_space_group_name_H-M    P1
_symmetry_Int_Tables_number       1
_symmetry_cell_setting            triclinic
loop_
_symmetry_equiv_pos_as_xyz
'x, y, z'
_cell_length_a     27.570759
_cell_length_b     42.024256
_cell_length_c     51.587223
_cell_angle_alpha  89.370951
_cell_angle_beta   90.376603
_cell_angle_gamma 90.349514
loop_
_atom_site_label
_atom_site_type_symbol
_atom_site_fract_x
_atom_site_fract_y
_atom_site_fract_z
_atom_type_partial_charge
H0 H 0.36294 0.4353 0.43068 0.0
H1 H 0.31521 0.36739 0.37293 0.0
H2 H 0.3192 0.34124 0.45306 0.0
C3 C 0.35044 0.41201 0.42491 0.0
C4 C 0.34335 0.38906 0.44453 0.0
C5 C 0.34067 0.40514 0.39857 0.0
C6 C 0.32168 0.3745 0.3927 0.0
C7 C 0.31295 0.35186 0.41245 0.0
C8 C 0.32457 0.35918 0.43807 0.0
N9 N 0.29503 0.32076 0.40732 0.0
C10 C 0.26561 0.31225 0.38645 0.0
H11 H 0.16028 0.06964 0.92577 0.0
H12 H 0.19392 0.13457 0.86316 0.0
H13 H 0.18642 0.16867 0.94126 0.0
C14 C 0.16945 0.09345 0.91904 0.0
C15 C 0.17315 0.1183 0.93689 0.0
C16 C 0.1766 0.09911 0.89245 0.0
C17 C 0.18888 0.12992 0.88368 0.0
C18 C 0.19308 0.1549 0.9015 0.0
C19 C 0.18453 0.14902 0.92784 0.0
N20 N 0.20211 0.18669 0.89346 0.0
C21 C 0.23755 0.19569 0.87578 0.0
H22 H 0.87183 0.09807 0.59981 0.0
H23 H 0.82209 0.15307 0.66433 0.0
H24 H 0.85488 0.19951 0.59213 0.0
C25 C 0.86111 0.12069 0.60778 0.0
C26 C 0.86453 0.1484 0.59237 0.0
C27 C 0.84569 0.12196 0.63373 0.0
C28 C 0.83363 0.15159 0.64435 0.0
C29 C 0.83756 0.17948 0.62918 0.0
C30 C 0.85308 0.17773 0.60352 0.0
N31 N 0.82877 0.20993 0.63955 0.0
C32 C 0.78692 0.2175 0.65287 0.0
H33 H 0.63346 0.42959 0.1005 0.0
H34 H 0.70496 0.36827 0.15642 0.0
H35 H 0.70465 0.3446 0.07595 0.0
C36 C 0.65515 0.4089 0.10513 0.0
C37 C 0.66904 0.38882 0.08487 0.0
C38 C 0.66782 0.40211 0.13118 0.0
C39 C 0.6943 0.37409 0.13671 0.0
C40 C 0.70626 0.35305 0.11675 0.0
C41 C 0.69363 0.36059 0.09112 0.0
N42 N 0.72922 0.32338 0.12155 0.0
C43 C 0.76114 0.3166 0.14184 0.0
H44 H 0.65587 0.58148 0.5867 0.0
H45 H 0.74153 0.60199 0.65469 0.0
H46 H 0.77094 0.65104 0.58299 0.0
C47 C 0.68443 0.5949 0.59623 0.0
C48 C 0.71161 0.61709 0.5817 0.0
C49 C 0.69417 0.58953 0.62272 0.0
C50 C 0.7326 0.60624 0.63446 0.0
C51 C 0.75966 0.62878 0.62037 0.0
C52 C 0.74878 0.63448 0.59406 0.0
N53 N 0.80193 0.64196 0.63185 0.0
C54 C 0.80604 0.67357 0.63928 0.0
H55 H 0.86361 0.92929 0.09326 0.0
H56 H 0.75438 0.85608 0.08809 0.0
H57 H 0.76874 0.91065 0.15761 0.0
C58 C 0.83449 0.91559 0.10206 0.0
C59 C 0.81951 0.92286 0.12727 0.0
C60 C 0.8111 0.89189 0.08754 0.0
C61 C 0.77417 0.87361 0.09929 0.0
C62 C 0.7598 0.8798 0.12486 0.0
C63 C 0.78234 0.90453 0.13865 0.0
N64 N 0.71607 0.86644 0.13445 0.0
C65 C 0.71294 0.83713 0.14716 0.0
H66 H 0.14188 0.92783 0.42711 0.0
H67 H 0.23182 0.87869 0.37228 0.0
H68 H 0.23317 0.85073 0.45227 0.0
C69 C 0.16826 0.9097 0.42276 0.0
C70 C 0.18612 0.89027 0.44301 0.0
C71 C 0.18431 0.90588 0.39701 0.0
C72 C 0.21825 0.8817 0.39174 0.0
C73 C 0.23582 0.862 0.41187 0.0
C74 C 0.21973 0.86652 0.43713 0.0
N75 N 0.27061 0.83773 0.40804 0.0
C76 C 0.28515 0.82528 0.3845 0.0
H77 H 0.35945 0.60165 0.92895 0.0
H78 H 0.31452 0.69864 0.91681 0.0
H79 H 0.35177 0.64127 0.85182 0.0
C80 C 0.35091 0.62124 0.91596 0.0
C81 C 0.35646 0.61733 0.88909 0.0
C82 C 0.33702 0.65057 0.92641 0.0
C83 C 0.32531 0.67579 0.90931 0.0
C84 C 0.32973 0.67197 0.8824 0.0
C85 C 0.3461 0.64313 0.87251 0.0
N86 N 0.32314 0.69794 0.86509 0.0
C87 C 0.27903 0.71328 0.86194 0.0
C88 C 0.85651 0.09746 0.27748 0.0
C89 C 0.85439 0.04038 0.28483 0.0
C90 C 0.87972 0.0696 0.28459 0.0
C91 C 0.80594 0.03937 0.27629 0.0
C92 C 0.80699 0.09686 0.27046 0.0
C93 C 0.78229 0.06757 0.26908 0.0
N94 N 0.88118 0.1254 0.27974 0.0
C95 C 0.85707 0.1536 0.27789 0.0
C96 C 0.78321 0.1258 0.2663 0.0
C97 C 0.80812 0.15429 0.27059 0.0
Gd98 Gd 0.07143 0.12538 0.23583 0.0
Gd99 Gd 0.96425 0.12182 0.29057 0.0
N100 N 0.92653 0.07148 0.29285 0.0
C101 C 0.87803 0.01331 0.29453 0.0
C102 C 0.9485 0.0457 0.30401 0.0
C103 C 0.92505 0.0161 0.30454 0.0
H104 H 0.98396 0.04803 0.31265 0.0
H105 H 0.94303 0.99557 0.31292 0.0
H106 H 0.07564 0.20565 0.23381 0.0
H107 H 0.87563 0.17571 0.28208 0.0
H108 H 0.13629 0.24831 0.23839 0.0
H109 H 0.85976 0.99042 0.29517 0.0
H110 H 0.78601 0.01707 0.27598 0.0
H111 H 0.13309 0.05663 0.24334 0.0
H112 H 0.74517 0.12639 0.26092 0.0
H113 H 0.78948 0.17677 0.26858 0.0
H114 H 0.2841 0.19328 0.25778 0.0
H115 H 0.7444 0.0666 0.26341 0.0
H116 H 0.27929 0.07964 0.26379 0.0
H117 H 0.21522 0.03954 0.2556 0.0
N118 N 0.14827 0.10606 0.24779 0.0
C119 C 0.18349 0.12852 0.25103 0.0
C120 C 0.15967 0.07446 0.24843 0.0
C121 C 0.24272 0.08734 0.25928 0.0
C122 C 0.20664 0.06464 0.25477 0.0
C123 C 0.23169 0.1197 0.25691 0.0
H124 H 0.30482 0.1369 0.26391 0.0
N125 N 0.12546 0.16829 0.24109 0.0
C126 C 0.17195 0.16043 0.24724 0.0
C127 C 0.19493 0.21605 0.24656 0.0
C128 C 0.20802 0.18415 0.2499 0.0
C129 C 0.11253 0.19937 0.2379 0.0
C130 C 0.1469 0.22369 0.24072 0.0
O131 O 0.96368 0.08409 0.25962 0.0
O132 O 0.99282 0.11492 0.22686 0.0
O133 O 0.09076 0.14261 0.19743 0.0
O134 O 0.08668 0.09189 0.20515 0.0
O135 O 0.03753 0.09877 0.29749 0.0
O136 O 0.05837 0.07939 0.25771 0.0
O137 O 0.08648 0.14524 0.2758 0.0
O138 O 0.01233 0.16535 0.28697 0.0
O139 O 0.98147 0.11278 0.33132 0.0
O140 O 0.92518 0.14592 0.32082 0.0
O141 O 0.01535 0.16403 0.22946 0.0
O142 O 0.95333 0.16221 0.2606 0.0
C143 C 0.96902 0.08972 0.23482 0.0
C144 C 0.05681 0.07656 0.28309 0.0
C145 C 0.13827 0.10943 0.17121 0.0
C146 C 0.16969 0.10398 0.12734 0.0
C147 C 0.22454 0.10268 0.16447 0.0
C148 C 0.18549 0.10677 0.18117 0.0
C149 C 0.21682 0.10131 0.13772 0.0
C150 C 0.13055 0.10804 0.14434 0.0
C151 C 0.09637 0.11419 0.18817 0.0
C152 C 0.2559 0.17537 0.25581 0.0
C153 C 0.26765 0.14328 0.25944 0.0
H154 H 0.22154 0.23496 0.24859 0.0
C155 C 0.05993 0.16613 0.28799 0.0
C156 C 0.97441 0.17452 0.23955 0.0
C157 C 0.91452 0.11689 0.35951 0.0
C158 C 0.89054 0.11304 0.40501 0.0
C159 C 0.84119 0.08829 0.37134 0.0
C160 C 0.87335 0.09918 0.35247 0.0
C161 C 0.84929 0.0954 0.39737 0.0
C162 C 0.92346 0.12326 0.38575 0.0
C163 C 0.94661 0.13064 0.33961 0.0
H164 H 0.26091 0.10054 0.17229 0.0
H165 H 0.19236 0.10787 0.2017 0.0
H166 H 0.24766 0.09777 0.1252 0.0
H167 H 0.09404 0.11061 0.13668 0.0
H168 H 0.80918 0.07494 0.3657 0.0
H169 H 0.86541 0.0944 0.3324 0.0
H170 H 0.82235 0.08777 0.4113 0.0
H171 H 0.95577 0.13658 0.39096 0.0
C172 C 0.67155 0.39706 0.77044 0.0
C173 C 0.68602 0.45363 0.77639 0.0
C174 C 0.65508 0.42687 0.7778 0.0
C175 C 0.73365 0.45007 0.76742 0.0
C176 C 0.71934 0.39342 0.76147 0.0
C177 C 0.75019 0.42009 0.75989 0.0
N178 N 0.64109 0.37158 0.77246 0.0
C179 C 0.65622 0.34178 0.76634 0.0
C180 C 0.73484 0.36299 0.75462 0.0
C181 C 0.70321 0.33705 0.75721 0.0
Gd182 Gd 0.44627 0.38845 0.74136 0.0
Gd183 Gd 0.56396 0.38218 0.78867 0.0
N184 N 0.60831 0.42975 0.78573 0.0
C185 C 0.66797 0.48321 0.78384 0.0
C186 C 0.59086 0.4583 0.7936 0.0
C187 C 0.62023 0.48553 0.79253 0.0
H188 H 0.55441 0.46014 0.80072 0.0
H189 H 0.60613 0.50825 0.79853 0.0
H190 H 0.4753 0.32595 0.70283 0.0
H191 H 0.63235 0.32154 0.76898 0.0
H192 H 0.44994 0.2705 0.69707 0.0
H193 H 0.69058 0.50437 0.78299 0.0
H194 H 0.75794 0.47038 0.76613 0.0
H195 H 0.35998 0.42266 0.776 0.0
H196 H 0.77129 0.3592 0.7476 0.0
H197 H 0.71511 0.31336 0.75237 0.0
H198 H 0.30477 0.26094 0.74696 0.0
H199 H 0.78704 0.41776 0.75302 0.0
H200 H 0.24654 0.35434 0.78886 0.0
H201 H 0.28008 0.40856 0.79456 0.0
N202 N 0.37142 0.37675 0.76042 0.0
C203 C 0.35366 0.34687 0.75693 0.0
C204 C 0.34571 0.39886 0.77368 0.0
C205 C 0.28167 0.36034 0.78081 0.0
C206 C 0.30048 0.39098 0.7841 0.0
C207 C 0.30842 0.33776 0.76728 0.0
H208 H 0.25653 0.29912 0.77147 0.0
N209 N 0.42363 0.33537 0.73234 0.0
C210 C 0.38096 0.32541 0.74294 0.0
C211 C 0.3897 0.27388 0.72319 0.0
C212 C 0.36322 0.29426 0.7389 0.0
C213 C 0.44626 0.31672 0.71462 0.0
C214 C 0.43083 0.28542 0.71053 0.0
O215 O 0.57294 0.41144 0.75105 0.0
O216 O 0.49629 0.42997 0.74504 0.0
O217 O 0.44012 0.39293 0.69893 0.0
O218 O 0.38947 0.41728 0.7242 0.0
O219 O 0.49906 0.40854 0.80352 0.0
O220 O 0.45265 0.42956 0.76969 0.0
O221 O 0.43844 0.36646 0.7814 0.0
O222 O 0.51061 0.34069 0.78816 0.0
O223 O 0.56041 0.39075 0.8301 0.0
O224 O 0.61069 0.35615 0.81546 0.0
O225 O 0.5166 0.3661 0.72661 0.0
O226 O 0.54596 0.34116 0.76327 0.0
C227 C 0.54189 0.42995 0.7387 0.0
C228 C 0.46797 0.42938 0.7941 0.0
C229 C 0.37599 0.42477 0.67803 0.0
C230 C 0.35986 0.42805 0.63139 0.0
C231 C 0.30969 0.45717 0.66141 0.0
C232 C 0.33691 0.4454 0.68221 0.0
C233 C 0.3208 0.44841 0.63619 0.0
C234 C 0.38785 0.41649 0.65241 0.0
C235 C 0.40229 0.41117 0.70063 0.0
C236 C 0.31879 0.28481 0.74979 0.0
C237 C 0.29127 0.30658 0.76372 0.0
H238 H 0.37738 0.24977 0.71967 0.0
C239 C 0.46317 0.34235 0.79065 0.0
C240 C 0.54327 0.34397 0.73805 0.0
C241 C 0.63461 0.38524 0.85268 0.0
C242 C 0.66086 0.40358 0.89538 0.0
C243 C 0.71432 0.40926 0.85833 0.0
C244 C 0.67945 0.39504 0.84247 0.0
C245 C 0.70505 0.41371 0.88457 0.0
C246 C 0.62568 0.38919 0.87932 0.0
C247 C 0.59649 0.37192 0.83562 0.0
H248 H 0.27961 0.47297 0.66487 0.0
H249 H 0.32697 0.45227 0.70164 0.0
H250 H 0.29906 0.4578 0.62031 0.0
H251 H 0.41773 0.40051 0.64885 0.0
H252 H 0.74865 0.41688 0.85023 0.0
H253 H 0.68769 0.39176 0.82228 0.0
H254 H 0.7327 0.42474 0.89656 0.0
H255 H 0.59122 0.38168 0.88742 0.0
C256 C 0.82466 0.88389 0.76202 0.0
C257 C 0.80325 0.82805 0.76625 0.0
C258 C 0.83645 0.85328 0.76973 0.0
C259 C 0.7594 0.83369 0.75303 0.0
C260 C 0.7794 0.89005 0.75015 0.0
C261 C 0.74759 0.86464 0.74487 0.0
N262 N 0.85547 0.90794 0.76835 0.0
C263 C 0.84084 0.93885 0.76589 0.0
C264 C 0.76647 0.92169 0.74517 0.0
C265 C 0.79692 0.94622 0.75357 0.0
Gd266 Gd 0.03996 0.8951 0.73385 0.0
Gd267 Gd 0.93057 0.8928 0.78674 0.0
N268 N 0.87908 0.84862 0.78238 0.0
C269 C 0.8142 0.7983 0.7772 0.0
C270 C 0.88897 0.82016 0.79427 0.0
C271 C 0.85699 0.79444 0.79157 0.0
H272 H 0.92214 0.81733 0.80535 0.0
H273 H 0.86529 0.77171 0.80054 0.0
H274 H 0.00495 0.95617 0.69453 0.0
H275 H 0.8631 0.958 0.7733 0.0
H276 H 0.02283 0.01322 0.68914 0.0
H277 H 0.78925 0.77844 0.77532 0.0
H278 H 0.7337 0.81451 0.7498 0.0
H279 H 0.13573 0.86387 0.7637 0.0
H280 H 0.73211 0.92745 0.73601 0.0
H281 H 0.78632 0.9708 0.75089 0.0
H282 H 0.15903 0.03145 0.74558 0.0
H283 H 0.7129 0.86886 0.73551 0.0
H284 H 0.23312 0.93944 0.78456 0.0
H285 H 0.21214 0.88202 0.78455 0.0
N286 N 0.11404 0.91041 0.75264 0.0
C287 C 0.12621 0.94168 0.75107 0.0
C288 C 0.14499 0.88884 0.76362 0.0
C289 C 0.19986 0.93152 0.7753 0.0
C290 C 0.18813 0.89909 0.77537 0.0
C291 C 0.169 0.95325 0.76281 0.0
H292 H 0.21205 0.99542 0.77068 0.0
N293 N 0.05686 0.94927 0.72481 0.0
C294 C 0.09613 0.96187 0.73712 0.0
C295 C 0.0802 0.01331 0.71768 0.0
C296 C 0.10838 0.99435 0.7343 0.0
C297 C 0.03237 0.96695 0.70668 0.0
C298 C 0.04292 0.9993 0.70325 0.0
O299 O 0.9386 0.85288 0.75746 0.0
O300 O 0.96575 0.87851 0.72092 0.0
O301 O 0.07408 0.89989 0.69588 0.0
O302 O 0.07224 0.85371 0.71588 0.0
O303 O 0.99617 0.86293 0.79664 0.0
O304 O 0.03807 0.8503 0.75891 0.0
O305 O 0.05147 0.90756 0.77607 0.0
O306 O 0.983 0.93431 0.78716 0.0
O307 O 0.94574 0.88201 0.82716 0.0
O308 O 0.88217 0.90906 0.81707 0.0
O309 O 0.96786 0.91749 0.72353 0.0
O310 O 0.94238 0.93765 0.76236 0.0
C311 C 0.94008 0.85589 0.73211 0.0
C312 C 0.02718 0.84548 0.78362 0.0
C313 C 0.11161 0.85544 0.67374 0.0
C314 C 0.13615 0.85547 0.62821 0.0
C315 C 0.16337 0.81357 0.65774 0.0
C316 C 0.13799 0.82738 0.67798 0.0
C317 C 0.16254 0.82744 0.63305 0.0
C318 C 0.1107 0.86941 0.64876 0.0
C319 C 0.08552 0.86996 0.69548 0.0
C320 C 0.14949 1.00646 0.74718 0.0
C321 C 0.17979 0.98593 0.76139 0.0
H322 H 0.08845 0.03835 0.71488 0.0
C323 C 0.03024 0.93095 0.78807 0.0
C324 C 0.94349 0.93845 0.73689 0.0
C325 C 0.9169 0.91686 0.8587 0.0
C326 C 0.90994 0.92344 0.90566 0.0
C327 C 0.95419 0.96241 0.87936 0.0
C328 C 0.94414 0.94505 0.85702 0.0
C329 C 0.93747 0.95172 0.9035 0.0
C330 C 0.89968 0.90627 0.88291 0.0
C331 C 0.90831 0.8971 0.83579 0.0
H332 H 0.18365 0.79194 0.66118 0.0
H333 H 0.13932 0.81624 0.69701 0.0
H334 H 0.18191 0.81588 0.61761 0.0
H335 H 0.09039 0.89108 0.64534 0.0
H336 H 0.97557 0.98405 0.87803 0.0
H337 H 0.95801 0.95338 0.83853 0.0
H338 H 0.947 0.96533 0.9205 0.0
H339 H 0.87832 0.88456 0.88392 0.0
C340 C 0.64738 0.6532 0.28588 0.0
C341 C 0.63995 0.70813 0.29904 0.0
C342 C 0.61914 0.6778 0.29513 0.0
C343 C 0.68879 0.71358 0.29264 0.0
C344 C 0.69674 0.65829 0.28012 0.0
C345 C 0.71714 0.6887 0.28326 0.0
N346 N 0.62627 0.62431 0.28216 0.0
C347 C 0.65282 0.59899 0.27419 0.0
C348 C 0.72403 0.63264 0.27125 0.0
C349 C 0.70203 0.6028 0.26848 0.0
Gd350 Gd 0.45322 0.62333 0.22863 0.0
Gd351 Gd 0.54397 0.61985 0.29227 0.0
N352 N 0.57194 0.67176 0.30118 0.0
C353 C 0.61143 0.73186 0.30994 0.0
C354 C 0.54556 0.69399 0.31393 0.0
C355 C 0.56432 0.72456 0.31788 0.0
H356 H 0.51068 0.68809 0.32191 0.0
H357 H 0.54275 0.74227 0.32751 0.0
H358 H 0.46648 0.5537 0.2003 0.0
H359 H 0.636 0.57585 0.27225 0.0
H360 H 0.41809 0.50509 0.1916 0.0
H361 H 0.62603 0.75548 0.31325 0.0
H362 H 0.70523 0.73681 0.29532 0.0
H363 H 0.37198 0.67753 0.24954 0.0
H364 H 0.76209 0.63556 0.26665 0.0
H365 H 0.72295 0.58275 0.26193 0.0
H366 H 0.26393 0.52594 0.23076 0.0
H367 H 0.75489 0.69317 0.2787 0.0
H368 H 0.23936 0.62919 0.2666 0.0
H369 H 0.28929 0.67827 0.26686 0.0
N370 N 0.37291 0.62748 0.244 0.0
C371 C 0.3448 0.60088 0.24182 0.0
C372 C 0.35248 0.65542 0.25143 0.0
C373 C 0.27665 0.62842 0.26013 0.0
C374 C 0.30477 0.65613 0.26042 0.0
C375 C 0.296 0.60059 0.24991 0.0
H376 H 0.23005 0.57242 0.25271 0.0
N377 N 0.41042 0.57596 0.22135 0.0
C378 C 0.3637 0.5746 0.22952 0.0
C379 C 0.3547 0.52216 0.21125 0.0
C380 C 0.33463 0.54751 0.22487 0.0
C381 C 0.42984 0.55177 0.20747 0.0
C382 C 0.40245 0.52438 0.2024 0.0
O383 O 0.57293 0.63653 0.25322 0.0
O384 O 0.50821 0.66263 0.23511 0.0
O385 O 0.46746 0.61899 0.18706 0.0
O386 O 0.41409 0.65197 0.20047 0.0
O387 O 0.47336 0.64703 0.29584 0.0
O388 O 0.45725 0.66654 0.25458 0.0
O389 O 0.44844 0.58125 0.25654 0.0
O390 O 0.46564 0.60479 0.29504 0.0
O391 O 0.55828 0.62425 0.3336 0.0
O392 O 0.56356 0.57831 0.31548 0.0
O393 O 0.52377 0.59602 0.22449 0.0
O394 O 0.54418 0.57686 0.26589 0.0
C395 C 0.55513 0.65943 0.23858 0.0
C396 C 0.45439 0.6685 0.28 0.0
C397 C 0.39749 0.62774 0.16061 0.0
C398 C 0.36852 0.62631 0.11561 0.0
C399 C 0.31938 0.60376 0.15032 0.0
C400 C 0.35432 0.61273 0.1684 0.0
C401 C 0.32623 0.61054 0.12415 0.0
C402 C 0.40446 0.63463 0.13408 0.0
C403 C 0.43289 0.63848 0.18039 0.0
C404 C 0.28669 0.54668 0.23384 0.0
C405 C 0.26748 0.57311 0.24644 0.0
H406 H 0.33357 0.50092 0.20729 0.0
C407 C 0.44805 0.58077 0.282 0.0
C408 C 0.54321 0.57442 0.24028 0.0
C409 C 0.61399 0.58807 0.35247 0.0
C410 C 0.65656 0.59127 0.39425 0.0
C411 C 0.69272 0.56324 0.35825 0.0
C412 C 0.65267 0.5704 0.34259 0.0
C413 C 0.69459 0.57338 0.38392 0.0
C414 C 0.6164 0.59874 0.3783 0.0
C415 C 0.57014 0.59456 0.33662 0.0
H416 H 0.28621 0.5923 0.1567 0.0
H417 H 0.34666 0.60889 0.18857 0.0
H418 H 0.29739 0.60441 0.11072 0.0
H419 H 0.43726 0.64682 0.12797 0.0
H420 H 0.72234 0.54958 0.35049 0.0
H421 H 0.65187 0.56184 0.32288 0.0
H422 H 0.72605 0.56749 0.39568 0.0
H423 H 0.58656 0.61218 0.38616 0.0
H424 H 0.16277 0.96998 0.39939 0.0
H425 H 0.16324 0.89034 0.34639 0.0
H426 H 0.13277 0.92552 0.31142 0.0
H427 H 0.05086 1.00397 0.37548 0.0
H428 H 0.07097 0.04445 0.37991 0.0
H429 H 0.09438 0.01322 0.40057 0.0
H430 H 0.18211 0.02918 0.38785 0.0
H431 H 0.15891 0.06037 0.36709 0.0
H432 H 0.19857 0.03066 0.35408 0.0
H433 H 0.10133 0.9694 0.28214 0.0
H434 H 0.06996 0.0183 0.26117 0.0
H435 H 0.08721 0.06879 0.3336 0.0
C436 C 0.15607 0.95971 0.38054 0.0
C437 C 0.16576 0.92721 0.37579 0.0
C438 C 0.15709 0.91517 0.35057 0.0
C439 C 0.1394 0.93495 0.33057 0.0
C440 C 0.13018 0.96675 0.33601 0.0
C441 C 0.138 0.97902 0.36042 0.0
C442 C 0.12433 0.0139 0.36131 0.0
C443 C 0.08266 0.01919 0.38045 0.0
C444 C 0.16863 0.03475 0.36797 0.0
C445 C 0.10778 0.01937 0.33356 0.0
C446 C 0.11155 0.99189 0.31926 0.0
C447 C 0.09838 0.99107 0.29315 0.0
C448 C 0.08085 0.01902 0.28137 0.0
C449 C 0.0766 0.04745 0.29566 0.0
C450 C 0.09016 0.04746 0.32214 0.0
H451 H 0.33497 0.58767 0.84243 0.0
H452 H 0.42528 0.57892 0.91163 0.0
H453 H 0.45742 0.52875 0.89568 0.0
H454 H 0.31021 0.50382 0.83298 0.0
H455 H 0.31626 0.50576 0.79823 0.0
H456 H 0.29622 0.54016 0.81567 0.0
H457 H 0.36595 0.57371 0.79568 0.0
H458 H 0.38603 0.53948 0.77808 0.0
H459 H 0.42762 0.56021 0.79917 0.0
H460 H 0.48004 0.48029 0.87344 0.0
H461 H 0.49935 0.4376 0.84374 0.0
H462 H 0.4018 0.47844 0.78581 0.0
C463 C 0.36159 0.5753 0.85424 0.0
C464 C 0.37635 0.58711 0.87875 0.0
C465 C 0.41155 0.57003 0.89338 0.0
C466 C 0.43053 0.54152 0.88437 0.0
C467 C 0.41488 0.53054 0.86041 0.0
C468 C 0.38186 0.54696 0.84527 0.0
C469 C 0.37395 0.53051 0.81945 0.0
C470 C 0.32101 0.51941 0.81641 0.0
C471 C 0.38932 0.55227 0.79675 0.0
C472 C 0.40793 0.50239 0.82258 0.0
C473 C 0.43041 0.50289 0.84659 0.0
C474 C 0.46294 0.47966 0.85451 0.0
C475 C 0.47357 0.45537 0.83733 0.0
C476 C 0.4524 0.45454 0.81217 0.0
C477 C 0.41871 0.47835 0.80481 0.0
H478 H 0.72377 0.54534 0.65979 0.0
H479 H 0.59582 0.58207 0.62034 0.0
H480 H 0.54474 0.54418 0.64477 0.0
H481 H 0.68591 0.46286 0.6628 0.0
H482 H 0.71035 0.45587 0.69484 0.0
H483 H 0.73772 0.48541 0.6739 0.0
H484 H 0.7261 0.5284 0.70908 0.0
H485 H 0.69971 0.49855 0.72998 0.0
H486 H 0.66661 0.53434 0.72247 0.0
H487 H 0.50717 0.50371 0.6734 0.0
H488 H 0.48414 0.46279 0.7053 0.0
H489 H 0.63557 0.4508 0.72695 0.0
C490 C 0.68498 0.54551 0.65639 0.0
C491 C 0.66389 0.56661 0.63793 0.0
C492 C 0.61299 0.56584 0.63397 0.0
C493 C 0.58359 0.5445 0.64786 0.0
C494 C 0.60549 0.52401 0.66574 0.0
C495 C 0.65493 0.52425 0.67013 0.0
C496 C 0.66876 0.49988 0.69086 0.0
C497 C 0.70269 0.4745 0.67993 0.0
C498 C 0.69163 0.5163 0.7145 0.0
C499 C 0.6193 0.48589 0.6973 0.0
C500 C 0.5835 0.50036 0.68255 0.0
C501 C 0.53484 0.49221 0.68509 0.0
C502 C 0.52219 0.46888 0.70337 0.0
C503 C 0.55795 0.45367 0.71897 0.0
C504 C 0.60733 0.46206 0.71557 0.0
H505 H 0.84627 0.93067 0.17879 0.0
H506 H 0.8365 0.98091 0.10491 0.0
H507 H 0.87204 0.02861 0.12477 0.0
H508 H 0.81583 0.99967 0.21888 0.0
H509 H 0.85711 0.98769 0.24434 0.0
H510 H 0.82921 0.95811 0.2241 0.0
H511 H 0.91537 0.93729 0.21328 0.0
H512 H 0.94256 0.96783 0.23295 0.0
H513 H 0.95936 0.96433 0.1994 0.0
H514 H 0.9117 0.06995 0.15136 0.0
H515 H 0.95071 0.10389 0.18411 0.0
H516 H 0.93287 0.0288 0.24186 0.0
C517 C 0.85127 0.95181 0.16689 0.0
C518 C 0.8393 0.95178 0.14015 0.0
C519 C 0.84647 0.97997 0.12525 0.0
C520 C 0.8663 1.00734 0.13639 0.0
C521 C 0.87842 1.00644 0.16259 0.0
C522 C 0.87098 0.97958 0.17777 0.0
C523 C 0.88769 0.98525 0.20546 0.0
C524 C 0.84487 0.98253 0.22429 0.0
C525 C 0.92868 0.96231 0.21322 0.0
C526 C 0.90613 0.01931 0.20328 0.0
C527 C 0.90037 0.03094 0.17831 0.0
C528 C 0.91607 0.06127 0.17105 0.0
C529 C 0.93836 0.08033 0.1898 0.0
C530 C 0.94457 0.06913 0.21559 0.0
C531 C 0.92799 0.03821 0.2224 0.0
H532 H 0.88231 0.11165 0.68291 0.0
H533 H 0.80738 0.0647 0.61964 0.0
H534 H 0.81615 0.01311 0.64231 0.0
H535 H 0.96822 0.05664 0.69249 0.0
H536 H 0.97182 0.05617 0.72743 0.0
H537 H 0.95187 0.09137 0.71042 0.0
H538 H 0.87105 0.09266 0.73463 0.0
H539 H 0.89061 0.05878 0.75366 0.0
H540 H 0.83364 0.05737 0.73635 0.0
H541 H 0.84338 0.9664 0.66782 0.0
H542 H 0.88477 0.92706 0.69599 0.0
H543 H 0.94008 1.00308 0.74417 0.0
C544 C 0.86621 0.09065 0.67433 0.0
C545 C 0.8441 0.09216 0.64951 0.0
C546 C 0.82468 0.06405 0.63855 0.0
C547 C 0.82922 0.03466 0.65136 0.0
C548 C 0.85272 0.03377 0.67533 0.0
C549 C 0.87028 0.06102 0.68698 0.0
C550 C 0.89779 0.05291 0.71178 0.0
C551 C 0.95056 0.06494 0.71046 0.0
C552 C 0.8717 0.06622 0.73552 0.0
C553 C 0.89493 0.01683 0.7115 0.0
C554 C 0.86812 1.0064 0.69045 0.0
C555 C 0.8635 0.97422 0.68469 0.0
C556 C 0.88726 0.95209 0.70068 0.0
C557 C 0.91487 0.96217 0.72229 0.0
C558 C 0.91805 0.99488 0.72809 0.0
H559 H 0.65544 0.46758 0.12884 0.0
H560 H 0.64343 0.38667 0.18176 0.0
H561 H 0.61503 0.42241 0.21587 0.0
H562 H 0.69096 0.52697 0.17492 0.0
H563 H 0.65398 0.5576 0.16032 0.0
H564 H 0.6777 0.52621 0.14066 0.0
H565 H 0.59066 0.51216 0.12508 0.0
H566 H 0.56674 0.54356 0.14463 0.0
H567 H 0.54442 0.50343 0.14871 0.0
H568 H 0.58616 0.46707 0.24427 0.0
H569 H 0.55481 0.51628 0.26366 0.0
H570 H 0.57807 0.56676 0.19092 0.0
C571 C 0.64656 0.45705 0.14745 0.0
C572 C 0.65222 0.42397 0.15234 0.0
C573 C 0.6408 0.41184 0.17739 0.0
C574 C 0.62413 0.43198 0.19695 0.0
C575 C 0.61836 0.46422 0.19121 0.0
C576 C 0.62882 0.47662 0.16699 0.0
C577 C 0.61682 0.51176 0.1653 0.0
C578 C 0.6626 0.53181 0.15999 0.0
C579 C 0.57731 0.51809 0.14471 0.0
C580 C 0.59793 0.51722 0.19239 0.0
C581 C 0.59966 0.48959 0.20714 0.0
C582 C 0.58458 0.48881 0.23287 0.0
C583 C 0.56698 0.51693 0.24374 0.0
C584 C 0.56393 0.54536 0.2288 0.0
C585 C 0.57972 0.54538 0.20279 0.0
H586 H 0.401 0.4595 0.40013 0.0
H587 H 0.30336 0.40816 0.34815 0.0
H588 H 0.32429 0.44537 0.31335 0.0
H589 H 0.36111 0.53715 0.37665 0.0
H590 H 0.42008 0.55516 0.38099 0.0
H591 H 0.40134 0.52265 0.40176 0.0
H592 H 0.47822 0.49144 0.38911 0.0
H593 H 0.49692 0.5237 0.36809 0.0
H594 H 0.49014 0.48413 0.35538 0.0
H595 H 0.36263 0.48457 0.28277 0.0
H596 H 0.40105 0.52991 0.26084 0.0
H597 H 0.45624 0.56435 0.33418 0.0
C598 C 0.38273 0.45588 0.38183 0.0
C599 C 0.35106 0.42948 0.37747 0.0
C600 C 0.32945 0.42665 0.35245 0.0
C601 C 0.34063 0.44811 0.33234 0.0
C602 C 0.37207 0.47329 0.33749 0.0
C603 C 0.3916 0.47793 0.36179 0.0
C604 C 0.42146 0.50849 0.36255 0.0
C605 C 0.39968 0.53227 0.38162 0.0
C606 C 0.47485 0.50151 0.36918 0.0
C607 C 0.41592 0.52004 0.33471 0.0
C608 C 0.38835 0.49879 0.32053 0.0
C609 C 0.38228 0.50218 0.29391 0.0
C610 C 0.40365 0.52846 0.28158 0.0
C611 C 0.42863 0.55216 0.29579 0.0
C612 C 0.43553 0.54749 0.3228 0.0
H613 H 0.1068 0.09466 0.85481 0.0
H614 H 0.22574 0.04338 0.89081 0.0
H615 H 0.2036 0.99537 0.86592 0.0
H616 H 0.02349 0.03281 0.85822 0.0
H617 H 0.99375 0.04046 0.82759 0.0
H618 H 0.02284 0.07253 0.84467 0.0
H619 H 0.07578 0.08571 0.80463 0.0
H620 H 0.04632 0.05406 0.78709 0.0
H621 H 0.11144 0.05479 0.79027 0.0
H622 H 0.16424 0.95189 0.84068 0.0
H623 H 0.11139 0.9158 0.81553 0.0
H624 H 0.01606 0.99449 0.7966 0.0
C625 C 0.12906 0.0736 0.85666 0.0
C626 C 0.16852 0.07268 0.87424 0.0
C627 C 0.19589 0.04449 0.87707 0.0
C628 C 0.1835 0.01719 0.86308 0.0
C629 C 0.14348 0.01848 0.84647 0.0
C630 C 0.11681 0.04599 0.84301 0.0
C631 C 0.07312 0.04016 0.82561 0.0
C632 C 0.02549 0.04689 0.83988 0.0
C633 C 0.0769 0.05985 0.8004 0.0
C634 C 0.07873 1.00497 0.82042 0.0
C635 C 0.1199 0.99305 0.83239 0.0
C636 C 0.13222 0.96103 0.83099 0.0
C637 C 0.10201 0.94073 0.81671 0.0
C638 C 0.05999 0.95249 0.80407 0.0
C639 C 0.04799 0.98495 0.80616 0.0
H640 H 0.22632 0.1401 0.97821 0.0
H641 H 0.09963 0.08322 0.95872 0.0
H642 H 0.08454 0.0735 1.00534 0.0
H643 H 0.26611 0.09214 0.03208 0.0
H644 H 0.28608 0.12556 0.05107 0.0
H645 H 0.28662 0.12816 0.0162 0.0
H646 H 0.2332 0.17864 0.01771 0.0
H647 H 0.23252 0.17622 0.05259 0.0
H648 H 0.17622 0.17714 0.03464 0.0
H649 H 0.08322 0.07023 0.05412 0.0
H650 H 0.09682 0.07261 0.10145 0.0
H651 H 0.22381 0.13225 0.08887 0.0
C652 C 0.19521 0.12578 0.98377 0.0
C653 C 0.16415 0.11238 0.96487 0.0
C654 C 0.1242 0.09341 0.97289 0.0
C655 C 0.11518 0.08792 0.9993 0.0
C656 C 0.14653 0.10149 0.01742 0.0
C657 C 0.1858 0.11997 1.01 0.0
C658 C 0.21428 0.1315 0.0333 0.0
C659 C 0.26635 0.11856 0.03315 0.0
C660 C 0.21401 0.16804 0.03463 0.0
C661 C 0.18489 0.11663 0.055 0.0
C662 C 0.14589 0.0995 0.04545 0.0
C663 C 0.11359 0.08364 0.06183 0.0
C664 C 0.12147 0.08527 0.08868 0.0
C665 C 0.16138 0.1026 0.09889 0.0
C666 C 0.19332 0.11849 0.0817 0.0
H667 H 0.28657 0.38084 0.48738 0.0
H668 H 0.42923 0.41272 0.46322 0.0
H669 H 0.45192 0.42211 0.5091 0.0
H670 H 0.27191 0.4386 0.53677 0.0
H671 H 0.23979 0.41192 0.55831 0.0
H672 H 0.23649 0.40618 0.52383 0.0
H673 H 0.26677 0.34831 0.53012 0.0
H674 H 0.27071 0.354 0.56464 0.0
H675 H 0.3232 0.3412 0.54701 0.0
H676 H 0.45861 0.4278 0.55809 0.0
H677 H 0.44535 0.43539 0.60517 0.0
H678 H 0.2973 0.40181 0.59646 0.0
C679 C 0.32267 0.38962 0.49181 0.0
C680 C 0.35631 0.39592 0.47188 0.0
C681 C 0.40294 0.40788 0.47829 0.0
C682 C 0.41622 0.41302 0.50426 0.0
C683 C 0.38227 0.40632 0.52353 0.0
C684 C 0.33624 0.39526 0.51754 0.0
C685 C 0.30548 0.39167 0.54159 0.0
C686 C 0.26079 0.41339 0.54003 0.0
C687 C 0.29068 0.35672 0.5461 0.0
C688 C 0.34113 0.40276 0.56206 0.0
C689 C 0.38555 0.41058 0.55139 0.0
C690 C 0.42397 0.42173 0.56663 0.0
C691 C 0.41629 0.42579 0.59332 0.0
C692 C 0.37038 0.41919 0.60429 0.0
C693 C 0.33276 0.40703 0.58848 0.0
H694 H 0.64548 0.34974 0.04363 0.0
H695 H 0.6735 0.44857 0.06297 0.0
H696 H 0.66474 0.46356 0.01694 0.0
H697 H 0.71588 0.35031 0.98706 0.0
H698 H 0.67645 0.32406 0.96912 0.0
H699 H 0.67864 0.32152 1.00395 0.0
H700 H 0.58569 0.3298 1.00569 0.0
H701 H 0.58323 0.3325 0.97081 0.0
H702 H 0.55935 0.36424 0.99008 0.0
H703 H 0.66177 0.46739 0.96865 0.0
H704 H 0.6651 0.4595 0.92127 0.0
H705 H 0.64013 0.3584 0.93258 0.0
C706 C 0.64946 0.3746 0.03829 0.0
C707 C 0.65981 0.39796 0.05719 0.0
C708 C 0.66447 0.43022 0.04914 0.0
C709 C 0.65981 0.43901 0.02294 0.0
C710 C 0.65045 0.41533 1.00487 0.0
C711 C 0.64522 0.38378 0.01216 0.0
C712 C 0.63877 0.36273 0.98865 0.0
C713 C 0.67989 0.33822 0.98711 0.0
C714 C 0.58878 0.34635 0.98883 0.0
C715 C 0.64226 0.38731 0.96698 0.0
C716 C 0.64861 0.41754 0.97682 0.0
C717 C 0.6561 0.44392 0.96071 0.0
C718 C 0.658 0.43923 0.93388 0.0
C719 C 0.6523 0.40845 0.92338 0.0
C720 C 0.64345 0.38227 0.94014 0.0
H721 H 0.84354 0.10132 0.55708 0.0
H722 H 0.91912 0.19187 0.56454 0.0
H723 H 0.93717 0.1915 0.51788 0.0
H724 H 0.92934 0.06799 0.50992 0.0
H725 H 0.88189 0.04716 0.49277 0.0
H726 H 0.87642 0.05401 0.52705 0.0
H727 H 0.79379 0.08159 0.51898 0.0
H728 H 0.79917 0.07509 0.48471 0.0
H729 H 0.79039 0.11479 0.49662 0.0
H730 H 0.93977 0.18393 0.46977 0.0
H731 H 0.93182 0.16799 0.42426 0.0
H732 H 0.86394 0.07912 0.449 0.0
C733 C 0.86491 0.12076 0.54916 0.0
C734 C 0.87932 0.14681 0.56465 0.0
C735 C 0.90648 0.17198 0.55313 0.0
C736 C 0.91741 0.17186 0.52664 0.0
C737 C 0.90189 0.14611 0.51195 0.0
C738 C 0.87696 0.12076 0.52286 0.0
C739 C 0.86385 0.0962 0.50268 0.0
C740 C 0.88941 0.06446 0.50845 0.0
C741 C 0.80852 0.09168 0.50063 0.0
C742 C 0.88409 0.11219 0.4786 0.0
C743 C 0.90582 0.14095 0.48435 0.0
C744 C 0.92394 0.16107 0.46507 0.0
C745 C 0.91955 0.1516 0.43918 0.0
C746 C 0.89772 0.12201 0.43271 0.0
C747 C 0.88049 0.10198 0.45295 0.0
H748 H 0.82204 0.94015 0.05211 0.0
H749 H 0.82551 0.83729 0.05944 0.0
H750 H 0.84864 0.83365 0.01314 0.0
H751 H 0.77329 0.94369 0.9868 0.0
H752 H 0.80928 0.97802 0.97793 0.0
H753 H 0.79121 0.97199 0.01112 0.0
H754 H 0.88118 0.97506 0.0258 0.0
H755 H 0.89956 0.98101 0.99267 0.0
H756 H 0.92475 0.94873 0.01159 0.0
H757 H 0.87647 0.84214 0.96636 0.0
H758 H 0.90329 0.86135 0.92338 0.0
H759 H 0.87855 0.95875 0.94705 0.0
C760 C 0.82776 0.9168 0.04404 0.0
C761 C 0.82247 0.88896 0.05947 0.0
C762 C 0.82929 0.85889 0.04797 0.0
C763 C 0.84258 0.85664 0.02174 0.0
C764 C 0.84836 0.88469 1.00724 0.0
C765 C 0.84075 0.91417 0.01802 0.0
C766 C 0.84975 0.94079 0.99859 0.0
C767 C 0.8031 0.95973 0.9933 0.0
C768 C 0.89128 0.96268 1.00771 0.0
C769 C 0.86431 0.9218 0.97517 0.0
C770 C 0.86329 0.88949 0.98047 0.0
C771 C 0.87678 0.86738 0.96196 0.0
C772 C 0.8917 0.87858 0.93747 0.0
C773 C 0.89291 0.91166 0.93155 0.0
C774 C 0.87865 0.93336 0.95081 0.0
H775 H 0.70783 0.56979 0.54592 0.0
H776 H 0.69472 0.67193 0.55364 0.0
H777 H 0.67556 0.67667 0.50664 0.0
H778 H 0.76647 0.57187 0.484 0.0
H779 H 0.73634 0.53644 0.47261 0.0
H780 H 0.74735 0.54152 0.50676 0.0
H781 H 0.65565 0.53347 0.51568 0.0
H782 H 0.6443 0.52859 0.48152 0.0
H783 H 0.61214 0.5585 0.49921 0.0
H784 H 0.65518 0.66933 0.45847 0.0
H785 H 0.64435 0.65151 0.41308 0.0
H786 H 0.67509 0.55459 0.43725 0.0
C787 C 0.70076 0.59315 0.53771 0.0
C788 C 0.70234 0.62051 0.55337 0.0
C789 C 0.69372 0.65072 0.5419 0.0
C790 C 0.68256 0.65357 0.5153 0.0
C791 C 0.68078 0.626 0.50042 0.0
C792 C 0.69031 0.59643 0.51123 0.0
C793 C 0.68808 0.57058 0.49102 0.0
C794 C 0.7375 0.55415 0.48845 0.0
C795 C 0.64763 0.54636 0.49724 0.0
C796 C 0.6759 0.59012 0.46706 0.0
C797 C 0.67111 0.62199 0.47286 0.0
C798 C 0.65914 0.64446 0.45376 0.0
C799 C 0.65282 0.63414 0.42808 0.0
C800 C 0.65918 0.60175 0.42168 0.0
C801 C 0.67045 0.57955 0.44156 0.0
H802 H 0.31121 0.60816 0.96508 0.0
H803 H 0.37152 0.70274 0.95273 0.0
H804 H 0.38771 0.70694 0.99974 0.0
H805 H 0.2566 0.62172 0.02754 0.0
H806 H 0.27247 0.58281 0.03983 0.0
H807 H 0.26198 0.5888 1.00564 0.0
H808 H 0.34701 0.5658 0.99613 0.0
H809 H 0.35802 0.56018 0.03031 0.0
H810 H 0.39982 0.58346 0.01108 0.0
H811 H 0.40075 0.69943 0.04849 0.0
H812 H 0.40379 0.68232 0.09453 0.0
H813 H 0.34148 0.59104 0.0734 0.0
C814 C 0.32763 0.62988 0.97217 0.0
C815 C 0.34002 0.65513 0.95504 0.0
C816 C 0.36085 0.68325 0.96539 0.0
C817 C 0.37074 0.68572 0.99207 0.0
C818 C 0.3598 0.65982 1.00818 0.0
C819 C 0.33839 0.63254 0.99858 0.0
C820 C 0.33153 0.60763 0.01966 0.0
C821 C 0.27743 0.59979 0.02338 0.0
C822 C 0.36085 0.5775 0.01394 0.0
C823 C 0.35226 0.62516 0.04269 0.0
C824 C 0.36842 0.65523 0.03579 0.0
C825 C 0.38826 0.67589 0.05407 0.0
C826 C 0.39032 0.66583 0.08015 0.0
C827 C 0.37276 0.63535 0.0877 0.0
C828 C 0.35464 0.61465 0.06844 0.0
H829 H 0.24118 0.88559 0.48734 0.0
H830 H 0.09381 0.90231 0.46072 0.0
H831 H 0.06601 0.90198 0.50622 0.0
H832 H 0.21089 0.82919 0.53407 0.0
H833 H 0.25699 0.84098 0.55703 0.0
H834 H 0.26612 0.84786 0.52294 0.0
H835 H 0.28038 0.90791 0.53135 0.0
H836 H 0.27136 0.90121 0.56555 0.0
H837 H 0.23517 0.93023 0.54836 0.0
H838 H 0.05331 0.89379 0.55479 0.0
H839 H 0.05673 0.8772 0.60099 0.0
H840 H 0.21206 0.86398 0.59487 0.0
C841 C 0.20307 0.8895 0.49099 0.0
C842 C 0.16971 0.89393 0.47033 0.0
C843 C 0.12026 0.89931 0.47614 0.0
C844 C 0.10409 0.89904 0.50196 0.0
C845 C 0.13784 0.89351 0.52178 0.0
C846 C 0.18636 0.88896 0.5165 0.0
C847 C 0.21479 0.88063 0.54081 0.0
C848 C 0.23857 0.84772 0.53857 0.0
C849 C 0.25266 0.90655 0.54687 0.0
C850 C 0.17452 0.88023 0.56057 0.0
C851 C 0.13048 0.88823 0.5494 0.0
C852 C 0.08774 0.88788 0.56376 0.0
C853 C 0.09003 0.87854 0.59001 0.0
C854 C 0.13464 0.86927 0.60152 0.0
C855 C 0.17739 0.87081 0.58661 0.0
H856 H 0.2732 0.2542 0.36531 0.0
H857 H 0.18192 0.33754 0.36788 0.0
H858 H 0.11966 0.3098 0.34126 0.0
H859 H 0.24218 0.22917 0.29895 0.0
H860 H 0.24392 0.18763 0.30831 0.0
H861 H 0.28145 0.21608 0.32496 0.0
H862 H 0.24337 0.19619 0.36818 0.0
H863 H 0.20466 0.16894 0.35091 0.0
H864 H 0.1785 0.19787 0.37214 0.0
H865 H 0.06469 0.27083 0.31776 0.0
H866 H 0.02345 0.22542 0.29674 0.0
H867 H 0.15206 0.16792 0.30847 0.0
C868 C 0.24058 0.2668 0.35964 0.0
C869 C 0.23236 0.29808 0.36806 0.0
C870 C 0.18892 0.31371 0.36109 0.0
C871 C 0.15341 0.29808 0.34612 0.0
C872 C 0.16216 0.26689 0.33838 0.0
C873 C 0.2049 0.25153 0.34474 0.0
C874 C 0.20455 0.21757 0.33516 0.0
C875 C 0.24545 0.21235 0.31564 0.0
C876 C 0.20796 0.19375 0.35796 0.0
C877 C 0.15507 0.21616 0.32225 0.0
C878 C 0.13095 0.24474 0.32455 0.0
C879 C 0.08351 0.24851 0.31556 0.0
C880 C 0.06025 0.22251 0.30381 0.0
C881 C 0.08457 0.19318 0.3009 0.0
C882 C 0.13271 0.19015 0.31017 0.0
H883 H 0.25619 0.25811 0.87414 0.0
H884 H 0.30212 0.16777 0.84342 0.0
H885 H 0.36689 0.19551 0.81829 0.0
H886 H 0.27154 0.3044 0.81821 0.0
H887 H 0.29564 0.33928 0.83405 0.0
H888 H 0.25498 0.31282 0.85103 0.0
H889 H 0.31646 0.30419 0.88788 0.0
H890 H 0.35744 0.33167 0.87213 0.0
H891 H 0.37741 0.29209 0.88054 0.0
H892 H 0.42853 0.23379 0.798 0.0
H893 H 0.47774 0.27928 0.78172 0.0
H894 H 0.38715 0.34443 0.82394 0.0
C895 C 0.27987 0.24427 0.862 0.0
C896 C 0.27447 0.21105 0.86036 0.0
C897 C 0.30593 0.19339 0.84461 0.0
C898 C 0.34274 0.20893 0.83043 0.0
C899 C 0.34727 0.24196 0.83244 0.0
C900 C 0.31659 0.25936 0.84786 0.0
C901 C 0.32867 0.2945 0.84677 0.0
C902 C 0.28517 0.31392 0.83687 0.0
C903 C 0.34603 0.30629 0.87341 0.0
C904 C 0.36989 0.29447 0.82756 0.0
C905 C 0.38103 0.26388 0.82004 0.0
C906 C 0.41988 0.25782 0.80364 0.0
C907 C 0.44782 0.28369 0.79465 0.0
C908 C 0.43607 0.31514 0.80165 0.0
C909 C 0.39657 0.32053 0.81823 0.0
H910 H 0.75406 0.27754 0.64972 0.0
H911 H 0.7246 0.18475 0.68366 0.0
H912 H 0.65258 0.20658 0.70581 0.0
H913 H 0.72627 0.32168 0.70388 0.0
H914 H 0.69714 0.35461 0.68751 0.0
H915 H 0.74286 0.33207 0.6712 0.0
H916 H 0.68512 0.31879 0.63353 0.0
H917 H 0.63888 0.34248 0.6484 0.0
H918 H 0.62634 0.30165 0.64017 0.0
H919 H 0.58866 0.23922 0.72662 0.0
H920 H 0.53756 0.28062 0.74588 0.0
H921 H 0.60699 0.35257 0.69789 0.0
C922 C 0.73188 0.26185 0.66158 0.0
C923 C 0.74414 0.22957 0.66511 0.0
C924 C 0.71521 0.20955 0.68084 0.0
C925 C 0.67433 0.22173 0.69333 0.0
C926 C 0.66312 0.25383 0.68961 0.0
C927 C 0.69094 0.27363 0.67407 0.0
C928 C 0.67267 0.3076 0.67452 0.0
C929 C 0.71202 0.33035 0.68491 0.0
C930 C 0.65468 0.31825 0.64754 0.0
C931 C 0.63087 0.30402 0.69326 0.0
C932 C 0.6258 0.27271 0.7015 0.0
C933 C 0.59177 0.26367 0.72 0.0
C934 C 0.56289 0.28729 0.73079 0.0
C935 C 0.56788 0.31949 0.72291 0.0
C936 C 0.60158 0.32792 0.70356 0.0
H937 H 0.75138 0.27499 0.18225 0.0
H938 H 0.85618 0.32935 0.13764 0.0
H939 H 0.92318 0.30148 0.1604 0.0
H940 H 0.82516 0.2714 0.24358 0.0
H941 H 0.80565 0.23141 0.25111 0.0
H942 H 0.7657 0.25799 0.23368 0.0
H943 H 0.75724 0.21731 0.19663 0.0
H944 H 0.79678 0.19041 0.21386 0.0
H945 H 0.81104 0.20267 0.18117 0.0
H946 H 0.97744 0.26228 0.1828 0.0
H947 H 0.01634 0.21842 0.20658 0.0
H948 H 0.87718 0.19034 0.23814 0.0
C949 C 0.78853 0.28168 0.17802 0.0
C950 C 0.79908 0.30464 0.15867 0.0
C951 C 0.84777 0.31223 0.15285 0.0
C952 C 0.88593 0.29644 0.16558 0.0
C953 C 0.87457 0.2733 0.18419 0.0
C954 C 0.8271 0.26624 0.19074 0.0
C955 C 0.82495 0.23917 0.21043 0.0
C956 C 0.80412 0.25068 0.23623 0.0
C957 C 0.79579 0.21072 0.19988 0.0
C958 C 0.8784 0.23136 0.21315 0.0
C959 C 0.90633 0.25141 0.19793 0.0
C960 C 0.95611 0.24714 0.1955 0.0
C961 C 0.978 0.22203 0.20926 0.0
C962 C 0.9505 0.20161 0.22569 0.0
C963 C 0.89989 0.2064 0.22728 0.0
H964 H 0.83896 0.68632 0.68731 0.0
H965 H 0.7995 0.7304 0.61397 0.0
H966 H 0.82521 0.78308 0.63085 0.0
H967 H 0.80299 0.75239 0.72982 0.0
H968 H 0.85372 0.74441 0.75122 0.0
H969 H 0.82674 0.71264 0.73299 0.0
H970 H 0.91326 0.70099 0.71529 0.0
H971 H 0.93811 0.73446 0.73246 0.0
H972 H 0.94536 0.73191 0.69785 0.0
H973 H 0.8616 0.8298 0.65471 0.0
H974 H 0.90314 0.86756 0.68388 0.0
H975 H 0.91727 0.79314 0.74229 0.0
C976 C 0.83498 0.70725 0.67504 0.0
C977 C 0.81685 0.70472 0.64953 0.0
C978 C 0.81287 0.7322 0.6337 0.0
C979 C 0.82742 0.76209 0.64313 0.0
C980 C 0.84571 0.76386 0.66841 0.0
C981 C 0.84931 0.73717 0.68418 0.0
C982 C 0.87222 0.74516 0.71012 0.0
C983 C 0.83674 0.73829 0.73235 0.0
C984 C 0.92007 0.72705 0.71415 0.0
C985 C 0.8812 0.78056 0.70655 0.0
C986 C 0.86582 0.79084 0.6823 0.0
C987 C 0.87314 0.8221 0.67385 0.0
C988 C 0.89694 0.84334 0.69052 0.0
C989 C 0.9129 0.83339 0.71546 0.0
C990 C 0.90445 0.80162 0.7236 0.0
H991 H 0.62539 0.82211 0.16629 0.0
H992 H 0.77213 0.78728 0.15932 0.0
H993 H 0.74859 0.73769 0.18301 0.0
H994 H 0.60256 0.79056 0.23079 0.0
H995 H 0.54007 0.78097 0.22379 0.0
H996 H 0.56931 0.81356 0.207 0.0
H997 H 0.54683 0.78812 0.16289 0.0
H998 H 0.51765 0.75547 0.17959 0.0
H999 H 0.56494 0.7478 0.15656 0.0
H1000 H 0.70705 0.69119 0.2068 0.0
H1001 H 0.65201 0.65226 0.22798 0.0
H1002 H 0.5331 0.71875 0.21967 0.0
C1003 C 0.65251 0.80401 0.16987 0.0
C1004 C 0.70046 0.8082 0.16114 0.0
C1005 C 0.73519 0.78426 0.16598 0.0
C1006 C 0.7221 0.75614 0.1794 0.0
C1007 C 0.67422 0.75259 0.18778 0.0
C1008 C 0.64004 0.77597 0.18319 0.0
C1009 C 0.59091 0.76637 0.19377 0.0
C1010 C 0.57478 0.78922 0.2151 0.0
C1011 C 0.55285 0.76431 0.1719 0.0
C1012 C 0.60245 0.73379 0.20487 0.0
C1013 C 0.65069 0.72622 0.20137 0.0
C1014 C 0.66935 0.69706 0.20977 0.0
C1015 C 0.63789 0.67516 0.22196 0.0
C1016 C 0.58841 0.68257 0.22582 0.0
C1017 C 0.57072 0.71231 0.21706 0.0
H1018 H 0.31491 0.76502 0.38895 0.0
H1019 H 0.30355 0.84403 0.33471 0.0
H1020 H 0.34512 0.81205 0.30125 0.0
H1021 H 0.433 0.74045 0.37056 0.0
H1022 H 0.42057 0.69857 0.37475 0.0
H1023 H 0.38825 0.72717 0.39367 0.0
H1024 H 0.30629 0.70425 0.37709 0.0
H1025 H 0.33847 0.67544 0.35828 0.0
H1026 H 0.29536 0.70156 0.34268 0.0
H1027 H 0.39152 0.77165 0.2747 0.0
H1028 H 0.4358 0.72608 0.2566 0.0
H1029 H 0.41507 0.67344 0.32855 0.0
C1030 C 0.32071 0.77535 0.36987 0.0
C1031 C 0.30595 0.80667 0.36407 0.0
C1032 C 0.31445 0.81986 0.33922 0.0
C1033 C 0.33806 0.80191 0.32023 0.0
C1034 C 0.35276 0.771 0.32662 0.0
C1035 C 0.34414 0.75782 0.35083 0.0
C1036 C 0.36437 0.72447 0.35313 0.0
C1037 C 0.40389 0.72257 0.37428 0.0
C1038 C 0.32369 0.69999 0.35808 0.0
C1039 C 0.38577 0.7208 0.32642 0.0
C1040 C 0.37892 0.74789 0.31142 0.0
C1041 C 0.39669 0.75026 0.28624 0.0
C1042 C 0.42178 0.72424 0.27613 0.0
C1043 C 0.42866 0.6961 0.2911 0.0
C1044 C 0.41039 0.69456 0.31659 0.0
H1045 H 0.25544 0.73564 0.81461 0.0
H1046 H 0.20463 0.7281 0.89371 0.0
H1047 H 0.13024 0.75792 0.88137 0.0
H1048 H 0.21548 0.8146 0.80274 0.0
H1049 H 0.19848 0.80787 0.76946 0.0
H1050 H 0.24574 0.78446 0.78433 0.0
H1051 H 0.19917 0.73273 0.77245 0.0
H1052 H 0.15175 0.75609 0.75758 0.0
H1053 H 0.13723 0.72758 0.78276 0.0
H1054 H 0.06433 0.79118 0.86066 0.0
H1055 H 0.01243 0.82608 0.83389 0.0
H1056 H 0.10562 0.81042 0.7677 0.0
C1057 C 0.22828 0.74009 0.8292 0.0
C1058 C 0.23506 0.72973 0.85501 0.0
C1059 C 0.1995 0.73595 0.87381 0.0
C1060 C 0.1573 0.75273 0.86694 0.0
C1061 C 0.15157 0.76284 0.84122 0.0
C1062 C 0.18609 0.75671 0.82263 0.0
C1063 C 0.17226 0.77125 0.79663 0.0
C1064 C 0.21025 0.79601 0.78779 0.0
C1065 C 0.16465 0.74536 0.77615 0.0
C1066 C 0.12486 0.78691 0.80351 0.0
C1067 C 0.11348 0.78171 0.82928 0.0
C1068 C 0.07272 0.79519 0.84041 0.0
C1069 C 0.04344 0.81504 0.82498 0.0
C1070 C 0.05501 0.82132 0.79864 0.0
C1071 C 0.09566 0.80628 0.78772 0.0
loop_
_geom_bond_atom_site_label_1
_geom_bond_atom_site_label_2
_geom_bond_distance
_geom_bond_site_symmetry_2
_ccdc_geom_bond_type
H0 C3 0.929 . S
H1 C6 0.929 . S
H2 C8 0.930 . S
C3 H0 0.929 . S
C3 C4 1.398 . S
C3 C5 1.396 . S
C4 C3 1.398 . S
C4 C8 1.407 . S
C5 C3 1.396 . S
C5 C6 1.394 . S
C6 H1 0.929 . S
C6 C5 1.394 . S
C6 C7 1.382 . S
C7 C6 1.382 . S
C7 C8 1.392 . S
C7 N9 1.420 . S
C8 H2 0.930 . S
C8 C4 1.407 . S
C8 C7 1.392 . S
N9 C7 1.420 . S
N9 C10 1.244 . S
C10 N9 1.244 . S
H11 C14 0.929 . S
H12 C17 0.929 . S
H13 C19 0.930 . S
C14 H11 0.929 . S
C14 C15 1.398 . S
C14 C16 1.396 . S
C15 C14 1.398 . S
C15 C19 1.407 . S
C16 C14 1.396 . S
C16 C17 1.394 . S
C17 H12 0.929 . S
C17 C16 1.394 . S
C17 C18 1.382 . S
C18 C17 1.382 . S
C18 C19 1.392 . S
C18 N20 1.420 . S
C19 H13 0.930 . S
C19 C15 1.407 . S
C19 C18 1.392 . S
N20 C18 1.420 . S
N20 C21 1.244 . S
C21 N20 1.244 . S
H22 C25 0.929 . S
H23 C28 0.929 . S
H24 C30 0.930 . S
C25 H22 0.929 . S
C25 C26 1.398 . S
C25 C27 1.396 . S
C26 C25 1.398 . S
C26 C30 1.407 . S
C27 C25 1.396 . S
C27 C28 1.394 . S
C28 H23 0.929 . S
C28 C27 1.394 . S
C28 C29 1.382 . S
C29 C28 1.382 . S
C29 C30 1.392 . S
C29 N31 1.420 . S
C30 H24 0.930 . S
C30 C26 1.407 . S
C30 C29 1.392 . S
N31 C29 1.420 . S
N31 C32 1.244 . S
C32 N31 1.244 . S
H33 C36 0.929 . S
H34 C39 0.929 . S
H35 C41 0.930 . S
C36 H33 0.929 . S
C36 C37 1.398 . S
C36 C38 1.396 . S
C37 C36 1.398 . S
C37 C41 1.407 . S
C38 C36 1.396 . S
C38 C39 1.394 . S
C39 H34 0.929 . S
C39 C38 1.394 . S
C39 C40 1.382 . S
C40 C39 1.382 . S
C40 C41 1.392 . S
C40 N42 1.420 . S
C41 H35 0.930 . S
C41 C37 1.407 . S
C41 C40 1.392 . S
N42 C40 1.420 . S
N42 C43 1.244 . S
C43 N42 1.244 . S
H44 C47 0.929 . S
H45 C50 0.929 . S
H46 C52 0.930 . S
C47 H44 0.929 . S
C47 C48 1.398 . S
C47 C49 1.396 . S
C48 C47 1.398 . S
C48 C52 1.407 . S
C49 C47 1.396 . S
C49 C50 1.394 . S
C50 H45 0.929 . S
C50 C49 1.394 . S
C50 C51 1.382 . S
C51 C50 1.382 . S
C51 C52 1.392 . S
C51 N53 1.420 . S
C52 H46 0.930 . S
C52 C48 1.407 . S
C52 C51 1.392 . S
N53 C51 1.420 . S
N53 C54 1.244 . S
C54 N53 1.244 . S
H55 C58 0.929 . S
H56 C61 0.929 . S
H57 C63 0.930 . S
C58 H55 0.929 . S
C58 C59 1.398 . S
C58 C60 1.396 . S
C59 C58 1.398 . S
C59 C63 1.407 . S
C60 C58 1.396 . S
C60 C61 1.394 . S
C61 H56 0.929 . S
C61 C60 1.394 . S
C61 C62 1.382 . S
C62 C61 1.382 . S
C62 C63 1.392 . S
C62 N64 1.420 . S
C63 H57 0.930 . S
C63 C59 1.407 . S
C63 C62 1.392 . S
N64 C62 1.420 . S
N64 C65 1.244 . S
C65 N64 1.244 . S
H66 C69 0.929 . S
H67 C72 0.929 . S
H68 C74 0.930 . S
C69 H66 0.929 . S
C69 C70 1.398 . S
C69 C71 1.396 . S
C70 C69 1.398 . S
C70 C74 1.407 . S
C71 C69 1.396 . S
C71 C72 1.394 . S
C72 H67 0.929 . S
C72 C71 1.394 . S
C72 C73 1.382 . S
C73 C72 1.382 . S
C73 C74 1.392 . S
C73 N75 1.420 . S
C74 H68 0.930 . S
C74 C70 1.407 . S
C74 C73 1.392 . S
N75 C73 1.420 . S
N75 C76 1.244 . S
C76 N75 1.244 . S
H77 C80 0.929 . S
H78 C83 0.929 . S
H79 C85 0.930 . S
C80 H77 0.929 . S
C80 C81 1.398 . S
C80 C82 1.396 . S
C81 C80 1.398 . S
C81 C85 1.407 . S
C82 C80 1.396 . S
C82 C83 1.394 . S
C83 H78 0.929 . S
C83 C82 1.394 . S
C83 C84 1.382 . S
C84 C83 1.382 . S
C84 C85 1.392 . S
C84 N86 1.420 . S
C85 H79 0.930 . S
C85 C81 1.407 . S
C85 C84 1.392 . S
N86 C84 1.420 . S
N86 C87 1.244 . S
C87 N86 1.244 . S
C88 C90 1.422 . S
C88 C92 1.415 . S
C88 N94 1.369 . S
C89 C90 1.421 . S
C89 C91 1.417 . S
C89 C101 1.422 1_545 S
C90 C88 1.422 . S
C90 C89 1.421 . S
C90 N100 1.359 . S
C91 C89 1.417 . S
C91 C93 1.329 . S
C91 H110 0.930 . S
C92 C88 1.415 . S
C92 C93 1.437 . S
C92 C96 1.413 . S
C93 C91 1.329 . S
C93 C92 1.437 . S
C93 H115 0.929 . S
N94 C88 1.369 . S
N94 C95 1.338 . S
N94 Gd99 2.622 . S
C95 N94 1.338 . S
C95 C97 1.378 . S
C95 H107 0.929 . S
C96 C92 1.413 . S
C96 C97 1.348 . S
C96 H112 0.931 . S
C97 C95 1.378 . S
C97 C96 1.348 . S
C97 H113 0.930 . S
Gd98 N118 2.622 . S
Gd98 N125 2.570 . S
Gd98 O132 2.353 . S
Gd98 O133 2.468 . S
Gd98 O134 2.427 . S
Gd98 O136 2.388 . S
Gd98 O137 2.386 . S
Gd98 O141 2.307 . S
Gd98 C151 2.805 . S
Gd99 N94 2.622 . S
Gd99 N100 2.570 . S
Gd99 O131 2.386 . S
Gd99 O135 2.307 1_655 S
Gd99 O138 2.353 1_655 S
Gd99 O139 2.468 . S
Gd99 O140 2.427 . S
Gd99 O142 2.388 . S
Gd99 C163 2.805 . S
N100 C90 1.359 . S
N100 Gd99 2.570 . S
N100 C102 1.343 . S
C101 C89 1.422 1_565 S
C101 C103 1.324 . S
C101 H109 0.931 . S
C102 N100 1.343 . S
C102 C103 1.361 1_545 S
C102 H104 0.931 . S
C103 C101 1.324 . S
C103 C102 1.361 1_565 S
C103 H105 0.957 . S
H104 C102 0.931 . S
H105 C103 0.957 . S
H106 C129 0.931 . S
H107 C95 0.929 . S
H108 C130 0.930 . S
H109 C101 0.931 . S
H110 C91 0.930 . S
H111 C120 0.929 . S
H112 C96 0.931 . S
H113 C97 0.930 . S
H114 C152 0.930 . S
H115 C93 0.929 . S
H116 C121 0.931 . S
H117 C122 0.930 . S
N118 Gd98 2.622 . S
N118 C119 1.369 . S
N118 C120 1.338 . S
C119 N118 1.369 . S
C119 C123 1.415 . S
C119 C126 1.422 . S
C120 H111 0.929 . S
C120 N118 1.338 . S
C120 C122 1.378 . S
C121 H116 0.931 . S
C121 C122 1.348 . S
C121 C123 1.413 . S
C122 H117 0.930 . S
C122 C120 1.378 . S
C122 C121 1.348 . S
C123 C119 1.415 . S
C123 C121 1.413 . S
C123 C153 1.437 . S
H124 C153 0.929 . S
N125 Gd98 2.570 . S
N125 C126 1.359 . S
N125 C129 1.343 . S
C126 C119 1.422 . S
C126 N125 1.359 . S
C126 C128 1.421 . S
C127 C128 1.422 . S
C127 C130 1.321 . S
C127 H154 0.931 . S
C128 C126 1.421 . S
C128 C127 1.422 . S
C128 C152 1.417 . S
C129 H106 0.931 . S
C129 N125 1.343 . S
C129 C130 1.390 . S
C130 H108 0.930 . S
C130 C127 1.321 . S
C130 C129 1.390 . S
O131 Gd99 2.386 . S
O131 C143 1.265 . S
O132 Gd98 2.353 . S
O132 C143 1.242 1_455 S
O133 Gd98 2.468 . S
O133 C151 1.263 . S
O134 Gd98 2.427 . S
O134 C151 1.252 . S
O135 Gd99 2.307 1_455 S
O135 C144 1.261 . S
O136 Gd98 2.388 . S
O136 C144 1.252 . S
O137 Gd98 2.386 . S
O137 C155 1.265 . S
O138 Gd99 2.353 1_455 S
O138 C155 1.242 . S
O139 Gd99 2.468 . S
O139 C163 1.263 . S
O140 Gd99 2.427 . S
O140 C163 1.252 . S
O141 Gd98 2.307 . S
O141 C156 1.261 1_455 S
O142 Gd99 2.388 . S
O142 C156 1.252 . S
C143 O131 1.265 . S
C143 O132 1.242 1_655 S
C144 O135 1.261 . S
C144 O136 1.252 . S
C145 C148 1.394 . S
C145 C150 1.370 . S
C145 C151 1.500 . S
C146 C149 1.383 . S
C146 C150 1.395 . S
C147 C148 1.396 . S
C147 C149 1.365 . S
C147 H164 0.929 . S
C148 C145 1.394 . S
C148 C147 1.396 . S
C148 H165 0.930 . S
C149 C146 1.383 . S
C149 C147 1.365 . S
C149 H166 0.931 . S
C150 C145 1.370 . S
C150 C146 1.395 . S
C150 H167 0.930 . S
C151 Gd98 2.805 . S
C151 O133 1.263 . S
C151 O134 1.252 . S
C151 C145 1.500 . S
C152 H114 0.930 . S
C152 C128 1.417 . S
C152 C153 1.329 . S
C153 C123 1.437 . S
C153 H124 0.929 . S
C153 C152 1.329 . S
H154 C127 0.931 . S
C155 O137 1.265 . S
C155 O138 1.242 . S
C156 O141 1.261 1_655 S
C156 O142 1.252 . S
C157 C160 1.394 . S
C157 C162 1.370 . S
C157 C163 1.500 . S
C158 C161 1.383 . S
C158 C162 1.395 . S
C159 C160 1.396 . S
C159 C161 1.365 . S
C159 H168 0.929 . S
C160 C157 1.394 . S
C160 C159 1.396 . S
C160 H169 0.930 . S
C161 C158 1.383 . S
C161 C159 1.365 . S
C161 H170 0.931 . S
C162 C157 1.370 . S
C162 C158 1.395 . S
C162 H171 0.930 . S
C163 Gd99 2.805 . S
C163 O139 1.263 . S
C163 O140 1.252 . S
C163 C157 1.500 . S
H164 C147 0.929 . S
H165 C148 0.930 . S
H166 C149 0.931 . S
H167 C150 0.930 . S
H168 C159 0.929 . S
H169 C160 0.930 . S
H170 C161 0.931 . S
H171 C162 0.930 . S
C172 C174 1.422 . S
C172 C176 1.415 . S
C172 N178 1.369 . S
C173 C174 1.421 . S
C173 C175 1.417 . S
C173 C185 1.422 . S
C174 C172 1.422 . S
C174 C173 1.421 . S
C174 N184 1.359 . S
C175 C173 1.417 . S
C175 C177 1.329 . S
C175 H194 0.930 . S
C176 C172 1.415 . S
C176 C177 1.437 . S
C176 C180 1.413 . S
C177 C175 1.329 . S
C177 C176 1.437 . S
C177 H199 0.929 . S
N178 C172 1.369 . S
N178 C179 1.338 . S
N178 Gd183 2.622 . S
C179 N178 1.338 . S
C179 C181 1.378 . S
C179 H191 0.929 . S
C180 C176 1.413 . S
C180 C181 1.348 . S
C180 H196 0.931 . S
C181 C179 1.378 . S
C181 C180 1.348 . S
C181 H197 0.930 . S
Gd182 N202 2.622 . S
Gd182 N209 2.570 . S
Gd182 O216 2.353 . S
Gd182 O217 2.468 . S
Gd182 O218 2.427 . S
Gd182 O220 2.388 . S
Gd182 O221 2.386 . S
Gd182 O225 2.307 . S
Gd182 C235 2.805 . S
Gd183 N178 2.622 . S
Gd183 N184 2.570 . S
Gd183 O215 2.386 . S
Gd183 O219 2.307 . S
Gd183 O222 2.353 . S
Gd183 O223 2.468 . S
Gd183 O224 2.427 . S
Gd183 O226 2.388 . S
Gd183 C247 2.805 . S
N184 C174 1.359 . S
N184 Gd183 2.570 . S
N184 C186 1.343 . S
C185 C173 1.422 . S
C185 C187 1.321 . S
C185 H193 0.931 . S
C186 N184 1.343 . S
C186 C187 1.390 . S
C186 H188 0.931 . S
C187 C185 1.321 . S
C187 C186 1.390 . S
C187 H189 0.930 . S
H188 C186 0.931 . S
H189 C187 0.930 . S
H190 C213 0.931 . S
H191 C179 0.929 . S
H192 C214 0.930 . S
H193 C185 0.931 . S
H194 C175 0.930 . S
H195 C204 0.929 . S
H196 C180 0.931 . S
H197 C181 0.930 . S
H198 C236 0.930 . S
H199 C177 0.929 . S
H200 C205 0.931 . S
H201 C206 0.930 . S
N202 Gd182 2.622 . S
N202 C203 1.369 . S
N202 C204 1.338 . S
C203 N202 1.369 . S
C203 C207 1.415 . S
C203 C210 1.422 . S
C204 H195 0.929 . S
C204 N202 1.338 . S
C204 C206 1.378 . S
C205 H200 0.931 . S
C205 C206 1.348 . S
C205 C207 1.413 . S
C206 H201 0.930 . S
C206 C204 1.378 . S
C206 C205 1.348 . S
C207 C203 1.415 . S
C207 C205 1.413 . S
C207 C237 1.437 . S
H208 C237 0.929 . S
N209 Gd182 2.570 . S
N209 C210 1.359 . S
N209 C213 1.343 . S
C210 C203 1.422 . S
C210 N209 1.359 . S
C210 C212 1.421 . S
C211 C212 1.422 . S
C211 C214 1.321 . S
C211 H238 0.931 . S
C212 C210 1.421 . S
C212 C211 1.422 . S
C212 C236 1.417 . S
C213 H190 0.931 . S
C213 N209 1.343 . S
C213 C214 1.390 . S
C214 H192 0.930 . S
C214 C211 1.321 . S
C214 C213 1.390 . S
O215 Gd183 2.386 . S
O215 C227 1.265 . S
O216 Gd182 2.353 . S
O216 C227 1.242 . S
O217 Gd182 2.468 . S
O217 C235 1.263 . S
O218 Gd182 2.427 . S
O218 C235 1.252 . S
O219 Gd183 2.307 . S
O219 C228 1.261 . S
O220 Gd182 2.388 . S
O220 C228 1.252 . S
O221 Gd182 2.386 . S
O221 C239 1.265 . S
O222 Gd183 2.353 . S
O222 C239 1.242 . S
O223 Gd183 2.468 . S
O223 C247 1.263 . S
O224 Gd183 2.427 . S
O224 C247 1.252 . S
O225 Gd182 2.307 . S
O225 C240 1.261 . S
O226 Gd183 2.388 . S
O226 C240 1.252 . S
C227 O215 1.265 . S
C227 O216 1.242 . S
C228 O219 1.261 . S
C228 O220 1.252 . S
C229 C232 1.394 . S
C229 C234 1.370 . S
C229 C235 1.500 . S
C230 C233 1.383 . S
C230 C234 1.395 . S
C231 C232 1.396 . S
C231 C233 1.365 . S
C231 H248 0.929 . S
C232 C229 1.394 . S
C232 C231 1.396 . S
C232 H249 0.930 . S
C233 C230 1.383 . S
C233 C231 1.365 . S
C233 H250 0.931 . S
C234 C229 1.370 . S
C234 C230 1.395 . S
C234 H251 0.930 . S
C235 Gd182 2.805 . S
C235 O217 1.263 . S
C235 O218 1.252 . S
C235 C229 1.500 . S
C236 H198 0.930 . S
C236 C212 1.417 . S
C236 C237 1.329 . S
C237 C207 1.437 . S
C237 H208 0.929 . S
C237 C236 1.329 . S
H238 C211 0.931 . S
C239 O221 1.265 . S
C239 O222 1.242 . S
C240 O225 1.261 . S
C240 O226 1.252 . S
C241 C244 1.394 . S
C241 C246 1.370 . S
C241 C247 1.500 . S
C242 C245 1.383 . S
C242 C246 1.395 . S
C243 C244 1.396 . S
C243 C245 1.365 . S
C243 H252 0.929 . S
C244 C241 1.394 . S
C244 C243 1.396 . S
C244 H253 0.930 . S
C245 C242 1.383 . S
C245 C243 1.365 . S
C245 H254 0.931 . S
C246 C241 1.370 . S
C246 C242 1.395 . S
C246 H255 0.930 . S
C247 Gd183 2.805 . S
C247 O223 1.263 . S
C247 O224 1.252 . S
C247 C241 1.500 . S
H248 C231 0.929 . S
H249 C232 0.930 . S
H250 C233 0.931 . S
H251 C234 0.930 . S
H252 C243 0.929 . S
H253 C244 0.930 . S
H254 C245 0.931 . S
H255 C246 0.930 . S
C256 C258 1.422 . S
C256 C260 1.415 . S
C256 N262 1.369 . S
C257 C258 1.421 . S
C257 C259 1.417 . S
C257 C269 1.422 . S
C258 C256 1.422 . S
C258 C257 1.421 . S
C258 N268 1.359 . S
C259 C257 1.417 . S
C259 C261 1.329 . S
C259 H278 0.930 . S
C260 C256 1.415 . S
C260 C261 1.437 . S
C260 C264 1.413 . S
C261 C259 1.329 . S
C261 C260 1.437 . S
C261 H283 0.929 . S
N262 C256 1.369 . S
N262 C263 1.338 . S
N262 Gd267 2.622 . S
C263 N262 1.338 . S
C263 C265 1.378 . S
C263 H275 0.929 . S
C264 C260 1.413 . S
C264 C265 1.348 . S
C264 H280 0.931 . S
C265 C263 1.378 . S
C265 C264 1.348 . S
C265 H281 0.930 . S
Gd266 N286 2.622 . S
Gd266 N293 2.570 . S
Gd266 O300 2.350 1_455 S
Gd266 O301 2.468 . S
Gd266 O302 2.427 . S
Gd266 O304 2.388 . S
Gd266 O305 2.386 . S
Gd266 O309 2.308 . S
Gd266 C319 2.805 . S
Gd267 N262 2.622 . S
Gd267 N268 2.570 . S
Gd267 O299 2.386 . S
Gd267 O303 2.307 1_655 S
Gd267 O306 2.353 1_655 S
Gd267 O307 2.468 . S
Gd267 O308 2.427 . S
Gd267 O310 2.388 . S
Gd267 C331 2.805 . S
N268 C258 1.359 . S
N268 Gd267 2.570 . S
N268 C270 1.343 . S
C269 C257 1.422 . S
C269 C271 1.321 . S
C269 H277 0.931 . S
C270 N268 1.343 . S
C270 C271 1.390 . S
C270 H272 0.931 . S
C271 C269 1.321 . S
C271 C270 1.390 . S
C271 H273 0.930 . S
H272 C270 0.931 . S
H273 C271 0.930 . S
H274 C297 0.931 . S
H275 C263 0.929 . S
H276 C298 0.930 . S
H277 C269 0.931 . S
H278 C259 0.930 . S
H279 C288 0.929 . S
H280 C264 0.931 . S
H281 C265 0.930 . S
H282 C320 0.930 . S
H283 C261 0.929 . S
H284 C289 0.931 . S
H285 C290 0.930 . S
N286 Gd266 2.622 . S
N286 C287 1.369 . S
N286 C288 1.338 . S
C287 N286 1.369 . S
C287 C291 1.415 . S
C287 C294 1.422 . S
C288 H279 0.929 . S
C288 N286 1.338 . S
C288 C290 1.378 . S
C289 H284 0.931 . S
C289 C290 1.348 . S
C289 C291 1.413 . S
C290 H285 0.930 . S
C290 C288 1.378 . S
C290 C289 1.348 . S
C291 C287 1.415 . S
C291 C289 1.413 . S
C291 C321 1.437 . S
H292 C321 0.929 . S
N293 Gd266 2.570 . S
N293 C294 1.359 . S
N293 C297 1.343 . S
C294 C287 1.422 . S
C294 N293 1.359 . S
C294 C296 1.421 . S
C295 C296 1.422 1_545 S
C295 C298 1.321 . S
C295 H322 0.931 . S
C296 C294 1.421 . S
C296 C295 1.422 1_565 S
C296 C320 1.417 . S
C297 H274 0.931 . S
C297 N293 1.343 . S
C297 C298 1.390 1_565 S
C298 H276 0.930 . S
C298 C295 1.321 . S
C298 C297 1.390 1_545 S
O299 Gd267 2.386 . S
O299 C311 1.265 . S
O300 Gd266 2.350 1_655 S
O300 C311 1.246 . S
O301 Gd266 2.468 . S
O301 C319 1.263 . S
O302 Gd266 2.427 . S
O302 C319 1.252 . S
O303 Gd267 2.307 1_455 S
O303 C312 1.261 . S
O304 Gd266 2.388 . S
O304 C312 1.252 . S
O305 Gd266 2.386 . S
O305 C323 1.265 . S
O306 Gd267 2.353 1_455 S
O306 C323 1.242 . S
O307 Gd267 2.468 . S
O307 C331 1.263 . S
O308 Gd267 2.427 . S
O308 C331 1.252 . S
O309 Gd266 2.308 . S
O309 C324 1.260 1_455 S
O310 Gd267 2.388 . S
O310 C324 1.252 . S
C311 O299 1.265 . S
C311 O300 1.246 . S
C312 O303 1.261 . S
C312 O304 1.252 . S
C313 C316 1.394 . S
C313 C318 1.370 . S
C313 C319 1.500 . S
C314 C317 1.383 . S
C314 C318 1.395 . S
C315 C316 1.396 . S
C315 C317 1.365 . S
C315 H332 0.929 . S
C316 C313 1.394 . S
C316 C315 1.396 . S
C316 H333 0.930 . S
C317 C314 1.383 . S
C317 C315 1.365 . S
C317 H334 0.931 . S
C318 C313 1.370 . S
C318 C314 1.395 . S
C318 H335 0.930 . S
C319 Gd266 2.805 . S
C319 O301 1.263 . S
C319 O302 1.252 . S
C319 C313 1.500 . S
C320 H282 0.930 . S
C320 C296 1.417 . S
C320 C321 1.329 . S
C321 C291 1.437 . S
C321 H292 0.929 . S
C321 C320 1.329 . S
H322 C295 0.931 . S
C323 O305 1.265 . S
C323 O306 1.242 . S
C324 O309 1.260 1_655 S
C324 O310 1.252 . S
C325 C328 1.394 . S
C325 C330 1.370 . S
C325 C331 1.500 . S
C326 C329 1.383 . S
C326 C330 1.395 . S
C327 C328 1.396 . S
C327 C329 1.365 . S
C327 H336 0.929 . S
C328 C325 1.394 . S
C328 C327 1.396 . S
C328 H337 0.930 . S
C329 C326 1.383 . S
C329 C327 1.365 . S
C329 H338 0.931 . S
C330 C325 1.370 . S
C330 C326 1.395 . S
C330 H339 0.930 . S
C331 Gd267 2.805 . S
C331 O307 1.263 . S
C331 O308 1.252 . S
C331 C325 1.500 . S
H332 C315 0.929 . S
H333 C316 0.930 . S
H334 C317 0.931 . S
H335 C318 0.930 . S
H336 C327 0.929 . S
H337 C328 0.930 . S
H338 C329 0.931 . S
H339 C330 0.930 . S
C340 C342 1.422 . S
C340 C344 1.415 . S
C340 N346 1.369 . S
C341 C342 1.421 . S
C341 C343 1.417 . S
C341 C353 1.422 . S
C342 C340 1.422 . S
C342 C341 1.421 . S
C342 N352 1.359 . S
C343 C341 1.417 . S
C343 C345 1.329 . S
C343 H362 0.930 . S
C344 C340 1.415 . S
C344 C345 1.437 . S
C344 C348 1.413 . S
C345 C343 1.329 . S
C345 C344 1.437 . S
C345 H367 0.929 . S
N346 C340 1.369 . S
N346 C347 1.338 . S
N346 Gd351 2.622 . S
C347 N346 1.338 . S
C347 C349 1.378 . S
C347 H359 0.929 . S
C348 C344 1.413 . S
C348 C349 1.348 . S
C348 H364 0.931 . S
C349 C347 1.378 . S
C349 C348 1.348 . S
C349 H365 0.930 . S
Gd350 N370 2.622 . S
Gd350 N377 2.570 . S
Gd350 O384 2.353 . S
Gd350 O385 2.468 . S
Gd350 O386 2.427 . S
Gd350 O388 2.388 . S
Gd350 O389 2.386 . S
Gd350 O393 2.307 . S
Gd350 C403 2.805 . S
Gd351 N346 2.622 . S
Gd351 N352 2.570 . S
Gd351 O383 2.386 . S
Gd351 O387 2.307 . S
Gd351 O390 2.353 . S
Gd351 O391 2.468 . S
Gd351 O392 2.427 . S
Gd351 O394 2.388 . S
Gd351 C415 2.805 . S
N352 C342 1.359 . S
N352 Gd351 2.570 . S
N352 C354 1.343 . S
C353 C341 1.422 . S
C353 C355 1.321 . S
C353 H361 0.931 . S
C354 N352 1.343 . S
C354 C355 1.390 . S
C354 H356 0.931 . S
C355 C353 1.321 . S
C355 C354 1.390 . S
C355 H357 0.930 . S
H356 C354 0.931 . S
H357 C355 0.930 . S
H358 C381 0.931 . S
H359 C347 0.929 . S
H360 C382 0.930 . S
H361 C353 0.931 . S
H362 C343 0.930 . S
H363 C372 0.929 . S
H364 C348 0.931 . S
H365 C349 0.930 . S
H366 C404 0.930 . S
H367 C345 0.929 . S
H368 C373 0.931 . S
H369 C374 0.930 . S
N370 Gd350 2.622 . S
N370 C371 1.369 . S
N370 C372 1.338 . S
C371 N370 1.369 . S
C371 C375 1.415 . S
C371 C378 1.422 . S
C372 H363 0.929 . S
C372 N370 1.338 . S
C372 C374 1.378 . S
C373 H368 0.931 . S
C373 C374 1.348 . S
C373 C375 1.413 . S
C374 H369 0.930 . S
C374 C372 1.378 . S
C374 C373 1.348 . S
C375 C371 1.415 . S
C375 C373 1.413 . S
C375 C405 1.437 . S
H376 C405 0.929 . S
N377 Gd350 2.570 . S
N377 C378 1.359 . S
N377 C381 1.343 . S
C378 C371 1.422 . S
C378 N377 1.359 . S
C378 C380 1.421 . S
C379 C380 1.422 . S
C379 C382 1.321 . S
C379 H406 0.931 . S
C380 C378 1.421 . S
C380 C379 1.422 . S
C380 C404 1.417 . S
C381 H358 0.931 . S
C381 N377 1.343 . S
C381 C382 1.390 . S
C382 H360 0.930 . S
C382 C379 1.321 . S
C382 C381 1.390 . S
O383 Gd351 2.386 . S
O383 C395 1.265 . S
O384 Gd350 2.353 . S
O384 C395 1.242 . S
O385 Gd350 2.468 . S
O385 C403 1.263 . S
O386 Gd350 2.427 . S
O386 C403 1.252 . S
O387 Gd351 2.307 . S
O387 C396 1.261 . S
O388 Gd350 2.388 . S
O388 C396 1.252 . S
O389 Gd350 2.386 . S
O389 C407 1.265 . S
O390 Gd351 2.353 . S
O390 C407 1.242 . S
O391 Gd351 2.468 . S
O391 C415 1.263 . S
O392 Gd351 2.427 . S
O392 C415 1.252 . S
O393 Gd350 2.307 . S
O393 C408 1.261 . S
O394 Gd351 2.388 . S
O394 C408 1.252 . S
C395 O383 1.265 . S
C395 O384 1.242 . S
C396 O387 1.261 . S
C396 O388 1.252 . S
C397 C400 1.394 . S
C397 C402 1.370 . S
C397 C403 1.500 . S
C398 C401 1.383 . S
C398 C402 1.395 . S
C399 C400 1.396 . S
C399 C401 1.365 . S
C399 H416 0.929 . S
C400 C397 1.394 . S
C400 C399 1.396 . S
C400 H417 0.930 . S
C401 C398 1.383 . S
C401 C399 1.365 . S
C401 H418 0.931 . S
C402 C397 1.370 . S
C402 C398 1.395 . S
C402 H419 0.930 . S
C403 Gd350 2.805 . S
C403 O385 1.263 . S
C403 O386 1.252 . S
C403 C397 1.500 . S
C404 H366 0.930 . S
C404 C380 1.417 . S
C404 C405 1.329 . S
C405 C375 1.437 . S
C405 H376 0.929 . S
C405 C404 1.329 . S
H406 C379 0.931 . S
C407 O389 1.265 . S
C407 O390 1.242 . S
C408 O393 1.261 . S
C408 O394 1.252 . S
C409 C412 1.394 . S
C409 C414 1.370 . S
C409 C415 1.500 . S
C410 C413 1.383 . S
C410 C414 1.395 . S
C411 C412 1.396 . S
C411 C413 1.365 . S
C411 H420 0.929 . S
C412 C409 1.394 . S
C412 C411 1.396 . S
C412 H421 0.930 . S
C413 C410 1.383 . S
C413 C411 1.365 . S
C413 H422 0.931 . S
C414 C409 1.370 . S
C414 C410 1.395 . S
C414 H423 0.930 . S
C415 Gd351 2.805 . S
C415 O391 1.263 . S
C415 O392 1.252 . S
C415 C409 1.500 . S
H416 C399 0.929 . S
H417 C400 0.930 . S
H418 C401 0.931 . S
H419 C402 0.930 . S
H420 C411 0.929 . S
H421 C412 0.930 . S
H422 C413 0.931 . S
H423 C414 0.930 . S
H424 C436 0.930 . S
H425 C438 0.930 . S
H426 C439 0.930 . S
H427 C443 0.959 . S
H428 C443 0.959 . S
H429 C443 0.961 . S
H430 C444 0.976 . S
H431 C444 0.945 1_545 S
H432 C444 0.942 1_545 S
H433 C447 0.929 . S
H434 C448 0.931 . S
H435 C450 0.930 . S
C436 H424 0.930 . S
C436 C437 1.399 . S
C436 C441 1.399 . S
C437 C436 1.399 . S
C437 C438 1.376 . S
C438 H425 0.930 . S
C438 C437 1.376 . S
C438 C439 1.388 . S
C439 H426 0.930 . S
C439 C438 1.388 . S
C439 C440 1.390 . S
C440 C439 1.390 . S
C440 C441 1.394 . S
C440 C446 1.465 . S
C441 C436 1.399 . S
C441 C440 1.394 . S
C441 C442 1.516 . S
C442 C441 1.516 . S
C442 C443 1.502 . S
C442 C444 1.580 . S
C442 C445 1.526 . S
C443 H427 0.959 . S
C443 H428 0.959 . S
C443 H429 0.961 . S
C443 C442 1.502 . S
C444 H430 0.976 . S
C444 H431 0.945 1_565 S
C444 H432 0.942 1_565 S
C444 C442 1.580 . S
C445 C442 1.526 . S
C445 C446 1.396 . S
C445 C450 1.390 1_565 S
C446 C440 1.465 . S
C446 C445 1.396 . S
C446 C447 1.399 1_565 S
C447 H433 0.929 . S
C447 C446 1.399 1_545 S
C447 C448 1.385 . S
C448 H434 0.931 . S
C448 C447 1.385 . S
C448 C449 1.389 . S
C449 C448 1.389 . S
C449 C450 1.387 . S
C450 H435 0.930 . S
C450 C445 1.390 1_545 S
C450 C449 1.387 . S
H451 C463 0.930 . S
H452 C465 0.930 . S
H453 C466 0.930 . S
H454 C470 0.959 . S
H455 C470 0.959 . S
H456 C470 0.961 . S
H457 C471 0.960 . S
H458 C471 0.961 . S
H459 C471 0.959 . S
H460 C474 0.929 . S
H461 C475 0.931 . S
H462 C477 0.930 . S
C463 H451 0.930 . S
C463 C464 1.399 . S
C463 C468 1.399 . S
C464 C463 1.399 . S
C464 C465 1.376 . S
C465 H452 0.930 . S
C465 C464 1.376 . S
C465 C466 1.388 . S
C466 H453 0.930 . S
C466 C465 1.388 . S
C466 C467 1.390 . S
C467 C466 1.390 . S
C467 C468 1.394 . S
C467 C473 1.465 . S
C468 C463 1.399 . S
C468 C467 1.394 . S
C468 C469 1.516 . S
C469 C468 1.516 . S
C469 C470 1.502 . S
C469 C471 1.561 . S
C469 C472 1.526 . S
C470 H454 0.959 . S
C470 H455 0.959 . S
C470 H456 0.961 . S
C470 C469 1.502 . S
C471 H457 0.960 . S
C471 H458 0.961 . S
C471 H459 0.959 . S
C471 C469 1.561 . S
C472 C469 1.526 . S
C472 C473 1.396 . S
C472 C477 1.390 . S
C473 C467 1.465 . S
C473 C472 1.396 . S
C473 C474 1.399 . S
C474 H460 0.929 . S
C474 C473 1.399 . S
C474 C475 1.385 . S
C475 H461 0.931 . S
C475 C474 1.385 . S
C475 C476 1.389 . S
C476 C475 1.389 . S
C476 C477 1.387 . S
C477 H462 0.930 . S
C477 C472 1.390 . S
C477 C476 1.387 . S
H478 C490 0.930 . S
H479 C492 0.930 . S
H480 C493 0.930 . S
H481 C497 0.959 . S
H482 C497 0.959 . S
H483 C497 0.961 . S
H484 C498 0.960 . S
H485 C498 0.961 . S
H486 C498 0.959 . S
H487 C501 0.929 . S
H488 C502 0.931 . S
H489 C504 0.930 . S
C490 H478 0.930 . S
C490 C491 1.399 . S
C490 C495 1.399 . S
C491 C490 1.399 . S
C491 C492 1.376 . S
C492 H479 0.930 . S
C492 C491 1.376 . S
C492 C493 1.388 . S
C493 H480 0.930 . S
C493 C492 1.388 . S
C493 C494 1.390 . S
C494 C493 1.390 . S
C494 C495 1.394 . S
C494 C500 1.465 . S
C495 C490 1.399 . S
C495 C494 1.394 . S
C495 C496 1.516 . S
C496 C495 1.516 . S
C496 C497 1.502 . S
C496 C498 1.561 . S
C496 C499 1.526 . S
C497 H481 0.959 . S
C497 H482 0.959 . S
C497 H483 0.961 . S
C497 C496 1.502 . S
C498 H484 0.960 . S
C498 H485 0.961 . S
C498 H486 0.959 . S
C498 C496 1.561 . S
C499 C496 1.526 . S
C499 C500 1.396 . S
C499 C504 1.390 . S
C500 C494 1.465 . S
C500 C499 1.396 . S
C500 C501 1.399 . S
C501 H487 0.929 . S
C501 C500 1.399 . S
C501 C502 1.385 . S
C502 H488 0.931 . S
C502 C501 1.385 . S
C502 C503 1.389 . S
C503 C502 1.389 . S
C503 C504 1.387 . S
C504 H489 0.930 . S
C504 C499 1.390 . S
C504 C503 1.387 . S
H505 C517 0.930 . S
H506 C519 0.930 . S
H507 C520 0.930 . S
H508 C524 0.959 . S
H509 C524 0.959 . S
H510 C524 0.961 . S
H511 C525 0.960 . S
H512 C525 0.961 . S
H513 C525 0.959 . S
H514 C528 0.929 . S
H515 C529 0.931 . S
H516 C531 0.930 . S
C517 H505 0.930 . S
C517 C518 1.399 . S
C517 C522 1.399 . S
C518 C517 1.399 . S
C518 C519 1.376 . S
C519 H506 0.930 . S
C519 C518 1.376 . S
C519 C520 1.388 . S
C520 H507 0.930 . S
C520 C519 1.388 . S
C520 C521 1.390 . S
C521 C520 1.390 . S
C521 C522 1.394 . S
C521 C527 1.465 . S
C522 C517 1.399 . S
C522 C521 1.394 . S
C522 C523 1.516 . S
C523 C522 1.516 . S
C523 C524 1.502 . S
C523 C525 1.561 . S
C523 C526 1.526 . S
C524 H508 0.959 . S
C524 H509 0.959 . S
C524 H510 0.961 . S
C524 C523 1.502 . S
C525 H511 0.960 . S
C525 H512 0.961 . S
C525 H513 0.959 . S
C525 C523 1.561 . S
C526 C523 1.526 . S
C526 C527 1.396 . S
C526 C531 1.390 1_565 S
C527 C521 1.465 . S
C527 C526 1.396 . S
C527 C528 1.399 1_565 S
C528 H514 0.929 . S
C528 C527 1.399 1_545 S
C528 C529 1.385 . S
C529 H515 0.931 . S
C529 C528 1.385 . S
C529 C530 1.389 . S
C530 C529 1.389 . S
C530 C531 1.387 . S
C531 H516 0.930 . S
C531 C526 1.390 1_545 S
C531 C530 1.387 . S
H532 C544 0.930 . S
H533 C546 0.930 . S
H534 C547 0.930 . S
H535 C551 0.959 . S
H536 C551 0.959 . S
H537 C551 0.961 . S
H538 C552 0.960 . S
H539 C552 0.961 . S
H540 C552 0.959 . S
H541 C555 0.929 . S
H542 C556 0.931 . S
H543 C558 0.928 1_545 S
C544 H532 0.930 . S
C544 C545 1.399 . S
C544 C549 1.399 . S
C545 C544 1.399 . S
C545 C546 1.376 . S
C546 H533 0.930 . S
C546 C545 1.376 . S
C546 C547 1.388 . S
C547 H534 0.930 . S
C547 C546 1.388 . S
C547 C548 1.390 . S
C548 C547 1.390 . S
C548 C549 1.394 . S
C548 C554 1.465 . S
C549 C544 1.399 . S
C549 C548 1.394 . S
C549 C550 1.516 . S
C550 C549 1.516 . S
C550 C551 1.502 . S
C550 C552 1.561 . S
C550 C553 1.526 . S
C551 H535 0.959 . S
C551 H536 0.959 . S
C551 H537 0.961 . S
C551 C550 1.502 . S
C552 H538 0.960 . S
C552 H539 0.961 . S
C552 H540 0.959 . S
C552 C550 1.561 . S
C553 C550 1.526 . S
C553 C554 1.396 . S
C553 C558 1.387 1_545 S
C554 C548 1.465 . S
C554 C553 1.396 . S
C554 C555 1.399 1_545 S
C555 H541 0.929 . S
C555 C554 1.399 1_565 S
C555 C556 1.385 . S
C556 H542 0.931 . S
C556 C555 1.385 . S
C556 C557 1.389 . S
C557 C556 1.389 . S
C557 C558 1.391 . S
C558 H543 0.928 1_565 S
C558 C553 1.387 1_565 S
C558 C557 1.391 . S
H559 C571 0.930 . S
H560 C573 0.930 . S
H561 C574 0.930 . S
H562 C578 0.959 . S
H563 C578 0.959 . S
H564 C578 0.961 . S
H565 C579 0.960 . S
H566 C579 0.961 . S
H567 C579 0.959 . S
H568 C582 0.929 . S
H569 C583 0.931 . S
H570 C585 0.930 . S
C571 H559 0.930 . S
C571 C572 1.399 . S
C571 C576 1.399 . S
C572 C571 1.399 . S
C572 C573 1.376 . S
C573 H560 0.930 . S
C573 C572 1.376 . S
C573 C574 1.388 . S
C574 H561 0.930 . S
C574 C573 1.388 . S
C574 C575 1.390 . S
C575 C574 1.390 . S
C575 C576 1.394 . S
C575 C581 1.465 . S
C576 C571 1.399 . S
C576 C575 1.394 . S
C576 C577 1.516 . S
C577 C576 1.516 . S
C577 C578 1.502 . S
C577 C579 1.561 . S
C577 C580 1.526 . S
C578 H562 0.959 . S
C578 H563 0.959 . S
C578 H564 0.961 . S
C578 C577 1.502 . S
C579 H565 0.960 . S
C579 H566 0.961 . S
C579 H567 0.959 . S
C579 C577 1.561 . S
C580 C577 1.526 . S
C580 C581 1.396 . S
C580 C585 1.390 . S
C581 C575 1.465 . S
C581 C580 1.396 . S
C581 C582 1.399 . S
C582 H568 0.929 . S
C582 C581 1.399 . S
C582 C583 1.385 . S
C583 H569 0.931 . S
C583 C582 1.385 . S
C583 C584 1.389 . S
C584 C583 1.389 . S
C584 C585 1.387 . S
C585 H570 0.930 . S
C585 C580 1.390 . S
C585 C584 1.387 . S
H586 C598 0.930 . S
H587 C600 0.930 . S
H588 C601 0.930 . S
H589 C605 0.959 . S
H590 C605 0.959 . S
H591 C605 0.961 . S
H592 C606 0.960 . S
H593 C606 0.961 . S
H594 C606 0.959 . S
H595 C609 0.929 . S
H596 C610 0.931 . S
H597 C612 0.930 . S
C598 H586 0.930 . S
C598 C599 1.399 . S
C598 C603 1.399 . S
C599 C598 1.399 . S
C599 C600 1.376 . S
C600 H587 0.930 . S
C600 C599 1.376 . S
C600 C601 1.388 . S
C601 H588 0.930 . S
C601 C600 1.388 . S
C601 C602 1.390 . S
C602 C601 1.390 . S
C602 C603 1.394 . S
C602 C608 1.465 . S
C603 C598 1.399 . S
C603 C602 1.394 . S
C603 C604 1.516 . S
C604 C603 1.516 . S
C604 C605 1.502 . S
C604 C606 1.561 . S
C604 C607 1.526 . S
C605 H589 0.959 . S
C605 H590 0.959 . S
C605 H591 0.961 . S
C605 C604 1.502 . S
C606 H592 0.960 . S
C606 H593 0.961 . S
C606 H594 0.959 . S
C606 C604 1.561 . S
C607 C604 1.526 . S
C607 C608 1.396 . S
C607 C612 1.390 . S
C608 C602 1.465 . S
C608 C607 1.396 . S
C608 C609 1.399 . S
C609 H595 0.929 . S
C609 C608 1.399 . S
C609 C610 1.385 . S
C610 H596 0.931 . S
C610 C609 1.385 . S
C610 C611 1.389 . S
C611 C610 1.389 . S
C611 C612 1.387 . S
C612 H597 0.930 . S
C612 C607 1.390 . S
C612 C611 1.387 . S
H613 C625 0.930 . S
H614 C627 0.930 . S
H615 C628 0.930 . S
H616 C632 0.959 . S
H617 C632 0.959 . S
H618 C632 0.961 . S
H619 C633 0.960 . S
H620 C633 0.961 . S
H621 C633 0.959 . S
H622 C636 0.929 . S
H623 C637 0.931 . S
H624 C639 0.930 1_545 S
C625 H613 0.930 . S
C625 C626 1.399 . S
C625 C630 1.399 . S
C626 C625 1.399 . S
C626 C627 1.376 . S
C627 H614 0.930 . S
C627 C626 1.376 . S
C627 C628 1.388 . S
C628 H615 0.930 . S
C628 C627 1.388 . S
C628 C629 1.390 . S
C629 C628 1.390 . S
C629 C630 1.394 . S
C629 C635 1.465 . S
C630 C625 1.399 . S
C630 C629 1.394 . S
C630 C631 1.516 . S
C631 C630 1.516 . S
C631 C632 1.502 . S
C631 C633 1.561 . S
C631 C634 1.526 . S
C632 H616 0.959 . S
C632 H617 0.959 . S
C632 H618 0.961 . S
C632 C631 1.502 . S
C633 H619 0.960 . S
C633 H620 0.961 . S
C633 H621 0.959 . S
C633 C631 1.561 . S
C634 C631 1.526 . S
C634 C635 1.396 . S
C634 C639 1.390 1_545 S
C635 C629 1.465 . S
C635 C634 1.396 . S
C635 C636 1.399 1_545 S
C636 H622 0.929 . S
C636 C635 1.399 1_565 S
C636 C637 1.385 . S
C637 H623 0.931 . S
C637 C636 1.385 . S
C637 C638 1.389 . S
C638 C637 1.389 . S
C638 C639 1.387 . S
C639 H624 0.930 1_565 S
C639 C634 1.390 1_565 S
C639 C638 1.387 . S
H640 C652 0.930 . S
H641 C654 0.930 . S
H642 C655 0.930 . S
H643 C659 0.959 . S
H644 C659 0.959 . S
H645 C659 0.961 . S
H646 C660 0.960 . S
H647 C660 0.961 . S
H648 C660 0.959 . S
H649 C663 0.929 . S
H650 C664 0.931 . S
H651 C666 0.930 . S
C652 H640 0.930 . S
C652 C653 1.399 . S
C652 C657 1.399 1_556 S
C653 C652 1.399 . S
C653 C654 1.376 . S
C654 H641 0.930 . S
C654 C653 1.376 . S
C654 C655 1.388 . S
C655 H642 0.930 . S
C655 C654 1.388 . S
C655 C656 1.390 1_556 S
C656 C655 1.390 1_554 S
C656 C657 1.394 . S
C656 C662 1.465 . S
C657 C652 1.399 1_554 S
C657 C656 1.394 . S
C657 C658 1.516 . S
C658 C657 1.516 . S
C658 C659 1.502 . S
C658 C660 1.561 . S
C658 C661 1.526 . S
C659 H643 0.959 . S
C659 H644 0.959 . S
C659 H645 0.961 . S
C659 C658 1.502 . S
C660 H646 0.960 . S
C660 H647 0.961 . S
C660 H648 0.959 . S
C660 C658 1.561 . S
C661 C658 1.526 . S
C661 C662 1.396 . S
C661 C666 1.390 . S
C662 C656 1.465 . S
C662 C661 1.396 . S
C662 C663 1.399 . S
C663 H649 0.929 . S
C663 C662 1.399 . S
C663 C664 1.385 . S
C664 H650 0.931 . S
C664 C663 1.385 . S
C664 C665 1.389 . S
C665 C664 1.389 . S
C665 C666 1.387 . S
C666 H651 0.930 . S
C666 C661 1.390 . S
C666 C665 1.387 . S
H667 C679 0.930 . S
H668 C681 0.930 . S
H669 C682 0.930 . S
H670 C686 0.959 . S
H671 C686 0.959 . S
H672 C686 0.961 . S
H673 C687 0.960 . S
H674 C687 0.961 . S
H675 C687 0.959 . S
H676 C690 0.929 . S
H677 C691 0.931 . S
H678 C693 0.930 . S
C679 H667 0.930 . S
C679 C680 1.399 . S
C679 C684 1.399 . S
C680 C679 1.399 . S
C680 C681 1.376 . S
C681 H668 0.930 . S
C681 C680 1.376 . S
C681 C682 1.388 . S
C682 H669 0.930 . S
C682 C681 1.388 . S
C682 C683 1.390 . S
C683 C682 1.390 . S
C683 C684 1.394 . S
C683 C689 1.465 . S
C684 C679 1.399 . S
C684 C683 1.394 . S
C684 C685 1.516 . S
C685 C684 1.516 . S
C685 C686 1.502 . S
C685 C687 1.561 . S
C685 C688 1.526 . S
C686 H670 0.959 . S
C686 H671 0.959 . S
C686 H672 0.961 . S
C686 C685 1.502 . S
C687 H673 0.960 . S
C687 H674 0.961 . S
C687 H675 0.959 . S
C687 C685 1.561 . S
C688 C685 1.526 . S
C688 C689 1.396 . S
C688 C693 1.390 . S
C689 C683 1.465 . S
C689 C688 1.396 . S
C689 C690 1.399 . S
C690 H676 0.929 . S
C690 C689 1.399 . S
C690 C691 1.385 . S
C691 H677 0.931 . S
C691 C690 1.385 . S
C691 C692 1.389 . S
C692 C691 1.389 . S
C692 C693 1.387 . S
C693 H678 0.930 . S
C693 C688 1.390 . S
C693 C692 1.387 . S
H694 C706 0.930 . S
H695 C708 0.930 . S
H696 C709 0.930 . S
H697 C713 0.959 . S
H698 C713 0.959 . S
H699 C713 0.961 . S
H700 C714 0.960 . S
H701 C714 0.961 . S
H702 C714 0.959 . S
H703 C717 0.929 . S
H704 C718 0.931 . S
H705 C720 0.930 . S
C706 H694 0.930 . S
C706 C707 1.399 . S
C706 C711 1.397 . S
C707 C706 1.399 . S
C707 C708 1.376 . S
C708 H695 0.930 . S
C708 C707 1.376 . S
C708 C709 1.388 . S
C709 H696 0.930 . S
C709 C708 1.388 . S
C709 C710 1.390 1_554 S
C710 C709 1.390 1_556 S
C710 C711 1.394 1_556 S
C710 C716 1.465 . S
C711 C706 1.397 . S
C711 C710 1.394 1_554 S
C711 C712 1.518 1_554 S
C712 C711 1.518 1_556 S
C712 C713 1.502 . S
C712 C714 1.561 . S
C712 C715 1.526 . S
C713 H697 0.959 . S
C713 H698 0.959 . S
C713 H699 0.961 . S
C713 C712 1.502 . S
C714 H700 0.960 . S
C714 H701 0.961 . S
C714 H702 0.959 . S
C714 C712 1.561 . S
C715 C712 1.526 . S
C715 C716 1.396 . S
C715 C720 1.390 . S
C716 C710 1.465 . S
C716 C715 1.396 . S
C716 C717 1.399 . S
C717 H703 0.929 . S
C717 C716 1.399 . S
C717 C718 1.385 . S
C718 H704 0.931 . S
C718 C717 1.385 . S
C718 C719 1.389 . S
C719 C718 1.389 . S
C719 C720 1.387 . S
C720 H705 0.930 . S
C720 C715 1.390 . S
C720 C719 1.387 . S
H721 C733 0.930 . S
H722 C735 0.930 . S
H723 C736 0.930 . S
H724 C740 0.959 . S
H725 C740 0.959 . S
H726 C740 0.961 . S
H727 C741 0.960 . S
H728 C741 0.961 . S
H729 C741 0.959 . S
H730 C744 0.929 . S
H731 C745 0.931 . S
H732 C747 0.930 . S
C733 H721 0.930 . S
C733 C734 1.399 . S
C733 C738 1.399 . S
C734 C733 1.399 . S
C734 C735 1.376 . S
C735 H722 0.930 . S
C735 C734 1.376 . S
C735 C736 1.388 . S
C736 H723 0.930 . S
C736 C735 1.388 . S
C736 C737 1.390 . S
C737 C736 1.390 . S
C737 C738 1.394 . S
C737 C743 1.465 . S
C738 C733 1.399 . S
C738 C737 1.394 . S
C738 C739 1.516 . S
C739 C738 1.516 . S
C739 C740 1.502 . S
C739 C741 1.561 . S
C739 C742 1.526 . S
C740 H724 0.959 . S
C740 H725 0.959 . S
C740 H726 0.961 . S
C740 C739 1.502 . S
C741 H727 0.960 . S
C741 H728 0.961 . S
C741 H729 0.959 . S
C741 C739 1.561 . S
C742 C739 1.526 . S
C742 C743 1.396 . S
C742 C747 1.390 . S
C743 C737 1.465 . S
C743 C742 1.396 . S
C743 C744 1.399 . S
C744 H730 0.929 . S
C744 C743 1.399 . S
C744 C745 1.385 . S
C745 H731 0.931 . S
C745 C744 1.385 . S
C745 C746 1.389 . S
C746 C745 1.389 . S
C746 C747 1.387 . S
C747 H732 0.930 . S
C747 C742 1.390 . S
C747 C746 1.387 . S
H748 C760 0.930 . S
H749 C762 0.930 . S
H750 C763 0.930 . S
H751 C767 0.959 . S
H752 C767 0.959 . S
H753 C767 0.961 . S
H754 C768 0.960 1_554 S
H755 C768 0.961 . S
H756 C768 0.959 . S
H757 C771 0.929 . S
H758 C772 0.931 . S
H759 C774 0.930 . S
C760 H748 0.930 . S
C760 C761 1.399 . S
C760 C765 1.399 . S
C761 C760 1.399 . S
C761 C762 1.376 . S
C762 H749 0.930 . S
C762 C761 1.376 . S
C762 C763 1.388 . S
C763 H750 0.930 . S
C763 C762 1.388 . S
C763 C764 1.384 1_554 S
C764 C763 1.384 1_556 S
C764 C765 1.393 1_556 S
C764 C770 1.473 . S
C765 C760 1.399 . S
C765 C764 1.393 1_554 S
C765 C766 1.516 1_554 S
C766 C765 1.516 1_556 S
C766 C767 1.502 . S
C766 C768 1.561 . S
C766 C769 1.526 . S
C767 H751 0.959 . S
C767 H752 0.959 . S
C767 H753 0.961 . S
C767 C766 1.502 . S
C768 H754 0.960 1_556 S
C768 H755 0.961 . S
C768 H756 0.959 . S
C768 C766 1.561 . S
C769 C766 1.526 . S
C769 C770 1.396 . S
C769 C774 1.390 . S
C770 C764 1.473 . S
C770 C769 1.396 . S
C770 C771 1.399 . S
C771 H757 0.929 . S
C771 C770 1.399 . S
C771 C772 1.385 . S
C772 H758 0.931 . S
C772 C771 1.385 . S
C772 C773 1.389 . S
C773 C772 1.389 . S
C773 C774 1.387 . S
C774 H759 0.930 . S
C774 C769 1.390 . S
C774 C773 1.387 . S
H775 C787 0.930 . S
H776 C789 0.930 . S
H777 C790 0.930 . S
H778 C794 0.959 . S
H779 C794 0.959 . S
H780 C794 0.961 . S
H781 C795 0.960 . S
H782 C795 0.961 . S
H783 C795 0.959 . S
H784 C798 0.929 . S
H785 C799 0.931 . S
H786 C801 0.930 . S
C787 H775 0.930 . S
C787 C788 1.399 . S
C787 C792 1.399 . S
C788 C787 1.399 . S
C788 C789 1.376 . S
C789 H776 0.930 . S
C789 C788 1.376 . S
C789 C790 1.388 . S
C790 H777 0.930 . S
C790 C789 1.388 . S
C790 C791 1.390 . S
C791 C790 1.390 . S
C791 C792 1.394 . S
C791 C797 1.465 . S
C792 C787 1.399 . S
C792 C791 1.394 . S
C792 C793 1.516 . S
C793 C792 1.516 . S
C793 C794 1.502 . S
C793 C795 1.561 . S
C793 C796 1.526 . S
C794 H778 0.959 . S
C794 H779 0.959 . S
C794 H780 0.961 . S
C794 C793 1.502 . S
C795 H781 0.960 . S
C795 H782 0.961 . S
C795 H783 0.959 . S
C795 C793 1.561 . S
C796 C793 1.526 . S
C796 C797 1.396 . S
C796 C801 1.390 . S
C797 C791 1.465 . S
C797 C796 1.396 . S
C797 C798 1.399 . S
C798 H784 0.929 . S
C798 C797 1.399 . S
C798 C799 1.385 . S
C799 H785 0.931 . S
C799 C798 1.385 . S
C799 C800 1.389 . S
C800 C799 1.389 . S
C800 C801 1.387 . S
C801 H786 0.930 . S
C801 C796 1.390 . S
C801 C800 1.387 . S
H802 C814 0.930 . S
H803 C816 0.930 . S
H804 C817 0.930 . S
H805 C821 0.959 . S
H806 C821 0.959 . S
H807 C821 0.952 1_556 S
H808 C822 0.960 . S
H809 C822 0.961 1_554 S
H810 C822 0.959 . S
H811 C825 0.929 . S
H812 C826 0.931 . S
H813 C828 0.930 . S
C814 H802 0.930 . S
C814 C815 1.399 . S
C814 C819 1.399 . S
C815 C814 1.399 . S
C815 C816 1.376 . S
C816 H803 0.930 . S
C816 C815 1.376 . S
C816 C817 1.388 . S
C817 H804 0.930 . S
C817 C816 1.388 . S
C817 C818 1.390 1_556 S
C818 C817 1.390 1_554 S
C818 C819 1.394 1_554 S
C818 C824 1.465 . S
C819 C814 1.399 . S
C819 C818 1.394 1_556 S
C819 C820 1.516 1_556 S
C820 C819 1.516 1_554 S
C820 C821 1.502 . S
C820 C822 1.561 1_554 S
C820 C823 1.526 . S
C821 H805 0.959 . S
C821 H806 0.959 . S
C821 H807 0.952 1_554 S
C821 C820 1.502 . S
C822 H808 0.960 . S
C822 H809 0.961 1_556 S
C822 H810 0.959 . S
C822 C820 1.561 1_556 S
C823 C820 1.526 . S
C823 C824 1.396 . S
C823 C828 1.390 . S
C824 C818 1.465 . S
C824 C823 1.396 . S
C824 C825 1.399 . S
C825 H811 0.929 . S
C825 C824 1.399 . S
C825 C826 1.385 . S
C826 H812 0.931 . S
C826 C825 1.385 . S
C826 C827 1.389 . S
C827 C826 1.389 . S
C827 C828 1.387 . S
C828 H813 0.930 . S
C828 C823 1.390 . S
C828 C827 1.387 . S
H829 C841 0.930 . S
H830 C843 0.930 . S
H831 C844 0.930 . S
H832 C848 0.959 . S
H833 C848 0.959 . S
H834 C848 0.961 . S
H835 C849 0.960 . S
H836 C849 0.961 . S
H837 C849 0.959 . S
H838 C852 0.929 . S
H839 C853 0.931 . S
H840 C855 0.930 . S
C841 H829 0.930 . S
C841 C842 1.399 . S
C841 C846 1.399 . S
C842 C841 1.399 . S
C842 C843 1.376 . S
C843 H830 0.930 . S
C843 C842 1.376 . S
C843 C844 1.388 . S
C844 H831 0.930 . S
C844 C843 1.388 . S
C844 C845 1.390 . S
C845 C844 1.390 . S
C845 C846 1.394 . S
C845 C851 1.465 . S
C846 C841 1.399 . S
C846 C845 1.394 . S
C846 C847 1.516 . S
C847 C846 1.516 . S
C847 C848 1.502 . S
C847 C849 1.561 . S
C847 C850 1.526 . S
C848 H832 0.959 . S
C848 H833 0.959 . S
C848 H834 0.961 . S
C848 C847 1.502 . S
C849 H835 0.960 . S
C849 H836 0.961 . S
C849 H837 0.959 . S
C849 C847 1.561 . S
C850 C847 1.526 . S
C850 C851 1.396 . S
C850 C855 1.390 . S
C851 C845 1.465 . S
C851 C850 1.396 . S
C851 C852 1.399 . S
C852 H838 0.929 . S
C852 C851 1.399 . S
C852 C853 1.385 . S
C853 H839 0.931 . S
C853 C852 1.385 . S
C853 C854 1.389 . S
C854 C853 1.389 . S
C854 C855 1.387 . S
C855 H840 0.930 . S
C855 C850 1.390 . S
C855 C854 1.387 . S
H856 C868 0.930 . S
H857 C870 0.930 . S
H858 C871 0.930 . S
H859 C875 0.959 . S
H860 C875 0.959 . S
H861 C875 0.961 . S
H862 C876 0.960 . S
H863 C876 0.961 . S
H864 C876 0.959 . S
H865 C879 0.929 . S
H866 C880 0.931 . S
H867 C882 0.930 . S
C868 H856 0.930 . S
C868 C869 1.399 . S
C868 C873 1.399 . S
C869 C868 1.399 . S
C869 C870 1.376 . S
C870 H857 0.930 . S
C870 C869 1.376 . S
C870 C871 1.388 . S
C871 H858 0.930 . S
C871 C870 1.388 . S
C871 C872 1.390 . S
C872 C871 1.390 . S
C872 C873 1.394 . S
C872 C878 1.465 . S
C873 C868 1.399 . S
C873 C872 1.394 . S
C873 C874 1.516 . S
C874 C873 1.516 . S
C874 C875 1.502 . S
C874 C876 1.561 . S
C874 C877 1.526 . S
C875 H859 0.959 . S
C875 H860 0.959 . S
C875 H861 0.961 . S
C875 C874 1.502 . S
C876 H862 0.960 . S
C876 H863 0.961 . S
C876 H864 0.959 . S
C876 C874 1.561 . S
C877 C874 1.526 . S
C877 C878 1.396 . S
C877 C882 1.390 . S
C878 C872 1.465 . S
C878 C877 1.396 . S
C878 C879 1.399 . S
C879 H865 0.929 . S
C879 C878 1.399 . S
C879 C880 1.385 . S
C880 H866 0.931 . S
C880 C879 1.385 . S
C880 C881 1.389 . S
C881 C880 1.389 . S
C881 C882 1.387 . S
C882 H867 0.930 . S
C882 C877 1.390 . S
C882 C881 1.387 . S
H883 C895 0.930 . S
H884 C897 0.930 . S
H885 C898 0.930 . S
H886 C902 0.959 . S
H887 C902 0.959 . S
H888 C902 0.961 . S
H889 C903 0.960 . S
H890 C903 0.961 . S
H891 C903 0.959 . S
H892 C906 0.929 . S
H893 C907 0.931 . S
H894 C909 0.930 . S
C895 H883 0.930 . S
C895 C896 1.399 . S
C895 C900 1.399 . S
C896 C895 1.399 . S
C896 C897 1.376 . S
C897 H884 0.930 . S
C897 C896 1.376 . S
C897 C898 1.388 . S
C898 H885 0.930 . S
C898 C897 1.388 . S
C898 C899 1.390 . S
C899 C898 1.390 . S
C899 C900 1.394 . S
C899 C905 1.465 . S
C900 C895 1.399 . S
C900 C899 1.394 . S
C900 C901 1.516 . S
C901 C900 1.516 . S
C901 C902 1.502 . S
C901 C903 1.561 . S
C901 C904 1.526 . S
C902 H886 0.959 . S
C902 H887 0.959 . S
C902 H888 0.961 . S
C902 C901 1.502 . S
C903 H889 0.960 . S
C903 H890 0.961 . S
C903 H891 0.959 . S
C903 C901 1.561 . S
C904 C901 1.526 . S
C904 C905 1.396 . S
C904 C909 1.390 . S
C905 C899 1.465 . S
C905 C904 1.396 . S
C905 C906 1.399 . S
C906 H892 0.929 . S
C906 C905 1.399 . S
C906 C907 1.385 . S
C907 H893 0.931 . S
C907 C906 1.385 . S
C907 C908 1.389 . S
C908 C907 1.389 . S
C908 C909 1.387 . S
C909 H894 0.930 . S
C909 C904 1.390 . S
C909 C908 1.387 . S
H910 C922 0.930 . S
H911 C924 0.930 . S
H912 C925 0.930 . S
H913 C929 0.959 . S
H914 C929 0.959 . S
H915 C929 0.961 . S
H916 C930 0.960 . S
H917 C930 0.961 . S
H918 C930 0.959 . S
H919 C933 0.929 . S
H920 C934 0.931 . S
H921 C936 0.930 . S
C922 H910 0.930 . S
C922 C923 1.399 . S
C922 C927 1.399 . S
C923 C922 1.399 . S
C923 C924 1.376 . S
C924 H911 0.930 . S
C924 C923 1.376 . S
C924 C925 1.388 . S
C925 H912 0.930 . S
C925 C924 1.388 . S
C925 C926 1.390 . S
C926 C925 1.390 . S
C926 C927 1.394 . S
C926 C932 1.465 . S
C927 C922 1.399 . S
C927 C926 1.394 . S
C927 C928 1.516 . S
C928 C927 1.516 . S
C928 C929 1.502 . S
C928 C930 1.561 . S
C928 C931 1.526 . S
C929 H913 0.959 . S
C929 H914 0.959 . S
C929 H915 0.961 . S
C929 C928 1.502 . S
C930 H916 0.960 . S
C930 H917 0.961 . S
C930 H918 0.959 . S
C930 C928 1.561 . S
C931 C928 1.526 . S
C931 C932 1.396 . S
C931 C936 1.390 . S
C932 C926 1.465 . S
C932 C931 1.396 . S
C932 C933 1.399 . S
C933 H919 0.929 . S
C933 C932 1.399 . S
C933 C934 1.385 . S
C934 H920 0.931 . S
C934 C933 1.385 . S
C934 C935 1.389 . S
C935 C934 1.389 . S
C935 C936 1.387 . S
C936 H921 0.930 . S
C936 C931 1.390 . S
C936 C935 1.387 . S
H937 C949 0.930 . S
H938 C951 0.930 . S
H939 C952 0.930 . S
H940 C956 0.959 . S
H941 C956 0.959 . S
H942 C956 0.961 . S
H943 C957 0.960 . S
H944 C957 0.961 . S
H945 C957 0.959 . S
H946 C960 0.929 . S
H947 C961 0.936 . S
H948 C963 0.930 . S
C949 H937 0.930 . S
C949 C950 1.399 . S
C949 C954 1.399 . S
C950 C949 1.399 . S
C950 C951 1.376 . S
C951 H938 0.930 . S
C951 C950 1.376 . S
C951 C952 1.388 . S
C952 H939 0.930 . S
C952 C951 1.388 . S
C952 C953 1.390 . S
C953 C952 1.390 . S
C953 C954 1.394 . S
C953 C959 1.465 . S
C954 C949 1.399 . S
C954 C953 1.394 . S
C954 C955 1.516 . S
C955 C954 1.516 . S
C955 C956 1.502 . S
C955 C957 1.561 . S
C955 C958 1.526 . S
C956 H940 0.959 . S
C956 H941 0.959 . S
C956 H942 0.961 . S
C956 C955 1.502 . S
C957 H943 0.960 . S
C957 H944 0.961 . S
C957 H945 0.959 . S
C957 C955 1.561 . S
C958 C955 1.526 . S
C958 C959 1.396 . S
C958 C963 1.390 . S
C959 C953 1.465 . S
C959 C958 1.396 . S
C959 C960 1.399 . S
C960 H946 0.929 . S
C960 C959 1.399 . S
C960 C961 1.385 . S
C961 H947 0.936 . S
C961 C960 1.385 . S
C961 C962 1.389 . S
C962 C961 1.389 . S
C962 C963 1.387 . S
C963 H948 0.930 . S
C963 C958 1.390 . S
C963 C962 1.387 . S
H964 C976 0.930 . S
H965 C978 0.930 . S
H966 C979 0.930 . S
H967 C983 0.959 . S
H968 C983 0.959 . S
H969 C983 0.961 . S
H970 C984 0.960 . S
H971 C984 0.961 . S
H972 C984 0.959 . S
H973 C987 0.929 . S
H974 C988 0.931 . S
H975 C990 0.930 . S
C976 H964 0.930 . S
C976 C977 1.399 . S
C976 C981 1.399 . S
C977 C976 1.399 . S
C977 C978 1.376 . S
C978 H965 0.930 . S
C978 C977 1.376 . S
C978 C979 1.388 . S
C979 H966 0.930 . S
C979 C978 1.388 . S
C979 C980 1.390 . S
C980 C979 1.390 . S
C980 C981 1.394 . S
C980 C986 1.465 . S
C981 C976 1.399 . S
C981 C980 1.394 . S
C981 C982 1.516 . S
C982 C981 1.516 . S
C982 C983 1.502 . S
C982 C984 1.561 . S
C982 C985 1.526 . S
C983 H967 0.959 . S
C983 H968 0.959 . S
C983 H969 0.961 . S
C983 C982 1.502 . S
C984 H970 0.960 . S
C984 H971 0.961 . S
C984 H972 0.959 . S
C984 C982 1.561 . S
C985 C982 1.526 . S
C985 C986 1.396 . S
C985 C990 1.390 . S
C986 C980 1.465 . S
C986 C985 1.396 . S
C986 C987 1.399 . S
C987 H973 0.929 . S
C987 C986 1.399 . S
C987 C988 1.385 . S
C988 H974 0.931 . S
C988 C987 1.385 . S
C988 C989 1.389 . S
C989 C988 1.389 . S
C989 C990 1.387 . S
C990 H975 0.930 . S
C990 C985 1.390 . S
C990 C989 1.387 . S
H991 C1003 0.930 . S
H992 C1005 0.930 . S
H993 C1006 0.930 . S
H994 C1010 0.959 . S
H995 C1010 0.959 . S
H996 C1010 0.961 . S
H997 C1011 0.960 . S
H998 C1011 0.961 . S
H999 C1011 0.959 . S
H1000 C1014 0.929 . S
H1001 C1015 0.931 . S
H1002 C1017 0.930 . S
C1003 H991 0.930 . S
C1003 C1004 1.399 . S
C1003 C1008 1.399 . S
C1004 C1003 1.399 . S
C1004 C1005 1.376 . S
C1005 H992 0.930 . S
C1005 C1004 1.376 . S
C1005 C1006 1.388 . S
C1006 H993 0.930 . S
C1006 C1005 1.388 . S
C1006 C1007 1.390 . S
C1007 C1006 1.390 . S
C1007 C1008 1.394 . S
C1007 C1013 1.465 . S
C1008 C1003 1.399 . S
C1008 C1007 1.394 . S
C1008 C1009 1.516 . S
C1009 C1008 1.516 . S
C1009 C1010 1.502 . S
C1009 C1011 1.561 . S
C1009 C1012 1.526 . S
C1010 H994 0.959 . S
C1010 H995 0.959 . S
C1010 H996 0.961 . S
C1010 C1009 1.502 . S
C1011 H997 0.960 . S
C1011 H998 0.961 . S
C1011 H999 0.959 . S
C1011 C1009 1.561 . S
C1012 C1009 1.526 . S
C1012 C1013 1.396 . S
C1012 C1017 1.390 . S
C1013 C1007 1.465 . S
C1013 C1012 1.396 . S
C1013 C1014 1.399 . S
C1014 H1000 0.929 . S
C1014 C1013 1.399 . S
C1014 C1015 1.385 . S
C1015 H1001 0.931 . S
C1015 C1014 1.385 . S
C1015 C1016 1.389 . S
C1016 C1015 1.389 . S
C1016 C1017 1.387 . S
C1017 H1002 0.930 . S
C1017 C1012 1.390 . S
C1017 C1016 1.387 . S
H1018 C1030 0.930 . S
H1019 C1032 0.930 . S
H1020 C1033 0.930 . S
H1021 C1037 0.959 . S
H1022 C1037 0.959 . S
H1023 C1037 0.961 . S
H1024 C1038 0.960 . S
H1025 C1038 0.961 . S
H1026 C1038 0.959 . S
H1027 C1041 0.929 . S
H1028 C1042 0.931 . S
H1029 C1044 0.930 . S
C1030 H1018 0.930 . S
C1030 C1031 1.399 . S
C1030 C1035 1.399 . S
C1031 C1030 1.399 . S
C1031 C1032 1.376 . S
C1032 H1019 0.930 . S
C1032 C1031 1.376 . S
C1032 C1033 1.388 . S
C1033 H1020 0.930 . S
C1033 C1032 1.388 . S
C1033 C1034 1.390 . S
C1034 C1033 1.390 . S
C1034 C1035 1.394 . S
C1034 C1040 1.465 . S
C1035 C1030 1.399 . S
C1035 C1034 1.394 . S
C1035 C1036 1.516 . S
C1036 C1035 1.516 . S
C1036 C1037 1.502 . S
C1036 C1038 1.561 . S
C1036 C1039 1.526 . S
C1037 H1021 0.959 . S
C1037 H1022 0.959 . S
C1037 H1023 0.961 . S
C1037 C1036 1.502 . S
C1038 H1024 0.960 . S
C1038 H1025 0.961 . S
C1038 H1026 0.959 . S
C1038 C1036 1.561 . S
C1039 C1036 1.526 . S
C1039 C1040 1.396 . S
C1039 C1044 1.390 . S
C1040 C1034 1.465 . S
C1040 C1039 1.396 . S
C1040 C1041 1.399 . S
C1041 H1027 0.929 . S
C1041 C1040 1.399 . S
C1041 C1042 1.385 . S
C1042 H1028 0.931 . S
C1042 C1041 1.385 . S
C1042 C1043 1.389 . S
C1043 C1042 1.389 . S
C1043 C1044 1.387 . S
C1044 H1029 0.930 . S
C1044 C1039 1.390 . S
C1044 C1043 1.387 . S
H1045 C1057 0.930 . S
H1046 C1059 0.930 . S
H1047 C1060 0.930 . S
H1048 C1064 0.959 . S
H1049 C1064 0.959 . S
H1050 C1064 0.961 . S
H1051 C1065 0.960 . S
H1052 C1065 0.961 . S
H1053 C1065 0.959 . S
H1054 C1068 0.929 . S
H1055 C1069 0.931 . S
H1056 C1071 0.930 . S
C1057 H1045 0.930 . S
C1057 C1058 1.399 . S
C1057 C1062 1.399 . S
C1058 C1057 1.399 . S
C1058 C1059 1.376 . S
C1059 H1046 0.930 . S
C1059 C1058 1.376 . S
C1059 C1060 1.388 . S
C1060 H1047 0.930 . S
C1060 C1059 1.388 . S
C1060 C1061 1.390 . S
C1061 C1060 1.390 . S
C1061 C1062 1.394 . S
C1061 C1067 1.465 . S
C1062 C1057 1.399 . S
C1062 C1061 1.394 . S
C1062 C1063 1.516 . S
C1063 C1062 1.516 . S
C1063 C1064 1.502 . S
C1063 C1065 1.561 . S
C1063 C1066 1.526 . S
C1064 H1048 0.959 . S
C1064 H1049 0.959 . S
C1064 H1050 0.961 . S
C1064 C1063 1.502 . S
C1065 H1051 0.960 . S
C1065 H1052 0.961 . S
C1065 H1053 0.959 . S
C1065 C1063 1.561 . S
C1066 C1063 1.526 . S
C1066 C1067 1.396 . S
C1066 C1071 1.390 . S
C1067 C1061 1.465 . S
C1067 C1066 1.396 . S
C1067 C1068 1.399 . S
C1068 H1054 0.929 . S
C1068 C1067 1.399 . S
C1068 C1069 1.385 . S
C1069 H1055 0.931 . S
C1069 C1068 1.385 . S
C1069 C1070 1.389 . S
C1070 C1069 1.389 . S
C1070 C1071 1.387 . S
C1071 H1056 0.930 . S
C1071 C1066 1.390 . S
C1071 C1070 1.387 . S
C437 C71 1.668 . S
C449 C144 1.629 . S
C476 C228 1.640 . S
C464 C81 1.628 . S
C503 C227 1.656 . S
C491 C49 1.641 . S
C518 C59 1.625 . S
C530 C143 1.619 . S
C557 C324 1.660 . S
C545 C27 1.662 . S
C584 C408 1.671 . S
C572 C38 1.687 . S
C599 C5 1.655 . S
C611 C407 1.657 . S
C626 C16 1.690 . S
C638 C323 1.684 . S
C665 C146 1.405 . S
C653 C15 1.538 . S
C692 C230 1.409 . S
C680 C4 1.555 . S
C719 C242 1.424 . S
C707 C37 1.549 . S
C746 C158 1.302 . S
C734 C26 1.585 . S
C773 C326 1.515 . S
C761 C60 1.591 . S
C788 C48 1.629 . S
C800 C410 1.521 . S
C827 C398 1.367 . S
C815 C82 1.616 . S
C842 C70 1.630 . S
C854 C314 1.455 . S
C881 C155 1.491 . S
C869 C10 1.500 . S
C908 C239 1.547 . S
C896 C21 1.527 . S
C923 C32 1.484 . S
C935 C240 1.456 . S
C962 C156 1.530 . S
C950 C43 1.542 . S
C989 C311 1.583 . S
C977 C54 1.590 . S
C1004 C65 1.536 . S
C1016 C395 1.529 . S
C1031 C76 1.551 . S
C1043 C396 1.540 . S
C1058 C87 1.535 . S
C1070 C312 1.533 . S
