# Generated by pormake.
# Topology llj, (12,3)-cn, num edge types: 1
# Building blocks:
#     Node 0, Type 0, BuildingBlock: QEWDON_clean_sbu_0, # of connection points: 12
#     Node 1, Type 0, BuildingBlock: QEWDON_clean_sbu_0, # of connection points: 12
#     Node 2, Type 1, BuildingBlock: BETDAH_clean_linker_0, # of connection points: 3
#     Node 3, Type 1, BuildingBlock: BETDAH_clean_linker_0, # of connection points: 3
#     Node 4, Type 1, BuildingBlock: BETDAH_clean_linker_0, # of connection points: 3
#     Node 5, Type 1, BuildingBlock: BETDAH_clean_linker_0, # of connection points: 3
#     Node 6, Type 1, BuildingBlock: BETDAH_clean_linker_0, # of connection points: 3
#     Node 7, Type 1, BuildingBlock: BETDAH_clean_linker_0, # of connection points: 3
#     Node 8, Type 1, BuildingBlock: BETDAH_clean_linker_0, # of connection points: 3
#     Node 9, Type 1, BuildingBlock: BETDAH_clean_linker_0, # of connection points: 3
#     Edge 10, Type (0, 1), BuildingBlock: OJICUG_clean_linker_0, # of connection points: 2
#     Edge 11, Type (0, 1), BuildingBlock: OJICUG_clean_linker_0, # of connection points: 2
#     Edge 12, Type (0, 1), BuildingBlock: OJICUG_clean_linker_0, # of connection points: 2
#     Edge 13, Type (0, 1), BuildingBlock: OJICUG_clean_linker_0, # of connection points: 2
#     Edge 14, Type (0, 1), BuildingBlock: OJICUG_clean_linker_0, # of connection points: 2
#     Edge 15, Type (0, 1), BuildingBlock: OJICUG_clean_linker_0, # of connection points: 2
#     Edge 16, Type (0, 1), BuildingBlock: OJICUG_clean_linker_0, # of connection points: 2
#     Edge 17, Type (0, 1), BuildingBlock: OJICUG_clean_linker_0, # of connection points: 2
#     Edge 18, Type (0, 1), BuildingBlock: OJICUG_clean_linker_0, # of connection points: 2
#     Edge 19, Type (0, 1), BuildingBlock: OJICUG_clean_linker_0, # of connection points: 2
#     Edge 20, Type (0, 1), BuildingBlock: OJICUG_clean_linker_0, # of connection points: 2
#     Edge 21, Type (0, 1), BuildingBlock: OJICUG_clean_linker_0, # of connection points: 2
#     Edge 22, Type (0, 1), BuildingBlock: OJICUG_clean_linker_0, # of connection points: 2
#     Edge 23, Type (0, 1), BuildingBlock: OJICUG_clean_linker_0, # of connection points: 2
#     Edge 24, Type (0, 1), BuildingBlock: OJICUG_clean_linker_0, # of connection points: 2
#     Edge 25, Type (0, 1), BuildingBlock: OJICUG_clean_linker_0, # of connection points: 2
#     Edge 26, Type (0, 1), BuildingBlock: OJICUG_clean_linker_0, # of connection points: 2
#     Edge 27, Type (0, 1), BuildingBlock: OJICUG_clean_linker_0, # of connection points: 2
#     Edge 28, Type (0, 1), BuildingBlock: OJICUG_clean_linker_0, # of connection points: 2
#     Edge 29, Type (0, 1), BuildingBlock: OJICUG_clean_linker_0, # of connection points: 2
#     Edge 30, Type (0, 1), BuildingBlock: OJICUG_clean_linker_0, # of connection points: 2
#     Edge 31, Type (0, 1), BuildingBlock: OJICUG_clean_linker_0, # of connection points: 2
#     Edge 32, Type (0, 1), BuildingBlock: OJICUG_clean_linker_0, # of connection points: 2
#     Edge 33, Type (0, 1), BuildingBlock: OJICUG_clean_linker_0, # of connection points: 2
# Relax obj value: 0.009
# Max RMSD: 0.091
# Mean RMSD: 0.078
data_MOF--net-llj--node1-QEWDON_clean_sbu_0--node2-BETDAH_clean_linker_0--edge1-OJICUG_clean_linker_0
_symmetry_space_group_name_H-M    P1
_symmetry_Int_Tables_number       1
_symmetry_cell_setting            triclinic
loop_
_symmetry_equiv_pos_as_xyz
'x, y, z'
_cell_length_a     30.195504
_cell_length_b     30.209445
_cell_length_c     18.439637
_cell_angle_alpha  91.365645
_cell_angle_beta   90.193104
_cell_angle_gamma 89.486712
loop_
_atom_site_label
_atom_site_type_symbol
_atom_site_fract_x
_atom_site_fract_y
_atom_site_fract_z
_atom_type_partial_charge
Zn0 Zn 0.97256 0.13846 0.91356 0.0
Zn1 Zn 0.94632 0.09725 0.06056 0.0
O2 O 0.9806 0.08276 0.97117 0.0
H3 H 0.99561 0.05547 0.95738 0.0
C4 C 0.87533 0.0388 0.80241 0.0
O5 O 0.89775 0.05342 0.85914 0.0
Zn6 Zn 0.04558 0.89866 0.06402 0.0
Zn7 Zn 0.03876 0.8789 0.89292 0.0
O8 O 0.01124 0.91424 0.97596 0.0
H9 H 0.99465 0.94145 0.97067 0.0
Zn10 Zn 0.86706 0.96179 0.89357 0.0
O11 O 0.90835 0.98312 0.97307 0.0
Zn12 Zn 0.89282 0.94926 0.06054 0.0
H13 H 0.93597 0.99813 0.96534 0.0
Zn14 Zn 0.11732 0.0401 0.89038 0.0
O15 O 0.08803 0.00996 0.97408 0.0
H16 H 0.06243 0.99127 0.96816 0.0
Zn17 Zn 0.10134 0.04722 0.06171 0.0
C18 C 0.12482 0.96001 0.79912 0.0
O19 O 0.10804 0.94192 0.85686 0.0
O20 O 0.91512 0.17438 0.93417 0.0
O21 O 0.90092 0.14598 0.04156 0.0
O22 O 0.0853 0.83237 0.9227 0.0
O23 O 0.08847 0.84731 0.04135 0.0
O24 O 0.81964 0.91739 0.9244 0.0
O25 O 0.84145 0.90771 0.03843 0.0
C26 C 0.02821 0.09819 0.14209 0.0
O27 O 0.16175 0.08834 0.92039 0.0
O28 O 0.15177 0.09065 0.03987 0.0
O29 O 0.00072 0.86797 0.80099 0.0
C30 C 0.89134 0.17257 0.99098 0.0
O31 O 0.00479 0.14248 0.81579 0.0
C32 C 0.96236 0.89422 0.14296 0.0
O33 O 0.85826 0.00051 0.80361 0.0
C34 C 0.10099 0.82474 0.98547 0.0
O35 O 0.13174 0.00145 0.79967 0.0
C36 C 0.88989 0.0312 0.14247 0.0
O37 O 0.98849 0.11229 0.1415 0.0
O38 O 0.04353 0.07877 0.08541 0.0
C39 C 0.81543 0.89888 0.98536 0.0
O40 O 0.00268 0.88171 0.14301 0.0
O41 O 0.94859 0.9165 0.0895 0.0
C42 C 0.10377 0.96764 0.14589 0.0
O43 O 0.87544 0.9919 0.1416 0.0
O44 O 0.91334 0.04282 0.08897 0.0
C45 C 0.17158 0.10383 0.98319 0.0
O46 O 0.11829 0.00705 0.14417 0.0
O47 O 0.07915 0.9542 0.09376 0.0
C48 C 0.96021 0.87977 0.80055 0.0
O49 O 0.94306 0.89867 0.85903 0.0
C50 C 0.04672 0.13932 0.81198 0.0
O51 O 0.06989 0.13415 0.87167 0.0
Zn52 Zn 0.43308 0.57155 0.45888 0.0
Zn53 Zn 0.43298 0.58834 0.62979 0.0
O54 O 0.47308 0.57574 0.54571 0.0
H55 H 0.49853 0.55632 0.54726 0.0
C56 C 0.39192 0.49252 0.3634 0.0
O57 O 0.37271 0.50168 0.42583 0.0
Zn58 Zn 0.5843 0.41642 0.61621 0.0
Zn59 Zn 0.57905 0.41699 0.44335 0.0
O60 O 0.54237 0.42449 0.53328 0.0
H61 H 0.5153 0.44169 0.53413 0.0
Zn62 Zn 0.43484 0.43102 0.45617 0.0
O63 O 0.43476 0.47251 0.54346 0.0
Zn64 Zn 0.42743 0.43176 0.62613 0.0
H65 H 0.42494 0.5028 0.53943 0.0
Zn66 Zn 0.58914 0.56534 0.455 0.0
O67 O 0.58106 0.53131 0.54479 0.0
H68 H 0.56052 0.50707 0.54488 0.0
Zn69 Zn 0.5912 0.57349 0.62804 0.0
C70 C 0.62057 0.496 0.3585 0.0
O71 O 0.64217 0.4863 0.41812 0.0
O72 O 0.37646 0.60686 0.47774 0.0
O73 O 0.37714 0.6226 0.59637 0.0
O74 O 0.63793 0.38526 0.46171 0.0
O75 O 0.6396 0.38136 0.58218 0.0
O76 O 0.3988 0.37514 0.47491 0.0
O77 O 0.38787 0.38077 0.59406 0.0
C78 C 0.5107 0.61532 0.70893 0.0
O79 O 0.6241 0.62179 0.47347 0.0
O80 O 0.62645 0.62783 0.59424 0.0
O81 O 0.54588 0.40206 0.34819 0.0
C82 C 0.35923 0.62561 0.53354 0.0
O83 O 0.46252 0.57927 0.35898 0.0
C84 C 0.50913 0.38954 0.7002 0.0
O85 O 0.42108 0.46196 0.35988 0.0
C86 C 0.65668 0.37285 0.51988 0.0
O87 O 0.59522 0.52975 0.35875 0.0
C88 C 0.40062 0.50692 0.7156 0.0
O89 O 0.46877 0.62052 0.70778 0.0
O90 O 0.52898 0.59193 0.65904 0.0
C91 C 0.38125 0.36136 0.53282 0.0
O92 O 0.55105 0.38575 0.69597 0.0
O93 O 0.4891 0.4107 0.65098 0.0
C94 C 0.62167 0.49689 0.70461 0.0
O95 O 0.40045 0.46483 0.71156 0.0
O96 O 0.41767 0.52752 0.66359 0.0
C97 C 0.63624 0.64215 0.53139 0.0
O98 O 0.62316 0.53908 0.7067 0.0
O99 O 0.6019 0.47821 0.65117 0.0
C100 C 0.50956 0.38126 0.35061 0.0
O101 O 0.49407 0.3696 0.41375 0.0
C102 C 0.49982 0.59829 0.36029 0.0
O103 O 0.51667 0.61076 0.42318 0.0
H104 H 0.45051 0.37341 0.01908 0.0
H105 H 0.39644 0.26381 0.1336 0.0
H106 H 0.39303 0.26371 0.90124 0.0
C107 C 0.43296 0.34225 0.01917 0.0
C108 C 0.42265 0.32129 0.95274 0.0
C109 C 0.42429 0.3218 0.08504 0.0
C110 C 0.40163 0.28134 0.08379 0.0
C111 C 0.38881 0.26121 0.0178 0.0
C112 C 0.39952 0.28115 0.95216 0.0
N113 N 0.37417 0.2169 0.01761 0.0
C114 C 0.33004 0.20527 0.00958 0.0
H115 H 0.64102 0.4535 0.0286 0.0
H116 H 0.66037 0.33138 0.13938 0.0
H117 H 0.68702 0.33636 0.91199 0.0
C118 C 0.65102 0.41903 0.02732 0.0
C119 C 0.66352 0.39829 0.96114 0.0
C120 C 0.65085 0.39567 0.0923 0.0
C121 C 0.66183 0.35046 0.09041 0.0
C122 C 0.67496 0.32945 0.02561 0.0
C123 C 0.67657 0.35335 0.96146 0.0
N124 N 0.68385 0.28346 0.02483 0.0
C125 C 0.72611 0.26655 0.01296 0.0
H126 H 0.55728 0.62357 0.02344 0.0
H127 H 0.61223 0.74443 0.9443 0.0
H128 H 0.59452 0.72859 0.1725 0.0
C129 C 0.57185 0.65578 0.03374 0.0
C130 C 0.57579 0.67206 0.10537 0.0
C131 C 0.58447 0.68183 0.97515 0.0
C132 C 0.60289 0.72381 0.98895 0.0
C133 C 0.60692 0.74015 0.06048 0.0
C134 C 0.59281 0.71463 0.11787 0.0
N135 N 0.62182 0.78355 0.07609 0.0
C136 C 0.66004 0.80041 0.04641 0.0
H137 H 0.38465 0.56376 0.03854 0.0
H138 H 0.27062 0.61698 0.92983 0.0
H139 H 0.26815 0.60155 0.15987 0.0
C140 C 0.35175 0.57831 0.04139 0.0
C141 C 0.32974 0.58175 0.10813 0.0
C142 C 0.33023 0.58937 0.97666 0.0
C143 C 0.28813 0.60951 0.97953 0.0
C144 C 0.26652 0.61508 0.04653 0.0
C145 C 0.28689 0.60028 0.10986 0.0
N146 N 0.22156 0.62834 0.05005 0.0
C147 C 0.20649 0.66936 0.02793 0.0
H148 H 0.91551 0.87848 0.47192 0.0
H149 H 0.79517 0.84765 0.58326 0.0
H150 H 0.79468 0.85685 0.35175 0.0
C151 C 0.88081 0.86977 0.47009 0.0
C152 C 0.8587 0.86702 0.4029 0.0
C153 C 0.85853 0.86247 0.53542 0.0
C154 C 0.81299 0.85346 0.53353 0.0
C155 C 0.79011 0.85235 0.46731 0.0
C156 C 0.81283 0.85915 0.40243 0.0
N157 N 0.74392 0.84516 0.46529 0.0
C158 C 0.72565 0.80626 0.48966 0.0
H159 H 0.13191 0.91874 0.47179 0.0
H160 H 0.16432 0.79612 0.57439 0.0
H161 H 0.14885 0.79892 0.34338 0.0
C162 C 0.14038 0.88385 0.4676 0.0
C163 C 0.14088 0.86248 0.3991 0.0
C164 C 0.14889 0.86044 0.53118 0.0
C165 C 0.15774 0.81476 0.52598 0.0
C166 C 0.15701 0.79274 0.45824 0.0
C167 C 0.14842 0.81646 0.3953 0.0
N168 N 0.16318 0.74634 0.45262 0.0
C169 C 0.20013 0.7253 0.4812 0.0
H170 H 0.09014 0.10464 0.4799 0.0
H171 H 0.162 0.18816 0.33718 0.0
H172 H 0.17264 0.20905 0.56691 0.0
C173 C 0.11357 0.13106 0.47193 0.0
C174 C 0.12995 0.15524 0.53224 0.0
C175 C 0.12503 0.1425 0.40127 0.0
C176 C 0.15449 0.17728 0.39136 0.0
C177 C 0.17263 0.20028 0.45049 0.0
C178 C 0.16079 0.18914 0.52133 0.0
N179 N 0.19796 0.23806 0.43594 0.0
C180 C 0.23463 0.25144 0.47561 0.0
H181 H 0.87559 0.08042 0.47369 0.0
H182 H 0.85958 0.20439 0.5904 0.0
H183 H 0.86336 0.20252 0.35837 0.0
C184 C 0.87031 0.11591 0.47327 0.0
C185 C 0.86865 0.13786 0.40681 0.0
C186 C 0.86653 0.13932 0.53977 0.0
C187 C 0.86247 0.18564 0.53977 0.0
C188 C 0.86217 0.20809 0.47428 0.0
C189 C 0.86497 0.18438 0.40825 0.0
N190 N 0.85998 0.25481 0.47442 0.0
C191 C 0.82077 0.27711 0.49047 0.0
C192 C 0.22551 0.14796 0.05925 0.0
C193 C 0.20895 0.13528 0.99046 0.0
H194 H 0.27748 0.18073 0.11893 0.0
C195 C 0.23062 0.15035 0.92824 0.0
H196 H 0.20968 0.13707 0.10826 0.0
C197 C 0.2692 0.17543 0.93465 0.0
C198 C 0.28662 0.18606 0.00322 0.0
H199 H 0.21869 0.14151 0.8744 0.0
H200 H 0.28634 0.18501 0.886 0.0
C201 C 0.26418 0.17303 0.06549 0.0
C202 C 0.82628 0.2007 0.06263 0.0
C203 C 0.85041 0.1998 -0.00258 0.0
H204 H 0.76764 0.22311 0.1181 0.0
C205 C 0.8337 0.22315 0.93789 0.0
H206 H 0.83814 0.18322 0.10961 0.0
C207 C 0.79315 0.2459 0.94306 0.0
C208 C 0.76906 0.24573 0.00781 0.0
H209 H 0.85133 0.22298 0.88683 0.0
H210 H 0.78032 0.26292 0.89627 0.0
C211 C 0.78597 0.22351 0.06769 0.0
C212 C 0.74404 0.86415 0.94431 0.0
C213 C 0.77761 0.86908 -0.00292 0.0
H214 H 0.67966 0.83801 0.91904 0.0
C215 C 0.77307 0.84774 0.06362 0.0
H216 H 0.7465 0.8801 0.89251 0.0
C217 C 0.73503 0.82371 0.07824 0.0
C218 C 0.70103 0.82056 0.02671 0.0
H219 H 0.79828 0.85065 0.10537 0.0
H220 H 0.73158 0.80876 0.13077 0.0
C221 C 0.70586 0.84013 0.95923 0.0
C222 C 0.14352 0.75906 0.93523 0.0
C223 C 0.13247 0.7873 -0.0055 0.0
H224 H 0.17629 0.69894 0.89967 0.0
C225 C 0.14981 0.77785 0.06342 0.0
H226 H 0.13088 0.76539 0.88139 0.0
C227 C 0.1759 0.74005 0.07336 0.0
C228 C 0.1852 0.71121 0.01471 0.0
H229 H 0.14218 0.7989 0.11019 0.0
H230 H 0.18755 0.73256 0.12741 0.0
C231 C 0.16959 0.72116 0.9454 0.0
C232 C 0.67638 0.69539 0.45437 0.0
C233 C 0.66152 0.68366 0.52361 0.0
H234 H 0.70858 0.74368 0.3903 0.0
C235 C 0.66977 0.71261 0.58301 0.0
H236 H 0.67088 0.67399 0.40729 0.0
C237 C 0.69152 0.75287 0.57271 0.0
C238 C 0.70536 0.76432 0.50313 0.0
H239 H 0.6587 0.70462 0.63691 0.0
H240 H 0.69695 0.7752 0.61867 0.0
C241 C 0.69806 0.73526 0.44438 0.0
C242 C 0.30263 0.65848 0.45156 0.0
C243 C 0.31813 0.65195 0.52271 0.0
H244 H 0.25299 0.68706 0.38365 0.0
C245 C 0.29402 0.67074 0.5812 0.0
H246 H 0.32029 0.64499 0.40494 0.0
C247 C 0.25507 0.69519 0.56837 0.0
C248 C 0.24011 0.70106 0.49708 0.0
H249 H 0.30505 0.66637 0.63654 0.0
H250 H 0.2367 0.7093 0.61382 0.0
C251 C 0.2641 0.68272 0.43904 0.0
C252 C 0.34654 0.29923 0.46284 0.0
C253 C 0.34839 0.32563 0.52654 0.0
H254 H 0.30826 0.25401 0.39783 0.0
C255 C 0.31502 0.32156 0.57907 0.0
H256 H 0.37186 0.30139 0.42162 0.0
C257 C 0.27845 0.2945 0.565 0.0
C258 C 0.27554 0.2708 0.49905 0.0
H259 H 0.31556 0.34156 0.62861 0.0
H260 H 0.25146 0.29411 0.60356 0.0
C261 C 0.31034 0.27199 0.44931 0.0
C262 C 0.72192 0.33344 0.57567 0.0
C263 C 0.6991 0.34798 0.51379 0.0
H264 H 0.77919 0.29904 0.61655 0.0
C265 C 0.71725 0.33854 0.44479 0.0
H266 H 0.70891 0.34016 0.62951 0.0
C267 C 0.7571 0.31521 0.43778 0.0
C268 C 0.7796 0.3009 0.49938 0.0
H269 H 0.70072 0.34913 0.39586 0.0
H270 H 0.77037 0.30839 0.38407 0.0
C271 C 0.762 0.30998 0.56842 0.0
C272 C 0.03184 0.10934 0.27585 0.0
C273 C 0.05416 0.10328 0.20953 0.0
H274 H 0.0368 0.12618 0.3886 0.0
C275 C 0.10049 0.1048 0.20871 0.0
H276 H 0.99603 0.10784 0.27844 0.0
C277 C 0.12404 0.11464 0.27222 0.0
C278 C 0.10149 0.12329 0.33767 0.0
H279 H 0.11844 0.10059 0.15876 0.0
H280 H 0.15975 0.11729 0.26956 0.0
C281 C 0.05524 0.11921 0.33928 0.0
C282 C 0.8598 0.04315 0.26774 0.0
C283 C 0.88128 0.06037 0.20713 0.0
H284 H 0.83715 0.05418 0.37605 0.0
C285 C 0.89536 0.10446 0.21104 0.0
H286 H 0.84756 0.00954 0.26675 0.0
C287 C 0.89124 0.12972 0.27522 0.0
C288 C 0.87126 0.11199 0.33679 0.0
H289 H 0.91003 0.11962 0.16519 0.0
H290 H 0.90478 0.16277 0.27663 0.0
C291 C 0.85439 0.06872 0.33122 0.0
C292 C 0.95313 0.86404 0.26696 0.0
C293 C 0.93428 0.88498 0.20682 0.0
H294 H 0.94406 0.84035 0.37374 0.0
C295 C 0.88942 0.89742 0.21 0.0
H296 H 0.9874 0.85312 0.26642 0.0
C297 C 0.86471 0.89167 0.27312 0.0
C298 C 0.884 0.87198 0.33412 0.0
H299 H 0.87325 0.91187 0.16424 0.0
H300 H 0.83077 0.90349 0.27425 0.0
C301 C 0.92827 0.85721 0.32926 0.0
C302 C 0.10096 0.89545 0.21181 0.0
C303 C 0.11482 0.93959 0.20866 0.0
H304 H 0.09676 0.83693 0.27421 0.0
C305 C 0.13919 0.95743 0.26735 0.0
H306 H 0.08332 0.88013 0.16745 0.0
C307 C 0.14844 0.93213 0.32806 0.0
C308 C 0.133 0.88844 0.3324 0.0
H309 H 0.15098 0.99119 0.26682 0.0
H310 H 0.16775 0.947 0.37167 0.0
C311 C 0.10946 0.8703 0.27305 0.0
C312 C 0.15749 0.9511 0.67545 0.0
C313 C 0.13404 0.93296 0.7331 0.0
H314 H 0.18177 0.94186 0.5674 0.0
C315 C 0.11837 0.88939 0.72601 0.0
H316 H 0.1705 0.98438 0.67961 0.0
C317 C 0.12447 0.86513 0.66125 0.0
C318 C 0.14655 0.88394 0.60263 0.0
H319 H 0.10024 0.87449 0.76961 0.0
H320 H 0.11041 0.83234 0.65618 0.0
C321 C 0.16386 0.92679 0.61109 0.0
C322 C 0.11521 0.14476 0.73574 0.0
C323 C 0.06884 0.14186 0.74091 0.0
H324 H 0.17118 0.15125 0.66527 0.0
C325 C 0.04328 0.14212 0.67721 0.0
H326 H 0.13578 0.14459 0.78398 0.0
C327 C 0.06344 0.14575 0.6099 0.0
C328 C 0.10971 0.1492 0.60443 0.0
H329 H 0.00751 0.13987 0.6792 0.0
H330 H 0.04254 0.14691 0.5621 0.0
C331 C 0.13547 0.14868 0.66799 0.0
C332 C 0.89368 0.10631 0.73239 0.0
C333 C 0.87146 0.06575 0.73682 0.0
H334 H 0.91002 0.16116 0.66631 0.0
C335 C 0.84634 0.05055 0.67718 0.0
H336 H 0.91331 0.11893 0.77746 0.0
C337 C 0.8441 0.07493 0.61398 0.0
C338 C 0.86713 0.11496 0.60874 0.0
H339 H 0.8286 0.01958 0.67898 0.0
H340 H 0.82435 0.06234 0.56902 0.0
C341 C 0.89158 0.13065 0.6689 0.0
C342 C 0.88979 0.89063 0.73058 0.0
C343 C 0.93316 0.87347 0.73425 0.0
H344 H 0.8323 0.90112 0.66457 0.0
C345 C 0.95088 0.85094 0.67335 0.0
H346 H 0.87515 0.90804 0.77669 0.0
C347 C 0.92616 0.84645 0.60964 0.0
C348 C 0.88326 0.86469 0.6051 0.0
H349 H 0.98404 0.83698 0.67459 0.0
H350 H 0.94078 0.82883 0.56369 0.0
C351 C 0.8651 0.88638 0.66654 0.0
C352 C 0.56365 0.60728 0.8113 0.0
C353 C 0.53645 0.63454 0.76933 0.0
H354 H 0.60087 0.60115 0.90982 0.0
C355 C 0.52916 0.67869 0.79153 0.0
H356 H 0.56821 0.57269 0.79654 0.0
C357 C 0.54769 0.69504 0.85618 0.0
C358 C 0.57298 0.66712 0.90036 0.0
H359 H 0.50778 0.70005 0.76023 0.0
H360 H 0.53987 0.72865 0.87384 0.0
C361 C 0.58174 0.6234 0.87648 0.0
C362 C 0.37364 0.50453 0.84208 0.0
C363 C 0.38262 0.52975 0.78098 0.0
H364 H 0.34988 0.50385 0.95064 0.0
C365 C 0.37355 0.57557 0.78373 0.0
H366 H 0.38008 0.46918 0.84202 0.0
C367 C 0.35581 0.59564 0.84688 0.0
C368 C 0.34771 0.57011 0.90801 0.0
H369 H 0.37975 0.59573 0.73722 0.0
H370 H 0.34903 0.63091 0.84836 0.0
C371 C 0.3565 0.52443 0.9046 0.0
C372 C 0.51051 0.36017 0.82503 0.0
C373 C 0.48583 0.3715 0.76339 0.0
H374 H 0.50962 0.33548 0.93255 0.0
C375 C 0.4397 0.36532 0.76373 0.0
H376 H 0.54607 0.36455 0.82693 0.0
C377 C 0.41871 0.3481 0.82453 0.0
C378 C 0.44358 0.33766 0.88627 0.0
H379 H 0.41987 0.3735 0.71722 0.0
H380 H 0.38314 0.34373 0.82387 0.0
C381 C 0.48963 0.34366 0.88573 0.0
C382 C 0.65403 0.49314 0.8296 0.0
C383 C 0.63909 0.47119 0.76623 0.0
H384 H 0.67608 0.48757 0.93901 0.0
C385 C 0.63848 0.42477 0.76456 0.0
H386 H 0.65611 0.52892 0.83245 0.0
C387 C 0.64776 0.40094 0.82685 0.0
C388 C 0.65983 0.42296 0.89198 0.0
H389 H 0.62963 0.40664 0.71585 0.0
H390 H 0.6435 0.36542 0.82421 0.0
C391 C 0.6649 0.4693 0.8913 0.0
C392 C 0.60024 0.47638 0.23012 0.0
C393 C 0.62637 0.46858 0.29178 0.0
H394 H 0.58645 0.45856 0.11947 0.0
C395 C 0.6586 0.43478 0.28876 0.0
H396 H 0.57469 0.5018 0.23106 0.0
C397 C 0.66566 0.41032 0.22459 0.0
C398 C 0.64048 0.41898 0.16214 0.0
H399 H 0.67919 0.42788 0.33543 0.0
H400 H 0.6919 0.38564 0.22329 0.0
C401 C 0.60713 0.45174 0.16606 0.0
C402 C 0.56416 0.62941 0.29508 0.0
C403 C 0.52173 0.6108 0.29248 0.0
H404 H 0.61507 0.66216 0.23736 0.0
C405 C 0.49939 0.60756 0.22559 0.0
H406 H 0.58248 0.63179 0.34553 0.0
C407 C 0.51793 0.62548 0.16353 0.0
C408 C 0.55921 0.64664 0.16734 0.0
H409 H 0.46671 0.59315 0.22183 0.0
H410 H 0.49886 0.62487 0.11368 0.0
C411 C 0.58278 0.64695 0.23314 0.0
C412 C 0.38926 0.49995 0.22883 0.0
C413 C 0.37876 0.51678 0.29822 0.0
H414 H 0.38081 0.50604 0.11485 0.0
C415 C 0.35434 0.55642 0.30492 0.0
H416 H 0.40783 0.46927 0.22199 0.0
C417 C 0.34013 0.57861 0.24342 0.0
C418 C 0.34904 0.56099 0.17369 0.0
H419 H 0.34581 0.57016 0.35775 0.0
H420 H 0.32161 0.60924 0.25071 0.0
C421 C 0.37412 0.52148 0.16728 0.0
C422 C 0.44324 0.35128 0.2843 0.0
C423 C 0.48639 0.36833 0.28289 0.0
H424 H 0.38917 0.32412 0.22267 0.0
C425 C 0.50803 0.37164 0.21609 0.0
H426 H 0.42564 0.34858 0.33504 0.0
C427 C 0.48751 0.35716 0.15221 0.0
C428 C 0.44448 0.33958 0.15326 0.0
H429 H 0.54143 0.38423 0.21323 0.0
H430 H 0.50615 0.35851 0.10225 0.0
C431 C 0.4224 0.33716 0.22003 0.0
loop_
_geom_bond_atom_site_label_1
_geom_bond_atom_site_label_2
_geom_bond_distance
_geom_bond_site_symmetry_2
_ccdc_geom_bond_type
Zn0 O2 1.933 1_556 S
Zn0 O20 1.985 . S
Zn0 O31 1.955 . S
Zn1 O2 1.911 . S
Zn1 O21 1.970 . S
Zn1 O37 1.945 . S
Zn1 O44 1.981 . S
O2 Zn0 1.933 1_554 S
O2 Zn1 1.911 . S
O2 H3 0.841 1_655 S
H3 O2 0.841 1_455 S
C4 O5 1.246 . S
C4 O33 1.276 1_545 S
O5 C4 1.246 . S
Zn6 O8 1.911 . S
Zn6 O23 1.970 . S
Zn6 O40 1.945 . S
Zn6 O47 1.981 . S
Zn7 O8 1.933 1_556 S
Zn7 O22 1.985 . S
Zn7 O29 1.955 . S
O8 Zn6 1.911 . S
O8 Zn7 1.933 1_554 S
O8 H9 0.841 1_455 S
H9 O8 0.841 1_655 S
Zn10 O11 1.933 1_556 S
Zn10 O24 1.985 . S
Zn10 O33 1.955 . S
O11 Zn10 1.933 1_554 S
O11 Zn12 1.911 . S
O11 H13 0.841 1_565 S
Zn12 O11 1.911 . S
Zn12 O25 1.970 . S
Zn12 O41 1.981 . S
Zn12 O43 1.945 . S
H13 O11 0.841 1_545 S
Zn14 O15 1.933 1_556 S
Zn14 O27 1.985 . S
Zn14 O35 1.955 . S
O15 Zn14 1.933 1_554 S
O15 H16 0.841 1_545 S
O15 Zn17 1.911 . S
H16 O15 0.841 1_565 S
Zn17 O15 1.911 . S
Zn17 O28 1.970 . S
Zn17 O38 1.981 . S
Zn17 O46 1.945 . S
C18 O19 1.246 . S
C18 O35 1.276 1_565 S
O19 C18 1.246 . S
O20 Zn0 1.985 . S
O20 C30 1.245 1_556 S
O21 Zn1 1.970 . S
O21 C30 1.263 . S
O22 Zn7 1.985 . S
O22 C34 1.245 1_556 S
O23 Zn6 1.970 . S
O23 C34 1.263 . S
O24 Zn10 1.985 . S
O24 C39 1.245 1_556 S
O25 Zn12 1.970 . S
O25 C39 1.263 . S
C26 O37 1.262 1_455 S
C26 O38 1.245 . S
O27 Zn14 1.985 . S
O27 C45 1.245 1_556 S
O28 Zn17 1.970 . S
O28 C45 1.263 . S
O29 Zn7 1.955 . S
O29 C48 1.276 1_455 S
C30 O20 1.245 1_554 S
C30 O21 1.263 . S
O31 Zn0 1.955 . S
O31 C50 1.276 1_655 S
C32 O40 1.262 1_655 S
C32 O41 1.245 . S
O33 C4 1.276 1_565 S
O33 Zn10 1.955 . S
C34 O22 1.245 1_554 S
C34 O23 1.263 . S
O35 Zn14 1.955 . S
O35 C18 1.276 1_545 S
C36 O43 1.262 1_545 S
C36 O44 1.245 . S
O37 Zn1 1.945 . S
O37 C26 1.262 1_655 S
O38 Zn17 1.981 . S
O38 C26 1.245 . S
C39 O24 1.245 1_554 S
C39 O25 1.263 . S
O40 Zn6 1.945 . S
O40 C32 1.262 1_455 S
O41 Zn12 1.981 . S
O41 C32 1.245 . S
C42 O46 1.262 1_565 S
C42 O47 1.245 . S
O43 Zn12 1.945 . S
O43 C36 1.262 1_565 S
O44 Zn1 1.981 . S
O44 C36 1.245 . S
C45 O27 1.245 1_554 S
C45 O28 1.263 . S
O46 Zn17 1.945 . S
O46 C42 1.262 1_545 S
O47 Zn6 1.981 . S
O47 C42 1.245 . S
C48 O29 1.276 1_655 S
C48 O49 1.246 . S
O49 C48 1.246 . S
C50 O31 1.276 1_455 S
C50 O51 1.246 . S
O51 C50 1.246 . S
Zn52 O54 1.933 . S
Zn52 O72 1.985 . S
Zn52 O83 1.955 . S
Zn53 O54 1.911 . S
Zn53 O73 1.970 . S
Zn53 O89 1.945 . S
Zn53 O96 1.981 . S
O54 Zn52 1.933 . S
O54 Zn53 1.911 . S
O54 H55 0.841 . S
H55 O54 0.841 . S
C56 O57 1.246 . S
C56 O85 1.276 . S
O57 C56 1.246 . S
Zn58 O60 1.911 . S
Zn58 O75 1.970 . S
Zn58 O92 1.945 . S
Zn58 O99 1.981 . S
Zn59 O60 1.933 . S
Zn59 O74 1.985 . S
Zn59 O81 1.955 . S
O60 Zn58 1.911 . S
O60 Zn59 1.933 . S
O60 H61 0.841 . S
H61 O60 0.841 . S
Zn62 O63 1.933 . S
Zn62 O76 1.985 . S
Zn62 O85 1.955 . S
O63 Zn62 1.933 . S
O63 Zn64 1.911 . S
O63 H65 0.841 . S
Zn64 O63 1.911 . S
Zn64 O77 1.970 . S
Zn64 O93 1.981 . S
Zn64 O95 1.945 . S
H65 O63 0.841 . S
Zn66 O67 1.933 . S
Zn66 O79 1.985 . S
Zn66 O87 1.955 . S
O67 Zn66 1.933 . S
O67 H68 0.841 . S
O67 Zn69 1.911 . S
H68 O67 0.841 . S
Zn69 O67 1.911 . S
Zn69 O80 1.970 . S
Zn69 O90 1.981 . S
Zn69 O98 1.945 . S
C70 O71 1.246 . S
C70 O87 1.276 . S
O71 C70 1.246 . S
O72 Zn52 1.985 . S
O72 C82 1.245 . S
O73 Zn53 1.970 . S
O73 C82 1.263 . S
O74 Zn59 1.985 . S
O74 C86 1.245 . S
O75 Zn58 1.970 . S
O75 C86 1.263 . S
O76 Zn62 1.985 . S
O76 C91 1.245 . S
O77 Zn64 1.970 . S
O77 C91 1.263 . S
C78 O89 1.262 . S
C78 O90 1.245 . S
O79 Zn66 1.985 . S
O79 C97 1.245 . S
O80 Zn69 1.970 . S
O80 C97 1.263 . S
O81 Zn59 1.955 . S
O81 C100 1.276 . S
C82 O72 1.245 . S
C82 O73 1.263 . S
O83 Zn52 1.955 . S
O83 C102 1.276 . S
C84 O92 1.262 . S
C84 O93 1.245 . S
O85 C56 1.276 . S
O85 Zn62 1.955 . S
C86 O74 1.245 . S
C86 O75 1.263 . S
O87 Zn66 1.955 . S
O87 C70 1.276 . S
C88 O95 1.262 . S
C88 O96 1.245 . S
O89 Zn53 1.945 . S
O89 C78 1.262 . S
O90 Zn69 1.981 . S
O90 C78 1.245 . S
C91 O76 1.245 . S
C91 O77 1.263 . S
O92 Zn58 1.945 . S
O92 C84 1.262 . S
O93 Zn64 1.981 . S
O93 C84 1.245 . S
C94 O98 1.262 . S
C94 O99 1.245 . S
O95 Zn64 1.945 . S
O95 C88 1.262 . S
O96 Zn53 1.981 . S
O96 C88 1.245 . S
C97 O79 1.245 . S
C97 O80 1.263 . S
O98 Zn69 1.945 . S
O98 C94 1.262 . S
O99 Zn58 1.981 . S
O99 C94 1.245 . S
C100 O81 1.276 . S
C100 O101 1.246 . S
O101 C100 1.246 . S
C102 O83 1.276 . S
C102 O103 1.246 . S
O103 C102 1.246 . S
H104 C107 0.929 . S
H105 C110 0.929 . S
H106 C112 0.930 . S
C107 H104 0.929 . S
C107 C108 1.398 1_554 S
C107 C109 1.396 . S
C108 C107 1.398 1_556 S
C108 C112 1.407 . S
C109 C107 1.396 . S
C109 C110 1.394 . S
C110 H105 0.929 . S
C110 C109 1.394 . S
C110 C111 1.382 1_554 S
C111 C110 1.382 1_556 S
C111 C112 1.392 . S
C111 N113 1.420 . S
C112 H106 0.930 . S
C112 C108 1.407 . S
C112 C111 1.392 . S
N113 C111 1.420 . S
N113 C114 1.244 1_556 S
C114 N113 1.244 1_554 S
H115 C118 0.929 . S
H116 C121 0.929 . S
H117 C123 0.930 . S
C118 H115 0.929 . S
C118 C119 1.398 1_554 S
C118 C120 1.396 . S
C119 C118 1.398 1_556 S
C119 C123 1.407 . S
C120 C118 1.396 . S
C120 C121 1.394 . S
C121 H116 0.929 . S
C121 C120 1.394 . S
C121 C122 1.373 1_554 S
C122 C121 1.373 1_556 S
C122 C123 1.400 . S
C122 N124 1.422 . S
C123 H117 0.930 . S
C123 C119 1.407 . S
C123 C122 1.400 . S
N124 C122 1.422 . S
N124 C125 1.244 1_556 S
C125 N124 1.244 1_554 S
H126 C129 0.929 . S
H127 C132 0.929 . S
H128 C134 0.930 . S
C129 H126 0.929 . S
C129 C130 1.398 . S
C129 C131 1.396 1_554 S
C130 C129 1.398 . S
C130 C134 1.407 . S
C131 C129 1.396 1_556 S
C131 C132 1.394 . S
C132 H127 0.929 . S
C132 C131 1.394 . S
C132 C133 1.382 1_556 S
C133 C132 1.382 1_554 S
C133 C134 1.392 . S
C133 N135 1.420 . S
C134 H128 0.930 . S
C134 C130 1.407 . S
C134 C133 1.392 . S
N135 C133 1.420 . S
N135 C136 1.244 1_554 S
C136 N135 1.244 1_556 S
H137 C140 0.929 . S
H138 C143 0.929 . S
H139 C145 0.930 . S
C140 H137 0.929 . S
C140 C141 1.398 . S
C140 C142 1.396 1_554 S
C141 C140 1.398 . S
C141 C145 1.407 . S
C142 C140 1.396 1_556 S
C142 C143 1.394 . S
C143 H138 0.929 . S
C143 C142 1.394 . S
C143 C144 1.382 1_556 S
C144 C143 1.382 1_554 S
C144 C145 1.392 . S
C144 N146 1.420 . S
C145 H139 0.930 . S
C145 C141 1.407 . S
C145 C144 1.392 . S
N146 C144 1.420 . S
N146 C147 1.244 1_554 S
C147 N146 1.244 1_556 S
H148 C151 0.929 . S
H149 C154 0.929 . S
H150 C156 0.930 . S
C151 H148 0.929 . S
C151 C152 1.398 . S
C151 C153 1.396 . S
C152 C151 1.398 . S
C152 C156 1.407 . S
C153 C151 1.396 . S
C153 C154 1.394 . S
C154 H149 0.929 . S
C154 C153 1.394 . S
C154 C155 1.382 . S
C155 C154 1.382 . S
C155 C156 1.392 . S
C155 N157 1.420 . S
C156 H150 0.930 . S
C156 C152 1.407 . S
C156 C155 1.392 . S
N157 C155 1.420 . S
N157 C158 1.244 . S
C158 N157 1.244 . S
H159 C162 0.929 . S
H160 C165 0.929 . S
H161 C167 0.930 . S
C162 H159 0.929 . S
C162 C163 1.398 . S
C162 C164 1.396 . S
C163 C162 1.398 . S
C163 C167 1.407 . S
C164 C162 1.396 . S
C164 C165 1.394 . S
C165 H160 0.929 . S
C165 C164 1.394 . S
C165 C166 1.382 . S
C166 C165 1.382 . S
C166 C167 1.392 . S
C166 N168 1.420 . S
C167 H161 0.930 . S
C167 C163 1.407 . S
C167 C166 1.392 . S
N168 C166 1.420 . S
N168 C169 1.244 . S
C169 N168 1.244 . S
H170 C173 0.929 . S
H171 C176 0.929 . S
H172 C178 0.930 . S
C173 H170 0.929 . S
C173 C174 1.398 . S
C173 C175 1.396 . S
C174 C173 1.398 . S
C174 C178 1.407 . S
C175 C173 1.396 . S
C175 C176 1.394 . S
C176 H171 0.929 . S
C176 C175 1.394 . S
C176 C177 1.382 . S
C177 C176 1.382 . S
C177 C178 1.392 . S
C177 N179 1.420 . S
C178 H172 0.930 . S
C178 C174 1.407 . S
C178 C177 1.392 . S
N179 C177 1.420 . S
N179 C180 1.244 . S
C180 N179 1.244 . S
H181 C184 0.929 . S
H182 C187 0.929 . S
H183 C189 0.930 . S
C184 H181 0.929 . S
C184 C185 1.398 . S
C184 C186 1.396 . S
C185 C184 1.398 . S
C185 C189 1.407 . S
C186 C184 1.396 . S
C186 C187 1.394 . S
C187 H182 0.929 . S
C187 C186 1.394 . S
C187 C188 1.382 . S
C188 C187 1.382 . S
C188 C189 1.392 . S
C188 N190 1.420 . S
C189 H183 0.930 . S
C189 C185 1.407 . S
C189 C188 1.392 . S
N190 C188 1.420 . S
N190 C191 1.244 . S
C191 N190 1.244 . S
C192 C193 1.387 . S
C192 H196 0.950 . S
C192 C201 1.390 . S
C193 C192 1.387 . S
C193 C195 1.387 1_554 S
H194 C201 0.950 . S
C195 C193 1.387 1_556 S
C195 C197 1.390 . S
C195 H199 0.950 . S
H196 C192 0.950 . S
C197 C195 1.390 . S
C197 C198 1.387 1_556 S
C197 H200 0.950 . S
C198 C197 1.387 1_554 S
C198 C201 1.387 . S
H199 C195 0.950 . S
H200 C197 0.950 . S
C201 C192 1.390 . S
C201 H194 0.950 . S
C201 C198 1.387 . S
C202 C203 1.387 . S
C202 H206 0.950 . S
C202 C211 1.390 . S
C203 C202 1.387 . S
C203 C205 1.387 1_554 S
H204 C211 0.950 . S
C205 C203 1.387 1_556 S
C205 C207 1.390 . S
C205 H209 0.950 . S
H206 C202 0.950 . S
C207 C205 1.390 . S
C207 C208 1.387 1_556 S
C207 H210 0.950 . S
C208 C207 1.387 1_554 S
C208 C211 1.387 . S
H209 C205 0.950 . S
H210 C207 0.950 . S
C211 C202 1.390 . S
C211 H204 0.950 . S
C211 C208 1.387 . S
C212 C213 1.387 1_556 S
C212 H216 0.950 . S
C212 C221 1.390 . S
C213 C212 1.387 1_554 S
C213 C215 1.387 . S
H214 C221 0.950 . S
C215 C213 1.387 . S
C215 C217 1.390 . S
C215 H219 0.950 . S
H216 C212 0.950 . S
C217 C215 1.390 . S
C217 C218 1.387 . S
C217 H220 0.950 . S
C218 C217 1.387 . S
C218 C221 1.387 1_554 S
H219 C215 0.950 . S
H220 C217 0.950 . S
C221 C212 1.390 . S
C221 H214 0.950 . S
C221 C218 1.387 1_556 S
C222 C223 1.387 1_556 S
C222 H226 0.950 . S
C222 C231 1.390 . S
C223 C222 1.387 1_554 S
C223 C225 1.387 . S
H224 C231 0.950 . S
C225 C223 1.387 . S
C225 C227 1.390 . S
C225 H229 0.950 . S
H226 C222 0.950 . S
C227 C225 1.390 . S
C227 C228 1.387 1_554 S
C227 H230 0.950 . S
C228 C227 1.387 1_556 S
C228 C231 1.387 . S
H229 C225 0.950 . S
H230 C227 0.950 . S
C231 C222 1.390 . S
C231 H224 0.950 . S
C231 C228 1.387 . S
C232 C233 1.387 . S
C232 H236 0.950 . S
C232 C241 1.390 . S
C233 C232 1.387 . S
C233 C235 1.387 . S
H234 C241 0.950 . S
C235 C233 1.387 . S
C235 C237 1.390 . S
C235 H239 0.950 . S
H236 C232 0.950 . S
C237 C235 1.390 . S
C237 C238 1.387 . S
C237 H240 0.950 . S
C238 C237 1.387 . S
C238 C241 1.387 . S
H239 C235 0.950 . S
H240 C237 0.950 . S
C241 C232 1.390 . S
C241 H234 0.950 . S
C241 C238 1.387 . S
C242 C243 1.387 . S
C242 H246 0.950 . S
C242 C251 1.390 . S
C243 C242 1.387 . S
C243 C245 1.387 . S
H244 C251 0.950 . S
C245 C243 1.387 . S
C245 C247 1.390 . S
C245 H249 0.950 . S
H246 C242 0.950 . S
C247 C245 1.390 . S
C247 C248 1.387 . S
C247 H250 0.950 . S
C248 C247 1.387 . S
C248 C251 1.387 . S
H249 C245 0.950 . S
H250 C247 0.950 . S
C251 C242 1.390 . S
C251 H244 0.950 . S
C251 C248 1.387 . S
C252 C253 1.387 . S
C252 H256 0.950 . S
C252 C261 1.390 . S
C253 C252 1.387 . S
C253 C255 1.387 . S
H254 C261 0.950 . S
C255 C253 1.387 . S
C255 C257 1.390 . S
C255 H259 0.950 . S
H256 C252 0.950 . S
C257 C255 1.390 . S
C257 C258 1.387 . S
C257 H260 0.950 . S
C258 C257 1.387 . S
C258 C261 1.387 . S
H259 C255 0.950 . S
H260 C257 0.950 . S
C261 C252 1.390 . S
C261 H254 0.950 . S
C261 C258 1.387 . S
C262 C263 1.387 . S
C262 H266 0.950 . S
C262 C271 1.390 . S
C263 C262 1.387 . S
C263 C265 1.387 . S
H264 C271 0.950 . S
C265 C263 1.387 . S
C265 C267 1.390 . S
C265 H269 0.950 . S
H266 C262 0.950 . S
C267 C265 1.390 . S
C267 C268 1.387 . S
C267 H270 0.950 . S
C268 C267 1.387 . S
C268 C271 1.387 . S
H269 C265 0.950 . S
H270 C267 0.950 . S
C271 C262 1.390 . S
C271 H264 0.950 . S
C271 C268 1.387 . S
C272 C273 1.387 . S
C272 H276 0.950 1_455 S
C272 C281 1.390 . S
C273 C272 1.387 . S
C273 C275 1.387 . S
H274 C281 0.950 . S
C275 C273 1.387 . S
C275 C277 1.390 . S
C275 H279 0.950 . S
H276 C272 0.950 1_655 S
C277 C275 1.390 . S
C277 C278 1.387 . S
C277 H280 0.950 . S
C278 C277 1.387 . S
C278 C281 1.387 . S
H279 C275 0.950 . S
H280 C277 0.950 . S
C281 C272 1.390 . S
C281 H274 0.950 . S
C281 C278 1.387 . S
C282 C283 1.387 . S
C282 H286 0.950 1_545 S
C282 C291 1.390 . S
C283 C282 1.387 . S
C283 C285 1.387 . S
H284 C291 0.940 1_565 S
C285 C283 1.387 . S
C285 C287 1.390 . S
C285 H289 0.950 . S
H286 C282 0.950 1_565 S
C287 C285 1.390 . S
C287 C288 1.387 . S
C287 H290 0.950 . S
C288 C287 1.387 . S
C288 C291 1.387 . S
H289 C285 0.950 . S
H290 C287 0.950 . S
C291 C282 1.390 . S
C291 H284 0.940 1_545 S
C291 C288 1.387 . S
C292 C293 1.387 . S
C292 H296 0.950 1_655 S
C292 C301 1.390 . S
C293 C292 1.387 . S
C293 C295 1.387 . S
H294 C301 0.950 1_455 S
C295 C293 1.387 . S
C295 C297 1.390 . S
C295 H299 0.950 . S
H296 C292 0.950 1_455 S
C297 C295 1.390 . S
C297 C298 1.387 . S
C297 H300 0.950 . S
C298 C297 1.387 . S
C298 C301 1.387 . S
H299 C295 0.950 . S
H300 C297 0.950 . S
C301 C292 1.390 . S
C301 H294 0.950 1_655 S
C301 C298 1.387 . S
C302 C303 1.387 . S
C302 H306 0.950 . S
C302 C311 1.390 . S
C303 C302 1.387 . S
C303 C305 1.387 . S
H304 C311 0.950 . S
C305 C303 1.387 . S
C305 C307 1.390 . S
C305 H309 0.950 1_565 S
H306 C302 0.950 . S
C307 C305 1.390 . S
C307 C308 1.387 . S
C307 H310 0.950 1_565 S
C308 C307 1.387 . S
C308 C311 1.387 . S
H309 C305 0.950 1_545 S
H310 C307 0.950 1_545 S
C311 C302 1.390 . S
C311 H304 0.950 . S
C311 C308 1.387 . S
C312 C313 1.387 . S
C312 H316 0.950 1_565 S
C312 C321 1.390 . S
C313 C312 1.387 . S
C313 C315 1.387 . S
H314 C321 0.950 . S
C315 C313 1.387 . S
C315 C317 1.390 . S
C315 H319 0.950 . S
H316 C312 0.950 1_545 S
C317 C315 1.390 . S
C317 C318 1.387 . S
C317 H320 0.950 . S
C318 C317 1.387 . S
C318 C321 1.387 . S
H319 C315 0.950 . S
H320 C317 0.950 . S
C321 C312 1.390 . S
C321 H314 0.950 . S
C321 C318 1.387 . S
C322 C323 1.387 . S
C322 H326 0.950 . S
C322 C331 1.390 . S
C323 C322 1.387 . S
C323 C325 1.387 . S
H324 C331 0.950 . S
C325 C323 1.387 . S
C325 C327 1.390 . S
C325 H329 0.950 1_455 S
H326 C322 0.950 . S
C327 C325 1.390 . S
C327 C328 1.387 . S
C327 H330 0.950 1_455 S
C328 C327 1.387 . S
C328 C331 1.387 . S
H329 C325 0.950 1_655 S
H330 C327 0.950 1_655 S
C331 C322 1.390 . S
C331 H324 0.950 . S
C331 C328 1.387 . S
C332 C333 1.387 . S
C332 H336 0.950 . S
C332 C341 1.390 . S
C333 C332 1.387 . S
C333 C335 1.387 . S
H334 C341 0.950 . S
C335 C333 1.387 . S
C335 C337 1.390 . S
C335 H339 0.950 1_545 S
H336 C332 0.950 . S
C337 C335 1.390 . S
C337 C338 1.387 . S
C337 H340 0.950 . S
C338 C337 1.387 . S
C338 C341 1.387 . S
H339 C335 0.950 1_565 S
H340 C337 0.950 . S
C341 C332 1.390 . S
C341 H334 0.950 . S
C341 C338 1.387 . S
C342 C343 1.387 . S
C342 H346 0.950 . S
C342 C351 1.390 . S
C343 C342 1.387 . S
C343 C345 1.387 . S
H344 C351 0.950 . S
C345 C343 1.387 . S
C345 C347 1.390 . S
C345 H349 0.950 1_655 S
H346 C342 0.950 . S
C347 C345 1.390 . S
C347 C348 1.387 . S
C347 H350 0.950 . S
C348 C347 1.387 . S
C348 C351 1.387 . S
H349 C345 0.950 1_455 S
H350 C347 0.950 . S
C351 C342 1.390 . S
C351 H344 0.950 . S
C351 C348 1.387 . S
C352 C353 1.387 . S
C352 H356 0.950 . S
C352 C361 1.390 . S
C353 C352 1.387 . S
C353 C355 1.387 . S
H354 C361 0.950 . S
C355 C353 1.387 . S
C355 C357 1.390 . S
C355 H359 0.950 . S
H356 C352 0.950 . S
C357 C355 1.390 . S
C357 C358 1.387 . S
C357 H360 0.950 . S
C358 C357 1.387 . S
C358 C361 1.387 . S
H359 C355 0.950 . S
H360 C357 0.950 . S
C361 C352 1.390 . S
C361 H354 0.950 . S
C361 C358 1.387 . S
C362 C363 1.387 . S
C362 H366 0.950 . S
C362 C371 1.390 . S
C363 C362 1.387 . S
C363 C365 1.387 . S
H364 C371 0.950 . S
C365 C363 1.387 . S
C365 C367 1.390 . S
C365 H369 0.950 . S
H366 C362 0.950 . S
C367 C365 1.390 . S
C367 C368 1.387 . S
C367 H370 0.950 . S
C368 C367 1.387 . S
C368 C371 1.387 . S
H369 C365 0.950 . S
H370 C367 0.950 . S
C371 C362 1.390 . S
C371 H364 0.950 . S
C371 C368 1.387 . S
C372 C373 1.387 . S
C372 H376 0.950 . S
C372 C381 1.390 . S
C373 C372 1.387 . S
C373 C375 1.387 . S
H374 C381 0.950 . S
C375 C373 1.387 . S
C375 C377 1.390 . S
C375 H379 0.950 . S
H376 C372 0.950 . S
C377 C375 1.390 . S
C377 C378 1.387 . S
C377 H380 0.950 . S
C378 C377 1.387 . S
C378 C381 1.387 . S
H379 C375 0.950 . S
H380 C377 0.950 . S
C381 C372 1.390 . S
C381 H374 0.950 . S
C381 C378 1.387 . S
C382 C383 1.387 . S
C382 H386 0.950 . S
C382 C391 1.390 . S
C383 C382 1.387 . S
C383 C385 1.387 . S
H384 C391 0.950 . S
C385 C383 1.387 . S
C385 C387 1.390 . S
C385 H389 0.950 . S
H386 C382 0.950 . S
C387 C385 1.390 . S
C387 C388 1.387 . S
C387 H390 0.950 . S
C388 C387 1.387 . S
C388 C391 1.387 . S
H389 C385 0.950 . S
H390 C387 0.950 . S
C391 C382 1.390 . S
C391 H384 0.950 . S
C391 C388 1.387 . S
C392 C393 1.387 . S
C392 H396 0.950 . S
C392 C401 1.390 . S
C393 C392 1.387 . S
C393 C395 1.387 . S
H394 C401 0.950 . S
C395 C393 1.387 . S
C395 C397 1.390 . S
C395 H399 0.950 . S
H396 C392 0.950 . S
C397 C395 1.390 . S
C397 C398 1.387 . S
C397 H400 0.950 . S
C398 C397 1.387 . S
C398 C401 1.387 . S
H399 C395 0.950 . S
H400 C397 0.950 . S
C401 C392 1.390 . S
C401 H394 0.950 . S
C401 C398 1.387 . S
C402 C403 1.387 . S
C402 H406 0.950 . S
C402 C411 1.390 . S
C403 C402 1.387 . S
C403 C405 1.387 . S
H404 C411 0.950 . S
C405 C403 1.387 . S
C405 C407 1.390 . S
C405 H409 0.950 . S
H406 C402 0.950 . S
C407 C405 1.390 . S
C407 C408 1.387 . S
C407 H410 0.950 . S
C408 C407 1.387 . S
C408 C411 1.387 . S
H409 C405 0.950 . S
H410 C407 0.950 . S
C411 C402 1.390 . S
C411 H404 0.950 . S
C411 C408 1.387 . S
C412 C413 1.387 . S
C412 H416 0.950 . S
C412 C421 1.390 . S
C413 C412 1.387 . S
C413 C415 1.387 . S
H414 C421 0.950 . S
C415 C413 1.387 . S
C415 C417 1.390 . S
C415 H419 0.950 . S
H416 C412 0.950 . S
C417 C415 1.390 . S
C417 C418 1.387 . S
C417 H420 0.950 . S
C418 C417 1.387 . S
C418 C421 1.387 . S
H419 C415 0.950 . S
H420 C417 0.950 . S
C421 C412 1.390 . S
C421 H414 0.950 . S
C421 C418 1.387 . S
C422 C423 1.387 . S
C422 H426 0.950 . S
C422 C431 1.390 . S
C423 C422 1.387 . S
C423 C425 1.387 . S
H424 C431 0.950 . S
C425 C423 1.387 . S
C425 C427 1.390 . S
C425 H429 0.950 . S
H426 C422 0.950 . S
C427 C425 1.390 . S
C427 C428 1.387 . S
C427 H430 0.950 . S
C428 C427 1.387 . S
C428 C431 1.387 . S
H429 C425 0.950 . S
H430 C427 0.950 . S
C431 C422 1.390 . S
C431 H424 0.950 . S
C431 C428 1.387 . S
C193 C45 1.551 . S
C198 C114 1.564 . S
C203 C30 1.553 . S
C208 C125 1.567 . S
C213 C39 1.549 . S
C218 C136 1.553 1_554 S
C228 C147 1.554 . S
C223 C34 1.550 . S
C233 C97 1.549 . S
C238 C158 1.562 . S
C248 C169 1.562 . S
C243 C82 1.549 . S
C258 C180 1.554 . S
C253 C91 1.550 . S
C268 C191 1.570 . S
C263 C86 1.555 . S
C278 C175 1.545 . S
C273 C26 1.504 . S
C288 C185 1.466 . S
C283 C36 1.424 . S
C298 C152 1.539 . S
C293 C32 1.497 . S
C308 C163 1.506 . S
C303 C42 1.469 . S
C313 C18 1.566 . S
C318 C164 1.620 . S
C328 C174 1.598 . S
C323 C50 1.521 . S
C333 C4 1.606 . S
C338 C186 1.653 . S
C343 C48 1.530 . S
C348 C153 1.579 . S
C358 C131 1.528 . S
C353 C78 1.488 . S
C363 C88 1.500 . S
C368 C142 1.546 . S
C378 C108 1.513 . S
C373 C84 1.469 . S
C388 C119 1.495 . S
C383 C94 1.456 . S
C398 C120 1.627 . S
C393 C70 1.574 . S
C408 C130 1.617 . S
C403 C102 1.538 . S
C413 C56 1.526 . S
C418 C141 1.597 . S
C423 C100 1.557 . S
C428 C109 1.605 . S
