# Generated by pormake.
# Topology anh, (6,3)-cn, num edge types: 1
# Building blocks:
#     Node 0, Type 0, BuildingBlock: CUKXOW_clean_sbu_0, # of connection points: 6
#     Node 1, Type 0, BuildingBlock: CUKXOW_clean_sbu_0, # of connection points: 6
#     Node 2, Type 0, BuildingBlock: CUKXOW_clean_sbu_0, # of connection points: 6
#     Node 3, Type 1, BuildingBlock: PAMTOO_clean_linker_0, # of connection points: 3
#     Node 4, Type 1, BuildingBlock: PAMTOO_clean_linker_0, # of connection points: 3
#     Node 5, Type 1, BuildingBlock: PAMTOO_clean_linker_0, # of connection points: 3
#     Node 6, Type 1, BuildingBlock: PAMTOO_clean_linker_0, # of connection points: 3
#     Node 7, Type 1, BuildingBlock: PAMTOO_clean_linker_0, # of connection points: 3
#     Node 8, Type 1, BuildingBlock: PAMTOO_clean_linker_0, # of connection points: 3
#     Edge 9, Type (0, 1), BuildingBlock: KIFKEQ_clean_linker_1, # of connection points: 2
#     Edge 10, Type (0, 1), BuildingBlock: KIFKEQ_clean_linker_1, # of connection points: 2
#     Edge 11, Type (0, 1), BuildingBlock: KIFKEQ_clean_linker_1, # of connection points: 2
#     Edge 12, Type (0, 1), BuildingBlock: KIFKEQ_clean_linker_1, # of connection points: 2
#     Edge 13, Type (0, 1), BuildingBlock: KIFKEQ_clean_linker_1, # of connection points: 2
#     Edge 14, Type (0, 1), BuildingBlock: KIFKEQ_clean_linker_1, # of connection points: 2
#     Edge 15, Type (0, 1), BuildingBlock: KIFKEQ_clean_linker_1, # of connection points: 2
#     Edge 16, Type (0, 1), BuildingBlock: KIFKEQ_clean_linker_1, # of connection points: 2
#     Edge 17, Type (0, 1), BuildingBlock: KIFKEQ_clean_linker_1, # of connection points: 2
#     Edge 18, Type (0, 1), BuildingBlock: KIFKEQ_clean_linker_1, # of connection points: 2
#     Edge 19, Type (0, 1), BuildingBlock: KIFKEQ_clean_linker_1, # of connection points: 2
#     Edge 20, Type (0, 1), BuildingBlock: KIFKEQ_clean_linker_1, # of connection points: 2
#     Edge 21, Type (0, 1), BuildingBlock: KIFKEQ_clean_linker_1, # of connection points: 2
#     Edge 22, Type (0, 1), BuildingBlock: KIFKEQ_clean_linker_1, # of connection points: 2
#     Edge 23, Type (0, 1), BuildingBlock: KIFKEQ_clean_linker_1, # of connection points: 2
#     Edge 24, Type (0, 1), BuildingBlock: KIFKEQ_clean_linker_1, # of connection points: 2
#     Edge 25, Type (0, 1), BuildingBlock: KIFKEQ_clean_linker_1, # of connection points: 2
#     Edge 26, Type (0, 1), BuildingBlock: KIFKEQ_clean_linker_1, # of connection points: 2
# Relax obj value: 0.106
# Max RMSD: 0.156
# Mean RMSD: 0.125
data_MOF--net-anh--node1-CUKXOW_clean_sbu_0--node2-PAMTOO_clean_linker_0--edge1-KIFKEQ_clean_linker_1
_symmetry_space_group_name_H-M    P1
_symmetry_Int_Tables_number       1
_symmetry_cell_setting            triclinic
loop_
_symmetry_equiv_pos_as_xyz
'x, y, z'
_cell_length_a     29.063536
_cell_length_b     28.325366
_cell_length_c     48.970525
_cell_angle_alpha  94.31425
_cell_angle_beta   90.129397
_cell_angle_gamma 112.13797
loop_
_atom_site_label
_atom_site_type_symbol
_atom_site_fract_x
_atom_site_fract_y
_atom_site_fract_z
_atom_type_partial_charge
Tb0 Tb 0.12325 0.5572 0.15383 0.0
C1 C 0.08352 0.51454 0.21042 0.0
Tb2 Tb 0.0536 0.43828 0.15661 0.0
O3 O 0.06156 0.58562 0.15359 0.0
O4 O 0.04761 0.50957 0.15369 0.0
O5 O 0.11914 0.5499 0.19785 0.0
C6 C 0.97489 0.35192 0.16003 0.0
O7 O 0.04991 0.47297 0.19733 0.0
C8 C 0.15082 0.45536 0.15843 0.0
C9 C 0.09367 0.47984 0.09984 0.0
O10 O 1.01058 0.37215 0.17841 0.0
O11 O 0.98367 0.38012 0.1394 0.0
O12 O 0.11547 0.41061 0.15962 0.0
O13 O 0.12907 0.48588 0.15641 0.0
O14 O 0.05899 0.44406 0.11274 0.0
O15 O 0.12543 0.52364 0.11227 0.0
C16 C 0.20335 0.64344 0.15443 0.0
O17 O 0.16706 0.62875 0.1362 0.0
O18 O 0.19452 0.6095 0.17219 0.0
C19 C 1.02604 0.54068 0.1537 0.0
Tb20 Tb 0.54509 1.00138 0.50031 0.0
C21 C 0.59929 0.02907 0.44419 0.0
Tb22 Tb 0.65346 0.07595 0.50204 0.0
O23 O 0.52145 0.06219 0.51782 0.0
O24 O 0.58355 0.07944 0.4939 0.0
O25 O 0.55971 0.99852 0.45659 0.0
C26 C 0.73654 0.15763 0.49871 0.0
O27 O 0.6387 0.06372 0.45783 0.0
C28 C 0.63996 0.98104 0.51044 0.0
C29 C 0.60024 0.04584 0.55695 0.0
O30 O 0.73061 0.11116 0.49001 0.0
O31 O 0.69579 0.15802 0.50929 0.0
O32 O 0.67764 0.02053 0.5206 0.0
O33 O 0.61497 0.99593 0.49465 0.0
O34 O 0.63312 0.08351 0.54449 0.0
O35 O 0.56715 1.00513 0.54317 0.0
C36 C 0.46125 0.91905 0.49654 0.0
O37 O 0.50058 0.92445 0.51103 0.0
O38 O 0.469 0.96013 0.48403 0.0
C39 C 0.55914 0.09884 0.50884 0.0
Tb40 Tb 0.56095 0.5622 0.83646 0.0
C41 C 0.62338 0.58422 0.89196 0.0
Tb42 Tb 0.67367 0.58095 0.83524 0.0
O43 O 0.5436 0.48403 0.81802 0.0
O44 O 0.6066 0.52036 0.84278 0.0
O45 O 0.58478 0.58839 0.87919 0.0
C46 C 0.75041 0.55248 0.83198 0.0
O47 O 0.65926 0.57497 0.87863 0.0
C48 C 0.66084 0.66812 0.83428 0.0
C49 C 0.61267 0.57321 0.78016 0.0
O50 O 0.74646 0.58661 0.85013 0.0
O51 O 0.71184 0.53558 0.81535 0.0
O52 O 0.70439 0.66478 0.83364 0.0
O53 O 0.62902 0.62368 0.83538 0.0
O54 O 0.65119 0.5672 0.79186 0.0
O55 O 0.57638 0.57983 0.79431 0.0
C56 C 0.46733 0.55347 0.84276 0.0
O57 O 0.4962 0.57788 0.824 0.0
O58 O 0.49201 0.53582 0.85843 0.0
C59 C 0.58405 0.48102 0.82723 0.0
H60 H 0.68688 0.07658 0.24202 0.0
H61 H 0.54121 0.95891 0.22664 0.0
H62 H 0.62548 0.03367 0.15968 0.0
H63 H 0.5098 0.99398 0.14672 0.0
C64 C 0.50251 0.97596 0.16648 0.0
O65 O 0.54224 0.96348 0.17359 0.0
H66 H 0.49734 1.00415 0.18209 0.0
C67 C 0.65704 0.05261 0.22787 0.0
C68 C 0.66177 0.05902 0.19972 0.0
C69 C 0.61359 0.01701 0.23799 0.0
C70 C 0.57476 0.98723 0.21942 0.0
C71 C 0.57916 0.99342 0.19131 0.0
C72 C 0.62237 0.02947 0.18149 0.0
H73 H 0.59865 0.64455 0.57742 0.0
H74 H 0.60394 0.49459 0.56299 0.0
H75 H 0.61699 0.58778 0.496 0.0
H76 H 0.57909 0.46404 0.47475 0.0
C77 C 0.57605 0.46029 0.49715 0.0
O78 O 0.61578 0.49948 0.51051 0.0
H79 H 0.54014 0.46316 0.50314 0.0
C80 C 0.60078 0.61379 0.56357 0.0
C81 C 0.60655 0.62099 0.53559 0.0
C82 C 0.60032 0.56867 0.57393 0.0
C83 C 0.60481 0.53004 0.55564 0.0
C84 C 0.61049 0.53675 0.52764 0.0
C85 C 0.61197 0.58249 0.51763 0.0
H86 H 0.98841 0.41307 0.90564 0.0
H87 H 0.11793 0.38348 0.88228 0.0
H88 H 0.99954 0.35466 0.82318 0.0
H89 H 0.09347 0.3005 0.80663 0.0
C90 C 0.10848 0.32342 0.82633 0.0
O91 O 0.08932 0.36097 0.83014 0.0
H92 H 0.09822 0.29709 0.84307 0.0
C93 C 1.00773 0.39832 0.89046 0.0
C94 C 0.98785 0.38376 0.86358 0.0
C95 C 0.05398 0.39708 0.89765 0.0
C96 C 0.08081 0.38159 0.87753 0.0
C97 C 0.06055 0.36587 0.85078 0.0
C98 C 1.01362 0.36518 0.84419 0.0
H99 H 1.00717 0.44395 0.4115 0.0
H100 H 0.14559 0.57275 0.4273 0.0
H101 H 0.06811 0.48968 0.49375 0.0
H102 H 0.13427 0.60071 0.51632 0.0
C103 C 0.14162 0.6088 0.49457 0.0
O104 O 0.14574 0.56666 0.48033 0.0
H105 H 0.10988 0.61694 0.48621 0.0
C106 C 1.03616 0.46944 0.42566 0.0
C107 C 1.03264 0.46213 0.45371 0.0
C108 C 0.07701 0.50879 0.41571 0.0
C109 C 0.11373 0.5421 0.43441 0.0
C110 C 0.11022 0.53501 0.46245 0.0
C111 C 0.07025 0.49474 0.47201 0.0
H112 H 0.60702 0.96898 0.75772 0.0
H113 H 0.63448 0.12874 0.77438 0.0
H114 H 0.64253 0.04021 0.84014 0.0
H115 H 0.62942 0.14621 0.86463 0.0
C116 C 0.61792 0.14301 0.84271 0.0
O117 O 0.65198 0.13101 0.82693 0.0
H118 H 0.58031 0.11187 0.84018 0.0
C119 C 0.61471 1.00191 0.77235 0.0
C120 C 0.62353 0.99802 0.8002 0.0
C121 C 0.61879 0.04884 0.76281 0.0
C122 C 0.63103 0.09222 0.78142 0.0
C123 C 0.63924 0.0888 0.80922 0.0
C124 C 0.63577 0.04201 0.81855 0.0
H125 H 0.69888 0.53118 0.09008 0.0
H126 H 0.55518 0.5381 0.10321 0.0
H127 H 0.63167 0.50133 0.16861 0.0
H128 H 0.50977 0.44573 0.16855 0.0
C129 C 0.5057 0.46979 0.15252 0.0
O130 O 0.54843 0.51398 0.15335 0.0
H131 H 0.50152 0.44686 0.13251 0.0
C132 C 0.66827 0.52776 0.10344 0.0
C133 C 0.67099 0.5153 0.1305 0.0
C134 C 0.62692 0.53616 0.09338 0.0
C135 C 0.58719 0.53139 0.1106 0.0
C136 C 0.58815 0.51825 0.13751 0.0
C137 C 0.6305 0.51081 0.14768 0.0
H138 H 0.19373 0.3914 0.17357 0.0
H139 H 0.23098 0.54125 0.145 0.0
H140 H 0.28088 0.40269 0.1739 0.0
H141 H 0.31952 0.55295 0.14533 0.0
H142 H 0.46129 0.51456 0.11804 0.0
H143 H 0.37804 0.51783 0.12083 0.0
H144 H 0.35954 0.45118 0.19844 0.0
H145 H 0.44209 0.4478 0.19548 0.0
C146 C 0.22072 0.42713 0.16755 0.0
C147 C 0.2052 0.46554 0.15947 0.0
C148 C 0.27099 0.43377 0.1679 0.0
C149 C 0.30781 0.47894 0.15988 0.0
C150 C 0.29238 0.51759 0.15163 0.0
C151 C 0.24168 0.51112 0.15163 0.0
C152 C 0.43978 0.50176 0.13597 0.0
C153 C 0.45847 0.48089 0.15651 0.0
C154 C 0.39198 0.50358 0.13759 0.0
C155 C 0.36141 0.48411 0.15969 0.0
C156 C 0.38137 0.4657 0.18085 0.0
C157 C 0.42904 0.46415 0.17929 0.0
H158 H 0.74683 0.25685 0.50799 0.0
H159 H 0.82692 0.16096 0.48221 0.0
H160 H 0.81987 0.33292 0.50002 0.0
H161 H 0.90009 0.23707 0.47438 0.0
H162 H 1.03438 0.38991 0.48705 0.0
H163 H 0.96331 0.31693 0.50103 0.0
H164 H 0.86379 0.36671 0.45634 0.0
H165 H 0.93467 0.43946 0.44243 0.0
C166 C 0.78025 0.25217 0.50088 0.0
C167 C 0.78143 0.20326 0.49559 0.0
C168 C 0.82185 0.29557 0.49624 0.0
C169 C 0.86545 0.29072 0.48657 0.0
C170 C 0.86704 0.2418 0.48208 0.0
C171 C 0.82521 0.19835 0.4864 0.0
C172 C 0.99721 0.38542 0.48053 0.0
C173 C 0.9898 0.42 0.46363 0.0
C174 C 0.95673 0.34364 0.48836 0.0
C175 C 0.90822 0.33632 0.47972 0.0
C176 C 0.9008 0.37176 0.46345 0.0
C177 C 0.94126 0.41306 0.45534 0.0
H178 H 0.72991 0.76295 0.83065 0.0
H179 H 0.57152 0.68028 0.83341 0.0
H180 H 0.71693 0.84169 0.82548 0.0
H181 H 0.55816 0.75992 0.8288 0.0
H182 H 0.55925 0.90028 0.78392 0.0
H183 H 0.56538 0.82016 0.79467 0.0
H184 H 0.69146 0.9042 0.84925 0.0
H185 H 0.68702 0.98427 0.83743 0.0
C186 C 0.69223 0.76181 0.83043 0.0
C187 C 0.6517 0.71559 0.83237 0.0
C188 C 0.68476 0.80708 0.82769 0.0
C189 C 0.6365 0.80736 0.8269 0.0
C190 C 0.59581 0.76101 0.82913 0.0
C191 C 0.60337 0.71549 0.83188 0.0
C192 C 0.58832 0.90168 0.79821 0.0
C193 C 0.62305 0.9489 0.8095 0.0
C194 C 0.59142 0.85563 0.80465 0.0
C195 C 0.62926 0.85567 0.8226 0.0
C196 C 0.6624 0.90276 0.83494 0.0
C197 C 0.65944 0.94876 0.82843 0.0
H198 H 0.98438 0.61138 0.16203 0.0
H199 H 0.9445 0.44878 0.147 0.0
H200 H 0.89692 0.59949 0.1607 0.0
H201 H 0.85611 0.43647 0.14557 0.0
H202 H 0.71428 0.45273 0.10652 0.0
H203 H 0.79757 0.45423 0.11542 0.0
H204 H 0.81786 0.56649 0.18374 0.0
H205 H 0.73418 0.56494 0.17461 0.0
C206 C 0.95682 0.57284 0.15868 0.0
C207 C 0.97172 0.53102 0.15454 0.0
C208 C 0.90638 0.56597 0.15811 0.0
C209 C 0.86887 0.51698 0.15308 0.0
C210 C 0.88373 0.47487 0.14932 0.0
C211 C 0.93447 0.48179 0.15024 0.0
C212 C 0.7361 0.4769 0.12385 0.0
C213 C 0.71735 0.5087 0.13986 0.0
C214 C 0.784 0.4777 0.129 0.0
C215 C 0.81513 0.51086 0.15016 0.0
C216 C 0.79543 0.5409 0.16703 0.0
C217 C 0.74713 0.53962 0.16204 0.0
H218 H 0.43938 0.83699 0.52632 0.0
H219 H 0.37885 0.899 0.4639 0.0
H220 H 0.36207 0.76241 0.52543 0.0
H221 H 0.30179 0.82325 0.46212 0.0
H222 H 0.15314 0.70787 0.48851 0.0
H223 H 0.23039 0.78292 0.48855 0.0
H224 H 0.31431 0.6871 0.49804 0.0
H225 H 0.237 0.61279 0.49922 0.0
C226 C 0.40955 0.83433 0.51222 0.0
C227 C 0.41484 0.87361 0.49521 0.0
C228 C 0.36536 0.79144 0.51156 0.0
C229 C 0.3257 0.78669 0.49364 0.0
C230 C 0.33131 0.82602 0.47644 0.0
C231 C 0.37547 0.8692 0.4773 0.0
C232 C 0.18822 0.70304 0.49044 0.0
C233 C 0.18926 0.65453 0.49331 0.0
C234 C 0.23245 0.74589 0.49031 0.0
C235 C 0.27862 0.74105 0.49314 0.0
C236 C 0.27946 0.69236 0.49611 0.0
C237 C 0.23524 0.64968 0.49649 0.0
H238 H 0.53712 0.39394 0.79449 0.0
H239 H 0.65547 0.46231 0.85568 0.0
H240 H 0.54931 0.3133 0.79426 0.0
H241 H 0.66686 0.38129 0.85621 0.0
H242 H 0.69563 0.23518 0.84047 0.0
H243 H 0.69211 0.31826 0.83291 0.0
H244 H 0.53197 0.24697 0.82415 0.0
H245 H 0.53605 0.16429 0.83075 0.0
C246 C 0.56592 0.39168 0.80781 0.0
C247 C 0.595 0.43409 0.82529 0.0
C248 C 0.57274 0.34541 0.80783 0.0
C249 C 0.60857 0.34038 0.82552 0.0
C250 C 0.63914 0.38369 0.84217 0.0
C251 C 0.63247 0.43011 0.84201 0.0
C252 C 0.65988 0.23744 0.83643 0.0
C253 C 0.61618 0.19334 0.83585 0.0
C254 C 0.65775 0.28499 0.83235 0.0
C255 C 0.61175 0.28948 0.82787 0.0
C256 C 0.56815 0.24501 0.82698 0.0
C257 C 0.57036 0.19756 0.83092 0.0
H258 H 0.56705 0.89535 0.48625 0.0
H259 H 0.70037 0.9452 0.53762 0.0
H260 H 0.55745 0.80617 0.48904 0.0
H261 H 0.69169 0.85615 0.53962 0.0
H262 H 0.68492 0.69383 0.5135 0.0
H263 H 0.69295 0.78108 0.5053 0.0
H264 H 0.54139 0.74603 0.529 0.0
H265 H 0.53389 0.65937 0.53769 0.0
C266 C 0.59409 0.88723 0.49827 0.0
C267 C 0.63404 0.92714 0.51207 0.0
C268 C 0.58877 0.83626 0.4997 0.0
C269 C 0.62397 0.82432 0.51442 0.0
C270 C 0.66432 0.86432 0.52788 0.0
C271 C 0.6691 0.9152 0.52688 0.0
C272 C 0.65313 0.70464 0.51635 0.0
C273 C 0.60872 0.67009 0.52602 0.0
C274 C 0.65781 0.75452 0.51193 0.0
C275 C 0.61784 0.7703 0.51665 0.0
C276 C 0.57266 0.73481 0.52505 0.0
C277 C 0.56833 0.68534 0.52998 0.0
H278 H 0.81544 0.56378 0.87404 0.0
H279 H 0.76533 0.48538 0.79392 0.0
H280 H 0.86745 0.51426 0.87946 0.0
H281 H 0.8182 0.43643 0.79923 0.0
H282 H 0.97702 0.42462 0.81636 0.0
H283 H 0.91655 0.46187 0.80639 0.0
H284 H 0.84439 0.41354 0.88198 0.0
H285 H 0.90356 0.37389 0.89163 0.0
C286 C 0.81624 0.53656 0.85745 0.0
C287 C 0.78673 0.52833 0.83355 0.0
C288 C 0.8454 0.5079 0.86069 0.0
C289 C 0.84594 0.47123 0.8399 0.0
C290 C 0.81796 0.46439 0.81553 0.0
C291 C 0.78812 0.49248 0.81248 0.0
C292 C 0.94718 0.41997 0.83039 0.0
C293 C 0.94535 0.39655 0.85495 0.0
C294 C 0.91286 0.44174 0.82472 0.0
C295 C 0.87667 0.44109 0.84366 0.0
C296 C 0.87269 0.41503 0.86733 0.0
C297 C 0.90649 0.39248 0.87282 0.0
H298 H 0.27982 0.67742 0.19215 0.0
H299 H 0.22515 0.71842 0.11917 0.0
H300 H 0.35157 0.75816 0.19466 0.0
H301 H 0.2966 0.79975 0.12186 0.0
H302 H 0.45945 0.91395 0.12023 0.0
H303 H 0.38702 0.83333 0.11689 0.0
H304 H 0.37067 0.84937 0.20441 0.0
H305 H 0.44357 0.92952 0.2076 0.0
C306 C 0.28319 0.70382 0.17667 0.0
C307 C 0.24704 0.69183 0.15548 0.0
C308 C 0.32407 0.75019 0.1782 0.0
C309 C 0.32968 0.78551 0.15853 0.0
C310 C 0.2936 0.77317 0.13717 0.0
C311 C 0.25262 0.72676 0.13569 0.0
C312 C 0.4399 0.90032 0.13863 0.0
C313 C 0.45629 0.92813 0.1641 0.0
C314 C 0.39846 0.85432 0.13675 0.0
C315 C 0.373 0.835 0.16037 0.0
C316 C 0.3897 0.86295 0.18587 0.0
C317 C 0.43105 0.90896 0.18771 0.0
H318 H 0.51005 0.14638 0.54082 0.0
H319 H 0.6219 0.17391 0.47972 0.0
H320 H 0.51705 0.23518 0.54118 0.0
H321 H 0.6282 0.26211 0.47944 0.0
H322 H 0.65529 0.42953 0.49785 0.0
H323 H 0.65428 0.34418 0.50374 0.0
H324 H 0.49514 0.28844 0.51272 0.0
H325 H 0.4968 0.37406 0.5078 0.0
C326 C 0.53622 0.17153 0.52753 0.0
C327 C 0.56539 0.15328 0.51025 0.0
C328 C 0.54008 0.22236 0.52759 0.0
C329 C 0.57301 0.25602 0.51023 0.0
C330 C 0.60295 0.23775 0.49338 0.0
C331 C 0.59922 0.18704 0.49344 0.0
C332 C 0.62033 0.39912 0.5016 0.0
C333 C 0.57629 0.40866 0.50291 0.0
C334 C 0.61958 0.35006 0.50469 0.0
C335 C 0.57461 0.30915 0.50875 0.0
C336 C 0.53063 0.319 0.51019 0.0
C337 C 0.53148 0.36807 0.50725 0.0
H338 H 0.40216 0.52302 0.88339 0.0
H339 H 0.41156 0.52968 0.7958 0.0
H340 H 0.31501 0.46628 0.87786 0.0
H341 H 0.32615 0.46964 0.78977 0.0
H342 H 0.1584 0.38743 0.78874 0.0
H343 H 0.2432 0.44954 0.79281 0.0
H344 H 0.26788 0.38212 0.8652 0.0
H345 H 0.1813 0.32315 0.8622 0.0
C346 C 0.38508 0.51291 0.86299 0.0
C347 C 0.41305 0.53086 0.84006 0.0
C348 C 0.33552 0.47946 0.85969 0.0
C349 C 0.31355 0.46193 0.83329 0.0
C350 C 0.34123 0.48234 0.81045 0.0
C351 C 0.3903 0.51704 0.81385 0.0
C352 C 0.18252 0.38545 0.80516 0.0
C353 C 0.16363 0.35064 0.82512 0.0
C354 C 0.2312 0.42111 0.80758 0.0
C355 C 0.26259 0.42179 0.82965 0.0
C356 C 0.24448 0.38417 0.84847 0.0
C357 C 0.19522 0.34947 0.84647 0.0
H358 H 0.9507 0.2976 0.20458 0.0
H359 H 0.89802 0.30307 0.12287 0.0
H360 H 0.87543 0.22431 0.21149 0.0
H361 H 0.82281 0.22798 0.1293 0.0
H362 H 0.67079 0.13441 0.16598 0.0
H363 H 0.74735 0.20294 0.15407 0.0
H364 H 0.83325 0.13634 0.19865 0.0
H365 H 0.7567 0.0693 0.21125 0.0
C366 C 0.92318 0.28257 0.18794 0.0
C367 C 0.93012 0.30586 0.16319 0.0
C368 C 0.8801 0.24025 0.1918 0.0
C369 C 0.84303 0.21983 0.17089 0.0
C370 C 0.85032 0.24296 0.14594 0.0
C371 C 0.89346 0.28571 0.14216 0.0
C372 C 0.70618 0.13428 0.17288 0.0
C373 C 0.70797 0.09704 0.18977 0.0
C374 C 0.75006 0.17339 0.16602 0.0
C375 C 0.79657 0.17563 0.1757 0.0
C376 C 0.79813 0.13667 0.19144 0.0
C377 C 0.75435 0.09808 0.19855 0.0
H378 H 0.14524 0.54732 0.06293 0.0
H379 H 0.0506 0.38889 0.0691 0.0
H380 H 0.14747 0.53029 0.01334 0.0
H381 H 0.05273 0.37227 0.01982 0.0
H382 H 0.0641 0.48643 0.92658 0.0
H383 H 0.0833 0.50865 0.9755 0.0
H384 H 0.10861 0.36894 0.98165 0.0
H385 H 0.08884 0.34655 0.9325 0.0
C386 C 0.12527 0.50885 0.0538 0.0
C387 C 0.09735 0.46961 0.06998 0.0
C388 C 0.12652 0.49916 0.02542 0.0
C389 C 0.1004 0.44992 0.01272 0.0
C390 C 0.07382 0.41043 0.02903 0.0
C391 C 0.07217 0.42017 0.05728 0.0
C392 C 0.0746 0.46094 0.93834 0.0
C393 C 0.0744 0.41448 0.92595 0.0
C394 C 0.08595 0.47382 0.96629 0.0
C395 C 0.09698 0.44029 0.98244 0.0
C396 C 0.09966 0.39521 0.96971 0.0
C397 C 0.08874 0.38255 0.94163 0.0
H398 H 0.5259 0.96536 0.40802 0.0
H399 H 0.67422 0.082 0.4115 0.0
H400 H 0.52779 0.95778 0.35807 0.0
H401 H 0.67561 0.07486 0.3618 0.0
H402 H 0.68372 0.015 0.27464 0.0
H403 H 0.67888 0.01461 0.32429 0.0
H404 H 0.52807 1.00773 0.31889 0.0
H405 H 0.53293 1.00813 0.2691 0.0
C406 C 0.55886 0.98942 0.3982 0.0
C407 C 0.59994 0.02424 0.41385 0.0
C408 C 0.55981 0.9852 0.36956 0.0
C409 C 0.60193 0.01553 0.35597 0.0
C410 C 0.64291 0.05031 0.37163 0.0
C411 C 0.64193 0.05464 0.40018 0.0
C412 C 0.64952 0.01342 0.28404 0.0
C413 C 0.60888 0.01211 0.26795 0.0
C414 C 0.64676 0.01324 0.31249 0.0
C415 C 0.60328 0.01171 0.32557 0.0
C416 C 0.56197 1.00853 0.30943 0.0
C417 C 0.56474 1.00873 0.2809 0.0
H418 H 0.53077 0.55699 0.7477 0.0
H419 H 0.68718 0.58413 0.74431 0.0
H420 H 0.52471 0.55059 0.6979 0.0
H421 H 0.6817 0.57991 0.69454 0.0
H422 H 0.65041 0.52616 0.60531 0.0
H423 H 0.65057 0.52348 0.65484 0.0
H424 H 0.54733 0.60056 0.66024 0.0
H425 H 0.54443 0.59988 0.61066 0.0
C426 C 0.56401 0.56217 0.73632 0.0
C427 C 0.60948 0.57116 0.74995 0.0
C428 C 0.56058 0.55865 0.70773 0.0
C429 C 0.6027 0.56468 0.6921 0.0
C430 C 0.64825 0.57402 0.70583 0.0
C431 C 0.65153 0.57689 0.73441 0.0
C432 C 0.62684 0.54146 0.617 0.0
C433 C 0.59762 0.5635 0.60395 0.0
C434 C 0.62757 0.5407 0.64549 0.0
C435 C 0.59945 0.56237 0.66166 0.0
C436 C 0.56919 0.58313 0.64852 0.0
C437 C 0.56805 0.58338 0.62004 0.0
H438 H 0.63889 0.1308 0.59298 0.0
H439 H 0.56363 0.96664 0.58923 0.0
H440 H 0.63988 0.13458 0.64291 0.0
H441 H 0.56675 0.96984 0.6389 0.0
H442 H 0.54143 0.98986 0.72842 0.0
H443 H 0.53418 0.99203 0.67895 0.0
H444 H 0.67774 0.11664 0.6808 0.0
H445 H 0.68331 0.11579 0.73044 0.0
C446 C 0.6229 0.0955 0.60286 0.0
C447 C 0.60109 0.04846 0.58721 0.0
C448 C 0.62366 0.09757 0.6315 0.0
C449 C 0.60334 0.05253 0.64513 0.0
C450 C 0.58173 1.0055 0.6293 0.0
C451 C 0.58024 1.00356 0.60073 0.0
C452 C 0.57107 0.01798 0.71815 0.0
C453 C 0.61289 0.05264 0.73313 0.0
C454 C 0.56722 0.01904 0.68978 0.0
C455 C 0.60563 0.05415 0.67565 0.0
C456 C 0.64704 0.08954 0.69088 0.0
C457 C 0.65042 0.08901 0.71933 0.0
H458 H 0.55137 0.58733 0.92752 0.0
H459 H 0.69879 0.58386 0.92512 0.0
H460 H 0.55177 0.58163 0.97706 0.0
H461 H 0.69864 0.57716 0.97422 0.0
H462 H 0.70134 0.60453 0.066 0.0
H463 H 0.70045 0.62297 0.01821 0.0
H464 H 0.54798 0.5165 0.00816 0.0
H465 H 0.54885 0.49827 0.05604 0.0
C466 C 0.58402 0.58586 0.93754 0.0
C467 C 0.62496 0.58586 0.92228 0.0
C468 C 0.58407 0.58221 0.96589 0.0
C469 C 0.62515 0.57874 0.97959 0.0
C470 C 0.66662 0.58039 0.96442 0.0
C471 C 0.66654 0.58391 0.93615 0.0
C472 C 0.66765 0.58504 0.05357 0.0
C473 C 0.62531 0.5496 0.06473 0.0
C474 C 0.66711 0.59565 0.0262 0.0
C475 C 0.62424 0.571 0.00931 0.0
C476 C 0.58141 0.53665 0.02069 0.0
C477 C 0.58194 0.5261 0.0481 0.0
H478 H 0.15158 0.58522 0.24686 0.0
H479 H 1.0111 0.45614 0.24259 0.0
H480 H 0.15175 0.58736 0.29692 0.0
H481 H 1.01124 0.45884 0.2922 0.0
H482 H 0.05989 0.43216 0.37541 0.0
H483 H 0.0617 0.43804 0.32615 0.0
H484 H 0.10673 0.60205 0.33868 0.0
H485 H 0.10469 0.59612 0.3884 0.0
C486 C 0.12048 0.5578 0.25653 0.0
C487 C 0.08165 0.52011 0.24066 0.0
C488 C 0.12056 0.55913 0.28519 0.0
C489 C 0.0819 0.52276 0.29843 0.0
C490 C 0.04212 0.48665 0.28256 0.0
C491 C 0.04198 0.48531 0.25407 0.0
C492 C 0.06985 0.46949 0.36771 0.0
C493 C 0.08139 0.51359 0.38578 0.0
C494 C 0.07088 0.47286 0.33948 0.0
C495 C 0.08359 0.52043 0.32855 0.0
C496 C 0.09687 0.56489 0.34655 0.0
C497 C 0.09574 0.56149 0.37496 0.0
loop_
_geom_bond_atom_site_label_1
_geom_bond_atom_site_label_2
_geom_bond_distance
_geom_bond_site_symmetry_2
_ccdc_geom_bond_type
Tb0 O3 2.453 1_455 S
Tb0 O4 2.596 1_455 S
Tb0 O5 2.374 . S
Tb0 O13 2.343 . S
Tb0 O15 2.353 . S
Tb0 O17 2.427 . S
Tb0 O18 2.513 . S
C1 O5 1.251 1_655 S
C1 O7 1.263 . S
Tb2 O4 2.343 . S
Tb2 O7 2.353 . S
Tb2 O10 2.427 . S
Tb2 O11 2.513 . S
Tb2 O12 2.453 1_655 S
Tb2 O13 2.596 1_655 S
Tb2 O14 2.374 . S
O3 Tb0 2.453 1_655 S
O3 C19 1.245 . S
O4 Tb0 2.596 1_655 S
O4 Tb2 2.343 . S
O4 C19 1.259 . S
O5 Tb0 2.374 . S
O5 C1 1.251 1_455 S
C6 O10 1.275 . S
C6 O11 1.246 . S
O7 C1 1.263 . S
O7 Tb2 2.353 . S
C8 O12 1.245 . S
C8 O13 1.259 . S
C9 O14 1.250 1_455 S
C9 O15 1.263 . S
O10 Tb2 2.427 . S
O10 C6 1.275 . S
O11 Tb2 2.513 . S
O11 C6 1.246 . S
O12 Tb2 2.453 1_455 S
O12 C8 1.245 . S
O13 Tb0 2.343 . S
O13 Tb2 2.596 1_455 S
O13 C8 1.259 . S
O14 Tb2 2.374 . S
O14 C9 1.250 1_655 S
O15 Tb0 2.353 . S
O15 C9 1.263 . S
C16 O17 1.275 . S
C16 O18 1.246 . S
O17 Tb0 2.427 . S
O17 C16 1.275 . S
O18 Tb0 2.513 . S
O18 C16 1.246 . S
C19 O3 1.245 . S
C19 O4 1.259 . S
Tb20 O23 2.453 1_565 S
Tb20 O24 2.596 1_565 S
Tb20 O25 2.374 1_565 S
Tb20 O33 2.343 . S
Tb20 O35 2.353 1_565 S
Tb20 O37 2.427 . S
Tb20 O38 2.513 . S
C21 O25 1.251 . S
C21 O27 1.263 . S
Tb22 O24 2.343 . S
Tb22 O27 2.353 . S
Tb22 O30 2.427 . S
Tb22 O31 2.513 . S
Tb22 O32 2.453 1_545 S
Tb22 O33 2.596 1_545 S
Tb22 O34 2.374 . S
O23 Tb20 2.453 1_545 S
O23 C39 1.245 . S
O24 Tb20 2.596 1_545 S
O24 Tb22 2.343 . S
O24 C39 1.259 . S
O25 Tb20 2.374 1_545 S
O25 C21 1.251 . S
C26 O30 1.275 . S
C26 O31 1.246 . S
O27 C21 1.263 . S
O27 Tb22 2.353 . S
C28 O32 1.245 . S
C28 O33 1.259 . S
C29 O34 1.250 . S
C29 O35 1.263 . S
O30 Tb22 2.427 . S
O30 C26 1.275 . S
O31 Tb22 2.513 . S
O31 C26 1.246 . S
O32 Tb22 2.453 1_565 S
O32 C28 1.245 . S
O33 Tb20 2.343 . S
O33 Tb22 2.596 1_565 S
O33 C28 1.259 . S
O34 Tb22 2.374 . S
O34 C29 1.250 . S
O35 Tb20 2.353 1_545 S
O35 C29 1.263 . S
C36 O37 1.275 . S
C36 O38 1.246 . S
O37 Tb20 2.427 . S
O37 C36 1.275 . S
O38 Tb20 2.513 . S
O38 C36 1.246 . S
C39 O23 1.245 . S
C39 O24 1.259 . S
Tb40 O43 2.453 . S
Tb40 O44 2.596 . S
Tb40 O45 2.374 . S
Tb40 O53 2.343 . S
Tb40 O55 2.353 . S
Tb40 O57 2.427 . S
Tb40 O58 2.513 . S
C41 O45 1.251 . S
C41 O47 1.263 . S
Tb42 O44 2.343 . S
Tb42 O47 2.353 . S
Tb42 O50 2.427 . S
Tb42 O51 2.513 . S
Tb42 O52 2.453 . S
Tb42 O53 2.596 . S
Tb42 O54 2.374 . S
O43 Tb40 2.453 . S
O43 C59 1.245 . S
O44 Tb40 2.596 . S
O44 Tb42 2.343 . S
O44 C59 1.259 . S
O45 Tb40 2.374 . S
O45 C41 1.251 . S
C46 O50 1.275 . S
C46 O51 1.246 . S
O47 C41 1.263 . S
O47 Tb42 2.353 . S
C48 O52 1.245 . S
C48 O53 1.259 . S
C49 O54 1.250 . S
C49 O55 1.263 . S
O50 Tb42 2.427 . S
O50 C46 1.275 . S
O51 Tb42 2.513 . S
O51 C46 1.246 . S
O52 Tb42 2.453 . S
O52 C48 1.245 . S
O53 Tb40 2.343 . S
O53 Tb42 2.596 . S
O53 C48 1.259 . S
O54 Tb42 2.374 . S
O54 C49 1.250 . S
O55 Tb40 2.353 . S
O55 C49 1.263 . S
C56 O57 1.275 . S
C56 O58 1.246 . S
O57 Tb40 2.427 . S
O57 C56 1.275 . S
O58 Tb40 2.513 . S
O58 C56 1.246 . S
C59 O43 1.245 . S
C59 O44 1.259 . S
H60 C67 0.929 . S
H61 C70 0.930 . S
H62 C72 0.929 . S
H63 C64 0.969 . S
C64 H63 0.969 . S
C64 O65 1.550 . S
C64 H66 0.973 . S
O65 C64 1.550 . S
O65 C71 1.412 . S
H66 C64 0.973 . S
C67 H60 0.929 . S
C67 C68 1.400 . S
C67 C69 1.364 . S
C68 C67 1.400 . S
C68 C72 1.377 . S
C69 C67 1.364 . S
C69 C70 1.374 1_545 S
C70 H61 0.930 . S
C70 C69 1.374 1_565 S
C70 C71 1.383 . S
C71 O65 1.412 . S
C71 C70 1.383 . S
C71 C72 1.394 1_565 S
C72 H62 0.929 . S
C72 C68 1.377 . S
C72 C71 1.394 1_545 S
H73 C80 0.929 . S
H74 C83 0.930 . S
H75 C85 0.929 . S
H76 C77 0.969 . S
C77 H76 0.969 . S
C77 O78 1.550 . S
C77 H79 0.973 . S
O78 C77 1.550 . S
O78 C84 1.412 . S
H79 C77 0.973 . S
C80 H73 0.929 . S
C80 C81 1.400 . S
C80 C82 1.364 . S
C81 C80 1.400 . S
C81 C85 1.377 . S
C82 C80 1.364 . S
C82 C83 1.374 . S
C83 H74 0.930 . S
C83 C82 1.374 . S
C83 C84 1.383 . S
C84 O78 1.412 . S
C84 C83 1.383 . S
C84 C85 1.394 . S
C85 H75 0.929 . S
C85 C81 1.377 . S
C85 C84 1.394 . S
H86 C93 0.929 . S
H87 C96 0.930 . S
H88 C98 0.929 . S
H89 C90 0.969 . S
C90 H89 0.969 . S
C90 O91 1.550 . S
C90 H92 0.973 . S
O91 C90 1.550 . S
O91 C97 1.412 . S
H92 C90 0.973 . S
C93 H86 0.929 . S
C93 C94 1.400 . S
C93 C95 1.364 . S
C94 C93 1.400 . S
C94 C98 1.377 . S
C95 C93 1.364 . S
C95 C96 1.374 . S
C96 H87 0.930 . S
C96 C95 1.374 . S
C96 C97 1.383 . S
C97 O91 1.412 . S
C97 C96 1.383 . S
C97 C98 1.394 . S
C98 H88 0.929 . S
C98 C94 1.377 . S
C98 C97 1.394 . S
H99 C106 0.929 . S
H100 C109 0.930 . S
H101 C111 0.929 . S
H102 C103 0.969 . S
C103 H102 0.969 . S
C103 O104 1.550 . S
C103 H105 0.973 . S
O104 C103 1.550 . S
O104 C110 1.412 . S
H105 C103 0.973 . S
C106 H99 0.929 . S
C106 C107 1.400 . S
C106 C108 1.364 1_655 S
C107 C106 1.400 . S
C107 C111 1.377 1_655 S
C108 C106 1.364 1_455 S
C108 C109 1.374 . S
C109 H100 0.930 . S
C109 C108 1.374 . S
C109 C110 1.383 . S
C110 O104 1.412 . S
C110 C109 1.383 . S
C110 C111 1.394 . S
C111 H101 0.929 . S
C111 C107 1.377 1_455 S
C111 C110 1.394 . S
H112 C119 0.929 . S
H113 C122 0.930 . S
H114 C124 0.929 . S
H115 C116 0.969 . S
C116 H115 0.969 . S
C116 O117 1.550 . S
C116 H118 0.973 . S
O117 C116 1.550 . S
O117 C123 1.412 . S
H118 C116 0.973 . S
C119 H112 0.929 . S
C119 C120 1.400 . S
C119 C121 1.364 1_565 S
C120 C119 1.400 . S
C120 C124 1.377 . S
C121 C119 1.364 1_545 S
C121 C122 1.374 . S
C122 H113 0.930 . S
C122 C121 1.374 . S
C122 C123 1.383 . S
C123 O117 1.412 . S
C123 C122 1.383 . S
C123 C124 1.394 1_545 S
C124 H114 0.929 . S
C124 C120 1.377 . S
C124 C123 1.394 1_565 S
H125 C132 0.929 . S
H126 C135 0.930 . S
H127 C137 0.929 . S
H128 C129 0.969 . S
C129 H128 0.969 . S
C129 O130 1.550 . S
C129 H131 0.973 . S
O130 C129 1.550 . S
O130 C136 1.412 . S
H131 C129 0.973 . S
C132 H125 0.929 . S
C132 C133 1.400 . S
C132 C134 1.364 . S
C133 C132 1.400 . S
C133 C137 1.377 . S
C134 C132 1.364 . S
C134 C135 1.374 . S
C135 H126 0.930 . S
C135 C134 1.374 . S
C135 C136 1.383 . S
C136 O130 1.412 . S
C136 C135 1.383 . S
C136 C137 1.394 . S
C137 H127 0.929 . S
C137 C133 1.377 . S
C137 C136 1.394 . S
H138 C146 0.950 . S
H139 C151 0.950 . S
H140 C148 0.950 . S
H141 C150 0.950 . S
H142 C152 0.950 . S
H143 C154 0.950 . S
H144 C156 0.950 . S
H145 C157 0.950 . S
C146 H138 0.950 . S
C146 C147 1.386 . S
C146 C148 1.391 . S
C147 C146 1.386 . S
C147 C151 1.393 . S
C148 H140 0.950 . S
C148 C146 1.391 . S
C148 C149 1.400 . S
C149 C148 1.400 . S
C149 C150 1.398 . S
C149 C155 1.491 . S
C150 H141 0.950 . S
C150 C149 1.398 . S
C150 C151 1.391 . S
C151 H139 0.950 . S
C151 C147 1.393 . S
C151 C150 1.391 . S
C152 H142 0.950 . S
C152 C153 1.386 . S
C152 C154 1.391 . S
C153 C152 1.386 . S
C153 C157 1.393 . S
C154 H143 0.950 . S
C154 C152 1.391 . S
C154 C155 1.400 . S
C155 C149 1.491 . S
C155 C154 1.400 . S
C155 C156 1.398 . S
C156 H144 0.950 . S
C156 C155 1.398 . S
C156 C157 1.391 . S
C157 H145 0.950 . S
C157 C153 1.393 . S
C157 C156 1.391 . S
H158 C166 0.950 . S
H159 C171 0.950 . S
H160 C168 0.950 . S
H161 C170 0.950 . S
H162 C172 0.950 . S
H163 C174 0.950 . S
H164 C176 0.950 . S
H165 C177 0.950 . S
C166 H158 0.950 . S
C166 C167 1.386 . S
C166 C168 1.391 . S
C167 C166 1.386 . S
C167 C171 1.393 . S
C168 H160 0.950 . S
C168 C166 1.391 . S
C168 C169 1.400 . S
C169 C168 1.400 . S
C169 C170 1.398 . S
C169 C175 1.491 . S
C170 H161 0.950 . S
C170 C169 1.398 . S
C170 C171 1.391 . S
C171 H159 0.950 . S
C171 C167 1.393 . S
C171 C170 1.391 . S
C172 H162 0.950 . S
C172 C173 1.386 . S
C172 C174 1.391 . S
C173 C172 1.386 . S
C173 C177 1.393 . S
C174 H163 0.950 . S
C174 C172 1.391 . S
C174 C175 1.400 . S
C175 C169 1.491 . S
C175 C174 1.400 . S
C175 C176 1.398 . S
C176 H164 0.950 . S
C176 C175 1.398 . S
C176 C177 1.391 . S
C177 H165 0.950 . S
C177 C173 1.393 . S
C177 C176 1.391 . S
H178 C186 0.950 . S
H179 C191 0.950 . S
H180 C188 0.950 . S
H181 C190 0.950 . S
H182 C192 0.950 . S
H183 C194 0.950 . S
H184 C196 0.950 . S
H185 C197 0.950 . S
C186 H178 0.950 . S
C186 C187 1.386 . S
C186 C188 1.391 . S
C187 C186 1.386 . S
C187 C191 1.393 . S
C188 H180 0.950 . S
C188 C186 1.391 . S
C188 C189 1.400 . S
C189 C188 1.400 . S
C189 C190 1.398 . S
C189 C195 1.491 . S
C190 H181 0.950 . S
C190 C189 1.398 . S
C190 C191 1.391 . S
C191 H179 0.950 . S
C191 C187 1.393 . S
C191 C190 1.391 . S
C192 H182 0.950 . S
C192 C193 1.386 . S
C192 C194 1.391 . S
C193 C192 1.386 . S
C193 C197 1.393 . S
C194 H183 0.950 . S
C194 C192 1.391 . S
C194 C195 1.400 . S
C195 C189 1.491 . S
C195 C194 1.400 . S
C195 C196 1.398 . S
C196 H184 0.950 . S
C196 C195 1.398 . S
C196 C197 1.391 . S
C197 H185 0.950 . S
C197 C193 1.393 . S
C197 C196 1.391 . S
H198 C206 0.950 . S
H199 C211 0.950 . S
H200 C208 0.950 . S
H201 C210 0.950 . S
H202 C212 0.950 . S
H203 C214 0.950 . S
H204 C216 0.950 . S
H205 C217 0.950 . S
C206 H198 0.950 . S
C206 C207 1.386 . S
C206 C208 1.391 . S
C207 C206 1.386 . S
C207 C211 1.393 . S
C208 H200 0.950 . S
C208 C206 1.391 . S
C208 C209 1.400 . S
C209 C208 1.400 . S
C209 C210 1.398 . S
C209 C215 1.491 . S
C210 H201 0.950 . S
C210 C209 1.398 . S
C210 C211 1.391 . S
C211 H199 0.950 . S
C211 C207 1.393 . S
C211 C210 1.391 . S
C212 H202 0.950 . S
C212 C213 1.386 . S
C212 C214 1.391 . S
C213 C212 1.386 . S
C213 C217 1.393 . S
C214 H203 0.950 . S
C214 C212 1.391 . S
C214 C215 1.400 . S
C215 C209 1.491 . S
C215 C214 1.400 . S
C215 C216 1.398 . S
C216 H204 0.950 . S
C216 C215 1.398 . S
C216 C217 1.391 . S
C217 H205 0.950 . S
C217 C213 1.393 . S
C217 C216 1.391 . S
H218 C226 0.950 . S
H219 C231 0.950 . S
H220 C228 0.950 . S
H221 C230 0.950 . S
H222 C232 0.950 . S
H223 C234 0.950 . S
H224 C236 0.950 . S
H225 C237 0.950 . S
C226 H218 0.950 . S
C226 C227 1.386 . S
C226 C228 1.391 . S
C227 C226 1.386 . S
C227 C231 1.393 . S
C228 H220 0.950 . S
C228 C226 1.391 . S
C228 C229 1.400 . S
C229 C228 1.400 . S
C229 C230 1.398 . S
C229 C235 1.491 . S
C230 H221 0.950 . S
C230 C229 1.398 . S
C230 C231 1.391 . S
C231 H219 0.950 . S
C231 C227 1.393 . S
C231 C230 1.391 . S
C232 H222 0.950 . S
C232 C233 1.386 . S
C232 C234 1.391 . S
C233 C232 1.386 . S
C233 C237 1.393 . S
C234 H223 0.950 . S
C234 C232 1.391 . S
C234 C235 1.400 . S
C235 C229 1.491 . S
C235 C234 1.400 . S
C235 C236 1.398 . S
C236 H224 0.950 . S
C236 C235 1.398 . S
C236 C237 1.391 . S
C237 H225 0.950 . S
C237 C233 1.393 . S
C237 C236 1.391 . S
H238 C246 0.950 . S
H239 C251 0.950 . S
H240 C248 0.950 . S
H241 C250 0.950 . S
H242 C252 0.950 . S
H243 C254 0.950 . S
H244 C256 0.950 . S
H245 C257 0.950 . S
C246 H238 0.950 . S
C246 C247 1.386 . S
C246 C248 1.391 . S
C247 C246 1.386 . S
C247 C251 1.393 . S
C248 H240 0.950 . S
C248 C246 1.391 . S
C248 C249 1.400 . S
C249 C248 1.400 . S
C249 C250 1.398 . S
C249 C255 1.491 . S
C250 H241 0.950 . S
C250 C249 1.398 . S
C250 C251 1.391 . S
C251 H239 0.950 . S
C251 C247 1.393 . S
C251 C250 1.391 . S
C252 H242 0.950 . S
C252 C253 1.386 . S
C252 C254 1.391 . S
C253 C252 1.386 . S
C253 C257 1.393 . S
C254 H243 0.950 . S
C254 C252 1.391 . S
C254 C255 1.400 . S
C255 C249 1.491 . S
C255 C254 1.400 . S
C255 C256 1.398 . S
C256 H244 0.950 . S
C256 C255 1.398 . S
C256 C257 1.391 . S
C257 H245 0.950 . S
C257 C253 1.393 . S
C257 C256 1.391 . S
H258 C266 0.950 . S
H259 C271 0.950 . S
H260 C268 0.950 . S
H261 C270 0.950 . S
H262 C272 0.950 . S
H263 C274 0.950 . S
H264 C276 0.950 . S
H265 C277 0.950 . S
C266 H258 0.950 . S
C266 C267 1.386 . S
C266 C268 1.391 . S
C267 C266 1.386 . S
C267 C271 1.393 . S
C268 H260 0.950 . S
C268 C266 1.391 . S
C268 C269 1.400 . S
C269 C268 1.400 . S
C269 C270 1.398 . S
C269 C275 1.491 . S
C270 H261 0.950 . S
C270 C269 1.398 . S
C270 C271 1.391 . S
C271 H259 0.950 . S
C271 C267 1.393 . S
C271 C270 1.391 . S
C272 H262 0.950 . S
C272 C273 1.386 . S
C272 C274 1.391 . S
C273 C272 1.386 . S
C273 C277 1.393 . S
C274 H263 0.950 . S
C274 C272 1.391 . S
C274 C275 1.400 . S
C275 C269 1.491 . S
C275 C274 1.400 . S
C275 C276 1.398 . S
C276 H264 0.950 . S
C276 C275 1.398 . S
C276 C277 1.391 . S
C277 H265 0.950 . S
C277 C273 1.393 . S
C277 C276 1.391 . S
H278 C286 0.950 . S
H279 C291 0.950 . S
H280 C288 0.950 . S
H281 C290 0.950 . S
H282 C292 0.950 1_455 S
H283 C294 0.950 . S
H284 C296 0.950 . S
H285 C297 0.950 . S
C286 H278 0.950 . S
C286 C287 1.386 . S
C286 C288 1.391 . S
C287 C286 1.386 . S
C287 C291 1.393 . S
C288 H280 0.950 . S
C288 C286 1.391 . S
C288 C289 1.400 . S
C289 C288 1.400 . S
C289 C290 1.398 . S
C289 C295 1.491 . S
C290 H281 0.950 . S
C290 C289 1.398 . S
C290 C291 1.391 . S
C291 H279 0.950 . S
C291 C287 1.393 . S
C291 C290 1.391 . S
C292 H282 0.950 1_655 S
C292 C293 1.386 . S
C292 C294 1.391 . S
C293 C292 1.386 . S
C293 C297 1.393 . S
C294 H283 0.950 . S
C294 C292 1.391 . S
C294 C295 1.400 . S
C295 C289 1.491 . S
C295 C294 1.400 . S
C295 C296 1.398 . S
C296 H284 0.950 . S
C296 C295 1.398 . S
C296 C297 1.391 . S
C297 H285 0.950 . S
C297 C293 1.393 . S
C297 C296 1.391 . S
H298 C306 0.950 . S
H299 C311 0.950 . S
H300 C308 0.950 . S
H301 C310 0.950 . S
H302 C312 0.950 . S
H303 C314 0.950 . S
H304 C316 0.950 . S
H305 C317 0.950 . S
C306 H298 0.950 . S
C306 C307 1.386 . S
C306 C308 1.391 . S
C307 C306 1.386 . S
C307 C311 1.393 . S
C308 H300 0.950 . S
C308 C306 1.391 . S
C308 C309 1.400 . S
C309 C308 1.400 . S
C309 C310 1.398 . S
C309 C315 1.491 . S
C310 H301 0.950 . S
C310 C309 1.398 . S
C310 C311 1.391 . S
C311 H299 0.950 . S
C311 C307 1.393 . S
C311 C310 1.391 . S
C312 H302 0.950 . S
C312 C313 1.386 . S
C312 C314 1.391 . S
C313 C312 1.386 . S
C313 C317 1.393 . S
C314 H303 0.950 . S
C314 C312 1.391 . S
C314 C315 1.400 . S
C315 C309 1.491 . S
C315 C314 1.400 . S
C315 C316 1.398 . S
C316 H304 0.950 . S
C316 C315 1.398 . S
C316 C317 1.391 . S
C317 H305 0.950 . S
C317 C313 1.393 . S
C317 C316 1.391 . S
H318 C326 0.950 . S
H319 C331 0.950 . S
H320 C328 0.950 . S
H321 C330 0.950 . S
H322 C332 0.950 . S
H323 C334 0.950 . S
H324 C336 0.950 . S
H325 C337 0.950 . S
C326 H318 0.950 . S
C326 C327 1.386 . S
C326 C328 1.391 . S
C327 C326 1.386 . S
C327 C331 1.393 . S
C328 H320 0.950 . S
C328 C326 1.391 . S
C328 C329 1.400 . S
C329 C328 1.400 . S
C329 C330 1.398 . S
C329 C335 1.491 . S
C330 H321 0.950 . S
C330 C329 1.398 . S
C330 C331 1.391 . S
C331 H319 0.950 . S
C331 C327 1.393 . S
C331 C330 1.391 . S
C332 H322 0.950 . S
C332 C333 1.386 . S
C332 C334 1.391 . S
C333 C332 1.386 . S
C333 C337 1.393 . S
C334 H323 0.950 . S
C334 C332 1.391 . S
C334 C335 1.400 . S
C335 C329 1.491 . S
C335 C334 1.400 . S
C335 C336 1.398 . S
C336 H324 0.950 . S
C336 C335 1.398 . S
C336 C337 1.391 . S
C337 H325 0.950 . S
C337 C333 1.393 . S
C337 C336 1.391 . S
H338 C346 0.950 . S
H339 C351 0.950 . S
H340 C348 0.950 . S
H341 C350 0.950 . S
H342 C352 0.950 . S
H343 C354 0.950 . S
H344 C356 0.950 . S
H345 C357 0.950 . S
C346 H338 0.950 . S
C346 C347 1.386 . S
C346 C348 1.391 . S
C347 C346 1.386 . S
C347 C351 1.393 . S
C348 H340 0.950 . S
C348 C346 1.391 . S
C348 C349 1.400 . S
C349 C348 1.400 . S
C349 C350 1.398 . S
C349 C355 1.491 . S
C350 H341 0.950 . S
C350 C349 1.398 . S
C350 C351 1.391 . S
C351 H339 0.950 . S
C351 C347 1.393 . S
C351 C350 1.391 . S
C352 H342 0.950 . S
C352 C353 1.386 . S
C352 C354 1.391 . S
C353 C352 1.386 . S
C353 C357 1.393 . S
C354 H343 0.950 . S
C354 C352 1.391 . S
C354 C355 1.400 . S
C355 C349 1.491 . S
C355 C354 1.400 . S
C355 C356 1.398 . S
C356 H344 0.950 . S
C356 C355 1.398 . S
C356 C357 1.391 . S
C357 H345 0.950 . S
C357 C353 1.393 . S
C357 C356 1.391 . S
H358 C366 0.950 . S
H359 C371 0.950 . S
H360 C368 0.950 . S
H361 C370 0.950 . S
H362 C372 0.950 . S
H363 C374 0.950 . S
H364 C376 0.950 . S
H365 C377 0.950 . S
C366 H358 0.950 . S
C366 C367 1.386 . S
C366 C368 1.391 . S
C367 C366 1.386 . S
C367 C371 1.393 . S
C368 H360 0.950 . S
C368 C366 1.391 . S
C368 C369 1.400 . S
C369 C368 1.400 . S
C369 C370 1.398 . S
C369 C375 1.491 . S
C370 H361 0.950 . S
C370 C369 1.398 . S
C370 C371 1.391 . S
C371 H359 0.950 . S
C371 C367 1.393 . S
C371 C370 1.391 . S
C372 H362 0.950 . S
C372 C373 1.386 . S
C372 C374 1.391 . S
C373 C372 1.386 . S
C373 C377 1.393 . S
C374 H363 0.950 . S
C374 C372 1.391 . S
C374 C375 1.400 . S
C375 C369 1.491 . S
C375 C374 1.400 . S
C375 C376 1.398 . S
C376 H364 0.950 . S
C376 C375 1.398 . S
C376 C377 1.391 . S
C377 H365 0.950 . S
C377 C373 1.393 . S
C377 C376 1.391 . S
H378 C386 0.950 . S
H379 C391 0.950 . S
H380 C388 0.950 . S
H381 C390 0.950 . S
H382 C392 0.950 . S
H383 C394 0.950 1_655 S
H384 C396 0.950 . S
H385 C397 0.950 . S
C386 H378 0.950 . S
C386 C387 1.386 . S
C386 C388 1.391 . S
C387 C386 1.386 . S
C387 C391 1.393 1_455 S
C388 H380 0.950 . S
C388 C386 1.391 . S
C388 C389 1.400 . S
C389 C388 1.400 . S
C389 C390 1.398 1_455 S
C389 C395 1.491 1_554 S
C390 H381 0.950 . S
C390 C389 1.398 1_655 S
C390 C391 1.391 . S
C391 H379 0.950 . S
C391 C387 1.393 1_655 S
C391 C390 1.391 . S
C392 H382 0.950 . S
C392 C393 1.386 . S
C392 C394 1.391 . S
C393 C392 1.386 . S
C393 C397 1.393 . S
C394 H383 0.950 1_455 S
C394 C392 1.391 . S
C394 C395 1.400 . S
C395 C389 1.491 1_556 S
C395 C394 1.400 . S
C395 C396 1.398 . S
C396 H384 0.950 . S
C396 C395 1.398 . S
C396 C397 1.391 . S
C397 H385 0.950 . S
C397 C393 1.393 . S
C397 C396 1.391 . S
H398 C406 0.950 1_565 S
H399 C411 0.950 . S
H400 C408 0.950 1_565 S
H401 C410 0.950 . S
H402 C412 0.950 . S
H403 C414 0.950 . S
H404 C416 0.950 1_565 S
H405 C417 0.950 1_565 S
C406 H398 0.950 1_545 S
C406 C407 1.386 . S
C406 C408 1.391 . S
C407 C406 1.386 . S
C407 C411 1.393 . S
C408 H400 0.950 1_545 S
C408 C406 1.391 . S
C408 C409 1.400 . S
C409 C408 1.400 . S
C409 C410 1.398 . S
C409 C415 1.491 . S
C410 H401 0.950 . S
C410 C409 1.398 . S
C410 C411 1.391 . S
C411 H399 0.950 . S
C411 C407 1.393 . S
C411 C410 1.391 . S
C412 H402 0.950 . S
C412 C413 1.386 . S
C412 C414 1.391 . S
C413 C412 1.386 . S
C413 C417 1.393 . S
C414 H403 0.950 . S
C414 C412 1.391 . S
C414 C415 1.400 . S
C415 C409 1.491 . S
C415 C414 1.400 . S
C415 C416 1.398 . S
C416 H404 0.950 1_545 S
C416 C415 1.398 . S
C416 C417 1.391 . S
C417 H405 0.950 1_545 S
C417 C413 1.393 . S
C417 C416 1.391 . S
H418 C426 0.950 . S
H419 C431 0.950 . S
H420 C428 0.950 . S
H421 C430 0.950 . S
H422 C432 0.950 . S
H423 C434 0.950 . S
H424 C436 0.950 . S
H425 C437 0.950 . S
C426 H418 0.950 . S
C426 C427 1.386 . S
C426 C428 1.391 . S
C427 C426 1.386 . S
C427 C431 1.393 . S
C428 H420 0.950 . S
C428 C426 1.391 . S
C428 C429 1.400 . S
C429 C428 1.400 . S
C429 C430 1.398 . S
C429 C435 1.491 . S
C430 H421 0.950 . S
C430 C429 1.398 . S
C430 C431 1.391 . S
C431 H419 0.950 . S
C431 C427 1.393 . S
C431 C430 1.391 . S
C432 H422 0.950 . S
C432 C433 1.386 . S
C432 C434 1.391 . S
C433 C432 1.386 . S
C433 C437 1.393 . S
C434 H423 0.950 . S
C434 C432 1.391 . S
C434 C435 1.400 . S
C435 C429 1.491 . S
C435 C434 1.400 . S
C435 C436 1.398 . S
C436 H424 0.950 . S
C436 C435 1.398 . S
C436 C437 1.391 . S
C437 H425 0.950 . S
C437 C433 1.393 . S
C437 C436 1.391 . S
H438 C446 0.950 . S
H439 C451 0.950 . S
H440 C448 0.950 . S
H441 C450 0.950 . S
H442 C452 0.950 . S
H443 C454 0.950 . S
H444 C456 0.950 . S
H445 C457 0.950 . S
C446 H438 0.950 . S
C446 C447 1.386 . S
C446 C448 1.391 . S
C447 C446 1.386 . S
C447 C451 1.393 1_545 S
C448 H440 0.950 . S
C448 C446 1.391 . S
C448 C449 1.400 . S
C449 C448 1.400 . S
C449 C450 1.398 1_545 S
C449 C455 1.491 . S
C450 H441 0.950 . S
C450 C449 1.398 1_565 S
C450 C451 1.391 . S
C451 H439 0.950 . S
C451 C447 1.393 1_565 S
C451 C450 1.391 . S
C452 H442 0.950 . S
C452 C453 1.386 1_565 S
C452 C454 1.391 . S
C453 C452 1.386 1_545 S
C453 C457 1.393 . S
C454 H443 0.950 . S
C454 C452 1.391 . S
C454 C455 1.400 1_565 S
C455 C449 1.491 . S
C455 C454 1.400 1_545 S
C455 C456 1.398 . S
C456 H444 0.950 . S
C456 C455 1.398 . S
C456 C457 1.391 . S
C457 H445 0.950 . S
C457 C453 1.393 . S
C457 C456 1.391 . S
H458 C466 0.950 . S
H459 C471 0.950 . S
H460 C468 0.950 . S
H461 C470 0.950 . S
H462 C472 0.950 . S
H463 C474 0.950 . S
H464 C476 0.950 1_556 S
H465 C477 0.950 . S
C466 H458 0.950 . S
C466 C467 1.386 . S
C466 C468 1.391 . S
C467 C466 1.386 . S
C467 C471 1.393 . S
C468 H460 0.950 . S
C468 C466 1.391 . S
C468 C469 1.400 . S
C469 C468 1.400 . S
C469 C470 1.398 . S
C469 C475 1.491 1_556 S
C470 H461 0.950 . S
C470 C469 1.398 . S
C470 C471 1.391 . S
C471 H459 0.950 . S
C471 C467 1.393 . S
C471 C470 1.391 . S
C472 H462 0.950 . S
C472 C473 1.386 . S
C472 C474 1.391 . S
C473 C472 1.386 . S
C473 C477 1.393 . S
C474 H463 0.950 . S
C474 C472 1.391 . S
C474 C475 1.400 . S
C475 C469 1.491 1_554 S
C475 C474 1.400 . S
C475 C476 1.398 . S
C476 H464 0.950 1_554 S
C476 C475 1.398 . S
C476 C477 1.391 . S
C477 H465 0.950 . S
C477 C473 1.393 . S
C477 C476 1.391 . S
H478 C486 0.950 . S
H479 C491 0.950 . S
H480 C488 0.950 . S
H481 C490 0.950 . S
H482 C492 0.950 . S
H483 C494 0.950 . S
H484 C496 0.950 . S
H485 C497 0.950 . S
C486 H478 0.950 . S
C486 C487 1.386 1_455 S
C486 C488 1.391 . S
C487 C486 1.386 1_655 S
C487 C491 1.393 . S
C488 H480 0.950 . S
C488 C486 1.391 . S
C488 C489 1.400 1_455 S
C489 C488 1.400 1_655 S
C489 C490 1.398 . S
C489 C495 1.491 1_655 S
C490 H481 0.950 . S
C490 C489 1.398 . S
C490 C491 1.391 . S
C491 H479 0.950 . S
C491 C487 1.393 . S
C491 C490 1.391 . S
C492 H482 0.950 . S
C492 C493 1.386 1_655 S
C492 C494 1.391 . S
C493 C492 1.386 1_455 S
C493 C497 1.393 . S
C494 H483 0.950 . S
C494 C492 1.391 . S
C494 C495 1.400 1_655 S
C495 C489 1.491 1_455 S
C495 C494 1.400 1_455 S
C495 C496 1.398 . S
C496 H484 0.950 . S
C496 C495 1.398 . S
C496 C497 1.391 . S
C497 H485 0.950 . S
C497 C493 1.393 . S
C497 C496 1.391 . S
C147 C8 2.005 . S
C153 C129 1.937 . S
C167 C26 1.290 . S
C173 C107 1.272 . S
C187 C48 1.476 . S
C193 C120 1.503 . S
C207 C19 1.708 . S
C213 C133 1.751 . S
C233 C103 1.494 . S
C227 C36 1.532 . S
C253 C116 1.602 . S
C247 C59 1.649 . S
C267 C28 1.452 . S
C273 C81 1.490 . S
C287 C46 1.108 . S
C293 C94 1.092 1_655 S
C307 C16 1.527 . S
C313 C64 1.441 . S
C333 C77 1.599 . S
C327 C39 1.647 . S
C353 C90 1.038 . S
C347 C56 1.095 . S
C367 C6 1.318 . S
C373 C68 1.305 . S
C393 C95 1.493 . S
C387 C9 1.478 . S
C407 C21 1.536 . S
C413 C69 1.550 . S
C427 C49 1.563 . S
C433 C82 1.596 . S
C453 C121 1.549 . S
C447 C29 1.517 . S
C473 C134 1.630 . S
C467 C41 1.612 . S
C487 C1 1.554 . S
C493 C108 1.578 . S
