# Generated by pormake.
# Topology nom, (4,4)-cn, num edge types: 1
# Building blocks:
#     Node 0, Type 0, BuildingBlock: MIFKUJ_clean_linker_1, # of connection points: 4
#     Node 1, Type 0, BuildingBlock: MIFKUJ_clean_linker_1, # of connection points: 4
#     Node 2, Type 0, BuildingBlock: MIFKUJ_clean_linker_1, # of connection points: 4
#     Node 3, Type 0, BuildingBlock: MIFKUJ_clean_linker_1, # of connection points: 4
#     Node 4, Type 0, BuildingBlock: MIFKUJ_clean_linker_1, # of connection points: 4
#     Node 5, Type 0, BuildingBlock: MIFKUJ_clean_linker_1, # of connection points: 4
#     Node 6, Type 1, BuildingBlock: UXUYUI_clean_sbu_0, # of connection points: 4
#     Node 7, Type 1, BuildingBlock: UXUYUI_clean_sbu_0, # of connection points: 4
#     Node 8, Type 1, BuildingBlock: UXUYUI_clean_sbu_0, # of connection points: 4
#     Node 9, Type 1, BuildingBlock: UXUYUI_clean_sbu_0, # of connection points: 4
#     Node 10, Type 1, BuildingBlock: UXUYUI_clean_sbu_0, # of connection points: 4
#     Node 11, Type 1, BuildingBlock: UXUYUI_clean_sbu_0, # of connection points: 4
#     Edge 12, Type (0, 1), BuildingBlock: TEMPAE_clean_linker_10, # of connection points: 2
#     Edge 13, Type (0, 1), BuildingBlock: TEMPAE_clean_linker_10, # of connection points: 2
#     Edge 14, Type (0, 1), BuildingBlock: TEMPAE_clean_linker_10, # of connection points: 2
#     Edge 15, Type (0, 1), BuildingBlock: TEMPAE_clean_linker_10, # of connection points: 2
#     Edge 16, Type (0, 1), BuildingBlock: TEMPAE_clean_linker_10, # of connection points: 2
#     Edge 17, Type (0, 1), BuildingBlock: TEMPAE_clean_linker_10, # of connection points: 2
#     Edge 18, Type (0, 1), BuildingBlock: TEMPAE_clean_linker_10, # of connection points: 2
#     Edge 19, Type (0, 1), BuildingBlock: TEMPAE_clean_linker_10, # of connection points: 2
#     Edge 20, Type (0, 1), BuildingBlock: TEMPAE_clean_linker_10, # of connection points: 2
#     Edge 21, Type (0, 1), BuildingBlock: TEMPAE_clean_linker_10, # of connection points: 2
#     Edge 22, Type (0, 1), BuildingBlock: TEMPAE_clean_linker_10, # of connection points: 2
#     Edge 23, Type (0, 1), BuildingBlock: TEMPAE_clean_linker_10, # of connection points: 2
#     Edge 24, Type (0, 1), BuildingBlock: TEMPAE_clean_linker_10, # of connection points: 2
#     Edge 25, Type (0, 1), BuildingBlock: TEMPAE_clean_linker_10, # of connection points: 2
#     Edge 26, Type (0, 1), BuildingBlock: TEMPAE_clean_linker_10, # of connection points: 2
#     Edge 27, Type (0, 1), BuildingBlock: TEMPAE_clean_linker_10, # of connection points: 2
#     Edge 28, Type (0, 1), BuildingBlock: TEMPAE_clean_linker_10, # of connection points: 2
#     Edge 29, Type (0, 1), BuildingBlock: TEMPAE_clean_linker_10, # of connection points: 2
#     Edge 30, Type (0, 1), BuildingBlock: TEMPAE_clean_linker_10, # of connection points: 2
#     Edge 31, Type (0, 1), BuildingBlock: TEMPAE_clean_linker_10, # of connection points: 2
#     Edge 32, Type (0, 1), BuildingBlock: TEMPAE_clean_linker_10, # of connection points: 2
#     Edge 33, Type (0, 1), BuildingBlock: TEMPAE_clean_linker_10, # of connection points: 2
#     Edge 34, Type (0, 1), BuildingBlock: TEMPAE_clean_linker_10, # of connection points: 2
#     Edge 35, Type (0, 1), BuildingBlock: TEMPAE_clean_linker_10, # of connection points: 2
# Relax obj value: 0.035
# Max RMSD: 0.144
# Mean RMSD: 0.118
data_MOF--net-nom--node1-UXUYUI_clean_sbu_0--node2-MIFKUJ_clean_linker_1--edge1-TEMPAE_clean_linker_10
_symmetry_space_group_name_H-M    P1
_symmetry_Int_Tables_number       1
_symmetry_cell_setting            triclinic
loop_
_symmetry_equiv_pos_as_xyz
'x, y, z'
_cell_length_a     63.932673
_cell_length_b     63.92435
_cell_length_c     68.167046
_cell_angle_alpha  90.000164
_cell_angle_beta   89.99966
_cell_angle_gamma 119.99935
loop_
_atom_site_label
_atom_site_type_symbol
_atom_site_fract_x
_atom_site_fract_y
_atom_site_fract_z
_atom_type_partial_charge
H0 H 0.99542 0.47383 0.28905 0.0
H1 H 0.96601 0.45794 0.2623 0.0
H2 H 0.935 0.50054 0.28257 0.0
H3 H 0.96469 0.51666 0.30919 0.0
H4 H 0.02982 0.5207 0.297 0.0
H5 H 0.95463 0.4583 0.33014 0.0
H6 H 0.91257 0.44294 0.34016 0.0
H7 H 0.9335 0.51097 0.36875 0.0
H8 H 0.97527 0.52603 0.35888 0.0
H9 H 0.03883 0.54873 0.38012 0.0
H10 H 0.06792 0.56028 0.40695 0.0
H11 H 0.10344 0.52736 0.37662 0.0
H12 H 0.07393 0.51523 0.35 0.0
H13 H 0.00618 0.50919 0.36715 0.0
H14 H 0.07402 0.5733 0.33954 0.0
H15 H 0.11525 0.60044 0.32846 0.0
H16 H 0.10969 0.546 0.28791 0.0
H17 H 0.06851 0.51849 0.29942 0.0
C18 C 0.98207 0.49619 0.30127 0.0
C19 C 0.98232 0.4798 0.28771 0.0
C20 C 0.96555 0.47076 0.27242 0.0
C21 C 0.94817 0.47794 0.27039 0.0
C22 C 0.94797 0.49443 0.28395 0.0
C23 C 0.96491 0.50363 0.29916 0.0
C24 C 0.00014 0.50568 0.31735 0.0
C25 C 0.02474 0.51782 0.31237 0.0
C26 C 0.99345 0.50339 0.33736 0.0
C27 C 0.96804 0.49334 0.34371 0.0
C28 C 0.95009 0.46984 0.33858 0.0
C29 C 0.92609 0.46113 0.34426 0.0
C30 C 0.91972 0.47573 0.35529 0.0
C31 C 0.93785 0.49913 0.36055 0.0
C32 C 0.96173 0.50779 0.35487 0.0
C33 C 0.0542 0.53121 0.36293 0.0
C34 C 0.05276 0.54383 0.37926 0.0
C35 C 0.06938 0.55043 0.39459 0.0
C36 C 0.0879 0.54469 0.39385 0.0
C37 C 0.08948 0.53222 0.37746 0.0
C38 C 0.07266 0.52535 0.36223 0.0
C39 C 0.03607 0.52366 0.34687 0.0
C40 C 0.01146 0.5119 0.35182 0.0
C41 C 0.0428 0.52761 0.32683 0.0
C42 C 0.06823 0.54365 0.32057 0.0
C43 C 0.08179 0.56694 0.32858 0.0
C44 C 0.10533 0.58249 0.32219 0.0
C45 C 0.11565 0.57527 0.30737 0.0
C46 C 0.10209 0.55203 0.29927 0.0
C47 C 0.0786 0.53634 0.30586 0.0
H48 H 0.46036 0.96542 0.49623 0.0
H49 H 0.43319 0.92392 0.50646 0.0
H50 H 0.49378 0.92055 0.53122 0.0
H51 H 0.52061 0.96271 0.52178 0.0
H52 H 0.51621 0.00395 0.53281 0.0
H53 H 0.48249 0.99697 0.45247 0.0
H54 H 0.46851 0.96823 0.42521 0.0
H55 H 0.50754 0.93504 0.44912 0.0
H56 H 0.52138 0.96376 0.47633 0.0
H57 H 0.56854 0.06961 0.46786 0.0
H58 H 0.5823 0.11118 0.45756 0.0
H59 H 0.53008 0.11356 0.49639 0.0
H60 H 0.51658 0.07215 0.5067 0.0
H61 H 0.52534 0.03065 0.46343 0.0
H62 H 0.5765 0.07286 0.51708 0.0
H63 H 0.59304 0.10213 0.54385 0.0
H64 H 0.5245 0.06433 0.57403 0.0
H65 H 0.50774 0.0359 0.54679 0.0
C66 C 0.49244 0.96701 0.5082 0.0
C67 C 0.46775 0.95566 0.50381 0.0
C68 C 0.45227 0.93183 0.50956 0.0
C69 C 0.46123 0.91871 0.51962 0.0
C70 C 0.48614 0.93016 0.52379 0.0
C71 C 0.50155 0.95418 0.51831 0.0
C72 C 0.50837 0.99259 0.50271 0.0
C73 C 0.5184 0.00989 0.51766 0.0
C74 C 0.51161 9e-05 0.48291 0.0
C75 C 0.50284 0.98242 0.46653 0.0
C76 C 0.48806 0.98352 0.45181 0.0
C77 C 0.48014 0.96713 0.43623 0.0
C78 C 0.48691 0.94935 0.43501 0.0
C79 C 0.5017 0.94828 0.44978 0.0
C80 C 0.50963 0.96469 0.46535 0.0
C81 C 0.54171 0.06787 0.48819 0.0
C82 C 0.56018 0.07917 0.47422 0.0
C83 C 0.56794 0.10287 0.46829 0.0
C84 C 0.55726 0.11566 0.47615 0.0
C85 C 0.53893 0.10435 0.49028 0.0
C86 C 0.53119 0.08067 0.49619 0.0
C87 C 0.53239 0.04224 0.49359 0.0
C88 C 0.5235 0.02486 0.4786 0.0
C89 C 0.53051 0.03471 0.51337 0.0
C90 C 0.54078 0.05229 0.5298 0.0
C91 C 0.56495 0.07105 0.52936 0.0
C92 C 0.57447 0.08762 0.54479 0.0
C93 C 0.56009 0.08563 0.56109 0.0
C94 C 0.53598 0.06665 0.56157 0.0
C95 C 0.52643 0.0502 0.54609 0.0
H96 H 0.54146 0.56537 0.69946 0.0
H97 H 0.52932 0.58176 0.72674 0.0
H98 H 0.45464 0.52773 0.71666 0.0
H99 H 0.46698 0.512 0.68898 0.0
H100 H 0.53062 0.51518 0.69481 0.0
H101 H 0.51179 0.57389 0.66215 0.0
H102 H 0.48292 0.58744 0.65449 0.0
H103 H 0.4335 0.51691 0.63084 0.0
H104 H 0.46217 0.50343 0.63874 0.0
H105 H 0.50392 0.48272 0.61276 0.0
H106 H 0.52003 0.47081 0.58508 0.0
H107 H 0.59075 0.50686 0.61175 0.0
H108 H 0.57483 0.5194 0.63912 0.0
H109 H 0.50975 0.52172 0.62585 0.0
H110 H 0.51696 0.46017 0.65401 0.0
H111 H 0.53218 0.43364 0.66401 0.0
H112 H 0.58813 0.4917 0.69806 0.0
H113 H 0.57262 0.51823 0.68805 0.0
C114 C 0.50511 0.53761 0.69217 0.0
C115 C 0.52248 0.55712 0.70315 0.0
C116 C 0.5155 0.56636 0.71881 0.0
C117 C 0.49099 0.55606 0.72396 0.0
C118 C 0.47363 0.53637 0.71293 0.0
C119 C 0.48063 0.52726 0.69717 0.0
C120 C 0.51276 0.52802 0.67561 0.0
C121 C 0.52651 0.51699 0.67967 0.0
C122 C 0.50583 0.52881 0.65606 0.0
C123 C 0.48903 0.53762 0.65109 0.0
C124 C 0.4947 0.56138 0.65536 0.0
C125 C 0.47828 0.56911 0.65089 0.0
C126 C 0.45592 0.55317 0.64217 0.0
C127 C 0.45044 0.52948 0.6378 0.0
C128 C 0.46687 0.52183 0.64215 0.0
C129 C 0.53807 0.5018 0.62818 0.0
C130 C 0.52293 0.48823 0.61262 0.0
C131 C 0.53213 0.48141 0.59681 0.0
C132 C 0.55661 0.48787 0.59632 0.0
C133 C 0.57174 0.5014 0.61188 0.0
C134 C 0.56262 0.50849 0.62756 0.0
C135 C 0.52842 0.50945 0.64487 0.0
C136 C 0.51423 0.52007 0.6409 0.0
C137 C 0.53357 0.50681 0.66463 0.0
C138 C 0.54382 0.49129 0.67009 0.0
C139 C 0.53274 0.46733 0.66338 0.0
C140 C 0.54148 0.45217 0.6691 0.0
C141 C 0.56143 0.46058 0.68177 0.0
C142 C 0.57259 0.48462 0.68843 0.0
C143 C 0.56381 0.49982 0.68268 0.0
H144 H 0.04197 0.56432 0.79158 0.0
H145 H 0.07067 0.58043 0.76429 0.0
H146 H 0.09402 0.52907 0.77703 0.0
H147 H 0.06506 0.51286 0.80419 0.0
H148 H 0.00366 0.515 0.79665 0.0
H149 H 0.08039 0.57363 0.82963 0.0
H150 H 0.12267 0.58757 0.83803 0.0
H151 H 0.10136 0.51788 0.86359 0.0
H152 H 0.0594 0.50394 0.85479 0.0
H153 H 0.99449 0.47983 0.87749 0.0
H154 H 0.9662 0.46815 0.90498 0.0
H155 H 0.93548 0.50872 0.87962 0.0
H156 H 0.96417 0.52083 0.85245 0.0
H157 H 0.02946 0.5211 0.86606 0.0
H158 H 0.96226 0.45957 0.83672 0.0
H159 H 0.92085 0.43251 0.82606 0.0
H160 H 0.92243 0.49029 0.79204 0.0
H161 H 0.96393 0.5176 0.80312 0.0
C162 C 0.05155 0.53755 0.79996 0.0
C163 C 0.0533 0.55656 0.78848 0.0
C164 C 0.06979 0.56584 0.773 0.0
C165 C 0.08463 0.55605 0.76858 0.0
C166 C 0.0827 0.53686 0.78002 0.0
C167 C 0.06631 0.5277 0.7956 0.0
C168 C 0.03397 0.52788 0.81631 0.0
C169 C 0.00926 0.51678 0.81187 0.0
C170 C 0.04126 0.5286 0.836 0.0
C171 C 0.06681 0.53769 0.84146 0.0
C172 C 0.08489 0.56137 0.83697 0.0
C173 C 0.10898 0.56934 0.84188 0.0
C174 C 0.11532 0.55375 0.85136 0.0
C175 C 0.09709 0.53018 0.85603 0.0
C176 C 0.07309 0.52227 0.85117 0.0
C177 C 0.98141 0.50113 0.86286 0.0
C178 C 0.98169 0.48624 0.87787 0.0
C179 C 0.96539 0.47942 0.89348 0.0
C180 C 0.94861 0.48751 0.89445 0.0
C181 C 0.94833 0.50238 0.87938 0.0
C182 C 0.96457 0.50912 0.86375 0.0
C183 C 0.99908 0.50891 0.84649 0.0
C184 C 0.02376 0.5196 0.85088 0.0
C185 C 0.99171 0.50644 0.82666 0.0
C186 C 0.96611 0.4907 0.82089 0.0
C187 C 0.9536 0.46657 0.82722 0.0
C188 C 0.93003 0.45103 0.82095 0.0
C189 C 0.91847 0.45926 0.80813 0.0
C190 C 0.93085 0.48352 0.80202 0.0
C191 C 0.95456 0.49909 0.80825 0.0
H192 H 0.57214 0.061 0.02301 0.0
H193 H 0.59997 0.10253 0.03282 0.0
H194 H 0.55434 0.12559 0.0046 0.0
H195 H 0.52593 0.08361 0.99545 0.0
H196 H 0.52546 0.0312 0.0321 0.0
H197 H 0.57134 0.07098 0.97224 0.0
H198 H 0.58404 0.1007 0.94573 0.0
H199 H 0.50939 0.07203 0.92905 0.0
H200 H 0.49682 0.04303 0.956 0.0
H201 H 0.46661 0.96716 0.96748 0.0
H202 H 0.45298 0.926 0.95584 0.0
H203 H 0.50836 0.92395 0.99069 0.0
H204 H 0.5222 0.96509 0.00188 0.0
H205 H 0.50882 0.00722 0.96214 0.0
H206 H 0.46246 0.9637 0.01633 0.0
H207 H 0.44621 0.93431 0.04307 0.0
H208 H 0.51622 0.96914 0.07098 0.0
H209 H 0.53259 0.99821 0.04402 0.0
C210 C 0.54706 0.06922 0.00837 0.0
C211 C 0.56801 0.07496 0.01906 0.0
C212 C 0.58404 0.09876 0.02448 0.0
C213 C 0.57951 0.11741 0.0193 0.0
C214 C 0.55828 0.1116 0.00888 0.0
C215 C 0.54213 0.08767 0.0035 0.0
C216 C 0.53082 0.04383 0.00226 0.0
C217 C 0.52193 0.02588 0.0168 0.0
C218 C 0.5251 0.03705 0.98236 0.0
C219 C 0.53311 0.05502 0.96626 0.0
C220 C 0.55772 0.0713 0.96299 0.0
C221 C 0.56496 0.08812 0.94772 0.0
C222 C 0.54772 0.08881 0.93531 0.0
C223 C 0.52311 0.07228 0.93853 0.0
C224 C 0.5159 0.05555 0.95382 0.0
C225 C 0.49526 0.96911 0.98568 0.0
C226 C 0.47572 0.95777 0.97264 0.0
C227 C 0.46789 0.93425 0.9661 0.0
C228 C 0.47967 0.92181 0.97232 0.0
C229 C 0.4991 0.93317 0.98548 0.0
C230 C 0.50685 0.95658 0.99205 0.0
C231 C 0.5046 0.99448 0.99194 0.0
C232 C 0.51204 0.01243 0.97747 0.0
C233 C 0.50862 0.00127 0.01195 0.0
C234 C 0.49883 0.98312 0.02803 0.0
C235 C 0.47444 0.96483 0.02804 0.0
C236 C 0.46513 0.94807 0.04334 0.0
C237 C 0.47995 0.94949 0.0591 0.0
C238 C 0.50433 0.9678 0.05912 0.0
C239 C 0.51369 0.9844 0.04372 0.0
H240 H 0.49326 0.47179 0.20172 0.0
H241 H 0.50644 0.45613 0.22881 0.0
H242 H 0.58092 0.50661 0.21429 0.0
H243 H 0.56749 0.52171 0.18684 0.0
H244 H 0.50476 0.52087 0.19567 0.0
H245 H 0.52215 0.46123 0.16547 0.0
H246 H 0.54965 0.44651 0.15633 0.0
H247 H 0.59327 0.512 0.1235 0.0
H248 H 0.56637 0.52701 0.13314 0.0
H249 H 0.52804 0.55144 0.11346 0.0
H250 H 0.51176 0.5636 0.08609 0.0
H251 H 0.44161 0.52881 0.11375 0.0
H252 H 0.45776 0.51614 0.14092 0.0
H253 H 0.52067 0.51136 0.126 0.0
H254 H 0.5156 0.57466 0.15438 0.0
H255 H 0.50089 0.60131 0.16537 0.0
H256 H 0.44794 0.54419 0.202 0.0
H257 H 0.4627 0.51744 0.19085 0.0
C258 C 0.5294 0.49776 0.19223 0.0
C259 C 0.51242 0.47945 0.2044 0.0
C260 C 0.52 0.47062 0.21994 0.0
C261 C 0.54476 0.48014 0.22378 0.0
C262 C 0.56174 0.49862 0.21158 0.0
C263 C 0.55411 0.50735 0.19595 0.0
C264 C 0.52102 0.50693 0.17584 0.0
C265 C 0.50786 0.51847 0.1804 0.0
C266 C 0.52648 0.50514 0.15602 0.0
C267 C 0.54234 0.49538 0.1502 0.0
C268 C 0.53778 0.47254 0.15651 0.0
C269 C 0.55342 0.46411 0.15124 0.0
C270 C 0.57352 0.47814 0.13921 0.0
C271 C 0.57777 0.50074 0.13263 0.0
C272 C 0.5624 0.50931 0.13814 0.0
C273 C 0.4942 0.53298 0.12937 0.0
C274 C 0.50912 0.54629 0.11362 0.0
C275 C 0.49981 0.55323 0.09798 0.0
C276 C 0.47543 0.54713 0.09781 0.0
C277 C 0.46053 0.53397 0.11361 0.0
C278 C 0.46978 0.52679 0.12916 0.0
C279 C 0.50403 0.52507 0.14574 0.0
C280 C 0.51738 0.5137 0.14123 0.0
C281 C 0.50006 0.52834 0.16566 0.0
C282 C 0.49005 0.54393 0.17159 0.0
C283 C 0.50052 0.56769 0.1645 0.0
C284 C 0.49212 0.58293 0.17081 0.0
C285 C 0.47322 0.57482 0.18452 0.0
C286 C 0.46267 0.55099 0.19156 0.0
C287 C 0.47103 0.53569 0.18516 0.0
Li288 Li 0.63711 0.40188 0.42695 0.0
Li289 Li 0.62927 0.36346 0.41295 0.0
Li290 Li 0.66765 0.40217 0.40574 0.0
Li291 Li 0.62949 0.3944 0.39076 0.0
C292 C 0.6607 0.38735 0.4506 0.0
N293 N 0.67018 0.39254 0.49038 0.0
C294 C 0.64839 0.3676 0.46316 0.0
C295 C 0.67806 0.40965 0.45822 0.0
C296 C 0.65339 0.37061 0.48324 0.0
C297 C 0.68253 0.41194 0.47839 0.0
C298 C 0.58355 0.36077 0.4113 0.0
C299 C 0.54982 0.3326 0.39158 0.0
N300 N 0.53499 0.32743 0.40735 0.0
C301 C 0.56793 0.3554 0.42725 0.0
C302 C 0.5744 0.34948 0.39327 0.0
C303 C 0.54346 0.3384 0.42498 0.0
C304 C 0.63654 0.4387 0.45013 0.0
N305 N 0.63018 0.415 0.44941 0.0
C306 C 0.61091 0.40782 0.48067 0.0
C307 C 0.61755 0.39957 0.4642 0.0
C308 C 0.61683 0.43214 0.4818 0.0
C309 C 0.62999 0.4477 0.46626 0.0
H310 H 0.64622 0.45049 0.438 0.0
H311 H 0.61234 0.38072 0.46307 0.0
C312 C 0.62956 0.31993 0.41165 0.0
N313 N 0.61686 0.33022 0.41855 0.0
C314 C 0.62278 0.29622 0.41667 0.0
C315 C 0.59005 0.29415 0.43595 0.0
C316 C 0.59743 0.3179 0.43049 0.0
C317 C 0.60294 0.28308 0.42916 0.0
H318 H 0.64525 0.33035 0.40251 0.0
H319 H 0.5882 0.32676 0.43638 0.0
C320 C 0.67296 0.4458 0.39918 0.0
N321 N 0.71187 0.48944 0.3878 0.0
C322 C 0.67538 0.45327 0.37963 0.0
C323 C 0.69018 0.46064 0.41298 0.0
C324 C 0.69521 0.47537 0.37416 0.0
C325 C 0.70978 0.4826 0.40692 0.0
C326 C 0.64267 0.36301 0.3705 0.0
C327 C 0.65995 0.37212 0.35555 0.0
C328 C 0.62164 0.34067 0.368 0.0
C329 C 0.65576 0.35886 0.33826 0.0
C330 C 0.61813 0.32796 0.35051 0.0
N331 N 0.63511 0.33724 0.33611 0.0
C332 C 0.71452 0.41086 0.41419 0.0
C333 C 0.71078 0.42593 0.38341 0.0
C334 C 0.73856 0.41782 0.41018 0.0
N335 N 0.70117 0.4149 0.40081 0.0
C336 C 0.73475 0.43328 0.37884 0.0
C337 C 0.74888 0.42897 0.39221 0.0
H338 H 0.70635 0.40168 0.42776 0.0
H339 H 0.69963 0.42837 0.37281 0.0
C340 C 0.60916 0.41852 0.37211 0.0
N341 N 0.61554 0.40149 0.36875 0.0
C342 C 0.60049 0.42666 0.35684 0.0
C343 C 0.60442 0.39908 0.33497 0.0
C344 C 0.61313 0.39157 0.35065 0.0
C345 C 0.59825 0.41707 0.33792 0.0
H346 H 0.61129 0.42613 0.38665 0.0
H347 H 0.61825 0.3781 0.34817 0.0
O348 O 0.65584 0.38483 0.43092 0.0
O349 O 0.60754 0.37742 0.41329 0.0
O350 O 0.65375 0.42416 0.40481 0.0
O351 O 0.64658 0.37571 0.38757 0.0
H352 H 0.635 0.35017 0.45749 0.0
H353 H 0.68791 0.42503 0.44867 0.0
H354 H 0.64389 0.35552 0.49315 0.0
H355 H 0.69581 0.42914 0.48451 0.0
H356 H 0.54252 0.32367 0.37772 0.0
H357 H 0.57465 0.36415 0.44126 0.0
H358 H 0.58609 0.35378 0.38067 0.0
H359 H 0.5312 0.33395 0.43724 0.0
H360 H 0.60114 0.39519 0.49236 0.0
H361 H 0.63462 0.46647 0.46629 0.0
H362 H 0.6331 0.28834 0.41096 0.0
H363 H 0.57496 0.28487 0.44592 0.0
H364 H 0.66227 0.44199 0.36873 0.0
H365 H 0.68845 0.45526 0.4282 0.0
H366 H 0.6974 0.4813 0.35906 0.0
H367 H 0.7233 0.49421 0.41743 0.0
H368 H 0.67637 0.38927 0.35722 0.0
H369 H 0.60816 0.33316 0.37943 0.0
H370 H 0.66895 0.36575 0.32656 0.0
H371 H 0.60191 0.31069 0.34838 0.0
H372 H 0.74889 0.41433 0.42096 0.0
H373 H 0.74188 0.44148 0.36469 0.0
H374 H 0.59565 0.44035 0.3598 0.0
H375 H 0.60317 0.39136 0.32058 0.0
Li376 Li 0.2509 0.63879 0.59943 0.0
Li377 Li 0.28237 0.63105 0.58592 0.0
Li378 Li 0.28317 0.66889 0.57855 0.0
Li379 Li 0.25348 0.63139 0.56345 0.0
C380 C 0.30556 0.67539 0.61323 0.0
N381 N 0.34567 0.71473 0.62926 0.0
C382 C 0.32801 0.6766 0.61292 0.0
C383 C 0.30351 0.69413 0.62186 0.0
C384 C 0.34807 0.69664 0.62107 0.0
C385 C 0.324 0.71388 0.62982 0.0
C386 C 0.24465 0.58791 0.59191 0.0
C387 C 0.24759 0.55238 0.58544 0.0
N388 N 0.24227 0.54571 0.60455 0.0
C389 C 0.23908 0.58065 0.61146 0.0
C390 C 0.24881 0.57362 0.57875 0.0
C391 C 0.23799 0.55927 0.61758 0.0
C392 C 0.20575 0.61695 0.6182 0.0
N393 N 0.22974 0.63226 0.62093 0.0
C394 C 0.22364 0.63517 0.65516 0.0
C395 C 0.2389 0.6415 0.6389 0.0
C396 C 0.19877 0.61894 0.65294 0.0
C397 C 0.18985 0.60999 0.63407 0.0
H398 H 0.19909 0.60966 0.60375 0.0
H399 H 0.25811 0.65347 0.64065 0.0
C400 C 0.31744 0.61722 0.57878 0.0
N401 N 0.30195 0.61743 0.59232 0.0
C402 C 0.33352 0.60936 0.58396 0.0
C403 C 0.31716 0.60182 0.61684 0.0
C404 C 0.3015 0.60993 0.61105 0.0
C405 C 0.33369 0.60175 0.60329 0.0
H406 H 0.31783 0.62383 0.56413 0.0
H407 H 0.28935 0.61083 0.62161 0.0
C408 C 0.23961 0.67193 0.57805 0.0
N409 N 0.22279 0.70404 0.58162 0.0
C410 C 0.22954 0.67711 0.56186 0.0
C411 C 0.2409 0.6829 0.59608 0.0
C412 C 0.2212 0.69345 0.56395 0.0
C413 C 0.23236 0.69913 0.59758 0.0
C414 C 0.29219 0.64698 0.54105 0.0
C415 C 0.2996 0.66745 0.52933 0.0
C416 C 0.28748 0.62522 0.53242 0.0
C417 C 0.30196 0.66572 0.50911 0.0
C418 C 0.29001 0.62422 0.51214 0.0
N419 N 0.29713 0.64432 0.501 0.0
C420 C 0.32879 0.7083 0.57246 0.0
C421 C 0.29846 0.71909 0.57005 0.0
C422 C 0.34667 0.73183 0.56798 0.0
N423 N 0.30523 0.70238 0.57356 0.0
C424 C 0.31572 0.74279 0.56515 0.0
C425 C 0.34025 0.74946 0.56399 0.0
H426 H 0.33366 0.69454 0.57475 0.0
H427 H 0.27969 0.71408 0.57052 0.0
C428 C 0.21794 0.59438 0.53917 0.0
N429 N 0.23449 0.61829 0.54041 0.0
C430 C 0.20296 0.58531 0.52272 0.0
C431 C 0.22276 0.62558 0.50903 0.0
C432 C 0.2371 0.63387 0.52581 0.0
C433 C 0.20511 0.60104 0.5074 0.0
H434 H 0.21597 0.58245 0.55116 0.0
H435 H 0.25014 0.65287 0.52732 0.0
O436 O 0.28575 0.65605 0.60507 0.0
O437 O 0.24621 0.60898 0.58572 0.0
O438 O 0.2478 0.65593 0.57624 0.0
O439 O 0.28951 0.64823 0.56085 0.0
H440 H 0.33008 0.66243 0.60622 0.0
H441 H 0.28635 0.69355 0.62232 0.0
H442 H 0.36556 0.69786 0.62081 0.0
H443 H 0.32267 0.72856 0.63644 0.0
H444 H 0.2509 0.54121 0.57544 0.0
H445 H 0.23587 0.59153 0.62186 0.0
H446 H 0.25307 0.57896 0.56356 0.0
H447 H 0.23383 0.55349 0.63269 0.0
H448 H 0.23129 0.64279 0.66934 0.0
H449 H 0.17091 0.59716 0.63168 0.0
H450 H 0.34622 0.61002 0.57312 0.0
H451 H 0.31647 0.59589 0.63183 0.0
H452 H 0.22822 0.66865 0.54783 0.0
H453 H 0.24842 0.67896 0.60878 0.0
H454 H 0.21346 0.6977 0.55153 0.0
H455 H 0.23333 0.70781 0.61145 0.0
H456 H 0.30324 0.68443 0.53572 0.0
H457 H 0.28174 0.60922 0.54127 0.0
H458 H 0.30756 0.68138 0.49985 0.0
H459 H 0.28629 0.60745 0.50526 0.0
H460 H 0.36531 0.73605 0.56755 0.0
H461 H 0.30974 0.75552 0.5618 0.0
H462 H 0.18938 0.56634 0.52229 0.0
H463 H 0.22538 0.63835 0.49753 0.0
Li464 Li 0.66868 0.28292 0.75083 0.0
Li465 Li 0.63097 0.2527 0.76472 0.0
Li466 Li 0.63856 0.252 0.7302 0.0
Li467 Li 0.63191 0.28305 0.74323 0.0
C468 C 0.67273 0.24194 0.74516 0.0
N469 N 0.7061 0.23044 0.73068 0.0
C470 C 0.67383 0.2222 0.75272 0.0
C471 C 0.68865 0.25588 0.73026 0.0
C472 C 0.69082 0.21667 0.7452 0.0
C473 C 0.70537 0.24976 0.72313 0.0
C474 C 0.65823 0.29436 0.78725 0.0
C475 C 0.67105 0.3206 0.81548 0.0
N476 N 0.67989 0.30721 0.82372 0.0
C477 C 0.66744 0.28085 0.79599 0.0
C478 C 0.66004 0.31439 0.79705 0.0
C479 C 0.67832 0.28764 0.81443 0.0
C480 C 0.7117 0.32694 0.74881 0.0
N481 N 0.70199 0.30408 0.75586 0.0
C482 C 0.73892 0.31392 0.77204 0.0
C483 C 0.71508 0.29722 0.76712 0.0
C484 C 0.74934 0.33781 0.76523 0.0
C485 C 0.73552 0.34418 0.75325 0.0
H486 H 0.7007 0.3319 0.74009 0.0
H487 H 0.70687 0.27894 0.77262 0.0
C488 C 0.61329 0.20984 0.78576 0.0
N489 N 0.61623 0.23237 0.78685 0.0
C490 C 0.60416 0.19417 0.80175 0.0
C491 C 0.60085 0.22507 0.81962 0.0
C492 C 0.60992 0.2401 0.80321 0.0
C493 C 0.59807 0.20183 0.81906 0.0
H494 H 0.61846 0.20421 0.77254 0.0
H495 H 0.61233 0.25808 0.80368 0.0
C496 C 0.65287 0.29239 0.70646 0.0
N497 N 0.64319 0.30315 0.66948 0.0
C498 C 0.62977 0.27882 0.69839 0.0
C499 C 0.67104 0.31141 0.69572 0.0
C500 C 0.62524 0.28455 0.67968 0.0
C501 C 0.66579 0.31657 0.67705 0.0
C502 C 0.58678 0.24312 0.75017 0.0
C503 C 0.56534 0.22416 0.7426 0.0
C504 C 0.58582 0.25733 0.76534 0.0
C505 C 0.54326 0.21968 0.75039 0.0
C506 C 0.56339 0.25227 0.77274 0.0
N507 N 0.54275 0.2337 0.76518 0.0
C508 C 0.61179 0.20935 0.709 0.0
C509 C 0.64787 0.23761 0.69292 0.0
C510 C 0.60542 0.19341 0.69321 0.0
N511 N 0.63258 0.23101 0.7085 0.0
C512 C 0.64228 0.22216 0.67684 0.0
C513 C 0.62069 0.19977 0.67677 0.0
H514 H 0.59997 0.20463 0.72158 0.0
H515 H 0.66427 0.25499 0.69286 0.0
C516 C 0.63442 0.32772 0.74355 0.0
N517 N 0.62022 0.30447 0.73768 0.0
C518 C 0.62833 0.3452 0.73864 0.0
C519 C 0.59293 0.31438 0.72189 0.0
C520 C 0.59969 0.29747 0.72717 0.0
C521 C 0.60748 0.33868 0.72746 0.0
H522 H 0.65075 0.33275 0.75174 0.0
H523 H 0.58888 0.27891 0.72246 0.0
O524 O 0.65614 0.24748 0.75246 0.0
O525 O 0.64761 0.28824 0.76914 0.0
O526 O 0.65785 0.28725 0.72478 0.0
O527 O 0.60848 0.24762 0.74259 0.0
H528 H 0.66167 0.21126 0.7643 0.0
H529 H 0.68819 0.27129 0.72426 0.0
H530 H 0.69185 0.20142 0.75091 0.0
H531 H 0.71778 0.26039 0.71159 0.0
H532 H 0.67258 0.33607 0.82324 0.0
H533 H 0.6662 0.26528 0.78866 0.0
H534 H 0.653 0.32503 0.79047 0.0
H535 H 0.68552 0.27736 0.82136 0.0
H536 H 0.74907 0.30826 0.78116 0.0
H537 H 0.74281 0.36247 0.74788 0.0
H538 H 0.60253 0.17651 0.80076 0.0
H539 H 0.59612 0.23156 0.8326 0.0
H540 H 0.61546 0.26401 0.70644 0.0
H541 H 0.68902 0.32206 0.70176 0.0
H542 H 0.60744 0.27421 0.67327 0.0
H543 H 0.67969 0.33125 0.66857 0.0
H544 H 0.56575 0.21304 0.73081 0.0
H545 H 0.60214 0.27218 0.77134 0.0
H546 H 0.52653 0.20505 0.74467 0.0
H547 H 0.5624 0.26312 0.78448 0.0
H548 H 0.58844 0.17654 0.69371 0.0
H549 H 0.65472 0.22771 0.66461 0.0
H550 H 0.6399 0.36364 0.74345 0.0
H551 H 0.57689 0.30861 0.71305 0.0
Li552 Li 0.3981 0.63424 0.92721 0.0
Li553 Li 0.40567 0.67235 0.9128 0.0
Li554 Li 0.36781 0.6334 0.90554 0.0
Li555 Li 0.40629 0.64153 0.89095 0.0
C556 C 0.374 0.64867 0.95033 0.0
N557 N 0.36443 0.64395 0.9901 0.0
C558 C 0.38573 0.66874 0.96266 0.0
C559 C 0.35716 0.62628 0.95817 0.0
C560 C 0.3807 0.66597 0.98275 0.0
C561 C 0.35265 0.62424 0.97833 0.0
C562 C 0.45191 0.67511 0.91244 0.0
C563 C 0.48721 0.7019 0.89355 0.0
N564 N 0.5009 0.70757 0.91008 0.0
C565 C 0.4664 0.68093 0.92919 0.0
C566 C 0.46245 0.68544 0.89443 0.0
C567 C 0.4911 0.69749 0.92772 0.0
C568 C 0.39851 0.59756 0.95062 0.0
N569 N 0.40469 0.62121 0.94994 0.0
C570 C 0.42279 0.62814 0.98169 0.0
C571 C 0.41663 0.63649 0.96501 0.0
C572 C 0.41703 0.60388 0.98278 0.0
C573 C 0.40455 0.58846 0.96698 0.0
H574 H 0.38931 0.58588 0.93831 0.0
H575 H 0.42161 0.65529 0.96397 0.0
C576 C 0.40551 0.71607 0.91049 0.0
N577 N 0.4178 0.70567 0.91806 0.0
C578 C 0.41237 0.73992 0.91513 0.0
C579 C 0.44424 0.74184 0.93549 0.0
C580 C 0.43683 0.71799 0.93037 0.0
C581 C 0.43184 0.75304 0.92795 0.0
H582 H 0.39002 0.70564 0.90116 0.0
H583 H 0.44579 0.7091 0.93671 0.0
C584 C 0.36304 0.59018 0.89911 0.0
N585 N 0.32429 0.54679 0.88708 0.0
C586 C 0.36114 0.58291 0.87954 0.0
C587 C 0.34538 0.57528 0.9126 0.0
C588 C 0.34138 0.56093 0.87374 0.0
C589 C 0.32588 0.55345 0.90622 0.0
C590 C 0.39373 0.67379 0.87085 0.0
C591 C 0.37626 0.66723 0.85618 0.0
C592 C 0.41603 0.69496 0.86877 0.0
C593 C 0.38153 0.68178 0.83955 0.0
C594 C 0.4206 0.70904 0.85193 0.0
N595 N 0.40342 0.7022 0.83777 0.0
C596 C 0.31961 0.62161 0.91337 0.0
C597 C 0.32627 0.61051 0.8818 0.0
C598 C 0.29553 0.61376 0.90869 0.0
N599 N 0.33441 0.61996 0.89992 0.0
C600 C 0.30235 0.6024 0.87652 0.0
C601 C 0.2867 0.60427 0.88995 0.0
H602 H 0.32666 0.62965 0.92753 0.0
H603 H 0.33853 0.6098 0.87127 0.0
C604 C 0.42993 0.62008 0.87301 0.0
N605 N 0.42061 0.63466 0.86912 0.0
C606 C 0.43908 0.61229 0.85784 0.0
C607 C 0.4295 0.63517 0.83499 0.0
C608 C 0.42034 0.64235 0.85057 0.0
C609 C 0.43876 0.61971 0.83851 0.0
H610 H 0.42976 0.61412 0.88789 0.0
H611 H 0.41259 0.65361 0.84766 0.0
O612 O 0.37892 0.65096 0.93066 0.0
O613 O 0.42773 0.65874 0.91362 0.0
O614 O 0.38213 0.61174 0.90504 0.0
O615 O 0.38881 0.65972 0.88725 0.0
H616 H 0.39869 0.68623 0.95682 0.0
H617 H 0.34779 0.61063 0.94881 0.0
H618 H 0.38975 0.68131 0.99248 0.0
H619 H 0.33978 0.60698 0.98462 0.0
H620 H 0.49557 0.7101 0.87971 0.0
H621 H 0.45865 0.67286 0.9432 0.0
H622 H 0.45173 0.68068 0.88121 0.0
H623 H 0.50247 0.70229 0.94059 0.0
H624 H 0.43206 0.64064 0.99358 0.0
H625 H 0.40005 0.56973 0.967 0.0
H626 H 0.40207 0.74774 0.90926 0.0
H627 H 0.45939 0.75134 0.94539 0.0
H628 H 0.37463 0.59421 0.86889 0.0
H629 H 0.3467 0.58052 0.92783 0.0
H630 H 0.33959 0.55514 0.85862 0.0
H631 H 0.31202 0.54179 0.91649 0.0
H632 H 0.35884 0.65105 0.85758 0.0
H633 H 0.42959 0.70063 0.8801 0.0
H634 H 0.36821 0.67685 0.82805 0.0
H635 H 0.43779 0.72545 0.85014 0.0
H636 H 0.2842 0.61586 0.9194 0.0
H637 H 0.29625 0.59495 0.862 0.0
H638 H 0.44624 0.6005 0.86119 0.0
H639 H 0.42865 0.64106 0.82026 0.0
Li640 Li 0.75195 0.4053 0.08605 0.0
Li641 Li 0.78246 0.39806 0.10073 0.0
Li642 Li 0.7835 0.40586 0.06449 0.0
Li643 Li 0.75336 0.36735 0.07894 0.0
C644 C 0.7932 0.45141 0.08522 0.0
N645 N 0.80482 0.49914 0.08177 0.0
C646 C 0.80118 0.46665 0.10157 0.0
C647 C 0.79162 0.46063 0.06704 0.0
C648 C 0.80681 0.49067 0.09956 0.0
C649 C 0.79745 0.48475 0.06561 0.0
C650 C 0.7439 0.37312 0.1236 0.0
C651 C 0.74389 0.34894 0.15078 0.0
N652 N 0.73893 0.36252 0.16323 0.0
C653 C 0.73851 0.38664 0.13664 0.0
C654 C 0.74635 0.35394 0.13069 0.0
C655 C 0.73618 0.38108 0.15663 0.0
C656 C 0.70885 0.40651 0.08164 0.0
N657 N 0.73054 0.41725 0.09098 0.0
C658 C 0.71927 0.44158 0.10984 0.0
C659 C 0.73602 0.43453 0.10483 0.0
C660 C 0.69664 0.43078 0.10047 0.0
C661 C 0.69169 0.41323 0.086 0.0
H662 H 0.7047 0.39238 0.07104 0.0
H663 H 0.75299 0.44213 0.11258 0.0
C664 C 0.81764 0.39672 0.12573 0.0
N665 N 0.80168 0.40477 0.12374 0.0
C666 C 0.83252 0.403 0.14228 0.0
C667 C 0.81417 0.42562 0.15437 0.0
C668 C 0.79962 0.41882 0.13768 0.0
C669 C 0.83106 0.41789 0.15675 0.0
H670 H 0.81919 0.38586 0.1143 0.0
H671 H 0.78682 0.42501 0.13571 0.0
C672 C 0.7402 0.39198 0.04291 0.0
N673 N 0.72418 0.39907 0.00718 0.0
C674 C 0.73188 0.37403 0.0285 0.0
C675 C 0.73983 0.41331 0.03927 0.0
C676 C 0.72403 0.37801 0.01049 0.0
C677 C 0.7318 0.41662 0.0211 0.0
C678 C 0.79278 0.36301 0.07443 0.0
C679 C 0.80115 0.36123 0.05591 0.0
C680 C 0.78813 0.34538 0.08857 0.0
C681 C 0.80423 0.34155 0.05171 0.0
C682 C 0.79142 0.32596 0.08381 0.0
N683 N 0.7993 0.32444 0.06562 0.0
C684 C 0.82543 0.44029 0.04416 0.0
C685 C 0.79692 0.40781 0.02468 0.0
C686 C 0.84116 0.44981 0.0282 0.0
N687 N 0.80376 0.4197 0.0421 0.0
C688 C 0.81208 0.41661 0.00838 0.0
C689 C 0.83462 0.43782 0.01002 0.0
H690 H 0.83065 0.44916 0.05828 0.0
H691 H 0.78011 0.39096 0.02361 0.0
C692 C 0.71473 0.31987 0.08521 0.0
N693 N 0.73351 0.33395 0.07315 0.0
C694 C 0.69837 0.29598 0.08009 0.0
C695 C 0.72113 0.30151 0.05033 0.0
C696 C 0.73706 0.32523 0.05605 0.0
C697 C 0.70127 0.28665 0.06228 0.0
H698 H 0.71197 0.32742 0.09848 0.0
H699 H 0.75182 0.33695 0.04652 0.0
O700 O 0.7876 0.42781 0.08696 0.0
O701 O 0.7466 0.37853 0.10401 0.0
O702 O 0.74786 0.38828 0.06068 0.0
O703 O 0.78941 0.38203 0.07875 0.0
H704 H 0.80292 0.46003 0.11571 0.0
H705 H 0.78628 0.44942 0.0541 0.0
H706 H 0.81282 0.50258 0.11214 0.0
H707 H 0.79622 0.49205 0.05162 0.0
H708 H 0.74586 0.33422 0.15646 0.0
H709 H 0.73636 0.40141 0.13143 0.0
H710 H 0.75 0.34297 0.1208 0.0
H711 H 0.73221 0.39153 0.16689 0.0
H712 H 0.72373 0.45478 0.12139 0.0
H713 H 0.67465 0.40458 0.0782 0.0
H714 H 0.8455 0.39688 0.14345 0.0
H715 H 0.81228 0.43689 0.16528 0.0
H716 H 0.73166 0.35725 0.03109 0.0
H717 H 0.74528 0.42704 0.05044 0.0
H718 H 0.71777 0.36435 0.99916 0.0
H719 H 0.7315 0.43308 0.0181 0.0
H720 H 0.80515 0.37483 0.04486 0.0
H721 H 0.7821 0.34668 0.10307 0.0
H722 H 0.81055 0.33988 0.03739 0.0
H723 H 0.78775 0.31212 0.09459 0.0
H724 H 0.85829 0.46629 0.0301 0.0
H725 H 0.80653 0.40643 0.99482 0.0
H726 H 0.68312 0.28522 0.08959 0.0
H727 H 0.72413 0.29496 0.03656 0.0
Li728 Li 0.40154 0.7833 0.26521 0.0
Li729 Li 0.36402 0.75306 0.24937 0.0
Li730 Li 0.40273 0.75237 0.24417 0.0
Li731 Li 0.39603 0.78306 0.22855 0.0
C732 C 0.38613 0.74022 0.28696 0.0
N733 N 0.39009 0.72475 0.32391 0.0
C734 C 0.36713 0.73248 0.30035 0.0
C735 C 0.40695 0.73962 0.29223 0.0
C736 C 0.36953 0.72488 0.319 0.0
C737 C 0.40866 0.73186 0.31101 0.0
C738 C 0.35939 0.79306 0.25194 0.0
C739 C 0.32456 0.79334 0.23866 0.0
N740 N 0.32098 0.80106 0.25626 0.0
C741 C 0.35553 0.80127 0.26983 0.0
C742 C 0.34395 0.7893 0.23616 0.0
C743 C 0.33595 0.80511 0.27175 0.0
C744 C 0.43565 0.82408 0.28684 0.0
N745 N 0.41407 0.80319 0.28789 0.0
C746 C 0.40856 0.8118 0.32099 0.0
C747 C 0.40049 0.79692 0.30449 0.0
C748 C 0.43076 0.83352 0.32037 0.0
C749 C 0.44445 0.83952 0.30302 0.0
H750 H 0.44582 0.82898 0.2733 0.0
H751 H 0.38304 0.78067 0.30475 0.0
C752 C 0.31866 0.7123 0.24212 0.0
N753 N 0.33034 0.73245 0.25342 0.0
C754 C 0.2946 0.69519 0.24596 0.0
C755 C 0.29489 0.72011 0.27276 0.0
C756 C 0.31901 0.73662 0.26852 0.0
C757 C 0.28251 0.69891 0.26159 0.0
H758 H 0.32826 0.70915 0.2305 0.0
H759 H 0.32893 0.75227 0.27776 0.0
C760 C 0.44852 0.79418 0.24496 0.0
N761 N 0.49652 0.80663 0.2474 0.0
C762 C 0.46351 0.80334 0.22854 0.0
C763 C 0.45804 0.79173 0.2627 0.0
C764 C 0.4877 0.80941 0.23004 0.0
C765 C 0.48233 0.79803 0.26362 0.0
C766 C 0.37193 0.74296 0.20549 0.0
C767 C 0.38556 0.73658 0.19346 0.0
C768 C 0.3526 0.74449 0.19752 0.0
C769 C 0.37995 0.73238 0.17352 0.0
C770 C 0.34756 0.74014 0.17752 0.0
N771 N 0.36125 0.73427 0.16602 0.0
C772 C 0.4027 0.70885 0.24857 0.0
C773 C 0.43403 0.7371 0.22802 0.0
C774 C 0.40921 0.69144 0.24459 0.0
N775 N 0.41507 0.73112 0.24025 0.0
C776 C 0.44119 0.72026 0.22366 0.0
C777 C 0.42851 0.69697 0.23178 0.0
H778 H 0.38736 0.70441 0.25791 0.0
H779 H 0.44297 0.75456 0.22099 0.0
C780 C 0.39858 0.82095 0.205 0.0
N781 N 0.40379 0.80279 0.20578 0.0
C782 C 0.40539 0.83623 0.1887 0.0
C783 C 0.42262 0.8137 0.17427 0.0
C784 C 0.41567 0.79903 0.1909 0.0
C785 C 0.41771 0.83278 0.17305 0.0
H786 H 0.3896 0.82391 0.21723 0.0
H787 H 0.42014 0.78487 0.19209 0.0
O788 O 0.38401 0.74761 0.26859 0.0
O789 O 0.37837 0.78903 0.24983 0.0
O790 O 0.42478 0.7881 0.24372 0.0
O791 O 0.37724 0.74727 0.22503 0.0
H792 H 0.35077 0.73255 0.29644 0.0
H793 H 0.42151 0.74478 0.28188 0.0
H794 H 0.35504 0.71904 0.32957 0.0
H795 H 0.4247 0.73137 0.3153 0.0
H796 H 0.31241 0.79039 0.22658 0.0
H797 H 0.36744 0.80453 0.28213 0.0
H798 H 0.34697 0.78344 0.22211 0.0
H799 H 0.33266 0.81131 0.28555 0.0
H800 H 0.39745 0.80641 0.33407 0.0
H801 H 0.46145 0.85629 0.30177 0.0
H802 H 0.28564 0.67907 0.237 0.0
H803 H 0.28633 0.72341 0.28516 0.0
H804 H 0.45652 0.8056 0.21475 0.0
H805 H 0.4469 0.78534 0.27568 0.0
H806 H 0.49946 0.81636 0.21741 0.0
H807 H 0.48991 0.79618 0.27725 0.0
H808 H 0.40044 0.73511 0.19941 0.0
H809 H 0.3415 0.74881 0.2067 0.0
H810 H 0.39048 0.72763 0.16401 0.0
H811 H 0.33271 0.74137 0.17114 0.0
H812 H 0.39904 0.67375 0.25125 0.0
H813 H 0.45585 0.72512 0.2134 0.0
H814 H 0.40161 0.85096 0.18861 0.0
H815 H 0.43184 0.81017 0.16253 0.0
C816 C 0.15918 0.60532 0.31332 0.0
C817 C 0.14027 0.59229 0.30007 0.0
C818 C 0.18235 0.6222 0.30666 0.0
C819 C 0.18662 0.62634 0.28626 0.0
C820 C 0.16762 0.61309 0.27281 0.0
C821 C 0.14468 0.59611 0.27988 0.0
C822 C 0.20223 0.63573 0.32145 0.0
C823 C 0.17143 0.61719 0.25097 0.0
C824 C 0.24011 0.68664 0.27124 0.0
C825 C 0.25758 0.68019 0.26693 0.0
C826 C 0.21677 0.6692 0.27717 0.0
C827 C 0.2109 0.64479 0.27907 0.0
C828 C 0.2284 0.63814 0.27456 0.0
C829 C 0.25151 0.65592 0.26846 0.0
C830 C 0.19848 0.67692 0.28161 0.0
C831 C 0.2229 0.61236 0.27663 0.0
H832 H 0.15583 0.6022 0.32894 0.0
H833 H 0.13 0.58623 0.26963 0.0
H834 H 0.21773 0.63299 0.31829 0.0
H835 H 0.20891 0.65538 0.32033 0.0
H836 H 0.19612 0.62985 0.33675 0.0
H837 H 0.15487 0.60518 0.24246 0.0
H838 H 0.17704 0.63624 0.24746 0.0
H839 H 0.18618 0.61405 0.24607 0.0
H840 H 0.24472 0.70537 0.26991 0.0
H841 H 0.26509 0.65093 0.26539 0.0
H842 H 0.193 0.67328 0.29724 0.0
H843 H 0.18199 0.66628 0.27264 0.0
H844 H 0.20563 0.69643 0.27867 0.0
H845 H 0.21833 0.60645 0.29211 0.0
H846 H 0.23833 0.61007 0.2721 0.0
H847 H 0.20695 0.6002 0.26759 0.0
C848 C 0.56844 0.14605 0.44917 0.0
C849 C 0.56467 0.14044 0.46922 0.0
C850 C 0.57479 0.16918 0.44233 0.0
C851 C 0.57738 0.18712 0.45586 0.0
C852 C 0.57374 0.18163 0.47613 0.0
C853 C 0.56745 0.15836 0.48256 0.0
C854 C 0.57854 0.17438 0.42061 0.0
C855 C 0.57641 0.20032 0.491 0.0
C856 C 0.61437 0.25298 0.44087 0.0
C857 C 0.59632 0.25834 0.43568 0.0
C858 C 0.60846 0.22985 0.44737 0.0
C859 C 0.5839 0.21165 0.44881 0.0
C860 C 0.56558 0.2169 0.44359 0.0
C861 C 0.57201 0.24018 0.43706 0.0
C862 C 0.6285 0.22493 0.45283 0.0
C863 C 0.53919 0.19792 0.44492 0.0
H864 H 0.56597 0.1322 0.43874 0.0
H865 H 0.56485 0.15422 0.4981 0.0
H866 H 0.56558 0.17976 0.41508 0.0
H867 H 0.59698 0.18973 0.41786 0.0
H868 H 0.57613 0.15853 0.41204 0.0
H869 H 0.57296 0.19315 0.50623 0.0
H870 H 0.5949 0.2162 0.49028 0.0
H871 H 0.56363 0.20679 0.48758 0.0
H872 H 0.63318 0.26702 0.44017 0.0
H873 H 0.55799 0.24412 0.43288 0.0
H874 H 0.62715 0.2098 0.44389 0.0
H875 H 0.6267 0.21935 0.46843 0.0
H876 H 0.6467 0.24097 0.45063 0.0
H877 H 0.53543 0.18225 0.43553 0.0
H878 H 0.52716 0.20492 0.44032 0.0
H879 H 0.5346 0.1912 0.46021 0.0
C880 C 0.44578 0.58316 0.62796 0.0
C881 C 0.43829 0.56109 0.63747 0.0
C882 C 0.42903 0.59025 0.6226 0.0
C883 C 0.40425 0.57496 0.62699 0.0
C884 C 0.39666 0.55287 0.63693 0.0
C885 C 0.41377 0.54617 0.64201 0.0
C886 C 0.43777 0.61388 0.61191 0.0
C887 C 0.37045 0.53621 0.64207 0.0
C888 C 0.36312 0.60192 0.62772 0.0
C889 C 0.35157 0.59462 0.60944 0.0
C890 C 0.38028 0.59563 0.63363 0.0
C891 C 0.38617 0.58185 0.62091 0.0
C892 C 0.37465 0.57446 0.60243 0.0
C893 C 0.35744 0.58087 0.59694 0.0
C894 C 0.39214 0.60378 0.65347 0.0
C895 C 0.38049 0.55975 0.58847 0.0
H896 H 0.46469 0.59462 0.62428 0.0
H897 H 0.40797 0.52924 0.64959 0.0
H898 H 0.42916 0.61044 0.59724 0.0
H899 H 0.43241 0.62548 0.62007 0.0
H900 H 0.45769 0.62394 0.60999 0.0
H901 H 0.36761 0.51996 0.65024 0.0
H902 H 0.36363 0.54596 0.65113 0.0
H903 H 0.35942 0.53025 0.62849 0.0
H904 H 0.35902 0.6129 0.63732 0.0
H905 H 0.3484 0.57491 0.58291 0.0
H906 H 0.41197 0.61527 0.65169 0.0
H907 H 0.38886 0.58789 0.66237 0.0
H908 H 0.38534 0.61417 0.66172 0.0
H909 H 0.40008 0.56957 0.58503 0.0
H910 H 0.37022 0.55578 0.57451 0.0
H911 H 0.37629 0.5424 0.59545 0.0
C912 C 0.88802 0.41919 0.79436 0.0
C913 C 0.89379 0.44228 0.80088 0.0
C914 C 0.86463 0.40257 0.788 0.0
C915 C 0.84653 0.40915 0.78824 0.0
C916 C 0.8523 0.43254 0.79456 0.0
C917 C 0.87593 0.44889 0.80075 0.0
C918 C 0.85923 0.37787 0.7812 0.0
C919 C 0.83342 0.44013 0.79513 0.0
C920 C 0.7905 0.37224 0.75716 0.0
C921 C 0.77422 0.35618 0.77106 0.0
C922 C 0.81407 0.38972 0.76256 0.0
C923 C 0.82142 0.39125 0.78235 0.0
C924 C 0.80498 0.37524 0.79648 0.0
C925 C 0.7816 0.35784 0.79065 0.0
C926 C 0.83118 0.40635 0.74706 0.0
C927 C 0.8121 0.37645 0.81775 0.0
H928 H 0.90188 0.41416 0.79415 0.0
H929 H 0.8803 0.46666 0.80591 0.0
H930 H 0.84531 0.36377 0.79081 0.0
H931 H 0.85178 0.37444 0.76609 0.0
H932 H 0.87551 0.37586 0.78134 0.0
H933 H 0.84099 0.45918 0.79993 0.0
H934 H 0.82521 0.43802 0.7804 0.0
H935 H 0.81871 0.42828 0.80534 0.0
H936 H 0.78491 0.37087 0.74198 0.0
H937 H 0.76893 0.34571 0.80149 0.0
H938 H 0.84707 0.40379 0.74595 0.0
H939 H 0.83797 0.42545 0.75124 0.0
H940 H 0.82251 0.40311 0.7324 0.0
H941 H 0.82743 0.37302 0.81905 0.0
H942 H 0.79698 0.36309 0.82698 0.0
H943 H 0.81828 0.3948 0.82367 0.0
C944 C 0.44763 0.87948 0.96409 0.0
C945 C 0.47213 0.89722 0.96487 0.0
C946 C 0.44044 0.85596 0.95766 0.0
C947 C 0.45818 0.85016 0.95177 0.0
C948 C 0.4829 0.86812 0.95221 0.0
C949 C 0.48957 0.89142 0.95878 0.0
C950 C 0.41391 0.83723 0.95747 0.0
C951 C 0.50234 0.86267 0.94593 0.0
C952 C 0.44353 0.78487 0.95372 0.0
C953 C 0.43859 0.77795 0.93398 0.0
C954 C 0.44969 0.80824 0.95973 0.0
C955 C 0.45101 0.82513 0.94564 0.0
C956 C 0.44597 0.81825 0.92569 0.0
C957 C 0.43976 0.79471 0.9201 0.0
C958 C 0.4548 0.81487 0.98116 0.0
C959 C 0.44735 0.83583 0.91024 0.0
H960 H 0.43411 0.88384 0.96894 0.0
H961 H 0.50851 0.90519 0.95907 0.0
H962 H 0.4084 0.82938 0.94257 0.0
H963 H 0.41049 0.82223 0.96756 0.0
H964 H 0.40236 0.84482 0.96198 0.0
H965 H 0.52068 0.87885 0.94663 0.0
H966 H 0.50195 0.84843 0.95548 0.0
H967 H 0.49894 0.85562 0.93069 0.0
H968 H 0.44226 0.77187 0.96455 0.0
H969 H 0.43615 0.78949 0.90481 0.0
H970 H 0.44247 0.821 0.98679 0.0
H971 H 0.47352 0.83011 0.98295 0.0
H972 H 0.4526 0.79951 0.9903 0.0
H973 H 0.43499 0.84269 0.91406 0.0
H974 H 0.44253 0.82752 0.89542 0.0
H975 H 0.4659 0.85163 0.9097 0.0
C976 C 0.60008 0.46116 0.14788 0.0
C977 C 0.59026 0.46949 0.13357 0.0
C978 C 0.61714 0.45436 0.14283 0.0
C979 C 0.62422 0.45561 0.12298 0.0
C980 C 0.61389 0.46345 0.10842 0.0
C981 C 0.59714 0.47046 0.11392 0.0
C982 C 0.628 0.44637 0.15879 0.0
C983 C 0.62067 0.46465 0.08706 0.0
C984 C 0.68478 0.46109 0.11102 0.0
C985 C 0.67806 0.43719 0.1062 0.0
C986 C 0.66747 0.46726 0.11677 0.0
C987 C 0.64279 0.44918 0.11743 0.0
C988 C 0.63584 0.42507 0.1125 0.0
C989 C 0.65356 0.41933 0.1071 0.0
C990 C 0.6756 0.49316 0.12206 0.0
C991 C 0.60967 0.40534 0.11287 0.0
H992 H 0.59492 0.46063 0.1631 0.0
H993 H 0.58936 0.47669 0.10283 0.0
H994 H 0.62501 0.42808 0.15549 0.0
H995 H 0.64781 0.45881 0.1594 0.0
H996 H 0.62023 0.44599 0.17346 0.0
H997 H 0.61032 0.47031 0.07749 0.0
H998 H 0.64022 0.47765 0.08514 0.0
H999 H 0.6174 0.44674 0.08207 0.0
H1000 H 0.70358 0.47508 0.11012 0.0
H1001 H 0.64818 0.40073 0.1038 0.0
H1002 H 0.66939 0.49406 0.13708 0.0
H1003 H 0.66735 0.50053 0.11188 0.0
H1004 H 0.69555 0.50488 0.12145 0.0
H1005 H 0.60217 0.40362 0.12784 0.0
H1006 H 0.60722 0.38754 0.10839 0.0
H1007 H 0.59893 0.41004 0.10289 0.0
C1008 C 0.42464 0.87783 0.51434 0.0
C1009 C 0.44449 0.8934 0.52603 0.0
C1010 C 0.40794 0.85443 0.52067 0.0
C1011 C 0.41145 0.84609 0.53892 0.0
C1012 C 0.43177 0.86137 0.55055 0.0
C1013 C 0.44789 0.88492 0.54409 0.0
C1014 C 0.38633 0.83874 0.50793 0.0
C1015 C 0.43636 0.85293 0.56993 0.0
C1016 C 0.35695 0.79441 0.56381 0.0
C1017 C 0.35891 0.77437 0.55805 0.0
C1018 C 0.37393 0.81785 0.5577 0.0
C1019 C 0.39366 0.82144 0.54589 0.0
C1020 C 0.39609 0.80143 0.54037 0.0
C1021 C 0.37856 0.77814 0.54631 0.0
C1022 C 0.37056 0.83873 0.56366 0.0
C1023 C 0.4171 0.80459 0.52803 0.0
H1024 H 0.42208 0.88392 0.50019 0.0
H1025 H 0.46291 0.89682 0.5534 0.0
H1026 H 0.38633 0.82194 0.50389 0.0
H1027 H 0.36943 0.83335 0.51621 0.0
H1028 H 0.38606 0.84806 0.49426 0.0
H1029 H 0.45365 0.86658 0.57674 0.0
H1030 H 0.42144 0.84896 0.58028 0.0
H1031 H 0.43678 0.83593 0.56786 0.0
H1032 H 0.34214 0.79184 0.57316 0.0
H1033 H 0.38009 0.76284 0.54141 0.0
H1034 H 0.36913 0.848 0.5504 0.0
H1035 H 0.38649 0.85218 0.57208 0.0
H1036 H 0.35414 0.83287 0.57277 0.0
H1037 H 0.41645 0.81184 0.5134 0.0
H1038 H 0.4171 0.78736 0.52593 0.0
H1039 H 0.4344 0.81788 0.535 0.0
C1040 C 0.57114 0.42777 0.6752 0.0
C1041 C 0.56998 0.44398 0.68842 0.0
C1042 C 0.5778 0.41102 0.6815 0.0
C1043 C 0.58354 0.41053 0.70148 0.0
C1044 C 0.5829 0.42717 0.71483 0.0
C1045 C 0.57609 0.44367 0.70814 0.0
C1046 C 0.57835 0.39361 0.66681 0.0
C1047 C 0.58897 0.42723 0.73624 0.0
C1048 C 0.57734 0.35221 0.72143 0.0
C1049 C 0.60136 0.35724 0.72117 0.0
C1050 C 0.57131 0.36944 0.71514 0.0
C1051 C 0.58974 0.39227 0.70848 0.0
C1052 C 0.61403 0.39753 0.7083 0.0
C1053 C 0.61954 0.37994 0.7146 0.0
C1054 C 0.54519 0.36317 0.71555 0.0
C1055 C 0.63417 0.42167 0.70128 0.0
H1056 H 0.56679 0.42816 0.65988 0.0
H1057 H 0.57494 0.45594 0.71849 0.0
H1058 H 0.5965 0.39536 0.6666 0.0
H1059 H 0.56525 0.37478 0.67117 0.0
H1060 H 0.57387 0.39669 0.65172 0.0
H1061 H 0.58845 0.4419 0.74457 0.0
H1062 H 0.576 0.40966 0.74302 0.0
H1063 H 0.60724 0.42942 0.73775 0.0
H1064 H 0.56325 0.33483 0.7267 0.0
H1065 H 0.63809 0.38384 0.71405 0.0
H1066 H 0.53922 0.36451 0.70055 0.0
H1067 H 0.54316 0.37626 0.72489 0.0
H1068 H 0.53305 0.34466 0.72123 0.0
H1069 H 0.63107 0.42455 0.68575 0.0
H1070 H 0.65217 0.42309 0.70245 0.0
H1071 H 0.6344 0.43645 0.70998 0.0
C1072 C 0.15548 0.58455 0.86508 0.0
C1073 C 0.14084 0.56189 0.85644 0.0
C1074 C 0.17937 0.59201 0.87057 0.0
C1075 C 0.18882 0.57646 0.86724 0.0
C1076 C 0.17422 0.5537 0.85829 0.0
C1077 C 0.1504 0.54669 0.85301 0.0
C1078 C 0.19439 0.61639 0.88013 0.0
C1079 C 0.18372 0.5367 0.85436 0.0
C1080 C 0.2568 0.60304 0.86553 0.0
C1081 C 0.26158 0.59713 0.8842 0.0
C1082 C 0.23323 0.59653 0.85986 0.0
C1083 C 0.21396 0.5839 0.8732 0.0
C1084 C 0.21864 0.57801 0.8921 0.0
C1085 C 0.2424 0.58467 0.89737 0.0
C1086 C 0.22894 0.60315 0.83958 0.0
C1087 C 0.19852 0.56451 0.90671 0.0
H1088 H 0.14808 0.59626 0.86793 0.0
H1089 H 0.13926 0.5293 0.84607 0.0
H1090 H 0.19996 0.61409 0.89502 0.0
H1091 H 0.21113 0.62744 0.87154 0.0
H1092 H 0.18448 0.62649 0.88141 0.0
H1093 H 0.17009 0.51973 0.84713 0.0
H1094 H 0.19995 0.54566 0.84485 0.0
H1095 H 0.1893 0.53203 0.86833 0.0
H1096 H 0.27158 0.61304 0.8554 0.0
H1097 H 0.24592 0.57984 0.91174 0.0
H1098 H 0.22042 0.61456 0.84065 0.0
H1099 H 0.21626 0.58658 0.83141 0.0
H1100 H 0.24591 0.61307 0.83098 0.0
H1101 H 0.1888 0.57455 0.9094 0.0
H1102 H 0.20526 0.56178 0.92096 0.0
H1103 H 0.18522 0.54659 0.90067 0.0
C1104 C 0.58904 0.15804 0.0322 0.0
C1105 C 0.59705 0.14277 0.02481 0.0
C1106 C 0.60556 0.18171 0.03815 0.0
C1107 C 0.63066 0.19027 0.03672 0.0
C1108 C 0.63884 0.17506 0.02903 0.0
C1109 C 0.62195 0.15155 0.02311 0.0
C1110 C 0.59618 0.19746 0.04622 0.0
C1111 C 0.66546 0.18357 0.0272 0.0
C1112 C 0.6748 0.25778 0.03637 0.0
C1113 C 0.68316 0.26193 0.0558 0.0
C1114 C 0.65752 0.2346 0.03001 0.0
C1115 C 0.64844 0.21507 0.04339 0.0
C1116 C 0.65673 0.21914 0.06305 0.0
C1117 C 0.67396 0.24254 0.06903 0.0
C1118 C 0.649 0.23099 0.00897 0.0
C1119 C 0.64758 0.19871 0.0777 0.0
H1120 H 0.56984 0.1513 0.03373 0.0
H1121 H 0.62827 0.14001 0.01708 0.0
H1122 H 0.60229 0.20251 0.0616 0.0
H1123 H 0.60363 0.21446 0.03765 0.0
H1124 H 0.57615 0.18834 0.04585 0.0
H1125 H 0.66883 0.16952 0.02084 0.0
H1126 H 0.67436 0.19989 0.01779 0.0
H1127 H 0.67416 0.1887 0.04184 0.0
H1128 H 0.68155 0.27278 0.02617 0.0
H1129 H 0.68051 0.24563 0.08402 0.0
H1130 H 0.62912 0.22316 0.00849 0.0
H1131 H 0.65312 0.21798 0.00162 0.0
H1132 H 0.65761 0.24814 0.0005 0.0
H1133 H 0.62764 0.1898 0.07891 0.0
H1134 H 0.65555 0.20496 0.0925 0.0
H1135 H 0.65194 0.18486 0.07258 0.0
C1136 C 0.46213 0.60677 0.17882 0.0
C1137 C 0.46516 0.59151 0.19185 0.0
C1138 C 0.45565 0.62346 0.18564 0.0
C1139 C 0.45217 0.62495 0.20599 0.0
C1140 C 0.45485 0.60936 0.2192 0.0
C1141 C 0.46129 0.5928 0.21196 0.0
C1142 C 0.45279 0.63967 0.17109 0.0
C1143 C 0.45132 0.61047 0.241 0.0
C1144 C 0.45876 0.68393 0.22465 0.0
C1145 C 0.43459 0.67822 0.2261 0.0
C1146 C 0.46473 0.66664 0.21841 0.0
C1147 C 0.44607 0.64311 0.21345 0.0
C1148 C 0.42164 0.63713 0.21515 0.0
C1149 C 0.4162 0.65476 0.22146 0.0
C1150 C 0.491 0.67364 0.21688 0.0
C1151 C 0.40127 0.61226 0.20992 0.0
H1152 H 0.4648 0.60562 0.16324 0.0
H1153 H 0.4639 0.58125 0.22212 0.0
H1154 H 0.43445 0.63737 0.17231 0.0
H1155 H 0.46593 0.65885 0.17443 0.0
H1156 H 0.45564 0.63587 0.15572 0.0
H1157 H 0.45347 0.59666 0.24924 0.0
H1158 H 0.46461 0.6286 0.24668 0.0
H1159 H 0.43306 0.60773 0.24398 0.0
H1160 H 0.47303 0.70195 0.22842 0.0
H1161 H 0.39749 0.65033 0.22228 0.0
H1162 H 0.49544 0.67186 0.20146 0.0
H1163 H 0.49451 0.66126 0.22587 0.0
H1164 H 0.5033 0.69248 0.22181 0.0
H1165 H 0.40248 0.60852 0.19419 0.0
H1166 H 0.38323 0.61028 0.21267 0.0
H1167 H 0.40276 0.59835 0.21855 0.0
C1168 C 0.87539 0.45445 0.34767 0.0
C1169 C 0.89426 0.46694 0.3611 0.0
C1170 C 0.85145 0.44738 0.35266 0.0
C1171 C 0.84629 0.45301 0.3715 0.0
C1172 C 0.86518 0.46517 0.38524 0.0
C1173 C 0.88891 0.47192 0.3799 0.0
C1174 C 0.83175 0.43436 0.33764 0.0
C1175 C 0.86039 0.47143 0.40549 0.0
C1176 C 0.78963 0.4574 0.37812 0.0
C1177 C 0.77393 0.43526 0.38712 0.0
C1178 C 0.81321 0.46337 0.3729 0.0
C1179 C 0.82123 0.44674 0.37671 0.0
C1180 C 0.80546 0.42434 0.38575 0.0
C1181 C 0.78201 0.41889 0.39087 0.0
C1182 C 0.82957 0.48751 0.36342 0.0
C1183 C 0.81334 0.4061 0.38993 0.0
H1184 H 0.87943 0.45077 0.33306 0.0
H1185 H 0.90335 0.48122 0.39046 0.0
H1186 H 0.81723 0.4171 0.3438 0.0
H1187 H 0.82348 0.44551 0.33385 0.0
H1188 H 0.83859 0.43041 0.32396 0.0
H1189 H 0.87701 0.48048 0.41459 0.0
H1190 H 0.8527 0.48356 0.40432 0.0
H1191 H 0.84686 0.45484 0.41319 0.0
H1192 H 0.78355 0.4702 0.37535 0.0
H1193 H 0.76982 0.40159 0.39754 0.0
H1194 H 0.83578 0.48483 0.34893 0.0
H1195 H 0.84588 0.49806 0.37261 0.0
H1196 H 0.8205 0.49831 0.36131 0.0
H1197 H 0.81881 0.40103 0.37609 0.0
H1198 H 0.79883 0.38945 0.39694 0.0
H1199 H 0.82933 0.41415 0.39974 0.0
C1200 C 0.1303 0.56318 0.40642 0.0
C1201 C 0.10543 0.55165 0.41021 0.0
C1202 C 0.14708 0.5707 0.42184 0.0
C1203 C 0.13875 0.56631 0.44148 0.0
C1204 C 0.11363 0.55416 0.44536 0.0
C1205 C 0.09728 0.54711 0.42967 0.0
C1206 C 0.17373 0.58387 0.41713 0.0
C1207 C 0.10402 0.54887 0.46609 0.0
C1208 C 0.18108 0.56937 0.48203 0.0
C1209 C 0.1885 0.59219 0.49021 0.0
C1210 C 0.16497 0.56071 0.46611 0.0
C1211 C 0.15627 0.57533 0.45803 0.0
C1212 C 0.1639 0.59846 0.46604 0.0
C1213 C 0.17974 0.60652 0.48209 0.0
C1214 C 0.15708 0.53586 0.45805 0.0
C1215 C 0.15513 0.61465 0.45778 0.0
H1216 H 0.13663 0.56687 0.39137 0.0
H1217 H 0.07804 0.53792 0.43261 0.0
H1218 H 0.18238 0.60243 0.42326 0.0
H1219 H 0.18255 0.57458 0.42408 0.0
H1220 H 0.17722 0.58512 0.40109 0.0
H1221 H 0.08398 0.53825 0.46656 0.0
H1222 H 0.11128 0.53869 0.47399 0.0
H1223 H 0.11013 0.56605 0.47414 0.0
H1224 H 0.18796 0.55827 0.488 0.0
H1225 H 0.18493 0.62396 0.4885 0.0
H1226 H 0.16183 0.53711 0.44227 0.0
H1227 H 0.13716 0.5244 0.45915 0.0
H1228 H 0.16554 0.52677 0.46595 0.0
H1229 H 0.15918 0.61754 0.44186 0.0
H1230 H 0.16355 0.63253 0.46517 0.0
H1231 H 0.13524 0.60586 0.45944 0.0
C1232 C 0.59369 0.11123 0.58447 0.0
C1233 C 0.57017 0.10316 0.5776 0.0
C1234 C 0.60318 0.12741 0.60029 0.0
C1235 C 0.58875 0.13558 0.60955 0.0
C1236 C 0.56508 0.12764 0.60262 0.0
C1237 C 0.55612 0.11163 0.58669 0.0
C1238 C 0.62856 0.13558 0.60721 0.0
C1239 C 0.54912 0.13591 0.61214 0.0
C1240 C 0.60241 0.15828 0.66208 0.0
C1241 C 0.61372 0.18339 0.65949 0.0
C1242 C 0.59451 0.14254 0.64594 0.0
C1243 C 0.5982 0.15212 0.62672 0.0
C1244 C 0.61014 0.17744 0.62396 0.0
C1245 C 0.61766 0.19277 0.64037 0.0
C1246 C 0.58182 0.11562 0.64949 0.0
C1247 C 0.61451 0.18834 0.60367 0.0
H1248 H 0.60457 0.10456 0.57771 0.0
H1249 H 0.5381 0.10584 0.58128 0.0
H1250 H 0.63948 0.15559 0.60698 0.0
H1251 H 0.62817 0.12975 0.62259 0.0
H1252 H 0.63771 0.1282 0.59801 0.0
H1253 H 0.53117 0.12812 0.60494 0.0
H1254 H 0.54637 0.13062 0.62784 0.0
H1255 H 0.55799 0.15589 0.61156 0.0
H1256 H 0.59966 0.15088 0.67677 0.0
H1257 H 0.62609 0.21211 0.6382 0.0
H1258 H 0.59127 0.10757 0.64161 0.0
H1259 H 0.56315 0.10704 0.64361 0.0
H1260 H 0.5809 0.1111 0.66532 0.0
H1261 H 0.62422 0.18155 0.59454 0.0
H1262 H 0.6252 0.20839 0.60399 0.0
H1263 H 0.59698 0.18278 0.59638 0.0
C1264 C 0.46257 0.56741 0.73985 0.0
C1265 C 0.4836 0.56571 0.74085 0.0
C1266 C 0.45533 0.57628 0.75574 0.0
C1267 C 0.46958 0.5839 0.77297 0.0
C1268 C 0.49091 0.58243 0.77404 0.0
C1269 C 0.49758 0.57322 0.75803 0.0
C1270 C 0.43238 0.57746 0.75409 0.0
C1271 C 0.50665 0.59049 0.79213 0.0
C1272 C 0.46201 0.62654 0.80727 0.0
C1273 C 0.44723 0.61071 0.82199 0.0
C1274 C 0.46961 0.6181 0.79132 0.0
C1275 C 0.46205 0.59321 0.78997 0.0
C1276 C 0.44717 0.57716 0.80481 0.0
C1277 C 0.44002 0.58612 0.82068 0.0
C1278 C 0.4857 0.63582 0.77591 0.0
C1279 C 0.43854 0.55046 0.80379 0.0
H1280 H 0.45185 0.56203 0.72655 0.0
H1281 H 0.51364 0.57163 0.7591 0.0
H1282 H 0.4197 0.56667 0.76599 0.0
H1283 H 0.43646 0.59638 0.75591 0.0
H1284 H 0.42319 0.57058 0.73976 0.0
H1285 H 0.52302 0.58879 0.79042 0.0
H1286 H 0.5124 0.6096 0.79549 0.0
H1287 H 0.49623 0.57953 0.80495 0.0
H1288 H 0.46779 0.64559 0.80834 0.0
H1289 H 0.42833 0.57377 0.83189 0.0
H1290 H 0.47667 0.63071 0.76139 0.0
H1291 H 0.50272 0.63525 0.77465 0.0
H1292 H 0.49027 0.65464 0.77927 0.0
H1293 H 0.4279 0.54271 0.79018 0.0
H1294 H 0.42715 0.54042 0.81657 0.0
H1295 H 0.45422 0.54752 0.80316 0.0
C1296 C 0.92766 0.49809 0.9204 0.0
C1297 C 0.93165 0.48072 0.91126 0.0
C1298 C 0.91192 0.49201 0.93645 0.0
C1299 C 0.89983 0.46796 0.9435 0.0
C1300 C 0.90367 0.45031 0.93428 0.0
C1301 C 0.91957 0.45692 0.91829 0.0
C1302 C 0.90839 0.51135 0.94598 0.0
C1303 C 0.89098 0.42444 0.9413 0.0
C1304 C 0.87625 0.45526 0.99583 0.0
C1305 C 0.85153 0.44671 0.99306 0.0
C1306 C 0.89223 0.46259 0.97986 0.0
C1307 C 0.88327 0.46124 0.96063 0.0
C1308 C 0.85842 0.45297 0.95774 0.0
C1309 C 0.84286 0.44586 0.97399 0.0
C1310 C 0.91864 0.47135 0.98353 0.0
C1311 C 0.8482 0.45133 0.93746 0.0
H1312 H 0.93718 0.51658 0.91518 0.0
H1313 H 0.92236 0.44336 0.91114 0.0
H1314 H 0.889 0.50601 0.94571 0.0
H1315 H 0.91398 0.51342 0.96159 0.0
H1316 H 0.91892 0.52913 0.93857 0.0
H1317 H 0.89581 0.41288 0.93244 0.0
H1318 H 0.89569 0.4237 0.95685 0.0
H1319 H 0.87112 0.41675 0.9406 0.0
H1320 H 0.88306 0.45566 0.01046 0.0
H1321 H 0.82384 0.4396 0.97175 0.0
H1322 H 0.92993 0.48958 0.97708 0.0
H1323 H 0.92384 0.4591 0.97624 0.0
H1324 H 0.92288 0.47221 0.99941 0.0
H1325 H 0.85766 0.46926 0.93021 0.0
H1326 H 0.82854 0.44494 0.93774 0.0
H1327 H 0.85123 0.43873 0.92831 0.0
C1328 C 0.47485 0.94034 0.09504 0.0
C1329 C 0.46996 0.93209 0.07561 0.0
C1330 C 0.46569 0.92414 0.11083 0.0
C1331 C 0.45151 0.89905 0.10709 0.0
C1332 C 0.44642 0.89061 0.08749 0.0
C1333 C 0.45562 0.90726 0.07198 0.0
C1334 C 0.47127 0.93385 0.13153 0.0
C1335 C 0.4316 0.86399 0.08292 0.0
C1336 C 0.44869 0.85671 0.14737 0.0
C1337 C 0.42607 0.84942 0.15588 0.0
C1338 C 0.45701 0.87256 0.13132 0.0
C1339 C 0.44251 0.88163 0.12371 0.0
C1340 C 0.41967 0.87439 0.13219 0.0
C1341 C 0.41168 0.85829 0.14811 0.0
C1342 C 0.48143 0.87979 0.12263 0.0
C1343 C 0.40376 0.88379 0.12452 0.0
H1344 H 0.48567 0.95956 0.09789 0.0
H1345 H 0.45199 0.90083 0.05696 0.0
H1346 H 0.45424 0.92784 0.13977 0.0
H1347 H 0.48153 0.92657 0.13928 0.0
H1348 H 0.482 0.9539 0.13193 0.0
H1349 H 0.42892 0.86041 0.06691 0.0
H1350 H 0.44066 0.85443 0.08894 0.0
H1351 H 0.41364 0.85615 0.09006 0.0
H1352 H 0.46016 0.85034 0.15346 0.0
H1353 H 0.39405 0.85252 0.15439 0.0
H1354 H 0.49358 0.89957 0.12415 0.0
H1355 H 0.47962 0.87556 0.10672 0.0
H1356 H 0.49011 0.87046 0.12981 0.0
H1357 H 0.4134 0.90379 0.12555 0.0
H1358 H 0.38649 0.87639 0.13274 0.0
H1359 H 0.39961 0.87903 0.1088 0.0
C1360 C 0.54032 0.46542 0.2585 0.0
C1361 C 0.55274 0.47092 0.24056 0.0
C1362 C 0.54742 0.45644 0.27439 0.0
C1363 C 0.5676 0.45311 0.27239 0.0
C1364 C 0.58033 0.45876 0.25439 0.0
C1365 C 0.57269 0.4675 0.23867 0.0
C1366 C 0.53335 0.45058 0.29334 0.0
C1367 C 0.60199 0.45552 0.25173 0.0
C1368 C 0.5993 0.45111 0.31889 0.0
C1369 C 0.59015 0.42623 0.32124 0.0
C1370 C 0.59219 0.46011 0.30302 0.0
C1371 C 0.57544 0.44382 0.2892 0.0
C1372 C 0.56607 0.41867 0.29151 0.0
C1373 C 0.57358 0.41018 0.30748 0.0
C1374 C 0.60271 0.48706 0.30099 0.0
C1375 C 0.54802 0.40074 0.27716 0.0
H1376 H 0.52515 0.46837 0.26022 0.0
H1377 H 0.58219 0.47137 0.22479 0.0
H1378 H 0.52646 0.43139 0.29732 0.0
H1379 H 0.54536 0.46178 0.30542 0.0
H1380 H 0.51782 0.45376 0.29239 0.0
H1381 H 0.61007 0.461 0.23688 0.0
H1382 H 0.61599 0.46639 0.2628 0.0
H1383 H 0.59671 0.43634 0.25413 0.0
H1384 H 0.61238 0.46362 0.32932 0.0
H1385 H 0.56626 0.39092 0.30933 0.0
H1386 H 0.58802 0.49152 0.30105 0.0
H1387 H 0.61226 0.49327 0.28674 0.0
H1388 H 0.61558 0.49729 0.31297 0.0
H1389 H 0.53166 0.40257 0.27672 0.0
H1390 H 0.54251 0.38178 0.28101 0.0
H1391 H 0.55582 0.40454 0.26217 0.0
C1392 C 0.47913 0.94028 0.3991 0.0
C1393 C 0.47881 0.93214 0.41827 0.0
C1394 C 0.47158 0.92427 0.38314 0.0
C1395 C 0.46353 0.89952 0.38643 0.0
C1396 C 0.46323 0.89119 0.40572 0.0
C1397 C 0.47087 0.9076 0.42142 0.0
C1398 C 0.47221 0.93385 0.36277 0.0
C1399 C 0.45468 0.86491 0.40981 0.0
C1400 C 0.42287 0.85456 0.34797 0.0
C1401 C 0.43917 0.85016 0.33748 0.0
C1402 C 0.43053 0.87046 0.36399 0.0
C1403 C 0.45511 0.8823 0.36967 0.0
C1404 C 0.47166 0.8779 0.35921 0.0
C1405 C 0.46349 0.86189 0.34323 0.0
C1406 C 0.41235 0.87475 0.37474 0.0
C1407 C 0.498 0.89014 0.36488 0.0
H1408 H 0.48558 0.95928 0.39653 0.0
H1409 H 0.47031 0.90114 0.43622 0.0
H1410 H 0.48393 0.93009 0.35313 0.0
H1411 H 0.45382 0.9245 0.3563 0.0
H1412 H 0.47904 0.9536 0.3627 0.0
H1413 H 0.45594 0.86141 0.42561 0.0
H1414 H 0.43563 0.8536 0.40504 0.0
H1415 H 0.46559 0.85901 0.40126 0.0
H1416 H 0.40413 0.84587 0.34342 0.0
H1417 H 0.47613 0.85836 0.33534 0.0
H1418 H 0.4177 0.89412 0.3738 0.0
H1419 H 0.412 0.87031 0.39051 0.0
H1420 H 0.39382 0.86379 0.36869 0.0
H1421 H 0.50611 0.91004 0.36398 0.0
H1422 H 0.50852 0.88467 0.35531 0.0
H1423 H 0.4998 0.88572 0.3803 0.0
C1424 C 0.58053 0.46985 0.58292 0.0
C1425 C 0.56635 0.48057 0.57958 0.0
C1426 C 0.58943 0.46238 0.5672 0.0
C1427 C 0.58426 0.46601 0.54771 0.0
C1428 C 0.57028 0.47721 0.54427 0.0
C1429 C 0.56135 0.4842 0.56026 0.0
C1430 C 0.60396 0.45018 0.57146 0.0
C1431 C 0.56466 0.48169 0.5237 0.0
C1432 C 0.62344 0.46414 0.50652 0.0
C1433 C 0.60866 0.44092 0.49879 0.0
C1434 C 0.61571 0.47261 0.52239 0.0
C1435 C 0.5928 0.45739 0.53091 0.0
C1436 C 0.57787 0.43391 0.52328 0.0
C1437 C 0.58588 0.42605 0.50724 0.0
C1438 C 0.63204 0.49785 0.53002 0.0
C1439 C 0.55337 0.41707 0.53204 0.0
H1440 H 0.58424 0.46685 0.59786 0.0
H1441 H 0.55061 0.49275 0.55767 0.0
H1442 H 0.59459 0.4316 0.56536 0.0
H1443 H 0.62186 0.46012 0.56422 0.0
H1444 H 0.60677 0.44911 0.58744 0.0
H1445 H 0.55433 0.49142 0.52354 0.0
H1446 H 0.58166 0.49245 0.51535 0.0
H1447 H 0.55398 0.46425 0.5159 0.0
H1448 H 0.64118 0.47567 0.5003 0.0
H1449 H 0.57407 0.40829 0.50117 0.0
H1450 H 0.63648 0.49713 0.54565 0.0
H1451 H 0.62262 0.50844 0.5293 0.0
H1452 H 0.64916 0.50756 0.52158 0.0
H1453 H 0.55522 0.41447 0.54791 0.0
H1454 H 0.54428 0.39911 0.52478 0.0
H1455 H 0.54158 0.42514 0.53072 0.0
C1456 C 0.10338 0.54989 0.73849 0.0
C1457 C 0.10184 0.56568 0.75191 0.0
C1458 C 0.11919 0.55874 0.72242 0.0
C1459 C 0.13395 0.584 0.7198 0.0
C1460 C 0.13262 0.60004 0.7334 0.0
C1461 C 0.1165 0.59068 0.74925 0.0
C1462 C 0.11994 0.54107 0.70813 0.0
C1463 C 0.14826 0.62707 0.73123 0.0
C1464 C 0.18996 0.60584 0.68814 0.0
C1465 C 0.18236 0.61073 0.67025 0.0
C1466 C 0.17451 0.59746 0.70445 0.0
C1467 C 0.15078 0.59361 0.70281 0.0
C1468 C 0.143 0.59861 0.68487 0.0
C1469 C 0.15891 0.6072 0.66884 0.0
C1470 C 0.1835 0.59243 0.72336 0.0
C1471 C 0.11779 0.59468 0.68255 0.0
H1472 H 0.09187 0.53056 0.74037 0.0
H1473 H 0.11555 0.60294 0.75972 0.0
H1474 H 0.11523 0.54428 0.6932 0.0
H1475 H 0.13849 0.54382 0.70739 0.0
H1476 H 0.1073 0.52199 0.71226 0.0
H1477 H 0.14517 0.63707 0.74314 0.0
H1478 H 0.16761 0.6322 0.73129 0.0
H1479 H 0.14459 0.63292 0.71694 0.0
H1480 H 0.20788 0.60811 0.68931 0.0
H1481 H 0.15298 0.61125 0.65519 0.0
H1482 H 0.17242 0.573 0.72715 0.0
H1483 H 0.18154 0.60283 0.73555 0.0
H1484 H 0.20272 0.59717 0.72244 0.0
H1485 H 0.10431 0.57547 0.68543 0.0
H1486 H 0.11456 0.5995 0.66764 0.0
H1487 H 0.11464 0.60569 0.69346 0.0
C1488 C 0.54237 0.11824 0.91455 0.0
C1489 C 0.55531 0.1064 0.91884 0.0
C1490 C 0.54884 0.13428 0.89866 0.0
C1491 C 0.56881 0.13867 0.88682 0.0
C1492 C 0.58216 0.12704 0.89121 0.0
C1493 C 0.57523 0.11102 0.90714 0.0
C1494 C 0.5342 0.14637 0.89446 0.0
C1495 C 0.60359 0.13127 0.87892 0.0
C1496 C 0.57281 0.16121 0.83463 0.0
C1497 C 0.58965 0.18589 0.83658 0.0
C1498 C 0.56559 0.14572 0.85091 0.0
C1499 C 0.57554 0.1551 0.8696 0.0
C1500 C 0.59228 0.18006 0.87172 0.0
C1501 C 0.5991 0.19517 0.85519 0.0
C1502 C 0.54752 0.11924 0.84808 0.0
C1503 C 0.60337 0.19071 0.89139 0.0
H1504 H 0.52718 0.11505 0.9237 0.0
H1505 H 0.58513 0.10171 0.91019 0.0
H1506 H 0.54604 0.16629 0.89476 0.0
H1507 H 0.52628 0.14143 0.87953 0.0
H1508 H 0.51934 0.14121 0.9052 0.0
H1509 H 0.61248 0.12138 0.88463 0.0
H1510 H 0.59772 0.12538 0.8636 0.0
H1511 H 0.6171 0.15084 0.87847 0.0
H1512 H 0.56524 0.15402 0.82032 0.0
H1513 H 0.61234 0.21417 0.85675 0.0
H1514 H 0.53175 0.11376 0.85786 0.0
H1515 H 0.55583 0.10821 0.85217 0.0
H1516 H 0.54101 0.11494 0.8327 0.0
H1517 H 0.58899 0.18667 0.90233 0.0
H1518 H 0.61553 0.2106 0.89068 0.0
H1519 H 0.61389 0.18236 0.89678 0.0
C1520 C 0.45148 0.5652 0.08445 0.0
C1521 C 0.46559 0.55439 0.0811 0.0
C1522 C 0.4427 0.57281 0.06875 0.0
C1523 C 0.44794 0.56927 0.04925 0.0
C1524 C 0.46179 0.55794 0.04579 0.0
C1525 C 0.47055 0.55076 0.06177 0.0
C1526 C 0.42824 0.58509 0.07302 0.0
C1527 C 0.46752 0.55359 0.02522 0.0
C1528 C 0.40964 0.57174 0.0076 0.0
C1529 C 0.42468 0.59498 1.00001 0.0
C1530 C 0.41693 0.56312 0.02365 0.0
C1531 C 0.4397 0.57818 0.03244 0.0
C1532 C 0.45486 0.60171 0.02499 0.0
C1533 C 0.44726 0.60975 0.00881 0.0
C1534 C 0.40033 0.53786 0.03112 0.0
C1535 C 0.47925 0.61835 0.03402 0.0
H1536 H 0.44779 0.5682 0.0994 0.0
H1537 H 0.4812 0.54212 0.05915 0.0
H1538 H 0.43785 0.60378 0.06715 0.0
H1539 H 0.41047 0.5754 0.06555 0.0
H1540 H 0.42519 0.58588 0.08898 0.0
H1541 H 0.4777 0.54371 0.02504 0.0
H1542 H 0.45058 0.54305 0.01674 0.0
H1543 H 0.4784 0.5711 0.01755 0.0
H1544 H 0.39204 0.56031 0.00109 0.0
H1545 H 0.45924 0.62754 0.00286 0.0
H1546 H 0.39586 0.53849 0.04676 0.0
H1547 H 0.40955 0.52709 0.03032 0.0
H1548 H 0.38324 0.5284 0.02262 0.0
H1549 H 0.47718 0.62077 0.04988 0.0
H1550 H 0.48851 0.63641 0.02691 0.0
H1551 H 0.49099 0.61023 0.03274 0.0
C1552 C 0.93828 0.46768 0.23491 0.0
C1553 C 0.93053 0.46848 0.254 0.0
C1554 C 0.92191 0.45898 0.2192 0.0
C1555 C 0.89716 0.45074 0.2227 0.0
C1556 C 0.88918 0.45131 0.24197 0.0
C1557 C 0.906 0.46028 0.25739 0.0
C1558 C 0.93115 0.4589 0.19883 0.0
C1559 C 0.86291 0.44249 0.24629 0.0
C1560 C 0.85918 0.45035 0.17972 0.0
C1561 C 0.84764 0.42607 0.17387 0.0
C1562 C 0.87522 0.45857 0.19565 0.0
C1563 C 0.87974 0.44208 0.20607 0.0
C1564 C 0.868 0.4175 0.20035 0.0
C1565 C 0.85216 0.4098 0.18425 0.0
C1566 C 0.88757 0.48498 0.20117 0.0
C1567 C 0.87223 0.39935 0.2112 0.0
H1568 H 0.95727 0.47426 0.23219 0.0
H1569 H 0.89991 0.46062 0.27217 0.0
H1570 H 0.92163 0.44033 0.19272 0.0
H1571 H 0.92734 0.4704 0.18896 0.0
H1572 H 0.95089 0.46564 0.19864 0.0
H1573 H 0.85955 0.44357 0.26215 0.0
H1574 H 0.85683 0.45341 0.23797 0.0
H1575 H 0.85165 0.42348 0.24141 0.0
H1576 H 0.85602 0.46308 0.17158 0.0
H1577 H 0.84309 0.39097 0.17989 0.0
H1578 H 0.90744 0.49307 0.19994 0.0
H1579 H 0.88352 0.48695 0.21666 0.0
H1580 H 0.88187 0.49539 0.19171 0.0
H1581 H 0.89159 0.40467 0.21035 0.0
H1582 H 0.86128 0.3808 0.20518 0.0
H1583 H 0.86772 0.39908 0.22695 0.0
loop_
_geom_bond_atom_site_label_1
_geom_bond_atom_site_label_2
_geom_bond_distance
_geom_bond_site_symmetry_2
_ccdc_geom_bond_type
H0 C19 0.949 . S
H1 C20 0.950 . S
H2 C22 0.950 . S
H3 C23 0.950 . S
H4 C25 0.950 . S
H5 C28 0.950 . S
H6 C29 0.950 . S
H7 C31 0.951 . S
H8 C32 0.949 . S
H9 C34 0.949 . S
H10 C35 0.950 . S
H11 C37 0.950 . S
H12 C38 0.950 . S
H13 C40 0.950 . S
H14 C43 0.950 . S
H15 C44 0.950 . S
H16 C46 0.951 . S
H17 C47 0.949 . S
C18 C19 1.376 . S
C18 C23 1.386 . S
C18 C24 1.480 1_655 S
C19 H0 0.949 . S
C19 C18 1.376 . S
C19 C20 1.397 . S
C20 H1 0.950 . S
C20 C19 1.397 . S
C20 C21 1.391 . S
C21 C20 1.391 . S
C21 C22 1.405 . S
C22 H2 0.950 . S
C22 C21 1.405 . S
C22 C23 1.367 . S
C23 H3 0.950 . S
C23 C18 1.386 . S
C23 C22 1.367 . S
C24 C18 1.480 1_455 S
C24 C25 1.386 . S
C24 C26 1.401 1_455 S
C25 H4 0.950 . S
C25 C24 1.386 . S
C25 C41 1.411 . S
C26 C24 1.401 1_655 S
C26 C27 1.489 . S
C26 C40 1.411 1_655 S
C27 C26 1.489 . S
C27 C28 1.383 . S
C27 C32 1.382 . S
C28 H5 0.950 . S
C28 C27 1.383 . S
C28 C29 1.395 . S
C29 H6 0.950 . S
C29 C28 1.395 . S
C29 C30 1.288 . S
C30 C29 1.288 . S
C30 C31 1.392 . S
C31 H7 0.951 . S
C31 C30 1.392 . S
C31 C32 1.392 . S
C32 H8 0.949 . S
C32 C27 1.382 . S
C32 C31 1.392 . S
C33 C34 1.376 . S
C33 C38 1.386 . S
C33 C39 1.483 . S
C34 H9 0.949 . S
C34 C33 1.376 . S
C34 C35 1.397 . S
C35 H10 0.950 . S
C35 C34 1.397 . S
C35 C36 1.391 . S
C36 C35 1.391 . S
C36 C37 1.405 . S
C37 H11 0.950 . S
C37 C36 1.405 . S
C37 C38 1.367 . S
C38 H12 0.950 . S
C38 C33 1.386 . S
C38 C37 1.367 . S
C39 C33 1.483 . S
C39 C40 1.382 . S
C39 C41 1.403 . S
C40 H13 0.950 . S
C40 C26 1.411 1_455 S
C40 C39 1.382 . S
C41 C25 1.411 . S
C41 C39 1.403 . S
C41 C42 1.489 . S
C42 C41 1.489 . S
C42 C43 1.383 . S
C42 C47 1.382 . S
C43 H14 0.950 . S
C43 C42 1.383 . S
C43 C44 1.395 . S
C44 H15 0.950 . S
C44 C43 1.395 . S
C44 C45 1.288 . S
C45 C44 1.288 . S
C45 C46 1.392 . S
C46 H16 0.951 . S
C46 C45 1.392 . S
C46 C47 1.392 . S
C47 H17 0.949 . S
C47 C42 1.382 . S
C47 C46 1.392 . S
H48 C67 0.949 . S
H49 C68 0.950 . S
H50 C70 0.950 . S
H51 C71 0.950 . S
H52 C73 0.950 . S
H53 C76 0.950 . S
H54 C77 0.950 . S
H55 C79 0.951 . S
H56 C80 0.959 . S
H57 C82 0.949 . S
H58 C83 0.950 . S
H59 C85 0.950 . S
H60 C86 0.950 . S
H61 C88 0.950 . S
H62 C91 0.950 . S
H63 C92 0.950 . S
H64 C94 0.951 . S
H65 C95 0.949 . S
C66 C67 1.376 . S
C66 C71 1.386 . S
C66 C72 1.483 . S
C67 H48 0.949 . S
C67 C66 1.376 . S
C67 C68 1.397 . S
C68 H49 0.950 . S
C68 C67 1.397 . S
C68 C69 1.391 . S
C69 C68 1.391 . S
C69 C70 1.405 . S
C70 H50 0.950 . S
C70 C69 1.405 . S
C70 C71 1.367 . S
C71 H51 0.950 . S
C71 C66 1.386 . S
C71 C70 1.367 . S
C72 C66 1.483 . S
C72 C73 1.382 1_565 S
C72 C74 1.403 1_565 S
C73 H52 0.950 . S
C73 C72 1.382 1_545 S
C73 C89 1.411 . S
C74 C72 1.403 1_545 S
C74 C75 1.489 1_545 S
C74 C88 1.411 . S
C75 C74 1.489 1_565 S
C75 C76 1.383 . S
C75 C80 1.382 . S
C76 H53 0.950 . S
C76 C75 1.383 . S
C76 C77 1.395 . S
C77 H54 0.950 . S
C77 C76 1.395 . S
C77 C78 1.288 . S
C78 C77 1.288 . S
C78 C79 1.392 . S
C79 H55 0.951 . S
C79 C78 1.392 . S
C79 C80 1.392 . S
C80 H56 0.959 . S
C80 C75 1.382 . S
C80 C79 1.392 . S
C81 C82 1.376 . S
C81 C86 1.386 . S
C81 C87 1.483 . S
C82 H57 0.949 . S
C82 C81 1.376 . S
C82 C83 1.397 . S
C83 H58 0.950 . S
C83 C82 1.397 . S
C83 C84 1.391 . S
C84 C83 1.391 . S
C84 C85 1.405 . S
C85 H59 0.950 . S
C85 C84 1.405 . S
C85 C86 1.367 . S
C86 H60 0.950 . S
C86 C81 1.386 . S
C86 C85 1.367 . S
C87 C81 1.483 . S
C87 C88 1.382 . S
C87 C89 1.403 . S
C88 H61 0.950 . S
C88 C74 1.411 . S
C88 C87 1.382 . S
C89 C73 1.411 . S
C89 C87 1.403 . S
C89 C90 1.489 . S
C90 C89 1.489 . S
C90 C91 1.383 . S
C90 C95 1.382 . S
C91 H62 0.950 . S
C91 C90 1.383 . S
C91 C92 1.395 . S
C92 H63 0.950 . S
C92 C91 1.395 . S
C92 C93 1.288 . S
C93 C92 1.288 . S
C93 C94 1.392 . S
C94 H64 0.951 . S
C94 C93 1.392 . S
C94 C95 1.392 . S
C95 H65 0.949 . S
C95 C90 1.382 . S
C95 C94 1.392 . S
H96 C115 0.949 . S
H97 C116 0.950 . S
H98 C118 0.950 . S
H99 C119 0.950 . S
H100 C121 0.950 . S
H101 C124 0.950 . S
H102 C125 0.950 . S
H103 C127 0.951 . S
H104 C128 0.949 . S
H105 C130 0.949 . S
H106 C131 0.950 . S
H107 C133 0.950 . S
H108 C134 0.950 . S
H109 C136 0.950 . S
H110 C139 0.950 . S
H111 C140 0.950 . S
H112 C142 0.951 . S
H113 C143 0.949 . S
C114 C115 1.376 . S
C114 C119 1.386 . S
C114 C120 1.483 . S
C115 H96 0.949 . S
C115 C114 1.376 . S
C115 C116 1.397 . S
C116 H97 0.950 . S
C116 C115 1.397 . S
C116 C117 1.391 . S
C117 C116 1.391 . S
C117 C118 1.405 . S
C118 H98 0.950 . S
C118 C117 1.405 . S
C118 C119 1.367 . S
C119 H99 0.950 . S
C119 C114 1.386 . S
C119 C118 1.367 . S
C120 C114 1.483 . S
C120 C121 1.382 . S
C120 C122 1.403 . S
C121 H100 0.950 . S
C121 C120 1.382 . S
C121 C137 1.411 . S
C122 C120 1.403 . S
C122 C123 1.489 . S
C122 C136 1.411 . S
C123 C122 1.489 . S
C123 C124 1.383 . S
C123 C128 1.382 . S
C124 H101 0.950 . S
C124 C123 1.383 . S
C124 C125 1.395 . S
C125 H102 0.950 . S
C125 C124 1.395 . S
C125 C126 1.288 . S
C126 C125 1.288 . S
C126 C127 1.392 . S
C127 H103 0.951 . S
C127 C126 1.392 . S
C127 C128 1.392 . S
C128 H104 0.949 . S
C128 C123 1.382 . S
C128 C127 1.392 . S
C129 C130 1.376 . S
C129 C134 1.386 . S
C129 C135 1.483 . S
C130 H105 0.949 . S
C130 C129 1.376 . S
C130 C131 1.397 . S
C131 H106 0.950 . S
C131 C130 1.397 . S
C131 C132 1.391 . S
C132 C131 1.391 . S
C132 C133 1.405 . S
C133 H107 0.950 . S
C133 C132 1.405 . S
C133 C134 1.367 . S
C134 H108 0.950 . S
C134 C129 1.386 . S
C134 C133 1.367 . S
C135 C129 1.483 . S
C135 C136 1.382 . S
C135 C137 1.403 . S
C136 H109 0.950 . S
C136 C122 1.411 . S
C136 C135 1.382 . S
C137 C121 1.411 . S
C137 C135 1.403 . S
C137 C138 1.489 . S
C138 C137 1.489 . S
C138 C139 1.383 . S
C138 C143 1.382 . S
C139 H110 0.950 . S
C139 C138 1.383 . S
C139 C140 1.395 . S
C140 H111 0.950 . S
C140 C139 1.395 . S
C140 C141 1.288 . S
C141 C140 1.288 . S
C141 C142 1.392 . S
C142 H112 0.951 . S
C142 C141 1.392 . S
C142 C143 1.392 . S
C143 H113 0.949 . S
C143 C138 1.382 . S
C143 C142 1.392 . S
H144 C163 0.949 . S
H145 C164 0.950 . S
H146 C166 0.950 . S
H147 C167 0.950 . S
H148 C169 0.950 . S
H149 C172 0.950 . S
H150 C173 0.950 . S
H151 C175 0.951 . S
H152 C176 0.949 . S
H153 C178 0.949 . S
H154 C179 0.950 . S
H155 C181 0.950 . S
H156 C182 0.950 . S
H157 C184 0.950 . S
H158 C187 0.950 . S
H159 C188 0.950 . S
H160 C190 0.951 . S
H161 C191 0.949 . S
C162 C163 1.376 . S
C162 C167 1.386 . S
C162 C168 1.483 . S
C163 H144 0.949 . S
C163 C162 1.376 . S
C163 C164 1.397 . S
C164 H145 0.950 . S
C164 C163 1.397 . S
C164 C165 1.391 . S
C165 C164 1.391 . S
C165 C166 1.405 . S
C166 H146 0.950 . S
C166 C165 1.405 . S
C166 C167 1.367 . S
C167 H147 0.950 . S
C167 C162 1.386 . S
C167 C166 1.367 . S
C168 C162 1.483 . S
C168 C169 1.382 . S
C168 C170 1.403 . S
C169 H148 0.950 . S
C169 C168 1.382 . S
C169 C185 1.411 1_455 S
C170 C168 1.403 . S
C170 C171 1.489 . S
C170 C184 1.411 . S
C171 C170 1.489 . S
C171 C172 1.383 . S
C171 C176 1.382 . S
C172 H149 0.950 . S
C172 C171 1.383 . S
C172 C173 1.395 . S
C173 H150 0.950 . S
C173 C172 1.395 . S
C173 C174 1.288 . S
C174 C173 1.288 . S
C174 C175 1.392 . S
C175 H151 0.951 . S
C175 C174 1.392 . S
C175 C176 1.392 . S
C176 H152 0.949 . S
C176 C171 1.382 . S
C176 C175 1.392 . S
C177 C178 1.376 . S
C177 C182 1.386 . S
C177 C183 1.475 1_655 S
C178 H153 0.949 . S
C178 C177 1.376 . S
C178 C179 1.397 . S
C179 H154 0.950 . S
C179 C178 1.397 . S
C179 C180 1.391 . S
C180 C179 1.391 . S
C180 C181 1.405 . S
C181 H155 0.950 . S
C181 C180 1.405 . S
C181 C182 1.367 . S
C182 H156 0.950 . S
C182 C177 1.386 . S
C182 C181 1.367 . S
C183 C177 1.475 1_455 S
C183 C184 1.394 . S
C183 C185 1.399 1_455 S
C184 H157 0.950 . S
C184 C170 1.411 . S
C184 C183 1.394 . S
C185 C169 1.411 1_655 S
C185 C183 1.399 1_655 S
C185 C186 1.489 . S
C186 C185 1.489 . S
C186 C187 1.383 . S
C186 C191 1.382 . S
C187 H158 0.950 . S
C187 C186 1.383 . S
C187 C188 1.395 . S
C188 H159 0.950 . S
C188 C187 1.395 . S
C188 C189 1.288 . S
C189 C188 1.288 . S
C189 C190 1.392 . S
C190 H160 0.951 . S
C190 C189 1.392 . S
C190 C191 1.392 . S
C191 H161 0.949 . S
C191 C186 1.382 . S
C191 C190 1.392 . S
H192 C211 0.949 . S
H193 C212 0.950 . S
H194 C214 0.950 . S
H195 C215 0.933 1_556 S
H196 C217 0.950 . S
H197 C220 0.950 . S
H198 C221 0.950 . S
H199 C223 0.951 . S
H200 C224 0.949 . S
H201 C226 0.949 . S
H202 C227 0.950 . S
H203 C229 0.950 . S
H204 C230 0.950 . S
H205 C232 0.950 . S
H206 C235 0.950 . S
H207 C236 0.950 . S
H208 C238 0.951 . S
H209 C239 0.959 . S
C210 C211 1.376 . S
C210 C215 1.393 . S
C210 C216 1.478 1_554 S
C211 H192 0.949 . S
C211 C210 1.376 . S
C211 C212 1.397 . S
C212 H193 0.950 . S
C212 C211 1.397 . S
C212 C213 1.391 . S
C213 C212 1.391 . S
C213 C214 1.405 . S
C214 H194 0.950 . S
C214 C213 1.405 . S
C214 C215 1.378 . S
C215 H195 0.933 1_554 S
C215 C210 1.393 . S
C215 C214 1.378 . S
C216 C210 1.478 1_556 S
C216 C217 1.365 1_556 S
C216 C218 1.424 . S
C217 H196 0.950 . S
C217 C216 1.365 1_554 S
C217 C233 1.411 . S
C218 C216 1.424 . S
C218 C219 1.489 . S
C218 C232 1.411 . S
C219 C218 1.489 . S
C219 C220 1.383 . S
C219 C224 1.382 . S
C220 H197 0.950 . S
C220 C219 1.383 . S
C220 C221 1.395 . S
C221 H198 0.950 . S
C221 C220 1.395 . S
C221 C222 1.288 . S
C222 C221 1.288 . S
C222 C223 1.392 . S
C223 H199 0.951 . S
C223 C222 1.392 . S
C223 C224 1.392 . S
C224 H200 0.949 . S
C224 C219 1.382 . S
C224 C223 1.392 . S
C225 C226 1.376 . S
C225 C230 1.386 . S
C225 C231 1.483 . S
C226 H201 0.949 . S
C226 C225 1.376 . S
C226 C227 1.397 . S
C227 H202 0.950 . S
C227 C226 1.397 . S
C227 C228 1.391 . S
C228 C227 1.391 . S
C228 C229 1.405 . S
C229 H203 0.950 . S
C229 C228 1.405 . S
C229 C230 1.367 . S
C230 H204 0.950 . S
C230 C225 1.386 . S
C230 C229 1.367 . S
C231 C225 1.483 . S
C231 C232 1.382 1_565 S
C231 C233 1.403 1_566 S
C232 H205 0.950 . S
C232 C218 1.411 . S
C232 C231 1.382 1_545 S
C233 C217 1.411 . S
C233 C231 1.403 1_544 S
C233 C234 1.489 1_545 S
C234 C233 1.489 1_565 S
C234 C235 1.383 . S
C234 C239 1.382 . S
C235 H206 0.950 . S
C235 C234 1.383 . S
C235 C236 1.395 . S
C236 H207 0.950 . S
C236 C235 1.395 . S
C236 C237 1.288 . S
C237 C236 1.288 . S
C237 C238 1.392 . S
C238 H208 0.951 . S
C238 C237 1.392 . S
C238 C239 1.392 . S
C239 H209 0.959 . S
C239 C234 1.382 . S
C239 C238 1.392 . S
H240 C259 0.949 . S
H241 C260 0.950 . S
H242 C262 0.950 . S
H243 C263 0.950 . S
H244 C265 0.950 . S
H245 C268 0.950 . S
H246 C269 0.950 . S
H247 C271 0.951 . S
H248 C272 0.949 . S
H249 C274 0.949 . S
H250 C275 0.950 . S
H251 C277 0.950 . S
H252 C278 0.950 . S
H253 C280 0.950 . S
H254 C283 0.950 . S
H255 C284 0.950 . S
H256 C286 0.951 . S
H257 C287 0.949 . S
C258 C259 1.376 . S
C258 C263 1.386 . S
C258 C264 1.483 . S
C259 H240 0.949 . S
C259 C258 1.376 . S
C259 C260 1.397 . S
C260 H241 0.950 . S
C260 C259 1.397 . S
C260 C261 1.391 . S
C261 C260 1.391 . S
C261 C262 1.405 . S
C262 H242 0.950 . S
C262 C261 1.405 . S
C262 C263 1.367 . S
C263 H243 0.950 . S
C263 C258 1.386 . S
C263 C262 1.367 . S
C264 C258 1.483 . S
C264 C265 1.382 . S
C264 C266 1.403 . S
C265 H244 0.950 . S
C265 C264 1.382 . S
C265 C281 1.411 . S
C266 C264 1.403 . S
C266 C267 1.489 . S
C266 C280 1.411 . S
C267 C266 1.489 . S
C267 C268 1.383 . S
C267 C272 1.382 . S
C268 H245 0.950 . S
C268 C267 1.383 . S
C268 C269 1.395 . S
C269 H246 0.950 . S
C269 C268 1.395 . S
C269 C270 1.288 . S
C270 C269 1.288 . S
C270 C271 1.392 . S
C271 H247 0.951 . S
C271 C270 1.392 . S
C271 C272 1.392 . S
C272 H248 0.949 . S
C272 C267 1.382 . S
C272 C271 1.392 . S
C273 C274 1.376 . S
C273 C278 1.386 . S
C273 C279 1.483 . S
C274 H249 0.949 . S
C274 C273 1.376 . S
C274 C275 1.397 . S
C275 H250 0.950 . S
C275 C274 1.397 . S
C275 C276 1.391 . S
C276 C275 1.391 . S
C276 C277 1.405 . S
C277 H251 0.950 . S
C277 C276 1.405 . S
C277 C278 1.367 . S
C278 H252 0.950 . S
C278 C273 1.386 . S
C278 C277 1.367 . S
C279 C273 1.483 . S
C279 C280 1.382 . S
C279 C281 1.403 . S
C280 H253 0.950 . S
C280 C266 1.411 . S
C280 C279 1.382 . S
C281 C265 1.411 . S
C281 C279 1.403 . S
C281 C282 1.489 . S
C282 C281 1.489 . S
C282 C283 1.383 . S
C282 C287 1.382 . S
C283 H254 0.950 . S
C283 C282 1.383 . S
C283 C284 1.395 . S
C284 H255 0.950 . S
C284 C283 1.395 . S
C284 C285 1.288 . S
C285 C284 1.288 . S
C285 C286 1.392 . S
C286 H256 0.951 . S
C286 C285 1.392 . S
C286 C287 1.392 . S
C287 H257 0.949 . S
C287 C282 1.382 . S
C287 C286 1.392 . S
Li288 N305 1.990 . S
Li288 O348 1.956 . S
Li288 O349 1.970 . S
Li288 O350 1.961 . S
Li289 N313 1.990 . S
Li289 O348 1.970 . S
Li289 O349 1.956 . S
Li289 O351 1.961 . S
Li290 N335 1.990 . S
Li290 O348 1.961 . S
Li290 O350 1.956 . S
Li290 O351 1.970 . S
Li291 N341 1.990 . S
Li291 O349 1.961 . S
Li291 O350 1.970 . S
Li291 O351 1.956 . S
C292 C294 1.348 . S
C292 C295 1.356 . S
C292 O348 1.325 . S
N293 C296 1.314 . S
N293 C297 1.279 . S
C294 C292 1.348 . S
C294 C296 1.353 . S
C294 H352 0.929 . S
C295 C292 1.356 . S
C295 C297 1.358 . S
C295 H353 0.930 . S
C296 N293 1.314 . S
C296 C294 1.353 . S
C296 H354 0.930 . S
C297 N293 1.279 . S
C297 C295 1.358 . S
C297 H355 0.930 . S
C298 C301 1.348 . S
C298 C302 1.356 . S
C298 O349 1.325 . S
C299 N300 1.279 . S
C299 C302 1.358 . S
C299 H356 0.930 . S
N300 C299 1.279 . S
N300 C303 1.314 . S
C301 C298 1.348 . S
C301 C303 1.353 . S
C301 H357 0.929 . S
C302 C298 1.356 . S
C302 C299 1.358 . S
C302 H358 0.930 . S
C303 N300 1.314 . S
C303 C301 1.353 . S
C303 H359 0.930 . S
C304 N305 1.314 . S
C304 C309 1.353 . S
C304 H310 0.930 . S
N305 Li288 1.990 . S
N305 C304 1.314 . S
N305 C307 1.279 . S
C306 C307 1.358 . S
C306 C308 1.356 . S
C306 H360 0.930 . S
C307 N305 1.279 . S
C307 C306 1.358 . S
C307 H311 0.930 . S
C308 C306 1.356 . S
C308 C309 1.348 . S
C309 C304 1.353 . S
C309 C308 1.348 . S
C309 H361 0.929 . S
H310 C304 0.930 . S
H311 C307 0.930 . S
C312 N313 1.314 . S
C312 C314 1.353 . S
C312 H318 0.930 . S
N313 Li289 1.990 . S
N313 C312 1.314 . S
N313 C316 1.279 . S
C314 C312 1.353 . S
C314 C317 1.348 . S
C314 H362 0.929 . S
C315 C316 1.358 . S
C315 C317 1.356 . S
C315 H363 0.930 . S
C316 N313 1.279 . S
C316 C315 1.358 . S
C316 H319 0.930 . S
C317 C314 1.348 . S
C317 C315 1.356 . S
H318 C312 0.930 . S
H319 C316 0.930 . S
C320 C322 1.348 . S
C320 C323 1.356 . S
C320 O350 1.325 . S
N321 C324 1.314 . S
N321 C325 1.279 . S
C322 C320 1.348 . S
C322 C324 1.353 . S
C322 H364 0.929 . S
C323 C320 1.356 . S
C323 C325 1.358 . S
C323 H365 0.930 . S
C324 N321 1.314 . S
C324 C322 1.353 . S
C324 H366 0.930 . S
C325 N321 1.279 . S
C325 C323 1.358 . S
C325 H367 0.930 . S
C326 C327 1.348 . S
C326 C328 1.356 . S
C326 O351 1.325 . S
C327 C326 1.348 . S
C327 C329 1.353 . S
C327 H368 0.929 . S
C328 C326 1.356 . S
C328 C330 1.358 . S
C328 H369 0.930 . S
C329 C327 1.353 . S
C329 N331 1.314 . S
C329 H370 0.930 . S
C330 C328 1.358 . S
C330 N331 1.279 . S
C330 H371 0.930 . S
N331 C329 1.314 . S
N331 C330 1.279 . S
C332 C334 1.353 . S
C332 N335 1.314 . S
C332 H338 0.930 . S
C333 N335 1.279 . S
C333 C336 1.358 . S
C333 H339 0.930 . S
C334 C332 1.353 . S
C334 C337 1.348 . S
C334 H372 0.929 . S
N335 Li290 1.990 . S
N335 C332 1.314 . S
N335 C333 1.279 . S
C336 C333 1.358 . S
C336 C337 1.356 . S
C336 H373 0.930 . S
C337 C334 1.348 . S
C337 C336 1.356 . S
H338 C332 0.930 . S
H339 C333 0.930 . S
C340 N341 1.314 . S
C340 C342 1.353 . S
C340 H346 0.930 . S
N341 Li291 1.990 . S
N341 C340 1.314 . S
N341 C344 1.279 . S
C342 C340 1.353 . S
C342 C345 1.348 . S
C342 H374 0.929 . S
C343 C344 1.358 . S
C343 C345 1.356 . S
C343 H375 0.930 . S
C344 N341 1.279 . S
C344 C343 1.358 . S
C344 H347 0.930 . S
C345 C342 1.348 . S
C345 C343 1.356 . S
H346 C340 0.930 . S
H347 C344 0.930 . S
O348 Li288 1.956 . S
O348 Li289 1.970 . S
O348 Li290 1.961 . S
O348 C292 1.325 . S
O349 Li288 1.970 . S
O349 Li289 1.956 . S
O349 Li291 1.961 . S
O349 C298 1.325 . S
O350 Li288 1.961 . S
O350 Li290 1.956 . S
O350 Li291 1.970 . S
O350 C320 1.325 . S
O351 Li289 1.961 . S
O351 Li290 1.970 . S
O351 Li291 1.956 . S
O351 C326 1.325 . S
H352 C294 0.929 . S
H353 C295 0.930 . S
H354 C296 0.930 . S
H355 C297 0.930 . S
H356 C299 0.930 . S
H357 C301 0.929 . S
H358 C302 0.930 . S
H359 C303 0.930 . S
H360 C306 0.930 . S
H361 C309 0.929 . S
H362 C314 0.929 . S
H363 C315 0.930 . S
H364 C322 0.929 . S
H365 C323 0.930 . S
H366 C324 0.930 . S
H367 C325 0.930 . S
H368 C327 0.929 . S
H369 C328 0.930 . S
H370 C329 0.930 . S
H371 C330 0.930 . S
H372 C334 0.929 . S
H373 C336 0.930 . S
H374 C342 0.929 . S
H375 C343 0.930 . S
Li376 N393 1.990 . S
Li376 O436 1.956 . S
Li376 O437 1.970 . S
Li376 O438 1.961 . S
Li377 N401 1.990 . S
Li377 O436 1.970 . S
Li377 O437 1.956 . S
Li377 O439 1.961 . S
Li378 N423 1.990 . S
Li378 O436 1.961 . S
Li378 O438 1.956 . S
Li378 O439 1.970 . S
Li379 N429 1.990 . S
Li379 O437 1.961 . S
Li379 O438 1.970 . S
Li379 O439 1.956 . S
C380 C382 1.348 . S
C380 C383 1.356 . S
C380 O436 1.325 . S
N381 C384 1.314 . S
N381 C385 1.279 . S
C382 C380 1.348 . S
C382 C384 1.353 . S
C382 H440 0.929 . S
C383 C380 1.356 . S
C383 C385 1.358 . S
C383 H441 0.930 . S
C384 N381 1.314 . S
C384 C382 1.353 . S
C384 H442 0.930 . S
C385 N381 1.279 . S
C385 C383 1.358 . S
C385 H443 0.930 . S
C386 C389 1.348 . S
C386 C390 1.356 . S
C386 O437 1.325 . S
C387 N388 1.279 . S
C387 C390 1.358 . S
C387 H444 0.930 . S
N388 C387 1.279 . S
N388 C391 1.314 . S
C389 C386 1.348 . S
C389 C391 1.353 . S
C389 H445 0.929 . S
C390 C386 1.356 . S
C390 C387 1.358 . S
C390 H446 0.930 . S
C391 N388 1.314 . S
C391 C389 1.353 . S
C391 H447 0.930 . S
C392 N393 1.314 . S
C392 C397 1.353 . S
C392 H398 0.930 . S
N393 Li376 1.990 . S
N393 C392 1.314 . S
N393 C395 1.279 . S
C394 C395 1.358 . S
C394 C396 1.356 . S
C394 H448 0.930 . S
C395 N393 1.279 . S
C395 C394 1.358 . S
C395 H399 0.930 . S
C396 C394 1.356 . S
C396 C397 1.348 . S
C397 C392 1.353 . S
C397 C396 1.348 . S
C397 H449 0.929 . S
H398 C392 0.930 . S
H399 C395 0.930 . S
C400 N401 1.314 . S
C400 C402 1.353 . S
C400 H406 0.930 . S
N401 Li377 1.990 . S
N401 C400 1.314 . S
N401 C404 1.279 . S
C402 C400 1.353 . S
C402 C405 1.348 . S
C402 H450 0.929 . S
C403 C404 1.358 . S
C403 C405 1.356 . S
C403 H451 0.930 . S
C404 N401 1.279 . S
C404 C403 1.358 . S
C404 H407 0.930 . S
C405 C402 1.348 . S
C405 C403 1.356 . S
H406 C400 0.930 . S
H407 C404 0.930 . S
C408 C410 1.348 . S
C408 C411 1.356 . S
C408 O438 1.325 . S
N409 C412 1.314 . S
N409 C413 1.279 . S
C410 C408 1.348 . S
C410 C412 1.353 . S
C410 H452 0.929 . S
C411 C408 1.356 . S
C411 C413 1.358 . S
C411 H453 0.930 . S
C412 N409 1.314 . S
C412 C410 1.353 . S
C412 H454 0.930 . S
C413 N409 1.279 . S
C413 C411 1.358 . S
C413 H455 0.930 . S
C414 C415 1.348 . S
C414 C416 1.356 . S
C414 O439 1.325 . S
C415 C414 1.348 . S
C415 C417 1.353 . S
C415 H456 0.929 . S
C416 C414 1.356 . S
C416 C418 1.358 . S
C416 H457 0.930 . S
C417 C415 1.353 . S
C417 N419 1.314 . S
C417 H458 0.930 . S
C418 C416 1.358 . S
C418 N419 1.279 . S
C418 H459 0.930 . S
N419 C417 1.314 . S
N419 C418 1.279 . S
C420 C422 1.353 . S
C420 N423 1.314 . S
C420 H426 0.930 . S
C421 N423 1.279 . S
C421 C424 1.358 . S
C421 H427 0.930 . S
C422 C420 1.353 . S
C422 C425 1.348 . S
C422 H460 0.929 . S
N423 Li378 1.990 . S
N423 C420 1.314 . S
N423 C421 1.279 . S
C424 C421 1.358 . S
C424 C425 1.356 . S
C424 H461 0.930 . S
C425 C422 1.348 . S
C425 C424 1.356 . S
H426 C420 0.930 . S
H427 C421 0.930 . S
C428 N429 1.314 . S
C428 C430 1.353 . S
C428 H434 0.930 . S
N429 Li379 1.990 . S
N429 C428 1.314 . S
N429 C432 1.279 . S
C430 C428 1.353 . S
C430 C433 1.348 . S
C430 H462 0.929 . S
C431 C432 1.358 . S
C431 C433 1.356 . S
C431 H463 0.930 . S
C432 N429 1.279 . S
C432 C431 1.358 . S
C432 H435 0.930 . S
C433 C430 1.348 . S
C433 C431 1.356 . S
H434 C428 0.930 . S
H435 C432 0.930 . S
O436 Li376 1.956 . S
O436 Li377 1.970 . S
O436 Li378 1.961 . S
O436 C380 1.325 . S
O437 Li376 1.970 . S
O437 Li377 1.956 . S
O437 Li379 1.961 . S
O437 C386 1.325 . S
O438 Li376 1.961 . S
O438 Li378 1.956 . S
O438 Li379 1.970 . S
O438 C408 1.325 . S
O439 Li377 1.961 . S
O439 Li378 1.970 . S
O439 Li379 1.956 . S
O439 C414 1.325 . S
H440 C382 0.929 . S
H441 C383 0.930 . S
H442 C384 0.930 . S
H443 C385 0.930 . S
H444 C387 0.930 . S
H445 C389 0.929 . S
H446 C390 0.930 . S
H447 C391 0.930 . S
H448 C394 0.930 . S
H449 C397 0.929 . S
H450 C402 0.929 . S
H451 C403 0.930 . S
H452 C410 0.929 . S
H453 C411 0.930 . S
H454 C412 0.930 . S
H455 C413 0.930 . S
H456 C415 0.929 . S
H457 C416 0.930 . S
H458 C417 0.930 . S
H459 C418 0.930 . S
H460 C422 0.929 . S
H461 C424 0.930 . S
H462 C430 0.929 . S
H463 C431 0.930 . S
Li464 N481 1.990 . S
Li464 O524 1.956 . S
Li464 O525 1.970 . S
Li464 O526 1.961 . S
Li465 N489 1.990 . S
Li465 O524 1.970 . S
Li465 O525 1.956 . S
Li465 O527 1.961 . S
Li466 N511 1.990 . S
Li466 O524 1.961 . S
Li466 O526 1.956 . S
Li466 O527 1.970 . S
Li467 N517 1.990 . S
Li467 O525 1.961 . S
Li467 O526 1.970 . S
Li467 O527 1.956 . S
C468 C470 1.348 . S
C468 C471 1.356 . S
C468 O524 1.325 . S
N469 C472 1.314 . S
N469 C473 1.279 . S
C470 C468 1.348 . S
C470 C472 1.353 . S
C470 H528 0.929 . S
C471 C468 1.356 . S
C471 C473 1.358 . S
C471 H529 0.930 . S
C472 N469 1.314 . S
C472 C470 1.353 . S
C472 H530 0.930 . S
C473 N469 1.279 . S
C473 C471 1.358 . S
C473 H531 0.930 . S
C474 C477 1.348 . S
C474 C478 1.356 . S
C474 O525 1.325 . S
C475 N476 1.279 . S
C475 C478 1.358 . S
C475 H532 0.930 . S
N476 C475 1.279 . S
N476 C479 1.314 . S
C477 C474 1.348 . S
C477 C479 1.353 . S
C477 H533 0.929 . S
C478 C474 1.356 . S
C478 C475 1.358 . S
C478 H534 0.930 . S
C479 N476 1.314 . S
C479 C477 1.353 . S
C479 H535 0.930 . S
C480 N481 1.314 . S
C480 C485 1.353 . S
C480 H486 0.930 . S
N481 Li464 1.990 . S
N481 C480 1.314 . S
N481 C483 1.279 . S
C482 C483 1.358 . S
C482 C484 1.356 . S
C482 H536 0.930 . S
C483 N481 1.279 . S
C483 C482 1.358 . S
C483 H487 0.930 . S
C484 C482 1.356 . S
C484 C485 1.348 . S
C485 C480 1.353 . S
C485 C484 1.348 . S
C485 H537 0.929 . S
H486 C480 0.930 . S
H487 C483 0.930 . S
C488 N489 1.314 . S
C488 C490 1.353 . S
C488 H494 0.930 . S
N489 Li465 1.990 . S
N489 C488 1.314 . S
N489 C492 1.279 . S
C490 C488 1.353 . S
C490 C493 1.348 . S
C490 H538 0.929 . S
C491 C492 1.358 . S
C491 C493 1.356 . S
C491 H539 0.930 . S
C492 N489 1.279 . S
C492 C491 1.358 . S
C492 H495 0.930 . S
C493 C490 1.348 . S
C493 C491 1.356 . S
H494 C488 0.930 . S
H495 C492 0.930 . S
C496 C498 1.348 . S
C496 C499 1.356 . S
C496 O526 1.325 . S
N497 C500 1.314 . S
N497 C501 1.279 . S
C498 C496 1.348 . S
C498 C500 1.353 . S
C498 H540 0.929 . S
C499 C496 1.356 . S
C499 C501 1.358 . S
C499 H541 0.930 . S
C500 N497 1.314 . S
C500 C498 1.353 . S
C500 H542 0.930 . S
C501 N497 1.279 . S
C501 C499 1.358 . S
C501 H543 0.930 . S
C502 C503 1.348 . S
C502 C504 1.356 . S
C502 O527 1.325 . S
C503 C502 1.348 . S
C503 C505 1.353 . S
C503 H544 0.929 . S
C504 C502 1.356 . S
C504 C506 1.358 . S
C504 H545 0.930 . S
C505 C503 1.353 . S
C505 N507 1.314 . S
C505 H546 0.930 . S
C506 C504 1.358 . S
C506 N507 1.279 . S
C506 H547 0.930 . S
N507 C505 1.314 . S
N507 C506 1.279 . S
C508 C510 1.353 . S
C508 N511 1.314 . S
C508 H514 0.930 . S
C509 N511 1.279 . S
C509 C512 1.358 . S
C509 H515 0.930 . S
C510 C508 1.353 . S
C510 C513 1.348 . S
C510 H548 0.929 . S
N511 Li466 1.990 . S
N511 C508 1.314 . S
N511 C509 1.279 . S
C512 C509 1.358 . S
C512 C513 1.356 . S
C512 H549 0.930 . S
C513 C510 1.348 . S
C513 C512 1.356 . S
H514 C508 0.930 . S
H515 C509 0.930 . S
C516 N517 1.314 . S
C516 C518 1.353 . S
C516 H522 0.930 . S
N517 Li467 1.990 . S
N517 C516 1.314 . S
N517 C520 1.279 . S
C518 C516 1.353 . S
C518 C521 1.348 . S
C518 H550 0.929 . S
C519 C520 1.358 . S
C519 C521 1.356 . S
C519 H551 0.930 . S
C520 N517 1.279 . S
C520 C519 1.358 . S
C520 H523 0.930 . S
C521 C518 1.348 . S
C521 C519 1.356 . S
H522 C516 0.930 . S
H523 C520 0.930 . S
O524 Li464 1.956 . S
O524 Li465 1.970 . S
O524 Li466 1.961 . S
O524 C468 1.325 . S
O525 Li464 1.970 . S
O525 Li465 1.956 . S
O525 Li467 1.961 . S
O525 C474 1.325 . S
O526 Li464 1.961 . S
O526 Li466 1.956 . S
O526 Li467 1.970 . S
O526 C496 1.325 . S
O527 Li465 1.961 . S
O527 Li466 1.970 . S
O527 Li467 1.956 . S
O527 C502 1.325 . S
H528 C470 0.929 . S
H529 C471 0.930 . S
H530 C472 0.930 . S
H531 C473 0.930 . S
H532 C475 0.930 . S
H533 C477 0.929 . S
H534 C478 0.930 . S
H535 C479 0.930 . S
H536 C482 0.930 . S
H537 C485 0.929 . S
H538 C490 0.929 . S
H539 C491 0.930 . S
H540 C498 0.929 . S
H541 C499 0.930 . S
H542 C500 0.930 . S
H543 C501 0.930 . S
H544 C503 0.929 . S
H545 C504 0.930 . S
H546 C505 0.930 . S
H547 C506 0.930 . S
H548 C510 0.929 . S
H549 C512 0.930 . S
H550 C518 0.929 . S
H551 C519 0.930 . S
Li552 N569 1.990 . S
Li552 O612 1.956 . S
Li552 O613 1.970 . S
Li552 O614 1.961 . S
Li553 N577 1.990 . S
Li553 O612 1.970 . S
Li553 O613 1.956 . S
Li553 O615 1.961 . S
Li554 N599 1.990 . S
Li554 O612 1.961 . S
Li554 O614 1.956 . S
Li554 O615 1.970 . S
Li555 N605 1.990 . S
Li555 O613 1.961 . S
Li555 O614 1.970 . S
Li555 O615 1.956 . S
C556 C558 1.348 . S
C556 C559 1.356 . S
C556 O612 1.325 . S
N557 C560 1.314 . S
N557 C561 1.279 . S
C558 C556 1.348 . S
C558 C560 1.353 . S
C558 H616 0.929 . S
C559 C556 1.356 . S
C559 C561 1.358 . S
C559 H617 0.930 . S
C560 N557 1.314 . S
C560 C558 1.353 . S
C560 H618 0.930 . S
C561 N557 1.279 . S
C561 C559 1.358 . S
C561 H619 0.930 . S
C562 C565 1.348 . S
C562 C566 1.356 . S
C562 O613 1.325 . S
C563 N564 1.279 . S
C563 C566 1.358 . S
C563 H620 0.930 . S
N564 C563 1.279 . S
N564 C567 1.314 . S
C565 C562 1.348 . S
C565 C567 1.353 . S
C565 H621 0.929 . S
C566 C562 1.356 . S
C566 C563 1.358 . S
C566 H622 0.930 . S
C567 N564 1.314 . S
C567 C565 1.353 . S
C567 H623 0.930 . S
C568 N569 1.314 . S
C568 C573 1.353 . S
C568 H574 0.930 . S
N569 Li552 1.990 . S
N569 C568 1.314 . S
N569 C571 1.279 . S
C570 C571 1.358 . S
C570 C572 1.356 . S
C570 H624 0.930 1_556 S
C571 N569 1.279 . S
C571 C570 1.358 . S
C571 H575 0.930 . S
C572 C570 1.356 . S
C572 C573 1.348 . S
C573 C568 1.353 . S
C573 C572 1.348 . S
C573 H625 0.929 . S
H574 C568 0.930 . S
H575 C571 0.930 . S
C576 N577 1.314 . S
C576 C578 1.353 . S
C576 H582 0.930 . S
N577 Li553 1.990 . S
N577 C576 1.314 . S
N577 C580 1.279 . S
C578 C576 1.353 . S
C578 C581 1.348 . S
C578 H626 0.929 . S
C579 C580 1.358 . S
C579 C581 1.356 . S
C579 H627 0.930 . S
C580 N577 1.279 . S
C580 C579 1.358 . S
C580 H583 0.930 . S
C581 C578 1.348 . S
C581 C579 1.356 . S
H582 C576 0.930 . S
H583 C580 0.930 . S
C584 C586 1.348 . S
C584 C587 1.356 . S
C584 O614 1.325 . S
N585 C588 1.314 . S
N585 C589 1.279 . S
C586 C584 1.348 . S
C586 C588 1.353 . S
C586 H628 0.929 . S
C587 C584 1.356 . S
C587 C589 1.358 . S
C587 H629 0.930 . S
C588 N585 1.314 . S
C588 C586 1.353 . S
C588 H630 0.930 . S
C589 N585 1.279 . S
C589 C587 1.358 . S
C589 H631 0.930 . S
C590 C591 1.348 . S
C590 C592 1.356 . S
C590 O615 1.325 . S
C591 C590 1.348 . S
C591 C593 1.353 . S
C591 H632 0.929 . S
C592 C590 1.356 . S
C592 C594 1.358 . S
C592 H633 0.930 . S
C593 C591 1.353 . S
C593 N595 1.314 . S
C593 H634 0.930 . S
C594 C592 1.358 . S
C594 N595 1.279 . S
C594 H635 0.930 . S
N595 C593 1.314 . S
N595 C594 1.279 . S
C596 C598 1.353 . S
C596 N599 1.314 . S
C596 H602 0.930 . S
C597 N599 1.279 . S
C597 C600 1.358 . S
C597 H603 0.930 . S
C598 C596 1.353 . S
C598 C601 1.348 . S
C598 H636 0.929 . S
N599 Li554 1.990 . S
N599 C596 1.314 . S
N599 C597 1.279 . S
C600 C597 1.358 . S
C600 C601 1.356 . S
C600 H637 0.930 . S
C601 C598 1.348 . S
C601 C600 1.356 . S
H602 C596 0.930 . S
H603 C597 0.930 . S
C604 N605 1.314 . S
C604 C606 1.353 . S
C604 H610 0.930 . S
N605 Li555 1.990 . S
N605 C604 1.314 . S
N605 C608 1.279 . S
C606 C604 1.353 . S
C606 C609 1.348 . S
C606 H638 0.929 . S
C607 C608 1.358 . S
C607 C609 1.356 . S
C607 H639 0.930 . S
C608 N605 1.279 . S
C608 C607 1.358 . S
C608 H611 0.930 . S
C609 C606 1.348 . S
C609 C607 1.356 . S
H610 C604 0.930 . S
H611 C608 0.930 . S
O612 Li552 1.956 . S
O612 Li553 1.970 . S
O612 Li554 1.961 . S
O612 C556 1.325 . S
O613 Li552 1.970 . S
O613 Li553 1.956 . S
O613 Li555 1.961 . S
O613 C562 1.325 . S
O614 Li552 1.961 . S
O614 Li554 1.956 . S
O614 Li555 1.970 . S
O614 C584 1.325 . S
O615 Li553 1.961 . S
O615 Li554 1.970 . S
O615 Li555 1.956 . S
O615 C590 1.325 . S
H616 C558 0.929 . S
H617 C559 0.930 . S
H618 C560 0.930 . S
H619 C561 0.930 . S
H620 C563 0.930 . S
H621 C565 0.929 . S
H622 C566 0.930 . S
H623 C567 0.930 . S
H624 C570 0.930 1_554 S
H625 C573 0.929 . S
H626 C578 0.929 . S
H627 C579 0.930 . S
H628 C586 0.929 . S
H629 C587 0.930 . S
H630 C588 0.930 . S
H631 C589 0.930 . S
H632 C591 0.929 . S
H633 C592 0.930 . S
H634 C593 0.930 . S
H635 C594 0.930 . S
H636 C598 0.929 . S
H637 C600 0.930 . S
H638 C606 0.929 . S
H639 C607 0.930 . S
Li640 N657 1.990 . S
Li640 O700 1.956 . S
Li640 O701 1.970 . S
Li640 O702 1.961 . S
Li641 N665 1.990 . S
Li641 O700 1.970 . S
Li641 O701 1.956 . S
Li641 O703 1.961 . S
Li642 N687 1.990 . S
Li642 O700 1.961 . S
Li642 O702 1.956 . S
Li642 O703 1.970 . S
Li643 N693 1.990 . S
Li643 O701 1.961 . S
Li643 O702 1.970 . S
Li643 O703 1.956 . S
C644 C646 1.348 . S
C644 C647 1.356 . S
C644 O700 1.325 . S
N645 C648 1.314 . S
N645 C649 1.279 . S
C646 C644 1.348 . S
C646 C648 1.353 . S
C646 H704 0.929 . S
C647 C644 1.356 . S
C647 C649 1.358 . S
C647 H705 0.930 . S
C648 N645 1.314 . S
C648 C646 1.353 . S
C648 H706 0.930 . S
C649 N645 1.279 . S
C649 C647 1.358 . S
C649 H707 0.930 . S
C650 C653 1.348 . S
C650 C654 1.356 . S
C650 O701 1.325 . S
C651 N652 1.279 . S
C651 C654 1.358 . S
C651 H708 0.930 . S
N652 C651 1.279 . S
N652 C655 1.314 . S
C653 C650 1.348 . S
C653 C655 1.353 . S
C653 H709 0.929 . S
C654 C650 1.356 . S
C654 C651 1.358 . S
C654 H710 0.930 . S
C655 N652 1.314 . S
C655 C653 1.353 . S
C655 H711 0.930 . S
C656 N657 1.314 . S
C656 C661 1.353 . S
C656 H662 0.930 . S
N657 Li640 1.990 . S
N657 C656 1.314 . S
N657 C659 1.279 . S
C658 C659 1.358 . S
C658 C660 1.356 . S
C658 H712 0.930 . S
C659 N657 1.279 . S
C659 C658 1.358 . S
C659 H663 0.930 . S
C660 C658 1.356 . S
C660 C661 1.348 . S
C661 C656 1.353 . S
C661 C660 1.348 . S
C661 H713 0.929 . S
H662 C656 0.930 . S
H663 C659 0.930 . S
C664 N665 1.314 . S
C664 C666 1.353 . S
C664 H670 0.930 . S
N665 Li641 1.990 . S
N665 C664 1.314 . S
N665 C668 1.279 . S
C666 C664 1.353 . S
C666 C669 1.348 . S
C666 H714 0.929 . S
C667 C668 1.358 . S
C667 C669 1.356 . S
C667 H715 0.930 . S
C668 N665 1.279 . S
C668 C667 1.358 . S
C668 H671 0.930 . S
C669 C666 1.348 . S
C669 C667 1.356 . S
H670 C664 0.930 . S
H671 C668 0.930 . S
C672 C674 1.348 . S
C672 C675 1.356 . S
C672 O702 1.325 . S
N673 C676 1.314 . S
N673 C677 1.279 . S
C674 C672 1.348 . S
C674 C676 1.353 . S
C674 H716 0.929 . S
C675 C672 1.356 . S
C675 C677 1.358 . S
C675 H717 0.930 . S
C676 N673 1.314 . S
C676 C674 1.353 . S
C676 H718 0.930 . S
C677 N673 1.279 . S
C677 C675 1.358 . S
C677 H719 0.930 . S
C678 C679 1.348 . S
C678 C680 1.356 . S
C678 O703 1.325 . S
C679 C678 1.348 . S
C679 C681 1.353 . S
C679 H720 0.929 . S
C680 C678 1.356 . S
C680 C682 1.358 . S
C680 H721 0.930 . S
C681 C679 1.353 . S
C681 N683 1.314 . S
C681 H722 0.930 . S
C682 C680 1.358 . S
C682 N683 1.279 . S
C682 H723 0.930 . S
N683 C681 1.314 . S
N683 C682 1.279 . S
C684 C686 1.353 . S
C684 N687 1.314 . S
C684 H690 0.930 . S
C685 N687 1.279 . S
C685 C688 1.358 . S
C685 H691 0.930 . S
C686 C684 1.353 . S
C686 C689 1.348 . S
C686 H724 0.929 . S
N687 Li642 1.990 . S
N687 C684 1.314 . S
N687 C685 1.279 . S
C688 C685 1.358 . S
C688 C689 1.356 . S
C688 H725 0.930 1_554 S
C689 C686 1.348 . S
C689 C688 1.356 . S
H690 C684 0.930 . S
H691 C685 0.930 . S
C692 N693 1.314 . S
C692 C694 1.353 . S
C692 H698 0.930 . S
N693 Li643 1.990 . S
N693 C692 1.314 . S
N693 C696 1.279 . S
C694 C692 1.353 . S
C694 C697 1.348 . S
C694 H726 0.929 . S
C695 C696 1.358 . S
C695 C697 1.356 . S
C695 H727 0.930 . S
C696 N693 1.279 . S
C696 C695 1.358 . S
C696 H699 0.930 . S
C697 C694 1.348 . S
C697 C695 1.356 . S
H698 C692 0.930 . S
H699 C696 0.930 . S
O700 Li640 1.956 . S
O700 Li641 1.970 . S
O700 Li642 1.961 . S
O700 C644 1.325 . S
O701 Li640 1.970 . S
O701 Li641 1.956 . S
O701 Li643 1.961 . S
O701 C650 1.325 . S
O702 Li640 1.961 . S
O702 Li642 1.956 . S
O702 Li643 1.970 . S
O702 C672 1.325 . S
O703 Li641 1.961 . S
O703 Li642 1.970 . S
O703 Li643 1.956 . S
O703 C678 1.325 . S
H704 C646 0.929 . S
H705 C647 0.930 . S
H706 C648 0.930 . S
H707 C649 0.930 . S
H708 C651 0.930 . S
H709 C653 0.929 . S
H710 C654 0.930 . S
H711 C655 0.930 . S
H712 C658 0.930 . S
H713 C661 0.929 . S
H714 C666 0.929 . S
H715 C667 0.930 . S
H716 C674 0.929 . S
H717 C675 0.930 . S
H718 C676 0.930 . S
H719 C677 0.930 . S
H720 C679 0.929 . S
H721 C680 0.930 . S
H722 C681 0.930 . S
H723 C682 0.930 . S
H724 C686 0.929 . S
H725 C688 0.930 1_556 S
H726 C694 0.929 . S
H727 C695 0.930 . S
Li728 N745 1.990 . S
Li728 O788 1.956 . S
Li728 O789 1.970 . S
Li728 O790 1.961 . S
Li729 N753 1.990 . S
Li729 O788 1.970 . S
Li729 O789 1.956 . S
Li729 O791 1.961 . S
Li730 N775 1.990 . S
Li730 O788 1.961 . S
Li730 O790 1.956 . S
Li730 O791 1.970 . S
Li731 N781 1.990 . S
Li731 O789 1.961 . S
Li731 O790 1.970 . S
Li731 O791 1.956 . S
C732 C734 1.348 . S
C732 C735 1.356 . S
C732 O788 1.325 . S
N733 C736 1.314 . S
N733 C737 1.279 . S
C734 C732 1.348 . S
C734 C736 1.353 . S
C734 H792 0.929 . S
C735 C732 1.356 . S
C735 C737 1.358 . S
C735 H793 0.930 . S
C736 N733 1.314 . S
C736 C734 1.353 . S
C736 H794 0.930 . S
C737 N733 1.279 . S
C737 C735 1.358 . S
C737 H795 0.930 . S
C738 C741 1.348 . S
C738 C742 1.356 . S
C738 O789 1.325 . S
C739 N740 1.279 . S
C739 C742 1.358 . S
C739 H796 0.930 . S
N740 C739 1.279 . S
N740 C743 1.314 . S
C741 C738 1.348 . S
C741 C743 1.353 . S
C741 H797 0.929 . S
C742 C738 1.356 . S
C742 C739 1.358 . S
C742 H798 0.930 . S
C743 N740 1.314 . S
C743 C741 1.353 . S
C743 H799 0.930 . S
C744 N745 1.314 . S
C744 C749 1.353 . S
C744 H750 0.930 . S
N745 Li728 1.990 . S
N745 C744 1.314 . S
N745 C747 1.279 . S
C746 C747 1.358 . S
C746 C748 1.356 . S
C746 H800 0.930 . S
C747 N745 1.279 . S
C747 C746 1.358 . S
C747 H751 0.930 . S
C748 C746 1.356 . S
C748 C749 1.348 . S
C749 C744 1.353 . S
C749 C748 1.348 . S
C749 H801 0.929 . S
H750 C744 0.930 . S
H751 C747 0.930 . S
C752 N753 1.314 . S
C752 C754 1.353 . S
C752 H758 0.930 . S
N753 Li729 1.990 . S
N753 C752 1.314 . S
N753 C756 1.279 . S
C754 C752 1.353 . S
C754 C757 1.348 . S
C754 H802 0.929 . S
C755 C756 1.358 . S
C755 C757 1.356 . S
C755 H803 0.930 . S
C756 N753 1.279 . S
C756 C755 1.358 . S
C756 H759 0.930 . S
C757 C754 1.348 . S
C757 C755 1.356 . S
H758 C752 0.930 . S
H759 C756 0.930 . S
C760 C762 1.348 . S
C760 C763 1.356 . S
C760 O790 1.325 . S
N761 C764 1.314 . S
N761 C765 1.279 . S
C762 C760 1.348 . S
C762 C764 1.353 . S
C762 H804 0.929 . S
C763 C760 1.356 . S
C763 C765 1.358 . S
C763 H805 0.930 . S
C764 N761 1.314 . S
C764 C762 1.353 . S
C764 H806 0.930 . S
C765 N761 1.279 . S
C765 C763 1.358 . S
C765 H807 0.930 . S
C766 C767 1.348 . S
C766 C768 1.356 . S
C766 O791 1.325 . S
C767 C766 1.348 . S
C767 C769 1.353 . S
C767 H808 0.929 . S
C768 C766 1.356 . S
C768 C770 1.358 . S
C768 H809 0.930 . S
C769 C767 1.353 . S
C769 N771 1.314 . S
C769 H810 0.930 . S
C770 C768 1.358 . S
C770 N771 1.279 . S
C770 H811 0.930 . S
N771 C769 1.314 . S
N771 C770 1.279 . S
C772 C774 1.353 . S
C772 N775 1.314 . S
C772 H778 0.930 . S
C773 N775 1.279 . S
C773 C776 1.358 . S
C773 H779 0.930 . S
C774 C772 1.353 . S
C774 C777 1.348 . S
C774 H812 0.929 . S
N775 Li730 1.990 . S
N775 C772 1.314 . S
N775 C773 1.279 . S
C776 C773 1.358 . S
C776 C777 1.356 . S
C776 H813 0.930 . S
C777 C774 1.348 . S
C777 C776 1.356 . S
H778 C772 0.930 . S
H779 C773 0.930 . S
C780 N781 1.314 . S
C780 C782 1.353 . S
C780 H786 0.930 . S
N781 Li731 1.990 . S
N781 C780 1.314 . S
N781 C784 1.279 . S
C782 C780 1.353 . S
C782 C785 1.348 . S
C782 H814 0.929 . S
C783 C784 1.358 . S
C783 C785 1.356 . S
C783 H815 0.930 . S
C784 N781 1.279 . S
C784 C783 1.358 . S
C784 H787 0.930 . S
C785 C782 1.348 . S
C785 C783 1.356 . S
H786 C780 0.930 . S
H787 C784 0.930 . S
O788 Li728 1.956 . S
O788 Li729 1.970 . S
O788 Li730 1.961 . S
O788 C732 1.325 . S
O789 Li728 1.970 . S
O789 Li729 1.956 . S
O789 Li731 1.961 . S
O789 C738 1.325 . S
O790 Li728 1.961 . S
O790 Li730 1.956 . S
O790 Li731 1.970 . S
O790 C760 1.325 . S
O791 Li729 1.961 . S
O791 Li730 1.970 . S
O791 Li731 1.956 . S
O791 C766 1.325 . S
H792 C734 0.929 . S
H793 C735 0.930 . S
H794 C736 0.930 . S
H795 C737 0.930 . S
H796 C739 0.930 . S
H797 C741 0.929 . S
H798 C742 0.930 . S
H799 C743 0.930 . S
H800 C746 0.930 . S
H801 C749 0.929 . S
H802 C754 0.929 . S
H803 C755 0.930 . S
H804 C762 0.929 . S
H805 C763 0.930 . S
H806 C764 0.930 . S
H807 C765 0.930 . S
H808 C767 0.929 . S
H809 C768 0.930 . S
H810 C769 0.930 . S
H811 C770 0.930 . S
H812 C774 0.929 . S
H813 C776 0.930 . S
H814 C782 0.929 . S
H815 C783 0.930 . S
C816 C817 1.391 . S
C816 C818 1.394 . S
C816 H832 0.931 . S
C817 C816 1.391 . S
C817 C821 1.376 . S
C818 C816 1.394 . S
C818 C819 1.369 . S
C818 C822 1.531 . S
C819 C818 1.369 . S
C819 C820 1.410 . S
C819 C827 1.503 . S
C820 C819 1.410 . S
C820 C821 1.392 . S
C820 C823 1.511 . S
C821 C817 1.376 . S
C821 C820 1.392 . S
C821 H833 0.929 . S
C822 C818 1.531 . S
C822 H834 0.960 . S
C822 H835 0.962 . S
C822 H836 0.960 . S
C823 C820 1.511 . S
C823 H837 0.961 . S
C823 H838 0.961 . S
C823 H839 0.961 . S
C824 C825 1.370 . S
C824 C826 1.363 . S
C824 H840 0.931 . S
C825 C824 1.370 . S
C825 C829 1.408 . S
C826 C824 1.363 . S
C826 C827 1.370 . S
C826 C830 1.524 . S
C827 C819 1.503 . S
C827 C826 1.370 . S
C827 C828 1.403 . S
C828 C827 1.403 . S
C828 C829 1.404 . S
C828 C831 1.539 . S
C829 C825 1.408 . S
C829 C828 1.404 . S
C829 H841 0.930 . S
C830 C826 1.524 . S
C830 H842 0.956 . S
C830 H843 0.961 . S
C830 H844 0.961 . S
C831 C828 1.539 . S
C831 H845 0.958 . S
C831 H846 0.961 . S
C831 H847 0.960 . S
H832 C816 0.931 . S
H833 C821 0.929 . S
H834 C822 0.960 . S
H835 C822 0.962 . S
H836 C822 0.960 . S
H837 C823 0.961 . S
H838 C823 0.961 . S
H839 C823 0.961 . S
H840 C824 0.931 . S
H841 C829 0.930 . S
H842 C830 0.956 . S
H843 C830 0.961 . S
H844 C830 0.961 . S
H845 C831 0.958 . S
H846 C831 0.961 . S
H847 C831 0.960 . S
C848 C849 1.391 . S
C848 C850 1.394 . S
C848 H864 0.931 . S
C849 C848 1.391 . S
C849 C853 1.376 . S
C850 C848 1.394 . S
C850 C851 1.369 . S
C850 C854 1.531 . S
C851 C850 1.369 . S
C851 C852 1.410 . S
C851 C859 1.503 . S
C852 C851 1.410 . S
C852 C853 1.392 . S
C852 C855 1.511 . S
C853 C849 1.376 . S
C853 C852 1.392 . S
C853 H865 0.929 . S
C854 C850 1.531 . S
C854 H866 0.960 . S
C854 H867 0.962 . S
C854 H868 0.960 . S
C855 C852 1.511 . S
C855 H869 0.961 . S
C855 H870 0.961 . S
C855 H871 0.961 . S
C856 C857 1.370 . S
C856 C858 1.363 . S
C856 H872 0.931 . S
C857 C856 1.370 . S
C857 C861 1.408 . S
C858 C856 1.363 . S
C858 C859 1.370 . S
C858 C862 1.524 . S
C859 C851 1.503 . S
C859 C858 1.370 . S
C859 C860 1.403 . S
C860 C859 1.403 . S
C860 C861 1.404 . S
C860 C863 1.539 . S
C861 C857 1.408 . S
C861 C860 1.404 . S
C861 H873 0.930 . S
C862 C858 1.524 . S
C862 H874 0.956 . S
C862 H875 0.961 . S
C862 H876 0.961 . S
C863 C860 1.539 . S
C863 H877 0.958 . S
C863 H878 0.961 . S
C863 H879 0.960 . S
H864 C848 0.931 . S
H865 C853 0.929 . S
H866 C854 0.960 . S
H867 C854 0.962 . S
H868 C854 0.960 . S
H869 C855 0.961 . S
H870 C855 0.961 . S
H871 C855 0.961 . S
H872 C856 0.931 . S
H873 C861 0.930 . S
H874 C862 0.956 . S
H875 C862 0.961 . S
H876 C862 0.961 . S
H877 C863 0.958 . S
H878 C863 0.961 . S
H879 C863 0.960 . S
C880 C881 1.391 . S
C880 C882 1.394 . S
C880 H896 0.931 . S
C881 C880 1.391 . S
C881 C885 1.376 . S
C882 C880 1.394 . S
C882 C883 1.369 . S
C882 C886 1.531 . S
C883 C882 1.369 . S
C883 C884 1.410 . S
C883 C891 1.503 . S
C884 C883 1.410 . S
C884 C885 1.392 . S
C884 C887 1.511 . S
C885 C881 1.376 . S
C885 C884 1.392 . S
C885 H897 0.929 . S
C886 C882 1.531 . S
C886 H898 0.960 . S
C886 H899 0.962 . S
C886 H900 0.960 . S
C887 C884 1.511 . S
C887 H901 0.961 . S
C887 H902 0.961 . S
C887 H903 0.961 . S
C888 C889 1.370 . S
C888 C890 1.363 . S
C888 H904 0.931 . S
C889 C888 1.370 . S
C889 C893 1.408 . S
C890 C888 1.363 . S
C890 C891 1.370 . S
C890 C894 1.524 . S
C891 C883 1.503 . S
C891 C890 1.370 . S
C891 C892 1.403 . S
C892 C891 1.403 . S
C892 C893 1.404 . S
C892 C895 1.539 . S
C893 C889 1.408 . S
C893 C892 1.404 . S
C893 H905 0.930 . S
C894 C890 1.524 . S
C894 H906 0.956 . S
C894 H907 0.961 . S
C894 H908 0.961 . S
C895 C892 1.539 . S
C895 H909 0.958 . S
C895 H910 0.961 . S
C895 H911 0.960 . S
H896 C880 0.931 . S
H897 C885 0.929 . S
H898 C886 0.960 . S
H899 C886 0.962 . S
H900 C886 0.960 . S
H901 C887 0.961 . S
H902 C887 0.961 . S
H903 C887 0.961 . S
H904 C888 0.931 . S
H905 C893 0.930 . S
H906 C894 0.956 . S
H907 C894 0.961 . S
H908 C894 0.961 . S
H909 C895 0.958 . S
H910 C895 0.961 . S
H911 C895 0.960 . S
C912 C913 1.391 . S
C912 C914 1.394 . S
C912 H928 0.931 . S
C913 C912 1.391 . S
C913 C917 1.376 . S
C914 C912 1.394 . S
C914 C915 1.369 . S
C914 C918 1.531 . S
C915 C914 1.369 . S
C915 C916 1.410 . S
C915 C923 1.503 . S
C916 C915 1.410 . S
C916 C917 1.392 . S
C916 C919 1.511 . S
C917 C913 1.376 . S
C917 C916 1.392 . S
C917 H929 0.929 . S
C918 C914 1.531 . S
C918 H930 0.960 . S
C918 H931 0.962 . S
C918 H932 0.960 . S
C919 C916 1.511 . S
C919 H933 0.961 . S
C919 H934 0.961 . S
C919 H935 0.961 . S
C920 C921 1.370 . S
C920 C922 1.363 . S
C920 H936 0.931 . S
C921 C920 1.370 . S
C921 C925 1.408 . S
C922 C920 1.363 . S
C922 C923 1.370 . S
C922 C926 1.524 . S
C923 C915 1.503 . S
C923 C922 1.370 . S
C923 C924 1.403 . S
C924 C923 1.403 . S
C924 C925 1.404 . S
C924 C927 1.539 . S
C925 C921 1.408 . S
C925 C924 1.404 . S
C925 H937 0.930 . S
C926 C922 1.524 . S
C926 H938 0.956 . S
C926 H939 0.961 . S
C926 H940 0.961 . S
C927 C924 1.539 . S
C927 H941 0.958 . S
C927 H942 0.961 . S
C927 H943 0.960 . S
H928 C912 0.931 . S
H929 C917 0.929 . S
H930 C918 0.960 . S
H931 C918 0.962 . S
H932 C918 0.960 . S
H933 C919 0.961 . S
H934 C919 0.961 . S
H935 C919 0.961 . S
H936 C920 0.931 . S
H937 C925 0.930 . S
H938 C926 0.956 . S
H939 C926 0.961 . S
H940 C926 0.961 . S
H941 C927 0.958 . S
H942 C927 0.961 . S
H943 C927 0.960 . S
C944 C945 1.391 . S
C944 C946 1.394 . S
C944 H960 0.931 . S
C945 C944 1.391 . S
C945 C949 1.376 . S
C946 C944 1.394 . S
C946 C947 1.369 . S
C946 C950 1.531 . S
C947 C946 1.369 . S
C947 C948 1.410 . S
C947 C955 1.503 . S
C948 C947 1.410 . S
C948 C949 1.392 . S
C948 C951 1.511 . S
C949 C945 1.376 . S
C949 C948 1.392 . S
C949 H961 0.929 . S
C950 C946 1.531 . S
C950 H962 0.960 . S
C950 H963 0.962 . S
C950 H964 0.960 . S
C951 C948 1.511 . S
C951 H965 0.961 . S
C951 H966 0.961 . S
C951 H967 0.961 . S
C952 C953 1.370 . S
C952 C954 1.363 . S
C952 H968 0.931 . S
C953 C952 1.370 . S
C953 C957 1.408 . S
C954 C952 1.363 . S
C954 C955 1.370 . S
C954 C958 1.524 . S
C955 C947 1.503 . S
C955 C954 1.370 . S
C955 C956 1.403 . S
C956 C955 1.403 . S
C956 C957 1.404 . S
C956 C959 1.539 . S
C957 C953 1.408 . S
C957 C956 1.404 . S
C957 H969 0.930 . S
C958 C954 1.524 . S
C958 H970 0.956 . S
C958 H971 0.961 . S
C958 H972 0.961 . S
C959 C956 1.539 . S
C959 H973 0.958 . S
C959 H974 0.961 . S
C959 H975 0.960 . S
H960 C944 0.931 . S
H961 C949 0.929 . S
H962 C950 0.960 . S
H963 C950 0.962 . S
H964 C950 0.960 . S
H965 C951 0.961 . S
H966 C951 0.961 . S
H967 C951 0.961 . S
H968 C952 0.931 . S
H969 C957 0.930 . S
H970 C958 0.956 . S
H971 C958 0.961 . S
H972 C958 0.961 . S
H973 C959 0.958 . S
H974 C959 0.961 . S
H975 C959 0.960 . S
C976 C977 1.391 . S
C976 C978 1.394 . S
C976 H992 0.931 . S
C977 C976 1.391 . S
C977 C981 1.376 . S
C978 C976 1.394 . S
C978 C979 1.369 . S
C978 C982 1.531 . S
C979 C978 1.369 . S
C979 C980 1.410 . S
C979 C987 1.503 . S
C980 C979 1.410 . S
C980 C981 1.392 . S
C980 C983 1.511 . S
C981 C977 1.376 . S
C981 C980 1.392 . S
C981 H993 0.929 . S
C982 C978 1.531 . S
C982 H994 0.960 . S
C982 H995 0.962 . S
C982 H996 0.960 . S
C983 C980 1.511 . S
C983 H997 0.961 . S
C983 H998 0.961 . S
C983 H999 0.961 . S
C984 C985 1.370 . S
C984 C986 1.363 . S
C984 H1000 0.931 . S
C985 C984 1.370 . S
C985 C989 1.408 . S
C986 C984 1.363 . S
C986 C987 1.370 . S
C986 C990 1.524 . S
C987 C979 1.503 . S
C987 C986 1.370 . S
C987 C988 1.403 . S
C988 C987 1.403 . S
C988 C989 1.404 . S
C988 C991 1.539 . S
C989 C985 1.408 . S
C989 C988 1.404 . S
C989 H1001 0.930 . S
C990 C986 1.524 . S
C990 H1002 0.956 . S
C990 H1003 0.961 . S
C990 H1004 0.961 . S
C991 C988 1.539 . S
C991 H1005 0.958 . S
C991 H1006 0.961 . S
C991 H1007 0.960 . S
H992 C976 0.931 . S
H993 C981 0.929 . S
H994 C982 0.960 . S
H995 C982 0.962 . S
H996 C982 0.960 . S
H997 C983 0.961 . S
H998 C983 0.961 . S
H999 C983 0.961 . S
H1000 C984 0.931 . S
H1001 C989 0.930 . S
H1002 C990 0.956 . S
H1003 C990 0.961 . S
H1004 C990 0.961 . S
H1005 C991 0.958 . S
H1006 C991 0.961 . S
H1007 C991 0.960 . S
C1008 C1009 1.391 . S
C1008 C1010 1.394 . S
C1008 H1024 0.931 . S
C1009 C1008 1.391 . S
C1009 C1013 1.376 . S
C1010 C1008 1.394 . S
C1010 C1011 1.369 . S
C1010 C1014 1.531 . S
C1011 C1010 1.369 . S
C1011 C1012 1.410 . S
C1011 C1019 1.503 . S
C1012 C1011 1.410 . S
C1012 C1013 1.392 . S
C1012 C1015 1.511 . S
C1013 C1009 1.376 . S
C1013 C1012 1.392 . S
C1013 H1025 0.929 . S
C1014 C1010 1.531 . S
C1014 H1026 0.960 . S
C1014 H1027 0.962 . S
C1014 H1028 0.960 . S
C1015 C1012 1.511 . S
C1015 H1029 0.961 . S
C1015 H1030 0.961 . S
C1015 H1031 0.961 . S
C1016 C1017 1.370 . S
C1016 C1018 1.363 . S
C1016 H1032 0.931 . S
C1017 C1016 1.370 . S
C1017 C1021 1.408 . S
C1018 C1016 1.363 . S
C1018 C1019 1.370 . S
C1018 C1022 1.524 . S
C1019 C1011 1.503 . S
C1019 C1018 1.370 . S
C1019 C1020 1.403 . S
C1020 C1019 1.403 . S
C1020 C1021 1.404 . S
C1020 C1023 1.539 . S
C1021 C1017 1.408 . S
C1021 C1020 1.404 . S
C1021 H1033 0.930 . S
C1022 C1018 1.524 . S
C1022 H1034 0.956 . S
C1022 H1035 0.961 . S
C1022 H1036 0.961 . S
C1023 C1020 1.539 . S
C1023 H1037 0.958 . S
C1023 H1038 0.961 . S
C1023 H1039 0.960 . S
H1024 C1008 0.931 . S
H1025 C1013 0.929 . S
H1026 C1014 0.960 . S
H1027 C1014 0.962 . S
H1028 C1014 0.960 . S
H1029 C1015 0.961 . S
H1030 C1015 0.961 . S
H1031 C1015 0.961 . S
H1032 C1016 0.931 . S
H1033 C1021 0.930 . S
H1034 C1022 0.956 . S
H1035 C1022 0.961 . S
H1036 C1022 0.961 . S
H1037 C1023 0.958 . S
H1038 C1023 0.961 . S
H1039 C1023 0.960 . S
C1040 C1041 1.391 . S
C1040 C1042 1.394 . S
C1040 H1056 0.931 . S
C1041 C1040 1.391 . S
C1041 C1045 1.376 . S
C1042 C1040 1.394 . S
C1042 C1043 1.369 . S
C1042 C1046 1.531 . S
C1043 C1042 1.369 . S
C1043 C1044 1.410 . S
C1043 C1051 1.503 . S
C1044 C1043 1.410 . S
C1044 C1045 1.392 . S
C1044 C1047 1.511 . S
C1045 C1041 1.376 . S
C1045 C1044 1.392 . S
C1045 H1057 0.929 . S
C1046 C1042 1.531 . S
C1046 H1058 0.960 . S
C1046 H1059 0.962 . S
C1046 H1060 0.960 . S
C1047 C1044 1.511 . S
C1047 H1061 0.961 . S
C1047 H1062 0.961 . S
C1047 H1063 0.961 . S
C1048 C1049 1.370 . S
C1048 C1050 1.363 . S
C1048 H1064 0.931 . S
C1049 C1048 1.370 . S
C1049 C1053 1.408 . S
C1050 C1048 1.363 . S
C1050 C1051 1.370 . S
C1050 C1054 1.524 . S
C1051 C1043 1.503 . S
C1051 C1050 1.370 . S
C1051 C1052 1.403 . S
C1052 C1051 1.403 . S
C1052 C1053 1.404 . S
C1052 C1055 1.539 . S
C1053 C1049 1.408 . S
C1053 C1052 1.404 . S
C1053 H1065 0.930 . S
C1054 C1050 1.524 . S
C1054 H1066 0.956 . S
C1054 H1067 0.961 . S
C1054 H1068 0.961 . S
C1055 C1052 1.539 . S
C1055 H1069 0.958 . S
C1055 H1070 0.961 . S
C1055 H1071 0.960 . S
H1056 C1040 0.931 . S
H1057 C1045 0.929 . S
H1058 C1046 0.960 . S
H1059 C1046 0.962 . S
H1060 C1046 0.960 . S
H1061 C1047 0.961 . S
H1062 C1047 0.961 . S
H1063 C1047 0.961 . S
H1064 C1048 0.931 . S
H1065 C1053 0.930 . S
H1066 C1054 0.956 . S
H1067 C1054 0.961 . S
H1068 C1054 0.961 . S
H1069 C1055 0.958 . S
H1070 C1055 0.961 . S
H1071 C1055 0.960 . S
C1072 C1073 1.391 . S
C1072 C1074 1.394 . S
C1072 H1088 0.931 . S
C1073 C1072 1.391 . S
C1073 C1077 1.376 . S
C1074 C1072 1.394 . S
C1074 C1075 1.369 . S
C1074 C1078 1.531 . S
C1075 C1074 1.369 . S
C1075 C1076 1.410 . S
C1075 C1083 1.503 . S
C1076 C1075 1.410 . S
C1076 C1077 1.392 . S
C1076 C1079 1.511 . S
C1077 C1073 1.376 . S
C1077 C1076 1.392 . S
C1077 H1089 0.929 . S
C1078 C1074 1.531 . S
C1078 H1090 0.960 . S
C1078 H1091 0.962 . S
C1078 H1092 0.960 . S
C1079 C1076 1.511 . S
C1079 H1093 0.961 . S
C1079 H1094 0.961 . S
C1079 H1095 0.961 . S
C1080 C1081 1.370 . S
C1080 C1082 1.363 . S
C1080 H1096 0.931 . S
C1081 C1080 1.370 . S
C1081 C1085 1.408 . S
C1082 C1080 1.363 . S
C1082 C1083 1.370 . S
C1082 C1086 1.524 . S
C1083 C1075 1.503 . S
C1083 C1082 1.370 . S
C1083 C1084 1.403 . S
C1084 C1083 1.403 . S
C1084 C1085 1.404 . S
C1084 C1087 1.539 . S
C1085 C1081 1.408 . S
C1085 C1084 1.404 . S
C1085 H1097 0.930 . S
C1086 C1082 1.524 . S
C1086 H1098 0.956 . S
C1086 H1099 0.961 . S
C1086 H1100 0.961 . S
C1087 C1084 1.539 . S
C1087 H1101 0.958 . S
C1087 H1102 0.961 . S
C1087 H1103 0.960 . S
H1088 C1072 0.931 . S
H1089 C1077 0.929 . S
H1090 C1078 0.960 . S
H1091 C1078 0.962 . S
H1092 C1078 0.960 . S
H1093 C1079 0.961 . S
H1094 C1079 0.961 . S
H1095 C1079 0.961 . S
H1096 C1080 0.931 . S
H1097 C1085 0.930 . S
H1098 C1086 0.956 . S
H1099 C1086 0.961 . S
H1100 C1086 0.961 . S
H1101 C1087 0.958 . S
H1102 C1087 0.961 . S
H1103 C1087 0.960 . S
C1104 C1105 1.391 . S
C1104 C1106 1.394 . S
C1104 H1120 0.931 . S
C1105 C1104 1.391 . S
C1105 C1109 1.376 . S
C1106 C1104 1.394 . S
C1106 C1107 1.369 . S
C1106 C1110 1.531 . S
C1107 C1106 1.369 . S
C1107 C1108 1.410 . S
C1107 C1115 1.503 . S
C1108 C1107 1.410 . S
C1108 C1109 1.392 . S
C1108 C1111 1.511 . S
C1109 C1105 1.376 . S
C1109 C1108 1.392 . S
C1109 H1121 0.929 . S
C1110 C1106 1.531 . S
C1110 H1122 0.960 . S
C1110 H1123 0.962 . S
C1110 H1124 0.960 . S
C1111 C1108 1.511 . S
C1111 H1125 0.961 . S
C1111 H1126 0.961 . S
C1111 H1127 0.961 . S
C1112 C1113 1.370 . S
C1112 C1114 1.363 . S
C1112 H1128 0.931 . S
C1113 C1112 1.370 . S
C1113 C1117 1.408 . S
C1114 C1112 1.363 . S
C1114 C1115 1.370 . S
C1114 C1118 1.524 . S
C1115 C1107 1.503 . S
C1115 C1114 1.370 . S
C1115 C1116 1.403 . S
C1116 C1115 1.403 . S
C1116 C1117 1.404 . S
C1116 C1119 1.539 . S
C1117 C1113 1.408 . S
C1117 C1116 1.404 . S
C1117 H1129 0.930 . S
C1118 C1114 1.524 . S
C1118 H1130 0.956 . S
C1118 H1131 0.961 . S
C1118 H1132 0.961 . S
C1119 C1116 1.539 . S
C1119 H1133 0.958 . S
C1119 H1134 0.961 . S
C1119 H1135 0.960 . S
H1120 C1104 0.931 . S
H1121 C1109 0.929 . S
H1122 C1110 0.960 . S
H1123 C1110 0.962 . S
H1124 C1110 0.960 . S
H1125 C1111 0.961 . S
H1126 C1111 0.961 . S
H1127 C1111 0.961 . S
H1128 C1112 0.931 . S
H1129 C1117 0.930 . S
H1130 C1118 0.956 . S
H1131 C1118 0.961 . S
H1132 C1118 0.961 . S
H1133 C1119 0.958 . S
H1134 C1119 0.961 . S
H1135 C1119 0.960 . S
C1136 C1137 1.391 . S
C1136 C1138 1.394 . S
C1136 H1152 0.931 . S
C1137 C1136 1.391 . S
C1137 C1141 1.376 . S
C1138 C1136 1.394 . S
C1138 C1139 1.369 . S
C1138 C1142 1.531 . S
C1139 C1138 1.369 . S
C1139 C1140 1.410 . S
C1139 C1147 1.503 . S
C1140 C1139 1.410 . S
C1140 C1141 1.392 . S
C1140 C1143 1.511 . S
C1141 C1137 1.376 . S
C1141 C1140 1.392 . S
C1141 H1153 0.929 . S
C1142 C1138 1.531 . S
C1142 H1154 0.960 . S
C1142 H1155 0.962 . S
C1142 H1156 0.960 . S
C1143 C1140 1.511 . S
C1143 H1157 0.961 . S
C1143 H1158 0.961 . S
C1143 H1159 0.961 . S
C1144 C1145 1.370 . S
C1144 C1146 1.363 . S
C1144 H1160 0.931 . S
C1145 C1144 1.370 . S
C1145 C1149 1.408 . S
C1146 C1144 1.363 . S
C1146 C1147 1.370 . S
C1146 C1150 1.524 . S
C1147 C1139 1.503 . S
C1147 C1146 1.370 . S
C1147 C1148 1.403 . S
C1148 C1147 1.403 . S
C1148 C1149 1.404 . S
C1148 C1151 1.539 . S
C1149 C1145 1.408 . S
C1149 C1148 1.404 . S
C1149 H1161 0.930 . S
C1150 C1146 1.524 . S
C1150 H1162 0.956 . S
C1150 H1163 0.961 . S
C1150 H1164 0.961 . S
C1151 C1148 1.539 . S
C1151 H1165 0.958 . S
C1151 H1166 0.961 . S
C1151 H1167 0.960 . S
H1152 C1136 0.931 . S
H1153 C1141 0.929 . S
H1154 C1142 0.960 . S
H1155 C1142 0.962 . S
H1156 C1142 0.960 . S
H1157 C1143 0.961 . S
H1158 C1143 0.961 . S
H1159 C1143 0.961 . S
H1160 C1144 0.931 . S
H1161 C1149 0.930 . S
H1162 C1150 0.956 . S
H1163 C1150 0.961 . S
H1164 C1150 0.961 . S
H1165 C1151 0.958 . S
H1166 C1151 0.961 . S
H1167 C1151 0.960 . S
C1168 C1169 1.391 . S
C1168 C1170 1.394 . S
C1168 H1184 0.931 . S
C1169 C1168 1.391 . S
C1169 C1173 1.376 . S
C1170 C1168 1.394 . S
C1170 C1171 1.369 . S
C1170 C1174 1.531 . S
C1171 C1170 1.369 . S
C1171 C1172 1.410 . S
C1171 C1179 1.503 . S
C1172 C1171 1.410 . S
C1172 C1173 1.392 . S
C1172 C1175 1.511 . S
C1173 C1169 1.376 . S
C1173 C1172 1.392 . S
C1173 H1185 0.929 . S
C1174 C1170 1.531 . S
C1174 H1186 0.960 . S
C1174 H1187 0.962 . S
C1174 H1188 0.960 . S
C1175 C1172 1.511 . S
C1175 H1189 0.961 . S
C1175 H1190 0.961 . S
C1175 H1191 0.961 . S
C1176 C1177 1.370 . S
C1176 C1178 1.363 . S
C1176 H1192 0.931 . S
C1177 C1176 1.370 . S
C1177 C1181 1.408 . S
C1178 C1176 1.363 . S
C1178 C1179 1.370 . S
C1178 C1182 1.524 . S
C1179 C1171 1.503 . S
C1179 C1178 1.370 . S
C1179 C1180 1.403 . S
C1180 C1179 1.403 . S
C1180 C1181 1.404 . S
C1180 C1183 1.539 . S
C1181 C1177 1.408 . S
C1181 C1180 1.404 . S
C1181 H1193 0.930 . S
C1182 C1178 1.524 . S
C1182 H1194 0.956 . S
C1182 H1195 0.961 . S
C1182 H1196 0.961 . S
C1183 C1180 1.539 . S
C1183 H1197 0.958 . S
C1183 H1198 0.961 . S
C1183 H1199 0.960 . S
H1184 C1168 0.931 . S
H1185 C1173 0.929 . S
H1186 C1174 0.960 . S
H1187 C1174 0.962 . S
H1188 C1174 0.960 . S
H1189 C1175 0.961 . S
H1190 C1175 0.961 . S
H1191 C1175 0.961 . S
H1192 C1176 0.931 . S
H1193 C1181 0.930 . S
H1194 C1182 0.956 . S
H1195 C1182 0.961 . S
H1196 C1182 0.961 . S
H1197 C1183 0.958 . S
H1198 C1183 0.961 . S
H1199 C1183 0.960 . S
C1200 C1201 1.391 . S
C1200 C1202 1.394 . S
C1200 H1216 0.931 . S
C1201 C1200 1.391 . S
C1201 C1205 1.376 . S
C1202 C1200 1.394 . S
C1202 C1203 1.369 . S
C1202 C1206 1.531 . S
C1203 C1202 1.369 . S
C1203 C1204 1.410 . S
C1203 C1211 1.503 . S
C1204 C1203 1.410 . S
C1204 C1205 1.392 . S
C1204 C1207 1.511 . S
C1205 C1201 1.376 . S
C1205 C1204 1.392 . S
C1205 H1217 0.929 . S
C1206 C1202 1.531 . S
C1206 H1218 0.960 . S
C1206 H1219 0.962 . S
C1206 H1220 0.960 . S
C1207 C1204 1.511 . S
C1207 H1221 0.961 . S
C1207 H1222 0.961 . S
C1207 H1223 0.961 . S
C1208 C1209 1.370 . S
C1208 C1210 1.363 . S
C1208 H1224 0.931 . S
C1209 C1208 1.370 . S
C1209 C1213 1.408 . S
C1210 C1208 1.363 . S
C1210 C1211 1.370 . S
C1210 C1214 1.524 . S
C1211 C1203 1.503 . S
C1211 C1210 1.370 . S
C1211 C1212 1.403 . S
C1212 C1211 1.403 . S
C1212 C1213 1.404 . S
C1212 C1215 1.539 . S
C1213 C1209 1.408 . S
C1213 C1212 1.404 . S
C1213 H1225 0.930 . S
C1214 C1210 1.524 . S
C1214 H1226 0.956 . S
C1214 H1227 0.961 . S
C1214 H1228 0.961 . S
C1215 C1212 1.539 . S
C1215 H1229 0.958 . S
C1215 H1230 0.961 . S
C1215 H1231 0.960 . S
H1216 C1200 0.931 . S
H1217 C1205 0.929 . S
H1218 C1206 0.960 . S
H1219 C1206 0.962 . S
H1220 C1206 0.960 . S
H1221 C1207 0.961 . S
H1222 C1207 0.961 . S
H1223 C1207 0.961 . S
H1224 C1208 0.931 . S
H1225 C1213 0.930 . S
H1226 C1214 0.956 . S
H1227 C1214 0.961 . S
H1228 C1214 0.961 . S
H1229 C1215 0.958 . S
H1230 C1215 0.961 . S
H1231 C1215 0.960 . S
C1232 C1233 1.391 . S
C1232 C1234 1.394 . S
C1232 H1248 0.931 . S
C1233 C1232 1.391 . S
C1233 C1237 1.376 . S
C1234 C1232 1.394 . S
C1234 C1235 1.369 . S
C1234 C1238 1.531 . S
C1235 C1234 1.369 . S
C1235 C1236 1.410 . S
C1235 C1243 1.503 . S
C1236 C1235 1.410 . S
C1236 C1237 1.392 . S
C1236 C1239 1.511 . S
C1237 C1233 1.376 . S
C1237 C1236 1.392 . S
C1237 H1249 0.929 . S
C1238 C1234 1.531 . S
C1238 H1250 0.960 . S
C1238 H1251 0.962 . S
C1238 H1252 0.960 . S
C1239 C1236 1.511 . S
C1239 H1253 0.961 . S
C1239 H1254 0.961 . S
C1239 H1255 0.961 . S
C1240 C1241 1.370 . S
C1240 C1242 1.363 . S
C1240 H1256 0.931 . S
C1241 C1240 1.370 . S
C1241 C1245 1.408 . S
C1242 C1240 1.363 . S
C1242 C1243 1.370 . S
C1242 C1246 1.524 . S
C1243 C1235 1.503 . S
C1243 C1242 1.370 . S
C1243 C1244 1.403 . S
C1244 C1243 1.403 . S
C1244 C1245 1.404 . S
C1244 C1247 1.539 . S
C1245 C1241 1.408 . S
C1245 C1244 1.404 . S
C1245 H1257 0.930 . S
C1246 C1242 1.524 . S
C1246 H1258 0.956 . S
C1246 H1259 0.961 . S
C1246 H1260 0.961 . S
C1247 C1244 1.539 . S
C1247 H1261 0.958 . S
C1247 H1262 0.961 . S
C1247 H1263 0.960 . S
H1248 C1232 0.931 . S
H1249 C1237 0.929 . S
H1250 C1238 0.960 . S
H1251 C1238 0.962 . S
H1252 C1238 0.960 . S
H1253 C1239 0.961 . S
H1254 C1239 0.961 . S
H1255 C1239 0.961 . S
H1256 C1240 0.931 . S
H1257 C1245 0.930 . S
H1258 C1246 0.956 . S
H1259 C1246 0.961 . S
H1260 C1246 0.961 . S
H1261 C1247 0.958 . S
H1262 C1247 0.961 . S
H1263 C1247 0.960 . S
C1264 C1265 1.391 . S
C1264 C1266 1.394 . S
C1264 H1280 0.931 . S
C1265 C1264 1.391 . S
C1265 C1269 1.376 . S
C1266 C1264 1.394 . S
C1266 C1267 1.369 . S
C1266 C1270 1.531 . S
C1267 C1266 1.369 . S
C1267 C1268 1.410 . S
C1267 C1275 1.503 . S
C1268 C1267 1.410 . S
C1268 C1269 1.392 . S
C1268 C1271 1.511 . S
C1269 C1265 1.376 . S
C1269 C1268 1.392 . S
C1269 H1281 0.929 . S
C1270 C1266 1.531 . S
C1270 H1282 0.960 . S
C1270 H1283 0.962 . S
C1270 H1284 0.960 . S
C1271 C1268 1.511 . S
C1271 H1285 0.961 . S
C1271 H1286 0.961 . S
C1271 H1287 0.961 . S
C1272 C1273 1.370 . S
C1272 C1274 1.363 . S
C1272 H1288 0.931 . S
C1273 C1272 1.370 . S
C1273 C1277 1.408 . S
C1274 C1272 1.363 . S
C1274 C1275 1.370 . S
C1274 C1278 1.524 . S
C1275 C1267 1.503 . S
C1275 C1274 1.370 . S
C1275 C1276 1.403 . S
C1276 C1275 1.403 . S
C1276 C1277 1.404 . S
C1276 C1279 1.539 . S
C1277 C1273 1.408 . S
C1277 C1276 1.404 . S
C1277 H1289 0.930 . S
C1278 C1274 1.524 . S
C1278 H1290 0.956 . S
C1278 H1291 0.961 . S
C1278 H1292 0.961 . S
C1279 C1276 1.539 . S
C1279 H1293 0.958 . S
C1279 H1294 0.961 . S
C1279 H1295 0.960 . S
H1280 C1264 0.931 . S
H1281 C1269 0.929 . S
H1282 C1270 0.960 . S
H1283 C1270 0.962 . S
H1284 C1270 0.960 . S
H1285 C1271 0.961 . S
H1286 C1271 0.961 . S
H1287 C1271 0.961 . S
H1288 C1272 0.931 . S
H1289 C1277 0.930 . S
H1290 C1278 0.956 . S
H1291 C1278 0.961 . S
H1292 C1278 0.961 . S
H1293 C1279 0.958 . S
H1294 C1279 0.961 . S
H1295 C1279 0.960 . S
C1296 C1297 1.391 . S
C1296 C1298 1.394 . S
C1296 H1312 0.931 . S
C1297 C1296 1.391 . S
C1297 C1301 1.376 . S
C1298 C1296 1.394 . S
C1298 C1299 1.369 . S
C1298 C1302 1.531 . S
C1299 C1298 1.369 . S
C1299 C1300 1.410 . S
C1299 C1307 1.503 . S
C1300 C1299 1.410 . S
C1300 C1301 1.392 . S
C1300 C1303 1.511 . S
C1301 C1297 1.376 . S
C1301 C1300 1.392 . S
C1301 H1313 0.929 . S
C1302 C1298 1.531 . S
C1302 H1314 0.960 . S
C1302 H1315 0.962 . S
C1302 H1316 0.960 . S
C1303 C1300 1.511 . S
C1303 H1317 0.961 . S
C1303 H1318 0.961 . S
C1303 H1319 0.961 . S
C1304 C1305 1.370 . S
C1304 C1306 1.363 . S
C1304 H1320 0.931 1_556 S
C1305 C1304 1.370 . S
C1305 C1309 1.408 . S
C1306 C1304 1.363 . S
C1306 C1307 1.370 . S
C1306 C1310 1.524 . S
C1307 C1299 1.503 . S
C1307 C1306 1.370 . S
C1307 C1308 1.403 . S
C1308 C1307 1.403 . S
C1308 C1309 1.404 . S
C1308 C1311 1.539 . S
C1309 C1305 1.408 . S
C1309 C1308 1.404 . S
C1309 H1321 0.930 . S
C1310 C1306 1.524 . S
C1310 H1322 0.956 . S
C1310 H1323 0.961 . S
C1310 H1324 0.961 . S
C1311 C1308 1.539 . S
C1311 H1325 0.958 . S
C1311 H1326 0.961 . S
C1311 H1327 0.960 . S
H1312 C1296 0.931 . S
H1313 C1301 0.929 . S
H1314 C1302 0.960 . S
H1315 C1302 0.962 . S
H1316 C1302 0.960 . S
H1317 C1303 0.961 . S
H1318 C1303 0.961 . S
H1319 C1303 0.961 . S
H1320 C1304 0.931 1_554 S
H1321 C1309 0.930 . S
H1322 C1310 0.956 . S
H1323 C1310 0.961 . S
H1324 C1310 0.961 . S
H1325 C1311 0.958 . S
H1326 C1311 0.961 . S
H1327 C1311 0.960 . S
C1328 C1329 1.391 . S
C1328 C1330 1.394 . S
C1328 H1344 0.931 . S
C1329 C1328 1.391 . S
C1329 C1333 1.376 . S
C1330 C1328 1.394 . S
C1330 C1331 1.369 . S
C1330 C1334 1.531 . S
C1331 C1330 1.369 . S
C1331 C1332 1.410 . S
C1331 C1339 1.503 . S
C1332 C1331 1.410 . S
C1332 C1333 1.392 . S
C1332 C1335 1.511 . S
C1333 C1329 1.376 . S
C1333 C1332 1.392 . S
C1333 H1345 0.929 . S
C1334 C1330 1.531 . S
C1334 H1346 0.960 . S
C1334 H1347 0.962 . S
C1334 H1348 0.960 . S
C1335 C1332 1.511 . S
C1335 H1349 0.961 . S
C1335 H1350 0.961 . S
C1335 H1351 0.961 . S
C1336 C1337 1.370 . S
C1336 C1338 1.363 . S
C1336 H1352 0.931 . S
C1337 C1336 1.370 . S
C1337 C1341 1.408 . S
C1338 C1336 1.363 . S
C1338 C1339 1.370 . S
C1338 C1342 1.524 . S
C1339 C1331 1.503 . S
C1339 C1338 1.370 . S
C1339 C1340 1.403 . S
C1340 C1339 1.403 . S
C1340 C1341 1.404 . S
C1340 C1343 1.539 . S
C1341 C1337 1.408 . S
C1341 C1340 1.404 . S
C1341 H1353 0.930 . S
C1342 C1338 1.524 . S
C1342 H1354 0.956 . S
C1342 H1355 0.961 . S
C1342 H1356 0.961 . S
C1343 C1340 1.539 . S
C1343 H1357 0.958 . S
C1343 H1358 0.961 . S
C1343 H1359 0.960 . S
H1344 C1328 0.931 . S
H1345 C1333 0.929 . S
H1346 C1334 0.960 . S
H1347 C1334 0.962 . S
H1348 C1334 0.960 . S
H1349 C1335 0.961 . S
H1350 C1335 0.961 . S
H1351 C1335 0.961 . S
H1352 C1336 0.931 . S
H1353 C1341 0.930 . S
H1354 C1342 0.956 . S
H1355 C1342 0.961 . S
H1356 C1342 0.961 . S
H1357 C1343 0.958 . S
H1358 C1343 0.961 . S
H1359 C1343 0.960 . S
C1360 C1361 1.391 . S
C1360 C1362 1.394 . S
C1360 H1376 0.931 . S
C1361 C1360 1.391 . S
C1361 C1365 1.376 . S
C1362 C1360 1.394 . S
C1362 C1363 1.369 . S
C1362 C1366 1.531 . S
C1363 C1362 1.369 . S
C1363 C1364 1.410 . S
C1363 C1371 1.503 . S
C1364 C1363 1.410 . S
C1364 C1365 1.392 . S
C1364 C1367 1.511 . S
C1365 C1361 1.376 . S
C1365 C1364 1.392 . S
C1365 H1377 0.929 . S
C1366 C1362 1.531 . S
C1366 H1378 0.960 . S
C1366 H1379 0.962 . S
C1366 H1380 0.960 . S
C1367 C1364 1.511 . S
C1367 H1381 0.961 . S
C1367 H1382 0.961 . S
C1367 H1383 0.961 . S
C1368 C1369 1.370 . S
C1368 C1370 1.363 . S
C1368 H1384 0.931 . S
C1369 C1368 1.370 . S
C1369 C1373 1.408 . S
C1370 C1368 1.363 . S
C1370 C1371 1.370 . S
C1370 C1374 1.524 . S
C1371 C1363 1.503 . S
C1371 C1370 1.370 . S
C1371 C1372 1.403 . S
C1372 C1371 1.403 . S
C1372 C1373 1.404 . S
C1372 C1375 1.539 . S
C1373 C1369 1.408 . S
C1373 C1372 1.404 . S
C1373 H1385 0.930 . S
C1374 C1370 1.524 . S
C1374 H1386 0.956 . S
C1374 H1387 0.961 . S
C1374 H1388 0.961 . S
C1375 C1372 1.539 . S
C1375 H1389 0.958 . S
C1375 H1390 0.961 . S
C1375 H1391 0.960 . S
H1376 C1360 0.931 . S
H1377 C1365 0.929 . S
H1378 C1366 0.960 . S
H1379 C1366 0.962 . S
H1380 C1366 0.960 . S
H1381 C1367 0.961 . S
H1382 C1367 0.961 . S
H1383 C1367 0.961 . S
H1384 C1368 0.931 . S
H1385 C1373 0.930 . S
H1386 C1374 0.956 . S
H1387 C1374 0.961 . S
H1388 C1374 0.961 . S
H1389 C1375 0.958 . S
H1390 C1375 0.961 . S
H1391 C1375 0.960 . S
C1392 C1393 1.391 . S
C1392 C1394 1.394 . S
C1392 H1408 0.931 . S
C1393 C1392 1.391 . S
C1393 C1397 1.376 . S
C1394 C1392 1.394 . S
C1394 C1395 1.369 . S
C1394 C1398 1.531 . S
C1395 C1394 1.369 . S
C1395 C1396 1.410 . S
C1395 C1403 1.503 . S
C1396 C1395 1.410 . S
C1396 C1397 1.392 . S
C1396 C1399 1.511 . S
C1397 C1393 1.376 . S
C1397 C1396 1.392 . S
C1397 H1409 0.929 . S
C1398 C1394 1.531 . S
C1398 H1410 0.960 . S
C1398 H1411 0.962 . S
C1398 H1412 0.960 . S
C1399 C1396 1.511 . S
C1399 H1413 0.961 . S
C1399 H1414 0.961 . S
C1399 H1415 0.961 . S
C1400 C1401 1.370 . S
C1400 C1402 1.363 . S
C1400 H1416 0.931 . S
C1401 C1400 1.370 . S
C1401 C1405 1.408 . S
C1402 C1400 1.363 . S
C1402 C1403 1.370 . S
C1402 C1406 1.524 . S
C1403 C1395 1.503 . S
C1403 C1402 1.370 . S
C1403 C1404 1.403 . S
C1404 C1403 1.403 . S
C1404 C1405 1.404 . S
C1404 C1407 1.539 . S
C1405 C1401 1.408 . S
C1405 C1404 1.404 . S
C1405 H1417 0.930 . S
C1406 C1402 1.524 . S
C1406 H1418 0.956 . S
C1406 H1419 0.961 . S
C1406 H1420 0.961 . S
C1407 C1404 1.539 . S
C1407 H1421 0.958 . S
C1407 H1422 0.961 . S
C1407 H1423 0.960 . S
H1408 C1392 0.931 . S
H1409 C1397 0.929 . S
H1410 C1398 0.960 . S
H1411 C1398 0.962 . S
H1412 C1398 0.960 . S
H1413 C1399 0.961 . S
H1414 C1399 0.961 . S
H1415 C1399 0.961 . S
H1416 C1400 0.931 . S
H1417 C1405 0.930 . S
H1418 C1406 0.956 . S
H1419 C1406 0.961 . S
H1420 C1406 0.961 . S
H1421 C1407 0.958 . S
H1422 C1407 0.961 . S
H1423 C1407 0.960 . S
C1424 C1425 1.391 . S
C1424 C1426 1.394 . S
C1424 H1440 0.931 . S
C1425 C1424 1.391 . S
C1425 C1429 1.376 . S
C1426 C1424 1.394 . S
C1426 C1427 1.369 . S
C1426 C1430 1.531 . S
C1427 C1426 1.369 . S
C1427 C1428 1.410 . S
C1427 C1435 1.503 . S
C1428 C1427 1.410 . S
C1428 C1429 1.392 . S
C1428 C1431 1.511 . S
C1429 C1425 1.376 . S
C1429 C1428 1.392 . S
C1429 H1441 0.929 . S
C1430 C1426 1.531 . S
C1430 H1442 0.960 . S
C1430 H1443 0.962 . S
C1430 H1444 0.960 . S
C1431 C1428 1.511 . S
C1431 H1445 0.961 . S
C1431 H1446 0.961 . S
C1431 H1447 0.961 . S
C1432 C1433 1.370 . S
C1432 C1434 1.363 . S
C1432 H1448 0.931 . S
C1433 C1432 1.370 . S
C1433 C1437 1.408 . S
C1434 C1432 1.363 . S
C1434 C1435 1.370 . S
C1434 C1438 1.524 . S
C1435 C1427 1.503 . S
C1435 C1434 1.370 . S
C1435 C1436 1.403 . S
C1436 C1435 1.403 . S
C1436 C1437 1.404 . S
C1436 C1439 1.539 . S
C1437 C1433 1.408 . S
C1437 C1436 1.404 . S
C1437 H1449 0.930 . S
C1438 C1434 1.524 . S
C1438 H1450 0.956 . S
C1438 H1451 0.961 . S
C1438 H1452 0.961 . S
C1439 C1436 1.539 . S
C1439 H1453 0.958 . S
C1439 H1454 0.961 . S
C1439 H1455 0.960 . S
H1440 C1424 0.931 . S
H1441 C1429 0.929 . S
H1442 C1430 0.960 . S
H1443 C1430 0.962 . S
H1444 C1430 0.960 . S
H1445 C1431 0.961 . S
H1446 C1431 0.961 . S
H1447 C1431 0.961 . S
H1448 C1432 0.931 . S
H1449 C1437 0.930 . S
H1450 C1438 0.956 . S
H1451 C1438 0.961 . S
H1452 C1438 0.961 . S
H1453 C1439 0.958 . S
H1454 C1439 0.961 . S
H1455 C1439 0.960 . S
C1456 C1457 1.391 . S
C1456 C1458 1.394 . S
C1456 H1472 0.931 . S
C1457 C1456 1.391 . S
C1457 C1461 1.376 . S
C1458 C1456 1.394 . S
C1458 C1459 1.369 . S
C1458 C1462 1.531 . S
C1459 C1458 1.369 . S
C1459 C1460 1.410 . S
C1459 C1467 1.503 . S
C1460 C1459 1.410 . S
C1460 C1461 1.392 . S
C1460 C1463 1.511 . S
C1461 C1457 1.376 . S
C1461 C1460 1.392 . S
C1461 H1473 0.929 . S
C1462 C1458 1.531 . S
C1462 H1474 0.960 . S
C1462 H1475 0.962 . S
C1462 H1476 0.960 . S
C1463 C1460 1.511 . S
C1463 H1477 0.961 . S
C1463 H1478 0.961 . S
C1463 H1479 0.961 . S
C1464 C1465 1.370 . S
C1464 C1466 1.363 . S
C1464 H1480 0.931 . S
C1465 C1464 1.370 . S
C1465 C1469 1.408 . S
C1466 C1464 1.363 . S
C1466 C1467 1.370 . S
C1466 C1470 1.524 . S
C1467 C1459 1.503 . S
C1467 C1466 1.370 . S
C1467 C1468 1.403 . S
C1468 C1467 1.403 . S
C1468 C1469 1.404 . S
C1468 C1471 1.539 . S
C1469 C1465 1.408 . S
C1469 C1468 1.404 . S
C1469 H1481 0.930 . S
C1470 C1466 1.524 . S
C1470 H1482 0.956 . S
C1470 H1483 0.961 . S
C1470 H1484 0.961 . S
C1471 C1468 1.539 . S
C1471 H1485 0.958 . S
C1471 H1486 0.961 . S
C1471 H1487 0.960 . S
H1472 C1456 0.931 . S
H1473 C1461 0.929 . S
H1474 C1462 0.960 . S
H1475 C1462 0.962 . S
H1476 C1462 0.960 . S
H1477 C1463 0.961 . S
H1478 C1463 0.961 . S
H1479 C1463 0.961 . S
H1480 C1464 0.931 . S
H1481 C1469 0.930 . S
H1482 C1470 0.956 . S
H1483 C1470 0.961 . S
H1484 C1470 0.961 . S
H1485 C1471 0.958 . S
H1486 C1471 0.961 . S
H1487 C1471 0.960 . S
C1488 C1489 1.391 . S
C1488 C1490 1.394 . S
C1488 H1504 0.931 . S
C1489 C1488 1.391 . S
C1489 C1493 1.376 . S
C1490 C1488 1.394 . S
C1490 C1491 1.369 . S
C1490 C1494 1.531 . S
C1491 C1490 1.369 . S
C1491 C1492 1.410 . S
C1491 C1499 1.503 . S
C1492 C1491 1.410 . S
C1492 C1493 1.392 . S
C1492 C1495 1.511 . S
C1493 C1489 1.376 . S
C1493 C1492 1.392 . S
C1493 H1505 0.929 . S
C1494 C1490 1.531 . S
C1494 H1506 0.960 . S
C1494 H1507 0.962 . S
C1494 H1508 0.960 . S
C1495 C1492 1.511 . S
C1495 H1509 0.961 . S
C1495 H1510 0.961 . S
C1495 H1511 0.961 . S
C1496 C1497 1.370 . S
C1496 C1498 1.363 . S
C1496 H1512 0.931 . S
C1497 C1496 1.370 . S
C1497 C1501 1.408 . S
C1498 C1496 1.363 . S
C1498 C1499 1.370 . S
C1498 C1502 1.524 . S
C1499 C1491 1.503 . S
C1499 C1498 1.370 . S
C1499 C1500 1.403 . S
C1500 C1499 1.403 . S
C1500 C1501 1.404 . S
C1500 C1503 1.539 . S
C1501 C1497 1.408 . S
C1501 C1500 1.404 . S
C1501 H1513 0.930 . S
C1502 C1498 1.524 . S
C1502 H1514 0.956 . S
C1502 H1515 0.961 . S
C1502 H1516 0.961 . S
C1503 C1500 1.539 . S
C1503 H1517 0.958 . S
C1503 H1518 0.961 . S
C1503 H1519 0.960 . S
H1504 C1488 0.931 . S
H1505 C1493 0.929 . S
H1506 C1494 0.960 . S
H1507 C1494 0.962 . S
H1508 C1494 0.960 . S
H1509 C1495 0.961 . S
H1510 C1495 0.961 . S
H1511 C1495 0.961 . S
H1512 C1496 0.931 . S
H1513 C1501 0.930 . S
H1514 C1502 0.956 . S
H1515 C1502 0.961 . S
H1516 C1502 0.961 . S
H1517 C1503 0.958 . S
H1518 C1503 0.961 . S
H1519 C1503 0.960 . S
C1520 C1521 1.391 . S
C1520 C1522 1.394 . S
C1520 H1536 0.931 . S
C1521 C1520 1.391 . S
C1521 C1525 1.376 . S
C1522 C1520 1.394 . S
C1522 C1523 1.369 . S
C1522 C1526 1.531 . S
C1523 C1522 1.369 . S
C1523 C1524 1.410 . S
C1523 C1531 1.503 . S
C1524 C1523 1.410 . S
C1524 C1525 1.392 . S
C1524 C1527 1.511 . S
C1525 C1521 1.376 . S
C1525 C1524 1.392 . S
C1525 H1537 0.929 . S
C1526 C1522 1.531 . S
C1526 H1538 0.960 . S
C1526 H1539 0.962 . S
C1526 H1540 0.960 . S
C1527 C1524 1.511 . S
C1527 H1541 0.961 . S
C1527 H1542 0.961 . S
C1527 H1543 0.961 . S
C1528 C1529 1.370 . S
C1528 C1530 1.363 . S
C1528 H1544 0.931 . S
C1529 C1528 1.370 . S
C1529 C1533 1.408 . S
C1530 C1528 1.363 . S
C1530 C1531 1.370 . S
C1530 C1534 1.524 . S
C1531 C1523 1.503 . S
C1531 C1530 1.370 . S
C1531 C1532 1.403 . S
C1532 C1531 1.403 . S
C1532 C1533 1.404 . S
C1532 C1535 1.539 . S
C1533 C1529 1.408 . S
C1533 C1532 1.404 . S
C1533 H1545 0.930 . S
C1534 C1530 1.524 . S
C1534 H1546 0.956 . S
C1534 H1547 0.961 . S
C1534 H1548 0.961 . S
C1535 C1532 1.539 . S
C1535 H1549 0.958 . S
C1535 H1550 0.961 . S
C1535 H1551 0.960 . S
H1536 C1520 0.931 . S
H1537 C1525 0.929 . S
H1538 C1526 0.960 . S
H1539 C1526 0.962 . S
H1540 C1526 0.960 . S
H1541 C1527 0.961 . S
H1542 C1527 0.961 . S
H1543 C1527 0.961 . S
H1544 C1528 0.931 . S
H1545 C1533 0.930 . S
H1546 C1534 0.956 . S
H1547 C1534 0.961 . S
H1548 C1534 0.961 . S
H1549 C1535 0.958 . S
H1550 C1535 0.961 . S
H1551 C1535 0.960 . S
C1552 C1553 1.391 . S
C1552 C1554 1.394 . S
C1552 H1568 0.931 . S
C1553 C1552 1.391 . S
C1553 C1557 1.376 . S
C1554 C1552 1.394 . S
C1554 C1555 1.369 . S
C1554 C1558 1.531 . S
C1555 C1554 1.369 . S
C1555 C1556 1.410 . S
C1555 C1563 1.503 . S
C1556 C1555 1.410 . S
C1556 C1557 1.392 . S
C1556 C1559 1.511 . S
C1557 C1553 1.376 . S
C1557 C1556 1.392 . S
C1557 H1569 0.929 . S
C1558 C1554 1.531 . S
C1558 H1570 0.960 . S
C1558 H1571 0.962 . S
C1558 H1572 0.960 . S
C1559 C1556 1.511 . S
C1559 H1573 0.961 . S
C1559 H1574 0.961 . S
C1559 H1575 0.961 . S
C1560 C1561 1.370 . S
C1560 C1562 1.363 . S
C1560 H1576 0.931 . S
C1561 C1560 1.370 . S
C1561 C1565 1.408 . S
C1562 C1560 1.363 . S
C1562 C1563 1.370 . S
C1562 C1566 1.524 . S
C1563 C1555 1.503 . S
C1563 C1562 1.370 . S
C1563 C1564 1.403 . S
C1564 C1563 1.403 . S
C1564 C1565 1.404 . S
C1564 C1567 1.539 . S
C1565 C1561 1.408 . S
C1565 C1564 1.404 . S
C1565 H1577 0.930 . S
C1566 C1562 1.524 . S
C1566 H1578 0.956 . S
C1566 H1579 0.961 . S
C1566 H1580 0.961 . S
C1567 C1564 1.539 . S
C1567 H1581 0.958 . S
C1567 H1582 0.961 . S
C1567 H1583 0.960 . S
H1568 C1552 0.931 . S
H1569 C1557 0.929 . S
H1570 C1558 0.960 . S
H1571 C1558 0.962 . S
H1572 C1558 0.960 . S
H1573 C1559 0.961 . S
H1574 C1559 0.961 . S
H1575 C1559 0.961 . S
H1576 C1560 0.931 . S
H1577 C1565 0.930 . S
H1578 C1566 0.956 . S
H1579 C1566 0.961 . S
H1580 C1566 0.961 . S
H1581 C1567 0.958 . S
H1582 C1567 0.961 . S
H1583 C1567 0.960 . S
C825 C757 1.643 . S
C817 C45 1.667 . S
C849 C84 1.622 . S
C857 C317 1.655 . S
C881 C126 1.604 . S
C889 C405 1.653 . S
C913 C189 1.660 . S
C921 C484 1.643 . S
C953 C581 1.655 . S
C945 C228 1.644 . S
C977 C270 1.623 . S
C985 C660 1.647 . S
C1009 C69 1.638 . S
C1017 C425 1.643 . S
C1041 C141 1.668 . S
C1049 C521 1.641 . S
C1073 C174 1.591 . S
C1081 C601 1.655 . S
C1113 C697 1.657 . S
C1105 C213 1.618 . S
C1145 C777 1.641 . S
C1137 C285 1.668 . S
C1177 C337 1.644 . S
C1169 C30 1.627 . S
C1201 C36 1.481 . S
C1209 C433 1.480 . S
C1233 C93 1.477 . S
C1241 C513 1.479 . S
C1273 C609 1.480 . S
C1265 C117 1.492 . S
C1297 C180 1.476 . S
C1305 C689 1.486 1_556 S
C1337 C785 1.484 . S
C1329 C237 1.489 . S
C1369 C345 1.488 . S
C1361 C261 1.470 . S
C1401 C748 1.484 . S
C1393 C78 1.464 . S
C1425 C132 1.477 . S
C1433 C308 1.483 . S
C1465 C396 1.484 . S
C1457 C165 1.485 . S
C1489 C222 1.484 . S
C1497 C493 1.478 . S
C1521 C276 1.485 . S
C1529 C572 1.479 1_554 S
C1553 C21 1.472 . S
C1561 C669 1.488 . S
