# Generated by pormake.
# Topology anh, (6,3)-cn, num edge types: 1
# Building blocks:
#     Node 0, Type 0, BuildingBlock: CUKXOW_clean_sbu_0, # of connection points: 6
#     Node 1, Type 0, BuildingBlock: CUKXOW_clean_sbu_0, # of connection points: 6
#     Node 2, Type 0, BuildingBlock: CUKXOW_clean_sbu_0, # of connection points: 6
#     Node 3, Type 1, BuildingBlock: ESEHIV_clean_linker_0, # of connection points: 3
#     Node 4, Type 1, BuildingBlock: ESEHIV_clean_linker_0, # of connection points: 3
#     Node 5, Type 1, BuildingBlock: ESEHIV_clean_linker_0, # of connection points: 3
#     Node 6, Type 1, BuildingBlock: ESEHIV_clean_linker_0, # of connection points: 3
#     Node 7, Type 1, BuildingBlock: ESEHIV_clean_linker_0, # of connection points: 3
#     Node 8, Type 1, BuildingBlock: ESEHIV_clean_linker_0, # of connection points: 3
#     Edge 9, Type (0, 1), BuildingBlock: KIFKEQ_clean_linker_1, # of connection points: 2
#     Edge 10, Type (0, 1), BuildingBlock: KIFKEQ_clean_linker_1, # of connection points: 2
#     Edge 11, Type (0, 1), BuildingBlock: KIFKEQ_clean_linker_1, # of connection points: 2
#     Edge 12, Type (0, 1), BuildingBlock: KIFKEQ_clean_linker_1, # of connection points: 2
#     Edge 13, Type (0, 1), BuildingBlock: KIFKEQ_clean_linker_1, # of connection points: 2
#     Edge 14, Type (0, 1), BuildingBlock: KIFKEQ_clean_linker_1, # of connection points: 2
#     Edge 15, Type (0, 1), BuildingBlock: KIFKEQ_clean_linker_1, # of connection points: 2
#     Edge 16, Type (0, 1), BuildingBlock: KIFKEQ_clean_linker_1, # of connection points: 2
#     Edge 17, Type (0, 1), BuildingBlock: KIFKEQ_clean_linker_1, # of connection points: 2
#     Edge 18, Type (0, 1), BuildingBlock: KIFKEQ_clean_linker_1, # of connection points: 2
#     Edge 19, Type (0, 1), BuildingBlock: KIFKEQ_clean_linker_1, # of connection points: 2
#     Edge 20, Type (0, 1), BuildingBlock: KIFKEQ_clean_linker_1, # of connection points: 2
#     Edge 21, Type (0, 1), BuildingBlock: KIFKEQ_clean_linker_1, # of connection points: 2
#     Edge 22, Type (0, 1), BuildingBlock: KIFKEQ_clean_linker_1, # of connection points: 2
#     Edge 23, Type (0, 1), BuildingBlock: KIFKEQ_clean_linker_1, # of connection points: 2
#     Edge 24, Type (0, 1), BuildingBlock: KIFKEQ_clean_linker_1, # of connection points: 2
#     Edge 25, Type (0, 1), BuildingBlock: KIFKEQ_clean_linker_1, # of connection points: 2
#     Edge 26, Type (0, 1), BuildingBlock: KIFKEQ_clean_linker_1, # of connection points: 2
# Relax obj value: 0.137
# Max RMSD: 0.194
# Mean RMSD: 0.141
data_MOF--net-anh--node1-CUKXOW_clean_sbu_0--node2-ESEHIV_clean_linker_0--edge1-KIFKEQ_clean_linker_1
_symmetry_space_group_name_H-M    P1
_symmetry_Int_Tables_number       1
_symmetry_cell_setting            triclinic
loop_
_symmetry_equiv_pos_as_xyz
'x, y, z'
_cell_length_a     26.851909
_cell_length_b     26.179193
_cell_length_c     51.185969
_cell_angle_alpha  95.453746
_cell_angle_beta   90.820465
_cell_angle_gamma 112.32336
loop_
_atom_site_label
_atom_site_type_symbol
_atom_site_fract_x
_atom_site_fract_y
_atom_site_fract_z
_atom_type_partial_charge
Tb0 Tb 0.0776 0.55184 0.14742 0.0
C1 C 0.04228 0.50451 0.20142 0.0
Tb2 Tb 1.00554 0.42597 0.14844 0.0
O3 O 1.01164 0.58272 0.14344 0.0
O4 O 0.99531 0.50077 0.14586 0.0
O5 O 0.08026 0.54148 0.18907 0.0
C6 C 0.92708 0.32871 0.1544 0.0
O7 O 1.00396 0.46009 0.18876 0.0
C8 C 0.10999 0.44974 0.14315 0.0
C9 C 0.03544 0.47303 0.09439 0.0
O10 O 0.97216 0.35098 0.16852 0.0
O11 O 0.9264 0.36098 0.13677 0.0
O12 O 0.07194 0.40231 0.13484 0.0
O13 O 0.08866 0.47875 0.15619 0.0
O14 O 0.99867 0.43579 0.10715 0.0
O15 O 0.07428 0.51823 0.10638 0.0
C16 C 0.1623 0.64815 0.15087 0.0
O17 O 0.15554 0.60557 0.13384 0.0
O18 O 0.12121 0.63649 0.16548 0.0
C19 C 0.9727 0.5346 0.14412 0.0
Tb20 Tb 0.51843 0.00608 0.5052 0.0
C21 C 0.57162 0.04211 0.45173 0.0
Tb22 Tb 0.64089 0.08877 0.506 0.0
O23 O 0.48322 0.07067 0.50916 0.0
O24 O 0.56421 0.0902 0.50718 0.0
O25 O 0.53283 1.00418 0.46341 0.0
C26 C 0.73307 0.17384 0.50191 0.0
O27 O 0.61407 0.08188 0.46481 0.0
C28 C 0.6227 0.98422 0.51045 0.0
C29 C 0.58499 0.06057 0.5595 0.0
O30 O 0.72152 0.12337 0.49121 0.0
O31 O 0.69283 0.17633 0.51497 0.0
O32 O 0.66618 0.02544 0.51994 0.0
O33 O 0.59457 1.00255 0.49717 0.0
O34 O 0.62471 0.09635 0.54739 0.0
O35 O 0.54301 0.01934 0.54694 0.0
C36 C 0.43209 0.91255 0.50416 0.0
O37 O 0.47798 0.92219 0.51641 0.0
O38 O 0.4348 0.95555 0.49262 0.0
C39 C 0.5297 0.11153 0.50873 0.0
Tb40 Tb 0.5402 0.59576 0.8333 0.0
C41 C 0.5943 0.61076 0.88905 0.0
Tb42 Tb 0.66108 0.61183 0.83762 0.0
O43 O 0.51946 0.51316 0.84673 0.0
O44 O 0.58686 0.54709 0.82532 0.0
O45 O 0.55504 0.61732 0.87544 0.0
C46 C 0.73653 0.57089 0.84191 0.0
O47 O 0.63556 0.60275 0.87787 0.0
C48 C 0.65229 0.70898 0.84263 0.0
C49 C 0.60819 0.61327 0.78285 0.0
O50 O 0.69725 0.56374 0.85739 0.0
O51 O 0.73505 0.60362 0.82456 0.0
O52 O 0.69858 0.70335 0.84373 0.0
O53 O 0.61585 0.66107 0.83942 0.0
O54 O 0.64588 0.60184 0.79522 0.0
O55 O 0.56804 0.62125 0.79507 0.0
C56 C 0.44067 0.58413 0.81935 0.0
O57 O 0.4673 0.55667 0.80826 0.0
O58 O 0.47069 0.61957 0.83841 0.0
C59 C 0.56165 0.50662 0.83767 0.0
H60 H 0.47327 0.9465 0.24863 0.0
H61 H 0.6369 0.06523 0.25073 0.0
H62 H 0.55081 0.99053 0.17652 0.0
C63 C 0.5083 0.97082 0.23859 0.0
C64 C 0.50655 0.96468 0.211 0.0
C65 C 0.55538 0.00646 0.25321 0.0
C66 C 0.60074 0.03636 0.23976 0.0
C67 C 0.5993 0.03105 0.21219 0.0
C68 C 0.55211 0.99496 0.19783 0.0
H69 H 0.59049 0.65213 0.57914 0.0
H70 H 0.5899 0.48852 0.58294 0.0
H71 H 0.57643 0.54524 0.50791 0.0
C72 C 0.58753 0.61227 0.56953 0.0
C73 C 0.58212 0.60305 0.54202 0.0
C74 C 0.59083 0.57152 0.58457 0.0
C75 C 0.58888 0.52106 0.57159 0.0
C76 C 0.5838 0.51117 0.54404 0.0
C77 C 0.5802 0.55235 0.52918 0.0
H78 H 0.94013 0.36191 0.89701 0.0
H79 H 0.10816 0.39125 0.89472 0.0
H80 H 1.0157 0.37382 0.82309 0.0
C81 C 0.97415 0.36301 0.88559 0.0
C82 C 0.97136 0.36511 0.85828 0.0
C83 C 1.02328 0.37154 0.89882 0.0
C84 C 0.06929 0.38017 0.88441 0.0
C85 C 0.0665 0.38135 0.85714 0.0
C86 C 1.01697 0.37063 0.84405 0.0
H87 H 1.00036 0.45422 0.4009 0.0
H88 H 0.15077 0.59525 0.40376 0.0
H89 H 0.0876 0.52685 0.47499 0.0
C90 C 0.03482 0.4857 0.41201 0.0
C91 C 0.03931 0.48614 0.43938 0.0
C92 C 0.07509 0.52453 0.39888 0.0
C93 C 0.12014 0.56398 0.41354 0.0
C94 C 0.12474 0.56512 0.44096 0.0
C95 C 0.08432 0.52596 0.4538 0.0
H96 H 0.5943 0.17317 0.76258 0.0
H97 H 0.61766 0.0193 0.75934 0.0
H98 H 0.61378 0.10752 0.83433 0.0
C99 C 0.60008 0.14085 0.7725 0.0
C100 C 0.60349 0.14568 0.80005 0.0
C101 C 0.60555 0.09564 0.7577 0.0
C102 C 0.61417 0.05477 0.77074 0.0
C103 C 0.61676 0.05828 0.79833 0.0
C104 C 0.61128 0.10401 0.81304 0.0
H105 H 0.4748 0.53335 0.08138 0.0
H106 H 0.63142 0.52546 0.08095 0.0
H107 H 0.53962 0.49128 0.15011 0.0
C108 C 0.50734 0.5269 0.09151 0.0
C109 C 0.5013 0.51254 0.11739 0.0
C110 C 0.55365 0.53101 0.07816 0.0
C111 C 0.59492 0.52097 0.091 0.0
C112 C 0.5908 0.50673 0.11684 0.0
C113 C 0.54349 0.50233 0.13017 0.0
H114 H 0.1965 0.54298 0.1642 0.0
H115 H 0.15711 0.38205 0.12071 0.0
H116 H 0.29273 0.5596 0.16314 0.0
H117 H 0.25263 0.39837 0.11951 0.0
H118 H 0.42566 0.42102 0.13606 0.0
H119 H 0.33216 0.40684 0.14533 0.0
H120 H 0.36456 0.57717 0.13298 0.0
H121 H 0.45761 0.59106 0.12411 0.0
C122 C 0.20835 0.51122 0.15436 0.0
C123 C 0.16894 0.46125 0.14247 0.0
C124 C 0.26362 0.52067 0.15373 0.0
C125 C 0.28102 0.48019 0.1414 0.0
C126 C 0.24126 0.4302 0.12965 0.0
C127 C 0.18624 0.42099 0.13012 0.0
C128 C 0.41318 0.45582 0.13621 0.0
C129 C 0.44931 0.50725 0.12954 0.0
C130 C 0.35926 0.44756 0.14109 0.0
C131 C 0.34008 0.49063 0.13958 0.0
C132 C 0.3774 0.543 0.13452 0.0
C133 C 0.43099 0.55106 0.12947 0.0
H134 H 0.82499 0.17248 0.48097 0.0
H135 H 0.75027 0.28294 0.51285 0.0
H136 H 0.90261 0.25231 0.46983 0.0
H137 H 0.82764 0.36273 0.5014 0.0
H138 H 0.93182 0.46286 0.43565 0.0
H139 H 0.86023 0.38968 0.45514 0.0
H140 H 0.97938 0.34239 0.49221 0.0
H141 H 0.0512 0.41619 0.47284 0.0
C142 C 0.82559 0.2139 0.48586 0.0
C143 C 0.78185 0.22182 0.49763 0.0
C144 C 0.86998 0.25945 0.47964 0.0
C145 C 0.87082 0.31343 0.48474 0.0
C146 C 0.82769 0.3214 0.4972 0.0
C147 C 0.78367 0.27591 0.5038 0.0
C148 C 0.94258 0.4371 0.44818 0.0
C149 C 0.99671 0.44473 0.45274 0.0
C150 C 0.90182 0.39564 0.45944 0.0
C151 C 0.91452 0.36064 0.47514 0.0
C152 C 0.96875 0.36891 0.48011 0.0
C153 C 1.00964 0.41105 0.46917 0.0
H154 H 0.55926 0.7263 0.83343 0.0
H155 H 0.7306 0.81205 0.85024 0.0
H156 H 0.55157 0.81502 0.82753 0.0
H157 H 0.72302 0.90032 0.84474 0.0
H158 H 0.69757 0.02141 0.79068 0.0
H159 H 0.70517 0.93897 0.80563 0.0
H160 H 0.56161 0.90953 0.84886 0.0
H161 H 0.55404 0.99273 0.83359 0.0
C162 C 0.59502 0.76421 0.83631 0.0
C163 C 0.64558 0.76234 0.84204 0.0
C164 C 0.59065 0.81501 0.83306 0.0
C165 C 0.63681 0.86472 0.83543 0.0
C166 C 0.68685 0.86276 0.84237 0.0
C167 C 0.69116 0.8122 0.84561 0.0
C168 C 0.6682 0.99786 0.80376 0.0
C169 C 0.62531 0.01342 0.81104 0.0
C170 C 0.67259 0.9507 0.81241 0.0
C171 C 0.63394 0.91754 0.82842 0.0
C172 C 0.5918 0.93402 0.8364 0.0
C173 C 0.58776 0.98184 0.82792 0.0
H174 H 0.8838 0.43528 0.14301 0.0
H175 H 0.92843 0.61197 0.14433 0.0
H176 H 0.78807 0.42201 0.14148 0.0
H177 H 0.8338 0.5992 0.14282 0.0
H178 H 0.66195 0.5717 0.15699 0.0
H179 H 0.75251 0.57421 0.16702 0.0
H180 H 0.71981 0.42927 0.11132 0.0
H181 H 0.62952 0.42691 0.10162 0.0
C182 C 0.87327 0.47122 0.143 0.0
C183 C 0.91396 0.5246 0.14363 0.0
C184 C 0.81832 0.46374 0.14212 0.0
C185 C 0.80266 0.50956 0.1422 0.0
C186 C 0.84374 0.56288 0.14322 0.0
C187 C 0.8983 0.57019 0.14384 0.0
C188 C 0.67343 0.53916 0.14771 0.0
C189 C 0.63815 0.49864 0.12881 0.0
C190 C 0.72576 0.54106 0.15308 0.0
C191 C 0.74423 0.50238 0.13973 0.0
C192 C 0.70737 0.45958 0.12218 0.0
C193 C 0.65533 0.45801 0.11668 0.0
H194 H 0.32909 0.89476 0.48961 0.0
H195 H 0.43146 0.8108 0.51179 0.0
H196 H 0.25383 0.80533 0.47993 0.0
H197 H 0.35613 0.72088 0.50152 0.0
H198 H 0.23173 0.59402 0.43361 0.0
H199 H 0.30637 0.67537 0.45493 0.0
H200 H 0.19446 0.71845 0.50311 0.0
H201 H 0.11986 0.63665 0.48199 0.0
C202 C 0.33513 0.85711 0.49276 0.0
C203 C 0.38577 0.85931 0.50135 0.0
C204 C 0.29211 0.80611 0.48738 0.0
C205 C 0.29939 0.75648 0.49004 0.0
C206 C 0.34971 0.75873 0.49937 0.0
C207 C 0.39254 0.80995 0.50528 0.0
C208 C 0.22341 0.62039 0.44912 0.0
C209 C 0.17032 0.60953 0.45616 0.0
C210 C 0.26598 0.66653 0.4614 0.0
C211 C 0.2559 0.70294 0.48058 0.0
C212 C 0.20305 0.69084 0.48835 0.0
C213 C 0.16059 0.64415 0.47638 0.0
H214 H 0.50746 0.4154 0.86246 0.0
H215 H 0.64095 0.48249 0.81316 0.0
H216 H 0.52101 0.32785 0.8598 0.0
H217 H 0.6548 0.39528 0.81053 0.0
H218 H 0.68598 0.24079 0.81963 0.0
H219 H 0.68016 0.33041 0.83397 0.0
H220 H 0.50635 0.25281 0.82469 0.0
H221 H 0.51272 0.16374 0.81063 0.0
C222 C 0.54007 0.41159 0.85129 0.0
C223 C 0.57302 0.45563 0.83794 0.0
C224 C 0.54778 0.36144 0.84972 0.0
C225 C 0.5888 0.35433 0.83485 0.0
C226 C 0.62318 0.39939 0.82239 0.0
C227 C 0.61516 0.44937 0.82381 0.0
C228 C 0.64665 0.24288 0.82156 0.0
C229 C 0.59972 0.19556 0.81448 0.0
C230 C 0.64325 0.29416 0.82943 0.0
C231 C 0.59277 0.29892 0.83034 0.0
C232 C 0.54582 0.25062 0.82456 0.0
C233 C 0.54931 0.19956 0.81655 0.0
H234 H 0.54121 0.89262 0.48531 0.0
H235 H 0.68537 0.94251 0.53597 0.0
H236 H 0.52735 0.79475 0.48697 0.0
H237 H 0.67272 0.84539 0.53678 0.0
H238 H 0.66385 0.67236 0.51644 0.0
H239 H 0.67202 0.76342 0.50421 0.0
H240 H 0.50807 0.72977 0.52487 0.0
H241 H 0.50043 0.63911 0.53741 0.0
C242 C 0.56968 0.88267 0.4969 0.0
C243 C 0.61382 0.92506 0.51092 0.0
C244 C 0.56203 0.82679 0.49763 0.0
C245 C 0.59927 0.81259 0.51178 0.0
C246 C 0.64385 0.85515 0.52537 0.0
C247 C 0.65086 0.91072 0.52506 0.0
C248 C 0.62905 0.68373 0.51736 0.0
C249 C 0.58137 0.64886 0.52753 0.0
C250 C 0.63383 0.7359 0.51066 0.0
C251 C 0.59082 0.75375 0.51384 0.0
C252 C 0.54169 0.71692 0.52207 0.0
C253 C 0.53721 0.66508 0.52913 0.0
H254 H 0.79524 0.55406 0.80152 0.0
H255 H 0.74532 0.50633 0.87836 0.0
H256 H 0.84033 0.48853 0.79772 0.0
H257 H 0.79202 0.4428 0.87522 0.0
H258 H 0.86206 0.31779 0.86437 0.0
H259 H 0.79662 0.35877 0.85465 0.0
H260 H 0.91938 0.48653 0.81743 0.0
H261 H 0.98328 0.44584 0.82657 0.0
C262 C 0.79473 0.53013 0.81773 0.0
C263 C 0.76804 0.53588 0.84046 0.0
C264 C 0.82004 0.49231 0.81549 0.0
C265 C 0.81962 0.46025 0.83612 0.0
C266 C 0.79219 0.46584 0.85871 0.0
C267 C 0.76642 0.50308 0.86078 0.0
C268 C 0.87427 0.35357 0.85338 0.0
C269 C 0.92787 0.37865 0.84643 0.0
C270 C 0.83705 0.37722 0.84795 0.0
C271 C 0.85318 0.42658 0.83576 0.0
C272 C 0.90529 0.4483 0.82662 0.0
C273 C 0.94216 0.42464 0.83187 0.0
H274 H 0.25105 0.68153 0.12124 0.0
H275 H 0.18391 0.7297 0.19093 0.0
H276 H 0.33414 0.76411 0.13104 0.0
H277 H 0.26687 0.80992 0.20152 0.0
H278 H 0.40703 0.9684 0.21108 0.0
H279 H 0.32282 0.89727 0.19172 0.0
H280 H 0.41068 0.79875 0.16043 0.0
H281 H 0.49502 0.87194 0.17859 0.0
C282 C 0.25407 0.70997 0.13856 0.0
C283 C 0.21118 0.69943 0.15531 0.0
C284 C 0.30173 0.75704 0.14432 0.0
C285 C 0.30751 0.79402 0.1671 0.0
C286 C 0.26384 0.78346 0.18349 0.0
C287 C 0.21623 0.73704 0.17755 0.0
C288 C 0.40811 0.93193 0.19957 0.0
C289 C 0.45708 0.92524 0.19633 0.0
C290 C 0.35993 0.89088 0.18867 0.0
C291 C 0.35954 0.84149 0.17489 0.0
C292 C 0.4092 0.83624 0.17066 0.0
C293 C 0.45756 0.87796 0.18114 0.0
H294 H 0.61883 0.19649 0.49511 0.0
H295 H 0.45962 0.15991 0.52304 0.0
H296 H 0.63502 0.29555 0.49885 0.0
H297 H 0.47472 0.25846 0.52601 0.0
H298 H 0.50306 0.43464 0.51149 0.0
H299 H 0.49064 0.33765 0.49859 0.0
H300 H 0.64519 0.36796 0.53684 0.0
H301 H 0.65724 0.46438 0.54969 0.0
C302 C 0.58777 0.20983 0.50247 0.0
C303 C 0.53889 0.17098 0.50974 0.0
C304 C 0.59661 0.26633 0.50423 0.0
C305 C 0.55618 0.28483 0.51279 0.0
C306 C 0.50647 0.24549 0.5191 0.0
C307 C 0.49796 0.18915 0.5176 0.0
C308 C 0.53486 0.42074 0.51646 0.0
C309 C 0.58104 0.4567 0.53156 0.0
C310 C 0.52759 0.36525 0.50934 0.0
C311 C 0.56675 0.3451 0.51692 0.0
C312 C 0.61446 0.38225 0.53057 0.0
C313 C 0.62135 0.43736 0.53796 0.0
H314 H 0.37522 0.49914 0.78523 0.0
H315 H 0.37394 0.62425 0.84644 0.0
H316 H 0.2786 0.44904 0.78847 0.0
H317 H 0.27652 0.57457 0.84903 0.0
H318 H 0.09271 0.47531 0.83366 0.0
H319 H 0.18033 0.53038 0.81768 0.0
H320 H 0.24035 0.40556 0.83547 0.0
H321 H 0.15282 0.35088 0.85214 0.0
C322 C 0.35391 0.51698 0.7987 0.0
C323 C 0.3819 0.56501 0.81593 0.0
C324 C 0.29882 0.48819 0.80055 0.0
C325 C 0.2709 0.50784 0.81918 0.0
C326 C 0.29766 0.55891 0.8345 0.0
C327 C 0.35313 0.5873 0.83299 0.0
C328 C 0.1243 0.45905 0.83351 0.0
C329 C 0.11634 0.40877 0.84382 0.0
C330 C 0.17419 0.49062 0.82453 0.0
C331 C 0.21638 0.47177 0.8253 0.0
C332 C 0.2078 0.42031 0.83447 0.0
C333 C 0.15815 0.38922 0.844 0.0
H334 H 0.91549 0.27199 0.19708 0.0
H335 H 0.8358 0.27207 0.1233 0.0
H336 H 0.8365 0.19439 0.2079 0.0
H337 H 0.75734 0.19218 0.13332 0.0
H338 H 0.60391 0.10447 0.17724 0.0
H339 H 0.68459 0.17153 0.1606 0.0
H340 H 0.78248 0.10032 0.19996 0.0
H341 H 0.70172 0.03555 0.21764 0.0
C342 C 0.88135 0.25448 0.18293 0.0
C343 C 0.8815 0.27801 0.15944 0.0
C344 C 0.83607 0.20963 0.189 0.0
C345 C 0.79018 0.18673 0.17151 0.0
C346 C 0.7914 0.20924 0.1475 0.0
C347 C 0.83647 0.25471 0.14163 0.0
C348 C 0.64272 0.10282 0.1819 0.0
C349 C 0.64691 0.06532 0.19878 0.0
C350 C 0.68904 0.14106 0.17231 0.0
C351 C 0.74043 0.14194 0.17912 0.0
C352 C 0.74391 0.10197 0.19483 0.0
C353 C 0.69771 0.0645 0.20478 0.0
H354 H 0.94843 0.41275 0.06129 0.0
H355 H 0.12018 0.506 0.06269 0.0
H356 H 0.94705 0.38801 0.0142 0.0
H357 H 0.11966 0.47889 0.01579 0.0
H358 H 0.09169 0.46554 0.92703 0.0
H359 H 0.09473 0.49184 0.97404 0.0
H360 H 0.9703 0.3315 0.98284 0.0
H361 H 0.96562 0.30681 0.93534 0.0
C362 C 0.98596 0.42779 0.05147 0.0
C363 C 0.03438 0.46143 0.06559 0.0
C364 C 0.98533 0.41311 0.0245 0.0
C365 C 0.03333 0.43082 0.01108 0.0
C366 C 0.08173 0.46505 0.02528 0.0
C367 C 0.08214 0.4806 0.0522 0.0
C368 C 0.06561 0.4357 0.93915 0.0
C369 C 1.02879 0.38395 0.92772 0.0
C370 C 0.06733 0.45069 0.96614 0.0
C371 C 1.03273 0.41394 0.98241 0.0
C372 C 0.99681 0.36142 0.97092 0.0
C373 C 0.99445 0.34686 0.9438 0.0
H374 H 0.48776 0.97439 0.41781 0.0
H375 H 0.64812 0.10198 0.41972 0.0
H376 H 0.48367 0.96667 0.36994 0.0
H377 H 0.64357 0.09442 0.37185 0.0
H378 H 0.63846 0.01434 0.28709 0.0
H379 H 0.64194 0.0248 0.33498 0.0
H380 H 0.48 0.02175 0.33349 0.0
H381 H 0.47668 0.01216 0.28554 0.0
C382 C 0.52207 1.00096 0.40808 0.0
C383 C 0.56834 0.0387 0.42266 0.0
C384 C 0.51954 0.99671 0.38063 0.0
C385 C 0.56334 0.02984 0.36714 0.0
C386 C 0.60943 0.06788 0.3817 0.0
C387 C 0.61185 0.07241 0.40915 0.0
C388 C 0.6038 0.01655 0.29694 0.0
C389 C 0.5573 0.01247 0.28244 0.0
C390 C 0.6058 0.02249 0.32439 0.0
C391 C 0.56127 0.02416 0.33799 0.0
C392 C 0.51471 0.01991 0.32354 0.0
C393 C 0.51279 0.01429 0.29607 0.0
H394 H 0.69204 0.62254 0.75139 0.0
H395 H 0.52489 0.60336 0.74912 0.0
H396 H 0.69063 0.61735 0.70356 0.0
H397 H 0.52263 0.5956 0.70148 0.0
H398 H 0.54275 0.62657 0.61697 0.0
H399 H 0.55145 0.64334 0.66459 0.0
H400 H 0.65605 0.55227 0.66616 0.0
H401 H 0.65081 0.53937 0.61842 0.0
C402 C 0.65501 0.6172 0.74067 0.0
C403 C 0.60863 0.61346 0.75402 0.0
C404 C 0.65404 0.6138 0.71324 0.0
C405 C 0.60644 0.6058 0.69856 0.0
C406 C 0.56031 0.6028 0.71205 0.0
C407 C 0.56152 0.60699 0.73944 0.0
C408 C 0.56848 0.61103 0.62741 0.0
C409 C 0.59605 0.58156 0.61376 0.0
C410 C 0.57283 0.61995 0.65481 0.0
C411 C 0.60421 0.59892 0.66933 0.0
C412 C 0.63206 0.56974 0.65568 0.0
C413 C 0.6283 0.56148 0.62825 0.0
H414 H 0.67269 0.12031 0.59281 0.0
H415 H 0.50364 0.01462 0.59205 0.0
H416 H 0.6775 0.1293 0.64077 0.0
H417 H 0.5087 0.02388 0.64003 0.0
H418 H 0.52997 0.1084 0.72563 0.0
H419 H 0.5249 0.10072 0.67754 0.0
H420 H 0.66919 0.06492 0.67618 0.0
H421 H 0.67437 0.07283 0.72423 0.0
C422 C 0.63652 0.09916 0.60284 0.0
C423 C 0.58777 0.06672 0.58859 0.0
C424 C 0.63942 0.10408 0.63029 0.0
C425 C 0.59349 0.07726 0.64407 0.0
C426 C 0.54462 0.04533 0.62988 0.0
C427 C 0.54186 0.03981 0.60242 0.0
C428 C 0.56068 0.09916 0.71501 0.0
C429 C 0.60254 0.09119 0.72859 0.0
C430 C 0.55757 0.09436 0.68755 0.0
C431 C 0.59667 0.08225 0.67318 0.0
C432 C 0.63875 0.0747 0.68678 0.0
C433 C 0.64148 0.0788 0.71422 0.0
H434 H 0.51073 0.61048 0.91953 0.0
H435 H 0.66872 0.60284 0.92359 0.0
H436 H 0.50074 0.59373 0.96569 0.0
H437 H 0.65882 0.58687 0.96952 0.0
H438 H 0.59232 0.48433 0.03745 0.0
H439 H 0.60303 0.50861 0.99257 0.0
H440 H 0.53688 0.63362 0.01137 0.0
H441 H 0.52648 0.60956 0.05653 0.0
C442 C 0.54363 0.6061 0.93031 0.0
C443 C 0.59032 0.60753 0.91774 0.0
C444 C 0.53791 0.5966 0.95677 0.0
C445 C 0.57871 0.58824 0.97113 0.0
C446 C 0.62621 0.59199 0.95884 0.0
C447 C 0.63196 0.60152 0.9325 0.0
C448 C 0.58055 0.51739 0.03212 0.0
C449 C 0.55891 0.54527 0.05063 0.0
C450 C 0.58669 0.53132 0.00639 0.0
C451 C 0.57124 0.57339 -0.00151 0.0
C452 C 0.54881 0.60077 0.01684 0.0
C453 C 0.5428 0.58692 0.04267 0.0
H454 H 0.9713 0.43935 0.234 0.0
H455 H 0.11941 0.58422 0.23471 0.0
H456 H 0.97894 0.4465 0.28179 0.0
H457 H 0.12647 0.59156 0.28254 0.0
H458 H 0.15364 0.53936 0.36358 0.0
H459 H 0.14453 0.53769 0.31601 0.0
H460 H 0.97533 0.50698 0.32119 0.0
H461 H 0.98446 0.50914 0.3688 0.0
C462 C 1.00523 0.47301 0.24432 0.0
C463 C 0.04487 0.51106 0.23049 0.0
C464 C 1.00943 0.47722 0.27173 0.0
C465 C 0.05342 0.51945 0.28589 0.0
C466 C 0.0925 0.55814 0.27212 0.0
C467 C 0.08821 0.55408 0.24471 0.0
C468 C 0.11464 0.5329 0.35461 0.0
C469 C 0.06975 0.52422 0.36996 0.0
C470 C 0.10944 0.53196 0.32737 0.0
C471 C 0.0592 0.52218 0.31489 0.0
C472 C 1.01439 0.51386 0.33023 0.0
C473 C 1.01962 0.51498 0.35748 0.0
loop_
_geom_bond_atom_site_label_1
_geom_bond_atom_site_label_2
_geom_bond_distance
_geom_bond_site_symmetry_2
_ccdc_geom_bond_type
Tb0 O3 2.453 1_455 S
Tb0 O4 2.596 1_455 S
Tb0 O5 2.374 . S
Tb0 O13 2.343 . S
Tb0 O15 2.353 . S
Tb0 O17 2.427 . S
Tb0 O18 2.513 . S
C1 O5 1.251 . S
C1 O7 1.263 . S
Tb2 O4 2.343 1_455 S
Tb2 O7 2.353 . S
Tb2 O10 2.427 1_455 S
Tb2 O11 2.513 1_455 S
Tb2 O12 2.453 . S
Tb2 O13 2.596 . S
Tb2 O14 2.374 . S
O3 Tb0 2.453 1_655 S
O3 C19 1.245 . S
O4 Tb0 2.596 1_655 S
O4 Tb2 2.343 1_655 S
O4 C19 1.259 . S
O5 Tb0 2.374 . S
O5 C1 1.251 . S
C6 O10 1.275 . S
C6 O11 1.246 . S
O7 C1 1.263 . S
O7 Tb2 2.353 . S
C8 O12 1.245 . S
C8 O13 1.259 . S
C9 O14 1.250 . S
C9 O15 1.263 . S
O10 Tb2 2.427 1_655 S
O10 C6 1.275 . S
O11 Tb2 2.513 1_655 S
O11 C6 1.246 . S
O12 Tb2 2.453 . S
O12 C8 1.245 . S
O13 Tb0 2.343 . S
O13 Tb2 2.596 . S
O13 C8 1.259 . S
O14 Tb2 2.374 . S
O14 C9 1.250 . S
O15 Tb0 2.353 . S
O15 C9 1.263 . S
C16 O17 1.275 . S
C16 O18 1.246 . S
O17 Tb0 2.427 . S
O17 C16 1.275 . S
O18 Tb0 2.513 . S
O18 C16 1.246 . S
C19 O3 1.245 . S
C19 O4 1.259 . S
Tb20 O23 2.453 . S
Tb20 O24 2.596 . S
Tb20 O25 2.374 . S
Tb20 O33 2.343 1_545 S
Tb20 O35 2.353 . S
Tb20 O37 2.427 1_545 S
Tb20 O38 2.513 1_545 S
C21 O25 1.251 . S
C21 O27 1.263 . S
Tb22 O24 2.343 . S
Tb22 O27 2.353 . S
Tb22 O30 2.427 . S
Tb22 O31 2.513 . S
Tb22 O32 2.453 1_545 S
Tb22 O33 2.596 1_545 S
Tb22 O34 2.374 . S
O23 Tb20 2.453 . S
O23 C39 1.245 . S
O24 Tb20 2.596 . S
O24 Tb22 2.343 . S
O24 C39 1.259 . S
O25 Tb20 2.374 . S
O25 C21 1.251 . S
C26 O30 1.275 . S
C26 O31 1.246 . S
O27 C21 1.263 . S
O27 Tb22 2.353 . S
C28 O32 1.245 . S
C28 O33 1.259 . S
C29 O34 1.250 . S
C29 O35 1.263 . S
O30 Tb22 2.427 . S
O30 C26 1.275 . S
O31 Tb22 2.513 . S
O31 C26 1.246 . S
O32 Tb22 2.453 1_565 S
O32 C28 1.245 . S
O33 Tb20 2.343 1_565 S
O33 Tb22 2.596 1_565 S
O33 C28 1.259 . S
O34 Tb22 2.374 . S
O34 C29 1.250 . S
O35 Tb20 2.353 . S
O35 C29 1.263 . S
C36 O37 1.275 . S
C36 O38 1.246 . S
O37 Tb20 2.427 1_565 S
O37 C36 1.275 . S
O38 Tb20 2.513 1_565 S
O38 C36 1.246 . S
C39 O23 1.245 . S
C39 O24 1.259 . S
Tb40 O43 2.453 . S
Tb40 O44 2.596 . S
Tb40 O45 2.374 . S
Tb40 O53 2.343 . S
Tb40 O55 2.353 . S
Tb40 O57 2.427 . S
Tb40 O58 2.513 . S
C41 O45 1.251 . S
C41 O47 1.263 . S
Tb42 O44 2.343 . S
Tb42 O47 2.353 . S
Tb42 O50 2.427 . S
Tb42 O51 2.513 . S
Tb42 O52 2.453 . S
Tb42 O53 2.596 . S
Tb42 O54 2.374 . S
O43 Tb40 2.453 . S
O43 C59 1.245 . S
O44 Tb40 2.596 . S
O44 Tb42 2.343 . S
O44 C59 1.259 . S
O45 Tb40 2.374 . S
O45 C41 1.251 . S
C46 O50 1.275 . S
C46 O51 1.246 . S
O47 C41 1.263 . S
O47 Tb42 2.353 . S
C48 O52 1.245 . S
C48 O53 1.259 . S
C49 O54 1.250 . S
C49 O55 1.263 . S
O50 Tb42 2.427 . S
O50 C46 1.275 . S
O51 Tb42 2.513 . S
O51 C46 1.246 . S
O52 Tb42 2.453 . S
O52 C48 1.245 . S
O53 Tb40 2.343 . S
O53 Tb42 2.596 . S
O53 C48 1.259 . S
O54 Tb42 2.374 . S
O54 C49 1.250 . S
O55 Tb40 2.353 . S
O55 C49 1.263 . S
C56 O57 1.275 . S
C56 O58 1.246 . S
O57 Tb40 2.427 . S
O57 C56 1.275 . S
O58 Tb40 2.513 . S
O58 C56 1.246 . S
C59 O43 1.245 . S
C59 O44 1.259 . S
H60 C63 0.931 1_565 S
H61 C66 0.928 . S
H62 C68 0.930 . S
C63 H60 0.931 1_545 S
C63 C64 1.413 1_545 S
C63 C65 1.360 . S
C64 C63 1.413 1_565 S
C64 C68 1.429 1_565 S
C65 C63 1.360 . S
C65 C66 1.372 . S
C66 H61 0.928 . S
C66 C65 1.372 . S
C66 C67 1.404 . S
C67 C66 1.404 . S
C67 C68 1.391 . S
C68 H62 0.930 . S
C68 C64 1.429 1_545 S
C68 C67 1.391 . S
H69 C72 0.931 . S
H70 C75 0.928 . S
H71 C77 0.930 . S
C72 H69 0.931 . S
C72 C73 1.413 . S
C72 C74 1.360 . S
C73 C72 1.413 . S
C73 C77 1.429 . S
C74 C72 1.360 . S
C74 C75 1.372 . S
C75 H70 0.928 . S
C75 C74 1.372 . S
C75 C76 1.404 . S
C76 C75 1.404 . S
C76 C77 1.391 . S
C77 H71 0.930 . S
C77 C73 1.429 . S
C77 C76 1.391 . S
H78 C81 0.912 1_655 S
H79 C84 0.928 . S
H80 C86 0.930 . S
C81 H78 0.912 1_455 S
C81 C82 1.413 . S
C81 C83 1.360 . S
C82 C81 1.413 . S
C82 C86 1.429 . S
C83 C81 1.360 . S
C83 C84 1.372 . S
C84 H79 0.928 . S
C84 C83 1.372 . S
C84 C85 1.404 . S
C85 C84 1.404 . S
C85 C86 1.391 . S
C86 H80 0.930 . S
C86 C82 1.429 . S
C86 C85 1.391 . S
H87 C90 0.931 . S
H88 C93 0.928 . S
H89 C95 0.930 . S
C90 H87 0.931 . S
C90 C91 1.413 . S
C90 C92 1.350 1_655 S
C91 C90 1.413 . S
C91 C95 1.429 1_655 S
C92 C90 1.350 1_455 S
C92 C93 1.382 . S
C93 H88 0.928 . S
C93 C92 1.382 . S
C93 C94 1.404 . S
C94 C93 1.404 . S
C94 C95 1.391 . S
C95 H89 0.930 . S
C95 C91 1.429 1_455 S
C95 C94 1.391 . S
H96 C99 0.931 . S
H97 C102 0.928 . S
H98 C104 0.930 . S
C99 H96 0.931 . S
C99 C100 1.413 . S
C99 C101 1.360 . S
C100 C99 1.413 . S
C100 C104 1.429 . S
C101 C99 1.360 . S
C101 C102 1.372 1_545 S
C102 H97 0.928 . S
C102 C101 1.372 1_565 S
C102 C103 1.404 . S
C103 C102 1.404 . S
C103 C104 1.391 1_565 S
C104 H98 0.930 . S
C104 C100 1.429 . S
C104 C103 1.391 1_545 S
H105 C108 0.931 . S
H106 C111 0.928 . S
H107 C113 0.930 . S
C108 H105 0.931 . S
C108 C109 1.413 . S
C108 C110 1.360 . S
C109 C108 1.413 . S
C109 C113 1.429 . S
C110 C108 1.360 . S
C110 C111 1.372 . S
C111 H106 0.928 . S
C111 C110 1.372 . S
C111 C112 1.404 . S
C112 C111 1.404 . S
C112 C113 1.391 . S
C113 H107 0.930 . S
C113 C109 1.429 . S
C113 C112 1.391 . S
H114 C122 0.950 . S
H115 C127 0.950 . S
H116 C124 0.950 . S
H117 C126 0.950 . S
H118 C128 0.950 . S
H119 C130 0.950 . S
H120 C132 0.950 . S
H121 C133 0.950 . S
C122 H114 0.950 . S
C122 C123 1.386 . S
C122 C124 1.391 . S
C123 C122 1.386 . S
C123 C127 1.393 . S
C124 H116 0.950 . S
C124 C122 1.391 . S
C124 C125 1.400 . S
C125 C124 1.400 . S
C125 C126 1.398 . S
C125 C131 1.491 . S
C126 H117 0.950 . S
C126 C125 1.398 . S
C126 C127 1.391 . S
C127 H115 0.950 . S
C127 C123 1.393 . S
C127 C126 1.391 . S
C128 H118 0.950 . S
C128 C129 1.386 . S
C128 C130 1.391 . S
C129 C128 1.386 . S
C129 C133 1.393 . S
C130 H119 0.950 . S
C130 C128 1.391 . S
C130 C131 1.400 . S
C131 C125 1.491 . S
C131 C130 1.400 . S
C131 C132 1.398 . S
C132 H120 0.950 . S
C132 C131 1.398 . S
C132 C133 1.391 . S
C133 H121 0.950 . S
C133 C129 1.393 . S
C133 C132 1.391 . S
H134 C142 0.950 . S
H135 C147 0.950 . S
H136 C144 0.950 . S
H137 C146 0.950 . S
H138 C148 0.950 . S
H139 C150 0.950 . S
H140 C152 0.950 . S
H141 C153 0.950 . S
C142 H134 0.950 . S
C142 C143 1.386 . S
C142 C144 1.391 . S
C143 C142 1.386 . S
C143 C147 1.393 . S
C144 H136 0.950 . S
C144 C142 1.391 . S
C144 C145 1.400 . S
C145 C144 1.400 . S
C145 C146 1.398 . S
C145 C151 1.491 . S
C146 H137 0.950 . S
C146 C145 1.398 . S
C146 C147 1.391 . S
C147 H135 0.950 . S
C147 C143 1.393 . S
C147 C146 1.391 . S
C148 H138 0.950 . S
C148 C149 1.386 . S
C148 C150 1.391 . S
C149 C148 1.386 . S
C149 C153 1.393 . S
C150 H139 0.950 . S
C150 C148 1.391 . S
C150 C151 1.400 . S
C151 C145 1.491 . S
C151 C150 1.400 . S
C151 C152 1.398 . S
C152 H140 0.950 . S
C152 C151 1.398 . S
C152 C153 1.391 . S
C153 H141 0.950 . S
C153 C149 1.393 . S
C153 C152 1.391 . S
H154 C162 0.950 . S
H155 C167 0.950 . S
H156 C164 0.950 . S
H157 C166 0.950 . S
H158 C168 0.950 . S
H159 C170 0.950 . S
H160 C172 0.950 . S
H161 C173 0.950 . S
C162 H154 0.950 . S
C162 C163 1.386 . S
C162 C164 1.391 . S
C163 C162 1.386 . S
C163 C167 1.393 . S
C164 H156 0.950 . S
C164 C162 1.391 . S
C164 C165 1.400 . S
C165 C164 1.400 . S
C165 C166 1.398 . S
C165 C171 1.491 . S
C166 H157 0.950 . S
C166 C165 1.398 . S
C166 C167 1.391 . S
C167 H155 0.950 . S
C167 C163 1.393 . S
C167 C166 1.391 . S
C168 H158 0.950 . S
C168 C169 1.386 . S
C168 C170 1.391 . S
C169 C168 1.386 . S
C169 C173 1.393 . S
C170 H159 0.950 . S
C170 C168 1.391 . S
C170 C171 1.400 . S
C171 C165 1.491 . S
C171 C170 1.400 . S
C171 C172 1.398 . S
C172 H160 0.950 . S
C172 C171 1.398 . S
C172 C173 1.391 . S
C173 H161 0.950 . S
C173 C169 1.393 . S
C173 C172 1.391 . S
H174 C182 0.950 . S
H175 C187 0.950 . S
H176 C184 0.950 . S
H177 C186 0.950 . S
H178 C188 0.950 . S
H179 C190 0.950 . S
H180 C192 0.950 . S
H181 C193 0.950 . S
C182 H174 0.950 . S
C182 C183 1.386 . S
C182 C184 1.391 . S
C183 C182 1.386 . S
C183 C187 1.393 . S
C184 H176 0.950 . S
C184 C182 1.391 . S
C184 C185 1.400 . S
C185 C184 1.400 . S
C185 C186 1.398 . S
C185 C191 1.491 . S
C186 H177 0.950 . S
C186 C185 1.398 . S
C186 C187 1.391 . S
C187 H175 0.950 . S
C187 C183 1.393 . S
C187 C186 1.391 . S
C188 H178 0.950 . S
C188 C189 1.386 . S
C188 C190 1.391 . S
C189 C188 1.386 . S
C189 C193 1.393 . S
C190 H179 0.950 . S
C190 C188 1.391 . S
C190 C191 1.400 . S
C191 C185 1.491 . S
C191 C190 1.400 . S
C191 C192 1.398 . S
C192 H180 0.950 . S
C192 C191 1.398 . S
C192 C193 1.391 . S
C193 H181 0.950 . S
C193 C189 1.393 . S
C193 C192 1.391 . S
H194 C202 0.950 . S
H195 C207 0.950 . S
H196 C204 0.950 . S
H197 C206 0.950 . S
H198 C208 0.950 . S
H199 C210 0.950 . S
H200 C212 0.950 . S
H201 C213 0.950 . S
C202 H194 0.950 . S
C202 C203 1.386 . S
C202 C204 1.391 . S
C203 C202 1.386 . S
C203 C207 1.393 . S
C204 H196 0.950 . S
C204 C202 1.391 . S
C204 C205 1.400 . S
C205 C204 1.400 . S
C205 C206 1.398 . S
C205 C211 1.491 . S
C206 H197 0.950 . S
C206 C205 1.398 . S
C206 C207 1.391 . S
C207 H195 0.950 . S
C207 C203 1.393 . S
C207 C206 1.391 . S
C208 H198 0.950 . S
C208 C209 1.386 . S
C208 C210 1.391 . S
C209 C208 1.386 . S
C209 C213 1.393 . S
C210 H199 0.950 . S
C210 C208 1.391 . S
C210 C211 1.400 . S
C211 C205 1.491 . S
C211 C210 1.400 . S
C211 C212 1.398 . S
C212 H200 0.950 . S
C212 C211 1.398 . S
C212 C213 1.391 . S
C213 H201 0.950 . S
C213 C209 1.393 . S
C213 C212 1.391 . S
H214 C222 0.950 . S
H215 C227 0.950 . S
H216 C224 0.950 . S
H217 C226 0.950 . S
H218 C228 0.950 . S
H219 C230 0.950 . S
H220 C232 0.950 . S
H221 C233 0.950 . S
C222 H214 0.950 . S
C222 C223 1.386 . S
C222 C224 1.391 . S
C223 C222 1.386 . S
C223 C227 1.393 . S
C224 H216 0.950 . S
C224 C222 1.391 . S
C224 C225 1.400 . S
C225 C224 1.400 . S
C225 C226 1.398 . S
C225 C231 1.491 . S
C226 H217 0.950 . S
C226 C225 1.398 . S
C226 C227 1.391 . S
C227 H215 0.950 . S
C227 C223 1.393 . S
C227 C226 1.391 . S
C228 H218 0.950 . S
C228 C229 1.386 . S
C228 C230 1.391 . S
C229 C228 1.386 . S
C229 C233 1.393 . S
C230 H219 0.950 . S
C230 C228 1.391 . S
C230 C231 1.400 . S
C231 C225 1.491 . S
C231 C230 1.400 . S
C231 C232 1.398 . S
C232 H220 0.950 . S
C232 C231 1.398 . S
C232 C233 1.391 . S
C233 H221 0.950 . S
C233 C229 1.393 . S
C233 C232 1.391 . S
H234 C242 0.950 . S
H235 C247 0.950 . S
H236 C244 0.950 . S
H237 C246 0.950 . S
H238 C248 0.950 . S
H239 C250 0.950 . S
H240 C252 0.950 . S
H241 C253 0.950 . S
C242 H234 0.950 . S
C242 C243 1.386 . S
C242 C244 1.391 . S
C243 C242 1.386 . S
C243 C247 1.393 . S
C244 H236 0.950 . S
C244 C242 1.391 . S
C244 C245 1.400 . S
C245 C244 1.400 . S
C245 C246 1.398 . S
C245 C251 1.491 . S
C246 H237 0.950 . S
C246 C245 1.398 . S
C246 C247 1.391 . S
C247 H235 0.950 . S
C247 C243 1.393 . S
C247 C246 1.391 . S
C248 H238 0.950 . S
C248 C249 1.386 . S
C248 C250 1.391 . S
C249 C248 1.386 . S
C249 C253 1.393 . S
C250 H239 0.950 . S
C250 C248 1.391 . S
C250 C251 1.400 . S
C251 C245 1.491 . S
C251 C250 1.400 . S
C251 C252 1.398 . S
C252 H240 0.950 . S
C252 C251 1.398 . S
C252 C253 1.391 . S
C253 H241 0.950 . S
C253 C249 1.393 . S
C253 C252 1.391 . S
H254 C262 0.950 . S
H255 C267 0.950 . S
H256 C264 0.950 . S
H257 C266 0.950 . S
H258 C268 0.950 . S
H259 C270 0.950 . S
H260 C272 0.950 . S
H261 C273 0.950 1_455 S
C262 H254 0.950 . S
C262 C263 1.386 . S
C262 C264 1.391 . S
C263 C262 1.386 . S
C263 C267 1.393 . S
C264 H256 0.950 . S
C264 C262 1.391 . S
C264 C265 1.400 . S
C265 C264 1.400 . S
C265 C266 1.398 . S
C265 C271 1.491 . S
C266 H257 0.950 . S
C266 C265 1.398 . S
C266 C267 1.391 . S
C267 H255 0.950 . S
C267 C263 1.393 . S
C267 C266 1.391 . S
C268 H258 0.950 . S
C268 C269 1.386 . S
C268 C270 1.391 . S
C269 C268 1.386 . S
C269 C273 1.393 . S
C270 H259 0.950 . S
C270 C268 1.391 . S
C270 C271 1.400 . S
C271 C265 1.491 . S
C271 C270 1.400 . S
C271 C272 1.398 . S
C272 H260 0.950 . S
C272 C271 1.398 . S
C272 C273 1.391 . S
C273 H261 0.950 1_655 S
C273 C269 1.393 . S
C273 C272 1.391 . S
H274 C282 0.950 . S
H275 C287 0.950 . S
H276 C284 0.950 . S
H277 C286 0.950 . S
H278 C288 0.950 . S
H279 C290 0.950 . S
H280 C292 0.950 . S
H281 C293 0.950 . S
C282 H274 0.950 . S
C282 C283 1.386 . S
C282 C284 1.391 . S
C283 C282 1.386 . S
C283 C287 1.393 . S
C284 H276 0.950 . S
C284 C282 1.391 . S
C284 C285 1.400 . S
C285 C284 1.400 . S
C285 C286 1.398 . S
C285 C291 1.491 . S
C286 H277 0.950 . S
C286 C285 1.398 . S
C286 C287 1.391 . S
C287 H275 0.950 . S
C287 C283 1.393 . S
C287 C286 1.391 . S
C288 H278 0.950 . S
C288 C289 1.386 . S
C288 C290 1.391 . S
C289 C288 1.386 . S
C289 C293 1.393 . S
C290 H279 0.950 . S
C290 C288 1.391 . S
C290 C291 1.400 . S
C291 C285 1.491 . S
C291 C290 1.400 . S
C291 C292 1.398 . S
C292 H280 0.950 . S
C292 C291 1.398 . S
C292 C293 1.391 . S
C293 H281 0.950 . S
C293 C289 1.393 . S
C293 C292 1.391 . S
H294 C302 0.950 . S
H295 C307 0.950 . S
H296 C304 0.950 . S
H297 C306 0.950 . S
H298 C308 0.950 . S
H299 C310 0.950 . S
H300 C312 0.950 . S
H301 C313 0.950 . S
C302 H294 0.950 . S
C302 C303 1.386 . S
C302 C304 1.391 . S
C303 C302 1.386 . S
C303 C307 1.393 . S
C304 H296 0.950 . S
C304 C302 1.391 . S
C304 C305 1.400 . S
C305 C304 1.400 . S
C305 C306 1.398 . S
C305 C311 1.491 . S
C306 H297 0.950 . S
C306 C305 1.398 . S
C306 C307 1.391 . S
C307 H295 0.950 . S
C307 C303 1.393 . S
C307 C306 1.391 . S
C308 H298 0.950 . S
C308 C309 1.386 . S
C308 C310 1.391 . S
C309 C308 1.386 . S
C309 C313 1.393 . S
C310 H299 0.950 . S
C310 C308 1.391 . S
C310 C311 1.400 . S
C311 C305 1.491 . S
C311 C310 1.400 . S
C311 C312 1.398 . S
C312 H300 0.950 . S
C312 C311 1.398 . S
C312 C313 1.391 . S
C313 H301 0.950 . S
C313 C309 1.393 . S
C313 C312 1.391 . S
H314 C322 0.950 . S
H315 C327 0.950 . S
H316 C324 0.950 . S
H317 C326 0.950 . S
H318 C328 0.950 . S
H319 C330 0.950 . S
H320 C332 0.950 . S
H321 C333 0.950 . S
C322 H314 0.950 . S
C322 C323 1.386 . S
C322 C324 1.391 . S
C323 C322 1.386 . S
C323 C327 1.393 . S
C324 H316 0.950 . S
C324 C322 1.391 . S
C324 C325 1.400 . S
C325 C324 1.400 . S
C325 C326 1.398 . S
C325 C331 1.491 . S
C326 H317 0.950 . S
C326 C325 1.398 . S
C326 C327 1.391 . S
C327 H315 0.950 . S
C327 C323 1.393 . S
C327 C326 1.391 . S
C328 H318 0.950 . S
C328 C329 1.386 . S
C328 C330 1.391 . S
C329 C328 1.386 . S
C329 C333 1.393 . S
C330 H319 0.950 . S
C330 C328 1.391 . S
C330 C331 1.400 . S
C331 C325 1.491 . S
C331 C330 1.400 . S
C331 C332 1.398 . S
C332 H320 0.950 . S
C332 C331 1.398 . S
C332 C333 1.391 . S
C333 H321 0.950 . S
C333 C329 1.393 . S
C333 C332 1.391 . S
H334 C342 0.950 . S
H335 C347 0.950 . S
H336 C344 0.950 . S
H337 C346 0.950 . S
H338 C348 0.950 . S
H339 C350 0.950 . S
H340 C352 0.950 . S
H341 C353 0.950 . S
C342 H334 0.950 . S
C342 C343 1.386 . S
C342 C344 1.391 . S
C343 C342 1.386 . S
C343 C347 1.393 . S
C344 H336 0.950 . S
C344 C342 1.391 . S
C344 C345 1.400 . S
C345 C344 1.400 . S
C345 C346 1.398 . S
C345 C351 1.491 . S
C346 H337 0.950 . S
C346 C345 1.398 . S
C346 C347 1.391 . S
C347 H335 0.950 . S
C347 C343 1.393 . S
C347 C346 1.391 . S
C348 H338 0.950 . S
C348 C349 1.386 . S
C348 C350 1.391 . S
C349 C348 1.386 . S
C349 C353 1.393 . S
C350 H339 0.950 . S
C350 C348 1.391 . S
C350 C351 1.400 . S
C351 C345 1.491 . S
C351 C350 1.400 . S
C351 C352 1.398 . S
C352 H340 0.950 . S
C352 C351 1.398 . S
C352 C353 1.391 . S
C353 H341 0.950 . S
C353 C349 1.393 . S
C353 C352 1.391 . S
H354 C362 0.950 1_655 S
H355 C367 0.950 . S
H356 C364 0.950 1_655 S
H357 C366 0.950 . S
H358 C368 0.950 . S
H359 C370 0.941 1_554 S
H360 C372 0.950 1_655 S
H361 C373 0.950 1_655 S
C362 H354 0.950 1_455 S
C362 C363 1.386 . S
C362 C364 1.391 . S
C363 C362 1.386 . S
C363 C367 1.393 . S
C364 H356 0.950 1_455 S
C364 C362 1.391 . S
C364 C365 1.400 . S
C365 C364 1.400 . S
C365 C366 1.398 . S
C365 C371 1.491 1_554 S
C366 H357 0.950 . S
C366 C365 1.398 . S
C366 C367 1.391 . S
C367 H355 0.950 . S
C367 C363 1.393 . S
C367 C366 1.391 . S
C368 H358 0.950 . S
C368 C369 1.386 . S
C368 C370 1.391 . S
C369 C368 1.386 . S
C369 C373 1.393 . S
C370 H359 0.941 1_556 S
C370 C368 1.391 . S
C370 C371 1.400 . S
C371 C365 1.491 1_556 S
C371 C370 1.400 . S
C371 C372 1.398 . S
C372 H360 0.950 1_455 S
C372 C371 1.398 . S
C372 C373 1.391 . S
C373 H361 0.950 1_455 S
C373 C369 1.393 . S
C373 C372 1.391 . S
H374 C382 0.950 . S
H375 C387 0.950 1_565 S
H376 C384 0.950 . S
H377 C386 0.950 1_565 S
H378 C388 0.950 1_565 S
H379 C390 0.950 1_565 S
H380 C392 0.950 . S
H381 C393 0.950 . S
C382 H374 0.950 . S
C382 C383 1.386 . S
C382 C384 1.391 . S
C383 C382 1.386 . S
C383 C387 1.393 . S
C384 H376 0.950 . S
C384 C382 1.391 . S
C384 C385 1.400 . S
C385 C384 1.400 . S
C385 C386 1.398 . S
C385 C391 1.491 . S
C386 H377 0.950 1_545 S
C386 C385 1.398 . S
C386 C387 1.391 . S
C387 H375 0.950 1_545 S
C387 C383 1.393 . S
C387 C386 1.391 . S
C388 H378 0.950 1_545 S
C388 C389 1.386 . S
C388 C390 1.391 . S
C389 C388 1.386 . S
C389 C393 1.393 . S
C390 H379 0.950 1_545 S
C390 C388 1.391 . S
C390 C391 1.400 . S
C391 C385 1.491 . S
C391 C390 1.400 . S
C391 C392 1.398 . S
C392 H380 0.950 . S
C392 C391 1.398 . S
C392 C393 1.391 . S
C393 H381 0.950 . S
C393 C389 1.393 . S
C393 C392 1.391 . S
H394 C402 0.950 . S
H395 C407 0.950 . S
H396 C404 0.950 . S
H397 C406 0.950 . S
H398 C408 0.950 . S
H399 C410 0.950 . S
H400 C412 0.950 . S
H401 C413 0.950 . S
C402 H394 0.950 . S
C402 C403 1.386 . S
C402 C404 1.391 . S
C403 C402 1.386 . S
C403 C407 1.393 . S
C404 H396 0.950 . S
C404 C402 1.391 . S
C404 C405 1.400 . S
C405 C404 1.400 . S
C405 C406 1.398 . S
C405 C411 1.491 . S
C406 H397 0.950 . S
C406 C405 1.398 . S
C406 C407 1.391 . S
C407 H395 0.950 . S
C407 C403 1.393 . S
C407 C406 1.391 . S
C408 H398 0.950 . S
C408 C409 1.386 . S
C408 C410 1.391 . S
C409 C408 1.386 . S
C409 C413 1.393 . S
C410 H399 0.950 . S
C410 C408 1.391 . S
C410 C411 1.400 . S
C411 C405 1.491 . S
C411 C410 1.400 . S
C411 C412 1.398 . S
C412 H400 0.950 . S
C412 C411 1.398 . S
C412 C413 1.391 . S
C413 H401 0.950 . S
C413 C409 1.393 . S
C413 C412 1.391 . S
H414 C422 0.950 . S
H415 C427 0.950 . S
H416 C424 0.950 . S
H417 C426 0.950 . S
H418 C428 0.950 . S
H419 C430 0.950 . S
H420 C432 0.950 . S
H421 C433 0.950 . S
C422 H414 0.950 . S
C422 C423 1.386 . S
C422 C424 1.391 . S
C423 C422 1.386 . S
C423 C427 1.393 1_545 S
C424 H416 0.950 . S
C424 C422 1.391 . S
C424 C425 1.400 . S
C425 C424 1.400 . S
C425 C426 1.398 1_545 S
C425 C431 1.491 . S
C426 H417 0.950 . S
C426 C425 1.398 1_565 S
C426 C427 1.391 . S
C427 H415 0.950 . S
C427 C423 1.393 1_565 S
C427 C426 1.391 . S
C428 H418 0.950 . S
C428 C429 1.386 1_565 S
C428 C430 1.391 . S
C429 C428 1.386 1_545 S
C429 C433 1.393 . S
C430 H419 0.950 . S
C430 C428 1.391 . S
C430 C431 1.400 1_565 S
C431 C425 1.491 . S
C431 C430 1.400 1_545 S
C431 C432 1.398 . S
C432 H420 0.950 . S
C432 C431 1.398 . S
C432 C433 1.391 . S
C433 H421 0.950 . S
C433 C429 1.393 . S
C433 C432 1.391 . S
H434 C442 0.950 . S
H435 C447 0.950 . S
H436 C444 0.950 . S
H437 C446 0.950 . S
H438 C448 0.950 . S
H439 C450 0.950 1_556 S
H440 C452 0.950 . S
H441 C453 0.950 . S
C442 H434 0.950 . S
C442 C443 1.386 . S
C442 C444 1.391 . S
C443 C442 1.386 . S
C443 C447 1.393 . S
C444 H436 0.950 . S
C444 C442 1.391 . S
C444 C445 1.400 . S
C445 C444 1.400 . S
C445 C446 1.398 . S
C445 C451 1.491 . S
C446 H437 0.950 . S
C446 C445 1.398 . S
C446 C447 1.391 . S
C447 H435 0.950 . S
C447 C443 1.393 . S
C447 C446 1.391 . S
C448 H438 0.950 . S
C448 C449 1.386 . S
C448 C450 1.391 . S
C449 C448 1.386 . S
C449 C453 1.393 . S
C450 H439 0.950 1_554 S
C450 C448 1.391 . S
C450 C451 1.400 1_554 S
C451 C445 1.491 . S
C451 C450 1.400 1_556 S
C451 C452 1.398 1_556 S
C452 H440 0.950 . S
C452 C451 1.398 1_554 S
C452 C453 1.391 . S
C453 H441 0.950 . S
C453 C449 1.393 . S
C453 C452 1.391 . S
H454 C462 0.950 . S
H455 C467 0.950 . S
H456 C464 0.950 . S
H457 C466 0.950 . S
H458 C468 0.950 . S
H459 C470 0.950 . S
H460 C472 0.950 . S
H461 C473 0.950 . S
C462 H454 0.950 . S
C462 C463 1.386 1_655 S
C462 C464 1.391 . S
C463 C462 1.386 1_455 S
C463 C467 1.393 . S
C464 H456 0.950 . S
C464 C462 1.391 . S
C464 C465 1.400 1_655 S
C465 C464 1.400 1_455 S
C465 C466 1.398 . S
C465 C471 1.491 . S
C466 H457 0.950 . S
C466 C465 1.398 . S
C466 C467 1.391 . S
C467 H455 0.950 . S
C467 C463 1.393 . S
C467 C466 1.391 . S
C468 H458 0.950 . S
C468 C469 1.386 . S
C468 C470 1.391 . S
C469 C468 1.386 . S
C469 C473 1.393 1_455 S
C470 H459 0.950 . S
C470 C468 1.391 . S
C470 C471 1.400 . S
C471 C465 1.491 . S
C471 C470 1.400 . S
C471 C472 1.398 1_455 S
C472 H460 0.950 . S
C472 C471 1.398 1_655 S
C472 C473 1.391 . S
C473 H461 0.950 . S
C473 C469 1.393 1_655 S
C473 C472 1.391 . S
C123 C8 1.870 . S
C129 C109 1.915 . S
C143 C26 1.292 . S
C149 C91 1.323 . S
C163 C48 1.434 . S
C169 C103 1.462 . S
C183 C19 1.718 . S
C189 C112 1.778 . S
C209 C94 1.396 . S
C203 C36 1.374 . S
C229 C100 1.616 . S
C223 C59 1.506 . S
C243 C28 1.441 . S
C249 C73 1.493 . S
C263 C46 1.106 . S
C269 C82 1.145 1_655 S
C283 C16 1.409 . S
C289 C64 1.452 . S
C309 C76 1.564 . S
C303 C39 1.496 . S
C329 C85 0.996 . S
C323 C56 0.947 . S
C343 C6 1.341 . S
C349 C67 1.344 . S
C369 C83 1.439 . S
C363 C9 1.397 . S
C383 C21 1.485 . S
C389 C65 1.503 . S
C403 C49 1.455 . S
C409 C74 1.486 . S
C429 C101 1.465 . S
C423 C29 1.447 . S
C449 C110 1.582 . S
C443 C41 1.563 . S
C463 C1 1.490 . S
C469 C92 1.509 . S
