# Generated by pormake.
# Topology rtl, (3,6)-cn, num edge types: 1
# Building blocks:
#     Node 0, Type 0, BuildingBlock: BELTOD_clean_linker_0, # of connection points: 3
#     Node 1, Type 0, BuildingBlock: BELTOD_clean_linker_0, # of connection points: 3
#     Node 2, Type 0, BuildingBlock: BELTOD_clean_linker_0, # of connection points: 3
#     Node 3, Type 0, BuildingBlock: BELTOD_clean_linker_0, # of connection points: 3
#     Node 4, Type 1, BuildingBlock: KUMJIN_clean_sbu_1, # of connection points: 6
#     Node 5, Type 1, BuildingBlock: KUMJIN_clean_sbu_1, # of connection points: 6
#     Edge 6, Type (0, 1), BuildingBlock: OJICUG_clean_linker_0, # of connection points: 2
#     Edge 7, Type (0, 1), BuildingBlock: OJICUG_clean_linker_0, # of connection points: 2
#     Edge 8, Type (0, 1), BuildingBlock: OJICUG_clean_linker_0, # of connection points: 2
#     Edge 9, Type (0, 1), BuildingBlock: OJICUG_clean_linker_0, # of connection points: 2
#     Edge 10, Type (0, 1), BuildingBlock: OJICUG_clean_linker_0, # of connection points: 2
#     Edge 11, Type (0, 1), BuildingBlock: OJICUG_clean_linker_0, # of connection points: 2
#     Edge 12, Type (0, 1), BuildingBlock: OJICUG_clean_linker_0, # of connection points: 2
#     Edge 13, Type (0, 1), BuildingBlock: OJICUG_clean_linker_0, # of connection points: 2
#     Edge 14, Type (0, 1), BuildingBlock: OJICUG_clean_linker_0, # of connection points: 2
#     Edge 15, Type (0, 1), BuildingBlock: OJICUG_clean_linker_0, # of connection points: 2
#     Edge 16, Type (0, 1), BuildingBlock: OJICUG_clean_linker_0, # of connection points: 2
#     Edge 17, Type (0, 1), BuildingBlock: OJICUG_clean_linker_0, # of connection points: 2
# Relax obj value: 0.020
# Max RMSD: 0.119
# Mean RMSD: 0.074
data_MOF--net-rtl--node1-KUMJIN_clean_sbu_1--node2-BELTOD_clean_linker_0--edge1-OJICUG_clean_linker_0
_symmetry_space_group_name_H-M    P1
_symmetry_Int_Tables_number       1
_symmetry_cell_setting            triclinic
loop_
_symmetry_equiv_pos_as_xyz
'x, y, z'
_cell_length_a     28.569516
_cell_length_b     29.27022
_cell_length_c     25.884864
_cell_angle_alpha  75.556099
_cell_angle_beta   99.962384
_cell_angle_gamma 90.559131
loop_
_atom_site_label
_atom_site_type_symbol
_atom_site_fract_x
_atom_site_fract_y
_atom_site_fract_z
_atom_type_partial_charge
P0 P 0.29294 0.90748 0.01885 0.0
H1 H 0.31778 0.94766 0.11311 0.0
H2 H 0.27613 0.95106 0.18764 0.0
H3 H 0.15972 0.877 0.11908 0.0
H4 H 0.20088 0.87452 0.04451 0.0
H5 H 0.38078 0.87762 0.99176 0.0
H6 H 0.41462 0.79988 0.9965 0.0
H7 H 0.30038 0.73365 0.07412 0.0
H8 H 0.2669 0.81125 0.06951 0.0
H9 H 0.22488 0.98518 0.96391 0.0
H10 H 0.27072 0.85595 0.93318 0.0
O11 O 0.33385 0.94868 0.01354 0.0
H12 H 0.17038 0.00312 0.87704 0.0
H13 H 0.21794 0.87427 0.84599 0.0
C14 C 0.2623 0.91091 0.07322 0.0
C15 C 0.28317 0.9324 0.11402 0.0
C16 C 0.2594 0.93438 0.15653 0.0
C17 C 0.21489 0.91395 0.15938 0.0
C18 C 0.19427 0.89247 0.11836 0.0
C19 C 0.21765 0.89118 0.0756 0.0
C20 C 0.32187 0.85033 0.03134 0.0
C21 C 0.36354 0.84637 0.01079 0.0
C22 C 0.38251 0.80196 0.01287 0.0
C23 C 0.35997 0.76071 0.03539 0.0
C24 C 0.31876 0.7648 0.05698 0.0
C25 C 0.29968 0.80924 0.05457 0.0
C26 C 0.25174 0.9192 0.95539 0.0
C27 C 0.22322 0.96068 0.93849 0.0
C28 C 0.19236 0.97105 0.88851 0.0
C29 C 0.18972 0.94024 0.85412 0.0
C30 C 0.21835 0.89853 0.87152 0.0
C31 C 0.24898 0.88813 0.92159 0.0
P32 P 0.70346 0.69236 0.65321 0.0
H33 H 0.74475 0.66904 0.56845 0.0
H34 H 0.71132 0.65852 0.47939 0.0
H35 H 0.57168 0.69855 0.49969 0.0
H36 H 0.60589 0.70908 0.58977 0.0
H37 H 0.78222 0.72186 0.72381 0.0
H38 H 0.83486 0.78835 0.70743 0.0
H39 H 0.7426 0.85029 0.55545 0.0
H40 H 0.69003 0.78386 0.57212 0.0
H41 H 0.63684 0.61789 0.67386 0.0
H42 H 0.67985 0.73914 0.73454 0.0
O43 O 0.74547 0.64949 0.6776 0.0
H44 H 0.58994 0.59203 0.74572 0.0
H45 H 0.633 0.71315 0.80699 0.0
C46 C 0.67754 0.68824 0.58622 0.0
C47 C 0.707 0.67592 0.55363 0.0
C48 C 0.68789 0.67069 0.50228 0.0
C49 C 0.63882 0.67794 0.48232 0.0
C50 C 0.60957 0.69258 0.51413 0.0
C51 C 0.62897 0.69819 0.56565 0.0
C52 C 0.7329 0.74744 0.64867 0.0
C53 C 0.77265 0.75041 0.6877 0.0
C54 C 0.80265 0.78846 0.67833 0.0
C55 C 0.79327 0.82399 0.62965 0.0
C56 C 0.75113 0.82288 0.59282 0.0
C57 C 0.72098 0.78499 0.60245 0.0
C58 C 0.66124 0.68073 0.69847 0.0
C59 C 0.63498 0.63972 0.70169 0.0
C60 C 0.6082 0.62496 0.74273 0.0
C61 C 0.60785 0.65065 0.78178 0.0
C62 C 0.63285 0.6927 0.77738 0.0
C63 C 0.65941 0.70766 0.73593 0.0
P64 P 0.79342 0.17768 0.07232 0.0
H65 H 0.79228 0.22263 0.95952 0.0
H66 H 0.80419 0.19135 0.8841 0.0
H67 H 0.78962 0.04967 0.98 0.0
H68 H 0.77909 0.08166 0.05619 0.0
H69 H 0.78531 0.25119 0.12661 0.0
H70 H 0.72027 0.30505 0.12535 0.0
H71 H 0.62766 0.24085 0.015 0.0
H72 H 0.6932 0.18614 0.01698 0.0
H73 H 0.86889 0.10562 0.11502 0.0
H74 H 0.7486 0.1542 0.16986 0.0
O75 O 0.84076 0.21147 0.06945 0.0
H76 H 0.89998 0.06054 0.20781 0.0
H77 H 0.78055 0.11056 0.26261 0.0
C78 C 0.78641 0.15434 0.01372 0.0
C79 C 0.79039 0.18491 0.96379 0.0
C80 C 0.79672 0.16686 0.92039 0.0
C81 C 0.79894 0.11777 0.92626 0.0
C82 C 0.7893 0.08757 0.97461 0.0
C83 C 0.78324 0.10578 0.01821 0.0
C84 C 0.74412 0.21543 0.07119 0.0
C85 C 0.75097 0.24854 0.10231 0.0
C86 C 0.71376 0.27892 0.10198 0.0
C87 C 0.66912 0.27684 0.0702 0.0
C88 C 0.66194 0.24307 0.03963 0.0
C89 C 0.69925 0.21207 0.04061 0.0
C90 C 0.80672 0.13355 0.13555 0.0
C91 C 0.84836 0.1053 0.14658 0.0
C92 C 0.86606 0.07958 0.19947 0.0
C93 C 0.84262 0.08247 0.24195 0.0
C94 C 0.79911 0.10795 0.23026 0.0
C95 C 0.78102 0.13303 0.17724 0.0
P96 P 0.39058 0.23887 0.48701 0.0
H97 H 0.42434 0.20586 0.60405 0.0
H98 H 0.4331 0.24596 0.67814 0.0
H99 H 0.38299 0.37692 0.56267 0.0
H100 H 0.37359 0.33695 0.48899 0.0
H101 H 0.35587 0.14951 0.46636 0.0
H102 H 0.27992 0.11093 0.47174 0.0
H103 H 0.22137 0.23406 0.50474 0.0
H104 H 0.29757 0.2723 0.49962 0.0
H105 H 0.46725 0.30103 0.45984 0.0
H106 H 0.33461 0.2633 0.37565 0.0
O107 O 0.43178 0.1953 0.5023 0.0
H108 H 0.48267 0.35347 0.37529 0.0
H109 H 0.34989 0.3158 0.2907 0.0
C110 C 0.39933 0.2687 0.54091 0.0
C111 C 0.41566 0.2433 0.59466 0.0
C112 C 0.42057 0.26605 0.63687 0.0
C113 C 0.40914 0.31443 0.62564 0.0
C114 C 0.39256 0.33967 0.57194 0.0
C115 C 0.38733 0.3169 0.52994 0.0
C116 C 0.33269 0.21338 0.4837 0.0
C117 C 0.32658 0.16838 0.47429 0.0
C118 C 0.28302 0.14644 0.47711 0.0
C119 C 0.24473 0.16921 0.48931 0.0
C120 C 0.25043 0.21523 0.49628 0.0
C121 C 0.29395 0.23721 0.49316 0.0
C122 C 0.39953 0.27877 0.42424 0.0
C123 C 0.44121 0.30441 0.4232 0.0
C124 C 0.44994 0.33447 0.37489 0.0
C125 C 0.41738 0.33902 0.32637 0.0
C126 C 0.37573 0.31289 0.3274 0.0
C127 C 0.36684 0.28306 0.376 0.0
Eu128 Eu 0.04286 0.95596 0.52762 0.0
C129 C 0.92899 0.152 0.49485 0.0
N130 N 0.972 0.13597 0.52565 0.0
C131 C 0.00237 0.21373 0.50325 0.0
C132 C 0.92122 0.19996 0.46672 0.0
C133 C 0.00828 0.16607 0.53099 0.0
C134 C 0.95871 0.23075 0.47087 0.0
C135 C 0.84709 0.13653 0.46117 0.0
C136 C 0.89231 0.12049 0.49184 0.0
C137 C 0.83935 0.18428 0.43323 0.0
C138 C 0.87631 0.21584 0.43587 0.0
Eu139 Eu 0.97638 0.05581 0.5734 0.0
N140 N 0.90093 0.07416 0.51833 0.0
C141 C 0.81084 0.10411 0.45973 0.0
C142 C 0.8653 0.04287 0.51877 0.0
C143 C 0.81993 0.05715 0.48895 0.0
H144 H 0.04133 0.15388 0.55796 0.0
H145 H 0.79181 0.03209 0.48917 0.0
H146 H 0.9748 0.85988 0.53899 0.0
H147 H 0.22674 0.97358 0.61901 0.0
H148 H 0.87135 0.00723 0.543 0.0
H149 H 0.77557 0.11511 0.43685 0.0
H150 H 0.1491 1.00067 0.56105 0.0
H151 H 0.03125 0.23746 0.50757 0.0
H152 H 0.80482 0.19719 0.40953 0.0
H153 H 0.86971 0.25259 0.41416 0.0
H154 H 0.98095 0.77651 0.5905 0.0
H155 H 0.95412 0.26782 0.44986 0.0
H156 H 0.23879 0.89078 0.67342 0.0
N157 N 0.04377 0.8758 0.57499 0.0
C158 C 0.08543 0.85865 0.60832 0.0
C159 C 0.01043 0.79931 0.5962 0.0
C160 C 0.09094 0.81075 0.6372 0.0
C161 C 0.00676 0.84684 0.56777 0.0
C162 C 0.05262 0.7812 0.63118 0.0
N163 N 0.11684 0.93509 0.58506 0.0
C164 C 0.15358 0.96507 0.58582 0.0
C165 C 0.16707 0.87162 0.64597 0.0
C166 C 0.12315 0.88885 0.61286 0.0
C167 C 0.20444 0.90273 0.64863 0.0
C168 C 0.19774 0.94956 0.61814 0.0
H169 H 0.05549 0.74421 0.65271 0.0
H170 H 0.13944 0.75695 0.69289 0.0
H171 H 0.20604 0.81012 0.70039 0.0
O172 O 0.08134 0.97355 0.45895 0.0
O173 O 0.05553 0.95397 0.61808 0.0
O174 O 0.04737 0.03037 0.62597 0.0
O175 O 0.05561 0.90339 0.48485 0.0
O176 O 0.06248 0.03287 0.50006 0.0
O177 O 0.05347 0.06995 0.56675 0.0
O178 O 0.93403 0.03962 0.63817 0.0
O179 O 0.96514 0.05869 0.48314 0.0
O180 O 0.9718 0.98218 0.47524 0.0
O181 O 0.96738 0.10708 0.6193 0.0
O182 O 0.96006 0.97825 0.60293 0.0
O183 O 0.96561 0.94362 0.53364 0.0
C184 C 0.06426 0.98667 0.64509 0.0
C185 C 0.06513 0.92819 0.3935 0.0
C186 C 0.09153 0.91953 0.31155 0.0
C187 C 0.04489 0.90936 0.29105 0.0
C188 C 0.01861 0.91852 0.37198 0.0
C189 C 0.00862 0.90933 0.3209 0.0
C190 C 0.10146 0.92948 0.36269 0.0
C191 C 0.07559 0.06404 0.52813 0.0
C192 C 0.07725 0.93165 0.45003 0.0
C193 C 0.13456 0.79368 0.67056 0.0
C194 C 0.17251 0.82397 0.67484 0.0
C195 C 0.95604 0.02627 0.45582 0.0
C196 C 0.95208 0.07913 0.70816 0.0
C197 C 0.9228 0.07992 0.79092 0.0
C198 C 0.96991 0.08283 0.81674 0.0
C199 C 0.99888 0.08164 0.73464 0.0
C200 C 0.91413 0.07829 0.73635 0.0
C201 C 0.00762 0.08366 0.78871 0.0
C202 C 0.94554 0.94794 0.57429 0.0
C203 C 0.94173 0.07994 0.65048 0.0
H204 H 0.03661 0.90129 0.25189 0.0
H205 H 0.99034 0.91675 0.39531 0.0
H206 H 0.97283 0.90127 0.30482 0.0
H207 H 0.13763 0.93614 0.37939 0.0
H208 H 0.97752 0.08544 0.85836 0.0
H209 H 0.0285 0.0827 0.71332 0.0
H210 H 0.87794 0.07663 0.71574 0.0
H211 H 0.04366 0.08636 0.80884 0.0
Eu212 Eu 0.44588 0.48502 0.99456 0.0
C213 C 0.64847 0.55823 0.0806 0.0
N214 N 0.62612 0.51729 0.09715 0.0
C215 C 0.69902 0.4727 0.10987 0.0
C216 C 0.69709 0.55759 0.07649 0.0
C217 C 0.65096 0.47506 0.11372 0.0
C218 C 0.72211 0.51409 0.09075 0.0
C219 C 0.64518 0.6439 0.04971 0.0
C220 C 0.62273 0.60111 0.06758 0.0
C221 C 0.69351 0.64317 0.04545 0.0
C222 C 0.71934 0.60019 0.05877 0.0
Eu223 Eu 0.54601 0.52621 0.10515 0.0
N224 N 0.5756 0.60095 0.07079 0.0
C225 C 0.61824 0.68623 0.03602 0.0
C226 C 0.54949 0.64214 0.0587 0.0
C227 C 0.57025 0.68533 0.04066 0.0
H228 H 0.63443 0.44315 0.1314 0.0
H229 H 0.54934 0.71796 0.03085 0.0
H230 H 0.35559 0.56741 0.97212 0.0
H231 H 0.44048 0.29387 0.05262 0.0
H232 H 0.513 0.64203 0.064 0.0
H233 H 0.6342 0.71979 0.02206 0.0
H234 H 0.47559 0.37131 0.02053 0.0
H235 H 0.7184 0.43903 0.12249 0.0
H236 H 0.71124 0.67571 0.03175 0.0
H237 H 0.75662 0.60029 0.05535 0.0
H238 H 0.27482 0.57053 0.99117 0.0
H239 H 0.75946 0.51217 0.08813 0.0
H240 H 0.36007 0.29071 0.07653 0.0
N241 N 0.36748 0.49381 0.01001 0.0
C242 C 0.34675 0.4527 0.03068 0.0
C243 C 0.29494 0.53729 0.00334 0.0
C244 C 0.29947 0.45275 0.03984 0.0
C245 C 0.34149 0.53548 0.99388 0.0
C246 C 0.27403 0.49586 0.02706 0.0
N247 N 0.41696 0.41061 0.02984 0.0
C248 C 0.44102 0.36987 0.03223 0.0
C249 C 0.3501 0.36677 0.05756 0.0
C250 C 0.37173 0.40999 0.0397 0.0
C251 C 0.37555 0.32461 0.06308 0.0
C252 C 0.42102 0.3262 0.04979 0.0
H253 H 0.23764 0.49734 0.03347 0.0
H254 H 0.24224 0.40927 0.06702 0.0
H255 H 0.28652 0.3341 0.08237 0.0
O256 O 0.46442 0.45766 0.92801 0.0
O257 O 0.45638 0.44312 0.08293 0.0
O258 O 0.47399 0.50241 0.12439 0.0
O259 O 0.3933 0.4855 0.9231 0.0
O260 O 0.52211 0.45744 0.01071 0.0
O261 O 0.54945 0.44989 0.10154 0.0
O262 O 0.56215 0.56496 0.16794 0.0
O263 O 0.55776 0.54211 0.01706 0.0
O264 O 0.48238 0.55291 0.96512 0.0
O265 O 0.57843 0.48872 0.18767 0.0
O266 O 0.47382 0.56359 0.08738 0.0
O267 O 0.43849 0.56173 0.99971 0.0
C268 C 0.45935 0.45973 0.12589 0.0
C269 C 0.41136 0.4724 0.84133 0.0
C270 C 0.40362 0.43883 0.76295 0.0
C271 C 0.37911 0.48022 0.73061 0.0
C272 C 0.3872 0.51376 0.80814 0.0
C273 C 0.3712 0.51753 0.75307 0.0
C274 C 0.41992 0.43503 0.81836 0.0
C275 C 0.54609 0.43412 0.05772 0.0
C276 C 0.42121 0.46465 0.90072 0.0
C277 C 0.27845 0.40979 0.0596 0.0
C278 C 0.30363 0.36695 0.06827 0.0
C279 C 0.52852 0.55855 0.97063 0.0
C280 C 0.5985 0.52783 0.26119 0.0
C281 C 0.60854 0.56693 0.33503 0.0
C282 C 0.63366 0.5267 0.36953 0.0
C283 C 0.62388 0.488 0.29639 0.0
C284 C 0.5913 0.56774 0.2806 0.0
C285 C 0.64145 0.4876 0.35019 0.0
C286 C 0.44377 0.58042 0.04191 0.0
C287 C 0.57952 0.52719 0.20471 0.0
H288 H 0.3658 0.48347 0.68798 0.0
H289 H 0.37948 0.54258 0.82505 0.0
H290 H 0.35187 0.54915 0.72787 0.0
H291 H 0.43766 0.40254 0.8438 0.0
H292 H 0.64765 0.52579 0.41147 0.0
H293 H 0.63027 0.45712 0.28233 0.0
H294 H 0.57203 0.5989 0.25395 0.0
H295 H 0.66114 0.45686 0.37704 0.0
C296 C 0.17805 0.14634 0.5414 0.0
C297 C 0.19991 0.14418 0.49735 0.0
H298 H 0.12251 0.12227 0.58628 0.0
C299 C 0.17968 0.1165 0.46256 0.0
H300 H 0.19321 0.16663 0.56956 0.0
C301 C 0.13876 0.09133 0.47183 0.0
C302 C 0.11725 0.09302 0.51633 0.0
H303 H 0.19549 0.11429 0.42809 0.0
H304 H 0.12434 0.07013 0.44439 0.0
C305 C 0.1374 0.12089 0.55095 0.0
C306 C 0.39321 0.70549 0.9893 0.0
C307 C 0.37899 0.71359 0.03577 0.0
H308 H 0.42388 0.6562 0.95437 0.0
C309 C 0.38331 0.67643 0.08283 0.0
H310 H 0.38993 0.73342 0.95233 0.0
C311 C 0.40285 0.63258 0.08397 0.0
C312 C 0.41764 0.62471 0.03782 0.0
H313 H 0.37288 0.68167 0.11929 0.0
H314 H 0.40709 0.60494 0.1213 0.0
C315 C 0.41199 0.66124 0.99017 0.0
C316 C 0.85453 0.8815 0.65237 0.0
C317 C 0.8299 0.85865 0.61467 0.0
H318 H 0.91035 0.92796 0.66909 0.0
C319 C 0.84291 0.86629 0.56333 0.0
H320 H 0.8451 0.87635 0.69215 0.0
C321 C 0.88044 0.89526 0.55035 0.0
C322 C 0.90565 0.91747 0.58831 0.0
H323 H 0.82498 0.84869 0.53366 0.0
H324 H 0.88973 0.90017 0.51053 0.0
C325 C 0.89184 0.91096 0.63915 0.0
C326 C 0.62106 0.32153 0.11416 0.0
C327 C 0.63169 0.31229 0.06673 0.0
H328 H 0.58485 0.36705 0.14845 0.0
C329 C 0.61063 0.34082 0.01613 0.0
H330 H 0.63663 0.2996 0.15361 0.0
C331 C 0.58155 0.37976 0.0131 0.0
C332 C 0.57303 0.3906 0.06067 0.0
H333 H 0.61867 0.33451 0.97905 0.0
H334 H 0.56729 0.40233 0.97357 0.0
C335 C 0.59173 0.36021 0.11116 0.0
C336 C 0.18188 0.95686 0.2191 0.0
C337 C 0.18939 0.91462 0.20458 0.0
H338 H 0.14469 0.99148 0.26512 0.0
C339 C 0.16908 0.87325 0.23069 0.0
H340 H 0.197 0.98929 0.19948 0.0
C341 C 0.13933 0.87458 0.26779 0.0
C342 C 0.12949 0.91724 0.27985 0.0
H343 H 0.17505 0.84004 0.22108 0.0
H344 H 0.12263 0.84253 0.28573 0.0
C345 C 0.15207 0.95815 0.25655 0.0
C346 C 0.61247 0.6252 0.88196 0.0
C347 C 0.5857 0.63074 0.82984 0.0
H348 H 0.61658 0.59603 0.96655 0.0
C349 C 0.53961 0.61333 0.82422 0.0
H350 H 0.64848 0.63744 0.8874 0.0
C351 C 0.52068 0.59083 0.87004 0.0
C352 C 0.54794 0.58425 0.92231 0.0
H353 H 0.51841 0.61679 0.78438 0.0
H354 H 0.48516 0.57747 0.86433 0.0
C355 C 0.5941 0.60149 0.92752 0.0
C356 C 0.88066 0.10002 0.32793 0.0
C357 C 0.86768 0.06639 0.29835 0.0
H358 H 0.92109 0.11438 0.39883 0.0
C359 C 0.88295 0.01913 0.32093 0.0
H360 H 0.87004 0.13689 0.3107 0.0
C361 C 0.91082 0.00573 0.37272 0.0
C362 C 0.92502 0.03969 0.40189 0.0
H363 H 0.87362 0.99278 0.29837 0.0
H364 H 0.92175 0.96896 0.38944 0.0
C365 C 0.90972 0.08699 0.37866 0.0
C366 C 0.37523 0.33745 0.69839 0.0
C367 C 0.41268 0.33902 0.66942 0.0
H368 H 0.34336 0.36815 0.75178 0.0
C369 C 0.45028 0.36916 0.67728 0.0
H370 H 0.34568 0.31475 0.69233 0.0
C371 C 0.44918 0.39926 0.71147 0.0
C372 C 0.41033 0.39976 0.73791 0.0
H373 H 0.47931 0.371 0.65496 0.0
H374 H 0.47727 0.42403 0.71486 0.0
C375 C 0.37396 0.36779 0.73231 0.0
C376 C 0.64274 0.67172 0.38833 0.0
C377 C 0.61851 0.66306 0.43258 0.0
H378 H 0.65748 0.6477 0.3208 0.0
C379 C 0.58139 0.63117 0.43422 0.0
H380 H 0.67098 0.69672 0.38562 0.0
C381 C 0.57363 0.60338 0.39702 0.0
C382 C 0.60243 0.60761 0.35746 0.0
H383 H 0.56204 0.62375 0.4677 0.0
H384 H 0.54855 0.57532 0.40263 0.0
C385 C 0.6348 0.64402 0.351 0.0
C386 C 0.81369 0.12263 0.83184 0.0
C387 C 0.82068 0.09893 0.88722 0.0
H388 H 0.84088 0.13516 0.75751 0.0
C389 C 0.85592 0.06259 0.90715 0.0
H390 H 0.78625 0.15015 0.81493 0.0
C391 C 0.88683 0.05389 0.87426 0.0
C392 C 0.88322 0.08124 0.82078 0.0
H393 H 0.86259 0.04356 0.94947 0.0
H394 H 0.91555 0.02777 0.89173 0.0
C395 C 0.84478 0.11388 0.79886 0.0
C396 C 0.44422 0.41593 0.2731 0.0
C397 C 0.42742 0.37031 0.27485 0.0
H398 H 0.46699 0.48006 0.22485 0.0
C399 C 0.42144 0.35435 0.22734 0.0
H400 H 0.44916 0.42926 0.30905 0.0
C401 C 0.43229 0.38318 0.17935 0.0
C402 C 0.4483 0.42911 0.17718 0.0
H403 H 0.4094 0.31911 0.22756 0.0
H404 H 0.42854 0.36911 0.14418 0.0
C405 C 0.45428 0.44509 0.22476 0.0
C406 C 0.13398 0.91621 0.77923 0.0
C407 C 0.15778 0.95187 0.80016 0.0
H408 H 0.08583 0.89917 0.71401 0.0
C409 C 0.1509 0.99887 0.76894 0.0
H410 H 0.13786 0.87969 0.80225 0.0
C411 C 0.12048 0.01004 0.71877 0.0
C412 C 0.09658 0.97446 0.69816 0.0
H413 H 0.16944 0.02717 0.78291 0.0
H414 H 0.11616 0.04661 0.69582 0.0
C415 C 0.10394 0.92737 0.72869 0.0
loop_
_geom_bond_atom_site_label_1
_geom_bond_atom_site_label_2
_geom_bond_distance
_geom_bond_site_symmetry_2
_ccdc_geom_bond_type
P0 O11 1.490 . S
P0 C14 1.812 . S
P0 C20 1.803 . S
P0 C26 1.819 1_554 S
H1 C15 0.941 . S
H2 C16 0.939 . S
H3 C18 0.940 . S
H4 C19 0.940 . S
H5 C21 0.939 1_556 S
H6 C22 0.942 . S
H7 C24 0.940 . S
H8 C25 0.939 . S
H9 C27 0.941 . S
H10 C31 0.939 . S
O11 P0 1.490 . S
H12 C28 0.939 1_545 S
H13 C30 0.940 . S
C14 P0 1.812 . S
C14 C15 1.389 . S
C14 C19 1.391 . S
C15 H1 0.941 . S
C15 C14 1.389 . S
C15 C16 1.397 . S
C16 H2 0.939 . S
C16 C15 1.397 . S
C16 C17 1.378 . S
C17 C16 1.378 . S
C17 C18 1.378 . S
C18 H3 0.940 . S
C18 C17 1.378 . S
C18 C19 1.396 . S
C19 H4 0.940 . S
C19 C14 1.391 . S
C19 C18 1.396 . S
C20 P0 1.803 . S
C20 C21 1.378 . S
C20 C25 1.400 . S
C21 H5 0.939 1_554 S
C21 C20 1.378 . S
C21 C22 1.361 . S
C22 H6 0.942 . S
C22 C21 1.361 . S
C22 C23 1.369 . S
C23 C22 1.369 . S
C23 C24 1.404 . S
C24 H7 0.940 . S
C24 C23 1.404 . S
C24 C25 1.389 . S
C25 H8 0.939 . S
C25 C20 1.400 . S
C25 C24 1.389 . S
C26 P0 1.819 1_556 S
C26 C27 1.391 . S
C26 C31 1.391 . S
C27 H9 0.941 . S
C27 C26 1.391 . S
C27 C28 1.396 . S
C28 H12 0.939 1_565 S
C28 C27 1.396 . S
C28 C29 1.397 . S
C29 C28 1.397 . S
C29 C30 1.385 . S
C30 H13 0.940 . S
C30 C29 1.385 . S
C30 C31 1.388 . S
C31 H10 0.939 . S
C31 C26 1.391 . S
C31 C30 1.388 . S
P32 O43 1.490 . S
P32 C46 1.812 . S
P32 C52 1.803 . S
P32 C58 1.819 . S
H33 C47 0.941 . S
H34 C48 0.939 . S
H35 C50 0.940 . S
H36 C51 0.940 . S
H37 C53 0.939 . S
H38 C54 0.942 . S
H39 C56 0.940 . S
H40 C57 0.939 . S
H41 C59 0.941 . S
H42 C63 0.939 . S
O43 P32 1.490 . S
H44 C60 0.939 . S
H45 C62 0.940 . S
C46 P32 1.812 . S
C46 C47 1.389 . S
C46 C51 1.391 . S
C47 H33 0.941 . S
C47 C46 1.389 . S
C47 C48 1.397 . S
C48 H34 0.939 . S
C48 C47 1.397 . S
C48 C49 1.378 . S
C49 C48 1.378 . S
C49 C50 1.378 . S
C50 H35 0.940 . S
C50 C49 1.378 . S
C50 C51 1.396 . S
C51 H36 0.940 . S
C51 C46 1.391 . S
C51 C50 1.396 . S
C52 P32 1.803 . S
C52 C53 1.378 . S
C52 C57 1.400 . S
C53 H37 0.939 . S
C53 C52 1.378 . S
C53 C54 1.361 . S
C54 H38 0.942 . S
C54 C53 1.361 . S
C54 C55 1.369 . S
C55 C54 1.369 . S
C55 C56 1.404 . S
C56 H39 0.940 . S
C56 C55 1.404 . S
C56 C57 1.389 . S
C57 H40 0.939 . S
C57 C52 1.400 . S
C57 C56 1.389 . S
C58 P32 1.819 . S
C58 C59 1.391 . S
C58 C63 1.391 . S
C59 H41 0.941 . S
C59 C58 1.391 . S
C59 C60 1.396 . S
C60 H44 0.939 . S
C60 C59 1.396 . S
C60 C61 1.397 . S
C61 C60 1.397 . S
C61 C62 1.385 . S
C62 H45 0.940 . S
C62 C61 1.385 . S
C62 C63 1.388 . S
C63 H42 0.939 . S
C63 C58 1.391 . S
C63 C62 1.388 . S
P64 O75 1.490 . S
P64 C78 1.812 . S
P64 C84 1.803 . S
P64 C90 1.819 . S
H65 C79 0.941 . S
H66 C80 0.939 . S
H67 C82 0.940 1_554 S
H68 C83 0.940 . S
H69 C85 0.939 . S
H70 C86 0.942 . S
H71 C88 0.940 . S
H72 C89 0.939 . S
H73 C91 0.941 . S
H74 C95 0.939 . S
O75 P64 1.490 . S
H76 C92 0.939 . S
H77 C94 0.940 . S
C78 P64 1.812 . S
C78 C79 1.389 1_554 S
C78 C83 1.391 . S
C79 H65 0.941 . S
C79 C78 1.389 1_556 S
C79 C80 1.397 . S
C80 H66 0.939 . S
C80 C79 1.397 . S
C80 C81 1.378 . S
C81 C80 1.378 . S
C81 C82 1.378 . S
C82 H67 0.940 1_556 S
C82 C81 1.378 . S
C82 C83 1.396 1_556 S
C83 H68 0.940 . S
C83 C78 1.391 . S
C83 C82 1.396 1_554 S
C84 P64 1.803 . S
C84 C85 1.378 . S
C84 C89 1.400 . S
C85 H69 0.939 . S
C85 C84 1.378 . S
C85 C86 1.361 . S
C86 H70 0.942 . S
C86 C85 1.361 . S
C86 C87 1.369 . S
C87 C86 1.369 . S
C87 C88 1.404 . S
C88 H71 0.940 . S
C88 C87 1.404 . S
C88 C89 1.389 . S
C89 H72 0.939 . S
C89 C84 1.400 . S
C89 C88 1.389 . S
C90 P64 1.819 . S
C90 C91 1.391 . S
C90 C95 1.391 . S
C91 H73 0.941 . S
C91 C90 1.391 . S
C91 C92 1.396 . S
C92 H76 0.939 . S
C92 C91 1.396 . S
C92 C93 1.397 . S
C93 C92 1.397 . S
C93 C94 1.385 . S
C94 H77 0.940 . S
C94 C93 1.385 . S
C94 C95 1.388 . S
C95 H74 0.939 . S
C95 C90 1.391 . S
C95 C94 1.388 . S
P96 O107 1.490 . S
P96 C110 1.812 . S
P96 C116 1.803 . S
P96 C122 1.819 . S
H97 C111 0.941 . S
H98 C112 0.939 . S
H99 C114 0.940 . S
H100 C115 0.940 . S
H101 C117 0.939 . S
H102 C118 0.942 . S
H103 C120 0.940 . S
H104 C121 0.939 . S
H105 C123 0.941 . S
H106 C127 0.939 . S
O107 P96 1.490 . S
H108 C124 0.939 . S
H109 C126 0.940 . S
C110 P96 1.812 . S
C110 C111 1.389 . S
C110 C115 1.391 . S
C111 H97 0.941 . S
C111 C110 1.389 . S
C111 C112 1.397 . S
C112 H98 0.939 . S
C112 C111 1.397 . S
C112 C113 1.378 . S
C113 C112 1.378 . S
C113 C114 1.378 . S
C114 H99 0.940 . S
C114 C113 1.378 . S
C114 C115 1.396 . S
C115 H100 0.940 . S
C115 C110 1.391 . S
C115 C114 1.396 . S
C116 P96 1.803 . S
C116 C117 1.378 . S
C116 C121 1.400 . S
C117 H101 0.939 . S
C117 C116 1.378 . S
C117 C118 1.361 . S
C118 H102 0.942 . S
C118 C117 1.361 . S
C118 C119 1.369 . S
C119 C118 1.369 . S
C119 C120 1.404 . S
C120 H103 0.940 . S
C120 C119 1.404 . S
C120 C121 1.389 . S
C121 H104 0.939 . S
C121 C116 1.400 . S
C121 C120 1.389 . S
C122 P96 1.819 . S
C122 C123 1.391 . S
C122 C127 1.391 . S
C123 H105 0.941 . S
C123 C122 1.391 . S
C123 C124 1.396 . S
C124 H108 0.939 . S
C124 C123 1.396 . S
C124 C125 1.397 . S
C125 C124 1.397 . S
C125 C126 1.385 . S
C126 H109 0.940 . S
C126 C125 1.385 . S
C126 C127 1.388 . S
C127 H106 0.939 . S
C127 C122 1.391 . S
C127 C126 1.388 . S
Eu128 N157 2.600 . S
Eu128 N163 2.562 . S
Eu128 O172 2.462 . S
Eu128 O173 2.373 . S
Eu128 O175 2.432 . S
Eu128 O176 2.291 1_565 S
Eu128 O180 2.335 1_465 S
Eu128 O183 2.372 1_455 S
Eu128 C192 2.787 . S
C129 N130 1.365 . S
C129 C132 1.405 . S
C129 C136 1.448 . S
N130 C129 1.365 . S
N130 C133 1.319 . S
N130 Eu139 2.600 . S
C131 C133 1.397 . S
C131 C134 1.367 . S
C131 H151 0.931 1_655 S
C132 C129 1.405 . S
C132 C134 1.403 . S
C132 C138 1.439 . S
C133 N130 1.319 . S
C133 C131 1.397 . S
C133 H144 0.930 1_655 S
C134 C131 1.367 . S
C134 C132 1.403 . S
C134 H155 0.929 . S
C135 C136 1.430 . S
C135 C137 1.387 . S
C135 C141 1.404 . S
C136 C129 1.448 . S
C136 C135 1.430 . S
C136 N140 1.351 . S
C137 C135 1.387 . S
C137 C138 1.374 . S
C137 H152 0.931 . S
C138 C132 1.439 . S
C138 C137 1.374 . S
C138 H153 0.931 . S
Eu139 N130 2.600 . S
Eu139 N140 2.562 . S
Eu139 O174 2.335 1_655 S
Eu139 O177 2.372 1_655 S
Eu139 O178 2.462 . S
Eu139 O179 2.373 . S
Eu139 O181 2.432 . S
Eu139 O182 2.291 1_545 S
Eu139 C203 2.787 . S
N140 C136 1.351 . S
N140 Eu139 2.562 . S
N140 C142 1.325 . S
C141 C135 1.404 . S
C141 C143 1.366 . S
C141 H149 0.930 . S
C142 N140 1.325 . S
C142 C143 1.416 . S
C142 H148 0.929 . S
C143 C141 1.366 . S
C143 C142 1.416 . S
C143 H145 0.930 . S
H144 C133 0.930 1_455 S
H145 C143 0.930 . S
H146 C161 0.930 1_655 S
H147 C168 0.930 . S
H148 C142 0.929 . S
H149 C141 0.930 . S
H150 C164 0.929 . S
H151 C131 0.931 1_455 S
H152 C137 0.931 . S
H153 C138 0.931 . S
H154 C159 0.931 1_655 S
H155 C134 0.929 . S
H156 C167 0.930 . S
N157 Eu128 2.600 . S
N157 C158 1.365 . S
N157 C161 1.319 . S
C158 N157 1.365 . S
C158 C160 1.405 . S
C158 C166 1.448 . S
C159 H154 0.931 1_455 S
C159 C161 1.397 . S
C159 C162 1.367 . S
C160 C158 1.405 . S
C160 C162 1.403 . S
C160 C193 1.439 . S
C161 H146 0.930 1_455 S
C161 N157 1.319 . S
C161 C159 1.397 . S
C162 C159 1.367 . S
C162 C160 1.403 . S
C162 H169 0.929 . S
N163 Eu128 2.562 . S
N163 C164 1.325 . S
N163 C166 1.351 . S
C164 H150 0.929 . S
C164 N163 1.325 . S
C164 C168 1.416 . S
C165 C166 1.430 . S
C165 C167 1.404 . S
C165 C194 1.387 . S
C166 C158 1.448 . S
C166 N163 1.351 . S
C166 C165 1.430 . S
C167 H156 0.930 . S
C167 C165 1.404 . S
C167 C168 1.366 . S
C168 H147 0.930 . S
C168 C164 1.416 . S
C168 C167 1.366 . S
H169 C162 0.929 . S
H170 C193 0.931 . S
H171 C194 0.931 . S
O172 Eu128 2.462 . S
O172 C192 1.252 . S
O173 Eu128 2.373 . S
O173 C184 1.249 . S
O174 Eu139 2.335 1_455 S
O174 C184 1.264 1_545 S
O175 Eu128 2.432 . S
O175 C192 1.268 . S
O176 Eu128 2.291 1_545 S
O176 C191 1.255 . S
O177 Eu139 2.372 1_455 S
O177 C191 1.257 . S
O178 Eu139 2.462 . S
O178 C203 1.252 . S
O179 Eu139 2.373 . S
O179 C195 1.249 . S
O180 Eu128 2.335 1_645 S
O180 C195 1.264 . S
O181 Eu139 2.432 . S
O181 C203 1.268 . S
O182 Eu139 2.291 1_565 S
O182 C202 1.255 . S
O183 Eu128 2.372 1_655 S
O183 C202 1.257 . S
C184 O173 1.249 . S
C184 O174 1.264 1_565 S
C185 C188 1.382 . S
C185 C190 1.390 . S
C185 C192 1.506 . S
C186 C187 1.398 . S
C186 C190 1.392 . S
C187 C186 1.398 . S
C187 C189 1.372 . S
C187 H204 0.931 . S
C188 C185 1.382 . S
C188 C189 1.390 . S
C188 H205 0.931 . S
C189 C187 1.372 . S
C189 C188 1.390 . S
C189 H206 0.929 . S
C190 C185 1.390 . S
C190 C186 1.392 . S
C190 H207 0.930 . S
C191 O176 1.255 . S
C191 O177 1.257 . S
C192 Eu128 2.787 . S
C192 O172 1.252 . S
C192 O175 1.268 . S
C192 C185 1.506 . S
C193 C160 1.439 . S
C193 H170 0.931 . S
C193 C194 1.374 . S
C194 C165 1.387 . S
C194 H171 0.931 . S
C194 C193 1.374 . S
C195 O179 1.249 . S
C195 O180 1.264 . S
C196 C199 1.382 . S
C196 C200 1.390 . S
C196 C203 1.506 . S
C197 C198 1.398 . S
C197 C200 1.392 . S
C198 C197 1.398 . S
C198 C201 1.372 . S
C198 H208 0.931 . S
C199 C196 1.382 . S
C199 C201 1.390 . S
C199 H209 0.931 . S
C200 C196 1.390 . S
C200 C197 1.392 . S
C200 H210 0.930 . S
C201 C198 1.372 . S
C201 C199 1.390 . S
C201 H211 0.929 . S
C202 O182 1.255 . S
C202 O183 1.257 . S
C203 Eu139 2.787 . S
C203 O178 1.252 . S
C203 O181 1.268 . S
C203 C196 1.506 . S
H204 C187 0.931 . S
H205 C188 0.931 . S
H206 C189 0.929 . S
H207 C190 0.930 . S
H208 C198 0.931 . S
H209 C199 0.931 . S
H210 C200 0.930 . S
H211 C201 0.929 . S
Eu212 N241 2.599 1_556 S
Eu212 N247 2.561 1_556 S
Eu212 O256 2.467 . S
Eu212 O257 2.367 1_556 S
Eu212 O259 2.437 . S
Eu212 O260 2.290 1_556 S
Eu212 O264 2.338 . S
Eu212 O267 2.370 1_556 S
Eu212 C276 2.792 . S
C213 N214 1.365 . S
C213 C216 1.405 . S
C213 C220 1.448 . S
N214 C213 1.365 . S
N214 C217 1.319 . S
N214 Eu223 2.600 . S
C215 C217 1.397 . S
C215 C218 1.367 . S
C215 H235 0.931 . S
C216 C213 1.405 . S
C216 C218 1.403 . S
C216 C222 1.439 . S
C217 N214 1.319 . S
C217 C215 1.397 . S
C217 H228 0.930 . S
C218 C215 1.367 . S
C218 C216 1.403 . S
C218 H239 0.929 . S
C219 C220 1.430 . S
C219 C221 1.387 . S
C219 C225 1.404 . S
C220 C213 1.448 . S
C220 C219 1.430 . S
C220 N224 1.351 . S
C221 C219 1.387 . S
C221 C222 1.374 . S
C221 H236 0.931 . S
C222 C216 1.439 . S
C222 C221 1.374 . S
C222 H237 0.931 . S
Eu223 N214 2.600 . S
Eu223 N224 2.562 . S
Eu223 O258 2.335 . S
Eu223 O261 2.372 . S
Eu223 O262 2.462 . S
Eu223 O263 2.373 . S
Eu223 O265 2.432 . S
Eu223 O266 2.291 . S
Eu223 C287 2.787 . S
N224 C220 1.351 . S
N224 Eu223 2.562 . S
N224 C226 1.325 . S
C225 C219 1.404 . S
C225 C227 1.366 . S
C225 H233 0.930 . S
C226 N224 1.325 . S
C226 C227 1.416 . S
C226 H232 0.929 . S
C227 C225 1.366 . S
C227 C226 1.416 . S
C227 H229 0.930 . S
H228 C217 0.930 . S
H229 C227 0.930 . S
H230 C245 0.930 . S
H231 C252 0.930 . S
H232 C226 0.929 . S
H233 C225 0.930 . S
H234 C248 0.929 . S
H235 C215 0.931 . S
H236 C221 0.931 . S
H237 C222 0.931 . S
H238 C243 0.931 . S
H239 C218 0.929 . S
H240 C251 0.930 . S
N241 Eu212 2.599 1_554 S
N241 C242 1.365 . S
N241 C245 1.319 1_554 S
C242 N241 1.365 . S
C242 C244 1.405 . S
C242 C250 1.448 . S
C243 H238 0.931 . S
C243 C245 1.397 . S
C243 C246 1.367 1_556 S
C244 C242 1.405 . S
C244 C246 1.403 . S
C244 C277 1.439 . S
C245 H230 0.930 . S
C245 N241 1.319 1_556 S
C245 C243 1.397 . S
C246 C243 1.367 1_554 S
C246 C244 1.403 . S
C246 H253 0.929 . S
N247 Eu212 2.561 1_554 S
N247 C248 1.325 . S
N247 C250 1.351 . S
C248 H234 0.929 . S
C248 N247 1.325 . S
C248 C252 1.416 . S
C249 C250 1.430 . S
C249 C251 1.404 . S
C249 C278 1.387 . S
C250 C242 1.448 . S
C250 N247 1.351 . S
C250 C249 1.430 . S
C251 H240 0.930 . S
C251 C249 1.404 . S
C251 C252 1.366 . S
C252 H231 0.930 . S
C252 C248 1.416 . S
C252 C251 1.366 . S
H253 C246 0.929 . S
H254 C277 0.931 . S
H255 C278 0.931 . S
O256 Eu212 2.467 . S
O256 C276 1.252 . S
O257 Eu212 2.367 1_554 S
O257 C268 1.249 . S
O258 Eu223 2.335 . S
O258 C268 1.264 . S
O259 Eu212 2.437 . S
O259 C276 1.268 . S
O260 Eu212 2.290 1_554 S
O260 C275 1.255 . S
O261 Eu223 2.372 . S
O261 C275 1.257 . S
O262 Eu223 2.462 . S
O262 C287 1.252 . S
O263 Eu223 2.373 . S
O263 C279 1.249 1_554 S
O264 Eu212 2.338 . S
O264 C279 1.264 . S
O265 Eu223 2.432 . S
O265 C287 1.268 . S
O266 Eu223 2.291 . S
O266 C286 1.255 . S
O267 Eu212 2.370 1_554 S
O267 C286 1.257 . S
C268 O257 1.249 . S
C268 O258 1.264 . S
C269 C272 1.382 . S
C269 C274 1.390 . S
C269 C276 1.506 . S
C270 C271 1.398 . S
C270 C274 1.392 . S
C271 C270 1.398 . S
C271 C273 1.372 . S
C271 H288 0.931 . S
C272 C269 1.382 . S
C272 C273 1.390 . S
C272 H289 0.931 . S
C273 C271 1.372 . S
C273 C272 1.390 . S
C273 H290 0.929 . S
C274 C269 1.390 . S
C274 C270 1.392 . S
C274 H291 0.930 . S
C275 O260 1.255 . S
C275 O261 1.257 . S
C276 Eu212 2.792 . S
C276 O256 1.252 . S
C276 O259 1.268 . S
C276 C269 1.506 . S
C277 C244 1.439 . S
C277 H254 0.931 . S
C277 C278 1.374 . S
C278 C249 1.387 . S
C278 H255 0.931 . S
C278 C277 1.374 . S
C279 O263 1.249 1_556 S
C279 O264 1.264 . S
C280 C283 1.382 . S
C280 C284 1.390 . S
C280 C287 1.506 . S
C281 C282 1.398 . S
C281 C284 1.392 . S
C282 C281 1.398 . S
C282 C285 1.372 . S
C282 H292 0.931 . S
C283 C280 1.382 . S
C283 C285 1.390 . S
C283 H293 0.931 . S
C284 C280 1.390 . S
C284 C281 1.392 . S
C284 H294 0.930 . S
C285 C282 1.372 . S
C285 C283 1.390 . S
C285 H295 0.929 . S
C286 O266 1.255 . S
C286 O267 1.257 . S
C287 Eu223 2.787 . S
C287 O262 1.252 . S
C287 O265 1.268 . S
C287 C280 1.506 . S
H288 C271 0.931 . S
H289 C272 0.931 . S
H290 C273 0.929 . S
H291 C274 0.930 . S
H292 C282 0.931 . S
H293 C283 0.931 . S
H294 C284 0.930 . S
H295 C285 0.929 . S
C296 C297 1.387 . S
C296 H300 0.950 . S
C296 C305 1.390 . S
C297 C296 1.387 . S
C297 C299 1.387 . S
H298 C305 0.950 . S
C299 C297 1.387 . S
C299 C301 1.390 . S
C299 H303 0.950 . S
H300 C296 0.950 . S
C301 C299 1.390 . S
C301 C302 1.387 . S
C301 H304 0.950 . S
C302 C301 1.387 . S
C302 C305 1.387 . S
H303 C299 0.950 . S
H304 C301 0.950 . S
C305 C296 1.390 . S
C305 H298 0.950 . S
C305 C302 1.387 . S
C306 C307 1.387 . S
C306 H310 0.950 1_554 S
C306 C315 1.390 . S
C307 C306 1.387 . S
C307 C309 1.387 . S
H308 C315 0.950 1_556 S
C309 C307 1.387 . S
C309 C311 1.390 . S
C309 H313 0.950 . S
H310 C306 0.950 1_556 S
C311 C309 1.390 . S
C311 C312 1.387 . S
C311 H314 0.950 . S
C312 C311 1.387 . S
C312 C315 1.387 . S
H313 C309 0.950 . S
H314 C311 0.950 . S
C315 C306 1.390 . S
C315 H308 0.950 1_554 S
C315 C312 1.387 . S
C316 C317 1.387 . S
C316 H320 0.950 . S
C316 C325 1.390 . S
C317 C316 1.387 . S
C317 C319 1.387 . S
H318 C325 0.950 . S
C319 C317 1.387 . S
C319 C321 1.390 . S
C319 H323 0.950 . S
H320 C316 0.950 . S
C321 C319 1.390 . S
C321 C322 1.387 . S
C321 H324 0.950 . S
C322 C321 1.387 . S
C322 C325 1.387 . S
H323 C319 0.950 . S
H324 C321 0.950 . S
C325 C316 1.390 . S
C325 H318 0.950 . S
C325 C322 1.387 . S
C326 C327 1.387 . S
C326 H330 0.950 . S
C326 C335 1.390 . S
C327 C326 1.387 . S
C327 C329 1.387 . S
H328 C335 0.950 . S
C329 C327 1.387 . S
C329 C331 1.390 . S
C329 H333 0.950 1_554 S
H330 C326 0.950 . S
C331 C329 1.390 . S
C331 C332 1.387 . S
C331 H334 0.950 1_554 S
C332 C331 1.387 . S
C332 C335 1.387 . S
H333 C329 0.950 1_556 S
H334 C331 0.950 1_556 S
C335 C326 1.390 . S
C335 H328 0.950 . S
C335 C332 1.387 . S
C336 C337 1.387 . S
C336 H340 0.950 . S
C336 C345 1.390 . S
C337 C336 1.387 . S
C337 C339 1.387 . S
H338 C345 0.950 1_545 S
C339 C337 1.387 . S
C339 C341 1.390 . S
C339 H343 0.950 . S
H340 C336 0.950 . S
C341 C339 1.390 . S
C341 C342 1.387 . S
C341 H344 0.950 . S
C342 C341 1.387 . S
C342 C345 1.387 . S
H343 C339 0.950 . S
H344 C341 0.950 . S
C345 C336 1.390 . S
C345 H338 0.950 1_565 S
C345 C342 1.387 . S
C346 C347 1.387 . S
C346 H350 0.950 . S
C346 C355 1.390 . S
C347 C346 1.387 . S
C347 C349 1.387 . S
H348 C355 0.950 . S
C349 C347 1.387 . S
C349 C351 1.390 . S
C349 H353 0.950 . S
H350 C346 0.950 . S
C351 C349 1.390 . S
C351 C352 1.387 . S
C351 H354 0.950 . S
C352 C351 1.387 . S
C352 C355 1.387 . S
H353 C349 0.950 . S
H354 C351 0.950 . S
C355 C346 1.390 . S
C355 H348 0.950 . S
C355 C352 1.387 . S
C356 C357 1.387 . S
C356 H360 0.950 . S
C356 C365 1.390 . S
C357 C356 1.387 . S
C357 C359 1.387 . S
H358 C365 0.950 . S
C359 C357 1.387 . S
C359 C361 1.390 . S
C359 H363 0.950 1_545 S
H360 C356 0.950 . S
C361 C359 1.390 . S
C361 C362 1.387 . S
C361 H364 0.950 1_545 S
C362 C361 1.387 . S
C362 C365 1.387 . S
H363 C359 0.950 1_565 S
H364 C361 0.950 1_565 S
C365 C356 1.390 . S
C365 H358 0.950 . S
C365 C362 1.387 . S
C366 C367 1.387 . S
C366 H370 0.950 . S
C366 C375 1.390 . S
C367 C366 1.387 . S
C367 C369 1.387 . S
H368 C375 0.950 . S
C369 C367 1.387 . S
C369 C371 1.390 . S
C369 H373 0.950 . S
H370 C366 0.950 . S
C371 C369 1.390 . S
C371 C372 1.387 . S
C371 H374 0.950 . S
C372 C371 1.387 . S
C372 C375 1.387 . S
H373 C369 0.950 . S
H374 C371 0.950 . S
C375 C366 1.390 . S
C375 H368 0.950 . S
C375 C372 1.387 . S
C376 C377 1.387 . S
C376 H380 0.950 . S
C376 C385 1.390 . S
C377 C376 1.387 . S
C377 C379 1.387 . S
H378 C385 0.950 . S
C379 C377 1.387 . S
C379 C381 1.390 . S
C379 H383 0.950 . S
H380 C376 0.950 . S
C381 C379 1.390 . S
C381 C382 1.387 . S
C381 H384 0.950 . S
C382 C381 1.387 . S
C382 C385 1.387 . S
H383 C379 0.950 . S
H384 C381 0.950 . S
C385 C376 1.390 . S
C385 H378 0.950 . S
C385 C382 1.387 . S
C386 C387 1.387 . S
C386 H390 0.950 . S
C386 C395 1.390 . S
C387 C386 1.387 . S
C387 C389 1.387 . S
H388 C395 0.950 . S
C389 C387 1.387 . S
C389 C391 1.390 . S
C389 H393 0.950 . S
H390 C386 0.950 . S
C391 C389 1.390 . S
C391 C392 1.387 . S
C391 H394 0.950 1_545 S
C392 C391 1.387 . S
C392 C395 1.387 . S
H393 C389 0.950 . S
H394 C391 0.950 1_565 S
C395 C386 1.390 . S
C395 H388 0.950 . S
C395 C392 1.387 . S
C396 C397 1.387 . S
C396 H400 0.950 . S
C396 C405 1.390 . S
C397 C396 1.387 . S
C397 C399 1.387 . S
H398 C405 0.950 . S
C399 C397 1.387 . S
C399 C401 1.390 . S
C399 H403 0.950 . S
H400 C396 0.950 . S
C401 C399 1.390 . S
C401 C402 1.387 . S
C401 H404 0.950 . S
C402 C401 1.387 . S
C402 C405 1.387 . S
H403 C399 0.950 . S
H404 C401 0.950 . S
C405 C396 1.390 . S
C405 H398 0.950 . S
C405 C402 1.387 . S
C406 C407 1.387 . S
C406 H410 0.950 . S
C406 C415 1.390 . S
C407 C406 1.387 . S
C407 C409 1.387 . S
H408 C415 0.950 . S
C409 C407 1.387 . S
C409 C411 1.391 1_565 S
C409 H413 0.950 1_565 S
H410 C406 0.950 . S
C411 C409 1.391 1_545 S
C411 C412 1.383 1_545 S
C411 H414 0.953 . S
C412 C411 1.383 1_565 S
C412 C415 1.387 . S
H413 C409 0.950 1_545 S
H414 C411 0.953 . S
C415 C406 1.390 . S
C415 H408 0.950 . S
C415 C412 1.387 . S
C302 C191 1.655 . S
C297 C119 1.635 . S
C307 C23 1.642 . S
C312 C286 1.622 . S
C317 C55 1.566 . S
C322 C202 1.655 . S
C327 C87 1.527 . S
C332 C275 1.622 . S
C342 C186 1.399 . S
C337 C17 1.539 . S
C352 C279 1.619 . S
C347 C61 1.534 . S
C357 C93 1.494 . S
C362 C195 1.636 . S
C367 C113 1.518 . S
C372 C270 1.404 . S
C382 C281 1.401 . S
C377 C49 1.487 . S
C392 C197 1.399 . S
C387 C81 1.491 . S
C402 C268 1.619 . S
C397 C125 1.611 . S
C407 C29 1.636 . S
C412 C184 1.636 . S
