# Generated by pormake.
# Topology pyr, (3,6)-cn, num edge types: 1
# Building blocks:
#     Node 0, Type 0, BuildingBlock: PAMTOO_clean_linker_0, # of connection points: 3
#     Node 1, Type 0, BuildingBlock: PAMTOO_clean_linker_0, # of connection points: 3
#     Node 2, Type 0, BuildingBlock: PAMTOO_clean_linker_0, # of connection points: 3
#     Node 3, Type 0, BuildingBlock: PAMTOO_clean_linker_0, # of connection points: 3
#     Node 4, Type 0, BuildingBlock: PAMTOO_clean_linker_0, # of connection points: 3
#     Node 5, Type 0, BuildingBlock: PAMTOO_clean_linker_0, # of connection points: 3
#     Node 6, Type 0, BuildingBlock: PAMTOO_clean_linker_0, # of connection points: 3
#     Node 7, Type 0, BuildingBlock: PAMTOO_clean_linker_0, # of connection points: 3
#     Node 8, Type 1, BuildingBlock: BETFEN_clean_sbu_0, # of connection points: 6
#     Node 9, Type 1, BuildingBlock: BETFEN_clean_sbu_0, # of connection points: 6
#     Node 10, Type 1, BuildingBlock: BETFEN_clean_sbu_0, # of connection points: 6
#     Node 11, Type 1, BuildingBlock: BETFEN_clean_sbu_0, # of connection points: 6
#     Edge 12, Type (0, 1), BuildingBlock: OJICUG_clean_linker_0, # of connection points: 2
#     Edge 13, Type (0, 1), BuildingBlock: OJICUG_clean_linker_0, # of connection points: 2
#     Edge 14, Type (0, 1), BuildingBlock: OJICUG_clean_linker_0, # of connection points: 2
#     Edge 15, Type (0, 1), BuildingBlock: OJICUG_clean_linker_0, # of connection points: 2
#     Edge 16, Type (0, 1), BuildingBlock: OJICUG_clean_linker_0, # of connection points: 2
#     Edge 17, Type (0, 1), BuildingBlock: OJICUG_clean_linker_0, # of connection points: 2
#     Edge 18, Type (0, 1), BuildingBlock: OJICUG_clean_linker_0, # of connection points: 2
#     Edge 19, Type (0, 1), BuildingBlock: OJICUG_clean_linker_0, # of connection points: 2
#     Edge 20, Type (0, 1), BuildingBlock: OJICUG_clean_linker_0, # of connection points: 2
#     Edge 21, Type (0, 1), BuildingBlock: OJICUG_clean_linker_0, # of connection points: 2
#     Edge 22, Type (0, 1), BuildingBlock: OJICUG_clean_linker_0, # of connection points: 2
#     Edge 23, Type (0, 1), BuildingBlock: OJICUG_clean_linker_0, # of connection points: 2
#     Edge 24, Type (0, 1), BuildingBlock: OJICUG_clean_linker_0, # of connection points: 2
#     Edge 25, Type (0, 1), BuildingBlock: OJICUG_clean_linker_0, # of connection points: 2
#     Edge 26, Type (0, 1), BuildingBlock: OJICUG_clean_linker_0, # of connection points: 2
#     Edge 27, Type (0, 1), BuildingBlock: OJICUG_clean_linker_0, # of connection points: 2
#     Edge 28, Type (0, 1), BuildingBlock: OJICUG_clean_linker_0, # of connection points: 2
#     Edge 29, Type (0, 1), BuildingBlock: OJICUG_clean_linker_0, # of connection points: 2
#     Edge 30, Type (0, 1), BuildingBlock: OJICUG_clean_linker_0, # of connection points: 2
#     Edge 31, Type (0, 1), BuildingBlock: OJICUG_clean_linker_0, # of connection points: 2
#     Edge 32, Type (0, 1), BuildingBlock: OJICUG_clean_linker_0, # of connection points: 2
#     Edge 33, Type (0, 1), BuildingBlock: OJICUG_clean_linker_0, # of connection points: 2
#     Edge 34, Type (0, 1), BuildingBlock: OJICUG_clean_linker_0, # of connection points: 2
#     Edge 35, Type (0, 1), BuildingBlock: OJICUG_clean_linker_0, # of connection points: 2
# Relax obj value: 0.250
# Max RMSD: 0.330
# Mean RMSD: 0.154
data_MOF--net-pyr--node1-BETFEN_clean_sbu_0--node2-PAMTOO_clean_linker_0--edge1-OJICUG_clean_linker_0
_symmetry_space_group_name_H-M    P1
_symmetry_Int_Tables_number       1
_symmetry_cell_setting            triclinic
loop_
_symmetry_equiv_pos_as_xyz
'x, y, z'
_cell_length_a     26.38559
_cell_length_b     30.275942
_cell_length_c     25.955269
_cell_angle_alpha  93.215904
_cell_angle_beta   100.98498
_cell_angle_gamma 116.57622
loop_
_atom_site_label
_atom_site_type_symbol
_atom_site_fract_x
_atom_site_fract_y
_atom_site_fract_z
_atom_type_partial_charge
H0 H 0.39927 0.34996 0.29704 0.0
H1 H 0.55111 0.34654 0.38774 0.0
H2 H 0.57048 0.46366 0.29454 0.0
H3 H 0.70352 0.42619 0.35906 0.0
C4 C 0.66032 0.41419 0.33145 0.0
O5 O 0.62619 0.42582 0.35829 0.0
H6 H 0.66841 0.43621 0.29831 0.0
C7 C 0.44639 0.36499 0.30848 0.0
C8 C 0.48164 0.40819 0.29007 0.0
C9 C 0.47079 0.34366 0.34531 0.0
C10 C 0.53152 0.36316 0.36002 0.0
C11 C 0.56751 0.40607 0.34133 0.0
C12 C 0.54263 0.42937 0.30719 0.0
H13 H 0.28248 0.90041 0.81619 0.0
H14 H 0.23204 0.83428 0.65215 0.0
H15 H 0.34344 0.79852 0.76551 0.0
H16 H 0.35599 0.84673 0.64563 0.0
C17 C 0.33434 0.80502 0.63754 0.0
O18 O 0.29163 0.78441 0.66534 0.0
H19 H 0.31336 0.79383 0.59431 0.0
C20 C 0.28184 0.87389 0.78587 0.0
C21 C 0.31584 0.84933 0.79802 0.0
C22 C 0.25177 0.86866 0.73354 0.0
C23 C 0.25397 0.83747 0.69304 0.0
C24 C 0.28655 0.81188 0.70491 0.0
C25 C 0.31693 0.81737 0.75726 0.0
H26 H 0.74154 0.27434 0.94851 0.0
H27 H 0.5912 0.24433 0.8242 0.0
H28 H 0.75208 0.38069 0.84321 0.0
H29 H 0.64158 0.38626 0.83311 0.0
C30 C 0.61894 0.36047 0.79443 0.0
O31 O 0.64434 0.32995 0.78744 0.0
H32 H 0.57298 0.33658 0.79622 0.0
C33 C 0.72131 0.28452 0.91403 0.0
C34 C 0.75388 0.33014 0.89816 0.0
C35 C 0.66312 0.25247 0.88761 0.0
C36 C 0.63631 0.26812 0.84508 0.0
C37 C 0.66868 0.31461 0.82899 0.0
C38 C 0.72735 0.34527 0.85572 0.0
H39 H 0.88049 0.72906 0.48651 0.0
H40 H 0.85827 0.60076 0.38577 0.0
H41 H 1.00016 0.74633 0.38817 0.0
H42 H 0.92801 0.67707 0.28081 0.0
C43 C 0.9262 0.64181 0.29299 0.0
O44 O 0.95011 0.6504 0.3473 0.0
H45 H 0.87952 0.61314 0.28411 0.0
C46 C 0.89402 0.71312 0.45672 0.0
C47 C 0.94325 0.74451 0.43921 0.0
C48 C 0.86217 0.66154 0.4373 0.0
C49 C 0.88211 0.64045 0.40116 0.0
C50 C 0.93184 0.67098 0.38316 0.0
C51 C 0.96228 0.72295 0.40239 0.0
H52 H 0.75124 0.72704 0.82719 0.0
H53 H 0.5849 0.62949 0.85609 0.0
H54 H 0.67378 0.56841 0.77588 0.0
H55 H 0.55144 0.48327 0.85019 0.0
C56 C 0.58348 0.52359 0.86185 0.0
O57 O 0.58317 0.5468 0.81732 0.0
H58 H 0.56851 0.53952 0.89178 0.0
C59 C 0.71627 0.68955 0.82501 0.0
C60 C 0.71856 0.64865 0.79968 0.0
C61 C 0.66836 0.68327 0.84507 0.0
C62 C 0.6219 0.63509 0.83992 0.0
C63 C 0.62465 0.59358 0.81637 0.0
C64 C 0.67241 0.60043 0.79507 0.0
H65 H 0.87013 0.13917 0.37365 0.0
H66 H 0.76196 0.20966 0.39183 0.0
H67 H 0.86982 0.1958 0.52835 0.0
H68 H 0.7657 0.20209 0.55772 0.0
C69 C 0.74961 0.20363 0.5154 0.0
O70 O 0.79685 0.23005 0.49444 0.0
H71 H 0.72325 0.16427 0.49427 0.0
C72 C 0.8537 0.15766 0.39762 0.0
C73 C 0.87291 0.1644 0.45298 0.0
C74 C 0.8132 0.1735 0.37392 0.0
C75 C 0.79467 0.19847 0.40756 0.0
C76 C 0.81616 0.20732 0.46279 0.0
C77 C 0.85538 0.19055 0.48544 0.0
H78 H 0.42238 0.7577 0.15647 0.0
H79 H 0.41144 0.6513 0.26263 0.0
H80 H 0.56677 0.79318 0.28947 0.0
H81 H 0.46281 0.70817 0.37209 0.0
C82 C 0.50665 0.71073 0.37445 0.0
O83 O 0.51586 0.70626 0.32401 0.0
H84 H 0.53997 0.74818 0.39684 0.0
C85 C 0.44167 0.74719 0.19128 0.0
C86 C 0.49784 0.78087 0.22095 0.0
C87 C 0.41006 0.70053 0.2057 0.0
C88 C 0.43514 0.68753 0.25124 0.0
C89 C 0.49133 0.7209 0.28195 0.0
C90 C 0.52283 0.76786 0.26676 0.0
H91 H 0.11351 0.29395 0.84393 0.0
H92 H 0.2115 0.4452 0.81634 0.0
H93 H 0.21324 0.32479 0.72412 0.0
H94 H 0.32701 0.42026 0.78084 0.0
C95 C 0.3119 0.44477 0.75954 0.0
O96 O 0.25193 0.42072 0.74114 0.0
H97 H 0.32496 0.47864 0.78859 0.0
C98 C 0.1426 0.32018 0.82309 0.0
C99 C 0.16152 0.30232 0.78256 0.0
C100 C 0.16052 0.37205 0.83581 0.0
C101 C 0.19728 0.40543 0.8075 0.0
C102 C 0.21662 0.38821 0.76809 0.0
C103 C 0.19889 0.3372 0.75587 0.0
Pr104 Pr 1.01785 0.99623 0.63212 0.0
Pr105 Pr 0.11656 0.05329 0.59098 0.0
C106 C 0.93327 0.92504 0.66822 0.0
C107 C 0.91991 0.87596 0.6847 0.0
C108 C 0.91673 0.87053 0.73738 0.0
C109 C 0.89962 0.82387 0.75338 0.0
C110 C 0.88479 0.78132 0.71688 0.0
C111 C 0.89074 0.78717 0.66464 0.0
C112 C 0.90839 0.83418 0.64868 0.0
C113 C 0.07106 0.09649 0.68107 0.0
C114 C 0.14019 0.98928 0.67529 0.0
C115 C 0.1975 0.11293 0.54346 0.0
C116 C 0.23969 0.14568 0.5154 0.0
C117 C 0.21938 0.16 0.46865 0.0
C118 C 0.25831 0.18951 0.44034 0.0
C119 C 0.31822 0.20486 0.45792 0.0
C120 C 0.33872 0.18994 0.50419 0.0
C121 C 0.29961 0.16071 0.53304 0.0
C122 C 0.05865 0.95202 0.54337 0.0
C123 C 0.99918 0.06577 0.5514 0.0
O124 O 0.92956 0.92795 0.61768 0.0
O125 O 0.97754 0.9639 0.69937 0.0
O126 O 0.09959 0.07356 0.67168 0.0
O127 O 1.01521 0.06758 0.66619 0.0
O128 O 0.16756 0.03204 0.65892 0.0
O129 O 0.08282 0.96525 0.66395 0.0
O130 O 0.21039 0.11144 0.59439 0.0
O131 O 0.14287 0.08489 0.51861 0.0
O132 O 1.03367 0.97805 0.55153 0.0
O133 O 0.11465 0.97814 0.55965 0.0
O134 O 0.97063 1.02119 0.56388 0.0
O135 O 0.05643 0.09028 0.56659 0.0
H136 H 0.92543 0.90215 0.76586 0.0
H137 H 0.89423 0.82071 0.79357 0.0
H138 H 0.87951 0.75508 0.63563 0.0
H139 H 0.91117 0.83738 0.60784 0.0
H140 H 0.17333 0.14867 0.45408 0.0
H141 H 0.24165 0.20065 0.40472 0.0
H142 H 0.38493 0.20188 0.51862 0.0
H143 H 0.31603 0.14955 0.56874 0.0
Pr144 Pr 0.54471 0.03833 0.09186 0.0
Pr145 Pr 0.62879 1.02061 1.04683 0.0
C146 C 0.48576 0.05957 0.15494 0.0
C147 C 0.50356 0.10425 0.19403 0.0
C148 C 0.46896 0.12865 0.18994 0.0
C149 C 0.49082 0.17663 0.21829 0.0
C150 C 0.54775 0.20107 0.25122 0.0
C151 C 0.58069 0.1751 0.25829 0.0
C152 C 0.55886 0.12715 0.22985 0.0
C153 C 0.5741 0.09135 1.00766 0.0
C154 C 0.68313 0.10197 0.15585 0.0
C155 C 0.70404 1.01092 0.99678 0.0
C156 C 0.69685 0.96478 0.96766 0.0
C157 C 0.64171 0.92242 0.95473 0.0
C158 C 0.63509 0.87615 0.93409 0.0
C159 C 0.68352 0.87136 0.92555 0.0
C160 C 0.73838 0.9145 0.93649 0.0
C161 C 0.74505 0.9608 0.95779 0.0
C162 C 0.57152 0.94401 0.10259 0.0
C163 C 0.49151 0.95517 0.98835 0.0
O164 O 0.51086 0.03153 0.16667 0.0
O165 O 0.4817 0.06697 0.10564 0.0
O166 O 0.61024 0.08765 1.04468 0.0
O167 O 0.52124 0.06766 1.01353 0.0
O168 O 0.69441 0.07526 0.12255 0.0
O169 O 0.631 0.09892 0.14957 0.0
O170 O 0.66786 0.02724 0.97544 0.0
O171 O 0.7094 1.0114 1.04795 0.0
O172 O 0.58994 0.99006 0.11838 0.0
O173 O 0.58119 0.93687 0.05661 0.0
O174 O 0.48112 0.96328 1.03467 0.0
O175 O 0.54352 0.98167 0.97973 0.0
H176 H 0.42628 0.11174 0.16255 0.0
H177 H 0.46409 0.19546 0.21275 0.0
H178 H 0.62478 0.19299 0.28314 0.0
H179 H 0.58664 0.10929 0.23379 0.0
H180 H 0.60396 0.92476 0.96232 0.0
H181 H 0.5924 0.84388 0.92678 0.0
H182 H 0.77641 0.9124 0.9293 0.0
H183 H 0.78794 0.9931 0.96776 0.0
Pr184 Pr 0.59817 0.58066 0.61834 0.0
Pr185 Pr 0.53477 0.47833 0.5364 0.0
C186 C 0.62099 0.66734 0.67474 0.0
C187 C 0.5828 0.69086 0.67231 0.0
C188 C 0.59475 0.7305 0.71117 0.0
C189 C 0.55526 0.74995 0.70947 0.0
C190 C 0.50346 0.72988 0.66875 0.0
C191 C 0.49273 0.69082 0.62942 0.0
C192 C 0.53179 0.67142 0.63135 0.0
C193 C 0.61969 0.50242 0.65223 0.0
C194 C 0.45758 0.50008 0.61029 0.0
C195 C 0.50828 0.38497 0.49658 0.0
C196 C 0.54323 0.35839 0.49822 0.0
C197 C 0.60166 0.38341 0.49481 0.0
C198 C 0.63467 0.35795 0.4966 0.0
C199 C 0.60991 0.30719 0.50214 0.0
C200 C 0.5517 0.28243 0.5063 0.0
C201 C 0.51891 0.30815 0.50513 0.0
C202 C 0.51369 0.55099 0.48729 0.0
C203 C 0.66616 0.56586 0.53228 0.0
O204 O 0.63944 0.66522 0.63172 0.0
O205 O 0.60239 0.62515 0.69354 0.0
O206 O 0.5723 0.4991 0.6266 0.0
O207 O 0.65946 0.54912 0.66328 0.0
O208 O 0.45988 0.46551 0.57876 0.0
O209 O 0.50037 0.54655 0.62345 0.0
O210 O 0.49874 0.3959 0.54201 0.0
O211 O 0.52091 0.42129 0.46831 0.0
O212 O 0.54251 0.55613 0.53387 0.0
O213 O 0.49014 0.50452 0.46477 0.0
O214 O 0.6569 0.59887 0.55875 0.0
O215 O 0.63334 0.51708 0.52951 0.0
H216 H 0.63407 0.74589 0.74297 0.0
H217 H 0.56471 0.77996 0.74044 0.0
H218 H 0.45414 0.67527 0.59679 0.0
H219 H 0.52191 0.64084 0.60088 0.0
H220 H 0.62171 0.4225 0.49032 0.0
H221 H 0.67941 0.37782 0.49318 0.0
H222 H 0.53198 0.24353 0.51156 0.0
H223 H 0.47461 0.28888 0.50973 0.0
Pr224 Pr 0.05393 0.54881 1.03263 0.0
Pr225 Pr 0.0851 0.49063 0.11766 0.0
C226 C 0.99877 0.58375 0.96176 0.0
C227 C 0.94071 0.58121 0.95092 0.0
C228 C 0.91384 0.58248 0.99242 0.0
C229 C 0.85574 0.57342 0.98106 0.0
C230 C 0.82345 0.56217 0.92809 0.0
C231 C 0.85087 0.56195 0.88673 0.0
C232 C 0.90905 0.57148 0.89809 0.0
C233 C 0.17251 0.58982 0.08206 0.0
C234 C 1.02276 0.55844 0.15205 0.0
C235 C 0.14158 0.46572 0.19882 0.0
C236 C 0.19748 0.46342 0.20797 0.0
C237 C 0.19737 0.41708 0.20124 0.0
C238 C 0.24979 0.4148 0.20643 0.0
C239 C 0.30367 0.45885 0.21838 0.0
C240 C 0.3038 0.50523 0.22571 0.0
C241 C 0.25137 0.50746 0.22085 0.0
C242 C 0.97635 0.43703 1.04671 0.0
C243 C 0.10159 0.47074 0.99761 0.0
O244 O 0.99826 0.54069 0.95164 0.0
O245 O 1.03632 0.61163 1.00598 0.0
O246 O 0.13069 0.5712 0.10368 0.0
O247 O 0.15431 0.59143 1.03235 0.0
O248 O 0.04019 0.52501 0.166 0.0
O249 O 1.02417 0.57306 0.10484 0.0
O250 O 0.14519 0.51022 0.19928 0.0
O251 O 0.09833 0.4322 0.16121 0.0
O252 O 0.99864 0.48188 0.06805 0.0
O253 O 1.00817 0.41626 0.06557 0.0
O254 O 0.06369 0.48753 0.98179 0.0
O255 O 0.12665 0.47754 1.0488 0.0
H256 H 0.93713 0.58898 1.03353 0.0
H257 H 0.83546 0.57351 1.01361 0.0
H258 H 0.8271 0.55397 0.84554 0.0
H259 H 0.92885 0.56981 0.86558 0.0
H260 H 0.15667 0.38252 0.19178 0.0
H261 H 0.24805 0.37833 0.20211 0.0
H262 H 0.3444 0.53987 0.23507 0.0
H263 H 0.25323 0.54381 0.22696 0.0
C264 C 0.39276 0.31727 0.3943 0.0
C265 C 0.43278 0.30697 0.37413 0.0
H266 H 0.32602 0.29318 0.43702 0.0
C267 C 0.43638 0.26297 0.38289 0.0
H268 H 0.3902 0.3516 0.38948 0.0
C269 C 0.39944 0.22939 0.41068 0.0
C270 C 0.35895 0.23979 0.42995 0.0
H271 H 0.46728 0.25452 0.36806 0.0
H272 H 0.40215 0.19534 0.41681 0.0
C273 C 0.35627 0.28407 0.42177 0.0
C274 C 0.34249 0.87521 0.89704 0.0
C275 C 0.35784 0.86479 0.85047 0.0
H276 H 0.37317 0.91218 0.97796 0.0
C277 C 0.41641 0.87756 0.8527 0.0
H278 H 0.29749 0.86515 0.89656 0.0
C279 C 0.45937 0.90427 0.89899 0.0
C280 C 0.44469 0.91878 0.94397 0.0
H281 H 0.42986 0.87046 0.81757 0.0
H282 H 0.5045 0.91586 0.89848 0.0
C283 C 0.38569 0.902 0.94357 0.0
C284 C 0.67421 0.43322 0.74823 0.0
C285 C 0.6214 0.39204 0.75045 0.0
H286 H 0.71532 0.5013 0.71637 0.0
C287 C 0.56959 0.38468 0.71551 0.0
H288 H 0.71491 0.43938 0.7741 0.0
C289 C 0.56994 0.41925 0.68169 0.0
C290 C 0.622 0.46256 0.68236 0.0
H291 H 0.52822 0.35331 0.71603 0.0
H292 H 0.52871 0.41319 0.65687 0.0
C293 C 0.67444 0.46857 0.71511 0.0
C294 C 0.97038 0.58438 0.27318 0.0
C295 C 0.95701 0.62311 0.26015 0.0
H296 H 1.00201 0.53381 0.24996 0.0
C297 C 0.96556 0.64006 0.21161 0.0
H298 H 0.96286 0.56953 0.30956 0.0
C299 C 0.98708 0.6193 0.17719 0.0
C300 C 1.00056 0.58055 0.18991 0.0
H301 H 0.95445 0.66896 0.19963 0.0
H302 H 0.99262 0.63353 0.14018 0.0
C303 C 0.99238 0.56366 0.23872 0.0
C304 C 0.59681 0.33986 0.2592 0.0
C305 C 0.63259 0.35882 0.31087 0.0
H306 H 0.54216 0.27527 0.19999 0.0
C307 C 0.63842 0.32549 0.34414 0.0
H308 H 0.59079 0.36485 0.23329 0.0
C309 C 0.61017 0.274 0.32532 0.0
C310 C 0.57494 0.25506 0.2732 0.0
H311 H 0.66468 0.33933 0.38463 0.0
H312 H 0.61565 0.24902 0.35151 0.0
C313 C 0.56835 0.28858 0.24053 0.0
C314 C 0.24997 0.94066 0.69369 0.0
C315 C 0.22416 0.90063 0.72072 0.0
H316 H 0.24439 1.00148 0.65957 0.0
C317 C 0.17351 0.89258 0.73707 0.0
H318 H 0.28962 0.94767 0.6815 0.0
C319 C 0.14736 0.923 0.72432 0.0
C320 C 0.17242 0.96255 0.6962 0.0
H321 H 0.15358 0.86213 0.75857 0.0
H322 H 0.10696 0.91501 0.7355 0.0
C323 C 0.22458 0.97173 0.68191 0.0
C324 C 0.83503 0.41103 0.95112 0.0
C325 C 0.81517 0.36131 0.9282 0.0
H326 H 0.90213 0.47414 1.00753 0.0
C327 C 0.85132 0.33867 0.94078 0.0
H328 H 0.80787 0.42922 0.94221 0.0
C329 C 0.90437 0.36381 0.97852 0.0
C330 C 0.92251 0.41223 1.00404 0.0
H331 H 0.8372 0.3005 0.92309 0.0
H332 H 0.93037 0.34479 0.98873 0.0
C333 C 0.88849 0.43639 0.98886 0.0
C334 C 0.7701 0.65272 0.45876 0.0
C335 C 0.80737 0.6317 0.45463 0.0
H336 H 0.69743 0.64866 0.48668 0.0
C337 C 0.79408 0.58512 0.47147 0.0
H338 H 0.77775 0.68769 0.44473 0.0
C339 C 0.7466 0.56192 0.49504 0.0
C340 C 0.71247 0.58543 0.50262 0.0
H341 H 0.82179 0.56782 0.46865 0.0
H342 H 0.73828 0.527 0.50941 0.0
C343 C 0.72391 0.63029 0.48287 0.0
C344 C 0.40903 0.40683 0.2131 0.0
C345 C 0.45197 0.43342 0.26016 0.0
H346 H 0.32854 0.39472 0.16213 0.0
C347 C 0.45227 0.47512 0.28692 0.0
H348 H 0.4078 0.37424 0.19215 0.0
C349 C 0.40619 0.4862 0.27053 0.0
C350 C 0.35926 0.45569 0.2272 0.0
H351 H 0.48443 0.4956 0.32382 0.0
H352 H 0.40472 0.51568 0.29471 0.0
C353 C 0.36313 0.41798 0.19663 0.0
C354 C 0.66398 0.17745 0.92338 0.0
C355 C 0.63289 0.20407 0.90743 0.0
H356 H 0.67072 0.12245 0.96868 0.0
C357 C 0.57815 0.18861 0.91917 0.0
H358 H 0.70573 0.18754 0.91407 0.0
C359 C 0.55735 0.15003 0.94959 0.0
C360 C 0.59142 0.12697 0.96952 0.0
H361 H 0.55319 0.20829 0.90777 0.0
H362 H 0.51622 0.14028 0.96005 0.0
C363 C 0.64408 0.14014 0.95478 0.0
C364 C 0.94102 0.82456 0.46813 0.0
C365 C 0.97369 0.79937 0.46079 0.0
H366 H 0.94179 0.89193 0.50007 0.0
C367 C 1.03479 0.82594 0.47868 0.0
H368 H 0.89388 0.80556 0.45428 0.0
C369 C 0.0622 0.87563 0.50489 0.0
C370 C 1.02924 0.90009 0.51361 0.0
H371 H 0.06129 0.80776 0.47426 0.0
H372 H 0.10928 0.89463 0.51924 0.0
C373 C 0.96839 0.87415 0.49431 0.0
C374 C 0.43822 0.81917 0.6686 0.0
C375 C 0.37826 0.78593 0.65068 0.0
H376 H 0.52508 0.82758 0.68828 0.0
C377 C 0.35963 0.73433 0.64234 0.0
H378 H 0.45361 0.8592 0.6753 0.0
C379 C 0.40024 0.7162 0.65033 0.0
C380 C 0.46051 0.74936 0.66621 0.0
H381 H 0.31359 0.70806 0.62866 0.0
H382 H 0.38439 0.67612 0.64323 0.0
C383 C 0.47903 0.80105 0.67635 0.0
C384 C 0.82442 0.68714 0.8047 0.0
C385 C 0.76696 0.65974 0.77364 0.0
H386 H 0.9093 0.74774 0.80995 0.0
C387 C 0.75596 0.66128 0.71899 0.0
H388 H 0.83396 0.68635 0.84705 0.0
C389 C 0.79858 0.6968 0.69776 0.0
C390 C 0.85274 0.73108 0.73129 0.0
H391 H 0.71215 0.64089 0.69443 0.0
H392 H 0.78595 0.70183 0.65718 0.0
C393 C 0.86728 0.72268 0.78356 0.0
C394 C 0.76082 0.18693 0.28819 0.0
C395 C 0.78679 0.16013 0.31519 0.0
H396 H 0.70652 0.18911 0.21627 0.0
C397 C 0.78371 0.11793 0.28596 0.0
H398 H 0.7633 0.22043 0.30811 0.0
C399 C 0.75451 0.10229 0.23253 0.0
C400 C 0.72529 0.1269 0.2072 0.0
H401 H 0.8008 0.09469 0.30441 0.0
H402 H 0.75094 0.06836 0.21226 0.0
C403 C 0.72916 0.16972 0.23509 0.0
C404 C 0.47416 0.61895 0.38058 0.0
C405 C 0.5098 0.66946 0.40349 0.0
H406 H 0.44725 0.54216 0.38949 0.0
C407 C 0.54528 0.68075 0.45532 0.0
H408 H 0.44558 0.60909 0.3412 0.0
C409 C 0.54595 0.64242 0.48311 0.0
C410 C 0.51086 0.59194 0.45981 0.0
H411 H 0.57254 0.71929 0.47441 0.0
H412 H 0.57439 0.65233 0.52256 0.0
C413 C 0.4749 0.5807 0.40833 0.0
C414 C 0.11396 0.42303 0.86366 0.0
C415 C 0.14072 0.39279 0.87716 0.0
H416 H 0.0806 0.47065 0.8903 0.0
C417 C 0.1537 0.38744 0.93091 0.0
H418 H 0.10369 0.42821 0.82272 0.0
C419 C 0.14158 0.41287 0.97026 0.0
C420 C 0.11528 0.44356 0.95663 0.0
H421 H 0.17499 0.36495 0.94273 0.0
H422 H 0.15284 0.40849 1.01133 0.0
C423 C 0.10094 0.44758 0.90259 0.0
C424 C 0.62185 0.73875 0.85251 0.0
C425 C 0.66807 0.72801 0.87046 0.0
H426 H 0.59139 0.79336 0.85387 0.0
C427 C 0.71757 0.76315 0.90878 0.0
H428 H 0.58338 0.71225 0.82275 0.0
C429 C 0.72197 0.80914 0.92724 0.0
C430 C 0.67725 0.82133 0.90729 0.0
H431 H 0.75351 0.75537 0.92368 0.0
H432 H 0.76071 0.83524 0.95695 0.0
C433 C 0.62661 0.78523 0.87033 0.0
C434 C 0.9621 0.16758 0.51064 0.0
C435 C 0.90637 0.13958 0.47683 0.0
H436 H 1.03572 0.16583 0.56019 0.0
C437 C 0.88131 0.08715 0.46709 0.0
H438 H 0.98191 0.20804 0.51871 0.0
C439 C 0.9113 0.0629 0.49154 0.0
C440 C 0.96732 0.09087 0.52506 0.0
H441 H 0.83801 0.06497 0.44137 0.0
H442 H 0.89092 0.02241 0.48397 0.0
C443 C 0.9927 0.14342 0.53409 0.0
C444 C 0.30412 0.64531 0.19863 0.0
C445 C 0.35012 0.66687 0.17358 0.0
H446 H 0.21188 0.60498 0.18913 0.0
C447 C 0.33758 0.66034 0.11759 0.0
H448 H 0.31237 0.65024 0.24161 0.0
C449 C 0.27986 0.63435 0.08737 0.0
C450 C 0.23385 0.61446 0.11268 0.0
H451 H 0.3724 0.6763 0.09722 0.0
H452 H 0.27122 0.63065 1.04442 0.0
C453 C 0.24657 0.61956 0.16849 0.0
C454 C 0.37201 0.50884 0.70825 0.0
C455 C 0.34099 0.45852 0.714 0.0
H456 H 0.43223 0.56149 0.6699 0.0
C457 C 0.34129 0.4214 0.67926 0.0
H458 H 0.37195 0.53814 0.73415 0.0
C459 C 0.37564 0.43462 0.64211 0.0
C460 C 0.41041 0.48529 0.63916 0.0
H461 H 0.31726 0.3823 0.68278 0.0
H462 H 0.37773 0.40528 0.61816 0.0
C463 C 0.40639 0.52211 0.67127 0.0
C464 C 0.66195 0.49779 0.8623 0.0
C465 C 0.64337 0.52912 0.88525 0.0
H466 H 0.73367 0.4831 0.85935 0.0
C467 C 0.68357 0.56994 0.9248 0.0
H468 H 0.63163 0.46663 0.83138 0.0
C469 C 0.74192 0.58001 0.93998 0.0
C470 C 0.76094 0.54956 0.9156 0.0
H471 H 0.6703 0.59519 0.94224 0.0
H472 H 0.77258 0.61267 0.9692 0.0
C473 C 0.72015 0.5077 0.87761 0.0
C474 C 0.53042 0.87213 0.21696 0.0
C475 C 0.52968 0.82703 0.19923 0.0
H476 H 0.54448 0.94514 0.20022 0.0
C477 C 0.54628 0.82232 0.15185 0.0
H478 H 0.51614 0.87604 0.25262 0.0
C479 C 0.56073 0.86079 0.12141 0.0
C480 C 0.55933 0.90524 0.13769 0.0
H481 H 0.5447 0.7875 0.13674 0.0
H482 H 0.57156 0.85503 0.08424 0.0
C483 C 0.5457 0.91123 0.18661 0.0
C484 C 0.0801 0.21386 0.75323 0.0
C485 C 0.13992 0.24766 0.76415 0.0
H486 H 1.01185 0.14038 0.71816 0.0
C487 C 0.17789 0.23004 0.75073 0.0
H488 H 0.04947 0.22607 0.76221 0.0
C489 C 0.1563 0.18066 0.72522 0.0
C490 C 0.09613 0.1477 0.71219 0.0
H491 H 0.22435 0.25495 0.75877 0.0
H492 H 0.18647 0.1688 0.7143 0.0
C493 C 0.05852 0.16474 0.72739 0.0
C494 C 0.73485 0.27706 0.54262 0.0
C495 C 0.71273 0.22982 0.512 0.0
H496 H 0.71934 0.33857 0.56351 0.0
C497 C 0.65691 0.20831 0.47739 0.0
H498 H 0.77801 0.29436 0.56922 0.0
C499 C 0.62326 0.23337 0.47425 0.0
C500 C 0.64534 0.28059 0.5051 0.0
H501 H 0.63933 0.17217 0.45285 0.0
H502 H 0.58033 0.21618 0.44726 0.0
C503 C 0.70152 0.30232 0.5391 0.0
loop_
_geom_bond_atom_site_label_1
_geom_bond_atom_site_label_2
_geom_bond_distance
_geom_bond_site_symmetry_2
_ccdc_geom_bond_type
H0 C7 0.929 . S
H1 C10 0.930 . S
H2 C12 0.929 . S
H3 C4 0.969 . S
C4 H3 0.969 . S
C4 O5 1.550 . S
C4 H6 0.973 . S
O5 C4 1.550 . S
O5 C11 1.412 . S
H6 C4 0.973 . S
C7 H0 0.929 . S
C7 C8 1.400 . S
C7 C9 1.364 . S
C8 C7 1.400 . S
C8 C12 1.377 . S
C9 C7 1.364 . S
C9 C10 1.374 . S
C10 H1 0.930 . S
C10 C9 1.374 . S
C10 C11 1.383 . S
C11 O5 1.412 . S
C11 C10 1.383 . S
C11 C12 1.394 . S
C12 H2 0.929 . S
C12 C8 1.377 . S
C12 C11 1.394 . S
H13 C20 0.929 . S
H14 C23 0.930 . S
H15 C25 0.929 . S
H16 C17 0.969 . S
C17 H16 0.969 . S
C17 O18 1.550 . S
C17 H19 0.973 . S
O18 C17 1.550 . S
O18 C24 1.412 . S
H19 C17 0.973 . S
C20 H13 0.929 . S
C20 C21 1.400 . S
C20 C22 1.364 . S
C21 C20 1.400 . S
C21 C25 1.377 . S
C22 C20 1.364 . S
C22 C23 1.374 . S
C23 H14 0.930 . S
C23 C22 1.374 . S
C23 C24 1.383 . S
C24 O18 1.412 . S
C24 C23 1.383 . S
C24 C25 1.394 . S
C25 H15 0.929 . S
C25 C21 1.377 . S
C25 C24 1.394 . S
H26 C33 0.929 . S
H27 C36 0.930 . S
H28 C38 0.929 . S
H29 C30 0.969 . S
C30 H29 0.969 . S
C30 O31 1.550 . S
C30 H32 0.973 . S
O31 C30 1.550 . S
O31 C37 1.412 . S
H32 C30 0.973 . S
C33 H26 0.929 . S
C33 C34 1.400 . S
C33 C35 1.364 . S
C34 C33 1.400 . S
C34 C38 1.377 . S
C35 C33 1.364 . S
C35 C36 1.374 . S
C36 H27 0.930 . S
C36 C35 1.374 . S
C36 C37 1.383 . S
C37 O31 1.412 . S
C37 C36 1.383 . S
C37 C38 1.394 . S
C38 H28 0.929 . S
C38 C34 1.377 . S
C38 C37 1.394 . S
H39 C46 0.929 . S
H40 C49 0.930 . S
H41 C51 0.929 . S
H42 C43 0.969 . S
C43 H42 0.969 . S
C43 O44 1.550 . S
C43 H45 0.973 . S
O44 C43 1.550 . S
O44 C50 1.412 . S
H45 C43 0.973 . S
C46 H39 0.929 . S
C46 C47 1.400 . S
C46 C48 1.364 . S
C47 C46 1.400 . S
C47 C51 1.377 . S
C48 C46 1.364 . S
C48 C49 1.374 . S
C49 H40 0.930 . S
C49 C48 1.374 . S
C49 C50 1.383 . S
C50 O44 1.412 . S
C50 C49 1.383 . S
C50 C51 1.394 . S
C51 H41 0.929 . S
C51 C47 1.377 . S
C51 C50 1.394 . S
H52 C59 0.929 . S
H53 C62 0.930 . S
H54 C64 0.929 . S
H55 C56 0.969 . S
C56 H55 0.969 . S
C56 O57 1.550 . S
C56 H58 0.973 . S
O57 C56 1.550 . S
O57 C63 1.412 . S
H58 C56 0.973 . S
C59 H52 0.929 . S
C59 C60 1.400 . S
C59 C61 1.364 . S
C60 C59 1.400 . S
C60 C64 1.377 . S
C61 C59 1.364 . S
C61 C62 1.374 . S
C62 H53 0.930 . S
C62 C61 1.374 . S
C62 C63 1.383 . S
C63 O57 1.412 . S
C63 C62 1.383 . S
C63 C64 1.394 . S
C64 H54 0.929 . S
C64 C60 1.377 . S
C64 C63 1.394 . S
H65 C72 0.929 . S
H66 C75 0.930 . S
H67 C77 0.929 . S
H68 C69 0.969 . S
C69 H68 0.969 . S
C69 O70 1.550 . S
C69 H71 0.973 . S
O70 C69 1.550 . S
O70 C76 1.412 . S
H71 C69 0.973 . S
C72 H65 0.929 . S
C72 C73 1.400 . S
C72 C74 1.364 . S
C73 C72 1.400 . S
C73 C77 1.377 . S
C74 C72 1.364 . S
C74 C75 1.374 . S
C75 H66 0.930 . S
C75 C74 1.374 . S
C75 C76 1.383 . S
C76 O70 1.412 . S
C76 C75 1.383 . S
C76 C77 1.394 . S
C77 H67 0.929 . S
C77 C73 1.377 . S
C77 C76 1.394 . S
H78 C85 0.929 . S
H79 C88 0.930 . S
H80 C90 0.929 . S
H81 C82 0.969 . S
C82 H81 0.969 . S
C82 O83 1.550 . S
C82 H84 0.973 . S
O83 C82 1.550 . S
O83 C89 1.412 . S
H84 C82 0.973 . S
C85 H78 0.929 . S
C85 C86 1.400 . S
C85 C87 1.364 . S
C86 C85 1.400 . S
C86 C90 1.377 . S
C87 C85 1.364 . S
C87 C88 1.374 . S
C88 H79 0.930 . S
C88 C87 1.374 . S
C88 C89 1.383 . S
C89 O83 1.412 . S
C89 C88 1.383 . S
C89 C90 1.394 . S
C90 H80 0.929 . S
C90 C86 1.377 . S
C90 C89 1.394 . S
H91 C98 0.929 . S
H92 C101 0.930 . S
H93 C103 0.929 . S
H94 C95 0.969 . S
C95 H94 0.969 . S
C95 O96 1.550 . S
C95 H97 0.973 . S
O96 C95 1.550 . S
O96 C102 1.412 . S
H97 C95 0.973 . S
C98 H91 0.929 . S
C98 C99 1.400 . S
C98 C100 1.364 . S
C99 C98 1.400 . S
C99 C103 1.377 . S
C100 C98 1.364 . S
C100 C101 1.374 . S
C101 H92 0.930 . S
C101 C100 1.374 . S
C101 C102 1.383 . S
C102 O96 1.412 . S
C102 C101 1.383 . S
C102 C103 1.394 . S
C103 H93 0.929 . S
C103 C99 1.377 . S
C103 C102 1.394 . S
Pr104 C106 2.880 . S
Pr104 O124 2.562 . S
Pr104 O125 2.490 . S
Pr104 O126 2.695 1_665 S
Pr104 O127 2.512 1_665 S
Pr104 O129 2.437 1_655 S
Pr104 O132 2.436 . S
Pr104 O134 2.438 1_565 S
Pr105 C115 2.880 . S
Pr105 O126 2.436 . S
Pr105 O128 2.438 1_545 S
Pr105 O130 2.562 . S
Pr105 O131 2.490 . S
Pr105 O132 2.695 1_445 S
Pr105 O133 2.512 1_545 S
Pr105 O135 2.437 . S
C106 Pr104 2.880 . S
C106 C107 1.491 . S
C106 O124 1.254 . S
C106 O125 1.225 . S
C107 C106 1.491 . S
C107 C108 1.392 . S
C107 C112 1.356 . S
C108 C107 1.392 . S
C108 C109 1.368 . S
C108 H136 0.929 . S
C109 C108 1.368 . S
C109 C110 1.386 . S
C109 H137 0.929 . S
C110 C109 1.386 . S
C110 C111 1.373 . S
C111 C110 1.373 . S
C111 C112 1.409 . S
C111 H138 0.931 . S
C112 C107 1.356 . S
C112 C111 1.409 . S
C112 H139 0.930 . S
C113 O126 1.270 . S
C113 O127 1.248 . S
C114 O128 1.267 . S
C114 O129 1.278 . S
C115 Pr105 2.880 . S
C115 C116 1.491 . S
C115 O130 1.254 . S
C115 O131 1.225 . S
C116 C115 1.491 . S
C116 C117 1.392 . S
C116 C121 1.356 . S
C117 C116 1.392 . S
C117 C118 1.368 . S
C117 H140 0.929 . S
C118 C117 1.368 . S
C118 C119 1.386 . S
C118 H141 0.929 . S
C119 C118 1.386 . S
C119 C120 1.373 . S
C120 C119 1.373 . S
C120 C121 1.409 . S
C120 H142 0.931 . S
C121 C116 1.356 . S
C121 C120 1.409 . S
C121 H143 0.930 . S
C122 O132 1.270 . S
C122 O133 1.248 1_655 S
C123 O134 1.267 . S
C123 O135 1.278 1_655 S
O124 Pr104 2.562 . S
O124 C106 1.254 . S
O125 Pr104 2.490 . S
O125 C106 1.225 . S
O126 Pr104 2.695 1_445 S
O126 Pr105 2.436 . S
O126 C113 1.270 . S
O127 Pr104 2.512 1_445 S
O127 C113 1.248 . S
O128 Pr105 2.438 1_565 S
O128 C114 1.267 . S
O129 Pr104 2.437 1_455 S
O129 C114 1.278 . S
O130 Pr105 2.562 . S
O130 C115 1.254 . S
O131 Pr105 2.490 . S
O131 C115 1.225 . S
O132 Pr104 2.436 . S
O132 Pr105 2.695 1_665 S
O132 C122 1.270 . S
O133 Pr105 2.512 1_565 S
O133 C122 1.248 1_455 S
O134 Pr104 2.438 1_545 S
O134 C123 1.267 . S
O135 Pr105 2.437 . S
O135 C123 1.278 1_455 S
H136 C108 0.929 . S
H137 C109 0.929 . S
H138 C111 0.931 . S
H139 C112 0.930 . S
H140 C117 0.929 . S
H141 C118 0.929 . S
H142 C120 0.931 . S
H143 C121 0.930 . S
Pr144 C146 2.880 . S
Pr144 O164 2.562 . S
Pr144 O165 2.490 . S
Pr144 O166 2.695 1_554 S
Pr144 O167 2.512 1_554 S
Pr144 O169 2.437 . S
Pr144 O172 2.436 1_545 S
Pr144 O174 2.438 1_544 S
Pr145 C155 2.880 1_554 S
Pr145 O166 2.436 1_564 S
Pr145 O168 2.438 1_565 S
Pr145 O170 2.562 1_554 S
Pr145 O171 2.490 1_554 S
Pr145 O172 2.695 . S
Pr145 O173 2.512 . S
Pr145 O175 2.437 1_554 S
C146 Pr144 2.880 . S
C146 C147 1.491 . S
C146 O164 1.254 . S
C146 O165 1.225 . S
C147 C146 1.491 . S
C147 C148 1.392 . S
C147 C152 1.356 . S
C148 C147 1.392 . S
C148 C149 1.368 . S
C148 H176 0.929 . S
C149 C148 1.368 . S
C149 C150 1.386 . S
C149 H177 0.929 . S
C150 C149 1.386 . S
C150 C151 1.373 . S
C151 C150 1.373 . S
C151 C152 1.409 . S
C151 H178 0.931 . S
C152 C147 1.356 . S
C152 C151 1.409 . S
C152 H179 0.930 . S
C153 O166 1.270 . S
C153 O167 1.248 . S
C154 O168 1.267 . S
C154 O169 1.278 . S
C155 Pr145 2.880 1_556 S
C155 C156 1.491 . S
C155 O170 1.254 . S
C155 O171 1.225 . S
C156 C155 1.491 . S
C156 C157 1.392 . S
C156 C161 1.356 . S
C157 C156 1.392 . S
C157 C158 1.368 . S
C157 H180 0.929 . S
C158 C157 1.368 . S
C158 C159 1.386 . S
C158 H181 0.929 . S
C159 C158 1.386 . S
C159 C160 1.373 . S
C160 C159 1.373 . S
C160 C161 1.409 . S
C160 H182 0.931 . S
C161 C156 1.356 . S
C161 C160 1.409 . S
C161 H183 0.930 . S
C162 O172 1.270 . S
C162 O173 1.248 . S
C163 O174 1.267 . S
C163 O175 1.278 . S
O164 Pr144 2.562 . S
O164 C146 1.254 . S
O165 Pr144 2.490 . S
O165 C146 1.225 . S
O166 Pr144 2.695 1_556 S
O166 Pr145 2.436 1_546 S
O166 C153 1.270 . S
O167 Pr144 2.512 1_556 S
O167 C153 1.248 . S
O168 Pr145 2.438 1_545 S
O168 C154 1.267 . S
O169 Pr144 2.437 . S
O169 C154 1.278 . S
O170 Pr145 2.562 1_556 S
O170 C155 1.254 . S
O171 Pr145 2.490 1_556 S
O171 C155 1.225 . S
O172 Pr144 2.436 1_565 S
O172 Pr145 2.695 . S
O172 C162 1.270 . S
O173 Pr145 2.512 . S
O173 C162 1.248 . S
O174 Pr144 2.438 1_566 S
O174 C163 1.267 . S
O175 Pr145 2.437 1_556 S
O175 C163 1.278 . S
H176 C148 0.929 . S
H177 C149 0.929 . S
H178 C151 0.931 . S
H179 C152 0.930 . S
H180 C157 0.929 . S
H181 C158 0.929 . S
H182 C160 0.931 . S
H183 C161 0.930 . S
Pr184 C186 2.880 . S
Pr184 O204 2.562 . S
Pr184 O205 2.490 . S
Pr184 O206 2.695 . S
Pr184 O207 2.512 . S
Pr184 O209 2.437 . S
Pr184 O212 2.436 . S
Pr184 O214 2.438 . S
Pr185 C195 2.880 . S
Pr185 O206 2.436 . S
Pr185 O208 2.438 . S
Pr185 O210 2.562 . S
Pr185 O211 2.490 . S
Pr185 O212 2.695 . S
Pr185 O213 2.512 . S
Pr185 O215 2.437 . S
C186 Pr184 2.880 . S
C186 C187 1.491 . S
C186 O204 1.254 . S
C186 O205 1.225 . S
C187 C186 1.491 . S
C187 C188 1.392 . S
C187 C192 1.356 . S
C188 C187 1.392 . S
C188 C189 1.368 . S
C188 H216 0.929 . S
C189 C188 1.368 . S
C189 C190 1.386 . S
C189 H217 0.929 . S
C190 C189 1.386 . S
C190 C191 1.373 . S
C191 C190 1.373 . S
C191 C192 1.409 . S
C191 H218 0.931 . S
C192 C187 1.356 . S
C192 C191 1.409 . S
C192 H219 0.930 . S
C193 O206 1.270 . S
C193 O207 1.248 . S
C194 O208 1.267 . S
C194 O209 1.278 . S
C195 Pr185 2.880 . S
C195 C196 1.491 . S
C195 O210 1.254 . S
C195 O211 1.225 . S
C196 C195 1.491 . S
C196 C197 1.392 . S
C196 C201 1.356 . S
C197 C196 1.392 . S
C197 C198 1.368 . S
C197 H220 0.929 . S
C198 C197 1.368 . S
C198 C199 1.386 . S
C198 H221 0.929 . S
C199 C198 1.386 . S
C199 C200 1.373 . S
C200 C199 1.373 . S
C200 C201 1.409 . S
C200 H222 0.931 . S
C201 C196 1.356 . S
C201 C200 1.409 . S
C201 H223 0.930 . S
C202 O212 1.270 . S
C202 O213 1.248 . S
C203 O214 1.267 . S
C203 O215 1.278 . S
O204 Pr184 2.562 . S
O204 C186 1.254 . S
O205 Pr184 2.490 . S
O205 C186 1.225 . S
O206 Pr184 2.695 . S
O206 Pr185 2.436 . S
O206 C193 1.270 . S
O207 Pr184 2.512 . S
O207 C193 1.248 . S
O208 Pr185 2.438 . S
O208 C194 1.267 . S
O209 Pr184 2.437 . S
O209 C194 1.278 . S
O210 Pr185 2.562 . S
O210 C195 1.254 . S
O211 Pr185 2.490 . S
O211 C195 1.225 . S
O212 Pr184 2.436 . S
O212 Pr185 2.695 . S
O212 C202 1.270 . S
O213 Pr185 2.512 . S
O213 C202 1.248 . S
O214 Pr184 2.438 . S
O214 C203 1.267 . S
O215 Pr185 2.437 . S
O215 C203 1.278 . S
H216 C188 0.929 . S
H217 C189 0.929 . S
H218 C191 0.931 . S
H219 C192 0.930 . S
H220 C197 0.929 . S
H221 C198 0.929 . S
H222 C200 0.931 . S
H223 C201 0.930 . S
Pr224 C226 2.881 . S
Pr224 O244 2.563 . S
Pr224 O245 2.491 . S
Pr224 O246 2.686 1_656 S
Pr224 O247 2.506 1_656 S
Pr224 O249 2.424 1_556 S
Pr224 O252 2.431 1_556 S
Pr224 O254 2.444 1_655 S
Pr225 C235 2.880 . S
Pr225 O246 2.436 . S
Pr225 O248 2.438 1_455 S
Pr225 O250 2.562 . S
Pr225 O251 2.490 . S
Pr225 O252 2.695 1_455 S
Pr225 O253 2.512 1_455 S
Pr225 O255 2.437 . S
C226 Pr224 2.881 . S
C226 C227 1.491 . S
C226 O244 1.254 . S
C226 O245 1.225 . S
C227 C226 1.491 . S
C227 C228 1.392 . S
C227 C232 1.356 . S
C228 C227 1.392 . S
C228 C229 1.368 . S
C228 H256 0.929 . S
C229 C228 1.368 . S
C229 C230 1.386 . S
C229 H257 0.929 . S
C230 C229 1.386 . S
C230 C231 1.373 . S
C231 C230 1.373 . S
C231 C232 1.409 . S
C231 H258 0.931 . S
C232 C227 1.356 . S
C232 C231 1.409 . S
C232 H259 0.930 . S
C233 O246 1.270 . S
C233 O247 1.248 . S
C234 O248 1.267 . S
C234 O249 1.278 . S
C235 Pr225 2.880 . S
C235 C236 1.491 . S
C235 O250 1.254 . S
C235 O251 1.225 . S
C236 C235 1.491 . S
C236 C237 1.392 . S
C236 C241 1.356 . S
C237 C236 1.392 . S
C237 C238 1.368 . S
C237 H260 0.929 . S
C238 C237 1.368 . S
C238 C239 1.386 . S
C238 H261 0.929 . S
C239 C238 1.386 . S
C239 C240 1.373 . S
C240 C239 1.373 . S
C240 C241 1.409 . S
C240 H262 0.931 . S
C241 C236 1.356 . S
C241 C240 1.409 . S
C241 H263 0.930 . S
C242 O252 1.271 . S
C242 O253 1.261 . S
C243 O254 1.267 . S
C243 O255 1.278 1_556 S
O244 Pr224 2.563 . S
O244 C226 1.254 . S
O245 Pr224 2.491 . S
O245 C226 1.225 . S
O246 Pr224 2.686 1_454 S
O246 Pr225 2.436 . S
O246 C233 1.270 . S
O247 Pr224 2.506 1_454 S
O247 C233 1.248 . S
O248 Pr225 2.438 1_655 S
O248 C234 1.267 . S
O249 Pr224 2.424 1_554 S
O249 C234 1.278 . S
O250 Pr225 2.562 . S
O250 C235 1.254 . S
O251 Pr225 2.490 . S
O251 C235 1.225 . S
O252 Pr224 2.431 1_554 S
O252 Pr225 2.695 1_655 S
O252 C242 1.271 . S
O253 Pr225 2.512 1_655 S
O253 C242 1.261 . S
O254 Pr224 2.444 1_455 S
O254 C243 1.267 . S
O255 Pr225 2.437 . S
O255 C243 1.278 1_554 S
H256 C228 0.929 . S
H257 C229 0.929 . S
H258 C231 0.931 . S
H259 C232 0.930 . S
H260 C237 0.929 . S
H261 C238 0.929 . S
H262 C240 0.931 . S
H263 C241 0.930 . S
C264 C265 1.387 . S
C264 H268 0.950 . S
C264 C273 1.390 . S
C265 C264 1.387 . S
C265 C267 1.387 . S
H266 C273 0.950 . S
C267 C265 1.387 . S
C267 C269 1.390 . S
C267 H271 0.950 . S
H268 C264 0.950 . S
C269 C267 1.390 . S
C269 C270 1.387 . S
C269 H272 0.950 . S
C270 C269 1.387 . S
C270 C273 1.387 . S
H271 C267 0.950 . S
H272 C269 0.950 . S
C273 C264 1.390 . S
C273 H266 0.950 . S
C273 C270 1.387 . S
C274 C275 1.387 . S
C274 H278 0.950 . S
C274 C283 1.390 . S
C275 C274 1.387 . S
C275 C277 1.387 . S
H276 C283 0.950 . S
C277 C275 1.387 . S
C277 C279 1.390 . S
C277 H281 0.950 . S
H278 C274 0.950 . S
C279 C277 1.390 . S
C279 C280 1.387 . S
C279 H282 0.950 . S
C280 C279 1.387 . S
C280 C283 1.387 . S
H281 C277 0.950 . S
H282 C279 0.950 . S
C283 C274 1.390 . S
C283 H276 0.950 . S
C283 C280 1.387 . S
C284 C285 1.387 . S
C284 H288 0.950 . S
C284 C293 1.390 . S
C285 C284 1.387 . S
C285 C287 1.387 . S
H286 C293 0.950 . S
C287 C285 1.387 . S
C287 C289 1.390 . S
C287 H291 0.950 . S
H288 C284 0.950 . S
C289 C287 1.390 . S
C289 C290 1.387 . S
C289 H292 0.950 . S
C290 C289 1.387 . S
C290 C293 1.387 . S
H291 C287 0.950 . S
H292 C289 0.950 . S
C293 C284 1.390 . S
C293 H286 0.950 . S
C293 C290 1.387 . S
C294 C295 1.387 . S
C294 H298 0.950 . S
C294 C303 1.390 . S
C295 C294 1.387 . S
C295 C297 1.387 . S
H296 C303 0.950 . S
C297 C295 1.387 . S
C297 C299 1.390 . S
C297 H301 0.950 . S
H298 C294 0.950 . S
C299 C297 1.390 . S
C299 C300 1.387 . S
C299 H302 0.950 . S
C300 C299 1.387 . S
C300 C303 1.387 . S
H301 C297 0.950 . S
H302 C299 0.950 . S
C303 C294 1.390 . S
C303 H296 0.950 . S
C303 C300 1.387 . S
C304 C305 1.387 . S
C304 H308 0.950 . S
C304 C313 1.390 . S
C305 C304 1.387 . S
C305 C307 1.387 . S
H306 C313 0.950 . S
C307 C305 1.387 . S
C307 C309 1.390 . S
C307 H311 0.950 . S
H308 C304 0.950 . S
C309 C307 1.390 . S
C309 C310 1.387 . S
C309 H312 0.950 . S
C310 C309 1.387 . S
C310 C313 1.387 . S
H311 C307 0.950 . S
H312 C309 0.950 . S
C313 C304 1.390 . S
C313 H306 0.950 . S
C313 C310 1.387 . S
C314 C315 1.387 . S
C314 H318 0.950 . S
C314 C323 1.390 . S
C315 C314 1.387 . S
C315 C317 1.387 . S
H316 C323 0.950 . S
C317 C315 1.387 . S
C317 C319 1.390 . S
C317 H321 0.950 . S
H318 C314 0.950 . S
C319 C317 1.390 . S
C319 C320 1.387 . S
C319 H322 0.950 . S
C320 C319 1.387 . S
C320 C323 1.387 . S
H321 C317 0.950 . S
H322 C319 0.950 . S
C323 C314 1.390 . S
C323 H316 0.950 . S
C323 C320 1.387 . S
C324 C325 1.387 . S
C324 H328 0.950 . S
C324 C333 1.390 . S
C325 C324 1.387 . S
C325 C327 1.387 . S
H326 C333 0.950 . S
C327 C325 1.387 . S
C327 C329 1.390 . S
C327 H331 0.950 . S
H328 C324 0.950 . S
C329 C327 1.390 . S
C329 C330 1.387 . S
C329 H332 0.950 . S
C330 C329 1.387 . S
C330 C333 1.387 . S
H331 C327 0.950 . S
H332 C329 0.950 . S
C333 C324 1.390 . S
C333 H326 0.950 . S
C333 C330 1.387 . S
C334 C335 1.387 . S
C334 H338 0.950 . S
C334 C343 1.390 . S
C335 C334 1.387 . S
C335 C337 1.387 . S
H336 C343 0.950 . S
C337 C335 1.387 . S
C337 C339 1.390 . S
C337 H341 0.950 . S
H338 C334 0.950 . S
C339 C337 1.390 . S
C339 C340 1.387 . S
C339 H342 0.950 . S
C340 C339 1.387 . S
C340 C343 1.387 . S
H341 C337 0.950 . S
H342 C339 0.950 . S
C343 C334 1.390 . S
C343 H336 0.950 . S
C343 C340 1.387 . S
C344 C345 1.387 . S
C344 H348 0.950 . S
C344 C353 1.390 . S
C345 C344 1.387 . S
C345 C347 1.387 . S
H346 C353 0.950 . S
C347 C345 1.387 . S
C347 C349 1.390 . S
C347 H351 0.950 . S
H348 C344 0.950 . S
C349 C347 1.390 . S
C349 C350 1.387 . S
C349 H352 0.950 . S
C350 C349 1.387 . S
C350 C353 1.387 . S
H351 C347 0.950 . S
H352 C349 0.950 . S
C353 C344 1.390 . S
C353 H346 0.950 . S
C353 C350 1.387 . S
C354 C355 1.387 . S
C354 H358 0.950 . S
C354 C363 1.390 . S
C355 C354 1.387 . S
C355 C357 1.387 . S
H356 C363 0.950 . S
C357 C355 1.387 . S
C357 C359 1.390 . S
C357 H361 0.950 . S
H358 C354 0.950 . S
C359 C357 1.390 . S
C359 C360 1.387 . S
C359 H362 0.950 . S
C360 C359 1.387 . S
C360 C363 1.387 . S
H361 C357 0.950 . S
H362 C359 0.950 . S
C363 C354 1.390 . S
C363 H356 0.950 . S
C363 C360 1.387 . S
C364 C365 1.387 . S
C364 H368 0.950 . S
C364 C373 1.390 . S
C365 C364 1.387 . S
C365 C367 1.387 . S
H366 C373 0.950 . S
C367 C365 1.387 . S
C367 C369 1.390 . S
C367 H371 0.950 . S
H368 C364 0.950 . S
C369 C367 1.390 . S
C369 C370 1.387 . S
C369 H372 0.950 1_655 S
C370 C369 1.387 . S
C370 C373 1.387 . S
H371 C367 0.950 . S
H372 C369 0.950 1_455 S
C373 C364 1.390 . S
C373 H366 0.950 . S
C373 C370 1.387 . S
C374 C375 1.387 . S
C374 H378 0.950 . S
C374 C383 1.390 . S
C375 C374 1.387 . S
C375 C377 1.387 . S
H376 C383 0.950 . S
C377 C375 1.387 . S
C377 C379 1.390 . S
C377 H381 0.950 . S
H378 C374 0.950 . S
C379 C377 1.390 . S
C379 C380 1.387 . S
C379 H382 0.950 . S
C380 C379 1.387 . S
C380 C383 1.387 . S
H381 C377 0.950 . S
H382 C379 0.950 . S
C383 C374 1.390 . S
C383 H376 0.950 . S
C383 C380 1.387 . S
C384 C385 1.387 . S
C384 H388 0.950 . S
C384 C393 1.390 . S
C385 C384 1.387 . S
C385 C387 1.387 . S
H386 C393 0.950 . S
C387 C385 1.387 . S
C387 C389 1.390 . S
C387 H391 0.950 . S
H388 C384 0.950 . S
C389 C387 1.390 . S
C389 C390 1.387 . S
C389 H392 0.950 . S
C390 C389 1.387 . S
C390 C393 1.387 . S
H391 C387 0.950 . S
H392 C389 0.950 . S
C393 C384 1.390 . S
C393 H386 0.950 . S
C393 C390 1.387 . S
C394 C395 1.387 . S
C394 H398 0.950 . S
C394 C403 1.390 . S
C395 C394 1.387 . S
C395 C397 1.387 . S
H396 C403 0.950 . S
C397 C395 1.387 . S
C397 C399 1.390 . S
C397 H401 0.950 . S
H398 C394 0.950 . S
C399 C397 1.390 . S
C399 C400 1.387 . S
C399 H402 0.950 . S
C400 C399 1.387 . S
C400 C403 1.387 . S
H401 C397 0.950 . S
H402 C399 0.950 . S
C403 C394 1.390 . S
C403 H396 0.950 . S
C403 C400 1.387 . S
C404 C405 1.387 . S
C404 H408 0.950 . S
C404 C413 1.390 . S
C405 C404 1.387 . S
C405 C407 1.387 . S
H406 C413 0.950 . S
C407 C405 1.387 . S
C407 C409 1.390 . S
C407 H411 0.950 . S
H408 C404 0.950 . S
C409 C407 1.390 . S
C409 C410 1.387 . S
C409 H412 0.950 . S
C410 C409 1.387 . S
C410 C413 1.387 . S
H411 C407 0.950 . S
H412 C409 0.950 . S
C413 C404 1.390 . S
C413 H406 0.950 . S
C413 C410 1.387 . S
C414 C415 1.387 . S
C414 H418 0.950 . S
C414 C423 1.390 . S
C415 C414 1.387 . S
C415 C417 1.387 . S
H416 C423 0.950 . S
C417 C415 1.387 . S
C417 C419 1.390 . S
C417 H421 0.950 . S
H418 C414 0.950 . S
C419 C417 1.390 . S
C419 C420 1.387 . S
C419 H422 0.950 . S
C420 C419 1.387 . S
C420 C423 1.387 . S
H421 C417 0.950 . S
H422 C419 0.950 . S
C423 C414 1.390 . S
C423 H416 0.950 . S
C423 C420 1.387 . S
C424 C425 1.387 . S
C424 H428 0.950 . S
C424 C433 1.390 . S
C425 C424 1.387 . S
C425 C427 1.387 . S
H426 C433 0.950 . S
C427 C425 1.387 . S
C427 C429 1.390 . S
C427 H431 0.950 . S
H428 C424 0.950 . S
C429 C427 1.390 . S
C429 C430 1.387 . S
C429 H432 0.950 . S
C430 C429 1.387 . S
C430 C433 1.387 . S
H431 C427 0.950 . S
H432 C429 0.950 . S
C433 C424 1.390 . S
C433 H426 0.950 . S
C433 C430 1.387 . S
C434 C435 1.387 . S
C434 H438 0.950 . S
C434 C443 1.390 . S
C435 C434 1.387 . S
C435 C437 1.387 . S
H436 C443 0.950 . S
C437 C435 1.387 . S
C437 C439 1.390 . S
C437 H441 0.950 . S
H438 C434 0.950 . S
C439 C437 1.390 . S
C439 C440 1.387 . S
C439 H442 0.950 . S
C440 C439 1.387 . S
C440 C443 1.387 . S
H441 C437 0.950 . S
H442 C439 0.950 . S
C443 C434 1.390 . S
C443 H436 0.950 . S
C443 C440 1.387 . S
C444 C445 1.387 . S
C444 H448 0.950 . S
C444 C453 1.390 . S
C445 C444 1.387 . S
C445 C447 1.387 . S
H446 C453 0.950 . S
C447 C445 1.387 . S
C447 C449 1.390 . S
C447 H451 0.950 . S
H448 C444 0.950 . S
C449 C447 1.390 . S
C449 C450 1.387 . S
C449 H452 0.950 . S
C450 C449 1.387 . S
C450 C453 1.387 . S
H451 C447 0.950 . S
H452 C449 0.950 . S
C453 C444 1.390 . S
C453 H446 0.950 . S
C453 C450 1.387 . S
C454 C455 1.387 . S
C454 H458 0.950 . S
C454 C463 1.390 . S
C455 C454 1.387 . S
C455 C457 1.387 . S
H456 C463 0.950 . S
C457 C455 1.387 . S
C457 C459 1.390 . S
C457 H461 0.950 . S
H458 C454 0.950 . S
C459 C457 1.390 . S
C459 C460 1.387 . S
C459 H462 0.950 . S
C460 C459 1.387 . S
C460 C463 1.387 . S
H461 C457 0.950 . S
H462 C459 0.950 . S
C463 C454 1.390 . S
C463 H456 0.950 . S
C463 C460 1.387 . S
C464 C465 1.387 . S
C464 H468 0.950 . S
C464 C473 1.390 . S
C465 C464 1.387 . S
C465 C467 1.387 . S
H466 C473 0.950 . S
C467 C465 1.387 . S
C467 C469 1.390 . S
C467 H471 0.950 . S
H468 C464 0.950 . S
C469 C467 1.390 . S
C469 C470 1.387 . S
C469 H472 0.950 . S
C470 C469 1.387 . S
C470 C473 1.387 . S
H471 C467 0.950 . S
H472 C469 0.950 . S
C473 C464 1.390 . S
C473 H466 0.950 . S
C473 C470 1.387 . S
C474 C475 1.387 . S
C474 H478 0.950 . S
C474 C483 1.390 . S
C475 C474 1.387 . S
C475 C477 1.387 . S
H476 C483 0.950 . S
C477 C475 1.387 . S
C477 C479 1.390 . S
C477 H481 0.950 . S
H478 C474 0.950 . S
C479 C477 1.390 . S
C479 C480 1.387 . S
C479 H482 0.950 . S
C480 C479 1.387 . S
C480 C483 1.387 . S
H481 C477 0.950 . S
H482 C479 0.950 . S
C483 C474 1.390 . S
C483 H476 0.950 . S
C483 C480 1.387 . S
C484 C485 1.387 . S
C484 H488 0.950 . S
C484 C493 1.390 . S
C485 C484 1.387 . S
C485 C487 1.387 . S
H486 C493 0.950 . S
C487 C485 1.387 . S
C487 C489 1.390 . S
C487 H491 0.950 . S
H488 C484 0.950 . S
C489 C487 1.390 . S
C489 C490 1.387 . S
C489 H492 0.950 . S
C490 C489 1.387 . S
C490 C493 1.387 . S
H491 C487 0.950 . S
H492 C489 0.950 . S
C493 C484 1.390 . S
C493 H486 0.950 . S
C493 C490 1.387 . S
C494 C495 1.387 . S
C494 H498 0.950 . S
C494 C503 1.390 . S
C495 C494 1.387 . S
C495 C497 1.387 . S
H496 C503 0.950 . S
C497 C495 1.387 . S
C497 C499 1.390 . S
C497 H501 0.950 . S
H498 C494 0.950 . S
C499 C497 1.390 . S
C499 C500 1.387 . S
C499 H502 0.950 . S
C500 C499 1.387 . S
C500 C503 1.387 . S
H501 C497 0.950 . S
H502 C499 0.950 . S
C503 C494 1.390 . S
C503 H496 0.950 . S
C503 C500 1.387 . S
C265 C9 1.403 . S
C270 C119 1.492 . S
C275 C21 1.448 . S
C280 C163 1.486 . S
C290 C193 2.260 . S
C285 C30 2.215 . S
C295 C43 2.525 . S
C300 C234 2.548 . S
C310 C150 0.961 . S
C305 C4 0.855 . S
C320 C114 2.768 . S
C315 C22 2.720 . S
C330 C242 1.008 1_556 S
C325 C34 0.997 . S
C340 C203 2.087 . S
C335 C48 2.145 . S
C345 C8 1.767 . S
C350 C239 1.855 . S
C360 C153 1.853 . S
C355 C35 1.858 . S
C365 C47 2.117 . S
C370 C122 2.049 . S
C375 C17 2.316 . S
C380 C190 2.241 . S
C390 C110 1.113 . S
C385 C60 1.058 . S
C395 C74 1.334 . S
C400 C154 1.375 . S
C405 C82 1.678 . S
C410 C202 1.944 . S
C415 C100 2.988 . S
C420 C243 2.936 . S
C425 C61 1.289 . S
C430 C159 1.399 . S
C440 C123 2.206 . S
C435 C73 2.150 . S
C450 C233 1.397 . S
C445 C87 1.448 . S
C460 C194 2.207 . S
C455 C95 2.363 . S
C465 C56 1.492 . S
C470 C230 1.476 . S
C480 C162 2.212 . S
C475 C86 2.255 . S
C490 C113 1.973 . S
C485 C99 2.004 . S
C495 C69 1.808 . S
C500 C199 2.000 . S
