# Generated by pormake.
# Topology eea, (3,6)-cn, num edge types: 1
# Building blocks:
#     Node 0, Type 0, BuildingBlock: ESEHIV_clean_linker_0, # of connection points: 3
#     Node 1, Type 0, BuildingBlock: ESEHIV_clean_linker_0, # of connection points: 3
#     Node 2, Type 0, BuildingBlock: ESEHIV_clean_linker_0, # of connection points: 3
#     Node 3, Type 0, BuildingBlock: ESEHIV_clean_linker_0, # of connection points: 3
#     Node 4, Type 0, BuildingBlock: ESEHIV_clean_linker_0, # of connection points: 3
#     Node 5, Type 0, BuildingBlock: ESEHIV_clean_linker_0, # of connection points: 3
#     Node 6, Type 0, BuildingBlock: ESEHIV_clean_linker_0, # of connection points: 3
#     Node 7, Type 0, BuildingBlock: ESEHIV_clean_linker_0, # of connection points: 3
#     Node 8, Type 0, BuildingBlock: ESEHIV_clean_linker_0, # of connection points: 3
#     Node 9, Type 0, BuildingBlock: ESEHIV_clean_linker_0, # of connection points: 3
#     Node 10, Type 0, BuildingBlock: ESEHIV_clean_linker_0, # of connection points: 3
#     Node 11, Type 0, BuildingBlock: ESEHIV_clean_linker_0, # of connection points: 3
#     Node 12, Type 0, BuildingBlock: ESEHIV_clean_linker_0, # of connection points: 3
#     Node 13, Type 0, BuildingBlock: ESEHIV_clean_linker_0, # of connection points: 3
#     Node 14, Type 0, BuildingBlock: ESEHIV_clean_linker_0, # of connection points: 3
#     Node 15, Type 0, BuildingBlock: ESEHIV_clean_linker_0, # of connection points: 3
#     Node 16, Type 0, BuildingBlock: ESEHIV_clean_linker_0, # of connection points: 3
#     Node 17, Type 0, BuildingBlock: ESEHIV_clean_linker_0, # of connection points: 3
#     Node 18, Type 1, BuildingBlock: KUMJIN_clean_sbu_0, # of connection points: 6
#     Node 19, Type 1, BuildingBlock: KUMJIN_clean_sbu_0, # of connection points: 6
#     Node 20, Type 1, BuildingBlock: KUMJIN_clean_sbu_0, # of connection points: 6
#     Node 21, Type 1, BuildingBlock: KUMJIN_clean_sbu_0, # of connection points: 6
#     Node 22, Type 1, BuildingBlock: KUMJIN_clean_sbu_0, # of connection points: 6
#     Node 23, Type 1, BuildingBlock: KUMJIN_clean_sbu_0, # of connection points: 6
#     Node 24, Type 1, BuildingBlock: KUMJIN_clean_sbu_0, # of connection points: 6
#     Node 25, Type 1, BuildingBlock: KUMJIN_clean_sbu_0, # of connection points: 6
#     Node 26, Type 1, BuildingBlock: KUMJIN_clean_sbu_0, # of connection points: 6
#     Edge 27, Type (0, 1), BuildingBlock: KIFKEQ_clean_linker_1, # of connection points: 2
#     Edge 28, Type (0, 1), BuildingBlock: KIFKEQ_clean_linker_1, # of connection points: 2
#     Edge 29, Type (0, 1), BuildingBlock: KIFKEQ_clean_linker_1, # of connection points: 2
#     Edge 30, Type (0, 1), BuildingBlock: KIFKEQ_clean_linker_1, # of connection points: 2
#     Edge 31, Type (0, 1), BuildingBlock: KIFKEQ_clean_linker_1, # of connection points: 2
#     Edge 32, Type (0, 1), BuildingBlock: KIFKEQ_clean_linker_1, # of connection points: 2
#     Edge 33, Type (0, 1), BuildingBlock: KIFKEQ_clean_linker_1, # of connection points: 2
#     Edge 34, Type (0, 1), BuildingBlock: KIFKEQ_clean_linker_1, # of connection points: 2
#     Edge 35, Type (0, 1), BuildingBlock: KIFKEQ_clean_linker_1, # of connection points: 2
#     Edge 36, Type (0, 1), BuildingBlock: KIFKEQ_clean_linker_1, # of connection points: 2
#     Edge 37, Type (0, 1), BuildingBlock: KIFKEQ_clean_linker_1, # of connection points: 2
#     Edge 38, Type (0, 1), BuildingBlock: KIFKEQ_clean_linker_1, # of connection points: 2
#     Edge 39, Type (0, 1), BuildingBlock: KIFKEQ_clean_linker_1, # of connection points: 2
#     Edge 40, Type (0, 1), BuildingBlock: KIFKEQ_clean_linker_1, # of connection points: 2
#     Edge 41, Type (0, 1), BuildingBlock: KIFKEQ_clean_linker_1, # of connection points: 2
#     Edge 42, Type (0, 1), BuildingBlock: KIFKEQ_clean_linker_1, # of connection points: 2
#     Edge 43, Type (0, 1), BuildingBlock: KIFKEQ_clean_linker_1, # of connection points: 2
#     Edge 44, Type (0, 1), BuildingBlock: KIFKEQ_clean_linker_1, # of connection points: 2
#     Edge 45, Type (0, 1), BuildingBlock: KIFKEQ_clean_linker_1, # of connection points: 2
#     Edge 46, Type (0, 1), BuildingBlock: KIFKEQ_clean_linker_1, # of connection points: 2
#     Edge 47, Type (0, 1), BuildingBlock: KIFKEQ_clean_linker_1, # of connection points: 2
#     Edge 48, Type (0, 1), BuildingBlock: KIFKEQ_clean_linker_1, # of connection points: 2
#     Edge 49, Type (0, 1), BuildingBlock: KIFKEQ_clean_linker_1, # of connection points: 2
#     Edge 50, Type (0, 1), BuildingBlock: KIFKEQ_clean_linker_1, # of connection points: 2
#     Edge 51, Type (0, 1), BuildingBlock: KIFKEQ_clean_linker_1, # of connection points: 2
#     Edge 52, Type (0, 1), BuildingBlock: KIFKEQ_clean_linker_1, # of connection points: 2
#     Edge 53, Type (0, 1), BuildingBlock: KIFKEQ_clean_linker_1, # of connection points: 2
#     Edge 54, Type (0, 1), BuildingBlock: KIFKEQ_clean_linker_1, # of connection points: 2
#     Edge 55, Type (0, 1), BuildingBlock: KIFKEQ_clean_linker_1, # of connection points: 2
#     Edge 56, Type (0, 1), BuildingBlock: KIFKEQ_clean_linker_1, # of connection points: 2
#     Edge 57, Type (0, 1), BuildingBlock: KIFKEQ_clean_linker_1, # of connection points: 2
#     Edge 58, Type (0, 1), BuildingBlock: KIFKEQ_clean_linker_1, # of connection points: 2
#     Edge 59, Type (0, 1), BuildingBlock: KIFKEQ_clean_linker_1, # of connection points: 2
#     Edge 60, Type (0, 1), BuildingBlock: KIFKEQ_clean_linker_1, # of connection points: 2
#     Edge 61, Type (0, 1), BuildingBlock: KIFKEQ_clean_linker_1, # of connection points: 2
#     Edge 62, Type (0, 1), BuildingBlock: KIFKEQ_clean_linker_1, # of connection points: 2
#     Edge 63, Type (0, 1), BuildingBlock: KIFKEQ_clean_linker_1, # of connection points: 2
#     Edge 64, Type (0, 1), BuildingBlock: KIFKEQ_clean_linker_1, # of connection points: 2
#     Edge 65, Type (0, 1), BuildingBlock: KIFKEQ_clean_linker_1, # of connection points: 2
#     Edge 66, Type (0, 1), BuildingBlock: KIFKEQ_clean_linker_1, # of connection points: 2
#     Edge 67, Type (0, 1), BuildingBlock: KIFKEQ_clean_linker_1, # of connection points: 2
#     Edge 68, Type (0, 1), BuildingBlock: KIFKEQ_clean_linker_1, # of connection points: 2
#     Edge 69, Type (0, 1), BuildingBlock: KIFKEQ_clean_linker_1, # of connection points: 2
#     Edge 70, Type (0, 1), BuildingBlock: KIFKEQ_clean_linker_1, # of connection points: 2
#     Edge 71, Type (0, 1), BuildingBlock: KIFKEQ_clean_linker_1, # of connection points: 2
#     Edge 72, Type (0, 1), BuildingBlock: KIFKEQ_clean_linker_1, # of connection points: 2
#     Edge 73, Type (0, 1), BuildingBlock: KIFKEQ_clean_linker_1, # of connection points: 2
#     Edge 74, Type (0, 1), BuildingBlock: KIFKEQ_clean_linker_1, # of connection points: 2
#     Edge 75, Type (0, 1), BuildingBlock: KIFKEQ_clean_linker_1, # of connection points: 2
#     Edge 76, Type (0, 1), BuildingBlock: KIFKEQ_clean_linker_1, # of connection points: 2
#     Edge 77, Type (0, 1), BuildingBlock: KIFKEQ_clean_linker_1, # of connection points: 2
#     Edge 78, Type (0, 1), BuildingBlock: KIFKEQ_clean_linker_1, # of connection points: 2
#     Edge 79, Type (0, 1), BuildingBlock: KIFKEQ_clean_linker_1, # of connection points: 2
#     Edge 80, Type (0, 1), BuildingBlock: KIFKEQ_clean_linker_1, # of connection points: 2
# Relax obj value: 0.008
# Max RMSD: 0.089
# Mean RMSD: 0.072
data_MOF--net-eea--node1-KUMJIN_clean_sbu_0--node2-ESEHIV_clean_linker_0--edge1-KIFKEQ_clean_linker_1
_symmetry_space_group_name_H-M    P1
_symmetry_Int_Tables_number       1
_symmetry_cell_setting            triclinic
loop_
_symmetry_equiv_pos_as_xyz
'x, y, z'
_cell_length_a     48.256476
_cell_length_b     49.709462
_cell_length_c     71.622639
_cell_angle_alpha  89.738459
_cell_angle_beta   89.769858
_cell_angle_gamma 119.9691
loop_
_atom_site_label
_atom_site_type_symbol
_atom_site_fract_x
_atom_site_fract_y
_atom_site_fract_z
_atom_type_partial_charge
H0 H 0.26287 0.17178 0.45021 0.0
H1 H 0.25832 0.08339 0.45292 0.0
H2 H 0.22965 0.1116 0.40285 0.0
C3 C 0.25734 0.15002 0.4437 0.0
C4 C 0.2447 0.14344 0.42566 0.0
C5 C 0.26287 0.12859 0.45336 0.0
C6 C 0.25483 0.1001 0.44505 0.0
C7 C 0.24287 0.09346 0.42671 0.0
C8 C 0.23833 0.1157 0.41706 0.0
H9 H 0.84626 0.08527 0.45101 0.0
H10 H 0.93136 0.17468 0.44778 0.0
H11 H 0.90505 0.11101 0.40166 0.0
C12 C 0.86746 0.10201 0.44341 0.0
C13 C 0.87373 0.09471 0.42557 0.0
C14 C 0.88809 0.13092 0.45138 0.0
C15 C 0.91529 0.15264 0.44134 0.0
C16 C 0.92203 0.14582 0.42334 0.0
C17 C 0.90101 0.11656 0.41566 0.0
H18 H 0.84271 0.76038 0.44615 0.0
H19 H 0.93377 0.76371 0.44625 0.0
H20 H 0.90092 0.7877 0.39654 0.0
C21 C 0.86475 0.76525 0.43922 0.0
C22 C 0.8695 0.77526 0.42049 0.0
C23 C 0.88744 0.76041 0.44874 0.0
C24 C 0.91562 0.76655 0.43913 0.0
C25 C 0.92056 0.7761 0.42026 0.0
C26 C 0.89713 0.77998 0.41098 0.0
H27 H 0.08512 0.24175 0.589 0.0
H28 H 0.17517 0.2444 0.59075 0.0
H29 H 0.11455 0.21585 0.63957 0.0
C30 C 0.10229 0.23814 0.59669 0.0
C31 C 0.09578 0.22743 0.61539 0.0
C32 C 0.13125 0.24506 0.58793 0.0
C33 C 0.15336 0.24 0.59778 0.0
C34 C 0.14757 0.22914 0.61637 0.0
C35 C 0.11867 0.22297 0.62504 0.0
H36 H 0.74383 0.91466 0.58667 0.0
H37 H 0.74712 0.82981 0.58492 0.0
H38 H 0.79291 0.89449 0.62965 0.0
C39 C 0.75119 0.89922 0.59276 0.0
C40 C 0.7694 0.90792 0.60915 0.0
C41 C 0.74343 0.87129 0.58381 0.0
C42 C 0.75337 0.85158 0.59167 0.0
C43 C 0.77116 0.85975 0.60825 0.0
C44 C 0.77951 0.88819 0.61674 0.0
H45 H 0.0836 0.82677 0.58923 0.0
H46 H 0.16846 0.91634 0.58552 0.0
H47 H 0.11006 0.89102 0.63503 0.0
C48 C 0.09969 0.84892 0.59555 0.0
C49 C 0.09306 0.85593 0.61352 0.0
C50 C 0.12673 0.87059 0.58537 0.0
C51 C 0.14737 0.89963 0.59322 0.0
C52 C 0.14122 0.9071 0.61104 0.0
C53 C 0.11405 0.88533 0.62106 0.0
H54 H 0.93293 0.50464 0.7851 0.0
H55 H 0.93515 0.41947 0.7839 0.0
H56 H 0.88421 0.43844 0.7415 0.0
C57 C 0.92568 0.48246 0.77862 0.0
C58 C 0.90795 0.47434 0.762 0.0
C59 C 0.93524 0.46258 0.78664 0.0
C60 C 0.9272 0.43446 0.77785 0.0
C61 C 0.90892 0.42554 0.76146 0.0
C62 C 0.89917 0.44554 0.75378 0.0
H63 H 0.5143 0.42131 0.7837 0.0
H64 H 0.6015 0.50925 0.77903 0.0
H65 H 0.57245 0.44365 0.73406 0.0
C66 C 0.53552 0.43732 0.77584 0.0
C67 C 0.54084 0.42906 0.75802 0.0
C68 C 0.5573 0.46619 0.78352 0.0
C69 C 0.58466 0.48687 0.7732 0.0
C70 C 0.59029 0.47887 0.75534 0.0
C71 C 0.56827 0.44991 0.74784 0.0
H72 H 0.50801 0.09438 0.78181 0.0
H73 H 0.59456 0.09041 0.7796 0.0
H74 H 0.56367 0.11928 0.7309 0.0
C75 C 0.52876 0.0977 0.77398 0.0
C76 C 0.53309 0.10796 0.75523 0.0
C77 C 0.55044 0.09067 0.78263 0.0
C78 C 0.57756 0.09519 0.77265 0.0
C79 C 0.58306 0.10611 0.75404 0.0
C80 C 0.56051 0.11229 0.74545 0.0
H81 H 0.74977 0.57479 0.92442 0.0
H82 H 0.83842 0.57436 0.92154 0.0
H83 H 0.78269 0.54711 0.97254 0.0
C84 C 0.76736 0.57039 0.93096 0.0
C85 C 0.76258 0.55939 0.94949 0.0
C86 C 0.79488 0.57619 0.9209 0.0
C87 C 0.81749 0.57028 0.92946 0.0
C88 C 0.81368 0.55998 0.9482 0.0
C89 C 0.78603 0.55471 0.95809 0.0
H90 H 0.41785 0.25166 0.91813 0.0
H91 H 0.41334 0.16327 0.92005 0.0
H92 H 0.46272 0.23068 0.96318 0.0
C93 C 0.42379 0.23574 0.92502 0.0
C94 C 0.44084 0.24425 0.94181 0.0
C95 C 0.41419 0.20671 0.9171 0.0
C96 C 0.42147 0.18593 0.92611 0.0
C97 C 0.43926 0.19434 0.94273 0.0
C98 C 0.449 0.22374 0.95041 0.0
H99 H 0.74895 0.16049 0.92283 0.0
H100 H 0.83955 0.24518 0.92197 0.0
H101 H 0.77531 0.22366 0.96882 0.0
C102 C 0.76579 0.18228 0.92928 0.0
C103 C 0.75914 0.18956 0.9471 0.0
C104 C 0.79492 0.20227 0.92023 0.0
C105 C 0.81697 0.23009 0.92891 0.0
C106 C 0.81019 0.23847 0.94637 0.0
C107 C 0.7812 0.21776 0.95541 0.0
H108 H 0.59929 0.83799 0.11978 0.0
H109 H 0.60159 0.75278 0.11767 0.0
H110 H 0.5522 0.77376 0.07515 0.0
C111 C 0.59267 0.81617 0.11299 0.0
C112 C 0.57501 0.80838 0.09638 0.0
C113 C 0.60204 0.79601 0.1208 0.0
C114 C 0.59382 0.76801 0.11177 0.0
C115 C 0.57568 0.75956 0.09531 0.0
C116 C 0.5662 0.77989 0.08781 0.0
H117 H 0.17347 0.75577 0.11434 0.0
H118 H 0.26291 0.84157 0.1155 0.0
H119 H 0.23838 0.78099 0.0679 0.0
C120 C 0.19598 0.7721 0.1077 0.0
C121 C 0.20397 0.76497 0.0903 0.0
C122 C 0.21719 0.79965 0.11687 0.0
C123 C 0.24657 0.82042 0.10831 0.0
C124 C 0.25453 0.81432 0.09042 0.0
C125 C 0.2331 0.78614 0.0817 0.0
H126 H 0.17594 0.42981 0.11317 0.0
H127 H 0.26174 0.424 0.11134 0.0
H128 H 0.2328 0.4555 0.06291 0.0
C129 C 0.19708 0.43328 0.1057 0.0
C130 C 0.20222 0.4441 0.08712 0.0
C131 C 0.21803 0.42518 0.11433 0.0
C132 C 0.24511 0.4293 0.1044 0.0
C133 C 0.25113 0.44062 0.08586 0.0
C134 C 0.22916 0.44756 0.07729 0.0
H135 H 0.42169 0.90946 0.25644 0.0
H136 H 0.5116 0.91191 0.25783 0.0
H137 H 0.45137 0.88339 0.30686 0.0
C138 C 0.43888 0.9058 0.26407 0.0
C139 C 0.43253 0.89518 0.28278 0.0
C140 C 0.46772 0.91265 0.25522 0.0
C141 C 0.48988 0.90754 0.26495 0.0
C142 C 0.48424 0.89667 0.28355 0.0
C143 C 0.45541 0.89056 0.29234 0.0
H144 H 0.08463 0.58453 0.25092 0.0
H145 H 0.07965 0.49575 0.2528 0.0
H146 H 0.12698 0.56188 0.29668 0.0
C147 C 0.09012 0.56834 0.25787 0.0
C148 C 0.10677 0.57654 0.27481 0.0
C149 C 0.08039 0.53929 0.24988 0.0
C150 C 0.08707 0.51817 0.25902 0.0
C151 C 0.1044 0.5264 0.27577 0.0
C152 C 0.11432 0.55571 0.28352 0.0
H153 H 0.41231 0.4967 0.25476 0.0
H154 H 0.50133 0.58334 0.25398 0.0
H155 H 0.44458 0.55184 0.3043 0.0
C156 C 0.43013 0.51741 0.26175 0.0
C157 C 0.42532 0.522 0.28057 0.0
C158 C 0.4579 0.53914 0.25207 0.0
C159 C 0.48019 0.56626 0.26139 0.0
C160 C 0.47562 0.57149 0.28018 0.0
C161 C 0.44829 0.54876 0.28971 0.0
Eu162 Eu 0.49487 0.97853 0.99671 0.0
C163 C 0.56312 0.09832 0.04592 0.0
C164 C 0.61901 0.113 0.04422 0.0
C165 C 0.60414 0.15267 0.0483 0.0
C166 C 0.58634 0.09012 0.04373 0.0
C167 C 0.57169 0.12959 0.04867 0.0
C168 C 0.62777 0.14439 0.04604 0.0
C169 C 0.51569 0.11255 0.0535 0.0
N170 N 0.5321 0.07543 0.04639 0.0
C171 C 0.50843 0.08189 0.0507 0.0
C172 C 0.54744 0.13658 0.05224 0.0
Eu173 Eu 0.52117 0.02426 0.04053 0.0
N174 N 0.57699 0.05956 0.04226 0.0
C175 C 0.59914 0.05011 0.04275 0.0
C176 C 0.64186 0.10354 0.04347 0.0
C177 C 0.63184 0.07191 0.04307 0.0
H178 H 0.48382 0.0634 0.05149 0.0
H179 H 0.64929 0.06429 0.04292 0.0
H180 H 0.65274 0.16232 0.04626 0.0
H181 H 0.49681 0.11764 0.05654 0.0
H182 H 0.59187 0.0258 0.04235 0.0
H183 H 0.36594 0.93343 0.99437 0.0
H184 H 0.6672 0.12038 0.04374 0.0
H185 H 0.53548 0.94217 0.98595 0.0
H186 H 0.42292 0.97378 0.99504 0.0
H187 H 0.52489 0.88873 0.98088 0.0
H188 H 0.61122 0.17688 0.0502 0.0
H189 H 0.3505 0.87793 0.99337 0.0
H190 H 0.36747 0.83778 0.99077 0.0
H191 H 0.55303 0.16032 0.05444 0.0
H192 H 0.41074 0.82561 0.98689 0.0
N193 N 0.43967 0.94149 0.99507 0.0
C194 C 0.41656 0.94967 0.99459 0.0
C195 C 0.37558 0.89555 0.99371 0.0
C196 C 0.39947 0.88744 0.99296 0.0
C197 C 0.3842 0.92685 0.99421 0.0
C198 C 0.43174 0.9113 0.99352 0.0
H199 H 0.46947 0.8445 0.98282 0.0
N200 N 0.48666 0.9282 0.99108 0.0
C201 C 0.5053 0.8928 0.98392 0.0
C202 C 0.456 0.90443 0.99139 0.0
C203 C 0.51122 0.92303 0.98677 0.0
C204 C 0.474 0.86789 0.98507 0.0
C205 C 0.44881 0.87356 0.98858 0.0
O206 O 0.52132 0.98966 0.97032 0.0
O207 O 0.53311 0.02012 1.01104 0.0
O208 O 0.51423 0.05351 0.01878 0.0
O209 O 0.47924 0.01497 0.99841 0.0
O210 O 0.54815 0.99604 0.99443 0.0
O211 O 0.47577 0.98794 0.97132 0.0
O212 O 0.49796 0.0192 0.06771 0.0
O213 O 0.4825 0.98327 0.02607 0.0
O214 O 0.50103 0.94881 0.01849 0.0
O215 O 0.53631 0.98752 0.03862 0.0
O216 O 0.46807 0.00752 0.04291 0.0
O217 O 0.53515 0.00735 0.06487 0.0
C218 C 0.55759 0.02015 1.00481 0.0
C219 C 0.49176 0.97652 0.94244 0.0
C220 C 0.49335 0.98022 0.90818 0.0
C221 C 0.49887 0.99439 0.92591 0.0
C222 C 0.48064 0.94778 0.90753 0.0
C223 C 0.47856 0.9443 0.94128 0.0
C224 C 0.47309 0.93008 0.92391 0.0
C225 C 0.49346 0.04378 1.00488 0.0
C226 C 0.49961 0.99184 0.96077 0.0
C227 C 0.41675 0.84953 0.98884 0.0
C228 C 0.39212 0.85646 0.99106 0.0
C229 C 0.45823 0.9836 0.03234 0.0
C230 C 0.52879 0.02417 0.09447 0.0
C231 C 0.51749 0.00629 0.11098 0.0
C232 C 0.53148 0.0191 0.12832 0.0
C233 C 0.55648 0.05013 0.12889 0.0
C234 C 0.5536 0.05511 0.0954 0.0
C235 C 0.56727 0.068 0.11256 0.0
C236 C 0.52173 0.95856 0.03241 0.0
C237 C 0.51554 0.00996 0.07629 0.0
H238 H 0.5086 0.01924 0.92697 0.0
H239 H 0.47695 0.93591 0.89436 0.0
H240 H 0.4729 0.9302 0.95378 0.0
H241 H 0.46331 0.90521 0.92312 0.0
H242 H 0.49849 0.98228 0.11028 0.0
H243 H 0.56756 0.06064 0.14203 0.0
H244 H 0.56257 0.06915 0.08285 0.0
H245 H 0.58647 0.09188 0.11318 0.0
Eu246 Eu 0.03401 0.5104 0.99737 0.0
C247 C 0.90465 0.45739 0.04132 0.0
C248 C 0.88857 0.49608 0.03742 0.0
C249 C 0.84818 0.44174 0.04149 0.0
C250 C 0.91267 0.48796 0.03844 0.0
C251 C 0.87236 0.43405 0.04343 0.0
C252 C 0.85628 0.47271 0.03845 0.0
C253 C 0.89043 0.39792 0.05107 0.0
N254 N 0.92858 0.45081 0.04331 0.0
C255 C 0.92209 0.42187 0.04883 0.0
C256 C 0.86542 0.40391 0.04807 0.0
Eu257 Eu 0.98146 0.49237 0.03899 0.0
N258 N 0.94409 0.51 0.03779 0.0
C259 C 0.95309 0.54077 0.03768 0.0
C260 C 0.89768 0.52753 0.03606 0.0
C261 C 0.93009 0.54999 0.03651 0.0
H262 H 0.94134 0.41711 0.05107 0.0
H263 H 0.93738 0.5744 0.03588 0.0
H264 H 0.83743 0.47846 0.03748 0.0
H265 H 0.88534 0.37485 0.05505 0.0
H266 H 0.97806 0.55834 0.03792 0.0
H267 H 0.07396 0.42506 1.00025 0.0
H268 H 0.87992 0.53473 0.03517 0.0
H269 H 0.07639 0.58543 0.98541 0.0
H270 H 0.03481 0.44293 0.99824 0.0
H271 H 0.133 0.62646 0.98157 0.0
H272 H 0.82321 0.42408 0.04284 0.0
H273 H 0.13185 0.46327 1.00115 0.0
H274 H 0.17577 0.51901 0.99897 0.0
H275 H 0.84091 0.38533 0.04985 0.0
H276 H 0.19191 0.57391 0.99369 0.0
N277 N 0.06997 0.49096 0.99852 0.0
C278 C 0.05994 0.45994 0.99855 0.0
C279 C 0.11475 0.4713 1.00026 0.0
C280 C 0.12494 0.50299 0.99895 0.0
C281 C 0.0821 0.44967 0.99969 0.0
C282 C 0.10166 0.51218 0.99792 0.0
H283 H 0.17612 0.6141 0.98674 0.0
N284 N 0.08756 0.55053 0.99293 0.0
C285 C 0.12709 0.60311 0.98543 0.0
C286 C 0.11075 0.54298 0.99499 0.0
C287 C 0.09509 0.57984 0.98756 0.0
C288 C 0.15136 0.59606 0.98842 0.0
C289 C 0.14334 0.56558 0.99298 0.0
O290 O 0.03271 0.52737 0.96934 0.0
O291 O 0.99 0.5077 1.00924 0.0
O292 O 0.95335 0.45607 0.01731 0.0
O293 O 0.99508 0.45908 0.99911 0.0
O294 O 0.01724 0.5451 0.99193 0.0
O295 O 0.02154 0.47976 0.97339 0.0
O296 O 0.98793 0.47758 0.06655 0.0
O297 O 0.02584 0.49584 0.02718 0.0
O298 O 0.06179 0.54689 0.01907 0.0
O299 O 0.02007 0.54383 0.03734 0.0
O300 O 0.99895 0.45813 0.04433 0.0
O301 O 0.98757 0.52075 0.06357 0.0
C302 C 0.99132 0.53131 1.00174 0.0
C303 C 0.04461 0.50362 0.94455 0.0
C304 C 0.04764 0.50157 0.91064 0.0
C305 C 0.03094 0.50091 0.92693 0.0
C306 C 0.0784 0.5053 0.91223 0.0
C307 C 0.07542 0.5076 0.9459 0.0
C308 C 0.09223 0.50849 0.92978 0.0
C309 C 0.96462 0.44477 1.00455 0.0
C310 C 0.02598 0.50133 0.96133 0.0
C311 C 0.16672 0.55684 0.99498 0.0
C312 C 0.15753 0.52558 0.99799 0.0
C313 C 0.02497 0.47241 0.03463 0.0
C314 C 0.96917 0.49329 0.0922 0.0
C315 C 0.98433 0.50031 0.10959 0.0
C316 C 0.96617 0.49083 0.12617 0.0
C317 C 0.93264 0.47447 0.12519 0.0
C318 C 0.93566 0.47742 0.09141 0.0
C319 C 0.91751 0.46809 0.10787 0.0
C320 C 0.05049 0.55824 0.03181 0.0
C321 C 0.9887 0.50098 0.07513 0.0
H322 H 0.00699 0.49754 0.92592 0.0
H323 H 0.0918 0.50599 0.89989 0.0
H324 H 0.08632 0.50973 0.95937 0.0
H325 H 0.11597 0.51148 0.93089 0.0
H326 H 0.01025 0.51241 0.11024 0.0
H327 H 0.91823 0.46694 0.13782 0.0
H328 H 0.92356 0.47196 0.07816 0.0
H329 H 0.89165 0.45566 0.10718 0.0
Eu330 Eu 0.52149 0.49184 0.03949 0.0
C331 C 0.45612 0.54968 0.99135 0.0
C332 C 0.39966 0.51146 0.99244 0.0
C333 C 0.41659 0.56623 0.98902 0.0
C334 C 0.43199 0.51911 0.99309 0.0
C335 C 0.44872 0.57353 0.98881 0.0
C336 C 0.3921 0.53524 0.99086 0.0
C337 C 0.50519 0.60957 0.98442 0.0
N338 N 0.48687 0.5559 0.99108 0.0
C339 C 0.51132 0.58512 0.987 0.0
C340 C 0.47379 0.60384 0.98559 0.0
Eu341 Eu 0.4954 0.51352 0.9961 0.0
N342 N 0.44013 0.4967 0.99432 0.0
C343 C 0.4172 0.46608 0.99343 0.0
C344 C 0.37594 0.48009 0.99277 0.0
C345 C 0.38478 0.4573 0.99295 0.0
H346 H 0.53564 0.58969 0.98618 0.0
H347 H 0.36666 0.43297 0.99279 0.0
H348 H 0.3674 0.52984 0.99052 0.0
H349 H 0.52468 0.63281 0.98159 0.0
H350 H 0.42374 0.44825 0.99364 0.0
H351 H 0.64937 0.57664 0.04295 0.0
H352 H 0.35082 0.47324 0.99236 0.0
H353 H 0.48444 0.41597 0.04946 0.0
H354 H 0.5919 0.5591 0.04204 0.0
H355 H 0.49778 0.37441 0.05409 0.0
H356 H 0.41041 0.58426 0.98728 0.0
H357 H 0.66767 0.5382 0.04344 0.0
H358 H 0.65361 0.48227 0.04533 0.0
H359 H 0.4691 0.62281 0.98355 0.0
H360 H 0.61234 0.42718 0.04857 0.0
N361 N 0.57737 0.51099 0.04146 0.0
C362 C 0.59932 0.54194 0.0423 0.0
C363 C 0.6423 0.5303 0.04303 0.0
C364 C 0.61963 0.49862 0.0434 0.0
C365 C 0.63206 0.55206 0.04281 0.0
C366 C 0.58691 0.4896 0.04274 0.0
H367 H 0.55419 0.3868 0.05225 0.0
N368 N 0.53271 0.45126 0.04485 0.0
C369 C 0.51659 0.39801 0.05135 0.0
C370 C 0.56382 0.45872 0.04455 0.0
C371 C 0.50913 0.42158 0.04879 0.0
C372 C 0.54844 0.40508 0.05024 0.0
C373 C 0.57259 0.43582 0.04706 0.0
O374 O 0.49843 0.473 0.06653 0.0
O375 O 0.4826 0.49567 0.02531 0.0
O376 O 0.50093 0.54808 0.0182 0.0
O377 O 0.53637 0.54332 0.03815 0.0
O378 O 0.4684 0.45677 0.04173 0.0
O379 O 0.5351 0.52132 0.06407 0.0
O380 O 0.52197 0.52964 0.96985 0.0
O381 O 0.5337 0.50864 1.01017 0.0
O382 O 0.51533 0.45704 0.01733 0.0
O383 O 0.48017 0.46196 0.99716 0.0
O384 O 0.54884 0.5478 0.99388 0.0
O385 O 0.47643 0.48696 0.9704 0.0
C386 C 0.45841 0.47143 0.03141 0.0
C387 C 0.52925 0.49715 0.0933 0.0
C388 C 0.53029 0.50189 0.12723 0.0
C389 C 0.51641 0.50145 0.10992 0.0
C390 C 0.5569 0.49752 0.12771 0.0
C391 C 0.5556 0.49253 0.09404 0.0
C392 C 0.56928 0.49264 0.11121 0.0
C393 C 0.52169 0.55819 0.03206 0.0
C394 C 0.5158 0.49901 0.07531 0.0
C395 C 0.6051 0.44446 0.04685 0.0
C396 C 0.6286 0.47582 0.04499 0.0
C397 C 0.55827 0.5325 1.00409 0.0
C398 C 0.49232 0.51583 0.9421 0.0
C399 C 0.50197 0.50809 0.92539 0.0
C400 C 0.49714 0.51866 0.90812 0.0
C401 C 0.48218 0.53671 0.90774 0.0
C402 C 0.47701 0.53348 0.94145 0.0
C403 C 0.47194 0.54381 0.92433 0.0
C404 C 0.49467 0.44697 1.00339 0.0
C405 C 0.50021 0.50697 0.96006 0.0
H406 H 0.4962 0.50531 0.10933 0.0
H407 H 0.56796 0.49767 0.14087 0.0
H408 H 0.56578 0.4892 0.08138 0.0
H409 H 0.58971 0.48919 0.11172 0.0
H410 H 0.514 0.49461 0.92585 0.0
H411 H 0.47817 0.54505 0.8946 0.0
H412 H 0.46934 0.53958 0.95415 0.0
H413 H 0.46027 0.55759 0.92391 0.0
Eu414 Eu 0.15937 0.31047 0.32861 0.0
C415 C 0.22912 0.42963 0.37872 0.0
C416 C 0.28511 0.44482 0.37649 0.0
C417 C 0.26984 0.48403 0.38145 0.0
C418 C 0.2525 0.42177 0.37607 0.0
C419 C 0.23747 0.46075 0.38188 0.0
C420 C 0.29363 0.47608 0.37874 0.0
C421 C 0.18146 0.44313 0.38716 0.0
N422 N 0.19819 0.40654 0.37922 0.0
C423 C 0.17442 0.41263 0.38395 0.0
C424 C 0.2131 0.46738 0.38588 0.0
Eu425 Eu 0.1876 0.35564 0.37269 0.0
N426 N 0.24337 0.39132 0.37419 0.0
C427 C 0.26572 0.38213 0.3742 0.0
C428 C 0.30814 0.43566 0.37525 0.0
C429 C 0.29838 0.40411 0.37442 0.0
H430 H 0.14989 0.394 0.38479 0.0
H431 H 0.31597 0.39669 0.37388 0.0
H432 H 0.31855 0.49416 0.37892 0.0
H433 H 0.16248 0.44793 0.39054 0.0
H434 H 0.25863 0.3579 0.37347 0.0
H435 H 0.0307 0.26709 0.32668 0.0
H436 H 0.33344 0.45264 0.37546 0.0
H437 H 0.19892 0.27297 0.31799 0.0
H438 H 0.08788 0.30683 0.32721 0.0
H439 H 0.18747 0.21913 0.31346 0.0
H440 H 0.27675 0.50813 0.38367 0.0
H441 H 0.01443 0.21138 0.32569 0.0
H442 H 0.03052 0.17059 0.32316 0.0
H443 H 0.21851 0.49098 0.3884 0.0
H444 H 0.07318 0.15753 0.3194 0.0
N445 N 0.10397 0.27403 0.32702 0.0
C446 C 0.08118 0.28264 0.3267 0.0
C447 C 0.0396 0.22874 0.32591 0.0
C448 C 0.06313 0.22017 0.32508 0.0
C449 C 0.04869 0.26016 0.32641 0.0
C450 C 0.09555 0.24371 0.32549 0.0
H451 H 0.13174 0.1755 0.31549 0.0
N452 N 0.15026 0.25981 0.32292 0.0
C453 C 0.16813 0.22364 0.3163 0.0
C454 C 0.11946 0.23636 0.32334 0.0
C455 C 0.17452 0.25409 0.31881 0.0
C456 C 0.13664 0.19907 0.3175 0.0
C457 C 0.11177 0.20528 0.32079 0.0
O458 O 0.18506 0.32106 0.30198 0.0
O459 O 0.19833 0.3516 0.34291 0.0
O460 O 0.18 0.38529 0.35147 0.0
O461 O 0.14409 0.34699 0.33128 0.0
O462 O 0.21247 0.32766 0.32546 0.0
O463 O 0.14058 0.32146 0.30368 0.0
O464 O 0.16484 0.34922 0.40015 0.0
O465 O 0.14834 0.31519 0.3582 0.0
O466 O 0.16552 0.28059 0.35018 0.0
O467 O 0.20309 0.31922 0.3695 0.0
O468 O 0.13455 0.33878 0.37603 0.0
O469 O 0.2026 0.33838 0.39644 0.0
C470 C 0.22243 0.3515 0.33614 0.0
C471 C 0.15521 0.3102 0.2743 0.0
C472 C 0.15925 0.31539 0.24028 0.0
C473 C 0.16502 0.32899 0.25809 0.0
C474 C 0.14316 0.28288 0.23889 0.0
C475 C 0.13886 0.27779 0.2726 0.0
C476 C 0.13281 0.26425 0.25495 0.0
C477 C 0.15867 0.37573 0.33786 0.0
C478 C 0.16384 0.32468 0.29284 0.0
C479 C 0.07957 0.18159 0.32117 0.0
C480 C 0.05529 0.18902 0.32332 0.0
C481 C 0.12433 0.31537 0.36502 0.0
C482 C 0.19646 0.35415 0.42648 0.0
C483 C 0.18446 0.33642 0.44302 0.0
C484 C 0.19845 0.34904 0.46041 0.0
C485 C 0.22418 0.37973 0.46098 0.0
C486 C 0.22197 0.38475 0.42744 0.0
C487 C 0.23566 0.39745 0.44463 0.0
C488 C 0.18786 0.29035 0.36315 0.0
C489 C 0.183 0.34023 0.40826 0.0
H490 H 0.17788 0.35406 0.25933 0.0
H491 H 0.1385 0.27191 0.22534 0.0
H492 H 0.13116 0.26302 0.28489 0.0
H493 H 0.12034 0.23922 0.25372 0.0
H494 H 0.16487 0.31268 0.4423 0.0
H495 H 0.23527 0.39012 0.47414 0.0
H496 H 0.23145 0.3987 0.4149 0.0
H497 H 0.25541 0.42107 0.44527 0.0
Eu498 Eu 0.70172 0.84175 0.33151 0.0
C499 C 0.57192 0.79256 0.37363 0.0
C500 C 0.55867 0.8334 0.37094 0.0
C501 C 0.5162 0.77945 0.3725 0.0
C502 C 0.58158 0.82372 0.37187 0.0
C503 C 0.53913 0.77008 0.37434 0.0
C504 C 0.52596 0.81107 0.3708 0.0
C505 C 0.55411 0.73111 0.38019 0.0
N506 N 0.59465 0.78434 0.37555 0.0
C507 C 0.58632 0.75429 0.37952 0.0
C508 C 0.53039 0.73898 0.37737 0.0
Eu509 Eu 0.64862 0.82449 0.37289 0.0
N510 N 0.61335 0.84469 0.37209 0.0
C511 C 0.62377 0.87574 0.37293 0.0
C512 C 0.5693 0.86524 0.37069 0.0
C513 C 0.60197 0.88648 0.37202 0.0
H514 H 0.60466 0.74815 0.38154 0.0
H515 H 0.61042 0.91116 0.37221 0.0
H516 H 0.50802 0.81804 0.36985 0.0
H517 H 0.54761 0.70721 0.38285 0.0
H518 H 0.64894 0.89245 0.37382 0.0
H519 H 0.74339 0.75778 0.33486 0.0
H520 H 0.55248 0.87364 0.36993 0.0
H521 H 0.74318 0.91677 0.31927 0.0
H522 H 0.70367 0.77492 0.33284 0.0
H523 H 0.79947 0.95822 0.3151 0.0
H524 H 0.49089 0.76251 0.37283 0.0
H525 H 0.80115 0.79655 0.33531 0.0
H526 H 0.8445 0.85246 0.33264 0.0
H527 H 0.50545 0.72099 0.37796 0.0
H528 H 0.85982 0.90708 0.32706 0.0
N529 N 0.73835 0.8231 0.33273 0.0
C530 C 0.72872 0.79217 0.33298 0.0
C531 C 0.78378 0.80425 0.33443 0.0
C532 C 0.79354 0.83583 0.3329 0.0
C533 C 0.75121 0.7823 0.33412 0.0
C534 C 0.76993 0.84459 0.3319 0.0
H535 H 0.84318 0.94664 0.32007 0.0
N536 N 0.75502 0.88232 0.32679 0.0
C537 C 0.79393 0.935 0.31903 0.0
C538 C 0.77855 0.87521 0.32877 0.0
C539 C 0.7621 0.91148 0.32136 0.0
C540 C 0.81854 0.92839 0.32191 0.0
C541 C 0.811 0.89809 0.32657 0.0
O542 O 0.69924 0.85741 0.30331 0.0
O543 O 0.65805 0.83994 0.34327 0.0
O544 O 0.62117 0.79018 0.35016 0.0
O545 O 0.66327 0.79036 0.33405 0.0
O546 O 0.68523 0.87669 0.32561 0.0
O547 O 0.68914 0.81027 0.30793 0.0
O548 O 0.6471 0.80575 0.40077 0.0
O549 O 0.69264 0.82694 0.36133 0.0
O550 O 0.72977 0.87815 0.35322 0.0
O551 O 0.68822 0.87556 0.37152 0.0
O552 O 0.66557 0.78987 0.37881 0.0
O553 O 0.66076 0.85421 0.39728 0.0
C554 C 0.65957 0.86352 0.33565 0.0
C555 C 0.71119 0.83334 0.27875 0.0
C556 C 0.71393 0.83157 0.2448 0.0
C557 C 0.69744 0.83094 0.26117 0.0
C558 C 0.74457 0.83496 0.24624 0.0
C559 C 0.74189 0.837 0.27995 0.0
C560 C 0.75849 0.83785 0.26373 0.0
C561 C 0.63254 0.7773 0.33862 0.0
C562 C 0.69283 0.83124 0.29562 0.0
C563 C 0.83473 0.88979 0.32851 0.0
C564 C 0.82601 0.8587 0.33169 0.0
C565 C 0.6916 0.80367 0.36909 0.0
C566 C 0.63567 0.82977 0.42564 0.0
C567 C 0.64891 0.83249 0.44339 0.0
C568 C 0.63195 0.8321 0.45949 0.0
C569 C 0.60136 0.82867 0.45759 0.0
C570 C 0.60501 0.82607 0.42396 0.0
C571 C 0.58795 0.82548 0.43991 0.0
C572 C 0.71867 0.88958 0.36604 0.0
C573 C 0.65464 0.8318 0.40908 0.0
H574 H 0.67359 0.82785 0.26028 0.0
H575 H 0.75782 0.83564 0.23383 0.0
H576 H 0.75288 0.83895 0.29337 0.0
H577 H 0.78214 0.84059 0.26473 0.0
H578 H 0.67275 0.83566 0.44464 0.0
H579 H 0.58777 0.8282 0.46978 0.0
H580 H 0.59442 0.82389 0.41039 0.0
H581 H 0.56433 0.82271 0.43855 0.0
Eu582 Eu 0.19016 0.8244 0.373 0.0
C583 C 0.11779 0.87731 0.32777 0.0
C584 C 0.06221 0.8368 0.3292 0.0
C585 C 0.0759 0.89091 0.32747 0.0
C586 C 0.09505 0.8462 0.32911 0.0
C587 C 0.10851 0.90002 0.32657 0.0
C588 C 0.05278 0.85934 0.32879 0.0
C589 C 0.16422 0.93876 0.3223 0.0
N590 N 0.14902 0.88527 0.32681 0.0
C591 C 0.1722 0.91535 0.32345 0.0
C592 C 0.13226 0.93111 0.32408 0.0
Eu593 Eu 0.16101 0.84482 0.33034 0.0
N594 N 0.105 0.82505 0.3294 0.0
C595 C 0.08331 0.79405 0.32834 0.0
C596 C 0.03985 0.80501 0.32921 0.0
C597 C 0.05048 0.78357 0.32846 0.0
H598 H 0.19696 0.92134 0.32226 0.0
H599 H 0.03339 0.75894 0.3281 0.0
H600 H 0.02767 0.85258 0.32904 0.0
H601 H 0.18271 0.96266 0.32008 0.0
H602 H 0.09108 0.77716 0.32789 0.0
H603 H 0.31932 0.9039 0.37334 0.0
H604 H 0.01441 0.79682 0.32934 0.0
H605 H 0.14983 0.74862 0.38417 0.0
H606 H 0.26241 0.88924 0.37366 0.0
H607 H 0.16042 0.70534 0.38886 0.0
H608 H 0.06828 0.90803 0.32674 0.0
H609 H 0.33453 0.86318 0.37383 0.0
H610 H 0.31743 0.80652 0.37643 0.0
H611 H 0.12612 0.94927 0.32312 0.0
H612 H 0.27418 0.75247 0.38085 0.0
N613 N 0.24539 0.84065 0.37369 0.0
C614 C 0.26865 0.87121 0.3739 0.0
C615 C 0.30947 0.8566 0.37394 0.0
C616 C 0.28552 0.82536 0.37496 0.0
C617 C 0.30099 0.87964 0.37372 0.0
C618 C 0.25326 0.81805 0.37496 0.0
H619 H 0.21563 0.71461 0.38589 0.0
N620 N 0.19842 0.78187 0.37823 0.0
C621 C 0.17992 0.72836 0.38554 0.0
C622 C 0.22901 0.7877 0.37737 0.0
C623 C 0.174 0.75294 0.38289 0.0
C624 C 0.2111 0.73367 0.3838 0.0
C625 C 0.2362 0.76371 0.37993 0.0
O626 O 0.16485 0.81022 0.39973 0.0
O627 O 0.15066 0.82837 0.35975 0.0
O628 O 0.16734 0.87861 0.35313 0.0
O629 O 0.20626 0.87617 0.37104 0.0
O630 O 0.13688 0.78995 0.37647 0.0
O631 O 0.21101 0.85206 0.39814 0.0
O632 O 0.18204 0.86448 0.30303 0.0
O633 O 0.20076 0.84122 0.34347 0.0
O634 O 0.18306 0.789 0.35111 0.0
O635 O 0.14697 0.79355 0.33151 0.0
O636 O 0.21407 0.87955 0.32669 0.0
O637 O 0.14593 0.81589 0.30549 0.0
C638 C 0.12659 0.80457 0.36632 0.0
C639 C 0.19584 0.82456 0.42693 0.0
C640 C 0.19106 0.82163 0.46092 0.0
C641 C 0.1859 0.83197 0.44365 0.0
C642 C 0.20664 0.80416 0.46127 0.0
C643 C 0.21175 0.80746 0.42755 0.0
C644 C 0.21716 0.79738 0.44467 0.0
C645 C 0.19025 0.89014 0.36574 0.0
C646 C 0.18749 0.83302 0.40899 0.0
C647 C 0.26819 0.77062 0.3791 0.0
C648 C 0.29281 0.8014 0.37658 0.0
C649 C 0.22462 0.86502 0.33669 0.0
C650 C 0.14954 0.84078 0.27676 0.0
C651 C 0.16101 0.83661 0.25958 0.0
C652 C 0.14612 0.8369 0.24278 0.0
C653 C 0.11986 0.84183 0.24342 0.0
C654 C 0.12348 0.84589 0.27712 0.0
C655 C 0.10879 0.84647 0.26049 0.0
C656 C 0.16183 0.77874 0.33747 0.0
C657 C 0.16428 0.83861 0.29419 0.0
H658 H 0.17335 0.84497 0.4432 0.0
H659 H 0.21091 0.79599 0.4744 0.0
H660 H 0.2196 0.80159 0.41483 0.0
H661 H 0.22929 0.78403 0.44507 0.0
H662 H 0.18098 0.83238 0.25933 0.0
H663 H 0.10806 0.84233 0.2307 0.0
H664 H 0.11438 0.84916 0.29023 0.0
H665 H 0.08863 0.85035 0.26084 0.0
Eu666 Eu 0.82905 0.64556 0.66295 0.0
C667 C 0.89123 0.76441 0.71299 0.0
C668 C 0.94787 0.78169 0.71234 0.0
C669 C 0.93011 0.81932 0.71611 0.0
C670 C 0.91569 0.75774 0.71127 0.0
C671 C 0.89812 0.79518 0.71589 0.0
C672 C 0.95495 0.81259 0.7143 0.0
C673 C 0.84139 0.77557 0.7197 0.0
N674 N 0.86063 0.74053 0.71285 0.0
C675 C 0.83578 0.74545 0.71678 0.0
C676 C 0.87267 0.8006 0.719 0.0
Eu677 Eu 0.85297 0.69041 0.70719 0.0
N678 N 0.908 0.72763 0.70965 0.0
C679 C 0.93118 0.71958 0.71058 0.0
C680 C 0.97189 0.77375 0.71202 0.0
C681 C 0.96347 0.7425 0.71146 0.0
H682 H 0.81155 0.72621 0.71724 0.0
H683 H 0.98182 0.73604 0.71164 0.0
H684 H 0.97953 0.83134 0.71498 0.0
H685 H 0.82159 0.77945 0.72243 0.0
H686 H 0.92496 0.69551 0.71009 0.0
H687 H 0.70116 0.60566 0.65801 0.0
H688 H 0.99691 0.79145 0.71275 0.0
H689 H 0.86696 0.60657 0.65304 0.0
H690 H 0.75848 0.6441 0.65969 0.0
H691 H 0.85425 0.55241 0.64795 0.0
H692 H 0.9359 0.84315 0.71813 0.0
H693 H 0.6833 0.5496 0.65695 0.0
H694 H 0.69786 0.50769 0.65489 0.0
H695 H 0.87695 0.8239 0.7213 0.0
H696 H 0.73955 0.49317 0.65193 0.0
N697 N 0.77335 0.61033 0.66017 0.0
C698 C 0.75125 0.61981 0.6592 0.0
C699 C 0.7086 0.56642 0.65771 0.0
C700 C 0.73146 0.55696 0.65748 0.0
C701 C 0.71859 0.59803 0.65825 0.0
C702 C 0.76408 0.57981 0.65859 0.0
H703 H 0.79793 0.50975 0.64895 0.0
N704 N 0.81842 0.59449 0.65707 0.0
C705 C 0.83521 0.55747 0.65053 0.0
C706 C 0.7874 0.57163 0.65693 0.0
C707 C 0.84232 0.58809 0.65335 0.0
C708 C 0.8034 0.53345 0.65116 0.0
C709 C 0.77898 0.5404 0.65413 0.0
O710 O 0.85303 0.65046 0.63604 0.0
O711 O 0.86692 0.68629 0.67807 0.0
O712 O 0.84761 0.72045 0.68529 0.0
O713 O 0.81363 0.68214 0.66452 0.0
O714 O 0.88224 0.66241 0.66154 0.0
O715 O 0.81694 0.66382 0.63848 0.0
O716 O 0.82535 0.67874 0.73317 0.0
O717 O 0.81565 0.6492 0.69217 0.0
O718 O 0.83491 0.61596 0.68499 0.0
O719 O 0.86882 0.65413 0.7059 0.0
O720 O 0.79949 0.67247 0.70862 0.0
O721 O 0.87103 0.68069 0.7329 0.0
C722 C 0.89149 0.68608 0.67225 0.0
C723 C 0.82357 0.64717 0.6089 0.0
C724 C 0.82196 0.65342 0.57506 0.0
C725 C 0.83571 0.66544 0.59258 0.0
C726 C 0.79629 0.62276 0.57412 0.0
C727 C 0.79812 0.61659 0.60759 0.0
C728 C 0.78465 0.60447 0.59026 0.0
C729 C 0.8276 0.7109 0.67104 0.0
C730 C 0.83648 0.6607 0.62728 0.0
C731 C 0.74653 0.51734 0.65389 0.0
C732 C 0.7228 0.52561 0.65558 0.0
C733 C 0.79075 0.64875 0.69798 0.0
C734 C 0.85378 0.69168 0.76147 0.0
C735 C 0.84653 0.6737 0.77796 0.0
C736 C 0.85131 0.68767 0.79572 0.0
C737 C 0.86343 0.72002 0.79643 0.0
C738 C 0.8664 0.72382 0.76271 0.0
C739 C 0.87113 0.73784 0.7801 0.0
C740 C 0.85486 0.62541 0.6993 0.0
C741 C 0.84673 0.67656 0.74308 0.0
H742 H 0.85521 0.68919 0.59358 0.0
H743 H 0.78537 0.61285 0.56084 0.0
H744 H 0.78846 0.60224 0.61998 0.0
H745 H 0.76494 0.58087 0.58934 0.0
H746 H 0.83727 0.64893 0.77685 0.0
H747 H 0.86654 0.73172 0.80961 0.0
H748 H 0.87219 0.73801 0.75024 0.0
H749 H 0.88047 0.76263 0.78093 0.0
Eu750 Eu 0.36539 0.17749 0.66481 0.0
C751 C 0.23648 0.12349 0.70905 0.0
C752 C 0.22149 0.16316 0.70666 0.0
C753 C 0.18029 0.10887 0.70953 0.0
C754 C 0.24512 0.15438 0.70705 0.0
C755 C 0.20401 0.10046 0.71087 0.0
C756 C 0.18902 0.14017 0.70738 0.0
C757 C 0.22104 0.06308 0.71709 0.0
N758 N 0.25999 0.11621 0.71048 0.0
C759 C 0.2529 0.08675 0.71516 0.0
C760 C 0.19645 0.06986 0.71464 0.0
Eu761 Eu 0.31323 0.15732 0.70669 0.0
N762 N 0.2767 0.176 0.70666 0.0
C763 C 0.2863 0.20688 0.70743 0.0
C764 C 0.23122 0.19481 0.7062 0.0
C765 C 0.26377 0.21676 0.70693 0.0
H766 H 0.27183 0.08139 0.71694 0.0
H767 H 0.27155 0.2413 0.707 0.0
H768 H 0.17051 0.14644 0.70688 0.0
H769 H 0.21547 0.03962 0.72038 0.0
H770 H 0.31139 0.22407 0.70787 0.0
H771 H 0.40792 0.09415 0.66539 0.0
H772 H 0.21383 0.20252 0.70582 0.0
H773 H 0.40621 0.25321 0.65387 0.0
H774 H 0.36779 0.11097 0.66436 0.0
H775 H 0.46235 0.29511 0.64992 0.0
H776 H 0.15519 0.09147 0.71067 0.0
H777 H 0.46559 0.13324 0.66593 0.0
H778 H 0.5086 0.18938 0.66406 0.0
H779 H 0.1718 0.05149 0.71617 0.0
H780 H 0.52346 0.24413 0.65968 0.0
N781 N 0.40225 0.15916 0.66488 0.0
C782 C 0.39284 0.1283 0.66453 0.0
C783 C 0.44806 0.14078 0.66548 0.0
C784 C 0.45757 0.17236 0.66459 0.0
C785 C 0.41554 0.11865 0.66512 0.0
C786 C 0.43376 0.18091 0.66415 0.0
H787 H 0.50636 0.28369 0.65396 0.0
N788 N 0.41845 0.21869 0.66043 0.0
C789 C 0.45701 0.27178 0.65337 0.0
C790 C 0.44214 0.21166 0.66181 0.0
C791 C 0.42526 0.24801 0.65559 0.0
C792 C 0.48179 0.26525 0.65572 0.0
C793 C 0.47451 0.2348 0.65971 0.0
O794 O 0.35888 0.19374 0.63775 0.0
O795 O 0.32148 0.17417 0.6773 0.0
O796 O 0.28487 0.12261 0.68427 0.0
O797 O 0.32648 0.12613 0.66575 0.0
O798 O 0.34898 0.2128 0.66091 0.0
O799 O 0.35759 0.14965 0.63975 0.0
O800 O 0.31828 0.14002 0.73375 0.0
O801 O 0.35727 0.16087 0.69427 0.0
O802 O 0.39389 0.21251 0.68698 0.0
O803 O 0.35266 0.20864 0.70612 0.0
O804 O 0.32999 0.12226 0.71069 0.0
O805 O 0.32075 0.18468 0.73192 0.0
C806 C 0.32301 0.1984 0.67064 0.0
C807 C 0.37536 0.17755 0.61127 0.0
C808 C 0.37614 0.17843 0.57714 0.0
C809 C 0.35915 0.16955 0.59421 0.0
C810 C 0.40985 0.19511 0.57761 0.0
C811 C 0.40886 0.19378 0.61142 0.0
C812 C 0.42599 0.20244 0.59463 0.0
C813 C 0.29596 0.11187 0.67105 0.0
C814 C 0.35679 0.17015 0.62868 0.0
C815 C 0.49842 0.22664 0.66105 0.0
C816 C 0.48996 0.19547 0.66353 0.0
C817 C 0.35605 0.13684 0.70104 0.0
C818 C 0.30108 0.15598 0.76002 0.0
C819 C 0.31641 0.1631 0.77735 0.0
C820 C 0.29857 0.15407 0.79413 0.0
C821 C 0.26492 0.13817 0.79311 0.0
C822 C 0.26761 0.14049 0.75933 0.0
C823 C 0.24966 0.1317 0.77582 0.0
C824 C 0.383 0.22314 0.70038 0.0
C825 C 0.32047 0.16357 0.74292 0.0
H826 H 0.33324 0.15641 0.59436 0.0
H827 H 0.42388 0.20302 0.56487 0.0
H828 H 0.42173 0.20004 0.62444 0.0
H829 H 0.45187 0.21527 0.5948 0.0
H830 H 0.34232 0.17571 0.77764 0.0
H831 H 0.25027 0.13024 0.80562 0.0
H832 H 0.25539 0.13493 0.74611 0.0
H833 H 0.22379 0.11946 0.77522 0.0
Eu834 Eu 0.85332 0.15652 0.70658 0.0
C835 C 0.7858 0.2133 0.65934 0.0
C836 C 0.72947 0.17478 0.66086 0.0
C837 C 0.74589 0.22943 0.65746 0.0
C838 C 0.76189 0.18268 0.66122 0.0
C839 C 0.77809 0.23697 0.65696 0.0
C840 C 0.72162 0.19838 0.65944 0.0
C841 C 0.83436 0.2733 0.6521 0.0
N842 N 0.81661 0.21974 0.65877 0.0
C843 C 0.8408 0.24902 0.65454 0.0
C844 C 0.80291 0.26734 0.65357 0.0
Eu845 Eu 0.82572 0.17767 0.66362 0.0
N846 N 0.7703 0.16045 0.66231 0.0
C847 C 0.74752 0.12976 0.66156 0.0
C848 C 0.70593 0.14335 0.66132 0.0
C849 C 0.71503 0.12074 0.66135 0.0
H850 H 0.86516 0.2538 0.65348 0.0
H851 H 0.69704 0.09636 0.6613 0.0
H852 H 0.69685 0.19279 0.65934 0.0
H853 H 0.85365 0.29658 0.64914 0.0
H854 H 0.75422 0.11205 0.66167 0.0
H855 H 0.98129 0.24116 0.70877 0.0
H856 H 0.68076 0.13631 0.66114 0.0
H857 H 0.81645 0.08067 0.71671 0.0
H858 H 0.92376 0.22366 0.7086 0.0
H859 H 0.82986 0.03907 0.7209 0.0
H860 H 0.73949 0.24732 0.65585 0.0
H861 H 0.99952 0.20265 0.70871 0.0
H862 H 0.98542 0.1467 0.71038 0.0
H863 H 0.79798 0.28617 0.65164 0.0
H864 H 0.94419 0.09163 0.71389 0.0
N865 N 0.9092 0.17557 0.70785 0.0
C866 C 0.93121 0.20651 0.70862 0.0
C867 C 0.97415 0.19479 0.70861 0.0
C868 C 0.95145 0.16311 0.70907 0.0
C869 C 0.96395 0.21659 0.70871 0.0
C870 C 0.91872 0.15414 0.70883 0.0
H871 H 0.88615 0.05134 0.71823 0.0
N872 N 0.86456 0.11584 0.71149 0.0
C873 C 0.84859 0.06263 0.71798 0.0
C874 C 0.89564 0.12326 0.71076 0.0
C875 C 0.84109 0.08622 0.71566 0.0
C876 C 0.88038 0.06964 0.7164 0.0
C877 C 0.90445 0.10034 0.71302 0.0
O878 O 0.83063 0.13791 0.73373 0.0
O879 O 0.814 0.16029 0.69294 0.0
O880 O 0.83179 0.21238 0.68577 0.0
O881 O 0.86784 0.20791 0.70537 0.0
O882 O 0.80022 0.12159 0.70947 0.0
O883 O 0.86861 0.18571 0.73134 0.0
O884 O 0.85156 0.19376 0.63714 0.0
O885 O 0.8648 0.17321 0.67714 0.0
O886 O 0.84665 0.12161 0.68438 0.0
O887 O 0.81058 0.12612 0.66481 0.0
O888 O 0.87885 0.21245 0.66103 0.0
O889 O 0.8064 0.15072 0.63807 0.0
C890 C 0.78997 0.1362 0.6993 0.0
C891 C 0.86268 0.16056 0.76028 0.0
C892 C 0.86473 0.16372 0.79433 0.0
C893 C 0.85084 0.16488 0.77731 0.0
C894 C 0.89029 0.15773 0.79406 0.0
C895 C 0.88804 0.15441 0.76033 0.0
C896 C 0.90169 0.15293 0.77717 0.0
C897 C 0.85294 0.22267 0.69944 0.0
C898 C 0.84908 0.16355 0.7426 0.0
C899 C 0.93694 0.10894 0.71238 0.0
C900 C 0.96041 0.14028 0.71037 0.0
C901 C 0.88895 0.1974 0.67093 0.0
C902 C 0.82112 0.17927 0.60966 0.0
C903 C 0.82969 0.17082 0.59282 0.0
C904 C 0.82388 0.18065 0.57547 0.0
C905 C 0.80905 0.19895 0.57548 0.0
C906 C 0.80594 0.19702 0.60924 0.0
C907 C 0.79995 0.20677 0.59221 0.0
C908 C 0.82534 0.11125 0.67079 0.0
C909 C 0.82975 0.17082 0.62753 0.0
H910 H 0.8314 0.1699 0.77727 0.0
H911 H 0.9013 0.15653 0.80696 0.0
H912 H 0.89744 0.15103 0.74737 0.0
H913 H 0.92132 0.14824 0.77712 0.0
H914 H 0.84086 0.1566 0.59335 0.0
H915 H 0.8049 0.20777 0.56258 0.0
H916 H 0.79912 0.20367 0.62204 0.0
H917 H 0.78858 0.22081 0.59198 0.0
H918 H 0.28306 0.87784 0.09158 0.0
H919 H 0.29369 0.80455 0.06646 0.0
H920 H 0.33089 0.91619 0.07562 0.0
H921 H 0.34019 0.84314 0.04906 0.0
H922 H 0.4441 0.9236 0.03848 0.0
H923 H 0.39417 0.88134 0.05123 0.0
H924 H 0.35133 0.93959 0.0471 0.0
H925 H 0.40187 0.98211 0.03548 0.0
C926 C 0.29554 0.86977 0.08267 0.0
C927 C 0.28431 0.83786 0.08051 0.0
C928 C 0.32278 0.89193 0.0731 0.0
C929 C 0.33943 0.88299 0.06072 0.0
C930 C 0.32826 0.85107 0.05851 0.0
C931 C 0.30121 0.82884 0.06836 0.0
C932 C 0.42374 0.92702 0.03998 0.0
C933 C 0.4267 0.95603 0.03601 0.0
C934 C 0.39502 0.90279 0.0473 0.0
C935 C 0.36867 0.90708 0.05065 0.0
C936 C 0.37128 0.93561 0.04539 0.0
C937 C 0.4001 0.95991 0.03847 0.0
H938 H 0.17926 0.48136 0.09923 0.0
H939 H 0.1718 0.42111 0.054 0.0
H940 H 0.13854 0.49006 0.08449 0.0
H941 H 0.13057 0.42929 0.03948 0.0
H942 H 0.08651 0.51916 0.04045 0.0
H943 H 0.13149 0.51395 0.05186 0.0
H944 H 0.07161 0.41423 0.05206 0.0
H945 H 0.02647 0.41946 0.04105 0.0
C946 C 0.16898 0.4701 0.08611 0.0
C947 C 0.17866 0.45056 0.07776 0.0
C948 C 0.14586 0.4752 0.07764 0.0
C949 C 0.13145 0.46033 0.06086 0.0
C950 C 0.14128 0.44098 0.05243 0.0
C951 C 0.16491 0.43641 0.06069 0.0
C952 C 0.08313 0.49615 0.04267 0.0
C953 C 0.05319 0.46965 0.03956 0.0
C954 C 0.10877 0.49319 0.04931 0.0
C955 C 0.10501 0.46368 0.05277 0.0
C956 C 0.07523 0.43722 0.04933 0.0
C957 C 0.04944 0.4402 0.04309 0.0
H958 H 0.55825 0.70313 0.11156 0.0
H959 H 0.57322 0.74821 0.05768 0.0
H960 H 0.54545 0.6547 0.09611 0.0
H961 H 0.55905 0.6993 0.04236 0.0
H962 H 0.49575 0.59531 0.02503 0.0
H963 H 0.5088 0.6442 0.03998 0.0
H964 H 0.57668 0.63632 0.0753 0.0
H965 H 0.56454 0.58798 0.06006 0.0
C966 C 0.55898 0.70284 0.09645 0.0
C967 C 0.56692 0.72972 0.0859 0.0
C968 C 0.55148 0.67503 0.08763 0.0
C969 C 0.55129 0.67335 0.06807 0.0
C970 C 0.55872 0.69995 0.05747 0.0
C971 C 0.56669 0.7279 0.06628 0.0
C972 C 0.51385 0.60418 0.03574 0.0
C973 C 0.52942 0.58786 0.0411 0.0
C974 C 0.52119 0.63212 0.04435 0.0
C975 C 0.54374 0.64397 0.05876 0.0
C976 C 0.55904 0.62755 0.0643 0.0
C977 C 0.55211 0.5999 0.0555 0.0
H978 H 0.84931 0.29443 0.92886 0.0
H979 H 0.82375 0.25168 0.98371 0.0
H980 H 0.8875 0.34363 0.94301 0.0
H981 H 0.8606 0.30159 0.99773 0.0
H982 H 0.90017 0.40823 1.01102 0.0
H983 H 0.8636 0.35781 0.99758 0.0
H984 H 0.94063 0.36285 0.96417 0.0
H985 H 0.97784 0.41267 0.97826 0.0
C986 C 0.85188 0.29529 0.94389 0.0
C987 C 0.83332 0.26876 0.95507 0.0
C988 C 0.87364 0.32361 0.95196 0.0
C989 C 0.87689 0.32629 0.97141 0.0
C990 C 0.85829 0.30009 0.98267 0.0
C991 C 0.837 0.27157 0.9746 0.0
C992 C 0.90961 0.3984 1.00117 0.0
C993 C 0.9422 0.41433 0.99609 0.0
C994 C 0.88855 0.36958 0.99338 0.0
C995 C 0.8994 0.35648 0.97995 0.0
C996 C 0.93174 0.37254 0.97453 0.0
C997 C 0.953 0.40105 0.98263 0.0
H998 H 0.70061 0.52238 0.93901 0.0
H999 H 0.75833 0.58265 0.98328 0.0
H1000 H 0.65207 0.51385 0.95528 0.0
H1001 H 0.70968 0.57467 0.9994 0.0
H1002 H 0.61543 0.58512 0.99978 0.0
H1003 H 0.66601 0.58994 0.98903 0.0
H1004 H 0.62172 0.4901 0.98774 0.0
H1005 H 0.57132 0.48531 0.99886 0.0
C1006 C 0.70285 0.53369 0.95226 0.0
C1007 C 0.73319 0.55322 0.95987 0.0
C1008 C 0.67511 0.52865 0.96163 0.0
C1009 C 0.67714 0.54354 0.97862 0.0
C1010 C 0.70747 0.5629 0.98632 0.0
C1011 C 0.73522 0.5674 0.97714 0.0
C1012 C 0.61677 0.56425 0.99759 0.0
C1013 C 0.58961 0.53488 1.00038 0.0
C1014 C 0.64568 0.56699 0.9915 0.0
C1015 C 0.64774 0.5404 0.98751 0.0
C1016 C 0.62075 0.51098 0.99068 0.0
C1017 C 0.592 0.50824 0.99716 0.0
H1018 H 0.44105 0.18406 0.98031 0.0
H1019 H 0.4564 0.15498 0.92628 0.0
H1020 H 0.45496 0.14837 0.99545 0.0
H1021 H 0.46903 0.1185 0.94153 0.0
H1022 H 0.45095 0.03265 0.97674 0.0
H1023 H 0.43838 0.06937 0.96185 0.0
H1024 H 0.50489 0.14199 0.99803 0.0
H1025 H 0.51828 0.10559 1.01268 0.0
C1026 C 0.44759 0.17028 0.97164 0.0
C1027 C 0.44757 0.17247 0.95204 0.0
C1028 C 0.45542 0.14976 0.98035 0.0
C1029 C 0.46295 0.13066 0.96965 0.0
C1030 C 0.4629 0.13271 0.95009 0.0
C1031 C 0.45551 0.15352 0.94138 0.0
C1032 C 0.46295 0.05641 0.98158 0.0
C1033 C 0.48537 0.06602 0.99612 0.0
C1034 C 0.45579 0.07744 0.97298 0.0
C1035 C 0.4706 0.10844 0.97884 0.0
C1036 C 0.49285 0.11809 0.99341 0.0
C1037 C 0.5004 0.09717 1.00184 0.0
H1038 H 0.69704 0.16273 0.93555 0.0
H1039 H 0.75532 0.16609 0.98201 0.0
H1040 H 0.64885 0.12481 0.95265 0.0
H1041 H 0.70724 0.1276 0.99887 0.0
H1042 H 0.61476 0.02331 1.00049 0.0
H1043 H 0.6646 0.06732 0.98861 0.0
H1044 H 0.61943 0.12338 0.98658 0.0
H1045 H 0.56979 0.07961 0.999 0.0
C1046 C 0.69947 0.15538 0.94941 0.0
C1047 C 0.72981 0.16724 0.95747 0.0
C1048 C 0.67198 0.13394 0.95923 0.0
C1049 C 0.67446 0.1235 0.97708 0.0
C1050 C 0.70477 0.13542 0.98515 0.0
C1051 C 0.73217 0.15737 0.97553 0.0
C1052 C 0.6158 0.04531 0.99795 0.0
C1053 C 0.58865 0.04822 1.00087 0.0
C1054 C 0.64422 0.0704 0.99117 0.0
C1055 C 0.64568 0.09858 0.98661 0.0
C1056 C 0.61879 0.10182 0.98997 0.0
C1057 C 0.59054 0.0769 0.9972 0.0
H1058 H 0.80627 0.51557 0.97422 0.0
H1059 H 0.87884 0.59466 0.94346 0.0
H1060 H 0.8478 0.50925 0.98942 0.0
H1061 H 0.91988 0.58686 0.95743 0.0
H1062 H 0.99179 0.58513 0.99559 0.0
H1063 H 0.94815 0.59232 0.98464 0.0
H1064 H 0.88541 0.4927 0.98447 0.0
H1065 H 0.92901 0.4859 0.99622 0.0
C1066 C 0.83101 0.53164 0.97065 0.0
C1067 C 0.83897 0.55561 0.95748 0.0
C1068 C 0.85489 0.52772 0.97921 0.0
C1069 C 0.88741 0.5475 0.97474 0.0
C1070 C 0.89527 0.57142 0.96157 0.0
C1071 C 0.87151 0.57556 0.95322 0.0
C1072 C 0.96849 0.56486 0.99344 0.0
C1073 C 0.96363 0.53504 0.99699 0.0
C1074 C 0.94348 0.56888 0.98698 0.0
C1075 C 0.91313 0.5431 0.98337 0.0
C1076 C 0.90821 0.51318 0.98725 0.0
C1077 C 0.93321 0.5092 0.99397 0.0
H1078 H 0.49923 0.28859 0.95452 0.0
H1079 H 0.4013 0.26717 0.94904 0.0
H1080 H 0.5129 0.33807 0.96898 0.0
H1081 H 0.41435 0.31583 0.96416 0.0
H1082 H 0.45283 0.4177 0.97491 0.0
H1083 H 0.44109 0.36974 0.9596 0.0
H1084 H 0.50681 0.36057 0.99636 0.0
H1085 H 0.52017 0.40965 1.0108 0.0
C1086 C 0.48062 0.29444 0.95658 0.0
C1087 C 0.44929 0.27424 0.95061 0.0
C1088 C 0.48834 0.32268 0.96494 0.0
C1089 C 0.46475 0.33107 0.96776 0.0
C1090 C 0.43332 0.31056 0.96188 0.0
C1091 C 0.42575 0.28259 0.95329 0.0
C1092 C 0.46485 0.40552 0.97974 0.0
C1093 C 0.4871 0.41738 0.99433 0.0
C1094 C 0.4579 0.37779 0.97103 0.0
C1095 C 0.47274 0.36099 0.97681 0.0
C1096 C 0.49512 0.37295 0.99137 0.0
C1097 C 0.50242 0.40094 0.99989 0.0
H1098 H 0.21693 0.7208 0.07779 0.0
H1099 H 0.14098 0.74228 0.0824 0.0
H1100 H 0.17991 0.6707 0.06415 0.0
H1101 H 0.1041 0.69305 0.06773 0.0
H1102 H 0.03741 0.59048 0.05804 0.0
H1103 H 0.07444 0.63984 0.0722 0.0
H1104 H 0.15125 0.64514 0.0381 0.0
H1105 H 0.11484 0.59469 0.02525 0.0
C1106 C 0.19233 0.71488 0.07557 0.0
C1107 C 0.18174 0.73527 0.08113 0.0
C1108 C 0.17106 0.68623 0.06765 0.0
C1109 C 0.13878 0.67755 0.06474 0.0
C1110 C 0.12847 0.69841 0.07007 0.0
C1111 C 0.14963 0.72678 0.07834 0.0
C1112 C 0.06223 0.60213 0.05359 0.0
C1113 C 0.07293 0.58872 0.04021 0.0
C1114 C 0.08351 0.63072 0.06161 0.0
C1115 C 0.11602 0.64692 0.05626 0.0
C1116 C 0.12661 0.63341 0.04284 0.0
C1117 C 0.10548 0.60456 0.03514 0.0
H1118 H 0.27918 0.40429 0.08766 0.0
H1119 H 0.2891 0.4864 0.06038 0.0
H1120 H 0.32776 0.41253 0.07255 0.0
H1121 H 0.33666 0.49332 0.04402 0.0
H1122 H 0.44236 0.5166 0.03695 0.0
H1123 H 0.39106 0.50903 0.04821 0.0
H1124 H 0.35096 0.40955 0.04489 0.0
H1125 H 0.40267 0.41743 0.03458 0.0
C1126 C 0.29161 0.4241 0.07838 0.0
C1127 C 0.28011 0.44481 0.07549 0.0
C1128 C 0.31936 0.42854 0.06936 0.0
C1129 C 0.33636 0.45356 0.05686 0.0
C1130 C 0.32456 0.47398 0.05367 0.0
C1131 C 0.29692 0.46973 0.06289 0.0
C1132 C 0.42235 0.49319 0.03833 0.0
C1133 C 0.42638 0.46757 0.03484 0.0
C1134 C 0.39283 0.48876 0.04478 0.0
C1135 C 0.36671 0.4586 0.04784 0.0
C1136 C 0.37058 0.43311 0.04331 0.0
C1137 C 0.40013 0.43756 0.03717 0.0
H1138 H 0.5167 0.7964 0.08356 0.0
H1139 H 0.61468 0.8698 0.08904 0.0
H1140 H 0.50345 0.83244 0.0682 0.0
H1141 H 0.60199 0.90563 0.07308 0.0
H1142 H 0.56362 0.97001 0.0609 0.0
H1143 H 0.57524 0.9337 0.07674 0.0
H1144 H 0.51013 0.86046 0.04021 0.0
H1145 H 0.49693 0.89652 0.02509 0.0
C1146 C 0.53541 0.82025 0.08137 0.0
C1147 C 0.56666 0.8304 0.08756 0.0
C1148 C 0.52792 0.84088 0.07246 0.0
C1149 C 0.55163 0.87204 0.06933 0.0
C1150 C 0.58293 0.88204 0.07554 0.0
C1151 C 0.59028 0.86151 0.08466 0.0
C1152 C 0.55168 0.94618 0.0562 0.0
C1153 C 0.52951 0.93634 0.04153 0.0
C1154 C 0.55859 0.92532 0.06524 0.0
C1155 C 0.54385 0.89409 0.05973 0.0
C1156 C 0.52171 0.88423 0.04501 0.0
C1157 C 0.51445 0.90505 0.03612 0.0
H1158 H 0.96026 0.1363 0.39854 0.0
H1159 H 0.94846 0.20924 0.42318 0.0
H1160 H 1.00577 0.1749 0.38055 0.0
H1161 H 0.99556 0.24772 0.40676 0.0
H1162 H 0.0682 0.31442 0.3679 0.0
H1163 H 0.01715 0.27176 0.37882 0.0
H1164 H 0.05925 0.21281 0.3826 0.0
H1165 H 0.10955 0.25513 0.37043 0.0
C1166 C 0.96726 0.16051 0.40017 0.0
C1167 C 0.95045 0.16943 0.41246 0.0
C1168 C 0.99379 0.18278 0.39001 0.0
C1169 C 1.00463 0.21467 0.39206 0.0
C1170 C 0.98779 0.22349 0.40437 0.0
C1171 C 0.96097 0.20127 0.41422 0.0
C1172 C 0.06611 0.29202 0.37064 0.0
C1173 C 0.09259 0.28792 0.36822 0.0
C1174 C 0.03701 0.26763 0.37716 0.0
C1175 C 0.03402 0.23884 0.38215 0.0
C1176 C 0.06031 0.23441 0.37885 0.0
C1177 C 0.08927 0.2587 0.37187 0.0
H1178 H 0.84678 0.81266 0.43222 0.0
H1179 H 0.83813 0.75091 0.38764 0.0
H1180 H 0.8057 0.82086 0.41767 0.0
H1181 H 0.79633 0.75857 0.37326 0.0
H1182 H 0.69239 0.75025 0.37548 0.0
H1183 H 0.73751 0.74447 0.38597 0.0
H1184 H 0.79837 0.84408 0.38526 0.0
H1185 H 0.75345 0.84981 0.37443 0.0
C1186 C 0.8361 0.80091 0.41928 0.0
C1187 C 0.84555 0.78109 0.41107 0.0
C1188 C 0.81276 0.80574 0.41091 0.0
C1189 C 0.79785 0.79034 0.39436 0.0
C1190 C 0.80741 0.77065 0.38605 0.0
C1191 C 0.83133 0.76636 0.39422 0.0
C1192 C 0.71556 0.77083 0.37731 0.0
C1193 C 0.7196 0.80041 0.37382 0.0
C1194 C 0.74135 0.76754 0.38323 0.0
C1195 C 0.77142 0.79382 0.38637 0.0
C1196 C 0.77544 0.82344 0.38293 0.0
C1197 C 0.74982 0.8267 0.37662 0.0
H1198 H 0.2725 0.05876 0.43157 0.0
H1199 H 0.19577 0.05978 0.40111 0.0
H1200 H 0.25891 0.00954 0.41767 0.0
H1201 H 0.185 0.01275 0.38539 0.0
H1202 H 0.15008 0.91239 0.37257 0.0
H1203 H 0.16235 0.96058 0.38779 0.0
H1204 H 0.26168 0.98467 0.39183 0.0
H1205 H 0.24842 0.93506 0.37802 0.0
C1206 C 0.25278 0.04867 0.42188 0.0
C1207 C 0.23523 0.06354 0.41764 0.0
C1208 C 0.2454 0.02055 0.41351 0.0
C1209 C 0.22087 0.00686 0.40022 0.0
C1210 C 0.20365 0.02199 0.39578 0.0
C1211 C 0.21038 0.04959 0.40456 0.0
C1212 C 0.1745 0.92803 0.37681 0.0
C1213 C 0.19828 0.92001 0.37427 0.0
C1214 C 0.1817 0.95591 0.3854 0.0
C1215 C 0.21314 0.97693 0.39113 0.0
C1216 C 0.23704 0.96895 0.38814 0.0
C1217 C 0.22957 0.94061 0.38005 0.0
H1218 H 0.54109 0.60575 0.27528 0.0
H1219 H 0.46369 0.60423 0.30682 0.0
H1220 H 0.57827 0.65516 0.28897 0.0
H1221 H 0.50145 0.65177 0.32214 0.0
H1222 H 0.56905 0.75376 0.33229 0.0
H1223 H 0.53174 0.70426 0.31841 0.0
H1224 H 0.60714 0.68135 0.31452 0.0
H1225 H 0.6448 0.73194 0.32719 0.0
C1226 C 0.53188 0.61577 0.2852 0.0
C1227 C 0.49907 0.60083 0.2897 0.0
C1228 C 0.55349 0.64401 0.29341 0.0
C1229 C 0.54314 0.65785 0.30676 0.0
C1230 C 0.51047 0.64243 0.31166 0.0
C1231 C 0.48873 0.6146 0.30309 0.0
C1232 C 0.57759 0.7381 0.3284 0.0
C1233 C 0.60985 0.74676 0.33069 0.0
C1234 C 0.5561 0.70948 0.32057 0.0
C1235 C 0.56614 0.6884 0.31527 0.0
C1236 C 0.59846 0.69703 0.31795 0.0
C1237 C 0.62012 0.72601 0.32535 0.0
H1238 H 0.40259 0.9295 0.27901 0.0
H1239 H 0.39478 0.8502 0.30881 0.0
H1240 H 0.35364 0.9212 0.29361 0.0
H1241 H 0.34659 0.84318 0.32457 0.0
H1242 H 0.2405 0.81956 0.33163 0.0
H1243 H 0.29154 0.82657 0.32017 0.0
H1244 H 0.33149 0.92616 0.32133 0.0
H1245 H 0.28013 0.91882 0.33197 0.0
C1246 C 0.39047 0.91021 0.28868 0.0
C1247 C 0.40274 0.89036 0.29247 0.0
C1248 C 0.36252 0.90578 0.29741 0.0
C1249 C 0.346 0.88162 0.3105 0.0
C1250 C 0.35837 0.86187 0.31448 0.0
C1251 C 0.38631 0.86615 0.30557 0.0
C1252 C 0.26042 0.8429 0.32971 0.0
C1253 C 0.25647 0.86869 0.33277 0.0
C1254 C 0.28976 0.84699 0.32314 0.0
C1255 C 0.31576 0.87698 0.31947 0.0
C1256 C 0.31193 0.90269 0.32343 0.0
C1257 C 0.28259 0.89856 0.32973 0.0
H1258 H 0.06388 0.46535 0.28401 0.0
H1259 H 0.16225 0.53812 0.28897 0.0
H1260 H 0.07634 0.42932 0.30001 0.0
H1261 H 0.17523 0.50195 0.30432 0.0
H1262 H 0.18323 0.43743 0.34603 0.0
H1263 H 0.16906 0.4736 0.33205 0.0
H1264 H 0.10292 0.40114 0.29546 0.0
H1265 H 0.11557 0.36467 0.31017 0.0
C1266 C 0.08825 0.47348 0.28837 0.0
C1267 C 0.11211 0.50444 0.28525 0.0
C1268 C 0.09548 0.45286 0.29748 0.0
C1269 C 0.12686 0.46263 0.30344 0.0
C1270 C 0.1507 0.4937 0.30026 0.0
C1271 C 0.14336 0.51441 0.29137 0.0
C1272 C 0.16525 0.42907 0.33525 0.0
C1273 C 0.15024 0.39798 0.32947 0.0
C1274 C 0.15742 0.44995 0.32702 0.0
C1275 C 0.13476 0.44035 0.3126 0.0
C1276 C 0.11996 0.40929 0.30677 0.0
C1277 C 0.12747 0.38836 0.31514 0.0
H1278 H 0.4221 0.49293 0.31358 0.0
H1279 H 0.36314 0.49917 0.27058 0.0
H1280 H 0.37394 0.45396 0.33019 0.0
H1281 H 0.31502 0.46069 0.28735 0.0
H1282 H 0.23641 0.41178 0.33214 0.0
H1283 H 0.28683 0.45557 0.32062 0.0
H1284 H 0.32923 0.39698 0.31993 0.0
H1285 H 0.27867 0.35311 0.33108 0.0
C1286 C 0.39881 0.48612 0.3078 0.0
C1287 C 0.39623 0.49885 0.29077 0.0
C1288 C 0.37137 0.4639 0.31727 0.0
C1289 C 0.34086 0.45455 0.31009 0.0
C1290 C 0.33828 0.46779 0.29328 0.0
C1291 C 0.36573 0.48952 0.28361 0.0
C1292 C 0.25674 0.40851 0.32995 0.0
C1293 C 0.25388 0.37922 0.33264 0.0
C1294 C 0.28545 0.43345 0.32323 0.0
C1295 C 0.31179 0.42954 0.31935 0.0
C1296 C 0.30934 0.40063 0.32294 0.0
C1297 C 0.28049 0.37559 0.32927 0.0
H1298 H 0.54953 0.93296 0.28106 0.0
H1299 H 0.4756 0.85141 0.3093 0.0
H1300 H 0.58994 0.92436 0.29503 0.0
H1301 H 0.51654 0.84415 0.32463 0.0
H1302 H 0.59703 0.81933 0.32968 0.0
H1303 H 0.55389 0.8277 0.31905 0.0
H1304 H 0.61786 0.927 0.3216 0.0
H1305 H 0.66109 0.91824 0.33131 0.0
C1306 C 0.54178 0.91317 0.29033 0.0
C1307 C 0.50904 0.8926 0.29371 0.0
C1308 C 0.56519 0.90855 0.29871 0.0
C1309 C 0.5568 0.88352 0.31109 0.0
C1310 C 0.52406 0.86342 0.31497 0.0
C1311 C 0.50051 0.86785 0.30635 0.0
C1312 C 0.6016 0.84289 0.32822 0.0
C1313 C 0.63224 0.86818 0.33156 0.0
C1314 C 0.57685 0.84778 0.32214 0.0
C1315 C 0.5822 0.8781 0.31925 0.0
C1316 C 0.61281 0.9033 0.32317 0.0
C1317 C 0.63759 0.89838 0.32893 0.0
H1318 H 0.06754 0.59985 0.28194 0.0
H1319 H 0.16504 0.62021 0.28794 0.0
H1320 H 0.08071 0.64821 0.2975 0.0
H1321 H 0.17889 0.66945 0.30278 0.0
H1322 H 0.18659 0.74074 0.34484 0.0
H1323 H 0.17281 0.69169 0.33021 0.0
H1324 H 0.10776 0.70206 0.29349 0.0
H1325 H 0.11984 0.74988 0.309 0.0
C1326 C 0.09194 0.615 0.28638 0.0
C1327 C 0.11531 0.60645 0.28373 0.0
C1328 C 0.09958 0.64279 0.29523 0.0
C1329 C 0.13094 0.66293 0.30138 0.0
C1330 C 0.15438 0.65434 0.29856 0.0
C1331 C 0.14656 0.62627 0.28995 0.0
C1332 C 0.16891 0.7323 0.3339 0.0
C1333 C 0.15391 0.74906 0.32839 0.0
C1334 C 0.16135 0.70433 0.32526 0.0
C1335 C 0.13906 0.69272 0.31065 0.0
C1336 C 0.12449 0.70981 0.30496 0.0
C1337 C 0.13165 0.73749 0.31379 0.0
H1338 H 0.81016 0.07101 0.41963 0.0
H1339 H 0.88663 0.0509 0.41221 0.0
H1340 H 0.77294 0.02206 0.40487 0.0
H1341 H 0.84927 0.0009 0.39851 0.0
H1342 H 0.78288 0.92643 0.35897 0.0
H1343 H 0.81969 0.97614 0.37257 0.0
H1344 H 0.74381 0.9689 0.40839 0.0
H1345 H 0.70642 0.92047 0.39355 0.0
C1346 C 0.81881 0.05578 0.41502 0.0
C1347 C 0.85115 0.0646 0.417 0.0
C1348 C 0.79747 0.02757 0.40667 0.0
C1349 C 0.80785 0.00717 0.40046 0.0
C1350 C 0.84034 0.01608 0.40269 0.0
C1351 C 0.86179 0.04463 0.41068 0.0
C1352 C 0.77382 0.93573 0.36942 0.0
C1353 C 0.74141 0.91965 0.37478 0.0
C1354 C 0.79519 0.96413 0.37755 0.0
C1355 C 0.78496 0.9769 0.39166 0.0
C1356 C 0.75261 0.9604 0.39728 0.0
C1357 C 0.7311 0.93233 0.38885 0.0
H1358 H 0.98236 0.81339 0.43125 0.0
H1359 H 0.92592 0.75234 0.38691 0.0
H1360 H 0.03136 0.82197 0.41555 0.0
H1361 H 0.97502 0.76046 0.37135 0.0
H1362 H 0.06975 0.75151 0.37072 0.0
H1363 H 0.01894 0.74601 0.38165 0.0
H1364 H 0.06238 0.84574 0.38361 0.0
H1365 H 0.11297 0.85119 0.37236 0.0
C1366 C 0.98048 0.80186 0.41813 0.0
C1367 C 0.95033 0.78212 0.41033 0.0
C1368 C 0.0085 0.80694 0.40908 0.0
C1369 C 0.007 0.79191 0.39222 0.0
C1370 C 0.97687 0.7723 0.38435 0.0
C1371 C 0.94884 0.76774 0.3932 0.0
C1372 C 0.06817 0.77222 0.37312 0.0
C1373 C 0.09512 0.80175 0.37039 0.0
C1374 C 0.03913 0.76908 0.37933 0.0
C1375 C 0.03672 0.79544 0.38351 0.0
C1376 C 0.06358 0.82502 0.38053 0.0
C1377 C 0.09245 0.82815 0.37395 0.0
H1378 H 0.2744 0.17906 0.39505 0.0
H1379 H 0.19757 0.15576 0.43433 0.0
H1380 H 0.26084 0.21452 0.37863 0.0
H1381 H 0.18335 0.19039 0.41762 0.0
H1382 H 0.1508 0.22727 0.36558 0.0
H1383 H 0.16481 0.19098 0.38022 0.0
H1384 H 0.25914 0.26698 0.39216 0.0
H1385 H 0.24507 0.30341 0.37805 0.0
C1386 C 0.25463 0.18158 0.40008 0.0
C1387 C 0.23708 0.16508 0.41592 0.0
C1388 C 0.24688 0.20169 0.39074 0.0
C1389 C 0.22099 0.20487 0.39688 0.0
C1390 C 0.20325 0.18804 0.41261 0.0
C1391 C 0.21145 0.16851 0.42218 0.0
C1392 C 0.17456 0.23618 0.37125 0.0
C1393 C 0.19678 0.26817 0.37082 0.0
C1394 C 0.18248 0.21548 0.37964 0.0
C1395 C 0.21298 0.22637 0.38727 0.0
C1396 C 0.23552 0.25815 0.3863 0.0
C1397 C 0.22738 0.27893 0.37833 0.0
H1398 H 0.65259 0.5052 0.76583 0.0
H1399 H 0.5926 0.50203 0.72041 0.0
H1400 H 0.70014 0.54292 0.74829 0.0
H1401 H 0.64019 0.54047 0.70304 0.0
H1402 H 0.77878 0.58928 0.70318 0.0
H1403 H 0.72896 0.54497 0.71484 0.0
H1404 H 0.68307 0.6004 0.71264 0.0
H1405 H 0.73312 0.64494 0.70144 0.0
C1406 C 0.64968 0.51255 0.75207 0.0
C1407 C 0.61905 0.50086 0.74446 0.0
C1408 C 0.6768 0.53388 0.742 0.0
C1409 C 0.67373 0.54441 0.7243 0.0
C1410 C 0.64311 0.53259 0.71663 0.0
C1411 C 0.61601 0.51069 0.72653 0.0
C1412 C 0.75784 0.59174 0.70473 0.0
C1413 C 0.75963 0.62041 0.70127 0.0
C1414 C 0.72945 0.56648 0.71151 0.0
C1415 C 0.7023 0.56939 0.71466 0.0
C1416 C 0.70362 0.59754 0.7102 0.0
C1417 C 0.73218 0.62296 0.70383 0.0
H1418 H 0.4679 0.07364 0.75958 0.0
H1419 H 0.54126 0.15245 0.72903 0.0
H1420 H 0.42725 0.08156 0.74521 0.0
H1421 H 0.50005 0.15907 0.7135 0.0
H1422 H 0.4184 0.18241 0.70664 0.0
H1423 H 0.46209 0.17567 0.7183 0.0
H1424 H 0.39975 0.07603 0.71756 0.0
H1425 H 0.35604 0.08311 0.70664 0.0
C1426 C 0.47549 0.09275 0.7498 0.0
C1427 C 0.50813 0.11259 0.74572 0.0
C1428 C 0.45195 0.09695 0.74121 0.0
C1429 C 0.46012 0.12086 0.728 0.0
C1430 C 0.49274 0.14058 0.72372 0.0
C1431 C 0.51642 0.13653 0.73248 0.0
C1432 C 0.41429 0.15911 0.70871 0.0
C1433 C 0.38392 0.13324 0.70559 0.0
C1434 C 0.43936 0.15518 0.71539 0.0
C1435 C 0.43454 0.12527 0.71915 0.0
C1436 C 0.40431 0.09946 0.71533 0.0
C1437 C 0.37926 0.10343 0.70889 0.0
H1438 H 0.90562 0.4132 0.72395 0.0
H1439 H 0.89218 0.36955 0.77818 0.0
H1440 H 0.89097 0.3639 0.70903 0.0
H1441 H 0.87892 0.3207 0.76311 0.0
H1442 H 0.89655 0.25283 0.72705 0.0
H1443 H 0.90928 0.30151 0.74208 0.0
H1444 H 0.8404 0.30887 0.7074 0.0
H1445 H 0.82676 0.25966 0.6927 0.0
C1446 C 0.89934 0.39313 0.73272 0.0
C1447 C 0.9001 0.39547 0.75232 0.0
C1448 C 0.8911 0.36495 0.72413 0.0
C1449 C 0.88392 0.3386 0.73494 0.0
C1450 C 0.88473 0.34081 0.75448 0.0
C1451 C 0.89249 0.36886 0.76308 0.0
C1452 C 0.88401 0.2647 0.72259 0.0
C1453 C 0.8609 0.25244 0.70843 0.0
C1454 C 0.89128 0.29255 0.73127 0.0
C1455 C 0.87591 0.30894 0.72583 0.0
C1456 C 0.85287 0.29683 0.71168 0.0
C1457 C 0.84519 0.2687 0.70321 0.0
H1458 H 0.20481 0.93094 0.61699 0.0
H1459 H 0.12832 0.95112 0.62402 0.0
H1460 H 0.242 0.98006 0.6316 0.0
H1461 H 0.16565 0.00128 0.63754 0.0
H1462 H 0.23153 0.07547 0.67738 0.0
H1463 H 0.19485 0.026 0.66351 0.0
H1464 H 0.2713 0.03325 0.62822 0.0
H1465 H 0.30859 0.08145 0.6434 0.0
C1466 C 0.19616 0.94623 0.62147 0.0
C1467 C 0.16381 0.93736 0.61945 0.0
C1468 C 0.21747 0.97454 0.62973 0.0
C1469 C 0.20707 0.99498 0.63581 0.0
C1470 C 0.17459 0.98606 0.63347 0.0
C1471 C 0.15316 0.95742 0.62559 0.0
C1472 C 0.24074 0.06621 0.667 0.0
C1473 C 0.27328 0.08217 0.66193 0.0
C1474 C 0.21945 0.03796 0.6587 0.0
C1475 C 0.22988 0.02524 0.64467 0.0
C1476 C 0.26235 0.0417 0.63926 0.0
C1477 C 0.28379 0.06963 0.64788 0.0
H1478 H 0.06525 0.26125 0.61161 0.0
H1479 H 0.05831 0.18227 0.64135 0.0
H1480 H 0.01656 0.25293 0.62666 0.0
H1481 H 0.01045 0.17521 0.6575 0.0
H1482 H 0.90457 0.15175 0.66567 0.0
H1483 H 0.95523 0.15859 0.65365 0.0
H1484 H 0.99552 0.25821 0.65486 0.0
H1485 H 0.94456 0.25106 0.66612 0.0
C1486 C 0.05338 0.24202 0.62135 0.0
C1487 C 0.06587 0.22233 0.62505 0.0
C1488 C 0.02559 0.23758 0.63032 0.0
C1489 C 0.00947 0.21354 0.64354 0.0
C1490 C 0.02195 0.19384 0.64734 0.0
C1491 C 0.04971 0.19814 0.6382 0.0
C1492 C 0.9245 0.17506 0.66368 0.0
C1493 C 0.92073 0.20092 0.6669 0.0
C1494 C 0.95362 0.17906 0.65677 0.0
C1495 C 0.97955 0.209 0.6529 0.0
C1496 C 0.97598 0.23477 0.65709 0.0
C1497 C 0.94686 0.23075 0.66376 0.0
H1498 H 0.82966 0.87285 0.6214 0.0
H1499 H 0.73248 0.79806 0.61529 0.0
H1500 H 0.84389 0.83725 0.63642 0.0
H1501 H 0.74614 0.76266 0.63089 0.0
H1502 H 0.78638 0.69968 0.64219 0.0
H1503 H 0.7741 0.73583 0.62672 0.0
H1504 H 0.8376 0.8085 0.66407 0.0
H1505 H 0.8515 0.77267 0.67883 0.0
C1506 C 0.81133 0.84879 0.6234 0.0
C1507 C 0.78004 0.83813 0.61709 0.0
C1508 C 0.81938 0.82841 0.63211 0.0
C1509 C 0.79619 0.79698 0.63491 0.0
C1510 C 0.76483 0.78649 0.62866 0.0
C1511 C 0.75692 0.80677 0.61975 0.0
C1512 C 0.79784 0.72336 0.64715 0.0
C1513 C 0.81969 0.73309 0.66197 0.0
C1514 C 0.79054 0.74411 0.63832 0.0
C1515 C 0.80457 0.77512 0.6442 0.0
C1516 C 0.82652 0.78491 0.65901 0.0
C1517 C 0.83417 0.7642 0.66769 0.0
H1518 H 0.06726 0.79263 0.61422 0.0
H1519 H 0.05454 0.86555 0.63801 0.0
H1520 H 0.02034 0.75418 0.63085 0.0
H1521 H 0.00907 0.82702 0.65611 0.0
H1522 H 0.90539 0.74593 0.66604 0.0
H1523 H 0.95556 0.78845 0.65383 0.0
H1524 H 0.99909 0.73094 0.65918 0.0
H1525 H 0.94825 0.68807 0.6702 0.0
C1526 C 0.05457 0.80059 0.62304 0.0
C1527 C 0.06478 0.83239 0.62451 0.0
C1528 C 0.02786 0.77841 0.63299 0.0
C1529 C 0.01078 0.78727 0.64508 0.0
C1530 C 0.02127 0.81913 0.64683 0.0
C1531 C 0.04775 0.84135 0.6366 0.0
C1532 C 0.92594 0.74273 0.66493 0.0
C1533 C 0.92308 0.7138 0.66903 0.0
C1534 C 0.95482 0.76712 0.65794 0.0
C1535 C 0.98147 0.76312 0.65506 0.0
C1536 C 0.97894 0.73471 0.66053 0.0
C1537 C 0.94995 0.71021 0.66709 0.0
H1538 H 0.13864 0.18392 0.64219 0.0
H1539 H 0.21288 0.26557 0.61419 0.0
H1540 H 0.1794 0.17708 0.65809 0.0
H1541 H 0.25317 0.25741 0.62879 0.0
H1542 H 0.32355 0.25262 0.66628 0.0
H1543 H 0.28012 0.26062 0.65598 0.0
H1544 H 0.21742 0.16114 0.65318 0.0
H1545 H 0.26074 0.15348 0.66439 0.0
C1546 C 0.16358 0.20046 0.63942 0.0
C1547 C 0.17227 0.22516 0.6267 0.0
C1548 C 0.18703 0.19629 0.64837 0.0
C1549 C 0.21981 0.21659 0.64477 0.0
C1550 C 0.22835 0.24148 0.63226 0.0
C1551 C 0.20504 0.24585 0.62353 0.0
C1552 C 0.30028 0.23253 0.66372 0.0
C1553 C 0.29538 0.2025 0.66635 0.0
C1554 C 0.27539 0.23703 0.65763 0.0
C1555 C 0.24513 0.21156 0.65341 0.0
C1556 C 0.24013 0.18139 0.65644 0.0
C1557 C 0.26499 0.17692 0.66284 0.0
H1558 H 0.82803 0.95277 0.62104 0.0
H1559 H 0.72927 0.92966 0.61811 0.0
H1560 H 0.84182 0.00206 0.63572 0.0
H1561 H 0.74256 0.97827 0.63347 0.0
H1562 H 0.78119 0.08071 0.64352 0.0
H1563 H 0.7684 0.03218 0.62855 0.0
H1564 H 0.83734 0.02483 0.66339 0.0
H1565 H 0.85164 0.0744 0.67745 0.0
C1566 C 0.80924 0.95817 0.62376 0.0
C1567 C 0.77763 0.93754 0.61841 0.0
C1568 C 0.81706 0.98633 0.63225 0.0
C1569 C 0.79333 0.99427 0.63582 0.0
C1570 C 0.76161 0.97332 0.63062 0.0
C1571 C 0.75391 0.94538 0.6219 0.0
C1572 C 0.79369 0.0688 0.648 0.0
C1573 C 0.81716 0.08133 0.66193 0.0
C1574 C 0.78613 0.04075 0.63949 0.0
C1575 C 0.80161 0.02431 0.64482 0.0
C1576 C 0.82512 0.03691 0.65875 0.0
C1577 C 0.833 0.06519 0.66706 0.0
H1578 H 0.477 0.40565 0.75291 0.0
H1579 H 0.55247 0.38418 0.74521 0.0
H1580 H 0.43882 0.35615 0.739 0.0
H1581 H 0.51425 0.3338 0.73237 0.0
H1582 H 0.44712 0.25947 0.69329 0.0
H1583 H 0.48426 0.30915 0.70664 0.0
H1584 H 0.40914 0.3028 0.74279 0.0
H1585 H 0.37124 0.25416 0.72813 0.0
C1586 C 0.48524 0.39003 0.74841 0.0
C1587 C 0.5176 0.39866 0.75 0.0
C1588 C 0.46336 0.36152 0.74056 0.0
C1589 C 0.47323 0.34068 0.73446 0.0
C1590 C 0.5057 0.34934 0.73643 0.0
C1591 C 0.52766 0.37813 0.74391 0.0
C1592 C 0.43826 0.26891 0.70377 0.0
C1593 C 0.4059 0.25303 0.70924 0.0
C1594 C 0.45984 0.29731 0.71176 0.0
C1595 C 0.44996 0.31032 0.72589 0.0
C1596 C 0.41767 0.29404 0.73168 0.0
C1597 C 0.39589 0.26589 0.72337 0.0
H1598 H 0.62051 0.15134 0.72812 0.0
H1599 H 0.61116 0.06989 0.75596 0.0
H1600 H 0.6681 0.15814 0.71175 0.0
H1601 H 0.65963 0.07796 0.74084 0.0
H1602 H 0.73428 0.08224 0.70295 0.0
H1603 H 0.68262 0.0745 0.71324 0.0
H1604 H 0.72269 0.17403 0.71598 0.0
H1605 H 0.77396 0.18144 0.70476 0.0
C1606 C 0.62847 0.13482 0.73076 0.0
C1607 C 0.61188 0.11016 0.74355 0.0
C1608 C 0.6561 0.13898 0.72152 0.0
C1609 C 0.66802 0.11867 0.72488 0.0
C1610 C 0.65115 0.09387 0.73752 0.0
C1611 C 0.62346 0.08954 0.74656 0.0
C1612 C 0.73176 0.1024 0.70543 0.0
C1613 C 0.75798 0.13237 0.70292 0.0
C1614 C 0.70224 0.09805 0.71154 0.0
C1615 C 0.69835 0.1236 0.71588 0.0
C1616 C 0.72447 0.15371 0.71269 0.0
C1617 C 0.75396 0.15804 0.70627 0.0
H1618 H 0.88969 0.51282 0.77877 0.0
H1619 H 0.90652 0.4854 0.72458 0.0
H1620 H 0.87671 0.54926 0.76368 0.0
H1621 H 0.89235 0.52095 0.70964 0.0
H1622 H 0.8303 0.56369 0.69135 0.0
H1623 H 0.84272 0.52697 0.7065 0.0
H1624 H 0.90705 0.59884 0.74384 0.0
H1625 H 0.89541 0.63588 0.72848 0.0
C1626 C 0.89075 0.51457 0.76368 0.0
C1627 C 0.89916 0.49607 0.75293 0.0
C1628 C 0.88317 0.53536 0.75506 0.0
C1629 C 0.88346 0.53782 0.7355 0.0
C1630 C 0.89153 0.51919 0.72473 0.0
C1631 C 0.89951 0.49873 0.73334 0.0
C1632 C 0.84746 0.57186 0.70258 0.0
C1633 C 0.86223 0.60293 0.70845 0.0
C1634 C 0.85444 0.55075 0.71131 0.0
C1635 C 0.87585 0.5601 0.72632 0.0
C1636 C 0.89027 0.59097 0.73238 0.0
C1637 C 0.88367 0.6122 0.72349 0.0
H1638 H 0.52263 0.96401 0.24399 0.0
H1639 H 0.43099 0.89367 0.22348 0.0
H1640 H 0.53669 0.98802 0.21323 0.0
H1641 H 0.44546 0.91684 0.1922 0.0
H1642 H 0.47053 0.98507 0.14248 0.0
H1643 H 0.45412 0.95852 0.17276 0.0
H1644 H 0.55217 0.98329 0.18349 0.0
H1645 H 0.56838 0.01096 0.15378 0.0
C1646 C 0.50564 0.95342 0.23277 0.0
C1647 C 0.4758 0.92683 0.23615 0.0
C1648 C 0.51375 0.96708 0.21501 0.0
C1649 C 0.49247 0.9543 0.19994 0.0
C1650 C 0.46244 0.92767 0.20339 0.0
C1651 C 0.45412 0.91425 0.22131 0.0
C1652 C 0.48842 0.98459 0.15133 0.0
C1653 C 0.52077 0.00035 0.14587 0.0
C1654 C 0.47905 0.96926 0.16869 0.0
C1655 C 0.5018 0.96896 0.18088 0.0
C1656 C 0.53398 0.98371 0.1749 0.0
C1657 C 0.54334 0.99941 0.15775 0.0
H1658 H 0.10243 0.56975 0.21689 0.0
H1659 H 0.02096 0.49116 0.24233 0.0
H1660 H 0.07524 0.5573 0.18693 0.0
H1661 H 0.99248 0.47956 0.21271 0.0
H1662 H 0.95983 0.44951 0.15322 0.0
H1663 H 0.98799 0.46043 0.18289 0.0
H1664 H 0.03554 0.55881 0.17014 0.0
H1665 H 0.00881 0.54732 0.14003 0.0
C1666 C 0.07847 0.54994 0.21601 0.0
C1667 C 0.06369 0.53136 0.23178 0.0
C1668 C 0.06268 0.54289 0.19889 0.0
C1669 C 0.03139 0.5175 0.19727 0.0
C1670 C 0.0167 0.49895 0.21322 0.0
C1671 C 0.03284 0.50564 0.23024 0.0
C1672 C 0.97637 0.47341 0.15688 0.0
C1673 C 0.98231 0.4976 0.14444 0.0
C1674 C 0.99239 0.47977 0.17393 0.0
C1675 C 0.01422 0.51057 0.17907 0.0
C1676 C 0.01959 0.53475 0.1666 0.0
C1677 C 1.0041 0.52829 0.14939 0.0
H1678 H 0.44431 0.48348 0.23634 0.0
H1679 H 0.48649 0.58128 0.22327 0.0
H1680 H 0.45911 0.4746 0.20531 0.0
H1681 H 0.5026 0.57236 0.19267 0.0
H1682 H 0.5635 0.54504 0.15377 0.0
H1683 H 0.54312 0.55405 0.18303 0.0
H1684 H 0.4482 0.48032 0.16968 0.0
H1685 H 0.46856 0.47164 0.14016 0.0
C1686 C 0.45629 0.50305 0.22684 0.0
C1687 C 0.46443 0.5332 0.23253 0.0
C1688 C 0.4649 0.49791 0.20908 0.0
C1689 C 0.48225 0.52284 0.19668 0.0
C1690 C 0.48962 0.55279 0.20207 0.0
C1691 C 0.48054 0.55788 0.21968 0.0
C1692 C 0.53828 0.53084 0.15708 0.0
C1693 C 0.5176 0.50762 0.14476 0.0
C1694 C 0.5266 0.53611 0.17374 0.0
C1695 C 0.49409 0.5179 0.17859 0.0
C1696 C 0.47337 0.49462 0.16628 0.0
C1697 C 0.48496 0.48976 0.14941 0.0
H1698 H 0.92028 0.4806 0.81921 0.0
H1699 H 0.99094 0.46312 0.79386 0.0
H1700 H 0.94804 0.49086 0.84897 0.0
H1701 H 0.01973 0.47474 0.82331 0.0
H1702 H 0.04289 0.46194 0.88308 0.0
H1703 H 0.01652 0.45379 0.85303 0.0
H1704 H 0.99318 0.5251 0.86608 0.0
H1705 H 0.01843 0.53208 0.89649 0.0
C1706 C 0.94211 0.47949 0.81998 0.0
C1707 C 0.95343 0.47095 0.80431 0.0
C1708 C 0.95816 0.4855 0.83701 0.0
C1709 C 0.98618 0.48355 0.83867 0.0
C1710 C 0.99788 0.4758 0.82275 0.0
C1711 C 0.98154 0.46933 0.80582 0.0
C1712 C 0.03225 0.47594 0.87942 0.0
C1713 C 0.03265 0.4976 0.89208 0.0
C1714 C 0.01724 0.47143 0.86215 0.0
C1715 C 1.00268 0.48882 0.85699 0.0
C1716 C 1.00356 0.51084 0.86964 0.0
C1717 C 0.01816 0.515 0.88704 0.0
H1718 H 0.553 0.51707 0.79263 0.0
H1719 H 0.54705 0.43448 0.81631 0.0
H1720 H 0.53912 0.52968 0.82281 0.0
H1721 H 0.53521 0.44781 0.84691 0.0
H1722 H 0.48101 0.46152 0.89466 0.0
H1723 H 0.49633 0.4492 0.8648 0.0
H1724 H 0.55484 0.54741 0.85258 0.0
H1725 H 0.53758 0.55924 0.88192 0.0
C1726 C 0.54926 0.50193 0.80446 0.0
C1727 C 0.55099 0.47481 0.80219 0.0
C1728 C 0.54149 0.5092 0.82185 0.0
C1729 C 0.53594 0.48983 0.83753 0.0
C1730 C 0.53852 0.46301 0.83521 0.0
C1731 C 0.54559 0.45543 0.81771 0.0
C1732 C 0.49719 0.48035 0.88553 0.0
C1733 C 0.508 0.51128 0.89048 0.0
C1734 C 0.50623 0.47338 0.86843 0.0
C1735 C 0.5269 0.49725 0.85604 0.0
C1736 C 0.53831 0.52828 0.86139 0.0
C1737 C 0.52867 0.53517 0.87829 0.0
H1738 H 0.54727 0.03666 0.79339 0.0
H1739 H 0.53789 0.11274 0.81477 0.0
H1740 H 0.5333 0.01161 0.82422 0.0
H1741 H 0.52473 0.08797 0.84587 0.0
H1742 H 0.54212 0.04047 0.90113 0.0
H1743 H 0.55604 0.069 0.87145 0.0
H1744 H 0.47778 0.99041 0.84477 0.0
H1745 H 0.46233 0.9625 0.87442 0.0
C1746 C 0.54261 0.04819 0.80476 0.0
C1747 C 0.54368 0.07664 0.8017 0.0
C1748 C 0.53449 0.03381 0.82235 0.0
C1749 C 0.52794 0.04787 0.83739 0.0
C1750 C 0.52979 0.07672 0.83451 0.0
C1751 C 0.53719 0.09079 0.81675 0.0
C1752 C 0.52733 0.02939 0.88911 0.0
C1753 C 0.50122 0.99879 0.89036 0.0
C1754 C 0.53552 0.04576 0.87206 0.0
C1755 C 0.51819 0.03174 0.85581 0.0
C1756 C 0.49182 0.00158 0.85705 0.0
C1757 C 0.4832 0.9855 0.87409 0.0
H1758 H 0.09471 0.2261 0.55608 0.0
H1759 H 0.18644 0.29613 0.57668 0.0
H1760 H 0.10981 0.24869 0.52467 0.0
H1761 H 0.20115 0.31948 0.54577 0.0
H1762 H 0.23411 0.34016 0.48642 0.0
H1763 H 0.21685 0.31327 0.51632 0.0
H1764 H 0.11964 0.29035 0.50465 0.0
H1765 H 0.13707 0.31621 0.4742 0.0
C1766 C 0.11798 0.2465 0.55391 0.0
C1767 C 0.13951 0.25912 0.56882 0.0
C1768 C 0.12666 0.25958 0.53591 0.0
C1769 C 0.15695 0.28585 0.53243 0.0
C1770 C 0.17803 0.29877 0.54758 0.0
C1771 C 0.16954 0.28548 0.56542 0.0
C1772 C 0.20901 0.32919 0.49022 0.0
C1773 C 0.187 0.33049 0.47802 0.0
C1774 C 0.19906 0.31394 0.50748 0.0
C1775 C 0.16682 0.29997 0.51326 0.0
C1776 C 0.1446 0.30054 0.50076 0.0
C1777 C 0.15455 0.31545 0.48329 0.0
H1778 H 0.68797 0.87114 0.57642 0.0
H1779 H 0.75849 0.85325 0.55125 0.0
H1780 H 0.65926 0.85947 0.54694 0.0
H1781 H 0.73078 0.84289 0.52149 0.0
H1782 H 0.66047 0.80124 0.47407 0.0
H1783 H 0.68546 0.80837 0.50456 0.0
H1784 H 0.66258 0.88016 0.51706 0.0
H1785 H 0.63647 0.87191 0.4869 0.0
C1786 C 0.69736 0.86484 0.5645 0.0
C1787 C 0.7254 0.86308 0.56607 0.0
C1788 C 0.68106 0.85833 0.54755 0.0
C1789 C 0.69271 0.85038 0.53169 0.0
C1790 C 0.72069 0.84838 0.53341 0.0
C1791 C 0.73671 0.85444 0.55044 0.0
C1792 C 0.66077 0.81845 0.48342 0.0
C1793 C 0.64653 0.83599 0.47817 0.0
C1794 C 0.67523 0.8227 0.50086 0.0
C1795 C 0.67621 0.84494 0.51336 0.0
C1796 C 0.6618 0.8624 0.50804 0.0
C1797 C 0.64694 0.85781 0.49071 0.0
H1798 H 0.13318 0.82093 0.57624 0.0
H1799 H 0.13697 0.90264 0.55266 0.0
H1800 H 0.14821 0.80927 0.54613 0.0
H1801 H 0.15 0.89021 0.52212 0.0
H1802 H 0.20571 0.87836 0.47445 0.0
H1803 H 0.1896 0.88997 0.50428 0.0
H1804 H 0.13305 0.79152 0.51633 0.0
H1805 H 0.15111 0.78046 0.48704 0.0
C1806 C 0.13672 0.83608 0.56445 0.0
C1807 C 0.134 0.86267 0.56673 0.0
C1808 C 0.14514 0.82935 0.54709 0.0
C1809 C 0.15039 0.84871 0.53145 0.0
C1810 C 0.14692 0.87503 0.53379 0.0
C1811 C 0.13918 0.88209 0.55126 0.0
C1812 C 0.1898 0.85933 0.48355 0.0
C1813 C 0.17979 0.82857 0.47856 0.0
C1814 C 0.18031 0.86588 0.50063 0.0
C1815 C 0.15995 0.84174 0.51296 0.0
C1816 C 0.14933 0.81087 0.50758 0.0
C1817 C 0.15944 0.80441 0.4907 0.0
H1818 H 0.65747 0.79597 0.12787 0.0
H1819 H 0.58709 0.81346 0.15361 0.0
H1820 H 0.68606 0.80669 0.15736 0.0
H1821 H 0.61466 0.82284 0.18339 0.0
H1822 H 0.68502 0.86266 0.23108 0.0
H1823 H 0.65983 0.85646 0.20071 0.0
H1824 H 0.68249 0.78496 0.18687 0.0
H1825 H 0.70878 0.7923 0.21689 0.0
C1826 C 0.64809 0.80199 0.13992 0.0
C1827 C 0.62011 0.80387 0.13851 0.0
C1828 C 0.66431 0.80794 0.15687 0.0
C1829 C 0.65263 0.81544 0.17291 0.0
C1830 C 0.62475 0.81766 0.17134 0.0
C1831 C 0.60882 0.81216 0.1543 0.0
C1832 C 0.6846 0.84569 0.22147 0.0
C1833 C 0.69889 0.82801 0.22628 0.0
C1834 C 0.67004 0.84199 0.20409 0.0
C1835 C 0.66901 0.82016 0.19123 0.0
C1836 C 0.68334 0.80247 0.19617 0.0
C1837 C 0.6983 0.80652 0.21342 0.0
H1838 H 0.16214 0.79907 0.12599 0.0
H1839 H 0.25176 0.81613 0.14919 0.0
H1840 H 0.14604 0.8091 0.15621 0.0
H1841 H 0.23522 0.82475 0.17984 0.0
H1842 H 0.20736 0.86514 0.22903 0.0
H1843 H 0.22544 0.85759 0.19861 0.0
H1844 H 0.12831 0.78756 0.18563 0.0
H1845 H 0.11038 0.79636 0.2156 0.0
C1846 C 0.17828 0.80474 0.13767 0.0
C1847 C 0.20813 0.80673 0.13528 0.0
C1848 C 0.169 0.81029 0.15508 0.0
C1849 C 0.18909 0.81743 0.17069 0.0
C1850 C 0.2192 0.81973 0.16818 0.0
C1851 C 0.2287 0.81467 0.15064 0.0
C1852 C 0.19 0.84813 0.21962 0.0
C1853 C 0.15745 0.8315 0.22461 0.0
C1854 C 0.20033 0.84365 0.20219 0.0
C1855 C 0.17839 0.82207 0.18945 0.0
C1856 C 0.14589 0.80499 0.19474 0.0
C1857 C 0.13555 0.80984 0.21201 0.0
H1858 H 0.21655 0.372 0.12535 0.0
H1859 H 0.20291 0.44582 0.14619 0.0
H1860 H 0.20329 0.34718 0.15591 0.0
H1861 H 0.19131 0.42206 0.17729 0.0
H1862 H 0.14033 0.35497 0.22642 0.0
H1863 H 0.15492 0.38234 0.19638 0.0
H1864 H 0.2197 0.34754 0.18581 0.0
H1865 H 0.20324 0.31878 0.21521 0.0
C1866 C 0.21121 0.38319 0.13663 0.0
C1867 C 0.21088 0.4109 0.13337 0.0
C1868 C 0.20378 0.36907 0.15429 0.0
C1869 C 0.19639 0.38255 0.1694 0.0
C1870 C 0.19633 0.41053 0.16609 0.0
C1871 C 0.20318 0.42435 0.14827 0.0
C1872 C 0.15781 0.35345 0.21762 0.0
C1873 C 0.17057 0.33471 0.22303 0.0
C1874 C 0.16638 0.36926 0.2004 0.0
C1875 C 0.18838 0.36712 0.18832 0.0
C1876 C 0.202 0.34921 0.19428 0.0
C1877 C 0.1929 0.33293 0.21127 0.0
H1878 H 0.79575 0.6292 0.91023 0.0
H1879 H 0.80847 0.55512 0.88874 0.0
H1880 H 0.80936 0.65455 0.87947 0.0
H1881 H 0.82125 0.58014 0.85772 0.0
H1882 H 0.80324 0.62698 0.8024 0.0
H1883 H 0.78915 0.59817 0.83199 0.0
H1884 H 0.8657 0.67735 0.85929 0.0
H1885 H 0.88136 0.70557 0.82975 0.0
C1886 C 0.80102 0.61814 0.89884 0.0
C1887 C 0.80104 0.5902 0.90185 0.0
C1888 C 0.80894 0.63269 0.8813 0.0
C1889 C 0.81635 0.61928 0.86625 0.0
C1890 C 0.8155 0.59088 0.86908 0.0
C1891 C 0.80831 0.57666 0.88679 0.0
C1892 C 0.81762 0.63815 0.81455 0.0
C1893 C 0.84332 0.66899 0.8135 0.0
C1894 C 0.80933 0.62162 0.83154 0.0
C1895 C 0.82611 0.6357 0.84793 0.0
C1896 C 0.85205 0.66612 0.8469 0.0
C1897 C 0.86081 0.68237 0.82992 0.0
H1898 H 0.43535 0.23598 0.88369 0.0
H1899 H 0.35424 0.1587 0.9105 0.0
H1900 H 0.40684 0.22216 0.85385 0.0
H1901 H 0.32529 0.1454 0.88073 0.0
H1902 H 0.28 0.16828 0.82733 0.0
H1903 H 0.30718 0.17934 0.85736 0.0
H1904 H 0.38248 0.16832 0.83267 0.0
H1905 H 0.35461 0.1552 0.80291 0.0
C1906 C 0.41137 0.21614 0.88314 0.0
C1907 C 0.39686 0.19832 0.89924 0.0
C1908 C 0.39518 0.20822 0.86615 0.0
C1909 C 0.36398 0.1828 0.86513 0.0
C1910 C 0.34932 0.16516 0.88127 0.0
C1911 C 0.36582 0.17266 0.89819 0.0
C1912 C 0.30199 0.16755 0.82829 0.0
C1913 C 0.31504 0.16089 0.81253 0.0
C1914 C 0.3176 0.17409 0.84548 0.0
C1915 C 0.34686 0.17476 0.84718 0.0
C1916 C 0.36003 0.1682 0.83158 0.0
C1917 C 0.34413 0.16098 0.8145 0.0
H1918 H 0.76002 0.18635 0.88803 0.0
H1919 H 0.84842 0.19996 0.91117 0.0
H1920 H 0.77597 0.1773 0.85728 0.0
H1921 H 0.86387 0.18948 0.88088 0.0
H1922 H 0.90044 0.20341 0.82181 0.0
H1923 H 0.88243 0.21207 0.85178 0.0
H1924 H 0.7849 0.14431 0.83793 0.0
H1925 H 0.80312 0.13689 0.80749 0.0
C1926 C 0.78264 0.18689 0.88655 0.0
C1927 C 0.80311 0.1941 0.9019 0.0
C1928 C 0.79181 0.18161 0.86895 0.0
C1929 C 0.82148 0.18298 0.86639 0.0
C1930 C 0.84131 0.18911 0.88204 0.0
C1931 C 0.83238 0.19487 0.89949 0.0
C1932 C 0.87515 0.19041 0.8252 0.0
C1933 C 0.85322 0.16937 0.81237 0.0
C1934 C 0.86476 0.19517 0.84247 0.0
C1935 C 0.83215 0.1786 0.84755 0.0
C1936 C 0.81013 0.15778 0.83453 0.0
C1937 C 0.82053 0.1534 0.81709 0.0
H1938 H 0.32101 0.17735 0.46181 0.0
H1939 H 0.23963 0.09712 0.48623 0.0
H1940 H 0.34831 0.18909 0.49201 0.0
H1941 H 0.2666 0.10942 0.51663 0.0
H1942 H 0.31867 0.17513 0.56922 0.0
H1943 H 0.29023 0.16207 0.53962 0.0
H1944 H 0.36631 0.15355 0.51384 0.0
H1945 H 0.39406 0.16448 0.54364 0.0
C1946 C 0.30891 0.16249 0.47373 0.0
C1947 C 0.27831 0.13641 0.47183 0.0
C1948 C 0.32452 0.16909 0.4909 0.0
C1949 C 0.30946 0.15009 0.50651 0.0
C1950 C 0.27856 0.12439 0.50473 0.0
C1951 C 0.26324 0.11736 0.48744 0.0
C1952 C 0.32917 0.16982 0.55743 0.0
C1953 C 0.35879 0.17081 0.55899 0.0
C1954 C 0.31291 0.1626 0.54045 0.0
C1955 C 0.32622 0.15694 0.52457 0.0
C1956 C 0.35578 0.15812 0.52594 0.0
C1957 C 0.37173 0.16463 0.543 0.0
H1958 H 0.88124 0.18044 0.46035 0.0
H1959 H 0.8776 0.09881 0.48413 0.0
H1960 H 0.86586 0.192 0.49067 0.0
H1961 H 0.86304 0.11086 0.51462 0.0
H1962 H 0.87589 0.17298 0.56843 0.0
H1963 H 0.89177 0.16024 0.53886 0.0
H1964 H 0.81153 0.15882 0.51169 0.0
H1965 H 0.79413 0.16946 0.54133 0.0
C1966 C 0.87749 0.16522 0.47214 0.0
C1967 C 0.88056 0.13876 0.46997 0.0
C1968 C 0.86857 0.17172 0.4894 0.0
C1969 C 0.86327 0.15228 0.50491 0.0
C1970 C 0.86712 0.12624 0.50287 0.0
C1971 C 0.87532 0.11932 0.48548 0.0
C1972 C 0.86111 0.16933 0.55632 0.0
C1973 C 0.83364 0.17243 0.55746 0.0
C1974 C 0.87045 0.16227 0.53934 0.0
C1975 C 0.85299 0.15881 0.52303 0.0
C1976 C 0.82562 0.16179 0.52406 0.0
C1977 C 0.81584 0.16814 0.54107 0.0
H1978 H 0.8561 0.77221 0.4771 0.0
H1979 H 0.90425 0.72044 0.46537 0.0
H1980 H 0.84182 0.7486 0.50811 0.0
H1981 H 0.89118 0.69817 0.49676 0.0
H1982 H 0.88344 0.68606 0.56157 0.0
H1983 H 0.90172 0.71443 0.53175 0.0
H1984 H 0.80507 0.69237 0.51975 0.0
H1985 H 0.78684 0.66375 0.5493 0.0
C1986 C 0.86372 0.75587 0.48103 0.0
C1987 C 0.88113 0.74813 0.46843 0.0
C1988 C 0.85567 0.7425 0.49892 0.0
C1989 C 0.8653 0.72147 0.50488 0.0
C1990 C 0.88368 0.71454 0.49264 0.0
C1991 C 0.89128 0.72749 0.47462 0.0
C1992 C 0.86623 0.68757 0.5526 0.0
C1993 C 0.83371 0.67264 0.55772 0.0
C1994 C 0.87663 0.70361 0.53551 0.0
C1995 C 0.85482 0.70562 0.5234 0.0
C1996 C 0.82248 0.69143 0.52882 0.0
C1997 C 0.81202 0.67492 0.54569 0.0
loop_
_geom_bond_atom_site_label_1
_geom_bond_atom_site_label_2
_geom_bond_distance
_geom_bond_site_symmetry_2
_ccdc_geom_bond_type
H0 C3 0.931 . S
H1 C6 0.928 . S
H2 C8 0.930 . S
C3 H0 0.931 . S
C3 C4 1.413 . S
C3 C5 1.360 . S
C4 C3 1.413 . S
C4 C8 1.429 . S
C5 C3 1.360 . S
C5 C6 1.372 . S
C6 H1 0.928 . S
C6 C5 1.372 . S
C6 C7 1.404 . S
C7 C6 1.404 . S
C7 C8 1.391 . S
C8 H2 0.930 . S
C8 C4 1.429 . S
C8 C7 1.391 . S
H9 C12 0.931 . S
H10 C15 0.928 . S
H11 C17 0.930 . S
C12 H9 0.931 . S
C12 C13 1.413 . S
C12 C14 1.360 . S
C13 C12 1.413 . S
C13 C17 1.429 . S
C14 C12 1.360 . S
C14 C15 1.372 . S
C15 H10 0.928 . S
C15 C14 1.372 . S
C15 C16 1.404 . S
C16 C15 1.404 . S
C16 C17 1.391 . S
C17 H11 0.930 . S
C17 C13 1.429 . S
C17 C16 1.391 . S
H18 C21 0.931 . S
H19 C24 0.928 . S
H20 C26 0.930 . S
C21 H18 0.931 . S
C21 C22 1.413 . S
C21 C23 1.360 . S
C22 C21 1.413 . S
C22 C26 1.429 . S
C23 C21 1.360 . S
C23 C24 1.372 . S
C24 H19 0.928 . S
C24 C23 1.372 . S
C24 C25 1.404 . S
C25 C24 1.404 . S
C25 C26 1.391 . S
C26 H20 0.930 . S
C26 C22 1.429 . S
C26 C25 1.391 . S
H27 C30 0.931 . S
H28 C33 0.928 . S
H29 C35 0.930 . S
C30 H27 0.931 . S
C30 C31 1.413 . S
C30 C32 1.360 . S
C31 C30 1.413 . S
C31 C35 1.429 . S
C32 C30 1.360 . S
C32 C33 1.372 . S
C33 H28 0.928 . S
C33 C32 1.372 . S
C33 C34 1.404 . S
C34 C33 1.404 . S
C34 C35 1.391 . S
C35 H29 0.930 . S
C35 C31 1.429 . S
C35 C34 1.391 . S
H36 C39 0.931 . S
H37 C42 0.928 . S
H38 C44 0.930 . S
C39 H36 0.931 . S
C39 C40 1.413 . S
C39 C41 1.360 . S
C40 C39 1.413 . S
C40 C44 1.429 . S
C41 C39 1.360 . S
C41 C42 1.372 . S
C42 H37 0.928 . S
C42 C41 1.372 . S
C42 C43 1.404 . S
C43 C42 1.404 . S
C43 C44 1.391 . S
C44 H38 0.930 . S
C44 C40 1.429 . S
C44 C43 1.391 . S
H45 C48 0.931 . S
H46 C51 0.928 . S
H47 C53 0.930 . S
C48 H45 0.931 . S
C48 C49 1.413 . S
C48 C50 1.360 . S
C49 C48 1.413 . S
C49 C53 1.429 . S
C50 C48 1.360 . S
C50 C51 1.372 . S
C51 H46 0.928 . S
C51 C50 1.372 . S
C51 C52 1.404 . S
C52 C51 1.404 . S
C52 C53 1.391 . S
C53 H47 0.930 . S
C53 C49 1.429 . S
C53 C52 1.391 . S
H54 C57 0.931 . S
H55 C60 0.928 . S
H56 C62 0.930 . S
C57 H54 0.931 . S
C57 C58 1.413 . S
C57 C59 1.360 . S
C58 C57 1.413 . S
C58 C62 1.429 . S
C59 C57 1.360 . S
C59 C60 1.372 . S
C60 H55 0.928 . S
C60 C59 1.372 . S
C60 C61 1.404 . S
C61 C60 1.404 . S
C61 C62 1.391 . S
C62 H56 0.930 . S
C62 C58 1.429 . S
C62 C61 1.391 . S
H63 C66 0.931 . S
H64 C69 0.928 . S
H65 C71 0.930 . S
C66 H63 0.931 . S
C66 C67 1.413 . S
C66 C68 1.360 . S
C67 C66 1.413 . S
C67 C71 1.429 . S
C68 C66 1.360 . S
C68 C69 1.372 . S
C69 H64 0.928 . S
C69 C68 1.372 . S
C69 C70 1.404 . S
C70 C69 1.404 . S
C70 C71 1.391 . S
C71 H65 0.930 . S
C71 C67 1.429 . S
C71 C70 1.391 . S
H72 C75 0.931 . S
H73 C78 0.928 . S
H74 C80 0.930 . S
C75 H72 0.931 . S
C75 C76 1.413 . S
C75 C77 1.360 . S
C76 C75 1.413 . S
C76 C80 1.429 . S
C77 C75 1.360 . S
C77 C78 1.372 . S
C78 H73 0.928 . S
C78 C77 1.372 . S
C78 C79 1.404 . S
C79 C78 1.404 . S
C79 C80 1.391 . S
C80 H74 0.930 . S
C80 C76 1.429 . S
C80 C79 1.391 . S
H81 C84 0.931 . S
H82 C87 0.928 . S
H83 C89 0.930 . S
C84 H81 0.931 . S
C84 C85 1.413 . S
C84 C86 1.360 . S
C85 C84 1.413 . S
C85 C89 1.429 . S
C86 C84 1.360 . S
C86 C87 1.372 . S
C87 H82 0.928 . S
C87 C86 1.372 . S
C87 C88 1.404 . S
C88 C87 1.404 . S
C88 C89 1.391 . S
C89 H83 0.930 . S
C89 C85 1.429 . S
C89 C88 1.391 . S
H90 C93 0.931 . S
H91 C96 0.928 . S
H92 C98 0.930 . S
C93 H90 0.931 . S
C93 C94 1.413 . S
C93 C95 1.360 . S
C94 C93 1.413 . S
C94 C98 1.429 . S
C95 C93 1.360 . S
C95 C96 1.372 . S
C96 H91 0.928 . S
C96 C95 1.372 . S
C96 C97 1.404 . S
C97 C96 1.404 . S
C97 C98 1.391 . S
C98 H92 0.930 . S
C98 C94 1.429 . S
C98 C97 1.391 . S
H99 C102 0.931 . S
H100 C105 0.928 . S
H101 C107 0.930 . S
C102 H99 0.931 . S
C102 C103 1.413 . S
C102 C104 1.360 . S
C103 C102 1.413 . S
C103 C107 1.429 . S
C104 C102 1.360 . S
C104 C105 1.372 . S
C105 H100 0.928 . S
C105 C104 1.372 . S
C105 C106 1.404 . S
C106 C105 1.404 . S
C106 C107 1.391 . S
C107 H101 0.930 . S
C107 C103 1.429 . S
C107 C106 1.391 . S
H108 C111 0.931 . S
H109 C114 0.928 . S
H110 C116 0.930 . S
C111 H108 0.931 . S
C111 C112 1.413 . S
C111 C113 1.360 . S
C112 C111 1.413 . S
C112 C116 1.429 . S
C113 C111 1.360 . S
C113 C114 1.372 . S
C114 H109 0.928 . S
C114 C113 1.372 . S
C114 C115 1.404 . S
C115 C114 1.404 . S
C115 C116 1.391 . S
C116 H110 0.930 . S
C116 C112 1.429 . S
C116 C115 1.391 . S
H117 C120 0.931 . S
H118 C123 0.928 . S
H119 C125 0.930 . S
C120 H117 0.931 . S
C120 C121 1.413 . S
C120 C122 1.360 . S
C121 C120 1.413 . S
C121 C125 1.429 . S
C122 C120 1.360 . S
C122 C123 1.372 . S
C123 H118 0.928 . S
C123 C122 1.372 . S
C123 C124 1.404 . S
C124 C123 1.404 . S
C124 C125 1.391 . S
C125 H119 0.930 . S
C125 C121 1.429 . S
C125 C124 1.391 . S
H126 C129 0.931 . S
H127 C132 0.928 . S
H128 C134 0.930 . S
C129 H126 0.931 . S
C129 C130 1.413 . S
C129 C131 1.360 . S
C130 C129 1.413 . S
C130 C134 1.429 . S
C131 C129 1.360 . S
C131 C132 1.372 . S
C132 H127 0.928 . S
C132 C131 1.372 . S
C132 C133 1.404 . S
C133 C132 1.404 . S
C133 C134 1.391 . S
C134 H128 0.930 . S
C134 C130 1.429 . S
C134 C133 1.391 . S
H135 C138 0.931 . S
H136 C141 0.928 . S
H137 C143 0.930 . S
C138 H135 0.931 . S
C138 C139 1.413 . S
C138 C140 1.360 . S
C139 C138 1.413 . S
C139 C143 1.429 . S
C140 C138 1.360 . S
C140 C141 1.372 . S
C141 H136 0.928 . S
C141 C140 1.372 . S
C141 C142 1.404 . S
C142 C141 1.404 . S
C142 C143 1.391 . S
C143 H137 0.930 . S
C143 C139 1.429 . S
C143 C142 1.391 . S
H144 C147 0.931 . S
H145 C150 0.928 . S
H146 C152 0.930 . S
C147 H144 0.931 . S
C147 C148 1.413 . S
C147 C149 1.360 . S
C148 C147 1.413 . S
C148 C152 1.429 . S
C149 C147 1.360 . S
C149 C150 1.372 . S
C150 H145 0.928 . S
C150 C149 1.372 . S
C150 C151 1.404 . S
C151 C150 1.404 . S
C151 C152 1.391 . S
C152 H146 0.930 . S
C152 C148 1.429 . S
C152 C151 1.391 . S
H153 C156 0.931 . S
H154 C159 0.928 . S
H155 C161 0.930 . S
C156 H153 0.931 . S
C156 C157 1.413 . S
C156 C158 1.360 . S
C157 C156 1.413 . S
C157 C161 1.429 . S
C158 C156 1.360 . S
C158 C159 1.372 . S
C159 H154 0.928 . S
C159 C158 1.372 . S
C159 C160 1.404 . S
C160 C159 1.404 . S
C160 C161 1.391 . S
C161 H155 0.930 . S
C161 C157 1.429 . S
C161 C160 1.391 . S
Eu162 N193 2.657 . S
Eu162 N200 2.609 . S
Eu162 O206 2.558 . S
Eu162 O207 2.614 1_566 S
Eu162 O209 2.339 1_565 S
Eu162 O210 2.563 1_565 S
Eu162 O211 2.419 . S
Eu162 O213 2.380 1_556 S
Eu162 O214 2.461 . S
Eu162 C226 2.848 . S
C163 C166 1.429 . S
C163 C167 1.411 . S
C163 N170 1.377 . S
C164 C166 1.420 . S
C164 C168 1.423 . S
C164 C176 1.392 . S
C165 C167 1.420 . S
C165 C168 1.351 . S
C165 H188 0.931 . S
C166 C163 1.429 . S
C166 C164 1.420 . S
C166 N174 1.362 . S
C167 C163 1.411 . S
C167 C165 1.420 . S
C167 C172 1.395 . S
C168 C164 1.423 . S
C168 C165 1.351 . S
C168 H180 0.930 . S
C169 C171 1.400 . S
C169 C172 1.386 . S
C169 H181 0.930 . S
N170 C163 1.377 . S
N170 C171 1.321 . S
N170 Eu173 2.609 . S
C171 C169 1.400 . S
C171 N170 1.321 . S
C171 H178 0.930 . S
C172 C167 1.395 . S
C172 C169 1.386 . S
C172 H191 0.930 . S
Eu173 N170 2.609 . S
Eu173 N174 2.657 . S
Eu173 O207 2.378 . S
Eu173 O208 2.432 . S
Eu173 O212 2.558 . S
Eu173 O213 2.612 1_545 S
Eu173 O215 2.339 1_545 S
Eu173 O216 2.563 1_545 S
Eu173 O217 2.419 . S
Eu173 C237 2.848 . S
N174 C166 1.362 . S
N174 Eu173 2.657 . S
N174 C175 1.334 . S
C175 N174 1.334 . S
C175 C177 1.413 . S
C175 H182 0.929 . S
C176 C164 1.392 . S
C176 C177 1.367 . S
C176 H184 0.930 . S
C177 C175 1.413 . S
C177 C176 1.367 . S
C177 H179 0.930 . S
H178 C171 0.930 . S
H179 C177 0.930 . S
H180 C168 0.930 . S
H181 C169 0.930 . S
H182 C175 0.929 . S
H183 C197 0.930 . S
H184 C176 0.930 . S
H185 C203 0.930 . S
H186 C194 0.929 . S
H187 C201 0.930 . S
H188 C165 0.931 . S
H189 C195 0.930 . S
H190 C228 0.930 . S
H191 C172 0.930 . S
H192 C227 0.931 . S
N193 Eu162 2.657 . S
N193 C194 1.334 . S
N193 C198 1.362 . S
C194 H186 0.929 . S
C194 N193 1.334 . S
C194 C197 1.413 . S
C195 H189 0.930 . S
C195 C196 1.392 . S
C195 C197 1.367 . S
C196 C195 1.392 . S
C196 C198 1.420 . S
C196 C228 1.423 . S
C197 H183 0.930 . S
C197 C194 1.413 . S
C197 C195 1.367 . S
C198 N193 1.362 . S
C198 C196 1.420 . S
C198 C202 1.429 . S
H199 C204 0.930 . S
N200 Eu162 2.609 . S
N200 C202 1.377 . S
N200 C203 1.321 . S
C201 H187 0.930 . S
C201 C203 1.400 . S
C201 C204 1.386 . S
C202 C198 1.429 . S
C202 N200 1.377 . S
C202 C205 1.411 . S
C203 H185 0.930 . S
C203 N200 1.321 . S
C203 C201 1.400 . S
C204 H199 0.930 . S
C204 C201 1.386 . S
C204 C205 1.395 . S
C205 C202 1.411 . S
C205 C204 1.395 . S
C205 C227 1.420 . S
O206 Eu162 2.558 . S
O206 C226 1.257 . S
O207 Eu162 2.614 1_544 S
O207 Eu173 2.378 . S
O207 C218 1.278 1_554 S
O208 Eu173 2.432 . S
O208 C225 1.264 1_554 S
O209 Eu162 2.339 1_545 S
O209 C225 1.254 . S
O210 Eu162 2.563 1_545 S
O210 C218 1.235 . S
O211 Eu162 2.419 . S
O211 C226 1.249 . S
O212 Eu173 2.558 . S
O212 C237 1.257 . S
O213 Eu162 2.380 1_554 S
O213 Eu173 2.612 1_565 S
O213 C229 1.276 . S
O214 Eu162 2.461 . S
O214 C236 1.213 1_556 S
O215 Eu173 2.339 1_565 S
O215 C236 1.254 . S
O216 Eu173 2.563 1_565 S
O216 C229 1.235 . S
O217 Eu173 2.419 . S
O217 C237 1.249 . S
C218 O207 1.278 1_556 S
C218 O210 1.235 . S
C219 C221 1.393 1_565 S
C219 C223 1.395 . S
C219 C226 1.492 . S
C220 C221 1.392 . S
C220 C222 1.386 1_545 S
C221 C219 1.393 1_545 S
C221 C220 1.392 . S
C221 H238 0.930 . S
C222 C220 1.386 1_565 S
C222 C224 1.395 . S
C222 H239 0.930 . S
C223 C219 1.395 . S
C223 C224 1.379 . S
C223 H240 0.930 . S
C224 C222 1.395 . S
C224 C223 1.379 . S
C224 H241 0.930 . S
C225 O208 1.264 1_556 S
C225 O209 1.254 . S
C226 Eu162 2.848 . S
C226 O206 1.257 . S
C226 O211 1.249 . S
C226 C219 1.492 . S
C227 H192 0.931 . S
C227 C205 1.420 . S
C227 C228 1.351 . S
C228 H190 0.930 . S
C228 C196 1.423 . S
C228 C227 1.351 . S
C229 O213 1.276 . S
C229 O216 1.235 . S
C230 C231 1.393 1_545 S
C230 C234 1.395 . S
C230 C237 1.492 . S
C231 C230 1.393 1_565 S
C231 C232 1.392 . S
C231 H242 0.930 . S
C232 C231 1.392 . S
C232 C233 1.386 1_565 S
C233 C232 1.386 1_545 S
C233 C235 1.395 . S
C233 H243 0.930 . S
C234 C230 1.395 . S
C234 C235 1.379 . S
C234 H244 0.930 . S
C235 C233 1.395 . S
C235 C234 1.379 . S
C235 H245 0.930 . S
C236 O214 1.213 1_554 S
C236 O215 1.254 . S
C237 Eu173 2.848 . S
C237 O212 1.257 . S
C237 O217 1.249 . S
C237 C230 1.492 . S
H238 C221 0.930 . S
H239 C222 0.930 . S
H240 C223 0.930 . S
H241 C224 0.930 . S
H242 C231 0.930 . S
H243 C233 0.930 . S
H244 C234 0.930 . S
H245 C235 0.930 . S
Eu246 N277 2.657 . S
Eu246 N284 2.609 . S
Eu246 O290 2.558 . S
Eu246 O291 2.615 1_455 S
Eu246 O293 2.339 1_455 S
Eu246 O294 2.563 1_455 S
Eu246 O295 2.419 . S
Eu246 O297 2.380 1_556 S
Eu246 O298 2.420 1_556 S
Eu246 C310 2.848 . S
C247 C250 1.429 . S
C247 C251 1.411 . S
C247 N254 1.377 . S
C248 C250 1.420 . S
C248 C252 1.423 . S
C248 C260 1.392 . S
C249 C251 1.420 . S
C249 C252 1.351 . S
C249 H272 0.931 . S
C250 C247 1.429 . S
C250 C248 1.420 . S
C250 N258 1.362 . S
C251 C247 1.411 . S
C251 C249 1.420 . S
C251 C256 1.395 . S
C252 C248 1.423 . S
C252 C249 1.351 . S
C252 H264 0.930 . S
C253 C255 1.400 . S
C253 C256 1.386 . S
C253 H265 0.930 . S
N254 C247 1.377 . S
N254 C255 1.321 . S
N254 Eu257 2.609 . S
C255 C253 1.400 . S
C255 N254 1.321 . S
C255 H262 0.930 . S
C256 C251 1.395 . S
C256 C253 1.386 . S
C256 H275 0.930 . S
Eu257 N254 2.609 . S
Eu257 N258 2.657 . S
Eu257 O291 2.376 1_554 S
Eu257 O292 2.432 . S
Eu257 O296 2.558 . S
Eu257 O297 2.612 1_655 S
Eu257 O299 2.339 1_655 S
Eu257 O300 2.563 1_655 S
Eu257 O301 2.419 . S
Eu257 C321 2.848 . S
N258 C250 1.362 . S
N258 Eu257 2.657 . S
N258 C259 1.334 . S
C259 N258 1.334 . S
C259 C261 1.413 . S
C259 H266 0.929 . S
C260 C248 1.392 . S
C260 C261 1.367 . S
C260 H268 0.930 . S
C261 C259 1.413 . S
C261 C260 1.367 . S
C261 H263 0.930 . S
H262 C255 0.930 . S
H263 C261 0.930 . S
H264 C252 0.930 . S
H265 C253 0.930 . S
H266 C259 0.929 . S
H267 C281 0.930 . S
H268 C260 0.930 . S
H269 C287 0.930 . S
H270 C278 0.929 . S
H271 C285 0.930 . S
H272 C249 0.931 . S
H273 C279 0.930 . S
H274 C312 0.930 . S
H275 C256 0.930 . S
H276 C311 0.931 . S
N277 Eu246 2.657 . S
N277 C278 1.334 . S
N277 C282 1.362 . S
C278 H270 0.929 . S
C278 N277 1.334 . S
C278 C281 1.413 . S
C279 H273 0.930 . S
C279 C280 1.392 . S
C279 C281 1.367 . S
C280 C279 1.392 . S
C280 C282 1.420 . S
C280 C312 1.423 . S
C281 H267 0.930 . S
C281 C278 1.413 . S
C281 C279 1.367 . S
C282 N277 1.362 . S
C282 C280 1.420 . S
C282 C286 1.429 . S
H283 C288 0.930 . S
N284 Eu246 2.609 . S
N284 C286 1.377 . S
N284 C287 1.321 . S
C285 H271 0.930 . S
C285 C287 1.400 . S
C285 C288 1.386 . S
C286 C282 1.429 . S
C286 N284 1.377 . S
C286 C289 1.411 . S
C287 H269 0.930 . S
C287 N284 1.321 . S
C287 C285 1.400 . S
C288 H283 0.930 . S
C288 C285 1.386 . S
C288 C289 1.395 . S
C289 C286 1.411 . S
C289 C288 1.395 . S
C289 C311 1.420 . S
O290 Eu246 2.558 . S
O290 C310 1.257 . S
O291 Eu246 2.615 1_655 S
O291 Eu257 2.376 1_556 S
O291 C302 1.279 . S
O292 Eu257 2.432 . S
O292 C309 1.264 1_554 S
O293 Eu246 2.339 1_655 S
O293 C309 1.254 . S
O294 Eu246 2.563 1_655 S
O294 C302 1.235 . S
O295 Eu246 2.419 . S
O295 C310 1.249 . S
O296 Eu257 2.558 . S
O296 C321 1.257 . S
O297 Eu246 2.380 1_554 S
O297 Eu257 2.612 1_455 S
O297 C313 1.276 . S
O298 Eu246 2.420 1_554 S
O298 C320 1.286 . S
O299 Eu257 2.339 1_455 S
O299 C320 1.254 . S
O300 Eu257 2.563 1_455 S
O300 C313 1.235 . S
O301 Eu257 2.419 . S
O301 C321 1.249 . S
C302 O291 1.279 . S
C302 O294 1.235 . S
C303 C305 1.393 1_455 S
C303 C307 1.395 . S
C303 C310 1.492 . S
C304 C305 1.392 . S
C304 C306 1.386 1_655 S
C305 C303 1.393 1_655 S
C305 C304 1.392 . S
C305 H322 0.930 . S
C306 C304 1.386 1_455 S
C306 C308 1.395 . S
C306 H323 0.930 . S
C307 C303 1.395 . S
C307 C308 1.379 . S
C307 H324 0.930 . S
C308 C306 1.395 . S
C308 C307 1.379 . S
C308 H325 0.930 . S
C309 O292 1.264 1_556 S
C309 O293 1.254 . S
C310 Eu246 2.848 . S
C310 O290 1.257 . S
C310 O295 1.249 . S
C310 C303 1.492 . S
C311 H276 0.931 . S
C311 C289 1.420 . S
C311 C312 1.351 . S
C312 H274 0.930 . S
C312 C280 1.423 . S
C312 C311 1.351 . S
C313 O297 1.276 . S
C313 O300 1.235 . S
C314 C315 1.393 1_655 S
C314 C318 1.395 . S
C314 C321 1.492 . S
C315 C314 1.393 1_455 S
C315 C316 1.392 . S
C315 H326 0.930 . S
C316 C315 1.392 . S
C316 C317 1.386 1_455 S
C317 C316 1.386 1_655 S
C317 C319 1.395 . S
C317 H327 0.930 . S
C318 C314 1.395 . S
C318 C319 1.379 . S
C318 H328 0.930 . S
C319 C317 1.395 . S
C319 C318 1.379 . S
C319 H329 0.930 . S
C320 O298 1.286 . S
C320 O299 1.254 . S
C321 Eu257 2.848 . S
C321 O296 1.257 . S
C321 O301 1.249 . S
C321 C314 1.492 . S
H322 C305 0.930 . S
H323 C306 0.930 . S
H324 C307 0.930 . S
H325 C308 0.930 . S
H326 C315 0.930 . S
H327 C317 0.930 . S
H328 C318 0.930 . S
H329 C319 0.930 . S
Eu330 N361 2.657 . S
Eu330 N368 2.609 . S
Eu330 O374 2.558 . S
Eu330 O375 2.612 . S
Eu330 O377 2.339 . S
Eu330 O378 2.563 . S
Eu330 O379 2.419 . S
Eu330 O381 2.344 1_554 S
Eu330 O382 2.432 . S
Eu330 C394 2.848 . S
C331 C334 1.429 . S
C331 C335 1.411 . S
C331 N338 1.377 . S
C332 C334 1.420 . S
C332 C336 1.423 . S
C332 C344 1.392 . S
C333 C335 1.420 . S
C333 C336 1.351 . S
C333 H356 0.931 . S
C334 C331 1.429 . S
C334 C332 1.420 . S
C334 N342 1.362 . S
C335 C331 1.411 . S
C335 C333 1.420 . S
C335 C340 1.395 . S
C336 C332 1.423 . S
C336 C333 1.351 . S
C336 H348 0.930 . S
C337 C339 1.400 . S
C337 C340 1.386 . S
C337 H349 0.930 . S
N338 C331 1.377 . S
N338 C339 1.321 . S
N338 Eu341 2.609 . S
C339 C337 1.400 . S
C339 N338 1.321 . S
C339 H346 0.930 . S
C340 C335 1.395 . S
C340 C337 1.386 . S
C340 H359 0.930 . S
Eu341 N338 2.609 . S
Eu341 N342 2.657 . S
Eu341 O375 2.380 1_556 S
Eu341 O376 2.460 . S
Eu341 O380 2.558 . S
Eu341 O381 2.633 . S
Eu341 O383 2.339 . S
Eu341 O384 2.563 . S
Eu341 O385 2.419 . S
Eu341 C405 2.848 . S
N342 C334 1.362 . S
N342 Eu341 2.657 . S
N342 C343 1.334 . S
C343 N342 1.334 . S
C343 C345 1.413 . S
C343 H350 0.929 . S
C344 C332 1.392 . S
C344 C345 1.367 . S
C344 H352 0.930 . S
C345 C343 1.413 . S
C345 C344 1.367 . S
C345 H347 0.930 . S
H346 C339 0.930 . S
H347 C345 0.930 . S
H348 C336 0.930 . S
H349 C337 0.930 . S
H350 C343 0.929 . S
H351 C365 0.930 . S
H352 C344 0.930 . S
H353 C371 0.930 . S
H354 C362 0.929 . S
H355 C369 0.930 . S
H356 C333 0.931 . S
H357 C363 0.930 . S
H358 C396 0.930 . S
H359 C340 0.930 . S
H360 C395 0.931 . S
N361 Eu330 2.657 . S
N361 C362 1.334 . S
N361 C366 1.362 . S
C362 H354 0.929 . S
C362 N361 1.334 . S
C362 C365 1.413 . S
C363 H357 0.930 . S
C363 C364 1.392 . S
C363 C365 1.367 . S
C364 C363 1.392 . S
C364 C366 1.420 . S
C364 C396 1.423 . S
C365 H351 0.930 . S
C365 C362 1.413 . S
C365 C363 1.367 . S
C366 N361 1.362 . S
C366 C364 1.420 . S
C366 C370 1.429 . S
H367 C372 0.930 . S
N368 Eu330 2.609 . S
N368 C370 1.377 . S
N368 C371 1.321 . S
C369 H355 0.930 . S
C369 C371 1.400 . S
C369 C372 1.386 . S
C370 C366 1.429 . S
C370 N368 1.377 . S
C370 C373 1.411 . S
C371 H353 0.930 . S
C371 N368 1.321 . S
C371 C369 1.400 . S
C372 H367 0.930 . S
C372 C369 1.386 . S
C372 C373 1.395 . S
C373 C370 1.411 . S
C373 C372 1.395 . S
C373 C395 1.420 . S
O374 Eu330 2.558 . S
O374 C394 1.257 . S
O375 Eu330 2.612 . S
O375 Eu341 2.380 1_554 S
O375 C386 1.276 . S
O376 Eu341 2.460 . S
O376 C393 1.215 1_556 S
O377 Eu330 2.339 . S
O377 C393 1.254 . S
O378 Eu330 2.563 . S
O378 C386 1.235 . S
O379 Eu330 2.419 . S
O379 C394 1.249 . S
O380 Eu341 2.558 . S
O380 C405 1.257 . S
O381 Eu330 2.344 1_556 S
O381 Eu341 2.633 . S
O381 C397 1.305 . S
O382 Eu330 2.432 . S
O382 C404 1.264 1_554 S
O383 Eu341 2.339 . S
O383 C404 1.254 . S
O384 Eu341 2.563 . S
O384 C397 1.235 . S
O385 Eu341 2.419 . S
O385 C405 1.249 . S
C386 O375 1.276 . S
C386 O378 1.235 . S
C387 C389 1.393 . S
C387 C391 1.395 . S
C387 C394 1.492 . S
C388 C389 1.392 . S
C388 C390 1.386 . S
C389 C387 1.393 . S
C389 C388 1.392 . S
C389 H406 0.930 . S
C390 C388 1.386 . S
C390 C392 1.395 . S
C390 H407 0.930 . S
C391 C387 1.395 . S
C391 C392 1.379 . S
C391 H408 0.930 . S
C392 C390 1.395 . S
C392 C391 1.379 . S
C392 H409 0.930 . S
C393 O376 1.215 1_554 S
C393 O377 1.254 . S
C394 Eu330 2.848 . S
C394 O374 1.257 . S
C394 O379 1.249 . S
C394 C387 1.492 . S
C395 H360 0.931 . S
C395 C373 1.420 . S
C395 C396 1.351 . S
C396 H358 0.930 . S
C396 C364 1.423 . S
C396 C395 1.351 . S
C397 O381 1.305 . S
C397 O384 1.235 . S
C398 C399 1.393 . S
C398 C402 1.395 . S
C398 C405 1.492 . S
C399 C398 1.393 . S
C399 C400 1.392 . S
C399 H410 0.930 . S
C400 C399 1.392 . S
C400 C401 1.386 . S
C401 C400 1.386 . S
C401 C403 1.395 . S
C401 H411 0.930 . S
C402 C398 1.395 . S
C402 C403 1.379 . S
C402 H412 0.930 . S
C403 C401 1.395 . S
C403 C402 1.379 . S
C403 H413 0.930 . S
C404 O382 1.264 1_556 S
C404 O383 1.254 . S
C405 Eu341 2.848 . S
C405 O380 1.257 . S
C405 O385 1.249 . S
C405 C398 1.492 . S
H406 C389 0.930 . S
H407 C390 0.930 . S
H408 C391 0.930 . S
H409 C392 0.930 . S
H410 C399 0.930 . S
H411 C401 0.930 . S
H412 C402 0.930 . S
H413 C403 0.930 . S
Eu414 N445 2.657 . S
Eu414 N452 2.609 . S
Eu414 O458 2.558 . S
Eu414 O459 2.612 . S
Eu414 O461 2.339 . S
Eu414 O462 2.563 . S
Eu414 O463 2.419 . S
Eu414 O465 2.380 . S
Eu414 O466 2.432 . S
Eu414 C478 2.848 . S
C415 C418 1.429 . S
C415 C419 1.411 . S
C415 N422 1.377 . S
C416 C418 1.420 . S
C416 C420 1.423 . S
C416 C428 1.392 . S
C417 C419 1.420 . S
C417 C420 1.351 . S
C417 H440 0.931 . S
C418 C415 1.429 . S
C418 C416 1.420 . S
C418 N426 1.362 . S
C419 C415 1.411 . S
C419 C417 1.420 . S
C419 C424 1.395 . S
C420 C416 1.423 . S
C420 C417 1.351 . S
C420 H432 0.930 . S
C421 C423 1.400 . S
C421 C424 1.386 . S
C421 H433 0.930 . S
N422 C415 1.377 . S
N422 C423 1.321 . S
N422 Eu425 2.609 . S
C423 C421 1.400 . S
C423 N422 1.321 . S
C423 H430 0.930 . S
C424 C419 1.395 . S
C424 C421 1.386 . S
C424 H443 0.930 . S
Eu425 N422 2.609 . S
Eu425 N426 2.657 . S
Eu425 O459 2.380 . S
Eu425 O460 2.432 . S
Eu425 O464 2.558 . S
Eu425 O465 2.612 . S
Eu425 O467 2.339 . S
Eu425 O468 2.563 . S
Eu425 O469 2.419 . S
Eu425 C489 2.848 . S
N426 C418 1.362 . S
N426 Eu425 2.657 . S
N426 C427 1.334 . S
C427 N426 1.334 . S
C427 C429 1.413 . S
C427 H434 0.929 . S
C428 C416 1.392 . S
C428 C429 1.367 . S
C428 H436 0.930 . S
C429 C427 1.413 . S
C429 C428 1.367 . S
C429 H431 0.930 . S
H430 C423 0.930 . S
H431 C429 0.930 . S
H432 C420 0.930 . S
H433 C421 0.930 . S
H434 C427 0.929 . S
H435 C449 0.930 . S
H436 C428 0.930 . S
H437 C455 0.930 . S
H438 C446 0.929 . S
H439 C453 0.930 . S
H440 C417 0.931 . S
H441 C447 0.930 . S
H442 C480 0.930 . S
H443 C424 0.930 . S
H444 C479 0.931 . S
N445 Eu414 2.657 . S
N445 C446 1.334 . S
N445 C450 1.362 . S
C446 H438 0.929 . S
C446 N445 1.334 . S
C446 C449 1.413 . S
C447 H441 0.930 . S
C447 C448 1.392 . S
C447 C449 1.367 . S
C448 C447 1.392 . S
C448 C450 1.420 . S
C448 C480 1.423 . S
C449 H435 0.930 . S
C449 C446 1.413 . S
C449 C447 1.367 . S
C450 N445 1.362 . S
C450 C448 1.420 . S
C450 C454 1.429 . S
H451 C456 0.930 . S
N452 Eu414 2.609 . S
N452 C454 1.377 . S
N452 C455 1.321 . S
C453 H439 0.930 . S
C453 C455 1.400 . S
C453 C456 1.386 . S
C454 C450 1.429 . S
C454 N452 1.377 . S
C454 C457 1.411 . S
C455 H437 0.930 . S
C455 N452 1.321 . S
C455 C453 1.400 . S
C456 H451 0.930 . S
C456 C453 1.386 . S
C456 C457 1.395 . S
C457 C454 1.411 . S
C457 C456 1.395 . S
C457 C479 1.420 . S
O458 Eu414 2.558 . S
O458 C478 1.257 . S
O459 Eu414 2.612 . S
O459 Eu425 2.380 . S
O459 C470 1.276 . S
O460 Eu425 2.432 . S
O460 C477 1.264 . S
O461 Eu414 2.339 . S
O461 C477 1.254 . S
O462 Eu414 2.563 . S
O462 C470 1.235 . S
O463 Eu414 2.419 . S
O463 C478 1.249 . S
O464 Eu425 2.558 . S
O464 C489 1.257 . S
O465 Eu414 2.380 . S
O465 Eu425 2.612 . S
O465 C481 1.276 . S
O466 Eu414 2.432 . S
O466 C488 1.264 . S
O467 Eu425 2.339 . S
O467 C488 1.254 . S
O468 Eu425 2.563 . S
O468 C481 1.235 . S
O469 Eu425 2.419 . S
O469 C489 1.249 . S
C470 O459 1.276 . S
C470 O462 1.235 . S
C471 C473 1.393 . S
C471 C475 1.395 . S
C471 C478 1.492 . S
C472 C473 1.392 . S
C472 C474 1.386 . S
C473 C471 1.393 . S
C473 C472 1.392 . S
C473 H490 0.930 . S
C474 C472 1.386 . S
C474 C476 1.395 . S
C474 H491 0.930 . S
C475 C471 1.395 . S
C475 C476 1.379 . S
C475 H492 0.930 . S
C476 C474 1.395 . S
C476 C475 1.379 . S
C476 H493 0.930 . S
C477 O460 1.264 . S
C477 O461 1.254 . S
C478 Eu414 2.848 . S
C478 O458 1.257 . S
C478 O463 1.249 . S
C478 C471 1.492 . S
C479 H444 0.931 . S
C479 C457 1.420 . S
C479 C480 1.351 . S
C480 H442 0.930 . S
C480 C448 1.423 . S
C480 C479 1.351 . S
C481 O465 1.276 . S
C481 O468 1.235 . S
C482 C483 1.393 . S
C482 C486 1.395 . S
C482 C489 1.492 . S
C483 C482 1.393 . S
C483 C484 1.392 . S
C483 H494 0.930 . S
C484 C483 1.392 . S
C484 C485 1.386 . S
C485 C484 1.386 . S
C485 C487 1.395 . S
C485 H495 0.930 . S
C486 C482 1.395 . S
C486 C487 1.379 . S
C486 H496 0.930 . S
C487 C485 1.395 . S
C487 C486 1.379 . S
C487 H497 0.930 . S
C488 O466 1.264 . S
C488 O467 1.254 . S
C489 Eu425 2.848 . S
C489 O464 1.257 . S
C489 O469 1.249 . S
C489 C482 1.492 . S
H490 C473 0.930 . S
H491 C474 0.930 . S
H492 C475 0.930 . S
H493 C476 0.930 . S
H494 C483 0.930 . S
H495 C485 0.930 . S
H496 C486 0.930 . S
H497 C487 0.930 . S
Eu498 N529 2.657 . S
Eu498 N536 2.609 . S
Eu498 O542 2.558 . S
Eu498 O543 2.612 . S
Eu498 O545 2.339 . S
Eu498 O546 2.563 . S
Eu498 O547 2.419 . S
Eu498 O549 2.380 . S
Eu498 O550 2.432 . S
Eu498 C562 2.848 . S
C499 C502 1.429 . S
C499 C503 1.411 . S
C499 N506 1.377 . S
C500 C502 1.420 . S
C500 C504 1.423 . S
C500 C512 1.392 . S
C501 C503 1.420 . S
C501 C504 1.351 . S
C501 H524 0.931 . S
C502 C499 1.429 . S
C502 C500 1.420 . S
C502 N510 1.362 . S
C503 C499 1.411 . S
C503 C501 1.420 . S
C503 C508 1.395 . S
C504 C500 1.423 . S
C504 C501 1.351 . S
C504 H516 0.930 . S
C505 C507 1.400 . S
C505 C508 1.386 . S
C505 H517 0.930 . S
N506 C499 1.377 . S
N506 C507 1.321 . S
N506 Eu509 2.609 . S
C507 C505 1.400 . S
C507 N506 1.321 . S
C507 H514 0.930 . S
C508 C503 1.395 . S
C508 C505 1.386 . S
C508 H527 0.930 . S
Eu509 N506 2.609 . S
Eu509 N510 2.657 . S
Eu509 O543 2.380 . S
Eu509 O544 2.432 . S
Eu509 O548 2.558 . S
Eu509 O549 2.612 . S
Eu509 O551 2.339 . S
Eu509 O552 2.563 . S
Eu509 O553 2.419 . S
Eu509 C573 2.848 . S
N510 C502 1.362 . S
N510 Eu509 2.657 . S
N510 C511 1.334 . S
C511 N510 1.334 . S
C511 C513 1.413 . S
C511 H518 0.929 . S
C512 C500 1.392 . S
C512 C513 1.367 . S
C512 H520 0.930 . S
C513 C511 1.413 . S
C513 C512 1.367 . S
C513 H515 0.930 . S
H514 C507 0.930 . S
H515 C513 0.930 . S
H516 C504 0.930 . S
H517 C505 0.930 . S
H518 C511 0.929 . S
H519 C533 0.930 . S
H520 C512 0.930 . S
H521 C539 0.930 . S
H522 C530 0.929 . S
H523 C537 0.930 . S
H524 C501 0.931 . S
H525 C531 0.930 . S
H526 C564 0.930 . S
H527 C508 0.930 . S
H528 C563 0.931 . S
N529 Eu498 2.657 . S
N529 C530 1.334 . S
N529 C534 1.362 . S
C530 H522 0.929 . S
C530 N529 1.334 . S
C530 C533 1.413 . S
C531 H525 0.930 . S
C531 C532 1.392 . S
C531 C533 1.367 . S
C532 C531 1.392 . S
C532 C534 1.420 . S
C532 C564 1.423 . S
C533 H519 0.930 . S
C533 C530 1.413 . S
C533 C531 1.367 . S
C534 N529 1.362 . S
C534 C532 1.420 . S
C534 C538 1.429 . S
H535 C540 0.930 . S
N536 Eu498 2.609 . S
N536 C538 1.377 . S
N536 C539 1.321 . S
C537 H523 0.930 . S
C537 C539 1.400 . S
C537 C540 1.386 . S
C538 C534 1.429 . S
C538 N536 1.377 . S
C538 C541 1.411 . S
C539 H521 0.930 . S
C539 N536 1.321 . S
C539 C537 1.400 . S
C540 H535 0.930 . S
C540 C537 1.386 . S
C540 C541 1.395 . S
C541 C538 1.411 . S
C541 C540 1.395 . S
C541 C563 1.420 . S
O542 Eu498 2.558 . S
O542 C562 1.257 . S
O543 Eu498 2.612 . S
O543 Eu509 2.380 . S
O543 C554 1.276 . S
O544 Eu509 2.432 . S
O544 C561 1.264 . S
O545 Eu498 2.339 . S
O545 C561 1.254 . S
O546 Eu498 2.563 . S
O546 C554 1.235 . S
O547 Eu498 2.419 . S
O547 C562 1.249 . S
O548 Eu509 2.558 . S
O548 C573 1.257 . S
O549 Eu498 2.380 . S
O549 Eu509 2.612 . S
O549 C565 1.276 . S
O550 Eu498 2.432 . S
O550 C572 1.264 . S
O551 Eu509 2.339 . S
O551 C572 1.254 . S
O552 Eu509 2.563 . S
O552 C565 1.235 . S
O553 Eu509 2.419 . S
O553 C573 1.249 . S
C554 O543 1.276 . S
C554 O546 1.235 . S
C555 C557 1.393 . S
C555 C559 1.395 . S
C555 C562 1.492 . S
C556 C557 1.392 . S
C556 C558 1.386 . S
C557 C555 1.393 . S
C557 C556 1.392 . S
C557 H574 0.930 . S
C558 C556 1.386 . S
C558 C560 1.395 . S
C558 H575 0.930 . S
C559 C555 1.395 . S
C559 C560 1.379 . S
C559 H576 0.930 . S
C560 C558 1.395 . S
C560 C559 1.379 . S
C560 H577 0.930 . S
C561 O544 1.264 . S
C561 O545 1.254 . S
C562 Eu498 2.848 . S
C562 O542 1.257 . S
C562 O547 1.249 . S
C562 C555 1.492 . S
C563 H528 0.931 . S
C563 C541 1.420 . S
C563 C564 1.351 . S
C564 H526 0.930 . S
C564 C532 1.423 . S
C564 C563 1.351 . S
C565 O549 1.276 . S
C565 O552 1.235 . S
C566 C567 1.393 . S
C566 C570 1.395 . S
C566 C573 1.492 . S
C567 C566 1.393 . S
C567 C568 1.392 . S
C567 H578 0.930 . S
C568 C567 1.392 . S
C568 C569 1.386 . S
C569 C568 1.386 . S
C569 C571 1.395 . S
C569 H579 0.930 . S
C570 C566 1.395 . S
C570 C571 1.379 . S
C570 H580 0.930 . S
C571 C569 1.395 . S
C571 C570 1.379 . S
C571 H581 0.930 . S
C572 O550 1.264 . S
C572 O551 1.254 . S
C573 Eu509 2.848 . S
C573 O548 1.257 . S
C573 O553 1.249 . S
C573 C566 1.492 . S
H574 C557 0.930 . S
H575 C558 0.930 . S
H576 C559 0.930 . S
H577 C560 0.930 . S
H578 C567 0.930 . S
H579 C569 0.930 . S
H580 C570 0.930 . S
H581 C571 0.930 . S
Eu582 N613 2.657 . S
Eu582 N620 2.609 . S
Eu582 O626 2.558 . S
Eu582 O627 2.612 . S
Eu582 O629 2.339 . S
Eu582 O630 2.563 . S
Eu582 O631 2.419 . S
Eu582 O633 2.380 . S
Eu582 O634 2.432 . S
Eu582 C646 2.848 . S
C583 C586 1.429 . S
C583 C587 1.411 . S
C583 N590 1.377 . S
C584 C586 1.420 . S
C584 C588 1.423 . S
C584 C596 1.392 . S
C585 C587 1.420 . S
C585 C588 1.351 . S
C585 H608 0.931 . S
C586 C583 1.429 . S
C586 C584 1.420 . S
C586 N594 1.362 . S
C587 C583 1.411 . S
C587 C585 1.420 . S
C587 C592 1.395 . S
C588 C584 1.423 . S
C588 C585 1.351 . S
C588 H600 0.930 . S
C589 C591 1.400 . S
C589 C592 1.386 . S
C589 H601 0.930 . S
N590 C583 1.377 . S
N590 C591 1.321 . S
N590 Eu593 2.609 . S
C591 C589 1.400 . S
C591 N590 1.321 . S
C591 H598 0.930 . S
C592 C587 1.395 . S
C592 C589 1.386 . S
C592 H611 0.930 . S
Eu593 N590 2.609 . S
Eu593 N594 2.657 . S
Eu593 O627 2.380 . S
Eu593 O628 2.432 . S
Eu593 O632 2.558 . S
Eu593 O633 2.612 . S
Eu593 O635 2.339 . S
Eu593 O636 2.563 . S
Eu593 O637 2.419 . S
Eu593 C657 2.848 . S
N594 C586 1.362 . S
N594 Eu593 2.657 . S
N594 C595 1.334 . S
C595 N594 1.334 . S
C595 C597 1.413 . S
C595 H602 0.929 . S
C596 C584 1.392 . S
C596 C597 1.367 . S
C596 H604 0.930 . S
C597 C595 1.413 . S
C597 C596 1.367 . S
C597 H599 0.930 . S
H598 C591 0.930 . S
H599 C597 0.930 . S
H600 C588 0.930 . S
H601 C589 0.930 . S
H602 C595 0.929 . S
H603 C617 0.930 . S
H604 C596 0.930 . S
H605 C623 0.930 . S
H606 C614 0.929 . S
H607 C621 0.930 . S
H608 C585 0.931 . S
H609 C615 0.930 . S
H610 C648 0.930 . S
H611 C592 0.930 . S
H612 C647 0.931 . S
N613 Eu582 2.657 . S
N613 C614 1.334 . S
N613 C618 1.362 . S
C614 H606 0.929 . S
C614 N613 1.334 . S
C614 C617 1.413 . S
C615 H609 0.930 . S
C615 C616 1.392 . S
C615 C617 1.367 . S
C616 C615 1.392 . S
C616 C618 1.420 . S
C616 C648 1.423 . S
C617 H603 0.930 . S
C617 C614 1.413 . S
C617 C615 1.367 . S
C618 N613 1.362 . S
C618 C616 1.420 . S
C618 C622 1.429 . S
H619 C624 0.930 . S
N620 Eu582 2.609 . S
N620 C622 1.377 . S
N620 C623 1.321 . S
C621 H607 0.930 . S
C621 C623 1.400 . S
C621 C624 1.386 . S
C622 C618 1.429 . S
C622 N620 1.377 . S
C622 C625 1.411 . S
C623 H605 0.930 . S
C623 N620 1.321 . S
C623 C621 1.400 . S
C624 H619 0.930 . S
C624 C621 1.386 . S
C624 C625 1.395 . S
C625 C622 1.411 . S
C625 C624 1.395 . S
C625 C647 1.420 . S
O626 Eu582 2.558 . S
O626 C646 1.257 . S
O627 Eu582 2.612 . S
O627 Eu593 2.380 . S
O627 C638 1.276 . S
O628 Eu593 2.432 . S
O628 C645 1.264 . S
O629 Eu582 2.339 . S
O629 C645 1.254 . S
O630 Eu582 2.563 . S
O630 C638 1.235 . S
O631 Eu582 2.419 . S
O631 C646 1.249 . S
O632 Eu593 2.558 . S
O632 C657 1.257 . S
O633 Eu582 2.380 . S
O633 Eu593 2.612 . S
O633 C649 1.276 . S
O634 Eu582 2.432 . S
O634 C656 1.264 . S
O635 Eu593 2.339 . S
O635 C656 1.254 . S
O636 Eu593 2.563 . S
O636 C649 1.235 . S
O637 Eu593 2.419 . S
O637 C657 1.249 . S
C638 O627 1.276 . S
C638 O630 1.235 . S
C639 C641 1.393 . S
C639 C643 1.395 . S
C639 C646 1.492 . S
C640 C641 1.392 . S
C640 C642 1.386 . S
C641 C639 1.393 . S
C641 C640 1.392 . S
C641 H658 0.930 . S
C642 C640 1.386 . S
C642 C644 1.395 . S
C642 H659 0.930 . S
C643 C639 1.395 . S
C643 C644 1.379 . S
C643 H660 0.930 . S
C644 C642 1.395 . S
C644 C643 1.379 . S
C644 H661 0.930 . S
C645 O628 1.264 . S
C645 O629 1.254 . S
C646 Eu582 2.848 . S
C646 O626 1.257 . S
C646 O631 1.249 . S
C646 C639 1.492 . S
C647 H612 0.931 . S
C647 C625 1.420 . S
C647 C648 1.351 . S
C648 H610 0.930 . S
C648 C616 1.423 . S
C648 C647 1.351 . S
C649 O633 1.276 . S
C649 O636 1.235 . S
C650 C651 1.393 . S
C650 C654 1.395 . S
C650 C657 1.492 . S
C651 C650 1.393 . S
C651 C652 1.392 . S
C651 H662 0.930 . S
C652 C651 1.392 . S
C652 C653 1.386 . S
C653 C652 1.386 . S
C653 C655 1.395 . S
C653 H663 0.930 . S
C654 C650 1.395 . S
C654 C655 1.379 . S
C654 H664 0.930 . S
C655 C653 1.395 . S
C655 C654 1.379 . S
C655 H665 0.930 . S
C656 O634 1.264 . S
C656 O635 1.254 . S
C657 Eu593 2.848 . S
C657 O632 1.257 . S
C657 O637 1.249 . S
C657 C650 1.492 . S
H658 C641 0.930 . S
H659 C642 0.930 . S
H660 C643 0.930 . S
H661 C644 0.930 . S
H662 C651 0.930 . S
H663 C653 0.930 . S
H664 C654 0.930 . S
H665 C655 0.930 . S
Eu666 N697 2.657 . S
Eu666 N704 2.609 . S
Eu666 O710 2.558 . S
Eu666 O711 2.612 . S
Eu666 O713 2.339 . S
Eu666 O714 2.563 . S
Eu666 O715 2.419 . S
Eu666 O717 2.380 . S
Eu666 O718 2.432 . S
Eu666 C730 2.848 . S
C667 C670 1.429 . S
C667 C671 1.411 . S
C667 N674 1.377 . S
C668 C670 1.420 . S
C668 C672 1.423 . S
C668 C680 1.392 . S
C669 C671 1.420 . S
C669 C672 1.351 . S
C669 H692 0.931 . S
C670 C667 1.429 . S
C670 C668 1.420 . S
C670 N678 1.362 . S
C671 C667 1.411 . S
C671 C669 1.420 . S
C671 C676 1.395 . S
C672 C668 1.423 . S
C672 C669 1.351 . S
C672 H684 0.930 . S
C673 C675 1.400 . S
C673 C676 1.386 . S
C673 H685 0.930 . S
N674 C667 1.377 . S
N674 C675 1.321 . S
N674 Eu677 2.609 . S
C675 C673 1.400 . S
C675 N674 1.321 . S
C675 H682 0.930 . S
C676 C671 1.395 . S
C676 C673 1.386 . S
C676 H695 0.930 . S
Eu677 N674 2.609 . S
Eu677 N678 2.657 . S
Eu677 O711 2.380 . S
Eu677 O712 2.432 . S
Eu677 O716 2.558 . S
Eu677 O717 2.612 . S
Eu677 O719 2.339 . S
Eu677 O720 2.563 . S
Eu677 O721 2.419 . S
Eu677 C741 2.848 . S
N678 C670 1.362 . S
N678 Eu677 2.657 . S
N678 C679 1.334 . S
C679 N678 1.334 . S
C679 C681 1.413 . S
C679 H686 0.929 . S
C680 C668 1.392 . S
C680 C681 1.367 . S
C680 H688 0.930 . S
C681 C679 1.413 . S
C681 C680 1.367 . S
C681 H683 0.930 . S
H682 C675 0.930 . S
H683 C681 0.930 . S
H684 C672 0.930 . S
H685 C673 0.930 . S
H686 C679 0.929 . S
H687 C701 0.930 . S
H688 C680 0.930 . S
H689 C707 0.930 . S
H690 C698 0.929 . S
H691 C705 0.930 . S
H692 C669 0.931 . S
H693 C699 0.930 . S
H694 C732 0.930 . S
H695 C676 0.930 . S
H696 C731 0.931 . S
N697 Eu666 2.657 . S
N697 C698 1.334 . S
N697 C702 1.362 . S
C698 H690 0.929 . S
C698 N697 1.334 . S
C698 C701 1.413 . S
C699 H693 0.930 . S
C699 C700 1.392 . S
C699 C701 1.367 . S
C700 C699 1.392 . S
C700 C702 1.420 . S
C700 C732 1.423 . S
C701 H687 0.930 . S
C701 C698 1.413 . S
C701 C699 1.367 . S
C702 N697 1.362 . S
C702 C700 1.420 . S
C702 C706 1.429 . S
H703 C708 0.930 . S
N704 Eu666 2.609 . S
N704 C706 1.377 . S
N704 C707 1.321 . S
C705 H691 0.930 . S
C705 C707 1.400 . S
C705 C708 1.386 . S
C706 C702 1.429 . S
C706 N704 1.377 . S
C706 C709 1.411 . S
C707 H689 0.930 . S
C707 N704 1.321 . S
C707 C705 1.400 . S
C708 H703 0.930 . S
C708 C705 1.386 . S
C708 C709 1.395 . S
C709 C706 1.411 . S
C709 C708 1.395 . S
C709 C731 1.420 . S
O710 Eu666 2.558 . S
O710 C730 1.257 . S
O711 Eu666 2.612 . S
O711 Eu677 2.380 . S
O711 C722 1.276 . S
O712 Eu677 2.432 . S
O712 C729 1.264 . S
O713 Eu666 2.339 . S
O713 C729 1.254 . S
O714 Eu666 2.563 . S
O714 C722 1.235 . S
O715 Eu666 2.419 . S
O715 C730 1.249 . S
O716 Eu677 2.558 . S
O716 C741 1.257 . S
O717 Eu666 2.380 . S
O717 Eu677 2.612 . S
O717 C733 1.276 . S
O718 Eu666 2.432 . S
O718 C740 1.264 . S
O719 Eu677 2.339 . S
O719 C740 1.254 . S
O720 Eu677 2.563 . S
O720 C733 1.235 . S
O721 Eu677 2.419 . S
O721 C741 1.249 . S
C722 O711 1.276 . S
C722 O714 1.235 . S
C723 C725 1.393 . S
C723 C727 1.395 . S
C723 C730 1.492 . S
C724 C725 1.392 . S
C724 C726 1.386 . S
C725 C723 1.393 . S
C725 C724 1.392 . S
C725 H742 0.930 . S
C726 C724 1.386 . S
C726 C728 1.395 . S
C726 H743 0.930 . S
C727 C723 1.395 . S
C727 C728 1.379 . S
C727 H744 0.930 . S
C728 C726 1.395 . S
C728 C727 1.379 . S
C728 H745 0.930 . S
C729 O712 1.264 . S
C729 O713 1.254 . S
C730 Eu666 2.848 . S
C730 O710 1.257 . S
C730 O715 1.249 . S
C730 C723 1.492 . S
C731 H696 0.931 . S
C731 C709 1.420 . S
C731 C732 1.351 . S
C732 H694 0.930 . S
C732 C700 1.423 . S
C732 C731 1.351 . S
C733 O717 1.276 . S
C733 O720 1.235 . S
C734 C735 1.393 . S
C734 C738 1.395 . S
C734 C741 1.492 . S
C735 C734 1.393 . S
C735 C736 1.392 . S
C735 H746 0.930 . S
C736 C735 1.392 . S
C736 C737 1.386 . S
C737 C736 1.386 . S
C737 C739 1.395 . S
C737 H747 0.930 . S
C738 C734 1.395 . S
C738 C739 1.379 . S
C738 H748 0.930 . S
C739 C737 1.395 . S
C739 C738 1.379 . S
C739 H749 0.930 . S
C740 O718 1.264 . S
C740 O719 1.254 . S
C741 Eu677 2.848 . S
C741 O716 1.257 . S
C741 O721 1.249 . S
C741 C734 1.492 . S
H742 C725 0.930 . S
H743 C726 0.930 . S
H744 C727 0.930 . S
H745 C728 0.930 . S
H746 C735 0.930 . S
H747 C737 0.930 . S
H748 C738 0.930 . S
H749 C739 0.930 . S
Eu750 N781 2.657 . S
Eu750 N788 2.609 . S
Eu750 O794 2.558 . S
Eu750 O795 2.612 . S
Eu750 O797 2.339 . S
Eu750 O798 2.563 . S
Eu750 O799 2.419 . S
Eu750 O801 2.380 . S
Eu750 O802 2.432 . S
Eu750 C814 2.848 . S
C751 C754 1.429 . S
C751 C755 1.411 . S
C751 N758 1.377 . S
C752 C754 1.420 . S
C752 C756 1.423 . S
C752 C764 1.392 . S
C753 C755 1.420 . S
C753 C756 1.351 . S
C753 H776 0.931 . S
C754 C751 1.429 . S
C754 C752 1.420 . S
C754 N762 1.362 . S
C755 C751 1.411 . S
C755 C753 1.420 . S
C755 C760 1.395 . S
C756 C752 1.423 . S
C756 C753 1.351 . S
C756 H768 0.930 . S
C757 C759 1.400 . S
C757 C760 1.386 . S
C757 H769 0.930 . S
N758 C751 1.377 . S
N758 C759 1.321 . S
N758 Eu761 2.609 . S
C759 C757 1.400 . S
C759 N758 1.321 . S
C759 H766 0.930 . S
C760 C755 1.395 . S
C760 C757 1.386 . S
C760 H779 0.930 . S
Eu761 N758 2.609 . S
Eu761 N762 2.657 . S
Eu761 O795 2.380 . S
Eu761 O796 2.432 . S
Eu761 O800 2.558 . S
Eu761 O801 2.612 . S
Eu761 O803 2.339 . S
Eu761 O804 2.563 . S
Eu761 O805 2.419 . S
Eu761 C825 2.848 . S
N762 C754 1.362 . S
N762 Eu761 2.657 . S
N762 C763 1.334 . S
C763 N762 1.334 . S
C763 C765 1.413 . S
C763 H770 0.929 . S
C764 C752 1.392 . S
C764 C765 1.367 . S
C764 H772 0.930 . S
C765 C763 1.413 . S
C765 C764 1.367 . S
C765 H767 0.930 . S
H766 C759 0.930 . S
H767 C765 0.930 . S
H768 C756 0.930 . S
H769 C757 0.930 . S
H770 C763 0.929 . S
H771 C785 0.930 . S
H772 C764 0.930 . S
H773 C791 0.930 . S
H774 C782 0.929 . S
H775 C789 0.930 . S
H776 C753 0.931 . S
H777 C783 0.930 . S
H778 C816 0.930 . S
H779 C760 0.930 . S
H780 C815 0.931 . S
N781 Eu750 2.657 . S
N781 C782 1.334 . S
N781 C786 1.362 . S
C782 H774 0.929 . S
C782 N781 1.334 . S
C782 C785 1.413 . S
C783 H777 0.930 . S
C783 C784 1.392 . S
C783 C785 1.367 . S
C784 C783 1.392 . S
C784 C786 1.420 . S
C784 C816 1.423 . S
C785 H771 0.930 . S
C785 C782 1.413 . S
C785 C783 1.367 . S
C786 N781 1.362 . S
C786 C784 1.420 . S
C786 C790 1.429 . S
H787 C792 0.930 . S
N788 Eu750 2.609 . S
N788 C790 1.377 . S
N788 C791 1.321 . S
C789 H775 0.930 . S
C789 C791 1.400 . S
C789 C792 1.386 . S
C790 C786 1.429 . S
C790 N788 1.377 . S
C790 C793 1.411 . S
C791 H773 0.930 . S
C791 N788 1.321 . S
C791 C789 1.400 . S
C792 H787 0.930 . S
C792 C789 1.386 . S
C792 C793 1.395 . S
C793 C790 1.411 . S
C793 C792 1.395 . S
C793 C815 1.420 . S
O794 Eu750 2.558 . S
O794 C814 1.257 . S
O795 Eu750 2.612 . S
O795 Eu761 2.380 . S
O795 C806 1.276 . S
O796 Eu761 2.432 . S
O796 C813 1.264 . S
O797 Eu750 2.339 . S
O797 C813 1.254 . S
O798 Eu750 2.563 . S
O798 C806 1.235 . S
O799 Eu750 2.419 . S
O799 C814 1.249 . S
O800 Eu761 2.558 . S
O800 C825 1.257 . S
O801 Eu750 2.380 . S
O801 Eu761 2.612 . S
O801 C817 1.276 . S
O802 Eu750 2.432 . S
O802 C824 1.264 . S
O803 Eu761 2.339 . S
O803 C824 1.254 . S
O804 Eu761 2.563 . S
O804 C817 1.235 . S
O805 Eu761 2.419 . S
O805 C825 1.249 . S
C806 O795 1.276 . S
C806 O798 1.235 . S
C807 C809 1.393 . S
C807 C811 1.395 . S
C807 C814 1.492 . S
C808 C809 1.392 . S
C808 C810 1.386 . S
C809 C807 1.393 . S
C809 C808 1.392 . S
C809 H826 0.930 . S
C810 C808 1.386 . S
C810 C812 1.395 . S
C810 H827 0.930 . S
C811 C807 1.395 . S
C811 C812 1.379 . S
C811 H828 0.930 . S
C812 C810 1.395 . S
C812 C811 1.379 . S
C812 H829 0.930 . S
C813 O796 1.264 . S
C813 O797 1.254 . S
C814 Eu750 2.848 . S
C814 O794 1.257 . S
C814 O799 1.249 . S
C814 C807 1.492 . S
C815 H780 0.931 . S
C815 C793 1.420 . S
C815 C816 1.351 . S
C816 H778 0.930 . S
C816 C784 1.423 . S
C816 C815 1.351 . S
C817 O801 1.276 . S
C817 O804 1.235 . S
C818 C819 1.393 . S
C818 C822 1.395 . S
C818 C825 1.492 . S
C819 C818 1.393 . S
C819 C820 1.392 . S
C819 H830 0.930 . S
C820 C819 1.392 . S
C820 C821 1.386 . S
C821 C820 1.386 . S
C821 C823 1.395 . S
C821 H831 0.930 . S
C822 C818 1.395 . S
C822 C823 1.379 . S
C822 H832 0.930 . S
C823 C821 1.395 . S
C823 C822 1.379 . S
C823 H833 0.930 . S
C824 O802 1.264 . S
C824 O803 1.254 . S
C825 Eu761 2.848 . S
C825 O800 1.257 . S
C825 O805 1.249 . S
C825 C818 1.492 . S
H826 C809 0.930 . S
H827 C810 0.930 . S
H828 C811 0.930 . S
H829 C812 0.930 . S
H830 C819 0.930 . S
H831 C821 0.930 . S
H832 C822 0.930 . S
H833 C823 0.930 . S
Eu834 N865 2.657 . S
Eu834 N872 2.609 . S
Eu834 O878 2.558 . S
Eu834 O879 2.612 . S
Eu834 O881 2.339 . S
Eu834 O882 2.563 . S
Eu834 O883 2.419 . S
Eu834 O885 2.380 . S
Eu834 O886 2.432 . S
Eu834 C898 2.848 . S
C835 C838 1.429 . S
C835 C839 1.411 . S
C835 N842 1.377 . S
C836 C838 1.420 . S
C836 C840 1.423 . S
C836 C848 1.392 . S
C837 C839 1.420 . S
C837 C840 1.351 . S
C837 H860 0.931 . S
C838 C835 1.429 . S
C838 C836 1.420 . S
C838 N846 1.362 . S
C839 C835 1.411 . S
C839 C837 1.420 . S
C839 C844 1.395 . S
C840 C836 1.423 . S
C840 C837 1.351 . S
C840 H852 0.930 . S
C841 C843 1.400 . S
C841 C844 1.386 . S
C841 H853 0.930 . S
N842 C835 1.377 . S
N842 C843 1.321 . S
N842 Eu845 2.609 . S
C843 C841 1.400 . S
C843 N842 1.321 . S
C843 H850 0.930 . S
C844 C839 1.395 . S
C844 C841 1.386 . S
C844 H863 0.930 . S
Eu845 N842 2.609 . S
Eu845 N846 2.657 . S
Eu845 O879 2.380 . S
Eu845 O880 2.432 . S
Eu845 O884 2.558 . S
Eu845 O885 2.612 . S
Eu845 O887 2.339 . S
Eu845 O888 2.563 . S
Eu845 O889 2.419 . S
Eu845 C909 2.848 . S
N846 C838 1.362 . S
N846 Eu845 2.657 . S
N846 C847 1.334 . S
C847 N846 1.334 . S
C847 C849 1.413 . S
C847 H854 0.929 . S
C848 C836 1.392 . S
C848 C849 1.367 . S
C848 H856 0.930 . S
C849 C847 1.413 . S
C849 C848 1.367 . S
C849 H851 0.930 . S
H850 C843 0.930 . S
H851 C849 0.930 . S
H852 C840 0.930 . S
H853 C841 0.930 . S
H854 C847 0.929 . S
H855 C869 0.930 . S
H856 C848 0.930 . S
H857 C875 0.930 . S
H858 C866 0.929 . S
H859 C873 0.930 . S
H860 C837 0.931 . S
H861 C867 0.930 . S
H862 C900 0.930 . S
H863 C844 0.930 . S
H864 C899 0.931 . S
N865 Eu834 2.657 . S
N865 C866 1.334 . S
N865 C870 1.362 . S
C866 H858 0.929 . S
C866 N865 1.334 . S
C866 C869 1.413 . S
C867 H861 0.930 . S
C867 C868 1.392 . S
C867 C869 1.367 . S
C868 C867 1.392 . S
C868 C870 1.420 . S
C868 C900 1.423 . S
C869 H855 0.930 . S
C869 C866 1.413 . S
C869 C867 1.367 . S
C870 N865 1.362 . S
C870 C868 1.420 . S
C870 C874 1.429 . S
H871 C876 0.930 . S
N872 Eu834 2.609 . S
N872 C874 1.377 . S
N872 C875 1.321 . S
C873 H859 0.930 . S
C873 C875 1.400 . S
C873 C876 1.386 . S
C874 C870 1.429 . S
C874 N872 1.377 . S
C874 C877 1.411 . S
C875 H857 0.930 . S
C875 N872 1.321 . S
C875 C873 1.400 . S
C876 H871 0.930 . S
C876 C873 1.386 . S
C876 C877 1.395 . S
C877 C874 1.411 . S
C877 C876 1.395 . S
C877 C899 1.420 . S
O878 Eu834 2.558 . S
O878 C898 1.257 . S
O879 Eu834 2.612 . S
O879 Eu845 2.380 . S
O879 C890 1.276 . S
O880 Eu845 2.432 . S
O880 C897 1.264 . S
O881 Eu834 2.339 . S
O881 C897 1.254 . S
O882 Eu834 2.563 . S
O882 C890 1.235 . S
O883 Eu834 2.419 . S
O883 C898 1.249 . S
O884 Eu845 2.558 . S
O884 C909 1.257 . S
O885 Eu834 2.380 . S
O885 Eu845 2.612 . S
O885 C901 1.276 . S
O886 Eu834 2.432 . S
O886 C908 1.264 . S
O887 Eu845 2.339 . S
O887 C908 1.254 . S
O888 Eu845 2.563 . S
O888 C901 1.235 . S
O889 Eu845 2.419 . S
O889 C909 1.249 . S
C890 O879 1.276 . S
C890 O882 1.235 . S
C891 C893 1.393 . S
C891 C895 1.395 . S
C891 C898 1.492 . S
C892 C893 1.392 . S
C892 C894 1.386 . S
C893 C891 1.393 . S
C893 C892 1.392 . S
C893 H910 0.930 . S
C894 C892 1.386 . S
C894 C896 1.395 . S
C894 H911 0.930 . S
C895 C891 1.395 . S
C895 C896 1.379 . S
C895 H912 0.930 . S
C896 C894 1.395 . S
C896 C895 1.379 . S
C896 H913 0.930 . S
C897 O880 1.264 . S
C897 O881 1.254 . S
C898 Eu834 2.848 . S
C898 O878 1.257 . S
C898 O883 1.249 . S
C898 C891 1.492 . S
C899 H864 0.931 . S
C899 C877 1.420 . S
C899 C900 1.351 . S
C900 H862 0.930 . S
C900 C868 1.423 . S
C900 C899 1.351 . S
C901 O885 1.276 . S
C901 O888 1.235 . S
C902 C903 1.393 . S
C902 C906 1.395 . S
C902 C909 1.492 . S
C903 C902 1.393 . S
C903 C904 1.392 . S
C903 H914 0.930 . S
C904 C903 1.392 . S
C904 C905 1.386 . S
C905 C904 1.386 . S
C905 C907 1.395 . S
C905 H915 0.930 . S
C906 C902 1.395 . S
C906 C907 1.379 . S
C906 H916 0.930 . S
C907 C905 1.395 . S
C907 C906 1.379 . S
C907 H917 0.930 . S
C908 O886 1.264 . S
C908 O887 1.254 . S
C909 Eu845 2.848 . S
C909 O884 1.257 . S
C909 O889 1.249 . S
C909 C902 1.492 . S
H910 C893 0.930 . S
H911 C894 0.930 . S
H912 C895 0.930 . S
H913 C896 0.930 . S
H914 C903 0.930 . S
H915 C905 0.930 . S
H916 C906 0.930 . S
H917 C907 0.930 . S
H918 C926 0.950 . S
H919 C931 0.950 . S
H920 C928 0.950 . S
H921 C930 0.950 . S
H922 C932 0.950 . S
H923 C934 0.950 . S
H924 C936 0.950 . S
H925 C937 0.950 . S
C926 H918 0.950 . S
C926 C927 1.386 . S
C926 C928 1.391 . S
C927 C926 1.386 . S
C927 C931 1.393 . S
C928 H920 0.950 . S
C928 C926 1.391 . S
C928 C929 1.400 . S
C929 C928 1.400 . S
C929 C930 1.398 . S
C929 C935 1.491 . S
C930 H921 0.950 . S
C930 C929 1.398 . S
C930 C931 1.391 . S
C931 H919 0.950 . S
C931 C927 1.393 . S
C931 C930 1.391 . S
C932 H922 0.950 . S
C932 C933 1.386 . S
C932 C934 1.391 . S
C933 C932 1.386 . S
C933 C937 1.393 . S
C934 H923 0.950 . S
C934 C932 1.391 . S
C934 C935 1.400 . S
C935 C929 1.491 . S
C935 C934 1.400 . S
C935 C936 1.398 . S
C936 H924 0.950 . S
C936 C935 1.398 . S
C936 C937 1.391 . S
C937 H925 0.950 . S
C937 C933 1.393 . S
C937 C936 1.391 . S
H938 C946 0.950 . S
H939 C951 0.950 . S
H940 C948 0.950 . S
H941 C950 0.950 . S
H942 C952 0.950 . S
H943 C954 0.950 . S
H944 C956 0.950 . S
H945 C957 0.950 . S
C946 H938 0.950 . S
C946 C947 1.386 . S
C946 C948 1.391 . S
C947 C946 1.386 . S
C947 C951 1.393 . S
C948 H940 0.950 . S
C948 C946 1.391 . S
C948 C949 1.400 . S
C949 C948 1.400 . S
C949 C950 1.398 . S
C949 C955 1.491 . S
C950 H941 0.950 . S
C950 C949 1.398 . S
C950 C951 1.391 . S
C951 H939 0.950 . S
C951 C947 1.393 . S
C951 C950 1.391 . S
C952 H942 0.950 . S
C952 C953 1.386 . S
C952 C954 1.391 . S
C953 C952 1.386 . S
C953 C957 1.393 . S
C954 H943 0.950 . S
C954 C952 1.391 . S
C954 C955 1.400 . S
C955 C949 1.491 . S
C955 C954 1.400 . S
C955 C956 1.398 . S
C956 H944 0.950 . S
C956 C955 1.398 . S
C956 C957 1.391 . S
C957 H945 0.950 . S
C957 C953 1.393 . S
C957 C956 1.391 . S
H958 C966 0.950 . S
H959 C971 0.950 . S
H960 C968 0.950 . S
H961 C970 0.950 . S
H962 C972 0.950 . S
H963 C974 0.950 . S
H964 C976 0.950 . S
H965 C977 0.950 . S
C966 H958 0.950 . S
C966 C967 1.386 . S
C966 C968 1.391 . S
C967 C966 1.386 . S
C967 C971 1.393 . S
C968 H960 0.950 . S
C968 C966 1.391 . S
C968 C969 1.400 . S
C969 C968 1.400 . S
C969 C970 1.398 . S
C969 C975 1.491 . S
C970 H961 0.950 . S
C970 C969 1.398 . S
C970 C971 1.391 . S
C971 H959 0.950 . S
C971 C967 1.393 . S
C971 C970 1.391 . S
C972 H962 0.950 . S
C972 C973 1.386 . S
C972 C974 1.391 . S
C973 C972 1.386 . S
C973 C977 1.393 . S
C974 H963 0.950 . S
C974 C972 1.391 . S
C974 C975 1.400 . S
C975 C969 1.491 . S
C975 C974 1.400 . S
C975 C976 1.398 . S
C976 H964 0.950 . S
C976 C975 1.398 . S
C976 C977 1.391 . S
C977 H965 0.950 . S
C977 C973 1.393 . S
C977 C976 1.391 . S
H978 C986 0.950 . S
H979 C991 0.950 . S
H980 C988 0.950 . S
H981 C990 0.950 . S
H982 C992 0.950 1_554 S
H983 C994 0.950 . S
H984 C996 0.950 . S
H985 C997 0.950 . S
C986 H978 0.950 . S
C986 C987 1.386 . S
C986 C988 1.391 . S
C987 C986 1.386 . S
C987 C991 1.393 . S
C988 H980 0.950 . S
C988 C986 1.391 . S
C988 C989 1.400 . S
C989 C988 1.400 . S
C989 C990 1.398 . S
C989 C995 1.491 . S
C990 H981 0.950 . S
C990 C989 1.398 . S
C990 C991 1.391 . S
C991 H979 0.950 . S
C991 C987 1.393 . S
C991 C990 1.391 . S
C992 H982 0.950 1_556 S
C992 C993 1.386 . S
C992 C994 1.391 . S
C993 C992 1.386 . S
C993 C997 1.393 . S
C994 H983 0.950 . S
C994 C992 1.391 . S
C994 C995 1.400 . S
C995 C989 1.491 . S
C995 C994 1.400 . S
C995 C996 1.398 . S
C996 H984 0.950 . S
C996 C995 1.398 . S
C996 C997 1.391 . S
C997 H985 0.950 . S
C997 C993 1.393 . S
C997 C996 1.391 . S
H998 C1006 0.950 . S
H999 C1011 0.950 . S
H1000 C1008 0.950 . S
H1001 C1010 0.950 . S
H1002 C1012 0.953 1_554 S
H1003 C1014 0.950 . S
H1004 C1016 0.950 . S
H1005 C1017 0.950 . S
C1006 H998 0.950 . S
C1006 C1007 1.386 . S
C1006 C1008 1.391 . S
C1007 C1006 1.386 . S
C1007 C1011 1.393 . S
C1008 H1000 0.950 . S
C1008 C1006 1.391 . S
C1008 C1009 1.400 . S
C1009 C1008 1.400 . S
C1009 C1010 1.398 . S
C1009 C1015 1.491 . S
C1010 H1001 0.950 . S
C1010 C1009 1.398 . S
C1010 C1011 1.391 . S
C1011 H999 0.950 . S
C1011 C1007 1.393 . S
C1011 C1010 1.391 . S
C1012 H1002 0.953 1_556 S
C1012 C1013 1.386 . S
C1012 C1014 1.391 . S
C1013 C1012 1.386 . S
C1013 C1017 1.393 . S
C1014 H1003 0.950 . S
C1014 C1012 1.391 . S
C1014 C1015 1.400 . S
C1015 C1009 1.491 . S
C1015 C1014 1.400 . S
C1015 C1016 1.398 . S
C1016 H1004 0.950 . S
C1016 C1015 1.398 . S
C1016 C1017 1.391 . S
C1017 H1005 0.950 . S
C1017 C1013 1.393 . S
C1017 C1016 1.391 . S
H1018 C1026 0.950 . S
H1019 C1031 0.950 . S
H1020 C1028 0.950 . S
H1021 C1030 0.950 . S
H1022 C1032 0.950 . S
H1023 C1034 0.950 . S
H1024 C1036 0.950 . S
H1025 C1037 0.950 1_554 S
C1026 H1018 0.950 . S
C1026 C1027 1.386 . S
C1026 C1028 1.391 . S
C1027 C1026 1.386 . S
C1027 C1031 1.393 . S
C1028 H1020 0.950 . S
C1028 C1026 1.391 . S
C1028 C1029 1.400 . S
C1029 C1028 1.400 . S
C1029 C1030 1.398 . S
C1029 C1035 1.491 . S
C1030 H1021 0.950 . S
C1030 C1029 1.398 . S
C1030 C1031 1.391 . S
C1031 H1019 0.950 . S
C1031 C1027 1.393 . S
C1031 C1030 1.391 . S
C1032 H1022 0.950 . S
C1032 C1033 1.386 . S
C1032 C1034 1.391 . S
C1033 C1032 1.386 . S
C1033 C1037 1.393 . S
C1034 H1023 0.950 . S
C1034 C1032 1.391 . S
C1034 C1035 1.400 . S
C1035 C1029 1.491 . S
C1035 C1034 1.400 . S
C1035 C1036 1.398 . S
C1036 H1024 0.950 . S
C1036 C1035 1.398 . S
C1036 C1037 1.391 . S
C1037 H1025 0.950 1_556 S
C1037 C1033 1.393 . S
C1037 C1036 1.391 . S
H1038 C1046 0.950 . S
H1039 C1051 0.950 . S
H1040 C1048 0.950 . S
H1041 C1050 0.950 . S
H1042 C1052 0.950 . S
H1043 C1054 0.950 . S
H1044 C1056 0.950 . S
H1045 C1057 0.950 . S
C1046 H1038 0.950 . S
C1046 C1047 1.386 . S
C1046 C1048 1.391 . S
C1047 C1046 1.386 . S
C1047 C1051 1.393 . S
C1048 H1040 0.950 . S
C1048 C1046 1.391 . S
C1048 C1049 1.400 . S
C1049 C1048 1.400 . S
C1049 C1050 1.398 . S
C1049 C1055 1.491 . S
C1050 H1041 0.950 . S
C1050 C1049 1.398 . S
C1050 C1051 1.391 . S
C1051 H1039 0.950 . S
C1051 C1047 1.393 . S
C1051 C1050 1.391 . S
C1052 H1042 0.950 . S
C1052 C1053 1.386 . S
C1052 C1054 1.391 . S
C1053 C1052 1.386 . S
C1053 C1057 1.393 . S
C1054 H1043 0.950 . S
C1054 C1052 1.391 . S
C1054 C1055 1.400 . S
C1055 C1049 1.491 . S
C1055 C1054 1.400 . S
C1055 C1056 1.398 . S
C1056 H1044 0.950 . S
C1056 C1055 1.398 . S
C1056 C1057 1.391 . S
C1057 H1045 0.950 . S
C1057 C1053 1.393 . S
C1057 C1056 1.391 . S
H1058 C1066 0.950 . S
H1059 C1071 0.950 . S
H1060 C1068 0.950 . S
H1061 C1070 0.950 . S
H1062 C1072 0.950 . S
H1063 C1074 0.950 . S
H1064 C1076 0.950 . S
H1065 C1077 0.950 1_554 S
C1066 H1058 0.950 . S
C1066 C1067 1.386 . S
C1066 C1068 1.391 . S
C1067 C1066 1.386 . S
C1067 C1071 1.393 . S
C1068 H1060 0.950 . S
C1068 C1066 1.391 . S
C1068 C1069 1.400 . S
C1069 C1068 1.400 . S
C1069 C1070 1.398 . S
C1069 C1075 1.491 . S
C1070 H1061 0.950 . S
C1070 C1069 1.398 . S
C1070 C1071 1.391 . S
C1071 H1059 0.950 . S
C1071 C1067 1.393 . S
C1071 C1070 1.391 . S
C1072 H1062 0.950 . S
C1072 C1073 1.386 . S
C1072 C1074 1.391 . S
C1073 C1072 1.386 . S
C1073 C1077 1.393 . S
C1074 H1063 0.950 . S
C1074 C1072 1.391 . S
C1074 C1075 1.400 . S
C1075 C1069 1.491 . S
C1075 C1074 1.400 . S
C1075 C1076 1.398 . S
C1076 H1064 0.950 . S
C1076 C1075 1.398 . S
C1076 C1077 1.391 . S
C1077 H1065 0.950 1_556 S
C1077 C1073 1.393 . S
C1077 C1076 1.391 . S
H1078 C1086 0.950 . S
H1079 C1091 0.950 . S
H1080 C1088 0.950 . S
H1081 C1090 0.950 . S
H1082 C1092 0.950 . S
H1083 C1094 0.950 . S
H1084 C1096 0.950 . S
H1085 C1097 0.950 1_554 S
C1086 H1078 0.950 . S
C1086 C1087 1.386 . S
C1086 C1088 1.391 . S
C1087 C1086 1.386 . S
C1087 C1091 1.393 . S
C1088 H1080 0.950 . S
C1088 C1086 1.391 . S
C1088 C1089 1.400 . S
C1089 C1088 1.400 . S
C1089 C1090 1.398 . S
C1089 C1095 1.491 . S
C1090 H1081 0.950 . S
C1090 C1089 1.398 . S
C1090 C1091 1.391 . S
C1091 H1079 0.950 . S
C1091 C1087 1.393 . S
C1091 C1090 1.391 . S
C1092 H1082 0.950 . S
C1092 C1093 1.386 . S
C1092 C1094 1.391 . S
C1093 C1092 1.386 . S
C1093 C1097 1.393 . S
C1094 H1083 0.950 . S
C1094 C1092 1.391 . S
C1094 C1095 1.400 . S
C1095 C1089 1.491 . S
C1095 C1094 1.400 . S
C1095 C1096 1.398 . S
C1096 H1084 0.950 . S
C1096 C1095 1.398 . S
C1096 C1097 1.391 . S
C1097 H1085 0.950 1_556 S
C1097 C1093 1.393 . S
C1097 C1096 1.391 . S
H1098 C1106 0.950 . S
H1099 C1111 0.950 . S
H1100 C1108 0.950 . S
H1101 C1110 0.950 . S
H1102 C1112 0.950 . S
H1103 C1114 0.950 . S
H1104 C1116 0.950 . S
H1105 C1117 0.950 . S
C1106 H1098 0.950 . S
C1106 C1107 1.386 . S
C1106 C1108 1.391 . S
C1107 C1106 1.386 . S
C1107 C1111 1.393 . S
C1108 H1100 0.950 . S
C1108 C1106 1.391 . S
C1108 C1109 1.400 . S
C1109 C1108 1.400 . S
C1109 C1110 1.398 . S
C1109 C1115 1.491 . S
C1110 H1101 0.950 . S
C1110 C1109 1.398 . S
C1110 C1111 1.391 . S
C1111 H1099 0.950 . S
C1111 C1107 1.393 . S
C1111 C1110 1.391 . S
C1112 H1102 0.950 . S
C1112 C1113 1.386 . S
C1112 C1114 1.391 . S
C1113 C1112 1.386 . S
C1113 C1117 1.393 . S
C1114 H1103 0.950 . S
C1114 C1112 1.391 . S
C1114 C1115 1.400 . S
C1115 C1109 1.491 . S
C1115 C1114 1.400 . S
C1115 C1116 1.398 . S
C1116 H1104 0.950 . S
C1116 C1115 1.398 . S
C1116 C1117 1.391 . S
C1117 H1105 0.950 . S
C1117 C1113 1.393 . S
C1117 C1116 1.391 . S
H1118 C1126 0.950 . S
H1119 C1131 0.950 . S
H1120 C1128 0.950 . S
H1121 C1130 0.950 . S
H1122 C1132 0.950 . S
H1123 C1134 0.950 . S
H1124 C1136 0.950 . S
H1125 C1137 0.950 . S
C1126 H1118 0.950 . S
C1126 C1127 1.386 . S
C1126 C1128 1.391 . S
C1127 C1126 1.386 . S
C1127 C1131 1.393 . S
C1128 H1120 0.950 . S
C1128 C1126 1.391 . S
C1128 C1129 1.400 . S
C1129 C1128 1.400 . S
C1129 C1130 1.398 . S
C1129 C1135 1.491 . S
C1130 H1121 0.950 . S
C1130 C1129 1.398 . S
C1130 C1131 1.391 . S
C1131 H1119 0.950 . S
C1131 C1127 1.393 . S
C1131 C1130 1.391 . S
C1132 H1122 0.950 . S
C1132 C1133 1.386 . S
C1132 C1134 1.391 . S
C1133 C1132 1.386 . S
C1133 C1137 1.393 . S
C1134 H1123 0.950 . S
C1134 C1132 1.391 . S
C1134 C1135 1.400 . S
C1135 C1129 1.491 . S
C1135 C1134 1.400 . S
C1135 C1136 1.398 . S
C1136 H1124 0.950 . S
C1136 C1135 1.398 . S
C1136 C1137 1.391 . S
C1137 H1125 0.950 . S
C1137 C1133 1.393 . S
C1137 C1136 1.391 . S
H1138 C1146 0.950 . S
H1139 C1151 0.950 . S
H1140 C1148 0.950 . S
H1141 C1150 0.950 . S
H1142 C1152 0.950 . S
H1143 C1154 0.950 . S
H1144 C1156 0.950 . S
H1145 C1157 0.950 . S
C1146 H1138 0.950 . S
C1146 C1147 1.386 . S
C1146 C1148 1.391 . S
C1147 C1146 1.386 . S
C1147 C1151 1.393 . S
C1148 H1140 0.950 . S
C1148 C1146 1.391 . S
C1148 C1149 1.400 . S
C1149 C1148 1.400 . S
C1149 C1150 1.398 . S
C1149 C1155 1.491 . S
C1150 H1141 0.950 . S
C1150 C1149 1.398 . S
C1150 C1151 1.391 . S
C1151 H1139 0.950 . S
C1151 C1147 1.393 . S
C1151 C1150 1.391 . S
C1152 H1142 0.950 . S
C1152 C1153 1.386 . S
C1152 C1154 1.391 . S
C1153 C1152 1.386 . S
C1153 C1157 1.393 . S
C1154 H1143 0.950 . S
C1154 C1152 1.391 . S
C1154 C1155 1.400 . S
C1155 C1149 1.491 . S
C1155 C1154 1.400 . S
C1155 C1156 1.398 . S
C1156 H1144 0.950 . S
C1156 C1155 1.398 . S
C1156 C1157 1.391 . S
C1157 H1145 0.950 . S
C1157 C1153 1.393 . S
C1157 C1156 1.391 . S
H1158 C1166 0.950 . S
H1159 C1171 0.950 . S
H1160 C1168 0.950 . S
H1161 C1170 0.950 . S
H1162 C1172 0.950 . S
H1163 C1174 0.950 . S
H1164 C1176 0.950 . S
H1165 C1177 0.950 . S
C1166 H1158 0.950 . S
C1166 C1167 1.386 . S
C1166 C1168 1.391 . S
C1167 C1166 1.386 . S
C1167 C1171 1.393 . S
C1168 H1160 0.950 . S
C1168 C1166 1.391 . S
C1168 C1169 1.400 . S
C1169 C1168 1.400 . S
C1169 C1170 1.398 . S
C1169 C1175 1.491 1_655 S
C1170 H1161 0.950 . S
C1170 C1169 1.398 . S
C1170 C1171 1.391 . S
C1171 H1159 0.950 . S
C1171 C1167 1.393 . S
C1171 C1170 1.391 . S
C1172 H1162 0.950 . S
C1172 C1173 1.386 . S
C1172 C1174 1.391 . S
C1173 C1172 1.386 . S
C1173 C1177 1.393 . S
C1174 H1163 0.950 . S
C1174 C1172 1.391 . S
C1174 C1175 1.400 . S
C1175 C1169 1.491 1_455 S
C1175 C1174 1.400 . S
C1175 C1176 1.398 . S
C1176 H1164 0.950 . S
C1176 C1175 1.398 . S
C1176 C1177 1.391 . S
C1177 H1165 0.950 . S
C1177 C1173 1.393 . S
C1177 C1176 1.391 . S
H1178 C1186 0.950 . S
H1179 C1191 0.950 . S
H1180 C1188 0.950 . S
H1181 C1190 0.950 . S
H1182 C1192 0.950 . S
H1183 C1194 0.950 . S
H1184 C1196 0.950 . S
H1185 C1197 0.950 . S
C1186 H1178 0.950 . S
C1186 C1187 1.386 . S
C1186 C1188 1.391 . S
C1187 C1186 1.386 . S
C1187 C1191 1.393 . S
C1188 H1180 0.950 . S
C1188 C1186 1.391 . S
C1188 C1189 1.400 . S
C1189 C1188 1.400 . S
C1189 C1190 1.398 . S
C1189 C1195 1.491 . S
C1190 H1181 0.950 . S
C1190 C1189 1.398 . S
C1190 C1191 1.391 . S
C1191 H1179 0.950 . S
C1191 C1187 1.393 . S
C1191 C1190 1.391 . S
C1192 H1182 0.950 . S
C1192 C1193 1.386 . S
C1192 C1194 1.391 . S
C1193 C1192 1.386 . S
C1193 C1197 1.393 . S
C1194 H1183 0.950 . S
C1194 C1192 1.391 . S
C1194 C1195 1.400 . S
C1195 C1189 1.491 . S
C1195 C1194 1.400 . S
C1195 C1196 1.398 . S
C1196 H1184 0.950 . S
C1196 C1195 1.398 . S
C1196 C1197 1.391 . S
C1197 H1185 0.950 . S
C1197 C1193 1.393 . S
C1197 C1196 1.391 . S
H1198 C1206 0.950 . S
H1199 C1211 0.950 . S
H1200 C1208 0.950 . S
H1201 C1210 0.950 . S
H1202 C1212 0.950 . S
H1203 C1214 0.950 . S
H1204 C1216 0.950 . S
H1205 C1217 0.950 . S
C1206 H1198 0.950 . S
C1206 C1207 1.386 . S
C1206 C1208 1.391 . S
C1207 C1206 1.386 . S
C1207 C1211 1.393 . S
C1208 H1200 0.950 . S
C1208 C1206 1.391 . S
C1208 C1209 1.400 . S
C1209 C1208 1.400 . S
C1209 C1210 1.398 . S
C1209 C1215 1.491 1_545 S
C1210 H1201 0.950 . S
C1210 C1209 1.398 . S
C1210 C1211 1.391 . S
C1211 H1199 0.950 . S
C1211 C1207 1.393 . S
C1211 C1210 1.391 . S
C1212 H1202 0.950 . S
C1212 C1213 1.386 . S
C1212 C1214 1.391 . S
C1213 C1212 1.386 . S
C1213 C1217 1.393 . S
C1214 H1203 0.950 . S
C1214 C1212 1.391 . S
C1214 C1215 1.400 . S
C1215 C1209 1.491 1_565 S
C1215 C1214 1.400 . S
C1215 C1216 1.398 . S
C1216 H1204 0.950 . S
C1216 C1215 1.398 . S
C1216 C1217 1.391 . S
C1217 H1205 0.950 . S
C1217 C1213 1.393 . S
C1217 C1216 1.391 . S
H1218 C1226 0.950 . S
H1219 C1231 0.950 . S
H1220 C1228 0.950 . S
H1221 C1230 0.950 . S
H1222 C1232 0.950 . S
H1223 C1234 0.950 . S
H1224 C1236 0.950 . S
H1225 C1237 0.950 . S
C1226 H1218 0.950 . S
C1226 C1227 1.386 . S
C1226 C1228 1.391 . S
C1227 C1226 1.386 . S
C1227 C1231 1.393 . S
C1228 H1220 0.950 . S
C1228 C1226 1.391 . S
C1228 C1229 1.400 . S
C1229 C1228 1.400 . S
C1229 C1230 1.398 . S
C1229 C1235 1.491 . S
C1230 H1221 0.950 . S
C1230 C1229 1.398 . S
C1230 C1231 1.391 . S
C1231 H1219 0.950 . S
C1231 C1227 1.393 . S
C1231 C1230 1.391 . S
C1232 H1222 0.950 . S
C1232 C1233 1.386 . S
C1232 C1234 1.391 . S
C1233 C1232 1.386 . S
C1233 C1237 1.393 . S
C1234 H1223 0.950 . S
C1234 C1232 1.391 . S
C1234 C1235 1.400 . S
C1235 C1229 1.491 . S
C1235 C1234 1.400 . S
C1235 C1236 1.398 . S
C1236 H1224 0.950 . S
C1236 C1235 1.398 . S
C1236 C1237 1.391 . S
C1237 H1225 0.950 . S
C1237 C1233 1.393 . S
C1237 C1236 1.391 . S
H1238 C1246 0.950 . S
H1239 C1251 0.950 . S
H1240 C1248 0.950 . S
H1241 C1250 0.950 . S
H1242 C1252 0.950 . S
H1243 C1254 0.950 . S
H1244 C1256 0.950 . S
H1245 C1257 0.950 . S
C1246 H1238 0.950 . S
C1246 C1247 1.386 . S
C1246 C1248 1.391 . S
C1247 C1246 1.386 . S
C1247 C1251 1.393 . S
C1248 H1240 0.950 . S
C1248 C1246 1.391 . S
C1248 C1249 1.400 . S
C1249 C1248 1.400 . S
C1249 C1250 1.398 . S
C1249 C1255 1.491 . S
C1250 H1241 0.950 . S
C1250 C1249 1.398 . S
C1250 C1251 1.391 . S
C1251 H1239 0.950 . S
C1251 C1247 1.393 . S
C1251 C1250 1.391 . S
C1252 H1242 0.950 . S
C1252 C1253 1.386 . S
C1252 C1254 1.391 . S
C1253 C1252 1.386 . S
C1253 C1257 1.393 . S
C1254 H1243 0.950 . S
C1254 C1252 1.391 . S
C1254 C1255 1.400 . S
C1255 C1249 1.491 . S
C1255 C1254 1.400 . S
C1255 C1256 1.398 . S
C1256 H1244 0.950 . S
C1256 C1255 1.398 . S
C1256 C1257 1.391 . S
C1257 H1245 0.950 . S
C1257 C1253 1.393 . S
C1257 C1256 1.391 . S
H1258 C1266 0.950 . S
H1259 C1271 0.950 . S
H1260 C1268 0.950 . S
H1261 C1270 0.950 . S
H1262 C1272 0.950 . S
H1263 C1274 0.950 . S
H1264 C1276 0.950 . S
H1265 C1277 0.950 . S
C1266 H1258 0.950 . S
C1266 C1267 1.386 . S
C1266 C1268 1.391 . S
C1267 C1266 1.386 . S
C1267 C1271 1.393 . S
C1268 H1260 0.950 . S
C1268 C1266 1.391 . S
C1268 C1269 1.400 . S
C1269 C1268 1.400 . S
C1269 C1270 1.398 . S
C1269 C1275 1.491 . S
C1270 H1261 0.950 . S
C1270 C1269 1.398 . S
C1270 C1271 1.391 . S
C1271 H1259 0.950 . S
C1271 C1267 1.393 . S
C1271 C1270 1.391 . S
C1272 H1262 0.950 . S
C1272 C1273 1.386 . S
C1272 C1274 1.391 . S
C1273 C1272 1.386 . S
C1273 C1277 1.393 . S
C1274 H1263 0.950 . S
C1274 C1272 1.391 . S
C1274 C1275 1.400 . S
C1275 C1269 1.491 . S
C1275 C1274 1.400 . S
C1275 C1276 1.398 . S
C1276 H1264 0.950 . S
C1276 C1275 1.398 . S
C1276 C1277 1.391 . S
C1277 H1265 0.950 . S
C1277 C1273 1.393 . S
C1277 C1276 1.391 . S
H1278 C1286 0.950 . S
H1279 C1291 0.950 . S
H1280 C1288 0.950 . S
H1281 C1290 0.950 . S
H1282 C1292 0.950 . S
H1283 C1294 0.950 . S
H1284 C1296 0.950 . S
H1285 C1297 0.950 . S
C1286 H1278 0.950 . S
C1286 C1287 1.386 . S
C1286 C1288 1.391 . S
C1287 C1286 1.386 . S
C1287 C1291 1.393 . S
C1288 H1280 0.950 . S
C1288 C1286 1.391 . S
C1288 C1289 1.400 . S
C1289 C1288 1.400 . S
C1289 C1290 1.398 . S
C1289 C1295 1.491 . S
C1290 H1281 0.950 . S
C1290 C1289 1.398 . S
C1290 C1291 1.391 . S
C1291 H1279 0.950 . S
C1291 C1287 1.393 . S
C1291 C1290 1.391 . S
C1292 H1282 0.950 . S
C1292 C1293 1.386 . S
C1292 C1294 1.391 . S
C1293 C1292 1.386 . S
C1293 C1297 1.393 . S
C1294 H1283 0.950 . S
C1294 C1292 1.391 . S
C1294 C1295 1.400 . S
C1295 C1289 1.491 . S
C1295 C1294 1.400 . S
C1295 C1296 1.398 . S
C1296 H1284 0.950 . S
C1296 C1295 1.398 . S
C1296 C1297 1.391 . S
C1297 H1285 0.950 . S
C1297 C1293 1.393 . S
C1297 C1296 1.391 . S
H1298 C1306 0.950 . S
H1299 C1311 0.950 . S
H1300 C1308 0.950 . S
H1301 C1310 0.950 . S
H1302 C1312 0.950 . S
H1303 C1314 0.950 . S
H1304 C1316 0.950 . S
H1305 C1317 0.950 . S
C1306 H1298 0.950 . S
C1306 C1307 1.386 . S
C1306 C1308 1.391 . S
C1307 C1306 1.386 . S
C1307 C1311 1.393 . S
C1308 H1300 0.950 . S
C1308 C1306 1.391 . S
C1308 C1309 1.400 . S
C1309 C1308 1.400 . S
C1309 C1310 1.398 . S
C1309 C1315 1.491 . S
C1310 H1301 0.950 . S
C1310 C1309 1.398 . S
C1310 C1311 1.391 . S
C1311 H1299 0.950 . S
C1311 C1307 1.393 . S
C1311 C1310 1.391 . S
C1312 H1302 0.950 . S
C1312 C1313 1.386 . S
C1312 C1314 1.391 . S
C1313 C1312 1.386 . S
C1313 C1317 1.393 . S
C1314 H1303 0.950 . S
C1314 C1312 1.391 . S
C1314 C1315 1.400 . S
C1315 C1309 1.491 . S
C1315 C1314 1.400 . S
C1315 C1316 1.398 . S
C1316 H1304 0.950 . S
C1316 C1315 1.398 . S
C1316 C1317 1.391 . S
C1317 H1305 0.950 . S
C1317 C1313 1.393 . S
C1317 C1316 1.391 . S
H1318 C1326 0.950 . S
H1319 C1331 0.950 . S
H1320 C1328 0.950 . S
H1321 C1330 0.950 . S
H1322 C1332 0.950 . S
H1323 C1334 0.950 . S
H1324 C1336 0.950 . S
H1325 C1337 0.950 . S
C1326 H1318 0.950 . S
C1326 C1327 1.386 . S
C1326 C1328 1.391 . S
C1327 C1326 1.386 . S
C1327 C1331 1.393 . S
C1328 H1320 0.950 . S
C1328 C1326 1.391 . S
C1328 C1329 1.400 . S
C1329 C1328 1.400 . S
C1329 C1330 1.398 . S
C1329 C1335 1.491 . S
C1330 H1321 0.950 . S
C1330 C1329 1.398 . S
C1330 C1331 1.391 . S
C1331 H1319 0.950 . S
C1331 C1327 1.393 . S
C1331 C1330 1.391 . S
C1332 H1322 0.950 . S
C1332 C1333 1.386 . S
C1332 C1334 1.391 . S
C1333 C1332 1.386 . S
C1333 C1337 1.393 . S
C1334 H1323 0.950 . S
C1334 C1332 1.391 . S
C1334 C1335 1.400 . S
C1335 C1329 1.491 . S
C1335 C1334 1.400 . S
C1335 C1336 1.398 . S
C1336 H1324 0.950 . S
C1336 C1335 1.398 . S
C1336 C1337 1.391 . S
C1337 H1325 0.950 . S
C1337 C1333 1.393 . S
C1337 C1336 1.391 . S
H1338 C1346 0.950 . S
H1339 C1351 0.950 . S
H1340 C1348 0.950 . S
H1341 C1350 0.950 . S
H1342 C1352 0.950 . S
H1343 C1354 0.950 . S
H1344 C1356 0.950 . S
H1345 C1357 0.950 . S
C1346 H1338 0.950 . S
C1346 C1347 1.386 . S
C1346 C1348 1.391 . S
C1347 C1346 1.386 . S
C1347 C1351 1.393 . S
C1348 H1340 0.950 . S
C1348 C1346 1.391 . S
C1348 C1349 1.400 . S
C1349 C1348 1.400 . S
C1349 C1350 1.398 . S
C1349 C1355 1.491 1_545 S
C1350 H1341 0.950 . S
C1350 C1349 1.398 . S
C1350 C1351 1.391 . S
C1351 H1339 0.950 . S
C1351 C1347 1.393 . S
C1351 C1350 1.391 . S
C1352 H1342 0.950 . S
C1352 C1353 1.386 . S
C1352 C1354 1.391 . S
C1353 C1352 1.386 . S
C1353 C1357 1.393 . S
C1354 H1343 0.950 . S
C1354 C1352 1.391 . S
C1354 C1355 1.400 . S
C1355 C1349 1.491 1_565 S
C1355 C1354 1.400 . S
C1355 C1356 1.398 . S
C1356 H1344 0.950 . S
C1356 C1355 1.398 . S
C1356 C1357 1.391 . S
C1357 H1345 0.950 . S
C1357 C1353 1.393 . S
C1357 C1356 1.391 . S
H1358 C1366 0.950 . S
H1359 C1371 0.950 . S
H1360 C1368 0.950 1_455 S
H1361 C1370 0.950 . S
H1362 C1372 0.950 . S
H1363 C1374 0.950 . S
H1364 C1376 0.950 . S
H1365 C1377 0.950 . S
C1366 H1358 0.950 . S
C1366 C1367 1.386 . S
C1366 C1368 1.391 . S
C1367 C1366 1.386 . S
C1367 C1371 1.393 . S
C1368 H1360 0.950 1_655 S
C1368 C1366 1.391 . S
C1368 C1369 1.394 1_655 S
C1369 C1368 1.394 1_455 S
C1369 C1370 1.390 1_455 S
C1369 C1375 1.505 . S
C1370 H1361 0.950 . S
C1370 C1369 1.390 1_655 S
C1370 C1371 1.391 . S
C1371 H1359 0.950 . S
C1371 C1367 1.393 . S
C1371 C1370 1.391 . S
C1372 H1362 0.950 . S
C1372 C1373 1.386 . S
C1372 C1374 1.391 . S
C1373 C1372 1.386 . S
C1373 C1377 1.393 . S
C1374 H1363 0.950 . S
C1374 C1372 1.391 . S
C1374 C1375 1.400 . S
C1375 C1369 1.505 . S
C1375 C1374 1.400 . S
C1375 C1376 1.398 . S
C1376 H1364 0.950 . S
C1376 C1375 1.398 . S
C1376 C1377 1.391 . S
C1377 H1365 0.950 . S
C1377 C1373 1.393 . S
C1377 C1376 1.391 . S
H1378 C1386 0.950 . S
H1379 C1391 0.950 . S
H1380 C1388 0.950 . S
H1381 C1390 0.950 . S
H1382 C1392 0.950 . S
H1383 C1394 0.950 . S
H1384 C1396 0.950 . S
H1385 C1397 0.950 . S
C1386 H1378 0.950 . S
C1386 C1387 1.386 . S
C1386 C1388 1.391 . S
C1387 C1386 1.386 . S
C1387 C1391 1.393 . S
C1388 H1380 0.950 . S
C1388 C1386 1.391 . S
C1388 C1389 1.400 . S
C1389 C1388 1.400 . S
C1389 C1390 1.398 . S
C1389 C1395 1.491 . S
C1390 H1381 0.950 . S
C1390 C1389 1.398 . S
C1390 C1391 1.391 . S
C1391 H1379 0.950 . S
C1391 C1387 1.393 . S
C1391 C1390 1.391 . S
C1392 H1382 0.950 . S
C1392 C1393 1.386 . S
C1392 C1394 1.391 . S
C1393 C1392 1.386 . S
C1393 C1397 1.393 . S
C1394 H1383 0.950 . S
C1394 C1392 1.391 . S
C1394 C1395 1.400 . S
C1395 C1389 1.491 . S
C1395 C1394 1.400 . S
C1395 C1396 1.398 . S
C1396 H1384 0.950 . S
C1396 C1395 1.398 . S
C1396 C1397 1.391 . S
C1397 H1385 0.950 . S
C1397 C1393 1.393 . S
C1397 C1396 1.391 . S
H1398 C1406 0.950 . S
H1399 C1411 0.950 . S
H1400 C1408 0.950 . S
H1401 C1410 0.950 . S
H1402 C1412 0.950 . S
H1403 C1414 0.950 . S
H1404 C1416 0.950 . S
H1405 C1417 0.950 . S
C1406 H1398 0.950 . S
C1406 C1407 1.386 . S
C1406 C1408 1.391 . S
C1407 C1406 1.386 . S
C1407 C1411 1.393 . S
C1408 H1400 0.950 . S
C1408 C1406 1.391 . S
C1408 C1409 1.400 . S
C1409 C1408 1.400 . S
C1409 C1410 1.398 . S
C1409 C1415 1.491 . S
C1410 H1401 0.950 . S
C1410 C1409 1.398 . S
C1410 C1411 1.391 . S
C1411 H1399 0.950 . S
C1411 C1407 1.393 . S
C1411 C1410 1.391 . S
C1412 H1402 0.950 . S
C1412 C1413 1.386 . S
C1412 C1414 1.391 . S
C1413 C1412 1.386 . S
C1413 C1417 1.393 . S
C1414 H1403 0.950 . S
C1414 C1412 1.391 . S
C1414 C1415 1.400 . S
C1415 C1409 1.491 . S
C1415 C1414 1.400 . S
C1415 C1416 1.398 . S
C1416 H1404 0.950 . S
C1416 C1415 1.398 . S
C1416 C1417 1.391 . S
C1417 H1405 0.950 . S
C1417 C1413 1.393 . S
C1417 C1416 1.391 . S
H1418 C1426 0.950 . S
H1419 C1431 0.950 . S
H1420 C1428 0.950 . S
H1421 C1430 0.950 . S
H1422 C1432 0.950 . S
H1423 C1434 0.950 . S
H1424 C1436 0.950 . S
H1425 C1437 0.950 . S
C1426 H1418 0.950 . S
C1426 C1427 1.386 . S
C1426 C1428 1.391 . S
C1427 C1426 1.386 . S
C1427 C1431 1.393 . S
C1428 H1420 0.950 . S
C1428 C1426 1.391 . S
C1428 C1429 1.400 . S
C1429 C1428 1.400 . S
C1429 C1430 1.398 . S
C1429 C1435 1.491 . S
C1430 H1421 0.950 . S
C1430 C1429 1.398 . S
C1430 C1431 1.391 . S
C1431 H1419 0.950 . S
C1431 C1427 1.393 . S
C1431 C1430 1.391 . S
C1432 H1422 0.950 . S
C1432 C1433 1.386 . S
C1432 C1434 1.391 . S
C1433 C1432 1.386 . S
C1433 C1437 1.393 . S
C1434 H1423 0.950 . S
C1434 C1432 1.391 . S
C1434 C1435 1.400 . S
C1435 C1429 1.491 . S
C1435 C1434 1.400 . S
C1435 C1436 1.398 . S
C1436 H1424 0.950 . S
C1436 C1435 1.398 . S
C1436 C1437 1.391 . S
C1437 H1425 0.950 . S
C1437 C1433 1.393 . S
C1437 C1436 1.391 . S
H1438 C1446 0.950 . S
H1439 C1451 0.950 . S
H1440 C1448 0.950 . S
H1441 C1450 0.950 . S
H1442 C1452 0.950 . S
H1443 C1454 0.950 . S
H1444 C1456 0.950 . S
H1445 C1457 0.950 . S
C1446 H1438 0.950 . S
C1446 C1447 1.386 . S
C1446 C1448 1.391 . S
C1447 C1446 1.386 . S
C1447 C1451 1.393 . S
C1448 H1440 0.950 . S
C1448 C1446 1.391 . S
C1448 C1449 1.400 . S
C1449 C1448 1.400 . S
C1449 C1450 1.398 . S
C1449 C1455 1.491 . S
C1450 H1441 0.950 . S
C1450 C1449 1.398 . S
C1450 C1451 1.391 . S
C1451 H1439 0.950 . S
C1451 C1447 1.393 . S
C1451 C1450 1.391 . S
C1452 H1442 0.950 . S
C1452 C1453 1.386 . S
C1452 C1454 1.391 . S
C1453 C1452 1.386 . S
C1453 C1457 1.393 . S
C1454 H1443 0.950 . S
C1454 C1452 1.391 . S
C1454 C1455 1.400 . S
C1455 C1449 1.491 . S
C1455 C1454 1.400 . S
C1455 C1456 1.398 . S
C1456 H1444 0.950 . S
C1456 C1455 1.398 . S
C1456 C1457 1.391 . S
C1457 H1445 0.950 . S
C1457 C1453 1.393 . S
C1457 C1456 1.391 . S
H1458 C1466 0.950 . S
H1459 C1471 0.950 . S
H1460 C1468 0.950 . S
H1461 C1470 0.950 . S
H1462 C1472 0.950 . S
H1463 C1474 0.950 . S
H1464 C1476 0.950 . S
H1465 C1477 0.950 . S
C1466 H1458 0.950 . S
C1466 C1467 1.386 . S
C1466 C1468 1.391 . S
C1467 C1466 1.386 . S
C1467 C1471 1.393 . S
C1468 H1460 0.950 . S
C1468 C1466 1.391 . S
C1468 C1469 1.400 . S
C1469 C1468 1.400 . S
C1469 C1470 1.398 . S
C1469 C1475 1.491 1_565 S
C1470 H1461 0.950 . S
C1470 C1469 1.398 . S
C1470 C1471 1.391 . S
C1471 H1459 0.950 . S
C1471 C1467 1.393 . S
C1471 C1470 1.391 . S
C1472 H1462 0.950 . S
C1472 C1473 1.386 . S
C1472 C1474 1.391 . S
C1473 C1472 1.386 . S
C1473 C1477 1.393 . S
C1474 H1463 0.950 . S
C1474 C1472 1.391 . S
C1474 C1475 1.400 . S
C1475 C1469 1.491 1_545 S
C1475 C1474 1.400 . S
C1475 C1476 1.398 . S
C1476 H1464 0.950 . S
C1476 C1475 1.398 . S
C1476 C1477 1.391 . S
C1477 H1465 0.950 . S
C1477 C1473 1.393 . S
C1477 C1476 1.391 . S
H1478 C1486 0.950 . S
H1479 C1491 0.950 . S
H1480 C1488 0.950 1_655 S
H1481 C1490 0.950 . S
H1482 C1492 0.950 . S
H1483 C1494 0.950 . S
H1484 C1496 0.950 . S
H1485 C1497 0.950 . S
C1486 H1478 0.950 . S
C1486 C1487 1.386 . S
C1486 C1488 1.391 . S
C1487 C1486 1.386 . S
C1487 C1491 1.393 . S
C1488 H1480 0.950 1_455 S
C1488 C1486 1.391 . S
C1488 C1489 1.402 . S
C1489 C1488 1.402 . S
C1489 C1490 1.432 . S
C1489 C1495 1.457 1_455 S
C1490 H1481 0.950 . S
C1490 C1489 1.432 . S
C1490 C1491 1.391 . S
C1491 H1479 0.950 . S
C1491 C1487 1.393 . S
C1491 C1490 1.391 . S
C1492 H1482 0.950 . S
C1492 C1493 1.386 . S
C1492 C1494 1.391 . S
C1493 C1492 1.386 . S
C1493 C1497 1.393 . S
C1494 H1483 0.950 . S
C1494 C1492 1.391 . S
C1494 C1495 1.400 . S
C1495 C1489 1.457 1_655 S
C1495 C1494 1.400 . S
C1495 C1496 1.398 . S
C1496 H1484 0.950 . S
C1496 C1495 1.398 . S
C1496 C1497 1.391 . S
C1497 H1485 0.950 . S
C1497 C1493 1.393 . S
C1497 C1496 1.391 . S
H1498 C1506 0.950 . S
H1499 C1511 0.950 . S
H1500 C1508 0.950 . S
H1501 C1510 0.950 . S
H1502 C1512 0.950 . S
H1503 C1514 0.950 . S
H1504 C1516 0.950 . S
H1505 C1517 0.950 . S
C1506 H1498 0.950 . S
C1506 C1507 1.386 . S
C1506 C1508 1.391 . S
C1507 C1506 1.386 . S
C1507 C1511 1.393 . S
C1508 H1500 0.950 . S
C1508 C1506 1.391 . S
C1508 C1509 1.400 . S
C1509 C1508 1.400 . S
C1509 C1510 1.398 . S
C1509 C1515 1.491 . S
C1510 H1501 0.950 . S
C1510 C1509 1.398 . S
C1510 C1511 1.391 . S
C1511 H1499 0.950 . S
C1511 C1507 1.393 . S
C1511 C1510 1.391 . S
C1512 H1502 0.950 . S
C1512 C1513 1.386 . S
C1512 C1514 1.391 . S
C1513 C1512 1.386 . S
C1513 C1517 1.393 . S
C1514 H1503 0.950 . S
C1514 C1512 1.391 . S
C1514 C1515 1.400 . S
C1515 C1509 1.491 . S
C1515 C1514 1.400 . S
C1515 C1516 1.398 . S
C1516 H1504 0.950 . S
C1516 C1515 1.398 . S
C1516 C1517 1.391 . S
C1517 H1505 0.950 . S
C1517 C1513 1.393 . S
C1517 C1516 1.391 . S
H1518 C1526 0.950 . S
H1519 C1531 0.950 . S
H1520 C1528 0.950 . S
H1521 C1530 0.950 1_655 S
H1522 C1532 0.950 . S
H1523 C1534 0.950 . S
H1524 C1536 0.950 . S
H1525 C1537 0.950 . S
C1526 H1518 0.950 . S
C1526 C1527 1.386 . S
C1526 C1528 1.391 . S
C1527 C1526 1.386 . S
C1527 C1531 1.393 . S
C1528 H1520 0.950 . S
C1528 C1526 1.391 . S
C1528 C1529 1.400 . S
C1529 C1528 1.400 . S
C1529 C1530 1.398 . S
C1529 C1535 1.491 1_455 S
C1530 H1521 0.950 1_455 S
C1530 C1529 1.398 . S
C1530 C1531 1.391 . S
C1531 H1519 0.950 . S
C1531 C1527 1.393 . S
C1531 C1530 1.391 . S
C1532 H1522 0.950 . S
C1532 C1533 1.386 . S
C1532 C1534 1.391 . S
C1533 C1532 1.386 . S
C1533 C1537 1.393 . S
C1534 H1523 0.950 . S
C1534 C1532 1.391 . S
C1534 C1535 1.400 . S
C1535 C1529 1.491 1_655 S
C1535 C1534 1.400 . S
C1535 C1536 1.398 . S
C1536 H1524 0.950 . S
C1536 C1535 1.398 . S
C1536 C1537 1.391 . S
C1537 H1525 0.950 . S
C1537 C1533 1.393 . S
C1537 C1536 1.391 . S
H1538 C1546 0.950 . S
H1539 C1551 0.950 . S
H1540 C1548 0.950 . S
H1541 C1550 0.950 . S
H1542 C1552 0.950 . S
H1543 C1554 0.950 . S
H1544 C1556 0.950 . S
H1545 C1557 0.950 . S
C1546 H1538 0.950 . S
C1546 C1547 1.386 . S
C1546 C1548 1.391 . S
C1547 C1546 1.386 . S
C1547 C1551 1.393 . S
C1548 H1540 0.950 . S
C1548 C1546 1.391 . S
C1548 C1549 1.400 . S
C1549 C1548 1.400 . S
C1549 C1550 1.398 . S
C1549 C1555 1.491 . S
C1550 H1541 0.950 . S
C1550 C1549 1.398 . S
C1550 C1551 1.391 . S
C1551 H1539 0.950 . S
C1551 C1547 1.393 . S
C1551 C1550 1.391 . S
C1552 H1542 0.950 . S
C1552 C1553 1.386 . S
C1552 C1554 1.391 . S
C1553 C1552 1.386 . S
C1553 C1557 1.393 . S
C1554 H1543 0.950 . S
C1554 C1552 1.391 . S
C1554 C1555 1.400 . S
C1555 C1549 1.491 . S
C1555 C1554 1.400 . S
C1555 C1556 1.398 . S
C1556 H1544 0.950 . S
C1556 C1555 1.398 . S
C1556 C1557 1.391 . S
C1557 H1545 0.950 . S
C1557 C1553 1.393 . S
C1557 C1556 1.391 . S
H1558 C1566 0.950 . S
H1559 C1571 0.950 . S
H1560 C1568 0.950 . S
H1561 C1570 0.950 . S
H1562 C1572 0.950 . S
H1563 C1574 0.950 . S
H1564 C1576 0.950 . S
H1565 C1577 0.950 . S
C1566 H1558 0.950 . S
C1566 C1567 1.386 . S
C1566 C1568 1.391 . S
C1567 C1566 1.386 . S
C1567 C1571 1.393 . S
C1568 H1560 0.950 . S
C1568 C1566 1.391 . S
C1568 C1569 1.400 . S
C1569 C1568 1.400 . S
C1569 C1570 1.398 . S
C1569 C1575 1.491 1_565 S
C1570 H1561 0.950 . S
C1570 C1569 1.398 . S
C1570 C1571 1.391 . S
C1571 H1559 0.950 . S
C1571 C1567 1.393 . S
C1571 C1570 1.391 . S
C1572 H1562 0.950 . S
C1572 C1573 1.386 . S
C1572 C1574 1.391 . S
C1573 C1572 1.386 . S
C1573 C1577 1.393 . S
C1574 H1563 0.950 . S
C1574 C1572 1.391 . S
C1574 C1575 1.400 . S
C1575 C1569 1.491 1_545 S
C1575 C1574 1.400 . S
C1575 C1576 1.398 . S
C1576 H1564 0.950 . S
C1576 C1575 1.398 . S
C1576 C1577 1.391 . S
C1577 H1565 0.950 . S
C1577 C1573 1.393 . S
C1577 C1576 1.391 . S
H1578 C1586 0.950 . S
H1579 C1591 0.950 . S
H1580 C1588 0.950 . S
H1581 C1590 0.950 . S
H1582 C1592 0.950 . S
H1583 C1594 0.950 . S
H1584 C1596 0.950 . S
H1585 C1597 0.950 . S
C1586 H1578 0.950 . S
C1586 C1587 1.386 . S
C1586 C1588 1.391 . S
C1587 C1586 1.386 . S
C1587 C1591 1.393 . S
C1588 H1580 0.950 . S
C1588 C1586 1.391 . S
C1588 C1589 1.400 . S
C1589 C1588 1.400 . S
C1589 C1590 1.398 . S
C1589 C1595 1.491 . S
C1590 H1581 0.950 . S
C1590 C1589 1.398 . S
C1590 C1591 1.391 . S
C1591 H1579 0.950 . S
C1591 C1587 1.393 . S
C1591 C1590 1.391 . S
C1592 H1582 0.950 . S
C1592 C1593 1.386 . S
C1592 C1594 1.391 . S
C1593 C1592 1.386 . S
C1593 C1597 1.393 . S
C1594 H1583 0.950 . S
C1594 C1592 1.391 . S
C1594 C1595 1.400 . S
C1595 C1589 1.491 . S
C1595 C1594 1.400 . S
C1595 C1596 1.398 . S
C1596 H1584 0.950 . S
C1596 C1595 1.398 . S
C1596 C1597 1.391 . S
C1597 H1585 0.950 . S
C1597 C1593 1.393 . S
C1597 C1596 1.391 . S
H1598 C1606 0.950 . S
H1599 C1611 0.950 . S
H1600 C1608 0.950 . S
H1601 C1610 0.950 . S
H1602 C1612 0.950 . S
H1603 C1614 0.950 . S
H1604 C1616 0.950 . S
H1605 C1617 0.950 . S
C1606 H1598 0.950 . S
C1606 C1607 1.386 . S
C1606 C1608 1.391 . S
C1607 C1606 1.386 . S
C1607 C1611 1.393 . S
C1608 H1600 0.950 . S
C1608 C1606 1.391 . S
C1608 C1609 1.400 . S
C1609 C1608 1.400 . S
C1609 C1610 1.398 . S
C1609 C1615 1.491 . S
C1610 H1601 0.950 . S
C1610 C1609 1.398 . S
C1610 C1611 1.391 . S
C1611 H1599 0.950 . S
C1611 C1607 1.393 . S
C1611 C1610 1.391 . S
C1612 H1602 0.950 . S
C1612 C1613 1.386 . S
C1612 C1614 1.391 . S
C1613 C1612 1.386 . S
C1613 C1617 1.393 . S
C1614 H1603 0.950 . S
C1614 C1612 1.391 . S
C1614 C1615 1.400 . S
C1615 C1609 1.491 . S
C1615 C1614 1.400 . S
C1615 C1616 1.398 . S
C1616 H1604 0.950 . S
C1616 C1615 1.398 . S
C1616 C1617 1.391 . S
C1617 H1605 0.950 . S
C1617 C1613 1.393 . S
C1617 C1616 1.391 . S
H1618 C1626 0.950 . S
H1619 C1631 0.950 . S
H1620 C1628 0.950 . S
H1621 C1630 0.950 . S
H1622 C1632 0.950 . S
H1623 C1634 0.950 . S
H1624 C1636 0.950 . S
H1625 C1637 0.950 . S
C1626 H1618 0.950 . S
C1626 C1627 1.386 . S
C1626 C1628 1.391 . S
C1627 C1626 1.386 . S
C1627 C1631 1.393 . S
C1628 H1620 0.950 . S
C1628 C1626 1.391 . S
C1628 C1629 1.400 . S
C1629 C1628 1.400 . S
C1629 C1630 1.398 . S
C1629 C1635 1.491 . S
C1630 H1621 0.950 . S
C1630 C1629 1.398 . S
C1630 C1631 1.391 . S
C1631 H1619 0.950 . S
C1631 C1627 1.393 . S
C1631 C1630 1.391 . S
C1632 H1622 0.950 . S
C1632 C1633 1.386 . S
C1632 C1634 1.391 . S
C1633 C1632 1.386 . S
C1633 C1637 1.393 . S
C1634 H1623 0.950 . S
C1634 C1632 1.391 . S
C1634 C1635 1.400 . S
C1635 C1629 1.491 . S
C1635 C1634 1.400 . S
C1635 C1636 1.398 . S
C1636 H1624 0.950 . S
C1636 C1635 1.398 . S
C1636 C1637 1.391 . S
C1637 H1625 0.950 . S
C1637 C1633 1.393 . S
C1637 C1636 1.391 . S
H1638 C1646 0.950 . S
H1639 C1651 0.950 . S
H1640 C1648 0.950 . S
H1641 C1650 0.950 . S
H1642 C1652 0.950 . S
H1643 C1654 0.950 . S
H1644 C1656 0.950 . S
H1645 C1657 0.950 . S
C1646 H1638 0.950 . S
C1646 C1647 1.386 . S
C1646 C1648 1.391 . S
C1647 C1646 1.386 . S
C1647 C1651 1.393 . S
C1648 H1640 0.950 . S
C1648 C1646 1.391 . S
C1648 C1649 1.400 . S
C1649 C1648 1.400 . S
C1649 C1650 1.398 . S
C1649 C1655 1.491 . S
C1650 H1641 0.950 . S
C1650 C1649 1.398 . S
C1650 C1651 1.391 . S
C1651 H1639 0.950 . S
C1651 C1647 1.393 . S
C1651 C1650 1.391 . S
C1652 H1642 0.950 . S
C1652 C1653 1.386 . S
C1652 C1654 1.391 . S
C1653 C1652 1.386 . S
C1653 C1657 1.393 . S
C1654 H1643 0.950 . S
C1654 C1652 1.391 . S
C1654 C1655 1.400 . S
C1655 C1649 1.491 . S
C1655 C1654 1.400 . S
C1655 C1656 1.398 . S
C1656 H1644 0.950 . S
C1656 C1655 1.398 . S
C1656 C1657 1.391 . S
C1657 H1645 0.950 . S
C1657 C1653 1.393 . S
C1657 C1656 1.391 . S
H1658 C1666 0.950 . S
H1659 C1671 0.950 . S
H1660 C1668 0.950 . S
H1661 C1670 0.950 . S
H1662 C1672 0.950 1_655 S
H1663 C1674 0.950 . S
H1664 C1676 0.950 . S
H1665 C1677 0.950 . S
C1666 H1658 0.950 . S
C1666 C1667 1.386 . S
C1666 C1668 1.391 . S
C1667 C1666 1.386 . S
C1667 C1671 1.393 . S
C1668 H1660 0.950 . S
C1668 C1666 1.391 . S
C1668 C1669 1.400 . S
C1669 C1668 1.400 . S
C1669 C1670 1.398 . S
C1669 C1675 1.491 . S
C1670 H1661 0.950 . S
C1670 C1669 1.398 . S
C1670 C1671 1.391 . S
C1671 H1659 0.950 . S
C1671 C1667 1.393 . S
C1671 C1670 1.391 . S
C1672 H1662 0.950 1_455 S
C1672 C1673 1.386 . S
C1672 C1674 1.391 . S
C1673 C1672 1.386 . S
C1673 C1677 1.393 . S
C1674 H1663 0.950 . S
C1674 C1672 1.391 . S
C1674 C1675 1.400 . S
C1675 C1669 1.491 . S
C1675 C1674 1.400 . S
C1675 C1676 1.398 . S
C1676 H1664 0.950 . S
C1676 C1675 1.398 . S
C1676 C1677 1.391 . S
C1677 H1665 0.950 . S
C1677 C1673 1.393 . S
C1677 C1676 1.391 . S
H1678 C1686 0.950 . S
H1679 C1691 0.950 . S
H1680 C1688 0.950 . S
H1681 C1690 0.950 . S
H1682 C1692 0.950 . S
H1683 C1694 0.950 . S
H1684 C1696 0.950 . S
H1685 C1697 0.950 . S
C1686 H1678 0.950 . S
C1686 C1687 1.386 . S
C1686 C1688 1.391 . S
C1687 C1686 1.386 . S
C1687 C1691 1.393 . S
C1688 H1680 0.950 . S
C1688 C1686 1.391 . S
C1688 C1689 1.400 . S
C1689 C1688 1.400 . S
C1689 C1690 1.398 . S
C1689 C1695 1.491 . S
C1690 H1681 0.950 . S
C1690 C1689 1.398 . S
C1690 C1691 1.391 . S
C1691 H1679 0.950 . S
C1691 C1687 1.393 . S
C1691 C1690 1.391 . S
C1692 H1682 0.950 . S
C1692 C1693 1.386 . S
C1692 C1694 1.391 . S
C1693 C1692 1.386 . S
C1693 C1697 1.393 . S
C1694 H1683 0.950 . S
C1694 C1692 1.391 . S
C1694 C1695 1.400 . S
C1695 C1689 1.491 . S
C1695 C1694 1.400 . S
C1695 C1696 1.398 . S
C1696 H1684 0.950 . S
C1696 C1695 1.398 . S
C1696 C1697 1.391 . S
C1697 H1685 0.950 . S
C1697 C1693 1.393 . S
C1697 C1696 1.391 . S
H1698 C1706 0.950 . S
H1699 C1711 0.950 . S
H1700 C1708 0.950 . S
H1701 C1710 0.950 . S
H1702 C1712 0.950 1_455 S
H1703 C1714 0.950 . S
H1704 C1716 0.950 . S
H1705 C1717 0.950 . S
C1706 H1698 0.950 . S
C1706 C1707 1.386 . S
C1706 C1708 1.391 . S
C1707 C1706 1.386 . S
C1707 C1711 1.393 . S
C1708 H1700 0.950 . S
C1708 C1706 1.391 . S
C1708 C1709 1.400 . S
C1709 C1708 1.400 . S
C1709 C1710 1.398 . S
C1709 C1715 1.491 . S
C1710 H1701 0.950 . S
C1710 C1709 1.398 . S
C1710 C1711 1.391 . S
C1711 H1699 0.950 . S
C1711 C1707 1.393 . S
C1711 C1710 1.391 . S
C1712 H1702 0.950 1_655 S
C1712 C1713 1.386 . S
C1712 C1714 1.391 . S
C1713 C1712 1.386 . S
C1713 C1717 1.393 . S
C1714 H1703 0.950 . S
C1714 C1712 1.391 . S
C1714 C1715 1.400 . S
C1715 C1709 1.491 . S
C1715 C1714 1.400 . S
C1715 C1716 1.398 . S
C1716 H1704 0.950 . S
C1716 C1715 1.398 . S
C1716 C1717 1.391 . S
C1717 H1705 0.950 . S
C1717 C1713 1.393 . S
C1717 C1716 1.391 . S
H1718 C1726 0.950 . S
H1719 C1731 0.950 . S
H1720 C1728 0.950 . S
H1721 C1730 0.950 . S
H1722 C1732 0.950 . S
H1723 C1734 0.950 . S
H1724 C1736 0.950 . S
H1725 C1737 0.950 . S
C1726 H1718 0.950 . S
C1726 C1727 1.386 . S
C1726 C1728 1.391 . S
C1727 C1726 1.386 . S
C1727 C1731 1.393 . S
C1728 H1720 0.950 . S
C1728 C1726 1.391 . S
C1728 C1729 1.400 . S
C1729 C1728 1.400 . S
C1729 C1730 1.398 . S
C1729 C1735 1.491 . S
C1730 H1721 0.950 . S
C1730 C1729 1.398 . S
C1730 C1731 1.391 . S
C1731 H1719 0.950 . S
C1731 C1727 1.393 . S
C1731 C1730 1.391 . S
C1732 H1722 0.950 . S
C1732 C1733 1.386 . S
C1732 C1734 1.391 . S
C1733 C1732 1.386 . S
C1733 C1737 1.393 . S
C1734 H1723 0.950 . S
C1734 C1732 1.391 . S
C1734 C1735 1.400 . S
C1735 C1729 1.491 . S
C1735 C1734 1.400 . S
C1735 C1736 1.398 . S
C1736 H1724 0.950 . S
C1736 C1735 1.398 . S
C1736 C1737 1.391 . S
C1737 H1725 0.950 . S
C1737 C1733 1.393 . S
C1737 C1736 1.391 . S
H1738 C1746 0.950 . S
H1739 C1751 0.950 . S
H1740 C1748 0.950 . S
H1741 C1750 0.950 . S
H1742 C1752 0.950 . S
H1743 C1754 0.950 . S
H1744 C1756 0.950 . S
H1745 C1757 0.950 1_565 S
C1746 H1738 0.950 . S
C1746 C1747 1.386 . S
C1746 C1748 1.391 . S
C1747 C1746 1.386 . S
C1747 C1751 1.393 . S
C1748 H1740 0.950 . S
C1748 C1746 1.391 . S
C1748 C1749 1.400 . S
C1749 C1748 1.400 . S
C1749 C1750 1.398 . S
C1749 C1755 1.491 . S
C1750 H1741 0.950 . S
C1750 C1749 1.398 . S
C1750 C1751 1.391 . S
C1751 H1739 0.950 . S
C1751 C1747 1.393 . S
C1751 C1750 1.391 . S
C1752 H1742 0.950 . S
C1752 C1753 1.386 . S
C1752 C1754 1.391 . S
C1753 C1752 1.386 . S
C1753 C1757 1.393 . S
C1754 H1743 0.950 . S
C1754 C1752 1.391 . S
C1754 C1755 1.400 . S
C1755 C1749 1.491 . S
C1755 C1754 1.400 . S
C1755 C1756 1.398 . S
C1756 H1744 0.950 . S
C1756 C1755 1.398 . S
C1756 C1757 1.391 . S
C1757 H1745 0.950 1_545 S
C1757 C1753 1.393 . S
C1757 C1756 1.391 . S
H1758 C1766 0.950 . S
H1759 C1771 0.950 . S
H1760 C1768 0.950 . S
H1761 C1770 0.950 . S
H1762 C1772 0.950 . S
H1763 C1774 0.950 . S
H1764 C1776 0.950 . S
H1765 C1777 0.950 . S
C1766 H1758 0.950 . S
C1766 C1767 1.386 . S
C1766 C1768 1.391 . S
C1767 C1766 1.386 . S
C1767 C1771 1.393 . S
C1768 H1760 0.950 . S
C1768 C1766 1.391 . S
C1768 C1769 1.400 . S
C1769 C1768 1.400 . S
C1769 C1770 1.398 . S
C1769 C1775 1.491 . S
C1770 H1761 0.950 . S
C1770 C1769 1.398 . S
C1770 C1771 1.391 . S
C1771 H1759 0.950 . S
C1771 C1767 1.393 . S
C1771 C1770 1.391 . S
C1772 H1762 0.950 . S
C1772 C1773 1.386 . S
C1772 C1774 1.391 . S
C1773 C1772 1.386 . S
C1773 C1777 1.393 . S
C1774 H1763 0.950 . S
C1774 C1772 1.391 . S
C1774 C1775 1.400 . S
C1775 C1769 1.491 . S
C1775 C1774 1.400 . S
C1775 C1776 1.398 . S
C1776 H1764 0.950 . S
C1776 C1775 1.398 . S
C1776 C1777 1.391 . S
C1777 H1765 0.950 . S
C1777 C1773 1.393 . S
C1777 C1776 1.391 . S
H1778 C1786 0.950 . S
H1779 C1791 0.950 . S
H1780 C1788 0.950 . S
H1781 C1790 0.950 . S
H1782 C1792 0.950 . S
H1783 C1794 0.950 . S
H1784 C1796 0.950 . S
H1785 C1797 0.950 . S
C1786 H1778 0.950 . S
C1786 C1787 1.386 . S
C1786 C1788 1.391 . S
C1787 C1786 1.386 . S
C1787 C1791 1.393 . S
C1788 H1780 0.950 . S
C1788 C1786 1.391 . S
C1788 C1789 1.400 . S
C1789 C1788 1.400 . S
C1789 C1790 1.398 . S
C1789 C1795 1.491 . S
C1790 H1781 0.950 . S
C1790 C1789 1.398 . S
C1790 C1791 1.391 . S
C1791 H1779 0.950 . S
C1791 C1787 1.393 . S
C1791 C1790 1.391 . S
C1792 H1782 0.950 . S
C1792 C1793 1.386 . S
C1792 C1794 1.391 . S
C1793 C1792 1.386 . S
C1793 C1797 1.393 . S
C1794 H1783 0.950 . S
C1794 C1792 1.391 . S
C1794 C1795 1.400 . S
C1795 C1789 1.491 . S
C1795 C1794 1.400 . S
C1795 C1796 1.398 . S
C1796 H1784 0.950 . S
C1796 C1795 1.398 . S
C1796 C1797 1.391 . S
C1797 H1785 0.950 . S
C1797 C1793 1.393 . S
C1797 C1796 1.391 . S
H1798 C1806 0.950 . S
H1799 C1811 0.950 . S
H1800 C1808 0.950 . S
H1801 C1810 0.950 . S
H1802 C1812 0.950 . S
H1803 C1814 0.950 . S
H1804 C1816 0.950 . S
H1805 C1817 0.950 . S
C1806 H1798 0.950 . S
C1806 C1807 1.386 . S
C1806 C1808 1.391 . S
C1807 C1806 1.386 . S
C1807 C1811 1.393 . S
C1808 H1800 0.950 . S
C1808 C1806 1.391 . S
C1808 C1809 1.400 . S
C1809 C1808 1.400 . S
C1809 C1810 1.398 . S
C1809 C1815 1.491 . S
C1810 H1801 0.950 . S
C1810 C1809 1.398 . S
C1810 C1811 1.391 . S
C1811 H1799 0.950 . S
C1811 C1807 1.393 . S
C1811 C1810 1.391 . S
C1812 H1802 0.950 . S
C1812 C1813 1.386 . S
C1812 C1814 1.391 . S
C1813 C1812 1.386 . S
C1813 C1817 1.393 . S
C1814 H1803 0.950 . S
C1814 C1812 1.391 . S
C1814 C1815 1.400 . S
C1815 C1809 1.491 . S
C1815 C1814 1.400 . S
C1815 C1816 1.398 . S
C1816 H1804 0.950 . S
C1816 C1815 1.398 . S
C1816 C1817 1.391 . S
C1817 H1805 0.950 . S
C1817 C1813 1.393 . S
C1817 C1816 1.391 . S
H1818 C1826 0.950 . S
H1819 C1831 0.950 . S
H1820 C1828 0.950 . S
H1821 C1830 0.950 . S
H1822 C1832 0.950 . S
H1823 C1834 0.950 . S
H1824 C1836 0.950 . S
H1825 C1837 0.950 . S
C1826 H1818 0.950 . S
C1826 C1827 1.386 . S
C1826 C1828 1.391 . S
C1827 C1826 1.386 . S
C1827 C1831 1.393 . S
C1828 H1820 0.950 . S
C1828 C1826 1.391 . S
C1828 C1829 1.400 . S
C1829 C1828 1.400 . S
C1829 C1830 1.398 . S
C1829 C1835 1.491 . S
C1830 H1821 0.950 . S
C1830 C1829 1.398 . S
C1830 C1831 1.391 . S
C1831 H1819 0.950 . S
C1831 C1827 1.393 . S
C1831 C1830 1.391 . S
C1832 H1822 0.950 . S
C1832 C1833 1.386 . S
C1832 C1834 1.391 . S
C1833 C1832 1.386 . S
C1833 C1837 1.393 . S
C1834 H1823 0.950 . S
C1834 C1832 1.391 . S
C1834 C1835 1.400 . S
C1835 C1829 1.491 . S
C1835 C1834 1.400 . S
C1835 C1836 1.398 . S
C1836 H1824 0.950 . S
C1836 C1835 1.398 . S
C1836 C1837 1.391 . S
C1837 H1825 0.950 . S
C1837 C1833 1.393 . S
C1837 C1836 1.391 . S
H1838 C1846 0.950 . S
H1839 C1851 0.950 . S
H1840 C1848 0.950 . S
H1841 C1850 0.950 . S
H1842 C1852 0.950 . S
H1843 C1854 0.950 . S
H1844 C1856 0.950 . S
H1845 C1857 0.950 . S
C1846 H1838 0.950 . S
C1846 C1847 1.386 . S
C1846 C1848 1.391 . S
C1847 C1846 1.386 . S
C1847 C1851 1.393 . S
C1848 H1840 0.950 . S
C1848 C1846 1.391 . S
C1848 C1849 1.400 . S
C1849 C1848 1.400 . S
C1849 C1850 1.398 . S
C1849 C1855 1.491 . S
C1850 H1841 0.950 . S
C1850 C1849 1.398 . S
C1850 C1851 1.391 . S
C1851 H1839 0.950 . S
C1851 C1847 1.393 . S
C1851 C1850 1.391 . S
C1852 H1842 0.950 . S
C1852 C1853 1.386 . S
C1852 C1854 1.391 . S
C1853 C1852 1.386 . S
C1853 C1857 1.393 . S
C1854 H1843 0.950 . S
C1854 C1852 1.391 . S
C1854 C1855 1.400 . S
C1855 C1849 1.491 . S
C1855 C1854 1.400 . S
C1855 C1856 1.398 . S
C1856 H1844 0.950 . S
C1856 C1855 1.398 . S
C1856 C1857 1.391 . S
C1857 H1845 0.950 . S
C1857 C1853 1.393 . S
C1857 C1856 1.391 . S
H1858 C1866 0.950 . S
H1859 C1871 0.950 . S
H1860 C1868 0.950 . S
H1861 C1870 0.950 . S
H1862 C1872 0.950 . S
H1863 C1874 0.950 . S
H1864 C1876 0.950 . S
H1865 C1877 0.950 . S
C1866 H1858 0.950 . S
C1866 C1867 1.386 . S
C1866 C1868 1.391 . S
C1867 C1866 1.386 . S
C1867 C1871 1.393 . S
C1868 H1860 0.950 . S
C1868 C1866 1.391 . S
C1868 C1869 1.400 . S
C1869 C1868 1.400 . S
C1869 C1870 1.398 . S
C1869 C1875 1.491 . S
C1870 H1861 0.950 . S
C1870 C1869 1.398 . S
C1870 C1871 1.391 . S
C1871 H1859 0.950 . S
C1871 C1867 1.393 . S
C1871 C1870 1.391 . S
C1872 H1862 0.950 . S
C1872 C1873 1.386 . S
C1872 C1874 1.391 . S
C1873 C1872 1.386 . S
C1873 C1877 1.393 . S
C1874 H1863 0.950 . S
C1874 C1872 1.391 . S
C1874 C1875 1.400 . S
C1875 C1869 1.491 . S
C1875 C1874 1.400 . S
C1875 C1876 1.398 . S
C1876 H1864 0.950 . S
C1876 C1875 1.398 . S
C1876 C1877 1.391 . S
C1877 H1865 0.950 . S
C1877 C1873 1.393 . S
C1877 C1876 1.391 . S
H1878 C1886 0.950 . S
H1879 C1891 0.950 . S
H1880 C1888 0.950 . S
H1881 C1890 0.950 . S
H1882 C1892 0.950 . S
H1883 C1894 0.950 . S
H1884 C1896 0.950 . S
H1885 C1897 0.950 . S
C1886 H1878 0.950 . S
C1886 C1887 1.386 . S
C1886 C1888 1.391 . S
C1887 C1886 1.386 . S
C1887 C1891 1.393 . S
C1888 H1880 0.950 . S
C1888 C1886 1.391 . S
C1888 C1889 1.400 . S
C1889 C1888 1.400 . S
C1889 C1890 1.398 . S
C1889 C1895 1.491 . S
C1890 H1881 0.950 . S
C1890 C1889 1.398 . S
C1890 C1891 1.391 . S
C1891 H1879 0.950 . S
C1891 C1887 1.393 . S
C1891 C1890 1.391 . S
C1892 H1882 0.950 . S
C1892 C1893 1.386 . S
C1892 C1894 1.391 . S
C1893 C1892 1.386 . S
C1893 C1897 1.393 . S
C1894 H1883 0.950 . S
C1894 C1892 1.391 . S
C1894 C1895 1.400 . S
C1895 C1889 1.491 . S
C1895 C1894 1.400 . S
C1895 C1896 1.398 . S
C1896 H1884 0.950 . S
C1896 C1895 1.398 . S
C1896 C1897 1.391 . S
C1897 H1885 0.950 . S
C1897 C1893 1.393 . S
C1897 C1896 1.391 . S
H1898 C1906 0.950 . S
H1899 C1911 0.950 . S
H1900 C1908 0.950 . S
H1901 C1910 0.950 . S
H1902 C1912 0.950 . S
H1903 C1914 0.950 . S
H1904 C1916 0.950 . S
H1905 C1917 0.950 . S
C1906 H1898 0.950 . S
C1906 C1907 1.386 . S
C1906 C1908 1.391 . S
C1907 C1906 1.386 . S
C1907 C1911 1.393 . S
C1908 H1900 0.950 . S
C1908 C1906 1.391 . S
C1908 C1909 1.400 . S
C1909 C1908 1.400 . S
C1909 C1910 1.398 . S
C1909 C1915 1.491 . S
C1910 H1901 0.950 . S
C1910 C1909 1.398 . S
C1910 C1911 1.391 . S
C1911 H1899 0.950 . S
C1911 C1907 1.393 . S
C1911 C1910 1.391 . S
C1912 H1902 0.950 . S
C1912 C1913 1.386 . S
C1912 C1914 1.391 . S
C1913 C1912 1.386 . S
C1913 C1917 1.393 . S
C1914 H1903 0.950 . S
C1914 C1912 1.391 . S
C1914 C1915 1.400 . S
C1915 C1909 1.491 . S
C1915 C1914 1.400 . S
C1915 C1916 1.398 . S
C1916 H1904 0.950 . S
C1916 C1915 1.398 . S
C1916 C1917 1.391 . S
C1917 H1905 0.950 . S
C1917 C1913 1.393 . S
C1917 C1916 1.391 . S
H1918 C1926 0.950 . S
H1919 C1931 0.950 . S
H1920 C1928 0.950 . S
H1921 C1930 0.950 . S
H1922 C1932 0.950 . S
H1923 C1934 0.950 . S
H1924 C1936 0.950 . S
H1925 C1937 0.950 . S
C1926 H1918 0.950 . S
C1926 C1927 1.386 . S
C1926 C1928 1.391 . S
C1927 C1926 1.386 . S
C1927 C1931 1.393 . S
C1928 H1920 0.950 . S
C1928 C1926 1.391 . S
C1928 C1929 1.400 . S
C1929 C1928 1.400 . S
C1929 C1930 1.398 . S
C1929 C1935 1.491 . S
C1930 H1921 0.950 . S
C1930 C1929 1.398 . S
C1930 C1931 1.391 . S
C1931 H1919 0.950 . S
C1931 C1927 1.393 . S
C1931 C1930 1.391 . S
C1932 H1922 0.950 . S
C1932 C1933 1.386 . S
C1932 C1934 1.391 . S
C1933 C1932 1.386 . S
C1933 C1937 1.393 . S
C1934 H1923 0.950 . S
C1934 C1932 1.391 . S
C1934 C1935 1.400 . S
C1935 C1929 1.491 . S
C1935 C1934 1.400 . S
C1935 C1936 1.398 . S
C1936 H1924 0.950 . S
C1936 C1935 1.398 . S
C1936 C1937 1.391 . S
C1937 H1925 0.950 . S
C1937 C1933 1.393 . S
C1937 C1936 1.391 . S
H1938 C1946 0.950 . S
H1939 C1951 0.950 . S
H1940 C1948 0.950 . S
H1941 C1950 0.950 . S
H1942 C1952 0.950 . S
H1943 C1954 0.950 . S
H1944 C1956 0.950 . S
H1945 C1957 0.950 . S
C1946 H1938 0.950 . S
C1946 C1947 1.386 . S
C1946 C1948 1.391 . S
C1947 C1946 1.386 . S
C1947 C1951 1.393 . S
C1948 H1940 0.950 . S
C1948 C1946 1.391 . S
C1948 C1949 1.400 . S
C1949 C1948 1.400 . S
C1949 C1950 1.398 . S
C1949 C1955 1.491 . S
C1950 H1941 0.950 . S
C1950 C1949 1.398 . S
C1950 C1951 1.391 . S
C1951 H1939 0.950 . S
C1951 C1947 1.393 . S
C1951 C1950 1.391 . S
C1952 H1942 0.950 . S
C1952 C1953 1.386 . S
C1952 C1954 1.391 . S
C1953 C1952 1.386 . S
C1953 C1957 1.393 . S
C1954 H1943 0.950 . S
C1954 C1952 1.391 . S
C1954 C1955 1.400 . S
C1955 C1949 1.491 . S
C1955 C1954 1.400 . S
C1955 C1956 1.398 . S
C1956 H1944 0.950 . S
C1956 C1955 1.398 . S
C1956 C1957 1.391 . S
C1957 H1945 0.950 . S
C1957 C1953 1.393 . S
C1957 C1956 1.391 . S
H1958 C1966 0.950 . S
H1959 C1971 0.950 . S
H1960 C1968 0.950 . S
H1961 C1970 0.950 . S
H1962 C1972 0.950 . S
H1963 C1974 0.950 . S
H1964 C1976 0.950 . S
H1965 C1977 0.950 . S
C1966 H1958 0.950 . S
C1966 C1967 1.386 . S
C1966 C1968 1.391 . S
C1967 C1966 1.386 . S
C1967 C1971 1.393 . S
C1968 H1960 0.950 . S
C1968 C1966 1.391 . S
C1968 C1969 1.400 . S
C1969 C1968 1.400 . S
C1969 C1970 1.398 . S
C1969 C1975 1.491 . S
C1970 H1961 0.950 . S
C1970 C1969 1.398 . S
C1970 C1971 1.391 . S
C1971 H1959 0.950 . S
C1971 C1967 1.393 . S
C1971 C1970 1.391 . S
C1972 H1962 0.950 . S
C1972 C1973 1.386 . S
C1972 C1974 1.391 . S
C1973 C1972 1.386 . S
C1973 C1977 1.393 . S
C1974 H1963 0.950 . S
C1974 C1972 1.391 . S
C1974 C1975 1.400 . S
C1975 C1969 1.491 . S
C1975 C1974 1.400 . S
C1975 C1976 1.398 . S
C1976 H1964 0.950 . S
C1976 C1975 1.398 . S
C1976 C1977 1.391 . S
C1977 H1965 0.950 . S
C1977 C1973 1.393 . S
C1977 C1976 1.391 . S
H1978 C1986 0.950 . S
H1979 C1991 0.950 . S
H1980 C1988 0.950 . S
H1981 C1990 0.950 . S
H1982 C1992 0.950 . S
H1983 C1994 0.950 . S
H1984 C1996 0.950 . S
H1985 C1997 0.950 . S
C1986 H1978 0.950 . S
C1986 C1987 1.386 . S
C1986 C1988 1.391 . S
C1987 C1986 1.386 . S
C1987 C1991 1.393 . S
C1988 H1980 0.950 . S
C1988 C1986 1.391 . S
C1988 C1989 1.400 . S
C1989 C1988 1.400 . S
C1989 C1990 1.398 . S
C1989 C1995 1.491 . S
C1990 H1981 0.950 . S
C1990 C1989 1.398 . S
C1990 C1991 1.391 . S
C1991 H1979 0.950 . S
C1991 C1987 1.393 . S
C1991 C1990 1.391 . S
C1992 H1982 0.950 . S
C1992 C1993 1.386 . S
C1992 C1994 1.391 . S
C1993 C1992 1.386 . S
C1993 C1997 1.393 . S
C1994 H1983 0.950 . S
C1994 C1992 1.391 . S
C1994 C1995 1.400 . S
C1995 C1989 1.491 . S
C1995 C1994 1.400 . S
C1995 C1996 1.398 . S
C1996 H1984 0.950 . S
C1996 C1995 1.398 . S
C1996 C1997 1.391 . S
C1997 H1985 0.950 . S
C1997 C1993 1.393 . S
C1997 C1996 1.391 . S
C927 C124 1.428 . S
C933 C229 1.363 . S
C947 C130 1.480 . S
C953 C313 1.403 . S
C967 C115 1.464 . S
C973 C393 1.424 . S
C987 C106 1.434 . S
C993 C309 1.391 . S
C1013 C397 1.339 . S
C1007 C85 1.428 . S
C1027 C97 1.401 . S
C1033 C225 1.375 . S
C1053 C218 1.395 . S
C1047 C103 1.456 . S
C1073 C302 1.390 . S
C1067 C88 1.454 . S
C1087 C94 1.456 . S
C1093 C404 1.414 . S
C1107 C121 1.431 . S
C1113 C320 1.389 . S
C1127 C133 1.405 . S
C1133 C386 1.315 . S
C1153 C236 1.381 . S
C1147 C112 1.420 . S
C1173 C481 1.352 . S
C1167 C16 1.435 . S
C1187 C22 1.481 . S
C1193 C565 1.397 . S
C1207 C7 1.459 . S
C1213 C645 1.421 . S
C1227 C160 1.433 . S
C1233 C561 1.394 . S
C1247 C139 1.428 . S
C1253 C649 1.368 . S
C1267 C151 1.394 . S
C1273 C477 1.351 . S
C1287 C157 1.455 . S
C1293 C470 1.362 . S
C1307 C142 1.459 . S
C1313 C554 1.374 . S
C1333 C656 1.431 . S
C1327 C148 1.464 . S
C1347 C13 1.437 . S
C1353 C572 1.408 . S
C1373 C638 1.348 . S
C1367 C25 1.405 . S
C1387 C4 1.421 . S
C1393 C488 1.382 . S
C1413 C733 1.348 . S
C1407 C70 1.429 . S
C1427 C76 1.480 . S
C1433 C817 1.412 . S
C1453 C897 1.438 . S
C1447 C61 1.466 . S
C1473 C813 1.392 . S
C1467 C52 1.432 . S
C1493 C901 1.353 . S
C1487 C31 1.426 . S
C1507 C43 1.403 . S
C1513 C729 1.373 . S
C1527 C49 1.456 . S
C1533 C722 1.364 . S
C1547 C34 1.454 . S
C1553 C806 1.391 . S
C1573 C908 1.413 . S
C1567 C40 1.456 . S
C1587 C67 1.436 . S
C1593 C824 1.405 . S
C1607 C79 1.403 . S
C1613 C890 1.348 . S
C1627 C58 1.426 . S
C1633 C740 1.397 . S
C1647 C140 1.478 . S
C1653 C232 1.344 . S
C1673 C316 1.366 . S
C1667 C149 1.505 . S
C1687 C158 1.503 . S
C1693 C388 1.355 . S
C1707 C59 1.523 . S
C1713 C304 1.368 . S
C1727 C68 1.485 . S
C1733 C400 1.365 . S
C1753 C220 1.365 . S
C1747 C77 1.477 . S
C1767 C32 1.478 . S
C1773 C484 1.376 . S
C1787 C41 1.506 . S
C1793 C568 1.350 . S
C1807 C50 1.503 . S
C1813 C640 1.367 . S
C1827 C113 1.524 . S
C1833 C556 1.403 . S
C1853 C652 1.340 . S
C1847 C122 1.485 . S
C1867 C131 1.477 . S
C1873 C472 1.357 . S
C1887 C86 1.478 . S
C1893 C736 1.352 . S
C1907 C95 1.505 . S
C1913 C820 1.381 . S
C1933 C892 1.356 . S
C1927 C104 1.502 . S
C1947 C5 1.524 . S
C1953 C808 1.383 . S
C1967 C14 1.485 . S
C1973 C904 1.348 . S
C1987 C23 1.478 . S
C1993 C724 1.378 . S
