# Generated by pormake.
# Topology tsx, (6,3)-cn, num edge types: 1
# Building blocks:
#     Node 0, Type 0, BuildingBlock: MIDCAF_clean_sbu_0, # of connection points: 6
#     Node 1, Type 0, BuildingBlock: MIDCAF_clean_sbu_0, # of connection points: 6
#     Node 2, Type 1, BuildingBlock: BETDAH_clean_linker_0, # of connection points: 3
#     Node 3, Type 1, BuildingBlock: BETDAH_clean_linker_0, # of connection points: 3
#     Node 4, Type 1, BuildingBlock: BETDAH_clean_linker_0, # of connection points: 3
#     Node 5, Type 1, BuildingBlock: BETDAH_clean_linker_0, # of connection points: 3
#     Edge 6, Type (0, 1), BuildingBlock: ZUJKAS_clean_linker_0, # of connection points: 2
#     Edge 7, Type (0, 1), BuildingBlock: ZUJKAS_clean_linker_0, # of connection points: 2
#     Edge 8, Type (0, 1), BuildingBlock: ZUJKAS_clean_linker_0, # of connection points: 2
#     Edge 9, Type (0, 1), BuildingBlock: ZUJKAS_clean_linker_0, # of connection points: 2
#     Edge 10, Type (0, 1), BuildingBlock: ZUJKAS_clean_linker_0, # of connection points: 2
#     Edge 11, Type (0, 1), BuildingBlock: ZUJKAS_clean_linker_0, # of connection points: 2
#     Edge 12, Type (0, 1), BuildingBlock: ZUJKAS_clean_linker_0, # of connection points: 2
#     Edge 13, Type (0, 1), BuildingBlock: ZUJKAS_clean_linker_0, # of connection points: 2
#     Edge 14, Type (0, 1), BuildingBlock: ZUJKAS_clean_linker_0, # of connection points: 2
#     Edge 15, Type (0, 1), BuildingBlock: ZUJKAS_clean_linker_0, # of connection points: 2
#     Edge 16, Type (0, 1), BuildingBlock: ZUJKAS_clean_linker_0, # of connection points: 2
#     Edge 17, Type (0, 1), BuildingBlock: ZUJKAS_clean_linker_0, # of connection points: 2
# Relax obj value: 0.080
# Max RMSD: 0.150
# Mean RMSD: 0.111
data_MOF--net-tsx--node1-MIDCAF_clean_sbu_0--node2-BETDAH_clean_linker_0--edge1-ZUJKAS_clean_linker_0
_symmetry_space_group_name_H-M    P1
_symmetry_Int_Tables_number       1
_symmetry_cell_setting            triclinic
loop_
_symmetry_equiv_pos_as_xyz
'x, y, z'
_cell_length_a     26.327929
_cell_length_b     26.951415
_cell_length_c     46.038382
_cell_angle_alpha  90.470212
_cell_angle_beta   102.54078
_cell_angle_gamma 90.113191
loop_
_atom_site_label
_atom_site_type_symbol
_atom_site_fract_x
_atom_site_fract_y
_atom_site_fract_z
_atom_type_partial_charge
Zn0 Zn 0.96494 0.01255 0.96739 0.0
Zn1 Zn 0.14153 0.00407 0.05177 0.0
Zn2 Zn 0.05387 0.01143 0.00908 0.0
C3 C 0.12158 0.10559 0.03867 0.0
C4 C 0.15819 0.95257 0.00166 0.0
O5 O 0.99281 0.97037 0.02531 0.0
O6 O 0.9218 0.97354 0.98936 0.0
C7 C 0.99337 0.11137 0.98424 0.0
O8 O 0.08155 0.08774 0.02037 0.0
O9 O 0.15352 0.07703 0.0549 0.0
O10 O 0.18085 0.96354 0.02803 0.0
O11 O 0.11155 0.96788 0.991 0.0
O12 O 0.95893 0.08605 0.96696 0.0
O13 O 0.03211 0.08989 0.00138 0.0
O14 O 0.06907 0.97856 0.96747 0.0
O15 O 0.99306 0.98028 0.93547 0.0
C16 C 0.04106 0.97046 0.94117 0.0
O17 O 0.03568 0.97737 0.0493 0.0
O18 O 0.11014 0.97219 0.08246 0.0
C19 C 0.94469 0.95902 0.01484 0.0
C20 C 0.06142 0.96612 0.07556 0.0
Zn21 Zn 0.6383 0.52219 0.5438 0.0
Zn22 Zn 0.45857 0.50028 0.48053 0.0
Zn23 Zn 0.54736 0.51542 0.5135 0.0
C24 C 0.52728 0.47849 0.44525 0.0
C25 C 0.46612 0.6014 0.49597 0.0
O26 O 0.5438 0.48729 0.55783 0.0
O27 O 0.61814 0.51852 0.58305 0.0
C28 C 0.64592 0.4503 0.50344 0.0
O29 O 0.55813 0.48203 0.47111 0.0
O30 O 0.47946 0.4876 0.44238 0.0
O31 O 0.43242 0.5677 0.48797 0.0
O32 O 0.51461 0.5901 0.5038 0.0
O33 O 0.67117 0.4644 0.52867 0.0
O34 O 0.60058 0.46886 0.49281 0.0
O35 O 0.56781 0.59592 0.51705 0.0
O36 O 0.65328 0.58853 0.52946 0.0
C37 C 0.61363 0.61537 0.5213 0.0
O38 O 0.49896 0.47041 0.53829 0.0
O39 O 0.43641 0.44327 0.5014 0.0
C40 C 0.57494 0.49789 0.58278 0.0
C41 C 0.45909 0.44225 0.52848 0.0
H42 H 0.10824 0.95026 0.36859 0.0
H43 H 0.97017 0.02868 0.37804 0.0
H44 H 0.09221 0.00107 0.45477 0.0
C45 C 0.08573 0.96916 0.3824 0.0
C46 C 0.10612 0.97325 0.41311 0.0
C47 C 0.03639 0.98839 0.36945 0.0
C48 C 0.00824 0.01384 0.38766 0.0
C49 C 0.02861 0.01854 0.41849 0.0
C50 C 0.07696 0.9976 0.43099 0.0
N51 N 1.00142 0.04315 0.43783 0.0
C52 C 0.95828 0.07337 0.42872 0.0
H53 H 0.95025 0.97996 0.64545 0.0
H54 H 0.08254 0.06795 0.63679 0.0
H55 H 0.96149 0.03552 0.55978 0.0
C56 C 0.97062 0.00163 0.63179 0.0
C57 C 0.94963 0.00541 0.60114 0.0
C58 C 0.01866 0.02376 0.6448 0.0
C59 C 0.04574 0.05047 0.62681 0.0
C60 C 0.02489 0.05495 0.59607 0.0
C61 C 0.97728 0.032 0.58346 0.0
N62 N 0.05048 0.0821 0.57708 0.0
C63 C 0.09552 0.11013 0.58662 0.0
H64 H 0.64655 0.44997 0.8901 0.0
H65 H 0.52535 0.55685 0.89033 0.0
H66 H 0.63359 0.52144 0.97184 0.0
C67 C 0.62684 0.47589 0.902 0.0
C68 C 0.64512 0.48247 0.93271 0.0
C69 C 0.58405 0.50288 0.88639 0.0
C70 C 0.55827 0.53579 0.90218 0.0
C71 C 0.57626 0.54246 0.93313 0.0
C72 C 0.61986 0.51613 0.94806 0.0
N73 N 0.55212 0.5755 0.95009 0.0
C74 C 0.50802 0.60344 0.93894 0.0
H75 H 0.47009 0.46559 0.14728 0.0
H76 H 0.58717 0.57246 0.138 0.0
H77 H 0.46339 0.53617 0.06326 0.0
C78 C 0.48692 0.49067 0.13364 0.0
C79 C 0.4619 0.49686 0.10372 0.0
C80 C 0.53217 0.51772 0.14634 0.0
C81 C 0.55218 0.55165 0.12856 0.0
C82 C 0.527 0.55849 0.09859 0.0
C83 C 0.48206 0.53118 0.08646 0.0
N84 N 0.54555 0.59234 0.07983 0.0
C85 C 0.59087 0.62019 0.08813 0.0
H86 H 0.10048 0.17316 0.99343 0.0
H87 H 0.13561 0.25788 0.99452 0.0
H88 H 0.20609 0.24196 0.08771 0.0
H89 H 0.17047 0.15832 0.08688 0.0
H90 H 0.16687 0.33939 0.07155 0.0
H91 H 0.29464 0.2648 0.99942 0.0
H92 H 0.22528 0.26069 0.98602 0.0
H93 H 0.25639 0.22436 0.01732 0.0
C94 C 0.12198 0.18849 0.01432 0.0
C95 C 0.13311 0.15921 0.04004 0.0
C96 C 0.14232 0.23666 0.01486 0.0
C97 C 0.17405 0.2558 0.0411 0.0
C98 C 0.18172 0.22788 0.06723 0.0
H99 H 0.44824 0.39778 0.11001 0.0
H100 H 0.37129 0.34769 0.08932 0.0
C101 C 0.16163 0.17998 0.06669 0.0
C102 C 0.20544 0.30141 0.04118 0.0
H103 H 0.31915 0.33978 0.02426 0.0
C104 C 0.1993 0.34042 0.06052 0.0
C105 C 0.24795 0.30221 0.02692 0.0
C106 C 0.25695 0.26082 0.00633 0.0
C107 C 0.23659 0.37845 0.06755 0.0
C108 C 0.2808 0.37727 0.05483 0.0
C109 C 0.285 0.34036 0.03387 0.0
C110 C 0.32681 0.40871 0.06654 0.0
C111 C 0.23075 0.41748 0.09025 0.0
C112 C 0.32717 0.45955 0.06036 0.0
C113 C 0.37122 0.48839 0.07223 0.0
C114 C 0.41527 0.46671 0.09054 0.0
C115 C 0.41466 0.41565 0.09636 0.0
C116 C 0.37092 0.38696 0.08441 0.0
H117 H 0.19483 0.41217 0.09884 0.0
H118 H 0.2649 0.41666 0.10926 0.0
H119 H 0.22951 0.45478 0.08009 0.0
H120 H 0.29347 0.47683 0.04646 0.0
H121 H 0.37055 0.52771 0.06749 0.0
H122 H 0.26211 0.9477 0.00545 0.0
H123 H 0.30939 0.88588 0.98272 0.0
H124 H 0.16426 0.8212 0.93626 0.0
H125 H 0.11634 0.8829 0.95934 0.0
H126 H 0.28043 0.77454 0.9918 0.0
H127 H 0.27442 0.83625 0.87583 0.0
H128 H 0.27401 0.88097 0.90525 0.0
H129 H 0.21808 0.84259 0.89205 0.0
C130 C 0.24018 0.92092 0.98995 0.0
C131 C 0.18555 0.9202 0.98406 0.0
C132 C 0.26723 0.88581 0.97692 0.0
C133 C 0.24023 0.8493 0.95777 0.0
C134 C 0.18564 0.84959 0.95072 0.0
H135 H 0.40803 0.57628 0.93434 0.0
H136 H 0.33415 0.63262 0.93281 0.0
C137 C 0.15839 0.88492 0.96381 0.0
C138 C 0.26979 0.80769 0.9486 0.0
H139 H 0.32778 0.76744 0.89324 0.0
C140 C 0.29012 0.77231 0.97009 0.0
C141 C 0.28236 0.80549 0.92035 0.0
C142 C 0.26127 0.84322 0.89685 0.0
C143 C 0.32448 0.73563 0.9645 0.0
C144 C 0.33828 0.73396 0.93646 0.0
C145 C 0.31672 0.76859 0.91459 0.0
C146 C 0.37896 0.6995 0.93092 0.0
C147 C 0.34791 0.70062 0.98923 0.0
C148 C 0.42781 0.71839 0.92892 0.0
C149 C 0.46972 0.68632 0.92964 0.0
C150 C 0.46309 0.63508 0.93216 0.0
C151 C 0.41364 0.61582 0.93221 0.0
C152 C 0.37165 0.64789 0.93144 0.0
H153 H 0.34025 0.71258 0.01103 0.0
H154 H 0.33088 0.66307 0.98399 0.0
H155 H 0.39064 0.6978 0.99141 0.0
H156 H 0.43427 0.75809 0.92864 0.0
H157 H 0.50784 0.70174 0.92982 0.0
H158 H 0.84168 0.96307 0.01421 0.0
H159 H 0.79095 0.90534 0.03731 0.0
H160 H 0.93091 0.82598 0.07631 0.0
H161 H 0.982 0.88354 0.05291 0.0
H162 H 0.79332 0.80154 0.0226 0.0
H163 H 0.84738 0.83827 0.14472 0.0
H164 H 0.85488 0.88449 0.1177 0.0
H165 H 0.89922 0.83348 0.12495 0.0
C166 C 0.86176 0.93382 0.02812 0.0
C167 C 0.91576 0.92787 0.03193 0.0
C168 C 0.83282 0.90109 0.04141 0.0
C169 C 0.8573 0.86178 0.0587 0.0
C170 C 0.91151 0.85669 0.0635 0.0
H171 H 0.6852 0.59358 0.08014 0.0
H172 H 0.75786 0.64998 0.07826 0.0
C173 C 0.94059 0.88955 0.05014 0.0
C174 C 0.82495 0.82278 0.0681 0.0
H175 H 0.78844 0.77199 0.12822 0.0
C176 C 0.79245 0.79485 0.04569 0.0
C177 C 0.82409 0.81442 0.09825 0.0
C178 C 0.85795 0.8443 0.12292 0.0
C179 C 0.75831 0.75917 0.05252 0.0
C180 C 0.75714 0.75074 0.08264 0.0
C181 C 0.78996 0.77834 0.10519 0.0
C182 C 0.71935 0.71538 0.09039 0.0
C183 C 0.72258 0.73171 0.02739 0.0
C184 C 0.67475 0.73336 0.09897 0.0
C185 C 0.63343 0.70125 0.10003 0.0
C186 C 0.63661 0.65097 0.0927 0.0
C187 C 0.6824 0.63234 0.08603 0.0
C188 C 0.72372 0.6644 0.08497 0.0
H189 H 0.72226 0.74855 0.0054 0.0
H190 H 0.73574 0.6927 0.02677 0.0
H191 H 0.68215 0.73119 0.03088 0.0
H192 H 0.67061 0.77265 0.103 0.0
H193 H 0.59806 0.71616 0.10503 0.0
H194 H 0.95327 0.17275 0.939 0.0
H195 H 0.91825 0.25544 0.94311 0.0
H196 H 0.97655 0.25363 0.03822 0.0
H197 H 0.01187 0.17017 0.03411 0.0
H198 H 0.8704 0.26521 0.02166 0.0
H199 H 0.96446 0.39874 0.95985 0.0
H200 H 0.94871 0.34242 0.9388 0.0
H201 H 0.99505 0.34116 0.97392 0.0
C202 C 0.96028 0.19073 0.96065 0.0
C203 C 0.98511 0.16521 0.98623 0.0
C204 C 0.94062 0.2382 0.96298 0.0
C205 C 0.94518 0.26097 0.99095 0.0
C206 C 0.97312 0.23691 0.0164 0.0
H207 H 0.73295 0.51821 0.9703 0.0
H208 H 0.81173 0.47137 0.99266 0.0
C209 C 0.99339 0.18939 0.01402 0.0
C210 C 0.91215 0.30454 0.99349 0.0
H211 H 0.87162 0.41285 0.9582 0.0
C212 C 0.87167 0.29834 0.00861 0.0
C213 C 0.91396 0.34801 0.97675 0.0
C214 C 0.9583 0.35819 0.96169 0.0
C215 C 0.83016 0.33188 0.00486 0.0
C216 C 0.82911 0.37229 0.98541 0.0
C217 C 0.87216 0.38136 0.97279 0.0
C218 C 0.78081 0.4006 0.97438 0.0
C219 C 0.78621 0.3222 0.02034 0.0
C220 C 0.73767 0.37622 0.95676 0.0
C221 C 0.69318 0.40273 0.94387 0.0
C222 C 0.69091 0.45417 0.94843 0.0
C223 C 0.73365 0.47848 0.96668 0.0
C224 C 0.77857 0.4519 0.97934 0.0
H225 H 0.79956 0.3002 0.04087 0.0
H226 H 0.76904 0.35749 0.02624 0.0
H227 H 0.75526 0.30065 0.0052 0.0
H228 H 0.73897 0.33676 0.95229 0.0
H229 H 0.66071 0.38312 0.92999 0.0
H230 H 0.68437 0.65834 0.4952 0.0
H231 H 0.71747 0.74306 0.50312 0.0
H232 H 0.59792 0.77816 0.55083 0.0
H233 H 0.56451 0.69254 0.5429 0.0
H234 H 0.67797 0.84381 0.49491 0.0
H235 H 0.73812 0.78666 0.61359 0.0
H236 H 0.71531 0.7422 0.58414 0.0
H237 H 0.67011 0.78316 0.59614 0.0
C238 C 0.66402 0.68461 0.50649 0.0
C239 C 0.62216 0.66902 0.5186 0.0
C240 C 0.68293 0.73302 0.51098 0.0
C241 C 0.66074 0.76662 0.52798 0.0
C242 C 0.61589 0.75255 0.53787 0.0
H243 H 0.85955 0.0047 0.62165 0.0
H244 H 0.78041 0.9564 0.60225 0.0
C245 C 0.59659 0.70388 0.53315 0.0
C246 C 0.68993 0.8127 0.53878 0.0
H247 H 0.77473 0.85908 0.59979 0.0
C248 C 0.6983 0.84788 0.51797 0.0
C249 C 0.71655 0.81781 0.56886 0.0
C250 C 0.71004 0.78048 0.59208 0.0
C251 C 0.73412 0.88697 0.52624 0.0
C252 C 0.76325 0.89015 0.55592 0.0
C253 C 0.75259 0.85661 0.57703 0.0
C254 C 0.80808 0.92473 0.56521 0.0
C255 C 0.74094 0.92393 0.50295 0.0
C256 C 0.84994 0.9234 0.55077 0.0
C257 C 0.89511 0.95111 0.56175 0.0
C258 C 0.8997 0.9801 0.58772 0.0
C259 C 0.85732 0.98234 0.60175 0.0
C260 C 0.81199 0.95495 0.59061 0.0
H261 H 0.70451 0.92779 0.48565 0.0
H262 H 0.75247 0.96102 0.51292 0.0
H263 H 0.77169 0.91061 0.49172 0.0
H264 H 0.84868 0.89925 0.53171 0.0
H265 H 0.92735 0.94807 0.5507 0.0
H266 H 0.59678 0.38894 0.45757 0.0
H267 H 0.6362 0.32118 0.43407 0.0
H268 H 0.78617 0.35683 0.48935 0.0
H269 H 0.74773 0.42464 0.51245 0.0
H270 H 0.73854 0.32355 0.40683 0.0
H271 H 0.74233 0.20589 0.50587 0.0
H272 H 0.69733 0.25668 0.49599 0.0
H273 H 0.76403 0.26896 0.51353 0.0
C274 C 0.63831 0.38307 0.4642 0.0
C275 C 0.66908 0.41222 0.48689 0.0
C276 C 0.66068 0.34425 0.45085 0.0
C277 C 0.71395 0.334 0.46018 0.0
C278 C 0.74492 0.36411 0.48199 0.0
H279 H 0.9631 0.17142 0.41971 0.0
H280 H 0.89429 0.23199 0.42094 0.0
C281 C 0.72278 0.40275 0.49522 0.0
C282 C 0.73754 0.29005 0.44898 0.0
H283 H 0.79561 0.18047 0.47297 0.0
C284 C 0.75026 0.29173 0.42096 0.0
C285 C 0.75218 0.24851 0.46736 0.0
C286 C 0.73801 0.24443 0.4973 0.0
C287 C 0.77988 0.25388 0.41153 0.0
C288 C 0.79767 0.21394 0.43087 0.0
C289 C 0.78221 0.21109 0.45814 0.0
C290 C 0.83599 0.17703 0.4248 0.0
C291 C 0.79254 0.25744 0.38121 0.0
C292 C 0.82626 0.12593 0.42651 0.0
C293 C 0.86574 0.09143 0.42604 0.0
C294 C 0.91536 0.10761 0.42387 0.0
C295 C 0.92468 0.1583 0.42093 0.0
C296 C 0.8853 0.19283 0.42145 0.0
H297 H 0.76249 0.27898 0.36573 0.0
H298 H 0.83028 0.27704 0.38328 0.0
H299 H 0.79576 0.22012 0.37139 0.0
H300 H 0.78874 0.11292 0.42942 0.0
H301 H 0.85815 0.05238 0.42871 0.0
H302 H 0.44297 0.34416 0.52007 0.0
H303 H 0.39176 0.29015 0.54522 0.0
H304 H 0.37437 0.41017 0.60484 0.0
H305 H 0.42538 0.46478 0.57919 0.0
H306 H 0.39752 0.26019 0.60564 0.0
H307 H 0.22419 0.37652 0.55974 0.0
H308 H 0.28401 0.38211 0.54694 0.0
H309 H 0.27974 0.40696 0.58262 0.0
C310 C 0.42934 0.35857 0.53905 0.0
C311 C 0.43841 0.40828 0.54797 0.0
C312 C 0.40015 0.32775 0.55341 0.0
C313 C 0.37879 0.34626 0.57668 0.0
C314 C 0.39014 0.39529 0.58674 0.0
H315 H 0.11081 0.19278 0.62106 0.0
H316 H 0.18446 0.25104 0.6265 0.0
C317 C 0.41959 0.42626 0.57233 0.0
C318 C 0.34044 0.31531 0.58773 0.0
H319 H 0.20956 0.30125 0.58133 0.0
C320 C 0.35649 0.26951 0.60087 0.0
C321 C 0.28694 0.32756 0.58151 0.0
C322 C 0.26731 0.37577 0.56678 0.0
C323 C 0.32025 0.23481 0.60684 0.0
C324 C 0.26649 0.24582 0.59887 0.0
C325 C 0.25075 0.29277 0.58737 0.0
C326 C 0.22569 0.20775 0.59922 0.0
C327 C 0.33988 0.18633 0.62108 0.0
C328 C 0.22449 0.16398 0.58225 0.0
C329 C 0.18269 0.13088 0.57924 0.0
C330 C 0.14135 0.14116 0.593 0.0
C331 C 0.14279 0.18411 0.61053 0.0
C332 C 0.18469 0.21729 0.61359 0.0
H333 H 0.37968 0.19057 0.63516 0.0
H334 H 0.31374 0.17171 0.63499 0.0
H335 H 0.34187 0.15861 0.60341 0.0
H336 H 0.25474 0.15644 0.57022 0.0
H337 H 0.18178 0.09818 0.56528 0.0
H338 H 0.37881 0.63417 0.51126 0.0
H339 H 0.33944 0.71608 0.50248 0.0
H340 H 0.47177 0.76732 0.4698 0.0
H341 H 0.51174 0.68464 0.47871 0.0
H342 H 0.37957 0.82097 0.51985 0.0
H343 H 0.3368 0.77345 0.39874 0.0
H344 H 0.3528 0.72595 0.42662 0.0
H345 H 0.4023 0.76774 0.42035 0.0
C346 C 0.40008 0.66319 0.50282 0.0
C347 C 0.44819 0.65321 0.49558 0.0
C348 C 0.37767 0.70998 0.49794 0.0
C349 C 0.40256 0.74753 0.48536 0.0
C350 C 0.45203 0.73867 0.47956 0.0
H351 H 0.19745 0.97991 0.39413 0.0
H352 H 0.27885 0.93581 0.41366 0.0
C353 C 0.4749 0.69169 0.48479 0.0
C354 C 0.37302 0.79312 0.47524 0.0
H355 H 0.29163 0.83994 0.41379 0.0
C356 C 0.36121 0.826 0.49659 0.0
C357 C 0.34933 0.79957 0.4449 0.0
C358 C 0.36058 0.76491 0.42116 0.0
C359 C 0.32435 0.86385 0.4885 0.0
C360 C 0.29749 0.86776 0.45842 0.0
C361 C 0.31191 0.83685 0.43687 0.0
C362 C 0.25094 0.89976 0.44909 0.0
C363 C 0.31394 0.89856 0.51239 0.0
C364 C 0.20818 0.89448 0.46255 0.0
C365 C 0.16185 0.91986 0.45155 0.0
C366 C 0.15696 0.95033 0.4265 0.0
C367 C 0.20003 0.95637 0.41335 0.0
C368 C 0.24659 0.93138 0.42457 0.0
H369 H 0.34936 0.90366 0.53034 0.0
H370 H 0.30068 0.93547 0.50325 0.0
H371 H 0.2833 0.88228 0.52261 0.0
H372 H 0.20978 0.86908 0.48082 0.0
H373 H 0.12908 0.9139 0.46185 0.0
H374 H 0.96627 0.99829 0.08213 0.0
H375 H 0.93279 0.99517 0.12779 0.0
H376 H 0.06299 0.90476 0.16899 0.0
H377 H 0.09667 0.90763 0.1235 0.0
H378 H 0.94203 0.89091 0.18128 0.0
H379 H 0.04719 0.07228 0.20064 0.0
H380 H 0.00732 0.05687 0.16465 0.0
H381 H 0.06758 0.0251 0.17762 0.0
C382 C 0.98655 0.976 0.10046 0.0
C383 C 0.03416 0.95328 0.09934 0.0
C384 C 0.96742 0.97437 0.12653 0.0
C385 C 0.99561 0.94989 0.15165 0.0
C386 C 0.04063 0.92359 0.14969 0.0
H387 H 0.0424 0.90568 0.33554 0.0
H388 H 0.01912 0.89788 0.28165 0.0
C389 C 0.05991 0.92543 0.12377 0.0
C390 C 0.9845 0.95918 0.18131 0.0
H391 H 0.02028 0.03698 0.24099 0.0
C392 C 0.9582 0.92321 0.19428 0.0
C393 C 0.00517 0.00164 0.19795 0.0
C394 C 0.03346 0.04142 0.18471 0.0
C395 C 0.95392 0.92775 0.22412 0.0
C396 C 0.97807 0.9685 0.2415 0.0
C397 C 1.00179 0.00572 0.22782 0.0
C398 C 0.98476 0.97092 0.2744 0.0
C399 C 0.92409 0.88855 0.23671 0.0
C400 C 0.97392 0.01486 0.28857 0.0
C401 C 0.98884 0.02006 0.31955 0.0
C402 C 0.01496 0.9814 0.33697 0.0
C403 C 0.02332 0.93661 0.32281 0.0
C404 C 0.00897 0.93166 0.29191 0.0
H405 H 0.89196 0.87315 0.21919 0.0
H406 H 0.9506 0.85746 0.24521 0.0
H407 H 0.90748 0.90341 0.2552 0.0
H408 H 0.95567 0.04587 0.27555 0.0
H409 H 0.98202 0.05514 0.32966 0.0
H410 H 0.13905 0.99293 0.93385 0.0
H411 H 0.16718 0.99242 0.88642 0.0
H412 H 0.02355 0.92034 0.84389 0.0
H413 H 0.99594 0.9197 0.8911 0.0
H414 H 0.10933 0.89299 0.81909 0.0
H415 H 0.08848 0.09794 0.82971 0.0
H416 H 0.13555 0.06733 0.85797 0.0
H417 H 0.06742 0.05548 0.85481 0.0
C418 C 0.11453 0.97508 0.91466 0.0
C419 C 0.065 0.9569 0.91602 0.0
C420 C 0.13045 0.97523 0.88752 0.0
C421 C 0.09684 0.95749 0.86152 0.0
C422 C 0.04997 0.9345 0.86364 0.0
H423 H 0.96743 0.03634 0.68966 0.0
H424 H 0.99983 0.02097 0.74265 0.0
C425 C 0.03414 0.93429 0.89063 0.0
C426 C 0.10511 0.96974 0.83154 0.0
H427 H 0.09097 0.06624 0.78282 0.0
C428 C 0.10686 0.93093 0.81125 0.0
C429 C 0.10123 0.01936 0.82136 0.0
C430 C 0.09776 0.06257 0.84193 0.0
C431 C 0.10162 0.94021 0.78073 0.0
C432 C 0.09473 0.98953 0.77043 0.0
C433 C 0.09644 0.02853 0.79094 0.0
C434 C 0.07737 0.00072 0.73839 0.0
C435 C 0.09958 0.8971 0.75941 0.0
C436 C 0.11062 0.99524 0.71853 0.0
C437 C 0.09213 0.00413 0.68811 0.0
C438 C 0.04008 0.01828 0.6772 0.0
C439 C 0.00748 0.02489 0.69736 0.0
C440 C 0.026 0.01633 0.72763 0.0
H441 H 0.10212 0.86075 0.77084 0.0
H442 H 0.06286 0.89817 0.74216 0.0
H443 H 0.13239 0.89999 0.74791 0.0
H444 H 0.15054 0.98364 0.72651 0.0
H445 H 0.11802 0.99855 0.67304 0.0
H446 H 0.52491 0.41829 0.60105 0.0
H447 H 0.5001 0.40896 0.64939 0.0
H448 H 0.56867 0.55186 0.67724 0.0
H449 H 0.59157 0.56174 0.62912 0.0
H450 H 0.56666 0.40694 0.70421 0.0
H451 H 0.43036 0.56244 0.70202 0.0
H452 H 0.4472 0.53806 0.66866 0.0
H453 H 0.48848 0.58327 0.69152 0.0
C454 C 0.53311 0.44812 0.61728 0.0
C455 C 0.55904 0.49111 0.61126 0.0
C456 C 0.51937 0.44268 0.64488 0.0
C457 C 0.53127 0.48037 0.66662 0.0
C458 C 0.55755 0.52304 0.66051 0.0
H459 H 0.64733 0.50087 0.84696 0.0
H460 H 0.62341 0.4874 0.79337 0.0
C461 C 0.57125 0.52836 0.63315 0.0
C462 C 0.52151 0.47405 0.6969 0.0
H463 H 0.48047 0.53938 0.7513 0.0
C464 C 0.54655 0.43511 0.71433 0.0
C465 C 0.49434 0.51013 0.71003 0.0
C466 C 0.46309 0.55048 0.69193 0.0
C467 C 0.54947 0.43413 0.74512 0.0
C468 C 0.52763 0.47356 0.75877 0.0
C469 C 0.49815 0.50971 0.74092 0.0
C470 C 0.54077 0.48127 0.79145 0.0
C471 C 0.57792 0.39199 0.76293 0.0
C472 C 0.502 0.4844 0.80808 0.0
C473 C 0.51565 0.49228 0.83895 0.0
C474 C 0.56824 0.49737 0.85353 0.0
C475 C 0.6066 0.4958 0.83654 0.0
C476 C 0.593 0.48795 0.80589 0.0
H477 H 0.57584 0.35768 0.74916 0.0
H478 H 0.61959 0.40214 0.77057 0.0
H479 H 0.56173 0.38398 0.78276 0.0
H480 H 0.46138 0.48009 0.79724 0.0
H481 H 0.48527 0.49332 0.85147 0.0
H482 H 0.62491 0.49805 0.43614 0.0
H483 H 0.64976 0.50125 0.38773 0.0
H484 H 0.49969 0.44192 0.34503 0.0
H485 H 0.47448 0.43903 0.39297 0.0
H486 H 0.64257 0.42738 0.33426 0.0
H487 H 0.51229 0.59113 0.31594 0.0
H488 H 0.53876 0.56669 0.35249 0.0
H489 H 0.48405 0.53681 0.32855 0.0
C490 C 0.5979 0.48423 0.41655 0.0
C491 C 0.54747 0.46897 0.4182 0.0
C492 C 0.61214 0.48615 0.38895 0.0
C493 C 0.57619 0.47252 0.36289 0.0
C494 C 0.52772 0.45301 0.36494 0.0
H495 H 0.54521 0.43187 0.17855 0.0
H496 H 0.56935 0.42407 0.23241 0.0
C497 C 0.51338 0.45144 0.39232 0.0
C498 C 0.58548 0.48474 0.33324 0.0
H499 H 0.53624 0.55652 0.27324 0.0
C500 C 0.62008 0.45609 0.32096 0.0
C501 C 0.55698 0.52299 0.3163 0.0
C502 C 0.52125 0.55656 0.32901 0.0
C503 C 0.6245 0.46288 0.29132 0.0
C504 C 0.59267 0.49851 0.27358 0.0
C505 C 0.56054 0.52904 0.28665 0.0
C506 C 0.58763 0.50196 0.24087 0.0
C507 C 0.66275 0.43148 0.27932 0.0
C508 C 0.58975 0.54834 0.22744 0.0
C509 C 0.5743 0.5532 0.19656 0.0
C510 C 0.5565 0.51168 0.17847 0.0
C511 C 0.55773 0.46479 0.19184 0.0
C512 C 0.57256 0.46008 0.2227 0.0
H513 H 0.69663 0.4216 0.29729 0.0
H514 H 0.64347 0.39635 0.27013 0.0
H515 H 0.67709 0.45077 0.26143 0.0
H516 H 0.60093 0.58127 0.241 0.0
H517 H 0.57354 0.58991 0.18709 0.0
loop_
_geom_bond_atom_site_label_1
_geom_bond_atom_site_label_2
_geom_bond_distance
_geom_bond_site_symmetry_2
_ccdc_geom_bond_type
Zn0 O6 1.920 1_545 S
Zn0 O12 1.898 . S
Zn0 O15 1.905 1_545 S
Zn1 O9 1.905 . S
Zn1 O10 1.898 1_545 S
Zn1 O18 1.920 1_545 S
Zn2 O5 2.080 1_445 S
Zn2 O8 2.114 . S
Zn2 O11 2.120 1_545 S
Zn2 O13 2.120 1_455 S
Zn2 O14 2.114 1_554 S
Zn2 O17 2.080 . S
C3 O8 1.166 . S
C3 O9 1.182 . S
C4 O10 1.167 . S
C4 O11 1.299 . S
O5 Zn2 2.080 1_665 S
O5 C19 1.305 . S
O6 Zn0 1.920 1_565 S
O6 C19 1.234 1_556 S
C7 O12 1.167 . S
C7 O13 1.299 1_556 S
O8 Zn2 2.114 . S
O8 C3 1.166 . S
O9 Zn1 1.905 . S
O9 C3 1.182 . S
O10 Zn1 1.898 1_565 S
O10 C4 1.167 . S
O11 Zn2 2.120 1_565 S
O11 C4 1.299 . S
O12 Zn0 1.898 . S
O12 C7 1.167 . S
O13 Zn2 2.120 1_655 S
O13 C7 1.299 1_554 S
O14 Zn2 2.114 1_556 S
O14 C16 1.166 1_545 S
O15 Zn0 1.905 1_565 S
O15 C16 1.182 1_655 S
C16 O14 1.166 1_565 S
C16 O15 1.182 1_455 S
O17 Zn2 2.080 . S
O17 C20 1.305 1_545 S
O18 Zn1 1.920 1_565 S
O18 C20 1.234 . S
C19 O5 1.305 . S
C19 O6 1.234 1_554 S
C20 O17 1.305 1_565 S
C20 O18 1.234 . S
Zn21 O27 1.920 . S
Zn21 O33 1.898 . S
Zn21 O36 1.905 . S
Zn22 O30 1.905 . S
Zn22 O31 1.898 . S
Zn22 O39 1.920 . S
Zn23 O26 2.080 . S
Zn23 O29 2.114 . S
Zn23 O32 2.120 . S
Zn23 O34 2.120 . S
Zn23 O35 2.114 . S
Zn23 O38 2.080 . S
C24 O29 1.166 . S
C24 O30 1.182 . S
C25 O31 1.167 . S
C25 O32 1.299 . S
O26 Zn23 2.080 . S
O26 C40 1.305 . S
O27 Zn21 1.920 . S
O27 C40 1.234 . S
C28 O33 1.167 . S
C28 O34 1.299 . S
O29 Zn23 2.114 . S
O29 C24 1.166 . S
O30 Zn22 1.905 . S
O30 C24 1.182 . S
O31 Zn22 1.898 . S
O31 C25 1.167 . S
O32 Zn23 2.120 . S
O32 C25 1.299 . S
O33 Zn21 1.898 . S
O33 C28 1.167 . S
O34 Zn23 2.120 . S
O34 C28 1.299 . S
O35 Zn23 2.114 . S
O35 C37 1.166 . S
O36 Zn21 1.905 . S
O36 C37 1.182 . S
C37 O35 1.166 . S
C37 O36 1.182 . S
O38 Zn23 2.080 . S
O38 C41 1.305 . S
O39 Zn22 1.920 . S
O39 C41 1.234 . S
C40 O26 1.305 . S
C40 O27 1.234 . S
C41 O38 1.305 . S
C41 O39 1.234 . S
H42 C45 0.929 1_565 S
H43 C48 0.929 . S
H44 C50 0.930 . S
C45 H42 0.929 1_545 S
C45 C46 1.398 1_545 S
C45 C47 1.396 . S
C46 C45 1.398 1_565 S
C46 C50 1.407 1_565 S
C47 C45 1.396 . S
C47 C48 1.394 . S
C48 H43 0.929 . S
C48 C47 1.394 . S
C48 C49 1.382 . S
C49 C48 1.382 . S
C49 C50 1.392 . S
C49 N51 1.420 . S
C50 H44 0.930 . S
C50 C46 1.407 1_545 S
C50 C49 1.392 . S
N51 C49 1.420 . S
N51 C52 1.244 . S
C52 N51 1.244 . S
H53 C56 0.929 . S
H54 C59 0.929 . S
H55 C61 0.933 . S
C56 H53 0.929 . S
C56 C57 1.398 . S
C56 C58 1.396 1_565 S
C57 C56 1.398 . S
C57 C61 1.407 1_565 S
C58 C56 1.396 1_545 S
C58 C59 1.394 1_655 S
C59 H54 0.929 . S
C59 C58 1.394 1_455 S
C59 C60 1.382 . S
C60 C59 1.382 . S
C60 C61 1.392 1_455 S
C60 N62 1.420 . S
C61 H55 0.933 . S
C61 C57 1.407 1_545 S
C61 C60 1.392 1_655 S
N62 C60 1.420 . S
N62 C63 1.244 . S
C63 N62 1.244 . S
H64 C67 0.929 . S
H65 C70 0.929 . S
H66 C72 0.930 . S
C67 H64 0.929 . S
C67 C68 1.398 . S
C67 C69 1.396 . S
C68 C67 1.398 . S
C68 C72 1.407 . S
C69 C67 1.396 . S
C69 C70 1.394 . S
C70 H65 0.929 . S
C70 C69 1.394 . S
C70 C71 1.382 . S
C71 C70 1.382 . S
C71 C72 1.392 . S
C71 N73 1.420 . S
C72 H66 0.930 . S
C72 C68 1.407 . S
C72 C71 1.392 . S
N73 C71 1.420 . S
N73 C74 1.244 . S
C74 N73 1.244 . S
H75 C78 0.929 . S
H76 C81 0.929 . S
H77 C83 0.930 . S
C78 H75 0.929 . S
C78 C79 1.398 . S
C78 C80 1.396 . S
C79 C78 1.398 . S
C79 C83 1.407 . S
C80 C78 1.396 . S
C80 C81 1.394 . S
C81 H76 0.929 . S
C81 C80 1.394 . S
C81 C82 1.382 . S
C82 C81 1.382 . S
C82 C83 1.392 . S
C82 N84 1.420 . S
C83 H77 0.930 . S
C83 C79 1.407 . S
C83 C82 1.392 . S
N84 C82 1.420 . S
N84 C85 1.244 . S
C85 N84 1.244 . S
H86 C94 0.929 1_556 S
H87 C96 0.930 1_556 S
H88 C98 0.930 . S
H89 C101 0.929 . S
H90 C104 0.930 . S
H91 C106 0.960 . S
H92 C106 0.960 . S
H93 C106 0.960 . S
C94 H86 0.929 1_554 S
C94 C95 1.377 . S
C94 C96 1.384 . S
C95 C94 1.377 . S
C95 C101 1.390 . S
C96 H87 0.930 1_554 S
C96 C94 1.384 . S
C96 C97 1.372 . S
C97 C96 1.372 . S
C97 C98 1.400 . S
C97 C102 1.490 . S
C98 H88 0.930 . S
C98 C97 1.400 . S
C98 C101 1.386 . S
H99 C115 0.930 . S
H100 C116 0.931 . S
C101 H89 0.929 . S
C101 C95 1.390 . S
C101 C98 1.386 . S
C102 C97 1.490 . S
C102 C104 1.395 . S
C102 C105 1.403 . S
H103 C109 0.930 . S
C104 H90 0.930 . S
C104 C102 1.395 . S
C104 C107 1.403 . S
C105 C102 1.403 . S
C105 C106 1.524 . S
C105 C109 1.400 . S
C106 H91 0.960 . S
C106 H92 0.960 . S
C106 H93 0.960 . S
C106 C105 1.524 . S
C107 C104 1.403 . S
C107 C108 1.392 . S
C107 C111 1.495 . S
C108 C107 1.392 . S
C108 C109 1.385 . S
C108 C110 1.478 . S
C109 H103 0.930 . S
C109 C105 1.400 . S
C109 C108 1.385 . S
C110 C108 1.478 . S
C110 C112 1.381 . S
C110 C116 1.383 . S
C111 C107 1.495 . S
C111 H117 0.959 . S
C111 H118 0.961 . S
C111 H119 0.960 . S
C112 C110 1.381 . S
C112 C113 1.394 . S
C112 H120 0.930 . S
C113 C112 1.394 . S
C113 C114 1.383 . S
C113 H121 0.929 . S
C114 C113 1.383 . S
C114 C115 1.377 . S
C115 H99 0.930 . S
C115 C114 1.377 . S
C115 C116 1.379 . S
C116 H100 0.931 . S
C116 C110 1.383 . S
C116 C115 1.379 . S
H117 C111 0.959 . S
H118 C111 0.961 . S
H119 C111 0.960 . S
H120 C112 0.930 . S
H121 C113 0.929 . S
H122 C130 0.929 . S
H123 C132 0.930 . S
H124 C134 0.930 1_554 S
H125 C137 0.929 . S
H126 C140 0.912 1_554 S
H127 C142 0.960 . S
H128 C142 0.960 . S
H129 C142 0.960 . S
C130 H122 0.929 . S
C130 C131 1.380 . S
C130 C132 1.384 . S
C131 C130 1.380 . S
C131 C137 1.389 1_556 S
C132 H123 0.930 . S
C132 C130 1.384 . S
C132 C133 1.372 . S
C133 C132 1.372 . S
C133 C134 1.400 . S
C133 C138 1.490 . S
C134 H124 0.930 1_556 S
C134 C133 1.400 . S
C134 C137 1.386 1_556 S
H135 C151 0.930 . S
H136 C152 0.931 . S
C137 H125 0.929 . S
C137 C131 1.389 1_554 S
C137 C134 1.386 1_554 S
C138 C133 1.490 . S
C138 C140 1.405 . S
C138 C141 1.403 . S
H139 C145 0.930 . S
C140 H126 0.912 1_556 S
C140 C138 1.405 . S
C140 C143 1.412 . S
C141 C138 1.403 . S
C141 C142 1.524 . S
C141 C145 1.400 . S
C142 H127 0.960 . S
C142 H128 0.960 . S
C142 H129 0.960 . S
C142 C141 1.524 . S
C143 C140 1.412 . S
C143 C144 1.392 . S
C143 C147 1.495 1_556 S
C144 C143 1.392 . S
C144 C145 1.385 . S
C144 C146 1.478 . S
C145 H139 0.930 . S
C145 C141 1.400 . S
C145 C144 1.385 . S
C146 C144 1.478 . S
C146 C148 1.381 . S
C146 C152 1.383 . S
C147 C143 1.495 1_554 S
C147 H153 0.959 . S
C147 H154 0.961 . S
C147 H155 0.960 . S
C148 C146 1.381 . S
C148 C149 1.394 . S
C148 H156 0.930 . S
C149 C148 1.394 . S
C149 C150 1.383 . S
C149 H157 0.929 . S
C150 C149 1.383 . S
C150 C151 1.377 . S
C151 H135 0.930 . S
C151 C150 1.377 . S
C151 C152 1.379 . S
C152 H136 0.931 . S
C152 C146 1.383 . S
C152 C151 1.379 . S
H153 C147 0.959 . S
H154 C147 0.961 . S
H155 C147 0.960 . S
H156 C148 0.930 . S
H157 C149 0.929 . S
H158 C166 0.929 . S
H159 C168 0.930 . S
H160 C170 0.930 1_556 S
H161 C173 0.907 1_556 S
H162 C176 0.930 . S
H163 C178 0.960 . S
H164 C178 0.960 . S
H165 C178 0.960 . S
C166 H158 0.929 . S
C166 C167 1.377 . S
C166 C168 1.384 . S
C167 C166 1.377 . S
C167 C173 1.404 . S
C168 H159 0.930 . S
C168 C166 1.384 . S
C168 C169 1.372 . S
C169 C168 1.372 . S
C169 C170 1.400 . S
C169 C174 1.490 . S
C170 H160 0.930 1_554 S
C170 C169 1.400 . S
C170 C173 1.394 . S
H171 C187 0.930 . S
H172 C188 0.931 . S
C173 H161 0.907 1_554 S
C173 C167 1.404 . S
C173 C170 1.394 . S
C174 C169 1.490 . S
C174 C176 1.395 . S
C174 C177 1.403 . S
H175 C181 0.930 . S
C176 H162 0.930 . S
C176 C174 1.395 . S
C176 C179 1.403 . S
C177 C174 1.403 . S
C177 C178 1.524 . S
C177 C181 1.400 . S
C178 H163 0.960 . S
C178 H164 0.960 . S
C178 H165 0.960 . S
C178 C177 1.524 . S
C179 C176 1.403 . S
C179 C180 1.392 . S
C179 C183 1.495 . S
C180 C179 1.392 . S
C180 C181 1.385 . S
C180 C182 1.478 . S
C181 H175 0.930 . S
C181 C177 1.400 . S
C181 C180 1.385 . S
C182 C180 1.478 . S
C182 C184 1.381 . S
C182 C188 1.383 . S
C183 C179 1.495 . S
C183 H189 0.959 . S
C183 H190 0.961 . S
C183 H191 0.960 . S
C184 C182 1.381 . S
C184 C185 1.394 . S
C184 H192 0.930 . S
C185 C184 1.394 . S
C185 C186 1.383 . S
C185 H193 0.929 . S
C186 C185 1.383 . S
C186 C187 1.377 . S
C187 H171 0.930 . S
C187 C186 1.377 . S
C187 C188 1.379 . S
C188 H172 0.931 . S
C188 C182 1.383 . S
C188 C187 1.379 . S
H189 C183 0.959 . S
H190 C183 0.961 . S
H191 C183 0.960 . S
H192 C184 0.930 . S
H193 C185 0.929 . S
H194 C202 0.929 . S
H195 C204 0.930 . S
H196 C206 0.930 . S
H197 C209 0.929 . S
H198 C212 0.930 . S
H199 C214 0.960 . S
H200 C214 0.960 . S
H201 C214 0.960 1_554 S
C202 H194 0.929 . S
C202 C203 1.377 . S
C202 C204 1.384 . S
C203 C202 1.377 . S
C203 C209 1.390 1_556 S
C204 H195 0.930 . S
C204 C202 1.384 . S
C204 C205 1.372 . S
C205 C204 1.372 . S
C205 C206 1.400 1_556 S
C205 C210 1.490 . S
C206 H196 0.930 . S
C206 C205 1.400 1_554 S
C206 C209 1.386 . S
H207 C223 0.930 . S
H208 C224 0.931 . S
C209 H197 0.929 . S
C209 C203 1.390 1_554 S
C209 C206 1.386 . S
C210 C205 1.490 . S
C210 C212 1.395 . S
C210 C213 1.403 . S
H211 C217 0.930 . S
C212 H198 0.930 . S
C212 C210 1.395 . S
C212 C215 1.403 . S
C213 C210 1.403 . S
C213 C214 1.524 . S
C213 C217 1.400 . S
C214 H199 0.960 . S
C214 H200 0.960 . S
C214 H201 0.960 1_556 S
C214 C213 1.524 . S
C215 C212 1.403 . S
C215 C216 1.392 . S
C215 C219 1.495 . S
C216 C215 1.392 . S
C216 C217 1.385 . S
C216 C218 1.478 . S
C217 H211 0.930 . S
C217 C213 1.400 . S
C217 C216 1.385 . S
C218 C216 1.478 . S
C218 C220 1.381 . S
C218 C224 1.383 . S
C219 C215 1.495 . S
C219 H225 0.959 . S
C219 H226 0.961 . S
C219 H227 0.960 . S
C220 C218 1.381 . S
C220 C221 1.394 . S
C220 H228 0.930 . S
C221 C220 1.394 . S
C221 C222 1.383 . S
C221 H229 0.929 . S
C222 C221 1.383 . S
C222 C223 1.377 . S
C223 H207 0.930 . S
C223 C222 1.377 . S
C223 C224 1.379 . S
C224 H208 0.931 . S
C224 C218 1.383 . S
C224 C223 1.379 . S
H225 C219 0.959 . S
H226 C219 0.961 . S
H227 C219 0.960 . S
H228 C220 0.930 . S
H229 C221 0.929 . S
H230 C238 0.929 . S
H231 C240 0.930 . S
H232 C242 0.930 . S
H233 C245 0.929 . S
H234 C248 0.930 . S
H235 C250 0.960 . S
H236 C250 0.960 . S
H237 C250 0.960 . S
C238 H230 0.929 . S
C238 C239 1.377 . S
C238 C240 1.384 . S
C239 C238 1.377 . S
C239 C245 1.390 . S
C240 H231 0.930 . S
C240 C238 1.384 . S
C240 C241 1.372 . S
C241 C240 1.372 . S
C241 C242 1.400 . S
C241 C246 1.490 . S
C242 H232 0.930 . S
C242 C241 1.400 . S
C242 C245 1.386 . S
H243 C259 0.930 . S
H244 C260 0.931 . S
C245 H233 0.929 . S
C245 C239 1.390 . S
C245 C242 1.386 . S
C246 C241 1.490 . S
C246 C248 1.395 . S
C246 C249 1.403 . S
H247 C253 0.930 . S
C248 H234 0.930 . S
C248 C246 1.395 . S
C248 C251 1.403 . S
C249 C246 1.403 . S
C249 C250 1.524 . S
C249 C253 1.400 . S
C250 H235 0.960 . S
C250 H236 0.960 . S
C250 H237 0.960 . S
C250 C249 1.524 . S
C251 C248 1.403 . S
C251 C252 1.392 . S
C251 C255 1.495 . S
C252 C251 1.392 . S
C252 C253 1.385 . S
C252 C254 1.478 . S
C253 H247 0.930 . S
C253 C249 1.400 . S
C253 C252 1.385 . S
C254 C252 1.478 . S
C254 C256 1.381 . S
C254 C260 1.383 . S
C255 C251 1.495 . S
C255 H261 0.959 . S
C255 H262 0.961 . S
C255 H263 0.960 . S
C256 C254 1.381 . S
C256 C257 1.394 . S
C256 H264 0.930 . S
C257 C256 1.394 . S
C257 C258 1.383 . S
C257 H265 0.929 . S
C258 C257 1.383 . S
C258 C259 1.377 . S
C259 H243 0.930 . S
C259 C258 1.377 . S
C259 C260 1.379 . S
C260 H244 0.931 . S
C260 C254 1.383 . S
C260 C259 1.379 . S
H261 C255 0.959 . S
H262 C255 0.961 . S
H263 C255 0.960 . S
H264 C256 0.930 . S
H265 C257 0.929 . S
H266 C274 0.929 . S
H267 C276 0.930 . S
H268 C278 0.930 . S
H269 C281 0.929 . S
H270 C284 0.930 . S
H271 C286 0.960 . S
H272 C286 0.960 . S
H273 C286 0.960 . S
C274 H266 0.929 . S
C274 C275 1.377 . S
C274 C276 1.384 . S
C275 C274 1.377 . S
C275 C281 1.390 . S
C276 H267 0.930 . S
C276 C274 1.384 . S
C276 C277 1.372 . S
C277 C276 1.372 . S
C277 C278 1.400 . S
C277 C282 1.490 . S
C278 H268 0.930 . S
C278 C277 1.400 . S
C278 C281 1.386 . S
H279 C295 0.930 . S
H280 C296 0.931 . S
C281 H269 0.929 . S
C281 C275 1.390 . S
C281 C278 1.386 . S
C282 C277 1.490 . S
C282 C284 1.395 . S
C282 C285 1.403 . S
H283 C289 0.930 . S
C284 H270 0.930 . S
C284 C282 1.395 . S
C284 C287 1.403 . S
C285 C282 1.403 . S
C285 C286 1.524 . S
C285 C289 1.400 . S
C286 H271 0.960 . S
C286 H272 0.960 . S
C286 H273 0.960 . S
C286 C285 1.524 . S
C287 C284 1.403 . S
C287 C288 1.392 . S
C287 C291 1.495 . S
C288 C287 1.392 . S
C288 C289 1.385 . S
C288 C290 1.478 . S
C289 H283 0.930 . S
C289 C285 1.400 . S
C289 C288 1.385 . S
C290 C288 1.478 . S
C290 C292 1.381 . S
C290 C296 1.383 . S
C291 C287 1.495 . S
C291 H297 0.959 . S
C291 H298 0.961 . S
C291 H299 0.960 . S
C292 C290 1.381 . S
C292 C293 1.394 . S
C292 H300 0.930 . S
C293 C292 1.394 . S
C293 C294 1.383 . S
C293 H301 0.929 . S
C294 C293 1.383 . S
C294 C295 1.377 . S
C295 H279 0.930 . S
C295 C294 1.377 . S
C295 C296 1.379 . S
C296 H280 0.931 . S
C296 C290 1.383 . S
C296 C295 1.379 . S
H297 C291 0.959 . S
H298 C291 0.961 . S
H299 C291 0.960 . S
H300 C292 0.930 . S
H301 C293 0.929 . S
H302 C310 0.929 . S
H303 C312 0.930 . S
H304 C314 0.930 . S
H305 C317 0.929 . S
H306 C320 0.930 . S
H307 C322 0.960 . S
H308 C322 0.960 . S
H309 C322 0.960 . S
C310 H302 0.929 . S
C310 C311 1.377 . S
C310 C312 1.384 . S
C311 C310 1.377 . S
C311 C317 1.390 . S
C312 H303 0.930 . S
C312 C310 1.384 . S
C312 C313 1.372 . S
C313 C312 1.372 . S
C313 C314 1.400 . S
C313 C318 1.490 . S
C314 H304 0.930 . S
C314 C313 1.400 . S
C314 C317 1.386 . S
H315 C331 0.930 . S
H316 C332 0.931 . S
C317 H305 0.929 . S
C317 C311 1.390 . S
C317 C314 1.386 . S
C318 C313 1.490 . S
C318 C320 1.395 . S
C318 C321 1.403 . S
H319 C325 0.930 . S
C320 H306 0.930 . S
C320 C318 1.395 . S
C320 C323 1.403 . S
C321 C318 1.403 . S
C321 C322 1.524 . S
C321 C325 1.400 . S
C322 H307 0.960 . S
C322 H308 0.960 . S
C322 H309 0.960 . S
C322 C321 1.524 . S
C323 C320 1.403 . S
C323 C324 1.392 . S
C323 C327 1.495 . S
C324 C323 1.392 . S
C324 C325 1.385 . S
C324 C326 1.478 . S
C325 H319 0.930 . S
C325 C321 1.400 . S
C325 C324 1.385 . S
C326 C324 1.478 . S
C326 C328 1.381 . S
C326 C332 1.383 . S
C327 C323 1.495 . S
C327 H333 0.959 . S
C327 H334 0.961 . S
C327 H335 0.960 . S
C328 C326 1.381 . S
C328 C329 1.394 . S
C328 H336 0.930 . S
C329 C328 1.394 . S
C329 C330 1.383 . S
C329 H337 0.929 . S
C330 C329 1.383 . S
C330 C331 1.377 . S
C331 H315 0.930 . S
C331 C330 1.377 . S
C331 C332 1.379 . S
C332 H316 0.931 . S
C332 C326 1.383 . S
C332 C331 1.379 . S
H333 C327 0.959 . S
H334 C327 0.961 . S
H335 C327 0.960 . S
H336 C328 0.930 . S
H337 C329 0.929 . S
H338 C346 0.929 . S
H339 C348 0.930 . S
H340 C350 0.930 . S
H341 C353 0.929 . S
H342 C356 0.930 . S
H343 C358 0.960 . S
H344 C358 0.960 . S
H345 C358 0.960 . S
C346 H338 0.929 . S
C346 C347 1.377 . S
C346 C348 1.384 . S
C347 C346 1.377 . S
C347 C353 1.390 . S
C348 H339 0.930 . S
C348 C346 1.384 . S
C348 C349 1.372 . S
C349 C348 1.372 . S
C349 C350 1.400 . S
C349 C354 1.490 . S
C350 H340 0.930 . S
C350 C349 1.400 . S
C350 C353 1.386 . S
H351 C367 0.930 . S
H352 C368 0.931 . S
C353 H341 0.929 . S
C353 C347 1.390 . S
C353 C350 1.386 . S
C354 C349 1.490 . S
C354 C356 1.395 . S
C354 C357 1.403 . S
H355 C361 0.930 . S
C356 H342 0.930 . S
C356 C354 1.395 . S
C356 C359 1.403 . S
C357 C354 1.403 . S
C357 C358 1.524 . S
C357 C361 1.400 . S
C358 H343 0.960 . S
C358 H344 0.960 . S
C358 H345 0.960 . S
C358 C357 1.524 . S
C359 C356 1.403 . S
C359 C360 1.392 . S
C359 C363 1.495 . S
C360 C359 1.392 . S
C360 C361 1.385 . S
C360 C362 1.478 . S
C361 H355 0.930 . S
C361 C357 1.400 . S
C361 C360 1.385 . S
C362 C360 1.478 . S
C362 C364 1.381 . S
C362 C368 1.383 . S
C363 C359 1.495 . S
C363 H369 0.959 . S
C363 H370 0.961 . S
C363 H371 0.960 . S
C364 C362 1.381 . S
C364 C365 1.394 . S
C364 H372 0.930 . S
C365 C364 1.394 . S
C365 C366 1.383 . S
C365 H373 0.929 . S
C366 C365 1.383 . S
C366 C367 1.377 . S
C367 H351 0.930 . S
C367 C366 1.377 . S
C367 C368 1.379 . S
C368 H352 0.931 . S
C368 C362 1.383 . S
C368 C367 1.379 . S
H369 C363 0.959 . S
H370 C363 0.961 . S
H371 C363 0.960 . S
H372 C364 0.930 . S
H373 C365 0.929 . S
H374 C382 0.929 . S
H375 C384 0.930 . S
H376 C386 0.930 . S
H377 C389 0.929 . S
H378 C392 0.929 1_665 S
H379 C394 0.960 . S
H380 C394 0.960 . S
H381 C394 0.960 1_565 S
C382 H374 0.929 . S
C382 C383 1.377 1_545 S
C382 C384 1.384 . S
C383 C382 1.377 1_565 S
C383 C389 1.390 . S
C384 H375 0.930 . S
C384 C382 1.384 . S
C384 C385 1.372 . S
C385 C384 1.372 . S
C385 C386 1.400 1_545 S
C385 C390 1.490 . S
C386 H376 0.930 . S
C386 C385 1.400 1_565 S
C386 C389 1.386 . S
H387 C403 0.930 . S
H388 C404 0.931 . S
C389 H377 0.929 . S
C389 C383 1.390 . S
C389 C386 1.386 . S
C390 C385 1.490 . S
C390 C392 1.395 . S
C390 C393 1.403 . S
H391 C397 0.930 . S
C392 H378 0.929 1_445 S
C392 C390 1.395 . S
C392 C395 1.403 . S
C393 C390 1.403 . S
C393 C394 1.524 . S
C393 C397 1.400 . S
C394 H379 0.960 . S
C394 H380 0.960 . S
C394 H381 0.960 1_545 S
C394 C393 1.524 . S
C395 C392 1.403 . S
C395 C396 1.392 . S
C395 C399 1.495 1_455 S
C396 C395 1.392 . S
C396 C397 1.385 . S
C396 C398 1.478 . S
C397 H391 0.930 . S
C397 C393 1.400 . S
C397 C396 1.385 . S
C398 C396 1.478 . S
C398 C400 1.381 . S
C398 C404 1.383 1_545 S
C399 C395 1.495 1_655 S
C399 H405 0.956 1_545 S
C399 H406 0.961 1_545 S
C399 H407 0.960 . S
C400 C398 1.381 . S
C400 C401 1.394 . S
C400 H408 0.930 . S
C401 C400 1.394 . S
C401 C402 1.383 . S
C401 H409 0.929 . S
C402 C401 1.383 . S
C402 C403 1.377 1_545 S
C403 H387 0.930 . S
C403 C402 1.377 1_565 S
C403 C404 1.379 . S
C404 H388 0.931 . S
C404 C398 1.383 1_565 S
C404 C403 1.379 . S
H405 C399 0.956 1_565 S
H406 C399 0.961 1_565 S
H407 C399 0.960 . S
H408 C400 0.930 . S
H409 C401 0.929 . S
H410 C418 0.929 . S
H411 C420 0.930 . S
H412 C422 0.930 . S
H413 C425 0.929 . S
H414 C428 0.930 . S
H415 C430 0.960 . S
H416 C430 0.960 . S
H417 C430 0.960 . S
C418 H410 0.929 . S
C418 C419 1.377 1_545 S
C418 C420 1.384 . S
C419 C418 1.377 1_565 S
C419 C425 1.390 1_455 S
C420 H411 0.930 . S
C420 C418 1.384 . S
C420 C421 1.373 . S
C421 C420 1.373 . S
C421 C422 1.398 1_445 S
C421 C426 1.490 . S
C422 H412 0.930 . S
C422 C421 1.398 1_665 S
C422 C425 1.386 . S
H423 C439 0.930 1_565 S
H424 C440 0.931 . S
C425 H413 0.929 . S
C425 C419 1.390 1_655 S
C425 C422 1.386 . S
C426 C421 1.490 . S
C426 C428 1.395 1_545 S
C426 C429 1.403 1_455 S
H427 C433 0.930 . S
C428 H414 0.930 . S
C428 C426 1.395 1_565 S
C428 C431 1.403 . S
C429 C426 1.403 1_655 S
C429 C430 1.524 . S
C429 C433 1.400 . S
C430 H415 0.960 . S
C430 H416 0.960 . S
C430 H417 0.960 . S
C430 C429 1.524 . S
C431 C428 1.403 . S
C431 C432 1.392 1_565 S
C431 C435 1.495 . S
C432 C431 1.392 1_545 S
C432 C433 1.385 1_455 S
C432 C434 1.478 . S
C433 H427 0.930 . S
C433 C429 1.400 . S
C433 C432 1.385 1_655 S
C434 C432 1.478 . S
C434 C436 1.381 . S
C434 C440 1.383 1_445 S
C435 C431 1.495 . S
C435 H441 0.959 . S
C435 H442 0.961 . S
C435 H443 0.960 . S
C436 C434 1.381 . S
C436 C437 1.394 . S
C436 H444 0.930 . S
C437 C436 1.394 . S
C437 C438 1.383 . S
C437 H445 0.929 . S
C438 C437 1.383 . S
C438 C439 1.377 1_455 S
C439 H423 0.930 1_545 S
C439 C438 1.377 1_655 S
C439 C440 1.379 1_545 S
C440 H424 0.931 . S
C440 C434 1.383 1_665 S
C440 C439 1.379 1_565 S
H441 C435 0.959 . S
H442 C435 0.961 . S
H443 C435 0.960 . S
H444 C436 0.930 . S
H445 C437 0.929 . S
H446 C454 0.929 . S
H447 C456 0.930 . S
H448 C458 0.930 . S
H449 C461 0.929 . S
H450 C464 0.930 . S
H451 C466 0.960 . S
H452 C466 0.960 . S
H453 C466 0.960 . S
C454 H446 0.929 . S
C454 C455 1.377 . S
C454 C456 1.384 . S
C455 C454 1.377 . S
C455 C461 1.390 . S
C456 H447 0.930 . S
C456 C454 1.384 . S
C456 C457 1.372 . S
C457 C456 1.372 . S
C457 C458 1.400 . S
C457 C462 1.490 . S
C458 H448 0.930 . S
C458 C457 1.400 . S
C458 C461 1.386 . S
H459 C475 0.930 . S
H460 C476 0.931 . S
C461 H449 0.929 . S
C461 C455 1.390 . S
C461 C458 1.386 . S
C462 C457 1.490 . S
C462 C464 1.395 . S
C462 C465 1.403 . S
H463 C469 0.930 . S
C464 H450 0.930 . S
C464 C462 1.395 . S
C464 C467 1.403 . S
C465 C462 1.403 . S
C465 C466 1.524 . S
C465 C469 1.400 . S
C466 H451 0.960 . S
C466 H452 0.960 . S
C466 H453 0.960 . S
C466 C465 1.524 . S
C467 C464 1.403 . S
C467 C468 1.392 . S
C467 C471 1.495 . S
C468 C467 1.392 . S
C468 C469 1.385 . S
C468 C470 1.478 . S
C469 H463 0.930 . S
C469 C465 1.400 . S
C469 C468 1.385 . S
C470 C468 1.478 . S
C470 C472 1.381 . S
C470 C476 1.383 . S
C471 C467 1.495 . S
C471 H477 0.959 . S
C471 H478 0.961 . S
C471 H479 0.960 . S
C472 C470 1.381 . S
C472 C473 1.394 . S
C472 H480 0.930 . S
C473 C472 1.394 . S
C473 C474 1.383 . S
C473 H481 0.929 . S
C474 C473 1.383 . S
C474 C475 1.377 . S
C475 H459 0.930 . S
C475 C474 1.377 . S
C475 C476 1.379 . S
C476 H460 0.931 . S
C476 C470 1.383 . S
C476 C475 1.379 . S
H477 C471 0.959 . S
H478 C471 0.961 . S
H479 C471 0.960 . S
H480 C472 0.930 . S
H481 C473 0.929 . S
H482 C490 0.929 . S
H483 C492 0.930 . S
H484 C494 0.930 . S
H485 C497 0.929 . S
H486 C500 0.930 . S
H487 C502 0.960 . S
H488 C502 0.960 . S
H489 C502 0.960 . S
C490 H482 0.929 . S
C490 C491 1.377 . S
C490 C492 1.384 . S
C491 C490 1.377 . S
C491 C497 1.390 . S
C492 H483 0.930 . S
C492 C490 1.384 . S
C492 C493 1.372 . S
C493 C492 1.372 . S
C493 C494 1.400 . S
C493 C498 1.490 . S
C494 H484 0.930 . S
C494 C493 1.400 . S
C494 C497 1.386 . S
H495 C511 0.930 . S
H496 C512 0.931 . S
C497 H485 0.929 . S
C497 C491 1.390 . S
C497 C494 1.386 . S
C498 C493 1.490 . S
C498 C500 1.395 . S
C498 C501 1.403 . S
H499 C505 0.930 . S
C500 H486 0.930 . S
C500 C498 1.395 . S
C500 C503 1.403 . S
C501 C498 1.403 . S
C501 C502 1.524 . S
C501 C505 1.400 . S
C502 H487 0.960 . S
C502 H488 0.960 . S
C502 H489 0.960 . S
C502 C501 1.524 . S
C503 C500 1.403 . S
C503 C504 1.392 . S
C503 C507 1.495 . S
C504 C503 1.392 . S
C504 C505 1.385 . S
C504 C506 1.478 . S
C505 H499 0.930 . S
C505 C501 1.400 . S
C505 C504 1.385 . S
C506 C504 1.478 . S
C506 C508 1.381 . S
C506 C512 1.383 . S
C507 C503 1.495 . S
C507 H513 0.959 . S
C507 H514 0.961 . S
C507 H515 0.960 . S
C508 C506 1.381 . S
C508 C509 1.394 . S
C508 H516 0.930 . S
C509 C508 1.394 . S
C509 C510 1.383 . S
C509 H517 0.929 . S
C510 C509 1.383 . S
C510 C511 1.377 . S
C511 H495 0.930 . S
C511 C510 1.377 . S
C511 C512 1.379 . S
C512 H496 0.931 . S
C512 C506 1.383 . S
C512 C511 1.379 . S
H513 C507 0.959 . S
H514 C507 0.961 . S
H515 C507 0.960 . S
H516 C508 0.930 . S
H517 C509 0.929 . S
C114 C79 1.277 . S
C95 C3 1.173 . S
C131 C4 1.449 1_556 S
C150 C74 1.540 . S
C167 C19 1.482 . S
C186 C85 1.544 . S
C203 C7 1.177 . S
C222 C68 1.273 . S
C239 C37 1.163 . S
C258 C57 1.290 . S
C275 C28 1.442 . S
C294 C52 1.518 1_655 S
C330 C63 1.539 . S
C311 C41 1.470 . S
C366 C46 1.298 . S
C347 C25 1.164 . S
C383 C20 1.334 . S
C402 C47 1.462 . S
C419 C16 1.388 . S
C438 C58 1.505 1_455 S
C474 C69 1.449 . S
C455 C40 1.348 . S
C491 C24 1.384 . S
C510 C80 1.514 . S
