# Generated by pormake.
# Topology zzz, (3,6)-cn, num edge types: 1
# Building blocks:
#     Node 0, Type 0, BuildingBlock: VETTIZ_charged_linker_0, # of connection points: 3
#     Node 1, Type 0, BuildingBlock: VETTIZ_charged_linker_0, # of connection points: 3
#     Node 2, Type 0, BuildingBlock: VETTIZ_charged_linker_0, # of connection points: 3
#     Node 3, Type 0, BuildingBlock: VETTIZ_charged_linker_0, # of connection points: 3
#     Node 4, Type 0, BuildingBlock: VETTIZ_charged_linker_0, # of connection points: 3
#     Node 5, Type 0, BuildingBlock: VETTIZ_charged_linker_0, # of connection points: 3
#     Node 6, Type 0, BuildingBlock: VETTIZ_charged_linker_0, # of connection points: 3
#     Node 7, Type 0, BuildingBlock: VETTIZ_charged_linker_0, # of connection points: 3
#     Node 8, Type 1, BuildingBlock: KUMBUR_clean_sbu_0, # of connection points: 6
#     Node 9, Type 1, BuildingBlock: KUMBUR_clean_sbu_0, # of connection points: 6
#     Node 10, Type 1, BuildingBlock: KUMBUR_clean_sbu_0, # of connection points: 6
#     Node 11, Type 1, BuildingBlock: KUMBUR_clean_sbu_0, # of connection points: 6
#     Edge 12, Type (0, 1), BuildingBlock: ZUJKAS_clean_linker_0, # of connection points: 2
#     Edge 13, Type (0, 1), BuildingBlock: ZUJKAS_clean_linker_0, # of connection points: 2
#     Edge 14, Type (0, 1), BuildingBlock: ZUJKAS_clean_linker_0, # of connection points: 2
#     Edge 15, Type (0, 1), BuildingBlock: ZUJKAS_clean_linker_0, # of connection points: 2
#     Edge 16, Type (0, 1), BuildingBlock: ZUJKAS_clean_linker_0, # of connection points: 2
#     Edge 17, Type (0, 1), BuildingBlock: ZUJKAS_clean_linker_0, # of connection points: 2
#     Edge 18, Type (0, 1), BuildingBlock: ZUJKAS_clean_linker_0, # of connection points: 2
#     Edge 19, Type (0, 1), BuildingBlock: ZUJKAS_clean_linker_0, # of connection points: 2
#     Edge 20, Type (0, 1), BuildingBlock: ZUJKAS_clean_linker_0, # of connection points: 2
#     Edge 21, Type (0, 1), BuildingBlock: ZUJKAS_clean_linker_0, # of connection points: 2
#     Edge 22, Type (0, 1), BuildingBlock: ZUJKAS_clean_linker_0, # of connection points: 2
#     Edge 23, Type (0, 1), BuildingBlock: ZUJKAS_clean_linker_0, # of connection points: 2
#     Edge 24, Type (0, 1), BuildingBlock: ZUJKAS_clean_linker_0, # of connection points: 2
#     Edge 25, Type (0, 1), BuildingBlock: ZUJKAS_clean_linker_0, # of connection points: 2
#     Edge 26, Type (0, 1), BuildingBlock: ZUJKAS_clean_linker_0, # of connection points: 2
#     Edge 27, Type (0, 1), BuildingBlock: ZUJKAS_clean_linker_0, # of connection points: 2
#     Edge 28, Type (0, 1), BuildingBlock: ZUJKAS_clean_linker_0, # of connection points: 2
#     Edge 29, Type (0, 1), BuildingBlock: ZUJKAS_clean_linker_0, # of connection points: 2
#     Edge 30, Type (0, 1), BuildingBlock: ZUJKAS_clean_linker_0, # of connection points: 2
#     Edge 31, Type (0, 1), BuildingBlock: ZUJKAS_clean_linker_0, # of connection points: 2
#     Edge 32, Type (0, 1), BuildingBlock: ZUJKAS_clean_linker_0, # of connection points: 2
#     Edge 33, Type (0, 1), BuildingBlock: ZUJKAS_clean_linker_0, # of connection points: 2
#     Edge 34, Type (0, 1), BuildingBlock: ZUJKAS_clean_linker_0, # of connection points: 2
#     Edge 35, Type (0, 1), BuildingBlock: ZUJKAS_clean_linker_0, # of connection points: 2
# Relax obj value: 0.279
# Max RMSD: 0.230
# Mean RMSD: 0.213
data_MOF--net-zzz--node1-KUMBUR_clean_sbu_0--node2-VETTIZ_charged_linker_0--edge1-ZUJKAS_clean_linker_0
_symmetry_space_group_name_H-M    P1
_symmetry_Int_Tables_number       1
_symmetry_cell_setting            triclinic
loop_
_symmetry_equiv_pos_as_xyz
'x, y, z'
_cell_length_a     70.627347
_cell_length_b     70.528714
_cell_length_c     24.647391
_cell_angle_alpha  90.657339
_cell_angle_beta   90.169337
_cell_angle_gamma 89.896478
loop_
_atom_site_label
_atom_site_type_symbol
_atom_site_fract_x
_atom_site_fract_y
_atom_site_fract_z
_atom_type_partial_charge
C0 C 0.79207 0.53611 0.22007 0.0
C1 C 0.80994 0.54266 0.23885 0.0
C2 C 0.81841 0.55808 0.21296 0.0
C3 C 0.79282 0.55926 0.14757 0.0
C4 C 0.7836 0.54487 0.17435 0.0
C5 C 0.76447 0.54074 0.14792 0.0
H6 H 0.7062 0.55713 0.92821 0.0
C7 C 0.78168 0.5644 0.09913 0.0
C8 C 0.76477 0.55384 0.09862 0.0
H9 H 0.69198 0.52348 0.06756 0.0
H10 H 0.72318 0.52993 0.10667 0.0
H11 H 0.72412 0.59174 0.99381 0.0
H12 H 0.74653 0.54219 0.9143 0.0
H13 H 0.76411 0.55946 0.90689 0.0
H14 H 0.74098 0.56322 0.87737 0.0
H15 H 0.72424 0.5882 0.92156 0.0
H16 H 0.74398 0.59896 0.95643 0.0
C17 C 0.74883 0.54646 0.18846 0.0
C18 C 0.76365 0.51967 0.13093 0.0
C19 C 0.81403 0.60431 0.95738 0.0
C20 C 0.81028 0.6069 0.90186 0.0
C21 C 0.79206 0.60253 0.88186 0.0
C22 C 0.77854 0.59406 0.91538 0.0
C23 C 0.78336 0.58958 0.96922 0.0
C24 C 0.80072 0.59512 0.98961 0.0
C25 C 0.80435 0.58756 0.04541 0.0
C26 C 0.78642 0.57618 0.05487 0.0
C27 C 0.77412 0.57766 0.01059 0.0
C28 C 0.80585 0.60471 0.08517 0.0
C29 C 0.82231 0.57476 0.04248 0.0
C30 C 0.70942 0.55139 0.96775 0.0
C31 C 0.69622 0.54014 0.99502 0.0
C32 C 0.70173 0.53232 0.04542 0.0
C33 C 0.71978 0.53622 0.06841 0.0
C34 C 0.73251 0.54811 0.04091 0.0
C35 C 0.72703 0.55533 0.99126 0.0
C36 C 0.74178 0.56765 0.96646 0.0
C37 C 0.75679 0.56759 0.01023 0.0
C38 C 0.75177 0.55586 0.05398 0.0
C39 C 0.73318 0.5877 0.95866 0.0
C40 C 0.7487 0.55781 0.91334 0.0
H41 H 0.81753 0.57785 0.14986 0.0
H42 H 0.78505 0.5245 0.24009 0.0
H43 H 0.77634 0.51576 0.10661 0.0
H44 H 0.75113 0.51642 0.10563 0.0
H45 H 0.76326 0.51044 0.16715 0.0
H46 H 0.75188 0.56063 0.20677 0.0
H47 H 0.74791 0.53606 0.22187 0.0
H48 H 0.73481 0.54767 0.16905 0.0
H49 H 0.82776 0.6078 0.97445 0.0
H50 H 0.78868 0.60432 0.83934 0.0
H51 H 0.76521 0.59045 0.89712 0.0
H52 H 0.79697 0.6168 0.07136 0.0
H53 H 0.82066 0.60987 0.08854 0.0
H54 H 0.80043 0.60148 0.12613 0.0
H55 H 0.82366 0.56781 1.0019 0.0
H56 H 0.82204 0.5628 0.07088 0.0
H57 H 0.83539 0.58314 0.04972 0.0
H58 H 0.83196 0.56345 0.22703 0.0
C59 C 0.80998 0.56641 0.16796 0.0
C60 C 0.91599 0.79419 0.93165 0.0
C61 C 0.90661 0.81141 0.94376 0.0
C62 C 0.9032 0.81615 0.99869 0.0
C63 C 0.92313 0.7902 0.02677 0.0
C64 C 0.9238 0.78361 0.97408 0.0
C65 C 0.93429 0.76505 0.96979 0.0
H66 H 1.00487 0.71014 0.03931 0.0
C67 C 0.93622 0.77884 0.0596 0.0
C68 C 0.94139 0.76299 0.02845 0.0
H69 H 0.95425 0.69301 0.9525 0.0
H70 H 0.93777 0.72058 0.98982 0.0
H71 H 1.00244 0.76029 0.02746 0.0
H72 H 0.97623 0.7249 0.14966 0.0
H73 H 0.9898 0.74412 0.17599 0.0
H74 H 1.00153 0.72495 0.14107 0.0
H75 H 0.01657 0.74456 0.06805 0.0
H76 H 0.00792 0.76651 0.09608 0.0
C77 C 0.95092 0.76682 0.92965 0.0
C78 C 0.92009 0.74963 0.95109 0.0
C79 C 0.96952 0.81664 0.20641 0.0
C80 C 0.98679 0.81516 0.23405 0.0
C81 C 0.99792 0.79871 0.22495 0.0
C82 C 0.99205 0.78441 0.18737 0.0
C83 C 0.97481 0.7865 0.15888 0.0
C84 C 0.96397 0.80254 0.16921 0.0
C85 C 0.9461 0.80309 0.13657 0.0
C86 C 0.94792 0.78486 0.10354 0.0
C87 C 0.96468 0.77481 0.11659 0.0
C88 C 0.9461 0.82129 0.10121 0.0
C89 C 0.92918 0.80206 0.1762 0.0
C90 C 0.99057 0.71294 0.02556 0.0
C91 C 0.98122 0.70004 0.9896 0.0
C92 C 0.96209 0.70328 0.97664 0.0
C93 C 0.95279 0.71956 0.99521 0.0
C94 C 0.96291 0.73333 0.02406 0.0
C95 C 0.98078 0.7295 0.04352 0.0
C96 C 0.98625 0.74422 0.08698 0.0
C97 C 0.96891 0.75752 0.08727 0.0
C98 C 0.95618 0.75121 0.04708 0.0
C99 C 1.00433 0.75449 0.0689 0.0
C100 C 0.98868 0.73407 0.14156 0.0
H101 H 0.9086 0.80971 0.08146 0.0
H102 H 0.91833 0.78965 0.89015 0.0
H103 H 0.90909 0.75545 0.92351 0.0
H104 H 0.91265 0.74337 0.98627 0.0
H105 H 0.92712 0.73836 0.92675 0.0
H106 H 0.96054 0.77856 0.94218 0.0
H107 H 0.94569 0.76965 0.88796 0.0
H108 H 0.9593 0.75351 0.92785 0.0
H109 H 0.96044 0.82884 0.21318 0.0
H110 H 0.01132 0.79713 0.24591 0.0
H111 H 1.00115 0.77237 0.18129 0.0
H112 H 0.95688 0.83184 0.11443 0.0
H113 H 0.93244 0.829 0.10347 0.0
H114 H 0.94939 0.81801 0.05807 0.0
H115 H 0.93213 0.79191 0.20945 0.0
H116 H 0.91614 0.79681 0.15623 0.0
H117 H 0.92629 0.81617 0.19497 0.0
H118 H 0.89507 0.82866 1.00947 0.0
C119 C 0.91133 0.80549 0.0403 0.0
C120 C 0.81366 0.98076 0.06663 0.0
C121 C 0.82592 0.97289 0.02659 0.0
C122 C 0.82008 0.95669 0.99747 0.0
C123 C 0.78924 0.95848 0.03887 0.0
C124 C 0.79535 0.9728 0.07315 0.0
C125 C 0.78024 0.97721 0.11569 0.0
H126 H 0.68692 0.96386 0.18976 0.0
C127 C 0.7692 0.95465 0.04922 0.0
C128 C 0.76362 0.96485 0.09598 0.0
H129 H 0.72859 0.99506 0.28278 0.0
H130 H 0.75254 0.98763 0.21401 0.0
H131 H 0.6962 0.98082 0.08462 0.0
H132 H 0.71274 0.92832 0.155 0.0
H133 H 0.7067 0.92357 0.0867 0.0
H134 H 0.68936 0.93407 0.1314 0.0
H135 H 0.68271 0.95976 0.07269 0.0
H136 H 0.70156 0.96671 0.0278 0.0
C137 C 0.77537 0.99849 0.1146 0.0
C138 C 0.78781 0.97073 0.17122 0.0
C139 C 0.73035 0.93085 0.89 0.0
C140 C 0.71071 0.93002 0.88164 0.0
C141 C 0.69863 0.93058 0.9271 0.0
C142 C 0.70592 0.93398 0.97921 0.0
C143 C 0.72543 0.93719 0.98588 0.0
C144 C 0.73739 0.9347 0.94219 0.0
C145 C 0.75771 0.93848 0.95682 0.0
C146 C 0.75562 0.94556 0.01539 0.0
C147 C 0.73671 0.94485 0.03179 0.0
C148 C 0.7653 0.95406 0.91873 0.0
C149 C 0.76876 0.91944 0.95247 0.0
C150 C 0.70116 0.96918 0.19587 0.0
C151 C 0.70568 0.98017 0.24189 0.0
C152 C 0.72463 0.98645 0.24793 0.0
C153 C 0.73853 0.98208 0.20811 0.0
C154 C 0.73355 0.97109 0.16206 0.0
C155 C 0.71501 0.96493 0.15712 0.0
C156 C 0.71144 0.95414 0.10555 0.0
C157 C 0.73108 0.95362 0.08131 0.0
C158 C 0.74427 0.96371 0.11375 0.0
C159 C 0.69721 0.96578 0.07079 0.0
C160 C 0.70457 0.93396 0.12003 0.0
H161 H 0.79833 0.93705 0.98066 0.0
H162 H 0.81818 0.99266 0.09154 0.0
H163 H 0.79404 0.95627 0.16789 0.0
H164 H 0.7766 0.96988 0.20204 0.0
H165 H 0.79902 0.98051 0.18633 0.0
H166 H 0.77156 1.00282 0.07271 0.0
H167 H 0.78764 1.00715 0.12832 0.0
H168 H 0.7632 1.00198 0.14093 0.0
H169 H 0.73993 0.92989 0.85586 0.0
H170 H 0.68341 0.92991 0.92202 0.0
H171 H 0.69595 0.935 0.0118 0.0
H172 H 0.75598 0.96678 0.92031 0.0
H173 H 0.76587 0.94887 0.87607 0.0
H174 H 0.7797 0.95881 0.9291 0.0
H175 H 0.75948 0.90721 0.94182 0.0
H176 H 0.77553 0.9157 0.99165 0.0
H177 H 0.7798 0.91997 0.92051 0.0
H178 H 0.82941 0.95006 0.96795 0.0
C179 C 0.80198 0.94933 1.00404 0.0
C180 C 0.53683 0.72967 0.22812 0.0
C181 C 0.54067 0.7106 0.24171 0.0
C182 C 0.5535 0.70009 0.20993 0.0
C183 C 0.5581 0.72681 0.15084 0.0
C184 C 0.54571 0.7375 0.18204 0.0
C185 C 0.54315 0.7572 0.15877 0.0
H186 H 0.567 0.8192 0.95751 0.0
C187 C 0.56485 0.73848 0.10557 0.0
C188 C 0.55642 0.75653 0.10977 0.0
H189 H 0.52677 0.82948 0.08612 0.0
H190 H 0.53344 0.79819 0.12288 0.0
H191 H 0.59895 0.79966 0.02877 0.0
H192 H 0.55304 0.7783 0.93108 0.0
H193 H 0.57256 0.76365 0.91765 0.0
H194 H 0.57397 0.78851 0.90253 0.0
H195 H 0.5999 0.79912 0.95604 0.0
H196 H 0.60756 0.77918 0.99597 0.0
C197 C 0.54962 0.77196 0.20158 0.0
C198 C 0.52223 0.75945 0.14153 0.0
C199 C 0.60472 0.70724 0.9591 0.0
C200 C 0.61254 0.71375 0.91015 0.0
C201 C 0.61269 0.73347 0.90088 0.0
C202 C 0.60373 0.74612 0.93699 0.0
C203 C 0.59456 0.73906 0.98314 0.0
C204 C 0.59599 0.72005 0.99476 0.0
C205 C 0.586 0.71505 0.04638 0.0
C206 C 0.57731 0.73403 0.06215 0.0
C207 C 0.58214 0.74794 0.02466 0.0
C208 C 0.60119 0.70855 0.08795 0.0
C209 C 0.57064 0.70001 0.03257 0.0
C210 C 0.55981 0.81497 0.9942 0.0
C211 C 0.54654 0.82701 0.01919 0.0
C212 C 0.53708 0.82049 0.06591 0.0
C213 C 0.54096 0.80234 0.08716 0.0
C214 C 0.55422 0.79042 0.06095 0.0
C215 C 0.56333 0.797 0.01524 0.0
C216 C 0.57628 0.78258 0.9902 0.0
C217 C 0.57374 0.76617 0.02834 0.0
C218 C 0.56083 0.7706 0.07026 0.0
C219 C 0.59676 0.79047 0.9923 0.0
C220 C 0.56879 0.778 0.93222 0.0
H221 H 0.57169 0.69907 0.14267 0.0
H222 H 0.52697 0.73804 0.25194 0.0
H223 H 0.51717 0.74644 0.12016 0.0
H224 H 0.52005 0.77113 0.11283 0.0
H225 H 0.51304 0.76188 0.17747 0.0
H226 H 0.56356 0.76785 0.21899 0.0
H227 H 0.53927 0.77298 0.23537 0.0
H228 H 0.55151 0.78619 0.18438 0.0
H229 H 0.60411 0.69229 0.96823 0.0
H230 H 0.61908 0.73912 0.86464 0.0
H231 H 0.60367 0.76084 0.92642 0.0
H232 H 0.61545 0.71429 0.07834 0.0
H233 H 0.60246 0.69285 0.08852 0.0
H234 H 0.59827 0.71385 0.12958 0.0
H235 H 0.56382 0.70308 0.99286 0.0
H236 H 0.55887 0.69981 0.06188 0.0
H237 H 0.57688 0.68557 0.02982 0.0
H238 H 0.55674 0.68551 0.21988 0.0
C239 C 0.56224 0.70806 0.16507 0.0
C240 C 0.3165 0.48033 0.1595 0.0
C241 C 0.32882 0.47039 0.19512 0.0
C242 C 0.32395 0.4518 0.21021 0.0
C243 C 0.29408 0.45442 0.16368 0.0
C244 C 0.2993 0.47164 0.14272 0.0
C245 C 0.28534 0.47754 0.0984 0.0
H246 H 0.20567 0.45081 0.95183 0.0
C247 C 0.27629 0.44842 0.13931 0.0
C248 C 0.2714 0.46078 0.09744 0.0
H249 H 0.23591 0.5035 0.93557 0.0
H250 H 0.25838 0.49356 1.00566 0.0
H251 H 0.2428 0.42231 0.97081 0.0
H252 H 0.19824 0.44771 0.04803 0.0
H253 H 0.20981 0.44194 0.10952 0.0
H254 H 0.20129 0.42366 0.06357 0.0
H255 H 0.21786 0.41732 0.97439 0.0
H256 H 0.2343 0.40703 0.02175 0.0
C257 C 0.29607 0.47933 0.04439 0.0
C258 C 0.27565 0.49614 0.11644 0.0
C259 C 0.22864 0.41155 0.24702 0.0
C260 C 0.21193 0.40202 0.23114 0.0
C261 C 0.20947 0.39717 0.17577 0.0
C262 C 0.22183 0.40418 0.13651 0.0
C263 C 0.23648 0.41629 0.15281 0.0
C264 C 0.24095 0.41819 0.20698 0.0
C265 C 0.2592 0.42885 0.21516 0.0
C266 C 0.26376 0.43417 0.1564 0.0
C267 C 0.2491 0.42855 0.12165 0.0
C268 C 0.27369 0.41546 0.24191 0.0
C269 C 0.25579 0.44669 0.25066 0.0
C270 C 0.21728 0.46017 0.96248 0.0
C271 C 0.21912 0.47779 0.93729 0.0
C272 C 0.23417 0.48976 0.95405 0.0
C273 C 0.2472 0.48398 0.99462 0.0
C274 C 0.24491 0.46625 0.01967 0.0
C275 C 0.22979 0.45496 1.00389 0.0
C276 C 0.22801 0.43738 0.03702 0.0
C277 C 0.24468 0.43973 0.07559 0.0
C278 C 0.25502 0.45646 0.06486 0.0
C279 C 0.23079 0.42 0.99908 0.0
C280 C 0.20846 0.4376 0.06622 0.0
H281 H 0.30474 0.42879 0.19992 0.0
H282 H 0.32043 0.49409 0.14416 0.0
H283 H 0.26997 0.49481 0.15827 0.0
H284 H 0.26358 0.49986 0.0901 0.0
H285 H 0.2859 0.50808 0.11636 0.0
H286 H 0.30459 0.46634 0.03625 0.0
H287 H 0.30584 0.49166 0.04577 0.0
H288 H 0.2864 0.48106 1.00955 0.0
H289 H 0.23143 0.41499 0.28917 0.0
H290 H 0.19741 0.38884 0.16253 0.0
H291 H 0.21941 0.40041 0.09477 0.0
H292 H 0.26689 0.40653 0.2732 0.0
H293 H 0.28478 0.4235 0.26413 0.0
H294 H 0.28022 0.40578 0.21132 0.0
H295 H 0.24464 0.45581 0.23252 0.0
H296 H 0.26896 0.45519 0.25449 0.0
H297 H 0.2513 0.44278 0.2922 0.0
H298 H 0.33346 0.44342 0.23486 0.0
C299 C 0.30695 0.44363 0.19316 0.0
C300 C 0.10906 0.22865 0.25711 0.0
C301 C 0.11622 0.21037 0.24549 0.0
C302 C 0.11447 0.2032 0.19201 0.0
C303 C 0.09465 0.22981 0.16777 0.0
C304 C 0.09818 0.238 0.21781 0.0
C305 C 0.0874 0.25628 0.2254 0.0
H306 H 0.01875 0.31729 0.1468 0.0
C307 C 0.07963 0.24092 0.14078 0.0
C308 C 0.07541 0.25657 0.1738 0.0
H309 H 0.05865 0.32182 0.27981 0.0
H310 H 0.07298 0.29255 0.25308 0.0
H311 H 0.04954 0.29777 0.04957 0.0
H312 H 0.01275 0.26827 0.16191 0.0
H313 H 0.01037 0.26075 0.09335 0.0
H314 H 1.00309 0.2843 0.1127 0.0
H315 H 0.02447 0.30243 0.051 0.0
H316 H 0.03348 0.28134 0.01877 0.0
C317 C 0.10199 0.27274 0.22743 0.0
C318 C 0.075 0.25455 0.27695 0.0
C319 C 0.04927 0.21082 0.97612 0.0
C320 C 0.03254 0.21364 0.94682 0.0
C321 C 0.02121 0.2296 0.96052 0.0
C322 C 0.02679 0.24249 1.00247 0.0
C323 C 0.04358 0.2391 0.03213 0.0
C324 C 0.05426 0.22325 0.01839 0.0
C325 C 0.07047 0.22008 0.0561 0.0
C326 C 0.0683 0.23676 0.09465 0.0
C327 C 0.05274 0.24838 0.08082 0.0
C328 C 0.08904 0.2215 0.02291 0.0
C329 C 0.06738 0.20069 0.0845 0.0
C330 C 0.03067 0.31187 0.1696 0.0
C331 C 0.03755 0.32194 0.21595 0.0
C332 C 0.05298 0.31439 0.24461 0.0
C333 C 0.06141 0.29734 0.22875 0.0
C334 C 0.05437 0.28722 0.18373 0.0
C335 C 0.03931 0.29435 0.15432 0.0
C336 C 0.03394 0.28074 0.10815 0.0
C337 C 0.04901 0.26512 0.11329 0.0
C338 C 0.06058 0.26912 0.15881 0.0
C339 C 0.03537 0.2911 0.0537 0.0
C340 C 0.01391 0.27309 0.11924 0.0
H341 H 0.10237 0.20614 0.11423 0.0
H342 H 0.11063 0.23488 0.29721 0.0
H343 H 0.06835 0.24028 0.27868 0.0
H344 H 0.06309 0.26468 0.27823 0.0
H345 H 0.08362 0.25655 0.31433 0.0
H346 H 0.11589 0.2685 0.20989 0.0
H347 H 0.10468 0.2776 0.26977 0.0
H348 H 0.0974 0.285 0.20288 0.0
H349 H 0.05805 0.19849 0.96801 0.0
H350 H 0.00814 0.23212 0.93868 0.0
H351 H 0.01779 0.25445 0.01085 0.0
H352 H 0.08789 0.23271 0.99163 0.0
H353 H 0.09223 0.20791 1.0016 0.0
H354 H 0.10137 0.22566 0.04806 0.0
H355 H 0.05239 0.1959 0.08195 0.0
H356 H 0.07028 0.20133 0.1286 0.0
H357 H 0.0762 0.18934 0.06582 0.0
H358 H 0.11976 0.18926 0.18114 0.0
C359 C 0.1039 0.21289 0.15313 0.0
C360 C 0.30011 0.04015 0.98217 0.0
C361 C 0.31835 0.04646 0.96667 0.0
C362 C 0.32593 0.06271 0.99179 0.0
C363 C 0.29827 0.0658 0.04895 0.0
C364 C 0.29019 0.05024 0.02345 0.0
C365 C 0.27063 0.04623 0.04657 0.0
H366 H 0.20158 0.07491 0.22756 0.0
C367 C 0.28514 0.07308 0.09072 0.0
C368 C 0.26848 0.06212 0.08916 0.0
H369 H 0.19879 0.02553 0.12316 0.0
H370 H 0.23 0.03314 0.08606 0.0
H371 H 0.23842 0.0666 0.2694 0.0
H372 H 0.22156 0.10429 0.14406 0.0
H373 H 0.23857 0.11637 0.18378 0.0
H374 H 0.21724 0.1078 0.21522 0.0
H375 H 0.23324 0.09091 0.28436 0.0
H376 H 0.25696 0.08298 0.26893 0.0
C377 C 0.27099 0.02649 0.07281 0.0
C378 C 0.25585 0.0479 1.00076 0.0
C379 C 0.30986 0.11902 0.2332 0.0
C380 C 0.30172 0.12575 0.28173 0.0
C381 C 0.28189 0.12533 0.28726 0.0
C382 C 0.27063 0.11617 0.2482 0.0
C383 C 0.27934 0.10704 0.20377 0.0
C384 C 0.29846 0.10953 0.19507 0.0
C385 C 0.30525 0.09877 0.14573 0.0
C386 C 0.28745 0.08784 0.12987 0.0
C387 C 0.27244 0.0927 0.16416 0.0
C388 C 0.32155 0.08536 0.16331 0.0
C389 C 0.31088 0.11346 0.10216 0.0
C390 C 0.20742 0.06588 0.19585 0.0
C391 C 0.19751 0.04988 0.17755 0.0
C392 C 0.2061 0.03808 0.13778 0.0
C393 C 0.22418 0.04251 0.11636 0.0
C394 C 0.23397 0.05865 0.13587 0.0
C395 C 0.22541 0.06979 0.17548 0.0
C396 C 0.23798 0.08519 0.19667 0.0
C397 C 0.25536 0.08222 0.162 0.0
C398 C 0.25323 0.06676 0.12556 0.0
C399 C 0.24184 0.08142 0.25791 0.0
C400 C 0.22838 0.1045 0.18482 0.0
H401 H 0.32286 0.08449 0.04996 0.0
H402 H 0.29389 0.02774 0.96306 0.0
H403 H 0.25771 0.06145 0.9788 0.0
H404 H 0.24121 0.04784 0.01622 0.0
H405 H 0.2574 0.03605 0.97099 0.0
H406 H 0.28375 0.02494 0.09896 0.0
H407 H 0.27139 0.01512 0.04125 0.0
H408 H 0.25868 0.02408 0.09921 0.0
H409 H 0.32507 0.1192 0.22779 0.0
H410 H 0.27528 0.13073 0.32392 0.0
H411 H 0.25573 0.1155 0.25602 0.0
H412 H 0.31797 0.07828 0.20205 0.0
H413 H 0.33492 0.09336 0.16964 0.0
H414 H 0.32437 0.07378 0.13408 0.0
H415 H 0.30493 0.12779 0.11097 0.0
H416 H 0.30523 0.10963 0.06144 0.0
H417 H 0.32649 0.11504 0.09958 0.0
H418 H 0.3398 0.06783 0.98029 0.0
C419 C 0.31603 0.0724 0.0323 0.0
C420 C 0.47973 0.2879 0.91799 0.0
C421 C 0.47086 0.30296 0.89011 0.0
C422 C 0.45235 0.30832 0.90463 0.0
C423 C 0.45314 0.28683 0.97999 0.0
C424 C 0.47021 0.27959 0.96215 0.0
C425 C 0.47597 0.26251 0.99539 0.0
H426 H 0.45964 0.21066 0.22429 0.0
C427 C 0.44818 0.27776 0.03137 0.0
C428 C 0.46107 0.26292 0.04038 0.0
H429 H 0.49786 0.19596 0.09402 0.0
H430 H 0.48976 0.22533 0.04797 0.0
H431 H 0.4722 0.25207 0.23213 0.0
H432 H 0.42427 0.22621 0.15437 0.0
H433 H 0.41672 0.24612 0.19316 0.0
H434 H 0.42874 0.227 0.22622 0.0
H435 H 0.45021 0.24962 0.26715 0.0
H436 H 0.45546 0.27044 0.22788 0.0
C437 C 0.49615 0.2655 0.01797 0.0
C438 C 0.47406 0.24466 0.95877 0.0
C439 C 0.40648 0.31519 0.15991 0.0
C440 C 0.40571 0.31529 0.21692 0.0
C441 C 0.41148 0.29882 0.24454 0.0
C442 C 0.41976 0.28355 0.21624 0.0
C443 C 0.42292 0.285 0.16012 0.0
C444 C 0.41599 0.30051 0.13277 0.0
C445 C 0.42295 0.30128 0.07524 0.0
C446 C 0.43559 0.28378 0.07296 0.0
C447 C 0.43525 0.27418 0.12236 0.0
C448 C 0.43435 0.31995 0.06927 0.0
C449 C 0.40568 0.29957 0.03642 0.0
C450 C 0.46601 0.21352 0.18531 0.0
C451 C 0.47897 0.2007 0.16212 0.0
C452 C 0.48763 0.20547 0.11248 0.0
C453 C 0.48273 0.22236 0.08547 0.0
C454 C 0.46907 0.2346 0.10838 0.0
C455 C 0.46126 0.23015 0.15805 0.0
C456 C 0.44774 0.24503 0.17831 0.0
C457 C 0.447 0.2581 0.13003 0.0
C458 C 0.45982 0.25231 0.08932 0.0
C459 C 0.45671 0.25478 0.22909 0.0
C460 C 0.4283 0.23568 0.18891 0.0
H461 H 0.42954 0.30526 0.95906 0.0
H462 H 0.49365 0.28297 0.90606 0.0
H463 H 0.4617 0.24593 0.93092 0.0
H464 H 0.47138 0.23169 0.98207 0.0
H465 H 0.48689 0.24257 0.93344 0.0
H466 H 0.49723 0.27955 0.03871 0.0
H467 H 0.50675 0.26502 0.98478 0.0
H468 H 0.50009 0.2547 0.04805 0.0
H469 H 0.40157 0.32729 0.13715 0.0
H470 H 0.41099 0.29825 0.28838 0.0
H471 H 0.42438 0.27169 0.23965 0.0
H472 H 0.44465 0.32161 0.10325 0.0
H473 H 0.42479 0.33247 0.06989 0.0
H474 H 0.44271 0.32074 0.0319 0.0
H475 H 0.39288 0.29419 0.05741 0.0
H476 H 0.40829 0.28924 1.00295 0.0
H477 H 0.4019 0.3135 0.01881 0.0
H478 H 0.44512 0.31957 0.88323 0.0
C479 C 0.4434 0.30021 0.94899 0.0
Tb480 Tb 0.02676 1.00691 0.6458 0.0
C481 C 0.95774 0.99256 0.50474 0.0
C482 C 0.97006 0.97243 0.43335 0.0
C483 C 0.93744 0.96881 0.46223 0.0
C484 C 0.97259 0.98685 0.47293 0.0
C485 C 0.93973 0.98419 0.49838 0.0
C486 C 0.95263 0.96293 0.42967 0.0
C487 C 0.92707 0.00886 0.55636 0.0
N488 N 0.96051 0.0077 0.53791 0.0
C489 C 0.94519 0.01674 0.56049 0.0
C490 C 0.9244 0.99222 0.52617 0.0
Tb491 Tb 0.99101 0.01894 0.54706 0.0
N492 N 0.98906 0.99656 0.47771 0.0
C493 C 1.00299 0.99367 0.43984 0.0
C494 C 0.98482 0.96857 0.39728 0.0
C495 C 1.00119 0.97954 0.39981 0.0
H496 H 0.94711 0.02973 0.58353 0.0
H497 H 0.01255 0.97701 0.37123 0.0
H498 H 0.95053 0.95157 0.40028 0.0
H499 H 0.91519 0.0157 0.57622 0.0
H500 H 0.01593 1.00163 0.44076 0.0
H501 H 1.00598 0.045 0.83017 0.0
H502 H 0.98348 0.95761 0.36635 0.0
H503 H 0.06943 0.99896 0.59493 0.0
H504 H 1.00084 0.02466 0.75224 0.0
H505 H 0.10213 0.00998 0.60984 0.0
H506 H 0.92381 0.96197 0.45738 0.0
H507 H 0.03725 0.05934 0.84728 0.0
H508 H 0.07099 0.06335 0.81894 0.0
H509 H 0.91032 0.98624 0.52245 0.0
H510 H 0.09713 0.05418 0.75836 0.0
N511 N 0.02916 0.02694 0.72089 0.0
C512 C 0.0148 0.03039 0.75723 0.0
C513 C 0.03516 0.05036 0.81181 0.0
C514 C 0.04996 0.04656 0.7759 0.0
C515 C 0.01754 0.04221 0.80244 0.0
C516 C 0.04653 0.03452 0.7307 0.0
H517 H 0.10894 0.03404 0.68099 0.0
N518 N 0.05756 0.01681 0.65652 0.0
C519 C 0.09076 0.01562 0.63461 0.0
C520 C 0.06122 0.02934 0.69713 0.0
C521 C 0.07218 0.00938 0.62643 0.0
C522 C 0.09453 0.02925 0.6746 0.0
C523 C 0.07975 0.03604 0.70709 0.0
O524 O 0.04498 0.98426 0.66344 0.0
O525 O 0.00804 0.99655 0.58168 0.0
O526 O 0.97581 1.00453 0.61263 0.0
O527 O 0.99842 1.00424 0.68222 0.0
O528 O 0.03559 0.98773 0.58014 0.0
O529 O 0.01849 0.98717 0.70489 0.0
O530 O 0.97435 0.04282 0.52977 0.0
O531 O 0.00989 0.02897 0.61059 0.0
O532 O 0.04047 0.02563 0.58683 0.0
O533 O 0.0199 0.02247 0.51332 0.0
O534 O 0.9836 0.04075 0.60808 0.0
O535 O 0.99642 0.03397 0.47541 0.0
C536 C 0.01942 0.98553 0.55722 0.0
C537 C 0.0278 0.9562 0.67561 0.0
C538 C 1.00477 0.9308 0.66064 0.0
C539 C 0.00934 0.94898 0.68076 0.0
C540 C 0.01886 0.91998 0.63448 0.0
C541 C 0.04171 0.94492 0.65024 0.0
C542 C 0.03719 0.92702 0.6295 0.0
C543 C 0.9808 1.00231 0.66414 0.0
C544 C 0.03248 0.97582 0.69298 0.0
C545 C 0.08304 0.04875 0.75031 0.0
C546 C 0.06817 0.05395 0.78479 0.0
C547 C 0.99951 0.04129 0.6334 0.0
C548 C 0.99091 0.06704 0.48678 0.0
C549 C 0.01023 0.0715 0.48209 0.0
C550 C 0.01624 0.09048 0.48257 0.0
C551 C 1.00265 0.10498 0.4885 0.0
C552 C 0.97762 0.08173 0.49237 0.0
C553 C 0.9835 0.10059 0.49347 0.0
C554 C 0.03669 0.02698 0.53425 0.0
C555 C 0.9843 0.04725 0.48772 0.0
H556 H 0.99845 0.95754 0.69982 0.0
H557 H 0.01586 0.90583 0.61923 0.0
H558 H 0.05605 0.95006 0.64562 0.0
H559 H 0.04799 0.91851 0.60981 0.0
H560 H 0.0206 0.06027 0.47825 0.0
H561 H 1.00674 0.11977 0.48794 0.0
H562 H 0.96267 0.07859 0.4962 0.0
H563 H 0.97315 0.11184 0.49772 0.0
Tb564 Tb 0.51883 0.0295 0.63856 0.0
C565 C 0.51652 0.9591 0.49855 0.0
C566 C 0.53777 0.96707 0.42585 0.0
C567 C 0.5345 0.93424 0.45265 0.0
C568 C 0.52487 0.97261 0.46686 0.0
C569 C 0.52085 0.93969 0.49103 0.0
C570 C 0.54289 0.94791 0.41988 0.0
C571 C 0.49609 0.9323 0.55449 0.0
N572 N 0.50305 0.96486 0.53398 0.0
C573 C 0.49214 0.95166 0.55975 0.0
C574 C 0.51075 0.92629 0.52064 0.0
Tb575 Tb 0.4982 0.99701 0.54409 0.0
N576 N 0.51949 0.99099 0.47396 0.0
C577 C 0.52615 1.00435 0.43863 0.0
C578 C 0.54466 0.98081 0.39081 0.0
C579 C 0.53874 0.99948 0.39709 0.0
H580 H 0.48056 0.95617 0.58541 0.0
H581 H 0.54395 0.01026 0.37003 0.0
H582 H 0.55293 0.94347 0.38908 0.0
H583 H 0.48774 0.92205 0.57628 0.0
H584 H 0.5225 0.01904 0.4416 0.0
H585 H 0.53634 0.01512 0.84858 0.0
H586 H 0.55424 0.97711 0.3581 0.0
H587 H 0.48442 0.05686 0.58557 0.0
H588 H 0.54137 0.01501 0.74975 0.0
H589 H 0.45868 0.0769 0.61774 0.0
H590 H 0.53815 0.91943 0.44664 0.0
H591 H 0.50826 0.03111 0.8877 0.0
H592 H 0.4795 0.05136 0.87314 0.0
H593 H 0.51367 0.91127 0.51609 0.0
H594 H 0.45908 0.0691 0.81067 0.0
N595 N 0.51546 0.02924 0.73185 0.0
C596 C 0.5287 0.02151 0.76605 0.0
C597 C 0.5102 0.03074 0.8441 0.0
C598 C 0.49748 0.0399 0.80958 0.0
C599 C 0.52604 0.02171 0.82222 0.0
C600 C 0.50062 0.03894 0.75305 0.0
H601 H 0.45155 0.07915 0.71555 0.0
N602 N 0.49289 0.04748 0.6642 0.0
C603 C 0.46716 0.06908 0.64654 0.0
C604 C 0.48912 0.0487 0.71806 0.0
C605 C 0.48209 0.05763 0.62844 0.0
C606 C 0.4631 0.07023 0.70171 0.0
C607 C 0.47405 0.05989 0.73829 0.0
O608 O 0.52914 0.05623 0.61458 0.0
O609 O 0.52358 0.01213 0.56615 0.0
O610 O 0.50943 0.97994 0.61217 0.0
O611 O 0.51882 1.00182 0.67921 0.0
O612 O 0.54367 0.01127 0.62539 0.0
O613 O 0.54285 0.04088 0.67742 0.0
O614 O 0.47637 0.9817 0.50422 0.0
O615 O 0.49272 0.01718 0.60983 0.0
O616 O 0.5148 0.04501 0.56288 0.0
O617 O 0.49938 0.02437 0.50291 0.0
O618 O 0.47939 0.99147 0.61249 0.0
O619 O 0.47649 0.01182 0.50429 0.0
C620 C 0.53943 1.00483 0.57789 0.0
C621 C 0.56258 0.05624 0.61443 0.0
C622 C 0.59319 0.04217 0.59048 0.0
C623 C 0.57703 0.04294 0.62354 0.0
C624 C 0.59543 0.05584 0.55003 0.0
C625 C 0.56508 0.06982 0.57389 0.0
C626 C 0.58151 0.06969 0.54227 0.0
C627 C 0.51565 0.98426 0.66175 0.0
C628 C 0.54437 0.05477 0.64377 0.0
C629 C 0.47055 0.06059 0.79434 0.0
C630 C 0.48217 0.0505 0.82992 0.0
C631 C 0.48122 1.00742 0.63744 0.0
C632 C 0.44706 0.99764 0.51812 0.0
C633 C 0.43669 0.01452 0.51318 0.0
C634 C 0.41978 0.01738 0.54216 0.0
C635 C 0.41275 1.00257 0.57402 0.0
C636 C 0.43974 0.98297 0.54994 0.0
C637 C 0.42261 0.98543 0.57738 0.0
C638 C 0.50656 0.04117 0.51576 0.0
C639 C 0.46642 0.9968 0.49561 0.0
H640 H 0.57549 0.03275 0.65574 0.0
H641 H 0.60766 0.05554 0.52362 0.0
H642 H 0.55419 0.08028 0.56601 0.0
H643 H 0.58324 0.08009 0.51072 0.0
H644 H 0.44221 0.02571 0.48796 0.0
H645 H 0.39987 1.00436 0.59728 0.0
H646 H 0.44746 0.96982 0.5549 0.0
H647 H 0.41719 0.97418 0.60242 0.0
Tb648 Tb 0.53002 0.50603 0.55767 0.0
C649 C 0.44827 0.50296 0.633 0.0
C650 C 0.43107 0.51841 0.56103 0.0
C651 C 0.41585 0.49362 0.61263 0.0
C652 C 0.44778 0.51593 0.59181 0.0
C653 C 0.43211 0.49208 0.64522 0.0
C654 C 0.41532 0.50679 0.57059 0.0
C655 C 0.44823 0.48131 0.72562 0.0
N656 N 0.46409 0.50216 0.66401 0.0
C657 C 0.46373 0.49261 0.71214 0.0
C658 C 0.43248 0.48071 0.69133 0.0
Tb659 Tb 0.48936 0.5204 0.63777 0.0
N660 N 0.46332 0.52684 0.58389 0.0
C661 C 0.46234 0.54167 0.5484 0.0
C662 C 0.43051 0.53281 0.52262 0.0
C663 C 0.4461 0.54469 0.51701 0.0
H664 H 0.47568 0.49339 0.73948 0.0
H665 H 0.4457 0.55612 0.4881 0.0
H666 H 0.40248 0.50831 0.54686 0.0
H667 H 0.44838 0.47323 0.76269 0.0
H668 H 0.47409 0.55105 0.54232 0.0
H669 H 0.57391 0.46052 0.68502 0.0
H670 H 0.41799 0.53514 0.49806 0.0
H671 H 0.54816 0.5337 0.46226 0.0
H672 H 0.54726 0.46752 0.62652 0.0
H673 H 0.57543 0.55536 0.45259 0.0
H674 H 0.40339 0.4852 0.62089 0.0
H675 H 0.59992 0.48349 0.69614 0.0
H676 H 0.61461 0.51432 0.66901 0.0
H677 H 0.42038 0.47213 0.70212 0.0
H678 H 0.61486 0.54097 0.60539 0.0
N679 N 0.55573 0.49618 0.60969 0.0
C680 C 0.55741 0.47867 0.63324 0.0
C681 C 0.58765 0.48723 0.6721 0.0
C682 C 0.58695 0.5042 0.64364 0.0
C683 C 0.57301 0.47421 0.66578 0.0
C684 C 0.57082 0.50807 0.61153 0.0
H685 H 0.6005 0.55612 0.52297 0.0
N686 N 0.55655 0.52405 0.54025 0.0
C687 C 0.57426 0.54654 0.48808 0.0
C688 C 0.57107 0.52284 0.57586 0.0
C689 C 0.55878 0.53441 0.49391 0.0
C690 C 0.58832 0.54698 0.52795 0.0
C691 C 0.58727 0.53441 0.57129 0.0
O692 O 0.54424 0.49719 0.48673 0.0
O693 O 0.4995 0.50878 0.56145 0.0
O694 O 0.48867 0.48939 0.6327 0.0
O695 O 0.5201 0.483 0.61011 0.0
O696 O 0.51238 0.51616 0.49044 0.0
O697 O 0.52465 0.4788 0.52545 0.0
O698 O 0.48497 0.52737 0.71974 0.0
O699 O 0.52015 0.51896 0.63219 0.0
O700 O 0.5277 0.53702 0.54992 0.0
O701 O 0.50022 0.54567 0.59676 0.0
O702 O 0.50813 0.51204 0.70476 0.0
O703 O 0.4795 0.54778 0.65721 0.0
C704 C 0.49618 0.51408 0.51344 0.0
C705 C 0.52372 0.47945 0.42976 0.0
C706 C 0.49614 0.46682 0.38081 0.0
C707 C 0.5079 0.46738 0.4271 0.0
C708 C 0.50109 0.47806 0.33608 0.0
C709 C 0.52843 0.49025 0.38424 0.0
C710 C 0.51719 0.48948 0.33774 0.0
C711 C 0.50335 0.47778 0.6287 0.0
C712 C 0.53416 0.48194 0.4815 0.0
C713 C 0.60246 0.53198 0.60743 0.0
C714 C 0.60234 0.51679 0.64352 0.0
C715 C 0.52398 0.51409 0.68014 0.0
C716 C 0.48992 0.55916 0.7424 0.0
C717 C 0.50843 0.56507 0.73054 0.0
C718 C 0.51754 0.57844 0.76429 0.0
C719 C 0.50785 0.58574 0.80988 0.0
C720 C 0.48055 0.56653 0.78798 0.0
C721 C 0.48951 0.57977 0.82158 0.0
C722 C 0.51489 0.54968 0.56567 0.0
C723 C 0.48034 0.54477 0.70922 0.0
H724 H 0.50475 0.45858 0.46159 0.0
H725 H 0.49251 0.47832 0.29972 0.0
H726 H 0.54056 0.49963 0.3849 0.0
H727 H 0.52077 0.49804 0.3031 0.0
H728 H 0.51571 0.55916 0.69558 0.0
H729 H 0.51428 0.59638 0.83601 0.0
H730 H 0.46633 0.56197 0.79769 0.0
H731 H 0.48219 0.58551 0.85665 0.0
Tb732 Tb 0.0208 0.5352 0.54883 0.0
C733 C 0.02922 0.4551 0.6385 0.0
C734 C 0.01587 0.43318 0.57277 0.0
C735 C 0.04157 0.42296 0.63138 0.0
C736 C 0.01667 0.45142 0.59682 0.0
C737 C 0.04156 0.44083 0.65713 0.0
C738 C 0.0287 0.41913 0.5893 0.0
C739 C 0.05154 0.46228 0.72869 0.0
N740 N 0.02862 0.47244 0.66265 0.0
C741 C 0.03891 0.47588 0.70903 0.0
C742 C 0.05308 0.44476 0.70215 0.0
Tb743 Tb 0.00775 0.49403 0.6269 0.0
N744 N 1.00456 0.46541 0.5819 0.0
C745 C 0.9902 0.46143 0.54607 0.0
C746 C 1.00184 0.42942 0.53404 0.0
C747 C 0.98877 0.44353 0.52131 0.0
H748 H 0.03791 0.48944 0.72969 0.0
H749 H 0.97763 0.44069 0.4921 0.0
H750 H 0.02846 0.40512 0.5708 0.0
H751 H 0.06008 0.46533 0.76425 0.0
H752 H 0.97988 0.47198 0.53518 0.0
H753 H 0.05423 0.58515 0.68857 0.0
H754 H 1.00073 0.41561 0.5146 0.0
H755 H 0.99549 0.54665 0.44039 0.0
H756 H 0.0518 0.55601 0.63506 0.0
H757 H 0.9731 0.5718 0.41296 0.0
H758 H 0.05106 0.41186 0.64474 0.0
H759 H 0.03007 0.6103 0.67912 0.0
H760 H 1.00125 0.62241 0.63038 0.0
H761 H 0.0628 0.4342 0.71762 0.0
H762 H 0.9785 0.61854 0.55515 0.0
N763 N 0.0252 0.56291 0.5987 0.0
C764 C 0.04057 0.56614 0.63159 0.0
C765 C 0.02867 0.5972 0.6561 0.0
C766 C 0.01396 0.59465 0.61876 0.0
C767 C 0.04228 0.58303 0.66157 0.0
C768 C 0.01284 0.57728 0.58982 0.0
H769 H 0.96811 0.59979 0.47275 0.0
N770 N 1.00155 0.55923 0.51737 0.0
C771 C 0.98043 0.57286 0.4515 0.0
C772 C 1.00025 0.5752 0.54791 0.0
C773 C 0.99299 0.55858 0.46735 0.0
C774 C 0.9776 0.58858 0.48541 0.0
C775 C 0.98814 0.59026 0.53333 0.0
O776 O 0.03049 0.54536 0.4741 0.0
O777 O 0.01883 0.50466 0.55192 0.0
O778 O 0.03846 0.49372 0.61402 0.0
O779 O 0.04309 0.5261 0.60722 0.0
O780 O 0.015 0.51656 0.478 0.0
O781 O 0.05021 0.53701 0.5356 0.0
O782 O 0.99952 0.48903 0.70722 0.0
O783 O 0.00783 0.52498 0.6224 0.0
O784 O 0.98971 0.53239 0.54232 0.0
O785 O 0.98344 0.50202 0.57524 0.0
O786 O 0.01414 0.51322 0.69551 0.0
O787 O 0.98007 0.48434 0.64053 0.0
C788 C 0.01569 0.50064 0.50264 0.0
C789 C 0.05903 0.53228 0.44362 0.0
C790 C 0.07636 0.50466 0.40947 0.0
C791 C 0.06599 0.51375 0.45099 0.0
C792 C 0.07949 0.51433 0.36057 0.0
C793 C 0.06228 0.54154 0.39452 0.0
C794 C 0.0724 0.53257 0.35319 0.0
C795 C 0.04929 0.50888 0.6198 0.0
C796 C 0.04811 0.54232 0.48567 0.0
C797 C 0.98792 0.60693 0.56506 0.0
C798 C 1.00089 0.60915 0.60775 0.0
C799 C 0.0117 0.52902 0.67133 0.0
C800 C 0.96731 0.49366 0.7255 0.0
C801 C 0.95737 0.5097 0.70738 0.0
C802 C 0.94265 0.51748 0.73899 0.0
C803 C 0.93875 0.50954 0.78996 0.0
C804 C 0.96303 0.48588 0.77602 0.0
C805 C 0.9489 0.49389 0.80825 0.0
C806 C 0.97832 0.51764 0.54948 0.0
C807 C 0.98229 0.4847 0.69309 0.0
H808 H 0.06326 0.50645 0.48862 0.0
H809 H 0.08778 0.50798 0.32824 0.0
H810 H 0.05694 0.55576 0.38817 0.0
H811 H 0.07493 0.53985 0.31548 0.0
H812 H 0.96084 0.51583 0.6686 0.0
H813 H 0.92789 0.51551 0.81601 0.0
H814 H 0.97068 0.47361 0.79062 0.0
H815 H 0.94574 0.4879 0.84743 0.0
H816 H 0.18579 0.01721 0.22734 0.0
H817 H 0.15774 0.01333 0.28495 0.0
H818 H 0.13927 0.06976 0.24452 0.0
H819 H 0.16736 0.07375 0.1881 0.0
H820 H 0.13877 0.06513 0.35158 0.0
H821 H 0.10246 1.00384 0.25525 0.0
H822 H 0.12663 0.99905 0.27317 0.0
H823 H 0.12138 0.01637 0.22224 0.0
C824 C 0.17544 0.02854 0.22953 0.0
C825 C 0.17877 0.04574 0.20287 0.0
C826 C 0.15939 0.02635 0.26263 0.0
C827 C 0.14619 0.04122 0.26917 0.0
C828 C 0.14916 0.05807 0.24054 0.0
H829 H 0.03584 0.02816 0.42255 0.0
H830 H 0.0621 0.03325 0.36058 0.0
C831 C 0.16519 0.0603 0.20793 0.0
C832 C 0.13002 0.03993 0.30839 0.0
H833 H 0.09111 0.01377 0.34156 0.0
C834 C 0.12826 0.05395 0.34912 0.0
C835 C 0.1162 0.02544 0.30542 0.0
C836 C 0.1166 0.01041 0.26138 0.0
C837 C 0.11325 0.05394 0.38675 0.0
C838 C 0.09955 0.03919 0.38459 0.0
C839 C 0.10138 0.02516 0.34369 0.0
C840 C 0.08316 0.03791 0.4234 0.0
C841 C 0.11242 0.07002 0.42761 0.0
C842 C 0.08574 0.03935 0.47997 0.0
C843 C 0.07045 0.03715 0.51564 0.0
C844 C 0.05231 0.03228 0.49621 0.0
C845 C 0.04962 0.03136 0.43958 0.0
C846 C 0.06476 0.03422 0.40383 0.0
H847 H 0.11793 0.08335 0.41001 0.0
H848 H 0.09792 0.07273 0.44255 0.0
H849 H 0.12156 0.0665 0.46279 0.0
H850 H 0.09967 0.04189 0.49692 0.0
H851 H 0.07297 0.03898 0.55858 0.0
H852 H 0.51346 0.18367 0.18184 0.0
H853 H 0.51957 0.15542 0.23675 0.0
H854 H 0.45954 0.14844 0.26069 0.0
H855 H 0.45341 0.17657 0.20661 0.0
H856 H 0.47861 0.14725 0.35551 0.0
H857 H 0.51298 0.09903 0.20595 0.0
H858 H 0.52405 0.12185 0.21252 0.0
H859 H 0.50035 0.12014 0.18616 0.0
C860 C 0.50158 0.17588 0.19802 0.0
C861 C 0.48296 0.18246 0.19014 0.0
C862 C 0.50508 0.15971 0.22935 0.0
C863 C 0.49001 0.14967 0.25274 0.0
C864 C 0.47142 0.15592 0.24336 0.0
H865 H 0.48943 0.04038 0.41526 0.0
H866 H 0.48604 0.0665 0.35128 0.0
C867 C 0.46794 0.17206 0.21246 0.0
C868 C 0.49341 0.1334 0.28983 0.0
H869 H 0.51295 0.08907 0.29778 0.0
C870 C 0.48612 0.13454 0.34277 0.0
C871 C 0.50302 0.11668 0.27321 0.0
C872 C 0.51041 0.11419 0.21623 0.0
C873 C 0.48823 0.11957 0.37948 0.0
C874 C 0.49825 0.10305 0.36338 0.0
C875 C 0.50542 0.10179 0.31031 0.0
C876 C 0.50119 0.0869 0.40107 0.0
C877 C 0.4793 0.12142 0.43486 0.0
C878 C 0.51114 0.08953 0.44997 0.0
C879 C 0.51304 0.07467 0.48675 0.0
C880 C 0.50517 0.05671 0.47539 0.0
C881 C 0.49564 0.05398 0.42562 0.0
C882 C 0.49372 0.0689 0.38884 0.0
H883 H 0.4681 0.13251 0.43579 0.0
H884 H 0.47298 0.10778 0.44762 0.0
H885 H 0.49032 0.12549 0.46495 0.0
H886 H 0.51735 0.10317 0.45992 0.0
H887 H 0.52057 0.07738 0.52433 0.0
H888 H 0.3639 0.45435 0.18961 0.0
H889 H 0.39212 0.46317 0.24116 0.0
H890 H 0.36345 0.51302 0.30224 0.0
H891 H 0.33484 0.50391 0.25104 0.0
H892 H 0.41617 0.4904 0.2463 0.0
H893 H 0.37866 0.48994 0.44321 0.0
H894 H 0.36768 0.48192 0.38096 0.0
H895 H 0.369 0.50686 0.3969 0.0
C896 C 0.36366 0.46734 0.21349 0.0
C897 C 0.34703 0.47834 0.21651 0.0
C898 C 0.37983 0.47234 0.24335 0.0
C899 C 0.37987 0.4884 0.27763 0.0
C900 C 0.36369 0.50017 0.27781 0.0
H901 H 0.48505 0.53201 0.42216 0.0
H902 H 0.45714 0.52589 0.36555 0.0
C903 C 0.34742 0.49517 0.24768 0.0
C904 C 0.39675 0.4924 0.31328 0.0
H905 H 0.41058 0.50024 0.44508 0.0
C906 C 0.41486 0.49258 0.28976 0.0
C907 C 0.39535 0.49474 0.37044 0.0
C908 C 0.37666 0.49316 0.39953 0.0
C909 C 0.43138 0.49526 0.32116 0.0
C910 C 0.42992 0.49852 0.37792 0.0
C911 C 0.41184 0.49804 0.40164 0.0
C912 C 0.4469 0.50245 0.41319 0.0
C913 C 0.45026 0.49394 0.29306 0.0
C914 C 0.4504 0.49176 0.46011 0.0
C915 C 0.46635 0.49541 0.49294 0.0
C916 C 0.47889 0.51017 0.48038 0.0
C917 C 0.47551 0.5207 0.43324 0.0
C918 C 0.4596 0.51709 0.40057 0.0
H919 H 0.44948 0.4847 0.25629 0.0
H920 H 0.45463 0.50828 0.28004 0.0
H921 H 0.46125 0.48822 0.32048 0.0
H922 H 0.44091 0.48039 0.47106 0.0
H923 H 0.46887 0.4867 0.52814 0.0
H924 H 0.02226 0.32859 0.31536 0.0
H925 H 0.01645 0.35922 0.35963 0.0
H926 H 0.02995 0.38767 0.21084 0.0
H927 H 0.03608 0.35677 0.1665 0.0
H928 H 0.04942 0.40281 0.29616 0.0
H929 H 0.97423 0.3975 0.3557 0.0
H930 H 0.98796 0.37777 0.37895 0.0
H931 H 0.9849 0.38137 0.30725 0.0
C932 C 0.02337 0.34135 0.2915 0.0
C933 C 0.02932 0.34018 0.23704 0.0
C934 C 0.02005 0.35893 0.31696 0.0
C935 C 0.02252 0.37597 0.28878 0.0
C936 C 0.0278 0.37482 0.23365 0.0
H937 H 0.9933 0.48836 0.42031 0.0
H938 H 0.99548 0.45871 0.3677 0.0
C939 C 0.03108 0.35713 0.208 0.0
C940 C 0.0211 0.39476 0.31817 0.0
H941 H 0.99236 0.42172 0.40043 0.0
C942 C 0.03685 0.40697 0.31853 0.0
C943 C 1.00475 0.40044 0.34754 0.0
C944 C 0.98694 0.38867 0.34698 0.0
C945 C 0.03682 0.4243 0.34787 0.0
C946 C 0.02074 0.42965 0.37877 0.0
C947 C 1.00484 0.41764 0.37755 0.0
C948 C 0.01984 0.44791 0.41093 0.0
C949 C 0.05393 0.43691 0.34481 0.0
C950 C 0.03283 0.452 0.45308 0.0
C951 C 0.03147 0.46897 0.48364 0.0
C952 C 0.01694 0.48211 0.47323 0.0
C953 C 1.00436 0.47829 0.43015 0.0
C954 C 1.00561 0.46132 0.39998 0.0
H955 H 0.0633 0.43295 0.31037 0.0
H956 H 0.04964 0.45198 0.34057 0.0
H957 H 0.06218 0.43559 0.38289 0.0
H958 H 0.04384 0.44192 0.4631 0.0
H959 H 0.04175 0.4718 0.5154 0.0
H960 H 0.83171 1.00316 0.96162 0.0
H961 H 0.86028 0.00915 0.90807 0.0
H962 H 0.89011 0.96614 0.99742 0.0
H963 H 0.86133 0.95978 0.04964 0.0
H964 H 0.89702 0.01904 0.92261 0.0
H965 H 0.89398 0.94484 0.84592 0.0
H966 H 0.87532 0.95522 0.8863 0.0
H967 H 0.89658 0.94665 0.91819 0.0
C968 C 0.84461 0.99557 0.97133 0.0
C969 C 0.84437 0.98124 0.01051 0.0
C970 C 0.8609 0.9988 0.94018 0.0
C971 C 0.87729 0.98771 0.94734 0.0
C972 C 0.87755 0.97454 0.98981 0.0
H973 H 0.98302 0.98119 0.75717 0.0
H974 H 0.95878 0.97739 0.82752 0.0
C975 C 0.86121 0.97118 0.02057 0.0
C976 C 0.8935 0.98909 0.90827 0.0
H977 H 0.91982 0.96331 0.81672 0.0
C978 C 0.90199 1.00682 0.89962 0.0
C979 C 0.90005 0.9732 0.87764 0.0
C980 C 0.89091 0.95395 0.88195 0.0
C981 C 0.91677 0.00906 0.86184 0.0
C982 C 0.92323 0.99321 0.83124 0.0
C983 C 0.91497 0.97544 0.84032 0.0
C984 C 0.93791 0.99498 0.78791 0.0
C985 C 0.92546 0.02841 0.85514 0.0
C986 C 0.93424 1.00582 0.74164 0.0
C987 C 0.94797 0.00779 0.70117 0.0
C988 C 0.96574 0.99889 0.70541 0.0
C989 C 0.96941 0.98799 0.75186 0.0
C990 C 0.95556 0.98586 0.79229 0.0
H991 H 0.92241 0.03788 0.89039 0.0
H992 H 0.94104 0.02734 0.84999 0.0
H993 H 0.91949 0.03509 0.81829 0.0
H994 H 0.92074 0.01295 0.73699 0.0
H995 H 0.94486 0.01699 0.66783 0.0
H996 H 0.57196 0.85237 0.97895 0.0
H997 H 0.56546 0.88021 0.92387 0.0
H998 H 0.50554 0.87233 0.94681 0.0
H999 H 0.51193 0.84405 1.00144 0.0
H1000 H 0.54232 0.87776 0.82499 0.0
H1001 H 0.51568 0.93079 0.97548 0.0
H1002 H 0.53027 0.91088 0.9948 0.0
H1003 H 0.50583 0.90726 0.97776 0.0
C1004 C 0.55737 0.85662 0.97279 0.0
C1005 C 0.54245 0.84581 0.99423 0.0
C1006 C 0.55369 0.87259 0.94135 0.0
C1007 C 0.53503 0.87836 0.93107 0.0
C1008 C 0.52007 0.86823 0.95459 0.0
H1009 H 0.49576 0.9511 0.66961 0.0
H1010 H 0.50038 0.92542 0.73404 0.0
C1011 C 0.52375 0.85211 0.98601 0.0
C1012 C 0.53141 0.89404 0.89238 0.0
H1013 H 0.5156 0.93979 0.88333 0.0
C1014 C 0.53641 0.8913 0.83772 0.0
C1015 C 0.52384 0.91174 0.9091 0.0
C1016 C 0.51866 0.91554 0.96751 0.0
C1017 C 0.53397 0.90571 0.79935 0.0
C1018 C 0.52632 0.92338 0.81594 0.0
C1019 C 0.5214 0.92621 0.87066 0.0
C1020 C 0.52348 0.93907 0.77683 0.0
C1021 C 0.53986 0.90208 0.74136 0.0
C1022 C 0.53488 0.95534 0.77939 0.0
C1023 C 0.53251 0.9699 0.74165 0.0
C1024 C 0.51858 0.96858 0.70085 0.0
C1025 C 0.50704 0.95234 0.69899 0.0
C1026 C 0.50951 0.93773 0.73639 0.0
H1027 H 0.54841 0.88892 0.73694 0.0
H1028 H 0.52704 0.90064 0.71553 0.0
H1029 H 0.54822 0.91421 0.72596 0.0
H1030 H 0.5458 0.95666 0.81015 0.0
H1031 H 0.5418 0.98204 0.74395 0.0
H1032 H 0.67381 0.50781 0.99427 0.0
H1033 H 0.64383 0.5027 0.94566 0.0
H1034 H 0.64563 0.56013 0.88777 0.0
H1035 H 0.67458 0.56568 0.93888 0.0
H1036 H 0.61124 0.55245 0.91101 0.0
H1037 H 0.63789 0.49181 0.78831 0.0
H1038 H 0.63863 0.48738 0.85977 0.0
H1039 H 0.65321 0.50573 0.83163 0.0
C1040 C 0.66768 0.51943 0.97187 0.0
C1041 C 0.677 0.53705 0.96985 0.0
C1042 C 0.65063 0.5164 0.94318 0.0
C1043 C 0.64261 0.53081 0.91117 0.0
C1044 C 0.65149 0.54861 0.91124 0.0
H1045 H 0.54964 0.54333 0.67555 0.0
H1046 H 0.57809 0.54779 0.73234 0.0
C1047 C 0.66828 0.55171 0.94029 0.0
C1048 C 0.62505 0.52769 0.8776 0.0
H1049 H 0.60532 0.49924 0.77921 0.0
C1050 C 0.61006 0.54081 0.88205 0.0
C1051 C 0.62331 0.51263 0.83919 0.0
C1052 C 0.63918 0.4987 0.82893 0.0
C1053 C 0.59358 0.53926 0.84986 0.0
C1054 C 0.59183 0.52416 0.81188 0.0
C1055 C 0.60663 0.51088 0.80791 0.0
C1056 C 0.57463 0.52168 0.77674 0.0
C1057 C 0.57814 0.55383 0.85685 0.0
C1058 C 0.56323 0.50551 0.78216 0.0
C1059 C 0.54701 0.50302 0.74992 0.0
C1060 C 0.54211 0.51632 0.71023 0.0
C1061 C 0.55339 0.53259 0.7048 0.0
C1062 C 0.56953 0.53523 0.73769 0.0
H1063 H 0.57945 0.56173 0.89593 0.0
H1064 H 0.57925 0.56416 0.82349 0.0
H1065 H 0.56391 0.54718 0.85466 0.0
H1066 H 0.56676 0.49489 0.81196 0.0
H1067 H 0.53831 0.49058 0.75578 0.0
H1068 H 0.9807 0.66364 0.02644 0.0
H1069 H 0.98785 0.63465 0.97404 0.0
H1070 H 1.00646 0.66872 0.84027 0.0
H1071 H 0.99977 0.69757 0.89329 0.0
H1072 H 0.97141 0.62271 0.88338 0.0
H1073 H 0.04778 0.63001 0.83962 0.0
H1074 H 0.03594 0.64464 0.88957 0.0
H1075 H 0.03445 0.65031 0.81862 0.0
C1076 C 0.98712 0.66488 0.98677 0.0
C1077 C 0.99033 0.6829 0.9648 0.0
C1078 C 0.99095 0.64829 0.95638 0.0
C1079 C 0.99796 0.64926 0.903 0.0
C1080 C 1.0016 0.66734 0.88164 0.0
H1081 H 0.98515 0.55731 0.65743 0.0
H1082 H 0.98103 0.58627 0.7129 0.0
C1083 C 0.99786 0.6839 0.91215 0.0
C1084 C 1.00008 0.63157 0.86854 0.0
H1085 H 0.03101 0.60684 0.78728 0.0
C1086 C 0.9845 0.61925 0.86261 0.0
C1087 C 0.01714 0.62675 0.84138 0.0
C1088 C 0.03483 0.63852 0.84799 0.0
C1089 C 0.98545 0.60258 0.83034 0.0
C1090 C 1.00231 0.59809 0.80187 0.0
C1091 C 0.01795 0.61028 0.80823 0.0
C1092 C 1.00439 0.5804 0.76755 0.0
C1093 C 0.96851 0.5896 0.8283 0.0
C1094 C 0.01902 0.56744 0.77849 0.0
C1095 C 0.02139 0.55101 0.74656 0.0
C1096 C 0.00951 0.54726 0.70183 0.0
C1097 C 0.99468 0.55999 0.69111 0.0
C1098 C 0.9922 0.57645 0.72336 0.0
H1099 H 0.95818 0.59292 0.86098 0.0
H1100 H 0.96122 0.59123 0.78878 0.0
H1101 H 0.97297 0.57455 0.83181 0.0
H1102 H 0.0286 0.56996 0.81221 0.0
H1103 H 0.0327 0.54125 0.75659 0.0
H1104 H 0.14292 0.1816 0.24512 0.0
H1105 H 0.14091 0.15311 0.30053 0.0
H1106 H 0.09934 0.18052 0.40224 0.0
H1107 H 0.10057 0.20852 0.3466 0.0
H1108 H 0.12464 0.1491 0.45325 0.0
H1109 H 0.08613 0.13116 0.26115 0.0
H1110 H 0.11055 0.13832 0.2588 0.0
H1111 H 0.09263 0.15534 0.27652 0.0
C1112 C 0.1338 0.18181 0.28035 0.0
C1113 C 0.12136 0.19714 0.28994 0.0
C1114 C 0.13284 0.16556 0.31229 0.0
C1115 C 0.11968 0.16463 0.35464 0.0
C1116 C 0.10957 0.18097 0.36958 0.0
H1117 H 0.03698 0.11839 0.53257 0.0
H1118 H 0.06764 0.13037 0.50494 0.0
C1119 C 0.11034 0.19709 0.33747 0.0
C1120 C 0.11245 0.1462 0.37344 0.0
H1121 H 0.07742 0.11525 0.33889 0.0
C1122 C 0.11474 0.14122 0.42798 0.0
C1123 C 0.09981 0.13572 0.34011 0.0
C1124 C 0.097 0.1403 0.28087 0.0
C1125 C 0.1035 0.12703 0.45113 0.0
C1126 C 0.08906 0.11838 0.41948 0.0
C1127 C 0.08827 0.12198 0.36361 0.0
C1128 C 0.07264 0.10849 0.44404 0.0
C1129 C 0.10682 0.12195 0.50963 0.0
C1130 C 0.06495 0.09219 0.41914 0.0
C1131 C 0.04707 0.08563 0.43391 0.0
C1132 C 0.03644 0.09532 0.47368 0.0
C1133 C 0.04468 0.11081 0.50113 0.0
C1134 C 0.06248 0.11744 0.48611 0.0
H1135 H 0.1222 0.12215 0.51913 0.0
H1136 H 0.09995 0.13271 0.53629 0.0
H1137 H 0.10111 0.10772 0.51919 0.0
H1138 H 0.07231 0.08514 0.38609 0.0
H1139 H 0.04111 0.07374 0.41162 0.0
H1140 H 0.33471 0.14628 0.2926 0.0
H1141 H 0.35918 0.14091 0.36173 0.0
H1142 H 0.32129 0.10341 0.44575 0.0
H1143 H 0.29677 0.10955 0.37939 0.0
H1144 H 0.34537 0.11796 0.51565 0.0
H1145 H 0.38513 0.09185 0.33405 0.0
H1146 H 0.38064 0.11686 0.33714 0.0
H1147 H 0.36125 0.10052 0.32884 0.0
C1148 C 0.33143 0.13755 0.32718 0.0
C1149 C 0.31396 0.12811 0.33019 0.0
C1150 C 0.34545 0.13433 0.36633 0.0
C1151 C 0.34235 0.12109 0.40759 0.0
C1152 C 0.32415 0.11354 0.41408 0.0
H1153 H 0.38157 0.02383 0.53744 0.0
H1154 H 0.36555 0.05383 0.5196 0.0
C1155 C 0.31004 0.11712 0.37597 0.0
C1156 C 0.35826 0.11231 0.43788 0.0
H1157 H 0.3954 0.08193 0.41822 0.0
C1158 C 0.3566 0.11045 0.49447 0.0
C1159 C 0.37293 0.10239 0.41025 0.0
C1160 C 0.3751 0.10283 0.34927 0.0
C1161 C 0.36818 0.09783 0.52325 0.0
C1162 C 0.3819 0.08714 0.49489 0.0
C1163 C 0.38479 0.09027 0.43956 0.0
C1164 C 0.39124 0.07047 0.51877 0.0
C1165 C 0.365 0.09515 0.5831 0.0
C1166 C 0.41093 0.07005 0.52538 0.0
C1167 C 0.42013 0.05295 0.53621 0.0
C1168 C 0.4098 0.03591 0.53917 0.0
C1169 C 0.38995 0.03664 0.53563 0.0
C1170 C 0.38076 0.05379 0.52557 0.0
H1171 H 0.35722 0.10732 0.60147 0.0
H1172 H 0.35651 0.08212 0.58917 0.0
H1173 H 0.37871 0.09334 0.60467 0.0
H1174 H 0.41924 0.08278 0.5199 0.0
H1175 H 0.4354 0.053 0.54035 0.0
H1176 H 0.41676 0.35046 0.18482 0.0
H1177 H 0.41839 0.37915 0.23818 0.0
H1178 H 0.39179 0.35119 0.37251 0.0
H1179 H 0.38948 0.32187 0.31802 0.0
H1180 H 0.39366 0.4032 0.29869 0.0
H1181 H 0.4453 0.36414 0.42849 0.0
H1182 H 0.43703 0.35391 0.3654 0.0
H1183 H 0.42136 0.35569 0.42244 0.0
C1184 C 0.4104 0.35034 0.22471 0.0
C1185 C 0.40297 0.3336 0.24685 0.0
C1186 C 0.41149 0.36692 0.25549 0.0
C1187 C 0.40542 0.36728 0.30949 0.0
C1188 C 0.39676 0.35112 0.33101 0.0
H1189 H 0.47338 0.45592 0.46641 0.0
H1190 H 0.44618 0.43479 0.46374 0.0
C1191 C 0.39554 0.33437 0.29986 0.0
C1192 C 0.41112 0.38374 0.34355 0.0
H1193 H 0.4488 0.39688 0.42215 0.0
C1194 C 0.40524 0.40188 0.3274 0.0
C1195 C 0.42612 0.38204 0.38144 0.0
C1196 C 0.43294 0.36295 0.40066 0.0
C1197 C 0.41543 0.41811 0.34305 0.0
C1198 C 0.43189 0.41603 0.37503 0.0
C1199 C 0.43627 0.39831 0.39697 0.0
C1200 C 0.4467 0.4308 0.37675 0.0
C1201 C 0.40938 0.43718 0.32202 0.0
C1202 C 0.45614 0.43537 0.32872 0.0
C1203 C 0.47205 0.44704 0.33 0.0
C1204 C 0.4788 0.45467 0.37942 0.0
C1205 C 0.46896 0.45027 0.42746 0.0
C1206 C 0.45316 0.43835 0.42614 0.0
H1207 H 0.39385 0.43761 0.3148 0.0
H1208 H 0.41329 0.44878 0.35079 0.0
H1209 H 0.41656 0.4398 0.28282 0.0
H1210 H 0.4517 0.42919 0.29029 0.0
H1211 H 0.47935 0.44948 0.29221 0.0
H1212 H 0.1744 0.40679 0.20947 0.0
H1213 H 0.14925 0.41229 0.2741 0.0
H1214 H 0.18734 0.39988 0.40607 0.0
H1215 H 0.21295 0.39404 0.34092 0.0
H1216 H 0.13114 0.3947 0.36272 0.0
H1217 H 0.17571 0.45645 0.42641 0.0
H1218 H 0.18163 0.44231 0.3675 0.0
H1219 H 0.18516 0.43296 0.43424 0.0
C1220 C 0.17742 0.40441 0.25194 0.0
C1221 C 0.1959 0.40027 0.26985 0.0
C1222 C 0.16292 0.40765 0.28905 0.0
C1223 C 0.16652 0.4069 0.34493 0.0
C1224 C 0.18439 0.4009 0.36307 0.0
H1225 H 0.09363 0.49049 0.50066 0.0
H1226 H 0.11289 0.46164 0.50624 0.0
C1227 C 0.199 0.39763 0.32577 0.0
C1228 C 0.15243 0.41555 0.38218 0.0
H1229 H 0.14347 0.45827 0.44302 0.0
C1230 C 0.13391 0.40832 0.38195 0.0
C1231 C 0.15608 0.43325 0.40781 0.0
C1232 C 0.17566 0.44184 0.4091 0.0
C1233 C 0.1187 0.41919 0.40176 0.0
C1234 C 0.12212 0.43778 0.42141 0.0
C1235 C 0.14085 0.44405 0.42759 0.0
C1236 C 0.10694 0.45231 0.42399 0.0
C1237 C 0.09898 0.4111 0.39833 0.0
C1238 C 0.09685 0.45643 0.37646 0.0
C1239 C 0.08578 0.47274 0.37328 0.0
C1240 C 0.08485 0.48558 0.41719 0.0
C1241 C 0.09397 0.48086 0.46612 0.0
C1242 C 0.10501 0.46439 0.46938 0.0
H1243 H 0.09923 0.39552 0.40459 0.0
H1244 H 0.08944 0.41774 0.42884 0.0
H1245 H 0.09311 0.4136 0.35721 0.0
H1246 H 0.09844 0.44765 0.34041 0.0
H1247 H 0.07865 0.47574 0.33537 0.0
H1248 H 0.91087 0.84972 0.9519 0.0
H1249 H 0.91408 0.87186 0.87861 0.0
H1250 H 0.89953 0.82794 0.76275 0.0
H1251 H 0.89588 0.80542 0.83684 0.0
H1252 H 0.93406 0.84158 0.74656 0.0
H1253 H 0.88637 0.90279 0.76837 0.0
H1254 H 0.89673 0.89769 0.83296 0.0
H1255 H 0.88156 0.88038 0.80042 0.0
C1256 C 0.90738 0.84483 0.9113 0.0
C1257 C 0.90334 0.82562 0.90048 0.0
C1258 C 0.90918 0.85766 0.8691 0.0
C1259 C 0.90692 0.85166 0.81504 0.0
C1260 C 0.90126 0.83291 0.80422 0.0
H1261 H 0.983 0.90964 0.59012 0.0
H1262 H 0.9542 0.892 0.61142 0.0
C1263 C 0.89936 0.82001 0.84662 0.0
C1264 C 0.91475 0.86364 0.77147 0.0
H1265 H 0.9187 0.91006 0.73581 0.0
C1266 C 0.9303 0.85642 0.74251 0.0
C1267 C 0.90982 0.88297 0.76621 0.0
C1268 C 0.89256 0.8913 0.79334 0.0
C1269 C 0.94236 0.86839 0.71367 0.0
C1270 C 0.93841 0.88808 0.71259 0.0
C1271 C 0.9218 0.895 0.73703 0.0
C1272 C 0.95292 0.90181 0.69484 0.0
C1273 C 0.96017 0.86007 0.68924 0.0
C1274 C 0.96097 0.91416 0.73353 0.0
C1275 C 0.97722 0.92445 0.72127 0.0
C1276 C 0.98578 0.92251 0.67011 0.0
C1277 C 0.97689 0.91121 0.63013 0.0
C1278 C 0.96046 0.9011 0.64225 0.0
H1279 H 0.96248 0.8451 0.7012 0.0
H1280 H 0.95916 0.86044 0.64435 0.0
H1281 H 0.97276 0.86845 0.70191 0.0
H1282 H 0.95538 0.91494 0.77439 0.0
H1283 H 0.98372 0.93295 0.75307 0.0
H1284 H 0.72297 0.95436 0.80467 0.0
H1285 H 0.70461 0.9662 0.72864 0.0
H1286 H 0.66166 0.92421 0.75776 0.0
H1287 H 0.67995 0.91231 0.83493 0.0
H1288 H 0.68377 0.95472 0.63209 0.0
H1289 H 0.63874 0.97543 0.80842 0.0
H1290 H 0.66207 0.96551 0.81672 0.0
H1291 H 0.64244 0.95041 0.79933 0.0
C1292 C 0.71004 0.94703 0.79359 0.0
C1293 C 0.7027 0.93263 0.82653 0.0
C1294 C 0.69955 0.95385 0.74993 0.0
C1295 C 0.68163 0.94635 0.73843 0.0
C1296 C 0.67539 0.93034 0.76665 0.0
H1297 H 0.58541 1.0053 0.61221 0.0
H1298 H 0.60734 0.97997 0.633 0.0
C1299 C 0.68579 0.92361 0.81079 0.0
C1300 C 0.66813 0.95782 0.70664 0.0
H1301 H 0.62959 0.98639 0.72351 0.0
C1302 C 0.67175 0.96148 0.65168 0.0
C1303 C 0.65274 0.96694 0.73283 0.0
C1304 C 0.64878 0.96456 0.79264 0.0
C1305 C 0.66018 0.97398 0.62211 0.0
C1306 C 0.64492 0.98307 0.64865 0.0
C1307 C 0.64127 0.97924 0.70328 0.0
C1308 C 0.63244 0.99698 0.62199 0.0
C1309 C 0.66426 0.97738 0.56298 0.0
C1310 C 0.6393 0.01487 0.60714 0.0
C1311 C 0.62664 0.0295 0.59453 0.0
C1312 C 0.60699 0.02645 0.59737 0.0
C1313 C 0.60038 0.00821 0.6097 0.0
C1314 C 0.61293 0.99363 0.62132 0.0
H1315 H 0.67377 0.96633 0.5456 0.0
H1316 H 0.65092 0.9777 0.53901 0.0
H1317 H 0.67126 0.99136 0.55873 0.0
H1318 H 0.65433 0.01784 0.60853 0.0
H1319 H 0.6322 0.0434 0.58544 0.0
H1320 H 0.62722 0.67765 0.92039 0.0
H1321 H 0.62296 0.65213 0.85541 0.0
H1322 H 0.60753 0.69249 0.7325 0.0
H1323 H 0.60925 0.71787 0.79934 0.0
H1324 H 0.58065 0.67148 0.74159 0.0
H1325 H 0.63981 0.62181 0.73316 0.0
H1326 H 0.6358 0.62605 0.80378 0.0
H1327 H 0.64291 0.64543 0.76083 0.0
C1328 C 0.62308 0.68122 0.87943 0.0
C1329 C 0.61758 0.69981 0.86634 0.0
C1330 C 0.62116 0.6665 0.84146 0.0
C1331 C 0.61464 0.67017 0.78867 0.0
C1332 C 0.61227 0.68915 0.77313 0.0
H1333 H 0.53166 0.58828 0.66485 0.0
H1334 H 0.56006 0.60723 0.64813 0.0
C1335 C 0.61344 0.7038 0.81169 0.0
C1336 C 0.60566 0.65461 0.75628 0.0
H1337 H 0.60735 0.60647 0.74011 0.0
C1338 C 0.58688 0.65744 0.73895 0.0
C1339 C 0.61358 0.63618 0.75189 0.0
C1340 C 0.63423 0.63235 0.76294 0.0
C1341 C 0.57519 0.64219 0.72452 0.0
C1342 C 0.58245 0.62355 0.7275 0.0
C1343 C 0.60175 0.62079 0.73866 0.0
C1344 C 0.56929 0.60737 0.73191 0.0
C1345 C 0.55458 0.64603 0.71206 0.0
C1346 C 0.56579 0.60022 0.78373 0.0
C1347 C 0.54964 0.58948 0.79335 0.0
C1348 C 0.53669 0.58569 0.75129 0.0
C1349 C 0.5413 0.59109 0.69814 0.0
C1350 C 0.55752 0.6019 0.6885 0.0
H1351 H 0.55104 0.66138 0.7141 0.0
H1352 H 0.55114 0.64072 0.67065 0.0
H1353 H 0.5454 0.63845 0.74117 0.0
H1354 H 0.57472 0.60424 0.81777 0.0
H1355 H 0.54673 0.58507 0.83445 0.0
H1356 H 0.81068 0.62801 0.80746 0.0
H1357 H 0.83594 0.6284 0.73886 0.0
H1358 H 0.87049 0.59317 0.84153 0.0
H1359 H 0.84587 0.59259 0.90865 0.0
H1360 H 0.89145 0.62072 0.78826 0.0
H1361 H 0.84452 0.58148 0.64382 0.0
H1362 H 0.83838 0.60487 0.66806 0.0
H1363 H 0.83686 0.58503 0.71289 0.0
C1364 C 0.82383 0.62064 0.81557 0.0
C1365 C 0.82621 0.61034 0.86382 0.0
C1366 C 0.83822 0.62088 0.77635 0.0
C1367 C 0.85508 0.61072 0.78487 0.0
C1368 C 0.85775 0.60135 0.83418 0.0
H1369 H 0.90455 0.52182 0.74737 0.0
H1370 H 0.88605 0.55012 0.73072 0.0
C1371 C 0.84356 0.60112 0.87296 0.0
C1372 C 0.86935 0.60731 0.74182 0.0
H1373 H 0.87643 0.57255 0.64699 0.0
C1374 C 0.88834 0.61078 0.75554 0.0
C1375 C 0.86523 0.59486 0.69798 0.0
C1376 C 0.84518 0.59128 0.67938 0.0
C1377 C 0.90286 0.59909 0.73534 0.0
C1378 C 0.89817 0.58419 0.6987 0.0
C1379 C 0.87986 0.58363 0.67628 0.0
C1380 C 0.90934 0.56632 0.69784 0.0
C1381 C 0.92238 0.60099 0.75973 0.0
C1382 C 0.92855 0.5656 0.68316 0.0
C1383 C 0.93936 0.54938 0.69419 0.0
C1384 C 0.93107 0.53366 0.71954 0.0
C1385 C 0.91153 0.5339 0.72954 0.0
C1386 C 0.90085 0.55004 0.71917 0.0
H1387 H 0.92344 0.6131 0.78881 0.0
H1388 H 0.92617 0.58782 0.78151 0.0
H1389 H 0.93292 0.60319 0.72713 0.0
H1390 H 0.93535 0.57777 0.66539 0.0
H1391 H 0.95433 0.54949 0.68539 0.0
H1392 H 0.05415 0.20038 0.86291 0.0
H1393 H 0.04851 0.17261 0.80481 0.0
H1394 H 0.99405 0.16483 0.87988 0.0
H1395 H 0.99953 0.19303 0.93722 0.0
H1396 H 0.0453 0.13733 0.83408 0.0
H1397 H 0.97937 0.15564 0.72528 0.0
H1398 H 0.99281 0.17302 0.76331 0.0
H1399 H 0.97669 0.15743 0.79747 0.0
C1400 C 0.04074 0.19306 0.86603 0.0
C1401 C 0.02721 0.19911 0.90447 0.0
C1402 C 0.03756 0.17704 0.83294 0.0
C1403 C 0.02078 0.16645 0.83719 0.0
C1404 C 0.00695 0.17284 0.87442 0.0
H1405 H 0.97787 0.05968 0.70705 0.0
H1406 H 0.98434 0.08934 0.75577 0.0
C1407 C 0.01006 0.18905 0.90732 0.0
C1408 C 0.01856 0.1481 0.80575 0.0
H1409 H 0.98878 0.12318 0.72137 0.0
C1410 C 0.03297 0.13433 0.80914 0.0
C1411 C 1.00258 0.14398 0.77271 0.0
C1412 C 0.98708 0.15837 0.76394 0.0
C1413 C 0.03161 0.11655 0.78237 0.0
C1414 C 0.0154 0.1122 0.75036 0.0
C1415 C 1.00116 0.12616 0.74616 0.0
C1416 C 0.01241 0.09318 0.72261 0.0
C1417 C 0.0474 0.10247 0.79042 0.0
C1418 C 0.02603 0.0849 0.68766 0.0
C1419 C 0.02246 0.0675 0.6606 0.0
C1420 C 1.00508 0.05811 0.66719 0.0
C1421 C 0.99151 0.06641 0.70173 0.0
C1422 C 0.99518 0.08351 0.72939 0.0
H1423 H 0.05547 0.10541 0.82835 0.0
H1424 H 0.04183 0.08787 0.79205 0.0
H1425 H 0.05743 0.10335 0.75597 0.0
H1426 H 0.03923 0.09213 0.67992 0.0
H1427 H 0.03299 0.06181 0.63299 0.0
H1428 H 0.31993 0.0529 0.85798 0.0
H1429 H 0.34618 0.04454 0.79699 0.0
H1430 H 0.37207 0.01208 0.92461 0.0
H1431 H 0.34567 0.02015 0.98485 0.0
H1432 H 0.38193 0.05534 0.81329 0.0
H1433 H 0.38163 0.97711 0.79793 0.0
H1434 H 0.36164 0.9904 0.82355 0.0
H1435 H 0.38149 0.98531 0.86705 0.0
C1436 C 0.33077 0.04322 0.87197 0.0
C1437 C 0.33043 0.03667 0.92561 0.0
C1438 C 0.34593 0.03864 0.83737 0.0
C1439 C 0.36117 0.02747 0.85566 0.0
C1440 C 0.36037 0.02026 0.90863 0.0
H1441 H 0.47463 0.99781 0.7422 0.0
H1442 H 0.44572 1.00377 0.79507 0.0
C1443 C 0.34519 0.02481 0.94313 0.0
C1444 C 0.37873 0.02518 0.82195 0.0
H1445 H 0.41034 0.99251 0.77205 0.0
C1446 C 0.38799 0.04156 0.8038 0.0
C1447 C 0.38687 1.00726 0.80958 0.0
C1448 C 0.3773 0.98902 0.82507 0.0
C1449 C 0.40527 0.04059 0.77535 0.0
C1450 C 0.41361 0.02269 0.76374 0.0
C1451 C 0.4042 1.00628 0.78123 0.0
C1452 C 0.43196 0.0206 0.73344 0.0
C1453 C 0.41476 0.05886 0.75993 0.0
C1454 C 0.43419 0.02823 0.68132 0.0
C1455 C 0.45088 0.02509 0.65168 0.0
C1456 C 0.46577 0.01432 0.67328 0.0
C1457 C 0.46363 1.00671 0.72531 0.0
C1458 C 0.447 0.00996 0.75524 0.0
H1459 H 0.41157 0.06199 0.71684 0.0
H1460 H 0.40968 0.07103 0.78498 0.0
H1461 H 0.4303 0.0577 0.76475 0.0
H1462 H 0.42274 0.03599 0.6625 0.0
H1463 H 0.45186 0.03046 0.61087 0.0
H1464 H 0.50169 0.32544 0.90609 0.0
H1465 H 0.51042 0.35281 0.85083 0.0
H1466 H 0.47005 0.33535 0.72866 0.0
H1467 H 0.46099 0.30833 0.78448 0.0
H1468 H 0.52233 0.36121 0.74402 0.0
H1469 H 0.44894 0.38611 0.7831 0.0
H1470 H 0.45912 0.36607 0.81745 0.0
H1471 H 0.45036 0.3635 0.74918 0.0
C1472 C 0.49528 0.32703 0.86641 0.0
C1473 C 0.4807 0.31476 0.84947 0.0
C1474 C 0.50015 0.34276 0.83503 0.0
C1475 C 0.49054 0.34643 0.7862 0.0
C1476 C 0.47737 0.33307 0.7667 0.0
H1477 H 0.51147 0.44467 0.57499 0.0
H1478 H 0.50906 0.4122 0.6098 0.0
C1479 C 0.47237 0.31748 0.79826 0.0
C1480 C 0.49259 0.36515 0.75924 0.0
H1481 H 0.46781 0.40525 0.72743 0.0
C1482 C 0.51041 0.37081 0.74009 0.0
C1483 C 0.4771 0.37787 0.75503 0.0
C1484 C 0.45784 0.37322 0.77769 0.0
C1485 C 0.51309 0.38876 0.71663 0.0
C1486 C 0.4975 0.4013 0.71156 0.0
C1487 C 0.47973 0.3956 0.73075 0.0
C1488 C 0.49937 0.42085 0.68963 0.0
C1489 C 0.53272 0.39439 0.69909 0.0
C1490 C 0.49447 0.43652 0.72236 0.0
C1491 C 0.49568 0.45495 0.70235 0.0
C1492 C 0.50154 0.45818 0.64894 0.0
C1493 C 0.50669 0.44256 0.6162 0.0
C1494 C 0.50546 0.42403 0.63621 0.0
H1495 H 0.54377 0.38515 0.71713 0.0
H1496 H 0.53374 0.39311 0.65429 0.0
H1497 H 0.53574 0.40934 0.71072 0.0
H1498 H 0.48993 0.43451 0.76384 0.0
H1499 H 0.49265 0.46667 0.72944 0.0
H1500 H 0.19946 0.51153 0.92874 0.0
H1501 H 0.17188 0.51802 0.87043 0.0
H1502 H 0.17806 0.46297 0.79482 0.0
H1503 H 0.20542 0.45644 0.85265 0.0
H1504 H 0.16551 0.51811 0.75618 0.0
H1505 H 0.12394 0.46125 0.85326 0.0
H1506 H 0.14581 0.47012 0.88172 0.0
H1507 H 0.1462 0.45334 0.82623 0.0
C1508 C 0.19517 0.50098 0.89892 0.0
C1509 C 0.20458 0.48338 0.89589 0.0
C1510 C 0.1793 0.50464 0.86581 0.0
C1511 C 0.1725 0.49079 0.82907 0.0
C1512 C 0.18262 0.47371 0.82376 0.0
H1513 H 0.073 0.47795 0.61797 0.0
H1514 H 0.1032 0.47397 0.66626 0.0
C1515 C 0.19837 0.47003 0.85675 0.0
C1516 C 0.15458 0.49378 0.79743 0.0
H1517 H 0.1104 0.4752 0.77515 0.0
C1518 C 0.15343 0.50879 0.76055 0.0
C1519 C 0.13873 0.48162 0.80284 0.0
C1520 C 0.13858 0.46578 0.84349 0.0
C1521 C 0.13715 0.51168 0.72822 0.0
C1522 C 0.12133 0.49946 0.7335 0.0
C1523 C 0.12248 0.48451 0.77059 0.0
C1524 C 0.1033 0.50216 0.70203 0.0
C1525 C 0.13727 0.52753 0.68765 0.0
C1526 C 0.09305 0.51921 0.70615 0.0
C1527 C 0.07581 0.5215 0.67851 0.0
C1528 C 0.06825 0.50677 0.64616 0.0
C1529 C 0.07846 0.48965 0.64216 0.0
C1530 C 0.09574 0.48736 0.66986 0.0
H1531 H 0.15193 0.53178 0.67707 0.0
H1532 H 0.12969 0.52338 0.64983 0.0
H1533 H 0.13004 0.5401 0.7055 0.0
H1534 H 0.09812 0.53065 0.73198 0.0
H1535 H 0.06809 0.53459 0.68434 0.0
H1536 H 0.99737 0.81462 0.34226 0.0
H1537 H 1.00203 0.84213 0.40345 0.0
H1538 H 0.99431 0.87975 0.2685 0.0
H1539 H 0.98911 0.85251 0.20822 0.0
H1540 H 0.02609 0.87069 0.41245 0.0
H1541 H 0.95612 0.90205 0.36917 0.0
H1542 H 0.96252 0.87856 0.34607 0.0
H1543 H 0.96953 0.89907 0.30808 0.0
C1544 C 0.9969 0.82877 0.32568 0.0
C1545 C 0.99273 0.83134 0.27038 0.0
C1546 C 0.99944 0.84454 0.36075 0.0
C1547 C 0.9979 0.86323 0.3413 0.0
C1548 C 0.99484 0.86566 0.28541 0.0
H1549 H 0.04207 0.96658 0.48726 0.0
H1550 H 0.03637 0.93654 0.4398 0.0
C1551 C 0.9921 0.85 0.25068 0.0
C1552 C 0.99963 0.88021 0.37877 0.0
H1553 H 0.97868 0.92267 0.41242 0.0
C1554 C 0.01561 0.88194 0.41264 0.0
C1555 C 0.98581 0.89489 0.38068 0.0
C1556 C 0.96744 0.89346 0.34951 0.0
C1557 C 0.01852 0.89808 0.44611 0.0
C1558 C 1.00539 0.91336 0.44497 0.0
C1559 C 0.989 0.91126 0.41295 0.0
C1560 C 0.00874 0.93181 0.47487 0.0
C1561 C 0.03563 0.8984 0.48288 0.0
C1562 C 0.99491 0.93982 0.50949 0.0
C1563 C 0.99811 0.95729 0.53639 0.0
C1564 C 0.01501 0.96736 0.52815 0.0
C1565 C 0.02882 0.95927 0.49403 0.0
C1566 C 0.02564 0.94192 0.46723 0.0
H1567 H 0.04006 0.88382 0.49388 0.0
H1568 H 0.04763 0.9051 0.46142 0.0
H1569 H 0.03282 0.90657 0.52073 0.0
H1570 H 0.98164 0.93254 0.51584 0.0
H1571 H 0.98739 0.9629 0.56353 0.0
H1572 H 0.66929 0.99105 0.21981 0.0
H1573 H 0.64273 0.99432 0.28215 0.0
H1574 H 0.67984 0.98352 0.41738 0.0
H1575 H 0.70674 0.97983 0.35451 0.0
H1576 H 0.63055 0.96438 0.35525 0.0
H1577 H 0.64803 0.03175 0.46385 0.0
H1578 H 0.65842 0.0257 0.39895 0.0
H1579 H 0.66606 0.01373 0.45899 0.0
C1580 C 0.67194 0.9894 0.26281 0.0
C1581 C 0.69024 0.98491 0.28182 0.0
C1582 C 0.65666 0.99134 0.29852 0.0
C1583 C 0.65915 0.98912 0.35458 0.0
C1584 C 0.67752 0.98544 0.37433 0.0
H1585 H 0.55921 0.97174 0.56677 0.0
H1586 H 0.58852 0.96651 0.51523 0.0
C1587 C 0.69293 0.98339 0.33833 0.0
C1588 C 0.64218 0.98975 0.39099 0.0
H1589 H 0.61919 0.01724 0.48515 0.0
C1590 C 0.62813 0.97584 0.38413 0.0
C1591 C 0.63899 1.00465 0.4288 0.0
C1592 C 0.65357 0.01992 0.43826 0.0
C1593 C 0.61087 0.97663 0.41277 0.0
C1594 C 0.60735 0.99187 0.44954 0.0
C1595 C 0.62166 1.00557 0.45717 0.0
C1596 C 0.58883 0.99437 0.47899 0.0
C1597 C 0.59645 0.96133 0.40171 0.0
C1598 C 0.57913 0.01182 0.47701 0.0
C1599 C 0.56247 0.01482 0.50689 0.0
C1600 C 0.55488 1.00037 0.53897 0.0
C1601 C 0.56439 0.98288 0.54084 0.0
C1602 C 0.58117 0.9799 0.51122 0.0
H1603 H 0.59804 0.95007 0.43248 0.0
H1604 H 0.58187 0.96696 0.40409 0.0
H1605 H 0.59848 0.95466 0.36107 0.0
H1606 H 0.58465 0.02333 0.45306 0.0
H1607 H 0.55579 0.02866 0.50616 0.0
H1608 H 0.54621 0.71651 0.35072 0.0
H1609 H 0.53871 0.69397 0.4231 0.0
H1610 H 0.5089 0.65873 0.30715 0.0
H1611 H 0.51609 0.6813 0.23556 0.0
H1612 H 0.49182 0.65834 0.40797 0.0
H1613 H 0.56926 0.64491 0.42505 0.0
H1614 H 0.56176 0.66882 0.43893 0.0
H1615 H 0.55925 0.65905 0.37163 0.0
C1616 C 0.53742 0.70433 0.34137 0.0
C1617 C 0.5316 0.7007 0.2877 0.0
C1618 C 0.53338 0.6913 0.38251 0.0
C1619 C 0.52359 0.67437 0.37042 0.0
C1620 C 0.5165 0.67159 0.31765 0.0
H1621 H 0.53149 0.56083 0.47135 0.0
H1622 H 0.53345 0.59238 0.43364 0.0
C1623 C 0.52053 0.68455 0.27674 0.0
C1624 C 0.52228 0.65861 0.4103 0.0
H1625 H 0.54923 0.62546 0.47533 0.0
C1626 C 0.50436 0.65132 0.42346 0.0
C1627 C 0.53865 0.64925 0.42997 0.0
C1628 C 0.55834 0.65574 0.41549 0.0
C1629 C 0.5024 0.63469 0.45416 0.0
C1630 C 0.5188 0.62515 0.47287 0.0
C1631 C 0.53666 0.63282 0.46134 0.0
C1632 C 0.51792 0.6061 0.49861 0.0
C1633 C 0.48285 0.62687 0.46378 0.0
C1634 C 0.50865 0.60311 0.54824 0.0
C1635 C 0.50773 0.58485 0.57046 0.0
C1636 C 0.51633 0.56927 0.54393 0.0
C1637 C 0.52553 0.57244 0.49438 0.0
C1638 C 0.52642 0.59056 0.47225 0.0
H1639 H 0.47194 0.63405 0.4387 0.0
H1640 H 0.48244 0.61143 0.45461 0.0
H1641 H 0.47906 0.62895 0.5071 0.0
H1642 H 0.50215 0.61488 0.56982 0.0
H1643 H 0.50037 0.58294 0.60851 0.0
H1644 H 0.83485 0.51339 0.23122 0.0
H1645 H 0.86039 0.50621 0.2952 0.0
H1646 H 0.8369 0.54641 0.4098 0.0
H1647 H 0.81164 0.55393 0.34485 0.0
H1648 H 0.87266 0.55392 0.39453 0.0
H1649 H 0.86817 0.477 0.43138 0.0
H1650 H 0.86884 0.4819 0.36021 0.0
H1651 H 0.84908 0.49006 0.40027 0.0
C1652 C 0.83464 0.52 0.27112 0.0
C1653 C 0.8209 0.5338 0.28364 0.0
C1654 C 0.84935 0.51595 0.30778 0.0
C1655 C 0.85064 0.52556 0.35806 0.0
C1656 C 0.83628 0.53866 0.37164 0.0
H1657 H 0.94469 0.50383 0.59011 0.0
H1658 H 0.91295 0.50578 0.54905 0.0
C1659 C 0.82165 0.54278 0.33481 0.0
C1660 C 0.86801 0.52373 0.39312 0.0
H1661 H 0.89831 0.49167 0.45093 0.0
C1662 C 0.87806 0.54028 0.40736 0.0
C1663 C 0.87518 0.50602 0.4108 0.0
C1664 C 0.86464 0.48777 0.40037 0.0
C1665 C 0.89522 0.53958 0.43658 0.0
C1666 C 0.90298 0.52182 0.45131 0.0
C1667 C 0.89259 0.5053 0.43917 0.0
C1668 C 0.92223 0.5202 0.47681 0.0
C1669 C 0.90491 0.55799 0.4514 0.0
C1670 C 0.93819 0.52713 0.44963 0.0
C1671 C 0.95622 0.52612 0.47319 0.0
C1672 C 0.95895 0.51827 0.52478 0.0
C1673 C 0.9431 0.51052 0.55109 0.0
C1674 C 0.92493 0.51154 0.52747 0.0
H1675 H 0.89473 0.57002 0.45243 0.0
H1676 H 0.91201 0.55711 0.49157 0.0
H1677 H 0.91581 0.56116 0.42046 0.0
H1678 H 0.93674 0.53316 0.40961 0.0
H1679 H 0.96809 0.5309 0.44988 0.0
loop_
_geom_bond_atom_site_label_1
_geom_bond_atom_site_label_2
_geom_bond_distance
_geom_bond_site_symmetry_2
_ccdc_geom_bond_type
C0 C1 1.391 . S
C0 C4 1.391 . S
C0 H42 0.948 . S
C1 C0 1.391 . S
C1 C2 1.391 . S
C2 C1 1.391 . S
C2 H58 0.947 . S
C2 C59 1.392 . S
C3 C4 1.391 . S
C3 C7 1.397 . S
C3 C59 1.419 . S
C4 C0 1.391 . S
C4 C3 1.391 . S
C4 C5 1.399 . S
C5 C4 1.399 . S
C5 C8 1.396 . S
C5 C17 1.453 . S
C5 C18 1.684 . S
H6 C30 0.948 . S
C7 C3 1.397 . S
C7 C8 1.394 . S
C7 C26 1.723 . S
C8 C5 1.396 . S
C8 C7 1.394 . S
C8 C38 1.723 . S
H9 C32 0.947 . S
H10 C33 0.948 . S
H11 C39 0.982 . S
H12 C40 0.979 1_554 S
H13 C40 0.980 . S
H14 C40 0.983 . S
H15 C39 0.979 1_556 S
H16 C39 0.977 1_556 S
C17 C5 1.453 . S
C17 H46 0.982 . S
C17 H47 0.979 . S
C17 H48 0.977 . S
C18 C5 1.684 . S
C18 H43 0.979 . S
C18 H44 0.980 . S
C18 H45 0.983 . S
C19 C20 1.391 1_554 S
C19 C24 1.391 . S
C19 H49 0.948 . S
C20 C19 1.391 1_556 S
C20 C21 1.391 . S
C21 C20 1.391 . S
C21 C22 1.392 . S
C21 H50 0.947 . S
C22 C21 1.392 . S
C22 C23 1.419 1_556 S
C22 H51 0.948 . S
C23 C22 1.419 1_554 S
C23 C24 1.391 . S
C23 C27 1.397 . S
C24 C19 1.391 . S
C24 C23 1.391 . S
C24 C25 1.399 . S
C25 C24 1.399 . S
C25 C26 1.396 . S
C25 C28 1.453 . S
C25 C29 1.684 . S
C26 C7 1.723 . S
C26 C25 1.396 . S
C26 C27 1.394 . S
C27 C23 1.397 . S
C27 C26 1.394 . S
C27 C37 1.723 . S
C28 C25 1.453 . S
C28 H52 0.982 . S
C28 H53 0.979 . S
C28 H54 0.977 . S
C29 C25 1.684 . S
C29 H55 0.979 . S
C29 H56 0.980 . S
C29 H57 0.983 . S
C30 H6 0.948 . S
C30 C31 1.391 . S
C30 C35 1.391 . S
C31 C30 1.391 . S
C31 C32 1.391 . S
C32 H9 0.947 . S
C32 C31 1.391 . S
C32 C33 1.392 . S
C33 H10 0.948 . S
C33 C32 1.392 . S
C33 C34 1.419 . S
C34 C33 1.419 . S
C34 C35 1.391 . S
C34 C38 1.397 . S
C35 C30 1.391 . S
C35 C34 1.391 . S
C35 C36 1.399 . S
C36 C35 1.399 . S
C36 C37 1.396 . S
C36 C39 1.453 . S
C36 C40 1.684 1_554 S
C37 C27 1.723 . S
C37 C36 1.396 . S
C37 C38 1.394 . S
C38 C8 1.723 . S
C38 C34 1.397 . S
C38 C37 1.394 . S
C39 H11 0.982 . S
C39 H15 0.979 1_554 S
C39 H16 0.977 1_554 S
C39 C36 1.453 . S
C40 H12 0.979 1_556 S
C40 H13 0.980 . S
C40 H14 0.983 . S
C40 C36 1.684 1_556 S
H41 C59 0.948 . S
H42 C0 0.948 . S
H43 C18 0.979 . S
H44 C18 0.980 . S
H45 C18 0.983 . S
H46 C17 0.982 . S
H47 C17 0.979 . S
H48 C17 0.977 . S
H49 C19 0.948 . S
H50 C21 0.947 . S
H51 C22 0.948 . S
H52 C28 0.982 . S
H53 C28 0.979 . S
H54 C28 0.977 . S
H55 C29 0.979 . S
H56 C29 0.980 . S
H57 C29 0.983 . S
H58 C2 0.947 . S
C59 C2 1.392 . S
C59 C3 1.419 . S
C59 H41 0.948 . S
C60 C61 1.391 . S
C60 C64 1.391 1_556 S
C60 H102 0.948 . S
C61 C60 1.391 . S
C61 C62 1.391 1_556 S
C62 C61 1.391 1_554 S
C62 H118 0.947 . S
C62 C119 1.392 . S
C63 C64 1.391 . S
C63 C67 1.397 . S
C63 C119 1.419 . S
C64 C60 1.391 1_554 S
C64 C63 1.391 . S
C64 C65 1.399 . S
C65 C64 1.399 . S
C65 C68 1.396 . S
C65 C77 1.460 . S
C65 C78 1.684 1_554 S
H66 C90 0.948 . S
C67 C63 1.397 . S
C67 C68 1.394 . S
C67 C86 1.723 . S
C68 C65 1.396 . S
C68 C67 1.394 . S
C68 C98 1.723 . S
H69 C92 0.947 . S
H70 C93 0.948 . S
H71 C99 0.982 . S
H72 C100 0.979 . S
H73 C100 0.980 . S
H74 C100 0.983 . S
H75 C99 0.979 . S
H76 C99 0.977 . S
C77 C65 1.460 . S
C77 H106 0.987 . S
C77 H107 0.965 1_554 S
C77 H108 0.979 . S
C78 C65 1.684 1_556 S
C78 H103 0.979 . S
C78 H104 0.980 . S
C78 H105 0.983 . S
C79 C80 1.391 . S
C79 C84 1.391 . S
C79 H109 0.948 . S
C80 C79 1.391 . S
C80 C81 1.391 . S
C81 C80 1.391 . S
C81 C82 1.392 . S
C81 H110 0.947 . S
C82 C81 1.392 . S
C82 C83 1.419 . S
C82 H111 0.948 . S
C83 C82 1.419 . S
C83 C84 1.391 . S
C83 C87 1.397 . S
C84 C79 1.391 . S
C84 C83 1.391 . S
C84 C85 1.399 . S
C85 C84 1.399 . S
C85 C86 1.396 . S
C85 C88 1.453 . S
C85 C89 1.684 . S
C86 C67 1.723 . S
C86 C85 1.396 . S
C86 C87 1.394 . S
C87 C83 1.397 . S
C87 C86 1.394 . S
C87 C97 1.723 . S
C88 C85 1.453 . S
C88 H112 0.982 . S
C88 H113 0.979 . S
C88 H114 0.977 . S
C89 C85 1.684 . S
C89 H115 0.979 . S
C89 H116 0.980 . S
C89 H117 0.983 . S
C90 H66 0.948 . S
C90 C91 1.391 . S
C90 C95 1.391 . S
C91 C90 1.391 . S
C91 C92 1.391 . S
C92 H69 0.947 . S
C92 C91 1.391 . S
C92 C93 1.392 . S
C93 H70 0.948 . S
C93 C92 1.392 . S
C93 C94 1.419 . S
C94 C93 1.419 . S
C94 C95 1.391 . S
C94 C98 1.397 . S
C95 C90 1.391 . S
C95 C94 1.391 . S
C95 C96 1.399 . S
C96 C95 1.399 . S
C96 C97 1.396 . S
C96 C99 1.453 . S
C96 C100 1.684 . S
C97 C87 1.723 . S
C97 C96 1.396 . S
C97 C98 1.394 . S
C98 C68 1.723 . S
C98 C94 1.397 . S
C98 C97 1.394 . S
C99 H71 0.982 . S
C99 H75 0.979 . S
C99 H76 0.977 . S
C99 C96 1.453 . S
C100 H72 0.979 . S
C100 H73 0.980 . S
C100 H74 0.983 . S
C100 C96 1.684 . S
H101 C119 0.948 . S
H102 C60 0.948 . S
H103 C78 0.979 . S
H104 C78 0.980 . S
H105 C78 0.983 . S
H106 C77 0.987 . S
H107 C77 0.965 1_556 S
H108 C77 0.979 . S
H109 C79 0.948 . S
H110 C81 0.947 . S
H111 C82 0.948 . S
H112 C88 0.982 . S
H113 C88 0.979 . S
H114 C88 0.977 . S
H115 C89 0.979 . S
H116 C89 0.980 . S
H117 C89 0.983 . S
H118 C62 0.947 . S
C119 C62 1.392 . S
C119 C63 1.419 . S
C119 H101 0.948 . S
C120 C121 1.391 . S
C120 C124 1.391 . S
C120 H162 0.948 . S
C121 C120 1.391 . S
C121 C122 1.391 . S
C122 C121 1.391 . S
C122 H178 0.947 . S
C122 C179 1.392 . S
C123 C124 1.391 . S
C123 C127 1.397 . S
C123 C179 1.419 . S
C124 C120 1.391 . S
C124 C123 1.391 . S
C124 C125 1.399 . S
C125 C124 1.399 . S
C125 C128 1.396 . S
C125 C137 1.453 . S
C125 C138 1.684 . S
H126 C150 0.948 . S
C127 C123 1.397 . S
C127 C128 1.394 . S
C127 C146 1.723 . S
C128 C125 1.396 . S
C128 C127 1.394 . S
C128 C158 1.723 . S
H129 C152 0.947 . S
H130 C153 0.948 . S
H131 C159 0.982 . S
H132 C160 0.979 . S
H133 C160 0.980 . S
H134 C160 0.983 . S
H135 C159 0.979 . S
H136 C159 0.977 . S
C137 C125 1.453 . S
C137 H166 0.982 . S
C137 H167 0.979 . S
C137 H168 0.977 . S
C138 C125 1.684 . S
C138 H163 0.979 . S
C138 H164 0.980 . S
C138 H165 0.983 . S
C139 C140 1.391 . S
C139 C144 1.391 1_556 S
C139 H169 0.948 . S
C140 C139 1.391 . S
C140 C141 1.391 1_556 S
C141 C140 1.391 1_554 S
C141 C142 1.392 . S
C141 H170 0.947 . S
C142 C141 1.392 . S
C142 C143 1.419 . S
C142 H171 0.948 . S
C143 C142 1.419 . S
C143 C144 1.391 . S
C143 C147 1.397 . S
C144 C139 1.391 1_554 S
C144 C143 1.391 . S
C144 C145 1.399 . S
C145 C144 1.399 . S
C145 C146 1.396 . S
C145 C148 1.453 . S
C145 C149 1.684 1_554 S
C146 C127 1.723 . S
C146 C145 1.396 . S
C146 C147 1.394 . S
C147 C143 1.397 . S
C147 C146 1.394 . S
C147 C157 1.723 . S
C148 C145 1.453 . S
C148 H172 0.982 . S
C148 H173 0.979 1_554 S
C148 H174 0.977 . S
C149 C145 1.684 1_556 S
C149 H175 0.979 . S
C149 H176 0.980 . S
C149 H177 0.983 . S
C150 H126 0.948 . S
C150 C151 1.391 . S
C150 C155 1.391 . S
C151 C150 1.391 . S
C151 C152 1.391 . S
C152 H129 0.947 . S
C152 C151 1.391 . S
C152 C153 1.392 . S
C153 H130 0.948 . S
C153 C152 1.392 . S
C153 C154 1.419 . S
C154 C153 1.419 . S
C154 C155 1.391 . S
C154 C158 1.397 . S
C155 C150 1.391 . S
C155 C154 1.391 . S
C155 C156 1.399 . S
C156 C155 1.399 . S
C156 C157 1.396 . S
C156 C159 1.453 . S
C156 C160 1.684 . S
C157 C147 1.723 . S
C157 C156 1.396 . S
C157 C158 1.394 . S
C158 C128 1.723 . S
C158 C154 1.397 . S
C158 C157 1.394 . S
C159 H131 0.982 . S
C159 H135 0.979 . S
C159 H136 0.977 . S
C159 C156 1.453 . S
C160 H132 0.979 . S
C160 H133 0.980 . S
C160 H134 0.983 . S
C160 C156 1.684 . S
H161 C179 0.948 . S
H162 C120 0.948 . S
H163 C138 0.979 . S
H164 C138 0.980 . S
H165 C138 0.983 . S
H166 C137 0.982 . S
H167 C137 0.979 . S
H168 C137 0.977 . S
H169 C139 0.948 . S
H170 C141 0.947 . S
H171 C142 0.948 . S
H172 C148 0.982 . S
H173 C148 0.979 1_556 S
H174 C148 0.977 . S
H175 C149 0.979 . S
H176 C149 0.980 . S
H177 C149 0.983 . S
H178 C122 0.947 . S
C179 C122 1.392 . S
C179 C123 1.419 . S
C179 H161 0.948 . S
C180 C181 1.391 . S
C180 C184 1.391 . S
C180 H222 0.948 . S
C181 C180 1.391 . S
C181 C182 1.391 . S
C182 C181 1.391 . S
C182 H238 0.947 . S
C182 C239 1.392 . S
C183 C184 1.391 . S
C183 C187 1.397 . S
C183 C239 1.419 . S
C184 C180 1.391 . S
C184 C183 1.391 . S
C184 C185 1.399 . S
C185 C184 1.399 . S
C185 C188 1.396 . S
C185 C197 1.453 . S
C185 C198 1.684 . S
H186 C210 0.948 . S
C187 C183 1.397 . S
C187 C188 1.394 . S
C187 C206 1.723 . S
C188 C185 1.396 . S
C188 C187 1.394 . S
C188 C218 1.723 . S
H189 C212 0.947 . S
H190 C213 0.948 . S
H191 C219 0.982 . S
H192 C220 0.979 1_554 S
H193 C220 0.980 . S
H194 C220 0.983 . S
H195 C219 0.979 1_556 S
H196 C219 0.977 1_556 S
C197 C185 1.453 . S
C197 H226 0.982 . S
C197 H227 0.979 . S
C197 H228 0.977 . S
C198 C185 1.684 . S
C198 H223 0.979 . S
C198 H224 0.980 . S
C198 H225 0.983 . S
C199 C200 1.391 1_554 S
C199 C204 1.391 . S
C199 H229 0.948 . S
C200 C199 1.391 1_556 S
C200 C201 1.391 . S
C201 C200 1.391 . S
C201 C202 1.392 . S
C201 H230 0.947 . S
C202 C201 1.392 . S
C202 C203 1.419 1_556 S
C202 H231 0.948 . S
C203 C202 1.419 1_554 S
C203 C204 1.391 . S
C203 C207 1.397 . S
C204 C199 1.391 . S
C204 C203 1.391 . S
C204 C205 1.399 . S
C205 C204 1.399 . S
C205 C206 1.396 . S
C205 C208 1.453 . S
C205 C209 1.684 . S
C206 C187 1.723 . S
C206 C205 1.396 . S
C206 C207 1.394 . S
C207 C203 1.397 . S
C207 C206 1.394 . S
C207 C217 1.723 . S
C208 C205 1.453 . S
C208 H232 0.982 . S
C208 H233 0.979 . S
C208 H234 0.977 . S
C209 C205 1.684 . S
C209 H235 0.979 . S
C209 H236 0.980 . S
C209 H237 0.983 . S
C210 H186 0.948 . S
C210 C211 1.391 . S
C210 C215 1.391 . S
C211 C210 1.391 . S
C211 C212 1.391 . S
C212 H189 0.947 . S
C212 C211 1.391 . S
C212 C213 1.392 . S
C213 H190 0.948 . S
C213 C212 1.392 . S
C213 C214 1.419 . S
C214 C213 1.419 . S
C214 C215 1.391 . S
C214 C218 1.397 . S
C215 C210 1.391 . S
C215 C214 1.391 . S
C215 C216 1.399 . S
C216 C215 1.399 . S
C216 C217 1.396 . S
C216 C219 1.453 . S
C216 C220 1.684 1_554 S
C217 C207 1.723 . S
C217 C216 1.396 . S
C217 C218 1.394 . S
C218 C188 1.723 . S
C218 C214 1.397 . S
C218 C217 1.394 . S
C219 H191 0.982 . S
C219 H195 0.979 1_554 S
C219 H196 0.977 1_554 S
C219 C216 1.453 . S
C220 H192 0.979 1_556 S
C220 H193 0.980 . S
C220 H194 0.983 . S
C220 C216 1.684 1_556 S
H221 C239 0.948 . S
H222 C180 0.948 . S
H223 C198 0.979 . S
H224 C198 0.980 . S
H225 C198 0.983 . S
H226 C197 0.982 . S
H227 C197 0.979 . S
H228 C197 0.977 . S
H229 C199 0.948 . S
H230 C201 0.947 . S
H231 C202 0.948 . S
H232 C208 0.982 . S
H233 C208 0.979 . S
H234 C208 0.977 . S
H235 C209 0.979 . S
H236 C209 0.980 . S
H237 C209 0.983 . S
H238 C182 0.947 . S
C239 C182 1.392 . S
C239 C183 1.419 . S
C239 H221 0.948 . S
C240 C241 1.391 . S
C240 C244 1.391 . S
C240 H282 0.948 1_554 S
C241 C240 1.391 . S
C241 C242 1.391 . S
C242 C241 1.391 . S
C242 H298 0.947 . S
C242 C299 1.392 . S
C243 C244 1.391 . S
C243 C247 1.397 . S
C243 C299 1.419 . S
C244 C240 1.391 . S
C244 C243 1.391 . S
C244 C245 1.399 1_554 S
C245 C244 1.399 1_556 S
C245 C248 1.396 . S
C245 C257 1.453 . S
C245 C258 1.684 . S
H246 C270 0.948 . S
C247 C243 1.397 . S
C247 C248 1.394 1_554 S
C247 C266 1.723 . S
C248 C245 1.396 . S
C248 C247 1.394 1_556 S
C248 C278 1.723 . S
H249 C272 0.947 . S
H250 C273 0.948 . S
H251 C279 0.982 . S
H252 C280 0.979 . S
H253 C280 0.980 . S
H254 C280 0.983 . S
H255 C279 0.979 . S
H256 C279 0.977 . S
C257 C245 1.453 . S
C257 H286 0.982 . S
C257 H287 0.979 . S
C257 H288 0.977 . S
C258 C245 1.684 . S
C258 H283 0.979 . S
C258 H284 0.980 . S
C258 H285 0.983 . S
C259 C260 1.391 . S
C259 C264 1.391 . S
C259 H289 0.948 . S
C260 C259 1.391 . S
C260 C261 1.391 . S
C261 C260 1.391 . S
C261 C262 1.392 . S
C261 H290 0.947 . S
C262 C261 1.392 . S
C262 C263 1.419 . S
C262 H291 0.948 . S
C263 C262 1.419 . S
C263 C264 1.391 . S
C263 C267 1.397 . S
C264 C259 1.391 . S
C264 C263 1.391 . S
C264 C265 1.399 . S
C265 C264 1.399 . S
C265 C266 1.396 . S
C265 C268 1.453 . S
C265 C269 1.684 . S
C266 C247 1.723 . S
C266 C265 1.396 . S
C266 C267 1.394 . S
C267 C263 1.397 . S
C267 C266 1.394 . S
C267 C277 1.723 1_554 S
C268 C265 1.453 . S
C268 H292 0.982 . S
C268 H293 0.979 . S
C268 H294 0.977 . S
C269 C265 1.684 . S
C269 H295 0.979 . S
C269 H296 0.980 . S
C269 H297 0.983 . S
C270 H246 0.948 . S
C270 C271 1.391 . S
C270 C275 1.391 . S
C271 C270 1.391 . S
C271 C272 1.391 . S
C272 H249 0.947 . S
C272 C271 1.391 . S
C272 C273 1.392 . S
C273 H250 0.948 . S
C273 C272 1.392 . S
C273 C274 1.419 . S
C274 C273 1.419 . S
C274 C275 1.391 . S
C274 C278 1.397 . S
C275 C270 1.391 . S
C275 C274 1.391 . S
C275 C276 1.399 . S
C276 C275 1.399 . S
C276 C277 1.396 . S
C276 C279 1.453 . S
C276 C280 1.684 . S
C277 C267 1.723 1_556 S
C277 C276 1.396 . S
C277 C278 1.394 . S
C278 C248 1.723 . S
C278 C274 1.397 . S
C278 C277 1.394 . S
C279 H251 0.982 . S
C279 H255 0.979 . S
C279 H256 0.977 . S
C279 C276 1.453 . S
C280 H252 0.979 . S
C280 H253 0.980 . S
C280 H254 0.983 . S
C280 C276 1.684 . S
H281 C299 0.948 . S
H282 C240 0.948 1_556 S
H283 C258 0.979 . S
H284 C258 0.980 . S
H285 C258 0.983 . S
H286 C257 0.982 . S
H287 C257 0.979 . S
H288 C257 0.977 . S
H289 C259 0.948 . S
H290 C261 0.947 . S
H291 C262 0.948 . S
H292 C268 0.982 . S
H293 C268 0.979 . S
H294 C268 0.977 . S
H295 C269 0.979 . S
H296 C269 0.980 . S
H297 C269 0.983 . S
H298 C242 0.947 . S
C299 C242 1.392 . S
C299 C243 1.419 . S
C299 H281 0.948 . S
C300 C301 1.391 . S
C300 C304 1.391 . S
C300 H342 0.948 . S
C301 C300 1.391 . S
C301 C302 1.391 . S
C302 C301 1.391 . S
C302 H358 0.947 . S
C302 C359 1.392 . S
C303 C304 1.391 . S
C303 C307 1.397 . S
C303 C359 1.419 . S
C304 C300 1.391 . S
C304 C303 1.391 . S
C304 C305 1.399 . S
C305 C304 1.399 . S
C305 C308 1.396 . S
C305 C317 1.453 . S
C305 C318 1.684 . S
H306 C330 0.948 1_556 S
C307 C303 1.397 . S
C307 C308 1.394 . S
C307 C326 1.723 1_554 S
C308 C305 1.396 . S
C308 C307 1.394 . S
C308 C338 1.723 . S
H309 C332 0.947 . S
H310 C333 0.948 . S
H311 C339 0.982 . S
H312 C340 0.979 . S
H313 C340 0.980 . S
H314 C340 0.983 . S
H315 C339 0.979 . S
H316 C339 0.977 . S
C317 C305 1.453 . S
C317 H346 0.982 . S
C317 H347 0.979 . S
C317 H348 0.977 . S
C318 C305 1.684 . S
C318 H343 0.979 . S
C318 H344 0.980 . S
C318 H345 0.983 . S
C319 C320 1.391 . S
C319 C324 1.391 . S
C319 H349 0.948 . S
C320 C319 1.391 . S
C320 C321 1.391 . S
C321 C320 1.391 . S
C321 C322 1.392 . S
C321 H350 0.947 . S
C322 C321 1.392 . S
C322 C323 1.419 . S
C322 H351 0.948 . S
C323 C322 1.419 . S
C323 C324 1.391 . S
C323 C327 1.397 . S
C324 C319 1.391 . S
C324 C323 1.391 . S
C324 C325 1.399 . S
C325 C324 1.399 . S
C325 C326 1.396 . S
C325 C328 1.453 . S
C325 C329 1.684 . S
C326 C307 1.723 1_556 S
C326 C325 1.396 . S
C326 C327 1.394 . S
C327 C323 1.397 . S
C327 C326 1.394 . S
C327 C337 1.723 . S
C328 C325 1.453 . S
C328 H352 0.982 . S
C328 H353 0.979 . S
C328 H354 0.977 . S
C329 C325 1.684 . S
C329 H355 0.979 . S
C329 H356 0.980 . S
C329 H357 0.983 . S
C330 H306 0.948 1_554 S
C330 C331 1.391 . S
C330 C335 1.391 . S
C331 C330 1.391 . S
C331 C332 1.391 . S
C332 H309 0.947 . S
C332 C331 1.391 . S
C332 C333 1.392 . S
C333 H310 0.948 . S
C333 C332 1.392 . S
C333 C334 1.419 . S
C334 C333 1.419 . S
C334 C335 1.391 . S
C334 C338 1.397 . S
C335 C330 1.391 . S
C335 C334 1.391 . S
C335 C336 1.399 1_554 S
C336 C335 1.399 1_556 S
C336 C337 1.396 . S
C336 C339 1.453 . S
C336 C340 1.684 . S
C337 C327 1.723 . S
C337 C336 1.396 . S
C337 C338 1.394 1_556 S
C338 C308 1.723 . S
C338 C334 1.397 . S
C338 C337 1.394 1_554 S
C339 H311 0.982 . S
C339 H315 0.979 . S
C339 H316 0.977 . S
C339 C336 1.453 . S
C340 H312 0.979 . S
C340 H313 0.980 . S
C340 H314 0.983 . S
C340 C336 1.684 . S
H341 C359 0.948 . S
H342 C300 0.948 . S
H343 C318 0.979 . S
H344 C318 0.980 . S
H345 C318 0.983 . S
H346 C317 0.982 . S
H347 C317 0.979 . S
H348 C317 0.977 . S
H349 C319 0.948 . S
H350 C321 0.947 . S
H351 C322 0.948 . S
H352 C328 0.982 . S
H353 C328 0.979 . S
H354 C328 0.977 . S
H355 C329 0.979 . S
H356 C329 0.980 . S
H357 C329 0.983 . S
H358 C302 0.947 . S
C359 C302 1.392 . S
C359 C303 1.419 . S
C359 H341 0.948 . S
C360 C361 1.391 . S
C360 C364 1.391 . S
C360 H402 0.948 . S
C361 C360 1.391 . S
C361 C362 1.391 . S
C362 C361 1.391 . S
C362 H418 0.947 . S
C362 C419 1.392 . S
C363 C364 1.391 . S
C363 C367 1.397 . S
C363 C419 1.419 . S
C364 C360 1.391 . S
C364 C363 1.391 . S
C364 C365 1.399 . S
C365 C364 1.399 . S
C365 C368 1.396 . S
C365 C377 1.453 . S
C365 C378 1.684 . S
H366 C390 0.948 . S
C367 C363 1.397 . S
C367 C368 1.394 . S
C367 C386 1.723 1_556 S
C368 C365 1.396 . S
C368 C367 1.394 . S
C368 C398 1.723 1_556 S
H369 C392 0.947 . S
H370 C393 0.948 . S
H371 C399 0.982 . S
H372 C400 0.979 . S
H373 C400 0.980 . S
H374 C400 0.983 . S
H375 C399 0.979 . S
H376 C399 0.977 . S
C377 C365 1.453 . S
C377 H406 0.982 . S
C377 H407 0.979 . S
C377 H408 0.977 . S
C378 C365 1.684 . S
C378 H403 0.979 . S
C378 H404 0.980 . S
C378 H405 0.983 . S
C379 C380 1.391 . S
C379 C384 1.391 . S
C379 H409 0.948 . S
C380 C379 1.391 . S
C380 C381 1.391 . S
C381 C380 1.391 . S
C381 C382 1.392 . S
C381 H410 0.947 . S
C382 C381 1.392 . S
C382 C383 1.419 . S
C382 H411 0.948 . S
C383 C382 1.419 . S
C383 C384 1.391 . S
C383 C387 1.397 . S
C384 C379 1.391 . S
C384 C383 1.391 . S
C384 C385 1.399 . S
C385 C384 1.399 . S
C385 C386 1.396 . S
C385 C388 1.453 . S
C385 C389 1.679 1_554 S
C386 C367 1.723 1_554 S
C386 C385 1.396 . S
C386 C387 1.394 . S
C387 C383 1.397 . S
C387 C386 1.394 . S
C387 C397 1.723 . S
C388 C385 1.453 . S
C388 H412 0.982 . S
C388 H413 0.979 . S
C388 H414 0.977 1_554 S
C389 C385 1.679 1_556 S
C389 H415 0.977 1_556 S
C389 H416 0.990 . S
C389 H417 0.979 1_556 S
C390 H366 0.948 . S
C390 C391 1.391 . S
C390 C395 1.391 . S
C391 C390 1.391 . S
C391 C392 1.391 1_554 S
C392 H369 0.947 . S
C392 C391 1.391 1_556 S
C392 C393 1.392 . S
C393 H370 0.948 . S
C393 C392 1.392 . S
C393 C394 1.419 1_556 S
C394 C393 1.419 1_554 S
C394 C395 1.391 . S
C394 C398 1.397 . S
C395 C390 1.391 . S
C395 C394 1.391 . S
C395 C396 1.399 . S
C396 C395 1.399 . S
C396 C397 1.396 . S
C396 C399 1.453 . S
C396 C400 1.684 . S
C397 C387 1.723 . S
C397 C396 1.396 . S
C397 C398 1.394 . S
C398 C368 1.723 1_554 S
C398 C394 1.397 . S
C398 C397 1.394 . S
C399 H371 0.982 . S
C399 H375 0.979 . S
C399 H376 0.977 . S
C399 C396 1.453 . S
C400 H372 0.979 . S
C400 H373 0.980 . S
C400 H374 0.983 . S
C400 C396 1.684 . S
H401 C419 0.948 . S
H402 C360 0.948 . S
H403 C378 0.979 . S
H404 C378 0.980 . S
H405 C378 0.983 . S
H406 C377 0.982 . S
H407 C377 0.979 . S
H408 C377 0.977 . S
H409 C379 0.948 . S
H410 C381 0.947 . S
H411 C382 0.948 . S
H412 C388 0.982 . S
H413 C388 0.979 . S
H414 C388 0.977 1_556 S
H415 C389 0.977 1_554 S
H416 C389 0.990 . S
H417 C389 0.979 1_554 S
H418 C362 0.947 . S
C419 C362 1.392 . S
C419 C363 1.419 . S
C419 H401 0.948 . S
C420 C421 1.391 . S
C420 C424 1.391 . S
C420 H462 0.948 . S
C421 C420 1.391 . S
C421 C422 1.391 . S
C422 C421 1.391 . S
C422 H478 0.947 . S
C422 C479 1.392 . S
C423 C424 1.391 . S
C423 C427 1.397 . S
C423 C479 1.419 . S
C424 C420 1.391 . S
C424 C423 1.391 . S
C424 C425 1.399 . S
C425 C424 1.399 . S
C425 C428 1.396 . S
C425 C437 1.453 . S
C425 C438 1.684 . S
H426 C450 0.948 . S
C427 C423 1.397 . S
C427 C428 1.394 . S
C427 C446 1.723 1_556 S
C428 C425 1.396 . S
C428 C427 1.394 . S
C428 C458 1.723 1_556 S
H429 C452 0.947 1_556 S
H430 C453 0.948 . S
H431 C459 0.982 . S
H432 C460 0.979 . S
H433 C460 0.980 . S
H434 C460 0.983 . S
H435 C459 0.979 . S
H436 C459 0.977 . S
C437 C425 1.453 . S
C437 H466 0.982 . S
C437 H467 0.979 . S
C437 H468 0.977 . S
C438 C425 1.684 . S
C438 H463 0.979 . S
C438 H464 0.980 . S
C438 H465 0.983 . S
C439 C440 1.391 . S
C439 C444 1.391 . S
C439 H469 0.948 . S
C440 C439 1.391 . S
C440 C441 1.391 . S
C441 C440 1.391 . S
C441 C442 1.392 . S
C441 H470 0.947 . S
C442 C441 1.392 . S
C442 C443 1.419 . S
C442 H471 0.948 . S
C443 C442 1.419 . S
C443 C444 1.391 . S
C443 C447 1.397 . S
C444 C439 1.391 . S
C444 C443 1.391 . S
C444 C445 1.399 . S
C445 C444 1.399 . S
C445 C446 1.396 . S
C445 C448 1.453 . S
C445 C449 1.684 . S
C446 C427 1.723 1_554 S
C446 C445 1.396 . S
C446 C447 1.394 . S
C447 C443 1.397 . S
C447 C446 1.394 . S
C447 C457 1.723 . S
C448 C445 1.453 . S
C448 H472 0.982 . S
C448 H473 0.979 . S
C448 H474 0.977 1_554 S
C449 C445 1.684 . S
C449 H475 0.979 . S
C449 H476 0.980 1_554 S
C449 H477 0.983 . S
C450 H426 0.948 . S
C450 C451 1.391 . S
C450 C455 1.391 . S
C451 C450 1.391 . S
C451 C452 1.391 . S
C452 H429 0.947 1_554 S
C452 C451 1.391 . S
C452 C453 1.392 1_554 S
C453 H430 0.948 . S
C453 C452 1.392 1_556 S
C453 C454 1.419 1_556 S
C454 C453 1.419 1_554 S
C454 C455 1.391 . S
C454 C458 1.397 . S
C455 C450 1.391 . S
C455 C454 1.391 . S
C455 C456 1.399 . S
C456 C455 1.399 . S
C456 C457 1.396 . S
C456 C459 1.453 . S
C456 C460 1.684 . S
C457 C447 1.723 . S
C457 C456 1.396 . S
C457 C458 1.394 . S
C458 C428 1.723 1_554 S
C458 C454 1.397 . S
C458 C457 1.394 . S
C459 H431 0.982 . S
C459 H435 0.979 . S
C459 H436 0.977 . S
C459 C456 1.453 . S
C460 H432 0.979 . S
C460 H433 0.980 . S
C460 H434 0.983 . S
C460 C456 1.684 . S
H461 C479 0.948 . S
H462 C420 0.948 . S
H463 C438 0.979 . S
H464 C438 0.980 . S
H465 C438 0.983 . S
H466 C437 0.982 . S
H467 C437 0.979 . S
H468 C437 0.977 . S
H469 C439 0.948 . S
H470 C441 0.947 . S
H471 C442 0.948 . S
H472 C448 0.982 . S
H473 C448 0.979 . S
H474 C448 0.977 1_556 S
H475 C449 0.979 . S
H476 C449 0.980 1_556 S
H477 C449 0.983 . S
H478 C422 0.947 . S
C479 C422 1.392 . S
C479 C423 1.419 . S
C479 H461 0.948 . S
Tb480 N511 2.660 1_565 S
Tb480 N518 2.600 . S
Tb480 O524 2.546 . S
Tb480 O525 2.610 1_455 S
Tb480 O527 2.320 1_455 S
Tb480 O528 2.552 . S
Tb480 O529 2.413 . S
Tb480 O531 2.362 1_565 S
Tb480 O532 2.421 . S
Tb480 C544 2.833 . S
C481 C484 1.417 1_545 S
C481 C485 1.414 . S
C481 N488 1.359 . S
C482 C484 1.437 . S
C482 C486 1.432 . S
C482 C494 1.410 . S
C483 C485 1.444 1_565 S
C483 C486 1.317 . S
C483 H506 0.929 . S
C484 C481 1.417 1_565 S
C484 C482 1.437 . S
C484 N492 1.354 1_565 S
C485 C481 1.414 . S
C485 C483 1.444 1_545 S
C485 C490 1.385 . S
C486 C482 1.432 . S
C486 C483 1.317 . S
C486 H498 0.930 . S
C487 C489 1.392 . S
C487 C490 1.370 . S
C487 H499 0.931 . S
N488 C481 1.359 . S
N488 C489 1.327 . S
N488 Tb491 2.600 . S
C489 C487 1.392 . S
C489 N488 1.327 . S
C489 H496 0.930 . S
C490 C485 1.385 . S
C490 C487 1.370 . S
C490 H509 0.930 . S
Tb491 N488 2.600 . S
Tb491 N492 2.660 . S
Tb491 O525 2.362 1_545 S
Tb491 O526 2.421 . S
Tb491 O530 2.546 . S
Tb491 O531 2.610 1_655 S
Tb491 O533 2.320 1_655 S
Tb491 O534 2.552 1_655 S
Tb491 O535 2.413 . S
Tb491 C555 2.833 . S
N492 C484 1.354 1_545 S
N492 Tb491 2.660 . S
N492 C493 1.305 1_645 S
C493 N492 1.305 1_465 S
C493 C495 1.407 . S
C493 H500 0.930 . S
C494 C482 1.410 . S
C494 C495 1.345 1_655 S
C494 H502 0.930 . S
C495 C493 1.407 . S
C495 C494 1.345 1_455 S
C495 H497 0.930 . S
H496 C489 0.930 . S
H497 C495 0.930 . S
H498 C486 0.930 . S
H499 C487 0.931 . S
H500 C493 0.930 . S
H501 C515 0.930 1_655 S
H502 C494 0.930 . S
H503 C521 0.930 . S
H504 C512 0.930 1_655 S
H505 C519 0.931 . S
H506 C483 0.929 . S
H507 C513 0.930 . S
H508 C546 0.930 . S
H509 C490 0.930 . S
H510 C545 0.929 . S
N511 Tb480 2.660 1_545 S
N511 C512 1.305 . S
N511 C516 1.360 . S
C512 H504 0.930 1_455 S
C512 N511 1.305 . S
C512 C515 1.407 . S
C513 H507 0.930 . S
C513 C514 1.410 . S
C513 C515 1.345 . S
C514 C513 1.410 . S
C514 C516 1.417 . S
C514 C546 1.432 . S
C515 H501 0.930 1_455 S
C515 C512 1.407 . S
C515 C513 1.345 . S
C516 N511 1.360 . S
C516 C514 1.417 . S
C516 C520 1.432 . S
H517 C522 0.930 . S
N518 Tb480 2.600 . S
N518 C520 1.359 1_565 S
N518 C521 1.327 . S
C519 H505 0.931 . S
C519 C521 1.392 . S
C519 C522 1.370 . S
C520 C516 1.432 . S
C520 N518 1.359 1_545 S
C520 C523 1.414 . S
C521 H503 0.930 . S
C521 N518 1.327 . S
C521 C519 1.392 . S
C522 H517 0.930 . S
C522 C519 1.370 . S
C522 C523 1.385 1_565 S
C523 C520 1.414 . S
C523 C522 1.385 1_545 S
C523 C545 1.444 . S
O524 Tb480 2.546 . S
O524 C544 1.251 . S
O525 Tb480 2.610 1_655 S
O525 Tb491 2.362 1_565 S
O525 C536 1.283 . S
O526 Tb491 2.421 . S
O526 C543 1.262 . S
O527 Tb480 2.320 1_655 S
O527 C543 1.260 1_565 S
O528 Tb480 2.552 . S
O528 C536 1.243 1_455 S
O529 Tb480 2.413 . S
O529 C544 1.256 . S
O530 Tb491 2.546 . S
O530 C555 1.251 . S
O531 Tb480 2.362 1_545 S
O531 Tb491 2.610 1_455 S
O531 C547 1.283 . S
O532 Tb480 2.421 . S
O532 C554 1.262 1_565 S
O533 Tb491 2.320 1_455 S
O533 C554 1.260 . S
O534 Tb491 2.552 1_455 S
O534 C547 1.243 . S
O535 Tb491 2.413 . S
O535 C555 1.256 . S
C536 O525 1.283 . S
C536 O528 1.243 1_655 S
C537 C539 1.382 . S
C537 C541 1.393 . S
C537 C544 1.500 . S
C538 C539 1.400 . S
C538 C540 1.384 . S
C539 C537 1.382 . S
C539 C538 1.400 . S
C539 H556 0.930 1_455 S
C540 C538 1.384 . S
C540 C542 1.392 . S
C540 H557 0.931 . S
C541 C537 1.393 . S
C541 C542 1.401 . S
C541 H558 0.930 . S
C542 C540 1.392 . S
C542 C541 1.401 . S
C542 H559 0.930 . S
C543 O526 1.262 . S
C543 O527 1.260 1_545 S
C544 Tb480 2.833 . S
C544 O524 1.251 . S
C544 O529 1.256 . S
C544 C537 1.500 . S
C545 H510 0.929 . S
C545 C523 1.444 . S
C545 C546 1.317 . S
C546 H508 0.930 . S
C546 C514 1.432 . S
C546 C545 1.317 . S
C547 O531 1.283 . S
C547 O534 1.243 . S
C548 C549 1.382 . S
C548 C552 1.393 . S
C548 C555 1.500 . S
C549 C548 1.382 . S
C549 C550 1.400 . S
C549 H560 0.930 1_655 S
C550 C549 1.400 . S
C550 C551 1.384 . S
C551 C550 1.384 . S
C551 C553 1.392 . S
C551 H561 0.931 . S
C552 C548 1.393 . S
C552 C553 1.401 . S
C552 H562 0.930 . S
C553 C551 1.392 . S
C553 C552 1.401 . S
C553 H563 0.930 . S
C554 O532 1.262 1_545 S
C554 O533 1.260 . S
C555 Tb491 2.833 . S
C555 O530 1.251 . S
C555 O535 1.256 . S
C555 C548 1.500 . S
H556 C539 0.930 1_655 S
H557 C540 0.931 . S
H558 C541 0.930 . S
H559 C542 0.930 . S
H560 C549 0.930 1_455 S
H561 C551 0.931 . S
H562 C552 0.930 . S
H563 C553 0.930 . S
Tb564 N595 2.660 . S
Tb564 N602 2.600 . S
Tb564 O608 2.546 . S
Tb564 O609 2.610 1_545 S
Tb564 O611 2.320 1_545 S
Tb564 O612 2.552 . S
Tb564 O613 2.413 . S
Tb564 O615 2.362 . S
Tb564 O616 2.421 . S
Tb564 C628 2.833 . S
C565 C568 1.432 . S
C565 C569 1.414 . S
C565 N572 1.359 . S
C566 C568 1.417 . S
C566 C570 1.432 . S
C566 C578 1.410 . S
C567 C569 1.444 . S
C567 C570 1.317 . S
C567 H590 0.929 . S
C568 C565 1.432 . S
C568 C566 1.417 . S
C568 N576 1.360 . S
C569 C565 1.414 . S
C569 C567 1.444 . S
C569 C574 1.385 . S
C570 C566 1.432 . S
C570 C567 1.317 . S
C570 H582 0.930 . S
C571 C573 1.392 . S
C571 C574 1.370 . S
C571 H583 0.931 . S
N572 C565 1.359 . S
N572 C573 1.327 . S
N572 Tb575 2.600 . S
C573 C571 1.392 . S
C573 N572 1.327 . S
C573 H580 0.930 . S
C574 C569 1.385 . S
C574 C571 1.370 . S
C574 H593 0.930 . S
Tb575 N572 2.600 . S
Tb575 N576 2.660 . S
Tb575 O609 2.362 . S
Tb575 O610 2.421 . S
Tb575 O614 2.546 . S
Tb575 O615 2.610 1_565 S
Tb575 O617 2.320 1_565 S
Tb575 O618 2.552 1_565 S
Tb575 O619 2.413 . S
Tb575 C639 2.833 . S
N576 C568 1.360 . S
N576 Tb575 2.660 . S
N576 C577 1.305 1_565 S
C577 N576 1.305 1_545 S
C577 C579 1.407 . S
C577 H584 0.930 . S
C578 C566 1.410 . S
C578 C579 1.345 1_565 S
C578 H586 0.930 . S
C579 C577 1.407 . S
C579 C578 1.345 1_545 S
C579 H581 0.930 . S
H580 C573 0.930 . S
H581 C579 0.930 . S
H582 C570 0.930 . S
H583 C571 0.931 . S
H584 C577 0.930 . S
H585 C599 0.930 1_565 S
H586 C578 0.930 . S
H587 C605 0.930 . S
H588 C596 0.930 1_565 S
H589 C603 0.931 . S
H590 C567 0.929 . S
H591 C597 0.930 . S
H592 C630 0.930 . S
H593 C574 0.930 . S
H594 C629 0.929 . S
N595 Tb564 2.660 . S
N595 C596 1.305 . S
N595 C600 1.360 . S
C596 H588 0.930 1_545 S
C596 N595 1.305 . S
C596 C599 1.407 . S
C597 H591 0.930 . S
C597 C598 1.410 . S
C597 C599 1.345 . S
C598 C597 1.410 . S
C598 C600 1.417 . S
C598 C630 1.432 . S
C599 H585 0.930 1_545 S
C599 C596 1.407 . S
C599 C597 1.345 . S
C600 N595 1.360 . S
C600 C598 1.417 . S
C600 C604 1.432 . S
H601 C606 0.930 . S
N602 Tb564 2.600 . S
N602 C604 1.359 . S
N602 C605 1.327 . S
C603 H589 0.931 . S
C603 C605 1.392 . S
C603 C606 1.370 . S
C604 C600 1.432 . S
C604 N602 1.359 . S
C604 C607 1.414 . S
C605 H587 0.930 . S
C605 N602 1.327 . S
C605 C603 1.392 . S
C606 H601 0.930 . S
C606 C603 1.370 . S
C606 C607 1.385 . S
C607 C604 1.414 . S
C607 C606 1.385 . S
C607 C629 1.444 . S
O608 Tb564 2.546 . S
O608 C628 1.251 . S
O609 Tb564 2.610 1_565 S
O609 Tb575 2.362 . S
O609 C620 1.283 . S
O610 Tb575 2.421 . S
O610 C627 1.262 . S
O611 Tb564 2.320 1_565 S
O611 C627 1.260 . S
O612 Tb564 2.552 . S
O612 C620 1.243 1_545 S
O613 Tb564 2.413 . S
O613 C628 1.256 . S
O614 Tb575 2.546 . S
O614 C639 1.251 . S
O615 Tb564 2.362 . S
O615 Tb575 2.610 1_545 S
O615 C631 1.283 . S
O616 Tb564 2.421 . S
O616 C638 1.262 . S
O617 Tb575 2.320 1_545 S
O617 C638 1.260 . S
O618 Tb575 2.552 1_545 S
O618 C631 1.243 . S
O619 Tb575 2.413 . S
O619 C639 1.256 . S
C620 O609 1.283 . S
C620 O612 1.243 1_565 S
C621 C623 1.382 . S
C621 C625 1.393 . S
C621 C628 1.500 . S
C622 C623 1.400 . S
C622 C624 1.384 . S
C623 C621 1.382 . S
C623 C622 1.400 . S
C623 H640 0.942 . S
C624 C622 1.384 . S
C624 C626 1.392 . S
C624 H641 0.931 . S
C625 C621 1.393 . S
C625 C626 1.401 . S
C625 H642 0.930 . S
C626 C624 1.392 . S
C626 C625 1.401 . S
C626 H643 0.930 . S
C627 O610 1.262 . S
C627 O611 1.260 . S
C628 Tb564 2.833 . S
C628 O608 1.251 . S
C628 O613 1.256 . S
C628 C621 1.500 . S
C629 H594 0.929 . S
C629 C607 1.444 . S
C629 C630 1.317 . S
C630 H592 0.930 . S
C630 C598 1.432 . S
C630 C629 1.317 . S
C631 O615 1.283 . S
C631 O618 1.243 . S
C632 C633 1.382 . S
C632 C636 1.393 . S
C632 C639 1.500 . S
C633 C632 1.382 . S
C633 C634 1.400 . S
C633 H644 0.930 1_565 S
C634 C633 1.400 . S
C634 C635 1.384 . S
C635 C634 1.384 . S
C635 C637 1.392 . S
C635 H645 0.931 . S
C636 C632 1.393 . S
C636 C637 1.401 . S
C636 H646 0.930 . S
C637 C635 1.392 . S
C637 C636 1.401 . S
C637 H647 0.930 . S
C638 O616 1.262 . S
C638 O617 1.260 . S
C639 Tb575 2.833 . S
C639 O614 1.251 . S
C639 O619 1.256 . S
C639 C632 1.500 . S
H640 C623 0.942 . S
H641 C624 0.931 . S
H642 C625 0.930 . S
H643 C626 0.930 . S
H644 C633 0.930 1_545 S
H645 C635 0.931 . S
H646 C636 0.930 . S
H647 C637 0.930 . S
Tb648 N679 2.660 . S
Tb648 N686 2.600 . S
Tb648 O692 2.546 . S
Tb648 O693 2.610 . S
Tb648 O695 2.320 . S
Tb648 O696 2.552 . S
Tb648 O697 2.413 . S
Tb648 O699 2.362 . S
Tb648 O700 2.421 . S
Tb648 C712 2.833 . S
C649 C652 1.432 . S
C649 C653 1.414 . S
C649 N656 1.359 . S
C650 C652 1.417 . S
C650 C654 1.432 . S
C650 C662 1.410 . S
C651 C653 1.444 . S
C651 C654 1.317 . S
C651 H674 0.929 . S
C652 C649 1.432 . S
C652 C650 1.417 . S
C652 N660 1.360 . S
C653 C649 1.414 . S
C653 C651 1.444 . S
C653 C658 1.385 . S
C654 C650 1.432 . S
C654 C651 1.317 . S
C654 H666 0.930 . S
C655 C657 1.392 . S
C655 C658 1.370 . S
C655 H667 0.931 . S
N656 C649 1.359 . S
N656 C657 1.327 . S
N656 Tb659 2.600 . S
C657 C655 1.392 . S
C657 N656 1.327 . S
C657 H664 0.930 . S
C658 C653 1.385 . S
C658 C655 1.370 . S
C658 H677 0.930 . S
Tb659 N656 2.600 . S
Tb659 N660 2.660 . S
Tb659 O693 2.362 . S
Tb659 O694 2.421 . S
Tb659 O698 2.546 . S
Tb659 O699 2.610 . S
Tb659 O701 2.320 . S
Tb659 O702 2.552 . S
Tb659 O703 2.413 . S
Tb659 C723 2.833 . S
N660 C652 1.360 . S
N660 Tb659 2.660 . S
N660 C661 1.305 . S
C661 N660 1.305 . S
C661 C663 1.407 . S
C661 H668 0.930 . S
C662 C650 1.410 . S
C662 C663 1.345 . S
C662 H670 0.930 . S
C663 C661 1.407 . S
C663 C662 1.345 . S
C663 H665 0.930 . S
H664 C657 0.930 . S
H665 C663 0.930 . S
H666 C654 0.930 . S
H667 C655 0.931 . S
H668 C661 0.930 . S
H669 C683 0.930 . S
H670 C662 0.930 . S
H671 C689 0.930 . S
H672 C680 0.930 . S
H673 C687 0.931 . S
H674 C651 0.929 . S
H675 C681 0.930 . S
H676 C714 0.930 . S
H677 C658 0.930 . S
H678 C713 0.929 . S
N679 Tb648 2.660 . S
N679 C680 1.305 . S
N679 C684 1.360 . S
C680 H672 0.930 . S
C680 N679 1.305 . S
C680 C683 1.407 . S
C681 H675 0.930 . S
C681 C682 1.410 . S
C681 C683 1.345 . S
C682 C681 1.410 . S
C682 C684 1.417 . S
C682 C714 1.432 . S
C683 H669 0.930 . S
C683 C680 1.407 . S
C683 C681 1.345 . S
C684 N679 1.360 . S
C684 C682 1.417 . S
C684 C688 1.432 . S
H685 C690 0.930 . S
N686 Tb648 2.600 . S
N686 C688 1.359 . S
N686 C689 1.327 . S
C687 H673 0.931 . S
C687 C689 1.392 . S
C687 C690 1.370 . S
C688 C684 1.432 . S
C688 N686 1.359 . S
C688 C691 1.414 . S
C689 H671 0.930 . S
C689 N686 1.327 . S
C689 C687 1.392 . S
C690 H685 0.930 . S
C690 C687 1.370 . S
C690 C691 1.385 . S
C691 C688 1.414 . S
C691 C690 1.385 . S
C691 C713 1.444 . S
O692 Tb648 2.546 . S
O692 C712 1.251 . S
O693 Tb648 2.610 . S
O693 Tb659 2.362 . S
O693 C704 1.283 . S
O694 Tb659 2.421 . S
O694 C711 1.262 . S
O695 Tb648 2.320 . S
O695 C711 1.260 . S
O696 Tb648 2.552 . S
O696 C704 1.243 . S
O697 Tb648 2.413 . S
O697 C712 1.256 . S
O698 Tb659 2.546 . S
O698 C723 1.251 . S
O699 Tb648 2.362 . S
O699 Tb659 2.610 . S
O699 C715 1.283 . S
O700 Tb648 2.421 . S
O700 C722 1.262 . S
O701 Tb659 2.320 . S
O701 C722 1.260 . S
O702 Tb659 2.552 . S
O702 C715 1.243 . S
O703 Tb659 2.413 . S
O703 C723 1.256 . S
C704 O693 1.283 . S
C704 O696 1.243 . S
C705 C707 1.382 . S
C705 C709 1.393 . S
C705 C712 1.500 . S
C706 C707 1.400 . S
C706 C708 1.384 . S
C707 C705 1.382 . S
C707 C706 1.400 . S
C707 H724 0.930 . S
C708 C706 1.384 . S
C708 C710 1.392 . S
C708 H725 0.931 . S
C709 C705 1.393 . S
C709 C710 1.401 . S
C709 H726 0.930 . S
C710 C708 1.392 . S
C710 C709 1.401 . S
C710 H727 0.930 . S
C711 O694 1.262 . S
C711 O695 1.260 . S
C712 Tb648 2.833 . S
C712 O692 1.251 . S
C712 O697 1.256 . S
C712 C705 1.500 . S
C713 H678 0.929 . S
C713 C691 1.444 . S
C713 C714 1.317 . S
C714 H676 0.930 . S
C714 C682 1.432 . S
C714 C713 1.317 . S
C715 O699 1.283 . S
C715 O702 1.243 . S
C716 C717 1.382 . S
C716 C720 1.393 . S
C716 C723 1.500 . S
C717 C716 1.382 . S
C717 C718 1.400 . S
C717 H728 0.930 . S
C718 C717 1.400 . S
C718 C719 1.384 . S
C719 C718 1.384 . S
C719 C721 1.392 . S
C719 H729 0.931 . S
C720 C716 1.393 . S
C720 C721 1.401 . S
C720 H730 0.930 . S
C721 C719 1.392 . S
C721 C720 1.401 . S
C721 H731 0.930 . S
C722 O700 1.262 . S
C722 O701 1.260 . S
C723 Tb659 2.833 . S
C723 O698 1.251 . S
C723 O703 1.256 . S
C723 C716 1.500 . S
H724 C707 0.930 . S
H725 C708 0.931 . S
H726 C709 0.930 . S
H727 C710 0.930 . S
H728 C717 0.930 . S
H729 C719 0.931 . S
H730 C720 0.930 . S
H731 C721 0.930 . S
Tb732 N763 2.660 . S
Tb732 N770 2.600 . S
Tb732 O776 2.546 . S
Tb732 O777 2.610 . S
Tb732 O779 2.320 . S
Tb732 O780 2.552 . S
Tb732 O781 2.413 . S
Tb732 O783 2.392 . S
Tb732 O784 2.421 1_455 S
Tb732 C796 2.833 . S
C733 C736 1.432 . S
C733 C737 1.414 . S
C733 N740 1.359 . S
C734 C736 1.417 . S
C734 C738 1.432 . S
C734 C746 1.410 . S
C735 C737 1.444 . S
C735 C738 1.317 . S
C735 H758 0.929 . S
C736 C733 1.432 . S
C736 C734 1.417 . S
C736 N744 1.360 . S
C737 C733 1.414 . S
C737 C735 1.444 . S
C737 C742 1.385 . S
C738 C734 1.432 . S
C738 C735 1.317 . S
C738 H750 0.930 . S
C739 C741 1.392 . S
C739 C742 1.370 1_455 S
C739 H751 0.931 . S
N740 C733 1.359 . S
N740 C741 1.327 1_655 S
N740 Tb743 2.600 . S
C741 C739 1.392 . S
C741 N740 1.327 1_455 S
C741 H748 0.930 . S
C742 C737 1.385 . S
C742 C739 1.370 1_655 S
C742 H761 0.930 . S
Tb743 N740 2.600 . S
Tb743 N744 2.660 . S
Tb743 O777 2.362 1_655 S
Tb743 O778 2.421 1_655 S
Tb743 O782 2.546 . S
Tb743 O783 2.591 1_655 S
Tb743 O785 2.320 . S
Tb743 O786 2.552 . S
Tb743 O787 2.413 . S
Tb743 C807 2.833 . S
N744 C736 1.360 . S
N744 Tb743 2.660 . S
N744 C745 1.305 . S
C745 N744 1.305 . S
C745 C747 1.407 . S
C745 H752 0.930 . S
C746 C734 1.410 . S
C746 C747 1.345 . S
C746 H754 0.930 . S
C747 C745 1.407 . S
C747 C746 1.345 . S
C747 H749 0.930 . S
H748 C741 0.930 . S
H749 C747 0.930 . S
H750 C738 0.930 . S
H751 C739 0.931 . S
H752 C745 0.930 . S
H753 C767 0.930 . S
H754 C746 0.930 . S
H755 C773 0.930 1_655 S
H756 C764 0.930 . S
H757 C771 0.931 1_655 S
H758 C735 0.929 . S
H759 C765 0.930 . S
H760 C798 0.930 . S
H761 C742 0.930 . S
H762 C797 0.929 . S
N763 Tb732 2.660 . S
N763 C764 1.305 . S
N763 C768 1.360 . S
C764 H756 0.930 . S
C764 N763 1.305 . S
C764 C767 1.407 . S
C765 H759 0.930 . S
C765 C766 1.410 . S
C765 C767 1.345 . S
C766 C765 1.410 . S
C766 C768 1.417 . S
C766 C798 1.432 . S
C767 H753 0.930 . S
C767 C764 1.407 . S
C767 C765 1.345 . S
C768 N763 1.360 . S
C768 C766 1.417 . S
C768 C772 1.432 . S
H769 C774 0.930 . S
N770 Tb732 2.600 . S
N770 C772 1.359 . S
N770 C773 1.327 . S
C771 H757 0.931 1_455 S
C771 C773 1.392 . S
C771 C774 1.370 . S
C772 C768 1.432 . S
C772 N770 1.359 . S
C772 C775 1.414 . S
C773 H755 0.930 1_455 S
C773 N770 1.327 . S
C773 C771 1.392 . S
C774 H769 0.930 . S
C774 C771 1.370 . S
C774 C775 1.385 . S
C775 C772 1.414 . S
C775 C774 1.385 . S
C775 C797 1.444 . S
O776 Tb732 2.546 . S
O776 C796 1.251 . S
O777 Tb732 2.610 . S
O777 Tb743 2.362 1_455 S
O777 C788 1.283 . S
O778 Tb743 2.421 1_455 S
O778 C795 1.262 . S
O779 Tb732 2.320 . S
O779 C795 1.260 . S
O780 Tb732 2.552 . S
O780 C788 1.243 . S
O781 Tb732 2.413 . S
O781 C796 1.256 . S
O782 Tb743 2.546 . S
O782 C807 1.251 . S
O783 Tb732 2.392 . S
O783 Tb743 2.591 1_455 S
O783 C799 1.262 1_455 S
O784 Tb732 2.421 1_655 S
O784 C806 1.262 . S
O785 Tb743 2.320 . S
O785 C806 1.260 . S
O786 Tb743 2.552 . S
O786 C799 1.243 . S
O787 Tb743 2.413 . S
O787 C807 1.256 . S
C788 O777 1.283 . S
C788 O780 1.243 . S
C789 C791 1.382 . S
C789 C793 1.393 . S
C789 C796 1.500 . S
C790 C791 1.400 . S
C790 C792 1.384 . S
C791 C789 1.382 . S
C791 C790 1.400 . S
C791 H808 0.930 . S
C792 C790 1.384 . S
C792 C794 1.392 . S
C792 H809 0.931 . S
C793 C789 1.393 . S
C793 C794 1.401 . S
C793 H810 0.930 . S
C794 C792 1.392 . S
C794 C793 1.401 . S
C794 H811 0.930 . S
C795 O778 1.262 . S
C795 O779 1.260 . S
C796 Tb732 2.833 . S
C796 O776 1.251 . S
C796 O781 1.256 . S
C796 C789 1.500 . S
C797 H762 0.929 . S
C797 C775 1.444 . S
C797 C798 1.317 . S
C798 H760 0.930 . S
C798 C766 1.432 . S
C798 C797 1.317 . S
C799 O783 1.262 1_655 S
C799 O786 1.243 . S
C800 C801 1.382 . S
C800 C804 1.393 . S
C800 C807 1.500 . S
C801 C800 1.382 . S
C801 C802 1.400 . S
C801 H812 0.930 . S
C802 C801 1.400 . S
C802 C803 1.384 . S
C803 C802 1.384 . S
C803 C805 1.392 . S
C803 H813 0.931 . S
C804 C800 1.393 . S
C804 C805 1.401 . S
C804 H814 0.930 . S
C805 C803 1.392 . S
C805 C804 1.401 . S
C805 H815 0.930 . S
C806 O784 1.262 . S
C806 O785 1.260 . S
C807 Tb743 2.833 . S
C807 O782 1.251 . S
C807 O787 1.256 . S
C807 C800 1.500 . S
H808 C791 0.930 . S
H809 C792 0.931 . S
H810 C793 0.930 . S
H811 C794 0.930 . S
H812 C801 0.930 . S
H813 C803 0.931 . S
H814 C804 0.930 . S
H815 C805 0.930 . S
H816 C824 0.929 . S
H817 C826 0.930 . S
H818 C828 0.930 . S
H819 C831 0.929 . S
H820 C834 0.930 . S
H821 C836 0.960 . S
H822 C836 0.960 . S
H823 C836 0.960 . S
C824 H816 0.929 . S
C824 C825 1.377 . S
C824 C826 1.384 . S
C825 C824 1.377 . S
C825 C831 1.390 . S
C826 H817 0.930 . S
C826 C824 1.384 . S
C826 C827 1.372 . S
C827 C826 1.372 . S
C827 C828 1.400 . S
C827 C832 1.490 . S
C828 H818 0.930 . S
C828 C827 1.400 . S
C828 C831 1.386 . S
H829 C845 0.930 . S
H830 C846 0.931 . S
C831 H819 0.929 . S
C831 C825 1.390 . S
C831 C828 1.386 . S
C832 C827 1.490 . S
C832 C834 1.395 . S
C832 C835 1.403 . S
H833 C839 0.930 . S
C834 H820 0.930 . S
C834 C832 1.395 . S
C834 C837 1.403 . S
C835 C832 1.403 . S
C835 C836 1.524 . S
C835 C839 1.400 . S
C836 H821 0.960 . S
C836 H822 0.960 . S
C836 H823 0.960 . S
C836 C835 1.524 . S
C837 C834 1.403 . S
C837 C838 1.392 . S
C837 C841 1.495 . S
C838 C837 1.392 . S
C838 C839 1.385 . S
C838 C840 1.478 . S
C839 H833 0.930 . S
C839 C835 1.400 . S
C839 C838 1.385 . S
C840 C838 1.478 . S
C840 C842 1.381 . S
C840 C846 1.383 . S
C841 C837 1.495 . S
C841 H847 0.959 . S
C841 H848 0.961 . S
C841 H849 0.960 . S
C842 C840 1.381 . S
C842 C843 1.394 . S
C842 H850 0.930 . S
C843 C842 1.394 . S
C843 C844 1.383 . S
C843 H851 0.975 . S
C844 C843 1.383 . S
C844 C845 1.377 . S
C845 H829 0.930 . S
C845 C844 1.377 . S
C845 C846 1.379 . S
C846 H830 0.931 . S
C846 C840 1.383 . S
C846 C845 1.379 . S
H847 C841 0.959 . S
H848 C841 0.961 . S
H849 C841 0.960 . S
H850 C842 0.930 . S
H851 C843 0.975 . S
H852 C860 0.929 . S
H853 C862 0.930 . S
H854 C864 0.930 . S
H855 C867 0.929 . S
H856 C870 0.930 . S
H857 C872 0.960 . S
H858 C872 0.960 . S
H859 C872 0.960 . S
C860 H852 0.929 . S
C860 C861 1.377 . S
C860 C862 1.384 . S
C861 C860 1.377 . S
C861 C867 1.390 . S
C862 H853 0.930 . S
C862 C860 1.384 . S
C862 C863 1.372 . S
C863 C862 1.372 . S
C863 C864 1.400 . S
C863 C868 1.490 . S
C864 H854 0.930 . S
C864 C863 1.400 . S
C864 C867 1.386 . S
H865 C881 0.930 . S
H866 C882 0.931 . S
C867 H855 0.929 . S
C867 C861 1.390 . S
C867 C864 1.386 . S
C868 C863 1.490 . S
C868 C870 1.395 . S
C868 C871 1.403 . S
H869 C875 0.930 . S
C870 H856 0.930 . S
C870 C868 1.395 . S
C870 C873 1.403 . S
C871 C868 1.403 . S
C871 C872 1.524 . S
C871 C875 1.400 . S
C872 H857 0.960 . S
C872 H858 0.960 . S
C872 H859 0.960 . S
C872 C871 1.524 . S
C873 C870 1.403 . S
C873 C874 1.392 . S
C873 C877 1.495 . S
C874 C873 1.392 . S
C874 C875 1.385 . S
C874 C876 1.478 . S
C875 H869 0.930 . S
C875 C871 1.400 . S
C875 C874 1.385 . S
C876 C874 1.478 . S
C876 C878 1.381 . S
C876 C882 1.383 . S
C877 C873 1.495 . S
C877 H883 0.959 . S
C877 H884 0.961 . S
C877 H885 0.960 . S
C878 C876 1.381 . S
C878 C879 1.394 . S
C878 H886 0.930 . S
C879 C878 1.394 . S
C879 C880 1.383 . S
C879 H887 0.929 . S
C880 C879 1.383 . S
C880 C881 1.377 . S
C881 H865 0.930 . S
C881 C880 1.377 . S
C881 C882 1.379 . S
C882 H866 0.931 . S
C882 C876 1.383 . S
C882 C881 1.379 . S
H883 C877 0.959 . S
H884 C877 0.961 . S
H885 C877 0.960 . S
H886 C878 0.930 . S
H887 C879 0.929 . S
H888 C896 0.929 . S
H889 C898 0.930 . S
H890 C900 0.930 . S
H891 C903 0.929 . S
H892 C906 0.930 . S
H893 C908 0.960 . S
H894 C908 0.960 . S
H895 C908 0.960 . S
C896 H888 0.929 . S
C896 C897 1.377 . S
C896 C898 1.384 . S
C897 C896 1.377 . S
C897 C903 1.390 . S
C898 H889 0.930 . S
C898 C896 1.384 . S
C898 C899 1.372 . S
C899 C898 1.372 . S
C899 C900 1.400 . S
C899 C904 1.490 . S
C900 H890 0.930 . S
C900 C899 1.400 . S
C900 C903 1.386 . S
H901 C917 0.930 . S
H902 C918 0.931 . S
C903 H891 0.929 . S
C903 C897 1.390 . S
C903 C900 1.386 . S
C904 C899 1.490 . S
C904 C906 1.395 . S
C904 C907 1.403 . S
H905 C911 0.930 . S
C906 H892 0.930 . S
C906 C904 1.395 . S
C906 C909 1.403 . S
C907 C904 1.403 . S
C907 C908 1.524 . S
C907 C911 1.400 . S
C908 H893 0.960 . S
C908 H894 0.960 . S
C908 H895 0.960 . S
C908 C907 1.524 . S
C909 C906 1.403 . S
C909 C910 1.392 . S
C909 C913 1.495 . S
C910 C909 1.392 . S
C910 C911 1.385 . S
C910 C912 1.478 . S
C911 H905 0.930 . S
C911 C907 1.400 . S
C911 C910 1.385 . S
C912 C910 1.478 . S
C912 C914 1.381 . S
C912 C918 1.383 . S
C913 C909 1.495 . S
C913 H919 0.959 . S
C913 H920 0.961 . S
C913 H921 0.960 . S
C914 C912 1.381 . S
C914 C915 1.394 . S
C914 H922 0.930 . S
C915 C914 1.394 . S
C915 C916 1.383 . S
C915 H923 0.929 . S
C916 C915 1.383 . S
C916 C917 1.377 . S
C917 H901 0.930 . S
C917 C916 1.377 . S
C917 C918 1.379 . S
C918 H902 0.931 . S
C918 C912 1.383 . S
C918 C917 1.379 . S
H919 C913 0.959 . S
H920 C913 0.961 . S
H921 C913 0.960 . S
H922 C914 0.930 . S
H923 C915 0.929 . S
H924 C932 0.929 . S
H925 C934 0.930 . S
H926 C936 0.930 . S
H927 C939 0.929 . S
H928 C942 0.930 . S
H929 C944 0.960 . S
H930 C944 0.960 . S
H931 C944 0.960 . S
C932 H924 0.929 . S
C932 C933 1.377 . S
C932 C934 1.384 . S
C933 C932 1.377 . S
C933 C939 1.390 . S
C934 H925 0.930 . S
C934 C932 1.384 . S
C934 C935 1.372 . S
C935 C934 1.372 . S
C935 C936 1.400 . S
C935 C940 1.490 . S
C936 H926 0.930 . S
C936 C935 1.400 . S
C936 C939 1.386 . S
H937 C953 0.930 . S
H938 C954 0.931 . S
C939 H927 0.929 . S
C939 C933 1.390 . S
C939 C936 1.386 . S
C940 C935 1.490 . S
C940 C942 1.395 . S
C940 C943 1.403 . S
H941 C947 0.930 . S
C942 H928 0.930 . S
C942 C940 1.395 . S
C942 C945 1.403 . S
C943 C940 1.403 . S
C943 C944 1.524 . S
C943 C947 1.400 . S
C944 H929 0.960 . S
C944 H930 0.960 . S
C944 H931 0.960 . S
C944 C943 1.524 . S
C945 C942 1.403 . S
C945 C946 1.392 . S
C945 C949 1.495 . S
C946 C945 1.392 . S
C946 C947 1.385 . S
C946 C948 1.478 . S
C947 H941 0.930 . S
C947 C943 1.400 . S
C947 C946 1.385 . S
C948 C946 1.478 . S
C948 C950 1.381 . S
C948 C954 1.383 . S
C949 C945 1.495 . S
C949 H955 0.959 . S
C949 H956 0.961 . S
C949 H957 0.960 . S
C950 C948 1.381 . S
C950 C951 1.394 . S
C950 H958 0.930 . S
C951 C950 1.394 . S
C951 C952 1.383 . S
C951 H959 0.929 . S
C952 C951 1.383 . S
C952 C953 1.377 . S
C953 H937 0.930 . S
C953 C952 1.377 . S
C953 C954 1.379 . S
C954 H938 0.931 . S
C954 C948 1.383 . S
C954 C953 1.379 . S
H955 C949 0.959 . S
H956 C949 0.961 . S
H957 C949 0.960 . S
H958 C950 0.930 . S
H959 C951 0.929 . S
H960 C968 0.929 . S
H961 C970 0.930 . S
H962 C972 0.930 . S
H963 C975 0.929 . S
H964 C978 0.930 . S
H965 C980 0.960 . S
H966 C980 0.960 . S
H967 C980 0.960 . S
C968 H960 0.929 . S
C968 C969 1.377 . S
C968 C970 1.384 1_554 S
C969 C968 1.377 . S
C969 C975 1.390 . S
C970 H961 0.930 . S
C970 C968 1.384 1_556 S
C970 C971 1.372 . S
C971 C970 1.372 . S
C971 C972 1.400 . S
C971 C976 1.490 . S
C972 H962 0.930 . S
C972 C971 1.400 . S
C972 C975 1.386 1_556 S
H973 C989 0.930 . S
H974 C990 0.931 . S
C975 H963 0.929 . S
C975 C969 1.390 . S
C975 C972 1.386 1_554 S
C976 C971 1.490 . S
C976 C978 1.395 . S
C976 C979 1.403 . S
H977 C983 0.930 . S
C978 H964 0.930 . S
C978 C976 1.395 . S
C978 C981 1.403 . S
C979 C976 1.403 . S
C979 C980 1.524 . S
C979 C983 1.400 . S
C980 H965 0.960 . S
C980 H966 0.960 . S
C980 H967 0.960 . S
C980 C979 1.524 . S
C981 C978 1.403 . S
C981 C982 1.392 . S
C981 C985 1.495 1_565 S
C982 C981 1.392 . S
C982 C983 1.385 . S
C982 C984 1.478 . S
C983 H977 0.930 . S
C983 C979 1.400 . S
C983 C982 1.385 . S
C984 C982 1.478 . S
C984 C986 1.381 . S
C984 C990 1.383 . S
C985 C981 1.495 1_545 S
C985 H991 0.959 . S
C985 H992 0.961 . S
C985 H993 0.960 . S
C986 C984 1.381 . S
C986 C987 1.394 . S
C986 H994 0.930 . S
C987 C986 1.394 . S
C987 C988 1.383 . S
C987 H995 0.929 1_565 S
C988 C987 1.383 . S
C988 C989 1.377 . S
C989 H973 0.930 . S
C989 C988 1.377 . S
C989 C990 1.379 . S
C990 H974 0.931 . S
C990 C984 1.383 . S
C990 C989 1.379 . S
H991 C985 0.959 . S
H992 C985 0.961 . S
H993 C985 0.960 . S
H994 C986 0.930 . S
H995 C987 0.929 1_545 S
H996 C1004 0.929 . S
H997 C1006 0.930 . S
H998 C1008 0.930 . S
H999 C1011 0.929 . S
H1000 C1014 0.930 . S
H1001 C1016 0.960 . S
H1002 C1016 0.960 . S
H1003 C1016 0.960 . S
C1004 H996 0.929 . S
C1004 C1005 1.377 1_556 S
C1004 C1006 1.384 . S
C1005 C1004 1.377 1_554 S
C1005 C1011 1.390 . S
C1006 H997 0.930 . S
C1006 C1004 1.384 . S
C1006 C1007 1.372 . S
C1007 C1006 1.372 . S
C1007 C1008 1.400 . S
C1007 C1012 1.490 . S
C1008 H998 0.930 . S
C1008 C1007 1.400 . S
C1008 C1011 1.386 1_556 S
H1009 C1025 0.930 . S
H1010 C1026 0.931 . S
C1011 H999 0.929 . S
C1011 C1005 1.390 . S
C1011 C1008 1.386 1_554 S
C1012 C1007 1.490 . S
C1012 C1014 1.395 . S
C1012 C1015 1.403 . S
H1013 C1019 0.930 . S
C1014 H1000 0.930 . S
C1014 C1012 1.395 . S
C1014 C1017 1.403 . S
C1015 C1012 1.403 . S
C1015 C1016 1.524 . S
C1015 C1019 1.400 . S
C1016 H1001 0.960 . S
C1016 H1002 0.960 . S
C1016 H1003 0.960 . S
C1016 C1015 1.524 . S
C1017 C1014 1.403 . S
C1017 C1018 1.392 . S
C1017 C1021 1.495 . S
C1018 C1017 1.392 . S
C1018 C1019 1.385 . S
C1018 C1020 1.478 . S
C1019 H1013 0.930 . S
C1019 C1015 1.400 . S
C1019 C1018 1.385 . S
C1020 C1018 1.478 . S
C1020 C1022 1.381 . S
C1020 C1026 1.383 . S
C1021 C1017 1.495 . S
C1021 H1027 0.959 . S
C1021 H1028 0.961 . S
C1021 H1029 0.960 . S
C1022 C1020 1.381 . S
C1022 C1023 1.394 . S
C1022 H1030 0.930 . S
C1023 C1022 1.394 . S
C1023 C1024 1.383 . S
C1023 H1031 0.929 . S
C1024 C1023 1.383 . S
C1024 C1025 1.377 . S
C1025 H1009 0.930 . S
C1025 C1024 1.377 . S
C1025 C1026 1.379 . S
C1026 H1010 0.931 . S
C1026 C1020 1.383 . S
C1026 C1025 1.379 . S
H1027 C1021 0.959 . S
H1028 C1021 0.961 . S
H1029 C1021 0.960 . S
H1030 C1022 0.930 . S
H1031 C1023 0.929 . S
H1032 C1040 0.929 . S
H1033 C1042 0.930 . S
H1034 C1044 0.930 . S
H1035 C1047 0.929 . S
H1036 C1050 0.930 . S
H1037 C1052 0.960 . S
H1038 C1052 0.960 . S
H1039 C1052 0.960 . S
C1040 H1032 0.929 . S
C1040 C1041 1.377 . S
C1040 C1042 1.384 . S
C1041 C1040 1.377 . S
C1041 C1047 1.390 1_554 S
C1042 H1033 0.930 . S
C1042 C1040 1.384 . S
C1042 C1043 1.372 1_554 S
C1043 C1042 1.372 1_556 S
C1043 C1044 1.400 . S
C1043 C1048 1.490 . S
C1044 H1034 0.930 . S
C1044 C1043 1.400 . S
C1044 C1047 1.386 . S
H1045 C1061 0.930 . S
H1046 C1062 0.931 . S
C1047 H1035 0.929 . S
C1047 C1041 1.390 1_556 S
C1047 C1044 1.386 . S
C1048 C1043 1.490 . S
C1048 C1050 1.395 . S
C1048 C1051 1.403 . S
H1049 C1055 0.930 . S
C1050 H1036 0.930 . S
C1050 C1048 1.395 . S
C1050 C1053 1.403 . S
C1051 C1048 1.403 . S
C1051 C1052 1.524 . S
C1051 C1055 1.400 . S
C1052 H1037 0.960 . S
C1052 H1038 0.960 . S
C1052 H1039 0.960 . S
C1052 C1051 1.524 . S
C1053 C1050 1.403 . S
C1053 C1054 1.392 . S
C1053 C1057 1.495 . S
C1054 C1053 1.392 . S
C1054 C1055 1.385 . S
C1054 C1056 1.478 . S
C1055 H1049 0.930 . S
C1055 C1051 1.400 . S
C1055 C1054 1.385 . S
C1056 C1054 1.478 . S
C1056 C1058 1.381 . S
C1056 C1062 1.383 . S
C1057 C1053 1.495 . S
C1057 H1063 0.959 . S
C1057 H1064 0.961 . S
C1057 H1065 0.960 . S
C1058 C1056 1.381 . S
C1058 C1059 1.394 . S
C1058 H1066 0.930 . S
C1059 C1058 1.394 . S
C1059 C1060 1.383 . S
C1059 H1067 0.929 . S
C1060 C1059 1.383 . S
C1060 C1061 1.377 . S
C1061 H1045 0.930 . S
C1061 C1060 1.377 . S
C1061 C1062 1.379 . S
C1062 H1046 0.931 . S
C1062 C1056 1.383 . S
C1062 C1061 1.379 . S
H1063 C1057 0.959 . S
H1064 C1057 0.961 . S
H1065 C1057 0.960 . S
H1066 C1058 0.930 . S
H1067 C1059 0.929 . S
H1068 C1076 0.929 . S
H1069 C1078 0.930 . S
H1070 C1080 0.930 . S
H1071 C1083 0.929 . S
H1072 C1086 0.930 . S
H1073 C1088 0.960 . S
H1074 C1088 0.960 . S
H1075 C1088 0.960 . S
C1076 H1068 0.929 . S
C1076 C1077 1.377 . S
C1076 C1078 1.384 . S
C1077 C1076 1.377 . S
C1077 C1083 1.390 1_554 S
C1078 H1069 0.930 . S
C1078 C1076 1.384 . S
C1078 C1079 1.372 1_554 S
C1079 C1078 1.372 1_556 S
C1079 C1080 1.400 . S
C1079 C1084 1.490 . S
C1080 H1070 0.930 . S
C1080 C1079 1.400 . S
C1080 C1083 1.386 . S
H1081 C1097 0.930 . S
H1082 C1098 0.931 . S
C1083 H1071 0.929 . S
C1083 C1077 1.390 1_556 S
C1083 C1080 1.386 . S
C1084 C1079 1.490 . S
C1084 C1086 1.395 . S
C1084 C1087 1.403 . S
H1085 C1091 0.930 . S
C1086 H1072 0.930 . S
C1086 C1084 1.395 . S
C1086 C1089 1.403 . S
C1087 C1084 1.403 . S
C1087 C1088 1.524 . S
C1087 C1091 1.400 . S
C1088 H1073 0.960 . S
C1088 H1074 0.960 . S
C1088 H1075 0.960 . S
C1088 C1087 1.524 . S
C1089 C1086 1.403 . S
C1089 C1090 1.392 . S
C1089 C1093 1.495 . S
C1090 C1089 1.392 . S
C1090 C1091 1.385 . S
C1090 C1092 1.478 . S
C1091 H1085 0.930 . S
C1091 C1087 1.400 . S
C1091 C1090 1.385 . S
C1092 C1090 1.478 . S
C1092 C1094 1.381 . S
C1092 C1098 1.383 . S
C1093 C1089 1.495 . S
C1093 H1099 0.959 . S
C1093 H1100 0.961 . S
C1093 H1101 0.960 . S
C1094 C1092 1.381 . S
C1094 C1095 1.394 . S
C1094 H1102 0.930 . S
C1095 C1094 1.394 . S
C1095 C1096 1.383 . S
C1095 H1103 0.929 . S
C1096 C1095 1.383 . S
C1096 C1097 1.377 . S
C1097 H1081 0.930 . S
C1097 C1096 1.377 . S
C1097 C1098 1.379 . S
C1098 H1082 0.931 . S
C1098 C1092 1.383 . S
C1098 C1097 1.379 . S
H1099 C1093 0.959 . S
H1100 C1093 0.961 . S
H1101 C1093 0.960 . S
H1102 C1094 0.930 . S
H1103 C1095 0.929 . S
H1104 C1112 0.929 . S
H1105 C1114 0.930 . S
H1106 C1116 0.930 . S
H1107 C1119 0.929 . S
H1108 C1122 0.930 . S
H1109 C1124 0.960 . S
H1110 C1124 0.960 . S
H1111 C1124 0.960 . S
C1112 H1104 0.929 . S
C1112 C1113 1.377 . S
C1112 C1114 1.384 . S
C1113 C1112 1.377 . S
C1113 C1119 1.390 . S
C1114 H1105 0.930 . S
C1114 C1112 1.384 . S
C1114 C1115 1.372 . S
C1115 C1114 1.372 . S
C1115 C1116 1.400 . S
C1115 C1120 1.490 . S
C1116 H1106 0.930 . S
C1116 C1115 1.400 . S
C1116 C1119 1.386 . S
H1117 C1133 0.930 1_655 S
H1118 C1134 0.931 . S
C1119 H1107 0.929 . S
C1119 C1113 1.390 . S
C1119 C1116 1.386 . S
C1120 C1115 1.490 . S
C1120 C1122 1.395 . S
C1120 C1123 1.403 . S
H1121 C1127 0.930 . S
C1122 H1108 0.930 . S
C1122 C1120 1.395 . S
C1122 C1125 1.403 . S
C1123 C1120 1.403 . S
C1123 C1124 1.524 . S
C1123 C1127 1.400 . S
C1124 H1109 0.960 . S
C1124 H1110 0.960 . S
C1124 H1111 0.960 . S
C1124 C1123 1.524 . S
C1125 C1122 1.403 . S
C1125 C1126 1.392 . S
C1125 C1129 1.495 . S
C1126 C1125 1.392 . S
C1126 C1127 1.385 . S
C1126 C1128 1.478 . S
C1127 H1121 0.930 . S
C1127 C1123 1.400 . S
C1127 C1126 1.385 . S
C1128 C1126 1.478 . S
C1128 C1130 1.381 . S
C1128 C1134 1.383 . S
C1129 C1125 1.495 . S
C1129 H1135 0.959 . S
C1129 H1136 0.961 . S
C1129 H1137 0.960 . S
C1130 C1128 1.381 . S
C1130 C1131 1.394 . S
C1130 H1138 0.930 . S
C1131 C1130 1.394 . S
C1131 C1132 1.383 . S
C1131 H1139 0.929 . S
C1132 C1131 1.383 . S
C1132 C1133 1.377 . S
C1133 H1117 0.930 1_455 S
C1133 C1132 1.377 . S
C1133 C1134 1.379 . S
C1134 H1118 0.931 . S
C1134 C1128 1.383 . S
C1134 C1133 1.379 . S
H1135 C1129 0.959 . S
H1136 C1129 0.961 . S
H1137 C1129 0.960 . S
H1138 C1130 0.930 . S
H1139 C1131 0.929 . S
H1140 C1148 0.929 . S
H1141 C1150 0.930 . S
H1142 C1152 0.930 . S
H1143 C1155 0.929 . S
H1144 C1158 0.930 . S
H1145 C1160 0.960 . S
H1146 C1160 0.960 . S
H1147 C1160 0.960 . S
C1148 H1140 0.929 . S
C1148 C1149 1.377 . S
C1148 C1150 1.384 . S
C1149 C1148 1.377 . S
C1149 C1155 1.390 . S
C1150 H1141 0.930 . S
C1150 C1148 1.384 . S
C1150 C1151 1.372 . S
C1151 C1150 1.372 . S
C1151 C1152 1.400 . S
C1151 C1156 1.490 . S
C1152 H1142 0.930 . S
C1152 C1151 1.400 . S
C1152 C1155 1.386 . S
H1153 C1169 0.930 . S
H1154 C1170 0.931 1_565 S
C1155 H1143 0.929 . S
C1155 C1149 1.390 . S
C1155 C1152 1.386 . S
C1156 C1151 1.490 . S
C1156 C1158 1.395 . S
C1156 C1159 1.403 . S
H1157 C1163 0.930 . S
C1158 H1144 0.930 . S
C1158 C1156 1.395 . S
C1158 C1161 1.403 . S
C1159 C1156 1.403 . S
C1159 C1160 1.524 . S
C1159 C1163 1.400 . S
C1160 H1145 0.960 . S
C1160 H1146 0.960 . S
C1160 H1147 0.960 . S
C1160 C1159 1.524 . S
C1161 C1158 1.403 . S
C1161 C1162 1.392 . S
C1161 C1165 1.495 . S
C1162 C1161 1.392 . S
C1162 C1163 1.385 . S
C1162 C1164 1.478 . S
C1163 H1157 0.930 . S
C1163 C1159 1.400 . S
C1163 C1162 1.385 . S
C1164 C1162 1.478 . S
C1164 C1166 1.381 . S
C1164 C1170 1.383 . S
C1165 C1161 1.495 . S
C1165 H1171 0.959 . S
C1165 H1172 0.961 . S
C1165 H1173 0.960 . S
C1166 C1164 1.381 . S
C1166 C1167 1.394 . S
C1166 H1174 0.930 . S
C1167 C1166 1.394 . S
C1167 C1168 1.383 . S
C1167 H1175 0.929 . S
C1168 C1167 1.383 . S
C1168 C1169 1.377 1_545 S
C1169 H1153 0.930 . S
C1169 C1168 1.377 1_565 S
C1169 C1170 1.379 1_565 S
C1170 H1154 0.931 1_545 S
C1170 C1164 1.383 . S
C1170 C1169 1.379 1_545 S
H1171 C1165 0.959 . S
H1172 C1165 0.961 . S
H1173 C1165 0.960 . S
H1174 C1166 0.930 . S
H1175 C1167 0.929 . S
H1176 C1184 0.929 . S
H1177 C1186 0.930 . S
H1178 C1188 0.930 . S
H1179 C1191 0.929 . S
H1180 C1194 0.930 . S
H1181 C1196 0.960 . S
H1182 C1196 0.960 . S
H1183 C1196 0.960 . S
C1184 H1176 0.929 . S
C1184 C1185 1.377 . S
C1184 C1186 1.384 . S
C1185 C1184 1.377 . S
C1185 C1191 1.390 . S
C1186 H1177 0.930 . S
C1186 C1184 1.384 . S
C1186 C1187 1.372 . S
C1187 C1186 1.372 . S
C1187 C1188 1.400 . S
C1187 C1192 1.490 . S
C1188 H1178 0.930 . S
C1188 C1187 1.400 . S
C1188 C1191 1.386 . S
H1189 C1205 0.930 . S
H1190 C1206 0.931 . S
C1191 H1179 0.929 . S
C1191 C1185 1.390 . S
C1191 C1188 1.386 . S
C1192 C1187 1.490 . S
C1192 C1194 1.395 . S
C1192 C1195 1.403 . S
H1193 C1199 0.930 . S
C1194 H1180 0.930 . S
C1194 C1192 1.395 . S
C1194 C1197 1.403 . S
C1195 C1192 1.403 . S
C1195 C1196 1.524 . S
C1195 C1199 1.400 . S
C1196 H1181 0.960 . S
C1196 H1182 0.960 . S
C1196 H1183 0.960 . S
C1196 C1195 1.524 . S
C1197 C1194 1.403 . S
C1197 C1198 1.392 . S
C1197 C1201 1.495 . S
C1198 C1197 1.392 . S
C1198 C1199 1.385 . S
C1198 C1200 1.478 . S
C1199 H1193 0.930 . S
C1199 C1195 1.400 . S
C1199 C1198 1.385 . S
C1200 C1198 1.478 . S
C1200 C1202 1.381 . S
C1200 C1206 1.383 . S
C1201 C1197 1.495 . S
C1201 H1207 0.959 . S
C1201 H1208 0.961 . S
C1201 H1209 0.960 . S
C1202 C1200 1.381 . S
C1202 C1203 1.394 . S
C1202 H1210 0.930 . S
C1203 C1202 1.394 . S
C1203 C1204 1.383 . S
C1203 H1211 0.929 . S
C1204 C1203 1.383 . S
C1204 C1205 1.377 . S
C1205 H1189 0.930 . S
C1205 C1204 1.377 . S
C1205 C1206 1.379 . S
C1206 H1190 0.931 . S
C1206 C1200 1.383 . S
C1206 C1205 1.379 . S
H1207 C1201 0.959 . S
H1208 C1201 0.961 . S
H1209 C1201 0.960 . S
H1210 C1202 0.930 . S
H1211 C1203 0.929 . S
H1212 C1220 0.929 . S
H1213 C1222 0.930 . S
H1214 C1224 0.930 . S
H1215 C1227 0.929 . S
H1216 C1230 0.930 . S
H1217 C1232 0.960 . S
H1218 C1232 0.960 . S
H1219 C1232 0.960 . S
C1220 H1212 0.929 . S
C1220 C1221 1.377 . S
C1220 C1222 1.384 . S
C1221 C1220 1.377 . S
C1221 C1227 1.390 . S
C1222 H1213 0.930 . S
C1222 C1220 1.384 . S
C1222 C1223 1.372 . S
C1223 C1222 1.372 . S
C1223 C1224 1.400 . S
C1223 C1228 1.490 . S
C1224 H1214 0.930 . S
C1224 C1223 1.400 . S
C1224 C1227 1.386 . S
H1225 C1241 0.930 . S
H1226 C1242 0.931 . S
C1227 H1215 0.929 . S
C1227 C1221 1.390 . S
C1227 C1224 1.386 . S
C1228 C1223 1.490 . S
C1228 C1230 1.395 . S
C1228 C1231 1.403 . S
H1229 C1235 0.930 . S
C1230 H1216 0.930 . S
C1230 C1228 1.395 . S
C1230 C1233 1.403 . S
C1231 C1228 1.403 . S
C1231 C1232 1.524 . S
C1231 C1235 1.400 . S
C1232 H1217 0.960 . S
C1232 H1218 0.960 . S
C1232 H1219 0.960 . S
C1232 C1231 1.524 . S
C1233 C1230 1.403 . S
C1233 C1234 1.392 . S
C1233 C1237 1.495 . S
C1234 C1233 1.392 . S
C1234 C1235 1.385 . S
C1234 C1236 1.478 . S
C1235 H1229 0.930 . S
C1235 C1231 1.400 . S
C1235 C1234 1.385 . S
C1236 C1234 1.478 . S
C1236 C1238 1.381 . S
C1236 C1242 1.383 . S
C1237 C1233 1.495 . S
C1237 H1243 0.959 . S
C1237 H1244 0.961 . S
C1237 H1245 0.960 . S
C1238 C1236 1.381 . S
C1238 C1239 1.394 . S
C1238 H1246 0.930 . S
C1239 C1238 1.394 . S
C1239 C1240 1.383 . S
C1239 H1247 0.929 . S
C1240 C1239 1.383 . S
C1240 C1241 1.377 . S
C1241 H1225 0.930 . S
C1241 C1240 1.377 . S
C1241 C1242 1.379 . S
C1242 H1226 0.931 . S
C1242 C1236 1.383 . S
C1242 C1241 1.379 . S
H1243 C1237 0.959 . S
H1244 C1237 0.961 . S
H1245 C1237 0.960 . S
H1246 C1238 0.930 . S
H1247 C1239 0.929 . S
H1248 C1256 0.929 1_554 S
H1249 C1258 0.930 . S
H1250 C1260 0.930 . S
H1251 C1263 0.929 . S
H1252 C1266 0.930 . S
H1253 C1268 0.960 . S
H1254 C1268 0.960 . S
H1255 C1268 0.960 . S
C1256 H1248 0.929 1_556 S
C1256 C1257 1.377 . S
C1256 C1258 1.384 . S
C1257 C1256 1.377 . S
C1257 C1263 1.390 . S
C1258 H1249 0.930 . S
C1258 C1256 1.384 . S
C1258 C1259 1.372 . S
C1259 C1258 1.372 . S
C1259 C1260 1.400 . S
C1259 C1264 1.490 . S
C1260 H1250 0.930 . S
C1260 C1259 1.400 . S
C1260 C1263 1.386 . S
H1261 C1277 0.935 . S
H1262 C1278 0.931 . S
C1263 H1251 0.929 . S
C1263 C1257 1.390 . S
C1263 C1260 1.386 . S
C1264 C1259 1.490 . S
C1264 C1266 1.395 . S
C1264 C1267 1.403 . S
H1265 C1271 0.930 . S
C1266 H1252 0.930 . S
C1266 C1264 1.395 . S
C1266 C1269 1.403 . S
C1267 C1264 1.403 . S
C1267 C1268 1.524 . S
C1267 C1271 1.400 . S
C1268 H1253 0.960 . S
C1268 H1254 0.960 . S
C1268 H1255 0.960 . S
C1268 C1267 1.524 . S
C1269 C1266 1.403 . S
C1269 C1270 1.392 . S
C1269 C1273 1.495 1_655 S
C1270 C1269 1.392 . S
C1270 C1271 1.385 . S
C1270 C1272 1.478 . S
C1271 H1265 0.930 . S
C1271 C1267 1.400 . S
C1271 C1270 1.385 . S
C1272 C1270 1.478 . S
C1272 C1274 1.381 . S
C1272 C1278 1.383 . S
C1273 C1269 1.495 1_455 S
C1273 H1279 0.959 . S
C1273 H1280 0.961 . S
C1273 H1281 0.960 . S
C1274 C1272 1.381 . S
C1274 C1275 1.394 1_655 S
C1274 H1282 0.930 . S
C1275 C1274 1.394 1_455 S
C1275 C1276 1.383 . S
C1275 H1283 0.929 . S
C1276 C1275 1.383 . S
C1276 C1277 1.384 . S
C1277 H1261 0.935 . S
C1277 C1276 1.384 . S
C1277 C1278 1.367 1_455 S
C1278 H1262 0.931 . S
C1278 C1272 1.383 . S
C1278 C1277 1.367 1_655 S
H1279 C1273 0.959 . S
H1280 C1273 0.961 . S
H1281 C1273 0.960 . S
H1282 C1274 0.930 . S
H1283 C1275 0.929 . S
H1284 C1292 0.929 1_554 S
H1285 C1294 0.930 . S
H1286 C1296 0.930 . S
H1287 C1299 0.929 . S
H1288 C1302 0.930 . S
H1289 C1304 0.960 . S
H1290 C1304 0.960 . S
H1291 C1304 0.960 . S
C1292 H1284 0.929 1_556 S
C1292 C1293 1.377 . S
C1292 C1294 1.384 . S
C1293 C1292 1.377 . S
C1293 C1299 1.390 . S
C1294 H1285 0.930 . S
C1294 C1292 1.384 . S
C1294 C1295 1.372 . S
C1295 C1294 1.372 . S
C1295 C1296 1.400 . S
C1295 C1300 1.490 . S
C1296 H1286 0.930 . S
C1296 C1295 1.400 . S
C1296 C1299 1.386 . S
H1297 C1313 0.930 . S
H1298 C1314 0.931 . S
C1299 H1287 0.929 . S
C1299 C1293 1.390 . S
C1299 C1296 1.386 . S
C1300 C1295 1.490 . S
C1300 C1302 1.395 . S
C1300 C1303 1.403 . S
H1301 C1307 0.930 . S
C1302 H1288 0.930 . S
C1302 C1300 1.395 . S
C1302 C1305 1.403 . S
C1303 C1300 1.403 . S
C1303 C1304 1.524 . S
C1303 C1307 1.400 . S
C1304 H1289 0.960 . S
C1304 H1290 0.960 . S
C1304 H1291 0.960 . S
C1304 C1303 1.524 . S
C1305 C1302 1.403 . S
C1305 C1306 1.392 . S
C1305 C1309 1.495 1_565 S
C1306 C1305 1.392 . S
C1306 C1307 1.385 . S
C1306 C1308 1.478 . S
C1307 H1301 0.930 . S
C1307 C1303 1.400 . S
C1307 C1306 1.385 . S
C1308 C1306 1.478 . S
C1308 C1310 1.381 1_565 S
C1308 C1314 1.383 . S
C1309 C1305 1.495 1_545 S
C1309 H1315 0.959 . S
C1309 H1316 0.961 . S
C1309 H1317 0.960 . S
C1310 C1308 1.381 1_545 S
C1310 C1311 1.394 . S
C1310 H1318 0.930 . S
C1311 C1310 1.394 . S
C1311 C1312 1.383 . S
C1311 H1319 0.929 . S
C1312 C1311 1.383 . S
C1312 C1313 1.377 1_545 S
C1313 H1297 0.930 . S
C1313 C1312 1.377 1_565 S
C1313 C1314 1.379 . S
C1314 H1298 0.931 . S
C1314 C1308 1.383 . S
C1314 C1313 1.379 . S
H1315 C1309 0.959 . S
H1316 C1309 0.961 . S
H1317 C1309 0.960 . S
H1318 C1310 0.930 . S
H1319 C1311 0.929 . S
H1320 C1328 0.929 1_554 S
H1321 C1330 0.930 . S
H1322 C1332 0.930 . S
H1323 C1335 0.929 . S
H1324 C1338 0.930 . S
H1325 C1340 0.960 . S
H1326 C1340 0.960 . S
H1327 C1340 0.960 . S
C1328 H1320 0.929 1_556 S
C1328 C1329 1.377 . S
C1328 C1330 1.384 . S
C1329 C1328 1.377 . S
C1329 C1335 1.390 . S
C1330 H1321 0.930 . S
C1330 C1328 1.384 . S
C1330 C1331 1.372 . S
C1331 C1330 1.372 . S
C1331 C1332 1.400 . S
C1331 C1336 1.490 . S
C1332 H1322 0.930 . S
C1332 C1331 1.400 . S
C1332 C1335 1.386 . S
H1333 C1349 0.930 . S
H1334 C1350 0.931 . S
C1335 H1323 0.929 . S
C1335 C1329 1.390 . S
C1335 C1332 1.386 . S
C1336 C1331 1.490 . S
C1336 C1338 1.395 . S
C1336 C1339 1.403 . S
H1337 C1343 0.930 . S
C1338 H1324 0.930 . S
C1338 C1336 1.395 . S
C1338 C1341 1.403 . S
C1339 C1336 1.403 . S
C1339 C1340 1.524 . S
C1339 C1343 1.400 . S
C1340 H1325 0.960 . S
C1340 H1326 0.960 . S
C1340 H1327 0.960 . S
C1340 C1339 1.524 . S
C1341 C1338 1.403 . S
C1341 C1342 1.392 . S
C1341 C1345 1.495 . S
C1342 C1341 1.392 . S
C1342 C1343 1.385 . S
C1342 C1344 1.478 . S
C1343 H1337 0.930 . S
C1343 C1339 1.400 . S
C1343 C1342 1.385 . S
C1344 C1342 1.478 . S
C1344 C1346 1.381 . S
C1344 C1350 1.383 . S
C1345 C1341 1.495 . S
C1345 H1351 0.959 . S
C1345 H1352 0.961 . S
C1345 H1353 0.960 . S
C1346 C1344 1.381 . S
C1346 C1347 1.394 . S
C1346 H1354 0.930 . S
C1347 C1346 1.394 . S
C1347 C1348 1.383 . S
C1347 H1355 0.929 . S
C1348 C1347 1.383 . S
C1348 C1349 1.377 . S
C1349 H1333 0.930 . S
C1349 C1348 1.377 . S
C1349 C1350 1.379 . S
C1350 H1334 0.931 . S
C1350 C1344 1.383 . S
C1350 C1349 1.379 . S
H1351 C1345 0.959 . S
H1352 C1345 0.961 . S
H1353 C1345 0.960 . S
H1354 C1346 0.930 . S
H1355 C1347 0.929 . S
H1356 C1364 0.929 . S
H1357 C1366 0.930 . S
H1358 C1368 0.930 . S
H1359 C1371 0.929 1_554 S
H1360 C1374 0.930 . S
H1361 C1376 0.960 . S
H1362 C1376 0.960 . S
H1363 C1376 0.960 . S
C1364 H1356 0.929 . S
C1364 C1365 1.377 . S
C1364 C1366 1.384 . S
C1365 C1364 1.377 . S
C1365 C1371 1.390 . S
C1366 H1357 0.930 . S
C1366 C1364 1.384 . S
C1366 C1367 1.372 . S
C1367 C1366 1.372 . S
C1367 C1368 1.400 . S
C1367 C1372 1.490 . S
C1368 H1358 0.930 . S
C1368 C1367 1.400 . S
C1368 C1371 1.386 . S
H1369 C1385 0.930 . S
H1370 C1386 0.931 . S
C1371 H1359 0.929 1_556 S
C1371 C1365 1.390 . S
C1371 C1368 1.386 . S
C1372 C1367 1.490 . S
C1372 C1374 1.395 . S
C1372 C1375 1.403 . S
H1373 C1379 0.930 . S
C1374 H1360 0.930 . S
C1374 C1372 1.395 . S
C1374 C1377 1.403 . S
C1375 C1372 1.403 . S
C1375 C1376 1.524 . S
C1375 C1379 1.400 . S
C1376 H1361 0.960 . S
C1376 H1362 0.960 . S
C1376 H1363 0.960 . S
C1376 C1375 1.524 . S
C1377 C1374 1.403 . S
C1377 C1378 1.392 . S
C1377 C1381 1.495 . S
C1378 C1377 1.392 . S
C1378 C1379 1.385 . S
C1378 C1380 1.478 . S
C1379 H1373 0.930 . S
C1379 C1375 1.400 . S
C1379 C1378 1.385 . S
C1380 C1378 1.478 . S
C1380 C1382 1.381 . S
C1380 C1386 1.383 . S
C1381 C1377 1.495 . S
C1381 H1387 0.959 . S
C1381 H1388 0.961 . S
C1381 H1389 0.960 . S
C1382 C1380 1.381 . S
C1382 C1383 1.394 . S
C1382 H1390 0.930 . S
C1383 C1382 1.394 . S
C1383 C1384 1.383 . S
C1383 H1391 0.929 . S
C1384 C1383 1.383 . S
C1384 C1385 1.377 . S
C1385 H1369 0.930 . S
C1385 C1384 1.377 . S
C1385 C1386 1.379 . S
C1386 H1370 0.931 . S
C1386 C1380 1.383 . S
C1386 C1385 1.379 . S
H1387 C1381 0.959 . S
H1388 C1381 0.961 . S
H1389 C1381 0.960 . S
H1390 C1382 0.930 . S
H1391 C1383 0.929 . S
H1392 C1400 0.929 . S
H1393 C1402 0.930 . S
H1394 C1404 0.930 . S
H1395 C1407 0.929 . S
H1396 C1410 0.930 . S
H1397 C1412 0.960 . S
H1398 C1412 0.960 . S
H1399 C1412 0.960 . S
C1400 H1392 0.929 . S
C1400 C1401 1.377 . S
C1400 C1402 1.384 . S
C1401 C1400 1.377 . S
C1401 C1407 1.390 . S
C1402 H1393 0.930 . S
C1402 C1400 1.384 . S
C1402 C1403 1.372 . S
C1403 C1402 1.372 . S
C1403 C1404 1.400 . S
C1403 C1408 1.490 . S
C1404 H1394 0.930 . S
C1404 C1403 1.400 . S
C1404 C1407 1.386 . S
H1405 C1421 0.930 . S
H1406 C1422 0.931 . S
C1407 H1395 0.929 . S
C1407 C1401 1.390 . S
C1407 C1404 1.386 . S
C1408 C1403 1.490 . S
C1408 C1410 1.395 . S
C1408 C1411 1.403 . S
H1409 C1415 0.930 . S
C1410 H1396 0.930 . S
C1410 C1408 1.395 . S
C1410 C1413 1.403 . S
C1411 C1408 1.403 . S
C1411 C1412 1.524 . S
C1411 C1415 1.400 . S
C1412 H1397 0.960 . S
C1412 H1398 0.960 . S
C1412 H1399 0.960 . S
C1412 C1411 1.524 . S
C1413 C1410 1.403 . S
C1413 C1414 1.392 . S
C1413 C1417 1.495 . S
C1414 C1413 1.392 . S
C1414 C1415 1.385 . S
C1414 C1416 1.478 . S
C1415 H1409 0.930 . S
C1415 C1411 1.400 . S
C1415 C1414 1.385 . S
C1416 C1414 1.478 . S
C1416 C1418 1.381 . S
C1416 C1422 1.383 . S
C1417 C1413 1.495 . S
C1417 H1423 0.959 . S
C1417 H1424 0.961 . S
C1417 H1425 0.960 . S
C1418 C1416 1.381 . S
C1418 C1419 1.394 . S
C1418 H1426 0.930 . S
C1419 C1418 1.394 . S
C1419 C1420 1.383 . S
C1419 H1427 0.929 . S
C1420 C1419 1.383 . S
C1420 C1421 1.377 . S
C1421 H1405 0.930 . S
C1421 C1420 1.377 . S
C1421 C1422 1.379 . S
C1422 H1406 0.931 . S
C1422 C1416 1.383 . S
C1422 C1421 1.379 . S
H1423 C1417 0.959 . S
H1424 C1417 0.961 . S
H1425 C1417 0.960 . S
H1426 C1418 0.930 . S
H1427 C1419 0.929 . S
H1428 C1436 0.929 . S
H1429 C1438 0.930 . S
H1430 C1440 0.930 . S
H1431 C1443 0.929 . S
H1432 C1446 0.930 . S
H1433 C1448 0.960 . S
H1434 C1448 0.960 . S
H1435 C1448 0.960 . S
C1436 H1428 0.929 . S
C1436 C1437 1.377 . S
C1436 C1438 1.384 . S
C1437 C1436 1.377 . S
C1437 C1443 1.390 . S
C1438 H1429 0.930 . S
C1438 C1436 1.384 . S
C1438 C1439 1.372 . S
C1439 C1438 1.372 . S
C1439 C1440 1.400 . S
C1439 C1444 1.490 . S
C1440 H1430 0.930 . S
C1440 C1439 1.400 . S
C1440 C1443 1.386 . S
H1441 C1457 0.930 . S
H1442 C1458 0.931 . S
C1443 H1431 0.929 . S
C1443 C1437 1.390 . S
C1443 C1440 1.386 . S
C1444 C1439 1.490 . S
C1444 C1446 1.395 . S
C1444 C1447 1.403 . S
H1445 C1451 0.930 . S
C1446 H1432 0.930 . S
C1446 C1444 1.395 . S
C1446 C1449 1.403 . S
C1447 C1444 1.403 . S
C1447 C1448 1.524 . S
C1447 C1451 1.400 . S
C1448 H1433 0.960 . S
C1448 H1434 0.960 . S
C1448 H1435 0.960 . S
C1448 C1447 1.524 . S
C1449 C1446 1.403 . S
C1449 C1450 1.392 . S
C1449 C1453 1.495 . S
C1450 C1449 1.392 . S
C1450 C1451 1.385 . S
C1450 C1452 1.478 . S
C1451 H1445 0.930 . S
C1451 C1447 1.400 . S
C1451 C1450 1.385 . S
C1452 C1450 1.478 . S
C1452 C1454 1.381 . S
C1452 C1458 1.383 . S
C1453 C1449 1.495 . S
C1453 H1459 0.959 . S
C1453 H1460 0.961 . S
C1453 H1461 0.960 . S
C1454 C1452 1.381 . S
C1454 C1455 1.394 . S
C1454 H1462 0.930 . S
C1455 C1454 1.394 . S
C1455 C1456 1.383 . S
C1455 H1463 0.929 . S
C1456 C1455 1.383 . S
C1456 C1457 1.377 . S
C1457 H1441 0.930 . S
C1457 C1456 1.377 . S
C1457 C1458 1.379 . S
C1458 H1442 0.931 . S
C1458 C1452 1.383 . S
C1458 C1457 1.379 . S
H1459 C1453 0.959 . S
H1460 C1453 0.961 . S
H1461 C1453 0.960 . S
H1462 C1454 0.930 . S
H1463 C1455 0.929 . S
H1464 C1472 0.929 . S
H1465 C1474 0.930 . S
H1466 C1476 0.930 . S
H1467 C1479 0.929 . S
H1468 C1482 0.930 . S
H1469 C1484 0.960 . S
H1470 C1484 0.960 . S
H1471 C1484 0.960 . S
C1472 H1464 0.929 . S
C1472 C1473 1.377 . S
C1472 C1474 1.384 . S
C1473 C1472 1.377 . S
C1473 C1479 1.390 . S
C1474 H1465 0.930 . S
C1474 C1472 1.384 . S
C1474 C1475 1.372 . S
C1475 C1474 1.372 . S
C1475 C1476 1.400 . S
C1475 C1480 1.490 . S
C1476 H1466 0.930 . S
C1476 C1475 1.400 . S
C1476 C1479 1.386 . S
H1477 C1493 0.930 . S
H1478 C1494 0.931 . S
C1479 H1467 0.929 . S
C1479 C1473 1.390 . S
C1479 C1476 1.386 . S
C1480 C1475 1.490 . S
C1480 C1482 1.395 . S
C1480 C1483 1.403 . S
H1481 C1487 0.930 . S
C1482 H1468 0.930 . S
C1482 C1480 1.395 . S
C1482 C1485 1.403 . S
C1483 C1480 1.403 . S
C1483 C1484 1.524 . S
C1483 C1487 1.400 . S
C1484 H1469 0.960 . S
C1484 H1470 0.960 . S
C1484 H1471 0.960 . S
C1484 C1483 1.524 . S
C1485 C1482 1.403 . S
C1485 C1486 1.392 . S
C1485 C1489 1.495 . S
C1486 C1485 1.392 . S
C1486 C1487 1.385 . S
C1486 C1488 1.478 . S
C1487 H1481 0.930 . S
C1487 C1483 1.400 . S
C1487 C1486 1.385 . S
C1488 C1486 1.478 . S
C1488 C1490 1.381 . S
C1488 C1494 1.383 . S
C1489 C1485 1.495 . S
C1489 H1495 0.959 . S
C1489 H1496 0.961 . S
C1489 H1497 0.960 . S
C1490 C1488 1.381 . S
C1490 C1491 1.394 . S
C1490 H1498 0.930 . S
C1491 C1490 1.394 . S
C1491 C1492 1.383 . S
C1491 H1499 0.929 . S
C1492 C1491 1.383 . S
C1492 C1493 1.377 . S
C1493 H1477 0.930 . S
C1493 C1492 1.377 . S
C1493 C1494 1.379 . S
C1494 H1478 0.931 . S
C1494 C1488 1.383 . S
C1494 C1493 1.379 . S
H1495 C1489 0.959 . S
H1496 C1489 0.961 . S
H1497 C1489 0.960 . S
H1498 C1490 0.930 . S
H1499 C1491 0.929 . S
H1500 C1508 0.929 . S
H1501 C1510 0.930 . S
H1502 C1512 0.930 . S
H1503 C1515 0.929 . S
H1504 C1518 0.930 . S
H1505 C1520 0.960 . S
H1506 C1520 0.960 . S
H1507 C1520 0.960 . S
C1508 H1500 0.929 . S
C1508 C1509 1.377 . S
C1508 C1510 1.384 . S
C1509 C1508 1.377 . S
C1509 C1515 1.390 . S
C1510 H1501 0.930 . S
C1510 C1508 1.384 . S
C1510 C1511 1.372 . S
C1511 C1510 1.372 . S
C1511 C1512 1.400 . S
C1511 C1516 1.490 . S
C1512 H1502 0.930 . S
C1512 C1511 1.400 . S
C1512 C1515 1.386 . S
H1513 C1529 0.930 . S
H1514 C1530 0.931 . S
C1515 H1503 0.929 . S
C1515 C1509 1.390 . S
C1515 C1512 1.386 . S
C1516 C1511 1.490 . S
C1516 C1518 1.395 . S
C1516 C1519 1.403 . S
H1517 C1523 0.930 . S
C1518 H1504 0.930 . S
C1518 C1516 1.395 . S
C1518 C1521 1.403 . S
C1519 C1516 1.403 . S
C1519 C1520 1.524 . S
C1519 C1523 1.400 . S
C1520 H1505 0.960 . S
C1520 H1506 0.960 . S
C1520 H1507 0.960 . S
C1520 C1519 1.524 . S
C1521 C1518 1.403 . S
C1521 C1522 1.392 . S
C1521 C1525 1.495 . S
C1522 C1521 1.392 . S
C1522 C1523 1.385 . S
C1522 C1524 1.478 . S
C1523 H1517 0.930 . S
C1523 C1519 1.400 . S
C1523 C1522 1.385 . S
C1524 C1522 1.478 . S
C1524 C1526 1.381 . S
C1524 C1530 1.383 . S
C1525 C1521 1.495 . S
C1525 H1531 0.959 . S
C1525 H1532 0.961 . S
C1525 H1533 0.960 . S
C1526 C1524 1.381 . S
C1526 C1527 1.394 . S
C1526 H1534 0.930 . S
C1527 C1526 1.394 . S
C1527 C1528 1.383 . S
C1527 H1535 0.929 . S
C1528 C1527 1.383 . S
C1528 C1529 1.377 . S
C1529 H1513 0.930 . S
C1529 C1528 1.377 . S
C1529 C1530 1.379 . S
C1530 H1514 0.931 . S
C1530 C1524 1.383 . S
C1530 C1529 1.379 . S
H1531 C1525 0.959 . S
H1532 C1525 0.961 . S
H1533 C1525 0.960 . S
H1534 C1526 0.930 . S
H1535 C1527 0.929 . S
H1536 C1544 0.929 . S
H1537 C1546 0.930 . S
H1538 C1548 0.930 . S
H1539 C1551 0.929 . S
H1540 C1554 0.930 . S
H1541 C1556 0.960 . S
H1542 C1556 0.960 . S
H1543 C1556 0.960 . S
C1544 H1536 0.929 . S
C1544 C1545 1.377 . S
C1544 C1546 1.384 . S
C1545 C1544 1.377 . S
C1545 C1551 1.390 . S
C1546 H1537 0.930 . S
C1546 C1544 1.384 . S
C1546 C1547 1.372 . S
C1547 C1546 1.372 . S
C1547 C1548 1.400 . S
C1547 C1552 1.490 . S
C1548 H1538 0.930 . S
C1548 C1547 1.400 . S
C1548 C1551 1.386 . S
H1549 C1565 0.930 . S
H1550 C1566 0.931 . S
C1551 H1539 0.929 . S
C1551 C1545 1.390 . S
C1551 C1548 1.386 . S
C1552 C1547 1.490 . S
C1552 C1554 1.395 . S
C1552 C1555 1.403 . S
H1553 C1559 0.930 . S
C1554 H1540 0.930 . S
C1554 C1552 1.395 . S
C1554 C1557 1.403 . S
C1555 C1552 1.403 . S
C1555 C1556 1.524 . S
C1555 C1559 1.400 . S
C1556 H1541 0.960 . S
C1556 H1542 0.960 . S
C1556 H1543 0.960 . S
C1556 C1555 1.524 . S
C1557 C1554 1.403 . S
C1557 C1558 1.392 . S
C1557 C1561 1.548 . S
C1558 C1557 1.392 . S
C1558 C1559 1.385 . S
C1558 C1560 1.478 . S
C1559 H1553 0.930 . S
C1559 C1555 1.400 . S
C1559 C1558 1.385 . S
C1560 C1558 1.478 . S
C1560 C1562 1.381 . S
C1560 C1566 1.383 . S
C1561 C1557 1.548 . S
C1561 H1567 0.936 1_655 S
C1561 H1568 0.938 1_655 S
C1561 H1569 0.958 1_655 S
C1562 C1560 1.381 . S
C1562 C1563 1.394 . S
C1562 H1570 0.930 . S
C1563 C1562 1.394 . S
C1563 C1564 1.383 . S
C1563 H1571 0.929 . S
C1564 C1563 1.383 . S
C1564 C1565 1.377 . S
C1565 H1549 0.930 . S
C1565 C1564 1.377 . S
C1565 C1566 1.379 . S
C1566 H1550 0.931 . S
C1566 C1560 1.383 . S
C1566 C1565 1.379 . S
H1567 C1561 0.936 1_455 S
H1568 C1561 0.938 1_455 S
H1569 C1561 0.958 1_455 S
H1570 C1562 0.930 . S
H1571 C1563 0.929 . S
H1572 C1580 0.929 . S
H1573 C1582 0.930 . S
H1574 C1584 0.930 . S
H1575 C1587 0.929 . S
H1576 C1590 0.930 . S
H1577 C1592 0.960 1_545 S
H1578 C1592 0.960 . S
H1579 C1592 0.960 . S
C1580 H1572 0.929 . S
C1580 C1581 1.377 . S
C1580 C1582 1.384 . S
C1581 C1580 1.377 . S
C1581 C1587 1.390 . S
C1582 H1573 0.930 . S
C1582 C1580 1.384 . S
C1582 C1583 1.372 . S
C1583 C1582 1.372 . S
C1583 C1584 1.400 . S
C1583 C1588 1.490 . S
C1584 H1574 0.930 . S
C1584 C1583 1.400 . S
C1584 C1587 1.386 . S
H1585 C1601 0.930 . S
H1586 C1602 0.931 . S
C1587 H1575 0.929 . S
C1587 C1581 1.390 . S
C1587 C1584 1.386 . S
C1588 C1583 1.490 . S
C1588 C1590 1.395 . S
C1588 C1591 1.403 . S
H1589 C1595 0.930 . S
C1590 H1576 0.930 . S
C1590 C1588 1.395 . S
C1590 C1593 1.403 . S
C1591 C1588 1.403 . S
C1591 C1592 1.524 . S
C1591 C1595 1.400 . S
C1592 H1577 0.960 1_565 S
C1592 H1578 0.960 . S
C1592 H1579 0.960 . S
C1592 C1591 1.524 . S
C1593 C1590 1.403 . S
C1593 C1594 1.392 . S
C1593 C1597 1.495 . S
C1594 C1593 1.392 . S
C1594 C1595 1.385 . S
C1594 C1596 1.478 . S
C1595 H1589 0.930 . S
C1595 C1591 1.400 . S
C1595 C1594 1.385 . S
C1596 C1594 1.478 . S
C1596 C1598 1.381 . S
C1596 C1602 1.383 . S
C1597 C1593 1.495 . S
C1597 H1603 0.959 . S
C1597 H1604 0.961 . S
C1597 H1605 0.960 . S
C1598 C1596 1.381 . S
C1598 C1599 1.394 . S
C1598 H1606 0.930 . S
C1599 C1598 1.394 . S
C1599 C1600 1.383 . S
C1599 H1607 0.929 . S
C1600 C1599 1.383 . S
C1600 C1601 1.377 . S
C1601 H1585 0.930 . S
C1601 C1600 1.377 . S
C1601 C1602 1.379 . S
C1602 H1586 0.931 . S
C1602 C1596 1.383 . S
C1602 C1601 1.379 . S
H1603 C1597 0.959 . S
H1604 C1597 0.961 . S
H1605 C1597 0.960 . S
H1606 C1598 0.930 . S
H1607 C1599 0.929 . S
H1608 C1616 0.929 . S
H1609 C1618 0.930 . S
H1610 C1620 0.930 . S
H1611 C1623 0.929 . S
H1612 C1626 0.930 . S
H1613 C1628 0.960 . S
H1614 C1628 0.960 . S
H1615 C1628 0.960 . S
C1616 H1608 0.929 . S
C1616 C1617 1.377 . S
C1616 C1618 1.384 . S
C1617 C1616 1.377 . S
C1617 C1623 1.390 . S
C1618 H1609 0.930 . S
C1618 C1616 1.384 . S
C1618 C1619 1.372 . S
C1619 C1618 1.372 . S
C1619 C1620 1.400 . S
C1619 C1624 1.490 . S
C1620 H1610 0.930 . S
C1620 C1619 1.400 . S
C1620 C1623 1.386 . S
H1621 C1637 0.930 . S
H1622 C1638 0.931 . S
C1623 H1611 0.929 . S
C1623 C1617 1.390 . S
C1623 C1620 1.386 . S
C1624 C1619 1.490 . S
C1624 C1626 1.395 . S
C1624 C1627 1.403 . S
H1625 C1631 0.930 . S
C1626 H1612 0.930 . S
C1626 C1624 1.395 . S
C1626 C1629 1.403 . S
C1627 C1624 1.403 . S
C1627 C1628 1.524 . S
C1627 C1631 1.400 . S
C1628 H1613 0.960 . S
C1628 H1614 0.960 . S
C1628 H1615 0.960 . S
C1628 C1627 1.524 . S
C1629 C1626 1.403 . S
C1629 C1630 1.392 . S
C1629 C1633 1.495 . S
C1630 C1629 1.392 . S
C1630 C1631 1.385 . S
C1630 C1632 1.478 . S
C1631 H1625 0.930 . S
C1631 C1627 1.400 . S
C1631 C1630 1.385 . S
C1632 C1630 1.478 . S
C1632 C1634 1.381 . S
C1632 C1638 1.383 . S
C1633 C1629 1.495 . S
C1633 H1639 0.959 . S
C1633 H1640 0.961 . S
C1633 H1641 0.960 . S
C1634 C1632 1.381 . S
C1634 C1635 1.394 . S
C1634 H1642 0.930 . S
C1635 C1634 1.394 . S
C1635 C1636 1.383 . S
C1635 H1643 0.929 . S
C1636 C1635 1.383 . S
C1636 C1637 1.377 . S
C1637 H1621 0.930 . S
C1637 C1636 1.377 . S
C1637 C1638 1.379 . S
C1638 H1622 0.931 . S
C1638 C1632 1.383 . S
C1638 C1637 1.379 . S
H1639 C1633 0.959 . S
H1640 C1633 0.961 . S
H1641 C1633 0.960 . S
H1642 C1634 0.930 . S
H1643 C1635 0.929 . S
H1644 C1652 0.929 . S
H1645 C1654 0.930 . S
H1646 C1656 0.930 . S
H1647 C1659 0.929 . S
H1648 C1662 0.930 . S
H1649 C1664 0.960 . S
H1650 C1664 0.960 . S
H1651 C1664 0.960 . S
C1652 H1644 0.929 . S
C1652 C1653 1.377 . S
C1652 C1654 1.384 . S
C1653 C1652 1.377 . S
C1653 C1659 1.390 . S
C1654 H1645 0.930 . S
C1654 C1652 1.384 . S
C1654 C1655 1.372 . S
C1655 C1654 1.372 . S
C1655 C1656 1.400 . S
C1655 C1660 1.490 . S
C1656 H1646 0.930 . S
C1656 C1655 1.400 . S
C1656 C1659 1.386 . S
H1657 C1673 0.930 . S
H1658 C1674 0.931 . S
C1659 H1647 0.929 . S
C1659 C1653 1.390 . S
C1659 C1656 1.386 . S
C1660 C1655 1.490 . S
C1660 C1662 1.395 . S
C1660 C1663 1.403 . S
H1661 C1667 0.930 . S
C1662 H1648 0.930 . S
C1662 C1660 1.395 . S
C1662 C1665 1.403 . S
C1663 C1660 1.403 . S
C1663 C1664 1.524 . S
C1663 C1667 1.400 . S
C1664 H1649 0.960 . S
C1664 H1650 0.960 . S
C1664 H1651 0.960 . S
C1664 C1663 1.524 . S
C1665 C1662 1.403 . S
C1665 C1666 1.392 . S
C1665 C1669 1.495 . S
C1666 C1665 1.392 . S
C1666 C1667 1.385 . S
C1666 C1668 1.478 . S
C1667 H1661 0.930 . S
C1667 C1663 1.400 . S
C1667 C1666 1.385 . S
C1668 C1666 1.478 . S
C1668 C1670 1.381 . S
C1668 C1674 1.383 . S
C1669 C1665 1.495 . S
C1669 H1675 0.959 . S
C1669 H1676 0.961 . S
C1669 H1677 0.960 . S
C1670 C1668 1.381 . S
C1670 C1671 1.394 . S
C1670 H1678 0.930 . S
C1671 C1670 1.394 . S
C1671 C1672 1.383 . S
C1671 H1679 0.929 . S
C1672 C1671 1.383 . S
C1672 C1673 1.377 . S
C1673 H1657 0.930 . S
C1673 C1672 1.377 . S
C1673 C1674 1.379 . S
C1674 H1658 0.931 . S
C1674 C1668 1.383 . S
C1674 C1673 1.379 . S
H1675 C1669 0.959 . S
H1676 C1669 0.961 . S
H1677 C1669 0.960 . S
H1678 C1670 0.930 . S
H1679 C1671 0.929 . S
C825 C391 2.155 . S
C844 C554 2.123 . S
C880 C638 2.147 . S
C861 C451 2.192 . S
C916 C704 2.088 . S
C897 C241 2.056 . S
C952 C788 2.105 . S
C933 C331 2.026 . S
C988 C543 2.089 1_565 S
C969 C121 1.941 . S
C1005 C211 2.133 . S
C1024 C627 2.157 . S
C1041 C31 2.262 . S
C1060 C715 2.083 . S
C1077 C91 2.100 . S
C1096 C799 2.065 . S
C1132 C550 0.511 1_455 S
C1113 C301 0.559 . S
C1168 C634 0.417 1_545 S
C1149 C380 0.333 . S
C1204 C706 0.364 . S
C1185 C440 0.271 . S
C1221 C260 0.574 . S
C1240 C790 0.451 . S
C1257 C61 0.466 . S
C1276 C538 0.345 . S
C1312 C622 0.360 . S
C1293 C140 0.423 . S
C1348 C718 0.368 . S
C1329 C200 0.496 . S
C1365 C20 0.501 . S
C1384 C802 0.430 . S
C1401 C320 2.690 . S
C1420 C547 2.721 . S
C1437 C361 2.388 . S
C1456 C631 2.671 . S
C1492 C711 2.641 . S
C1473 C421 2.250 . S
C1528 C795 2.690 . S
C1509 C271 2.534 . S
C1545 C80 2.746 . S
C1564 C536 2.686 . S
C1600 C620 2.666 . S
C1581 C151 2.688 . S
C1636 C722 2.641 . S
C1617 C181 2.199 . S
C1653 C1 2.228 . S
C1672 C806 2.697 . S
