# Generated by pormake.
# Topology eea, (3,6)-cn, num edge types: 1
# Building blocks:
#     Node 0, Type 0, BuildingBlock: BELTOD_clean_linker_0, # of connection points: 3
#     Node 1, Type 0, BuildingBlock: BELTOD_clean_linker_0, # of connection points: 3
#     Node 2, Type 0, BuildingBlock: BELTOD_clean_linker_0, # of connection points: 3
#     Node 3, Type 0, BuildingBlock: BELTOD_clean_linker_0, # of connection points: 3
#     Node 4, Type 0, BuildingBlock: BELTOD_clean_linker_0, # of connection points: 3
#     Node 5, Type 0, BuildingBlock: BELTOD_clean_linker_0, # of connection points: 3
#     Node 6, Type 0, BuildingBlock: BELTOD_clean_linker_0, # of connection points: 3
#     Node 7, Type 0, BuildingBlock: BELTOD_clean_linker_0, # of connection points: 3
#     Node 8, Type 0, BuildingBlock: BELTOD_clean_linker_0, # of connection points: 3
#     Node 9, Type 0, BuildingBlock: BELTOD_clean_linker_0, # of connection points: 3
#     Node 10, Type 0, BuildingBlock: BELTOD_clean_linker_0, # of connection points: 3
#     Node 11, Type 0, BuildingBlock: BELTOD_clean_linker_0, # of connection points: 3
#     Node 12, Type 0, BuildingBlock: BELTOD_clean_linker_0, # of connection points: 3
#     Node 13, Type 0, BuildingBlock: BELTOD_clean_linker_0, # of connection points: 3
#     Node 14, Type 0, BuildingBlock: BELTOD_clean_linker_0, # of connection points: 3
#     Node 15, Type 0, BuildingBlock: BELTOD_clean_linker_0, # of connection points: 3
#     Node 16, Type 0, BuildingBlock: BELTOD_clean_linker_0, # of connection points: 3
#     Node 17, Type 0, BuildingBlock: BELTOD_clean_linker_0, # of connection points: 3
#     Node 18, Type 1, BuildingBlock: CUKXOW_clean_sbu_0, # of connection points: 6
#     Node 19, Type 1, BuildingBlock: CUKXOW_clean_sbu_0, # of connection points: 6
#     Node 20, Type 1, BuildingBlock: CUKXOW_clean_sbu_0, # of connection points: 6
#     Node 21, Type 1, BuildingBlock: CUKXOW_clean_sbu_0, # of connection points: 6
#     Node 22, Type 1, BuildingBlock: CUKXOW_clean_sbu_0, # of connection points: 6
#     Node 23, Type 1, BuildingBlock: CUKXOW_clean_sbu_0, # of connection points: 6
#     Node 24, Type 1, BuildingBlock: CUKXOW_clean_sbu_0, # of connection points: 6
#     Node 25, Type 1, BuildingBlock: CUKXOW_clean_sbu_0, # of connection points: 6
#     Node 26, Type 1, BuildingBlock: CUKXOW_clean_sbu_0, # of connection points: 6
#     Edge 27, Type (0, 1), BuildingBlock: TEMPAE_clean_linker_10, # of connection points: 2
#     Edge 28, Type (0, 1), BuildingBlock: TEMPAE_clean_linker_10, # of connection points: 2
#     Edge 29, Type (0, 1), BuildingBlock: TEMPAE_clean_linker_10, # of connection points: 2
#     Edge 30, Type (0, 1), BuildingBlock: TEMPAE_clean_linker_10, # of connection points: 2
#     Edge 31, Type (0, 1), BuildingBlock: TEMPAE_clean_linker_10, # of connection points: 2
#     Edge 32, Type (0, 1), BuildingBlock: TEMPAE_clean_linker_10, # of connection points: 2
#     Edge 33, Type (0, 1), BuildingBlock: TEMPAE_clean_linker_10, # of connection points: 2
#     Edge 34, Type (0, 1), BuildingBlock: TEMPAE_clean_linker_10, # of connection points: 2
#     Edge 35, Type (0, 1), BuildingBlock: TEMPAE_clean_linker_10, # of connection points: 2
#     Edge 36, Type (0, 1), BuildingBlock: TEMPAE_clean_linker_10, # of connection points: 2
#     Edge 37, Type (0, 1), BuildingBlock: TEMPAE_clean_linker_10, # of connection points: 2
#     Edge 38, Type (0, 1), BuildingBlock: TEMPAE_clean_linker_10, # of connection points: 2
#     Edge 39, Type (0, 1), BuildingBlock: TEMPAE_clean_linker_10, # of connection points: 2
#     Edge 40, Type (0, 1), BuildingBlock: TEMPAE_clean_linker_10, # of connection points: 2
#     Edge 41, Type (0, 1), BuildingBlock: TEMPAE_clean_linker_10, # of connection points: 2
#     Edge 42, Type (0, 1), BuildingBlock: TEMPAE_clean_linker_10, # of connection points: 2
#     Edge 43, Type (0, 1), BuildingBlock: TEMPAE_clean_linker_10, # of connection points: 2
#     Edge 44, Type (0, 1), BuildingBlock: TEMPAE_clean_linker_10, # of connection points: 2
#     Edge 45, Type (0, 1), BuildingBlock: TEMPAE_clean_linker_10, # of connection points: 2
#     Edge 46, Type (0, 1), BuildingBlock: TEMPAE_clean_linker_10, # of connection points: 2
#     Edge 47, Type (0, 1), BuildingBlock: TEMPAE_clean_linker_10, # of connection points: 2
#     Edge 48, Type (0, 1), BuildingBlock: TEMPAE_clean_linker_10, # of connection points: 2
#     Edge 49, Type (0, 1), BuildingBlock: TEMPAE_clean_linker_10, # of connection points: 2
#     Edge 50, Type (0, 1), BuildingBlock: TEMPAE_clean_linker_10, # of connection points: 2
#     Edge 51, Type (0, 1), BuildingBlock: TEMPAE_clean_linker_10, # of connection points: 2
#     Edge 52, Type (0, 1), BuildingBlock: TEMPAE_clean_linker_10, # of connection points: 2
#     Edge 53, Type (0, 1), BuildingBlock: TEMPAE_clean_linker_10, # of connection points: 2
#     Edge 54, Type (0, 1), BuildingBlock: TEMPAE_clean_linker_10, # of connection points: 2
#     Edge 55, Type (0, 1), BuildingBlock: TEMPAE_clean_linker_10, # of connection points: 2
#     Edge 56, Type (0, 1), BuildingBlock: TEMPAE_clean_linker_10, # of connection points: 2
#     Edge 57, Type (0, 1), BuildingBlock: TEMPAE_clean_linker_10, # of connection points: 2
#     Edge 58, Type (0, 1), BuildingBlock: TEMPAE_clean_linker_10, # of connection points: 2
#     Edge 59, Type (0, 1), BuildingBlock: TEMPAE_clean_linker_10, # of connection points: 2
#     Edge 60, Type (0, 1), BuildingBlock: TEMPAE_clean_linker_10, # of connection points: 2
#     Edge 61, Type (0, 1), BuildingBlock: TEMPAE_clean_linker_10, # of connection points: 2
#     Edge 62, Type (0, 1), BuildingBlock: TEMPAE_clean_linker_10, # of connection points: 2
#     Edge 63, Type (0, 1), BuildingBlock: TEMPAE_clean_linker_10, # of connection points: 2
#     Edge 64, Type (0, 1), BuildingBlock: TEMPAE_clean_linker_10, # of connection points: 2
#     Edge 65, Type (0, 1), BuildingBlock: TEMPAE_clean_linker_10, # of connection points: 2
#     Edge 66, Type (0, 1), BuildingBlock: TEMPAE_clean_linker_10, # of connection points: 2
#     Edge 67, Type (0, 1), BuildingBlock: TEMPAE_clean_linker_10, # of connection points: 2
#     Edge 68, Type (0, 1), BuildingBlock: TEMPAE_clean_linker_10, # of connection points: 2
#     Edge 69, Type (0, 1), BuildingBlock: TEMPAE_clean_linker_10, # of connection points: 2
#     Edge 70, Type (0, 1), BuildingBlock: TEMPAE_clean_linker_10, # of connection points: 2
#     Edge 71, Type (0, 1), BuildingBlock: TEMPAE_clean_linker_10, # of connection points: 2
#     Edge 72, Type (0, 1), BuildingBlock: TEMPAE_clean_linker_10, # of connection points: 2
#     Edge 73, Type (0, 1), BuildingBlock: TEMPAE_clean_linker_10, # of connection points: 2
#     Edge 74, Type (0, 1), BuildingBlock: TEMPAE_clean_linker_10, # of connection points: 2
#     Edge 75, Type (0, 1), BuildingBlock: TEMPAE_clean_linker_10, # of connection points: 2
#     Edge 76, Type (0, 1), BuildingBlock: TEMPAE_clean_linker_10, # of connection points: 2
#     Edge 77, Type (0, 1), BuildingBlock: TEMPAE_clean_linker_10, # of connection points: 2
#     Edge 78, Type (0, 1), BuildingBlock: TEMPAE_clean_linker_10, # of connection points: 2
#     Edge 79, Type (0, 1), BuildingBlock: TEMPAE_clean_linker_10, # of connection points: 2
#     Edge 80, Type (0, 1), BuildingBlock: TEMPAE_clean_linker_10, # of connection points: 2
# Relax obj value: 0.016
# Max RMSD: 0.122
# Mean RMSD: 0.050
data_MOF--net-eea--node1-CUKXOW_clean_sbu_0--node2-BELTOD_clean_linker_0--edge1-TEMPAE_clean_linker_10
_symmetry_space_group_name_H-M    P1
_symmetry_Int_Tables_number       1
_symmetry_cell_setting            triclinic
loop_
_symmetry_equiv_pos_as_xyz
'x, y, z'
_cell_length_a     63.978113
_cell_length_b     60.725904
_cell_length_c     67.373159
_cell_angle_alpha  93.587204
_cell_angle_beta   93.155804
_cell_angle_gamma 119.9855
loop_
_atom_site_label
_atom_site_type_symbol
_atom_site_fract_x
_atom_site_fract_y
_atom_site_fract_z
_atom_type_partial_charge
P0 P 0.28409 0.16013 0.42811 0.0
H1 H 0.30166 0.12559 0.41698 0.0
H2 H 0.28106 0.08065 0.40344 0.0
H3 H 0.21189 0.07701 0.40419 0.0
H4 H 0.23268 0.12208 0.41747 0.0
H5 H 0.27176 0.17018 0.38907 0.0
H6 H 0.24889 0.19016 0.37764 0.0
H7 H 0.23536 0.2015 0.4385 0.0
H8 H 0.25841 0.18163 0.44986 0.0
H9 H 0.25859 0.1248 0.45773 0.0
H10 H 0.31976 0.20083 0.45741 0.0
O11 O 0.31102 0.17538 0.41909 0.0
H12 H 0.26677 0.12732 0.49386 0.0
H13 H 0.32771 0.20381 0.49369 0.0
C14 C 0.26873 0.12723 0.41779 0.0
C15 C 0.28208 0.11514 0.41408 0.0
C16 C 0.27027 0.08942 0.40651 0.0
C17 C 0.24484 0.07531 0.40269 0.0
C18 C 0.23151 0.08748 0.40667 0.0
C19 C 0.24337 0.11322 0.41427 0.0
C20 C 0.26699 0.17472 0.42028 0.0
C21 C 0.26385 0.17698 0.39993 0.0
C22 C 0.25062 0.18819 0.39342 0.0
C23 C 0.24031 0.19736 0.40719 0.0
C24 C 0.2433 0.19481 0.42759 0.0
C25 C 0.25646 0.18345 0.43409 0.0
C26 C 0.289 0.16239 0.45486 0.0
C27 C 0.27374 0.14208 0.46544 0.0
C28 C 0.27829 0.14365 0.48615 0.0
C29 C 0.29804 0.16568 0.49664 0.0
C30 C 0.31266 0.18639 0.48601 0.0
C31 C 0.30812 0.18475 0.4653 0.0
P32 P 0.90087 0.09646 0.46013 0.0
H33 H 0.86876 0.04198 0.4609 0.0
H34 H 0.83127 0.01042 0.44091 0.0
H35 H 0.83551 0.06891 0.40523 0.0
H36 H 0.87294 0.10066 0.42561 0.0
H37 H 0.93744 0.14894 0.47519 0.0
H38 H 0.96896 0.18414 0.45952 0.0
H39 H 0.94393 0.13784 0.40268 0.0
H40 H 0.91282 0.10218 0.41852 0.0
H41 H 0.92075 0.11212 0.50195 0.0
H42 H 0.86119 0.10684 0.46454 0.0
O43 O 0.91522 0.08165 0.46829 0.0
H44 H 0.90913 0.12892 0.53049 0.0
H45 H 0.8486 0.1222 0.49313 0.0
C46 C 0.87409 0.07345 0.44428 0.0
C47 C 0.86178 0.04801 0.44866 0.0
C48 C 0.84023 0.03005 0.43738 0.0
C49 C 0.83054 0.03724 0.42151 0.0
C50 C 0.84276 0.06284 0.41725 0.0
C51 C 0.86421 0.08091 0.42876 0.0
C52 C 0.92212 0.12315 0.4479 0.0
C53 C 0.93836 0.14637 0.4593 0.0
C54 C 0.95649 0.16647 0.45039 0.0
C55 C 0.95861 0.1637 0.4299 0.0
C56 C 0.94232 0.14052 0.41845 0.0
C57 C 0.92448 0.12022 0.42747 0.0
C58 C 0.89156 0.10778 0.48124 0.0
C59 C 0.90494 0.11421 0.49997 0.0
C60 C 0.8982 0.12373 0.51629 0.0
C61 C 0.87781 0.12679 0.51419 0.0
C62 C 0.86458 0.12044 0.49528 0.0
C63 C 0.87157 0.1113 0.47893 0.0
P64 P 0.85431 0.70206 0.42502 0.0
H65 H 0.80797 0.68228 0.40106 0.0
H66 H 0.78397 0.70146 0.39138 0.0
H67 H 0.83882 0.77372 0.42295 0.0
H68 H 0.8622 0.75379 0.43346 0.0
H69 H 0.89497 0.69507 0.43578 0.0
H70 H 0.93714 0.71652 0.42789 0.0
H71 H 0.92444 0.76791 0.39457 0.0
H72 H 0.88229 0.74625 0.40226 0.0
H73 H 0.81487 0.66581 0.44579 0.0
H74 H 0.887 0.73 0.46163 0.0
O75 O 0.84209 0.67316 0.41237 0.0
H76 H 0.81022 0.6593 0.481 0.0
H77 H 0.88307 0.72285 0.49684 0.0
C78 C 0.83719 0.71683 0.4175 0.0
C79 C 0.81493 0.70229 0.40582 0.0
C80 C 0.80124 0.71336 0.40021 0.0
C81 C 0.8096 0.73931 0.40607 0.0
C82 C 0.83174 0.75368 0.41821 0.0
C83 C 0.84527 0.74242 0.42406 0.0
C84 C 0.88564 0.71945 0.42008 0.0
C85 C 0.90135 0.71115 0.42697 0.0
C86 C 0.92537 0.72331 0.42238 0.0
C87 C 0.93408 0.74398 0.41074 0.0
C88 C 0.91831 0.75232 0.40388 0.0
C89 C 0.89419 0.73996 0.40833 0.0
C90 C 0.85149 0.69789 0.45109 0.0
C91 C 0.82984 0.67828 0.45687 0.0
C92 C 0.82729 0.6745 0.47702 0.0
C93 C 0.84644 0.69026 0.49179 0.0
C94 C 0.86793 0.71038 0.48591 0.0
C95 C 0.87033 0.71432 0.46573 0.0
P96 P 0.14468 0.29747 0.57739 0.0
H97 H 0.12052 0.31505 0.60422 0.0
H98 H 0.08001 0.29451 0.6152 0.0
H99 H 0.06229 0.22421 0.5802 0.0
H100 H 0.10299 0.24526 0.56881 0.0
H101 H 0.18402 0.31551 0.60945 0.0
H102 H 0.20865 0.29789 0.62172 0.0
H103 H 0.16782 0.23129 0.5789 0.0
H104 H 0.14327 0.24919 0.56651 0.0
H105 H 0.10647 0.28525 0.54475 0.0
H106 H 0.18264 0.30954 0.55129 0.0
O107 O 0.1588 0.32831 0.5862 0.0
H108 H 0.10829 0.29002 0.5089 0.0
H109 H 0.18457 0.3147 0.51562 0.0
C110 C 0.11476 0.28171 0.58564 0.0
C111 C 0.10799 0.29522 0.59887 0.0
C112 C 0.08482 0.28337 0.60528 0.0
C113 C 0.06792 0.25766 0.59867 0.0
C114 C 0.07481 0.24409 0.58544 0.0
C115 C 0.0981 0.25603 0.57903 0.0
C116 C 0.16191 0.28371 0.58699 0.0
C117 C 0.18033 0.29712 0.60267 0.0
C118 C 0.19447 0.28709 0.60963 0.0
C119 C 0.19026 0.2633 0.60118 0.0
C120 C 0.17138 0.2496 0.58576 0.0
C121 C 0.15737 0.2598 0.57868 0.0
C122 C 0.14436 0.29659 0.55063 0.0
C123 C 0.12343 0.29099 0.53844 0.0
C124 C 0.12447 0.29377 0.51797 0.0
C125 C 0.14658 0.30277 0.50958 0.0
C126 C 0.16733 0.30781 0.52177 0.0
C127 C 0.1662 0.30473 0.5421 0.0
P128 P 0.80159 0.89749 0.54855 0.0
H129 H 0.83286 0.93517 0.58129 0.0
H130 H 0.83054 0.96898 0.60088 0.0
H131 H 0.76077 0.94478 0.56903 0.0
H132 H 0.7634 0.91116 0.5493 0.0
H133 H 0.81442 0.85827 0.54233 0.0
H134 H 0.80842 0.82255 0.56079 0.0
H135 H 0.76928 0.84141 0.60242 0.0
H136 H 0.77567 0.87742 0.58393 0.0
H137 H 0.80565 0.91999 0.51111 0.0
H138 H 0.75377 0.85226 0.53607 0.0
O139 O 0.83012 0.91113 0.54266 0.0
H140 H 0.77887 0.90651 0.48005 0.0
H141 H 0.72715 0.83828 0.50489 0.0
C142 C 0.79858 0.92107 0.56361 0.0
C143 C 0.81704 0.93712 0.57858 0.0
C144 C 0.81558 0.95628 0.58988 0.0
C145 C 0.79549 0.95963 0.58645 0.0
C146 C 0.77662 0.94291 0.57182 0.0
C147 C 0.7781 0.92367 0.56055 0.0
C148 C 0.79599 0.87076 0.56204 0.0
C149 C 0.80453 0.85468 0.55542 0.0
C150 C 0.80085 0.83411 0.56588 0.0
C151 C 0.78838 0.82915 0.5831 0.0
C152 C 0.7792 0.84493 0.58935 0.0
C153 C 0.78286 0.86552 0.57882 0.0
C154 C 0.78188 0.88689 0.52569 0.0
C155 C 0.78861 0.90205 0.50979 0.0
C156 C 0.77334 0.89425 0.49202 0.0
C157 C 0.75098 0.87119 0.48992 0.0
C158 C 0.7442 0.85619 0.50606 0.0
C159 C 0.75949 0.86406 0.52384 0.0
P160 P 0.14733 0.85076 0.58652 0.0
H161 H 0.1685 0.87596 0.62657 0.0
H162 H 0.19186 0.92095 0.64015 0.0
H163 H 0.18451 0.94334 0.58172 0.0
H164 H 0.16133 0.89835 0.56824 0.0
H165 H 0.11201 0.79814 0.59178 0.0
H166 H 0.06982 0.7773 0.59944 0.0
H167 H 0.07225 0.84982 0.6011 0.0
H168 H 0.11432 0.87041 0.59301 0.0
H169 H 0.18711 0.85951 0.56327 0.0
H170 H 0.11148 0.83591 0.55149 0.0
O171 O 0.16044 0.83612 0.59735 0.0
H172 H 0.19053 0.8566 0.52739 0.0
H173 H 0.11454 0.83223 0.51559 0.0
C174 C 0.16372 0.88389 0.59635 0.0
C175 C 0.17196 0.89058 0.61671 0.0
C176 C 0.18513 0.91628 0.62447 0.0
C177 C 0.19018 0.93569 0.61196 0.0
C178 C 0.18126 0.92882 0.59164 0.0
C179 C 0.168 0.90311 0.58393 0.0
C180 C 0.1164 0.83587 0.59233 0.0
C181 C 0.10348 0.80955 0.5939 0.0
C182 C 0.0794 0.79769 0.59832 0.0
C183 C 0.06777 0.81196 0.60109 0.0
C184 C 0.08066 0.83829 0.59898 0.0
C185 C 0.10477 0.85012 0.59455 0.0
C186 C 0.14901 0.84759 0.56003 0.0
C187 C 0.17117 0.8534 0.55294 0.0
C188 C 0.17305 0.8516 0.53242 0.0
C189 C 0.15274 0.84395 0.5186 0.0
C190 C 0.13056 0.83832 0.52582 0.0
C191 C 0.12874 0.84023 0.54637 0.0
P192 P 0.95285 0.49349 0.75666 0.0
H193 H 0.92051 0.46376 0.72046 0.0
H194 H 0.90139 0.41881 0.70777 0.0
H195 H 0.93164 0.40436 0.76106 0.0
H196 H 0.95216 0.44957 0.77277 0.0
H197 H 0.95346 0.51584 0.71955 0.0
H198 H 0.93271 0.53752 0.70685 0.0
H199 H 0.89616 0.52608 0.76053 0.0
H200 H 0.91677 0.50425 0.77309 0.0
H201 H 0.99247 0.53177 0.78524 0.0
H202 H 0.92165 0.46581 0.78725 0.0
O203 O 0.98012 0.50691 0.74815 0.0
H204 H 0.99924 0.53631 0.82168 0.0
H205 H 0.92864 0.46941 0.82357 0.0
C206 C 0.93716 0.45995 0.74789 0.0
C207 C 0.9229 0.4509 0.72947 0.0
C208 C 0.91181 0.42505 0.72227 0.0
C209 C 0.91471 0.40772 0.73342 0.0
C210 C 0.92914 0.41704 0.75188 0.0
C211 C 0.94061 0.44293 0.75881 0.0
C212 C 0.937 0.50885 0.7474 0.0
C213 C 0.94098 0.518 0.72858 0.0
C214 C 0.929 0.53021 0.72129 0.0
C215 C 0.91293 0.53356 0.73277 0.0
C216 C 0.90869 0.524 0.7515 0.0
C217 C 0.92047 0.51152 0.75867 0.0
C218 C 0.9569 0.49798 0.78356 0.0
C219 C 0.97841 0.5182 0.79353 0.0
C220 C 0.98229 0.5207 0.81437 0.0
C221 C 0.96466 0.50296 0.82557 0.0
C222 C 0.94258 0.48349 0.81549 0.0
C223 C 0.93866 0.4812 0.79468 0.0
P224 P 0.57927 0.43988 0.80252 0.0
H225 H 0.56164 0.38543 0.79258 0.0
H226 H 0.52722 0.35204 0.7706 0.0
H227 H 0.50875 0.40763 0.75231 0.0
H228 H 0.54334 0.4411 0.77445 0.0
H229 H 0.62663 0.45013 0.79186 0.0
H230 H 0.6573 0.48291 0.77391 0.0
H231 H 0.61179 0.51616 0.76566 0.0
H232 H 0.58078 0.48264 0.7831 0.0
H233 H 0.53653 0.4143 0.82375 0.0
H234 H 0.5949 0.49167 0.82174 0.0
O235 O 0.59242 0.4266 0.81531 0.0
H236 H 0.51985 0.42939 0.8496 0.0
H237 H 0.57762 0.50685 0.84704 0.0
C238 C 0.5551 0.41577 0.78508 0.0
C239 C 0.55033 0.39054 0.78377 0.0
C240 C 0.53055 0.37141 0.77128 0.0
C241 C 0.51521 0.37721 0.75984 0.0
C242 C 0.52036 0.40265 0.76085 0.0
C243 C 0.54011 0.42177 0.77347 0.0
C244 C 0.60165 0.46427 0.78918 0.0
C245 C 0.62326 0.46452 0.78627 0.0
C246 C 0.64088 0.4834 0.77608 0.0
C247 C 0.6372 0.50243 0.76857 0.0
C248 C 0.6152 0.50176 0.77116 0.0
C249 C 0.5975 0.48269 0.78123 0.0
C250 C 0.56651 0.45192 0.82034 0.0
C251 C 0.54549 0.43457 0.82857 0.0
C252 C 0.53603 0.44314 0.84335 0.0
C253 C 0.54738 0.46925 0.85004 0.0
C254 C 0.56841 0.48667 0.84182 0.0
C255 C 0.57816 0.47799 0.82728 0.0
P256 P 0.52812 0.02679 0.75952 0.0
H257 H 0.50911 0.03177 0.72093 0.0
H258 H 0.48842 0.05455 0.71083 0.0
H259 H 0.49466 0.08339 0.77246 0.0
H260 H 0.51579 0.06095 0.78238 0.0
H261 H 0.56081 0.01092 0.74417 0.0
H262 H 0.60314 0.03454 0.73741 0.0
H263 H 0.6077 0.10512 0.76028 0.0
H264 H 0.56489 0.08126 0.76629 0.0
H265 H 0.48678 0.98979 0.77821 0.0
H266 H 0.56046 0.04906 0.79709 0.0
O267 O 0.51486 0.99901 0.74506 0.0
H268 H 0.48028 0.98034 0.81282 0.0
H269 H 0.55398 0.04006 0.83175 0.0
C270 C 0.51346 0.04421 0.75242 0.0
C271 C 0.50597 0.04296 0.73226 0.0
C272 C 0.49409 0.05592 0.72652 0.0
C273 C 0.48963 0.07054 0.74087 0.0
C274 C 0.49788 0.07237 0.76104 0.0
C275 C 0.50977 0.05937 0.76676 0.0
C276 C 0.55964 0.04441 0.75535 0.0
C277 C 0.57089 0.03148 0.74767 0.0
C278 C 0.59523 0.04503 0.74403 0.0
C279 C 0.6089 0.07179 0.74829 0.0
C280 C 0.59763 0.0846 0.75652 0.0
C281 C 0.57319 0.071 0.76001 0.0
C282 C 0.52416 0.01984 0.78505 0.0
C283 C 0.50158 0.00069 0.78981 0.0
C284 C 0.49786 0.99544 0.8096 0.0
C285 C 0.51664 0.00942 0.82503 0.0
C286 C 0.53927 0.02869 0.82018 0.0
C287 C 0.54297 0.03392 0.80034 0.0
P288 P 0.79846 0.6243 0.90349 0.0
H289 H 0.772 0.58262 0.92835 0.0
H290 H 0.73061 0.56199 0.93755 0.0
H291 H 0.71424 0.60582 0.89784 0.0
H292 H 0.75613 0.62743 0.88964 0.0
H293 H 0.82601 0.62887 0.94097 0.0
H294 H 0.84931 0.60905 0.95148 0.0
H295 H 0.83033 0.56584 0.89338 0.0
H296 H 0.80651 0.58539 0.88314 0.0
H297 H 0.83954 0.66161 0.88497 0.0
H298 H 0.76737 0.59951 0.86541 0.0
O299 O 0.81032 0.65251 0.91716 0.0
H300 H 0.84632 0.67114 0.85054 0.0
H301 H 0.77331 0.60996 0.83099 0.0
C302 C 0.76703 0.60615 0.90792 0.0
C303 C 0.75944 0.58753 0.92137 0.0
C304 C 0.73563 0.57561 0.92657 0.0
C305 C 0.71895 0.58213 0.91841 0.0
C306 C 0.7266 0.6005 0.90462 0.0
C307 C 0.75049 0.61265 0.89968 0.0
C308 C 0.81499 0.60898 0.91116 0.0
C309 C 0.82692 0.61518 0.93048 0.0
C310 C 0.84032 0.60391 0.93643 0.0
C311 C 0.84198 0.58612 0.92317 0.0
C312 C 0.82938 0.57942 0.90397 0.0
C313 C 0.81591 0.5907 0.89804 0.0
C314 C 0.80271 0.63046 0.87781 0.0
C315 C 0.825 0.65029 0.87325 0.0
C316 C 0.82876 0.65582 0.85354 0.0
C317 C 0.81017 0.64172 0.83794 0.0
C318 C 0.78804 0.62125 0.84256 0.0
C319 C 0.78447 0.61546 0.86231 0.0
P320 P 0.43257 0.20708 0.90622 0.0
H321 H 0.47317 0.25454 0.92578 0.0
H322 H 0.47615 0.29312 0.94224 0.0
H323 H 0.39825 0.25844 0.93285 0.0
H324 H 0.3954 0.21969 0.91636 0.0
H325 H 0.46887 0.20496 0.93213 0.0
H326 H 0.46707 0.17498 0.95533 0.0
H327 H 0.38899 0.13207 0.94394 0.0
H328 H 0.39086 0.1629 0.92103 0.0
H329 H 0.41594 0.23087 0.87842 0.0
H330 H 0.40023 0.15449 0.88685 0.0
O331 O 0.45868 0.21658 0.89623 0.0
H332 H 0.38928 0.21493 0.84761 0.0
H333 H 0.37201 0.13791 0.85658 0.0
C334 C 0.43415 0.23462 0.91937 0.0
C335 C 0.45672 0.2552 0.92728 0.0
C336 C 0.45838 0.27716 0.93684 0.0
C337 C 0.43743 0.27884 0.93871 0.0
C338 C 0.4147 0.25778 0.93136 0.0
C339 C 0.41306 0.23568 0.92196 0.0
C340 C 0.43009 0.18546 0.92421 0.0
C341 C 0.45132 0.18921 0.93468 0.0
C342 C 0.45026 0.17224 0.94811 0.0
C343 C 0.42789 0.15116 0.95133 0.0
C344 C 0.40646 0.14808 0.94156 0.0
C345 C 0.40754 0.16549 0.92836 0.0
C346 C 0.40929 0.1938 0.8855 0.0
C347 C 0.40593 0.21046 0.87408 0.0
C348 C 0.3905 0.20121 0.85639 0.0
C349 C 0.378 0.17496 0.84962 0.0
C350 C 0.38128 0.15822 0.86124 0.0
C351 C 0.39712 0.16764 0.87883 0.0
P352 P 0.80341 0.17533 0.91016 0.0
H353 H 0.8219 0.20196 0.95006 0.0
H354 H 0.84335 0.24724 0.96284 0.0
H355 H 0.83953 0.2673 0.90287 0.0
H356 H 0.81828 0.22204 0.89019 0.0
H357 H 0.76761 0.12213 0.91294 0.0
H358 H 0.72602 0.10107 0.92217 0.0
H359 H 0.72949 0.17413 0.9288 0.0
H360 H 0.77075 0.19487 0.91901 0.0
H361 H 0.84158 0.17658 0.88808 0.0
H362 H 0.77044 0.16636 0.87444 0.0
O363 O 0.81688 0.16176 0.92209 0.0
H364 H 0.84604 0.17322 0.85245 0.0
H365 H 0.77451 0.16241 0.83864 0.0
C366 C 0.81902 0.20872 0.91918 0.0
C367 C 0.82577 0.21614 0.93968 0.0
C368 C 0.83781 0.24198 0.94697 0.0
C369 C 0.8432 0.26083 0.93384 0.0
C370 C 0.83593 0.25323 0.9133 0.0
C371 C 0.82379 0.22735 0.90605 0.0
C372 C 0.77238 0.16007 0.91573 0.0
C373 C 0.75934 0.13355 0.91631 0.0
C374 C 0.73563 0.12158 0.92167 0.0
C375 C 0.72455 0.13597 0.92648 0.0
C376 C 0.73744 0.16248 0.92512 0.0
C377 C 0.76114 0.17441 0.91969 0.0
C378 C 0.80551 0.17116 0.88385 0.0
C379 C 0.82676 0.17318 0.87737 0.0
C380 C 0.82923 0.17118 0.857 0.0
C381 C 0.81051 0.16727 0.84269 0.0
C382 C 0.78927 0.16547 0.84928 0.0
C383 C 0.78684 0.16751 0.86973 0.0
P384 P 0.63267 0.83196 0.08171 0.0
H385 H 0.6268 0.80312 0.04368 0.0
H386 H 0.60362 0.75744 0.03211 0.0
H387 H 0.57612 0.74146 0.08982 0.0
H388 H 0.59938 0.78712 0.10129 0.0
H389 H 0.64635 0.87375 0.05652 0.0
H390 H 0.62399 0.8928 0.042 0.0
H391 H 0.56109 0.84177 0.07056 0.0
H392 H 0.58337 0.82222 0.0847 0.0
H393 H 0.66274 0.82168 0.1087 0.0
H394 H 0.61483 0.85206 0.1139 0.0
O395 O 0.65941 0.84396 0.07235 0.0
H396 H 0.66929 0.82503 0.1451 0.0
H397 H 0.62125 0.85537 0.1503 0.0
C398 C 0.61527 0.79838 0.07346 0.0
C399 C 0.61583 0.78974 0.05384 0.0
C400 C 0.60242 0.76369 0.04721 0.0
C401 C 0.58817 0.74587 0.06011 0.0
C402 C 0.58724 0.75471 0.07965 0.0
C403 C 0.60055 0.7808 0.08622 0.0
C404 C 0.61656 0.84675 0.07185 0.0
C405 C 0.62777 0.86662 0.05969 0.0
C406 C 0.61496 0.87741 0.05131 0.0
C407 C 0.59086 0.86869 0.05518 0.0
C408 C 0.57971 0.84887 0.06746 0.0
C409 C 0.5924 0.83777 0.07554 0.0
C410 C 0.63841 0.8367 0.10855 0.0
C411 C 0.65384 0.82934 0.11768 0.0
C412 C 0.65761 0.83132 0.13847 0.0
C413 C 0.64582 0.84053 0.15056 0.0
C414 C 0.63043 0.84803 0.14136 0.0
C415 C 0.62679 0.84618 0.12051 0.0
P416 P 0.22901 0.77145 0.12591 0.0
H417 H 0.21206 0.71687 0.11816 0.0
H418 H 0.17646 0.68148 0.09865 0.0
H419 H 0.15358 0.73362 0.08025 0.0
H420 H 0.18905 0.7691 0.10033 0.0
H421 H 0.28007 0.81008 0.13474 0.0
H422 H 0.30983 0.84176 0.11532 0.0
H423 H 0.25614 0.81435 0.06445 0.0
H424 H 0.22605 0.78348 0.08402 0.0
H425 H 0.18099 0.75815 0.1389 0.0
H426 H 0.25592 0.81589 0.15571 0.0
O427 O 0.24349 0.75915 0.1382 0.0
H428 H 0.16905 0.77491 0.1671 0.0
H429 H 0.24392 0.83211 0.18423 0.0
C430 C 0.20333 0.74569 0.11057 0.0
C431 C 0.19949 0.72081 0.10995 0.0
C432 C 0.17909 0.70056 0.09886 0.0
C433 C 0.16234 0.7049 0.08802 0.0
C434 C 0.16636 0.72987 0.08839 0.0
C435 C 0.18659 0.75008 0.09977 0.0
C436 C 0.25051 0.79471 0.11115 0.0
C437 C 0.27438 0.8113 0.11962 0.0
C438 C 0.29145 0.8293 0.10851 0.0
C439 C 0.28509 0.83054 0.08853 0.0
C440 C 0.26133 0.81378 0.07991 0.0
C441 C 0.24409 0.79615 0.09119 0.0
C442 C 0.21942 0.78612 0.14466 0.0
C443 C 0.19489 0.77487 0.14815 0.0
C444 C 0.188 0.78437 0.16438 0.0
C445 C 0.20558 0.80483 0.17771 0.0
C446 C 0.23004 0.81636 0.17407 0.0
C447 C 0.23687 0.80712 0.15766 0.0
P448 P 0.19296 0.37293 0.09894 0.0
H449 H 0.20473 0.4196 0.07948 0.0
H450 H 0.18005 0.43818 0.0694 0.0
H451 H 0.11884 0.37813 0.09432 0.0
H452 H 0.14355 0.35953 0.10419 0.0
H453 H 0.21592 0.36394 0.06566 0.0
H454 H 0.25719 0.38643 0.05612 0.0
H455 H 0.27861 0.44219 0.10743 0.0
H456 H 0.23695 0.41956 0.11684 0.0
H457 H 0.19192 0.33311 0.1216 0.0
H458 H 0.19469 0.4051 0.13407 0.0
O459 O 0.17855 0.34379 0.08646 0.0
H460 H 0.18847 0.3261 0.15691 0.0
H461 H 0.19099 0.3981 0.16943 0.0
C462 C 0.17591 0.38816 0.09257 0.0
C463 C 0.18608 0.41054 0.08293 0.0
C464 C 0.17198 0.42122 0.07724 0.0
C465 C 0.14748 0.40955 0.081 0.0
C466 C 0.13757 0.38737 0.091 0.0
C467 C 0.15168 0.3768 0.09672 0.0
C468 C 0.22351 0.38984 0.09215 0.0
C469 C 0.22948 0.3809 0.07495 0.0
C470 C 0.25312 0.39373 0.06955 0.0
C471 C 0.27122 0.41591 0.08116 0.0
C472 C 0.26505 0.42516 0.09819 0.0
C473 C 0.24133 0.41218 0.10365 0.0
C474 C 0.19299 0.36932 0.12521 0.0
C475 C 0.19186 0.34745 0.13196 0.0
C476 C 0.18984 0.34344 0.15212 0.0
C477 C 0.18914 0.3614 0.16588 0.0
C478 C 0.19154 0.38396 0.1592 0.0
C479 C 0.19349 0.3879 0.13899 0.0
P480 P 0.47409 0.97792 0.246 0.0
H481 H 0.45502 0.97067 0.28454 0.0
H482 H 0.41395 0.94821 0.29473 0.0
H483 H 0.38499 0.92407 0.23277 0.0
H484 H 0.42622 0.9468 0.22268 0.0
H485 H 0.52539 0.99682 0.25654 0.0
H486 H 0.54821 0.97559 0.26465 0.0
H487 H 0.48135 0.90279 0.2585 0.0
H488 H 0.45875 0.92416 0.24993 0.0
H489 H 0.46177 0.00833 0.22131 0.0
H490 H 0.48817 0.9558 0.21279 0.0
O491 O 0.48783 0.00699 0.25856 0.0
H492 H 0.46573 0.01631 0.18607 0.0
H493 H 0.49217 0.96371 0.1778 0.0
C494 C 0.4436 0.96072 0.2529 0.0
C495 C 0.43981 0.96054 0.27316 0.0
C496 C 0.41634 0.94753 0.27896 0.0
C497 C 0.3962 0.93437 0.26454 0.0
C498 C 0.40012 0.93428 0.2442 0.0
C499 C 0.42368 0.94725 0.23842 0.0
C500 C 0.49037 0.96214 0.25314 0.0
C501 C 0.51565 0.97633 0.25714 0.0
C502 C 0.52865 0.96416 0.26179 0.0
C503 C 0.51658 0.93751 0.26237 0.0
C504 C 0.49121 0.92331 0.25806 0.0
C505 C 0.47823 0.93553 0.25339 0.0
C506 C 0.47501 0.98181 0.21974 0.0
C507 C 0.46827 0.99842 0.21184 0.0
C508 C 0.47045 0.00289 0.19173 0.0
C509 C 0.47954 0.99085 0.17928 0.0
C510 C 0.48553 0.97359 0.18715 0.0
C511 C 0.48318 0.96901 0.20718 0.0
P512 P 0.13671 0.56757 0.22112 0.0
H513 H 0.17421 0.62053 0.23362 0.0
H514 H 0.17411 0.65578 0.25308 0.0
H515 H 0.09901 0.6062 0.26208 0.0
H516 H 0.09873 0.57108 0.24174 0.0
H517 H 0.15941 0.53634 0.21895 0.0
H518 H 0.15627 0.50183 0.2376 0.0
H519 H 0.10517 0.50832 0.27327 0.0
H520 H 0.10843 0.54288 0.25465 0.0
H521 H 0.10225 0.58215 0.20411 0.0
H522 H 0.12065 0.52357 0.19191 0.0
O523 O 0.16298 0.57998 0.21096 0.0
H524 H 0.07293 0.56485 0.17452 0.0
H525 H 0.0918 0.50677 0.16185 0.0
C526 C 0.13652 0.59303 0.23632 0.0
C527 C 0.15766 0.6171 0.23971 0.0
C528 C 0.15763 0.63728 0.25081 0.0
C529 C 0.13657 0.63358 0.25903 0.0
C530 C 0.11551 0.60938 0.256 0.0
C531 C 0.11542 0.5893 0.24453 0.0
C532 C 0.13459 0.54269 0.23563 0.0
C533 C 0.14764 0.53051 0.23087 0.0
C534 C 0.14565 0.51058 0.2414 0.0
C535 C 0.13046 0.50237 0.2569 0.0
C536 C 0.11721 0.51444 0.26154 0.0
C537 C 0.11911 0.53429 0.25088 0.0
C538 C 0.11319 0.5537 0.20062 0.0
C539 C 0.09965 0.56523 0.19543 0.0
C540 C 0.08294 0.55542 0.17843 0.0
C541 C 0.08006 0.53441 0.16606 0.0
C542 C 0.09367 0.52293 0.17123 0.0
C543 C 0.11003 0.53245 0.18844 0.0
P544 P 0.46953 0.51166 0.24281 0.0
H545 H 0.4896 0.54149 0.28151 0.0
H546 H 0.51071 0.58741 0.29202 0.0
H547 H 0.50238 0.60198 0.23096 0.0
H548 H 0.48147 0.55609 0.22055 0.0
H549 H 0.43442 0.45807 0.24443 0.0
H550 H 0.3927 0.43573 0.25331 0.0
H551 H 0.39527 0.50808 0.26349 0.0
H552 H 0.43666 0.53014 0.25403 0.0
H553 H 0.50623 0.51029 0.22005 0.0
H554 H 0.43536 0.50127 0.20776 0.0
O555 O 0.48427 0.49975 0.25526 0.0
H556 H 0.509 0.50479 0.18424 0.0
H557 H 0.43774 0.49521 0.17188 0.0
C558 C 0.48448 0.54546 0.25023 0.0
C559 C 0.49236 0.5546 0.2704 0.0
C560 C 0.50421 0.58081 0.2764 0.0
C561 C 0.50829 0.59831 0.26229 0.0
C562 C 0.4998 0.58898 0.24212 0.0
C563 C 0.48784 0.56273 0.23616 0.0
C564 C 0.43873 0.49572 0.24896 0.0
C565 C 0.42595 0.46907 0.24856 0.0
C566 C 0.40216 0.45636 0.2537 0.0
C567 C 0.39075 0.47016 0.2593 0.0
C568 C 0.40347 0.49688 0.25913 0.0
C569 C 0.42725 0.50955 0.25391 0.0
C570 C 0.47042 0.50566 0.21651 0.0
C571 C 0.49109 0.50667 0.20963 0.0
C572 C 0.49259 0.50343 0.18916 0.0
C573 C 0.47348 0.49933 0.17523 0.0
C574 C 0.45278 0.49841 0.18224 0.0
C575 C 0.45131 0.50165 0.20274 0.0
Tb576 Tb 0.52177 0.02236 0.999 0.0
C577 C 0.51372 0.96691 0.00603 0.0
Tb578 Tb 0.47076 0.97833 0.00482 0.0
O579 O 0.52596 0.041 0.02915 0.0
O580 O 0.50401 0.00157 0.02253 0.0
O581 O 0.52845 0.99051 0.00146 0.0
C582 C 0.4295 0.94803 0.02013 0.0
O583 O 0.49064 0.95825 0.00898 0.0
C584 C 0.48317 0.9812 0.96832 0.0
C585 C 0.47933 0.0337 0.999 0.0
O586 O 0.45111 0.95713 0.02895 0.0
O587 O 0.43096 0.95592 0.00251 0.0
O588 O 0.46772 0.9598 0.97485 0.0
O589 O 0.48855 0.99934 0.9814 0.0
O590 O 0.4666 0.01226 0.00753 0.0
O591 O 0.50014 0.03958 0.99165 0.0
C592 C 0.56248 0.04936 0.98188 0.0
O593 O 0.55739 0.05672 0.99855 0.0
O594 O 0.54475 0.02688 0.97501 0.0
C595 C 0.51003 0.01984 0.03568 0.0
Tb596 Tb 0.97307 0.5033 0.99772 0.0
C597 C 0.02652 0.54302 0.01484 0.0
Tb598 Tb 0.00811 0.48333 0.00724 0.0
O599 O 0.97442 0.5147 0.02932 0.0
O600 O 0.97925 0.48413 0.02036 0.0
O601 O 0.00648 0.53988 0.00496 0.0
C602 C 0.03915 0.47121 0.02431 0.0
O603 O 0.02996 0.52373 0.01847 0.0
C604 C 0.00119 0.4894 0.96988 0.0
C605 C 0.9548 0.44338 0.99114 0.0
O606 O 0.02095 0.47057 0.03241 0.0
O607 O 0.03982 0.47858 0.00658 0.0
O608 O 0.00589 0.47204 0.9753 0.0
O609 O 0.00241 0.50329 0.98504 0.0
O610 O 0.97455 0.4471 0.00184 0.0
O611 O 0.95158 0.46254 0.9864 0.0
C612 C 0.94323 0.51598 0.97927 0.0
O613 O 0.94074 0.50705 0.99654 0.0
O614 O 0.96254 0.51782 0.97244 0.0
C615 C 0.98013 0.49826 0.03529 0.0
Tb616 Tb 0.46996 0.50102 0.00436 0.0
C617 C 0.47841 0.45701 0.98747 0.0
Tb618 Tb 0.52162 0.51494 0.99546 0.0
O619 O 0.45803 0.49406 0.97235 0.0
O620 O 0.49384 0.52047 0.98294 0.0
O621 O 0.4645 0.46268 0.99812 0.0
C622 C 0.56117 0.52243 0.97847 0.0
O623 O 0.50046 0.47463 0.98362 0.0
C624 C 0.51157 0.50606 0.03229 0.0
C625 C 0.51313 0.55922 0.01106 0.0
O626 O 0.53972 0.51316 0.96921 0.0
O627 O 0.56037 0.52754 0.99729 0.0
O628 O 0.53325 0.52109 0.02752 0.0
O629 O 0.49751 0.49503 0.01663 0.0
O630 O 0.52657 0.55307 0.00022 0.0
O631 O 0.49129 0.54179 0.0156 0.0
C632 C 0.43094 0.49214 0.02275 0.0
O633 O 0.4519 0.4982 0.03156 0.0
O634 O 0.43199 0.49133 0.00356 0.0
C635 C 0.47962 0.50917 0.96735 0.0
Tb636 Tb 0.18958 0.35418 0.33357 0.0
C637 C 0.17487 0.30197 0.34938 0.0
Tb638 Tb 0.13644 0.32067 0.34276 0.0
O639 O 0.20252 0.35855 0.36507 0.0
O640 O 0.16821 0.35302 0.35675 0.0
O641 O 0.18998 0.31952 0.33844 0.0
C642 C 0.09642 0.2911 0.3598 0.0
O643 O 0.15451 0.30075 0.35436 0.0
C644 C 0.14417 0.31993 0.30512 0.0
C645 C 0.15173 0.37368 0.32759 0.0
O646 O 0.10376 0.28393 0.34444 0.0
O647 O 0.11141 0.31516 0.3654 0.0
O648 O 0.12375 0.31611 0.31109 0.0
O649 O 0.1579 0.3215 0.3199 0.0
O650 O 0.13553 0.35513 0.33729 0.0
O651 O 0.1725 0.37537 0.32333 0.0
C652 C 0.22962 0.38086 0.31559 0.0
O653 O 0.22524 0.38817 0.33261 0.0
O654 O 0.21157 0.35852 0.30883 0.0
C655 C 0.18213 0.35443 0.37136 0.0
Tb656 Tb 0.64153 0.84136 0.32395 0.0
C657 C 0.69356 0.87945 0.34485 0.0
Tb658 Tb 0.6755 0.8204 0.33457 0.0
O659 O 0.6407 0.85123 0.35557 0.0
O660 O 0.64615 0.82128 0.34661 0.0
O661 O 0.67511 0.87739 0.33312 0.0
C662 C 0.70509 0.80726 0.3529 0.0
O663 O 0.69546 0.8594 0.349 0.0
C664 C 0.67121 0.82756 0.29703 0.0
C665 C 0.6231 0.78169 0.31538 0.0
O666 O 0.71109 0.82368 0.3398 0.0
O667 O 0.68237 0.798 0.35544 0.0
O668 O 0.67639 0.81072 0.3029 0.0
O669 O 0.67124 0.841 0.31203 0.0
O670 O 0.64197 0.78463 0.32694 0.0
O671 O 0.62066 0.80133 0.31065 0.0
C672 C 0.61257 0.85581 0.30637 0.0
O673 O 0.60764 0.84205 0.32128 0.0
O674 O 0.63382 0.86138 0.30128 0.0
C675 C 0.64606 0.8346 0.36166 0.0
Tb676 Tb 0.1403 0.83213 0.34458 0.0
C677 C 0.15724 0.79353 0.33129 0.0
Tb678 Tb 0.19358 0.85402 0.33643 0.0
O679 O 0.12849 0.81848 0.313 0.0
O680 O 0.16219 0.85105 0.32176 0.0
O681 O 0.1401 0.79624 0.33948 0.0
C682 C 0.23495 0.8681 0.32004 0.0
O683 O 0.17871 0.81313 0.32831 0.0
C684 C 0.18513 0.84872 0.37396 0.0
C685 C 0.17618 0.89201 0.34795 0.0
O686 O 0.21377 0.84947 0.31275 0.0
O687 O 0.23282 0.87874 0.33649 0.0
O688 O 0.20588 0.8652 0.36838 0.0
O689 O 0.17161 0.83441 0.3589 0.0
O690 O 0.19023 0.88785 0.33636 0.0
O691 O 0.15706 0.87294 0.35482 0.0
C692 C 0.09897 0.81861 0.36076 0.0
O693 O 0.10355 0.82622 0.34312 0.0
O694 O 0.11764 0.81862 0.36928 0.0
C695 C 0.14881 0.83555 0.30705 0.0
Tb696 Tb 0.85937 0.69208 0.66207 0.0
C697 C 0.84818 0.64127 0.67898 0.0
Tb698 Tb 0.80694 0.65592 0.6719 0.0
O699 O 0.87269 0.69849 0.69374 0.0
O700 O 0.83752 0.69009 0.68509 0.0
O701 O 0.86242 0.65909 0.66781 0.0
C702 C 0.768 0.62592 0.69007 0.0
O703 O 0.82731 0.63866 0.68405 0.0
C704 C 0.81387 0.65416 0.63416 0.0
C705 C 0.81838 0.70682 0.6544 0.0
O706 O 0.77614 0.61834 0.67552 0.0
O707 O 0.78154 0.6505 0.69416 0.0
O708 O 0.79302 0.64835 0.6404 0.0
O709 O 0.82866 0.65781 0.64888 0.0
O710 O 0.80342 0.68855 0.665 0.0
O711 O 0.83962 0.70976 0.65009 0.0
C712 C 0.89981 0.72107 0.64515 0.0
O713 O 0.8931 0.72833 0.6609 0.0
O714 O 0.88375 0.69755 0.63896 0.0
C715 C 0.85197 0.69329 0.69989 0.0
Tb716 Tb 0.32228 0.17814 0.67126 0.0
C717 C 0.37794 0.2197 0.68374 0.0
Tb718 Tb 0.35971 0.16026 0.67749 0.0
O719 O 0.30523 0.16008 0.69787 0.0
O720 O 0.34178 0.17385 0.69535 0.0
O721 O 0.35572 0.2153 0.67819 0.0
C722 C 0.39078 0.14786 0.69377 0.0
O723 O 0.38333 0.20126 0.68486 0.0
C724 C 0.34621 0.16136 0.64037 0.0
C725 C 0.30495 0.11954 0.6655 0.0
O726 O 0.39374 0.15984 0.67787 0.0
O727 O 0.37038 0.14295 0.70044 0.0
O728 O 0.35346 0.14589 0.64576 0.0
O729 O 0.34895 0.17648 0.65521 0.0
O730 O 0.32532 0.12449 0.6759 0.0
O731 O 0.30126 0.1379 0.65964 0.0
C732 C 0.29553 0.19672 0.65628 0.0
O733 O 0.30201 0.18259 0.6462 0.0
O734 O 0.30415 0.20046 0.6749 0.0
C735 C 0.32495 0.16165 0.70591 0.0
Tb736 Tb 0.80939 0.16418 0.67245 0.0
C737 C 0.82326 0.12591 0.65323 0.0
Tb738 Tb 0.8626 0.18402 0.66378 0.0
O739 O 0.79667 0.15822 0.64061 0.0
O740 O 0.83217 0.18484 0.65091 0.0
O741 O 0.80961 0.12858 0.66627 0.0
C742 C 0.90388 0.19582 0.64795 0.0
O743 O 0.84283 0.14585 0.64777 0.0
C744 C 0.853 0.17508 0.70073 0.0
C745 C 0.84854 0.22392 0.68012 0.0
O746 O 0.8926 0.17722 0.65884 0.0
O747 O 0.8921 0.20794 0.64619 0.0
O748 O 0.87412 0.19198 0.69595 0.0
O749 O 0.83947 0.16265 0.68509 0.0
O750 O 0.86444 0.22039 0.6706 0.0
O751 O 0.82688 0.20488 0.68349 0.0
C752 C 0.76903 0.14956 0.69054 0.0
O753 O 0.79093 0.16444 0.69889 0.0
O754 O 0.76988 0.14318 0.672 0.0
C755 C 0.81805 0.17345 0.63531 0.0
C756 C 0.30953 0.83907 0.05952 0.0
C757 C 0.30368 0.84845 0.07653 0.0
C758 C 0.32895 0.85549 0.04918 0.0
C759 C 0.34237 0.88194 0.05582 0.0
C760 C 0.3357 0.89164 0.07245 0.0
C761 C 0.31659 0.87467 0.0828 0.0
C762 C 0.33586 0.84436 0.0318 0.0
C763 C 0.34922 0.91979 0.07969 0.0
C764 C 0.40833 0.91947 0.04587 0.0
C765 C 0.40707 0.93117 0.02895 0.0
C766 C 0.38734 0.9032 0.05461 0.0
C767 C 0.36463 0.89906 0.04648 0.0
C768 C 0.3633 0.91115 0.02954 0.0
C769 C 0.3846 0.92689 0.02079 0.0
C770 C 0.38948 0.89031 0.07245 0.0
C771 C 0.33947 0.90767 0.02081 0.0
H772 H 0.29958 0.81871 0.05484 0.0
H773 H 0.31187 0.88182 0.09594 0.0
H774 H 0.33702 0.85461 0.01848 0.0
H775 H 0.35407 0.84685 0.03566 0.0
H776 H 0.32272 0.82367 0.0278 0.0
H777 H 0.34011 0.92456 0.09137 0.0
H778 H 0.36785 0.92562 0.08601 0.0
H779 H 0.35092 0.93124 0.06704 0.0
H780 H 0.42576 0.92279 0.05216 0.0
H781 H 0.38372 0.93614 0.00778 0.0
H782 H 0.37789 0.86925 0.06921 0.0
H783 H 0.38295 0.89618 0.08554 0.0
H784 H 0.40844 0.89504 0.07656 0.0
H785 H 0.32662 0.88719 0.01587 0.0
H786 H 0.34162 0.91887 0.00788 0.0
H787 H 0.33116 0.91369 0.03242 0.0
C788 C 0.14041 0.4461 0.07632 0.0
C789 C 0.13198 0.41979 0.07383 0.0
C790 C 0.12593 0.45588 0.06924 0.0
C791 C 0.10259 0.43893 0.05929 0.0
C792 C 0.09395 0.41235 0.05685 0.0
C793 C 0.10873 0.40311 0.06417 0.0
C794 C 0.13563 0.48431 0.07228 0.0
C795 C 0.06925 0.39368 0.04618 0.0
C796 C 0.05451 0.45795 0.05333 0.0
C797 C 0.05608 0.46415 0.03359 0.0
C798 C 0.07016 0.45061 0.06218 0.0
C799 C 0.08738 0.44892 0.05082 0.0
C800 C 0.08918 0.45547 0.03093 0.0
C801 C 0.07358 0.46317 0.02259 0.0
C802 C 0.0679 0.44416 0.08353 0.0
C803 C 0.10718 0.45372 0.01828 0.0
H804 H 0.15828 0.45903 0.08395 0.0
H805 H 0.10225 0.3828 0.06196 0.0
H806 H 0.13706 0.49198 0.05759 0.0
H807 H 0.12292 0.48823 0.08024 0.0
H808 H 0.15377 0.4948 0.08097 0.0
H809 H 0.06507 0.37356 0.04583 0.0
H810 H 0.05502 0.3954 0.05362 0.0
H811 H 0.06828 0.39822 0.03057 0.0
H812 H 0.04092 0.45866 0.06181 0.0
H813 H 0.07479 0.46797 0.0073 0.0
H814 H 0.06138 0.4235 0.0839 0.0
H815 H 0.05512 0.44863 0.09083 0.0
H816 H 0.08588 0.45488 0.0924 0.0
H817 H 0.12579 0.46534 0.02595 0.0
H818 H 0.10687 0.46037 0.00333 0.0
H819 H 0.10306 0.43363 0.01619 0.0
C820 C 0.56187 0.70901 0.03437 0.0
C821 C 0.57488 0.71811 0.05334 0.0
C822 C 0.55033 0.68297 0.02738 0.0
C823 C 0.552 0.66568 0.03962 0.0
C824 C 0.56467 0.67468 0.05896 0.0
C825 C 0.57591 0.70079 0.0656 0.0
C826 C 0.53678 0.67404 0.00675 0.0
C827 C 0.56699 0.65685 0.07239 0.0
C828 C 0.50845 0.59423 0.02809 0.0
C829 C 0.52263 0.58653 0.01785 0.0
C830 C 0.51764 0.61999 0.03507 0.0
C831 C 0.54161 0.63843 0.03183 0.0
C832 C 0.55594 0.63082 0.0214 0.0
C833 C 0.54627 0.605 0.01451 0.0
C834 C 0.5018 0.62746 0.04605 0.0
C835 C 0.58163 0.64991 0.01774 0.0
H836 H 0.56078 0.72231 0.02495 0.0
H837 H 0.58617 0.70779 0.08019 0.0
H838 H 0.54574 0.66648 0.99708 0.0
H839 H 0.51799 0.65821 0.00753 0.0
H840 H 0.53602 0.68964 -0.00042 0.0
H841 H 0.57645 0.66665 0.08735 0.0
H842 H 0.54879 0.64064 0.07437 0.0
H843 H 0.57725 0.64869 0.06536 0.0
H844 H 0.49017 0.58013 0.03075 0.0
H845 H 0.55743 0.59928 0.00668 0.0
H846 H 0.50014 0.64234 0.03853 0.0
H847 H 0.51027 0.63583 0.06149 0.0
H848 H 0.48333 0.61094 0.04683 0.0
H849 H 0.58185 0.66515 0.00934 0.0
H850 H 0.59029 0.64092 0.00919 0.0
H851 H 0.59277 0.65925 0.03222 0.0
C852 C 0.87648 0.30567 0.93161 0.0
C853 C 0.85709 0.28832 0.94151 0.0
C854 C 0.89093 0.33135 0.93945 0.0
C855 C 0.88581 0.33989 0.95758 0.0
C856 C 0.86575 0.32269 0.96729 0.0
C857 C 0.85166 0.29707 0.95916 0.0
C858 C 0.91225 0.34909 0.92871 0.0
C859 C 0.85962 0.33116 0.98657 0.0
C860 C 0.93914 0.39636 0.98846 0.0
C861 C 0.93611 0.41679 0.98357 0.0
C862 C 0.92263 0.37122 0.98038 0.0
C863 C 0.90252 0.36631 0.96709 0.0
C864 C 0.89897 0.3867 0.96244 0.0
C865 C 0.91584 0.41173 0.97072 0.0
C866 C 0.92706 0.34999 0.9857 0.0
C867 C 0.87767 0.38213 0.94839 0.0
H868 H 0.88091 0.29895 0.91808 0.0
H869 H 0.83647 0.2838 0.9667 0.0
H870 H 0.91153 0.36656 0.92608 0.0
H871 H 0.92939 0.35524 0.93815 0.0
H872 H 0.91282 0.33991 0.91412 0.0
H873 H 0.8424 0.31596 0.99143 0.0
H874 H 0.87443 0.33653 0.99857 0.0
H875 H 0.85807 0.34835 0.98485 0.0
H876 H 0.95467 0.39998 0.9984 0.0
H877 H 0.91333 0.42736 0.96682 0.0
H878 H 0.92984 0.34097 0.97204 0.0
H879 H 0.91099 0.33491 0.99199 0.0
H880 H 0.94317 0.35691 0.99673 0.0
H881 H 0.87902 0.37487 0.93327 0.0
H882 H 0.87673 0.39979 0.94719 0.0
H883 H 0.86047 0.36731 0.95352 0.0
C884 C 0.68144 0.54539 0.92944 0.0
C885 C 0.69419 0.57095 0.92517 0.0
C886 C 0.6589 0.53531 0.93726 0.0
C887 C 0.64871 0.55105 0.94064 0.0
C888 C 0.66103 0.57655 0.93571 0.0
C889 C 0.68367 0.58624 0.92822 0.0
C890 C 0.64632 0.50806 0.94242 0.0
C891 C 0.65063 0.59386 0.93891 0.0
C892 C 0.58204 0.52256 0.94826 0.0
C893 C 0.58321 0.52777 0.96896 0.0
C894 C 0.60315 0.52946 0.93879 0.0
C895 C 0.62589 0.54151 0.95043 0.0
C896 C 0.627 0.5458 0.97148 0.0
C897 C 0.60562 0.53898 0.98048 0.0
C898 C 0.60117 0.52474 0.91632 0.0
C899 C 0.65086 0.55824 0.98444 0.0
H900 H 0.68917 0.53328 0.92683 0.0
H901 H 0.69347 0.60611 0.92533 0.0
H902 H 0.64496 0.50784 0.95876 0.0
H903 H 0.62756 0.49729 0.93493 0.0
H904 H 0.65607 0.49796 0.93801 0.0
H905 H 0.66157 0.61254 0.93291 0.0
H906 H 0.6318 0.58452 0.93161 0.0
H907 H 0.64985 0.59748 0.95512 0.0
H908 H 0.56468 0.51361 0.9394 0.0
H909 H 0.60652 0.54285 0.99653 0.0
H910 H 0.61099 0.51476 0.91188 0.0
H911 H 0.60977 0.54331 0.90986 0.0
H912 H 0.58203 0.51318 0.90967 0.0
H913 H 0.66075 0.54794 0.9813 0.0
H914 H 0.64842 0.55859 0.00063 0.0
H915 H 0.66244 0.57819 0.98092 0.0
C916 C 0.41663 0.10601 0.95456 0.0
C917 C 0.42765 0.13134 0.9632 0.0
C918 C 0.42147 0.08836 0.96315 0.0
C919 C 0.43749 0.09627 0.98087 0.0
C920 C 0.44653 0.12105 0.99075 0.0
C921 C 0.44166 0.1384 0.98169 0.0
C922 C 0.4115 0.06215 0.95209 0.0
C923 C 0.46324 0.13007 0.00987 0.0
C924 C 0.44808 0.0466 0.0041 0.0
C925 C 0.46909 0.05045 0.99565 0.0
C926 C 0.43774 0.06171 -0.00014 0.0
C927 C 0.4485 0.08079 0.98667 0.0
C928 C 0.46987 0.08495 0.97836 0.0
C929 C 0.47994 0.06988 0.98305 0.0
C930 C 0.41516 0.05704 0.00921 0.0
C931 C 0.4819 0.10501 0.96412 0.0
H932 H 0.40587 0.10055 0.94022 0.0
H933 H 0.44995 0.15795 0.98849 0.0
H934 H 0.42615 0.06142 0.94452 0.0
H935 H 0.40498 0.04723 0.96258 0.0
H936 H 0.39637 0.05752 0.94059 0.0
H937 H 0.4647 0.14755 0.01763 0.0
H938 H 0.45685 0.11493 0.02019 0.0
H939 H 0.48163 0.13455 0.0064 0.0
H940 H 0.43962 0.03168 0.01391 0.0
H941 H 0.49612 0.07303 0.97637 0.0
H942 H 0.39978 0.04984 0.99743 0.0
H943 H 0.4178 0.0752 0.01665 0.0
H944 H 0.41015 0.04292 0.02036 0.0
H945 H 0.49843 0.10577 0.95896 0.0
H946 H 0.48706 0.12414 0.97146 0.0
H947 H 0.46902 0.10098 0.95082 0.0
C948 C 0.69393 0.10524 0.94728 0.0
C949 C 0.70003 0.12352 0.93361 0.0
C950 C 0.6711 0.09366 0.95457 0.0
C951 C 0.65396 0.10061 0.94812 0.0
C952 C 0.65993 0.119 0.93429 0.0
C953 C 0.68291 0.13023 0.92718 0.0
C954 C 0.66539 0.0741 0.96929 0.0
C955 C 0.64208 0.12685 0.92708 0.0
C956 C 0.58832 0.05317 0.95455 0.0
C957 C 0.58526 0.06347 0.97261 0.0
C958 C 0.61042 0.06543 0.94611 0.0
C959 C 0.62982 0.08856 0.95596 0.0
C960 C 0.62653 0.09944 0.97389 0.0
C961 C 0.60423 0.08671 0.98203 0.0
C962 C 0.61322 0.05328 0.92695 0.0
C963 C 0.64678 0.12413 0.98477 0.0
H964 H 0.7072 0.10028 0.95257 0.0
H965 H 0.68742 0.14416 0.91647 0.0
H966 H 0.66124 0.08064 0.98351 0.0
H967 H 0.64907 0.05572 0.96332 0.0
H968 H 0.68063 0.07059 0.9726 0.0
H969 H 0.64954 0.14143 0.91631 0.0
H970 H 0.62525 0.10992 0.91977 0.0
H971 H 0.63692 0.13474 0.93998 0.0
H972 H 0.57355 0.03526 0.94718 0.0
H973 H 0.60181 0.09471 0.99596 0.0
H974 H 0.62783 0.04868 0.92953 0.0
H975 H 0.61863 0.06687 0.91541 0.0
H976 H 0.59625 0.03545 0.92102 0.0
H977 H 0.66204 0.12147 0.99002 0.0
H978 H 0.64084 0.13081 0.99787 0.0
H979 H 0.65383 0.13931 0.97449 0.0
C980 C 0.87963 0.59025 0.94045 0.0
C981 C 0.85695 0.57485 0.92944 0.0
C982 C 0.89358 0.57984 0.94732 0.0
C983 C 0.88471 0.55336 0.943 0.0
C984 C 0.86215 0.5378 0.93143 0.0
C985 C 0.84851 0.54872 0.92481 0.0
C986 C 0.91758 0.5971 0.95958 0.0
C987 C 0.85217 0.5095 0.92647 0.0
C988 C 0.93101 0.53202 0.95023 0.0
C989 C 0.92731 0.52394 0.96941 0.0
C990 C 0.91673 0.54088 0.94111 0.0
C991 C 0.89855 0.54188 0.95155 0.0
C992 C 0.89443 0.53317 0.97075 0.0
C993 C 0.90883 0.52421 0.97942 0.0
C994 C 0.9215 0.54973 0.92054 0.0
C995 C 0.87529 0.53401 0.9824 0.0
H996 H 0.8865 0.61055 0.94375 0.0
H997 H 0.83093 0.53666 0.91643 0.0
H998 H 0.91695 0.59085 0.97477 0.0
H999 H 0.93229 0.59575 0.95267 0.0
H1000 H 0.92226 0.61742 0.96103 0.0
H1001 H 0.83519 0.50041 0.91619 0.0
H1002 H 0.86575 0.50614 0.91947 0.0
H1003 H 0.84834 0.49993 0.94041 0.0
H1004 H 0.94525 0.53168 0.94244 0.0
H1005 H 0.90595 0.51792 0.99425 0.0
H1006 H 0.92832 0.57056 0.92139 0.0
H1007 H 0.90442 0.54003 0.91041 0.0
H1008 H 0.93504 0.54593 0.91386 0.0
H1009 H 0.87981 0.55413 0.98569 0.0
H1010 H 0.87364 0.52546 0.99674 0.0
H1011 H 0.8574 0.52364 0.97338 0.0
C1012 C 0.42757 0.31381 0.93765 0.0
C1013 C 0.43964 0.30303 0.94747 0.0
C1014 C 0.43166 0.33808 0.94453 0.0
C1015 C 0.4481 0.35176 0.96168 0.0
C1016 C 0.45948 0.34045 0.97216 0.0
C1017 C 0.45516 0.31624 0.9649 0.0
C1018 C 0.41926 0.34955 0.93291 0.0
C1019 C 0.47702 0.35438 0.99058 0.0
C1020 C 0.48218 0.42419 0.96632 0.0
C1021 C 0.46983 0.43001 0.9804 0.0
C1022 C 0.47502 0.3988 0.95991 0.0
C1023 C 0.45499 0.37868 0.96773 0.0
C1024 C 0.44214 0.38437 0.98167 0.0
C1025 C 0.44968 0.41001 0.98781 0.0
C1026 C 0.48907 0.39353 0.94487 0.0
C1027 C 0.42073 0.36338 0.99035 0.0
H1028 H 0.41573 0.30375 0.92408 0.0
H1029 H 0.46428 0.3078 0.97266 0.0
H1030 H 0.41041 0.35672 0.94307 0.0
H1031 H 0.43294 0.36613 0.92585 0.0
H1032 H 0.40538 0.33558 0.92101 0.0
H1033 H 0.48282 0.34214 0.9979 0.0
H1034 H 0.49337 0.37146 0.98645 0.0
H1035 H 0.46866 0.36119 0.00156 0.0
H1036 H 0.49757 0.4395 0.9603 0.0
H1037 H 0.44004 0.41435 0.99868 0.0
H1038 H 0.47689 0.3825 0.93116 0.0
H1039 H 0.49613 0.38173 0.95104 0.0
H1040 H 0.50459 0.41135 0.94065 0.0
H1041 H 0.40689 0.3501 0.97818 0.0
H1042 H 0.41215 0.37097 0.00048 0.0
H1043 H 0.42665 0.35206 0.99887 0.0
C1044 C 0.1258 0.66144 0.08587 0.0
C1045 C 0.14066 0.68322 0.07655 0.0
C1046 C 0.10607 0.63997 0.075 0.0
C1047 C 0.10134 0.6402 0.05426 0.0
C1048 C 0.11594 0.66244 0.04487 0.0
C1049 C 0.13536 0.68383 0.05621 0.0
C1050 C 0.0906 0.61685 0.08564 0.0
C1051 C 0.11168 0.66323 0.02274 0.0
C1052 C 0.06989 0.57444 0.02551 0.0
C1053 C 0.04582 0.56895 0.02287 0.0
C1054 C 0.08829 0.59805 0.03491 0.0
C1055 C 0.08238 0.61642 0.04223 0.0
C1056 C 0.05819 0.61124 0.03917 0.0
C1057 C 0.04018 0.58757 0.02933 0.0
C1058 C 0.11392 0.60297 0.03763 0.0
C1059 C 0.05114 0.63017 0.04709 0.0
H1060 H 0.12976 0.66116 0.10168 0.0
H1061 H 0.14697 0.70068 0.04903 0.0
H1062 H 0.07137 0.61186 0.08341 0.0
H1063 H 0.09162 0.60018 0.07922 0.0
H1064 H 0.09623 0.62005 0.10194 0.0
H1065 H 0.12351 0.68253 0.01801 0.0
H1066 H 0.1153 0.6494 0.01429 0.0
H1067 H 0.09247 0.65743 0.01855 0.0
H1068 H 0.07431 0.5601 0.02042 0.0
H1069 H 0.02151 0.58321 0.02749 0.0
H1070 H 0.11946 0.60423 0.05375 0.0
H1071 H 0.12666 0.6215 0.03221 0.0
H1072 H 0.11583 0.58765 0.02956 0.0
H1073 H 0.0532 0.63206 0.06367 0.0
H1074 H 0.0321 0.62424 0.04193 0.0
H1075 H 0.06332 0.64934 0.04236 0.0
C1076 C 0.30706 0.41507 0.06897 0.0
C1077 C 0.29635 0.42924 0.07528 0.0
C1078 C 0.33001 0.42701 0.06189 0.0
C1079 C 0.34258 0.45379 0.06108 0.0
C1080 C 0.33227 0.46835 0.0681 0.0
C1081 C 0.30924 0.45589 0.07515 0.0
C1082 C 0.34046 0.41082 0.05469 0.0
C1083 C 0.34518 0.49695 0.06753 0.0
C1084 C 0.40948 0.48418 0.0536 0.0
C1085 C 0.40884 0.48474 0.03283 0.0
C1086 C 0.38815 0.475 0.06318 0.0
C1087 C 0.36572 0.46614 0.05164 0.0
C1088 C 0.36516 0.4675 0.03072 0.0
C1089 C 0.38676 0.4768 0.02156 0.0
C1090 C 0.38952 0.47391 0.08551 0.0
C1091 C 0.34162 0.45824 0.01789 0.0
H1092 H 0.29735 0.39452 0.06939 0.0
H1093 H 0.30099 0.4669 0.07991 0.0
H1094 H 0.34223 0.41177 0.03843 0.0
H1095 H 0.35889 0.41829 0.06233 0.0
H1096 H 0.329 0.39047 0.05737 0.0
H1097 H 0.33563 0.50572 0.07497 0.0
H1098 H 0.36394 0.50594 0.0749 0.0
H1099 H 0.34654 0.50143 0.05177 0.0
H1100 H 0.42658 0.49034 0.06231 0.0
H1101 H 0.38627 0.47725 0.00549 0.0
H1102 H 0.38083 0.45368 0.08876 0.0
H1103 H 0.37949 0.48233 0.09257 0.0
H1104 H 0.40853 0.48415 0.09256 0.0
H1105 H 0.3297 0.43737 0.01836 0.0
H1106 H 0.34448 0.46202 0.00206 0.0
H1107 H 0.33187 0.46768 0.02378 0.0
C1108 C 0.56671 0.89037 0.05913 0.0
C1109 C 0.5776 0.88061 0.04663 0.0
C1110 C 0.55545 0.90322 0.05145 0.0
C1111 C 0.55468 0.90589 0.03072 0.0
C1112 C 0.56494 0.89528 0.01794 0.0
C1113 C 0.57654 0.88299 0.0261 0.0
C1114 C 0.5451 0.91468 0.06562 0.0
C1115 C 0.56403 0.89728 0.99572 0.0
C1116 C 0.50938 0.92432 0.01089 0.0
C1117 C 0.52431 0.95074 0.01036 0.0
C1118 C 0.51913 0.90925 0.01679 0.0
C1119 C 0.5443 0.92101 0.02267 0.0
C1120 C 0.55952 0.94757 0.02173 0.0
C1121 C 0.54937 0.96206 0.01539 0.0
C1122 C 0.50244 0.88088 0.01717 0.0
C1123 C 0.58639 0.96089 0.02817 0.0
H1124 H 0.56772 0.88866 0.07503 0.0
H1125 H 0.5848 0.8752 0.01644 0.0
H1126 H 0.55477 0.93575 0.06539 0.0
H1127 H 0.5257 0.90735 0.06076 0.0
H1128 H 0.54665 0.91037 0.08123 0.0
H1129 H 0.57122 0.88635 0.98767 0.0
H1130 H 0.54509 0.89009 0.98941 0.0
H1131 H 0.57484 0.9176 0.99285 0.0
H1132 H 0.49002 0.91544 0.0069 0.0
H1133 H 0.56102 0.9825 0.01517 0.0
H1134 H 0.50165 0.87601 0.03281 0.0
H1135 H 0.50955 0.87009 0.00884 0.0
H1136 H 0.48372 0.87437 0.01058 0.0
H1137 H 0.58934 0.95896 0.04421 0.0
H1138 H 0.5958 0.98155 0.02603 0.0
H1139 H 0.59491 0.95181 0.01961 0.0
C1140 C 0.00262 0.19433 0.4285 0.0
C1141 C 0.97852 0.18453 0.42069 0.0
C1142 C 0.02185 0.21299 0.41923 0.0
C1143 C 0.01674 0.22238 0.40201 0.0
C1144 C 0.99236 0.2132 0.39452 0.0
C1145 C 0.97351 0.19409 0.40382 0.0
C1146 C 0.04761 0.22193 0.4274 0.0
C1147 C 0.98622 0.22317 0.37646 0.0
C1148 C 0.06793 0.2836 0.38586 0.0
C1149 C 0.07558 0.27391 0.37023 0.0
C1150 C 0.04849 0.26708 0.39619 0.0
C1151 C 0.03688 0.24034 0.39096 0.0
C1152 C 0.04472 0.23055 0.37525 0.0
C1153 C 0.06384 0.24749 0.36494 0.0
C1154 C 0.04039 0.27821 0.41268 0.0
C1155 C 0.03317 0.20214 0.36952 0.0
H1156 H 0.00641 0.18675 0.44149 0.0
H1157 H 0.95481 0.1866 0.39794 0.0
H1158 H 0.05675 0.21664 0.41609 0.0
H1159 H 0.05802 0.24304 0.43053 0.0
H1160 H 0.04847 0.21345 0.44135 0.0
H1161 H 0.96643 0.21574 0.37363 0.0
H1162 H 0.99582 0.24437 0.37848 0.0
H1163 H 0.99243 0.21753 0.36303 0.0
H1164 H 0.07712 0.30406 0.38998 0.0
H1165 H 0.06991 0.23999 0.35296 0.0
H1166 H 0.04272 0.27142 0.42708 0.0
H1167 H 0.02081 0.27159 0.40957 0.0
H1168 H 0.05074 0.29945 0.4144 0.0
H1169 H 0.03472 0.19267 0.38263 0.0
H1170 H 0.04169 0.19766 0.35716 0.0
H1171 H 0.01357 0.19372 0.3648 0.0
C1172 C 0.79347 0.76921 0.41212 0.0
C1173 C 0.79526 0.75117 0.39934 0.0
C1174 C 0.7796 0.78007 0.40588 0.0
C1175 C 0.76697 0.77244 0.38652 0.0
C1176 C 0.76876 0.75435 0.37354 0.0
C1177 C 0.78305 0.74416 0.38002 0.0
C1178 C 0.77834 0.79957 0.42003 0.0
C1179 C 0.75544 0.74559 0.35281 0.0
C1180 C 0.71187 0.7791 0.37443 0.0
C1181 C 0.72129 0.7997 0.36282 0.0
C1182 C 0.72674 0.77053 0.38283 0.0
C1183 C 0.75164 0.78309 0.3797 0.0
C1184 C 0.76142 0.80465 0.36872 0.0
C1185 C 0.74606 0.81261 0.36029 0.0
C1186 C 0.71558 0.74738 0.39433 0.0
C1187 C 0.78795 0.81881 0.36536 0.0
H1188 H 0.80258 0.77458 0.42714 0.0
H1189 H 0.78472 0.73071 0.36984 0.0
H1190 H 0.78408 0.81745 0.4129 0.0
H1191 H 0.75936 0.79229 0.42346 0.0
H1192 H 0.78996 0.80419 0.43429 0.0
H1193 H 0.75844 0.73106 0.34468 0.0
H1194 H 0.73568 0.73727 0.35374 0.0
H1195 H 0.76147 0.76214 0.34393 0.0
H1196 H 0.69271 0.7692 0.37647 0.0
H1197 H 0.75339 0.82873 0.35148 0.0
H1198 H 0.72601 0.75159 0.40914 0.0
H1199 H 0.71632 0.73142 0.38609 0.0
H1200 H 0.69637 0.74094 0.39662 0.0
H1201 H 0.79937 0.82396 0.37979 0.0
H1202 H 0.79312 0.83653 0.3581 0.0
H1203 H 0.79212 0.80628 0.35574 0.0
C1204 C 0.21347 0.03832 0.37913 0.0
C1205 C 0.23236 0.04797 0.39461 0.0
C1206 C 0.20218 0.01273 0.37089 0.0
C1207 C 0.21 0.99648 0.37831 0.0
C1208 C 0.22873 0.00599 0.3942 0.0
C1209 C 0.23966 0.03161 0.40216 0.0
C1210 C 0.18228 0.00324 0.35395 0.0
C1211 C 0.2375 0.9892 0.40258 0.0
C1212 C 0.1713 0.9242 0.36915 0.0
C1213 C 0.18283 0.91872 0.3541 0.0
C1214 C 0.17938 0.94953 0.37672 0.0
C1215 C 0.19941 0.96979 0.36901 0.0
C1216 C 0.21044 0.96443 0.35323 0.0
C1217 C 0.20203 0.93897 0.34599 0.0
C1218 C 0.16715 0.95453 0.39353 0.0
C1219 C 0.23178 0.98554 0.34455 0.0
H1220 H 0.2079 0.05095 0.37313 0.0
H1221 H 0.25397 0.03886 0.41435 0.0
H1222 H 0.18813 0.99769 0.34026 0.0
H1223 H 0.1658 0.98594 0.35763 0.0
H1224 H 0.17742 0.01791 0.35062 0.0
H1225 H 0.25169 0.99931 0.41537 0.0
H1226 H 0.22211 0.97198 0.40763 0.0
H1227 H 0.24505 0.98252 0.39075 0.0
H1228 H 0.15647 0.90869 0.37554 0.0
H1229 H 0.21098 0.93495 0.33427 0.0
H1230 H 0.16215 0.96898 0.38988 0.0
H1231 H 0.17991 0.96244 0.40733 0.0
H1232 H 0.15056 0.93691 0.39667 0.0
H1233 H 0.22742 0.00014 0.33998 0.0
H1234 H 0.23717 0.9783 0.3314 0.0
H1235 H 0.24755 0.99524 0.35609 0.0
C1236 C 0.518 0.6363 0.28614 0.0
C1237 C 0.52226 0.62622 0.26854 0.0
C1238 C 0.53257 0.66228 0.29316 0.0
C1239 C 0.55194 0.67851 0.28236 0.0
C1240 C 0.55571 0.66866 0.26416 0.0
C1241 C 0.5408 0.64264 0.25745 0.0
C1242 C 0.52787 0.67211 0.31256 0.0
C1243 C 0.57625 0.68533 0.25227 0.0
C1244 C 0.584 0.75072 0.2947 0.0
C1245 C 0.60436 0.75535 0.30721 0.0
C1246 C 0.56658 0.72576 0.2866 0.0
C1247 C 0.5697 0.70504 0.29108 0.0
C1248 C 0.59011 0.7096 0.30378 0.0
C1249 C 0.60713 0.73463 0.31169 0.0
C1250 C 0.54498 0.72157 0.27315 0.0
C1251 C 0.59413 0.68802 0.30888 0.0
H1252 H 0.50345 0.62375 0.2946 0.0
H1253 H 0.54432 0.63491 0.24393 0.0
H1254 H 0.54306 0.67733 0.32413 0.0
H1255 H 0.52697 0.68964 0.31066 0.0
H1256 H 0.51073 0.6577 0.3181 0.0
H1257 H 0.57536 0.67538 0.23757 0.0
H1258 H 0.57602 0.70308 0.24973 0.0
H1259 H 0.59383 0.69108 0.26084 0.0
H1260 H 0.58168 0.76657 0.29113 0.0
H1261 H 0.62276 0.7379 0.32132 0.0
H1262 H 0.52794 0.70785 0.27918 0.0
H1263 H 0.545 0.71303 0.2581 0.0
H1264 H 0.54488 0.73961 0.27153 0.0
H1265 H 0.57847 0.67371 0.31608 0.0
H1266 H 0.61088 0.69479 0.3191 0.0
H1267 H 0.59548 0.67812 0.29503 0.0
C1268 C 0.36596 0.90723 0.28736 0.0
C1269 C 0.37125 0.92146 0.27085 0.0
C1270 C 0.34308 0.89672 0.29455 0.0
C1271 C 0.32506 0.9006 0.28504 0.0
C1272 C 0.32996 0.91409 0.26791 0.0
C1273 C 0.35301 0.92436 0.261 0.0
C1274 C 0.33838 0.88203 0.31264 0.0
C1275 C 0.31114 0.91848 0.25732 0.0
C1276 C 0.2597 0.85982 0.29663 0.0
C1277 C 0.25785 0.87619 0.31107 0.0
C1278 C 0.28146 0.86742 0.28796 0.0
C1279 C 0.30172 0.89205 0.29387 0.0
C1280 C 0.2999 0.90859 0.30856 0.0
C1281 C 0.27799 0.90039 0.31705 0.0
C1282 C 0.28261 0.84916 0.2724 0.0
C1283 C 0.32109 0.93497 0.31529 0.0
H1284 H 0.37985 0.90451 0.2948 0.0
H1285 H 0.35703 0.93548 0.24832 0.0
H1286 H 0.33514 0.89231 0.3252 0.0
H1287 H 0.3218 0.86293 0.3093 0.0
H1288 H 0.35378 0.87942 0.31758 0.0
H1289 H 0.3173 0.92805 0.24353 0.0
H1290 H 0.29405 0.90002 0.25327 0.0
H1291 H 0.30693 0.93054 0.26747 0.0
H1292 H 0.24423 0.84089 0.29238 0.0
H1293 H 0.27654 0.91304 0.32827 0.0
H1294 H 0.29973 0.84885 0.27498 0.0
H1295 H 0.28218 0.8556 0.25741 0.0
H1296 H 0.26711 0.82938 0.27227 0.0
H1297 H 0.33665 0.93353 0.32172 0.0
H1298 H 0.31659 0.94558 0.32668 0.0
H1299 H 0.32707 0.94624 0.3023 0.0
C1300 C 0.12722 0.45973 0.25849 0.0
C1301 C 0.12901 0.48169 0.26841 0.0
C1302 C 0.1282 0.44115 0.26922 0.0
C1303 C 0.13114 0.44471 0.29037 0.0
C1304 C 0.13182 0.46624 0.30048 0.0
C1305 C 0.13071 0.48448 0.28936 0.0
C1306 C 0.12724 0.41833 0.25789 0.0
C1307 C 0.13507 0.47073 0.32301 0.0
C1308 C 0.12245 0.38802 0.31746 0.0
C1309 C 0.14633 0.39285 0.32011 0.0
C1310 C 0.11718 0.40507 0.30825 0.0
C1311 C 0.13626 0.42745 0.30173 0.0
C1312 C 0.16046 0.43285 0.3051 0.0
C1313 C 0.16517 0.41548 0.31419 0.0
C1314 C 0.09115 0.39868 0.30482 0.0
C1315 C 0.18137 0.45661 0.2985 0.0
H1316 H 0.12548 0.45729 0.24229 0.0
H1317 H 0.13224 0.5015 0.29709 0.0
H1318 H 0.14513 0.4196 0.26024 0.0
H1319 H 0.11369 0.40038 0.26358 0.0
H1320 H 0.12256 0.4171 0.24158 0.0
H1321 H 0.13246 0.48673 0.32857 0.0
H1322 H 0.1221 0.45321 0.32954 0.0
H1323 H 0.15362 0.47533 0.32851 0.0
H1324 H 0.10779 0.37049 0.3219 0.0
H1325 H 0.18371 0.41949 0.31635 0.0
H1326 H 0.08531 0.3947 0.28855 0.0
H1327 H 0.08936 0.41517 0.31042 0.0
H1328 H 0.07868 0.38174 0.31226 0.0
H1329 H 0.17948 0.4559 0.28197 0.0
H1330 H 0.19923 0.45871 0.3033 0.0
H1331 H 0.18119 0.47387 0.30469 0.0
C1332 C 0.34887 0.46374 0.26011 0.0
C1333 C 0.36601 0.45681 0.26597 0.0
C1334 C 0.32578 0.45184 0.267 0.0
C1335 C 0.31972 0.43257 0.28002 0.0
C1336 C 0.33679 0.42522 0.28574 0.0
C1337 C 0.35974 0.43748 0.27869 0.0
C1338 C 0.30798 0.4601 0.26056 0.0
C1339 C 0.33099 0.40472 0.29961 0.0
C1340 C 0.27129 0.41803 0.31532 0.0
C1341 C 0.25198 0.39508 0.30583 0.0
C1342 C 0.29324 0.4309 0.30674 0.0
C1343 C 0.29582 0.4205 0.28824 0.0
C1344 C 0.27602 0.39775 0.27828 0.0
C1345 C 0.2543 0.38527 0.28724 0.0
C1346 C 0.31392 0.45518 0.31775 0.0
C1347 C 0.27802 0.38617 0.25849 0.0
H1348 H 0.35351 0.47845 0.25008 0.0
H1349 H 0.373 0.43229 0.28353 0.0
H1350 H 0.29084 0.44338 0.25346 0.0
H1351 H 0.30343 0.46804 0.27383 0.0
H1352 H 0.31522 0.47479 0.24986 0.0
H1353 H 0.34599 0.40067 0.30208 0.0
H1354 H 0.32732 0.41072 0.31429 0.0
H1355 H 0.31436 0.38676 0.29339 0.0
H1356 H 0.26942 0.42566 0.32966 0.0
H1357 H 0.23927 0.36757 0.27985 0.0
H1358 H 0.32082 0.47074 0.30782 0.0
H1359 H 0.32914 0.45212 0.32228 0.0
H1360 H 0.3085 0.46156 0.33135 0.0
H1361 H 0.28463 0.40064 0.24763 0.0
H1362 H 0.26041 0.36951 0.25201 0.0
H1363 H 0.29144 0.3798 0.26052 0.0
C1364 C 0.52488 0.90137 0.25704 0.0
C1365 C 0.53045 0.92465 0.26756 0.0
C1366 C 0.53775 0.88899 0.26198 0.0
C1367 C 0.55664 0.90017 0.27779 0.0
C1368 C 0.56246 0.92375 0.28836 0.0
C1369 C 0.54928 0.93566 0.28313 0.0
C1370 C 0.53106 0.8639 0.25037 0.0
C1371 C 0.58242 0.93624 0.30536 0.0
C1372 C 0.57548 0.85944 0.3056 0.0
C1373 C 0.59733 0.8654 0.29779 0.0
C1374 C 0.56166 0.87003 0.29877 0.0
C1375 C 0.56994 0.88698 0.28377 0.0
C1376 C 0.59161 0.89238 0.27536 0.0
C1377 C 0.60508 0.8815 0.28249 0.0
C1378 C 0.5386 0.86372 0.30806 0.0
C1379 C 0.60098 0.91027 0.25929 0.0
H1380 H 0.51058 0.89292 0.24481 0.0
H1381 H 0.55347 0.95345 0.29151 0.0
H1382 H 0.54712 0.86537 0.24368 0.0
H1383 H 0.5252 0.84867 0.26058 0.0
H1384 H 0.51624 0.85799 0.23824 0.0
H1385 H 0.58511 0.95491 0.31171 0.0
H1386 H 0.57809 0.92348 0.31746 0.0
H1387 H 0.59975 0.93934 0.30015 0.0
H1388 H 0.56943 0.84692 0.3174 0.0
H1389 H 0.62195 0.88603 0.27639 0.0
H1390 H 0.52324 0.85665 0.29627 0.0
H1391 H 0.54063 0.88124 0.31619 0.0
H1392 H 0.53394 0.84904 0.31869 0.0
H1393 H 0.58662 0.90427 0.24677 0.0
H1394 H 0.61713 0.911 0.2533 0.0
H1395 H 0.60599 0.92985 0.26546 0.0
C1396 C 0.13089 0.65359 0.29027 0.0
C1397 C 0.13667 0.65521 0.27047 0.0
C1398 C 0.13265 0.67473 0.30168 0.0
C1399 C 0.13984 0.69772 0.29285 0.0
C1400 C 0.14482 0.69906 0.27259 0.0
C1401 C 0.14344 0.67785 0.26171 0.0
C1402 C 0.12764 0.67276 0.32332 0.0
C1403 C 0.152 0.72303 0.2625 0.0
C1404 C 0.12857 0.7491 0.31588 0.0
C1405 C 0.15199 0.7677 0.32403 0.0
C1406 C 0.12411 0.72581 0.30614 0.0
C1407 C 0.14347 0.7209 0.30495 0.0
C1408 C 0.16689 0.73912 0.31411 0.0
C1409 C 0.17093 0.76245 0.32331 0.0
C1410 C 0.09904 0.70712 0.29617 0.0
C1411 C 0.18791 0.73442 0.31349 0.0
H1412 H 0.12578 0.63605 0.29701 0.0
H1413 H 0.14769 0.67893 0.24632 0.0
H1414 H 0.14442 0.6864 0.33302 0.0
H1415 H 0.11378 0.67811 0.32626 0.0
H1416 H 0.12123 0.65321 0.32768 0.0
H1417 H 0.15368 0.72038 0.24632 0.0
H1418 H 0.13836 0.72904 0.2642 0.0
H1419 H 0.16962 0.73886 0.26974 0.0
H1420 H 0.11398 0.7533 0.31616 0.0
H1421 H 0.18905 0.77681 0.32967 0.0
H1422 H 0.09288 0.68765 0.30052 0.0
H1423 H 0.09949 0.70614 0.27971 0.0
H1424 H 0.08553 0.7127 0.3 0.0
H1425 H 0.18281 0.71545 0.31849 0.0
H1426 H 0.20427 0.7493 0.32305 0.0
H1427 H 0.19265 0.73426 0.29791 0.0
C1428 C 0.78796 0.00053 0.41857 0.0
C1429 C 0.80805 0.01773 0.40927 0.0
C1430 C 0.76767 0.97997 0.40737 0.0
C1431 C 0.76767 0.97633 0.38641 0.0
C1432 C 0.78738 0.99444 0.37683 0.0
C1433 C 0.80731 0.01505 0.38839 0.0
C1434 C 0.747 0.96126 0.41818 0.0
C1435 C 0.78817 0.9911 0.35454 0.0
C1436 C 0.7341 0.90736 0.36378 0.0
C1437 C 0.71269 0.90479 0.35452 0.0
C1438 C 0.75217 0.93062 0.37391 0.0
C1439 C 0.74876 0.95194 0.37499 0.0
C1440 C 0.72727 0.94961 0.36563 0.0
C1441 C 0.70949 0.92604 0.35538 0.0
C1442 C 0.77481 0.93222 0.38365 0.0
C1443 C 0.72285 0.97183 0.36686 0.0
H1444 H 0.78838 0.00279 0.4347 0.0
H1445 H 0.82288 0.02828 0.38119 0.0
H1446 H 0.72924 0.95551 0.40992 0.0
H1447 H 0.74823 0.94379 0.41918 0.0
H1448 H 0.74751 0.96929 0.4336 0.0
H1449 H 0.80329 0.00827 0.34913 0.0
H1450 H 0.79056 0.9745 0.35072 0.0
H1451 H 0.77085 0.98702 0.34643 0.0
H1452 H 0.73683 0.8911 0.3632 0.0
H1453 H 0.6929 0.92414 0.34844 0.0
H1454 H 0.77607 0.93648 0.40007 0.0
H1455 H 0.79115 0.94801 0.37822 0.0
H1456 H 0.7751 0.91418 0.38062 0.0
H1457 H 0.72222 0.97747 0.38271 0.0
H1458 H 0.70559 0.96719 0.35823 0.0
H1459 H 0.738 0.98862 0.36114 0.0
C1460 C 0.96826 0.74085 0.39738 0.0
C1461 C 0.95922 0.75609 0.40504 0.0
C1462 C 0.99161 0.75191 0.39108 0.0
C1463 C 0.00638 0.77886 0.39269 0.0
C1464 C 0.99756 0.79436 0.40084 0.0
C1465 C 0.97398 0.78277 0.40679 0.0
C1466 C 0.00024 0.73474 0.38223 0.0
C1467 C 0.01292 0.82315 0.40305 0.0
C1468 C 0.07368 0.80491 0.38934 0.0
C1469 C 0.07574 0.80995 0.36931 0.0
C1470 C 0.05134 0.79552 0.39738 0.0
C1471 C 0.03059 0.79073 0.38496 0.0
C1472 C 0.03274 0.7962 0.3648 0.0
C1473 C 0.05537 0.80594 0.35726 0.0
C1474 C 0.04985 0.79031 0.41903 0.0
C1475 C 0.011 0.79109 0.35103 0.0
H1476 H 0.95677 0.72022 0.39581 0.0
H1477 H 0.96709 0.79456 0.41289 0.0
H1478 H 0.0039 0.73844 0.36651 0.0
H1479 H 0.01749 0.73897 0.39056 0.0
H1480 H 0.98676 0.71415 0.3825 0.0
H1481 H 0.0039 0.83241 0.41069 0.0
H1482 H 0.03058 0.82936 0.41167 0.0
H1483 H 0.01684 0.83011 0.3881 0.0
H1484 H 0.08952 0.80817 0.39869 0.0
H1485 H 0.05698 0.80982 0.34175 0.0
H1486 H 0.03817 0.76951 0.41999 0.0
H1487 H 0.0414 0.80004 0.42684 0.0
H1488 H 0.06797 0.79682 0.427 0.0
H1489 H 0.99733 0.77038 0.3495 0.0
H1490 H 0.01588 0.79703 0.33591 0.0
H1491 H 0.00231 0.80141 0.35745 0.0
C1492 C 0.2322 0.23362 0.41025 0.0
C1493 C 0.22727 0.21034 0.40023 0.0
C1494 C 0.22181 0.24737 0.40273 0.0
C1495 C 0.206 0.23748 0.38484 0.0
C1496 C 0.2001 0.21344 0.37516 0.0
C1497 C 0.21088 0.20018 0.38294 0.0
C1498 C 0.22848 0.27293 0.41349 0.0
C1499 C 0.18309 0.20215 0.35618 0.0
C1500 C 0.16807 0.26752 0.37123 0.0
C1501 C 0.18194 0.28434 0.35762 0.0
C1502 C 0.1755 0.25191 0.3801 0.0
C1503 C 0.19735 0.25328 0.37532 0.0
C1504 C 0.21131 0.27005 0.36149 0.0
C1505 C 0.2034 0.2853 0.35278 0.0
C1506 C 0.16013 0.23423 0.39477 0.0
C1507 C 0.23485 0.27222 0.35615 0.0
H1508 H 0.24497 0.2416 0.42356 0.0
H1509 H 0.20673 0.18199 0.37533 0.0
H1510 H 0.23728 0.2882 0.40347 0.0
H1511 H 0.21187 0.27276 0.41763 0.0
H1512 H 0.24096 0.27786 0.42727 0.0
H1513 H 0.17875 0.18234 0.35147 0.0
H1514 H 0.16593 0.20201 0.35822 0.0
H1515 H 0.19147 0.21415 0.34394 0.0
H1516 H 0.15156 0.26677 0.37521 0.0
H1517 H 0.2143 0.29827 0.34235 0.0
H1518 H 0.17038 0.24008 0.40979 0.0
H1519 H 0.15578 0.21439 0.39024 0.0
H1520 H 0.14291 0.23431 0.39593 0.0
H1521 H 0.24775 0.27831 0.3698 0.0
H1522 H 0.24352 0.28614 0.34508 0.0
H1523 H 0.23161 0.25331 0.3499 0.0
C1524 C 0.64972 0.53064 0.74067 0.0
C1525 C 0.65616 0.52262 0.75788 0.0
C1526 C 0.6675 0.54879 0.72994 0.0
C1527 C 0.69232 0.55896 0.73643 0.0
C1528 C 0.69897 0.55142 0.75402 0.0
C1529 C 0.68081 0.53345 0.76458 0.0
C1530 C 0.65974 0.55657 0.71134 0.0
C1531 C 0.72528 0.56182 0.76139 0.0
C1532 C 0.73725 0.58243 0.6975 0.0
C1533 C 0.74798 0.60897 0.70135 0.0
C1534 C 0.71907 0.56595 0.70881 0.0
C1535 C 0.71132 0.57633 0.7242 0.0
C1536 C 0.72193 0.60317 0.72799 0.0
C1537 C 0.74023 0.61921 0.71652 0.0
C1538 C 0.70843 0.53745 0.70449 0.0
C1539 C 0.71405 0.61492 0.7442 0.0
H1540 H 0.63076 0.52222 0.73526 0.0
H1541 H 0.68596 0.52777 0.77808 0.0
H1542 H 0.66868 0.57771 0.71214 0.0
H1543 H 0.6655 0.55009 0.69804 0.0
H1544 H 0.63978 0.54835 0.70913 0.0
H1545 H 0.72741 0.55476 0.77574 0.0
H1546 H 0.73416 0.55618 0.75007 0.0
H1547 H 0.73508 0.58302 0.76346 0.0
H1548 H 0.74336 0.57452 0.68584 0.0
H1549 H 0.74855 0.63977 0.71948 0.0
H1550 H 0.68853 0.52795 0.70069 0.0
H1551 H 0.71154 0.52952 0.71801 0.0
H1552 H 0.71642 0.53248 0.69197 0.0
H1553 H 0.69427 0.60751 0.74156 0.0
H1554 H 0.72378 0.63612 0.74495 0.0
H1555 H 0.7174 0.60945 0.75892 0.0
C1556 C 0.48342 0.10832 0.74281 0.0
C1557 C 0.47598 0.08332 0.7348 0.0
C1558 C 0.47059 0.12048 0.73707 0.0
C1559 C 0.44984 0.1073 0.72302 0.0
C1560 C 0.44219 0.08204 0.71497 0.0
C1561 C 0.45533 0.07037 0.72096 0.0
C1562 C 0.4793 0.14745 0.74595 0.0
C1563 C 0.42008 0.06729 0.70002 0.0
C1564 C 0.40186 0.12665 0.71942 0.0
C1565 C 0.40708 0.13944 0.70216 0.0
C1566 C 0.41614 0.11682 0.72679 0.0
C1567 C 0.43604 0.11981 0.71659 0.0
C1568 C 0.44182 0.13345 0.69951 0.0
C1569 C 0.42726 0.14314 0.6925 0.0
C1570 C 0.40946 0.10253 0.74511 0.0
C1571 C 0.4629 0.13707 0.68825 0.0
H1572 H 0.49949 0.11852 0.75337 0.0
H1573 H 0.44924 0.0509 0.71497 0.0
H1574 H 0.48375 0.16029 0.7339 0.0
H1575 H 0.4647 0.14817 0.75359 0.0
H1576 H 0.49559 0.15494 0.75687 0.0
H1577 H 0.41656 0.04781 0.69516 0.0
H1578 H 0.40386 0.06552 0.70662 0.0
H1579 H 0.42241 0.07775 0.68663 0.0
H1580 H 0.38632 0.12389 0.72696 0.0
H1581 H 0.43133 0.15309 0.67918 0.0
H1582 H 0.42548 0.11035 0.75633 0.0
H1583 H 0.40351 0.08214 0.74096 0.0
H1584 H 0.39463 0.10358 0.75216 0.0
H1585 H 0.47975 0.14561 0.6986 0.0
H1586 H 0.46592 0.14952 0.67605 0.0
H1587 H 0.4595 0.11823 0.68166 0.0
C1588 C 0.88042 0.36746 0.71457 0.0
C1589 C 0.90329 0.38021 0.72567 0.0
C1590 C 0.86984 0.34175 0.70679 0.0
C1591 C 0.88214 0.32827 0.7106 0.0
C1592 C 0.90494 0.34081 0.72212 0.0
C1593 C 0.91537 0.36666 0.72925 0.0
C1594 C 0.8457 0.32912 0.69425 0.0
C1595 C 0.91849 0.32698 0.72673 0.0
C1596 C 0.84776 0.25564 0.70499 0.0
C1597 C 0.85537 0.25035 0.68713 0.0
C1598 C 0.85601 0.28096 0.71271 0.0
C1599 C 0.87169 0.30131 0.70199 0.0
C1600 C 0.87857 0.29593 0.6835 0.0
C1601 C 0.87059 0.27051 0.67644 0.0
C1602 C 0.84877 0.28597 0.7327 0.0
C1603 C 0.89479 0.31706 0.6714 0.0
H1604 H 0.87069 0.37751 0.71197 0.0
H1605 H 0.93325 0.37633 0.7374 0.0
H1606 H 0.84758 0.32234 0.67913 0.0
H1607 H 0.83224 0.31211 0.70102 0.0
H1608 H 0.83848 0.34225 0.69264 0.0
H1609 H 0.93524 0.33897 0.73702 0.0
H1610 H 0.90668 0.30927 0.7336 0.0
H1611 H 0.9236 0.32122 0.71269 0.0
H1612 H 0.83616 0.24002 0.71335 0.0
H1613 H 0.87631 0.26638 0.66251 0.0
H1614 H 0.84059 0.29824 0.73143 0.0
H1615 H 0.86513 0.29644 0.74361 0.0
H1616 H 0.83563 0.26803 0.73871 0.0
H1617 H 0.88743 0.32992 0.66907 0.0
H1618 H 0.89675 0.30955 0.65658 0.0
H1619 H 0.91307 0.32877 0.67965 0.0
C1620 C 0.20172 0.97181 0.6385 0.0
C1621 C 0.20534 0.96301 0.61998 0.0
C1622 C 0.21664 0.99737 0.64657 0.0
C1623 C 0.23568 0.01446 0.63591 0.0
C1624 C 0.2392 0.00577 0.61708 0.0
C1625 C 0.22396 0.98017 0.60933 0.0
C1626 C 0.21222 0.006 0.66661 0.0
C1627 C 0.25941 0.02338 0.6053 0.0
C1628 C 0.26479 0.08637 0.64766 0.0
C1629 C 0.2863 0.0925 0.6592 0.0
C1630 C 0.24783 0.06096 0.64038 0.0
C1631 C 0.25253 0.04123 0.64469 0.0
C1632 C 0.2739 0.0472 0.65672 0.0
C1633 C 0.29049 0.07274 0.66386 0.0
C1634 C 0.22518 0.05529 0.62768 0.0
C1635 C 0.27958 0.02669 0.6616 0.0
H1636 H 0.18717 0.95869 0.64668 0.0
H1637 H 0.22703 0.97339 0.59513 0.0
H1638 H 0.22829 0.01235 0.67752 0.0
H1639 H 0.20962 0.02262 0.66533 0.0
H1640 H 0.19607 0.9906 0.67263 0.0
H1641 H 0.25923 0.01385 0.59062 0.0
H1642 H 0.25792 0.04043 0.60269 0.0
H1643 H 0.27719 0.03028 0.61398 0.0
H1644 H 0.26134 0.10146 0.64398 0.0
H1645 H 0.30701 0.07721 0.67278 0.0
H1646 H 0.20886 0.04043 0.63386 0.0
H1647 H 0.22534 0.04763 0.61234 0.0
H1648 H 0.2235 0.07255 0.62671 0.0
H1649 H 0.2644 0.01154 0.66869 0.0
H1650 H 0.29649 0.03437 0.6718 0.0
H1651 H 0.28161 0.01755 0.64763 0.0
C1652 C 0.02264 0.2298 0.59193 0.0
C1653 C 0.04318 0.2454 0.60545 0.0
C1654 C 0.99915 0.21969 0.59795 0.0
C1655 C 0.99617 0.22542 0.61793 0.0
C1656 C 0.01683 0.24053 0.63177 0.0
C1657 C 0.04005 0.25023 0.62538 0.0
C1658 C 0.97753 0.20349 0.58281 0.0
C1659 C 0.01443 0.24703 0.65322 0.0
C1660 C 0.93883 0.22513 0.63013 0.0
C1661 C 0.92673 0.20253 0.63929 0.0
C1662 C 0.9612 0.23249 0.62267 0.0
C1663 C 0.97154 0.21671 0.62426 0.0
C1664 C 0.95896 0.19342 0.63292 0.0
C1665 C 0.93671 0.18666 0.64045 0.0
C1666 C 0.97409 0.25752 0.61364 0.0
C1667 C 0.96924 0.17593 0.63464 0.0
H1668 H 0.0249 0.22614 0.57647 0.0
H1669 H 0.05583 0.26185 0.63601 0.0
H1670 H 0.965 0.18516 0.58861 0.0
H1671 H 0.96731 0.21353 0.58017 0.0
H1672 H 0.9829 0.19927 0.56829 0.0
H1673 H 0.03229 0.25831 0.66225 0.0
H1674 H 0.00504 0.25823 0.65372 0.0
H1675 H 0.00321 0.22929 0.66027 0.0
H1676 H 0.93107 0.23737 0.62918 0.0
H1677 H 0.92722 0.16905 0.64738 0.0
H1678 H 0.97847 0.25438 0.59839 0.0
H1679 H 0.9915 0.27068 0.62278 0.0
H1680 H 0.9631 0.26701 0.61272 0.0
H1681 H 0.97385 0.17152 0.61983 0.0
H1682 H 0.95642 0.15769 0.64044 0.0
H1683 H 0.98627 0.18563 0.64482 0.0
C1684 C 0.79155 0.81317 0.61586 0.0
C1685 C 0.7864 0.80854 0.59501 0.0
C1686 C 0.79342 0.79537 0.62702 0.0
C1687 C 0.79013 0.77247 0.61705 0.0
C1688 C 0.78331 0.76693 0.5962 0.0
C1689 C 0.7815 0.78504 0.58543 0.0
C1690 C 0.80067 0.80194 0.64924 0.0
C1691 C 0.77952 0.74265 0.58504 0.0
C1692 C 0.82805 0.74549 0.63722 0.0
C1693 C 0.81109 0.72429 0.64615 0.0
C1694 C 0.82146 0.76148 0.62807 0.0
C1695 C 0.79725 0.7562 0.62778 0.0
C1696 C 0.78009 0.73519 0.63711 0.0
C1697 C 0.78723 0.71945 0.64624 0.0
C1698 C 0.84037 0.78376 0.61835 0.0
C1699 C 0.75412 0.72902 0.63703 0.0
H1700 H 0.79549 0.83134 0.62336 0.0
H1701 H 0.77705 0.78115 0.56937 0.0
H1702 H 0.78935 0.78532 0.65742 0.0
H1703 H 0.8198 0.80685 0.65243 0.0
H1704 H 0.79902 0.81844 0.65513 0.0
H1705 H 0.77135 0.73972 0.56943 0.0
H1706 H 0.79722 0.74349 0.58461 0.0
H1707 H 0.76764 0.72582 0.5928 0.0
H1708 H 0.84658 0.74955 0.63716 0.0
H1709 H 0.77398 0.70306 0.65303 0.0
H1710 H 0.84176 0.80183 0.62461 0.0
H1711 H 0.83494 0.78129 0.60207 0.0
H1712 H 0.85858 0.78569 0.62047 0.0
H1713 H 0.75346 0.74607 0.64304 0.0
H1714 H 0.74339 0.713 0.646 0.0
H1715 H 0.74538 0.72374 0.62146 0.0
C1716 C 0.03518 0.78184 0.62082 0.0
C1717 C 0.04245 0.79945 0.60654 0.0
C1718 C 0.0114 0.76981 0.62621 0.0
C1719 C 0.99444 0.77555 0.61714 0.0
C1720 C 0.00163 0.79333 0.60273 0.0
C1721 C 0.02558 0.80509 0.5976 0.0
C1722 C 0.00445 0.75101 0.6417 0.0
C1723 C 0.984 0.79985 0.59272 0.0
C1724 C 0.92848 0.72586 0.61999 0.0
C1725 C 0.92306 0.73619 0.63675 0.0
C1726 C 0.95139 0.73897 0.61291 0.0
C1727 C 0.96924 0.76291 0.62292 0.0
C1728 C 0.96349 0.77387 0.63938 0.0
C1729 C 0.9404 0.76035 0.6461 0.0
C1730 C 0.95677 0.72671 0.59525 0.0
C1731 C 0.98202 0.79939 0.65038 0.0
H1732 H 0.04823 0.7777 0.62801 0.0
H1733 H 0.03103 0.81848 0.58639 0.0
H1734 H 0.99819 0.75758 0.65461 0.0
H1735 H 0.98915 0.7321 0.63529 0.0
H1736 H 0.01976 0.74855 0.64723 0.0
H1737 H 0.99247 0.81411 0.58185 0.0
H1738 H 0.96829 0.78232 0.58476 0.0
H1739 H 0.97684 0.80759 0.60413 0.0
H1740 H 0.91501 0.7072 0.61271 0.0
H1741 H 0.93616 0.76838 0.65903 0.0
H1742 H 0.9704 0.72147 0.60022 0.0
H1743 H 0.96466 0.74038 0.58391 0.0
H1744 H 0.9403 0.7092 0.58806 0.0
H1745 H 0.99706 0.79785 0.65785 0.0
H1746 H 0.97412 0.80614 0.66188 0.0
H1747 H 0.98997 0.81401 0.63973 0.0
C1748 C 0.23103 0.26885 0.61112 0.0
C1749 C 0.20573 0.25303 0.60836 0.0
C1750 C 0.24594 0.25968 0.61834 0.0
C1751 C 0.23527 0.23413 0.6231 0.0
C1752 C 0.20974 0.21799 0.62018 0.0
C1753 C 0.19528 0.2276 0.61274 0.0
C1754 C 0.27309 0.27738 0.62099 0.0
C1755 C 0.19769 0.19071 0.62527 0.0
C1756 C 0.27442 0.20347 0.62714 0.0
C1757 C 0.28038 0.20651 0.64784 0.0
C1758 C 0.25983 0.21246 0.61884 0.0
C1759 C 0.25081 0.22451 0.63161 0.0
C1760 C 0.25676 0.22755 0.65255 0.0
C1761 C 0.27161 0.21863 0.66041 0.0
C1762 C 0.25414 0.2091 0.59643 0.0
C1763 C 0.24736 0.24013 0.66666 0.0
H1764 H 0.23919 0.28843 0.60749 0.0
H1765 H 0.17572 0.21539 0.61077 0.0
H1766 H 0.27992 0.28005 0.63696 0.0
H1767 H 0.28208 0.26882 0.61244 0.0
H1768 H 0.27856 0.29644 0.61596 0.0
H1769 H 0.17767 0.18052 0.6218 0.0
H1770 H 0.20489 0.18008 0.61685 0.0
H1771 H 0.20189 0.19039 0.64141 0.0
H1772 H 0.28126 0.19415 0.61739 0.0
H1773 H 0.27618 0.22092 0.67643 0.0
H1774 H 0.26045 0.228 0.59081 0.0
H1775 H 0.23424 0.19755 0.59248 0.0
H1776 H 0.26279 0.19957 0.5886 0.0
H1777 H 0.25371 0.25999 0.66316 0.0
H1778 H 0.25339 0.2407 0.68256 0.0
H1779 H 0.22725 0.22968 0.66468 0.0
C1780 C 0.78824 0.99657 0.58718 0.0
C1781 C 0.79502 0.98134 0.59744 0.0
C1782 C 0.79034 0.01884 0.59686 0.0
C1783 C 0.79947 0.02604 0.61727 0.0
C1784 C 0.80527 0.01013 0.62794 0.0
C1785 C 0.80295 0.98796 0.61789 0.0
C1786 C 0.78397 0.03533 0.58499 0.0
C1787 C 0.81515 0.01722 0.64969 0.0
C1788 C 0.83391 0.09702 0.63412 0.0
C1789 C 0.81697 0.10013 0.64449 0.0
C1790 C 0.82847 0.07297 0.62544 0.0
C1791 C 0.80536 0.05146 0.62686 0.0
C1792 C 0.78812 0.05439 0.63727 0.0
C1793 C 0.79419 0.07872 0.64609 0.0
C1794 C 0.84746 0.07066 0.6146 0.0
C1795 C 0.76324 0.03189 0.63893 0.0
H1796 H 0.7823 0.99172 0.57133 0.0
H1797 H 0.80786 0.97605 0.62597 0.0
H1798 H 0.77204 0.04036 0.59308 0.0
H1799 H 0.80073 0.05348 0.58312 0.0
H1800 H 0.77471 0.02574 0.56993 0.0
H1801 H 0.81669 0.00171 0.65628 0.0
H1802 H 0.83341 0.03463 0.65118 0.0
H1803 H 0.80338 0.02176 0.65848 0.0
H1804 H 0.8516 0.11342 0.63284 0.0
H1805 H 0.78097 0.08101 0.65398 0.0
H1806 H 0.84133 0.06549 0.59839 0.0
H1807 H 0.85005 0.05524 0.62006 0.0
H1808 H 0.86526 0.08872 0.61654 0.0
H1809 H 0.75367 0.02343 0.62378 0.0
H1810 H 0.75199 0.03732 0.64768 0.0
H1811 H 0.76485 0.01682 0.64616 0.0
C1812 C 0.48837 0.35948 0.72747 0.0
C1813 C 0.49364 0.35653 0.74729 0.0
C1814 C 0.46878 0.33933 0.71521 0.0
C1815 C 0.4541 0.31582 0.72303 0.0
C1816 C 0.45885 0.31312 0.74324 0.0
C1817 C 0.47858 0.33347 0.75508 0.0
C1818 C 0.46434 0.34287 0.69372 0.0
C1819 C 0.44351 0.28845 0.75222 0.0
C1820 C 0.39213 0.26433 0.69869 0.0
C1821 C 0.39751 0.24609 0.69062 0.0
C1822 C 0.41058 0.28787 0.70842 0.0
C1823 C 0.43491 0.29328 0.70989 0.0
C1824 C 0.44056 0.27565 0.70053 0.0
C1825 C 0.42179 0.25224 0.69111 0.0
C1826 C 0.40384 0.30618 0.71823 0.0
C1827 C 0.46628 0.2808 0.70151 0.0
H1828 H 0.50003 0.37726 0.72138 0.0
H1829 H 0.48233 0.33129 0.7705 0.0
H1830 H 0.46814 0.33036 0.6837 0.0
H1831 H 0.44505 0.33713 0.69008 0.0
H1832 H 0.47594 0.36296 0.69045 0.0
H1833 H 0.44865 0.29002 0.76848 0.0
H1834 H 0.42407 0.2827 0.74991 0.0
H1835 H 0.44549 0.27294 0.74463 0.0
H1836 H 0.3734 0.25967 0.69841 0.0
H1837 H 0.42611 0.23835 0.68468 0.0
H1838 H 0.41617 0.32595 0.7147 0.0
H1839 H 0.40584 0.30622 0.7347 0.0
H1840 H 0.38485 0.30084 0.71348 0.0
H1841 H 0.47865 0.30013 0.69715 0.0
H1842 H 0.46795 0.26651 0.69165 0.0
H1843 H 0.47249 0.28028 0.71709 0.0
C1844 C 0.6498 0.07608 0.74598 0.0
C1845 C 0.63445 0.08619 0.74332 0.0
C1846 C 0.67295 0.08792 0.73921 0.0
C1847 C 0.68108 0.11061 0.72978 0.0
C1848 C 0.66629 0.12174 0.7281 0.0
C1849 C 0.64309 0.10933 0.73477 0.0
C1850 C 0.68816 0.0754 0.74124 0.0
C1851 C 0.67446 0.1461 0.71835 0.0
C1852 C 0.74765 0.14867 0.72066 0.0
C1853 C 0.74671 0.14025 0.70062 0.0
C1854 C 0.72641 0.1394 0.73041 0.0
C1855 C 0.70386 0.12115 0.71984 0.0
C1856 C 0.70292 0.11263 0.69958 0.0
C1857 C 0.72436 0.12238 0.6902 0.0
C1858 C 0.7281 0.14903 0.75197 0.0
C1859 C 0.67927 0.093 0.68783 0.0
H1860 H 0.64351 0.05853 0.75297 0.0
H1861 H 0.63136 0.11722 0.73249 0.0
H1862 H 0.68981 0.0682 0.7262 0.0
H1863 H 0.70676 0.0895 0.74801 0.0
H1864 H 0.68019 0.05913 0.7505 0.0
H1865 H 0.66215 0.15386 0.7203 0.0
H1866 H 0.69307 0.16087 0.72464 0.0
H1867 H 0.67502 0.14237 0.70211 0.0
H1868 H 0.76499 0.16248 0.72871 0.0
H1869 H 0.72365 0.11578 0.67471 0.0
H1870 H 0.7218 0.13294 0.76137 0.0
H1871 H 0.71606 0.15716 0.75357 0.0
H1872 H 0.74689 0.16389 0.75783 0.0
H1873 H 0.67084 0.07517 0.69531 0.0
H1874 H 0.68171 0.08827 0.67225 0.0
H1875 H 0.66638 0.10018 0.68735 0.0
C1876 C 0.90158 0.56724 0.73784 0.0
C1877 C 0.90115 0.5476 0.7254 0.0
C1878 C 0.89187 0.58179 0.73068 0.0
C1879 C 0.88127 0.57635 0.71068 0.0
C1880 C 0.88013 0.55602 0.69825 0.0
C1881 C 0.89024 0.54198 0.70573 0.0
C1882 C 0.89367 0.60352 0.74431 0.0
C1883 C 0.86867 0.54943 0.67693 0.0
C1884 C 0.84063 0.60295 0.69623 0.0
C1885 C 0.85637 0.62429 0.68677 0.0
C1886 C 0.84841 0.58703 0.70399 0.0
C1887 C 0.87256 0.59278 0.70244 0.0
C1888 C 0.88855 0.61435 0.693 0.0
C1889 C 0.88022 0.62975 0.68519 0.0
C1890 C 0.83081 0.56407 0.71382 0.0
C1891 C 0.91454 0.62128 0.69128 0.0
H1892 H 0.91022 0.57175 0.75301 0.0
H1893 H 0.88966 0.5266 0.69618 0.0
H1894 H 0.90529 0.62193 0.73822 0.0
H1895 H 0.8755 0.60145 0.74505 0.0
H1896 H 0.90143 0.60449 0.75972 0.0
H1897 H 0.8679 0.53209 0.66964 0.0
H1898 H 0.84999 0.54624 0.67645 0.0
H1899 H 0.87919 0.56564 0.66809 0.0
H1900 H 0.82216 0.59858 0.69753 0.0
H1901 H 0.89259 0.64631 0.67806 0.0
H1902 H 0.83779 0.56563 0.72959 0.0
H1903 H 0.829 0.54641 0.70614 0.0
H1904 H 0.81254 0.56203 0.71355 0.0
H1905 H 0.92399 0.62431 0.70638 0.0
H1906 H 0.92472 0.63886 0.6837 0.0
H1907 H 0.91507 0.60535 0.68278 0.0
C1908 C 0.46555 0.99713 0.14568 0.0
C1909 C 0.48351 0.99678 0.15833 0.0
C1910 C 0.46898 0.0019 0.12563 0.0
C1911 C 0.49099 0.00667 0.11819 0.0
C1912 C 0.50938 0.00692 0.13105 0.0
C1913 C 0.50539 0.00189 0.15093 0.0
C1914 C 0.44887 0.0012 0.1123 0.0
C1915 C 0.53316 0.01206 0.12371 0.0
C1916 C 0.4934 0.99226 0.06313 0.0
C1917 C 0.50427 0.01667 0.05657 0.0
C1918 C 0.48813 0.98866 0.08297 0.0
C1919 C 0.49446 0.01012 0.09673 0.0
C1920 C 0.50538 0.03487 0.09019 0.0
C1921 C 0.51012 0.03785 0.0701 0.0
C1922 C 0.47633 0.96192 0.08928 0.0
C1923 C 0.51252 0.0582 0.10448 0.0
H1924 H 0.44856 0.99303 0.15134 0.0
H1925 H 0.51946 0.00204 0.16076 0.0
H1926 H 0.45581 0.01919 0.10509 0.0
H1927 H 0.44213 0.98531 0.10017 0.0
H1928 H 0.43338 0.99853 0.12062 0.0
H1929 H 0.54601 0.01275 0.13585 0.0
H1930 H 0.52983 0.99688 0.11181 0.0
H1931 H 0.54186 0.0305 0.11707 0.0
H1932 H 0.48955 0.97595 0.05286 0.0
H1933 H 0.51861 0.05675 0.06504 0.0
H1934 H 0.45987 0.95768 0.09674 0.0
H1935 H 0.489 0.96039 0.10025 0.0
H1936 H 0.47108 0.94717 0.07644 0.0
H1937 H 0.49666 0.05576 0.11208 0.0
H1938 H 0.5198 0.07592 0.09685 0.0
H1939 H 0.52655 0.0606 0.11624 0.0
C1940 C 0.03983 0.51969 0.14721 0.0
C1941 C 0.06396 0.52555 0.14719 0.0
C1942 C 0.02487 0.51292 0.12924 0.0
C1943 C 0.03451 0.51264 0.11086 0.0
C1944 C 0.05875 0.51802 0.11082 0.0
C1945 C 0.07315 0.52423 0.12903 0.0
C1946 C 0.99897 0.50677 0.12988 0.0
C1947 C 0.06987 0.51844 0.09154 0.0
C1948 C 0.99261 0.4805 0.06294 0.0
C1949 C 0.99296 0.50139 0.05496 0.0
C1950 C 0.00584 0.48375 0.0813 0.0
C1951 C 0.01983 0.50852 0.09169 0.0
C1952 C 0.02009 0.52964 0.08364 0.0
C1953 C 0.00643 0.52575 0.06545 0.0
C1954 C 0.00477 0.46074 0.08961 0.0
C1955 C 0.03519 0.55642 0.09401 0.0
H1956 H 0.03275 0.52056 0.16131 0.0
H1957 H 0.09191 0.52903 0.12905 0.0
H1958 H 0.99655 0.52167 0.12316 0.0
H1959 H 0.98644 0.48826 0.12092 0.0
H1960 H 0.99367 0.5057 0.14538 0.0
H1961 H 0.08761 0.51935 0.09406 0.0
H1962 H 0.05754 0.50127 0.08112 0.0
H1963 H 0.0727 0.53539 0.08411 0.0
H1964 H 0.98197 0.46164 0.05481 0.0
H1965 H 0.00685 0.54195 0.05915 0.0
H1966 H 0.99535 0.45708 0.10341 0.0
H1967 H 0.02332 0.46436 0.09379 0.0
H1968 H 0.99501 0.44329 0.07881 0.0
H1969 H 0.02987 0.55725 0.10931 0.0
H1970 H 0.0332 0.57066 0.08578 0.0
H1971 H 0.0546 0.56193 0.09552 0.0
C1972 C 0.46892 0.51018 0.14058 0.0
C1973 C 0.4757 0.49707 0.15347 0.0
C1974 C 0.47284 0.50996 0.1203 0.0
C1975 C 0.4839 0.49641 0.11279 0.0
C1976 C 0.48991 0.48232 0.12555 0.0
C1977 C 0.48572 0.48281 0.14574 0.0
C1978 C 0.46612 0.52518 0.10715 0.0
C1979 C 0.50158 0.46749 0.11804 0.0
C1980 C 0.48188 0.48309 0.05665 0.0
C1981 C 0.50454 0.50305 0.05281 0.0
C1982 C 0.47471 0.48078 0.0761 0.0
C1983 C 0.49088 0.49855 0.09204 0.0
C1984 C 0.51397 0.51847 0.08823 0.0
C1985 C 0.5205 0.52049 0.06862 0.0
C1986 C 0.4499 0.45939 0.07956 0.0
C1987 C 0.53173 0.53777 0.10484 0.0
H1988 H 0.46138 0.52144 0.14649 0.0
H1989 H 0.49059 0.47227 0.15557 0.0
H1990 H 0.48288 0.54242 0.10379 0.0
H1991 H 0.45647 0.51381 0.0927 0.0
H1992 H 0.45448 0.53141 0.11439 0.0
H1993 H 0.50367 0.45619 0.12953 0.0
H1994 H 0.4906 0.4543 0.10461 0.0
H1995 H 0.51977 0.48089 0.11354 0.0
H1996 H 0.46971 0.46933 0.04444 0.0
H1997 H 0.53806 0.5359 0.06564 0.0
H1998 H 0.44014 0.46703 0.0881 0.0
H1999 H 0.45181 0.44576 0.08864 0.0
H2000 H 0.43865 0.44878 0.06534 0.0
H2001 H 0.52357 0.5481 0.11224 0.0
H2002 H 0.549 0.552 0.09936 0.0
H2003 H 0.53588 0.52785 0.11636 0.0
C2004 C 0.99288 0.50917 0.85541 0.0
C2005 C 0.96986 0.50374 0.84748 0.0
C2006 C 0.99771 0.50812 0.87576 0.0
C2007 C 0.97897 0.50111 0.88848 0.0
C2008 C 0.95586 0.49622 0.88075 0.0
C2009 C 0.95161 0.4977 0.86034 0.0
C2010 C 0.0227 0.5138 0.88352 0.0
C2011 C 0.93545 0.4887 0.89391 0.0
C2012 C 0.98602 0.47154 0.93447 0.0
C2013 C 0.9949 0.49219 0.94925 0.0
C2014 C 0.98003 0.47398 0.91471 0.0
C2015 C 0.9834 0.49777 0.90965 0.0
C2016 C 0.99217 0.51862 0.92462 0.0
C2017 C 0.99781 0.51555 0.94429 0.0
C2018 C 0.97037 0.4512 0.89921 0.0
C2019 C 0.99612 0.5443 0.91979 0.0
H2020 H 0.00701 0.51346 0.84559 0.0
H2021 H 0.93388 0.49386 0.85441 0.0
H2022 H 0.02995 0.5285 0.8966 0.0
H2023 H 0.02164 0.49628 0.88862 0.0
H2024 H 0.03569 0.52068 0.87198 0.0
H2025 H 0.91897 0.48691 0.88584 0.0
H2026 H 0.93064 0.47011 0.89953 0.0
H2027 H 0.94125 0.50299 0.90713 0.0
H2028 H 0.98363 0.45343 0.9384 0.0
H2029 H 0.00493 0.53159 0.95575 0.0
H2030 H 0.98327 0.45538 0.88772 0.0
H2031 H 0.95291 0.44728 0.89147 0.0
H2032 H 0.96748 0.43369 0.90582 0.0
H2033 H 0.01022 0.55235 0.90923 0.0
H2034 H 0.00193 0.55817 0.93334 0.0
H2035 H 0.97923 0.54216 0.91231 0.0
C2036 C 0.5355 0.46824 0.8846 0.0
C2037 C 0.53765 0.47802 0.8661 0.0
C2038 C 0.52578 0.47575 0.89996 0.0
C2039 C 0.51729 0.49287 0.89645 0.0
C2040 C 0.51932 0.50268 0.87767 0.0
C2041 C 0.52991 0.49545 0.86279 0.0
C2042 C 0.52412 0.46453 0.91963 0.0
C2043 C 0.50993 0.52039 0.87317 0.0
C2044 C 0.47289 0.48638 0.93356 0.0
C2045 C 0.48747 0.5076 0.94746 0.0
C2046 C 0.48181 0.48247 0.91595 0.0
C2047 C 0.50598 0.49997 0.91241 0.0
C2048 C 0.52003 0.52257 0.92565 0.0
C2049 C 0.5104 0.52621 0.94293 0.0
C2050 C 0.46572 0.45893 0.90166 0.0
C2051 C 0.5454 0.54277 0.92215 0.0
H2052 H 0.54158 0.45477 0.8871 0.0
H2053 H 0.5315 0.50284 0.84837 0.0
H2054 H 0.52382 0.47675 0.93241 0.0
H2055 H 0.5072 0.44568 0.9186 0.0
H2056 H 0.53954 0.4613 0.92287 0.0
H2057 H 0.50953 0.52317 0.85704 0.0
H2058 H 0.49135 0.5128 0.8778 0.0
H2059 H 0.52177 0.53931 0.88178 0.0
H2060 H 0.45493 0.47219 0.93687 0.0
H2061 H 0.52135 0.54306 0.95343 0.0
H2062 H 0.47075 0.44417 0.90395 0.0
H2063 H 0.46808 0.46338 0.88592 0.0
H2064 H 0.44628 0.4507 0.90405 0.0
H2065 H 0.55455 0.53519 0.91276 0.0
H2066 H 0.55684 0.55198 0.93655 0.0
H2067 H 0.54442 0.55794 0.91451 0.0
C2068 C 0.52996 0.00355 0.85908 0.0
C2069 C 0.51242 0.00431 0.84615 0.0
C2070 C 0.52623 0.9991 0.87913 0.0
C2071 C 0.50444 0.99531 0.88638 0.0
C2072 C 0.48663 0.99593 0.87338 0.0
C2073 C 0.49085 0.00043 0.85344 0.0
C2074 C 0.54561 0.99856 0.89259 0.0
C2075 C 0.46328 0.99228 0.88063 0.0
C2076 C 0.48294 0.9634 0.9338 0.0
C2077 C 0.4897 0.98457 0.94764 0.0
C2078 C 0.48822 0.96661 0.91386 0.0
C2079 C 0.50047 0.99157 0.90773 0.0
C2080 C 0.50781 0.01301 0.92183 0.0
C2081 C 0.50223 0.00923 0.94158 0.0
C2082 C 0.48023 0.94332 0.89925 0.0
C2083 C 0.52104 0.03994 0.91594 0.0
H2084 H 0.54655 0.00624 0.85346 0.0
H2085 H 0.47739 0.0014 0.84362 0.0
H2086 H 0.55139 0.01289 0.90578 0.0
H2087 H 0.53818 0.97954 0.89824 0.0
H2088 H 0.56181 0.00253 0.88479 0.0
H2089 H 0.45103 0.99267 0.86848 0.0
H2090 H 0.45355 0.97376 0.88705 0.0
H2091 H 0.46734 0.00758 0.89268 0.0
H2092 H 0.47329 0.94433 0.93851 0.0
H2093 H 0.50734 0.02565 0.95223 0.0
H2094 H 0.49587 0.94508 0.89167 0.0
H2095 H 0.46662 0.94189 0.88751 0.0
H2096 H 0.47212 0.92538 0.90662 0.0
H2097 H 0.53756 0.04347 0.90888 0.0
H2098 H 0.52647 0.05455 0.92893 0.0
H2099 H 0.50926 0.0425 0.90474 0.0
C2100 C 0.1333 0.29067 0.47282 0.0
C2101 C 0.14865 0.30886 0.48859 0.0
C2102 C 0.13625 0.29624 0.45285 0.0
C2103 C 0.15466 0.3207 0.44874 0.0
C2104 C 0.16956 0.33936 0.46471 0.0
C2105 C 0.1665 0.33313 0.4844 0.0
C2106 C 0.12018 0.2758 0.43619 0.0
C2107 C 0.18913 0.36579 0.46099 0.0
C2108 C 0.18494 0.33299 0.40074 0.0
C2109 C 0.17415 0.34483 0.39068 0.0
C2110 C 0.17762 0.32357 0.4191 0.0
C2111 C 0.15952 0.3267 0.42784 0.0
C2112 C 0.1481 0.33806 0.41745 0.0
C2113 C 0.15548 0.34687 0.39886 0.0
C2114 C 0.1897 0.31081 0.42936 0.0
C2115 C 0.12881 0.34185 0.4263 0.0
H2116 H 0.11949 0.2719 0.47611 0.0
H2117 H 0.1781 0.34731 0.49663 0.0
H2118 H 0.11049 0.28271 0.42658 0.0
H2119 H 0.13143 0.27139 0.42657 0.0
H2120 H 0.10657 0.25787 0.44192 0.0
H2121 H 0.19805 0.37857 0.47508 0.0
H2122 H 0.20318 0.36448 0.4529 0.0
H2123 H 0.18135 0.37467 0.45141 0.0
H2124 H 0.19904 0.33093 0.39417 0.0
H2125 H 0.14713 0.35598 0.39097 0.0
H2126 H 0.1758 0.29172 0.43315 0.0
H2127 H 0.20011 0.32238 0.44356 0.0
H2128 H 0.20226 0.30841 0.41992 0.0
H2129 H 0.11437 0.32362 0.43094 0.0
H2130 H 0.12039 0.34909 0.41563 0.0
H2131 H 0.13694 0.35573 0.43988 0.0
C2132 C 0.74395 0.86619 0.45251 0.0
C2133 C 0.73458 0.8632 0.47114 0.0
C2134 C 0.72881 0.85995 0.43471 0.0
C2135 C 0.70371 0.85044 0.43559 0.0
C2136 C 0.69404 0.84676 0.45428 0.0
C2137 C 0.7096 0.85323 0.47184 0.0
C2138 C 0.73977 0.86418 0.415 0.0
C2139 C 0.66735 0.83663 0.45577 0.0
C2140 C 0.67015 0.86148 0.39287 0.0
C2141 C 0.65885 0.83773 0.38136 0.0
C2142 C 0.68476 0.86582 0.41059 0.0
C2143 C 0.68782 0.84577 0.41705 0.0
C2144 C 0.6759 0.82152 0.40573 0.0
C2145 C 0.66143 0.81777 0.388 0.0
C2146 C 0.69731 0.892 0.42217 0.0
C2147 C 0.67885 0.79974 0.4121 0.0
H2148 H 0.76318 0.87352 0.45185 0.0
H2149 H 0.70228 0.85115 0.48618 0.0
H2150 H 0.73026 0.84631 0.40467 0.0
H2151 H 0.73745 0.87887 0.40778 0.0
H2152 H 0.75941 0.87058 0.41682 0.0
H2153 H 0.66248 0.83339 0.47132 0.0
H2154 H 0.6623 0.8504 0.45038 0.0
H2155 H 0.65638 0.81836 0.44607 0.0
H2156 H 0.66826 0.877 0.38766 0.0
H2157 H 0.65229 0.7993 0.3792 0.0
H2158 H 0.71712 0.89952 0.42446 0.0
H2159 H 0.69068 0.89065 0.43717 0.0
H2160 H 0.69417 0.9059 0.41448 0.0
H2161 H 0.69808 0.80484 0.41197 0.0
H2162 H 0.6674 0.78175 0.40215 0.0
H2163 H 0.67405 0.79625 0.42763 0.0
C2164 C 0.14384 0.85133 0.48365 0.0
C2165 C 0.15493 0.84226 0.49678 0.0
C2166 C 0.14696 0.85113 0.46318 0.0
C2167 C 0.16162 0.84179 0.45571 0.0
C2168 C 0.17228 0.83194 0.46876 0.0
C2169 C 0.16875 0.83224 0.48911 0.0
C2170 C 0.13514 0.86159 0.44967 0.0
C2171 C 0.18795 0.82171 0.46132 0.0
C2172 C 0.15859 0.8249 0.39995 0.0
C2173 C 0.17882 0.84684 0.39471 0.0
C2174 C 0.15236 0.82316 0.41968 0.0
C2175 C 0.16706 0.84369 0.43452 0.0
C2176 C 0.18758 0.86586 0.42925 0.0
C2177 C 0.1932 0.86716 0.40938 0.0
C2178 C 0.13024 0.79931 0.42469 0.0
C2179 C 0.20372 0.88813 0.44464 0.0
H2180 H 0.1333 0.8593 0.48947 0.0
H2181 H 0.17696 0.82472 0.49908 0.0
H2182 H 0.14931 0.87895 0.44372 0.0
H2183 H 0.12435 0.84739 0.43666 0.0
H2184 H 0.12307 0.86664 0.45755 0.0
H2185 H 0.194 0.81366 0.47321 0.0
H2186 H 0.17788 0.8066 0.44871 0.0
H2187 H 0.20423 0.83727 0.45562 0.0
H2188 H 0.14781 0.80894 0.38867 0.0
H2189 H 0.20885 0.88414 0.40531 0.0
H2190 H 0.11791 0.80437 0.43208 0.0
H2191 H 0.13576 0.78953 0.43537 0.0
H2192 H 0.12001 0.7857 0.41122 0.0
H2193 H 0.19289 0.89532 0.45201 0.0
H2194 H 0.21869 0.90417 0.43801 0.0
H2195 H 0.21172 0.8818 0.45644 0.0
C2196 C 0.62907 0.83209 0.1838 0.0
C2197 C 0.64915 0.84154 0.17264 0.0
C2198 C 0.63179 0.83099 0.20448 0.0
C2199 C 0.65515 0.83963 0.2142 0.0
C2200 C 0.67559 0.85005 0.20314 0.0
C2201 C 0.67233 0.85082 0.18249 0.0
C2202 C 0.60957 0.81968 0.21577 0.0
C2203 C 0.70083 0.85969 0.213 0.0
C2204 C 0.6669 0.85275 0.27082 0.0
C2205 C 0.66641 0.83054 0.27602 0.0
C2206 C 0.66272 0.85581 0.25077 0.0
C2207 C 0.65815 0.83623 0.23564 0.0
C2208 C 0.65737 0.81363 0.2409 0.0
C2209 C 0.66157 0.8111 0.26105 0.0
C2210 C 0.66364 0.88014 0.24575 0.0
C2211 C 0.6524 0.79224 0.22523 0.0
H2212 H 0.61109 0.8247 0.17622 0.0
H2213 H 0.68793 0.85848 0.17397 0.0
H2214 H 0.60664 0.8016 0.22126 0.0
H2215 H 0.61219 0.83288 0.22905 0.0
H2216 H 0.59298 0.81559 0.20634 0.0
H2217 H 0.71494 0.86871 0.20255 0.0
H2218 H 0.70488 0.87386 0.22598 0.0
H2219 H 0.70202 0.84358 0.21874 0.0
H2220 H 0.67107 0.86797 0.28239 0.0
H2221 H 0.66109 0.79386 0.2651 0.0
H2222 H 0.64666 0.87563 0.23677 0.0
H2223 H 0.67881 0.89064 0.23654 0.0
H2224 H 0.66616 0.89291 0.25934 0.0
H2225 H 0.63501 0.78582 0.21609 0.0
H2226 H 0.65149 0.77553 0.23189 0.0
H2227 H 0.6669 0.79922 0.21498 0.0
C2228 C 0.20971 0.81219 0.21478 0.0
C2229 C 0.19866 0.81244 0.19635 0.0
C2230 C 0.20207 0.81717 0.23274 0.0
C2231 C 0.18337 0.8232 0.23223 0.0
C2232 C 0.17268 0.82431 0.21361 0.0
C2233 C 0.18025 0.81856 0.19584 0.0
C2234 C 0.2137 0.8155 0.25224 0.0
C2235 C 0.153 0.83113 0.2125 0.0
C2236 C 0.14597 0.80897 0.27639 0.0
C2237 C 0.15714 0.8329 0.28761 0.0
C2238 C 0.15439 0.80559 0.25834 0.0
C2239 C 0.17404 0.82683 0.25113 0.0
C2240 C 0.18513 0.85118 0.26229 0.0
C2241 C 0.17671 0.85385 0.28059 0.0
C2242 C 0.14265 0.77915 0.24726 0.0
C2243 C 0.20602 0.8743 0.25504 0.0
H2244 H 0.2238 0.8072 0.21513 0.0
H2245 H 0.17179 0.81882 0.18152 0.0
H2246 H 0.2233 0.83458 0.2609 0.0
H2247 H 0.19967 0.80219 0.26134 0.0
H2248 H 0.2269 0.80897 0.25001 0.0
H2249 H 0.14782 0.83297 0.19695 0.0
H2250 H 0.13665 0.81621 0.2186 0.0
H2251 H 0.15911 0.84943 0.2218 0.0
H2252 H 0.13105 0.79268 0.28201 0.0
H2253 H 0.18537 0.87232 0.28938 0.0
H2254 H 0.15641 0.77331 0.24563 0.0
H2255 H 0.13525 0.7792 0.232 0.0
H2256 H 0.12772 0.76463 0.25503 0.0
H2257 H 0.2223 0.87222 0.25567 0.0
H2258 H 0.21065 0.89229 0.26421 0.0
H2259 H 0.20162 0.87596 0.23924 0.0
C2260 C 0.19753 0.37468 0.20286 0.0
C2261 C 0.18439 0.35581 0.18683 0.0
C2262 C 0.19233 0.36967 0.22262 0.0
C2263 C 0.17342 0.34531 0.22635 0.0
C2264 C 0.16032 0.32614 0.21024 0.0
C2265 C 0.16598 0.33162 0.19069 0.0
C2266 C 0.20691 0.39044 0.23949 0.0
C2267 C 0.14001 0.29994 0.21361 0.0
C2268 C 0.16993 0.32265 0.27795 0.0
C2269 C 0.15177 0.32652 0.2851 0.0
C2270 C 0.17762 0.32925 0.259 0.0
C2271 C 0.16678 0.33991 0.247 0.0
C2272 C 0.14862 0.34416 0.25434 0.0
C2273 C 0.1412 0.33721 0.27328 0.0
C2274 C 0.19692 0.3243 0.25166 0.0
C2275 C 0.13689 0.35584 0.24212 0.0
H2276 H 0.21193 0.39332 0.19993 0.0
H2277 H 0.15553 0.31709 0.17834 0.0
H2278 H 0.19475 0.39505 0.24766 0.0
H2279 H 0.21559 0.38371 0.25036 0.0
H2280 H 0.22126 0.40821 0.23411 0.0
H2281 H 0.13211 0.28693 0.19953 0.0
H2282 H 0.14672 0.29112 0.22426 0.0
H2283 H 0.12538 0.30164 0.22038 0.0
H2284 H 0.17791 0.31414 0.2871 0.0
H2285 H 0.12731 0.34044 0.27896 0.0
H2286 H 0.21143 0.34163 0.24596 0.0
H2287 H 0.18883 0.30892 0.23906 0.0
H2288 H 0.20526 0.31842 0.26357 0.0
H2289 H 0.15096 0.37447 0.23772 0.0
H2290 H 0.12386 0.35894 0.25037 0.0
H2291 H 0.12711 0.34317 0.22816 0.0
C2292 C 0.82766 0.67439 0.81352 0.0
C2293 C 0.814 0.64863 0.81707 0.0
C2294 C 0.83276 0.68135 0.79417 0.0
C2295 C 0.82354 0.66214 0.77783 0.0
C2296 C 0.80888 0.63617 0.78111 0.0
C2297 C 0.80446 0.62969 0.80072 0.0
C2298 C 0.84848 0.70927 0.79128 0.0
C2299 C 0.79827 0.61521 0.76396 0.0
C2300 C 0.8239 0.68448 0.72639 0.0
C2301 C 0.84484 0.68576 0.71988 0.0
C2302 C 0.81629 0.6761 0.74501 0.0
C2303 C 0.83028 0.66933 0.75749 0.0
C2304 C 0.85156 0.67075 0.75097 0.0
C2305 C 0.85858 0.67896 0.73221 0.0
C2306 C 0.79337 0.67458 0.75136 0.0
C2307 C 0.867 0.66377 0.76387 0.0
H2308 H 0.83452 0.68924 0.82592 0.0
H2309 H 0.79401 0.60973 0.80325 0.0
H2310 H 0.86522 0.71241 0.78481 0.0
H2311 H 0.83879 0.71508 0.78057 0.0
H2312 H 0.85376 0.7219 0.8055 0.0
H2313 H 0.78627 0.5961 0.76891 0.0
H2314 H 0.78765 0.61912 0.75259 0.0
H2315 H 0.81308 0.61467 0.75653 0.0
H2316 H 0.81359 0.69025 0.71697 0.0
H2317 H 0.87473 0.67981 0.72711 0.0
H2318 H 0.79744 0.68694 0.76553 0.0
H2319 H 0.78027 0.65471 0.75423 0.0
H2320 H 0.78458 0.68053 0.73989 0.0
H2321 H 0.87396 0.67652 0.77809 0.0
H2322 H 0.88268 0.66534 0.75639 0.0
H2323 H 0.85592 0.6439 0.76773 0.0
C2324 C 0.36373 0.1468 0.81695 0.0
C2325 C 0.36341 0.16581 0.82973 0.0
C2326 C 0.35346 0.14115 0.79702 0.0
C2327 C 0.34329 0.15536 0.78952 0.0
C2328 C 0.34138 0.17325 0.80266 0.0
C2329 C 0.35104 0.17788 0.82266 0.0
C2330 C 0.35507 0.12125 0.78364 0.0
C2331 C 0.33106 0.18917 0.79523 0.0
C2332 C 0.3529 0.17201 0.73638 0.0
C2333 C 0.32929 0.15795 0.72681 0.0
C2334 C 0.35765 0.17096 0.75669 0.0
C2335 C 0.3384 0.15474 0.7676 0.0
C2336 C 0.31467 0.13942 0.75776 0.0
C2337 C 0.31029 0.14158 0.73747 0.0
C2338 C 0.38315 0.18804 0.76662 0.0
C2339 C 0.29394 0.12113 0.76871 0.0
H2340 H 0.3732 0.13728 0.82209 0.0
H2341 H 0.3499 0.19194 0.83254 0.0
H2342 H 0.33809 0.10958 0.77358 0.0
H2343 H 0.37011 0.13083 0.77413 0.0
H2344 H 0.35857 0.10834 0.79242 0.0
H2345 H 0.32883 0.20051 0.80765 0.0
H2346 H 0.3434 0.20256 0.78515 0.0
H2347 H 0.31322 0.17686 0.78647 0.0
H2348 H 0.36765 0.1847 0.72814 0.0
H2349 H 0.29207 0.13053 0.72997 0.0
H2350 H 0.39005 0.17635 0.77324 0.0
H2351 H 0.38315 0.20103 0.77897 0.0
H2352 H 0.39592 0.19984 0.75602 0.0
H2353 H 0.29931 0.10943 0.77731 0.0
H2354 H 0.27752 0.10815 0.75836 0.0
H2355 H 0.28918 0.13201 0.77958 0.0
C2356 C 0.82443 0.15224 0.81351 0.0
C2357 C 0.8136 0.16577 0.82104 0.0
C2358 C 0.82934 0.15234 0.79348 0.0
C2359 C 0.82318 0.16622 0.78062 0.0
C2360 C 0.81135 0.17907 0.78789 0.0
C2361 C 0.80676 0.17876 0.80805 0.0
C2362 C 0.84184 0.13826 0.78625 0.0
C2363 C 0.80439 0.19399 0.77461 0.0
C2364 C 0.86067 0.19059 0.73691 0.0
C2365 C 0.84543 0.1725 0.72112 0.0
C2366 C 0.85354 0.18883 0.75633 0.0
C2367 C 0.83053 0.16858 0.75996 0.0
C2368 C 0.81499 0.15034 0.744 0.0
C2369 C 0.82281 0.15231 0.7248 0.0
C2370 C 0.87066 0.2086 0.77298 0.0
C2371 C 0.79014 0.12878 0.74721 0.0
H2372 H 0.82934 0.14175 0.82338 0.0
H2373 H 0.79858 0.18943 0.81379 0.0
H2374 H 0.83119 0.12481 0.77285 0.0
H2375 H 0.8599 0.1521 0.78179 0.0
H2376 H 0.84434 0.12735 0.79786 0.0
H2377 H 0.79235 0.19979 0.78165 0.0
H2378 H 0.82101 0.21147 0.77138 0.0
H2379 H 0.79509 0.18256 0.7601 0.0
H2380 H 0.87818 0.20621 0.73407 0.0
H2381 H 0.81113 0.13813 0.7126 0.0
H2382 H 0.87509 0.19916 0.78474 0.0
H2383 H 0.86183 0.21842 0.78004 0.0
H2384 H 0.88784 0.22322 0.76763 0.0
H2385 H 0.79193 0.11602 0.75739 0.0
H2386 H 0.77967 0.11723 0.73298 0.0
H2387 H 0.77963 0.13648 0.75446 0.0
C2388 C 0.28573 0.15664 0.53133 0.0
C2389 C 0.30406 0.16656 0.5184 0.0
C2390 C 0.29124 0.15609 0.5517 0.0
C2391 C 0.31564 0.16568 0.55926 0.0
C2392 C 0.33426 0.17625 0.54639 0.0
C2393 C 0.32825 0.1765 0.52612 0.0
C2394 C 0.27094 0.14486 0.56504 0.0
C2395 C 0.36053 0.18674 0.55392 0.0
C2396 C 0.33576 0.18316 0.61481 0.0
C2397 C 0.33733 0.16199 0.61991 0.0
C2398 C 0.3279 0.18427 0.59524 0.0
C2399 C 0.32179 0.16383 0.58045 0.0
C2400 C 0.32296 0.1422 0.58565 0.0
C2401 C 0.33077 0.14157 0.60536 0.0
C2402 C 0.32676 0.20759 0.59031 0.0
C2403 C 0.31642 0.11995 0.57031 0.0
H2404 H 0.26704 0.14924 0.52551 0.0
H2405 H 0.34248 0.18385 0.51618 0.0
H2406 H 0.27006 0.1279 0.57116 0.0
H2407 H 0.27446 0.15895 0.57795 0.0
H2408 H 0.25302 0.13899 0.55699 0.0
H2409 H 0.37292 0.19532 0.54217 0.0
H2410 H 0.36595 0.20153 0.56674 0.0
H2411 H 0.36297 0.17122 0.55936 0.0
H2412 H 0.34113 0.1991 0.62604 0.0
H2413 H 0.33189 0.12514 0.60936 0.0
H2414 H 0.30873 0.20187 0.58263 0.0
H2415 H 0.34048 0.21807 0.57991 0.0
H2416 H 0.3302 0.22081 0.60385 0.0
H2417 H 0.29795 0.11263 0.5628 0.0
H2418 H 0.31703 0.10401 0.57703 0.0
H2419 H 0.32919 0.12639 0.55862 0.0
C2420 C 0.87177 0.12851 0.55063 0.0
C2421 C 0.87016 0.13622 0.53166 0.0
C2422 C 0.86392 0.1366 0.5671 0.0
C2423 C 0.85374 0.15235 0.56448 0.0
C2424 C 0.85227 0.16045 0.54549 0.0
C2425 C 0.86071 0.1525 0.52936 0.0
C2426 C 0.866 0.12778 0.58721 0.0
C2427 C 0.84133 0.1771 0.54215 0.0
C2428 C 0.81092 0.1482 0.60262 0.0
C2429 C 0.8259 0.17012 0.61579 0.0
C2430 C 0.81951 0.14268 0.58542 0.0
C2431 C 0.84371 0.15939 0.58148 0.0
C2432 C 0.85854 0.18213 0.59431 0.0
C2433 C 0.84925 0.18741 0.61117 0.0
C2434 C 0.80302 0.11841 0.57195 0.0
C2435 C 0.88458 0.20017 0.59085 0.0
H2436 H 0.87867 0.11564 0.55255 0.0
H2437 H 0.85983 0.15901 0.51489 0.0
H2438 H 0.87502 0.14431 0.59889 0.0
H2439 H 0.84762 0.11469 0.5915 0.0
H2440 H 0.87639 0.11761 0.58714 0.0
H2441 H 0.84194 0.18214 0.52654 0.0
H2442 H 0.82215 0.16702 0.54556 0.0
H2443 H 0.85109 0.195 0.55242 0.0
H2444 H 0.79279 0.13482 0.60615 0.0
H2445 H 0.86042 0.20475 0.62105 0.0
H2446 H 0.8097 0.10479 0.57311 0.0
H2447 H 0.8031 0.12251 0.55613 0.0
H2448 H 0.78404 0.10897 0.57593 0.0
H2449 H 0.89542 0.1908 0.59355 0.0
H2450 H 0.89279 0.21827 0.60091 0.0
H2451 H 0.88593 0.2048 0.57514 0.0
C2452 C 0.83158 0.66046 0.51847 0.0
C2453 C 0.84386 0.68557 0.51318 0.0
C2454 C 0.82785 0.65557 0.53841 0.0
C2455 C 0.83698 0.67628 0.55353 0.0
C2456 C 0.85011 0.70167 0.54846 0.0
C2457 C 0.85324 0.70603 0.52832 0.0
C2458 C 0.81363 0.62821 0.54323 0.0
C2459 C 0.86035 0.72423 0.56425 0.0
C2460 C 0.80476 0.66393 0.60065 0.0
C2461 C 0.81996 0.65971 0.61363 0.0
C2462 C 0.81028 0.66966 0.58112 0.0
C2463 C 0.83157 0.67127 0.57448 0.0
C2464 C 0.84706 0.66712 0.58759 0.0
C2465 C 0.84091 0.66112 0.60701 0.0
C2466 C 0.79321 0.67378 0.56756 0.0
C2467 C 0.87008 0.66903 0.58113 0.0
H2468 H 0.82476 0.64451 0.50697 0.0
H2469 H 0.86256 0.72549 0.52441 0.0
H2470 H 0.8245 0.62441 0.55442 0.0
H2471 H 0.79696 0.62491 0.54992 0.0
H2472 H 0.8083 0.61426 0.52979 0.0
H2473 H 0.87164 0.74267 0.55804 0.0
H2474 H 0.84534 0.72493 0.57119 0.0
H2475 H 0.87157 0.72214 0.57631 0.0
H2476 H 0.78857 0.6629 0.60581 0.0
H2477 H 0.8523 0.65722 0.61692 0.0
H2478 H 0.78626 0.65959 0.55415 0.0
H2479 H 0.80302 0.69304 0.56228 0.0
H2480 H 0.77752 0.67204 0.57511 0.0
H2481 H 0.86593 0.65566 0.56756 0.0
H2482 H 0.87983 0.66467 0.59298 0.0
H2483 H 0.88237 0.68862 0.57719 0.0
loop_
_geom_bond_atom_site_label_1
_geom_bond_atom_site_label_2
_geom_bond_distance
_geom_bond_site_symmetry_2
_ccdc_geom_bond_type
P0 O11 1.490 . S
P0 C14 1.812 . S
P0 C20 1.803 . S
P0 C26 1.819 . S
H1 C15 0.941 . S
H2 C16 0.939 . S
H3 C18 0.940 . S
H4 C19 0.940 . S
H5 C21 0.939 . S
H6 C22 0.942 . S
H7 C24 0.940 . S
H8 C25 0.939 . S
H9 C27 0.941 . S
H10 C31 0.939 . S
O11 P0 1.490 . S
H12 C28 0.939 . S
H13 C30 0.940 . S
C14 P0 1.812 . S
C14 C15 1.389 . S
C14 C19 1.391 . S
C15 H1 0.941 . S
C15 C14 1.389 . S
C15 C16 1.397 . S
C16 H2 0.939 . S
C16 C15 1.397 . S
C16 C17 1.378 . S
C17 C16 1.378 . S
C17 C18 1.378 . S
C18 H3 0.940 . S
C18 C17 1.378 . S
C18 C19 1.396 . S
C19 H4 0.940 . S
C19 C14 1.391 . S
C19 C18 1.396 . S
C20 P0 1.803 . S
C20 C21 1.378 . S
C20 C25 1.400 . S
C21 H5 0.939 . S
C21 C20 1.378 . S
C21 C22 1.361 . S
C22 H6 0.942 . S
C22 C21 1.361 . S
C22 C23 1.369 . S
C23 C22 1.369 . S
C23 C24 1.404 . S
C24 H7 0.940 . S
C24 C23 1.404 . S
C24 C25 1.389 . S
C25 H8 0.939 . S
C25 C20 1.400 . S
C25 C24 1.389 . S
C26 P0 1.819 . S
C26 C27 1.391 . S
C26 C31 1.391 . S
C27 H9 0.941 . S
C27 C26 1.391 . S
C27 C28 1.396 . S
C28 H12 0.939 . S
C28 C27 1.396 . S
C28 C29 1.397 . S
C29 C28 1.397 . S
C29 C30 1.385 . S
C30 H13 0.940 . S
C30 C29 1.385 . S
C30 C31 1.388 . S
C31 H10 0.939 . S
C31 C26 1.391 . S
C31 C30 1.388 . S
P32 O43 1.490 . S
P32 C46 1.812 . S
P32 C52 1.803 . S
P32 C58 1.819 . S
H33 C47 0.941 . S
H34 C48 0.939 . S
H35 C50 0.940 . S
H36 C51 0.940 . S
H37 C53 0.939 . S
H38 C54 0.942 . S
H39 C56 0.940 . S
H40 C57 0.939 . S
H41 C59 0.941 . S
H42 C63 0.939 . S
O43 P32 1.490 . S
H44 C60 0.939 . S
H45 C62 0.940 . S
C46 P32 1.812 . S
C46 C47 1.389 . S
C46 C51 1.391 . S
C47 H33 0.941 . S
C47 C46 1.389 . S
C47 C48 1.397 . S
C48 H34 0.939 . S
C48 C47 1.397 . S
C48 C49 1.378 . S
C49 C48 1.378 . S
C49 C50 1.378 . S
C50 H35 0.940 . S
C50 C49 1.378 . S
C50 C51 1.396 . S
C51 H36 0.940 . S
C51 C46 1.391 . S
C51 C50 1.396 . S
C52 P32 1.803 . S
C52 C53 1.378 . S
C52 C57 1.400 . S
C53 H37 0.939 . S
C53 C52 1.378 . S
C53 C54 1.361 . S
C54 H38 0.942 . S
C54 C53 1.361 . S
C54 C55 1.369 . S
C55 C54 1.369 . S
C55 C56 1.404 . S
C56 H39 0.940 . S
C56 C55 1.404 . S
C56 C57 1.389 . S
C57 H40 0.939 . S
C57 C52 1.400 . S
C57 C56 1.389 . S
C58 P32 1.819 . S
C58 C59 1.391 . S
C58 C63 1.391 . S
C59 H41 0.941 . S
C59 C58 1.391 . S
C59 C60 1.396 . S
C60 H44 0.939 . S
C60 C59 1.396 . S
C60 C61 1.397 . S
C61 C60 1.397 . S
C61 C62 1.385 . S
C62 H45 0.940 . S
C62 C61 1.385 . S
C62 C63 1.388 . S
C63 H42 0.939 . S
C63 C58 1.391 . S
C63 C62 1.388 . S
P64 O75 1.490 . S
P64 C78 1.812 . S
P64 C84 1.803 . S
P64 C90 1.819 . S
H65 C79 0.941 . S
H66 C80 0.939 . S
H67 C82 0.940 . S
H68 C83 0.940 . S
H69 C85 0.939 . S
H70 C86 0.942 . S
H71 C88 0.940 . S
H72 C89 0.939 . S
H73 C91 0.941 . S
H74 C95 0.939 . S
O75 P64 1.490 . S
H76 C92 0.939 . S
H77 C94 0.940 . S
C78 P64 1.812 . S
C78 C79 1.389 . S
C78 C83 1.391 . S
C79 H65 0.941 . S
C79 C78 1.389 . S
C79 C80 1.397 . S
C80 H66 0.939 . S
C80 C79 1.397 . S
C80 C81 1.378 . S
C81 C80 1.378 . S
C81 C82 1.378 . S
C82 H67 0.940 . S
C82 C81 1.378 . S
C82 C83 1.396 . S
C83 H68 0.940 . S
C83 C78 1.391 . S
C83 C82 1.396 . S
C84 P64 1.803 . S
C84 C85 1.378 . S
C84 C89 1.400 . S
C85 H69 0.939 . S
C85 C84 1.378 . S
C85 C86 1.361 . S
C86 H70 0.942 . S
C86 C85 1.361 . S
C86 C87 1.369 . S
C87 C86 1.369 . S
C87 C88 1.404 . S
C88 H71 0.940 . S
C88 C87 1.404 . S
C88 C89 1.389 . S
C89 H72 0.939 . S
C89 C84 1.400 . S
C89 C88 1.389 . S
C90 P64 1.819 . S
C90 C91 1.391 . S
C90 C95 1.391 . S
C91 H73 0.941 . S
C91 C90 1.391 . S
C91 C92 1.396 . S
C92 H76 0.939 . S
C92 C91 1.396 . S
C92 C93 1.397 . S
C93 C92 1.397 . S
C93 C94 1.385 . S
C94 H77 0.940 . S
C94 C93 1.385 . S
C94 C95 1.388 . S
C95 H74 0.939 . S
C95 C90 1.391 . S
C95 C94 1.388 . S
P96 O107 1.490 . S
P96 C110 1.812 . S
P96 C116 1.803 . S
P96 C122 1.819 . S
H97 C111 0.941 . S
H98 C112 0.939 . S
H99 C114 0.940 . S
H100 C115 0.940 . S
H101 C117 0.939 . S
H102 C118 0.942 . S
H103 C120 0.940 . S
H104 C121 0.939 . S
H105 C123 0.941 . S
H106 C127 0.939 . S
O107 P96 1.490 . S
H108 C124 0.939 . S
H109 C126 0.940 . S
C110 P96 1.812 . S
C110 C111 1.389 . S
C110 C115 1.391 . S
C111 H97 0.941 . S
C111 C110 1.389 . S
C111 C112 1.397 . S
C112 H98 0.939 . S
C112 C111 1.397 . S
C112 C113 1.378 . S
C113 C112 1.378 . S
C113 C114 1.378 . S
C114 H99 0.940 . S
C114 C113 1.378 . S
C114 C115 1.396 . S
C115 H100 0.940 . S
C115 C110 1.391 . S
C115 C114 1.396 . S
C116 P96 1.803 . S
C116 C117 1.378 . S
C116 C121 1.400 . S
C117 H101 0.939 . S
C117 C116 1.378 . S
C117 C118 1.361 . S
C118 H102 0.942 . S
C118 C117 1.361 . S
C118 C119 1.369 . S
C119 C118 1.369 . S
C119 C120 1.404 . S
C120 H103 0.940 . S
C120 C119 1.404 . S
C120 C121 1.389 . S
C121 H104 0.939 . S
C121 C116 1.400 . S
C121 C120 1.389 . S
C122 P96 1.819 . S
C122 C123 1.391 . S
C122 C127 1.391 . S
C123 H105 0.941 . S
C123 C122 1.391 . S
C123 C124 1.396 . S
C124 H108 0.939 . S
C124 C123 1.396 . S
C124 C125 1.397 . S
C125 C124 1.397 . S
C125 C126 1.385 . S
C126 H109 0.940 . S
C126 C125 1.385 . S
C126 C127 1.388 . S
C127 H106 0.939 . S
C127 C122 1.391 . S
C127 C126 1.388 . S
P128 O139 1.490 . S
P128 C142 1.812 . S
P128 C148 1.803 . S
P128 C154 1.819 . S
H129 C143 0.941 . S
H130 C144 0.939 . S
H131 C146 0.940 . S
H132 C147 0.940 . S
H133 C149 0.939 . S
H134 C150 0.942 . S
H135 C152 0.940 . S
H136 C153 0.939 . S
H137 C155 0.941 . S
H138 C159 0.939 . S
O139 P128 1.490 . S
H140 C156 0.939 . S
H141 C158 0.940 . S
C142 P128 1.812 . S
C142 C143 1.389 . S
C142 C147 1.391 . S
C143 H129 0.941 . S
C143 C142 1.389 . S
C143 C144 1.397 . S
C144 H130 0.939 . S
C144 C143 1.397 . S
C144 C145 1.378 . S
C145 C144 1.378 . S
C145 C146 1.378 . S
C146 H131 0.940 . S
C146 C145 1.378 . S
C146 C147 1.396 . S
C147 H132 0.940 . S
C147 C142 1.391 . S
C147 C146 1.396 . S
C148 P128 1.803 . S
C148 C149 1.378 . S
C148 C153 1.400 . S
C149 H133 0.939 . S
C149 C148 1.378 . S
C149 C150 1.361 . S
C150 H134 0.942 . S
C150 C149 1.361 . S
C150 C151 1.369 . S
C151 C150 1.369 . S
C151 C152 1.404 . S
C152 H135 0.940 . S
C152 C151 1.404 . S
C152 C153 1.389 . S
C153 H136 0.939 . S
C153 C148 1.400 . S
C153 C152 1.389 . S
C154 P128 1.819 . S
C154 C155 1.391 . S
C154 C159 1.391 . S
C155 H137 0.941 . S
C155 C154 1.391 . S
C155 C156 1.396 . S
C156 H140 0.939 . S
C156 C155 1.396 . S
C156 C157 1.397 . S
C157 C156 1.397 . S
C157 C158 1.385 . S
C158 H141 0.940 . S
C158 C157 1.385 . S
C158 C159 1.388 . S
C159 H138 0.939 . S
C159 C154 1.391 . S
C159 C158 1.388 . S
P160 O171 1.490 . S
P160 C174 1.812 . S
P160 C180 1.803 . S
P160 C186 1.819 . S
H161 C175 0.941 . S
H162 C176 0.939 . S
H163 C178 0.940 . S
H164 C179 0.940 . S
H165 C181 0.939 . S
H166 C182 0.942 . S
H167 C184 0.940 . S
H168 C185 0.939 . S
H169 C187 0.941 . S
H170 C191 0.939 . S
O171 P160 1.490 . S
H172 C188 0.939 . S
H173 C190 0.940 . S
C174 P160 1.812 . S
C174 C175 1.389 . S
C174 C179 1.391 . S
C175 H161 0.941 . S
C175 C174 1.389 . S
C175 C176 1.397 . S
C176 H162 0.939 . S
C176 C175 1.397 . S
C176 C177 1.378 . S
C177 C176 1.378 . S
C177 C178 1.378 . S
C178 H163 0.940 . S
C178 C177 1.378 . S
C178 C179 1.396 . S
C179 H164 0.940 . S
C179 C174 1.391 . S
C179 C178 1.396 . S
C180 P160 1.803 . S
C180 C181 1.378 . S
C180 C185 1.400 . S
C181 H165 0.939 . S
C181 C180 1.378 . S
C181 C182 1.361 . S
C182 H166 0.942 . S
C182 C181 1.361 . S
C182 C183 1.369 . S
C183 C182 1.369 . S
C183 C184 1.404 . S
C184 H167 0.940 . S
C184 C183 1.404 . S
C184 C185 1.389 . S
C185 H168 0.939 . S
C185 C180 1.400 . S
C185 C184 1.389 . S
C186 P160 1.819 . S
C186 C187 1.391 . S
C186 C191 1.391 . S
C187 H169 0.941 . S
C187 C186 1.391 . S
C187 C188 1.396 . S
C188 H172 0.939 . S
C188 C187 1.396 . S
C188 C189 1.397 . S
C189 C188 1.397 . S
C189 C190 1.385 . S
C190 H173 0.940 . S
C190 C189 1.385 . S
C190 C191 1.388 . S
C191 H170 0.939 . S
C191 C186 1.391 . S
C191 C190 1.388 . S
P192 O203 1.490 . S
P192 C206 1.812 . S
P192 C212 1.803 . S
P192 C218 1.819 . S
H193 C207 0.941 . S
H194 C208 0.939 . S
H195 C210 0.940 . S
H196 C211 0.940 . S
H197 C213 0.939 . S
H198 C214 0.942 . S
H199 C216 0.940 . S
H200 C217 0.939 . S
H201 C219 0.941 . S
H202 C223 0.939 . S
O203 P192 1.490 . S
H204 C220 0.939 . S
H205 C222 0.940 . S
C206 P192 1.812 . S
C206 C207 1.389 . S
C206 C211 1.391 . S
C207 H193 0.941 . S
C207 C206 1.389 . S
C207 C208 1.397 . S
C208 H194 0.939 . S
C208 C207 1.397 . S
C208 C209 1.378 . S
C209 C208 1.378 . S
C209 C210 1.378 . S
C210 H195 0.940 . S
C210 C209 1.378 . S
C210 C211 1.396 . S
C211 H196 0.940 . S
C211 C206 1.391 . S
C211 C210 1.396 . S
C212 P192 1.803 . S
C212 C213 1.378 . S
C212 C217 1.400 . S
C213 H197 0.939 . S
C213 C212 1.378 . S
C213 C214 1.361 . S
C214 H198 0.942 . S
C214 C213 1.361 . S
C214 C215 1.369 . S
C215 C214 1.369 . S
C215 C216 1.404 . S
C216 H199 0.940 . S
C216 C215 1.404 . S
C216 C217 1.389 . S
C217 H200 0.939 . S
C217 C212 1.400 . S
C217 C216 1.389 . S
C218 P192 1.819 . S
C218 C219 1.391 . S
C218 C223 1.391 . S
C219 H201 0.941 . S
C219 C218 1.391 . S
C219 C220 1.396 . S
C220 H204 0.939 . S
C220 C219 1.396 . S
C220 C221 1.397 . S
C221 C220 1.397 . S
C221 C222 1.385 . S
C222 H205 0.940 . S
C222 C221 1.385 . S
C222 C223 1.388 . S
C223 H202 0.939 . S
C223 C218 1.391 . S
C223 C222 1.388 . S
P224 O235 1.490 . S
P224 C238 1.812 . S
P224 C244 1.803 . S
P224 C250 1.819 . S
H225 C239 0.941 . S
H226 C240 0.939 . S
H227 C242 0.940 . S
H228 C243 0.940 . S
H229 C245 0.939 . S
H230 C246 0.942 . S
H231 C248 0.940 . S
H232 C249 0.939 . S
H233 C251 0.941 . S
H234 C255 0.939 . S
O235 P224 1.490 . S
H236 C252 0.939 . S
H237 C254 0.940 . S
C238 P224 1.812 . S
C238 C239 1.389 . S
C238 C243 1.391 . S
C239 H225 0.941 . S
C239 C238 1.389 . S
C239 C240 1.397 . S
C240 H226 0.939 . S
C240 C239 1.397 . S
C240 C241 1.378 . S
C241 C240 1.378 . S
C241 C242 1.378 . S
C242 H227 0.940 . S
C242 C241 1.378 . S
C242 C243 1.396 . S
C243 H228 0.940 . S
C243 C238 1.391 . S
C243 C242 1.396 . S
C244 P224 1.803 . S
C244 C245 1.378 . S
C244 C249 1.400 . S
C245 H229 0.939 . S
C245 C244 1.378 . S
C245 C246 1.361 . S
C246 H230 0.942 . S
C246 C245 1.361 . S
C246 C247 1.369 . S
C247 C246 1.369 . S
C247 C248 1.404 . S
C248 H231 0.940 . S
C248 C247 1.404 . S
C248 C249 1.389 . S
C249 H232 0.939 . S
C249 C244 1.400 . S
C249 C248 1.389 . S
C250 P224 1.819 . S
C250 C251 1.391 . S
C250 C255 1.391 . S
C251 H233 0.941 . S
C251 C250 1.391 . S
C251 C252 1.396 . S
C252 H236 0.939 . S
C252 C251 1.396 . S
C252 C253 1.397 . S
C253 C252 1.397 . S
C253 C254 1.385 . S
C254 H237 0.940 . S
C254 C253 1.385 . S
C254 C255 1.388 . S
C255 H234 0.939 . S
C255 C250 1.391 . S
C255 C254 1.388 . S
P256 O267 1.490 . S
P256 C270 1.812 . S
P256 C276 1.803 . S
P256 C282 1.819 . S
H257 C271 0.941 . S
H258 C272 0.939 . S
H259 C274 0.940 . S
H260 C275 0.940 . S
H261 C277 0.939 . S
H262 C278 0.942 . S
H263 C280 0.940 . S
H264 C281 0.939 . S
H265 C283 0.941 . S
H266 C287 0.939 . S
O267 P256 1.490 . S
H268 C284 0.939 . S
H269 C286 0.940 . S
C270 P256 1.812 . S
C270 C271 1.389 . S
C270 C275 1.391 . S
C271 H257 0.941 . S
C271 C270 1.389 . S
C271 C272 1.397 . S
C272 H258 0.939 . S
C272 C271 1.397 . S
C272 C273 1.378 . S
C273 C272 1.378 . S
C273 C274 1.378 . S
C274 H259 0.940 . S
C274 C273 1.378 . S
C274 C275 1.396 . S
C275 H260 0.940 . S
C275 C270 1.391 . S
C275 C274 1.396 . S
C276 P256 1.803 . S
C276 C277 1.378 . S
C276 C281 1.400 . S
C277 H261 0.939 . S
C277 C276 1.378 . S
C277 C278 1.361 . S
C278 H262 0.942 . S
C278 C277 1.361 . S
C278 C279 1.369 . S
C279 C278 1.369 . S
C279 C280 1.404 . S
C280 H263 0.940 . S
C280 C279 1.404 . S
C280 C281 1.389 . S
C281 H264 0.939 . S
C281 C276 1.400 . S
C281 C280 1.389 . S
C282 P256 1.819 . S
C282 C283 1.391 . S
C282 C287 1.391 . S
C283 H265 0.941 . S
C283 C282 1.391 . S
C283 C284 1.396 . S
C284 H268 0.939 . S
C284 C283 1.396 . S
C284 C285 1.397 . S
C285 C284 1.397 . S
C285 C286 1.385 . S
C286 H269 0.940 . S
C286 C285 1.385 . S
C286 C287 1.388 . S
C287 H266 0.939 . S
C287 C282 1.391 . S
C287 C286 1.388 . S
P288 O299 1.490 . S
P288 C302 1.812 . S
P288 C308 1.803 . S
P288 C314 1.819 . S
H289 C303 0.941 . S
H290 C304 0.939 . S
H291 C306 0.940 . S
H292 C307 0.940 . S
H293 C309 0.939 . S
H294 C310 0.942 . S
H295 C312 0.940 . S
H296 C313 0.939 . S
H297 C315 0.941 . S
H298 C319 0.939 . S
O299 P288 1.490 . S
H300 C316 0.939 . S
H301 C318 0.940 . S
C302 P288 1.812 . S
C302 C303 1.389 . S
C302 C307 1.391 . S
C303 H289 0.941 . S
C303 C302 1.389 . S
C303 C304 1.397 . S
C304 H290 0.939 . S
C304 C303 1.397 . S
C304 C305 1.378 . S
C305 C304 1.378 . S
C305 C306 1.378 . S
C306 H291 0.940 . S
C306 C305 1.378 . S
C306 C307 1.396 . S
C307 H292 0.940 . S
C307 C302 1.391 . S
C307 C306 1.396 . S
C308 P288 1.803 . S
C308 C309 1.378 . S
C308 C313 1.400 . S
C309 H293 0.939 . S
C309 C308 1.378 . S
C309 C310 1.361 . S
C310 H294 0.942 . S
C310 C309 1.361 . S
C310 C311 1.369 . S
C311 C310 1.369 . S
C311 C312 1.404 . S
C312 H295 0.940 . S
C312 C311 1.404 . S
C312 C313 1.389 . S
C313 H296 0.939 . S
C313 C308 1.400 . S
C313 C312 1.389 . S
C314 P288 1.819 . S
C314 C315 1.391 . S
C314 C319 1.391 . S
C315 H297 0.941 . S
C315 C314 1.391 . S
C315 C316 1.396 . S
C316 H300 0.939 . S
C316 C315 1.396 . S
C316 C317 1.397 . S
C317 C316 1.397 . S
C317 C318 1.385 . S
C318 H301 0.940 . S
C318 C317 1.385 . S
C318 C319 1.388 . S
C319 H298 0.939 . S
C319 C314 1.391 . S
C319 C318 1.388 . S
P320 O331 1.490 . S
P320 C334 1.812 . S
P320 C340 1.803 . S
P320 C346 1.819 . S
H321 C335 0.941 . S
H322 C336 0.939 . S
H323 C338 0.940 . S
H324 C339 0.940 . S
H325 C341 0.939 . S
H326 C342 0.942 . S
H327 C344 0.940 . S
H328 C345 0.939 . S
H329 C347 0.941 . S
H330 C351 0.939 . S
O331 P320 1.490 . S
H332 C348 0.939 . S
H333 C350 0.940 . S
C334 P320 1.812 . S
C334 C335 1.389 . S
C334 C339 1.391 . S
C335 H321 0.941 . S
C335 C334 1.389 . S
C335 C336 1.397 . S
C336 H322 0.939 . S
C336 C335 1.397 . S
C336 C337 1.378 . S
C337 C336 1.378 . S
C337 C338 1.378 . S
C338 H323 0.940 . S
C338 C337 1.378 . S
C338 C339 1.396 . S
C339 H324 0.940 . S
C339 C334 1.391 . S
C339 C338 1.396 . S
C340 P320 1.803 . S
C340 C341 1.378 . S
C340 C345 1.400 . S
C341 H325 0.939 . S
C341 C340 1.378 . S
C341 C342 1.361 . S
C342 H326 0.942 . S
C342 C341 1.361 . S
C342 C343 1.369 . S
C343 C342 1.369 . S
C343 C344 1.404 . S
C344 H327 0.940 . S
C344 C343 1.404 . S
C344 C345 1.389 . S
C345 H328 0.939 . S
C345 C340 1.400 . S
C345 C344 1.389 . S
C346 P320 1.819 . S
C346 C347 1.391 . S
C346 C351 1.391 . S
C347 H329 0.941 . S
C347 C346 1.391 . S
C347 C348 1.396 . S
C348 H332 0.939 . S
C348 C347 1.396 . S
C348 C349 1.397 . S
C349 C348 1.397 . S
C349 C350 1.385 . S
C350 H333 0.940 . S
C350 C349 1.385 . S
C350 C351 1.388 . S
C351 H330 0.939 . S
C351 C346 1.391 . S
C351 C350 1.388 . S
P352 O363 1.490 . S
P352 C366 1.812 . S
P352 C372 1.803 . S
P352 C378 1.819 . S
H353 C367 0.941 . S
H354 C368 0.939 . S
H355 C370 0.940 . S
H356 C371 0.940 . S
H357 C373 0.939 . S
H358 C374 0.942 . S
H359 C376 0.940 . S
H360 C377 0.939 . S
H361 C379 0.941 . S
H362 C383 0.939 . S
O363 P352 1.490 . S
H364 C380 0.939 . S
H365 C382 0.940 . S
C366 P352 1.812 . S
C366 C367 1.389 . S
C366 C371 1.391 . S
C367 H353 0.941 . S
C367 C366 1.389 . S
C367 C368 1.397 . S
C368 H354 0.939 . S
C368 C367 1.397 . S
C368 C369 1.378 . S
C369 C368 1.378 . S
C369 C370 1.378 . S
C370 H355 0.940 . S
C370 C369 1.378 . S
C370 C371 1.396 . S
C371 H356 0.940 . S
C371 C366 1.391 . S
C371 C370 1.396 . S
C372 P352 1.803 . S
C372 C373 1.378 . S
C372 C377 1.400 . S
C373 H357 0.939 . S
C373 C372 1.378 . S
C373 C374 1.361 . S
C374 H358 0.942 . S
C374 C373 1.361 . S
C374 C375 1.369 . S
C375 C374 1.369 . S
C375 C376 1.404 . S
C376 H359 0.940 . S
C376 C375 1.404 . S
C376 C377 1.389 . S
C377 H360 0.939 . S
C377 C372 1.400 . S
C377 C376 1.389 . S
C378 P352 1.819 . S
C378 C379 1.391 . S
C378 C383 1.391 . S
C379 H361 0.941 . S
C379 C378 1.391 . S
C379 C380 1.396 . S
C380 H364 0.939 . S
C380 C379 1.396 . S
C380 C381 1.397 . S
C381 C380 1.397 . S
C381 C382 1.385 . S
C382 H365 0.940 . S
C382 C381 1.385 . S
C382 C383 1.388 . S
C383 H362 0.939 . S
C383 C378 1.391 . S
C383 C382 1.388 . S
P384 O395 1.490 . S
P384 C398 1.812 . S
P384 C404 1.803 . S
P384 C410 1.819 . S
H385 C399 0.941 . S
H386 C400 0.939 . S
H387 C402 0.940 . S
H388 C403 0.940 . S
H389 C405 0.939 . S
H390 C406 0.942 . S
H391 C408 0.940 . S
H392 C409 0.939 . S
H393 C411 0.941 . S
H394 C415 0.939 . S
O395 P384 1.490 . S
H396 C412 0.939 . S
H397 C414 0.940 . S
C398 P384 1.812 . S
C398 C399 1.389 . S
C398 C403 1.391 . S
C399 H385 0.941 . S
C399 C398 1.389 . S
C399 C400 1.397 . S
C400 H386 0.939 . S
C400 C399 1.397 . S
C400 C401 1.378 . S
C401 C400 1.378 . S
C401 C402 1.378 . S
C402 H387 0.940 . S
C402 C401 1.378 . S
C402 C403 1.396 . S
C403 H388 0.940 . S
C403 C398 1.391 . S
C403 C402 1.396 . S
C404 P384 1.803 . S
C404 C405 1.378 . S
C404 C409 1.400 . S
C405 H389 0.939 . S
C405 C404 1.378 . S
C405 C406 1.361 . S
C406 H390 0.942 . S
C406 C405 1.361 . S
C406 C407 1.369 . S
C407 C406 1.369 . S
C407 C408 1.404 . S
C408 H391 0.940 . S
C408 C407 1.404 . S
C408 C409 1.389 . S
C409 H392 0.939 . S
C409 C404 1.400 . S
C409 C408 1.389 . S
C410 P384 1.819 . S
C410 C411 1.391 . S
C410 C415 1.391 . S
C411 H393 0.941 . S
C411 C410 1.391 . S
C411 C412 1.396 . S
C412 H396 0.939 . S
C412 C411 1.396 . S
C412 C413 1.397 . S
C413 C412 1.397 . S
C413 C414 1.385 . S
C414 H397 0.940 . S
C414 C413 1.385 . S
C414 C415 1.388 . S
C415 H394 0.939 . S
C415 C410 1.391 . S
C415 C414 1.388 . S
P416 O427 1.490 . S
P416 C430 1.812 . S
P416 C436 1.803 . S
P416 C442 1.819 . S
H417 C431 0.941 . S
H418 C432 0.939 . S
H419 C434 0.940 . S
H420 C435 0.940 . S
H421 C437 0.939 . S
H422 C438 0.942 . S
H423 C440 0.940 . S
H424 C441 0.939 . S
H425 C443 0.941 . S
H426 C447 0.939 . S
O427 P416 1.490 . S
H428 C444 0.939 . S
H429 C446 0.940 . S
C430 P416 1.812 . S
C430 C431 1.389 . S
C430 C435 1.391 . S
C431 H417 0.941 . S
C431 C430 1.389 . S
C431 C432 1.397 . S
C432 H418 0.939 . S
C432 C431 1.397 . S
C432 C433 1.378 . S
C433 C432 1.378 . S
C433 C434 1.378 . S
C434 H419 0.940 . S
C434 C433 1.378 . S
C434 C435 1.396 . S
C435 H420 0.940 . S
C435 C430 1.391 . S
C435 C434 1.396 . S
C436 P416 1.803 . S
C436 C437 1.378 . S
C436 C441 1.400 . S
C437 H421 0.939 . S
C437 C436 1.378 . S
C437 C438 1.361 . S
C438 H422 0.942 . S
C438 C437 1.361 . S
C438 C439 1.369 . S
C439 C438 1.369 . S
C439 C440 1.404 . S
C440 H423 0.940 . S
C440 C439 1.404 . S
C440 C441 1.389 . S
C441 H424 0.939 . S
C441 C436 1.400 . S
C441 C440 1.389 . S
C442 P416 1.819 . S
C442 C443 1.391 . S
C442 C447 1.391 . S
C443 H425 0.941 . S
C443 C442 1.391 . S
C443 C444 1.396 . S
C444 H428 0.939 . S
C444 C443 1.396 . S
C444 C445 1.397 . S
C445 C444 1.397 . S
C445 C446 1.385 . S
C446 H429 0.940 . S
C446 C445 1.385 . S
C446 C447 1.388 . S
C447 H426 0.939 . S
C447 C442 1.391 . S
C447 C446 1.388 . S
P448 O459 1.490 . S
P448 C462 1.812 . S
P448 C468 1.803 . S
P448 C474 1.819 . S
H449 C463 0.941 . S
H450 C464 0.939 . S
H451 C466 0.940 . S
H452 C467 0.940 . S
H453 C469 0.939 . S
H454 C470 0.942 . S
H455 C472 0.940 . S
H456 C473 0.939 . S
H457 C475 0.941 . S
H458 C479 0.939 . S
O459 P448 1.490 . S
H460 C476 0.939 . S
H461 C478 0.940 . S
C462 P448 1.812 . S
C462 C463 1.389 . S
C462 C467 1.391 . S
C463 H449 0.941 . S
C463 C462 1.389 . S
C463 C464 1.397 . S
C464 H450 0.939 . S
C464 C463 1.397 . S
C464 C465 1.378 . S
C465 C464 1.378 . S
C465 C466 1.378 . S
C466 H451 0.940 . S
C466 C465 1.378 . S
C466 C467 1.396 . S
C467 H452 0.940 . S
C467 C462 1.391 . S
C467 C466 1.396 . S
C468 P448 1.803 . S
C468 C469 1.378 . S
C468 C473 1.400 . S
C469 H453 0.939 . S
C469 C468 1.378 . S
C469 C470 1.361 . S
C470 H454 0.942 . S
C470 C469 1.361 . S
C470 C471 1.369 . S
C471 C470 1.369 . S
C471 C472 1.404 . S
C472 H455 0.940 . S
C472 C471 1.404 . S
C472 C473 1.389 . S
C473 H456 0.939 . S
C473 C468 1.400 . S
C473 C472 1.389 . S
C474 P448 1.819 . S
C474 C475 1.391 . S
C474 C479 1.391 . S
C475 H457 0.941 . S
C475 C474 1.391 . S
C475 C476 1.396 . S
C476 H460 0.939 . S
C476 C475 1.396 . S
C476 C477 1.397 . S
C477 C476 1.397 . S
C477 C478 1.385 . S
C478 H461 0.940 . S
C478 C477 1.385 . S
C478 C479 1.388 . S
C479 H458 0.939 . S
C479 C474 1.391 . S
C479 C478 1.388 . S
P480 O491 1.490 . S
P480 C494 1.812 . S
P480 C500 1.803 . S
P480 C506 1.819 . S
H481 C495 0.941 . S
H482 C496 0.939 . S
H483 C498 0.940 . S
H484 C499 0.940 . S
H485 C501 0.939 . S
H486 C502 0.942 . S
H487 C504 0.940 . S
H488 C505 0.939 . S
H489 C507 0.941 . S
H490 C511 0.939 . S
O491 P480 1.490 . S
H492 C508 0.939 . S
H493 C510 0.940 . S
C494 P480 1.812 . S
C494 C495 1.389 . S
C494 C499 1.391 . S
C495 H481 0.941 . S
C495 C494 1.389 . S
C495 C496 1.397 . S
C496 H482 0.939 . S
C496 C495 1.397 . S
C496 C497 1.378 . S
C497 C496 1.378 . S
C497 C498 1.378 . S
C498 H483 0.940 . S
C498 C497 1.378 . S
C498 C499 1.396 . S
C499 H484 0.940 . S
C499 C494 1.391 . S
C499 C498 1.396 . S
C500 P480 1.803 . S
C500 C501 1.378 . S
C500 C505 1.400 . S
C501 H485 0.939 . S
C501 C500 1.378 . S
C501 C502 1.361 . S
C502 H486 0.942 . S
C502 C501 1.361 . S
C502 C503 1.369 . S
C503 C502 1.369 . S
C503 C504 1.404 . S
C504 H487 0.940 . S
C504 C503 1.404 . S
C504 C505 1.389 . S
C505 H488 0.939 . S
C505 C500 1.400 . S
C505 C504 1.389 . S
C506 P480 1.819 . S
C506 C507 1.391 . S
C506 C511 1.391 . S
C507 H489 0.941 . S
C507 C506 1.391 . S
C507 C508 1.396 . S
C508 H492 0.939 . S
C508 C507 1.396 . S
C508 C509 1.397 . S
C509 C508 1.397 . S
C509 C510 1.385 . S
C510 H493 0.940 . S
C510 C509 1.385 . S
C510 C511 1.388 . S
C511 H490 0.939 . S
C511 C506 1.391 . S
C511 C510 1.388 . S
P512 O523 1.490 . S
P512 C526 1.812 . S
P512 C532 1.803 . S
P512 C538 1.819 . S
H513 C527 0.941 . S
H514 C528 0.939 . S
H515 C530 0.940 . S
H516 C531 0.940 . S
H517 C533 0.939 . S
H518 C534 0.942 . S
H519 C536 0.940 . S
H520 C537 0.939 . S
H521 C539 0.941 . S
H522 C543 0.939 . S
O523 P512 1.490 . S
H524 C540 0.939 . S
H525 C542 0.940 . S
C526 P512 1.812 . S
C526 C527 1.389 . S
C526 C531 1.391 . S
C527 H513 0.941 . S
C527 C526 1.389 . S
C527 C528 1.397 . S
C528 H514 0.939 . S
C528 C527 1.397 . S
C528 C529 1.378 . S
C529 C528 1.378 . S
C529 C530 1.378 . S
C530 H515 0.940 . S
C530 C529 1.378 . S
C530 C531 1.396 . S
C531 H516 0.940 . S
C531 C526 1.391 . S
C531 C530 1.396 . S
C532 P512 1.803 . S
C532 C533 1.378 . S
C532 C537 1.400 . S
C533 H517 0.939 . S
C533 C532 1.378 . S
C533 C534 1.361 . S
C534 H518 0.942 . S
C534 C533 1.361 . S
C534 C535 1.369 . S
C535 C534 1.369 . S
C535 C536 1.404 . S
C536 H519 0.940 . S
C536 C535 1.404 . S
C536 C537 1.389 . S
C537 H520 0.939 . S
C537 C532 1.400 . S
C537 C536 1.389 . S
C538 P512 1.819 . S
C538 C539 1.391 . S
C538 C543 1.391 . S
C539 H521 0.941 . S
C539 C538 1.391 . S
C539 C540 1.396 . S
C540 H524 0.939 . S
C540 C539 1.396 . S
C540 C541 1.397 . S
C541 C540 1.397 . S
C541 C542 1.385 . S
C542 H525 0.940 . S
C542 C541 1.385 . S
C542 C543 1.388 . S
C543 H522 0.939 . S
C543 C538 1.391 . S
C543 C542 1.388 . S
P544 O555 1.490 . S
P544 C558 1.812 . S
P544 C564 1.803 . S
P544 C570 1.819 . S
H545 C559 0.941 . S
H546 C560 0.939 . S
H547 C562 0.940 . S
H548 C563 0.940 . S
H549 C565 0.939 . S
H550 C566 0.942 . S
H551 C568 0.940 . S
H552 C569 0.939 . S
H553 C571 0.941 . S
H554 C575 0.939 . S
O555 P544 1.490 . S
H556 C572 0.939 . S
H557 C574 0.940 . S
C558 P544 1.812 . S
C558 C559 1.389 . S
C558 C563 1.391 . S
C559 H545 0.941 . S
C559 C558 1.389 . S
C559 C560 1.397 . S
C560 H546 0.939 . S
C560 C559 1.397 . S
C560 C561 1.378 . S
C561 C560 1.378 . S
C561 C562 1.378 . S
C562 H547 0.940 . S
C562 C561 1.378 . S
C562 C563 1.396 . S
C563 H548 0.940 . S
C563 C558 1.391 . S
C563 C562 1.396 . S
C564 P544 1.803 . S
C564 C565 1.378 . S
C564 C569 1.400 . S
C565 H549 0.939 . S
C565 C564 1.378 . S
C565 C566 1.361 . S
C566 H550 0.942 . S
C566 C565 1.361 . S
C566 C567 1.369 . S
C567 C566 1.369 . S
C567 C568 1.404 . S
C568 H551 0.940 . S
C568 C567 1.404 . S
C568 C569 1.389 . S
C569 H552 0.939 . S
C569 C564 1.400 . S
C569 C568 1.389 . S
C570 P544 1.819 . S
C570 C571 1.391 . S
C570 C575 1.391 . S
C571 H553 0.941 . S
C571 C570 1.391 . S
C571 C572 1.396 . S
C572 H556 0.939 . S
C572 C571 1.396 . S
C572 C573 1.397 . S
C573 C572 1.397 . S
C573 C574 1.385 . S
C574 H557 0.940 . S
C574 C573 1.385 . S
C574 C575 1.388 . S
C575 H554 0.939 . S
C575 C570 1.391 . S
C575 C574 1.388 . S
Tb576 O579 2.453 . S
Tb576 O580 2.596 1_545 S
Tb576 O581 2.374 1_545 S
Tb576 O589 2.343 1_554 S
Tb576 O591 2.353 . S
Tb576 O593 2.427 1_554 S
Tb576 O594 2.513 1_554 S
C577 O581 1.251 . S
C577 O583 1.265 . S
Tb578 O580 2.343 1_556 S
Tb578 O583 2.353 1_556 S
Tb578 O586 2.427 1_556 S
Tb578 O587 2.513 1_556 S
Tb578 O588 2.453 . S
Tb578 O589 2.596 1_565 S
Tb578 O590 2.374 1_565 S
O579 Tb576 2.453 . S
O579 C595 1.245 . S
O580 Tb576 2.596 1_565 S
O580 Tb578 2.343 1_554 S
O580 C595 1.259 1_565 S
O581 Tb576 2.374 1_565 S
O581 C577 1.251 . S
C582 O586 1.275 . S
C582 O587 1.246 . S
O583 C577 1.265 . S
O583 Tb578 2.353 1_554 S
C584 O588 1.237 1_545 S
C584 O589 1.261 . S
C585 O590 1.250 . S
C585 O591 1.263 1_556 S
O586 Tb578 2.427 1_554 S
O586 C582 1.275 . S
O587 Tb578 2.513 1_554 S
O587 C582 1.246 . S
O588 Tb578 2.453 . S
O588 C584 1.237 1_565 S
O589 Tb576 2.343 1_556 S
O589 Tb578 2.596 1_545 S
O589 C584 1.261 . S
O590 Tb578 2.374 1_545 S
O590 C585 1.250 . S
O591 Tb576 2.353 . S
O591 C585 1.263 1_554 S
C592 O593 1.275 . S
C592 O594 1.246 . S
O593 Tb576 2.427 1_556 S
O593 C592 1.275 . S
O594 Tb576 2.513 1_556 S
O594 C592 1.246 . S
C595 O579 1.245 . S
C595 O580 1.259 1_545 S
Tb596 O599 2.453 . S
Tb596 O600 2.596 1_655 S
Tb596 O601 2.374 1_655 S
Tb596 O609 2.343 1_554 S
Tb596 O611 2.353 . S
Tb596 O613 2.427 1_554 S
Tb596 O614 2.513 1_554 S
C597 O601 1.251 . S
C597 O603 1.263 . S
Tb598 O600 2.343 1_556 S
Tb598 O603 2.353 1_556 S
Tb598 O606 2.427 1_556 S
Tb598 O607 2.513 1_556 S
Tb598 O608 2.453 . S
Tb598 O609 2.596 1_455 S
Tb598 O610 2.374 1_455 S
O599 Tb596 2.453 . S
O599 C615 1.245 1_655 S
O600 Tb596 2.596 1_455 S
O600 Tb598 2.343 1_554 S
O600 C615 1.259 . S
O601 Tb596 2.374 1_455 S
O601 C597 1.251 . S
C602 O606 1.275 . S
C602 O607 1.246 . S
O603 C597 1.263 . S
O603 Tb598 2.353 1_554 S
C604 O608 1.210 1_655 S
C604 O609 1.273 . S
C605 O610 1.250 . S
C605 O611 1.263 1_556 S
O606 Tb598 2.427 1_554 S
O606 C602 1.275 . S
O607 Tb598 2.513 1_554 S
O607 C602 1.246 . S
O608 Tb598 2.453 . S
O608 C604 1.210 1_455 S
O609 Tb596 2.343 1_556 S
O609 Tb598 2.596 1_655 S
O609 C604 1.273 . S
O610 Tb598 2.374 1_655 S
O610 C605 1.250 . S
O611 Tb596 2.353 . S
O611 C605 1.263 1_554 S
C612 O613 1.275 . S
C612 O614 1.246 . S
O613 Tb596 2.427 1_556 S
O613 C612 1.275 . S
O614 Tb596 2.513 1_556 S
O614 C612 1.246 . S
C615 O599 1.245 1_455 S
C615 O600 1.259 . S
Tb616 O619 2.453 . S
Tb616 O620 2.596 . S
Tb616 O621 2.374 . S
Tb616 O629 2.343 1_556 S
Tb616 O631 2.353 1_556 S
Tb616 O633 2.427 1_556 S
Tb616 O634 2.513 1_556 S
C617 O621 1.251 . S
C617 O623 1.263 1_556 S
Tb618 O620 2.343 1_554 S
Tb618 O623 2.353 . S
Tb618 O626 2.427 1_554 S
Tb618 O627 2.513 1_554 S
Tb618 O628 2.453 . S
Tb618 O629 2.596 . S
Tb618 O630 2.374 . S
O619 Tb616 2.453 . S
O619 C635 1.245 . S
O620 Tb616 2.596 . S
O620 Tb618 2.343 1_556 S
O620 C635 1.259 . S
O621 Tb616 2.374 . S
O621 C617 1.251 . S
C622 O626 1.275 . S
C622 O627 1.246 . S
O623 C617 1.263 1_554 S
O623 Tb618 2.353 . S
C624 O628 1.245 . S
C624 O629 1.259 . S
C625 O630 1.250 . S
C625 O631 1.263 . S
O626 Tb618 2.427 1_556 S
O626 C622 1.275 . S
O627 Tb618 2.513 1_556 S
O627 C622 1.246 . S
O628 Tb618 2.453 . S
O628 C624 1.245 . S
O629 Tb616 2.343 1_554 S
O629 Tb618 2.596 . S
O629 C624 1.259 . S
O630 Tb618 2.374 . S
O630 C625 1.250 . S
O631 Tb616 2.353 1_554 S
O631 C625 1.263 . S
C632 O633 1.275 . S
C632 O634 1.246 . S
O633 Tb616 2.427 1_554 S
O633 C632 1.275 . S
O634 Tb616 2.513 1_554 S
O634 C632 1.246 . S
C635 O619 1.245 . S
C635 O620 1.259 . S
Tb636 O639 2.453 . S
Tb636 O640 2.596 . S
Tb636 O641 2.374 . S
Tb636 O649 2.343 . S
Tb636 O651 2.353 . S
Tb636 O653 2.427 . S
Tb636 O654 2.513 . S
C637 O641 1.251 . S
C637 O643 1.263 . S
Tb638 O640 2.343 . S
Tb638 O643 2.353 . S
Tb638 O646 2.427 . S
Tb638 O647 2.513 . S
Tb638 O648 2.453 . S
Tb638 O649 2.596 . S
Tb638 O650 2.374 . S
O639 Tb636 2.453 . S
O639 C655 1.245 . S
O640 Tb636 2.596 . S
O640 Tb638 2.343 . S
O640 C655 1.259 . S
O641 Tb636 2.374 . S
O641 C637 1.251 . S
C642 O646 1.275 . S
C642 O647 1.246 . S
O643 C637 1.263 . S
O643 Tb638 2.353 . S
C644 O648 1.245 . S
C644 O649 1.259 . S
C645 O650 1.250 . S
C645 O651 1.263 . S
O646 Tb638 2.427 . S
O646 C642 1.275 . S
O647 Tb638 2.513 . S
O647 C642 1.246 . S
O648 Tb638 2.453 . S
O648 C644 1.245 . S
O649 Tb636 2.343 . S
O649 Tb638 2.596 . S
O649 C644 1.259 . S
O650 Tb638 2.374 . S
O650 C645 1.250 . S
O651 Tb636 2.353 . S
O651 C645 1.263 . S
C652 O653 1.275 . S
C652 O654 1.246 . S
O653 Tb636 2.427 . S
O653 C652 1.275 . S
O654 Tb636 2.513 . S
O654 C652 1.246 . S
C655 O639 1.245 . S
C655 O640 1.259 . S
Tb656 O659 2.453 . S
Tb656 O660 2.596 . S
Tb656 O661 2.374 . S
Tb656 O669 2.343 . S
Tb656 O671 2.353 . S
Tb656 O673 2.427 . S
Tb656 O674 2.513 . S
C657 O661 1.251 . S
C657 O663 1.263 . S
Tb658 O660 2.343 . S
Tb658 O663 2.353 . S
Tb658 O666 2.427 . S
Tb658 O667 2.513 . S
Tb658 O668 2.453 . S
Tb658 O669 2.596 . S
Tb658 O670 2.374 . S
O659 Tb656 2.453 . S
O659 C675 1.245 . S
O660 Tb656 2.596 . S
O660 Tb658 2.343 . S
O660 C675 1.259 . S
O661 Tb656 2.374 . S
O661 C657 1.251 . S
C662 O666 1.275 . S
C662 O667 1.246 . S
O663 C657 1.263 . S
O663 Tb658 2.353 . S
C664 O668 1.245 . S
C664 O669 1.259 . S
C665 O670 1.250 . S
C665 O671 1.263 . S
O666 Tb658 2.427 . S
O666 C662 1.275 . S
O667 Tb658 2.513 . S
O667 C662 1.246 . S
O668 Tb658 2.453 . S
O668 C664 1.245 . S
O669 Tb656 2.343 . S
O669 Tb658 2.596 . S
O669 C664 1.259 . S
O670 Tb658 2.374 . S
O670 C665 1.250 . S
O671 Tb656 2.353 . S
O671 C665 1.263 . S
C672 O673 1.275 . S
C672 O674 1.246 . S
O673 Tb656 2.427 . S
O673 C672 1.275 . S
O674 Tb656 2.513 . S
O674 C672 1.246 . S
C675 O659 1.245 . S
C675 O660 1.259 . S
Tb676 O679 2.453 . S
Tb676 O680 2.596 . S
Tb676 O681 2.374 . S
Tb676 O689 2.343 . S
Tb676 O691 2.353 . S
Tb676 O693 2.427 . S
Tb676 O694 2.513 . S
C677 O681 1.251 . S
C677 O683 1.263 . S
Tb678 O680 2.343 . S
Tb678 O683 2.353 . S
Tb678 O686 2.427 . S
Tb678 O687 2.513 . S
Tb678 O688 2.453 . S
Tb678 O689 2.596 . S
Tb678 O690 2.374 . S
O679 Tb676 2.453 . S
O679 C695 1.245 . S
O680 Tb676 2.596 . S
O680 Tb678 2.343 . S
O680 C695 1.259 . S
O681 Tb676 2.374 . S
O681 C677 1.251 . S
C682 O686 1.275 . S
C682 O687 1.246 . S
O683 C677 1.263 . S
O683 Tb678 2.353 . S
C684 O688 1.245 . S
C684 O689 1.259 . S
C685 O690 1.250 . S
C685 O691 1.263 . S
O686 Tb678 2.427 . S
O686 C682 1.275 . S
O687 Tb678 2.513 . S
O687 C682 1.246 . S
O688 Tb678 2.453 . S
O688 C684 1.245 . S
O689 Tb676 2.343 . S
O689 Tb678 2.596 . S
O689 C684 1.259 . S
O690 Tb678 2.374 . S
O690 C685 1.250 . S
O691 Tb676 2.353 . S
O691 C685 1.263 . S
C692 O693 1.275 . S
C692 O694 1.246 . S
O693 Tb676 2.427 . S
O693 C692 1.275 . S
O694 Tb676 2.513 . S
O694 C692 1.246 . S
C695 O679 1.245 . S
C695 O680 1.259 . S
Tb696 O699 2.453 . S
Tb696 O700 2.596 . S
Tb696 O701 2.374 . S
Tb696 O709 2.343 . S
Tb696 O711 2.353 . S
Tb696 O713 2.427 . S
Tb696 O714 2.513 . S
C697 O701 1.251 . S
C697 O703 1.263 . S
Tb698 O700 2.343 . S
Tb698 O703 2.353 . S
Tb698 O706 2.427 . S
Tb698 O707 2.513 . S
Tb698 O708 2.453 . S
Tb698 O709 2.596 . S
Tb698 O710 2.374 . S
O699 Tb696 2.453 . S
O699 C715 1.245 . S
O700 Tb696 2.596 . S
O700 Tb698 2.343 . S
O700 C715 1.259 . S
O701 Tb696 2.374 . S
O701 C697 1.251 . S
C702 O706 1.275 . S
C702 O707 1.246 . S
O703 C697 1.263 . S
O703 Tb698 2.353 . S
C704 O708 1.245 . S
C704 O709 1.259 . S
C705 O710 1.250 . S
C705 O711 1.263 . S
O706 Tb698 2.427 . S
O706 C702 1.275 . S
O707 Tb698 2.513 . S
O707 C702 1.246 . S
O708 Tb698 2.453 . S
O708 C704 1.245 . S
O709 Tb696 2.343 . S
O709 Tb698 2.596 . S
O709 C704 1.259 . S
O710 Tb698 2.374 . S
O710 C705 1.250 . S
O711 Tb696 2.353 . S
O711 C705 1.263 . S
C712 O713 1.275 . S
C712 O714 1.246 . S
O713 Tb696 2.427 . S
O713 C712 1.275 . S
O714 Tb696 2.513 . S
O714 C712 1.246 . S
C715 O699 1.245 . S
C715 O700 1.259 . S
Tb716 O719 2.453 . S
Tb716 O720 2.596 . S
Tb716 O721 2.374 . S
Tb716 O729 2.343 . S
Tb716 O731 2.353 . S
Tb716 O733 2.427 . S
Tb716 O734 2.513 . S
C717 O721 1.251 . S
C717 O723 1.263 . S
Tb718 O720 2.343 . S
Tb718 O723 2.353 . S
Tb718 O726 2.427 . S
Tb718 O727 2.513 . S
Tb718 O728 2.453 . S
Tb718 O729 2.596 . S
Tb718 O730 2.374 . S
O719 Tb716 2.453 . S
O719 C735 1.245 . S
O720 Tb716 2.596 . S
O720 Tb718 2.343 . S
O720 C735 1.259 . S
O721 Tb716 2.374 . S
O721 C717 1.251 . S
C722 O726 1.275 . S
C722 O727 1.246 . S
O723 C717 1.263 . S
O723 Tb718 2.353 . S
C724 O728 1.245 . S
C724 O729 1.259 . S
C725 O730 1.250 . S
C725 O731 1.263 . S
O726 Tb718 2.427 . S
O726 C722 1.275 . S
O727 Tb718 2.513 . S
O727 C722 1.246 . S
O728 Tb718 2.453 . S
O728 C724 1.245 . S
O729 Tb716 2.343 . S
O729 Tb718 2.596 . S
O729 C724 1.259 . S
O730 Tb718 2.374 . S
O730 C725 1.250 . S
O731 Tb716 2.353 . S
O731 C725 1.263 . S
C732 O733 1.275 . S
C732 O734 1.246 . S
O733 Tb716 2.427 . S
O733 C732 1.275 . S
O734 Tb716 2.513 . S
O734 C732 1.246 . S
C735 O719 1.245 . S
C735 O720 1.259 . S
Tb736 O739 2.453 . S
Tb736 O740 2.596 . S
Tb736 O741 2.374 . S
Tb736 O749 2.343 . S
Tb736 O751 2.353 . S
Tb736 O753 2.427 . S
Tb736 O754 2.513 . S
C737 O741 1.251 . S
C737 O743 1.263 . S
Tb738 O740 2.343 . S
Tb738 O743 2.353 . S
Tb738 O746 2.427 . S
Tb738 O747 2.513 . S
Tb738 O748 2.453 . S
Tb738 O749 2.596 . S
Tb738 O750 2.374 . S
O739 Tb736 2.453 . S
O739 C755 1.245 . S
O740 Tb736 2.596 . S
O740 Tb738 2.343 . S
O740 C755 1.259 . S
O741 Tb736 2.374 . S
O741 C737 1.251 . S
C742 O746 1.275 . S
C742 O747 1.246 . S
O743 C737 1.263 . S
O743 Tb738 2.353 . S
C744 O748 1.245 . S
C744 O749 1.259 . S
C745 O750 1.250 . S
C745 O751 1.263 . S
O746 Tb738 2.427 . S
O746 C742 1.275 . S
O747 Tb738 2.513 . S
O747 C742 1.246 . S
O748 Tb738 2.453 . S
O748 C744 1.245 . S
O749 Tb736 2.343 . S
O749 Tb738 2.596 . S
O749 C744 1.259 . S
O750 Tb738 2.374 . S
O750 C745 1.250 . S
O751 Tb736 2.353 . S
O751 C745 1.263 . S
C752 O753 1.275 . S
C752 O754 1.246 . S
O753 Tb736 2.427 . S
O753 C752 1.275 . S
O754 Tb736 2.513 . S
O754 C752 1.246 . S
C755 O739 1.245 . S
C755 O740 1.259 . S
C756 C757 1.391 . S
C756 C758 1.394 . S
C756 H772 0.931 . S
C757 C756 1.391 . S
C757 C761 1.376 . S
C758 C756 1.394 . S
C758 C759 1.369 . S
C758 C762 1.531 . S
C759 C758 1.369 . S
C759 C760 1.410 . S
C759 C767 1.503 . S
C760 C759 1.410 . S
C760 C761 1.392 . S
C760 C763 1.511 . S
C761 C757 1.376 . S
C761 C760 1.392 . S
C761 H773 0.929 . S
C762 C758 1.531 . S
C762 H774 0.960 . S
C762 H775 0.962 . S
C762 H776 0.960 . S
C763 C760 1.511 . S
C763 H777 0.961 . S
C763 H778 0.961 . S
C763 H779 0.961 . S
C764 C765 1.370 . S
C764 C766 1.363 . S
C764 H780 0.931 . S
C765 C764 1.370 . S
C765 C769 1.408 . S
C766 C764 1.363 . S
C766 C767 1.370 . S
C766 C770 1.524 . S
C767 C759 1.503 . S
C767 C766 1.370 . S
C767 C768 1.403 . S
C768 C767 1.403 . S
C768 C769 1.404 . S
C768 C771 1.539 . S
C769 C765 1.408 . S
C769 C768 1.404 . S
C769 H781 0.930 . S
C770 C766 1.524 . S
C770 H782 0.956 . S
C770 H783 0.961 . S
C770 H784 0.961 . S
C771 C768 1.539 . S
C771 H785 0.930 1_554 S
C771 H786 0.961 . S
C771 H787 0.960 . S
H772 C756 0.931 . S
H773 C761 0.929 . S
H774 C762 0.960 . S
H775 C762 0.962 . S
H776 C762 0.960 . S
H777 C763 0.961 . S
H778 C763 0.961 . S
H779 C763 0.961 . S
H780 C764 0.931 . S
H781 C769 0.930 . S
H782 C770 0.956 . S
H783 C770 0.961 . S
H784 C770 0.961 . S
H785 C771 0.930 1_556 S
H786 C771 0.961 . S
H787 C771 0.960 . S
C788 C789 1.391 . S
C788 C790 1.394 . S
C788 H804 0.931 . S
C789 C788 1.391 . S
C789 C793 1.376 . S
C790 C788 1.394 . S
C790 C791 1.369 . S
C790 C794 1.531 . S
C791 C790 1.369 . S
C791 C792 1.410 . S
C791 C799 1.503 . S
C792 C791 1.410 . S
C792 C793 1.392 . S
C792 C795 1.511 . S
C793 C789 1.376 . S
C793 C792 1.392 . S
C793 H805 0.929 . S
C794 C790 1.531 . S
C794 H806 0.960 . S
C794 H807 0.962 . S
C794 H808 0.960 . S
C795 C792 1.511 . S
C795 H809 0.961 . S
C795 H810 0.961 . S
C795 H811 0.961 . S
C796 C797 1.370 . S
C796 C798 1.363 . S
C796 H812 0.931 . S
C797 C796 1.370 . S
C797 C801 1.408 . S
C798 C796 1.363 . S
C798 C799 1.370 . S
C798 C802 1.524 . S
C799 C791 1.503 . S
C799 C798 1.370 . S
C799 C800 1.403 . S
C800 C799 1.403 . S
C800 C801 1.404 . S
C800 C803 1.539 . S
C801 C797 1.408 . S
C801 C800 1.404 . S
C801 H813 0.930 . S
C802 C798 1.524 . S
C802 H814 0.956 . S
C802 H815 0.961 . S
C802 H816 0.961 . S
C803 C800 1.539 . S
C803 H817 0.958 . S
C803 H818 0.961 . S
C803 H819 0.960 . S
H804 C788 0.931 . S
H805 C793 0.929 . S
H806 C794 0.960 . S
H807 C794 0.962 . S
H808 C794 0.960 . S
H809 C795 0.961 . S
H810 C795 0.961 . S
H811 C795 0.961 . S
H812 C796 0.931 . S
H813 C801 0.930 . S
H814 C802 0.956 . S
H815 C802 0.961 . S
H816 C802 0.961 . S
H817 C803 0.958 . S
H818 C803 0.961 . S
H819 C803 0.960 . S
C820 C821 1.391 . S
C820 C822 1.394 . S
C820 H836 0.931 . S
C821 C820 1.391 . S
C821 C825 1.376 . S
C822 C820 1.394 . S
C822 C823 1.369 . S
C822 C826 1.531 . S
C823 C822 1.369 . S
C823 C824 1.410 . S
C823 C831 1.503 . S
C824 C823 1.410 . S
C824 C825 1.392 . S
C824 C827 1.511 . S
C825 C821 1.376 . S
C825 C824 1.392 . S
C825 H837 0.929 . S
C826 C822 1.531 . S
C826 H838 0.960 . S
C826 H839 0.962 . S
C826 H840 0.960 . S
C827 C824 1.511 . S
C827 H841 0.961 . S
C827 H842 0.961 . S
C827 H843 0.961 . S
C828 C829 1.370 . S
C828 C830 1.363 . S
C828 H844 0.931 . S
C829 C828 1.370 . S
C829 C833 1.408 . S
C830 C828 1.363 . S
C830 C831 1.370 . S
C830 C834 1.524 . S
C831 C823 1.503 . S
C831 C830 1.370 . S
C831 C832 1.403 . S
C832 C831 1.403 . S
C832 C833 1.404 . S
C832 C835 1.539 . S
C833 C829 1.408 . S
C833 C832 1.404 . S
C833 H845 0.930 1_554 S
C834 C830 1.524 . S
C834 H846 0.956 . S
C834 H847 0.961 . S
C834 H848 0.961 . S
C835 C832 1.539 . S
C835 H849 0.958 1_554 S
C835 H850 0.961 1_554 S
C835 H851 0.960 . S
H836 C820 0.931 . S
H837 C825 0.929 . S
H838 C826 0.960 . S
H839 C826 0.962 . S
H840 C826 0.960 . S
H841 C827 0.961 . S
H842 C827 0.961 . S
H843 C827 0.961 . S
H844 C828 0.931 . S
H845 C833 0.930 1_556 S
H846 C834 0.956 . S
H847 C834 0.961 . S
H848 C834 0.961 . S
H849 C835 0.958 1_556 S
H850 C835 0.961 1_556 S
H851 C835 0.960 . S
C852 C853 1.391 . S
C852 C854 1.394 . S
C852 H868 0.931 . S
C853 C852 1.391 . S
C853 C857 1.376 . S
C854 C852 1.394 . S
C854 C855 1.369 . S
C854 C858 1.531 . S
C855 C854 1.369 . S
C855 C856 1.410 . S
C855 C863 1.503 . S
C856 C855 1.410 . S
C856 C857 1.392 . S
C856 C859 1.511 . S
C857 C853 1.376 . S
C857 C856 1.392 . S
C857 H869 0.929 . S
C858 C854 1.531 . S
C858 H870 0.960 . S
C858 H871 0.962 . S
C858 H872 0.960 . S
C859 C856 1.511 . S
C859 H873 0.961 . S
C859 H874 0.961 . S
C859 H875 0.961 . S
C860 C861 1.370 . S
C860 C862 1.363 . S
C860 H876 0.931 1_556 S
C861 C860 1.370 . S
C861 C865 1.408 . S
C862 C860 1.363 . S
C862 C863 1.370 . S
C862 C866 1.524 . S
C863 C855 1.503 . S
C863 C862 1.370 . S
C863 C864 1.403 . S
C864 C863 1.403 . S
C864 C865 1.404 . S
C864 C867 1.539 . S
C865 C861 1.408 . S
C865 C864 1.404 . S
C865 H877 0.930 . S
C866 C862 1.524 . S
C866 H878 0.956 . S
C866 H879 0.961 . S
C866 H880 0.961 1_556 S
C867 C864 1.539 . S
C867 H881 0.958 . S
C867 H882 0.961 . S
C867 H883 0.960 . S
H868 C852 0.931 . S
H869 C857 0.929 . S
H870 C858 0.960 . S
H871 C858 0.962 . S
H872 C858 0.960 . S
H873 C859 0.961 . S
H874 C859 0.961 . S
H875 C859 0.961 . S
H876 C860 0.931 1_554 S
H877 C865 0.930 . S
H878 C866 0.956 . S
H879 C866 0.961 . S
H880 C866 0.961 1_554 S
H881 C867 0.958 . S
H882 C867 0.961 . S
H883 C867 0.960 . S
C884 C885 1.391 . S
C884 C886 1.394 . S
C884 H900 0.931 . S
C885 C884 1.391 . S
C885 C889 1.376 . S
C886 C884 1.394 . S
C886 C887 1.369 . S
C886 C890 1.531 . S
C887 C886 1.369 . S
C887 C888 1.410 . S
C887 C895 1.503 . S
C888 C887 1.410 . S
C888 C889 1.392 . S
C888 C891 1.511 . S
C889 C885 1.376 . S
C889 C888 1.392 . S
C889 H901 0.929 . S
C890 C886 1.531 . S
C890 H902 0.960 . S
C890 H903 0.962 . S
C890 H904 0.960 . S
C891 C888 1.511 . S
C891 H905 0.961 . S
C891 H906 0.961 . S
C891 H907 0.961 . S
C892 C893 1.370 . S
C892 C894 1.363 . S
C892 H908 0.931 . S
C893 C892 1.370 . S
C893 C897 1.408 . S
C894 C892 1.363 . S
C894 C895 1.370 . S
C894 C898 1.524 . S
C895 C887 1.503 . S
C895 C894 1.370 . S
C895 C896 1.403 . S
C896 C895 1.403 . S
C896 C897 1.404 . S
C896 C899 1.539 . S
C897 C893 1.408 . S
C897 C896 1.404 . S
C897 H909 0.930 . S
C898 C894 1.524 . S
C898 H910 0.956 . S
C898 H911 0.961 . S
C898 H912 0.961 . S
C899 C896 1.539 . S
C899 H913 0.958 . S
C899 H914 0.961 . S
C899 H915 0.960 . S
H900 C884 0.931 . S
H901 C889 0.929 . S
H902 C890 0.960 . S
H903 C890 0.962 . S
H904 C890 0.960 . S
H905 C891 0.961 . S
H906 C891 0.961 . S
H907 C891 0.961 . S
H908 C892 0.931 . S
H909 C897 0.930 . S
H910 C898 0.956 . S
H911 C898 0.961 . S
H912 C898 0.961 . S
H913 C899 0.958 . S
H914 C899 0.961 . S
H915 C899 0.960 . S
C916 C917 1.391 . S
C916 C918 1.394 . S
C916 H932 0.931 . S
C917 C916 1.391 . S
C917 C921 1.376 . S
C918 C916 1.394 . S
C918 C919 1.369 . S
C918 C922 1.531 . S
C919 C918 1.369 . S
C919 C920 1.410 . S
C919 C927 1.503 . S
C920 C919 1.410 . S
C920 C921 1.392 . S
C920 C923 1.511 . S
C921 C917 1.376 . S
C921 C920 1.392 . S
C921 H933 0.929 . S
C922 C918 1.531 . S
C922 H934 0.960 . S
C922 H935 0.962 . S
C922 H936 0.960 . S
C923 C920 1.511 . S
C923 H937 0.961 . S
C923 H938 0.961 . S
C923 H939 0.961 . S
C924 C925 1.404 . S
C924 C926 1.386 . S
C924 H940 0.875 1_556 S
C925 C924 1.404 . S
C925 C929 1.408 . S
C926 C924 1.386 . S
C926 C927 1.370 . S
C926 C930 1.524 1_556 S
C927 C919 1.503 . S
C927 C926 1.370 . S
C927 C928 1.403 . S
C928 C927 1.403 . S
C928 C929 1.404 . S
C928 C931 1.539 . S
C929 C925 1.408 . S
C929 C928 1.404 . S
C929 H941 0.930 . S
C930 C926 1.524 1_554 S
C930 H942 0.956 . S
C930 H943 0.961 . S
C930 H944 0.961 . S
C931 C928 1.539 . S
C931 H945 0.958 . S
C931 H946 0.961 . S
C931 H947 0.960 . S
H932 C916 0.931 . S
H933 C921 0.929 . S
H934 C922 0.960 . S
H935 C922 0.962 . S
H936 C922 0.960 . S
H937 C923 0.961 . S
H938 C923 0.961 . S
H939 C923 0.961 . S
H940 C924 0.875 1_554 S
H941 C929 0.930 . S
H942 C930 0.956 . S
H943 C930 0.961 . S
H944 C930 0.961 . S
H945 C931 0.958 . S
H946 C931 0.961 . S
H947 C931 0.960 . S
C948 C949 1.391 . S
C948 C950 1.394 . S
C948 H964 0.931 . S
C949 C948 1.391 . S
C949 C953 1.376 . S
C950 C948 1.394 . S
C950 C951 1.369 . S
C950 C954 1.531 . S
C951 C950 1.369 . S
C951 C952 1.410 . S
C951 C959 1.503 . S
C952 C951 1.410 . S
C952 C953 1.392 . S
C952 C955 1.511 . S
C953 C949 1.376 . S
C953 C952 1.392 . S
C953 H965 0.929 . S
C954 C950 1.531 . S
C954 H966 0.960 . S
C954 H967 0.962 . S
C954 H968 0.960 . S
C955 C952 1.511 . S
C955 H969 0.961 . S
C955 H970 0.961 . S
C955 H971 0.961 . S
C956 C957 1.370 . S
C956 C958 1.363 . S
C956 H972 0.931 . S
C957 C956 1.370 . S
C957 C961 1.408 . S
C958 C956 1.363 . S
C958 C959 1.370 . S
C958 C962 1.524 . S
C959 C951 1.503 . S
C959 C958 1.370 . S
C959 C960 1.403 . S
C960 C959 1.403 . S
C960 C961 1.404 . S
C960 C963 1.539 . S
C961 C957 1.408 . S
C961 C960 1.404 . S
C961 H973 0.930 . S
C962 C958 1.524 . S
C962 H974 0.956 . S
C962 H975 0.961 . S
C962 H976 0.961 . S
C963 C960 1.539 . S
C963 H977 0.958 . S
C963 H978 0.961 . S
C963 H979 0.960 . S
H964 C948 0.931 . S
H965 C953 0.929 . S
H966 C954 0.960 . S
H967 C954 0.962 . S
H968 C954 0.960 . S
H969 C955 0.961 . S
H970 C955 0.961 . S
H971 C955 0.961 . S
H972 C956 0.931 . S
H973 C961 0.930 . S
H974 C962 0.956 . S
H975 C962 0.961 . S
H976 C962 0.961 . S
H977 C963 0.958 . S
H978 C963 0.961 . S
H979 C963 0.960 . S
C980 C981 1.391 . S
C980 C982 1.394 . S
C980 H996 0.931 . S
C981 C980 1.391 . S
C981 C985 1.376 . S
C982 C980 1.394 . S
C982 C983 1.369 . S
C982 C986 1.531 . S
C983 C982 1.369 . S
C983 C984 1.410 . S
C983 C991 1.503 . S
C984 C983 1.410 . S
C984 C985 1.392 . S
C984 C987 1.511 . S
C985 C981 1.376 . S
C985 C984 1.392 . S
C985 H997 0.929 . S
C986 C982 1.531 . S
C986 H998 0.960 . S
C986 H999 0.962 . S
C986 H1000 0.960 . S
C987 C984 1.511 . S
C987 H1001 0.961 . S
C987 H1002 0.961 . S
C987 H1003 0.961 . S
C988 C989 1.370 . S
C988 C990 1.363 . S
C988 H1004 0.931 . S
C989 C988 1.370 . S
C989 C993 1.408 . S
C990 C988 1.363 . S
C990 C991 1.370 . S
C990 C994 1.524 . S
C991 C983 1.503 . S
C991 C990 1.370 . S
C991 C992 1.403 . S
C992 C991 1.403 . S
C992 C993 1.404 . S
C992 C995 1.539 . S
C993 C989 1.408 . S
C993 C992 1.404 . S
C993 H1005 0.930 . S
C994 C990 1.524 . S
C994 H1006 0.956 . S
C994 H1007 0.961 . S
C994 H1008 0.961 . S
C995 C992 1.539 . S
C995 H1009 0.958 . S
C995 H1010 0.961 1_556 S
C995 H1011 0.960 . S
H996 C980 0.931 . S
H997 C985 0.929 . S
H998 C986 0.960 . S
H999 C986 0.962 . S
H1000 C986 0.960 . S
H1001 C987 0.961 . S
H1002 C987 0.961 . S
H1003 C987 0.961 . S
H1004 C988 0.931 . S
H1005 C993 0.930 . S
H1006 C994 0.956 . S
H1007 C994 0.961 . S
H1008 C994 0.961 . S
H1009 C995 0.958 . S
H1010 C995 0.961 1_554 S
H1011 C995 0.960 . S
C1012 C1013 1.391 . S
C1012 C1014 1.394 . S
C1012 H1028 0.931 . S
C1013 C1012 1.391 . S
C1013 C1017 1.376 . S
C1014 C1012 1.394 . S
C1014 C1015 1.369 . S
C1014 C1018 1.531 . S
C1015 C1014 1.369 . S
C1015 C1016 1.410 . S
C1015 C1023 1.503 . S
C1016 C1015 1.410 . S
C1016 C1017 1.392 . S
C1016 C1019 1.511 . S
C1017 C1013 1.376 . S
C1017 C1016 1.392 . S
C1017 H1029 0.929 . S
C1018 C1014 1.531 . S
C1018 H1030 0.960 . S
C1018 H1031 0.962 . S
C1018 H1032 0.960 . S
C1019 C1016 1.511 . S
C1019 H1033 0.961 . S
C1019 H1034 0.961 . S
C1019 H1035 0.961 . S
C1020 C1021 1.370 . S
C1020 C1022 1.363 . S
C1020 H1036 0.931 . S
C1021 C1020 1.370 . S
C1021 C1025 1.408 1_556 S
C1022 C1020 1.363 . S
C1022 C1023 1.370 . S
C1022 C1026 1.524 . S
C1023 C1015 1.503 . S
C1023 C1022 1.370 . S
C1023 C1024 1.403 . S
C1024 C1023 1.403 . S
C1024 C1025 1.404 1_556 S
C1024 C1027 1.539 1_556 S
C1025 C1021 1.408 1_554 S
C1025 C1024 1.404 1_554 S
C1025 H1037 0.930 . S
C1026 C1022 1.524 . S
C1026 H1038 0.956 . S
C1026 H1039 0.961 . S
C1026 H1040 0.961 . S
C1027 C1024 1.539 1_554 S
C1027 H1041 0.958 . S
C1027 H1042 0.961 . S
C1027 H1043 0.960 . S
H1028 C1012 0.931 . S
H1029 C1017 0.929 . S
H1030 C1018 0.960 . S
H1031 C1018 0.962 . S
H1032 C1018 0.960 . S
H1033 C1019 0.961 . S
H1034 C1019 0.961 . S
H1035 C1019 0.961 . S
H1036 C1020 0.931 . S
H1037 C1025 0.930 . S
H1038 C1026 0.956 . S
H1039 C1026 0.961 . S
H1040 C1026 0.961 . S
H1041 C1027 0.958 . S
H1042 C1027 0.961 . S
H1043 C1027 0.960 . S
C1044 C1045 1.391 . S
C1044 C1046 1.394 . S
C1044 H1060 0.931 . S
C1045 C1044 1.391 . S
C1045 C1049 1.376 . S
C1046 C1044 1.394 . S
C1046 C1047 1.369 . S
C1046 C1050 1.531 . S
C1047 C1046 1.369 . S
C1047 C1048 1.410 . S
C1047 C1055 1.503 . S
C1048 C1047 1.410 . S
C1048 C1049 1.392 . S
C1048 C1051 1.511 . S
C1049 C1045 1.376 . S
C1049 C1048 1.392 . S
C1049 H1061 0.929 . S
C1050 C1046 1.531 . S
C1050 H1062 0.960 . S
C1050 H1063 0.962 . S
C1050 H1064 0.960 . S
C1051 C1048 1.511 . S
C1051 H1065 0.961 . S
C1051 H1066 0.961 . S
C1051 H1067 0.961 . S
C1052 C1053 1.370 . S
C1052 C1054 1.363 . S
C1052 H1068 0.935 1_554 S
C1053 C1052 1.370 . S
C1053 C1057 1.408 . S
C1054 C1052 1.363 . S
C1054 C1055 1.370 . S
C1054 C1058 1.524 . S
C1055 C1047 1.503 . S
C1055 C1054 1.370 . S
C1055 C1056 1.403 . S
C1056 C1055 1.403 . S
C1056 C1057 1.404 . S
C1056 C1059 1.539 . S
C1057 C1053 1.408 . S
C1057 C1056 1.404 . S
C1057 H1069 0.930 . S
C1058 C1054 1.524 . S
C1058 H1070 0.956 . S
C1058 H1071 0.961 . S
C1058 H1072 0.961 1_554 S
C1059 C1056 1.539 . S
C1059 H1073 0.958 . S
C1059 H1074 0.961 . S
C1059 H1075 0.960 . S
H1060 C1044 0.931 . S
H1061 C1049 0.929 . S
H1062 C1050 0.960 . S
H1063 C1050 0.962 . S
H1064 C1050 0.960 . S
H1065 C1051 0.961 . S
H1066 C1051 0.961 . S
H1067 C1051 0.961 . S
H1068 C1052 0.935 1_556 S
H1069 C1057 0.930 . S
H1070 C1058 0.956 . S
H1071 C1058 0.961 . S
H1072 C1058 0.961 1_556 S
H1073 C1059 0.958 . S
H1074 C1059 0.961 . S
H1075 C1059 0.960 . S
C1076 C1077 1.391 . S
C1076 C1078 1.394 . S
C1076 H1092 0.931 . S
C1077 C1076 1.391 . S
C1077 C1081 1.376 . S
C1078 C1076 1.394 . S
C1078 C1079 1.369 . S
C1078 C1082 1.531 . S
C1079 C1078 1.369 . S
C1079 C1080 1.410 . S
C1079 C1087 1.503 . S
C1080 C1079 1.410 . S
C1080 C1081 1.392 . S
C1080 C1083 1.511 . S
C1081 C1077 1.376 . S
C1081 C1080 1.392 . S
C1081 H1093 0.929 . S
C1082 C1078 1.531 . S
C1082 H1094 0.960 . S
C1082 H1095 0.962 . S
C1082 H1096 0.960 . S
C1083 C1080 1.511 . S
C1083 H1097 0.961 . S
C1083 H1098 0.961 . S
C1083 H1099 0.961 . S
C1084 C1085 1.370 . S
C1084 C1086 1.363 . S
C1084 H1100 0.931 . S
C1085 C1084 1.370 . S
C1085 C1089 1.408 . S
C1086 C1084 1.363 . S
C1086 C1087 1.370 . S
C1086 C1090 1.524 . S
C1087 C1079 1.503 . S
C1087 C1086 1.370 . S
C1087 C1088 1.403 . S
C1088 C1087 1.403 . S
C1088 C1089 1.404 . S
C1088 C1091 1.539 . S
C1089 C1085 1.408 . S
C1089 C1088 1.404 . S
C1089 H1101 0.930 . S
C1090 C1086 1.524 . S
C1090 H1102 0.956 . S
C1090 H1103 0.961 . S
C1090 H1104 0.961 . S
C1091 C1088 1.539 . S
C1091 H1105 0.958 . S
C1091 H1106 0.961 . S
C1091 H1107 0.960 . S
H1092 C1076 0.931 . S
H1093 C1081 0.929 . S
H1094 C1082 0.960 . S
H1095 C1082 0.962 . S
H1096 C1082 0.960 . S
H1097 C1083 0.961 . S
H1098 C1083 0.961 . S
H1099 C1083 0.961 . S
H1100 C1084 0.931 . S
H1101 C1089 0.930 . S
H1102 C1090 0.956 . S
H1103 C1090 0.961 . S
H1104 C1090 0.961 . S
H1105 C1091 0.958 . S
H1106 C1091 0.961 . S
H1107 C1091 0.960 . S
C1108 C1109 1.391 . S
C1108 C1110 1.394 . S
C1108 H1124 0.931 . S
C1109 C1108 1.391 . S
C1109 C1113 1.376 . S
C1110 C1108 1.394 . S
C1110 C1111 1.369 . S
C1110 C1114 1.531 . S
C1111 C1110 1.369 . S
C1111 C1112 1.410 . S
C1111 C1119 1.503 . S
C1112 C1111 1.410 . S
C1112 C1113 1.392 . S
C1112 C1115 1.511 . S
C1113 C1109 1.376 . S
C1113 C1112 1.392 . S
C1113 H1125 0.929 . S
C1114 C1110 1.531 . S
C1114 H1126 0.960 . S
C1114 H1127 0.962 . S
C1114 H1128 0.960 . S
C1115 C1112 1.511 . S
C1115 H1129 0.961 . S
C1115 H1130 0.961 . S
C1115 H1131 0.961 . S
C1116 C1117 1.370 . S
C1116 C1118 1.363 . S
C1116 H1132 0.931 1_554 S
C1117 C1116 1.370 . S
C1117 C1121 1.408 . S
C1118 C1116 1.363 . S
C1118 C1119 1.370 . S
C1118 C1122 1.524 . S
C1119 C1111 1.503 . S
C1119 C1118 1.370 . S
C1119 C1120 1.403 . S
C1120 C1119 1.403 . S
C1120 C1121 1.404 . S
C1120 C1123 1.539 . S
C1121 C1117 1.408 . S
C1121 C1120 1.404 . S
C1121 H1133 0.930 . S
C1122 C1118 1.524 . S
C1122 H1134 0.956 . S
C1122 H1135 0.961 . S
C1122 H1136 0.961 1_554 S
C1123 C1120 1.539 . S
C1123 H1137 0.958 . S
C1123 H1138 0.961 . S
C1123 H1139 0.960 . S
H1124 C1108 0.931 . S
H1125 C1113 0.929 . S
H1126 C1114 0.960 . S
H1127 C1114 0.962 . S
H1128 C1114 0.960 . S
H1129 C1115 0.961 . S
H1130 C1115 0.961 . S
H1131 C1115 0.961 . S
H1132 C1116 0.931 1_556 S
H1133 C1121 0.930 . S
H1134 C1122 0.956 . S
H1135 C1122 0.961 . S
H1136 C1122 0.961 1_556 S
H1137 C1123 0.958 . S
H1138 C1123 0.961 . S
H1139 C1123 0.960 . S
C1140 C1141 1.391 . S
C1140 C1142 1.394 . S
C1140 H1156 0.931 . S
C1141 C1140 1.391 . S
C1141 C1145 1.376 . S
C1142 C1140 1.394 . S
C1142 C1143 1.369 1_655 S
C1142 C1146 1.531 1_655 S
C1143 C1142 1.369 1_455 S
C1143 C1144 1.410 1_455 S
C1143 C1151 1.503 . S
C1144 C1143 1.410 1_655 S
C1144 C1145 1.392 . S
C1144 C1147 1.511 . S
C1145 C1141 1.376 . S
C1145 C1144 1.392 . S
C1145 H1157 0.929 . S
C1146 C1142 1.531 1_455 S
C1146 H1158 0.960 . S
C1146 H1159 0.962 . S
C1146 H1160 0.960 . S
C1147 C1144 1.511 . S
C1147 H1161 0.961 . S
C1147 H1162 0.961 1_655 S
C1147 H1163 0.961 . S
C1148 C1149 1.370 . S
C1148 C1150 1.363 . S
C1148 H1164 0.931 . S
C1149 C1148 1.370 . S
C1149 C1153 1.408 . S
C1150 C1148 1.363 . S
C1150 C1151 1.370 . S
C1150 C1154 1.524 . S
C1151 C1143 1.503 . S
C1151 C1150 1.370 . S
C1151 C1152 1.403 . S
C1152 C1151 1.403 . S
C1152 C1153 1.404 . S
C1152 C1155 1.539 . S
C1153 C1149 1.408 . S
C1153 C1152 1.404 . S
C1153 H1165 0.930 . S
C1154 C1150 1.524 . S
C1154 H1166 0.956 . S
C1154 H1167 0.961 . S
C1154 H1168 0.961 . S
C1155 C1152 1.539 . S
C1155 H1169 0.958 . S
C1155 H1170 0.961 . S
C1155 H1171 0.918 1_455 S
H1156 C1140 0.931 . S
H1157 C1145 0.929 . S
H1158 C1146 0.960 . S
H1159 C1146 0.962 . S
H1160 C1146 0.960 . S
H1161 C1147 0.961 . S
H1162 C1147 0.961 1_455 S
H1163 C1147 0.961 . S
H1164 C1148 0.931 . S
H1165 C1153 0.930 . S
H1166 C1154 0.956 . S
H1167 C1154 0.961 . S
H1168 C1154 0.961 . S
H1169 C1155 0.958 . S
H1170 C1155 0.961 . S
H1171 C1155 0.918 1_655 S
C1172 C1173 1.391 . S
C1172 C1174 1.394 . S
C1172 H1188 0.931 . S
C1173 C1172 1.391 . S
C1173 C1177 1.376 . S
C1174 C1172 1.394 . S
C1174 C1175 1.369 . S
C1174 C1178 1.531 . S
C1175 C1174 1.369 . S
C1175 C1176 1.410 . S
C1175 C1183 1.503 . S
C1176 C1175 1.410 . S
C1176 C1177 1.392 . S
C1176 C1179 1.511 . S
C1177 C1173 1.376 . S
C1177 C1176 1.392 . S
C1177 H1189 0.929 . S
C1178 C1174 1.531 . S
C1178 H1190 0.960 . S
C1178 H1191 0.962 . S
C1178 H1192 0.960 . S
C1179 C1176 1.511 . S
C1179 H1193 0.961 . S
C1179 H1194 0.961 . S
C1179 H1195 0.961 . S
C1180 C1181 1.370 . S
C1180 C1182 1.363 . S
C1180 H1196 0.931 . S
C1181 C1180 1.370 . S
C1181 C1185 1.408 . S
C1182 C1180 1.363 . S
C1182 C1183 1.370 . S
C1182 C1186 1.524 . S
C1183 C1175 1.503 . S
C1183 C1182 1.370 . S
C1183 C1184 1.403 . S
C1184 C1183 1.403 . S
C1184 C1185 1.404 . S
C1184 C1187 1.539 . S
C1185 C1181 1.408 . S
C1185 C1184 1.404 . S
C1185 H1197 0.930 . S
C1186 C1182 1.524 . S
C1186 H1198 0.956 . S
C1186 H1199 0.961 . S
C1186 H1200 0.961 . S
C1187 C1184 1.539 . S
C1187 H1201 0.958 . S
C1187 H1202 0.961 . S
C1187 H1203 0.960 . S
H1188 C1172 0.931 . S
H1189 C1177 0.929 . S
H1190 C1178 0.960 . S
H1191 C1178 0.962 . S
H1192 C1178 0.960 . S
H1193 C1179 0.961 . S
H1194 C1179 0.961 . S
H1195 C1179 0.961 . S
H1196 C1180 0.931 . S
H1197 C1185 0.930 . S
H1198 C1186 0.956 . S
H1199 C1186 0.961 . S
H1200 C1186 0.961 . S
H1201 C1187 0.958 . S
H1202 C1187 0.961 . S
H1203 C1187 0.960 . S
C1204 C1205 1.391 . S
C1204 C1206 1.394 . S
C1204 H1220 0.931 . S
C1205 C1204 1.391 . S
C1205 C1209 1.376 . S
C1206 C1204 1.394 . S
C1206 C1207 1.369 1_545 S
C1206 C1210 1.531 1_545 S
C1207 C1206 1.369 1_565 S
C1207 C1208 1.410 1_565 S
C1207 C1215 1.503 . S
C1208 C1207 1.410 1_545 S
C1208 C1209 1.392 . S
C1208 C1211 1.511 1_545 S
C1209 C1205 1.376 . S
C1209 C1208 1.392 . S
C1209 H1221 0.929 . S
C1210 C1206 1.531 1_565 S
C1210 H1222 0.960 . S
C1210 H1223 0.962 . S
C1210 H1224 0.953 1_565 S
C1211 C1208 1.511 1_565 S
C1211 H1225 0.961 1_565 S
C1211 H1226 0.961 . S
C1211 H1227 0.961 . S
C1212 C1213 1.370 . S
C1212 C1214 1.363 . S
C1212 H1228 0.931 . S
C1213 C1212 1.370 . S
C1213 C1217 1.408 . S
C1214 C1212 1.363 . S
C1214 C1215 1.370 . S
C1214 C1218 1.524 . S
C1215 C1207 1.503 . S
C1215 C1214 1.370 . S
C1215 C1216 1.403 . S
C1216 C1215 1.403 . S
C1216 C1217 1.404 . S
C1216 C1219 1.539 . S
C1217 C1213 1.408 . S
C1217 C1216 1.404 . S
C1217 H1229 0.930 . S
C1218 C1214 1.524 . S
C1218 H1230 0.956 . S
C1218 H1231 0.961 . S
C1218 H1232 0.961 . S
C1219 C1216 1.539 . S
C1219 H1233 0.958 . S
C1219 H1234 0.961 . S
C1219 H1235 0.960 . S
H1220 C1204 0.931 . S
H1221 C1209 0.929 . S
H1222 C1210 0.960 . S
H1223 C1210 0.962 . S
H1224 C1210 0.953 1_545 S
H1225 C1211 0.961 1_545 S
H1226 C1211 0.961 . S
H1227 C1211 0.961 . S
H1228 C1212 0.931 . S
H1229 C1217 0.930 . S
H1230 C1218 0.956 . S
H1231 C1218 0.961 . S
H1232 C1218 0.961 . S
H1233 C1219 0.958 . S
H1234 C1219 0.961 . S
H1235 C1219 0.960 . S
C1236 C1237 1.391 . S
C1236 C1238 1.394 . S
C1236 H1252 0.931 . S
C1237 C1236 1.391 . S
C1237 C1241 1.376 . S
C1238 C1236 1.394 . S
C1238 C1239 1.369 . S
C1238 C1242 1.531 . S
C1239 C1238 1.369 . S
C1239 C1240 1.410 . S
C1239 C1247 1.503 . S
C1240 C1239 1.410 . S
C1240 C1241 1.392 . S
C1240 C1243 1.511 . S
C1241 C1237 1.376 . S
C1241 C1240 1.392 . S
C1241 H1253 0.929 . S
C1242 C1238 1.531 . S
C1242 H1254 0.960 . S
C1242 H1255 0.962 . S
C1242 H1256 0.960 . S
C1243 C1240 1.511 . S
C1243 H1257 0.961 . S
C1243 H1258 0.961 . S
C1243 H1259 0.961 . S
C1244 C1245 1.370 . S
C1244 C1246 1.363 . S
C1244 H1260 0.931 . S
C1245 C1244 1.370 . S
C1245 C1249 1.408 . S
C1246 C1244 1.363 . S
C1246 C1247 1.370 . S
C1246 C1250 1.524 . S
C1247 C1239 1.503 . S
C1247 C1246 1.370 . S
C1247 C1248 1.403 . S
C1248 C1247 1.403 . S
C1248 C1249 1.404 . S
C1248 C1251 1.539 . S
C1249 C1245 1.408 . S
C1249 C1248 1.404 . S
C1249 H1261 0.930 . S
C1250 C1246 1.524 . S
C1250 H1262 0.956 . S
C1250 H1263 0.961 . S
C1250 H1264 0.961 . S
C1251 C1248 1.539 . S
C1251 H1265 0.958 . S
C1251 H1266 0.961 . S
C1251 H1267 0.960 . S
H1252 C1236 0.931 . S
H1253 C1241 0.929 . S
H1254 C1242 0.960 . S
H1255 C1242 0.962 . S
H1256 C1242 0.960 . S
H1257 C1243 0.961 . S
H1258 C1243 0.961 . S
H1259 C1243 0.961 . S
H1260 C1244 0.931 . S
H1261 C1249 0.930 . S
H1262 C1250 0.956 . S
H1263 C1250 0.961 . S
H1264 C1250 0.961 . S
H1265 C1251 0.958 . S
H1266 C1251 0.961 . S
H1267 C1251 0.960 . S
C1268 C1269 1.391 . S
C1268 C1270 1.394 . S
C1268 H1284 0.931 . S
C1269 C1268 1.391 . S
C1269 C1273 1.376 . S
C1270 C1268 1.394 . S
C1270 C1271 1.369 . S
C1270 C1274 1.531 . S
C1271 C1270 1.369 . S
C1271 C1272 1.410 . S
C1271 C1279 1.503 . S
C1272 C1271 1.410 . S
C1272 C1273 1.392 . S
C1272 C1275 1.511 . S
C1273 C1269 1.376 . S
C1273 C1272 1.392 . S
C1273 H1285 0.929 . S
C1274 C1270 1.531 . S
C1274 H1286 0.960 . S
C1274 H1287 0.962 . S
C1274 H1288 0.960 . S
C1275 C1272 1.511 . S
C1275 H1289 0.961 . S
C1275 H1290 0.961 . S
C1275 H1291 0.961 . S
C1276 C1277 1.370 . S
C1276 C1278 1.363 . S
C1276 H1292 0.931 . S
C1277 C1276 1.370 . S
C1277 C1281 1.408 . S
C1278 C1276 1.363 . S
C1278 C1279 1.370 . S
C1278 C1282 1.524 . S
C1279 C1271 1.503 . S
C1279 C1278 1.370 . S
C1279 C1280 1.403 . S
C1280 C1279 1.403 . S
C1280 C1281 1.404 . S
C1280 C1283 1.539 . S
C1281 C1277 1.408 . S
C1281 C1280 1.404 . S
C1281 H1293 0.930 . S
C1282 C1278 1.524 . S
C1282 H1294 0.956 . S
C1282 H1295 0.961 . S
C1282 H1296 0.961 . S
C1283 C1280 1.539 . S
C1283 H1297 0.958 . S
C1283 H1298 0.961 . S
C1283 H1299 0.960 . S
H1284 C1268 0.931 . S
H1285 C1273 0.929 . S
H1286 C1274 0.960 . S
H1287 C1274 0.962 . S
H1288 C1274 0.960 . S
H1289 C1275 0.961 . S
H1290 C1275 0.961 . S
H1291 C1275 0.961 . S
H1292 C1276 0.931 . S
H1293 C1281 0.930 . S
H1294 C1282 0.956 . S
H1295 C1282 0.961 . S
H1296 C1282 0.961 . S
H1297 C1283 0.958 . S
H1298 C1283 0.961 . S
H1299 C1283 0.960 . S
C1300 C1301 1.391 . S
C1300 C1302 1.394 . S
C1300 H1316 0.931 . S
C1301 C1300 1.391 . S
C1301 C1305 1.376 . S
C1302 C1300 1.394 . S
C1302 C1303 1.369 . S
C1302 C1306 1.531 . S
C1303 C1302 1.369 . S
C1303 C1304 1.410 . S
C1303 C1311 1.503 . S
C1304 C1303 1.410 . S
C1304 C1305 1.392 . S
C1304 C1307 1.511 . S
C1305 C1301 1.376 . S
C1305 C1304 1.392 . S
C1305 H1317 0.929 . S
C1306 C1302 1.531 . S
C1306 H1318 0.960 . S
C1306 H1319 0.962 . S
C1306 H1320 0.960 . S
C1307 C1304 1.511 . S
C1307 H1321 0.961 . S
C1307 H1322 0.961 . S
C1307 H1323 0.961 . S
C1308 C1309 1.370 . S
C1308 C1310 1.363 . S
C1308 H1324 0.931 . S
C1309 C1308 1.370 . S
C1309 C1313 1.408 . S
C1310 C1308 1.363 . S
C1310 C1311 1.370 . S
C1310 C1314 1.524 . S
C1311 C1303 1.503 . S
C1311 C1310 1.370 . S
C1311 C1312 1.403 . S
C1312 C1311 1.403 . S
C1312 C1313 1.404 . S
C1312 C1315 1.539 . S
C1313 C1309 1.408 . S
C1313 C1312 1.404 . S
C1313 H1325 0.930 . S
C1314 C1310 1.524 . S
C1314 H1326 0.956 . S
C1314 H1327 0.961 . S
C1314 H1328 0.961 . S
C1315 C1312 1.539 . S
C1315 H1329 0.958 . S
C1315 H1330 0.961 . S
C1315 H1331 0.960 . S
H1316 C1300 0.931 . S
H1317 C1305 0.929 . S
H1318 C1306 0.960 . S
H1319 C1306 0.962 . S
H1320 C1306 0.960 . S
H1321 C1307 0.961 . S
H1322 C1307 0.961 . S
H1323 C1307 0.961 . S
H1324 C1308 0.931 . S
H1325 C1313 0.930 . S
H1326 C1314 0.956 . S
H1327 C1314 0.961 . S
H1328 C1314 0.961 . S
H1329 C1315 0.958 . S
H1330 C1315 0.961 . S
H1331 C1315 0.960 . S
C1332 C1333 1.391 . S
C1332 C1334 1.394 . S
C1332 H1348 0.931 . S
C1333 C1332 1.391 . S
C1333 C1337 1.376 . S
C1334 C1332 1.394 . S
C1334 C1335 1.369 . S
C1334 C1338 1.531 . S
C1335 C1334 1.369 . S
C1335 C1336 1.410 . S
C1335 C1343 1.503 . S
C1336 C1335 1.410 . S
C1336 C1337 1.392 . S
C1336 C1339 1.511 . S
C1337 C1333 1.376 . S
C1337 C1336 1.392 . S
C1337 H1349 0.929 . S
C1338 C1334 1.531 . S
C1338 H1350 0.960 . S
C1338 H1351 0.962 . S
C1338 H1352 0.960 . S
C1339 C1336 1.511 . S
C1339 H1353 0.961 . S
C1339 H1354 0.961 . S
C1339 H1355 0.961 . S
C1340 C1341 1.370 . S
C1340 C1342 1.363 . S
C1340 H1356 0.931 . S
C1341 C1340 1.370 . S
C1341 C1345 1.408 . S
C1342 C1340 1.363 . S
C1342 C1343 1.370 . S
C1342 C1346 1.524 . S
C1343 C1335 1.503 . S
C1343 C1342 1.370 . S
C1343 C1344 1.403 . S
C1344 C1343 1.403 . S
C1344 C1345 1.404 . S
C1344 C1347 1.539 . S
C1345 C1341 1.408 . S
C1345 C1344 1.404 . S
C1345 H1357 0.930 . S
C1346 C1342 1.524 . S
C1346 H1358 0.956 . S
C1346 H1359 0.961 . S
C1346 H1360 0.961 . S
C1347 C1344 1.539 . S
C1347 H1361 0.958 . S
C1347 H1362 0.961 . S
C1347 H1363 0.960 . S
H1348 C1332 0.931 . S
H1349 C1337 0.929 . S
H1350 C1338 0.960 . S
H1351 C1338 0.962 . S
H1352 C1338 0.960 . S
H1353 C1339 0.961 . S
H1354 C1339 0.961 . S
H1355 C1339 0.961 . S
H1356 C1340 0.931 . S
H1357 C1345 0.930 . S
H1358 C1346 0.956 . S
H1359 C1346 0.961 . S
H1360 C1346 0.961 . S
H1361 C1347 0.958 . S
H1362 C1347 0.961 . S
H1363 C1347 0.960 . S
C1364 C1365 1.391 . S
C1364 C1366 1.394 . S
C1364 H1380 0.931 . S
C1365 C1364 1.391 . S
C1365 C1369 1.376 . S
C1366 C1364 1.394 . S
C1366 C1367 1.369 . S
C1366 C1370 1.531 . S
C1367 C1366 1.369 . S
C1367 C1368 1.410 . S
C1367 C1375 1.503 . S
C1368 C1367 1.410 . S
C1368 C1369 1.392 . S
C1368 C1371 1.511 . S
C1369 C1365 1.376 . S
C1369 C1368 1.392 . S
C1369 H1381 0.929 . S
C1370 C1366 1.531 . S
C1370 H1382 0.960 . S
C1370 H1383 0.962 . S
C1370 H1384 0.960 . S
C1371 C1368 1.511 . S
C1371 H1385 0.961 . S
C1371 H1386 0.961 . S
C1371 H1387 0.961 . S
C1372 C1373 1.370 . S
C1372 C1374 1.363 . S
C1372 H1388 0.931 . S
C1373 C1372 1.370 . S
C1373 C1377 1.408 . S
C1374 C1372 1.363 . S
C1374 C1375 1.370 . S
C1374 C1378 1.524 . S
C1375 C1367 1.503 . S
C1375 C1374 1.370 . S
C1375 C1376 1.403 . S
C1376 C1375 1.403 . S
C1376 C1377 1.404 . S
C1376 C1379 1.539 . S
C1377 C1373 1.408 . S
C1377 C1376 1.404 . S
C1377 H1389 0.930 . S
C1378 C1374 1.524 . S
C1378 H1390 0.956 . S
C1378 H1391 0.961 . S
C1378 H1392 0.961 . S
C1379 C1376 1.539 . S
C1379 H1393 0.958 . S
C1379 H1394 0.961 . S
C1379 H1395 0.960 . S
H1380 C1364 0.931 . S
H1381 C1369 0.929 . S
H1382 C1370 0.960 . S
H1383 C1370 0.962 . S
H1384 C1370 0.960 . S
H1385 C1371 0.961 . S
H1386 C1371 0.961 . S
H1387 C1371 0.961 . S
H1388 C1372 0.931 . S
H1389 C1377 0.930 . S
H1390 C1378 0.956 . S
H1391 C1378 0.961 . S
H1392 C1378 0.961 . S
H1393 C1379 0.958 . S
H1394 C1379 0.961 . S
H1395 C1379 0.960 . S
C1396 C1397 1.391 . S
C1396 C1398 1.394 . S
C1396 H1412 0.931 . S
C1397 C1396 1.391 . S
C1397 C1401 1.376 . S
C1398 C1396 1.394 . S
C1398 C1399 1.369 . S
C1398 C1402 1.531 . S
C1399 C1398 1.369 . S
C1399 C1400 1.410 . S
C1399 C1407 1.503 . S
C1400 C1399 1.410 . S
C1400 C1401 1.392 . S
C1400 C1403 1.511 . S
C1401 C1397 1.376 . S
C1401 C1400 1.392 . S
C1401 H1413 0.929 . S
C1402 C1398 1.531 . S
C1402 H1414 0.960 . S
C1402 H1415 0.962 . S
C1402 H1416 0.960 . S
C1403 C1400 1.511 . S
C1403 H1417 0.961 . S
C1403 H1418 0.961 . S
C1403 H1419 0.961 . S
C1404 C1405 1.370 . S
C1404 C1406 1.363 . S
C1404 H1420 0.931 . S
C1405 C1404 1.370 . S
C1405 C1409 1.408 . S
C1406 C1404 1.363 . S
C1406 C1407 1.370 . S
C1406 C1410 1.524 . S
C1407 C1399 1.503 . S
C1407 C1406 1.370 . S
C1407 C1408 1.403 . S
C1408 C1407 1.403 . S
C1408 C1409 1.404 . S
C1408 C1411 1.539 . S
C1409 C1405 1.408 . S
C1409 C1408 1.404 . S
C1409 H1421 0.930 . S
C1410 C1406 1.524 . S
C1410 H1422 0.956 . S
C1410 H1423 0.961 . S
C1410 H1424 0.961 . S
C1411 C1408 1.539 . S
C1411 H1425 0.958 . S
C1411 H1426 0.961 . S
C1411 H1427 0.960 . S
H1412 C1396 0.931 . S
H1413 C1401 0.929 . S
H1414 C1402 0.960 . S
H1415 C1402 0.962 . S
H1416 C1402 0.960 . S
H1417 C1403 0.961 . S
H1418 C1403 0.961 . S
H1419 C1403 0.961 . S
H1420 C1404 0.931 . S
H1421 C1409 0.930 . S
H1422 C1410 0.956 . S
H1423 C1410 0.961 . S
H1424 C1410 0.961 . S
H1425 C1411 0.958 . S
H1426 C1411 0.961 . S
H1427 C1411 0.960 . S
C1428 C1429 1.391 . S
C1428 C1430 1.394 1_545 S
C1428 H1444 0.931 . S
C1429 C1428 1.391 . S
C1429 C1433 1.376 . S
C1430 C1428 1.394 1_565 S
C1430 C1431 1.369 . S
C1430 C1434 1.531 . S
C1431 C1430 1.369 . S
C1431 C1432 1.410 1_565 S
C1431 C1439 1.503 . S
C1432 C1431 1.410 1_545 S
C1432 C1433 1.392 . S
C1432 C1435 1.511 1_545 S
C1433 C1429 1.376 . S
C1433 C1432 1.392 . S
C1433 H1445 0.929 . S
C1434 C1430 1.531 . S
C1434 H1446 0.960 . S
C1434 H1447 0.962 . S
C1434 H1448 0.960 . S
C1435 C1432 1.511 1_565 S
C1435 H1449 0.961 1_565 S
C1435 H1450 0.961 . S
C1435 H1451 0.961 . S
C1436 C1437 1.370 . S
C1436 C1438 1.363 . S
C1436 H1452 0.931 . S
C1437 C1436 1.370 . S
C1437 C1441 1.408 . S
C1438 C1436 1.363 . S
C1438 C1439 1.370 . S
C1438 C1442 1.524 . S
C1439 C1431 1.503 . S
C1439 C1438 1.370 . S
C1439 C1440 1.403 . S
C1440 C1439 1.403 . S
C1440 C1441 1.404 . S
C1440 C1443 1.539 . S
C1441 C1437 1.408 . S
C1441 C1440 1.404 . S
C1441 H1453 0.930 . S
C1442 C1438 1.524 . S
C1442 H1454 0.956 . S
C1442 H1455 0.961 . S
C1442 H1456 0.961 . S
C1443 C1440 1.539 . S
C1443 H1457 0.958 . S
C1443 H1458 0.961 . S
C1443 H1459 0.960 . S
H1444 C1428 0.931 . S
H1445 C1433 0.929 . S
H1446 C1434 0.960 . S
H1447 C1434 0.962 . S
H1448 C1434 0.960 . S
H1449 C1435 0.961 1_545 S
H1450 C1435 0.961 . S
H1451 C1435 0.961 . S
H1452 C1436 0.931 . S
H1453 C1441 0.930 . S
H1454 C1442 0.956 . S
H1455 C1442 0.961 . S
H1456 C1442 0.961 . S
H1457 C1443 0.958 . S
H1458 C1443 0.961 . S
H1459 C1443 0.960 . S
C1460 C1461 1.391 . S
C1460 C1462 1.394 . S
C1460 H1476 0.931 . S
C1461 C1460 1.391 . S
C1461 C1465 1.376 . S
C1462 C1460 1.394 . S
C1462 C1463 1.369 1_655 S
C1462 C1466 1.531 1_655 S
C1463 C1462 1.369 1_455 S
C1463 C1464 1.410 . S
C1463 C1471 1.503 . S
C1464 C1463 1.410 . S
C1464 C1465 1.392 1_455 S
C1464 C1467 1.511 . S
C1465 C1461 1.376 . S
C1465 C1464 1.392 1_655 S
C1465 H1477 0.929 . S
C1466 C1462 1.531 1_455 S
C1466 H1478 0.960 . S
C1466 H1479 0.962 . S
C1466 H1480 0.960 1_455 S
C1467 C1464 1.511 . S
C1467 H1481 0.961 . S
C1467 H1482 0.961 . S
C1467 H1483 0.961 . S
C1468 C1469 1.370 . S
C1468 C1470 1.363 . S
C1468 H1484 0.931 . S
C1469 C1468 1.370 . S
C1469 C1473 1.408 . S
C1470 C1468 1.363 . S
C1470 C1471 1.370 . S
C1470 C1474 1.524 . S
C1471 C1463 1.503 . S
C1471 C1470 1.370 . S
C1471 C1472 1.403 . S
C1472 C1471 1.403 . S
C1472 C1473 1.404 . S
C1472 C1475 1.539 . S
C1473 C1469 1.408 . S
C1473 C1472 1.404 . S
C1473 H1485 0.930 . S
C1474 C1470 1.524 . S
C1474 H1486 0.956 . S
C1474 H1487 0.961 . S
C1474 H1488 0.961 . S
C1475 C1472 1.539 . S
C1475 H1489 0.958 . S
C1475 H1490 0.961 . S
C1475 H1491 0.960 . S
H1476 C1460 0.931 . S
H1477 C1465 0.929 . S
H1478 C1466 0.960 . S
H1479 C1466 0.962 . S
H1480 C1466 0.960 1_655 S
H1481 C1467 0.961 . S
H1482 C1467 0.961 . S
H1483 C1467 0.961 . S
H1484 C1468 0.931 . S
H1485 C1473 0.930 . S
H1486 C1474 0.956 . S
H1487 C1474 0.961 . S
H1488 C1474 0.961 . S
H1489 C1475 0.958 . S
H1490 C1475 0.961 . S
H1491 C1475 0.960 . S
C1492 C1493 1.391 . S
C1492 C1494 1.394 . S
C1492 H1508 0.931 . S
C1493 C1492 1.391 . S
C1493 C1497 1.376 . S
C1494 C1492 1.394 . S
C1494 C1495 1.369 . S
C1494 C1498 1.531 . S
C1495 C1494 1.369 . S
C1495 C1496 1.410 . S
C1495 C1503 1.503 . S
C1496 C1495 1.410 . S
C1496 C1497 1.392 . S
C1496 C1499 1.511 . S
C1497 C1493 1.376 . S
C1497 C1496 1.392 . S
C1497 H1509 0.929 . S
C1498 C1494 1.531 . S
C1498 H1510 0.960 . S
C1498 H1511 0.962 . S
C1498 H1512 0.960 . S
C1499 C1496 1.511 . S
C1499 H1513 0.961 . S
C1499 H1514 0.961 . S
C1499 H1515 0.961 . S
C1500 C1501 1.370 . S
C1500 C1502 1.363 . S
C1500 H1516 0.931 . S
C1501 C1500 1.370 . S
C1501 C1505 1.408 . S
C1502 C1500 1.363 . S
C1502 C1503 1.370 . S
C1502 C1506 1.524 . S
C1503 C1495 1.503 . S
C1503 C1502 1.370 . S
C1503 C1504 1.403 . S
C1504 C1503 1.403 . S
C1504 C1505 1.404 . S
C1504 C1507 1.539 . S
C1505 C1501 1.408 . S
C1505 C1504 1.404 . S
C1505 H1517 0.930 . S
C1506 C1502 1.524 . S
C1506 H1518 0.956 . S
C1506 H1519 0.961 . S
C1506 H1520 0.961 . S
C1507 C1504 1.539 . S
C1507 H1521 0.958 . S
C1507 H1522 0.961 . S
C1507 H1523 0.960 . S
H1508 C1492 0.931 . S
H1509 C1497 0.929 . S
H1510 C1498 0.960 . S
H1511 C1498 0.962 . S
H1512 C1498 0.960 . S
H1513 C1499 0.961 . S
H1514 C1499 0.961 . S
H1515 C1499 0.961 . S
H1516 C1500 0.931 . S
H1517 C1505 0.930 . S
H1518 C1506 0.956 . S
H1519 C1506 0.961 . S
H1520 C1506 0.961 . S
H1521 C1507 0.958 . S
H1522 C1507 0.961 . S
H1523 C1507 0.960 . S
C1524 C1525 1.391 . S
C1524 C1526 1.394 . S
C1524 H1540 0.931 . S
C1525 C1524 1.391 . S
C1525 C1529 1.376 . S
C1526 C1524 1.394 . S
C1526 C1527 1.369 . S
C1526 C1530 1.531 . S
C1527 C1526 1.369 . S
C1527 C1528 1.410 . S
C1527 C1535 1.503 . S
C1528 C1527 1.410 . S
C1528 C1529 1.392 . S
C1528 C1531 1.511 . S
C1529 C1525 1.376 . S
C1529 C1528 1.392 . S
C1529 H1541 0.929 . S
C1530 C1526 1.531 . S
C1530 H1542 0.960 . S
C1530 H1543 0.962 . S
C1530 H1544 0.960 . S
C1531 C1528 1.511 . S
C1531 H1545 0.961 . S
C1531 H1546 0.961 . S
C1531 H1547 0.961 . S
C1532 C1533 1.370 . S
C1532 C1534 1.363 . S
C1532 H1548 0.931 . S
C1533 C1532 1.370 . S
C1533 C1537 1.408 . S
C1534 C1532 1.363 . S
C1534 C1535 1.370 . S
C1534 C1538 1.524 . S
C1535 C1527 1.503 . S
C1535 C1534 1.370 . S
C1535 C1536 1.403 . S
C1536 C1535 1.403 . S
C1536 C1537 1.404 . S
C1536 C1539 1.539 . S
C1537 C1533 1.408 . S
C1537 C1536 1.404 . S
C1537 H1549 0.930 . S
C1538 C1534 1.524 . S
C1538 H1550 0.956 . S
C1538 H1551 0.961 . S
C1538 H1552 0.961 . S
C1539 C1536 1.539 . S
C1539 H1553 0.958 . S
C1539 H1554 0.961 . S
C1539 H1555 0.960 . S
H1540 C1524 0.931 . S
H1541 C1529 0.929 . S
H1542 C1530 0.960 . S
H1543 C1530 0.962 . S
H1544 C1530 0.960 . S
H1545 C1531 0.961 . S
H1546 C1531 0.961 . S
H1547 C1531 0.961 . S
H1548 C1532 0.931 . S
H1549 C1537 0.930 . S
H1550 C1538 0.956 . S
H1551 C1538 0.961 . S
H1552 C1538 0.961 . S
H1553 C1539 0.958 . S
H1554 C1539 0.961 . S
H1555 C1539 0.960 . S
C1556 C1557 1.391 . S
C1556 C1558 1.394 . S
C1556 H1572 0.931 . S
C1557 C1556 1.391 . S
C1557 C1561 1.376 . S
C1558 C1556 1.394 . S
C1558 C1559 1.369 . S
C1558 C1562 1.531 . S
C1559 C1558 1.369 . S
C1559 C1560 1.410 . S
C1559 C1567 1.503 . S
C1560 C1559 1.410 . S
C1560 C1561 1.392 . S
C1560 C1563 1.511 . S
C1561 C1557 1.376 . S
C1561 C1560 1.392 . S
C1561 H1573 0.929 . S
C1562 C1558 1.531 . S
C1562 H1574 0.960 . S
C1562 H1575 0.962 . S
C1562 H1576 0.960 . S
C1563 C1560 1.511 . S
C1563 H1577 0.961 . S
C1563 H1578 0.961 . S
C1563 H1579 0.961 . S
C1564 C1565 1.370 . S
C1564 C1566 1.363 . S
C1564 H1580 0.931 . S
C1565 C1564 1.370 . S
C1565 C1569 1.408 . S
C1566 C1564 1.363 . S
C1566 C1567 1.370 . S
C1566 C1570 1.524 . S
C1567 C1559 1.503 . S
C1567 C1566 1.370 . S
C1567 C1568 1.403 . S
C1568 C1567 1.403 . S
C1568 C1569 1.404 . S
C1568 C1571 1.539 . S
C1569 C1565 1.408 . S
C1569 C1568 1.404 . S
C1569 H1581 0.930 . S
C1570 C1566 1.524 . S
C1570 H1582 0.956 . S
C1570 H1583 0.961 . S
C1570 H1584 0.961 . S
C1571 C1568 1.539 . S
C1571 H1585 0.958 . S
C1571 H1586 0.961 . S
C1571 H1587 0.960 . S
H1572 C1556 0.931 . S
H1573 C1561 0.929 . S
H1574 C1562 0.960 . S
H1575 C1562 0.962 . S
H1576 C1562 0.960 . S
H1577 C1563 0.961 . S
H1578 C1563 0.961 . S
H1579 C1563 0.961 . S
H1580 C1564 0.931 . S
H1581 C1569 0.930 . S
H1582 C1570 0.956 . S
H1583 C1570 0.961 . S
H1584 C1570 0.961 . S
H1585 C1571 0.958 . S
H1586 C1571 0.961 . S
H1587 C1571 0.960 . S
C1588 C1589 1.391 . S
C1588 C1590 1.394 . S
C1588 H1604 0.931 . S
C1589 C1588 1.391 . S
C1589 C1593 1.376 . S
C1590 C1588 1.394 . S
C1590 C1591 1.369 . S
C1590 C1594 1.531 . S
C1591 C1590 1.369 . S
C1591 C1592 1.410 . S
C1591 C1599 1.503 . S
C1592 C1591 1.410 . S
C1592 C1593 1.392 . S
C1592 C1595 1.511 . S
C1593 C1589 1.376 . S
C1593 C1592 1.392 . S
C1593 H1605 0.929 . S
C1594 C1590 1.531 . S
C1594 H1606 0.960 . S
C1594 H1607 0.962 . S
C1594 H1608 0.960 . S
C1595 C1592 1.511 . S
C1595 H1609 0.961 . S
C1595 H1610 0.961 . S
C1595 H1611 0.961 . S
C1596 C1597 1.370 . S
C1596 C1598 1.363 . S
C1596 H1612 0.931 . S
C1597 C1596 1.370 . S
C1597 C1601 1.408 . S
C1598 C1596 1.363 . S
C1598 C1599 1.370 . S
C1598 C1602 1.524 . S
C1599 C1591 1.503 . S
C1599 C1598 1.370 . S
C1599 C1600 1.403 . S
C1600 C1599 1.403 . S
C1600 C1601 1.404 . S
C1600 C1603 1.539 . S
C1601 C1597 1.408 . S
C1601 C1600 1.404 . S
C1601 H1613 0.930 . S
C1602 C1598 1.524 . S
C1602 H1614 0.956 . S
C1602 H1615 0.961 . S
C1602 H1616 0.961 . S
C1603 C1600 1.539 . S
C1603 H1617 0.958 . S
C1603 H1618 0.961 . S
C1603 H1619 0.960 . S
H1604 C1588 0.931 . S
H1605 C1593 0.929 . S
H1606 C1594 0.960 . S
H1607 C1594 0.962 . S
H1608 C1594 0.960 . S
H1609 C1595 0.961 . S
H1610 C1595 0.961 . S
H1611 C1595 0.961 . S
H1612 C1596 0.931 . S
H1613 C1601 0.930 . S
H1614 C1602 0.956 . S
H1615 C1602 0.961 . S
H1616 C1602 0.961 . S
H1617 C1603 0.958 . S
H1618 C1603 0.961 . S
H1619 C1603 0.960 . S
C1620 C1621 1.391 . S
C1620 C1622 1.394 . S
C1620 H1636 0.931 . S
C1621 C1620 1.391 . S
C1621 C1625 1.376 . S
C1622 C1620 1.394 . S
C1622 C1623 1.369 1_565 S
C1622 C1626 1.531 1_565 S
C1623 C1622 1.369 1_545 S
C1623 C1624 1.410 . S
C1623 C1631 1.503 . S
C1624 C1623 1.410 . S
C1624 C1625 1.392 1_545 S
C1624 C1627 1.511 . S
C1625 C1621 1.376 . S
C1625 C1624 1.392 1_565 S
C1625 H1637 0.929 . S
C1626 C1622 1.531 1_545 S
C1626 H1638 0.960 . S
C1626 H1639 0.962 . S
C1626 H1640 0.960 1_545 S
C1627 C1624 1.511 . S
C1627 H1641 0.961 . S
C1627 H1642 0.961 . S
C1627 H1643 0.961 . S
C1628 C1629 1.370 . S
C1628 C1630 1.363 . S
C1628 H1644 0.931 . S
C1629 C1628 1.370 . S
C1629 C1633 1.408 . S
C1630 C1628 1.363 . S
C1630 C1631 1.370 . S
C1630 C1634 1.524 . S
C1631 C1623 1.503 . S
C1631 C1630 1.370 . S
C1631 C1632 1.403 . S
C1632 C1631 1.403 . S
C1632 C1633 1.404 . S
C1632 C1635 1.539 . S
C1633 C1629 1.408 . S
C1633 C1632 1.404 . S
C1633 H1645 0.930 . S
C1634 C1630 1.524 . S
C1634 H1646 0.956 . S
C1634 H1647 0.961 . S
C1634 H1648 0.961 . S
C1635 C1632 1.539 . S
C1635 H1649 0.958 . S
C1635 H1650 0.961 . S
C1635 H1651 0.960 . S
H1636 C1620 0.931 . S
H1637 C1625 0.929 . S
H1638 C1626 0.960 . S
H1639 C1626 0.962 . S
H1640 C1626 0.960 1_565 S
H1641 C1627 0.961 . S
H1642 C1627 0.961 . S
H1643 C1627 0.961 . S
H1644 C1628 0.931 . S
H1645 C1633 0.930 . S
H1646 C1634 0.956 . S
H1647 C1634 0.961 . S
H1648 C1634 0.961 . S
H1649 C1635 0.958 . S
H1650 C1635 0.961 . S
H1651 C1635 0.960 . S
C1652 C1653 1.391 . S
C1652 C1654 1.394 1_455 S
C1652 H1668 0.931 . S
C1653 C1652 1.391 . S
C1653 C1657 1.376 . S
C1654 C1652 1.394 1_655 S
C1654 C1655 1.369 . S
C1654 C1658 1.531 . S
C1655 C1654 1.369 . S
C1655 C1656 1.410 1_655 S
C1655 C1663 1.503 . S
C1656 C1655 1.410 1_455 S
C1656 C1657 1.392 . S
C1656 C1659 1.511 . S
C1657 C1653 1.376 . S
C1657 C1656 1.392 . S
C1657 H1669 0.929 . S
C1658 C1654 1.531 . S
C1658 H1670 0.960 . S
C1658 H1671 0.962 . S
C1658 H1672 0.960 . S
C1659 C1656 1.511 . S
C1659 H1673 0.961 . S
C1659 H1674 0.961 1_455 S
C1659 H1675 0.961 . S
C1660 C1661 1.370 . S
C1660 C1662 1.363 . S
C1660 H1676 0.931 . S
C1661 C1660 1.370 . S
C1661 C1665 1.408 . S
C1662 C1660 1.363 . S
C1662 C1663 1.370 . S
C1662 C1666 1.524 . S
C1663 C1655 1.503 . S
C1663 C1662 1.370 . S
C1663 C1664 1.403 . S
C1664 C1663 1.403 . S
C1664 C1665 1.404 . S
C1664 C1667 1.539 . S
C1665 C1661 1.408 . S
C1665 C1664 1.404 . S
C1665 H1677 0.930 . S
C1666 C1662 1.524 . S
C1666 H1678 0.956 . S
C1666 H1679 0.961 . S
C1666 H1680 0.961 . S
C1667 C1664 1.539 . S
C1667 H1681 0.958 . S
C1667 H1682 0.961 . S
C1667 H1683 0.960 . S
H1668 C1652 0.931 . S
H1669 C1657 0.929 . S
H1670 C1658 0.960 . S
H1671 C1658 0.962 . S
H1672 C1658 0.960 . S
H1673 C1659 0.961 . S
H1674 C1659 0.961 1_655 S
H1675 C1659 0.961 . S
H1676 C1660 0.931 . S
H1677 C1665 0.930 . S
H1678 C1666 0.956 . S
H1679 C1666 0.961 . S
H1680 C1666 0.961 . S
H1681 C1667 0.958 . S
H1682 C1667 0.961 . S
H1683 C1667 0.960 . S
C1684 C1685 1.391 . S
C1684 C1686 1.394 . S
C1684 H1700 0.931 . S
C1685 C1684 1.391 . S
C1685 C1689 1.376 . S
C1686 C1684 1.394 . S
C1686 C1687 1.369 . S
C1686 C1690 1.531 . S
C1687 C1686 1.369 . S
C1687 C1688 1.410 . S
C1687 C1695 1.503 . S
C1688 C1687 1.410 . S
C1688 C1689 1.392 . S
C1688 C1691 1.511 . S
C1689 C1685 1.376 . S
C1689 C1688 1.392 . S
C1689 H1701 0.929 . S
C1690 C1686 1.531 . S
C1690 H1702 0.960 . S
C1690 H1703 0.962 . S
C1690 H1704 0.960 . S
C1691 C1688 1.511 . S
C1691 H1705 0.961 . S
C1691 H1706 0.961 . S
C1691 H1707 0.961 . S
C1692 C1693 1.370 . S
C1692 C1694 1.363 . S
C1692 H1708 0.931 . S
C1693 C1692 1.370 . S
C1693 C1697 1.408 . S
C1694 C1692 1.363 . S
C1694 C1695 1.370 . S
C1694 C1698 1.524 . S
C1695 C1687 1.503 . S
C1695 C1694 1.370 . S
C1695 C1696 1.403 . S
C1696 C1695 1.403 . S
C1696 C1697 1.404 . S
C1696 C1699 1.539 . S
C1697 C1693 1.408 . S
C1697 C1696 1.404 . S
C1697 H1709 0.930 . S
C1698 C1694 1.524 . S
C1698 H1710 0.956 . S
C1698 H1711 0.961 . S
C1698 H1712 0.961 . S
C1699 C1696 1.539 . S
C1699 H1713 0.958 . S
C1699 H1714 0.961 . S
C1699 H1715 0.960 . S
H1700 C1684 0.931 . S
H1701 C1689 0.929 . S
H1702 C1690 0.960 . S
H1703 C1690 0.962 . S
H1704 C1690 0.960 . S
H1705 C1691 0.961 . S
H1706 C1691 0.961 . S
H1707 C1691 0.961 . S
H1708 C1692 0.931 . S
H1709 C1697 0.930 . S
H1710 C1698 0.956 . S
H1711 C1698 0.961 . S
H1712 C1698 0.961 . S
H1713 C1699 0.958 . S
H1714 C1699 0.961 . S
H1715 C1699 0.960 . S
C1716 C1717 1.391 . S
C1716 C1718 1.394 . S
C1716 H1732 0.931 . S
C1717 C1716 1.391 . S
C1717 C1721 1.376 . S
C1718 C1716 1.394 . S
C1718 C1719 1.369 1_455 S
C1718 C1722 1.531 . S
C1719 C1718 1.369 1_655 S
C1719 C1720 1.409 . S
C1719 C1727 1.503 . S
C1720 C1719 1.409 . S
C1720 C1721 1.390 1_655 S
C1720 C1723 1.514 . S
C1721 C1717 1.376 . S
C1721 C1720 1.390 1_455 S
C1721 H1733 0.929 . S
C1722 C1718 1.531 . S
C1722 H1734 0.962 1_455 S
C1722 H1735 0.962 . S
C1722 H1736 0.960 . S
C1723 C1720 1.514 . S
C1723 H1737 0.961 . S
C1723 H1738 0.961 . S
C1723 H1739 0.961 . S
C1724 C1725 1.370 . S
C1724 C1726 1.363 . S
C1724 H1740 0.931 . S
C1725 C1724 1.370 . S
C1725 C1729 1.408 . S
C1726 C1724 1.363 . S
C1726 C1727 1.370 . S
C1726 C1730 1.524 . S
C1727 C1719 1.503 . S
C1727 C1726 1.370 . S
C1727 C1728 1.403 . S
C1728 C1727 1.403 . S
C1728 C1729 1.404 . S
C1728 C1731 1.539 . S
C1729 C1725 1.408 . S
C1729 C1728 1.404 . S
C1729 H1741 0.930 . S
C1730 C1726 1.524 . S
C1730 H1742 0.956 . S
C1730 H1743 0.961 . S
C1730 H1744 0.961 . S
C1731 C1728 1.539 . S
C1731 H1745 0.958 . S
C1731 H1746 0.961 . S
C1731 H1747 0.960 . S
H1732 C1716 0.931 . S
H1733 C1721 0.929 . S
H1734 C1722 0.962 1_655 S
H1735 C1722 0.962 . S
H1736 C1722 0.960 . S
H1737 C1723 0.961 . S
H1738 C1723 0.961 . S
H1739 C1723 0.961 . S
H1740 C1724 0.931 . S
H1741 C1729 0.930 . S
H1742 C1730 0.956 . S
H1743 C1730 0.961 . S
H1744 C1730 0.961 . S
H1745 C1731 0.958 . S
H1746 C1731 0.961 . S
H1747 C1731 0.960 . S
C1748 C1749 1.391 . S
C1748 C1750 1.394 . S
C1748 H1764 0.931 . S
C1749 C1748 1.391 . S
C1749 C1753 1.376 . S
C1750 C1748 1.394 . S
C1750 C1751 1.369 . S
C1750 C1754 1.531 . S
C1751 C1750 1.369 . S
C1751 C1752 1.410 . S
C1751 C1759 1.503 . S
C1752 C1751 1.410 . S
C1752 C1753 1.392 . S
C1752 C1755 1.511 . S
C1753 C1749 1.376 . S
C1753 C1752 1.392 . S
C1753 H1765 0.929 . S
C1754 C1750 1.531 . S
C1754 H1766 0.960 . S
C1754 H1767 0.962 . S
C1754 H1768 0.960 . S
C1755 C1752 1.511 . S
C1755 H1769 0.961 . S
C1755 H1770 0.961 . S
C1755 H1771 0.961 . S
C1756 C1757 1.370 . S
C1756 C1758 1.363 . S
C1756 H1772 0.931 . S
C1757 C1756 1.370 . S
C1757 C1761 1.408 . S
C1758 C1756 1.363 . S
C1758 C1759 1.370 . S
C1758 C1762 1.524 . S
C1759 C1751 1.503 . S
C1759 C1758 1.370 . S
C1759 C1760 1.403 . S
C1760 C1759 1.403 . S
C1760 C1761 1.404 . S
C1760 C1763 1.539 . S
C1761 C1757 1.408 . S
C1761 C1760 1.404 . S
C1761 H1773 0.930 . S
C1762 C1758 1.524 . S
C1762 H1774 0.956 . S
C1762 H1775 0.961 . S
C1762 H1776 0.961 . S
C1763 C1760 1.539 . S
C1763 H1777 0.958 . S
C1763 H1778 0.961 . S
C1763 H1779 0.960 . S
H1764 C1748 0.931 . S
H1765 C1753 0.929 . S
H1766 C1754 0.960 . S
H1767 C1754 0.962 . S
H1768 C1754 0.960 . S
H1769 C1755 0.961 . S
H1770 C1755 0.961 . S
H1771 C1755 0.961 . S
H1772 C1756 0.931 . S
H1773 C1761 0.930 . S
H1774 C1762 0.956 . S
H1775 C1762 0.961 . S
H1776 C1762 0.961 . S
H1777 C1763 0.958 . S
H1778 C1763 0.961 . S
H1779 C1763 0.960 . S
C1780 C1781 1.391 . S
C1780 C1782 1.394 1_565 S
C1780 H1796 0.931 . S
C1781 C1780 1.391 . S
C1781 C1785 1.376 . S
C1782 C1780 1.394 1_545 S
C1782 C1783 1.369 . S
C1782 C1786 1.531 . S
C1783 C1782 1.369 . S
C1783 C1784 1.410 1_545 S
C1783 C1791 1.503 . S
C1784 C1783 1.410 1_565 S
C1784 C1785 1.392 . S
C1784 C1787 1.511 1_565 S
C1785 C1781 1.376 . S
C1785 C1784 1.392 . S
C1785 H1797 0.929 . S
C1786 C1782 1.531 . S
C1786 H1798 0.960 . S
C1786 H1799 0.962 . S
C1786 H1800 0.960 . S
C1787 C1784 1.511 1_545 S
C1787 H1801 0.961 1_545 S
C1787 H1802 0.961 . S
C1787 H1803 0.961 . S
C1788 C1789 1.370 . S
C1788 C1790 1.363 . S
C1788 H1804 0.931 . S
C1789 C1788 1.370 . S
C1789 C1793 1.408 . S
C1790 C1788 1.363 . S
C1790 C1791 1.370 . S
C1790 C1794 1.524 . S
C1791 C1783 1.503 . S
C1791 C1790 1.370 . S
C1791 C1792 1.403 . S
C1792 C1791 1.403 . S
C1792 C1793 1.404 . S
C1792 C1795 1.539 . S
C1793 C1789 1.408 . S
C1793 C1792 1.404 . S
C1793 H1805 0.930 . S
C1794 C1790 1.524 . S
C1794 H1806 0.956 . S
C1794 H1807 0.961 . S
C1794 H1808 0.961 . S
C1795 C1792 1.539 . S
C1795 H1809 0.958 . S
C1795 H1810 0.961 . S
C1795 H1811 0.960 . S
H1796 C1780 0.931 . S
H1797 C1785 0.929 . S
H1798 C1786 0.960 . S
H1799 C1786 0.962 . S
H1800 C1786 0.960 . S
H1801 C1787 0.961 1_565 S
H1802 C1787 0.961 . S
H1803 C1787 0.961 . S
H1804 C1788 0.931 . S
H1805 C1793 0.930 . S
H1806 C1794 0.956 . S
H1807 C1794 0.961 . S
H1808 C1794 0.961 . S
H1809 C1795 0.958 . S
H1810 C1795 0.961 . S
H1811 C1795 0.960 . S
C1812 C1813 1.391 . S
C1812 C1814 1.394 . S
C1812 H1828 0.931 . S
C1813 C1812 1.391 . S
C1813 C1817 1.376 . S
C1814 C1812 1.394 . S
C1814 C1815 1.369 . S
C1814 C1818 1.531 . S
C1815 C1814 1.369 . S
C1815 C1816 1.410 . S
C1815 C1823 1.503 . S
C1816 C1815 1.410 . S
C1816 C1817 1.392 . S
C1816 C1819 1.511 . S
C1817 C1813 1.376 . S
C1817 C1816 1.392 . S
C1817 H1829 0.929 . S
C1818 C1814 1.531 . S
C1818 H1830 0.960 . S
C1818 H1831 0.962 . S
C1818 H1832 0.960 . S
C1819 C1816 1.511 . S
C1819 H1833 0.961 . S
C1819 H1834 0.961 . S
C1819 H1835 0.961 . S
C1820 C1821 1.370 . S
C1820 C1822 1.363 . S
C1820 H1836 0.931 . S
C1821 C1820 1.370 . S
C1821 C1825 1.408 . S
C1822 C1820 1.363 . S
C1822 C1823 1.370 . S
C1822 C1826 1.524 . S
C1823 C1815 1.503 . S
C1823 C1822 1.370 . S
C1823 C1824 1.403 . S
C1824 C1823 1.403 . S
C1824 C1825 1.404 . S
C1824 C1827 1.539 . S
C1825 C1821 1.408 . S
C1825 C1824 1.404 . S
C1825 H1837 0.930 . S
C1826 C1822 1.524 . S
C1826 H1838 0.956 . S
C1826 H1839 0.961 . S
C1826 H1840 0.961 . S
C1827 C1824 1.539 . S
C1827 H1841 0.958 . S
C1827 H1842 0.961 . S
C1827 H1843 0.960 . S
H1828 C1812 0.931 . S
H1829 C1817 0.929 . S
H1830 C1818 0.960 . S
H1831 C1818 0.962 . S
H1832 C1818 0.960 . S
H1833 C1819 0.961 . S
H1834 C1819 0.961 . S
H1835 C1819 0.961 . S
H1836 C1820 0.931 . S
H1837 C1825 0.930 . S
H1838 C1826 0.956 . S
H1839 C1826 0.961 . S
H1840 C1826 0.961 . S
H1841 C1827 0.958 . S
H1842 C1827 0.961 . S
H1843 C1827 0.960 . S
C1844 C1845 1.391 . S
C1844 C1846 1.394 . S
C1844 H1860 0.931 . S
C1845 C1844 1.391 . S
C1845 C1849 1.376 . S
C1846 C1844 1.394 . S
C1846 C1847 1.369 . S
C1846 C1850 1.531 . S
C1847 C1846 1.369 . S
C1847 C1848 1.410 . S
C1847 C1855 1.503 . S
C1848 C1847 1.410 . S
C1848 C1849 1.392 . S
C1848 C1851 1.511 . S
C1849 C1845 1.376 . S
C1849 C1848 1.392 . S
C1849 H1861 0.929 . S
C1850 C1846 1.531 . S
C1850 H1862 0.960 . S
C1850 H1863 0.962 . S
C1850 H1864 0.960 . S
C1851 C1848 1.511 . S
C1851 H1865 0.961 . S
C1851 H1866 0.961 . S
C1851 H1867 0.961 . S
C1852 C1853 1.370 . S
C1852 C1854 1.363 . S
C1852 H1868 0.931 . S
C1853 C1852 1.370 . S
C1853 C1857 1.408 . S
C1854 C1852 1.363 . S
C1854 C1855 1.370 . S
C1854 C1858 1.524 . S
C1855 C1847 1.503 . S
C1855 C1854 1.370 . S
C1855 C1856 1.403 . S
C1856 C1855 1.403 . S
C1856 C1857 1.404 . S
C1856 C1859 1.539 . S
C1857 C1853 1.408 . S
C1857 C1856 1.404 . S
C1857 H1869 0.930 . S
C1858 C1854 1.524 . S
C1858 H1870 0.956 . S
C1858 H1871 0.961 . S
C1858 H1872 0.961 . S
C1859 C1856 1.539 . S
C1859 H1873 0.958 . S
C1859 H1874 0.961 . S
C1859 H1875 0.960 . S
H1860 C1844 0.931 . S
H1861 C1849 0.929 . S
H1862 C1850 0.960 . S
H1863 C1850 0.962 . S
H1864 C1850 0.960 . S
H1865 C1851 0.961 . S
H1866 C1851 0.961 . S
H1867 C1851 0.961 . S
H1868 C1852 0.931 . S
H1869 C1857 0.930 . S
H1870 C1858 0.956 . S
H1871 C1858 0.961 . S
H1872 C1858 0.961 . S
H1873 C1859 0.958 . S
H1874 C1859 0.961 . S
H1875 C1859 0.960 . S
C1876 C1877 1.391 . S
C1876 C1878 1.394 . S
C1876 H1892 0.931 . S
C1877 C1876 1.391 . S
C1877 C1881 1.376 . S
C1878 C1876 1.394 . S
C1878 C1879 1.369 . S
C1878 C1882 1.531 . S
C1879 C1878 1.369 . S
C1879 C1880 1.410 . S
C1879 C1887 1.503 . S
C1880 C1879 1.410 . S
C1880 C1881 1.392 . S
C1880 C1883 1.511 . S
C1881 C1877 1.376 . S
C1881 C1880 1.392 . S
C1881 H1893 0.929 . S
C1882 C1878 1.531 . S
C1882 H1894 0.960 . S
C1882 H1895 0.962 . S
C1882 H1896 0.960 . S
C1883 C1880 1.511 . S
C1883 H1897 0.961 . S
C1883 H1898 0.961 . S
C1883 H1899 0.961 . S
C1884 C1885 1.370 . S
C1884 C1886 1.363 . S
C1884 H1900 0.931 . S
C1885 C1884 1.370 . S
C1885 C1889 1.408 . S
C1886 C1884 1.363 . S
C1886 C1887 1.370 . S
C1886 C1890 1.524 . S
C1887 C1879 1.503 . S
C1887 C1886 1.370 . S
C1887 C1888 1.403 . S
C1888 C1887 1.403 . S
C1888 C1889 1.404 . S
C1888 C1891 1.539 . S
C1889 C1885 1.408 . S
C1889 C1888 1.404 . S
C1889 H1901 0.930 . S
C1890 C1886 1.524 . S
C1890 H1902 0.956 . S
C1890 H1903 0.961 . S
C1890 H1904 0.961 . S
C1891 C1888 1.539 . S
C1891 H1905 0.958 . S
C1891 H1906 0.961 . S
C1891 H1907 0.960 . S
H1892 C1876 0.931 . S
H1893 C1881 0.929 . S
H1894 C1882 0.960 . S
H1895 C1882 0.962 . S
H1896 C1882 0.960 . S
H1897 C1883 0.961 . S
H1898 C1883 0.961 . S
H1899 C1883 0.961 . S
H1900 C1884 0.931 . S
H1901 C1889 0.930 . S
H1902 C1890 0.956 . S
H1903 C1890 0.961 . S
H1904 C1890 0.961 . S
H1905 C1891 0.958 . S
H1906 C1891 0.961 . S
H1907 C1891 0.960 . S
C1908 C1909 1.391 . S
C1908 C1910 1.394 . S
C1908 H1924 0.931 . S
C1909 C1908 1.391 . S
C1909 C1913 1.376 . S
C1910 C1908 1.394 . S
C1910 C1911 1.369 . S
C1910 C1914 1.531 1_565 S
C1911 C1910 1.369 . S
C1911 C1912 1.410 . S
C1911 C1919 1.503 . S
C1912 C1911 1.410 . S
C1912 C1913 1.392 . S
C1912 C1915 1.511 . S
C1913 C1909 1.376 . S
C1913 C1912 1.392 . S
C1913 H1925 0.929 . S
C1914 C1910 1.531 1_545 S
C1914 H1926 0.960 . S
C1914 H1927 0.962 1_545 S
C1914 H1928 0.960 . S
C1915 C1912 1.511 . S
C1915 H1929 0.961 . S
C1915 H1930 0.961 . S
C1915 H1931 0.961 . S
C1916 C1917 1.370 . S
C1916 C1918 1.363 . S
C1916 H1932 0.931 . S
C1917 C1916 1.370 . S
C1917 C1921 1.408 1_565 S
C1918 C1916 1.363 . S
C1918 C1919 1.370 . S
C1918 C1922 1.524 . S
C1919 C1911 1.503 . S
C1919 C1918 1.370 . S
C1919 C1920 1.403 1_565 S
C1920 C1919 1.403 1_545 S
C1920 C1921 1.404 . S
C1920 C1923 1.539 . S
C1921 C1917 1.408 1_545 S
C1921 C1920 1.404 . S
C1921 H1933 0.930 . S
C1922 C1918 1.524 . S
C1922 H1934 0.956 . S
C1922 H1935 0.961 . S
C1922 H1936 0.961 . S
C1923 C1920 1.539 . S
C1923 H1937 0.958 . S
C1923 H1938 0.961 . S
C1923 H1939 0.960 . S
H1924 C1908 0.931 . S
H1925 C1913 0.929 . S
H1926 C1914 0.960 . S
H1927 C1914 0.962 1_565 S
H1928 C1914 0.960 . S
H1929 C1915 0.961 . S
H1930 C1915 0.961 . S
H1931 C1915 0.961 . S
H1932 C1916 0.931 . S
H1933 C1921 0.930 . S
H1934 C1922 0.956 . S
H1935 C1922 0.961 . S
H1936 C1922 0.961 . S
H1937 C1923 0.958 . S
H1938 C1923 0.961 . S
H1939 C1923 0.960 . S
C1940 C1941 1.391 . S
C1940 C1942 1.394 . S
C1940 H1956 0.931 . S
C1941 C1940 1.391 . S
C1941 C1945 1.376 . S
C1942 C1940 1.394 . S
C1942 C1943 1.369 . S
C1942 C1946 1.531 . S
C1943 C1942 1.369 . S
C1943 C1944 1.410 . S
C1943 C1951 1.503 . S
C1944 C1943 1.410 . S
C1944 C1945 1.392 . S
C1944 C1947 1.511 . S
C1945 C1941 1.376 . S
C1945 C1944 1.392 . S
C1945 H1957 0.929 . S
C1946 C1942 1.531 . S
C1946 H1958 0.960 . S
C1946 H1959 0.962 1_455 S
C1946 H1960 0.960 . S
C1947 C1944 1.511 . S
C1947 H1961 0.961 . S
C1947 H1962 0.961 . S
C1947 H1963 0.961 . S
C1948 C1949 1.370 . S
C1948 C1950 1.363 . S
C1948 H1964 0.931 1_455 S
C1949 C1948 1.370 . S
C1949 C1953 1.408 . S
C1950 C1948 1.363 . S
C1950 C1951 1.370 . S
C1950 C1954 1.524 1_455 S
C1951 C1943 1.503 . S
C1951 C1950 1.370 . S
C1951 C1952 1.403 . S
C1952 C1951 1.403 . S
C1952 C1953 1.404 . S
C1952 C1955 1.539 . S
C1953 C1949 1.408 . S
C1953 C1952 1.404 . S
C1953 H1965 0.930 . S
C1954 C1950 1.524 1_655 S
C1954 H1966 0.956 . S
C1954 H1967 0.953 1_655 S
C1954 H1968 0.961 . S
C1955 C1952 1.539 . S
C1955 H1969 0.958 . S
C1955 H1970 0.961 . S
C1955 H1971 0.960 . S
H1956 C1940 0.931 . S
H1957 C1945 0.929 . S
H1958 C1946 0.960 . S
H1959 C1946 0.962 1_655 S
H1960 C1946 0.960 . S
H1961 C1947 0.961 . S
H1962 C1947 0.961 . S
H1963 C1947 0.961 . S
H1964 C1948 0.931 1_655 S
H1965 C1953 0.930 . S
H1966 C1954 0.956 . S
H1967 C1954 0.953 1_455 S
H1968 C1954 0.961 . S
H1969 C1955 0.958 . S
H1970 C1955 0.961 . S
H1971 C1955 0.960 . S
C1972 C1973 1.391 . S
C1972 C1974 1.394 . S
C1972 H1988 0.931 . S
C1973 C1972 1.391 . S
C1973 C1977 1.376 . S
C1974 C1972 1.394 . S
C1974 C1975 1.369 . S
C1974 C1978 1.531 . S
C1975 C1974 1.369 . S
C1975 C1976 1.410 . S
C1975 C1983 1.503 . S
C1976 C1975 1.410 . S
C1976 C1977 1.392 . S
C1976 C1979 1.511 . S
C1977 C1973 1.376 . S
C1977 C1976 1.392 . S
C1977 H1989 0.929 . S
C1978 C1974 1.531 . S
C1978 H1990 0.960 . S
C1978 H1991 0.962 . S
C1978 H1992 0.960 . S
C1979 C1976 1.511 . S
C1979 H1993 0.961 . S
C1979 H1994 0.961 . S
C1979 H1995 0.961 . S
C1980 C1981 1.370 . S
C1980 C1982 1.363 . S
C1980 H1996 0.931 . S
C1981 C1980 1.370 . S
C1981 C1985 1.408 . S
C1982 C1980 1.363 . S
C1982 C1983 1.370 . S
C1982 C1986 1.524 . S
C1983 C1975 1.503 . S
C1983 C1982 1.370 . S
C1983 C1984 1.403 . S
C1984 C1983 1.403 . S
C1984 C1985 1.404 . S
C1984 C1987 1.539 . S
C1985 C1981 1.408 . S
C1985 C1984 1.404 . S
C1985 H1997 0.930 . S
C1986 C1982 1.524 . S
C1986 H1998 0.956 . S
C1986 H1999 0.961 . S
C1986 H2000 0.961 . S
C1987 C1984 1.539 . S
C1987 H2001 0.958 . S
C1987 H2002 0.961 . S
C1987 H2003 0.960 . S
H1988 C1972 0.931 . S
H1989 C1977 0.929 . S
H1990 C1978 0.960 . S
H1991 C1978 0.962 . S
H1992 C1978 0.960 . S
H1993 C1979 0.961 . S
H1994 C1979 0.961 . S
H1995 C1979 0.961 . S
H1996 C1980 0.931 . S
H1997 C1985 0.930 . S
H1998 C1986 0.956 . S
H1999 C1986 0.961 . S
H2000 C1986 0.961 . S
H2001 C1987 0.958 . S
H2002 C1987 0.961 . S
H2003 C1987 0.960 . S
C2004 C2005 1.391 . S
C2004 C2006 1.394 . S
C2004 H2020 0.931 . S
C2005 C2004 1.391 . S
C2005 C2009 1.376 . S
C2006 C2004 1.394 . S
C2006 C2007 1.369 . S
C2006 C2010 1.531 1_655 S
C2007 C2006 1.369 . S
C2007 C2008 1.410 . S
C2007 C2015 1.503 . S
C2008 C2007 1.410 . S
C2008 C2009 1.392 . S
C2008 C2011 1.511 . S
C2009 C2005 1.376 . S
C2009 C2008 1.392 . S
C2009 H2021 0.929 . S
C2010 C2006 1.531 1_455 S
C2010 H2022 0.960 . S
C2010 H2023 0.962 1_455 S
C2010 H2024 0.960 . S
C2011 C2008 1.511 . S
C2011 H2025 0.961 . S
C2011 H2026 0.961 . S
C2011 H2027 0.961 . S
C2012 C2013 1.370 . S
C2012 C2014 1.363 . S
C2012 H2028 0.931 . S
C2013 C2012 1.370 . S
C2013 C2017 1.408 1_655 S
C2014 C2012 1.363 . S
C2014 C2015 1.370 . S
C2014 C2018 1.524 . S
C2015 C2007 1.503 . S
C2015 C2014 1.370 . S
C2015 C2016 1.403 1_655 S
C2016 C2015 1.403 1_455 S
C2016 C2017 1.404 . S
C2016 C2019 1.539 . S
C2017 C2013 1.408 1_455 S
C2017 C2016 1.404 . S
C2017 H2029 0.930 . S
C2018 C2014 1.524 . S
C2018 H2030 0.956 . S
C2018 H2031 0.961 . S
C2018 H2032 0.961 . S
C2019 C2016 1.539 . S
C2019 H2033 0.958 . S
C2019 H2034 0.961 . S
C2019 H2035 0.960 . S
H2020 C2004 0.931 . S
H2021 C2009 0.929 . S
H2022 C2010 0.960 . S
H2023 C2010 0.962 1_655 S
H2024 C2010 0.960 . S
H2025 C2011 0.961 . S
H2026 C2011 0.961 . S
H2027 C2011 0.961 . S
H2028 C2012 0.931 . S
H2029 C2017 0.930 . S
H2030 C2018 0.956 . S
H2031 C2018 0.961 . S
H2032 C2018 0.961 . S
H2033 C2019 0.958 . S
H2034 C2019 0.961 . S
H2035 C2019 0.960 . S
C2036 C2037 1.391 . S
C2036 C2038 1.394 . S
C2036 H2052 0.931 . S
C2037 C2036 1.391 . S
C2037 C2041 1.376 . S
C2038 C2036 1.394 . S
C2038 C2039 1.369 . S
C2038 C2042 1.531 . S
C2039 C2038 1.369 . S
C2039 C2040 1.410 . S
C2039 C2047 1.503 . S
C2040 C2039 1.410 . S
C2040 C2041 1.392 . S
C2040 C2043 1.511 . S
C2041 C2037 1.376 . S
C2041 C2040 1.392 . S
C2041 H2053 0.929 . S
C2042 C2038 1.531 . S
C2042 H2054 0.960 . S
C2042 H2055 0.962 . S
C2042 H2056 0.960 . S
C2043 C2040 1.511 . S
C2043 H2057 0.961 . S
C2043 H2058 0.961 . S
C2043 H2059 0.961 . S
C2044 C2045 1.370 . S
C2044 C2046 1.363 . S
C2044 H2060 0.931 . S
C2045 C2044 1.370 . S
C2045 C2049 1.408 . S
C2046 C2044 1.363 . S
C2046 C2047 1.370 . S
C2046 C2050 1.524 . S
C2047 C2039 1.503 . S
C2047 C2046 1.370 . S
C2047 C2048 1.403 . S
C2048 C2047 1.403 . S
C2048 C2049 1.404 . S
C2048 C2051 1.539 . S
C2049 C2045 1.408 . S
C2049 C2048 1.404 . S
C2049 H2061 0.930 . S
C2050 C2046 1.524 . S
C2050 H2062 0.956 . S
C2050 H2063 0.961 . S
C2050 H2064 0.961 . S
C2051 C2048 1.539 . S
C2051 H2065 0.958 . S
C2051 H2066 0.961 . S
C2051 H2067 0.960 . S
H2052 C2036 0.931 . S
H2053 C2041 0.929 . S
H2054 C2042 0.960 . S
H2055 C2042 0.962 . S
H2056 C2042 0.960 . S
H2057 C2043 0.961 . S
H2058 C2043 0.961 . S
H2059 C2043 0.961 . S
H2060 C2044 0.931 . S
H2061 C2049 0.930 . S
H2062 C2050 0.956 . S
H2063 C2050 0.961 . S
H2064 C2050 0.961 . S
H2065 C2051 0.958 . S
H2066 C2051 0.961 . S
H2067 C2051 0.960 . S
C2068 C2069 1.391 . S
C2068 C2070 1.394 . S
C2068 H2084 0.931 . S
C2069 C2068 1.391 . S
C2069 C2073 1.376 . S
C2070 C2068 1.394 . S
C2070 C2071 1.369 . S
C2070 C2074 1.531 . S
C2071 C2070 1.369 . S
C2071 C2072 1.410 . S
C2071 C2079 1.503 . S
C2072 C2071 1.410 . S
C2072 C2073 1.392 . S
C2072 C2075 1.511 . S
C2073 C2069 1.376 . S
C2073 C2072 1.392 . S
C2073 H2085 0.929 . S
C2074 C2070 1.531 . S
C2074 H2086 0.960 . S
C2074 H2087 0.962 . S
C2074 H2088 0.960 . S
C2075 C2072 1.511 . S
C2075 H2089 0.961 1_545 S
C2075 H2090 0.945 1_545 S
C2075 H2091 0.961 . S
C2076 C2077 1.335 1_565 S
C2076 C2078 1.348 1_565 S
C2076 H2092 0.984 . S
C2077 C2076 1.335 1_545 S
C2077 C2081 1.408 . S
C2078 C2076 1.348 1_545 S
C2078 C2079 1.370 . S
C2078 C2082 1.524 1_545 S
C2079 C2071 1.503 . S
C2079 C2078 1.370 . S
C2079 C2080 1.403 . S
C2080 C2079 1.403 . S
C2080 C2081 1.404 . S
C2080 C2083 1.539 . S
C2081 C2077 1.408 . S
C2081 C2080 1.404 . S
C2081 H2093 0.930 . S
C2082 C2078 1.524 1_565 S
C2082 H2094 0.954 1_565 S
C2082 H2095 0.961 . S
C2082 H2096 0.961 . S
C2083 C2080 1.539 . S
C2083 H2097 0.958 . S
C2083 H2098 0.961 . S
C2083 H2099 0.960 . S
H2084 C2068 0.931 . S
H2085 C2073 0.929 . S
H2086 C2074 0.960 . S
H2087 C2074 0.962 . S
H2088 C2074 0.960 . S
H2089 C2075 0.961 1_565 S
H2090 C2075 0.945 1_565 S
H2091 C2075 0.961 . S
H2092 C2076 0.984 . S
H2093 C2081 0.930 . S
H2094 C2082 0.954 1_545 S
H2095 C2082 0.961 . S
H2096 C2082 0.961 . S
H2097 C2083 0.958 . S
H2098 C2083 0.961 . S
H2099 C2083 0.960 . S
C2100 C2101 1.391 . S
C2100 C2102 1.394 . S
C2100 H2116 0.931 . S
C2101 C2100 1.391 . S
C2101 C2105 1.376 . S
C2102 C2100 1.394 . S
C2102 C2103 1.369 . S
C2102 C2106 1.531 . S
C2103 C2102 1.369 . S
C2103 C2104 1.410 . S
C2103 C2111 1.503 . S
C2104 C2103 1.410 . S
C2104 C2105 1.392 . S
C2104 C2107 1.511 . S
C2105 C2101 1.376 . S
C2105 C2104 1.392 . S
C2105 H2117 0.929 . S
C2106 C2102 1.531 . S
C2106 H2118 0.960 . S
C2106 H2119 0.962 . S
C2106 H2120 0.960 . S
C2107 C2104 1.511 . S
C2107 H2121 0.961 . S
C2107 H2122 0.961 . S
C2107 H2123 0.961 . S
C2108 C2109 1.370 . S
C2108 C2110 1.363 . S
C2108 H2124 0.931 . S
C2109 C2108 1.370 . S
C2109 C2113 1.408 . S
C2110 C2108 1.363 . S
C2110 C2111 1.370 . S
C2110 C2114 1.524 . S
C2111 C2103 1.503 . S
C2111 C2110 1.370 . S
C2111 C2112 1.403 . S
C2112 C2111 1.403 . S
C2112 C2113 1.404 . S
C2112 C2115 1.539 . S
C2113 C2109 1.408 . S
C2113 C2112 1.404 . S
C2113 H2125 0.930 . S
C2114 C2110 1.524 . S
C2114 H2126 0.956 . S
C2114 H2127 0.961 . S
C2114 H2128 0.961 . S
C2115 C2112 1.539 . S
C2115 H2129 0.958 . S
C2115 H2130 0.961 . S
C2115 H2131 0.960 . S
H2116 C2100 0.931 . S
H2117 C2105 0.929 . S
H2118 C2106 0.960 . S
H2119 C2106 0.962 . S
H2120 C2106 0.960 . S
H2121 C2107 0.961 . S
H2122 C2107 0.961 . S
H2123 C2107 0.961 . S
H2124 C2108 0.931 . S
H2125 C2113 0.930 . S
H2126 C2114 0.956 . S
H2127 C2114 0.961 . S
H2128 C2114 0.961 . S
H2129 C2115 0.958 . S
H2130 C2115 0.961 . S
H2131 C2115 0.960 . S
C2132 C2133 1.391 . S
C2132 C2134 1.394 . S
C2132 H2148 0.931 . S
C2133 C2132 1.391 . S
C2133 C2137 1.376 . S
C2134 C2132 1.394 . S
C2134 C2135 1.369 . S
C2134 C2138 1.531 . S
C2135 C2134 1.369 . S
C2135 C2136 1.410 . S
C2135 C2143 1.503 . S
C2136 C2135 1.410 . S
C2136 C2137 1.392 . S
C2136 C2139 1.511 . S
C2137 C2133 1.376 . S
C2137 C2136 1.392 . S
C2137 H2149 0.929 . S
C2138 C2134 1.531 . S
C2138 H2150 0.960 . S
C2138 H2151 0.962 . S
C2138 H2152 0.960 . S
C2139 C2136 1.511 . S
C2139 H2153 0.961 . S
C2139 H2154 0.961 . S
C2139 H2155 0.961 . S
C2140 C2141 1.370 . S
C2140 C2142 1.363 . S
C2140 H2156 0.931 . S
C2141 C2140 1.370 . S
C2141 C2145 1.408 . S
C2142 C2140 1.363 . S
C2142 C2143 1.370 . S
C2142 C2146 1.524 . S
C2143 C2135 1.503 . S
C2143 C2142 1.370 . S
C2143 C2144 1.403 . S
C2144 C2143 1.403 . S
C2144 C2145 1.404 . S
C2144 C2147 1.539 . S
C2145 C2141 1.408 . S
C2145 C2144 1.404 . S
C2145 H2157 0.930 . S
C2146 C2142 1.524 . S
C2146 H2158 0.956 . S
C2146 H2159 0.961 . S
C2146 H2160 0.961 . S
C2147 C2144 1.539 . S
C2147 H2161 0.958 . S
C2147 H2162 0.961 . S
C2147 H2163 0.960 . S
H2148 C2132 0.931 . S
H2149 C2137 0.929 . S
H2150 C2138 0.960 . S
H2151 C2138 0.962 . S
H2152 C2138 0.960 . S
H2153 C2139 0.961 . S
H2154 C2139 0.961 . S
H2155 C2139 0.961 . S
H2156 C2140 0.931 . S
H2157 C2145 0.930 . S
H2158 C2146 0.956 . S
H2159 C2146 0.961 . S
H2160 C2146 0.961 . S
H2161 C2147 0.958 . S
H2162 C2147 0.961 . S
H2163 C2147 0.960 . S
C2164 C2165 1.391 . S
C2164 C2166 1.394 . S
C2164 H2180 0.931 . S
C2165 C2164 1.391 . S
C2165 C2169 1.376 . S
C2166 C2164 1.394 . S
C2166 C2167 1.369 . S
C2166 C2170 1.531 . S
C2167 C2166 1.369 . S
C2167 C2168 1.410 . S
C2167 C2175 1.503 . S
C2168 C2167 1.410 . S
C2168 C2169 1.392 . S
C2168 C2171 1.511 . S
C2169 C2165 1.376 . S
C2169 C2168 1.392 . S
C2169 H2181 0.929 . S
C2170 C2166 1.531 . S
C2170 H2182 0.960 . S
C2170 H2183 0.962 . S
C2170 H2184 0.960 . S
C2171 C2168 1.511 . S
C2171 H2185 0.961 . S
C2171 H2186 0.961 . S
C2171 H2187 0.961 . S
C2172 C2173 1.370 . S
C2172 C2174 1.363 . S
C2172 H2188 0.931 . S
C2173 C2172 1.370 . S
C2173 C2177 1.408 . S
C2174 C2172 1.363 . S
C2174 C2175 1.370 . S
C2174 C2178 1.524 . S
C2175 C2167 1.503 . S
C2175 C2174 1.370 . S
C2175 C2176 1.403 . S
C2176 C2175 1.403 . S
C2176 C2177 1.404 . S
C2176 C2179 1.539 . S
C2177 C2173 1.408 . S
C2177 C2176 1.404 . S
C2177 H2189 0.930 . S
C2178 C2174 1.524 . S
C2178 H2190 0.956 . S
C2178 H2191 0.961 . S
C2178 H2192 0.961 . S
C2179 C2176 1.539 . S
C2179 H2193 0.958 . S
C2179 H2194 0.961 . S
C2179 H2195 0.960 . S
H2180 C2164 0.931 . S
H2181 C2169 0.929 . S
H2182 C2170 0.960 . S
H2183 C2170 0.962 . S
H2184 C2170 0.960 . S
H2185 C2171 0.961 . S
H2186 C2171 0.961 . S
H2187 C2171 0.961 . S
H2188 C2172 0.931 . S
H2189 C2177 0.930 . S
H2190 C2178 0.956 . S
H2191 C2178 0.961 . S
H2192 C2178 0.961 . S
H2193 C2179 0.958 . S
H2194 C2179 0.961 . S
H2195 C2179 0.960 . S
C2196 C2197 1.391 . S
C2196 C2198 1.394 . S
C2196 H2212 0.931 . S
C2197 C2196 1.391 . S
C2197 C2201 1.376 . S
C2198 C2196 1.394 . S
C2198 C2199 1.369 . S
C2198 C2202 1.531 . S
C2199 C2198 1.369 . S
C2199 C2200 1.410 . S
C2199 C2207 1.503 . S
C2200 C2199 1.410 . S
C2200 C2201 1.392 . S
C2200 C2203 1.511 . S
C2201 C2197 1.376 . S
C2201 C2200 1.392 . S
C2201 H2213 0.929 . S
C2202 C2198 1.531 . S
C2202 H2214 0.960 . S
C2202 H2215 0.962 . S
C2202 H2216 0.960 . S
C2203 C2200 1.511 . S
C2203 H2217 0.961 . S
C2203 H2218 0.961 . S
C2203 H2219 0.961 . S
C2204 C2205 1.370 . S
C2204 C2206 1.363 . S
C2204 H2220 0.931 . S
C2205 C2204 1.370 . S
C2205 C2209 1.408 . S
C2206 C2204 1.363 . S
C2206 C2207 1.370 . S
C2206 C2210 1.524 . S
C2207 C2199 1.503 . S
C2207 C2206 1.370 . S
C2207 C2208 1.403 . S
C2208 C2207 1.403 . S
C2208 C2209 1.404 . S
C2208 C2211 1.539 . S
C2209 C2205 1.408 . S
C2209 C2208 1.404 . S
C2209 H2221 0.930 . S
C2210 C2206 1.524 . S
C2210 H2222 0.956 . S
C2210 H2223 0.961 . S
C2210 H2224 0.961 . S
C2211 C2208 1.539 . S
C2211 H2225 0.958 . S
C2211 H2226 0.961 . S
C2211 H2227 0.960 . S
H2212 C2196 0.931 . S
H2213 C2201 0.929 . S
H2214 C2202 0.960 . S
H2215 C2202 0.962 . S
H2216 C2202 0.960 . S
H2217 C2203 0.961 . S
H2218 C2203 0.961 . S
H2219 C2203 0.961 . S
H2220 C2204 0.931 . S
H2221 C2209 0.930 . S
H2222 C2210 0.956 . S
H2223 C2210 0.961 . S
H2224 C2210 0.961 . S
H2225 C2211 0.958 . S
H2226 C2211 0.961 . S
H2227 C2211 0.960 . S
C2228 C2229 1.391 . S
C2228 C2230 1.394 . S
C2228 H2244 0.931 . S
C2229 C2228 1.391 . S
C2229 C2233 1.376 . S
C2230 C2228 1.394 . S
C2230 C2231 1.369 . S
C2230 C2234 1.531 . S
C2231 C2230 1.369 . S
C2231 C2232 1.410 . S
C2231 C2239 1.503 . S
C2232 C2231 1.410 . S
C2232 C2233 1.392 . S
C2232 C2235 1.511 . S
C2233 C2229 1.376 . S
C2233 C2232 1.392 . S
C2233 H2245 0.929 . S
C2234 C2230 1.531 . S
C2234 H2246 0.960 . S
C2234 H2247 0.962 . S
C2234 H2248 0.960 . S
C2235 C2232 1.511 . S
C2235 H2249 0.961 . S
C2235 H2250 0.961 . S
C2235 H2251 0.961 . S
C2236 C2237 1.370 . S
C2236 C2238 1.363 . S
C2236 H2252 0.931 . S
C2237 C2236 1.370 . S
C2237 C2241 1.408 . S
C2238 C2236 1.363 . S
C2238 C2239 1.370 . S
C2238 C2242 1.524 . S
C2239 C2231 1.503 . S
C2239 C2238 1.370 . S
C2239 C2240 1.403 . S
C2240 C2239 1.403 . S
C2240 C2241 1.404 . S
C2240 C2243 1.539 . S
C2241 C2237 1.408 . S
C2241 C2240 1.404 . S
C2241 H2253 0.930 . S
C2242 C2238 1.524 . S
C2242 H2254 0.956 . S
C2242 H2255 0.961 . S
C2242 H2256 0.961 . S
C2243 C2240 1.539 . S
C2243 H2257 0.958 . S
C2243 H2258 0.961 . S
C2243 H2259 0.960 . S
H2244 C2228 0.931 . S
H2245 C2233 0.929 . S
H2246 C2234 0.960 . S
H2247 C2234 0.962 . S
H2248 C2234 0.960 . S
H2249 C2235 0.961 . S
H2250 C2235 0.961 . S
H2251 C2235 0.961 . S
H2252 C2236 0.931 . S
H2253 C2241 0.930 . S
H2254 C2242 0.956 . S
H2255 C2242 0.961 . S
H2256 C2242 0.961 . S
H2257 C2243 0.958 . S
H2258 C2243 0.961 . S
H2259 C2243 0.960 . S
C2260 C2261 1.391 . S
C2260 C2262 1.394 . S
C2260 H2276 0.931 . S
C2261 C2260 1.391 . S
C2261 C2265 1.376 . S
C2262 C2260 1.394 . S
C2262 C2263 1.369 . S
C2262 C2266 1.531 . S
C2263 C2262 1.369 . S
C2263 C2264 1.410 . S
C2263 C2271 1.503 . S
C2264 C2263 1.410 . S
C2264 C2265 1.392 . S
C2264 C2267 1.511 . S
C2265 C2261 1.376 . S
C2265 C2264 1.392 . S
C2265 H2277 0.929 . S
C2266 C2262 1.531 . S
C2266 H2278 0.960 . S
C2266 H2279 0.962 . S
C2266 H2280 0.960 . S
C2267 C2264 1.511 . S
C2267 H2281 0.961 . S
C2267 H2282 0.961 . S
C2267 H2283 0.961 . S
C2268 C2269 1.370 . S
C2268 C2270 1.363 . S
C2268 H2284 0.931 . S
C2269 C2268 1.370 . S
C2269 C2273 1.408 . S
C2270 C2268 1.363 . S
C2270 C2271 1.370 . S
C2270 C2274 1.524 . S
C2271 C2263 1.503 . S
C2271 C2270 1.370 . S
C2271 C2272 1.403 . S
C2272 C2271 1.403 . S
C2272 C2273 1.404 . S
C2272 C2275 1.539 . S
C2273 C2269 1.408 . S
C2273 C2272 1.404 . S
C2273 H2285 0.930 . S
C2274 C2270 1.524 . S
C2274 H2286 0.956 . S
C2274 H2287 0.961 . S
C2274 H2288 0.961 . S
C2275 C2272 1.539 . S
C2275 H2289 0.958 . S
C2275 H2290 0.961 . S
C2275 H2291 0.960 . S
H2276 C2260 0.931 . S
H2277 C2265 0.929 . S
H2278 C2266 0.960 . S
H2279 C2266 0.962 . S
H2280 C2266 0.960 . S
H2281 C2267 0.961 . S
H2282 C2267 0.961 . S
H2283 C2267 0.961 . S
H2284 C2268 0.931 . S
H2285 C2273 0.930 . S
H2286 C2274 0.956 . S
H2287 C2274 0.961 . S
H2288 C2274 0.961 . S
H2289 C2275 0.958 . S
H2290 C2275 0.961 . S
H2291 C2275 0.960 . S
C2292 C2293 1.391 . S
C2292 C2294 1.394 . S
C2292 H2308 0.931 . S
C2293 C2292 1.391 . S
C2293 C2297 1.376 . S
C2294 C2292 1.394 . S
C2294 C2295 1.369 . S
C2294 C2298 1.531 . S
C2295 C2294 1.369 . S
C2295 C2296 1.410 . S
C2295 C2303 1.503 . S
C2296 C2295 1.410 . S
C2296 C2297 1.392 . S
C2296 C2299 1.511 . S
C2297 C2293 1.376 . S
C2297 C2296 1.392 . S
C2297 H2309 0.929 . S
C2298 C2294 1.531 . S
C2298 H2310 0.960 . S
C2298 H2311 0.962 . S
C2298 H2312 0.960 . S
C2299 C2296 1.511 . S
C2299 H2313 0.961 . S
C2299 H2314 0.961 . S
C2299 H2315 0.961 . S
C2300 C2301 1.370 . S
C2300 C2302 1.363 . S
C2300 H2316 0.931 . S
C2301 C2300 1.370 . S
C2301 C2305 1.408 . S
C2302 C2300 1.363 . S
C2302 C2303 1.370 . S
C2302 C2306 1.524 . S
C2303 C2295 1.503 . S
C2303 C2302 1.370 . S
C2303 C2304 1.403 . S
C2304 C2303 1.403 . S
C2304 C2305 1.404 . S
C2304 C2307 1.539 . S
C2305 C2301 1.408 . S
C2305 C2304 1.404 . S
C2305 H2317 0.930 . S
C2306 C2302 1.524 . S
C2306 H2318 0.956 . S
C2306 H2319 0.961 . S
C2306 H2320 0.961 . S
C2307 C2304 1.539 . S
C2307 H2321 0.958 . S
C2307 H2322 0.961 . S
C2307 H2323 0.960 . S
H2308 C2292 0.931 . S
H2309 C2297 0.929 . S
H2310 C2298 0.960 . S
H2311 C2298 0.962 . S
H2312 C2298 0.960 . S
H2313 C2299 0.961 . S
H2314 C2299 0.961 . S
H2315 C2299 0.961 . S
H2316 C2300 0.931 . S
H2317 C2305 0.930 . S
H2318 C2306 0.956 . S
H2319 C2306 0.961 . S
H2320 C2306 0.961 . S
H2321 C2307 0.958 . S
H2322 C2307 0.961 . S
H2323 C2307 0.960 . S
C2324 C2325 1.391 . S
C2324 C2326 1.394 . S
C2324 H2340 0.931 . S
C2325 C2324 1.391 . S
C2325 C2329 1.376 . S
C2326 C2324 1.394 . S
C2326 C2327 1.369 . S
C2326 C2330 1.531 . S
C2327 C2326 1.369 . S
C2327 C2328 1.410 . S
C2327 C2335 1.503 . S
C2328 C2327 1.410 . S
C2328 C2329 1.392 . S
C2328 C2331 1.511 . S
C2329 C2325 1.376 . S
C2329 C2328 1.392 . S
C2329 H2341 0.929 . S
C2330 C2326 1.531 . S
C2330 H2342 0.960 . S
C2330 H2343 0.962 . S
C2330 H2344 0.960 . S
C2331 C2328 1.511 . S
C2331 H2345 0.961 . S
C2331 H2346 0.961 . S
C2331 H2347 0.961 . S
C2332 C2333 1.370 . S
C2332 C2334 1.363 . S
C2332 H2348 0.931 . S
C2333 C2332 1.370 . S
C2333 C2337 1.408 . S
C2334 C2332 1.363 . S
C2334 C2335 1.370 . S
C2334 C2338 1.524 . S
C2335 C2327 1.503 . S
C2335 C2334 1.370 . S
C2335 C2336 1.403 . S
C2336 C2335 1.403 . S
C2336 C2337 1.404 . S
C2336 C2339 1.539 . S
C2337 C2333 1.408 . S
C2337 C2336 1.404 . S
C2337 H2349 0.930 . S
C2338 C2334 1.524 . S
C2338 H2350 0.956 . S
C2338 H2351 0.961 . S
C2338 H2352 0.961 . S
C2339 C2336 1.539 . S
C2339 H2353 0.958 . S
C2339 H2354 0.961 . S
C2339 H2355 0.960 . S
H2340 C2324 0.931 . S
H2341 C2329 0.929 . S
H2342 C2330 0.960 . S
H2343 C2330 0.962 . S
H2344 C2330 0.960 . S
H2345 C2331 0.961 . S
H2346 C2331 0.961 . S
H2347 C2331 0.961 . S
H2348 C2332 0.931 . S
H2349 C2337 0.930 . S
H2350 C2338 0.956 . S
H2351 C2338 0.961 . S
H2352 C2338 0.961 . S
H2353 C2339 0.958 . S
H2354 C2339 0.961 . S
H2355 C2339 0.960 . S
C2356 C2357 1.391 . S
C2356 C2358 1.394 . S
C2356 H2372 0.931 . S
C2357 C2356 1.391 . S
C2357 C2361 1.376 . S
C2358 C2356 1.394 . S
C2358 C2359 1.369 . S
C2358 C2362 1.531 . S
C2359 C2358 1.369 . S
C2359 C2360 1.410 . S
C2359 C2367 1.503 . S
C2360 C2359 1.410 . S
C2360 C2361 1.392 . S
C2360 C2363 1.511 . S
C2361 C2357 1.376 . S
C2361 C2360 1.392 . S
C2361 H2373 0.929 . S
C2362 C2358 1.531 . S
C2362 H2374 0.960 . S
C2362 H2375 0.962 . S
C2362 H2376 0.960 . S
C2363 C2360 1.511 . S
C2363 H2377 0.961 . S
C2363 H2378 0.961 . S
C2363 H2379 0.961 . S
C2364 C2365 1.370 . S
C2364 C2366 1.363 . S
C2364 H2380 0.931 . S
C2365 C2364 1.370 . S
C2365 C2369 1.408 . S
C2366 C2364 1.363 . S
C2366 C2367 1.370 . S
C2366 C2370 1.524 . S
C2367 C2359 1.503 . S
C2367 C2366 1.370 . S
C2367 C2368 1.403 . S
C2368 C2367 1.403 . S
C2368 C2369 1.404 . S
C2368 C2371 1.539 . S
C2369 C2365 1.408 . S
C2369 C2368 1.404 . S
C2369 H2381 0.930 . S
C2370 C2366 1.524 . S
C2370 H2382 0.956 . S
C2370 H2383 0.961 . S
C2370 H2384 0.961 . S
C2371 C2368 1.539 . S
C2371 H2385 0.958 . S
C2371 H2386 0.961 . S
C2371 H2387 0.960 . S
H2372 C2356 0.931 . S
H2373 C2361 0.929 . S
H2374 C2362 0.960 . S
H2375 C2362 0.962 . S
H2376 C2362 0.960 . S
H2377 C2363 0.961 . S
H2378 C2363 0.961 . S
H2379 C2363 0.961 . S
H2380 C2364 0.931 . S
H2381 C2369 0.930 . S
H2382 C2370 0.956 . S
H2383 C2370 0.961 . S
H2384 C2370 0.961 . S
H2385 C2371 0.958 . S
H2386 C2371 0.961 . S
H2387 C2371 0.960 . S
C2388 C2389 1.391 . S
C2388 C2390 1.394 . S
C2388 H2404 0.931 . S
C2389 C2388 1.391 . S
C2389 C2393 1.376 . S
C2390 C2388 1.394 . S
C2390 C2391 1.369 . S
C2390 C2394 1.531 . S
C2391 C2390 1.369 . S
C2391 C2392 1.410 . S
C2391 C2399 1.503 . S
C2392 C2391 1.410 . S
C2392 C2393 1.392 . S
C2392 C2395 1.511 . S
C2393 C2389 1.376 . S
C2393 C2392 1.392 . S
C2393 H2405 0.929 . S
C2394 C2390 1.531 . S
C2394 H2406 0.960 . S
C2394 H2407 0.962 . S
C2394 H2408 0.960 . S
C2395 C2392 1.511 . S
C2395 H2409 0.961 . S
C2395 H2410 0.961 . S
C2395 H2411 0.961 . S
C2396 C2397 1.370 . S
C2396 C2398 1.363 . S
C2396 H2412 0.931 . S
C2397 C2396 1.370 . S
C2397 C2401 1.408 . S
C2398 C2396 1.363 . S
C2398 C2399 1.370 . S
C2398 C2402 1.524 . S
C2399 C2391 1.503 . S
C2399 C2398 1.370 . S
C2399 C2400 1.403 . S
C2400 C2399 1.403 . S
C2400 C2401 1.404 . S
C2400 C2403 1.539 . S
C2401 C2397 1.408 . S
C2401 C2400 1.404 . S
C2401 H2413 0.930 . S
C2402 C2398 1.524 . S
C2402 H2414 0.956 . S
C2402 H2415 0.961 . S
C2402 H2416 0.961 . S
C2403 C2400 1.539 . S
C2403 H2417 0.958 . S
C2403 H2418 0.961 . S
C2403 H2419 0.960 . S
H2404 C2388 0.931 . S
H2405 C2393 0.929 . S
H2406 C2394 0.960 . S
H2407 C2394 0.962 . S
H2408 C2394 0.960 . S
H2409 C2395 0.961 . S
H2410 C2395 0.961 . S
H2411 C2395 0.961 . S
H2412 C2396 0.931 . S
H2413 C2401 0.930 . S
H2414 C2402 0.956 . S
H2415 C2402 0.961 . S
H2416 C2402 0.961 . S
H2417 C2403 0.958 . S
H2418 C2403 0.961 . S
H2419 C2403 0.960 . S
C2420 C2421 1.391 . S
C2420 C2422 1.394 . S
C2420 H2436 0.931 . S
C2421 C2420 1.391 . S
C2421 C2425 1.376 . S
C2422 C2420 1.394 . S
C2422 C2423 1.369 . S
C2422 C2426 1.531 . S
C2423 C2422 1.369 . S
C2423 C2424 1.410 . S
C2423 C2431 1.503 . S
C2424 C2423 1.410 . S
C2424 C2425 1.392 . S
C2424 C2427 1.511 . S
C2425 C2421 1.376 . S
C2425 C2424 1.392 . S
C2425 H2437 0.929 . S
C2426 C2422 1.531 . S
C2426 H2438 0.960 . S
C2426 H2439 0.962 . S
C2426 H2440 0.960 . S
C2427 C2424 1.511 . S
C2427 H2441 0.961 . S
C2427 H2442 0.961 . S
C2427 H2443 0.961 . S
C2428 C2429 1.370 . S
C2428 C2430 1.363 . S
C2428 H2444 0.931 . S
C2429 C2428 1.370 . S
C2429 C2433 1.408 . S
C2430 C2428 1.363 . S
C2430 C2431 1.370 . S
C2430 C2434 1.524 . S
C2431 C2423 1.503 . S
C2431 C2430 1.370 . S
C2431 C2432 1.403 . S
C2432 C2431 1.403 . S
C2432 C2433 1.404 . S
C2432 C2435 1.539 . S
C2433 C2429 1.408 . S
C2433 C2432 1.404 . S
C2433 H2445 0.930 . S
C2434 C2430 1.524 . S
C2434 H2446 0.956 . S
C2434 H2447 0.961 . S
C2434 H2448 0.961 . S
C2435 C2432 1.539 . S
C2435 H2449 0.958 . S
C2435 H2450 0.961 . S
C2435 H2451 0.960 . S
H2436 C2420 0.931 . S
H2437 C2425 0.929 . S
H2438 C2426 0.960 . S
H2439 C2426 0.962 . S
H2440 C2426 0.960 . S
H2441 C2427 0.961 . S
H2442 C2427 0.961 . S
H2443 C2427 0.961 . S
H2444 C2428 0.931 . S
H2445 C2433 0.930 . S
H2446 C2434 0.956 . S
H2447 C2434 0.961 . S
H2448 C2434 0.961 . S
H2449 C2435 0.958 . S
H2450 C2435 0.961 . S
H2451 C2435 0.960 . S
C2452 C2453 1.391 . S
C2452 C2454 1.394 . S
C2452 H2468 0.931 . S
C2453 C2452 1.391 . S
C2453 C2457 1.376 . S
C2454 C2452 1.394 . S
C2454 C2455 1.369 . S
C2454 C2458 1.531 . S
C2455 C2454 1.369 . S
C2455 C2456 1.410 . S
C2455 C2463 1.503 . S
C2456 C2455 1.410 . S
C2456 C2457 1.392 . S
C2456 C2459 1.511 . S
C2457 C2453 1.376 . S
C2457 C2456 1.392 . S
C2457 H2469 0.929 . S
C2458 C2454 1.531 . S
C2458 H2470 0.960 . S
C2458 H2471 0.962 . S
C2458 H2472 0.960 . S
C2459 C2456 1.511 . S
C2459 H2473 0.961 . S
C2459 H2474 0.961 . S
C2459 H2475 0.961 . S
C2460 C2461 1.370 . S
C2460 C2462 1.363 . S
C2460 H2476 0.931 . S
C2461 C2460 1.370 . S
C2461 C2465 1.408 . S
C2462 C2460 1.363 . S
C2462 C2463 1.370 . S
C2462 C2466 1.524 . S
C2463 C2455 1.503 . S
C2463 C2462 1.370 . S
C2463 C2464 1.403 . S
C2464 C2463 1.403 . S
C2464 C2465 1.404 . S
C2464 C2467 1.539 . S
C2465 C2461 1.408 . S
C2465 C2464 1.404 . S
C2465 H2477 0.930 . S
C2466 C2462 1.524 . S
C2466 H2478 0.956 . S
C2466 H2479 0.961 . S
C2466 H2480 0.961 . S
C2467 C2464 1.539 . S
C2467 H2481 0.958 . S
C2467 H2482 0.961 . S
C2467 H2483 0.960 . S
H2468 C2452 0.931 . S
H2469 C2457 0.929 . S
H2470 C2458 0.960 . S
H2471 C2458 0.962 . S
H2472 C2458 0.960 . S
H2473 C2459 0.961 . S
H2474 C2459 0.961 . S
H2475 C2459 0.961 . S
H2476 C2460 0.931 . S
H2477 C2465 0.930 . S
H2478 C2466 0.956 . S
H2479 C2466 0.961 . S
H2480 C2466 0.961 . S
H2481 C2467 0.958 . S
H2482 C2467 0.961 . S
H2483 C2467 0.960 . S
C757 C439 1.478 . S
C765 C582 1.489 . S
C789 C465 1.522 . S
C797 C602 1.503 . S
C821 C401 1.546 . S
C829 C625 1.528 . S
C853 C369 1.462 . S
C861 C605 1.454 . S
C893 C622 1.449 . S
C885 C305 1.450 . S
C917 C343 1.349 . S
C925 C585 1.437 . S
C957 C592 1.529 . S
C949 C375 1.550 . S
C989 C612 1.472 . S
C981 C311 1.494 . S
C1013 C337 1.500 . S
C1021 C617 1.529 . S
C1045 C433 1.387 . S
C1053 C597 1.449 . S
C1077 C471 1.424 . S
C1085 C632 1.420 . S
C1117 C577 1.466 . S
C1109 C407 1.479 . S
C1149 C642 1.491 . S
C1141 C55 1.456 . S
C1173 C81 1.542 . S
C1181 C662 1.512 . S
C1205 C17 1.547 . S
C1213 C685 1.528 . S
C1237 C561 1.448 . S
C1245 C665 1.440 . S
C1269 C497 1.453 . S
C1277 C682 1.451 . S
C1301 C535 1.332 . S
C1309 C645 1.438 . S
C1333 C567 1.552 . S
C1341 C652 1.526 . S
C1365 C503 1.498 . S
C1373 C672 1.483 . S
C1405 C677 1.531 . S
C1397 C529 1.487 . S
C1429 C49 1.398 . S
C1437 C657 1.447 . S
C1469 C692 1.422 . S
C1461 C87 1.424 . S
C1493 C23 1.472 . S
C1501 C637 1.458 . S
C1533 C702 1.492 . S
C1525 C247 1.487 . S
C1557 C273 1.533 . S
C1565 C722 1.504 . S
C1597 C745 1.529 . S
C1589 C209 1.545 . S
C1629 C725 1.441 . S
C1621 C177 1.448 . S
C1661 C742 1.457 . S
C1653 C113 1.465 . S
C1685 C151 1.396 . S
C1693 C705 1.425 . S
C1717 C183 1.549 . S
C1725 C712 1.528 . S
C1749 C119 1.493 . S
C1757 C732 1.472 . S
C1789 C737 1.536 . S
C1781 C145 1.483 . S
C1813 C241 1.382 . S
C1821 C717 1.446 . S
C1845 C279 1.421 . S
C1853 C752 1.419 . S
C1877 C215 1.470 . S
C1885 C697 1.456 . S
C1909 C509 1.271 . S
C1917 C595 1.271 1_565 S
C1949 C615 1.578 . S
C1941 C541 1.526 . S
C1973 C573 1.489 . S
C1981 C624 1.442 . S
C2005 C221 1.655 . S
C2013 C604 1.607 . S
C2037 C253 1.376 . S
C2045 C635 1.429 . S
C2077 C584 1.285 . S
C2069 C285 1.309 . S
C2101 C125 1.285 . S
C2109 C655 1.276 . S
C2133 C157 1.583 . S
C2141 C675 1.559 . S
C2165 C189 1.492 . S
C2173 C684 1.445 . S
C2197 C413 1.664 . S
C2205 C664 1.594 . S
C2237 C695 1.409 . S
C2229 C445 1.430 . S
C2261 C477 1.308 . S
C2269 C644 1.278 . S
C2293 C317 1.274 . S
C2301 C715 1.271 . S
C2325 C349 1.580 . S
C2333 C735 1.561 . S
C2365 C744 1.458 . S
C2357 C381 1.492 . S
C2389 C29 1.660 . S
C2397 C724 1.589 . S
C2421 C61 1.363 . S
C2429 C755 1.430 . S
C2453 C93 1.286 . S
C2461 C704 1.281 . S
