# Generated by pormake.
# Topology zzz, (3,6)-cn, num edge types: 1
# Building blocks:
#     Node 0, Type 0, BuildingBlock: MIDCAF_clean_linker_0, # of connection points: 3
#     Node 1, Type 0, BuildingBlock: MIDCAF_clean_linker_0, # of connection points: 3
#     Node 2, Type 0, BuildingBlock: MIDCAF_clean_linker_0, # of connection points: 3
#     Node 3, Type 0, BuildingBlock: MIDCAF_clean_linker_0, # of connection points: 3
#     Node 4, Type 0, BuildingBlock: MIDCAF_clean_linker_0, # of connection points: 3
#     Node 5, Type 0, BuildingBlock: MIDCAF_clean_linker_0, # of connection points: 3
#     Node 6, Type 0, BuildingBlock: MIDCAF_clean_linker_0, # of connection points: 3
#     Node 7, Type 0, BuildingBlock: MIDCAF_clean_linker_0, # of connection points: 3
#     Node 8, Type 1, BuildingBlock: BETFEN_clean_sbu_0, # of connection points: 6
#     Node 9, Type 1, BuildingBlock: BETFEN_clean_sbu_0, # of connection points: 6
#     Node 10, Type 1, BuildingBlock: BETFEN_clean_sbu_0, # of connection points: 6
#     Node 11, Type 1, BuildingBlock: BETFEN_clean_sbu_0, # of connection points: 6
#     Edge 12, Type (0, 1), BuildingBlock: TEMPAE_clean_linker_10, # of connection points: 2
#     Edge 13, Type (0, 1), BuildingBlock: TEMPAE_clean_linker_10, # of connection points: 2
#     Edge 14, Type (0, 1), BuildingBlock: TEMPAE_clean_linker_10, # of connection points: 2
#     Edge 15, Type (0, 1), BuildingBlock: TEMPAE_clean_linker_10, # of connection points: 2
#     Edge 16, Type (0, 1), BuildingBlock: TEMPAE_clean_linker_10, # of connection points: 2
#     Edge 17, Type (0, 1), BuildingBlock: TEMPAE_clean_linker_10, # of connection points: 2
#     Edge 18, Type (0, 1), BuildingBlock: TEMPAE_clean_linker_10, # of connection points: 2
#     Edge 19, Type (0, 1), BuildingBlock: TEMPAE_clean_linker_10, # of connection points: 2
#     Edge 20, Type (0, 1), BuildingBlock: TEMPAE_clean_linker_10, # of connection points: 2
#     Edge 21, Type (0, 1), BuildingBlock: TEMPAE_clean_linker_10, # of connection points: 2
#     Edge 22, Type (0, 1), BuildingBlock: TEMPAE_clean_linker_10, # of connection points: 2
#     Edge 23, Type (0, 1), BuildingBlock: TEMPAE_clean_linker_10, # of connection points: 2
#     Edge 24, Type (0, 1), BuildingBlock: TEMPAE_clean_linker_10, # of connection points: 2
#     Edge 25, Type (0, 1), BuildingBlock: TEMPAE_clean_linker_10, # of connection points: 2
#     Edge 26, Type (0, 1), BuildingBlock: TEMPAE_clean_linker_10, # of connection points: 2
#     Edge 27, Type (0, 1), BuildingBlock: TEMPAE_clean_linker_10, # of connection points: 2
#     Edge 28, Type (0, 1), BuildingBlock: TEMPAE_clean_linker_10, # of connection points: 2
#     Edge 29, Type (0, 1), BuildingBlock: TEMPAE_clean_linker_10, # of connection points: 2
#     Edge 30, Type (0, 1), BuildingBlock: TEMPAE_clean_linker_10, # of connection points: 2
#     Edge 31, Type (0, 1), BuildingBlock: TEMPAE_clean_linker_10, # of connection points: 2
#     Edge 32, Type (0, 1), BuildingBlock: TEMPAE_clean_linker_10, # of connection points: 2
#     Edge 33, Type (0, 1), BuildingBlock: TEMPAE_clean_linker_10, # of connection points: 2
#     Edge 34, Type (0, 1), BuildingBlock: TEMPAE_clean_linker_10, # of connection points: 2
#     Edge 35, Type (0, 1), BuildingBlock: TEMPAE_clean_linker_10, # of connection points: 2
# Relax obj value: 0.453
# Max RMSD: 0.271
# Mean RMSD: 0.255
data_MOF--net-zzz--node1-BETFEN_clean_sbu_0--node2-MIDCAF_clean_linker_0--edge1-TEMPAE_clean_linker_10
_symmetry_space_group_name_H-M    P1
_symmetry_Int_Tables_number       1
_symmetry_cell_setting            triclinic
loop_
_symmetry_equiv_pos_as_xyz
'x, y, z'
_cell_length_a     59.909272
_cell_length_b     59.937101
_cell_length_c     18.487564
_cell_angle_alpha  89.738464
_cell_angle_beta   90.203079
_cell_angle_gamma 89.939659
loop_
_atom_site_label
_atom_site_type_symbol
_atom_site_fract_x
_atom_site_fract_y
_atom_site_fract_z
_atom_type_partial_charge
C0 C 0.79369 0.4989 0.46731 0.0
C1 C 0.79983 0.51667 0.51284 0.0
C2 C 0.78496 0.53493 0.51818 0.0
C3 C 0.76555 0.53608 0.47504 0.0
H4 H 0.68175 0.49277 0.32205 0.0
H5 H 0.64515 0.4906 0.26308 0.0
H6 H 0.65063 0.56006 0.20181 0.0
H7 H 0.68649 0.56213 0.2628 0.0
H8 H 0.72854 0.50715 0.11165 0.0
H9 H 0.75082 0.49528 0.00794 0.0
H10 H 0.80877 0.52708 0.10157 0.0
H11 H 0.78669 0.53876 0.20444 0.0
H12 H 0.77113 0.48675 0.38672 0.0
H13 H 0.80461 0.48471 0.45991 0.0
H14 H 0.78874 0.54881 0.55337 0.0
H15 H 0.7555 0.55112 0.47577 0.0
N16 N 0.72313 0.52439 0.36573 0.0
N17 N 0.72213 0.52719 0.23833 0.0
N18 N 0.7563 0.52364 0.29779 0.0
C19 C 0.71128 0.52678 0.3025 0.0
C20 C 0.74457 0.52577 0.23566 0.0
C21 C 0.74596 0.52299 0.36276 0.0
C22 C 0.68671 0.52776 0.29851 0.0
C23 C 0.67441 0.50784 0.29977 0.0
C24 C 0.65366 0.50652 0.26428 0.0
C25 C 0.64492 0.52504 0.22615 0.0
C26 C 0.65645 0.54546 0.23093 0.0
C27 C 0.67704 0.54676 0.26658 0.0
C28 C 0.75608 0.52357 0.1662 0.0
C29 C 0.74586 0.51224 0.10855 0.0
C30 C 0.75855 0.5054 0.04945 0.0
C31 C 0.78145 0.5102 0.04697 0.0
C32 C 0.79107 0.52337 0.10154 0.0
C33 C 0.77851 0.52989 0.16083 0.0
C34 C 0.76045 0.51888 0.42647 0.0
C35 C 0.77432 0.49999 0.42512 0.0
C36 C 0.9834 0.78385 0.52022 0.0
C37 C 1.0016 0.79832 0.50777 0.0
C38 C 0.01797 0.79154 0.4579 0.0
C39 C 0.01548 0.77181 0.41843 0.0
H40 H 0.96116 0.67326 0.32881 0.0
H41 H 0.96424 0.63752 0.26655 0.0
H42 H 0.03174 0.6542 0.20468 0.0
H43 H 0.02873 0.6892 0.26985 0.0
H44 H 0.9948 0.72536 0.11514 0.0
H45 H 1.00311 0.74912 0.01131 0.0
H46 H 0.96877 0.80387 0.11333 0.0
H47 H 0.96086 0.78038 0.21784 0.0
H48 H 0.96583 0.7543 0.48674 0.0
H49 H 0.9706 0.78819 0.55886 0.0
H50 H 0.03203 0.80219 0.4454 0.0
H51 H 0.0275 0.76804 0.37653 0.0
N52 N 0.99403 0.72031 0.37125 0.0
N53 N 0.9833 0.71783 0.24876 0.0
N54 N 0.98375 0.75248 0.3054 0.0
C55 C 0.98989 0.70774 0.31093 0.0
C56 C 0.98007 0.74009 0.24558 0.0
C57 C 0.99049 0.74289 0.36832 0.0
C58 C 0.9949 0.68373 0.30581 0.0
C59 C 0.97707 0.66856 0.30571 0.0
C60 C 0.97871 0.64832 0.26827 0.0
C61 C 0.99807 0.643 0.22873 0.0
C62 C 0.0166 0.65738 0.2347 0.0
C63 C 0.01501 0.67746 0.27287 0.0
C64 C 0.97764 0.75128 0.17512 0.0
C65 C 0.98811 0.74215 0.114 0.0
C66 C 0.99287 0.75568 0.05447 0.0
C67 C 0.98675 0.77825 0.05497 0.0
C68 C 0.97353 0.78643 0.11158 0.0
C69 C 0.96916 0.77306 0.17165 0.0
C70 C 0.99663 0.75821 0.42761 0.0
C71 C 0.98086 0.76412 0.48013 0.0
C72 C 0.72862 0.98452 0.44823 0.0
C73 C 0.71925 1.00165 0.49048 0.0
C74 C 0.73135 0.02154 0.499 0.0
C75 C 0.75117 0.02506 0.46113 0.0
H76 H 0.84845 0.02492 0.32345 0.0
H77 H 0.88299 0.01736 0.25793 0.0
H78 H 0.8482 0.96925 0.126 0.0
H79 H 0.81372 0.97683 0.19247 0.0
H80 H 0.78064 0.04143 0.11646 0.0
H81 H 0.75561 0.06393 0.04281 0.0
H82 H 0.7404 0.10468 0.22897 0.0
H83 H 0.76419 0.0808 0.30357 0.0
H84 H 0.7545 0.97537 0.3733 0.0
H85 H 0.7197 0.969 0.44042 0.0
H86 H 0.7249 0.0349 0.53224 0.0
H87 H 0.75916 0.04124 0.46474 0.0
N88 N 0.79426 1.00422 0.33971 0.0
N89 N 0.80104 0.02989 0.24506 0.0
N90 N 0.76986 0.03438 0.31887 0.0
C91 C 0.80731 0.01164 0.28389 0.0
C92 C 0.78244 0.04138 0.2627 0.0
C93 C 0.77542 0.01589 0.35736 0.0
C94 C 0.82861 1.00105 0.26412 0.0
C95 C 0.84852 0.01194 0.28285 0.0
C96 C 0.86819 1.00785 0.24449 0.0
C97 C 0.86834 0.9929 0.18606 0.0
C98 C 0.84877 0.98071 0.1711 0.0
C99 C 0.82904 0.98488 0.20948 0.0
C100 C 0.77387 0.0592 0.21563 0.0
C101 C 0.77252 0.05569 0.14087 0.0
C102 C 0.75821 0.06875 0.09857 0.0
C103 C 0.74541 0.08581 0.13033 0.0
C104 C 0.74938 0.0912 0.20328 0.0
C105 C 0.76312 0.07768 0.24597 0.0
C106 C 0.7596 1.00874 0.41424 0.0
C107 C 0.74865 0.98805 0.41028 0.0
C108 C 0.52817 0.72543 0.10637 0.0
C109 C 0.51283 0.73358 0.05501 0.0
C110 C 0.50591 0.75589 0.05809 0.0
C111 C 0.51257 0.76924 0.11582 0.0
H112 H 0.48363 0.82498 0.27022 0.0
H113 H 0.48203 0.86013 0.20488 0.0
H114 H 0.55053 0.87344 0.26495 0.0
H115 H 0.55213 0.83748 0.32779 0.0
H116 H 0.4896 0.76068 0.45465 0.0
H117 H 0.48498 0.72727 0.5305 0.0
H118 H 0.55414 0.71021 0.4955 0.0
H119 H 0.55853 0.7434 0.42015 0.0
H120 H 0.54484 0.73136 0.20688 0.0
H121 H 0.53354 0.70816 0.10545 0.0
H122 H 0.494 0.7624 0.01912 0.0
H123 H 0.50564 0.78589 0.11985 0.0
N124 N 0.5239 0.79395 0.24482 0.0
N125 N 0.52203 0.79234 0.37204 0.0
N126 N 0.52802 0.75976 0.30381 0.0
C127 C 0.52169 0.80445 0.30902 0.0
C128 C 0.52549 0.76975 0.36894 0.0
C129 C 0.52715 0.77172 0.24166 0.0
C130 C 0.51785 0.82869 0.30529 0.0
C131 C 0.49792 0.83603 0.27293 0.0
C132 C 0.49713 0.85621 0.23468 0.0
C133 C 0.51631 0.86964 0.22799 0.0
C134 C 0.53556 0.86337 0.26731 0.0
C135 C 0.53636 0.84301 0.30509 0.0
C136 C 0.52458 0.75492 0.43303 0.0
C137 C 0.50402 0.75031 0.46615 0.0
C138 C 0.5013 0.73094 0.50845 0.0
C139 C 0.51915 0.71589 0.51882 0.0
C140 C 0.54008 0.72146 0.48961 0.0
C141 C 0.54269 0.74059 0.44676 0.0
C142 C 0.52578 0.76021 0.17182 0.0
C143 C 0.53447 0.73861 0.16477 0.0
C144 C 0.22548 0.51669 0.9641 0.0
C145 C 0.21855 0.50006 0.9153 0.0
C146 C 0.23307 0.48185 0.90359 0.0
C147 C 0.253 0.47957 0.94344 0.0
H148 H 0.33481 0.52445 0.10841 0.0
H149 H 0.37111 0.52843 0.16822 0.0
H150 H 0.3742 0.45683 0.19667 0.0
H151 H 0.3388 0.45316 0.13433 0.0
H152 H 0.29301 0.49309 0.30876 0.0
H153 H 0.27032 0.50121 0.41481 0.0
H154 H 0.21368 0.46975 0.31247 0.0
H155 H 0.23613 0.46201 0.20618 0.0
H156 H 0.24924 0.52663 0.04469 0.0
H157 H 0.21481 0.53079 0.97596 0.0
H158 H 0.22861 0.46885 0.86577 0.0
H159 H 0.26283 0.46451 0.93757 0.0
N160 N 0.29712 0.49122 0.05132 0.0
N161 N 0.29945 0.48091 0.17438 0.0
N162 N 0.26462 0.48382 0.11872 0.0
C163 C 0.30968 0.48648 0.11167 0.0
C164 C 0.27704 0.47946 0.17831 0.0
C165 C 0.27432 0.48952 0.0552 0.0
C166 C 0.33422 0.48845 0.11524 0.0
C167 C 0.34401 0.50956 0.12354 0.0
C168 C 0.36458 0.51181 0.15967 0.0
C169 C 0.37564 0.493 0.18911 0.0
C170 C 0.36663 0.47178 0.17453 0.0
C171 C 0.34627 0.46958 0.13804 0.0
C172 C 0.26608 0.47739 0.24886 0.0
C173 C 0.27599 0.48703 0.31026 0.0
C174 C 0.26308 0.49166 0.37098 0.0
C175 C 0.24032 0.48628 0.37126 0.0
C176 C 0.23127 0.47394 0.31376 0.0
C177 C 0.24403 0.46968 0.25262 0.0
C178 C 0.25905 0.49556 0.99514 0.0
C179 C 0.24538 0.51442 1.00342 0.0
C180 C 1.00343 0.22079 0.96616 0.0
C181 C 0.01797 0.21577 0.90877 0.0
C182 C 0.03462 0.23156 0.8912 0.0
C183 C 0.03749 0.25099 0.9328 0.0
H184 H 0.99432 0.32787 0.11675 0.0
H185 H 0.98944 0.36314 0.18113 0.0
H186 H 0.06094 0.37238 0.18301 0.0
H187 H 0.0655 0.33753 0.11773 0.0
H188 H 0.02924 0.28931 0.3025 0.0
H189 H 0.01964 0.26611 0.40644 0.0
H190 H 0.05122 0.20959 0.30501 0.0
H191 H 0.06039 0.23254 0.20058 0.0
H192 H 0.99579 0.24259 0.05424 0.0
H193 H 0.99066 0.20909 0.98271 0.0
H194 H 0.04598 0.22854 0.84692 0.0
H195 H 0.05143 0.26193 0.92135 0.0
N196 N 0.0284 0.29327 0.04681 0.0
N197 N 0.04062 0.29578 0.16789 0.0
N198 N 0.03766 0.26094 0.11342 0.0
C199 C 0.03385 0.3059 0.10599 0.0
C200 C 0.04265 0.27341 0.17205 0.0
C201 C 0.03079 0.27053 0.05065 0.0
C202 C 0.03026 0.33021 0.11063 0.0
C203 C 1.00882 0.33818 0.12705 0.0
C204 C 1.00611 0.35814 0.1656 0.0
C205 C 0.02482 0.37052 0.18874 0.0
C206 C 0.04609 0.36354 0.16588 0.0
C207 C 0.04875 0.34362 0.12757 0.0
C208 C 0.04503 0.26246 0.24287 0.0
C209 C 0.03511 0.27221 0.30394 0.0
C210 C 0.02961 0.259 0.36354 0.0
C211 C 0.03443 0.23611 0.36302 0.0
C212 C 0.0474 0.22726 0.30681 0.0
C213 C 0.0525 0.24033 0.24672 0.0
C214 C 0.02367 0.25516 0.9924 0.0
C215 C 1.00628 0.24014 0.00729 0.0
C216 C 0.29697 1.00244 0.9588 0.0
C217 C 0.30395 0.01892 0.90921 0.0
C218 C 0.28953 0.03719 0.89637 0.0
C219 C 0.2696 0.03963 0.93557 0.0
H220 H 0.17772 0.0597 0.08271 0.0
H221 H 0.142 0.05663 0.14519 0.0
H222 H 0.15792 0.98848 0.20312 0.0
H223 H 0.19294 0.99152 0.13771 0.0
H224 H 0.22613 0.02867 0.29882 0.0
H225 H 0.2476 0.02042 0.40785 0.0
H226 H 0.30639 0.04833 0.30789 0.0
H227 H 0.28513 0.05634 0.19872 0.0
H228 H 0.2731 0.99272 0.03917 0.0
H229 H 0.30758 0.98832 0.97153 0.0
H230 H 0.29404 0.0501 0.85798 0.0
H231 H 0.25977 0.05467 0.92851 0.0
N232 N 0.22502 0.02629 0.04099 0.0
N233 N 0.2215 0.03716 0.16274 0.0
N234 N 0.25668 0.0363 0.10952 0.0
C235 C 0.21193 0.03057 0.10003 0.0
C236 C 0.24375 0.04014 0.16803 0.0
C237 C 0.24762 0.02965 0.04588 0.0
C238 C 0.18785 0.02568 0.10362 0.0
C239 C 0.17285 0.04367 0.10487 0.0
C240 C 0.15262 0.04203 0.14254 0.0
C241 C 0.14712 0.02247 0.18118 0.0
C242 C 0.16126 1.0038 0.17388 0.0
C243 C 0.18134 1.0054 0.13546 0.0
C244 C 0.25419 0.04259 0.23965 0.0
C245 C 0.2434 0.03395 0.30119 0.0
C246 C 0.25562 0.02922 0.36372 0.0
C247 C 0.27861 0.03347 0.36571 0.0
C248 C 0.28862 0.04497 0.30788 0.0
C249 C 0.27651 0.04939 0.24505 0.0
C250 C 0.26343 0.02372 0.98771 0.0
C251 C 0.27706 1.00486 0.99753 0.0
C252 C 0.47479 0.28747 0.29654 0.0
C253 C 0.48884 0.28063 0.35341 0.0
C254 C 0.49567 0.2583 0.35792 0.0
C255 C 0.49092 0.24373 0.30134 0.0
H256 H 0.53232 0.18733 0.14405 0.0
H257 H 0.53577 0.15251 0.21218 0.0
H258 H 0.4662 0.1384 0.17083 0.0
H259 H 0.46284 0.17362 0.10466 0.0
H260 H 0.47079 0.25187 0.92573 0.0
H261 H 0.47567 0.28542 0.85117 0.0
H262 H 0.53548 0.30137 0.97175 0.0
H263 H 0.5309 0.26754 0.043 0.0
H264 H 0.46164 0.27943 0.19221 0.0
H265 H 0.46946 0.3047 0.29183 0.0
H266 H 0.50658 0.25279 0.40136 0.0
H267 H 0.49828 0.22722 0.30268 0.0
N268 N 0.4859 0.21757 0.17008 0.0
N269 N 0.49775 0.21916 0.04864 0.0
N270 N 0.48695 0.25179 0.10988 0.0
C271 C 0.49302 0.20703 0.10977 0.0
C272 C 0.49426 0.24178 0.04883 0.0
C273 C 0.4827 0.23984 0.17048 0.0
C274 C 0.49745 0.18293 0.1175 0.0
C275 C 0.51814 0.17614 0.14605 0.0
C276 C 0.52 0.15624 0.18596 0.0
C277 C 0.50115 0.14272 0.19844 0.0
C278 C 0.48098 0.14855 0.1637 0.0
C279 C 0.47914 0.16849 0.12421 0.0
C280 C 0.50083 0.25674 0.98867 0.0
C281 C 0.48555 0.26202 0.93345 0.0
C282 C 0.48813 0.28158 0.89192 0.0
C283 C 0.50586 0.29653 0.90553 0.0
C284 C 0.5218 0.29036 0.95823 0.0
C285 C 0.51928 0.2708 0.99911 0.0
C286 C 0.47977 0.25162 0.23923 0.0
C287 C 0.47045 0.27308 0.2393 0.0
Pr288 Pr 0.02963 1.0032 0.76009 0.0
Pr289 Pr 0.99262 0.01289 0.62903 0.0
C290 C 0.05015 0.99138 0.88342 0.0
C291 C 0.05067 0.97006 0.9232 0.0
C292 C 0.06941 0.9561 0.91656 0.0
C293 C 0.06805 0.93363 0.93577 0.0
C294 C 0.04808 0.925 0.96336 0.0
C295 C 0.0301 0.93941 0.97684 0.0
C296 C 0.03135 0.96178 0.95673 0.0
C297 C 0.0509 0.01349 0.62777 0.0
C298 C 0.00957 0.96077 0.66062 0.0
C299 C 0.97197 0.02443 0.50549 0.0
C300 C 0.96978 0.04606 0.46797 0.0
C301 C 0.95032 0.05885 0.47763 0.0
C302 C 0.95014 0.08146 0.45966 0.0
C303 C 0.96924 0.09144 0.43039 0.0
C304 C 0.98786 0.07816 0.41395 0.0
C305 C 0.98815 0.05565 0.43269 0.0
C306 C 0.97111 1.001 0.75895 0.0
C307 C 0.01174 0.05527 0.73237 0.0
O308 O 0.03124 1.00246 0.88252 0.0
O309 O 0.0599 0.99083 0.82023 0.0
O310 O 0.03028 0.01289 0.64069 0.0
O311 O 0.06157 1.00928 0.68741 0.0
O312 O 1.00095 0.97503 0.61308 0.0
O313 O 0.01872 0.96712 0.72282 0.0
O314 O 0.99179 0.01511 0.50668 0.0
O315 O 0.96181 0.02331 0.56788 0.0
O316 O 0.99184 1.00254 0.7482 0.0
O317 O 0.96069 1.00524 0.6989 0.0
O318 O 0.02153 0.04093 0.77705 0.0
O319 O 1.00191 0.04914 0.67085 0.0
H320 H 0.08458 0.96214 0.89147 0.0
H321 H 0.08217 0.92279 0.92575 0.0
H322 H 0.01448 0.93305 0.99794 0.0
H323 H 0.01667 0.9721 0.96296 0.0
H324 H 0.9358 0.05178 0.50392 0.0
H325 H 0.93552 0.09138 0.47203 0.0
H326 H 1.00287 0.08552 0.39168 0.0
H327 H 1.00331 0.04625 0.42402 0.0
Pr328 Pr 0.51919 0.02102 0.77424 0.0
Pr329 Pr 0.5053 0.98599 0.64119 0.0
C330 C 0.53416 0.03821 0.89845 0.0
C331 C 0.5532 0.05235 0.91649 0.0
C332 C 0.56288 0.06616 0.86357 0.0
C333 C 0.5837 0.0759 0.87604 0.0
C334 C 0.5951 0.07155 0.94092 0.0
C335 C 0.58486 0.05866 0.99503 0.0
C336 C 0.564 0.04914 0.98289 0.0
C337 C 0.51341 0.04391 0.64185 0.0
C338 C 0.55907 0.99858 0.66696 0.0
C339 C 0.48948 0.96865 0.51842 0.0
C340 C 0.46671 0.97067 0.49071 0.0
C341 C 0.45604 0.95217 0.45986 0.0
C342 C 0.43289 0.95234 0.44996 0.0
C343 C 0.42044 0.97089 0.47199 0.0
C344 C 0.43121 0.9897 0.49979 0.0
C345 C 0.4542 0.98963 0.50904 0.0
C346 C 0.51084 0.96376 0.77502 0.0
C347 C 0.46576 1.00844 0.74651 0.0
O348 O 0.53973 0.01829 0.87582 0.0
O349 O 0.51796 0.04747 0.8609 0.0
O350 O 0.51104 0.02333 0.65421 0.0
O351 O 0.51913 0.05371 0.7017 0.0
O352 O 0.54392 0.98866 0.62565 0.0
O353 O 0.55396 0.01024 0.72568 0.0
O354 O 0.50129 0.98704 0.51947 0.0
O355 O 0.49088 0.95718 0.57854 0.0
O356 O 0.51294 0.98419 0.76117 0.0
O357 O 0.50632 0.95343 0.71515 0.0
O358 O 0.48111 0.01436 0.7946 0.0
O359 O 0.4709 1.00058 0.68156 0.0
H360 H 0.55491 0.06843 0.81134 0.0
H361 H 0.59146 0.08567 0.83358 0.0
H362 H 0.59344 0.05521 0.04556 0.0
H363 H 0.55687 0.03827 0.02372 0.0
H364 H 0.46543 0.93727 0.44687 0.0
H365 H 0.42464 0.93781 0.4278 0.0
H366 H 0.42172 1.00424 0.51607 0.0
H367 H 0.46201 1.00395 0.53413 0.0
Pr368 Pr 0.49009 0.50948 0.76979 0.0
Pr369 Pr 0.53027 0.50278 0.64778 0.0
C370 C 0.46673 0.51882 0.88917 0.0
C371 C 0.46399 0.53952 0.93048 0.0
C372 C 0.44345 0.55081 0.92721 0.0
C373 C 0.44204 0.57311 0.9478 0.0
C374 C 0.46108 0.5842 0.97322 0.0
C375 C 0.48107 0.57229 0.98304 0.0
C376 C 0.48256 0.55011 0.96159 0.0
C377 C 0.47241 0.49805 0.63327 0.0
C378 C 0.50988 0.55382 0.67628 0.0
C379 C 0.55262 0.49347 0.52657 0.0
C380 C 0.55267 0.47355 0.48059 0.0
C381 C 0.57171 0.45987 0.48025 0.0
C382 C 0.57017 0.43784 0.45703 0.0
C383 C 0.54968 0.42944 0.43252 0.0
C384 C 0.53129 0.44382 0.42543 0.0
C385 C 0.53272 0.46574 0.44962 0.0
C386 C 0.54821 0.51447 0.78343 0.0
C387 C 0.51072 0.45867 0.74243 0.0
O388 O 0.48635 0.50908 0.89159 0.0
O389 O 0.45814 0.51955 0.82403 0.0
O390 O 0.49259 0.50047 0.65061 0.0
O391 O 0.46022 0.50066 0.69045 0.0
O392 O 0.52112 0.54038 0.6329 0.0
O393 O 0.49877 0.54652 0.73398 0.0
O394 O 0.53442 0.50571 0.52651 0.0
O395 O 0.56091 0.49014 0.59139 0.0
O396 O 0.52794 0.51193 0.76703 0.0
O397 O 0.56026 0.51157 0.72605 0.0
O398 O 0.50011 0.47218 0.78721 0.0
O399 O 0.52088 0.46581 0.68275 0.0
H400 H 0.4289 0.54292 0.90359 0.0
H401 H 0.42644 0.582 0.9404 0.0
H402 H 0.49602 0.58057 1.00213 0.0
H403 H 0.49864 0.54186 0.96478 0.0
H404 H 0.58727 0.4656 0.50372 0.0
H405 H 0.58458 0.427 0.46228 0.0
H406 H 0.51529 0.43762 0.4069 0.0
H407 H 0.51774 0.47588 0.44913 0.0
Pr408 Pr 1.00613 0.48845 0.75356 0.0
Pr409 Pr 0.01427 0.52647 0.64906 0.0
C410 C 0.99149 0.45764 0.84807 0.0
C411 C 0.96942 0.4532 0.87981 0.0
C412 C 0.95645 0.43547 0.85334 0.0
C413 C 0.93392 0.43379 0.87146 0.0
C414 C 0.92418 0.44963 0.91717 0.0
C415 C 0.93756 0.46637 0.94782 0.0
C416 C 0.95999 0.46816 0.92933 0.0
C417 C 0.02071 0.47507 0.61681 0.0
C418 C 0.96214 0.51252 0.67118 0.0
C419 C 0.02746 0.54898 0.53083 0.0
C420 C 0.04986 0.55154 0.49915 0.0
C421 C 0.064 0.56885 0.52223 0.0
C422 C 0.08675 0.56818 0.5067 0.0
C423 C 0.09565 0.55031 0.46738 0.0
C424 C 0.08118 0.53411 0.43893 0.0
C425 C 0.05848 0.53479 0.4543 0.0
C426 C 1.0063 0.54678 0.78301 0.0
C427 C 0.05673 0.50678 0.74696 0.0
O428 O 1.00171 0.4759 0.86823 0.0
O429 O 0.9929 0.4541 0.77859 0.0
O430 O 1.00592 0.48958 0.62914 0.0
O431 O 0.02939 0.46778 0.67684 0.0
O432 O 0.97611 0.52349 0.62939 0.0
O433 O 0.96918 0.50004 0.72599 0.0
O434 O 0.01881 0.52898 0.52806 0.0
O435 O 0.02438 0.55853 0.59337 0.0
O436 O 1.00623 0.52592 0.77283 0.0
O437 O 1.00936 0.55751 0.72299 0.0
O438 O 0.04182 0.49837 0.79147 0.0
O439 O 0.0507 0.51496 0.68321 0.0
H440 H 0.9634 0.42363 0.81545 0.0
H441 H 0.92394 0.42065 0.84769 0.0
H442 H 0.9304 0.47896 0.98264 0.0
H443 H 0.96952 0.48198 0.95085 0.0
H444 H 0.05775 0.58218 0.55599 0.0
H445 H 0.09753 0.58109 0.5281 0.0
H446 H 0.08757 0.52004 0.40879 0.0
H447 H 0.04801 0.52132 0.435 0.0
C448 C 0.12429 0.04135 0.27798 0.0
C449 C 0.12856 0.02234 0.23574 0.0
C450 C 0.10908 0.04076 0.3358 0.0
C451 C 0.09802 0.02059 0.35325 0.0
C452 C 0.1013 1.00169 0.30878 0.0
C453 C 0.11641 1.00279 0.2506 0.0
C454 C 0.10561 0.06148 0.38046 0.0
C455 C 0.08946 0.98 0.32447 0.0
C456 C 0.08515 0.01132 0.55252 0.0
C457 C 0.06216 0.01566 0.55642 0.0
C458 C 0.09676 0.01265 0.48684 0.0
C459 C 0.08522 0.0186 0.4226 0.0
C460 C 0.06192 0.02293 0.42587 0.0
C461 C 0.0507 0.02152 0.49289 0.0
C462 C 0.12149 1.00766 0.48637 0.0
C463 C 0.04876 0.02959 0.3595 0.0
H464 H 0.13362 0.05653 0.26829 0.0
H465 H 0.11906 0.98812 0.21771 0.0
H466 H 0.0875 0.06489 0.38655 0.0
H467 H 0.11264 0.05887 0.43547 0.0
H468 H 0.1137 0.07637 0.35601 0.0
H469 H 0.09244 0.96732 0.28193 0.0
H470 H 0.09533 0.97317 0.37711 0.0
H471 H 0.07123 0.98293 0.32906 0.0
H472 H 0.09421 1.00671 0.60122 0.0
H473 H 0.03306 0.02519 0.49555 0.0
H474 H 0.13085 0.02256 0.46769 0.0
H475 H 0.12506 0.99395 0.44792 0.0
H476 H 0.1279 1.00275 0.54062 0.0
H477 H 0.05624 0.02314 0.30895 0.0
H478 H 0.04821 0.04808 0.35591 0.0
H479 H 0.0313 0.02347 0.36303 0.0
C480 C 0.48403 0.12189 0.30309 0.0
C481 C 0.50181 0.12448 0.25431 0.0
C482 C 0.48523 0.10669 0.3612 0.0
C483 C 0.50474 0.09367 0.37156 0.0
C484 C 0.52239 0.0955 0.32096 0.0
C485 C 0.52074 0.11087 0.26318 0.0
C486 C 0.46604 0.10546 0.41381 0.0
C487 C 0.54345 0.08189 0.32958 0.0
C488 C 0.51864 0.07805 0.56651 0.0
C489 C 0.51151 0.05579 0.5712 0.0
C490 C 0.51683 0.0903 0.50181 0.0
C491 C 0.50759 0.08015 0.4395 0.0
C492 C 0.50047 0.05759 0.44357 0.0
C493 C 0.50247 0.0457 0.50946 0.0
C494 C 0.52454 0.11429 0.50057 0.0
C495 C 0.49046 0.04613 0.37865 0.0
H496 H 0.46946 0.13252 0.29803 0.0
H497 H 0.53449 0.11249 0.22559 0.0
H498 H 0.46112 0.08785 0.4233 0.0
H499 H 0.47131 0.11244 0.46665 0.0
H500 H 0.4512 0.11489 0.39436 0.0
H501 H 0.55461 0.08347 0.28198 0.0
H502 H 0.55269 0.08753 0.37828 0.0
H503 H 0.53931 0.06402 0.33776 0.0
H504 H 0.52565 0.08604 0.61392 0.0
H505 H 0.49661 0.02871 0.51296 0.0
H506 H 0.51029 0.12544 0.48729 0.0
H507 H 0.5373 0.11668 0.45787 0.0
H508 H 0.53178 0.11958 0.55316 0.0
H509 H 0.47493 0.05484 0.3618 0.0
H510 H 0.48645 0.02834 0.38979 0.0
H511 H 0.50218 0.04699 0.33241 0.0
C512 C 0.41113 0.4787 0.24841 0.0
C513 C 0.39465 0.49535 0.24198 0.0
C514 C 0.42667 0.47869 0.30582 0.0
C515 C 0.42617 0.49601 0.35766 0.0
C516 C 0.41067 0.5137 0.34866 0.0
C517 C 0.39503 0.51306 0.29167 0.0
C518 C 0.44274 0.4594 0.31337 0.0
C519 C 0.40974 0.53273 0.4018 0.0
C520 C 0.44172 0.4848 0.55412 0.0
C521 C 0.46284 0.49466 0.56004 0.0
C522 C 0.43019 0.48426 0.48794 0.0
C523 C 0.43974 0.49429 0.42583 0.0
C524 C 0.46148 0.50362 0.43079 0.0
C525 C 0.47287 0.50355 0.49789 0.0
C526 C 0.40732 0.47367 0.48535 0.0
C527 C 0.47219 0.51476 0.36638 0.0
H528 H 0.4115 0.46518 0.20976 0.0
H529 H 0.38237 0.52594 0.28862 0.0
H530 H 0.45995 0.46555 0.32301 0.0
H531 H 0.438 0.4491 0.36092 0.0
H532 H 0.44277 0.44858 0.26476 0.0
H533 H 0.39884 0.54654 0.38243 0.0
H534 H 0.40318 0.5266 0.4543 0.0
H535 H 0.42672 0.53943 0.41184 0.0
H536 H 0.43391 0.47791 0.60208 0.0
H537 H 0.48903 0.51154 0.5025 0.0
H538 H 0.40639 0.46147 0.4405 0.0
H539 H 0.39451 0.48667 0.47478 0.0
H540 H 0.40307 0.46499 0.5367 0.0
H541 H 0.47068 0.50414 0.31762 0.0
H542 H 0.49012 0.51845 0.37607 0.0
H543 H 0.46339 0.53067 0.35453 0.0
C544 C 1.00785 0.3864 0.302 0.0
C545 C 0.0226 0.38879 0.24349 0.0
C546 C 1.00736 0.402 0.35867 0.0
C547 C 0.02201 0.42055 0.35747 0.0
C548 C 0.03642 0.42349 0.29755 0.0
C549 C 0.03654 0.40764 0.24146 0.0
C550 C 0.99172 0.39813 0.42137 0.0
C551 C 0.05225 0.44304 0.29379 0.0
C552 C 1.0089 0.46808 0.48808 0.0
C553 C 0.02265 0.46277 0.54736 0.0
C554 C 1.00896 0.45492 0.42503 0.0
C555 C 0.02312 0.43599 0.42103 0.0
C556 C 0.03761 0.43108 0.47979 0.0
C557 C 0.03721 0.44451 0.54201 0.0
C558 C 0.99333 0.46084 0.3637 0.0
C559 C 0.05305 0.41117 0.47801 0.0
H560 H 0.99728 0.37178 0.30526 0.0
H561 H 0.04785 0.40984 0.19637 0.0
H562 H 1.00154 0.39497 0.47139 0.0
H563 H 0.98141 0.41322 0.43085 0.0
H564 H 0.98042 0.38372 0.41222 0.0
H565 H 0.06124 0.44386 0.2414 0.0
H566 H 0.04302 0.4589 0.30163 0.0
H567 H 0.06474 0.44171 0.33806 0.0
H568 H 0.99761 0.48218 0.4917 0.0
H569 H 0.04795 0.44033 0.58741 0.0
H570 H 0.98059 0.44755 0.3576 0.0
H571 H 1.00263 0.46185 0.31201 0.0
H572 H 0.98464 0.47697 0.37271 0.0
H573 H 0.04308 0.39559 0.47546 0.0
H574 H 0.06412 0.4103 0.52629 0.0
H575 H 0.06359 0.41177 0.42883 0.0
C576 C 0.89532 0.972 0.1063 0.0
C577 C 0.88771 0.99221 0.13537 0.0
C578 C 0.91182 0.97166 0.05214 0.0
C579 C 0.92063 0.99201 0.02533 0.0
C580 C 0.91375 0.01237 0.0569 0.0
C581 C 0.89748 0.01221 0.11148 0.0
C582 C 0.91906 0.94957 0.02121 0.0
C583 C 0.92255 0.03448 0.02992 0.0
C584 C 0.97022 0.99492 0.89486 0.0
C585 C 0.9592 0.9968 0.8281 0.0
C586 C 0.95803 0.99276 0.95988 0.0
C587 C 0.93432 0.99242 0.9577 0.0
C588 C 0.92327 0.99379 0.89005 0.0
C589 C 0.9358 0.99587 0.82653 0.0
C590 C 0.97049 0.99094 0.0307 0.0
C591 C 0.89808 0.99381 0.88467 0.0
H592 H 0.88806 0.95646 0.12495 0.0
H593 H 0.89156 0.02795 0.13279 0.0
H594 H 0.91255 0.94793 0.96524 0.0
H595 H 0.93754 0.94871 0.0184 0.0
H596 H 0.9129 0.93524 0.05377 0.0
H597 H 0.91717 0.04862 0.06443 0.0
H598 H 0.94105 0.0342 0.02804 0.0
H599 H 0.91644 0.03753 0.974 0.0
H600 H 0.98825 0.99555 0.89639 0.0
H601 H 0.92708 0.99725 0.77522 0.0
H602 H 0.96943 0.97352 0.05092 0.0
H603 H 0.96292 1.00186 0.07225 0.0
H604 H 0.98837 0.99544 0.02491 0.0
H605 H 0.8912 0.97859 0.91058 0.0
H606 H 0.89208 0.99452 0.82778 0.0
H607 H 0.89123 1.0084 0.91396 0.0
C608 C 0.49779 0.90072 0.1566 0.0
C609 C 0.51697 0.88808 0.17279 0.0
C610 C 0.49712 0.91532 0.09671 0.0
C611 C 0.5162 0.91771 0.05228 0.0
C612 C 0.53605 0.90618 0.07102 0.0
C613 C 0.53614 0.89142 0.13041 0.0
C614 C 0.47554 0.92714 0.07856 0.0
C615 C 0.55687 0.90841 0.02579 0.0
C616 C 0.50779 0.92969 0.85175 0.0
C617 C 0.51239 0.95258 0.84675 0.0
C618 C 0.50868 0.91835 0.91829 0.0
C619 C 0.51466 0.93006 0.98184 0.0
C620 C 0.51938 0.95321 0.97727 0.0
C621 C 0.51793 0.96425 0.90982 0.0
C622 C 0.50318 0.89376 0.92043 0.0
C623 C 0.52611 0.96625 0.04344 0.0
H624 H 0.48298 0.89871 0.18944 0.0
H625 H 0.55101 0.88162 0.14106 0.0
H626 H 0.47857 0.94515 0.06877 0.0
H627 H 0.46846 0.92012 0.02799 0.0
H628 H 0.46295 0.92535 0.12217 0.0
H629 H 0.57166 0.90076 0.05257 0.0
H630 H 0.55427 0.90009 0.97295 0.0
H631 H 0.56049 0.92624 0.01459 0.0
H632 H 0.50331 0.92056 0.80337 0.0
H633 H 0.52116 0.98194 0.9065 0.0
H634 H 0.48941 0.89064 0.95916 0.0
H635 H 0.51789 0.88414 0.93966 0.0
H636 H 0.49813 0.88727 0.86661 0.0
H637 H 0.51273 0.96538 0.08465 0.0
H638 H 0.52951 0.98407 0.03077 0.0
H639 H 0.54132 0.95878 0.06802 0.0
C640 C 0.61091 0.54045 0.16125 0.0
C641 C 0.62573 0.52265 0.17426 0.0
C642 C 0.59529 0.5398 0.10414 0.0
C643 C 0.59414 0.52077 0.05912 0.0
C644 C 0.60797 0.50216 0.0749 0.0
C645 C 0.62363 0.50337 0.1317 0.0
C646 C 0.58095 0.56004 0.08936 0.0
C647 C 0.60723 0.48143 0.02887 0.0
C648 C 0.54726 0.5125 0.92002 0.0
C649 C 0.55804 0.51872 0.85586 0.0
C650 C 0.55847 0.51367 0.98731 0.0
C651 C 0.58088 0.52137 0.99021 0.0
C652 C 0.59133 0.52861 0.92568 0.0
C653 C 0.57986 0.52706 0.85962 0.0
C654 C 0.54673 0.50566 0.0546 0.0
C655 C 0.61502 0.53725 0.9258 0.0
H656 H 0.61197 0.55528 0.19435 0.0
H657 H 0.63505 0.48956 0.13999 0.0
H658 H 0.58662 0.5683 0.03884 0.0
H659 H 0.56329 0.55509 0.08111 0.0
H660 H 0.5818 0.57235 0.13402 0.0
H661 H 0.61693 0.46747 0.05322 0.0
H662 H 0.58973 0.4759 0.02086 0.0
H663 H 0.61424 0.48518 0.97469 0.0
H664 H 0.53052 0.50575 0.9173 0.0
H665 H 0.58827 0.53196 0.81018 0.0
H666 H 0.54893 0.51777 0.09927 0.0
H667 H 0.55422 0.48963 0.07264 0.0
H668 H 0.5286 0.50305 0.04523 0.0
H669 H 0.61685 0.55089 0.96575 0.0
H670 H 0.62018 0.54363 0.87188 0.0
H671 H 0.62663 0.52369 0.94211 0.0
C672 C 0.01771 0.61255 0.15865 0.0
C673 C 0.99807 0.6244 0.17447 0.0
C674 C 0.01867 0.59754 0.10029 0.0
C675 C 0.99948 0.59397 0.05683 0.0
C676 C 0.97926 0.6048 0.07514 0.0
C677 C 0.97884 0.61994 0.13308 0.0
C678 C 0.04062 0.58647 0.08268 0.0
C679 C 0.95833 0.60143 0.03083 0.0
C680 C 1.00786 0.5813 0.85725 0.0
C681 C 1.0042 0.55821 0.85392 0.0
C682 C 1.00657 0.59293 0.92282 0.0
C683 C 1.00121 0.5813 0.98731 0.0
C684 C 0.99734 0.55795 0.98447 0.0
C685 C 0.99902 0.54663 0.91781 0.0
C686 C 0.011 0.61774 0.92293 0.0
C687 C 0.99131 0.54499 0.05174 0.0
H688 H 0.03259 0.61544 0.19071 0.0
H689 H 0.96361 0.62913 0.14336 0.0
H690 H 0.03827 0.56829 0.07489 0.0
H691 H 0.04716 0.59339 0.03118 0.0
H692 H 0.05334 0.58908 0.12568 0.0
H693 H 0.94336 0.60856 0.05751 0.0
H694 H 0.96029 0.6096 0.97727 0.0
H695 H 0.95542 0.58341 0.02115 0.0
H696 H 0.01198 0.5904 0.80828 0.0
H697 H 0.99617 0.52878 0.91563 0.0
H698 H 0.02486 0.62162 0.96077 0.0
H699 H 0.99602 0.62681 0.94216 0.0
H700 H 0.01542 0.62422 0.86844 0.0
H701 H 1.0048 0.54658 0.09266 0.0
H702 H 0.98856 0.52701 0.04054 0.0
H703 H 0.97592 0.55201 0.07596 0.0
C704 C 0.9978 0.22106 0.39884 0.0
C705 C 0.02109 0.22053 0.40677 0.0
C706 C 0.98497 0.20209 0.41348 0.0
C707 C 0.99581 0.18247 0.43747 0.0
C708 C 0.01887 0.1829 0.45491 0.0
C709 C 0.03132 0.202 0.43885 0.0
C710 C 0.9605 0.20232 0.39365 0.0
C711 C 0.03101 0.1624 0.48179 0.0
C712 C 0.96666 0.12882 0.48762 0.0
C713 C 0.97123 0.11589 0.42633 0.0
C714 C 0.97325 0.15122 0.4907 0.0
C715 C 0.9845 0.16067 0.43097 0.0
C716 C 0.98733 0.14821 0.3667 0.0
C717 C 0.98073 0.12587 0.36533 0.0
C718 C 0.96918 0.16439 0.55883 0.0
C719 C 0.99867 0.158 0.30095 0.0
H720 H 0.98988 0.23536 0.37332 0.0
H721 H 0.04933 0.20169 0.44499 0.0
H722 H 0.95849 0.19589 0.33781 0.0
H723 H 0.9506 0.1915 0.43014 0.0
H724 H 0.95355 0.2195 0.39514 0.0
H725 H 0.04684 0.1668 0.50974 0.0
H726 H 0.02045 0.15262 0.51928 0.0
H727 H 0.0351 0.15159 0.43509 0.0
H728 H 0.95931 0.12104 0.53493 0.0
H729 H 0.98394 0.11588 0.31772 0.0
H730 H 0.95677 0.17771 0.54778 0.0
H731 H 0.98477 0.17268 0.57695 0.0
H732 H 0.96276 0.15377 0.60354 0.0
H733 H 0.99132 0.17448 0.28708 0.0
H734 H 0.99726 0.14696 0.25304 0.0
H735 H 0.01665 0.16063 0.31282 0.0
C736 C 0.31161 0.03202 0.44709 0.0
C737 C 0.29315 0.02129 0.41669 0.0
C738 C 0.33004 0.01965 0.47081 0.0
C739 C 0.32981 0.99612 0.46342 0.0
C740 C 0.31003 0.98513 0.44216 0.0
C741 C 0.29179 0.99792 0.41904 0.0
C742 C 0.3507 0.03193 0.49523 0.0
C743 C 0.30899 0.96009 0.43458 0.0
C744 C 0.38624 0.97705 0.40083 0.0
C745 C 0.39612 0.97124 0.46661 0.0
C746 C 0.36385 0.98356 0.39818 0.0
C747 C 0.3513 0.98406 0.46307 0.0
C748 C 0.36071 0.97607 0.52839 0.0
C749 C 0.38328 0.96996 0.52962 0.0
C750 C 0.35427 0.99176 0.32716 0.0
C751 C 0.34729 0.97521 0.59727 0.0
H752 H 0.31246 0.05009 0.44585 0.0
H753 H 0.27751 0.98956 0.39529 0.0
H754 H 0.35782 0.02394 0.54429 0.0
H755 H 0.36354 0.03117 0.45213 0.0
H756 H 0.34721 0.04974 0.50718 0.0
H757 H 0.29157 0.95396 0.43963 0.0
H758 H 0.31518 0.95537 0.38025 0.0
H759 H 0.31956 0.95153 0.4755 0.0
H760 H 0.39646 0.97811 0.35261 0.0
H761 H 0.39123 0.9654 0.58039 0.0
H762 H 0.35141 0.01004 0.32996 0.0
H763 H 0.33793 0.98373 0.31636 0.0
H764 H 0.36556 0.98834 0.28094 0.0
H765 H 0.34072 0.99203 0.61031 0.0
H766 H 0.35726 0.96894 0.64384 0.0
H767 H 0.33266 0.96413 0.58986 0.0
C768 C 0.52412 0.29984 0.38084 0.0
C769 C 0.50112 0.29791 0.39308 0.0
C770 C 0.53529 0.31981 0.3952 0.0
C771 C 0.52314 0.33792 0.42383 0.0
C772 C 0.50051 0.33514 0.44393 0.0
C773 C 0.48961 0.31516 0.42726 0.0
C774 C 0.55927 0.32223 0.37156 0.0
C775 C 0.48722 0.35395 0.47662 0.0
C776 C 0.55159 0.39105 0.483 0.0
C777 C 0.54634 0.40527 0.42494 0.0
C778 C 0.54485 0.3687 0.48261 0.0
C779 C 0.53284 0.36055 0.42239 0.0
C780 C 0.52874 0.37452 0.36175 0.0
C781 C 0.53539 0.39685 0.36409 0.0
C782 C 0.54991 0.35406 0.54733 0.0
C783 C 0.51653 0.36615 0.29559 0.0
H784 H 0.53291 0.28657 0.35316 0.0
H785 H 0.4718 0.31359 0.43625 0.0
H786 H 0.55973 0.33112 0.31879 0.0
H787 H 0.56907 0.33221 0.4107 0.0
H788 H 0.5675 0.30575 0.36482 0.0
H789 H 0.4715 0.3479 0.5016 0.0
H790 H 0.49721 0.36272 0.51824 0.0
H791 H 0.48288 0.36626 0.43382 0.0
H792 H 0.55991 0.39771 0.53039 0.0
H793 H 0.53147 0.40794 0.31927 0.0
H794 H 0.56238 0.34123 0.53231 0.0
H795 H 0.53467 0.34511 0.56516 0.0
H796 H 0.55669 0.36374 0.59355 0.0
H797 H 0.52425 0.35047 0.2761 0.0
H798 H 0.51658 0.37855 0.25071 0.0
H799 H 0.49894 0.36238 0.30965 0.0
C800 C 0.20706 0.48666 0.45088 0.0
C801 C 0.22484 0.49814 0.41924 0.0
C802 C 0.18792 0.49815 0.47258 0.0
C803 C 0.18667 0.52153 0.46144 0.0
C804 C 0.20563 0.53343 0.4377 0.0
C805 C 0.22465 0.52153 0.41718 0.0
C806 C 0.16816 0.48496 0.49941 0.0
C807 C 0.20494 0.5583 0.42467 0.0
C808 C 0.12938 0.53897 0.39846 0.0
C809 C 0.12002 0.54695 0.46257 0.0
C810 C 0.15149 0.5316 0.39676 0.0
C811 C 0.16455 0.53244 0.46071 0.0
C812 C 0.15575 0.542 0.52421 0.0
C813 C 0.13346 0.54911 0.5245 0.0
C814 C 0.16047 0.52183 0.32746 0.0
C815 C 0.16962 0.54402 0.59219 0.0
H816 H 0.20735 0.46857 0.45262 0.0
H817 H 0.23837 0.53042 0.39202 0.0
H818 H 0.16023 0.49358 0.54544 0.0
H819 H 0.15555 0.48363 0.45554 0.0
H820 H 0.17298 0.46784 0.51675 0.0
H821 H 0.22198 0.56558 0.42349 0.0
H822 H 0.19687 0.56166 0.37159 0.0
H823 H 0.19503 0.56693 0.46664 0.0
H824 H 0.11911 0.5377 0.35024 0.0
H825 H 0.12624 0.55522 0.57433 0.0
H826 H 0.16369 0.50373 0.33509 0.0
H827 H 0.17656 0.52981 0.31306 0.0
H828 H 0.14869 0.52395 0.28138 0.0
H829 H 0.17789 0.52792 0.60528 0.0
H830 H 0.1595 0.54935 0.63927 0.0
H831 H 0.183 0.55649 0.58359 0.0
C832 C 0.98716 0.81176 0.9754 0.0
C833 C 0.99878 0.79445 0.00971 0.0
C834 C 0.99828 0.83127 0.9547 0.0
C835 C 0.02132 0.83349 0.9705 0.0
C836 C 0.03353 0.81511 0.99782 0.0
C837 C 0.02207 0.79563 0.0166 0.0
C838 C 0.98488 0.85036 0.92339 0.0
C839 C 0.05804 0.81687 0.01616 0.0
C840 C 0.0489 0.88706 0.90971 0.0
C841 C 0.04478 0.90076 0.96953 0.0
C842 C 0.04215 0.86469 0.90989 0.0
C843 C 0.03132 0.856 0.97162 0.0
C844 C 0.02844 0.86943 0.0338 0.0
C845 C 0.03509 0.89176 0.03174 0.0
C846 C 0.04594 0.85064 0.84347 0.0
C847 C 0.01742 0.86053 0.10142 0.0
H848 H 0.96916 0.81073 0.97012 0.0
H849 H 0.03102 0.78229 0.04397 0.0
H850 H 0.9819 0.86298 0.96601 0.0
H851 H 0.99421 0.8586 0.87909 0.0
H852 H 0.96846 0.84472 0.90223 0.0
H853 H 0.06597 0.80016 0.02085 0.0
H854 H 0.06715 0.8268 0.97508 0.0
H855 H 0.05992 0.82548 0.06887 0.0
H856 H 0.05629 0.89416 0.86135 0.0
H857 H 0.03211 0.90241 0.07799 0.0
H858 H 0.03034 0.84194 0.82757 0.0
H859 H 0.05857 0.8376 0.85557 0.0
H860 H 0.05196 0.86071 0.79687 0.0
H861 H 0.99961 0.85684 0.09004 0.0
H862 H 0.01825 0.87257 0.14687 0.0
H863 H 0.02548 0.84472 0.11884 0.0
C864 C 0.7051 0.09612 0.13213 0.0
C865 C 0.72502 0.09414 0.0928 0.0
C866 C 0.68447 0.09758 0.09702 0.0
C867 C 0.68367 0.09677 0.02066 0.0
C868 C 0.70369 0.09728 0.98041 0.0
C869 C 0.72422 0.09608 0.01708 0.0
C870 C 0.66346 0.09724 0.14209 0.0
C871 C 0.70347 0.09678 0.89884 0.0
C872 C 0.63452 0.06196 0.9648 0.0
C873 C 0.6185 0.07835 0.9501 0.0
C874 C 0.65642 0.06782 0.98218 0.0
C875 C 0.66231 0.09067 0.98549 0.0
C876 C 0.64656 0.10725 0.96562 0.0
C877 C 0.62469 0.10085 0.94783 0.0
C878 C 0.67278 0.04954 1.00199 0.0
C879 C 0.65234 0.13172 0.96792 0.0
H880 H 0.70527 0.09445 0.19049 0.0
H881 H 0.73954 0.09515 0.9862 0.0
H882 H 0.651 0.10925 0.1205 0.0
H883 H 0.65591 0.08035 0.13996 0.0
H884 H 0.66686 0.10134 0.19963 0.0
H885 H 0.71958 0.10262 0.87601 0.0
H886 H 0.70064 0.0794 0.88052 0.0
H887 H 0.68975 0.10723 0.8766 0.0
H888 H 0.62967 0.04453 0.96487 0.0
H889 H 0.61219 0.11343 0.9357 0.0
H890 H 0.67654 0.05027 0.06076 0.0
H891 H 0.68872 0.05188 0.97261 0.0
H892 H 0.66618 0.03267 0.98947 0.0
H893 H 0.65219 0.13746 0.02489 0.0
H894 H 0.64017 0.14196 0.93669 0.0
H895 H 0.66933 0.13473 0.94631 0.0
C896 C 0.47738 0.71503 0.024 0.0
C897 C 0.50032 0.71737 0.0114 0.0
C898 C 0.46641 0.69514 0.00694 0.0
C899 C 0.47876 0.67756 0.97585 0.0
C900 C 0.50113 0.68109 0.95395 0.0
C901 C 0.51177 0.701 0.97273 0.0
C902 C 0.44259 0.69206 0.03137 0.0
C903 C 0.51471 0.66287 0.91908 0.0
C904 C 0.47124 0.61845 0.04057 0.0
C905 C 0.46124 0.60864 0.98021 0.0
C906 C 0.47575 0.64131 0.04147 0.0
C907 C 0.47023 0.65449 0.98014 0.0
C908 C 0.45869 0.64498 0.92115 0.0
C909 C 0.45426 0.62203 0.92191 0.0
C910 C 0.48765 0.65103 0.10625 0.0
C911 C 0.45218 0.65879 0.85591 0.0
H912 H 0.46857 0.72768 0.05448 0.0
H913 H 0.5295 0.70296 0.96289 0.0
H914 H 0.43313 0.68107 0.99421 0.0
H915 H 0.44258 0.68409 0.08569 0.0
H916 H 0.43377 0.70831 0.03552 0.0
H917 H 0.52947 0.66973 0.89037 0.0
H918 H 0.52072 0.65114 0.96151 0.0
H919 H 0.50448 0.65323 0.88023 0.0
H920 H 0.4764 0.60804 0.08577 0.0
H921 H 0.44664 0.61435 0.87495 0.0
H922 H 0.47884 0.66617 0.12536 0.0
H923 H 0.5048 0.65608 0.0907 0.0
H924 H 0.48886 0.63896 0.15188 0.0
H925 H 0.44088 0.67251 0.87237 0.0
H926 H 0.44365 0.64872 0.81379 0.0
H927 H 0.46721 0.66665 0.83192 0.0
C928 C 0.79554 0.47508 0.99296 0.0
C929 C 0.79635 0.49844 0.99659 0.0
C930 C 0.81383 0.46294 0.96718 0.0
C931 C 0.83321 0.47456 0.94545 0.0
C932 C 0.833 0.49818 0.94123 0.0
C933 C 0.81439 0.50983 0.96617 0.0
C934 C 0.81331 0.4378 0.97162 0.0
C935 C 0.85331 0.5115 0.91988 0.0
C936 C 0.89092 0.45515 0.99501 0.0
C937 C 0.89977 0.45056 0.92677 0.0
C938 C 0.86856 0.46133 1.00257 0.0
C939 C 0.85479 0.46272 0.94029 0.0
C940 C 0.86307 0.45606 0.87225 0.0
C941 C 0.88562 0.45012 0.86614 0.0
C942 C 0.86027 0.4682 0.07628 0.0
C943 C 0.84865 0.45708 0.80523 0.0
H944 H 0.78161 0.46619 0.01674 0.0
H945 H 0.81487 0.52791 0.96829 0.0
H946 H 0.82261 0.43015 0.92624 0.0
H947 H 0.8214 0.43232 0.02279 0.0
H948 H 0.79592 0.43139 0.97128 0.0
H949 H 0.84839 0.52711 0.89132 0.0
H950 H 0.86259 0.51627 0.96952 0.0
H951 H 0.86475 0.50192 0.88501 0.0
H952 H 0.90183 0.45514 0.04193 0.0
H953 H 0.89249 0.4467 0.81315 0.0
H954 H 0.84409 0.46004 0.08839 0.0
H955 H 0.85747 0.48651 0.07692 0.0
H956 H 0.87233 0.46392 0.11998 0.0
H957 H 0.85688 0.44924 0.758 0.0
H958 H 0.84484 0.47475 0.79178 0.0
H959 H 0.83249 0.4486 0.81499 0.0
C960 C 0.03626 0.18198 0.85191 0.0
C961 C 0.01673 0.1934 0.87213 0.0
C962 C 0.03545 0.16009 0.82429 0.0
C963 C 0.01467 0.14901 0.81744 0.0
C964 C 0.99486 0.16063 0.83548 0.0
C965 C 0.9961 0.18261 0.86195 0.0
C966 C 0.05696 0.14858 0.80422 0.0
C967 C 0.97231 0.14963 0.82823 0.0
C968 C 0.00981 0.09631 0.7014 0.0
C969 C 0.01195 0.0793 0.75333 0.0
C970 C 0.01083 0.119 0.72125 0.0
C971 C 0.01369 0.12495 0.79489 0.0
C972 C 0.0155 0.1078 0.84759 0.0
C973 C 0.01482 0.0853 0.82619 0.0
C974 C 0.0095 0.13654 0.66289 0.0
C975 C 0.01811 0.11321 0.92686 0.0
H976 H 0.05235 0.18982 0.86001 0.0
H977 H 0.98081 0.19126 0.87556 0.0
H978 H 0.05983 0.1341 0.84071 0.0
H979 H 0.05583 0.14205 0.74826 0.0
H980 H 0.07159 0.1599 0.8079 0.0
H981 H 0.95843 0.16094 0.84353 0.0
H982 H 0.96966 0.14411 0.77164 0.0
H983 H 0.97164 0.13454 0.86319 0.0
H984 H 1.00784 0.09192 0.64492 0.0
H985 H 0.01632 0.07234 0.86699 0.0
H986 H 0.0265 0.1431 0.65232 0.0
H987 H 0.999 0.15078 0.6801 0.0
H988 H 1.00269 0.12966 0.61171 0.0
H989 H 0.03358 0.12301 0.93556 0.0
H990 H 0.01888 0.09799 0.96131 0.0
H991 H 1.00391 0.12366 0.94497 0.0
C992 C 0.33965 0.03731 0.86656 0.0
C993 C 0.32686 0.01784 0.87615 0.0
C994 C 0.36185 0.03638 0.84163 0.0
C995 C 0.37183 0.01548 0.82667 0.0
C996 C 0.35889 0.99583 0.83414 0.0
C997 C 0.33665 0.99724 0.85837 0.0
C998 C 0.37481 0.0578 0.83273 0.0
C999 C 0.36873 0.9732 0.81807 0.0
C1000 C 0.42514 0.01227 0.71331 0.0
C1001 C 0.44177 0.0105 0.7667 0.0
C1002 C 0.40243 0.01422 0.73183 0.0
C1003 C 0.396 0.01403 0.80563 0.0
C1004 C 0.41275 0.01217 0.85972 0.0
C1005 C 0.43536 0.01065 0.83969 0.0
C1006 C 0.38549 0.0171 0.67207 0.0
C1007 C 0.40676 0.0116 0.93896 0.0
H1008 H 0.3326 0.05334 0.88079 0.0
H1009 H 0.32698 0.98208 0.86394 0.0
H1010 H 0.38921 0.05791 0.87061 0.0
H1011 H 0.38161 0.05894 0.77708 0.0
H1012 H 0.3644 0.07278 0.84308 0.0
H1013 H 0.35605 0.95971 0.82056 0.0
H1014 H 0.37645 0.9732 0.76361 0.0
H1015 H 0.38214 0.9694 0.85783 0.0
H1016 H 0.4299 0.0125 0.6568 0.0
H1017 H 0.44804 1.00918 0.88142 0.0
H1018 H 0.3815 0.03509 0.66603 0.0
H1019 H 0.36975 1.00828 0.68472 0.0
H1020 H 0.39194 0.01101 0.61948 0.0
H1021 H 0.39769 0.02706 0.95371 0.0
H1022 H 0.42169 0.00998 0.97442 0.0
H1023 H 0.39542 0.99736 0.94992 0.0
C1024 C 0.52739 0.32962 0.85585 0.0
C1025 C 0.50681 0.31922 0.87023 0.0
C1026 C 0.52852 0.35183 0.83072 0.0
C1027 C 0.50862 0.36406 0.81819 0.0
C1028 C 0.4878 0.35339 0.82909 0.0
C1029 C 0.48713 0.3313 0.8555 0.0
C1030 C 0.55109 0.36243 0.81934 0.0
C1031 C 0.46614 0.36557 0.81484 0.0
C1032 C 0.50958 0.42757 0.83343 0.0
C1033 C 0.51098 0.43444 0.76086 0.0
C1034 C 0.50917 0.40483 0.8526 0.0
C1035 C 0.5096 0.38835 0.7979 0.0
C1036 C 0.51094 0.39519 0.72445 0.0
C1037 C 0.51188 0.41811 0.70684 0.0
C1038 C 0.50828 0.39845 0.93165 0.0
C1039 C 0.51061 0.37839 0.66412 0.0
H1040 H 0.54276 0.32049 0.86515 0.0
H1041 H 0.47108 0.32381 0.867 0.0
H1042 H 0.55253 0.3686 0.76286 0.0
H1043 H 0.55294 0.37707 0.85545 0.0
H1044 H 0.56503 0.35065 0.83034 0.0
H1045 H 0.4514 0.35445 0.82001 0.0
H1046 H 0.46432 0.3795 0.85367 0.0
H1047 H 0.46621 0.37293 0.75967 0.0
H1048 H 0.50903 0.44006 0.87564 0.0
H1049 H 0.51267 0.42325 0.6506 0.0
H1050 H 0.52256 0.3874 0.94545 0.0
H1051 H 0.49277 0.38896 0.94284 0.0
H1052 H 0.50875 0.41322 0.9677 0.0
H1053 H 0.52152 0.36396 0.677 0.0
H1054 H 0.51596 0.3859 0.61197 0.0
H1055 H 0.49338 0.37194 0.65745 0.0
C1056 C 0.18295 0.48133 0.87294 0.0
C1057 C 0.19557 0.50092 0.88207 0.0
C1058 C 0.16073 0.48205 0.84765 0.0
C1059 C 0.15053 0.50286 0.83204 0.0
C1060 C 0.16327 0.52264 0.83928 0.0
C1061 C 0.18555 0.52144 0.86369 0.0
C1062 C 0.14802 0.46051 0.83866 0.0
C1063 C 0.15319 0.54516 0.82231 0.0
C1064 C 0.09751 0.50524 0.71578 0.0
C1065 C 0.08071 0.50625 0.76827 0.0
C1066 C 0.1202 0.50388 0.73559 0.0
C1067 C 0.12641 0.50404 0.80972 0.0
C1068 C 0.10947 0.50542 0.86288 0.0
C1069 C 0.08688 0.50622 0.84159 0.0
C1070 C 0.1373 0.50137 0.67668 0.0
C1071 C 0.1152 0.50607 0.94242 0.0
H1072 H 0.19018 0.46537 0.88764 0.0
H1073 H 0.19509 0.53669 0.86883 0.0
H1074 H 0.13346 0.46025 0.87559 0.0
H1075 H 0.14146 0.4593 0.78259 0.0
H1076 H 0.15854 0.44563 0.85013 0.0
H1077 H 0.16558 0.55887 0.82659 0.0
H1078 H 0.14606 0.54523 0.76685 0.0
H1079 H 0.1393 0.54856 0.86026 0.0
H1080 H 0.09289 0.50492 0.65902 0.0
H1081 H 0.07401 0.5071 0.88254 0.0
H1082 H 0.14059 0.48335 0.66824 0.0
H1083 H 0.15334 0.5094 0.69113 0.0
H1084 H 0.13115 0.50854 0.6248 0.0
H1085 H 0.12427 0.49065 0.95822 0.0
H1086 H 0.10015 0.50766 0.97696 0.0
H1087 H 0.12645 0.52036 0.95352 0.0
C1088 C 0.02327 0.83108 0.5582 0.0
C1089 C 1.00265 0.82115 0.54116 0.0
C1090 C 0.02463 0.85337 0.58169 0.0
C1091 C 1.0049 0.86617 0.58955 0.0
C1092 C 0.98398 0.856 0.57598 0.0
C1093 C 0.98311 0.83378 0.55142 0.0
C1094 C 0.04726 0.86341 0.59677 0.0
C1095 C 0.96249 0.86878 0.58576 0.0
C1096 C 1.00815 0.92037 0.69809 0.0
C1097 C 1.00873 0.93656 0.64308 0.0
C1098 C 1.00667 0.89747 0.68172 0.0
C1099 C 1.00625 0.89046 0.60852 0.0
C1100 C 1.00717 0.90678 0.55285 0.0
C1101 C 1.00813 0.92956 0.57075 0.0
C1102 C 1.00475 0.88096 0.74307 0.0
C1103 C 1.00724 0.90017 0.47414 0.0
H1104 H 0.0385 0.8215 0.55238 0.0
H1105 H 0.96705 0.82662 0.53788 0.0
H1106 H 0.0501 0.87784 0.56013 0.0
H1107 H 0.04792 0.86974 0.65305 0.0
H1108 H 0.06103 0.85121 0.58933 0.0
H1109 H 0.94754 0.85811 0.57783 0.0
H1110 H 0.96188 0.87605 0.64081 0.0
H1111 H 0.96173 0.88282 0.54654 0.0
H1112 H 1.00829 0.92561 0.75415 0.0
H1113 H 1.00872 0.94193 0.52785 0.0
H1114 H 0.01384 0.8653 0.73124 0.0
H1115 H 0.9869 0.87663 0.75064 0.0
H1116 H 0.01114 0.88799 0.79461 0.0
H1117 H 0.02145 0.88877 0.4635 0.0
H1118 H 1.00855 0.91481 0.43734 0.0
H1119 H 0.9917 0.89097 0.46089 0.0
C1120 C 0.68847 0.98052 0.55439 0.0
C1121 C 0.69608 0.99995 0.51979 0.0
C1122 C 0.66654 0.97912 0.58157 0.0
C1123 C 0.65175 0.99746 0.57309 0.0
C1124 C 0.65932 0.01702 0.53771 0.0
C1125 C 0.6813 0.01803 0.51176 0.0
C1126 C 0.65917 0.95803 0.61942 0.0
C1127 C 0.64409 0.03685 0.52639 0.0
C1128 C 0.58874 0.98873 0.57662 0.0
C1129 C 0.58296 0.99708 0.64495 0.0
C1130 C 0.61106 0.98829 0.5533 0.0
C1131 C 0.62819 0.99619 0.59953 0.0
C1132 C 0.62256 1.00413 0.66926 0.0
C1133 C 0.60006 1.00459 0.69094 0.0
C1134 C 0.61622 0.97998 0.4782 0.0
C1135 C 0.64028 0.01258 0.72049 0.0
H1136 H 0.69976 0.96651 0.56099 0.0
H1137 H 0.68683 0.03295 0.48376 0.0
H1138 H 0.6533 0.96198 0.67477 0.0
H1139 H 0.64491 0.95052 0.58993 0.0
H1140 H 0.67279 0.94549 0.62335 0.0
H1141 H 0.65257 0.05087 0.49826 0.0
H1142 H 0.62933 0.03184 0.49393 0.0
H1143 H 0.63787 0.0429 0.57923 0.0
H1144 H 0.57575 0.98295 0.54034 0.0
H1145 H 0.59588 0.011 0.74393 0.0
H1146 H 0.62887 0.96647 0.48084 0.0
H1147 H 0.62342 0.99372 0.44535 0.0
H1148 H 0.60116 0.97355 0.44995 0.0
H1149 H 0.65352 0.99979 0.7278 0.0
H1150 H 0.63339 0.01689 0.77437 0.0
H1151 H 0.64831 0.02765 0.69729 0.0
C1152 C 0.53188 0.68427 0.59981 0.0
C1153 C 0.51567 0.6935 0.55339 0.0
C1154 C 0.53009 0.66221 0.62573 0.0
C1155 C 0.51173 0.64883 0.60439 0.0
C1156 C 0.49487 0.65831 0.55991 0.0
C1157 C 0.49701 0.68047 0.53512 0.0
C1158 C 0.54821 0.65298 0.6743 0.0
C1159 C 0.47499 0.64473 0.53593 0.0
C1160 C 0.52067 0.58589 0.5956 0.0
C1161 C 0.51008 0.5782 0.65874 0.0
C1162 C 0.52127 0.6087 0.57759 0.0
C1163 C 0.5111 0.62449 0.62377 0.0
C1164 C 0.50046 0.61692 0.68774 0.0
C1165 C 0.49997 0.59392 0.70429 0.0
C1166 C 0.53282 0.61589 0.50884 0.0
C1167 C 0.48928 0.63304 0.73833 0.0
H1168 H 0.54621 0.69424 0.61506 0.0
H1169 H 0.4845 0.68726 0.49867 0.0
H1170 H 0.54078 0.64595 0.72437 0.0
H1171 H 0.557 0.63918 0.64647 0.0
H1172 H 0.56066 0.66586 0.68956 0.0
H1173 H 0.46261 0.65489 0.50534 0.0
H1174 H 0.48066 0.63085 0.50097 0.0
H1175 H 0.46662 0.63718 0.58351 0.0
H1176 H 0.52855 0.57405 0.55962 0.0
H1177 H 0.4917 0.58829 0.75312 0.0
H1178 H 0.54656 0.62763 0.52173 0.0
H1179 H 0.52088 0.62488 0.4731 0.0
H1180 H 0.53985 0.60157 0.47853 0.0
H1181 H 0.49986 0.64796 0.74729 0.0
H1182 H 0.48552 0.62521 0.79145 0.0
H1183 H 0.47338 0.63884 0.71371 0.0
C1184 C 0.83293 0.49671 0.56952 0.0
C1185 C 0.82248 0.5168 0.54859 0.0
C1186 C 0.85527 0.4962 0.5934 0.0
C1187 C 0.86753 0.51632 0.59874 0.0
C1188 C 0.85678 0.53678 0.582 0.0
C1189 C 0.83459 0.53676 0.55634 0.0
C1190 C 0.86608 0.47394 0.60942 0.0
C1191 C 0.86895 0.5587 0.58922 0.0
C1192 C 0.92185 0.51421 0.70832 0.0
C1193 C 0.93796 0.51365 0.65365 0.0
C1194 C 0.89895 0.51586 0.69131 0.0
C1195 C 0.89189 0.51581 0.61799 0.0
C1196 C 0.90818 0.51485 0.56267 0.0
C1197 C 0.93097 0.51422 0.58115 0.0
C1198 C 0.88233 0.51755 0.7519 0.0
C1199 C 0.90154 0.51416 0.48385 0.0
H1200 H 0.82381 0.48117 0.56587 0.0
H1201 H 0.82708 0.55243 0.53986 0.0
H1202 H 0.87869 0.47031 0.56725 0.0
H1203 H 0.87495 0.47432 0.66211 0.0
H1204 H 0.85376 0.4601 0.61041 0.0
H1205 H 0.85765 0.57324 0.58172 0.0
H1206 H 0.87697 0.55986 0.64328 0.0
H1207 H 0.88239 0.55973 0.54825 0.0
H1208 H 0.9272 0.51388 0.76442 0.0
H1209 H 0.94338 0.5136 0.53865 0.0
H1210 H 0.87287 0.50174 0.75577 0.0
H1211 H 0.87013 0.53111 0.74101 0.0
H1212 H 0.8906 0.52075 0.80471 0.0
H1213 H 0.89038 0.49971 0.47404 0.0
H1214 H 0.9162 0.51282 0.44749 0.0
H1215 H 0.89207 0.52945 0.46919 0.0
loop_
_geom_bond_atom_site_label_1
_geom_bond_atom_site_label_2
_geom_bond_distance
_geom_bond_site_symmetry_2
_ccdc_geom_bond_type
C0 C1 1.384 . S
C0 H13 0.947 . S
C0 C35 1.382 . S
C1 C0 1.384 . S
C1 C2 1.378 . S
C2 C1 1.378 . S
C2 C3 1.378 . S
C2 H14 0.952 . S
C3 C2 1.378 . S
C3 H15 0.950 . S
C3 C34 1.383 . S
H4 C23 0.947 . S
H5 C24 0.946 . S
H6 C26 0.953 . S
H7 C27 0.945 . S
H8 C29 0.952 . S
H9 C30 0.949 . S
H10 C32 0.950 . S
H11 C33 0.948 . S
H12 C35 0.951 . S
H13 C0 0.947 . S
H14 C2 0.952 . S
H15 C3 0.950 . S
N16 C19 1.382 . S
N16 C21 1.363 . S
N17 C19 1.371 . S
N17 C20 1.372 . S
N18 C20 1.361 . S
N18 C21 1.377 . S
C19 N16 1.382 . S
C19 N17 1.371 . S
C19 C22 1.480 . S
C20 N17 1.372 . S
C20 N18 1.361 . S
C20 C28 1.457 . S
C21 N16 1.363 . S
C21 N18 1.377 . S
C21 C34 1.479 . S
C22 C19 1.480 . S
C22 C23 1.383 . S
C22 C27 1.385 . S
C23 H4 0.947 . S
C23 C22 1.383 . S
C23 C24 1.388 . S
C24 H5 0.946 . S
C24 C23 1.388 . S
C24 C25 1.384 . S
C25 C24 1.384 . S
C25 C26 1.377 . S
C26 H6 0.953 . S
C26 C25 1.377 . S
C26 C27 1.369 . S
C27 H7 0.945 . S
C27 C22 1.385 . S
C27 C26 1.369 . S
C28 C20 1.457 . S
C28 C29 1.372 . S
C28 C33 1.364 . S
C29 H8 0.952 . S
C29 C28 1.372 . S
C29 C30 1.389 . S
C30 H9 0.949 . S
C30 C29 1.389 . S
C30 C31 1.387 . S
C31 C30 1.387 . S
C31 C32 1.372 . S
C32 H10 0.950 . S
C32 C31 1.372 . S
C32 C33 1.379 . S
C33 H11 0.948 . S
C33 C28 1.364 . S
C33 C32 1.379 . S
C34 C3 1.383 . S
C34 C21 1.479 . S
C34 C35 1.398 . S
C35 C0 1.382 . S
C35 H12 0.951 . S
C35 C34 1.398 . S
C36 C37 1.384 1_655 S
C36 H49 0.948 . S
C36 C71 1.382 1_655 S
C37 C36 1.384 1_455 S
C37 C38 1.378 . S
C38 C37 1.378 . S
C38 C39 1.378 . S
C38 H50 0.952 . S
C39 C38 1.378 . S
C39 H51 0.950 . S
C39 C70 1.383 . S
H40 C59 0.947 . S
H41 C60 0.952 . S
H42 C62 0.953 . S
H43 C63 0.945 . S
H44 C65 0.949 1_655 S
H45 C66 0.956 . S
H46 C68 0.950 . S
H47 C69 0.948 . S
H48 C71 0.951 1_655 S
H49 C36 0.948 . S
H50 C38 0.952 . S
H51 C39 0.950 . S
N52 C55 1.382 . S
N52 C57 1.363 . S
N53 C55 1.371 . S
N53 C56 1.372 . S
N54 C56 1.361 . S
N54 C57 1.377 . S
C55 N52 1.382 . S
C55 N53 1.371 . S
C55 C58 1.480 . S
C56 N53 1.372 . S
C56 N54 1.361 . S
C56 C64 1.457 . S
C57 N52 1.363 . S
C57 N54 1.377 . S
C57 C70 1.479 . S
C58 C55 1.480 . S
C58 C59 1.383 . S
C58 C63 1.385 . S
C59 H40 0.947 . S
C59 C58 1.383 . S
C59 C60 1.386 1_455 S
C60 H41 0.952 . S
C60 C59 1.386 1_655 S
C60 C61 1.381 1_655 S
C61 C60 1.381 1_455 S
C61 C62 1.377 . S
C62 H42 0.953 . S
C62 C61 1.377 . S
C62 C63 1.369 . S
C63 H43 0.945 . S
C63 C58 1.385 . S
C63 C62 1.369 . S
C64 C56 1.457 . S
C64 C65 1.376 . S
C64 C69 1.364 . S
C65 H44 0.949 1_455 S
C65 C64 1.376 . S
C65 C66 1.387 1_455 S
C66 H45 0.956 . S
C66 C65 1.387 1_655 S
C66 C67 1.383 1_655 S
C67 C66 1.383 1_455 S
C67 C68 1.372 . S
C68 H46 0.950 . S
C68 C67 1.372 . S
C68 C69 1.379 . S
C69 H47 0.948 . S
C69 C64 1.364 . S
C69 C68 1.379 . S
C70 C39 1.383 . S
C70 C57 1.479 . S
C70 C71 1.398 . S
C71 C36 1.382 1_455 S
C71 H48 0.951 1_455 S
C71 C70 1.398 . S
C72 C73 1.384 1_565 S
C72 H85 0.948 . S
C72 C107 1.382 1_565 S
C73 C72 1.384 1_545 S
C73 C74 1.378 . S
C74 C73 1.378 . S
C74 C75 1.378 . S
C74 H86 0.952 . S
C75 C74 1.378 . S
C75 H87 0.950 . S
C75 C106 1.383 . S
H76 C95 0.947 . S
H77 C96 0.952 . S
H78 C98 0.953 . S
H79 C99 0.945 . S
H80 C101 0.949 1_565 S
H81 C102 0.957 . S
H82 C104 0.950 . S
H83 C105 0.948 . S
H84 C107 0.951 1_565 S
H85 C72 0.948 . S
H86 C74 0.952 . S
H87 C75 0.950 . S
N88 C91 1.382 . S
N88 C93 1.363 . S
N89 C91 1.371 . S
N89 C92 1.372 . S
N90 C92 1.361 . S
N90 C93 1.377 . S
C91 N88 1.382 . S
C91 N89 1.371 . S
C91 C94 1.480 . S
C92 N89 1.372 . S
C92 N90 1.361 . S
C92 C100 1.457 . S
C93 N88 1.363 . S
C93 N90 1.377 . S
C93 C106 1.479 . S
C94 C91 1.480 . S
C94 C95 1.383 . S
C94 C99 1.385 . S
C95 H76 0.947 . S
C95 C94 1.383 . S
C95 C96 1.386 1_545 S
C96 H77 0.952 . S
C96 C95 1.386 1_565 S
C96 C97 1.382 1_565 S
C97 C96 1.382 1_545 S
C97 C98 1.377 . S
C98 H78 0.953 . S
C98 C97 1.377 . S
C98 C99 1.369 . S
C99 H79 0.945 . S
C99 C94 1.385 . S
C99 C98 1.369 . S
C100 C92 1.457 . S
C100 C101 1.376 . S
C100 C105 1.364 . S
C101 H80 0.949 1_545 S
C101 C100 1.376 . S
C101 C102 1.386 1_545 S
C102 H81 0.957 . S
C102 C101 1.386 1_565 S
C102 C103 1.383 1_565 S
C103 C102 1.383 1_545 S
C103 C104 1.372 . S
C104 H82 0.950 . S
C104 C103 1.372 . S
C104 C105 1.379 . S
C105 H83 0.948 . S
C105 C100 1.364 . S
C105 C104 1.379 . S
C106 C75 1.383 . S
C106 C93 1.479 . S
C106 C107 1.398 . S
C107 C72 1.382 1_545 S
C107 H84 0.951 1_545 S
C107 C106 1.398 . S
C108 C109 1.384 . S
C108 H121 0.947 . S
C108 C143 1.382 . S
C109 C108 1.384 . S
C109 C110 1.378 . S
C110 C109 1.378 . S
C110 C111 1.378 . S
C110 H122 0.952 . S
C111 C110 1.378 . S
C111 H123 0.950 . S
C111 C142 1.383 . S
H112 C131 0.947 . S
H113 C132 0.946 . S
H114 C134 0.953 . S
H115 C135 0.945 . S
H116 C137 0.952 . S
H117 C138 0.949 . S
H118 C140 0.950 . S
H119 C141 0.948 . S
H120 C143 0.951 . S
H121 C108 0.947 . S
H122 C110 0.952 . S
H123 C111 0.950 . S
N124 C127 1.382 . S
N124 C129 1.363 . S
N125 C127 1.371 . S
N125 C128 1.372 . S
N126 C128 1.361 . S
N126 C129 1.377 . S
C127 N124 1.382 . S
C127 N125 1.371 . S
C127 C130 1.480 . S
C128 N125 1.372 . S
C128 N126 1.361 . S
C128 C136 1.457 . S
C129 N124 1.363 . S
C129 N126 1.377 . S
C129 C142 1.479 . S
C130 C127 1.480 . S
C130 C131 1.383 . S
C130 C135 1.385 . S
C131 H112 0.947 . S
C131 C130 1.383 . S
C131 C132 1.388 . S
C132 H113 0.946 . S
C132 C131 1.388 . S
C132 C133 1.384 . S
C133 C132 1.384 . S
C133 C134 1.377 . S
C134 H114 0.953 . S
C134 C133 1.377 . S
C134 C135 1.369 . S
C135 H115 0.945 . S
C135 C130 1.385 . S
C135 C134 1.369 . S
C136 C128 1.457 . S
C136 C137 1.372 . S
C136 C141 1.364 . S
C137 H116 0.952 . S
C137 C136 1.372 . S
C137 C138 1.389 . S
C138 H117 0.949 . S
C138 C137 1.389 . S
C138 C139 1.387 . S
C139 C138 1.387 . S
C139 C140 1.372 . S
C140 H118 0.950 . S
C140 C139 1.372 . S
C140 C141 1.379 . S
C141 H119 0.948 . S
C141 C136 1.364 . S
C141 C140 1.379 . S
C142 C111 1.383 . S
C142 C129 1.479 . S
C142 C143 1.398 . S
C143 C108 1.382 . S
C143 H120 0.951 . S
C143 C142 1.398 . S
C144 C145 1.384 . S
C144 H157 0.947 . S
C144 C179 1.382 . S
C145 C144 1.384 . S
C145 C146 1.378 . S
C146 C145 1.378 . S
C146 C147 1.378 . S
C146 H158 0.952 . S
C147 C146 1.378 . S
C147 H159 0.950 . S
C147 C178 1.383 . S
H148 C167 0.947 1_556 S
H149 C168 0.946 . S
H150 C170 0.953 . S
H151 C171 0.945 . S
H152 C173 0.952 . S
H153 C174 0.949 . S
H154 C176 0.950 . S
H155 C177 0.948 . S
H156 C179 0.951 . S
H157 C144 0.947 . S
H158 C146 0.952 . S
H159 C147 0.950 . S
N160 C163 1.382 1_556 S
N160 C165 1.363 . S
N161 C163 1.371 . S
N161 C164 1.372 . S
N162 C164 1.361 . S
N162 C165 1.377 1_554 S
C163 N160 1.382 1_554 S
C163 N161 1.371 . S
C163 C166 1.480 . S
C164 N161 1.372 . S
C164 N162 1.361 . S
C164 C172 1.457 . S
C165 N160 1.363 . S
C165 N162 1.377 1_556 S
C165 C178 1.479 . S
C166 C163 1.480 . S
C166 C167 1.383 . S
C166 C171 1.385 . S
C167 H148 0.947 1_554 S
C167 C166 1.383 . S
C167 C168 1.388 . S
C168 H149 0.946 . S
C168 C167 1.388 . S
C168 C169 1.384 . S
C169 C168 1.384 . S
C169 C170 1.377 . S
C170 H150 0.953 . S
C170 C169 1.377 . S
C170 C171 1.369 . S
C171 H151 0.945 . S
C171 C166 1.385 . S
C171 C170 1.369 . S
C172 C164 1.457 . S
C172 C173 1.372 . S
C172 C177 1.364 . S
C173 H152 0.952 . S
C173 C172 1.372 . S
C173 C174 1.389 . S
C174 H153 0.949 . S
C174 C173 1.389 . S
C174 C175 1.387 . S
C175 C174 1.387 . S
C175 C176 1.372 . S
C176 H154 0.950 . S
C176 C175 1.372 . S
C176 C177 1.379 . S
C177 H155 0.948 . S
C177 C172 1.364 . S
C177 C176 1.379 . S
C178 C147 1.383 . S
C178 C165 1.479 . S
C178 C179 1.398 . S
C179 C144 1.382 . S
C179 H156 0.951 . S
C179 C178 1.398 . S
C180 C181 1.384 . S
C180 H193 0.948 1_455 S
C180 C215 1.382 . S
C181 C180 1.384 . S
C181 C182 1.378 . S
C182 C181 1.378 . S
C182 C183 1.378 . S
C182 H194 0.952 . S
C183 C182 1.378 . S
C183 H195 0.950 . S
C183 C214 1.383 . S
H184 C203 0.947 1_556 S
H185 C204 0.949 . S
H186 C206 0.953 . S
H187 C207 0.945 . S
H188 C209 0.947 1_655 S
H189 C210 0.954 . S
H190 C212 0.950 . S
H191 C213 0.948 . S
H192 C215 0.950 1_655 S
H193 C180 0.948 1_655 S
H194 C182 0.952 . S
H195 C183 0.950 . S
N196 C199 1.382 1_556 S
N196 C201 1.363 . S
N197 C199 1.371 . S
N197 C200 1.372 . S
N198 C200 1.361 . S
N198 C201 1.377 1_554 S
C199 N196 1.382 1_554 S
C199 N197 1.371 . S
C199 C202 1.480 . S
C200 N197 1.372 . S
C200 N198 1.361 . S
C200 C208 1.457 . S
C201 N196 1.363 . S
C201 N198 1.377 1_556 S
C201 C214 1.479 . S
C202 C199 1.480 . S
C202 C203 1.383 . S
C202 C207 1.385 . S
C203 H184 0.947 1_554 S
C203 C202 1.383 . S
C203 C204 1.387 1_455 S
C204 H185 0.949 . S
C204 C203 1.387 1_655 S
C204 C205 1.382 1_655 S
C205 C204 1.382 1_455 S
C205 C206 1.377 . S
C206 H186 0.953 . S
C206 C205 1.377 . S
C206 C207 1.369 . S
C207 H187 0.945 . S
C207 C202 1.385 . S
C207 C206 1.369 . S
C208 C200 1.457 . S
C208 C209 1.379 . S
C208 C213 1.364 . S
C209 H188 0.947 1_455 S
C209 C208 1.379 . S
C209 C210 1.387 1_455 S
C210 H189 0.954 . S
C210 C209 1.387 1_655 S
C210 C211 1.384 1_655 S
C211 C210 1.384 1_455 S
C211 C212 1.372 . S
C212 H190 0.950 . S
C212 C211 1.372 . S
C212 C213 1.379 . S
C213 H191 0.948 . S
C213 C208 1.364 . S
C213 C212 1.379 . S
C214 C183 1.383 . S
C214 C201 1.479 . S
C214 C215 1.399 . S
C215 C180 1.382 . S
C215 H192 0.950 1_455 S
C215 C214 1.399 . S
C216 C217 1.384 . S
C216 H229 0.948 1_545 S
C216 C251 1.382 . S
C217 C216 1.384 . S
C217 C218 1.378 . S
C218 C217 1.378 . S
C218 C219 1.378 . S
C218 H230 0.952 . S
C219 C218 1.378 . S
C219 H231 0.950 . S
C219 C250 1.383 . S
H220 C239 0.947 1_556 S
H221 C240 0.949 . S
H222 C242 0.953 . S
H223 C243 0.945 . S
H224 C245 0.947 1_565 S
H225 C246 0.954 . S
H226 C248 0.950 . S
H227 C249 0.948 . S
H228 C251 0.950 1_565 S
H229 C216 0.948 1_565 S
H230 C218 0.952 . S
H231 C219 0.950 . S
N232 C235 1.382 1_556 S
N232 C237 1.363 . S
N233 C235 1.371 . S
N233 C236 1.372 . S
N234 C236 1.361 . S
N234 C237 1.377 1_554 S
C235 N232 1.382 1_554 S
C235 N233 1.371 . S
C235 C238 1.480 . S
C236 N233 1.372 . S
C236 N234 1.361 . S
C236 C244 1.457 . S
C237 N232 1.363 . S
C237 N234 1.377 1_556 S
C237 C250 1.479 . S
C238 C235 1.480 . S
C238 C239 1.383 . S
C238 C243 1.385 . S
C239 H220 0.947 1_554 S
C239 C238 1.383 . S
C239 C240 1.387 1_545 S
C240 H221 0.949 . S
C240 C239 1.387 1_565 S
C240 C241 1.382 1_565 S
C241 C240 1.382 1_545 S
C241 C242 1.377 . S
C242 H222 0.953 . S
C242 C241 1.377 . S
C242 C243 1.369 . S
C243 H223 0.945 . S
C243 C238 1.385 . S
C243 C242 1.369 . S
C244 C236 1.457 . S
C244 C245 1.379 . S
C244 C249 1.364 . S
C245 H224 0.947 1_545 S
C245 C244 1.379 . S
C245 C246 1.387 1_545 S
C246 H225 0.954 . S
C246 C245 1.387 1_565 S
C246 C247 1.384 1_565 S
C247 C246 1.384 1_545 S
C247 C248 1.372 . S
C248 H226 0.950 . S
C248 C247 1.372 . S
C248 C249 1.379 . S
C249 H227 0.948 . S
C249 C244 1.364 . S
C249 C248 1.379 . S
C250 C219 1.383 . S
C250 C237 1.479 . S
C250 C251 1.399 . S
C251 C216 1.382 . S
C251 H228 0.950 1_545 S
C251 C250 1.399 . S
C252 C253 1.384 . S
C252 H265 0.947 . S
C252 C287 1.382 . S
C253 C252 1.384 . S
C253 C254 1.378 . S
C254 C253 1.378 . S
C254 C255 1.378 . S
C254 H266 0.952 . S
C255 C254 1.378 . S
C255 H267 0.950 . S
C255 C286 1.383 . S
H256 C275 0.947 . S
H257 C276 0.946 . S
H258 C278 0.953 1_556 S
H259 C279 0.945 1_556 S
H260 C281 0.952 . S
H261 C282 0.949 . S
H262 C284 0.950 . S
H263 C285 0.948 . S
H264 C287 0.951 . S
H265 C252 0.947 . S
H266 C254 0.952 . S
H267 C255 0.950 . S
N268 C271 1.382 . S
N268 C273 1.363 . S
N269 C271 1.371 1_556 S
N269 C272 1.372 . S
N270 C272 1.361 1_554 S
N270 C273 1.377 . S
C271 N268 1.382 . S
C271 N269 1.371 1_554 S
C271 C274 1.480 . S
C272 N269 1.372 . S
C272 N270 1.361 1_556 S
C272 C280 1.457 . S
C273 N268 1.363 . S
C273 N270 1.377 . S
C273 C286 1.479 . S
C274 C271 1.480 . S
C274 C275 1.383 . S
C274 C279 1.385 . S
C275 H256 0.947 . S
C275 C274 1.383 . S
C275 C276 1.388 . S
C276 H257 0.946 . S
C276 C275 1.388 . S
C276 C277 1.384 . S
C277 C276 1.384 . S
C277 C278 1.377 . S
C278 H258 0.953 1_554 S
C278 C277 1.377 . S
C278 C279 1.369 . S
C279 H259 0.945 1_554 S
C279 C274 1.385 . S
C279 C278 1.369 . S
C280 C272 1.457 . S
C280 C281 1.372 . S
C280 C285 1.364 . S
C281 H260 0.952 . S
C281 C280 1.372 . S
C281 C282 1.389 . S
C282 H261 0.949 . S
C282 C281 1.389 . S
C282 C283 1.387 . S
C283 C282 1.387 . S
C283 C284 1.372 . S
C284 H262 0.950 . S
C284 C283 1.372 . S
C284 C285 1.379 . S
C285 H263 0.948 . S
C285 C280 1.364 . S
C285 C284 1.379 . S
C286 C255 1.383 . S
C286 C273 1.479 . S
C286 C287 1.398 . S
C287 C252 1.382 . S
C287 H264 0.951 . S
C287 C286 1.398 . S
Pr288 C290 2.880 . S
Pr288 O308 2.562 . S
Pr288 O309 2.490 . S
Pr288 O310 2.695 1_565 S
Pr288 O311 2.512 . S
Pr288 O313 2.437 . S
Pr288 O316 2.436 1_455 S
Pr288 O318 2.438 1_565 S
Pr289 C299 2.880 . S
Pr289 O310 2.436 1_655 S
Pr289 O312 2.438 1_545 S
Pr289 O314 2.562 . S
Pr289 O315 2.490 . S
Pr289 O316 2.695 1_545 S
Pr289 O317 2.512 . S
Pr289 O319 2.437 . S
C290 Pr288 2.880 . S
C290 C291 1.491 . S
C290 O308 1.254 . S
C290 O309 1.225 . S
C291 C290 1.491 . S
C291 C292 1.392 . S
C291 C296 1.356 . S
C292 C291 1.392 . S
C292 C293 1.368 . S
C292 H320 0.929 . S
C293 C292 1.368 . S
C293 C294 1.386 . S
C293 H321 0.929 . S
C294 C293 1.386 . S
C294 C295 1.373 . S
C295 C294 1.373 . S
C295 C296 1.409 . S
C295 H322 0.918 1_455 S
C296 C291 1.356 . S
C296 C295 1.409 . S
C296 H323 0.930 1_455 S
C297 O310 1.270 1_565 S
C297 O311 1.248 . S
C298 O312 1.267 . S
C298 O313 1.278 1_655 S
C299 Pr289 2.880 . S
C299 C300 1.491 . S
C299 O314 1.254 . S
C299 O315 1.225 . S
C300 C299 1.491 . S
C300 C301 1.392 . S
C300 C305 1.356 . S
C301 C300 1.392 . S
C301 C302 1.368 . S
C301 H324 0.929 . S
C302 C301 1.368 . S
C302 C303 1.386 . S
C302 H325 0.929 . S
C303 C302 1.386 . S
C303 C304 1.373 . S
C304 C303 1.373 . S
C304 C305 1.409 . S
C304 H326 0.908 1_655 S
C305 C300 1.356 . S
C305 C304 1.409 . S
C305 H327 0.930 1_655 S
C306 O316 1.270 1_545 S
C306 O317 1.248 . S
C307 O318 1.267 . S
C307 O319 1.278 1_455 S
O308 Pr288 2.562 . S
O308 C290 1.254 . S
O309 Pr288 2.490 . S
O309 C290 1.225 . S
O310 Pr288 2.695 1_545 S
O310 Pr289 2.436 1_455 S
O310 C297 1.270 1_545 S
O311 Pr288 2.512 . S
O311 C297 1.248 . S
O312 Pr289 2.438 1_565 S
O312 C298 1.267 . S
O313 Pr288 2.437 . S
O313 C298 1.278 1_455 S
O314 Pr289 2.562 . S
O314 C299 1.254 . S
O315 Pr289 2.490 . S
O315 C299 1.225 . S
O316 Pr288 2.436 1_655 S
O316 Pr289 2.695 1_565 S
O316 C306 1.270 1_565 S
O317 Pr289 2.512 . S
O317 C306 1.248 . S
O318 Pr288 2.438 1_545 S
O318 C307 1.267 . S
O319 Pr289 2.437 . S
O319 C307 1.278 1_655 S
H320 C292 0.929 . S
H321 C293 0.929 . S
H322 C295 0.918 1_655 S
H323 C296 0.930 1_655 S
H324 C301 0.929 . S
H325 C302 0.929 . S
H326 C304 0.908 1_455 S
H327 C305 0.930 1_455 S
Pr328 C330 2.880 . S
Pr328 O348 2.562 . S
Pr328 O349 2.490 . S
Pr328 O350 2.695 . S
Pr328 O351 2.512 . S
Pr328 O353 2.437 . S
Pr328 O356 2.436 1_545 S
Pr328 O358 2.438 . S
Pr329 C339 2.880 . S
Pr329 O350 2.436 1_565 S
Pr329 O352 2.438 . S
Pr329 O354 2.562 . S
Pr329 O355 2.490 . S
Pr329 O356 2.695 . S
Pr329 O357 2.512 . S
Pr329 O359 2.437 . S
C330 Pr328 2.880 . S
C330 C331 1.491 . S
C330 O348 1.254 . S
C330 O349 1.225 . S
C331 C330 1.491 . S
C331 C332 1.392 . S
C331 C336 1.356 . S
C332 C331 1.392 . S
C332 C333 1.368 . S
C332 H360 0.929 . S
C333 C332 1.368 . S
C333 C334 1.386 . S
C333 H361 0.929 . S
C334 C333 1.386 . S
C334 C335 1.373 . S
C335 C334 1.373 . S
C335 C336 1.409 . S
C335 H362 0.893 1_545 S
C336 C331 1.356 . S
C336 C335 1.409 . S
C336 H363 0.930 1_545 S
C337 O350 1.270 . S
C337 O351 1.248 . S
C338 O352 1.267 . S
C338 O353 1.278 1_565 S
C339 Pr329 2.880 . S
C339 C340 1.491 . S
C339 O354 1.254 . S
C339 O355 1.225 . S
C340 C339 1.491 . S
C340 C341 1.392 . S
C340 C345 1.356 . S
C341 C340 1.392 . S
C341 C342 1.368 . S
C341 H364 0.929 . S
C342 C341 1.368 . S
C342 C343 1.386 . S
C342 H365 0.929 . S
C343 C342 1.386 . S
C343 C344 1.373 . S
C344 C343 1.373 . S
C344 C345 1.409 . S
C344 H366 0.931 1_565 S
C345 C340 1.356 . S
C345 C344 1.409 . S
C345 H367 0.930 1_565 S
C346 O356 1.270 . S
C346 O357 1.248 . S
C347 O358 1.267 . S
C347 O359 1.278 1_545 S
O348 Pr328 2.562 . S
O348 C330 1.254 . S
O349 Pr328 2.490 . S
O349 C330 1.225 . S
O350 Pr328 2.695 . S
O350 Pr329 2.436 1_545 S
O350 C337 1.270 . S
O351 Pr328 2.512 . S
O351 C337 1.248 . S
O352 Pr329 2.438 . S
O352 C338 1.267 . S
O353 Pr328 2.437 . S
O353 C338 1.278 1_545 S
O354 Pr329 2.562 . S
O354 C339 1.254 . S
O355 Pr329 2.490 . S
O355 C339 1.225 . S
O356 Pr328 2.436 1_565 S
O356 Pr329 2.695 . S
O356 C346 1.270 . S
O357 Pr329 2.512 . S
O357 C346 1.248 . S
O358 Pr328 2.438 . S
O358 C347 1.267 . S
O359 Pr329 2.437 . S
O359 C347 1.278 1_565 S
H360 C332 0.929 . S
H361 C333 0.929 . S
H362 C335 0.893 1_565 S
H363 C336 0.930 1_565 S
H364 C341 0.929 . S
H365 C342 0.929 . S
H366 C344 0.931 1_545 S
H367 C345 0.930 1_545 S
Pr368 C370 2.880 . S
Pr368 O388 2.562 . S
Pr368 O389 2.490 . S
Pr368 O390 2.695 . S
Pr368 O391 2.512 . S
Pr368 O393 2.437 . S
Pr368 O396 2.436 . S
Pr368 O398 2.438 . S
Pr369 C379 2.880 . S
Pr369 O390 2.436 . S
Pr369 O392 2.438 . S
Pr369 O394 2.562 . S
Pr369 O395 2.490 . S
Pr369 O396 2.695 . S
Pr369 O397 2.512 . S
Pr369 O399 2.437 . S
C370 Pr368 2.880 . S
C370 C371 1.491 . S
C370 O388 1.254 . S
C370 O389 1.225 . S
C371 C370 1.491 . S
C371 C372 1.392 . S
C371 C376 1.356 . S
C372 C371 1.392 . S
C372 C373 1.368 . S
C372 H400 0.929 . S
C373 C372 1.368 . S
C373 C374 1.386 . S
C373 H401 0.929 . S
C374 C373 1.386 . S
C374 C375 1.373 . S
C375 C374 1.373 . S
C375 C376 1.409 . S
C375 H402 0.931 . S
C376 C371 1.356 . S
C376 C375 1.409 . S
C376 H403 0.930 . S
C377 O390 1.270 . S
C377 O391 1.248 . S
C378 O392 1.267 . S
C378 O393 1.278 . S
C379 Pr369 2.880 . S
C379 C380 1.491 . S
C379 O394 1.254 . S
C379 O395 1.225 . S
C380 C379 1.491 . S
C380 C381 1.392 . S
C380 C385 1.356 . S
C381 C380 1.392 . S
C381 C382 1.368 . S
C381 H404 0.929 . S
C382 C381 1.368 . S
C382 C383 1.386 . S
C382 H405 0.929 . S
C383 C382 1.386 . S
C383 C384 1.373 . S
C384 C383 1.373 . S
C384 C385 1.409 . S
C384 H406 0.931 . S
C385 C380 1.356 . S
C385 C384 1.409 . S
C385 H407 0.930 . S
C386 O396 1.270 . S
C386 O397 1.248 . S
C387 O398 1.267 . S
C387 O399 1.278 . S
O388 Pr368 2.562 . S
O388 C370 1.254 . S
O389 Pr368 2.490 . S
O389 C370 1.225 . S
O390 Pr368 2.695 . S
O390 Pr369 2.436 . S
O390 C377 1.270 . S
O391 Pr368 2.512 . S
O391 C377 1.248 . S
O392 Pr369 2.438 . S
O392 C378 1.267 . S
O393 Pr368 2.437 . S
O393 C378 1.278 . S
O394 Pr369 2.562 . S
O394 C379 1.254 . S
O395 Pr369 2.490 . S
O395 C379 1.225 . S
O396 Pr368 2.436 . S
O396 Pr369 2.695 . S
O396 C386 1.270 . S
O397 Pr369 2.512 . S
O397 C386 1.248 . S
O398 Pr368 2.438 . S
O398 C387 1.267 . S
O399 Pr369 2.437 . S
O399 C387 1.278 . S
H400 C372 0.929 . S
H401 C373 0.929 . S
H402 C375 0.931 . S
H403 C376 0.930 . S
H404 C381 0.929 . S
H405 C382 0.929 . S
H406 C384 0.931 . S
H407 C385 0.930 . S
Pr408 C410 2.880 . S
Pr408 O428 2.562 . S
Pr408 O429 2.490 . S
Pr408 O430 2.695 1_655 S
Pr408 O431 2.512 . S
Pr408 O433 2.437 . S
Pr408 O436 2.436 . S
Pr408 O438 2.438 1_655 S
Pr409 C419 2.880 . S
Pr409 O430 2.436 . S
Pr409 O432 2.438 1_455 S
Pr409 O434 2.562 . S
Pr409 O435 2.490 . S
Pr409 O436 2.695 1_455 S
Pr409 O437 2.512 . S
Pr409 O439 2.437 . S
C410 Pr408 2.880 . S
C410 C411 1.491 . S
C410 O428 1.254 . S
C410 O429 1.225 . S
C411 C410 1.491 . S
C411 C412 1.392 . S
C411 C416 1.356 . S
C412 C411 1.392 . S
C412 C413 1.368 . S
C412 H440 0.929 . S
C413 C412 1.368 . S
C413 C414 1.386 . S
C413 H441 0.929 . S
C414 C413 1.386 . S
C414 C415 1.373 . S
C415 C414 1.373 . S
C415 C416 1.409 . S
C415 H442 0.931 . S
C416 C411 1.356 . S
C416 C415 1.409 . S
C416 H443 0.930 . S
C417 O430 1.260 1_655 S
C417 O431 1.267 . S
C418 O432 1.267 . S
C418 O433 1.278 . S
C419 Pr409 2.880 . S
C419 C420 1.491 . S
C419 O434 1.254 . S
C419 O435 1.225 . S
C420 C419 1.491 . S
C420 C421 1.392 . S
C420 C425 1.356 . S
C421 C420 1.392 . S
C421 C422 1.368 . S
C421 H444 0.929 . S
C422 C421 1.368 . S
C422 C423 1.386 . S
C422 H445 0.929 . S
C423 C422 1.386 . S
C423 C424 1.373 . S
C424 C423 1.373 . S
C424 C425 1.409 . S
C424 H446 0.931 . S
C425 C420 1.356 . S
C425 C424 1.409 . S
C425 H447 0.930 . S
C426 O436 1.256 1_455 S
C426 O437 1.273 . S
C427 O438 1.267 . S
C427 O439 1.278 . S
O428 Pr408 2.562 . S
O428 C410 1.254 . S
O429 Pr408 2.490 . S
O429 C410 1.225 . S
O430 Pr408 2.695 1_455 S
O430 Pr409 2.436 . S
O430 C417 1.260 1_455 S
O431 Pr408 2.512 . S
O431 C417 1.267 . S
O432 Pr409 2.438 1_655 S
O432 C418 1.267 . S
O433 Pr408 2.437 . S
O433 C418 1.278 . S
O434 Pr409 2.562 . S
O434 C419 1.254 . S
O435 Pr409 2.490 . S
O435 C419 1.225 . S
O436 Pr408 2.436 . S
O436 Pr409 2.695 1_655 S
O436 C426 1.256 1_655 S
O437 Pr409 2.512 . S
O437 C426 1.273 . S
O438 Pr408 2.438 1_455 S
O438 C427 1.267 . S
O439 Pr409 2.437 . S
O439 C427 1.278 . S
H440 C412 0.929 . S
H441 C413 0.929 . S
H442 C415 0.931 . S
H443 C416 0.930 . S
H444 C421 0.929 . S
H445 C422 0.929 . S
H446 C424 0.931 . S
H447 C425 0.930 . S
C448 C449 1.391 . S
C448 C450 1.394 . S
C448 H464 0.931 . S
C449 C448 1.391 . S
C449 C453 1.376 1_545 S
C450 C448 1.394 . S
C450 C451 1.369 . S
C450 C454 1.531 . S
C451 C450 1.369 . S
C451 C452 1.410 1_545 S
C451 C459 1.503 . S
C452 C451 1.410 1_565 S
C452 C453 1.392 . S
C452 C455 1.511 . S
C453 C449 1.376 1_565 S
C453 C452 1.392 . S
C453 H465 0.929 . S
C454 C450 1.531 . S
C454 H466 0.960 . S
C454 H467 0.962 . S
C454 H468 0.960 . S
C455 C452 1.511 . S
C455 H469 0.961 . S
C455 H470 0.961 . S
C455 H471 0.961 . S
C456 C457 1.370 1_565 S
C456 C458 1.363 . S
C456 H472 0.931 . S
C457 C456 1.370 1_545 S
C457 C461 1.408 . S
C458 C456 1.363 . S
C458 C459 1.370 1_565 S
C458 C462 1.524 . S
C459 C451 1.503 . S
C459 C458 1.370 1_545 S
C459 C460 1.403 . S
C460 C459 1.403 . S
C460 C461 1.404 . S
C460 C463 1.539 . S
C461 C457 1.408 . S
C461 C460 1.404 . S
C461 H473 0.930 . S
C462 C458 1.524 . S
C462 H474 0.956 . S
C462 H475 0.961 . S
C462 H476 0.961 . S
C463 C460 1.539 . S
C463 H477 0.958 . S
C463 H478 0.961 . S
C463 H479 0.960 . S
H464 C448 0.931 . S
H465 C453 0.929 . S
H466 C454 0.960 . S
H467 C454 0.962 . S
H468 C454 0.960 . S
H469 C455 0.961 . S
H470 C455 0.961 . S
H471 C455 0.961 . S
H472 C456 0.931 . S
H473 C461 0.930 . S
H474 C462 0.956 . S
H475 C462 0.961 . S
H476 C462 0.961 . S
H477 C463 0.958 . S
H478 C463 0.961 . S
H479 C463 0.960 . S
C480 C481 1.391 . S
C480 C482 1.394 . S
C480 H496 0.931 . S
C481 C480 1.391 . S
C481 C485 1.376 . S
C482 C480 1.394 . S
C482 C483 1.369 . S
C482 C486 1.531 . S
C483 C482 1.369 . S
C483 C484 1.410 . S
C483 C491 1.503 . S
C484 C483 1.410 . S
C484 C485 1.392 . S
C484 C487 1.511 . S
C485 C481 1.376 . S
C485 C484 1.392 . S
C485 H497 0.929 . S
C486 C482 1.531 . S
C486 H498 0.960 . S
C486 H499 0.962 . S
C486 H500 0.960 . S
C487 C484 1.511 . S
C487 H501 0.961 . S
C487 H502 0.961 . S
C487 H503 0.961 . S
C488 C489 1.370 . S
C488 C490 1.363 . S
C488 H504 0.931 . S
C489 C488 1.370 . S
C489 C493 1.408 . S
C490 C488 1.363 . S
C490 C491 1.370 . S
C490 C494 1.524 . S
C491 C483 1.503 . S
C491 C490 1.370 . S
C491 C492 1.403 . S
C492 C491 1.403 . S
C492 C493 1.404 . S
C492 C495 1.539 . S
C493 C489 1.408 . S
C493 C492 1.404 . S
C493 H505 0.930 . S
C494 C490 1.524 . S
C494 H506 0.956 . S
C494 H507 0.961 . S
C494 H508 0.961 . S
C495 C492 1.539 . S
C495 H509 0.958 . S
C495 H510 0.961 . S
C495 H511 0.960 . S
H496 C480 0.931 . S
H497 C485 0.929 . S
H498 C486 0.960 . S
H499 C486 0.962 . S
H500 C486 0.960 . S
H501 C487 0.961 . S
H502 C487 0.961 . S
H503 C487 0.961 . S
H504 C488 0.931 . S
H505 C493 0.930 . S
H506 C494 0.956 . S
H507 C494 0.961 . S
H508 C494 0.961 . S
H509 C495 0.958 . S
H510 C495 0.961 . S
H511 C495 0.960 . S
C512 C513 1.391 . S
C512 C514 1.394 . S
C512 H528 0.931 . S
C513 C512 1.391 . S
C513 C517 1.376 . S
C514 C512 1.394 . S
C514 C515 1.369 . S
C514 C518 1.531 . S
C515 C514 1.369 . S
C515 C516 1.410 . S
C515 C523 1.503 . S
C516 C515 1.410 . S
C516 C517 1.392 . S
C516 C519 1.511 . S
C517 C513 1.376 . S
C517 C516 1.392 . S
C517 H529 0.929 . S
C518 C514 1.531 . S
C518 H530 0.960 . S
C518 H531 0.962 . S
C518 H532 0.960 . S
C519 C516 1.511 . S
C519 H533 0.961 . S
C519 H534 0.961 . S
C519 H535 0.961 . S
C520 C521 1.370 . S
C520 C522 1.363 . S
C520 H536 0.931 . S
C521 C520 1.370 . S
C521 C525 1.408 . S
C522 C520 1.363 . S
C522 C523 1.370 . S
C522 C526 1.524 . S
C523 C515 1.503 . S
C523 C522 1.370 . S
C523 C524 1.403 . S
C524 C523 1.403 . S
C524 C525 1.404 . S
C524 C527 1.539 . S
C525 C521 1.408 . S
C525 C524 1.404 . S
C525 H537 0.930 . S
C526 C522 1.524 . S
C526 H538 0.956 . S
C526 H539 0.961 . S
C526 H540 0.961 . S
C527 C524 1.539 . S
C527 H541 0.958 . S
C527 H542 0.961 . S
C527 H543 0.960 . S
H528 C512 0.931 . S
H529 C517 0.929 . S
H530 C518 0.960 . S
H531 C518 0.962 . S
H532 C518 0.960 . S
H533 C519 0.961 . S
H534 C519 0.961 . S
H535 C519 0.961 . S
H536 C520 0.931 . S
H537 C525 0.930 . S
H538 C526 0.956 . S
H539 C526 0.961 . S
H540 C526 0.961 . S
H541 C527 0.958 . S
H542 C527 0.961 . S
H543 C527 0.960 . S
C544 C545 1.391 1_655 S
C544 C546 1.394 . S
C544 H560 0.931 . S
C545 C544 1.391 1_455 S
C545 C549 1.376 . S
C546 C544 1.394 . S
C546 C547 1.369 1_655 S
C546 C550 1.531 . S
C547 C546 1.369 1_455 S
C547 C548 1.410 . S
C547 C555 1.503 . S
C548 C547 1.410 . S
C548 C549 1.392 . S
C548 C551 1.511 . S
C549 C545 1.376 . S
C549 C548 1.392 . S
C549 H561 0.929 . S
C550 C546 1.531 . S
C550 H562 0.960 . S
C550 H563 0.962 . S
C550 H564 0.960 . S
C551 C548 1.511 . S
C551 H565 0.961 . S
C551 H566 0.961 . S
C551 H567 0.961 . S
C552 C553 1.370 1_655 S
C552 C554 1.363 . S
C552 H568 0.931 . S
C553 C552 1.370 1_455 S
C553 C557 1.408 . S
C554 C552 1.363 . S
C554 C555 1.370 1_655 S
C554 C558 1.524 . S
C555 C547 1.503 . S
C555 C554 1.370 1_455 S
C555 C556 1.403 . S
C556 C555 1.403 . S
C556 C557 1.404 . S
C556 C559 1.539 . S
C557 C553 1.408 . S
C557 C556 1.404 . S
C557 H569 0.930 . S
C558 C554 1.524 . S
C558 H570 0.956 . S
C558 H571 0.961 1_655 S
C558 H572 0.961 . S
C559 C556 1.539 . S
C559 H573 0.958 . S
C559 H574 0.961 . S
C559 H575 0.960 . S
H560 C544 0.931 . S
H561 C549 0.929 . S
H562 C550 0.960 . S
H563 C550 0.962 . S
H564 C550 0.960 . S
H565 C551 0.961 . S
H566 C551 0.961 . S
H567 C551 0.961 . S
H568 C552 0.931 . S
H569 C557 0.930 . S
H570 C558 0.956 . S
H571 C558 0.961 1_455 S
H572 C558 0.961 . S
H573 C559 0.958 . S
H574 C559 0.961 . S
H575 C559 0.960 . S
C576 C577 1.391 . S
C576 C578 1.394 . S
C576 H592 0.931 . S
C577 C576 1.391 . S
C577 C581 1.376 1_565 S
C578 C576 1.394 . S
C578 C579 1.369 . S
C578 C582 1.531 . S
C579 C578 1.369 . S
C579 C580 1.410 1_565 S
C579 C587 1.503 1_554 S
C580 C579 1.410 1_545 S
C580 C581 1.392 . S
C580 C583 1.511 . S
C581 C577 1.376 1_545 S
C581 C580 1.392 . S
C581 H593 0.929 . S
C582 C578 1.531 . S
C582 H594 0.960 . S
C582 H595 0.962 . S
C582 H596 0.960 . S
C583 C580 1.511 . S
C583 H597 0.961 . S
C583 H598 0.961 1_554 S
C583 H599 0.961 1_554 S
C584 C585 1.370 1_545 S
C584 C586 1.363 . S
C584 H600 0.931 . S
C585 C584 1.370 1_565 S
C585 C589 1.408 . S
C586 C584 1.363 . S
C586 C587 1.370 1_545 S
C586 C590 1.524 1_556 S
C587 C579 1.503 1_556 S
C587 C586 1.370 1_565 S
C587 C588 1.403 . S
C588 C587 1.403 . S
C588 C589 1.404 . S
C588 C591 1.539 . S
C589 C585 1.408 . S
C589 C588 1.404 . S
C589 H601 0.930 . S
C590 C586 1.524 1_554 S
C590 H602 0.956 . S
C590 H603 0.961 . S
C590 H604 0.961 . S
C591 C588 1.539 . S
C591 H605 0.958 . S
C591 H606 0.961 . S
C591 H607 0.960 . S
H592 C576 0.931 . S
H593 C581 0.929 . S
H594 C582 0.960 . S
H595 C582 0.962 . S
H596 C582 0.960 . S
H597 C583 0.961 . S
H598 C583 0.961 1_556 S
H599 C583 0.961 1_556 S
H600 C584 0.931 . S
H601 C589 0.930 . S
H602 C590 0.956 . S
H603 C590 0.961 . S
H604 C590 0.961 . S
H605 C591 0.958 . S
H606 C591 0.961 . S
H607 C591 0.960 . S
C608 C609 1.391 . S
C608 C610 1.394 . S
C608 H624 0.931 . S
C609 C608 1.391 . S
C609 C613 1.376 . S
C610 C608 1.394 . S
C610 C611 1.369 . S
C610 C614 1.531 . S
C611 C610 1.369 . S
C611 C612 1.410 . S
C611 C619 1.503 . S
C612 C611 1.410 . S
C612 C613 1.392 . S
C612 C615 1.511 . S
C613 C609 1.376 . S
C613 C612 1.392 . S
C613 H625 0.929 . S
C614 C610 1.531 . S
C614 H626 0.960 . S
C614 H627 0.962 . S
C614 H628 0.960 . S
C615 C612 1.511 . S
C615 H629 0.961 . S
C615 H630 0.961 1_554 S
C615 H631 0.961 . S
C616 C617 1.370 . S
C616 C618 1.363 . S
C616 H632 0.931 . S
C617 C616 1.370 . S
C617 C621 1.408 . S
C618 C616 1.363 . S
C618 C619 1.370 1_556 S
C618 C622 1.524 . S
C619 C611 1.503 . S
C619 C618 1.370 1_554 S
C619 C620 1.403 1_554 S
C620 C619 1.403 1_556 S
C620 C621 1.404 . S
C620 C623 1.539 1_556 S
C621 C617 1.408 . S
C621 C620 1.404 . S
C621 H633 0.930 . S
C622 C618 1.524 . S
C622 H634 0.956 1_556 S
C622 H635 0.961 . S
C622 H636 0.961 . S
C623 C620 1.539 1_554 S
C623 H637 0.958 . S
C623 H638 0.961 . S
C623 H639 0.960 . S
H624 C608 0.931 . S
H625 C613 0.929 . S
H626 C614 0.960 . S
H627 C614 0.962 . S
H628 C614 0.960 . S
H629 C615 0.961 . S
H630 C615 0.961 1_556 S
H631 C615 0.961 . S
H632 C616 0.931 . S
H633 C621 0.930 . S
H634 C622 0.956 1_554 S
H635 C622 0.961 . S
H636 C622 0.961 . S
H637 C623 0.958 . S
H638 C623 0.961 . S
H639 C623 0.960 . S
C640 C641 1.391 . S
C640 C642 1.394 . S
C640 H656 0.931 . S
C641 C640 1.391 . S
C641 C645 1.376 . S
C642 C640 1.394 . S
C642 C643 1.369 . S
C642 C646 1.531 . S
C643 C642 1.369 . S
C643 C644 1.410 . S
C643 C651 1.503 1_554 S
C644 C643 1.410 . S
C644 C645 1.392 . S
C644 C647 1.511 . S
C645 C641 1.376 . S
C645 C644 1.392 . S
C645 H657 0.929 . S
C646 C642 1.531 . S
C646 H658 0.960 . S
C646 H659 0.962 . S
C646 H660 0.960 . S
C647 C644 1.511 . S
C647 H661 0.961 . S
C647 H662 0.961 1_554 S
C647 H663 0.961 1_554 S
C648 C649 1.370 . S
C648 C650 1.363 . S
C648 H664 0.931 . S
C649 C648 1.370 . S
C649 C653 1.408 . S
C650 C648 1.363 . S
C650 C651 1.370 . S
C650 C654 1.524 1_556 S
C651 C643 1.503 1_556 S
C651 C650 1.370 . S
C651 C652 1.403 . S
C652 C651 1.403 . S
C652 C653 1.404 . S
C652 C655 1.539 . S
C653 C649 1.408 . S
C653 C652 1.404 . S
C653 H665 0.930 . S
C654 C650 1.524 1_554 S
C654 H666 0.956 . S
C654 H667 0.961 . S
C654 H668 0.961 . S
C655 C652 1.539 . S
C655 H669 0.958 . S
C655 H670 0.961 . S
C655 H671 0.960 1_556 S
H656 C640 0.931 . S
H657 C645 0.929 . S
H658 C646 0.960 . S
H659 C646 0.962 . S
H660 C646 0.960 . S
H661 C647 0.961 . S
H662 C647 0.961 1_556 S
H663 C647 0.961 1_556 S
H664 C648 0.931 . S
H665 C653 0.930 . S
H666 C654 0.956 . S
H667 C654 0.961 . S
H668 C654 0.961 . S
H669 C655 0.958 . S
H670 C655 0.961 . S
H671 C655 0.960 1_554 S
C672 C673 1.391 1_455 S
C672 C674 1.392 1_455 S
C672 H688 0.931 . S
C673 C672 1.391 1_655 S
C673 C677 1.376 . S
C674 C672 1.392 1_655 S
C674 C675 1.374 . S
C674 C678 1.527 1_655 S
C675 C674 1.374 . S
C675 C676 1.410 . S
C675 C683 1.518 . S
C676 C675 1.410 . S
C676 C677 1.392 . S
C676 C679 1.511 . S
C677 C673 1.376 . S
C677 C676 1.392 . S
C677 H689 0.929 . S
C678 C674 1.527 1_455 S
C678 H690 0.960 1_455 S
C678 H691 0.962 . S
C678 H692 0.955 1_455 S
C679 C676 1.511 . S
C679 H693 0.961 . S
C679 H694 0.961 1_554 S
C679 H695 0.961 . S
C680 C681 1.370 1_455 S
C680 C682 1.363 . S
C680 H696 0.931 . S
C681 C680 1.370 1_655 S
C681 C685 1.408 . S
C682 C680 1.363 . S
C682 C683 1.362 1_456 S
C682 C686 1.524 . S
C683 C675 1.518 . S
C683 C682 1.362 1_654 S
C683 C684 1.396 1_554 S
C684 C683 1.396 1_556 S
C684 C685 1.404 . S
C684 C687 1.539 1_556 S
C685 C681 1.408 . S
C685 C684 1.404 . S
C685 H697 0.930 . S
C686 C682 1.524 . S
C686 H698 0.956 1_556 S
C686 H699 0.961 1_556 S
C686 H700 0.961 . S
C687 C684 1.539 1_554 S
C687 H701 0.958 . S
C687 H702 0.961 1_554 S
C687 H703 0.960 . S
H688 C672 0.931 . S
H689 C677 0.929 . S
H690 C678 0.960 1_655 S
H691 C678 0.962 . S
H692 C678 0.955 1_655 S
H693 C679 0.961 . S
H694 C679 0.961 1_556 S
H695 C679 0.961 . S
H696 C680 0.931 . S
H697 C685 0.930 . S
H698 C686 0.956 1_554 S
H699 C686 0.961 1_554 S
H700 C686 0.961 . S
H701 C687 0.958 . S
H702 C687 0.961 1_556 S
H703 C687 0.960 . S
C704 C705 1.391 1_655 S
C704 C706 1.394 . S
C704 H720 0.931 . S
C705 C704 1.391 1_455 S
C705 C709 1.376 . S
C706 C704 1.394 . S
C706 C707 1.369 . S
C706 C710 1.531 . S
C707 C706 1.369 . S
C707 C708 1.410 1_655 S
C707 C715 1.503 . S
C708 C707 1.410 1_455 S
C708 C709 1.392 . S
C708 C711 1.511 . S
C709 C705 1.376 . S
C709 C708 1.392 . S
C709 H721 0.929 . S
C710 C706 1.531 . S
C710 H722 0.960 . S
C710 H723 0.962 . S
C710 H724 0.960 . S
C711 C708 1.511 . S
C711 H725 0.961 . S
C711 H726 0.961 . S
C711 H727 0.961 . S
C712 C713 1.370 . S
C712 C714 1.363 . S
C712 H728 0.931 . S
C713 C712 1.370 . S
C713 C717 1.408 . S
C714 C712 1.363 . S
C714 C715 1.370 . S
C714 C718 1.524 . S
C715 C707 1.503 . S
C715 C714 1.370 . S
C715 C716 1.403 . S
C716 C715 1.403 . S
C716 C717 1.404 . S
C716 C719 1.539 . S
C717 C713 1.408 . S
C717 C716 1.404 . S
C717 H729 0.930 . S
C718 C714 1.524 . S
C718 H730 0.956 . S
C718 H731 0.961 . S
C718 H732 0.961 . S
C719 C716 1.539 . S
C719 H733 0.958 . S
C719 H734 0.961 . S
C719 H735 0.960 . S
H720 C704 0.931 . S
H721 C709 0.929 . S
H722 C710 0.960 . S
H723 C710 0.962 . S
H724 C710 0.960 . S
H725 C711 0.961 . S
H726 C711 0.961 . S
H727 C711 0.961 . S
H728 C712 0.931 . S
H729 C717 0.930 . S
H730 C718 0.956 . S
H731 C718 0.961 . S
H732 C718 0.961 . S
H733 C719 0.958 . S
H734 C719 0.961 . S
H735 C719 0.960 . S
C736 C737 1.391 . S
C736 C738 1.394 . S
C736 H752 0.931 . S
C737 C736 1.391 . S
C737 C741 1.376 1_545 S
C738 C736 1.394 . S
C738 C739 1.369 1_545 S
C738 C742 1.531 . S
C739 C738 1.369 1_565 S
C739 C740 1.410 . S
C739 C747 1.503 . S
C740 C739 1.410 . S
C740 C741 1.392 . S
C740 C743 1.511 . S
C741 C737 1.376 1_565 S
C741 C740 1.392 . S
C741 H753 0.929 . S
C742 C738 1.531 . S
C742 H754 0.960 . S
C742 H755 0.962 . S
C742 H756 0.960 . S
C743 C740 1.511 . S
C743 H757 0.961 . S
C743 H758 0.961 . S
C743 H759 0.961 . S
C744 C745 1.370 . S
C744 C746 1.363 . S
C744 H760 0.931 . S
C745 C744 1.370 . S
C745 C749 1.408 . S
C746 C744 1.363 . S
C746 C747 1.370 . S
C746 C750 1.524 . S
C747 C739 1.503 . S
C747 C746 1.370 . S
C747 C748 1.403 . S
C748 C747 1.403 . S
C748 C749 1.404 . S
C748 C751 1.539 . S
C749 C745 1.408 . S
C749 C748 1.404 . S
C749 H761 0.930 . S
C750 C746 1.524 . S
C750 H762 0.956 . S
C750 H763 0.961 . S
C750 H764 0.961 . S
C751 C748 1.539 . S
C751 H765 0.958 . S
C751 H766 0.961 . S
C751 H767 0.960 . S
H752 C736 0.931 . S
H753 C741 0.929 . S
H754 C742 0.960 . S
H755 C742 0.962 . S
H756 C742 0.960 . S
H757 C743 0.961 . S
H758 C743 0.961 . S
H759 C743 0.961 . S
H760 C744 0.931 . S
H761 C749 0.930 . S
H762 C750 0.956 . S
H763 C750 0.961 . S
H764 C750 0.961 . S
H765 C751 0.958 . S
H766 C751 0.961 . S
H767 C751 0.960 . S
C768 C769 1.391 . S
C768 C770 1.394 . S
C768 H784 0.931 . S
C769 C768 1.391 . S
C769 C773 1.376 . S
C770 C768 1.394 . S
C770 C771 1.369 . S
C770 C774 1.531 . S
C771 C770 1.369 . S
C771 C772 1.410 . S
C771 C779 1.503 . S
C772 C771 1.410 . S
C772 C773 1.392 . S
C772 C775 1.511 . S
C773 C769 1.376 . S
C773 C772 1.392 . S
C773 H785 0.929 . S
C774 C770 1.531 . S
C774 H786 0.960 . S
C774 H787 0.962 . S
C774 H788 0.960 . S
C775 C772 1.511 . S
C775 H789 0.961 . S
C775 H790 0.961 . S
C775 H791 0.961 . S
C776 C777 1.370 . S
C776 C778 1.363 . S
C776 H792 0.931 . S
C777 C776 1.370 . S
C777 C781 1.408 . S
C778 C776 1.363 . S
C778 C779 1.370 . S
C778 C782 1.524 . S
C779 C771 1.503 . S
C779 C778 1.370 . S
C779 C780 1.403 . S
C780 C779 1.403 . S
C780 C781 1.404 . S
C780 C783 1.539 . S
C781 C777 1.408 . S
C781 C780 1.404 . S
C781 H793 0.930 . S
C782 C778 1.524 . S
C782 H794 0.956 . S
C782 H795 0.961 . S
C782 H796 0.961 . S
C783 C780 1.539 . S
C783 H797 0.958 . S
C783 H798 0.961 . S
C783 H799 0.960 . S
H784 C768 0.931 . S
H785 C773 0.929 . S
H786 C774 0.960 . S
H787 C774 0.962 . S
H788 C774 0.960 . S
H789 C775 0.961 . S
H790 C775 0.961 . S
H791 C775 0.961 . S
H792 C776 0.931 . S
H793 C781 0.930 . S
H794 C782 0.956 . S
H795 C782 0.961 . S
H796 C782 0.961 . S
H797 C783 0.958 . S
H798 C783 0.961 . S
H799 C783 0.960 . S
C800 C801 1.391 . S
C800 C802 1.394 . S
C800 H816 0.931 . S
C801 C800 1.391 . S
C801 C805 1.376 . S
C802 C800 1.394 . S
C802 C803 1.369 . S
C802 C806 1.531 . S
C803 C802 1.369 . S
C803 C804 1.410 . S
C803 C811 1.503 . S
C804 C803 1.410 . S
C804 C805 1.392 . S
C804 C807 1.511 . S
C805 C801 1.376 . S
C805 C804 1.392 . S
C805 H817 0.929 . S
C806 C802 1.531 . S
C806 H818 0.960 . S
C806 H819 0.962 . S
C806 H820 0.960 . S
C807 C804 1.511 . S
C807 H821 0.961 . S
C807 H822 0.961 . S
C807 H823 0.961 . S
C808 C809 1.370 . S
C808 C810 1.363 . S
C808 H824 0.931 . S
C809 C808 1.370 . S
C809 C813 1.408 . S
C810 C808 1.363 . S
C810 C811 1.370 . S
C810 C814 1.524 . S
C811 C803 1.503 . S
C811 C810 1.370 . S
C811 C812 1.403 . S
C812 C811 1.403 . S
C812 C813 1.404 . S
C812 C815 1.539 . S
C813 C809 1.408 . S
C813 C812 1.404 . S
C813 H825 0.930 . S
C814 C810 1.524 . S
C814 H826 0.956 . S
C814 H827 0.961 . S
C814 H828 0.961 . S
C815 C812 1.539 . S
C815 H829 0.958 . S
C815 H830 0.961 . S
C815 H831 0.960 . S
H816 C800 0.931 . S
H817 C805 0.929 . S
H818 C806 0.960 . S
H819 C806 0.962 . S
H820 C806 0.960 . S
H821 C807 0.961 . S
H822 C807 0.961 . S
H823 C807 0.961 . S
H824 C808 0.931 . S
H825 C813 0.930 . S
H826 C814 0.956 . S
H827 C814 0.961 . S
H828 C814 0.961 . S
H829 C815 0.958 . S
H830 C815 0.961 . S
H831 C815 0.960 . S
C832 C833 1.391 . S
C832 C834 1.394 . S
C832 H848 0.931 . S
C833 C832 1.391 . S
C833 C837 1.376 1_655 S
C834 C832 1.394 . S
C834 C835 1.369 1_655 S
C834 C838 1.531 1_554 S
C835 C834 1.369 1_455 S
C835 C836 1.410 . S
C835 C843 1.503 . S
C836 C835 1.410 . S
C836 C837 1.392 . S
C836 C839 1.511 . S
C837 C833 1.376 1_455 S
C837 C836 1.392 . S
C837 H849 0.929 . S
C838 C834 1.531 1_556 S
C838 H850 0.960 1_556 S
C838 H851 0.962 . S
C838 H852 0.960 1_556 S
C839 C836 1.511 . S
C839 H853 0.961 . S
C839 H854 0.961 . S
C839 H855 0.961 . S
C840 C841 1.370 . S
C840 C842 1.363 . S
C840 H856 0.931 . S
C841 C840 1.370 . S
C841 C845 1.408 1_556 S
C842 C840 1.363 . S
C842 C843 1.370 1_556 S
C842 C846 1.524 . S
C843 C835 1.503 . S
C843 C842 1.370 1_554 S
C843 C844 1.403 . S
C844 C843 1.403 . S
C844 C845 1.404 . S
C844 C847 1.539 . S
C845 C841 1.408 1_554 S
C845 C844 1.404 . S
C845 H857 0.930 . S
C846 C842 1.524 . S
C846 H858 0.956 . S
C846 H859 0.961 . S
C846 H860 0.961 . S
C847 C844 1.539 . S
C847 H861 0.958 1_455 S
C847 H862 0.961 . S
C847 H863 0.960 . S
H848 C832 0.931 . S
H849 C837 0.929 . S
H850 C838 0.960 1_554 S
H851 C838 0.962 . S
H852 C838 0.960 1_554 S
H853 C839 0.961 . S
H854 C839 0.961 . S
H855 C839 0.961 . S
H856 C840 0.931 . S
H857 C845 0.930 . S
H858 C846 0.956 . S
H859 C846 0.961 . S
H860 C846 0.961 . S
H861 C847 0.958 1_655 S
H862 C847 0.961 . S
H863 C847 0.960 . S
C864 C865 1.388 1_545 S
C864 C866 1.394 . S
C864 H880 0.931 . S
C865 C864 1.388 1_565 S
C865 C869 1.373 1_565 S
C866 C864 1.394 . S
C866 C867 1.369 . S
C866 C870 1.531 . S
C867 C866 1.369 . S
C867 C868 1.410 . S
C867 C875 1.503 . S
C868 C867 1.410 . S
C868 C869 1.392 . S
C868 C871 1.511 1_554 S
C869 C865 1.373 1_545 S
C869 C868 1.392 . S
C869 H881 0.929 . S
C870 C866 1.531 . S
C870 H882 0.960 . S
C870 H883 0.962 . S
C870 H884 0.960 . S
C871 C868 1.511 1_556 S
C871 H885 0.961 . S
C871 H886 0.961 . S
C871 H887 0.961 . S
C872 C873 1.370 . S
C872 C874 1.363 . S
C872 H888 0.931 . S
C873 C872 1.370 . S
C873 C877 1.408 . S
C874 C872 1.363 . S
C874 C875 1.370 1_556 S
C874 C878 1.524 1_546 S
C875 C867 1.503 . S
C875 C874 1.370 1_554 S
C875 C876 1.403 . S
C876 C875 1.403 . S
C876 C877 1.404 1_554 S
C876 C879 1.539 . S
C877 C873 1.408 . S
C877 C876 1.404 1_556 S
C877 H889 0.930 . S
C878 C874 1.524 1_564 S
C878 H890 0.956 . S
C878 H891 0.961 1_554 S
C878 H892 0.961 1_554 S
C879 C876 1.539 . S
C879 H893 0.958 . S
C879 H894 0.961 . S
C879 H895 0.960 . S
H880 C864 0.931 . S
H881 C869 0.929 . S
H882 C870 0.960 . S
H883 C870 0.962 . S
H884 C870 0.960 . S
H885 C871 0.961 . S
H886 C871 0.961 . S
H887 C871 0.961 . S
H888 C872 0.931 . S
H889 C877 0.930 . S
H890 C878 0.956 . S
H891 C878 0.961 1_556 S
H892 C878 0.961 1_556 S
H893 C879 0.958 . S
H894 C879 0.961 . S
H895 C879 0.960 . S
C896 C897 1.391 . S
C896 C898 1.394 . S
C896 H912 0.931 . S
C897 C896 1.391 . S
C897 C901 1.376 . S
C898 C896 1.394 . S
C898 C899 1.369 . S
C898 C902 1.531 . S
C899 C898 1.369 . S
C899 C900 1.410 . S
C899 C907 1.503 . S
C900 C899 1.410 . S
C900 C901 1.392 . S
C900 C903 1.511 1_554 S
C901 C897 1.376 . S
C901 C900 1.392 . S
C901 H913 0.929 . S
C902 C898 1.531 . S
C902 H914 0.960 . S
C902 H915 0.962 . S
C902 H916 0.960 . S
C903 C900 1.511 1_556 S
C903 H917 0.961 . S
C903 H918 0.961 . S
C903 H919 0.961 . S
C904 C905 1.370 1_554 S
C904 C906 1.363 . S
C904 H920 0.931 . S
C905 C904 1.370 1_556 S
C905 C909 1.408 . S
C906 C904 1.363 . S
C906 C907 1.370 . S
C906 C910 1.524 . S
C907 C899 1.503 . S
C907 C906 1.370 . S
C907 C908 1.403 1_554 S
C908 C907 1.403 1_556 S
C908 C909 1.404 . S
C908 C911 1.539 . S
C909 C905 1.408 . S
C909 C908 1.404 . S
C909 H921 0.930 . S
C910 C906 1.524 . S
C910 H922 0.956 . S
C910 H923 0.961 . S
C910 H924 0.961 . S
C911 C908 1.539 . S
C911 H925 0.958 . S
C911 H926 0.961 . S
C911 H927 0.960 . S
H912 C896 0.931 . S
H913 C901 0.929 . S
H914 C902 0.960 . S
H915 C902 0.962 . S
H916 C902 0.960 . S
H917 C903 0.961 . S
H918 C903 0.961 . S
H919 C903 0.961 . S
H920 C904 0.931 . S
H921 C909 0.930 . S
H922 C910 0.956 . S
H923 C910 0.961 . S
H924 C910 0.961 . S
H925 C911 0.958 . S
H926 C911 0.961 . S
H927 C911 0.960 . S
C928 C929 1.391 . S
C928 C930 1.394 . S
C928 H944 0.931 . S
C929 C928 1.391 . S
C929 C933 1.376 . S
C930 C928 1.394 . S
C930 C931 1.369 . S
C930 C934 1.531 . S
C931 C930 1.369 . S
C931 C932 1.410 . S
C931 C939 1.503 . S
C932 C931 1.410 . S
C932 C933 1.392 . S
C932 C935 1.511 . S
C933 C929 1.376 . S
C933 C932 1.392 . S
C933 H945 0.929 . S
C934 C930 1.531 . S
C934 H946 0.960 1_554 S
C934 H947 0.962 . S
C934 H948 0.960 . S
C935 C932 1.511 . S
C935 H949 0.961 . S
C935 H950 0.961 . S
C935 H951 0.961 1_554 S
C936 C937 1.370 1_554 S
C936 C938 1.363 . S
C936 H952 0.931 . S
C937 C936 1.370 1_556 S
C937 C941 1.408 . S
C938 C936 1.363 . S
C938 C939 1.370 . S
C938 C942 1.524 . S
C939 C931 1.503 . S
C939 C938 1.370 . S
C939 C940 1.403 1_554 S
C940 C939 1.403 1_556 S
C940 C941 1.404 . S
C940 C943 1.539 . S
C941 C937 1.408 . S
C941 C940 1.404 . S
C941 H953 0.930 . S
C942 C938 1.524 . S
C942 H954 0.956 . S
C942 H955 0.961 . S
C942 H956 0.961 . S
C943 C940 1.539 . S
C943 H957 0.958 . S
C943 H958 0.961 . S
C943 H959 0.960 . S
H944 C928 0.931 . S
H945 C933 0.929 . S
H946 C934 0.960 1_556 S
H947 C934 0.962 . S
H948 C934 0.960 . S
H949 C935 0.961 . S
H950 C935 0.961 . S
H951 C935 0.961 1_556 S
H952 C936 0.931 . S
H953 C941 0.930 . S
H954 C942 0.956 . S
H955 C942 0.961 . S
H956 C942 0.961 . S
H957 C943 0.958 . S
H958 C943 0.961 . S
H959 C943 0.960 . S
C960 C961 1.391 . S
C960 C962 1.394 . S
C960 H976 0.931 . S
C961 C960 1.391 . S
C961 C965 1.376 1_455 S
C962 C960 1.394 . S
C962 C963 1.369 . S
C962 C966 1.531 . S
C963 C962 1.369 . S
C963 C964 1.410 1_455 S
C963 C971 1.503 . S
C964 C963 1.410 1_655 S
C964 C965 1.392 . S
C964 C967 1.511 . S
C965 C961 1.376 1_655 S
C965 C964 1.392 . S
C965 H977 0.929 . S
C966 C962 1.531 . S
C966 H978 0.960 . S
C966 H979 0.962 . S
C966 H980 0.960 . S
C967 C964 1.511 . S
C967 H981 0.961 . S
C967 H982 0.961 . S
C967 H983 0.961 . S
C968 C969 1.370 . S
C968 C970 1.363 . S
C968 H984 0.931 . S
C969 C968 1.370 . S
C969 C973 1.408 . S
C970 C968 1.363 . S
C970 C971 1.370 . S
C970 C974 1.524 1_455 S
C971 C963 1.503 . S
C971 C970 1.370 . S
C971 C972 1.403 . S
C972 C971 1.403 . S
C972 C973 1.404 . S
C972 C975 1.539 . S
C973 C969 1.408 . S
C973 C972 1.404 . S
C973 H985 0.930 . S
C974 C970 1.524 1_655 S
C974 H986 0.956 1_655 S
C974 H987 0.961 . S
C974 H988 0.961 . S
C975 C972 1.539 . S
C975 H989 0.958 . S
C975 H990 0.961 . S
C975 H991 0.960 . S
H976 C960 0.931 . S
H977 C965 0.929 . S
H978 C966 0.960 . S
H979 C966 0.962 . S
H980 C966 0.960 . S
H981 C967 0.961 . S
H982 C967 0.961 . S
H983 C967 0.961 . S
H984 C968 0.931 . S
H985 C973 0.930 . S
H986 C974 0.956 1_455 S
H987 C974 0.961 . S
H988 C974 0.961 . S
H989 C975 0.958 . S
H990 C975 0.961 . S
H991 C975 0.960 . S
C992 C993 1.391 . S
C992 C994 1.394 . S
C992 H1008 0.931 . S
C993 C992 1.391 . S
C993 C997 1.376 1_545 S
C994 C992 1.394 . S
C994 C995 1.369 . S
C994 C998 1.531 . S
C995 C994 1.369 . S
C995 C996 1.410 1_545 S
C995 C1003 1.503 . S
C996 C995 1.410 1_565 S
C996 C997 1.392 . S
C996 C999 1.511 . S
C997 C993 1.376 1_565 S
C997 C996 1.392 . S
C997 H1009 0.929 . S
C998 C994 1.531 . S
C998 H1010 0.960 . S
C998 H1011 0.962 . S
C998 H1012 0.960 . S
C999 C996 1.511 . S
C999 H1013 0.961 . S
C999 H1014 0.961 . S
C999 H1015 0.961 . S
C1000 C1001 1.370 . S
C1000 C1002 1.363 . S
C1000 H1016 0.931 . S
C1001 C1000 1.370 . S
C1001 C1005 1.408 1_545 S
C1002 C1000 1.363 . S
C1002 C1003 1.370 . S
C1002 C1006 1.524 . S
C1003 C995 1.503 . S
C1003 C1002 1.370 . S
C1003 C1004 1.403 1_545 S
C1004 C1003 1.403 1_565 S
C1004 C1005 1.404 . S
C1004 C1007 1.539 . S
C1005 C1001 1.408 1_565 S
C1005 C1004 1.404 . S
C1005 H1017 0.930 . S
C1006 C1002 1.524 . S
C1006 H1018 0.956 . S
C1006 H1019 0.961 . S
C1006 H1020 0.961 . S
C1007 C1004 1.539 . S
C1007 H1021 0.958 . S
C1007 H1022 0.961 . S
C1007 H1023 0.960 . S
H1008 C992 0.931 . S
H1009 C997 0.929 . S
H1010 C998 0.960 . S
H1011 C998 0.962 . S
H1012 C998 0.960 . S
H1013 C999 0.961 . S
H1014 C999 0.961 . S
H1015 C999 0.961 . S
H1016 C1000 0.931 . S
H1017 C1005 0.930 . S
H1018 C1006 0.956 . S
H1019 C1006 0.961 . S
H1020 C1006 0.961 . S
H1021 C1007 0.958 . S
H1022 C1007 0.961 . S
H1023 C1007 0.960 . S
C1024 C1025 1.391 . S
C1024 C1026 1.394 . S
C1024 H1040 0.931 . S
C1025 C1024 1.391 . S
C1025 C1029 1.376 . S
C1026 C1024 1.394 . S
C1026 C1027 1.369 . S
C1026 C1030 1.531 . S
C1027 C1026 1.369 . S
C1027 C1028 1.410 . S
C1027 C1035 1.503 . S
C1028 C1027 1.410 . S
C1028 C1029 1.392 . S
C1028 C1031 1.511 . S
C1029 C1025 1.376 . S
C1029 C1028 1.392 . S
C1029 H1041 0.929 . S
C1030 C1026 1.531 . S
C1030 H1042 0.960 . S
C1030 H1043 0.962 . S
C1030 H1044 0.960 . S
C1031 C1028 1.511 . S
C1031 H1045 0.961 . S
C1031 H1046 0.961 . S
C1031 H1047 0.961 . S
C1032 C1033 1.370 . S
C1032 C1034 1.363 . S
C1032 H1048 0.931 . S
C1033 C1032 1.370 . S
C1033 C1037 1.408 . S
C1034 C1032 1.363 . S
C1034 C1035 1.370 . S
C1034 C1038 1.524 . S
C1035 C1027 1.503 . S
C1035 C1034 1.370 . S
C1035 C1036 1.403 . S
C1036 C1035 1.403 . S
C1036 C1037 1.404 . S
C1036 C1039 1.539 . S
C1037 C1033 1.408 . S
C1037 C1036 1.404 . S
C1037 H1049 0.930 . S
C1038 C1034 1.524 . S
C1038 H1050 0.956 . S
C1038 H1051 0.961 . S
C1038 H1052 0.961 . S
C1039 C1036 1.539 . S
C1039 H1053 0.958 . S
C1039 H1054 0.961 . S
C1039 H1055 0.960 . S
H1040 C1024 0.931 . S
H1041 C1029 0.929 . S
H1042 C1030 0.960 . S
H1043 C1030 0.962 . S
H1044 C1030 0.960 . S
H1045 C1031 0.961 . S
H1046 C1031 0.961 . S
H1047 C1031 0.961 . S
H1048 C1032 0.931 . S
H1049 C1037 0.930 . S
H1050 C1038 0.956 . S
H1051 C1038 0.961 . S
H1052 C1038 0.961 . S
H1053 C1039 0.958 . S
H1054 C1039 0.961 . S
H1055 C1039 0.960 . S
C1056 C1057 1.391 . S
C1056 C1058 1.394 . S
C1056 H1072 0.931 . S
C1057 C1056 1.391 . S
C1057 C1061 1.376 . S
C1058 C1056 1.394 . S
C1058 C1059 1.369 . S
C1058 C1062 1.531 . S
C1059 C1058 1.369 . S
C1059 C1060 1.410 . S
C1059 C1067 1.503 . S
C1060 C1059 1.410 . S
C1060 C1061 1.392 . S
C1060 C1063 1.511 . S
C1061 C1057 1.376 . S
C1061 C1060 1.392 . S
C1061 H1073 0.929 . S
C1062 C1058 1.531 . S
C1062 H1074 0.960 . S
C1062 H1075 0.962 . S
C1062 H1076 0.960 . S
C1063 C1060 1.511 . S
C1063 H1077 0.961 . S
C1063 H1078 0.961 . S
C1063 H1079 0.961 . S
C1064 C1065 1.370 . S
C1064 C1066 1.363 . S
C1064 H1080 0.931 . S
C1065 C1064 1.370 . S
C1065 C1069 1.408 . S
C1066 C1064 1.363 . S
C1066 C1067 1.370 . S
C1066 C1070 1.524 . S
C1067 C1059 1.503 . S
C1067 C1066 1.370 . S
C1067 C1068 1.403 . S
C1068 C1067 1.403 . S
C1068 C1069 1.404 . S
C1068 C1071 1.539 . S
C1069 C1065 1.408 . S
C1069 C1068 1.404 . S
C1069 H1081 0.930 . S
C1070 C1066 1.524 . S
C1070 H1082 0.956 . S
C1070 H1083 0.961 . S
C1070 H1084 0.961 . S
C1071 C1068 1.539 . S
C1071 H1085 0.958 . S
C1071 H1086 0.961 . S
C1071 H1087 0.960 . S
H1072 C1056 0.931 . S
H1073 C1061 0.929 . S
H1074 C1062 0.960 . S
H1075 C1062 0.962 . S
H1076 C1062 0.960 . S
H1077 C1063 0.961 . S
H1078 C1063 0.961 . S
H1079 C1063 0.961 . S
H1080 C1064 0.931 . S
H1081 C1069 0.930 . S
H1082 C1070 0.956 . S
H1083 C1070 0.961 . S
H1084 C1070 0.961 . S
H1085 C1071 0.958 . S
H1086 C1071 0.961 . S
H1087 C1071 0.960 . S
C1088 C1089 1.391 1_455 S
C1088 C1090 1.394 . S
C1088 H1104 0.931 . S
C1089 C1088 1.391 1_655 S
C1089 C1093 1.376 . S
C1090 C1088 1.394 . S
C1090 C1091 1.369 1_455 S
C1090 C1094 1.531 . S
C1091 C1090 1.369 1_655 S
C1091 C1092 1.410 . S
C1091 C1099 1.503 . S
C1092 C1091 1.410 . S
C1092 C1093 1.392 . S
C1092 C1095 1.511 . S
C1093 C1089 1.376 . S
C1093 C1092 1.392 . S
C1093 H1105 0.929 . S
C1094 C1090 1.531 . S
C1094 H1106 0.960 . S
C1094 H1107 0.962 . S
C1094 H1108 0.960 . S
C1095 C1092 1.511 . S
C1095 H1109 0.961 . S
C1095 H1110 0.961 . S
C1095 H1111 0.961 . S
C1096 C1097 1.370 . S
C1096 C1098 1.363 . S
C1096 H1112 0.931 . S
C1097 C1096 1.370 . S
C1097 C1101 1.423 . S
C1098 C1096 1.363 . S
C1098 C1099 1.370 . S
C1098 C1102 1.524 . S
C1099 C1091 1.503 . S
C1099 C1098 1.370 . S
C1099 C1100 1.403 1_655 S
C1100 C1099 1.403 1_455 S
C1100 C1101 1.401 1_455 S
C1100 C1103 1.539 . S
C1101 C1097 1.423 . S
C1101 C1100 1.401 1_655 S
C1101 H1113 0.920 1_655 S
C1102 C1098 1.524 . S
C1102 H1114 0.956 . S
C1102 H1115 0.961 . S
C1102 H1116 0.961 . S
C1103 C1100 1.539 . S
C1103 H1117 0.958 . S
C1103 H1118 0.961 . S
C1103 H1119 0.960 . S
H1104 C1088 0.931 . S
H1105 C1093 0.929 . S
H1106 C1094 0.960 . S
H1107 C1094 0.962 . S
H1108 C1094 0.960 . S
H1109 C1095 0.961 . S
H1110 C1095 0.961 . S
H1111 C1095 0.961 . S
H1112 C1096 0.931 . S
H1113 C1101 0.920 1_455 S
H1114 C1102 0.956 . S
H1115 C1102 0.961 . S
H1116 C1102 0.961 . S
H1117 C1103 0.958 . S
H1118 C1103 0.961 . S
H1119 C1103 0.960 . S
C1120 C1121 1.391 . S
C1120 C1122 1.394 . S
C1120 H1136 0.931 . S
C1121 C1120 1.391 . S
C1121 C1125 1.376 1_565 S
C1122 C1120 1.394 . S
C1122 C1123 1.369 . S
C1122 C1126 1.531 . S
C1123 C1122 1.369 . S
C1123 C1124 1.410 1_565 S
C1123 C1131 1.503 . S
C1124 C1123 1.410 1_545 S
C1124 C1125 1.392 . S
C1124 C1127 1.511 . S
C1125 C1121 1.376 1_545 S
C1125 C1124 1.392 . S
C1125 H1137 0.929 . S
C1126 C1122 1.531 . S
C1126 H1138 0.960 . S
C1126 H1139 0.962 . S
C1126 H1140 0.960 . S
C1127 C1124 1.511 . S
C1127 H1141 0.961 . S
C1127 H1142 0.961 . S
C1127 H1143 0.961 . S
C1128 C1129 1.370 1_545 S
C1128 C1130 1.363 . S
C1128 H1144 0.931 . S
C1129 C1128 1.370 1_565 S
C1129 C1133 1.408 . S
C1130 C1128 1.363 . S
C1130 C1131 1.370 1_545 S
C1130 C1134 1.524 . S
C1131 C1123 1.503 . S
C1131 C1130 1.370 1_565 S
C1131 C1132 1.403 . S
C1132 C1131 1.403 . S
C1132 C1133 1.404 . S
C1132 C1135 1.539 . S
C1133 C1129 1.408 . S
C1133 C1132 1.404 . S
C1133 H1145 0.930 . S
C1134 C1130 1.524 . S
C1134 H1146 0.956 . S
C1134 H1147 0.961 . S
C1134 H1148 0.961 . S
C1135 C1132 1.539 . S
C1135 H1149 0.958 . S
C1135 H1150 0.961 . S
C1135 H1151 0.960 . S
H1136 C1120 0.931 . S
H1137 C1125 0.929 . S
H1138 C1126 0.960 . S
H1139 C1126 0.962 . S
H1140 C1126 0.960 . S
H1141 C1127 0.961 . S
H1142 C1127 0.961 . S
H1143 C1127 0.961 . S
H1144 C1128 0.931 . S
H1145 C1133 0.930 . S
H1146 C1134 0.956 . S
H1147 C1134 0.961 . S
H1148 C1134 0.961 . S
H1149 C1135 0.958 . S
H1150 C1135 0.961 . S
H1151 C1135 0.960 . S
C1152 C1153 1.391 . S
C1152 C1154 1.394 . S
C1152 H1168 0.931 . S
C1153 C1152 1.391 . S
C1153 C1157 1.376 . S
C1154 C1152 1.394 . S
C1154 C1155 1.369 . S
C1154 C1158 1.531 . S
C1155 C1154 1.369 . S
C1155 C1156 1.410 . S
C1155 C1163 1.503 . S
C1156 C1155 1.410 . S
C1156 C1157 1.392 . S
C1156 C1159 1.511 . S
C1157 C1153 1.376 . S
C1157 C1156 1.392 . S
C1157 H1169 0.929 . S
C1158 C1154 1.531 . S
C1158 H1170 0.960 . S
C1158 H1171 0.962 . S
C1158 H1172 0.960 . S
C1159 C1156 1.511 . S
C1159 H1173 0.961 . S
C1159 H1174 0.961 . S
C1159 H1175 0.961 . S
C1160 C1161 1.370 . S
C1160 C1162 1.363 . S
C1160 H1176 0.931 . S
C1161 C1160 1.370 . S
C1161 C1165 1.408 . S
C1162 C1160 1.363 . S
C1162 C1163 1.370 . S
C1162 C1166 1.524 . S
C1163 C1155 1.503 . S
C1163 C1162 1.370 . S
C1163 C1164 1.403 . S
C1164 C1163 1.403 . S
C1164 C1165 1.404 . S
C1164 C1167 1.539 . S
C1165 C1161 1.408 . S
C1165 C1164 1.404 . S
C1165 H1177 0.930 . S
C1166 C1162 1.524 . S
C1166 H1178 0.956 . S
C1166 H1179 0.961 . S
C1166 H1180 0.961 . S
C1167 C1164 1.539 . S
C1167 H1181 0.958 . S
C1167 H1182 0.961 . S
C1167 H1183 0.960 . S
H1168 C1152 0.931 . S
H1169 C1157 0.929 . S
H1170 C1158 0.960 . S
H1171 C1158 0.962 . S
H1172 C1158 0.960 . S
H1173 C1159 0.961 . S
H1174 C1159 0.961 . S
H1175 C1159 0.961 . S
H1176 C1160 0.931 . S
H1177 C1165 0.930 . S
H1178 C1166 0.956 . S
H1179 C1166 0.961 . S
H1180 C1166 0.961 . S
H1181 C1167 0.958 . S
H1182 C1167 0.961 . S
H1183 C1167 0.960 . S
C1184 C1185 1.391 . S
C1184 C1186 1.394 . S
C1184 H1200 0.931 . S
C1185 C1184 1.391 . S
C1185 C1189 1.376 . S
C1186 C1184 1.394 . S
C1186 C1187 1.369 . S
C1186 C1190 1.531 . S
C1187 C1186 1.369 . S
C1187 C1188 1.410 . S
C1187 C1195 1.503 . S
C1188 C1187 1.410 . S
C1188 C1189 1.392 . S
C1188 C1191 1.511 . S
C1189 C1185 1.376 . S
C1189 C1188 1.392 . S
C1189 H1201 0.929 . S
C1190 C1186 1.531 . S
C1190 H1202 0.960 . S
C1190 H1203 0.962 . S
C1190 H1204 0.960 . S
C1191 C1188 1.511 . S
C1191 H1205 0.961 . S
C1191 H1206 0.961 . S
C1191 H1207 0.961 . S
C1192 C1193 1.370 . S
C1192 C1194 1.363 . S
C1192 H1208 0.931 . S
C1193 C1192 1.370 . S
C1193 C1197 1.408 . S
C1194 C1192 1.363 . S
C1194 C1195 1.370 . S
C1194 C1198 1.524 . S
C1195 C1187 1.503 . S
C1195 C1194 1.370 . S
C1195 C1196 1.403 . S
C1196 C1195 1.403 . S
C1196 C1197 1.404 . S
C1196 C1199 1.539 . S
C1197 C1193 1.408 . S
C1197 C1196 1.404 . S
C1197 H1209 0.930 . S
C1198 C1194 1.524 . S
C1198 H1210 0.956 . S
C1198 H1211 0.961 . S
C1198 H1212 0.961 . S
C1199 C1196 1.539 . S
C1199 H1213 0.958 . S
C1199 H1214 0.961 . S
C1199 H1215 0.960 . S
H1200 C1184 0.931 . S
H1201 C1189 0.929 . S
H1202 C1190 0.960 . S
H1203 C1190 0.962 . S
H1204 C1190 0.960 . S
H1205 C1191 0.961 . S
H1206 C1191 0.961 . S
H1207 C1191 0.961 . S
H1208 C1192 0.931 . S
H1209 C1197 0.930 . S
H1210 C1198 0.956 . S
H1211 C1198 0.961 . S
H1212 C1198 0.961 . S
H1213 C1199 0.958 . S
H1214 C1199 0.961 . S
H1215 C1199 0.960 . S
C449 C241 2.101 . S
C457 C297 2.323 1_545 S
C489 C337 2.350 . S
C481 C277 2.193 . S
C521 C377 2.332 . S
C513 C169 2.111 . S
C553 C417 2.338 1_455 S
C545 C205 2.066 . S
C585 C306 2.328 1_565 S
C577 C97 2.075 1_565 S
C609 C133 2.189 . S
C617 C346 2.354 . S
C641 C25 2.093 . S
C649 C386 2.338 . S
C673 C61 2.116 1_655 S
C681 C426 2.337 1_655 S
C713 C303 0.444 . S
C705 C211 0.330 . S
C745 C343 0.453 . S
C737 C247 0.502 . S
C777 C383 0.415 . S
C769 C253 0.422 . S
C801 C175 0.483 . S
C809 C423 0.399 . S
C833 C67 0.453 1_655 S
C841 C294 0.436 . S
C873 C334 0.486 . S
C865 C103 0.397 1_565 S
C905 C374 0.444 . S
C897 C109 0.425 . S
C929 C31 0.558 . S
C937 C414 0.428 . S
C961 C181 2.804 . S
C969 C307 3.197 . S
C993 C217 2.785 . S
C1001 C347 3.171 . S
C1033 C387 3.178 . S
C1025 C283 2.774 . S
C1065 C427 3.181 . S
C1057 C145 2.798 . S
C1089 C37 2.814 1_655 S
C1097 C298 3.208 . S
C1129 C338 3.176 . S
C1121 C73 2.840 1_565 S
C1161 C378 3.173 . S
C1153 C139 2.757 . S
C1185 C1 2.815 . S
C1193 C418 3.187 . S
