# Generated by pormake.
# Topology ptr, (4,4)-cn, num edge types: 1
# Building blocks:
#     Node 0, Type 0, BuildingBlock: UXUYUI_clean_sbu_0, # of connection points: 4
#     Node 1, Type 0, BuildingBlock: UXUYUI_clean_sbu_0, # of connection points: 4
#     Node 2, Type 0, BuildingBlock: UXUYUI_clean_sbu_0, # of connection points: 4
#     Node 3, Type 0, BuildingBlock: UXUYUI_clean_sbu_0, # of connection points: 4
#     Node 4, Type 0, BuildingBlock: UXUYUI_clean_sbu_0, # of connection points: 4
#     Node 5, Type 0, BuildingBlock: UXUYUI_clean_sbu_0, # of connection points: 4
#     Node 6, Type 0, BuildingBlock: UXUYUI_clean_sbu_0, # of connection points: 4
#     Node 7, Type 0, BuildingBlock: UXUYUI_clean_sbu_0, # of connection points: 4
#     Node 8, Type 0, BuildingBlock: UXUYUI_clean_sbu_0, # of connection points: 4
#     Node 9, Type 0, BuildingBlock: UXUYUI_clean_sbu_0, # of connection points: 4
#     Node 10, Type 0, BuildingBlock: UXUYUI_clean_sbu_0, # of connection points: 4
#     Node 11, Type 0, BuildingBlock: UXUYUI_clean_sbu_0, # of connection points: 4
#     Node 12, Type 0, BuildingBlock: UXUYUI_clean_sbu_0, # of connection points: 4
#     Node 13, Type 0, BuildingBlock: UXUYUI_clean_sbu_0, # of connection points: 4
#     Node 14, Type 0, BuildingBlock: UXUYUI_clean_sbu_0, # of connection points: 4
#     Node 15, Type 0, BuildingBlock: UXUYUI_clean_sbu_0, # of connection points: 4
#     Node 16, Type 0, BuildingBlock: UXUYUI_clean_sbu_0, # of connection points: 4
#     Node 17, Type 0, BuildingBlock: UXUYUI_clean_sbu_0, # of connection points: 4
#     Node 18, Type 1, BuildingBlock: GIZVER_clean_linker_0, # of connection points: 4
#     Node 19, Type 1, BuildingBlock: GIZVER_clean_linker_0, # of connection points: 4
#     Node 20, Type 1, BuildingBlock: GIZVER_clean_linker_0, # of connection points: 4
#     Node 21, Type 1, BuildingBlock: GIZVER_clean_linker_0, # of connection points: 4
#     Node 22, Type 1, BuildingBlock: GIZVER_clean_linker_0, # of connection points: 4
#     Node 23, Type 1, BuildingBlock: GIZVER_clean_linker_0, # of connection points: 4
#     Node 24, Type 1, BuildingBlock: GIZVER_clean_linker_0, # of connection points: 4
#     Node 25, Type 1, BuildingBlock: GIZVER_clean_linker_0, # of connection points: 4
#     Node 26, Type 1, BuildingBlock: GIZVER_clean_linker_0, # of connection points: 4
#     Node 27, Type 1, BuildingBlock: GIZVER_clean_linker_0, # of connection points: 4
#     Node 28, Type 1, BuildingBlock: GIZVER_clean_linker_0, # of connection points: 4
#     Node 29, Type 1, BuildingBlock: GIZVER_clean_linker_0, # of connection points: 4
#     Node 30, Type 1, BuildingBlock: GIZVER_clean_linker_0, # of connection points: 4
#     Node 31, Type 1, BuildingBlock: GIZVER_clean_linker_0, # of connection points: 4
#     Node 32, Type 1, BuildingBlock: GIZVER_clean_linker_0, # of connection points: 4
#     Node 33, Type 1, BuildingBlock: GIZVER_clean_linker_0, # of connection points: 4
#     Node 34, Type 1, BuildingBlock: GIZVER_clean_linker_0, # of connection points: 4
#     Node 35, Type 1, BuildingBlock: GIZVER_clean_linker_0, # of connection points: 4
#     Edge 36, Type (0, 1), BuildingBlock: OJICUG_clean_linker_0, # of connection points: 2
#     Edge 37, Type (0, 1), BuildingBlock: OJICUG_clean_linker_0, # of connection points: 2
#     Edge 38, Type (0, 1), BuildingBlock: OJICUG_clean_linker_0, # of connection points: 2
#     Edge 39, Type (0, 1), BuildingBlock: OJICUG_clean_linker_0, # of connection points: 2
#     Edge 40, Type (0, 1), BuildingBlock: OJICUG_clean_linker_0, # of connection points: 2
#     Edge 41, Type (0, 1), BuildingBlock: OJICUG_clean_linker_0, # of connection points: 2
#     Edge 42, Type (0, 1), BuildingBlock: OJICUG_clean_linker_0, # of connection points: 2
#     Edge 43, Type (0, 1), BuildingBlock: OJICUG_clean_linker_0, # of connection points: 2
#     Edge 44, Type (0, 1), BuildingBlock: OJICUG_clean_linker_0, # of connection points: 2
#     Edge 45, Type (0, 1), BuildingBlock: OJICUG_clean_linker_0, # of connection points: 2
#     Edge 46, Type (0, 1), BuildingBlock: OJICUG_clean_linker_0, # of connection points: 2
#     Edge 47, Type (0, 1), BuildingBlock: OJICUG_clean_linker_0, # of connection points: 2
#     Edge 48, Type (0, 1), BuildingBlock: OJICUG_clean_linker_0, # of connection points: 2
#     Edge 49, Type (0, 1), BuildingBlock: OJICUG_clean_linker_0, # of connection points: 2
#     Edge 50, Type (0, 1), BuildingBlock: OJICUG_clean_linker_0, # of connection points: 2
#     Edge 51, Type (0, 1), BuildingBlock: OJICUG_clean_linker_0, # of connection points: 2
#     Edge 52, Type (0, 1), BuildingBlock: OJICUG_clean_linker_0, # of connection points: 2
#     Edge 53, Type (0, 1), BuildingBlock: OJICUG_clean_linker_0, # of connection points: 2
#     Edge 54, Type (0, 1), BuildingBlock: OJICUG_clean_linker_0, # of connection points: 2
#     Edge 55, Type (0, 1), BuildingBlock: OJICUG_clean_linker_0, # of connection points: 2
#     Edge 56, Type (0, 1), BuildingBlock: OJICUG_clean_linker_0, # of connection points: 2
#     Edge 57, Type (0, 1), BuildingBlock: OJICUG_clean_linker_0, # of connection points: 2
#     Edge 58, Type (0, 1), BuildingBlock: OJICUG_clean_linker_0, # of connection points: 2
#     Edge 59, Type (0, 1), BuildingBlock: OJICUG_clean_linker_0, # of connection points: 2
#     Edge 60, Type (0, 1), BuildingBlock: OJICUG_clean_linker_0, # of connection points: 2
#     Edge 61, Type (0, 1), BuildingBlock: OJICUG_clean_linker_0, # of connection points: 2
#     Edge 62, Type (0, 1), BuildingBlock: OJICUG_clean_linker_0, # of connection points: 2
#     Edge 63, Type (0, 1), BuildingBlock: OJICUG_clean_linker_0, # of connection points: 2
#     Edge 64, Type (0, 1), BuildingBlock: OJICUG_clean_linker_0, # of connection points: 2
#     Edge 65, Type (0, 1), BuildingBlock: OJICUG_clean_linker_0, # of connection points: 2
#     Edge 66, Type (0, 1), BuildingBlock: OJICUG_clean_linker_0, # of connection points: 2
#     Edge 67, Type (0, 1), BuildingBlock: OJICUG_clean_linker_0, # of connection points: 2
#     Edge 68, Type (0, 1), BuildingBlock: OJICUG_clean_linker_0, # of connection points: 2
#     Edge 69, Type (0, 1), BuildingBlock: OJICUG_clean_linker_0, # of connection points: 2
#     Edge 70, Type (0, 1), BuildingBlock: OJICUG_clean_linker_0, # of connection points: 2
#     Edge 71, Type (0, 1), BuildingBlock: OJICUG_clean_linker_0, # of connection points: 2
#     Edge 72, Type (0, 1), BuildingBlock: OJICUG_clean_linker_0, # of connection points: 2
#     Edge 73, Type (0, 1), BuildingBlock: OJICUG_clean_linker_0, # of connection points: 2
#     Edge 74, Type (0, 1), BuildingBlock: OJICUG_clean_linker_0, # of connection points: 2
#     Edge 75, Type (0, 1), BuildingBlock: OJICUG_clean_linker_0, # of connection points: 2
#     Edge 76, Type (0, 1), BuildingBlock: OJICUG_clean_linker_0, # of connection points: 2
#     Edge 77, Type (0, 1), BuildingBlock: OJICUG_clean_linker_0, # of connection points: 2
#     Edge 78, Type (0, 1), BuildingBlock: OJICUG_clean_linker_0, # of connection points: 2
#     Edge 79, Type (0, 1), BuildingBlock: OJICUG_clean_linker_0, # of connection points: 2
#     Edge 80, Type (0, 1), BuildingBlock: OJICUG_clean_linker_0, # of connection points: 2
#     Edge 81, Type (0, 1), BuildingBlock: OJICUG_clean_linker_0, # of connection points: 2
#     Edge 82, Type (0, 1), BuildingBlock: OJICUG_clean_linker_0, # of connection points: 2
#     Edge 83, Type (0, 1), BuildingBlock: OJICUG_clean_linker_0, # of connection points: 2
#     Edge 84, Type (0, 1), BuildingBlock: OJICUG_clean_linker_0, # of connection points: 2
#     Edge 85, Type (0, 1), BuildingBlock: OJICUG_clean_linker_0, # of connection points: 2
#     Edge 86, Type (0, 1), BuildingBlock: OJICUG_clean_linker_0, # of connection points: 2
#     Edge 87, Type (0, 1), BuildingBlock: OJICUG_clean_linker_0, # of connection points: 2
#     Edge 88, Type (0, 1), BuildingBlock: OJICUG_clean_linker_0, # of connection points: 2
#     Edge 89, Type (0, 1), BuildingBlock: OJICUG_clean_linker_0, # of connection points: 2
#     Edge 90, Type (0, 1), BuildingBlock: OJICUG_clean_linker_0, # of connection points: 2
#     Edge 91, Type (0, 1), BuildingBlock: OJICUG_clean_linker_0, # of connection points: 2
#     Edge 92, Type (0, 1), BuildingBlock: OJICUG_clean_linker_0, # of connection points: 2
#     Edge 93, Type (0, 1), BuildingBlock: OJICUG_clean_linker_0, # of connection points: 2
#     Edge 94, Type (0, 1), BuildingBlock: OJICUG_clean_linker_0, # of connection points: 2
#     Edge 95, Type (0, 1), BuildingBlock: OJICUG_clean_linker_0, # of connection points: 2
#     Edge 96, Type (0, 1), BuildingBlock: OJICUG_clean_linker_0, # of connection points: 2
#     Edge 97, Type (0, 1), BuildingBlock: OJICUG_clean_linker_0, # of connection points: 2
#     Edge 98, Type (0, 1), BuildingBlock: OJICUG_clean_linker_0, # of connection points: 2
#     Edge 99, Type (0, 1), BuildingBlock: OJICUG_clean_linker_0, # of connection points: 2
#     Edge 100, Type (0, 1), BuildingBlock: OJICUG_clean_linker_0, # of connection points: 2
#     Edge 101, Type (0, 1), BuildingBlock: OJICUG_clean_linker_0, # of connection points: 2
#     Edge 102, Type (0, 1), BuildingBlock: OJICUG_clean_linker_0, # of connection points: 2
#     Edge 103, Type (0, 1), BuildingBlock: OJICUG_clean_linker_0, # of connection points: 2
#     Edge 104, Type (0, 1), BuildingBlock: OJICUG_clean_linker_0, # of connection points: 2
#     Edge 105, Type (0, 1), BuildingBlock: OJICUG_clean_linker_0, # of connection points: 2
#     Edge 106, Type (0, 1), BuildingBlock: OJICUG_clean_linker_0, # of connection points: 2
#     Edge 107, Type (0, 1), BuildingBlock: OJICUG_clean_linker_0, # of connection points: 2
# Relax obj value: 0.092
# Max RMSD: 0.230
# Mean RMSD: 0.120
data_MOF--net-ptr--node1-UXUYUI_clean_sbu_0--node2-GIZVER_clean_linker_0--edge1-OJICUG_clean_linker_0
_symmetry_space_group_name_H-M    P1
_symmetry_Int_Tables_number       1
_symmetry_cell_setting            triclinic
loop_
_symmetry_equiv_pos_as_xyz
'x, y, z'
_cell_length_a     77.810936
_cell_length_b     77.866394
_cell_length_c     44.477991
_cell_angle_alpha  90.314272
_cell_angle_beta   90.273749
_cell_angle_gamma 120.0614
loop_
_atom_site_label
_atom_site_type_symbol
_atom_site_fract_x
_atom_site_fract_y
_atom_site_fract_z
_atom_type_partial_charge
Li0 Li 0.98809 0.35683 0.00518 0.0
Li1 Li 0.02383 0.37457 0.00569 0.0
Li2 Li 0.00527 0.38757 0.03529 0.0
Li3 Li 0.00644 0.3889 0.97955 0.0
C4 C 0.00703 0.34639 0.05044 0.0
N5 N 0.01072 0.31468 0.06952 0.0
C6 C 1.00454 0.33159 0.03002 0.0
C7 C 0.01143 0.3451 0.08053 0.0
C8 C 0.00646 0.31567 0.04011 0.0
C9 C 0.01322 0.32894 0.08976 0.0
C10 C 0.01426 0.35789 0.94862 0.0
C11 C 0.04159 0.36511 0.91574 0.0
N12 N 0.03185 0.34596 0.90583 0.0
C13 C 1.00456 0.33825 0.93823 0.0
C14 C 0.03296 0.37142 0.93739 0.0
C15 C 0.01368 0.33252 0.91654 0.0
C16 C 0.9554 0.32616 0.9751 0.0
N17 N 0.96437 0.33124 0.00255 0.0
C18 C 0.9392 0.30048 0.02309 0.0
C19 C 0.95657 0.31894 0.02651 0.0
C20 C 0.92961 0.29496 0.99495 0.0
C21 C 0.93789 0.30812 0.97084 0.0
H22 H 0.96187 0.33624 0.95648 0.0
H23 H 0.96381 0.32343 0.04826 0.0
C24 C 0.06218 0.38576 0.02588 0.0
N25 N 0.04727 0.37212 0.00814 0.0
C26 C 0.07901 0.3842 0.03181 0.0
C27 C 0.06528 0.355 5e-05 0.0
C28 C 0.04853 0.35689 0.99527 0.0
C29 C 0.08073 0.36852 0.0191 0.0
H30 H 0.06068 0.39751 0.03635 0.0
H31 H 0.03634 0.34583 0.98192 0.0
C32 C 0.96309 0.37001 0.00615 0.0
N33 N 0.92209 0.34822 0.00492 0.0
C34 C 0.95273 0.36761 0.97925 0.0
C35 C 0.9526 0.36133 0.03243 0.0
C36 C 0.932 0.35656 0.9791 0.0
C37 C 0.93187 0.35037 0.03134 0.0
C38 C 0.03898 0.42086 -0.00135 0.0
C39 C 0.03233 0.43412 0.00527 0.0
C40 C 0.05565 0.42691 0.98059 0.0
C41 C 0.04241 0.45323 0.99339 0.0
C42 C 0.06532 0.44615 0.96916 0.0
N43 N 0.05854 0.45879 0.97572 0.0
C44 C 0.02326 0.41174 0.08563 0.0
C45 C 0.99104 0.40635 0.07483 0.0
C46 C 0.02571 0.42498 0.10878 0.0
N47 N 0.00616 0.40279 0.06923 0.0
C48 C 0.99277 0.41931 0.09803 0.0
C49 C 0.01037 0.42898 0.1151 0.0
H50 H 0.03516 0.40889 0.08024 0.0
H51 H 0.97787 0.39954 0.06082 0.0
C52 C 0.01808 0.40928 0.92289 0.0
N53 N 0.00658 0.40545 0.94767 0.0
C54 C 0.01781 0.42156 0.90033 0.0
C55 C 0.99407 0.42595 0.92926 0.0
C56 C 0.99497 0.41377 0.95141 0.0
C57 C 0.00549 0.42986 0.9032 0.0
H58 H 0.02739 0.40278 0.92047 0.0
H59 H 0.98632 0.41089 0.97163 0.0
O60 O 0.00557 0.3623 0.041 0.0
O61 O 0.00556 0.3637 0.96993 0.0
O62 O 0.9834 0.38026 0.00659 0.0
O63 O 0.02895 0.40192 0.00928 0.0
H64 H 1.00125 0.33242 0.00661 0.0
H65 H 0.0135 0.35651 0.09657 0.0
H66 H 1.00459 0.30413 0.02454 0.0
H67 H 0.01663 0.32774 0.113 0.0
H68 H 0.05609 0.37541 0.90696 0.0
H69 H 0.99017 0.32752 0.94687 0.0
H70 H 0.04092 0.38649 0.94584 0.0
H71 H 0.00634 0.31738 0.90827 0.0
H72 H 0.93326 0.29071 0.04219 0.0
H73 H 0.93113 0.30429 0.94865 0.0
H74 H 0.09009 0.39476 0.04727 0.0
H75 H 0.06585 0.34278 0.98935 0.0
H76 H 0.96062 0.37396 0.9586 0.0
H77 H 0.96041 0.36275 0.05333 0.0
H78 H 0.92379 0.3545 0.95842 0.0
H79 H 0.92357 0.34346 0.05146 0.0
H80 H 0.01937 0.42961 0.01907 0.0
H81 H 0.06102 0.41684 0.97541 0.0
H82 H 0.03735 0.46361 -0.00186 0.0
H83 H 0.07821 0.45103 0.95505 0.0
H84 H 0.03944 0.43197 0.12166 0.0
H85 H 0.98069 0.42215 0.10205 0.0
H86 H 0.02669 0.42403 0.88042 0.0
H87 H 0.98451 0.4322 0.93244 0.0
Li88 Li 0.64964 0.63173 0.01047 0.0
Li89 Li 0.63176 0.64981 0.01101 0.0
Li90 Li 0.61834 0.61676 0.03508 0.0
Li91 Li 0.61869 0.61834 0.98087 0.0
C92 C 0.6588 0.65299 0.06363 0.0
N93 N 0.69217 0.67474 0.09923 0.0
C94 C 0.6687 0.67374 0.06342 0.0
C95 C 0.66584 0.64333 0.08208 0.0
C96 C 0.68554 0.68446 0.08156 0.0
C97 C 0.68276 0.65459 0.09984 0.0
C98 C 0.66196 0.65413 0.96285 0.0
C99 C 0.68624 0.65458 0.92887 0.0
N100 N 0.69969 0.67309 0.93894 0.0
C101 C 0.67603 0.67314 0.9729 0.0
C102 C 0.66708 0.64474 0.94068 0.0
C103 C 0.69501 0.68249 0.96049 0.0
C104 C 0.67739 0.61987 0.99513 0.0
N105 N 0.676 0.63471 0.00911 0.0
C106 C 0.71138 0.65346 0.01531 0.0
C107 C 0.69258 0.65132 0.01913 0.0
C108 C 0.71332 0.63858 0.00032 0.0
C109 C 0.6959 0.62149 0.99051 0.0
H110 H 0.66411 0.60703 0.98659 0.0
H111 H 0.69145 0.66336 0.02903 0.0
C112 C 0.62541 0.67834 0.03888 0.0
N113 N 0.6324 0.67462 0.01322 0.0
C114 C 0.62604 0.69642 0.04295 0.0
C115 C 0.64053 0.70638 0.99369 0.0
C116 C 0.63948 0.68798 0.99047 0.0
C117 C 0.63392 0.71087 0.02036 0.0
H118 H 0.61975 0.66737 0.05649 0.0
H119 H 0.64454 0.68446 0.96999 0.0
C120 C 0.62429 0.58752 0.02256 0.0
N121 N 0.61616 0.5548 0.05677 0.0
C122 C 0.60608 0.56995 0.0194 0.0
C123 C 0.63841 0.58839 0.043 0.0
C124 C 0.60222 0.55359 0.03696 0.0
C125 C 0.63402 0.5717 0.06009 0.0
C126 C 0.59222 0.63176 0.99417 0.0
C127 C 0.57434 0.6282 0.00687 0.0
C128 C 0.59808 0.64139 0.96652 0.0
C129 C 0.56254 0.6342 0.99158 0.0
C130 C 0.58586 0.64716 0.95193 0.0
N131 N 0.56849 0.64347 0.96465 0.0
C132 C 0.61014 0.59762 0.09221 0.0
C133 C 0.58206 0.59145 0.06291 0.0
C134 C 0.5979 0.58556 0.1151 0.0
N135 N 0.60207 0.60041 0.06684 0.0
C136 C 0.56926 0.57953 0.08544 0.0
C137 C 0.57719 0.57655 0.11199 0.0
H138 H 0.62606 0.6048 0.09475 0.0
H139 H 0.57604 0.59364 0.04228 0.0
C140 C 0.60989 0.61043 0.91809 0.0
N141 N 0.60352 0.60419 0.94647 0.0
C142 C 0.59849 0.59932 0.89339 0.0
C143 C 0.57412 0.5758 0.92764 0.0
C144 C 0.58582 0.58753 0.95162 0.0
C145 C 0.58051 0.58161 0.8981 0.0
H146 H 0.62385 0.62395 0.91465 0.0
H147 H 0.58084 0.58333 0.97444 0.0
O148 O 0.64208 0.64225 0.04639 0.0
O149 O 0.64347 0.64452 0.97532 0.0
O150 O 0.62814 0.60389 0.00617 0.0
O151 O 0.60402 0.62617 0.00913 0.0
H152 H 0.66356 0.68152 0.04927 0.0
H153 H 0.65851 0.62734 0.08247 0.0
H154 H 0.69337 0.70051 0.08154 0.0
H155 H 0.68842 0.64729 0.11409 0.0
H156 H 0.69045 0.64746 0.91181 0.0
H157 H 0.67247 0.68045 0.99052 0.0
H158 H 0.65647 0.6299 0.933 0.0
H159 H 0.70608 0.69716 0.96817 0.0
H160 H 0.72428 0.6669 0.02337 0.0
H161 H 0.69653 0.60982 0.9781 0.0
H162 H 0.62108 0.69932 0.0641 0.0
H163 H 0.64658 0.71703 0.97564 0.0
H164 H 0.59495 0.56895 0.00377 0.0
H165 H 0.65254 0.60185 0.04591 0.0
H166 H 0.58814 0.53995 0.03485 0.0
H167 H 0.64479 0.57222 0.07609 0.0
H168 H 0.56967 0.62095 0.0284 0.0
H169 H 0.61192 0.64448 0.95641 0.0
H170 H 0.54867 0.63153 0.00115 0.0
H171 H 0.59022 0.65461 0.93052 0.0
H172 H 0.60458 0.5838 0.13541 0.0
H173 H 0.55336 0.57275 0.0822 0.0
H174 H 0.60392 0.60422 0.87088 0.0
H175 H 0.56024 0.56236 0.93209 0.0
Li176 Li 0.39518 0.00895 0.98122 0.0
Li177 Li 0.39405 0.00797 0.03601 0.0
Li178 Li 0.36334 0.99085 0.00604 0.0
Li179 Li 0.38241 0.02738 0.00993 0.0
C180 C 0.3924 0.97443 0.99386 0.0
N181 N 0.40761 0.95353 0.96484 0.0
C182 C 0.40764 0.97251 0.00724 0.0
C183 C 0.38487 0.96568 0.96576 0.0
C184 C 0.41512 0.96188 0.99221 0.0
C185 C 0.39278 0.9552 0.95143 0.0
C186 C 0.42188 0.05094 0.00871 0.0
C187 C 0.43582 0.08367 0.03069 0.0
N188 N 0.44564 0.09165 0.00467 0.0
C189 C 0.43218 0.05946 0.98223 0.0
C190 C 0.42378 0.06312 0.0332 0.0
C191 C 0.4441 0.08008 0.98063 0.0
C192 C 0.40607 0.01324 0.91985 0.0
N193 N 0.4112 0.0105 0.94789 0.0
C194 C 0.44041 0.01138 0.9291 0.0
C195 C 0.42813 0.00983 0.95298 0.0
C196 C 0.43552 0.01434 0.89997 0.0
C197 C 0.41816 0.01533 0.89543 0.0
H198 H 0.39272 0.01406 0.91654 0.0
H199 H 0.43216 0.00825 0.97566 0.0
C200 C 0.40025 0.98784 0.083 0.0
N201 N 0.40747 0.00599 0.0704 0.0
C202 C 0.41027 0.98521 0.10701 0.0
C203 C 0.4349 0.02008 0.10488 0.0
C204 C 0.42443 0.02201 0.08077 0.0
C205 C 0.42791 1.00144 0.11811 0.0
H206 H 0.38684 0.97532 0.07403 0.0
H207 H 0.43002 0.03621 0.07001 0.0
C208 C 0.35322 1.0033 0.9589 0.0
N209 N 0.31609 0.98705 0.93236 0.0
C210 C 0.34003 0.00956 0.96787 0.0
C211 C 0.34758 0.98884 0.93637 0.0
C212 C 0.32131 1.00115 0.95419 0.0
C213 C 0.32873 0.98079 0.92325 0.0
C214 C 0.36706 0.00572 0.07244 0.0
C215 C 0.35601 0.98668 0.08435 0.0
C216 C 0.37698 0.02206 0.09178 0.0
C217 C 0.35514 0.9843 0.11552 0.0
C218 C 0.37577 0.01906 0.12282 0.0
N219 N 0.36497 1.0004 0.13395 0.0
C220 C 0.33251 0.95043 0.99417 0.0
C221 C 0.3227 0.97098 0.01927 0.0
C222 C 0.31347 0.93394 0.99734 0.0
N223 N 0.33682 0.96843 0.0055 0.0
C224 C 0.30358 0.95492 0.02319 0.0
C225 C 0.29875 0.93591 0.01267 0.0
H226 H 0.34397 0.94868 0.98348 0.0
H227 H 0.32655 0.98541 0.02831 0.0
C228 C 0.38891 0.06331 0.9861 0.0
N229 N 0.38039 0.05089 0.00963 0.0
C230 C 0.38755 0.08042 0.98346 0.0
C231 C 0.36787 0.07132 0.02863 0.0
C232 C 0.37003 0.05454 0.03082 0.0
C233 C 0.37678 0.08451 0.00472 0.0
H234 H 0.39647 0.05972 0.96903 0.0
H235 H 0.36302 0.04418 0.04895 0.0
O236 O 0.38504 0.98499 0.00806 0.0
O237 O 0.40993 0.0308 0.01058 0.0
O238 O 0.37137 0.01092 0.97264 0.0
O239 O 0.36847 0.00831 0.04199 0.0
H240 H 0.41378 0.97932 0.02884 0.0
H241 H 0.37331 0.96728 0.95486 0.0
H242 H 0.42695 0.96033 0.00226 0.0
H243 H 0.38719 0.94848 0.92957 0.0
H244 H 0.43731 0.09327 0.04939 0.0
H245 H 0.4309 0.0503 0.96303 0.0
H246 H 0.41584 0.05679 0.0538 0.0
H247 H 0.45209 0.08688 0.96024 0.0
H248 H 0.45378 0.01072 0.93339 0.0
H249 H 0.41392 0.01754 0.87317 0.0
H250 H 0.40419 0.97064 0.11687 0.0
H251 H 0.4485 0.03293 0.11266 0.0
H252 H 0.3441 0.02062 0.98545 0.0
H253 H 0.35761 0.98381 0.92922 0.0
H254 H 0.31091 0.00578 0.961 0.0
H255 H 0.32413 0.96953 0.90586 0.0
H256 H 0.34841 0.97385 0.06969 0.0
H257 H 0.38563 0.03688 0.08292 0.0
H258 H 0.34673 0.96965 0.12506 0.0
H259 H 0.38344 0.03156 0.13806 0.0
H260 H 0.31049 0.91973 0.98849 0.0
H261 H 0.29303 0.95727 0.0357 0.0
H262 H 0.39416 0.08993 0.96423 0.0
H263 H 0.35919 0.07385 0.04517 0.0
Li264 Li 0.02617 0.65394 -0.00032 0.0
Li265 Li 0.00571 0.62056 0.02853 0.0
Li266 Li 0.00713 0.62207 0.97328 0.0
Li267 Li 0.98969 0.63474 -0.00083 0.0
C268 C 0.03987 0.62144 0.99327 0.0
N269 N 0.06013 0.60285 0.97376 0.0
C270 C 0.0316 0.60099 0.99683 0.0
C271 C 0.05848 0.63248 0.97998 0.0
C272 C 0.04207 0.59185 0.98676 0.0
C273 C 0.06849 0.62279 0.97022 0.0
C274 C 0.99817 0.65428 0.05113 0.0
C275 C 0.97621 0.65145 0.09124 0.0
N276 N 0.97793 0.66903 0.08295 0.0
C277 C 0.99986 0.67239 0.04312 0.0
C278 C 0.98636 0.64374 0.07544 0.0
C279 C 0.98944 0.67956 0.05944 0.0
C280 C 0.04907 0.69537 0.98964 0.0
N281 N 0.04934 0.67951 0.00173 0.0
C282 C 0.08226 0.70041 0.02069 0.0
C283 C 0.06554 0.68162 0.01673 0.0
C284 C 0.08232 0.71724 0.00914 0.0
C285 C 0.06551 0.71445 0.99297 0.0
H286 H 0.03593 0.69324 0.97789 0.0
H287 H 0.06523 0.66875 0.02638 0.0
C288 C 0.99416 0.58647 0.06447 0.0
N289 N 0.00696 0.6063 0.06207 0.0
C290 C 0.99616 0.57584 0.08812 0.0
C291 C 0.02492 0.60612 0.10562 0.0
C292 C 0.02214 0.61622 0.08198 0.0
C293 C 0.01183 0.58567 0.10885 0.0
H294 H 0.98269 0.57881 0.04765 0.0
H295 H 0.03229 0.63193 0.07913 0.0
C296 C 0.01129 0.6501 0.93506 0.0
N297 N 0.01801 0.65484 0.87391 0.0
C298 C 0.99542 0.64083 0.91472 0.0
C299 C 0.03055 0.66196 0.9243 0.0
C300 C 0.99912 0.64335 0.88389 0.0
C301 C 0.03365 0.66412 0.8933 0.0
C302 C 0.96367 0.59657 0.99668 0.0
C303 C 0.9546 0.59529 0.96892 0.0
C304 C 0.95191 0.5876 0.02184 0.0
C305 C 0.9339 0.58524 0.96683 0.0
C306 C 0.93125 0.57762 0.01881 0.0
N307 N 0.92274 0.57669 0.99161 0.0
C308 C 0.99382 0.58832 0.93519 0.0
C309 C 0.02497 0.61556 0.92184 0.0
C310 C 0.9947 0.57699 0.91141 0.0
N311 N 0.00866 0.60735 0.93963 0.0
C312 C 0.02653 0.60477 0.89792 0.0
C313 C 0.01114 0.58527 0.89217 0.0
H314 H 0.98127 0.58187 0.95014 0.0
H315 H 0.03692 0.63045 0.92638 0.0
C316 C 0.96738 0.65103 0.97594 0.0
N317 N 0.96719 0.639 -0.00188 0.0
C318 C 0.95163 0.65463 0.97254 0.0
C319 C 0.93574 0.63374 0.01527 0.0
C320 C 0.95199 0.63076 0.01811 0.0
C321 C 0.93539 0.64573 0.9921 0.0
H322 H 0.97972 0.65774 0.96064 0.0
H323 H 0.95237 0.62177 0.0362 0.0
O324 O 0.02969 0.63059 0.00246 0.0
O325 O 0.00796 0.64684 0.03514 0.0
O326 O 0.00795 0.64781 0.96534 0.0
O327 O 0.98394 0.60647 -0.00084 0.0
H328 H 0.01714 0.59224 0.0069 0.0
H329 H 0.06502 0.64832 0.97694 0.0
H330 H 0.0358 0.57601 0.98919 0.0
H331 H 0.08286 0.63111 0.95975 0.0
H332 H 0.96692 0.64342 0.11003 0.0
H333 H 0.00894 0.68068 0.02429 0.0
H334 H 0.98492 0.62969 0.08185 0.0
H335 H 0.99047 0.69349 0.05339 0.0
H336 H 0.09462 0.70177 0.03387 0.0
H337 H 0.0649 0.72691 0.98349 0.0
H338 H 0.98591 0.56004 0.08978 0.0
H339 H 0.03709 0.61421 0.12134 0.0
H340 H 0.98038 0.63186 0.92263 0.0
H341 H 0.04304 0.66915 0.93967 0.0
H342 H 0.98698 0.63622 0.86789 0.0
H343 H 0.0485 0.67313 0.88466 0.0
H344 H 0.96346 0.60201 0.94921 0.0
H345 H 0.95863 0.58869 0.04362 0.0
H346 H 0.9267 0.58423 0.94549 0.0
H347 H 0.92197 0.57075 0.03813 0.0
H348 H 0.98242 0.56208 0.90775 0.0
H349 H 0.03967 0.61165 0.88408 0.0
H350 H 0.9519 0.6638 0.95412 0.0
H351 H 0.92359 0.62673 0.03097 0.0
Li352 Li 0.35939 0.37698 0.00864 0.0
Li353 Li 0.39206 0.38868 0.03559 0.0
Li354 Li 0.38873 0.38795 0.979 0.0
Li355 Li 0.37579 0.35734 0.00632 0.0
C356 C 0.37504 0.41534 0.0136 0.0
N357 N 0.3561 0.43686 0.02349 0.0
C358 C 0.37272 0.42045 0.04288 0.0
C359 C 0.36772 0.4212 0.98936 0.0
C360 C 0.36313 0.43135 0.04741 0.0
C361 C 0.35819 0.43206 0.99483 0.0
C362 C 0.35369 0.34663 0.05514 0.0
C363 C 0.34739 0.32114 0.09115 0.0
N364 N 0.32933 0.30926 0.07813 0.0
C365 C 0.33507 0.33419 0.04211 0.0
C366 C 0.35993 0.34009 0.07986 0.0
C367 C 0.32297 0.31534 0.05406 0.0
C368 C 0.32083 0.3709 0.99044 0.0
N369 N 0.33417 0.37574 0.01338 0.0
C370 C 0.31199 0.37848 0.04749 0.0
C371 C 0.32995 0.37925 0.04158 0.0
C372 C 0.29791 0.37361 0.02432 0.0
C373 C 0.30246 0.36968 0.99547 0.0
H374 H 0.32425 0.36766 0.96836 0.0
H375 H 0.34053 0.38249 0.05963 0.0
C376 C 0.41716 0.42273 0.07063 0.0
N377 N 0.40916 0.40273 0.06851 0.0
C378 C 0.42917 0.43322 0.09521 0.0
C379 C 0.42576 0.40255 0.11371 0.0
C380 C 0.41353 0.39262 0.08906 0.0
C381 C 0.43338 0.42309 0.11752 0.0
H382 H 0.41394 0.43051 0.05347 0.0
H383 H 0.40753 0.37683 0.08623 0.0
C384 C 0.36148 0.36339 0.94246 0.0
N385 N 0.36083 0.36456 0.88035 0.0
C386 C 0.36532 0.35058 0.92533 0.0
C387 C 0.35723 0.37671 0.92794 0.0
C388 C 0.36493 0.35141 0.89398 0.0
C389 C 0.35701 0.37712 0.89655 0.0
C390 C 0.41647 0.37216 0.00168 0.0
C391 C 0.41368 0.35874 0.97856 0.0
C392 C 0.43244 0.37826 0.02166 0.0
C393 C 0.42686 0.35157 0.97591 0.0
C394 C 0.44533 0.37079 0.01823 0.0
N395 N 0.44229 0.3577 0.99563 0.0
C396 C 0.4086 0.42139 0.93983 0.0
C397 C 0.41031 0.39289 0.92607 0.0
C398 C 0.42007 0.4317 0.91498 0.0
N399 N 0.40373 0.40223 0.94461 0.0
C400 C 0.42186 0.40258 0.90126 0.0
C401 C 0.4267 0.42218 0.89513 0.0
H402 H 0.40367 0.42873 0.95532 0.0
H403 H 0.40659 0.37784 0.93046 0.0
C404 C 0.35607 0.3171 0.98883 0.0
N405 N 0.3712 0.33059 0.00641 0.0
C406 C 0.35308 0.29799 0.98501 0.0
C407 C 0.38049 0.30645 0.01911 0.0
C408 C 0.38286 0.32542 0.02242 0.0
C409 C 0.36569 0.29255 -0.00036 0.0
H410 H 0.34665 0.32138 0.97701 0.0
H411 H 0.39448 0.33625 0.03694 0.0
O412 O 0.38399 0.40427 0.00875 0.0
O413 O 0.36597 0.36489 0.04317 0.0
O414 O 0.36211 0.36306 0.97322 0.0
O415 O 0.40366 0.37927 0.00494 0.0
H416 H 0.37785 0.41567 0.06198 0.0
H417 H 0.36929 0.41736 0.96657 0.0
H418 H 0.36112 0.43528 0.06996 0.0
H419 H 0.35241 0.43663 0.97627 0.0
H420 H 0.35203 0.31585 0.11024 0.0
H421 H 0.33013 0.33889 0.02268 0.0
H422 H 0.37432 0.34948 0.09012 0.0
H423 H 0.30856 0.30552 0.04412 0.0
H424 H 0.30891 0.38107 0.07027 0.0
H425 H 0.29194 0.36566 0.97706 0.0
H426 H 0.43451 0.44896 0.09711 0.0
H427 H 0.42902 0.39414 0.12976 0.0
H428 H 0.36886 0.3403 0.93603 0.0
H429 H 0.35432 0.38679 0.94076 0.0
H430 H 0.36797 0.34166 0.88047 0.0
H431 H 0.35384 0.38744 0.88507 0.0
H432 H 0.40113 0.35343 0.96338 0.0
H433 H 0.43493 0.38875 0.03954 0.0
H434 H 0.42474 0.34103 0.95831 0.0
H435 H 0.45775 0.37541 0.03353 0.0
H436 H 0.42341 0.44677 0.91111 0.0
H437 H 0.42699 0.39475 0.88705 0.0
H438 H 0.34158 0.28793 0.96958 0.0
H439 H 0.39037 0.30283 0.03117 0.0
Li440 Li 0.63359 0.98509 0.00798 0.0
Li441 Li 0.62108 0.00421 0.03453 0.0
Li442 Li 0.62031 1.00258 0.97902 0.0
Li443 Li 0.65219 0.02209 0.00664 0.0
C444 C 0.59134 0.96215 0.00162 0.0
N445 N 0.56109 0.92406 0.98884 0.0
C446 C 0.57821 0.95063 0.02416 0.0
C447 C 0.58887 0.95442 0.97249 0.0
C448 C 0.56308 0.93137 0.01728 0.0
C449 C 0.57354 0.93511 0.96649 0.0
C450 C 0.64601 0.99418 0.0676 0.0
C451 C 0.66254 0.98821 0.10883 0.0
N452 N 0.64477 0.97305 0.11808 0.0
C453 C 0.62793 0.97854 0.07752 0.0
C454 C 0.66348 0.99906 0.08336 0.0
C455 C 0.6276 0.96804 0.10307 0.0
C456 C 0.65256 0.96263 0.99594 0.0
N457 N 0.63655 0.96198 0.00927 0.0
C458 C 0.6261 0.92944 0.02777 0.0
C459 C 0.62329 0.9457 0.02468 0.0
C460 C 0.64267 0.92971 0.01466 0.0
C461 C 0.65581 0.94655 -0.00191 0.0
H462 H 0.66304 0.97581 0.98404 0.0
H463 H 0.61084 0.94553 0.03551 0.0
C464 C 0.58631 0.9978 0.06233 0.0
N465 N 0.60595 0.00483 0.06764 0.0
C466 C 0.57383 0.99649 0.08573 0.0
C467 C 0.60214 0.01027 0.11949 0.0
C468 C 0.6141 0.01136 0.09539 0.0
C469 C 0.58163 1.00248 0.11493 0.0
H470 H 0.5803 0.99287 0.03993 0.0
H471 H 0.62978 0.01697 0.09898 0.0
C472 C 0.65002 0.9992 0.945 0.0
N473 N 0.65857 0.99206 0.88759 0.0
C474 C 0.66439 0.01476 0.92794 0.0
C475 C 0.64024 0.97996 0.93302 0.0
C476 C 0.66843 0.01087 0.89891 0.0
C477 C 0.64471 0.97666 0.90392 0.0
C478 C 0.63318 0.04335 0.02058 0.0
C479 C 0.62545 0.05508 0.01046 0.0
C480 C 0.64524 0.04906 0.04632 0.0
C481 C 0.62991 0.07239 0.02631 0.0
C482 C 0.64935 0.06646 0.06155 0.0
N483 N 0.64166 0.07767 0.05131 0.0
C484 C 0.5851 0.99468 0.94894 0.0
C485 C 0.61347 0.00838 0.91781 0.0
C486 C 0.57307 0.99374 0.92476 0.0
N487 N 0.60485 1.00172 0.94497 0.0
C488 C 0.60201 0.00752 0.89302 0.0
C489 C 0.58151 1.00001 0.89627 0.0
H490 H 0.57867 0.98975 0.97093 0.0
H491 H 0.62925 0.01452 0.91534 0.0
C492 C 0.69288 0.04884 0.023 0.0
N493 N 0.67764 0.0456 0.00432 0.0
C494 C 0.71164 0.06573 0.01962 0.0
C495 C 0.69847 0.07573 0.97827 0.0
C496 C 0.68 0.05879 0.98263 0.0
C497 C 0.71476 0.07935 0.99666 0.0
H498 H 0.69057 0.03818 0.04023 0.0
H499 H 0.66759 0.05583 0.96812 0.0
O500 O 0.60623 0.98105 0.00802 0.0
O501 O 0.64673 0.00461 0.04248 0.0
O502 O 0.64593 1.0028 0.97348 0.0
O503 O 0.62891 0.02637 0.00527 0.0
H504 H 0.57975 0.95645 0.04677 0.0
H505 H 0.59849 0.9633 0.95459 0.0
H506 H 0.5529 0.92224 0.03455 0.0
H507 H 0.57148 0.92893 0.94404 0.0
H508 H 0.67595 0.99183 0.12123 0.0
H509 H 0.61429 0.97451 0.0656 0.0
H510 H 0.67762 0.01108 0.07598 0.0
H511 H 0.61369 0.95589 0.11095 0.0
H512 H 0.61578 0.91716 0.04144 0.0
H513 H 0.66869 0.94749 0.9873 0.0
H514 H 0.5582 0.99067 0.08103 0.0
H515 H 0.6088 0.01482 0.14165 0.0
H516 H 0.67226 0.02971 0.93692 0.0
H517 H 0.6295 0.96764 0.94614 0.0
H518 H 0.67941 0.0228 0.88539 0.0
H519 H 0.63721 0.96184 0.89437 0.0
H520 H 0.61609 0.05084 0.99056 0.0
H521 H 0.65136 0.04018 0.05449 0.0
H522 H 0.62402 0.08161 0.01874 0.0
H523 H 0.65864 0.07106 0.0815 0.0
H524 H 0.55734 0.9879 0.92818 0.0
H525 H 0.60918 0.01293 0.87157 0.0
H526 H 0.72359 0.06794 0.03461 0.0
H527 H 0.70007 0.08543 0.95985 0.0
Li528 Li 0.65575 0.69273 0.342 0.0
Li529 Li 0.6915 0.70972 0.34148 0.0
Li530 Li 0.67344 0.72332 0.3709 0.0
Li531 Li 0.67339 0.72336 0.31461 0.0
C532 C 0.66762 0.68648 0.40103 0.0
N533 N 0.65481 0.66215 0.45068 0.0
C534 C 0.67378 0.67262 0.40559 0.0
C535 C 0.65525 0.68822 0.42201 0.0
C536 C 0.66704 0.66038 0.43075 0.0
C537 C 0.64885 0.67572 0.44689 0.0
C538 C 0.67299 0.68164 0.29576 0.0
C539 C 0.67378 0.66173 0.25468 0.0
N540 N 0.6725 0.64797 0.27465 0.0
C541 C 0.67166 0.66731 0.31587 0.0
C542 C 0.67402 0.67885 0.26492 0.0
C543 C 0.67144 0.65039 0.30476 0.0
C544 C 0.6234 0.6631 0.31093 0.0
N545 N 0.63197 0.66689 0.33869 0.0
C546 C 0.60707 0.63468 0.35536 0.0
C547 C 0.62414 0.65312 0.36088 0.0
C548 C 0.59789 0.63049 0.32688 0.0
C549 C 0.60629 0.64506 0.30458 0.0
H550 H 0.63 0.67414 0.29354 0.0
H551 H 0.63109 0.65626 0.38278 0.0
C552 C 0.7246 0.71377 0.37077 0.0
N553 N 0.71517 0.70802 0.34372 0.0
C554 C 0.74189 0.71304 0.37615 0.0
C555 C 0.73968 0.70055 0.32558 0.0
C556 C 0.72244 0.70172 0.32105 0.0
C557 C 0.74963 0.70624 0.3535 0.0
H558 H 0.7185 0.71875 0.38834 0.0
H559 H 0.71485 0.69749 0.29955 0.0
C560 C 0.6308 0.70633 0.34048 0.0
N561 N 0.58987 0.6859 0.33543 0.0
C562 C 0.62166 0.70558 0.31299 0.0
C563 C 0.61911 0.6969 0.36549 0.0
C564 C 0.60095 0.69514 0.31087 0.0
C565 C 0.59845 0.68658 0.36245 0.0
C566 C 0.71377 0.74967 0.32854 0.0
C567 C 0.7279 0.76739 0.34227 0.0
C568 C 0.71758 0.74443 0.30026 0.0
C569 C 0.74565 0.77967 0.3274 0.0
C570 C 0.73551 0.7571 0.28614 0.0
N571 N 0.74905 0.77431 0.29988 0.0
C572 C 0.69354 0.74794 0.41934 0.0
C573 C 0.66063 0.74189 0.41396 0.0
C574 C 0.69681 0.76028 0.44412 0.0
N575 N 0.67566 0.73897 0.40502 0.0
C576 C 0.66322 0.75407 0.43884 0.0
C577 C 0.68148 0.76334 0.45442 0.0
H578 H 0.70529 0.74555 0.41135 0.0
H579 H 0.64664 0.73474 0.40185 0.0
C580 C 0.66387 0.72853 0.2556 0.0
N581 N 0.67327 0.73833 0.28126 0.0
C582 C 0.66205 0.7389 0.23147 0.0
C583 C 0.68033 0.76937 0.26017 0.0
C584 C 0.68153 0.75835 0.28397 0.0
C585 C 0.6702 0.75956 0.23371 0.0
H586 H 0.65738 0.71259 0.25421 0.0
H587 H 0.68876 0.76571 0.30481 0.0
O588 O 0.67425 0.69872 0.3767 0.0
O589 O 0.67314 0.69831 0.30603 0.0
O590 O 0.65108 0.71605 0.34278 0.0
O591 O 0.69641 0.73742 0.34295 0.0
H592 H 0.68371 0.67137 0.38994 0.0
H593 H 0.65068 0.69912 0.41919 0.0
H594 H 0.67161 0.64952 0.43448 0.0
H595 H 0.63919 0.67684 0.46322 0.0
H596 H 0.67459 0.65937 0.23086 0.0
H597 H 0.67073 0.66919 0.33974 0.0
H598 H 0.67504 0.68981 0.24907 0.0
H599 H 0.6704 0.63917 0.32008 0.0
H600 H 0.60111 0.62386 0.37318 0.0
H601 H 0.60001 0.64236 0.2821 0.0
H602 H 0.74879 0.71721 0.39821 0.0
H603 H 0.74517 0.69529 0.3075 0.0
H604 H 0.63045 0.71285 0.29344 0.0
H605 H 0.6259 0.69734 0.38693 0.0
H606 H 0.59369 0.69433 0.28968 0.0
H607 H 0.58923 0.67907 0.38157 0.0
H608 H 0.72517 0.77161 0.3642 0.0
H609 H 0.70684 0.73072 0.28935 0.0
H610 H 0.75673 0.79345 0.33775 0.0
H611 H 0.73866 0.75324 0.26426 0.0
H612 H 0.71124 0.76738 0.45505 0.0
H613 H 0.65094 0.75586 0.44614 0.0
H614 H 0.65433 0.73085 0.21125 0.0
H615 H 0.68675 0.78527 0.26271 0.0
Li616 Li 0.28538 0.95197 0.31509 0.0
Li617 Li 0.28708 0.95074 0.36977 0.0
Li618 Li 0.30165 0.98294 0.34329 0.0
Li619 Li 0.31717 0.96181 0.34117 0.0
C620 C 0.25521 0.95522 0.33358 0.0
N621 N 0.21809 0.94077 0.30778 0.0
C622 C 0.23931 0.93717 0.34303 0.0
C623 C 0.25223 0.96601 0.3112 0.0
C624 C 0.22065 0.9301 0.32966 0.0
C625 C 0.23335 0.95842 0.29838 0.0
C626 C 0.29905 0.92236 0.33599 0.0
C627 C 0.31537 0.90518 0.35491 0.0
N628 N 0.31368 0.8969 0.32726 0.0
C629 C 0.29739 0.91363 0.30779 0.0
C630 C 0.30802 0.91805 0.3598 0.0
C631 C 0.3049 0.90081 0.30382 0.0
C632 C 0.2728 0.94644 0.25382 0.0
N633 N 0.26914 0.93798 0.2814 0.0
C634 C 0.24297 0.9074 0.26137 0.0
C635 C 0.25445 0.91894 0.28566 0.0
C636 C 0.2467 0.91556 0.23243 0.0
C637 C 0.26164 0.93546 0.2289 0.0
H638 H 0.28473 0.9615 0.25098 0.0
H639 H 0.252 0.91257 0.30787 0.0
C640 C 0.26491 0.94459 0.42288 0.0
N641 N 0.2717 0.93595 0.40328 0.0
C642 C 0.25218 0.93354 0.44606 0.0
C643 C 0.25329 0.90477 0.42811 0.0
C644 C 0.26614 0.91643 0.40541 0.0
C645 C 0.24603 0.91326 0.44879 0.0
H646 H 0.26912 0.95999 0.42019 0.0
H647 H 0.27124 0.90975 0.389 0.0
C648 C 0.32204 0.9918 0.29076 0.0
N649 N 0.34312 0.02612 0.25798 0.0
C650 C 0.3427 1.00092 0.2889 0.0
C651 C 0.31209 1.00006 0.27583 0.0
C652 C 0.35309 0.01828 0.27222 0.0
C653 C 0.32302 0.01745 0.25943 0.0
C654 C 0.31432 0.97685 0.40703 0.0
C655 C 0.31029 0.99055 0.42098 0.0
C656 C 0.31859 0.96458 0.42454 0.0
C657 C 0.31039 0.99161 0.45236 0.0
C658 C 0.31851 0.96607 0.45585 0.0
N659 N 0.31443 0.97943 0.46899 0.0
C660 C 0.29173 0.01287 0.35395 0.0
C661 C 0.32544 0.02515 0.34172 0.0
C662 C 0.29529 0.03217 0.35863 0.0
N663 N 0.30677 0.00971 0.34596 0.0
C664 C 0.32956 0.04468 0.34533 0.0
C665 C 0.31452 0.04851 0.3547 0.0
H666 H 0.27707 1.00034 0.35775 0.0
H667 H 0.33729 0.02231 0.33609 0.0
C668 C 0.34506 0.95425 0.31297 0.0
N669 N 0.34192 0.96224 0.33813 0.0
C670 C 0.36306 0.95473 0.30893 0.0
C671 C 0.37472 0.97237 0.35624 0.0
C672 C 0.35624 0.97114 0.35972 0.0
C673 C 0.37824 0.96405 0.33057 0.0
H674 H 0.33371 0.94787 0.29568 0.0
H675 H 0.35348 0.97767 0.3793 0.0
O676 O 0.27368 0.96216 0.34587 0.0
O677 O 0.29203 0.93516 0.34025 0.0
O678 O 0.31162 0.97481 0.307 0.0
O679 O 0.31405 0.9754 0.37637 0.0
H680 H 0.24139 0.92861 0.36026 0.0
H681 H 0.2644 0.98002 0.30371 0.0
H682 H 0.20822 0.91609 0.33662 0.0
H683 H 0.23084 0.96656 0.28092 0.0
H684 H 0.32244 0.90179 0.37309 0.0
H685 H 0.29061 0.91689 0.28905 0.0
H686 H 0.30941 0.92468 0.38176 0.0
H687 H 0.30381 0.89402 0.28208 0.0
H688 H 0.23154 0.89216 0.26511 0.0
H689 H 0.26527 0.94224 0.20692 0.0
H690 H 0.24726 0.94087 0.46168 0.0
H691 H 0.24876 0.88918 0.42899 0.0
H692 H 0.35065 0.99474 0.30031 0.0
H693 H 0.29612 0.99326 0.27718 0.0
H694 H 0.36909 0.02553 0.27065 0.0
H695 H 0.31552 0.02408 0.24791 0.0
H696 H 0.30699 1.00018 0.40775 0.0
H697 H 0.32183 0.95397 0.41406 0.0
H698 H 0.3072 1.00208 0.46348 0.0
H699 H 0.32168 0.9566 0.46971 0.0
H700 H 0.28323 0.03411 0.3665 0.0
H701 H 0.34454 0.05661 0.34142 0.0
H702 H 0.36539 0.94859 0.28846 0.0
H703 H 0.38617 0.97988 0.37323 0.0
Li704 Li 0.05584 0.33686 0.31368 0.0
Li705 Li 0.05339 0.33692 0.36792 0.0
Li706 Li 0.02365 0.31931 0.33941 0.0
Li707 Li 0.04132 0.356 0.34087 0.0
C708 C 0.04025 0.29634 0.35451 0.0
N709 N 0.02802 0.26044 0.38231 0.0
C710 C 0.03152 0.29271 0.38285 0.0
C711 C 0.04279 0.28173 0.34029 0.0
C712 C 0.02543 0.27447 0.39655 0.0
C713 C 0.0365 0.26367 0.35471 0.0
C714 C 0.0867 0.36953 0.35615 0.0
C715 C 0.10723 0.3892 0.39783 0.0
N716 N 0.12245 0.38713 0.38718 0.0
C717 C 0.10259 0.36768 0.34555 0.0
C718 C 0.08907 0.38048 0.38242 0.0
C719 C 0.12053 0.37666 0.36157 0.0
C720 C 0.07525 0.3505 0.25846 0.0
N721 N 0.07223 0.33793 0.28146 0.0
C722 C 0.09506 0.3292 0.26026 0.0
C723 C 0.08171 0.32727 0.28275 0.0
C724 C 0.09869 0.34227 0.23631 0.0
C725 C 0.08841 0.35285 0.2355 0.0
H726 H 0.06756 0.35884 0.25817 0.0
H727 H 0.07925 0.31763 0.30163 0.0
C728 C 0.06677 0.34184 0.43042 0.0
N729 N 0.06822 0.33608 0.40208 0.0
C730 C 0.07827 0.34079 0.45375 0.0
C731 C 0.09282 0.32821 0.41834 0.0
C732 C 0.08103 0.32949 0.39572 0.0
C733 C 0.09144 0.33378 0.44789 0.0
H734 H 0.05678 0.34728 0.43512 0.0
H735 H 0.08213 0.32526 0.37292 0.0
C736 C 0.01642 0.32517 0.28476 0.0
N737 N 0.98629 0.29838 0.24735 0.0
C738 C 0.99793 0.32408 0.28462 0.0
C739 C 0.01955 0.31259 0.26592 0.0
C740 C 0.98289 0.31044 0.26555 0.0
C741 C 1.00415 0.29917 0.24714 0.0
C742 C 0.02474 0.34137 0.40223 0.0
C743 C 0.01231 0.32596 0.42136 0.0
C744 C 0.03319 0.36103 0.4122 0.0
C745 C 0.0089 0.33047 0.45038 0.0
C746 C 0.0294 0.36494 0.44136 0.0
N747 N 0.01746 0.34971 0.45971 0.0
C748 C 0.99344 0.27873 0.32631 0.0
C749 C 0.98324 0.29816 0.35381 0.0
C750 C 0.97464 0.26184 0.32948 0.0
N751 N 0.99746 0.29632 0.33901 0.0
C752 C 0.96433 0.28173 0.35752 0.0
C753 C 0.95984 0.26311 0.34577 0.0
H754 H 1.00495 0.27767 0.31435 0.0
H755 H 0.98678 0.31232 0.36356 0.0
C756 C 0.05535 0.39751 0.34493 0.0
N757 N 0.03919 0.37948 0.33882 0.0
C758 C 0.05441 0.41487 0.34155 0.0
C759 C 0.02025 0.39485 0.32546 0.0
C760 C 0.02173 0.37787 0.32987 0.0
C761 C 0.03683 0.41381 0.33088 0.0
H762 H 0.06911 0.39848 0.35193 0.0
H763 H 0.00907 0.3634 0.3253 0.0
O764 O 0.04607 0.31398 0.34044 0.0
O765 O 0.06885 0.36037 0.34119 0.0
O766 O 0.03114 0.33792 0.30401 0.0
O767 O 0.02804 0.33722 0.37359 0.0
H768 H 0.0295 0.30386 0.39415 0.0
H769 H 0.04943 0.28428 0.31825 0.0
H770 H 0.01864 0.27148 0.4185 0.0
H771 H 0.03833 0.2522 0.34394 0.0
H772 H 0.10919 0.39755 0.41833 0.0
H773 H 0.10107 0.3593 0.32529 0.0
H774 H 0.0769 0.38189 0.39119 0.0
H775 H 0.1329 0.37527 0.35368 0.0
H776 H 0.10274 0.32087 0.26195 0.0
H777 H 0.09039 0.36278 0.2172 0.0
H778 H 0.0765 0.34499 0.47627 0.0
H779 H 0.10293 0.32295 0.4127 0.0
H780 H 0.99508 0.33342 0.29939 0.0
H781 H 0.03363 0.31297 0.26605 0.0
H782 H 0.96849 0.30938 0.26533 0.0
H783 H 0.00636 0.28932 0.23251 0.0
H784 H 0.00528 0.31065 0.4139 0.0
H785 H 0.04268 0.37316 0.39772 0.0
H786 H 0.99939 0.31869 0.46545 0.0
H787 H 0.03596 0.38008 0.44942 0.0
H788 H 0.97186 0.2479 0.31973 0.0
H789 H 0.95364 0.2835 0.3707 0.0
H790 H 0.06752 0.42896 0.34671 0.0
H791 H 0.00644 0.39301 0.31667 0.0
Li792 Li 0.6889 0.98057 0.34346 0.0
Li793 Li 0.67287 0.95062 0.37097 0.0
Li794 Li 0.67305 0.94961 0.31441 0.0
Li795 Li 0.65292 0.96126 0.34388 0.0
C796 C 0.71571 0.96882 0.33813 0.0
N797 N 0.75616 0.98853 0.32799 0.0
C798 C 0.72902 0.98028 0.36098 0.0
C799 C 0.72301 0.9674 0.31011 0.0
C800 C 0.7494 0.99014 0.3554 0.0
C801 C 0.7435 0.97745 0.30545 0.0
C802 C 0.67122 0.97455 0.40877 0.0
C803 C 0.65411 0.96363 0.45598 0.0
N804 N 0.67187 0.97281 0.47078 0.0
C805 C 0.6893 0.98397 0.42445 0.0
C806 C 0.65347 0.96438 0.42464 0.0
C807 C 0.68931 0.98289 0.4558 0.0
C808 C 0.70921 0.02009 0.36384 0.0
N809 N 0.71048 0.00785 0.3432 0.0
C810 C 0.74193 0.03428 0.32668 0.0
C811 C 0.72612 0.01476 0.32401 0.0
C812 C 0.74137 0.04695 0.34876 0.0
C813 C 0.72451 0.0397 0.36704 0.0
H814 H 0.69644 0.01451 0.3783 0.0
H815 H 0.72655 0.00506 0.30697 0.0
C816 C 0.65726 0.91855 0.41205 0.0
N817 N 0.67378 0.93582 0.40457 0.0
C818 C 0.65794 0.9069 0.43529 0.0
C819 C 0.69268 0.93097 0.44262 0.0
C820 C 0.69131 0.94211 0.41925 0.0
C821 C 0.67587 0.91304 0.45086 0.0
H822 H 0.64359 0.91361 0.39971 0.0
H823 H 0.70427 0.95576 0.41282 0.0
C824 C 0.67814 0.99034 0.29297 0.0
N825 N 0.6953 0.02608 0.26315 0.0
C826 C 0.67391 0.00509 0.30166 0.0
C827 C 0.69098 0.99367 0.26904 0.0
C828 C 0.68278 0.02309 0.28633 0.0
C829 C 0.69953 0.01187 0.25425 0.0
C830 C 0.63076 0.92136 0.33968 0.0
C831 C 0.62336 0.91016 0.31324 0.0
C832 C 0.61766 0.91923 0.36268 0.0
C833 C 0.60294 0.89717 0.31012 0.0
C834 C 0.59735 0.90611 0.35869 0.0
N835 N 0.59047 0.89545 0.3327 0.0
C836 C 0.6785 0.92103 0.28364 0.0
C837 C 0.66477 0.93665 0.25433 0.0
C838 C 0.67682 0.90873 0.25946 0.0
N839 N 0.67252 0.93461 0.28057 0.0
C840 C 0.66261 0.92453 0.22971 0.0
C841 C 0.66857 0.91027 0.23218 0.0
H842 H 0.68436 0.91961 0.30501 0.0
H843 H 0.65989 0.94741 0.25276 0.0
C844 C 0.62537 0.97384 0.36075 0.0
N845 N 0.62911 0.96263 0.34118 0.0
C846 C 0.60857 0.97581 0.35678 0.0
C847 C 0.59964 0.95429 0.31315 0.0
C848 C 0.61677 0.95311 0.31753 0.0
C849 C 0.59547 0.9659 0.33271 0.0
H850 H 0.63571 0.98169 0.37892 0.0
H851 H 0.62047 0.94493 0.30166 0.0
O852 O 0.69569 0.9589 0.34318 0.0
O853 O 0.67092 0.97509 0.37804 0.0
O854 O 0.66998 0.97283 0.30813 0.0
O855 O 0.6507 0.93435 0.34297 0.0
H856 H 0.72372 0.98194 0.38257 0.0
H857 H 0.713 0.95878 0.29205 0.0
H858 H 0.75984 0.99918 0.37282 0.0
H859 H 0.74933 0.9765 0.28386 0.0
H860 H 0.64048 0.95574 0.46854 0.0
H861 H 0.70319 0.99185 0.41254 0.0
H862 H 0.63935 0.95711 0.4129 0.0
H863 H 0.7032 0.99002 0.46821 0.0
H864 H 0.75455 0.03933 0.31189 0.0
H865 H 0.72348 0.04885 0.38456 0.0
H866 H 0.64466 0.89312 0.44072 0.0
H867 H 0.70673 0.93649 0.45436 0.0
H868 H 0.66404 1.00272 0.32024 0.0
H869 H 0.69448 0.98241 0.26221 0.0
H870 H 0.67974 0.0347 0.29289 0.0
H871 H 0.70958 0.01472 0.23579 0.0
H872 H 0.63323 0.91147 0.29527 0.0
H873 H 0.62309 0.92777 0.38326 0.0
H874 H 0.59702 0.88847 0.28973 0.0
H875 H 0.58705 0.90443 0.37623 0.0
H876 H 0.68149 0.89786 0.26225 0.0
H877 H 0.65639 0.92633 0.20893 0.0
H878 H 0.60596 0.98512 0.37206 0.0
H879 H 0.59021 0.94688 0.29384 0.0
Li880 Li 0.05818 0.72596 0.36066 0.0
Li881 Li 0.02593 0.71349 0.33363 0.0
Li882 Li 0.04271 0.69388 0.33107 0.0
Li883 Li 0.05546 0.72511 0.30579 0.0
C884 C 0.02046 0.68336 0.38058 0.0
N885 N 0.9964 0.64649 0.40534 0.0
C886 C 1.00187 0.67048 0.3678 0.0
C887 C 0.02684 0.67749 0.4059 0.0
C888 C 0.98992 0.6519 0.38066 0.0
C889 C 0.01445 0.65879 0.41811 0.0
C890 C 0.03981 0.7513 0.3367 0.0
C891 C 0.02137 0.76528 0.314 0.0
N892 N 0.01827 0.77062 0.34173 0.0
C893 C 0.03643 0.75694 0.36497 0.0
C894 C 0.03221 0.75551 0.311 0.0
C895 C 0.02553 0.7667 0.36704 0.0
C896 C 0.0808 0.75907 0.39917 0.0
N897 N 0.07467 0.73958 0.39423 0.0
C898 C 0.0924 0.73888 0.43772 0.0
C899 C 0.08058 0.72954 0.41245 0.0
C900 C 0.09806 0.75872 0.44449 0.0
C901 C 0.09237 0.76891 0.42443 0.0
H902 H 0.07655 0.76694 0.38365 0.0
H903 H 0.07601 0.71424 0.40738 0.0
C904 C 0.98718 0.70701 0.31554 0.0
N905 N 1.00044 0.71144 0.33847 0.0
C906 C 0.96871 0.70548 0.32096 0.0
C907 C 0.9781 0.71325 0.37326 0.0
C908 C 0.99612 0.71429 0.36697 0.0
C909 C 0.96409 0.70879 0.35014 0.0
H910 H 0.99081 0.70447 0.29315 0.0
H911 H 0.00675 0.71737 0.38489 0.0
C912 C 0.08958 0.72537 0.32381 0.0
N913 N 0.12877 0.74518 0.30607 0.0
C914 C 0.09793 0.71488 0.31081 0.0
C915 C 0.10115 0.74589 0.32795 0.0
C916 C 0.11778 0.72518 0.30196 0.0
C917 C 0.12094 0.75565 0.31878 0.0
C918 C 0.02978 0.69955 0.26757 0.0
C919 C 0.03551 0.68728 0.25299 0.0
C920 C 0.02461 0.71136 0.25057 0.0
C921 C 0.03612 0.68715 0.2216 0.0
C922 C 0.02545 0.71083 0.21923 0.0
N923 N 0.03113 0.69884 0.20551 0.0
C924 C 0.02294 0.65323 0.31584 0.0
C925 C 0.05262 0.66397 0.34382 0.0
C926 C 0.02044 0.63427 0.31262 0.0
N927 N 0.03906 0.66772 0.3306 0.0
C928 C 0.05061 0.64511 0.34139 0.0
C929 C 0.03456 0.63 0.32504 0.0
H930 H 0.01233 0.65662 0.30566 0.0
H931 H 0.06522 0.67576 0.35569 0.0
C932 C 0.07578 0.75871 0.26776 0.0
N933 N 0.07111 0.73957 0.27195 0.0
C934 C 0.08879 0.76998 0.24493 0.0
C935 C 0.09232 0.74177 0.23166 0.0
C936 C 0.07908 0.73101 0.25443 0.0
C937 C 0.09739 0.76155 0.22677 0.0
H938 H 0.06984 0.76544 0.28262 0.0
H939 H 0.07557 0.71595 0.25866 0.0
O940 O 0.03259 0.70138 0.36783 0.0
O941 O 0.05002 0.74126 0.33423 0.0
O942 O 0.07004 0.71561 0.33183 0.0
O943 O 0.02925 0.70001 0.29829 0.0
H944 H 0.99683 0.67467 0.34791 0.0
H945 H 0.04123 0.68724 0.41596 0.0
H946 H 0.97553 0.64176 0.37095 0.0
H947 H 0.01919 0.65403 0.4377 0.0
H948 H 0.01536 0.76855 0.2943 0.0
H949 H 0.04168 0.75335 0.3852 0.0
H950 H 0.03453 0.75115 0.28896 0.0
H951 H 0.02268 0.771 0.38879 0.0
H952 H 0.09686 0.73053 0.45195 0.0
H953 H 0.09624 0.78415 0.42862 0.0
H954 H 0.95822 0.70181 0.3026 0.0
H955 H 0.97495 0.71542 0.39622 0.0
H956 H 0.0891 0.69899 0.30733 0.0
H957 H 0.09483 0.75424 0.33767 0.0
H958 H 0.12443 0.71729 0.29174 0.0
H959 H 0.13004 0.77155 0.32165 0.0
H960 H 0.03978 0.67821 0.26574 0.0
H961 H 0.02011 0.7209 0.26143 0.0
H962 H 0.04064 0.67782 0.21004 0.0
H963 H 0.02158 0.71997 0.20581 0.0
H964 H 0.00801 0.62339 0.29933 0.0
H965 H 0.06173 0.64254 0.35175 0.0
H966 H 0.09247 0.78524 0.242 0.0
H967 H 0.09849 0.73467 0.21794 0.0
Li968 Li 0.29126 0.33846 0.37524 0.0
Li969 Li 0.30409 0.32021 0.34735 0.0
Li970 Li 0.3215 0.35704 0.34621 0.0
Li971 Li 0.28968 0.33725 0.31957 0.0
C972 C 0.32395 0.344 0.40993 0.0
N973 N 0.33689 0.35296 0.46892 0.0
C974 C 0.32623 0.33034 0.42727 0.0
C975 C 0.32825 0.36221 0.42259 0.0
C976 C 0.33278 0.33515 0.45706 0.0
C977 C 0.33478 0.36647 0.45244 0.0
C978 C 0.26415 0.29864 0.36499 0.0
C979 C 0.23214 0.26985 0.37396 0.0
N980 N 0.23954 0.26604 0.39923 0.0
C981 C 0.27143 0.29446 0.39105 0.0
C982 C 0.24435 0.28628 0.35635 0.0
C983 C 0.25875 0.2779 0.40805 0.0
C984 C 0.26015 0.34074 0.40117 0.0
N985 N 0.27571 0.33817 0.40854 0.0
C986 C 0.26614 0.33365 0.46013 0.0
C987 C 0.27875 0.33443 0.43732 0.0
C988 C 0.24992 0.33611 0.45307 0.0
C989 C 0.24686 0.33958 0.42319 0.0
H990 H 0.25787 0.34332 0.378 0.0
H991 H 0.2906 0.33156 0.44263 0.0
C992 C 0.32544 0.30013 0.35615 0.0
N993 N 0.30761 0.29751 0.34695 0.0
C994 C 0.32848 0.28393 0.358 0.0
C995 C 0.29491 0.26266 0.34001 0.0
C996 C 0.29257 0.27931 0.33834 0.0
C997 C 0.31298 0.26479 0.35037 0.0
H998 H 0.33717 0.31477 0.36275 0.0
H999 H 0.27859 0.27761 0.3307 0.0
C1000 C 0.30337 0.37964 0.34529 0.0
N1001 N 0.31543 0.41951 0.34207 0.0
C1002 C 0.30552 0.38858 0.31735 0.0
C1003 C 0.30696 0.39085 0.37161 0.0
C1004 C 0.31175 0.40879 0.31618 0.0
C1005 C 0.31315 0.41102 0.3695 0.0
C1006 C 0.31417 0.32703 0.28712 0.0
C1007 C 0.33082 0.3329 0.26909 0.0
C1008 C 0.2964 0.30974 0.2799 0.0
C1009 C 0.32941 0.32134 0.24403 0.0
C1010 C 0.29558 0.29859 0.25467 0.0
N1011 N 0.31197 0.30456 0.23741 0.0
C1012 C 0.36135 0.38723 0.3641 0.0
C1013 C 0.34999 0.39101 0.3165 0.0
C1014 C 0.37973 0.40443 0.35983 0.0
N1015 N 0.34685 0.38096 0.34265 0.0
C1016 C 0.36808 0.40823 0.31129 0.0
C1017 C 0.38335 0.4152 0.33306 0.0
H1018 H 0.35893 0.3787 0.38425 0.0
H1019 H 0.33854 0.38536 0.29931 0.0
C1020 C 0.25425 0.32934 0.29004 0.0
N1021 N 0.27399 0.33637 0.28615 0.0
C1022 C 0.24231 0.32843 0.26575 0.0
C1023 C 0.27134 0.34204 0.23414 0.0
C1024 C 0.28271 0.34291 0.25903 0.0
C1025 C 0.25085 0.33462 0.23729 0.0
H1026 H 0.24779 0.32442 0.31201 0.0
H1027 H 0.29851 0.34878 0.25672 0.0
O1028 O 0.31735 0.33942 0.38083 0.0
O1029 O 0.27621 0.31486 0.34809 0.0
O1030 O 0.29736 0.35989 0.34688 0.0
O1031 O 0.3154 0.33819 0.31175 0.0
H1032 H 0.3229 0.31615 0.41785 0.0
H1033 H 0.3266 0.37293 0.40946 0.0
H1034 H 0.33459 0.32472 0.47076 0.0
H1035 H 0.33817 0.38051 0.46251 0.0
H1036 H 0.21679 0.26014 0.36754 0.0
H1037 H 0.28669 0.30387 0.39808 0.0
H1038 H 0.2385 0.28934 0.33624 0.0
H1039 H 0.2642 0.27449 0.42827 0.0
H1040 H 0.26865 0.33053 0.48293 0.0
H1041 H 0.23436 0.34135 0.41701 0.0
H1042 H 0.34255 0.28626 0.36659 0.0
H1043 H 0.28262 0.24823 0.33374 0.0
H1044 H 0.30258 0.38004 0.29678 0.0
H1045 H 0.30486 0.38403 0.39342 0.0
H1046 H 0.31366 0.41596 0.29471 0.0
H1047 H 0.31607 0.41992 0.38968 0.0
H1048 H 0.34469 0.34625 0.27441 0.0
H1049 H 0.28334 0.305 0.29355 0.0
H1050 H 0.34218 0.3257 0.22986 0.0
H1051 H 0.28192 0.28518 0.24882 0.0
H1052 H 0.39105 0.4091 0.37716 0.0
H1053 H 0.3703 0.41556 0.28987 0.0
H1054 H 0.22658 0.32264 0.26903 0.0
H1055 H 0.27855 0.34731 0.21267 0.0
Li1056 Li 0.31428 0.02262 0.67195 0.0
Li1057 Li 0.35093 0.03889 0.67171 0.0
Li1058 Li 0.33352 0.0524 0.70139 0.0
Li1059 Li 0.33446 0.05472 0.64686 0.0
C1060 C 0.33481 0.02635 0.73616 0.0
N1061 N 0.3404 0.02845 0.79776 0.0
C1062 C 0.35347 0.03178 0.74829 0.0
C1063 C 0.31895 0.02183 0.75535 0.0
C1064 C 0.356 0.03278 0.7795 0.0
C1065 C 0.32209 0.02303 0.78643 0.0
C1066 C 0.3392 0.0198 0.61843 0.0
C1067 C 0.36484 0.02125 0.58645 0.0
N1068 N 0.35407 1.00123 0.58262 0.0
C1069 C 0.3284 0.99923 0.61422 0.0
C1070 C 0.35756 0.03092 0.60444 0.0
C1071 C 0.33616 0.99012 0.596 0.0
C1072 C 0.28044 0.99342 0.64172 0.0
N1073 N 0.29025 0.99747 0.66848 0.0
C1074 C 0.26645 0.96543 0.687 0.0
C1075 C 0.2836 0.98399 0.69108 0.0
C1076 C 0.25603 0.96084 0.65949 0.0
C1077 C 0.26321 0.97522 0.63679 0.0
H1078 H 0.28628 0.00422 0.6239 0.0
H1079 H 0.29179 0.9875 0.71206 0.0
C1080 C 0.39131 0.0497 0.68019 0.0
N1081 N 0.37312 0.03443 0.67221 0.0
C1082 C 0.40733 0.0465 0.68425 0.0
C1083 C 0.38586 0.01213 0.67038 0.0
C1084 C 0.37017 0.0159 0.66727 0.0
C1085 C 0.40472 0.0274 0.67981 0.0
H1086 H 0.39319 0.0642 0.68474 0.0
H1087 H 0.35548 0.00387 0.66167 0.0
C1088 C 0.29139 0.03816 0.67143 0.0
N1089 N 0.25053 0.01921 0.66567 0.0
C1090 C 0.28263 0.03746 0.64359 0.0
C1091 C 0.27935 0.02923 0.69634 0.0
C1092 C 0.26195 0.02782 0.64114 0.0
C1093 C 0.25873 0.01971 0.69296 0.0
C1094 C 0.36782 0.08526 0.66475 0.0
C1095 C 0.36307 0.09965 0.67345 0.0
C1096 C 0.38287 0.08998 0.64386 0.0
C1097 C 0.37343 0.11856 0.66094 0.0
C1098 C 0.39289 0.10906 0.63187 0.0
N1099 N 0.38799 0.12283 0.64057 0.0
C1100 C 0.35436 0.07692 0.74977 0.0
C1101 C 0.32124 0.0705 0.74655 0.0
C1102 C 0.35816 0.08943 0.7745 0.0
N1103 N 0.33611 0.06763 0.73655 0.0
C1104 C 0.32439 0.08292 0.77136 0.0
C1105 C 0.34305 0.0925 0.78577 0.0
H1106 H 0.36606 0.07478 0.7408 0.0
H1107 H 0.30703 0.06336 0.73513 0.0
C1108 C 0.34618 0.0739 0.58983 0.0
N1109 N 0.33562 0.07174 0.61518 0.0
C1110 C 0.34695 0.08658 0.56713 0.0
C1111 C 0.32587 0.09447 0.5969 0.0
C1112 C 0.32584 0.08195 0.6193 0.0
C1113 C 0.3365 0.09684 0.57042 0.0
H1114 H 0.35396 0.06578 0.58717 0.0
H1115 H 0.31787 0.08024 0.63993 0.0
O1116 O 0.33216 0.02579 0.70568 0.0
O1117 O 0.33183 0.02898 0.63619 0.0
O1118 O 0.3116 0.04716 0.67417 0.0
O1119 O 0.3574 0.06649 0.67599 0.0
H1120 H 0.36592 0.03536 0.7338 0.0
H1121 H 0.30442 0.01763 0.74633 0.0
H1122 H 0.37039 0.03705 0.78919 0.0
H1123 H 0.30998 0.0197 0.80154 0.0
H1124 H 0.37909 0.02967 0.57565 0.0
H1125 H 0.31423 0.99035 0.62502 0.0
H1126 H 0.36632 0.04678 0.60796 0.0
H1127 H 0.32797 0.97421 0.59257 0.0
H1128 H 0.26148 0.95475 0.70503 0.0
H1129 H 0.256 0.97219 0.61496 0.0
H1130 H 0.42131 0.05872 0.69223 0.0
H1131 H 0.38302 0.99722 0.66618 0.0
H1132 H 0.29166 0.04395 0.62392 0.0
H1133 H 0.28584 0.02944 0.71797 0.0
H1134 H 0.25498 0.02708 0.6197 0.0
H1135 H 0.24924 0.01265 0.71202 0.0
H1136 H 0.35132 0.09617 0.68938 0.0
H1137 H 0.38663 0.07896 0.63675 0.0
H1138 H 0.36984 0.12981 0.66732 0.0
H1139 H 0.4045 0.1129 0.61556 0.0
H1140 H 0.37289 0.09679 0.78448 0.0
H1141 H 0.31231 0.08478 0.77937 0.0
H1142 H 0.35516 0.08792 0.54684 0.0
H1143 H 0.31769 0.10221 0.60021 0.0
Li1144 Li 0.98283 0.29691 0.67378 0.0
Li1145 Li 0.96562 0.31505 0.67515 0.0
Li1146 Li 0.95229 0.28352 0.70261 0.0
Li1147 Li 0.95185 0.28457 0.64537 0.0
C1148 C 0.98838 0.31237 0.73505 0.0
N1149 N 0.01104 0.32018 0.78672 0.0
C1150 C 1.00122 0.33196 0.74422 0.0
C1151 C 0.98691 0.29676 0.75231 0.0
C1152 C 0.0126 0.3356 0.77037 0.0
C1153 C 0.99853 0.30101 0.77832 0.0
C1154 C 0.9943 0.32633 0.63063 0.0
C1155 C 0.0163 0.34766 0.59223 0.0
N1156 N 0.02894 0.35992 0.61393 0.0
C1157 C 0.00753 0.33911 0.65254 0.0
C1158 C 0.99871 0.3306 0.60022 0.0
C1159 C 0.02495 0.35602 0.64365 0.0
C1160 C 0.01167 0.29213 0.6443 0.0
N1161 N 0.00852 0.29878 0.67087 0.0
C1162 C 0.0413 0.30777 0.68788 0.0
C1163 C 0.02295 0.30663 0.69251 0.0
C1164 C 0.04461 0.30045 0.66096 0.0
C1165 C 0.02951 0.29251 0.63905 0.0
H1166 H 1.00034 0.28671 0.62695 0.0
H1167 H 0.02052 0.31233 0.71318 0.0
C1168 C 0.9642 0.34493 0.70708 0.0
N1169 N 0.96764 0.34053 0.67897 0.0
C1170 C 0.96501 0.36292 0.71299 0.0
C1171 C 0.97323 0.37184 0.66092 0.0
C1172 C 0.97194 0.35344 0.65588 0.0
C1173 C 0.96966 0.37671 0.68981 0.0
H1174 H 0.96079 0.33437 0.72498 0.0
H1175 H 0.97442 0.3495 0.63362 0.0
C1176 C 0.96724 0.25716 0.66785 0.0
N1177 N 0.98334 0.23306 0.65791 0.0
C1178 C 0.96737 0.2502 0.63886 0.0
C1179 C 0.97504 0.25163 0.69184 0.0
C1180 C 0.97564 0.23809 0.63428 0.0
C1181 C 0.98319 0.23951 0.68633 0.0
C1182 C 0.92724 0.30162 0.67174 0.0
C1183 C 0.91854 0.30507 0.69674 0.0
C1184 C 0.92574 0.30865 0.64358 0.0
C1185 C 0.90857 0.31567 0.69316 0.0
C1186 C 0.91563 0.31919 0.64094 0.0
N1187 N 0.90734 0.32246 0.66558 0.0
C1188 C 0.93453 0.27838 0.75903 0.0
C1189 C 0.92851 0.24855 0.73512 0.0
C1190 C 0.92238 0.26774 0.78294 0.0
N1191 N 0.93722 0.26866 0.73575 0.0
C1192 C 0.91627 0.23729 0.75865 0.0
C1193 C 0.91291 0.2469 0.78282 0.0
H1194 H 0.94168 0.2944 0.75881 0.0
H1195 H 0.93084 0.24125 0.71611 0.0
C1196 C 0.93984 0.27766 0.58388 0.0
N1197 N 0.93629 0.26987 0.61192 0.0
C1198 C 0.92857 0.26604 0.55945 0.0
C1199 C 0.91013 0.23878 0.59341 0.0
C1200 C 0.92167 0.25094 0.61716 0.0
C1201 C 0.91363 0.24624 0.56403 0.0
H1202 H 0.95159 0.29278 0.58046 0.0
H1203 H 0.91922 0.24522 0.6398 0.0
O1204 O 0.97704 0.30861 0.70965 0.0
O1205 O 0.97719 0.30957 0.63869 0.0
O1206 O 0.95941 0.26923 0.6727 0.0
O1207 O 0.93767 0.29191 0.67493 0.0
H1208 H 1.0024 0.34423 0.73125 0.0
H1209 H 0.97688 0.28154 0.74576 0.0
H1210 H 0.02266 0.35069 0.77768 0.0
H1211 H 0.99757 0.28906 0.79185 0.0
H1212 H 0.0199 0.35115 0.56878 0.0
H1213 H 1.00443 0.33604 0.67615 0.0
H1214 H 0.98867 0.32081 0.58298 0.0
H1215 H 0.03531 0.36604 0.66039 0.0
H1216 H 0.05275 0.31428 0.70507 0.0
H1217 H 0.03173 0.28721 0.61766 0.0
H1218 H 0.9625 0.3662 0.73571 0.0
H1219 H 0.97685 0.38209 0.64248 0.0
H1220 H 0.96144 0.25434 0.61999 0.0
H1221 H 0.97486 0.25667 0.71445 0.0
H1222 H 0.97599 0.23273 0.61193 0.0
H1223 H 0.98939 0.23522 0.70467 0.0
H1224 H 0.91967 0.29979 0.71871 0.0
H1225 H 0.93254 0.30623 0.62407 0.0
H1226 H 0.90185 0.31856 0.71233 0.0
H1227 H 0.91445 0.32483 0.61932 0.0
H1228 H 0.92052 0.27577 0.8014 0.0
H1229 H 0.90919 0.22127 0.75763 0.0
H1230 H 0.93195 0.2723 0.53711 0.0
H1231 H 0.89868 0.22367 0.59795 0.0
Li1232 Li 0.70986 0.68785 0.67258 0.0
Li1233 Li 0.6919 0.65136 0.67029 0.0
Li1234 Li 0.7231 0.66979 0.69878 0.0
Li1235 Li 0.72287 0.6696 0.64403 0.0
C1236 C 0.69585 0.66654 0.73609 0.0
N1237 N 0.69384 0.66099 0.79755 0.0
C1238 C 0.6849 0.64744 0.74785 0.0
C1239 C 0.70571 0.68281 0.75557 0.0
C1240 C 0.68407 0.64495 0.779 0.0
C1241 C 0.70454 0.67969 0.78658 0.0
C1242 C 0.6798 0.66212 0.62362 0.0
C1243 C 0.65342 0.63634 0.59382 0.0
N1244 N 0.64172 0.64425 0.60012 0.0
C1245 C 0.66753 0.67002 0.62977 0.0
C1246 C 0.67273 0.64517 0.60545 0.0
C1247 C 0.64832 0.66077 0.61767 0.0
C1248 C 0.71467 0.72332 0.64881 0.0
N1249 N 0.70715 0.71102 0.67272 0.0
C1250 C 0.69573 0.73175 0.69436 0.0
C1251 C 0.69772 0.71483 0.69529 0.0
C1252 C 0.70388 0.74493 0.67029 0.0
C1253 C 0.71349 0.74058 0.64738 0.0
H1254 H 0.72149 0.71962 0.6307 0.0
H1255 H 0.69151 0.7046 0.71378 0.0
C1256 C 0.66214 0.61015 0.66275 0.0
N1257 N 0.66578 0.62847 0.67133 0.0
C1258 C 0.64326 0.59354 0.66645 0.0
C1259 C 0.63222 0.615 0.68743 0.0
C1260 C 0.6512 0.63118 0.683 0.0
C1261 C 0.62804 0.59573 0.67958 0.0
H1262 H 0.67398 0.60832 0.65376 0.0
H1263 H 0.65456 0.64589 0.68992 0.0
C1264 C 0.74881 0.71254 0.67093 0.0
N1265 N 0.77056 0.75348 0.66818 0.0
C1266 C 0.75792 0.72187 0.6441 0.0
C1267 C 0.75082 0.72405 0.69636 0.0
C1268 C 0.76886 0.74258 0.64318 0.0
C1269 C 0.76184 0.74472 0.69451 0.0
C1270 C 0.72422 0.63804 0.65874 0.0
C1271 C 0.74272 0.64222 0.67009 0.0
C1272 C 0.71631 0.6258 0.63336 0.0
C1273 C 0.75298 0.63405 0.65589 0.0
C1274 C 0.72706 0.61795 0.61976 0.0
N1275 N 0.74501 0.62219 0.63122 0.0
C1276 C 0.73043 0.65105 0.74659 0.0
C1277 C 0.755 0.68488 0.7412 0.0
C1278 C 0.74099 0.64901 0.77037 0.0
N1279 N 0.73749 0.6688 0.7327 0.0
C1280 C 0.76605 0.68353 0.76495 0.0
C1281 C 0.7591 0.66538 0.77979 0.0
H1282 H 0.71668 0.6384 0.73889 0.0
H1283 H 0.76057 0.69866 0.72922 0.0
C1284 C 0.73045 0.6624 0.58354 0.0
N1285 N 0.73862 0.67027 0.61082 0.0
C1286 C 0.7424 0.6624 0.56019 0.0
C1287 C 0.77096 0.6789 0.59331 0.0
C1288 C 0.75842 0.67829 0.61613 0.0
C1289 C 0.76294 0.67084 0.56494 0.0
H1290 H 0.71466 0.65604 0.57997 0.0
H1291 H 0.76447 0.68421 0.63819 0.0
O1292 O 0.69719 0.66926 0.70565 0.0
O1293 O 0.69847 0.67066 0.63587 0.0
O1294 O 0.73777 0.69228 0.67217 0.0
O1295 O 0.71418 0.64635 0.67182 0.0
H1296 H 0.67735 0.63465 0.73312 0.0
H1297 H 0.71427 0.69768 0.74684 0.0
H1298 H 0.67574 0.63025 0.78841 0.0
H1299 H 0.71217 0.69215 0.80191 0.0
H1300 H 0.6477 0.62313 0.57991 0.0
H1301 H 0.6727 0.68304 0.64394 0.0
H1302 H 0.68192 0.63869 0.60084 0.0
H1303 H 0.63864 0.66667 0.62233 0.0
H1304 H 0.68794 0.7345 0.71216 0.0
H1305 H 0.71949 0.75014 0.62805 0.0
H1306 H 0.64079 0.57909 0.65968 0.0
H1307 H 0.62127 0.61757 0.69824 0.0
H1308 H 0.75633 0.71325 0.62407 0.0
H1309 H 0.74373 0.71711 0.71722 0.0
H1310 H 0.77591 0.74999 0.62254 0.0
H1311 H 0.76341 0.75379 0.71398 0.0
H1312 H 0.74925 0.65189 0.6894 0.0
H1313 H 0.70227 0.62279 0.62378 0.0
H1314 H 0.76734 0.63722 0.66438 0.0
H1315 H 0.72119 0.60859 0.59997 0.0
H1316 H 0.73494 0.63482 0.78143 0.0
H1317 H 0.78004 0.69645 0.77129 0.0
H1318 H 0.73573 0.65624 0.53847 0.0
H1319 H 0.78672 0.68547 0.59781 0.0
Li1320 Li 0.35606 0.31788 0.67452 0.0
Li1321 Li 0.33922 0.28704 0.70169 0.0
Li1322 Li 0.33921 0.28673 0.64758 0.0
Li1323 Li 0.31995 0.29838 0.67422 0.0
C1324 C 0.37913 0.30169 0.69171 0.0
N1325 N 0.41296 0.31283 0.72575 0.0
C1326 C 0.38254 0.31281 0.71813 0.0
C1327 C 0.39291 0.29624 0.68263 0.0
C1328 C 0.39974 0.31829 0.73502 0.0
C1329 C 0.40993 0.30202 0.70014 0.0
C1330 C 0.3266 0.30972 0.734 0.0
C1331 C 0.29872 0.28973 0.76595 0.0
N1332 N 0.30385 0.30587 0.78377 0.0
C1333 C 0.33159 0.3261 0.75262 0.0
C1334 C 0.31003 0.29138 0.7407 0.0
C1335 C 0.31991 0.32385 0.77769 0.0
C1336 C 0.37599 0.35882 0.68748 0.0
N1337 N 0.37836 0.34436 0.6744 0.0
C1338 C 0.41234 0.36775 0.66354 0.0
C1339 C 0.39604 0.34847 0.66227 0.0
C1340 C 0.41055 0.38296 0.67776 0.0
C1341 C 0.39193 0.37824 0.68954 0.0
H1342 H 0.36179 0.35515 0.69696 0.0
H1343 H 0.39762 0.33672 0.65203 0.0
C1344 C 0.33901 0.25457 0.72804 0.0
N1345 N 0.34033 0.27224 0.73492 0.0
C1346 C 0.33992 0.24271 0.75077 0.0
C1347 C 0.34323 0.26735 0.78724 0.0
C1348 C 0.34273 0.27894 0.7638 0.0
C1349 C 0.34182 0.24903 0.78077 0.0
H1350 H 0.33735 0.24976 0.70481 0.0
H1351 H 0.34438 0.29329 0.7687 0.0
C1352 C 0.3484 0.32083 0.61455 0.0
N1353 N 0.36966 0.34022 0.56402 0.0
C1354 C 0.34215 0.33133 0.59651 0.0
C1355 C 0.36544 0.32014 0.60684 0.0
C1356 C 0.3531 0.34105 0.57105 0.0
C1357 C 0.376 0.33005 0.58123 0.0
C1358 C 0.30014 0.25833 0.65772 0.0
C1359 C 0.29467 0.26491 0.63217 0.0
C1360 C 0.28896 0.23846 0.6661 0.0
C1361 C 0.27803 0.25145 0.61544 0.0
C1362 C 0.27242 0.22545 0.64876 0.0
N1363 N 0.26735 0.23216 0.62401 0.0
C1364 C 0.34751 0.25972 0.61799 0.0
C1365 C 0.33333 0.27397 0.58663 0.0
C1366 C 0.34892 0.24904 0.59368 0.0
N1367 N 0.34 0.272 0.61395 0.0
C1368 C 0.33465 0.26378 0.56173 0.0
C1369 C 0.34271 0.25128 0.56504 0.0
H1370 H 0.35259 0.25839 0.64009 0.0
H1371 H 0.32716 0.28361 0.58408 0.0
C1372 C 0.29784 0.3167 0.66058 0.0
N1373 N 0.29626 0.30017 0.6733 0.0
C1374 C 0.28106 0.31861 0.65672 0.0
C1375 C 0.26135 0.28674 0.68025 0.0
C1376 C 0.27854 0.28541 0.68351 0.0
C1377 C 0.26238 0.30338 0.66623 0.0
H1378 H 0.31212 0.3282 0.65267 0.0
H1379 H 0.27762 0.27237 0.69355 0.0
O1380 O 0.36243 0.29609 0.67468 0.0
O1381 O 0.33791 0.3118 0.70934 0.0
O1382 O 0.33769 0.31113 0.6394 0.0
O1383 O 0.31638 0.27116 0.67455 0.0
H1384 H 0.3721 0.31721 0.72556 0.0
H1385 H 0.39047 0.28764 0.66222 0.0
H1386 H 0.40257 0.3269 0.75549 0.0
H1387 H 0.42073 0.29791 0.69336 0.0
H1388 H 0.28588 0.27562 0.77141 0.0
H1389 H 0.34439 0.3404 0.74778 0.0
H1390 H 0.30602 0.27848 0.72675 0.0
H1391 H 0.32362 0.33641 0.79231 0.0
H1392 H 0.42626 0.3706 0.65388 0.0
H1393 H 0.38981 0.38922 0.70133 0.0
H1394 H 0.33893 0.2287 0.74506 0.0
H1395 H 0.34507 0.2728 0.81018 0.0
H1396 H 0.32892 0.33193 0.60206 0.0
H1397 H 0.37043 0.31194 0.62033 0.0
H1398 H 0.34841 0.34922 0.55687 0.0
H1399 H 0.38921 0.32963 0.57501 0.0
H1400 H 0.30309 0.28023 0.62534 0.0
H1401 H 0.29303 0.23315 0.68581 0.0
H1402 H 0.27362 0.25634 0.59564 0.0
H1403 H 0.26362 0.21002 0.65499 0.0
H1404 H 0.35521 0.23953 0.59705 0.0
H1405 H 0.32939 0.26564 0.54007 0.0
H1406 H 0.28266 0.33154 0.64522 0.0
H1407 H 0.24736 0.27471 0.68818 0.0
Li1408 Li 0.69034 0.04538 0.67658 0.0
Li1409 Li 0.72179 0.0578 0.7009 0.0
Li1410 Li 0.71981 0.05707 0.64688 0.0
Li1411 Li 0.70797 0.02525 0.6759 0.0
C1412 C 0.70336 0.08291 0.67625 0.0
N1413 N 0.68167 0.10215 0.6795 0.0
C1414 C 0.70091 0.09007 0.70386 0.0
C1415 C 0.69479 0.08559 0.65031 0.0
C1416 C 0.68991 0.09977 0.70502 0.0
C1417 C 0.68387 0.09532 0.65241 0.0
C1418 C 0.69869 0.031 0.74106 0.0
C1419 C 0.70389 0.01462 0.78314 0.0
N1420 N 0.70243 0.0275 0.80228 0.0
C1421 C 0.69727 0.04409 0.7612 0.0
C1422 C 0.70207 0.01616 0.75214 0.0
C1423 C 0.6992 0.04208 0.79204 0.0
C1424 C 0.65122 0.03619 0.65557 0.0
N1425 N 0.66429 0.04271 0.67913 0.0
C1426 C 0.64106 0.04626 0.70974 0.0
C1427 C 0.65942 0.04755 0.70589 0.0
C1428 C 0.62721 0.03958 0.68596 0.0
C1429 C 0.63243 0.03439 0.65857 0.0
H1430 H 0.65529 0.03222 0.63454 0.0
H1431 H 0.66983 0.05245 0.72438 0.0
C1432 C 0.74595 0.09356 0.73239 0.0
N1433 N 0.73931 0.07375 0.73304 0.0
C1434 C 0.75803 0.106 0.7555 0.0
C1435 C 0.75761 0.07774 0.77843 0.0
C1436 C 0.74541 0.06582 0.75495 0.0
C1437 C 0.76371 0.09805 0.77922 0.0
H1438 H 0.74176 0.09973 0.71398 0.0
H1439 H 0.74062 0.05019 0.75446 0.0
C1440 C 0.69411 0.02877 0.6116 0.0
N1441 N 0.69505 0.02488 0.54992 0.0
C1442 C 0.69933 0.0155 0.59921 0.0
C1443 C 0.68918 0.03992 0.59261 0.0
C1444 C 0.69975 0.01377 0.56798 0.0
C1445 C 0.68981 0.03779 0.56149 0.0
C1446 C 0.75377 0.05673 0.68239 0.0
C1447 C 0.76717 0.07657 0.67581 0.0
C1448 C 0.75988 0.04598 0.70013 0.0
C1449 C 0.7865 0.08539 0.68733 0.0
C1450 C 0.77936 0.05534 0.71119 0.0
N1451 N 0.79214 0.07469 0.70464 0.0
C1452 C 0.73802 0.08895 0.60524 0.0
C1453 C 0.74397 0.06229 0.59707 0.0
C1454 C 0.75067 0.09958 0.58167 0.0
N1455 N 0.73483 0.07062 0.61229 0.0
C1456 C 0.7568 0.07241 0.57347 0.0
C1457 C 0.76037 0.09137 0.56557 0.0
H1458 H 0.7312 0.09559 0.61839 0.0
H1459 H 0.74157 0.0479 0.60366 0.0
C1460 C 0.68843 0.98336 0.68443 0.0
N1461 N 0.7054 0.99948 0.67493 0.0
C1462 C 0.68598 0.96434 0.68165 0.0
C1463 C 0.71854 0.9789 0.65947 0.0
C1464 C 0.72045 0.99762 0.66303 0.0
C1465 C 0.70099 0.96181 0.66843 0.0
H1466 H 0.67667 0.98525 0.69376 0.0
H1467 H 0.73367 0.01066 0.65523 0.0
O1468 O 0.71373 0.07298 0.67471 0.0
O1469 O 0.69665 0.03256 0.71075 0.0
O1470 O 0.69399 0.03097 0.64214 0.0
O1471 O 0.73466 0.04798 0.67192 0.0
H1472 H 0.70707 0.08784 0.72431 0.0
H1473 H 0.69637 0.08004 0.6288 0.0
H1474 H 0.68781 0.10526 0.72627 0.0
H1475 H 0.67708 0.09739 0.63252 0.0
H1476 H 0.70652 1.00322 0.79198 0.0
H1477 H 0.69524 0.05601 0.75318 0.0
H1478 H 0.70343 0.00602 0.73702 0.0
H1479 H 0.69827 0.0522 0.80782 0.0
H1480 H 0.63754 0.04995 0.73151 0.0
H1481 H 0.62213 0.02902 0.63974 0.0
H1482 H 0.76277 0.12166 0.75494 0.0
H1483 H 0.76164 0.071 0.79629 0.0
H1484 H 0.70312 0.0067 0.61352 0.0
H1485 H 0.68503 0.0502 0.60177 0.0
H1486 H 0.70385 0.00361 0.55809 0.0
H1487 H 0.68614 0.04642 0.54654 0.0
H1488 H 0.7626 0.08512 0.66227 0.0
H1489 H 0.74962 0.03065 0.70562 0.0
H1490 H 0.79701 0.10077 0.68257 0.0
H1491 H 0.78428 0.04724 0.7251 0.0
H1492 H 0.75319 0.11424 0.57658 0.0
H1493 H 0.76379 0.06542 0.56146 0.0
H1494 H 0.6723 0.95174 0.68927 0.0
H1495 H 0.73037 0.97784 0.64852 0.0
Li1496 Li 0.95234 0.66662 0.70062 0.0
Li1497 Li 0.96361 0.64675 0.67551 0.0
Li1498 Li 0.98471 0.68472 0.67583 0.0
Li1499 Li 0.95235 0.66557 0.64655 0.0
C1500 C 0.97936 0.66816 0.74056 0.0
N1501 N 0.9842 0.67295 0.80226 0.0
C1502 C 0.96687 0.65274 0.75963 0.0
C1503 C 0.99424 0.68607 0.75294 0.0
C1504 C 0.96956 0.65545 0.79074 0.0
C1505 C 0.99648 0.68818 0.78417 0.0
C1506 C 0.92473 0.62356 0.67535 0.0
C1507 C 0.90828 0.59137 0.6512 0.0
N1508 N 0.90105 0.58278 0.67825 0.0
C1509 C 0.91704 0.61442 0.70289 0.0
C1510 C 0.92023 0.61196 0.64926 0.0
C1511 C 0.90513 0.59379 0.7039 0.0
C1512 C 0.91639 0.65721 0.72812 0.0
N1513 N 0.93637 0.66783 0.7327 0.0
C1514 C 0.93174 0.67847 0.781 0.0
C1515 C 0.94418 0.67896 0.75807 0.0
C1516 C 0.911 0.66681 0.77753 0.0
C1517 C 0.9034 0.65645 0.75029 0.0
H1518 H 0.91049 0.64917 0.70723 0.0
H1519 H 0.96004 0.68812 0.76075 0.0
C1520 C 0.97429 0.61848 0.65373 0.0
N1521 N 0.96544 0.62293 0.67642 0.0
C1522 C 0.97638 0.60163 0.65538 0.0
C1523 C 0.95988 0.59411 0.70333 0.0
C1524 C 0.95827 0.61109 0.70086 0.0
C1525 C 0.9692 0.58922 0.68057 0.0
H1526 H 0.9801 0.6282 0.63463 0.0
H1527 H 0.95156 0.61495 0.7188 0.0
C1528 C 0.95644 0.70124 0.68647 0.0
N1529 N 0.94389 0.72397 0.71674 0.0
C1530 C 0.93749 0.69839 0.68099 0.0
C1531 C 0.96908 0.7157 0.70715 0.0
C1532 C 0.9314 0.71002 0.69659 0.0
C1533 C 0.96244 0.72704 0.72226 0.0
C1534 C 0.98016 0.666 0.61119 0.0
C1535 C 0.99476 0.68345 0.59794 0.0
C1536 C 0.96786 0.6496 0.59308 0.0
C1537 C 0.99663 0.68428 0.56668 0.0
C1538 C 0.97017 0.65103 0.5619 0.0
N1539 N 0.98438 0.6682 0.54945 0.0
C1540 C 0.02659 0.70665 0.68701 0.0
C1541 C 0.01351 0.72373 0.66007 0.0
C1542 C 0.04588 0.72276 0.68426 0.0
N1543 N 0.01092 0.70737 0.67481 0.0
C1544 C 0.03256 0.73999 0.65621 0.0
C1545 C 0.04922 0.73964 0.66801 0.0
H1546 H 0.02414 0.69341 0.69852 0.0
H1547 H 1.0008 0.72382 0.65027 0.0
C1548 C 0.91851 0.65353 0.60947 0.0
N1549 N 0.93827 0.66674 0.61218 0.0
C1550 C 0.90744 0.6551 0.58589 0.0
C1551 C 0.93727 0.68386 0.5684 0.0
C1552 C 0.94771 0.68183 0.59243 0.0
C1553 C 0.91678 0.67049 0.56498 0.0
H1554 H 0.91121 0.64206 0.62606 0.0
H1555 H 0.9633 0.69248 0.59559 0.0
O1556 O 0.97721 0.66571 0.71 0.0
O1557 O 0.93661 0.64374 0.67393 0.0
O1558 O 0.96245 0.68964 0.67209 0.0
O1559 O 0.97792 0.66498 0.64174 0.0
H1560 H 0.95497 0.63899 0.75062 0.0
H1561 H 1.00384 0.6983 0.73868 0.0
H1562 H 0.95994 0.64366 0.80573 0.0
H1563 H 0.00793 0.70196 0.79402 0.0
H1564 H 0.90475 0.58221 0.63119 0.0
H1565 H 0.92051 0.62311 0.72338 0.0
H1566 H 0.9259 0.61877 0.62773 0.0
H1567 H 0.89921 0.58652 0.72509 0.0
H1568 H 0.93841 0.68672 0.80155 0.0
H1569 H 0.88756 0.64772 0.74615 0.0
H1570 H 0.98375 0.5985 0.63737 0.0
H1571 H 0.95457 0.58536 0.72356 0.0
H1572 H 0.92754 0.68717 0.6651 0.0
H1573 H 0.98375 0.71796 0.71174 0.0
H1574 H 0.91672 0.70791 0.69274 0.0
H1575 H 0.972 0.73822 0.73847 0.0
H1576 H 1.00451 0.69623 0.61161 0.0
H1577 H 0.9566 0.63594 0.60298 0.0
H1578 H 0.00781 0.69772 0.55611 0.0
H1579 H 0.96067 0.63848 0.54761 0.0
H1580 H 0.05804 0.72176 0.69428 0.0
H1581 H 0.03416 0.7523 0.6429 0.0
H1582 H 0.89165 0.64464 0.58451 0.0
H1583 H 0.94523 0.6958 0.55267 0.0
H1584 H 0.15856 0.33411 0.13834 0.0
H1585 H 0.15203 0.34411 0.0447 0.0
H1586 H 0.12636 0.36323 0.11279 0.0
H1587 H 0.15985 0.31271 0.09218 0.0
H1588 H 0.16683 0.32484 0.05693 0.0
H1589 H 0.18312 0.32547 0.13655 0.0
H1590 H 0.24482 0.35671 0.1139 0.0
H1591 H 0.20137 0.3489 0.04716 0.0
C1592 C 0.15391 0.34069 0.12107 0.0
C1593 C 0.14274 0.34962 0.12923 0.0
C1594 C 0.15814 0.33934 0.09061 0.0
C1595 C 0.15021 0.34632 0.06829 0.0
C1596 C 0.13893 0.35512 0.07639 0.0
C1597 C 0.13585 0.35725 0.10677 0.0
C1598 C 0.16808 0.32758 0.08164 0.0
C1599 C 0.1897 0.33722 0.09131 0.0
C1600 C 0.19469 0.3342 0.12063 0.0
C1601 C 0.21456 0.34111 0.12866 0.0
C1602 C 0.22948 0.35164 0.10773 0.0
C1603 C 0.22496 0.35447 0.07838 0.0
C1604 C 0.20501 0.34728 0.07013 0.0
H1605 H 0.68061 0.82584 0.13286 0.0
H1606 H 0.6627 0.80833 0.04058 0.0
H1607 H 0.6459 0.76429 0.10902 0.0
H1608 H 0.69795 0.84868 0.08862 0.0
H1609 H 0.68666 0.84233 0.05222 0.0
H1610 H 0.67702 0.85255 0.13219 0.0
H1611 H 0.65114 0.887 0.10299 0.0
H1612 H 0.66887 0.85844 0.03749 0.0
C1613 C 0.67218 0.81449 0.11618 0.0
C1614 C 0.66236 0.79449 0.12479 0.0
C1615 C 0.67169 0.81977 0.086 0.0
C1616 C 0.66218 0.80459 0.06411 0.0
C1617 C 0.65271 0.78455 0.07252 0.0
C1618 C 0.65249 0.77977 0.10284 0.0
C1619 C 0.68337 0.84134 0.07668 0.0
C1620 C 0.67291 0.85286 0.08405 0.0
C1621 C 0.67131 0.85758 0.1142 0.0
C1622 C 0.66309 0.86955 0.12126 0.0
C1623 C 0.6566 0.87693 0.0979 0.0
C1624 C 0.65876 0.87313 0.06784 0.0
C1625 C 0.66675 0.86095 0.06083 0.0
H1626 H 0.17438 0.81208 0.13871 0.0
H1627 H 0.16877 0.79952 0.04353 0.0
H1628 H 0.11693 0.77673 0.09894 0.0
H1629 H 0.20272 0.81429 0.1061 0.0
H1630 H 0.2009 0.81503 0.06627 0.0
H1631 H 0.20007 0.84218 0.13696 0.0
H1632 H 0.23879 0.89927 0.09956 0.0
H1633 H 0.21894 0.84702 0.04493 0.0
C1634 C 0.16532 0.80634 0.11864 0.0
C1635 C 0.14461 0.79537 0.12159 0.0
C1636 C 0.17425 0.80892 0.09024 0.0
C1637 C 0.16207 0.79898 0.06507 0.0
C1638 C 0.14134 0.78727 0.0681 0.0
C1639 C 0.1328 0.78632 0.09616 0.0
C1640 C 0.19671 0.81941 0.08765 0.0
C1641 C 0.2068 0.84189 0.08992 0.0
C1642 C 0.20745 0.85109 0.11761 0.0
C1643 C 0.21869 0.87179 0.12117 0.0
C1644 C 0.2292 0.88338 0.09656 0.0
C1645 C 0.22951 0.87461 0.06916 0.0
C1646 C 0.21819 0.85385 0.0658 0.0
H1647 H 0.36557 0.19729 0.87126 0.0
H1648 H 0.3777 0.21456 0.96467 0.0
H1649 H 0.34641 0.23538 0.91032 0.0
H1650 H 0.39461 0.19857 0.90075 0.0
H1651 H 0.39464 0.19978 0.94066 0.0
H1652 H 0.36789 0.16826 0.87307 0.0
H1653 H 0.34906 0.11415 0.921 0.0
H1654 H 0.37861 0.16978 0.9685 0.0
C1655 C 0.36372 0.20454 0.89078 0.0
C1656 C 0.35425 0.2158 0.88758 0.0
C1657 C 0.37186 0.20358 0.91869 0.0
C1658 C 0.37058 0.21426 0.94352 0.0
C1659 C 0.36098 0.22539 0.94061 0.0
C1660 C 0.35264 0.22575 0.91283 0.0
C1661 C 0.38468 0.19405 0.9206 0.0
C1662 C 0.37284 0.17156 0.92123 0.0
C1663 C 0.36558 0.16058 0.89418 0.0
C1664 C 0.35724 0.13986 0.89398 0.0
C1665 C 0.35513 0.1301 0.92121 0.0
C1666 C 0.3631 0.14071 0.94801 0.0
C1667 C 0.37174 0.16146 0.94805 0.0
H1668 H 0.85796 0.18003 0.88405 0.0
H1669 H 0.85875 0.19807 0.97626 0.0
H1670 H 0.88569 0.24164 0.90698 0.0
H1671 H 0.85244 0.15726 0.9296 0.0
H1672 H 0.84639 0.16362 0.96502 0.0
H1673 H 0.82919 0.152 0.88369 0.0
H1674 H 0.76766 0.12231 0.90681 0.0
H1675 H 0.81193 0.14948 0.97638 0.0
C1676 C 0.86114 0.19143 0.90068 0.0
C1677 C 0.87141 0.21135 0.89187 0.0
C1678 C 0.85555 0.18634 0.93091 0.0
C1679 C 0.86179 0.20167 0.95267 0.0
C1680 C 0.87261 0.22168 0.94403 0.0
C1681 C 0.87676 0.22624 0.91358 0.0
C1682 C 0.845 0.16473 0.94029 0.0
C1683 C 0.82325 0.15354 0.93091 0.0
C1684 C 0.8179 0.14825 0.90049 0.0
C1685 C 0.79788 0.13747 0.89165 0.0
C1686 C 0.78313 0.13148 0.91343 0.0
C1687 C 0.78804 0.1354 0.94396 0.0
C1688 C 0.80812 0.14665 0.95271 0.0
H1689 H 0.83627 0.63966 0.87107 0.0
H1690 H 0.84527 0.63547 0.96586 0.0
H1691 H 0.8951 0.66499 0.90671 0.0
H1692 H 0.80954 0.61344 0.90642 0.0
H1693 H 0.81237 0.61792 0.94592 0.0
H1694 H 0.80913 0.64109 0.87265 0.0
H1695 H 0.77174 0.66105 0.91017 0.0
H1696 H 0.79466 0.63255 0.96689 0.0
C1697 C 0.84596 0.64383 0.8905 0.0
C1698 C 0.86654 0.65424 0.88606 0.0
C1699 C 0.83801 0.63796 0.91954 0.0
C1700 C 0.85113 0.64127 0.94383 0.0
C1701 C 0.8718 0.65101 0.9393 0.0
C1702 C 0.87927 0.65814 0.91063 0.0
C1703 C 0.81568 0.62544 0.92376 0.0
C1704 C 0.80478 0.637 0.92072 0.0
C1705 C 0.80268 0.64373 0.8923 0.0
C1706 C 0.79127 0.65293 0.88863 0.0
C1707 C 0.78158 0.6551 0.91348 0.0
C1708 C 0.78242 0.64758 0.94164 0.0
C1709 C 0.79427 0.63875 0.94531 0.0
H1710 H 0.82061 0.66132 0.46409 0.0
H1711 H 0.82051 0.68069 0.37333 0.0
H1712 H 0.79184 0.6945 0.44413 0.0
H1713 H 0.8271 0.6456 0.41712 0.0
H1714 H 0.83345 0.65896 0.38272 0.0
H1715 H 0.8497 0.66158 0.46382 0.0
H1716 H 0.91143 0.69583 0.44277 0.0
H1717 H 0.86782 0.6815 0.37297 0.0
C1718 C 0.81738 0.66977 0.44812 0.0
C1719 C 0.80645 0.67861 0.4576 0.0
C1720 C 0.82344 0.67123 0.41795 0.0
C1721 C 0.81711 0.68055 0.39696 0.0
C1722 C 0.80574 0.68904 0.40637 0.0
C1723 C 0.80111 0.68853 0.43684 0.0
C1724 C 0.83446 0.6608 0.40761 0.0
C1725 C 0.85608 0.67145 0.41762 0.0
C1726 C 0.86115 0.67015 0.4477 0.0
C1727 C 0.88111 0.6794 0.45693 0.0
C1728 C 0.89603 0.68958 0.43585 0.0
C1729 C 0.89146 0.69016 0.40552 0.0
C1730 C 0.87143 0.68127 0.39647 0.0
H1731 H 0.34838 0.16391 0.46822 0.0
H1732 H 0.33999 0.14499 0.37528 0.0
H1733 H 0.32037 0.10214 0.44597 0.0
H1734 H 0.3703 0.1856 0.42172 0.0
H1735 H 0.35819 0.17947 0.38605 0.0
H1736 H 0.35614 0.19572 0.46517 0.0
H1737 H 0.32504 0.22561 0.43852 0.0
H1738 H 0.33575 0.19125 0.37338 0.0
C1739 C 0.34205 0.15232 0.45131 0.0
C1740 C 0.33314 0.1325 0.46049 0.0
C1741 C 0.34376 0.15708 0.42049 0.0
C1742 C 0.33734 0.14158 0.39898 0.0
C1743 C 0.32892 0.12177 0.40825 0.0
C1744 C 0.3262 0.11737 0.43886 0.0
C1745 C 0.35542 0.17857 0.41067 0.0
C1746 C 0.34566 0.19061 0.41889 0.0
C1747 C 0.34774 0.19842 0.44828 0.0
C1748 C 0.34031 0.21104 0.45534 0.0
C1749 C 0.33047 0.21556 0.43316 0.0
C1750 C 0.32895 0.20874 0.40362 0.0
C1751 C 0.33644 0.19613 0.39645 0.0
H1752 H 0.83668 0.14049 0.47531 0.0
H1753 H 0.83032 0.12738 0.38023 0.0
H1754 H 0.77885 0.10554 0.43615 0.0
H1755 H 0.86453 0.14181 0.44272 0.0
H1756 H 0.8625 0.14197 0.40286 0.0
H1757 H 0.86345 0.17059 0.47273 0.0
H1758 H 0.90211 0.2268 0.43258 0.0
H1759 H 0.88024 0.17354 0.37983 0.0
C1760 C 0.82744 0.1346 0.45543 0.0
C1761 C 0.80671 0.12383 0.45867 0.0
C1762 C 0.83619 0.13686 0.4269 0.0
C1763 C 0.8238 0.12704 0.40186 0.0
C1764 C 0.80307 0.11576 0.40511 0.0
C1765 C 0.79475 0.11491 0.43331 0.0
C1766 C 0.85861 0.14686 0.42404 0.0
C1767 C 0.86915 0.16938 0.42545 0.0
C1768 C 0.87057 0.17913 0.45294 0.0
C1769 C 0.88219 0.19987 0.45559 0.0
C1770 C 0.89227 0.21091 0.43033 0.0
C1771 C 0.89177 0.20158 0.40308 0.0
C1772 C 0.88012 0.1808 0.40061 0.0
H1773 H 0.03865 0.53677 0.20001 0.0
H1774 H 0.04605 0.55089 0.29474 0.0
H1775 H 0.01539 0.57146 0.23799 0.0
H1776 H 0.06535 0.53577 0.23306 0.0
H1777 H 0.06307 0.53555 0.2729 0.0
H1778 H 0.03645 0.50705 0.2021 0.0
H1779 H 0.01603 0.45068 0.24365 0.0
H1780 H 0.04818 0.50402 0.2962 0.0
C1781 C 0.03532 0.54272 0.21973 0.0
C1782 C 0.02525 0.55332 0.2161 0.0
C1783 C 0.042 0.54079 0.24835 0.0
C1784 C 0.03962 0.55086 0.27307 0.0
C1785 C 0.02993 0.56188 0.26938 0.0
C1786 C 0.02213 0.5623 0.24115 0.0
C1787 C 0.05434 0.53076 0.25155 0.0
C1788 C 0.0421 0.50826 0.25002 0.0
C1789 C 0.0342 0.49853 0.22228 0.0
C1790 C 0.02443 0.47774 0.22 0.0
C1791 C 0.02253 0.46665 0.24568 0.0
C1792 C 0.0313 0.47599 0.27299 0.0
C1793 C 0.04087 0.49679 0.27528 0.0
H1794 H 0.52273 0.51261 0.21732 0.0
H1795 H 0.52812 0.53437 0.30833 0.0
H1796 H 0.55199 0.57507 0.23478 0.0
H1797 H 0.52157 0.49274 0.26618 0.0
H1798 H 0.51473 0.49969 0.3003 0.0
H1799 H 0.49794 0.4807 0.22139 0.0
H1800 H 0.4363 0.45107 0.24459 0.0
H1801 H 0.48014 0.48764 0.3104 0.0
C1802 C 0.52678 0.52469 0.23309 0.0
C1803 C 0.5369 0.54422 0.22253 0.0
C1804 C 0.52272 0.52085 0.26395 0.0
C1805 C 0.53001 0.53703 0.28436 0.0
C1806 C 0.54048 0.55668 0.27391 0.0
C1807 C 0.54325 0.56 0.24293 0.0
C1808 C 0.51325 0.49974 0.27541 0.0
C1809 C 0.49158 0.48698 0.26624 0.0
C1810 C 0.48645 0.47823 0.23726 0.0
C1811 C 0.46652 0.46514 0.22943 0.0
C1812 C 0.45172 0.46123 0.25046 0.0
C1813 C 0.45645 0.46899 0.27965 0.0
C1814 C 0.47641 0.48198 0.28756 0.0
H1815 H 0.50555 0.97339 0.20471 0.0
H1816 H 0.50917 0.96098 0.29806 0.0
H1817 H 0.56223 0.99315 0.24627 0.0
H1818 H 0.4769 0.94471 0.23354 0.0
H1819 H 0.47766 0.94511 0.27354 0.0
H1820 H 0.47778 0.9747 0.20628 0.0
H1821 H 0.43921 0.99175 0.24851 0.0
H1822 H 0.46024 0.9588 0.29831 0.0
C1823 C 0.51425 0.97547 0.22483 0.0
C1824 C 0.53504 0.98527 0.22271 0.0
C1825 C 0.5047 0.96737 0.25229 0.0
C1826 C 0.51632 0.96838 0.27741 0.0
C1827 C 0.53711 0.97778 0.27532 0.0
C1828 C 0.54629 0.98675 0.24828 0.0
C1829 C 0.48223 0.95482 0.25345 0.0
C1830 C 0.47183 0.96691 0.25318 0.0
C1831 C 0.47069 0.97586 0.22639 0.0
C1832 C 0.45922 0.98515 0.2247 0.0
C1833 C 0.44902 0.98566 0.25021 0.0
C1834 C 0.44911 0.97602 0.27665 0.0
C1835 C 0.4607 0.96683 0.27822 0.0
H1836 H 0.49148 0.00381 0.79847 0.0
H1837 H 0.47717 0.00377 0.70454 0.0
H1838 H 0.45294 0.02553 0.77073 0.0
H1839 H 0.48894 0.97752 0.75443 0.0
H1840 H 0.49547 0.98832 0.71829 0.0
H1841 H 0.51287 0.99057 0.79727 0.0
H1842 H 0.57425 0.02203 0.77246 0.0
H1843 H 0.52969 0.01337 0.70728 0.0
C1844 C 0.48464 0.00781 0.7807 0.0
C1845 C 0.47268 0.016 0.78826 0.0
C1846 C 0.48689 0.00382 0.75041 0.0
C1847 C 0.47666 0.00786 0.72771 0.0
C1848 C 0.46463 0.01591 0.7352 0.0
C1849 C 0.46307 0.02025 0.76521 0.0
C1850 C 0.497 0.992 0.74272 0.0
C1851 C 0.51874 1.00202 0.75183 0.0
C1852 C 0.52421 0.99925 0.78099 0.0
C1853 C 0.54422 0.00632 0.78834 0.0
C1854 C 0.55879 0.01677 0.76688 0.0
C1855 C 0.55376 0.01933 0.73771 0.0
C1856 C 0.5337 0.01199 0.73014 0.0
H1857 H 0.01498 0.49464 0.79841 0.0
H1858 H 0.9968 0.47283 0.70771 0.0
H1859 H 0.98047 0.43217 0.78125 0.0
H1860 H 0.03288 0.51458 0.7505 0.0
H1861 H 0.01976 0.50727 0.7156 0.0
H1862 H 0.01966 0.52605 0.79383 0.0
H1863 H 0.989 0.55617 0.76562 0.0
H1864 H 0.9972 0.51891 0.70279 0.0
C1865 C 0.00654 0.48254 0.78279 0.0
C1866 C 0.99693 0.46301 0.79343 0.0
C1867 C 0.00593 0.48635 0.75196 0.0
C1868 C 0.99637 0.47018 0.73166 0.0
C1869 C 0.98702 0.45055 0.74216 0.0
C1870 C 0.98692 0.44725 0.77311 0.0
C1871 C 0.01774 0.50737 0.74033 0.0
C1872 C 0.00845 0.51994 0.74795 0.0
C1873 C 0.01123 0.52863 0.77683 0.0
C1874 C 1.00435 0.54182 0.78316 0.0
C1875 C 0.9942 0.54584 0.76085 0.0
C1876 C 0.99164 0.53778 0.73195 0.0
C1877 C 0.99872 0.52475 0.72542 0.0
H1878 H 0.49974 0.47372 0.80734 0.0
H1879 H 0.49939 0.46485 0.71168 0.0
H1880 H 0.4445 0.44282 0.75885 0.0
H1881 H 0.52914 0.47686 0.7799 0.0
H1882 H 0.52958 0.47684 0.7399 0.0
H1883 H 0.52808 0.50606 0.80692 0.0
H1884 H 0.56956 0.56171 0.767 0.0
H1885 H 0.54733 0.50796 0.71566 0.0
C1886 C 0.49168 0.46916 0.78619 0.0
C1887 C 0.47082 0.458 0.78632 0.0
C1888 C 0.5022 0.47264 0.75903 0.0
C1889 C 0.49152 0.46408 0.73213 0.0
C1890 C 0.47066 0.45319 0.73212 0.0
C1891 C 0.46059 0.45153 0.75885 0.0
C1892 C 0.5246 0.482 0.75965 0.0
C1893 C 0.53539 0.50448 0.76059 0.0
C1894 C 0.53619 0.5145 0.78752 0.0
C1895 C 0.5484 0.53524 0.79008 0.0
C1896 C 0.55927 0.54589 0.76497 0.0
C1897 C 0.55894 0.53623 0.73819 0.0
C1898 C 0.54697 0.51551 0.73598 0.0
H1899 H 0.69854 0.86254 0.54636 0.0
H1900 H 0.70776 0.88057 0.63962 0.0
H1901 H 0.67795 0.90054 0.58001 0.0
H1902 H 0.72736 0.86497 0.58034 0.0
H1903 H 0.72415 0.86423 0.61991 0.0
H1904 H 0.70262 0.83586 0.54746 0.0
H1905 H 0.68136 0.77962 0.58991 0.0
H1906 H 0.70763 0.83278 0.64363 0.0
C1907 C 0.69592 0.86967 0.56528 0.0
C1908 C 0.68641 0.88069 0.5603 0.0
C1909 C 0.70312 0.86891 0.59409 0.0
C1910 C 0.70122 0.87999 0.61781 0.0
C1911 C 0.6919 0.89128 0.61293 0.0
C1912 C 0.68412 0.891 0.58435 0.0
C1913 C 0.71588 0.85939 0.59817 0.0
C1914 C 0.70439 0.83688 0.59615 0.0
C1915 C 0.69899 0.82723 0.56782 0.0
C1916 C 0.69082 0.80658 0.5655 0.0
C1917 C 0.68725 0.79551 0.59174 0.0
C1918 C 0.69365 0.8048 0.61981 0.0
C1919 C 0.70198 0.82549 0.62208 0.0
H1920 H 0.18922 0.84469 0.54803 0.0
H1921 H 0.1889 0.8634 0.63944 0.0
H1922 H 0.21377 0.90635 0.56898 0.0
H1923 H 0.18617 0.82358 0.59427 0.0
H1924 H 0.17992 0.82971 0.62962 0.0
H1925 H 0.16137 0.81428 0.54974 0.0
H1926 H 0.10091 0.77823 0.57759 0.0
H1927 H 0.14569 0.81357 0.64293 0.0
C1928 C 0.19168 0.85616 0.56419 0.0
C1929 C 0.20114 0.87598 0.55484 0.0
C1930 C 0.1863 0.85128 0.59453 0.0
C1931 C 0.19165 0.86677 0.61574 0.0
C1932 C 0.20147 0.88668 0.60653 0.0
C1933 C 0.20547 0.89099 0.57599 0.0
C1934 C 0.17775 0.83003 0.60493 0.0
C1935 C 0.15595 0.81681 0.59686 0.0
C1936 C 0.15026 0.80978 0.56706 0.0
C1937 C 0.13045 0.7957 0.56001 0.0
C1938 C 0.11625 0.78912 0.58277 0.0
C1939 C 0.12162 0.79525 0.61257 0.0
C1940 C 0.14144 0.80926 0.61967 0.0
H1941 H 0.17103 0.30791 0.53677 0.0
H1942 H 0.17235 0.29221 0.62922 0.0
H1943 H 0.22659 0.32553 0.58092 0.0
H1944 H 0.14172 0.27774 0.56323 0.0
H1945 H 0.14134 0.27753 0.60322 0.0
H1946 H 0.14177 0.30661 0.53537 0.0
H1947 H 0.10449 0.32549 0.57723 0.0
H1948 H 0.12515 0.29265 0.62815 0.0
C1949 C 0.17925 0.30908 0.55704 0.0
C1950 C 0.20009 0.3187 0.55594 0.0
C1951 C 0.16901 0.30002 0.58369 0.0
C1952 C 0.17998 0.30017 0.60917 0.0
C1953 C 0.20079 0.3097 0.60821 0.0
C1954 C 0.21062 0.31923 0.5819 0.0
C1955 C 0.14652 0.28755 0.58348 0.0
C1956 C 0.13626 0.29976 0.58264 0.0
C1957 C 0.135 0.30831 0.55547 0.0
C1958 C 0.12389 0.31797 0.55353 0.0
C1959 C 0.11406 0.31912 0.57908 0.0
C1960 C 0.1142 0.30983 0.60584 0.0
C1961 C 0.12552 0.30036 0.60774 0.0
C1962 C 0.03056 0.46114 0.14301 0.0
C1963 C 0.01275 0.44297 0.13969 0.0
H1964 H 0.04801 0.48669 0.17087 0.0
C1965 C 0.99771 0.43774 0.16103 0.0
H1966 H 0.0423 0.46567 0.12665 0.0
C1967 C 1.00096 0.44981 0.18627 0.0
C1968 C 0.01921 0.46743 0.19043 0.0
H1969 H 0.98385 0.42381 0.15906 0.0
H1970 H 0.98957 0.44493 0.20326 0.0
C1971 C 0.03373 0.47331 0.16807 0.0
C1972 C 0.5499 0.56996 0.14773 0.0
C1973 C 0.56412 0.56533 0.1373 0.0
H1974 H 0.5299 0.56666 0.18317 0.0
C1975 C 0.56702 0.55133 0.15295 0.0
H1976 H 0.54747 0.5808 0.13621 0.0
C1977 C 0.55671 0.543 0.17951 0.0
C1978 C 0.54358 0.54877 0.19104 0.0
H1979 H 0.5778 0.54741 0.14523 0.0
H1980 H 0.56001 0.53311 0.19209 0.0
C1981 C 0.53984 0.56188 0.17452 0.0
C1982 C 0.44086 0.98198 0.14503 0.0
C1983 C 0.43869 0.99883 0.14366 0.0
H1984 H 0.44932 0.96459 0.17165 0.0
C1985 C 0.44584 0.01251 0.16769 0.0
H1986 H 0.4358 0.97135 0.12663 0.0
C1987 C 0.45381 0.00875 0.19336 0.0
C1988 C 0.45488 0.9913 0.19544 0.0
H1989 H 0.44435 0.02561 0.1673 0.0
H1990 H 0.45838 0.01908 0.21214 0.0
C1991 C 0.4489 0.97827 0.17063 0.0
C1992 C 0.45255 1.0013 0.86704 0.0
C1993 C 0.44833 0.01639 0.87419 0.0
H1994 H 0.46365 0.9893 0.83395 0.0
C1995 C 0.45514 0.03283 0.85526 0.0
H1996 H 0.44745 0.98849 0.88142 0.0
C1997 C 0.46486 0.03358 0.82861 0.0
C1998 C 0.46753 0.01766 0.81993 0.0
H1999 H 0.45234 0.0448 0.86062 0.0
H2000 H 0.4693 0.04614 0.81392 0.0
C2001 C 0.46199 1.00187 0.84001 0.0
C2002 C 0.98462 0.43678 0.86783 0.0
C2003 C 1.00355 0.44129 0.87812 0.0
H2004 H 0.96773 0.44043 0.8328 0.0
C2005 C 0.02038 0.45546 0.8626 0.0
H2006 H 0.97137 0.42584 0.87919 0.0
C2007 C 0.01827 0.46401 0.83627 0.0
C2008 C 0.99929 0.45834 0.82485 0.0
H2009 H 0.03515 0.45935 0.87022 0.0
H2010 H 0.03141 0.47398 0.82374 0.0
C2011 C 0.98251 0.44512 0.84133 0.0
C2012 C 0.56487 0.57693 0.84716 0.0
C2013 C 0.56908 0.56881 0.87227 0.0
H2014 H 0.5539 0.57231 0.80193 0.0
C2015 C 0.56364 0.54867 0.87168 0.0
H2016 H 0.56863 0.59234 0.84727 0.0
C2017 C 0.55554 0.53725 0.84557 0.0
C2018 C 0.5525 0.54572 0.81965 0.0
H2019 H 0.56678 0.54207 0.89078 0.0
H2020 H 0.55292 0.52223 0.84515 0.0
C2021 C 0.55645 0.56544 0.82125 0.0
C2022 C 1.00429 0.55354 0.86597 0.0
C2023 C 0.01164 0.57416 0.86518 0.0
H2024 H 0.9965 0.52702 0.84046 0.0
C2025 C 0.01845 0.58408 0.83775 0.0
H2026 H 0.99921 0.54551 0.88686 0.0
C2027 C 0.01707 0.57358 0.81154 0.0
C2028 C 0.00879 0.55288 0.81201 0.0
H2029 H 0.02401 0.59987 0.83615 0.0
H2030 H 0.02181 0.58158 0.79055 0.0
C2031 C 1.00295 0.54298 0.83957 0.0
C2032 C 0.45289 0.45222 0.86741 0.0
C2033 C 0.43795 0.43206 0.86751 0.0
H2034 H 0.47514 0.47641 0.8416 0.0
C2035 C 0.43391 0.42094 0.84085 0.0
H2036 H 0.45647 0.46116 0.8877 0.0
C2037 C 0.4447 0.42948 0.815 0.0
C2038 C 0.45961 0.4496 0.81459 0.0
H2039 H 0.42234 0.4055 0.83986 0.0
H2040 H 0.44145 0.42008 0.79529 0.0
C2041 C 0.4637 0.46091 0.84116 0.0
C2042 C 0.57201 0.99173 0.84227 0.0
C2043 C 0.56928 0.99888 0.86981 0.0
H2044 H 0.5657 0.98805 0.79512 0.0
C2045 C 0.55591 0.00607 0.87115 0.0
H2046 H 0.58186 0.9857 0.84067 0.0
C2047 C 0.54655 0.00739 0.84489 0.0
C2048 C 0.55047 1.00148 0.81708 0.0
H2049 H 0.55351 0.01165 0.89214 0.0
H2050 H 0.53722 0.01402 0.84603 0.0
C2051 C 0.56268 0.99298 0.81625 0.0
C2052 C 0.57468 0.01332 0.16464 0.0
C2053 C 0.56835 0.99949 0.1408 0.0
H2054 H 0.56885 0.01987 0.20903 0.0
C2055 C 0.54973 0.98206 0.14281 0.0
H2056 H 0.58874 0.02707 0.1636 0.0
C2057 C 0.53826 0.97805 0.1687 0.0
C2058 C 0.54516 0.99135 0.19321 0.0
H2059 H 0.54445 0.97096 0.12507 0.0
H2060 H 0.52456 0.96398 0.17021 0.0
C2061 C 0.56324 0.00927 0.19057 0.0
C2062 C 0.03318 0.57689 0.13992 0.0
C2063 C 0.01448 0.57482 0.13401 0.0
H2064 H 0.05105 0.57106 0.17037 0.0
C2065 C 0.99867 0.56338 0.15341 0.0
H2066 H 0.04556 0.58552 0.12513 0.0
C2067 C 1.00184 0.55523 0.17934 0.0
C2068 C 0.02077 0.55806 0.18593 0.0
H2069 H 0.98413 0.56162 0.14936 0.0
H2070 H 0.98973 0.54742 0.19491 0.0
C2071 C 0.03626 0.56844 0.16554 0.0
C2072 C 0.43842 0.42362 0.1733 0.0
C2073 C 0.44419 0.43352 0.14566 0.0
H2074 H 0.44145 0.4257 0.22107 0.0
C2075 C 0.45922 0.45367 0.14569 0.0
H2076 H 0.42681 0.40823 0.17446 0.0
C2077 C 0.46738 0.46389 0.17282 0.0
C2078 C 0.46065 0.45413 0.20036 0.0
H2079 H 0.46436 0.46169 0.12481 0.0
H2080 H 0.47824 0.47958 0.17231 0.0
C2081 C 0.44665 0.43374 0.20018 0.0
C2082 C 0.67664 0.78823 0.48467 0.0
C2083 C 0.68433 0.77529 0.48216 0.0
H2084 H 0.67282 0.80857 0.51305 0.0
C2085 C 0.69466 0.77348 0.50676 0.0
H2086 H 0.6688 0.79012 0.46597 0.0
C2087 C 0.69706 0.78406 0.53325 0.0
C2088 C 0.68903 0.79662 0.53614 0.0
H2089 H 0.70058 0.76352 0.50586 0.0
H2090 H 0.70513 0.78225 0.55173 0.0
C2091 C 0.67908 0.79891 0.51143 0.0
C2092 C 0.23488 0.88684 0.48844 0.0
C2093 C 0.2323 0.90123 0.47325 0.0
H2094 H 0.22659 0.86718 0.52604 0.0
C2095 C 0.21711 0.90478 0.48271 0.0
H2096 H 0.24647 0.88377 0.48193 0.0
C2097 C 0.20584 0.89533 0.50803 0.0
C2098 C 0.2093 0.88192 0.52422 0.0
H2099 H 0.2143 0.91533 0.4711 0.0
H2100 H 0.19501 0.89918 0.5158 0.0
C2101 C 0.22343 0.87723 0.51363 0.0
C2102 C 0.10452 0.31422 0.47437 0.0
C2103 C 0.10282 0.33135 0.47281 0.0
H2104 H 0.1127 0.29665 0.50114 0.0
C2105 C 0.11081 0.34539 0.49634 0.0
H2106 H 0.09838 0.30303 0.45677 0.0
C2107 C 0.11906 0.34173 0.52175 0.0
C2108 C 0.11954 0.32398 0.52416 0.0
H2109 H 0.11014 0.35894 0.49552 0.0
H2110 H 0.1243 0.35239 0.54013 0.0
C2111 C 0.11281 0.31059 0.49978 0.0
C2112 C 0.12488 0.36338 0.19901 0.0
C2113 C 0.11275 0.34467 0.21191 0.0
H2114 H 0.14434 0.37968 0.163 0.0
C2115 C 0.11326 0.32815 0.19997 0.0
H2116 H 0.12527 0.3765 0.2081 0.0
C2117 C 0.1245 0.33007 0.17439 0.0
C2118 C 0.13537 0.34853 0.16025 0.0
H2119 H 0.10406 0.31351 0.20925 0.0
H2120 H 0.12354 0.31688 0.16447 0.0
C2121 C 0.136 0.36527 0.17342 0.0
C2122 C 0.68428 0.7876 0.19687 0.0
C2123 C 0.66784 0.77058 0.20851 0.0
H2124 H 0.69546 0.80864 0.16097 0.0
C2125 C 0.64917 0.76339 0.19481 0.0
H2126 H 0.69884 0.79345 0.20709 0.0
C2127 C 0.64716 0.77223 0.16888 0.0
C2128 C 0.66384 0.78831 0.1558 0.0
H2129 H 0.63618 0.75055 0.20372 0.0
H2130 H 0.63267 0.76591 0.15824 0.0
C2131 C 0.68232 0.79637 0.17062 0.0
C2132 C 0.23055 0.91068 0.18164 0.0
C2133 C 0.23635 0.90303 0.20569 0.0
H2134 H 0.21978 0.9065 0.13624 0.0
C2135 C 0.23377 0.88388 0.20295 0.0
H2136 H 0.23203 0.92525 0.18328 0.0
C2137 C 0.22677 0.87315 0.17606 0.0
C2138 C 0.22214 0.88132 0.15134 0.0
H2139 H 0.23828 0.87763 0.22093 0.0
H2140 H 0.2262 0.85901 0.17408 0.0
C2141 C 0.22348 0.89992 0.15477 0.0
C2142 C 0.68194 0.89451 0.19708 0.0
C2143 C 0.6662 0.89723 0.20622 0.0
H2144 H 0.69331 0.88352 0.16282 0.0
C2145 C 0.64849 0.88837 0.18933 0.0
H2146 H 0.69577 0.9012 0.2097 0.0
C2147 C 0.64699 0.87805 0.1628 0.0
C2148 C 0.66322 0.87653 0.15243 0.0
H2149 H 0.63597 0.88987 0.19622 0.0
H2150 H 0.63338 0.87196 0.1497 0.0
C2151 C 0.68049 0.88428 0.17035 0.0
C2152 C 0.10635 0.78359 0.18185 0.0
C2153 C 0.11127 0.77305 0.20237 0.0
H2154 H 0.11334 0.79919 0.14007 0.0
C2155 C 0.12885 0.77242 0.19818 0.0
H2156 H 0.09288 0.78428 0.18449 0.0
C2157 C 0.14066 0.78116 0.173 0.0
C2158 C 0.13499 0.7905 0.15142 0.0
H2159 H 0.13311 0.7646 0.2139 0.0
H2160 H 0.15353 0.77951 0.16945 0.0
C2161 C 0.11804 0.79212 0.15649 0.0
C2162 C 0.24131 0.3259 0.18344 0.0
C2163 C 0.2387 0.33341 0.21071 0.0
H2164 H 0.23515 0.32202 0.13625 0.0
C2165 C 0.22561 0.34095 0.21164 0.0
H2166 H 0.25096 0.31962 0.1822 0.0
C2167 C 0.21647 0.3423 0.18517 0.0
C2168 C 0.22031 0.33605 0.15761 0.0
H2169 H 0.22333 0.34681 0.23244 0.0
H2170 H 0.20741 0.34925 0.18594 0.0
C2171 C 0.23218 0.32717 0.15722 0.0
C2172 C 0.24267 0.34644 0.50229 0.0
C2173 C 0.23586 0.33404 0.47685 0.0
H2174 H 0.2362 0.35201 0.54673 0.0
C2175 C 0.21614 0.31838 0.47572 0.0
H2176 H 0.2578 0.35872 0.50343 0.0
C2177 C 0.20387 0.31418 0.50075 0.0
C2178 C 0.21109 0.32577 0.52715 0.0
H2179 H 0.21065 0.30861 0.45626 0.0
H2180 H 0.18926 0.30107 0.50007 0.0
C2181 C 0.23031 0.34252 0.52703 0.0
C2182 C 0.69392 0.89958 0.48082 0.0
C2183 C 0.67697 0.90137 0.47637 0.0
H2184 H 0.71006 0.89127 0.51083 0.0
C2185 C 0.66173 0.89321 0.49774 0.0
H2186 H 0.70574 0.90535 0.46447 0.0
C2187 C 0.66407 0.88485 0.52403 0.0
C2188 C 0.6817 0.88448 0.52954 0.0
H2189 H 0.6485 0.89435 0.49505 0.0
H2190 H 0.65257 0.87968 0.54089 0.0
C2191 C 0.69626 0.89121 0.50714 0.0
C2192 C 0.12217 0.7887 0.47546 0.0
C2193 C 0.10845 0.76818 0.47332 0.0
H2194 H 0.14 0.8136 0.50461 0.0
C2195 C 0.10363 0.75679 0.49959 0.0
H2196 H 0.12654 0.79789 0.45563 0.0
C2197 C 0.11162 0.7657 0.52729 0.0
C2198 C 0.1244 0.78632 0.52972 0.0
H2199 H 0.09301 0.74104 0.49911 0.0
H2200 H 0.1073 0.75644 0.54708 0.0
C2201 C 0.13008 0.79769 0.50343 0.0
C2202 C 0.35781 0.10393 0.83703 0.0
C2203 C 0.34673 0.10512 0.81298 0.0
H2204 H 0.37012 0.11423 0.88076 0.0
C2205 C 0.33937 0.11834 0.81533 0.0
H2206 H 0.36353 0.0938 0.83621 0.0
C2207 C 0.34298 0.13002 0.84134 0.0
C2208 C 0.35381 0.12848 0.86549 0.0
H2209 H 0.33096 0.11975 0.79701 0.0
H2210 H 0.33706 0.13996 0.84279 0.0
C2211 C 0.36139 0.1155 0.86279 0.0
C2212 C 0.90092 0.21955 0.82089 0.0
C2213 C 0.89979 0.23544 0.80805 0.0
H2214 H 0.89252 0.19921 0.85764 0.0
C2215 C 0.88687 0.24115 0.82067 0.0
H2216 H 0.91077 0.21483 0.81171 0.0
C2217 C 0.87643 0.23218 0.84676 0.0
C2218 C 0.87864 0.21728 0.8608 0.0
H2219 H 0.88529 0.253 0.81087 0.0
H2220 H 0.8673 0.23753 0.8568 0.0
C2221 C 0.89041 0.21053 0.84708 0.0
C2222 C 0.7717 0.64639 0.80908 0.0
C2223 C 0.77025 0.66356 0.80558 0.0
H2224 H 0.77978 0.62967 0.83808 0.0
C2225 C 0.77839 0.67842 0.82792 0.0
H2226 H 0.76588 0.63484 0.79199 0.0
C2227 C 0.78658 0.67556 0.85411 0.0
C2228 C 0.78683 0.65782 0.85846 0.0
H2229 H 0.77747 0.69179 0.82594 0.0
H2230 H 0.79188 0.68684 0.87162 0.0
C2231 C 0.77993 0.64355 0.83526 0.0
C2232 C 0.79269 0.69042 0.53275 0.0
C2233 C 0.77602 0.6721 0.53995 0.0
H2234 H 0.81559 0.70678 0.50065 0.0
C2235 C 0.77121 0.6554 0.52188 0.0
H2236 H 0.79663 0.70354 0.54621 0.0
C2237 C 0.78233 0.65719 0.49627 0.0
C2238 C 0.79823 0.67576 0.48816 0.0
H2239 H 0.75849 0.6411 0.5271 0.0
H2240 H 0.77777 0.64436 0.4818 0.0
C2241 C 0.80357 0.69227 0.50686 0.0
C2242 C 0.35329 0.12306 0.53144 0.0
C2243 C 0.33575 0.10891 0.54542 0.0
H2244 H 0.36609 0.14229 0.49371 0.0
C2245 C 0.31734 0.10495 0.53356 0.0
H2246 H 0.36764 0.12639 0.54028 0.0
C2247 C 0.31646 0.11387 0.50687 0.0
C2248 C 0.33398 0.12723 0.49206 0.0
H2249 H 0.30362 0.09399 0.54385 0.0
H2250 H 0.30211 0.10957 0.49691 0.0
C2251 C 0.35241 0.13229 0.50507 0.0
C2252 C 0.89629 0.24034 0.51409 0.0
C2253 C 0.90266 0.23317 0.53807 0.0
H2254 H 0.8841 0.23509 0.4695 0.0
C2255 C 0.89969 0.21383 0.53615 0.0
H2256 H 0.89803 0.25503 0.51515 0.0
C2257 C 0.89172 0.20241 0.51004 0.0
C2258 C 0.8865 0.21007 0.48532 0.0
H2259 H 0.90458 0.20793 0.55416 0.0
H2260 H 0.89085 0.18811 0.50856 0.0
C2261 C 0.88824 0.22889 0.48804 0.0
C2262 C 0.35264 0.25176 0.51181 0.0
C2263 C 0.34482 0.24106 0.53835 0.0
H2264 H 0.35779 0.25056 0.46493 0.0
C2265 C 0.33795 0.22055 0.5384 0.0
H2266 H 0.35843 0.26764 0.51131 0.0
C2267 C 0.33759 0.21071 0.51167 0.0
C2268 C 0.34414 0.22132 0.48476 0.0
H2269 H 0.3319 0.212 0.55865 0.0
H2270 H 0.33118 0.19474 0.51169 0.0
C2271 C 0.35235 0.24201 0.48535 0.0
C2272 C 0.7684 0.11198 0.51899 0.0
C2273 C 0.77385 0.10228 0.54031 0.0
H2274 H 0.77482 0.12679 0.47659 0.0
C2275 C 0.79173 0.10218 0.53638 0.0
H2276 H 0.7547 0.11229 0.52129 0.0
C2277 C 0.80332 0.1106 0.51084 0.0
C2278 C 0.79717 0.11917 0.48864 0.0
H2279 H 0.79651 0.0951 0.55268 0.0
H2280 H 0.81644 0.10935 0.50763 0.0
C2281 C 0.7799 0.12028 0.49339 0.0
C2282 C 0.91005 0.69159 0.52968 0.0
C2283 C 0.90539 0.67264 0.53967 0.0
H2284 H 0.90568 0.70853 0.49582 0.0
C2285 C 0.89047 0.65586 0.52431 0.0
H2286 H 0.92104 0.70484 0.54139 0.0
C2287 C 0.88133 0.65803 0.49855 0.0
C2288 C 0.88704 0.677 0.4876 0.0
H2289 H 0.88656 0.64103 0.53121 0.0
H2290 H 0.87074 0.64491 0.48615 0.0
C2291 C 0.90107 0.69374 0.50384 0.0
C2292 C 0.90232 0.68039 0.8229 0.0
C2293 C 0.89754 0.66456 0.80282 0.0
H2294 H 0.89597 0.68955 0.86494 0.0
C2295 C 0.88059 0.64604 0.80851 0.0
H2296 H 0.91494 0.69497 0.81892 0.0
C2297 C 0.86947 0.64311 0.83454 0.0
C2298 C 0.87517 0.65857 0.85554 0.0
H2299 H 0.87653 0.63342 0.79383 0.0
H2300 H 0.85725 0.62839 0.83922 0.0
C2301 C 0.89134 0.67738 0.84907 0.0
C2302 C 0.32925 0.23109 0.82906 0.0
C2303 C 0.34286 0.23697 0.80546 0.0
H2304 H 0.3215 0.21858 0.87295 0.0
C2305 C 0.35849 0.2329 0.80699 0.0
H2306 H 0.31695 0.23388 0.82811 0.0
C2307 C 0.36141 0.22454 0.83293 0.0
C2308 C 0.34857 0.2199 0.85757 0.0
H2309 H 0.36916 0.23736 0.78896 0.0
H2310 H 0.37448 0.22302 0.83442 0.0
C2311 C 0.33191 0.22238 0.85468 0.0
C2312 C 0.79025 0.10895 0.81913 0.0
C2313 C 0.7747 0.1105 0.80565 0.0
H2314 H 0.81016 0.11675 0.85685 0.0
C2315 C 0.76862 0.12298 0.81896 0.0
H2316 H 0.79536 0.09958 0.8092 0.0
C2317 C 0.77706 0.13275 0.84609 0.0
C2318 C 0.7919 0.13041 0.86031 0.0
H2319 H 0.75658 0.12437 0.80926 0.0
H2320 H 0.77143 0.1415 0.85663 0.0
C2321 C 0.79887 0.11892 0.84616 0.0
C2322 C 0.11625 0.38148 0.03633 0.0
C2323 C 0.09757 0.36537 0.02786 0.0
H2324 H 0.14426 0.39085 0.05829 0.0
C2325 C 0.09457 0.34602 0.03067 0.0
H2326 H 0.11945 0.39662 0.03383 0.0
C2327 C 0.10919 0.34286 0.04351 0.0
C2328 C 0.12704 0.35891 0.05421 0.0
H2329 H 0.08043 0.33313 0.02496 0.0
H2330 H 0.10587 0.32778 0.0474 0.0
C2331 C 0.13069 0.37827 0.04979 0.0
C2332 C 0.65483 0.74809 0.01973 0.0
C2333 C 0.63662 0.73094 0.02608 0.0
H2334 H 0.67406 0.77909 0.02915 0.0
C2335 C 0.62212 0.73302 0.04177 0.0
H2336 H 0.66633 0.74701 0.00774 0.0
C2337 C 0.62654 0.7514 0.05384 0.0
C2338 C 0.64552 0.76807 0.05037 0.0
H2339 H 0.6078 0.72018 0.04647 0.0
H2340 H 0.61574 0.75222 0.06817 0.0
C2341 C 0.65923 0.76653 0.03179 0.0
C2342 C 0.26206 0.91978 0.02327 0.0
C2343 C 0.27923 0.91819 0.02038 0.0
H2344 H 0.23254 0.90692 0.04074 0.0
C2345 C 0.27808 0.90014 0.02835 0.0
H2346 H 0.26213 0.93318 0.01666 0.0
C2347 C 0.26085 0.88486 0.04129 0.0
C2348 C 0.24449 0.88736 0.04679 0.0
H2349 H 0.29094 0.89831 0.02678 0.0
H2350 H 0.26097 0.87183 0.04941 0.0
C2351 C 0.24496 0.90463 0.03661 0.0
C2352 C 0.38932 0.12013 0.99222 0.0
C2353 C 0.37336 0.10138 -0.00039 0.0
H2354 H 0.39839 0.14797 0.971 0.0
C2355 C 0.3539 0.09794 0.99675 0.0
H2356 H 0.40447 0.12316 0.9944 0.0
C2357 C 0.35042 0.11213 0.98327 0.0
C2358 C 0.36636 0.13004 0.97285 0.0
H2359 H 0.34134 0.08358 0.00215 0.0
H2360 H 0.33526 0.10833 0.97833 0.0
C2361 C 0.38585 0.13442 0.97917 0.0
C2362 C 0.89559 0.27375 0.97315 0.0
C2363 C 0.91169 0.27522 0.98971 0.0
H2364 H 0.86976 0.25505 0.9466 0.0
C2365 C 0.91177 0.25774 0.99719 0.0
H2366 H 0.895 0.28697 0.96747 0.0
C2367 C 0.89722 0.23939 0.9853 0.0
C2368 C 0.8824 0.23834 0.96592 0.0
H2369 H 0.92403 0.25846 0.00992 0.0
H2370 H 0.89876 0.22647 0.98877 0.0
C2371 C 0.88103 0.25547 0.96149 0.0
C2372 C 0.73673 0.62561 0.9898 0.0
C2373 C 0.73328 0.6417 0.99205 0.0
H2374 H 0.75542 0.61496 0.97252 0.0
C2375 C 0.74846 0.66057 0.98318 0.0
H2376 H 0.72562 0.61095 0.99708 0.0
C2377 C 0.76573 0.66291 0.96989 0.0
C2378 C 0.76819 0.64644 0.96481 0.0
H2379 H 0.74645 0.67334 0.9843 0.0
H2380 H 0.77645 0.67735 0.96132 0.0
C2381 C 0.754 0.62795 0.97626 0.0
C2382 C 0.89859 0.63129 0.98541 0.0
C2383 C 0.91777 0.64803 0.98662 0.0
H2384 H 0.86857 0.61925 0.96978 0.0
C2385 C 0.92029 0.66656 0.9785 0.0
H2386 H 0.89618 0.6168 0.99149 0.0
C2387 C 0.90445 0.66799 0.9664 0.0
C2388 C 0.8858 0.65089 0.962 0.0
H2389 H 0.93482 0.67978 0.97974 0.0
H2390 H 0.90721 0.6822 0.95811 0.0
C2391 C 0.88272 0.63271 0.97317 0.0
C2392 C 0.34587 0.25621 0.98646 0.0
C2393 C 0.36441 0.27324 0.99213 0.0
H2394 H 0.33026 0.22727 0.96616 0.0
C2395 C 0.38174 0.27234 0.98652 0.0
H2396 H 0.33222 0.25621 0.99112 0.0
C2397 C 0.38056 0.25554 0.97273 0.0
C2398 C 0.36205 0.23942 0.96424 0.0
H2399 H 0.39627 0.28518 0.99045 0.0
H2400 H 0.39415 0.25595 0.9662 0.0
C2401 C 0.34471 0.23952 0.97253 0.0
C2402 C 0.73749 0.11406 0.97799 0.0
C2403 C 0.73503 0.09627 0.99003 0.0
H2404 H 0.75663 0.14079 0.95421 0.0
C2405 C 0.75183 0.09396 0.99238 0.0
H2406 H 0.72509 0.11667 0.97653 0.0
C2407 C 0.77008 0.10818 0.98046 0.0
C2408 C 0.77185 0.12488 0.96578 0.0
H2409 H 0.7506 0.08047 0.00126 0.0
H2410 H 0.78226 0.10519 0.98024 0.0
C2411 C 0.75564 0.1281 0.96569 0.0
C2412 C 0.63159 0.89383 0.02563 0.0
C2413 C 0.64707 0.91343 0.02088 0.0
H2414 H 0.62327 0.86528 0.04402 0.0
C2415 C 0.66677 0.91779 0.02569 0.0
H2416 H 0.61627 0.88971 0.02147 0.0
C2417 C 0.67072 0.9035 0.03754 0.0
C2418 C 0.6551 0.88463 0.045 0.0
H2419 H 0.67913 0.93266 0.02268 0.0
H2420 H 0.68588 0.9078 0.04353 0.0
C2421 C 0.63556 0.87966 0.03794 0.0
C2422 C 0.09477 0.75253 0.02534 0.0
C2423 C 0.09889 0.73754 0.01685 0.0
H2424 H 0.1054 0.78061 0.04742 0.0
C2425 C 0.11857 0.74142 0.01942 0.0
H2426 H 0.07984 0.75014 0.0238 0.0
C2427 C 0.13324 0.75895 0.03312 0.0
C2428 C 0.12851 0.77293 0.04449 0.0
H2429 H 0.12238 0.7304 0.01245 0.0
H2430 H 0.14777 0.7607 0.03719 0.0
C2431 C 0.10944 0.77005 0.03893 0.0
C2432 C 0.2769 0.38502 0.0506 0.0
C2433 C 0.27818 0.37136 0.03128 0.0
H2434 H 0.25848 0.39059 0.07999 0.0
C2435 C 0.26053 0.35425 0.02213 0.0
H2436 H 0.29018 0.39849 0.05763 0.0
C2437 C 0.24229 0.34986 0.03472 0.0
C2438 C 0.24145 0.36253 0.05653 0.0
H2439 H 0.26103 0.34343 0.00732 0.0
H2440 H 0.22925 0.33566 0.02967 0.0
C2441 C 0.25872 0.38065 0.06308 0.0
C2442 C 0.76715 0.68643 0.35255 0.0
C2443 C 0.7672 0.70403 0.36017 0.0
H2444 H 0.77993 0.66803 0.36097 0.0
C2445 C 0.78302 0.71843 0.37771 0.0
H2446 H 0.75517 0.67502 0.33914 0.0
C2447 C 0.79718 0.71444 0.39004 0.0
C2448 C 0.79591 0.69601 0.38499 0.0
H2449 H 0.78374 0.73231 0.38345 0.0
H2450 H 0.80821 0.72512 0.40551 0.0
C2451 C 0.7814 0.68245 0.36489 0.0
C2452 C 0.30479 0.07496 0.36115 0.0
C2453 C 0.31925 0.0691 0.36311 0.0
H2454 H 0.29657 0.0966 0.37381 0.0
C2455 C 0.33789 0.08258 0.37582 0.0
H2456 H 0.29041 0.06527 0.351 0.0
C2457 C 0.34153 0.10071 0.38776 0.0
C2458 C 0.32663 0.10582 0.38766 0.0
H2459 H 0.34936 0.07871 0.37847 0.0
H2460 H 0.35557 0.11017 0.39911 0.0
C2461 C 0.30838 0.09306 0.37365 0.0
C2462 C 0.9231 0.2462 0.35576 0.0
C2463 C 0.94052 0.24505 0.35304 0.0
H2464 H 0.8936 0.2329 0.37339 0.0
C2465 C 0.93981 0.22723 0.3611 0.0
H2466 H 0.92289 0.25945 0.34911 0.0
C2467 C 0.92278 0.2118 0.37429 0.0
C2468 C 0.90619 0.21392 0.3798 0.0
H2469 H 0.95291 0.22579 0.35953 0.0
H2470 H 0.92327 0.19902 0.38272 0.0
C2471 C 0.90618 0.23088 0.36922 0.0
C2472 C 0.05333 0.44891 0.31146 0.0
C2473 C 0.03627 0.43218 0.32269 0.0
H2474 H 0.0651 0.47642 0.2879 0.0
C2475 C 0.01829 0.43247 0.32286 0.0
H2476 H 0.06744 0.44937 0.31043 0.0
C2477 C 0.01697 0.44795 0.30925 0.0
C2478 C 0.03372 0.46378 0.29608 0.0
H2479 H 1.00493 0.42026 0.33209 0.0
H2480 H 1.0026 0.44693 0.30728 0.0
C2481 C 0.05207 0.46458 0.29854 0.0
C2482 C 0.58001 0.59311 0.32713 0.0
C2483 C 0.58035 0.61078 0.31942 0.0
H2484 H 0.56667 0.56178 0.31896 0.0
C2485 C 0.56486 0.60958 0.30144 0.0
H2486 H 0.59174 0.59354 0.34089 0.0
C2487 C 0.55049 0.59143 0.2891 0.0
C2488 C 0.55126 0.57405 0.29443 0.0
H2489 H 0.56446 0.62286 0.29561 0.0
H2490 H 0.53956 0.59119 0.27365 0.0
C2491 C 0.56558 0.57488 0.31472 0.0
C2492 C 0.41492 0.98558 0.32411 0.0
C2493 C 0.39808 0.96651 0.32454 0.0
H2494 H 0.4448 0.00359 0.30866 0.0
C2495 C 0.39983 0.95025 0.31483 0.0
H2496 H 0.41392 0.99837 0.33128 0.0
C2497 C 0.41762 0.9532 0.30253 0.0
C2498 C 0.43381 0.97248 0.29929 0.0
H2499 H 0.38707 0.9354 0.31504 0.0
H2500 H 0.41807 0.94061 0.29297 0.0
C2501 C 0.4326 0.98857 0.31132 0.0
C2502 C 0.58187 0.98834 0.32198 0.0
C2503 C 0.57858 0.96902 0.32579 0.0
H2504 H 0.5709 0.00633 0.30307 0.0
C2505 C 0.55984 0.95279 0.31845 0.0
H2506 H 0.59622 1.0011 0.3273 0.0
C2507 C 0.54526 0.95579 0.30509 0.0
C2508 C 0.5493 0.97506 0.29844 0.0
H2509 H 0.55692 0.93775 0.32132 0.0
H2510 H 0.53155 0.94299 0.29746 0.0
C2511 C 0.56739 0.99133 0.30818 0.0
C2512 C 0.05077 0.60984 0.31216 0.0
C2513 C 0.03341 0.61062 0.31826 0.0
H2514 H 0.06314 0.59324 0.2926 0.0
C2515 C 0.0149 0.5932 0.31408 0.0
H2516 H 0.0653 0.62289 0.31483 0.0
C2517 C 0.01374 0.57627 0.30097 0.0
C2518 C 0.03105 0.57623 0.29238 0.0
H2519 H 1.00122 0.59298 0.31931 0.0
H2520 H 0.99927 0.5637 0.29557 0.0
C2521 C 0.04958 0.59278 0.2995 0.0
C2522 C 0.40508 0.44845 0.30931 0.0
C2523 C 0.40333 0.43248 0.32637 0.0
H2524 H 0.42388 0.47323 0.28159 0.0
C2525 C 0.42072 0.43202 0.33371 0.0
H2526 H 0.39211 0.44957 0.30383 0.0
C2527 C 0.43903 0.44595 0.32158 0.0
C2528 C 0.44024 0.46052 0.30185 0.0
H2529 H 0.41998 0.41994 0.34666 0.0
H2530 H 0.45177 0.44407 0.32512 0.0
C2531 C 0.42333 0.46225 0.29702 0.0
C2532 C 0.29998 0.23067 0.37131 0.0
C2533 C 0.31511 0.24713 0.35632 0.0
H2534 H 0.29244 0.20488 0.39759 0.0
C2535 C 0.33317 0.24765 0.35086 0.0
H2536 H 0.28594 0.22982 0.37605 0.0
C2537 C 0.33674 0.23313 0.36288 0.0
C2538 C 0.32237 0.21794 0.38069 0.0
H2539 H 0.345 0.25997 0.33898 0.0
H2540 H 0.35143 0.23493 0.36084 0.0
C2541 C 0.30362 0.21626 0.38348 0.0
C2542 C 0.77794 0.06952 0.35757 0.0
C2543 C 0.75877 0.06697 0.35488 0.0
H2544 H 0.80742 0.08754 0.3753 0.0
C2545 C 0.75594 0.08293 0.36245 0.0
H2546 H 0.78059 0.05749 0.35199 0.0
C2547 C 0.77134 0.10017 0.37559 0.0
C2548 C 0.78986 0.10177 0.38147 0.0
H2549 H 0.74145 0.08157 0.36007 0.0
H2550 H 0.76828 0.11153 0.38353 0.0
C2551 C 0.79337 0.0868 0.37077 0.0
C2552 C 0.92676 0.68925 0.349 0.0
C2553 C 0.94444 0.70651 0.35748 0.0
H2554 H 0.89562 0.67062 0.35747 0.0
C2555 C 0.94336 0.72032 0.37668 0.0
H2556 H 0.92716 0.67834 0.33426 0.0
C2557 C 0.92534 0.71601 0.38966 0.0
C2558 C 0.90805 0.69776 0.38381 0.0
H2559 H 0.9567 0.73391 0.3832 0.0
H2560 H 0.92524 0.7262 0.40626 0.0
C2561 C 0.90867 0.68488 0.36212 0.0
C2562 C 0.4411 0.03775 0.68599 0.0
C2563 C 0.42086 0.02307 0.68804 0.0
H2564 H 0.47114 0.04687 0.69915 0.0
C2565 C 0.41609 0.00475 0.70103 0.0
H2566 H 0.44548 0.05188 0.67561 0.0
C2567 C 0.43088 1.00174 0.71346 0.0
C2568 C 0.45079 0.01696 0.71345 0.0
H2569 H 0.40081 0.99313 0.70366 0.0
H2570 H 0.42658 0.98805 0.72525 0.0
C2571 C 0.45589 0.0348 0.6989 0.0
C2572 C 0.95781 0.39759 0.71532 0.0
C2573 C 0.97172 0.39636 0.69674 0.0
H2574 H 0.95149 0.41608 0.74352 0.0
C2575 C 0.98881 0.414 0.68823 0.0
H2576 H 0.94434 0.38429 0.72179 0.0
C2577 C 0.99287 0.43227 0.70061 0.0
C2578 C 0.97988 0.43316 0.7216 0.0
H2579 H 0.9998 0.4135 0.67396 0.0
H2580 H 0.00698 0.44538 0.69584 0.0
C2581 C 0.96183 0.4158 0.72756 0.0
C2582 C 0.60781 0.56069 0.69854 0.0
C2583 C 0.60862 0.5781 0.68788 0.0
H2584 H 0.59093 0.53333 0.72217 0.0
C2585 C 0.59115 0.57929 0.68861 0.0
H2586 H 0.62091 0.55919 0.6987 0.0
C2587 C 0.57405 0.56452 0.7025 0.0
C2588 C 0.5739 0.54801 0.71527 0.0
H2589 H 0.59096 0.59215 0.67991 0.0
H2590 H 0.56138 0.56661 0.70501 0.0
C2591 C 0.59058 0.54576 0.71197 0.0
C2592 C 0.68205 0.75972 0.66425 0.0
C2593 C 0.70121 0.76238 0.66716 0.0
H2594 H 0.66449 0.77177 0.6472 0.0
C2595 C 0.7177 0.78117 0.6616 0.0
H2596 H 0.66912 0.74533 0.66824 0.0
C2597 C 0.71505 0.79643 0.65034 0.0
C2598 C 0.69589 0.79298 0.64387 0.0
H2599 H 0.73261 0.78355 0.66375 0.0
H2600 H 0.728 0.81009 0.64343 0.0
C2601 C 0.6794 0.77488 0.65245 0.0
C2602 C 0.22256 0.93866 0.63602 0.0
C2603 C 0.23878 0.94074 0.65306 0.0
H2604 H 0.19741 0.91943 0.60852 0.0
C2605 C 0.23961 0.92359 0.66024 0.0
H2606 H 0.22126 0.95151 0.63063 0.0
C2607 C 0.22574 0.90513 0.64787 0.0
C2608 C 0.21085 0.90355 0.62814 0.0
H2609 H 0.25192 0.92467 0.67326 0.0
H2610 H 0.22784 0.89254 0.65139 0.0
C2611 C 0.20876 0.92026 0.62365 0.0
C2612 C 0.06506 0.2856 0.64438 0.0
C2613 C 0.06408 0.30224 0.65433 0.0
H2614 H 0.08242 0.27502 0.62223 0.0
C2615 C 0.0813 0.32102 0.65374 0.0
H2616 H 0.05194 0.27098 0.64466 0.0
C2617 C 0.09867 0.32335 0.64066 0.0
C2618 C 0.09917 0.30688 0.6286 0.0
H2619 H 0.08086 0.33408 0.66108 0.0
H2620 H 0.11121 0.33817 0.63791 0.0
C2621 C 0.08253 0.28788 0.63188 0.0
C2622 C 0.22675 0.28709 0.64868 0.0
C2623 C 0.24407 0.30421 0.65884 0.0
H2624 H 0.19889 0.27546 0.6253 0.0
C2625 C 0.24452 0.32251 0.6582 0.0
H2626 H 0.22583 0.27275 0.6486 0.0
C2627 C 0.22909 0.32401 0.64462 0.0
C2628 C 0.21273 0.30719 0.63191 0.0
H2629 H 0.25736 0.33592 0.66653 0.0
H2630 H 0.23065 0.33854 0.64194 0.0
C2631 C 0.21119 0.28858 0.63543 0.0
C2632 C 0.67889 0.92642 0.65137 0.0
C2633 C 0.6977 0.94159 0.66109 0.0
H2634 H 0.66214 0.89812 0.6296 0.0
C2635 C 0.71366 0.93787 0.66046 0.0
H2636 H 0.66619 0.9286 0.65132 0.0
C2637 C 0.71132 0.92035 0.64755 0.0
C2638 C 0.69294 0.90614 0.63517 0.0
H2639 H 0.72825 0.94894 0.6685 0.0
H2640 H 0.72427 0.91871 0.64508 0.0
C2641 C 0.67653 0.90889 0.63876 0.0
C2642 C 0.07409 0.77538 0.65537 0.0
C2643 C 0.06985 0.75579 0.66076 0.0
H2644 H 0.09431 0.80367 0.63606 0.0
C2645 C 0.08503 0.75126 0.65583 0.0
H2646 H 0.06307 0.7797 0.65956 0.0
C2647 C 0.10315 0.7653 0.64354 0.0
C2648 C 0.10654 0.78414 0.63561 0.0
H2649 H 0.08249 0.73642 0.65917 0.0
H2650 H 0.11385 0.76082 0.63764 0.0
C2651 C 0.09215 0.78933 0.64253 0.0
C2652 C 0.95884 0.55506 0.6995 0.0
C2653 C 0.97301 0.57246 0.68508 0.0
H2654 H 0.95366 0.52973 0.72522 0.0
C2655 C 0.99191 0.57496 0.67948 0.0
H2656 H 0.94402 0.55247 0.70362 0.0
C2657 C 0.99724 0.56161 0.69128 0.0
C2658 C 0.98376 0.5456 0.70881 0.0
H2659 H 1.00321 0.58819 0.66855 0.0
H2660 H 0.01252 0.56504 0.68952 0.0
C2661 C 0.96422 0.54183 0.71143 0.0
C2662 C 0.44679 0.40502 0.69057 0.0
C2663 C 0.42826 0.40304 0.68314 0.0
H2664 H 0.47535 0.42321 0.71099 0.0
C2665 C 0.42627 0.42003 0.68478 0.0
H2666 H 0.44899 0.39235 0.68976 0.0
C2667 C 0.44147 0.43776 0.69717 0.0
C2668 C 0.45907 0.43893 0.70776 0.0
H2669 H 0.41246 0.41928 0.6784 0.0
H2670 H 0.43876 0.44994 0.70105 0.0
C2671 C 0.46207 0.42283 0.70258 0.0
C2672 C 0.58995 0.01874 0.68344 0.0
C2673 C 0.60706 0.03677 0.69115 0.0
H2674 H 0.55894 0.9992 0.69186 0.0
C2675 C 0.6049 0.05086 0.70812 0.0
H2676 H 0.59112 0.00756 0.67048 0.0
C2677 C 0.5865 0.04611 0.72015 0.0
C2678 C 0.56987 0.02722 0.7153 0.0
H2679 H 0.61775 0.06503 0.71399 0.0
H2680 H 0.58567 0.05647 0.73562 0.0
C2681 C 0.57147 0.01399 0.69548 0.0
loop_
_geom_bond_atom_site_label_1
_geom_bond_atom_site_label_2
_geom_bond_distance
_geom_bond_site_symmetry_2
_ccdc_geom_bond_type
Li0 N17 1.989 1_554 S
Li0 O60 1.956 . S
Li0 O61 1.970 1_654 S
Li0 O62 1.961 . S
Li1 N25 1.990 . S
Li1 O60 1.970 1_455 S
Li1 O61 1.956 1_554 S
Li1 O63 1.961 . S
Li2 N47 1.990 . S
Li2 O60 1.961 . S
Li2 O62 1.956 . S
Li2 O63 1.970 1_655 S
Li3 N53 1.990 . S
Li3 O61 1.961 . S
Li3 O62 1.970 1_456 S
Li3 O63 1.956 1_556 S
C4 C6 1.348 1_655 S
C4 C7 1.356 . S
C4 O60 1.325 . S
N5 C8 1.314 . S
N5 C9 1.279 . S
C6 C4 1.348 1_455 S
C6 C8 1.353 1_455 S
C6 H64 0.929 . S
C7 C4 1.356 . S
C7 C9 1.358 . S
C7 H65 0.930 . S
C8 N5 1.314 . S
C8 C6 1.353 1_655 S
C8 H66 0.930 1_655 S
C9 N5 1.279 . S
C9 C7 1.358 . S
C9 H67 0.930 . S
C10 C13 1.348 1_455 S
C10 C14 1.356 . S
C10 O61 1.325 . S
C11 N12 1.279 . S
C11 C14 1.358 . S
C11 H68 0.930 . S
N12 C11 1.279 . S
N12 C15 1.314 . S
C13 C10 1.348 1_655 S
C13 C15 1.353 1_655 S
C13 H69 0.929 . S
C14 C10 1.356 . S
C14 C11 1.358 . S
C14 H70 0.930 . S
C15 N12 1.314 . S
C15 C13 1.353 1_455 S
C15 H71 0.930 1_455 S
C16 N17 1.320 . S
C16 C21 1.353 . S
C16 H22 0.930 . S
N17 Li0 1.989 1_556 S
N17 C16 1.320 . S
N17 C19 1.275 1_556 S
C18 C19 1.358 . S
C18 C20 1.356 1_554 S
C18 H72 0.930 . S
C19 N17 1.275 1_554 S
C19 C18 1.358 . S
C19 H23 0.930 . S
C20 C18 1.356 1_556 S
C20 C21 1.348 . S
C21 C16 1.353 . S
C21 C20 1.348 . S
C21 H73 0.929 . S
H22 C16 0.930 . S
H23 C19 0.930 . S
C24 N25 1.314 . S
C24 C26 1.353 . S
C24 H30 0.930 . S
N25 Li1 1.990 . S
N25 C24 1.314 . S
N25 C28 1.279 . S
C26 C24 1.353 . S
C26 C29 1.348 . S
C26 H74 0.929 . S
C27 C28 1.358 . S
C27 C29 1.356 . S
C27 H75 0.930 . S
C28 N25 1.279 . S
C28 C27 1.358 . S
C28 H31 0.930 1_554 S
C29 C26 1.348 . S
C29 C27 1.356 . S
H30 C24 0.930 . S
H31 C28 0.930 1_556 S
C32 C34 1.348 . S
C32 C35 1.356 1_556 S
C32 O62 1.325 1_556 S
N33 C36 1.314 . S
N33 C37 1.279 1_556 S
C34 C32 1.348 . S
C34 C36 1.353 . S
C34 H76 0.929 . S
C35 C32 1.356 1_554 S
C35 C37 1.358 . S
C35 H77 0.930 . S
C36 N33 1.314 . S
C36 C34 1.353 . S
C36 H78 0.930 . S
C37 N33 1.279 1_554 S
C37 C35 1.358 . S
C37 H79 0.930 . S
C38 C39 1.348 . S
C38 C40 1.356 . S
C38 O63 1.325 . S
C39 C38 1.348 . S
C39 C41 1.353 . S
C39 H80 0.929 . S
C40 C38 1.356 . S
C40 C42 1.358 . S
C40 H81 0.930 1_554 S
C41 C39 1.353 . S
C41 N43 1.314 . S
C41 H82 0.930 . S
C42 C40 1.358 . S
C42 N43 1.279 . S
C42 H83 0.930 . S
N43 C41 1.314 . S
N43 C42 1.279 . S
C44 C46 1.353 . S
C44 N47 1.314 . S
C44 H50 0.930 1_655 S
C45 N47 1.279 . S
C45 C48 1.358 . S
C45 H51 0.930 . S
C46 C44 1.353 . S
C46 C49 1.348 . S
C46 H84 0.932 1_655 S
N47 Li2 1.990 . S
N47 C44 1.314 . S
N47 C45 1.279 . S
C48 C45 1.358 . S
C48 C49 1.356 . S
C48 H85 0.930 . S
C49 C46 1.348 . S
C49 C48 1.356 . S
H50 C44 0.930 1_455 S
H51 C45 0.930 . S
C52 N53 1.314 . S
C52 C54 1.353 . S
C52 H58 0.930 1_455 S
N53 Li3 1.990 . S
N53 C52 1.314 . S
N53 C56 1.279 . S
C54 C52 1.353 . S
C54 C57 1.348 . S
C54 H86 0.944 . S
C55 C56 1.358 . S
C55 C57 1.356 . S
C55 H87 0.930 . S
C56 N53 1.279 . S
C56 C55 1.358 . S
C56 H59 0.930 . S
C57 C54 1.348 . S
C57 C55 1.356 . S
H58 C52 0.930 1_655 S
H59 C56 0.930 . S
O60 Li0 1.956 . S
O60 Li1 1.970 1_655 S
O60 Li2 1.961 . S
O60 C4 1.325 . S
O61 Li0 1.970 1_456 S
O61 Li1 1.956 1_556 S
O61 Li3 1.961 . S
O61 C10 1.325 . S
O62 Li0 1.961 . S
O62 Li2 1.956 . S
O62 Li3 1.970 1_654 S
O62 C32 1.325 1_554 S
O63 Li1 1.961 . S
O63 Li2 1.970 1_455 S
O63 Li3 1.956 1_554 S
O63 C38 1.325 . S
H64 C6 0.929 . S
H65 C7 0.930 . S
H66 C8 0.930 1_455 S
H67 C9 0.930 . S
H68 C11 0.930 . S
H69 C13 0.929 . S
H70 C14 0.930 . S
H71 C15 0.930 1_655 S
H72 C18 0.930 . S
H73 C21 0.929 . S
H74 C26 0.929 . S
H75 C27 0.930 . S
H76 C34 0.929 . S
H77 C35 0.930 . S
H78 C36 0.930 . S
H79 C37 0.930 . S
H80 C39 0.929 . S
H81 C40 0.930 1_556 S
H82 C41 0.930 . S
H83 C42 0.930 . S
H84 C46 0.932 1_455 S
H85 C48 0.930 . S
H86 C54 0.944 . S
H87 C55 0.930 . S
Li88 N105 1.990 1_554 S
Li88 O148 1.956 . S
Li88 O149 1.970 1_554 S
Li88 O150 1.960 1_554 S
Li89 N113 1.990 . S
Li89 O148 1.970 . S
Li89 O149 1.956 1_554 S
Li89 O151 1.961 . S
Li90 N135 1.990 . S
Li90 O148 1.961 . S
Li90 O150 1.945 1_554 S
Li90 O151 1.970 . S
Li91 N141 1.990 . S
Li91 O149 1.961 . S
Li91 O150 1.976 . S
Li91 O151 1.956 1_556 S
C92 C94 1.348 . S
C92 C95 1.356 . S
C92 O148 1.325 . S
N93 C96 1.314 . S
N93 C97 1.279 . S
C94 C92 1.348 . S
C94 C96 1.353 . S
C94 H152 0.929 . S
C95 C92 1.356 . S
C95 C97 1.358 . S
C95 H153 0.930 . S
C96 N93 1.314 . S
C96 C94 1.353 . S
C96 H154 0.930 . S
C97 N93 1.279 . S
C97 C95 1.358 . S
C97 H155 0.930 . S
C98 C101 1.348 . S
C98 C102 1.356 . S
C98 O149 1.325 . S
C99 N100 1.279 . S
C99 C102 1.358 . S
C99 H156 0.930 . S
N100 C99 1.279 . S
N100 C103 1.314 . S
C101 C98 1.348 . S
C101 C103 1.353 . S
C101 H157 0.929 . S
C102 C98 1.356 . S
C102 C99 1.358 . S
C102 H158 0.930 . S
C103 N100 1.314 . S
C103 C101 1.353 . S
C103 H159 0.930 . S
C104 N105 1.314 . S
C104 C109 1.353 . S
C104 H110 0.930 . S
N105 Li88 1.990 1_556 S
N105 C104 1.314 . S
N105 C107 1.279 1_556 S
C106 C107 1.358 . S
C106 C108 1.356 1_554 S
C106 H160 0.930 . S
C107 N105 1.279 1_554 S
C107 C106 1.358 . S
C107 H111 0.930 . S
C108 C106 1.356 1_556 S
C108 C109 1.348 . S
C109 C104 1.353 . S
C109 C108 1.348 . S
C109 H161 0.929 . S
H110 C104 0.930 . S
H111 C107 0.930 . S
C112 N113 1.314 . S
C112 C114 1.353 . S
C112 H118 0.930 . S
N113 Li89 1.990 . S
N113 C112 1.314 . S
N113 C116 1.279 . S
C114 C112 1.353 . S
C114 C117 1.348 . S
C114 H162 0.929 . S
C115 C116 1.358 . S
C115 C117 1.356 . S
C115 H163 0.930 . S
C116 N113 1.279 . S
C116 C115 1.358 . S
C116 H119 0.930 1_554 S
C117 C114 1.348 . S
C117 C115 1.356 . S
H118 C112 0.930 . S
H119 C116 0.930 1_556 S
C120 C122 1.348 . S
C120 C123 1.356 1_556 S
C120 O150 1.327 . S
N121 C124 1.314 . S
N121 C125 1.298 . S
C122 C120 1.348 . S
C122 C124 1.353 . S
C122 H164 0.929 . S
C123 C120 1.356 1_554 S
C123 C125 1.352 1_554 S
C123 H165 0.930 . S
C124 N121 1.314 . S
C124 C122 1.353 . S
C124 H166 0.930 . S
C125 N121 1.298 . S
C125 C123 1.352 1_556 S
C125 H167 0.918 1_556 S
C126 C127 1.348 . S
C126 C128 1.356 . S
C126 O151 1.325 . S
C127 C126 1.348 . S
C127 C129 1.353 . S
C127 H168 0.929 . S
C128 C126 1.356 . S
C128 C130 1.358 . S
C128 H169 0.950 . S
C129 C127 1.353 . S
C129 N131 1.314 . S
C129 H170 0.930 . S
C130 C128 1.358 . S
C130 N131 1.279 . S
C130 H171 0.930 . S
N131 C129 1.314 . S
N131 C130 1.279 . S
C132 C134 1.353 . S
C132 N135 1.314 . S
C132 H138 0.930 . S
C133 N135 1.279 . S
C133 C136 1.358 . S
C133 H139 0.930 . S
C134 C132 1.353 . S
C134 C137 1.348 . S
C134 H172 0.929 . S
N135 Li90 1.990 . S
N135 C132 1.314 . S
N135 C133 1.279 . S
C136 C133 1.358 . S
C136 C137 1.356 . S
C136 H173 0.930 . S
C137 C134 1.348 . S
C137 C136 1.356 . S
H138 C132 0.930 . S
H139 C133 0.930 . S
C140 N141 1.314 . S
C140 C142 1.353 . S
C140 H146 0.930 . S
N141 Li91 1.990 . S
N141 C140 1.314 . S
N141 C144 1.279 . S
C142 C140 1.353 . S
C142 C145 1.348 . S
C142 H174 0.929 . S
C143 C144 1.358 . S
C143 C145 1.356 . S
C143 H175 0.930 . S
C144 N141 1.279 . S
C144 C143 1.358 . S
C144 H147 0.930 . S
C145 C142 1.348 . S
C145 C143 1.356 . S
H146 C140 0.930 . S
H147 C144 0.930 . S
O148 Li88 1.956 . S
O148 Li89 1.970 . S
O148 Li90 1.961 . S
O148 C92 1.325 . S
O149 Li88 1.970 1_556 S
O149 Li89 1.956 1_556 S
O149 Li91 1.961 . S
O149 C98 1.325 . S
O150 Li88 1.960 1_556 S
O150 Li90 1.945 1_556 S
O150 Li91 1.976 . S
O150 C120 1.327 . S
O151 Li89 1.961 . S
O151 Li90 1.970 . S
O151 Li91 1.956 1_554 S
O151 C126 1.325 . S
H152 C94 0.929 . S
H153 C95 0.930 . S
H154 C96 0.930 . S
H155 C97 0.930 . S
H156 C99 0.930 . S
H157 C101 0.929 . S
H158 C102 0.930 . S
H159 C103 0.930 . S
H160 C106 0.930 . S
H161 C109 0.929 . S
H162 C114 0.929 . S
H163 C115 0.930 . S
H164 C122 0.929 . S
H165 C123 0.930 . S
H166 C124 0.930 . S
H167 C125 0.918 1_554 S
H168 C127 0.929 . S
H169 C128 0.950 . S
H170 C129 0.930 . S
H171 C130 0.930 . S
H172 C134 0.929 . S
H173 C136 0.930 . S
H174 C142 0.929 . S
H175 C143 0.930 . S
Li176 N193 1.990 . S
Li176 O236 1.956 1_556 S
Li176 O237 1.970 1_566 S
Li176 O238 1.961 . S
Li177 N201 1.990 . S
Li177 O236 1.970 1_545 S
Li177 O237 1.956 . S
Li177 O239 1.961 . S
Li178 N223 1.990 . S
Li178 O236 1.961 . S
Li178 O238 1.956 1_554 S
Li178 O239 1.970 1_565 S
Li179 N229 1.986 1_554 S
Li179 O237 1.961 . S
Li179 O238 1.970 1_544 S
Li179 O239 1.956 . S
C180 C182 1.348 . S
C180 C183 1.356 . S
C180 O236 1.325 . S
N181 C184 1.314 . S
N181 C185 1.279 . S
C182 C180 1.348 . S
C182 C184 1.353 . S
C182 H240 0.929 . S
C183 C180 1.356 . S
C183 C185 1.358 . S
C183 H241 0.930 1_554 S
C184 N181 1.314 . S
C184 C182 1.353 . S
C184 H242 0.930 . S
C185 N181 1.279 . S
C185 C183 1.358 . S
C185 H243 0.930 . S
C186 C189 1.348 . S
C186 C190 1.356 1_556 S
C186 O237 1.325 1_556 S
C187 N188 1.279 1_554 S
C187 C190 1.358 . S
C187 H244 0.930 . S
N188 C187 1.279 1_556 S
N188 C191 1.314 . S
C189 C186 1.348 . S
C189 C191 1.353 . S
C189 H245 0.929 . S
C190 C186 1.356 1_554 S
C190 C187 1.358 . S
C190 H246 0.930 . S
C191 N188 1.314 . S
C191 C189 1.353 . S
C191 H247 0.930 . S
C192 N193 1.314 . S
C192 C197 1.353 . S
C192 H198 0.930 1_565 S
N193 Li176 1.990 . S
N193 C192 1.314 . S
N193 C195 1.279 . S
C194 C195 1.358 . S
C194 C196 1.356 . S
C194 H248 0.930 . S
C195 N193 1.279 . S
C195 C194 1.358 . S
C195 H199 0.930 . S
C196 C194 1.356 . S
C196 C197 1.348 . S
C197 C192 1.353 . S
C197 C196 1.348 . S
C197 H249 0.952 . S
H198 C192 0.930 1_545 S
H199 C195 0.930 . S
C200 N201 1.314 . S
C200 C202 1.353 . S
C200 H206 0.930 1_545 S
N201 Li177 1.990 . S
N201 C200 1.314 . S
N201 C204 1.279 . S
C202 C200 1.353 . S
C202 C205 1.348 . S
C202 H250 0.929 . S
C203 C204 1.358 . S
C203 C205 1.356 . S
C203 H251 0.930 . S
C204 N201 1.279 . S
C204 C203 1.358 . S
C204 H207 0.930 . S
C205 C202 1.348 . S
C205 C203 1.356 . S
H206 C200 0.930 1_565 S
H207 C204 0.930 . S
C208 C210 1.348 1_565 S
C208 C211 1.356 . S
C208 O238 1.325 . S
N209 C212 1.314 . S
N209 C213 1.279 . S
C210 C208 1.348 1_545 S
C210 C212 1.353 1_545 S
C210 H252 0.929 . S
C211 C208 1.356 . S
C211 C213 1.358 . S
C211 H253 0.930 . S
C212 N209 1.314 . S
C212 C210 1.353 1_565 S
C212 H254 0.930 1_565 S
C213 N209 1.279 . S
C213 C211 1.358 . S
C213 H255 0.930 . S
C214 C215 1.348 1_545 S
C214 C216 1.356 . S
C214 O239 1.325 . S
C215 C214 1.348 1_565 S
C215 C217 1.334 1_565 S
C215 H256 0.949 . S
C216 C214 1.356 . S
C216 C218 1.358 . S
C216 H257 0.930 . S
C217 C215 1.334 1_545 S
C217 N219 1.314 . S
C217 H258 0.930 1_545 S
C218 C216 1.358 . S
C218 N219 1.279 . S
C218 H259 0.930 . S
N219 C217 1.314 . S
N219 C218 1.279 . S
C220 C222 1.353 . S
C220 N223 1.314 . S
C220 H226 0.930 . S
C221 N223 1.279 . S
C221 C224 1.358 . S
C221 H227 0.930 1_554 S
C222 C220 1.353 . S
C222 C225 1.348 . S
C222 H260 0.929 . S
N223 Li178 1.990 . S
N223 C220 1.314 . S
N223 C221 1.279 . S
C224 C221 1.358 . S
C224 C225 1.356 . S
C224 H261 0.930 1_554 S
C225 C222 1.348 . S
C225 C224 1.356 . S
H226 C220 0.930 . S
H227 C221 0.930 1_556 S
C228 N229 1.337 . S
C228 C230 1.353 . S
C228 H234 0.930 . S
N229 Li179 1.986 1_556 S
N229 C228 1.337 . S
N229 C232 1.264 1_556 S
C230 C228 1.353 . S
C230 C233 1.348 . S
C230 H262 0.929 . S
C231 C232 1.358 . S
C231 C233 1.356 1_554 S
C231 H263 0.930 . S
C232 N229 1.264 1_554 S
C232 C231 1.358 . S
C232 H235 0.930 . S
C233 C230 1.348 . S
C233 C231 1.356 1_556 S
H234 C228 0.930 . S
H235 C232 0.930 . S
O236 Li176 1.956 1_554 S
O236 Li177 1.970 1_565 S
O236 Li178 1.961 . S
O236 C180 1.325 . S
O237 Li176 1.970 1_544 S
O237 Li177 1.956 . S
O237 Li179 1.961 . S
O237 C186 1.325 1_554 S
O238 Li176 1.961 . S
O238 Li178 1.956 1_556 S
O238 Li179 1.970 1_566 S
O238 C208 1.325 . S
O239 Li177 1.961 . S
O239 Li178 1.970 1_545 S
O239 Li179 1.956 . S
O239 C214 1.325 . S
H240 C182 0.929 . S
H241 C183 0.930 1_556 S
H242 C184 0.930 . S
H243 C185 0.930 . S
H244 C187 0.930 . S
H245 C189 0.929 . S
H246 C190 0.930 . S
H247 C191 0.930 . S
H248 C194 0.930 . S
H249 C197 0.952 . S
H250 C202 0.929 . S
H251 C203 0.930 . S
H252 C210 0.929 . S
H253 C211 0.930 . S
H254 C212 0.930 1_545 S
H255 C213 0.930 . S
H256 C215 0.949 . S
H257 C216 0.930 . S
H258 C217 0.930 1_565 S
H259 C218 0.930 . S
H260 C222 0.929 . S
H261 C224 0.930 1_556 S
H262 C230 0.929 . S
H263 C231 0.930 . S
Li264 N281 1.990 . S
Li264 O324 1.956 . S
Li264 O325 1.970 1_455 S
Li264 O326 1.961 1_554 S
Li265 N289 1.990 . S
Li265 O324 1.970 1_655 S
Li265 O325 1.956 . S
Li265 O327 1.978 . S
Li266 N311 1.990 . S
Li266 O324 1.961 1_556 S
Li266 O326 1.956 . S
Li266 O327 1.960 1_456 S
Li267 N317 1.990 1_554 S
Li267 O325 1.961 . S
Li267 O326 1.970 1_654 S
Li267 O327 1.957 . S
C268 C270 1.348 . S
C268 C271 1.379 . S
C268 O324 1.325 . S
N269 C272 1.314 . S
N269 C273 1.279 . S
C270 C268 1.348 . S
C270 C272 1.353 . S
C270 H328 0.929 . S
C271 C268 1.379 . S
C271 C273 1.366 . S
C271 H329 0.899 1_554 S
C272 N269 1.314 . S
C272 C270 1.353 . S
C272 H330 0.930 . S
C273 N269 1.279 . S
C273 C271 1.366 . S
C273 H331 0.930 1_554 S
C274 C277 1.348 1_655 S
C274 C278 1.356 . S
C274 O325 1.325 . S
C275 N276 1.279 . S
C275 C278 1.358 . S
C275 H332 0.930 . S
N276 C275 1.279 . S
N276 C279 1.314 1_655 S
C277 C274 1.348 1_455 S
C277 C279 1.353 . S
C277 H333 0.929 . S
C278 C274 1.356 . S
C278 C275 1.358 . S
C278 H334 0.930 . S
C279 N276 1.314 1_455 S
C279 C277 1.353 . S
C279 H335 0.930 . S
C280 N281 1.314 . S
C280 C285 1.353 . S
C280 H286 0.930 . S
N281 Li264 1.990 . S
N281 C280 1.314 . S
N281 C283 1.279 . S
C282 C283 1.358 . S
C282 C284 1.356 . S
C282 H336 0.930 . S
C283 N281 1.279 . S
C283 C282 1.358 . S
C283 H287 0.930 . S
C284 C282 1.356 . S
C284 C285 1.348 . S
C285 C280 1.353 . S
C285 C284 1.348 . S
C285 H337 0.929 . S
H286 C280 0.930 . S
H287 C283 0.930 . S
C288 N289 1.314 . S
C288 C290 1.353 . S
C288 H294 0.930 . S
N289 Li265 1.990 . S
N289 C288 1.314 . S
N289 C292 1.279 . S
C290 C288 1.353 . S
C290 C293 1.348 . S
C290 H338 0.929 . S
C291 C292 1.358 . S
C291 C293 1.356 . S
C291 H339 0.930 . S
C292 N289 1.279 . S
C292 C291 1.358 . S
C292 H295 0.930 . S
C293 C290 1.348 . S
C293 C291 1.356 . S
H294 C288 0.930 . S
H295 C292 0.930 . S
C296 C298 1.348 1_455 S
C296 C299 1.356 . S
C296 O326 1.325 . S
N297 C300 1.314 1_455 S
N297 C301 1.279 . S
C298 C296 1.348 1_655 S
C298 C300 1.353 . S
C298 H340 0.929 . S
C299 C296 1.356 . S
C299 C301 1.358 . S
C299 H341 0.930 . S
C300 N297 1.314 1_655 S
C300 C298 1.353 . S
C300 H342 0.930 . S
C301 N297 1.279 . S
C301 C299 1.358 . S
C301 H343 0.930 . S
C302 C303 1.348 . S
C302 C304 1.356 1_556 S
C302 O327 1.322 1_556 S
C303 C302 1.348 . S
C303 C305 1.353 . S
C303 H344 0.929 . S
C304 C302 1.356 1_554 S
C304 C306 1.358 . S
C304 H345 0.930 . S
C305 C303 1.353 . S
C305 N307 1.314 . S
C305 H346 0.930 . S
C306 C304 1.358 . S
C306 N307 1.279 1_554 S
C306 H347 0.930 . S
N307 C305 1.314 . S
N307 C306 1.279 1_556 S
C308 C310 1.353 . S
C308 N311 1.314 . S
C308 H314 0.930 . S
C309 N311 1.279 . S
C309 C312 1.358 . S
C309 H315 0.930 . S
C310 C308 1.353 . S
C310 C313 1.348 . S
C310 H348 0.929 . S
N311 Li266 1.990 . S
N311 C308 1.314 . S
N311 C309 1.279 . S
C312 C309 1.358 . S
C312 C313 1.356 . S
C312 H349 0.930 . S
C313 C310 1.348 . S
C313 C312 1.356 . S
H314 C308 0.930 . S
H315 C309 0.930 . S
C316 N317 1.314 1_554 S
C316 C318 1.353 1_554 S
C316 H322 0.930 . S
N317 Li267 1.990 1_556 S
N317 C316 1.314 1_556 S
N317 C320 1.279 . S
C318 C316 1.353 1_556 S
C318 C321 1.348 . S
C318 H350 0.929 1_556 S
C319 C320 1.358 . S
C319 C321 1.356 . S
C319 H351 0.930 . S
C320 N317 1.279 . S
C320 C319 1.358 . S
C320 H323 0.930 . S
C321 C318 1.348 . S
C321 C319 1.356 . S
H322 C316 0.930 . S
H323 C320 0.930 . S
O324 Li264 1.956 . S
O324 Li265 1.970 1_455 S
O324 Li266 1.961 1_554 S
O324 C268 1.325 . S
O325 Li264 1.970 1_655 S
O325 Li265 1.956 . S
O325 Li267 1.961 . S
O325 C274 1.325 . S
O326 Li264 1.961 1_556 S
O326 Li266 1.956 . S
O326 Li267 1.970 1_456 S
O326 C296 1.325 . S
O327 Li265 1.978 . S
O327 Li266 1.960 1_654 S
O327 Li267 1.957 . S
O327 C302 1.322 1_554 S
H328 C270 0.929 . S
H329 C271 0.899 1_556 S
H330 C272 0.930 . S
H331 C273 0.930 1_556 S
H332 C275 0.930 . S
H333 C277 0.929 . S
H334 C278 0.930 . S
H335 C279 0.930 . S
H336 C282 0.930 . S
H337 C285 0.929 . S
H338 C290 0.929 . S
H339 C291 0.930 . S
H340 C298 0.929 . S
H341 C299 0.930 . S
H342 C300 0.930 . S
H343 C301 0.930 . S
H344 C303 0.929 . S
H345 C304 0.930 . S
H346 C305 0.930 . S
H347 C306 0.930 . S
H348 C310 0.929 . S
H349 C312 0.930 . S
H350 C318 0.929 1_554 S
H351 C319 0.930 . S
Li352 N369 1.990 . S
Li352 O412 1.956 . S
Li352 O413 1.970 . S
Li352 O414 1.961 1_554 S
Li353 N377 1.990 . S
Li353 O412 1.970 . S
Li353 O413 1.956 . S
Li353 O415 1.976 . S
Li354 N399 1.990 . S
Li354 O412 1.961 1_556 S
Li354 O414 1.956 . S
Li354 O415 1.963 1_556 S
Li355 N405 1.990 1_554 S
Li355 O413 1.961 . S
Li355 O414 1.970 1_554 S
Li355 O415 1.957 . S
C356 C358 1.348 . S
C356 C359 1.356 . S
C356 O412 1.325 . S
N357 C360 1.314 . S
N357 C361 1.279 . S
C358 C356 1.348 . S
C358 C360 1.353 . S
C358 H416 0.929 . S
C359 C356 1.356 . S
C359 C361 1.358 . S
C359 H417 0.930 1_554 S
C360 N357 1.314 . S
C360 C358 1.353 . S
C360 H418 0.930 . S
C361 N357 1.279 . S
C361 C359 1.358 . S
C361 H419 0.943 . S
C362 C365 1.348 . S
C362 C366 1.356 . S
C362 O413 1.325 . S
C363 N364 1.279 . S
C363 C366 1.358 . S
C363 H420 0.930 . S
N364 C363 1.279 . S
N364 C367 1.314 . S
C365 C362 1.348 . S
C365 C367 1.353 . S
C365 H421 0.929 . S
C366 C362 1.356 . S
C366 C363 1.358 . S
C366 H422 0.930 . S
C367 N364 1.314 . S
C367 C365 1.353 . S
C367 H423 0.930 . S
C368 N369 1.314 . S
C368 C373 1.353 . S
C368 H374 0.930 . S
N369 Li352 1.990 . S
N369 C368 1.314 . S
N369 C371 1.279 . S
C370 C371 1.358 . S
C370 C372 1.356 . S
C370 H424 0.930 . S
C371 N369 1.279 . S
C371 C370 1.358 . S
C371 H375 0.930 . S
C372 C370 1.356 . S
C372 C373 1.348 . S
C373 C368 1.353 . S
C373 C372 1.348 . S
C373 H425 0.929 . S
H374 C368 0.930 . S
H375 C371 0.930 . S
C376 N377 1.314 . S
C376 C378 1.353 . S
C376 H382 0.930 . S
N377 Li353 1.990 . S
N377 C376 1.314 . S
N377 C380 1.279 . S
C378 C376 1.353 . S
C378 C381 1.348 . S
C378 H426 0.929 . S
C379 C380 1.358 . S
C379 C381 1.356 . S
C379 H427 0.930 . S
C380 N377 1.279 . S
C380 C379 1.358 . S
C380 H383 0.930 . S
C381 C378 1.348 . S
C381 C379 1.356 . S
H382 C376 0.930 . S
H383 C380 0.930 . S
C384 C386 1.348 . S
C384 C387 1.356 . S
C384 O414 1.325 . S
N385 C388 1.314 . S
N385 C389 1.279 . S
C386 C384 1.348 . S
C386 C388 1.353 . S
C386 H428 0.929 . S
C387 C384 1.356 . S
C387 C389 1.358 . S
C387 H429 0.930 . S
C388 N385 1.314 . S
C388 C386 1.353 . S
C388 H430 0.930 . S
C389 N385 1.279 . S
C389 C387 1.358 . S
C389 H431 0.930 . S
C390 C391 1.348 . S
C390 C392 1.356 1_556 S
C390 O415 1.321 1_556 S
C391 C390 1.348 . S
C391 C393 1.353 . S
C391 H432 0.929 . S
C392 C390 1.356 1_554 S
C392 C394 1.358 . S
C392 H433 0.930 . S
C393 C391 1.353 . S
C393 N395 1.314 . S
C393 H434 0.930 . S
C394 C392 1.358 . S
C394 N395 1.279 1_554 S
C394 H435 0.930 . S
N395 C393 1.314 . S
N395 C394 1.279 1_556 S
C396 C398 1.353 . S
C396 N399 1.314 . S
C396 H402 0.930 . S
C397 N399 1.279 . S
C397 C400 1.358 . S
C397 H403 0.930 . S
C398 C396 1.353 . S
C398 C401 1.348 . S
C398 H436 0.929 . S
N399 Li354 1.990 . S
N399 C396 1.314 . S
N399 C397 1.279 . S
C400 C397 1.358 . S
C400 C401 1.356 . S
C400 H437 0.930 . S
C401 C398 1.348 . S
C401 C400 1.356 . S
H402 C396 0.930 . S
H403 C397 0.930 . S
C404 N405 1.314 . S
C404 C406 1.353 . S
C404 H410 0.930 1_556 S
N405 Li355 1.990 1_556 S
N405 C404 1.314 . S
N405 C408 1.279 . S
C406 C404 1.353 . S
C406 C409 1.348 . S
C406 H438 0.929 . S
C407 C408 1.358 . S
C407 C409 1.356 . S
C407 H439 0.930 . S
C408 N405 1.279 . S
C408 C407 1.358 . S
C408 H411 0.930 . S
C409 C406 1.348 . S
C409 C407 1.356 . S
H410 C404 0.930 1_554 S
H411 C408 0.930 . S
O412 Li352 1.956 . S
O412 Li353 1.970 . S
O412 Li354 1.961 1_554 S
O412 C356 1.325 . S
O413 Li352 1.970 . S
O413 Li353 1.956 . S
O413 Li355 1.961 . S
O413 C362 1.325 . S
O414 Li352 1.961 1_556 S
O414 Li354 1.956 . S
O414 Li355 1.970 1_556 S
O414 C384 1.325 . S
O415 Li353 1.976 . S
O415 Li354 1.963 1_554 S
O415 Li355 1.957 . S
O415 C390 1.321 1_554 S
H416 C358 0.929 . S
H417 C359 0.930 1_556 S
H418 C360 0.930 . S
H419 C361 0.943 . S
H420 C363 0.930 . S
H421 C365 0.929 . S
H422 C366 0.930 . S
H423 C367 0.930 . S
H424 C370 0.930 . S
H425 C373 0.929 . S
H426 C378 0.929 . S
H427 C379 0.930 . S
H428 C386 0.929 . S
H429 C387 0.930 . S
H430 C388 0.930 . S
H431 C389 0.930 . S
H432 C391 0.929 . S
H433 C392 0.930 . S
H434 C393 0.930 . S
H435 C394 0.930 . S
H436 C398 0.929 . S
H437 C400 0.930 . S
H438 C406 0.929 . S
H439 C407 0.930 . S
Li440 N457 1.990 . S
Li440 O500 1.956 . S
Li440 O501 1.970 1_565 S
Li440 O502 1.961 1_554 S
Li441 N465 1.990 . S
Li441 O500 1.970 1_545 S
Li441 O501 1.956 . S
Li441 O503 1.961 . S
Li442 N487 1.990 . S
Li442 O500 1.961 1_556 S
Li442 O502 1.956 . S
Li442 O503 1.970 1_566 S
Li443 N493 1.990 1_554 S
Li443 O501 1.961 . S
Li443 O502 1.970 1_544 S
Li443 O503 1.956 . S
C444 C446 1.348 . S
C444 C447 1.356 . S
C444 O500 1.325 . S
N445 C448 1.314 . S
N445 C449 1.279 . S
C446 C444 1.348 . S
C446 C448 1.353 . S
C446 H504 0.929 . S
C447 C444 1.356 . S
C447 C449 1.358 . S
C447 H505 0.930 1_554 S
C448 N445 1.314 . S
C448 C446 1.353 . S
C448 H506 0.930 . S
C449 N445 1.279 . S
C449 C447 1.358 . S
C449 H507 0.930 1_554 S
C450 C453 1.348 1_545 S
C450 C454 1.356 . S
C450 O501 1.325 . S
C451 N452 1.279 . S
C451 C454 1.358 . S
C451 H508 0.930 . S
N452 C451 1.279 . S
N452 C455 1.282 1_545 S
C453 C450 1.348 1_565 S
C453 C455 1.351 . S
C453 H509 0.929 . S
C454 C450 1.356 . S
C454 C451 1.358 . S
C454 H510 0.930 . S
C455 N452 1.282 1_565 S
C455 C453 1.351 . S
C455 H511 0.970 . S
C456 N457 1.314 . S
C456 C461 1.353 . S
C456 H462 0.930 . S
N457 Li440 1.990 . S
N457 C456 1.314 . S
N457 C459 1.279 . S
C458 C459 1.358 . S
C458 C460 1.356 . S
C458 H512 0.930 . S
C459 N457 1.279 . S
C459 C458 1.358 . S
C459 H463 0.930 . S
C460 C458 1.356 . S
C460 C461 1.348 . S
C461 C456 1.353 . S
C461 C460 1.348 . S
C461 H513 0.929 . S
H462 C456 0.930 . S
H463 C459 0.930 . S
C464 N465 1.314 . S
C464 C466 1.353 . S
C464 H470 0.930 . S
N465 Li441 1.990 . S
N465 C464 1.314 . S
N465 C468 1.279 . S
C466 C464 1.353 . S
C466 C469 1.348 . S
C466 H514 0.929 . S
C467 C468 1.358 . S
C467 C469 1.356 . S
C467 H515 0.930 . S
C468 N465 1.279 . S
C468 C467 1.358 . S
C468 H471 0.930 . S
C469 C466 1.348 . S
C469 C467 1.356 . S
H470 C464 0.930 . S
H471 C468 0.930 . S
C472 C474 1.348 1_565 S
C472 C475 1.356 . S
C472 O502 1.325 . S
N473 C476 1.286 1_565 S
N473 C477 1.279 . S
C474 C472 1.348 1_545 S
C474 C476 1.370 . S
C474 H516 0.929 . S
C475 C472 1.356 . S
C475 C477 1.358 . S
C475 H517 0.930 . S
C476 N473 1.286 1_545 S
C476 C474 1.370 . S
C476 H518 0.944 . S
C477 N473 1.279 . S
C477 C475 1.358 . S
C477 H519 0.930 . S
C478 C479 1.348 . S
C478 C480 1.356 1_556 S
C478 O503 1.325 1_556 S
C479 C478 1.348 . S
C479 C481 1.353 . S
C479 H520 0.929 . S
C480 C478 1.356 1_554 S
C480 C482 1.358 . S
C480 H521 0.930 . S
C481 C479 1.353 . S
C481 N483 1.314 . S
C481 H522 0.930 . S
C482 C480 1.358 . S
C482 N483 1.279 1_554 S
C482 H523 0.930 . S
N483 C481 1.314 . S
N483 C482 1.279 1_556 S
C484 C486 1.353 . S
C484 N487 1.314 . S
C484 H490 0.930 . S
C485 N487 1.279 . S
C485 C488 1.358 . S
C485 H491 0.930 . S
C486 C484 1.353 . S
C486 C489 1.348 . S
C486 H524 0.929 . S
N487 Li442 1.990 . S
N487 C484 1.314 . S
N487 C485 1.279 . S
C488 C485 1.358 . S
C488 C489 1.356 . S
C488 H525 0.930 . S
C489 C486 1.348 . S
C489 C488 1.356 . S
H490 C484 0.930 . S
H491 C485 0.930 . S
C492 N493 1.314 1_554 S
C492 C494 1.353 1_554 S
C492 H498 0.930 . S
N493 Li443 1.990 1_556 S
N493 C492 1.314 1_556 S
N493 C496 1.279 . S
C494 C492 1.353 1_556 S
C494 C497 1.348 . S
C494 H526 0.929 1_556 S
C495 C496 1.358 . S
C495 C497 1.356 . S
C495 H527 0.930 . S
C496 N493 1.279 . S
C496 C495 1.358 . S
C496 H499 0.930 . S
C497 C494 1.348 . S
C497 C495 1.356 . S
H498 C492 0.930 . S
H499 C496 0.930 . S
O500 Li440 1.956 . S
O500 Li441 1.970 1_565 S
O500 Li442 1.961 1_554 S
O500 C444 1.325 . S
O501 Li440 1.970 1_545 S
O501 Li441 1.956 . S
O501 Li443 1.961 . S
O501 C450 1.325 . S
O502 Li440 1.961 1_556 S
O502 Li442 1.956 . S
O502 Li443 1.970 1_566 S
O502 C472 1.325 . S
O503 Li441 1.961 . S
O503 Li442 1.970 1_544 S
O503 Li443 1.956 . S
O503 C478 1.325 1_554 S
H504 C446 0.929 . S
H505 C447 0.930 1_556 S
H506 C448 0.930 . S
H507 C449 0.930 1_556 S
H508 C451 0.930 . S
H509 C453 0.929 . S
H510 C454 0.930 . S
H511 C455 0.970 . S
H512 C458 0.930 . S
H513 C461 0.929 . S
H514 C466 0.929 . S
H515 C467 0.930 . S
H516 C474 0.929 . S
H517 C475 0.930 . S
H518 C476 0.944 . S
H519 C477 0.930 . S
H520 C479 0.929 . S
H521 C480 0.930 . S
H522 C481 0.930 . S
H523 C482 0.930 . S
H524 C486 0.929 . S
H525 C488 0.930 . S
H526 C494 0.929 1_554 S
H527 C495 0.930 . S
Li528 N545 1.990 . S
Li528 O588 1.956 . S
Li528 O589 1.970 . S
Li528 O590 1.961 . S
Li529 N553 1.990 . S
Li529 O588 1.970 . S
Li529 O589 1.956 . S
Li529 O591 1.961 . S
Li530 N575 1.990 . S
Li530 O588 1.961 . S
Li530 O590 1.956 . S
Li530 O591 1.970 . S
Li531 N581 1.990 . S
Li531 O589 1.961 . S
Li531 O590 1.970 . S
Li531 O591 1.956 . S
C532 C534 1.348 . S
C532 C535 1.356 . S
C532 O588 1.325 . S
N533 C536 1.314 . S
N533 C537 1.279 . S
C534 C532 1.348 . S
C534 C536 1.353 . S
C534 H592 0.929 . S
C535 C532 1.356 . S
C535 C537 1.358 . S
C535 H593 0.930 . S
C536 N533 1.314 . S
C536 C534 1.353 . S
C536 H594 0.930 . S
C537 N533 1.279 . S
C537 C535 1.358 . S
C537 H595 0.930 . S
C538 C541 1.348 . S
C538 C542 1.356 . S
C538 O589 1.325 . S
C539 N540 1.279 . S
C539 C542 1.358 . S
C539 H596 0.930 . S
N540 C539 1.279 . S
N540 C543 1.314 . S
C541 C538 1.348 . S
C541 C543 1.353 . S
C541 H597 0.929 . S
C542 C538 1.356 . S
C542 C539 1.358 . S
C542 H598 0.930 . S
C543 N540 1.314 . S
C543 C541 1.353 . S
C543 H599 0.930 . S
C544 N545 1.314 . S
C544 C549 1.353 . S
C544 H550 0.930 . S
N545 Li528 1.990 . S
N545 C544 1.314 . S
N545 C547 1.279 . S
C546 C547 1.358 . S
C546 C548 1.356 . S
C546 H600 0.930 . S
C547 N545 1.279 . S
C547 C546 1.358 . S
C547 H551 0.930 . S
C548 C546 1.356 . S
C548 C549 1.348 . S
C549 C544 1.353 . S
C549 C548 1.348 . S
C549 H601 0.929 . S
H550 C544 0.930 . S
H551 C547 0.930 . S
C552 N553 1.314 . S
C552 C554 1.353 . S
C552 H558 0.930 . S
N553 Li529 1.990 . S
N553 C552 1.314 . S
N553 C556 1.279 . S
C554 C552 1.353 . S
C554 C557 1.348 . S
C554 H602 0.929 . S
C555 C556 1.358 . S
C555 C557 1.356 . S
C555 H603 0.930 . S
C556 N553 1.279 . S
C556 C555 1.358 . S
C556 H559 0.930 . S
C557 C554 1.348 . S
C557 C555 1.356 . S
H558 C552 0.930 . S
H559 C556 0.930 . S
C560 C562 1.348 . S
C560 C563 1.356 . S
C560 O590 1.325 . S
N561 C564 1.314 . S
N561 C565 1.279 . S
C562 C560 1.348 . S
C562 C564 1.353 . S
C562 H604 0.929 . S
C563 C560 1.356 . S
C563 C565 1.358 . S
C563 H605 0.930 . S
C564 N561 1.314 . S
C564 C562 1.353 . S
C564 H606 0.930 . S
C565 N561 1.279 . S
C565 C563 1.358 . S
C565 H607 0.930 . S
C566 C567 1.348 . S
C566 C568 1.356 . S
C566 O591 1.325 . S
C567 C566 1.348 . S
C567 C569 1.353 . S
C567 H608 0.929 . S
C568 C566 1.356 . S
C568 C570 1.358 . S
C568 H609 0.930 . S
C569 C567 1.353 . S
C569 N571 1.314 . S
C569 H610 0.930 . S
C570 C568 1.358 . S
C570 N571 1.279 . S
C570 H611 0.930 . S
N571 C569 1.314 . S
N571 C570 1.279 . S
C572 C574 1.353 . S
C572 N575 1.314 . S
C572 H578 0.930 . S
C573 N575 1.279 . S
C573 C576 1.358 . S
C573 H579 0.930 . S
C574 C572 1.353 . S
C574 C577 1.348 . S
C574 H612 0.929 . S
N575 Li530 1.990 . S
N575 C572 1.314 . S
N575 C573 1.279 . S
C576 C573 1.358 . S
C576 C577 1.356 . S
C576 H613 0.930 . S
C577 C574 1.348 . S
C577 C576 1.356 . S
H578 C572 0.930 . S
H579 C573 0.930 . S
C580 N581 1.314 . S
C580 C582 1.353 . S
C580 H586 0.930 . S
N581 Li531 1.990 . S
N581 C580 1.314 . S
N581 C584 1.279 . S
C582 C580 1.353 . S
C582 C585 1.348 . S
C582 H614 0.929 . S
C583 C584 1.358 . S
C583 C585 1.356 . S
C583 H615 0.930 . S
C584 N581 1.279 . S
C584 C583 1.358 . S
C584 H587 0.930 . S
C585 C582 1.348 . S
C585 C583 1.356 . S
H586 C580 0.930 . S
H587 C584 0.930 . S
O588 Li528 1.956 . S
O588 Li529 1.970 . S
O588 Li530 1.961 . S
O588 C532 1.325 . S
O589 Li528 1.970 . S
O589 Li529 1.956 . S
O589 Li531 1.961 . S
O589 C538 1.325 . S
O590 Li528 1.961 . S
O590 Li530 1.956 . S
O590 Li531 1.970 . S
O590 C560 1.325 . S
O591 Li529 1.961 . S
O591 Li530 1.970 . S
O591 Li531 1.956 . S
O591 C566 1.325 . S
H592 C534 0.929 . S
H593 C535 0.930 . S
H594 C536 0.930 . S
H595 C537 0.930 . S
H596 C539 0.930 . S
H597 C541 0.929 . S
H598 C542 0.930 . S
H599 C543 0.930 . S
H600 C546 0.930 . S
H601 C549 0.929 . S
H602 C554 0.929 . S
H603 C555 0.930 . S
H604 C562 0.929 . S
H605 C563 0.930 . S
H606 C564 0.930 . S
H607 C565 0.930 . S
H608 C567 0.929 . S
H609 C568 0.930 . S
H610 C569 0.930 . S
H611 C570 0.930 . S
H612 C574 0.929 . S
H613 C576 0.930 . S
H614 C582 0.929 . S
H615 C583 0.930 . S
Li616 N633 1.990 . S
Li616 O676 1.956 . S
Li616 O677 1.970 . S
Li616 O678 1.961 . S
Li617 N641 1.990 . S
Li617 O676 1.970 . S
Li617 O677 1.956 . S
Li617 O679 1.961 . S
Li618 N663 1.990 . S
Li618 O676 1.961 1_545 S
Li618 O678 1.956 1_545 S
Li618 O679 1.970 1_545 S
Li619 N669 1.990 . S
Li619 O677 1.961 . S
Li619 O678 1.970 . S
Li619 O679 1.956 . S
C620 C622 1.348 . S
C620 C623 1.356 . S
C620 O676 1.325 . S
N621 C624 1.314 . S
N621 C625 1.279 . S
C622 C620 1.348 . S
C622 C624 1.353 . S
C622 H680 0.929 . S
C623 C620 1.356 . S
C623 C625 1.358 . S
C623 H681 0.950 . S
C624 N621 1.314 . S
C624 C622 1.353 . S
C624 H682 0.930 . S
C625 N621 1.279 . S
C625 C623 1.358 . S
C625 H683 0.930 . S
C626 C629 1.348 . S
C626 C630 1.356 . S
C626 O677 1.325 . S
C627 N628 1.279 . S
C627 C630 1.358 . S
C627 H684 0.930 . S
N628 C627 1.279 . S
N628 C631 1.314 . S
C629 C626 1.348 . S
C629 C631 1.353 . S
C629 H685 0.929 . S
C630 C626 1.356 . S
C630 C627 1.358 . S
C630 H686 0.930 . S
C631 N628 1.314 . S
C631 C629 1.353 . S
C631 H687 0.930 . S
C632 N633 1.314 . S
C632 C637 1.353 . S
C632 H638 0.930 . S
N633 Li616 1.990 . S
N633 C632 1.314 . S
N633 C635 1.279 . S
C634 C635 1.358 . S
C634 C636 1.356 . S
C634 H688 0.930 . S
C635 N633 1.279 . S
C635 C634 1.358 . S
C635 H639 0.930 . S
C636 C634 1.356 . S
C636 C637 1.348 . S
C637 C632 1.353 . S
C637 C636 1.348 . S
C637 H689 0.929 . S
H638 C632 0.930 . S
H639 C635 0.930 . S
C640 N641 1.314 . S
C640 C642 1.353 . S
C640 H646 0.930 . S
N641 Li617 1.990 . S
N641 C640 1.314 . S
N641 C644 1.279 . S
C642 C640 1.353 . S
C642 C645 1.348 . S
C642 H690 0.929 . S
C643 C644 1.358 . S
C643 C645 1.356 . S
C643 H691 0.930 . S
C644 N641 1.279 . S
C644 C643 1.358 . S
C644 H647 0.930 . S
C645 C642 1.348 . S
C645 C643 1.356 . S
H646 C640 0.930 . S
H647 C644 0.930 . S
C648 C650 1.348 . S
C648 C651 1.356 . S
C648 O678 1.325 1_545 S
N649 C652 1.314 . S
N649 C653 1.279 . S
C650 C648 1.348 . S
C650 C652 1.353 . S
C650 H692 0.929 . S
C651 C648 1.356 . S
C651 C653 1.358 . S
C651 H693 0.930 . S
C652 N649 1.314 . S
C652 C650 1.353 . S
C652 H694 0.930 . S
C653 N649 1.279 . S
C653 C651 1.358 . S
C653 H695 0.930 . S
C654 C655 1.348 1_565 S
C654 C656 1.356 . S
C654 O679 1.325 . S
C655 C654 1.348 1_545 S
C655 C657 1.353 . S
C655 H696 0.929 . S
C656 C654 1.356 . S
C656 C658 1.358 . S
C656 H697 0.930 . S
C657 C655 1.353 . S
C657 N659 1.314 . S
C657 H698 0.930 . S
C658 C656 1.358 . S
C658 N659 1.279 1_565 S
C658 H699 0.930 . S
N659 C657 1.314 . S
N659 C658 1.279 1_545 S
C660 C662 1.353 . S
C660 N663 1.314 . S
C660 H666 0.930 . S
C661 N663 1.279 . S
C661 C664 1.358 . S
C661 H667 0.930 . S
C662 C660 1.353 . S
C662 C665 1.348 . S
C662 H700 0.929 . S
N663 Li618 1.990 . S
N663 C660 1.314 . S
N663 C661 1.279 . S
C664 C661 1.358 . S
C664 C665 1.356 . S
C664 H701 0.930 . S
C665 C662 1.348 . S
C665 C664 1.356 . S
H666 C660 0.930 . S
H667 C661 0.930 . S
C668 N669 1.314 . S
C668 C670 1.353 . S
C668 H674 0.930 . S
N669 Li619 1.990 . S
N669 C668 1.314 . S
N669 C672 1.279 . S
C670 C668 1.353 . S
C670 C673 1.348 . S
C670 H702 0.929 . S
C671 C672 1.358 . S
C671 C673 1.356 . S
C671 H703 0.930 1_565 S
C672 N669 1.279 . S
C672 C671 1.358 . S
C672 H675 0.930 1_565 S
C673 C670 1.348 . S
C673 C671 1.356 . S
H674 C668 0.930 . S
H675 C672 0.930 1_545 S
O676 Li616 1.956 . S
O676 Li617 1.970 . S
O676 Li618 1.961 1_565 S
O676 C620 1.325 . S
O677 Li616 1.970 . S
O677 Li617 1.956 . S
O677 Li619 1.961 . S
O677 C626 1.325 . S
O678 Li616 1.961 . S
O678 Li618 1.956 1_565 S
O678 Li619 1.970 . S
O678 C648 1.325 1_565 S
O679 Li617 1.961 . S
O679 Li618 1.970 1_565 S
O679 Li619 1.956 . S
O679 C654 1.325 . S
H680 C622 0.929 . S
H681 C623 0.950 . S
H682 C624 0.930 . S
H683 C625 0.930 . S
H684 C627 0.930 . S
H685 C629 0.929 . S
H686 C630 0.930 . S
H687 C631 0.930 . S
H688 C634 0.930 . S
H689 C637 0.929 . S
H690 C642 0.929 . S
H691 C643 0.930 . S
H692 C650 0.929 . S
H693 C651 0.930 . S
H694 C652 0.930 . S
H695 C653 0.930 . S
H696 C655 0.929 . S
H697 C656 0.930 . S
H698 C657 0.930 . S
H699 C658 0.930 . S
H700 C662 0.929 . S
H701 C664 0.930 . S
H702 C670 0.929 . S
H703 C671 0.930 1_545 S
Li704 N721 1.990 . S
Li704 O764 1.956 . S
Li704 O765 1.970 . S
Li704 O766 1.961 . S
Li705 N729 1.990 . S
Li705 O764 1.970 . S
Li705 O765 1.956 . S
Li705 O767 1.961 . S
Li706 N751 1.990 . S
Li706 O764 1.961 1_655 S
Li706 O766 1.956 1_655 S
Li706 O767 1.970 1_655 S
Li707 N757 1.990 . S
Li707 O765 1.961 . S
Li707 O766 1.970 . S
Li707 O767 1.956 . S
C708 C710 1.348 . S
C708 C711 1.356 . S
C708 O764 1.325 . S
N709 C712 1.314 . S
N709 C713 1.279 . S
C710 C708 1.348 . S
C710 C712 1.353 . S
C710 H768 0.929 . S
C711 C708 1.356 . S
C711 C713 1.358 . S
C711 H769 0.930 . S
C712 N709 1.314 . S
C712 C710 1.353 . S
C712 H770 0.930 . S
C713 N709 1.279 . S
C713 C711 1.358 . S
C713 H771 0.930 . S
C714 C717 1.348 . S
C714 C718 1.356 . S
C714 O765 1.325 . S
C715 N716 1.279 . S
C715 C718 1.358 . S
C715 H772 0.930 . S
N716 C715 1.279 . S
N716 C719 1.314 . S
C717 C714 1.348 . S
C717 C719 1.353 . S
C717 H773 0.929 . S
C718 C714 1.356 . S
C718 C715 1.358 . S
C718 H774 0.930 . S
C719 N716 1.314 . S
C719 C717 1.353 . S
C719 H775 0.930 . S
C720 N721 1.314 . S
C720 C725 1.353 . S
C720 H726 0.930 . S
N721 Li704 1.990 . S
N721 C720 1.314 . S
N721 C723 1.279 . S
C722 C723 1.358 . S
C722 C724 1.356 . S
C722 H776 0.930 . S
C723 N721 1.279 . S
C723 C722 1.358 . S
C723 H727 0.930 . S
C724 C722 1.356 . S
C724 C725 1.348 . S
C725 C720 1.353 . S
C725 C724 1.348 . S
C725 H777 0.929 . S
H726 C720 0.930 . S
H727 C723 0.930 . S
C728 N729 1.314 . S
C728 C730 1.353 . S
C728 H734 0.930 . S
N729 Li705 1.990 . S
N729 C728 1.314 . S
N729 C732 1.279 . S
C730 C728 1.353 . S
C730 C733 1.348 . S
C730 H778 0.929 . S
C731 C732 1.358 . S
C731 C733 1.356 . S
C731 H779 0.930 . S
C732 N729 1.279 . S
C732 C731 1.358 . S
C732 H735 0.930 . S
C733 C730 1.348 . S
C733 C731 1.356 . S
H734 C728 0.930 . S
H735 C732 0.930 . S
C736 C738 1.348 . S
C736 C739 1.356 . S
C736 O766 1.325 1_655 S
N737 C740 1.314 . S
N737 C741 1.279 . S
C738 C736 1.348 . S
C738 C740 1.353 . S
C738 H780 0.929 . S
C739 C736 1.356 . S
C739 C741 1.358 . S
C739 H781 0.930 . S
C740 N737 1.314 . S
C740 C738 1.353 . S
C740 H782 0.930 . S
C741 N737 1.279 . S
C741 C739 1.358 . S
C741 H783 0.930 . S
C742 C743 1.348 1_455 S
C742 C744 1.356 . S
C742 O767 1.325 . S
C743 C742 1.348 1_655 S
C743 C745 1.353 . S
C743 H784 0.929 . S
C744 C742 1.356 . S
C744 C746 1.358 . S
C744 H785 0.930 . S
C745 C743 1.353 . S
C745 N747 1.314 . S
C745 H786 0.930 . S
C746 C744 1.358 . S
C746 N747 1.279 1_455 S
C746 H787 0.930 . S
N747 C745 1.314 . S
N747 C746 1.279 1_655 S
C748 C750 1.353 . S
C748 N751 1.314 . S
C748 H754 0.930 . S
C749 N751 1.279 . S
C749 C752 1.358 . S
C749 H755 0.930 . S
C750 C748 1.353 . S
C750 C753 1.348 . S
C750 H788 0.929 . S
N751 Li706 1.990 . S
N751 C748 1.314 . S
N751 C749 1.279 . S
C752 C749 1.358 . S
C752 C753 1.356 . S
C752 H789 0.930 . S
C753 C750 1.348 . S
C753 C752 1.356 . S
H754 C748 0.930 . S
H755 C749 0.930 . S
C756 N757 1.314 . S
C756 C758 1.353 . S
C756 H762 0.930 . S
N757 Li707 1.990 . S
N757 C756 1.314 . S
N757 C760 1.279 . S
C758 C756 1.353 . S
C758 C761 1.348 . S
C758 H790 0.929 . S
C759 C760 1.358 . S
C759 C761 1.356 . S
C759 H791 0.930 1_455 S
C760 N757 1.279 . S
C760 C759 1.358 . S
C760 H763 0.931 1_455 S
C761 C758 1.348 . S
C761 C759 1.356 . S
H762 C756 0.930 . S
H763 C760 0.931 1_655 S
O764 Li704 1.956 . S
O764 Li705 1.970 . S
O764 Li706 1.961 1_455 S
O764 C708 1.325 . S
O765 Li704 1.970 . S
O765 Li705 1.956 . S
O765 Li707 1.961 . S
O765 C714 1.325 . S
O766 Li704 1.961 . S
O766 Li706 1.956 1_455 S
O766 Li707 1.970 . S
O766 C736 1.325 1_455 S
O767 Li705 1.961 . S
O767 Li706 1.970 1_455 S
O767 Li707 1.956 . S
O767 C742 1.325 . S
H768 C710 0.929 . S
H769 C711 0.930 . S
H770 C712 0.930 . S
H771 C713 0.930 . S
H772 C715 0.930 . S
H773 C717 0.929 . S
H774 C718 0.930 . S
H775 C719 0.930 . S
H776 C722 0.930 . S
H777 C725 0.929 . S
H778 C730 0.929 . S
H779 C731 0.930 . S
H780 C738 0.929 . S
H781 C739 0.930 . S
H782 C740 0.930 . S
H783 C741 0.930 . S
H784 C743 0.929 . S
H785 C744 0.930 . S
H786 C745 0.930 . S
H787 C746 0.930 . S
H788 C750 0.929 . S
H789 C752 0.930 . S
H790 C758 0.929 . S
H791 C759 0.930 1_655 S
Li792 N809 1.990 . S
Li792 O852 1.956 1_545 S
Li792 O853 1.970 1_545 S
Li792 O854 1.961 1_545 S
Li793 N817 1.990 . S
Li793 O852 1.970 . S
Li793 O853 1.956 . S
Li793 O855 1.961 . S
Li794 N839 1.990 . S
Li794 O852 1.961 . S
Li794 O854 1.956 . S
Li794 O855 1.970 . S
Li795 N845 1.990 . S
Li795 O853 1.961 . S
Li795 O854 1.970 . S
Li795 O855 1.956 . S
C796 C798 1.348 . S
C796 C799 1.356 . S
C796 O852 1.325 . S
N797 C800 1.314 . S
N797 C801 1.279 . S
C798 C796 1.348 . S
C798 C800 1.353 . S
C798 H856 0.929 . S
C799 C796 1.356 . S
C799 C801 1.358 . S
C799 H857 0.930 . S
C800 N797 1.314 . S
C800 C798 1.353 . S
C800 H858 0.930 . S
C801 N797 1.279 . S
C801 C799 1.358 . S
C801 H859 0.930 . S
C802 C805 1.348 1_565 S
C802 C806 1.356 . S
C802 O853 1.325 . S
C803 N804 1.279 1_565 S
C803 C806 1.358 . S
C803 H860 0.930 . S
N804 C803 1.279 1_545 S
N804 C807 1.314 . S
C805 C802 1.348 1_545 S
C805 C807 1.353 . S
C805 H861 0.929 . S
C806 C802 1.356 . S
C806 C803 1.358 . S
C806 H862 0.930 . S
C807 N804 1.314 . S
C807 C805 1.353 . S
C807 H863 0.930 . S
C808 N809 1.314 . S
C808 C813 1.353 . S
C808 H814 0.930 . S
N809 Li792 1.990 . S
N809 C808 1.314 . S
N809 C811 1.279 . S
C810 C811 1.358 . S
C810 C812 1.356 . S
C810 H864 0.930 . S
C811 N809 1.279 . S
C811 C810 1.358 . S
C811 H815 0.930 . S
C812 C810 1.356 . S
C812 C813 1.348 . S
C813 C808 1.353 . S
C813 C812 1.348 . S
C813 H865 0.929 . S
H814 C808 0.930 . S
H815 C811 0.930 . S
C816 N817 1.314 . S
C816 C818 1.353 . S
C816 H822 0.930 . S
N817 Li793 1.990 . S
N817 C816 1.314 . S
N817 C820 1.279 . S
C818 C816 1.353 . S
C818 C821 1.348 . S
C818 H866 0.929 . S
C819 C820 1.358 . S
C819 C821 1.356 . S
C819 H867 0.930 . S
C820 N817 1.279 . S
C820 C819 1.358 . S
C820 H823 0.930 . S
C821 C818 1.348 . S
C821 C819 1.356 . S
H822 C816 0.930 . S
H823 C820 0.930 . S
C824 C826 1.348 . S
C824 C827 1.356 . S
C824 O854 1.325 1_545 S
N825 C828 1.314 . S
N825 C829 1.279 . S
C826 C824 1.348 . S
C826 C828 1.353 . S
C826 H868 0.925 1_545 S
C827 C824 1.356 . S
C827 C829 1.358 . S
C827 H869 0.930 . S
C828 N825 1.314 . S
C828 C826 1.353 . S
C828 H870 0.930 . S
C829 N825 1.279 . S
C829 C827 1.358 . S
C829 H871 0.930 . S
C830 C831 1.348 . S
C830 C832 1.356 . S
C830 O855 1.325 . S
C831 C830 1.348 . S
C831 C833 1.353 . S
C831 H872 0.929 . S
C832 C830 1.356 . S
C832 C834 1.358 . S
C832 H873 0.930 . S
C833 C831 1.353 . S
C833 N835 1.314 . S
C833 H874 0.930 . S
C834 C832 1.358 . S
C834 N835 1.279 . S
C834 H875 0.930 . S
N835 C833 1.314 . S
N835 C834 1.279 . S
C836 C838 1.353 . S
C836 N839 1.314 . S
C836 H842 0.930 . S
C837 N839 1.279 . S
C837 C840 1.358 . S
C837 H843 0.930 . S
C838 C836 1.353 . S
C838 C841 1.348 . S
C838 H876 0.929 . S
N839 Li794 1.990 . S
N839 C836 1.314 . S
N839 C837 1.279 . S
C840 C837 1.358 . S
C840 C841 1.356 . S
C840 H877 0.930 . S
C841 C838 1.348 . S
C841 C840 1.356 . S
H842 C836 0.930 . S
H843 C837 0.930 . S
C844 N845 1.314 . S
C844 C846 1.315 1_565 S
C844 H850 0.930 1_565 S
N845 Li795 1.990 . S
N845 C844 1.314 . S
N845 C848 1.279 . S
C846 C844 1.315 1_545 S
C846 C849 1.327 1_545 S
C846 H878 0.990 . S
C847 C848 1.358 . S
C847 C849 1.356 . S
C847 H879 0.930 . S
C848 N845 1.279 . S
C848 C847 1.358 . S
C848 H851 0.930 . S
C849 C846 1.327 1_565 S
C849 C847 1.356 . S
H850 C844 0.930 1_545 S
H851 C848 0.930 . S
O852 Li792 1.956 1_565 S
O852 Li793 1.970 . S
O852 Li794 1.961 . S
O852 C796 1.325 . S
O853 Li792 1.970 1_565 S
O853 Li793 1.956 . S
O853 Li795 1.961 . S
O853 C802 1.325 . S
O854 Li792 1.961 1_565 S
O854 Li794 1.956 . S
O854 Li795 1.970 . S
O854 C824 1.325 1_565 S
O855 Li793 1.961 . S
O855 Li794 1.970 . S
O855 Li795 1.956 . S
O855 C830 1.325 . S
H856 C798 0.929 . S
H857 C799 0.930 . S
H858 C800 0.930 . S
H859 C801 0.930 . S
H860 C803 0.930 . S
H861 C805 0.929 . S
H862 C806 0.930 . S
H863 C807 0.930 . S
H864 C810 0.930 . S
H865 C813 0.929 . S
H866 C818 0.929 . S
H867 C819 0.930 . S
H868 C826 0.925 1_565 S
H869 C827 0.930 . S
H870 C828 0.930 . S
H871 C829 0.930 . S
H872 C831 0.929 . S
H873 C832 0.930 . S
H874 C833 0.930 . S
H875 C834 0.930 . S
H876 C838 0.929 . S
H877 C840 0.930 . S
H878 C846 0.990 . S
H879 C847 0.930 . S
Li880 N897 1.990 . S
Li880 O940 1.956 . S
Li880 O941 1.970 . S
Li880 O942 1.961 . S
Li881 N905 1.990 . S
Li881 O940 1.970 1_655 S
Li881 O941 1.956 1_655 S
Li881 O943 1.961 1_655 S
Li882 N927 1.990 . S
Li882 O940 1.961 . S
Li882 O942 1.956 . S
Li882 O943 1.970 . S
Li883 N933 1.990 . S
Li883 O941 1.961 . S
Li883 O942 1.970 . S
Li883 O943 1.956 . S
C884 C886 1.348 1_455 S
C884 C887 1.356 . S
C884 O940 1.325 . S
N885 C888 1.314 . S
N885 C889 1.279 1_655 S
C886 C884 1.348 1_655 S
C886 C888 1.353 . S
C886 H944 0.929 . S
C887 C884 1.356 . S
C887 C889 1.358 . S
C887 H945 0.930 . S
C888 N885 1.314 . S
C888 C886 1.353 . S
C888 H946 0.930 . S
C889 N885 1.279 1_455 S
C889 C887 1.358 . S
C889 H947 0.930 . S
C890 C893 1.348 . S
C890 C894 1.356 . S
C890 O941 1.325 . S
C891 N892 1.279 . S
C891 C894 1.358 . S
C891 H948 0.930 . S
N892 C891 1.279 . S
N892 C895 1.314 . S
C893 C890 1.348 . S
C893 C895 1.353 . S
C893 H949 0.929 . S
C894 C890 1.356 . S
C894 C891 1.358 . S
C894 H950 0.930 . S
C895 N892 1.314 . S
C895 C893 1.353 . S
C895 H951 0.930 . S
C896 N897 1.314 . S
C896 C901 1.353 . S
C896 H902 0.930 . S
N897 Li880 1.990 . S
N897 C896 1.314 . S
N897 C899 1.279 . S
C898 C899 1.358 . S
C898 C900 1.356 . S
C898 H952 0.930 . S
C899 N897 1.279 . S
C899 C898 1.358 . S
C899 H903 0.930 . S
C900 C898 1.356 . S
C900 C901 1.348 . S
C901 C896 1.353 . S
C901 C900 1.348 . S
C901 H953 0.929 . S
H902 C896 0.930 . S
H903 C899 0.930 . S
C904 N905 1.314 . S
C904 C906 1.353 . S
C904 H910 0.930 . S
N905 Li881 1.990 . S
N905 C904 1.314 . S
N905 C908 1.279 . S
C906 C904 1.353 . S
C906 C909 1.348 . S
C906 H954 0.929 . S
C907 C908 1.358 . S
C907 C909 1.356 . S
C907 H955 0.930 . S
C908 N905 1.279 . S
C908 C907 1.358 . S
C908 H911 0.930 . S
C909 C906 1.348 . S
C909 C907 1.356 . S
H910 C904 0.930 . S
H911 C908 0.930 . S
C912 C914 1.348 . S
C912 C915 1.356 . S
C912 O942 1.325 . S
N913 C916 1.314 . S
N913 C917 1.279 . S
C914 C912 1.348 . S
C914 C916 1.353 . S
C914 H956 0.929 . S
C915 C912 1.356 . S
C915 C917 1.358 . S
C915 H957 0.930 . S
C916 N913 1.314 . S
C916 C914 1.353 . S
C916 H958 0.930 . S
C917 N913 1.279 . S
C917 C915 1.358 . S
C917 H959 0.930 . S
C918 C919 1.348 . S
C918 C920 1.356 . S
C918 O943 1.325 1_655 S
C919 C918 1.348 . S
C919 C921 1.353 . S
C919 H960 0.929 1_655 S
C920 C918 1.356 . S
C920 C922 1.358 . S
C920 H961 0.930 . S
C921 C919 1.353 . S
C921 N923 1.314 . S
C921 H962 0.930 . S
C922 C920 1.358 . S
C922 N923 1.279 . S
C922 H963 0.930 . S
N923 C921 1.314 . S
N923 C922 1.279 . S
C924 C926 1.372 1_455 S
C924 N927 1.314 . S
C924 H930 0.930 1_455 S
C925 N927 1.279 . S
C925 C928 1.358 . S
C925 H931 0.930 . S
C926 C924 1.372 1_655 S
C926 C929 1.303 1_655 S
C926 H964 0.957 . S
N927 Li882 1.990 . S
N927 C924 1.314 . S
N927 C925 1.279 . S
C928 C925 1.358 . S
C928 C929 1.356 . S
C928 H965 0.930 . S
C929 C926 1.303 1_455 S
C929 C928 1.356 . S
H930 C924 0.930 1_655 S
H931 C925 0.930 . S
C932 N933 1.314 . S
C932 C934 1.353 . S
C932 H938 0.930 . S
N933 Li883 1.990 . S
N933 C932 1.314 . S
N933 C936 1.279 . S
C934 C932 1.353 . S
C934 C937 1.348 . S
C934 H966 0.929 . S
C935 C936 1.358 . S
C935 C937 1.356 . S
C935 H967 0.930 . S
C936 N933 1.279 . S
C936 C935 1.358 . S
C936 H939 0.930 . S
C937 C934 1.348 . S
C937 C935 1.356 . S
H938 C932 0.930 . S
H939 C936 0.930 . S
O940 Li880 1.956 . S
O940 Li881 1.970 1_455 S
O940 Li882 1.961 . S
O940 C884 1.325 . S
O941 Li880 1.970 . S
O941 Li881 1.956 1_455 S
O941 Li883 1.961 . S
O941 C890 1.325 . S
O942 Li880 1.961 . S
O942 Li882 1.956 . S
O942 Li883 1.970 . S
O942 C912 1.325 . S
O943 Li881 1.961 1_455 S
O943 Li882 1.970 . S
O943 Li883 1.956 . S
O943 C918 1.325 1_455 S
H944 C886 0.929 . S
H945 C887 0.930 . S
H946 C888 0.930 . S
H947 C889 0.930 . S
H948 C891 0.930 . S
H949 C893 0.929 . S
H950 C894 0.930 . S
H951 C895 0.930 . S
H952 C898 0.930 . S
H953 C901 0.929 . S
H954 C906 0.929 . S
H955 C907 0.930 . S
H956 C914 0.929 . S
H957 C915 0.930 . S
H958 C916 0.930 . S
H959 C917 0.930 . S
H960 C919 0.929 1_455 S
H961 C920 0.930 . S
H962 C921 0.930 . S
H963 C922 0.930 . S
H964 C926 0.957 . S
H965 C928 0.930 . S
H966 C934 0.929 . S
H967 C935 0.930 . S
Li968 N985 1.990 . S
Li968 O1028 1.956 . S
Li968 O1029 1.970 . S
Li968 O1030 1.961 . S
Li969 N993 1.990 . S
Li969 O1028 1.970 . S
Li969 O1029 1.956 . S
Li969 O1031 1.961 . S
Li970 N1015 1.990 . S
Li970 O1028 1.961 . S
Li970 O1030 1.956 . S
Li970 O1031 1.970 . S
Li971 N1021 1.990 . S
Li971 O1029 1.961 . S
Li971 O1030 1.970 . S
Li971 O1031 1.956 . S
C972 C974 1.348 . S
C972 C975 1.356 . S
C972 O1028 1.325 . S
N973 C976 1.314 . S
N973 C977 1.279 . S
C974 C972 1.348 . S
C974 C976 1.353 . S
C974 H1032 0.929 . S
C975 C972 1.356 . S
C975 C977 1.358 . S
C975 H1033 0.930 . S
C976 N973 1.314 . S
C976 C974 1.353 . S
C976 H1034 0.930 . S
C977 N973 1.279 . S
C977 C975 1.358 . S
C977 H1035 0.930 . S
C978 C981 1.348 . S
C978 C982 1.356 . S
C978 O1029 1.325 . S
C979 N980 1.279 . S
C979 C982 1.358 . S
C979 H1036 0.930 . S
N980 C979 1.279 . S
N980 C983 1.314 . S
C981 C978 1.348 . S
C981 C983 1.353 . S
C981 H1037 0.929 . S
C982 C978 1.356 . S
C982 C979 1.358 . S
C982 H1038 0.930 . S
C983 N980 1.314 . S
C983 C981 1.353 . S
C983 H1039 0.930 . S
C984 N985 1.314 . S
C984 C989 1.353 . S
C984 H990 0.930 . S
N985 Li968 1.990 . S
N985 C984 1.314 . S
N985 C987 1.279 . S
C986 C987 1.358 . S
C986 C988 1.356 . S
C986 H1040 0.930 . S
C987 N985 1.279 . S
C987 C986 1.358 . S
C987 H991 0.930 . S
C988 C986 1.356 . S
C988 C989 1.348 . S
C989 C984 1.353 . S
C989 C988 1.348 . S
C989 H1041 0.929 . S
H990 C984 0.930 . S
H991 C987 0.930 . S
C992 N993 1.314 . S
C992 C994 1.353 . S
C992 H998 0.930 . S
N993 Li969 1.990 . S
N993 C992 1.314 . S
N993 C996 1.279 . S
C994 C992 1.353 . S
C994 C997 1.348 . S
C994 H1042 0.929 . S
C995 C996 1.358 . S
C995 C997 1.356 . S
C995 H1043 0.930 . S
C996 N993 1.279 . S
C996 C995 1.358 . S
C996 H999 0.930 . S
C997 C994 1.348 . S
C997 C995 1.356 . S
H998 C992 0.930 . S
H999 C996 0.930 . S
C1000 C1002 1.348 . S
C1000 C1003 1.356 . S
C1000 O1030 1.325 . S
N1001 C1004 1.314 . S
N1001 C1005 1.279 . S
C1002 C1000 1.348 . S
C1002 C1004 1.353 . S
C1002 H1044 0.929 . S
C1003 C1000 1.356 . S
C1003 C1005 1.358 . S
C1003 H1045 0.930 . S
C1004 N1001 1.314 . S
C1004 C1002 1.353 . S
C1004 H1046 0.930 . S
C1005 N1001 1.279 . S
C1005 C1003 1.358 . S
C1005 H1047 0.930 . S
C1006 C1007 1.348 . S
C1006 C1008 1.356 . S
C1006 O1031 1.325 . S
C1007 C1006 1.348 . S
C1007 C1009 1.353 . S
C1007 H1048 0.929 . S
C1008 C1006 1.356 . S
C1008 C1010 1.358 . S
C1008 H1049 0.930 . S
C1009 C1007 1.353 . S
C1009 N1011 1.314 . S
C1009 H1050 0.930 . S
C1010 C1008 1.358 . S
C1010 N1011 1.279 . S
C1010 H1051 0.930 . S
N1011 C1009 1.314 . S
N1011 C1010 1.279 . S
C1012 C1014 1.353 . S
C1012 N1015 1.314 . S
C1012 H1018 0.930 . S
C1013 N1015 1.279 . S
C1013 C1016 1.358 . S
C1013 H1019 0.930 . S
C1014 C1012 1.353 . S
C1014 C1017 1.348 . S
C1014 H1052 0.929 . S
N1015 Li970 1.990 . S
N1015 C1012 1.314 . S
N1015 C1013 1.279 . S
C1016 C1013 1.358 . S
C1016 C1017 1.356 . S
C1016 H1053 0.930 . S
C1017 C1014 1.348 . S
C1017 C1016 1.356 . S
H1018 C1012 0.930 . S
H1019 C1013 0.930 . S
C1020 N1021 1.314 . S
C1020 C1022 1.353 . S
C1020 H1026 0.930 . S
N1021 Li971 1.990 . S
N1021 C1020 1.314 . S
N1021 C1024 1.279 . S
C1022 C1020 1.353 . S
C1022 C1025 1.348 . S
C1022 H1054 0.929 . S
C1023 C1024 1.358 . S
C1023 C1025 1.356 . S
C1023 H1055 0.930 . S
C1024 N1021 1.279 . S
C1024 C1023 1.358 . S
C1024 H1027 0.930 . S
C1025 C1022 1.348 . S
C1025 C1023 1.356 . S
H1026 C1020 0.930 . S
H1027 C1024 0.930 . S
O1028 Li968 1.956 . S
O1028 Li969 1.970 . S
O1028 Li970 1.961 . S
O1028 C972 1.325 . S
O1029 Li968 1.970 . S
O1029 Li969 1.956 . S
O1029 Li971 1.961 . S
O1029 C978 1.325 . S
O1030 Li968 1.961 . S
O1030 Li970 1.956 . S
O1030 Li971 1.970 . S
O1030 C1000 1.325 . S
O1031 Li969 1.961 . S
O1031 Li970 1.970 . S
O1031 Li971 1.956 . S
O1031 C1006 1.325 . S
H1032 C974 0.929 . S
H1033 C975 0.930 . S
H1034 C976 0.930 . S
H1035 C977 0.930 . S
H1036 C979 0.930 . S
H1037 C981 0.929 . S
H1038 C982 0.930 . S
H1039 C983 0.930 . S
H1040 C986 0.930 . S
H1041 C989 0.929 . S
H1042 C994 0.929 . S
H1043 C995 0.930 . S
H1044 C1002 0.929 . S
H1045 C1003 0.930 . S
H1046 C1004 0.930 . S
H1047 C1005 0.930 . S
H1048 C1007 0.929 . S
H1049 C1008 0.930 . S
H1050 C1009 0.930 . S
H1051 C1010 0.930 . S
H1052 C1014 0.929 . S
H1053 C1016 0.930 . S
H1054 C1022 0.929 . S
H1055 C1023 0.930 . S
Li1056 N1073 1.990 . S
Li1056 O1116 1.956 1_565 S
Li1056 O1117 1.970 1_565 S
Li1056 O1118 1.961 1_565 S
Li1057 N1081 1.990 . S
Li1057 O1116 1.970 . S
Li1057 O1117 1.956 . S
Li1057 O1119 1.961 . S
Li1058 N1103 1.990 . S
Li1058 O1116 1.961 . S
Li1058 O1118 1.956 . S
Li1058 O1119 1.970 . S
Li1059 N1109 1.990 . S
Li1059 O1117 1.961 . S
Li1059 O1118 1.970 . S
Li1059 O1119 1.956 . S
C1060 C1062 1.348 . S
C1060 C1063 1.356 . S
C1060 O1116 1.325 1_565 S
N1061 C1064 1.314 . S
N1061 C1065 1.279 . S
C1062 C1060 1.348 . S
C1062 C1064 1.353 . S
C1062 H1120 0.929 . S
C1063 C1060 1.356 . S
C1063 C1065 1.358 . S
C1063 H1121 0.930 . S
C1064 N1061 1.314 . S
C1064 C1062 1.353 . S
C1064 H1122 0.930 . S
C1065 N1061 1.279 . S
C1065 C1063 1.358 . S
C1065 H1123 0.930 . S
C1066 C1069 1.348 1_545 S
C1066 C1070 1.356 . S
C1066 O1117 1.325 . S
C1067 N1068 1.279 1_545 S
C1067 C1070 1.358 . S
C1067 H1124 0.930 . S
N1068 C1067 1.279 1_565 S
N1068 C1071 1.314 . S
C1069 C1066 1.348 1_565 S
C1069 C1071 1.353 . S
C1069 H1125 0.929 . S
C1070 C1066 1.356 . S
C1070 C1067 1.358 . S
C1070 H1126 0.930 . S
C1071 N1068 1.314 . S
C1071 C1069 1.353 . S
C1071 H1127 0.930 . S
C1072 N1073 1.314 . S
C1072 C1077 1.353 . S
C1072 H1078 0.930 . S
N1073 Li1056 1.990 . S
N1073 C1072 1.314 . S
N1073 C1075 1.279 . S
C1074 C1075 1.358 . S
C1074 C1076 1.356 . S
C1074 H1128 0.930 . S
C1075 N1073 1.279 . S
C1075 C1074 1.358 . S
C1075 H1079 0.930 . S
C1076 C1074 1.356 . S
C1076 C1077 1.348 . S
C1077 C1072 1.353 . S
C1077 C1076 1.348 . S
C1077 H1129 0.929 . S
H1078 C1072 0.930 . S
H1079 C1075 0.930 . S
C1080 N1081 1.314 . S
C1080 C1082 1.353 . S
C1080 H1086 0.930 . S
N1081 Li1057 1.990 . S
N1081 C1080 1.314 . S
N1081 C1084 1.279 . S
C1082 C1080 1.353 . S
C1082 C1085 1.348 . S
C1082 H1130 0.929 . S
C1083 C1084 1.358 . S
C1083 C1085 1.356 . S
C1083 H1131 0.930 1_545 S
C1084 N1081 1.279 . S
C1084 C1083 1.358 . S
C1084 H1087 0.923 1_545 S
C1085 C1082 1.348 . S
C1085 C1083 1.356 . S
H1086 C1080 0.930 . S
H1087 C1084 0.923 1_565 S
C1088 C1090 1.348 . S
C1088 C1091 1.356 . S
C1088 O1118 1.325 . S
N1089 C1092 1.314 . S
N1089 C1093 1.279 . S
C1090 C1088 1.348 . S
C1090 C1092 1.353 . S
C1090 H1132 0.929 . S
C1091 C1088 1.356 . S
C1091 C1093 1.358 . S
C1091 H1133 0.930 . S
C1092 N1089 1.314 . S
C1092 C1090 1.353 . S
C1092 H1134 0.930 . S
C1093 N1089 1.279 . S
C1093 C1091 1.358 . S
C1093 H1135 0.930 . S
C1094 C1095 1.348 . S
C1094 C1096 1.356 . S
C1094 O1119 1.325 . S
C1095 C1094 1.348 . S
C1095 C1097 1.353 . S
C1095 H1136 0.929 . S
C1096 C1094 1.356 . S
C1096 C1098 1.358 . S
C1096 H1137 0.930 . S
C1097 C1095 1.353 . S
C1097 N1099 1.314 . S
C1097 H1138 0.930 . S
C1098 C1096 1.358 . S
C1098 N1099 1.279 . S
C1098 H1139 0.930 . S
N1099 C1097 1.314 . S
N1099 C1098 1.279 . S
C1100 C1102 1.353 . S
C1100 N1103 1.314 . S
C1100 H1106 0.930 . S
C1101 N1103 1.279 . S
C1101 C1104 1.358 . S
C1101 H1107 0.930 . S
C1102 C1100 1.353 . S
C1102 C1105 1.348 . S
C1102 H1140 0.929 . S
N1103 Li1058 1.990 . S
N1103 C1100 1.314 . S
N1103 C1101 1.279 . S
C1104 C1101 1.358 . S
C1104 C1105 1.356 . S
C1104 H1141 0.930 . S
C1105 C1102 1.348 . S
C1105 C1104 1.356 . S
H1106 C1100 0.930 . S
H1107 C1101 0.930 . S
C1108 N1109 1.314 . S
C1108 C1110 1.353 . S
C1108 H1114 0.930 . S
N1109 Li1059 1.990 . S
N1109 C1108 1.314 . S
N1109 C1112 1.279 . S
C1110 C1108 1.353 . S
C1110 C1113 1.348 . S
C1110 H1142 0.929 . S
C1111 C1112 1.358 . S
C1111 C1113 1.356 . S
C1111 H1143 0.930 . S
C1112 N1109 1.279 . S
C1112 C1111 1.358 . S
C1112 H1115 0.930 . S
C1113 C1110 1.348 . S
C1113 C1111 1.356 . S
H1114 C1108 0.930 . S
H1115 C1112 0.930 . S
O1116 Li1056 1.956 1_545 S
O1116 Li1057 1.970 . S
O1116 Li1058 1.961 . S
O1116 C1060 1.325 1_545 S
O1117 Li1056 1.970 1_545 S
O1117 Li1057 1.956 . S
O1117 Li1059 1.961 . S
O1117 C1066 1.325 . S
O1118 Li1056 1.961 1_545 S
O1118 Li1058 1.956 . S
O1118 Li1059 1.970 . S
O1118 C1088 1.325 . S
O1119 Li1057 1.961 . S
O1119 Li1058 1.970 . S
O1119 Li1059 1.956 . S
O1119 C1094 1.325 . S
H1120 C1062 0.929 . S
H1121 C1063 0.930 . S
H1122 C1064 0.930 . S
H1123 C1065 0.930 . S
H1124 C1067 0.930 . S
H1125 C1069 0.929 . S
H1126 C1070 0.930 . S
H1127 C1071 0.930 . S
H1128 C1074 0.930 . S
H1129 C1077 0.929 . S
H1130 C1082 0.929 . S
H1131 C1083 0.930 1_565 S
H1132 C1090 0.929 . S
H1133 C1091 0.930 . S
H1134 C1092 0.930 . S
H1135 C1093 0.930 . S
H1136 C1095 0.929 . S
H1137 C1096 0.930 . S
H1138 C1097 0.930 . S
H1139 C1098 0.930 . S
H1140 C1102 0.929 . S
H1141 C1104 0.930 . S
H1142 C1110 0.929 . S
H1143 C1111 0.930 . S
Li1144 N1161 1.990 . S
Li1144 O1204 1.956 1_455 S
Li1144 O1205 1.970 1_455 S
Li1144 O1206 1.961 1_455 S
Li1145 N1169 1.990 . S
Li1145 O1204 1.970 . S
Li1145 O1205 1.956 . S
Li1145 O1207 1.961 . S
Li1146 N1191 1.990 . S
Li1146 O1204 1.961 . S
Li1146 O1206 1.956 . S
Li1146 O1207 1.970 . S
Li1147 N1197 1.990 . S
Li1147 O1205 1.961 . S
Li1147 O1206 1.970 . S
Li1147 O1207 1.956 . S
C1148 C1150 1.348 . S
C1148 C1151 1.356 . S
C1148 O1204 1.325 1_455 S
N1149 C1152 1.314 . S
N1149 C1153 1.279 . S
C1150 C1148 1.348 . S
C1150 C1152 1.353 . S
C1150 H1208 0.929 . S
C1151 C1148 1.356 . S
C1151 C1153 1.358 . S
C1151 H1209 0.930 . S
C1152 N1149 1.314 . S
C1152 C1150 1.353 . S
C1152 H1210 0.930 . S
C1153 N1149 1.279 . S
C1153 C1151 1.358 . S
C1153 H1211 0.930 . S
C1154 C1157 1.348 1_655 S
C1154 C1158 1.356 . S
C1154 O1205 1.325 . S
C1155 N1156 1.279 1_655 S
C1155 C1158 1.358 . S
C1155 H1212 0.930 . S
N1156 C1155 1.279 1_455 S
N1156 C1159 1.314 . S
C1157 C1154 1.348 1_455 S
C1157 C1159 1.353 . S
C1157 H1213 0.929 . S
C1158 C1154 1.356 . S
C1158 C1155 1.358 . S
C1158 H1214 0.930 . S
C1159 N1156 1.314 . S
C1159 C1157 1.353 . S
C1159 H1215 0.930 . S
C1160 N1161 1.314 . S
C1160 C1165 1.353 . S
C1160 H1166 0.930 . S
N1161 Li1144 1.990 . S
N1161 C1160 1.314 . S
N1161 C1163 1.279 . S
C1162 C1163 1.358 . S
C1162 C1164 1.356 . S
C1162 H1216 0.930 . S
C1163 N1161 1.279 . S
C1163 C1162 1.358 . S
C1163 H1167 0.930 . S
C1164 C1162 1.356 . S
C1164 C1165 1.348 . S
C1165 C1160 1.353 . S
C1165 C1164 1.348 . S
C1165 H1217 0.929 . S
H1166 C1160 0.930 . S
H1167 C1163 0.930 . S
C1168 N1169 1.314 . S
C1168 C1170 1.353 . S
C1168 H1174 0.930 . S
N1169 Li1145 1.990 . S
N1169 C1168 1.314 . S
N1169 C1172 1.279 . S
C1170 C1168 1.353 . S
C1170 C1173 1.348 . S
C1170 H1218 0.929 . S
C1171 C1172 1.358 . S
C1171 C1173 1.356 . S
C1171 H1219 0.930 1_655 S
C1172 N1169 1.279 . S
C1172 C1171 1.358 . S
C1172 H1175 0.904 1_655 S
C1173 C1170 1.348 . S
C1173 C1171 1.356 . S
H1174 C1168 0.930 . S
H1175 C1172 0.904 1_455 S
C1176 C1178 1.348 . S
C1176 C1179 1.356 . S
C1176 O1206 1.325 . S
N1177 C1180 1.314 . S
N1177 C1181 1.279 . S
C1178 C1176 1.348 . S
C1178 C1180 1.353 . S
C1178 H1220 0.929 . S
C1179 C1176 1.356 . S
C1179 C1181 1.358 . S
C1179 H1221 0.960 . S
C1180 N1177 1.314 . S
C1180 C1178 1.353 . S
C1180 H1222 0.930 . S
C1181 N1177 1.279 . S
C1181 C1179 1.358 . S
C1181 H1223 0.930 . S
C1182 C1183 1.348 . S
C1182 C1184 1.356 . S
C1182 O1207 1.325 . S
C1183 C1182 1.348 . S
C1183 C1185 1.353 . S
C1183 H1224 0.929 . S
C1184 C1182 1.356 . S
C1184 C1186 1.358 . S
C1184 H1225 0.930 . S
C1185 C1183 1.353 . S
C1185 N1187 1.314 . S
C1185 H1226 0.930 . S
C1186 C1184 1.358 . S
C1186 N1187 1.279 . S
C1186 H1227 0.930 . S
N1187 C1185 1.314 . S
N1187 C1186 1.279 . S
C1188 C1190 1.353 . S
C1188 N1191 1.314 . S
C1188 H1194 0.930 . S
C1189 N1191 1.279 . S
C1189 C1192 1.358 . S
C1189 H1195 0.930 . S
C1190 C1188 1.353 . S
C1190 C1193 1.348 . S
C1190 H1228 0.929 . S
N1191 Li1146 1.990 . S
N1191 C1188 1.314 . S
N1191 C1189 1.279 . S
C1192 C1189 1.358 . S
C1192 C1193 1.356 . S
C1192 H1229 0.930 . S
C1193 C1190 1.348 . S
C1193 C1192 1.356 . S
H1194 C1188 0.930 . S
H1195 C1189 0.930 . S
C1196 N1197 1.314 . S
C1196 C1198 1.353 . S
C1196 H1202 0.930 . S
N1197 Li1147 1.990 . S
N1197 C1196 1.314 . S
N1197 C1200 1.279 . S
C1198 C1196 1.353 . S
C1198 C1201 1.348 . S
C1198 H1230 0.929 . S
C1199 C1200 1.358 . S
C1199 C1201 1.356 . S
C1199 H1231 0.930 . S
C1200 N1197 1.279 . S
C1200 C1199 1.358 . S
C1200 H1203 0.930 . S
C1201 C1198 1.348 . S
C1201 C1199 1.356 . S
H1202 C1196 0.930 . S
H1203 C1200 0.930 . S
O1204 Li1144 1.956 1_655 S
O1204 Li1145 1.970 . S
O1204 Li1146 1.961 . S
O1204 C1148 1.325 1_655 S
O1205 Li1144 1.970 1_655 S
O1205 Li1145 1.956 . S
O1205 Li1147 1.961 . S
O1205 C1154 1.325 . S
O1206 Li1144 1.961 1_655 S
O1206 Li1146 1.956 . S
O1206 Li1147 1.970 . S
O1206 C1176 1.325 . S
O1207 Li1145 1.961 . S
O1207 Li1146 1.970 . S
O1207 Li1147 1.956 . S
O1207 C1182 1.325 . S
H1208 C1150 0.929 . S
H1209 C1151 0.930 . S
H1210 C1152 0.930 . S
H1211 C1153 0.930 . S
H1212 C1155 0.930 . S
H1213 C1157 0.929 . S
H1214 C1158 0.930 . S
H1215 C1159 0.930 . S
H1216 C1162 0.930 . S
H1217 C1165 0.929 . S
H1218 C1170 0.929 . S
H1219 C1171 0.930 1_455 S
H1220 C1178 0.929 . S
H1221 C1179 0.960 . S
H1222 C1180 0.930 . S
H1223 C1181 0.930 . S
H1224 C1183 0.929 . S
H1225 C1184 0.930 . S
H1226 C1185 0.930 . S
H1227 C1186 0.930 . S
H1228 C1190 0.929 . S
H1229 C1192 0.930 . S
H1230 C1198 0.929 . S
H1231 C1199 0.930 . S
Li1232 N1249 1.990 . S
Li1232 O1292 1.956 . S
Li1232 O1293 1.970 . S
Li1232 O1294 1.961 . S
Li1233 N1257 1.990 . S
Li1233 O1292 1.970 . S
Li1233 O1293 1.956 . S
Li1233 O1295 1.961 . S
Li1234 N1279 1.990 . S
Li1234 O1292 1.961 . S
Li1234 O1294 1.956 . S
Li1234 O1295 1.970 . S
Li1235 N1285 1.990 . S
Li1235 O1293 1.961 . S
Li1235 O1294 1.970 . S
Li1235 O1295 1.956 . S
C1236 C1238 1.348 . S
C1236 C1239 1.356 . S
C1236 O1292 1.325 . S
N1237 C1240 1.314 . S
N1237 C1241 1.279 . S
C1238 C1236 1.348 . S
C1238 C1240 1.353 . S
C1238 H1296 0.929 . S
C1239 C1236 1.356 . S
C1239 C1241 1.358 . S
C1239 H1297 0.930 . S
C1240 N1237 1.314 . S
C1240 C1238 1.353 . S
C1240 H1298 0.930 . S
C1241 N1237 1.279 . S
C1241 C1239 1.358 . S
C1241 H1299 0.930 . S
C1242 C1245 1.348 . S
C1242 C1246 1.356 . S
C1242 O1293 1.325 . S
C1243 N1244 1.279 . S
C1243 C1246 1.358 . S
C1243 H1300 0.930 . S
N1244 C1243 1.279 . S
N1244 C1247 1.314 . S
C1245 C1242 1.348 . S
C1245 C1247 1.353 . S
C1245 H1301 0.929 . S
C1246 C1242 1.356 . S
C1246 C1243 1.358 . S
C1246 H1302 0.930 . S
C1247 N1244 1.314 . S
C1247 C1245 1.353 . S
C1247 H1303 0.930 . S
C1248 N1249 1.314 . S
C1248 C1253 1.353 . S
C1248 H1254 0.930 . S
N1249 Li1232 1.990 . S
N1249 C1248 1.314 . S
N1249 C1251 1.279 . S
C1250 C1251 1.358 . S
C1250 C1252 1.356 . S
C1250 H1304 0.930 . S
C1251 N1249 1.279 . S
C1251 C1250 1.358 . S
C1251 H1255 0.930 . S
C1252 C1250 1.356 . S
C1252 C1253 1.348 . S
C1253 C1248 1.353 . S
C1253 C1252 1.348 . S
C1253 H1305 0.929 . S
H1254 C1248 0.930 . S
H1255 C1251 0.930 . S
C1256 N1257 1.314 . S
C1256 C1258 1.353 . S
C1256 H1262 0.930 . S
N1257 Li1233 1.990 . S
N1257 C1256 1.314 . S
N1257 C1260 1.279 . S
C1258 C1256 1.353 . S
C1258 C1261 1.348 . S
C1258 H1306 0.929 . S
C1259 C1260 1.358 . S
C1259 C1261 1.356 . S
C1259 H1307 0.930 . S
C1260 N1257 1.279 . S
C1260 C1259 1.358 . S
C1260 H1263 0.930 . S
C1261 C1258 1.348 . S
C1261 C1259 1.356 . S
H1262 C1256 0.930 . S
H1263 C1260 0.930 . S
C1264 C1266 1.348 . S
C1264 C1267 1.356 . S
C1264 O1294 1.325 . S
N1265 C1268 1.314 . S
N1265 C1269 1.279 . S
C1266 C1264 1.348 . S
C1266 C1268 1.353 . S
C1266 H1308 0.929 . S
C1267 C1264 1.356 . S
C1267 C1269 1.358 . S
C1267 H1309 0.930 . S
C1268 N1265 1.314 . S
C1268 C1266 1.353 . S
C1268 H1310 0.930 . S
C1269 N1265 1.279 . S
C1269 C1267 1.358 . S
C1269 H1311 0.930 . S
C1270 C1271 1.348 . S
C1270 C1272 1.356 . S
C1270 O1295 1.325 . S
C1271 C1270 1.348 . S
C1271 C1273 1.353 . S
C1271 H1312 0.929 . S
C1272 C1270 1.356 . S
C1272 C1274 1.358 . S
C1272 H1313 0.930 . S
C1273 C1271 1.353 . S
C1273 N1275 1.314 . S
C1273 H1314 0.930 . S
C1274 C1272 1.358 . S
C1274 N1275 1.279 . S
C1274 H1315 0.930 . S
N1275 C1273 1.314 . S
N1275 C1274 1.279 . S
C1276 C1278 1.353 . S
C1276 N1279 1.314 . S
C1276 H1282 0.930 . S
C1277 N1279 1.279 . S
C1277 C1280 1.358 . S
C1277 H1283 0.930 . S
C1278 C1276 1.353 . S
C1278 C1281 1.348 . S
C1278 H1316 0.929 . S
N1279 Li1234 1.990 . S
N1279 C1276 1.314 . S
N1279 C1277 1.279 . S
C1280 C1277 1.358 . S
C1280 C1281 1.356 . S
C1280 H1317 0.930 . S
C1281 C1278 1.348 . S
C1281 C1280 1.356 . S
H1282 C1276 0.930 . S
H1283 C1277 0.930 . S
C1284 N1285 1.314 . S
C1284 C1286 1.353 . S
C1284 H1290 0.930 . S
N1285 Li1235 1.990 . S
N1285 C1284 1.314 . S
N1285 C1288 1.279 . S
C1286 C1284 1.353 . S
C1286 C1289 1.348 . S
C1286 H1318 0.929 . S
C1287 C1288 1.358 . S
C1287 C1289 1.356 . S
C1287 H1319 0.930 . S
C1288 N1285 1.279 . S
C1288 C1287 1.358 . S
C1288 H1291 0.930 . S
C1289 C1286 1.348 . S
C1289 C1287 1.356 . S
H1290 C1284 0.930 . S
H1291 C1288 0.930 . S
O1292 Li1232 1.956 . S
O1292 Li1233 1.970 . S
O1292 Li1234 1.961 . S
O1292 C1236 1.325 . S
O1293 Li1232 1.970 . S
O1293 Li1233 1.956 . S
O1293 Li1235 1.961 . S
O1293 C1242 1.325 . S
O1294 Li1232 1.961 . S
O1294 Li1234 1.956 . S
O1294 Li1235 1.970 . S
O1294 C1264 1.325 . S
O1295 Li1233 1.961 . S
O1295 Li1234 1.970 . S
O1295 Li1235 1.956 . S
O1295 C1270 1.325 . S
H1296 C1238 0.929 . S
H1297 C1239 0.930 . S
H1298 C1240 0.930 . S
H1299 C1241 0.930 . S
H1300 C1243 0.930 . S
H1301 C1245 0.929 . S
H1302 C1246 0.930 . S
H1303 C1247 0.930 . S
H1304 C1250 0.930 . S
H1305 C1253 0.929 . S
H1306 C1258 0.929 . S
H1307 C1259 0.930 . S
H1308 C1266 0.929 . S
H1309 C1267 0.930 . S
H1310 C1268 0.930 . S
H1311 C1269 0.930 . S
H1312 C1271 0.929 . S
H1313 C1272 0.930 . S
H1314 C1273 0.930 . S
H1315 C1274 0.930 . S
H1316 C1278 0.929 . S
H1317 C1280 0.930 . S
H1318 C1286 0.929 . S
H1319 C1287 0.930 . S
Li1320 N1337 1.990 . S
Li1320 O1380 1.956 . S
Li1320 O1381 1.970 . S
Li1320 O1382 1.961 . S
Li1321 N1345 1.990 . S
Li1321 O1380 1.970 . S
Li1321 O1381 1.956 . S
Li1321 O1383 1.961 . S
Li1322 N1367 1.990 . S
Li1322 O1380 1.961 . S
Li1322 O1382 1.956 . S
Li1322 O1383 1.970 . S
Li1323 N1373 1.990 . S
Li1323 O1381 1.961 . S
Li1323 O1382 1.970 . S
Li1323 O1383 1.956 . S
C1324 C1326 1.348 . S
C1324 C1327 1.356 . S
C1324 O1380 1.325 . S
N1325 C1328 1.314 . S
N1325 C1329 1.279 . S
C1326 C1324 1.348 . S
C1326 C1328 1.353 . S
C1326 H1384 0.929 . S
C1327 C1324 1.356 . S
C1327 C1329 1.358 . S
C1327 H1385 0.930 . S
C1328 N1325 1.314 . S
C1328 C1326 1.353 . S
C1328 H1386 0.930 . S
C1329 N1325 1.279 . S
C1329 C1327 1.358 . S
C1329 H1387 0.930 . S
C1330 C1333 1.348 . S
C1330 C1334 1.356 . S
C1330 O1381 1.325 . S
C1331 N1332 1.279 . S
C1331 C1334 1.358 . S
C1331 H1388 0.930 . S
N1332 C1331 1.279 . S
N1332 C1335 1.314 . S
C1333 C1330 1.348 . S
C1333 C1335 1.353 . S
C1333 H1389 0.929 . S
C1334 C1330 1.356 . S
C1334 C1331 1.358 . S
C1334 H1390 0.930 . S
C1335 N1332 1.314 . S
C1335 C1333 1.353 . S
C1335 H1391 0.930 . S
C1336 N1337 1.314 . S
C1336 C1341 1.353 . S
C1336 H1342 0.930 . S
N1337 Li1320 1.990 . S
N1337 C1336 1.314 . S
N1337 C1339 1.279 . S
C1338 C1339 1.358 . S
C1338 C1340 1.356 . S
C1338 H1392 0.930 . S
C1339 N1337 1.279 . S
C1339 C1338 1.358 . S
C1339 H1343 0.930 . S
C1340 C1338 1.356 . S
C1340 C1341 1.348 . S
C1341 C1336 1.353 . S
C1341 C1340 1.348 . S
C1341 H1393 0.929 . S
H1342 C1336 0.930 . S
H1343 C1339 0.930 . S
C1344 N1345 1.314 . S
C1344 C1346 1.353 . S
C1344 H1350 0.930 . S
N1345 Li1321 1.990 . S
N1345 C1344 1.314 . S
N1345 C1348 1.279 . S
C1346 C1344 1.353 . S
C1346 C1349 1.348 . S
C1346 H1394 0.929 . S
C1347 C1348 1.358 . S
C1347 C1349 1.356 . S
C1347 H1395 0.930 . S
C1348 N1345 1.279 . S
C1348 C1347 1.358 . S
C1348 H1351 0.930 . S
C1349 C1346 1.348 . S
C1349 C1347 1.356 . S
H1350 C1344 0.930 . S
H1351 C1348 0.930 . S
C1352 C1354 1.348 . S
C1352 C1355 1.356 . S
C1352 O1382 1.325 . S
N1353 C1356 1.314 . S
N1353 C1357 1.279 . S
C1354 C1352 1.348 . S
C1354 C1356 1.353 . S
C1354 H1396 0.929 . S
C1355 C1352 1.356 . S
C1355 C1357 1.358 . S
C1355 H1397 0.930 . S
C1356 N1353 1.314 . S
C1356 C1354 1.353 . S
C1356 H1398 0.930 . S
C1357 N1353 1.279 . S
C1357 C1355 1.358 . S
C1357 H1399 0.930 . S
C1358 C1359 1.348 . S
C1358 C1360 1.356 . S
C1358 O1383 1.325 . S
C1359 C1358 1.348 . S
C1359 C1361 1.353 . S
C1359 H1400 0.929 . S
C1360 C1358 1.356 . S
C1360 C1362 1.358 . S
C1360 H1401 0.930 . S
C1361 C1359 1.353 . S
C1361 N1363 1.314 . S
C1361 H1402 0.930 . S
C1362 C1360 1.358 . S
C1362 N1363 1.279 . S
C1362 H1403 0.930 . S
N1363 C1361 1.314 . S
N1363 C1362 1.279 . S
C1364 C1366 1.353 . S
C1364 N1367 1.314 . S
C1364 H1370 0.930 . S
C1365 N1367 1.279 . S
C1365 C1368 1.358 . S
C1365 H1371 0.930 . S
C1366 C1364 1.353 . S
C1366 C1369 1.348 . S
C1366 H1404 0.929 . S
N1367 Li1322 1.990 . S
N1367 C1364 1.314 . S
N1367 C1365 1.279 . S
C1368 C1365 1.358 . S
C1368 C1369 1.356 . S
C1368 H1405 0.930 . S
C1369 C1366 1.348 . S
C1369 C1368 1.356 . S
H1370 C1364 0.930 . S
H1371 C1365 0.930 . S
C1372 N1373 1.314 . S
C1372 C1374 1.353 . S
C1372 H1378 0.930 . S
N1373 Li1323 1.990 . S
N1373 C1372 1.314 . S
N1373 C1376 1.279 . S
C1374 C1372 1.353 . S
C1374 C1377 1.348 . S
C1374 H1406 0.929 . S
C1375 C1376 1.358 . S
C1375 C1377 1.356 . S
C1375 H1407 0.930 . S
C1376 N1373 1.279 . S
C1376 C1375 1.358 . S
C1376 H1379 0.930 . S
C1377 C1374 1.348 . S
C1377 C1375 1.356 . S
H1378 C1372 0.930 . S
H1379 C1376 0.930 . S
O1380 Li1320 1.956 . S
O1380 Li1321 1.970 . S
O1380 Li1322 1.961 . S
O1380 C1324 1.325 . S
O1381 Li1320 1.970 . S
O1381 Li1321 1.956 . S
O1381 Li1323 1.961 . S
O1381 C1330 1.325 . S
O1382 Li1320 1.961 . S
O1382 Li1322 1.956 . S
O1382 Li1323 1.970 . S
O1382 C1352 1.325 . S
O1383 Li1321 1.961 . S
O1383 Li1322 1.970 . S
O1383 Li1323 1.956 . S
O1383 C1358 1.325 . S
H1384 C1326 0.929 . S
H1385 C1327 0.930 . S
H1386 C1328 0.930 . S
H1387 C1329 0.930 . S
H1388 C1331 0.930 . S
H1389 C1333 0.929 . S
H1390 C1334 0.930 . S
H1391 C1335 0.930 . S
H1392 C1338 0.930 . S
H1393 C1341 0.929 . S
H1394 C1346 0.929 . S
H1395 C1347 0.930 . S
H1396 C1354 0.929 . S
H1397 C1355 0.930 . S
H1398 C1356 0.930 . S
H1399 C1357 0.930 . S
H1400 C1359 0.929 . S
H1401 C1360 0.930 . S
H1402 C1361 0.930 . S
H1403 C1362 0.930 . S
H1404 C1366 0.929 . S
H1405 C1368 0.930 . S
H1406 C1374 0.929 . S
H1407 C1375 0.930 . S
Li1408 N1425 1.990 . S
Li1408 O1468 1.956 . S
Li1408 O1469 1.970 . S
Li1408 O1470 1.961 . S
Li1409 N1433 1.990 . S
Li1409 O1468 1.970 . S
Li1409 O1469 1.956 . S
Li1409 O1471 1.961 . S
Li1410 N1455 1.990 . S
Li1410 O1468 1.961 . S
Li1410 O1470 1.956 . S
Li1410 O1471 1.970 . S
Li1411 N1461 1.990 . S
Li1411 O1469 1.961 1_565 S
Li1411 O1470 1.970 1_565 S
Li1411 O1471 1.956 1_565 S
C1412 C1414 1.348 . S
C1412 C1415 1.356 . S
C1412 O1468 1.325 . S
N1413 C1416 1.314 . S
N1413 C1417 1.279 . S
C1414 C1412 1.348 . S
C1414 C1416 1.353 . S
C1414 H1472 0.929 . S
C1415 C1412 1.356 . S
C1415 C1417 1.358 . S
C1415 H1473 0.930 . S
C1416 N1413 1.314 . S
C1416 C1414 1.353 . S
C1416 H1474 0.930 . S
C1417 N1413 1.279 . S
C1417 C1415 1.358 . S
C1417 H1475 0.930 . S
C1418 C1421 1.348 . S
C1418 C1422 1.356 . S
C1418 O1469 1.325 1_565 S
C1419 N1420 1.279 . S
C1419 C1422 1.358 . S
C1419 H1476 0.930 . S
N1420 C1419 1.279 . S
N1420 C1423 1.314 . S
C1421 C1418 1.348 . S
C1421 C1423 1.353 . S
C1421 H1477 0.921 1_565 S
C1422 C1418 1.356 . S
C1422 C1419 1.358 . S
C1422 H1478 0.930 . S
C1423 N1420 1.314 . S
C1423 C1421 1.353 . S
C1423 H1479 0.930 . S
C1424 N1425 1.314 . S
C1424 C1429 1.353 1_545 S
C1424 H1430 0.930 1_545 S
N1425 Li1408 1.990 . S
N1425 C1424 1.314 . S
N1425 C1427 1.279 . S
C1426 C1427 1.358 . S
C1426 C1428 1.356 . S
C1426 H1480 0.930 . S
C1427 N1425 1.279 . S
C1427 C1426 1.358 . S
C1427 H1431 0.930 . S
C1428 C1426 1.356 . S
C1428 C1429 1.348 1_545 S
C1429 C1424 1.353 1_565 S
C1429 C1428 1.348 1_565 S
C1429 H1481 0.929 . S
H1430 C1424 0.930 1_565 S
H1431 C1427 0.930 . S
C1432 N1433 1.314 . S
C1432 C1434 1.353 . S
C1432 H1438 0.930 . S
N1433 Li1409 1.990 . S
N1433 C1432 1.314 . S
N1433 C1436 1.279 . S
C1434 C1432 1.353 . S
C1434 C1437 1.348 . S
C1434 H1482 0.929 . S
C1435 C1436 1.358 . S
C1435 C1437 1.356 . S
C1435 H1483 0.930 . S
C1436 N1433 1.279 . S
C1436 C1435 1.358 . S
C1436 H1439 0.930 . S
C1437 C1434 1.348 . S
C1437 C1435 1.356 . S
H1438 C1432 0.930 . S
H1439 C1436 0.930 . S
C1440 C1442 1.348 1_545 S
C1440 C1443 1.356 . S
C1440 O1470 1.325 . S
N1441 C1444 1.314 . S
N1441 C1445 1.279 1_565 S
C1442 C1440 1.348 1_565 S
C1442 C1444 1.353 . S
C1442 H1484 0.929 . S
C1443 C1440 1.356 . S
C1443 C1445 1.358 . S
C1443 H1485 0.930 . S
C1444 N1441 1.314 . S
C1444 C1442 1.353 . S
C1444 H1486 0.930 . S
C1445 N1441 1.279 1_545 S
C1445 C1443 1.358 . S
C1445 H1487 0.930 . S
C1446 C1447 1.348 . S
C1446 C1448 1.356 . S
C1446 O1471 1.325 . S
C1447 C1446 1.348 . S
C1447 C1449 1.353 . S
C1447 H1488 0.929 . S
C1448 C1446 1.356 . S
C1448 C1450 1.358 . S
C1448 H1489 0.930 . S
C1449 C1447 1.353 . S
C1449 N1451 1.314 . S
C1449 H1490 0.930 . S
C1450 C1448 1.358 . S
C1450 N1451 1.279 . S
C1450 H1491 0.930 . S
N1451 C1449 1.314 . S
N1451 C1450 1.279 . S
C1452 C1454 1.353 . S
C1452 N1455 1.314 . S
C1452 H1458 0.930 . S
C1453 N1455 1.279 . S
C1453 C1456 1.358 . S
C1453 H1459 0.930 . S
C1454 C1452 1.353 . S
C1454 C1457 1.348 . S
C1454 H1492 0.929 . S
N1455 Li1410 1.990 . S
N1455 C1452 1.314 . S
N1455 C1453 1.279 . S
C1456 C1453 1.358 . S
C1456 C1457 1.356 . S
C1456 H1493 0.930 . S
C1457 C1454 1.348 . S
C1457 C1456 1.356 . S
H1458 C1452 0.930 . S
H1459 C1453 0.930 . S
C1460 N1461 1.314 . S
C1460 C1462 1.353 . S
C1460 H1466 0.930 . S
N1461 Li1411 1.990 . S
N1461 C1460 1.314 . S
N1461 C1464 1.279 . S
C1462 C1460 1.353 . S
C1462 C1465 1.348 . S
C1462 H1494 0.929 . S
C1463 C1464 1.358 . S
C1463 C1465 1.356 . S
C1463 H1495 0.930 . S
C1464 N1461 1.279 . S
C1464 C1463 1.358 . S
C1464 H1467 0.930 . S
C1465 C1462 1.348 . S
C1465 C1463 1.356 . S
H1466 C1460 0.930 . S
H1467 C1464 0.930 . S
O1468 Li1408 1.956 . S
O1468 Li1409 1.970 . S
O1468 Li1410 1.961 . S
O1468 C1412 1.325 . S
O1469 Li1408 1.970 . S
O1469 Li1409 1.956 . S
O1469 Li1411 1.961 1_545 S
O1469 C1418 1.325 1_545 S
O1470 Li1408 1.961 . S
O1470 Li1410 1.956 . S
O1470 Li1411 1.970 1_545 S
O1470 C1440 1.325 . S
O1471 Li1409 1.961 . S
O1471 Li1410 1.970 . S
O1471 Li1411 1.956 1_545 S
O1471 C1446 1.325 . S
H1472 C1414 0.929 . S
H1473 C1415 0.930 . S
H1474 C1416 0.930 . S
H1475 C1417 0.930 . S
H1476 C1419 0.930 . S
H1477 C1421 0.921 1_545 S
H1478 C1422 0.930 . S
H1479 C1423 0.930 . S
H1480 C1426 0.930 . S
H1481 C1429 0.929 . S
H1482 C1434 0.929 . S
H1483 C1435 0.930 . S
H1484 C1442 0.929 . S
H1485 C1443 0.930 . S
H1486 C1444 0.930 . S
H1487 C1445 0.930 . S
H1488 C1447 0.929 . S
H1489 C1448 0.930 . S
H1490 C1449 0.930 . S
H1491 C1450 0.930 . S
H1492 C1454 0.929 . S
H1493 C1456 0.930 . S
H1494 C1462 0.929 . S
H1495 C1463 0.930 . S
Li1496 N1513 1.990 . S
Li1496 O1556 1.956 . S
Li1496 O1557 1.970 . S
Li1496 O1558 1.961 . S
Li1497 N1521 1.990 . S
Li1497 O1556 1.970 . S
Li1497 O1557 1.956 . S
Li1497 O1559 1.961 . S
Li1498 N1543 1.990 . S
Li1498 O1556 1.961 1_455 S
Li1498 O1558 1.956 1_455 S
Li1498 O1559 1.970 1_455 S
Li1499 N1549 1.990 . S
Li1499 O1557 1.961 . S
Li1499 O1558 1.970 . S
Li1499 O1559 1.956 . S
C1500 C1502 1.348 . S
C1500 C1503 1.356 . S
C1500 O1556 1.325 1_455 S
N1501 C1504 1.314 . S
N1501 C1505 1.279 . S
C1502 C1500 1.348 . S
C1502 C1504 1.353 . S
C1502 H1560 0.926 1_455 S
C1503 C1500 1.356 . S
C1503 C1505 1.358 . S
C1503 H1561 0.930 . S
C1504 N1501 1.314 . S
C1504 C1502 1.353 . S
C1504 H1562 0.930 . S
C1505 N1501 1.279 . S
C1505 C1503 1.358 . S
C1505 H1563 0.930 . S
C1506 C1509 1.348 . S
C1506 C1510 1.356 . S
C1506 O1557 1.325 . S
C1507 N1508 1.279 . S
C1507 C1510 1.358 . S
C1507 H1564 0.930 . S
N1508 C1507 1.279 . S
N1508 C1511 1.314 . S
C1509 C1506 1.348 . S
C1509 C1511 1.353 . S
C1509 H1565 0.929 . S
C1510 C1506 1.356 . S
C1510 C1507 1.358 . S
C1510 H1566 0.930 . S
C1511 N1508 1.314 . S
C1511 C1509 1.353 . S
C1511 H1567 0.930 . S
C1512 N1513 1.314 . S
C1512 C1517 1.353 . S
C1512 H1518 0.930 . S
N1513 Li1496 1.990 . S
N1513 C1512 1.314 . S
N1513 C1515 1.279 . S
C1514 C1515 1.358 . S
C1514 C1516 1.356 . S
C1514 H1568 0.930 . S
C1515 N1513 1.279 . S
C1515 C1514 1.358 . S
C1515 H1519 0.930 . S
C1516 C1514 1.356 . S
C1516 C1517 1.348 . S
C1517 C1512 1.353 . S
C1517 C1516 1.348 . S
C1517 H1569 0.929 . S
H1518 C1512 0.930 . S
H1519 C1515 0.930 . S
C1520 N1521 1.314 . S
C1520 C1522 1.327 1_655 S
C1520 H1526 0.930 1_655 S
N1521 Li1497 1.990 . S
N1521 C1520 1.314 . S
N1521 C1524 1.279 . S
C1522 C1520 1.327 1_455 S
C1522 C1525 1.333 1_455 S
C1522 H1570 0.970 . S
C1523 C1524 1.358 . S
C1523 C1525 1.356 . S
C1523 H1571 0.930 . S
C1524 N1521 1.279 . S
C1524 C1523 1.358 . S
C1524 H1527 0.930 . S
C1525 C1522 1.333 1_655 S
C1525 C1523 1.356 . S
H1526 C1520 0.930 1_455 S
H1527 C1524 0.930 . S
C1528 C1530 1.348 . S
C1528 C1531 1.356 . S
C1528 O1558 1.325 . S
N1529 C1532 1.314 . S
N1529 C1533 1.279 . S
C1530 C1528 1.348 . S
C1530 C1532 1.353 . S
C1530 H1572 0.929 . S
C1531 C1528 1.356 . S
C1531 C1533 1.358 . S
C1531 H1573 0.930 . S
C1532 N1529 1.314 . S
C1532 C1530 1.353 . S
C1532 H1574 0.930 . S
C1533 N1529 1.279 . S
C1533 C1531 1.358 . S
C1533 H1575 0.930 . S
C1534 C1535 1.348 1_655 S
C1534 C1536 1.356 . S
C1534 O1559 1.325 . S
C1535 C1534 1.348 1_455 S
C1535 C1537 1.353 . S
C1535 H1576 0.929 . S
C1536 C1534 1.356 . S
C1536 C1538 1.358 . S
C1536 H1577 0.930 . S
C1537 C1535 1.353 . S
C1537 N1539 1.314 . S
C1537 H1578 0.930 . S
C1538 C1536 1.358 . S
C1538 N1539 1.279 1_655 S
C1538 H1579 0.930 . S
N1539 C1537 1.314 . S
N1539 C1538 1.279 1_455 S
C1540 C1542 1.353 . S
C1540 N1543 1.314 . S
C1540 H1546 0.930 . S
C1541 N1543 1.279 . S
C1541 C1544 1.358 . S
C1541 H1547 0.930 . S
C1542 C1540 1.353 . S
C1542 C1545 1.348 . S
C1542 H1580 0.929 . S
N1543 Li1498 1.990 . S
N1543 C1540 1.314 . S
N1543 C1541 1.279 . S
C1544 C1541 1.358 . S
C1544 C1545 1.356 . S
C1544 H1581 0.930 . S
C1545 C1542 1.348 . S
C1545 C1544 1.356 . S
H1546 C1540 0.930 . S
H1547 C1541 0.930 . S
C1548 N1549 1.314 . S
C1548 C1550 1.353 . S
C1548 H1554 0.930 . S
N1549 Li1499 1.990 . S
N1549 C1548 1.314 . S
N1549 C1552 1.279 . S
C1550 C1548 1.353 . S
C1550 C1553 1.348 . S
C1550 H1582 0.929 . S
C1551 C1552 1.358 . S
C1551 C1553 1.356 . S
C1551 H1583 0.930 . S
C1552 N1549 1.279 . S
C1552 C1551 1.358 . S
C1552 H1555 0.930 . S
C1553 C1550 1.348 . S
C1553 C1551 1.356 . S
H1554 C1548 0.930 . S
H1555 C1552 0.930 . S
O1556 Li1496 1.956 . S
O1556 Li1497 1.970 . S
O1556 Li1498 1.961 1_655 S
O1556 C1500 1.325 1_655 S
O1557 Li1496 1.970 . S
O1557 Li1497 1.956 . S
O1557 Li1499 1.961 . S
O1557 C1506 1.325 . S
O1558 Li1496 1.961 . S
O1558 Li1498 1.956 1_655 S
O1558 Li1499 1.970 . S
O1558 C1528 1.325 . S
O1559 Li1497 1.961 . S
O1559 Li1498 1.970 1_655 S
O1559 Li1499 1.956 . S
O1559 C1534 1.325 . S
H1560 C1502 0.926 1_655 S
H1561 C1503 0.930 . S
H1562 C1504 0.930 . S
H1563 C1505 0.930 . S
H1564 C1507 0.930 . S
H1565 C1509 0.929 . S
H1566 C1510 0.930 . S
H1567 C1511 0.930 . S
H1568 C1514 0.930 . S
H1569 C1517 0.929 . S
H1570 C1522 0.970 . S
H1571 C1523 0.930 . S
H1572 C1530 0.929 . S
H1573 C1531 0.930 . S
H1574 C1532 0.930 . S
H1575 C1533 0.930 . S
H1576 C1535 0.929 . S
H1577 C1536 0.930 . S
H1578 C1537 0.930 . S
H1579 C1538 0.930 . S
H1580 C1542 0.929 . S
H1581 C1544 0.930 . S
H1582 C1550 0.929 . S
H1583 C1551 0.930 . S
H1584 C1592 0.930 . S
H1585 C1595 0.930 . S
H1586 C1597 0.930 . S
H1587 C1598 0.970 . S
H1588 C1598 0.970 . S
H1589 C1600 0.930 . S
H1590 C1602 0.930 . S
H1591 C1604 0.930 . S
C1592 H1584 0.930 . S
C1592 C1593 1.382 . S
C1592 C1594 1.426 . S
C1593 C1592 1.382 . S
C1593 C1597 1.389 . S
C1594 C1592 1.426 . S
C1594 C1595 1.375 . S
C1594 C1598 1.532 . S
C1595 H1585 0.930 . S
C1595 C1594 1.375 . S
C1595 C1596 1.416 . S
C1596 C1595 1.416 . S
C1596 C1597 1.371 . S
C1597 H1586 0.930 . S
C1597 C1593 1.389 . S
C1597 C1596 1.371 . S
C1598 H1587 0.970 . S
C1598 H1588 0.970 . S
C1598 C1594 1.532 . S
C1598 C1599 1.499 . S
C1599 C1598 1.499 . S
C1599 C1600 1.370 . S
C1599 C1604 1.415 . S
C1600 H1589 0.930 . S
C1600 C1599 1.370 . S
C1600 C1601 1.407 . S
C1601 C1600 1.407 . S
C1601 C1602 1.365 . S
C1602 H1590 0.930 . S
C1602 C1601 1.365 . S
C1602 C1603 1.393 . S
C1603 C1602 1.393 . S
C1603 C1604 1.387 . S
C1604 H1591 0.930 . S
C1604 C1599 1.415 . S
C1604 C1603 1.387 . S
H1605 C1613 0.930 . S
H1606 C1616 0.930 . S
H1607 C1618 0.930 . S
H1608 C1619 0.970 . S
H1609 C1619 0.970 . S
H1610 C1621 0.930 . S
H1611 C1623 0.930 . S
H1612 C1625 0.930 . S
C1613 H1605 0.930 . S
C1613 C1614 1.382 . S
C1613 C1615 1.426 . S
C1614 C1613 1.382 . S
C1614 C1618 1.389 . S
C1615 C1613 1.426 . S
C1615 C1616 1.375 . S
C1615 C1619 1.532 . S
C1616 H1606 0.930 . S
C1616 C1615 1.375 . S
C1616 C1617 1.416 . S
C1617 C1616 1.416 . S
C1617 C1618 1.371 . S
C1618 H1607 0.930 . S
C1618 C1614 1.389 . S
C1618 C1617 1.371 . S
C1619 H1608 0.970 . S
C1619 H1609 0.970 . S
C1619 C1615 1.532 . S
C1619 C1620 1.499 . S
C1620 C1619 1.499 . S
C1620 C1621 1.370 . S
C1620 C1625 1.415 . S
C1621 H1610 0.930 . S
C1621 C1620 1.370 . S
C1621 C1622 1.407 . S
C1622 C1621 1.407 . S
C1622 C1623 1.365 . S
C1623 H1611 0.930 . S
C1623 C1622 1.365 . S
C1623 C1624 1.393 . S
C1624 C1623 1.393 . S
C1624 C1625 1.387 . S
C1625 H1612 0.930 . S
C1625 C1620 1.415 . S
C1625 C1624 1.387 . S
H1626 C1634 0.930 . S
H1627 C1637 0.930 . S
H1628 C1639 0.930 . S
H1629 C1640 0.970 . S
H1630 C1640 0.970 . S
H1631 C1642 0.930 . S
H1632 C1644 0.930 . S
H1633 C1646 0.930 . S
C1634 H1626 0.930 . S
C1634 C1635 1.382 . S
C1634 C1636 1.426 . S
C1635 C1634 1.382 . S
C1635 C1639 1.389 . S
C1636 C1634 1.426 . S
C1636 C1637 1.375 . S
C1636 C1640 1.532 . S
C1637 H1627 0.930 . S
C1637 C1636 1.375 . S
C1637 C1638 1.416 . S
C1638 C1637 1.416 . S
C1638 C1639 1.371 . S
C1639 H1628 0.930 . S
C1639 C1635 1.389 . S
C1639 C1638 1.371 . S
C1640 H1629 0.970 . S
C1640 H1630 0.970 . S
C1640 C1636 1.532 . S
C1640 C1641 1.499 . S
C1641 C1640 1.499 . S
C1641 C1642 1.370 . S
C1641 C1646 1.415 . S
C1642 H1631 0.930 . S
C1642 C1641 1.370 . S
C1642 C1643 1.407 . S
C1643 C1642 1.407 . S
C1643 C1644 1.365 . S
C1644 H1632 0.930 . S
C1644 C1643 1.365 . S
C1644 C1645 1.393 . S
C1645 C1644 1.393 . S
C1645 C1646 1.387 . S
C1646 H1633 0.930 . S
C1646 C1641 1.415 . S
C1646 C1645 1.387 . S
H1647 C1655 0.930 . S
H1648 C1658 0.930 . S
H1649 C1660 0.930 . S
H1650 C1661 0.970 . S
H1651 C1661 0.970 . S
H1652 C1663 0.930 . S
H1653 C1665 0.930 . S
H1654 C1667 0.930 . S
C1655 H1647 0.930 . S
C1655 C1656 1.382 . S
C1655 C1657 1.426 . S
C1656 C1655 1.382 . S
C1656 C1660 1.389 . S
C1657 C1655 1.426 . S
C1657 C1658 1.375 . S
C1657 C1661 1.532 . S
C1658 H1648 0.930 . S
C1658 C1657 1.375 . S
C1658 C1659 1.416 . S
C1659 C1658 1.416 . S
C1659 C1660 1.371 . S
C1660 H1649 0.930 . S
C1660 C1656 1.389 . S
C1660 C1659 1.371 . S
C1661 H1650 0.970 . S
C1661 H1651 0.970 . S
C1661 C1657 1.532 . S
C1661 C1662 1.499 . S
C1662 C1661 1.499 . S
C1662 C1663 1.370 . S
C1662 C1667 1.415 . S
C1663 H1652 0.930 . S
C1663 C1662 1.370 . S
C1663 C1664 1.407 . S
C1664 C1663 1.407 . S
C1664 C1665 1.365 . S
C1665 H1653 0.930 . S
C1665 C1664 1.365 . S
C1665 C1666 1.393 . S
C1666 C1665 1.393 . S
C1666 C1667 1.387 . S
C1667 H1654 0.930 . S
C1667 C1662 1.415 . S
C1667 C1666 1.387 . S
H1668 C1676 0.930 . S
H1669 C1679 0.930 . S
H1670 C1681 0.930 . S
H1671 C1682 0.970 . S
H1672 C1682 0.970 . S
H1673 C1684 0.930 . S
H1674 C1686 0.930 . S
H1675 C1688 0.930 . S
C1676 H1668 0.930 . S
C1676 C1677 1.382 . S
C1676 C1678 1.426 . S
C1677 C1676 1.382 . S
C1677 C1681 1.389 . S
C1678 C1676 1.426 . S
C1678 C1679 1.375 . S
C1678 C1682 1.532 . S
C1679 H1669 0.930 . S
C1679 C1678 1.375 . S
C1679 C1680 1.416 . S
C1680 C1679 1.416 . S
C1680 C1681 1.371 . S
C1681 H1670 0.930 . S
C1681 C1677 1.389 . S
C1681 C1680 1.371 . S
C1682 H1671 0.970 . S
C1682 H1672 0.970 . S
C1682 C1678 1.532 . S
C1682 C1683 1.499 . S
C1683 C1682 1.499 . S
C1683 C1684 1.370 . S
C1683 C1688 1.415 . S
C1684 H1673 0.930 . S
C1684 C1683 1.370 . S
C1684 C1685 1.407 . S
C1685 C1684 1.407 . S
C1685 C1686 1.365 . S
C1686 H1674 0.930 . S
C1686 C1685 1.365 . S
C1686 C1687 1.393 . S
C1687 C1686 1.393 . S
C1687 C1688 1.387 . S
C1688 H1675 0.930 . S
C1688 C1683 1.415 . S
C1688 C1687 1.387 . S
H1689 C1697 0.930 . S
H1690 C1700 0.930 . S
H1691 C1702 0.930 . S
H1692 C1703 0.970 . S
H1693 C1703 0.970 . S
H1694 C1705 0.930 . S
H1695 C1707 0.930 . S
H1696 C1709 0.930 . S
C1697 H1689 0.930 . S
C1697 C1698 1.382 . S
C1697 C1699 1.426 . S
C1698 C1697 1.382 . S
C1698 C1702 1.389 . S
C1699 C1697 1.426 . S
C1699 C1700 1.375 . S
C1699 C1703 1.532 . S
C1700 H1690 0.930 . S
C1700 C1699 1.375 . S
C1700 C1701 1.416 . S
C1701 C1700 1.416 . S
C1701 C1702 1.371 . S
C1702 H1691 0.930 . S
C1702 C1698 1.389 . S
C1702 C1701 1.371 . S
C1703 H1692 0.970 . S
C1703 H1693 0.970 . S
C1703 C1699 1.532 . S
C1703 C1704 1.499 . S
C1704 C1703 1.499 . S
C1704 C1705 1.370 . S
C1704 C1709 1.415 . S
C1705 H1694 0.930 . S
C1705 C1704 1.370 . S
C1705 C1706 1.407 . S
C1706 C1705 1.407 . S
C1706 C1707 1.365 . S
C1707 H1695 0.930 . S
C1707 C1706 1.365 . S
C1707 C1708 1.393 . S
C1708 C1707 1.393 . S
C1708 C1709 1.387 . S
C1709 H1696 0.930 . S
C1709 C1704 1.415 . S
C1709 C1708 1.387 . S
H1710 C1718 0.930 . S
H1711 C1721 0.930 . S
H1712 C1723 0.930 . S
H1713 C1724 0.970 . S
H1714 C1724 0.970 . S
H1715 C1726 0.930 . S
H1716 C1728 0.930 . S
H1717 C1730 0.930 . S
C1718 H1710 0.930 . S
C1718 C1719 1.382 . S
C1718 C1720 1.426 . S
C1719 C1718 1.382 . S
C1719 C1723 1.389 . S
C1720 C1718 1.426 . S
C1720 C1721 1.375 . S
C1720 C1724 1.532 . S
C1721 H1711 0.930 . S
C1721 C1720 1.375 . S
C1721 C1722 1.416 . S
C1722 C1721 1.416 . S
C1722 C1723 1.371 . S
C1723 H1712 0.930 . S
C1723 C1719 1.389 . S
C1723 C1722 1.371 . S
C1724 H1713 0.970 . S
C1724 H1714 0.970 . S
C1724 C1720 1.532 . S
C1724 C1725 1.499 . S
C1725 C1724 1.499 . S
C1725 C1726 1.370 . S
C1725 C1730 1.415 . S
C1726 H1715 0.930 . S
C1726 C1725 1.370 . S
C1726 C1727 1.407 . S
C1727 C1726 1.407 . S
C1727 C1728 1.365 . S
C1728 H1716 0.930 . S
C1728 C1727 1.365 . S
C1728 C1729 1.393 . S
C1729 C1728 1.393 . S
C1729 C1730 1.387 . S
C1730 H1717 0.930 . S
C1730 C1725 1.415 . S
C1730 C1729 1.387 . S
H1731 C1739 0.930 . S
H1732 C1742 0.930 . S
H1733 C1744 0.930 . S
H1734 C1745 0.970 . S
H1735 C1745 0.970 . S
H1736 C1747 0.930 . S
H1737 C1749 0.930 . S
H1738 C1751 0.930 . S
C1739 H1731 0.930 . S
C1739 C1740 1.382 . S
C1739 C1741 1.426 . S
C1740 C1739 1.382 . S
C1740 C1744 1.389 . S
C1741 C1739 1.426 . S
C1741 C1742 1.375 . S
C1741 C1745 1.532 . S
C1742 H1732 0.930 . S
C1742 C1741 1.375 . S
C1742 C1743 1.416 . S
C1743 C1742 1.416 . S
C1743 C1744 1.371 . S
C1744 H1733 0.930 . S
C1744 C1740 1.389 . S
C1744 C1743 1.371 . S
C1745 H1734 0.970 . S
C1745 H1735 0.970 . S
C1745 C1741 1.532 . S
C1745 C1746 1.499 . S
C1746 C1745 1.499 . S
C1746 C1747 1.370 . S
C1746 C1751 1.415 . S
C1747 H1736 0.930 . S
C1747 C1746 1.370 . S
C1747 C1748 1.407 . S
C1748 C1747 1.407 . S
C1748 C1749 1.365 . S
C1749 H1737 0.930 . S
C1749 C1748 1.365 . S
C1749 C1750 1.393 . S
C1750 C1749 1.393 . S
C1750 C1751 1.387 . S
C1751 H1738 0.930 . S
C1751 C1746 1.415 . S
C1751 C1750 1.387 . S
H1752 C1760 0.930 . S
H1753 C1763 0.930 . S
H1754 C1765 0.930 . S
H1755 C1766 0.970 . S
H1756 C1766 0.970 . S
H1757 C1768 0.930 . S
H1758 C1770 0.930 . S
H1759 C1772 0.930 . S
C1760 H1752 0.930 . S
C1760 C1761 1.382 . S
C1760 C1762 1.426 . S
C1761 C1760 1.382 . S
C1761 C1765 1.389 . S
C1762 C1760 1.426 . S
C1762 C1763 1.375 . S
C1762 C1766 1.532 . S
C1763 H1753 0.930 . S
C1763 C1762 1.375 . S
C1763 C1764 1.416 . S
C1764 C1763 1.416 . S
C1764 C1765 1.371 . S
C1765 H1754 0.930 . S
C1765 C1761 1.389 . S
C1765 C1764 1.371 . S
C1766 H1755 0.970 . S
C1766 H1756 0.970 . S
C1766 C1762 1.532 . S
C1766 C1767 1.499 . S
C1767 C1766 1.499 . S
C1767 C1768 1.370 . S
C1767 C1772 1.415 . S
C1768 H1757 0.930 . S
C1768 C1767 1.370 . S
C1768 C1769 1.407 . S
C1769 C1768 1.407 . S
C1769 C1770 1.365 . S
C1770 H1758 0.930 . S
C1770 C1769 1.365 . S
C1770 C1771 1.393 . S
C1771 C1770 1.393 . S
C1771 C1772 1.387 . S
C1772 H1759 0.930 . S
C1772 C1767 1.415 . S
C1772 C1771 1.387 . S
H1773 C1781 0.930 . S
H1774 C1784 0.930 . S
H1775 C1786 0.930 . S
H1776 C1787 0.970 . S
H1777 C1787 0.970 . S
H1778 C1789 0.930 . S
H1779 C1791 0.930 . S
H1780 C1793 0.930 . S
C1781 H1773 0.930 . S
C1781 C1782 1.382 . S
C1781 C1783 1.426 . S
C1782 C1781 1.382 . S
C1782 C1786 1.389 1_455 S
C1783 C1781 1.426 . S
C1783 C1784 1.375 . S
C1783 C1787 1.532 . S
C1784 H1774 0.930 . S
C1784 C1783 1.375 . S
C1784 C1785 1.416 . S
C1785 C1784 1.416 . S
C1785 C1786 1.371 1_455 S
C1786 H1775 0.930 . S
C1786 C1782 1.389 1_655 S
C1786 C1785 1.371 1_655 S
C1787 H1776 0.970 . S
C1787 H1777 0.970 . S
C1787 C1783 1.532 . S
C1787 C1788 1.499 . S
C1788 C1787 1.499 . S
C1788 C1789 1.370 . S
C1788 C1793 1.415 . S
C1789 H1778 0.930 . S
C1789 C1788 1.370 . S
C1789 C1790 1.409 . S
C1790 C1789 1.409 . S
C1790 C1791 1.368 1_455 S
C1791 H1779 0.930 . S
C1791 C1790 1.368 1_655 S
C1791 C1792 1.393 1_655 S
C1792 C1791 1.393 1_455 S
C1792 C1793 1.387 . S
C1793 H1780 0.930 . S
C1793 C1788 1.415 . S
C1793 C1792 1.387 . S
H1794 C1802 0.930 . S
H1795 C1805 0.930 . S
H1796 C1807 0.930 . S
H1797 C1808 0.970 . S
H1798 C1808 0.970 . S
H1799 C1810 0.930 . S
H1800 C1812 0.930 . S
H1801 C1814 0.930 . S
C1802 H1794 0.930 . S
C1802 C1803 1.382 . S
C1802 C1804 1.426 . S
C1803 C1802 1.382 . S
C1803 C1807 1.389 . S
C1804 C1802 1.426 . S
C1804 C1805 1.375 . S
C1804 C1808 1.532 . S
C1805 H1795 0.930 . S
C1805 C1804 1.375 . S
C1805 C1806 1.416 . S
C1806 C1805 1.416 . S
C1806 C1807 1.371 . S
C1807 H1796 0.930 . S
C1807 C1803 1.389 . S
C1807 C1806 1.371 . S
C1808 H1797 0.970 . S
C1808 H1798 0.970 . S
C1808 C1804 1.532 . S
C1808 C1809 1.499 . S
C1809 C1808 1.499 . S
C1809 C1810 1.370 . S
C1809 C1814 1.415 . S
C1810 H1799 0.930 . S
C1810 C1809 1.370 . S
C1810 C1811 1.407 . S
C1811 C1810 1.407 . S
C1811 C1812 1.365 . S
C1812 H1800 0.930 . S
C1812 C1811 1.365 . S
C1812 C1813 1.393 . S
C1813 C1812 1.393 . S
C1813 C1814 1.387 . S
C1814 H1801 0.930 . S
C1814 C1809 1.415 . S
C1814 C1813 1.387 . S
H1815 C1823 0.930 . S
H1816 C1826 0.930 . S
H1817 C1828 0.930 . S
H1818 C1829 0.970 . S
H1819 C1829 0.970 . S
H1820 C1831 0.930 . S
H1821 C1833 0.930 . S
H1822 C1835 0.930 . S
C1823 H1815 0.930 . S
C1823 C1824 1.382 . S
C1823 C1825 1.426 . S
C1824 C1823 1.382 . S
C1824 C1828 1.389 1_565 S
C1825 C1823 1.426 . S
C1825 C1826 1.375 . S
C1825 C1829 1.532 . S
C1826 H1816 0.930 . S
C1826 C1825 1.375 . S
C1826 C1827 1.416 . S
C1827 C1826 1.416 . S
C1827 C1828 1.371 1_565 S
C1828 H1817 0.930 . S
C1828 C1824 1.389 1_545 S
C1828 C1827 1.371 1_545 S
C1829 H1818 0.970 . S
C1829 H1819 0.970 . S
C1829 C1825 1.532 . S
C1829 C1830 1.499 . S
C1830 C1829 1.499 . S
C1830 C1831 1.370 . S
C1830 C1835 1.415 . S
C1831 H1820 0.930 . S
C1831 C1830 1.370 . S
C1831 C1832 1.427 . S
C1832 C1831 1.427 . S
C1832 C1833 1.357 1_565 S
C1833 H1821 0.930 . S
C1833 C1832 1.357 1_545 S
C1833 C1834 1.393 1_545 S
C1834 C1833 1.393 1_565 S
C1834 C1835 1.387 . S
C1835 H1822 0.930 . S
C1835 C1830 1.415 . S
C1835 C1834 1.387 . S
H1836 C1844 0.930 . S
H1837 C1847 0.930 . S
H1838 C1849 0.930 . S
H1839 C1850 0.970 . S
H1840 C1850 0.970 . S
H1841 C1852 0.930 . S
H1842 C1854 0.930 . S
H1843 C1856 0.930 . S
C1844 H1836 0.930 . S
C1844 C1845 1.382 . S
C1844 C1846 1.426 . S
C1845 C1844 1.382 . S
C1845 C1849 1.389 1_565 S
C1846 C1844 1.426 . S
C1846 C1847 1.375 . S
C1846 C1850 1.532 . S
C1847 H1837 0.930 . S
C1847 C1846 1.375 . S
C1847 C1848 1.478 . S
C1848 C1847 1.478 . S
C1848 C1849 1.349 1_565 S
C1849 H1838 0.930 . S
C1849 C1845 1.389 1_545 S
C1849 C1848 1.349 1_545 S
C1850 H1839 0.970 . S
C1850 H1840 0.970 . S
C1850 C1846 1.532 . S
C1850 C1851 1.499 . S
C1851 C1850 1.499 . S
C1851 C1852 1.370 . S
C1851 C1856 1.415 . S
C1852 H1841 0.930 . S
C1852 C1851 1.370 . S
C1852 C1853 1.407 . S
C1853 C1852 1.407 . S
C1853 C1854 1.365 1_565 S
C1854 H1842 0.930 . S
C1854 C1853 1.365 1_545 S
C1854 C1855 1.393 1_545 S
C1855 C1854 1.393 1_565 S
C1855 C1856 1.387 . S
C1856 H1843 0.930 . S
C1856 C1851 1.415 . S
C1856 C1855 1.387 . S
H1857 C1865 0.930 . S
H1858 C1868 0.930 . S
H1859 C1870 0.930 . S
H1860 C1871 0.970 . S
H1861 C1871 0.970 . S
H1862 C1873 0.930 . S
H1863 C1875 0.930 . S
H1864 C1877 0.930 . S
C1865 H1857 0.930 . S
C1865 C1866 1.382 . S
C1865 C1867 1.426 . S
C1866 C1865 1.382 . S
C1866 C1870 1.389 1_455 S
C1867 C1865 1.426 . S
C1867 C1868 1.375 . S
C1867 C1871 1.532 . S
C1868 H1858 0.930 . S
C1868 C1867 1.375 . S
C1868 C1869 1.416 . S
C1869 C1868 1.416 . S
C1869 C1870 1.371 1_455 S
C1870 H1859 0.930 . S
C1870 C1866 1.389 1_655 S
C1870 C1869 1.371 1_655 S
C1871 H1860 0.970 . S
C1871 H1861 0.970 . S
C1871 C1867 1.532 . S
C1871 C1872 1.499 . S
C1872 C1871 1.499 . S
C1872 C1873 1.370 . S
C1872 C1877 1.415 . S
C1873 H1862 0.930 . S
C1873 C1872 1.370 . S
C1873 C1874 1.407 . S
C1874 C1873 1.407 . S
C1874 C1875 1.365 1_455 S
C1875 H1863 0.930 . S
C1875 C1874 1.365 1_655 S
C1875 C1876 1.393 1_655 S
C1876 C1875 1.393 1_455 S
C1876 C1877 1.387 . S
C1877 H1864 0.930 . S
C1877 C1872 1.415 . S
C1877 C1876 1.387 . S
H1878 C1886 0.930 . S
H1879 C1889 0.930 . S
H1880 C1891 0.930 . S
H1881 C1892 0.970 . S
H1882 C1892 0.970 . S
H1883 C1894 0.930 . S
H1884 C1896 0.930 . S
H1885 C1898 0.930 . S
C1886 H1878 0.930 . S
C1886 C1887 1.382 . S
C1886 C1888 1.426 . S
C1887 C1886 1.382 . S
C1887 C1891 1.389 . S
C1888 C1886 1.426 . S
C1888 C1889 1.375 . S
C1888 C1892 1.532 . S
C1889 H1879 0.930 . S
C1889 C1888 1.375 . S
C1889 C1890 1.416 . S
C1890 C1889 1.416 . S
C1890 C1891 1.371 . S
C1891 H1880 0.930 . S
C1891 C1887 1.389 . S
C1891 C1890 1.371 . S
C1892 H1881 0.970 . S
C1892 H1882 0.970 . S
C1892 C1888 1.532 . S
C1892 C1893 1.499 . S
C1893 C1892 1.499 . S
C1893 C1894 1.370 . S
C1893 C1898 1.415 . S
C1894 H1883 0.930 . S
C1894 C1893 1.370 . S
C1894 C1895 1.407 . S
C1895 C1894 1.407 . S
C1895 C1896 1.365 . S
C1896 H1884 0.930 . S
C1896 C1895 1.365 . S
C1896 C1897 1.393 . S
C1897 C1896 1.393 . S
C1897 C1898 1.387 . S
C1898 H1885 0.930 . S
C1898 C1893 1.415 . S
C1898 C1897 1.387 . S
H1899 C1907 0.930 . S
H1900 C1910 0.930 . S
H1901 C1912 0.930 . S
H1902 C1913 0.970 . S
H1903 C1913 0.970 . S
H1904 C1915 0.930 . S
H1905 C1917 0.930 . S
H1906 C1919 0.930 . S
C1907 H1899 0.930 . S
C1907 C1908 1.382 . S
C1907 C1909 1.426 . S
C1908 C1907 1.382 . S
C1908 C1912 1.389 . S
C1909 C1907 1.426 . S
C1909 C1910 1.375 . S
C1909 C1913 1.532 . S
C1910 H1900 0.930 . S
C1910 C1909 1.375 . S
C1910 C1911 1.416 . S
C1911 C1910 1.416 . S
C1911 C1912 1.371 . S
C1912 H1901 0.930 . S
C1912 C1908 1.389 . S
C1912 C1911 1.371 . S
C1913 H1902 0.970 . S
C1913 H1903 0.970 . S
C1913 C1909 1.532 . S
C1913 C1914 1.499 . S
C1914 C1913 1.499 . S
C1914 C1915 1.370 . S
C1914 C1919 1.415 . S
C1915 H1904 0.930 . S
C1915 C1914 1.370 . S
C1915 C1916 1.407 . S
C1916 C1915 1.407 . S
C1916 C1917 1.365 . S
C1917 H1905 0.930 . S
C1917 C1916 1.365 . S
C1917 C1918 1.393 . S
C1918 C1917 1.393 . S
C1918 C1919 1.387 . S
C1919 H1906 0.930 . S
C1919 C1914 1.415 . S
C1919 C1918 1.387 . S
H1920 C1928 0.930 . S
H1921 C1931 0.930 . S
H1922 C1933 0.930 . S
H1923 C1934 0.970 . S
H1924 C1934 0.970 . S
H1925 C1936 0.930 . S
H1926 C1938 0.930 . S
H1927 C1940 0.930 . S
C1928 H1920 0.930 . S
C1928 C1929 1.382 . S
C1928 C1930 1.426 . S
C1929 C1928 1.382 . S
C1929 C1933 1.389 . S
C1930 C1928 1.426 . S
C1930 C1931 1.375 . S
C1930 C1934 1.532 . S
C1931 H1921 0.930 . S
C1931 C1930 1.375 . S
C1931 C1932 1.416 . S
C1932 C1931 1.416 . S
C1932 C1933 1.371 . S
C1933 H1922 0.930 . S
C1933 C1929 1.389 . S
C1933 C1932 1.371 . S
C1934 H1923 0.970 . S
C1934 H1924 0.970 . S
C1934 C1930 1.532 . S
C1934 C1935 1.499 . S
C1935 C1934 1.499 . S
C1935 C1936 1.370 . S
C1935 C1940 1.415 . S
C1936 H1925 0.930 . S
C1936 C1935 1.370 . S
C1936 C1937 1.407 . S
C1937 C1936 1.407 . S
C1937 C1938 1.365 . S
C1938 H1926 0.930 . S
C1938 C1937 1.365 . S
C1938 C1939 1.393 . S
C1939 C1938 1.393 . S
C1939 C1940 1.387 . S
C1940 H1927 0.930 . S
C1940 C1935 1.415 . S
C1940 C1939 1.387 . S
H1941 C1949 0.930 . S
H1942 C1952 0.930 . S
H1943 C1954 0.930 . S
H1944 C1955 0.970 . S
H1945 C1955 0.970 . S
H1946 C1957 0.930 . S
H1947 C1959 0.930 . S
H1948 C1961 0.930 . S
C1949 H1941 0.930 . S
C1949 C1950 1.382 . S
C1949 C1951 1.426 . S
C1950 C1949 1.382 . S
C1950 C1954 1.389 . S
C1951 C1949 1.426 . S
C1951 C1952 1.375 . S
C1951 C1955 1.532 . S
C1952 H1942 0.930 . S
C1952 C1951 1.375 . S
C1952 C1953 1.416 . S
C1953 C1952 1.416 . S
C1953 C1954 1.371 . S
C1954 H1943 0.930 . S
C1954 C1950 1.389 . S
C1954 C1953 1.371 . S
C1955 H1944 0.970 . S
C1955 H1945 0.970 . S
C1955 C1951 1.532 . S
C1955 C1956 1.499 . S
C1956 C1955 1.499 . S
C1956 C1957 1.370 . S
C1956 C1961 1.415 . S
C1957 H1946 0.930 . S
C1957 C1956 1.370 . S
C1957 C1958 1.407 . S
C1958 C1957 1.407 . S
C1958 C1959 1.365 . S
C1959 H1947 0.930 . S
C1959 C1958 1.365 . S
C1959 C1960 1.393 . S
C1960 C1959 1.393 . S
C1960 C1961 1.387 . S
C1961 H1948 0.930 . S
C1961 C1956 1.415 . S
C1961 C1960 1.387 . S
C1962 C1963 1.387 1_455 S
C1962 H1966 0.950 . S
C1962 C1971 1.390 . S
C1963 C1962 1.387 1_655 S
C1963 C1965 1.387 . S
H1964 C1971 0.950 . S
C1965 C1963 1.387 . S
C1965 C1967 1.390 . S
C1965 H1969 0.950 . S
H1966 C1962 0.950 . S
C1967 C1965 1.390 . S
C1967 C1968 1.387 . S
C1967 H1970 0.950 . S
C1968 C1967 1.387 . S
C1968 C1971 1.387 1_655 S
H1969 C1965 0.950 . S
H1970 C1967 0.950 . S
C1971 C1962 1.390 . S
C1971 H1964 0.950 . S
C1971 C1968 1.387 1_455 S
C1972 C1973 1.387 . S
C1972 H1976 0.950 . S
C1972 C1981 1.390 . S
C1973 C1972 1.387 . S
C1973 C1975 1.387 . S
H1974 C1981 0.950 . S
C1975 C1973 1.387 . S
C1975 C1977 1.390 . S
C1975 H1979 0.950 . S
H1976 C1972 0.950 . S
C1977 C1975 1.390 . S
C1977 C1978 1.387 . S
C1977 H1980 0.950 . S
C1978 C1977 1.387 . S
C1978 C1981 1.387 . S
H1979 C1975 0.950 . S
H1980 C1977 0.950 . S
C1981 C1972 1.390 . S
C1981 H1974 0.950 . S
C1981 C1978 1.387 . S
C1982 C1983 1.387 1_565 S
C1982 H1986 0.950 . S
C1982 C1991 1.390 . S
C1983 C1982 1.387 1_545 S
C1983 C1985 1.387 . S
H1984 C1991 0.950 . S
C1985 C1983 1.387 . S
C1985 C1987 1.390 . S
C1985 H1989 0.950 . S
H1986 C1982 0.950 . S
C1987 C1985 1.390 . S
C1987 C1988 1.387 . S
C1987 H1990 0.950 . S
C1988 C1987 1.387 . S
C1988 C1991 1.387 1_545 S
H1989 C1985 0.950 . S
H1990 C1987 0.950 . S
C1991 C1982 1.390 . S
C1991 H1984 0.950 . S
C1991 C1988 1.387 1_565 S
C1992 C1993 1.387 . S
C1992 H1996 0.950 . S
C1992 C2001 1.390 . S
C1993 C1992 1.387 . S
C1993 C1995 1.387 1_565 S
H1994 C2001 0.950 . S
C1995 C1993 1.387 1_545 S
C1995 C1997 1.390 . S
C1995 H1999 0.950 . S
H1996 C1992 0.950 . S
C1997 C1995 1.390 . S
C1997 C1998 1.387 1_545 S
C1997 H2000 0.950 . S
C1998 C1997 1.387 1_565 S
C1998 C2001 1.387 . S
H1999 C1995 0.950 . S
H2000 C1997 0.950 . S
C2001 C1992 1.390 . S
C2001 H1994 0.950 . S
C2001 C1998 1.387 . S
C2002 C2003 1.387 . S
C2002 H2006 0.950 . S
C2002 C2011 1.390 . S
C2003 C2002 1.387 . S
C2003 C2005 1.387 . S
H2004 C2011 0.950 . S
C2005 C2003 1.387 . S
C2005 C2007 1.390 1_455 S
C2005 H2009 0.950 1_455 S
H2006 C2002 0.950 . S
C2007 C2005 1.390 1_655 S
C2007 C2008 1.387 1_655 S
C2007 H2010 0.950 . S
C2008 C2007 1.387 1_455 S
C2008 C2011 1.387 . S
H2009 C2005 0.950 1_655 S
H2010 C2007 0.950 . S
C2011 C2002 1.390 . S
C2011 H2004 0.950 . S
C2011 C2008 1.387 . S
C2012 C2013 1.387 . S
C2012 H2016 0.950 . S
C2012 C2021 1.390 . S
C2013 C2012 1.387 . S
C2013 C2015 1.387 . S
H2014 C2021 0.950 . S
C2015 C2013 1.387 . S
C2015 C2017 1.390 . S
C2015 H2019 0.950 . S
H2016 C2012 0.950 . S
C2017 C2015 1.390 . S
C2017 C2018 1.387 . S
C2017 H2020 0.950 . S
C2018 C2017 1.387 . S
C2018 C2021 1.387 . S
H2019 C2015 0.950 . S
H2020 C2017 0.950 . S
C2021 C2012 1.390 . S
C2021 H2014 0.950 . S
C2021 C2018 1.387 . S
C2022 C2023 1.387 . S
C2022 H2026 0.950 . S
C2022 C2031 1.390 . S
C2023 C2022 1.387 . S
C2023 C2025 1.387 . S
H2024 C2031 0.950 . S
C2025 C2023 1.387 . S
C2025 C2027 1.390 . S
C2025 H2029 0.950 . S
H2026 C2022 0.950 . S
C2027 C2025 1.390 . S
C2027 C2028 1.387 . S
C2027 H2030 0.950 1_455 S
C2028 C2027 1.387 . S
C2028 C2031 1.387 . S
H2029 C2025 0.950 . S
H2030 C2027 0.950 1_655 S
C2031 C2022 1.390 . S
C2031 H2024 0.950 . S
C2031 C2028 1.387 . S
C2032 C2033 1.387 . S
C2032 H2036 0.950 . S
C2032 C2041 1.390 . S
C2033 C2032 1.387 . S
C2033 C2035 1.387 . S
H2034 C2041 0.950 . S
C2035 C2033 1.387 . S
C2035 C2037 1.390 . S
C2035 H2039 0.950 . S
H2036 C2032 0.950 . S
C2037 C2035 1.390 . S
C2037 C2038 1.387 . S
C2037 H2040 0.950 . S
C2038 C2037 1.387 . S
C2038 C2041 1.387 . S
H2039 C2035 0.950 . S
H2040 C2037 0.950 . S
C2041 C2032 1.390 . S
C2041 H2034 0.950 . S
C2041 C2038 1.387 . S
C2042 C2043 1.387 . S
C2042 H2046 0.950 . S
C2042 C2051 1.390 . S
C2043 C2042 1.387 . S
C2043 C2045 1.387 1_565 S
H2044 C2051 0.950 . S
C2045 C2043 1.387 1_545 S
C2045 C2047 1.390 . S
C2045 H2049 0.950 . S
H2046 C2042 0.950 . S
C2047 C2045 1.390 . S
C2047 C2048 1.387 1_545 S
C2047 H2050 0.950 . S
C2048 C2047 1.387 1_565 S
C2048 C2051 1.387 . S
H2049 C2045 0.950 . S
H2050 C2047 0.950 . S
C2051 C2042 1.390 . S
C2051 H2044 0.950 . S
C2051 C2048 1.387 . S
C2052 C2053 1.387 . S
C2052 H2056 0.950 . S
C2052 C2061 1.390 . S
C2053 C2052 1.387 . S
C2053 C2055 1.387 1_545 S
H2054 C2061 0.950 . S
C2055 C2053 1.387 1_565 S
C2055 C2057 1.390 . S
C2055 H2059 0.950 . S
H2056 C2052 0.950 . S
C2057 C2055 1.390 . S
C2057 C2058 1.387 1_565 S
C2057 H2060 0.950 . S
C2058 C2057 1.387 1_545 S
C2058 C2061 1.387 . S
H2059 C2055 0.950 . S
H2060 C2057 0.950 . S
C2061 C2052 1.390 . S
C2061 H2054 0.950 . S
C2061 C2058 1.387 . S
C2062 C2063 1.387 . S
C2062 H2066 0.950 1_655 S
C2062 C2071 1.390 1_655 S
C2063 C2062 1.387 . S
C2063 C2065 1.387 . S
H2064 C2071 0.950 . S
C2065 C2063 1.387 . S
C2065 C2067 1.390 . S
C2065 H2069 0.950 . S
H2066 C2062 0.950 1_455 S
C2067 C2065 1.390 . S
C2067 C2068 1.387 . S
C2067 H2070 0.950 . S
C2068 C2067 1.387 . S
C2068 C2071 1.387 1_655 S
H2069 C2065 0.950 . S
H2070 C2067 0.950 . S
C2071 C2062 1.390 1_455 S
C2071 H2064 0.950 . S
C2071 C2068 1.387 1_455 S
C2072 C2073 1.387 . S
C2072 H2076 0.950 . S
C2072 C2081 1.390 . S
C2073 C2072 1.387 . S
C2073 C2075 1.387 . S
H2074 C2081 0.950 . S
C2075 C2073 1.387 . S
C2075 C2077 1.390 . S
C2075 H2079 0.950 . S
H2076 C2072 0.950 . S
C2077 C2075 1.390 . S
C2077 C2078 1.387 . S
C2077 H2080 0.950 . S
C2078 C2077 1.387 . S
C2078 C2081 1.387 . S
H2079 C2075 0.950 . S
H2080 C2077 0.950 . S
C2081 C2072 1.390 . S
C2081 H2074 0.950 . S
C2081 C2078 1.387 . S
C2082 C2083 1.387 . S
C2082 H2086 0.950 . S
C2082 C2091 1.390 . S
C2083 C2082 1.387 . S
C2083 C2085 1.387 . S
H2084 C2091 0.950 . S
C2085 C2083 1.387 . S
C2085 C2087 1.390 . S
C2085 H2089 0.950 . S
H2086 C2082 0.950 . S
C2087 C2085 1.390 . S
C2087 C2088 1.387 . S
C2087 H2090 0.950 . S
C2088 C2087 1.387 . S
C2088 C2091 1.387 . S
H2089 C2085 0.950 . S
H2090 C2087 0.950 . S
C2091 C2082 1.390 . S
C2091 H2084 0.950 . S
C2091 C2088 1.387 . S
C2092 C2093 1.387 . S
C2092 H2096 0.950 . S
C2092 C2101 1.390 . S
C2093 C2092 1.387 . S
C2093 C2095 1.387 . S
H2094 C2101 0.950 . S
C2095 C2093 1.387 . S
C2095 C2097 1.390 . S
C2095 H2099 0.950 . S
H2096 C2092 0.950 . S
C2097 C2095 1.390 . S
C2097 C2098 1.387 . S
C2097 H2100 0.950 . S
C2098 C2097 1.387 . S
C2098 C2101 1.387 . S
H2099 C2095 0.950 . S
H2100 C2097 0.950 . S
C2101 C2092 1.390 . S
C2101 H2094 0.950 . S
C2101 C2098 1.387 . S
C2102 C2103 1.387 . S
C2102 H2106 0.950 . S
C2102 C2111 1.390 . S
C2103 C2102 1.387 . S
C2103 C2105 1.387 . S
H2104 C2111 0.950 . S
C2105 C2103 1.387 . S
C2105 C2107 1.390 . S
C2105 H2109 0.950 . S
H2106 C2102 0.950 . S
C2107 C2105 1.390 . S
C2107 C2108 1.387 . S
C2107 H2110 0.950 . S
C2108 C2107 1.387 . S
C2108 C2111 1.387 . S
H2109 C2105 0.950 . S
H2110 C2107 0.950 . S
C2111 C2102 1.390 . S
C2111 H2104 0.950 . S
C2111 C2108 1.387 . S
C2112 C2113 1.387 . S
C2112 H2116 0.950 . S
C2112 C2121 1.390 . S
C2113 C2112 1.387 . S
C2113 C2115 1.387 . S
H2114 C2121 0.950 . S
C2115 C2113 1.387 . S
C2115 C2117 1.390 . S
C2115 H2119 0.950 . S
H2116 C2112 0.950 . S
C2117 C2115 1.390 . S
C2117 C2118 1.387 . S
C2117 H2120 0.950 . S
C2118 C2117 1.387 . S
C2118 C2121 1.387 . S
H2119 C2115 0.950 . S
H2120 C2117 0.950 . S
C2121 C2112 1.390 . S
C2121 H2114 0.950 . S
C2121 C2118 1.387 . S
C2122 C2123 1.387 . S
C2122 H2126 0.950 . S
C2122 C2131 1.390 . S
C2123 C2122 1.387 . S
C2123 C2125 1.387 . S
H2124 C2131 0.950 . S
C2125 C2123 1.387 . S
C2125 C2127 1.390 . S
C2125 H2129 0.950 . S
H2126 C2122 0.950 . S
C2127 C2125 1.390 . S
C2127 C2128 1.387 . S
C2127 H2130 0.950 . S
C2128 C2127 1.387 . S
C2128 C2131 1.387 . S
H2129 C2125 0.950 . S
H2130 C2127 0.950 . S
C2131 C2122 1.390 . S
C2131 H2124 0.950 . S
C2131 C2128 1.387 . S
C2132 C2133 1.387 . S
C2132 H2136 0.950 . S
C2132 C2141 1.390 . S
C2133 C2132 1.387 . S
C2133 C2135 1.387 . S
H2134 C2141 0.950 . S
C2135 C2133 1.387 . S
C2135 C2137 1.390 . S
C2135 H2139 0.950 . S
H2136 C2132 0.950 . S
C2137 C2135 1.390 . S
C2137 C2138 1.387 . S
C2137 H2140 0.950 . S
C2138 C2137 1.387 . S
C2138 C2141 1.387 . S
H2139 C2135 0.950 . S
H2140 C2137 0.950 . S
C2141 C2132 1.390 . S
C2141 H2134 0.950 . S
C2141 C2138 1.387 . S
C2142 C2143 1.387 . S
C2142 H2146 0.950 . S
C2142 C2151 1.390 . S
C2143 C2142 1.387 . S
C2143 C2145 1.387 . S
H2144 C2151 0.950 . S
C2145 C2143 1.387 . S
C2145 C2147 1.390 . S
C2145 H2149 0.950 . S
H2146 C2142 0.950 . S
C2147 C2145 1.390 . S
C2147 C2148 1.387 . S
C2147 H2150 0.950 . S
C2148 C2147 1.387 . S
C2148 C2151 1.387 . S
H2149 C2145 0.950 . S
H2150 C2147 0.950 . S
C2151 C2142 1.390 . S
C2151 H2144 0.950 . S
C2151 C2148 1.387 . S
C2152 C2153 1.387 . S
C2152 H2156 0.950 . S
C2152 C2161 1.390 . S
C2153 C2152 1.387 . S
C2153 C2155 1.387 . S
H2154 C2161 0.950 . S
C2155 C2153 1.387 . S
C2155 C2157 1.390 . S
C2155 H2159 0.950 . S
H2156 C2152 0.950 . S
C2157 C2155 1.390 . S
C2157 C2158 1.387 . S
C2157 H2160 0.950 . S
C2158 C2157 1.387 . S
C2158 C2161 1.387 . S
H2159 C2155 0.950 . S
H2160 C2157 0.950 . S
C2161 C2152 1.390 . S
C2161 H2154 0.950 . S
C2161 C2158 1.387 . S
C2162 C2163 1.387 . S
C2162 H2166 0.950 . S
C2162 C2171 1.390 . S
C2163 C2162 1.387 . S
C2163 C2165 1.387 . S
H2164 C2171 0.950 . S
C2165 C2163 1.387 . S
C2165 C2167 1.390 . S
C2165 H2169 0.950 . S
H2166 C2162 0.950 . S
C2167 C2165 1.390 . S
C2167 C2168 1.387 . S
C2167 H2170 0.950 . S
C2168 C2167 1.387 . S
C2168 C2171 1.387 . S
H2169 C2165 0.950 . S
H2170 C2167 0.950 . S
C2171 C2162 1.390 . S
C2171 H2164 0.950 . S
C2171 C2168 1.387 . S
C2172 C2173 1.387 . S
C2172 H2176 0.950 . S
C2172 C2181 1.390 . S
C2173 C2172 1.387 . S
C2173 C2175 1.387 . S
H2174 C2181 0.950 . S
C2175 C2173 1.387 . S
C2175 C2177 1.390 . S
C2175 H2179 0.950 . S
H2176 C2172 0.950 . S
C2177 C2175 1.390 . S
C2177 C2178 1.387 . S
C2177 H2180 0.950 . S
C2178 C2177 1.387 . S
C2178 C2181 1.387 . S
H2179 C2175 0.950 . S
H2180 C2177 0.950 . S
C2181 C2172 1.390 . S
C2181 H2174 0.950 . S
C2181 C2178 1.387 . S
C2182 C2183 1.387 . S
C2182 H2186 0.950 . S
C2182 C2191 1.390 . S
C2183 C2182 1.387 . S
C2183 C2185 1.387 . S
H2184 C2191 0.950 . S
C2185 C2183 1.387 . S
C2185 C2187 1.390 . S
C2185 H2189 0.950 . S
H2186 C2182 0.950 . S
C2187 C2185 1.390 . S
C2187 C2188 1.387 . S
C2187 H2190 0.950 . S
C2188 C2187 1.387 . S
C2188 C2191 1.387 . S
H2189 C2185 0.950 . S
H2190 C2187 0.950 . S
C2191 C2182 1.390 . S
C2191 H2184 0.950 . S
C2191 C2188 1.387 . S
C2192 C2193 1.387 . S
C2192 H2196 0.950 . S
C2192 C2201 1.390 . S
C2193 C2192 1.387 . S
C2193 C2195 1.387 . S
H2194 C2201 0.950 . S
C2195 C2193 1.387 . S
C2195 C2197 1.390 . S
C2195 H2199 0.950 . S
H2196 C2192 0.950 . S
C2197 C2195 1.390 . S
C2197 C2198 1.387 . S
C2197 H2200 0.950 . S
C2198 C2197 1.387 . S
C2198 C2201 1.387 . S
H2199 C2195 0.950 . S
H2200 C2197 0.950 . S
C2201 C2192 1.390 . S
C2201 H2194 0.950 . S
C2201 C2198 1.387 . S
C2202 C2203 1.387 . S
C2202 H2206 0.950 . S
C2202 C2211 1.390 . S
C2203 C2202 1.387 . S
C2203 C2205 1.387 . S
H2204 C2211 0.950 . S
C2205 C2203 1.387 . S
C2205 C2207 1.390 . S
C2205 H2209 0.950 . S
H2206 C2202 0.950 . S
C2207 C2205 1.390 . S
C2207 C2208 1.387 . S
C2207 H2210 0.950 . S
C2208 C2207 1.387 . S
C2208 C2211 1.387 . S
H2209 C2205 0.950 . S
H2210 C2207 0.950 . S
C2211 C2202 1.390 . S
C2211 H2204 0.950 . S
C2211 C2208 1.387 . S
C2212 C2213 1.387 . S
C2212 H2216 0.950 . S
C2212 C2221 1.390 . S
C2213 C2212 1.387 . S
C2213 C2215 1.387 . S
H2214 C2221 0.950 . S
C2215 C2213 1.387 . S
C2215 C2217 1.390 . S
C2215 H2219 0.950 . S
H2216 C2212 0.950 . S
C2217 C2215 1.390 . S
C2217 C2218 1.387 . S
C2217 H2220 0.950 . S
C2218 C2217 1.387 . S
C2218 C2221 1.387 . S
H2219 C2215 0.950 . S
H2220 C2217 0.950 . S
C2221 C2212 1.390 . S
C2221 H2214 0.950 . S
C2221 C2218 1.387 . S
C2222 C2223 1.387 . S
C2222 H2226 0.950 . S
C2222 C2231 1.390 . S
C2223 C2222 1.387 . S
C2223 C2225 1.387 . S
H2224 C2231 0.950 . S
C2225 C2223 1.387 . S
C2225 C2227 1.390 . S
C2225 H2229 0.950 . S
H2226 C2222 0.950 . S
C2227 C2225 1.390 . S
C2227 C2228 1.387 . S
C2227 H2230 0.950 . S
C2228 C2227 1.387 . S
C2228 C2231 1.387 . S
H2229 C2225 0.950 . S
H2230 C2227 0.950 . S
C2231 C2222 1.390 . S
C2231 H2224 0.950 . S
C2231 C2228 1.387 . S
C2232 C2233 1.387 . S
C2232 H2236 0.950 . S
C2232 C2241 1.390 . S
C2233 C2232 1.387 . S
C2233 C2235 1.387 . S
H2234 C2241 0.950 . S
C2235 C2233 1.387 . S
C2235 C2237 1.390 . S
C2235 H2239 0.950 . S
H2236 C2232 0.950 . S
C2237 C2235 1.390 . S
C2237 C2238 1.387 . S
C2237 H2240 0.950 . S
C2238 C2237 1.387 . S
C2238 C2241 1.387 . S
H2239 C2235 0.950 . S
H2240 C2237 0.950 . S
C2241 C2232 1.390 . S
C2241 H2234 0.950 . S
C2241 C2238 1.387 . S
C2242 C2243 1.387 . S
C2242 H2246 0.950 . S
C2242 C2251 1.390 . S
C2243 C2242 1.387 . S
C2243 C2245 1.387 . S
H2244 C2251 0.950 . S
C2245 C2243 1.387 . S
C2245 C2247 1.390 . S
C2245 H2249 0.950 . S
H2246 C2242 0.950 . S
C2247 C2245 1.390 . S
C2247 C2248 1.387 . S
C2247 H2250 0.950 . S
C2248 C2247 1.387 . S
C2248 C2251 1.387 . S
H2249 C2245 0.950 . S
H2250 C2247 0.950 . S
C2251 C2242 1.390 . S
C2251 H2244 0.950 . S
C2251 C2248 1.387 . S
C2252 C2253 1.387 . S
C2252 H2256 0.950 . S
C2252 C2261 1.390 . S
C2253 C2252 1.387 . S
C2253 C2255 1.387 . S
H2254 C2261 0.950 . S
C2255 C2253 1.387 . S
C2255 C2257 1.390 . S
C2255 H2259 0.950 . S
H2256 C2252 0.950 . S
C2257 C2255 1.390 . S
C2257 C2258 1.387 . S
C2257 H2260 0.950 . S
C2258 C2257 1.387 . S
C2258 C2261 1.387 . S
H2259 C2255 0.950 . S
H2260 C2257 0.950 . S
C2261 C2252 1.390 . S
C2261 H2254 0.950 . S
C2261 C2258 1.387 . S
C2262 C2263 1.387 . S
C2262 H2266 0.950 . S
C2262 C2271 1.390 . S
C2263 C2262 1.387 . S
C2263 C2265 1.387 . S
H2264 C2271 0.950 . S
C2265 C2263 1.387 . S
C2265 C2267 1.390 . S
C2265 H2269 0.950 . S
H2266 C2262 0.950 . S
C2267 C2265 1.390 . S
C2267 C2268 1.387 . S
C2267 H2270 0.950 . S
C2268 C2267 1.387 . S
C2268 C2271 1.387 . S
H2269 C2265 0.950 . S
H2270 C2267 0.950 . S
C2271 C2262 1.390 . S
C2271 H2264 0.950 . S
C2271 C2268 1.387 . S
C2272 C2273 1.387 . S
C2272 H2276 0.950 . S
C2272 C2281 1.390 . S
C2273 C2272 1.387 . S
C2273 C2275 1.387 . S
H2274 C2281 0.950 . S
C2275 C2273 1.387 . S
C2275 C2277 1.390 . S
C2275 H2279 0.950 . S
H2276 C2272 0.950 . S
C2277 C2275 1.390 . S
C2277 C2278 1.387 . S
C2277 H2280 0.950 . S
C2278 C2277 1.387 . S
C2278 C2281 1.387 . S
H2279 C2275 0.950 . S
H2280 C2277 0.950 . S
C2281 C2272 1.390 . S
C2281 H2274 0.950 . S
C2281 C2278 1.387 . S
C2282 C2283 1.387 . S
C2282 H2286 0.950 . S
C2282 C2291 1.390 . S
C2283 C2282 1.387 . S
C2283 C2285 1.387 . S
H2284 C2291 0.950 . S
C2285 C2283 1.387 . S
C2285 C2287 1.390 . S
C2285 H2289 0.950 . S
H2286 C2282 0.950 . S
C2287 C2285 1.390 . S
C2287 C2288 1.387 . S
C2287 H2290 0.950 . S
C2288 C2287 1.387 . S
C2288 C2291 1.387 . S
H2289 C2285 0.950 . S
H2290 C2287 0.950 . S
C2291 C2282 1.390 . S
C2291 H2284 0.950 . S
C2291 C2288 1.387 . S
C2292 C2293 1.387 . S
C2292 H2296 0.950 . S
C2292 C2301 1.390 . S
C2293 C2292 1.387 . S
C2293 C2295 1.387 . S
H2294 C2301 0.950 . S
C2295 C2293 1.387 . S
C2295 C2297 1.390 . S
C2295 H2299 0.950 . S
H2296 C2292 0.950 . S
C2297 C2295 1.390 . S
C2297 C2298 1.387 . S
C2297 H2300 0.950 . S
C2298 C2297 1.387 . S
C2298 C2301 1.387 . S
H2299 C2295 0.950 . S
H2300 C2297 0.950 . S
C2301 C2292 1.390 . S
C2301 H2294 0.950 . S
C2301 C2298 1.387 . S
C2302 C2303 1.387 . S
C2302 H2306 0.950 . S
C2302 C2311 1.390 . S
C2303 C2302 1.387 . S
C2303 C2305 1.387 . S
H2304 C2311 0.950 . S
C2305 C2303 1.387 . S
C2305 C2307 1.390 . S
C2305 H2309 0.950 . S
H2306 C2302 0.950 . S
C2307 C2305 1.390 . S
C2307 C2308 1.387 . S
C2307 H2310 0.950 . S
C2308 C2307 1.387 . S
C2308 C2311 1.387 . S
H2309 C2305 0.950 . S
H2310 C2307 0.950 . S
C2311 C2302 1.390 . S
C2311 H2304 0.950 . S
C2311 C2308 1.387 . S
C2312 C2313 1.387 . S
C2312 H2316 0.950 . S
C2312 C2321 1.390 . S
C2313 C2312 1.387 . S
C2313 C2315 1.387 . S
H2314 C2321 0.950 . S
C2315 C2313 1.387 . S
C2315 C2317 1.390 . S
C2315 H2319 0.950 . S
H2316 C2312 0.950 . S
C2317 C2315 1.390 . S
C2317 C2318 1.387 . S
C2317 H2320 0.950 . S
C2318 C2317 1.387 . S
C2318 C2321 1.387 . S
H2319 C2315 0.950 . S
H2320 C2317 0.950 . S
C2321 C2312 1.390 . S
C2321 H2314 0.950 . S
C2321 C2318 1.387 . S
C2322 C2323 1.387 . S
C2322 H2326 0.950 . S
C2322 C2331 1.390 . S
C2323 C2322 1.387 . S
C2323 C2325 1.387 . S
H2324 C2331 0.950 . S
C2325 C2323 1.387 . S
C2325 C2327 1.390 . S
C2325 H2329 0.950 . S
H2326 C2322 0.950 . S
C2327 C2325 1.390 . S
C2327 C2328 1.387 . S
C2327 H2330 0.950 . S
C2328 C2327 1.387 . S
C2328 C2331 1.387 . S
H2329 C2325 0.950 . S
H2330 C2327 0.950 . S
C2331 C2322 1.390 . S
C2331 H2324 0.950 . S
C2331 C2328 1.387 . S
C2332 C2333 1.387 . S
C2332 H2336 0.950 . S
C2332 C2341 1.390 . S
C2333 C2332 1.387 . S
C2333 C2335 1.387 . S
H2334 C2341 0.950 . S
C2335 C2333 1.387 . S
C2335 C2337 1.390 . S
C2335 H2339 0.950 . S
H2336 C2332 0.950 . S
C2337 C2335 1.390 . S
C2337 C2338 1.387 . S
C2337 H2340 0.950 . S
C2338 C2337 1.387 . S
C2338 C2341 1.387 . S
H2339 C2335 0.950 . S
H2340 C2337 0.950 . S
C2341 C2332 1.390 . S
C2341 H2334 0.950 . S
C2341 C2338 1.387 . S
C2342 C2343 1.387 . S
C2342 H2346 0.950 . S
C2342 C2351 1.390 . S
C2343 C2342 1.387 . S
C2343 C2345 1.387 . S
H2344 C2351 0.950 . S
C2345 C2343 1.387 . S
C2345 C2347 1.390 . S
C2345 H2349 0.950 . S
H2346 C2342 0.950 . S
C2347 C2345 1.390 . S
C2347 C2348 1.387 . S
C2347 H2350 0.950 . S
C2348 C2347 1.387 . S
C2348 C2351 1.387 . S
H2349 C2345 0.950 . S
H2350 C2347 0.950 . S
C2351 C2342 1.390 . S
C2351 H2344 0.950 . S
C2351 C2348 1.387 . S
C2352 C2353 1.387 . S
C2352 H2356 0.956 . S
C2352 C2361 1.390 . S
C2353 C2352 1.387 . S
C2353 C2355 1.387 . S
H2354 C2361 0.950 . S
C2355 C2353 1.387 . S
C2355 C2357 1.390 . S
C2355 H2359 0.950 . S
H2356 C2352 0.956 . S
C2357 C2355 1.390 . S
C2357 C2358 1.387 . S
C2357 H2360 0.950 . S
C2358 C2357 1.387 . S
C2358 C2361 1.387 . S
H2359 C2355 0.950 . S
H2360 C2357 0.950 . S
C2361 C2352 1.390 . S
C2361 H2354 0.950 . S
C2361 C2358 1.387 . S
C2362 C2363 1.387 . S
C2362 H2366 0.950 . S
C2362 C2371 1.390 . S
C2363 C2362 1.387 . S
C2363 C2365 1.387 . S
H2364 C2371 0.950 . S
C2365 C2363 1.387 . S
C2365 C2367 1.390 . S
C2365 H2369 0.950 . S
H2366 C2362 0.950 . S
C2367 C2365 1.390 . S
C2367 C2368 1.387 . S
C2367 H2370 0.950 . S
C2368 C2367 1.387 . S
C2368 C2371 1.387 . S
H2369 C2365 0.950 . S
H2370 C2367 0.950 . S
C2371 C2362 1.390 . S
C2371 H2364 0.950 . S
C2371 C2368 1.387 . S
C2372 C2373 1.387 . S
C2372 H2376 0.950 . S
C2372 C2381 1.390 . S
C2373 C2372 1.387 . S
C2373 C2375 1.387 . S
H2374 C2381 0.950 . S
C2375 C2373 1.387 . S
C2375 C2377 1.390 . S
C2375 H2379 0.950 . S
H2376 C2372 0.950 . S
C2377 C2375 1.390 . S
C2377 C2378 1.387 . S
C2377 H2380 0.950 . S
C2378 C2377 1.387 . S
C2378 C2381 1.387 . S
H2379 C2375 0.950 . S
H2380 C2377 0.950 . S
C2381 C2372 1.390 . S
C2381 H2374 0.950 . S
C2381 C2378 1.387 . S
C2382 C2383 1.387 . S
C2382 H2386 0.950 . S
C2382 C2391 1.390 . S
C2383 C2382 1.387 . S
C2383 C2385 1.387 . S
H2384 C2391 0.950 . S
C2385 C2383 1.387 . S
C2385 C2387 1.390 . S
C2385 H2389 0.950 1_556 S
H2386 C2382 0.950 . S
C2387 C2385 1.390 . S
C2387 C2388 1.387 . S
C2387 H2390 0.950 . S
C2388 C2387 1.387 . S
C2388 C2391 1.387 . S
H2389 C2385 0.950 1_554 S
H2390 C2387 0.950 . S
C2391 C2382 1.390 . S
C2391 H2384 0.950 . S
C2391 C2388 1.387 . S
C2392 C2393 1.387 . S
C2392 H2396 0.950 1_556 S
C2392 C2401 1.390 . S
C2393 C2392 1.387 . S
C2393 C2395 1.387 . S
H2394 C2401 0.950 . S
C2395 C2393 1.387 . S
C2395 C2397 1.390 . S
C2395 H2399 0.950 . S
H2396 C2392 0.950 1_554 S
C2397 C2395 1.390 . S
C2397 C2398 1.387 . S
C2397 H2400 0.950 . S
C2398 C2397 1.387 . S
C2398 C2401 1.387 . S
H2399 C2395 0.950 . S
H2400 C2397 0.950 . S
C2401 C2392 1.390 . S
C2401 H2394 0.950 . S
C2401 C2398 1.387 . S
C2402 C2403 1.387 . S
C2402 H2406 0.950 1_556 S
C2402 C2411 1.390 . S
C2403 C2402 1.387 . S
C2403 C2405 1.387 . S
H2404 C2411 0.950 . S
C2405 C2403 1.387 . S
C2405 C2407 1.390 . S
C2405 H2409 0.950 . S
H2406 C2402 0.950 1_554 S
C2407 C2405 1.390 . S
C2407 C2408 1.387 . S
C2407 H2410 0.950 . S
C2408 C2407 1.387 . S
C2408 C2411 1.387 . S
H2409 C2405 0.950 . S
H2410 C2407 0.950 . S
C2411 C2402 1.390 . S
C2411 H2404 0.950 . S
C2411 C2408 1.387 . S
C2412 C2413 1.387 . S
C2412 H2416 0.950 . S
C2412 C2421 1.390 . S
C2413 C2412 1.387 . S
C2413 C2415 1.387 . S
H2414 C2421 0.950 . S
C2415 C2413 1.387 . S
C2415 C2417 1.390 . S
C2415 H2419 0.950 . S
H2416 C2412 0.950 . S
C2417 C2415 1.390 . S
C2417 C2418 1.387 . S
C2417 H2420 0.950 . S
C2418 C2417 1.387 . S
C2418 C2421 1.387 . S
H2419 C2415 0.950 . S
H2420 C2417 0.950 . S
C2421 C2412 1.390 . S
C2421 H2414 0.950 . S
C2421 C2418 1.387 . S
C2422 C2423 1.387 . S
C2422 H2426 0.950 . S
C2422 C2431 1.390 . S
C2423 C2422 1.387 . S
C2423 C2425 1.387 . S
H2424 C2431 0.950 . S
C2425 C2423 1.387 . S
C2425 C2427 1.390 . S
C2425 H2429 0.950 . S
H2426 C2422 0.950 . S
C2427 C2425 1.390 . S
C2427 C2428 1.387 . S
C2427 H2430 0.950 . S
C2428 C2427 1.387 . S
C2428 C2431 1.387 . S
H2429 C2425 0.950 . S
H2430 C2427 0.950 . S
C2431 C2422 1.390 . S
C2431 H2424 0.950 . S
C2431 C2428 1.387 . S
C2432 C2433 1.387 . S
C2432 H2436 0.950 . S
C2432 C2441 1.390 . S
C2433 C2432 1.387 . S
C2433 C2435 1.387 . S
H2434 C2441 0.950 . S
C2435 C2433 1.387 . S
C2435 C2437 1.390 . S
C2435 H2439 0.950 . S
H2436 C2432 0.950 . S
C2437 C2435 1.390 . S
C2437 C2438 1.387 . S
C2437 H2440 0.950 . S
C2438 C2437 1.387 . S
C2438 C2441 1.387 . S
H2439 C2435 0.950 . S
H2440 C2437 0.950 . S
C2441 C2432 1.390 . S
C2441 H2434 0.950 . S
C2441 C2438 1.387 . S
C2442 C2443 1.387 . S
C2442 H2446 0.950 . S
C2442 C2451 1.390 . S
C2443 C2442 1.387 . S
C2443 C2445 1.387 . S
H2444 C2451 0.950 . S
C2445 C2443 1.387 . S
C2445 C2447 1.390 . S
C2445 H2449 0.950 . S
H2446 C2442 0.950 . S
C2447 C2445 1.390 . S
C2447 C2448 1.387 . S
C2447 H2450 0.950 . S
C2448 C2447 1.387 . S
C2448 C2451 1.387 . S
H2449 C2445 0.950 . S
H2450 C2447 0.950 . S
C2451 C2442 1.390 . S
C2451 H2444 0.950 . S
C2451 C2448 1.387 . S
C2452 C2453 1.387 . S
C2452 H2456 0.950 . S
C2452 C2461 1.390 . S
C2453 C2452 1.387 . S
C2453 C2455 1.387 . S
H2454 C2461 0.950 . S
C2455 C2453 1.387 . S
C2455 C2457 1.390 . S
C2455 H2459 0.950 . S
H2456 C2452 0.950 . S
C2457 C2455 1.390 . S
C2457 C2458 1.387 . S
C2457 H2460 0.950 . S
C2458 C2457 1.387 . S
C2458 C2461 1.387 . S
H2459 C2455 0.950 . S
H2460 C2457 0.950 . S
C2461 C2452 1.390 . S
C2461 H2454 0.950 . S
C2461 C2458 1.387 . S
C2462 C2463 1.387 . S
C2462 H2466 0.950 . S
C2462 C2471 1.390 . S
C2463 C2462 1.387 . S
C2463 C2465 1.387 . S
H2464 C2471 0.950 . S
C2465 C2463 1.387 . S
C2465 C2467 1.390 . S
C2465 H2469 0.950 . S
H2466 C2462 0.950 . S
C2467 C2465 1.390 . S
C2467 C2468 1.387 . S
C2467 H2470 0.950 . S
C2468 C2467 1.387 . S
C2468 C2471 1.387 . S
H2469 C2465 0.950 . S
H2470 C2467 0.950 . S
C2471 C2462 1.390 . S
C2471 H2464 0.950 . S
C2471 C2468 1.387 . S
C2472 C2473 1.387 . S
C2472 H2476 0.950 1_455 S
C2472 C2481 1.390 1_455 S
C2473 C2472 1.387 . S
C2473 C2475 1.387 . S
H2474 C2481 0.950 . S
C2475 C2473 1.387 . S
C2475 C2477 1.390 . S
C2475 H2479 0.950 . S
H2476 C2472 0.950 1_655 S
C2477 C2475 1.390 . S
C2477 C2478 1.387 . S
C2477 H2480 0.950 . S
C2478 C2477 1.387 . S
C2478 C2481 1.387 1_455 S
H2479 C2475 0.950 . S
H2480 C2477 0.950 . S
C2481 C2472 1.390 1_655 S
C2481 H2474 0.950 . S
C2481 C2478 1.387 1_655 S
C2482 C2483 1.387 . S
C2482 H2486 0.950 . S
C2482 C2491 1.390 . S
C2483 C2482 1.387 . S
C2483 C2485 1.387 . S
H2484 C2491 0.950 . S
C2485 C2483 1.387 . S
C2485 C2487 1.390 . S
C2485 H2489 0.950 . S
H2486 C2482 0.950 . S
C2487 C2485 1.390 . S
C2487 C2488 1.387 . S
C2487 H2490 0.950 . S
C2488 C2487 1.387 . S
C2488 C2491 1.387 . S
H2489 C2485 0.950 . S
H2490 C2487 0.950 . S
C2491 C2482 1.390 . S
C2491 H2484 0.950 . S
C2491 C2488 1.387 . S
C2492 C2493 1.387 1_545 S
C2492 H2496 0.950 . S
C2492 C2501 1.390 . S
C2493 C2492 1.387 1_565 S
C2493 C2495 1.387 . S
H2494 C2501 0.950 . S
C2495 C2493 1.387 . S
C2495 C2497 1.390 . S
C2495 H2499 0.950 . S
H2496 C2492 0.950 . S
C2497 C2495 1.390 . S
C2497 C2498 1.387 . S
C2497 H2500 0.950 . S
C2498 C2497 1.387 . S
C2498 C2501 1.387 1_565 S
H2499 C2495 0.950 . S
H2500 C2497 0.950 . S
C2501 C2492 1.390 . S
C2501 H2494 0.950 . S
C2501 C2498 1.387 1_545 S
C2502 C2503 1.387 1_545 S
C2502 H2506 0.950 . S
C2502 C2511 1.390 . S
C2503 C2502 1.387 1_565 S
C2503 C2505 1.387 . S
H2504 C2511 0.950 . S
C2505 C2503 1.387 . S
C2505 C2507 1.390 . S
C2505 H2509 0.950 . S
H2506 C2502 0.950 . S
C2507 C2505 1.390 . S
C2507 C2508 1.387 . S
C2507 H2510 0.950 . S
C2508 C2507 1.387 . S
C2508 C2511 1.387 1_565 S
H2509 C2505 0.950 . S
H2510 C2507 0.950 . S
C2511 C2502 1.390 . S
C2511 H2504 0.950 . S
C2511 C2508 1.387 1_545 S
C2512 C2513 1.387 . S
C2512 H2516 0.950 . S
C2512 C2521 1.390 . S
C2513 C2512 1.387 . S
C2513 C2515 1.387 . S
H2514 C2521 0.950 . S
C2515 C2513 1.387 . S
C2515 C2517 1.390 1_455 S
C2515 H2519 0.950 1_455 S
H2516 C2512 0.950 . S
C2517 C2515 1.390 1_655 S
C2517 C2518 1.387 1_655 S
C2517 H2520 0.950 . S
C2518 C2517 1.387 1_455 S
C2518 C2521 1.387 . S
H2519 C2515 0.950 1_655 S
H2520 C2517 0.950 . S
C2521 C2512 1.390 . S
C2521 H2514 0.950 . S
C2521 C2518 1.387 . S
C2522 C2523 1.387 . S
C2522 H2526 0.950 . S
C2522 C2531 1.390 . S
C2523 C2522 1.387 . S
C2523 C2525 1.387 . S
H2524 C2531 0.950 . S
C2525 C2523 1.387 . S
C2525 C2527 1.390 . S
C2525 H2529 0.950 . S
H2526 C2522 0.950 . S
C2527 C2525 1.390 . S
C2527 C2528 1.387 . S
C2527 H2530 0.950 . S
C2528 C2527 1.387 . S
C2528 C2531 1.387 . S
H2529 C2525 0.950 . S
H2530 C2527 0.950 . S
C2531 C2522 1.390 . S
C2531 H2524 0.950 . S
C2531 C2528 1.387 . S
C2532 C2533 1.387 . S
C2532 H2536 0.950 . S
C2532 C2541 1.390 . S
C2533 C2532 1.387 . S
C2533 C2535 1.387 . S
H2534 C2541 0.950 . S
C2535 C2533 1.387 . S
C2535 C2537 1.390 . S
C2535 H2539 0.950 . S
H2536 C2532 0.950 . S
C2537 C2535 1.390 . S
C2537 C2538 1.387 . S
C2537 H2540 0.950 . S
C2538 C2537 1.387 . S
C2538 C2541 1.387 . S
H2539 C2535 0.950 . S
H2540 C2537 0.950 . S
C2541 C2532 1.390 . S
C2541 H2534 0.950 . S
C2541 C2538 1.387 . S
C2542 C2543 1.387 . S
C2542 H2546 0.950 . S
C2542 C2551 1.390 . S
C2543 C2542 1.387 . S
C2543 C2545 1.387 . S
H2544 C2551 0.950 . S
C2545 C2543 1.387 . S
C2545 C2547 1.390 . S
C2545 H2549 0.950 . S
H2546 C2542 0.950 . S
C2547 C2545 1.390 . S
C2547 C2548 1.387 . S
C2547 H2550 0.950 . S
C2548 C2547 1.387 . S
C2548 C2551 1.387 . S
H2549 C2545 0.950 . S
H2550 C2547 0.950 . S
C2551 C2542 1.390 . S
C2551 H2544 0.950 . S
C2551 C2548 1.387 . S
C2552 C2553 1.387 . S
C2552 H2556 0.950 . S
C2552 C2561 1.390 . S
C2553 C2552 1.387 . S
C2553 C2555 1.387 . S
H2554 C2561 0.950 . S
C2555 C2553 1.387 . S
C2555 C2557 1.390 . S
C2555 H2559 0.950 . S
H2556 C2552 0.950 . S
C2557 C2555 1.390 . S
C2557 C2558 1.387 . S
C2557 H2560 0.950 . S
C2558 C2557 1.387 . S
C2558 C2561 1.387 . S
H2559 C2555 0.950 . S
H2560 C2557 0.950 . S
C2561 C2552 1.390 . S
C2561 H2554 0.950 . S
C2561 C2558 1.387 . S
C2562 C2563 1.387 . S
C2562 H2566 0.950 . S
C2562 C2571 1.390 . S
C2563 C2562 1.387 . S
C2563 C2565 1.387 . S
H2564 C2571 0.950 . S
C2565 C2563 1.387 . S
C2565 C2567 1.390 . S
C2565 H2569 0.950 . S
H2566 C2562 0.950 . S
C2567 C2565 1.390 . S
C2567 C2568 1.387 . S
C2567 H2570 0.950 1_545 S
C2568 C2567 1.387 . S
C2568 C2571 1.387 . S
H2569 C2565 0.950 . S
H2570 C2567 0.950 1_565 S
C2571 C2562 1.390 . S
C2571 H2564 0.950 . S
C2571 C2568 1.387 . S
C2572 C2573 1.387 . S
C2572 H2576 0.950 . S
C2572 C2581 1.390 . S
C2573 C2572 1.387 . S
C2573 C2575 1.387 . S
H2574 C2581 0.950 . S
C2575 C2573 1.387 . S
C2575 C2577 1.390 . S
C2575 H2579 0.950 . S
H2576 C2572 0.950 . S
C2577 C2575 1.390 . S
C2577 C2578 1.387 . S
C2577 H2580 0.950 1_655 S
C2578 C2577 1.387 . S
C2578 C2581 1.387 . S
H2579 C2575 0.950 . S
H2580 C2577 0.950 1_455 S
C2581 C2572 1.390 . S
C2581 H2574 0.950 . S
C2581 C2578 1.387 . S
C2582 C2583 1.387 . S
C2582 H2586 0.950 . S
C2582 C2591 1.390 . S
C2583 C2582 1.387 . S
C2583 C2585 1.387 . S
H2584 C2591 0.950 . S
C2585 C2583 1.387 . S
C2585 C2587 1.390 . S
C2585 H2589 0.950 . S
H2586 C2582 0.950 . S
C2587 C2585 1.390 . S
C2587 C2588 1.387 . S
C2587 H2590 0.950 . S
C2588 C2587 1.387 . S
C2588 C2591 1.387 . S
H2589 C2585 0.950 . S
H2590 C2587 0.950 . S
C2591 C2582 1.390 . S
C2591 H2584 0.950 . S
C2591 C2588 1.387 . S
C2592 C2593 1.387 . S
C2592 H2596 0.950 . S
C2592 C2601 1.390 . S
C2593 C2592 1.387 . S
C2593 C2595 1.387 . S
H2594 C2601 0.950 . S
C2595 C2593 1.387 . S
C2595 C2597 1.390 . S
C2595 H2599 0.950 . S
H2596 C2592 0.950 . S
C2597 C2595 1.390 . S
C2597 C2598 1.387 . S
C2597 H2600 0.950 . S
C2598 C2597 1.387 . S
C2598 C2601 1.387 . S
H2599 C2595 0.950 . S
H2600 C2597 0.950 . S
C2601 C2592 1.390 . S
C2601 H2594 0.950 . S
C2601 C2598 1.387 . S
C2602 C2603 1.387 . S
C2602 H2606 0.950 . S
C2602 C2611 1.390 . S
C2603 C2602 1.387 . S
C2603 C2605 1.387 . S
H2604 C2611 0.950 . S
C2605 C2603 1.387 . S
C2605 C2607 1.390 . S
C2605 H2609 0.950 . S
H2606 C2602 0.950 . S
C2607 C2605 1.390 . S
C2607 C2608 1.387 . S
C2607 H2610 0.950 . S
C2608 C2607 1.387 . S
C2608 C2611 1.387 . S
H2609 C2605 0.950 . S
H2610 C2607 0.950 . S
C2611 C2602 1.390 . S
C2611 H2604 0.950 . S
C2611 C2608 1.387 . S
C2612 C2613 1.387 . S
C2612 H2616 0.950 . S
C2612 C2621 1.390 . S
C2613 C2612 1.387 . S
C2613 C2615 1.387 . S
H2614 C2621 0.950 . S
C2615 C2613 1.387 . S
C2615 C2617 1.390 . S
C2615 H2619 0.950 . S
H2616 C2612 0.950 . S
C2617 C2615 1.390 . S
C2617 C2618 1.387 . S
C2617 H2620 0.950 . S
C2618 C2617 1.387 . S
C2618 C2621 1.387 . S
H2619 C2615 0.950 . S
H2620 C2617 0.950 . S
C2621 C2612 1.390 . S
C2621 H2614 0.950 . S
C2621 C2618 1.387 . S
C2622 C2623 1.387 . S
C2622 H2626 0.950 . S
C2622 C2631 1.390 . S
C2623 C2622 1.387 . S
C2623 C2625 1.387 . S
H2624 C2631 0.950 . S
C2625 C2623 1.387 . S
C2625 C2627 1.390 . S
C2625 H2629 0.950 . S
H2626 C2622 0.950 . S
C2627 C2625 1.390 . S
C2627 C2628 1.387 . S
C2627 H2630 0.950 . S
C2628 C2627 1.387 . S
C2628 C2631 1.387 . S
H2629 C2625 0.950 . S
H2630 C2627 0.950 . S
C2631 C2622 1.390 . S
C2631 H2624 0.950 . S
C2631 C2628 1.387 . S
C2632 C2633 1.387 . S
C2632 H2636 0.950 . S
C2632 C2641 1.390 . S
C2633 C2632 1.387 . S
C2633 C2635 1.387 . S
H2634 C2641 0.950 . S
C2635 C2633 1.387 . S
C2635 C2637 1.390 . S
C2635 H2639 0.950 . S
H2636 C2632 0.950 . S
C2637 C2635 1.390 . S
C2637 C2638 1.387 . S
C2637 H2640 0.950 . S
C2638 C2637 1.387 . S
C2638 C2641 1.387 . S
H2639 C2635 0.950 . S
H2640 C2637 0.950 . S
C2641 C2632 1.390 . S
C2641 H2634 0.950 . S
C2641 C2638 1.387 . S
C2642 C2643 1.387 . S
C2642 H2646 0.950 . S
C2642 C2651 1.390 . S
C2643 C2642 1.387 . S
C2643 C2645 1.387 . S
H2644 C2651 0.950 . S
C2645 C2643 1.387 . S
C2645 C2647 1.390 . S
C2645 H2649 0.950 . S
H2646 C2642 0.950 . S
C2647 C2645 1.390 . S
C2647 C2648 1.387 . S
C2647 H2650 0.950 . S
C2648 C2647 1.387 . S
C2648 C2651 1.387 . S
H2649 C2645 0.950 . S
H2650 C2647 0.950 . S
C2651 C2642 1.390 . S
C2651 H2644 0.950 . S
C2651 C2648 1.387 . S
C2652 C2653 1.387 . S
C2652 H2656 0.950 . S
C2652 C2661 1.390 . S
C2653 C2652 1.387 . S
C2653 C2655 1.387 . S
H2654 C2661 0.950 . S
C2655 C2653 1.387 . S
C2655 C2657 1.390 1_655 S
C2655 H2659 0.950 1_655 S
H2656 C2652 0.950 . S
C2657 C2655 1.390 1_455 S
C2657 C2658 1.387 1_455 S
C2657 H2660 0.950 . S
C2658 C2657 1.387 1_655 S
C2658 C2661 1.387 . S
H2659 C2655 0.950 1_455 S
H2660 C2657 0.950 . S
C2661 C2652 1.390 . S
C2661 H2654 0.950 . S
C2661 C2658 1.387 . S
C2662 C2663 1.387 . S
C2662 H2666 0.950 . S
C2662 C2671 1.390 . S
C2663 C2662 1.387 . S
C2663 C2665 1.387 . S
H2664 C2671 0.950 . S
C2665 C2663 1.387 . S
C2665 C2667 1.390 . S
C2665 H2669 0.950 . S
H2666 C2662 0.950 . S
C2667 C2665 1.390 . S
C2667 C2668 1.387 . S
C2667 H2670 0.950 . S
C2668 C2667 1.387 . S
C2668 C2671 1.387 . S
H2669 C2665 0.950 . S
H2670 C2667 0.950 . S
C2671 C2662 1.390 . S
C2671 H2664 0.950 . S
C2671 C2668 1.387 . S
C2672 C2673 1.387 1_565 S
C2672 H2676 0.950 . S
C2672 C2681 1.390 . S
C2673 C2672 1.387 1_545 S
C2673 C2675 1.387 . S
H2674 C2681 0.950 . S
C2675 C2673 1.387 . S
C2675 C2677 1.390 . S
C2675 H2679 0.950 . S
H2676 C2672 0.950 . S
C2677 C2675 1.390 . S
C2677 C2678 1.387 . S
C2677 H2680 0.950 . S
C2678 C2677 1.387 . S
C2678 C2681 1.387 1_545 S
H2679 C2675 0.950 . S
H2680 C2677 0.950 . S
C2681 C2672 1.390 . S
C2681 H2674 0.950 . S
C2681 C2678 1.387 1_565 S
C1963 C49 1.723 . S
C1968 C1790 1.695 1_655 S
C1973 C137 1.696 . S
C1978 C1803 1.648 . S
C1988 C1832 1.679 1_545 S
C1983 C205 1.722 . S
C1993 C196 1.702 . S
C1998 C1845 1.640 . S
C2003 C57 1.715 . S
C2008 C1866 1.658 . S
C2013 C145 1.699 . S
C2018 C1895 1.631 . S
C2023 C313 1.739 . S
C2028 C1874 1.651 . S
C2038 C1887 1.648 . S
C2033 C401 1.695 . S
C2048 C1853 1.650 . S
C2043 C489 1.731 . S
C2053 C469 1.721 . S
C2058 C1824 1.716 1_545 S
C2068 C1782 1.719 1_655 S
C2063 C293 1.729 . S
C2073 C381 1.697 . S
C2078 C1811 1.628 . S
C2083 C577 1.726 . S
C2088 C1916 1.654 . S
C2093 C645 1.700 . S
C2098 C1929 1.655 . S
C2108 C1958 1.614 . S
C2103 C733 1.691 . S
C2113 C724 1.693 . S
C2118 C1593 1.648 . S
C2123 C585 1.712 . S
C2128 C1614 1.665 . S
C2133 C636 1.718 . S
C2138 C1643 1.648 . S
C2143 C841 1.707 . S
C2148 C1622 1.643 . S
C2153 C937 1.714 . S
C2158 C1635 1.665 . S
C2168 C1601 1.645 . S
C2163 C1025 1.709 . S
C2178 C1950 1.658 . S
C2173 C988 1.706 . S
C2188 C1908 1.628 . S
C2183 C821 1.684 . S
C2198 C1937 1.634 . S
C2193 C900 1.697 . S
C2203 C1105 1.711 . S
C2208 C1664 1.642 . S
C2213 C1193 1.717 . S
C2218 C1677 1.673 . S
C2223 C1281 1.712 . S
C2228 C1706 1.643 . S
C2233 C1289 1.709 . S
C2238 C1719 1.664 . S
C2248 C1740 1.645 . S
C2243 C1113 1.692 . S
C2258 C1769 1.620 . S
C2253 C1201 1.701 . S
C2268 C1748 1.659 . S
C2263 C1369 1.724 . S
C2278 C1761 1.636 . S
C2273 C1457 1.695 . S
C2283 C1553 1.683 . S
C2288 C1727 1.617 . S
C2298 C1698 1.647 . S
C2293 C1516 1.688 . S
C2303 C1349 1.709 . S
C2308 C1656 1.663 . S
C2318 C1685 1.654 . S
C2313 C1437 1.715 . S
C2328 C1596 1.387 . S
C2323 C29 1.440 . S
C2333 C117 1.385 . S
C2338 C1617 1.316 . S
C2348 C1645 1.328 . S
C2343 C225 1.444 . S
C2358 C1666 1.318 . S
C2353 C233 1.424 . S
C2368 C1680 1.395 . S
C2363 C20 1.444 . S
C2378 C1708 1.262 . S
C2373 C108 1.395 . S
C2383 C321 1.476 . S
C2388 C1701 1.306 . S
C2393 C409 1.422 . S
C2398 C1659 1.232 . S
C2403 C497 1.483 . S
C2408 C1687 1.444 . S
C2413 C460 1.463 . S
C2418 C1624 1.432 . S
C2428 C1638 1.303 . S
C2423 C284 1.481 . S
C2433 C372 1.431 . S
C2438 C1603 1.369 . S
C2448 C1722 1.331 . S
C2443 C557 1.405 . S
C2453 C665 1.432 . S
C2458 C1743 1.346 . S
C2463 C753 1.438 . S
C2468 C1771 1.302 . S
C2478 C1792 1.200 . S
C2473 C761 1.286 . S
C2483 C548 1.390 . S
C2488 C1806 1.314 . S
C2493 C673 1.302 . S
C2498 C1834 1.213 . S
C2503 C849 1.318 . S
C2508 C1827 1.174 . S
C2513 C929 1.311 . S
C2518 C1785 1.177 . S
C2528 C1813 1.361 . S
C2523 C1017 1.425 . S
C2533 C997 1.424 . S
C2538 C1750 1.363 . S
C2543 C812 1.472 . S
C2548 C1764 1.275 . S
C2558 C1729 1.399 . S
C2553 C909 1.471 . S
C2568 C1848 1.161 1_545 S
C2563 C1085 1.301 . S
C2573 C1173 1.296 . S
C2578 C1869 1.193 1_655 S
C2583 C1261 1.390 . S
C2588 C1897 1.264 . S
C2598 C1918 1.264 . S
C2593 C1252 1.388 . S
C2608 C1932 1.357 . S
C2603 C1076 1.440 . S
C2613 C1164 1.439 . S
C2618 C1960 1.307 . S
C2623 C1377 1.444 . S
C2628 C1953 1.249 . S
C2633 C1465 1.464 . S
C2638 C1911 1.272 . S
C2648 C1939 1.398 . S
C2643 C1545 1.472 . S
C2658 C1876 1.230 1_655 S
C2653 C1525 1.299 . S
C2668 C1890 1.239 . S
C2663 C1340 1.424 . S
C2673 C1428 1.319 . S
C2678 C1855 1.240 1_545 S
