# Generated by pormake.
# Topology pyr, (3,6)-cn, num edge types: 1
# Building blocks:
#     Node 0, Type 0, BuildingBlock: BETDIP_clean_linker_0, # of connection points: 3
#     Node 1, Type 0, BuildingBlock: BETDIP_clean_linker_0, # of connection points: 3
#     Node 2, Type 0, BuildingBlock: BETDIP_clean_linker_0, # of connection points: 3
#     Node 3, Type 0, BuildingBlock: BETDIP_clean_linker_0, # of connection points: 3
#     Node 4, Type 0, BuildingBlock: BETDIP_clean_linker_0, # of connection points: 3
#     Node 5, Type 0, BuildingBlock: BETDIP_clean_linker_0, # of connection points: 3
#     Node 6, Type 0, BuildingBlock: BETDIP_clean_linker_0, # of connection points: 3
#     Node 7, Type 0, BuildingBlock: BETDIP_clean_linker_0, # of connection points: 3
#     Node 8, Type 1, BuildingBlock: BETFAJ_clean_sbu_0, # of connection points: 6
#     Node 9, Type 1, BuildingBlock: BETFAJ_clean_sbu_0, # of connection points: 6
#     Node 10, Type 1, BuildingBlock: BETFAJ_clean_sbu_0, # of connection points: 6
#     Node 11, Type 1, BuildingBlock: BETFAJ_clean_sbu_0, # of connection points: 6
#     Edge 12, Type (0, 1), None
#     Edge 13, Type (0, 1), None
#     Edge 14, Type (0, 1), None
#     Edge 15, Type (0, 1), None
#     Edge 16, Type (0, 1), None
#     Edge 17, Type (0, 1), None
#     Edge 18, Type (0, 1), None
#     Edge 19, Type (0, 1), None
#     Edge 20, Type (0, 1), None
#     Edge 21, Type (0, 1), None
#     Edge 22, Type (0, 1), None
#     Edge 23, Type (0, 1), None
#     Edge 24, Type (0, 1), None
#     Edge 25, Type (0, 1), None
#     Edge 26, Type (0, 1), None
#     Edge 27, Type (0, 1), None
#     Edge 28, Type (0, 1), None
#     Edge 29, Type (0, 1), None
#     Edge 30, Type (0, 1), None
#     Edge 31, Type (0, 1), None
#     Edge 32, Type (0, 1), None
#     Edge 33, Type (0, 1), None
#     Edge 34, Type (0, 1), None
#     Edge 35, Type (0, 1), None
# Relax obj value: 0.384
# Max RMSD: 0.225
# Mean RMSD: 0.147
data_MOF--net-pyr--node1-BETFAJ_clean_sbu_0--node2-BETDIP_clean_linker_0--edge1-none
_symmetry_space_group_name_H-M    P1
_symmetry_Int_Tables_number       1
_symmetry_cell_setting            triclinic
loop_
_symmetry_equiv_pos_as_xyz
'x, y, z'
_cell_length_a     17.25599
_cell_length_b     17.093211
_cell_length_c     17.320809
_cell_angle_alpha  92.009875
_cell_angle_beta   87.107812
_cell_angle_gamma 109.72819
loop_
_atom_site_label
_atom_site_type_symbol
_atom_site_fract_x
_atom_site_fract_y
_atom_site_fract_z
_atom_type_partial_charge
H0 H 0.47196 0.45331 0.34282 0.0
H1 H 0.61584 0.38704 0.16074 0.0
H2 H 0.58334 0.26921 0.3793 0.0
H3 H 0.50007 0.57579 0.25931 0.0
C4 C 0.4707 0.52739 0.21731 0.0
C5 C 0.51302 0.42049 0.3225 0.0
C6 C 0.52161 0.35841 0.36843 0.0
C7 C 0.54586 0.43072 0.2467 0.0
C8 C 0.5966 0.38472 0.22105 0.0
C9 C 0.61151 0.32718 0.27031 0.0
C10 C 0.57807 0.31913 0.3453 0.0
N11 N 0.51408 0.47242 0.1928 0.0
H12 H 0.06166 1.01525 0.94917 0.0
H13 H 0.14705 0.89163 0.76044 0.0
H14 H 0.28211 0.95446 0.96835 0.0
H15 H 1.01929 0.8788 0.7127 0.0
C16 C 1.02189 0.94123 0.73057 0.0
C17 C 0.10553 0.987 0.92547 0.0
C18 C 0.17153 0.98682 0.96847 0.0
C19 C 0.09605 0.95346 0.85118 0.0
C20 C 0.15356 0.91737 0.81863 0.0
C21 C 0.22051 0.91534 0.86117 0.0
C22 C 0.22853 0.95057 0.9364 0.0
N23 N 1.03233 0.96455 0.80894 0.0
H24 H 0.81896 0.61035 0.94245 0.0
H25 H 0.59929 0.39799 0.91681 0.0
H26 H 0.77815 0.39468 1.0814 0.0
H27 H 0.6228 0.45992 0.78514 0.0
C28 C 0.63337 0.52518 0.79878 0.0
C29 C 0.78161 0.54836 0.95924 0.0
C30 C 0.81112 0.50741 1.01552 0.0
C31 C 0.70586 0.51049 0.92221 0.0
C32 C 0.65781 0.42767 0.94329 0.0
C33 C 0.68305 0.38425 1.0009 0.0
C34 C 0.75962 0.42576 1.03628 0.0
N35 N 0.67892 0.55839 0.86732 0.0
H36 H 0.76324 0.66568 0.44401 0.0
H37 H 0.98139 0.87852 0.39236 0.0
H38 H 0.80613 0.89325 0.57446 0.0
H39 H 1.0086 0.79993 0.29155 0.0
C40 C 0.9695 0.73518 0.29251 0.0
C41 C 0.8008 0.72977 0.45437 0.0
C42 C 0.77546 0.77574 0.51549 0.0
C43 C 0.87554 0.76473 0.40799 0.0
C44 C 0.92401 0.84974 0.42456 0.0
C45 C 0.89907 0.89758 0.48441 0.0
C46 C 0.82538 0.85858 0.52825 0.0
N47 N 0.89967 0.71215 0.34858 0.0
H48 H 0.52258 0.91962 1.05867 0.0
H49 H 0.64227 0.83464 0.86855 0.0
H50 H 0.53711 1.02545 0.83694 0.0
H51 H 0.63061 0.72507 0.95656 0.0
C52 C 0.66124 0.7748 0.99691 0.0
C53 C 0.53586 0.91792 0.99729 0.0
C54 C 0.51706 0.97274 0.94788 0.0
C55 C 0.58267 0.86895 0.96942 0.0
C56 C 0.60697 0.87249 0.89102 0.0
C57 C 0.59475 0.93161 0.84347 0.0
C58 C 0.54455 0.97674 0.87106 0.0
N59 N 0.61853 0.83001 1.02221 0.0
H60 H 0.05597 0.2958 0.25338 0.0
H61 H 0.95632 0.39202 0.4512 0.0
H62 H 0.83347 0.35484 0.23636 0.0
H63 H 0.08416 0.40017 0.49941 0.0
C64 C 0.0817 0.33915 0.47703 0.0
C65 C 1.00996 0.32054 0.27849 0.0
C66 C 0.94485 0.3223 0.2352 0.0
C67 C 1.01417 0.34363 0.35554 0.0
C68 C 0.95434 0.37527 0.39034 0.0
C69 C 0.88964 0.3825 0.34709 0.0
C70 C 0.88589 0.35588 0.2688 0.0
N71 N 0.07274 0.32282 0.39754 0.0
H72 H 0.30581 0.68968 0.27551 0.0
H73 H 0.52692 0.9002 0.30119 0.0
H74 H 0.34646 0.90758 0.13923 0.0
H75 H 0.41785 0.78997 0.45825 0.0
C76 C 0.44493 0.74562 0.43282 0.0
C77 C 0.34318 0.75202 0.25976 0.0
C78 C 0.31496 0.79354 0.20271 0.0
C79 C 0.41872 0.78936 0.29738 0.0
C80 C 0.4679 0.87162 0.27527 0.0
C81 C 0.44291 0.91594 0.21798 0.0
C82 C 0.36596 0.87552 0.18316 0.0
N83 N 0.44875 0.74044 0.34889 0.0
H84 H 0.11049 0.37023 0.81987 0.0
H85 H 0.31826 0.59704 0.78455 0.0
H86 H 0.29086 0.38206 0.63587 0.0
H87 H 0.25095 0.65158 0.88532 0.0
C88 C 0.19633 0.60663 0.91147 0.0
C89 C 0.16729 0.40472 0.78899 0.0
C90 C 0.1961 0.36513 0.72575 0.0
C91 C 0.20919 0.48862 0.81262 0.0
C92 C 0.28438 0.53317 0.76908 0.0
C93 C 0.31462 0.49469 0.70372 0.0
C94 C 0.26907 0.41142 0.68472 0.0
N95 N 0.17176 0.52278 0.87838 0.0
Sm96 Sm 0.11083 1.11878 0.57044 0.0
Sm97 Sm 0.98852 0.15254 0.62624 0.0
C98 C 0.25955 1.12395 0.52632 0.0
C99 C 0.32714 0.19477 0.49849 0.0
C100 C 0.31075 0.25087 0.45037 0.0
C101 C 0.37507 0.31155 0.41418 0.0
C102 C 0.45687 0.31852 0.42752 0.0
C103 C 0.47229 0.27131 0.48624 0.0
C104 C 0.40741 0.208 0.52036 0.0
C105 C 1.03835 0.99902 0.67724 0.0
C106 C 0.14775 0.27834 0.69575 0.0
C107 C 0.83818 0.14731 0.66237 0.0
C108 C 0.77112 1.07525 0.68796 0.0
C109 C 0.78965 1.01396 0.72704 0.0
C110 C 0.72856 0.95701 0.77037 0.0
C111 C 0.64792 0.95982 0.77298 0.0
C112 C 0.62732 1.00859 0.71868 0.0
C113 C 0.68956 1.06871 0.67817 0.0
C114 C 0.06473 0.27732 0.52632 0.0
C115 C 0.95007 0.98587 0.50928 0.0
O116 O 0.19733 1.09771 0.48084 0.0
O117 O 0.23781 0.1297 0.59881 0.0
O118 O 1.04921 1.07556 0.68979 0.0
O119 O 0.06192 0.9844 0.60865 0.0
O120 O 0.1754 0.24764 0.63323 0.0
O121 O 0.0704 0.2404 0.7178 0.0
O122 O 0.89772 0.17396 0.71087 0.0
O123 O 0.86381 0.14197 0.59102 0.0
O124 O 0.05304 0.20102 0.5095 0.0
O125 O 1.0405 0.28829 0.59557 0.0
O126 O 0.92444 1.02036 0.57035 0.0
O127 O 1.02658 1.02296 0.48452 0.0
H128 H 0.2483 0.2443 0.43635 0.0
H129 H 0.35945 0.34664 0.37036 0.0
H130 H 0.53456 0.27846 0.50104 0.0
H131 H 0.42004 0.16745 0.56096 0.0
H132 H 0.85275 1.01568 0.73091 0.0
H133 H 0.74812 0.91911 0.80837 0.0
H134 H 0.56449 1.00691 0.71375 0.0
H135 H 0.67458 1.11303 0.64381 0.0
Sm136 Sm 0.62357 0.12778 0.107 0.0
Sm137 Sm 0.50186 0.17176 0.10978 0.0
C138 C 0.75727 1.0922 1.06576 0.0
C139 C 0.84084 0.15168 1.06013 0.0
C140 C 0.84764 0.23503 1.0497 0.0
C141 C 0.89164 0.29564 0.10184 0.0
C142 C 0.93027 0.27315 0.16202 0.0
C143 C 0.94076 0.19459 0.1581 0.0
C144 C 0.89788 0.13452 0.10511 0.0
C145 C 0.4984 1.00226 0.19087 0.0
C146 C 0.61755 0.24936 0.23759 0.0
C147 C 0.36731 0.20854 0.14569 0.0
C148 C 0.28247 0.15168 0.14501 0.0
C149 C 0.27067 1.06703 0.1543 0.0
C150 C 0.22403 1.00883 0.10179 0.0
C151 C 0.1878 1.03517 1.0418 0.0
C152 C 0.18317 1.11594 1.04564 0.0
C153 C 0.22945 0.17398 0.09863 0.0
C154 C 0.62798 0.29746 1.02706 0.0
C155 C 0.5094 1.0504 0.97938 0.0
O156 O 0.7064 1.09946 1.01553 0.0
O157 O 0.72574 1.08548 0.13644 0.0
O158 O 0.48876 1.03589 0.12939 0.0
O159 O 0.57302 1.03925 0.21249 0.0
O160 O 0.67012 0.24866 0.1811 0.0
O161 O 0.5469 0.19075 0.23228 0.0
O162 O 0.41363 0.19636 0.19804 0.0
O163 O 0.40341 0.21791 1.07692 0.0
O164 O 0.63654 0.26378 0.08877 0.0
O165 O 0.55397 0.25989 1.00418 0.0
O166 O 0.45674 1.05053 1.03592 0.0
O167 O 0.57912 1.11013 0.98442 0.0
H168 H 0.80677 0.2506 1.01222 0.0
H169 H 0.88762 0.35703 0.10083 0.0
H170 H 0.97198 0.17487 0.20226 0.0
H171 H 0.89549 1.07091 0.11194 0.0
H172 H 0.30914 1.04784 0.19177 0.0
H173 H 0.22517 0.94603 0.10205 0.0
H174 H 0.15401 0.13796 1.00127 0.0
H175 H 0.23639 0.23889 0.09206 0.0
Sm176 Sm 0.54406 0.57353 0.56528 0.0
Sm177 Sm 0.55026 0.70552 0.65982 0.0
C178 C 0.6265 0.4762 0.50924 0.0
C179 C 0.69157 0.45333 0.4631 0.0
C180 C 0.72358 0.39727 0.49593 0.0
C181 C 0.78728 0.37513 0.45843 0.0
C182 C 0.82131 0.40796 0.38616 0.0
C183 C 0.78856 0.4636 0.35232 0.0
C184 C 0.72506 0.48693 0.39084 0.0
C185 C 0.3918 0.53712 0.65157 0.0
C186 C 0.60828 0.56864 0.74469 0.0
C187 C 0.49208 0.80949 0.74118 0.0
C188 C 0.41489 0.82595 0.76661 0.0
C189 C 0.37701 0.86647 0.71914 0.0
C190 C 0.3121 0.89277 0.74864 0.0
C191 C 0.28453 0.88084 0.82685 0.0
C192 C 0.32208 0.83921 0.87351 0.0
C193 C 0.38511 0.81113 0.84363 0.0
C194 C 0.69904 0.73989 0.56928 0.0
C195 C 0.47474 0.70299 0.48448 0.0
O196 O 0.65009 0.52771 0.56763 0.0
O197 O 0.55923 0.47953 0.47935 0.0
O198 O 0.46332 0.57406 0.67637 0.0
O199 O 0.40074 0.51262 0.57993 0.0
O200 O 0.57661 0.52745 0.68139 0.0
O201 O 0.61205 0.6473 0.75197 0.0
O202 O 0.50694 0.74748 0.77149 0.0
O203 O 0.5209 0.82326 0.67 0.0
O204 O 0.62644 0.70567 0.54693 0.0
O205 O 0.69384 0.76392 0.64119 0.0
O206 O 0.46971 0.72154 0.55915 0.0
O207 O 0.50939 0.64617 0.46509 0.0
H208 H 0.69929 0.37047 0.55157 0.0
H209 H 0.80929 0.33115 0.48597 0.0
H210 H 0.81269 0.48984 0.29654 0.0
H211 H 0.70191 0.53045 0.36403 0.0
H212 H 0.39913 0.88023 0.65984 0.0
H213 H 0.2862 0.92584 0.71093 0.0
H214 H 0.30421 0.82972 0.93406 0.0
H215 H 0.41349 0.78135 0.88233 0.0
Sm216 Sm 0.06209 0.5834 0.14269 0.0
Sm217 Sm 0.06893 0.71895 1.06615 0.0
C218 C 0.12132 0.46932 0.18926 0.0
C219 C 0.20805 0.47389 0.20118 0.0
C220 C 0.2518 0.44173 0.14481 0.0
C221 C 0.33662 0.45607 0.15068 0.0
C222 C 0.37955 0.50369 0.2126 0.0
C223 C 0.33503 0.53182 0.27081 0.0
C224 C 0.25036 0.51643 0.26567 0.0
C225 C 0.99203 0.68234 0.23952 0.0
C226 C 0.23262 0.74978 0.16414 0.0
C227 C 1.01048 0.83399 1.02112 0.0
C228 C 0.92402 0.82962 1.00914 0.0
C229 C 0.88145 0.86397 1.0647 0.0
C230 C 0.79649 0.84902 1.06002 0.0
C231 C 0.75237 0.79875 1.00004 0.0
C232 C 0.79572 0.76863 0.94229 0.0
C233 C 0.88052 0.78439 0.94634 0.0
C234 C 0.15617 0.63753 0.97118 0.0
C235 C 0.89561 0.55129 1.05093 0.0
O236 O 0.10221 0.47363 0.11804 0.0
O237 O 0.08852 0.51149 0.23704 0.0
O238 O 0.05747 0.70626 0.19647 0.0
O239 O 0.95885 0.60165 0.23178 0.0
O240 O 0.19546 0.6693 0.17376 0.0
O241 O 0.1952 0.78961 0.12335 0.0
O242 O 1.02854 0.82808 0.09239 0.0
O243 O 1.0436 0.79258 0.97275 0.0
O244 O 0.08772 0.60079 1.00907 0.0
O245 O 0.1796 0.71698 0.98681 0.0
O246 O 0.9352 0.63057 1.03665 0.0
O247 O 0.93227 0.51256 0.09348 0.0
H248 H 0.22097 0.40763 0.09485 0.0
H249 H 0.36906 0.43263 0.10544 0.0
H250 H 0.36612 0.56705 0.32017 0.0
H251 H 0.21887 0.54087 0.31098 0.0
H252 H 0.91331 0.90005 0.11334 0.0
H253 H 0.7649 0.8741 0.10476 0.0
H254 H 0.76358 0.73143 0.89433 0.0
H255 H 0.91112 0.75807 0.90175 0.0
loop_
_geom_bond_atom_site_label_1
_geom_bond_atom_site_label_2
_geom_bond_distance
_geom_bond_site_symmetry_2
_ccdc_geom_bond_type
H0 C5 0.930 . S
H1 C8 0.930 . S
H2 C10 0.930 . S
H3 C4 1.016 . S
C4 H3 1.016 . S
C4 N11 1.286 . S
C5 H0 0.930 . S
C5 C6 1.397 . S
C5 C7 1.361 . S
C6 C5 1.397 . S
C6 C10 1.390 . S
C7 C5 1.361 . S
C7 C8 1.393 . S
C7 N11 1.413 . S
C8 H1 0.930 . S
C8 C7 1.393 . S
C8 C9 1.399 . S
C9 C8 1.399 . S
C9 C10 1.381 . S
C10 H2 0.930 . S
C10 C6 1.390 . S
C10 C9 1.381 . S
N11 C4 1.286 . S
N11 C7 1.413 . S
H12 C17 0.930 . S
H13 C20 0.930 . S
H14 C22 0.930 . S
H15 C16 1.016 1_455 S
C16 H15 1.016 1_655 S
C16 N23 1.286 . S
C17 H12 0.930 . S
C17 C18 1.397 . S
C17 C19 1.361 . S
C18 C17 1.397 . S
C18 C22 1.390 . S
C19 C17 1.361 . S
C19 C20 1.393 . S
C19 N23 1.414 1_455 S
C20 H13 0.930 . S
C20 C19 1.393 . S
C20 C21 1.399 . S
C21 C20 1.399 . S
C21 C22 1.381 . S
C22 H14 0.930 . S
C22 C18 1.390 . S
C22 C21 1.381 . S
N23 C16 1.286 . S
N23 C19 1.414 1_655 S
H24 C29 0.930 . S
H25 C32 0.930 . S
H26 C34 0.930 . S
H27 C28 1.016 . S
C28 H27 1.016 . S
C28 N35 1.286 . S
C29 H24 0.930 . S
C29 C30 1.397 . S
C29 C31 1.361 . S
C30 C29 1.397 . S
C30 C34 1.390 . S
C31 C29 1.361 . S
C31 C32 1.393 . S
C31 N35 1.413 . S
C32 H25 0.930 . S
C32 C31 1.393 . S
C32 C33 1.399 . S
C33 C32 1.399 . S
C33 C34 1.381 . S
C34 H26 0.930 . S
C34 C30 1.390 . S
C34 C33 1.381 . S
N35 C28 1.286 . S
N35 C31 1.413 . S
H36 C41 0.930 . S
H37 C44 0.930 . S
H38 C46 0.930 . S
H39 C40 1.016 . S
C40 H39 1.016 . S
C40 N47 1.286 . S
C41 H36 0.930 . S
C41 C42 1.397 . S
C41 C43 1.361 . S
C42 C41 1.397 . S
C42 C46 1.390 . S
C43 C41 1.361 . S
C43 C44 1.393 . S
C43 N47 1.413 . S
C44 H37 0.930 . S
C44 C43 1.393 . S
C44 C45 1.399 . S
C45 C44 1.399 . S
C45 C46 1.381 . S
C46 H38 0.930 . S
C46 C42 1.390 . S
C46 C45 1.381 . S
N47 C40 1.286 . S
N47 C43 1.413 . S
H48 C53 0.930 . S
H49 C56 0.930 . S
H50 C58 0.930 . S
H51 C52 1.016 . S
C52 H51 1.016 . S
C52 N59 1.286 . S
C53 H48 0.930 . S
C53 C54 1.397 . S
C53 C55 1.361 . S
C54 C53 1.397 . S
C54 C58 1.390 . S
C55 C53 1.361 . S
C55 C56 1.393 . S
C55 N59 1.413 . S
C56 H49 0.930 . S
C56 C55 1.393 . S
C56 C57 1.399 . S
C57 C56 1.399 . S
C57 C58 1.381 . S
C58 H50 0.930 . S
C58 C54 1.390 . S
C58 C57 1.381 . S
N59 C52 1.286 . S
N59 C55 1.413 . S
H60 C65 0.930 . S
H61 C68 0.930 . S
H62 C70 0.930 . S
H63 C64 1.016 . S
C64 H63 1.016 . S
C64 N71 1.286 1_455 S
C65 H60 0.930 . S
C65 C66 1.397 . S
C65 C67 1.361 . S
C66 C65 1.397 . S
C66 C70 1.390 . S
C67 C65 1.361 . S
C67 C68 1.393 . S
C67 N71 1.413 . S
C68 H61 0.930 . S
C68 C67 1.393 . S
C68 C69 1.399 . S
C69 C68 1.399 . S
C69 C70 1.381 . S
C70 H62 0.930 . S
C70 C66 1.390 . S
C70 C69 1.381 . S
N71 C64 1.286 1_655 S
N71 C67 1.413 . S
H72 C77 0.930 . S
H73 C80 0.930 . S
H74 C82 0.930 . S
H75 C76 1.016 . S
C76 H75 1.016 . S
C76 N83 1.286 . S
C77 H72 0.930 . S
C77 C78 1.397 . S
C77 C79 1.361 . S
C78 C77 1.397 . S
C78 C82 1.390 . S
C79 C77 1.361 . S
C79 C80 1.393 . S
C79 N83 1.413 . S
C80 H73 0.930 . S
C80 C79 1.393 . S
C80 C81 1.399 . S
C81 C80 1.399 . S
C81 C82 1.381 . S
C82 H74 0.930 . S
C82 C78 1.390 . S
C82 C81 1.381 . S
N83 C76 1.286 . S
N83 C79 1.413 . S
H84 C89 0.930 . S
H85 C92 0.930 . S
H86 C94 0.930 . S
H87 C88 1.016 . S
C88 H87 1.016 . S
C88 N95 1.286 . S
C89 H84 0.930 . S
C89 C90 1.397 . S
C89 C91 1.361 . S
C90 C89 1.397 . S
C90 C94 1.390 . S
C91 C89 1.361 . S
C91 C92 1.393 . S
C91 N95 1.413 . S
C92 H85 0.930 . S
C92 C91 1.393 . S
C92 C93 1.399 . S
C93 C92 1.399 . S
C93 C94 1.381 . S
C94 H86 0.930 . S
C94 C90 1.390 . S
C94 C93 1.381 . S
N95 C88 1.286 . S
N95 C91 1.413 . S
Sm96 C98 2.846 . S
Sm96 O116 2.543 . S
Sm96 O117 2.450 . S
Sm96 O118 2.681 1_545 S
Sm96 O119 2.464 1_545 S
Sm96 O120 2.396 . S
Sm96 O124 2.386 1_455 S
Sm96 O127 2.408 1_445 S
Sm97 C107 2.846 1_545 S
Sm97 O118 2.386 1_645 S
Sm97 O121 2.408 1_655 S
Sm97 O122 2.543 1_545 S
Sm97 O123 2.450 1_545 S
Sm97 O124 2.681 . S
Sm97 O125 2.464 . S
Sm97 O126 2.396 1_545 S
C98 Sm96 2.846 . S
C98 C99 1.506 . S
C98 O116 1.261 . S
C98 O117 1.242 . S
C99 C98 1.506 . S
C99 C100 1.358 . S
C99 C104 1.382 . S
C100 C99 1.358 . S
C100 C101 1.385 . S
C100 H128 0.930 . S
C101 C100 1.385 . S
C101 C102 1.395 . S
C101 H129 0.929 . S
C102 C101 1.395 . S
C102 C103 1.335 . S
C103 C102 1.335 . S
C103 C104 1.398 . S
C103 H130 0.930 . S
C104 C99 1.382 . S
C104 C103 1.398 . S
C104 H131 0.929 . S
C105 O118 1.271 . S
C105 O119 1.251 . S
C106 O120 1.252 . S
C106 O121 1.272 . S
C107 Sm97 2.846 1_565 S
C107 C108 1.506 . S
C107 O122 1.261 . S
C107 O123 1.242 . S
C108 C107 1.506 . S
C108 C109 1.358 . S
C108 C113 1.382 . S
C109 C108 1.358 . S
C109 C110 1.385 . S
C109 H132 0.930 . S
C110 C109 1.385 . S
C110 C111 1.395 . S
C110 H133 0.929 . S
C111 C110 1.395 . S
C111 C112 1.335 . S
C112 C111 1.335 . S
C112 C113 1.398 . S
C112 H134 0.930 . S
C113 C108 1.382 . S
C113 C112 1.398 . S
C113 H135 0.929 . S
C114 O124 1.271 . S
C114 O125 1.251 . S
C115 O126 1.252 . S
C115 O127 1.272 . S
O116 Sm96 2.543 . S
O116 C98 1.261 . S
O117 Sm96 2.450 . S
O117 C98 1.242 . S
O118 Sm96 2.681 1_565 S
O118 Sm97 2.386 1_465 S
O118 C105 1.271 . S
O119 Sm96 2.464 1_565 S
O119 C105 1.251 . S
O120 Sm96 2.396 . S
O120 C106 1.252 . S
O121 Sm97 2.408 1_455 S
O121 C106 1.272 . S
O122 Sm97 2.543 1_565 S
O122 C107 1.261 . S
O123 Sm97 2.450 1_565 S
O123 C107 1.242 . S
O124 Sm96 2.386 1_655 S
O124 Sm97 2.681 . S
O124 C114 1.271 . S
O125 Sm97 2.464 . S
O125 C114 1.251 . S
O126 Sm97 2.396 1_565 S
O126 C115 1.252 . S
O127 Sm96 2.408 1_665 S
O127 C115 1.272 . S
H128 C100 0.930 . S
H129 C101 0.929 . S
H130 C103 0.930 . S
H131 C104 0.929 . S
H132 C109 0.930 . S
H133 C110 0.929 . S
H134 C112 0.930 . S
H135 C113 0.929 . S
Sm136 C138 2.846 . S
Sm136 O156 2.543 . S
Sm136 O157 2.450 . S
Sm136 O158 2.681 1_545 S
Sm136 O159 2.464 1_545 S
Sm136 O160 2.396 . S
Sm136 O164 2.386 1_554 S
Sm136 O167 2.408 1_544 S
Sm137 C147 2.846 1_545 S
Sm137 O158 2.386 1_546 S
Sm137 O161 2.408 1_556 S
Sm137 O162 2.543 1_545 S
Sm137 O163 2.450 1_545 S
Sm137 O164 2.681 . S
Sm137 O165 2.464 . S
Sm137 O166 2.396 1_545 S
C138 Sm136 2.846 . S
C138 C139 1.506 . S
C138 O156 1.261 . S
C138 O157 1.242 . S
C139 C138 1.506 . S
C139 C140 1.358 . S
C139 C144 1.382 . S
C140 C139 1.358 . S
C140 C141 1.385 . S
C140 H168 0.930 . S
C141 C140 1.385 . S
C141 C142 1.395 . S
C141 H169 0.929 . S
C142 C141 1.395 . S
C142 C143 1.335 . S
C143 C142 1.335 . S
C143 C144 1.398 . S
C143 H170 0.930 . S
C144 C139 1.382 . S
C144 C143 1.398 . S
C144 H171 0.929 . S
C145 O158 1.271 . S
C145 O159 1.251 . S
C146 O160 1.252 . S
C146 O161 1.272 . S
C147 Sm137 2.846 1_565 S
C147 C148 1.506 . S
C147 O162 1.261 . S
C147 O163 1.242 . S
C148 C147 1.506 . S
C148 C149 1.358 . S
C148 C153 1.382 . S
C149 C148 1.358 . S
C149 C150 1.385 . S
C149 H172 0.930 . S
C150 C149 1.385 . S
C150 C151 1.395 . S
C150 H173 0.929 . S
C151 C150 1.395 . S
C151 C152 1.335 . S
C152 C151 1.335 . S
C152 C153 1.398 . S
C152 H174 0.930 . S
C153 C148 1.382 . S
C153 C152 1.398 . S
C153 H175 0.929 . S
C154 O164 1.271 . S
C154 O165 1.251 . S
C155 O166 1.252 . S
C155 O167 1.272 . S
O156 Sm136 2.543 . S
O156 C138 1.261 . S
O157 Sm136 2.450 . S
O157 C138 1.242 . S
O158 Sm136 2.681 1_565 S
O158 Sm137 2.386 1_564 S
O158 C145 1.271 . S
O159 Sm136 2.464 1_565 S
O159 C145 1.251 . S
O160 Sm136 2.396 . S
O160 C146 1.252 . S
O161 Sm137 2.408 1_554 S
O161 C146 1.272 . S
O162 Sm137 2.543 1_565 S
O162 C147 1.261 . S
O163 Sm137 2.450 1_565 S
O163 C147 1.242 . S
O164 Sm136 2.386 1_556 S
O164 Sm137 2.681 . S
O164 C154 1.271 . S
O165 Sm137 2.464 . S
O165 C154 1.251 . S
O166 Sm137 2.396 1_565 S
O166 C155 1.252 . S
O167 Sm136 2.408 1_566 S
O167 C155 1.272 . S
H168 C140 0.930 . S
H169 C141 0.929 . S
H170 C143 0.930 . S
H171 C144 0.929 . S
H172 C149 0.930 . S
H173 C150 0.929 . S
H174 C152 0.930 . S
H175 C153 0.929 . S
Sm176 C178 2.846 . S
Sm176 O196 2.543 . S
Sm176 O197 2.450 . S
Sm176 O198 2.681 . S
Sm176 O199 2.464 . S
Sm176 O200 2.396 . S
Sm176 O204 2.386 . S
Sm176 O207 2.408 . S
Sm177 C187 2.846 . S
Sm177 O198 2.386 . S
Sm177 O201 2.408 . S
Sm177 O202 2.543 . S
Sm177 O203 2.450 . S
Sm177 O204 2.681 . S
Sm177 O205 2.464 . S
Sm177 O206 2.396 . S
C178 Sm176 2.846 . S
C178 C179 1.506 . S
C178 O196 1.261 . S
C178 O197 1.242 . S
C179 C178 1.506 . S
C179 C180 1.358 . S
C179 C184 1.382 . S
C180 C179 1.358 . S
C180 C181 1.385 . S
C180 H208 0.930 . S
C181 C180 1.385 . S
C181 C182 1.395 . S
C181 H209 0.929 . S
C182 C181 1.395 . S
C182 C183 1.335 . S
C183 C182 1.335 . S
C183 C184 1.398 . S
C183 H210 0.930 . S
C184 C179 1.382 . S
C184 C183 1.398 . S
C184 H211 0.929 . S
C185 O198 1.271 . S
C185 O199 1.251 . S
C186 O200 1.252 . S
C186 O201 1.272 . S
C187 Sm177 2.846 . S
C187 C188 1.506 . S
C187 O202 1.261 . S
C187 O203 1.242 . S
C188 C187 1.506 . S
C188 C189 1.358 . S
C188 C193 1.382 . S
C189 C188 1.358 . S
C189 C190 1.385 . S
C189 H212 0.930 . S
C190 C189 1.385 . S
C190 C191 1.395 . S
C190 H213 0.929 . S
C191 C190 1.395 . S
C191 C192 1.335 . S
C192 C191 1.335 . S
C192 C193 1.398 . S
C192 H214 0.930 . S
C193 C188 1.382 . S
C193 C192 1.398 . S
C193 H215 0.929 . S
C194 O204 1.271 . S
C194 O205 1.251 . S
C195 O206 1.252 . S
C195 O207 1.272 . S
O196 Sm176 2.543 . S
O196 C178 1.261 . S
O197 Sm176 2.450 . S
O197 C178 1.242 . S
O198 Sm176 2.681 . S
O198 Sm177 2.386 . S
O198 C185 1.271 . S
O199 Sm176 2.464 . S
O199 C185 1.251 . S
O200 Sm176 2.396 . S
O200 C186 1.252 . S
O201 Sm177 2.408 . S
O201 C186 1.272 . S
O202 Sm177 2.543 . S
O202 C187 1.261 . S
O203 Sm177 2.450 . S
O203 C187 1.242 . S
O204 Sm176 2.386 . S
O204 Sm177 2.681 . S
O204 C194 1.271 . S
O205 Sm177 2.464 . S
O205 C194 1.251 . S
O206 Sm177 2.396 . S
O206 C195 1.252 . S
O207 Sm176 2.408 . S
O207 C195 1.272 . S
H208 C180 0.930 . S
H209 C181 0.929 . S
H210 C183 0.930 . S
H211 C184 0.929 . S
H212 C189 0.930 . S
H213 C190 0.929 . S
H214 C192 0.930 . S
H215 C193 0.929 . S
Sm216 C218 2.846 . S
Sm216 O236 2.543 . S
Sm216 O237 2.450 . S
Sm216 O238 2.681 1_455 S
Sm216 O239 2.464 1_455 S
Sm216 O240 2.396 . S
Sm216 O244 2.386 1_554 S
Sm216 O247 2.408 1_454 S
Sm217 C227 2.846 1_455 S
Sm217 O238 2.386 1_456 S
Sm217 O241 2.408 1_556 S
Sm217 O242 2.543 1_455 S
Sm217 O243 2.450 1_455 S
Sm217 O244 2.681 . S
Sm217 O245 2.464 . S
Sm217 O246 2.396 1_455 S
C218 Sm216 2.846 . S
C218 C219 1.506 . S
C218 O236 1.261 . S
C218 O237 1.242 . S
C219 C218 1.506 . S
C219 C220 1.358 . S
C219 C224 1.382 . S
C220 C219 1.358 . S
C220 C221 1.385 . S
C220 H248 0.930 . S
C221 C220 1.385 . S
C221 C222 1.395 . S
C221 H249 0.929 . S
C222 C221 1.395 . S
C222 C223 1.335 . S
C223 C222 1.335 . S
C223 C224 1.398 . S
C223 H250 0.930 . S
C224 C219 1.382 . S
C224 C223 1.398 . S
C224 H251 0.929 . S
C225 O238 1.271 . S
C225 O239 1.251 . S
C226 O240 1.252 . S
C226 O241 1.272 . S
C227 Sm217 2.846 1_655 S
C227 C228 1.506 . S
C227 O242 1.261 . S
C227 O243 1.242 . S
C228 C227 1.506 . S
C228 C229 1.358 . S
C228 C233 1.382 . S
C229 C228 1.358 . S
C229 C230 1.385 . S
C229 H252 0.930 . S
C230 C229 1.385 . S
C230 C231 1.395 . S
C230 H253 0.929 . S
C231 C230 1.395 . S
C231 C232 1.335 . S
C232 C231 1.335 . S
C232 C233 1.398 . S
C232 H254 0.930 . S
C233 C228 1.382 . S
C233 C232 1.398 . S
C233 H255 0.929 . S
C234 O244 1.271 . S
C234 O245 1.251 . S
C235 O246 1.252 . S
C235 O247 1.272 . S
O236 Sm216 2.543 . S
O236 C218 1.261 . S
O237 Sm216 2.450 . S
O237 C218 1.242 . S
O238 Sm216 2.681 1_655 S
O238 Sm217 2.386 1_654 S
O238 C225 1.271 . S
O239 Sm216 2.464 1_655 S
O239 C225 1.251 . S
O240 Sm216 2.396 . S
O240 C226 1.252 . S
O241 Sm217 2.408 1_554 S
O241 C226 1.272 . S
O242 Sm217 2.543 1_655 S
O242 C227 1.261 . S
O243 Sm217 2.450 1_655 S
O243 C227 1.242 . S
O244 Sm216 2.386 1_556 S
O244 Sm217 2.681 . S
O244 C234 1.271 . S
O245 Sm217 2.464 . S
O245 C234 1.251 . S
O246 Sm217 2.396 1_655 S
O246 C235 1.252 . S
O247 Sm216 2.408 1_656 S
O247 C235 1.272 . S
H248 C220 0.930 . S
H249 C221 0.929 . S
H250 C223 0.930 . S
H251 C224 0.929 . S
H252 C229 0.930 . S
H253 C230 0.929 . S
H254 C232 0.930 . S
H255 C233 0.929 . S
C6 C102 1.023 . S
C18 C151 1.514 . S
C186 C28 3.860 . S
C40 C225 2.806 . S
C146 C9 2.793 . S
C105 C16 2.000 1_455 S
C235 C30 2.516 . S
C194 C42 1.946 . S
C4 C222 2.405 . S
C154 C33 3.762 . S
C45 C115 2.983 . S
C21 C191 2.240 . S
C111 C57 1.176 . S
C66 C142 1.801 . S
C76 C195 3.956 . S
C88 C234 2.672 . S
C54 C155 2.862 . S
C114 C64 2.156 1_655 S
C226 C78 2.422 . S
C185 C93 2.063 . S
C52 C231 2.429 . S
C145 C81 3.746 . S
C106 C90 2.982 . S
C69 C182 2.144 . S
