# Generated by pormake.
# Topology ctn, (3,4)-cn, num edge types: 1
# Building blocks:
#     Node 0, Type 0, BuildingBlock: BETDIP_clean_linker_0, # of connection points: 3
#     Node 1, Type 0, BuildingBlock: BETDIP_clean_linker_0, # of connection points: 3
#     Node 2, Type 0, BuildingBlock: BETDIP_clean_linker_0, # of connection points: 3
#     Node 3, Type 0, BuildingBlock: BETDIP_clean_linker_0, # of connection points: 3
#     Node 4, Type 0, BuildingBlock: BETDIP_clean_linker_0, # of connection points: 3
#     Node 5, Type 0, BuildingBlock: BETDIP_clean_linker_0, # of connection points: 3
#     Node 6, Type 0, BuildingBlock: BETDIP_clean_linker_0, # of connection points: 3
#     Node 7, Type 0, BuildingBlock: BETDIP_clean_linker_0, # of connection points: 3
#     Node 8, Type 0, BuildingBlock: BETDIP_clean_linker_0, # of connection points: 3
#     Node 9, Type 0, BuildingBlock: BETDIP_clean_linker_0, # of connection points: 3
#     Node 10, Type 0, BuildingBlock: BETDIP_clean_linker_0, # of connection points: 3
#     Node 11, Type 0, BuildingBlock: BETDIP_clean_linker_0, # of connection points: 3
#     Node 12, Type 0, BuildingBlock: BETDIP_clean_linker_0, # of connection points: 3
#     Node 13, Type 0, BuildingBlock: BETDIP_clean_linker_0, # of connection points: 3
#     Node 14, Type 0, BuildingBlock: BETDIP_clean_linker_0, # of connection points: 3
#     Node 15, Type 0, BuildingBlock: BETDIP_clean_linker_0, # of connection points: 3
#     Node 16, Type 1, BuildingBlock: UXUYUI_clean_sbu_0, # of connection points: 4
#     Node 17, Type 1, BuildingBlock: UXUYUI_clean_sbu_0, # of connection points: 4
#     Node 18, Type 1, BuildingBlock: UXUYUI_clean_sbu_0, # of connection points: 4
#     Node 19, Type 1, BuildingBlock: UXUYUI_clean_sbu_0, # of connection points: 4
#     Node 20, Type 1, BuildingBlock: UXUYUI_clean_sbu_0, # of connection points: 4
#     Node 21, Type 1, BuildingBlock: UXUYUI_clean_sbu_0, # of connection points: 4
#     Node 22, Type 1, BuildingBlock: UXUYUI_clean_sbu_0, # of connection points: 4
#     Node 23, Type 1, BuildingBlock: UXUYUI_clean_sbu_0, # of connection points: 4
#     Node 24, Type 1, BuildingBlock: UXUYUI_clean_sbu_0, # of connection points: 4
#     Node 25, Type 1, BuildingBlock: UXUYUI_clean_sbu_0, # of connection points: 4
#     Node 26, Type 1, BuildingBlock: UXUYUI_clean_sbu_0, # of connection points: 4
#     Node 27, Type 1, BuildingBlock: UXUYUI_clean_sbu_0, # of connection points: 4
#     Edge 28, Type (0, 1), BuildingBlock: TEMPAE_clean_linker_10, # of connection points: 2
#     Edge 29, Type (0, 1), BuildingBlock: TEMPAE_clean_linker_10, # of connection points: 2
#     Edge 30, Type (0, 1), BuildingBlock: TEMPAE_clean_linker_10, # of connection points: 2
#     Edge 31, Type (0, 1), BuildingBlock: TEMPAE_clean_linker_10, # of connection points: 2
#     Edge 32, Type (0, 1), BuildingBlock: TEMPAE_clean_linker_10, # of connection points: 2
#     Edge 33, Type (0, 1), BuildingBlock: TEMPAE_clean_linker_10, # of connection points: 2
#     Edge 34, Type (0, 1), BuildingBlock: TEMPAE_clean_linker_10, # of connection points: 2
#     Edge 35, Type (0, 1), BuildingBlock: TEMPAE_clean_linker_10, # of connection points: 2
#     Edge 36, Type (0, 1), BuildingBlock: TEMPAE_clean_linker_10, # of connection points: 2
#     Edge 37, Type (0, 1), BuildingBlock: TEMPAE_clean_linker_10, # of connection points: 2
#     Edge 38, Type (0, 1), BuildingBlock: TEMPAE_clean_linker_10, # of connection points: 2
#     Edge 39, Type (0, 1), BuildingBlock: TEMPAE_clean_linker_10, # of connection points: 2
#     Edge 40, Type (0, 1), BuildingBlock: TEMPAE_clean_linker_10, # of connection points: 2
#     Edge 41, Type (0, 1), BuildingBlock: TEMPAE_clean_linker_10, # of connection points: 2
#     Edge 42, Type (0, 1), BuildingBlock: TEMPAE_clean_linker_10, # of connection points: 2
#     Edge 43, Type (0, 1), BuildingBlock: TEMPAE_clean_linker_10, # of connection points: 2
#     Edge 44, Type (0, 1), BuildingBlock: TEMPAE_clean_linker_10, # of connection points: 2
#     Edge 45, Type (0, 1), BuildingBlock: TEMPAE_clean_linker_10, # of connection points: 2
#     Edge 46, Type (0, 1), BuildingBlock: TEMPAE_clean_linker_10, # of connection points: 2
#     Edge 47, Type (0, 1), BuildingBlock: TEMPAE_clean_linker_10, # of connection points: 2
#     Edge 48, Type (0, 1), BuildingBlock: TEMPAE_clean_linker_10, # of connection points: 2
#     Edge 49, Type (0, 1), BuildingBlock: TEMPAE_clean_linker_10, # of connection points: 2
#     Edge 50, Type (0, 1), BuildingBlock: TEMPAE_clean_linker_10, # of connection points: 2
#     Edge 51, Type (0, 1), BuildingBlock: TEMPAE_clean_linker_10, # of connection points: 2
#     Edge 52, Type (0, 1), BuildingBlock: TEMPAE_clean_linker_10, # of connection points: 2
#     Edge 53, Type (0, 1), BuildingBlock: TEMPAE_clean_linker_10, # of connection points: 2
#     Edge 54, Type (0, 1), BuildingBlock: TEMPAE_clean_linker_10, # of connection points: 2
#     Edge 55, Type (0, 1), BuildingBlock: TEMPAE_clean_linker_10, # of connection points: 2
#     Edge 56, Type (0, 1), BuildingBlock: TEMPAE_clean_linker_10, # of connection points: 2
#     Edge 57, Type (0, 1), BuildingBlock: TEMPAE_clean_linker_10, # of connection points: 2
#     Edge 58, Type (0, 1), BuildingBlock: TEMPAE_clean_linker_10, # of connection points: 2
#     Edge 59, Type (0, 1), BuildingBlock: TEMPAE_clean_linker_10, # of connection points: 2
#     Edge 60, Type (0, 1), BuildingBlock: TEMPAE_clean_linker_10, # of connection points: 2
#     Edge 61, Type (0, 1), BuildingBlock: TEMPAE_clean_linker_10, # of connection points: 2
#     Edge 62, Type (0, 1), BuildingBlock: TEMPAE_clean_linker_10, # of connection points: 2
#     Edge 63, Type (0, 1), BuildingBlock: TEMPAE_clean_linker_10, # of connection points: 2
#     Edge 64, Type (0, 1), BuildingBlock: TEMPAE_clean_linker_10, # of connection points: 2
#     Edge 65, Type (0, 1), BuildingBlock: TEMPAE_clean_linker_10, # of connection points: 2
#     Edge 66, Type (0, 1), BuildingBlock: TEMPAE_clean_linker_10, # of connection points: 2
#     Edge 67, Type (0, 1), BuildingBlock: TEMPAE_clean_linker_10, # of connection points: 2
#     Edge 68, Type (0, 1), BuildingBlock: TEMPAE_clean_linker_10, # of connection points: 2
#     Edge 69, Type (0, 1), BuildingBlock: TEMPAE_clean_linker_10, # of connection points: 2
#     Edge 70, Type (0, 1), BuildingBlock: TEMPAE_clean_linker_10, # of connection points: 2
#     Edge 71, Type (0, 1), BuildingBlock: TEMPAE_clean_linker_10, # of connection points: 2
#     Edge 72, Type (0, 1), BuildingBlock: TEMPAE_clean_linker_10, # of connection points: 2
#     Edge 73, Type (0, 1), BuildingBlock: TEMPAE_clean_linker_10, # of connection points: 2
#     Edge 74, Type (0, 1), BuildingBlock: TEMPAE_clean_linker_10, # of connection points: 2
#     Edge 75, Type (0, 1), BuildingBlock: TEMPAE_clean_linker_10, # of connection points: 2
# Relax obj value: 0.068
# Max RMSD: 0.193
# Mean RMSD: 0.117
data_MOF--net-ctn--node1-UXUYUI_clean_sbu_0--node2-BETDIP_clean_linker_0--edge1-TEMPAE_clean_linker_10
_symmetry_space_group_name_H-M    P1
_symmetry_Int_Tables_number       1
_symmetry_cell_setting            triclinic
loop_
_symmetry_equiv_pos_as_xyz
'x, y, z'
_cell_length_a     65.953095
_cell_length_b     66.200263
_cell_length_c     72.497733
_cell_angle_alpha  93.456369
_cell_angle_beta   93.661862
_cell_angle_gamma 92.884204
loop_
_atom_site_label
_atom_site_type_symbol
_atom_site_fract_x
_atom_site_fract_y
_atom_site_fract_z
_atom_type_partial_charge
H0 H 0.03535 0.06419 0.06177 0.0
H1 H 0.08066 0.04095 0.02758 0.0
H2 H 0.06742 0.01218 0.07749 0.0
H3 H 0.08504 0.07494 0.02237 0.0
C4 C 0.06928 0.07884 0.02034 0.0
C5 C 0.04672 0.05327 0.05921 0.0
C6 C 0.04985 0.03783 0.07141 0.0
C7 C 0.05815 0.05482 0.04371 0.0
C8 C 0.07256 0.0404 0.04007 0.0
C9 C 0.07613 0.02489 0.05215 0.0
C10 C 0.0646 0.02373 0.0678 0.0
N11 N 0.05453 0.07073 0.03177 0.0
H12 H 0.27349 0.69865 0.20016 0.0
H13 H 0.32767 0.73484 0.21872 0.0
H14 H 0.31153 0.68124 0.24632 0.0
H15 H 0.31177 0.7592 0.20429 0.0
C16 C 0.30325 0.75147 0.19239 0.0
C17 C 0.28679 0.70142 0.20974 0.0
C18 C 0.2908 0.68798 0.22362 0.0
C19 C 0.29982 0.71843 0.20794 0.0
C20 C 0.31735 0.7219 0.22009 0.0
C21 C 0.3217 0.70856 0.23404 0.0
C22 C 0.30832 0.69164 0.23566 0.0
N23 N 0.29512 0.73129 0.19341 0.0
H24 H 0.95193 0.48458 0.01636 0.0
H25 H 0.99782 0.46077 0.05238 0.0
H26 H 0.96968 0.51539 0.06943 0.0
H27 H 0.98472 0.43092 0.03756 0.0
C28 C 0.98323 0.43513 0.0233 0.0
C29 C 0.96101 0.48559 0.02941 0.0
C30 C 0.95898 0.50179 0.04251 0.0
C31 C 0.97468 0.47058 0.03296 0.0
C32 C 0.9869 0.47207 0.04965 0.0
C33 C 0.98522 0.48819 0.06289 0.0
C34 C 0.97114 0.50296 0.05925 0.0
N35 N 0.97621 0.45445 0.01932 0.0
H36 H 0.71845 0.77703 0.19247 0.0
H37 H 0.74078 0.82718 0.23005 0.0
H38 H 0.77039 0.81423 0.17979 0.0
H39 H 0.72869 0.8052 0.25125 0.0
C40 C 0.71414 0.79995 0.24429 0.0
C41 C 0.72924 0.78976 0.1961 0.0
C42 C 0.74458 0.79435 0.18425 0.0
C43 C 0.72814 0.8011 0.21293 0.0
C44 C 0.74208 0.81775 0.2175 0.0
C45 C 0.75723 0.82281 0.2055 0.0
C46 C 0.75852 0.81081 0.18899 0.0
N47 N 0.71262 0.7957 0.22477 0.0
H48 H 0.03318 0.95959 0.44793 0.0
H49 H 0.08625 0.97892 0.48339 0.0
H50 H 0.07314 0.00854 0.43317 0.0
H51 H 0.08433 0.94494 0.48919 0.0
C52 C 0.06812 0.94221 0.49051 0.0
C53 C 0.04667 0.96958 0.45092 0.0
C54 C 0.05171 0.98431 0.43858 0.0
C55 C 0.05936 0.96708 0.46678 0.0
C56 C 0.07685 0.9801 0.47075 0.0
C57 C 0.08181 0.99527 0.45877 0.0
C58 C 0.06927 0.99707 0.44262 0.0
N59 N 0.05394 0.95161 0.47864 0.0
H60 H 0.22326 0.74329 0.80957 0.0
H61 H 0.24783 0.69969 0.77223 0.0
H62 H 0.27867 0.71539 0.82571 0.0
H63 H 0.23129 0.71759 0.75057 0.0
C64 C 0.21741 0.72154 0.75689 0.0
C65 C 0.23495 0.73285 0.80659 0.0
C66 C 0.25099 0.73051 0.81985 0.0
C67 C 0.23405 0.72234 0.78924 0.0
C68 C 0.24907 0.70871 0.78524 0.0
C69 C 0.26529 0.70601 0.79831 0.0
C70 C 0.26621 0.71718 0.81556 0.0
N71 N 0.21751 0.7255 0.77638 0.0
H72 H 0.99593 0.5671 0.46482 0.0
H73 H 0.95936 0.51244 0.4492 0.0
H74 H 0.94612 0.55002 0.49701 0.0
H75 H 0.01979 0.55018 0.44977 0.0
C76 C 0.01111 0.54219 0.43807 0.0
C77 C 0.98368 0.55637 0.46743 0.0
C78 C 0.97155 0.56062 0.48229 0.0
C79 C 0.97942 0.53883 0.45558 0.0
C80 C 0.96282 0.5257 0.4586 0.0
C81 C 0.95064 0.5296 0.47349 0.0
C82 C 0.95516 0.5471 0.48526 0.0
N83 N 0.99098 0.5343 0.4401 0.0
H84 H 0.7988 0.81727 0.77124 0.0
H85 H 0.82139 0.77093 0.8047 0.0
H86 H 0.77158 0.80529 0.82212 0.0
H87 H 0.83716 0.76127 0.77978 0.0
C88 C 0.8394 0.77432 0.77164 0.0
C89 C 0.79807 0.80891 0.78361 0.0
C90 C 0.78332 0.81309 0.79625 0.0
C91 C 0.81178 0.7938 0.78643 0.0
C92 C 0.81083 0.7826 0.80228 0.0
C93 C 0.79618 0.78647 0.8152 0.0
C94 C 0.78251 0.80178 0.81203 0.0
N95 N 0.82657 0.79087 0.77319 0.0
H96 H 0.29563 0.31699 0.2713 0.0
H97 H 0.31928 0.2711 0.30479 0.0
H98 H 0.2677 0.30317 0.32142 0.0
H99 H 0.3466 0.27448 0.28889 0.0
C100 C 0.3425 0.28091 0.27584 0.0
C101 C 0.29504 0.30849 0.2836 0.0
C102 C 0.27982 0.31184 0.29595 0.0
C103 C 0.30957 0.29421 0.28677 0.0
C104 C 0.30865 0.28273 0.30245 0.0
C105 C 0.29348 0.28576 0.315 0.0
C106 C 0.27912 0.30037 0.31161 0.0
N107 N 0.32449 0.29169 0.27359 0.0
H108 H 0.4562 0.98833 0.51697 0.0
H109 H 0.49986 0.96226 0.55365 0.0
H110 H 0.47239 0.017 0.57129 0.0
H111 H 0.4872 0.93322 0.53705 0.0
C112 C 0.4864 0.9382 0.52302 0.0
C113 C 0.46494 0.98893 0.53019 0.0
C114 C 0.46257 0.00469 0.54367 0.0
C115 C 0.47798 0.97339 0.53377 0.0
C116 C 0.48915 0.97378 0.55096 0.0
C117 C 0.48719 0.98945 0.56457 0.0
C118 C 0.47391 0.00488 0.56082 0.0
N119 N 0.4799 0.95787 0.51965 0.0
H120 H 0.21877 0.27545 0.69527 0.0
H121 H 0.24065 0.32618 0.7323 0.0
H122 H 0.27044 0.31318 0.68241 0.0
H123 H 0.20978 0.32411 0.74223 0.0
C124 C 0.20442 0.3083 0.74066 0.0
C125 C 0.22954 0.28824 0.69874 0.0
C126 C 0.24493 0.29274 0.68681 0.0
C127 C 0.22749 0.30042 0.71495 0.0
C128 C 0.24139 0.3171 0.71948 0.0
C129 C 0.25687 0.32185 0.70776 0.0
C130 C 0.25852 0.30958 0.69149 0.0
N131 N 0.21153 0.29521 0.72645 0.0
H132 H 0.77105 0.19966 0.7 0.0
H133 H 0.8245 0.23715 0.7181 0.0
H134 H 0.80842 0.18516 0.74778 0.0
H135 H 0.80927 0.26044 0.70237 0.0
C136 C 0.80025 0.25245 0.6909 0.0
C137 C 0.78408 0.20304 0.70978 0.0
C138 C 0.78799 0.19032 0.72431 0.0
C139 C 0.79687 0.22013 0.70759 0.0
C140 C 0.81423 0.22427 0.71983 0.0
C141 C 0.81854 0.21168 0.73437 0.0
C142 C 0.80524 0.19485 0.73654 0.0
N143 N 0.79208 0.2324 0.69262 0.0
H144 H 0.53077 0.56245 0.55722 0.0
H145 H 0.57694 0.5395 0.52393 0.0
H146 H 0.5638 0.51138 0.57412 0.0
H147 H 0.58108 0.57433 0.51966 0.0
C148 C 0.56521 0.57736 0.5166 0.0
C149 C 0.54217 0.55152 0.55489 0.0
C150 C 0.54571 0.53661 0.56759 0.0
C151 C 0.55379 0.55302 0.53948 0.0
C152 C 0.56867 0.53898 0.53633 0.0
C153 C 0.57246 0.52386 0.54874 0.0
C154 C 0.56094 0.52288 0.5644 0.0
N155 N 0.55004 0.5686 0.52722 0.0
H156 H 0.53316 0.46052 0.94728 0.0
H157 H 0.58649 0.4796 0.98241 0.0
H158 H 0.57317 0.50955 0.93256 0.0
H159 H 0.58394 0.44826 0.99154 0.0
C160 C 0.56781 0.4439 0.99089 0.0
C161 C 0.54681 0.47033 0.95005 0.0
C162 C 0.55141 0.48556 0.93801 0.0
C163 C 0.55962 0.46762 0.96579 0.0
C164 C 0.577 0.48077 0.96984 0.0
C165 C 0.58189 0.49606 0.95799 0.0
C166 C 0.5691 0.49821 0.94205 0.0
N167 N 0.55426 0.4519 0.97746 0.0
H168 H 0.72138 0.24322 0.30637 0.0
H169 H 0.74407 0.19706 0.2702 0.0
H170 H 0.77366 0.21121 0.32424 0.0
H171 H 0.72333 0.20763 0.24882 0.0
C172 C 0.71215 0.21702 0.25483 0.0
C173 C 0.73228 0.23182 0.30381 0.0
C174 C 0.74766 0.22859 0.31747 0.0
C175 C 0.73089 0.22079 0.28667 0.0
C176 C 0.74498 0.20598 0.28322 0.0
C177 C 0.76056 0.20252 0.29666 0.0
C178 C 0.76192 0.21404 0.3137 0.0
N179 N 0.71488 0.22493 0.27355 0.0
H180 H 0.4937 0.07107 0.962 0.0
H181 H 0.46317 0.01245 0.95059 0.0
H182 H 0.44827 0.05015 0.99758 0.0
H183 H 0.49282 0.00573 0.93755 0.0
C184 C 0.49664 0.01957 0.93092 0.0
C185 C 0.4828 0.0595 0.96578 0.0
C186 C 0.47152 0.06286 0.9814 0.0
C187 C 0.48025 0.04126 0.95488 0.0
C188 C 0.46562 0.02638 0.9592 0.0
C189 C 0.45387 0.02955 0.97453 0.0
C190 C 0.45712 0.04772 0.98564 0.0
N191 N 0.49225 0.03865 0.93938 0.0
Li192 Li 0.27872 0.89175 0.00761 0.0
Li193 Li 0.26353 0.86536 0.02549 0.0
Li194 Li 0.2581 0.86446 0.99161 0.0
Li195 Li 0.24159 0.8895 0.01114 0.0
C196 C 0.30336 0.86118 1.00151 0.0
N197 N 0.34287 0.8596 0.99109 0.0
C198 C 0.31831 0.8534 0.01321 0.0
C199 C 0.30846 0.86784 0.98439 0.0
C200 C 0.33821 0.8528 0.00772 0.0
C201 C 0.32852 0.86702 0.9794 0.0
C202 C 0.25693 0.89935 0.04768 0.0
C203 C 0.23173 0.89389 0.06981 0.0
N204 N 0.24198 0.90798 0.08185 0.0
C205 C 0.26722 0.91374 0.06026 0.0
C206 C 0.23905 0.88931 0.05248 0.0
C207 C 0.25941 0.9179 0.07747 0.0
C208 C 0.30027 0.92434 0.99332 0.0
N209 N 0.30167 0.91003 0.00595 0.0
C210 C 0.33635 0.92079 0.01438 0.0
C211 C 0.31912 0.90824 0.01664 0.0
C212 C 0.33543 0.93552 1.00124 0.0
C213 C 0.31703 0.93735 0.99076 0.0
H214 H 0.28618 0.9255 0.98508 0.0
H215 H 0.31973 0.89685 0.02672 0.0
C216 C 0.25241 0.83903 0.05364 0.0
N217 N 0.26772 0.85058 0.04717 0.0
C218 C 0.25587 0.82845 0.06954 0.0
C219 C 0.29059 0.84234 0.0722 0.0
C220 C 0.28643 0.8527 0.05628 0.0
C221 C 0.27522 0.8299 0.07897 0.0
H222 H 0.23745 0.83808 0.04656 0.0
H223 H 0.29808 0.86264 0.05127 0.0
C224 C 0.24887 0.89614 0.97076 0.0
N225 N 0.2338 0.9 0.93475 0.0
C226 C 0.22801 0.89763 0.96675 0.0
C227 C 0.2621 0.89693 0.95646 0.0
C228 C 0.22067 0.89951 0.94846 0.0
C229 C 0.25417 0.89878 0.93834 0.0
C230 C 0.2313 0.83936 0.00867 0.0
C231 C 0.24591 0.82477 0.00838 0.0
C232 C 0.21065 0.83321 0.00734 0.0
C233 C 0.23959 0.80424 0.00681 0.0
C234 C 0.20495 0.81253 0.0058 0.0
N235 N 0.21941 0.7986 0.00557 0.0
C236 C 0.27011 0.83285 0.96739 0.0
C237 C 0.23911 0.84639 0.9572 0.0
C238 C 0.26934 0.81951 0.95169 0.0
N239 N 0.25538 0.84627 0.9697 0.0
C240 C 0.23779 0.83339 0.94116 0.0
C241 C 0.25313 0.8198 0.9382 0.0
H242 H 0.28249 0.83235 0.97779 0.0
H243 H 0.22709 0.85648 0.95967 0.0
C244 C 0.22266 0.92485 0.02208 0.0
N245 N 0.21869 0.90544 0.01508 0.0
C246 C 0.20674 0.93703 0.02645 0.0
C247 C 0.18286 0.90927 0.01573 0.0
C248 C 0.19928 0.89748 0.01185 0.0
C249 C 0.18654 0.92926 0.02331 0.0
H250 H 0.23825 0.93077 0.02452 0.0
H251 H 0.19658 0.88197 0.00635 0.0
O252 O 0.28384 0.86228 0.00676 0.0
O253 O 0.26445 0.89513 0.0308 0.0
O254 O 0.25634 0.89434 0.98861 0.0
O255 O 0.23705 0.85957 0.00991 0.0
H256 H 0.31461 0.84782 0.02635 0.0
H257 H 0.29703 0.87365 0.9751 0.0
H258 H 0.34994 0.84691 0.01668 0.0
H259 H 0.33268 0.87228 0.96624 0.0
H260 H 0.21791 0.88625 0.0737 0.0
H261 H 0.28111 0.92161 0.05675 0.0
H262 H 0.23088 0.87811 0.04293 0.0
H263 H 0.26721 0.92902 0.08735 0.0
H264 H 0.3502 0.91907 0.02287 0.0
H265 H 0.31574 0.94842 0.9804 0.0
H266 H 0.24358 0.81904 0.07427 0.0
H267 H 0.30559 0.84427 0.07928 0.0
H268 H 0.21753 0.8971 0.97758 0.0
H269 H 0.27832 0.89624 0.95929 0.0
H270 H 0.20454 0.90053 0.94516 0.0
H271 H 0.26423 0.8993 0.92715 0.0
H272 H 0.26196 0.82918 0.0094 0.0
H273 H 0.19915 0.8443 0.00748 0.0
H274 H 0.25074 0.7928 0.00658 0.0
H275 H 0.18902 0.80756 0.00477 0.0
H276 H 0.28148 0.80927 0.95 0.0
H277 H 0.22479 0.83379 0.93131 0.0
H278 H 0.21019 0.95243 0.03211 0.0
H279 H 0.16747 0.90273 0.01319 0.0
Li280 Li 0.12166 0.50026 0.2698 0.0
Li281 Li 0.14402 0.47655 0.25489 0.0
Li282 Li 0.14812 0.51414 0.2505 0.0
Li283 Li 0.11963 0.49323 0.23488 0.0
C284 C 0.15932 0.5064 0.29089 0.0
N285 N 0.17428 0.52053 0.32605 0.0
C286 C 0.16777 0.4931 0.30315 0.0
C287 C 0.15881 0.52694 0.29644 0.0
C288 C 0.17516 0.50052 0.32088 0.0
C289 C 0.16636 0.53378 0.31428 0.0
C290 C 0.10825 0.45485 0.25742 0.0
C291 C 0.1014 0.42012 0.24574 0.0
N292 N 0.09767 0.41489 0.26311 0.0
C293 C 0.10408 0.44917 0.27511 0.0
C294 C 0.10666 0.44026 0.24257 0.0
C295 C 0.09886 0.42888 0.27772 0.0
C296 C 0.0892 0.5155 0.28931 0.0
N297 N 0.1065 0.50524 0.29105 0.0
C298 C 0.10225 0.50195 0.32326 0.0
C299 C 0.11297 0.49822 0.30753 0.0
C300 C 0.08447 0.51277 0.322 0.0
C301 C 0.07792 0.51949 0.30468 0.0
H302 H 0.08416 0.52058 0.27596 0.0
H303 H 0.12639 0.48956 0.30848 0.0
C304 C 0.17208 0.44644 0.24682 0.0
N305 N 0.15846 0.4527 0.25896 0.0
C306 C 0.1838 0.42993 0.25043 0.0
C307 C 0.16722 0.42656 0.27894 0.0
C308 C 0.15584 0.44311 0.27477 0.0
C309 C 0.1816 0.41987 0.26678 0.0
H310 H 0.17427 0.45459 0.23457 0.0
H311 H 0.14529 0.44867 0.28443 0.0
C312 C 0.11531 0.53965 0.24988 0.0
N313 N 0.10849 0.58054 0.25013 0.0
C314 C 0.10987 0.5485 0.23338 0.0
C315 C 0.11682 0.55154 0.26656 0.0
C316 C 0.10663 0.56921 0.23377 0.0
C317 C 0.11343 0.57219 0.26639 0.0
C318 C 0.15156 0.48538 0.2139 0.0
C319 C 0.16047 0.4992 0.20258 0.0
C320 C 0.14492 0.46604 0.20647 0.0
C321 C 0.16224 0.49354 0.18389 0.0
C322 C 0.14695 0.46095 0.18772 0.0
N323 N 0.15547 0.4747 0.17691 0.0
C324 C 0.18422 0.53949 0.25855 0.0
C325 C 0.16279 0.5485 0.23322 0.0
C326 C 0.19794 0.55576 0.25617 0.0
N327 N 0.16689 0.53637 0.24732 0.0
C328 C 0.17613 0.56486 0.23026 0.0
C329 C 0.19394 0.56872 0.24188 0.0
H330 H 0.18752 0.52925 0.26927 0.0
H331 H 0.14929 0.5453 0.22407 0.0
C332 C 0.08439 0.47929 0.21185 0.0
N333 N 0.10193 0.49112 0.21286 0.0
C334 C 0.07102 0.47861 0.19601 0.0
C335 C 0.09409 0.5022 0.18257 0.0
C336 C 0.10692 0.50248 0.19865 0.0
C337 C 0.07574 0.49028 0.18111 0.0
H338 H 0.08061 0.47065 0.22347 0.0
H339 H 0.12075 0.51206 0.19991 0.0
O340 O 0.15182 0.49932 0.27352 0.0
O341 O 0.11348 0.47463 0.25463 0.0
O342 O 0.11853 0.51936 0.24973 0.0
O343 O 0.14947 0.49074 0.23218 0.0
H344 H 0.16854 0.47721 0.29906 0.0
H345 H 0.15294 0.53754 0.28698 0.0
H346 H 0.1816 0.49036 0.33054 0.0
H347 H 0.16602 0.54964 0.31874 0.0
H348 H 0.10021 0.40867 0.23438 0.0
H349 H 0.10505 0.46028 0.28673 0.0
H350 H 0.10933 0.44445 0.22872 0.0
H351 H 0.09577 0.42425 0.29137 0.0
H352 H 0.108 0.49658 0.3363 0.0
H353 H 0.06411 0.52755 0.30295 0.0
H354 H 0.19495 0.42553 0.24082 0.0
H355 H 0.16491 0.4192 0.29164 0.0
H356 H 0.10832 0.53953 0.22037 0.0
H357 H 0.12032 0.54489 0.27954 0.0
H358 H 0.10261 0.57627 0.22106 0.0
H359 H 0.11463 0.58156 0.2792 0.0
H360 H 0.1659 0.51415 0.20813 0.0
H361 H 0.13834 0.45506 0.2151 0.0
H362 H 0.16899 0.50412 0.17495 0.0
H363 H 0.14178 0.44605 0.18178 0.0
H364 H 0.2117 0.55796 0.2652 0.0
H365 H 0.17245 0.57447 0.21908 0.0
H366 H 0.05693 0.46942 0.19563 0.0
H367 H 0.09853 0.51123 0.17138 0.0
Li368 Li 0.76248 0.63818 0.99224 0.0
Li369 Li 0.77747 0.66877 0.01401 0.0
Li370 Li 0.78246 0.66584 0.98051 0.0
Li371 Li 0.79955 0.64452 1.00004 0.0
C372 C 0.7449 0.67871 0.98143 0.0
N373 N 0.72301 0.70198 0.95775 0.0
C374 C 0.74854 0.69974 0.98234 0.0
C375 C 0.73006 0.66952 0.96857 0.0
C376 C 0.73735 0.71124 0.97021 0.0
C377 C 0.71915 0.68155 0.95671 0.0
C378 C 0.78537 0.62406 0.0272 0.0
C379 C 0.80416 0.61307 0.05409 0.0
N380 N 0.80254 0.59372 0.04649 0.0
C381 C 0.78382 0.60405 0.01969 0.0
C382 C 0.79559 0.62863 0.04456 0.0
C383 C 0.79263 0.58894 0.02964 0.0
C384 C 0.74197 0.60103 0.97853 0.0
N385 N 0.74008 0.6189 0.98836 0.0
C386 C 0.70533 0.60991 0.99304 0.0
C387 C 0.7223 0.6235 0.99568 0.0
C388 C 0.7067 0.59138 0.98277 0.0
C389 C 0.72537 0.58699 0.97552 0.0
H390 H 0.75639 0.59766 0.97307 0.0
H391 H 0.72129 0.63785 0.00346 0.0
C392 C 0.77343 0.70612 0.03468 0.0
N393 N 0.77196 0.68561 0.03519 0.0
C394 C 0.76942 0.71848 0.0502 0.0
C395 C 0.7629 0.68839 0.06662 0.0
C396 C 0.76661 0.67664 0.05066 0.0
C397 C 0.76419 0.70968 0.06659 0.0
H398 H 0.77777 0.71288 0.02221 0.0
H399 H 0.7653 0.6603 0.05064 0.0
C400 C 0.78952 0.6342 0.95784 0.0
N401 N 0.79844 0.6309 0.92109 0.0
C402 C 0.80888 0.64022 0.95274 0.0
C403 C 0.77476 0.62627 0.94428 0.0
C404 C 0.81307 0.63851 0.93408 0.0
C405 C 0.77955 0.62478 0.92576 0.0
C406 C 0.82184 0.67954 0.00824 0.0
C407 C 0.83794 0.67847 0.99665 0.0
C408 C 0.82576 0.6858 0.02695 0.0
C409 C 0.85778 0.68332 0.00405 0.0
C410 C 0.84582 0.69056 0.03381 0.0
N411 N 0.86128 0.68921 0.02233 0.0
C412 C 0.79817 0.69779 0.96004 0.0
C413 C 0.7719 0.67701 0.94364 0.0
C414 C 0.80004 0.70963 0.94482 0.0
N415 N 0.78434 0.68176 0.95916 0.0
C416 C 0.77337 0.68829 0.92807 0.0
C417 C 0.78761 0.70483 0.92852 0.0
H418 H 0.80778 0.7014 0.97256 0.0
H419 H 0.76073 0.66448 0.94333 0.0
C420 C 0.82701 0.61398 0.99291 0.0
N421 N 0.82361 0.62973 0.00505 0.0
C422 C 0.84292 0.60134 0.9966 0.0
C423 C 0.85164 0.62128 0.02526 0.0
C424 C 0.83564 0.6336 0.02096 0.0
C425 C 0.85534 0.60477 0.01307 0.0
H426 H 0.81696 0.61078 0.98062 0.0
H427 H 0.83239 0.64578 0.0307 0.0
O428 O 0.75595 0.66715 0.99295 0.0
O429 O 0.77737 0.63912 0.01738 0.0
O430 O 0.7851 0.63594 0.97603 0.0
O431 O 0.8023 0.67494 1.00123 0.0
H432 H 0.76008 0.70706 0.9921 0.0
H433 H 0.72716 0.65325 0.96759 0.0
H434 H 0.74011 0.72751 0.97065 0.0
H435 H 0.70769 0.67464 0.94663 0.0
H436 H 0.81225 0.61641 0.06747 0.0
H437 H 0.77617 0.6003 0.00619 0.0
H438 H 0.79728 0.64408 0.05044 0.0
H439 H 0.79166 0.57341 0.02394 0.0
H440 H 0.69119 0.61401 0.9987 0.0
H441 H 0.72718 0.57278 0.96775 0.0
H442 H 0.77027 0.73475 0.04926 0.0
H443 H 0.75934 0.68076 0.07889 0.0
H444 H 0.82052 0.64617 0.96309 0.0
H445 H 0.75965 0.62166 0.94795 0.0
H446 H 0.82796 0.64321 0.92993 0.0
H447 H 0.76823 0.61883 0.9151 0.0
H448 H 0.83514 0.67399 0.98208 0.0
H449 H 0.81352 0.68674 0.03613 0.0
H450 H 0.8704 0.68247 0.99526 0.0
H451 H 0.8491 0.69529 0.04829 0.0
H452 H 0.81127 0.72222 0.94572 0.0
H453 H 0.76328 0.68427 0.91589 0.0
H454 H 0.84501 0.58858 0.98697 0.0
H455 H 0.86087 0.62449 0.0381 0.0
Li456 Li 0.90025 0.03966 0.25417 0.0
Li457 Li 0.9251 0.01943 0.26839 0.0
Li458 Li 0.92507 0.02566 0.23389 0.0
Li459 Li 0.89816 0.00329 0.24743 0.0
C460 C 0.93324 0.0657 0.25891 0.0
N461 N 0.93892 0.10729 0.26485 0.0
C462 C 0.929 0.07522 0.27586 0.0
C463 C 0.9404 0.07735 0.24498 0.0
C464 C 0.93193 0.09626 0.27859 0.0
C465 C 0.94318 0.09835 0.24826 0.0
C466 C 0.89472 0.01521 0.28976 0.0
C467 C 0.89638 0.99306 0.31499 0.0
N468 N 0.89437 0.00918 0.32715 0.0
C469 C 0.89261 0.03155 0.30251 0.0
C470 C 0.89653 0.99579 0.29605 0.0
C471 C 0.89248 0.02819 0.32135 0.0
C472 C 0.86651 0.05837 0.26797 0.0
N473 N 0.88291 0.06209 0.25799 0.0
C474 C 0.87363 0.0963 0.25482 0.0
C475 C 0.88628 0.08047 0.25093 0.0
C476 C 0.85708 0.09311 0.2658 0.0
C477 C 0.85343 0.07369 0.27211 0.0
H478 H 0.86356 0.04342 0.27275 0.0
H479 H 0.89881 0.08293 0.24231 0.0
C480 C 0.95433 0.99913 0.28984 0.0
N481 N 0.94267 0.01549 0.28994 0.0
C482 C 0.96647 0.99518 0.30559 0.0
C483 C 0.95463 0.02515 0.32123 0.0
C484 C 0.94295 0.02864 0.30512 0.0
C485 C 0.96658 0.00817 0.32169 0.0
H486 H 0.95421 0.98909 0.27753 0.0
H487 H 0.9338 0.04166 0.3049 0.0
C488 C 0.88072 0.0356 0.22139 0.0
N489 N 0.85124 0.05922 0.20657 0.0
C490 C 0.86027 0.03151 0.2245 0.0
C491 C 0.8862 0.05158 0.21065 0.0
C492 C 0.84559 0.04367 0.21692 0.0
C493 C 0.87105 0.06336 0.20329 0.0
C494 C 0.92949 0.97992 0.24119 0.0
C495 C 0.93489 0.97463 0.22328 0.0
C496 C 0.92522 0.9647 0.25315 0.0
C497 C 0.93564 0.95417 0.21753 0.0
C498 C 0.9261 0.94441 0.24688 0.0
N499 N 0.93123 0.93961 0.22934 0.0
C500 C 0.96096 0.03536 0.21582 0.0
C501 C 0.9326 0.02302 0.19591 0.0
C502 C 0.97304 0.03687 0.20074 0.0
N503 N 0.94113 0.02858 0.21314 0.0
C504 C 0.94418 0.02402 0.18047 0.0
C505 C 0.96476 0.03102 0.18272 0.0
H506 H 0.96739 0.03958 0.2297 0.0
H507 H 0.91685 0.01742 0.19421 0.0
C508 C 0.86611 0.97528 0.25429 0.0
N509 N 0.88005 0.97993 0.24197 0.0
C510 C 0.8527 0.95827 0.2508 0.0
C511 C 0.86796 0.95133 0.22182 0.0
C512 C 0.88095 0.96859 0.22579 0.0
C513 C 0.85362 0.94596 0.23444 0.0
H514 H 0.86531 0.98483 0.26681 0.0
H515 H 0.89174 0.97297 0.21596 0.0
O516 O 0.93061 0.0451 0.25599 0.0
O517 O 0.89513 0.01821 0.27125 0.0
O518 O 0.89534 0.02427 0.22915 0.0
O519 O 0.92841 0.99988 0.24698 0.0
H520 H 0.92308 0.06653 0.28665 0.0
H521 H 0.9436 0.0703 0.23172 0.0
H522 H 0.92857 0.10382 0.29159 0.0
H523 H 0.94866 0.10755 0.23759 0.0
H524 H 0.89786 0.97812 0.32003 0.0
H525 H 0.8915 0.04675 0.298 0.0
H526 H 0.89811 0.98295 0.28641 0.0
H527 H 0.891 0.04073 0.33136 0.0
H528 H 0.87702 0.11096 0.24954 0.0
H529 H 0.8405 0.07029 0.2801 0.0
H530 H 0.97575 0.98215 0.3051 0.0
H531 H 0.95398 0.0355 0.3333 0.0
H532 H 0.85585 0.01923 0.23287 0.0
H533 H 0.902 0.05498 0.20825 0.0
H534 H 0.82971 0.0408 0.21931 0.0
H535 H 0.87506 0.07587 0.19505 0.0
H536 H 0.93838 0.98617 0.21387 0.0
H537 H 0.92118 0.9685 0.2671 0.0
H538 H 0.9397 0.94987 0.20367 0.0
H539 H 0.9227 0.93249 0.25596 0.0
H540 H 0.98868 0.04268 0.20323 0.0
H541 H 0.93715 0.01895 0.16697 0.0
H542 H 0.84187 0.95467 0.2609 0.0
H543 H 0.86891 0.94246 0.20888 0.0
Li544 Li 0.27601 0.16772 0.51547 0.0
Li545 Li 0.26043 0.14013 0.49422 0.0
Li546 Li 0.29851 0.14309 0.50226 0.0
Li547 Li 0.28211 0.16638 0.48122 0.0
C548 C 0.27392 0.13532 0.53676 0.0
N549 N 0.27013 0.13033 0.57397 0.0
C550 C 0.25526 0.12865 0.54296 0.0
C551 C 0.29074 0.13913 0.54944 0.0
C552 C 0.25362 0.12631 0.56184 0.0
C553 C 0.2885 0.13661 0.5682 0.0
C554 C 0.23666 0.17193 0.48724 0.0
C555 C 0.21054 0.16887 0.46224 0.0
N556 N 0.19694 0.17602 0.47402 0.0
C557 C 0.22249 0.17946 0.49906 0.0
C558 C 0.23071 0.16677 0.46865 0.0
C559 C 0.20246 0.18133 0.49213 0.0
C560 C 0.2851 0.19986 0.54314 0.0
N561 N 0.27139 0.18453 0.53701 0.0
C562 C 0.25078 0.19207 0.56226 0.0
C563 C 0.25434 0.18064 0.54608 0.0
C564 C 0.26482 0.20783 0.56912 0.0
C565 C 0.28213 0.21174 0.55925 0.0
H566 H 0.29835 0.20291 0.53551 0.0
H567 H 0.24353 0.16854 0.54079 0.0
C568 C 0.23909 0.10446 0.47854 0.0
N569 N 0.23737 0.12152 0.4896 0.0
C570 C 0.22265 0.09027 0.47521 0.0
C571 C 0.20301 0.11138 0.49486 0.0
C572 C 0.21985 0.12511 0.49785 0.0
C573 C 0.20427 0.09363 0.48342 0.0
H574 H 0.25333 0.10173 0.47247 0.0
H575 H 0.219 0.13854 0.50694 0.0
C576 C 0.32192 0.17883 0.5069 0.0
N577 N 0.36278 0.18959 0.51444 0.0
C578 C 0.3337 0.18556 0.49289 0.0
C579 C 0.33087 0.17784 0.5248 0.0
C580 C 0.35434 0.19087 0.49697 0.0
C581 C 0.35156 0.18326 0.52832 0.0
C582 C 0.28709 0.13055 0.4601 0.0
C583 C 0.30677 0.12596 0.45579 0.0
C584 C 0.27135 0.12892 0.44616 0.0
C585 C 0.31045 0.12021 0.4375 0.0
C586 C 0.27564 0.12314 0.42803 0.0
N587 N 0.29495 0.11897 0.42411 0.0
C588 C 0.31789 0.11042 0.51689 0.0
C589 C 0.34036 0.13192 0.50176 0.0
C590 C 0.33354 0.09768 0.52113 0.0
N591 N 0.32153 0.12723 0.50747 0.0
C592 C 0.35651 0.11965 0.5058 0.0
C593 C 0.35317 0.10222 0.51557 0.0
H594 H 0.30274 0.10681 0.52103 0.0
H595 H 0.34283 0.14496 0.49379 0.0
C596 C 0.27223 0.19747 0.45759 0.0
N597 N 0.28498 0.18218 0.46001 0.0
C598 C 0.27318 0.20902 0.44211 0.0
C599 C 0.30072 0.18927 0.43208 0.0
C600 C 0.29926 0.17814 0.44777 0.0
C601 C 0.28748 0.20489 0.42901 0.0
H602 H 0.26122 0.20067 0.46764 0.0
H603 H 0.30968 0.1664 0.45022 0.0
O604 O 0.27575 0.13796 0.51835 0.0
O605 O 0.25629 0.16977 0.49383 0.0
O606 O 0.3017 0.17352 0.50313 0.0
O607 O 0.28323 0.13622 0.47795 0.0
H608 H 0.24213 0.12547 0.53333 0.0
H609 H 0.30538 0.1439 0.54483 0.0
H610 H 0.23922 0.1213 0.56685 0.0
H611 H 0.30137 0.1396 0.57818 0.0
H612 H 0.20572 0.16485 0.44789 0.0
H613 H 0.22688 0.18374 0.51344 0.0
H614 H 0.24156 0.16131 0.45925 0.0
H615 H 0.1913 0.18702 0.50114 0.0
H616 H 0.23732 0.18838 0.56946 0.0
H617 H 0.29317 0.22396 0.56382 0.0
H618 H 0.22446 0.07664 0.46657 0.0
H619 H 0.18913 0.11471 0.50137 0.0
H620 H 0.327 0.18662 0.47901 0.0
H621 H 0.32194 0.173 0.53588 0.0
H622 H 0.36365 0.196 0.48623 0.0
H623 H 0.35869 0.18247 0.5421 0.0
H624 H 0.3191 0.12699 0.46641 0.0
H625 H 0.25595 0.13193 0.4493 0.0
H626 H 0.32563 0.11677 0.43395 0.0
H627 H 0.26362 0.1219 0.41709 0.0
H628 H 0.33031 0.08446 0.52878 0.0
H629 H 0.37133 0.12351 0.50097 0.0
H630 H 0.2626 0.22084 0.44029 0.0
H631 H 0.31226 0.18583 0.42256 0.0
Li632 Li 0.42553 0.51848 0.76692 0.0
Li633 Li 0.40077 0.54077 0.75306 0.0
Li634 Li 0.39815 0.50272 0.74576 0.0
Li635 Li 0.42434 0.52416 0.73245 0.0
C636 C 0.39256 0.51538 0.78782 0.0
N637 N 0.38695 0.50935 0.8246 0.0
C638 C 0.38664 0.53122 0.79957 0.0
C639 C 0.39526 0.49637 0.79473 0.0
C640 C 0.38396 0.5279 0.81813 0.0
C641 C 0.39247 0.49365 0.81337 0.0
C642 C 0.43736 0.56395 0.75678 0.0
C643 C 0.44291 0.59686 0.74482 0.0
N644 N 0.44985 0.60449 0.76203 0.0
C645 C 0.44483 0.57206 0.77429 0.0
C646 C 0.43663 0.57639 0.74187 0.0
C647 C 0.45096 0.59262 0.77669 0.0
C648 C 0.45674 0.50045 0.78802 0.0
N649 N 0.44261 0.51469 0.78868 0.0
C650 C 0.45151 0.52251 0.82092 0.0
C651 C 0.44006 0.5259 0.80463 0.0
C652 C 0.46595 0.50764 0.82075 0.0
C653 C 0.46866 0.49667 0.80396 0.0
H654 H 0.45867 0.4919 0.77513 0.0
H655 H 0.42903 0.53742 0.80476 0.0
C656 C 0.36809 0.56632 0.74699 0.0
N657 N 0.38542 0.56421 0.75773 0.0
C658 C 0.35582 0.5825 0.75064 0.0
C659 C 0.3793 0.59401 0.77649 0.0
C660 C 0.39118 0.57768 0.77225 0.0
C661 C 0.36124 0.59655 0.76569 0.0
H662 H 0.36356 0.55521 0.73575 0.0
H663 H 0.40461 0.57535 0.78101 0.0
C664 C 0.42949 0.47832 0.74158 0.0
N665 N 0.43205 0.43718 0.73367 0.0
C666 C 0.43389 0.471 0.72387 0.0
C667 C 0.42678 0.46473 0.75535 0.0
C668 C 0.43503 0.45015 0.72012 0.0
C669 C 0.42801 0.44399 0.75106 0.0
C670 C 0.38866 0.5307 0.71152 0.0
C671 C 0.37942 0.5165 0.69814 0.0
C672 C 0.39202 0.5508 0.70711 0.0
C673 C 0.37412 0.52256 0.68042 0.0
C674 C 0.38649 0.55627 0.68925 0.0
N675 N 0.37777 0.54215 0.67637 0.0
C676 C 0.36594 0.47507 0.75326 0.0
C677 C 0.38092 0.46751 0.72499 0.0
C678 C 0.35262 0.45794 0.75018 0.0
N679 N 0.37986 0.4794 0.74083 0.0
C680 C 0.36787 0.45025 0.72133 0.0
C681 C 0.35351 0.44523 0.73405 0.0
H682 H 0.36506 0.48498 0.76554 0.0
H683 H 0.3919 0.47142 0.71518 0.0
C684 C 0.45775 0.53842 0.71271 0.0
N685 N 0.43996 0.52693 0.71117 0.0
C686 C 0.46951 0.54012 0.69742 0.0
C687 C 0.44459 0.51794 0.6793 0.0
C688 C 0.43331 0.51673 0.69489 0.0
C689 C 0.46301 0.52971 0.68043 0.0
H690 H 0.46295 0.54608 0.72589 0.0
H691 H 0.4194 0.50731 0.69407 0.0
O692 O 0.39552 0.51845 0.76965 0.0
O693 O 0.43124 0.54386 0.75421 0.0
O694 O 0.42806 0.49869 0.74544 0.0
O695 O 0.3941 0.52499 0.72891 0.0
H696 H 0.38418 0.54595 0.79446 0.0
H697 H 0.39942 0.48384 0.7858 0.0
H698 H 0.37951 0.54008 0.82739 0.0
H699 H 0.39464 0.47904 0.81891 0.0
H700 H 0.44234 0.60666 0.73341 0.0
H701 H 0.44577 0.56263 0.78594 0.0
H702 H 0.43149 0.57027 0.72813 0.0
H703 H 0.45661 0.59912 0.7902 0.0
H704 H 0.44919 0.53156 0.83348 0.0
H705 H 0.4796 0.48503 0.80324 0.0
H706 H 0.34217 0.58391 0.74179 0.0
H707 H 0.38391 0.60415 0.78847 0.0
H708 H 0.43632 0.48125 0.71311 0.0
H709 H 0.42384 0.47012 0.76921 0.0
H710 H 0.43827 0.44428 0.70644 0.0
H711 H 0.42582 0.43331 0.76157 0.0
H712 H 0.37647 0.50094 0.70135 0.0
H713 H 0.3986 0.5621 0.71742 0.0
H714 H 0.3671 0.51168 0.66989 0.0
H715 H 0.38907 0.57177 0.68565 0.0
H716 H 0.34154 0.45485 0.76019 0.0
H717 H 0.36917 0.44083 0.70877 0.0
H718 H 0.48375 0.54913 0.69901 0.0
H719 H 0.43891 0.50976 0.66647 0.0
Li720 Li 0.77572 0.39055 0.50525 0.0
Li721 Li 0.76021 0.36429 0.52272 0.0
Li722 Li 0.75479 0.36243 0.48963 0.0
Li723 Li 0.73743 0.38763 0.50879 0.0
C724 C 0.79855 0.35843 0.49587 0.0
N725 N 0.83411 0.35327 0.47837 0.0
C726 C 0.81465 0.34902 0.50469 0.0
C727 C 0.80051 0.36515 0.47815 0.0
C728 C 0.83251 0.34657 0.49562 0.0
C729 C 0.8186 0.36242 0.46953 0.0
C730 C 0.76221 0.39581 0.54655 0.0
C731 C 0.74735 0.39381 0.57595 0.0
N732 N 0.76614 0.39734 0.58476 0.0
C733 C 0.78136 0.39952 0.55586 0.0
C734 C 0.74503 0.39301 0.55663 0.0
C735 C 0.78304 0.40021 0.5752 0.0
C736 C 0.79568 0.42479 0.49222 0.0
N737 N 0.7983 0.40901 0.50312 0.0
C738 C 0.83361 0.41874 0.50908 0.0
C739 C 0.81671 0.40588 0.51169 0.0
C740 C 0.83148 0.43492 0.49753 0.0
C741 C 0.81215 0.43796 0.48919 0.0
H742 H 0.78081 0.42702 0.48574 0.0
H743 H 0.81834 0.39321 0.52031 0.0
C744 C 0.74861 0.34091 0.55252 0.0
N745 N 0.76462 0.34955 0.54438 0.0
C746 C 0.75189 0.33023 0.56839 0.0
C747 C 0.788 0.338 0.56749 0.0
C748 C 0.78403 0.3484 0.55157 0.0
C749 C 0.77182 0.32862 0.57608 0.0
H750 H 0.73328 0.34232 0.54669 0.0
H751 H 0.7964 0.35585 0.54507 0.0
C752 C 0.74546 0.39595 0.46881 0.0
N753 N 0.73067 0.40421 0.43366 0.0
C754 C 0.72451 0.39654 0.46465 0.0
C755 C 0.75889 0.39995 0.45515 0.0
C756 C 0.71733 0.40064 0.44679 0.0
C757 C 0.75112 0.40396 0.43745 0.0
C758 C 0.72833 0.33739 0.50694 0.0
C759 C 0.74321 0.32309 0.50769 0.0
C760 C 0.70779 0.33088 0.50493 0.0
C761 C 0.73727 0.30248 0.50642 0.0
C762 C 0.70245 0.31012 0.50372 0.0
N763 N 0.71718 0.29647 0.50448 0.0
C764 C 0.7653 0.32865 0.46676 0.0
C765 C 0.73749 0.34565 0.45407 0.0
C766 C 0.76475 0.31534 0.45104 0.0
N767 N 0.75217 0.34384 0.46784 0.0
C768 C 0.7364 0.33268 0.43804 0.0
C769 C 0.75033 0.31741 0.43627 0.0
H770 H 0.77634 0.32683 0.4781 0.0
H771 H 0.72652 0.35706 0.4555 0.0
C772 C 0.71863 0.42233 0.52081 0.0
N773 N 0.71451 0.40336 0.51279 0.0
C774 C 0.70282 0.43468 0.5251 0.0
C775 C 0.67872 0.40788 0.51247 0.0
C776 C 0.69504 0.39592 0.50864 0.0
C777 C 0.68255 0.42749 0.52094 0.0
H778 H 0.73426 0.4278 0.52404 0.0
H779 H 0.69221 0.38069 0.50241 0.0
O780 O 0.78115 0.36145 0.50476 0.0
O781 O 0.76032 0.39447 0.52763 0.0
O782 O 0.75275 0.39219 0.48632 0.0
O783 O 0.73373 0.35768 0.50794 0.0
H784 H 0.8134 0.34368 0.5184 0.0
H785 H 0.78815 0.37231 0.47114 0.0
H786 H 0.84512 0.33935 0.50229 0.0
H787 H 0.82031 0.36757 0.4558 0.0
H788 H 0.73421 0.39154 0.58395 0.0
H789 H 0.7948 0.40164 0.54822 0.0
H790 H 0.73012 0.38999 0.54959 0.0
H791 H 0.79777 0.40296 0.58261 0.0
H792 H 0.84827 0.41576 0.51568 0.0
H793 H 0.80976 0.45044 0.48044 0.0
H794 H 0.73895 0.32313 0.57442 0.0
H795 H 0.80356 0.33757 0.57313 0.0
H796 H 0.71388 0.39353 0.475 0.0
H797 H 0.77517 0.40013 0.45816 0.0
H798 H 0.70115 0.40095 0.44336 0.0
H799 H 0.76135 0.40698 0.42674 0.0
H800 H 0.75919 0.32782 0.50925 0.0
H801 H 0.69608 0.34175 0.50428 0.0
H802 H 0.74862 0.29126 0.50698 0.0
H803 H 0.6866 0.30486 0.50215 0.0
H804 H 0.77577 0.30377 0.45034 0.0
H805 H 0.72465 0.33448 0.42721 0.0
H806 H 0.70641 0.44976 0.53146 0.0
H807 H 0.66329 0.40176 0.50916 0.0
Li808 Li 0.64704 0.97797 0.75578 0.0
Li809 Li 0.62253 0.9989 0.76969 0.0
Li810 Li 0.62181 0.99328 0.73622 0.0
Li811 Li 0.64889 0.01419 0.75252 0.0
C812 C 0.61125 0.95792 0.76583 0.0
N813 N 0.5997 0.92785 0.78845 0.0
C814 C 0.62303 0.95489 0.78204 0.0
C815 C 0.59361 0.94564 0.76111 0.0
C816 C 0.61694 0.93962 0.7933 0.0
C817 C 0.58801 0.93053 0.77273 0.0
C818 C 0.658 0.01368 0.79017 0.0
C819 C 0.65296 0.04492 0.80777 0.0
N820 N 0.66923 0.04153 0.81945 0.0
C821 C 0.67463 0.01048 0.80237 0.0
C822 C 0.64703 0.03102 0.79291 0.0
C823 C 0.68008 0.02474 0.81708 0.0
C824 C 0.68206 0.95945 0.76805 0.0
N825 N 0.66339 0.95528 0.75922 0.0
C826 C 0.66877 0.91977 0.75771 0.0
C827 C 0.65661 0.93593 0.75391 0.0
C828 C 0.68797 0.92361 0.7672 0.0
C829 C 0.69462 0.94379 0.77225 0.0
H830 H 0.6871 0.975 0.77198 0.0
H831 H 0.64164 0.93298 0.74701 0.0
C832 C 0.58767 0.01037 0.78766 0.0
N833 N 0.60607 0.00226 0.7903 0.0
C834 C 0.57529 0.01313 0.80246 0.0
C835 C 0.60095 0.99891 0.82234 0.0
C836 C 0.61288 0.99659 0.80721 0.0
C837 C 0.58187 0.00735 0.82013 0.0
H838 H 0.58264 0.01474 0.77405 0.0
H839 H 0.62759 0.99022 0.80899 0.0
C840 C 0.65493 0.97831 0.71896 0.0
N841 N 0.66186 0.9501 0.6907 0.0
C842 C 0.67122 0.98148 0.70787 0.0
C843 C 0.64212 0.96081 0.71563 0.0
C844 C 0.67448 0.96703 0.69366 0.0
C845 C 0.64589 0.94673 0.70129 0.0
C846 C 0.61507 0.03424 0.73926 0.0
C847 C 0.62672 0.03723 0.72411 0.0
C848 C 0.59893 0.0466 0.74244 0.0
C849 C 0.62198 0.05252 0.71235 0.0
C850 C 0.59466 0.06173 0.73036 0.0
N851 N 0.60618 0.06435 0.71569 0.0
C852 C 0.58459 0.98384 0.71503 0.0
C853 C 0.61146 0.99608 0.69782 0.0
C854 C 0.57114 0.98274 0.69924 0.0
N855 N 0.60429 0.99052 0.71405 0.0
C856 C 0.59853 0.99538 0.68176 0.0
C857 C 0.578 0.98871 0.68231 0.0
H858 H 0.57929 0.97958 0.72814 0.0
H859 H 0.62716 1.00143 0.69738 0.0
C860 C 0.68489 0.03394 0.74277 0.0
N861 N 0.6672 0.03718 0.75084 0.0
C862 C 0.6984 0.05022 0.73995 0.0
C863 C 0.67551 0.07284 0.75432 0.0
C864 C 0.66233 0.05613 0.75666 0.0
C865 C 0.69371 0.06998 0.74569 0.0
H866 H 0.68838 0.0187 0.73832 0.0
H867 H 0.64802 0.05837 0.76278 0.0
O868 O 0.61683 0.97278 0.75453 0.0
O869 O 0.65251 0.99976 0.77576 0.0
O870 O 0.6516 0.9924 0.7329 0.0
O871 O 0.61934 0.01935 0.751 0.0
H872 H 0.63676 0.96419 0.78591 0.0
H873 H 0.58434 0.94778 0.74858 0.0
H874 H 0.62592 0.93712 0.80589 0.0
H875 H 0.57439 0.92092 0.76925 0.0
H876 H 0.64461 0.0584 0.81004 0.0
H877 H 0.68323 0.99709 0.80054 0.0
H878 H 0.63404 0.03374 0.78373 0.0
H879 H 0.69293 0.02245 0.82662 0.0
H880 H 0.66302 0.90442 0.75369 0.0
H881 H 0.70944 0.94743 0.77932 0.0
H882 H 0.56083 0.01994 0.80012 0.0
H883 H 0.60656 0.99391 0.83557 0.0
H884 H 0.68122 0.99498 0.71019 0.0
H885 H 0.62935 0.9581 0.72393 0.0
H886 H 0.68704 0.9693 0.68498 0.0
H887 H 0.63611 0.93312 0.69858 0.0
H888 H 0.6393 0.02787 0.72144 0.0
H889 H 0.58979 0.04453 0.75413 0.0
H890 H 0.63087 0.05497 0.70057 0.0
H891 H 0.5822 0.0714 0.73265 0.0
H892 H 0.55554 0.97723 0.70031 0.0
H893 H 0.60449 1.00047 0.66916 0.0
H894 H 0.71238 0.0474 0.7334 0.0
H895 H 0.67127 0.08787 0.75876 0.0
Li896 Li 0.04168 0.2535 0.86248 0.0
Li897 Li 0.01926 0.26845 0.8864 0.0
Li898 Li 0.02628 0.2329 0.88518 0.0
Li899 Li 0.00351 0.24526 0.862 0.0
C900 C 0.05824 0.25085 0.9041 0.0
N901 N 0.08129 0.23708 0.93343 0.0
C902 C 0.05257 0.25445 0.9222 0.0
C903 C 0.07569 0.2404 0.9009 0.0
C904 C 0.06441 0.24732 0.93685 0.0
C905 C 0.08714 0.23354 0.91592 0.0
C906 C 0.01747 0.2921 0.8577 0.0
C907 C 0.99893 0.32257 0.85961 0.0
N908 N 0.01591 0.33354 0.85562 0.0
C909 C 0.0347 0.30365 0.85352 0.0
C910 C 0.99939 0.30159 0.86066 0.0
C911 C 0.03361 0.32459 0.85255 0.0
C912 C 0.06062 0.25347 0.82897 0.0
N913 N 0.06373 0.25839 0.84743 0.0
C914 C 0.09751 0.2715 0.84347 0.0
C915 C 0.08172 0.26719 0.85486 0.0
C916 C 0.09471 0.26673 0.82427 0.0
C917 C 0.07598 0.25747 0.81709 0.0
H918 H 0.04611 0.24652 0.82348 0.0
H919 H 0.08367 0.27118 0.86958 0.0
C920 C 1.00071 0.29003 0.91468 0.0
N921 N 0.01552 0.29166 0.90258 0.0
C922 C 0.99709 0.30639 0.92686 0.0
C923 C 0.0243 0.32579 0.91419 0.0
C924 C 0.02752 0.30895 0.90235 0.0
C925 C 0.00883 0.32468 0.92664 0.0
H926 H 0.99181 0.27593 0.91505 0.0
H927 H 0.03956 0.3097 0.89294 0.0
C928 C 0.03032 0.20711 0.85537 0.0
N929 N 0.03897 0.16683 0.85039 0.0
C930 C 0.01623 0.19192 0.85965 0.0
C931 C 0.04878 0.20183 0.84847 0.0
C932 C 0.02091 0.17163 0.85708 0.0
C933 C 0.05287 0.18137 0.84605 0.0
C934 C 0.97984 0.24005 0.88896 0.0
C935 C 0.97309 0.22015 0.89165 0.0
C936 C 0.96564 0.25468 0.88591 0.0
C937 C 0.9522 0.2152 0.89113 0.0
C938 C 0.94489 0.24911 0.88545 0.0
N939 N 0.93866 0.22965 0.88804 0.0
C940 C 0.02085 0.21133 0.91689 0.0
C941 C 0.04606 0.19789 0.89856 0.0
C942 C 0.0242 0.19695 0.92991 0.0
N943 N 0.03155 0.21144 0.90146 0.0
C944 C 0.04974 0.18309 0.91113 0.0
C945 C 0.03874 0.18251 0.92706 0.0
H946 H 0.00988 0.22265 0.91923 0.0
H947 H 0.0551 0.19879 0.88672 0.0
C948 C 0.97469 0.25502 0.83396 0.0
N949 N 0.97982 0.24018 0.84527 0.0
C950 C 0.9574 0.25242 0.82172 0.0
C951 C 0.95102 0.21917 0.83279 0.0
C952 C 0.96855 0.22235 0.84469 0.0
C953 C 0.94518 0.23435 0.8211 0.0
H954 H 0.98409 0.26889 0.83434 0.0
H955 H 0.97299 0.21063 0.85359 0.0
O956 O 0.04649 0.25713 0.88956 0.0
O957 O 0.01829 0.27159 0.85886 0.0
O958 O 0.02604 0.22705 0.85773 0.0
O959 O 1.00023 0.24518 0.88921 0.0
H960 H 0.03903 0.26244 0.92487 0.0
H961 H 0.08016 0.23735 0.88693 0.0
H962 H 0.06014 0.24985 0.95093 0.0
H963 H 0.1006 0.22529 0.91366 0.0
H964 H 0.98508 0.33012 0.86198 0.0
H965 H 0.0488 0.29658 0.85114 0.0
H966 H 0.9859 0.29288 0.86384 0.0
H967 H 0.04686 0.33373 0.8494 0.0
H968 H 0.11157 0.27891 0.84958 0.0
H969 H 0.07322 0.2533 0.80243 0.0
H970 H 0.98539 0.30457 0.93654 0.0
H971 H 0.03372 0.33956 0.91347 0.0
H972 H 0.00201 0.19574 0.86523 0.0
H973 H 0.05987 0.21341 0.84511 0.0
H974 H 0.01021 0.15972 0.86047 0.0
H975 H 0.06711 0.17706 0.84077 0.0
H976 H 0.98381 0.20857 0.89384 0.0
H977 H 0.97058 0.27014 0.88382 0.0
H978 H 0.94677 0.19984 0.89308 0.0
H979 H 0.93375 0.26026 0.88301 0.0
H980 H 0.01542 0.19706 0.94204 0.0
H981 H 0.06142 0.17251 0.90864 0.0
H982 H 0.9538 0.26438 0.8127 0.0
H983 H 0.942 0.20506 0.83296 0.0
Li984 Li 0.54316 0.75808 0.36153 0.0
Li985 Li 0.52095 0.77358 0.38426 0.0
Li986 Li 0.52847 0.73719 0.38571 0.0
Li987 Li 0.50609 0.74942 0.3611 0.0
C988 C 0.56179 0.7667 0.40295 0.0
N989 N 0.59021 0.77726 0.43206 0.0
C990 C 0.5556 0.7746 0.41989 0.0
C991 C 0.58244 0.76415 0.40085 0.0
C992 C 0.5702 0.77985 0.43443 0.0
C993 C 0.59657 0.76957 0.41573 0.0
C994 C 0.51795 0.79604 0.3555 0.0
C995 C 0.49779 0.82538 0.35808 0.0
N996 N 0.51396 0.83725 0.35361 0.0
C997 C 0.53429 0.80851 0.35077 0.0
C998 C 0.49948 0.80451 0.35901 0.0
C999 C 0.532 0.82931 0.34994 0.0
C1000 C 0.56673 0.75137 0.33057 0.0
N1001 N 0.56591 0.76245 0.3469 0.0
C1002 C 0.59683 0.78111 0.34174 0.0
C1003 C 0.58056 0.77707 0.35265 0.0
C1004 C 0.59811 0.76985 0.32484 0.0
C1005 C 0.58288 0.75471 0.31935 0.0
H1006 H 0.55471 0.74009 0.32613 0.0
H1007 H 0.57939 0.78585 0.36558 0.0
C1008 C 0.50115 0.7967 0.41061 0.0
N1009 N 0.51695 0.79746 0.39949 0.0
C1010 C 0.49767 0.81325 0.42259 0.0
C1011 C 0.52682 0.83122 0.4115 0.0
C1012 C 0.52983 0.8142 0.3998 0.0
C1013 C 0.51056 0.83087 0.42316 0.0
H1014 H 0.49144 0.78305 0.41046 0.0
H1015 H 0.54252 0.81427 0.39107 0.0
C1016 C 0.54191 0.71577 0.35499 0.0
N1017 N 0.56909 0.6863 0.34789 0.0
C1018 C 0.53676 0.70004 0.34152 0.0
C1019 C 0.56085 0.71648 0.36489 0.0
C1020 C 0.55072 0.68529 0.33812 0.0
C1021 C 0.57439 0.70145 0.36109 0.0
C1022 C 0.48235 0.7435 0.38838 0.0
C1023 C 0.47729 0.72378 0.39302 0.0
C1024 C 0.46687 0.75632 0.38369 0.0
C1025 C 0.45683 0.71708 0.39258 0.0
C1026 C 0.44659 0.74904 0.38337 0.0
N1027 N 0.44203 0.72973 0.38777 0.0
C1028 C 0.54295 0.71969 0.41874 0.0
C1029 C 0.52661 0.69627 0.39591 0.0
C1030 C 0.54593 0.70431 0.4308 0.0
N1031 N 0.5334 0.71551 0.40167 0.0
C1032 C 0.52903 0.68041 0.40765 0.0
C1033 C 0.53872 0.68433 0.42546 0.0
H1034 H 0.5481 0.73499 0.42316 0.0
H1035 H 0.51886 0.69332 0.38234 0.0
C1036 C 0.4762 0.75695 0.33327 0.0
N1037 N 0.4826 0.74266 0.34467 0.0
C1038 C 0.45881 0.7531 0.32135 0.0
C1039 C 0.455 0.71971 0.33284 0.0
C1040 C 0.47262 0.72416 0.34446 0.0
C1041 C 0.4478 0.73435 0.32112 0.0
H1042 H 0.48463 0.77137 0.33338 0.0
H1043 H 0.4782 0.71294 0.35347 0.0
O1044 O 0.54779 0.76175 0.38842 0.0
O1045 O 0.51999 0.77565 0.35662 0.0
O1046 O 0.52836 0.73028 0.35846 0.0
O1047 O 0.50233 0.75025 0.38847 0.0
H1048 H 0.53967 0.77631 0.42193 0.0
H1049 H 0.58754 0.75799 0.38789 0.0
H1050 H 0.5656 0.78592 0.44762 0.0
H1051 H 0.6126 0.76767 0.41428 0.0
H1052 H 0.48363 0.83214 0.36091 0.0
H1053 H 0.54861 0.80224 0.34778 0.0
H1054 H 0.48663 0.79511 0.36257 0.0
H1055 H 0.54456 0.83914 0.34638 0.0
H1056 H 0.60832 0.79286 0.3465 0.0
H1057 H 0.58319 0.74587 0.30631 0.0
H1058 H 0.48528 0.81202 0.43163 0.0
H1059 H 0.53709 0.84449 0.41138 0.0
H1060 H 0.52212 0.69927 0.33378 0.0
H1061 H 0.56504 0.72846 0.37542 0.0
H1062 H 0.54694 0.67304 0.32772 0.0
H1063 H 0.5891 0.70182 0.36864 0.0
H1064 H 0.48902 0.71372 0.39686 0.0
H1065 H 0.47046 0.77166 0.3802 0.0
H1066 H 0.45271 0.70181 0.39604 0.0
H1067 H 0.43447 0.75875 0.37962 0.0
H1068 H 0.55387 0.7081 0.4442 0.0
H1069 H 0.52295 0.66535 0.40294 0.0
H1070 H 0.45418 0.76467 0.31226 0.0
H1071 H 0.44697 0.70509 0.33325 0.0
Li1072 Li 0.0199 0.77795 0.61231 0.0
Li1073 Li 0.9987 0.76206 0.63753 0.0
Li1074 Li 0.03515 0.75715 0.6354 0.0
Li1075 Li 0.01192 0.7412 0.61272 0.0
C1076 C 0.03565 0.79391 0.65194 0.0
N1077 N 0.06446 0.81421 0.67658 0.0
C1078 C 0.03604 0.79035 0.67076 0.0
C1079 C 0.0498 0.80789 0.64565 0.0
C1080 C 0.05077 0.80072 0.68299 0.0
C1081 C 0.06426 0.81799 0.65834 0.0
C1082 C 0.979 0.7549 0.59644 0.0
C1083 C 0.94788 0.73577 0.58604 0.0
N1084 N 0.95298 0.73675 0.56821 0.0
C1085 C 0.9839 0.75583 0.57803 0.0
C1086 C 0.96084 0.74487 0.60052 0.0
C1087 C 0.97056 0.7465 0.56395 0.0
C1088 C 0.03175 0.79648 0.58069 0.0
N1089 N 0.02307 0.80007 0.59698 0.0
C1090 C 0.01983 0.83489 0.59081 0.0
C1091 C 0.01698 0.81876 0.60217 0.0
C1092 C 0.02913 0.83175 0.574 0.0
C1093 C 0.03509 0.81215 0.56903 0.0
H1094 H 0.03631 0.78141 0.57685 0.0
H1095 H 0.00997 0.82114 0.61517 0.0
C1096 C 0.98147 0.76029 0.67162 0.0
N1097 N 0.97777 0.7659 0.65405 0.0
C1098 C 0.96661 0.76199 0.68441 0.0
C1099 C 0.94438 0.77531 0.66081 0.0
C1100 C 0.95975 0.77343 0.64847 0.0
C1101 C 0.94772 0.7695 0.67906 0.0
H1102 H 0.99588 0.75414 0.67559 0.0
H1103 H 0.95726 0.77784 0.63441 0.0
C1104 C 0.05782 0.75201 0.6066 0.0
N1105 N 0.09844 0.74484 0.60365 0.0
C1106 C 0.06474 0.73266 0.60895 0.0
C1107 C 0.07153 0.76767 0.60256 0.0
C1108 C 0.08534 0.72936 0.60748 0.0
C1109 C 0.09201 0.76375 0.60116 0.0
C1110 C 0.007 0.71736 0.64111 0.0
C1111 C 0.02053 0.70205 0.6383 0.0
C1112 C 0.98716 0.7123 0.64561 0.0
C1113 C 0.01387 0.68187 0.63975 0.0
C1114 C 0.9811 0.69195 0.64698 0.0
N1115 N 0.99446 0.67728 0.64402 0.0
C1116 C 0.05817 0.73978 0.66376 0.0
C1117 C 0.07694 0.76523 0.64949 0.0
C1118 C 0.07513 0.73624 0.67539 0.0
N1119 N 0.05939 0.7539 0.65096 0.0
C1120 C 0.09433 0.7621 0.66076 0.0
C1121 C 0.09362 0.74733 0.67388 0.0
H1122 H 0.04397 0.7313 0.66503 0.0
H1123 H 0.0775 0.77673 0.63957 0.0
C1124 C 0.01841 0.71485 0.5819 0.0
N1125 N 0.00592 0.71765 0.59595 0.0
C1126 C 0.01503 0.69817 0.56915 0.0
C1127 C 0.98575 0.68767 0.58528 0.0
C1128 C 0.98962 0.70463 0.59765 0.0
C1129 C 0.9986 0.68424 0.57083 0.0
H1130 H 0.03097 0.72563 0.5805 0.0
H1131 H 0.97942 0.70748 0.60844 0.0
O1132 O 0.02162 0.78363 0.63968 0.0
O1133 O 0.99211 0.76349 0.61042 0.0
O1134 O 0.0377 0.75553 0.60806 0.0
O1135 O 0.01327 0.73721 0.63981 0.0
H1136 H 0.02523 0.77952 0.67581 0.0
H1137 H 0.04977 0.81072 0.6311 0.0
H1138 H 0.05135 0.79802 0.69758 0.0
H1139 H 0.07538 0.82877 0.65366 0.0
H1140 H 0.93383 0.72784 0.58898 0.0
H1141 H 0.99796 0.76345 0.57468 0.0
H1142 H 0.95694 0.74385 0.61472 0.0
H1143 H 0.9742 0.74697 0.54964 0.0
H1144 H 0.01468 0.84961 0.59513 0.0
H1145 H 0.04262 0.80898 0.55642 0.0
H1146 H 0.96973 0.75707 0.69824 0.0
H1147 H 0.93011 0.78136 0.65618 0.0
H1148 H 0.0543 0.72033 0.61188 0.0
H1149 H 0.0665 0.78279 0.60087 0.0
H1150 H 0.09091 0.71447 0.60935 0.0
H1151 H 0.10281 0.77576 0.59818 0.0
H1152 H 0.03601 0.7057 0.63508 0.0
H1153 H 0.97643 0.7239 0.64775 0.0
H1154 H 0.02415 0.66987 0.63753 0.0
H1155 H 0.96575 0.6878 0.65032 0.0
H1156 H 0.07369 0.72504 0.68559 0.0
H1157 H 0.10823 0.77098 0.65902 0.0
H1158 H 0.02533 0.69608 0.55822 0.0
H1159 H 0.97265 0.67752 0.58684 0.0
Li1160 Li 0.5155 0.28136 0.11317 0.0
Li1161 Li 0.49514 0.26461 0.13563 0.0
Li1162 Li 0.53171 0.2602 0.1349 0.0
Li1163 Li 0.50765 0.24473 0.11019 0.0
C1164 C 0.52899 0.2932 0.15589 0.0
N1165 N 0.55264 0.30663 0.18751 0.0
C1166 C 0.52153 0.29114 0.17334 0.0
C1167 C 0.54844 0.30216 0.15452 0.0
C1168 C 0.53373 0.29804 0.18916 0.0
C1169 C 0.56018 0.30881 0.17067 0.0
C1170 C 0.46901 0.27215 0.1087 0.0
C1171 C 0.43334 0.26393 0.11147 0.0
N1172 N 0.42956 0.28388 0.11062 0.0
C1173 C 0.46478 0.29256 0.10781 0.0
C1174 C 0.45319 0.25769 0.11048 0.0
C1175 C 0.44472 0.29818 0.1088 0.0
C1176 C 0.51132 0.3024 0.08081 0.0
N1177 N 0.51877 0.30442 0.09878 0.0
C1178 C 0.53304 0.3376 0.09452 0.0
C1179 C 0.52918 0.32169 0.10587 0.0
C1180 C 0.52609 0.33569 0.07572 0.0
C1181 C 0.51484 0.31788 0.06897 0.0
H1182 H 0.50302 0.2885 0.07557 0.0
H1183 H 0.5349 0.32294 0.12021 0.0
C1184 C 0.46688 0.25073 0.16039 0.0
N1185 N 0.47351 0.26728 0.15182 0.0
C1186 C 0.45174 0.25223 0.17292 0.0
C1187 C 0.45054 0.28788 0.16772 0.0
C1188 C 0.46573 0.28567 0.15526 0.0
C1189 C 0.4434 0.27101 0.17681 0.0
H1190 H 0.47363 0.2364 0.15778 0.0
H1191 H 0.47151 0.29867 0.14848 0.0
C1192 C 0.5438 0.26646 0.09343 0.0
N1193 N 0.56162 0.28246 0.06366 0.0
C1194 C 0.53742 0.25927 0.07536 0.0
C1195 C 0.55934 0.28169 0.09637 0.0
C1196 C 0.54662 0.26756 0.0605 0.0
C1197 C 0.56811 0.28963 0.08113 0.0
C1198 C 0.50787 0.21876 0.13634 0.0
C1199 C 0.5251 0.20781 0.14001 0.0
C1200 C 0.48914 0.20839 0.13137 0.0
C1201 C 0.52329 0.18664 0.13859 0.0
C1202 C 0.48798 0.18722 0.13005 0.0
N1203 N 0.50493 0.17688 0.13366 0.0
C1204 C 0.55311 0.25094 0.1678 0.0
C1205 C 0.57425 0.2571 0.14327 0.0
C1206 C 0.56997 0.24717 0.17948 0.0
N1207 N 0.55554 0.25583 0.1501 0.0
C1208 C 0.59155 0.2535 0.15448 0.0
C1209 C 0.58952 0.24837 0.17284 0.0
H1210 H 0.53801 0.24986 0.1728 0.0
H1211 H 0.57572 0.2607 0.12907 0.0
C1212 C 0.48521 0.22027 0.08157 0.0
N1213 N 0.50249 0.22189 0.09295 0.0
C1214 C 0.48143 0.20353 0.0689 0.0
C1215 C 0.51326 0.1905 0.07996 0.0
C1216 C 0.51661 0.20764 0.09215 0.0
C1217 C 0.49549 0.18832 0.06815 0.0
H1218 H 0.4744 0.23199 0.08229 0.0
H1219 H 0.53045 0.20959 0.10105 0.0
O1220 O 0.51746 0.28616 0.14025 0.0
O1221 O 0.48859 0.26639 0.10814 0.0
O1222 O 0.53458 0.25895 0.10815 0.0
O1223 O 0.50938 0.23949 0.13738 0.0
H1224 H 0.50659 0.28412 0.17469 0.0
H1225 H 0.55457 0.30361 0.14115 0.0
H1226 H 0.52818 0.29647 0.20275 0.0
H1227 H 0.57532 0.31562 0.16981 0.0
H1228 H 0.42096 0.25293 0.11296 0.0
H1229 H 0.47687 0.30396 0.10656 0.0
H1230 H 0.45623 0.24185 0.11129 0.0
H1231 H 0.44122 0.31393 0.10821 0.0
H1232 H 0.54192 0.35097 0.10027 0.0
H1233 H 0.50893 0.31587 0.05466 0.0
H1234 H 0.447 0.23892 0.17985 0.0
H1235 H 0.44447 0.30262 0.17022 0.0
H1236 H 0.52534 0.24759 0.07281 0.0
H1237 H 0.56429 0.28762 0.11024 0.0
H1238 H 0.54176 0.26222 0.04644 0.0
H1239 H 0.58001 0.30156 0.08319 0.0
H1240 H 0.53975 0.21553 0.14373 0.0
H1241 H 0.47569 0.21661 0.1283 0.0
H1242 H 0.53651 0.17798 0.14132 0.0
H1243 H 0.47361 0.17902 0.12609 0.0
H1244 H 0.56773 0.24346 0.19357 0.0
H1245 H 0.6063 0.2543 0.14873 0.0
H1246 H 0.46755 0.20233 0.05998 0.0
H1247 H 0.52457 0.17919 0.07958 0.0
C1248 C 0.2698 0.75276 0.84527 0.0
C1249 C 0.25175 0.74228 0.83803 0.0
C1250 C 0.27028 0.76502 0.86183 0.0
C1251 C 0.25233 0.76671 0.87143 0.0
C1252 C 0.2342 0.75577 0.86441 0.0
C1253 C 0.23413 0.74374 0.84779 0.0
C1254 C 0.28989 0.77651 0.86884 0.0
C1255 C 0.2148 0.75699 0.87432 0.0
C1256 C 0.25722 0.78572 0.92217 0.0
C1257 C 0.25241 0.80605 0.92115 0.0
C1258 C 0.25721 0.77273 0.90612 0.0
C1259 C 0.25236 0.78027 0.8886 0.0
C1260 C 0.2474 0.80075 0.88748 0.0
C1261 C 0.24742 0.81338 0.90377 0.0
C1262 C 0.26238 0.75094 0.90791 0.0
C1263 C 0.24224 0.80938 0.86906 0.0
H1264 H 0.2834 0.75184 0.8377 0.0
H1265 H 0.22021 0.73545 0.84236 0.0
H1266 H 0.28774 0.79305 0.8692 0.0
H1267 H 0.2942 0.77271 0.88321 0.0
H1268 H 0.30264 0.77313 0.86005 0.0
H1269 H 0.20219 0.747 0.86736 0.0
H1270 H 0.21743 0.75265 0.88879 0.0
H1271 H 0.20997 0.77282 0.87497 0.0
H1272 H 0.26085 0.77991 0.93557 0.0
H1273 H 0.24394 0.82913 0.90287 0.0
H1274 H 0.27581 0.74761 0.90001 0.0
H1275 H 0.24954 0.74066 0.90187 0.0
H1276 H 0.26572 0.74743 0.92254 0.0
H1277 H 0.25515 0.80785 0.86007 0.0
H1278 H 0.23878 0.82563 0.87056 0.0
H1279 H 0.22888 0.80074 0.86185 0.0
C1280 C 0.01037 0.52908 0.40479 0.0
C1281 C 0.02127 0.53795 0.42073 0.0
C1282 C 0.02009 0.52507 0.38838 0.0
C1283 C 0.04122 0.5299 0.38798 0.0
C1284 C 0.05226 0.53889 0.40405 0.0
C1285 C 0.0421 0.54291 0.4202 0.0
C1286 C 0.00777 0.51565 0.37148 0.0
C1287 C 0.07482 0.54412 0.40422 0.0
C1288 C 0.07064 0.50234 0.35171 0.0
C1289 C 0.0729 0.517 0.33867 0.0
C1290 C 0.06033 0.50632 0.36777 0.0
C1291 C 0.05185 0.52536 0.37082 0.0
C1292 C 0.05378 0.54012 0.35762 0.0
C1293 C 0.06434 0.53581 0.34175 0.0
C1294 C 0.05864 0.49019 0.38154 0.0
C1295 C 0.04486 0.56057 0.36034 0.0
H1296 H 0.99421 0.52534 0.40507 0.0
H1297 H 0.05052 0.54978 0.43253 0.0
H1298 H 0.00907 0.52556 0.35975 0.0
H1299 H 0.01384 0.50089 0.36717 0.0
H1300 H 0.99142 0.51313 0.37397 0.0
H1301 H 0.08117 0.55107 0.41784 0.0
H1302 H 0.083 0.53025 0.40091 0.0
H1303 H 0.07792 0.55482 0.39341 0.0
H1304 H 0.07686 0.48764 0.34931 0.0
H1305 H 0.06622 0.54734 0.33191 0.0
H1306 H 0.04239 0.48623 0.38346 0.0
H1307 H 0.06578 0.49604 0.39522 0.0
H1308 H 0.06606 0.47617 0.37712 0.0
H1309 H 0.02832 0.55863 0.36219 0.0
H1310 H 0.04708 0.57013 0.34847 0.0
H1311 H 0.05202 0.56875 0.3731 0.0
C1312 C 0.7763 0.76829 0.83827 0.0
C1313 C 0.79518 0.77462 0.83203 0.0
C1314 C 0.7751 0.75718 0.85411 0.0
C1315 C 0.79319 0.75206 0.8639 0.0
C1316 C 0.81229 0.75833 0.85768 0.0
C1317 C 0.81305 0.76961 0.8419 0.0
C1318 C 0.75443 0.75084 0.86032 0.0
C1319 C 0.83194 0.75311 0.86769 0.0
C1320 C 0.79057 0.73822 0.91395 0.0
C1321 C 0.78942 0.71697 0.91204 0.0
C1322 C 0.7918 0.74983 0.89842 0.0
C1323 C 0.79212 0.73996 0.88055 0.0
C1324 C 0.79121 0.71852 0.87857 0.0
C1325 C 0.78978 0.70729 0.89432 0.0
C1326 C 0.79252 0.77265 0.9011 0.0
C1327 C 0.79176 0.70742 0.85981 0.0
H1328 H 0.7624 0.77182 0.83062 0.0
H1329 H 0.82771 0.77468 0.8374 0.0
H1330 H 0.75264 0.73406 0.86001 0.0
H1331 H 0.75303 0.75666 0.87483 0.0
H1332 H 0.74182 0.75645 0.85147 0.0
H1333 H 0.84554 0.75895 0.86098 0.0
H1334 H 0.83271 0.75953 0.88222 0.0
H1335 H 0.8325 0.73642 0.86813 0.0
H1336 H 0.79008 0.74577 0.9276 0.0
H1337 H 0.78915 0.69087 0.89279 0.0
H1338 H 0.77932 0.77859 0.89328 0.0
H1339 H 0.80648 0.77923 0.89551 0.0
H1340 H 0.79228 0.778 0.9159 0.0
H1341 H 0.77865 0.71136 0.85061 0.0
H1342 H 0.79127 0.6907 0.86066 0.0
H1343 H 0.8058 0.71218 0.85322 0.0
C1344 C 0.04769 0.98734 0.40434 0.0
C1345 C 0.0388 0.98641 0.42135 0.0
C1346 C 0.03588 0.99009 0.38799 0.0
C1347 C 0.01468 0.99223 0.3887 0.0
C1348 C 0.00558 0.99109 0.40582 0.0
C1349 C 0.01774 0.98804 0.42194 0.0
C1350 C 0.04611 0.99089 0.36998 0.0
C1351 C 0.98308 0.99357 0.40718 0.0
C1352 C 0.98867 0.02005 0.35023 0.0
C1353 C 0.97897 0.00403 0.33886 0.0
C1354 C 1.00009 0.01642 0.36659 0.0
C1355 C 0.00218 0.99626 0.37161 0.0
C1356 C 0.99259 0.98 0.36017 0.0
C1357 C 0.98099 0.98408 0.34402 0.0
C1358 C 0.00999 0.03419 0.37849 0.0
C1359 C 0.99463 0.95828 0.36497 0.0
H1360 H 0.06395 0.98585 0.40385 0.0
H1361 H 0.01088 0.98747 0.4351 0.0
H1362 H 0.03867 0.97943 0.35958 0.0
H1363 H 0.04443 0.00597 0.36433 0.0
H1364 H 0.06257 0.98811 0.37166 0.0
H1365 H 0.97828 0.99181 0.42143 0.0
H1366 H 0.97917 0.00879 0.40292 0.0
H1367 H 0.97419 0.98224 0.39759 0.0
H1368 H 0.98754 0.03549 0.34626 0.0
H1369 H 0.97331 0.9716 0.33555 0.0
H1370 H 0.02675 0.03315 0.3794 0.0
H1371 H 0.00494 0.03385 0.39278 0.0
H1372 H 0.00633 0.04897 0.37297 0.0
H1373 H 0.01093 0.9548 0.36609 0.0
H1374 H 0.98644 0.94734 0.3545 0.0
H1375 H 0.98854 0.95598 0.37865 0.0
C1376 C 0.25103 0.2891 0.65298 0.0
C1377 C 0.24684 0.28001 0.66942 0.0
C1378 C 0.25362 0.27736 0.63661 0.0
C1379 C 0.25186 0.25596 0.63661 0.0
C1380 C 0.24732 0.24666 0.65306 0.0
C1381 C 0.24489 0.25879 0.66927 0.0
C1382 C 0.2584 0.28785 0.61936 0.0
C1383 C 0.2453 0.22389 0.65359 0.0
C1384 C 0.24192 0.22607 0.59015 0.0
C1385 C 0.26146 0.22008 0.58648 0.0
C1386 C 0.23854 0.23758 0.60648 0.0
C1387 C 0.2551 0.24333 0.61943 0.0
C1388 C 0.27484 0.23731 0.61585 0.0
C1389 C 0.27777 0.22574 0.59945 0.0
C1390 C 0.21727 0.24372 0.60979 0.0
C1391 C 0.29289 0.24314 0.62932 0.0
H1392 H 0.25222 0.30549 0.65288 0.0
H1393 H 0.24187 0.25164 0.68194 0.0
H1394 H 0.27326 0.28322 0.61465 0.0
H1395 H 0.2467 0.28325 0.608 0.0
H1396 H 0.25904 0.30463 0.62161 0.0
H1397 H 0.24117 0.21903 0.66733 0.0
H1398 H 0.2335 0.21752 0.64293 0.0
H1399 H 0.25986 0.21727 0.65028 0.0
H1400 H 0.22927 0.22201 0.58011 0.0
H1401 H 0.29286 0.22092 0.59688 0.0
H1402 H 0.21693 0.26049 0.61087 0.0
H1403 H 0.21257 0.23823 0.62312 0.0
H1404 H 0.20596 0.23765 0.59855 0.0
H1405 H 0.2949 0.25989 0.63131 0.0
H1406 H 0.30723 0.23717 0.62453 0.0
H1407 H 0.2902 0.23731 0.64303 0.0
C1408 C 0.51265 0.53822 0.58297 0.0
C1409 C 0.53368 0.53558 0.58429 0.0
C1410 C 0.50116 0.53746 0.5986 0.0
C1411 C 0.51086 0.53391 0.61601 0.0
C1412 C 0.53206 0.53122 0.61745 0.0
C1413 C 0.5432 0.53212 0.6016 0.0
C1414 C 0.47859 0.54038 0.59647 0.0
C1415 C 0.54298 0.5274 0.63575 0.0
C1416 C 0.48464 0.54933 0.65962 0.0
C1417 C 0.47547 0.53081 0.66404 0.0
C1418 C 0.49623 0.55056 0.64406 0.0
C1419 C 0.49879 0.53284 0.63268 0.0
C1420 C 0.4897 0.51408 0.63715 0.0
C1421 C 0.47815 0.5133 0.65274 0.0
C1422 C 0.50559 0.57087 0.63971 0.0
C1423 C 0.49217 0.49482 0.62546 0.0
H1424 H 0.50511 0.54064 0.56962 0.0
H1425 H 0.55947 0.53038 0.60283 0.0
H1426 H 0.47001 0.52669 0.60054 0.0
H1427 H 0.47468 0.55329 0.60582 0.0
H1428 H 0.4734 0.54332 0.58204 0.0
H1429 H 0.55949 0.52552 0.63454 0.0
H1430 H 0.54113 0.54021 0.64599 0.0
H1431 H 0.53619 0.51355 0.64132 0.0
H1432 H 0.48248 0.56296 0.66816 0.0
H1433 H 0.47139 0.49888 0.65622 0.0
H1434 H 0.49965 0.57487 0.62581 0.0
H1435 H 0.52232 0.57009 0.63932 0.0
H1436 H 0.50235 0.58317 0.65004 0.0
H1437 H 0.4861 0.49645 0.61103 0.0
H1438 H 0.48422 0.48144 0.63086 0.0
H1439 H 0.50855 0.49191 0.62494 0.0
C1440 C 0.80364 0.28319 0.67297 0.0
C1441 C 0.79564 0.26332 0.67399 0.0
C1442 C 0.79971 0.29393 0.65712 0.0
C1443 C 0.78743 0.28455 0.64195 0.0
C1444 C 0.77924 0.26448 0.64293 0.0
C1445 C 0.78346 0.25407 0.65894 0.0
C1446 C 0.80876 0.31528 0.6566 0.0
C1447 C 0.76605 0.25399 0.62704 0.0
C1448 C 0.76272 0.3185 0.60751 0.0
C1449 C 0.77573 0.31724 0.59295 0.0
C1450 C 0.76625 0.30782 0.62347 0.0
C1451 C 0.78329 0.29571 0.62499 0.0
C1452 C 0.7965 0.29438 0.61037 0.0
C1453 C 0.79252 0.30508 0.59452 0.0
C1454 C 0.75181 0.3096 0.63876 0.0
C1455 C 0.81486 0.28165 0.61149 0.0
H1456 H 0.81307 0.29034 0.68459 0.0
H1457 H 0.77722 0.2387 0.65963 0.0
H1458 H 0.81866 0.31624 0.64484 0.0
H1459 H 0.79647 0.32589 0.65432 0.0
H1460 H 0.81789 0.32042 0.66959 0.0
H1461 H 0.76072 0.23841 0.63004 0.0
H1462 H 0.75258 0.26289 0.62394 0.0
H1463 H 0.77465 0.25307 0.61439 0.0
H1464 H 0.74989 0.32807 0.60657 0.0
H1465 H 0.80248 0.30375 0.58323 0.0
H1466 H 0.76013 0.31607 0.65173 0.0
H1467 H 0.7454 0.29436 0.64158 0.0
H1468 H 0.73904 0.31933 0.63528 0.0
H1469 H 0.82504 0.28691 0.62379 0.0
H1470 H 0.82368 0.2823 0.59897 0.0
H1471 H 0.81 0.26562 0.6132 0.0
C1472 C 0.51039 0.0073 0.58981 0.0
C1473 C 0.49924 0.98968 0.58261 0.0
C1474 C 0.52273 0.00734 0.60634 0.0
C1475 C 0.52375 0.9894 0.61599 0.0
C1476 C 0.51212 0.97171 0.60901 0.0
C1477 C 0.5001 0.97203 0.59234 0.0
C1478 C 0.53507 0.02645 0.61323 0.0
C1479 C 0.51256 0.95237 0.61901 0.0
C1480 C 0.57062 0.9828 0.6479 0.0
C1481 C 0.56387 0.98838 0.66538 0.0
C1482 C 0.55775 0.98314 0.63175 0.0
C1483 C 0.5375 0.98893 0.63307 0.0
C1484 C 0.53044 0.99427 0.65065 0.0
C1485 C 0.54373 0.99404 0.66656 0.0
C1486 C 0.56588 0.9774 0.61325 0.0
C1487 C 0.5089 1.00037 0.65262 0.0
H1488 H 0.50989 0.02091 0.58222 0.0
H1489 H 0.49131 0.95845 0.5869 0.0
H1490 H 0.53155 0.03095 0.62761 0.0
H1491 H 0.55153 0.02363 0.61353 0.0
H1492 H 0.53214 0.03927 0.60441 0.0
H1493 H 0.50195 0.94021 0.61217 0.0
H1494 H 0.52818 0.94683 0.61959 0.0
H1495 H 0.50846 0.95526 0.63351 0.0
H1496 H 0.58601 0.97805 0.64682 0.0
H1497 H 0.53842 0.99867 0.67993 0.0
H1498 H 0.56448 0.99011 0.60403 0.0
H1499 H 0.55674 0.96419 0.60639 0.0
H1500 H 0.58208 0.97352 0.61457 0.0
H1501 H 0.50618 0.01413 0.64502 0.0
H1502 H 0.50559 0.00352 0.66732 0.0
H1503 H 0.49798 0.98817 0.64639 0.0
C1504 C 0.8557 0.2219 0.74036 0.0
C1505 C 0.83704 0.21589 0.74719 0.0
C1506 C 0.87336 0.22541 0.75223 0.0
C1507 C 0.87241 0.22264 0.77137 0.0
C1508 C 0.85362 0.21669 0.77838 0.0
C1509 C 0.83616 0.21351 0.76623 0.0
C1510 C 0.89309 0.23188 0.74426 0.0
C1511 C 0.852 0.2135 0.7987 0.0
C1512 C 0.92128 0.21238 0.79907 0.0
C1513 C 0.92653 0.23135 0.80831 0.0
C1514 C 0.90368 0.20933 0.78707 0.0
C1515 C 0.89112 0.22569 0.78405 0.0
C1516 C 0.89636 0.2449 0.7932 0.0
C1517 C 0.91392 0.24747 0.80529 0.0
C1518 C 0.89853 0.18857 0.77763 0.0
C1519 C 0.88339 0.26274 0.79026 0.0
H1520 H 0.85661 0.22351 0.72564 0.0
H1521 H 0.82176 0.20921 0.77169 0.0
H1522 H 0.89946 0.24629 0.75147 0.0
H1523 H 0.90444 0.22031 0.74651 0.0
H1524 H 0.89113 0.23403 0.72918 0.0
H1525 H 0.83626 0.20889 0.80194 0.0
H1526 H 0.86228 0.20163 0.80301 0.0
H1527 H 0.85695 0.22765 0.80712 0.0
H1528 H 0.93106 0.19991 0.80106 0.0
H1529 H 0.91764 0.2621 0.81256 0.0
H1530 H 0.89797 0.18947 0.76238 0.0
H1531 H 0.88324 0.18293 0.78119 0.0
H1532 H 0.90975 0.17739 0.78163 0.0
H1533 H 0.88192 0.26562 0.77532 0.0
H1534 H 0.8898 0.27679 0.79812 0.0
H1535 H 0.86784 0.25931 0.79462 0.0
C1536 C 0.4915 0.92956 0.48946 0.0
C1537 C 0.49021 0.92351 0.50758 0.0
C1538 C 0.49525 0.9155 0.47493 0.0
C1539 C 0.49752 0.89493 0.47861 0.0
C1540 C 0.49622 0.88881 0.4969 0.0
C1541 C 0.49272 0.90322 0.51118 0.0
C1542 C 0.49679 0.92264 0.45565 0.0
C1543 C 0.49834 0.86699 0.50136 0.0
C1544 C 0.48752 0.85371 0.43989 0.0
C1545 C 0.50732 0.84841 0.43633 0.0
C1546 C 0.48413 0.86908 0.45335 0.0
C1547 C 0.50094 0.87967 0.46334 0.0
C1548 C 0.52097 0.87495 0.45936 0.0
C1549 C 0.52392 0.85931 0.44598 0.0
C1550 C 0.46254 0.8736 0.45723 0.0
C1551 C 0.53928 0.88604 0.4696 0.0
H1552 H 0.48974 0.94528 0.48664 0.0
H1553 H 0.49174 0.89856 0.52519 0.0
H1554 H 0.51172 0.91896 0.45045 0.0
H1555 H 0.48485 0.9146 0.44606 0.0
H1556 H 0.49511 0.93921 0.45517 0.0
H1557 H 0.4969 0.86472 0.51629 0.0
H1558 H 0.48649 0.85715 0.49315 0.0
H1559 H 0.51334 0.86189 0.49747 0.0
H1560 H 0.4746 0.84568 0.43225 0.0
H1561 H 0.53926 0.85522 0.44352 0.0
H1562 H 0.4601 0.8899 0.45577 0.0
H1563 H 0.45976 0.87036 0.47173 0.0
H1564 H 0.45116 0.86447 0.44781 0.0
H1565 H 0.53817 0.90265 0.46894 0.0
H1566 H 0.55378 0.88166 0.46388 0.0
H1567 H 0.53976 0.8827 0.48443 0.0
C1568 C 0.18209 0.31475 0.76651 0.0
C1569 C 0.18865 0.30122 0.75282 0.0
C1570 C 0.16705 0.30875 0.77822 0.0
C1571 C 0.15832 0.28869 0.77615 0.0
C1572 C 0.16496 0.27489 0.76239 0.0
C1573 C 0.18009 0.28131 0.75089 0.0
C1574 C 0.16044 0.32391 0.79274 0.0
C1575 C 0.15598 0.25341 0.75974 0.0
C1576 C 0.13149 0.26895 0.81695 0.0
C1577 C 0.11102 0.27182 0.81174 0.0
C1578 C 0.14702 0.2741 0.8054 0.0
C1579 C 0.14198 0.28233 0.78822 0.0
C1580 C 0.12135 0.28507 0.78279 0.0
C1581 C 0.10615 0.27981 0.79462 0.0
C1582 C 0.16884 0.27093 0.81166 0.0
C1583 C 0.11534 0.29385 0.76461 0.0
H1584 H 0.18873 0.33013 0.76805 0.0
H1585 H 0.1851 0.27076 0.74033 0.0
H1586 H 0.14396 0.32623 0.7903 0.0
H1587 H 0.1627 0.31802 0.80668 0.0
H1588 H 0.16896 0.33882 0.79274 0.0
H1589 H 0.16302 0.24446 0.74862 0.0
H1590 H 0.15805 0.24567 0.77283 0.0
H1591 H 0.13937 0.25348 0.75618 0.0
H1592 H 0.13538 0.26253 0.83003 0.0
H1593 H 0.09042 0.28237 0.79059 0.0
H1594 H 0.17777 0.28566 0.8129 0.0
H1595 H 0.17582 0.26104 0.80121 0.0
H1596 H 0.17019 0.26395 0.82521 0.0
H1597 H 0.12223 0.30947 0.76443 0.0
H1598 H 0.09858 0.29435 0.76214 0.0
H1599 H 0.12126 0.28473 0.75299 0.0
C1600 C 0.5402 0.59468 0.49613 0.0
C1601 C 0.56027 0.59247 0.50298 0.0
C1602 C 0.53574 0.60895 0.48305 0.0
C1603 C 0.5517 0.62149 0.47696 0.0
C1604 C 0.57198 0.61929 0.4839 0.0
C1605 C 0.57603 0.60467 0.49668 0.0
C1606 C 0.51398 0.61059 0.47573 0.0
C1607 C 0.5894 0.63258 0.47801 0.0
C1608 C 0.54536 0.6482 0.43205 0.0
C1609 C 0.54116 0.66788 0.43852 0.0
C1610 C 0.54826 0.6328 0.44434 0.0
C1611 C 0.54726 0.63722 0.46361 0.0
C1612 C 0.54278 0.65694 0.47022 0.0
C1613 C 0.5396 0.67193 0.45761 0.0
C1614 C 0.55274 0.61188 0.43673 0.0
C1615 C 0.54175 0.66233 0.49067 0.0
H1616 H 0.52799 0.58513 0.50084 0.0
H1617 H 0.59155 0.60294 0.50198 0.0
H1618 H 0.50893 0.62599 0.47927 0.0
H1619 H 0.51282 0.60832 0.4604 0.0
H1620 H 0.50342 0.59931 0.48142 0.0
H1621 H 0.60427 0.62901 0.48478 0.0
H1622 H 0.59029 0.63072 0.46278 0.0
H1623 H 0.58675 0.64874 0.4815 0.0
H1624 H 0.54683 0.64488 0.4174 0.0
H1625 H 0.53588 0.6869 0.46278 0.0
H1626 H 0.542 0.60038 0.44183 0.0
H1627 H 0.56831 0.60823 0.4417 0.0
H1628 H 0.55162 0.61053 0.42135 0.0
H1629 H 0.53019 0.65223 0.4965 0.0
H1630 H 0.53788 0.6783 0.49355 0.0
H1631 H 0.55662 0.65999 0.49807 0.0
C1632 C 0.86642 0.7568 0.75539 0.0
C1633 C 0.85511 0.77399 0.75789 0.0
C1634 C 0.88138 0.75604 0.74245 0.0
C1635 C 0.88516 0.77292 0.73181 0.0
C1636 C 0.8738 0.79035 0.73431 0.0
C1637 C 0.85889 0.79067 0.74731 0.0
C1638 C 0.89315 0.73716 0.74015 0.0
C1639 C 0.87744 0.80869 0.7233 0.0
C1640 C 0.93642 0.77817 0.71084 0.0
C1641 C 0.93155 0.77093 0.69242 0.0
C1642 C 0.92146 0.77902 0.72376 0.0
C1643 C 0.90112 0.77241 0.71816 0.0
C1644 C 0.89607 0.76523 0.69955 0.0
C1645 C 0.91134 0.76462 0.6869 0.0
C1646 C 0.92743 0.78694 0.74343 0.0
C1647 C 0.87459 0.75797 0.69307 0.0
H1648 H 0.86353 0.74391 0.76357 0.0
H1649 H 0.85025 0.80405 0.74918 0.0
H1650 H 0.89116 0.73085 0.72559 0.0
H1651 H 0.90963 0.74096 0.74328 0.0
H1652 H 0.88823 0.72527 0.74935 0.0
H1653 H 0.8673 0.82104 0.72688 0.0
H1654 H 0.89347 0.81462 0.72584 0.0
H1655 H 0.87493 0.80438 0.70827 0.0
H1656 H 0.95196 0.78332 0.71514 0.0
H1657 H 0.90752 0.75878 0.67275 0.0
H1658 H 0.924 0.77506 0.75312 0.0
H1659 H 0.91839 0.80008 0.74719 0.0
H1660 H 0.94385 0.7917 0.74552 0.0
H1661 H 0.86962 0.74506 0.70108 0.0
H1662 H 0.87311 0.75306 0.67809 0.0
H1663 H 0.86405 0.77022 0.69561 0.0
C1664 C 0.04089 0.92421 0.50707 0.0
C1665 C 0.06133 0.92669 0.50299 0.0
C1666 C 0.03461 0.9094 0.51892 0.0
C1667 C 0.04908 0.89662 0.52662 0.0
C1668 C 0.06973 0.89912 0.52252 0.0
C1669 C 0.07562 0.91424 0.51088 0.0
C1670 C 0.01253 0.90742 0.52321 0.0
C1671 C 0.08558 0.88565 0.53025 0.0
C1672 C 0.03898 0.8683 0.56953 0.0
C1673 C 0.03302 0.84876 0.56184 0.0
C1674 C 0.04365 0.88418 0.55822 0.0
C1675 C 0.04265 0.88039 0.53874 0.0
C1676 C 0.03633 0.86083 0.53087 0.0
C1677 C 0.03142 0.84533 0.54248 0.0
C1678 C 0.0501 0.9049 0.56714 0.0
C1679 C 0.0352 0.85613 0.51017 0.0
H1680 H 0.02981 0.93393 0.50112 0.0
H1681 H 0.09143 0.91617 0.50773 0.0
H1682 H 0.00596 0.8921 0.51841 0.0
H1683 H 0.01122 0.90913 0.5384 0.0
H1684 H 0.0033 0.91889 0.51652 0.0
H1685 H 0.10097 0.88952 0.52567 0.0
H1686 H 0.08627 0.88694 0.5456 0.0
H1687 H 0.08133 0.86957 0.5258 0.0
H1688 H 0.04053 0.87113 0.58444 0.0
H1689 H 0.02641 0.83045 0.53633 0.0
H1690 H 0.04074 0.91656 0.56097 0.0
H1691 H 0.06617 0.90875 0.56449 0.0
H1692 H 0.04866 0.90574 0.58235 0.0
H1693 H 0.02496 0.86649 0.50316 0.0
H1694 H 0.02961 0.84025 0.50621 0.0
H1695 H 0.0505 0.85864 0.5049 0.0
C1696 C 0.2005 0.72468 0.72556 0.0
C1697 C 0.19916 0.72507 0.74477 0.0
C1698 C 0.18356 0.72833 0.71373 0.0
C1699 C 0.16479 0.73225 0.72134 0.0
C1700 C 0.16332 0.73246 0.74075 0.0
C1701 C 0.18055 0.72893 0.75226 0.0
C1702 C 0.18576 0.72811 0.69312 0.0
C1703 C 0.14352 0.73638 0.74937 0.0
C1704 C 0.12527 0.75962 0.69331 0.0
C1705 C 0.11199 0.74349 0.68593 0.0
C1706 C 0.1426 0.75617 0.70472 0.0
C1707 C 0.14668 0.73612 0.709 0.0
C1708 C 0.13336 0.71978 0.70163 0.0
C1709 C 0.11625 0.72365 0.69011 0.0
C1710 C 0.1565 0.77398 0.71227 0.0
C1711 C 0.13714 0.6982 0.70593 0.0
H1712 H 0.2149 0.72169 0.71978 0.0
H1713 H 0.17938 0.72914 0.76711 0.0
H1714 H 0.17497 0.71646 0.6858 0.0
H1715 H 0.18189 0.74297 0.68795 0.0
H1716 H 0.20142 0.72491 0.68943 0.0
H1717 H 0.14486 0.73585 0.76468 0.0
H1718 H 0.1384 0.75148 0.74588 0.0
H1719 H 0.13152 0.72496 0.74364 0.0
H1720 H 0.12197 0.77502 0.69039 0.0
H1721 H 0.10629 0.71105 0.68424 0.0
H1722 H 0.17221 0.77185 0.70817 0.0
H1723 H 0.15709 0.77497 0.72763 0.0
H1724 H 0.15146 0.78857 0.70727 0.0
H1725 H 0.15213 0.69401 0.70121 0.0
H1726 H 0.12523 0.68721 0.69922 0.0
H1727 H 0.13765 0.69675 0.72112 0.0
C1728 C 0.95995 0.59121 0.49982 0.0
C1729 C 0.97587 0.57922 0.49472 0.0
C1730 C 0.96366 0.60855 0.51191 0.0
C1731 C 0.98377 0.61397 0.51916 0.0
C1732 C 0.99994 0.60202 0.51395 0.0
C1733 C 0.9958 0.58481 0.50174 0.0
C1734 C 0.94604 0.62101 0.51699 0.0
C1735 C 0.02156 0.60725 0.52148 0.0
C1736 C 0.99606 0.66816 0.53851 0.0
C1737 C 0.99487 0.66625 0.55758 0.0
C1738 C 0.99252 0.65127 0.52584 0.0
C1739 C 0.98781 0.63199 0.53241 0.0
C1740 C 0.98669 0.62995 0.55166 0.0
C1741 C 0.99017 0.64712 0.564 0.0
C1742 C 0.99367 0.65407 0.50541 0.0
C1743 C 0.98185 0.60963 0.55921 0.0
H1744 H 0.94456 0.58709 0.49423 0.0
H1745 H 0.00811 0.57547 0.49797 0.0
H1746 H 0.94456 0.62131 0.53216 0.0
H1747 H 0.94889 0.63691 0.51338 0.0
H1748 H 0.93139 0.61498 0.50984 0.0
H1749 H 0.03243 0.59658 0.51585 0.0
H1750 H 0.02632 0.62283 0.51809 0.0
H1751 H 0.02254 0.60698 0.5368 0.0
H1752 H 0.99946 0.68295 0.53347 0.0
H1753 H 0.98948 0.64553 0.57875 0.0
H1754 H 0.97883 0.64933 0.49793 0.0
H1755 H 0.00522 0.64431 0.49964 0.0
H1756 H 0.99765 0.67004 0.50256 0.0
H1757 H 0.9667 0.60342 0.55336 0.0
H1758 H 0.98183 0.61057 0.57456 0.0
H1759 H 0.99317 0.59871 0.55497 0.0
C1760 C 0.78092 0.8445 0.22788 0.0
C1761 C 0.77151 0.84078 0.21001 0.0
C1762 C 0.79447 0.86142 0.23223 0.0
C1763 C 0.79859 0.87502 0.21842 0.0
C1764 C 0.78908 0.87138 0.20038 0.0
C1765 C 0.77571 0.85428 0.19638 0.0
C1766 C 0.80444 0.8647 0.25159 0.0
C1767 C 0.79292 0.88563 0.18532 0.0
C1768 C 0.81881 0.9287 0.23342 0.0
C1769 C 0.83956 0.92774 0.23048 0.0
C1770 C 0.80532 0.91165 0.22961 0.0
C1771 C 0.81279 0.89314 0.22283 0.0
C1772 C 0.83376 0.89203 0.21998 0.0
C1773 C 0.84688 0.90936 0.22376 0.0
C1774 C 0.78303 0.9135 0.23265 0.0
C1775 C 0.84234 0.87252 0.21293 0.0
H1776 H 0.77787 0.83399 0.2384 0.0
H1777 H 0.76828 0.85162 0.18261 0.0
H1778 H 0.82124 0.8651 0.25108 0.0
H1779 H 0.8005 0.87954 0.25792 0.0
H1780 H 0.79974 0.85263 0.26069 0.0
H1781 H 0.78428 0.88066 0.17203 0.0
H1782 H 0.78856 0.90107 0.1897 0.0
H1783 H 0.80937 0.8867 0.18293 0.0
H1784 H 0.81304 0.94293 0.23841 0.0
H1785 H 0.86295 0.90848 0.22168 0.0
H1786 H 0.77806 0.90239 0.24253 0.0
H1787 H 0.77381 0.90993 0.21941 0.0
H1788 H 0.77969 0.92893 0.23814 0.0
H1789 H 0.83898 0.86035 0.22234 0.0
H1790 H 0.85905 0.87407 0.2118 0.0
H1791 H 0.83498 0.86758 0.1991 0.0
C1792 C 0.79618 0.19075 0.29664 0.0
C1793 C 0.77521 0.18666 0.29285 0.0
C1794 C 0.81015 0.17605 0.29248 0.0
C1795 C 0.80295 0.15675 0.2845 0.0
C1796 C 0.78177 0.15247 0.28088 0.0
C1797 C 0.76818 0.16747 0.28506 0.0
C1798 C 0.83262 0.18124 0.29642 0.0
C1799 C 0.77345 0.13201 0.27259 0.0
C1800 C 0.838 0.1237 0.25765 0.0
C1801 C 0.84368 0.10983 0.27069 0.0
C1802 C 0.82507 0.13927 0.26206 0.0
C1803 C 0.8175 0.14097 0.27991 0.0
C1804 C 0.82333 0.12717 0.29319 0.0
C1805 C 0.83639 0.11186 0.28846 0.0
C1806 C 0.81925 0.15372 0.24753 0.0
C1807 C 0.81557 0.12844 0.31236 0.0
H1808 H 0.80169 0.20561 0.30251 0.0
H1809 H 0.75196 0.16414 0.28234 0.0
H1810 H 0.83929 0.17042 0.3059 0.0
H1811 H 0.84052 0.17979 0.28338 0.0
H1812 H 0.83575 0.19687 0.30278 0.0
H1813 H 0.75657 0.13105 0.27077 0.0
H1814 H 0.77962 0.12885 0.25889 0.0
H1815 H 0.77836 0.11994 0.28159 0.0
H1816 H 0.84334 0.12216 0.24383 0.0
H1817 H 0.84097 0.10148 0.29875 0.0
H1818 H 0.82298 0.16959 0.25296 0.0
H1819 H 0.80259 0.1522 0.24409 0.0
H1820 H 0.82714 0.15093 0.2346 0.0
H1821 H 0.81968 0.14362 0.31929 0.0
H1822 H 0.8218 0.11676 0.32119 0.0
H1823 H 0.79872 0.12647 0.31138 0.0
C1824 C 0.4249 0.00444 0.96438 0.0
C1825 C 0.43777 0.01421 0.97872 0.0
C1826 C 0.40891 0.99083 0.96818 0.0
C1827 C 0.40554 0.98705 0.98678 0.0
C1828 C 0.41868 0.99654 1.0013 0.0
C1829 C 0.4347 0.0099 0.99709 0.0
C1830 C 0.39531 0.98089 0.9523 0.0
C1831 C 0.41554 0.99294 0.02132 0.0
C1832 C 0.35183 0.96966 0.99685 0.0
C1833 C 0.35358 0.94878 0.99822 0.0
C1834 C 0.3687 0.98231 0.9934 0.0
C1835 C 0.38773 0.97384 0.99106 0.0
C1836 C 0.38963 0.95278 0.99256 0.0
C1837 C 0.37254 0.9405 0.99622 0.0
C1838 C 0.36612 0.00473 0.99214 0.0
C1839 C 0.40961 0.94316 0.98995 0.0
H1840 H 0.42696 0.00785 0.95016 0.0
H1841 H 0.44478 0.01708 0.00824 0.0
H1842 H 0.39444 0.9642 0.95319 0.0
H1843 H 0.37964 0.98608 0.95314 0.0
H1844 H 0.40074 0.98443 0.9386 0.0
H1845 H 0.42746 1.00102 0.03095 0.0
H1846 H 0.40048 0.99813 0.02494 0.0
H1847 H 0.41557 0.9765 0.0235 0.0
H1848 H 0.33725 0.97612 0.99859 0.0
H1849 H 0.37388 0.92433 0.99707 0.0
H1850 H 0.36966 0.00931 0.97818 0.0
H1851 H 0.37695 0.01349 0.00233 0.0
H1852 H 0.35043 0.009 0.99477 0.0
H1853 H 0.41446 0.94554 0.97583 0.0
H1854 H 0.40864 0.92663 0.99188 0.0
H1855 H 0.42163 0.95047 0.99992 0.0
C1856 C 0.27128 0.34641 0.28656 0.0
C1857 C 0.26482 0.32747 0.29244 0.0
C1858 C 0.25733 0.36114 0.28264 0.0
C1859 C 0.23637 0.35688 0.28466 0.0
C1860 C 0.22974 0.33787 0.29078 0.0
C1861 C 0.24406 0.3234 0.29462 0.0
C1862 C 0.26503 0.38126 0.27627 0.0
C1863 C 0.20752 0.33277 0.29308 0.0
C1864 C 0.20341 0.40211 0.28965 0.0
C1865 C 0.19485 0.40311 0.27152 0.0
C1866 C 0.21661 0.38691 0.29421 0.0
C1867 C 0.22143 0.37235 0.28029 0.0
C1868 C 0.2126 0.37305 0.26203 0.0
C1869 C 0.19944 0.38843 0.25786 0.0
C1870 C 0.22577 0.38673 0.31382 0.0
C1871 C 0.21732 0.35775 0.24682 0.0
H1872 H 0.28734 0.34977 0.28512 0.0
H1873 H 0.23894 0.30873 0.29899 0.0
H1874 H 0.25785 0.38368 0.26238 0.0
H1875 H 0.26073 0.39378 0.28587 0.0
H1876 H 0.28182 0.38224 0.27553 0.0
H1877 H 0.20488 0.31744 0.29821 0.0
H1878 H 0.20152 0.34408 0.30294 0.0
H1879 H 0.19864 0.33345 0.27963 0.0
H1880 H 0.20019 0.41356 0.30024 0.0
H1881 H 0.19269 0.38894 0.24388 0.0
H1882 H 0.24254 0.38926 0.31401 0.0
H1883 H 0.22262 0.37171 0.31936 0.0
H1884 H 0.21977 0.39857 0.3232 0.0
H1885 H 0.23381 0.35894 0.24457 0.0
H1886 H 0.20864 0.35994 0.23351 0.0
H1887 H 0.21372 0.34216 0.25092 0.0
C1888 C 0.09843 0.03027 0.46114 0.0
C1889 C 0.09991 0.00944 0.46314 0.0
C1890 C 0.11544 0.04384 0.46478 0.0
C1891 C 0.13444 0.03642 0.47049 0.0
C1892 C 0.13602 0.01543 0.4727 0.0
C1893 C 0.11871 0.00219 0.46905 0.0
C1894 C 0.11309 0.06614 0.46243 0.0
C1895 C 0.15604 0.00693 0.47867 0.0
C1896 C 0.18175 0.06909 0.46255 0.0
C1897 C 0.18658 0.07867 0.48019 0.0
C1898 C 0.165 0.0551 0.45927 0.0
C1899 C 0.15269 0.05065 0.47395 0.0
C1900 C 0.15752 0.06015 0.49181 0.0
C1901 C 0.17443 0.074 0.49473 0.0
C1902 C 0.16034 0.04527 0.44002 0.0
C1903 C 0.14474 0.05581 0.50782 0.0
H1904 H 0.08387 0.03598 0.45684 0.0
H1905 H 0.11996 0.98608 0.47046 0.0
H1906 H 0.11776 0.07501 0.47562 0.0
H1907 H 0.1232 0.07144 0.45185 0.0
H1908 H 0.0972 0.06949 0.45814 0.0
H1909 H 0.15464 0.9903 0.48004 0.0
H1910 H 0.1674 0.01014 0.46844 0.0
H1911 H 0.16205 0.0144 0.49216 0.0
H1912 H 0.19088 0.07279 0.45118 0.0
H1913 H 0.17823 0.08106 0.50847 0.0
H1914 H 0.14514 0.04945 0.4345 0.0
H1915 H 0.15979 0.02853 0.44047 0.0
H1916 H 0.1718 0.04985 0.43026 0.0
H1917 H 0.12887 0.05992 0.50457 0.0
H1918 H 0.15067 0.06431 0.5209 0.0
H1919 H 0.14424 0.03937 0.51006 0.0
C1920 C 0.75289 0.17355 0.7241 0.0
C1921 C 0.77406 0.17238 0.7268 0.0
C1922 C 0.7396 0.1569 0.72678 0.0
C1923 C 0.74763 0.1387 0.73256 0.0
C1924 C 0.76895 0.13737 0.73526 0.0
C1925 C 0.7819 0.15415 0.73221 0.0
C1926 C 0.71695 0.15883 0.72357 0.0
C1927 C 0.77809 0.11826 0.74152 0.0
C1928 C 0.71303 0.10249 0.75659 0.0
C1929 C 0.70755 0.08756 0.74237 0.0
C1930 C 0.72615 0.11917 0.75361 0.0
C1931 C 0.73372 0.12108 0.73592 0.0
C1932 C 0.72809 0.10612 0.72147 0.0
C1933 C 0.71517 0.08946 0.72491 0.0
C1934 C 0.73204 0.13466 0.76944 0.0
C1935 C 0.73561 0.10778 0.70235 0.0
H1936 H 0.74665 0.18763 0.72018 0.0
H1937 H 0.79822 0.15292 0.73399 0.0
H1938 H 0.71042 0.14673 0.71333 0.0
H1939 H 0.70945 0.15683 0.73665 0.0
H1940 H 0.71319 0.17377 0.71845 0.0
H1941 H 0.79497 0.11976 0.74321 0.0
H1942 H 0.7722 0.11438 0.75494 0.0
H1943 H 0.77356 0.1054 0.73134 0.0
H1944 H 0.70728 0.10095 0.77014 0.0
H1945 H 0.71075 0.07805 0.71383 0.0
H1946 H 0.72739 0.14984 0.7657 0.0
H1947 H 0.74882 0.13573 0.77218 0.0
H1948 H 0.72496 0.13088 0.78238 0.0
H1949 H 0.731 0.12218 0.69668 0.0
H1950 H 0.72961 0.09498 0.69257 0.0
H1951 H 0.75248 0.10811 0.70307 0.0
C1952 C 0.43511 0.02709 0.5537 0.0
C1953 C 0.44779 0.02051 0.53997 0.0
C1954 C 0.42034 0.04116 0.55009 0.0
C1955 C 0.41807 0.04876 0.53227 0.0
C1956 C 0.43107 0.04251 0.51846 0.0
C1957 C 0.4458 0.02853 0.5225 0.0
C1958 C 0.40682 0.0475 0.56521 0.0
C1959 C 0.42914 0.05026 0.4993 0.0
C1960 C 0.36648 0.06752 0.51709 0.0
C1961 C 0.36993 0.08861 0.51968 0.0
C1962 C 0.38205 0.05442 0.52105 0.0
C1963 C 0.40154 0.06258 0.52785 0.0
C1964 C 0.40515 0.08387 0.53046 0.0
C1965 C 0.38932 0.09663 0.52627 0.0
C1966 C 0.37762 0.03182 0.51792 0.0
C1967 C 0.42568 0.09313 0.53782 0.0
H1968 H 0.43633 0.02081 0.56717 0.0
H1969 H 0.45575 0.0238 0.5119 0.0
H1970 H 0.40734 0.06427 0.56727 0.0
H1971 H 0.39081 0.04236 0.56109 0.0
H1972 H 0.41129 0.04112 0.5786 0.0
H1973 H 0.44084 0.04441 0.4903 0.0
H1974 H 0.41386 0.04566 0.49261 0.0
H1975 H 0.43056 0.06706 0.50017 0.0
H1976 H 0.35162 0.06124 0.51175 0.0
H1977 H 0.39201 0.11292 0.52847 0.0
H1978 H 0.38033 0.02441 0.5311 0.0
H1979 H 0.38808 0.02539 0.50799 0.0
H1980 H 0.36171 0.02792 0.51243 0.0
H1981 H 0.42967 0.08771 0.55171 0.0
H1982 H 0.42605 0.10996 0.53894 0.0
H1983 H 0.43758 0.08826 0.52863 0.0
C1984 C 0.60682 0.5156 0.53812 0.0
C1985 C 0.58843 0.50915 0.54524 0.0
C1986 C 0.62178 0.5019 0.53422 0.0
C1987 C 0.61849 0.48124 0.53777 0.0
C1988 C 0.60013 0.47464 0.5452 0.0
C1989 C 0.58529 0.48863 0.54874 0.0
C1990 C 0.64111 0.50955 0.52624 0.0
C1991 C 0.59614 0.45277 0.54934 0.0
C1992 C 0.64959 0.44294 0.51228 0.0
C1993 C 0.66559 0.44046 0.5255 0.0
C1994 C 0.63403 0.456 0.51615 0.0
C1995 C 0.63434 0.46661 0.53375 0.0
C1996 C 0.6502 0.46376 0.54729 0.0
C1997 C 0.6657 0.45083 0.54296 0.0
C1998 C 0.61754 0.45883 0.50126 0.0
C1999 C 0.65093 0.47455 0.5663 0.0
H2000 H 0.60961 0.53146 0.53569 0.0
H2001 H 0.57106 0.48339 0.55398 0.0
H2002 H 0.65444 0.50687 0.53572 0.0
H2003 H 0.64309 0.50109 0.51284 0.0
H2004 H 0.64115 0.52599 0.52392 0.0
H2005 H 0.58133 0.45016 0.55554 0.0
H2006 H 0.5962 0.4429 0.53643 0.0
H2007 H 0.60845 0.44801 0.55904 0.0
H2008 H 0.64956 0.43508 0.49872 0.0
H2009 H 0.67792 0.44876 0.55329 0.0
H2010 H 0.61797 0.47489 0.49765 0.0
H2011 H 0.60236 0.45531 0.5064 0.0
H2012 H 0.61918 0.44907 0.48848 0.0
H2013 H 0.65254 0.49117 0.5651 0.0
H2014 H 0.66377 0.46998 0.57553 0.0
H2015 H 0.6365 0.47132 0.57289 0.0
C2016 C 0.73068 0.24347 0.3447 0.0
C2017 C 0.74856 0.24044 0.33564 0.0
C2018 C 0.731 0.25546 0.36137 0.0
C2019 C 0.74966 0.2647 0.36919 0.0
C2020 C 0.76784 0.26139 0.36031 0.0
C2021 C 0.76708 0.24926 0.34365 0.0
C2022 C 0.71131 0.25847 0.37047 0.0
C2023 C 0.78803 0.27101 0.3682 0.0
C2024 C 0.74712 0.3117 0.40164 0.0
C2025 C 0.74997 0.30382 0.4191 0.0
C2026 C 0.74713 0.29916 0.38531 0.0
C2027 C 0.75002 0.27821 0.38643 0.0
C2028 C 0.75288 0.27014 0.404 0.0
C2029 C 0.75282 0.28303 0.42011 0.0
C2030 C 0.74406 0.30836 0.36684 0.0
C2031 C 0.7559 0.24787 0.40577 0.0
H2032 H 0.71637 0.23644 0.33873 0.0
H2033 H 0.78092 0.24711 0.33664 0.0
H2034 H 0.71265 0.25374 0.3849 0.0
H2035 H 0.70807 0.27477 0.37116 0.0
H2036 H 0.69819 0.24974 0.3629 0.0
H2037 H 0.80085 0.26642 0.35995 0.0
H2038 H 0.78752 0.28776 0.36863 0.0
H2039 H 0.79109 0.26678 0.38265 0.0
H2040 H 0.74521 0.32778 0.40073 0.0
H2041 H 0.75478 0.27677 0.43354 0.0
H2042 H 0.73037 0.30104 0.35898 0.0
H2043 H 0.75726 0.30558 0.35846 0.0
H2044 H 0.74219 0.32495 0.36834 0.0
H2045 H 0.74246 0.23875 0.39927 0.0
H2046 H 0.75821 0.24403 0.42044 0.0
H2047 H 0.76928 0.24331 0.39831 0.0
C2048 C 0.51622 0.99978 0.90856 0.0
C2049 C 0.5086 0.01832 0.91432 0.0
C2050 C 0.52795 0.99813 0.8931 0.0
C2051 C 0.53192 0.01542 0.88303 0.0
C2052 C 0.524 0.03415 0.88865 0.0
C2053 C 0.51251 0.0354 0.9043 0.0
C2054 C 0.53628 0.97795 0.88766 0.0
C2055 C 0.52771 0.05285 0.87814 0.0
C2056 C 0.57782 0.01587 0.8539 0.0
C2057 C 0.56894 0.00997 0.83615 0.0
C2058 C 0.56595 0.01777 0.86924 0.0
C2059 C 0.54461 0.01394 0.86679 0.0
C2060 C 0.53548 0.00834 0.84888 0.0
C2061 C 0.54775 0.00631 0.83381 0.0
C2062 C 0.57628 0.02368 0.88813 0.0
C2063 C 0.51275 0.00427 0.84569 0.0
H2064 H 0.51319 0.98658 0.91631 0.0
H2065 H 0.50653 0.04976 0.90861 0.0
H2066 H 0.53081 0.97299 0.87323 0.0
H2067 H 0.55314 0.97946 0.8881 0.0
H2068 H 0.53175 0.96597 0.89691 0.0
H2069 H 0.52011 0.06613 0.88404 0.0
H2070 H 0.54428 0.05676 0.87833 0.0
H2071 H 0.52208 0.04986 0.86343 0.0
H2072 H 0.59412 0.01911 0.85583 0.0
H2073 H 0.54074 1.00149 0.82023 0.0
H2074 H 0.57313 0.01165 0.89774 0.0
H2075 H 0.57009 0.03778 0.89397 0.0
H2076 H 0.59303 0.02615 0.8877 0.0
H2077 H 0.5078 0.99123 0.85354 0.0
H2078 H 0.50793 1.00087 0.83081 0.0
H2079 H 0.50473 0.01758 0.85089 0.0
C2080 C 0.274 0.26572 0.33707 0.0
C2081 C 0.29267 0.27374 0.3317 0.0
C2082 C 0.27301 0.25445 0.35283 0.0
C2083 C 0.29112 0.25112 0.36354 0.0
C2084 C 0.31001 0.25916 0.35819 0.0
C2085 C 0.31056 0.27035 0.34235 0.0
C2086 C 0.25258 0.24606 0.35801 0.0
C2087 C 0.32965 0.25603 0.36927 0.0
C2088 C 0.28687 0.23785 0.41355 0.0
C2089 C 0.28856 0.21677 0.41225 0.0
C2090 C 0.28772 0.24921 0.39784 0.0
C2091 C 0.29029 0.23927 0.38035 0.0
C2092 C 0.29202 0.21801 0.37894 0.0
C2093 C 0.29116 0.20703 0.39489 0.0
C2094 C 0.28592 0.27187 0.39994 0.0
C2095 C 0.29468 0.20683 0.36055 0.0
H2096 H 0.26014 0.26806 0.32879 0.0
H2097 H 0.32501 0.27672 0.33844 0.0
H2098 H 0.25261 0.22932 0.35825 0.0
H2099 H 0.24958 0.25204 0.37215 0.0
H2100 H 0.23993 0.24997 0.34823 0.0
H2101 H 0.34308 0.26318 0.36322 0.0
H2102 H 0.32894 0.26249 0.38368 0.0
H2103 H 0.33187 0.23959 0.37001 0.0
H2104 H 0.28513 0.24554 0.42694 0.0
H2105 H 0.2922 0.19072 0.39372 0.0
H2106 H 0.27271 0.27629 0.39112 0.0
H2107 H 0.2997 0.27975 0.39518 0.0
H2108 H 0.28401 0.27731 0.4145 0.0
H2109 H 0.2816 0.20921 0.35066 0.0
H2110 H 0.29589 0.19029 0.3618 0.0
H2111 H 0.30859 0.21292 0.35452 0.0
C2112 C 0.53392 0.50784 0.91586 0.0
C2113 C 0.53793 0.4883 0.92115 0.0
C2114 C 0.52196 0.51075 0.89962 0.0
C2115 C 0.51358 0.49372 0.88844 0.0
C2116 C 0.51723 0.47395 0.89384 0.0
C2117 C 0.5294 0.47148 0.91009 0.0
C2118 C 0.51844 0.53209 0.89434 0.0
C2119 C 0.50847 0.45542 0.88233 0.0
C2120 C 0.46868 0.50218 0.85472 0.0
C2121 C 0.4781 0.50362 0.838 0.0
C2122 C 0.47999 0.49865 0.87119 0.0
C2123 C 0.50125 0.49667 0.87096 0.0
C2124 C 0.51082 0.49798 0.85409 0.0
C2125 C 0.49911 0.50137 0.83781 0.0
C2126 C 0.46919 0.49714 0.88884 0.0
C2127 C 0.53348 0.49614 0.85331 0.0
H2128 H 0.54013 0.52093 0.92447 0.0
H2129 H 0.53259 0.45633 0.91393 0.0
H2130 H 0.52429 0.53444 0.88058 0.0
H2131 H 0.50189 0.5345 0.8932 0.0
H2132 H 0.52599 0.54371 0.90456 0.0
H2133 H 0.51212 0.44112 0.88877 0.0
H2134 H 0.49169 0.45596 0.88035 0.0
H2135 H 0.51451 0.45515 0.86839 0.0
H2136 H 0.4524 0.50363 0.85489 0.0
H2137 H 0.50649 0.50267 0.82496 0.0
H2138 H 0.47533 0.50927 0.89922 0.0
H2139 H 0.47197 0.48242 0.89485 0.0
H2140 H 0.45251 0.49849 0.88659 0.0
H2141 H 0.54173 0.50835 0.86242 0.0
H2142 H 0.53852 0.49714 0.83905 0.0
H2143 H 0.53792 0.48148 0.85854 0.0
C2144 C 0.73343 0.78387 0.1514 0.0
C2145 C 0.74647 0.78169 0.16706 0.0
C2146 C 0.73569 0.77248 0.13474 0.0
C2147 C 0.75114 0.75838 0.13392 0.0
C2148 C 0.76413 0.75596 0.14988 0.0
C2149 C 0.76175 0.76783 0.16624 0.0
C2150 C 0.72179 0.77576 0.11795 0.0
C2151 C 0.78054 0.74087 0.14969 0.0
C2152 C 0.74612 0.71593 0.09588 0.0
C2153 C 0.76034 0.72253 0.08358 0.0
C2154 C 0.743 0.7274 0.11229 0.0
C2155 C 0.7539 0.74627 0.11634 0.0
C2156 C 0.76783 0.75334 0.1038 0.0
C2157 C 0.77108 0.7413 0.08775 0.0
C2158 C 0.72825 0.71918 0.12545 0.0
C2159 C 0.77949 0.77356 0.10746 0.0
H2160 H 0.72171 0.79475 0.15215 0.0
H2161 H 0.77179 0.76625 0.17845 0.0
H2162 H 0.73094 0.78069 0.10653 0.0
H2163 H 0.71338 0.76134 0.11295 0.0
H2164 H 0.7106 0.78733 0.12088 0.0
H2165 H 0.78888 0.74035 0.16344 0.0
H2166 H 0.77376 0.7255 0.14538 0.0
H2167 H 0.79163 0.74483 0.13943 0.0
H2168 H 0.73733 0.70174 0.09272 0.0
H2169 H 0.78236 0.74651 0.07864 0.0
H2170 H 0.71605 0.72986 0.12751 0.0
H2171 H 0.73626 0.71769 0.1392 0.0
H2172 H 0.72111 0.70414 0.12038 0.0
H2173 H 0.76881 0.78573 0.1099 0.0
H2174 H 0.78876 0.77748 0.09578 0.0
H2175 H 0.78977 0.77332 0.12015 0.0
C2176 C 0.02816 0.0182 0.09204 0.0
C2177 C 0.03782 0.03661 0.088 0.0
C2178 C 0.01628 0.017 0.1074 0.0
C2179 C 0.0143 0.03456 0.11918 0.0
C2180 C 0.02429 0.05312 0.11531 0.0
C2181 C 0.0358 0.05395 0.0997 0.0
C2182 C 0.00563 0.997 0.11088 0.0
C2183 C 0.02286 0.0721 0.12769 0.0
C2184 C 0.96906 0.03723 0.14918 0.0
C2185 C 0.97751 0.032 0.16642 0.0
C2186 C 0.98078 0.0379 0.13368 0.0
C2187 C 1.0016 0.03359 0.13546 0.0
C2188 C 0.01031 0.02848 0.15281 0.0
C2189 C 0.99815 0.02758 0.168 0.0
C2190 C 0.97087 0.04324 0.11539 0.0
C2191 C 0.0325 0.02398 0.15533 0.0
H2192 H 0.02956 0.00481 0.08293 0.0
H2193 H 0.04344 0.06816 0.09673 0.0
H2194 H 0.01057 0.9923 0.12482 0.0
H2195 H 0.98896 0.99866 0.11064 0.0
H2196 H 0.00872 0.98477 0.10043 0.0
H2197 H 0.03194 0.0852 0.12301 0.0
H2198 H 0.00676 0.07615 0.12801 0.0
H2199 H 0.02829 0.06941 0.14209 0.0
H2200 H 0.95328 0.04103 0.14779 0.0
H2201 H 0.00482 0.02315 0.18109 0.0
H2202 H 0.97275 0.031 0.10459 0.0
H2203 H 0.97841 0.05729 0.11086 0.0
H2204 H 0.95438 0.04558 0.11615 0.0
H2205 H 0.03569 0.01076 0.14603 0.0
H2206 H 0.03707 0.0207 0.16981 0.0
H2207 H 0.04214 0.03707 0.15145 0.0
C2208 C 0.28855 0.75341 0.15976 0.0
C2209 C 0.29893 0.76283 0.17572 0.0
C2210 C 0.2846 0.76423 0.14395 0.0
C2211 C 0.29113 0.78496 0.14416 0.0
C2212 C 0.30157 0.79453 0.16028 0.0
C2213 C 0.3054 0.78332 0.17585 0.0
C2214 C 0.2735 0.75346 0.127 0.0
C2215 C 0.30871 0.81662 0.16107 0.0
C2216 C 0.29746 0.80846 0.09817 0.0
C2217 C 0.27935 0.81853 0.09576 0.0
C2218 C 0.30149 0.79749 0.11385 0.0
C2219 C 0.28709 0.7966 0.12749 0.0
C2220 C 0.26882 0.8068 0.12519 0.0
C2221 C 0.26516 0.81761 0.10934 0.0
C2222 C 0.32109 0.78672 0.11575 0.0
C2223 C 0.25316 0.80633 0.13949 0.0
H2224 H 0.28356 0.73754 0.15953 0.0
H2225 H 0.31344 0.79061 0.18819 0.0
H2226 H 0.25933 0.76111 0.12339 0.0
H2227 H 0.28308 0.75421 0.115 0.0
H2228 H 0.26947 0.73729 0.12906 0.0
H2229 H 0.31647 0.82184 0.1747 0.0
H2230 H 0.3194 0.8192 0.15013 0.0
H2231 H 0.29558 0.8261 0.15835 0.0
H2232 H 0.30837 0.8089 0.08761 0.0
H2233 H 0.25126 0.82558 0.10768 0.0
H2234 H 0.3177 0.77023 0.11662 0.0
H2235 H 0.32992 0.79229 0.12876 0.0
H2236 H 0.33073 0.78897 0.10395 0.0
H2237 H 0.24783 0.79044 0.14124 0.0
H2238 H 0.23977 0.8151 0.13565 0.0
H2239 H 0.26009 0.81263 0.1531 0.0
C2240 C 0.98969 0.49331 0.09753 0.0
C2241 C 0.99818 0.48943 0.08051 0.0
C2242 C 1.00168 0.49367 0.1143 0.0
C2243 C 0.02268 0.4902 0.11401 0.0
C2244 C 0.03138 0.48656 0.09685 0.0
C2245 C 0.01902 0.48618 0.08033 0.0
C2246 C 0.99183 0.4975 0.13233 0.0
C2247 C 0.05374 0.483 0.09593 0.0
C2248 C 0.05849 0.50837 0.15551 0.0
C2249 C 0.06159 0.49031 0.16425 0.0
C2250 C 0.04571 0.50859 0.13929 0.0
C2251 C 0.03562 0.49034 0.13164 0.0
C2252 C 0.03836 0.47211 0.14054 0.0
C2253 C 0.05135 0.4723 0.1567 0.0
C2254 C 0.0432 0.52834 0.13021 0.0
C2255 C 0.02783 0.45233 0.13283 0.0
H2256 H 0.97355 0.49563 0.09776 0.0
H2257 H 0.02571 0.48343 0.06719 0.0
H2258 H 0.99356 0.48433 0.14095 0.0
H2259 H 0.99953 0.51088 0.14028 0.0
H2260 H 0.97538 0.50016 0.13017 0.0
H2261 H 0.05817 0.48058 0.08147 0.0
H2262 H 0.063 0.49616 0.10273 0.0
H2263 H 0.05759 0.46953 0.10357 0.0
H2264 H 0.06601 0.52244 0.16142 0.0
H2265 H 0.0538 0.45823 0.16321 0.0
H2266 H 0.02689 0.53174 0.12896 0.0
H2267 H 0.04848 0.52706 0.11598 0.0
H2268 H 0.05186 0.54127 0.13807 0.0
H2269 H 0.01115 0.4539 0.13123 0.0
H2270 H 0.03088 0.43966 0.14181 0.0
H2271 H 0.03299 0.44834 0.11887 0.0
C2272 C 0.33928 0.70903 0.26586 0.0
C2273 C 0.3402 0.71224 0.24696 0.0
C2274 C 0.35662 0.71219 0.27817 0.0
C2275 C 0.37531 0.71897 0.27148 0.0
C2276 C 0.37635 0.72236 0.25246 0.0
C2277 C 0.35882 0.71886 0.24042 0.0
C2278 C 0.35491 0.70832 0.29834 0.0
C2279 C 0.39598 0.72973 0.24483 0.0
C2280 C 0.41536 0.74551 0.30583 0.0
C2281 C 0.42899 0.73018 0.30869 0.0
C2282 C 0.39788 0.74207 0.29374 0.0
C2283 C 0.39373 0.72275 0.28444 0.0
C2284 C 0.40721 0.70712 0.28745 0.0
C2285 C 0.42471 0.71104 0.29947 0.0
C2286 C 0.38391 0.75916 0.29086 0.0
C2287 C 0.40321 0.68627 0.27787 0.0
H2288 H 0.32491 0.70422 0.27111 0.0
H2289 H 0.35977 0.7211 0.22581 0.0
H2290 H 0.36592 0.69707 0.30262 0.0
H2291 H 0.35882 0.7225 0.30706 0.0
H2292 H 0.33939 0.7026 0.30124 0.0
H2293 H 0.3942 0.7318 0.22973 0.0
H2294 H 0.40153 0.74439 0.25209 0.0
H2295 H 0.40786 0.71876 0.24735 0.0
H2296 H 0.4183 0.76023 0.31314 0.0
H2297 H 0.43524 0.69917 0.30138 0.0
H2298 H 0.36843 0.75472 0.29485 0.0
H2299 H 0.38256 0.76232 0.27599 0.0
H2300 H 0.38939 0.77333 0.29904 0.0
H2301 H 0.38806 0.67987 0.28109 0.0
H2302 H 0.4149 0.67563 0.28205 0.0
H2303 H 0.40293 0.6873 0.26264 0.0
C2304 C 0.98702 0.42477 0.98981 0.0
C2305 C 0.98694 0.41981 0.00834 0.0
C2306 C 0.99079 0.41012 0.97577 0.0
C2307 C 0.99437 0.39006 0.98038 0.0
C2308 C 0.99425 0.38502 0.99908 0.0
C2309 C 0.99065 0.39999 0.01284 0.0
C2310 C 0.991 0.41611 0.95601 0.0
C2311 C 0.99781 0.36376 0.00456 0.0
C2312 C 0.98521 0.34651 0.94373 0.0
C2313 C 0.00513 0.34224 0.93961 0.0
C2314 C 0.98148 0.36224 0.95673 0.0
C2315 C 0.99804 0.3742 0.9657 0.0
C2316 C 0.01814 0.3704 0.96122 0.0
C2317 C 0.02145 0.35441 0.94831 0.0
C2318 C 0.95982 0.36577 0.96116 0.0
C2319 C 0.03619 0.38291 0.9704 0.0
H2320 H 0.98429 0.44012 0.98627 0.0
H2321 H 0.99061 0.39617 0.02717 0.0
H2322 H 0.00591 0.41299 0.95047 0.0
H2323 H 0.97918 0.40689 0.94719 0.0
H2324 H 0.98823 0.4324 0.95475 0.0
H2325 H 0.99713 0.36231 0.0197 0.0
H2326 H 0.98621 0.35293 0.99718 0.0
H2327 H 0.01291 0.35922 1.00043 0.0
H2328 H 0.97246 0.33748 0.93683 0.0
H2329 H 0.0369 0.35113 0.94541 0.0
H2330 H 0.95629 0.38168 0.95893 0.0
H2331 H 0.95792 0.36333 0.97598 0.0
H2332 H 0.94861 0.35552 0.95258 0.0
H2333 H 0.03412 0.39927 0.96886 0.0
H2334 H 0.05072 0.37891 0.96451 0.0
H2335 H 0.0374 0.3806 0.98545 0.0
C2336 C 0.67711 0.79092 0.24756 0.0
C2337 C 0.69684 0.79525 0.25568 0.0
C2338 C 0.66075 0.78677 0.25851 0.0
C2339 C 0.66427 0.78668 0.27799 0.0
C2340 C 0.68422 0.7909 0.28621 0.0
C2341 C 0.70022 0.79529 0.27495 0.0
C2342 C 0.63966 0.78263 0.24926 0.0
C2343 C 0.68867 0.79072 0.30689 0.0
C2344 C 0.62045 0.79412 0.30896 0.0
C2345 C 0.61503 0.77413 0.31282 0.0
C2346 C 0.63626 0.79839 0.29745 0.0
C2347 C 0.64711 0.78231 0.28983 0.0
C2348 C 0.64175 0.7621 0.29375 0.0
C2349 C 0.62567 0.75825 0.30509 0.0
C2350 C 0.64131 0.82011 0.2934 0.0
C2351 C 0.65313 0.74457 0.28612 0.0
H2352 H 0.67439 0.79101 0.23266 0.0
H2353 H 0.71548 0.79863 0.28123 0.0
H2354 H 0.63358 0.76737 0.25237 0.0
H2355 H 0.62923 0.79378 0.25482 0.0
H2356 H 0.63943 0.78343 0.23398 0.0
H2357 H 0.70508 0.79388 0.31105 0.0
H2358 H 0.67985 0.80226 0.31411 0.0
H2359 H 0.68382 0.77575 0.31172 0.0
H2360 H 0.61209 0.80641 0.31473 0.0
H2361 H 0.62163 0.74279 0.30817 0.0
H2362 H 0.64008 0.82171 0.27823 0.0
H2363 H 0.65724 0.82456 0.29842 0.0
H2364 H 0.6311 0.83081 0.30004 0.0
H2365 H 0.65218 0.74413 0.27076 0.0
H2366 H 0.64708 0.72976 0.29047 0.0
H2367 H 0.66947 0.74664 0.29087 0.0
C2368 C 0.04386 0.0983 0.00229 0.0
C2369 C 0.06411 0.09401 0.00684 0.0
C2370 C 0.03914 0.11254 0.98926 0.0
C2371 C 0.05506 0.12284 0.98075 0.0
C2372 C 0.07552 0.1186 0.9854 0.0
C2373 C 0.07977 0.10414 0.99831 0.0
C2374 C 0.01714 0.1165 0.98451 0.0
C2375 C 0.09294 0.12937 0.97679 0.0
C2376 C 0.04414 0.14675 0.93499 0.0
C2377 C 0.04266 0.16718 0.94081 0.0
C2378 C 0.04785 0.1321 0.94785 0.0
C2379 C 0.05038 0.13807 0.96699 0.0
C2380 C 0.04891 0.15869 0.97294 0.0
C2381 C 0.04496 0.17297 0.95979 0.0
C2382 C 0.04909 0.11025 0.94097 0.0
C2383 C 0.05178 0.16571 0.99319 0.0
H2384 H 0.03168 0.09042 0.00876 0.0
H2385 H 0.09543 0.10082 1.00182 0.0
H2386 H 0.01449 0.13271 0.98775 0.0
H2387 H 0.01342 0.1133 0.96945 0.0
H2388 H 0.00655 0.1071 0.9922 0.0
H2389 H 0.108 0.12454 0.9821 0.0
H2390 H 0.09149 0.12637 0.96153 0.0
H2391 H 0.09245 0.14599 0.97966 0.0
H2392 H 0.04215 0.14219 0.92034 0.0
H2393 H 0.04405 0.18878 0.96434 0.0
H2394 H 0.03784 0.10055 0.94763 0.0
H2395 H 0.06439 0.10495 0.94483 0.0
H2396 H 0.04619 0.108 0.9257 0.0
H2397 H 0.04063 0.15742 1.0012 0.0
H2398 H 0.04994 0.18223 0.99556 0.0
H2399 H 0.06719 0.16226 0.99878 0.0
C2400 C 0.37493 0.26975 0.26373 0.0
C2401 C 0.35678 0.27957 0.26088 0.0
C2402 C 0.38888 0.26842 0.24991 0.0
C2403 C 0.38454 0.27712 0.23282 0.0
C2404 C 0.36617 0.287 0.22984 0.0
C2405 C 0.3525 0.28811 0.24391 0.0
C2406 C 0.40828 0.25774 0.25362 0.0
C2407 C 0.36099 0.29646 0.21181 0.0
C2408 C 0.42893 0.28966 0.20371 0.0
C2409 C 0.42781 0.27301 0.19069 0.0
C2410 C 0.41484 0.29128 0.21739 0.0
C2411 C 0.39924 0.27589 0.21807 0.0
C2412 C 0.39786 0.25919 0.20482 0.0
C2413 C 0.41215 0.25796 0.1913 0.0
C2414 C 0.41683 0.30932 0.23129 0.0
C2415 C 0.38139 0.24253 0.20502 0.0
H2416 H 0.37825 0.26314 0.27684 0.0
H2417 H 0.33848 0.29571 0.24157 0.0
H2418 H 0.40921 0.24496 0.24313 0.0
H2419 H 0.42163 0.26833 0.25237 0.0
H2420 H 0.40936 0.25175 0.26761 0.0
H2421 H 0.34605 0.30351 0.21164 0.0
H2422 H 0.37291 0.30823 0.20935 0.0
H2423 H 0.36062 0.2848 0.20012 0.0
H2424 H 0.44113 0.30121 0.2035 0.0
H2425 H 0.41102 0.24519 0.18113 0.0
H2426 H 0.41955 0.30413 0.24546 0.0
H2427 H 0.40247 0.31736 0.23101 0.0
H2428 H 0.42949 0.32022 0.22858 0.0
H2429 H 0.38267 0.23519 0.21838 0.0
H2430 H 0.38222 0.23073 0.19357 0.0
H2431 H 0.3662 0.24898 0.20386 0.0
C2432 C 0.5748 0.42057 0.01589 0.0
C2433 C 0.56072 0.4284 0.00329 0.0
C2434 C 0.56877 0.40574 0.02777 0.0
C2435 C 0.54813 0.39855 0.02702 0.0
C2436 C 0.53379 0.4065 0.01439 0.0
C2437 C 0.54026 0.42136 0.00266 0.0
C2438 C 0.58454 0.39767 0.04104 0.0
C2439 C 0.51166 0.3992 0.01318 0.0
C2440 C 0.53713 0.34674 0.04524 0.0
C2441 C 0.53108 0.35186 0.06307 0.0
C2442 C 0.54241 0.36178 0.03329 0.0
C2443 C 0.54169 0.38246 0.03928 0.0
C2444 C 0.53541 0.38775 0.05718 0.0
C2445 C 0.5302 0.37239 0.06886 0.0
C2446 C 0.5491 0.35551 0.01434 0.0
C2447 C 0.53441 0.40964 0.06406 0.0
H2448 H 0.59062 0.42603 0.01641 0.0
H2449 H 0.52928 0.42738 0.99298 0.0
H2450 H 0.58008 0.40009 0.05547 0.0
H2451 H 0.5854 0.3811 0.03814 0.0
H2452 H 0.5999 0.40505 0.04006 0.0
H2453 H 0.50238 0.40713 0.00284 0.0
H2454 H 0.51022 0.38269 0.00933 0.0
H2455 H 0.50529 0.40157 0.02689 0.0
H2456 H 0.53816 0.33093 0.04076 0.0
H2457 H 0.52531 0.37646 0.08252 0.0
H2458 H 0.56503 0.36121 0.01311 0.0
H2459 H 0.53952 0.36234 0.00349 0.0
H2460 H 0.54816 0.33879 0.01154 0.0
H2461 H 0.54975 0.4174 0.06439 0.0
H2462 H 0.52874 0.41121 0.07816 0.0
H2463 H 0.52427 0.41759 0.05445 0.0
C2464 C 0.69159 0.21358 0.22467 0.0
C2465 C 0.69421 0.22196 0.24292 0.0
C2466 C 0.6747 0.21786 0.21305 0.0
C2467 C 0.66014 0.23091 0.21986 0.0
C2468 C 0.66277 0.2395 0.23828 0.0
C2469 C 0.67977 0.2349 0.24961 0.0
C2470 C 0.67239 0.20835 0.19352 0.0
C2471 C 0.64759 0.25352 0.24603 0.0
C2472 C 0.62567 0.25616 0.18514 0.0
C2473 C 0.60763 0.24396 0.1849 0.0
C2474 C 0.64288 0.25211 0.19647 0.0
C2475 C 0.64203 0.23542 0.20778 0.0
C2476 C 0.62388 0.22303 0.20758 0.0
C2477 C 0.6069 0.22746 0.19615 0.0
C2478 C 0.66193 0.26573 0.19639 0.0
C2479 C 0.62242 0.20504 0.21937 0.0
H2480 H 0.70275 0.20357 0.21949 0.0
H2481 H 0.6817 0.24147 0.26371 0.0
H2482 H 0.65788 0.19903 0.1914 0.0
H2483 H 0.67173 0.22034 0.18348 0.0
H2484 H 0.6851 0.1986 0.19032 0.0
H2485 H 0.65198 0.25915 0.26055 0.0
H2486 H 0.64616 0.26673 0.23741 0.0
H2487 H 0.63236 0.24552 0.24558 0.0
H2488 H 0.62625 0.26907 0.17664 0.0
H2489 H 0.5931 0.2178 0.19583 0.0
H2490 H 0.67482 0.25671 0.19226 0.0
H2491 H 0.66607 0.27264 0.21054 0.0
H2492 H 0.66012 0.27806 0.18677 0.0
H2493 H 0.63405 0.19421 0.21572 0.0
H2494 H 0.60719 0.19694 0.21764 0.0
H2495 H 0.62559 0.21006 0.23419 0.0
C2496 C 0.45843 0.09117 1.00129 0.0
C2497 C 0.47486 0.08202 0.99338 0.0
C2498 C 0.46148 0.10865 0.0133 0.0
C2499 C 0.48138 0.11752 0.01719 0.0
C2500 C 0.49797 0.10872 0.00891 0.0
C2501 C 0.49454 0.09099 0.99726 0.0
C2502 C 0.44342 0.11747 0.02202 0.0
C2503 C 0.51939 0.11789 0.01253 0.0
C2504 C 0.48682 0.17244 0.03627 0.0
C2505 C 0.49169 0.17025 0.05511 0.0
C2506 C 0.4836 0.15541 0.02371 0.0
C2507 C 0.4849 0.13575 0.03026 0.0
C2508 C 0.48957 0.13349 0.04935 0.0
C2509 C 0.49311 0.15079 0.06152 0.0
C2510 C 0.47905 0.15844 0.00342 0.0
C2511 C 0.49071 0.11279 0.05693 0.0
H2512 H 0.44311 0.08467 0.99811 0.0
H2513 H 0.5074 0.08394 0.99147 0.0
H2514 H 0.44572 0.11776 0.03733 0.0
H2515 H 0.44197 0.13336 0.01827 0.0
H2516 H 0.42893 0.10869 0.01764 0.0
H2517 H 0.53045 0.10985 0.00422 0.0
H2518 H 0.51995 0.13406 0.00926 0.0
H2519 H 0.52427 0.11738 0.02741 0.0
H2520 H 0.48591 0.18751 0.03131 0.0
H2521 H 0.49671 0.14912 0.07613 0.0
H2522 H 0.46408 0.15091 0.9986 0.0
H2523 H 0.49066 0.1513 0.99514 0.0
H2524 H 0.47882 0.17472 1.00054 0.0
H2525 H 0.47607 0.10392 0.0536 0.0
H2526 H 0.49409 0.11365 0.07217 0.0
H2527 H 0.5027 0.10434 0.0503 0.0
C2528 C 0.29214 0.33833 0.71029 0.0
C2529 C 0.27124 0.33974 0.71238 0.0
C2530 C 0.30578 0.35526 0.71409 0.0
C2531 C 0.29836 0.37408 0.72009 0.0
C2532 C 0.27731 0.37557 0.72239 0.0
C2533 C 0.26402 0.35838 0.71853 0.0
C2534 C 0.32813 0.35304 0.71157 0.0
C2535 C 0.2688 0.39538 0.72871 0.0
C2536 C 0.33537 0.41428 0.74477 0.0
C2537 C 0.33945 0.42694 0.73046 0.0
C2538 C 0.32207 0.39701 0.7416 0.0
C2539 C 0.31256 0.3923 0.72368 0.0
C2540 C 0.31661 0.40501 0.70918 0.0
C2541 C 0.33001 0.42216 0.71273 0.0
C2542 C 0.31822 0.38377 0.75739 0.0
C2543 C 0.30669 0.40055 0.68991 0.0
H2544 H 0.29785 0.32391 0.70577 0.0
H2545 H 0.24786 0.35962 0.71997 0.0
H2546 H 0.33328 0.36329 0.70104 0.0
H2547 H 0.33718 0.35755 0.72473 0.0
H2548 H 0.3315 0.33728 0.70711 0.0
H2549 H 0.25213 0.39392 0.73015 0.0
H2550 H 0.27642 0.40111 0.74223 0.0
H2551 H 0.27189 0.40694 0.71863 0.0
H2552 H 0.34281 0.41775 0.75845 0.0
H2553 H 0.33288 0.43201 0.70167 0.0
H2554 H 0.32263 0.36813 0.75383 0.0
H2555 H 0.30176 0.38286 0.75976 0.0
H2556 H 0.32682 0.38952 0.77049 0.0
H2557 H 0.31059 0.38533 0.6844 0.0
H2558 H 0.31148 0.41191 0.68015 0.0
H2559 H 0.2899 0.40032 0.69034 0.0
C2560 C 0.28801 0.68914 0.77619 0.0
C2561 C 0.28086 0.69114 0.79401 0.0
C2562 C 0.30168 0.67435 0.77157 0.0
C2563 C 0.30859 0.66132 0.78514 0.0
C2564 C 0.30191 0.6636 0.80329 0.0
C2565 C 0.28808 0.67841 0.80749 0.0
C2566 C 0.30839 0.67238 0.75204 0.0
C2567 C 0.30902 0.65009 0.81818 0.0
C2568 C 0.32655 0.60993 0.76892 0.0
C2569 C 0.3478 0.6133 0.77049 0.0
C2570 C 0.31366 0.62543 0.77357 0.0
C2571 C 0.32217 0.64479 0.78013 0.0
C2572 C 0.34358 0.64832 0.78182 0.0
C2573 C 0.35612 0.63258 0.77692 0.0
C2574 C 0.2909 0.62105 0.77149 0.0
C2575 C 0.35324 0.66874 0.78883 0.0
H2576 H 0.28282 0.69912 0.76577 0.0
H2577 H 0.28249 0.67963 0.82123 0.0
H2578 H 0.32523 0.67372 0.75221 0.0
H2579 H 0.30342 0.65718 0.74556 0.0
H2580 H 0.30208 0.68406 0.74326 0.0
H2581 H 0.30334 0.65455 0.83186 0.0
H2582 H 0.30367 0.63416 0.81426 0.0
H2583 H 0.32589 0.65056 0.81959 0.0
H2584 H 0.31993 0.59502 0.76432 0.0
H2585 H 0.37249 0.63545 0.77797 0.0
H2586 H 0.28381 0.63167 0.76205 0.0
H2587 H 0.28433 0.62348 0.78511 0.0
H2588 H 0.2867 0.60529 0.76594 0.0
H2589 H 0.34818 0.68055 0.77962 0.0
H2590 H 0.37012 0.66896 0.78959 0.0
H2591 H 0.34825 0.6729 0.80283 0.0
C2592 C 0.91457 0.52293 0.48142 0.0
C2593 C 0.93324 0.51542 0.47682 0.0
C2594 C 0.89808 0.50977 0.48486 0.0
C2595 C 0.9003 0.48858 0.48366 0.0
C2596 C 0.91908 0.48089 0.47898 0.0
C2597 C 0.93532 0.49441 0.4756 0.0
C2598 C 0.87826 0.51854 0.48973 0.0
C2599 C 0.92204 0.45839 0.47762 0.0
C2600 C 0.86342 0.45552 0.50852 0.0
C2601 C 0.84931 0.44842 0.49399 0.0
C2602 C 0.88016 0.4685 0.50535 0.0
C2603 C 0.88289 0.47447 0.4872 0.0
C2604 C 0.86881 0.4672 0.47245 0.0
C2605 C 0.85219 0.45428 0.47603 0.0
C2606 C 0.89482 0.47601 0.52144 0.0
C2607 C 0.87127 0.47312 0.45289 0.0
H2608 H 0.91278 0.53914 0.48214 0.0
H2609 H 0.94979 0.48853 0.47228 0.0
H2610 H 0.86588 0.5128 0.47938 0.0
H2611 H 0.87405 0.51361 0.5034 0.0
H2612 H 0.87909 0.53537 0.49025 0.0
H2613 H 0.93756 0.45486 0.47375 0.0
H2614 H 0.91937 0.45192 0.49107 0.0
H2615 H 0.91078 0.4507 0.46714 0.0
H2616 H 0.86116 0.45121 0.52247 0.0
H2617 H 0.84152 0.44859 0.46469 0.0
H2618 H 0.89501 0.49278 0.52321 0.0
H2619 H 0.91048 0.47191 0.51862 0.0
H2620 H 0.89077 0.46964 0.53463 0.0
H2621 H 0.87101 0.48983 0.45237 0.0
H2622 H 0.8591 0.46599 0.44294 0.0
H2623 H 0.88622 0.46863 0.4483 0.0
C2624 C 0.77564 0.84756 0.78589 0.0
C2625 C 0.76887 0.82927 0.79287 0.0
C2626 C 0.76212 0.86266 0.7819 0.0
C2627 C 0.74129 0.85953 0.78515 0.0
C2628 C 0.73437 0.84126 0.79248 0.0
C2629 C 0.74822 0.82633 0.7962 0.0
C2630 C 0.77011 0.88192 0.77411 0.0
C2631 C 0.7123 0.83742 0.79622 0.0
C2632 C 0.7109 0.90665 0.78966 0.0
C2633 C 0.70098 0.90673 0.77197 0.0
C2634 C 0.72371 0.89115 0.79427 0.0
C2635 C 0.72681 0.87541 0.7808 0.0
C2636 C 0.71663 0.87527 0.76298 0.0
C2637 C 0.70376 0.89089 0.7588 0.0
C2638 C 0.73411 0.89173 0.81348 0.0
C2639 C 0.71968 0.85885 0.7482 0.0
H2640 H 0.79162 0.85015 0.78359 0.0
H2641 H 0.74279 0.81217 0.80139 0.0
H2642 H 0.76203 0.88392 0.7605 0.0
H2643 H 0.76716 0.89519 0.78345 0.0
H2644 H 0.78671 0.88195 0.77226 0.0
H2645 H 0.70945 0.82268 0.80241 0.0
H2646 H 0.70741 0.84971 0.80577 0.0
H2647 H 0.70264 0.83753 0.78313 0.0
H2648 H 0.70856 0.91871 0.79998 0.0
H2649 H 0.69626 0.89097 0.74506 0.0
H2650 H 0.75085 0.89314 0.81265 0.0
H2651 H 0.73052 0.87737 0.82003 0.0
H2652 H 0.72947 0.90457 0.82257 0.0
H2653 H 0.73589 0.85919 0.74492 0.0
H2654 H 0.71016 0.86056 0.73524 0.0
H2655 H 0.71592 0.84373 0.75329 0.0
C2656 C 0.59946 0.5307 0.95986 0.0
C2657 C 0.60033 0.50987 0.9622 0.0
C2658 C 0.61679 0.54388 0.96344 0.0
C2659 C 0.63547 0.53606 0.96955 0.0
C2660 C 0.63644 0.51508 0.97209 0.0
C2661 C 0.61886 0.50224 0.96838 0.0
C2662 C 0.61512 0.56617 0.96062 0.0
C2663 C 0.65609 0.50618 0.97856 0.0
C2664 C 0.68409 0.5669 0.96199 0.0
C2665 C 0.68871 0.57683 0.97952 0.0
C2666 C 0.66691 0.55347 0.9586 0.0
C2667 C 0.65404 0.54985 0.97309 0.0
C2668 C 0.65871 0.55967 0.99085 0.0
C2669 C 0.67598 0.57305 0.99385 0.0
C2670 C 0.66239 0.54335 0.93945 0.0
C2671 C 0.64541 0.55612 0.00667 0.0
H2672 H 0.58512 0.53675 0.95535 0.0
H2673 H 0.61971 0.48613 0.97002 0.0
H2674 H 0.61963 0.57522 0.97375 0.0
H2675 H 0.6257 0.57096 0.95022 0.0
H2676 H 0.59946 0.56984 0.95588 0.0
H2677 H 0.6542 0.48963 0.98021 0.0
H2678 H 0.66775 0.50883 0.96847 0.0
H2679 H 0.66202 0.5138 0.99201 0.0
H2680 H 0.69371 0.56994 0.95079 0.0
H2681 H 0.67961 0.58045 0.00749 0.0
H2682 H 0.64742 0.5478 0.93362 0.0
H2683 H 0.66141 0.52664 0.94017 0.0
H2684 H 0.67416 0.54743 0.92982 0.0
H2685 H 0.62977 0.56069 0.00305 0.0
H2686 H 0.65131 0.56471 0.01971 0.0
H2687 H 0.64429 0.53975 0.00918 0.0
C2688 C 0.25553 0.67246 0.22509 0.0
C2689 C 0.27659 0.67024 0.22571 0.0
C2690 C 0.24195 0.65596 0.22753 0.0
C2691 C 0.24963 0.63677 0.23059 0.0
C2692 C 0.27086 0.63438 0.23105 0.0
C2693 C 0.28409 0.65115 0.22863 0.0
C2694 C 0.21941 0.65913 0.22703 0.0
C2695 C 0.27961 0.61412 0.23416 0.0
C2696 C 0.21677 0.59857 0.25413 0.0
C2697 C 0.20833 0.58606 0.23899 0.0
C2698 C 0.23022 0.61514 0.25159 0.0
C2699 C 0.23544 0.61922 0.23349 0.0
C2700 C 0.22705 0.60657 0.21816 0.0
C2701 C 0.21356 0.59017 0.22109 0.0
C2702 C 0.23875 0.62836 0.26827 0.0
C2703 C 0.23237 0.61035 0.19866 0.0
H2704 H 0.24967 0.68723 0.22305 0.0
H2705 H 0.30034 0.6493 0.22889 0.0
H2706 H 0.21123 0.64875 0.21612 0.0
H2707 H 0.21339 0.65543 0.24044 0.0
H2708 H 0.21589 0.67495 0.22429 0.0
H2709 H 0.29645 0.61474 0.2339 0.0
H2710 H 0.27542 0.60889 0.24773 0.0
H2711 H 0.27309 0.60262 0.22335 0.0
H2712 H 0.21259 0.59559 0.26797 0.0
H2713 H 0.20729 0.58039 0.20937 0.0
H2714 H 0.23445 0.6442 0.26683 0.0
H2715 H 0.25561 0.62852 0.26917 0.0
H2716 H 0.23321 0.6231 0.28142 0.0
H2717 H 0.22801 0.62569 0.19513 0.0
H2718 H 0.22463 0.59904 0.18826 0.0
H2719 H 0.24905 0.60987 0.19761 0.0
C2720 C 0.92422 0.51157 0.03158 0.0
C2721 C 0.94407 0.51739 0.03868 0.0
C2722 C 0.90999 0.52608 0.0277 0.0
C2723 C 0.91579 0.54695 0.03086 0.0
C2724 C 0.9358 0.55294 0.03806 0.0
C2725 C 0.94968 0.53808 0.04196 0.0
C2726 C 0.88874 0.51906 0.02023 0.0
C2727 C 0.94261 0.57503 0.04148 0.0
C2728 C 0.88426 0.58366 0.0044 0.0
C2729 C 0.87146 0.59067 0.01784 0.0
C2730 C 0.89899 0.56971 0.00854 0.0
C2731 C 0.90089 0.56248 0.02653 0.0
C2732 C 0.88815 0.56966 0.04021 0.0
C2733 C 0.87364 0.5837 0.03572 0.0
C2734 C 0.91239 0.56255 0.99361 0.0
C2735 C 0.88958 0.56219 0.0595 0.0
H2736 H 0.91973 0.49559 0.02923 0.0
H2737 H 0.96506 0.54266 0.04728 0.0
H2738 H 0.87744 0.52504 0.02955 0.0
H2739 H 0.88545 0.52509 0.00647 0.0
H2740 H 0.88657 0.50227 0.01879 0.0
H2741 H 0.95867 0.57718 0.04718 0.0
H2742 H 0.94104 0.58277 0.02835 0.0
H2743 H 0.93275 0.58259 0.05132 0.0
H2744 H 0.88278 0.58915 0.99061 0.0
H2745 H 0.8636 0.58884 0.0461 0.0
H2746 H 0.90977 0.54596 0.99065 0.0
H2747 H 0.92865 0.56545 0.99841 0.0
H2748 H 0.90948 0.57017 0.98053 0.0
H2749 H 0.88605 0.54559 0.05884 0.0
H2750 H 0.87896 0.56968 0.06869 0.0
H2751 H 0.90531 0.56497 0.06583 0.0
C2752 C 0.11027 0.01656 0.041 0.0
C2753 C 0.09203 0.01013 0.0484 0.0
C2754 C 0.12518 0.00288 0.03692 0.0
C2755 C 0.12208 0.98227 0.04068 0.0
C2756 C 0.1039 0.97567 0.04842 0.0
C2757 C 0.08904 0.98963 0.05205 0.0
C2758 C 0.14428 0.01052 0.02854 0.0
C2759 C 0.10015 0.95387 0.05285 0.0
C2760 C 0.15312 0.944 0.01508 0.0
C2761 C 0.16948 0.942 0.02804 0.0
C2762 C 0.13745 0.95686 0.01908 0.0
C2763 C 0.13798 0.96771 0.03658 0.0
C2764 C 0.15419 0.96528 0.0499 0.0
C2765 C 0.16983 0.95259 0.04541 0.0
C2766 C 0.12062 0.9593 0.00439 0.0
C2767 C 0.15515 0.97627 0.06883 0.0
H2768 H 0.11301 0.03241 0.03849 0.0
H2769 H 0.07494 0.98438 0.05753 0.0
H2770 H 0.1578 0.00816 0.03792 0.0
H2771 H 0.14614 0.00182 0.01525 0.0
H2772 H 0.1441 0.02688 0.02594 0.0
H2773 H 0.08549 0.95126 0.0593 0.0
H2774 H 0.10003 0.94383 0.04003 0.0
H2775 H 0.11266 0.94931 0.06244 0.0
H2776 H 0.15291 0.93593 1.00159 0.0
H2777 H 0.18236 0.95089 0.05553 0.0
H2778 H 0.12079 0.97528 1.00056 0.0
H2779 H 0.1056 0.95573 0.00983 0.0
H2780 H 0.1221 0.94937 0.99169 0.0
H2781 H 0.15667 0.99287 0.06746 0.0
H2782 H 0.16815 0.97185 0.07796 0.0
H2783 H 0.14084 0.97308 0.07563 0.0
loop_
_geom_bond_atom_site_label_1
_geom_bond_atom_site_label_2
_geom_bond_distance
_geom_bond_site_symmetry_2
_ccdc_geom_bond_type
H0 C5 0.930 . S
H1 C8 0.930 . S
H2 C10 0.930 . S
H3 C4 1.016 1_556 S
C4 H3 1.016 1_554 S
C4 N11 1.286 . S
C5 H0 0.930 . S
C5 C6 1.397 . S
C5 C7 1.361 . S
C6 C5 1.397 . S
C6 C10 1.390 . S
C7 C5 1.361 . S
C7 C8 1.393 . S
C7 N11 1.413 . S
C8 H1 0.930 . S
C8 C7 1.393 . S
C8 C9 1.399 . S
C9 C8 1.399 . S
C9 C10 1.381 . S
C10 H2 0.930 . S
C10 C6 1.390 . S
C10 C9 1.381 . S
N11 C4 1.286 . S
N11 C7 1.413 . S
H12 C17 0.930 . S
H13 C20 0.930 . S
H14 C22 0.930 . S
H15 C16 1.016 . S
C16 H15 1.016 . S
C16 N23 1.286 . S
C17 H12 0.930 . S
C17 C18 1.397 . S
C17 C19 1.361 . S
C18 C17 1.397 . S
C18 C22 1.390 . S
C19 C17 1.361 . S
C19 C20 1.393 . S
C19 N23 1.413 . S
C20 H13 0.930 . S
C20 C19 1.393 . S
C20 C21 1.399 . S
C21 C20 1.399 . S
C21 C22 1.381 . S
C22 H14 0.930 . S
C22 C18 1.390 . S
C22 C21 1.381 . S
N23 C16 1.286 . S
N23 C19 1.413 . S
H24 C29 0.930 . S
H25 C32 0.930 . S
H26 C34 0.930 . S
H27 C28 1.016 1_455 S
C28 H27 1.016 1_655 S
C28 N35 1.286 . S
C29 H24 0.930 . S
C29 C30 1.397 . S
C29 C31 1.361 . S
C30 C29 1.397 . S
C30 C34 1.390 . S
C31 C29 1.361 . S
C31 C32 1.393 . S
C31 N35 1.413 . S
C32 H25 0.930 . S
C32 C31 1.393 . S
C32 C33 1.399 . S
C33 C32 1.399 . S
C33 C34 1.381 . S
C34 H26 0.930 . S
C34 C30 1.390 . S
C34 C33 1.381 . S
N35 C28 1.286 . S
N35 C31 1.413 . S
H36 C41 0.930 . S
H37 C44 0.930 . S
H38 C46 0.930 . S
H39 C40 1.016 . S
C40 H39 1.016 . S
C40 N47 1.286 . S
C41 H36 0.930 . S
C41 C42 1.397 . S
C41 C43 1.361 . S
C42 C41 1.397 . S
C42 C46 1.390 . S
C43 C41 1.361 . S
C43 C44 1.393 . S
C43 N47 1.413 . S
C44 H37 0.930 . S
C44 C43 1.393 . S
C44 C45 1.399 . S
C45 C44 1.399 . S
C45 C46 1.381 . S
C46 H38 0.930 . S
C46 C42 1.390 . S
C46 C45 1.381 . S
N47 C40 1.286 . S
N47 C43 1.413 . S
H48 C53 0.930 . S
H49 C56 0.930 . S
H50 C58 0.930 1_545 S
H51 C52 1.016 . S
C52 H51 1.016 . S
C52 N59 1.286 . S
C53 H48 0.930 . S
C53 C54 1.397 . S
C53 C55 1.361 . S
C54 C53 1.397 . S
C54 C58 1.390 . S
C55 C53 1.361 . S
C55 C56 1.393 . S
C55 N59 1.413 . S
C56 H49 0.930 . S
C56 C55 1.393 . S
C56 C57 1.399 . S
C57 C56 1.399 . S
C57 C58 1.381 . S
C58 H50 0.930 1_565 S
C58 C54 1.390 . S
C58 C57 1.381 . S
N59 C52 1.286 . S
N59 C55 1.413 . S
H60 C65 0.930 . S
H61 C68 0.930 . S
H62 C70 0.930 . S
H63 C64 1.016 . S
C64 H63 1.016 . S
C64 N71 1.286 . S
C65 H60 0.930 . S
C65 C66 1.397 . S
C65 C67 1.361 . S
C66 C65 1.397 . S
C66 C70 1.390 . S
C67 C65 1.361 . S
C67 C68 1.393 . S
C67 N71 1.413 . S
C68 H61 0.930 . S
C68 C67 1.393 . S
C68 C69 1.399 . S
C69 C68 1.399 . S
C69 C70 1.381 . S
C70 H62 0.930 . S
C70 C66 1.390 . S
C70 C69 1.381 . S
N71 C64 1.286 . S
N71 C67 1.413 . S
H72 C77 0.898 1_455 S
H73 C80 0.930 . S
H74 C82 0.930 . S
H75 C76 1.016 . S
C76 H75 1.016 . S
C76 N83 1.286 . S
C77 H72 0.898 1_655 S
C77 C78 1.426 . S
C77 C79 1.366 . S
C78 C77 1.426 . S
C78 C82 1.390 . S
C79 C77 1.366 . S
C79 C80 1.393 . S
C79 N83 1.413 1_655 S
C80 H73 0.930 . S
C80 C79 1.393 . S
C80 C81 1.399 . S
C81 C80 1.399 . S
C81 C82 1.381 . S
C82 H74 0.930 . S
C82 C78 1.390 . S
C82 C81 1.381 . S
N83 C76 1.286 . S
N83 C79 1.413 1_455 S
H84 C89 0.930 . S
H85 C92 0.930 . S
H86 C94 0.930 . S
H87 C88 1.016 . S
C88 H87 1.016 . S
C88 N95 1.286 . S
C89 H84 0.930 . S
C89 C90 1.397 . S
C89 C91 1.361 . S
C90 C89 1.397 . S
C90 C94 1.390 . S
C91 C89 1.361 . S
C91 C92 1.393 . S
C91 N95 1.413 . S
C92 H85 0.930 . S
C92 C91 1.393 . S
C92 C93 1.399 . S
C93 C92 1.399 . S
C93 C94 1.381 . S
C94 H86 0.930 . S
C94 C90 1.390 . S
C94 C93 1.381 . S
N95 C88 1.286 . S
N95 C91 1.413 . S
H96 C101 0.930 . S
H97 C104 0.930 . S
H98 C106 0.930 . S
H99 C100 1.016 . S
C100 H99 1.016 . S
C100 N107 1.286 . S
C101 H96 0.930 . S
C101 C102 1.397 . S
C101 C103 1.361 . S
C102 C101 1.397 . S
C102 C106 1.390 . S
C103 C101 1.361 . S
C103 C104 1.393 . S
C103 N107 1.413 . S
C104 H97 0.930 . S
C104 C103 1.393 . S
C104 C105 1.399 . S
C105 C104 1.399 . S
C105 C106 1.381 . S
C106 H98 0.930 . S
C106 C102 1.390 . S
C106 C105 1.381 . S
N107 C100 1.286 . S
N107 C103 1.413 . S
H108 C113 0.930 . S
H109 C116 0.930 . S
H110 C118 0.892 1_545 S
H111 C112 1.016 . S
C112 H111 1.016 . S
C112 N119 1.286 . S
C113 H108 0.930 . S
C113 C114 1.397 . S
C113 C115 1.361 . S
C114 C113 1.397 . S
C114 C118 1.391 . S
C115 C113 1.361 . S
C115 C116 1.393 . S
C115 N119 1.413 . S
C116 H109 0.930 . S
C116 C115 1.393 . S
C116 C117 1.399 . S
C117 C116 1.399 . S
C117 C118 1.420 . S
C118 H110 0.892 1_565 S
C118 C114 1.391 . S
C118 C117 1.420 . S
N119 C112 1.286 . S
N119 C115 1.413 . S
H120 C125 0.930 . S
H121 C128 0.930 . S
H122 C130 0.930 . S
H123 C124 1.016 . S
C124 H123 1.016 . S
C124 N131 1.286 . S
C125 H120 0.930 . S
C125 C126 1.397 . S
C125 C127 1.361 . S
C126 C125 1.397 . S
C126 C130 1.390 . S
C127 C125 1.361 . S
C127 C128 1.393 . S
C127 N131 1.413 . S
C128 H121 0.930 . S
C128 C127 1.393 . S
C128 C129 1.399 . S
C129 C128 1.399 . S
C129 C130 1.381 . S
C130 H122 0.930 . S
C130 C126 1.390 . S
C130 C129 1.381 . S
N131 C124 1.286 . S
N131 C127 1.413 . S
H132 C137 0.930 . S
H133 C140 0.930 . S
H134 C142 0.930 . S
H135 C136 1.016 . S
C136 H135 1.016 . S
C136 N143 1.286 . S
C137 H132 0.930 . S
C137 C138 1.397 . S
C137 C139 1.361 . S
C138 C137 1.397 . S
C138 C142 1.390 . S
C139 C137 1.361 . S
C139 C140 1.393 . S
C139 N143 1.413 . S
C140 H133 0.930 . S
C140 C139 1.393 . S
C140 C141 1.399 . S
C141 C140 1.399 . S
C141 C142 1.381 . S
C142 H134 0.930 . S
C142 C138 1.390 . S
C142 C141 1.381 . S
N143 C136 1.286 . S
N143 C139 1.413 . S
H144 C149 0.930 . S
H145 C152 0.930 . S
H146 C154 0.930 . S
H147 C148 1.016 . S
C148 H147 1.016 . S
C148 N155 1.286 . S
C149 H144 0.930 . S
C149 C150 1.397 . S
C149 C151 1.361 . S
C150 C149 1.397 . S
C150 C154 1.390 . S
C151 C149 1.361 . S
C151 C152 1.393 . S
C151 N155 1.413 . S
C152 H145 0.930 . S
C152 C151 1.393 . S
C152 C153 1.399 . S
C153 C152 1.399 . S
C153 C154 1.381 . S
C154 H146 0.930 . S
C154 C150 1.390 . S
C154 C153 1.381 . S
N155 C148 1.286 . S
N155 C151 1.413 . S
H156 C161 0.930 . S
H157 C164 0.930 . S
H158 C166 0.930 . S
H159 C160 1.005 1_554 S
C160 H159 1.005 1_556 S
C160 N167 1.307 . S
C161 H156 0.930 . S
C161 C162 1.397 . S
C161 C163 1.361 . S
C162 C161 1.397 . S
C162 C166 1.390 . S
C163 C161 1.361 . S
C163 C164 1.393 . S
C163 N167 1.413 . S
C164 H157 0.930 . S
C164 C163 1.393 . S
C164 C165 1.399 . S
C165 C164 1.399 . S
C165 C166 1.381 . S
C166 H158 0.930 . S
C166 C162 1.390 . S
C166 C165 1.381 . S
N167 C160 1.307 . S
N167 C163 1.413 . S
H168 C173 0.930 . S
H169 C176 0.930 . S
H170 C178 0.930 . S
H171 C172 1.016 . S
C172 H171 1.016 . S
C172 N179 1.286 . S
C173 H168 0.930 . S
C173 C174 1.397 . S
C173 C175 1.361 . S
C174 C173 1.397 . S
C174 C178 1.390 . S
C175 C173 1.361 . S
C175 C176 1.393 . S
C175 N179 1.413 . S
C176 H169 0.930 . S
C176 C175 1.393 . S
C176 C177 1.399 . S
C177 C176 1.399 . S
C177 C178 1.381 . S
C178 H170 0.930 . S
C178 C174 1.390 . S
C178 C177 1.381 . S
N179 C172 1.286 . S
N179 C175 1.413 . S
H180 C185 0.930 . S
H181 C188 0.930 . S
H182 C190 0.930 . S
H183 C184 1.016 . S
C184 H183 1.016 . S
C184 N191 1.286 . S
C185 H180 0.930 . S
C185 C186 1.397 . S
C185 C187 1.361 . S
C186 C185 1.397 . S
C186 C190 1.390 . S
C187 C185 1.361 . S
C187 C188 1.393 . S
C187 N191 1.413 . S
C188 H181 0.930 . S
C188 C187 1.393 . S
C188 C189 1.399 . S
C189 C188 1.399 . S
C189 C190 1.381 . S
C190 H182 0.930 . S
C190 C186 1.390 . S
C190 C189 1.381 . S
N191 C184 1.286 . S
N191 C187 1.413 . S
Li192 N209 1.990 . S
Li192 O252 1.956 . S
Li192 O253 1.970 . S
Li192 O254 1.961 1_554 S
Li193 N217 1.990 . S
Li193 O252 1.970 . S
Li193 O253 1.956 . S
Li193 O255 1.961 . S
Li194 N239 1.990 . S
Li194 O252 1.961 1_556 S
Li194 O254 1.956 . S
Li194 O255 1.970 1_556 S
Li195 N245 1.990 . S
Li195 O253 1.961 . S
Li195 O254 1.970 1_554 S
Li195 O255 1.956 . S
C196 C198 1.348 . S
C196 C199 1.356 1_554 S
C196 O252 1.325 . S
N197 C200 1.314 . S
N197 C201 1.279 1_554 S
C198 C196 1.348 . S
C198 C200 1.353 . S
C198 H256 0.929 . S
C199 C196 1.356 1_556 S
C199 C201 1.358 . S
C199 H257 0.930 . S
C200 N197 1.314 . S
C200 C198 1.353 . S
C200 H258 0.930 . S
C201 N197 1.279 1_556 S
C201 C199 1.358 . S
C201 H259 0.930 . S
C202 C205 1.348 . S
C202 C206 1.356 . S
C202 O253 1.325 . S
C203 N204 1.279 . S
C203 C206 1.358 . S
C203 H260 0.930 . S
N204 C203 1.279 . S
N204 C207 1.314 . S
C205 C202 1.348 . S
C205 C207 1.353 . S
C205 H261 0.929 . S
C206 C202 1.356 . S
C206 C203 1.358 . S
C206 H262 0.930 . S
C207 N204 1.314 . S
C207 C205 1.353 . S
C207 H263 0.930 . S
C208 N209 1.314 . S
C208 C213 1.359 . S
C208 H214 0.929 1_554 S
N209 Li192 1.990 . S
N209 C208 1.314 . S
N209 C211 1.279 . S
C210 C211 1.358 . S
C210 C212 1.356 . S
C210 H264 0.930 . S
C211 N209 1.279 . S
C211 C210 1.358 . S
C211 H215 0.930 . S
C212 C210 1.356 . S
C212 C213 1.353 . S
C213 C208 1.359 . S
C213 C212 1.353 . S
C213 H265 0.920 1_554 S
H214 C208 0.929 1_556 S
H215 C211 0.930 . S
C216 N217 1.314 . S
C216 C218 1.353 . S
C216 H222 0.930 . S
N217 Li193 1.990 . S
N217 C216 1.314 . S
N217 C220 1.279 . S
C218 C216 1.353 . S
C218 C221 1.348 . S
C218 H266 0.929 . S
C219 C220 1.358 . S
C219 C221 1.356 . S
C219 H267 0.930 . S
C220 N217 1.279 . S
C220 C219 1.358 . S
C220 H223 0.930 . S
C221 C218 1.348 . S
C221 C219 1.356 . S
H222 C216 0.930 . S
H223 C220 0.930 . S
C224 C226 1.348 . S
C224 C227 1.356 . S
C224 O254 1.325 . S
N225 C228 1.314 . S
N225 C229 1.279 . S
C226 C224 1.348 . S
C226 C228 1.353 . S
C226 H268 0.929 . S
C227 C224 1.356 . S
C227 C229 1.358 . S
C227 H269 0.930 . S
C228 N225 1.314 . S
C228 C226 1.353 . S
C228 H270 0.930 . S
C229 N225 1.279 . S
C229 C227 1.358 . S
C229 H271 0.930 . S
C230 C231 1.348 1_554 S
C230 C232 1.356 . S
C230 O255 1.325 . S
C231 C230 1.348 1_556 S
C231 C233 1.343 1_556 S
C231 H272 0.929 . S
C232 C230 1.356 . S
C232 C234 1.358 . S
C232 H273 0.930 . S
C233 C231 1.343 1_554 S
C233 N235 1.356 . S
C233 H274 0.895 1_554 S
C234 C232 1.358 . S
C234 N235 1.279 . S
C234 H275 0.930 . S
N235 C233 1.356 . S
N235 C234 1.279 . S
C236 C238 1.353 . S
C236 N239 1.314 . S
C236 H242 0.930 . S
C237 N239 1.279 . S
C237 C240 1.358 . S
C237 H243 0.930 . S
C238 C236 1.353 . S
C238 C241 1.348 . S
C238 H276 0.929 . S
N239 Li194 1.990 . S
N239 C236 1.314 . S
N239 C237 1.279 . S
C240 C237 1.358 . S
C240 C241 1.356 . S
C240 H277 0.930 . S
C241 C238 1.348 . S
C241 C240 1.356 . S
H242 C236 0.930 . S
H243 C237 0.930 . S
C244 N245 1.314 . S
C244 C246 1.353 . S
C244 H250 0.930 . S
N245 Li195 1.990 . S
N245 C244 1.314 . S
N245 C248 1.279 . S
C246 C244 1.353 . S
C246 C249 1.348 . S
C246 H278 0.929 . S
C247 C248 1.358 . S
C247 C249 1.356 . S
C247 H279 0.930 . S
C248 N245 1.279 . S
C248 C247 1.358 . S
C248 H251 0.930 . S
C249 C246 1.348 . S
C249 C247 1.356 . S
H250 C244 0.930 . S
H251 C248 0.930 . S
O252 Li192 1.956 . S
O252 Li193 1.970 . S
O252 Li194 1.961 1_554 S
O252 C196 1.325 . S
O253 Li192 1.970 . S
O253 Li193 1.956 . S
O253 Li195 1.961 . S
O253 C202 1.325 . S
O254 Li192 1.961 1_556 S
O254 Li194 1.956 . S
O254 Li195 1.970 1_556 S
O254 C224 1.325 . S
O255 Li193 1.961 . S
O255 Li194 1.970 1_554 S
O255 Li195 1.956 . S
O255 C230 1.325 . S
H256 C198 0.929 . S
H257 C199 0.930 . S
H258 C200 0.930 . S
H259 C201 0.930 . S
H260 C203 0.930 . S
H261 C205 0.929 . S
H262 C206 0.930 . S
H263 C207 0.930 . S
H264 C210 0.930 . S
H265 C213 0.920 1_556 S
H266 C218 0.929 . S
H267 C219 0.930 . S
H268 C226 0.929 . S
H269 C227 0.930 . S
H270 C228 0.930 . S
H271 C229 0.930 . S
H272 C231 0.929 . S
H273 C232 0.930 . S
H274 C233 0.895 1_556 S
H275 C234 0.930 . S
H276 C238 0.929 . S
H277 C240 0.930 . S
H278 C246 0.929 . S
H279 C247 0.930 . S
Li280 N297 1.990 . S
Li280 O340 1.956 . S
Li280 O341 1.970 . S
Li280 O342 1.961 . S
Li281 N305 1.990 . S
Li281 O340 1.970 . S
Li281 O341 1.956 . S
Li281 O343 1.961 . S
Li282 N327 1.990 . S
Li282 O340 1.961 . S
Li282 O342 1.956 . S
Li282 O343 1.970 . S
Li283 N333 1.990 . S
Li283 O341 1.961 . S
Li283 O342 1.970 . S
Li283 O343 1.956 . S
C284 C286 1.348 . S
C284 C287 1.356 . S
C284 O340 1.325 . S
N285 C288 1.314 . S
N285 C289 1.279 . S
C286 C284 1.348 . S
C286 C288 1.353 . S
C286 H344 0.929 . S
C287 C284 1.356 . S
C287 C289 1.358 . S
C287 H345 0.930 . S
C288 N285 1.314 . S
C288 C286 1.353 . S
C288 H346 0.930 . S
C289 N285 1.279 . S
C289 C287 1.358 . S
C289 H347 0.930 . S
C290 C293 1.348 . S
C290 C294 1.356 . S
C290 O341 1.325 . S
C291 N292 1.279 . S
C291 C294 1.358 . S
C291 H348 0.930 . S
N292 C291 1.279 . S
N292 C295 1.314 . S
C293 C290 1.348 . S
C293 C295 1.353 . S
C293 H349 0.929 . S
C294 C290 1.356 . S
C294 C291 1.358 . S
C294 H350 0.930 . S
C295 N292 1.314 . S
C295 C293 1.353 . S
C295 H351 0.930 . S
C296 N297 1.314 . S
C296 C301 1.353 . S
C296 H302 0.930 . S
N297 Li280 1.990 . S
N297 C296 1.314 . S
N297 C299 1.279 . S
C298 C299 1.358 . S
C298 C300 1.356 . S
C298 H352 0.930 . S
C299 N297 1.279 . S
C299 C298 1.358 . S
C299 H303 0.930 . S
C300 C298 1.356 . S
C300 C301 1.348 . S
C301 C296 1.353 . S
C301 C300 1.348 . S
C301 H353 0.929 . S
H302 C296 0.930 . S
H303 C299 0.930 . S
C304 N305 1.314 . S
C304 C306 1.353 . S
C304 H310 0.930 . S
N305 Li281 1.990 . S
N305 C304 1.314 . S
N305 C308 1.279 . S
C306 C304 1.353 . S
C306 C309 1.348 . S
C306 H354 0.929 . S
C307 C308 1.358 . S
C307 C309 1.356 . S
C307 H355 0.930 . S
C308 N305 1.279 . S
C308 C307 1.358 . S
C308 H311 0.930 . S
C309 C306 1.348 . S
C309 C307 1.356 . S
H310 C304 0.930 . S
H311 C308 0.930 . S
C312 C314 1.348 . S
C312 C315 1.356 . S
C312 O342 1.325 . S
N313 C316 1.314 . S
N313 C317 1.279 . S
C314 C312 1.348 . S
C314 C316 1.353 . S
C314 H356 0.929 . S
C315 C312 1.356 . S
C315 C317 1.358 . S
C315 H357 0.930 . S
C316 N313 1.314 . S
C316 C314 1.353 . S
C316 H358 0.930 . S
C317 N313 1.279 . S
C317 C315 1.358 . S
C317 H359 0.930 . S
C318 C319 1.348 . S
C318 C320 1.356 . S
C318 O343 1.325 . S
C319 C318 1.348 . S
C319 C321 1.353 . S
C319 H360 0.929 . S
C320 C318 1.356 . S
C320 C322 1.358 . S
C320 H361 0.930 . S
C321 C319 1.353 . S
C321 N323 1.314 . S
C321 H362 0.930 . S
C322 C320 1.358 . S
C322 N323 1.279 . S
C322 H363 0.930 . S
N323 C321 1.314 . S
N323 C322 1.279 . S
C324 C326 1.353 . S
C324 N327 1.314 . S
C324 H330 0.930 . S
C325 N327 1.279 . S
C325 C328 1.358 . S
C325 H331 0.930 . S
C326 C324 1.353 . S
C326 C329 1.348 . S
C326 H364 0.929 . S
N327 Li282 1.990 . S
N327 C324 1.314 . S
N327 C325 1.279 . S
C328 C325 1.358 . S
C328 C329 1.356 . S
C328 H365 0.930 . S
C329 C326 1.348 . S
C329 C328 1.356 . S
H330 C324 0.930 . S
H331 C325 0.930 . S
C332 N333 1.314 . S
C332 C334 1.353 . S
C332 H338 0.930 . S
N333 Li283 1.990 . S
N333 C332 1.314 . S
N333 C336 1.279 . S
C334 C332 1.353 . S
C334 C337 1.348 . S
C334 H366 0.929 . S
C335 C336 1.358 . S
C335 C337 1.356 . S
C335 H367 0.930 . S
C336 N333 1.279 . S
C336 C335 1.358 . S
C336 H339 0.930 . S
C337 C334 1.348 . S
C337 C335 1.356 . S
H338 C332 0.930 . S
H339 C336 0.930 . S
O340 Li280 1.956 . S
O340 Li281 1.970 . S
O340 Li282 1.961 . S
O340 C284 1.325 . S
O341 Li280 1.970 . S
O341 Li281 1.956 . S
O341 Li283 1.961 . S
O341 C290 1.325 . S
O342 Li280 1.961 . S
O342 Li282 1.956 . S
O342 Li283 1.970 . S
O342 C312 1.325 . S
O343 Li281 1.961 . S
O343 Li282 1.970 . S
O343 Li283 1.956 . S
O343 C318 1.325 . S
H344 C286 0.929 . S
H345 C287 0.930 . S
H346 C288 0.930 . S
H347 C289 0.930 . S
H348 C291 0.930 . S
H349 C293 0.929 . S
H350 C294 0.930 . S
H351 C295 0.930 . S
H352 C298 0.930 . S
H353 C301 0.929 . S
H354 C306 0.929 . S
H355 C307 0.930 . S
H356 C314 0.929 . S
H357 C315 0.930 . S
H358 C316 0.930 . S
H359 C317 0.930 . S
H360 C319 0.929 . S
H361 C320 0.930 . S
H362 C321 0.930 . S
H363 C322 0.930 . S
H364 C326 0.929 . S
H365 C328 0.930 . S
H366 C334 0.929 . S
H367 C335 0.930 . S
Li368 N385 1.990 . S
Li368 O428 1.956 . S
Li368 O429 1.970 1_556 S
Li368 O430 1.961 . S
Li369 N393 1.990 . S
Li369 O428 1.970 1_554 S
Li369 O429 1.956 . S
Li369 O431 1.961 . S
Li370 N415 1.990 . S
Li370 O428 1.961 . S
Li370 O430 1.956 . S
Li370 O431 1.970 1_556 S
Li371 N421 1.990 . S
Li371 O429 1.961 . S
Li371 O430 1.970 1_554 S
Li371 O431 1.956 . S
C372 C374 1.348 1_556 S
C372 C375 1.356 . S
C372 O428 1.325 . S
N373 C376 1.314 1_556 S
N373 C377 1.279 . S
C374 C372 1.348 1_554 S
C374 C376 1.353 . S
C374 H432 0.929 . S
C375 C372 1.356 . S
C375 C377 1.358 . S
C375 H433 0.930 . S
C376 N373 1.314 1_554 S
C376 C374 1.353 . S
C376 H434 0.930 . S
C377 N373 1.279 . S
C377 C375 1.358 . S
C377 H435 0.930 . S
C378 C381 1.348 . S
C378 C382 1.356 . S
C378 O429 1.325 . S
C379 N380 1.279 . S
C379 C382 1.358 . S
C379 H436 0.930 . S
N380 C379 1.279 . S
N380 C383 1.314 . S
C381 C378 1.348 . S
C381 C383 1.353 . S
C381 H437 0.929 . S
C382 C378 1.356 . S
C382 C379 1.358 . S
C382 H438 0.930 . S
C383 N380 1.314 . S
C383 C381 1.353 . S
C383 H439 0.930 . S
C384 N385 1.314 . S
C384 C389 1.353 . S
C384 H390 0.930 . S
N385 Li368 1.990 . S
N385 C384 1.314 . S
N385 C387 1.279 . S
C386 C387 1.358 . S
C386 C388 1.356 . S
C386 H440 0.930 . S
C387 N385 1.279 . S
C387 C386 1.358 . S
C387 H391 0.930 . S
C388 C386 1.356 . S
C388 C389 1.348 . S
C389 C384 1.353 . S
C389 C388 1.348 . S
C389 H441 0.929 . S
H390 C384 0.930 . S
H391 C387 0.930 . S
C392 N393 1.314 . S
C392 C394 1.353 . S
C392 H398 0.930 . S
N393 Li369 1.990 . S
N393 C392 1.314 . S
N393 C396 1.279 . S
C394 C392 1.353 . S
C394 C397 1.348 . S
C394 H442 0.929 . S
C395 C396 1.358 . S
C395 C397 1.356 . S
C395 H443 0.930 . S
C396 N393 1.279 . S
C396 C395 1.358 . S
C396 H399 0.930 . S
C397 C394 1.348 . S
C397 C395 1.356 . S
H398 C392 0.930 . S
H399 C396 0.930 . S
C400 C402 1.348 . S
C400 C403 1.356 . S
C400 O430 1.325 . S
N401 C404 1.314 . S
N401 C405 1.279 . S
C402 C400 1.348 . S
C402 C404 1.353 . S
C402 H444 0.929 . S
C403 C400 1.356 . S
C403 C405 1.358 . S
C403 H445 0.930 . S
C404 N401 1.314 . S
C404 C402 1.353 . S
C404 H446 0.930 . S
C405 N401 1.279 . S
C405 C403 1.358 . S
C405 H447 0.930 . S
C406 C407 1.348 1_554 S
C406 C408 1.356 . S
C406 O431 1.325 . S
C407 C406 1.348 1_556 S
C407 C409 1.353 . S
C407 H448 0.929 . S
C408 C406 1.356 . S
C408 C410 1.358 . S
C408 H449 0.930 . S
C409 C407 1.353 . S
C409 N411 1.314 1_556 S
C409 H450 0.930 . S
C410 C408 1.358 . S
C410 N411 1.279 . S
C410 H451 0.930 . S
N411 C409 1.314 1_554 S
N411 C410 1.279 . S
C412 C414 1.353 . S
C412 N415 1.314 . S
C412 H418 0.930 . S
C413 N415 1.279 . S
C413 C416 1.358 . S
C413 H419 0.930 . S
C414 C412 1.353 . S
C414 C417 1.348 . S
C414 H452 0.929 . S
N415 Li370 1.990 . S
N415 C412 1.314 . S
N415 C413 1.279 . S
C416 C413 1.358 . S
C416 C417 1.356 . S
C416 H453 0.930 . S
C417 C414 1.348 . S
C417 C416 1.356 . S
H418 C412 0.930 . S
H419 C413 0.930 . S
C420 N421 1.314 . S
C420 C422 1.353 . S
C420 H426 0.930 . S
N421 Li371 1.990 . S
N421 C420 1.314 . S
N421 C424 1.279 . S
C422 C420 1.353 . S
C422 C425 1.348 . S
C422 H454 0.929 . S
C423 C424 1.358 . S
C423 C425 1.356 . S
C423 H455 0.930 . S
C424 N421 1.279 . S
C424 C423 1.358 . S
C424 H427 0.930 . S
C425 C422 1.348 . S
C425 C423 1.356 . S
H426 C420 0.930 . S
H427 C424 0.930 . S
O428 Li368 1.956 . S
O428 Li369 1.970 1_556 S
O428 Li370 1.961 . S
O428 C372 1.325 . S
O429 Li368 1.970 1_554 S
O429 Li369 1.956 . S
O429 Li371 1.961 . S
O429 C378 1.325 . S
O430 Li368 1.961 . S
O430 Li370 1.956 . S
O430 Li371 1.970 1_556 S
O430 C400 1.325 . S
O431 Li369 1.961 . S
O431 Li370 1.970 1_554 S
O431 Li371 1.956 . S
O431 C406 1.325 . S
H432 C374 0.929 . S
H433 C375 0.930 . S
H434 C376 0.930 . S
H435 C377 0.930 . S
H436 C379 0.930 . S
H437 C381 0.929 . S
H438 C382 0.930 . S
H439 C383 0.930 . S
H440 C386 0.930 . S
H441 C389 0.929 . S
H442 C394 0.929 . S
H443 C395 0.930 . S
H444 C402 0.929 . S
H445 C403 0.930 . S
H446 C404 0.930 . S
H447 C405 0.930 . S
H448 C407 0.929 . S
H449 C408 0.930 . S
H450 C409 0.930 . S
H451 C410 0.930 . S
H452 C414 0.929 . S
H453 C416 0.930 . S
H454 C422 0.929 . S
H455 C423 0.930 . S
Li456 N473 1.990 . S
Li456 O516 1.956 . S
Li456 O517 1.970 . S
Li456 O518 1.961 . S
Li457 N481 1.990 . S
Li457 O516 1.970 . S
Li457 O517 1.956 . S
Li457 O519 1.961 1_545 S
Li458 N503 1.990 . S
Li458 O516 1.961 . S
Li458 O518 1.956 . S
Li458 O519 1.970 1_545 S
Li459 N509 1.990 . S
Li459 O517 1.961 1_565 S
Li459 O518 1.970 1_565 S
Li459 O519 1.956 . S
C460 C462 1.348 . S
C460 C463 1.356 . S
C460 O516 1.325 . S
N461 C464 1.314 . S
N461 C465 1.279 . S
C462 C460 1.348 . S
C462 C464 1.353 . S
C462 H520 0.929 . S
C463 C460 1.356 . S
C463 C465 1.358 . S
C463 H521 0.930 . S
C464 N461 1.314 . S
C464 C462 1.353 . S
C464 H522 0.930 . S
C465 N461 1.279 . S
C465 C463 1.358 . S
C465 H523 0.930 . S
C466 C469 1.348 . S
C466 C470 1.356 1_545 S
C466 O517 1.325 . S
C467 N468 1.279 1_565 S
C467 C470 1.358 . S
C467 H524 0.930 . S
N468 C467 1.279 1_545 S
N468 C471 1.314 . S
C469 C466 1.348 . S
C469 C471 1.353 . S
C469 H525 0.929 . S
C470 C466 1.356 1_565 S
C470 C467 1.358 . S
C470 H526 0.930 . S
C471 N468 1.314 . S
C471 C469 1.353 . S
C471 H527 0.930 . S
C472 N473 1.314 . S
C472 C477 1.353 . S
C472 H478 0.930 . S
N473 Li456 1.990 . S
N473 C472 1.314 . S
N473 C475 1.279 . S
C474 C475 1.358 . S
C474 C476 1.356 . S
C474 H528 0.930 . S
C475 N473 1.279 . S
C475 C474 1.358 . S
C475 H479 0.930 . S
C476 C474 1.356 . S
C476 C477 1.348 . S
C477 C472 1.353 . S
C477 C476 1.348 . S
C477 H529 0.929 . S
H478 C472 0.930 . S
H479 C475 0.930 . S
C480 N481 1.314 . S
C480 C482 1.353 . S
C480 H486 0.930 . S
N481 Li457 1.990 . S
N481 C480 1.314 . S
N481 C484 1.279 . S
C482 C480 1.353 . S
C482 C485 1.348 . S
C482 H530 0.882 1_655 S
C483 C484 1.358 . S
C483 C485 1.356 . S
C483 H531 0.930 . S
C484 N481 1.279 . S
C484 C483 1.358 . S
C484 H487 0.930 . S
C485 C482 1.348 . S
C485 C483 1.356 . S
H486 C480 0.930 . S
H487 C484 0.930 . S
C488 C490 1.348 . S
C488 C491 1.356 . S
C488 O518 1.325 . S
N489 C492 1.314 . S
N489 C493 1.279 . S
C490 C488 1.348 . S
C490 C492 1.353 . S
C490 H532 0.929 1_545 S
C491 C488 1.356 . S
C491 C493 1.358 . S
C491 H533 0.930 . S
C492 N489 1.314 . S
C492 C490 1.353 . S
C492 H534 0.900 1_545 S
C493 N489 1.279 . S
C493 C491 1.358 . S
C493 H535 0.930 . S
C494 C495 1.348 . S
C494 C496 1.356 . S
C494 O519 1.325 . S
C495 C494 1.348 . S
C495 C497 1.353 . S
C495 H536 0.929 . S
C496 C494 1.356 . S
C496 C498 1.358 . S
C496 H537 0.930 . S
C497 C495 1.353 . S
C497 N499 1.314 . S
C497 H538 0.930 . S
C498 C496 1.358 . S
C498 N499 1.279 . S
C498 H539 0.930 . S
N499 C497 1.314 . S
N499 C498 1.279 . S
C500 C502 1.353 . S
C500 N503 1.314 . S
C500 H506 0.930 . S
C501 N503 1.279 . S
C501 C504 1.358 . S
C501 H507 0.930 . S
C502 C500 1.353 . S
C502 C505 1.348 . S
C502 H540 0.929 . S
N503 Li458 1.990 . S
N503 C500 1.314 . S
N503 C501 1.279 . S
C504 C501 1.358 . S
C504 C505 1.356 . S
C504 H541 0.930 . S
C505 C502 1.348 . S
C505 C504 1.356 . S
H506 C500 0.930 . S
H507 C501 0.930 . S
C508 N509 1.314 . S
C508 C510 1.353 . S
C508 H514 0.930 . S
N509 Li459 1.990 . S
N509 C508 1.314 . S
N509 C512 1.279 . S
C510 C508 1.353 . S
C510 C513 1.348 . S
C510 H542 0.929 . S
C511 C512 1.358 . S
C511 C513 1.356 . S
C511 H543 0.930 . S
C512 N509 1.279 . S
C512 C511 1.358 . S
C512 H515 0.930 . S
C513 C510 1.348 . S
C513 C511 1.356 . S
H514 C508 0.930 . S
H515 C512 0.930 . S
O516 Li456 1.956 . S
O516 Li457 1.970 . S
O516 Li458 1.961 . S
O516 C460 1.325 . S
O517 Li456 1.970 . S
O517 Li457 1.956 . S
O517 Li459 1.961 1_545 S
O517 C466 1.325 . S
O518 Li456 1.961 . S
O518 Li458 1.956 . S
O518 Li459 1.970 1_545 S
O518 C488 1.325 . S
O519 Li457 1.961 1_565 S
O519 Li458 1.970 1_565 S
O519 Li459 1.956 . S
O519 C494 1.325 . S
H520 C462 0.929 . S
H521 C463 0.930 . S
H522 C464 0.930 . S
H523 C465 0.930 . S
H524 C467 0.930 . S
H525 C469 0.929 . S
H526 C470 0.930 . S
H527 C471 0.930 . S
H528 C474 0.930 . S
H529 C477 0.929 . S
H530 C482 0.882 1_455 S
H531 C483 0.930 . S
H532 C490 0.929 1_565 S
H533 C491 0.930 . S
H534 C492 0.900 1_565 S
H535 C493 0.930 . S
H536 C495 0.929 . S
H537 C496 0.930 . S
H538 C497 0.930 . S
H539 C498 0.930 . S
H540 C502 0.929 . S
H541 C504 0.930 . S
H542 C510 0.929 . S
H543 C511 0.930 . S
Li544 N561 1.990 . S
Li544 O604 1.956 . S
Li544 O605 1.970 . S
Li544 O606 1.961 . S
Li545 N569 1.990 . S
Li545 O604 1.970 . S
Li545 O605 1.956 . S
Li545 O607 1.961 . S
Li546 N591 1.990 . S
Li546 O604 1.961 . S
Li546 O606 1.956 . S
Li546 O607 1.970 . S
Li547 N597 1.990 . S
Li547 O605 1.961 . S
Li547 O606 1.970 . S
Li547 O607 1.956 . S
C548 C550 1.348 . S
C548 C551 1.356 . S
C548 O604 1.325 . S
N549 C552 1.314 . S
N549 C553 1.279 . S
C550 C548 1.348 . S
C550 C552 1.353 . S
C550 H608 0.929 . S
C551 C548 1.356 . S
C551 C553 1.358 . S
C551 H609 0.930 . S
C552 N549 1.314 . S
C552 C550 1.353 . S
C552 H610 0.930 . S
C553 N549 1.279 . S
C553 C551 1.358 . S
C553 H611 0.930 . S
C554 C557 1.348 . S
C554 C558 1.356 . S
C554 O605 1.325 . S
C555 N556 1.279 . S
C555 C558 1.358 . S
C555 H612 0.930 . S
N556 C555 1.279 . S
N556 C559 1.314 . S
C557 C554 1.348 . S
C557 C559 1.353 . S
C557 H613 0.929 . S
C558 C554 1.356 . S
C558 C555 1.358 . S
C558 H614 0.930 . S
C559 N556 1.314 . S
C559 C557 1.353 . S
C559 H615 0.930 . S
C560 N561 1.314 . S
C560 C565 1.353 . S
C560 H566 0.930 . S
N561 Li544 1.990 . S
N561 C560 1.314 . S
N561 C563 1.279 . S
C562 C563 1.358 . S
C562 C564 1.356 . S
C562 H616 0.930 . S
C563 N561 1.279 . S
C563 C562 1.358 . S
C563 H567 0.930 . S
C564 C562 1.356 . S
C564 C565 1.348 . S
C565 C560 1.353 . S
C565 C564 1.348 . S
C565 H617 0.929 . S
H566 C560 0.930 . S
H567 C563 0.930 . S
C568 N569 1.314 . S
C568 C570 1.353 . S
C568 H574 0.930 . S
N569 Li545 1.990 . S
N569 C568 1.314 . S
N569 C572 1.279 . S
C570 C568 1.353 . S
C570 C573 1.348 . S
C570 H618 0.929 . S
C571 C572 1.358 . S
C571 C573 1.356 . S
C571 H619 0.930 . S
C572 N569 1.279 . S
C572 C571 1.358 . S
C572 H575 0.930 . S
C573 C570 1.348 . S
C573 C571 1.356 . S
H574 C568 0.930 . S
H575 C572 0.930 . S
C576 C578 1.348 . S
C576 C579 1.356 . S
C576 O606 1.325 . S
N577 C580 1.314 . S
N577 C581 1.279 . S
C578 C576 1.348 . S
C578 C580 1.353 . S
C578 H620 0.929 . S
C579 C576 1.356 . S
C579 C581 1.358 . S
C579 H621 0.930 . S
C580 N577 1.314 . S
C580 C578 1.353 . S
C580 H622 0.930 . S
C581 N577 1.279 . S
C581 C579 1.358 . S
C581 H623 0.930 . S
C582 C583 1.348 . S
C582 C584 1.356 . S
C582 O607 1.325 . S
C583 C582 1.348 . S
C583 C585 1.353 . S
C583 H624 0.929 . S
C584 C582 1.356 . S
C584 C586 1.358 . S
C584 H625 0.930 . S
C585 C583 1.353 . S
C585 N587 1.314 . S
C585 H626 0.930 . S
C586 C584 1.358 . S
C586 N587 1.279 . S
C586 H627 0.930 . S
N587 C585 1.314 . S
N587 C586 1.279 . S
C588 C590 1.353 . S
C588 N591 1.314 . S
C588 H594 0.930 . S
C589 N591 1.279 . S
C589 C592 1.358 . S
C589 H595 0.930 . S
C590 C588 1.353 . S
C590 C593 1.348 . S
C590 H628 0.929 . S
N591 Li546 1.990 . S
N591 C588 1.314 . S
N591 C589 1.279 . S
C592 C589 1.358 . S
C592 C593 1.356 . S
C592 H629 0.930 . S
C593 C590 1.348 . S
C593 C592 1.356 . S
H594 C588 0.930 . S
H595 C589 0.930 . S
C596 N597 1.314 . S
C596 C598 1.353 . S
C596 H602 0.930 . S
N597 Li547 1.990 . S
N597 C596 1.314 . S
N597 C600 1.279 . S
C598 C596 1.353 . S
C598 C601 1.348 . S
C598 H630 0.929 . S
C599 C600 1.358 . S
C599 C601 1.356 . S
C599 H631 0.930 . S
C600 N597 1.279 . S
C600 C599 1.358 . S
C600 H603 0.930 . S
C601 C598 1.348 . S
C601 C599 1.356 . S
H602 C596 0.930 . S
H603 C600 0.930 . S
O604 Li544 1.956 . S
O604 Li545 1.970 . S
O604 Li546 1.961 . S
O604 C548 1.325 . S
O605 Li544 1.970 . S
O605 Li545 1.956 . S
O605 Li547 1.961 . S
O605 C554 1.325 . S
O606 Li544 1.961 . S
O606 Li546 1.956 . S
O606 Li547 1.970 . S
O606 C576 1.325 . S
O607 Li545 1.961 . S
O607 Li546 1.970 . S
O607 Li547 1.956 . S
O607 C582 1.325 . S
H608 C550 0.929 . S
H609 C551 0.930 . S
H610 C552 0.930 . S
H611 C553 0.930 . S
H612 C555 0.930 . S
H613 C557 0.929 . S
H614 C558 0.930 . S
H615 C559 0.930 . S
H616 C562 0.930 . S
H617 C565 0.929 . S
H618 C570 0.929 . S
H619 C571 0.930 . S
H620 C578 0.929 . S
H621 C579 0.930 . S
H622 C580 0.930 . S
H623 C581 0.930 . S
H624 C583 0.929 . S
H625 C584 0.930 . S
H626 C585 0.930 . S
H627 C586 0.930 . S
H628 C590 0.929 . S
H629 C592 0.930 . S
H630 C598 0.929 . S
H631 C599 0.930 . S
Li632 N649 1.990 . S
Li632 O692 1.956 . S
Li632 O693 1.970 . S
Li632 O694 1.961 . S
Li633 N657 1.990 . S
Li633 O692 1.970 . S
Li633 O693 1.956 . S
Li633 O695 1.961 . S
Li634 N679 1.990 . S
Li634 O692 1.961 . S
Li634 O694 1.956 . S
Li634 O695 1.970 . S
Li635 N685 1.990 . S
Li635 O693 1.961 . S
Li635 O694 1.970 . S
Li635 O695 1.956 . S
C636 C638 1.348 . S
C636 C639 1.356 . S
C636 O692 1.325 . S
N637 C640 1.314 . S
N637 C641 1.279 . S
C638 C636 1.348 . S
C638 C640 1.353 . S
C638 H696 0.929 . S
C639 C636 1.356 . S
C639 C641 1.358 . S
C639 H697 0.930 . S
C640 N637 1.314 . S
C640 C638 1.353 . S
C640 H698 0.930 . S
C641 N637 1.279 . S
C641 C639 1.358 . S
C641 H699 0.930 . S
C642 C645 1.348 . S
C642 C646 1.356 . S
C642 O693 1.325 . S
C643 N644 1.279 . S
C643 C646 1.358 . S
C643 H700 0.930 . S
N644 C643 1.279 . S
N644 C647 1.314 . S
C645 C642 1.348 . S
C645 C647 1.353 . S
C645 H701 0.929 . S
C646 C642 1.356 . S
C646 C643 1.358 . S
C646 H702 0.930 . S
C647 N644 1.314 . S
C647 C645 1.353 . S
C647 H703 0.930 . S
C648 N649 1.314 . S
C648 C653 1.353 . S
C648 H654 0.930 . S
N649 Li632 1.990 . S
N649 C648 1.314 . S
N649 C651 1.279 . S
C650 C651 1.358 . S
C650 C652 1.356 . S
C650 H704 0.930 . S
C651 N649 1.279 . S
C651 C650 1.358 . S
C651 H655 0.930 . S
C652 C650 1.356 . S
C652 C653 1.348 . S
C653 C648 1.353 . S
C653 C652 1.348 . S
C653 H705 0.929 . S
H654 C648 0.930 . S
H655 C651 0.930 . S
C656 N657 1.314 . S
C656 C658 1.353 . S
C656 H662 0.930 . S
N657 Li633 1.990 . S
N657 C656 1.314 . S
N657 C660 1.279 . S
C658 C656 1.353 . S
C658 C661 1.348 . S
C658 H706 0.929 . S
C659 C660 1.358 . S
C659 C661 1.356 . S
C659 H707 0.930 . S
C660 N657 1.279 . S
C660 C659 1.358 . S
C660 H663 0.930 . S
C661 C658 1.348 . S
C661 C659 1.356 . S
H662 C656 0.930 . S
H663 C660 0.930 . S
C664 C666 1.348 . S
C664 C667 1.356 . S
C664 O694 1.325 . S
N665 C668 1.314 . S
N665 C669 1.279 . S
C666 C664 1.348 . S
C666 C668 1.353 . S
C666 H708 0.929 . S
C667 C664 1.356 . S
C667 C669 1.358 . S
C667 H709 0.930 . S
C668 N665 1.314 . S
C668 C666 1.353 . S
C668 H710 0.930 . S
C669 N665 1.279 . S
C669 C667 1.358 . S
C669 H711 0.930 . S
C670 C671 1.348 . S
C670 C672 1.356 . S
C670 O695 1.325 . S
C671 C670 1.348 . S
C671 C673 1.353 . S
C671 H712 0.929 . S
C672 C670 1.356 . S
C672 C674 1.358 . S
C672 H713 0.930 . S
C673 C671 1.353 . S
C673 N675 1.314 . S
C673 H714 0.930 . S
C674 C672 1.358 . S
C674 N675 1.279 . S
C674 H715 0.930 . S
N675 C673 1.314 . S
N675 C674 1.279 . S
C676 C678 1.353 . S
C676 N679 1.314 . S
C676 H682 0.930 . S
C677 N679 1.279 . S
C677 C680 1.358 . S
C677 H683 0.930 . S
C678 C676 1.353 . S
C678 C681 1.348 . S
C678 H716 0.929 . S
N679 Li634 1.990 . S
N679 C676 1.314 . S
N679 C677 1.279 . S
C680 C677 1.358 . S
C680 C681 1.356 . S
C680 H717 0.930 . S
C681 C678 1.348 . S
C681 C680 1.356 . S
H682 C676 0.930 . S
H683 C677 0.930 . S
C684 N685 1.314 . S
C684 C686 1.353 . S
C684 H690 0.930 . S
N685 Li635 1.990 . S
N685 C684 1.314 . S
N685 C688 1.279 . S
C686 C684 1.353 . S
C686 C689 1.348 . S
C686 H718 0.929 . S
C687 C688 1.358 . S
C687 C689 1.356 . S
C687 H719 0.930 . S
C688 N685 1.279 . S
C688 C687 1.358 . S
C688 H691 0.930 . S
C689 C686 1.348 . S
C689 C687 1.356 . S
H690 C684 0.930 . S
H691 C688 0.930 . S
O692 Li632 1.956 . S
O692 Li633 1.970 . S
O692 Li634 1.961 . S
O692 C636 1.325 . S
O693 Li632 1.970 . S
O693 Li633 1.956 . S
O693 Li635 1.961 . S
O693 C642 1.325 . S
O694 Li632 1.961 . S
O694 Li634 1.956 . S
O694 Li635 1.970 . S
O694 C664 1.325 . S
O695 Li633 1.961 . S
O695 Li634 1.970 . S
O695 Li635 1.956 . S
O695 C670 1.325 . S
H696 C638 0.929 . S
H697 C639 0.930 . S
H698 C640 0.930 . S
H699 C641 0.930 . S
H700 C643 0.930 . S
H701 C645 0.929 . S
H702 C646 0.930 . S
H703 C647 0.930 . S
H704 C650 0.930 . S
H705 C653 0.929 . S
H706 C658 0.929 . S
H707 C659 0.930 . S
H708 C666 0.929 . S
H709 C667 0.930 . S
H710 C668 0.930 . S
H711 C669 0.930 . S
H712 C671 0.929 . S
H713 C672 0.930 . S
H714 C673 0.930 . S
H715 C674 0.930 . S
H716 C678 0.929 . S
H717 C680 0.930 . S
H718 C686 0.929 . S
H719 C687 0.930 . S
Li720 N737 1.990 . S
Li720 O780 1.956 . S
Li720 O781 1.970 . S
Li720 O782 1.961 . S
Li721 N745 1.990 . S
Li721 O780 1.970 . S
Li721 O781 1.956 . S
Li721 O783 1.961 . S
Li722 N767 1.990 . S
Li722 O780 1.961 . S
Li722 O782 1.956 . S
Li722 O783 1.970 . S
Li723 N773 1.990 . S
Li723 O781 1.961 . S
Li723 O782 1.970 . S
Li723 O783 1.956 . S
C724 C726 1.348 . S
C724 C727 1.356 . S
C724 O780 1.325 . S
N725 C728 1.314 . S
N725 C729 1.279 . S
C726 C724 1.348 . S
C726 C728 1.353 . S
C726 H784 0.929 . S
C727 C724 1.356 . S
C727 C729 1.358 . S
C727 H785 0.930 . S
C728 N725 1.314 . S
C728 C726 1.353 . S
C728 H786 0.930 . S
C729 N725 1.279 . S
C729 C727 1.358 . S
C729 H787 0.930 . S
C730 C733 1.348 . S
C730 C734 1.356 . S
C730 O781 1.325 . S
C731 N732 1.279 . S
C731 C734 1.358 . S
C731 H788 0.930 . S
N732 C731 1.279 . S
N732 C735 1.314 . S
C733 C730 1.348 . S
C733 C735 1.353 . S
C733 H789 0.929 . S
C734 C730 1.356 . S
C734 C731 1.358 . S
C734 H790 0.930 . S
C735 N732 1.314 . S
C735 C733 1.353 . S
C735 H791 0.930 . S
C736 N737 1.314 . S
C736 C741 1.353 . S
C736 H742 0.930 . S
N737 Li720 1.990 . S
N737 C736 1.314 . S
N737 C739 1.279 . S
C738 C739 1.358 . S
C738 C740 1.356 . S
C738 H792 0.930 . S
C739 N737 1.279 . S
C739 C738 1.358 . S
C739 H743 0.930 . S
C740 C738 1.356 . S
C740 C741 1.348 . S
C741 C736 1.353 . S
C741 C740 1.348 . S
C741 H793 0.929 . S
H742 C736 0.930 . S
H743 C739 0.930 . S
C744 N745 1.314 . S
C744 C746 1.353 . S
C744 H750 0.930 . S
N745 Li721 1.990 . S
N745 C744 1.314 . S
N745 C748 1.279 . S
C746 C744 1.353 . S
C746 C749 1.348 . S
C746 H794 0.929 . S
C747 C748 1.358 . S
C747 C749 1.356 . S
C747 H795 0.930 . S
C748 N745 1.279 . S
C748 C747 1.358 . S
C748 H751 0.930 . S
C749 C746 1.348 . S
C749 C747 1.356 . S
H750 C744 0.930 . S
H751 C748 0.930 . S
C752 C754 1.348 . S
C752 C755 1.356 . S
C752 O782 1.325 . S
N753 C756 1.314 . S
N753 C757 1.279 . S
C754 C752 1.348 . S
C754 C756 1.353 . S
C754 H796 0.929 . S
C755 C752 1.356 . S
C755 C757 1.358 . S
C755 H797 0.930 . S
C756 N753 1.314 . S
C756 C754 1.353 . S
C756 H798 0.930 . S
C757 N753 1.279 . S
C757 C755 1.358 . S
C757 H799 0.930 . S
C758 C759 1.348 . S
C758 C760 1.356 . S
C758 O783 1.325 . S
C759 C758 1.348 . S
C759 C761 1.353 . S
C759 H800 0.929 . S
C760 C758 1.356 . S
C760 C762 1.358 . S
C760 H801 0.930 . S
C761 C759 1.353 . S
C761 N763 1.314 . S
C761 H802 0.930 . S
C762 C760 1.358 . S
C762 N763 1.279 . S
C762 H803 0.930 . S
N763 C761 1.314 . S
N763 C762 1.279 . S
C764 C766 1.353 . S
C764 N767 1.314 . S
C764 H770 0.930 . S
C765 N767 1.279 . S
C765 C768 1.358 . S
C765 H771 0.930 . S
C766 C764 1.353 . S
C766 C769 1.348 . S
C766 H804 0.929 . S
N767 Li722 1.990 . S
N767 C764 1.314 . S
N767 C765 1.279 . S
C768 C765 1.358 . S
C768 C769 1.356 . S
C768 H805 0.930 . S
C769 C766 1.348 . S
C769 C768 1.356 . S
H770 C764 0.930 . S
H771 C765 0.930 . S
C772 N773 1.314 . S
C772 C774 1.353 . S
C772 H778 0.930 . S
N773 Li723 1.990 . S
N773 C772 1.314 . S
N773 C776 1.279 . S
C774 C772 1.353 . S
C774 C777 1.348 . S
C774 H806 0.929 . S
C775 C776 1.358 . S
C775 C777 1.356 . S
C775 H807 0.930 . S
C776 N773 1.279 . S
C776 C775 1.358 . S
C776 H779 0.930 . S
C777 C774 1.348 . S
C777 C775 1.356 . S
H778 C772 0.930 . S
H779 C776 0.930 . S
O780 Li720 1.956 . S
O780 Li721 1.970 . S
O780 Li722 1.961 . S
O780 C724 1.325 . S
O781 Li720 1.970 . S
O781 Li721 1.956 . S
O781 Li723 1.961 . S
O781 C730 1.325 . S
O782 Li720 1.961 . S
O782 Li722 1.956 . S
O782 Li723 1.970 . S
O782 C752 1.325 . S
O783 Li721 1.961 . S
O783 Li722 1.970 . S
O783 Li723 1.956 . S
O783 C758 1.325 . S
H784 C726 0.929 . S
H785 C727 0.930 . S
H786 C728 0.930 . S
H787 C729 0.930 . S
H788 C731 0.930 . S
H789 C733 0.929 . S
H790 C734 0.930 . S
H791 C735 0.930 . S
H792 C738 0.930 . S
H793 C741 0.929 . S
H794 C746 0.929 . S
H795 C747 0.930 . S
H796 C754 0.929 . S
H797 C755 0.930 . S
H798 C756 0.930 . S
H799 C757 0.930 . S
H800 C759 0.929 . S
H801 C760 0.930 . S
H802 C761 0.930 . S
H803 C762 0.930 . S
H804 C766 0.929 . S
H805 C768 0.930 . S
H806 C774 0.929 . S
H807 C775 0.930 . S
Li808 N825 1.990 . S
Li808 O868 1.956 . S
Li808 O869 1.970 1_565 S
Li808 O870 1.961 . S
Li809 N833 1.990 . S
Li809 O868 1.970 1_545 S
Li809 O869 1.956 . S
Li809 O871 1.961 . S
Li810 N855 1.990 . S
Li810 O868 1.961 . S
Li810 O870 1.956 . S
Li810 O871 1.970 1_565 S
Li811 N861 1.990 . S
Li811 O869 1.961 . S
Li811 O870 1.970 1_545 S
Li811 O871 1.956 . S
C812 C814 1.348 . S
C812 C815 1.356 . S
C812 O868 1.325 . S
N813 C816 1.314 . S
N813 C817 1.279 . S
C814 C812 1.348 . S
C814 C816 1.353 . S
C814 H872 0.929 . S
C815 C812 1.356 . S
C815 C817 1.358 . S
C815 H873 0.930 . S
C816 N813 1.314 . S
C816 C814 1.353 . S
C816 H874 0.930 . S
C817 N813 1.279 . S
C817 C815 1.358 . S
C817 H875 0.930 . S
C818 C821 1.348 1_545 S
C818 C822 1.356 . S
C818 O869 1.325 . S
C819 N820 1.279 . S
C819 C822 1.358 . S
C819 H876 0.930 . S
N820 C819 1.279 . S
N820 C823 1.314 1_545 S
C821 C818 1.348 1_565 S
C821 C823 1.353 . S
C821 H877 0.929 . S
C822 C818 1.356 . S
C822 C819 1.358 . S
C822 H878 0.930 . S
C823 N820 1.314 1_565 S
C823 C821 1.353 . S
C823 H879 0.930 . S
C824 N825 1.314 . S
C824 C829 1.353 . S
C824 H830 0.930 . S
N825 Li808 1.990 . S
N825 C824 1.314 . S
N825 C827 1.279 . S
C826 C827 1.358 . S
C826 C828 1.356 . S
C826 H880 0.930 . S
C827 N825 1.279 . S
C827 C826 1.358 . S
C827 H831 0.930 . S
C828 C826 1.356 . S
C828 C829 1.348 . S
C829 C824 1.353 . S
C829 C828 1.348 . S
C829 H881 0.929 . S
H830 C824 0.930 . S
H831 C827 0.930 . S
C832 N833 1.314 . S
C832 C834 1.353 . S
C832 H838 0.930 . S
N833 Li809 1.990 . S
N833 C832 1.314 . S
N833 C836 1.279 . S
C834 C832 1.353 . S
C834 C837 1.348 . S
C834 H882 0.929 . S
C835 C836 1.358 . S
C835 C837 1.356 . S
C835 H883 0.930 . S
C836 N833 1.279 . S
C836 C835 1.358 . S
C836 H839 0.930 . S
C837 C834 1.348 . S
C837 C835 1.356 . S
H838 C832 0.930 . S
H839 C836 0.930 . S
C840 C842 1.348 1_565 S
C840 C843 1.356 . S
C840 O870 1.325 . S
N841 C844 1.314 1_565 S
N841 C845 1.279 . S
C842 C840 1.348 1_545 S
C842 C844 1.353 . S
C842 H884 0.929 . S
C843 C840 1.356 . S
C843 C845 1.358 . S
C843 H885 0.930 . S
C844 N841 1.314 1_545 S
C844 C842 1.353 . S
C844 H886 0.930 . S
C845 N841 1.279 . S
C845 C843 1.358 . S
C845 H887 0.930 . S
C846 C847 1.348 . S
C846 C848 1.356 . S
C846 O871 1.325 . S
C847 C846 1.348 . S
C847 C849 1.353 . S
C847 H888 0.929 . S
C848 C846 1.356 . S
C848 C850 1.358 . S
C848 H889 0.930 . S
C849 C847 1.353 . S
C849 N851 1.314 . S
C849 H890 0.930 . S
C850 C848 1.358 . S
C850 N851 1.279 . S
C850 H891 0.930 . S
N851 C849 1.314 . S
N851 C850 1.279 . S
C852 C854 1.353 . S
C852 N855 1.314 . S
C852 H858 0.930 . S
C853 N855 1.279 . S
C853 C856 1.358 . S
C853 H859 0.930 . S
C854 C852 1.353 . S
C854 C857 1.348 . S
C854 H892 0.929 . S
N855 Li810 1.990 . S
N855 C852 1.314 . S
N855 C853 1.279 . S
C856 C853 1.358 . S
C856 C857 1.356 . S
C856 H893 0.930 . S
C857 C854 1.348 . S
C857 C856 1.356 . S
H858 C852 0.930 . S
H859 C853 0.930 . S
C860 N861 1.314 . S
C860 C862 1.353 . S
C860 H866 0.930 . S
N861 Li811 1.990 . S
N861 C860 1.314 . S
N861 C864 1.279 . S
C862 C860 1.353 . S
C862 C865 1.348 . S
C862 H894 0.929 . S
C863 C864 1.358 . S
C863 C865 1.356 . S
C863 H895 0.930 . S
C864 N861 1.279 . S
C864 C863 1.358 . S
C864 H867 0.930 . S
C865 C862 1.348 . S
C865 C863 1.356 . S
H866 C860 0.930 . S
H867 C864 0.930 . S
O868 Li808 1.956 . S
O868 Li809 1.970 1_565 S
O868 Li810 1.961 . S
O868 C812 1.325 . S
O869 Li808 1.970 1_545 S
O869 Li809 1.956 . S
O869 Li811 1.961 . S
O869 C818 1.325 . S
O870 Li808 1.961 . S
O870 Li810 1.956 . S
O870 Li811 1.970 1_565 S
O870 C840 1.325 . S
O871 Li809 1.961 . S
O871 Li810 1.970 1_545 S
O871 Li811 1.956 . S
O871 C846 1.325 . S
H872 C814 0.929 . S
H873 C815 0.930 . S
H874 C816 0.930 . S
H875 C817 0.930 . S
H876 C819 0.930 . S
H877 C821 0.929 . S
H878 C822 0.930 . S
H879 C823 0.930 . S
H880 C826 0.930 . S
H881 C829 0.929 . S
H882 C834 0.929 . S
H883 C835 0.930 . S
H884 C842 0.929 . S
H885 C843 0.930 . S
H886 C844 0.930 . S
H887 C845 0.930 . S
H888 C847 0.929 . S
H889 C848 0.930 . S
H890 C849 0.930 . S
H891 C850 0.930 . S
H892 C854 0.929 . S
H893 C856 0.930 . S
H894 C862 0.929 . S
H895 C863 0.930 . S
Li896 N913 1.990 . S
Li896 O956 1.956 . S
Li896 O957 1.970 . S
Li896 O958 1.961 . S
Li897 N921 1.983 1_455 S
Li897 O956 1.970 . S
Li897 O957 1.956 . S
Li897 O959 1.961 1_455 S
Li898 N943 1.990 . S
Li898 O956 1.961 . S
Li898 O958 1.956 . S
Li898 O959 1.970 1_455 S
Li899 N949 1.990 . S
Li899 O957 1.961 1_655 S
Li899 O958 1.970 1_655 S
Li899 O959 1.956 . S
C900 C902 1.348 . S
C900 C903 1.356 . S
C900 O956 1.325 . S
N901 C904 1.314 . S
N901 C905 1.279 . S
C902 C900 1.348 . S
C902 C904 1.353 . S
C902 H960 0.929 . S
C903 C900 1.356 . S
C903 C905 1.358 . S
C903 H961 0.930 . S
C904 N901 1.314 . S
C904 C902 1.353 . S
C904 H962 0.930 . S
C905 N901 1.279 . S
C905 C903 1.358 . S
C905 H963 0.930 . S
C906 C909 1.363 . S
C906 C910 1.338 1_455 S
C906 O957 1.328 . S
C907 N908 1.279 . S
C907 C910 1.358 . S
C907 H964 0.930 . S
N908 C907 1.279 . S
N908 C911 1.314 1_655 S
C909 C906 1.363 . S
C909 C911 1.353 . S
C909 H965 0.929 . S
C910 C906 1.338 1_655 S
C910 C907 1.358 . S
C910 H966 0.930 . S
C911 N908 1.314 1_455 S
C911 C909 1.353 . S
C911 H967 0.930 . S
C912 N913 1.314 . S
C912 C917 1.353 . S
C912 H918 0.930 . S
N913 Li896 1.990 . S
N913 C912 1.314 . S
N913 C915 1.279 . S
C914 C915 1.358 . S
C914 C916 1.356 . S
C914 H968 0.930 . S
C915 N913 1.279 . S
C915 C914 1.358 . S
C915 H919 0.930 . S
C916 C914 1.356 . S
C916 C917 1.348 . S
C917 C912 1.353 . S
C917 C916 1.348 . S
C917 H969 0.929 . S
H918 C912 0.930 . S
H919 C915 0.930 . S
C920 N921 1.323 . S
C920 C922 1.353 . S
C920 H926 0.930 . S
N921 Li897 1.983 1_655 S
N921 C920 1.323 . S
N921 C924 1.277 1_655 S
C922 C920 1.353 . S
C922 C925 1.348 . S
C922 H970 0.929 . S
C923 C924 1.358 . S
C923 C925 1.357 1_455 S
C923 H971 0.929 . S
C924 N921 1.277 1_455 S
C924 C923 1.358 . S
C924 H927 0.930 . S
C925 C922 1.348 . S
C925 C923 1.357 1_655 S
H926 C920 0.930 . S
H927 C924 0.930 . S
C928 C930 1.348 1_455 S
C928 C931 1.356 . S
C928 O958 1.325 . S
N929 C932 1.314 1_455 S
N929 C933 1.279 . S
C930 C928 1.348 1_655 S
C930 C932 1.353 . S
C930 H972 0.929 . S
C931 C928 1.356 . S
C931 C933 1.358 . S
C931 H973 0.930 . S
C932 N929 1.314 1_655 S
C932 C930 1.353 . S
C932 H974 0.930 . S
C933 N929 1.279 . S
C933 C931 1.358 . S
C933 H975 0.930 . S
C934 C935 1.348 . S
C934 C936 1.356 . S
C934 O959 1.325 . S
C935 C934 1.348 . S
C935 C937 1.353 . S
C935 H976 0.929 . S
C936 C934 1.356 . S
C936 C938 1.358 . S
C936 H977 0.930 . S
C937 C935 1.353 . S
C937 N939 1.314 . S
C937 H978 0.930 . S
C938 C936 1.358 . S
C938 N939 1.279 . S
C938 H979 0.930 . S
N939 C937 1.314 . S
N939 C938 1.279 . S
C940 C942 1.353 . S
C940 N943 1.314 . S
C940 H946 0.930 . S
C941 N943 1.279 . S
C941 C944 1.358 . S
C941 H947 0.930 . S
C942 C940 1.353 . S
C942 C945 1.348 . S
C942 H980 0.929 . S
N943 Li898 1.990 . S
N943 C940 1.314 . S
N943 C941 1.279 . S
C944 C941 1.358 . S
C944 C945 1.356 . S
C944 H981 0.930 . S
C945 C942 1.348 . S
C945 C944 1.356 . S
H946 C940 0.930 . S
H947 C941 0.930 . S
C948 N949 1.314 . S
C948 C950 1.353 . S
C948 H954 0.930 . S
N949 Li899 1.990 . S
N949 C948 1.314 . S
N949 C952 1.279 . S
C950 C948 1.353 . S
C950 C953 1.348 . S
C950 H982 0.929 . S
C951 C952 1.358 . S
C951 C953 1.356 . S
C951 H983 0.930 . S
C952 N949 1.279 . S
C952 C951 1.358 . S
C952 H955 0.930 . S
C953 C950 1.348 . S
C953 C951 1.356 . S
H954 C948 0.930 . S
H955 C952 0.930 . S
O956 Li896 1.956 . S
O956 Li897 1.970 . S
O956 Li898 1.961 . S
O956 C900 1.325 . S
O957 Li896 1.970 . S
O957 Li897 1.956 . S
O957 Li899 1.961 1_455 S
O957 C906 1.328 . S
O958 Li896 1.961 . S
O958 Li898 1.956 . S
O958 Li899 1.970 1_455 S
O958 C928 1.325 . S
O959 Li897 1.961 1_655 S
O959 Li898 1.970 1_655 S
O959 Li899 1.956 . S
O959 C934 1.325 . S
H960 C902 0.929 . S
H961 C903 0.930 . S
H962 C904 0.930 . S
H963 C905 0.930 . S
H964 C907 0.930 . S
H965 C909 0.929 . S
H966 C910 0.930 . S
H967 C911 0.930 . S
H968 C914 0.930 . S
H969 C917 0.929 . S
H970 C922 0.929 . S
H971 C923 0.929 . S
H972 C930 0.929 . S
H973 C931 0.930 . S
H974 C932 0.930 . S
H975 C933 0.930 . S
H976 C935 0.929 . S
H977 C936 0.930 . S
H978 C937 0.930 . S
H979 C938 0.930 . S
H980 C942 0.929 . S
H981 C944 0.930 . S
H982 C950 0.929 . S
H983 C951 0.930 . S
Li984 N1001 1.990 . S
Li984 O1044 1.956 . S
Li984 O1045 1.970 . S
Li984 O1046 1.961 . S
Li985 N1009 1.990 . S
Li985 O1044 1.970 . S
Li985 O1045 1.956 . S
Li985 O1047 1.961 . S
Li986 N1031 1.990 . S
Li986 O1044 1.961 . S
Li986 O1046 1.956 . S
Li986 O1047 1.970 . S
Li987 N1037 1.990 . S
Li987 O1045 1.961 . S
Li987 O1046 1.970 . S
Li987 O1047 1.956 . S
C988 C990 1.348 . S
C988 C991 1.356 . S
C988 O1044 1.325 . S
N989 C992 1.314 . S
N989 C993 1.279 . S
C990 C988 1.348 . S
C990 C992 1.353 . S
C990 H1048 0.929 . S
C991 C988 1.356 . S
C991 C993 1.358 . S
C991 H1049 0.930 . S
C992 N989 1.314 . S
C992 C990 1.353 . S
C992 H1050 0.930 . S
C993 N989 1.279 . S
C993 C991 1.358 . S
C993 H1051 0.930 . S
C994 C997 1.348 . S
C994 C998 1.356 . S
C994 O1045 1.325 . S
C995 N996 1.279 . S
C995 C998 1.358 . S
C995 H1052 0.930 . S
N996 C995 1.279 . S
N996 C999 1.314 . S
C997 C994 1.348 . S
C997 C999 1.353 . S
C997 H1053 0.929 . S
C998 C994 1.356 . S
C998 C995 1.358 . S
C998 H1054 0.930 . S
C999 N996 1.314 . S
C999 C997 1.353 . S
C999 H1055 0.930 . S
C1000 N1001 1.314 . S
C1000 C1005 1.353 . S
C1000 H1006 0.930 . S
N1001 Li984 1.990 . S
N1001 C1000 1.314 . S
N1001 C1003 1.279 . S
C1002 C1003 1.358 . S
C1002 C1004 1.356 . S
C1002 H1056 0.930 . S
C1003 N1001 1.279 . S
C1003 C1002 1.358 . S
C1003 H1007 0.930 . S
C1004 C1002 1.356 . S
C1004 C1005 1.348 . S
C1005 C1000 1.353 . S
C1005 C1004 1.348 . S
C1005 H1057 0.929 . S
H1006 C1000 0.930 . S
H1007 C1003 0.930 . S
C1008 N1009 1.314 . S
C1008 C1010 1.353 . S
C1008 H1014 0.930 . S
N1009 Li985 1.990 . S
N1009 C1008 1.314 . S
N1009 C1012 1.279 . S
C1010 C1008 1.353 . S
C1010 C1013 1.348 . S
C1010 H1058 0.929 . S
C1011 C1012 1.358 . S
C1011 C1013 1.356 . S
C1011 H1059 0.930 . S
C1012 N1009 1.279 . S
C1012 C1011 1.358 . S
C1012 H1015 0.930 . S
C1013 C1010 1.348 . S
C1013 C1011 1.356 . S
H1014 C1008 0.930 . S
H1015 C1012 0.930 . S
C1016 C1018 1.348 . S
C1016 C1019 1.356 . S
C1016 O1046 1.325 . S
N1017 C1020 1.314 . S
N1017 C1021 1.279 . S
C1018 C1016 1.348 . S
C1018 C1020 1.353 . S
C1018 H1060 0.929 . S
C1019 C1016 1.356 . S
C1019 C1021 1.358 . S
C1019 H1061 0.930 . S
C1020 N1017 1.314 . S
C1020 C1018 1.353 . S
C1020 H1062 0.930 . S
C1021 N1017 1.279 . S
C1021 C1019 1.358 . S
C1021 H1063 0.930 . S
C1022 C1023 1.348 . S
C1022 C1024 1.356 . S
C1022 O1047 1.325 . S
C1023 C1022 1.348 . S
C1023 C1025 1.353 . S
C1023 H1064 0.929 . S
C1024 C1022 1.356 . S
C1024 C1026 1.358 . S
C1024 H1065 0.930 . S
C1025 C1023 1.353 . S
C1025 N1027 1.314 . S
C1025 H1066 0.930 . S
C1026 C1024 1.358 . S
C1026 N1027 1.279 . S
C1026 H1067 0.930 . S
N1027 C1025 1.314 . S
N1027 C1026 1.279 . S
C1028 C1030 1.353 . S
C1028 N1031 1.314 . S
C1028 H1034 0.930 . S
C1029 N1031 1.279 . S
C1029 C1032 1.358 . S
C1029 H1035 0.930 . S
C1030 C1028 1.353 . S
C1030 C1033 1.348 . S
C1030 H1068 0.929 . S
N1031 Li986 1.990 . S
N1031 C1028 1.314 . S
N1031 C1029 1.279 . S
C1032 C1029 1.358 . S
C1032 C1033 1.356 . S
C1032 H1069 0.930 . S
C1033 C1030 1.348 . S
C1033 C1032 1.356 . S
H1034 C1028 0.930 . S
H1035 C1029 0.930 . S
C1036 N1037 1.314 . S
C1036 C1038 1.353 . S
C1036 H1042 0.930 . S
N1037 Li987 1.990 . S
N1037 C1036 1.314 . S
N1037 C1040 1.279 . S
C1038 C1036 1.353 . S
C1038 C1041 1.348 . S
C1038 H1070 0.929 . S
C1039 C1040 1.358 . S
C1039 C1041 1.356 . S
C1039 H1071 0.930 . S
C1040 N1037 1.279 . S
C1040 C1039 1.358 . S
C1040 H1043 0.930 . S
C1041 C1038 1.348 . S
C1041 C1039 1.356 . S
H1042 C1036 0.930 . S
H1043 C1040 0.930 . S
O1044 Li984 1.956 . S
O1044 Li985 1.970 . S
O1044 Li986 1.961 . S
O1044 C988 1.325 . S
O1045 Li984 1.970 . S
O1045 Li985 1.956 . S
O1045 Li987 1.961 . S
O1045 C994 1.325 . S
O1046 Li984 1.961 . S
O1046 Li986 1.956 . S
O1046 Li987 1.970 . S
O1046 C1016 1.325 . S
O1047 Li985 1.961 . S
O1047 Li986 1.970 . S
O1047 Li987 1.956 . S
O1047 C1022 1.325 . S
H1048 C990 0.929 . S
H1049 C991 0.930 . S
H1050 C992 0.930 . S
H1051 C993 0.930 . S
H1052 C995 0.930 . S
H1053 C997 0.929 . S
H1054 C998 0.930 . S
H1055 C999 0.930 . S
H1056 C1002 0.930 . S
H1057 C1005 0.929 . S
H1058 C1010 0.929 . S
H1059 C1011 0.930 . S
H1060 C1018 0.929 . S
H1061 C1019 0.930 . S
H1062 C1020 0.930 . S
H1063 C1021 0.930 . S
H1064 C1023 0.929 . S
H1065 C1024 0.930 . S
H1066 C1025 0.930 . S
H1067 C1026 0.930 . S
H1068 C1030 0.929 . S
H1069 C1032 0.930 . S
H1070 C1038 0.929 . S
H1071 C1039 0.930 . S
Li1072 N1089 1.990 . S
Li1072 O1132 1.956 . S
Li1072 O1133 1.970 1_455 S
Li1072 O1134 1.961 . S
Li1073 N1097 1.990 . S
Li1073 O1132 1.970 1_655 S
Li1073 O1133 1.956 . S
Li1073 O1135 1.961 1_655 S
Li1074 N1119 1.990 . S
Li1074 O1132 1.961 . S
Li1074 O1134 1.956 . S
Li1074 O1135 1.970 . S
Li1075 N1125 1.997 . S
Li1075 O1133 1.961 1_455 S
Li1075 O1134 1.970 . S
Li1075 O1135 1.956 . S
C1076 C1078 1.348 . S
C1076 C1079 1.356 . S
C1076 O1132 1.325 . S
N1077 C1080 1.314 . S
N1077 C1081 1.279 . S
C1078 C1076 1.348 . S
C1078 C1080 1.353 . S
C1078 H1136 0.929 1_455 S
C1079 C1076 1.356 . S
C1079 C1081 1.358 . S
C1079 H1137 0.930 . S
C1080 N1077 1.314 . S
C1080 C1078 1.353 . S
C1080 H1138 0.930 1_455 S
C1081 N1077 1.279 . S
C1081 C1079 1.358 . S
C1081 H1139 0.930 . S
C1082 C1085 1.348 . S
C1082 C1086 1.356 . S
C1082 O1133 1.325 . S
C1083 N1084 1.279 . S
C1083 C1086 1.358 . S
C1083 H1140 0.930 . S
N1084 C1083 1.279 . S
N1084 C1087 1.314 . S
C1085 C1082 1.348 . S
C1085 C1087 1.353 . S
C1085 H1141 0.929 . S
C1086 C1082 1.356 . S
C1086 C1083 1.358 . S
C1086 H1142 0.930 . S
C1087 N1084 1.314 . S
C1087 C1085 1.353 . S
C1087 H1143 0.930 . S
C1088 N1089 1.314 . S
C1088 C1093 1.353 . S
C1088 H1094 0.930 . S
N1089 Li1072 1.990 . S
N1089 C1088 1.314 . S
N1089 C1091 1.279 . S
C1090 C1091 1.358 . S
C1090 C1092 1.356 . S
C1090 H1144 0.930 . S
C1091 N1089 1.279 . S
C1091 C1090 1.358 . S
C1091 H1095 0.930 . S
C1092 C1090 1.356 . S
C1092 C1093 1.348 . S
C1093 C1088 1.353 . S
C1093 C1092 1.348 . S
C1093 H1145 0.929 . S
H1094 C1088 0.930 . S
H1095 C1091 0.930 . S
C1096 N1097 1.314 . S
C1096 C1098 1.353 . S
C1096 H1102 0.930 . S
N1097 Li1073 1.990 . S
N1097 C1096 1.314 . S
N1097 C1100 1.279 . S
C1098 C1096 1.353 . S
C1098 C1101 1.348 . S
C1098 H1146 0.929 . S
C1099 C1100 1.358 . S
C1099 C1101 1.356 . S
C1099 H1147 0.930 . S
C1100 N1097 1.279 . S
C1100 C1099 1.358 . S
C1100 H1103 0.930 . S
C1101 C1098 1.348 . S
C1101 C1099 1.356 . S
H1102 C1096 0.930 . S
H1103 C1100 0.930 . S
C1104 C1106 1.348 . S
C1104 C1107 1.356 . S
C1104 O1134 1.325 . S
N1105 C1108 1.314 . S
N1105 C1109 1.279 . S
C1106 C1104 1.348 . S
C1106 C1108 1.353 . S
C1106 H1148 0.929 . S
C1107 C1104 1.356 . S
C1107 C1109 1.358 . S
C1107 H1149 0.930 . S
C1108 N1105 1.314 . S
C1108 C1106 1.353 . S
C1108 H1150 0.930 . S
C1109 N1105 1.279 . S
C1109 C1107 1.358 . S
C1109 H1151 0.930 . S
C1110 C1111 1.348 . S
C1110 C1112 1.356 1_455 S
C1110 O1135 1.325 . S
C1111 C1110 1.348 . S
C1111 C1113 1.353 . S
C1111 H1152 0.929 . S
C1112 C1110 1.356 1_655 S
C1112 C1114 1.358 . S
C1112 H1153 0.930 . S
C1113 C1111 1.353 . S
C1113 N1115 1.314 1_455 S
C1113 H1154 0.930 . S
C1114 C1112 1.358 . S
C1114 N1115 1.279 . S
C1114 H1155 0.930 . S
N1115 C1113 1.314 1_655 S
N1115 C1114 1.279 . S
C1116 C1118 1.353 . S
C1116 N1119 1.314 . S
C1116 H1122 0.930 . S
C1117 N1119 1.279 . S
C1117 C1120 1.358 . S
C1117 H1123 0.930 . S
C1118 C1116 1.353 . S
C1118 C1121 1.348 . S
C1118 H1156 0.929 . S
N1119 Li1074 1.990 . S
N1119 C1116 1.314 . S
N1119 C1117 1.279 . S
C1120 C1117 1.358 . S
C1120 C1121 1.356 . S
C1120 H1157 0.930 . S
C1121 C1118 1.348 . S
C1121 C1120 1.356 . S
H1122 C1116 0.930 . S
H1123 C1117 0.930 . S
C1124 N1125 1.307 1_655 S
C1124 C1126 1.353 . S
C1124 H1130 0.930 . S
N1125 Li1075 1.997 . S
N1125 C1124 1.307 1_455 S
N1125 C1128 1.287 . S
C1126 C1124 1.353 . S
C1126 C1129 1.348 . S
C1126 H1158 0.929 . S
C1127 C1128 1.358 . S
C1127 C1129 1.356 1_455 S
C1127 H1159 0.927 . S
C1128 N1125 1.287 . S
C1128 C1127 1.358 . S
C1128 H1131 0.930 . S
C1129 C1126 1.348 . S
C1129 C1127 1.356 1_655 S
H1130 C1124 0.930 . S
H1131 C1128 0.930 . S
O1132 Li1072 1.956 . S
O1132 Li1073 1.970 1_455 S
O1132 Li1074 1.961 . S
O1132 C1076 1.325 . S
O1133 Li1072 1.970 1_655 S
O1133 Li1073 1.956 . S
O1133 Li1075 1.961 1_655 S
O1133 C1082 1.325 . S
O1134 Li1072 1.961 . S
O1134 Li1074 1.956 . S
O1134 Li1075 1.970 . S
O1134 C1104 1.325 . S
O1135 Li1073 1.961 1_455 S
O1135 Li1074 1.970 . S
O1135 Li1075 1.956 . S
O1135 C1110 1.325 . S
H1136 C1078 0.929 1_655 S
H1137 C1079 0.930 . S
H1138 C1080 0.930 1_655 S
H1139 C1081 0.930 . S
H1140 C1083 0.930 . S
H1141 C1085 0.929 . S
H1142 C1086 0.930 . S
H1143 C1087 0.930 . S
H1144 C1090 0.930 . S
H1145 C1093 0.929 . S
H1146 C1098 0.929 . S
H1147 C1099 0.930 . S
H1148 C1106 0.929 . S
H1149 C1107 0.930 . S
H1150 C1108 0.930 . S
H1151 C1109 0.930 . S
H1152 C1111 0.929 . S
H1153 C1112 0.930 . S
H1154 C1113 0.930 . S
H1155 C1114 0.930 . S
H1156 C1118 0.929 . S
H1157 C1120 0.930 . S
H1158 C1126 0.929 . S
H1159 C1127 0.927 . S
Li1160 N1177 1.990 . S
Li1160 O1220 1.956 . S
Li1160 O1221 1.970 . S
Li1160 O1222 1.961 . S
Li1161 N1185 1.990 . S
Li1161 O1220 1.970 . S
Li1161 O1221 1.956 . S
Li1161 O1223 1.961 . S
Li1162 N1207 1.990 . S
Li1162 O1220 1.961 . S
Li1162 O1222 1.956 . S
Li1162 O1223 1.970 . S
Li1163 N1213 1.990 . S
Li1163 O1221 1.961 . S
Li1163 O1222 1.970 . S
Li1163 O1223 1.956 . S
C1164 C1166 1.348 . S
C1164 C1167 1.356 . S
C1164 O1220 1.325 . S
N1165 C1168 1.314 . S
N1165 C1169 1.279 . S
C1166 C1164 1.348 . S
C1166 C1168 1.353 . S
C1166 H1224 0.929 . S
C1167 C1164 1.356 . S
C1167 C1169 1.358 . S
C1167 H1225 0.930 . S
C1168 N1165 1.314 . S
C1168 C1166 1.353 . S
C1168 H1226 0.930 . S
C1169 N1165 1.279 . S
C1169 C1167 1.358 . S
C1169 H1227 0.930 . S
C1170 C1173 1.348 . S
C1170 C1174 1.356 . S
C1170 O1221 1.325 . S
C1171 N1172 1.279 . S
C1171 C1174 1.358 . S
C1171 H1228 0.930 . S
N1172 C1171 1.279 . S
N1172 C1175 1.314 . S
C1173 C1170 1.348 . S
C1173 C1175 1.353 . S
C1173 H1229 0.929 . S
C1174 C1170 1.356 . S
C1174 C1171 1.358 . S
C1174 H1230 0.930 . S
C1175 N1172 1.314 . S
C1175 C1173 1.353 . S
C1175 H1231 0.930 . S
C1176 N1177 1.314 . S
C1176 C1181 1.353 . S
C1176 H1182 0.930 . S
N1177 Li1160 1.990 . S
N1177 C1176 1.314 . S
N1177 C1179 1.279 . S
C1178 C1179 1.358 . S
C1178 C1180 1.356 . S
C1178 H1232 0.930 . S
C1179 N1177 1.279 . S
C1179 C1178 1.358 . S
C1179 H1183 0.930 . S
C1180 C1178 1.356 . S
C1180 C1181 1.348 . S
C1181 C1176 1.353 . S
C1181 C1180 1.348 . S
C1181 H1233 0.929 . S
H1182 C1176 0.930 . S
H1183 C1179 0.930 . S
C1184 N1185 1.314 . S
C1184 C1186 1.353 . S
C1184 H1190 0.930 . S
N1185 Li1161 1.990 . S
N1185 C1184 1.314 . S
N1185 C1188 1.279 . S
C1186 C1184 1.353 . S
C1186 C1189 1.348 . S
C1186 H1234 0.929 . S
C1187 C1188 1.358 . S
C1187 C1189 1.356 . S
C1187 H1235 0.930 . S
C1188 N1185 1.279 . S
C1188 C1187 1.358 . S
C1188 H1191 0.930 . S
C1189 C1186 1.348 . S
C1189 C1187 1.356 . S
H1190 C1184 0.930 . S
H1191 C1188 0.930 . S
C1192 C1194 1.348 . S
C1192 C1195 1.356 . S
C1192 O1222 1.325 . S
N1193 C1196 1.314 . S
N1193 C1197 1.279 . S
C1194 C1192 1.348 . S
C1194 C1196 1.353 . S
C1194 H1236 0.929 . S
C1195 C1192 1.356 . S
C1195 C1197 1.358 . S
C1195 H1237 0.930 . S
C1196 N1193 1.314 . S
C1196 C1194 1.353 . S
C1196 H1238 0.930 . S
C1197 N1193 1.279 . S
C1197 C1195 1.358 . S
C1197 H1239 0.930 . S
C1198 C1199 1.348 . S
C1198 C1200 1.356 . S
C1198 O1223 1.325 . S
C1199 C1198 1.348 . S
C1199 C1201 1.353 . S
C1199 H1240 0.929 . S
C1200 C1198 1.356 . S
C1200 C1202 1.358 . S
C1200 H1241 0.930 . S
C1201 C1199 1.353 . S
C1201 N1203 1.314 . S
C1201 H1242 0.930 . S
C1202 C1200 1.358 . S
C1202 N1203 1.279 . S
C1202 H1243 0.930 . S
N1203 C1201 1.314 . S
N1203 C1202 1.279 . S
C1204 C1206 1.353 . S
C1204 N1207 1.314 . S
C1204 H1210 0.930 . S
C1205 N1207 1.279 . S
C1205 C1208 1.358 . S
C1205 H1211 0.930 . S
C1206 C1204 1.353 . S
C1206 C1209 1.348 . S
C1206 H1244 0.929 . S
N1207 Li1162 1.990 . S
N1207 C1204 1.314 . S
N1207 C1205 1.279 . S
C1208 C1205 1.358 . S
C1208 C1209 1.356 . S
C1208 H1245 0.930 . S
C1209 C1206 1.348 . S
C1209 C1208 1.356 . S
H1210 C1204 0.930 . S
H1211 C1205 0.930 . S
C1212 N1213 1.314 . S
C1212 C1214 1.353 . S
C1212 H1218 0.930 . S
N1213 Li1163 1.990 . S
N1213 C1212 1.314 . S
N1213 C1216 1.279 . S
C1214 C1212 1.353 . S
C1214 C1217 1.348 . S
C1214 H1246 0.929 . S
C1215 C1216 1.358 . S
C1215 C1217 1.356 . S
C1215 H1247 0.930 . S
C1216 N1213 1.279 . S
C1216 C1215 1.358 . S
C1216 H1219 0.930 . S
C1217 C1214 1.348 . S
C1217 C1215 1.356 . S
H1218 C1212 0.930 . S
H1219 C1216 0.930 . S
O1220 Li1160 1.956 . S
O1220 Li1161 1.970 . S
O1220 Li1162 1.961 . S
O1220 C1164 1.325 . S
O1221 Li1160 1.970 . S
O1221 Li1161 1.956 . S
O1221 Li1163 1.961 . S
O1221 C1170 1.325 . S
O1222 Li1160 1.961 . S
O1222 Li1162 1.956 . S
O1222 Li1163 1.970 . S
O1222 C1192 1.325 . S
O1223 Li1161 1.961 . S
O1223 Li1162 1.970 . S
O1223 Li1163 1.956 . S
O1223 C1198 1.325 . S
H1224 C1166 0.929 . S
H1225 C1167 0.930 . S
H1226 C1168 0.930 . S
H1227 C1169 0.930 . S
H1228 C1171 0.930 . S
H1229 C1173 0.929 . S
H1230 C1174 0.930 . S
H1231 C1175 0.930 . S
H1232 C1178 0.930 . S
H1233 C1181 0.929 . S
H1234 C1186 0.929 . S
H1235 C1187 0.930 . S
H1236 C1194 0.929 . S
H1237 C1195 0.930 . S
H1238 C1196 0.930 . S
H1239 C1197 0.930 . S
H1240 C1199 0.929 . S
H1241 C1200 0.930 . S
H1242 C1201 0.930 . S
H1243 C1202 0.930 . S
H1244 C1206 0.929 . S
H1245 C1208 0.930 . S
H1246 C1214 0.929 . S
H1247 C1215 0.930 . S
C1248 C1249 1.391 . S
C1248 C1250 1.394 . S
C1248 H1264 0.931 . S
C1249 C1248 1.391 . S
C1249 C1253 1.376 . S
C1250 C1248 1.394 . S
C1250 C1251 1.369 . S
C1250 C1254 1.531 . S
C1251 C1250 1.369 . S
C1251 C1252 1.410 . S
C1251 C1259 1.503 . S
C1252 C1251 1.410 . S
C1252 C1253 1.392 . S
C1252 C1255 1.511 . S
C1253 C1249 1.376 . S
C1253 C1252 1.392 . S
C1253 H1265 0.929 . S
C1254 C1250 1.531 . S
C1254 H1266 0.960 . S
C1254 H1267 0.962 . S
C1254 H1268 0.960 . S
C1255 C1252 1.511 . S
C1255 H1269 0.961 . S
C1255 H1270 0.961 . S
C1255 H1271 0.961 . S
C1256 C1257 1.370 . S
C1256 C1258 1.363 . S
C1256 H1272 0.931 . S
C1257 C1256 1.370 . S
C1257 C1261 1.408 . S
C1258 C1256 1.363 . S
C1258 C1259 1.370 . S
C1258 C1262 1.524 . S
C1259 C1251 1.503 . S
C1259 C1258 1.370 . S
C1259 C1260 1.403 . S
C1260 C1259 1.403 . S
C1260 C1261 1.404 . S
C1260 C1263 1.539 . S
C1261 C1257 1.408 . S
C1261 C1260 1.404 . S
C1261 H1273 0.930 . S
C1262 C1258 1.524 . S
C1262 H1274 0.956 . S
C1262 H1275 0.961 . S
C1262 H1276 0.961 . S
C1263 C1260 1.539 . S
C1263 H1277 0.958 . S
C1263 H1278 0.961 . S
C1263 H1279 0.960 . S
H1264 C1248 0.931 . S
H1265 C1253 0.929 . S
H1266 C1254 0.960 . S
H1267 C1254 0.962 . S
H1268 C1254 0.960 . S
H1269 C1255 0.961 . S
H1270 C1255 0.961 . S
H1271 C1255 0.961 . S
H1272 C1256 0.931 . S
H1273 C1261 0.930 . S
H1274 C1262 0.956 . S
H1275 C1262 0.961 . S
H1276 C1262 0.961 . S
H1277 C1263 0.958 . S
H1278 C1263 0.961 . S
H1279 C1263 0.960 . S
C1280 C1281 1.391 . S
C1280 C1282 1.394 . S
C1280 H1296 0.931 1_455 S
C1281 C1280 1.391 . S
C1281 C1285 1.376 . S
C1282 C1280 1.394 . S
C1282 C1283 1.369 . S
C1282 C1286 1.531 . S
C1283 C1282 1.369 . S
C1283 C1284 1.410 . S
C1283 C1291 1.503 . S
C1284 C1283 1.410 . S
C1284 C1285 1.392 . S
C1284 C1287 1.511 . S
C1285 C1281 1.376 . S
C1285 C1284 1.392 . S
C1285 H1297 0.929 . S
C1286 C1282 1.531 . S
C1286 H1298 0.960 . S
C1286 H1299 0.962 . S
C1286 H1300 0.920 1_455 S
C1287 C1284 1.511 . S
C1287 H1301 0.961 . S
C1287 H1302 0.961 . S
C1287 H1303 0.961 . S
C1288 C1289 1.370 . S
C1288 C1290 1.363 . S
C1288 H1304 0.931 . S
C1289 C1288 1.370 . S
C1289 C1293 1.408 . S
C1290 C1288 1.363 . S
C1290 C1291 1.370 . S
C1290 C1294 1.524 . S
C1291 C1283 1.503 . S
C1291 C1290 1.370 . S
C1291 C1292 1.403 . S
C1292 C1291 1.403 . S
C1292 C1293 1.404 . S
C1292 C1295 1.539 . S
C1293 C1289 1.408 . S
C1293 C1292 1.404 . S
C1293 H1305 0.930 . S
C1294 C1290 1.524 . S
C1294 H1306 0.956 . S
C1294 H1307 0.961 . S
C1294 H1308 0.961 . S
C1295 C1292 1.539 . S
C1295 H1309 0.958 . S
C1295 H1310 0.961 . S
C1295 H1311 0.960 . S
H1296 C1280 0.931 1_655 S
H1297 C1285 0.929 . S
H1298 C1286 0.960 . S
H1299 C1286 0.962 . S
H1300 C1286 0.920 1_655 S
H1301 C1287 0.961 . S
H1302 C1287 0.961 . S
H1303 C1287 0.961 . S
H1304 C1288 0.931 . S
H1305 C1293 0.930 . S
H1306 C1294 0.956 . S
H1307 C1294 0.961 . S
H1308 C1294 0.961 . S
H1309 C1295 0.958 . S
H1310 C1295 0.961 . S
H1311 C1295 0.960 . S
C1312 C1313 1.391 . S
C1312 C1314 1.394 . S
C1312 H1328 0.931 . S
C1313 C1312 1.391 . S
C1313 C1317 1.376 . S
C1314 C1312 1.394 . S
C1314 C1315 1.369 . S
C1314 C1318 1.531 . S
C1315 C1314 1.369 . S
C1315 C1316 1.410 . S
C1315 C1323 1.503 . S
C1316 C1315 1.410 . S
C1316 C1317 1.392 . S
C1316 C1319 1.511 . S
C1317 C1313 1.376 . S
C1317 C1316 1.392 . S
C1317 H1329 0.929 . S
C1318 C1314 1.531 . S
C1318 H1330 0.960 . S
C1318 H1331 0.962 . S
C1318 H1332 0.960 . S
C1319 C1316 1.511 . S
C1319 H1333 0.961 . S
C1319 H1334 0.961 . S
C1319 H1335 0.961 . S
C1320 C1321 1.370 . S
C1320 C1322 1.363 . S
C1320 H1336 0.931 . S
C1321 C1320 1.370 . S
C1321 C1325 1.408 . S
C1322 C1320 1.363 . S
C1322 C1323 1.370 . S
C1322 C1326 1.524 . S
C1323 C1315 1.503 . S
C1323 C1322 1.370 . S
C1323 C1324 1.403 . S
C1324 C1323 1.403 . S
C1324 C1325 1.404 . S
C1324 C1327 1.539 . S
C1325 C1321 1.408 . S
C1325 C1324 1.404 . S
C1325 H1337 0.930 . S
C1326 C1322 1.524 . S
C1326 H1338 0.956 . S
C1326 H1339 0.961 . S
C1326 H1340 0.961 . S
C1327 C1324 1.539 . S
C1327 H1341 0.958 . S
C1327 H1342 0.961 . S
C1327 H1343 0.960 . S
H1328 C1312 0.931 . S
H1329 C1317 0.929 . S
H1330 C1318 0.960 . S
H1331 C1318 0.962 . S
H1332 C1318 0.960 . S
H1333 C1319 0.961 . S
H1334 C1319 0.961 . S
H1335 C1319 0.961 . S
H1336 C1320 0.931 . S
H1337 C1325 0.930 . S
H1338 C1326 0.956 . S
H1339 C1326 0.961 . S
H1340 C1326 0.961 . S
H1341 C1327 0.958 . S
H1342 C1327 0.961 . S
H1343 C1327 0.960 . S
C1344 C1345 1.391 . S
C1344 C1346 1.394 . S
C1344 H1360 0.931 . S
C1345 C1344 1.391 . S
C1345 C1349 1.376 . S
C1346 C1344 1.394 . S
C1346 C1347 1.369 . S
C1346 C1350 1.531 . S
C1347 C1346 1.369 . S
C1347 C1348 1.410 . S
C1347 C1355 1.503 . S
C1348 C1347 1.410 . S
C1348 C1349 1.392 . S
C1348 C1351 1.511 1_455 S
C1349 C1345 1.376 . S
C1349 C1348 1.392 . S
C1349 H1361 0.929 . S
C1350 C1346 1.531 . S
C1350 H1362 0.960 . S
C1350 H1363 0.962 1_565 S
C1350 H1364 0.960 . S
C1351 C1348 1.511 1_655 S
C1351 H1365 0.961 1_565 S
C1351 H1366 0.961 1_565 S
C1351 H1367 0.961 . S
C1352 C1353 1.370 1_455 S
C1352 C1354 1.363 . S
C1352 H1368 0.931 . S
C1353 C1352 1.370 1_655 S
C1353 C1357 1.408 1_545 S
C1354 C1352 1.363 . S
C1354 C1355 1.370 1_545 S
C1354 C1358 1.524 . S
C1355 C1347 1.503 . S
C1355 C1354 1.370 1_565 S
C1355 C1356 1.403 . S
C1356 C1355 1.403 . S
C1356 C1357 1.404 1_455 S
C1356 C1359 1.540 . S
C1357 C1353 1.408 1_565 S
C1357 C1356 1.404 1_655 S
C1357 H1369 0.930 . S
C1358 C1354 1.524 . S
C1358 H1370 0.956 . S
C1358 H1371 0.961 . S
C1358 H1372 0.961 . S
C1359 C1356 1.540 . S
C1359 H1373 0.966 . S
C1359 H1374 0.954 1_455 S
C1359 H1375 0.957 1_455 S
H1360 C1344 0.931 . S
H1361 C1349 0.929 . S
H1362 C1350 0.960 . S
H1363 C1350 0.962 1_545 S
H1364 C1350 0.960 . S
H1365 C1351 0.961 1_545 S
H1366 C1351 0.961 1_545 S
H1367 C1351 0.961 . S
H1368 C1352 0.931 . S
H1369 C1357 0.930 . S
H1370 C1358 0.956 . S
H1371 C1358 0.961 . S
H1372 C1358 0.961 . S
H1373 C1359 0.966 . S
H1374 C1359 0.954 1_655 S
H1375 C1359 0.957 1_655 S
C1376 C1377 1.391 . S
C1376 C1378 1.394 . S
C1376 H1392 0.931 . S
C1377 C1376 1.391 . S
C1377 C1381 1.376 . S
C1378 C1376 1.394 . S
C1378 C1379 1.369 . S
C1378 C1382 1.531 . S
C1379 C1378 1.369 . S
C1379 C1380 1.410 . S
C1379 C1387 1.503 . S
C1380 C1379 1.410 . S
C1380 C1381 1.392 . S
C1380 C1383 1.511 . S
C1381 C1377 1.376 . S
C1381 C1380 1.392 . S
C1381 H1393 0.929 . S
C1382 C1378 1.531 . S
C1382 H1394 0.960 . S
C1382 H1395 0.962 . S
C1382 H1396 0.960 . S
C1383 C1380 1.511 . S
C1383 H1397 0.961 . S
C1383 H1398 0.961 . S
C1383 H1399 0.961 . S
C1384 C1385 1.370 . S
C1384 C1386 1.363 . S
C1384 H1400 0.931 . S
C1385 C1384 1.370 . S
C1385 C1389 1.408 . S
C1386 C1384 1.363 . S
C1386 C1387 1.370 . S
C1386 C1390 1.524 . S
C1387 C1379 1.503 . S
C1387 C1386 1.370 . S
C1387 C1388 1.403 . S
C1388 C1387 1.403 . S
C1388 C1389 1.404 . S
C1388 C1391 1.539 . S
C1389 C1385 1.408 . S
C1389 C1388 1.404 . S
C1389 H1401 0.930 . S
C1390 C1386 1.524 . S
C1390 H1402 0.956 . S
C1390 H1403 0.961 . S
C1390 H1404 0.961 . S
C1391 C1388 1.539 . S
C1391 H1405 0.958 . S
C1391 H1406 0.961 . S
C1391 H1407 0.960 . S
H1392 C1376 0.931 . S
H1393 C1381 0.929 . S
H1394 C1382 0.960 . S
H1395 C1382 0.962 . S
H1396 C1382 0.960 . S
H1397 C1383 0.961 . S
H1398 C1383 0.961 . S
H1399 C1383 0.961 . S
H1400 C1384 0.931 . S
H1401 C1389 0.930 . S
H1402 C1390 0.956 . S
H1403 C1390 0.961 . S
H1404 C1390 0.961 . S
H1405 C1391 0.958 . S
H1406 C1391 0.961 . S
H1407 C1391 0.960 . S
C1408 C1409 1.391 . S
C1408 C1410 1.394 . S
C1408 H1424 0.931 . S
C1409 C1408 1.391 . S
C1409 C1413 1.376 . S
C1410 C1408 1.394 . S
C1410 C1411 1.369 . S
C1410 C1414 1.531 . S
C1411 C1410 1.369 . S
C1411 C1412 1.410 . S
C1411 C1419 1.503 . S
C1412 C1411 1.410 . S
C1412 C1413 1.392 . S
C1412 C1415 1.511 . S
C1413 C1409 1.376 . S
C1413 C1412 1.392 . S
C1413 H1425 0.929 . S
C1414 C1410 1.531 . S
C1414 H1426 0.960 . S
C1414 H1427 0.962 . S
C1414 H1428 0.960 . S
C1415 C1412 1.511 . S
C1415 H1429 0.961 . S
C1415 H1430 0.961 . S
C1415 H1431 0.961 . S
C1416 C1417 1.370 . S
C1416 C1418 1.363 . S
C1416 H1432 0.931 . S
C1417 C1416 1.370 . S
C1417 C1421 1.408 . S
C1418 C1416 1.363 . S
C1418 C1419 1.370 . S
C1418 C1422 1.524 . S
C1419 C1411 1.503 . S
C1419 C1418 1.370 . S
C1419 C1420 1.403 . S
C1420 C1419 1.403 . S
C1420 C1421 1.404 . S
C1420 C1423 1.539 . S
C1421 C1417 1.408 . S
C1421 C1420 1.404 . S
C1421 H1433 0.930 . S
C1422 C1418 1.524 . S
C1422 H1434 0.956 . S
C1422 H1435 0.961 . S
C1422 H1436 0.961 . S
C1423 C1420 1.539 . S
C1423 H1437 0.958 . S
C1423 H1438 0.961 . S
C1423 H1439 0.960 . S
H1424 C1408 0.931 . S
H1425 C1413 0.929 . S
H1426 C1414 0.960 . S
H1427 C1414 0.962 . S
H1428 C1414 0.960 . S
H1429 C1415 0.961 . S
H1430 C1415 0.961 . S
H1431 C1415 0.961 . S
H1432 C1416 0.931 . S
H1433 C1421 0.930 . S
H1434 C1422 0.956 . S
H1435 C1422 0.961 . S
H1436 C1422 0.961 . S
H1437 C1423 0.958 . S
H1438 C1423 0.961 . S
H1439 C1423 0.960 . S
C1440 C1441 1.391 . S
C1440 C1442 1.394 . S
C1440 H1456 0.931 . S
C1441 C1440 1.391 . S
C1441 C1445 1.376 . S
C1442 C1440 1.394 . S
C1442 C1443 1.369 . S
C1442 C1446 1.531 . S
C1443 C1442 1.369 . S
C1443 C1444 1.410 . S
C1443 C1451 1.503 . S
C1444 C1443 1.410 . S
C1444 C1445 1.392 . S
C1444 C1447 1.511 . S
C1445 C1441 1.376 . S
C1445 C1444 1.392 . S
C1445 H1457 0.929 . S
C1446 C1442 1.531 . S
C1446 H1458 0.960 . S
C1446 H1459 0.962 . S
C1446 H1460 0.960 . S
C1447 C1444 1.511 . S
C1447 H1461 0.961 . S
C1447 H1462 0.961 . S
C1447 H1463 0.961 . S
C1448 C1449 1.370 . S
C1448 C1450 1.363 . S
C1448 H1464 0.931 . S
C1449 C1448 1.370 . S
C1449 C1453 1.408 . S
C1450 C1448 1.363 . S
C1450 C1451 1.370 . S
C1450 C1454 1.524 . S
C1451 C1443 1.503 . S
C1451 C1450 1.370 . S
C1451 C1452 1.403 . S
C1452 C1451 1.403 . S
C1452 C1453 1.404 . S
C1452 C1455 1.539 . S
C1453 C1449 1.408 . S
C1453 C1452 1.404 . S
C1453 H1465 0.930 . S
C1454 C1450 1.524 . S
C1454 H1466 0.956 . S
C1454 H1467 0.961 . S
C1454 H1468 0.961 . S
C1455 C1452 1.539 . S
C1455 H1469 0.958 . S
C1455 H1470 0.961 . S
C1455 H1471 0.960 . S
H1456 C1440 0.931 . S
H1457 C1445 0.929 . S
H1458 C1446 0.960 . S
H1459 C1446 0.962 . S
H1460 C1446 0.960 . S
H1461 C1447 0.961 . S
H1462 C1447 0.961 . S
H1463 C1447 0.961 . S
H1464 C1448 0.931 . S
H1465 C1453 0.930 . S
H1466 C1454 0.956 . S
H1467 C1454 0.961 . S
H1468 C1454 0.961 . S
H1469 C1455 0.958 . S
H1470 C1455 0.961 . S
H1471 C1455 0.960 . S
C1472 C1473 1.391 . S
C1472 C1474 1.394 . S
C1472 H1488 0.931 1_565 S
C1473 C1472 1.391 . S
C1473 C1477 1.376 . S
C1474 C1472 1.394 . S
C1474 C1475 1.369 . S
C1474 C1478 1.531 1_565 S
C1475 C1474 1.369 . S
C1475 C1476 1.410 . S
C1475 C1483 1.503 . S
C1476 C1475 1.410 . S
C1476 C1477 1.392 . S
C1476 C1479 1.511 . S
C1477 C1473 1.376 . S
C1477 C1476 1.392 . S
C1477 H1489 0.929 . S
C1478 C1474 1.531 1_545 S
C1478 H1490 0.960 . S
C1478 H1491 0.962 . S
C1478 H1492 0.960 . S
C1479 C1476 1.511 . S
C1479 H1493 0.961 . S
C1479 H1494 0.961 . S
C1479 H1495 0.961 . S
C1480 C1481 1.370 . S
C1480 C1482 1.363 . S
C1480 H1496 0.931 . S
C1481 C1480 1.370 . S
C1481 C1485 1.418 . S
C1482 C1480 1.363 . S
C1482 C1483 1.370 . S
C1482 C1486 1.524 . S
C1483 C1475 1.503 . S
C1483 C1482 1.370 . S
C1483 C1484 1.369 1_565 S
C1484 C1483 1.369 1_545 S
C1484 C1485 1.396 1_545 S
C1484 C1487 1.580 . S
C1485 C1481 1.418 . S
C1485 C1484 1.396 1_565 S
C1485 H1497 0.923 1_565 S
C1486 C1482 1.524 . S
C1486 H1498 0.956 . S
C1486 H1499 0.961 . S
C1486 H1500 0.961 . S
C1487 C1484 1.580 . S
C1487 H1501 0.958 . S
C1487 H1502 0.961 . S
C1487 H1503 0.960 . S
H1488 C1472 0.931 1_545 S
H1489 C1477 0.929 . S
H1490 C1478 0.960 . S
H1491 C1478 0.962 . S
H1492 C1478 0.960 . S
H1493 C1479 0.961 . S
H1494 C1479 0.961 . S
H1495 C1479 0.961 . S
H1496 C1480 0.931 . S
H1497 C1485 0.923 1_545 S
H1498 C1486 0.956 . S
H1499 C1486 0.961 . S
H1500 C1486 0.961 . S
H1501 C1487 0.958 . S
H1502 C1487 0.961 . S
H1503 C1487 0.960 . S
C1504 C1505 1.391 . S
C1504 C1506 1.394 . S
C1504 H1520 0.931 . S
C1505 C1504 1.391 . S
C1505 C1509 1.376 . S
C1506 C1504 1.394 . S
C1506 C1507 1.369 . S
C1506 C1510 1.531 . S
C1507 C1506 1.369 . S
C1507 C1508 1.410 . S
C1507 C1515 1.503 . S
C1508 C1507 1.410 . S
C1508 C1509 1.392 . S
C1508 C1511 1.511 . S
C1509 C1505 1.376 . S
C1509 C1508 1.392 . S
C1509 H1521 0.929 . S
C1510 C1506 1.531 . S
C1510 H1522 0.960 . S
C1510 H1523 0.962 . S
C1510 H1524 0.960 . S
C1511 C1508 1.511 . S
C1511 H1525 0.961 . S
C1511 H1526 0.961 . S
C1511 H1527 0.961 . S
C1512 C1513 1.370 . S
C1512 C1514 1.363 . S
C1512 H1528 0.931 . S
C1513 C1512 1.370 . S
C1513 C1517 1.408 . S
C1514 C1512 1.363 . S
C1514 C1515 1.370 . S
C1514 C1518 1.524 . S
C1515 C1507 1.503 . S
C1515 C1514 1.370 . S
C1515 C1516 1.403 . S
C1516 C1515 1.403 . S
C1516 C1517 1.404 . S
C1516 C1519 1.539 . S
C1517 C1513 1.408 . S
C1517 C1516 1.404 . S
C1517 H1529 0.930 . S
C1518 C1514 1.524 . S
C1518 H1530 0.956 . S
C1518 H1531 0.961 . S
C1518 H1532 0.961 . S
C1519 C1516 1.539 . S
C1519 H1533 0.958 . S
C1519 H1534 0.961 . S
C1519 H1535 0.960 . S
H1520 C1504 0.931 . S
H1521 C1509 0.929 . S
H1522 C1510 0.960 . S
H1523 C1510 0.962 . S
H1524 C1510 0.960 . S
H1525 C1511 0.961 . S
H1526 C1511 0.961 . S
H1527 C1511 0.961 . S
H1528 C1512 0.931 . S
H1529 C1517 0.930 . S
H1530 C1518 0.956 . S
H1531 C1518 0.961 . S
H1532 C1518 0.961 . S
H1533 C1519 0.958 . S
H1534 C1519 0.961 . S
H1535 C1519 0.960 . S
C1536 C1537 1.391 . S
C1536 C1538 1.394 . S
C1536 H1552 0.931 . S
C1537 C1536 1.391 . S
C1537 C1541 1.376 . S
C1538 C1536 1.394 . S
C1538 C1539 1.369 . S
C1538 C1542 1.531 . S
C1539 C1538 1.369 . S
C1539 C1540 1.410 . S
C1539 C1547 1.503 . S
C1540 C1539 1.410 . S
C1540 C1541 1.392 . S
C1540 C1543 1.511 . S
C1541 C1537 1.376 . S
C1541 C1540 1.392 . S
C1541 H1553 0.929 . S
C1542 C1538 1.531 . S
C1542 H1554 0.960 . S
C1542 H1555 0.962 . S
C1542 H1556 0.960 . S
C1543 C1540 1.511 . S
C1543 H1557 0.961 . S
C1543 H1558 0.961 . S
C1543 H1559 0.961 . S
C1544 C1545 1.370 . S
C1544 C1546 1.363 . S
C1544 H1560 0.931 . S
C1545 C1544 1.370 . S
C1545 C1549 1.408 . S
C1546 C1544 1.363 . S
C1546 C1547 1.370 . S
C1546 C1550 1.524 . S
C1547 C1539 1.503 . S
C1547 C1546 1.370 . S
C1547 C1548 1.403 . S
C1548 C1547 1.403 . S
C1548 C1549 1.404 . S
C1548 C1551 1.539 . S
C1549 C1545 1.408 . S
C1549 C1548 1.404 . S
C1549 H1561 0.930 . S
C1550 C1546 1.524 . S
C1550 H1562 0.956 . S
C1550 H1563 0.961 . S
C1550 H1564 0.961 . S
C1551 C1548 1.539 . S
C1551 H1565 0.958 . S
C1551 H1566 0.961 . S
C1551 H1567 0.960 . S
H1552 C1536 0.931 . S
H1553 C1541 0.929 . S
H1554 C1542 0.960 . S
H1555 C1542 0.962 . S
H1556 C1542 0.960 . S
H1557 C1543 0.961 . S
H1558 C1543 0.961 . S
H1559 C1543 0.961 . S
H1560 C1544 0.931 . S
H1561 C1549 0.930 . S
H1562 C1550 0.956 . S
H1563 C1550 0.961 . S
H1564 C1550 0.961 . S
H1565 C1551 0.958 . S
H1566 C1551 0.961 . S
H1567 C1551 0.960 . S
C1568 C1569 1.391 . S
C1568 C1570 1.394 . S
C1568 H1584 0.931 . S
C1569 C1568 1.391 . S
C1569 C1573 1.376 . S
C1570 C1568 1.394 . S
C1570 C1571 1.369 . S
C1570 C1574 1.531 . S
C1571 C1570 1.369 . S
C1571 C1572 1.410 . S
C1571 C1579 1.503 . S
C1572 C1571 1.410 . S
C1572 C1573 1.392 . S
C1572 C1575 1.511 . S
C1573 C1569 1.376 . S
C1573 C1572 1.392 . S
C1573 H1585 0.929 . S
C1574 C1570 1.531 . S
C1574 H1586 0.960 . S
C1574 H1587 0.962 . S
C1574 H1588 0.960 . S
C1575 C1572 1.511 . S
C1575 H1589 0.961 . S
C1575 H1590 0.961 . S
C1575 H1591 0.961 . S
C1576 C1577 1.370 . S
C1576 C1578 1.363 . S
C1576 H1592 0.931 . S
C1577 C1576 1.370 . S
C1577 C1581 1.408 . S
C1578 C1576 1.363 . S
C1578 C1579 1.370 . S
C1578 C1582 1.524 . S
C1579 C1571 1.503 . S
C1579 C1578 1.370 . S
C1579 C1580 1.403 . S
C1580 C1579 1.403 . S
C1580 C1581 1.404 . S
C1580 C1583 1.539 . S
C1581 C1577 1.408 . S
C1581 C1580 1.404 . S
C1581 H1593 0.930 . S
C1582 C1578 1.524 . S
C1582 H1594 0.956 . S
C1582 H1595 0.961 . S
C1582 H1596 0.961 . S
C1583 C1580 1.539 . S
C1583 H1597 0.958 . S
C1583 H1598 0.961 . S
C1583 H1599 0.960 . S
H1584 C1568 0.931 . S
H1585 C1573 0.929 . S
H1586 C1574 0.960 . S
H1587 C1574 0.962 . S
H1588 C1574 0.960 . S
H1589 C1575 0.961 . S
H1590 C1575 0.961 . S
H1591 C1575 0.961 . S
H1592 C1576 0.931 . S
H1593 C1581 0.930 . S
H1594 C1582 0.956 . S
H1595 C1582 0.961 . S
H1596 C1582 0.961 . S
H1597 C1583 0.958 . S
H1598 C1583 0.961 . S
H1599 C1583 0.960 . S
C1600 C1601 1.391 . S
C1600 C1602 1.394 . S
C1600 H1616 0.931 . S
C1601 C1600 1.391 . S
C1601 C1605 1.376 . S
C1602 C1600 1.394 . S
C1602 C1603 1.369 . S
C1602 C1606 1.531 . S
C1603 C1602 1.369 . S
C1603 C1604 1.410 . S
C1603 C1611 1.503 . S
C1604 C1603 1.410 . S
C1604 C1605 1.392 . S
C1604 C1607 1.511 . S
C1605 C1601 1.376 . S
C1605 C1604 1.392 . S
C1605 H1617 0.929 . S
C1606 C1602 1.531 . S
C1606 H1618 0.960 . S
C1606 H1619 0.962 . S
C1606 H1620 0.960 . S
C1607 C1604 1.511 . S
C1607 H1621 0.961 . S
C1607 H1622 0.961 . S
C1607 H1623 0.961 . S
C1608 C1609 1.370 . S
C1608 C1610 1.363 . S
C1608 H1624 0.931 . S
C1609 C1608 1.370 . S
C1609 C1613 1.408 . S
C1610 C1608 1.363 . S
C1610 C1611 1.370 . S
C1610 C1614 1.524 . S
C1611 C1603 1.503 . S
C1611 C1610 1.370 . S
C1611 C1612 1.403 . S
C1612 C1611 1.403 . S
C1612 C1613 1.404 . S
C1612 C1615 1.539 . S
C1613 C1609 1.408 . S
C1613 C1612 1.404 . S
C1613 H1625 0.930 . S
C1614 C1610 1.524 . S
C1614 H1626 0.956 . S
C1614 H1627 0.961 . S
C1614 H1628 0.961 . S
C1615 C1612 1.539 . S
C1615 H1629 0.958 . S
C1615 H1630 0.961 . S
C1615 H1631 0.960 . S
H1616 C1600 0.931 . S
H1617 C1605 0.929 . S
H1618 C1606 0.960 . S
H1619 C1606 0.962 . S
H1620 C1606 0.960 . S
H1621 C1607 0.961 . S
H1622 C1607 0.961 . S
H1623 C1607 0.961 . S
H1624 C1608 0.931 . S
H1625 C1613 0.930 . S
H1626 C1614 0.956 . S
H1627 C1614 0.961 . S
H1628 C1614 0.961 . S
H1629 C1615 0.958 . S
H1630 C1615 0.961 . S
H1631 C1615 0.960 . S
C1632 C1633 1.391 . S
C1632 C1634 1.394 . S
C1632 H1648 0.931 . S
C1633 C1632 1.391 . S
C1633 C1637 1.376 . S
C1634 C1632 1.394 . S
C1634 C1635 1.369 . S
C1634 C1638 1.531 . S
C1635 C1634 1.369 . S
C1635 C1636 1.410 . S
C1635 C1643 1.503 . S
C1636 C1635 1.410 . S
C1636 C1637 1.392 . S
C1636 C1639 1.511 . S
C1637 C1633 1.376 . S
C1637 C1636 1.392 . S
C1637 H1649 0.929 . S
C1638 C1634 1.531 . S
C1638 H1650 0.960 . S
C1638 H1651 0.962 . S
C1638 H1652 0.960 . S
C1639 C1636 1.511 . S
C1639 H1653 0.961 . S
C1639 H1654 0.961 . S
C1639 H1655 0.961 . S
C1640 C1641 1.370 . S
C1640 C1642 1.363 . S
C1640 H1656 0.931 . S
C1641 C1640 1.370 . S
C1641 C1645 1.408 . S
C1642 C1640 1.363 . S
C1642 C1643 1.370 . S
C1642 C1646 1.524 . S
C1643 C1635 1.503 . S
C1643 C1642 1.370 . S
C1643 C1644 1.403 . S
C1644 C1643 1.403 . S
C1644 C1645 1.404 . S
C1644 C1647 1.539 . S
C1645 C1641 1.408 . S
C1645 C1644 1.404 . S
C1645 H1657 0.930 . S
C1646 C1642 1.524 . S
C1646 H1658 0.956 . S
C1646 H1659 0.961 . S
C1646 H1660 0.961 . S
C1647 C1644 1.539 . S
C1647 H1661 0.958 . S
C1647 H1662 0.961 . S
C1647 H1663 0.960 . S
H1648 C1632 0.931 . S
H1649 C1637 0.929 . S
H1650 C1638 0.960 . S
H1651 C1638 0.962 . S
H1652 C1638 0.960 . S
H1653 C1639 0.961 . S
H1654 C1639 0.961 . S
H1655 C1639 0.961 . S
H1656 C1640 0.931 . S
H1657 C1645 0.930 . S
H1658 C1646 0.956 . S
H1659 C1646 0.961 . S
H1660 C1646 0.961 . S
H1661 C1647 0.958 . S
H1662 C1647 0.961 . S
H1663 C1647 0.960 . S
C1664 C1665 1.391 . S
C1664 C1666 1.394 . S
C1664 H1680 0.931 . S
C1665 C1664 1.391 . S
C1665 C1669 1.376 . S
C1666 C1664 1.394 . S
C1666 C1667 1.369 . S
C1666 C1670 1.531 . S
C1667 C1666 1.369 . S
C1667 C1668 1.410 . S
C1667 C1675 1.503 . S
C1668 C1667 1.410 . S
C1668 C1669 1.392 . S
C1668 C1671 1.511 . S
C1669 C1665 1.376 . S
C1669 C1668 1.392 . S
C1669 H1681 0.929 . S
C1670 C1666 1.531 . S
C1670 H1682 0.960 . S
C1670 H1683 0.962 . S
C1670 H1684 0.960 . S
C1671 C1668 1.511 . S
C1671 H1685 0.961 . S
C1671 H1686 0.961 . S
C1671 H1687 0.961 . S
C1672 C1673 1.370 . S
C1672 C1674 1.363 . S
C1672 H1688 0.931 . S
C1673 C1672 1.370 . S
C1673 C1677 1.408 . S
C1674 C1672 1.363 . S
C1674 C1675 1.370 . S
C1674 C1678 1.524 . S
C1675 C1667 1.503 . S
C1675 C1674 1.370 . S
C1675 C1676 1.403 . S
C1676 C1675 1.403 . S
C1676 C1677 1.404 . S
C1676 C1679 1.539 . S
C1677 C1673 1.408 . S
C1677 C1676 1.404 . S
C1677 H1689 0.930 . S
C1678 C1674 1.524 . S
C1678 H1690 0.956 . S
C1678 H1691 0.961 . S
C1678 H1692 0.961 . S
C1679 C1676 1.539 . S
C1679 H1693 0.958 1_455 S
C1679 H1694 0.961 1_455 S
C1679 H1695 0.960 . S
H1680 C1664 0.931 . S
H1681 C1669 0.929 . S
H1682 C1670 0.960 . S
H1683 C1670 0.962 . S
H1684 C1670 0.960 . S
H1685 C1671 0.961 . S
H1686 C1671 0.961 . S
H1687 C1671 0.961 . S
H1688 C1672 0.931 . S
H1689 C1677 0.930 . S
H1690 C1678 0.956 . S
H1691 C1678 0.961 . S
H1692 C1678 0.961 . S
H1693 C1679 0.958 1_655 S
H1694 C1679 0.961 1_655 S
H1695 C1679 0.960 . S
C1696 C1697 1.391 . S
C1696 C1698 1.394 . S
C1696 H1712 0.931 . S
C1697 C1696 1.391 . S
C1697 C1701 1.376 . S
C1698 C1696 1.394 . S
C1698 C1699 1.369 . S
C1698 C1702 1.531 . S
C1699 C1698 1.369 . S
C1699 C1700 1.410 . S
C1699 C1707 1.503 . S
C1700 C1699 1.410 . S
C1700 C1701 1.392 . S
C1700 C1703 1.511 . S
C1701 C1697 1.376 . S
C1701 C1700 1.392 . S
C1701 H1713 0.929 . S
C1702 C1698 1.531 . S
C1702 H1714 0.960 . S
C1702 H1715 0.962 . S
C1702 H1716 0.960 . S
C1703 C1700 1.511 . S
C1703 H1717 0.961 . S
C1703 H1718 0.961 . S
C1703 H1719 0.961 . S
C1704 C1705 1.370 . S
C1704 C1706 1.363 . S
C1704 H1720 0.931 . S
C1705 C1704 1.370 . S
C1705 C1709 1.408 . S
C1706 C1704 1.363 . S
C1706 C1707 1.370 . S
C1706 C1710 1.524 . S
C1707 C1699 1.503 . S
C1707 C1706 1.370 . S
C1707 C1708 1.403 . S
C1708 C1707 1.403 . S
C1708 C1709 1.404 . S
C1708 C1711 1.539 . S
C1709 C1705 1.408 . S
C1709 C1708 1.404 . S
C1709 H1721 0.930 . S
C1710 C1706 1.524 . S
C1710 H1722 0.956 . S
C1710 H1723 0.961 . S
C1710 H1724 0.961 . S
C1711 C1708 1.539 . S
C1711 H1725 0.958 . S
C1711 H1726 0.961 . S
C1711 H1727 0.960 . S
H1712 C1696 0.931 . S
H1713 C1701 0.929 . S
H1714 C1702 0.960 . S
H1715 C1702 0.962 . S
H1716 C1702 0.960 . S
H1717 C1703 0.961 . S
H1718 C1703 0.961 . S
H1719 C1703 0.961 . S
H1720 C1704 0.931 . S
H1721 C1709 0.930 . S
H1722 C1710 0.956 . S
H1723 C1710 0.961 . S
H1724 C1710 0.961 . S
H1725 C1711 0.958 . S
H1726 C1711 0.961 . S
H1727 C1711 0.960 . S
C1728 C1729 1.391 . S
C1728 C1730 1.394 . S
C1728 H1744 0.931 . S
C1729 C1728 1.391 . S
C1729 C1733 1.376 1_655 S
C1730 C1728 1.394 . S
C1730 C1731 1.369 . S
C1730 C1734 1.531 . S
C1731 C1730 1.369 . S
C1731 C1732 1.410 1_655 S
C1731 C1739 1.503 . S
C1732 C1731 1.410 1_455 S
C1732 C1733 1.392 . S
C1732 C1735 1.511 . S
C1733 C1729 1.376 1_455 S
C1733 C1732 1.392 . S
C1733 H1745 0.929 . S
C1734 C1730 1.531 . S
C1734 H1746 0.960 . S
C1734 H1747 0.962 . S
C1734 H1748 0.960 . S
C1735 C1732 1.511 . S
C1735 H1749 0.961 . S
C1735 H1750 0.961 . S
C1735 H1751 0.961 . S
C1736 C1737 1.370 . S
C1736 C1738 1.363 . S
C1736 H1752 0.931 . S
C1737 C1736 1.370 . S
C1737 C1741 1.408 1_655 S
C1738 C1736 1.363 . S
C1738 C1739 1.370 . S
C1738 C1742 1.524 . S
C1739 C1731 1.503 . S
C1739 C1738 1.370 . S
C1739 C1740 1.403 1_655 S
C1740 C1739 1.403 1_455 S
C1740 C1741 1.404 . S
C1740 C1743 1.539 . S
C1741 C1737 1.408 1_455 S
C1741 C1740 1.404 . S
C1741 H1753 0.930 . S
C1742 C1738 1.524 . S
C1742 H1754 0.956 . S
C1742 H1755 0.961 . S
C1742 H1756 0.961 . S
C1743 C1740 1.539 . S
C1743 H1757 0.958 . S
C1743 H1758 0.961 . S
C1743 H1759 0.960 . S
H1744 C1728 0.931 . S
H1745 C1733 0.929 . S
H1746 C1734 0.960 . S
H1747 C1734 0.962 . S
H1748 C1734 0.960 . S
H1749 C1735 0.961 . S
H1750 C1735 0.961 . S
H1751 C1735 0.961 . S
H1752 C1736 0.931 . S
H1753 C1741 0.930 . S
H1754 C1742 0.956 . S
H1755 C1742 0.961 . S
H1756 C1742 0.961 . S
H1757 C1743 0.958 . S
H1758 C1743 0.961 . S
H1759 C1743 0.960 . S
C1760 C1761 1.391 . S
C1760 C1762 1.394 . S
C1760 H1776 0.931 . S
C1761 C1760 1.391 . S
C1761 C1765 1.376 . S
C1762 C1760 1.394 . S
C1762 C1763 1.369 . S
C1762 C1766 1.531 . S
C1763 C1762 1.369 . S
C1763 C1764 1.410 . S
C1763 C1771 1.503 . S
C1764 C1763 1.410 . S
C1764 C1765 1.392 . S
C1764 C1767 1.511 . S
C1765 C1761 1.376 . S
C1765 C1764 1.392 . S
C1765 H1777 0.929 . S
C1766 C1762 1.531 . S
C1766 H1778 0.960 . S
C1766 H1779 0.962 . S
C1766 H1780 0.960 . S
C1767 C1764 1.511 . S
C1767 H1781 0.961 . S
C1767 H1782 0.961 . S
C1767 H1783 0.961 . S
C1768 C1769 1.370 . S
C1768 C1770 1.363 . S
C1768 H1784 0.931 . S
C1769 C1768 1.370 . S
C1769 C1773 1.408 . S
C1770 C1768 1.363 . S
C1770 C1771 1.370 . S
C1770 C1774 1.524 . S
C1771 C1763 1.503 . S
C1771 C1770 1.370 . S
C1771 C1772 1.403 . S
C1772 C1771 1.403 . S
C1772 C1773 1.404 . S
C1772 C1775 1.539 . S
C1773 C1769 1.408 . S
C1773 C1772 1.404 . S
C1773 H1785 0.930 . S
C1774 C1770 1.524 . S
C1774 H1786 0.956 . S
C1774 H1787 0.961 . S
C1774 H1788 0.961 . S
C1775 C1772 1.539 . S
C1775 H1789 0.958 . S
C1775 H1790 0.961 . S
C1775 H1791 0.960 . S
H1776 C1760 0.931 . S
H1777 C1765 0.929 . S
H1778 C1766 0.960 . S
H1779 C1766 0.962 . S
H1780 C1766 0.960 . S
H1781 C1767 0.961 . S
H1782 C1767 0.961 . S
H1783 C1767 0.961 . S
H1784 C1768 0.931 . S
H1785 C1773 0.930 . S
H1786 C1774 0.956 . S
H1787 C1774 0.961 . S
H1788 C1774 0.961 . S
H1789 C1775 0.958 . S
H1790 C1775 0.961 . S
H1791 C1775 0.960 . S
C1792 C1793 1.391 . S
C1792 C1794 1.394 . S
C1792 H1808 0.931 . S
C1793 C1792 1.391 . S
C1793 C1797 1.376 . S
C1794 C1792 1.394 . S
C1794 C1795 1.369 . S
C1794 C1798 1.531 . S
C1795 C1794 1.369 . S
C1795 C1796 1.410 . S
C1795 C1803 1.503 . S
C1796 C1795 1.410 . S
C1796 C1797 1.392 . S
C1796 C1799 1.511 . S
C1797 C1793 1.376 . S
C1797 C1796 1.392 . S
C1797 H1809 0.929 . S
C1798 C1794 1.531 . S
C1798 H1810 0.960 . S
C1798 H1811 0.962 . S
C1798 H1812 0.960 . S
C1799 C1796 1.511 . S
C1799 H1813 0.961 . S
C1799 H1814 0.961 . S
C1799 H1815 0.961 . S
C1800 C1801 1.370 . S
C1800 C1802 1.363 . S
C1800 H1816 0.931 . S
C1801 C1800 1.370 . S
C1801 C1805 1.408 . S
C1802 C1800 1.363 . S
C1802 C1803 1.370 . S
C1802 C1806 1.524 . S
C1803 C1795 1.503 . S
C1803 C1802 1.370 . S
C1803 C1804 1.403 . S
C1804 C1803 1.403 . S
C1804 C1805 1.404 . S
C1804 C1807 1.539 . S
C1805 C1801 1.408 . S
C1805 C1804 1.404 . S
C1805 H1817 0.930 . S
C1806 C1802 1.524 . S
C1806 H1818 0.956 . S
C1806 H1819 0.961 . S
C1806 H1820 0.961 . S
C1807 C1804 1.539 . S
C1807 H1821 0.958 . S
C1807 H1822 0.961 . S
C1807 H1823 0.960 . S
H1808 C1792 0.931 . S
H1809 C1797 0.929 . S
H1810 C1798 0.960 . S
H1811 C1798 0.962 . S
H1812 C1798 0.960 . S
H1813 C1799 0.961 . S
H1814 C1799 0.961 . S
H1815 C1799 0.961 . S
H1816 C1800 0.931 . S
H1817 C1805 0.930 . S
H1818 C1806 0.956 . S
H1819 C1806 0.961 . S
H1820 C1806 0.961 . S
H1821 C1807 0.958 . S
H1822 C1807 0.961 . S
H1823 C1807 0.960 . S
C1824 C1825 1.391 1_565 S
C1824 C1826 1.391 . S
C1824 H1840 0.933 1_565 S
C1825 C1824 1.391 1_545 S
C1825 C1829 1.376 1_545 S
C1826 C1824 1.391 . S
C1826 C1827 1.369 . S
C1826 C1830 1.531 . S
C1827 C1826 1.369 . S
C1827 C1828 1.410 . S
C1827 C1835 1.503 . S
C1828 C1827 1.410 . S
C1828 C1829 1.392 . S
C1828 C1831 1.511 1_556 S
C1829 C1825 1.376 1_565 S
C1829 C1828 1.392 . S
C1829 H1841 0.943 . S
C1830 C1826 1.531 . S
C1830 H1842 0.960 . S
C1830 H1843 0.962 . S
C1830 H1844 0.960 . S
C1831 C1828 1.511 1_554 S
C1831 H1845 0.961 . S
C1831 H1846 0.961 . S
C1831 H1847 0.961 . S
C1832 C1833 1.370 . S
C1832 C1834 1.361 . S
C1832 H1848 0.931 . S
C1833 C1832 1.370 . S
C1833 C1837 1.408 1_554 S
C1834 C1832 1.361 . S
C1834 C1835 1.374 1_554 S
C1834 C1838 1.498 1_565 S
C1835 C1827 1.503 . S
C1835 C1834 1.374 1_556 S
C1835 C1836 1.403 . S
C1836 C1835 1.403 . S
C1836 C1837 1.404 . S
C1836 C1839 1.539 . S
C1837 C1833 1.408 1_556 S
C1837 C1836 1.404 . S
C1837 H1849 0.930 . S
C1838 C1834 1.498 1_545 S
C1838 H1850 0.971 1_554 S
C1838 H1851 0.963 . S
C1838 H1852 0.969 . S
C1839 C1836 1.539 . S
C1839 H1853 0.958 . S
C1839 H1854 0.961 . S
C1839 H1855 0.960 . S
H1840 C1824 0.933 1_545 S
H1841 C1829 0.943 . S
H1842 C1830 0.960 . S
H1843 C1830 0.962 . S
H1844 C1830 0.960 . S
H1845 C1831 0.961 . S
H1846 C1831 0.961 . S
H1847 C1831 0.961 . S
H1848 C1832 0.931 . S
H1849 C1837 0.930 . S
H1850 C1838 0.971 1_556 S
H1851 C1838 0.963 . S
H1852 C1838 0.969 . S
H1853 C1839 0.958 . S
H1854 C1839 0.961 . S
H1855 C1839 0.960 . S
C1856 C1857 1.391 . S
C1856 C1858 1.394 . S
C1856 H1872 0.931 . S
C1857 C1856 1.391 . S
C1857 C1861 1.376 . S
C1858 C1856 1.394 . S
C1858 C1859 1.369 . S
C1858 C1862 1.531 . S
C1859 C1858 1.369 . S
C1859 C1860 1.410 . S
C1859 C1867 1.503 . S
C1860 C1859 1.410 . S
C1860 C1861 1.392 . S
C1860 C1863 1.511 . S
C1861 C1857 1.376 . S
C1861 C1860 1.392 . S
C1861 H1873 0.929 . S
C1862 C1858 1.531 . S
C1862 H1874 0.960 . S
C1862 H1875 0.962 . S
C1862 H1876 0.960 . S
C1863 C1860 1.511 . S
C1863 H1877 0.961 . S
C1863 H1878 0.961 . S
C1863 H1879 0.961 . S
C1864 C1865 1.370 . S
C1864 C1866 1.363 . S
C1864 H1880 0.931 . S
C1865 C1864 1.370 . S
C1865 C1869 1.408 . S
C1866 C1864 1.363 . S
C1866 C1867 1.370 . S
C1866 C1870 1.524 . S
C1867 C1859 1.503 . S
C1867 C1866 1.370 . S
C1867 C1868 1.403 . S
C1868 C1867 1.403 . S
C1868 C1869 1.404 . S
C1868 C1871 1.539 . S
C1869 C1865 1.408 . S
C1869 C1868 1.404 . S
C1869 H1881 0.930 . S
C1870 C1866 1.524 . S
C1870 H1882 0.956 . S
C1870 H1883 0.961 . S
C1870 H1884 0.961 . S
C1871 C1868 1.539 . S
C1871 H1885 0.958 . S
C1871 H1886 0.961 . S
C1871 H1887 0.960 . S
H1872 C1856 0.931 . S
H1873 C1861 0.929 . S
H1874 C1862 0.960 . S
H1875 C1862 0.962 . S
H1876 C1862 0.960 . S
H1877 C1863 0.961 . S
H1878 C1863 0.961 . S
H1879 C1863 0.961 . S
H1880 C1864 0.931 . S
H1881 C1869 0.930 . S
H1882 C1870 0.956 . S
H1883 C1870 0.961 . S
H1884 C1870 0.961 . S
H1885 C1871 0.958 . S
H1886 C1871 0.961 . S
H1887 C1871 0.960 . S
C1888 C1889 1.391 . S
C1888 C1890 1.394 . S
C1888 H1904 0.931 . S
C1889 C1888 1.391 . S
C1889 C1893 1.376 . S
C1890 C1888 1.394 . S
C1890 C1891 1.369 . S
C1890 C1894 1.531 . S
C1891 C1890 1.369 . S
C1891 C1892 1.410 . S
C1891 C1899 1.503 . S
C1892 C1891 1.410 . S
C1892 C1893 1.392 . S
C1892 C1895 1.511 . S
C1893 C1889 1.376 . S
C1893 C1892 1.392 . S
C1893 H1905 0.929 1_545 S
C1894 C1890 1.531 . S
C1894 H1906 0.960 . S
C1894 H1907 0.962 . S
C1894 H1908 0.960 . S
C1895 C1892 1.511 . S
C1895 H1909 0.961 . S
C1895 H1910 0.961 . S
C1895 H1911 0.961 . S
C1896 C1897 1.370 . S
C1896 C1898 1.363 . S
C1896 H1912 0.931 . S
C1897 C1896 1.370 . S
C1897 C1901 1.408 . S
C1898 C1896 1.363 . S
C1898 C1899 1.370 . S
C1898 C1902 1.524 . S
C1899 C1891 1.503 . S
C1899 C1898 1.370 . S
C1899 C1900 1.403 . S
C1900 C1899 1.403 . S
C1900 C1901 1.404 . S
C1900 C1903 1.539 . S
C1901 C1897 1.408 . S
C1901 C1900 1.404 . S
C1901 H1913 0.930 . S
C1902 C1898 1.524 . S
C1902 H1914 0.956 . S
C1902 H1915 0.961 . S
C1902 H1916 0.961 . S
C1903 C1900 1.539 . S
C1903 H1917 0.958 . S
C1903 H1918 0.961 . S
C1903 H1919 0.960 . S
H1904 C1888 0.931 . S
H1905 C1893 0.929 1_565 S
H1906 C1894 0.960 . S
H1907 C1894 0.962 . S
H1908 C1894 0.960 . S
H1909 C1895 0.961 . S
H1910 C1895 0.961 . S
H1911 C1895 0.961 . S
H1912 C1896 0.931 . S
H1913 C1901 0.930 . S
H1914 C1902 0.956 . S
H1915 C1902 0.961 . S
H1916 C1902 0.961 . S
H1917 C1903 0.958 . S
H1918 C1903 0.961 . S
H1919 C1903 0.960 . S
C1920 C1921 1.391 . S
C1920 C1922 1.394 . S
C1920 H1936 0.931 . S
C1921 C1920 1.391 . S
C1921 C1925 1.376 . S
C1922 C1920 1.394 . S
C1922 C1923 1.369 . S
C1922 C1926 1.531 . S
C1923 C1922 1.369 . S
C1923 C1924 1.410 . S
C1923 C1931 1.503 . S
C1924 C1923 1.410 . S
C1924 C1925 1.392 . S
C1924 C1927 1.511 . S
C1925 C1921 1.376 . S
C1925 C1924 1.392 . S
C1925 H1937 0.929 . S
C1926 C1922 1.531 . S
C1926 H1938 0.960 . S
C1926 H1939 0.962 . S
C1926 H1940 0.960 . S
C1927 C1924 1.511 . S
C1927 H1941 0.961 . S
C1927 H1942 0.961 . S
C1927 H1943 0.961 . S
C1928 C1929 1.370 . S
C1928 C1930 1.363 . S
C1928 H1944 0.931 . S
C1929 C1928 1.370 . S
C1929 C1933 1.408 . S
C1930 C1928 1.363 . S
C1930 C1931 1.370 . S
C1930 C1934 1.524 . S
C1931 C1923 1.503 . S
C1931 C1930 1.370 . S
C1931 C1932 1.403 . S
C1932 C1931 1.403 . S
C1932 C1933 1.404 . S
C1932 C1935 1.539 . S
C1933 C1929 1.408 . S
C1933 C1932 1.404 . S
C1933 H1945 0.930 . S
C1934 C1930 1.524 . S
C1934 H1946 0.956 . S
C1934 H1947 0.961 . S
C1934 H1948 0.961 . S
C1935 C1932 1.539 . S
C1935 H1949 0.958 . S
C1935 H1950 0.961 . S
C1935 H1951 0.960 . S
H1936 C1920 0.931 . S
H1937 C1925 0.929 . S
H1938 C1926 0.960 . S
H1939 C1926 0.962 . S
H1940 C1926 0.960 . S
H1941 C1927 0.961 . S
H1942 C1927 0.961 . S
H1943 C1927 0.961 . S
H1944 C1928 0.931 . S
H1945 C1933 0.930 . S
H1946 C1934 0.956 . S
H1947 C1934 0.961 . S
H1948 C1934 0.961 . S
H1949 C1935 0.958 . S
H1950 C1935 0.961 . S
H1951 C1935 0.960 . S
C1952 C1953 1.391 . S
C1952 C1954 1.394 . S
C1952 H1968 0.931 . S
C1953 C1952 1.391 . S
C1953 C1957 1.376 . S
C1954 C1952 1.394 . S
C1954 C1955 1.369 . S
C1954 C1958 1.531 . S
C1955 C1954 1.369 . S
C1955 C1956 1.410 . S
C1955 C1963 1.503 . S
C1956 C1955 1.410 . S
C1956 C1957 1.392 . S
C1956 C1959 1.511 . S
C1957 C1953 1.376 . S
C1957 C1956 1.392 . S
C1957 H1969 0.929 . S
C1958 C1954 1.531 . S
C1958 H1970 0.960 . S
C1958 H1971 0.962 . S
C1958 H1972 0.960 . S
C1959 C1956 1.511 . S
C1959 H1973 0.961 . S
C1959 H1974 0.961 . S
C1959 H1975 0.961 . S
C1960 C1961 1.370 . S
C1960 C1962 1.363 . S
C1960 H1976 0.931 . S
C1961 C1960 1.370 . S
C1961 C1965 1.408 . S
C1962 C1960 1.363 . S
C1962 C1963 1.370 . S
C1962 C1966 1.524 . S
C1963 C1955 1.503 . S
C1963 C1962 1.370 . S
C1963 C1964 1.403 . S
C1964 C1963 1.403 . S
C1964 C1965 1.404 . S
C1964 C1967 1.539 . S
C1965 C1961 1.408 . S
C1965 C1964 1.404 . S
C1965 H1977 0.930 . S
C1966 C1962 1.524 . S
C1966 H1978 0.956 . S
C1966 H1979 0.961 . S
C1966 H1980 0.961 . S
C1967 C1964 1.539 . S
C1967 H1981 0.958 . S
C1967 H1982 0.961 . S
C1967 H1983 0.960 . S
H1968 C1952 0.931 . S
H1969 C1957 0.929 . S
H1970 C1958 0.960 . S
H1971 C1958 0.962 . S
H1972 C1958 0.960 . S
H1973 C1959 0.961 . S
H1974 C1959 0.961 . S
H1975 C1959 0.961 . S
H1976 C1960 0.931 . S
H1977 C1965 0.930 . S
H1978 C1966 0.956 . S
H1979 C1966 0.961 . S
H1980 C1966 0.961 . S
H1981 C1967 0.958 . S
H1982 C1967 0.961 . S
H1983 C1967 0.960 . S
C1984 C1985 1.391 . S
C1984 C1986 1.394 . S
C1984 H2000 0.931 . S
C1985 C1984 1.391 . S
C1985 C1989 1.376 . S
C1986 C1984 1.394 . S
C1986 C1987 1.369 . S
C1986 C1990 1.531 . S
C1987 C1986 1.369 . S
C1987 C1988 1.410 . S
C1987 C1995 1.503 . S
C1988 C1987 1.410 . S
C1988 C1989 1.392 . S
C1988 C1991 1.511 . S
C1989 C1985 1.376 . S
C1989 C1988 1.392 . S
C1989 H2001 0.929 . S
C1990 C1986 1.531 . S
C1990 H2002 0.960 . S
C1990 H2003 0.962 . S
C1990 H2004 0.960 . S
C1991 C1988 1.511 . S
C1991 H2005 0.961 . S
C1991 H2006 0.961 . S
C1991 H2007 0.961 . S
C1992 C1993 1.370 . S
C1992 C1994 1.363 . S
C1992 H2008 0.931 . S
C1993 C1992 1.370 . S
C1993 C1997 1.408 . S
C1994 C1992 1.363 . S
C1994 C1995 1.370 . S
C1994 C1998 1.524 . S
C1995 C1987 1.503 . S
C1995 C1994 1.370 . S
C1995 C1996 1.403 . S
C1996 C1995 1.403 . S
C1996 C1997 1.404 . S
C1996 C1999 1.539 . S
C1997 C1993 1.408 . S
C1997 C1996 1.404 . S
C1997 H2009 0.930 . S
C1998 C1994 1.524 . S
C1998 H2010 0.956 . S
C1998 H2011 0.961 . S
C1998 H2012 0.961 . S
C1999 C1996 1.539 . S
C1999 H2013 0.958 . S
C1999 H2014 0.961 . S
C1999 H2015 0.960 . S
H2000 C1984 0.931 . S
H2001 C1989 0.929 . S
H2002 C1990 0.960 . S
H2003 C1990 0.962 . S
H2004 C1990 0.960 . S
H2005 C1991 0.961 . S
H2006 C1991 0.961 . S
H2007 C1991 0.961 . S
H2008 C1992 0.931 . S
H2009 C1997 0.930 . S
H2010 C1998 0.956 . S
H2011 C1998 0.961 . S
H2012 C1998 0.961 . S
H2013 C1999 0.958 . S
H2014 C1999 0.961 . S
H2015 C1999 0.960 . S
C2016 C2017 1.391 . S
C2016 C2018 1.394 . S
C2016 H2032 0.931 . S
C2017 C2016 1.391 . S
C2017 C2021 1.376 . S
C2018 C2016 1.394 . S
C2018 C2019 1.369 . S
C2018 C2022 1.531 . S
C2019 C2018 1.369 . S
C2019 C2020 1.410 . S
C2019 C2027 1.503 . S
C2020 C2019 1.410 . S
C2020 C2021 1.392 . S
C2020 C2023 1.511 . S
C2021 C2017 1.376 . S
C2021 C2020 1.392 . S
C2021 H2033 0.929 . S
C2022 C2018 1.531 . S
C2022 H2034 0.960 . S
C2022 H2035 0.962 . S
C2022 H2036 0.960 . S
C2023 C2020 1.511 . S
C2023 H2037 0.961 . S
C2023 H2038 0.961 . S
C2023 H2039 0.961 . S
C2024 C2025 1.370 . S
C2024 C2026 1.363 . S
C2024 H2040 0.931 . S
C2025 C2024 1.370 . S
C2025 C2029 1.408 . S
C2026 C2024 1.363 . S
C2026 C2027 1.370 . S
C2026 C2030 1.524 . S
C2027 C2019 1.503 . S
C2027 C2026 1.370 . S
C2027 C2028 1.403 . S
C2028 C2027 1.403 . S
C2028 C2029 1.404 . S
C2028 C2031 1.539 . S
C2029 C2025 1.408 . S
C2029 C2028 1.404 . S
C2029 H2041 0.930 . S
C2030 C2026 1.524 . S
C2030 H2042 0.956 . S
C2030 H2043 0.961 . S
C2030 H2044 0.961 . S
C2031 C2028 1.539 . S
C2031 H2045 0.958 . S
C2031 H2046 0.961 . S
C2031 H2047 0.960 . S
H2032 C2016 0.931 . S
H2033 C2021 0.929 . S
H2034 C2022 0.960 . S
H2035 C2022 0.962 . S
H2036 C2022 0.960 . S
H2037 C2023 0.961 . S
H2038 C2023 0.961 . S
H2039 C2023 0.961 . S
H2040 C2024 0.931 . S
H2041 C2029 0.930 . S
H2042 C2030 0.956 . S
H2043 C2030 0.961 . S
H2044 C2030 0.961 . S
H2045 C2031 0.958 . S
H2046 C2031 0.961 . S
H2047 C2031 0.960 . S
C2048 C2049 1.391 . S
C2048 C2050 1.394 . S
C2048 H2064 0.931 . S
C2049 C2048 1.391 . S
C2049 C2053 1.376 . S
C2050 C2048 1.394 . S
C2050 C2051 1.369 . S
C2050 C2054 1.531 . S
C2051 C2050 1.369 . S
C2051 C2052 1.410 . S
C2051 C2059 1.503 . S
C2052 C2051 1.410 . S
C2052 C2053 1.392 . S
C2052 C2055 1.511 . S
C2053 C2049 1.376 . S
C2053 C2052 1.392 . S
C2053 H2065 0.929 . S
C2054 C2050 1.531 . S
C2054 H2066 0.960 1_545 S
C2054 H2067 0.962 . S
C2054 H2068 0.960 1_545 S
C2055 C2052 1.511 . S
C2055 H2069 0.961 . S
C2055 H2070 0.961 . S
C2055 H2071 0.961 . S
C2056 C2057 1.370 . S
C2056 C2058 1.363 . S
C2056 H2072 0.931 . S
C2057 C2056 1.370 . S
C2057 C2061 1.408 1_545 S
C2058 C2056 1.363 . S
C2058 C2059 1.370 . S
C2058 C2062 1.524 . S
C2059 C2051 1.503 . S
C2059 C2058 1.370 . S
C2059 C2060 1.403 1_545 S
C2060 C2059 1.403 1_565 S
C2060 C2061 1.404 . S
C2060 C2063 1.539 . S
C2061 C2057 1.408 1_565 S
C2061 C2060 1.404 . S
C2061 H2073 0.930 . S
C2062 C2058 1.524 . S
C2062 H2074 0.956 . S
C2062 H2075 0.961 . S
C2062 H2076 0.961 . S
C2063 C2060 1.539 . S
C2063 H2077 0.958 . S
C2063 H2078 0.961 . S
C2063 H2079 0.960 . S
H2064 C2048 0.931 . S
H2065 C2053 0.929 . S
H2066 C2054 0.960 1_565 S
H2067 C2054 0.962 . S
H2068 C2054 0.960 1_565 S
H2069 C2055 0.961 . S
H2070 C2055 0.961 . S
H2071 C2055 0.961 . S
H2072 C2056 0.931 . S
H2073 C2061 0.930 . S
H2074 C2062 0.956 . S
H2075 C2062 0.961 . S
H2076 C2062 0.961 . S
H2077 C2063 0.958 . S
H2078 C2063 0.961 . S
H2079 C2063 0.960 . S
C2080 C2081 1.391 . S
C2080 C2082 1.394 . S
C2080 H2096 0.931 . S
C2081 C2080 1.391 . S
C2081 C2085 1.376 . S
C2082 C2080 1.394 . S
C2082 C2083 1.369 . S
C2082 C2086 1.531 . S
C2083 C2082 1.369 . S
C2083 C2084 1.410 . S
C2083 C2091 1.503 . S
C2084 C2083 1.410 . S
C2084 C2085 1.392 . S
C2084 C2087 1.511 . S
C2085 C2081 1.376 . S
C2085 C2084 1.392 . S
C2085 H2097 0.929 . S
C2086 C2082 1.531 . S
C2086 H2098 0.960 . S
C2086 H2099 0.962 . S
C2086 H2100 0.960 . S
C2087 C2084 1.511 . S
C2087 H2101 0.961 . S
C2087 H2102 0.961 . S
C2087 H2103 0.961 . S
C2088 C2089 1.370 . S
C2088 C2090 1.363 . S
C2088 H2104 0.931 . S
C2089 C2088 1.370 . S
C2089 C2093 1.408 . S
C2090 C2088 1.363 . S
C2090 C2091 1.370 . S
C2090 C2094 1.524 . S
C2091 C2083 1.503 . S
C2091 C2090 1.370 . S
C2091 C2092 1.403 . S
C2092 C2091 1.403 . S
C2092 C2093 1.404 . S
C2092 C2095 1.539 . S
C2093 C2089 1.408 . S
C2093 C2092 1.404 . S
C2093 H2105 0.930 . S
C2094 C2090 1.524 . S
C2094 H2106 0.956 . S
C2094 H2107 0.961 . S
C2094 H2108 0.961 . S
C2095 C2092 1.539 . S
C2095 H2109 0.958 . S
C2095 H2110 0.961 . S
C2095 H2111 0.960 . S
H2096 C2080 0.931 . S
H2097 C2085 0.929 . S
H2098 C2086 0.960 . S
H2099 C2086 0.962 . S
H2100 C2086 0.960 . S
H2101 C2087 0.961 . S
H2102 C2087 0.961 . S
H2103 C2087 0.961 . S
H2104 C2088 0.931 . S
H2105 C2093 0.930 . S
H2106 C2094 0.956 . S
H2107 C2094 0.961 . S
H2108 C2094 0.961 . S
H2109 C2095 0.958 . S
H2110 C2095 0.961 . S
H2111 C2095 0.960 . S
C2112 C2113 1.391 . S
C2112 C2114 1.394 . S
C2112 H2128 0.931 . S
C2113 C2112 1.391 . S
C2113 C2117 1.376 . S
C2114 C2112 1.394 . S
C2114 C2115 1.369 . S
C2114 C2118 1.531 . S
C2115 C2114 1.369 . S
C2115 C2116 1.410 . S
C2115 C2123 1.503 . S
C2116 C2115 1.410 . S
C2116 C2117 1.392 . S
C2116 C2119 1.511 . S
C2117 C2113 1.376 . S
C2117 C2116 1.392 . S
C2117 H2129 0.929 . S
C2118 C2114 1.531 . S
C2118 H2130 0.960 . S
C2118 H2131 0.962 . S
C2118 H2132 0.960 . S
C2119 C2116 1.511 . S
C2119 H2133 0.961 . S
C2119 H2134 0.961 . S
C2119 H2135 0.961 . S
C2120 C2121 1.370 . S
C2120 C2122 1.363 . S
C2120 H2136 0.931 . S
C2121 C2120 1.370 . S
C2121 C2125 1.408 . S
C2122 C2120 1.363 . S
C2122 C2123 1.370 . S
C2122 C2126 1.524 . S
C2123 C2115 1.503 . S
C2123 C2122 1.370 . S
C2123 C2124 1.403 . S
C2124 C2123 1.403 . S
C2124 C2125 1.404 . S
C2124 C2127 1.539 . S
C2125 C2121 1.408 . S
C2125 C2124 1.404 . S
C2125 H2137 0.930 . S
C2126 C2122 1.524 . S
C2126 H2138 0.956 . S
C2126 H2139 0.961 . S
C2126 H2140 0.961 . S
C2127 C2124 1.539 . S
C2127 H2141 0.958 . S
C2127 H2142 0.961 . S
C2127 H2143 0.960 . S
H2128 C2112 0.931 . S
H2129 C2117 0.929 . S
H2130 C2118 0.960 . S
H2131 C2118 0.962 . S
H2132 C2118 0.960 . S
H2133 C2119 0.961 . S
H2134 C2119 0.961 . S
H2135 C2119 0.961 . S
H2136 C2120 0.931 . S
H2137 C2125 0.930 . S
H2138 C2126 0.956 . S
H2139 C2126 0.961 . S
H2140 C2126 0.961 . S
H2141 C2127 0.958 . S
H2142 C2127 0.961 . S
H2143 C2127 0.960 . S
C2144 C2145 1.391 . S
C2144 C2146 1.394 . S
C2144 H2160 0.931 . S
C2145 C2144 1.391 . S
C2145 C2149 1.376 . S
C2146 C2144 1.394 . S
C2146 C2147 1.369 . S
C2146 C2150 1.531 . S
C2147 C2146 1.369 . S
C2147 C2148 1.410 . S
C2147 C2155 1.503 . S
C2148 C2147 1.410 . S
C2148 C2149 1.392 . S
C2148 C2151 1.511 . S
C2149 C2145 1.376 . S
C2149 C2148 1.392 . S
C2149 H2161 0.929 . S
C2150 C2146 1.531 . S
C2150 H2162 0.960 . S
C2150 H2163 0.962 . S
C2150 H2164 0.960 . S
C2151 C2148 1.511 . S
C2151 H2165 0.961 . S
C2151 H2166 0.961 . S
C2151 H2167 0.961 . S
C2152 C2153 1.370 . S
C2152 C2154 1.363 . S
C2152 H2168 0.931 . S
C2153 C2152 1.370 . S
C2153 C2157 1.408 . S
C2154 C2152 1.363 . S
C2154 C2155 1.370 . S
C2154 C2158 1.524 . S
C2155 C2147 1.503 . S
C2155 C2154 1.370 . S
C2155 C2156 1.403 . S
C2156 C2155 1.403 . S
C2156 C2157 1.404 . S
C2156 C2159 1.539 . S
C2157 C2153 1.408 . S
C2157 C2156 1.404 . S
C2157 H2169 0.930 . S
C2158 C2154 1.524 . S
C2158 H2170 0.956 . S
C2158 H2171 0.961 . S
C2158 H2172 0.961 . S
C2159 C2156 1.539 . S
C2159 H2173 0.958 . S
C2159 H2174 0.961 . S
C2159 H2175 0.960 . S
H2160 C2144 0.931 . S
H2161 C2149 0.929 . S
H2162 C2150 0.960 . S
H2163 C2150 0.962 . S
H2164 C2150 0.960 . S
H2165 C2151 0.961 . S
H2166 C2151 0.961 . S
H2167 C2151 0.961 . S
H2168 C2152 0.931 . S
H2169 C2157 0.930 . S
H2170 C2158 0.956 . S
H2171 C2158 0.961 . S
H2172 C2158 0.961 . S
H2173 C2159 0.958 . S
H2174 C2159 0.961 . S
H2175 C2159 0.960 . S
C2176 C2177 1.391 . S
C2176 C2178 1.394 . S
C2176 H2192 0.931 . S
C2177 C2176 1.391 . S
C2177 C2181 1.376 . S
C2178 C2176 1.394 . S
C2178 C2179 1.369 . S
C2178 C2182 1.504 1_445 S
C2179 C2178 1.369 . S
C2179 C2180 1.410 . S
C2179 C2187 1.503 . S
C2180 C2179 1.410 . S
C2180 C2181 1.392 . S
C2180 C2183 1.511 . S
C2181 C2177 1.376 . S
C2181 C2180 1.392 . S
C2181 H2193 0.929 . S
C2182 C2178 1.504 1_665 S
C2182 H2194 0.956 1_655 S
C2182 H2195 1.011 . S
C2182 H2196 0.945 1_655 S
C2183 C2180 1.511 . S
C2183 H2197 0.961 . S
C2183 H2198 0.961 . S
C2183 H2199 0.961 . S
C2184 C2185 1.370 . S
C2184 C2186 1.363 . S
C2184 H2200 0.931 . S
C2185 C2184 1.370 . S
C2185 C2189 1.408 1_655 S
C2186 C2184 1.363 . S
C2186 C2187 1.370 1_655 S
C2186 C2190 1.524 . S
C2187 C2179 1.503 . S
C2187 C2186 1.370 1_455 S
C2187 C2188 1.403 . S
C2188 C2187 1.403 . S
C2188 C2189 1.404 . S
C2188 C2191 1.539 . S
C2189 C2185 1.408 1_455 S
C2189 C2188 1.404 . S
C2189 H2201 0.930 . S
C2190 C2186 1.524 . S
C2190 H2202 0.956 . S
C2190 H2203 0.961 . S
C2190 H2204 0.961 . S
C2191 C2188 1.539 . S
C2191 H2205 0.958 1_545 S
C2191 H2206 0.961 . S
C2191 H2207 0.960 . S
H2192 C2176 0.931 . S
H2193 C2181 0.929 . S
H2194 C2182 0.956 1_455 S
H2195 C2182 1.011 . S
H2196 C2182 0.945 1_455 S
H2197 C2183 0.961 . S
H2198 C2183 0.961 . S
H2199 C2183 0.961 . S
H2200 C2184 0.931 . S
H2201 C2189 0.930 . S
H2202 C2190 0.956 . S
H2203 C2190 0.961 . S
H2204 C2190 0.961 . S
H2205 C2191 0.958 1_565 S
H2206 C2191 0.961 . S
H2207 C2191 0.960 . S
C2208 C2209 1.391 . S
C2208 C2210 1.394 . S
C2208 H2224 0.931 . S
C2209 C2208 1.391 . S
C2209 C2213 1.376 . S
C2210 C2208 1.394 . S
C2210 C2211 1.369 . S
C2210 C2214 1.531 . S
C2211 C2210 1.369 . S
C2211 C2212 1.410 . S
C2211 C2219 1.503 . S
C2212 C2211 1.410 . S
C2212 C2213 1.392 . S
C2212 C2215 1.511 . S
C2213 C2209 1.376 . S
C2213 C2212 1.392 . S
C2213 H2225 0.929 . S
C2214 C2210 1.531 . S
C2214 H2226 0.960 . S
C2214 H2227 0.962 . S
C2214 H2228 0.960 . S
C2215 C2212 1.511 . S
C2215 H2229 0.961 . S
C2215 H2230 0.961 . S
C2215 H2231 0.961 . S
C2216 C2217 1.370 . S
C2216 C2218 1.363 . S
C2216 H2232 0.931 . S
C2217 C2216 1.370 . S
C2217 C2221 1.408 . S
C2218 C2216 1.363 . S
C2218 C2219 1.370 . S
C2218 C2222 1.524 . S
C2219 C2211 1.503 . S
C2219 C2218 1.370 . S
C2219 C2220 1.403 . S
C2220 C2219 1.403 . S
C2220 C2221 1.404 . S
C2220 C2223 1.539 . S
C2221 C2217 1.408 . S
C2221 C2220 1.404 . S
C2221 H2233 0.930 . S
C2222 C2218 1.524 . S
C2222 H2234 0.956 . S
C2222 H2235 0.961 . S
C2222 H2236 0.961 . S
C2223 C2220 1.539 . S
C2223 H2237 0.958 . S
C2223 H2238 0.961 . S
C2223 H2239 0.960 . S
H2224 C2208 0.931 . S
H2225 C2213 0.929 . S
H2226 C2214 0.960 . S
H2227 C2214 0.962 . S
H2228 C2214 0.960 . S
H2229 C2215 0.961 . S
H2230 C2215 0.961 . S
H2231 C2215 0.961 . S
H2232 C2216 0.931 . S
H2233 C2221 0.930 . S
H2234 C2222 0.956 . S
H2235 C2222 0.961 . S
H2236 C2222 0.961 . S
H2237 C2223 0.958 . S
H2238 C2223 0.961 . S
H2239 C2223 0.960 . S
C2240 C2241 1.391 1_655 S
C2240 C2242 1.394 1_655 S
C2240 H2256 0.931 . S
C2241 C2240 1.391 1_455 S
C2241 C2245 1.376 . S
C2242 C2240 1.394 1_455 S
C2242 C2243 1.369 . S
C2242 C2246 1.531 1_455 S
C2243 C2242 1.369 . S
C2243 C2244 1.410 . S
C2243 C2251 1.503 . S
C2244 C2243 1.410 . S
C2244 C2245 1.392 . S
C2244 C2247 1.511 . S
C2245 C2241 1.376 . S
C2245 C2244 1.392 . S
C2245 H2257 0.929 . S
C2246 C2242 1.531 1_655 S
C2246 H2258 0.987 . S
C2246 H2259 0.962 . S
C2246 H2260 0.960 . S
C2247 C2244 1.511 . S
C2247 H2261 0.961 . S
C2247 H2262 0.961 . S
C2247 H2263 0.961 . S
C2248 C2249 1.370 . S
C2248 C2250 1.363 . S
C2248 H2264 0.931 . S
C2249 C2248 1.370 . S
C2249 C2253 1.408 . S
C2250 C2248 1.363 . S
C2250 C2251 1.370 . S
C2250 C2254 1.524 . S
C2251 C2243 1.503 . S
C2251 C2250 1.370 . S
C2251 C2252 1.403 . S
C2252 C2251 1.403 . S
C2252 C2253 1.404 . S
C2252 C2255 1.539 . S
C2253 C2249 1.408 . S
C2253 C2252 1.404 . S
C2253 H2265 0.930 . S
C2254 C2250 1.524 . S
C2254 H2266 0.956 . S
C2254 H2267 0.961 . S
C2254 H2268 0.961 . S
C2255 C2252 1.539 . S
C2255 H2269 0.958 . S
C2255 H2270 0.961 . S
C2255 H2271 0.960 . S
H2256 C2240 0.931 . S
H2257 C2245 0.929 . S
H2258 C2246 0.987 . S
H2259 C2246 0.962 . S
H2260 C2246 0.960 . S
H2261 C2247 0.961 . S
H2262 C2247 0.961 . S
H2263 C2247 0.961 . S
H2264 C2248 0.931 . S
H2265 C2253 0.930 . S
H2266 C2254 0.956 . S
H2267 C2254 0.961 . S
H2268 C2254 0.961 . S
H2269 C2255 0.958 . S
H2270 C2255 0.961 . S
H2271 C2255 0.960 . S
C2272 C2273 1.391 . S
C2272 C2274 1.394 . S
C2272 H2288 0.931 . S
C2273 C2272 1.391 . S
C2273 C2277 1.376 . S
C2274 C2272 1.394 . S
C2274 C2275 1.369 . S
C2274 C2278 1.531 . S
C2275 C2274 1.369 . S
C2275 C2276 1.410 . S
C2275 C2283 1.503 . S
C2276 C2275 1.410 . S
C2276 C2277 1.392 . S
C2276 C2279 1.511 . S
C2277 C2273 1.376 . S
C2277 C2276 1.392 . S
C2277 H2289 0.929 . S
C2278 C2274 1.531 . S
C2278 H2290 0.960 . S
C2278 H2291 0.962 . S
C2278 H2292 0.960 . S
C2279 C2276 1.511 . S
C2279 H2293 0.961 . S
C2279 H2294 0.961 . S
C2279 H2295 0.961 . S
C2280 C2281 1.370 . S
C2280 C2282 1.363 . S
C2280 H2296 0.931 . S
C2281 C2280 1.370 . S
C2281 C2285 1.408 . S
C2282 C2280 1.363 . S
C2282 C2283 1.370 . S
C2282 C2286 1.524 . S
C2283 C2275 1.503 . S
C2283 C2282 1.370 . S
C2283 C2284 1.403 . S
C2284 C2283 1.403 . S
C2284 C2285 1.404 . S
C2284 C2287 1.539 . S
C2285 C2281 1.408 . S
C2285 C2284 1.404 . S
C2285 H2297 0.930 . S
C2286 C2282 1.524 . S
C2286 H2298 0.956 . S
C2286 H2299 0.961 . S
C2286 H2300 0.961 . S
C2287 C2284 1.539 . S
C2287 H2301 0.958 . S
C2287 H2302 0.961 . S
C2287 H2303 0.960 . S
H2288 C2272 0.931 . S
H2289 C2277 0.929 . S
H2290 C2278 0.960 . S
H2291 C2278 0.962 . S
H2292 C2278 0.960 . S
H2293 C2279 0.961 . S
H2294 C2279 0.961 . S
H2295 C2279 0.961 . S
H2296 C2280 0.931 . S
H2297 C2285 0.930 . S
H2298 C2286 0.956 . S
H2299 C2286 0.961 . S
H2300 C2286 0.961 . S
H2301 C2287 0.958 . S
H2302 C2287 0.961 . S
H2303 C2287 0.960 . S
C2304 C2305 1.391 . S
C2304 C2306 1.394 . S
C2304 H2320 0.931 . S
C2305 C2304 1.391 . S
C2305 C2309 1.376 1_655 S
C2306 C2304 1.394 . S
C2306 C2307 1.369 . S
C2306 C2310 1.531 . S
C2307 C2306 1.369 . S
C2307 C2308 1.410 1_655 S
C2307 C2315 1.503 . S
C2308 C2307 1.410 1_455 S
C2308 C2309 1.392 . S
C2308 C2311 1.511 . S
C2309 C2305 1.376 1_455 S
C2309 C2308 1.392 . S
C2309 H2321 0.929 1_556 S
C2310 C2306 1.531 . S
C2310 H2322 0.960 . S
C2310 H2323 0.962 . S
C2310 H2324 0.960 . S
C2311 C2308 1.511 . S
C2311 H2325 0.961 1_556 S
C2311 H2326 0.961 . S
C2311 H2327 0.961 . S
C2312 C2313 1.370 . S
C2312 C2314 1.363 . S
C2312 H2328 0.931 . S
C2313 C2312 1.370 . S
C2313 C2317 1.408 1_655 S
C2314 C2312 1.363 . S
C2314 C2315 1.370 . S
C2314 C2318 1.524 . S
C2315 C2307 1.503 . S
C2315 C2314 1.370 . S
C2315 C2316 1.403 1_655 S
C2316 C2315 1.403 1_455 S
C2316 C2317 1.404 . S
C2316 C2319 1.539 . S
C2317 C2313 1.408 1_455 S
C2317 C2316 1.404 . S
C2317 H2329 0.930 . S
C2318 C2314 1.524 . S
C2318 H2330 0.956 . S
C2318 H2331 0.961 . S
C2318 H2332 0.961 . S
C2319 C2316 1.539 . S
C2319 H2333 0.958 . S
C2319 H2334 0.961 . S
C2319 H2335 0.960 . S
H2320 C2304 0.931 . S
H2321 C2309 0.929 1_554 S
H2322 C2310 0.960 . S
H2323 C2310 0.962 . S
H2324 C2310 0.960 . S
H2325 C2311 0.961 1_554 S
H2326 C2311 0.961 . S
H2327 C2311 0.961 . S
H2328 C2312 0.931 . S
H2329 C2317 0.930 . S
H2330 C2318 0.956 . S
H2331 C2318 0.961 . S
H2332 C2318 0.961 . S
H2333 C2319 0.958 . S
H2334 C2319 0.961 . S
H2335 C2319 0.960 . S
C2336 C2337 1.391 . S
C2336 C2338 1.394 . S
C2336 H2352 0.931 . S
C2337 C2336 1.391 . S
C2337 C2341 1.376 . S
C2338 C2336 1.394 . S
C2338 C2339 1.369 . S
C2338 C2342 1.531 . S
C2339 C2338 1.369 . S
C2339 C2340 1.410 . S
C2339 C2347 1.503 . S
C2340 C2339 1.410 . S
C2340 C2341 1.392 . S
C2340 C2343 1.511 . S
C2341 C2337 1.376 . S
C2341 C2340 1.392 . S
C2341 H2353 0.929 . S
C2342 C2338 1.531 . S
C2342 H2354 0.960 . S
C2342 H2355 0.962 . S
C2342 H2356 0.960 . S
C2343 C2340 1.511 . S
C2343 H2357 0.961 . S
C2343 H2358 0.961 . S
C2343 H2359 0.961 . S
C2344 C2345 1.370 . S
C2344 C2346 1.363 . S
C2344 H2360 0.931 . S
C2345 C2344 1.370 . S
C2345 C2349 1.408 . S
C2346 C2344 1.363 . S
C2346 C2347 1.370 . S
C2346 C2350 1.524 . S
C2347 C2339 1.503 . S
C2347 C2346 1.370 . S
C2347 C2348 1.403 . S
C2348 C2347 1.403 . S
C2348 C2349 1.404 . S
C2348 C2351 1.539 . S
C2349 C2345 1.408 . S
C2349 C2348 1.404 . S
C2349 H2361 0.930 . S
C2350 C2346 1.524 . S
C2350 H2362 0.956 . S
C2350 H2363 0.961 . S
C2350 H2364 0.961 . S
C2351 C2348 1.539 . S
C2351 H2365 0.958 . S
C2351 H2366 0.961 . S
C2351 H2367 0.960 . S
H2352 C2336 0.931 . S
H2353 C2341 0.929 . S
H2354 C2342 0.960 . S
H2355 C2342 0.962 . S
H2356 C2342 0.960 . S
H2357 C2343 0.961 . S
H2358 C2343 0.961 . S
H2359 C2343 0.961 . S
H2360 C2344 0.931 . S
H2361 C2349 0.930 . S
H2362 C2350 0.956 . S
H2363 C2350 0.961 . S
H2364 C2350 0.961 . S
H2365 C2351 0.958 . S
H2366 C2351 0.961 . S
H2367 C2351 0.960 . S
C2368 C2369 1.391 . S
C2368 C2370 1.394 . S
C2368 H2384 0.931 1_556 S
C2369 C2368 1.391 . S
C2369 C2373 1.376 . S
C2370 C2368 1.394 . S
C2370 C2371 1.369 . S
C2370 C2374 1.531 . S
C2371 C2370 1.369 . S
C2371 C2372 1.410 . S
C2371 C2379 1.503 . S
C2372 C2371 1.410 . S
C2372 C2373 1.392 . S
C2372 C2375 1.511 . S
C2373 C2369 1.376 . S
C2373 C2372 1.392 . S
C2373 H2385 0.929 . S
C2374 C2370 1.531 . S
C2374 H2386 0.960 . S
C2374 H2387 0.962 1_455 S
C2374 H2388 0.946 1_455 S
C2375 C2372 1.511 . S
C2375 H2389 0.961 . S
C2375 H2390 0.961 . S
C2375 H2391 0.961 . S
C2376 C2377 1.370 . S
C2376 C2378 1.363 . S
C2376 H2392 0.931 . S
C2377 C2376 1.370 . S
C2377 C2381 1.408 . S
C2378 C2376 1.363 . S
C2378 C2379 1.370 . S
C2378 C2382 1.524 . S
C2379 C2371 1.503 . S
C2379 C2378 1.370 . S
C2379 C2380 1.403 . S
C2380 C2379 1.403 . S
C2380 C2381 1.404 . S
C2380 C2383 1.539 . S
C2381 C2377 1.408 . S
C2381 C2380 1.404 . S
C2381 H2393 0.930 . S
C2382 C2378 1.524 . S
C2382 H2394 0.959 1_455 S
C2382 H2395 0.961 . S
C2382 H2396 0.961 . S
C2383 C2380 1.539 . S
C2383 H2397 0.958 . S
C2383 H2398 0.961 . S
C2383 H2399 0.960 . S
H2384 C2368 0.931 1_554 S
H2385 C2373 0.929 . S
H2386 C2374 0.960 . S
H2387 C2374 0.962 1_655 S
H2388 C2374 0.946 1_655 S
H2389 C2375 0.961 . S
H2390 C2375 0.961 . S
H2391 C2375 0.961 . S
H2392 C2376 0.931 . S
H2393 C2381 0.930 . S
H2394 C2382 0.959 1_655 S
H2395 C2382 0.961 . S
H2396 C2382 0.961 . S
H2397 C2383 0.958 . S
H2398 C2383 0.961 . S
H2399 C2383 0.960 . S
C2400 C2401 1.391 . S
C2400 C2402 1.394 . S
C2400 H2416 0.931 . S
C2401 C2400 1.391 . S
C2401 C2405 1.376 . S
C2402 C2400 1.394 . S
C2402 C2403 1.369 . S
C2402 C2406 1.531 . S
C2403 C2402 1.369 . S
C2403 C2404 1.410 . S
C2403 C2411 1.503 . S
C2404 C2403 1.410 . S
C2404 C2405 1.392 . S
C2404 C2407 1.511 . S
C2405 C2401 1.376 . S
C2405 C2404 1.392 . S
C2405 H2417 0.929 . S
C2406 C2402 1.531 . S
C2406 H2418 0.960 . S
C2406 H2419 0.962 . S
C2406 H2420 0.960 . S
C2407 C2404 1.511 . S
C2407 H2421 0.961 . S
C2407 H2422 0.961 . S
C2407 H2423 0.961 . S
C2408 C2409 1.370 . S
C2408 C2410 1.363 . S
C2408 H2424 0.931 . S
C2409 C2408 1.370 . S
C2409 C2413 1.408 . S
C2410 C2408 1.363 . S
C2410 C2411 1.370 . S
C2410 C2414 1.524 . S
C2411 C2403 1.503 . S
C2411 C2410 1.370 . S
C2411 C2412 1.403 . S
C2412 C2411 1.403 . S
C2412 C2413 1.404 . S
C2412 C2415 1.539 . S
C2413 C2409 1.408 . S
C2413 C2412 1.404 . S
C2413 H2425 0.930 . S
C2414 C2410 1.524 . S
C2414 H2426 0.956 . S
C2414 H2427 0.961 . S
C2414 H2428 0.961 . S
C2415 C2412 1.539 . S
C2415 H2429 0.958 . S
C2415 H2430 0.961 . S
C2415 H2431 0.960 . S
H2416 C2400 0.931 . S
H2417 C2405 0.929 . S
H2418 C2406 0.960 . S
H2419 C2406 0.962 . S
H2420 C2406 0.960 . S
H2421 C2407 0.961 . S
H2422 C2407 0.961 . S
H2423 C2407 0.961 . S
H2424 C2408 0.931 . S
H2425 C2413 0.930 . S
H2426 C2414 0.956 . S
H2427 C2414 0.961 . S
H2428 C2414 0.961 . S
H2429 C2415 0.958 . S
H2430 C2415 0.961 . S
H2431 C2415 0.960 . S
C2432 C2433 1.391 . S
C2432 C2434 1.394 . S
C2432 H2448 0.931 . S
C2433 C2432 1.391 . S
C2433 C2437 1.376 . S
C2434 C2432 1.394 . S
C2434 C2435 1.369 . S
C2434 C2438 1.531 . S
C2435 C2434 1.369 . S
C2435 C2436 1.410 . S
C2435 C2443 1.503 . S
C2436 C2435 1.410 . S
C2436 C2437 1.392 . S
C2436 C2439 1.511 . S
C2437 C2433 1.376 . S
C2437 C2436 1.392 . S
C2437 H2449 0.929 1_554 S
C2438 C2434 1.531 . S
C2438 H2450 0.960 . S
C2438 H2451 0.962 . S
C2438 H2452 0.960 . S
C2439 C2436 1.511 . S
C2439 H2453 0.993 . S
C2439 H2454 0.961 . S
C2439 H2455 0.961 . S
C2440 C2441 1.370 . S
C2440 C2442 1.363 . S
C2440 H2456 0.931 . S
C2441 C2440 1.370 . S
C2441 C2445 1.408 . S
C2442 C2440 1.363 . S
C2442 C2443 1.370 . S
C2442 C2446 1.524 . S
C2443 C2435 1.503 . S
C2443 C2442 1.370 . S
C2443 C2444 1.403 . S
C2444 C2443 1.403 . S
C2444 C2445 1.404 . S
C2444 C2447 1.539 . S
C2445 C2441 1.408 . S
C2445 C2444 1.404 . S
C2445 H2457 0.930 . S
C2446 C2442 1.524 . S
C2446 H2458 0.956 . S
C2446 H2459 0.961 . S
C2446 H2460 0.961 . S
C2447 C2444 1.539 . S
C2447 H2461 0.958 . S
C2447 H2462 0.961 . S
C2447 H2463 0.960 . S
H2448 C2432 0.931 . S
H2449 C2437 0.929 1_556 S
H2450 C2438 0.960 . S
H2451 C2438 0.962 . S
H2452 C2438 0.960 . S
H2453 C2439 0.993 . S
H2454 C2439 0.961 . S
H2455 C2439 0.961 . S
H2456 C2440 0.931 . S
H2457 C2445 0.930 . S
H2458 C2446 0.956 . S
H2459 C2446 0.961 . S
H2460 C2446 0.961 . S
H2461 C2447 0.958 . S
H2462 C2447 0.961 . S
H2463 C2447 0.960 . S
C2464 C2465 1.391 . S
C2464 C2466 1.394 . S
C2464 H2480 0.931 . S
C2465 C2464 1.391 . S
C2465 C2469 1.376 . S
C2466 C2464 1.394 . S
C2466 C2467 1.369 . S
C2466 C2470 1.531 . S
C2467 C2466 1.369 . S
C2467 C2468 1.410 . S
C2467 C2475 1.503 . S
C2468 C2467 1.410 . S
C2468 C2469 1.392 . S
C2468 C2471 1.511 . S
C2469 C2465 1.376 . S
C2469 C2468 1.392 . S
C2469 H2481 0.929 . S
C2470 C2466 1.531 . S
C2470 H2482 0.960 . S
C2470 H2483 0.962 . S
C2470 H2484 0.960 . S
C2471 C2468 1.511 . S
C2471 H2485 0.961 . S
C2471 H2486 0.961 . S
C2471 H2487 0.961 . S
C2472 C2473 1.370 . S
C2472 C2474 1.363 . S
C2472 H2488 0.931 . S
C2473 C2472 1.370 . S
C2473 C2477 1.408 . S
C2474 C2472 1.363 . S
C2474 C2475 1.370 . S
C2474 C2478 1.524 . S
C2475 C2467 1.503 . S
C2475 C2474 1.370 . S
C2475 C2476 1.403 . S
C2476 C2475 1.403 . S
C2476 C2477 1.404 . S
C2476 C2479 1.539 . S
C2477 C2473 1.408 . S
C2477 C2476 1.404 . S
C2477 H2489 0.930 . S
C2478 C2474 1.524 . S
C2478 H2490 0.956 . S
C2478 H2491 0.961 . S
C2478 H2492 0.961 . S
C2479 C2476 1.539 . S
C2479 H2493 0.958 . S
C2479 H2494 0.961 . S
C2479 H2495 0.960 . S
H2480 C2464 0.931 . S
H2481 C2469 0.929 . S
H2482 C2470 0.960 . S
H2483 C2470 0.962 . S
H2484 C2470 0.960 . S
H2485 C2471 0.961 . S
H2486 C2471 0.961 . S
H2487 C2471 0.961 . S
H2488 C2472 0.931 . S
H2489 C2477 0.930 . S
H2490 C2478 0.956 . S
H2491 C2478 0.961 . S
H2492 C2478 0.961 . S
H2493 C2479 0.958 . S
H2494 C2479 0.961 . S
H2495 C2479 0.960 . S
C2496 C2497 1.391 . S
C2496 C2498 1.394 1_556 S
C2496 H2512 0.931 . S
C2497 C2496 1.391 . S
C2497 C2501 1.376 1_556 S
C2498 C2496 1.394 1_554 S
C2498 C2499 1.369 . S
C2498 C2502 1.531 . S
C2499 C2498 1.369 . S
C2499 C2500 1.410 . S
C2499 C2507 1.503 . S
C2500 C2499 1.410 . S
C2500 C2501 1.392 . S
C2500 C2503 1.511 . S
C2501 C2497 1.376 1_554 S
C2501 C2500 1.392 . S
C2501 H2513 0.929 . S
C2502 C2498 1.531 . S
C2502 H2514 0.960 . S
C2502 H2515 0.962 1_554 S
C2502 H2516 0.960 1_554 S
C2503 C2500 1.511 . S
C2503 H2517 0.961 . S
C2503 H2518 0.961 . S
C2503 H2519 0.961 . S
C2504 C2505 1.370 . S
C2504 C2506 1.363 . S
C2504 H2520 0.931 . S
C2505 C2504 1.370 . S
C2505 C2509 1.408 . S
C2506 C2504 1.363 . S
C2506 C2507 1.370 . S
C2506 C2510 1.524 . S
C2507 C2499 1.503 . S
C2507 C2506 1.370 . S
C2507 C2508 1.403 . S
C2508 C2507 1.403 . S
C2508 C2509 1.404 . S
C2508 C2511 1.539 . S
C2509 C2505 1.408 . S
C2509 C2508 1.404 . S
C2509 H2521 0.930 . S
C2510 C2506 1.524 . S
C2510 H2522 0.956 . S
C2510 H2523 0.961 . S
C2510 H2524 0.961 . S
C2511 C2508 1.539 . S
C2511 H2525 0.958 . S
C2511 H2526 0.961 . S
C2511 H2527 0.960 . S
H2512 C2496 0.931 . S
H2513 C2501 0.929 . S
H2514 C2502 0.960 . S
H2515 C2502 0.962 1_556 S
H2516 C2502 0.960 1_556 S
H2517 C2503 0.961 . S
H2518 C2503 0.961 . S
H2519 C2503 0.961 . S
H2520 C2504 0.931 . S
H2521 C2509 0.930 . S
H2522 C2510 0.956 . S
H2523 C2510 0.961 . S
H2524 C2510 0.961 . S
H2525 C2511 0.958 . S
H2526 C2511 0.961 . S
H2527 C2511 0.960 . S
C2528 C2529 1.391 . S
C2528 C2530 1.394 . S
C2528 H2544 0.931 . S
C2529 C2528 1.391 . S
C2529 C2533 1.376 . S
C2530 C2528 1.394 . S
C2530 C2531 1.369 . S
C2530 C2534 1.531 . S
C2531 C2530 1.369 . S
C2531 C2532 1.410 . S
C2531 C2539 1.503 . S
C2532 C2531 1.410 . S
C2532 C2533 1.392 . S
C2532 C2535 1.511 . S
C2533 C2529 1.376 . S
C2533 C2532 1.392 . S
C2533 H2545 0.929 . S
C2534 C2530 1.531 . S
C2534 H2546 0.960 . S
C2534 H2547 0.962 . S
C2534 H2548 0.960 . S
C2535 C2532 1.511 . S
C2535 H2549 0.961 . S
C2535 H2550 0.961 . S
C2535 H2551 0.961 . S
C2536 C2537 1.370 . S
C2536 C2538 1.363 . S
C2536 H2552 0.931 . S
C2537 C2536 1.370 . S
C2537 C2541 1.408 . S
C2538 C2536 1.363 . S
C2538 C2539 1.370 . S
C2538 C2542 1.524 . S
C2539 C2531 1.503 . S
C2539 C2538 1.370 . S
C2539 C2540 1.403 . S
C2540 C2539 1.403 . S
C2540 C2541 1.404 . S
C2540 C2543 1.539 . S
C2541 C2537 1.408 . S
C2541 C2540 1.404 . S
C2541 H2553 0.930 . S
C2542 C2538 1.524 . S
C2542 H2554 0.956 . S
C2542 H2555 0.961 . S
C2542 H2556 0.961 . S
C2543 C2540 1.539 . S
C2543 H2557 0.958 . S
C2543 H2558 0.961 . S
C2543 H2559 0.960 . S
H2544 C2528 0.931 . S
H2545 C2533 0.929 . S
H2546 C2534 0.960 . S
H2547 C2534 0.962 . S
H2548 C2534 0.960 . S
H2549 C2535 0.961 . S
H2550 C2535 0.961 . S
H2551 C2535 0.961 . S
H2552 C2536 0.931 . S
H2553 C2541 0.930 . S
H2554 C2542 0.956 . S
H2555 C2542 0.961 . S
H2556 C2542 0.961 . S
H2557 C2543 0.958 . S
H2558 C2543 0.961 . S
H2559 C2543 0.960 . S
C2560 C2561 1.391 . S
C2560 C2562 1.394 . S
C2560 H2576 0.931 . S
C2561 C2560 1.391 . S
C2561 C2565 1.376 . S
C2562 C2560 1.394 . S
C2562 C2563 1.369 . S
C2562 C2566 1.531 . S
C2563 C2562 1.369 . S
C2563 C2564 1.410 . S
C2563 C2571 1.503 . S
C2564 C2563 1.410 . S
C2564 C2565 1.392 . S
C2564 C2567 1.511 . S
C2565 C2561 1.376 . S
C2565 C2564 1.392 . S
C2565 H2577 0.929 . S
C2566 C2562 1.531 . S
C2566 H2578 0.960 . S
C2566 H2579 0.962 . S
C2566 H2580 0.960 . S
C2567 C2564 1.511 . S
C2567 H2581 0.961 . S
C2567 H2582 0.961 . S
C2567 H2583 0.961 . S
C2568 C2569 1.370 . S
C2568 C2570 1.363 . S
C2568 H2584 0.931 . S
C2569 C2568 1.370 . S
C2569 C2573 1.408 . S
C2570 C2568 1.363 . S
C2570 C2571 1.370 . S
C2570 C2574 1.524 . S
C2571 C2563 1.503 . S
C2571 C2570 1.370 . S
C2571 C2572 1.403 . S
C2572 C2571 1.403 . S
C2572 C2573 1.404 . S
C2572 C2575 1.539 . S
C2573 C2569 1.408 . S
C2573 C2572 1.404 . S
C2573 H2585 0.930 . S
C2574 C2570 1.524 . S
C2574 H2586 0.956 . S
C2574 H2587 0.961 . S
C2574 H2588 0.961 . S
C2575 C2572 1.539 . S
C2575 H2589 0.958 . S
C2575 H2590 0.961 . S
C2575 H2591 0.960 . S
H2576 C2560 0.931 . S
H2577 C2565 0.929 . S
H2578 C2566 0.960 . S
H2579 C2566 0.962 . S
H2580 C2566 0.960 . S
H2581 C2567 0.961 . S
H2582 C2567 0.961 . S
H2583 C2567 0.961 . S
H2584 C2568 0.931 . S
H2585 C2573 0.930 . S
H2586 C2574 0.956 . S
H2587 C2574 0.961 . S
H2588 C2574 0.961 . S
H2589 C2575 0.958 . S
H2590 C2575 0.961 . S
H2591 C2575 0.960 . S
C2592 C2593 1.391 . S
C2592 C2594 1.394 . S
C2592 H2608 0.931 . S
C2593 C2592 1.391 . S
C2593 C2597 1.376 . S
C2594 C2592 1.394 . S
C2594 C2595 1.369 . S
C2594 C2598 1.531 . S
C2595 C2594 1.369 . S
C2595 C2596 1.410 . S
C2595 C2603 1.503 . S
C2596 C2595 1.410 . S
C2596 C2597 1.392 . S
C2596 C2599 1.511 . S
C2597 C2593 1.376 . S
C2597 C2596 1.392 . S
C2597 H2609 0.929 . S
C2598 C2594 1.531 . S
C2598 H2610 0.960 . S
C2598 H2611 0.962 . S
C2598 H2612 0.960 . S
C2599 C2596 1.511 . S
C2599 H2613 0.961 . S
C2599 H2614 0.961 . S
C2599 H2615 0.961 . S
C2600 C2601 1.370 . S
C2600 C2602 1.363 . S
C2600 H2616 0.931 . S
C2601 C2600 1.370 . S
C2601 C2605 1.408 . S
C2602 C2600 1.363 . S
C2602 C2603 1.370 . S
C2602 C2606 1.524 . S
C2603 C2595 1.503 . S
C2603 C2602 1.370 . S
C2603 C2604 1.403 . S
C2604 C2603 1.403 . S
C2604 C2605 1.404 . S
C2604 C2607 1.539 . S
C2605 C2601 1.408 . S
C2605 C2604 1.404 . S
C2605 H2617 0.930 . S
C2606 C2602 1.524 . S
C2606 H2618 0.956 . S
C2606 H2619 0.961 . S
C2606 H2620 0.961 . S
C2607 C2604 1.539 . S
C2607 H2621 0.958 . S
C2607 H2622 0.961 . S
C2607 H2623 0.960 . S
H2608 C2592 0.931 . S
H2609 C2597 0.929 . S
H2610 C2598 0.960 . S
H2611 C2598 0.962 . S
H2612 C2598 0.960 . S
H2613 C2599 0.961 . S
H2614 C2599 0.961 . S
H2615 C2599 0.961 . S
H2616 C2600 0.931 . S
H2617 C2605 0.930 . S
H2618 C2606 0.956 . S
H2619 C2606 0.961 . S
H2620 C2606 0.961 . S
H2621 C2607 0.958 . S
H2622 C2607 0.961 . S
H2623 C2607 0.960 . S
C2624 C2625 1.391 . S
C2624 C2626 1.394 . S
C2624 H2640 0.931 . S
C2625 C2624 1.391 . S
C2625 C2629 1.376 . S
C2626 C2624 1.394 . S
C2626 C2627 1.369 . S
C2626 C2630 1.531 . S
C2627 C2626 1.369 . S
C2627 C2628 1.410 . S
C2627 C2635 1.503 . S
C2628 C2627 1.410 . S
C2628 C2629 1.392 . S
C2628 C2631 1.511 . S
C2629 C2625 1.376 . S
C2629 C2628 1.392 . S
C2629 H2641 0.929 . S
C2630 C2626 1.531 . S
C2630 H2642 0.960 . S
C2630 H2643 0.962 . S
C2630 H2644 0.960 . S
C2631 C2628 1.511 . S
C2631 H2645 0.961 . S
C2631 H2646 0.961 . S
C2631 H2647 0.961 . S
C2632 C2633 1.370 . S
C2632 C2634 1.363 . S
C2632 H2648 0.931 . S
C2633 C2632 1.370 . S
C2633 C2637 1.408 . S
C2634 C2632 1.363 . S
C2634 C2635 1.370 . S
C2634 C2638 1.524 . S
C2635 C2627 1.503 . S
C2635 C2634 1.370 . S
C2635 C2636 1.403 . S
C2636 C2635 1.403 . S
C2636 C2637 1.404 . S
C2636 C2639 1.539 . S
C2637 C2633 1.408 . S
C2637 C2636 1.404 . S
C2637 H2649 0.930 . S
C2638 C2634 1.524 . S
C2638 H2650 0.956 . S
C2638 H2651 0.961 . S
C2638 H2652 0.961 . S
C2639 C2636 1.539 . S
C2639 H2653 0.958 . S
C2639 H2654 0.961 . S
C2639 H2655 0.960 . S
H2640 C2624 0.931 . S
H2641 C2629 0.929 . S
H2642 C2630 0.960 . S
H2643 C2630 0.962 . S
H2644 C2630 0.960 . S
H2645 C2631 0.961 . S
H2646 C2631 0.961 . S
H2647 C2631 0.961 . S
H2648 C2632 0.931 . S
H2649 C2637 0.930 . S
H2650 C2638 0.956 . S
H2651 C2638 0.961 . S
H2652 C2638 0.961 . S
H2653 C2639 0.958 . S
H2654 C2639 0.961 . S
H2655 C2639 0.960 . S
C2656 C2657 1.391 . S
C2656 C2658 1.394 . S
C2656 H2672 0.931 . S
C2657 C2656 1.391 . S
C2657 C2661 1.376 . S
C2658 C2656 1.394 . S
C2658 C2659 1.369 . S
C2658 C2662 1.531 . S
C2659 C2658 1.369 . S
C2659 C2660 1.410 . S
C2659 C2667 1.503 . S
C2660 C2659 1.410 . S
C2660 C2661 1.392 . S
C2660 C2663 1.511 . S
C2661 C2657 1.376 . S
C2661 C2660 1.392 . S
C2661 H2673 0.929 . S
C2662 C2658 1.531 . S
C2662 H2674 0.960 . S
C2662 H2675 0.962 . S
C2662 H2676 0.960 . S
C2663 C2660 1.511 . S
C2663 H2677 0.961 . S
C2663 H2678 0.961 . S
C2663 H2679 0.961 1_556 S
C2664 C2665 1.370 . S
C2664 C2666 1.363 . S
C2664 H2680 0.931 . S
C2665 C2664 1.370 . S
C2665 C2669 1.408 1_556 S
C2666 C2664 1.363 . S
C2666 C2667 1.370 . S
C2666 C2670 1.524 . S
C2667 C2659 1.503 . S
C2667 C2666 1.370 . S
C2667 C2668 1.403 1_556 S
C2668 C2667 1.403 1_554 S
C2668 C2669 1.404 . S
C2668 C2671 1.539 . S
C2669 C2665 1.408 1_554 S
C2669 C2668 1.404 . S
C2669 H2681 0.930 . S
C2670 C2666 1.524 . S
C2670 H2682 0.956 . S
C2670 H2683 0.961 . S
C2670 H2684 0.961 . S
C2671 C2668 1.539 . S
C2671 H2685 0.958 . S
C2671 H2686 0.961 . S
C2671 H2687 0.960 . S
H2672 C2656 0.931 . S
H2673 C2661 0.929 . S
H2674 C2662 0.960 . S
H2675 C2662 0.962 . S
H2676 C2662 0.960 . S
H2677 C2663 0.961 . S
H2678 C2663 0.961 . S
H2679 C2663 0.961 1_554 S
H2680 C2664 0.931 . S
H2681 C2669 0.930 . S
H2682 C2670 0.956 . S
H2683 C2670 0.961 . S
H2684 C2670 0.961 . S
H2685 C2671 0.958 . S
H2686 C2671 0.961 . S
H2687 C2671 0.960 . S
C2688 C2689 1.391 . S
C2688 C2690 1.394 . S
C2688 H2704 0.931 . S
C2689 C2688 1.391 . S
C2689 C2693 1.376 . S
C2690 C2688 1.394 . S
C2690 C2691 1.369 . S
C2690 C2694 1.531 . S
C2691 C2690 1.369 . S
C2691 C2692 1.410 . S
C2691 C2699 1.503 . S
C2692 C2691 1.410 . S
C2692 C2693 1.392 . S
C2692 C2695 1.511 . S
C2693 C2689 1.376 . S
C2693 C2692 1.392 . S
C2693 H2705 0.929 . S
C2694 C2690 1.531 . S
C2694 H2706 0.960 . S
C2694 H2707 0.962 . S
C2694 H2708 0.960 . S
C2695 C2692 1.511 . S
C2695 H2709 0.961 . S
C2695 H2710 0.961 . S
C2695 H2711 0.961 . S
C2696 C2697 1.370 . S
C2696 C2698 1.363 . S
C2696 H2712 0.931 . S
C2697 C2696 1.370 . S
C2697 C2701 1.408 . S
C2698 C2696 1.363 . S
C2698 C2699 1.370 . S
C2698 C2702 1.524 . S
C2699 C2691 1.503 . S
C2699 C2698 1.370 . S
C2699 C2700 1.403 . S
C2700 C2699 1.403 . S
C2700 C2701 1.404 . S
C2700 C2703 1.539 . S
C2701 C2697 1.408 . S
C2701 C2700 1.404 . S
C2701 H2713 0.930 . S
C2702 C2698 1.524 . S
C2702 H2714 0.956 . S
C2702 H2715 0.961 . S
C2702 H2716 0.961 . S
C2703 C2700 1.539 . S
C2703 H2717 0.958 . S
C2703 H2718 0.961 . S
C2703 H2719 0.960 . S
H2704 C2688 0.931 . S
H2705 C2693 0.929 . S
H2706 C2694 0.960 . S
H2707 C2694 0.962 . S
H2708 C2694 0.960 . S
H2709 C2695 0.961 . S
H2710 C2695 0.961 . S
H2711 C2695 0.961 . S
H2712 C2696 0.931 . S
H2713 C2701 0.930 . S
H2714 C2702 0.956 . S
H2715 C2702 0.961 . S
H2716 C2702 0.961 . S
H2717 C2703 0.958 . S
H2718 C2703 0.961 . S
H2719 C2703 0.960 . S
C2720 C2721 1.391 . S
C2720 C2722 1.394 . S
C2720 H2736 0.931 . S
C2721 C2720 1.391 . S
C2721 C2725 1.376 . S
C2722 C2720 1.394 . S
C2722 C2723 1.369 . S
C2722 C2726 1.531 . S
C2723 C2722 1.369 . S
C2723 C2724 1.410 . S
C2723 C2731 1.503 . S
C2724 C2723 1.410 . S
C2724 C2725 1.392 . S
C2724 C2727 1.511 . S
C2725 C2721 1.376 . S
C2725 C2724 1.392 . S
C2725 H2737 0.929 . S
C2726 C2722 1.531 . S
C2726 H2738 0.960 . S
C2726 H2739 0.962 . S
C2726 H2740 0.960 . S
C2727 C2724 1.511 . S
C2727 H2741 0.961 . S
C2727 H2742 0.961 . S
C2727 H2743 0.961 . S
C2728 C2729 1.370 . S
C2728 C2730 1.363 . S
C2728 H2744 0.931 1_554 S
C2729 C2728 1.370 . S
C2729 C2733 1.408 . S
C2730 C2728 1.363 . S
C2730 C2731 1.370 . S
C2730 C2734 1.524 1_554 S
C2731 C2723 1.503 . S
C2731 C2730 1.370 . S
C2731 C2732 1.403 . S
C2732 C2731 1.403 . S
C2732 C2733 1.404 . S
C2732 C2735 1.539 . S
C2733 C2729 1.408 . S
C2733 C2732 1.404 . S
C2733 H2745 0.930 . S
C2734 C2730 1.524 1_556 S
C2734 H2746 0.956 . S
C2734 H2747 0.961 . S
C2734 H2748 0.961 . S
C2735 C2732 1.539 . S
C2735 H2749 0.958 . S
C2735 H2750 0.961 . S
C2735 H2751 0.960 . S
H2736 C2720 0.931 . S
H2737 C2725 0.929 . S
H2738 C2726 0.960 . S
H2739 C2726 0.962 . S
H2740 C2726 0.960 . S
H2741 C2727 0.961 . S
H2742 C2727 0.961 . S
H2743 C2727 0.961 . S
H2744 C2728 0.931 1_556 S
H2745 C2733 0.930 . S
H2746 C2734 0.956 . S
H2747 C2734 0.961 . S
H2748 C2734 0.961 . S
H2749 C2735 0.958 . S
H2750 C2735 0.961 . S
H2751 C2735 0.960 . S
C2752 C2753 1.391 . S
C2752 C2754 1.394 . S
C2752 H2768 0.931 . S
C2753 C2752 1.391 . S
C2753 C2757 1.376 1_545 S
C2754 C2752 1.394 . S
C2754 C2755 1.369 1_545 S
C2754 C2758 1.531 . S
C2755 C2754 1.369 1_565 S
C2755 C2756 1.410 . S
C2755 C2763 1.503 . S
C2756 C2755 1.410 . S
C2756 C2757 1.392 . S
C2756 C2759 1.511 . S
C2757 C2753 1.376 1_565 S
C2757 C2756 1.392 . S
C2757 H2769 0.929 . S
C2758 C2754 1.531 . S
C2758 H2770 0.960 . S
C2758 H2771 0.962 . S
C2758 H2772 0.960 . S
C2759 C2756 1.511 . S
C2759 H2773 0.961 . S
C2759 H2774 0.961 . S
C2759 H2775 0.961 . S
C2760 C2761 1.370 . S
C2760 C2762 1.363 . S
C2760 H2776 0.931 1_554 S
C2761 C2760 1.370 . S
C2761 C2765 1.408 . S
C2762 C2760 1.363 . S
C2762 C2763 1.370 . S
C2762 C2766 1.524 1_554 S
C2763 C2755 1.503 . S
C2763 C2762 1.370 . S
C2763 C2764 1.403 . S
C2764 C2763 1.403 . S
C2764 C2765 1.404 . S
C2764 C2767 1.539 . S
C2765 C2761 1.408 . S
C2765 C2764 1.404 . S
C2765 H2777 0.930 . S
C2766 C2762 1.524 1_556 S
C2766 H2778 0.956 . S
C2766 H2779 0.961 . S
C2766 H2780 0.961 . S
C2767 C2764 1.539 . S
C2767 H2781 0.958 . S
C2767 H2782 0.961 . S
C2767 H2783 0.960 . S
H2768 C2752 0.931 . S
H2769 C2757 0.929 . S
H2770 C2758 0.960 . S
H2771 C2758 0.962 . S
H2772 C2758 0.960 . S
H2773 C2759 0.961 . S
H2774 C2759 0.961 . S
H2775 C2759 0.961 . S
H2776 C2760 0.931 1_556 S
H2777 C2765 0.930 . S
H2778 C2766 0.956 . S
H2779 C2766 0.961 . S
H2780 C2766 0.961 . S
H2781 C2767 0.958 . S
H2782 C2767 0.961 . S
H2783 C2767 0.960 . S
C1257 C241 1.778 . S
C1249 C66 1.772 . S
C1289 C300 1.099 . S
C1281 C76 1.103 . S
C1313 C93 1.899 . S
C1321 C417 1.884 . S
C1353 C485 1.498 . S
C1345 C54 1.515 . S
C1385 C564 1.520 . S
C1377 C126 1.530 . S
C1417 C689 1.870 . S
C1409 C150 1.882 . S
C1441 C136 1.089 . S
C1449 C749 1.117 . S
C1481 C857 1.819 . S
C1473 C117 1.813 . S
C1505 C141 1.296 . S
C1513 C953 1.282 . S
C1545 C1013 1.315 . S
C1537 C112 1.299 . S
C1569 C124 1.555 . S
C1577 C916 1.561 . S
C1609 C1033 1.253 . S
C1601 C148 1.263 . S
C1633 C88 1.263 . S
C1641 C1101 1.267 . S
C1665 C52 1.631 . S
C1673 C1092 1.634 . S
C1697 C64 1.213 . S
C1705 C1121 1.226 . S
C1729 C78 1.194 . S
C1737 C1129 1.184 . S
C1761 C45 1.748 . S
C1769 C513 1.770 . S
C1793 C177 1.933 . S
C1801 C476 1.936 . S
C1833 C212 1.379 . S
C1825 C189 1.392 . S
C1865 C309 1.631 . S
C1857 C102 1.620 . S
C1889 C57 1.784 1_545 S
C1897 C573 1.788 . S
C1929 C865 1.450 . S
C1921 C138 1.440 . S
C1961 C593 1.858 . S
C1953 C114 1.861 1_545 S
C1993 C777 1.752 . S
C1985 C153 1.741 . S
C2025 C769 1.780 . S
C2017 C174 1.766 . S
C2049 C184 1.087 . S
C2057 C837 1.100 . S
C2081 C105 1.896 . S
C2089 C601 1.882 . S
C2121 C652 1.509 . S
C2113 C162 1.506 . S
C2145 C42 1.514 . S
C2153 C397 1.527 . S
C2185 C505 1.875 . S
C2177 C6 1.878 . S
C2217 C221 1.114 . S
C2209 C16 1.121 . S
C2249 C337 1.821 . S
C2241 C33 1.814 1_455 S
C2273 C21 1.262 . S
C2281 C1041 1.292 . S
C2305 C28 1.303 1_556 S
C2313 C925 1.315 . S
C2337 C40 1.563 . S
C2345 C1004 1.564 . S
C2369 C4 1.244 1_556 S
C2377 C945 1.251 . S
C2409 C1189 1.264 . S
C2401 C100 1.254 . S
C2441 C1180 1.633 . S
C2433 C160 1.605 1_554 S
C2473 C1209 1.225 . S
C2465 C172 1.220 . S
C2497 C186 1.180 . S
C2505 C1217 1.187 . S
C2529 C129 1.744 . S
C2537 C681 1.768 . S
C2569 C661 1.941 . S
C2561 C69 1.936 . S
C2601 C740 1.376 . S
C2593 C81 1.385 . S
C2633 C828 1.629 . S
C2625 C90 1.625 . S
C2657 C165 1.782 . S
C2665 C388 1.789 . S
C2697 C329 1.449 . S
C2689 C18 1.446 . S
C2721 C30 1.860 . S
C2729 C425 1.858 . S
C2761 C249 1.751 . S
C2753 C9 1.741 . S
