# Generated by pormake.
# Topology apo, (3,6)-cn, num edge types: 1
# Building blocks:
#     Node 0, Type 0, BuildingBlock: VETTIZ_charged_linker_0, # of connection points: 3
#     Node 1, Type 0, BuildingBlock: VETTIZ_charged_linker_0, # of connection points: 3
#     Node 2, Type 0, BuildingBlock: VETTIZ_charged_linker_0, # of connection points: 3
#     Node 3, Type 0, BuildingBlock: VETTIZ_charged_linker_0, # of connection points: 3
#     Node 4, Type 0, BuildingBlock: VETTIZ_charged_linker_0, # of connection points: 3
#     Node 5, Type 0, BuildingBlock: VETTIZ_charged_linker_0, # of connection points: 3
#     Node 6, Type 0, BuildingBlock: VETTIZ_charged_linker_0, # of connection points: 3
#     Node 7, Type 0, BuildingBlock: VETTIZ_charged_linker_0, # of connection points: 3
#     Node 8, Type 1, BuildingBlock: KUMJIN_clean_sbu_1, # of connection points: 6
#     Node 9, Type 1, BuildingBlock: KUMJIN_clean_sbu_1, # of connection points: 6
#     Node 10, Type 1, BuildingBlock: KUMJIN_clean_sbu_1, # of connection points: 6
#     Node 11, Type 1, BuildingBlock: KUMJIN_clean_sbu_1, # of connection points: 6
#     Edge 12, Type (0, 1), BuildingBlock: OJICUG_clean_linker_0, # of connection points: 2
#     Edge 13, Type (0, 1), BuildingBlock: OJICUG_clean_linker_0, # of connection points: 2
#     Edge 14, Type (0, 1), BuildingBlock: OJICUG_clean_linker_0, # of connection points: 2
#     Edge 15, Type (0, 1), BuildingBlock: OJICUG_clean_linker_0, # of connection points: 2
#     Edge 16, Type (0, 1), BuildingBlock: OJICUG_clean_linker_0, # of connection points: 2
#     Edge 17, Type (0, 1), BuildingBlock: OJICUG_clean_linker_0, # of connection points: 2
#     Edge 18, Type (0, 1), BuildingBlock: OJICUG_clean_linker_0, # of connection points: 2
#     Edge 19, Type (0, 1), BuildingBlock: OJICUG_clean_linker_0, # of connection points: 2
#     Edge 20, Type (0, 1), BuildingBlock: OJICUG_clean_linker_0, # of connection points: 2
#     Edge 21, Type (0, 1), BuildingBlock: OJICUG_clean_linker_0, # of connection points: 2
#     Edge 22, Type (0, 1), BuildingBlock: OJICUG_clean_linker_0, # of connection points: 2
#     Edge 23, Type (0, 1), BuildingBlock: OJICUG_clean_linker_0, # of connection points: 2
#     Edge 24, Type (0, 1), BuildingBlock: OJICUG_clean_linker_0, # of connection points: 2
#     Edge 25, Type (0, 1), BuildingBlock: OJICUG_clean_linker_0, # of connection points: 2
#     Edge 26, Type (0, 1), BuildingBlock: OJICUG_clean_linker_0, # of connection points: 2
#     Edge 27, Type (0, 1), BuildingBlock: OJICUG_clean_linker_0, # of connection points: 2
#     Edge 28, Type (0, 1), BuildingBlock: OJICUG_clean_linker_0, # of connection points: 2
#     Edge 29, Type (0, 1), BuildingBlock: OJICUG_clean_linker_0, # of connection points: 2
#     Edge 30, Type (0, 1), BuildingBlock: OJICUG_clean_linker_0, # of connection points: 2
#     Edge 31, Type (0, 1), BuildingBlock: OJICUG_clean_linker_0, # of connection points: 2
#     Edge 32, Type (0, 1), BuildingBlock: OJICUG_clean_linker_0, # of connection points: 2
#     Edge 33, Type (0, 1), BuildingBlock: OJICUG_clean_linker_0, # of connection points: 2
#     Edge 34, Type (0, 1), BuildingBlock: OJICUG_clean_linker_0, # of connection points: 2
#     Edge 35, Type (0, 1), BuildingBlock: OJICUG_clean_linker_0, # of connection points: 2
# Relax obj value: 0.009
# Max RMSD: 0.111
# Mean RMSD: 0.086
data_MOF--net-apo--node1-KUMJIN_clean_sbu_1--node2-VETTIZ_charged_linker_0--edge1-OJICUG_clean_linker_0
_symmetry_space_group_name_H-M    P1
_symmetry_Int_Tables_number       1
_symmetry_cell_setting            triclinic
loop_
_symmetry_equiv_pos_as_xyz
'x, y, z'
_cell_length_a     22.720929
_cell_length_b     40.327179
_cell_length_c     51.19214
_cell_angle_alpha  89.98945
_cell_angle_beta   89.90867
_cell_angle_gamma 90.224879
loop_
_atom_site_label
_atom_site_type_symbol
_atom_site_fract_x
_atom_site_fract_y
_atom_site_fract_z
_atom_type_partial_charge
C0 C 0.26405 0.35339 0.50262 0.0
C1 C 0.28182 0.37933 0.51948 0.0
C2 C 0.29738 0.41014 0.50812 0.0
C3 C 0.27813 0.3888 0.46464 0.0
C4 C 0.26159 0.35883 0.47552 0.0
C5 C 0.23937 0.33478 0.45519 0.0
H6 H 0.16443 0.30607 0.32858 0.0
C7 C 0.26964 0.38668 0.43601 0.0
C8 C 0.24597 0.35518 0.43036 0.0
H9 H 0.14738 0.23845 0.3935 0.0
H10 H 0.19257 0.27902 0.42239 0.0
H11 H 0.12977 0.37423 0.3585 0.0
H12 H 0.29161 0.3248 0.34077 0.0
H13 H 0.31078 0.36691 0.34216 0.0
H14 H 0.2586 0.35276 0.31796 0.0
H15 H 0.15981 0.36962 0.32623 0.0
H16 H 0.1798 0.40418 0.34666 0.0
C17 C 0.17414 0.32679 0.4614 0.0
C18 C 0.2801 0.30413 0.45506 0.0
C19 C 0.33721 0.4813 0.3767 0.0
C20 C 0.33841 0.48459 0.34936 0.0
C21 C 0.31268 0.45986 0.33372 0.0
C22 C 0.28677 0.43183 0.34506 0.0
C23 C 0.28736 0.42816 0.37236 0.0
C24 C 0.31201 0.45268 0.38778 0.0
C25 C 0.30975 0.4438 0.41641 0.0
C26 C 0.28149 0.40951 0.41542 0.0
C27 C 0.26806 0.4008 0.38958 0.0
C28 C 0.27006 0.46933 0.43056 0.0
C29 C 0.37364 0.44246 0.42679 0.0
C30 C 0.1699 0.30023 0.3491 0.0
C31 C 0.15152 0.26948 0.35899 0.0
C32 C 0.16096 0.2622 0.38559 0.0
C33 C 0.1869 0.28581 0.40228 0.0
C34 C 0.20411 0.31685 0.39216 0.0
C35 C 0.19652 0.32322 0.36583 0.0
C36 C 0.2212 0.35625 0.35785 0.0
C37 C 0.24218 0.36956 0.38394 0.0
C38 C 0.2318 0.34661 0.4041 0.0
C39 C 0.17036 0.37731 0.34654 0.0
C40 C 0.27297 0.35012 0.33858 0.0
H41 H 0.3084 0.43888 0.47377 0.0
H42 H 0.25206 0.32924 0.51017 0.0
H43 H 0.32681 0.31168 0.45789 0.0
H44 H 0.27936 0.29068 0.43628 0.0
H45 H 0.26824 0.28667 0.47103 0.0
H46 H 0.15058 0.34948 0.46791 0.0
H47 H 0.17053 0.3081 0.47727 0.0
H48 H 0.14937 0.31783 0.44429 0.0
H49 H 0.35715 0.50002 0.38906 0.0
H50 H 0.31315 0.46217 0.31262 0.0
H51 H 0.2679 0.41395 0.33203 0.0
H52 H 0.23634 0.47971 0.41714 0.0
H53 H 0.29634 0.49043 0.43827 0.0
H54 H 0.24436 0.45809 0.44669 0.0
H55 H 0.40247 0.42898 0.41281 0.0
H56 H 0.37756 0.4291 0.44549 0.0
H57 H 0.39198 0.46783 0.42933 0.0
H58 H 0.30944 0.43112 0.52017 0.0
C59 C 0.29606 0.41487 0.48098 0.0
C60 C 0.32647 0.20156 0.85028 0.0
C61 C 0.34575 0.23186 0.86067 0.0
C62 C 0.33551 0.23881 0.88726 0.0
C63 C 0.28763 0.18526 0.89266 0.0
C64 C 0.29699 0.17897 0.86643 0.0
C65 C 0.2705 0.14664 0.85784 0.0
H66 H 0.10503 0.0113 0.88427 0.0
C67 C 0.25425 0.15684 0.90366 0.0
C68 C 0.24339 0.13448 0.88319 0.0
H69 H 0.19048 0.03812 0.81182 0.0
H70 H 0.23149 0.08703 0.83194 0.0
H71 H 0.22001 0.02812 0.91933 0.0
H72 H 0.06448 0.08496 0.90237 0.0
H73 H 0.08046 0.08958 0.9358 0.0
H74 H 0.06315 0.04901 0.92306 0.0
H75 H 0.14979 0.01841 0.93355 0.0
H76 H 0.19897 0.04822 0.94823 0.0
C77 C 0.32105 0.12378 0.8484 0.0
C78 C 0.22316 0.15424 0.83689 0.0
C79 C 0.21321 0.14965 1.00132 0.0
C80 C 0.18228 0.12662 0.017 0.0
C81 C 0.15244 0.10024 1.00449 0.0
C82 C 0.15513 0.09617 0.97731 0.0
C83 C 0.18767 0.11878 0.96216 0.0
C84 C 0.21489 0.14543 0.97412 0.0
C85 C 0.24469 0.16803 0.95466 0.0
C86 C 0.23384 0.14943 0.9293 0.0
C87 C 0.20051 0.12051 0.93383 0.0
C88 C 0.31098 0.16996 0.96135 0.0
C89 C 0.21299 0.20201 0.95511 0.0
C90 C 0.13229 0.028 0.87287 0.0
C91 C 0.14429 0.02133 0.84644 0.0
C92 C 0.18081 0.043 0.8322 0.0
C93 C 0.20441 0.07138 0.84393 0.0
C94 C 0.19187 0.07805 0.8703 0.0
C95 C 0.15725 0.05626 0.88449 0.0
C96 C 0.15242 0.06637 0.91276 0.0
C97 C 0.18815 0.09837 0.91289 0.0
C98 C 0.21043 0.10514 0.88787 0.0
C99 C 0.18131 0.03892 0.92955 0.0
C100 C 0.08676 0.07265 0.91909 0.0
H101 H 0.30083 0.22197 0.92355 0.0
H102 H 0.33293 0.1959 0.82978 0.0
H103 H 0.19902 0.17739 0.84176 0.0
H104 H 0.1887 0.13497 0.83553 0.0
H105 H 0.2435 0.15769 0.81733 0.0
H106 H 0.36289 0.12941 0.8588 0.0
H107 H 0.32941 0.12693 0.82716 0.0
H108 H 0.31255 0.09729 0.8526 0.0
H109 H 0.23678 0.17026 1.00996 0.0
H110 H 0.12663 0.08264 0.01569 0.0
H111 H 0.13177 0.07548 0.96912 0.0
H112 H 0.32871 0.14475 0.96516 0.0
H113 H 0.31845 0.18523 0.9791 0.0
H114 H 0.3378 0.18036 0.94533 0.0
H115 H 0.16624 0.19935 0.9613 0.0
H116 H 0.21074 0.2136 0.93556 0.0
H117 H 0.23463 0.21945 0.96891 0.0
H118 H 0.35008 0.26214 0.89557 0.0
C119 C 0.30694 0.21553 0.90339 0.0
C120 C 0.80834 0.15694 0.51959 0.0
C121 C 0.83694 0.13454 0.50284 0.0
C122 C 0.85912 0.10478 0.51342 0.0
C123 C 0.82699 0.12131 0.5569 0.0
C124 C 0.80418 0.15002 0.54627 0.0
C125 C 0.77593 0.17194 0.56636 0.0
H126 H 0.71542 0.20436 0.69291 0.0
C127 C 0.8172 0.12261 0.58556 0.0
C128 C 0.78768 0.15246 0.59108 0.0
H129 H 0.65749 0.25874 0.62476 0.0
H130 H 0.70998 0.22086 0.5969 0.0
H131 H 0.68302 0.13395 0.66824 0.0
H132 H 0.84345 0.18957 0.67545 0.0
H133 H 0.86444 0.14787 0.67806 0.0
H134 H 0.81479 0.16532 0.70197 0.0
H135 H 0.72065 0.14013 0.69866 0.0
H136 H 0.73759 0.10574 0.67759 0.0
C137 C 0.70919 0.17418 0.56024 0.0
C138 C 0.80854 0.20575 0.56633 0.0
C139 C 0.87958 0.02754 0.64568 0.0
C140 C 0.87866 0.02405 0.67317 0.0
C141 C 0.86151 0.0515 0.68845 0.0
C142 C 0.84235 0.08084 0.67689 0.0
C143 C 0.84058 0.08334 0.64962 0.0
C144 C 0.86084 0.05754 0.63436 0.0
C145 C 0.8603 0.06648 0.60567 0.0
C146 C 0.83285 0.10092 0.6064 0.0
C147 C 0.82096 0.11027 0.63229 0.0
C148 C 0.82089 0.0413 0.59106 0.0
C149 C 0.92475 0.0675 0.59586 0.0
C150 C 0.71335 0.20812 0.67199 0.0
C151 C 0.68189 0.23482 0.66122 0.0
C152 C 0.68192 0.23883 0.6338 0.0
C153 C 0.71196 0.21651 0.61756 0.0
C154 C 0.74195 0.18957 0.6287 0.0
C155 C 0.74193 0.18571 0.65549 0.0
C156 C 0.77264 0.15461 0.66394 0.0
C157 C 0.79121 0.14036 0.63776 0.0
C158 C 0.77386 0.16111 0.61724 0.0
C159 C 0.72664 0.13233 0.67802 0.0
C160 C 0.82644 0.16459 0.6809 0.0
H161 H 0.87222 0.07511 0.54733 0.0
H162 H 0.78917 0.17956 0.51208 0.0
H163 H 0.85695 0.20204 0.56494 0.0
H164 H 0.80159 0.22014 0.58438 0.0
H165 H 0.79488 0.22114 0.54941 0.0
H166 H 0.69326 0.15174 0.5497 0.0
H167 H 0.69934 0.19602 0.54779 0.0
H168 H 0.68178 0.17521 0.5781 0.0
H169 H 0.89356 0.00735 0.63323 0.0
H170 H 0.86299 0.05049 0.70957 0.0
H171 H 0.82926 0.10041 0.68978 0.0
H172 H 0.77918 0.03705 0.60199 0.0
H173 H 0.84343 0.01705 0.58896 0.0
H174 H 0.80781 0.05 0.57149 0.0
H175 H 0.95476 0.07699 0.61133 0.0
H176 H 0.93116 0.08455 0.57923 0.0
H177 H 0.94011 0.04236 0.59026 0.0
H178 H 0.8811 0.087 0.50096 0.0
C179 C 0.85434 0.09806 0.54037 0.0
C180 C 0.82465 0.30289 0.16893 0.0
C181 C 0.84746 0.27344 0.15834 0.0
C182 C 0.84119 0.26793 0.13119 0.0
C183 C 0.78929 0.32015 0.12634 0.0
C184 C 0.79703 0.32586 0.15269 0.0
C185 C 0.77375 0.35887 0.16115 0.0
H186 H 0.60768 0.49287 0.13761 0.0
C187 C 0.75696 0.34885 0.1154 0.0
C188 C 0.74841 0.37166 0.1357 0.0
H189 H 0.7061 0.46761 0.20721 0.0
H190 H 0.74632 0.42048 0.18569 0.0
H191 H 0.7212 0.47856 0.09901 0.0
H192 H 0.5707 0.41785 0.11902 0.0
H193 H 0.58134 0.41793 0.08483 0.0
H194 H 0.56472 0.45614 0.10127 0.0
H195 H 0.64957 0.48654 0.08572 0.0
H196 H 0.69888 0.45696 0.0709 0.0
C197 C 0.82651 0.38032 0.17071 0.0
C198 C 0.72539 0.35261 0.18201 0.0
C199 C 0.68934 0.34701 0.02098 0.0
C200 C 0.65721 0.36916 1.00534 0.0
C201 C 0.63757 0.39916 0.01644 0.0
C202 C 0.64899 0.40662 0.04282 0.0
C203 C 0.68085 0.384 0.05821 0.0
C204 C 0.70073 0.35487 0.0471 0.0
C205 C 0.73518 0.334 0.06596 0.0
C206 C 0.73294 0.35533 0.0903 0.0
C207 C 0.70067 0.38456 0.08581 0.0
C208 C 0.7988 0.33034 0.05542 0.0
C209 C 0.70193 0.30074 0.06965 0.0
C210 C 0.63828 0.4773 0.14812 0.0
C211 C 0.6517 0.48346 0.17464 0.0
C212 C 0.69272 0.46283 0.18727 0.0
C213 C 0.71676 0.43548 0.1746 0.0
C214 C 0.70062 0.42856 0.14876 0.0
C215 C 0.66376 0.44985 0.13552 0.0
C216 C 0.6558 0.43937 0.10738 0.0
C217 C 0.69198 0.40761 0.10653 0.0
C218 C 0.71701 0.40136 0.13106 0.0
C219 C 0.68224 0.46674 0.08965 0.0
C220 C 0.58966 0.43257 0.10264 0.0
H221 H 0.80849 0.28528 0.09479 0.0
H222 H 0.82745 0.30817 0.1896 0.0
H223 H 0.69656 0.33154 0.17612 0.0
H224 H 0.6955 0.37379 0.18477 0.0
H225 H 0.74521 0.34635 0.2012 0.0
H226 H 0.8693 0.37109 0.16306 0.0
H227 H 0.82955 0.38036 0.19237 0.0
H228 H 0.82405 0.40625 0.16362 0.0
H229 H 0.70625 0.32411 0.01292 0.0
H230 H 0.61278 0.41663 1.0048 0.0
H231 H 0.63245 0.42965 0.05026 0.0
H232 H 0.81286 0.35296 0.04459 0.0
H233 H 0.80233 0.30896 0.04183 0.0
H234 H 0.83163 0.32757 0.07117 0.0
H235 H 0.65372 0.30502 0.07132 0.0
H236 H 0.71428 0.28757 0.08769 0.0
H237 H 0.70937 0.28399 0.05275 0.0
H238 H 0.85927 0.24596 0.12213 0.0
C239 C 0.81203 0.29099 0.11521 0.0
C240 C 0.66808 0.53274 0.66914 0.0
C241 C 0.63198 0.508 0.65842 0.0
C242 C 0.61445 0.51059 0.63209 0.0
C243 C 0.66897 0.56226 0.62773 0.0
C244 C 0.68529 0.55966 0.65367 0.0
C245 C 0.71979 0.58918 0.66291 0.0
H246 H 0.8362 0.74063 0.63977 0.0
C247 C 0.69322 0.59389 0.61749 0.0
C248 C 0.72237 0.60983 0.6382 0.0
H249 H 0.83617 0.68462 0.71176 0.0
H250 H 0.78518 0.63962 0.69058 0.0
H251 H 0.87276 0.68166 0.60439 0.0
H252 H 0.70105 0.72078 0.62109 0.0
H253 H 0.70702 0.71435 0.58712 0.0
H254 H 0.75674 0.7427 0.60301 0.0
H255 H 0.84469 0.71702 0.5873 0.0
H256 H 0.83103 0.67524 0.57603 0.0
C257 C 0.78165 0.57708 0.67129 0.0
C258 C 0.68395 0.60643 0.68486 0.0
C259 C 0.67031 0.62476 0.52131 0.0
C260 C 0.69048 0.65198 0.5064 0.0
C261 C 0.72224 0.67739 0.51919 0.0
C262 C 0.73339 0.67597 0.54605 0.0
C263 C 0.71316 0.64872 0.56058 0.0
C264 C 0.68234 0.6236 0.54824 0.0
C265 C 0.66526 0.59631 0.56698 0.0
C266 C 0.6921 0.60894 0.59233 0.0
C267 C 0.7196 0.63985 0.58845 0.0
C268 C 0.69446 0.56379 0.55767 0.0
C269 C 0.59723 0.59466 0.56844 0.0
C270 C 0.82457 0.71873 0.65093 0.0
C271 C 0.83989 0.71612 0.67747 0.0
C272 C 0.82512 0.68704 0.69126 0.0
C273 C 0.79528 0.661 0.67893 0.0
C274 C 0.78009 0.66389 0.65242 0.0
C275 C 0.79515 0.69225 0.63878 0.0
C276 C 0.77743 0.69019 0.61046 0.0
C277 C 0.74761 0.65635 0.60964 0.0
C278 C 0.74922 0.64124 0.6343 0.0
C279 C 0.83407 0.69129 0.5935 0.0
C280 C 0.73347 0.71854 0.60488 0.0
H281 H 0.61845 0.53814 0.59671 0.0
H282 H 0.681 0.53178 0.6895 0.0
H283 H 0.63578 0.60318 0.68182 0.0
H284 H 0.69047 0.63358 0.68533 0.0
H285 H 0.69473 0.59598 0.70434 0.0
H286 H 0.79718 0.55675 0.65833 0.0
H287 H 0.78103 0.5674 0.6916 0.0
H288 H 0.81581 0.59654 0.66966 0.0
H289 H 0.64546 0.60487 0.51231 0.0
H290 H 0.7397 0.69828 0.50833 0.0
H291 H 0.7578 0.69612 0.55443 0.0
H292 H 0.74085 0.56845 0.55166 0.0
H293 H 0.67074 0.55325 0.5406 0.0
H294 H 0.6967 0.54472 0.57307 0.0
H295 H 0.57769 0.61977 0.56629 0.0
H296 H 0.58102 0.58559 0.5875 0.0
H297 H 0.579 0.57878 0.55266 0.0
H298 H 0.58633 0.49178 0.62351 0.0
C299 C 0.6331 0.53748 0.61662 0.0
C300 C 0.65391 0.80268 0.16939 0.0
C301 C 0.63548 0.77212 0.15915 0.0
C302 C 0.64538 0.76515 0.13256 0.0
C303 C 0.69199 0.819 0.12683 0.0
C304 C 0.6827 0.82545 0.15305 0.0
C305 C 0.70903 0.85801 0.16137 0.0
H306 H 0.87791 0.99202 0.13393 0.0
C307 C 0.725 0.84742 0.11558 0.0
C308 C 0.73576 0.87008 0.13586 0.0
H309 H 0.79193 0.96693 0.20661 0.0
H310 H 0.74813 0.91855 0.18668 0.0
H311 H 0.91449 0.9173 0.11562 0.0
H312 H 0.76186 0.97691 0.09924 0.0
H313 H 0.77962 0.95542 0.07052 0.0
H314 H 0.83162 0.98476 0.08391 0.0
H315 H 0.91746 0.95413 0.09591 0.0
H316 H 0.89857 0.91446 0.08201 0.0
C317 C 0.75667 0.85076 0.18224 0.0
C318 C 0.65848 0.88081 0.17083 0.0
C319 C 0.76855 0.85186 0.01802 0.0
C320 C 0.79924 0.87459 1.00198 0.0
C321 C 0.8272 0.90197 0.01401 0.0
C322 C 0.82355 0.90701 0.04111 0.0
C323 C 0.79179 0.88443 0.05665 0.0
C324 C 0.7657 0.85713 0.04509 0.0
C325 C 0.73573 0.835 0.06481 0.0
C326 C 0.74553 0.85441 0.08988 0.0
C327 C 0.77852 0.88336 0.08501 0.0
C328 C 0.768 0.80118 0.06517 0.0
C329 C 0.66966 0.83257 0.05777 0.0
C330 C 0.84981 0.97586 0.14542 0.0
C331 C 0.83866 0.98279 0.17189 0.0
C332 C 0.80103 0.96182 0.18622 0.0
C333 C 0.77587 0.93373 0.17461 0.0
C334 C 0.78802 0.92663 0.14827 0.0
C335 C 0.82333 0.94791 0.13391 0.0
C336 C 0.82751 0.93751 0.10567 0.0
C337 C 0.79095 0.90579 0.10578 0.0
C338 C 0.76867 0.89943 0.1309 0.0
C339 C 0.89289 0.93063 0.09921 0.0
C340 C 0.79917 0.96501 0.08876 0.0
H341 H 0.67916 0.78196 0.09614 0.0
H342 H 0.6476 0.80831 0.1899 0.0
H343 H 0.61668 0.87516 0.1604 0.0
H344 H 0.66698 0.90731 0.16666 0.0
H345 H 0.65011 0.87761 0.19206 0.0
H346 H 0.78155 0.82791 0.17722 0.0
H347 H 0.73648 0.84694 0.20179 0.0
H348 H 0.79044 0.87038 0.18371 0.0
H349 H 0.74617 0.83061 1.00972 0.0
H350 H 0.85246 0.9195 1.00251 0.0
H351 H 0.84574 0.92832 0.04894 0.0
H352 H 0.81486 0.80389 0.05915 0.0
H353 H 0.74699 0.7832 0.05161 0.0
H354 H 0.77 0.79019 0.08494 0.0
H355 H 0.6519 0.85752 0.053 0.0
H356 H 0.64231 0.82307 0.07396 0.0
H357 H 0.66283 0.81635 0.04049 0.0
H358 H 0.63156 0.74158 0.12442 0.0
C359 C 0.6731 0.78855 0.11627 0.0
C360 C 0.16897 0.97064 0.35292 0.0
C361 C 0.12676 0.99317 0.36203 0.0
C362 C 0.10659 0.99021 0.38807 0.0
C363 C 0.16653 0.94105 0.3942 0.0
C364 C 0.18702 0.94464 0.36893 0.0
C365 C 0.22522 0.91645 0.36044 0.0
H366 H 0.32858 0.76273 0.38054 0.0
C367 C 0.1906 0.90963 0.40463 0.0
C368 C 0.22413 0.895 0.38468 0.0
H369 H 0.34927 0.82562 0.31257 0.0
H370 H 0.30003 0.86988 0.33469 0.0
H371 H 0.36476 0.82056 0.42122 0.0
H372 H 0.19607 0.78379 0.39605 0.0
H373 H 0.19489 0.78808 0.43032 0.0
H374 H 0.24646 0.76004 0.41546 0.0
H375 H 0.33376 0.78309 0.43428 0.0
H376 H 0.31762 0.82315 0.44831 0.0
C377 C 0.28773 0.9304 0.35487 0.0
C378 C 0.19507 0.89928 0.33675 0.0
C379 C 0.15096 0.87446 0.49874 0.0
C380 C 0.16669 0.8461 0.51314 0.0
C381 C 0.19818 0.82061 0.50048 0.0
C382 C 0.21426 0.82331 0.47417 0.0
C383 C 0.19874 0.8518 0.4601 0.0
C384 C 0.16717 0.87671 0.47227 0.0
C385 C 0.1533 0.90471 0.45378 0.0
C386 C 0.1845 0.89324 0.42909 0.0
C387 C 0.2107 0.86207 0.4329 0.0
C388 C 0.18064 0.937 0.46473 0.0
C389 C 0.08565 0.90616 0.45016 0.0
C390 C 0.32279 0.78613 0.37052 0.0
C391 C 0.34157 0.79027 0.34442 0.0
C392 C 0.33364 0.82129 0.33228 0.0
C393 C 0.30529 0.84715 0.34527 0.0
C394 C 0.28432 0.84218 0.37078 0.0
C395 C 0.29451 0.81246 0.38332 0.0
C396 C 0.27122 0.81266 0.41096 0.0
C397 C 0.24303 0.84684 0.41232 0.0
C398 C 0.25055 0.86366 0.3886 0.0
C399 C 0.3242 0.80948 0.42983 0.0
C400 C 0.2249 0.7846 0.41359 0.0
H401 H 0.10904 0.96305 0.4237 0.0
H402 H 0.18652 0.9724 0.33329 0.0
H403 H 0.14631 0.90147 0.33785 0.0
H404 H 0.20285 0.8723 0.33594 0.0
H405 H 0.2094 0.91062 0.31801 0.0
H406 H 0.29841 0.95134 0.36822 0.0
H407 H 0.2914 0.93979 0.33453 0.0
H408 H 0.3228 0.91201 0.35839 0.0
H409 H 0.12632 0.89432 0.50781 0.0
H410 H 0.21168 0.79873 0.51116 0.0
H411 H 0.23844 0.80313 0.46582 0.0
H412 H 0.22667 0.93259 0.47122 0.0
H413 H 0.15522 0.94611 0.48182 0.0
H414 H 0.18309 0.95704 0.4501 0.0
H415 H 0.06523 0.8812 0.45248 0.0
H416 H 0.07283 0.91415 0.43033 0.0
H417 H 0.06503 0.92285 0.46478 0.0
H418 H 0.07388 0.00711 0.39568 0.0
C419 C 0.12653 0.96436 0.40424 0.0
C420 C 0.21546 0.70932 0.84885 0.0
C421 C 0.18395 0.73594 0.85971 0.0
C422 C 0.18362 0.73971 0.88716 0.0
C423 C 0.24282 0.6901 0.89208 0.0
C424 C 0.24331 0.6866 0.86526 0.0
C425 C 0.2734 0.65543 0.85659 0.0
H426 H 0.39144 0.50711 0.88586 0.0
C427 C 0.27363 0.66115 0.90337 0.0
C428 C 0.29083 0.64059 0.88267 0.0
H429 H 0.36261 0.55168 0.80995 0.0
H430 H 0.32861 0.60128 0.83022 0.0
H431 H 0.45209 0.57577 0.90918 0.0
H432 H 0.27608 0.53587 0.91633 0.0
H433 H 0.30165 0.54879 0.94727 0.0
H434 H 0.33925 0.51599 0.93034 0.0
H435 H 0.43609 0.5406 0.92952 0.0
H436 H 0.42737 0.5825 0.94125 0.0
C437 C 0.32794 0.66529 0.83998 0.0
C438 C 0.22724 0.63374 0.84209 0.0
C439 C 0.30643 0.65445 1.00121 0.0
C440 C 0.3326 0.6308 0.01771 0.0
C441 C 0.35355 0.60106 1.00652 0.0
C442 C 0.34928 0.59529 0.97949 0.0
C443 C 0.32379 0.61948 0.96333 0.0
C444 C 0.30234 0.64831 0.97436 0.0
C445 C 0.27532 0.67103 0.95446 0.0
C446 C 0.28652 0.65186 0.92949 0.0
C447 C 0.31473 0.62154 0.93469 0.0
C448 C 0.30928 0.70438 0.95487 0.0
C449 C 0.20864 0.67411 0.96055 0.0
C450 C 0.37786 0.52758 0.87362 0.0
C451 C 0.3777 0.52466 0.8461 0.0
C452 C 0.36079 0.55236 0.83108 0.0
C453 C 0.34147 0.58149 0.84292 0.0
C454 C 0.33922 0.5835 0.87023 0.0
C455 C 0.35888 0.55734 0.88523 0.0
C456 C 0.35726 0.56556 0.91404 0.0
C457 C 0.33038 0.60015 0.91365 0.0
C458 C 0.31948 0.61012 0.88785 0.0
C459 C 0.42133 0.56597 0.92428 0.0
C460 C 0.31675 0.5402 0.92794 0.0
H461 H 0.21092 0.72121 0.92402 0.0
H462 H 0.21796 0.70578 0.82792 0.0
H463 H 0.18316 0.63593 0.85143 0.0
H464 H 0.23703 0.607 0.84266 0.0
H465 H 0.22271 0.64159 0.82139 0.0
H466 H 0.34564 0.68993 0.8459 0.0
H467 H 0.31682 0.66674 0.81889 0.0
H468 H 0.36531 0.6481 0.84264 0.0
H469 H 0.29037 0.67775 1.00887 0.0
H470 H 0.373 0.58207 0.01868 0.0
H471 H 0.36589 0.5722 0.9722 0.0
H472 H 0.35755 0.69998 0.95574 0.0
H473 H 0.29686 0.71938 0.97221 0.0
H474 H 0.30206 0.71945 0.93719 0.0
H475 H 0.19162 0.65181 0.97095 0.0
H476 H 0.18151 0.67568 0.94267 0.0
H477 H 0.19958 0.69597 0.97311 0.0
H478 H 0.15927 0.75964 0.89626 0.0
C479 C 0.21312 0.71709 0.90334 0.0
Eu480 Eu 0.06594 0.12837 0.23699 0.0
C481 C 0.79388 0.11554 0.2604 0.0
N482 N 0.82766 0.14345 0.25988 0.0
C483 C 0.75262 0.17248 0.23646 0.0
C484 C 0.73796 0.11502 0.24848 0.0
C485 C 0.80783 0.17183 0.24844 0.0
C486 C 0.71755 0.14395 0.23643 0.0
C487 C 0.78275 0.05745 0.2721 0.0
C488 C 0.81628 0.08697 0.27201 0.0
C489 C 0.72694 0.05695 0.26035 0.0
C490 C 0.70462 0.08563 0.24859 0.0
Eu491 Eu 0.91946 0.13989 0.28089 0.0
N492 N 0.87132 0.08781 0.28256 0.0
C493 C 0.80636 0.02922 0.28394 0.0
C494 C 0.89322 0.0608 0.29522 0.0
C495 C 0.86157 0.03101 0.29577 0.0
H496 H 0.83412 0.19417 0.24896 0.0
H497 H 0.87951 0.00955 0.30559 0.0
H498 H 0.15417 0.07257 0.26511 0.0
H499 H 0.10303 0.26021 0.21673 0.0
H500 H 0.93428 0.0621 0.3055 0.0
H501 H 0.78198 0.00608 0.2844 0.0
H502 H 0.0507 0.20689 0.2141 0.0
H503 H 0.73704 0.19501 0.22734 0.0
H504 H 0.70071 0.03445 0.26019 0.0
H505 H 0.66162 0.08476 0.23949 0.0
H506 H 0.25089 0.07122 0.2872 0.0
H507 H 0.67485 0.14451 0.22705 0.0
H508 H 0.1987 0.26376 0.23956 0.0
N509 N 0.15862 0.12417 0.2571 0.0
C510 C 0.19057 0.15269 0.25876 0.0
C511 C 0.23437 0.09428 0.27933 0.0
C512 C 0.246 0.15304 0.27108 0.0
C513 C 0.17956 0.09514 0.26698 0.0
C514 C 0.2677 0.12336 0.28144 0.0
N515 N 0.1128 0.1809 0.23723 0.0
C516 C 0.09078 0.20826 0.22511 0.0
C517 C 0.19937 0.21171 0.24996 0.0
C518 C 0.16717 0.18181 0.24847 0.0
C519 C 0.1753 0.24031 0.23885 0.0
C520 C 0.12113 0.23846 0.22609 0.0
H521 H 0.31011 0.12262 0.29107 0.0
H522 H 0.32039 0.18365 0.28227 0.0
H523 H 0.27977 0.23491 0.26369 0.0
O524 O 0.06669 0.13053 0.19439 0.0
O525 O 0.0747 0.15461 0.27629 0.0
O526 O 0.98675 0.18139 0.28066 0.0
O527 O 0.13023 0.09998 0.21427 0.0
O528 O 0.9879 0.15551 0.21921 0.0
O529 O 0.94342 0.18206 0.25383 0.0
O530 O 0.90862 0.13705 0.32378 0.0
O531 O 0.91127 0.11138 0.24232 0.0
O532 O 0.00092 0.08594 0.23812 0.0
O533 O 0.85752 0.17233 0.30068 0.0
O534 O 0.99673 0.11241 0.29904 0.0
O535 O 0.04396 0.08624 0.26462 0.0
C536 C 0.04214 0.17768 0.28702 0.0
C537 C 0.15936 0.12569 0.17444 0.0
C538 C 0.19355 0.13787 0.13013 0.0
C539 C 0.24068 0.15612 0.14064 0.0
C540 C 0.20725 0.14365 0.18449 0.0
C541 C 0.24763 0.15874 0.16766 0.0
C542 C 0.15306 0.12252 0.1472 0.0
C543 C 0.95273 0.17834 0.22869 0.0
C544 C 0.11347 0.11225 0.19194 0.0
C545 C 0.27776 0.18289 0.27282 0.0
C546 C 0.25456 0.21211 0.26228 0.0
C547 C 0.94503 0.08832 0.23205 0.0
C548 C 0.83898 0.17289 0.34737 0.0
C549 C 0.82422 0.17378 0.39472 0.0
C550 C 0.78341 0.19958 0.3916 0.0
C551 C 0.79773 0.1986 0.34488 0.0
C552 C 0.85164 0.16019 0.37244 0.0
C553 C 0.77014 0.21174 0.36685 0.0
C554 C 0.0326 0.08964 0.28976 0.0
C555 C 0.86894 0.16034 0.32369 0.0
H556 H 0.27255 0.16802 0.12793 0.0
H557 H 0.21324 0.1463 0.2053 0.0
H558 H 0.28428 0.17269 0.17558 0.0
H559 H 0.11591 0.10889 0.13929 0.0
H560 H 0.7614 0.21023 0.40839 0.0
H561 H 0.78691 0.20879 0.32591 0.0
H562 H 0.88345 0.14044 0.37471 0.0
H563 H 0.73852 0.23156 0.3647 0.0
Eu564 Eu 0.42763 0.36414 0.73505 0.0
C565 C 0.70453 0.37775 0.76162 0.0
N566 N 0.66815 0.35094 0.76261 0.0
C567 C 0.74284 0.31688 0.74341 0.0
C568 C 0.76168 0.37513 0.75103 0.0
C569 C 0.68671 0.32063 0.75418 0.0
C570 C 0.78046 0.34426 0.74174 0.0
C571 C 0.72071 0.43646 0.76959 0.0
C572 C 0.68425 0.40809 0.77085 0.0
C573 C 0.77774 0.43385 0.7592 0.0
C574 C 0.79814 0.4033 0.74993 0.0
Eu575 Eu 0.57445 0.35978 0.78122 0.0
N576 N 0.62804 0.41018 0.77999 0.0
C577 C 0.69844 0.46675 0.77844 0.0
C578 C 0.60652 0.43955 0.789 0.0
C579 C 0.64117 0.46826 0.78824 0.0
H580 H 0.65866 0.29914 0.75636 0.0
H581 H 0.62367 0.49154 0.79526 0.0
H582 H 0.31802 0.39928 0.76809 0.0
H583 H 0.4433 0.23683 0.69722 0.0
H584 H 0.56283 0.44111 0.79684 0.0
H585 H 0.72505 0.48909 0.77777 0.0
H586 H 0.46585 0.29631 0.69853 0.0
H587 H 0.75723 0.29281 0.73662 0.0
H588 H 0.8063 0.45539 0.75806 0.0
H589 H 0.84216 0.40174 0.74186 0.0
H590 H 0.22705 0.38249 0.79143 0.0
H591 H 0.824 0.34127 0.73343 0.0
H592 H 0.36267 0.21406 0.7244 0.0
N593 N 0.33826 0.35038 0.75592 0.0
C594 C 0.32194 0.31792 0.75558 0.0
C595 C 0.25339 0.36409 0.78146 0.0
C596 C 0.27096 0.30715 0.76888 0.0
C597 C 0.30465 0.37357 0.76824 0.0
C598 C 0.23667 0.33071 0.78194 0.0
N599 N 0.40597 0.30672 0.72953 0.0
C600 C 0.43389 0.28655 0.71206 0.0
C601 C 0.34079 0.26166 0.74131 0.0
C602 C 0.35725 0.29542 0.74235 0.0
C603 C 0.37391 0.24013 0.72578 0.0
C604 C 0.41971 0.25284 0.71056 0.0
H605 H 0.19718 0.32341 0.79239 0.0
H606 H 0.21732 0.26453 0.77912 0.0
H607 H 0.278 0.22475 0.75471 0.0
O608 O 0.41487 0.3646 0.69264 0.0
O609 O 0.41933 0.34561 0.77689 0.0
O610 O 0.50652 0.31881 0.77956 0.0
O611 O 0.35867 0.39419 0.71711 0.0
O612 O 0.51302 0.34369 0.7182 0.0
O613 O 0.55108 0.31773 0.75405 0.0
O614 O 0.57601 0.36348 0.8247 0.0
O615 O 0.58333 0.38976 0.74346 0.0
O616 O 0.48926 0.40819 0.73541 0.0
O617 O 0.63343 0.32924 0.8037 0.0
O618 O 0.4994 0.39159 0.79701 0.0
O619 O 0.43732 0.40789 0.76277 0.0
C620 C 0.45287 0.32342 0.78797 0.0
C621 C 0.31813 0.37396 0.67725 0.0
C622 C 0.27442 0.36741 0.6336 0.0
C623 C 0.22047 0.35931 0.64575 0.0
C624 C 0.26419 0.36504 0.68865 0.0
C625 C 0.21577 0.35779 0.67294 0.0
C626 C 0.32327 0.37458 0.6498 0.0
C627 C 0.54942 0.32231 0.72873 0.0
C628 C 0.36902 0.38372 0.69353 0.0
C629 C 0.25605 0.27334 0.76883 0.0
C630 C 0.29081 0.25066 0.75505 0.0
C631 C 0.54595 0.40856 0.73058 0.0
C632 C 0.64293 0.32773 0.85056 0.0
C633 C 0.65477 0.3272 0.8981 0.0
C634 C 0.69207 0.29962 0.89569 0.0
C635 C 0.68049 0.30013 0.84892 0.0
C636 C 0.6305 0.34151 0.87534 0.0
C637 C 0.70486 0.28631 0.8713 0.0
C638 C 0.45771 0.41057 0.78697 0.0
C639 C 0.61666 0.34075 0.82616 0.0
H640 H 0.18119 0.35466 0.63439 0.0
H641 H 0.25918 0.36404 0.70968 0.0
H642 H 0.17403 0.3514 0.68188 0.0
H643 H 0.36558 0.38064 0.64125 0.0
H644 H 0.71195 0.28848 0.91279 0.0
H645 H 0.69094 0.28892 0.83026 0.0
H646 H 0.60158 0.36271 0.87698 0.0
H647 H 0.73371 0.2651 0.86973 0.0
Eu648 Eu 0.07768 0.86078 0.73845 0.0
C649 C 0.82913 0.81644 0.76569 0.0
N650 N 0.84417 0.84905 0.76427 0.0
C651 C 0.75927 0.86028 0.73809 0.0
C652 C 0.77876 0.80433 0.75272 0.0
C653 C 0.80992 0.87111 0.75107 0.0
C654 C 0.74381 0.82671 0.73877 0.0
C655 C 0.84961 0.76129 0.78207 0.0
C656 C 0.86493 0.79512 0.77983 0.0
C657 C 0.80045 0.74892 0.76855 0.0
C658 C 0.76515 0.77037 0.7539 0.0
Eu659 Eu 0.93249 0.86494 0.78496 0.0
N660 N 0.91292 0.80769 0.79241 0.0
C661 C 0.88292 0.74111 0.79858 0.0
C662 C 0.94063 0.789 0.81089 0.0
C663 C 0.92759 0.75527 0.81361 0.0
H664 H 0.82226 0.89697 0.75037 0.0
H665 H 0.95116 0.74038 0.82771 0.0
H666 H 0.16495 0.80284 0.76531 0.0
H667 H 0.11989 0.99272 0.72106 0.0
H668 H 0.97168 0.80002 0.82422 0.0
H669 H 0.87254 0.71503 0.80089 0.0
H670 H 0.06236 0.94109 0.72034 0.0
H671 H 0.73242 0.87776 0.72744 0.0
H672 H 0.7886 0.72291 0.76976 0.0
H673 H 0.72702 0.76053 0.7438 0.0
H674 H 0.26303 0.79929 0.78572 0.0
H675 H 0.7048 0.81835 0.72852 0.0
H676 H 0.22055 0.99299 0.73933 0.0
N677 N 0.17133 0.85454 0.75778 0.0
C678 C 0.20615 0.88203 0.75816 0.0
C679 C 0.24742 0.82276 0.77824 0.0
C680 C 0.26302 0.88097 0.76916 0.0
C681 C 0.19147 0.82497 0.76709 0.0
C682 C 0.28329 0.85091 0.77938 0.0
N683 N 0.1285 0.91216 0.73849 0.0
C684 C 0.10568 0.94071 0.72854 0.0
C685 C 0.2191 0.94065 0.74877 0.0
C686 C 0.18444 0.91155 0.748 0.0
C687 C 0.19538 0.97012 0.73903 0.0
C688 C 0.1385 0.9701 0.7288 0.0
H689 H 0.32668 0.84911 0.78801 0.0
H690 H 0.34144 0.9095 0.77814 0.0
H691 H 0.30296 0.96172 0.76038 0.0
O692 O 0.08075 0.86274 0.69481 0.0
O693 O 0.08453 0.89182 0.77564 0.0
O694 O 0.99046 0.91056 0.78407 0.0
O695 O 0.14011 0.83118 0.71718 0.0
O696 O 0.00072 0.89086 0.7222 0.0
O697 O 0.93976 0.90813 0.75662 0.0
O698 O 0.92568 0.87004 0.82735 0.0
O699 O 0.92605 0.84469 0.7435 0.0
O700 O 0.0135 0.81794 0.7403 0.0
O701 O 0.85727 0.89002 0.80313 0.0
O702 O 0.01865 0.84556 0.80163 0.0
O703 O 0.057 0.81884 0.76616 0.0
C704 C 0.0477 0.91211 0.78741 0.0
C705 C 0.15297 0.82809 0.67059 0.0
C706 C 0.16471 0.82337 0.62323 0.0
C707 C 0.20829 0.79926 0.62712 0.0
C708 C 0.19709 0.80398 0.67375 0.0
C709 C 0.22447 0.78979 0.65219 0.0
C710 C 0.13725 0.83812 0.64509 0.0
C711 C 0.95923 0.91012 0.7322 0.0
C712 C 0.12362 0.84125 0.69429 0.0
C713 C 0.29769 0.90986 0.76975 0.0
C714 C 0.27581 0.93959 0.7596 0.0
C715 C 0.9582 0.82087 0.73374 0.0
C716 C 0.83004 0.86783 0.84456 0.0
C717 C 0.79597 0.85635 0.8891 0.0
C718 C 0.75399 0.83418 0.87889 0.0
C719 C 0.78757 0.84567 0.83488 0.0
C720 C 0.8337 0.87334 0.87171 0.0
C721 C 0.7497 0.82907 0.85198 0.0
C722 C 0.05457 0.82369 0.79143 0.0
C723 C 0.87368 0.88326 0.82688 0.0
H724 H 0.23027 0.78786 0.61061 0.0
H725 H 0.21042 0.79574 0.69299 0.0
H726 H 0.25823 0.77125 0.65493 0.0
H727 H 0.10342 0.85663 0.64223 0.0
H728 H 0.7241 0.82097 0.89175 0.0
H729 H 0.78402 0.84086 0.81416 0.0
H730 H 0.86701 0.89004 0.87932 0.0
H731 H 0.71717 0.81196 0.84435 0.0
Eu732 Eu 0.41896 0.62915 0.23982 0.0
C733 C 0.6936 0.65097 0.26125 0.0
N734 N 0.66056 0.6238 0.26721 0.0
C735 C 0.73784 0.58803 0.25264 0.0
C736 C 0.75036 0.64758 0.25045 0.0
C737 C 0.68181 0.59261 0.26334 0.0
C738 C 0.77223 0.61562 0.2461 0.0
C739 C 0.70357 0.71095 0.25979 0.0
C740 C 0.67042 0.68233 0.26582 0.0
C741 C 0.76004 0.70764 0.24893 0.0
C742 C 0.78335 0.67606 0.24427 0.0
Eu743 Eu 0.56578 0.63407 0.28393 0.0
N744 N 0.61495 0.6848 0.27575 0.0
C745 C 0.67893 0.74206 0.26485 0.0
C746 C 0.5916 0.715 0.28163 0.0
C747 C 0.62293 0.74406 0.27602 0.0
H748 H 0.65571 0.57124 0.26877 0.0
H749 H 0.60392 0.768 0.28038 0.0
H750 H 0.31629 0.67569 0.26858 0.0
H751 H 0.42447 0.49451 0.22441 0.0
H752 H 0.54892 0.71687 0.29062 0.0
H753 H 0.70296 0.76464 0.26046 0.0
H754 H 0.45417 0.55234 0.21696 0.0
H755 H 0.75453 0.56324 0.24951 0.0
H756 H 0.78608 0.72936 0.24409 0.0
H757 H 0.827 0.67393 0.23589 0.0
H758 H 0.22448 0.668 0.29392 0.0
H759 H 0.81563 0.61198 0.2378 0.0
H760 H 0.33823 0.48195 0.25229 0.0
N761 N 0.32964 0.62417 0.26291 0.0
C762 C 0.30868 0.59289 0.26661 0.0
C763 C 0.24786 0.64667 0.28644 0.0
C764 C 0.25667 0.5873 0.28104 0.0
C765 C 0.29994 0.65098 0.27224 0.0
C766 C 0.22626 0.61469 0.29098 0.0
N767 N 0.39134 0.57246 0.24325 0.0
C768 C 0.41932 0.54729 0.23057 0.0
C769 C 0.32041 0.53356 0.26068 0.0
C770 C 0.34062 0.56632 0.2567 0.0
C771 C 0.35222 0.50745 0.24964 0.0
C772 C 0.40122 0.51441 0.23409 0.0
H773 H 0.18612 0.61143 0.30216 0.0
H774 H 0.1975 0.5499 0.2966 0.0
H775 H 0.25313 0.50289 0.27871 0.0
O776 O 0.40293 0.61644 0.19891 0.0
O777 O 0.41784 0.61382 0.28284 0.0
O778 O 0.50707 0.58904 0.2869 0.0
O779 O 0.34818 0.65281 0.21786 0.0
O780 O 0.50397 0.60689 0.22394 0.0
O781 O 0.54909 0.58727 0.26094 0.0
O782 O 0.5567 0.64477 0.32559 0.0
O783 O 0.57021 0.65791 0.24356 0.0
O784 O 0.47607 0.67445 0.23266 0.0
O785 O 0.62927 0.61486 0.3122 0.0
O786 O 0.48755 0.66525 0.29676 0.0
O787 O 0.42869 0.67806 0.261 0.0
C788 C 0.45147 0.59111 0.29333 0.0
C789 C 0.36965 0.66064 0.17293 0.0
C790 C 0.36707 0.66862 0.12569 0.0
C791 C 0.38535 0.70161 0.1291 0.0
C792 C 0.38853 0.69365 0.17595 0.0
C793 C 0.39631 0.71396 0.15412 0.0
C794 C 0.35942 0.64812 0.14767 0.0
C795 C 0.5421 0.58729 0.23547 0.0
C796 C 0.36238 0.63878 0.19583 0.0
C797 C 0.23714 0.55468 0.2854 0.0
C798 C 0.26894 0.5279 0.27528 0.0
C799 C 0.5335 0.67619 0.22997 0.0
C800 C 0.6449 0.64836 0.34954 0.0
C801 C 0.67685 0.66305 0.39365 0.0
C802 C 0.71619 0.68633 0.38285 0.0
C803 C 0.68483 0.67155 0.33925 0.0
C804 C 0.64141 0.6439 0.37679 0.0
C805 C 0.72029 0.69037 0.35584 0.0
C806 C 0.44688 0.68325 0.28514 0.0
C807 C 0.60523 0.62976 0.33209 0.0
H808 H 0.39149 0.71771 0.11236 0.0
H809 H 0.39734 0.70372 0.19516 0.0
H810 H 0.41089 0.73935 0.1566 0.0
H811 H 0.34536 0.62261 0.14511 0.0
H812 H 0.74429 0.70119 0.39534 0.0
H813 H 0.68848 0.67523 0.31843 0.0
H814 H 0.61037 0.62614 0.38486 0.0
H815 H 0.75093 0.70825 0.34773 0.0
C816 C 0.09328 0.01004 0.31728 0.0
C817 C 0.10204 0.01821 0.34376 0.0
H818 H 0.06531 0.02623 0.27951 0.0
C819 C 0.08719 0.05024 0.35231 0.0
H820 H 0.10246 0.98536 0.31005 0.0
C821 C 0.06455 0.0735 0.33475 0.0
C822 C 0.057 0.06531 0.30827 0.0
H823 H 0.09381 0.05751 0.37245 0.0
H824 H 0.05368 0.09805 0.34183 0.0
C825 C 0.07164 0.0334 0.29972 0.0
C826 C 0.44084 0.47336 0.84202 0.0
C827 C 0.39507 0.49341 0.83254 0.0
H828 H 0.49595 0.43123 0.83541 0.0
C829 C 0.36742 0.48427 0.809 0.0
H830 H 0.46334 0.47957 0.86 0.0
C831 C 0.3873 0.45727 0.7945 0.0
C832 C 0.43442 0.43793 0.80342 0.0
H833 H 0.33068 0.49832 0.80144 0.0
H834 H 0.36599 0.45194 0.77607 0.0
C835 C 0.45991 0.44575 0.82774 0.0
C836 C 0.65004 0.46229 0.69052 0.0
C837 C 0.61048 0.48069 0.6753 0.0
H838 H 0.66105 0.4243 0.71917 0.0
C839 C 0.54996 0.4744 0.67764 0.0
H840 H 0.69702 0.46656 0.68892 0.0
C841 C 0.5292 0.45092 0.69555 0.0
C842 C 0.56862 0.43288 0.71124 0.0
H843 H 0.51857 0.48842 0.66624 0.0
H844 H 0.48212 0.4471 0.69717 0.0
C845 C 0.62936 0.43829 0.70803 0.0
C846 C 0.83214 0.03743 0.19461 0.0
C847 C 0.86665 0.01135 0.18504 0.0
H848 H 0.83024 0.08308 0.21568 0.0
C849 C 0.92738 0.01145 0.18981 0.0
H850 H 0.78516 0.03783 0.19104 0.0
C851 C 0.95295 0.03667 0.20482 0.0
C852 C 0.91831 0.06253 0.21501 0.0
H853 H 0.95469 0.99142 0.18268 0.0
H854 H -0.00026 0.03558 0.20873 0.0
C855 C 0.85791 0.06308 0.20903 0.0
C856 C 0.94105 0.97232 0.67679 0.0
C857 C 0.89562 0.99252 0.68647 0.0
H858 H 0.99594 0.93003 0.68321 0.0
C859 C 0.86797 0.98329 0.71003 0.0
H860 H 0.96346 0.9785 0.65875 0.0
C861 C 0.88796 0.95631 0.7245 0.0
C862 C 0.93509 0.93699 0.7155 0.0
H863 H 0.83129 0.99732 0.71771 0.0
H864 H 0.86684 0.95104 0.74302 0.0
C865 C 0.96007 0.94463 0.691 0.0
C866 C 0.60889 0.50543 0.21634 0.0
C867 C 0.62259 0.51037 0.18977 0.0
H868 H 0.57385 0.52593 0.25155 0.0
C869 C 0.60901 0.54109 0.17827 0.0
H870 H 0.61681 0.48182 0.22575 0.0
C871 C 0.58296 0.56626 0.19312 0.0
C872 C 0.57087 0.56132 0.21977 0.0
H873 H 0.61927 0.54589 0.15796 0.0
H874 H 0.57292 0.58972 0.18386 0.0
C875 C 0.58404 0.53069 0.2312 0.0
C876 C 0.34725 0.54494 0.33846 0.0
C877 C 0.36923 0.51256 0.3367 0.0
H878 H 0.35602 0.59545 0.32569 0.0
C879 C 0.41932 0.50641 0.32142 0.0
H880 H 0.30823 0.55004 0.34994 0.0
C881 C 0.44706 0.53223 0.30799 0.0
C882 C 0.42435 0.56452 0.30913 0.0
H883 H 0.43666 0.48151 0.31972 0.0
H884 H 0.48513 0.52669 0.29601 0.0
C885 C 0.37436 0.57074 0.32456 0.0
C886 C 0.05809 0.98883 0.83017 0.0
C887 C 0.11913 0.99198 0.83334 0.0
H888 H 0.98752 0.96142 0.81276 0.0
C889 C 0.15641 0.96806 0.82244 0.0
H890 H 0.02865 0.00716 0.83839 0.0
C891 C 0.13307 0.94156 0.80826 0.0
C892 C 0.07211 0.93907 0.8039 0.0
H893 H 0.20368 0.96996 0.82485 0.0
H894 H 0.16302 0.92321 0.80062 0.0
C895 C 0.03475 0.96274 0.81541 0.0
C896 C 0.18475 0.1609 0.05838 0.0
C897 C 0.18208 0.12962 0.04617 0.0
H898 H 0.19063 0.18794 0.09439 0.0
C899 C 0.18075 0.10112 0.06216 0.0
H900 H 0.18443 0.1835 0.04698 0.0
C901 C 0.18262 0.10384 0.08941 0.0
C902 C 0.18706 0.13504 0.10137 0.0
H903 H 0.17989 0.07654 0.0537 0.0
H904 H 0.18256 0.08147 0.10114 0.0
C905 C 0.18781 0.16354 0.0856 0.0
C906 C 0.24327 0.35267 0.56106 0.0
C907 C 0.28231 0.3749 0.54867 0.0
H908 H 0.21207 0.33159 0.59671 0.0
C909 C 0.32071 0.39353 0.56462 0.0
H910 H 0.21229 0.33802 0.54988 0.0
C911 C 0.31845 0.39105 0.59191 0.0
C912 C 0.27885 0.36914 0.60429 0.0
H913 H 0.3527 0.41033 0.55614 0.0
H914 H 0.34716 0.407 0.60318 0.0
C915 C 0.24219 0.3495 0.5883 0.0
C916 C 0.65681 0.38364 0.95734 0.0
C917 C 0.64571 0.36069 0.97751 0.0
H918 H 0.66795 0.39101 0.91599 0.0
C919 C 0.62868 0.32826 0.97083 0.0
H920 H 0.67006 0.40881 0.9619 0.0
C921 C 0.62733 0.31823 0.94477 0.0
C922 C 0.64294 0.34035 0.92469 0.0
H923 H 0.61862 0.3102 0.98588 0.0
H924 H 0.61678 0.29261 0.94035 0.0
C925 C 0.65545 0.37352 0.93109 0.0
C926 C 0.8316 0.11911 0.455 0.0
C927 C 0.84286 0.14282 0.47458 0.0
H928 H 0.81728 0.11035 0.41401 0.0
C929 C 0.85551 0.17562 0.46703 0.0
H930 H 0.82165 0.09365 0.46015 0.0
C931 C 0.85256 0.1851 0.44087 0.0
C932 C 0.83759 0.16196 0.42149 0.0
H933 H 0.86591 0.19434 0.4815 0.0
H934 H 0.86007 0.21087 0.43584 0.0
C935 C 0.8291 0.12862 0.42862 0.0
C936 C 0.80137 0.89753 0.95591 0.0
C937 C 0.80141 0.87001 0.97293 0.0
H938 H 0.80007 0.91481 0.91622 0.0
C939 C 0.80223 0.83803 0.96186 0.0
H940 H 0.79979 0.92256 0.96351 0.0
C941 C 0.80124 0.83371 0.93474 0.0
C942 C 0.80032 0.8612 0.91787 0.0
H943 H 0.80378 0.81618 0.97412 0.0
H944 H 0.80135 0.80875 0.92692 0.0
C945 C 0.80128 0.89316 0.92874 0.0
C946 C 0.67066 0.68482 0.46554 0.0
C947 C 0.68028 0.65393 0.47759 0.0
H948 H 0.66191 0.71177 0.4297 0.0
C949 C 0.68336 0.62547 0.46168 0.0
H950 H 0.6663 0.70717 0.47708 0.0
C951 C 0.6796 0.62813 0.4344 0.0
C952 C 0.67333 0.6593 0.42248 0.0
H953 H 0.69112 0.60129 0.47017 0.0
H954 H 0.68427 0.60601 0.42258 0.0
C955 C 0.66773 0.68749 0.43837 0.0
C956 C 0.29592 0.65587 0.05983 0.0
C957 C 0.33919 0.63776 0.04625 0.0
H958 H 0.27123 0.67987 0.09563 0.0
C959 C 0.39009 0.62795 0.05988 0.0
H960 H 0.25558 0.66328 0.05026 0.0
C961 C 0.3982 0.63692 0.08608 0.0
C962 C 0.35584 0.65602 0.09907 0.0
H963 H 0.42474 0.6144 0.05009 0.0
H964 H 0.43843 0.6299 0.09594 0.0
C965 C 0.30444 0.66514 0.08587 0.0
C966 C 0.16516 0.86917 0.55892 0.0
C967 C 0.15303 0.84302 0.54149 0.0
H968 H 0.17754 0.88349 0.59904 0.0
C969 C 0.13415 0.81241 0.55169 0.0
H970 H 0.17994 0.89302 0.55165 0.0
C971 C 0.13272 0.80708 0.57861 0.0
C972 C 0.14977 0.83228 0.59598 0.0
H973 H 0.12336 0.79198 0.53879 0.0
H974 H 0.12184 0.78256 0.58587 0.0
C975 C 0.1636 0.86381 0.58602 0.0
C976 C 0.1469 0.2139 0.33718 0.0
C977 C 0.12252 0.24537 0.34137 0.0
H978 H 0.14108 0.16796 0.31625 0.0
C979 C 0.07149 0.25443 0.32771 0.0
H980 H 0.18658 0.20656 0.34732 0.0
C981 C 0.04495 0.2323 0.31027 0.0
C982 C 0.06972 0.20096 0.30573 0.0
H983 H 0.05208 0.27865 0.3306 0.0
H984 H 0.00559 0.23995 0.30003 0.0
C985 C 0.12108 0.192 0.31929 0.0
C986 C 0.42527 0.24688 0.82902 0.0
C987 C 0.37533 0.25617 0.84341 0.0
H988 H 0.48955 0.26111 0.80045 0.0
C989 C 0.35186 0.28802 0.83999 0.0
H990 H 0.44395 0.22238 0.83131 0.0
C991 C 0.37723 0.30997 0.822 0.0
C992 C 0.42709 0.30063 0.80751 0.0
H993 H 0.31296 0.29554 0.85068 0.0
H994 H 0.35774 0.33422 0.8194 0.0
C995 C 0.45132 0.26904 0.81143 0.0
C996 C 0.64153 0.2914 0.6723 0.0
C997 C 0.64778 0.25756 0.67849 0.0
H998 H 0.6049 0.33837 0.68335 0.0
C999 C 0.6207 0.24543 0.70139 0.0
H1000 H 0.66237 0.30183 0.65512 0.0
C1001 C 0.58932 0.26659 0.71781 0.0
C1002 C 0.58314 0.30019 0.71147 0.0
H1003 H 0.62292 0.21944 0.70655 0.0
H1004 H 0.56896 0.25655 0.73528 0.0
C1005 C 0.60895 0.31241 0.6885 0.0
C1006 C 0.87418 0.21455 0.17041 0.0
C1007 C 0.87696 0.24881 0.17575 0.0
H1008 H 0.89687 0.16541 0.18297 0.0
C1009 C 0.90658 0.25933 0.19852 0.0
H1010 H 0.85109 0.20524 0.15345 0.0
C1011 C 0.9303 0.23636 0.21591 0.0
C1012 C 0.92721 0.20242 0.21044 0.0
H1013 H 0.91179 0.28538 0.20305 0.0
H1014 H 0.95218 0.24516 0.23339 0.0
C1015 C 0.89986 0.19164 0.18741 0.0
C1016 C 0.85105 0.7761 0.68943 0.0
C1017 C 0.87155 0.74335 0.69092 0.0
H1018 H 0.86244 0.82643 0.70207 0.0
C1019 C 0.92169 0.7365 0.70598 0.0
H1020 H 0.81217 0.78196 0.67813 0.0
C1021 C 0.95067 0.76187 0.71941 0.0
C1022 C 0.92946 0.79449 0.71837 0.0
H1023 H 0.93852 0.71146 0.70735 0.0
H1024 H 0.98884 0.75581 0.73111 0.0
C1025 C 0.87956 0.80143 0.70319 0.0
C1026 C 0.63825 0.71774 0.1824 0.0
C1027 C 0.60822 0.74712 0.17652 0.0
H1028 H 0.63838 0.67243 0.20425 0.0
C1029 C 0.55324 0.75307 0.18812 0.0
H1030 H 0.68098 0.71287 0.17383 0.0
C1031 C 0.52837 0.72978 0.2052 0.0
C1032 C 0.5587 0.7005 0.21138 0.0
H1033 H 0.52959 0.77573 0.18392 0.0
H1034 H 0.48603 0.73502 0.21399 0.0
C1035 C 0.61399 0.69478 0.19987 0.0
C1036 C 0.40819 0.74069 0.34131 0.0
C1037 C 0.3683 0.76253 0.32946 0.0
H1038 H 0.46443 0.69873 0.33669 0.0
C1039 C 0.35453 0.75802 0.30289 0.0
H1040 H 0.42031 0.74368 0.36163 0.0
C1041 C 0.38042 0.73258 0.28845 0.0
C1042 C 0.42021 0.71069 0.30029 0.0
H1043 H 0.32324 0.77403 0.29321 0.0
H1044 H 0.36904 0.7301 0.26801 0.0
C1045 C 0.43386 0.71507 0.3269 0.0
C1046 C 0.12372 0.74667 0.8194 0.0
C1047 C 0.15018 0.75874 0.84241 0.0
H1048 H 0.07351 0.75789 0.78516 0.0
C1049 C 0.14395 0.79258 0.84858 0.0
H1050 H 0.12578 0.72066 0.81428 0.0
C1051 C 0.11223 0.81368 0.83214 0.0
C1052 C 0.08731 0.80152 0.80898 0.0
H1053 H 0.16422 0.80295 0.86588 0.0
H1054 H 0.10821 0.83965 0.83724 0.0
C1055 C 0.0933 0.7679 0.80274 0.0
loop_
_geom_bond_atom_site_label_1
_geom_bond_atom_site_label_2
_geom_bond_distance
_geom_bond_site_symmetry_2
_ccdc_geom_bond_type
C0 C1 1.391 . S
C0 C4 1.391 . S
C0 H42 0.948 . S
C1 C0 1.391 . S
C1 C2 1.391 . S
C2 C1 1.391 . S
C2 H58 0.947 . S
C2 C59 1.392 . S
C3 C4 1.391 . S
C3 C7 1.397 . S
C3 C59 1.419 . S
C4 C0 1.391 . S
C4 C3 1.391 . S
C4 C5 1.399 . S
C5 C4 1.399 . S
C5 C8 1.396 . S
C5 C17 1.453 . S
C5 C18 1.684 . S
H6 C30 0.948 . S
C7 C3 1.397 . S
C7 C8 1.394 . S
C7 C26 1.723 . S
C8 C5 1.396 . S
C8 C7 1.394 . S
C8 C38 1.723 . S
H9 C32 0.947 . S
H10 C33 0.948 . S
H11 C39 0.982 . S
H12 C40 0.979 . S
H13 C40 0.980 . S
H14 C40 0.983 . S
H15 C39 0.979 . S
H16 C39 0.977 . S
C17 C5 1.453 . S
C17 H46 0.982 . S
C17 H47 0.979 . S
C17 H48 0.977 . S
C18 C5 1.684 . S
C18 H43 0.979 . S
C18 H44 0.980 . S
C18 H45 0.983 . S
C19 C20 1.391 . S
C19 C24 1.391 . S
C19 H49 0.948 . S
C20 C19 1.391 . S
C20 C21 1.391 . S
C21 C20 1.391 . S
C21 C22 1.392 . S
C21 H50 0.947 . S
C22 C21 1.392 . S
C22 C23 1.419 . S
C22 H51 0.948 . S
C23 C22 1.419 . S
C23 C24 1.391 . S
C23 C27 1.397 . S
C24 C19 1.391 . S
C24 C23 1.391 . S
C24 C25 1.399 . S
C25 C24 1.399 . S
C25 C26 1.396 . S
C25 C28 1.453 . S
C25 C29 1.684 . S
C26 C7 1.723 . S
C26 C25 1.396 . S
C26 C27 1.394 . S
C27 C23 1.397 . S
C27 C26 1.394 . S
C27 C37 1.723 . S
C28 C25 1.453 . S
C28 H52 0.982 . S
C28 H53 0.979 . S
C28 H54 0.977 . S
C29 C25 1.684 . S
C29 H55 0.979 . S
C29 H56 0.980 . S
C29 H57 0.983 . S
C30 H6 0.948 . S
C30 C31 1.391 . S
C30 C35 1.391 . S
C31 C30 1.391 . S
C31 C32 1.391 . S
C32 H9 0.947 . S
C32 C31 1.391 . S
C32 C33 1.392 . S
C33 H10 0.948 . S
C33 C32 1.392 . S
C33 C34 1.419 . S
C34 C33 1.419 . S
C34 C35 1.391 . S
C34 C38 1.397 . S
C35 C30 1.391 . S
C35 C34 1.391 . S
C35 C36 1.399 . S
C36 C35 1.399 . S
C36 C37 1.396 . S
C36 C39 1.453 . S
C36 C40 1.684 . S
C37 C27 1.723 . S
C37 C36 1.396 . S
C37 C38 1.394 . S
C38 C8 1.723 . S
C38 C34 1.397 . S
C38 C37 1.394 . S
C39 H11 0.982 . S
C39 H15 0.979 . S
C39 H16 0.977 . S
C39 C36 1.453 . S
C40 H12 0.979 . S
C40 H13 0.980 . S
C40 H14 0.983 . S
C40 C36 1.684 . S
H41 C59 0.948 . S
H42 C0 0.948 . S
H43 C18 0.979 . S
H44 C18 0.980 . S
H45 C18 0.983 . S
H46 C17 0.982 . S
H47 C17 0.979 . S
H48 C17 0.977 . S
H49 C19 0.948 . S
H50 C21 0.947 . S
H51 C22 0.948 . S
H52 C28 0.982 . S
H53 C28 0.979 . S
H54 C28 0.977 . S
H55 C29 0.979 . S
H56 C29 0.980 . S
H57 C29 0.983 . S
H58 C2 0.947 . S
C59 C2 1.392 . S
C59 C3 1.419 . S
C59 H41 0.948 . S
C60 C61 1.391 . S
C60 C64 1.391 . S
C60 H102 0.948 . S
C61 C60 1.391 . S
C61 C62 1.391 . S
C62 C61 1.391 . S
C62 H118 0.947 . S
C62 C119 1.392 . S
C63 C64 1.391 . S
C63 C67 1.397 . S
C63 C119 1.419 . S
C64 C60 1.391 . S
C64 C63 1.391 . S
C64 C65 1.399 . S
C65 C64 1.399 . S
C65 C68 1.396 . S
C65 C77 1.453 . S
C65 C78 1.684 . S
H66 C90 0.948 1_565 S
C67 C63 1.397 . S
C67 C68 1.394 . S
C67 C86 1.723 . S
C68 C65 1.396 . S
C68 C67 1.394 . S
C68 C98 1.723 . S
H69 C92 0.947 . S
H70 C93 0.948 . S
H71 C99 0.982 . S
H72 C100 0.979 . S
H73 C100 0.980 . S
H74 C100 0.983 . S
H75 C99 0.979 . S
H76 C99 0.977 . S
C77 C65 1.453 . S
C77 H106 0.982 . S
C77 H107 0.979 . S
C77 H108 0.977 . S
C78 C65 1.684 . S
C78 H103 0.979 . S
C78 H104 0.980 . S
C78 H105 0.983 . S
C79 C80 1.391 1_556 S
C79 C84 1.391 . S
C79 H109 0.948 . S
C80 C79 1.391 1_554 S
C80 C81 1.391 1_554 S
C81 C80 1.391 1_556 S
C81 C82 1.392 . S
C81 H110 0.947 1_556 S
C82 C81 1.392 . S
C82 C83 1.419 . S
C82 H111 0.948 . S
C83 C82 1.419 . S
C83 C84 1.391 . S
C83 C87 1.397 . S
C84 C79 1.391 . S
C84 C83 1.391 . S
C84 C85 1.399 . S
C85 C84 1.399 . S
C85 C86 1.396 . S
C85 C88 1.453 . S
C85 C89 1.684 . S
C86 C67 1.723 . S
C86 C85 1.396 . S
C86 C87 1.394 . S
C87 C83 1.397 . S
C87 C86 1.394 . S
C87 C97 1.723 . S
C88 C85 1.453 . S
C88 H112 0.982 . S
C88 H113 0.979 . S
C88 H114 0.977 . S
C89 C85 1.684 . S
C89 H115 0.979 . S
C89 H116 0.980 . S
C89 H117 0.983 . S
C90 H66 0.948 1_545 S
C90 C91 1.391 . S
C90 C95 1.391 . S
C91 C90 1.391 . S
C91 C92 1.391 . S
C92 H69 0.947 . S
C92 C91 1.391 . S
C92 C93 1.392 . S
C93 H70 0.948 . S
C93 C92 1.392 . S
C93 C94 1.419 . S
C94 C93 1.419 . S
C94 C95 1.391 . S
C94 C98 1.397 . S
C95 C90 1.391 . S
C95 C94 1.391 . S
C95 C96 1.399 . S
C96 C95 1.399 . S
C96 C97 1.396 . S
C96 C99 1.453 . S
C96 C100 1.684 . S
C97 C87 1.723 . S
C97 C96 1.396 . S
C97 C98 1.394 . S
C98 C68 1.723 . S
C98 C94 1.397 . S
C98 C97 1.394 . S
C99 H71 0.982 . S
C99 H75 0.979 . S
C99 H76 0.977 . S
C99 C96 1.453 . S
C100 H72 0.979 . S
C100 H73 0.980 . S
C100 H74 0.983 . S
C100 C96 1.684 . S
H101 C119 0.948 . S
H102 C60 0.948 . S
H103 C78 0.979 . S
H104 C78 0.980 . S
H105 C78 0.983 . S
H106 C77 0.982 . S
H107 C77 0.979 . S
H108 C77 0.977 . S
H109 C79 0.948 . S
H110 C81 0.947 1_554 S
H111 C82 0.948 . S
H112 C88 0.982 . S
H113 C88 0.979 . S
H114 C88 0.977 . S
H115 C89 0.979 . S
H116 C89 0.980 . S
H117 C89 0.983 . S
H118 C62 0.947 . S
C119 C62 1.392 . S
C119 C63 1.419 . S
C119 H101 0.948 . S
C120 C121 1.391 . S
C120 C124 1.391 . S
C120 H162 0.948 . S
C121 C120 1.391 . S
C121 C122 1.391 . S
C122 C121 1.391 . S
C122 H178 0.947 . S
C122 C179 1.392 . S
C123 C124 1.391 . S
C123 C127 1.397 . S
C123 C179 1.419 . S
C124 C120 1.391 . S
C124 C123 1.391 . S
C124 C125 1.399 . S
C125 C124 1.399 . S
C125 C128 1.396 . S
C125 C137 1.453 . S
C125 C138 1.684 . S
H126 C150 0.948 . S
C127 C123 1.397 . S
C127 C128 1.394 . S
C127 C146 1.723 . S
C128 C125 1.396 . S
C128 C127 1.394 . S
C128 C158 1.723 . S
H129 C152 0.947 . S
H130 C153 0.948 . S
H131 C159 0.982 . S
H132 C160 0.979 . S
H133 C160 0.980 . S
H134 C160 0.983 . S
H135 C159 0.979 . S
H136 C159 0.977 . S
C137 C125 1.453 . S
C137 H166 0.982 . S
C137 H167 0.979 . S
C137 H168 0.977 . S
C138 C125 1.684 . S
C138 H163 0.979 . S
C138 H164 0.980 . S
C138 H165 0.983 . S
C139 C140 1.391 . S
C139 C144 1.391 . S
C139 H169 0.948 1_545 S
C140 C139 1.391 . S
C140 C141 1.391 . S
C141 C140 1.391 . S
C141 C142 1.392 . S
C141 H170 0.947 . S
C142 C141 1.392 . S
C142 C143 1.419 . S
C142 H171 0.948 . S
C143 C142 1.419 . S
C143 C144 1.391 . S
C143 C147 1.397 . S
C144 C139 1.391 . S
C144 C143 1.391 . S
C144 C145 1.399 . S
C145 C144 1.399 . S
C145 C146 1.396 . S
C145 C148 1.453 . S
C145 C149 1.684 . S
C146 C127 1.723 . S
C146 C145 1.396 . S
C146 C147 1.394 . S
C147 C143 1.397 . S
C147 C146 1.394 . S
C147 C157 1.723 . S
C148 C145 1.453 . S
C148 H172 0.982 . S
C148 H173 0.979 . S
C148 H174 0.977 . S
C149 C145 1.684 . S
C149 H175 0.979 . S
C149 H176 0.980 . S
C149 H177 0.983 . S
C150 H126 0.948 . S
C150 C151 1.391 . S
C150 C155 1.391 . S
C151 C150 1.391 . S
C151 C152 1.391 . S
C152 H129 0.947 . S
C152 C151 1.391 . S
C152 C153 1.392 . S
C153 H130 0.948 . S
C153 C152 1.392 . S
C153 C154 1.419 . S
C154 C153 1.419 . S
C154 C155 1.391 . S
C154 C158 1.397 . S
C155 C150 1.391 . S
C155 C154 1.391 . S
C155 C156 1.399 . S
C156 C155 1.399 . S
C156 C157 1.396 . S
C156 C159 1.453 . S
C156 C160 1.684 . S
C157 C147 1.723 . S
C157 C156 1.396 . S
C157 C158 1.394 . S
C158 C128 1.723 . S
C158 C154 1.397 . S
C158 C157 1.394 . S
C159 H131 0.982 . S
C159 H135 0.979 . S
C159 H136 0.977 . S
C159 C156 1.453 . S
C160 H132 0.979 . S
C160 H133 0.980 . S
C160 H134 0.983 . S
C160 C156 1.684 . S
H161 C179 0.948 . S
H162 C120 0.948 . S
H163 C138 0.979 . S
H164 C138 0.980 . S
H165 C138 0.983 . S
H166 C137 0.982 . S
H167 C137 0.979 . S
H168 C137 0.977 . S
H169 C139 0.948 1_565 S
H170 C141 0.947 . S
H171 C142 0.948 . S
H172 C148 0.982 . S
H173 C148 0.979 . S
H174 C148 0.977 . S
H175 C149 0.979 . S
H176 C149 0.980 . S
H177 C149 0.983 . S
H178 C122 0.947 . S
C179 C122 1.392 . S
C179 C123 1.419 . S
C179 H161 0.948 . S
C180 C181 1.391 . S
C180 C184 1.391 . S
C180 H222 0.948 . S
C181 C180 1.391 . S
C181 C182 1.391 . S
C182 C181 1.391 . S
C182 H238 0.947 . S
C182 C239 1.392 . S
C183 C184 1.391 . S
C183 C187 1.397 . S
C183 C239 1.419 . S
C184 C180 1.391 . S
C184 C183 1.391 . S
C184 C185 1.399 . S
C185 C184 1.399 . S
C185 C188 1.396 . S
C185 C197 1.453 . S
C185 C198 1.684 . S
H186 C210 0.948 . S
C187 C183 1.397 . S
C187 C188 1.394 . S
C187 C206 1.723 . S
C188 C185 1.396 . S
C188 C187 1.394 . S
C188 C218 1.723 . S
H189 C212 0.947 . S
H190 C213 0.948 . S
H191 C219 0.982 . S
H192 C220 0.979 . S
H193 C220 0.980 . S
H194 C220 0.983 . S
H195 C219 0.979 . S
H196 C219 0.977 . S
C197 C185 1.453 . S
C197 H226 0.982 . S
C197 H227 0.979 . S
C197 H228 0.977 . S
C198 C185 1.684 . S
C198 H223 0.979 . S
C198 H224 0.980 . S
C198 H225 0.983 . S
C199 C200 1.367 1_554 S
C199 C204 1.391 . S
C199 H229 0.948 . S
C200 C199 1.367 1_556 S
C200 C201 1.371 1_556 S
C201 C200 1.371 1_554 S
C201 C202 1.392 . S
C201 H230 0.947 . S
C202 C201 1.392 . S
C202 C203 1.419 . S
C202 H231 0.948 . S
C203 C202 1.419 . S
C203 C204 1.391 . S
C203 C207 1.397 . S
C204 C199 1.391 . S
C204 C203 1.391 . S
C204 C205 1.399 . S
C205 C204 1.399 . S
C205 C206 1.396 . S
C205 C208 1.453 . S
C205 C209 1.684 . S
C206 C187 1.723 . S
C206 C205 1.396 . S
C206 C207 1.394 . S
C207 C203 1.397 . S
C207 C206 1.394 . S
C207 C217 1.723 . S
C208 C205 1.453 . S
C208 H232 0.982 . S
C208 H233 0.979 . S
C208 H234 0.977 . S
C209 C205 1.684 . S
C209 H235 0.979 . S
C209 H236 0.980 . S
C209 H237 0.983 . S
C210 H186 0.948 . S
C210 C211 1.391 . S
C210 C215 1.391 . S
C211 C210 1.391 . S
C211 C212 1.391 . S
C212 H189 0.947 . S
C212 C211 1.391 . S
C212 C213 1.392 . S
C213 H190 0.948 . S
C213 C212 1.392 . S
C213 C214 1.419 . S
C214 C213 1.419 . S
C214 C215 1.391 . S
C214 C218 1.397 . S
C215 C210 1.391 . S
C215 C214 1.391 . S
C215 C216 1.399 . S
C216 C215 1.399 . S
C216 C217 1.396 . S
C216 C219 1.453 . S
C216 C220 1.684 . S
C217 C207 1.723 . S
C217 C216 1.396 . S
C217 C218 1.394 . S
C218 C188 1.723 . S
C218 C214 1.397 . S
C218 C217 1.394 . S
C219 H191 0.982 . S
C219 H195 0.979 . S
C219 H196 0.977 . S
C219 C216 1.453 . S
C220 H192 0.979 . S
C220 H193 0.980 . S
C220 H194 0.983 . S
C220 C216 1.684 . S
H221 C239 0.948 . S
H222 C180 0.948 . S
H223 C198 0.979 . S
H224 C198 0.980 . S
H225 C198 0.983 . S
H226 C197 0.982 . S
H227 C197 0.979 . S
H228 C197 0.977 . S
H229 C199 0.948 . S
H230 C201 0.947 . S
H231 C202 0.948 . S
H232 C208 0.982 . S
H233 C208 0.979 . S
H234 C208 0.977 . S
H235 C209 0.979 . S
H236 C209 0.980 . S
H237 C209 0.983 . S
H238 C182 0.947 . S
C239 C182 1.392 . S
C239 C183 1.419 . S
C239 H221 0.948 . S
C240 C241 1.391 . S
C240 C244 1.391 . S
C240 H282 0.948 . S
C241 C240 1.391 . S
C241 C242 1.391 . S
C242 C241 1.391 . S
C242 H298 0.947 . S
C242 C299 1.392 . S
C243 C244 1.391 . S
C243 C247 1.397 . S
C243 C299 1.419 . S
C244 C240 1.391 . S
C244 C243 1.391 . S
C244 C245 1.399 . S
C245 C244 1.399 . S
C245 C248 1.396 . S
C245 C257 1.453 . S
C245 C258 1.684 . S
H246 C270 0.948 . S
C247 C243 1.397 . S
C247 C248 1.394 . S
C247 C266 1.723 . S
C248 C245 1.396 . S
C248 C247 1.394 . S
C248 C278 1.723 . S
H249 C272 0.947 . S
H250 C273 0.948 . S
H251 C279 0.982 . S
H252 C280 0.979 . S
H253 C280 0.980 . S
H254 C280 0.983 . S
H255 C279 0.979 . S
H256 C279 0.977 . S
C257 C245 1.453 . S
C257 H286 0.982 . S
C257 H287 0.979 . S
C257 H288 0.977 . S
C258 C245 1.684 . S
C258 H283 0.979 . S
C258 H284 0.980 . S
C258 H285 0.983 . S
C259 C260 1.391 . S
C259 C264 1.391 . S
C259 H289 0.948 . S
C260 C259 1.391 . S
C260 C261 1.391 . S
C261 C260 1.391 . S
C261 C262 1.392 . S
C261 H290 0.947 . S
C262 C261 1.392 . S
C262 C263 1.419 . S
C262 H291 0.948 . S
C263 C262 1.419 . S
C263 C264 1.391 . S
C263 C267 1.397 . S
C264 C259 1.391 . S
C264 C263 1.391 . S
C264 C265 1.399 . S
C265 C264 1.399 . S
C265 C266 1.396 . S
C265 C268 1.453 . S
C265 C269 1.684 . S
C266 C247 1.723 . S
C266 C265 1.396 . S
C266 C267 1.394 . S
C267 C263 1.397 . S
C267 C266 1.394 . S
C267 C277 1.723 . S
C268 C265 1.453 . S
C268 H292 0.982 . S
C268 H293 0.979 . S
C268 H294 0.977 . S
C269 C265 1.684 . S
C269 H295 0.979 . S
C269 H296 0.980 . S
C269 H297 0.983 . S
C270 H246 0.948 . S
C270 C271 1.391 . S
C270 C275 1.391 . S
C271 C270 1.391 . S
C271 C272 1.391 . S
C272 H249 0.947 . S
C272 C271 1.391 . S
C272 C273 1.392 . S
C273 H250 0.948 . S
C273 C272 1.392 . S
C273 C274 1.419 . S
C274 C273 1.419 . S
C274 C275 1.391 . S
C274 C278 1.397 . S
C275 C270 1.391 . S
C275 C274 1.391 . S
C275 C276 1.399 . S
C276 C275 1.399 . S
C276 C277 1.396 . S
C276 C279 1.453 . S
C276 C280 1.684 . S
C277 C267 1.723 . S
C277 C276 1.396 . S
C277 C278 1.394 . S
C278 C248 1.723 . S
C278 C274 1.397 . S
C278 C277 1.394 . S
C279 H251 0.982 . S
C279 H255 0.979 . S
C279 H256 0.977 . S
C279 C276 1.453 . S
C280 H252 0.979 . S
C280 H253 0.980 . S
C280 H254 0.983 . S
C280 C276 1.684 . S
H281 C299 0.948 . S
H282 C240 0.948 . S
H283 C258 0.979 . S
H284 C258 0.980 . S
H285 C258 0.983 . S
H286 C257 0.982 . S
H287 C257 0.979 . S
H288 C257 0.977 . S
H289 C259 0.948 . S
H290 C261 0.947 . S
H291 C262 0.948 . S
H292 C268 0.982 . S
H293 C268 0.979 . S
H294 C268 0.977 . S
H295 C269 0.979 . S
H296 C269 0.980 . S
H297 C269 0.983 . S
H298 C242 0.947 . S
C299 C242 1.392 . S
C299 C243 1.419 . S
C299 H281 0.948 . S
C300 C301 1.391 . S
C300 C304 1.391 . S
C300 H342 0.948 . S
C301 C300 1.391 . S
C301 C302 1.391 . S
C302 C301 1.391 . S
C302 H358 0.947 . S
C302 C359 1.392 . S
C303 C304 1.391 . S
C303 C307 1.397 . S
C303 C359 1.419 . S
C304 C300 1.391 . S
C304 C303 1.391 . S
C304 C305 1.399 . S
C305 C304 1.399 . S
C305 C308 1.396 . S
C305 C317 1.453 . S
C305 C318 1.684 . S
H306 C330 0.948 1_545 S
C307 C303 1.397 . S
C307 C308 1.394 . S
C307 C326 1.723 . S
C308 C305 1.396 . S
C308 C307 1.394 . S
C308 C338 1.723 . S
H309 C332 0.947 . S
H310 C333 0.948 . S
H311 C339 0.982 . S
H312 C340 0.979 . S
H313 C340 0.980 . S
H314 C340 0.975 1_545 S
H315 C339 0.979 . S
H316 C339 0.977 . S
C317 C305 1.453 . S
C317 H346 0.982 . S
C317 H347 0.979 . S
C317 H348 0.977 . S
C318 C305 1.684 . S
C318 H343 0.979 . S
C318 H344 0.980 . S
C318 H345 0.983 . S
C319 C320 1.391 1_554 S
C319 C324 1.391 . S
C319 H349 0.960 . S
C320 C319 1.391 1_556 S
C320 C321 1.391 1_556 S
C321 C320 1.391 1_554 S
C321 C322 1.392 . S
C321 H350 0.947 1_554 S
C322 C321 1.392 . S
C322 C323 1.419 . S
C322 H351 0.948 . S
C323 C322 1.419 . S
C323 C324 1.391 . S
C323 C327 1.397 . S
C324 C319 1.391 . S
C324 C323 1.391 . S
C324 C325 1.399 . S
C325 C324 1.399 . S
C325 C326 1.396 . S
C325 C328 1.453 . S
C325 C329 1.684 . S
C326 C307 1.723 . S
C326 C325 1.396 . S
C326 C327 1.394 . S
C327 C323 1.397 . S
C327 C326 1.394 . S
C327 C337 1.723 . S
C328 C325 1.453 . S
C328 H352 0.982 . S
C328 H353 0.979 . S
C328 H354 0.977 . S
C329 C325 1.684 . S
C329 H355 0.979 . S
C329 H356 0.980 . S
C329 H357 0.983 . S
C330 H306 0.948 1_565 S
C330 C331 1.391 . S
C330 C335 1.391 . S
C331 C330 1.391 . S
C331 C332 1.391 . S
C332 H309 0.947 . S
C332 C331 1.391 . S
C332 C333 1.392 . S
C333 H310 0.948 . S
C333 C332 1.392 . S
C333 C334 1.419 . S
C334 C333 1.419 . S
C334 C335 1.391 . S
C334 C338 1.397 . S
C335 C330 1.391 . S
C335 C334 1.391 . S
C335 C336 1.399 . S
C336 C335 1.399 . S
C336 C337 1.396 . S
C336 C339 1.453 . S
C336 C340 1.684 . S
C337 C327 1.723 . S
C337 C336 1.396 . S
C337 C338 1.394 . S
C338 C308 1.723 . S
C338 C334 1.397 . S
C338 C337 1.394 . S
C339 H311 0.982 . S
C339 H315 0.979 . S
C339 H316 0.977 . S
C339 C336 1.453 . S
C340 H312 0.979 . S
C340 H313 0.980 . S
C340 H314 0.975 1_565 S
C340 C336 1.684 . S
H341 C359 0.948 . S
H342 C300 0.948 . S
H343 C318 0.979 . S
H344 C318 0.980 . S
H345 C318 0.983 . S
H346 C317 0.982 . S
H347 C317 0.979 . S
H348 C317 0.977 . S
H349 C319 0.960 . S
H350 C321 0.947 1_556 S
H351 C322 0.948 . S
H352 C328 0.982 . S
H353 C328 0.979 . S
H354 C328 0.977 . S
H355 C329 0.979 . S
H356 C329 0.980 . S
H357 C329 0.983 . S
H358 C302 0.947 . S
C359 C302 1.392 . S
C359 C303 1.419 . S
C359 H341 0.948 . S
C360 C361 1.391 . S
C360 C364 1.391 . S
C360 H402 0.948 . S
C361 C360 1.391 . S
C361 C362 1.391 . S
C362 C361 1.391 . S
C362 H418 0.947 1_565 S
C362 C419 1.392 . S
C363 C364 1.391 . S
C363 C367 1.397 . S
C363 C419 1.419 . S
C364 C360 1.391 . S
C364 C363 1.391 . S
C364 C365 1.399 . S
C365 C364 1.399 . S
C365 C368 1.396 . S
C365 C377 1.453 . S
C365 C378 1.684 . S
H366 C390 0.948 . S
C367 C363 1.397 . S
C367 C368 1.394 . S
C367 C386 1.723 . S
C368 C365 1.396 . S
C368 C367 1.394 . S
C368 C398 1.723 . S
H369 C392 0.947 . S
H370 C393 0.948 . S
H371 C399 0.982 . S
H372 C400 0.979 . S
H373 C400 0.980 . S
H374 C400 0.983 . S
H375 C399 0.979 . S
H376 C399 0.977 . S
C377 C365 1.453 . S
C377 H406 0.982 . S
C377 H407 0.979 . S
C377 H408 0.977 . S
C378 C365 1.684 . S
C378 H403 0.979 . S
C378 H404 0.980 . S
C378 H405 0.983 . S
C379 C380 1.391 . S
C379 C384 1.391 . S
C379 H409 0.948 . S
C380 C379 1.391 . S
C380 C381 1.391 . S
C381 C380 1.391 . S
C381 C382 1.392 . S
C381 H410 0.947 . S
C382 C381 1.392 . S
C382 C383 1.419 . S
C382 H411 0.948 . S
C383 C382 1.419 . S
C383 C384 1.391 . S
C383 C387 1.397 . S
C384 C379 1.391 . S
C384 C383 1.391 . S
C384 C385 1.399 . S
C385 C384 1.399 . S
C385 C386 1.396 . S
C385 C388 1.453 . S
C385 C389 1.684 . S
C386 C367 1.723 . S
C386 C385 1.396 . S
C386 C387 1.394 . S
C387 C383 1.397 . S
C387 C386 1.394 . S
C387 C397 1.723 . S
C388 C385 1.453 . S
C388 H412 0.982 . S
C388 H413 0.979 . S
C388 H414 0.977 . S
C389 C385 1.684 . S
C389 H415 0.979 . S
C389 H416 0.980 . S
C389 H417 0.983 . S
C390 H366 0.948 . S
C390 C391 1.391 . S
C390 C395 1.391 . S
C391 C390 1.391 . S
C391 C392 1.391 . S
C392 H369 0.947 . S
C392 C391 1.391 . S
C392 C393 1.392 . S
C393 H370 0.948 . S
C393 C392 1.392 . S
C393 C394 1.419 . S
C394 C393 1.419 . S
C394 C395 1.391 . S
C394 C398 1.397 . S
C395 C390 1.391 . S
C395 C394 1.391 . S
C395 C396 1.399 . S
C396 C395 1.399 . S
C396 C397 1.396 . S
C396 C399 1.453 . S
C396 C400 1.684 . S
C397 C387 1.723 . S
C397 C396 1.396 . S
C397 C398 1.394 . S
C398 C368 1.723 . S
C398 C394 1.397 . S
C398 C397 1.394 . S
C399 H371 0.982 . S
C399 H375 0.979 . S
C399 H376 0.977 . S
C399 C396 1.453 . S
C400 H372 0.979 . S
C400 H373 0.980 . S
C400 H374 0.983 . S
C400 C396 1.684 . S
H401 C419 0.948 . S
H402 C360 0.948 . S
H403 C378 0.979 . S
H404 C378 0.980 . S
H405 C378 0.983 . S
H406 C377 0.982 . S
H407 C377 0.979 . S
H408 C377 0.977 . S
H409 C379 0.948 . S
H410 C381 0.947 . S
H411 C382 0.948 . S
H412 C388 0.982 . S
H413 C388 0.979 . S
H414 C388 0.977 . S
H415 C389 0.979 . S
H416 C389 0.980 . S
H417 C389 0.983 . S
H418 C362 0.947 1_545 S
C419 C362 1.392 . S
C419 C363 1.419 . S
C419 H401 0.948 . S
C420 C421 1.391 . S
C420 C424 1.391 . S
C420 H462 0.948 . S
C421 C420 1.391 . S
C421 C422 1.391 . S
C422 C421 1.391 . S
C422 H478 0.947 . S
C422 C479 1.392 . S
C423 C424 1.391 . S
C423 C427 1.397 . S
C423 C479 1.419 . S
C424 C420 1.391 . S
C424 C423 1.391 . S
C424 C425 1.399 . S
C425 C424 1.399 . S
C425 C428 1.396 . S
C425 C437 1.453 . S
C425 C438 1.684 . S
H426 C450 0.948 . S
C427 C423 1.397 . S
C427 C428 1.394 . S
C427 C446 1.723 . S
C428 C425 1.396 . S
C428 C427 1.394 . S
C428 C458 1.723 . S
H429 C452 0.947 . S
H430 C453 0.948 . S
H431 C459 0.982 . S
H432 C460 0.979 . S
H433 C460 0.980 . S
H434 C460 0.983 . S
H435 C459 0.979 . S
H436 C459 0.977 . S
C437 C425 1.453 . S
C437 H466 0.982 . S
C437 H467 0.979 . S
C437 H468 0.977 . S
C438 C425 1.684 . S
C438 H463 0.979 . S
C438 H464 0.980 . S
C438 H465 0.983 . S
C439 C440 1.391 1_556 S
C439 C444 1.391 . S
C439 H469 0.948 . S
C440 C439 1.391 1_554 S
C440 C441 1.391 1_554 S
C441 C440 1.391 1_556 S
C441 C442 1.392 . S
C441 H470 0.954 . S
C442 C441 1.392 . S
C442 C443 1.419 . S
C442 H471 0.948 . S
C443 C442 1.419 . S
C443 C444 1.391 . S
C443 C447 1.397 . S
C444 C439 1.391 . S
C444 C443 1.391 . S
C444 C445 1.399 . S
C445 C444 1.399 . S
C445 C446 1.396 . S
C445 C448 1.453 . S
C445 C449 1.684 . S
C446 C427 1.723 . S
C446 C445 1.396 . S
C446 C447 1.394 . S
C447 C443 1.397 . S
C447 C446 1.394 . S
C447 C457 1.723 . S
C448 C445 1.453 . S
C448 H472 0.982 . S
C448 H473 0.979 . S
C448 H474 0.977 . S
C449 C445 1.684 . S
C449 H475 0.979 . S
C449 H476 0.980 . S
C449 H477 0.983 . S
C450 H426 0.948 . S
C450 C451 1.391 . S
C450 C455 1.391 . S
C451 C450 1.391 . S
C451 C452 1.391 . S
C452 H429 0.947 . S
C452 C451 1.391 . S
C452 C453 1.392 . S
C453 H430 0.948 . S
C453 C452 1.392 . S
C453 C454 1.419 . S
C454 C453 1.419 . S
C454 C455 1.391 . S
C454 C458 1.397 . S
C455 C450 1.391 . S
C455 C454 1.391 . S
C455 C456 1.399 . S
C456 C455 1.399 . S
C456 C457 1.396 . S
C456 C459 1.453 . S
C456 C460 1.684 . S
C457 C447 1.723 . S
C457 C456 1.396 . S
C457 C458 1.394 . S
C458 C428 1.723 . S
C458 C454 1.397 . S
C458 C457 1.394 . S
C459 H431 0.982 . S
C459 H435 0.979 . S
C459 H436 0.977 . S
C459 C456 1.453 . S
C460 H432 0.979 . S
C460 H433 0.980 . S
C460 H434 0.983 . S
C460 C456 1.684 . S
H461 C479 0.948 . S
H462 C420 0.948 . S
H463 C438 0.979 . S
H464 C438 0.980 . S
H465 C438 0.983 . S
H466 C437 0.982 . S
H467 C437 0.979 . S
H468 C437 0.977 . S
H469 C439 0.948 . S
H470 C441 0.954 . S
H471 C442 0.948 . S
H472 C448 0.982 . S
H473 C448 0.979 . S
H474 C448 0.977 . S
H475 C449 0.979 . S
H476 C449 0.980 . S
H477 C449 0.983 . S
H478 C422 0.947 . S
C479 C422 1.392 . S
C479 C423 1.419 . S
C479 H461 0.948 . S
Eu480 N509 2.600 . S
Eu480 N515 2.562 . S
Eu480 O524 2.462 . S
Eu480 O525 2.373 . S
Eu480 O527 2.432 . S
Eu480 O528 2.300 . S
Eu480 O532 2.335 . S
Eu480 O535 2.372 . S
Eu480 C544 2.787 . S
C481 N482 1.365 . S
C481 C484 1.405 . S
C481 C488 1.448 . S
N482 C481 1.365 . S
N482 C485 1.319 . S
N482 Eu491 2.600 . S
C483 C485 1.397 . S
C483 C486 1.367 . S
C483 H503 0.931 . S
C484 C481 1.405 . S
C484 C486 1.403 . S
C484 C490 1.439 . S
C485 N482 1.319 . S
C485 C483 1.397 . S
C485 H496 0.930 . S
C486 C483 1.367 . S
C486 C484 1.403 . S
C486 H507 0.929 . S
C487 C488 1.430 . S
C487 C489 1.387 . S
C487 C493 1.404 . S
C488 C481 1.448 . S
C488 C487 1.430 . S
C488 N492 1.351 . S
C489 C487 1.387 . S
C489 C490 1.374 . S
C489 H504 0.931 . S
C490 C484 1.439 . S
C490 C489 1.374 . S
C490 H505 0.931 . S
Eu491 N482 2.600 . S
Eu491 N492 2.562 . S
Eu491 O526 2.324 1_655 S
Eu491 O529 2.372 . S
Eu491 O530 2.462 . S
Eu491 O531 2.373 . S
Eu491 O533 2.432 . S
Eu491 O534 2.291 1_655 S
Eu491 C555 2.787 . S
N492 C488 1.351 . S
N492 Eu491 2.562 . S
N492 C494 1.325 . S
C493 C487 1.404 . S
C493 C495 1.366 . S
C493 H501 0.930 . S
C494 N492 1.325 . S
C494 C495 1.416 . S
C494 H500 0.929 . S
C495 C493 1.366 . S
C495 C494 1.416 . S
C495 H497 0.930 . S
H496 C485 0.930 . S
H497 C495 0.930 . S
H498 C513 0.930 . S
H499 C520 0.930 . S
H500 C494 0.929 . S
H501 C493 0.930 . S
H502 C516 0.929 . S
H503 C483 0.931 . S
H504 C489 0.931 . S
H505 C490 0.931 . S
H506 C511 0.931 . S
H507 C486 0.929 . S
H508 C519 0.930 . S
N509 Eu480 2.600 . S
N509 C510 1.365 . S
N509 C513 1.319 . S
C510 N509 1.365 . S
C510 C512 1.405 . S
C510 C518 1.448 . S
C511 H506 0.931 . S
C511 C513 1.397 . S
C511 C514 1.367 . S
C512 C510 1.405 . S
C512 C514 1.403 . S
C512 C545 1.439 . S
C513 H498 0.930 . S
C513 N509 1.319 . S
C513 C511 1.397 . S
C514 C511 1.367 . S
C514 C512 1.403 . S
C514 H521 0.929 . S
N515 Eu480 2.562 . S
N515 C516 1.325 . S
N515 C518 1.351 . S
C516 H502 0.929 . S
C516 N515 1.325 . S
C516 C520 1.416 . S
C517 C518 1.430 . S
C517 C519 1.404 . S
C517 C546 1.387 . S
C518 C510 1.448 . S
C518 N515 1.351 . S
C518 C517 1.430 . S
C519 H508 0.930 . S
C519 C517 1.404 . S
C519 C520 1.366 . S
C520 H499 0.930 . S
C520 C516 1.416 . S
C520 C519 1.366 . S
H521 C514 0.929 . S
H522 C545 0.931 . S
H523 C546 0.931 . S
O524 Eu480 2.462 . S
O524 C544 1.252 . S
O525 Eu480 2.373 . S
O525 C536 1.249 . S
O526 Eu491 2.324 1_455 S
O526 C536 1.278 . S
O527 Eu480 2.432 . S
O527 C544 1.268 . S
O528 Eu480 2.300 . S
O528 C543 1.245 1_455 S
O529 Eu491 2.372 . S
O529 C543 1.257 . S
O530 Eu491 2.462 . S
O530 C555 1.252 . S
O531 Eu491 2.373 . S
O531 C547 1.249 . S
O532 Eu480 2.335 . S
O532 C547 1.264 1_455 S
O533 Eu491 2.432 . S
O533 C555 1.268 . S
O534 Eu491 2.291 1_455 S
O534 C554 1.255 . S
O535 Eu480 2.372 . S
O535 C554 1.257 . S
C536 O525 1.249 . S
C536 O526 1.278 . S
C537 C540 1.382 . S
C537 C542 1.390 . S
C537 C544 1.506 . S
C538 C539 1.398 . S
C538 C542 1.392 . S
C539 C538 1.398 . S
C539 C541 1.372 . S
C539 H556 0.931 . S
C540 C537 1.382 . S
C540 C541 1.390 . S
C540 H557 0.931 . S
C541 C539 1.372 . S
C541 C540 1.390 . S
C541 H558 0.929 . S
C542 C537 1.390 . S
C542 C538 1.392 . S
C542 H559 0.930 . S
C543 O528 1.245 1_655 S
C543 O529 1.257 . S
C544 Eu480 2.787 . S
C544 O524 1.252 . S
C544 O527 1.268 . S
C544 C537 1.506 . S
C545 C512 1.439 . S
C545 H522 0.931 . S
C545 C546 1.374 . S
C546 C517 1.387 . S
C546 H523 0.931 . S
C546 C545 1.374 . S
C547 O531 1.249 . S
C547 O532 1.264 1_655 S
C548 C551 1.382 . S
C548 C552 1.390 . S
C548 C555 1.506 . S
C549 C550 1.398 . S
C549 C552 1.392 . S
C550 C549 1.398 . S
C550 C553 1.372 . S
C550 H560 0.931 . S
C551 C548 1.382 . S
C551 C553 1.390 . S
C551 H561 0.931 . S
C552 C548 1.390 . S
C552 C549 1.392 . S
C552 H562 0.930 . S
C553 C550 1.372 . S
C553 C551 1.390 . S
C553 H563 0.929 . S
C554 O534 1.255 . S
C554 O535 1.257 . S
C555 Eu491 2.787 . S
C555 O530 1.252 . S
C555 O533 1.268 . S
C555 C548 1.506 . S
H556 C539 0.931 . S
H557 C540 0.931 . S
H558 C541 0.929 . S
H559 C542 0.930 . S
H560 C550 0.931 . S
H561 C551 0.931 . S
H562 C552 0.930 . S
H563 C553 0.929 . S
Eu564 N593 2.600 . S
Eu564 N599 2.562 . S
Eu564 O608 2.462 . S
Eu564 O609 2.373 . S
Eu564 O611 2.432 . S
Eu564 O612 2.291 . S
Eu564 O616 2.335 . S
Eu564 O619 2.372 . S
Eu564 C628 2.787 . S
C565 N566 1.365 . S
C565 C568 1.405 . S
C565 C572 1.448 . S
N566 C565 1.365 . S
N566 C569 1.319 . S
N566 Eu575 2.600 . S
C567 C569 1.397 . S
C567 C570 1.367 . S
C567 H587 0.931 . S
C568 C565 1.405 . S
C568 C570 1.403 . S
C568 C574 1.439 . S
C569 N566 1.319 . S
C569 C567 1.397 . S
C569 H580 0.930 . S
C570 C567 1.367 . S
C570 C568 1.403 . S
C570 H591 0.929 . S
C571 C572 1.430 . S
C571 C573 1.387 . S
C571 C577 1.404 . S
C572 C565 1.448 . S
C572 C571 1.430 . S
C572 N576 1.351 . S
C573 C571 1.387 . S
C573 C574 1.374 . S
C573 H588 0.931 . S
C574 C568 1.439 . S
C574 C573 1.374 . S
C574 H589 0.931 . S
Eu575 N566 2.600 . S
Eu575 N576 2.562 . S
Eu575 O610 2.335 . S
Eu575 O613 2.372 . S
Eu575 O614 2.462 . S
Eu575 O615 2.373 . S
Eu575 O617 2.432 . S
Eu575 O618 2.291 . S
Eu575 C639 2.787 . S
N576 C572 1.351 . S
N576 Eu575 2.562 . S
N576 C578 1.325 . S
C577 C571 1.404 . S
C577 C579 1.366 . S
C577 H585 0.930 . S
C578 N576 1.325 . S
C578 C579 1.416 . S
C578 H584 0.929 . S
C579 C577 1.366 . S
C579 C578 1.416 . S
C579 H581 0.930 . S
H580 C569 0.930 . S
H581 C579 0.930 . S
H582 C597 0.930 . S
H583 C604 0.930 . S
H584 C578 0.929 . S
H585 C577 0.930 . S
H586 C600 0.929 . S
H587 C567 0.931 . S
H588 C573 0.931 . S
H589 C574 0.931 . S
H590 C595 0.931 . S
H591 C570 0.929 . S
H592 C603 0.930 . S
N593 Eu564 2.600 . S
N593 C594 1.365 . S
N593 C597 1.319 . S
C594 N593 1.365 . S
C594 C596 1.405 . S
C594 C602 1.448 . S
C595 H590 0.931 . S
C595 C597 1.397 . S
C595 C598 1.367 . S
C596 C594 1.405 . S
C596 C598 1.403 . S
C596 C629 1.439 . S
C597 H582 0.930 . S
C597 N593 1.319 . S
C597 C595 1.397 . S
C598 C595 1.367 . S
C598 C596 1.403 . S
C598 H605 0.929 . S
N599 Eu564 2.562 . S
N599 C600 1.325 . S
N599 C602 1.351 . S
C600 H586 0.929 . S
C600 N599 1.325 . S
C600 C604 1.416 . S
C601 C602 1.430 . S
C601 C603 1.404 . S
C601 C630 1.387 . S
C602 C594 1.448 . S
C602 N599 1.351 . S
C602 C601 1.430 . S
C603 H592 0.930 . S
C603 C601 1.404 . S
C603 C604 1.366 . S
C604 H583 0.930 . S
C604 C600 1.416 . S
C604 C603 1.366 . S
H605 C598 0.929 . S
H606 C629 0.931 . S
H607 C630 0.931 . S
O608 Eu564 2.462 . S
O608 C628 1.252 . S
O609 Eu564 2.373 . S
O609 C620 1.249 . S
O610 Eu575 2.335 . S
O610 C620 1.264 . S
O611 Eu564 2.432 . S
O611 C628 1.268 . S
O612 Eu564 2.291 . S
O612 C627 1.255 . S
O613 Eu575 2.372 . S
O613 C627 1.257 . S
O614 Eu575 2.462 . S
O614 C639 1.252 . S
O615 Eu575 2.373 . S
O615 C631 1.249 . S
O616 Eu564 2.335 . S
O616 C631 1.264 . S
O617 Eu575 2.432 . S
O617 C639 1.268 . S
O618 Eu575 2.291 . S
O618 C638 1.255 . S
O619 Eu564 2.372 . S
O619 C638 1.257 . S
C620 O609 1.249 . S
C620 O610 1.264 . S
C621 C624 1.382 . S
C621 C626 1.390 . S
C621 C628 1.506 . S
C622 C623 1.398 . S
C622 C626 1.392 . S
C623 C622 1.398 . S
C623 C625 1.372 . S
C623 H640 0.931 . S
C624 C621 1.382 . S
C624 C625 1.390 . S
C624 H641 0.931 . S
C625 C623 1.372 . S
C625 C624 1.390 . S
C625 H642 0.929 . S
C626 C621 1.390 . S
C626 C622 1.392 . S
C626 H643 0.930 . S
C627 O612 1.255 . S
C627 O613 1.257 . S
C628 Eu564 2.787 . S
C628 O608 1.252 . S
C628 O611 1.268 . S
C628 C621 1.506 . S
C629 C596 1.439 . S
C629 H606 0.931 . S
C629 C630 1.374 . S
C630 C601 1.387 . S
C630 H607 0.931 . S
C630 C629 1.374 . S
C631 O615 1.249 . S
C631 O616 1.264 . S
C632 C635 1.382 . S
C632 C636 1.390 . S
C632 C639 1.506 . S
C633 C634 1.398 . S
C633 C636 1.392 . S
C634 C633 1.398 . S
C634 C637 1.372 . S
C634 H644 0.931 . S
C635 C632 1.382 . S
C635 C637 1.390 . S
C635 H645 0.931 . S
C636 C632 1.390 . S
C636 C633 1.392 . S
C636 H646 0.930 . S
C637 C634 1.372 . S
C637 C635 1.390 . S
C637 H647 0.929 . S
C638 O618 1.255 . S
C638 O619 1.257 . S
C639 Eu575 2.787 . S
C639 O614 1.252 . S
C639 O617 1.268 . S
C639 C632 1.506 . S
H640 C623 0.931 . S
H641 C624 0.931 . S
H642 C625 0.929 . S
H643 C626 0.930 . S
H644 C634 0.931 . S
H645 C635 0.931 . S
H646 C636 0.930 . S
H647 C637 0.929 . S
Eu648 N677 2.600 . S
Eu648 N683 2.562 . S
Eu648 O692 2.462 . S
Eu648 O693 2.373 . S
Eu648 O695 2.432 . S
Eu648 O696 2.291 . S
Eu648 O700 2.335 . S
Eu648 O703 2.372 . S
Eu648 C712 2.787 . S
C649 N650 1.365 . S
C649 C652 1.405 . S
C649 C656 1.448 . S
N650 C649 1.365 . S
N650 C653 1.319 . S
N650 Eu659 2.600 . S
C651 C653 1.397 . S
C651 C654 1.367 . S
C651 H671 0.931 . S
C652 C649 1.405 . S
C652 C654 1.403 . S
C652 C658 1.439 . S
C653 N650 1.319 . S
C653 C651 1.397 . S
C653 H664 0.930 . S
C654 C651 1.367 . S
C654 C652 1.403 . S
C654 H675 0.929 . S
C655 C656 1.430 . S
C655 C657 1.387 . S
C655 C661 1.404 . S
C656 C649 1.448 . S
C656 C655 1.430 . S
C656 N660 1.351 . S
C657 C655 1.387 . S
C657 C658 1.374 . S
C657 H672 0.931 . S
C658 C652 1.439 . S
C658 C657 1.374 . S
C658 H673 0.931 . S
Eu659 N650 2.600 . S
Eu659 N660 2.562 . S
Eu659 O694 2.335 1_655 S
Eu659 O697 2.372 . S
Eu659 O698 2.462 . S
Eu659 O699 2.373 . S
Eu659 O701 2.432 . S
Eu659 O702 2.291 1_655 S
Eu659 C723 2.787 . S
N660 C656 1.351 . S
N660 Eu659 2.562 . S
N660 C662 1.325 . S
C661 C655 1.404 . S
C661 C663 1.366 . S
C661 H669 0.930 . S
C662 N660 1.325 . S
C662 C663 1.416 . S
C662 H668 0.929 . S
C663 C661 1.366 . S
C663 C662 1.416 . S
C663 H665 0.930 . S
H664 C653 0.930 . S
H665 C663 0.930 . S
H666 C681 0.930 . S
H667 C688 0.930 . S
H668 C662 0.929 . S
H669 C661 0.930 . S
H670 C684 0.929 . S
H671 C651 0.931 . S
H672 C657 0.931 . S
H673 C658 0.931 . S
H674 C679 0.931 . S
H675 C654 0.929 . S
H676 C687 0.930 . S
N677 Eu648 2.600 . S
N677 C678 1.365 . S
N677 C681 1.319 . S
C678 N677 1.365 . S
C678 C680 1.405 . S
C678 C686 1.448 . S
C679 H674 0.931 . S
C679 C681 1.397 . S
C679 C682 1.367 . S
C680 C678 1.405 . S
C680 C682 1.403 . S
C680 C713 1.439 . S
C681 H666 0.930 . S
C681 N677 1.319 . S
C681 C679 1.397 . S
C682 C679 1.367 . S
C682 C680 1.403 . S
C682 H689 0.929 . S
N683 Eu648 2.562 . S
N683 C684 1.325 . S
N683 C686 1.351 . S
C684 H670 0.929 . S
C684 N683 1.325 . S
C684 C688 1.416 . S
C685 C686 1.430 . S
C685 C687 1.404 . S
C685 C714 1.387 . S
C686 C678 1.448 . S
C686 N683 1.351 . S
C686 C685 1.430 . S
C687 H676 0.930 . S
C687 C685 1.404 . S
C687 C688 1.366 . S
C688 H667 0.930 . S
C688 C684 1.416 . S
C688 C687 1.366 . S
H689 C682 0.929 . S
H690 C713 0.931 . S
H691 C714 0.931 . S
O692 Eu648 2.462 . S
O692 C712 1.252 . S
O693 Eu648 2.373 . S
O693 C704 1.249 . S
O694 Eu659 2.335 1_455 S
O694 C704 1.264 . S
O695 Eu648 2.432 . S
O695 C712 1.268 . S
O696 Eu648 2.291 . S
O696 C711 1.255 1_455 S
O697 Eu659 2.372 . S
O697 C711 1.257 . S
O698 Eu659 2.462 . S
O698 C723 1.252 . S
O699 Eu659 2.373 . S
O699 C715 1.249 . S
O700 Eu648 2.335 . S
O700 C715 1.264 1_455 S
O701 Eu659 2.432 . S
O701 C723 1.268 . S
O702 Eu659 2.291 1_455 S
O702 C722 1.255 . S
O703 Eu648 2.372 . S
O703 C722 1.257 . S
C704 O693 1.249 . S
C704 O694 1.264 . S
C705 C708 1.382 . S
C705 C710 1.390 . S
C705 C712 1.506 . S
C706 C707 1.398 . S
C706 C710 1.392 . S
C707 C706 1.398 . S
C707 C709 1.372 . S
C707 H724 0.931 . S
C708 C705 1.382 . S
C708 C709 1.390 . S
C708 H725 0.931 . S
C709 C707 1.372 . S
C709 C708 1.390 . S
C709 H726 0.929 . S
C710 C705 1.390 . S
C710 C706 1.392 . S
C710 H727 0.930 . S
C711 O696 1.255 1_655 S
C711 O697 1.257 . S
C712 Eu648 2.787 . S
C712 O692 1.252 . S
C712 O695 1.268 . S
C712 C705 1.506 . S
C713 C680 1.439 . S
C713 H690 0.931 . S
C713 C714 1.374 . S
C714 C685 1.387 . S
C714 H691 0.931 . S
C714 C713 1.374 . S
C715 O699 1.249 . S
C715 O700 1.264 1_655 S
C716 C719 1.382 . S
C716 C720 1.390 . S
C716 C723 1.506 . S
C717 C718 1.398 . S
C717 C720 1.392 . S
C718 C717 1.398 . S
C718 C721 1.372 . S
C718 H728 0.931 . S
C719 C716 1.382 . S
C719 C721 1.390 . S
C719 H729 0.931 . S
C720 C716 1.390 . S
C720 C717 1.392 . S
C720 H730 0.930 . S
C721 C718 1.372 . S
C721 C719 1.390 . S
C721 H731 0.929 . S
C722 O702 1.255 . S
C722 O703 1.257 . S
C723 Eu659 2.787 . S
C723 O698 1.252 . S
C723 O701 1.268 . S
C723 C716 1.506 . S
H724 C707 0.931 . S
H725 C708 0.931 . S
H726 C709 0.929 . S
H727 C710 0.930 . S
H728 C718 0.931 . S
H729 C719 0.931 . S
H730 C720 0.930 . S
H731 C721 0.929 . S
Eu732 N761 2.600 . S
Eu732 N767 2.562 . S
Eu732 O776 2.462 . S
Eu732 O777 2.373 . S
Eu732 O779 2.432 . S
Eu732 O780 2.291 . S
Eu732 O784 2.335 . S
Eu732 O787 2.372 . S
Eu732 C796 2.787 . S
C733 N734 1.365 . S
C733 C736 1.405 . S
C733 C740 1.448 . S
N734 C733 1.365 . S
N734 C737 1.319 . S
N734 Eu743 2.600 . S
C735 C737 1.397 . S
C735 C738 1.367 . S
C735 H755 0.931 . S
C736 C733 1.405 . S
C736 C738 1.403 . S
C736 C742 1.439 . S
C737 N734 1.319 . S
C737 C735 1.397 . S
C737 H748 0.930 . S
C738 C735 1.367 . S
C738 C736 1.403 . S
C738 H759 0.929 . S
C739 C740 1.430 . S
C739 C741 1.387 . S
C739 C745 1.404 . S
C740 C733 1.448 . S
C740 C739 1.430 . S
C740 N744 1.351 . S
C741 C739 1.387 . S
C741 C742 1.374 . S
C741 H756 0.931 . S
C742 C736 1.439 . S
C742 C741 1.374 . S
C742 H757 0.931 . S
Eu743 N734 2.600 . S
Eu743 N744 2.562 . S
Eu743 O778 2.335 . S
Eu743 O781 2.372 . S
Eu743 O782 2.462 . S
Eu743 O783 2.373 . S
Eu743 O785 2.432 . S
Eu743 O786 2.291 . S
Eu743 C807 2.787 . S
N744 C740 1.351 . S
N744 Eu743 2.562 . S
N744 C746 1.325 . S
C745 C739 1.404 . S
C745 C747 1.366 . S
C745 H753 0.930 . S
C746 N744 1.325 . S
C746 C747 1.416 . S
C746 H752 0.929 . S
C747 C745 1.366 . S
C747 C746 1.416 . S
C747 H749 0.930 . S
H748 C737 0.930 . S
H749 C747 0.930 . S
H750 C765 0.930 . S
H751 C772 0.930 . S
H752 C746 0.929 . S
H753 C745 0.930 . S
H754 C768 0.929 . S
H755 C735 0.931 . S
H756 C741 0.931 . S
H757 C742 0.931 . S
H758 C763 0.931 . S
H759 C738 0.929 . S
H760 C771 0.930 . S
N761 Eu732 2.600 . S
N761 C762 1.365 . S
N761 C765 1.319 . S
C762 N761 1.365 . S
C762 C764 1.405 . S
C762 C770 1.448 . S
C763 H758 0.931 . S
C763 C765 1.397 . S
C763 C766 1.367 . S
C764 C762 1.405 . S
C764 C766 1.403 . S
C764 C797 1.439 . S
C765 H750 0.930 . S
C765 N761 1.319 . S
C765 C763 1.397 . S
C766 C763 1.367 . S
C766 C764 1.403 . S
C766 H773 0.929 . S
N767 Eu732 2.562 . S
N767 C768 1.325 . S
N767 C770 1.351 . S
C768 H754 0.929 . S
C768 N767 1.325 . S
C768 C772 1.416 . S
C769 C770 1.430 . S
C769 C771 1.404 . S
C769 C798 1.387 . S
C770 C762 1.448 . S
C770 N767 1.351 . S
C770 C769 1.430 . S
C771 H760 0.930 . S
C771 C769 1.404 . S
C771 C772 1.366 . S
C772 H751 0.930 . S
C772 C768 1.416 . S
C772 C771 1.366 . S
H773 C766 0.929 . S
H774 C797 0.931 . S
H775 C798 0.931 . S
O776 Eu732 2.462 . S
O776 C796 1.252 . S
O777 Eu732 2.373 . S
O777 C788 1.249 . S
O778 Eu743 2.335 . S
O778 C788 1.264 . S
O779 Eu732 2.432 . S
O779 C796 1.268 . S
O780 Eu732 2.291 . S
O780 C795 1.255 . S
O781 Eu743 2.372 . S
O781 C795 1.257 . S
O782 Eu743 2.462 . S
O782 C807 1.252 . S
O783 Eu743 2.373 . S
O783 C799 1.249 . S
O784 Eu732 2.335 . S
O784 C799 1.264 . S
O785 Eu743 2.432 . S
O785 C807 1.268 . S
O786 Eu743 2.291 . S
O786 C806 1.255 . S
O787 Eu732 2.372 . S
O787 C806 1.257 . S
C788 O777 1.249 . S
C788 O778 1.264 . S
C789 C792 1.382 . S
C789 C794 1.390 . S
C789 C796 1.506 . S
C790 C791 1.398 . S
C790 C794 1.392 . S
C791 C790 1.398 . S
C791 C793 1.372 . S
C791 H808 0.931 . S
C792 C789 1.382 . S
C792 C793 1.390 . S
C792 H809 0.931 . S
C793 C791 1.372 . S
C793 C792 1.390 . S
C793 H810 0.929 . S
C794 C789 1.390 . S
C794 C790 1.392 . S
C794 H811 0.930 . S
C795 O780 1.255 . S
C795 O781 1.257 . S
C796 Eu732 2.787 . S
C796 O776 1.252 . S
C796 O779 1.268 . S
C796 C789 1.506 . S
C797 C764 1.439 . S
C797 H774 0.931 . S
C797 C798 1.374 . S
C798 C769 1.387 . S
C798 H775 0.931 . S
C798 C797 1.374 . S
C799 O783 1.249 . S
C799 O784 1.264 . S
C800 C803 1.382 . S
C800 C804 1.390 . S
C800 C807 1.506 . S
C801 C802 1.398 . S
C801 C804 1.392 . S
C802 C801 1.398 . S
C802 C805 1.372 . S
C802 H812 0.931 . S
C803 C800 1.382 . S
C803 C805 1.390 . S
C803 H813 0.931 . S
C804 C800 1.390 . S
C804 C801 1.392 . S
C804 H814 0.930 . S
C805 C802 1.372 . S
C805 C803 1.390 . S
C805 H815 0.929 . S
C806 O786 1.255 . S
C806 O787 1.257 . S
C807 Eu743 2.787 . S
C807 O782 1.252 . S
C807 O785 1.268 . S
C807 C800 1.506 . S
H808 C791 0.931 . S
H809 C792 0.931 . S
H810 C793 0.929 . S
H811 C794 0.930 . S
H812 C802 0.931 . S
H813 C803 0.931 . S
H814 C804 0.930 . S
H815 C805 0.929 . S
C816 C817 1.387 . S
C816 H820 0.950 1_545 S
C816 C825 1.390 . S
C817 C816 1.387 . S
C817 C819 1.387 . S
H818 C825 0.950 . S
C819 C817 1.387 . S
C819 C821 1.390 . S
C819 H823 0.950 . S
H820 C816 0.950 1_565 S
C821 C819 1.390 . S
C821 C822 1.387 . S
C821 H824 0.950 . S
C822 C821 1.387 . S
C822 C825 1.387 . S
H823 C819 0.950 . S
H824 C821 0.950 . S
C825 C816 1.390 . S
C825 H818 0.950 . S
C825 C822 1.387 . S
C826 C827 1.387 . S
C826 H830 0.950 . S
C826 C835 1.390 . S
C827 C826 1.387 . S
C827 C829 1.387 . S
H828 C835 0.950 . S
C829 C827 1.387 . S
C829 C831 1.390 . S
C829 H833 0.950 . S
H830 C826 0.950 . S
C831 C829 1.390 . S
C831 C832 1.387 . S
C831 H834 0.950 . S
C832 C831 1.387 . S
C832 C835 1.387 . S
H833 C829 0.950 . S
H834 C831 0.950 . S
C835 C826 1.390 . S
C835 H828 0.950 . S
C835 C832 1.387 . S
C836 C837 1.387 . S
C836 H840 0.950 . S
C836 C845 1.390 . S
C837 C836 1.387 . S
C837 C839 1.387 . S
H838 C845 0.950 . S
C839 C837 1.387 . S
C839 C841 1.390 . S
C839 H843 0.950 . S
H840 C836 0.950 . S
C841 C839 1.390 . S
C841 C842 1.387 . S
C841 H844 0.950 . S
C842 C841 1.387 . S
C842 C845 1.387 . S
H843 C839 0.950 . S
H844 C841 0.950 . S
C845 C836 1.390 . S
C845 H838 0.950 . S
C845 C842 1.387 . S
C846 C847 1.387 . S
C846 H850 0.950 . S
C846 C855 1.390 . S
C847 C846 1.387 . S
C847 C849 1.387 . S
H848 C855 0.950 . S
C849 C847 1.387 . S
C849 C851 1.390 . S
C849 H853 0.950 1_545 S
H850 C846 0.950 . S
C851 C849 1.390 . S
C851 C852 1.387 . S
C851 H854 0.950 . S
C852 C851 1.387 . S
C852 C855 1.387 . S
H853 C849 0.950 1_565 S
H854 C851 0.950 . S
C855 C846 1.390 . S
C855 H848 0.950 . S
C855 C852 1.387 . S
C856 C857 1.387 . S
C856 H860 0.950 . S
C856 C865 1.390 . S
C857 C856 1.387 . S
C857 C859 1.387 . S
H858 C865 0.950 . S
C859 C857 1.387 . S
C859 C861 1.390 . S
C859 H863 0.950 . S
H860 C856 0.950 . S
C861 C859 1.390 . S
C861 C862 1.387 . S
C861 H864 0.950 . S
C862 C861 1.387 . S
C862 C865 1.387 . S
H863 C859 0.950 . S
H864 C861 0.950 . S
C865 C856 1.390 . S
C865 H858 0.950 . S
C865 C862 1.387 . S
C866 C867 1.387 . S
C866 H870 0.950 . S
C866 C875 1.390 . S
C867 C866 1.387 . S
C867 C869 1.387 . S
H868 C875 0.950 . S
C869 C867 1.387 . S
C869 C871 1.390 . S
C869 H873 0.950 . S
H870 C866 0.950 . S
C871 C869 1.390 . S
C871 C872 1.387 . S
C871 H874 0.950 . S
C872 C871 1.387 . S
C872 C875 1.387 . S
H873 C869 0.950 . S
H874 C871 0.950 . S
C875 C866 1.390 . S
C875 H868 0.950 . S
C875 C872 1.387 . S
C876 C877 1.387 . S
C876 H880 0.950 . S
C876 C885 1.390 . S
C877 C876 1.387 . S
C877 C879 1.387 . S
H878 C885 0.950 . S
C879 C877 1.387 . S
C879 C881 1.390 . S
C879 H883 0.950 . S
H880 C876 0.950 . S
C881 C879 1.390 . S
C881 C882 1.387 . S
C881 H884 0.950 . S
C882 C881 1.387 . S
C882 C885 1.387 . S
H883 C879 0.950 . S
H884 C881 0.950 . S
C885 C876 1.390 . S
C885 H878 0.950 . S
C885 C882 1.387 . S
C886 C887 1.387 . S
C886 H890 0.950 1_565 S
C886 C895 1.390 . S
C887 C886 1.387 . S
C887 C889 1.387 . S
H888 C895 0.950 . S
C889 C887 1.387 . S
C889 C891 1.390 . S
C889 H893 0.950 . S
H890 C886 0.950 1_545 S
C891 C889 1.390 . S
C891 C892 1.387 . S
C891 H894 0.950 . S
C892 C891 1.387 . S
C892 C895 1.387 . S
H893 C889 0.950 . S
H894 C891 0.950 . S
C895 C886 1.390 . S
C895 H888 0.950 . S
C895 C892 1.387 . S
C896 C897 1.387 . S
C896 H900 0.950 . S
C896 C905 1.390 . S
C897 C896 1.387 . S
C897 C899 1.387 . S
H898 C905 0.950 . S
C899 C897 1.387 . S
C899 C901 1.390 . S
C899 H903 0.950 . S
H900 C896 0.950 . S
C901 C899 1.390 . S
C901 C902 1.387 . S
C901 H904 0.950 . S
C902 C901 1.387 . S
C902 C905 1.387 . S
H903 C899 0.950 . S
H904 C901 0.950 . S
C905 C896 1.390 . S
C905 H898 0.950 . S
C905 C902 1.387 . S
C906 C907 1.387 . S
C906 H910 0.950 . S
C906 C915 1.390 . S
C907 C906 1.387 . S
C907 C909 1.387 . S
H908 C915 0.950 . S
C909 C907 1.387 . S
C909 C911 1.390 . S
C909 H913 0.950 . S
H910 C906 0.950 . S
C911 C909 1.390 . S
C911 C912 1.387 . S
C911 H914 0.950 . S
C912 C911 1.387 . S
C912 C915 1.387 . S
H913 C909 0.950 . S
H914 C911 0.950 . S
C915 C906 1.390 . S
C915 H908 0.950 . S
C915 C912 1.387 . S
C916 C917 1.387 . S
C916 H920 0.950 . S
C916 C925 1.390 . S
C917 C916 1.387 . S
C917 C919 1.387 . S
H918 C925 0.950 . S
C919 C917 1.387 . S
C919 C921 1.390 . S
C919 H923 0.950 . S
H920 C916 0.950 . S
C921 C919 1.390 . S
C921 C922 1.387 . S
C921 H924 0.950 . S
C922 C921 1.387 . S
C922 C925 1.387 . S
H923 C919 0.950 . S
H924 C921 0.950 . S
C925 C916 1.390 . S
C925 H918 0.950 . S
C925 C922 1.387 . S
C926 C927 1.387 . S
C926 H930 0.950 . S
C926 C935 1.390 . S
C927 C926 1.387 . S
C927 C929 1.387 . S
H928 C935 0.950 . S
C929 C927 1.387 . S
C929 C931 1.390 . S
C929 H933 0.950 . S
H930 C926 0.950 . S
C931 C929 1.390 . S
C931 C932 1.387 . S
C931 H934 0.950 . S
C932 C931 1.387 . S
C932 C935 1.387 . S
H933 C929 0.950 . S
H934 C931 0.950 . S
C935 C926 1.390 . S
C935 H928 0.950 . S
C935 C932 1.387 . S
C936 C937 1.387 . S
C936 H940 0.950 . S
C936 C945 1.390 . S
C937 C936 1.387 . S
C937 C939 1.387 . S
H938 C945 0.950 . S
C939 C937 1.387 . S
C939 C941 1.390 . S
C939 H943 0.950 . S
H940 C936 0.950 . S
C941 C939 1.390 . S
C941 C942 1.387 . S
C941 H944 0.950 . S
C942 C941 1.387 . S
C942 C945 1.387 . S
H943 C939 0.950 . S
H944 C941 0.950 . S
C945 C936 1.390 . S
C945 H938 0.950 . S
C945 C942 1.387 . S
C946 C947 1.387 . S
C946 H950 0.950 . S
C946 C955 1.390 . S
C947 C946 1.387 . S
C947 C949 1.387 . S
H948 C955 0.950 . S
C949 C947 1.387 . S
C949 C951 1.390 . S
C949 H953 0.950 . S
H950 C946 0.950 . S
C951 C949 1.390 . S
C951 C952 1.387 . S
C951 H954 0.950 . S
C952 C951 1.387 . S
C952 C955 1.387 . S
H953 C949 0.950 . S
H954 C951 0.950 . S
C955 C946 1.390 . S
C955 H948 0.950 . S
C955 C952 1.387 . S
C956 C957 1.387 . S
C956 H960 0.950 . S
C956 C965 1.390 . S
C957 C956 1.387 . S
C957 C959 1.387 . S
H958 C965 0.950 . S
C959 C957 1.387 . S
C959 C961 1.390 . S
C959 H963 0.950 . S
H960 C956 0.950 . S
C961 C959 1.390 . S
C961 C962 1.387 . S
C961 H964 0.950 . S
C962 C961 1.387 . S
C962 C965 1.387 . S
H963 C959 0.950 . S
H964 C961 0.950 . S
C965 C956 1.390 . S
C965 H958 0.950 . S
C965 C962 1.387 . S
C966 C967 1.387 . S
C966 H970 0.950 . S
C966 C975 1.390 . S
C967 C966 1.387 . S
C967 C969 1.387 . S
H968 C975 0.950 . S
C969 C967 1.387 . S
C969 C971 1.390 . S
C969 H973 0.950 . S
H970 C966 0.950 . S
C971 C969 1.390 . S
C971 C972 1.387 . S
C971 H974 0.950 . S
C972 C971 1.387 . S
C972 C975 1.387 . S
H973 C969 0.950 . S
H974 C971 0.950 . S
C975 C966 1.390 . S
C975 H968 0.950 . S
C975 C972 1.387 . S
C976 C977 1.387 . S
C976 H980 0.950 . S
C976 C985 1.390 . S
C977 C976 1.387 . S
C977 C979 1.387 . S
H978 C985 0.950 . S
C979 C977 1.387 . S
C979 C981 1.390 . S
C979 H983 0.950 . S
H980 C976 0.950 . S
C981 C979 1.390 . S
C981 C982 1.387 . S
C981 H984 0.950 . S
C982 C981 1.387 . S
C982 C985 1.387 . S
H983 C979 0.950 . S
H984 C981 0.950 . S
C985 C976 1.390 . S
C985 H978 0.950 . S
C985 C982 1.387 . S
C986 C987 1.387 . S
C986 H990 0.950 . S
C986 C995 1.390 . S
C987 C986 1.387 . S
C987 C989 1.387 . S
H988 C995 0.950 . S
C989 C987 1.387 . S
C989 C991 1.390 . S
C989 H993 0.950 . S
H990 C986 0.950 . S
C991 C989 1.390 . S
C991 C992 1.387 . S
C991 H994 0.950 . S
C992 C991 1.387 . S
C992 C995 1.387 . S
H993 C989 0.950 . S
H994 C991 0.950 . S
C995 C986 1.390 . S
C995 H988 0.950 . S
C995 C992 1.387 . S
C996 C997 1.387 . S
C996 H1000 0.950 . S
C996 C1005 1.390 . S
C997 C996 1.387 . S
C997 C999 1.387 . S
H998 C1005 0.950 . S
C999 C997 1.387 . S
C999 C1001 1.390 . S
C999 H1003 0.950 . S
H1000 C996 0.950 . S
C1001 C999 1.390 . S
C1001 C1002 1.387 . S
C1001 H1004 0.950 . S
C1002 C1001 1.387 . S
C1002 C1005 1.387 . S
H1003 C999 0.950 . S
H1004 C1001 0.950 . S
C1005 C996 1.390 . S
C1005 H998 0.950 . S
C1005 C1002 1.387 . S
C1006 C1007 1.387 . S
C1006 H1010 0.950 . S
C1006 C1015 1.390 . S
C1007 C1006 1.387 . S
C1007 C1009 1.387 . S
H1008 C1015 0.950 . S
C1009 C1007 1.387 . S
C1009 C1011 1.390 . S
C1009 H1013 0.950 . S
H1010 C1006 0.950 . S
C1011 C1009 1.390 . S
C1011 C1012 1.387 . S
C1011 H1014 0.950 . S
C1012 C1011 1.387 . S
C1012 C1015 1.387 . S
H1013 C1009 0.950 . S
H1014 C1011 0.950 . S
C1015 C1006 1.390 . S
C1015 H1008 0.950 . S
C1015 C1012 1.387 . S
C1016 C1017 1.387 . S
C1016 H1020 0.950 . S
C1016 C1025 1.390 . S
C1017 C1016 1.387 . S
C1017 C1019 1.387 . S
H1018 C1025 0.950 . S
C1019 C1017 1.387 . S
C1019 C1021 1.390 . S
C1019 H1023 0.950 . S
H1020 C1016 0.950 . S
C1021 C1019 1.390 . S
C1021 C1022 1.387 . S
C1021 H1024 0.950 . S
C1022 C1021 1.387 . S
C1022 C1025 1.387 . S
H1023 C1019 0.950 . S
H1024 C1021 0.950 . S
C1025 C1016 1.390 . S
C1025 H1018 0.950 . S
C1025 C1022 1.387 . S
C1026 C1027 1.387 . S
C1026 H1030 0.950 . S
C1026 C1035 1.390 . S
C1027 C1026 1.387 . S
C1027 C1029 1.387 . S
H1028 C1035 0.950 . S
C1029 C1027 1.387 . S
C1029 C1031 1.390 . S
C1029 H1033 0.950 . S
H1030 C1026 0.950 . S
C1031 C1029 1.390 . S
C1031 C1032 1.387 . S
C1031 H1034 0.950 . S
C1032 C1031 1.387 . S
C1032 C1035 1.387 . S
H1033 C1029 0.950 . S
H1034 C1031 0.950 . S
C1035 C1026 1.390 . S
C1035 H1028 0.950 . S
C1035 C1032 1.387 . S
C1036 C1037 1.387 . S
C1036 H1040 0.950 . S
C1036 C1045 1.390 . S
C1037 C1036 1.387 . S
C1037 C1039 1.387 . S
H1038 C1045 0.950 . S
C1039 C1037 1.387 . S
C1039 C1041 1.390 . S
C1039 H1043 0.950 . S
H1040 C1036 0.950 . S
C1041 C1039 1.390 . S
C1041 C1042 1.387 . S
C1041 H1044 0.950 . S
C1042 C1041 1.387 . S
C1042 C1045 1.387 . S
H1043 C1039 0.950 . S
H1044 C1041 0.950 . S
C1045 C1036 1.390 . S
C1045 H1038 0.950 . S
C1045 C1042 1.387 . S
C1046 C1047 1.387 . S
C1046 H1050 0.950 . S
C1046 C1055 1.390 . S
C1047 C1046 1.387 . S
C1047 C1049 1.387 . S
H1048 C1055 0.950 1_655 S
C1049 C1047 1.387 . S
C1049 C1051 1.390 . S
C1049 H1053 0.950 . S
H1050 C1046 0.950 . S
C1051 C1049 1.390 . S
C1051 C1052 1.387 . S
C1051 H1054 0.950 . S
C1052 C1051 1.387 . S
C1052 C1055 1.387 . S
H1053 C1049 0.950 . S
H1054 C1051 0.950 . S
C1055 C1046 1.390 . S
C1055 H1048 0.950 1_455 S
C1055 C1052 1.387 . S
C817 C361 1.449 1_545 S
C822 C554 1.467 . S
C832 C638 1.467 . S
C827 C451 1.461 . S
C842 C631 1.472 . S
C837 C241 1.443 . S
C847 C331 1.458 1_545 S
C852 C547 1.473 . S
C862 C711 1.466 . S
C857 C140 1.440 1_565 S
C872 C795 1.466 . S
C867 C211 1.440 . S
C877 C20 1.428 . S
C882 C788 1.472 . S
C887 C91 1.429 1_565 S
C892 C704 1.472 . S
C902 C538 1.325 . S
C897 C80 1.479 . S
C912 C622 1.325 . S
C907 C1 1.478 . S
C922 C633 1.401 . S
C917 C200 1.540 . S
C932 C549 1.401 . S
C927 C121 1.494 . S
C942 C717 1.325 . S
C937 C320 1.509 . S
C947 C260 1.487 . S
C952 C801 1.322 . S
C962 C790 1.402 . S
C957 C440 1.523 . S
C967 C380 1.502 . S
C972 C706 1.405 . S
C982 C536 1.577 . S
C977 C31 1.551 . S
C992 C620 1.578 . S
C987 C61 1.553 . S
C997 C151 1.545 . S
C1002 C627 1.566 . S
C1012 C543 1.566 . S
C1007 C181 1.545 . S
C1022 C715 1.577 . S
C1017 C271 1.499 . S
C1027 C301 1.585 . S
C1032 C799 1.578 . S
C1037 C391 1.494 . S
C1042 C806 1.566 . S
C1047 C421 1.575 . S
C1052 C722 1.567 . S
