# Generated by pormake.
# Topology anh, (6,3)-cn, num edge types: 1
# Building blocks:
#     Node 0, Type 0, BuildingBlock: BETFEN_clean_sbu_0, # of connection points: 6
#     Node 1, Type 0, BuildingBlock: BETFEN_clean_sbu_0, # of connection points: 6
#     Node 2, Type 0, BuildingBlock: BETFEN_clean_sbu_0, # of connection points: 6
#     Node 3, Type 1, BuildingBlock: ESEHIV_clean_linker_0, # of connection points: 3
#     Node 4, Type 1, BuildingBlock: ESEHIV_clean_linker_0, # of connection points: 3
#     Node 5, Type 1, BuildingBlock: ESEHIV_clean_linker_0, # of connection points: 3
#     Node 6, Type 1, BuildingBlock: ESEHIV_clean_linker_0, # of connection points: 3
#     Node 7, Type 1, BuildingBlock: ESEHIV_clean_linker_0, # of connection points: 3
#     Node 8, Type 1, BuildingBlock: ESEHIV_clean_linker_0, # of connection points: 3
#     Edge 9, Type (0, 1), BuildingBlock: TEMPAE_clean_linker_10, # of connection points: 2
#     Edge 10, Type (0, 1), BuildingBlock: TEMPAE_clean_linker_10, # of connection points: 2
#     Edge 11, Type (0, 1), BuildingBlock: TEMPAE_clean_linker_10, # of connection points: 2
#     Edge 12, Type (0, 1), BuildingBlock: TEMPAE_clean_linker_10, # of connection points: 2
#     Edge 13, Type (0, 1), BuildingBlock: TEMPAE_clean_linker_10, # of connection points: 2
#     Edge 14, Type (0, 1), BuildingBlock: TEMPAE_clean_linker_10, # of connection points: 2
#     Edge 15, Type (0, 1), BuildingBlock: TEMPAE_clean_linker_10, # of connection points: 2
#     Edge 16, Type (0, 1), BuildingBlock: TEMPAE_clean_linker_10, # of connection points: 2
#     Edge 17, Type (0, 1), BuildingBlock: TEMPAE_clean_linker_10, # of connection points: 2
#     Edge 18, Type (0, 1), BuildingBlock: TEMPAE_clean_linker_10, # of connection points: 2
#     Edge 19, Type (0, 1), BuildingBlock: TEMPAE_clean_linker_10, # of connection points: 2
#     Edge 20, Type (0, 1), BuildingBlock: TEMPAE_clean_linker_10, # of connection points: 2
#     Edge 21, Type (0, 1), BuildingBlock: TEMPAE_clean_linker_10, # of connection points: 2
#     Edge 22, Type (0, 1), BuildingBlock: TEMPAE_clean_linker_10, # of connection points: 2
#     Edge 23, Type (0, 1), BuildingBlock: TEMPAE_clean_linker_10, # of connection points: 2
#     Edge 24, Type (0, 1), BuildingBlock: TEMPAE_clean_linker_10, # of connection points: 2
#     Edge 25, Type (0, 1), BuildingBlock: TEMPAE_clean_linker_10, # of connection points: 2
#     Edge 26, Type (0, 1), BuildingBlock: TEMPAE_clean_linker_10, # of connection points: 2
# Relax obj value: 0.215
# Max RMSD: 0.224
# Mean RMSD: 0.165
data_MOF--net-anh--node1-BETFEN_clean_sbu_0--node2-ESEHIV_clean_linker_0--edge1-TEMPAE_clean_linker_10
_symmetry_space_group_name_H-M    P1
_symmetry_Int_Tables_number       1
_symmetry_cell_setting            triclinic
loop_
_symmetry_equiv_pos_as_xyz
'x, y, z'
_cell_length_a     27.774101
_cell_length_b     28.732681
_cell_length_c     53.193363
_cell_angle_alpha  90.459638
_cell_angle_beta   91.58756
_cell_angle_gamma 102.65303
loop_
_atom_site_label
_atom_site_type_symbol
_atom_site_fract_x
_atom_site_fract_y
_atom_site_fract_z
_atom_type_partial_charge
Pr0 Pr 0.07688 0.54628 0.14383 0.0
Pr1 Pr 0.10005 0.65256 0.13839 0.0
C2 C 0.04133 0.45504 0.15677 0.0
C3 C 0.99517 0.42492 0.16597 0.0
C4 C 0.95913 0.39952 0.14892 0.0
C5 C 0.91616 0.37001 0.1576 0.0
C6 C 0.9085 0.36499 0.18353 0.0
C7 C 0.94439 0.39058 0.20058 0.0
C8 C 0.98732 0.42014 0.19191 0.0
C9 C 0.09652 0.57543 0.09477 0.0
C10 C 0.98407 0.60307 0.13716 0.0
C11 C 0.14041 0.74298 0.12628 0.0
C12 C 0.18639 0.77482 0.13546 0.0
C13 C 0.20804 0.76534 0.15843 0.0
C14 C 0.25212 0.79467 0.16729 0.0
C15 C 0.27594 0.83378 0.15317 0.0
C16 C 0.2544 0.84273 0.12991 0.0
C17 C 0.20988 0.81344 0.12114 0.0
C18 C 0.08334 0.62376 0.18781 0.0
C19 C 0.1942 0.59611 0.14467 0.0
O20 O 0.06669 0.48733 0.17234 0.0
O21 O 0.04068 0.46986 0.1336 0.0
O22 O 0.06982 0.59317 0.10932 0.0
O23 O 0.11309 0.54118 0.10528 0.0
O24 O 1.01603 0.64003 0.1287 0.0
O25 O 0.99862 0.56579 0.14657 0.0
O26 O 0.14602 0.70633 0.11284 0.0
O27 O 0.10602 0.73186 0.14288 0.0
O28 O 0.10823 0.60551 0.17257 0.0
O29 O 0.06887 0.65991 0.1782 0.0
O30 O 0.16228 0.55567 0.14837 0.0
O31 O 0.17964 0.63606 0.14008 0.0
H32 H 0.96431 0.40199 0.12882 0.0
H33 H 0.88949 0.35021 0.14403 0.0
H34 H 0.93928 0.38774 0.22067 0.0
H35 H 1.01447 0.439 0.20556 0.0
H36 H 0.19068 0.73527 0.16962 0.0
H37 H 0.26701 0.78709 0.18545 0.0
H38 H 0.27209 0.87214 0.11842 0.0
H39 H 0.19394 0.82078 0.10318 0.0
Pr40 Pr 0.59913 0.09918 0.52696 0.0
Pr41 Pr 0.48872 0.07836 0.51685 0.0
C42 C 0.69733 0.13302 0.52465 0.0
C43 C 0.73094 0.17481 0.51381 0.0
C44 C 0.76248 0.20804 0.52969 0.0
C45 C 0.79438 0.2477 0.51969 0.0
C46 C 0.79567 0.25483 0.49354 0.0
C47 C 0.76417 0.22134 0.47769 0.0
C48 C 0.73211 0.18193 0.48768 0.0
C49 C 0.54276 0.0794 0.56952 0.0
C50 C 0.54153 0.1921 0.5231 0.0
C51 C 0.39087 1.04165 0.51704 0.0
C52 C 0.35774 0.99657 0.50843 0.0
C53 C 0.35842 0.97984 0.48358 0.0
C54 C 0.32813 0.93631 0.47594 0.0
C55 C 0.29682 0.90821 0.49301 0.0
C56 C 0.29618 0.92509 0.51789 0.0
C57 C 0.32629 0.96889 0.52549 0.0
C58 C 0.54321 0.0972 0.47371 0.0
C59 C 0.54635 0.98447 0.52275 0.0
O60 O 0.67195 0.10131 0.50877 0.0
O61 O 0.67187 0.14104 0.54393 0.0
O62 O 0.5351 0.10573 0.55175 0.0
O63 O 0.58306 1.06412 0.5666 0.0
O64 O 0.49923 0.16082 0.52571 0.0
O65 O 0.58297 0.17695 0.52004 0.0
O66 O 0.42052 1.03853 0.53619 0.0
O67 O 0.41197 0.07061 0.49972 0.0
O68 O 0.55256 0.07108 0.49136 0.0
O69 O 0.50377 0.11314 0.47768 0.0
O70 O 0.58911 1.01553 0.52548 0.0
O71 O 0.5046 0.99947 0.51943 0.0
H72 H 0.76234 0.20341 0.54988 0.0
H73 H 0.81765 0.27303 0.53248 0.0
H74 H 0.76469 0.22518 0.45746 0.0
H75 H 0.70837 0.15701 0.47485 0.0
H76 H 0.38249 1.00023 0.47001 0.0
H77 H 0.32899 0.92489 0.45654 0.0
H78 H 0.27298 0.90416 0.5316 0.0
H79 H 0.32546 0.98091 0.5448 0.0
Pr80 Pr 0.58908 0.55366 0.8149 0.0
Pr81 Pr 0.61877 0.6557 0.83212 0.0
C82 C 0.57016 0.46583 0.79416 0.0
C83 C 0.52622 0.42679 0.79401 0.0
C84 C 0.48063 0.43521 0.80137 0.0
C85 C 0.439 0.39773 0.80182 0.0
C86 C 0.44257 0.35123 0.79519 0.0
C87 C 0.48848 0.34306 0.788 0.0
C88 C 0.52996 0.38056 0.78743 0.0
C89 C 0.58009 0.56609 0.86627 0.0
C90 C 0.70861 0.60312 0.82629 0.0
C91 C 0.62153 0.73951 0.85525 0.0
C92 C 0.5824 0.76662 0.85652 0.0
C93 C 0.53308 0.74266 0.8597 0.0
C94 C 0.49456 0.76543 0.85447 0.0
C95 C 0.50466 0.8128 0.84625 0.0
C96 C 0.55417 0.83804 0.84545 0.0
C97 C 0.59273 0.81499 0.85035 0.0
C98 C 0.62444 0.64251 0.78047 0.0
C99 C 0.49816 0.60711 0.82105 0.0
O100 O 0.59266 0.47587 0.81608 0.0
O101 O 0.56588 0.50373 0.78156 0.0
O102 O 0.61627 0.58676 0.8537 0.0
O103 O 0.54766 0.53679 0.85247 0.0
O104 O 0.69406 0.6358 0.8398 0.0
O105 O 0.6766 0.57242 0.81195 0.0
O106 O 0.61356 0.69902 0.86718 0.0
O107 O 0.63923 0.73652 0.83289 0.0
O108 O 0.58906 0.62258 0.7937 0.0
O109 O 0.65863 0.67132 0.79366 0.0
O110 O 0.50977 0.56815 0.81232 0.0
O111 O 0.53205 0.64326 0.83012 0.0
H112 H 0.47729 0.47073 0.80681 0.0
H113 H 0.40419 0.40501 0.80749 0.0
H114 H 0.49215 0.30773 0.78233 0.0
H115 H 0.56493 0.37348 0.78184 0.0
H116 H 0.52396 0.7054 0.86473 0.0
H117 H 0.45697 0.74486 0.85523 0.0
H118 H 0.56314 0.87498 0.83978 0.0
H119 H 0.63045 0.83416 0.84788 0.0
H120 H 0.5351 1.01915 0.28255 0.0
H121 H 0.65077 0.14597 0.28812 0.0
H122 H 0.58769 0.09528 0.21586 0.0
C123 C 0.55908 1.04899 0.27373 0.0
C124 C 0.55648 1.05343 0.24742 0.0
C125 C 0.59235 0.08258 0.28873 0.0
C126 C 0.62488 0.11976 0.27689 0.0
C127 C 0.62428 0.12369 0.25061 0.0
C128 C 0.58961 0.09081 0.23604 0.0
H129 H 0.57515 0.67342 0.58877 0.0
H130 H 0.59213 0.529 0.58918 0.0
H131 H 0.53267 0.58426 0.52271 0.0
C132 C 0.57222 0.6396 0.57907 0.0
C133 C 0.55445 0.63506 0.55395 0.0
C134 C 0.58492 0.60162 0.59213 0.0
C135 C 0.58028 0.55776 0.57951 0.0
C136 C 0.55965 0.54944 0.55493 0.0
C137 C 0.54813 0.58926 0.5417 0.0
H138 H 1.0271 0.59735 0.90143 0.0
H139 H 0.18382 0.61398 0.9052 0.0
H140 H 0.10794 0.61354 0.83307 0.0
C141 C 0.06183 0.60161 0.89194 0.0
C142 C 0.06206 0.60294 0.86557 0.0
C143 C 0.10565 0.60664 0.90628 0.0
C144 C 0.15049 0.61296 0.89396 0.0
C145 C 0.15258 0.61631 0.86754 0.0
C146 C 0.10767 0.61133 0.85338 0.0
H147 H 1.01038 0.50068 0.37586 0.0
H148 H 0.10814 0.63915 0.37907 0.0
H149 H 0.04984 0.57306 0.44716 0.0
C150 C 1.03052 0.53119 0.3867 0.0
C151 C 1.02636 0.53208 0.41303 0.0
C152 C 0.06014 0.56958 0.37423 0.0
C153 C 0.08558 0.60918 0.3885 0.0
C154 C 0.08212 0.61088 0.41476 0.0
C155 C 0.0526 0.57204 0.4269 0.0
H156 H 0.2745 1.06368 0.6965 0.0
H157 H 0.31736 0.9363 0.71968 0.0
H158 H 0.25657 1.01844 0.77318 0.0
C159 C 0.27464 1.03699 0.71079 0.0
C160 C 0.26376 1.04662 0.73567 0.0
C161 C 0.296 0.99846 0.70525 0.0
C162 C 0.29789 0.96427 0.72361 0.0
C163 C 0.28221 0.97042 0.74813 0.0
C164 C 0.2644 1.01146 0.75386 0.0
H165 H 0.50132 0.58744 0.05916 0.0
H166 H 0.65453 0.58684 0.0572 0.0
H167 H 0.59184 0.61707 0.12724 0.0
C168 C 0.53682 0.59241 0.06899 0.0
C169 C 0.54099 0.6032 0.09495 0.0
C170 C 0.5777 0.58749 0.05534 0.0
C171 C 0.62326 0.59148 0.06792 0.0
C172 C 0.62944 0.60268 0.09378 0.0
C173 C 0.58769 0.60788 0.1074 0.0
C174 C 0.28301 0.63747 0.15162 0.0
C175 C 0.24771 0.59669 0.14391 0.0
C176 C 0.33376 0.64041 0.14842 0.0
C177 C 0.34947 0.60249 0.13622 0.0
C178 C 0.31393 0.56066 0.1291 0.0
C179 C 0.26365 0.55797 0.13344 0.0
C180 C 0.37028 0.68491 0.15722 0.0
C181 C 0.32857 0.51996 0.11534 0.0
C182 C 0.46179 0.63173 0.09531 0.0
C183 C 0.49576 0.6098 0.10805 0.0
C184 C 0.41473 0.63044 0.10456 0.0
C185 C 0.40159 0.60871 0.1279 0.0
C186 C 0.43717 0.59033 0.14205 0.0
C187 C 0.48364 0.59049 0.13182 0.0
C188 C 0.37811 0.64997 0.08854 0.0
C189 C 0.4255 0.56882 0.16753 0.0
H190 H 0.27088 0.66741 0.15989 0.0
H191 H 0.23646 0.52658 0.12724 0.0
H192 H 0.40279 0.67555 0.16683 0.0
H193 H 0.38377 0.70701 0.14079 0.0
H194 H 0.35353 0.70686 0.17026 0.0
H195 H 0.29702 0.48901 0.11223 0.0
H196 H 0.34329 0.53233 0.09678 0.0
H197 H 0.35833 0.50787 0.12601 0.0
H198 H 0.47128 0.64843 0.07738 0.0
H199 H 0.50952 0.57375 0.14197 0.0
H200 H 0.36466 0.67774 0.09913 0.0
H201 H 0.34556 0.62098 0.08365 0.0
H202 H 0.39417 0.66575 0.07082 0.0
H203 H 0.40713 0.59182 0.17906 0.0
H204 H 0.45921 0.5637 0.17789 0.0
H205 H 0.39963 0.5336 0.16524 0.0
C206 C 0.87814 0.31241 0.49266 0.0
C207 C 0.82986 0.29676 0.48273 0.0
C208 C 0.91101 0.35121 0.48225 0.0
C209 C 0.89543 0.37472 0.46125 0.0
C210 C 0.84671 0.35936 0.45124 0.0
C211 C 0.8145 0.3208 0.46216 0.0
C212 C 0.96257 0.36673 0.49355 0.0
C213 C 0.82871 0.38344 0.42883 0.0
C214 C 0.96401 0.50027 0.44554 0.0
C215 C 0.99392 0.49163 0.42594 0.0
C216 C 0.93242 0.46256 0.45748 0.0
C217 C 0.93022 0.41501 0.44949 0.0
C218 C 0.96049 0.40596 0.42986 0.0
C219 C 0.99212 0.44432 0.41843 0.0
C220 C 0.90092 0.47365 0.47844 0.0
C221 C 0.95909 0.35576 0.42074 0.0
H222 H 0.89064 0.29377 0.50832 0.0
H223 H 0.77705 0.30961 0.45462 0.0
H224 H 0.99 0.3627 0.47939 0.0
H225 H 0.96995 0.40503 0.49904 0.0
H226 H 0.96845 0.34573 0.51037 0.0
H227 H 0.78973 0.36721 0.42332 0.0
H228 H 0.83183 0.42186 0.43309 0.0
H229 H 0.85216 0.38109 0.41252 0.0
H230 H 0.96456 0.53667 0.45126 0.0
H231 H 1.01563 0.43719 0.40361 0.0
H232 H 0.90761 0.45404 0.49561 0.0
H233 H 0.86129 0.46151 0.47296 0.0
H234 H 0.90841 0.51238 0.48311 0.0
H235 H 0.9683 0.33395 0.43653 0.0
H236 H 0.98524 0.35474 0.40542 0.0
H237 H 0.92127 0.3388 0.41372 0.0
C238 C 0.4177 0.8253 0.84655 0.0
C239 C 0.46428 0.83376 0.83569 0.0
C240 C 0.37873 0.84265 0.83542 0.0
C241 C 0.38689 0.86942 0.81312 0.0
C242 C 0.43377 0.87791 0.8021 0.0
C243 C 0.47167 0.85979 0.81343 0.0
C244 C 0.32911 0.83261 0.84755 0.0
C245 C 0.44402 0.9061 0.77821 0.0
C246 C 0.2932 0.89182 0.76481 0.0
C247 C 0.29663 0.94083 0.76863 0.0
C248 C 0.31847 0.86623 0.78092 0.0
C249 C 0.34763 0.89035 0.8013 0.0
C250 C 0.34667 0.93834 0.80685 0.0
C251 C 0.32148 0.96311 0.79037 0.0
C252 C 0.31807 0.81484 0.77457 0.0
C253 C 0.37688 0.96524 0.82855 0.0
H254 H 0.4117 0.80515 0.86374 0.0
H255 H 0.507 0.86524 0.80447 0.0
H256 H 0.3211 0.86647 0.8546 0.0
H257 H 0.29949 0.81712 0.83354 0.0
H258 H 0.32759 0.80768 0.86352 0.0
H259 H 0.4824 0.90902 0.77197 0.0
H260 H 0.4182 0.88894 0.76285 0.0
H261 H 0.43794 0.94263 0.78112 0.0
H262 H 0.27344 0.87422 0.74826 0.0
H263 H 0.32503 1.00104 0.79347 0.0
H264 H 0.31629 0.79318 0.79182 0.0
H265 H 0.35276 0.81298 0.76514 0.0
H266 H 0.28649 0.79875 0.76172 0.0
H267 H 0.36504 0.99875 0.83315 0.0
H268 H 0.41631 0.9746 0.8235 0.0
H269 H 0.37411 0.94292 0.84558 0.0
C270 C 0.91405 0.64365 0.14307 0.0
C271 C 0.93074 0.6031 0.13572 0.0
C272 C 0.86372 0.64491 0.14077 0.0
C273 C 0.82964 0.60557 0.1297 0.0
C274 C 0.84638 0.56416 0.1227 0.0
C275 C 0.89654 0.56309 0.1263 0.0
C276 C 0.84729 0.68884 0.1496 0.0
C277 C 0.81192 0.52201 0.11006 0.0
C278 C 0.68907 0.59085 0.129 0.0
C279 C 0.68035 0.60966 0.10545 0.0
C280 C 0.73764 0.59138 0.13787 0.0
C281 C 0.77826 0.60984 0.12251 0.0
C282 C 0.76964 0.63078 0.09931 0.0
C283 C 0.72124 0.6316 0.09148 0.0
C284 C 0.74531 0.57077 0.16328 0.0
C285 C 0.81136 0.65025 0.082 0.0
H286 H 0.94042 0.67438 0.15071 0.0
H287 H 0.90949 0.53175 0.12059 0.0
H288 H 0.83872 0.70937 0.13314 0.0
H289 H 0.81311 0.67868 0.16047 0.0
H290 H 0.87615 0.71255 0.16152 0.0
H291 H 0.83019 0.4919 0.10662 0.0
H292 H 0.77935 0.50917 0.12173 0.0
H293 H 0.79817 0.53307 0.09175 0.0
H294 H 0.65799 0.57412 0.14008 0.0
H295 H 0.71529 0.64802 0.07373 0.0
H296 H 0.77648 0.5942 0.17387 0.0
H297 H 0.75482 0.53552 0.16079 0.0
H298 H 0.71169 0.56591 0.17467 0.0
H299 H 0.83871 0.67931 0.09159 0.0
H300 H 0.79826 0.66436 0.06431 0.0
H301 H 0.83084 0.6217 0.07709 0.0
C302 C 0.21604 0.84796 0.49267 0.0
C303 C 0.26481 0.86174 0.48469 0.0
C304 C 0.18469 0.80553 0.48371 0.0
C305 C 0.20235 0.77647 0.46613 0.0
C306 C 0.2519 0.78946 0.45856 0.0
C307 C 0.28257 0.8317 0.46805 0.0
C308 C 0.13225 0.79258 0.49245 0.0
C309 C 0.27212 0.75952 0.43978 0.0
C310 C 0.13525 0.64833 0.45183 0.0
C311 C 0.1097 0.65345 0.42924 0.0
C312 C 0.16433 0.68823 0.46456 0.0
C313 C 0.16831 0.73421 0.45431 0.0
C314 C 0.1415 0.73972 0.43193 0.0
C315 C 0.11226 0.69938 0.41981 0.0
C316 C 0.19189 0.68105 0.48857 0.0
C317 C 0.14484 0.7881 0.42033 0.0
H318 H 0.2018 0.87105 0.50535 0.0
H319 H 0.3205 0.84144 0.46222 0.0
H320 H 0.10635 0.7949 0.4765 0.0
H321 H 0.12341 0.75523 0.49908 0.0
H322 H 0.12562 0.81648 0.50789 0.0
H323 H 0.31203 0.77349 0.43665 0.0
H324 H 0.26675 0.72223 0.44631 0.0
H325 H 0.25166 0.75861 0.4215 0.0
H326 H 0.13376 0.61299 0.45918 0.0
H327 H 0.09175 0.7038 0.40269 0.0
H328 H 0.1844 0.70522 0.50363 0.0
H329 H 0.2322 0.69019 0.48553 0.0
H330 H 0.18164 0.6437 0.49518 0.0
H331 H 0.13451 0.81305 0.43415 0.0
H332 H 0.12055 0.78645 0.40325 0.0
H333 H 0.18347 0.80325 0.4151 0.0
C334 C 0.40231 0.26645 0.80322 0.0
C335 C 0.39848 0.31132 0.7944 0.0
C336 C 0.36562 0.22579 0.79723 0.0
C337 C 0.32421 0.23032 0.78206 0.0
C338 C 0.31691 0.27626 0.77619 0.0
C339 C 0.35446 0.31643 0.78227 0.0
C340 C 0.37431 0.17755 0.80453 0.0
C341 C 0.27213 0.28265 0.76108 0.0
C342 C 0.30399 0.13295 0.73314 0.0
C343 C 0.26795 0.0972 0.74393 0.0
C344 C 0.31904 0.1781 0.74425 0.0
C345 C 0.29798 0.18815 0.76702 0.0
C346 C 0.25822 0.15428 0.77677 0.0
C347 C 0.24366 0.109 0.76511 0.0
C348 C 0.36134 0.21319 0.7329 0.0
C349 C 0.23352 0.16414 0.80051 0.0
H350 H 0.43559 0.26268 0.81339 0.0
H351 H 0.35091 0.3512 0.77574 0.0
H352 H 0.34007 0.15463 0.81161 0.0
H353 H 0.38506 0.15951 0.78772 0.0
H354 H 0.40409 0.18043 0.81921 0.0
H355 H 0.26513 0.31891 0.76393 0.0
H356 H 0.27825 0.27784 0.74078 0.0
H357 H 0.23882 0.25572 0.76617 0.0
H358 H 0.32409 0.12479 0.71714 0.0
H359 H 0.21516 0.08212 0.7734 0.0
H360 H 0.39467 0.21761 0.74545 0.0
H361 H 0.35215 0.24865 0.73093 0.0
H362 H 0.37072 0.2013 0.71407 0.0
H363 H 0.25296 0.15222 0.81692 0.0
H364 H 0.19449 0.14405 0.80042 0.0
H365 H 0.23459 0.20272 0.80307 0.0
C366 C 0.50618 0.8972 0.51252 0.0
C367 C 0.54508 0.9314 0.52386 0.0
C368 C 0.50467 0.84745 0.51373 0.0
C369 C 0.54208 0.83044 0.52732 0.0
C370 C 0.58133 0.86492 0.53884 0.0
C371 C 0.58272 0.91442 0.53666 0.0
C372 C 0.46276 0.81296 0.50043 0.0
C373 C 0.62143 0.84945 0.55419 0.0
C374 C 0.5135 0.70533 0.55662 0.0
C375 C 0.54175 0.67959 0.54264 0.0
C376 C 0.51229 0.75331 0.55144 0.0
C377 C 0.53871 0.77706 0.53107 0.0
C378 C 0.56418 0.7502 0.51559 0.0
C379 C 0.56592 0.7023 0.52168 0.0
C380 C 0.48525 0.77957 0.56898 0.0
C381 C 0.59161 0.77277 0.49316 0.0
H382 H 0.47693 0.90936 0.50241 0.0
H383 H 0.61289 0.93998 0.54568 0.0
H384 H 0.47755 0.78844 0.48807 0.0
H385 H 0.43954 0.79074 0.5144 0.0
H386 H 0.43897 0.83149 0.48888 0.0
H387 H 0.64941 0.88022 0.562 0.0
H388 H 0.6049 0.82706 0.56999 0.0
H389 H 0.64034 0.8273 0.54244 0.0
H390 H 0.49463 0.68864 0.5729 0.0
H391 H 0.58842 0.68362 0.51083 0.0
H392 H 0.45878 0.79614 0.55822 0.0
H393 H 0.51208 0.80881 0.57881 0.0
H394 H 0.46474 0.75584 0.58332 0.0
H395 H 0.56848 0.79252 0.48198 0.0
H396 H 0.60272 0.74586 0.48078 0.0
H397 H 0.62536 0.79885 0.49966 0.0
C398 C 0.79259 0.62596 0.84691 0.0
C399 C 0.76177 0.60129 0.82754 0.0
C400 C 0.84266 0.62434 0.84907 0.0
C401 C 0.86306 0.59787 0.83123 0.0
C402 C 0.83254 0.57375 0.81123 0.0
C403 C 0.78213 0.5754 0.80974 0.0
C404 C 0.87347 0.65008 0.87092 0.0
C405 C 0.85298 0.54572 0.79165 0.0
C406 C 1.0037 0.62981 0.83463 0.0
C407 C 1.01363 0.59588 0.85166 0.0
C408 C 0.95494 0.62881 0.82608 0.0
C409 C 0.9154 0.59323 0.83489 0.0
C410 C 0.92598 0.55672 0.85042 0.0
C411 C 0.97486 0.55839 0.85847 0.0
C412 C 0.94544 0.66786 0.80913 0.0
C413 C 0.88529 0.51808 0.86035 0.0
H414 H 0.77735 0.64597 0.86082 0.0
H415 H 0.75875 0.55656 0.79458 0.0
H416 H 0.88726 0.62402 0.88288 0.0
H417 H 0.90615 0.67557 0.86393 0.0
H418 H 0.85237 0.67002 0.88282 0.0
H419 H 0.82572 0.53252 0.77611 0.0
H420 H 0.88657 0.56814 0.78361 0.0
H421 H 0.86401 0.51466 0.80049 0.0
H422 H 1.03348 0.65887 0.82932 0.0
H423 H 0.98249 0.53168 0.87137 0.0
H424 H 0.92996 0.69367 0.82024 0.0
H425 H 0.91795 0.65301 0.79399 0.0
H426 H 0.97979 0.68747 0.80044 0.0
H427 H 0.86419 0.53388 0.87426 0.0
H428 H 0.89988 0.48934 0.86967 0.0
H429 H 0.85906 0.50199 0.84495 0.0
C430 C 0.35721 0.8468 0.17692 0.0
C431 C 0.32207 0.86573 0.16331 0.0
C432 C 0.39791 0.87668 0.18918 0.0
C433 C 0.40425 0.92674 0.18736 0.0
C434 C 0.3706 0.94608 0.17247 0.0
C435 C 0.32967 0.91536 0.16079 0.0
C436 C 0.43278 0.85468 0.20505 0.0
C437 C 0.37664 0.9993 0.16972 0.0
C438 C 0.47037 1.00431 0.24124 0.0
C439 C 0.51797 1.02013 0.23203 0.0
C440 C 0.43336 0.97347 0.227 0.0
C441 C 0.44371 0.95884 0.20265 0.0
C442 C 0.49141 0.97488 0.19306 0.0
C443 C 0.52813 1.00495 0.20796 0.0
C444 C 0.38304 0.95667 0.23801 0.0
C445 C 0.50354 0.96054 0.16702 0.0
H446 H 0.35235 0.80847 0.17846 0.0
H447 H 0.30263 0.93042 0.1505 0.0
H448 H 0.4715 0.86897 0.19976 0.0
H449 H 0.42995 0.86422 0.22513 0.0
H450 H 0.42461 0.81517 0.20313 0.0
H451 H 0.35059 1.0084 0.15532 0.0
H452 H 0.37003 1.01539 0.18798 0.0
H453 H 0.41491 1.01587 0.16447 0.0
H454 H 0.46166 1.01658 0.25953 0.0
H455 H 0.56489 1.01638 0.20076 0.0
H456 H 0.37296 0.9171 0.23803 0.0
H457 H 0.35476 0.96896 0.22626 0.0
H458 H 0.38153 0.97003 0.25757 0.0
H459 H 0.498 0.92119 0.16556 0.0
H460 H 0.54216 0.97684 0.16215 0.0
H461 H 0.47818 0.97147 0.15288 0.0
C462 C 0.58623 0.27849 0.5317 0.0
C463 C 0.54292 0.24525 0.52416 0.0
C464 C 0.58741 0.32804 0.53415 0.0
C465 C 0.5447 0.34605 0.52816 0.0
C466 C 0.50145 0.31281 0.51953 0.0
C467 C 0.50083 0.26323 0.51808 0.0
C468 C 0.63412 0.36098 0.54409 0.0
C469 C 0.45535 0.32957 0.51205 0.0
C470 C 0.52966 0.46084 0.56214 0.0
C471 C 0.54887 0.49776 0.54539 0.0
C472 C 0.52796 0.41226 0.55668 0.0
C473 C 0.54398 0.39843 0.53325 0.0
C474 C 0.56032 0.43499 0.51542 0.0
C475 C 0.56305 0.48397 0.52173 0.0
C476 C 0.51089 0.37582 0.57668 0.0
C477 C 0.57626 0.42252 0.48985 0.0
H478 H 0.61908 0.26555 0.53657 0.0
H479 H 0.46718 0.23845 0.51196 0.0
H480 H 0.6464 0.39031 0.53072 0.0
H481 H 0.62686 0.37752 0.56212 0.0
H482 H 0.6646 0.34212 0.54731 0.0
H483 H 0.42693 0.30077 0.50284 0.0
H484 H 0.43931 0.3424 0.52894 0.0
H485 H 0.46439 0.36 0.49901 0.0
H486 H 0.51748 0.47023 0.58031 0.0
H487 H 0.57801 0.51147 0.5085 0.0
H488 H 0.54087 0.35727 0.58166 0.0
H489 H 0.47887 0.34837 0.56947 0.0
H490 H 0.50006 0.3921 0.59406 0.0
H491 H 0.61176 0.411 0.49176 0.0
H492 H 0.58125 0.45326 0.47692 0.0
H493 H 0.54866 0.39229 0.48128 0.0
C494 C 0.43023 0.6511 0.81544 0.0
C495 C 0.4457 0.60962 0.82242 0.0
C496 C 0.38111 0.65513 0.81853 0.0
C497 C 0.34748 0.61784 0.83026 0.0
C498 C 0.36324 0.57586 0.83731 0.0
C499 C 0.41176 0.57182 0.83269 0.0
C500 C 0.36608 0.69992 0.80979 0.0
C501 C 0.32988 0.53639 0.8512 0.0
C502 C 0.24466 0.64869 0.86835 0.0
C503 C 0.20192 0.6231 0.85548 0.0
C504 C 0.2921 0.64813 0.86011 0.0
C505 C 0.29747 0.62397 0.83742 0.0
C506 C 0.25471 0.60252 0.82285 0.0
C507 C 0.20749 0.60134 0.83229 0.0
C508 C 0.33633 0.67189 0.87634 0.0
C509 C 0.25885 0.57972 0.79759 0.0
H510 H 0.45657 0.68045 0.80752 0.0
H511 H 0.42404 0.54009 0.83847 0.0
H512 H 0.32652 0.69284 0.80379 0.0
H513 H 0.37219 0.72656 0.82538 0.0
H514 H 0.38872 0.71617 0.79391 0.0
H515 H 0.34807 0.50659 0.85581 0.0
H516 H 0.31852 0.55082 0.86898 0.0
H517 H 0.29584 0.5219 0.83978 0.0
H518 H 0.24125 0.66802 0.88554 0.0
H519 H 0.17521 0.58187 0.82186 0.0
H520 H 0.35669 0.70427 0.86694 0.0
H521 H 0.36206 0.64762 0.87912 0.0
H522 H 0.3256 0.68273 0.8951 0.0
H523 H 0.28728 0.60321 0.78638 0.0
H524 H 0.22319 0.57234 0.78672 0.0
H525 H 0.27054 0.54553 0.80021 0.0
C526 C 0.86847 0.30103 0.21255 0.0
C527 C 0.86402 0.33187 0.19275 0.0
C528 C 0.82715 0.26854 0.22112 0.0
C529 C 0.78023 0.26684 0.2096 0.0
C530 C 0.77534 0.29811 0.18974 0.0
C531 C 0.81738 0.33027 0.18151 0.0
C532 C 0.83384 0.23561 0.24231 0.0
C533 C 0.72582 0.2974 0.17712 0.0
C534 C 0.68666 0.15074 0.21781 0.0
C535 C 0.66067 0.16176 0.23845 0.0
C536 C 0.72451 0.1852 0.20758 0.0
C537 C 0.73657 0.23173 0.21828 0.0
C538 C 0.70911 0.2436 0.23845 0.0
C539 C 0.67145 0.20843 0.2483 0.0
C540 C 0.75297 0.17124 0.18604 0.0
C541 C 0.72071 0.29294 0.25022 0.0
H542 H 0.90454 0.30165 0.22105 0.0
H543 H 0.81373 0.35441 0.16638 0.0
H544 H 0.81011 0.24046 0.25813 0.0
H545 H 0.82216 0.19793 0.23579 0.0
H546 H 0.87272 0.24195 0.24946 0.0
H547 H 0.72819 0.32458 0.1622 0.0
H548 H 0.71048 0.26168 0.16859 0.0
H549 H 0.69935 0.30402 0.19125 0.0
H550 H 0.67868 0.11462 0.21026 0.0
H551 H 0.65084 0.21728 0.26399 0.0
H552 H 0.7916 0.17243 0.19242 0.0
H553 H 0.75434 0.19692 0.17048 0.0
H554 H 0.73651 0.13481 0.17862 0.0
H555 H 0.75792 0.29992 0.2595 0.0
H556 H 0.69347 0.29742 0.26445 0.0
H557 H 0.72142 0.32029 0.23555 0.0
C558 C 0.12938 0.56168 0.05299 0.0
C559 C 0.10042 0.58504 0.0676 0.0
C560 C 0.13128 0.56752 0.02688 0.0
C561 C 0.10351 0.59749 0.01508 0.0
C562 C 0.07519 0.62222 0.02983 0.0
C563 C 0.07404 0.61574 0.05599 0.0
C564 C 0.16209 0.5407 0.01185 0.0
C565 C 0.04521 0.65455 0.01789 0.0
C566 C 0.13904 0.63766 0.94895 0.0
C567 C 0.10454 0.60496 0.93419 0.0
C568 C 0.1386 0.63628 0.97532 0.0
C569 C 0.10281 0.60134 0.98721 0.0
C570 C 0.06757 0.56856 0.97243 0.0
C571 C 0.06889 0.57073 0.94611 0.0
C572 C 0.17673 0.67184 -0.00954 0.0
C573 C 1.02897 0.53062 0.98441 0.0
H574 H 0.15009 0.53814 0.06194 0.0
H575 H 0.05173 0.63395 0.06727 0.0
H576 H 0.13791 0.51538 -0.00143 0.0
H577 H 0.18862 0.56588 0.00047 0.0
H578 H 0.18307 0.52034 0.02401 0.0
H579 H 1.02713 0.67298 0.03209 0.0
H580 H 0.06912 0.6818 0.00639 0.0
H581 H 1.01626 0.63341 0.00505 0.0
H582 H 0.16624 0.66462 0.93985 0.0
H583 H 0.0425 0.54501 0.93483 0.0
H584 H 0.20011 0.65281 0.00192 0.0
H585 H 0.1583 0.69186 0.00369 0.0
H586 H 0.20101 0.69773 0.97836 0.0
H587 H 0.04717 0.5063 -0.00459 0.0
H588 H 1.00302 0.50908 0.97028 0.0
H589 H 1.00742 0.54727 -0.00229 0.0
C590 C 0.57846 1.05662 0.43939 0.0
C591 C 0.56308 0.09676 0.44841 0.0
C592 C 0.5889 1.05253 0.41388 0.0
C593 C 0.58508 0.09008 0.39737 0.0
C594 C 0.57319 0.13218 0.40693 0.0
C595 C 0.56157 0.13468 0.4323 0.0
C596 C 0.6005 1.00673 0.40432 0.0
C597 C 0.57015 0.17359 0.39011 0.0
C598 C 0.63514 0.09471 0.33148 0.0
C599 C 0.59152 0.08032 0.31673 0.0
C600 C 0.63393 0.0972 0.35783 0.0
C601 C 0.58819 0.0837 0.36976 0.0
C602 C 0.5444 1.06689 0.35512 0.0
C603 C 0.54649 1.06607 0.32884 0.0
C604 C 0.68127 0.11602 0.37281 0.0
C605 C 0.49493 1.0513 0.36718 0.0
H606 H 0.57932 1.02716 0.45189 0.0
H607 H 0.55 0.16586 0.43942 0.0
H608 H 0.5687 0.9868 0.39272 0.0
H609 H 0.63294 1.01425 0.39211 0.0
H610 H 0.60792 0.98351 0.41991 0.0
H611 H 0.56669 0.20578 0.40101 0.0
H612 H 0.60339 0.18284 0.3785 0.0
H613 H 0.53759 0.16345 0.37706 0.0
H614 H 0.67032 0.10477 0.32245 0.0
H615 H 0.51239 1.05567 0.3178 0.0
H616 H 0.68621 0.09071 0.38779 0.0
H617 H 0.67941 0.15017 0.38222 0.0
H618 H 0.71416 0.12231 0.36084 0.0
H619 H 0.49715 1.02528 0.38224 0.0
H620 H 0.46528 1.03473 0.35336 0.0
H621 H 0.48439 0.08255 0.37605 0.0
C622 C 0.58012 0.63956 0.73915 0.0
C623 C 0.62346 0.63827 0.75288 0.0
C624 C 0.57804 0.63506 0.71284 0.0
C625 C 0.61962 0.62677 0.70012 0.0
C626 C 0.66334 0.62473 0.71407 0.0
C627 C 0.66509 0.63162 0.74032 0.0
C628 C 0.53132 0.63922 0.69867 0.0
C629 C 0.7076 0.61378 0.70138 0.0
C630 C 0.58544 0.56829 0.63593 0.0
C631 C 0.59937 0.60689 0.61959 0.0
C632 C 0.59476 0.57365 0.66199 0.0
C633 C 0.61648 0.61919 0.67231 0.0
C634 C 0.63167 0.65809 0.65607 0.0
C635 C 0.62409 0.65121 0.62995 0.0
C636 C 0.57962 0.53078 0.67856 0.0
C637 C 0.65369 0.70756 0.66633 0.0
H638 H 0.54806 0.64494 0.74899 0.0
H639 H 0.69839 0.63008 0.75115 0.0
H640 H 0.54002 0.66616 0.68368 0.0
H641 H 0.51412 0.60465 0.68939 0.0
H642 H 0.5039 0.64956 0.71117 0.0
H643 H 0.73868 0.61332 0.71492 0.0
H644 H 0.69701 0.57846 0.69174 0.0
H645 H 0.72064 0.64055 0.68678 0.0
H646 H 0.56558 0.53398 0.62859 0.0
H647 H 0.63661 0.6811 0.61772 0.0
H648 H 0.54683 0.53413 0.68928 0.0
H649 H 0.60967 0.52875 0.69242 0.0
H650 H 0.57025 0.49688 0.66749 0.0
H651 H 0.62624 0.71993 0.67797 0.0
H652 H 0.66496 0.73376 0.65119 0.0
H653 H 0.68636 0.70716 0.67871 0.0
C654 C 0.51395 1.02928 0.60674 0.0
C655 C 0.50626 1.0627 0.5889 0.0
C656 C 0.47871 1.0131 0.62498 0.0
C657 C 0.4348 1.03056 0.62513 0.0
C658 C 0.42642 1.06334 0.60669 0.0
C659 C 0.46248 0.07938 0.58899 0.0
C660 C 0.48914 0.97854 0.64454 0.0
C661 C 0.38001 0.08267 0.60612 0.0
C662 C 0.32496 0.97263 0.664 0.0
C663 C 0.33123 1.00406 0.68464 0.0
C664 C 0.35904 0.98004 0.64452 0.0
C665 C 0.40026 1.01924 0.64617 0.0
C666 C 0.40726 1.04995 0.66749 0.0
C667 C 0.37263 1.04199 0.68639 0.0
C668 C 0.35041 0.94682 0.62194 0.0
C669 C 0.45076 0.09195 0.67013 0.0
H670 H 0.54767 1.01614 0.6066 0.0
H671 H 0.45635 0.10518 0.57518 0.0
H672 H 0.49414 0.99634 0.66331 0.0
H673 H 0.45738 0.94761 0.64557 0.0
H674 H 0.52284 0.96523 0.64055 0.0
H675 H 0.37702 0.10423 0.58913 0.0
H676 H 0.34691 1.053 0.60658 0.0
H677 H 0.37966 0.10546 0.62302 0.0
H678 H 0.2931 0.94307 0.66291 0.0
H679 H 0.37781 1.06566 0.70271 0.0
H680 H 0.38361 0.93226 0.61875 0.0
H681 H 0.34399 0.96685 0.60487 0.0
H682 H 0.31817 0.91665 0.62412 0.0
H683 H 0.4858 0.0799 0.66814 0.0
H684 H 0.45205 0.11084 0.68852 0.0
H685 H 0.44876 0.11776 0.65494 0.0
C686 C 0.61562 0.60002 0.90783 0.0
C687 C 0.5779 0.56952 0.89387 0.0
C688 C 0.61428 0.60261 0.93415 0.0
C689 C 0.57435 0.57387 0.94671 0.0
C690 C 0.53597 0.54332 0.93265 0.0
C691 C 0.53815 0.54162 0.90636 0.0
C692 C 0.65572 0.63587 0.94853 0.0
C693 C 0.49283 0.51216 0.94538 0.0
C694 C 0.59593 0.54822 0.01552 0.0
C695 C 0.57377 0.58136 0.02758 0.0
C696 C 0.5957 0.54488 -0.01081 0.0
C697 C 0.57296 0.57555 0.97461 0.0
C698 C 0.54968 0.60842 0.98668 0.0
C699 C 0.5503 0.61087 0.01303 0.0
C700 C 0.62048 0.50906 0.97696 0.0
C701 C 0.52519 0.64181 0.97176 0.0
H702 H 0.64632 0.62172 0.89818 0.0
H703 H 0.50884 0.51808 0.89558 0.0
H704 H 0.64067 0.66138 0.96009 0.0
H705 H 0.67445 0.61517 0.96161 0.0
H706 H 0.68361 0.65641 0.9359 0.0
H707 H 0.46581 0.49065 0.93169 0.0
H708 H 0.50626 0.48755 0.95845 0.0
H709 H 0.47349 0.53449 0.95678 0.0
H710 H 0.6137 0.52507 0.02673 0.0
H711 H 0.53371 0.63698 0.02228 0.0
H712 H 0.65143 0.52787 0.96554 0.0
H713 H 0.59395 0.4852 0.96401 0.0
H714 H 0.63516 0.48684 -0.00903 0.0
H715 H 0.55297 0.66562 0.96038 0.0
H716 H 0.50738 0.66422 0.98401 0.0
H717 H 0.4968 0.62118 0.95847 0.0
C718 C 0.09005 0.56891 0.22342 0.0
C719 C 0.07845 0.61109 0.21461 0.0
C720 C 0.08548 0.55681 0.24892 0.0
C721 C 0.07052 0.58847 0.26607 0.0
C722 C 0.05883 0.63115 0.25722 0.0
C723 C 0.06234 0.64161 0.23154 0.0
C724 C 0.09702 0.51041 0.25752 0.0
C725 C 0.04367 0.66633 0.27495 0.0
C726 C 1.02199 0.55185 0.33072 0.0
C727 C 0.06378 0.56949 0.3463 0.0
C728 C 1.02423 0.55557 0.30443 0.0
C729 C 0.06901 0.57836 0.29348 0.0
C730 C 0.11168 0.59475 0.30899 0.0
C731 C 0.10869 0.58953 0.33512 0.0
C732 C 0.97821 0.53668 0.28845 0.0
C733 C 0.16004 0.61968 0.29809 0.0
H734 H 0.10262 0.54531 0.21038 0.0
H735 H 0.05344 0.67433 0.2248 0.0
H736 H 0.13019 0.51777 0.27025 0.0
H737 H 0.06601 0.48989 0.26834 0.0
H738 H 0.10391 0.4879 0.24151 0.0
H739 H 1.03571 0.69781 0.26503 0.0
H740 H 1.01028 0.64875 0.28505 0.0
H741 H 0.0735 0.67894 0.28933 0.0
H742 H 0.987 0.53662 0.33906 0.0
H743 H 0.14154 0.6021 0.34688 0.0
H744 H 0.98647 0.51446 0.27266 0.0
H745 H 0.96471 0.56691 0.28013 0.0
H746 H 0.94815 0.51501 0.29948 0.0
H747 H 0.17121 0.59691 0.28339 0.0
H748 H 0.19026 0.62869 0.31261 0.0
H749 H 0.15555 0.65313 0.28896 0.0
loop_
_geom_bond_atom_site_label_1
_geom_bond_atom_site_label_2
_geom_bond_distance
_geom_bond_site_symmetry_2
_ccdc_geom_bond_type
Pr0 C2 2.880 . S
Pr0 O20 2.562 . S
Pr0 O21 2.490 . S
Pr0 O22 2.695 1_655 S
Pr0 O23 2.512 . S
Pr0 O25 2.437 . S
Pr0 O28 2.436 . S
Pr0 O30 2.438 1_655 S
Pr1 C11 2.880 . S
Pr1 O22 2.436 . S
Pr1 O24 2.438 1_455 S
Pr1 O26 2.562 . S
Pr1 O27 2.490 . S
Pr1 O28 2.695 1_455 S
Pr1 O29 2.512 . S
Pr1 O31 2.437 . S
C2 Pr0 2.880 . S
C2 C3 1.491 . S
C2 O20 1.254 . S
C2 O21 1.225 . S
C3 C2 1.491 . S
C3 C4 1.392 . S
C3 C8 1.356 . S
C4 C3 1.392 . S
C4 C5 1.368 . S
C4 H32 0.929 . S
C5 C4 1.368 . S
C5 C6 1.386 . S
C5 H33 0.929 . S
C6 C5 1.386 . S
C6 C7 1.373 . S
C7 C6 1.373 . S
C7 C8 1.409 . S
C7 H34 0.931 . S
C8 C3 1.356 . S
C8 C7 1.409 . S
C8 H35 0.930 . S
C9 O22 1.270 . S
C9 O23 1.248 1_455 S
C10 O24 1.267 . S
C10 O25 1.278 . S
C11 Pr1 2.880 . S
C11 C12 1.491 . S
C11 O26 1.254 . S
C11 O27 1.225 . S
C12 C11 1.491 . S
C12 C13 1.392 . S
C12 C17 1.356 . S
C13 C12 1.392 . S
C13 C14 1.368 . S
C13 H36 0.929 . S
C14 C13 1.368 . S
C14 C15 1.386 . S
C14 H37 0.929 . S
C15 C14 1.386 . S
C15 C16 1.373 . S
C16 C15 1.373 . S
C16 C17 1.409 . S
C16 H38 0.931 . S
C17 C12 1.356 . S
C17 C16 1.409 . S
C17 H39 0.930 . S
C18 O28 1.270 1_455 S
C18 O29 1.248 . S
C19 O30 1.267 . S
C19 O31 1.278 . S
O20 Pr0 2.562 . S
O20 C2 1.254 . S
O21 Pr0 2.490 . S
O21 C2 1.225 . S
O22 Pr0 2.695 1_455 S
O22 Pr1 2.436 . S
O22 C9 1.270 . S
O23 Pr0 2.512 . S
O23 C9 1.248 1_655 S
O24 Pr1 2.438 1_655 S
O24 C10 1.267 . S
O25 Pr0 2.437 . S
O25 C10 1.278 . S
O26 Pr1 2.562 . S
O26 C11 1.254 . S
O27 Pr1 2.490 . S
O27 C11 1.225 . S
O28 Pr0 2.436 . S
O28 Pr1 2.695 1_655 S
O28 C18 1.270 1_655 S
O29 Pr1 2.512 . S
O29 C18 1.248 . S
O30 Pr0 2.438 1_455 S
O30 C19 1.267 . S
O31 Pr1 2.437 . S
O31 C19 1.278 . S
H32 C4 0.929 . S
H33 C5 0.929 . S
H34 C7 0.931 . S
H35 C8 0.930 . S
H36 C13 0.929 . S
H37 C14 0.929 . S
H38 C16 0.931 . S
H39 C17 0.930 . S
Pr40 C42 2.880 . S
Pr40 O60 2.562 . S
Pr40 O61 2.490 . S
Pr40 O62 2.692 1_545 S
Pr40 O63 2.512 . S
Pr40 O65 2.437 . S
Pr40 O68 2.436 . S
Pr40 O70 2.438 1_545 S
Pr41 C51 2.880 . S
Pr41 O62 2.434 . S
Pr41 O64 2.438 1_565 S
Pr41 O66 2.562 . S
Pr41 O67 2.490 . S
Pr41 O68 2.695 1_565 S
Pr41 O69 2.512 . S
Pr41 O71 2.437 . S
C42 Pr40 2.880 . S
C42 C43 1.491 . S
C42 O60 1.254 . S
C42 O61 1.225 . S
C43 C42 1.491 . S
C43 C44 1.392 . S
C43 C48 1.356 . S
C44 C43 1.392 . S
C44 C45 1.368 . S
C44 H72 0.929 . S
C45 C44 1.368 . S
C45 C46 1.386 . S
C45 H73 0.929 . S
C46 C45 1.386 . S
C46 C47 1.373 . S
C47 C46 1.373 . S
C47 C48 1.409 . S
C47 H74 0.931 . S
C48 C43 1.356 . S
C48 C47 1.409 . S
C48 H75 0.930 . S
C49 O62 1.267 1_545 S
C49 O63 1.248 . S
C50 O64 1.267 . S
C50 O65 1.278 . S
C51 Pr41 2.880 . S
C51 C52 1.491 . S
C51 O66 1.254 . S
C51 O67 1.225 . S
C52 C51 1.491 . S
C52 C53 1.392 . S
C52 C57 1.356 . S
C53 C52 1.392 . S
C53 C54 1.368 . S
C53 H76 0.929 . S
C54 C53 1.368 . S
C54 C55 1.386 . S
C54 H77 0.929 . S
C55 C54 1.386 . S
C55 C56 1.373 . S
C56 C55 1.373 . S
C56 C57 1.409 . S
C56 H78 0.931 . S
C57 C52 1.356 . S
C57 C56 1.409 . S
C57 H79 0.930 . S
C58 O68 1.270 . S
C58 O69 1.248 1_545 S
C59 O70 1.267 . S
C59 O71 1.278 . S
O60 Pr40 2.562 . S
O60 C42 1.254 . S
O61 Pr40 2.490 . S
O61 C42 1.225 . S
O62 Pr40 2.692 1_565 S
O62 Pr41 2.434 . S
O62 C49 1.267 1_565 S
O63 Pr40 2.512 . S
O63 C49 1.248 . S
O64 Pr41 2.438 1_545 S
O64 C50 1.267 . S
O65 Pr40 2.437 . S
O65 C50 1.278 . S
O66 Pr41 2.562 . S
O66 C51 1.254 . S
O67 Pr41 2.490 . S
O67 C51 1.225 . S
O68 Pr40 2.436 . S
O68 Pr41 2.695 1_545 S
O68 C58 1.270 . S
O69 Pr41 2.512 . S
O69 C58 1.248 1_565 S
O70 Pr40 2.438 1_565 S
O70 C59 1.267 . S
O71 Pr41 2.437 . S
O71 C59 1.278 . S
H72 C44 0.929 . S
H73 C45 0.929 . S
H74 C47 0.931 . S
H75 C48 0.930 . S
H76 C53 0.929 . S
H77 C54 0.929 . S
H78 C56 0.931 . S
H79 C57 0.930 . S
Pr80 C82 2.880 . S
Pr80 O100 2.562 . S
Pr80 O101 2.490 . S
Pr80 O102 2.695 . S
Pr80 O103 2.512 . S
Pr80 O105 2.437 . S
Pr80 O108 2.436 . S
Pr80 O110 2.438 . S
Pr81 C91 2.880 . S
Pr81 O102 2.436 . S
Pr81 O104 2.438 . S
Pr81 O106 2.562 . S
Pr81 O107 2.490 . S
Pr81 O108 2.695 . S
Pr81 O109 2.512 . S
Pr81 O111 2.437 . S
C82 Pr80 2.880 . S
C82 C83 1.491 . S
C82 O100 1.254 . S
C82 O101 1.225 . S
C83 C82 1.491 . S
C83 C84 1.392 . S
C83 C88 1.356 . S
C84 C83 1.392 . S
C84 C85 1.368 . S
C84 H112 0.929 . S
C85 C84 1.368 . S
C85 C86 1.386 . S
C85 H113 0.929 . S
C86 C85 1.386 . S
C86 C87 1.373 . S
C87 C86 1.373 . S
C87 C88 1.409 . S
C87 H114 0.931 . S
C88 C83 1.356 . S
C88 C87 1.409 . S
C88 H115 0.930 . S
C89 O102 1.270 . S
C89 O103 1.248 . S
C90 O104 1.267 . S
C90 O105 1.278 . S
C91 Pr81 2.880 . S
C91 C92 1.491 . S
C91 O106 1.254 . S
C91 O107 1.225 . S
C92 C91 1.491 . S
C92 C93 1.392 . S
C92 C97 1.356 . S
C93 C92 1.392 . S
C93 C94 1.368 . S
C93 H116 0.929 . S
C94 C93 1.368 . S
C94 C95 1.386 . S
C94 H117 0.929 . S
C95 C94 1.386 . S
C95 C96 1.373 . S
C96 C95 1.373 . S
C96 C97 1.409 . S
C96 H118 0.931 . S
C97 C92 1.356 . S
C97 C96 1.409 . S
C97 H119 0.930 . S
C98 O108 1.270 . S
C98 O109 1.248 . S
C99 O110 1.267 . S
C99 O111 1.278 . S
O100 Pr80 2.562 . S
O100 C82 1.254 . S
O101 Pr80 2.490 . S
O101 C82 1.225 . S
O102 Pr80 2.695 . S
O102 Pr81 2.436 . S
O102 C89 1.270 . S
O103 Pr80 2.512 . S
O103 C89 1.248 . S
O104 Pr81 2.438 . S
O104 C90 1.267 . S
O105 Pr80 2.437 . S
O105 C90 1.278 . S
O106 Pr81 2.562 . S
O106 C91 1.254 . S
O107 Pr81 2.490 . S
O107 C91 1.225 . S
O108 Pr80 2.436 . S
O108 Pr81 2.695 . S
O108 C98 1.270 . S
O109 Pr81 2.512 . S
O109 C98 1.248 . S
O110 Pr80 2.438 . S
O110 C99 1.267 . S
O111 Pr81 2.437 . S
O111 C99 1.278 . S
H112 C84 0.929 . S
H113 C85 0.929 . S
H114 C87 0.931 . S
H115 C88 0.930 . S
H116 C93 0.929 . S
H117 C94 0.929 . S
H118 C96 0.931 . S
H119 C97 0.930 . S
H120 C123 0.931 . S
H121 C126 0.928 . S
H122 C128 0.930 . S
C123 H120 0.931 . S
C123 C124 1.413 . S
C123 C125 1.360 1_565 S
C124 C123 1.413 . S
C124 C128 1.429 1_565 S
C125 C123 1.360 1_545 S
C125 C126 1.372 . S
C126 H121 0.928 . S
C126 C125 1.372 . S
C126 C127 1.404 . S
C127 C126 1.404 . S
C127 C128 1.391 . S
C128 H122 0.930 . S
C128 C124 1.429 1_545 S
C128 C127 1.391 . S
H129 C132 0.931 . S
H130 C135 0.928 . S
H131 C137 0.930 . S
C132 H129 0.931 . S
C132 C133 1.413 . S
C132 C134 1.360 . S
C133 C132 1.413 . S
C133 C137 1.429 . S
C134 C132 1.360 . S
C134 C135 1.372 . S
C135 H130 0.928 . S
C135 C134 1.372 . S
C135 C136 1.404 . S
C136 C135 1.404 . S
C136 C137 1.391 . S
C137 H131 0.930 . S
C137 C133 1.429 . S
C137 C136 1.391 . S
H138 C141 0.931 . S
H139 C144 0.928 . S
H140 C146 0.930 . S
C141 H138 0.931 . S
C141 C142 1.413 . S
C141 C143 1.360 1_655 S
C142 C141 1.413 . S
C142 C146 1.429 1_655 S
C143 C141 1.360 1_455 S
C143 C144 1.372 . S
C144 H139 0.928 . S
C144 C143 1.372 . S
C144 C145 1.404 . S
C145 C144 1.404 . S
C145 C146 1.391 . S
C146 H140 0.930 . S
C146 C142 1.429 1_455 S
C146 C145 1.391 . S
H147 C150 0.931 . S
H148 C153 0.928 . S
H149 C155 0.930 . S
C150 H147 0.931 . S
C150 C151 1.413 . S
C150 C152 1.360 . S
C151 C150 1.413 . S
C151 C155 1.429 1_655 S
C152 C150 1.360 . S
C152 C153 1.372 1_655 S
C153 H148 0.928 . S
C153 C152 1.372 1_455 S
C153 C154 1.404 . S
C154 C153 1.404 . S
C154 C155 1.391 . S
C155 H149 0.930 . S
C155 C151 1.429 1_455 S
C155 C154 1.391 . S
H156 C159 0.931 . S
H157 C162 0.928 . S
H158 C164 0.930 . S
C159 H156 0.931 . S
C159 C160 1.413 . S
C159 C161 1.360 . S
C160 C159 1.413 . S
C160 C164 1.429 . S
C161 C159 1.360 . S
C161 C162 1.372 1_545 S
C162 H157 0.928 . S
C162 C161 1.372 1_565 S
C162 C163 1.404 . S
C163 C162 1.404 . S
C163 C164 1.391 1_565 S
C164 H158 0.930 . S
C164 C160 1.429 . S
C164 C163 1.391 1_545 S
H165 C168 0.931 . S
H166 C171 0.928 . S
H167 C173 0.930 . S
C168 H165 0.931 . S
C168 C169 1.413 . S
C168 C170 1.360 . S
C169 C168 1.413 . S
C169 C173 1.429 . S
C170 C168 1.360 . S
C170 C171 1.372 . S
C171 H166 0.928 . S
C171 C170 1.372 . S
C171 C172 1.404 . S
C172 C171 1.404 . S
C172 C173 1.391 . S
C173 H167 0.930 . S
C173 C169 1.429 . S
C173 C172 1.391 . S
C174 C175 1.391 . S
C174 C176 1.394 . S
C174 H190 0.931 . S
C175 C174 1.391 . S
C175 C179 1.376 . S
C176 C174 1.394 . S
C176 C177 1.369 . S
C176 C180 1.531 . S
C177 C176 1.369 . S
C177 C178 1.410 . S
C177 C185 1.503 . S
C178 C177 1.410 . S
C178 C179 1.392 . S
C178 C181 1.511 . S
C179 C175 1.376 . S
C179 C178 1.392 . S
C179 H191 0.929 . S
C180 C176 1.531 . S
C180 H192 0.960 . S
C180 H193 0.962 . S
C180 H194 0.960 . S
C181 C178 1.511 . S
C181 H195 0.961 . S
C181 H196 0.961 . S
C181 H197 0.961 . S
C182 C183 1.370 . S
C182 C184 1.363 . S
C182 H198 0.931 . S
C183 C182 1.370 . S
C183 C187 1.408 . S
C184 C182 1.363 . S
C184 C185 1.370 . S
C184 C188 1.524 . S
C185 C177 1.503 . S
C185 C184 1.370 . S
C185 C186 1.403 . S
C186 C185 1.403 . S
C186 C187 1.404 . S
C186 C189 1.539 . S
C187 C183 1.408 . S
C187 C186 1.404 . S
C187 H199 0.930 . S
C188 C184 1.524 . S
C188 H200 0.956 . S
C188 H201 0.961 . S
C188 H202 0.961 . S
C189 C186 1.539 . S
C189 H203 0.958 . S
C189 H204 0.961 . S
C189 H205 0.960 . S
H190 C174 0.931 . S
H191 C179 0.929 . S
H192 C180 0.960 . S
H193 C180 0.962 . S
H194 C180 0.960 . S
H195 C181 0.961 . S
H196 C181 0.961 . S
H197 C181 0.961 . S
H198 C182 0.931 . S
H199 C187 0.930 . S
H200 C188 0.956 . S
H201 C188 0.961 . S
H202 C188 0.961 . S
H203 C189 0.958 . S
H204 C189 0.961 . S
H205 C189 0.960 . S
C206 C207 1.391 . S
C206 C208 1.394 . S
C206 H222 0.931 . S
C207 C206 1.391 . S
C207 C211 1.376 . S
C208 C206 1.394 . S
C208 C209 1.369 . S
C208 C212 1.531 . S
C209 C208 1.369 . S
C209 C210 1.410 . S
C209 C217 1.503 . S
C210 C209 1.410 . S
C210 C211 1.392 . S
C210 C213 1.511 . S
C211 C207 1.376 . S
C211 C210 1.392 . S
C211 H223 0.929 . S
C212 C208 1.531 . S
C212 H224 0.960 . S
C212 H225 0.962 . S
C212 H226 0.960 . S
C213 C210 1.511 . S
C213 H227 0.961 . S
C213 H228 0.961 . S
C213 H229 0.961 . S
C214 C215 1.370 . S
C214 C216 1.363 . S
C214 H230 0.931 . S
C215 C214 1.370 . S
C215 C219 1.408 . S
C216 C214 1.363 . S
C216 C217 1.370 . S
C216 C220 1.524 . S
C217 C209 1.503 . S
C217 C216 1.370 . S
C217 C218 1.403 . S
C218 C217 1.403 . S
C218 C219 1.404 . S
C218 C221 1.539 . S
C219 C215 1.408 . S
C219 C218 1.404 . S
C219 H231 0.930 . S
C220 C216 1.524 . S
C220 H232 0.956 . S
C220 H233 0.961 . S
C220 H234 0.961 . S
C221 C218 1.539 . S
C221 H235 0.958 . S
C221 H236 0.961 . S
C221 H237 0.960 . S
H222 C206 0.931 . S
H223 C211 0.929 . S
H224 C212 0.960 . S
H225 C212 0.962 . S
H226 C212 0.960 . S
H227 C213 0.961 . S
H228 C213 0.961 . S
H229 C213 0.961 . S
H230 C214 0.931 . S
H231 C219 0.930 . S
H232 C220 0.956 . S
H233 C220 0.961 . S
H234 C220 0.961 . S
H235 C221 0.958 . S
H236 C221 0.961 . S
H237 C221 0.960 . S
C238 C239 1.391 . S
C238 C240 1.394 . S
C238 H254 0.931 . S
C239 C238 1.391 . S
C239 C243 1.376 . S
C240 C238 1.394 . S
C240 C241 1.369 . S
C240 C244 1.531 . S
C241 C240 1.369 . S
C241 C242 1.410 . S
C241 C249 1.503 . S
C242 C241 1.410 . S
C242 C243 1.392 . S
C242 C245 1.511 . S
C243 C239 1.376 . S
C243 C242 1.392 . S
C243 H255 0.929 . S
C244 C240 1.531 . S
C244 H256 0.960 . S
C244 H257 0.962 . S
C244 H258 0.960 . S
C245 C242 1.511 . S
C245 H259 0.961 . S
C245 H260 0.961 . S
C245 H261 0.961 . S
C246 C247 1.370 . S
C246 C248 1.363 . S
C246 H262 0.931 . S
C247 C246 1.370 . S
C247 C251 1.408 . S
C248 C246 1.363 . S
C248 C249 1.370 . S
C248 C252 1.524 . S
C249 C241 1.503 . S
C249 C248 1.370 . S
C249 C250 1.403 . S
C250 C249 1.403 . S
C250 C251 1.404 . S
C250 C253 1.539 . S
C251 C247 1.408 . S
C251 C250 1.404 . S
C251 H263 0.930 . S
C252 C248 1.524 . S
C252 H264 0.956 . S
C252 H265 0.961 . S
C252 H266 0.961 . S
C253 C250 1.539 . S
C253 H267 0.958 . S
C253 H268 0.961 . S
C253 H269 0.960 . S
H254 C238 0.931 . S
H255 C243 0.929 . S
H256 C244 0.960 . S
H257 C244 0.962 . S
H258 C244 0.960 . S
H259 C245 0.961 . S
H260 C245 0.961 . S
H261 C245 0.961 . S
H262 C246 0.931 . S
H263 C251 0.930 . S
H264 C252 0.956 . S
H265 C252 0.961 . S
H266 C252 0.961 . S
H267 C253 0.958 . S
H268 C253 0.961 . S
H269 C253 0.960 . S
C270 C271 1.391 . S
C270 C272 1.394 . S
C270 H286 0.931 . S
C271 C270 1.391 . S
C271 C275 1.376 . S
C272 C270 1.394 . S
C272 C273 1.369 . S
C272 C276 1.531 . S
C273 C272 1.369 . S
C273 C274 1.410 . S
C273 C281 1.503 . S
C274 C273 1.410 . S
C274 C275 1.392 . S
C274 C277 1.511 . S
C275 C271 1.376 . S
C275 C274 1.392 . S
C275 H287 0.929 . S
C276 C272 1.531 . S
C276 H288 0.960 . S
C276 H289 0.962 . S
C276 H290 0.960 . S
C277 C274 1.511 . S
C277 H291 0.961 . S
C277 H292 0.961 . S
C277 H293 0.961 . S
C278 C279 1.370 . S
C278 C280 1.363 . S
C278 H294 0.931 . S
C279 C278 1.370 . S
C279 C283 1.408 . S
C280 C278 1.363 . S
C280 C281 1.370 . S
C280 C284 1.524 . S
C281 C273 1.503 . S
C281 C280 1.370 . S
C281 C282 1.403 . S
C282 C281 1.403 . S
C282 C283 1.404 . S
C282 C285 1.539 . S
C283 C279 1.408 . S
C283 C282 1.404 . S
C283 H295 0.930 . S
C284 C280 1.524 . S
C284 H296 0.956 . S
C284 H297 0.961 . S
C284 H298 0.961 . S
C285 C282 1.539 . S
C285 H299 0.958 . S
C285 H300 0.961 . S
C285 H301 0.960 . S
H286 C270 0.931 . S
H287 C275 0.929 . S
H288 C276 0.960 . S
H289 C276 0.962 . S
H290 C276 0.960 . S
H291 C277 0.961 . S
H292 C277 0.961 . S
H293 C277 0.961 . S
H294 C278 0.931 . S
H295 C283 0.930 . S
H296 C284 0.956 . S
H297 C284 0.961 . S
H298 C284 0.961 . S
H299 C285 0.958 . S
H300 C285 0.961 . S
H301 C285 0.960 . S
C302 C303 1.391 . S
C302 C304 1.394 . S
C302 H318 0.931 . S
C303 C302 1.391 . S
C303 C307 1.376 . S
C304 C302 1.394 . S
C304 C305 1.369 . S
C304 C308 1.531 . S
C305 C304 1.369 . S
C305 C306 1.410 . S
C305 C313 1.503 . S
C306 C305 1.410 . S
C306 C307 1.392 . S
C306 C309 1.511 . S
C307 C303 1.376 . S
C307 C306 1.392 . S
C307 H319 0.929 . S
C308 C304 1.531 . S
C308 H320 0.960 . S
C308 H321 0.962 . S
C308 H322 0.960 . S
C309 C306 1.511 . S
C309 H323 0.961 . S
C309 H324 0.961 . S
C309 H325 0.961 . S
C310 C311 1.370 . S
C310 C312 1.363 . S
C310 H326 0.931 . S
C311 C310 1.370 . S
C311 C315 1.408 . S
C312 C310 1.363 . S
C312 C313 1.370 . S
C312 C316 1.524 . S
C313 C305 1.503 . S
C313 C312 1.370 . S
C313 C314 1.403 . S
C314 C313 1.403 . S
C314 C315 1.404 . S
C314 C317 1.539 . S
C315 C311 1.408 . S
C315 C314 1.404 . S
C315 H327 0.930 . S
C316 C312 1.524 . S
C316 H328 0.956 . S
C316 H329 0.961 . S
C316 H330 0.961 . S
C317 C314 1.539 . S
C317 H331 0.958 . S
C317 H332 0.961 . S
C317 H333 0.960 . S
H318 C302 0.931 . S
H319 C307 0.929 . S
H320 C308 0.960 . S
H321 C308 0.962 . S
H322 C308 0.960 . S
H323 C309 0.961 . S
H324 C309 0.961 . S
H325 C309 0.961 . S
H326 C310 0.931 . S
H327 C315 0.930 . S
H328 C316 0.956 . S
H329 C316 0.961 . S
H330 C316 0.961 . S
H331 C317 0.958 . S
H332 C317 0.961 . S
H333 C317 0.960 . S
C334 C335 1.391 . S
C334 C336 1.394 . S
C334 H350 0.931 . S
C335 C334 1.391 . S
C335 C339 1.376 . S
C336 C334 1.394 . S
C336 C337 1.369 . S
C336 C340 1.531 . S
C337 C336 1.369 . S
C337 C338 1.410 . S
C337 C345 1.503 . S
C338 C337 1.410 . S
C338 C339 1.392 . S
C338 C341 1.511 . S
C339 C335 1.376 . S
C339 C338 1.392 . S
C339 H351 0.929 . S
C340 C336 1.531 . S
C340 H352 0.960 . S
C340 H353 0.962 . S
C340 H354 0.960 . S
C341 C338 1.511 . S
C341 H355 0.961 . S
C341 H356 0.961 . S
C341 H357 0.961 . S
C342 C343 1.370 . S
C342 C344 1.363 . S
C342 H358 0.931 . S
C343 C342 1.370 . S
C343 C347 1.408 . S
C344 C342 1.363 . S
C344 C345 1.370 . S
C344 C348 1.524 . S
C345 C337 1.503 . S
C345 C344 1.370 . S
C345 C346 1.403 . S
C346 C345 1.403 . S
C346 C347 1.404 . S
C346 C349 1.539 . S
C347 C343 1.408 . S
C347 C346 1.404 . S
C347 H359 0.930 . S
C348 C344 1.524 . S
C348 H360 0.956 . S
C348 H361 0.961 . S
C348 H362 0.961 . S
C349 C346 1.539 . S
C349 H363 0.958 . S
C349 H364 0.961 . S
C349 H365 0.960 . S
H350 C334 0.931 . S
H351 C339 0.929 . S
H352 C340 0.960 . S
H353 C340 0.962 . S
H354 C340 0.960 . S
H355 C341 0.961 . S
H356 C341 0.961 . S
H357 C341 0.961 . S
H358 C342 0.931 . S
H359 C347 0.930 . S
H360 C348 0.956 . S
H361 C348 0.961 . S
H362 C348 0.961 . S
H363 C349 0.958 . S
H364 C349 0.961 . S
H365 C349 0.960 . S
C366 C367 1.391 . S
C366 C368 1.394 . S
C366 H382 0.931 . S
C367 C366 1.391 . S
C367 C371 1.376 . S
C368 C366 1.394 . S
C368 C369 1.369 . S
C368 C372 1.531 . S
C369 C368 1.369 . S
C369 C370 1.410 . S
C369 C377 1.503 . S
C370 C369 1.410 . S
C370 C371 1.392 . S
C370 C373 1.511 . S
C371 C367 1.376 . S
C371 C370 1.392 . S
C371 H383 0.929 . S
C372 C368 1.531 . S
C372 H384 0.960 . S
C372 H385 0.962 . S
C372 H386 0.960 . S
C373 C370 1.511 . S
C373 H387 0.961 . S
C373 H388 0.961 . S
C373 H389 0.961 . S
C374 C375 1.370 . S
C374 C376 1.363 . S
C374 H390 0.931 . S
C375 C374 1.370 . S
C375 C379 1.408 . S
C376 C374 1.363 . S
C376 C377 1.370 . S
C376 C380 1.524 . S
C377 C369 1.503 . S
C377 C376 1.370 . S
C377 C378 1.403 . S
C378 C377 1.403 . S
C378 C379 1.404 . S
C378 C381 1.539 . S
C379 C375 1.408 . S
C379 C378 1.404 . S
C379 H391 0.930 . S
C380 C376 1.524 . S
C380 H392 0.956 . S
C380 H393 0.961 . S
C380 H394 0.961 . S
C381 C378 1.539 . S
C381 H395 0.958 . S
C381 H396 0.961 . S
C381 H397 0.960 . S
H382 C366 0.931 . S
H383 C371 0.929 . S
H384 C372 0.960 . S
H385 C372 0.962 . S
H386 C372 0.960 . S
H387 C373 0.961 . S
H388 C373 0.961 . S
H389 C373 0.961 . S
H390 C374 0.931 . S
H391 C379 0.930 . S
H392 C380 0.956 . S
H393 C380 0.961 . S
H394 C380 0.961 . S
H395 C381 0.958 . S
H396 C381 0.961 . S
H397 C381 0.960 . S
C398 C399 1.391 . S
C398 C400 1.394 . S
C398 H414 0.931 . S
C399 C398 1.391 . S
C399 C403 1.376 . S
C400 C398 1.394 . S
C400 C401 1.369 . S
C400 C404 1.531 . S
C401 C400 1.369 . S
C401 C402 1.410 . S
C401 C409 1.503 . S
C402 C401 1.410 . S
C402 C403 1.392 . S
C402 C405 1.511 . S
C403 C399 1.376 . S
C403 C402 1.392 . S
C403 H415 0.929 . S
C404 C400 1.531 . S
C404 H416 0.960 . S
C404 H417 0.962 . S
C404 H418 0.960 . S
C405 C402 1.511 . S
C405 H419 0.961 . S
C405 H420 0.961 . S
C405 H421 0.961 . S
C406 C407 1.370 . S
C406 C408 1.363 . S
C406 H422 0.931 . S
C407 C406 1.370 . S
C407 C411 1.408 . S
C408 C406 1.363 . S
C408 C409 1.370 . S
C408 C412 1.524 . S
C409 C401 1.503 . S
C409 C408 1.370 . S
C409 C410 1.403 . S
C410 C409 1.403 . S
C410 C411 1.404 . S
C410 C413 1.539 . S
C411 C407 1.408 . S
C411 C410 1.404 . S
C411 H423 0.930 . S
C412 C408 1.524 . S
C412 H424 0.956 . S
C412 H425 0.961 . S
C412 H426 0.961 . S
C413 C410 1.539 . S
C413 H427 0.958 . S
C413 H428 0.961 . S
C413 H429 0.960 . S
H414 C398 0.931 . S
H415 C403 0.929 . S
H416 C404 0.960 . S
H417 C404 0.962 . S
H418 C404 0.960 . S
H419 C405 0.961 . S
H420 C405 0.961 . S
H421 C405 0.961 . S
H422 C406 0.931 . S
H423 C411 0.930 . S
H424 C412 0.956 . S
H425 C412 0.961 . S
H426 C412 0.961 . S
H427 C413 0.958 . S
H428 C413 0.961 . S
H429 C413 0.960 . S
C430 C431 1.391 . S
C430 C432 1.394 . S
C430 H446 0.931 . S
C431 C430 1.391 . S
C431 C435 1.376 . S
C432 C430 1.394 . S
C432 C433 1.369 . S
C432 C436 1.531 . S
C433 C432 1.369 . S
C433 C434 1.410 . S
C433 C441 1.503 . S
C434 C433 1.410 . S
C434 C435 1.392 . S
C434 C437 1.511 . S
C435 C431 1.376 . S
C435 C434 1.392 . S
C435 H447 0.929 . S
C436 C432 1.531 . S
C436 H448 0.960 . S
C436 H449 0.962 . S
C436 H450 0.960 . S
C437 C434 1.511 . S
C437 H451 0.961 . S
C437 H452 0.961 . S
C437 H453 0.961 . S
C438 C439 1.370 . S
C438 C440 1.363 . S
C438 H454 0.931 . S
C439 C438 1.370 . S
C439 C443 1.408 . S
C440 C438 1.363 . S
C440 C441 1.370 . S
C440 C444 1.524 . S
C441 C433 1.503 . S
C441 C440 1.370 . S
C441 C442 1.403 . S
C442 C441 1.403 . S
C442 C443 1.404 . S
C442 C445 1.539 . S
C443 C439 1.408 . S
C443 C442 1.404 . S
C443 H455 0.930 . S
C444 C440 1.524 . S
C444 H456 0.956 . S
C444 H457 0.961 . S
C444 H458 0.961 . S
C445 C442 1.539 . S
C445 H459 0.958 . S
C445 H460 0.961 . S
C445 H461 0.960 . S
H446 C430 0.931 . S
H447 C435 0.929 . S
H448 C436 0.960 . S
H449 C436 0.962 . S
H450 C436 0.960 . S
H451 C437 0.961 . S
H452 C437 0.961 . S
H453 C437 0.961 . S
H454 C438 0.931 . S
H455 C443 0.930 . S
H456 C444 0.956 . S
H457 C444 0.961 . S
H458 C444 0.961 . S
H459 C445 0.958 . S
H460 C445 0.961 . S
H461 C445 0.960 . S
C462 C463 1.391 . S
C462 C464 1.394 . S
C462 H478 0.931 . S
C463 C462 1.391 . S
C463 C467 1.376 . S
C464 C462 1.394 . S
C464 C465 1.369 . S
C464 C468 1.531 . S
C465 C464 1.369 . S
C465 C466 1.410 . S
C465 C473 1.503 . S
C466 C465 1.410 . S
C466 C467 1.392 . S
C466 C469 1.511 . S
C467 C463 1.376 . S
C467 C466 1.392 . S
C467 H479 0.929 . S
C468 C464 1.531 . S
C468 H480 0.960 . S
C468 H481 0.962 . S
C468 H482 0.960 . S
C469 C466 1.511 . S
C469 H483 0.961 . S
C469 H484 0.961 . S
C469 H485 0.961 . S
C470 C471 1.370 . S
C470 C472 1.363 . S
C470 H486 0.931 . S
C471 C470 1.370 . S
C471 C475 1.408 . S
C472 C470 1.363 . S
C472 C473 1.370 . S
C472 C476 1.524 . S
C473 C465 1.503 . S
C473 C472 1.370 . S
C473 C474 1.403 . S
C474 C473 1.403 . S
C474 C475 1.404 . S
C474 C477 1.539 . S
C475 C471 1.408 . S
C475 C474 1.404 . S
C475 H487 0.930 . S
C476 C472 1.524 . S
C476 H488 0.956 . S
C476 H489 0.961 . S
C476 H490 0.961 . S
C477 C474 1.539 . S
C477 H491 0.958 . S
C477 H492 0.961 . S
C477 H493 0.960 . S
H478 C462 0.931 . S
H479 C467 0.929 . S
H480 C468 0.960 . S
H481 C468 0.962 . S
H482 C468 0.960 . S
H483 C469 0.961 . S
H484 C469 0.961 . S
H485 C469 0.961 . S
H486 C470 0.931 . S
H487 C475 0.930 . S
H488 C476 0.956 . S
H489 C476 0.961 . S
H490 C476 0.961 . S
H491 C477 0.958 . S
H492 C477 0.961 . S
H493 C477 0.960 . S
C494 C495 1.391 . S
C494 C496 1.394 . S
C494 H510 0.931 . S
C495 C494 1.391 . S
C495 C499 1.376 . S
C496 C494 1.394 . S
C496 C497 1.369 . S
C496 C500 1.531 . S
C497 C496 1.369 . S
C497 C498 1.410 . S
C497 C505 1.503 . S
C498 C497 1.410 . S
C498 C499 1.392 . S
C498 C501 1.511 . S
C499 C495 1.376 . S
C499 C498 1.392 . S
C499 H511 0.929 . S
C500 C496 1.531 . S
C500 H512 0.960 . S
C500 H513 0.962 . S
C500 H514 0.960 . S
C501 C498 1.511 . S
C501 H515 0.961 . S
C501 H516 0.961 . S
C501 H517 0.961 . S
C502 C503 1.370 . S
C502 C504 1.363 . S
C502 H518 0.931 . S
C503 C502 1.370 . S
C503 C507 1.408 . S
C504 C502 1.363 . S
C504 C505 1.370 . S
C504 C508 1.524 . S
C505 C497 1.503 . S
C505 C504 1.370 . S
C505 C506 1.403 . S
C506 C505 1.403 . S
C506 C507 1.404 . S
C506 C509 1.539 . S
C507 C503 1.408 . S
C507 C506 1.404 . S
C507 H519 0.930 . S
C508 C504 1.524 . S
C508 H520 0.956 . S
C508 H521 0.961 . S
C508 H522 0.961 . S
C509 C506 1.539 . S
C509 H523 0.958 . S
C509 H524 0.961 . S
C509 H525 0.960 . S
H510 C494 0.931 . S
H511 C499 0.929 . S
H512 C500 0.960 . S
H513 C500 0.962 . S
H514 C500 0.960 . S
H515 C501 0.961 . S
H516 C501 0.961 . S
H517 C501 0.961 . S
H518 C502 0.931 . S
H519 C507 0.930 . S
H520 C508 0.956 . S
H521 C508 0.961 . S
H522 C508 0.961 . S
H523 C509 0.958 . S
H524 C509 0.961 . S
H525 C509 0.960 . S
C526 C527 1.391 . S
C526 C528 1.394 . S
C526 H542 0.931 . S
C527 C526 1.391 . S
C527 C531 1.376 . S
C528 C526 1.394 . S
C528 C529 1.369 . S
C528 C532 1.531 . S
C529 C528 1.369 . S
C529 C530 1.410 . S
C529 C537 1.503 . S
C530 C529 1.410 . S
C530 C531 1.392 . S
C530 C533 1.511 . S
C531 C527 1.376 . S
C531 C530 1.392 . S
C531 H543 0.929 . S
C532 C528 1.531 . S
C532 H544 0.960 . S
C532 H545 0.962 . S
C532 H546 0.960 . S
C533 C530 1.511 . S
C533 H547 0.961 . S
C533 H548 0.961 . S
C533 H549 0.961 . S
C534 C535 1.370 . S
C534 C536 1.363 . S
C534 H550 0.931 . S
C535 C534 1.370 . S
C535 C539 1.408 . S
C536 C534 1.363 . S
C536 C537 1.370 . S
C536 C540 1.524 . S
C537 C529 1.503 . S
C537 C536 1.370 . S
C537 C538 1.403 . S
C538 C537 1.403 . S
C538 C539 1.404 . S
C538 C541 1.539 . S
C539 C535 1.408 . S
C539 C538 1.404 . S
C539 H551 0.930 . S
C540 C536 1.524 . S
C540 H552 0.956 . S
C540 H553 0.961 . S
C540 H554 0.961 . S
C541 C538 1.539 . S
C541 H555 0.958 . S
C541 H556 0.961 . S
C541 H557 0.960 . S
H542 C526 0.931 . S
H543 C531 0.929 . S
H544 C532 0.960 . S
H545 C532 0.962 . S
H546 C532 0.960 . S
H547 C533 0.961 . S
H548 C533 0.961 . S
H549 C533 0.961 . S
H550 C534 0.931 . S
H551 C539 0.930 . S
H552 C540 0.956 . S
H553 C540 0.961 . S
H554 C540 0.961 . S
H555 C541 0.958 . S
H556 C541 0.961 . S
H557 C541 0.960 . S
C558 C559 1.391 . S
C558 C560 1.394 . S
C558 H574 0.931 . S
C559 C558 1.391 . S
C559 C563 1.376 1_455 S
C560 C558 1.394 . S
C560 C561 1.369 . S
C560 C564 1.531 . S
C561 C560 1.369 . S
C561 C562 1.410 1_455 S
C561 C569 1.503 1_554 S
C562 C561 1.410 1_655 S
C562 C563 1.392 . S
C562 C565 1.511 . S
C563 C559 1.376 1_655 S
C563 C562 1.392 . S
C563 H575 0.929 . S
C564 C560 1.531 . S
C564 H576 0.960 . S
C564 H577 0.962 . S
C564 H578 0.960 . S
C565 C562 1.511 . S
C565 H579 0.961 . S
C565 H580 0.961 . S
C565 H581 0.961 . S
C566 C567 1.370 . S
C566 C568 1.363 . S
C566 H582 0.931 . S
C567 C566 1.370 . S
C567 C571 1.408 1_455 S
C568 C566 1.363 . S
C568 C569 1.370 . S
C568 C572 1.524 1_556 S
C569 C561 1.503 1_556 S
C569 C568 1.370 . S
C569 C570 1.403 1_455 S
C570 C569 1.403 1_655 S
C570 C571 1.404 . S
C570 C573 1.539 . S
C571 C567 1.408 1_655 S
C571 C570 1.404 . S
C571 H583 0.930 . S
C572 C568 1.524 1_554 S
C572 H584 0.956 . S
C572 H585 0.961 . S
C572 H586 0.961 1_554 S
C573 C570 1.539 . S
C573 H587 0.958 . S
C573 H588 0.961 . S
C573 H589 0.960 1_556 S
H574 C558 0.931 . S
H575 C563 0.929 . S
H576 C564 0.960 . S
H577 C564 0.962 . S
H578 C564 0.960 . S
H579 C565 0.961 . S
H580 C565 0.961 . S
H581 C565 0.961 . S
H582 C566 0.931 . S
H583 C571 0.930 . S
H584 C572 0.956 . S
H585 C572 0.961 . S
H586 C572 0.961 1_556 S
H587 C573 0.958 . S
H588 C573 0.961 . S
H589 C573 0.960 1_554 S
C590 C591 1.391 1_565 S
C590 C592 1.394 . S
C590 H606 0.931 . S
C591 C590 1.391 1_545 S
C591 C595 1.376 . S
C592 C590 1.394 . S
C592 C593 1.369 1_565 S
C592 C596 1.531 . S
C593 C592 1.369 1_545 S
C593 C594 1.410 . S
C593 C601 1.503 . S
C594 C593 1.410 . S
C594 C595 1.392 . S
C594 C597 1.511 . S
C595 C591 1.376 . S
C595 C594 1.392 . S
C595 H607 0.929 . S
C596 C592 1.531 . S
C596 H608 0.960 . S
C596 H609 0.962 . S
C596 H610 0.960 . S
C597 C594 1.511 . S
C597 H611 0.961 . S
C597 H612 0.961 . S
C597 H613 0.961 . S
C598 C599 1.370 . S
C598 C600 1.363 . S
C598 H614 0.931 . S
C599 C598 1.370 . S
C599 C603 1.408 . S
C600 C598 1.363 . S
C600 C601 1.370 . S
C600 C604 1.524 . S
C601 C593 1.503 . S
C601 C600 1.370 . S
C601 C602 1.403 . S
C602 C601 1.403 . S
C602 C603 1.404 . S
C602 C605 1.539 1_545 S
C603 C599 1.408 . S
C603 C602 1.404 . S
C603 H615 0.930 1_545 S
C604 C600 1.524 . S
C604 H616 0.956 . S
C604 H617 0.961 . S
C604 H618 0.961 . S
C605 C602 1.539 1_565 S
C605 H619 0.958 . S
C605 H620 0.961 . S
C605 H621 0.960 . S
H606 C590 0.931 . S
H607 C595 0.929 . S
H608 C596 0.960 . S
H609 C596 0.962 . S
H610 C596 0.960 . S
H611 C597 0.961 . S
H612 C597 0.961 . S
H613 C597 0.961 . S
H614 C598 0.931 . S
H615 C603 0.930 1_565 S
H616 C604 0.956 . S
H617 C604 0.961 . S
H618 C604 0.961 . S
H619 C605 0.958 . S
H620 C605 0.961 . S
H621 C605 0.960 . S
C622 C623 1.391 . S
C622 C624 1.394 . S
C622 H638 0.931 . S
C623 C622 1.391 . S
C623 C627 1.376 . S
C624 C622 1.394 . S
C624 C625 1.369 . S
C624 C628 1.531 . S
C625 C624 1.369 . S
C625 C626 1.410 . S
C625 C633 1.503 . S
C626 C625 1.410 . S
C626 C627 1.392 . S
C626 C629 1.511 . S
C627 C623 1.376 . S
C627 C626 1.392 . S
C627 H639 0.929 . S
C628 C624 1.531 . S
C628 H640 0.960 . S
C628 H641 0.962 . S
C628 H642 0.960 . S
C629 C626 1.511 . S
C629 H643 0.961 . S
C629 H644 0.961 . S
C629 H645 0.961 . S
C630 C631 1.370 . S
C630 C632 1.363 . S
C630 H646 0.931 . S
C631 C630 1.370 . S
C631 C635 1.408 . S
C632 C630 1.363 . S
C632 C633 1.370 . S
C632 C636 1.524 . S
C633 C625 1.503 . S
C633 C632 1.370 . S
C633 C634 1.403 . S
C634 C633 1.403 . S
C634 C635 1.404 . S
C634 C637 1.539 . S
C635 C631 1.408 . S
C635 C634 1.404 . S
C635 H647 0.930 . S
C636 C632 1.524 . S
C636 H648 0.956 . S
C636 H649 0.961 . S
C636 H650 0.961 . S
C637 C634 1.539 . S
C637 H651 0.958 . S
C637 H652 0.961 . S
C637 H653 0.960 . S
H638 C622 0.931 . S
H639 C627 0.929 . S
H640 C628 0.960 . S
H641 C628 0.962 . S
H642 C628 0.960 . S
H643 C629 0.961 . S
H644 C629 0.961 . S
H645 C629 0.961 . S
H646 C630 0.931 . S
H647 C635 0.930 . S
H648 C636 0.956 . S
H649 C636 0.961 . S
H650 C636 0.961 . S
H651 C637 0.958 . S
H652 C637 0.961 . S
H653 C637 0.960 . S
C654 C655 1.391 . S
C654 C656 1.394 . S
C654 H670 0.931 . S
C655 C654 1.391 . S
C655 C659 1.376 . S
C656 C654 1.394 . S
C656 C657 1.369 . S
C656 C660 1.531 . S
C657 C656 1.369 . S
C657 C658 1.410 . S
C657 C665 1.503 . S
C658 C657 1.410 . S
C658 C659 1.392 . S
C658 C661 1.511 1_545 S
C659 C655 1.376 . S
C659 C658 1.392 . S
C659 H671 0.929 1_545 S
C660 C656 1.531 . S
C660 H672 0.960 . S
C660 H673 0.962 . S
C660 H674 0.960 . S
C661 C658 1.511 1_565 S
C661 H675 0.961 . S
C661 H676 0.961 . S
C661 H677 0.961 1_565 S
C662 C663 1.370 1_565 S
C662 C664 1.363 . S
C662 H678 0.931 . S
C663 C662 1.370 1_545 S
C663 C667 1.408 . S
C664 C662 1.363 . S
C664 C665 1.370 1_565 S
C664 C668 1.524 . S
C665 C657 1.503 . S
C665 C664 1.370 1_545 S
C665 C666 1.403 . S
C666 C665 1.403 . S
C666 C667 1.404 . S
C666 C669 1.539 . S
C667 C663 1.408 . S
C667 C666 1.404 . S
C667 H679 0.930 . S
C668 C664 1.524 . S
C668 H680 0.956 . S
C668 H681 0.961 . S
C668 H682 0.961 . S
C669 C666 1.539 . S
C669 H683 0.958 . S
C669 H684 0.961 . S
C669 H685 0.960 . S
H670 C654 0.931 . S
H671 C659 0.929 1_565 S
H672 C660 0.960 . S
H673 C660 0.962 . S
H674 C660 0.960 . S
H675 C661 0.961 . S
H676 C661 0.961 . S
H677 C661 0.961 1_545 S
H678 C662 0.931 . S
H679 C667 0.930 . S
H680 C668 0.956 . S
H681 C668 0.961 . S
H682 C668 0.961 . S
H683 C669 0.958 . S
H684 C669 0.961 . S
H685 C669 0.960 . S
C686 C687 1.391 . S
C686 C688 1.394 . S
C686 H702 0.931 . S
C687 C686 1.391 . S
C687 C691 1.376 . S
C688 C686 1.394 . S
C688 C689 1.369 . S
C688 C692 1.531 . S
C689 C688 1.369 . S
C689 C690 1.410 . S
C689 C697 1.503 1_556 S
C690 C689 1.410 . S
C690 C691 1.392 . S
C690 C693 1.511 . S
C691 C687 1.376 . S
C691 C690 1.392 . S
C691 H703 0.929 . S
C692 C688 1.531 . S
C692 H704 0.960 . S
C692 H705 0.962 . S
C692 H706 0.960 . S
C693 C690 1.511 . S
C693 H707 0.961 . S
C693 H708 0.961 . S
C693 H709 0.961 . S
C694 C695 1.370 . S
C694 C696 1.363 . S
C694 H710 0.931 . S
C695 C694 1.370 . S
C695 C699 1.408 . S
C696 C694 1.363 . S
C696 C697 1.370 . S
C696 C700 1.524 . S
C697 C689 1.503 1_554 S
C697 C696 1.370 . S
C697 C698 1.403 . S
C698 C697 1.403 . S
C698 C699 1.404 . S
C698 C701 1.539 . S
C699 C695 1.408 . S
C699 C698 1.404 . S
C699 H711 0.930 . S
C700 C696 1.524 . S
C700 H712 0.956 1_554 S
C700 H713 0.961 1_554 S
C700 H714 0.961 . S
C701 C698 1.539 . S
C701 H715 0.958 . S
C701 H716 0.961 . S
C701 H717 0.960 1_554 S
H702 C686 0.931 . S
H703 C691 0.929 . S
H704 C692 0.960 . S
H705 C692 0.962 . S
H706 C692 0.960 . S
H707 C693 0.961 . S
H708 C693 0.961 . S
H709 C693 0.961 . S
H710 C694 0.931 . S
H711 C699 0.930 . S
H712 C700 0.956 1_556 S
H713 C700 0.961 1_556 S
H714 C700 0.961 . S
H715 C701 0.958 . S
H716 C701 0.961 . S
H717 C701 0.960 1_556 S
C718 C719 1.391 1_655 S
C718 C720 1.394 . S
C718 H734 0.931 . S
C719 C718 1.391 1_455 S
C719 C723 1.376 . S
C720 C718 1.394 . S
C720 C721 1.369 1_655 S
C720 C724 1.531 . S
C721 C720 1.369 1_455 S
C721 C722 1.410 . S
C721 C729 1.503 . S
C722 C721 1.410 . S
C722 C723 1.392 . S
C722 C725 1.511 . S
C723 C719 1.376 . S
C723 C722 1.392 . S
C723 H735 0.929 . S
C724 C720 1.531 . S
C724 H736 0.960 . S
C724 H737 0.962 . S
C724 H738 0.960 . S
C725 C722 1.511 . S
C725 H739 0.961 . S
C725 H740 0.961 . S
C725 H741 0.961 . S
C726 C727 1.371 . S
C726 C728 1.363 . S
C726 H742 0.931 . S
C727 C726 1.371 . S
C727 C731 1.407 1_655 S
C728 C726 1.363 . S
C728 C729 1.370 1_655 S
C728 C732 1.524 . S
C729 C721 1.503 . S
C729 C728 1.370 1_455 S
C729 C730 1.403 . S
C730 C729 1.403 . S
C730 C731 1.404 . S
C730 C733 1.539 . S
C731 C727 1.407 1_455 S
C731 C730 1.404 . S
C731 H743 0.930 . S
C732 C728 1.524 . S
C732 H744 0.956 . S
C732 H745 0.961 . S
C732 H746 0.961 . S
C733 C730 1.539 . S
C733 H747 0.958 . S
C733 H748 0.961 . S
C733 H749 0.960 . S
H734 C718 0.931 . S
H735 C723 0.929 . S
H736 C724 0.960 . S
H737 C724 0.962 . S
H738 C724 0.960 . S
H739 C725 0.961 . S
H740 C725 0.961 . S
H741 C725 0.961 . S
H742 C726 0.931 . S
H743 C731 0.930 . S
H744 C732 0.956 . S
H745 C732 0.961 . S
H746 C732 0.961 . S
H747 C733 0.958 . S
H748 C733 0.961 . S
H749 C733 0.960 . S
C175 C19 1.811 . S
C183 C169 1.804 . S
C207 C46 1.302 . S
C215 C151 1.369 . S
C239 C95 0.682 . S
C247 C163 0.528 . S
C271 C10 1.810 . S
C279 C172 1.817 . S
C311 C154 1.370 . S
C303 C55 1.305 . S
C343 C160 0.700 . S
C335 C86 0.710 . S
C367 C59 2.983 . S
C375 C133 2.962 . S
C399 C90 1.866 . S
C407 C142 1.878 . S
C431 C15 1.365 . S
C439 C124 1.399 . S
C471 C136 2.904 . S
C463 C50 2.899 . S
C503 C145 1.803 . S
C495 C99 1.796 . S
C527 C6 1.253 . S
C535 C127 1.289 . S
C567 C143 1.364 . S
C559 C9 1.283 . S
C591 C58 1.404 . S
C599 C125 1.503 . S
C623 C98 1.686 . S
C631 C134 1.791 . S
C663 C161 1.044 . S
C655 C49 1.015 . S
C695 C170 1.352 . S
C687 C89 1.335 . S
C719 C18 1.444 . S
C727 C152 1.476 . S
