# Generated by pormake.
# Topology pyr, (3,6)-cn, num edge types: 1
# Building blocks:
#     Node 0, Type 0, BuildingBlock: PAMTOO_clean_linker_0, # of connection points: 3
#     Node 1, Type 0, BuildingBlock: PAMTOO_clean_linker_0, # of connection points: 3
#     Node 2, Type 0, BuildingBlock: PAMTOO_clean_linker_0, # of connection points: 3
#     Node 3, Type 0, BuildingBlock: PAMTOO_clean_linker_0, # of connection points: 3
#     Node 4, Type 0, BuildingBlock: PAMTOO_clean_linker_0, # of connection points: 3
#     Node 5, Type 0, BuildingBlock: PAMTOO_clean_linker_0, # of connection points: 3
#     Node 6, Type 0, BuildingBlock: PAMTOO_clean_linker_0, # of connection points: 3
#     Node 7, Type 0, BuildingBlock: PAMTOO_clean_linker_0, # of connection points: 3
#     Node 8, Type 1, BuildingBlock: BETGAK_clean_sbu_0, # of connection points: 6
#     Node 9, Type 1, BuildingBlock: BETGAK_clean_sbu_0, # of connection points: 6
#     Node 10, Type 1, BuildingBlock: BETGAK_clean_sbu_0, # of connection points: 6
#     Node 11, Type 1, BuildingBlock: BETGAK_clean_sbu_0, # of connection points: 6
#     Edge 12, Type (0, 1), BuildingBlock: XUDNAN_clean_linker_2, # of connection points: 2
#     Edge 13, Type (0, 1), BuildingBlock: XUDNAN_clean_linker_2, # of connection points: 2
#     Edge 14, Type (0, 1), BuildingBlock: XUDNAN_clean_linker_2, # of connection points: 2
#     Edge 15, Type (0, 1), BuildingBlock: XUDNAN_clean_linker_2, # of connection points: 2
#     Edge 16, Type (0, 1), BuildingBlock: XUDNAN_clean_linker_2, # of connection points: 2
#     Edge 17, Type (0, 1), BuildingBlock: XUDNAN_clean_linker_2, # of connection points: 2
#     Edge 18, Type (0, 1), BuildingBlock: XUDNAN_clean_linker_2, # of connection points: 2
#     Edge 19, Type (0, 1), BuildingBlock: XUDNAN_clean_linker_2, # of connection points: 2
#     Edge 20, Type (0, 1), BuildingBlock: XUDNAN_clean_linker_2, # of connection points: 2
#     Edge 21, Type (0, 1), BuildingBlock: XUDNAN_clean_linker_2, # of connection points: 2
#     Edge 22, Type (0, 1), BuildingBlock: XUDNAN_clean_linker_2, # of connection points: 2
#     Edge 23, Type (0, 1), BuildingBlock: XUDNAN_clean_linker_2, # of connection points: 2
#     Edge 24, Type (0, 1), BuildingBlock: XUDNAN_clean_linker_2, # of connection points: 2
#     Edge 25, Type (0, 1), BuildingBlock: XUDNAN_clean_linker_2, # of connection points: 2
#     Edge 26, Type (0, 1), BuildingBlock: XUDNAN_clean_linker_2, # of connection points: 2
#     Edge 27, Type (0, 1), BuildingBlock: XUDNAN_clean_linker_2, # of connection points: 2
#     Edge 28, Type (0, 1), BuildingBlock: XUDNAN_clean_linker_2, # of connection points: 2
#     Edge 29, Type (0, 1), BuildingBlock: XUDNAN_clean_linker_2, # of connection points: 2
#     Edge 30, Type (0, 1), BuildingBlock: XUDNAN_clean_linker_2, # of connection points: 2
#     Edge 31, Type (0, 1), BuildingBlock: XUDNAN_clean_linker_2, # of connection points: 2
#     Edge 32, Type (0, 1), BuildingBlock: XUDNAN_clean_linker_2, # of connection points: 2
#     Edge 33, Type (0, 1), BuildingBlock: XUDNAN_clean_linker_2, # of connection points: 2
#     Edge 34, Type (0, 1), BuildingBlock: XUDNAN_clean_linker_2, # of connection points: 2
#     Edge 35, Type (0, 1), BuildingBlock: XUDNAN_clean_linker_2, # of connection points: 2
# Relax obj value: 0.179
# Max RMSD: 0.227
# Mean RMSD: 0.149
data_MOF--net-pyr--node1-BETGAK_clean_sbu_0--node2-PAMTOO_clean_linker_0--edge1-XUDNAN_clean_linker_2
_symmetry_space_group_name_H-M    P1
_symmetry_Int_Tables_number       1
_symmetry_cell_setting            triclinic
loop_
_symmetry_equiv_pos_as_xyz
'x, y, z'
_cell_length_a     36.872629
_cell_length_b     40.36714
_cell_length_c     36.19004
_cell_angle_alpha  91.649032
_cell_angle_beta   89.306642
_cell_angle_gamma 106.61563
loop_
_atom_site_label
_atom_site_type_symbol
_atom_site_fract_x
_atom_site_fract_y
_atom_site_fract_z
_atom_type_partial_charge
H0 H 0.31368 0.33828 0.29525 0.0
H1 H 0.39148 0.28908 0.34115 0.0
H2 H 0.39622 0.31061 0.22546 0.0
H3 H 0.38442 0.23365 0.28424 0.0
C4 C 0.41552 0.24605 0.28193 0.0
O5 O 0.42376 0.28146 0.27821 0.0
H6 H 0.42803 0.24098 0.30821 0.0
C7 C 0.33823 0.32872 0.29233 0.0
C8 C 0.35492 0.32845 0.25727 0.0
C9 C 0.35062 0.31421 0.32278 0.0
C10 C 0.38129 0.30037 0.31806 0.0
C11 C 0.39706 0.29833 0.28288 0.0
C12 C 0.38381 0.31225 0.25249 0.0
H13 H 0.29575 0.9294 0.67759 0.0
H14 H 0.30224 0.90152 0.56219 0.0
H15 H 0.38059 0.88219 0.63897 0.0
H16 H 0.40707 0.91794 0.56782 0.0
C17 C 0.39121 0.8945 0.55157 0.0
O18 O 0.35908 0.87624 0.57008 0.0
H19 H 0.38291 0.90326 0.52495 0.0
C20 C 0.30916 0.91892 0.65511 0.0
C21 C 0.34032 0.9067 0.66255 0.0
C22 C 0.29461 0.91674 0.61911 0.0
C23 C 0.31221 0.90277 0.59037 0.0
C24 C 0.34294 0.89027 0.5977 0.0
C25 C 0.35659 0.89177 0.63373 0.0
H26 H 0.7472 0.34761 0.94595 0.0
H27 H 0.65726 0.34016 0.86863 0.0
H28 H 0.76211 0.42176 0.85987 0.0
H29 H 0.69293 0.44294 0.84537 0.0
C30 C 0.67629 0.41985 0.8292 0.0
O31 O 0.69512 0.39442 0.82954 0.0
H32 H 0.64822 0.40986 0.84274 0.0
C33 C 0.7362 0.35744 0.92226 0.0
C34 C 0.75927 0.3866 0.90456 0.0
C35 C 0.69945 0.34033 0.90994 0.0
C36 C 0.68537 0.35316 0.87882 0.0
C37 C 0.70767 0.38311 0.86095 0.0
C38 C 0.74454 0.39961 0.87416 0.0
H39 H 0.88947 0.74869 0.44737 0.0
H40 H 0.88962 0.67357 0.35999 0.0
H41 H 0.98338 0.7655 0.37126 0.0
H42 H 0.96094 0.66153 0.34766 0.0
C43 C 0.9758 0.68394 0.33063 0.0
O44 O 0.95429 0.70741 0.33059 0.0
H45 H 1.00345 0.69664 0.34398 0.0
C46 C 0.90294 0.74 0.42373 0.0
C47 C 0.9384 0.76116 0.41175 0.0
C48 C 0.88454 0.70831 0.40548 0.0
C49 C 0.90279 0.69782 0.37443 0.0
C50 C 0.9384 0.71798 0.3618 0.0
C51 C 0.956 0.74983 0.38062 0.0
H52 H 0.77309 0.88248 0.90993 0.0
H53 H 0.70118 0.83026 0.99795 0.0
H54 H 0.78443 0.78668 0.94948 0.0
H55 H 0.69445 0.74351 0.96422 0.0
C56 C 0.7128 0.7447 0.98875 0.0
O57 O 0.73072 0.77862 0.99916 0.0
H58 H 0.69411 0.73216 1.01172 0.0
C59 C 0.76364 0.86067 0.92796 0.0
C60 C 0.78143 0.8342 0.92583 0.0
C61 C 0.73521 0.86015 0.95443 0.0
C62 C 0.72274 0.83124 0.97707 0.0
C63 C 0.74038 0.80473 0.97507 0.0
C64 C 0.77023 0.80675 0.95016 0.0
H65 H 0.86356 0.20119 0.45031 0.0
H66 H 0.87308 0.30979 0.45658 0.0
H67 H 0.91672 0.26401 0.54429 0.0
H68 H 0.90988 0.35524 0.5615 0.0
C69 C 0.88986 0.33429 0.54522 0.0
O70 O 0.91015 0.3215 0.5189 0.0
H71 H 0.87604 0.31367 0.56487 0.0
C72 C 0.8719 0.22571 0.46543 0.0
C73 C 0.89066 0.22835 0.49963 0.0
C74 C 0.86495 0.25482 0.44976 0.0
C75 C 0.87785 0.28703 0.46825 0.0
C76 C 0.89669 0.29012 0.50202 0.0
C77 C 0.90275 0.26095 0.51775 0.0
H78 H 0.38432 0.77335 0.16985 0.0
H79 H 0.3837 0.68548 0.23469 0.0
H80 H 0.47697 0.77866 0.24312 0.0
H81 H 0.41341 0.70562 0.30986 0.0
C82 C 0.4443 0.71435 0.30394 0.0
O83 O 0.45019 0.71411 0.26583 0.0
H84 H 0.45567 0.74132 0.3149 0.0
C85 C 0.3976 0.76139 0.19014 0.0
C86 C 0.43244 0.78066 0.20542 0.0
C87 C 0.3791 0.72739 0.20071 0.0
C88 C 0.3973 0.71162 0.22613 0.0
C89 C 0.4327 0.72994 0.24158 0.0
C90 C 0.45016 0.76443 0.23093 0.0
H91 H 0.13431 0.35625 0.78983 0.0
H92 H 0.22526 0.44903 0.77033 0.0
H93 H 0.2181 0.35767 0.70456 0.0
H94 H 0.29569 0.39793 0.72588 0.0
C95 C 0.29315 0.42446 0.72246 0.0
O96 O 0.25569 0.42272 0.71518 0.0
H97 H 0.30179 0.43947 0.74874 0.0
C98 C 0.16004 0.36954 0.77542 0.0
C99 C 0.17401 0.3519 0.74609 0.0
C100 C 0.17805 0.40505 0.78445 0.0
C101 C 0.2112 0.42192 0.76454 0.0
C102 C 0.22567 0.40492 0.73602 0.0
C103 C 0.20683 0.3703 0.72688 0.0
La104 La 0.05674 0.06856 0.55404 0.0
La105 La 0.05223 1.03481 0.62664 0.0
C106 C 0.05471 0.10999 0.50417 0.0
C107 C 0.08298 0.14315 0.49742 0.0
C108 C 0.11732 0.15141 0.51678 0.0
C109 C 0.14678 0.18027 0.50759 0.0
C110 C 0.14233 0.20154 0.47907 0.0
C111 C 0.10713 0.19458 0.46126 0.0
C112 C 0.07757 0.16534 0.47031 0.0
C113 C 0.11594 1.04705 0.5689 0.0
C114 C 0.08648 0.11461 0.62868 0.0
C115 C 0.05456 0.99712 0.6804 0.0
C116 C 1.02681 0.96921 0.69956 0.0
C117 C 0.99051 0.97195 0.70797 0.0
C118 C 0.9657 0.94727 0.72947 0.0
C119 C 0.9763 0.91886 0.74253 0.0
C120 C 1.01205 0.91531 0.73244 0.0
C121 C 0.03715 0.9404 0.7113 0.0
C122 C 0.99179 1.05408 0.60867 0.0
C123 C 1.02703 0.98748 0.55236 0.0
O124 O 0.0673 0.08305 0.49891 0.0
O125 O 0.03592 0.10845 0.53525 0.0
O126 O 0.10389 1.04971 0.53609 0.0
O127 O 0.09761 0.06017 0.5917 0.0
O128 O 0.07309 0.1135 0.59454 0.0
O129 O 0.08807 0.0857 0.644 0.0
O130 O 0.0493 1.02773 0.68367 0.0
O131 O 0.0637 0.99026 0.64662 0.0
O132 O 1.00446 1.05527 0.64188 0.0
O133 O 1.01156 1.04107 0.58786 0.0
O134 O 0.03951 0.99039 0.58697 0.0
O135 O 1.02522 1.01551 0.53474 0.0
H136 H 0.122 0.13457 0.53785 0.0
H137 H 0.17361 0.18522 0.52175 0.0
H138 H 0.10324 0.21056 0.43897 0.0
H139 H 0.05119 0.15936 0.45524 0.0
H140 H 0.98167 0.99381 0.69899 0.0
H141 H 0.93884 0.95143 0.7371 0.0
H142 H 1.02094 0.89351 0.74142 0.0
H143 H 0.06494 0.9377 0.70479 0.0
La144 La 0.60129 0.07965 0.10194 0.0
La145 La 0.53867 0.05719 0.04899 0.0
C146 C 0.65494 0.10828 0.14502 0.0
C147 C 0.671 0.13768 0.17085 0.0
C148 C 0.65281 0.14165 0.20438 0.0
C149 C 0.67226 0.16449 0.2321 0.0
C150 C 0.71016 0.18384 0.22678 0.0
C151 C 0.72734 0.18158 0.19228 0.0
C152 C 0.70798 0.15863 0.16467 0.0
C153 C 0.5585 1.01446 0.10949 0.0
C154 C 0.52882 0.10514 0.11656 0.0
C155 C 0.47807 1.02851 1.01519 0.0
C156 C 0.46691 1.01197 0.97868 0.0
C157 C 0.48045 1.02895 0.94577 0.0
C158 C 0.46904 1.01256 0.91157 0.0
C159 C 0.44427 0.97884 0.90974 0.0
C160 C 0.43117 0.9618 0.94269 0.0
C161 C 0.44228 0.9783 0.97684 0.0
C162 C 0.59247 0.11362 1.02822 0.0
C163 C 0.61205 1.03606 1.03329 0.0
O164 O 0.62395 0.08508 0.15512 0.0
O165 O 0.6558 0.11414 0.10951 0.0
O166 O 0.59486 1.0247 0.11269 0.0
O167 O 0.54752 1.04054 0.1028 0.0
O168 O 0.56409 0.10805 0.12625 0.0
O169 O 0.51249 0.08504 0.08845 0.0
O170 O 0.49385 0.06201 1.01644 0.0
O171 O 0.49493 1.01213 1.03682 0.0
O172 O 0.57399 0.08891 1.006 0.0
O173 O 0.57995 0.10605 0.06049 0.0
O174 O 0.57483 1.02542 1.03105 0.0
O175 O 0.62918 0.06279 0.05473 0.0
H176 H 0.62426 0.12589 0.20999 0.0
H177 H 0.65811 0.16606 0.25823 0.0
H178 H 0.75659 0.19587 0.18739 0.0
H179 H 0.72276 0.1558 0.13924 0.0
H180 H 0.49976 1.05484 0.94639 0.0
H181 H 0.47979 1.02613 0.88654 0.0
H182 H 0.41174 0.93596 0.94206 0.0
H183 H 0.43152 0.96476 1.0019 0.0
La184 La 0.57644 0.52439 0.51976 0.0
La185 La 0.57813 0.58325 0.56935 0.0
C186 C 0.59497 0.47941 0.47966 0.0
C187 C 0.62337 0.46032 0.48097 0.0
C188 C 0.62919 0.44073 0.45002 0.0
C189 C 0.65814 0.4246 0.45008 0.0
C190 C 0.68112 0.42746 0.48137 0.0
C191 C 0.67482 0.44667 0.51246 0.0
C192 C 0.64655 0.46335 0.51201 0.0
C193 C 0.51097 0.51905 0.55364 0.0
C194 C 0.60719 0.52537 0.60295 0.0
C195 C 0.56032 0.63045 0.60586 0.0
C196 C 0.54529 0.65907 0.59568 0.0
C197 C 0.56183 0.69254 0.61022 0.0
C198 C 0.54868 0.72014 0.59968 0.0
C199 C 0.51877 0.71466 0.57437 0.0
C200 C 0.50192 0.68099 0.56037 0.0
C201 C 0.51513 0.65353 0.57072 0.0
C202 C 0.6427 0.58928 0.53244 0.0
C203 C 0.54565 0.58133 0.48584 0.0
O204 O 0.56802 0.472 0.50454 0.0
O205 O 0.60873 0.51274 0.47588 0.0
O206 O 0.51471 0.50881 0.51988 0.0
O207 O 0.54355 0.53051 0.56788 0.0
O208 O 0.60818 0.51485 0.56796 0.0
O209 O 0.59283 0.55115 0.61147 0.0
O210 O 0.59481 0.6328 0.59481 0.0
O211 O 0.53771 0.59915 0.6008 0.0
O212 O 0.64058 0.5998 0.5664 0.0
O213 O 0.60935 0.57717 0.52059 0.0
O214 O 0.5496 0.59598 0.51958 0.0
O215 O 0.55656 0.55335 0.47882 0.0
H216 H 0.61189 0.4385 0.42558 0.0
H217 H 0.66269 0.41004 0.42572 0.0
H218 H 0.69267 0.44979 0.53663 0.0
H219 H 0.64353 0.47934 0.53549 0.0
H220 H 0.58518 0.69737 0.62944 0.0
H221 H 0.56231 0.74582 0.61083 0.0
H222 H 0.47816 0.67577 0.54167 0.0
H223 H 0.50172 0.628 0.55906 0.0
La224 La 0.08298 0.52077 0.06468 0.0
La225 La 0.06266 0.58584 1.02993 0.0
C226 C 0.10848 0.46955 0.06798 0.0
C227 C 0.13507 0.45534 0.08769 0.0
C228 C 0.12822 0.4194 0.08774 0.0
C229 C 0.15532 0.40488 0.10135 0.0
C230 C 0.18995 0.4261 0.11511 0.0
C231 C 0.19616 0.4622 0.11638 0.0
C232 C 0.16895 0.47674 0.10268 0.0
C233 C 0.05488 0.55851 0.1147 0.0
C234 C 0.14073 0.59601 0.0748 0.0
C235 C 0.03388 0.63506 1.02659 0.0
C236 C 1.0043 0.64512 1.00676 0.0
C237 C 1.00184 0.67891 1.01184 0.0
C238 C 0.9698 0.68752 1.00022 0.0
C239 C 0.93954 0.6624 0.98338 0.0
C240 C 0.94314 0.62904 0.97614 0.0
C241 C 0.97529 0.62042 0.98788 0.0
C242 C 0.09032 0.54958 0.97831 0.0
C243 C 1.00456 0.51082 1.02084 0.0
O244 O 0.07752 0.4713 0.08536 0.0
O245 O 0.12364 0.49668 0.04792 0.0
O246 O 0.06454 0.53085 0.12258 0.0
O247 O 0.06078 0.56143 0.08046 0.0
O248 O 0.13535 0.56203 0.07643 0.0
O249 O 0.11585 0.60997 0.05964 0.0
O250 O 0.06478 0.63439 1.0084 0.0
O251 O 1.02136 0.60853 0.04804 0.0
O252 O 0.08054 0.57761 0.97271 0.0
O253 O 0.08486 0.54446 1.01264 0.0
O254 O 1.0104 0.54473 1.01875 0.0
O255 O 0.02944 0.49673 1.03561 0.0
H256 H 0.10229 0.4025 0.07616 0.0
H257 H 0.14929 0.37699 0.10072 0.0
H258 H 0.22258 0.47925 0.12673 0.0
H259 H 0.17487 0.50462 0.1027 0.0
H260 H 1.02385 0.69824 1.02653 0.0
H261 H 0.96809 0.71357 1.00561 0.0
H262 H 0.92025 0.6091 0.96338 0.0
H263 H 0.9766 0.59408 0.98397 0.0
H264 H 0.33142 0.25674 0.36507 0.0
H265 H 0.3157 0.35879 0.35716 0.0
H266 H 0.26435 0.34338 0.40346 0.0
H267 H 0.24086 0.21155 0.36759 0.0
H268 H 0.24443 0.18015 0.40072 0.0
H269 H 0.28485 0.20114 0.37321 0.0
H270 H 0.32464 0.22269 0.43221 0.0
H271 H 0.28449 0.20107 0.46014 0.0
H272 H 0.30727 0.24658 0.46768 0.0
H273 H 0.20609 0.3124 0.43929 0.0
H274 H 0.15099 0.27048 0.46816 0.0
H275 H 0.20797 0.19068 0.45584 0.0
C276 C 0.31861 0.27654 0.37436 0.0
C277 C 0.32752 0.30891 0.35726 0.0
C278 C 0.30906 0.33363 0.36952 0.0
C279 C 0.27997 0.32519 0.39597 0.0
C280 C 0.27036 0.29226 0.41063 0.0
C281 C 0.28989 0.26867 0.40101 0.0
C282 C 0.27195 0.23397 0.41799 0.0
C283 C 0.2598 0.20504 0.38809 0.0
C284 C 0.29868 0.22559 0.44619 0.0
C285 C 0.23809 0.24112 0.4369 0.0
C286 C 0.23768 0.27493 0.43264 0.0
C287 C 0.20672 0.28621 0.4439 0.0
C288 C 0.1755 0.26229 0.45997 0.0
C289 C 0.1758 0.22774 0.46478 0.0
C290 C 0.20767 0.21729 0.45349 0.0
H291 H 0.35627 0.96403 0.70806 0.0
H292 H 0.36146 0.858 0.70144 0.0
H293 H 0.38986 0.86505 0.76384 0.0
H294 H 0.4446 0.99938 0.75496 0.0
H295 H 0.42774 1.02957 0.783 0.0
H296 H 0.40761 1.01598 0.73805 0.0
H297 H 0.34058 0.99571 0.7672 0.0
H298 H 0.36045 1.00943 0.81222 0.0
H299 H 0.33185 0.96549 0.80427 0.0
H300 H 0.41642 0.88359 0.82749 0.0
H301 H 0.44035 0.91258 0.88718 0.0
H302 H 0.41831 1.00654 0.85116 0.0
C303 C 0.36305 0.9422 0.71991 0.0
C304 C 0.35653 0.91042 0.70015 0.0
C305 C 0.36643 0.88261 0.71618 0.0
C306 C 0.38244 0.88636 0.75156 0.0
C307 C 0.38857 0.91812 0.77029 0.0
C308 C 0.37927 0.94557 0.75496 0.0
C309 C 0.38904 0.97708 0.78059 0.0
C310 C 0.41903 1.00728 0.7631 0.0
C311 C 0.35335 0.98753 0.79173 0.0
C312 C 0.40502 0.96301 0.81291 0.0
C313 C 0.40447 0.92895 0.8065 0.0
C314 C 0.4171 0.91029 0.83278 0.0
C315 C 0.43048 0.92688 0.86658 0.0
C316 C 0.43127 0.96178 0.87361 0.0
C317 C 0.41854 0.98 0.84628 0.0
H318 H 0.65913 0.47914 0.80913 0.0
H319 H 0.67641 0.38523 0.76099 0.0
H320 H 0.66238 0.4029 0.6991 0.0
H321 H 0.5808 0.48048 0.75144 0.0
H322 H 0.59439 0.52685 0.74775 0.0
H323 H 0.60735 0.50769 0.78803 0.0
H324 H 0.67779 0.54058 0.77717 0.0
H325 H 0.66503 0.55989 0.73688 0.0
H326 H 0.69945 0.53599 0.73312 0.0
H327 H 0.64496 0.43036 0.64209 0.0
H328 H 0.62486 0.46404 0.59515 0.0
H329 H 0.61802 0.54112 0.67894 0.0
C330 C 0.66048 0.46253 0.78544 0.0
C331 C 0.66996 0.4311 0.79013 0.0
C332 C 0.67023 0.4097 0.75841 0.0
C333 C 0.66211 0.41955 0.72302 0.0
C334 C 0.65322 0.45077 0.71944 0.0
C335 C 0.65226 0.47194 0.74985 0.0
C336 C 0.64081 0.5037 0.73851 0.0
C337 C 0.60363 0.50473 0.75757 0.0
C338 C 0.67267 0.53702 0.74693 0.0
C339 C 0.63539 0.49713 0.69696 0.0
C340 C 0.64284 0.46645 0.68665 0.0
C341 C 0.63942 0.45453 0.64997 0.0
C342 C 0.62817 0.4742 0.62323 0.0
C343 C 0.62035 0.5059 0.63265 0.0
C344 C 0.624 0.5173 0.67038 0.0
H345 H 0.97772 0.61782 0.30904 0.0
H346 H 0.9957 0.71993 0.26516 0.0
H347 H 1.01641 0.69928 0.2054 0.0
H348 H 0.05814 0.60022 0.26661 0.0
H349 H 0.03532 0.55492 0.25769 0.0
H350 H 1.01982 0.57717 0.29585 0.0
H351 H 0.95153 0.55838 0.27033 0.0
H352 H 0.96676 0.53586 0.23221 0.0
H353 H 0.9431 0.56821 0.22349 0.0
H354 H 0.03907 0.66706 0.1503 0.0
H355 H 0.05906 0.62732 0.10655 0.0
H356 H 1.02532 0.54556 0.18558 0.0
C357 C 0.98513 0.6357 0.28658 0.0
C358 C 0.98375 0.67046 0.2918 0.0
C359 C 0.99527 0.69308 0.26186 0.0
C360 C 1.00738 0.68151 0.22777 0.0
C361 C 1.00834 0.64712 0.22366 0.0
C362 C 0.99731 0.62452 0.25237 0.0
C363 C 1.00198 0.58913 0.24148 0.0
C364 C 0.03051 0.57982 0.26692 0.0
C365 C 0.96356 0.56125 0.2419 0.0
C366 C 1.01749 0.59515 0.2022 0.0
C367 C 1.02098 0.6288 0.19237 0.0
C368 C 0.03565 0.64056 0.15774 0.0
C369 C 0.04656 0.61755 0.13265 0.0
C370 C 0.04264 0.58272 0.14164 0.0
C371 C 1.02821 0.57175 0.17731 0.0
H372 H 0.48037 0.22503 0.27852 0.0
H373 H 0.38405 0.22949 0.21348 0.0
H374 H 0.40385 0.19551 0.16306 0.0
H375 H 0.54705 0.23056 0.19987 0.0
H376 H 0.56931 0.2011 0.22014 0.0
H377 H 0.54935 0.2283 0.24944 0.0
H378 H 0.50821 0.17402 0.28223 0.0
H379 H 0.52769 0.14669 0.25273 0.0
H380 H 0.47717 0.13948 0.25513 0.0
H381 H 0.43019 0.15624 0.12309 0.0
H382 H 0.4646 0.11871 0.09296 0.0
H383 H 0.54528 0.14083 0.18324 0.0
C384 C 0.46395 0.21937 0.25332 0.0
C385 C 0.43058 0.22955 0.24971 0.0
C386 C 0.40963 0.22173 0.21655 0.0
C387 C 0.42063 0.20244 0.18792 0.0
C388 C 0.45293 0.19167 0.19282 0.0
C389 C 0.47467 0.20028 0.22442 0.0
C390 C 0.5074 0.1845 0.22317 0.0
C391 C 0.54554 0.21281 0.22314 0.0
C392 C 0.50494 0.1597 0.25522 0.0
C393 C 0.50019 0.16505 0.18632 0.0
C394 C 0.46861 0.16953 0.16933 0.0
C395 C 0.45524 0.15289 0.13589 0.0
C396 C 0.47488 0.13141 0.11913 0.0
C397 C 0.50771 0.12683 0.13569 0.0
C398 C 0.52046 0.14398 0.16975 0.0
H399 H 0.27751 0.97453 0.64789 0.0
H400 H 0.23562 0.88609 0.57295 0.0
H401 H 0.18196 0.90765 0.55678 0.0
H402 H 0.18224 0.97888 0.6797 0.0
H403 H 0.19715 1.02548 0.68235 0.0
H404 H 0.23068 1.00165 0.69068 0.0
H405 H 0.27465 1.03576 0.63978 0.0
H406 H 0.24126 0.05954 0.6312 0.0
H407 H 0.25633 1.03599 0.59385 0.0
H408 H 0.13816 0.94153 0.54291 0.0
H409 H 0.1044 0.98511 0.53386 0.0
H410 H 0.17015 1.04987 0.62129 0.0
C411 C 0.25658 0.95925 0.62875 0.0
C412 C 0.26099 0.92872 0.61146 0.0
C413 C 0.2333 0.90988 0.58602 0.0
C414 C 0.20247 0.92169 0.57696 0.0
C415 C 0.19933 0.9521 0.59401 0.0
C416 C 0.22531 0.97049 0.61967 0.0
C417 C 0.21618 1.00336 0.63241 0.0
C418 C 0.20595 1.00226 0.67374 0.0
C419 C 0.24906 1.03555 0.62377 0.0
C420 C 0.1819 1.0012 0.60876 0.0
C421 C 0.17265 0.97122 0.58702 0.0
C422 C 0.1445 0.96469 0.56034 0.0
C423 C 0.12558 0.98964 0.55535 0.0
C424 C 0.13442 1.02044 0.57731 0.0
C425 C 0.16241 1.02607 0.60484 0.0
H426 H 0.79888 0.45504 0.92288 0.0
H427 H 0.81014 0.35095 0.91605 0.0
H428 H 0.87325 0.37162 0.94435 0.0
H429 H 0.89989 0.49974 0.90343 0.0
H430 H 0.90139 0.5351 0.93552 0.0
H431 H 0.85773 0.51279 0.91263 0.0
H432 H 0.82448 0.50043 0.97625 0.0
H433 H 0.86815 0.5224 0.99923 0.0
H434 H 0.84355 0.47842 1.01038 0.0
H435 H 0.93291 0.40182 0.97706 0.0
H436 H 0.98839 0.44096 1.00811 0.0
H437 H 0.94139 0.52695 0.99374 0.0
C438 C 0.81503 0.43683 0.92671 0.0
C439 C 0.79934 0.40123 0.91733 0.0
C440 C 0.82128 0.37819 0.92325 0.0
C441 C 0.85725 0.3897 0.93931 0.0
C442 C 0.87143 0.42455 0.94927 0.0
C443 C 0.85137 0.44799 0.94287 0.0
C444 C 0.87339 0.48395 0.95713 0.0
C445 C 0.88372 0.5094 0.92528 0.0
C446 C 0.85105 0.49706 0.98756 0.0
C447 C 0.90852 0.47679 0.97279 0.0
C448 C 0.90658 0.44229 0.96795 0.0
C449 C 0.93491 0.42898 0.98077 0.0
C450 C 0.96635 0.45151 0.99863 0.0
C451 C 0.96962 0.48722 1.00356 0.0
C452 C 0.94003 0.49988 0.99042 0.0
H453 H 0.85557 0.6982 0.47749 0.0
H454 H 0.82502 0.6692 0.36306 0.0
H455 H 0.76207 0.63417 0.38331 0.0
H456 H 0.80488 0.61641 0.51732 0.0
H457 H 0.78983 0.63598 0.55786 0.0
H458 H 0.83327 0.65789 0.53475 0.0
H459 H 0.80941 0.71177 0.52775 0.0
H460 H 0.76597 0.69007 0.55095 0.0
H461 H 0.7646 0.70714 0.50567 0.0
H462 H 0.70093 0.60306 0.41577 0.0
H463 H 0.64683 0.57956 0.45761 0.0
H464 H 0.71536 0.62898 0.55135 0.0
C465 C 0.83571 0.68469 0.45652 0.0
C466 C 0.84604 0.6866 0.4184 0.0
C467 C 0.81874 0.66791 0.39236 0.0
C468 C 0.78255 0.648 0.40362 0.0
C469 C 0.77346 0.64678 0.4412 0.0
C470 C 0.79923 0.66469 0.4673 0.0
C471 C 0.78192 0.65951 0.50593 0.0
C472 C 0.80378 0.64137 0.53041 0.0
C473 C 0.78039 0.69419 0.52361 0.0
C474 C 0.74233 0.6361 0.49747 0.0
C475 C 0.73816 0.62899 0.45991 0.0
C476 C 0.70405 0.60839 0.44522 0.0
C477 C 0.67339 0.59499 0.4693 0.0
C478 C 0.67665 0.60205 0.50792 0.0
C479 C 0.71187 0.62281 0.52205 0.0
H480 H 0.33524 0.38871 0.25712 0.0
H481 H 0.33793 0.3003 0.18727 0.0
H482 H 0.30159 0.31971 0.13959 0.0
H483 H 0.24227 0.38338 0.2413 0.0
H484 H 0.24816 0.42929 0.24187 0.0
H485 H 0.28037 0.41245 0.26714 0.0
H486 H 0.33722 0.45216 0.23196 0.0
H487 H 0.30518 0.46947 0.20677 0.0
H488 H 0.33767 0.45082 0.18212 0.0
H489 H 0.25751 0.34425 0.10375 0.0
H490 H 0.21129 0.37283 0.08154 0.0
H491 H 0.23526 0.44363 0.17653 0.0
C492 C 0.32893 0.37384 0.23142 0.0
C493 C 0.33948 0.34302 0.22585 0.0
C494 C 0.33067 0.32426 0.1919 0.0
C495 C 0.30985 0.33501 0.16476 0.0
C496 C 0.29841 0.36468 0.17195 0.0
C497 C 0.30801 0.38403 0.20433 0.0
C498 C 0.28935 0.41292 0.20706 0.0
C499 C 0.26351 0.40926 0.24136 0.0
C500 C 0.31914 0.44845 0.20696 0.0
C501 C 0.26662 0.40614 0.17173 0.0
C502 C 0.2726 0.3785 0.15161 0.0
C503 C 0.25299 0.36616 0.11906 0.0
C504 C 0.22652 0.38236 0.10687 0.0
C505 C 0.21957 0.41044 0.12734 0.0
C506 C 0.24035 0.42263 0.15995 0.0
H507 H 0.66952 0.27119 0.88676 0.0
H508 H 0.68108 0.34022 0.98262 0.0
H509 H 0.65556 0.29024 1.02248 0.0
H510 H 0.58063 0.20714 0.9179 0.0
H511 H 0.5946 0.17062 0.89955 0.0
H512 H 0.61116 0.21194 0.87791 0.0
H513 H 0.68025 0.21016 0.88548 0.0
H514 H 0.66394 0.16911 0.90764 0.0
H515 H 0.69732 0.20496 0.9308 0.0
H516 H 0.63419 0.2329 0.05325 0.0
H517 H 0.6116 0.17211 0.07204 0.0
H518 H 0.6113 0.13813 0.95717 0.0
C519 C 0.66555 0.27573 0.91596 0.0
C520 C 0.67693 0.30988 0.93146 0.0
C521 C 0.67226 0.31451 0.97003 0.0
C522 C 0.65796 0.28619 0.99297 0.0
C523 C 0.64814 0.25292 0.9772 0.0
C524 C 0.65111 0.24744 0.93951 0.0
C525 C 0.63919 0.20872 0.93014 0.0
C526 C 0.60432 0.19904 0.90487 0.0
C527 C 0.67214 0.19759 0.91246 0.0
C528 C 0.62949 0.19347 0.96837 0.0
C529 C 0.63514 0.21958 0.99506 0.0
C530 C 0.62928 0.21228 1.0325 0.0
C531 C 0.61659 0.17754 1.04297 0.0
C532 C 0.60945 0.15011 1.01624 0.0
C533 C 0.61637 0.15839 0.97837 0.0
H534 H 0.95012 0.83168 0.39692 0.0
H535 H 0.9678 0.76275 0.48002 0.0
H536 H 0.99258 0.8126 0.5229 0.0
H537 H 0.03465 0.90515 0.42033 0.0
H538 H 1.01101 0.93776 0.41283 0.0
H539 H 0.9967 0.89713 0.38731 0.0
H540 H 0.928 0.8876 0.41058 0.0
H541 H 0.94216 0.92806 0.43637 0.0
H542 H 0.91881 0.88869 0.45958 0.0
H543 H 1.01286 0.86867 0.55816 0.0
H544 H 0.02911 0.92767 0.58397 0.0
H545 H 0.99915 0.96436 0.48012 0.0
C546 C 0.96002 0.8273 0.42387 0.0
C547 C 0.9576 0.79304 0.4348 0.0
C548 C 0.96986 0.78851 0.47074 0.0
C549 C 0.98387 0.81678 0.49539 0.0
C550 C 0.9855 0.84998 0.48415 0.0
C551 C 0.97413 0.85561 0.44922 0.0
C552 C 0.97809 0.89422 0.44512 0.0
C553 C 1.00682 0.90946 0.41457 0.0
C554 C 0.93946 0.89998 0.43745 0.0
C555 C 0.99302 0.90918 0.48323 0.0
C556 C 0.99705 0.88289 0.50501 0.0
C557 C 1.00989 0.88942 0.54125 0.0
C558 C 1.01904 0.92343 0.55576 0.0
C559 C 1.01553 0.95146 0.53453 0.0
C560 C 1.00221 0.94392 0.49744 0.0
H561 H 0.43309 0.87373 0.60298 0.0
H562 H 0.40331 0.86164 0.48693 0.0
H563 H 0.4385 0.81804 0.47895 0.0
H564 H 0.52783 0.85977 0.59415 0.0
H565 H 0.52191 0.83565 0.63605 0.0
H566 H 0.49902 0.86923 0.63131 0.0
H567 H 0.43417 0.82544 0.64563 0.0
H568 H 0.45677 0.79176 0.6503 0.0
H569 H 0.4185 0.78612 0.61801 0.0
H570 H 0.47199 0.77259 0.48493 0.0
H571 H 0.50017 0.72748 0.50451 0.0
H572 H 0.50553 0.76726 0.61746 0.0
C573 C 0.4348 0.86243 0.57577 0.0
C574 C 0.41622 0.87133 0.54539 0.0
C575 C 0.41805 0.85551 0.51031 0.0
C576 C 0.43792 0.83079 0.50558 0.0
C577 C 0.45549 0.82215 0.53629 0.0
C578 C 0.45414 0.8375 0.57071 0.0
C579 C 0.47241 0.82146 0.59986 0.0
C580 C 0.50738 0.84812 0.6163 0.0
C581 C 0.44375 0.80523 0.63023 0.0
C582 C 0.48351 0.79411 0.57664 0.0
C583 C 0.47393 0.79526 0.53997 0.0
C584 C 0.47983 0.77161 0.51351 0.0
C585 C 0.49556 0.74589 0.52492 0.0
C586 C 0.50487 0.74372 0.56245 0.0
C587 C 0.49923 0.76854 0.58848 0.0
H588 H 0.7848 0.8505 0.85282 0.0
H589 H 0.8501 0.82408 0.94032 0.0
H590 H 0.9055 0.83418 0.89862 0.0
H591 H 0.83035 0.81415 0.77426 0.0
H592 H 0.82859 0.84883 0.74469 0.0
H593 H 0.79252 0.83403 0.77939 0.0
H594 H 0.80679 0.8965 0.80667 0.0
H595 H 0.84285 0.91143 0.77225 0.0
H596 H 0.85442 0.91919 0.82057 0.0
H597 H 0.95605 0.85656 0.85144 0.0
H598 H 0.99732 0.88821 0.80238 0.0
H599 H 0.89839 0.89663 0.74369 0.0
C600 C 0.81058 0.84622 0.86291 0.0
C601 C 0.81323 0.83649 0.8997 0.0
C602 C 0.84737 0.83113 0.91205 0.0
C603 C 0.87896 0.83681 0.88858 0.0
C604 C 0.8757 0.84725 0.8527 0.0
C605 C 0.84221 0.85146 0.83976 0.0
C606 C 0.84695 0.86562 0.80119 0.0
C607 C 0.82319 0.83907 0.77323 0.0
C608 C 0.83719 0.90023 0.80014 0.0
C609 C 0.88882 0.87052 0.79524 0.0
C610 C 0.90481 0.85933 0.82501 0.0
C611 C 0.94373 0.86456 0.8275 0.0
C612 C 0.96698 0.88246 0.79928 0.0
C613 C 0.95126 0.89495 0.76892 0.0
C614 C 0.91148 0.8877 0.76651 0.0
H615 H 0.80268 0.20288 0.42675 0.0
H616 H 0.88071 0.29949 0.39195 0.0
H617 H 0.84629 0.29434 0.33301 0.0
H618 H 0.79569 0.15937 0.33913 0.0
H619 H 0.74626 0.13649 0.34428 0.0
H620 H 0.77569 0.1491 0.38453 0.0
H621 H 0.72957 0.18158 0.41142 0.0
H622 H 0.70016 0.16932 0.37103 0.0
H623 H 0.71839 0.2143 0.38461 0.0
H624 H 0.80524 0.27712 0.27644 0.0
H625 H 0.76175 0.24827 0.22615 0.0
H626 H 0.71151 0.16265 0.29774 0.0
C627 C 0.81264 0.22293 0.40671 0.0
C628 C 0.84436 0.25166 0.41411 0.0
C629 C 0.85616 0.27749 0.38722 0.0
C630 C 0.83686 0.27475 0.35359 0.0
C631 C 0.80573 0.24609 0.34724 0.0
C632 C 0.79373 0.22061 0.37303 0.0
C633 C 0.76038 0.19177 0.35889 0.0
C634 C 0.7701 0.15714 0.35656 0.0
C635 C 0.72503 0.18911 0.38292 0.0
C636 C 0.75587 0.20472 0.32086 0.0
C637 C 0.7821 0.23622 0.31473 0.0
C638 C 0.7844 0.25256 0.28101 0.0
C639 C 0.75968 0.23597 0.2526 0.0
C640 C 0.73305 0.20335 0.25808 0.0
C641 C 0.73091 0.18792 0.29292 0.0
H642 H 0.46751 0.71982 0.37676 0.0
H643 H 0.46006 0.65385 0.27887 0.0
H644 H 0.48504 0.6137 0.31448 0.0
H645 H 0.55361 0.70813 0.41371 0.0
H646 H 0.53884 0.70623 0.46134 0.0
H647 H 0.52076 0.73114 0.42947 0.0
H648 H 0.45264 0.69802 0.44502 0.0
H649 H 0.46767 0.67127 0.47706 0.0
H650 H 0.43693 0.65156 0.4395 0.0
H651 H 0.51009 0.58 0.36154 0.0
H652 H 0.53292 0.55552 0.41492 0.0
H653 H 0.52353 0.64246 0.48399 0.0
C654 C 0.47185 0.69724 0.36262 0.0
C655 C 0.46288 0.69073 0.32447 0.0
C656 C 0.46765 0.66012 0.30756 0.0
C657 C 0.48168 0.63702 0.32774 0.0
C658 C 0.49044 0.6444 0.36516 0.0
C659 C 0.48572 0.67382 0.38244 0.0
C660 C 0.49598 0.67505 0.42327 0.0
C661 C 0.52924 0.70706 0.4325 0.0
C662 C 0.46125 0.67396 0.44765 0.0
C663 C 0.50761 0.64194 0.42635 0.0
C664 C 0.50408 0.62466 0.39243 0.0
C665 C 0.51297 0.59346 0.38813 0.0
C666 C 0.52598 0.57969 0.41891 0.0
C667 C 0.53027 0.59681 0.45418 0.0
C668 C 0.52066 0.62847 0.45771 0.0
H669 H 0.15777 0.3984 0.86102 0.0
H670 H 0.15964 0.46254 0.76643 0.0
H671 H 0.13805 0.50377 0.80583 0.0
H672 H 0.07272 0.41511 0.90592 0.0
H673 H 0.09054 0.41674 0.9523 0.0
H674 H 0.10479 0.39052 0.91701 0.0
H675 H 0.17496 0.42246 0.93034 0.0
H676 H 0.16085 0.44891 0.96548 0.0
H677 H 0.19111 0.46894 0.92799 0.0
H678 H 0.11974 0.54002 0.85388 0.0
H679 H 0.1016 0.56894 0.90814 0.0
H680 H 0.10808 0.48402 0.97641 0.0
C681 C 0.15301 0.42085 0.8486 0.0
C682 C 0.16063 0.42696 0.81008 0.0
C683 C 0.15436 0.45706 0.79545 0.0
C684 C 0.14204 0.48079 0.81776 0.0
C685 C 0.13568 0.47462 0.85533 0.0
C686 C 0.14051 0.44536 0.87092 0.0
C687 C 0.13172 0.44613 0.91263 0.0
C688 C 0.09793 0.41528 0.92255 0.0
C689 C 0.16675 0.44663 0.93546 0.0
C690 C 0.12161 0.48042 0.91772 0.0
C691 C 0.12433 0.49606 0.88392 0.0
C692 C 0.11731 0.52788 0.88042 0.0
C693 C 0.10696 0.54423 0.91185 0.0
C694 C 0.10324 0.52933 0.94728 0.0
C695 C 0.11079 0.49661 0.95015 0.0
H696 H 0.66252 0.86336 0.97025 0.0
H697 H 0.7779 0.92768 0.9546 0.0
H698 H 0.75748 0.9797 0.96762 0.0
H699 H 0.61543 0.923 0.93103 0.0
H700 H 0.57762 0.91344 0.96463 0.0
H701 H 0.60041 0.88092 0.95124 0.0
H702 H 0.61586 0.87437 1.01987 0.0
H703 H 0.59301 0.90673 1.03342 0.0
H704 H 0.64137 0.91204 0.04657 0.0
H705 H 0.72647 1.02445 0.98734 0.0
H706 H 0.68598 0.05924 1.01211 0.0
H707 H 0.59027 0.96697 1.01443 0.0
C708 C 0.6834 0.8884 0.9693 0.0
C709 C 0.72175 0.89132 0.96078 0.0
C710 C 0.7482 0.92465 0.96003 0.0
C711 C 0.73694 0.95445 0.96763 0.0
C712 C 0.69908 0.95067 0.97596 0.0
C713 C 0.67262 0.91857 0.9768 0.0
C714 C 0.63403 0.92185 0.98819 0.0
C715 C 0.60517 0.90904 0.9569 0.0
C716 C 0.62028 0.90262 1.02414 0.0
C717 C 0.64322 0.96072 0.99424 0.0
C718 C 0.68091 0.9768 0.98691 0.0
C719 C 0.69677 1.01226 0.99267 0.0
C720 C 0.6736 1.0318 1.00678 0.0
C721 C 0.63497 1.01588 1.01469 0.0
C722 C 0.61952 0.97995 1.00778 0.0
H723 H 0.95146 0.22536 0.54234 0.0
H724 H 0.84635 0.16055 0.49484 0.0
H725 H 0.8598 0.10918 0.5195 0.0
H726 H 1.00668 0.16795 0.52812 0.0
H727 H 0.03116 0.1777 0.57167 0.0
H728 H 1.01391 0.2099 0.55023 0.0
H729 H 0.97572 0.21603 0.60918 0.0
H730 H 0.99324 0.18421 0.63115 0.0
H731 H 0.94297 0.17814 0.62812 0.0
H732 H 0.88756 0.06432 0.54426 0.0
H733 H 0.9251 1.0298 0.57286 0.0
H734 H 1.00609 0.12406 0.6126 0.0
C735 C 0.93071 0.20059 0.53762 0.0
C736 C 0.89794 0.19732 0.51609 0.0
C737 C 0.8722 0.16397 0.51024 0.0
C738 C 0.87935 0.13455 0.5245 0.0
C739 C 0.91192 0.13882 0.54534 0.0
C740 C 0.93689 0.17103 0.55243 0.0
C741 C 0.96969 0.16853 0.576 0.0
C742 C 1.00758 0.18179 0.55526 0.0
C743 C 0.97042 0.18787 0.61333 0.0
C744 C 0.9593 0.12979 0.5808 0.0
C745 C 0.9262 0.11308 0.56236 0.0
C746 C 0.91295 0.0771 0.55961 0.0
C747 C 0.93427 0.05774 0.57592 0.0
C748 C 0.96767 0.07444 0.59551 0.0
C749 C 0.97998 0.11082 0.59857 0.0
H750 H 0.34701 0.65961 0.17294 0.0
H751 H 0.32156 0.75676 0.19604 0.0
H752 H 0.2596 0.73364 0.16638 0.0
H753 H 0.30269 0.6417 0.0845 0.0
H754 H 0.28288 0.59585 0.09031 0.0
H755 H 0.32535 0.61893 0.11462 0.0
H756 H 0.2936 0.597 0.17692 0.0
H757 H 0.25116 0.57358 0.15272 0.0
H758 H 0.24893 0.60429 0.18921 0.0
H759 H 0.20261 0.70277 0.13057 0.0
H760 H 0.15003 0.66321 0.09618 0.0
H761 H 0.20775 0.58328 0.09759 0.0
C762 C 0.32812 0.67575 0.17225 0.0
C763 C 0.33979 0.71041 0.1864 0.0
C764 C 0.31398 0.73054 0.18477 0.0
C765 C 0.27849 0.71757 0.16804 0.0
C766 C 0.2684 0.684 0.15329 0.0
C767 C 0.29198 0.66299 0.1557 0.0
C768 C 0.27344 0.62773 0.13736 0.0
C769 C 0.29753 0.62065 0.10476 0.0
C770 C 0.26636 0.59894 0.16575 0.0
C771 C 0.23624 0.63261 0.12396 0.0
C772 C 0.23428 0.66544 0.1334 0.0
C773 C 0.20365 0.67687 0.12328 0.0
C774 C 0.1739 0.65414 0.10341 0.0
C775 C 0.17442 0.61995 0.09385 0.0
C776 C 0.20625 0.60915 0.10442 0.0
H777 H 0.36947 0.45903 0.72706 0.0
H778 H 0.27869 0.42547 0.64729 0.0
H779 H 0.32386 0.449 0.59696 0.0
H780 H 0.42153 0.53918 0.68169 0.0
H781 H 0.46735 0.53447 0.69259 0.0
H782 H 0.42758 0.51705 0.72272 0.0
H783 H 0.4387 0.45667 0.71644 0.0
H784 H 0.47845 0.47391 0.68632 0.0
H785 H 0.44018 0.43741 0.67109 0.0
H786 H 0.37938 0.47415 0.55477 0.0
H787 H 0.44092 0.49732 0.52359 0.0
H788 H 0.49735 0.51476 0.62984 0.0
C789 C 0.359 0.45728 0.69904 0.0
C790 C 0.32007 0.44133 0.69142 0.0
C791 C 0.3079 0.43839 0.65415 0.0
C792 C 0.3335 0.45162 0.6253 0.0
C793 C 0.3715 0.46744 0.63384 0.0
C794 C 0.3843 0.47028 0.66982 0.0
C795 C 0.42698 0.48704 0.67122 0.0
C796 C 0.4364 0.52148 0.69337 0.0
C797 C 0.44727 0.46227 0.68721 0.0
C798 C 0.43628 0.49295 0.63038 0.0
C799 C 0.40372 0.48154 0.60942 0.0
C800 C 0.40494 0.48327 0.57099 0.0
C801 C 0.44016 0.49651 0.55349 0.0
C802 C 0.47412 0.50802 0.5741 0.0
C803 C 0.47195 0.50654 0.61324 0.0
H804 H 0.76963 0.7408 1.03462 0.0
H805 H 0.72257 0.70721 0.92617 0.0
H806 H 0.77444 0.68065 0.913 0.0
H807 H 0.86536 0.76531 1.00574 0.0
H808 H 0.883 0.75161 0.04713 0.0
H809 H 0.84054 0.76515 0.04898 0.0
H810 H 0.80358 0.70665 0.07696 0.0
H811 H 0.84602 0.69301 0.07559 0.0
H812 H 0.8037 0.66682 0.05317 0.0
H813 H 0.83337 0.65927 0.91159 0.0
H814 H 0.89414 0.64605 0.92167 0.0
H815 H 0.90264 0.69599 1.03024 0.0
C816 C 0.77002 0.72739 1.00833 0.0
C817 C 0.74215 0.72581 0.98146 0.0
C818 C 0.74363 0.70844 0.94716 0.0
C819 C 0.773 0.69341 0.93945 0.0
C820 C 0.80059 0.6961 0.96633 0.0
C821 C 0.79926 0.71269 1.00007 0.0
C822 C 0.83315 0.71367 1.02361 0.0
C823 C 0.85691 0.75116 1.03183 0.0
C824 C 0.82087 0.69385 0.05945 0.0
C825 C 0.85388 0.69505 0.99792 0.0
C826 C 0.83466 0.68487 0.96508 0.0
C827 C 0.84861 0.66714 0.93723 0.0
C828 C 0.88306 0.65969 0.94318 0.0
C829 C 0.90329 0.67031 0.97655 0.0
C830 C 0.88823 0.68809 1.00416 0.0
H831 H 0.50575 0.81854 0.18351 0.0
H832 H 0.39309 0.82821 0.20481 0.0
H833 H 0.41281 0.88745 0.18181 0.0
H834 H 0.5563 0.90883 0.21051 0.0
H835 H 0.59197 0.91308 0.17505 0.0
H836 H 0.56963 0.87136 0.19407 0.0
H837 H 0.5502 0.84639 0.1282 0.0
H838 H 0.57216 0.88813 0.10908 0.0
H839 H 0.52307 0.86645 0.09979 0.0
H840 H 0.44255 0.94433 0.1527 0.0
H841 H 0.48303 0.99794 0.1257 0.0
H842 H 0.57821 0.95491 0.12505 0.0
C843 C 0.48548 0.83337 0.18388 0.0
C844 C 0.44756 0.81823 0.19572 0.0
C845 C 0.42202 0.83872 0.19545 0.0
C846 C 0.43297 0.87256 0.18241 0.0
C847 C 0.46992 0.88629 0.16987 0.0
C848 C 0.49608 0.86767 0.17095 0.0
C849 C 0.53409 0.88916 0.15576 0.0
C850 C 0.56482 0.89601 0.18563 0.0
C851 C 0.54555 0.87147 0.12116 0.0
C852 C 0.52496 0.92244 0.14597 0.0
C853 C 0.48761 0.91994 0.15407 0.0
C854 C 0.47198 0.94672 0.14661 0.0
C855 C 0.49518 0.9771 0.13109 0.0
C856 C 0.53388 0.9809 0.12344 0.0
C857 C 0.5488 0.95295 0.13081 0.0
H858 H 0.15763 0.32177 0.67542 0.0
H859 H 0.14908 0.29619 0.79136 0.0
H860 H 0.1258 0.23402 0.77373 0.0
H861 H 0.07153 0.25296 0.64634 0.0
H862 H 0.09156 0.24492 0.6025 0.0
H863 H 0.1063 0.28745 0.62405 0.0
H864 H 0.17605 0.2862 0.62076 0.0
H865 H 0.16144 0.24359 0.59945 0.0
H866 H 0.18911 0.25107 0.6412 0.0
H867 H 0.10862 0.17395 0.74334 0.0
H868 H 0.09204 0.12128 0.7037 0.0
H869 H 0.10705 0.18402 0.60621 0.0
C870 C 0.15052 0.30312 0.69718 0.0
C871 C 0.15542 0.31432 0.73509 0.0
C872 C 0.14541 0.28874 0.76236 0.0
C873 C 0.13236 0.25319 0.75249 0.0
C874 C 0.12862 0.24313 0.71505 0.0
C875 C 0.13669 0.26739 0.68776 0.0
C876 C 0.12967 0.24949 0.64954 0.0
C877 C 0.09788 0.2593 0.62942 0.0
C878 C 0.16625 0.25811 0.62637 0.0
C879 C 0.11728 0.21136 0.65952 0.0
C880 C 0.11716 0.20844 0.69753 0.0
C881 C 0.10828 0.17611 0.71362 0.0
C882 C 0.09905 0.14614 0.69064 0.0
C883 C 0.09809 0.14796 0.65152 0.0
C884 C 0.10726 0.18137 0.63589 0.0
H885 H 0.81744 0.32942 0.56854 0.0
H886 H 0.89916 0.37442 0.48366 0.0
H887 H 0.8523 0.3988 0.45477 0.0
H888 H 0.73256 0.30905 0.51194 0.0
H889 H 0.70429 0.32146 0.54778 0.0
H890 H 0.74301 0.30497 0.55984 0.0
H891 H 0.77228 0.36019 0.60002 0.0
H892 H 0.73357 0.37672 0.58826 0.0
H893 H 0.7816 0.40202 0.57958 0.0
H894 H 0.79654 0.4183 0.43539 0.0
H895 H 0.73896 0.43798 0.43151 0.0
H896 H 0.69561 0.38381 0.53165 0.0
C897 C 0.82518 0.34399 0.54357 0.0
C898 C 0.8613 0.349 0.52742 0.0
C899 C 0.87115 0.36946 0.4957 0.0
C900 C 0.84475 0.38332 0.47912 0.0
C901 C 0.80902 0.37725 0.49526 0.0
C902 C 0.79943 0.35856 0.52712 0.0
C903 C 0.76033 0.35822 0.54066 0.0
C904 C 0.73346 0.32123 0.54 0.0
C905 C 0.76207 0.37532 0.57942 0.0
C906 C 0.74958 0.37993 0.51165 0.0
C907 C 0.77773 0.3901 0.4853 0.0
C908 C 0.77429 0.41049 0.45584 0.0
C909 C 0.74151 0.42138 0.45373 0.0
C910 C 0.7131 0.4123 0.48125 0.0
C911 C 0.71704 0.39102 0.51028 0.0
loop_
_geom_bond_atom_site_label_1
_geom_bond_atom_site_label_2
_geom_bond_distance
_geom_bond_site_symmetry_2
_ccdc_geom_bond_type
H0 C7 0.929 . S
H1 C10 0.930 . S
H2 C12 0.929 . S
H3 C4 0.969 . S
C4 H3 0.969 . S
C4 O5 1.550 . S
C4 H6 0.973 . S
O5 C4 1.550 . S
O5 C11 1.412 . S
H6 C4 0.973 . S
C7 H0 0.929 . S
C7 C8 1.400 . S
C7 C9 1.364 . S
C8 C7 1.400 . S
C8 C12 1.377 . S
C9 C7 1.364 . S
C9 C10 1.374 . S
C10 H1 0.930 . S
C10 C9 1.374 . S
C10 C11 1.383 . S
C11 O5 1.412 . S
C11 C10 1.383 . S
C11 C12 1.394 . S
C12 H2 0.929 . S
C12 C8 1.377 . S
C12 C11 1.394 . S
H13 C20 0.929 . S
H14 C23 0.930 . S
H15 C25 0.929 . S
H16 C17 0.969 . S
C17 H16 0.969 . S
C17 O18 1.550 . S
C17 H19 0.973 . S
O18 C17 1.550 . S
O18 C24 1.412 . S
H19 C17 0.973 . S
C20 H13 0.929 . S
C20 C21 1.400 . S
C20 C22 1.364 . S
C21 C20 1.400 . S
C21 C25 1.377 . S
C22 C20 1.364 . S
C22 C23 1.374 . S
C23 H14 0.930 . S
C23 C22 1.374 . S
C23 C24 1.383 . S
C24 O18 1.412 . S
C24 C23 1.383 . S
C24 C25 1.394 . S
C25 H15 0.929 . S
C25 C21 1.377 . S
C25 C24 1.394 . S
H26 C33 0.929 . S
H27 C36 0.930 . S
H28 C38 0.929 . S
H29 C30 0.969 . S
C30 H29 0.969 . S
C30 O31 1.550 . S
C30 H32 0.973 . S
O31 C30 1.550 . S
O31 C37 1.412 . S
H32 C30 0.973 . S
C33 H26 0.929 . S
C33 C34 1.400 . S
C33 C35 1.364 . S
C34 C33 1.400 . S
C34 C38 1.377 . S
C35 C33 1.364 . S
C35 C36 1.374 . S
C36 H27 0.930 . S
C36 C35 1.374 . S
C36 C37 1.383 . S
C37 O31 1.412 . S
C37 C36 1.383 . S
C37 C38 1.394 . S
C38 H28 0.929 . S
C38 C34 1.377 . S
C38 C37 1.394 . S
H39 C46 0.929 . S
H40 C49 0.930 . S
H41 C51 0.929 . S
H42 C43 0.969 . S
C43 H42 0.969 . S
C43 O44 1.550 . S
C43 H45 0.973 . S
O44 C43 1.550 . S
O44 C50 1.412 . S
H45 C43 0.973 . S
C46 H39 0.929 . S
C46 C47 1.400 . S
C46 C48 1.364 . S
C47 C46 1.400 . S
C47 C51 1.377 . S
C48 C46 1.364 . S
C48 C49 1.374 . S
C49 H40 0.930 . S
C49 C48 1.374 . S
C49 C50 1.383 . S
C50 O44 1.412 . S
C50 C49 1.383 . S
C50 C51 1.394 . S
C51 H41 0.929 . S
C51 C47 1.377 . S
C51 C50 1.394 . S
H52 C59 0.929 . S
H53 C62 0.930 . S
H54 C64 0.929 . S
H55 C56 0.969 . S
C56 H55 0.969 . S
C56 O57 1.550 . S
C56 H58 0.973 . S
O57 C56 1.550 . S
O57 C63 1.412 . S
H58 C56 0.973 . S
C59 H52 0.929 . S
C59 C60 1.400 . S
C59 C61 1.364 . S
C60 C59 1.400 . S
C60 C64 1.377 . S
C61 C59 1.364 . S
C61 C62 1.374 . S
C62 H53 0.930 . S
C62 C61 1.374 . S
C62 C63 1.383 . S
C63 O57 1.412 . S
C63 C62 1.383 . S
C63 C64 1.394 . S
C64 H54 0.929 . S
C64 C60 1.377 . S
C64 C63 1.394 . S
H65 C72 0.929 . S
H66 C75 0.930 . S
H67 C77 0.929 . S
H68 C69 0.969 . S
C69 H68 0.969 . S
C69 O70 1.550 . S
C69 H71 0.973 . S
O70 C69 1.550 . S
O70 C76 1.412 . S
H71 C69 0.973 . S
C72 H65 0.929 . S
C72 C73 1.400 . S
C72 C74 1.364 . S
C73 C72 1.400 . S
C73 C77 1.377 . S
C74 C72 1.364 . S
C74 C75 1.374 . S
C75 H66 0.930 . S
C75 C74 1.374 . S
C75 C76 1.383 . S
C76 O70 1.412 . S
C76 C75 1.383 . S
C76 C77 1.394 . S
C77 H67 0.929 . S
C77 C73 1.377 . S
C77 C76 1.394 . S
H78 C85 0.929 . S
H79 C88 0.930 . S
H80 C90 0.929 . S
H81 C82 0.969 . S
C82 H81 0.969 . S
C82 O83 1.550 . S
C82 H84 0.973 . S
O83 C82 1.550 . S
O83 C89 1.412 . S
H84 C82 0.973 . S
C85 H78 0.929 . S
C85 C86 1.400 . S
C85 C87 1.364 . S
C86 C85 1.400 . S
C86 C90 1.377 . S
C87 C85 1.364 . S
C87 C88 1.374 . S
C88 H79 0.930 . S
C88 C87 1.374 . S
C88 C89 1.383 . S
C89 O83 1.412 . S
C89 C88 1.383 . S
C89 C90 1.394 . S
C90 H80 0.929 . S
C90 C86 1.377 . S
C90 C89 1.394 . S
H91 C98 0.929 . S
H92 C101 0.930 . S
H93 C103 0.929 . S
H94 C95 0.969 . S
C95 H94 0.969 . S
C95 O96 1.550 . S
C95 H97 0.973 . S
O96 C95 1.550 . S
O96 C102 1.412 . S
H97 C95 0.973 . S
C98 H91 0.929 . S
C98 C99 1.400 . S
C98 C100 1.364 . S
C99 C98 1.400 . S
C99 C103 1.377 . S
C100 C98 1.364 . S
C100 C101 1.374 . S
C101 H92 0.930 . S
C101 C100 1.374 . S
C101 C102 1.383 . S
C102 O96 1.412 . S
C102 C101 1.383 . S
C102 C103 1.394 . S
C103 H93 0.929 . S
C103 C99 1.377 . S
C103 C102 1.394 . S
La104 C106 2.928 . S
La104 O124 2.521 . S
La104 O125 2.628 . S
La104 O126 2.554 . S
La104 O127 2.757 1_545 S
La104 O128 2.470 . S
La104 O133 2.482 . S
La104 O135 2.503 1_545 S
La105 C115 2.928 1_545 S
La105 O127 2.482 1_645 S
La105 O129 2.503 1_655 S
La105 O130 2.521 1_545 S
La105 O131 2.628 1_545 S
La105 O132 2.554 . S
La105 O133 2.757 1_655 S
La105 O134 2.470 1_545 S
C106 La104 2.928 . S
C106 C107 1.503 . S
C106 O124 1.261 . S
C106 O125 1.243 . S
C107 C106 1.503 . S
C107 C108 1.394 . S
C107 C112 1.373 . S
C108 C107 1.394 . S
C108 C109 1.380 . S
C108 H136 0.930 . S
C109 C108 1.380 . S
C109 C110 1.376 . S
C109 H137 0.930 . S
C110 C109 1.376 . S
C110 C111 1.370 . S
C111 C110 1.370 . S
C111 C112 1.396 . S
C111 H138 0.929 . S
C112 C107 1.373 . S
C112 C111 1.396 . S
C112 H139 0.929 . S
C113 O126 1.240 1_565 S
C113 O127 1.289 . S
C114 O128 1.258 . S
C114 O129 1.256 . S
C115 La105 2.928 1_565 S
C115 C116 1.503 . S
C115 O130 1.261 . S
C115 O131 1.243 . S
C116 C115 1.503 . S
C116 C117 1.394 . S
C116 C121 1.373 . S
C117 C116 1.394 . S
C117 C118 1.380 . S
C117 H140 0.930 . S
C118 C117 1.380 . S
C118 C119 1.376 . S
C118 H141 0.930 . S
C119 C118 1.376 . S
C119 C120 1.370 . S
C120 C119 1.370 . S
C120 C121 1.396 . S
C120 H142 0.929 . S
C121 C116 1.373 . S
C121 C120 1.396 . S
C121 H143 0.929 . S
C122 O132 1.240 . S
C122 O133 1.289 1_655 S
C123 O134 1.258 . S
C123 O135 1.256 1_655 S
O124 La104 2.521 . S
O124 C106 1.261 . S
O125 La104 2.628 . S
O125 C106 1.243 . S
O126 La104 2.554 . S
O126 C113 1.240 1_545 S
O127 La104 2.757 1_565 S
O127 La105 2.482 1_465 S
O127 C113 1.289 . S
O128 La104 2.470 . S
O128 C114 1.258 . S
O129 La105 2.503 1_455 S
O129 C114 1.256 . S
O130 La105 2.521 1_565 S
O130 C115 1.261 . S
O131 La105 2.628 1_565 S
O131 C115 1.243 . S
O132 La105 2.554 . S
O132 C122 1.240 . S
O133 La104 2.482 . S
O133 La105 2.757 1_455 S
O133 C122 1.289 1_455 S
O134 La105 2.470 1_565 S
O134 C123 1.258 . S
O135 La104 2.503 1_565 S
O135 C123 1.256 1_455 S
H136 C108 0.930 . S
H137 C109 0.930 . S
H138 C111 0.929 . S
H139 C112 0.929 . S
H140 C117 0.930 . S
H141 C118 0.930 . S
H142 C120 0.929 . S
H143 C121 0.929 . S
La144 C146 2.928 . S
La144 O164 2.521 . S
La144 O165 2.628 . S
La144 O166 2.554 1_545 S
La144 O167 2.757 1_545 S
La144 O168 2.470 . S
La144 O173 2.485 . S
La144 O175 2.503 1_544 S
La145 C155 2.928 1_545 S
La145 O167 2.482 1_546 S
La145 O169 2.503 1_556 S
La145 O170 2.521 1_545 S
La145 O171 2.628 1_545 S
La145 O172 2.554 . S
La145 O173 2.755 1_556 S
La145 O174 2.470 1_545 S
C146 La144 2.928 . S
C146 C147 1.503 . S
C146 O164 1.261 . S
C146 O165 1.243 . S
C147 C146 1.503 . S
C147 C148 1.394 . S
C147 C152 1.373 . S
C148 C147 1.394 . S
C148 C149 1.380 . S
C148 H176 0.930 . S
C149 C148 1.380 . S
C149 C150 1.376 . S
C149 H177 0.930 . S
C150 C149 1.376 . S
C150 C151 1.370 . S
C151 C150 1.370 . S
C151 C152 1.396 . S
C151 H178 0.929 . S
C152 C147 1.373 . S
C152 C151 1.396 . S
C152 H179 0.929 . S
C153 O166 1.240 . S
C153 O167 1.289 . S
C154 O168 1.258 . S
C154 O169 1.256 . S
C155 La145 2.928 1_565 S
C155 C156 1.503 . S
C155 O170 1.261 . S
C155 O171 1.243 . S
C156 C155 1.503 . S
C156 C157 1.394 . S
C156 C161 1.373 . S
C157 C156 1.394 . S
C157 C158 1.380 . S
C157 H180 0.930 . S
C158 C157 1.380 . S
C158 C159 1.376 . S
C158 H181 0.930 . S
C159 C158 1.376 . S
C159 C160 1.370 . S
C160 C159 1.370 . S
C160 C161 1.396 . S
C160 H182 0.929 . S
C161 C156 1.373 . S
C161 C160 1.396 . S
C161 H183 0.929 . S
C162 O172 1.240 . S
C162 O173 1.285 1_556 S
C163 O174 1.258 . S
C163 O175 1.256 . S
O164 La144 2.521 . S
O164 C146 1.261 . S
O165 La144 2.628 . S
O165 C146 1.243 . S
O166 La144 2.554 1_565 S
O166 C153 1.240 . S
O167 La144 2.757 1_565 S
O167 La145 2.482 1_564 S
O167 C153 1.289 . S
O168 La144 2.470 . S
O168 C154 1.258 . S
O169 La145 2.503 1_554 S
O169 C154 1.256 . S
O170 La145 2.521 1_565 S
O170 C155 1.261 . S
O171 La145 2.628 1_565 S
O171 C155 1.243 . S
O172 La145 2.554 . S
O172 C162 1.240 . S
O173 La144 2.485 . S
O173 La145 2.755 1_554 S
O173 C162 1.285 1_554 S
O174 La145 2.470 1_565 S
O174 C163 1.258 . S
O175 La144 2.503 1_566 S
O175 C163 1.256 . S
H176 C148 0.930 . S
H177 C149 0.930 . S
H178 C151 0.929 . S
H179 C152 0.929 . S
H180 C157 0.930 . S
H181 C158 0.930 . S
H182 C160 0.929 . S
H183 C161 0.929 . S
La184 C186 2.928 . S
La184 O204 2.521 . S
La184 O205 2.628 . S
La184 O206 2.554 . S
La184 O207 2.757 . S
La184 O208 2.470 . S
La184 O213 2.482 . S
La184 O215 2.503 . S
La185 C195 2.928 . S
La185 O207 2.482 . S
La185 O209 2.503 . S
La185 O210 2.521 . S
La185 O211 2.628 . S
La185 O212 2.554 . S
La185 O213 2.757 . S
La185 O214 2.470 . S
C186 La184 2.928 . S
C186 C187 1.503 . S
C186 O204 1.261 . S
C186 O205 1.243 . S
C187 C186 1.503 . S
C187 C188 1.394 . S
C187 C192 1.373 . S
C188 C187 1.394 . S
C188 C189 1.380 . S
C188 H216 0.930 . S
C189 C188 1.380 . S
C189 C190 1.376 . S
C189 H217 0.930 . S
C190 C189 1.376 . S
C190 C191 1.370 . S
C191 C190 1.370 . S
C191 C192 1.396 . S
C191 H218 0.929 . S
C192 C187 1.373 . S
C192 C191 1.396 . S
C192 H219 0.929 . S
C193 O206 1.240 . S
C193 O207 1.289 . S
C194 O208 1.258 . S
C194 O209 1.256 . S
C195 La185 2.928 . S
C195 C196 1.503 . S
C195 O210 1.261 . S
C195 O211 1.243 . S
C196 C195 1.503 . S
C196 C197 1.394 . S
C196 C201 1.373 . S
C197 C196 1.394 . S
C197 C198 1.380 . S
C197 H220 0.930 . S
C198 C197 1.380 . S
C198 C199 1.376 . S
C198 H221 0.930 . S
C199 C198 1.376 . S
C199 C200 1.370 . S
C200 C199 1.370 . S
C200 C201 1.396 . S
C200 H222 0.929 . S
C201 C196 1.373 . S
C201 C200 1.396 . S
C201 H223 0.929 . S
C202 O212 1.240 . S
C202 O213 1.289 . S
C203 O214 1.258 . S
C203 O215 1.256 . S
O204 La184 2.521 . S
O204 C186 1.261 . S
O205 La184 2.628 . S
O205 C186 1.243 . S
O206 La184 2.554 . S
O206 C193 1.240 . S
O207 La184 2.757 . S
O207 La185 2.482 . S
O207 C193 1.289 . S
O208 La184 2.470 . S
O208 C194 1.258 . S
O209 La185 2.503 . S
O209 C194 1.256 . S
O210 La185 2.521 . S
O210 C195 1.261 . S
O211 La185 2.628 . S
O211 C195 1.243 . S
O212 La185 2.554 . S
O212 C202 1.240 . S
O213 La184 2.482 . S
O213 La185 2.757 . S
O213 C202 1.289 . S
O214 La185 2.470 . S
O214 C203 1.258 . S
O215 La184 2.503 . S
O215 C203 1.256 . S
H216 C188 0.930 . S
H217 C189 0.930 . S
H218 C191 0.929 . S
H219 C192 0.929 . S
H220 C197 0.930 . S
H221 C198 0.930 . S
H222 C200 0.929 . S
H223 C201 0.929 . S
La224 C226 2.928 . S
La224 O244 2.521 . S
La224 O245 2.628 . S
La224 O246 2.554 . S
La224 O247 2.757 . S
La224 O248 2.470 . S
La224 O253 2.482 . S
La224 O255 2.503 1_455 S
La225 C235 2.928 1_454 S
La225 O247 2.482 . S
La225 O249 2.503 . S
La225 O250 2.521 1_554 S
La225 O251 2.628 1_455 S
La225 O252 2.554 1_554 S
La225 O253 2.757 . S
La225 O254 2.470 1_454 S
C226 La224 2.928 . S
C226 C227 1.503 . S
C226 O244 1.261 . S
C226 O245 1.243 . S
C227 C226 1.503 . S
C227 C228 1.394 . S
C227 C232 1.373 . S
C228 C227 1.394 . S
C228 C229 1.380 . S
C228 H256 0.930 . S
C229 C228 1.380 . S
C229 C230 1.376 . S
C229 H257 0.930 . S
C230 C229 1.376 . S
C230 C231 1.370 . S
C231 C230 1.370 . S
C231 C232 1.396 . S
C231 H258 0.929 . S
C232 C227 1.373 . S
C232 C231 1.396 . S
C232 H259 0.929 . S
C233 O246 1.240 . S
C233 O247 1.289 . S
C234 O248 1.258 . S
C234 O249 1.256 . S
C235 La225 2.928 1_656 S
C235 C236 1.503 . S
C235 O250 1.261 1_655 S
C235 O251 1.243 1_556 S
C236 C235 1.503 . S
C236 C237 1.394 . S
C236 C241 1.373 . S
C237 C236 1.394 . S
C237 C238 1.380 . S
C237 H260 0.930 . S
C238 C237 1.380 . S
C238 C239 1.376 . S
C238 H261 0.930 . S
C239 C238 1.376 . S
C239 C240 1.370 . S
C240 C239 1.370 . S
C240 C241 1.396 . S
C240 H262 0.929 . S
C241 C236 1.373 . S
C241 C240 1.396 . S
C241 H263 0.916 1_556 S
C242 O252 1.240 . S
C242 O253 1.289 1_556 S
C243 O254 1.258 1_554 S
C243 O255 1.256 . S
O244 La224 2.521 . S
O244 C226 1.261 . S
O245 La224 2.628 . S
O245 C226 1.243 . S
O246 La224 2.554 . S
O246 C233 1.240 . S
O247 La224 2.757 . S
O247 La225 2.482 . S
O247 C233 1.289 . S
O248 La224 2.470 . S
O248 C234 1.258 . S
O249 La225 2.503 . S
O249 C234 1.256 . S
O250 La225 2.521 1_556 S
O250 C235 1.261 1_455 S
O251 La225 2.628 1_655 S
O251 C235 1.243 1_554 S
O252 La225 2.554 1_556 S
O252 C242 1.240 . S
O253 La224 2.482 . S
O253 La225 2.757 . S
O253 C242 1.289 1_554 S
O254 La225 2.470 1_656 S
O254 C243 1.258 1_556 S
O255 La224 2.503 1_655 S
O255 C243 1.256 . S
H256 C228 0.930 . S
H257 C229 0.930 . S
H258 C231 0.929 . S
H259 C232 0.929 . S
H260 C237 0.930 . S
H261 C238 0.930 . S
H262 C240 0.929 . S
H263 C241 0.916 1_554 S
H264 C276 0.930 . S
H265 C278 0.930 . S
H266 C279 0.930 . S
H267 C283 0.959 . S
H268 C283 0.959 . S
H269 C283 0.961 . S
H270 C284 0.960 . S
H271 C284 0.961 . S
H272 C284 0.959 . S
H273 C287 0.929 . S
H274 C288 0.931 . S
H275 C290 0.930 . S
C276 H264 0.930 . S
C276 C277 1.399 . S
C276 C281 1.399 . S
C277 C276 1.399 . S
C277 C278 1.376 . S
C278 H265 0.930 . S
C278 C277 1.376 . S
C278 C279 1.388 . S
C279 H266 0.930 . S
C279 C278 1.388 . S
C279 C280 1.390 . S
C280 C279 1.390 . S
C280 C281 1.394 . S
C280 C286 1.465 . S
C281 C276 1.399 . S
C281 C280 1.394 . S
C281 C282 1.516 . S
C282 C281 1.516 . S
C282 C283 1.502 . S
C282 C284 1.561 . S
C282 C285 1.526 . S
C283 H267 0.959 . S
C283 H268 0.959 . S
C283 H269 0.961 . S
C283 C282 1.502 . S
C284 H270 0.960 . S
C284 H271 0.961 . S
C284 H272 0.959 . S
C284 C282 1.561 . S
C285 C282 1.526 . S
C285 C286 1.396 . S
C285 C290 1.390 . S
C286 C280 1.465 . S
C286 C285 1.396 . S
C286 C287 1.399 . S
C287 H273 0.929 . S
C287 C286 1.399 . S
C287 C288 1.385 . S
C288 H274 0.931 . S
C288 C287 1.385 . S
C288 C289 1.389 . S
C289 C288 1.389 . S
C289 C290 1.387 . S
C290 H275 0.930 . S
C290 C285 1.390 . S
C290 C289 1.387 . S
H291 C303 0.930 . S
H292 C305 0.930 . S
H293 C306 0.930 . S
H294 C310 0.959 . S
H295 C310 0.959 . S
H296 C310 0.961 . S
H297 C311 0.960 . S
H298 C311 0.961 . S
H299 C311 0.959 . S
H300 C314 0.929 . S
H301 C315 0.931 . S
H302 C317 0.930 . S
C303 H291 0.930 . S
C303 C304 1.399 . S
C303 C308 1.399 . S
C304 C303 1.399 . S
C304 C305 1.376 . S
C305 H292 0.930 . S
C305 C304 1.376 . S
C305 C306 1.388 . S
C306 H293 0.930 . S
C306 C305 1.388 . S
C306 C307 1.390 . S
C307 C306 1.390 . S
C307 C308 1.394 . S
C307 C313 1.465 . S
C308 C303 1.399 . S
C308 C307 1.394 . S
C308 C309 1.516 . S
C309 C308 1.516 . S
C309 C310 1.502 . S
C309 C311 1.561 . S
C309 C312 1.526 . S
C310 H294 0.959 . S
C310 H295 0.959 . S
C310 H296 0.961 . S
C310 C309 1.502 . S
C311 H297 0.960 . S
C311 H298 0.961 . S
C311 H299 0.959 . S
C311 C309 1.561 . S
C312 C309 1.526 . S
C312 C313 1.396 . S
C312 C317 1.390 . S
C313 C307 1.465 . S
C313 C312 1.396 . S
C313 C314 1.399 . S
C314 H300 0.929 . S
C314 C313 1.399 . S
C314 C315 1.385 . S
C315 H301 0.931 . S
C315 C314 1.385 . S
C315 C316 1.389 . S
C316 C315 1.389 . S
C316 C317 1.387 . S
C317 H302 0.930 . S
C317 C312 1.390 . S
C317 C316 1.387 . S
H318 C330 0.930 . S
H319 C332 0.930 . S
H320 C333 0.930 . S
H321 C337 0.959 . S
H322 C337 0.959 . S
H323 C337 0.961 . S
H324 C338 0.960 . S
H325 C338 0.961 . S
H326 C338 0.959 . S
H327 C341 0.929 . S
H328 C342 0.931 . S
H329 C344 0.930 . S
C330 H318 0.930 . S
C330 C331 1.399 . S
C330 C335 1.399 . S
C331 C330 1.399 . S
C331 C332 1.376 . S
C332 H319 0.930 . S
C332 C331 1.376 . S
C332 C333 1.388 . S
C333 H320 0.930 . S
C333 C332 1.388 . S
C333 C334 1.390 . S
C334 C333 1.390 . S
C334 C335 1.394 . S
C334 C340 1.465 . S
C335 C330 1.399 . S
C335 C334 1.394 . S
C335 C336 1.516 . S
C336 C335 1.516 . S
C336 C337 1.502 . S
C336 C338 1.561 . S
C336 C339 1.526 . S
C337 H321 0.959 . S
C337 H322 0.959 . S
C337 H323 0.961 . S
C337 C336 1.502 . S
C338 H324 0.960 . S
C338 H325 0.961 . S
C338 H326 0.959 . S
C338 C336 1.561 . S
C339 C336 1.526 . S
C339 C340 1.396 . S
C339 C344 1.390 . S
C340 C334 1.465 . S
C340 C339 1.396 . S
C340 C341 1.399 . S
C341 H327 0.929 . S
C341 C340 1.399 . S
C341 C342 1.385 . S
C342 H328 0.931 . S
C342 C341 1.385 . S
C342 C343 1.389 . S
C343 C342 1.389 . S
C343 C344 1.387 . S
C344 H329 0.930 . S
C344 C339 1.390 . S
C344 C343 1.387 . S
H345 C357 0.930 . S
H346 C359 0.930 . S
H347 C360 0.930 . S
H348 C364 0.959 . S
H349 C364 0.959 . S
H350 C364 0.961 . S
H351 C365 0.960 . S
H352 C365 0.961 . S
H353 C365 0.959 . S
H354 C368 0.929 . S
H355 C369 0.931 . S
H356 C371 0.930 . S
C357 H345 0.930 . S
C357 C358 1.399 . S
C357 C362 1.399 . S
C358 C357 1.399 . S
C358 C359 1.376 . S
C359 H346 0.930 . S
C359 C358 1.376 . S
C359 C360 1.388 . S
C360 H347 0.930 . S
C360 C359 1.388 . S
C360 C361 1.390 . S
C361 C360 1.390 . S
C361 C362 1.394 . S
C361 C367 1.465 . S
C362 C357 1.399 . S
C362 C361 1.394 . S
C362 C363 1.516 . S
C363 C362 1.516 . S
C363 C364 1.502 1_655 S
C363 C365 1.561 . S
C363 C366 1.526 . S
C364 H348 0.959 . S
C364 H349 0.959 . S
C364 H350 0.961 . S
C364 C363 1.502 1_455 S
C365 H351 0.960 . S
C365 H352 0.961 . S
C365 H353 0.959 . S
C365 C363 1.561 . S
C366 C363 1.526 . S
C366 C367 1.396 . S
C366 C371 1.390 . S
C367 C361 1.465 . S
C367 C366 1.396 . S
C367 C368 1.399 . S
C368 H354 0.929 . S
C368 C367 1.399 . S
C368 C369 1.385 . S
C369 H355 0.931 . S
C369 C368 1.385 . S
C369 C370 1.389 . S
C370 C369 1.389 . S
C370 C371 1.387 . S
C371 H356 0.930 . S
C371 C366 1.390 . S
C371 C370 1.387 . S
H372 C384 0.930 . S
H373 C386 0.930 . S
H374 C387 0.930 . S
H375 C391 0.959 . S
H376 C391 0.959 . S
H377 C391 0.961 . S
H378 C392 0.960 . S
H379 C392 0.961 . S
H380 C392 0.959 . S
H381 C395 0.929 . S
H382 C396 0.931 . S
H383 C398 0.930 . S
C384 H372 0.930 . S
C384 C385 1.399 . S
C384 C389 1.399 . S
C385 C384 1.399 . S
C385 C386 1.376 . S
C386 H373 0.930 . S
C386 C385 1.376 . S
C386 C387 1.388 . S
C387 H374 0.930 . S
C387 C386 1.388 . S
C387 C388 1.390 . S
C388 C387 1.390 . S
C388 C389 1.394 . S
C388 C394 1.465 . S
C389 C384 1.399 . S
C389 C388 1.394 . S
C389 C390 1.516 . S
C390 C389 1.516 . S
C390 C391 1.502 . S
C390 C392 1.561 . S
C390 C393 1.526 . S
C391 H375 0.959 . S
C391 H376 0.959 . S
C391 H377 0.961 . S
C391 C390 1.502 . S
C392 H378 0.960 . S
C392 H379 0.961 . S
C392 H380 0.959 . S
C392 C390 1.561 . S
C393 C390 1.526 . S
C393 C394 1.396 . S
C393 C398 1.390 . S
C394 C388 1.465 . S
C394 C393 1.396 . S
C394 C395 1.399 . S
C395 H381 0.929 . S
C395 C394 1.399 . S
C395 C396 1.385 . S
C396 H382 0.931 . S
C396 C395 1.385 . S
C396 C397 1.389 . S
C397 C396 1.389 . S
C397 C398 1.387 . S
C398 H383 0.930 . S
C398 C393 1.390 . S
C398 C397 1.387 . S
H399 C411 0.930 . S
H400 C413 0.930 . S
H401 C414 0.930 . S
H402 C418 0.959 . S
H403 C418 0.959 . S
H404 C418 0.961 . S
H405 C419 0.960 . S
H406 C419 0.961 1_545 S
H407 C419 0.959 . S
H408 C422 0.929 . S
H409 C423 0.931 . S
H410 C425 0.930 . S
C411 H399 0.930 . S
C411 C412 1.399 . S
C411 C416 1.399 . S
C412 C411 1.399 . S
C412 C413 1.376 . S
C413 H400 0.930 . S
C413 C412 1.376 . S
C413 C414 1.388 . S
C414 H401 0.930 . S
C414 C413 1.388 . S
C414 C415 1.390 . S
C415 C414 1.390 . S
C415 C416 1.394 . S
C415 C421 1.465 . S
C416 C411 1.399 . S
C416 C415 1.394 . S
C416 C417 1.516 . S
C417 C416 1.516 . S
C417 C418 1.502 . S
C417 C419 1.561 . S
C417 C420 1.526 . S
C418 H402 0.959 . S
C418 H403 0.959 . S
C418 H404 0.961 . S
C418 C417 1.502 . S
C419 H405 0.960 . S
C419 H406 0.961 1_565 S
C419 H407 0.959 . S
C419 C417 1.561 . S
C420 C417 1.526 . S
C420 C421 1.396 . S
C420 C425 1.390 . S
C421 C415 1.465 . S
C421 C420 1.396 . S
C421 C422 1.399 . S
C422 H408 0.929 . S
C422 C421 1.399 . S
C422 C423 1.385 . S
C423 H409 0.931 . S
C423 C422 1.385 . S
C423 C424 1.389 . S
C424 C423 1.389 . S
C424 C425 1.387 . S
C425 H410 0.930 . S
C425 C420 1.390 . S
C425 C424 1.387 . S
H426 C438 0.930 . S
H427 C440 0.930 . S
H428 C441 0.930 . S
H429 C445 0.959 . S
H430 C445 0.959 . S
H431 C445 0.961 . S
H432 C446 0.960 . S
H433 C446 0.961 1_554 S
H434 C446 0.959 1_554 S
H435 C449 0.929 . S
H436 C450 0.931 . S
H437 C452 0.930 1_554 S
C438 H426 0.930 . S
C438 C439 1.399 . S
C438 C443 1.399 . S
C439 C438 1.399 . S
C439 C440 1.376 . S
C440 H427 0.930 . S
C440 C439 1.376 . S
C440 C441 1.388 . S
C441 H428 0.930 . S
C441 C440 1.388 . S
C441 C442 1.390 . S
C442 C441 1.390 . S
C442 C443 1.394 . S
C442 C448 1.465 . S
C443 C438 1.399 . S
C443 C442 1.394 . S
C443 C444 1.516 . S
C444 C443 1.516 . S
C444 C445 1.502 . S
C444 C446 1.561 . S
C444 C447 1.526 . S
C445 H429 0.959 . S
C445 H430 0.959 . S
C445 H431 0.961 . S
C445 C444 1.502 . S
C446 H432 0.960 . S
C446 H433 0.961 1_556 S
C446 H434 0.959 1_556 S
C446 C444 1.561 . S
C447 C444 1.526 . S
C447 C448 1.396 . S
C447 C452 1.390 . S
C448 C442 1.465 . S
C448 C447 1.396 . S
C448 C449 1.399 . S
C449 H435 0.929 . S
C449 C448 1.399 . S
C449 C450 1.385 . S
C450 H436 0.931 . S
C450 C449 1.385 . S
C450 C451 1.389 . S
C451 C450 1.389 . S
C451 C452 1.387 . S
C452 H437 0.930 1_556 S
C452 C447 1.390 . S
C452 C451 1.387 . S
H453 C465 0.930 . S
H454 C467 0.930 . S
H455 C468 0.930 . S
H456 C472 0.959 . S
H457 C472 0.959 . S
H458 C472 0.961 . S
H459 C473 0.960 . S
H460 C473 0.961 . S
H461 C473 0.959 . S
H462 C476 0.929 . S
H463 C477 0.931 . S
H464 C479 0.930 . S
C465 H453 0.930 . S
C465 C466 1.399 . S
C465 C470 1.399 . S
C466 C465 1.399 . S
C466 C467 1.376 . S
C467 H454 0.930 . S
C467 C466 1.376 . S
C467 C468 1.388 . S
C468 H455 0.930 . S
C468 C467 1.388 . S
C468 C469 1.390 . S
C469 C468 1.390 . S
C469 C470 1.394 . S
C469 C475 1.465 . S
C470 C465 1.399 . S
C470 C469 1.394 . S
C470 C471 1.516 . S
C471 C470 1.516 . S
C471 C472 1.502 . S
C471 C473 1.561 . S
C471 C474 1.526 . S
C472 H456 0.959 . S
C472 H457 0.959 . S
C472 H458 0.961 . S
C472 C471 1.502 . S
C473 H459 0.960 . S
C473 H460 0.961 . S
C473 H461 0.959 . S
C473 C471 1.561 . S
C474 C471 1.526 . S
C474 C475 1.396 . S
C474 C479 1.390 . S
C475 C469 1.465 . S
C475 C474 1.396 . S
C475 C476 1.399 . S
C476 H462 0.929 . S
C476 C475 1.399 . S
C476 C477 1.385 . S
C477 H463 0.931 . S
C477 C476 1.385 . S
C477 C478 1.389 . S
C478 C477 1.389 . S
C478 C479 1.387 . S
C479 H464 0.930 . S
C479 C474 1.390 . S
C479 C478 1.387 . S
H480 C492 0.930 . S
H481 C494 0.930 . S
H482 C495 0.930 . S
H483 C499 0.959 . S
H484 C499 0.959 . S
H485 C499 0.961 . S
H486 C500 0.960 . S
H487 C500 0.961 . S
H488 C500 0.959 . S
H489 C503 0.929 . S
H490 C504 0.931 . S
H491 C506 0.930 . S
C492 H480 0.930 . S
C492 C493 1.399 . S
C492 C497 1.399 . S
C493 C492 1.399 . S
C493 C494 1.376 . S
C494 H481 0.930 . S
C494 C493 1.376 . S
C494 C495 1.388 . S
C495 H482 0.930 . S
C495 C494 1.388 . S
C495 C496 1.390 . S
C496 C495 1.390 . S
C496 C497 1.394 . S
C496 C502 1.465 . S
C497 C492 1.399 . S
C497 C496 1.394 . S
C497 C498 1.516 . S
C498 C497 1.516 . S
C498 C499 1.502 . S
C498 C500 1.561 . S
C498 C501 1.526 . S
C499 H483 0.959 . S
C499 H484 0.959 . S
C499 H485 0.961 . S
C499 C498 1.502 . S
C500 H486 0.960 . S
C500 H487 0.961 . S
C500 H488 0.959 . S
C500 C498 1.561 . S
C501 C498 1.526 . S
C501 C502 1.396 . S
C501 C506 1.390 . S
C502 C496 1.465 . S
C502 C501 1.396 . S
C502 C503 1.399 . S
C503 H489 0.929 . S
C503 C502 1.399 . S
C503 C504 1.385 . S
C504 H490 0.931 . S
C504 C503 1.385 . S
C504 C505 1.389 . S
C505 C504 1.389 . S
C505 C506 1.387 . S
C506 H491 0.930 . S
C506 C501 1.390 . S
C506 C505 1.387 . S
H507 C519 0.930 . S
H508 C521 0.930 . S
H509 C522 0.930 . S
H510 C526 0.959 . S
H511 C526 0.959 . S
H512 C526 0.961 . S
H513 C527 0.960 . S
H514 C527 0.961 . S
H515 C527 0.959 . S
H516 C530 0.929 . S
H517 C531 0.931 1_554 S
H518 C533 0.930 . S
C519 H507 0.930 . S
C519 C520 1.399 . S
C519 C524 1.399 . S
C520 C519 1.399 . S
C520 C521 1.376 . S
C521 H508 0.930 . S
C521 C520 1.376 . S
C521 C522 1.388 . S
C522 H509 0.930 . S
C522 C521 1.388 . S
C522 C523 1.390 . S
C523 C522 1.390 . S
C523 C524 1.394 . S
C523 C529 1.465 . S
C524 C519 1.399 . S
C524 C523 1.394 . S
C524 C525 1.516 . S
C525 C524 1.516 . S
C525 C526 1.502 . S
C525 C527 1.561 . S
C525 C528 1.526 . S
C526 H510 0.959 . S
C526 H511 0.959 . S
C526 H512 0.961 . S
C526 C525 1.502 . S
C527 H513 0.960 . S
C527 H514 0.961 . S
C527 H515 0.959 . S
C527 C525 1.561 . S
C528 C525 1.526 . S
C528 C529 1.396 . S
C528 C533 1.390 . S
C529 C523 1.465 . S
C529 C528 1.396 . S
C529 C530 1.399 . S
C530 H516 0.929 . S
C530 C529 1.399 . S
C530 C531 1.385 . S
C531 H517 0.931 1_556 S
C531 C530 1.385 . S
C531 C532 1.389 . S
C532 C531 1.389 . S
C532 C533 1.387 . S
C533 H518 0.930 . S
C533 C528 1.390 . S
C533 C532 1.387 . S
H534 C546 0.930 . S
H535 C548 0.930 . S
H536 C549 0.930 . S
H537 C553 0.959 . S
H538 C553 0.959 . S
H539 C553 0.961 . S
H540 C554 0.960 . S
H541 C554 0.961 . S
H542 C554 0.959 . S
H543 C557 0.929 . S
H544 C558 0.931 . S
H545 C560 0.954 . S
C546 H534 0.930 . S
C546 C547 1.399 . S
C546 C551 1.399 . S
C547 C546 1.399 . S
C547 C548 1.376 . S
C548 H535 0.930 . S
C548 C547 1.376 . S
C548 C549 1.388 . S
C549 H536 0.930 . S
C549 C548 1.388 . S
C549 C550 1.390 . S
C550 C549 1.390 . S
C550 C551 1.394 . S
C550 C556 1.465 . S
C551 C546 1.399 . S
C551 C550 1.394 . S
C551 C552 1.516 . S
C552 C551 1.516 . S
C552 C553 1.502 1_655 S
C552 C554 1.561 . S
C552 C555 1.526 . S
C553 H537 0.959 . S
C553 H538 0.959 . S
C553 H539 0.961 . S
C553 C552 1.502 1_455 S
C554 H540 0.960 . S
C554 H541 0.961 . S
C554 H542 0.959 . S
C554 C552 1.561 . S
C555 C552 1.526 . S
C555 C556 1.396 . S
C555 C560 1.390 . S
C556 C550 1.465 . S
C556 C555 1.396 . S
C556 C557 1.399 . S
C557 H543 0.929 . S
C557 C556 1.399 . S
C557 C558 1.385 . S
C558 H544 0.931 . S
C558 C557 1.385 . S
C558 C559 1.389 . S
C559 C558 1.389 . S
C559 C560 1.387 . S
C560 H545 0.954 . S
C560 C555 1.390 . S
C560 C559 1.387 . S
H561 C573 0.930 . S
H562 C575 0.930 . S
H563 C576 0.930 . S
H564 C580 0.959 . S
H565 C580 0.959 . S
H566 C580 0.961 . S
H567 C581 0.960 . S
H568 C581 0.961 . S
H569 C581 0.959 . S
H570 C584 0.929 . S
H571 C585 0.931 . S
H572 C587 0.930 . S
C573 H561 0.930 . S
C573 C574 1.399 . S
C573 C578 1.399 . S
C574 C573 1.399 . S
C574 C575 1.376 . S
C575 H562 0.930 . S
C575 C574 1.376 . S
C575 C576 1.388 . S
C576 H563 0.930 . S
C576 C575 1.388 . S
C576 C577 1.390 . S
C577 C576 1.390 . S
C577 C578 1.394 . S
C577 C583 1.465 . S
C578 C573 1.399 . S
C578 C577 1.394 . S
C578 C579 1.516 . S
C579 C578 1.516 . S
C579 C580 1.502 . S
C579 C581 1.561 . S
C579 C582 1.526 . S
C580 H564 0.959 . S
C580 H565 0.959 . S
C580 H566 0.961 . S
C580 C579 1.502 . S
C581 H567 0.960 . S
C581 H568 0.961 . S
C581 H569 0.959 . S
C581 C579 1.561 . S
C582 C579 1.526 . S
C582 C583 1.396 . S
C582 C587 1.390 . S
C583 C577 1.465 . S
C583 C582 1.396 . S
C583 C584 1.399 . S
C584 H570 0.929 . S
C584 C583 1.399 . S
C584 C585 1.385 . S
C585 H571 0.931 . S
C585 C584 1.385 . S
C585 C586 1.389 . S
C586 C585 1.389 . S
C586 C587 1.387 . S
C587 H572 0.930 . S
C587 C582 1.390 . S
C587 C586 1.387 . S
H588 C600 0.930 . S
H589 C602 0.930 . S
H590 C603 0.930 . S
H591 C607 0.959 . S
H592 C607 0.959 . S
H593 C607 0.961 . S
H594 C608 0.960 . S
H595 C608 0.961 . S
H596 C608 0.959 . S
H597 C611 0.929 . S
H598 C612 0.931 . S
H599 C614 0.930 . S
C600 H588 0.930 . S
C600 C601 1.399 . S
C600 C605 1.399 . S
C601 C600 1.399 . S
C601 C602 1.376 . S
C602 H589 0.930 . S
C602 C601 1.376 . S
C602 C603 1.388 . S
C603 H590 0.930 . S
C603 C602 1.388 . S
C603 C604 1.390 . S
C604 C603 1.390 . S
C604 C605 1.394 . S
C604 C610 1.465 . S
C605 C600 1.399 . S
C605 C604 1.394 . S
C605 C606 1.516 . S
C606 C605 1.516 . S
C606 C607 1.502 . S
C606 C608 1.561 . S
C606 C609 1.526 . S
C607 H591 0.959 . S
C607 H592 0.959 . S
C607 H593 0.961 . S
C607 C606 1.502 . S
C608 H594 0.960 . S
C608 H595 0.961 . S
C608 H596 0.959 . S
C608 C606 1.561 . S
C609 C606 1.526 . S
C609 C610 1.396 . S
C609 C614 1.390 . S
C610 C604 1.465 . S
C610 C609 1.396 . S
C610 C611 1.399 . S
C611 H597 0.929 . S
C611 C610 1.399 . S
C611 C612 1.385 . S
C612 H598 0.931 . S
C612 C611 1.385 . S
C612 C613 1.389 . S
C613 C612 1.389 . S
C613 C614 1.387 . S
C614 H599 0.930 . S
C614 C609 1.390 . S
C614 C613 1.387 . S
H615 C627 0.930 . S
H616 C629 0.930 . S
H617 C630 0.930 . S
H618 C634 0.959 . S
H619 C634 0.959 . S
H620 C634 0.961 . S
H621 C635 0.960 . S
H622 C635 0.961 . S
H623 C635 0.959 . S
H624 C638 0.929 . S
H625 C639 0.931 . S
H626 C641 0.930 . S
C627 H615 0.930 . S
C627 C628 1.399 . S
C627 C632 1.399 . S
C628 C627 1.399 . S
C628 C629 1.376 . S
C629 H616 0.930 . S
C629 C628 1.376 . S
C629 C630 1.388 . S
C630 H617 0.930 . S
C630 C629 1.388 . S
C630 C631 1.390 . S
C631 C630 1.390 . S
C631 C632 1.394 . S
C631 C637 1.465 . S
C632 C627 1.399 . S
C632 C631 1.394 . S
C632 C633 1.516 . S
C633 C632 1.516 . S
C633 C634 1.502 . S
C633 C635 1.561 . S
C633 C636 1.526 . S
C634 H618 0.959 . S
C634 H619 0.959 . S
C634 H620 0.961 . S
C634 C633 1.502 . S
C635 H621 0.960 . S
C635 H622 0.961 . S
C635 H623 0.959 . S
C635 C633 1.561 . S
C636 C633 1.526 . S
C636 C637 1.396 . S
C636 C641 1.390 . S
C637 C631 1.465 . S
C637 C636 1.396 . S
C637 C638 1.399 . S
C638 H624 0.929 . S
C638 C637 1.399 . S
C638 C639 1.385 . S
C639 H625 0.931 . S
C639 C638 1.385 . S
C639 C640 1.389 . S
C640 C639 1.389 . S
C640 C641 1.387 . S
C641 H626 0.930 . S
C641 C636 1.390 . S
C641 C640 1.387 . S
H642 C654 0.930 . S
H643 C656 0.930 . S
H644 C657 0.930 . S
H645 C661 0.959 . S
H646 C661 0.959 . S
H647 C661 0.961 . S
H648 C662 0.960 . S
H649 C662 0.961 . S
H650 C662 0.959 . S
H651 C665 0.929 . S
H652 C666 0.931 . S
H653 C668 0.930 . S
C654 H642 0.930 . S
C654 C655 1.399 . S
C654 C659 1.399 . S
C655 C654 1.399 . S
C655 C656 1.376 . S
C656 H643 0.930 . S
C656 C655 1.376 . S
C656 C657 1.388 . S
C657 H644 0.930 . S
C657 C656 1.388 . S
C657 C658 1.390 . S
C658 C657 1.390 . S
C658 C659 1.394 . S
C658 C664 1.465 . S
C659 C654 1.399 . S
C659 C658 1.394 . S
C659 C660 1.516 . S
C660 C659 1.516 . S
C660 C661 1.502 . S
C660 C662 1.561 . S
C660 C663 1.526 . S
C661 H645 0.959 . S
C661 H646 0.959 . S
C661 H647 0.961 . S
C661 C660 1.502 . S
C662 H648 0.960 . S
C662 H649 0.961 . S
C662 H650 0.959 . S
C662 C660 1.561 . S
C663 C660 1.526 . S
C663 C664 1.396 . S
C663 C668 1.390 . S
C664 C658 1.465 . S
C664 C663 1.396 . S
C664 C665 1.399 . S
C665 H651 0.929 . S
C665 C664 1.399 . S
C665 C666 1.385 . S
C666 H652 0.931 . S
C666 C665 1.385 . S
C666 C667 1.389 . S
C667 C666 1.389 . S
C667 C668 1.387 . S
C668 H653 0.930 . S
C668 C663 1.390 . S
C668 C667 1.387 . S
H669 C681 0.930 . S
H670 C683 0.930 . S
H671 C684 0.930 . S
H672 C688 0.959 . S
H673 C688 0.959 . S
H674 C688 0.961 . S
H675 C689 0.960 . S
H676 C689 0.961 . S
H677 C689 0.959 . S
H678 C692 0.929 . S
H679 C693 0.931 . S
H680 C695 0.930 . S
C681 H669 0.930 . S
C681 C682 1.399 . S
C681 C686 1.399 . S
C682 C681 1.399 . S
C682 C683 1.376 . S
C683 H670 0.930 . S
C683 C682 1.376 . S
C683 C684 1.388 . S
C684 H671 0.930 . S
C684 C683 1.388 . S
C684 C685 1.390 . S
C685 C684 1.390 . S
C685 C686 1.394 . S
C685 C691 1.465 . S
C686 C681 1.399 . S
C686 C685 1.394 . S
C686 C687 1.516 . S
C687 C686 1.516 . S
C687 C688 1.502 . S
C687 C689 1.561 . S
C687 C690 1.526 . S
C688 H672 0.959 . S
C688 H673 0.959 . S
C688 H674 0.961 . S
C688 C687 1.502 . S
C689 H675 0.960 . S
C689 H676 0.961 . S
C689 H677 0.959 . S
C689 C687 1.561 . S
C690 C687 1.526 . S
C690 C691 1.396 . S
C690 C695 1.390 . S
C691 C685 1.465 . S
C691 C690 1.396 . S
C691 C692 1.399 . S
C692 H678 0.929 . S
C692 C691 1.399 . S
C692 C693 1.385 . S
C693 H679 0.931 . S
C693 C692 1.385 . S
C693 C694 1.389 . S
C694 C693 1.389 . S
C694 C695 1.387 . S
C695 H680 0.930 . S
C695 C690 1.390 . S
C695 C694 1.387 . S
H696 C708 0.930 . S
H697 C710 0.930 . S
H698 C711 0.930 . S
H699 C715 0.959 . S
H700 C715 0.959 . S
H701 C715 0.961 . S
H702 C716 0.960 . S
H703 C716 0.961 . S
H704 C716 0.959 . S
H705 C719 0.929 . S
H706 C720 0.931 . S
H707 C722 0.930 . S
C708 H696 0.930 . S
C708 C709 1.399 . S
C708 C713 1.399 . S
C709 C708 1.399 . S
C709 C710 1.376 . S
C710 H697 0.930 . S
C710 C709 1.376 . S
C710 C711 1.388 . S
C711 H698 0.930 . S
C711 C710 1.388 . S
C711 C712 1.390 . S
C712 C711 1.390 . S
C712 C713 1.394 . S
C712 C718 1.465 . S
C713 C708 1.399 . S
C713 C712 1.394 . S
C713 C714 1.516 . S
C714 C713 1.516 . S
C714 C715 1.502 . S
C714 C716 1.561 . S
C714 C717 1.526 . S
C715 H699 0.959 . S
C715 H700 0.959 . S
C715 H701 0.961 . S
C715 C714 1.502 . S
C716 H702 0.960 . S
C716 H703 0.961 . S
C716 H704 0.959 . S
C716 C714 1.561 . S
C717 C714 1.526 . S
C717 C718 1.396 . S
C717 C722 1.390 . S
C718 C712 1.465 . S
C718 C717 1.396 . S
C718 C719 1.399 . S
C719 H705 0.929 . S
C719 C718 1.399 . S
C719 C720 1.385 . S
C720 H706 0.931 . S
C720 C719 1.385 . S
C720 C721 1.389 . S
C721 C720 1.389 . S
C721 C722 1.387 . S
C722 H707 0.930 . S
C722 C717 1.390 . S
C722 C721 1.387 . S
H723 C735 0.930 . S
H724 C737 0.930 . S
H725 C738 0.930 . S
H726 C742 0.959 . S
H727 C742 0.959 . S
H728 C742 0.961 . S
H729 C743 0.960 . S
H730 C743 0.961 . S
H731 C743 0.959 . S
H732 C746 0.929 . S
H733 C747 0.931 . S
H734 C749 0.930 . S
C735 H723 0.930 . S
C735 C736 1.399 . S
C735 C740 1.399 . S
C736 C735 1.399 . S
C736 C737 1.376 . S
C737 H724 0.930 . S
C737 C736 1.376 . S
C737 C738 1.388 . S
C738 H725 0.930 . S
C738 C737 1.388 . S
C738 C739 1.390 . S
C739 C738 1.390 . S
C739 C740 1.394 . S
C739 C745 1.465 . S
C740 C735 1.399 . S
C740 C739 1.394 . S
C740 C741 1.516 . S
C741 C740 1.516 . S
C741 C742 1.502 . S
C741 C743 1.561 . S
C741 C744 1.526 . S
C742 H726 0.959 . S
C742 H727 0.959 . S
C742 H728 0.961 . S
C742 C741 1.502 . S
C743 H729 0.960 . S
C743 H730 0.961 . S
C743 H731 0.959 . S
C743 C741 1.561 . S
C744 C741 1.526 . S
C744 C745 1.396 . S
C744 C749 1.390 . S
C745 C739 1.465 . S
C745 C744 1.396 . S
C745 C746 1.399 . S
C746 H732 0.929 . S
C746 C745 1.399 . S
C746 C747 1.385 . S
C747 H733 0.931 . S
C747 C746 1.385 . S
C747 C748 1.389 . S
C748 C747 1.389 . S
C748 C749 1.387 . S
C749 H734 0.930 . S
C749 C744 1.390 . S
C749 C748 1.387 . S
H750 C762 0.930 . S
H751 C764 0.930 . S
H752 C765 0.930 . S
H753 C769 0.959 . S
H754 C769 0.959 . S
H755 C769 0.961 . S
H756 C770 0.960 . S
H757 C770 0.961 . S
H758 C770 0.959 . S
H759 C773 0.929 . S
H760 C774 0.931 . S
H761 C776 0.930 . S
C762 H750 0.930 . S
C762 C763 1.399 . S
C762 C767 1.399 . S
C763 C762 1.399 . S
C763 C764 1.376 . S
C764 H751 0.930 . S
C764 C763 1.376 . S
C764 C765 1.388 . S
C765 H752 0.930 . S
C765 C764 1.388 . S
C765 C766 1.390 . S
C766 C765 1.390 . S
C766 C767 1.394 . S
C766 C772 1.465 . S
C767 C762 1.399 . S
C767 C766 1.394 . S
C767 C768 1.516 . S
C768 C767 1.516 . S
C768 C769 1.502 . S
C768 C770 1.561 . S
C768 C771 1.526 . S
C769 H753 0.959 . S
C769 H754 0.959 . S
C769 H755 0.961 . S
C769 C768 1.502 . S
C770 H756 0.960 . S
C770 H757 0.961 . S
C770 H758 0.959 . S
C770 C768 1.561 . S
C771 C768 1.526 . S
C771 C772 1.396 . S
C771 C776 1.390 . S
C772 C766 1.465 . S
C772 C771 1.396 . S
C772 C773 1.399 . S
C773 H759 0.929 . S
C773 C772 1.399 . S
C773 C774 1.385 . S
C774 H760 0.931 . S
C774 C773 1.385 . S
C774 C775 1.389 . S
C775 C774 1.389 . S
C775 C776 1.387 . S
C776 H761 0.930 . S
C776 C771 1.390 . S
C776 C775 1.387 . S
H777 C789 0.930 . S
H778 C791 0.930 . S
H779 C792 0.930 . S
H780 C796 0.959 . S
H781 C796 0.959 . S
H782 C796 0.961 . S
H783 C797 0.960 . S
H784 C797 0.961 . S
H785 C797 0.959 . S
H786 C800 0.929 . S
H787 C801 0.931 . S
H788 C803 0.930 . S
C789 H777 0.930 . S
C789 C790 1.399 . S
C789 C794 1.399 . S
C790 C789 1.399 . S
C790 C791 1.376 . S
C791 H778 0.930 . S
C791 C790 1.376 . S
C791 C792 1.388 . S
C792 H779 0.930 . S
C792 C791 1.388 . S
C792 C793 1.390 . S
C793 C792 1.390 . S
C793 C794 1.394 . S
C793 C799 1.465 . S
C794 C789 1.399 . S
C794 C793 1.394 . S
C794 C795 1.516 . S
C795 C794 1.516 . S
C795 C796 1.502 . S
C795 C797 1.561 . S
C795 C798 1.526 . S
C796 H780 0.959 . S
C796 H781 0.959 . S
C796 H782 0.961 . S
C796 C795 1.502 . S
C797 H783 0.960 . S
C797 H784 0.961 . S
C797 H785 0.959 . S
C797 C795 1.561 . S
C798 C795 1.526 . S
C798 C799 1.396 . S
C798 C803 1.390 . S
C799 C793 1.465 . S
C799 C798 1.396 . S
C799 C800 1.399 . S
C800 H786 0.929 . S
C800 C799 1.399 . S
C800 C801 1.385 . S
C801 H787 0.931 . S
C801 C800 1.385 . S
C801 C802 1.389 . S
C802 C801 1.389 . S
C802 C803 1.387 . S
C803 H788 0.930 . S
C803 C798 1.390 . S
C803 C802 1.387 . S
H804 C816 0.930 . S
H805 C818 0.930 . S
H806 C819 0.930 . S
H807 C823 0.959 . S
H808 C823 0.959 . S
H809 C823 0.961 . S
H810 C824 0.960 . S
H811 C824 0.961 . S
H812 C824 0.959 . S
H813 C827 0.929 . S
H814 C828 0.931 . S
H815 C830 0.930 . S
C816 H804 0.930 . S
C816 C817 1.399 . S
C816 C821 1.399 . S
C817 C816 1.399 . S
C817 C818 1.376 . S
C818 H805 0.930 . S
C818 C817 1.376 . S
C818 C819 1.388 . S
C819 H806 0.930 . S
C819 C818 1.388 . S
C819 C820 1.390 . S
C820 C819 1.390 . S
C820 C821 1.394 . S
C820 C826 1.465 . S
C821 C816 1.399 . S
C821 C820 1.394 . S
C821 C822 1.516 . S
C822 C821 1.516 . S
C822 C823 1.502 . S
C822 C824 1.561 . S
C822 C825 1.526 . S
C823 H807 0.959 . S
C823 H808 0.959 . S
C823 H809 0.961 . S
C823 C822 1.502 . S
C824 H810 0.960 . S
C824 H811 0.961 . S
C824 H812 0.959 . S
C824 C822 1.561 . S
C825 C822 1.526 . S
C825 C826 1.396 . S
C825 C830 1.390 . S
C826 C820 1.465 . S
C826 C825 1.396 . S
C826 C827 1.399 . S
C827 H813 0.929 . S
C827 C826 1.399 . S
C827 C828 1.385 . S
C828 H814 0.931 . S
C828 C827 1.385 . S
C828 C829 1.389 . S
C829 C828 1.389 . S
C829 C830 1.387 . S
C830 H815 0.930 . S
C830 C825 1.390 . S
C830 C829 1.387 . S
H831 C843 0.930 . S
H832 C845 0.930 . S
H833 C846 0.930 . S
H834 C850 0.959 . S
H835 C850 0.959 . S
H836 C850 0.961 . S
H837 C851 0.960 . S
H838 C851 0.961 . S
H839 C851 0.959 . S
H840 C854 0.929 . S
H841 C855 0.931 . S
H842 C857 0.930 . S
C843 H831 0.930 . S
C843 C844 1.399 . S
C843 C848 1.399 . S
C844 C843 1.399 . S
C844 C845 1.376 . S
C845 H832 0.930 . S
C845 C844 1.376 . S
C845 C846 1.388 . S
C846 H833 0.930 . S
C846 C845 1.388 . S
C846 C847 1.390 . S
C847 C846 1.390 . S
C847 C848 1.394 . S
C847 C853 1.465 . S
C848 C843 1.399 . S
C848 C847 1.394 . S
C848 C849 1.516 . S
C849 C848 1.516 . S
C849 C850 1.502 . S
C849 C851 1.561 . S
C849 C852 1.526 . S
C850 H834 0.959 . S
C850 H835 0.959 . S
C850 H836 0.961 . S
C850 C849 1.502 . S
C851 H837 0.960 . S
C851 H838 0.961 . S
C851 H839 0.959 . S
C851 C849 1.561 . S
C852 C849 1.526 . S
C852 C853 1.396 . S
C852 C857 1.390 . S
C853 C847 1.465 . S
C853 C852 1.396 . S
C853 C854 1.399 . S
C854 H840 0.929 . S
C854 C853 1.399 . S
C854 C855 1.385 . S
C855 H841 0.931 . S
C855 C854 1.385 . S
C855 C856 1.389 . S
C856 C855 1.389 . S
C856 C857 1.387 . S
C857 H842 0.930 . S
C857 C852 1.390 . S
C857 C856 1.387 . S
H858 C870 0.930 . S
H859 C872 0.930 . S
H860 C873 0.930 . S
H861 C877 0.959 . S
H862 C877 0.959 . S
H863 C877 0.961 . S
H864 C878 0.960 . S
H865 C878 0.961 . S
H866 C878 0.959 . S
H867 C881 0.929 . S
H868 C882 0.931 . S
H869 C884 0.930 . S
C870 H858 0.930 . S
C870 C871 1.399 . S
C870 C875 1.399 . S
C871 C870 1.399 . S
C871 C872 1.376 . S
C872 H859 0.930 . S
C872 C871 1.376 . S
C872 C873 1.388 . S
C873 H860 0.930 . S
C873 C872 1.388 . S
C873 C874 1.390 . S
C874 C873 1.390 . S
C874 C875 1.394 . S
C874 C880 1.465 . S
C875 C870 1.399 . S
C875 C874 1.394 . S
C875 C876 1.516 . S
C876 C875 1.516 . S
C876 C877 1.502 . S
C876 C878 1.561 . S
C876 C879 1.526 . S
C877 H861 0.959 . S
C877 H862 0.959 . S
C877 H863 0.961 . S
C877 C876 1.502 . S
C878 H864 0.960 . S
C878 H865 0.961 . S
C878 H866 0.959 . S
C878 C876 1.561 . S
C879 C876 1.526 . S
C879 C880 1.396 . S
C879 C884 1.390 . S
C880 C874 1.465 . S
C880 C879 1.396 . S
C880 C881 1.399 . S
C881 H867 0.929 . S
C881 C880 1.399 . S
C881 C882 1.385 . S
C882 H868 0.931 . S
C882 C881 1.385 . S
C882 C883 1.389 . S
C883 C882 1.389 . S
C883 C884 1.387 . S
C884 H869 0.930 . S
C884 C879 1.390 . S
C884 C883 1.387 . S
H885 C897 0.930 . S
H886 C899 0.930 . S
H887 C900 0.930 . S
H888 C904 0.959 . S
H889 C904 0.959 . S
H890 C904 0.961 . S
H891 C905 0.960 . S
H892 C905 0.961 . S
H893 C905 0.959 . S
H894 C908 0.929 . S
H895 C909 0.931 . S
H896 C911 0.930 . S
C897 H885 0.930 . S
C897 C898 1.399 . S
C897 C902 1.399 . S
C898 C897 1.399 . S
C898 C899 1.376 . S
C899 H886 0.930 . S
C899 C898 1.376 . S
C899 C900 1.388 . S
C900 H887 0.930 . S
C900 C899 1.388 . S
C900 C901 1.390 . S
C901 C900 1.390 . S
C901 C902 1.394 . S
C901 C907 1.465 . S
C902 C897 1.399 . S
C902 C901 1.394 . S
C902 C903 1.516 . S
C903 C902 1.516 . S
C903 C904 1.502 . S
C903 C905 1.561 . S
C903 C906 1.526 . S
C904 H888 0.959 . S
C904 H889 0.959 . S
C904 H890 0.961 . S
C904 C903 1.502 . S
C905 H891 0.960 . S
C905 H892 0.961 . S
C905 H893 0.959 . S
C905 C903 1.561 . S
C906 C903 1.526 . S
C906 C907 1.396 . S
C906 C911 1.390 . S
C907 C901 1.465 . S
C907 C906 1.396 . S
C907 C908 1.399 . S
C908 H894 0.929 . S
C908 C907 1.399 . S
C908 C909 1.385 . S
C909 H895 0.931 . S
C909 C908 1.385 . S
C909 C910 1.389 . S
C910 C909 1.389 . S
C910 C911 1.387 . S
C911 H896 0.930 . S
C911 C906 1.390 . S
C911 C910 1.387 . S
C277 C9 1.433 . S
C289 C110 1.458 . S
C304 C21 1.053 . S
C316 C159 1.114 . S
C343 C194 2.179 . S
C331 C30 2.217 . S
C358 C43 2.173 . S
C370 C233 2.290 1_655 S
C397 C154 2.072 . S
C385 C4 1.832 . S
C424 C113 1.469 . S
C412 C22 1.585 . S
C451 C243 1.528 1_556 S
C439 C34 1.628 . S
C478 C202 1.570 . S
C466 C48 1.577 . S
C493 C8 1.550 . S
C505 C230 1.576 . S
C532 C162 2.285 . S
C520 C35 2.337 . S
C547 C47 2.570 . S
C559 C123 2.575 . S
C574 C17 0.868 . S
C586 C199 0.849 . S
C613 C119 1.015 . S
C601 C60 0.948 . S
C628 C74 1.074 . S
C640 C150 1.114 . S
C655 C82 1.930 . S
C667 C203 1.977 . S
C682 C100 2.778 . S
C694 C242 2.687 . S
C709 C61 2.389 . S
C721 C163 2.493 . S
C748 C122 0.690 . S
C736 C73 0.739 . S
C775 C234 2.097 . S
C763 C87 2.194 . S
C802 C193 1.300 . S
C790 C95 1.298 . S
C817 C56 1.478 . S
C829 C239 1.483 . S
C856 C153 2.486 . S
C844 C86 2.544 . S
C883 C114 2.347 . S
C871 C99 2.378 . S
C898 C69 0.756 . S
C910 C190 0.691 . S
