# Generated by pormake.
# Topology pyr, (3,6)-cn, num edge types: 1
# Building blocks:
#     Node 0, Type 0, BuildingBlock: BETDIP_clean_linker_0, # of connection points: 3
#     Node 1, Type 0, BuildingBlock: BETDIP_clean_linker_0, # of connection points: 3
#     Node 2, Type 0, BuildingBlock: BETDIP_clean_linker_0, # of connection points: 3
#     Node 3, Type 0, BuildingBlock: BETDIP_clean_linker_0, # of connection points: 3
#     Node 4, Type 0, BuildingBlock: BETDIP_clean_linker_0, # of connection points: 3
#     Node 5, Type 0, BuildingBlock: BETDIP_clean_linker_0, # of connection points: 3
#     Node 6, Type 0, BuildingBlock: BETDIP_clean_linker_0, # of connection points: 3
#     Node 7, Type 0, BuildingBlock: BETDIP_clean_linker_0, # of connection points: 3
#     Node 8, Type 1, BuildingBlock: BETFEN_clean_sbu_0, # of connection points: 6
#     Node 9, Type 1, BuildingBlock: BETFEN_clean_sbu_0, # of connection points: 6
#     Node 10, Type 1, BuildingBlock: BETFEN_clean_sbu_0, # of connection points: 6
#     Node 11, Type 1, BuildingBlock: BETFEN_clean_sbu_0, # of connection points: 6
#     Edge 12, Type (0, 1), BuildingBlock: AJUNOK_clean_linker_0, # of connection points: 2
#     Edge 13, Type (0, 1), BuildingBlock: AJUNOK_clean_linker_0, # of connection points: 2
#     Edge 14, Type (0, 1), BuildingBlock: AJUNOK_clean_linker_0, # of connection points: 2
#     Edge 15, Type (0, 1), BuildingBlock: AJUNOK_clean_linker_0, # of connection points: 2
#     Edge 16, Type (0, 1), BuildingBlock: AJUNOK_clean_linker_0, # of connection points: 2
#     Edge 17, Type (0, 1), BuildingBlock: AJUNOK_clean_linker_0, # of connection points: 2
#     Edge 18, Type (0, 1), BuildingBlock: AJUNOK_clean_linker_0, # of connection points: 2
#     Edge 19, Type (0, 1), BuildingBlock: AJUNOK_clean_linker_0, # of connection points: 2
#     Edge 20, Type (0, 1), BuildingBlock: AJUNOK_clean_linker_0, # of connection points: 2
#     Edge 21, Type (0, 1), BuildingBlock: AJUNOK_clean_linker_0, # of connection points: 2
#     Edge 22, Type (0, 1), BuildingBlock: AJUNOK_clean_linker_0, # of connection points: 2
#     Edge 23, Type (0, 1), BuildingBlock: AJUNOK_clean_linker_0, # of connection points: 2
#     Edge 24, Type (0, 1), BuildingBlock: AJUNOK_clean_linker_0, # of connection points: 2
#     Edge 25, Type (0, 1), BuildingBlock: AJUNOK_clean_linker_0, # of connection points: 2
#     Edge 26, Type (0, 1), BuildingBlock: AJUNOK_clean_linker_0, # of connection points: 2
#     Edge 27, Type (0, 1), BuildingBlock: AJUNOK_clean_linker_0, # of connection points: 2
#     Edge 28, Type (0, 1), BuildingBlock: AJUNOK_clean_linker_0, # of connection points: 2
#     Edge 29, Type (0, 1), BuildingBlock: AJUNOK_clean_linker_0, # of connection points: 2
#     Edge 30, Type (0, 1), BuildingBlock: AJUNOK_clean_linker_0, # of connection points: 2
#     Edge 31, Type (0, 1), BuildingBlock: AJUNOK_clean_linker_0, # of connection points: 2
#     Edge 32, Type (0, 1), BuildingBlock: AJUNOK_clean_linker_0, # of connection points: 2
#     Edge 33, Type (0, 1), BuildingBlock: AJUNOK_clean_linker_0, # of connection points: 2
#     Edge 34, Type (0, 1), BuildingBlock: AJUNOK_clean_linker_0, # of connection points: 2
#     Edge 35, Type (0, 1), BuildingBlock: AJUNOK_clean_linker_0, # of connection points: 2
# Relax obj value: 0.243
# Max RMSD: 0.341
# Mean RMSD: 0.163
data_MOF--net-pyr--node1-BETFEN_clean_sbu_0--node2-BETDIP_clean_linker_0--edge1-AJUNOK_clean_linker_0
_symmetry_space_group_name_H-M    P1
_symmetry_Int_Tables_number       1
_symmetry_cell_setting            triclinic
loop_
_symmetry_equiv_pos_as_xyz
'x, y, z'
_cell_length_a     26.832894
_cell_length_b     30.520441
_cell_length_c     29.032404
_cell_angle_alpha  93.884196
_cell_angle_beta   99.299638
_cell_angle_gamma 121.21775
loop_
_atom_site_label
_atom_site_type_symbol
_atom_site_fract_x
_atom_site_fract_y
_atom_site_fract_z
_atom_type_partial_charge
H0 H 0.46741 0.44649 0.32958 0.0
H1 H 0.4873 0.42132 0.18777 0.0
H2 H 0.40635 0.29241 0.26008 0.0
H3 H 0.50957 0.53953 0.20216 0.0
C4 C 0.47761 0.50798 0.21725 0.0
C5 C 0.46171 0.42038 0.29911 0.0
C6 C 0.43537 0.36716 0.29991 0.0
C7 C 0.47789 0.43956 0.25799 0.0
C8 C 0.47219 0.40621 0.21887 0.0
C9 C 0.44807 0.35353 0.2207 0.0
C10 C 0.42774 0.33391 0.26026 0.0
N11 N 0.49985 0.49254 0.25632 0.0
H12 H 0.25661 0.86308 0.74962 0.0
H13 H 0.295 0.82152 0.62116 0.0
H14 H 0.38808 0.82221 0.75676 0.0
H15 H 0.28364 0.89901 0.61111 0.0
C16 C 0.24323 0.88693 0.6238 0.0
C17 C 0.28049 0.84988 0.73213 0.0
C18 C 0.32339 0.84321 0.75913 0.0
C19 C 0.27052 0.84284 0.68274 0.0
C20 C 0.30249 0.827 0.65947 0.0
C21 C 0.34458 0.81877 0.68649 0.0
C22 C 0.35425 0.82682 0.736 0.0
N23 N 0.22961 0.85411 0.65813 0.0
H24 H 0.68631 0.40265 0.82995 0.0
H25 H 0.52381 0.24962 0.80899 0.0
H26 H 0.68133 0.29374 0.91618 0.0
H27 H 0.66019 0.38247 0.748 0.0
C28 C 0.61565 0.37576 0.74317 0.0
C29 C 0.66168 0.36387 0.83815 0.0
C30 C 0.68878 0.35198 0.87629 0.0
C31 C 0.60284 0.32687 0.81161 0.0
C32 C 0.56992 0.27766 0.82716 0.0
C33 C 0.59767 0.26571 0.86679 0.0
C34 C 0.65785 0.30271 0.88813 0.0
N35 N 0.57771 0.34046 0.77099 0.0
H36 H 0.81208 0.5841 0.34264 0.0
H37 H 0.94865 0.7326 0.31605 0.0
H38 H 0.84817 0.728 0.41776 0.0
H39 H 0.92366 0.68513 0.24221 0.0
C40 C 0.91724 0.64809 0.2486 0.0
C41 C 0.83614 0.62621 0.34924 0.0
C42 C 0.82478 0.65243 0.38459 0.0
C43 C 0.87941 0.65445 0.32257 0.0
C44 C 0.91306 0.70975 0.33353 0.0
C45 C 0.90243 0.73576 0.36895 0.0
C46 C 0.85726 0.70693 0.39228 0.0
N47 N 0.8901 0.62669 0.28705 0.0
H48 H 0.5714 0.63871 0.84723 0.0
H49 H 0.6632 0.61198 0.75101 0.0
H50 H 0.70144 0.76565 0.79172 0.0
H51 H 0.57794 0.49336 0.78619 0.0
C52 C 0.60701 0.53458 0.80091 0.0
C53 C 0.60366 0.65317 0.8252 0.0
C54 C 0.63635 0.70624 0.82281 0.0
C55 C 0.61442 0.61912 0.80039 0.0
C56 C 0.65666 0.63829 0.77213 0.0
C57 C 0.68974 0.69136 0.7703 0.0
C58 C 0.67829 0.72481 0.79485 0.0
N59 N 0.58194 0.56552 0.80343 0.0
H60 H 0.77536 0.15407 0.31439 0.0
H61 H 0.77751 0.22835 0.44661 0.0
H62 H 0.69986 0.24826 0.31449 0.0
H63 H 0.87052 0.17992 0.35907 0.0
C64 C 0.85557 0.16318 0.3898 0.0
C65 C 0.76747 0.18076 0.33351 0.0
C66 C 0.73676 0.20067 0.3084 0.0
C67 C 0.78422 0.19216 0.38343 0.0
C68 C 0.76728 0.22153 0.40817 0.0
C69 C 0.73747 0.24229 0.38314 0.0
C70 C 0.72399 0.23295 0.33357 0.0
N71 N 0.81586 0.17253 0.40903 0.0
H72 H 0.38671 0.64999 0.23638 0.0
H73 H 0.55154 0.79923 0.24841 0.0
H74 H 0.38974 0.75636 0.14744 0.0
H75 H 0.42282 0.67318 0.31999 0.0
C76 C 0.4651 0.6768 0.31904 0.0
C77 C 0.41151 0.68795 0.22658 0.0
C78 C 0.38311 0.69962 0.18924 0.0
C79 C 0.47202 0.7239 0.24985 0.0
C80 C 0.50443 0.77194 0.23259 0.0
C81 C 0.47486 0.78364 0.19419 0.0
C82 C 0.41382 0.74775 0.17537 0.0
N83 N 0.49958 0.7101 0.28849 0.0
H84 H 0.11708 0.31549 0.74456 0.0
H85 H 0.26101 0.46532 0.72657 0.0
H86 H 0.21015 0.32429 0.63571 0.0
H87 H 0.14151 0.36115 0.81939 0.0
C88 C 0.14941 0.39901 0.81456 0.0
C89 C 0.15235 0.339 0.72706 0.0
C90 C 0.16123 0.31409 0.68928 0.0
C91 C 0.18749 0.39429 0.74034 0.0
C92 C 0.23287 0.42343 0.71576 0.0
C93 C 0.24289 0.39834 0.67858 0.0
C94 C 0.20524 0.34414 0.66542 0.0
N95 N 0.17748 0.42147 0.77692 0.0
Pr96 Pr 0.99796 0.99935 0.55309 0.0
Pr97 Pr 0.08639 0.05427 0.50414 0.0
C98 C 0.89542 0.93639 0.57843 0.0
C99 C 0.86674 0.8865 0.59388 0.0
C100 C 0.80683 0.86246 0.59641 0.0
C101 C 0.78164 0.81939 0.61852 0.0
C102 C 0.81657 0.80062 0.63842 0.0
C103 C 0.87537 0.8226 0.63313 0.0
C104 C 0.90036 0.86536 0.6105 0.0
C105 C 0.07402 0.10321 0.60053 0.0
C106 C 0.11177 0.98798 0.57845 0.0
C107 C 0.19129 0.11693 0.48206 0.0
C108 C 0.22831 0.16719 0.46856 0.0
C109 C 0.20552 0.18239 0.43033 0.0
C110 C 0.24446 0.22524 0.41221 0.0
C111 C 0.30618 0.25322 0.43246 0.0
C112 C 0.32801 0.24103 0.47349 0.0
C113 C 0.28918 0.19788 0.49131 0.0
C114 C 1.00786 0.95117 0.45561 0.0
C115 C 0.97332 0.0642 0.47472 0.0
O116 O 0.89989 0.93526 0.53428 0.0
O117 O 0.94377 0.97395 0.60828 0.0
O118 O 0.05347 0.08844 0.55625 0.0
O119 O 0.0589 0.06346 0.62172 0.0
O120 O 0.13643 0.03103 0.56106 0.0
O121 O 0.05398 0.96256 0.57658 0.0
O122 O 0.18465 0.11749 0.52564 0.0
O123 O 0.14316 0.08119 0.45068 0.0
O124 O 1.02927 0.96508 0.49984 0.0
O125 O 1.02572 0.99137 0.43482 0.0
O126 O 0.94803 0.02392 0.49612 0.0
O127 O 0.03088 0.08865 0.47642 0.0
H128 H 0.78068 0.87869 0.5837 0.0
H129 H 0.73646 0.80323 0.62329 0.0
H130 H 0.90282 0.80874 0.64902 0.0
H131 H 0.94679 0.88376 0.60846 0.0
H132 H 0.15842 0.15951 0.41275 0.0
H133 H 0.22693 0.23412 0.38038 0.0
H134 H 0.37552 0.26281 0.48978 0.0
H135 H 0.3072 0.18679 0.52119 0.0
Pr136 Pr 0.48639 0.02134 0.03638 0.0
Pr137 Pr 0.5763 0.02474 0.02318 0.0
C138 C 0.4066 0.03448 0.06943 0.0
C139 C 0.41031 0.08319 0.08188 0.0
C140 C 0.45759 0.12944 0.07281 0.0
C141 C 0.46507 0.17704 0.08853 0.0
C142 C 0.42563 0.1788 0.11379 0.0
C143 C 0.37747 0.13219 0.12167 0.0
C144 C 0.36991 0.08456 0.10579 0.0
C145 C 0.53004 0.08925 0.97003 0.0
C146 C 0.61375 0.10408 0.11276 0.0
C147 C 0.65363 1.01406 0.98345 0.0
C148 C 0.64653 0.96688 0.96014 0.0
C149 C 0.59832 0.9179 0.96363 0.0
C150 C 0.59118 0.87263 0.94096 0.0
C151 C 0.63193 0.87616 0.91438 0.0
C152 C 0.67907 0.92535 0.91004 0.0
C153 C 0.68635 0.97049 0.9329 0.0
C154 C 0.53481 0.95714 0.08975 0.0
C155 C 0.44609 0.93624 0.95281 0.0
O156 O 0.44701 0.03028 0.09667 0.0
O157 O 0.40055 0.02049 0.02449 0.0
O158 O 0.56158 0.09198 1.00914 0.0
O159 O 0.47693 0.04819 0.96267 0.0
O160 O 0.63737 0.10148 0.07763 0.0
O161 O 0.55604 0.07162 0.10788 0.0
O162 O 0.61815 0.02684 0.96127 0.0
O163 O 0.65658 0.01755 0.02888 0.0
O164 O 0.50207 0.95458 0.05134 0.0
O165 O 0.5885 0.99723 0.09583 0.0
O166 O 0.42553 0.94027 0.98933 0.0
O167 O 0.50229 0.97057 0.95381 0.0
H168 H 0.48942 0.12877 0.05451 0.0
H169 H 0.50201 0.21241 0.08157 0.0
H170 H 0.34683 0.13277 0.14148 0.0
H171 H 0.33364 0.04908 0.11323 0.0
H172 H 0.5667 0.91479 0.98425 0.0
H173 H 0.55503 0.83512 0.94525 0.0
H174 H 0.7107 0.92881 0.88932 0.0
H175 H 0.72307 1.00813 0.92949 0.0
Pr176 Pr 0.565 0.57827 0.57058 0.0
Pr177 Pr 0.51014 0.47824 0.50249 0.0
C178 C 0.5836 0.66414 0.62272 0.0
C179 C 0.54759 0.68699 0.6279 0.0
C180 C 0.54778 0.70571 0.67337 0.0
C181 C 0.51352 0.72706 0.67904 0.0
C182 C 0.47852 0.73017 0.63928 0.0
C183 C 0.47688 0.70995 0.59382 0.0
C184 C 0.51136 0.68869 0.5882 0.0
C185 C 0.58284 0.50435 0.61106 0.0
C186 C 0.4212 0.48603 0.56248 0.0
C187 C 0.49753 0.38797 0.46918 0.0
C188 C 0.53969 0.37244 0.46092 0.0
C189 C 0.56491 0.38232 0.42105 0.0
C190 C 0.60154 0.36415 0.41265 0.0
C191 C 0.61499 0.337 0.44463 0.0
C192 C 0.59301 0.33048 0.48604 0.0
C193 C 0.55499 0.34711 0.49364 0.0
C194 C 0.49604 0.54612 0.44744 0.0
C195 C 0.64782 0.57165 0.50257 0.0
O196 O 0.6002 0.66452 0.58274 0.0
O197 O 0.56631 0.62058 0.63835 0.0
O198 O 0.53497 0.4956 0.58491 0.0
O199 O 0.62523 0.55318 0.61558 0.0
O200 O 0.42711 0.4534 0.53512 0.0
O201 O 0.4629 0.53626 0.57302 0.0
O202 O 0.50041 0.40204 0.51345 0.0
O203 O 0.4891 0.41655 0.4413 0.0
O204 O 0.52069 0.55767 0.49141 0.0
O205 O 0.47346 0.49715 0.43173 0.0
O206 O 0.63997 0.60493 0.52685 0.0
O207 O 0.61096 0.52128 0.4993 0.0
H208 H 0.57461 0.70397 0.70452 0.0
H209 H 0.51463 0.74143 0.71457 0.0
H210 H 0.4502 0.71185 0.56272 0.0
H211 H 0.51036 0.67408 0.55294 0.0
H212 H 0.55471 0.40241 0.39545 0.0
H213 H 0.61774 0.36996 0.38037 0.0
H214 H 0.60467 0.31202 0.51256 0.0
H215 H 0.53727 0.33985 0.5252 0.0
Pr216 Pr 0.04089 0.56517 1.00543 0.0
Pr217 Pr 0.03146 0.48472 0.06033 0.0
C218 C 1.01694 0.62597 0.95641 0.0
C219 C 0.96039 0.62257 0.94055 0.0
C220 C 0.9564 0.65362 0.90878 0.0
C221 C 0.90068 0.64535 0.88849 0.0
C222 C 0.84847 0.60575 0.89974 0.0
C223 C 0.85298 0.57593 0.93298 0.0
C224 C 0.90862 0.58415 0.95316 0.0
C225 C 0.14978 0.59427 0.0648 0.0
C226 C 0.9889 0.55652 0.10593 0.0
C227 C 0.05934 0.4254 0.10801 0.0
C228 C 0.11696 0.42948 0.11827 0.0
C229 C 0.12259 0.39149 0.1384 0.0
C230 C 0.17894 0.39811 0.15132 0.0
C231 C 0.23025 0.44306 0.14453 0.0
C232 C 0.22387 0.48019 0.12287 0.0
C233 C 0.16765 0.47334 0.10968 0.0
C234 C 0.92222 0.45626 1.00188 0.0
C235 C 0.08264 0.49261 0.95987 0.0
O236 O 1.01843 0.58727 0.93627 0.0
O237 O 0.0392 0.63829 1.00218 0.0
O238 O 0.10002 0.57224 0.07583 0.0
O239 O 0.14549 0.60523 0.0225 0.0
O240 O 1.00893 0.5263 0.11664 0.0
O241 O 0.98913 0.5705 0.06358 0.0
O242 O 0.06027 0.46514 0.129 0.0
O243 O 0.03085 0.41045 0.0634 0.0
O244 O 0.97172 0.47789 0.99026 0.0
O245 O 0.92692 0.44448 0.04388 0.0
O246 O 0.06144 0.52186 0.94855 0.0
O247 O 0.08409 0.48056 1.00289 0.0
H248 H 0.99601 0.68299 0.89848 0.0
H249 H 0.89813 0.66888 0.86304 0.0
H250 H 0.81321 0.54475 0.94166 0.0
H251 H 0.91098 0.55925 0.97717 0.0
H252 H 0.08372 0.35733 0.14489 0.0
H253 H 0.18254 0.36851 0.16726 0.0
H254 H 0.2626 0.51539 0.11757 0.0
H255 H 0.16391 0.50297 0.09392 0.0
C256 C 0.37254 0.35579 0.35752 0.0
C257 C 0.41162 0.34479 0.34033 0.0
C258 C 0.34078 0.32794 0.38985 0.0
C259 C 0.34768 0.2887 0.40603 0.0
H260 H 0.36399 0.38402 0.34399 0.0
H261 H 0.30885 0.33559 0.40079 0.0
S262 S 0.44737 0.24736 0.37384 0.0
N263 N 0.45825 0.29434 0.34374 0.0
N264 N 0.39786 0.24138 0.4042 0.0
C265 C 0.3887 0.27898 0.39081 0.0
C266 C 0.42084 0.30719 0.35791 0.0
C267 C 0.35606 0.91015 0.83009 0.0
C268 C 0.3429 0.8607 0.81116 0.0
C269 C 0.38633 0.93279 0.87734 0.0
C270 C 0.40474 0.90693 0.90702 0.0
H271 H 0.34642 0.93303 0.80762 0.0
H272 H 0.39809 0.97191 0.88999 0.0
S273 S 0.3756 0.77486 0.87661 0.0
N274 N 0.34496 0.78434 0.82733 0.0
N275 N 0.40438 0.82841 0.91606 0.0
C276 C 0.3892 0.85657 0.88964 0.0
C277 C 0.35756 0.83304 0.84163 0.0
C278 C 0.55087 0.40855 0.70058 0.0
C279 C 0.60151 0.40425 0.70714 0.0
C280 C 0.54354 0.43946 0.66849 0.0
C281 C 0.58697 0.46804 0.64233 0.0
H282 H 0.51741 0.38891 0.72085 0.0
H283 H 0.50452 0.44224 0.66524 0.0
S284 S 0.7239 0.46618 0.64278 0.0
N285 N 0.69285 0.42875 0.68111 0.0
N286 N 0.67964 0.48669 0.62336 0.0
C287 C 0.63638 0.46285 0.64791 0.0
C288 C 0.6434 0.43113 0.6795 0.0
C289 C 0.94482 0.6409 0.17084 0.0
C290 C 0.93202 0.62072 0.21275 0.0
C291 C 0.96155 0.61929 0.13648 0.0
C292 C 0.96748 0.57661 0.14233 0.0
H293 H 0.94219 0.6743 0.16448 0.0
H294 H 0.97116 0.63713 0.1054 0.0
S295 S 0.93868 0.50802 0.24539 0.0
N296 N 0.92558 0.5543 0.25756 0.0
N297 N 0.95797 0.5143 0.19386 0.0
C298 C 0.95448 0.55564 0.18403 0.0
C299 C 0.93655 0.57738 0.21887 0.0
C300 C 0.39331 0.27983 0.15345 0.0
C301 C 0.44784 0.31812 0.18412 0.0
C302 C 0.3875 0.23605 0.12851 0.0
C303 C 0.43581 0.22905 0.13414 0.0
H304 H 0.35409 0.28221 0.15108 0.0
H305 H 0.34418 0.20631 0.10637 0.0
S306 S 0.58762 0.31853 0.21149 0.0
N307 N 0.55082 0.34721 0.21893 0.0
N308 N 0.54013 0.26442 0.17252 0.0
C309 C 0.49129 0.26821 0.16351 0.0
C310 C 0.49718 0.31291 0.18853 0.0
C311 C 0.158 0.89909 0.62913 0.0
C312 C 0.20982 0.91274 0.61239 0.0
C313 C 0.12695 0.92411 0.6187 0.0
C314 C 0.14711 0.9642 0.59184 0.0
H315 H 0.14091 0.86868 0.6502 0.0
H316 H 0.08687 0.91188 0.63173 0.0
S317 S 0.27998 1.01328 0.53888 0.0
N318 N 0.27933 0.96801 0.56724 0.0
N319 N 0.22184 1.01524 0.5476 0.0
C320 C 0.19907 0.97815 0.575 0.0
C321 C 0.23015 0.95236 0.58531 0.0
C322 C 0.75643 0.3975 0.95606 0.0
C323 C 0.74926 0.39028 0.90644 0.0
C324 C 0.81292 0.42074 0.9867 0.0
C325 C 0.8645 0.43839 0.9689 0.0
H326 H 0.71749 0.38199 0.97125 0.0
H327 H 0.81587 0.42311 0.02454 0.0
S328 S 0.87111 0.43657 0.84213 0.0
N329 N 0.799 0.4078 0.84101 0.0
N330 N 0.90589 0.45327 0.89872 0.0
C331 C 0.85868 0.43588 0.91953 0.0
C332 C 0.80083 0.41151 0.88821 0.0
C333 C 0.79501 0.64952 0.46341 0.0
C334 C 0.78076 0.62594 0.41533 0.0
C335 C 0.75232 0.63253 0.49141 0.0
C336 C 0.69388 0.58944 0.47354 0.0
H337 H 0.83959 0.68264 0.47951 0.0
H338 H 0.76533 0.65312 0.5274 0.0
S339 S 0.6325 0.51129 0.3517 0.0
N340 N 0.70259 0.556 0.35202 0.0
N341 N 0.62378 0.52222 0.4054 0.0
C342 C 0.6794 0.56376 0.42651 0.0
C343 C 0.72241 0.58206 0.39741 0.0
C344 C 0.39233 0.48669 0.15152 0.0
C345 C 0.41262 0.48558 0.19888 0.0
C346 C 0.33263 0.47084 0.13356 0.0
C347 C 0.29099 0.45334 0.1624 0.0
H348 H 0.4232 0.50086 0.12835 0.0
H349 H 0.31922 0.47327 0.09704 0.0
S350 S 0.32175 0.44541 0.28967 0.0
N351 N 0.38642 0.46708 0.27485 0.0
N352 N 0.27424 0.43675 0.24083 0.0
C353 C 0.31034 0.45115 0.20963 0.0
C354 C 0.37119 0.46744 0.228 0.0
C355 C 0.58393 0.22545 0.94099 0.0
C356 C 0.56873 0.21793 0.89057 0.0
C357 C 0.57338 0.18452 0.96602 0.0
C358 C 0.544 0.13286 0.94244 0.0
H359 H 0.60704 0.26434 0.96164 0.0
H360 H 0.58778 0.19348 1.00437 0.0
S361 S 0.48626 0.0884 0.81201 0.0
N362 N 0.51849 0.15233 0.81866 0.0
N363 N 0.4943 0.07508 0.86594 0.0
C364 C 0.52428 0.12359 0.8925 0.0
C365 C 0.53716 0.16583 0.86661 0.0
C366 C 0.97215 0.8125 0.4331 0.0
C367 C 0.93921 0.79316 0.38566 0.0
C368 C 0.99437 0.86356 0.455 0.0
C369 C 0.98491 0.89777 0.43036 0.0
H370 H 0.97824 0.78696 0.45422 0.0
H371 H 1.01835 0.87597 0.49188 0.0
S372 S 0.90172 0.86617 0.30526 0.0
N373 N 0.89836 0.812 0.31464 0.0
N374 N 0.94113 0.90863 0.35527 0.0
C375 C 0.95372 0.87949 0.38236 0.0
C376 C 0.9307 0.82711 0.36014 0.0
C377 C 0.35155 0.75352 0.63521 0.0
C378 C 0.3802 0.80212 0.66527 0.0
C379 C 0.38392 0.73102 0.62525 0.0
C380 C 0.4457 0.75627 0.64551 0.0
H381 H 0.30342 0.73139 0.62178 0.0
H382 H 0.35998 0.69256 0.60359 0.0
S383 S 0.54244 0.88677 0.72184 0.0
N384 N 0.47476 0.87694 0.7111 0.0
N385 N 0.53497 0.83439 0.69315 0.0
C386 C 0.47519 0.80609 0.67329 0.0
C387 C 0.44264 0.82915 0.68284 0.0
C388 C 0.71337 0.68902 0.69141 0.0
C389 C 0.73237 0.71214 0.73951 0.0
C390 C 0.74378 0.71633 0.65819 0.0
C391 C 0.79538 0.76638 0.67283 0.0
H392 H 0.67225 0.65149 0.6789 0.0
H393 H 0.72497 0.69971 0.62079 0.0
S394 S 0.8708 0.83925 0.79574 0.0
N395 N 0.81112 0.78436 0.80106 0.0
N396 N 0.86917 0.83535 0.73846 0.0
C397 C 0.81883 0.78738 0.72131 0.0
C398 C 0.78725 0.76012 0.75491 0.0
C399 C 0.64953 0.16498 0.24008 0.0
C400 C 0.70996 0.18197 0.25685 0.0
C401 C 0.62052 0.14298 0.19268 0.0
C402 C 0.65028 0.13627 0.1599 0.0
H403 H 0.62344 0.16678 0.26414 0.0
H404 H 0.57346 0.12935 0.1821 0.0
S405 S 0.81037 0.17783 0.18515 0.0
N406 N 0.80026 0.19421 0.23663 0.0
N407 N 0.74499 0.15099 0.14702 0.0
C408 C 0.71153 0.15483 0.17561 0.0
C409 C 0.7414 0.17781 0.22426 0.0
C410 C 0.50745 0.62042 0.34253 0.0
C411 C 0.48379 0.65057 0.35424 0.0
C412 C 0.51199 0.58723 0.37291 0.0
C413 C 0.49436 0.58362 0.41671 0.0
H414 H 0.51955 0.6203 0.30871 0.0
H415 H 0.52873 0.56367 0.36175 0.0
S416 S 0.42718 0.65225 0.46241 0.0
N417 N 0.44101 0.67272 0.41208 0.0
N418 N 0.45098 0.61229 0.4687 0.0
C419 C 0.47195 0.61426 0.42887 0.0
C420 C 0.46629 0.64702 0.39781 0.0
C421 C 0.12533 0.46602 0.84415 0.0
C422 C 0.13762 0.42709 0.85223 0.0
C423 C 0.10838 0.48751 0.87898 0.0
C424 C 0.10384 0.4717 0.92376 0.0
H425 H 0.12696 0.47884 0.81024 0.0
H426 H 0.0981 0.51638 0.87044 0.0
S427 S 0.13548 0.37346 0.96348 0.0
N428 N 0.14625 0.37543 0.9091 0.0
N429 N 0.11621 0.4158 0.97394 0.0
C430 C 0.118 0.43401 0.93241 0.0
C431 C 0.13431 0.41183 0.89694 0.0
C432 C 0.68198 0.78648 0.88143 0.0
C433 C 0.63034 0.74423 0.8508 0.0
C434 C 0.68119 0.82819 0.90278 0.0
C435 C 0.62882 0.82918 0.894 0.0
H436 H 0.72384 0.78801 0.88768 0.0
H437 H 0.72226 0.86043 0.92565 0.0
S438 S 0.48157 0.72721 0.81686 0.0
N439 N 0.52536 0.70473 0.81307 0.0
N440 N 0.52348 0.78384 0.85352 0.0
C441 C 0.57616 0.78631 0.86462 0.0
C442 C 0.57706 0.74358 0.84284 0.0
C443 C 0.93414 0.14304 0.39986 0.0
C444 C 0.88284 0.13647 0.41275 0.0
C445 C 0.96205 0.11859 0.41959 0.0
C446 C 0.93924 0.08583 0.45252 0.0
H447 H 0.95339 0.16782 0.3745 0.0
H448 H 1.00206 0.12559 0.40888 0.0
S449 S 0.80482 0.05498 0.49777 0.0
N450 N 0.80945 0.09461 0.46028 0.0
N451 N 0.86176 0.04788 0.49737 0.0
C452 C 0.8873 0.07827 0.46552 0.0
C453 C 0.85917 0.10389 0.4457 0.0
C454 C 0.3137 0.64689 0.11214 0.0
C455 C 0.3219 0.66147 0.16111 0.0
C456 C 0.25729 0.62356 0.08136 0.0
C457 C 0.2071 0.61346 0.09861 0.0
H458 H 0.35195 0.65661 0.09722 0.0
H459 H 0.25332 0.61486 0.04365 0.0
S460 S 0.20419 0.64018 0.2244 0.0
N461 N 0.2751 0.66155 0.22588 0.0
N462 N 0.16819 0.61609 0.16819 0.0
C463 C 0.21392 0.62447 0.14792 0.0
C464 C 0.27165 0.64885 0.17922 0.0
C465 C 0.32092 0.40058 0.6389 0.0
C466 C 0.29209 0.42561 0.65238 0.0
C467 C 0.35968 0.41904 0.608 0.0
C468 C 0.37401 0.46491 0.59036 0.0
H469 H 0.31294 0.36559 0.65193 0.0
H470 H 0.38008 0.39786 0.59909 0.0
S471 S 0.31751 0.5494 0.61801 0.0
N472 N 0.28372 0.50079 0.64668 0.0
N473 N 0.36042 0.53759 0.59144 0.0
C474 C 0.34864 0.49225 0.6054 0.0
C475 C 0.30722 0.47239 0.63584 0.0
C476 C 0.68816 0.57186 0.87473 0.0
C477 C 0.66968 0.5554 0.82528 0.0
C478 C 0.74666 0.58915 0.89882 0.0
C479 C 0.78876 0.59207 0.87389 0.0
H480 H 0.65674 0.56998 0.89496 0.0
H481 H 0.75895 0.59993 0.93714 0.0
S482 S 0.76404 0.55947 0.74377 0.0
N483 N 0.69839 0.54597 0.75201 0.0
N484 N 0.80913 0.58049 0.79701 0.0
C485 C 0.77137 0.57796 0.82426 0.0
C486 C 0.7115 0.559 0.79998 0.0
C487 C 0.52824 0.88164 0.1926 0.0
C488 C 0.50298 0.83012 0.16926 0.0
C489 C 0.53857 0.92241 0.16671 0.0
C490 C 0.52184 0.91315 0.1165 0.0
H491 H 0.53766 0.89011 0.23094 0.0
H492 H 0.55806 0.9613 0.18624 0.0
S493 S 0.45989 0.78689 0.0382 0.0
N494 N 0.46806 0.77428 0.09235 0.0
N495 N 0.48281 0.84914 0.04486 0.0
C496 C 0.4984 0.86243 0.09294 0.0
C497 C 0.49047 0.8217 0.11896 0.0
C498 C 0.1402 0.22447 0.69596 0.0
C499 C 0.12602 0.25662 0.67197 0.0
C500 C 0.12212 0.17435 0.67322 0.0
C501 C 0.09044 0.15509 0.62533 0.0
H502 H 0.16836 0.23931 0.73155 0.0
H503 H 0.13525 0.15148 0.69265 0.0
S504 S 0.03846 0.22261 0.54815 0.0
N505 N 0.07492 0.26404 0.5989 0.0
N506 N 0.0421 0.17125 0.55612 0.0
C507 C 0.07405 0.1862 0.6018 0.0
C508 C 0.09144 0.23647 0.62511 0.0
C509 C 0.73059 0.31965 0.40021 0.0
C510 C 0.71371 0.26911 0.4071 0.0
C511 C 0.6997 0.34198 0.4138 0.0
C512 C 0.65011 0.31414 0.434 0.0
H513 H 0.76667 0.34134 0.3827 0.0
H514 H 0.71412 0.38096 0.40754 0.0
S515 S 0.58677 0.17899 0.45706 0.0
N516 N 0.64484 0.19158 0.43492 0.0
N517 N 0.58482 0.23224 0.45877 0.0
C518 C 0.63334 0.26354 0.44146 0.0
C519 C 0.66562 0.24133 0.42841 0.0
loop_
_geom_bond_atom_site_label_1
_geom_bond_atom_site_label_2
_geom_bond_distance
_geom_bond_site_symmetry_2
_ccdc_geom_bond_type
H0 C5 0.930 . S
H1 C8 0.930 . S
H2 C10 0.930 . S
H3 C4 1.016 . S
C4 H3 1.016 . S
C4 N11 1.286 . S
C5 H0 0.930 . S
C5 C6 1.397 . S
C5 C7 1.361 . S
C6 C5 1.397 . S
C6 C10 1.390 . S
C7 C5 1.361 . S
C7 C8 1.393 . S
C7 N11 1.413 . S
C8 H1 0.930 . S
C8 C7 1.393 . S
C8 C9 1.399 . S
C9 C8 1.399 . S
C9 C10 1.381 . S
C10 H2 0.930 . S
C10 C6 1.390 . S
C10 C9 1.381 . S
N11 C4 1.286 . S
N11 C7 1.413 . S
H12 C17 0.930 . S
H13 C20 0.930 . S
H14 C22 0.930 . S
H15 C16 1.016 . S
C16 H15 1.016 . S
C16 N23 1.286 . S
C17 H12 0.930 . S
C17 C18 1.397 . S
C17 C19 1.361 . S
C18 C17 1.397 . S
C18 C22 1.390 . S
C19 C17 1.361 . S
C19 C20 1.393 . S
C19 N23 1.413 . S
C20 H13 0.930 . S
C20 C19 1.393 . S
C20 C21 1.399 . S
C21 C20 1.399 . S
C21 C22 1.381 . S
C22 H14 0.930 . S
C22 C18 1.390 . S
C22 C21 1.381 . S
N23 C16 1.286 . S
N23 C19 1.413 . S
H24 C29 0.930 . S
H25 C32 0.930 . S
H26 C34 0.930 . S
H27 C28 1.016 . S
C28 H27 1.016 . S
C28 N35 1.286 . S
C29 H24 0.930 . S
C29 C30 1.397 . S
C29 C31 1.361 . S
C30 C29 1.397 . S
C30 C34 1.390 . S
C31 C29 1.361 . S
C31 C32 1.393 . S
C31 N35 1.413 . S
C32 H25 0.930 . S
C32 C31 1.393 . S
C32 C33 1.399 . S
C33 C32 1.399 . S
C33 C34 1.381 . S
C34 H26 0.930 . S
C34 C30 1.390 . S
C34 C33 1.381 . S
N35 C28 1.286 . S
N35 C31 1.413 . S
H36 C41 0.930 . S
H37 C44 0.930 . S
H38 C46 0.930 . S
H39 C40 1.016 . S
C40 H39 1.016 . S
C40 N47 1.286 . S
C41 H36 0.930 . S
C41 C42 1.397 . S
C41 C43 1.361 . S
C42 C41 1.397 . S
C42 C46 1.390 . S
C43 C41 1.361 . S
C43 C44 1.393 . S
C43 N47 1.413 . S
C44 H37 0.930 . S
C44 C43 1.393 . S
C44 C45 1.399 . S
C45 C44 1.399 . S
C45 C46 1.381 . S
C46 H38 0.930 . S
C46 C42 1.390 . S
C46 C45 1.381 . S
N47 C40 1.286 . S
N47 C43 1.413 . S
H48 C53 0.930 . S
H49 C56 0.930 . S
H50 C58 0.930 . S
H51 C52 1.016 . S
C52 H51 1.016 . S
C52 N59 1.286 . S
C53 H48 0.930 . S
C53 C54 1.397 . S
C53 C55 1.361 . S
C54 C53 1.397 . S
C54 C58 1.390 . S
C55 C53 1.361 . S
C55 C56 1.393 . S
C55 N59 1.413 . S
C56 H49 0.930 . S
C56 C55 1.393 . S
C56 C57 1.399 . S
C57 C56 1.399 . S
C57 C58 1.381 . S
C58 H50 0.930 . S
C58 C54 1.390 . S
C58 C57 1.381 . S
N59 C52 1.286 . S
N59 C55 1.413 . S
H60 C65 0.930 . S
H61 C68 0.930 . S
H62 C70 0.930 . S
H63 C64 1.016 . S
C64 H63 1.016 . S
C64 N71 1.286 . S
C65 H60 0.930 . S
C65 C66 1.397 . S
C65 C67 1.361 . S
C66 C65 1.397 . S
C66 C70 1.390 . S
C67 C65 1.361 . S
C67 C68 1.393 . S
C67 N71 1.413 . S
C68 H61 0.930 . S
C68 C67 1.393 . S
C68 C69 1.399 . S
C69 C68 1.399 . S
C69 C70 1.381 . S
C70 H62 0.930 . S
C70 C66 1.390 . S
C70 C69 1.381 . S
N71 C64 1.286 . S
N71 C67 1.413 . S
H72 C77 0.930 . S
H73 C80 0.930 . S
H74 C82 0.930 . S
H75 C76 1.016 . S
C76 H75 1.016 . S
C76 N83 1.286 . S
C77 H72 0.930 . S
C77 C78 1.397 . S
C77 C79 1.361 . S
C78 C77 1.397 . S
C78 C82 1.390 . S
C79 C77 1.361 . S
C79 C80 1.393 . S
C79 N83 1.413 . S
C80 H73 0.930 . S
C80 C79 1.393 . S
C80 C81 1.399 . S
C81 C80 1.399 . S
C81 C82 1.381 . S
C82 H74 0.930 . S
C82 C78 1.390 . S
C82 C81 1.381 . S
N83 C76 1.286 . S
N83 C79 1.413 . S
H84 C89 0.930 . S
H85 C92 0.930 . S
H86 C94 0.930 . S
H87 C88 1.016 . S
C88 H87 1.016 . S
C88 N95 1.286 . S
C89 H84 0.930 . S
C89 C90 1.397 . S
C89 C91 1.361 . S
C90 C89 1.397 . S
C90 C94 1.390 . S
C91 C89 1.361 . S
C91 C92 1.393 . S
C91 N95 1.413 . S
C92 H85 0.930 . S
C92 C91 1.393 . S
C92 C93 1.399 . S
C93 C92 1.399 . S
C93 C94 1.381 . S
C94 H86 0.930 . S
C94 C90 1.390 . S
C94 C93 1.381 . S
N95 C88 1.286 . S
N95 C91 1.413 . S
Pr96 C98 2.880 . S
Pr96 O116 2.562 . S
Pr96 O117 2.490 . S
Pr96 O118 2.695 1_665 S
Pr96 O119 2.512 1_665 S
Pr96 O121 2.437 1_655 S
Pr96 O124 2.436 . S
Pr96 O126 2.438 1_565 S
Pr97 C107 2.880 . S
Pr97 O118 2.436 . S
Pr97 O120 2.438 1_545 S
Pr97 O122 2.562 . S
Pr97 O123 2.490 . S
Pr97 O124 2.695 1_445 S
Pr97 O125 2.512 1_545 S
Pr97 O127 2.454 . S
C98 Pr96 2.880 . S
C98 C99 1.491 . S
C98 O116 1.254 . S
C98 O117 1.225 . S
C99 C98 1.491 . S
C99 C100 1.392 . S
C99 C104 1.356 . S
C100 C99 1.392 . S
C100 C101 1.368 . S
C100 H128 0.929 . S
C101 C100 1.368 . S
C101 C102 1.386 . S
C101 H129 0.929 . S
C102 C101 1.386 . S
C102 C103 1.373 . S
C103 C102 1.373 . S
C103 C104 1.409 . S
C103 H130 0.931 . S
C104 C99 1.356 . S
C104 C103 1.409 . S
C104 H131 0.930 . S
C105 O118 1.270 . S
C105 O119 1.248 . S
C106 O120 1.267 . S
C106 O121 1.278 . S
C107 Pr97 2.880 . S
C107 C108 1.491 . S
C107 O122 1.254 . S
C107 O123 1.225 . S
C108 C107 1.491 . S
C108 C109 1.392 . S
C108 C113 1.356 . S
C109 C108 1.392 . S
C109 C110 1.368 . S
C109 H132 0.929 . S
C110 C109 1.368 . S
C110 C111 1.386 . S
C110 H133 0.929 . S
C111 C110 1.386 . S
C111 C112 1.373 . S
C112 C111 1.373 . S
C112 C113 1.409 . S
C112 H134 0.931 . S
C113 C108 1.356 . S
C113 C112 1.409 . S
C113 H135 0.930 . S
C114 O124 1.270 . S
C114 O125 1.248 1_655 S
C115 O126 1.267 . S
C115 O127 1.258 1_655 S
O116 Pr96 2.562 . S
O116 C98 1.254 . S
O117 Pr96 2.490 . S
O117 C98 1.225 . S
O118 Pr96 2.695 1_445 S
O118 Pr97 2.436 . S
O118 C105 1.270 . S
O119 Pr96 2.512 1_445 S
O119 C105 1.248 . S
O120 Pr97 2.438 1_565 S
O120 C106 1.267 . S
O121 Pr96 2.437 1_455 S
O121 C106 1.278 . S
O122 Pr97 2.562 . S
O122 C107 1.254 . S
O123 Pr97 2.490 . S
O123 C107 1.225 . S
O124 Pr96 2.436 . S
O124 Pr97 2.695 1_665 S
O124 C114 1.270 . S
O125 Pr97 2.512 1_565 S
O125 C114 1.248 1_455 S
O126 Pr96 2.438 1_545 S
O126 C115 1.267 . S
O127 Pr97 2.454 . S
O127 C115 1.258 1_455 S
H128 C100 0.929 . S
H129 C101 0.929 . S
H130 C103 0.931 . S
H131 C104 0.930 . S
H132 C109 0.929 . S
H133 C110 0.929 . S
H134 C112 0.931 . S
H135 C113 0.930 . S
Pr136 C138 2.880 . S
Pr136 O156 2.562 . S
Pr136 O157 2.490 . S
Pr136 O158 2.695 1_554 S
Pr136 O159 2.512 1_554 S
Pr136 O161 2.437 . S
Pr136 O164 2.436 1_545 S
Pr136 O166 2.438 1_544 S
Pr137 C147 2.886 . S
Pr137 O158 2.439 1_565 S
Pr137 O160 2.433 1_566 S
Pr137 O162 2.570 . S
Pr137 O163 2.493 . S
Pr137 O164 2.690 1_556 S
Pr137 O165 2.506 1_556 S
Pr137 O167 2.439 . S
C138 Pr136 2.880 . S
C138 C139 1.491 . S
C138 O156 1.254 . S
C138 O157 1.225 . S
C139 C138 1.491 . S
C139 C140 1.392 . S
C139 C144 1.356 . S
C140 C139 1.392 . S
C140 C141 1.368 . S
C140 H168 0.929 . S
C141 C140 1.368 . S
C141 C142 1.386 . S
C141 H169 0.929 . S
C142 C141 1.386 . S
C142 C143 1.373 . S
C143 C142 1.373 . S
C143 C144 1.409 . S
C143 H170 0.931 . S
C144 C139 1.356 . S
C144 C143 1.409 . S
C144 H171 0.930 . S
C145 O158 1.270 . S
C145 O159 1.248 . S
C146 O160 1.267 . S
C146 O161 1.278 . S
C147 Pr137 2.886 . S
C147 C148 1.491 . S
C147 O162 1.254 . S
C147 O163 1.225 . S
C148 C147 1.491 . S
C148 C149 1.392 . S
C148 C153 1.356 . S
C149 C148 1.392 . S
C149 C150 1.368 . S
C149 H172 0.929 . S
C150 C149 1.368 . S
C150 C151 1.386 . S
C150 H173 0.929 . S
C151 C150 1.386 . S
C151 C152 1.373 . S
C152 C151 1.373 . S
C152 C153 1.409 . S
C152 H174 0.931 . S
C153 C148 1.356 . S
C153 C152 1.409 . S
C153 H175 0.930 . S
C154 O164 1.270 . S
C154 O165 1.248 . S
C155 O166 1.267 . S
C155 O167 1.278 . S
O156 Pr136 2.562 . S
O156 C138 1.254 . S
O157 Pr136 2.490 . S
O157 C138 1.225 . S
O158 Pr136 2.695 1_556 S
O158 Pr137 2.439 1_545 S
O158 C145 1.270 . S
O159 Pr136 2.512 1_556 S
O159 C145 1.248 . S
O160 Pr137 2.433 1_544 S
O160 C146 1.267 . S
O161 Pr136 2.437 . S
O161 C146 1.278 . S
O162 Pr137 2.570 . S
O162 C147 1.254 . S
O163 Pr137 2.493 . S
O163 C147 1.225 . S
O164 Pr136 2.436 1_565 S
O164 Pr137 2.690 1_554 S
O164 C154 1.270 . S
O165 Pr137 2.506 1_554 S
O165 C154 1.248 . S
O166 Pr136 2.438 1_566 S
O166 C155 1.267 . S
O167 Pr137 2.439 . S
O167 C155 1.278 . S
H168 C140 0.929 . S
H169 C141 0.929 . S
H170 C143 0.931 . S
H171 C144 0.930 . S
H172 C149 0.929 . S
H173 C150 0.929 . S
H174 C152 0.931 . S
H175 C153 0.930 . S
Pr176 C178 2.880 . S
Pr176 O196 2.562 . S
Pr176 O197 2.490 . S
Pr176 O198 2.695 . S
Pr176 O199 2.512 . S
Pr176 O201 2.437 . S
Pr176 O204 2.436 . S
Pr176 O206 2.438 . S
Pr177 C187 2.880 . S
Pr177 O198 2.436 . S
Pr177 O200 2.438 . S
Pr177 O202 2.562 . S
Pr177 O203 2.490 . S
Pr177 O204 2.695 . S
Pr177 O205 2.512 . S
Pr177 O207 2.437 . S
C178 Pr176 2.880 . S
C178 C179 1.491 . S
C178 O196 1.254 . S
C178 O197 1.225 . S
C179 C178 1.491 . S
C179 C180 1.392 . S
C179 C184 1.356 . S
C180 C179 1.392 . S
C180 C181 1.368 . S
C180 H208 0.929 . S
C181 C180 1.368 . S
C181 C182 1.386 . S
C181 H209 0.929 . S
C182 C181 1.386 . S
C182 C183 1.373 . S
C183 C182 1.373 . S
C183 C184 1.409 . S
C183 H210 0.931 . S
C184 C179 1.356 . S
C184 C183 1.409 . S
C184 H211 0.930 . S
C185 O198 1.270 . S
C185 O199 1.248 . S
C186 O200 1.267 . S
C186 O201 1.278 . S
C187 Pr177 2.880 . S
C187 C188 1.491 . S
C187 O202 1.254 . S
C187 O203 1.225 . S
C188 C187 1.491 . S
C188 C189 1.392 . S
C188 C193 1.356 . S
C189 C188 1.392 . S
C189 C190 1.368 . S
C189 H212 0.929 . S
C190 C189 1.368 . S
C190 C191 1.386 . S
C190 H213 0.929 . S
C191 C190 1.386 . S
C191 C192 1.373 . S
C192 C191 1.373 . S
C192 C193 1.409 . S
C192 H214 0.931 . S
C193 C188 1.356 . S
C193 C192 1.409 . S
C193 H215 0.930 . S
C194 O204 1.270 . S
C194 O205 1.248 . S
C195 O206 1.267 . S
C195 O207 1.278 . S
O196 Pr176 2.562 . S
O196 C178 1.254 . S
O197 Pr176 2.490 . S
O197 C178 1.225 . S
O198 Pr176 2.695 . S
O198 Pr177 2.436 . S
O198 C185 1.270 . S
O199 Pr176 2.512 . S
O199 C185 1.248 . S
O200 Pr177 2.438 . S
O200 C186 1.267 . S
O201 Pr176 2.437 . S
O201 C186 1.278 . S
O202 Pr177 2.562 . S
O202 C187 1.254 . S
O203 Pr177 2.490 . S
O203 C187 1.225 . S
O204 Pr176 2.436 . S
O204 Pr177 2.695 . S
O204 C194 1.270 . S
O205 Pr177 2.512 . S
O205 C194 1.248 . S
O206 Pr176 2.438 . S
O206 C195 1.267 . S
O207 Pr177 2.437 . S
O207 C195 1.278 . S
H208 C180 0.929 . S
H209 C181 0.929 . S
H210 C183 0.931 . S
H211 C184 0.930 . S
H212 C189 0.929 . S
H213 C190 0.929 . S
H214 C192 0.931 . S
H215 C193 0.930 . S
Pr216 C218 2.880 1_455 S
Pr216 O236 2.562 1_455 S
Pr216 O237 2.490 . S
Pr216 O238 2.695 1_556 S
Pr216 O239 2.512 1_556 S
Pr216 O241 2.423 1_456 S
Pr216 O244 2.436 1_455 S
Pr216 O246 2.438 . S
Pr217 C227 2.880 . S
Pr217 O238 2.436 . S
Pr217 O240 2.438 1_455 S
Pr217 O242 2.562 . S
Pr217 O243 2.490 . S
Pr217 O244 2.695 1_454 S
Pr217 O245 2.512 1_454 S
Pr217 O247 2.437 1_554 S
C218 Pr216 2.880 1_655 S
C218 C219 1.491 . S
C218 O236 1.254 . S
C218 O237 1.225 1_655 S
C219 C218 1.491 . S
C219 C220 1.392 . S
C219 C224 1.356 . S
C220 C219 1.392 . S
C220 C221 1.368 . S
C220 H248 0.929 1_655 S
C221 C220 1.368 . S
C221 C222 1.386 . S
C221 H249 0.929 . S
C222 C221 1.386 . S
C222 C223 1.373 . S
C223 C222 1.373 . S
C223 C224 1.409 . S
C223 H250 0.931 . S
C224 C219 1.356 . S
C224 C223 1.409 . S
C224 H251 0.930 . S
C225 O238 1.270 . S
C225 O239 1.248 . S
C226 O240 1.267 . S
C226 O241 1.286 . S
C227 Pr217 2.880 . S
C227 C228 1.491 . S
C227 O242 1.254 . S
C227 O243 1.225 . S
C228 C227 1.491 . S
C228 C229 1.392 . S
C228 C233 1.356 . S
C229 C228 1.392 . S
C229 C230 1.368 . S
C229 H252 0.929 . S
C230 C229 1.368 . S
C230 C231 1.386 . S
C230 H253 0.929 . S
C231 C230 1.386 . S
C231 C232 1.373 . S
C232 C231 1.373 . S
C232 C233 1.409 . S
C232 H254 0.931 . S
C233 C228 1.356 . S
C233 C232 1.409 . S
C233 H255 0.930 . S
C234 O244 1.270 . S
C234 O245 1.248 . S
C235 O246 1.267 . S
C235 O247 1.278 . S
O236 Pr216 2.562 1_655 S
O236 C218 1.254 . S
O237 Pr216 2.490 . S
O237 C218 1.225 1_455 S
O238 Pr216 2.695 1_554 S
O238 Pr217 2.436 . S
O238 C225 1.270 . S
O239 Pr216 2.512 1_554 S
O239 C225 1.248 . S
O240 Pr217 2.438 1_655 S
O240 C226 1.267 . S
O241 Pr216 2.423 1_654 S
O241 C226 1.286 . S
O242 Pr217 2.562 . S
O242 C227 1.254 . S
O243 Pr217 2.490 . S
O243 C227 1.225 . S
O244 Pr216 2.436 1_655 S
O244 Pr217 2.695 1_656 S
O244 C234 1.270 . S
O245 Pr217 2.512 1_656 S
O245 C234 1.248 . S
O246 Pr216 2.438 . S
O246 C235 1.267 . S
O247 Pr217 2.437 1_556 S
O247 C235 1.278 . S
H248 C220 0.929 1_455 S
H249 C221 0.929 . S
H250 C223 0.931 . S
H251 C224 0.930 . S
H252 C229 0.929 . S
H253 C230 0.929 . S
H254 C232 0.931 . S
H255 C233 0.930 . S
C256 C257 1.369 . S
C256 C258 1.419 . S
C256 H260 0.930 . S
C257 C256 1.369 . S
C257 C266 1.429 . S
C258 C256 1.419 . S
C258 C259 1.363 . S
C258 H261 0.929 . S
C259 C258 1.363 . S
C259 C265 1.428 . S
H260 C256 0.930 . S
H261 C258 0.929 . S
S262 N263 1.613 . S
S262 N264 1.610 . S
N263 S262 1.613 . S
N263 C266 1.350 . S
N264 S262 1.610 . S
N264 C265 1.351 . S
C265 C259 1.428 . S
C265 N264 1.351 . S
C265 C266 1.434 . S
C266 C257 1.429 . S
C266 N263 1.350 . S
C266 C265 1.434 . S
C267 C268 1.369 . S
C267 C269 1.419 . S
C267 H271 0.930 . S
C268 C267 1.369 . S
C268 C277 1.429 . S
C269 C267 1.419 . S
C269 C270 1.363 . S
C269 H272 0.929 . S
C270 C269 1.363 . S
C270 C276 1.428 . S
H271 C267 0.930 . S
H272 C269 0.929 . S
S273 N274 1.613 . S
S273 N275 1.610 . S
N274 S273 1.613 . S
N274 C277 1.350 . S
N275 S273 1.610 . S
N275 C276 1.351 . S
C276 C270 1.428 . S
C276 N275 1.351 . S
C276 C277 1.434 . S
C277 C268 1.429 . S
C277 N274 1.350 . S
C277 C276 1.434 . S
C278 C279 1.369 . S
C278 C280 1.419 . S
C278 H282 0.930 . S
C279 C278 1.369 . S
C279 C288 1.429 . S
C280 C278 1.419 . S
C280 C281 1.363 . S
C280 H283 0.929 . S
C281 C280 1.363 . S
C281 C287 1.428 . S
H282 C278 0.930 . S
H283 C280 0.929 . S
S284 N285 1.613 . S
S284 N286 1.610 . S
N285 S284 1.613 . S
N285 C288 1.350 . S
N286 S284 1.610 . S
N286 C287 1.351 . S
C287 C281 1.428 . S
C287 N286 1.351 . S
C287 C288 1.434 . S
C288 C279 1.429 . S
C288 N285 1.350 . S
C288 C287 1.434 . S
C289 C290 1.369 . S
C289 C291 1.419 . S
C289 H293 0.930 . S
C290 C289 1.369 . S
C290 C299 1.429 . S
C291 C289 1.419 . S
C291 C292 1.363 . S
C291 H294 0.929 . S
C292 C291 1.363 . S
C292 C298 1.428 . S
H293 C289 0.930 . S
H294 C291 0.929 . S
S295 N296 1.613 . S
S295 N297 1.610 . S
N296 S295 1.613 . S
N296 C299 1.350 . S
N297 S295 1.610 . S
N297 C298 1.351 . S
C298 C292 1.428 . S
C298 N297 1.351 . S
C298 C299 1.434 . S
C299 C290 1.429 . S
C299 N296 1.350 . S
C299 C298 1.434 . S
C300 C301 1.369 . S
C300 C302 1.419 . S
C300 H304 0.930 . S
C301 C300 1.369 . S
C301 C310 1.429 . S
C302 C300 1.419 . S
C302 C303 1.363 . S
C302 H305 0.929 . S
C303 C302 1.363 . S
C303 C309 1.428 . S
H304 C300 0.930 . S
H305 C302 0.929 . S
S306 N307 1.613 . S
S306 N308 1.610 . S
N307 S306 1.613 . S
N307 C310 1.350 . S
N308 S306 1.610 . S
N308 C309 1.351 . S
C309 C303 1.428 . S
C309 N308 1.351 . S
C309 C310 1.434 . S
C310 C301 1.429 . S
C310 N307 1.350 . S
C310 C309 1.434 . S
C311 C312 1.369 . S
C311 C313 1.419 . S
C311 H315 0.930 1_455 S
C312 C311 1.369 . S
C312 C321 1.429 . S
C313 C311 1.419 . S
C313 C314 1.363 . S
C313 H316 0.929 1_455 S
C314 C313 1.363 . S
C314 C320 1.428 . S
H315 C311 0.930 1_655 S
H316 C313 0.929 1_655 S
S317 N318 1.613 . S
S317 N319 1.610 . S
N318 S317 1.613 . S
N318 C321 1.350 . S
N319 S317 1.610 . S
N319 C320 1.351 . S
C320 C314 1.428 . S
C320 N319 1.351 . S
C320 C321 1.434 . S
C321 C312 1.429 . S
C321 N318 1.350 . S
C321 C320 1.434 . S
C322 C323 1.369 . S
C322 C324 1.419 . S
C322 H326 0.930 . S
C323 C322 1.369 . S
C323 C332 1.429 . S
C324 C322 1.419 . S
C324 C325 1.363 . S
C324 H327 0.929 . S
C325 C324 1.363 . S
C325 C331 1.428 . S
H326 C322 0.930 . S
H327 C324 0.929 . S
S328 N329 1.613 . S
S328 N330 1.610 . S
N329 S328 1.613 . S
N329 C332 1.350 . S
N330 S328 1.610 . S
N330 C331 1.351 . S
C331 C325 1.428 . S
C331 N330 1.351 . S
C331 C332 1.434 . S
C332 C323 1.429 . S
C332 N329 1.350 . S
C332 C331 1.434 . S
C333 C334 1.369 . S
C333 C335 1.419 . S
C333 H337 0.930 . S
C334 C333 1.369 . S
C334 C343 1.429 . S
C335 C333 1.419 . S
C335 C336 1.363 . S
C335 H338 0.929 . S
C336 C335 1.363 . S
C336 C342 1.428 . S
H337 C333 0.930 . S
H338 C335 0.929 . S
S339 N340 1.613 . S
S339 N341 1.610 . S
N340 S339 1.613 . S
N340 C343 1.350 . S
N341 S339 1.610 . S
N341 C342 1.351 . S
C342 C336 1.428 . S
C342 N341 1.351 . S
C342 C343 1.434 . S
C343 C334 1.429 . S
C343 N340 1.350 . S
C343 C342 1.434 . S
C344 C345 1.369 . S
C344 C346 1.419 . S
C344 H348 0.930 . S
C345 C344 1.369 . S
C345 C354 1.429 . S
C346 C344 1.419 . S
C346 C347 1.363 . S
C346 H349 0.929 . S
C347 C346 1.363 . S
C347 C353 1.428 . S
H348 C344 0.930 . S
H349 C346 0.929 . S
S350 N351 1.613 . S
S350 N352 1.610 . S
N351 S350 1.613 . S
N351 C354 1.350 . S
N352 S350 1.610 . S
N352 C353 1.351 . S
C353 C347 1.428 . S
C353 N352 1.351 . S
C353 C354 1.434 . S
C354 C345 1.429 . S
C354 N351 1.350 . S
C354 C353 1.434 . S
C355 C356 1.369 . S
C355 C357 1.419 . S
C355 H359 0.930 . S
C356 C355 1.369 . S
C356 C365 1.429 . S
C357 C355 1.419 . S
C357 C358 1.363 . S
C357 H360 0.929 . S
C358 C357 1.363 . S
C358 C364 1.428 . S
H359 C355 0.930 . S
H360 C357 0.929 . S
S361 N362 1.613 . S
S361 N363 1.610 . S
N362 S361 1.613 . S
N362 C365 1.350 . S
N363 S361 1.610 . S
N363 C364 1.351 . S
C364 C358 1.428 . S
C364 N363 1.351 . S
C364 C365 1.434 . S
C365 C356 1.429 . S
C365 N362 1.350 . S
C365 C364 1.434 . S
C366 C367 1.369 . S
C366 C368 1.419 . S
C366 H370 0.930 . S
C367 C366 1.369 . S
C367 C376 1.429 . S
C368 C366 1.419 . S
C368 C369 1.363 . S
C368 H371 0.929 . S
C369 C368 1.363 . S
C369 C375 1.428 . S
H370 C366 0.930 . S
H371 C368 0.929 . S
S372 N373 1.613 . S
S372 N374 1.610 . S
N373 S372 1.613 . S
N373 C376 1.350 . S
N374 S372 1.610 . S
N374 C375 1.351 . S
C375 C369 1.428 . S
C375 N374 1.351 . S
C375 C376 1.434 . S
C376 C367 1.429 . S
C376 N373 1.350 . S
C376 C375 1.434 . S
C377 C378 1.369 . S
C377 C379 1.419 . S
C377 H381 0.930 . S
C378 C377 1.369 . S
C378 C387 1.429 . S
C379 C377 1.419 . S
C379 C380 1.363 . S
C379 H382 0.929 . S
C380 C379 1.363 . S
C380 C386 1.428 . S
H381 C377 0.930 . S
H382 C379 0.929 . S
S383 N384 1.613 . S
S383 N385 1.610 . S
N384 S383 1.613 . S
N384 C387 1.350 . S
N385 S383 1.610 . S
N385 C386 1.351 . S
C386 C380 1.428 . S
C386 N385 1.351 . S
C386 C387 1.434 . S
C387 C378 1.429 . S
C387 N384 1.350 . S
C387 C386 1.434 . S
C388 C389 1.369 . S
C388 C390 1.419 . S
C388 H392 0.930 . S
C389 C388 1.369 . S
C389 C398 1.429 . S
C390 C388 1.419 . S
C390 C391 1.363 . S
C390 H393 0.929 . S
C391 C390 1.363 . S
C391 C397 1.428 . S
H392 C388 0.930 . S
H393 C390 0.929 . S
S394 N395 1.613 . S
S394 N396 1.610 . S
N395 S394 1.613 . S
N395 C398 1.350 . S
N396 S394 1.610 . S
N396 C397 1.351 . S
C397 C391 1.428 . S
C397 N396 1.351 . S
C397 C398 1.434 . S
C398 C389 1.429 . S
C398 N395 1.350 . S
C398 C397 1.434 . S
C399 C400 1.369 . S
C399 C401 1.419 . S
C399 H403 0.930 . S
C400 C399 1.369 . S
C400 C409 1.429 . S
C401 C399 1.419 . S
C401 C402 1.363 . S
C401 H404 0.929 . S
C402 C401 1.363 . S
C402 C408 1.428 . S
H403 C399 0.930 . S
H404 C401 0.929 . S
S405 N406 1.613 . S
S405 N407 1.610 . S
N406 S405 1.613 . S
N406 C409 1.350 . S
N407 S405 1.610 . S
N407 C408 1.351 . S
C408 C402 1.428 . S
C408 N407 1.351 . S
C408 C409 1.434 . S
C409 C400 1.429 . S
C409 N406 1.350 . S
C409 C408 1.434 . S
C410 C411 1.369 . S
C410 C412 1.419 . S
C410 H414 0.930 . S
C411 C410 1.369 . S
C411 C420 1.429 . S
C412 C410 1.419 . S
C412 C413 1.363 . S
C412 H415 0.929 . S
C413 C412 1.363 . S
C413 C419 1.428 . S
H414 C410 0.930 . S
H415 C412 0.929 . S
S416 N417 1.613 . S
S416 N418 1.610 . S
N417 S416 1.613 . S
N417 C420 1.350 . S
N418 S416 1.610 . S
N418 C419 1.351 . S
C419 C413 1.428 . S
C419 N418 1.351 . S
C419 C420 1.434 . S
C420 C411 1.429 . S
C420 N417 1.350 . S
C420 C419 1.434 . S
C421 C422 1.369 . S
C421 C423 1.419 . S
C421 H425 0.930 . S
C422 C421 1.369 . S
C422 C431 1.429 . S
C423 C421 1.419 . S
C423 C424 1.363 . S
C423 H426 0.929 . S
C424 C423 1.363 . S
C424 C430 1.428 . S
H425 C421 0.930 . S
H426 C423 0.929 . S
S427 N428 1.613 . S
S427 N429 1.610 . S
N428 S427 1.613 . S
N428 C431 1.350 . S
N429 S427 1.610 . S
N429 C430 1.351 . S
C430 C424 1.428 . S
C430 N429 1.351 . S
C430 C431 1.434 . S
C431 C422 1.429 . S
C431 N428 1.350 . S
C431 C430 1.434 . S
C432 C433 1.369 . S
C432 C434 1.419 . S
C432 H436 0.930 . S
C433 C432 1.369 . S
C433 C442 1.429 . S
C434 C432 1.419 . S
C434 C435 1.363 . S
C434 H437 0.929 . S
C435 C434 1.363 . S
C435 C441 1.428 . S
H436 C432 0.930 . S
H437 C434 0.929 . S
S438 N439 1.613 . S
S438 N440 1.610 . S
N439 S438 1.613 . S
N439 C442 1.350 . S
N440 S438 1.610 . S
N440 C441 1.351 . S
C441 C435 1.428 . S
C441 N440 1.351 . S
C441 C442 1.434 . S
C442 C433 1.429 . S
C442 N439 1.350 . S
C442 C441 1.434 . S
C443 C444 1.369 . S
C443 C445 1.419 . S
C443 H447 0.930 1_655 S
C444 C443 1.369 . S
C444 C453 1.429 . S
C445 C443 1.419 . S
C445 C446 1.363 . S
C445 H448 0.929 1_655 S
C446 C445 1.363 . S
C446 C452 1.428 . S
H447 C443 0.930 1_455 S
H448 C445 0.929 1_455 S
S449 N450 1.613 . S
S449 N451 1.610 . S
N450 S449 1.613 . S
N450 C453 1.350 . S
N451 S449 1.610 . S
N451 C452 1.351 . S
C452 C446 1.428 . S
C452 N451 1.351 . S
C452 C453 1.434 . S
C453 C444 1.429 . S
C453 N450 1.350 . S
C453 C452 1.434 . S
C454 C455 1.369 . S
C454 C456 1.419 . S
C454 H458 0.930 . S
C455 C454 1.369 . S
C455 C464 1.429 . S
C456 C454 1.419 . S
C456 C457 1.363 . S
C456 H459 0.929 . S
C457 C456 1.363 . S
C457 C463 1.428 . S
H458 C454 0.930 . S
H459 C456 0.929 . S
S460 N461 1.613 . S
S460 N462 1.610 . S
N461 S460 1.613 . S
N461 C464 1.350 . S
N462 S460 1.610 . S
N462 C463 1.351 . S
C463 C457 1.428 . S
C463 N462 1.351 . S
C463 C464 1.434 . S
C464 C455 1.429 . S
C464 N461 1.350 . S
C464 C463 1.434 . S
C465 C466 1.369 . S
C465 C467 1.419 . S
C465 H469 0.930 . S
C466 C465 1.369 . S
C466 C475 1.429 . S
C467 C465 1.419 . S
C467 C468 1.363 . S
C467 H470 0.929 . S
C468 C467 1.363 . S
C468 C474 1.428 . S
H469 C465 0.930 . S
H470 C467 0.929 . S
S471 N472 1.613 . S
S471 N473 1.610 . S
N472 S471 1.613 . S
N472 C475 1.350 . S
N473 S471 1.610 . S
N473 C474 1.351 . S
C474 C468 1.428 . S
C474 N473 1.351 . S
C474 C475 1.434 . S
C475 C466 1.429 . S
C475 N472 1.350 . S
C475 C474 1.434 . S
C476 C477 1.369 . S
C476 C478 1.419 . S
C476 H480 0.930 . S
C477 C476 1.369 . S
C477 C486 1.429 . S
C478 C476 1.419 . S
C478 C479 1.363 . S
C478 H481 0.929 . S
C479 C478 1.363 . S
C479 C485 1.428 . S
H480 C476 0.930 . S
H481 C478 0.929 . S
S482 N483 1.613 . S
S482 N484 1.610 . S
N483 S482 1.613 . S
N483 C486 1.350 . S
N484 S482 1.610 . S
N484 C485 1.351 . S
C485 C479 1.428 . S
C485 N484 1.351 . S
C485 C486 1.434 . S
C486 C477 1.429 . S
C486 N483 1.350 . S
C486 C485 1.434 . S
C487 C488 1.369 . S
C487 C489 1.419 . S
C487 H491 0.930 . S
C488 C487 1.369 . S
C488 C497 1.429 . S
C489 C487 1.419 . S
C489 C490 1.363 . S
C489 H492 0.929 . S
C490 C489 1.363 . S
C490 C496 1.428 . S
H491 C487 0.930 . S
H492 C489 0.929 . S
S493 N494 1.613 . S
S493 N495 1.610 . S
N494 S493 1.613 . S
N494 C497 1.350 . S
N495 S493 1.610 . S
N495 C496 1.351 . S
C496 C490 1.428 . S
C496 N495 1.351 . S
C496 C497 1.434 . S
C497 C488 1.429 . S
C497 N494 1.350 . S
C497 C496 1.434 . S
C498 C499 1.369 . S
C498 C500 1.419 . S
C498 H502 0.930 . S
C499 C498 1.369 . S
C499 C508 1.429 . S
C500 C498 1.419 . S
C500 C501 1.363 . S
C500 H503 0.929 . S
C501 C500 1.363 . S
C501 C507 1.428 . S
H502 C498 0.930 . S
H503 C500 0.929 . S
S504 N505 1.613 . S
S504 N506 1.610 . S
N505 S504 1.613 . S
N505 C508 1.350 . S
N506 S504 1.610 . S
N506 C507 1.351 . S
C507 C501 1.428 . S
C507 N506 1.351 . S
C507 C508 1.434 . S
C508 C499 1.429 . S
C508 N505 1.350 . S
C508 C507 1.434 . S
C509 C510 1.369 . S
C509 C511 1.419 . S
C509 H513 0.930 . S
C510 C509 1.369 . S
C510 C519 1.429 . S
C511 C509 1.419 . S
C511 C512 1.363 . S
C511 H514 0.929 . S
C512 C511 1.363 . S
C512 C518 1.428 . S
H513 C509 0.930 . S
H514 C511 0.929 . S
S515 N516 1.613 . S
S515 N517 1.610 . S
N516 S515 1.613 . S
N516 C519 1.350 . S
N517 S515 1.610 . S
N517 C518 1.351 . S
C518 C512 1.428 . S
C518 N517 1.351 . S
C518 C519 1.434 . S
C519 C510 1.429 . S
C519 N516 1.350 . S
C519 C518 1.434 . S
C257 C6 1.136 . S
C259 C111 1.215 . S
C268 C18 1.568 . S
C270 C155 1.587 . S
C281 C185 2.438 . S
C279 C28 2.425 . S
C290 C40 2.209 . S
C292 C226 2.188 . S
C303 C142 1.201 . S
C301 C9 1.137 . S
C314 C106 2.392 . S
C312 C16 2.319 . S
C325 C234 1.142 . S
C323 C30 1.128 . S
C336 C195 1.935 . S
C334 C42 1.999 . S
C345 C4 1.699 . S
C347 C231 1.739 . S
C358 C145 2.173 . S
C356 C33 2.201 . S
C367 C45 1.784 . S
C369 C114 1.770 . S
C378 C21 2.265 . S
C380 C182 2.272 . S
C391 C102 1.182 . S
C389 C57 1.117 . S
C400 C66 1.520 . S
C402 C146 1.574 . S
C411 C76 2.477 . S
C413 C194 2.499 . S
C422 C88 2.130 . S
C424 C235 2.099 . S
C433 C54 1.170 . S
C435 C151 1.214 . S
C446 C115 2.467 . S
C444 C64 2.423 . S
C457 C225 1.065 . S
C455 C78 1.049 . S
C468 C186 1.994 . S
C466 C93 2.037 . S
C477 C52 1.848 . S
C479 C222 1.888 . S
C490 C154 2.152 . S
C488 C81 2.174 . S
C501 C105 1.748 . S
C499 C90 1.754 . S
C510 C69 2.233 . S
C512 C191 2.257 . S
