# Generated by pormake.
# Topology ptr, (4,4)-cn, num edge types: 1
# Building blocks:
#     Node 0, Type 0, BuildingBlock: TATPOV_clean_sbu_0, # of connection points: 4
#     Node 1, Type 0, BuildingBlock: TATPOV_clean_sbu_0, # of connection points: 4
#     Node 2, Type 0, BuildingBlock: TATPOV_clean_sbu_0, # of connection points: 4
#     Node 3, Type 0, BuildingBlock: TATPOV_clean_sbu_0, # of connection points: 4
#     Node 4, Type 0, BuildingBlock: TATPOV_clean_sbu_0, # of connection points: 4
#     Node 5, Type 0, BuildingBlock: TATPOV_clean_sbu_0, # of connection points: 4
#     Node 6, Type 0, BuildingBlock: TATPOV_clean_sbu_0, # of connection points: 4
#     Node 7, Type 0, BuildingBlock: TATPOV_clean_sbu_0, # of connection points: 4
#     Node 8, Type 0, BuildingBlock: TATPOV_clean_sbu_0, # of connection points: 4
#     Node 9, Type 0, BuildingBlock: TATPOV_clean_sbu_0, # of connection points: 4
#     Node 10, Type 0, BuildingBlock: TATPOV_clean_sbu_0, # of connection points: 4
#     Node 11, Type 0, BuildingBlock: TATPOV_clean_sbu_0, # of connection points: 4
#     Node 12, Type 0, BuildingBlock: TATPOV_clean_sbu_0, # of connection points: 4
#     Node 13, Type 0, BuildingBlock: TATPOV_clean_sbu_0, # of connection points: 4
#     Node 14, Type 0, BuildingBlock: TATPOV_clean_sbu_0, # of connection points: 4
#     Node 15, Type 0, BuildingBlock: TATPOV_clean_sbu_0, # of connection points: 4
#     Node 16, Type 0, BuildingBlock: TATPOV_clean_sbu_0, # of connection points: 4
#     Node 17, Type 0, BuildingBlock: TATPOV_clean_sbu_0, # of connection points: 4
#     Node 18, Type 1, BuildingBlock: MIFKUJ_clean_linker_1, # of connection points: 4
#     Node 19, Type 1, BuildingBlock: MIFKUJ_clean_linker_1, # of connection points: 4
#     Node 20, Type 1, BuildingBlock: MIFKUJ_clean_linker_1, # of connection points: 4
#     Node 21, Type 1, BuildingBlock: MIFKUJ_clean_linker_1, # of connection points: 4
#     Node 22, Type 1, BuildingBlock: MIFKUJ_clean_linker_1, # of connection points: 4
#     Node 23, Type 1, BuildingBlock: MIFKUJ_clean_linker_1, # of connection points: 4
#     Node 24, Type 1, BuildingBlock: MIFKUJ_clean_linker_1, # of connection points: 4
#     Node 25, Type 1, BuildingBlock: MIFKUJ_clean_linker_1, # of connection points: 4
#     Node 26, Type 1, BuildingBlock: MIFKUJ_clean_linker_1, # of connection points: 4
#     Node 27, Type 1, BuildingBlock: MIFKUJ_clean_linker_1, # of connection points: 4
#     Node 28, Type 1, BuildingBlock: MIFKUJ_clean_linker_1, # of connection points: 4
#     Node 29, Type 1, BuildingBlock: MIFKUJ_clean_linker_1, # of connection points: 4
#     Node 30, Type 1, BuildingBlock: MIFKUJ_clean_linker_1, # of connection points: 4
#     Node 31, Type 1, BuildingBlock: MIFKUJ_clean_linker_1, # of connection points: 4
#     Node 32, Type 1, BuildingBlock: MIFKUJ_clean_linker_1, # of connection points: 4
#     Node 33, Type 1, BuildingBlock: MIFKUJ_clean_linker_1, # of connection points: 4
#     Node 34, Type 1, BuildingBlock: MIFKUJ_clean_linker_1, # of connection points: 4
#     Node 35, Type 1, BuildingBlock: MIFKUJ_clean_linker_1, # of connection points: 4
#     Edge 36, Type (0, 1), BuildingBlock: XUDNAN_clean_linker_2, # of connection points: 2
#     Edge 37, Type (0, 1), BuildingBlock: XUDNAN_clean_linker_2, # of connection points: 2
#     Edge 38, Type (0, 1), BuildingBlock: XUDNAN_clean_linker_2, # of connection points: 2
#     Edge 39, Type (0, 1), BuildingBlock: XUDNAN_clean_linker_2, # of connection points: 2
#     Edge 40, Type (0, 1), BuildingBlock: XUDNAN_clean_linker_2, # of connection points: 2
#     Edge 41, Type (0, 1), BuildingBlock: XUDNAN_clean_linker_2, # of connection points: 2
#     Edge 42, Type (0, 1), BuildingBlock: XUDNAN_clean_linker_2, # of connection points: 2
#     Edge 43, Type (0, 1), BuildingBlock: XUDNAN_clean_linker_2, # of connection points: 2
#     Edge 44, Type (0, 1), BuildingBlock: XUDNAN_clean_linker_2, # of connection points: 2
#     Edge 45, Type (0, 1), BuildingBlock: XUDNAN_clean_linker_2, # of connection points: 2
#     Edge 46, Type (0, 1), BuildingBlock: XUDNAN_clean_linker_2, # of connection points: 2
#     Edge 47, Type (0, 1), BuildingBlock: XUDNAN_clean_linker_2, # of connection points: 2
#     Edge 48, Type (0, 1), BuildingBlock: XUDNAN_clean_linker_2, # of connection points: 2
#     Edge 49, Type (0, 1), BuildingBlock: XUDNAN_clean_linker_2, # of connection points: 2
#     Edge 50, Type (0, 1), BuildingBlock: XUDNAN_clean_linker_2, # of connection points: 2
#     Edge 51, Type (0, 1), BuildingBlock: XUDNAN_clean_linker_2, # of connection points: 2
#     Edge 52, Type (0, 1), BuildingBlock: XUDNAN_clean_linker_2, # of connection points: 2
#     Edge 53, Type (0, 1), BuildingBlock: XUDNAN_clean_linker_2, # of connection points: 2
#     Edge 54, Type (0, 1), BuildingBlock: XUDNAN_clean_linker_2, # of connection points: 2
#     Edge 55, Type (0, 1), BuildingBlock: XUDNAN_clean_linker_2, # of connection points: 2
#     Edge 56, Type (0, 1), BuildingBlock: XUDNAN_clean_linker_2, # of connection points: 2
#     Edge 57, Type (0, 1), BuildingBlock: XUDNAN_clean_linker_2, # of connection points: 2
#     Edge 58, Type (0, 1), BuildingBlock: XUDNAN_clean_linker_2, # of connection points: 2
#     Edge 59, Type (0, 1), BuildingBlock: XUDNAN_clean_linker_2, # of connection points: 2
#     Edge 60, Type (0, 1), BuildingBlock: XUDNAN_clean_linker_2, # of connection points: 2
#     Edge 61, Type (0, 1), BuildingBlock: XUDNAN_clean_linker_2, # of connection points: 2
#     Edge 62, Type (0, 1), BuildingBlock: XUDNAN_clean_linker_2, # of connection points: 2
#     Edge 63, Type (0, 1), BuildingBlock: XUDNAN_clean_linker_2, # of connection points: 2
#     Edge 64, Type (0, 1), BuildingBlock: XUDNAN_clean_linker_2, # of connection points: 2
#     Edge 65, Type (0, 1), BuildingBlock: XUDNAN_clean_linker_2, # of connection points: 2
#     Edge 66, Type (0, 1), BuildingBlock: XUDNAN_clean_linker_2, # of connection points: 2
#     Edge 67, Type (0, 1), BuildingBlock: XUDNAN_clean_linker_2, # of connection points: 2
#     Edge 68, Type (0, 1), BuildingBlock: XUDNAN_clean_linker_2, # of connection points: 2
#     Edge 69, Type (0, 1), BuildingBlock: XUDNAN_clean_linker_2, # of connection points: 2
#     Edge 70, Type (0, 1), BuildingBlock: XUDNAN_clean_linker_2, # of connection points: 2
#     Edge 71, Type (0, 1), BuildingBlock: XUDNAN_clean_linker_2, # of connection points: 2
#     Edge 72, Type (0, 1), BuildingBlock: XUDNAN_clean_linker_2, # of connection points: 2
#     Edge 73, Type (0, 1), BuildingBlock: XUDNAN_clean_linker_2, # of connection points: 2
#     Edge 74, Type (0, 1), BuildingBlock: XUDNAN_clean_linker_2, # of connection points: 2
#     Edge 75, Type (0, 1), BuildingBlock: XUDNAN_clean_linker_2, # of connection points: 2
#     Edge 76, Type (0, 1), BuildingBlock: XUDNAN_clean_linker_2, # of connection points: 2
#     Edge 77, Type (0, 1), BuildingBlock: XUDNAN_clean_linker_2, # of connection points: 2
#     Edge 78, Type (0, 1), BuildingBlock: XUDNAN_clean_linker_2, # of connection points: 2
#     Edge 79, Type (0, 1), BuildingBlock: XUDNAN_clean_linker_2, # of connection points: 2
#     Edge 80, Type (0, 1), BuildingBlock: XUDNAN_clean_linker_2, # of connection points: 2
#     Edge 81, Type (0, 1), BuildingBlock: XUDNAN_clean_linker_2, # of connection points: 2
#     Edge 82, Type (0, 1), BuildingBlock: XUDNAN_clean_linker_2, # of connection points: 2
#     Edge 83, Type (0, 1), BuildingBlock: XUDNAN_clean_linker_2, # of connection points: 2
#     Edge 84, Type (0, 1), BuildingBlock: XUDNAN_clean_linker_2, # of connection points: 2
#     Edge 85, Type (0, 1), BuildingBlock: XUDNAN_clean_linker_2, # of connection points: 2
#     Edge 86, Type (0, 1), BuildingBlock: XUDNAN_clean_linker_2, # of connection points: 2
#     Edge 87, Type (0, 1), BuildingBlock: XUDNAN_clean_linker_2, # of connection points: 2
#     Edge 88, Type (0, 1), BuildingBlock: XUDNAN_clean_linker_2, # of connection points: 2
#     Edge 89, Type (0, 1), BuildingBlock: XUDNAN_clean_linker_2, # of connection points: 2
#     Edge 90, Type (0, 1), BuildingBlock: XUDNAN_clean_linker_2, # of connection points: 2
#     Edge 91, Type (0, 1), BuildingBlock: XUDNAN_clean_linker_2, # of connection points: 2
#     Edge 92, Type (0, 1), BuildingBlock: XUDNAN_clean_linker_2, # of connection points: 2
#     Edge 93, Type (0, 1), BuildingBlock: XUDNAN_clean_linker_2, # of connection points: 2
#     Edge 94, Type (0, 1), BuildingBlock: XUDNAN_clean_linker_2, # of connection points: 2
#     Edge 95, Type (0, 1), BuildingBlock: XUDNAN_clean_linker_2, # of connection points: 2
#     Edge 96, Type (0, 1), BuildingBlock: XUDNAN_clean_linker_2, # of connection points: 2
#     Edge 97, Type (0, 1), BuildingBlock: XUDNAN_clean_linker_2, # of connection points: 2
#     Edge 98, Type (0, 1), BuildingBlock: XUDNAN_clean_linker_2, # of connection points: 2
#     Edge 99, Type (0, 1), BuildingBlock: XUDNAN_clean_linker_2, # of connection points: 2
#     Edge 100, Type (0, 1), BuildingBlock: XUDNAN_clean_linker_2, # of connection points: 2
#     Edge 101, Type (0, 1), BuildingBlock: XUDNAN_clean_linker_2, # of connection points: 2
#     Edge 102, Type (0, 1), BuildingBlock: XUDNAN_clean_linker_2, # of connection points: 2
#     Edge 103, Type (0, 1), BuildingBlock: XUDNAN_clean_linker_2, # of connection points: 2
#     Edge 104, Type (0, 1), BuildingBlock: XUDNAN_clean_linker_2, # of connection points: 2
#     Edge 105, Type (0, 1), BuildingBlock: XUDNAN_clean_linker_2, # of connection points: 2
#     Edge 106, Type (0, 1), BuildingBlock: XUDNAN_clean_linker_2, # of connection points: 2
#     Edge 107, Type (0, 1), BuildingBlock: XUDNAN_clean_linker_2, # of connection points: 2
# Relax obj value: 0.067
# Max RMSD: 0.225
# Mean RMSD: 0.107
data_MOF--net-ptr--node1-TATPOV_clean_sbu_0--node2-MIFKUJ_clean_linker_1--edge1-XUDNAN_clean_linker_2
_symmetry_space_group_name_H-M    P1
_symmetry_Int_Tables_number       1
_symmetry_cell_setting            triclinic
loop_
_symmetry_equiv_pos_as_xyz
'x, y, z'
_cell_length_a     89.550341
_cell_length_b     90.81329
_cell_length_c     60.591987
_cell_angle_alpha  89.730508
_cell_angle_beta   90.70122
_cell_angle_gamma 121.45122
loop_
_atom_site_label
_atom_site_type_symbol
_atom_site_fract_x
_atom_site_fract_y
_atom_site_fract_z
_atom_type_partial_charge
Zn0 Zn 0.97445 0.36152 0.01668 0.0
Zn1 Zn 0.00492 0.36157 0.0186 0.0
O2 O 0.98474 0.33648 0.01518 0.0
O3 O 0.95978 0.33555 0.01245 0.0
O4 O 0.02525 0.35798 0.02218 0.0
O5 O 0.98026 0.37259 0.04722 0.0
O6 O 0.00573 0.37433 0.0468 0.0
C7 C 0.9682 0.32788 0.01258 0.0
C8 C 0.99992 0.38114 0.98167 0.0
O9 O 0.00945 0.37622 0.99089 0.0
O10 O 0.98509 0.37672 0.98959 0.0
C11 C 0.0252 0.34635 0.01048 0.0
O12 O 0.01331 0.33882 0.99479 0.0
C13 C 0.99501 0.37747 0.05615 0.0
Zn14 Zn 0.65052 0.61695 0.99267 0.0
Zn15 Zn 0.65145 0.64348 0.0134 0.0
O16 O 0.67629 0.65409 1.00036 0.0
O17 O 0.67561 0.63198 0.98452 0.0
O18 O 0.65349 0.66339 0.0306 0.0
O19 O 0.64463 0.60356 0.02111 0.0
O20 O 0.64495 0.62524 0.03774 0.0
C21 C 0.68388 0.64782 0.98964 0.0
C22 C 0.62574 0.62556 0.97519 0.0
O23 O 0.63165 0.63679 0.99059 0.0
O24 O 0.63179 0.61582 0.97256 0.0
C25 C 0.65204 0.67554 0.02251 0.0
O26 O 0.64853 0.67536 0.00136 0.0
C27 C 0.64291 0.61027 0.0384 0.0
Zn28 Zn 0.35162 0.96393 0.02975 0.0
Zn29 Zn 0.35868 0.99543 0.01752 0.0
O30 O 0.33341 0.98344 0.02917 0.0
O31 O 0.32691 0.95704 0.03706 0.0
O32 O 0.362 0.01741 0.00443 0.0
O33 O 0.35669 0.95878 0.99944 0.0
O34 O 0.36295 0.98478 0.98992 0.0
C35 C 0.32253 0.96821 0.03585 0.0
C36 C 0.38025 0.99272 0.05463 0.0
O37 O 0.37715 0.00227 0.04227 0.0
O38 O 0.37128 0.97644 0.05239 0.0
C39 C 0.35804 0.02756 0.01335 0.0
O40 O 0.3524 0.02474 0.03375 0.0
C41 C 0.36159 0.97049 0.98502 0.0
Zn42 Zn 0.04181 0.65527 0.01208 0.0
Zn43 Zn 0.00838 0.64634 0.00335 0.0
O44 O 0.02148 0.67217 0.0115 0.0
O45 O 0.04904 0.68017 0.01701 0.0
O46 O 0.98485 0.64184 0.99294 0.0
O47 O 0.04394 0.64734 0.98177 0.0
O48 O 0.01618 0.63857 0.97606 0.0
C49 C 0.03718 0.6838 0.01632 0.0
C50 C 0.0151 0.6296 0.04227 0.0
O51 O 0.00418 0.63126 0.03048 0.0
O52 O 0.03127 0.63806 0.03762 0.0
C53 C 0.97763 0.64969 1.00036 0.0
O54 O 0.98491 0.66032 0.01713 0.0
C55 C 0.03036 0.63998 0.96961 0.0
Zn56 Zn 0.34856 0.38603 0.02987 0.0
Zn57 Zn 0.35035 0.35965 0.01421 0.0
O58 O 0.32512 0.3483 0.02639 0.0
O59 O 0.32501 0.36984 0.04276 0.0
O60 O 0.35105 0.3389 0.00346 0.0
O61 O 0.35065 0.39496 0.99883 0.0
O62 O 0.35553 0.37504 0.98654 0.0
C63 C 0.3174 0.35397 0.03802 0.0
C64 C 0.37652 0.38414 0.04977 0.0
O65 O 0.37011 0.37055 0.03792 0.0
O66 O 0.37002 0.3936 0.0487 0.0
C67 C 0.35295 0.32965 0.01771 0.0
O68 O 0.35452 0.33399 0.03865 0.0
C69 C 0.35444 0.38833 0.98317 0.0
Zn70 Zn 0.64117 0.03225 0.99802 0.0
Zn71 Zn 0.6396 0.00138 0.9983 0.0
O72 O 0.66587 0.01844 0.99369 0.0
O73 O 0.66744 0.0435 0.99538 0.0
O74 O 0.63679 0.97816 0.00294 0.0
O75 O 0.63093 0.0281 0.02866 0.0
O76 O 0.62965 0.00326 0.0277 0.0
C77 C 0.6748 0.03487 0.99343 0.0
C78 C 0.61958 0.00818 0.96283 0.0
O79 O 0.62422 0.99837 0.97158 0.0
O80 O 0.62501 0.02304 0.97088 0.0
C81 C 0.64751 0.97329 0.99925 0.0
O82 O 0.66245 0.9839 0.98965 0.0
C83 C 0.62699 0.01395 0.03772 0.0
Zn84 Zn 0.62883 0.69359 0.34321 0.0
Zn85 Zn 0.66109 0.69702 0.34769 0.0
O86 O 0.64428 0.67158 0.3407 0.0
O87 O 0.61801 0.66776 0.33716 0.0
O88 O 0.68392 0.69827 0.35327 0.0
O89 O 0.63156 0.70313 0.37463 0.0
O90 O 0.65765 0.70633 0.37642 0.0
C91 C 0.62797 0.66172 0.33687 0.0
C92 C 0.65552 0.71681 0.31136 0.0
O93 O 0.6654 0.71272 0.32145 0.0
O94 O 0.63982 0.71057 0.31746 0.0
C95 C 0.68356 0.68648 0.36508 0.0
O96 O 0.6685 0.67414 0.3728 0.0
C97 C 0.64577 0.70806 0.38508 0.0
Zn98 Zn 0.3095 0.9441 0.33694 0.0
Zn99 Zn 0.31241 0.97365 0.34988 0.0
O100 O 0.33704 0.98165 0.33812 0.0
O101 O 0.33476 0.95732 0.32793 0.0
O102 O 0.31544 0.9951 0.36395 0.0
O103 O 0.30255 0.93359 0.36719 0.0
O104 O 0.30481 0.9579 0.37723 0.0
C105 C 0.34384 0.97358 0.33 0.0
C106 C 0.28616 0.95238 0.31359 0.0
O107 O 0.29324 0.96592 0.32562 0.0
O108 O 0.2909 0.9415 0.31558 0.0
C109 C 0.31607 0.00829 0.35566 0.0
O110 O 0.31436 0.0092 0.33422 0.0
C111 C 0.30143 0.94278 0.38192 0.0
Zn112 Zn 0.01989 0.3048 0.36398 0.0
Zn113 Zn 0.02447 0.33645 0.35707 0.0
O114 O 0.99873 0.32175 0.36658 0.0
O115 O 0.99469 0.2959 0.37177 0.0
O116 O 0.02806 0.3598 0.34972 0.0
O117 O 0.02684 0.3041 0.33244 0.0
O118 O 0.03054 0.32982 0.32762 0.0
C119 C 0.98883 0.30594 0.37186 0.0
C120 C 0.04613 0.33163 0.39269 0.0
O121 O 0.04221 0.34137 0.38216 0.0
O122 O 0.0385 0.31571 0.388 0.0
C123 C 0.01587 0.36143 0.34148 0.0
O124 O 0.00026 0.34763 0.33849 0.0
C125 C 0.031 0.31697 0.32014 0.0
Zn126 Zn 0.7175 0.99165 0.33527 0.0
Zn127 Zn 0.68415 0.98116 0.33337 0.0
O128 O 0.69667 0.00666 0.34373 0.0
O129 O 0.72446 0.01493 0.34708 0.0
O130 O 0.65971 0.9764 0.32809 0.0
O131 O 0.71863 0.98765 0.30298 0.0
O132 O 0.69005 0.97574 0.3025 0.0
C133 C 0.71237 0.01811 0.34899 0.0
C134 C 0.69576 0.96285 0.36461 0.0
O135 O 0.6832 0.96462 0.35794 0.0
O136 O 0.71094 0.97234 0.35677 0.0
C137 C 0.6503 0.97706 0.34314 0.0
O138 O 0.65583 0.9793 0.36373 0.0
C139 C 0.70414 0.97946 0.29274 0.0
Zn140 Zn 0.02139 0.72444 0.36033 0.0
Zn141 Zn 0.01879 0.69404 0.3506 0.0
O142 O 0.99412 0.68671 0.36148 0.0
O143 O 0.99603 0.71124 0.3696 0.0
O144 O 0.01641 0.67155 0.34147 0.0
O145 O 0.02791 0.73239 0.32866 0.0
O146 O 0.02713 0.70819 0.32201 0.0
C147 C 0.98714 0.69491 0.36857 0.0
C148 C 0.04496 0.71765 0.38593 0.0
O149 O 0.03767 0.7036 0.37495 0.0
O150 O 0.04043 0.7286 0.38264 0.0
C151 C 0.01715 0.66139 0.35533 0.0
O152 O 0.01937 0.66553 0.37637 0.0
C153 C 0.03001 0.72282 0.31555 0.0
Zn154 Zn 0.31809 0.36626 0.337 0.0
Zn155 Zn 0.31549 0.33652 0.34809 0.0
O156 O 0.34067 0.35183 0.33623 0.0
O157 O 0.34252 0.37605 0.32633 0.0
O158 O 0.31548 0.31514 0.35724 0.0
O159 O 0.31393 0.36993 0.36852 0.0
O160 O 0.30978 0.34445 0.37702 0.0
C161 C 0.34936 0.36693 0.32799 0.0
C162 C 0.29086 0.33673 0.31294 0.0
O163 O 0.2961 0.32835 0.32423 0.0
O164 O 0.29797 0.35286 0.31567 0.0
C165 C 0.31893 0.30703 0.34316 0.0
O166 O 0.32155 0.31229 0.32255 0.0
C167 C 0.31014 0.35816 0.38256 0.0
Zn168 Zn 0.28646 0.01557 0.69259 0.0
Zn169 Zn 0.3197 0.02328 0.68542 0.0
O170 O 0.30349 0.99696 0.68353 0.0
O171 O 0.27631 0.98987 0.68889 0.0
O172 O 0.34313 0.02513 0.6838 0.0
O173 O 0.29423 0.02756 0.72249 0.0
O174 O 0.32123 0.0349 0.71496 0.0
C175 C 0.2873 0.98551 0.68477 0.0
C176 C 0.30394 0.03706 0.65331 0.0
O177 O 0.31716 0.03602 0.65884 0.0
O178 O 0.29021 0.02977 0.6649 0.0
C179 C 0.34453 0.015 0.67076 0.0
O180 O 0.33193 0.00607 0.65631 0.0
C181 C 0.31033 0.03542 0.72775 0.0
Zn182 Zn 0.97824 0.28071 0.67017 0.0
Zn183 Zn 0.98167 0.31094 0.68109 0.0
O184 O 0.00643 0.31743 0.6712 0.0
O185 O 0.00378 0.29263 0.66278 0.0
O186 O 0.98495 0.33393 0.69006 0.0
O187 O 0.96996 0.27172 0.70076 0.0
O188 O 0.97296 0.29659 0.70979 0.0
C189 C 0.01316 0.30889 0.66449 0.0
C190 C 0.95625 0.28867 0.64396 0.0
O191 O 0.96313 0.30224 0.65592 0.0
O192 O 0.96068 0.27762 0.64678 0.0
C193 C 0.99503 0.34756 0.67924 0.0
O194 O 0.0029 0.34645 0.66173 0.0
C195 C 0.96882 0.28128 0.71492 0.0
Zn196 Zn 0.68617 0.64566 0.69593 0.0
Zn197 Zn 0.68674 0.6744 0.68485 0.0
O198 O 0.66196 0.65752 0.69704 0.0
O199 O 0.66239 0.63502 0.70968 0.0
O200 O 0.68473 0.69488 0.67564 0.0
O201 O 0.68815 0.64114 0.66398 0.0
O202 O 0.693 0.66693 0.65573 0.0
C203 C 0.65439 0.64297 0.70685 0.0
C204 C 0.71388 0.67642 0.71759 0.0
O205 O 0.70654 0.68377 0.70846 0.0
O206 O 0.70815 0.66061 0.71399 0.0
C207 C 0.67559 0.69888 0.68722 0.0
O208 O 0.66879 0.69047 0.70566 0.0
C209 C 0.69211 0.65298 0.65 0.0
Zn210 Zn 0.3818 0.31691 0.69477 0.0
Zn211 Zn 0.35022 0.31077 0.6809 0.0
O212 O 0.36391 0.33655 0.6893 0.0
O213 O 0.38998 0.34198 0.69947 0.0
O214 O 0.32782 0.30727 0.66777 0.0
O215 O 0.38542 0.30867 0.66537 0.0
O216 O 0.35948 0.30345 0.65494 0.0
C217 C 0.37941 0.34709 0.69628 0.0
C218 C 0.35229 0.29201 0.72146 0.0
O219 O 0.34303 0.29449 0.70755 0.0
O220 O 0.3688 0.29998 0.71959 0.0
C221 C 0.31968 0.31428 0.67486 0.0
O222 O 0.32538 0.32384 0.69278 0.0
C223 C 0.37334 0.30331 0.65094 0.0
Zn224 Zn 0.68949 0.05798 0.70418 0.0
Zn225 Zn 0.68847 0.03208 0.68365 0.0
O226 O 0.66293 0.02212 0.69489 0.0
O227 O 0.66435 0.04425 0.71166 0.0
O228 O 0.68699 0.01102 0.66976 0.0
O229 O 0.69655 0.07146 0.67603 0.0
O230 O 0.69568 0.04994 0.65819 0.0
C231 C 0.65554 0.02865 0.7056 0.0
C232 C 0.71328 0.05019 0.72377 0.0
O233 O 0.70785 0.03931 0.70794 0.0
O234 O 0.70712 0.05982 0.72622 0.0
C235 C 0.68538 0.99937 0.68298 0.0
O236 O 0.68479 0.00169 0.70427 0.0
C237 C 0.69819 0.06514 0.65832 0.0
Zn238 Zn 0.98714 0.69781 0.66805 0.0
Zn239 Zn 0.97912 0.66598 0.68032 0.0
O240 O 0.00428 0.67751 0.6685 0.0
O241 O 0.01151 0.70412 0.66052 0.0
O242 O 0.97523 0.64324 0.69105 0.0
O243 O 0.98264 0.7027 0.69869 0.0
O244 O 0.97537 0.67639 0.70847 0.0
C245 C 0.01542 0.69263 0.66178 0.0
C246 C 0.95776 0.66979 0.64379 0.0
O247 O 0.9605 0.66008 0.65626 0.0
O248 O 0.96734 0.68607 0.64554 0.0
C249 C 0.97026 0.63029 0.67848 0.0
O250 O 0.96664 0.63129 0.65765 0.0
C251 C 0.97747 0.69103 0.7132 0.0
H252 H 0.13744 0.33224 0.18308 0.0
H253 H 0.1164 0.33594 0.20391 0.0
H254 H 0.07454 0.2862 0.18106 0.0
H255 H 0.09572 0.2827 0.15965 0.0
H256 H 0.14347 0.30478 0.1887 0.0
H257 H 0.12277 0.32911 0.13664 0.0
H258 H 0.10262 0.33214 0.11296 0.0
H259 H 0.09566 0.28956 0.0729 0.0
H260 H 0.11396 0.28516 0.09861 0.0
H261 H 0.1602 0.27763 0.11614 0.0
H262 H 0.1858 0.28045 0.09779 0.0
H263 H 0.21533 0.3348 0.11464 0.0
H264 H 0.19011 0.33144 0.13405 0.0
H265 H 0.14609 0.30314 0.10712 0.0
H266 H 0.1689 0.28056 0.16249 0.0
H267 H 0.19158 0.28167 0.18664 0.0
H268 H 0.19878 0.32785 0.21739 0.0
H269 H 0.17686 0.32714 0.19254 0.0
C270 C 0.1181 0.30723 0.16981 0.0
C271 C 0.12371 0.3222 0.1824 0.0
C272 C 0.11169 0.32434 0.19415 0.0
C273 C 0.09388 0.31139 0.19394 0.0
C274 C 0.08822 0.29636 0.18139 0.0
C275 C 0.10025 0.29437 0.1692 0.0
C276 C 0.13122 0.30507 0.15805 0.0
C277 C 0.14398 0.30433 0.17084 0.0
C278 C 0.13176 0.30445 0.13472 0.0
C279 C 0.11947 0.30647 0.12005 0.0
C280 C 0.11635 0.31994 0.12333 0.0
C281 C 0.10513 0.32199 0.10921 0.0
C282 C 0.09733 0.31114 0.09073 0.0
C283 C 0.1009 0.29795 0.08716 0.0
C284 C 0.11163 0.29553 0.10177 0.0
C285 C 0.17341 0.30429 0.12656 0.0
C286 C 0.1723 0.29007 0.11595 0.0
C287 C 0.18692 0.29177 0.10534 0.0
C288 C 0.20279 0.30784 0.10477 0.0
C289 C 0.2036 0.32209 0.11519 0.0
C290 C 0.18913 0.32028 0.12614 0.0
C291 C 0.15813 0.30276 0.13782 0.0
C292 C 0.14513 0.303 0.12496 0.0
C293 C 0.15755 0.30338 0.16104 0.0
C294 C 0.17133 0.3039 0.17548 0.0
C295 C 0.17561 0.29108 0.17417 0.0
C296 C 0.18842 0.29161 0.18819 0.0
C297 C 0.19709 0.3049 0.20389 0.0
C298 C 0.19265 0.31761 0.20522 0.0
C299 C 0.17996 0.31714 0.19116 0.0
H300 H 0.69955 0.89121 0.12489 0.0
H301 H 0.70434 0.91684 0.14379 0.0
H302 H 0.66542 0.88451 0.19186 0.0
H303 H 0.65931 0.85901 0.17114 0.0
H304 H 0.68247 0.8493 0.16657 0.0
H305 H 0.69301 0.88172 0.08813 0.0
H306 H 0.68404 0.89912 0.06786 0.0
H307 H 0.62995 0.86191 0.08354 0.0
H308 H 0.63949 0.8459 0.10588 0.0
H309 H 0.64766 0.8021 0.09283 0.0
H310 H 0.64515 0.77553 0.07915 0.0
H311 H 0.69607 0.79164 0.10698 0.0
H312 H 0.69867 0.81825 0.12026 0.0
H313 H 0.66799 0.83533 0.08717 0.0
H314 H 0.65283 0.7975 0.14764 0.0
H315 H 0.65343 0.77772 0.17459 0.0
H316 H 0.70472 0.81812 0.19683 0.0
H317 H 0.70426 0.83769 0.16932 0.0
C318 C 0.67867 0.87313 0.14609 0.0
C319 C 0.69138 0.88964 0.13877 0.0
C320 C 0.69446 0.90435 0.15009 0.0
C321 C 0.68546 0.90292 0.16966 0.0
C322 C 0.67246 0.88632 0.17671 0.0
C323 C 0.66904 0.87163 0.16498 0.0
C324 C 0.67689 0.85747 0.13576 0.0
C325 C 0.67951 0.84636 0.14915 0.0
C326 C 0.67242 0.85325 0.11324 0.0
C327 C 0.66697 0.86298 0.09919 0.0
C328 C 0.67927 0.87759 0.0875 0.0
C329 C 0.67401 0.88734 0.07551 0.0
C330 C 0.65619 0.8822 0.07417 0.0
C331 C 0.64383 0.86679 0.08478 0.0
C332 C 0.64921 0.85744 0.0974 0.0
C333 C 0.67323 0.81205 0.10789 0.0
C334 C 0.6584 0.80003 0.09568 0.0
C335 C 0.65697 0.78486 0.08789 0.0
C336 C 0.67033 0.78144 0.09224 0.0
C337 C 0.68543 0.79379 0.10373 0.0
C338 C 0.68693 0.809 0.11132 0.0
C339 C 0.67414 0.82742 0.11787 0.0
C340 C 0.67129 0.83841 0.10449 0.0
C341 C 0.6778 0.83121 0.14065 0.0
C342 C 0.67857 0.81903 0.15633 0.0
C343 C 0.66432 0.80201 0.15808 0.0
C344 C 0.66461 0.79078 0.17364 0.0
C345 C 0.67911 0.79637 0.18789 0.0
C346 C 0.69346 0.81335 0.18592 0.0
C347 C 0.69316 0.82459 0.17034 0.0
H348 H 0.10768 0.83954 0.18365 0.0
H349 H 0.08926 0.81543 0.2076 0.0
H350 H 0.0992 0.78225 0.16726 0.0
H351 H 0.11973 0.80689 0.14602 0.0
H352 H 0.1399 0.85508 0.18026 0.0
H353 H 0.09611 0.82892 0.11804 0.0
H354 H 0.0758 0.80416 0.09529 0.0
H355 H 0.11694 0.7935 0.08368 0.0
H356 H 0.13726 0.81913 0.10447 0.0
H357 H 0.18289 0.86412 0.11198 0.0
H358 H 0.21029 0.88574 0.09551 0.0
H359 H 0.19583 0.92404 0.10394 0.0
H360 H 0.16895 0.90235 0.12219 0.0
H361 H 0.14684 0.85417 0.09931 0.0
H362 H 0.18935 0.87652 0.15689 0.0
H363 H 0.21176 0.89669 0.18255 0.0
H364 H 0.17559 0.91019 0.20806 0.0
H365 H 0.15335 0.89049 0.18133 0.0
C366 C 0.11496 0.82517 0.16252 0.0
C367 C 0.1059 0.82705 0.17999 0.0
C368 C 0.09508 0.81305 0.19359 0.0
C369 C 0.09259 0.7966 0.18971 0.0
C370 C 0.10099 0.79463 0.17144 0.0
C371 C 0.1124 0.80878 0.15855 0.0
C372 C 0.1285 0.84061 0.1502 0.0
C373 C 0.14096 0.85509 0.16244 0.0
C374 C 0.13049 0.84054 0.12701 0.0
C375 C 0.11813 0.82579 0.11292 0.0
C376 C 0.10069 0.8213 0.11024 0.0
C377 C 0.08905 0.80698 0.09738 0.0
C378 C 0.0945 0.79653 0.08748 0.0
C379 C 0.11213 0.80128 0.09029 0.0
C380 C 0.12385 0.81591 0.10244 0.0
C381 C 0.17396 0.88167 0.11824 0.0
C382 C 0.18564 0.87718 0.11018 0.0
C383 C 0.20129 0.88962 0.10053 0.0
C384 C 0.20538 0.90677 0.09801 0.0
C385 C 0.19338 0.91111 0.10582 0.0
C386 C 0.1779 0.8987 0.11607 0.0
C387 C 0.1579 0.86842 0.12943 0.0
C388 C 0.14513 0.85444 0.11697 0.0
C389 C 0.15577 0.86885 0.15243 0.0
C390 C 0.16976 0.88223 0.16684 0.0
C391 C 0.18638 0.88421 0.16747 0.0
C392 C 0.19911 0.89556 0.18244 0.0
C393 C 0.19542 0.90495 0.19751 0.0
C394 C 0.1789 0.90329 0.19654 0.0
C395 C 0.16616 0.89196 0.18138 0.0
H396 H 0.30002 0.18138 0.88131 0.0
H397 H 0.29903 0.20144 0.85517 0.0
H398 H 0.35465 0.22496 0.84442 0.0
H399 H 0.35556 0.20574 0.8718 0.0
H400 H 0.32421 0.16377 0.86293 0.0
H401 H 0.31006 0.19301 0.92 0.0
H402 H 0.31592 0.21871 0.94044 0.0
H403 H 0.36687 0.2282 0.95939 0.0
H404 H 0.3611 0.20273 0.9385 0.0
H405 H 0.35738 0.1582 0.94323 0.0
H406 H 0.3621 0.1361 0.9594 0.0
H407 H 0.31395 0.09623 0.92937 0.0
H408 H 0.3087 0.11819 0.91415 0.0
H409 H 0.33581 0.16881 0.94362 0.0
H410 H 0.35279 0.14263 0.89028 0.0
H411 H 0.35299 0.12106 0.86679 0.0
H412 H 0.30454 0.11061 0.83601 0.0
H413 H 0.30368 0.13106 0.86094 0.0
C414 C 0.32792 0.19237 0.87877 0.0
C415 C 0.31205 0.19127 0.87379 0.0
C416 C 0.3115 0.20259 0.85854 0.0
C417 C 0.32673 0.21485 0.8474 0.0
C418 C 0.34268 0.21604 0.85288 0.0
C419 C 0.34326 0.20499 0.86849 0.0
C420 C 0.32817 0.17882 0.89203 0.0
C421 C 0.32631 0.16456 0.88068 0.0
C422 C 0.3319 0.18058 0.9149 0.0
C423 C 0.33525 0.19608 0.92737 0.0
C424 C 0.32263 0.20082 0.92814 0.0
C425 C 0.32596 0.21547 0.93992 0.0
C426 C 0.34187 0.2255 0.95147 0.0
C427 C 0.35443 0.22066 0.9508 0.0
C428 C 0.35116 0.20611 0.93886 0.0
C429 C 0.33285 0.1399 0.92706 0.0
C430 C 0.34756 0.1447 0.94063 0.0
C431 C 0.3503 0.13211 0.94982 0.0
C432 C 0.33845 0.11457 0.94539 0.0
C433 C 0.3233 0.10972 0.93285 0.0
C434 C 0.32036 0.12226 0.92409 0.0
C435 C 0.33128 0.15322 0.91463 0.0
C436 C 0.33323 0.16764 0.92598 0.0
C437 C 0.32818 0.15191 0.89148 0.0
C438 C 0.32807 0.13832 0.8777 0.0
C439 C 0.34196 0.13535 0.8789 0.0
C440 C 0.3422 0.12317 0.86513 0.0
C441 C 0.32882 0.11403 0.84932 0.0
C442 C 0.31491 0.11705 0.8482 0.0
C443 C 0.3145 0.12896 0.8623 0.0
H444 H 0.84362 0.11232 0.86093 0.0
H445 H 0.8221 0.09077 0.83515 0.0
H446 H 0.79095 0.11438 0.84051 0.0
H447 H 0.81195 0.135 0.86706 0.0
H448 H 0.86002 0.15122 0.8531 0.0
H449 H 0.82368 0.10508 0.9066 0.0
H450 H 0.79713 0.08546 0.92745 0.0
H451 H 0.79153 0.12847 0.94437 0.0
H452 H 0.81769 0.14782 0.92353 0.0
H453 H 0.85794 0.18683 0.93095 0.0
H454 H 0.87703 0.21196 0.95367 0.0
H455 H 0.92194 0.21056 0.93125 0.0
H456 H 0.90259 0.18475 0.90951 0.0
H457 H 0.84965 0.15575 0.93227 0.0
H458 H 0.87357 0.19855 0.87757 0.0
H459 H 0.89442 0.22244 0.85458 0.0
H460 H 0.91774 0.19299 0.83596 0.0
H461 H 0.89641 0.1689 0.8586 0.0
C462 C 0.82923 0.12508 0.86601 0.0
C463 C 0.83196 0.11257 0.85674 0.0
C464 C 0.81971 0.10037 0.84186 0.0
C465 C 0.80467 0.10071 0.83565 0.0
C466 C 0.80204 0.1133 0.8452 0.0
C467 C 0.81412 0.12525 0.86032 0.0
C468 C 0.84268 0.13883 0.88039 0.0
C469 C 0.85802 0.15202 0.87058 0.0
C470 C 0.83945 0.14037 0.90277 0.0
C471 C 0.82275 0.12795 0.91365 0.0
C472 C 0.81656 0.1102 0.91454 0.0
C473 C 0.80145 0.09903 0.92647 0.0
C474 C 0.79249 0.10553 0.93782 0.0
C475 C 0.7984 0.12317 0.9362 0.0
C476 C 0.81333 0.13423 0.92425 0.0
C477 C 0.8788 0.18388 0.91841 0.0
C478 C 0.87188 0.19182 0.93106 0.0
C479 C 0.88286 0.20634 0.94388 0.0
C480 C 0.90106 0.21337 0.94425 0.0
C481 C 0.90797 0.20539 0.93158 0.0
C482 C 0.89694 0.19074 0.91889 0.0
C483 C 0.8669 0.16834 0.90497 0.0
C484 C 0.85193 0.1548 0.91493 0.0
C485 C 0.86981 0.16705 0.88235 0.0
C486 C 0.88352 0.182 0.86988 0.0
C487 C 0.88336 0.19735 0.86879 0.0
C488 C 0.89536 0.21105 0.85569 0.0
C489 C 0.9078 0.20968 0.84338 0.0
C490 C 0.90819 0.1944 0.84496 0.0
C491 C 0.89608 0.18065 0.85796 0.0
H492 H 0.82312 0.67782 0.83664 0.0
H493 H 0.80158 0.67882 0.81303 0.0
H494 H 0.81847 0.72989 0.83787 0.0
H495 H 0.83924 0.72808 0.86276 0.0
H496 H 0.86107 0.70285 0.83862 0.0
H497 H 0.80864 0.67655 0.88068 0.0
H498 H 0.78347 0.67388 0.89939 0.0
H499 H 0.81805 0.71646 0.94223 0.0
H500 H 0.84336 0.71959 0.92256 0.0
H501 H 0.89465 0.7111 0.92146 0.0
H502 H 0.91099 0.69932 0.93904 0.0
H503 H 0.87523 0.64962 0.90925 0.0
H504 H 0.85987 0.66187 0.89077 0.0
H505 H 0.85194 0.69362 0.91934 0.0
H506 H 0.90514 0.71589 0.87903 0.0
H507 H 0.92879 0.71579 0.85964 0.0
H508 H 0.89118 0.67869 0.81299 0.0
H509 H 0.8675 0.67809 0.83331 0.0
C510 C 0.83278 0.70288 0.85135 0.0
C511 C 0.82218 0.68924 0.83694 0.0
C512 C 0.80994 0.68995 0.82326 0.0
C513 C 0.80833 0.70458 0.82312 0.0
C514 C 0.81911 0.71833 0.83759 0.0
C515 C 0.83112 0.7174 0.85173 0.0
C516 C 0.84537 0.70154 0.86601 0.0
C517 C 0.85918 0.70097 0.8563 0.0
C518 C 0.84307 0.69944 0.88911 0.0
C519 C 0.82786 0.69846 0.89997 0.0
C520 C 0.81083 0.6856 0.89372 0.0
C521 C 0.79645 0.68393 0.90467 0.0
C522 C 0.79878 0.69488 0.92242 0.0
C523 C 0.81584 0.70794 0.92849 0.0
C524 C 0.83029 0.70967 0.91739 0.0
C525 C 0.87623 0.68738 0.90468 0.0
C526 C 0.89035 0.69765 0.91891 0.0
C527 C 0.8996 0.69083 0.92903 0.0
C528 C 0.89462 0.67351 0.92539 0.0
C529 C 0.87983 0.66311 0.91197 0.0
C530 C 0.87087 0.67002 0.90156 0.0
C531 C 0.86748 0.69471 0.89185 0.0
C532 C 0.85429 0.69622 0.90183 0.0
C533 C 0.87027 0.69758 0.86894 0.0
C534 C 0.88452 0.69687 0.85777 0.0
C535 C 0.90194 0.70737 0.865 0.0
C536 C 0.91548 0.70747 0.85371 0.0
C537 C 0.91192 0.69727 0.8347 0.0
C538 C 0.8944 0.6865 0.82775 0.0
C539 C 0.88085 0.6863 0.83919 0.0
H540 H 0.80428 0.67162 0.52862 0.0
H541 H 0.78035 0.67004 0.54938 0.0
H542 H 0.74324 0.63391 0.50151 0.0
H543 H 0.76717 0.63472 0.48162 0.0
H544 H 0.81177 0.64841 0.52252 0.0
H545 H 0.80383 0.68473 0.47252 0.0
H546 H 0.78687 0.69345 0.44994 0.0
H547 H 0.76544 0.64631 0.41221 0.0
H548 H 0.78266 0.63772 0.43472 0.0
H549 H 0.82952 0.63217 0.43814 0.0
H550 H 0.85465 0.63485 0.41872 0.0
H551 H 0.88963 0.67708 0.46178 0.0
H552 H 0.8645 0.67471 0.48054 0.0
H553 H 0.82012 0.65644 0.44163 0.0
H554 H 0.83785 0.62626 0.49301 0.0
H555 H 0.85921 0.62456 0.51693 0.0
H556 H 0.866 0.66792 0.55476 0.0
H557 H 0.84523 0.6699 0.53051 0.0
C558 C 0.7876 0.65331 0.5035 0.0
C559 C 0.79099 0.66338 0.52255 0.0
C560 C 0.77727 0.66263 0.53428 0.0
C561 C 0.7598 0.65184 0.52717 0.0
C562 C 0.75649 0.6422 0.50765 0.0
C563 C 0.77022 0.64282 0.49607 0.0
C564 C 0.80214 0.65308 0.49218 0.0
C565 C 0.81367 0.65031 0.50485 0.0
C566 C 0.80459 0.65538 0.46913 0.0
C567 C 0.79436 0.66054 0.45534 0.0
C568 C 0.7955 0.6763 0.45936 0.0
C569 C 0.78592 0.68131 0.44639 0.0
C570 C 0.77491 0.67055 0.42936 0.0
C571 C 0.77381 0.65478 0.42532 0.0
C572 C 0.78363 0.6499 0.43808 0.0
C573 C 0.84513 0.65311 0.46094 0.0
C574 C 0.84262 0.64198 0.44339 0.0
C575 C 0.85699 0.64344 0.43242 0.0
C576 C 0.87415 0.65618 0.43869 0.0
C577 C 0.8766 0.66726 0.45636 0.0
C578 C 0.86224 0.66579 0.46728 0.0
C579 C 0.82988 0.65196 0.47203 0.0
C580 C 0.8181 0.65433 0.45927 0.0
C581 C 0.82766 0.64999 0.49517 0.0
C582 C 0.84008 0.64832 0.50985 0.0
C583 C 0.84404 0.63544 0.50639 0.0
C584 C 0.85613 0.6344 0.52016 0.0
C585 C 0.8644 0.6462 0.53761 0.0
C586 C 0.86011 0.65884 0.54122 0.0
C587 C 0.8481 0.65988 0.5275 0.0
H588 H 0.3708 0.22039 0.47638 0.0
H589 H 0.379 0.24551 0.49957 0.0
H590 H 0.33441 0.21402 0.54099 0.0
H591 H 0.32593 0.18919 0.51729 0.0
H592 H 0.34288 0.17395 0.51322 0.0
H593 H 0.36305 0.20352 0.42415 0.0
H594 H 0.36012 0.22366 0.40022 0.0
H595 H 0.31729 0.21712 0.43992 0.0
H596 H 0.32042 0.19719 0.46384 0.0
H597 H 0.31815 0.1375 0.42902 0.0
H598 H 0.31535 0.11145 0.41291 0.0
H599 H 0.35945 0.11934 0.45238 0.0
H600 H 0.36221 0.1453 0.46834 0.0
H601 H 0.34139 0.17069 0.43148 0.0
H602 H 0.31311 0.12528 0.48073 0.0
H603 H 0.30488 0.10112 0.50547 0.0
H604 H 0.34953 0.13388 0.54736 0.0
H605 H 0.35836 0.15779 0.52165 0.0
C606 C 0.34775 0.20287 0.49509 0.0
C607 C 0.36252 0.21901 0.49009 0.0
C608 C 0.36731 0.23333 0.50352 0.0
C609 C 0.35747 0.23176 0.52228 0.0
C610 C 0.34221 0.21577 0.52659 0.0
C611 C 0.33742 0.20149 0.51314 0.0
C612 C 0.3442 0.18713 0.48301 0.0
C613 C 0.34263 0.17328 0.49534 0.0
C614 C 0.34312 0.18594 0.4597 0.0
C615 C 0.34207 0.19894 0.44591 0.0
C616 C 0.3531 0.2065 0.42774 0.0
C617 C 0.35134 0.21796 0.41403 0.0
C618 C 0.33843 0.22199 0.41811 0.0
C619 C 0.32754 0.21453 0.43648 0.0
C620 C 0.32932 0.20311 0.45019 0.0
C621 C 0.34021 0.14319 0.45016 0.0
C622 C 0.32739 0.13377 0.43392 0.0
C623 C 0.32581 0.11889 0.42472 0.0
C624 C 0.33703 0.11323 0.43161 0.0
C625 C 0.35038 0.12318 0.44707 0.0
C626 C 0.352 0.13804 0.45617 0.0
C627 C 0.34078 0.15786 0.46175 0.0
C628 C 0.34183 0.17148 0.44935 0.0
C629 C 0.34046 0.15847 0.48508 0.0
C630 C 0.33645 0.14339 0.49917 0.0
C631 C 0.32145 0.12718 0.49486 0.0
C632 C 0.31661 0.11339 0.50925 0.0
C633 C 0.32641 0.11558 0.52861 0.0
C634 C 0.34175 0.13166 0.53254 0.0
C635 C 0.34673 0.14542 0.51795 0.0
H636 H 0.76075 0.17002 0.49357 0.0
H637 H 0.73876 0.14857 0.51823 0.0
H638 H 0.77465 0.13216 0.53701 0.0
H639 H 0.79594 0.15275 0.51084 0.0
H640 H 0.80581 0.19203 0.51622 0.0
H641 H 0.75953 0.15886 0.45712 0.0
H642 H 0.74097 0.13177 0.43734 0.0
H643 H 0.78701 0.1304 0.42026 0.0
H644 H 0.80508 0.15642 0.44176 0.0
H645 H 0.84213 0.19753 0.43586 0.0
H646 H 0.86862 0.21846 0.41687 0.0
H647 H 0.86587 0.26003 0.44701 0.0
H648 H 0.8386 0.23889 0.46495 0.0
H649 H 0.81052 0.18821 0.43529 0.0
H650 H 0.8551 0.2118 0.48907 0.0
H651 H 0.87888 0.23201 0.51333 0.0
H652 H 0.84445 0.24616 0.54301 0.0
H653 H 0.82086 0.22643 0.51782 0.0
C654 C 0.77977 0.16269 0.50008 0.0
C655 C 0.7636 0.16138 0.50247 0.0
C656 C 0.75116 0.14927 0.51689 0.0
C657 C 0.75492 0.13868 0.52993 0.0
C658 C 0.77108 0.13982 0.52707 0.0
C659 C 0.78335 0.15168 0.51222 0.0
C660 C 0.79371 0.17687 0.487 0.0
C661 C 0.8067 0.19145 0.49843 0.0
C662 C 0.79522 0.17555 0.46403 0.0
C663 C 0.78364 0.1594 0.45158 0.0
C664 C 0.76552 0.1524 0.44973 0.0
C665 C 0.75496 0.13707 0.43795 0.0
C666 C 0.76239 0.12866 0.42734 0.0
C667 C 0.78065 0.13609 0.42871 0.0
C668 C 0.79109 0.15116 0.44082 0.0
C669 C 0.8384 0.21658 0.45203 0.0
C670 C 0.84702 0.21114 0.43811 0.0
C671 C 0.86234 0.22316 0.42747 0.0
C672 C 0.86957 0.24097 0.43067 0.0
C673 C 0.86064 0.24644 0.44408 0.0
C674 C 0.84514 0.23435 0.45455 0.0
C675 C 0.82278 0.20355 0.46444 0.0
C676 C 0.80945 0.18917 0.45298 0.0
C677 C 0.82151 0.20455 0.48762 0.0
C678 C 0.83624 0.21776 0.50138 0.0
C679 C 0.85277 0.21955 0.5004 0.0
C680 C 0.8663 0.23096 0.51451 0.0
C681 C 0.86355 0.24063 0.53024 0.0
C682 C 0.84708 0.23907 0.53093 0.0
C683 C 0.83355 0.2277 0.51667 0.0
H684 H 0.97645 0.51422 0.18729 0.0
H685 H 0.97399 0.53356 0.16148 0.0
H686 H 0.02437 0.57564 0.18371 0.0
H687 H 0.02695 0.55601 0.20916 0.0
H688 H 0.0018 0.50652 0.18465 0.0
H689 H 0.98409 0.53416 0.23835 0.0
H690 H 0.98605 0.55704 0.26187 0.0
H691 H 0.03546 0.56694 0.28828 0.0
H692 H 0.03372 0.54448 0.26448 0.0
H693 H 0.03443 0.50368 0.26706 0.0
H694 H 0.03881 0.48329 0.28802 0.0
H695 H 0.99323 0.44089 0.25601 0.0
H696 H 0.98814 0.46143 0.23648 0.0
H697 H 0.01138 0.51169 0.26563 0.0
H698 H 0.03148 0.48679 0.2144 0.0
H699 H 0.03263 0.46511 0.19238 0.0
H700 H 0.98517 0.45408 0.15808 0.0
H701 H 0.98313 0.47438 0.18186 0.0
C702 C 0.00184 0.53367 0.20021 0.0
C703 C 0.98687 0.52767 0.18682 0.0
C704 C 0.98543 0.53879 0.17215 0.0
C705 C 0.999 0.55616 0.17048 0.0
C706 C 0.01377 0.56229 0.18444 0.0
C707 C 0.01519 0.55114 0.19916 0.0
C708 C 0.00408 0.52121 0.21358 0.0
C709 C 0.00359 0.50743 0.20245 0.0
C710 C 0.00738 0.52304 0.2366 0.0
C711 C 0.0088 0.53761 0.24954 0.0
C712 C 0.99552 0.54149 0.24885 0.0
C713 C 0.99661 0.55452 0.26234 0.0
C714 C 0.01084 0.56365 0.27701 0.0
C715 C 0.02423 0.55994 0.27736 0.0
C716 C 0.02325 0.54712 0.26374 0.0
C717 C 0.01109 0.48415 0.2499 0.0
C718 C 0.02522 0.48999 0.26479 0.0
C719 C 0.02785 0.47826 0.27657 0.0
C720 C 0.01654 0.46036 0.27356 0.0
C721 C 0.00216 0.45454 0.25898 0.0
C722 C 0.99935 0.4663 0.24752 0.0
C723 C 0.00887 0.49678 0.23676 0.0
C724 C 0.00947 0.51064 0.24786 0.0
C725 C 0.00625 0.49536 0.21356 0.0
C726 C 0.00702 0.48205 0.20018 0.0
C727 C 0.02104 0.47934 0.20257 0.0
C728 C 0.02185 0.4671 0.18959 0.0
C729 C 0.00902 0.4577 0.17326 0.0
C730 C 0.99511 0.46063 0.17075 0.0
C731 C 0.99405 0.47251 0.18417 0.0
H732 H 0.51368 0.45164 0.17389 0.0
H733 H 0.4906 0.4316 0.14845 0.0
H734 H 0.45438 0.44301 0.17897 0.0
H735 H 0.47766 0.46352 0.20364 0.0
H736 H 0.52704 0.48545 0.17554 0.0
H737 H 0.49702 0.43842 0.22718 0.0
H738 H 0.4707 0.41633 0.24608 0.0
H739 H 0.46548 0.45638 0.27643 0.0
H740 H 0.49108 0.47821 0.25672 0.0
H741 H 0.54502 0.53433 0.21949 0.0
H742 H 0.5634 0.56047 0.24102 0.0
H743 H 0.57524 0.53128 0.28695 0.0
H744 H 0.55735 0.50525 0.26476 0.0
H745 H 0.5233 0.48887 0.25674 0.0
H746 H 0.53671 0.51832 0.17004 0.0
H747 H 0.56022 0.53949 0.14664 0.0
H748 H 0.59809 0.53549 0.18695 0.0
H749 H 0.57438 0.5141 0.21026 0.0
C750 C 0.49739 0.45899 0.1908 0.0
C751 C 0.50071 0.44968 0.17522 0.0
C752 C 0.48747 0.43814 0.16079 0.0
C753 C 0.47065 0.43575 0.1616 0.0
C754 C 0.46724 0.44471 0.1777 0.0
C755 C 0.48049 0.45629 0.19203 0.0
C756 C 0.5119 0.47266 0.20438 0.0
C757 C 0.52628 0.48608 0.19334 0.0
C758 C 0.51099 0.47349 0.22762 0.0
C759 C 0.49591 0.45998 0.24028 0.0
C760 C 0.49014 0.44241 0.23784 0.0
C761 C 0.47521 0.4298 0.24883 0.0
C762 C 0.46588 0.43459 0.26257 0.0
C763 C 0.47213 0.45223 0.26561 0.0
C764 C 0.48691 0.46476 0.25453 0.0
C765 C 0.55003 0.51787 0.24029 0.0
C766 C 0.55185 0.53361 0.23394 0.0
C767 C 0.56216 0.54851 0.24647 0.0
C768 C 0.57073 0.54796 0.26578 0.0
C769 C 0.56898 0.5322 0.27204 0.0
C770 C 0.55868 0.51729 0.25944 0.0
C771 C 0.53808 0.50185 0.22777 0.0
C772 C 0.52421 0.48801 0.239 0.0
C773 C 0.53929 0.50071 0.20468 0.0
C774 C 0.5538 0.5146 0.19181 0.0
C775 C 0.55009 0.52212 0.17395 0.0
C776 C 0.56355 0.53433 0.16073 0.0
C777 C 0.58099 0.53915 0.165 0.0
C778 C 0.58475 0.53194 0.18324 0.0
C779 C 0.57126 0.5198 0.1966 0.0
H780 H 0.55267 0.03546 0.18577 0.0
H781 H 0.57099 0.03209 0.15986 0.0
H782 H 0.55788 0.98383 0.19104 0.0
H783 H 0.53791 0.98643 0.21531 0.0
H784 H 0.51974 0.01694 0.1864 0.0
H785 H 0.56461 0.02737 0.24102 0.0
H786 H 0.58319 0.02017 0.26283 0.0
H787 H 0.53706 0.9756 0.28915 0.0
H788 H 0.51858 0.98254 0.26702 0.0
H789 H 0.48017 0.98805 0.26569 0.0
H790 H 0.4556 0.9867 0.28452 0.0
H791 H 0.46893 0.03574 0.25594 0.0
H792 H 0.49409 0.03742 0.23796 0.0
H793 H 0.51372 0.00803 0.26727 0.0
H794 H 0.46954 0.99303 0.2122 0.0
H795 H 0.44864 0.99437 0.18729 0.0
H796 H 0.4906 0.04188 0.15975 0.0
H797 H 0.51129 0.04085 0.18542 0.0
C798 C 0.54388 0.01126 0.20261 0.0
C799 C 0.55377 0.02416 0.18709 0.0
C800 C 0.56453 0.0223 0.1724 0.0
C801 C 0.56607 0.00764 0.17314 0.0
C802 C 0.55683 0.99514 0.18953 0.0
C803 C 0.54562 0.99677 0.20381 0.0
C804 C 0.53053 0.0123 0.21573 0.0
C805 C 0.51873 0.01541 0.20419 0.0
C806 C 0.52861 0.00939 0.23881 0.0
C807 C 0.54015 0.00543 0.25219 0.0
C808 C 0.55849 0.01595 0.2513 0.0
C809 C 0.5691 0.01184 0.26377 0.0
C810 C 0.56157 0.99732 0.2777 0.0
C811 C 0.54324 0.98696 0.27875 0.0
C812 C 0.53267 0.99093 0.2661 0.0
C813 C 0.48886 0.01273 0.25017 0.0
C814 C 0.47796 0.99864 0.2637 0.0
C815 C 0.46379 0.9978 0.27428 0.0
C816 C 0.46014 0.011 0.27149 0.0
C817 C 0.47141 0.02539 0.25851 0.0
C818 C 0.48569 0.02628 0.24803 0.0
C819 C 0.50319 0.01289 0.2379 0.0
C820 C 0.51505 0.00992 0.24955 0.0
C821 C 0.50495 0.01548 0.21481 0.0
C822 C 0.49198 0.01694 0.20088 0.0
C823 C 0.47418 0.00395 0.20116 0.0
C824 C 0.46227 0.00462 0.18668 0.0
C825 C 0.46793 0.01819 0.17139 0.0
C826 C 0.48572 0.03136 0.17146 0.0
C827 C 0.4976 0.03072 0.18603 0.0
H828 H 0.46506 0.00239 0.84203 0.0
H829 H 0.44179 0.9973 0.86707 0.0
H830 H 0.40445 0.9542 0.82676 0.0
H831 H 0.4281 0.95901 0.80215 0.0
H832 H 0.47551 0.98044 0.83683 0.0
H833 H 0.45007 0.0049 0.79135 0.0
H834 H 0.42847 0.00676 0.76888 0.0
H835 H 0.42955 0.97186 0.72136 0.0
H836 H 0.44929 0.96838 0.7453 0.0
H837 H 0.50128 0.96061 0.78509 0.0
H838 H 0.52691 0.96286 0.76765 0.0
H839 H 0.53996 0.01195 0.73957 0.0
H840 H 0.51459 0.00982 0.75749 0.0
H841 H 0.47984 0.98741 0.75555 0.0
H842 H 0.4877 0.95792 0.83582 0.0
H843 H 0.51064 0.95868 0.85917 0.0
H844 H 0.54784 0.00952 0.83445 0.0
H845 H 0.52483 0.00872 0.81125 0.0
C846 C 0.44835 0.98106 0.82026 0.0
C847 C 0.45182 0.99197 0.83841 0.0
C848 C 0.43843 0.98913 0.85263 0.0
C849 C 0.42121 0.97528 0.84901 0.0
C850 C 0.4176 0.96484 0.83019 0.0
C851 C 0.43107 0.96767 0.81598 0.0
C852 C 0.46314 0.98274 0.80733 0.0
C853 C 0.47631 0.98189 0.81901 0.0
C854 C 0.46433 0.9848 0.78405 0.0
C855 C 0.45112 0.98617 0.77042 0.0
C856 C 0.44522 0.99719 0.77646 0.0
C857 C 0.43309 0.99857 0.7632 0.0
C858 C 0.42705 0.98945 0.74309 0.0
C859 C 0.43335 0.97875 0.7369 0.0
C860 C 0.44498 0.97695 0.75051 0.0
C861 C 0.50618 0.98518 0.77284 0.0
C862 C 0.50964 0.97182 0.77511 0.0
C863 C 0.52419 0.97304 0.76498 0.0
C864 C 0.53552 0.98764 0.75238 0.0
C865 C 0.53161 0.00066 0.74944 0.0
C866 C 0.51705 0.99941 0.75953 0.0
C867 C 0.49165 0.98462 0.78505 0.0
C868 C 0.47868 0.98574 0.77331 0.0
C869 C 0.49058 0.98298 0.80824 0.0
C870 C 0.50461 0.98322 0.82176 0.0
C871 C 0.50082 0.96918 0.83539 0.0
C872 C 0.51394 0.96959 0.84858 0.0
C873 C 0.53102 0.98415 0.84859 0.0
C874 C 0.53477 0.99818 0.83487 0.0
C875 C 0.52169 0.9977 0.82153 0.0
H876 H 0.04021 0.54263 0.83224 0.0
H877 H 0.04585 0.56762 0.8537 0.0
H878 H 0.99227 0.55395 0.84313 0.0
H879 H 0.9865 0.52836 0.82236 0.0
H880 H 0.01851 0.50956 0.84149 0.0
H881 H 0.0227 0.54835 0.78235 0.0
H882 H 0.0141 0.56553 0.76046 0.0
H883 H 0.96256 0.52038 0.75076 0.0
H884 H 0.97116 0.50332 0.77278 0.0
H885 H 0.97796 0.46124 0.77076 0.0
H886 H 0.97827 0.4388 0.7486 0.0
H887 H 0.03356 0.46227 0.7622 0.0
H888 H 0.03317 0.48452 0.7844 0.0
H889 H 0.99621 0.49638 0.76439 0.0
H890 H 0.98879 0.45763 0.81979 0.0
H891 H 0.99187 0.43795 0.84425 0.0
H892 H 0.04331 0.47947 0.86414 0.0
H893 H 0.04041 0.49903 0.83896 0.0
C894 C 0.01298 0.53365 0.82552 0.0
C895 C 0.02966 0.54501 0.83448 0.0
C896 C 0.03291 0.55943 0.84659 0.0
C897 C 0.01956 0.56295 0.85002 0.0
C898 C 0.00283 0.5516 0.84093 0.0
C899 C 0.99955 0.53706 0.82885 0.0
C900 C 0.00973 0.51795 0.81359 0.0
C901 C 0.01391 0.50685 0.82449 0.0
C902 C 0.0027 0.51381 0.79187 0.0
C903 C 0.99752 0.52457 0.77938 0.0
C904 C 0.00947 0.54222 0.77579 0.0
C905 C 0.00455 0.55201 0.76327 0.0
C906 C 0.98766 0.54428 0.75386 0.0
C907 C 0.97572 0.52665 0.75757 0.0
C908 C 0.98061 0.51691 0.77019 0.0
C909 C 0.00553 0.4745 0.77928 0.0
C910 C 0.99011 0.46148 0.76903 0.0
C911 C 0.99028 0.44864 0.7565 0.0
C912 C 0.00595 0.44886 0.75366 0.0
C913 C 0.02133 0.46188 0.764 0.0
C914 C 0.0211 0.47452 0.77677 0.0
C915 C 0.00565 0.48847 0.79205 0.0
C916 C 0.00086 0.49916 0.78136 0.0
C917 C 0.01169 0.49203 0.81416 0.0
C918 C 0.01441 0.4798 0.82742 0.0
C919 C 0.00092 0.46242 0.82897 0.0
C920 C 0.00262 0.45122 0.84316 0.0
C921 C 0.01778 0.45719 0.85626 0.0
C922 C 0.03154 0.47445 0.85413 0.0
C923 C 0.02983 0.48567 0.83989 0.0
H924 H 0.42601 0.49172 0.81855 0.0
H925 H 0.40235 0.46809 0.83943 0.0
H926 H 0.44046 0.46901 0.88481 0.0
H927 H 0.46399 0.49207 0.86342 0.0
H928 H 0.47248 0.52367 0.85605 0.0
H929 H 0.4441 0.50325 0.76691 0.0
H930 H 0.42633 0.47707 0.74476 0.0
H931 H 0.4392 0.44848 0.79036 0.0
H932 H 0.45726 0.47468 0.81195 0.0
H933 H 0.51242 0.52975 0.77995 0.0
H934 H 0.53893 0.5512 0.76118 0.0
H935 H 0.53164 0.59169 0.78549 0.0
H936 H 0.5046 0.57001 0.80334 0.0
H937 H 0.47946 0.5195 0.77565 0.0
H938 H 0.51898 0.53866 0.83945 0.0
H939 H 0.54148 0.5593 0.86462 0.0
H940 H 0.51262 0.58517 0.8718 0.0
H941 H 0.48953 0.56352 0.8476 0.0
C942 C 0.4468 0.49367 0.83938 0.0
C943 C 0.42926 0.48668 0.83285 0.0
C944 C 0.41574 0.47325 0.84489 0.0
C945 C 0.41949 0.4666 0.86378 0.0
C946 C 0.43708 0.47358 0.87016 0.0
C947 C 0.45056 0.48696 0.8581 0.0
C948 C 0.46132 0.50801 0.82685 0.0
C949 C 0.47382 0.52282 0.8384 0.0
C950 C 0.46338 0.50684 0.80391 0.0
C951 C 0.45184 0.49086 0.79118 0.0
C952 C 0.44301 0.4913 0.77213 0.0
C953 C 0.43279 0.47633 0.75959 0.0
C954 C 0.43141 0.46073 0.76578 0.0
C955 C 0.44017 0.46034 0.78499 0.0
C956 C 0.45035 0.47526 0.7975 0.0
C957 C 0.50657 0.54825 0.79323 0.0
C958 C 0.51643 0.54323 0.78107 0.0
C959 C 0.53172 0.55555 0.77054 0.0
C960 C 0.53754 0.57321 0.77197 0.0
C961 C 0.5275 0.5782 0.78391 0.0
C962 C 0.51213 0.56583 0.79435 0.0
C963 C 0.49062 0.53503 0.80491 0.0
C964 C 0.47779 0.52053 0.79316 0.0
C965 C 0.48857 0.53611 0.82782 0.0
C966 C 0.50271 0.54966 0.84167 0.0
C967 C 0.5176 0.54886 0.84638 0.0
C968 C 0.53056 0.56084 0.86065 0.0
C969 C 0.52905 0.57412 0.87025 0.0
C970 C 0.51417 0.57503 0.86505 0.0
C971 C 0.50101 0.56277 0.85109 0.0
H972 H 0.63886 0.85176 0.51417 0.0
H973 H 0.64618 0.87277 0.48443 0.0
H974 H 0.69782 0.90489 0.51288 0.0
H975 H 0.69058 0.88378 0.54228 0.0
H976 H 0.6566 0.83533 0.51739 0.0
H977 H 0.64598 0.87086 0.56589 0.0
H978 H 0.65126 0.89583 0.58774 0.0
H979 H 0.69544 0.89738 0.61965 0.0
H980 H 0.69028 0.87265 0.59773 0.0
H981 H 0.68592 0.82745 0.59667 0.0
H982 H 0.68573 0.80479 0.61912 0.0
H983 H 0.63218 0.76915 0.59917 0.0
H984 H 0.63254 0.79175 0.5763 0.0
H985 H 0.66461 0.84146 0.59855 0.0
H986 H 0.67776 0.80876 0.55174 0.0
H987 H 0.6764 0.78571 0.53034 0.0
H988 H 0.63423 0.78263 0.49084 0.0
H989 H 0.63411 0.80409 0.51446 0.0
C990 C 0.66417 0.86618 0.53047 0.0
C991 C 0.6516 0.86356 0.51432 0.0
C992 C 0.65575 0.8756 0.4974 0.0
C993 C 0.67263 0.89035 0.49623 0.0
C994 C 0.68476 0.89353 0.51327 0.0
C995 C 0.68059 0.88155 0.53021 0.0
C996 C 0.66121 0.85183 0.54523 0.0
C997 C 0.65777 0.83641 0.53523 0.0
C998 C 0.66385 0.85379 0.56837 0.0
C999 C 0.66769 0.86978 0.58017 0.0
C1000 C 0.657 0.87677 0.57729 0.0
C1001 C 0.66002 0.89104 0.58979 0.0
C1002 C 0.67366 0.89847 0.60556 0.0
C1003 C 0.68464 0.89177 0.6079 0.0
C1004 C 0.6817 0.87762 0.59536 0.0
C1005 C 0.65925 0.81126 0.58482 0.0
C1006 C 0.67413 0.81476 0.59718 0.0
C1007 C 0.67406 0.80181 0.60983 0.0
C1008 C 0.65896 0.78526 0.61077 0.0
C1009 C 0.64397 0.78184 0.59871 0.0
C1010 C 0.64416 0.7947 0.58568 0.0
C1011 C 0.65973 0.82489 0.57068 0.0
C1012 C 0.6629 0.84018 0.58076 0.0
C1013 C 0.65728 0.82299 0.5475 0.0
C1014 C 0.65576 0.80803 0.53523 0.0
C1015 C 0.66765 0.80261 0.53919 0.0
C1016 C 0.66718 0.78964 0.52636 0.0
C1017 C 0.6554 0.78229 0.50839 0.0
C1018 C 0.64335 0.78761 0.50463 0.0
C1019 C 0.64341 0.80015 0.51802 0.0
H1020 H 0.18068 0.77909 0.5133 0.0
H1021 H 0.15799 0.76048 0.4863 0.0
H1022 H 0.12231 0.77292 0.51612 0.0
H1023 H 0.14511 0.79189 0.54227 0.0
H1024 H 0.19512 0.81397 0.51804 0.0
H1025 H 0.16671 0.76493 0.57037 0.0
H1026 H 0.14088 0.74132 0.58839 0.0
H1027 H 0.12478 0.7771 0.6062 0.0
H1028 H 0.15106 0.80052 0.5896 0.0
H1029 H 0.19123 0.84202 0.601 0.0
H1030 H 0.20844 0.86685 0.62477 0.0
H1031 H 0.256 0.87327 0.59779 0.0
H1032 H 0.2386 0.84737 0.57542 0.0
H1033 H 0.18637 0.81239 0.59885 0.0
H1034 H 0.20876 0.85921 0.54536 0.0
H1035 H 0.22956 0.88356 0.52275 0.0
H1036 H 0.2537 0.85496 0.50361 0.0
H1037 H 0.23244 0.83049 0.5257 0.0
C1038 C 0.16452 0.78666 0.53007 0.0
C1039 C 0.1679 0.77764 0.51411 0.0
C1040 C 0.1549 0.76695 0.49877 0.0
C1041 C 0.13836 0.76526 0.49902 0.0
C1042 C 0.13496 0.77407 0.5153 0.0
C1043 C 0.14792 0.78474 0.53052 0.0
C1044 C 0.17861 0.79928 0.54508 0.0
C1045 C 0.19349 0.81342 0.5358 0.0
C1046 C 0.17632 0.79881 0.56814 0.0
C1047 C 0.16079 0.78443 0.57887 0.0
C1048 C 0.15763 0.76759 0.57841 0.0
C1049 C 0.14279 0.75412 0.58858 0.0
C1050 C 0.13074 0.75724 0.59903 0.0
C1051 C 0.13396 0.77418 0.59905 0.0
C1052 C 0.14894 0.78763 0.58937 0.0
C1053 C 0.21354 0.84283 0.58615 0.0
C1054 C 0.20537 0.8486 0.60038 0.0
C1055 C 0.21528 0.86303 0.6138 0.0
C1056 C 0.23368 0.87232 0.61309 0.0
C1057 C 0.24188 0.86641 0.599 0.0
C1058 C 0.23192 0.85172 0.58586 0.0
C1059 C 0.20261 0.82755 0.57176 0.0
C1060 C 0.18839 0.8128 0.58119 0.0
C1061 C 0.20532 0.82769 0.54876 0.0
C1062 C 0.21913 0.8431 0.53719 0.0
C1063 C 0.21872 0.85833 0.53653 0.0
C1064 C 0.23068 0.87227 0.52367 0.0
C1065 C 0.24327 0.8712 0.51124 0.0
C1066 C 0.24399 0.85611 0.51265 0.0
C1067 C 0.23194 0.84215 0.52535 0.0
H1068 H 0.15628 0.33095 0.50968 0.0
H1069 H 0.13518 0.33266 0.48588 0.0
H1070 H 0.13988 0.37416 0.52597 0.0
H1071 H 0.16173 0.37286 0.54935 0.0
H1072 H 0.1895 0.35358 0.51739 0.0
H1073 H 0.13699 0.32458 0.56089 0.0
H1074 H 0.11201 0.32261 0.57956 0.0
H1075 H 0.14733 0.36493 0.62229 0.0
H1076 H 0.17232 0.3672 0.60294 0.0
H1077 H 0.22314 0.36267 0.60062 0.0
H1078 H 0.24257 0.35401 0.61695 0.0
H1079 H 0.21353 0.30507 0.58263 0.0
H1080 H 0.195 0.31432 0.56553 0.0
H1081 H 0.18189 0.34242 0.59793 0.0
H1082 H 0.23464 0.3685 0.55618 0.0
H1083 H 0.25898 0.37144 0.53483 0.0
H1084 H 0.22224 0.33414 0.48767 0.0
H1085 H 0.19798 0.33057 0.50979 0.0
C1086 C 0.16053 0.35169 0.5314 0.0
C1087 C 0.15286 0.34049 0.51333 0.0
C1088 C 0.14062 0.34136 0.49986 0.0
C1089 C 0.13567 0.35342 0.50415 0.0
C1090 C 0.14347 0.36477 0.52217 0.0
C1091 C 0.15583 0.36394 0.53565 0.0
C1092 C 0.17354 0.35041 0.54541 0.0
C1093 C 0.18777 0.35106 0.53498 0.0
C1094 C 0.17163 0.34771 0.56852 0.0
C1095 C 0.1565 0.34619 0.58034 0.0
C1096 C 0.13935 0.33351 0.57418 0.0
C1097 C 0.12509 0.3323 0.58502 0.0
C1098 C 0.12768 0.34362 0.60243 0.0
C1099 C 0.14489 0.35617 0.60876 0.0
C1100 C 0.15918 0.3574 0.59786 0.0
C1101 C 0.20781 0.33918 0.58176 0.0
C1102 C 0.22094 0.35003 0.59685 0.0
C1103 C 0.23198 0.345 0.60622 0.0
C1104 C 0.22982 0.3289 0.60091 0.0
C1105 C 0.21597 0.31775 0.58664 0.0
C1106 C 0.2052 0.32292 0.57702 0.0
C1107 C 0.1974 0.34502 0.56964 0.0
C1108 C 0.18373 0.34523 0.58041 0.0
C1109 C 0.1997 0.34837 0.54676 0.0
C1110 C 0.21446 0.34922 0.5347 0.0
C1111 C 0.23182 0.36059 0.5416 0.0
C1112 C 0.24574 0.36242 0.52919 0.0
C1113 C 0.2426 0.3531 0.50945 0.0
C1114 C 0.22518 0.34135 0.50293 0.0
C1115 C 0.21127 0.33943 0.51543 0.0
H1116 H 0.97402 0.38177 0.08471 0.0
H1117 H 0.02817 0.39779 0.07299 0.0
H1118 H 0.03756 0.41854 0.10382 0.0
H1119 H 0.98087 0.42214 0.09611 0.0
H1120 H 0.96497 0.4153 0.11777 0.0
H1121 H 0.96224 0.40037 0.09642 0.0
H1122 H 0.96085 0.3789 0.12585 0.0
H1123 H 0.96339 0.3937 0.14735 0.0
H1124 H 0.97832 0.38607 0.14593 0.0
H1125 H 0.04128 0.4403 0.13218 0.0
H1126 H 0.03901 0.45977 0.15805 0.0
H1127 H 0.98223 0.42783 0.15383 0.0
C1128 C 0.98783 0.38939 0.08891 0.0
C1129 C 0.00036 0.38816 0.07641 0.0
C1130 C 0.01831 0.39842 0.08239 0.0
C1131 C 0.02378 0.41028 0.09986 0.0
C1132 C 0.01112 0.41149 0.11145 0.0
C1133 C 0.99349 0.4011 0.1065 0.0
C1134 C 0.98261 0.40542 0.12096 0.0
C1135 C 0.97206 0.41115 0.10697 0.0
C1136 C 0.97058 0.39011 0.13591 0.0
C1137 C 0.99692 0.4203 0.13422 0.0
C1138 C 0.01326 0.42358 0.12853 0.0
C1139 C 0.02853 0.43757 0.13723 0.0
C1140 C 0.02707 0.44853 0.1521 0.0
C1141 C 0.01042 0.44539 0.15838 0.0
C1142 C 0.9952 0.43084 0.14943 0.0
H1143 H 0.62314 0.61109 0.07192 0.0
H1144 H 0.65138 0.58674 0.05117 0.0
H1145 H 0.64157 0.56842 0.08447 0.0
H1146 H 0.62906 0.60905 0.13256 0.0
H1147 H 0.60712 0.60389 0.13816 0.0
H1148 H 0.61862 0.61702 0.11465 0.0
H1149 H 0.59309 0.59573 0.08896 0.0
H1150 H 0.58156 0.58255 0.11233 0.0
H1151 H 0.58617 0.57318 0.0892 0.0
H1152 H 0.62679 0.55112 0.11798 0.0
H1153 H 0.60625 0.53447 0.1478 0.0
H1154 H 0.58656 0.56915 0.14616 0.0
C1155 C 0.62761 0.60221 0.07474 0.0
C1156 C 0.63817 0.60042 0.05919 0.0
C1157 C 0.64334 0.58831 0.06299 0.0
C1158 C 0.63793 0.57794 0.0819 0.0
C1159 C 0.62724 0.57976 0.09675 0.0
C1160 C 0.62205 0.59152 0.09335 0.0
C1161 C 0.60894 0.58952 0.11048 0.0
C1162 C 0.61639 0.60585 0.12482 0.0
C1163 C 0.59141 0.58497 0.09959 0.0
C1164 C 0.60722 0.5745 0.12364 0.0
C1165 C 0.61818 0.56933 0.11574 0.0
C1166 C 0.61831 0.55519 0.12452 0.0
C1167 C 0.60666 0.54585 0.14152 0.0
C1168 C 0.59489 0.55057 0.14934 0.0
C1169 C 0.59545 0.56528 0.14052 0.0
H1170 H 0.39137 0.97578 0.08114 0.0
H1171 H 0.40089 0.0269 0.06704 0.0
H1172 H 0.42403 0.03913 0.09602 0.0
H1173 H 0.39752 0.98078 0.13983 0.0
H1174 H 0.40814 0.96854 0.14165 0.0
H1175 H 0.3923 0.96395 0.12003 0.0
H1176 H 0.41515 0.96863 0.0906 0.0
H1177 H 0.43103 0.97316 0.11212 0.0
H1178 H 0.43604 0.98862 0.09038 0.0
H1179 H 0.44632 0.04559 0.12687 0.0
H1180 H 0.46606 0.0458 0.15597 0.0
H1181 H 0.4419 0.99039 0.1486 0.0
C1182 C 0.39825 0.98956 0.0841 0.0
C1183 C 0.39426 0.00037 0.0718 0.0
C1184 C 0.40371 0.01835 0.07623 0.0
C1185 C 0.41684 0.0254 0.09269 0.0
C1186 C 0.42038 0.01431 0.10452 0.0
C1187 C 0.41136 0.99678 0.10033 0.0
C1188 C 0.41775 0.98761 0.115 0.0
C1189 C 0.40305 0.97445 0.13001 0.0
C1190 C 0.42545 0.979 0.1012 0.0
C1191 C 0.43183 0.0027 0.12814 0.0
C1192 C 0.43316 0.01801 0.12196 0.0
C1193 C 0.44539 0.03367 0.13179 0.0
C1194 C 0.4566 0.03367 0.14823 0.0
C1195 C 0.45554 0.01811 0.15467 0.0
C1196 C 0.44289 0.00247 0.14443 0.0
H1197 H 0.38141 0.9948 0.95377 0.0
H1198 H 0.35258 0.93964 0.96617 0.0
H1199 H 0.36196 0.93472 0.93029 0.0
H1200 H 0.37404 0.99233 0.89306 0.0
H1201 H 0.39586 0.0102 0.88798 0.0
H1202 H 0.38505 0.00929 0.9133 0.0
H1203 H 0.41113 0.01192 0.93579 0.0
H1204 H 0.42199 0.01282 0.9106 0.0
H1205 H 0.41789 0.99667 0.93103 0.0
H1206 H 0.37657 0.93587 0.89501 0.0
H1207 H 0.3964 0.94311 0.86359 0.0
H1208 H 0.41576 0.99754 0.8736 0.0
C1209 C 0.37675 0.98166 0.9487 0.0
C1210 C 0.36617 0.96759 0.96272 0.0
C1211 C 0.36068 0.95062 0.95571 0.0
C1212 C 0.36586 0.94768 0.93529 0.0
C1213 C 0.37653 0.96184 0.92203 0.0
C1214 C 0.38194 0.9785 0.92842 0.0
C1215 C 0.39464 0.99153 0.91198 0.0
C1216 C 0.38693 0.00142 0.90092 0.0
C1217 C 0.41246 0.00396 0.92301 0.0
C1218 C 0.39591 0.9796 0.89573 0.0
C1219 C 0.38514 0.96252 0.90166 0.0
C1220 C 0.38484 0.94919 0.88997 0.0
C1221 C 0.39609 0.95344 0.87202 0.0
C1222 C 0.4076 0.9709 0.86595 0.0
C1223 C 0.40716 0.98407 0.87778 0.0
H1224 H 0.98158 0.39171 0.95684 0.0
H1225 H 0.03203 0.39579 0.96156 0.0
H1226 H 0.0421 0.41511 0.92904 0.0
H1227 H 0.97872 0.3914 0.89733 0.0
H1228 H 0.9684 0.40394 0.89684 0.0
H1229 H 0.96518 0.39008 0.91996 0.0
H1230 H 0.97635 0.41608 0.94666 0.0
H1231 H 0.97958 0.43001 0.92365 0.0
H1232 H 0.99753 0.43518 0.94226 0.0
H1233 H 0.04684 0.43511 0.8966 0.0
H1234 H 0.04556 0.45337 0.86699 0.0
H1235 H 0.99192 0.43564 0.8844 0.0
C1236 C 0.99474 0.39656 0.95104 0.0
C1237 C 0.00602 0.39223 0.96179 0.0
C1238 C 0.02313 0.3989 0.95358 0.0
C1239 C 0.02896 0.40988 0.93513 0.0
C1240 C 0.01749 0.41396 0.92505 0.0
C1241 C 0.00071 0.40742 0.93272 0.0
C1242 C 0.99096 0.41392 0.91936 0.0
C1243 C 0.97487 0.39894 0.90768 0.0
C1244 C 0.98581 0.42442 0.93385 0.0
C1245 C 0.0049 0.4253 0.90303 0.0
C1246 C 0.02013 0.4252 0.90649 0.0
C1247 C 0.03494 0.43519 0.89369 0.0
C1248 C 0.03413 0.44557 0.877 0.0
C1249 C 0.01859 0.4458 0.87326 0.0
C1250 C 0.00385 0.43547 0.88649 0.0
H1251 H 0.62033 0.6153 0.93236 0.0
H1252 H 0.59854 0.62995 0.98533 0.0
H1253 H 0.57221 0.62148 0.96221 0.0
H1254 H 0.60225 0.62934 0.88614 0.0
H1255 H 0.59872 0.6116 0.869 0.0
H1256 H 0.61661 0.62104 0.88865 0.0
H1257 H 0.60507 0.5909 0.90605 0.0
H1258 H 0.58709 0.58141 0.88669 0.0
H1259 H 0.5829 0.57875 0.91589 0.0
H1260 H 0.5464 0.60658 0.93569 0.0
H1261 H 0.5244 0.58886 0.90727 0.0
H1262 H 0.56449 0.58676 0.87021 0.0
C1263 C 0.61019 0.61711 0.93888 0.0
C1264 C 0.61136 0.62321 0.96058 0.0
C1265 C 0.59788 0.62541 0.96865 0.0
C1266 C 0.58291 0.62061 0.95565 0.0
C1267 C 0.58191 0.61411 0.93449 0.0
C1268 C 0.59541 0.61275 0.92601 0.0
C1269 C 0.59084 0.60452 0.90335 0.0
C1270 C 0.60282 0.6174 0.88575 0.0
C1271 C 0.59151 0.58791 0.903 0.0
C1272 C 0.5723 0.6006 0.90085 0.0
C1273 C 0.56738 0.6063 0.91887 0.0
C1274 C 0.55027 0.60251 0.9212 0.0
C1275 C 0.53785 0.59247 0.90485 0.0
C1276 C 0.5426 0.58636 0.8863 0.0
C1277 C 0.56024 0.59099 0.88417 0.0
H1278 H 0.00413 0.61056 0.94981 0.0
H1279 H 0.05814 0.65192 0.94206 0.0
H1280 H 0.06004 0.63814 0.90801 0.0
H1281 H 0.01122 0.57749 0.93512 0.0
H1282 H 0.99053 0.56439 0.92102 0.0
H1283 H 0.99251 0.57872 0.9428 0.0
H1284 H 0.98123 0.59337 0.91629 0.0
H1285 H 0.97921 0.57905 0.89438 0.0
H1286 H 0.99216 0.60209 0.89046 0.0
H1287 H 0.05671 0.61914 0.8763 0.0
H1288 H 0.04927 0.59522 0.85067 0.0
H1289 H 0.99807 0.56496 0.88057 0.0
C1290 C 0.01619 0.61691 0.9406 0.0
C1291 C 0.03093 0.63243 0.94832 0.0
C1292 C 0.04669 0.64009 0.93629 0.0
C1293 C 0.04786 0.6324 0.9169 0.0
C1294 C 0.0332 0.61694 0.9099 0.0
C1295 C 0.01769 0.6092 0.92144 0.0
C1296 C 0.00452 0.59171 0.91167 0.0
C1297 C 0.9994 0.57723 0.92866 0.0
C1298 C 0.98832 0.59156 0.90266 0.0
C1299 C 0.01516 0.5907 0.89311 0.0
C1300 C 0.03154 0.60554 0.89215 0.0
C1301 C 0.04392 0.60746 0.87688 0.0
C1302 C 0.03961 0.59372 0.8625 0.0
C1303 C 0.02313 0.57809 0.86367 0.0
C1304 C 0.01067 0.57678 0.87898 0.0
H1305 H 0.37937 0.39208 0.95403 0.0
H1306 H 0.33979 0.4051 0.96437 0.0
H1307 H 0.34981 0.42368 0.93134 0.0
H1308 H 0.41223 0.43315 0.94116 0.0
H1309 H 0.42256 0.42733 0.92049 0.0
H1310 H 0.41021 0.41233 0.94204 0.0
H1311 H 0.39074 0.38919 0.91289 0.0
H1312 H 0.40318 0.40409 0.89117 0.0
H1313 H 0.37974 0.39426 0.89182 0.0
H1314 H 0.36639 0.44367 0.90069 0.0
H1315 H 0.38873 0.46418 0.87492 0.0
H1316 H 0.41814 0.43883 0.88443 0.0
C1317 C 0.37242 0.39834 0.94879 0.0
C1318 C 0.35864 0.39698 0.96149 0.0
C1319 C 0.35027 0.40588 0.95471 0.0
C1320 C 0.35584 0.41641 0.93595 0.0
C1321 C 0.36986 0.41798 0.92417 0.0
C1322 C 0.37803 0.40915 0.93025 0.0
C1323 C 0.39411 0.41474 0.91638 0.0
C1324 C 0.41075 0.42234 0.93089 0.0
C1325 C 0.3918 0.39967 0.90222 0.0
C1326 C 0.39404 0.4285 0.90219 0.0
C1327 C 0.37975 0.42991 0.90666 0.0
C1328 C 0.37745 0.44247 0.89671 0.0
C1329 C 0.3902 0.45404 0.88201 0.0
C1330 C 0.40518 0.4531 0.87751 0.0
C1331 C 0.40688 0.43992 0.88752 0.0
H1332 H 0.60533 0.02492 0.94178 0.0
H1333 H 0.60572 0.97729 0.94091 0.0
H1334 H 0.58398 0.96639 0.91043 0.0
H1335 H 0.55981 0.00575 0.93244 0.0
H1336 H 0.56192 0.02297 0.91524 0.0
H1337 H 0.57825 0.02741 0.93608 0.0
H1338 H 0.60244 0.04058 0.90645 0.0
H1339 H 0.58618 0.0362 0.88549 0.0
H1340 H 0.60051 0.02795 0.88251 0.0
H1341 H 0.56095 0.96005 0.88141 0.0
H1342 H 0.53887 0.95909 0.85551 0.0
H1343 H 0.55378 0.01087 0.87543 0.0
C1344 C 0.60102 0.01227 0.93506 0.0
C1345 C 0.60728 0.00198 0.94374 0.0
C1346 C 0.60115 0.98544 0.93453 0.0
C1347 C 0.58881 0.97913 0.9172 0.0
C1348 C 0.58277 0.98953 0.90922 0.0
C1349 C 0.58872 0.00577 0.91779 0.0
C1350 C 0.57974 0.01416 0.90679 0.0
C1351 C 0.56931 0.01778 0.92364 0.0
C1352 C 0.59301 0.0307 0.89458 0.0
C1353 C 0.5677 1.00004 0.8908 0.0
C1354 C 0.56963 0.98594 0.89243 0.0
C1355 C 0.55942 0.97107 0.87987 0.0
C1356 C 0.54687 0.9706 0.86531 0.0
C1357 C 0.54471 0.98493 0.8634 0.0
C1358 C 0.55536 0.99984 0.87626 0.0
H1359 H 0.62879 0.03609 0.06967 0.0
H1360 H 0.60621 0.98173 0.05497 0.0
H1361 H 0.59031 0.97408 0.09022 0.0
H1362 H 0.63369 0.03204 0.13008 0.0
H1363 H 0.62853 0.04824 0.13652 0.0
H1364 H 0.63926 0.04942 0.11101 0.0
H1365 H 0.61459 0.05013 0.08911 0.0
H1366 H 0.60378 0.04889 0.11448 0.0
H1367 H 0.59215 0.03311 0.09307 0.0
H1368 H 0.57383 0.97242 0.12421 0.0
H1369 H 0.55934 0.97675 0.15546 0.0
H1370 H 0.59527 0.03224 0.15054 0.0
C1371 C 0.62068 0.02259 0.07403 0.0
C1372 C 0.61865 0.00949 0.05958 0.0
C1373 C 0.60799 0.99197 0.06585 0.0
C1374 C 0.59892 0.9875 0.08583 0.0
C1375 C 0.60099 0.00071 0.09956 0.0
C1376 C 0.61184 0.01791 0.09412 0.0
C1377 C 0.61134 0.02959 0.11145 0.0
C1378 C 0.62927 0.04047 0.12295 0.0
C1379 C 0.60509 0.0411 0.10142 0.0
C1380 C 0.59793 0.01628 0.12697 0.0
C1381 C 0.59216 0.99971 0.11987 0.0
C1382 C 0.57859 0.98533 0.13031 0.0
C1383 C 0.5705 0.98796 0.14827 0.0
C1384 C 0.57612 0.00487 0.15584 0.0
C1385 C 0.5904 0.01912 0.14525 0.0
H1386 H 0.03461 0.62128 0.06885 0.0
H1387 H 0.98211 0.61179 0.0599 0.0
H1388 H 0.9725 0.59299 0.09284 0.0
H1389 H 0.02172 0.57854 0.08559 0.0
H1390 H 0.03942 0.58556 0.10529 0.0
H1391 H 0.04212 0.59858 0.08144 0.0
H1392 H 0.05038 0.62468 0.10689 0.0
H1393 H 0.04758 0.61169 0.13085 0.0
H1394 H 0.03556 0.62252 0.1283 0.0
H1395 H 0.96865 0.57494 0.1267 0.0
H1396 H 0.97055 0.55819 0.15772 0.0
H1397 H 0.02548 0.57927 0.14373 0.0
C1398 C 0.02109 0.6153 0.07379 0.0
C1399 C 0.00912 0.61806 0.06177 0.0
C1400 C 0.99152 0.60988 0.06881 0.0
C1401 C 0.98596 0.59922 0.08754 0.0
C1402 C 0.99814 0.59687 0.09904 0.0
C1403 C 0.01532 0.60462 0.09236 0.0
C1404 C 0.02573 0.59967 0.10718 0.0
C1405 C 0.03265 0.59001 0.09409 0.0
C1406 C 0.0407 0.61559 0.11901 0.0
C1407 C 0.0117 0.58782 0.12321 0.0
C1408 C 0.9959 0.58643 0.11834 0.0
C1409 C 0.98096 0.57593 0.13065 0.0
C1410 C 0.98216 0.56643 0.14818 0.0
C1411 C 0.99817 0.56742 0.15321 0.0
C1412 C 0.01313 0.57844 0.14062 0.0
H1413 H 0.3938 0.41305 0.07548 0.0
H1414 H 0.39258 0.3659 0.05936 0.0
H1415 H 0.41659 0.37375 0.08638 0.0
H1416 H 0.44046 0.44012 0.08208 0.0
H1417 H 0.43896 0.4522 0.10456 0.0
H1418 H 0.42193 0.4428 0.0838 0.0
H1419 H 0.39886 0.42666 0.11423 0.0
H1420 H 0.41583 0.43591 0.13508 0.0
H1421 H 0.40154 0.41281 0.13317 0.0
H1422 H 0.44066 0.38691 0.11597 0.0
H1423 H 0.46278 0.40431 0.14473 0.0
H1424 H 0.44791 0.44272 0.14031 0.0
C1425 C 0.39856 0.40434 0.07751 0.0
C1426 C 0.39128 0.38884 0.06528 0.0
C1427 C 0.39797 0.37786 0.06851 0.0
C1428 C 0.41158 0.3822 0.08384 0.0
C1429 C 0.41835 0.39755 0.09573 0.0
C1430 C 0.41207 0.40846 0.09263 0.0
C1431 C 0.42144 0.42418 0.10738 0.0
C1432 C 0.43129 0.4408 0.09363 0.0
C1433 C 0.40865 0.42492 0.12341 0.0
C1434 C 0.43397 0.42044 0.11941 0.0
C1435 C 0.43204 0.40504 0.11253 0.0
C1436 C 0.44229 0.399 0.12141 0.0
C1437 C 0.45486 0.409 0.13767 0.0
C1438 C 0.45704 0.42485 0.14488 0.0
C1439 C 0.44639 0.43053 0.13552 0.0
H1440 H 0.6234 0.71347 0.40997 0.0
H1441 H 0.67656 0.72388 0.40838 0.0
H1442 H 0.68402 0.74212 0.44144 0.0
H1443 H 0.63383 0.7547 0.42517 0.0
H1444 H 0.61572 0.74797 0.44357 0.0
H1445 H 0.61379 0.73422 0.42105 0.0
H1446 H 0.60588 0.70921 0.44835 0.0
H1447 H 0.60762 0.72285 0.47099 0.0
H1448 H 0.62033 0.71266 0.47136 0.0
H1449 H 0.68695 0.76226 0.47105 0.0
H1450 H 0.68466 0.78124 0.4975 0.0
H1451 H 0.62887 0.75596 0.48293 0.0
C1452 C 0.63651 0.7193 0.41683 0.0
C1453 C 0.64939 0.71723 0.40649 0.0
C1454 C 0.66643 0.7252 0.41595 0.0
C1455 C 0.67082 0.73561 0.43477 0.0
C1456 C 0.65798 0.73774 0.44421 0.0
C1457 C 0.64109 0.72961 0.43584 0.0
C1458 C 0.63001 0.73464 0.44876 0.0
C1459 C 0.62293 0.7434 0.43374 0.0
C1460 C 0.61508 0.7189 0.46057 0.0
C1461 C 0.6435 0.74734 0.46513 0.0
C1462 C 0.65952 0.74888 0.46219 0.0
C1463 C 0.67436 0.76081 0.474 0.0
C1464 C 0.67283 0.77149 0.48923 0.0
C1465 C 0.65649 0.77008 0.49291 0.0
C1466 C 0.64162 0.75759 0.48071 0.0
H1467 H 0.28696 0.90922 0.39497 0.0
H1468 H 0.30204 0.9601 0.41929 0.0
H1469 H 0.29062 0.94768 0.45608 0.0
H1470 H 0.24687 0.88676 0.42272 0.0
H1471 H 0.24816 0.86793 0.42824 0.0
H1472 H 0.25894 0.88113 0.40457 0.0
H1473 H 0.2884 0.88506 0.41807 0.0
H1474 H 0.27769 0.87187 0.44185 0.0
H1475 H 0.29645 0.89335 0.44543 0.0
H1476 H 0.27621 0.92927 0.48982 0.0
H1477 H 0.25927 0.90637 0.51718 0.0
H1478 H 0.25278 0.86772 0.46971 0.0
C1479 C 0.28812 0.91783 0.40809 0.0
C1480 C 0.29549 0.93566 0.40429 0.0
C1481 C 0.29648 0.94641 0.42184 0.0
C1482 C 0.29008 0.93948 0.4428 0.0
C1483 C 0.28272 0.9218 0.4459 0.0
C1484 C 0.28169 0.91114 0.42899 0.0
C1485 C 0.27223 0.89245 0.43611 0.0
C1486 C 0.25556 0.88143 0.42208 0.0
C1487 C 0.28443 0.88527 0.43532 0.0
C1488 C 0.26788 0.8942 0.4596 0.0
C1489 C 0.27417 0.91122 0.46506 0.0
C1490 C 0.27128 0.9159 0.48573 0.0
C1491 C 0.26154 0.90279 0.50111 0.0
C1492 C 0.25471 0.88522 0.49567 0.0
C1493 C 0.25811 0.88101 0.47465 0.0
H1494 H 0.05459 0.31357 0.42107 0.0
H1495 H 0.06848 0.36571 0.40426 0.0
H1496 H 0.0919 0.37719 0.43285 0.0
H1497 H 0.06253 0.32067 0.48031 0.0
H1498 H 0.07109 0.30662 0.48245 0.0
H1499 H 0.05488 0.30268 0.46162 0.0
H1500 H 0.07557 0.30365 0.43132 0.0
H1501 H 0.09184 0.30761 0.45201 0.0
H1502 H 0.09734 0.32235 0.42924 0.0
H1503 H 0.11515 0.38285 0.46196 0.0
H1504 H 0.13595 0.38212 0.48855 0.0
H1505 H 0.10572 0.32612 0.48654 0.0
C1506 C 0.06244 0.32741 0.42345 0.0
C1507 C 0.0597 0.33874 0.41037 0.0
C1508 C 0.0703 0.35677 0.4141 0.0
C1509 C 0.08362 0.36341 0.43032 0.0
C1510 C 0.08604 0.35183 0.44276 0.0
C1511 C 0.07565 0.33421 0.43955 0.0
C1512 C 0.08117 0.32446 0.45448 0.0
C1513 C 0.06655 0.31293 0.47068 0.0
C1514 C 0.08682 0.3139 0.44095 0.0
C1515 C 0.09657 0.33935 0.4663 0.0
C1516 C 0.09916 0.35505 0.45949 0.0
C1517 C 0.11311 0.37061 0.46757 0.0
C1518 C 0.12481 0.37006 0.48276 0.0
C1519 C 0.12251 0.35407 0.48962 0.0
C1520 C 0.10799 0.33857 0.48148 0.0
H1521 H 0.03572 0.29274 0.29984 0.0
H1522 H 0.04146 0.3428 0.28958 0.0
H1523 H 0.05512 0.34517 0.25359 0.0
H1524 H 0.07598 0.30346 0.27928 0.0
H1525 H 0.06866 0.28295 0.26623 0.0
H1526 H 0.05719 0.28408 0.28969 0.0
H1527 H 0.02822 0.26942 0.26701 0.0
H1528 H 0.03962 0.26822 0.24342 0.0
H1529 H 0.02722 0.27866 0.24105 0.0
H1530 H 0.07151 0.34385 0.22127 0.0
H1531 H 0.08896 0.3386 0.19462 0.0
H1532 H 0.072 0.28919 0.2253 0.0
C1533 C 0.03948 0.30404 0.28983 0.0
C1534 C 0.03746 0.31757 0.29755 0.0
C1535 C 0.0428 0.33223 0.28403 0.0
C1536 C 0.05054 0.33368 0.26351 0.0
C1537 C 0.05269 0.32028 0.25663 0.0
C1538 C 0.04718 0.30567 0.26929 0.0
C1539 C 0.05221 0.29373 0.25892 0.0
C1540 C 0.06423 0.2909 0.27445 0.0
C1541 C 0.03584 0.27648 0.2522 0.0
C1542 C 0.06194 0.30419 0.23885 0.0
C1543 C 0.06192 0.3194 0.23772 0.0
C1544 C 0.07132 0.33184 0.22172 0.0
C1545 C 0.08121 0.32879 0.20672 0.0
C1546 C 0.08158 0.31341 0.2078 0.0
C1547 C 0.07154 0.30084 0.2238 0.0
H1548 H 0.63815 0.72859 0.28632 0.0
H1549 H 0.68839 0.73246 0.29367 0.0
H1550 H 0.6998 0.7528 0.26237 0.0
H1551 H 0.63775 0.73019 0.22687 0.0
H1552 H 0.62764 0.74291 0.22587 0.0
H1553 H 0.62337 0.72845 0.24863 0.0
H1554 H 0.63367 0.75382 0.27617 0.0
H1555 H 0.63793 0.76834 0.2535 0.0
H1556 H 0.65508 0.7729 0.27319 0.0
H1557 H 0.70586 0.77314 0.23053 0.0
H1558 H 0.70601 0.79188 0.20067 0.0
H1559 H 0.6519 0.77474 0.21468 0.0
C1560 C 0.65155 0.73366 0.28135 0.0
C1561 C 0.66236 0.7289 0.29248 0.0
C1562 C 0.67983 0.73589 0.28542 0.0
C1563 C 0.68644 0.74745 0.26764 0.0
C1564 C 0.67542 0.75187 0.25708 0.0
C1565 C 0.65834 0.74518 0.26368 0.0
C1566 C 0.64926 0.75216 0.24977 0.0
C1567 C 0.63358 0.73756 0.23703 0.0
C1568 C 0.64366 0.76241 0.26401 0.0
C1569 C 0.6639 0.76387 0.23437 0.0
C1570 C 0.67889 0.76353 0.23881 0.0
C1571 C 0.69419 0.77351 0.2269 0.0
C1572 C 0.69418 0.78416 0.21006 0.0
C1573 C 0.67896 0.78474 0.2053 0.0
C1574 C 0.66366 0.77439 0.21765 0.0
H1575 H 0.26778 0.92361 0.28818 0.0
H1576 H 0.27308 0.97305 0.30164 0.0
H1577 H 0.25004 0.96649 0.27347 0.0
H1578 H 0.26172 0.92347 0.23022 0.0
H1579 H 0.24614 0.90057 0.22889 0.0
H1580 H 0.26271 0.90925 0.25025 0.0
H1581 H 0.23872 0.895 0.28008 0.0
H1582 H 0.22208 0.88622 0.25881 0.0
H1583 H 0.22129 0.89941 0.28036 0.0
H1584 H 0.22622 0.95399 0.24285 0.0
H1585 H 0.20447 0.93709 0.21339 0.0
H1586 H 0.21545 0.89617 0.22174 0.0
C1587 C 0.26417 0.93315 0.28533 0.0
C1588 C 0.27229 0.94888 0.29713 0.0
C1589 C 0.26704 0.9609 0.29281 0.0
C1590 C 0.25398 0.95728 0.27684 0.0
C1591 C 0.24632 0.9416 0.26546 0.0
C1592 C 0.25127 0.92976 0.26964 0.0
C1593 C 0.24128 0.91386 0.25535 0.0
C1594 C 0.25371 0.91167 0.24029 0.0
C1595 C 0.23018 0.89767 0.2695 0.0
C1596 C 0.22993 0.91856 0.24226 0.0
C1597 C 0.23291 0.93455 0.24823 0.0
C1598 C 0.22381 0.94145 0.23812 0.0
C1599 C 0.21144 0.93175 0.22148 0.0
C1600 C 0.20837 0.91538 0.2151 0.0
C1601 C 0.21772 0.90878 0.22585 0.0
H1602 H 0.67571 0.95386 0.26977 0.0
H1603 H 0.73175 0.98985 0.26522 0.0
H1604 H 0.73219 0.97619 0.23045 0.0
H1605 H 0.67594 0.91796 0.25307 0.0
H1606 H 0.65589 0.9082 0.23712 0.0
H1607 H 0.65913 0.92247 0.2596 0.0
H1608 H 0.65356 0.94171 0.23329 0.0
H1609 H 0.65009 0.92737 0.2107 0.0
H1610 H 0.66626 0.95006 0.20853 0.0
H1611 H 0.72768 0.95614 0.20011 0.0
H1612 H 0.71836 0.93174 0.17499 0.0
H1613 H 0.66475 0.90917 0.19716 0.0
C1614 C 0.68796 0.95921 0.26108 0.0
C1615 C 0.70369 0.97297 0.2702 0.0
C1616 C 0.71953 0.97934 0.25857 0.0
C1617 C 0.71991 0.9717 0.23875 0.0
C1618 C 0.70433 0.95778 0.23061 0.0
C1619 C 0.68859 0.95169 0.24121 0.0
C1620 C 0.67404 0.93559 0.22992 0.0
C1621 C 0.66578 0.92015 0.24588 0.0
C1622 C 0.66017 0.93888 0.22002 0.0
C1623 C 0.68426 0.93319 0.21197 0.0
C1624 C 0.70165 0.94626 0.21255 0.0
C1625 C 0.71399 0.94609 0.19902 0.0
C1626 C 0.70848 0.93213 0.1846 0.0
C1627 C 0.69069 0.91846 0.18362 0.0
C1628 C 0.67843 0.91928 0.19734 0.0
H1629 H 0.02999 0.74867 0.29188 0.0
H1630 H 0.04729 0.71208 0.2897 0.0
H1631 H 0.06326 0.72555 0.2554 0.0
H1632 H 0.02483 0.75047 0.23071 0.0
H1633 H 0.03226 0.77312 0.23151 0.0
H1634 H 0.02076 0.75951 0.25467 0.0
H1635 H 0.04662 0.78 0.28049 0.0
H1636 H 0.05827 0.79354 0.25742 0.0
H1637 H 0.06833 0.78467 0.27442 0.0
H1638 H 0.08109 0.74579 0.2254 0.0
H1639 H 0.09696 0.76918 0.19899 0.0
H1640 H 0.0653 0.79071 0.21725 0.0
C1641 C 0.03684 0.74328 0.28392 0.0
C1642 C 0.03743 0.72935 0.29347 0.0
C1643 C 0.04656 0.72267 0.28261 0.0
C1644 C 0.05571 0.73025 0.26314 0.0
C1645 C 0.05526 0.74425 0.25448 0.0
C1646 C 0.04574 0.75047 0.26421 0.0
C1647 C 0.0479 0.76601 0.25186 0.0
C1648 C 0.03039 0.76203 0.24157 0.0
C1649 C 0.05575 0.782 0.26695 0.0
C1650 C 0.0607 0.768 0.23426 0.0
C1651 C 0.06477 0.75532 0.23612 0.0
C1652 C 0.07756 0.75544 0.22323 0.0
C1653 C 0.08644 0.76883 0.20801 0.0
C1654 C 0.08231 0.78189 0.20532 0.0
C1655 C 0.06901 0.78117 0.21862 0.0
H1656 H 0.28136 0.35189 0.28145 0.0
H1657 H 0.26789 0.30177 0.30713 0.0
H1658 H 0.24315 0.28769 0.28036 0.0
H1659 H 0.23856 0.34302 0.27393 0.0
H1660 H 0.2432 0.35531 0.24882 0.0
H1661 H 0.26029 0.36113 0.26902 0.0
H1662 H 0.27947 0.3586 0.23935 0.0
H1663 H 0.26243 0.3528 0.21901 0.0
H1664 H 0.27081 0.33881 0.22389 0.0
H1665 H 0.21858 0.27946 0.25211 0.0
H1666 H 0.19688 0.27783 0.225 0.0
H1667 H 0.22781 0.33351 0.21746 0.0
C1668 C 0.27331 0.33793 0.28143 0.0
C1669 C 0.27651 0.32792 0.29646 0.0
C1670 C 0.26568 0.30969 0.29574 0.0
C1671 C 0.25162 0.3016 0.2806 0.0
C1672 C 0.24874 0.31193 0.26618 0.0
C1673 C 0.25941 0.3297 0.26641 0.0
C1674 C 0.25343 0.33802 0.24971 0.0
C1675 C 0.24858 0.35008 0.26105 0.0
C1676 C 0.26736 0.34762 0.23194 0.0
C1677 C 0.23745 0.32219 0.24031 0.0
C1678 C 0.23495 0.30723 0.24987 0.0
C1679 C 0.22055 0.29109 0.24434 0.0
C1680 C 0.20834 0.29029 0.22884 0.0
C1681 C 0.2106 0.30555 0.21908 0.0
C1682 C 0.22554 0.32162 0.22475 0.0
H1683 H 0.2865 0.33289 0.41009 0.0
H1684 H 0.32215 0.38822 0.40494 0.0
H1685 H 0.31132 0.3924 0.44018 0.0
H1686 H 0.25139 0.33508 0.42775 0.0
H1687 H 0.24277 0.31706 0.44649 0.0
H1688 H 0.25551 0.3179 0.42328 0.0
H1689 H 0.27692 0.315 0.44946 0.0
H1690 H 0.26415 0.31402 0.47282 0.0
H1691 H 0.28722 0.32998 0.47204 0.0
H1692 H 0.2943 0.39107 0.47281 0.0
H1693 H 0.27163 0.38449 0.50024 0.0
H1694 H 0.24645 0.32994 0.48455 0.0
C1695 C 0.29241 0.3458 0.41682 0.0
C1696 C 0.30529 0.36023 0.40501 0.0
C1697 C 0.31233 0.37701 0.41385 0.0
C1698 C 0.30633 0.37949 0.43389 0.0
C1699 C 0.29323 0.36507 0.44484 0.0
C1700 C 0.28635 0.34853 0.43669 0.0
C1701 C 0.27096 0.3355 0.45032 0.0
C1702 C 0.25417 0.32583 0.43611 0.0
C1703 C 0.27506 0.32288 0.46185 0.0
C1704 C 0.26989 0.34738 0.46685 0.0
C1705 C 0.28308 0.36433 0.46364 0.0
C1706 C 0.28412 0.37781 0.47581 0.0
C1707 C 0.27119 0.37392 0.49146 0.0
C1708 C 0.2573 0.35668 0.49474 0.0
C1709 C 0.25689 0.34325 0.48248 0.0
H1710 H 0.66876 0.9459 0.39477 0.0
H1711 H 0.71778 0.95156 0.37399 0.0
H1712 H 0.71655 0.93341 0.40481 0.0
H1713 H 0.67724 0.94792 0.45233 0.0
H1714 H 0.65525 0.93178 0.46003 0.0
H1715 H 0.65895 0.94432 0.43536 0.0
H1716 H 0.64203 0.9163 0.41215 0.0
H1717 H 0.63813 0.90366 0.4368 0.0
H1718 H 0.64857 0.9006 0.41351 0.0
H1719 H 0.71177 0.91685 0.43872 0.0
H1720 H 0.70218 0.90028 0.47327 0.0
H1721 H 0.65584 0.90414 0.47305 0.0
C1722 C 0.67903 0.94304 0.39652 0.0
C1723 C 0.6934 0.95025 0.38195 0.0
C1724 C 0.70669 0.94633 0.38495 0.0
C1725 C 0.70613 0.936 0.40242 0.0
C1726 C 0.69214 0.92951 0.41681 0.0
C1727 C 0.67869 0.93263 0.41402 0.0
C1728 C 0.66546 0.92426 0.43244 0.0
C1729 C 0.66415 0.93789 0.44583 0.0
C1730 C 0.64748 0.91038 0.42317 0.0
C1731 C 0.67379 0.91625 0.44604 0.0
C1732 C 0.6892 0.91954 0.43662 0.0
C1733 C 0.69967 0.91407 0.44624 0.0
C1734 C 0.6942 0.90482 0.46598 0.0
C1735 C 0.67836 0.90105 0.47594 0.0
C1736 C 0.66799 0.90681 0.46576 0.0
H1737 H 0.0629 0.74633 0.41214 0.0
H1738 H 0.05862 0.69756 0.39705 0.0
H1739 H 0.08215 0.70428 0.42431 0.0
H1740 H 0.10948 0.77124 0.41868 0.0
H1741 H 0.10902 0.78404 0.44101 0.0
H1742 H 0.09181 0.77523 0.42046 0.0
H1743 H 0.06869 0.76029 0.45115 0.0
H1744 H 0.08584 0.76905 0.47179 0.0
H1745 H 0.07057 0.74609 0.47033 0.0
H1746 H 0.10656 0.71673 0.45333 0.0
H1747 H 0.12918 0.73354 0.48187 0.0
H1748 H 0.11719 0.774 0.47708 0.0
C1749 C 0.06685 0.73701 0.41453 0.0
C1750 C 0.05889 0.72141 0.40242 0.0
C1751 C 0.06451 0.7096 0.40612 0.0
C1752 C 0.07787 0.71331 0.42156 0.0
C1753 C 0.08546 0.72885 0.43316 0.0
C1754 C 0.08011 0.74048 0.42981 0.0
C1755 C 0.0903 0.75628 0.4443 0.0
C1756 C 0.10078 0.77266 0.43027 0.0
C1757 C 0.07812 0.75802 0.46034 0.0
C1758 C 0.10225 0.75176 0.45636 0.0
C1759 C 0.09933 0.73591 0.44974 0.0
C1760 C 0.10894 0.72915 0.45862 0.0
C1761 C 0.12181 0.73882 0.47473 0.0
C1762 C 0.12489 0.75503 0.48182 0.0
C1763 C 0.11497 0.76152 0.47234 0.0
H1764 H 0.29067 0.03864 0.75969 0.0
H1765 H 0.34433 0.05721 0.74109 0.0
H1766 H 0.35495 0.07772 0.77226 0.0
H1767 H 0.29663 0.07844 0.77342 0.0
H1768 H 0.28214 0.07092 0.79669 0.0
H1769 H 0.27866 0.05634 0.77448 0.0
H1770 H 0.28005 0.03523 0.80214 0.0
H1771 H 0.28339 0.04969 0.82451 0.0
H1772 H 0.29882 0.04292 0.82023 0.0
H1773 H 0.35966 0.09855 0.80244 0.0
H1774 H 0.35821 0.11721 0.83052 0.0
H1775 H 0.30152 0.08395 0.83114 0.0
C1776 C 0.30466 0.04677 0.7624 0.0
C1777 C 0.31666 0.04629 0.7479 0.0
C1778 C 0.33486 0.05727 0.75198 0.0
C1779 C 0.34104 0.06898 0.76966 0.0
C1780 C 0.32886 0.06941 0.7833 0.0
C1781 C 0.31105 0.05845 0.78007 0.0
C1782 C 0.30073 0.0621 0.79644 0.0
C1783 C 0.28885 0.06726 0.78454 0.0
C1784 C 0.29012 0.04656 0.81174 0.0
C1785 C 0.3155 0.07721 0.80889 0.0
C1786 C 0.33162 0.08116 0.80114 0.0
C1787 C 0.34713 0.09534 0.80901 0.0
C1788 C 0.34615 0.10583 0.82512 0.0
C1789 C 0.32975 0.10207 0.83336 0.0
C1790 C 0.31429 0.08735 0.82523 0.0
H1791 H 0.95328 0.24769 0.72797 0.0
H1792 H 0.96865 0.29875 0.75189 0.0
H1793 H 0.95632 0.28629 0.78845 0.0
H1794 H 0.91254 0.22552 0.75469 0.0
H1795 H 0.91354 0.20656 0.76041 0.0
H1796 H 0.92472 0.21978 0.7369 0.0
H1797 H 0.95386 0.22335 0.75113 0.0
H1798 H 0.94277 0.21017 0.77475 0.0
H1799 H 0.96162 0.23156 0.77859 0.0
H1800 H 0.94137 0.26777 0.82215 0.0
H1801 H 0.9241 0.24488 0.84936 0.0
H1802 H 0.9177 0.20618 0.80204 0.0
C1803 C 0.95428 0.25635 0.74093 0.0
C1804 C 0.96205 0.27423 0.73711 0.0
C1805 C 0.9628 0.28501 0.75446 0.0
C1806 C 0.95588 0.27806 0.77528 0.0
C1807 C 0.94822 0.26033 0.7784 0.0
C1808 C 0.94735 0.24964 0.76163 0.0
C1809 C 0.93764 0.23093 0.76867 0.0
C1810 C 0.92113 0.22006 0.75432 0.0
C1811 C 0.9497 0.22357 0.76826 0.0
C1812 C 0.93302 0.23268 0.79202 0.0
C1813 C 0.93936 0.24972 0.79745 0.0
C1814 C 0.93636 0.25439 0.81804 0.0
C1815 C 0.92644 0.24128 0.83334 0.0
C1816 C 0.91951 0.22367 0.8279 0.0
C1817 C 0.92306 0.21947 0.80697 0.0
H1818 H 0.74187 0.67266 0.72151 0.0
H1819 H 0.71962 0.70116 0.74814 0.0
H1820 H 0.74301 0.71369 0.77694 0.0
H1821 H 0.75292 0.66138 0.77061 0.0
H1822 H 0.77327 0.6641 0.76139 0.0
H1823 H 0.75596 0.65891 0.7418 0.0
H1824 H 0.77685 0.68598 0.71876 0.0
H1825 H 0.79433 0.69115 0.73817 0.0
H1826 H 0.78838 0.70687 0.7319 0.0
H1827 H 0.7665 0.71947 0.80593 0.0
H1828 H 0.78919 0.72017 0.83019 0.0
H1829 H 0.79761 0.69019 0.7817 0.0
C1830 C 0.74213 0.68181 0.73316 0.0
C1831 C 0.72899 0.68595 0.73274 0.0
C1832 C 0.7297 0.69796 0.74816 0.0
C1833 C 0.74289 0.70507 0.76457 0.0
C1834 C 0.75544 0.70034 0.76488 0.0
C1835 C 0.75536 0.68928 0.74921 0.0
C1836 C 0.76992 0.68578 0.75335 0.0
C1837 C 0.76257 0.6664 0.75701 0.0
C1838 C 0.78315 0.69287 0.73442 0.0
C1839 C 0.7778 0.69601 0.77434 0.0
C1840 C 0.76934 0.70434 0.7808 0.0
C1841 C 0.77349 0.71335 0.80071 0.0
C1842 C 0.78651 0.71374 0.81437 0.0
C1843 C 0.79536 0.70526 0.80802 0.0
C1844 C 0.79106 0.69663 0.78742 0.0
H1845 H 0.7177 0.67741 0.62339 0.0
H1846 H 0.67765 0.62308 0.62677 0.0
H1847 H 0.68831 0.6178 0.59214 0.0
H1848 H 0.7195 0.68118 0.56112 0.0
H1849 H 0.74296 0.69536 0.5617 0.0
H1850 H 0.73005 0.69562 0.58414 0.0
H1851 H 0.74874 0.68986 0.61177 0.0
H1852 H 0.76155 0.68941 0.58947 0.0
H1853 H 0.75065 0.67124 0.60789 0.0
H1854 H 0.70563 0.61746 0.56086 0.0
H1855 H 0.72862 0.62193 0.53509 0.0
H1856 H 0.75797 0.67656 0.55141 0.0
C1857 C 0.7108 0.66456 0.61631 0.0
C1858 C 0.6967 0.65068 0.6275 0.0
C1859 C 0.68837 0.63389 0.61829 0.0
C1860 C 0.6943 0.63079 0.59861 0.0
C1861 C 0.70863 0.6446 0.58834 0.0
C1862 C 0.71675 0.66119 0.59677 0.0
C1863 C 0.73319 0.67327 0.58401 0.0
C1864 C 0.7313 0.68718 0.57203 0.0
C1865 C 0.74949 0.68141 0.5992 0.0
C1866 C 0.73338 0.66073 0.56775 0.0
C1867 C 0.71891 0.64434 0.57028 0.0
C1868 C 0.71682 0.63031 0.55834 0.0
C1869 C 0.72996 0.63301 0.54362 0.0
C1870 C 0.74511 0.64964 0.54098 0.0
C1871 C 0.7466 0.66369 0.553 0.0
H1872 H 0.33235 0.06005 0.62811 0.0
H1873 H 0.27594 0.03578 0.63329 0.0
H1874 H 0.27568 0.0521 0.60102 0.0
H1875 H 0.34083 0.10172 0.61347 0.0
H1876 H 0.35795 0.1064 0.59424 0.0
H1877 H 0.35385 0.092 0.61701 0.0
H1878 H 0.34968 0.06819 0.5898 0.0
H1879 H 0.35382 0.08254 0.56693 0.0
H1880 H 0.33388 0.06168 0.56759 0.0
H1881 H 0.28124 0.07172 0.56978 0.0
H1882 H 0.29249 0.09404 0.54105 0.0
H1883 H 0.34536 0.10583 0.55487 0.0
C1884 C 0.31994 0.05805 0.62229 0.0
C1885 C 0.30417 0.0466 0.63328 0.0
C1886 C 0.28822 0.04449 0.62526 0.0
C1887 C 0.28789 0.05366 0.60686 0.0
C1888 C 0.30362 0.06494 0.59657 0.0
C1889 C 0.31937 0.06722 0.6039 0.0
C1890 C 0.33442 0.08075 0.59019 0.0
C1891 C 0.34753 0.09613 0.60459 0.0
C1892 C 0.34348 0.07281 0.57789 0.0
C1893 C 0.32463 0.08582 0.57429 0.0
C1894 C 0.30687 0.07641 0.57824 0.0
C1895 C 0.2951 0.07904 0.56628 0.0
C1896 C 0.30163 0.09168 0.54985 0.0
C1897 C 0.31981 0.1016 0.5454 0.0
C1898 C 0.33142 0.09851 0.55782 0.0
H1899 H 0.93906 0.26055 0.617 0.0
H1900 H 0.9429 0.30907 0.63238 0.0
H1901 H 0.9199 0.30258 0.60425 0.0
H1902 H 0.93224 0.26107 0.5585 0.0
H1903 H 0.91709 0.23809 0.55697 0.0
H1904 H 0.93407 0.24693 0.57784 0.0
H1905 H 0.91073 0.23186 0.60827 0.0
H1906 H 0.89369 0.22296 0.58751 0.0
H1907 H 0.89294 0.23571 0.6097 0.0
H1908 H 0.89575 0.29004 0.57451 0.0
H1909 H 0.87303 0.27281 0.54625 0.0
H1910 H 0.88538 0.23265 0.55184 0.0
C1911 C 0.93519 0.26992 0.61447 0.0
C1912 C 0.94283 0.28535 0.62691 0.0
C1913 C 0.93726 0.29717 0.62303 0.0
C1914 C 0.92422 0.2936 0.60709 0.0
C1915 C 0.91693 0.27818 0.59522 0.0
C1916 C 0.92228 0.26657 0.59877 0.0
C1917 C 0.9123 0.25077 0.58429 0.0
C1918 C 0.92466 0.24913 0.56846 0.0
C1919 C 0.90179 0.23436 0.59828 0.0
C1920 C 0.90039 0.25519 0.57199 0.0
C1921 C 0.90321 0.27104 0.57841 0.0
C1922 C 0.89347 0.27762 0.56938 0.0
C1923 C 0.88054 0.26772 0.55342 0.0
C1924 C 0.87748 0.25142 0.54669 0.0
C1925 C 0.8876 0.24519 0.55622 0.0
H1926 H 0.34738 0.28358 0.6208 0.0
H1927 H 0.40302 0.30659 0.63359 0.0
H1928 H 0.40547 0.29309 0.59966 0.0
H1929 H 0.33965 0.24364 0.60307 0.0
H1930 H 0.32371 0.24029 0.58211 0.0
H1931 H 0.32667 0.25342 0.60584 0.0
H1932 H 0.33267 0.27886 0.58028 0.0
H1933 H 0.32969 0.26578 0.55642 0.0
H1934 H 0.34965 0.2864 0.55995 0.0
H1935 H 0.40148 0.2753 0.56618 0.0
H1936 H 0.3912 0.25362 0.53645 0.0
H1937 H 0.3381 0.24208 0.5453 0.0
C1938 C 0.36015 0.28608 0.61624 0.0
C1939 C 0.37504 0.29624 0.62979 0.0
C1940 C 0.39144 0.29888 0.62346 0.0
C1941 C 0.39298 0.29133 0.60416 0.0
C1942 C 0.378 0.28117 0.59136 0.0
C1943 C 0.36189 0.27852 0.59713 0.0
C1944 C 0.3476 0.26595 0.58148 0.0
C1945 C 0.33359 0.24988 0.59387 0.0
C1946 C 0.33942 0.27478 0.56878 0.0
C1947 C 0.35811 0.26162 0.56635 0.0
C1948 C 0.37566 0.27073 0.57214 0.0
C1949 C 0.38782 0.26828 0.56128 0.0
C1950 C 0.38185 0.25599 0.54429 0.0
C1951 C 0.36384 0.2462 0.53839 0.0
C1952 C 0.35193 0.24933 0.54941 0.0
H1953 H 0.71507 0.06371 0.62107 0.0
H1954 H 0.69203 0.09083 0.65014 0.0
H1955 H 0.70171 0.11067 0.6186 0.0
H1956 H 0.75296 0.10062 0.60208 0.0
H1957 H 0.7545 0.09137 0.57659 0.0
H1958 H 0.74394 0.07768 0.59999 0.0
H1959 H 0.71586 0.05902 0.5765 0.0
H1960 H 0.72638 0.07262 0.55295 0.0
H1961 H 0.70578 0.0692 0.56232 0.0
H1962 H 0.71625 0.12938 0.58684 0.0
H1963 H 0.73476 0.14603 0.55583 0.0
H1964 H 0.74813 0.10692 0.54545 0.0
C1965 C 0.71175 0.07358 0.62047 0.0
C1966 C 0.70277 0.0757 0.63805 0.0
C1967 C 0.69895 0.08899 0.63693 0.0
C1968 C 0.70431 0.1003 0.61902 0.0
C1969 C 0.71349 0.09819 0.60225 0.0
C1970 C 0.71715 0.08516 0.60266 0.0
C1971 C 0.72836 0.0867 0.58314 0.0
C1972 C 0.74598 0.08925 0.59092 0.0
C1973 C 0.7185 0.07095 0.56782 0.0
C1974 C 0.73078 0.10288 0.5722 0.0
C1975 C 0.72191 0.10912 0.58344 0.0
C1976 C 0.72295 0.12444 0.57753 0.0
C1977 C 0.73345 0.13376 0.55969 0.0
C1978 C 0.74277 0.12775 0.54776 0.0
C1979 C 0.74121 0.11195 0.55409 0.0
H1980 H 0.9491 0.68718 0.61452 0.0
H1981 H 0.93341 0.63544 0.63607 0.0
H1982 H 0.90854 0.62336 0.60952 0.0
H1983 H 0.90678 0.68024 0.60912 0.0
H1984 H 0.91171 0.69371 0.58508 0.0
H1985 H 0.92878 0.69803 0.60469 0.0
H1986 H 0.94719 0.69601 0.57347 0.0
H1987 H 0.93016 0.6917 0.55373 0.0
H1988 H 0.93775 0.67688 0.55651 0.0
H1989 H 0.88439 0.61721 0.58162 0.0
H1990 H 0.8631 0.61765 0.55554 0.0
H1991 H 0.89546 0.6735 0.55248 0.0
C1992 C 0.94057 0.67329 0.6136 0.0
C1993 C 0.94322 0.66226 0.6274 0.0
C1994 C 0.93165 0.64415 0.62564 0.0
C1995 C 0.91751 0.63717 0.61059 0.0
C1996 C 0.91521 0.64848 0.59737 0.0
C1997 C 0.92649 0.66615 0.59873 0.0
C1998 C 0.92092 0.67562 0.58338 0.0
C1999 C 0.9168 0.6876 0.59635 0.0
C2000 C 0.93483 0.68564 0.56573 0.0
C2001 C 0.90454 0.66056 0.5734 0.0
C2002 C 0.90148 0.64498 0.58149 0.0
C2003 C 0.88675 0.62934 0.57505 0.0
C2004 C 0.87478 0.6297 0.56017 0.0
C2005 C 0.87759 0.64561 0.55205 0.0
C2006 C 0.89283 0.66115 0.55858 0.0
H2007 H 0.95226 0.66784 0.74117 0.0
H2008 H 0.99217 0.72198 0.73416 0.0
H2009 H 0.98219 0.72865 0.76834 0.0
H2010 H 0.9196 0.67455 0.7561 0.0
H2011 H 0.90915 0.65715 0.77569 0.0
H2012 H 0.92152 0.65584 0.75347 0.0
H2013 H 0.94082 0.65127 0.78149 0.0
H2014 H 0.92838 0.65242 0.80388 0.0
H2015 H 0.95183 0.66664 0.80351 0.0
H2016 H 0.96554 0.73024 0.79948 0.0
H2017 H 0.94295 0.7268 0.82527 0.0
H2018 H 0.91339 0.6716 0.81257 0.0
C2019 C 0.95926 0.68097 0.74732 0.0
C2020 C 0.97309 0.69438 0.73524 0.0
C2021 C 0.98159 0.71153 0.74329 0.0
C2022 C 0.97608 0.71542 0.76273 0.0
C2023 C 0.96202 0.70203 0.77391 0.0
C2024 C 0.95374 0.68512 0.76659 0.0
C2025 C 0.93761 0.67355 0.78011 0.0
C2026 C 0.921 0.66477 0.76547 0.0
C2027 C 0.9398 0.66018 0.79302 0.0
C2028 C 0.93773 0.68673 0.79547 0.0
C2029 C 0.95213 0.703 0.79191 0.0
C2030 C 0.95442 0.71751 0.80282 0.0
C2031 C 0.94152 0.71539 0.81754 0.0
C2032 C 0.92642 0.6989 0.82114 0.0
C2033 C 0.92476 0.68437 0.81022 0.0
H2034 H 0.36748 0.2917 0.7606 0.0
H2035 H 0.31847 0.26456 0.72384 0.0
H2036 H 0.30556 0.24284 0.75369 0.0
H2037 H 0.36753 0.25574 0.78063 0.0
H2038 H 0.37652 0.26479 0.80742 0.0
H2039 H 0.38134 0.27879 0.78405 0.0
H2040 H 0.36945 0.29543 0.80476 0.0
H2041 H 0.36465 0.2815 0.82829 0.0
H2042 H 0.3476 0.28375 0.8157 0.0
H2043 H 0.29938 0.22242 0.78559 0.0
H2044 H 0.29975 0.20581 0.81756 0.0
H2045 H 0.35203 0.24792 0.83502 0.0
C2046 C 0.35396 0.28129 0.75892 0.0
C2047 C 0.34398 0.27973 0.73987 0.0
C2048 C 0.32632 0.266 0.73834 0.0
C2049 C 0.31889 0.25362 0.75519 0.0
C2050 C 0.32922 0.2554 0.77362 0.0
C2051 C 0.34629 0.26905 0.7757 0.0
C2052 C 0.35478 0.26783 0.79682 0.0
C2053 C 0.37099 0.26672 0.79192 0.0
C2054 C 0.35939 0.28303 0.81231 0.0
C2055 C 0.34004 0.25102 0.80595 0.0
C2056 C 0.32539 0.24406 0.79239 0.0
C2057 C 0.31063 0.22795 0.7966 0.0
C2058 C 0.31094 0.21865 0.81499 0.0
C2059 C 0.32587 0.22551 0.82914 0.0
C2060 C 0.34043 0.24212 0.82461 0.0
H2061 H 0.71613 0.05824 0.76719 0.0
H2062 H 0.74172 0.04737 0.71506 0.0
H2063 H 0.76718 0.05589 0.73998 0.0
H2064 H 0.75163 0.09489 0.78684 0.0
H2065 H 0.74619 0.09099 0.81566 0.0
H2066 H 0.72911 0.08153 0.79506 0.0
H2067 H 0.71823 0.05104 0.81087 0.0
H2068 H 0.73518 0.06043 0.83178 0.0
H2069 H 0.73336 0.0437 0.81399 0.0
H2070 H 0.79166 0.07062 0.76854 0.0
H2071 H 0.81195 0.08794 0.7987 0.0
H2072 H 0.769 0.08653 0.83323 0.0
C2073 C 0.72691 0.05722 0.76122 0.0
C2074 C 0.72706 0.0522 0.73926 0.0
C2075 C 0.74135 0.05105 0.73192 0.0
C2076 C 0.75584 0.05589 0.74595 0.0
C2077 C 0.75553 0.06138 0.76735 0.0
C2078 C 0.74122 0.06165 0.77508 0.0
C2079 C 0.74442 0.06902 0.79817 0.0
C2080 C 0.74274 0.08506 0.79896 0.0
C2081 C 0.73206 0.05522 0.81468 0.0
C2082 C 0.76313 0.07375 0.80187 0.0
C2083 C 0.76932 0.06915 0.78403 0.0
C2084 C 0.78679 0.07383 0.78286 0.0
C2085 C 0.79823 0.08363 0.80019 0.0
C2086 C 0.79216 0.08864 0.81854 0.0
C2087 C 0.77422 0.08314 0.81947 0.0
H2088 H 0.05567 0.36189 0.03506 0.0
H2089 H 0.01852 0.31406 0.00176 0.0
H2090 H 0.03379 0.30022 0.01718 0.0
H2091 H 0.0942 0.35723 0.02736 0.0
H2092 H 0.10347 0.36674 0.05388 0.0
H2093 H 0.09037 0.37324 0.03882 0.0
H2094 H 0.07015 0.36547 0.07262 0.0
H2095 H 0.08301 0.35872 0.08766 0.0
H2096 H 0.05981 0.34399 0.08394 0.0
H2097 H 0.05035 0.2905 0.04036 0.0
H2098 H 0.0694 0.28642 0.06585 0.0
H2099 H 0.09815 0.34142 0.08067 0.0
C2100 C 0.05099 0.34861 0.03068 0.0
C2101 C 0.03593 0.33905 0.01722 0.0
C2102 C 0.03013 0.32169 0.01188 0.0
C2103 C 0.03866 0.31367 0.02065 0.0
C2104 C 0.0532 0.32331 0.03432 0.0
C2105 C 0.05958 0.3405 0.03891 0.0
C2106 C 0.0753 0.34782 0.05434 0.0
C2107 C 0.09181 0.3621 0.04291 0.0
C2108 C 0.07185 0.35438 0.07592 0.0
C2109 C 0.07635 0.33189 0.05828 0.0
C2110 C 0.06343 0.31789 0.04667 0.0
C2111 C 0.06088 0.30148 0.04904 0.0
C2112 C 0.07193 0.29934 0.06353 0.0
C2113 C 0.08565 0.3136 0.07527 0.0
C2114 C 0.08783 0.33011 0.07231 0.0
H2115 H 0.64828 0.70292 0.01154 0.0
H2116 H 0.66259 0.68105 0.06577 0.0
H2117 H 0.66848 0.70557 0.0894 0.0
H2118 H 0.68064 0.74713 0.0224 0.0
H2119 H 0.66655 0.75514 0.01529 0.0
H2120 H 0.66309 0.73569 0.0026 0.0
H2121 H 0.631 0.71907 0.01598 0.0
H2122 H 0.63435 0.73848 0.02868 0.0
H2123 H 0.6266 0.7192 0.04491 0.0
H2124 H 0.67374 0.73275 0.10685 0.0
H2125 H 0.67702 0.76052 0.11743 0.0
H2126 H 0.65894 0.76471 0.05226 0.0
C2127 C 0.65259 0.70324 0.02841 0.0
C2128 C 0.65499 0.69004 0.03677 0.0
C2129 C 0.66063 0.69097 0.05896 0.0
C2130 C 0.66403 0.70486 0.07254 0.0
C2131 C 0.66165 0.71769 0.06374 0.0
C2132 C 0.65596 0.71699 0.04225 0.0
C2133 C 0.6545 0.73253 0.03693 0.0
C2134 C 0.66694 0.74325 0.01819 0.0
C2135 C 0.63548 0.72698 0.0313 0.0
C2136 C 0.66038 0.74211 0.05874 0.0
C2137 C 0.66447 0.73332 0.07394 0.0
C2138 C 0.67054 0.73974 0.09511 0.0
C2139 C 0.67246 0.75555 0.10092 0.0
C2140 C 0.66827 0.76477 0.08565 0.0
C2141 C 0.66209 0.75787 0.06432 0.0
H2142 H 0.29245 0.93702 0.03136 0.0
H2143 H 0.31312 0.98866 0.0571 0.0
H2144 H 0.28429 0.97932 0.07358 0.0
H2145 H 0.24785 0.92861 0.0185 0.0
H2146 H 0.23771 0.90615 0.02581 0.0
H2147 H 0.25943 0.91751 0.01453 0.0
H2148 H 0.27085 0.90874 0.04859 0.0
H2149 H 0.24926 0.89755 0.06008 0.0
H2150 H 0.26738 0.91419 0.07586 0.0
H2151 H 0.25454 0.96285 0.09189 0.0
H2152 H 0.22579 0.94172 0.1073 0.0
H2153 H 0.22372 0.90186 0.06556 0.0
C2154 C 0.29079 0.94644 0.04012 0.0
C2155 C 0.30493 0.96351 0.04309 0.0
C2156 C 0.30235 0.97553 0.05457 0.0
C2157 C 0.28606 0.97033 0.06401 0.0
C2158 C 0.27246 0.95322 0.06124 0.0
C2159 C 0.27457 0.94158 0.04911 0.0
C2160 C 0.25813 0.92386 0.049 0.0
C2161 C 0.25032 0.91874 0.02556 0.0
C2162 C 0.26162 0.9103 0.05898 0.0
C2163 C 0.24665 0.9271 0.06376 0.0
C2164 C 0.25509 0.94408 0.0707 0.0
C2165 C 0.24762 0.94963 0.08607 0.0
C2166 C 0.23117 0.93749 0.09466 0.0
C2167 C 0.22224 0.91998 0.08771 0.0
C2168 C 0.23009 0.91499 0.07162 0.0
H2169 H 0.35286 0.05347 0.02712 0.0
H2170 H 0.3622 0.03194 0.96876 0.0
H2171 H 0.35897 0.0524 0.94544 0.0
H2172 H 0.32049 0.0601 0.00381 0.0
H2173 H 0.32781 0.08035 0.01755 0.0
H2174 H 0.33175 0.06465 0.03007 0.0
H2175 H 0.36498 0.08733 0.03226 0.0
H2176 H 0.36113 0.10316 0.01989 0.0
H2177 H 0.3764 0.09845 0.00756 0.0
H2178 H 0.35213 0.07315 0.92807 0.0
H2179 H 0.34478 0.09509 0.918 0.0
H2180 H 0.3415 0.1046 0.98728 0.0
C2181 C 0.35444 0.05321 0.00946 0.0
C2182 C 0.35776 0.04105 0.9998 0.0
C2183 C 0.35972 0.04114 0.97661 0.0
C2184 C 0.35787 0.05269 0.96317 0.0
C2185 C 0.35428 0.06426 0.97316 0.0
C2186 C 0.35285 0.06483 0.99578 0.0
C2187 C 0.3488 0.07851 0.00219 0.0
C2188 C 0.33116 0.07041 0.01411 0.0
C2189 C 0.36372 0.0927 0.01631 0.0
C2190 C 0.34784 0.08527 0.97961 0.0
C2191 C 0.35096 0.07678 0.96311 0.0
C2192 C 0.34991 0.08006 0.94084 0.0
C2193 C 0.34566 0.09244 0.93527 0.0
C2194 C 0.34271 0.10148 0.95189 0.0
C2195 C 0.3439 0.09793 0.97433 0.0
H2196 H 0.93622 0.30765 0.99251 0.0
H2197 H 0.98042 0.30626 0.02012 0.0
H2198 H 0.96714 0.27608 0.0076 0.0
H2199 H 0.90225 0.26241 0.00389 0.0
H2200 H 0.891 0.26013 0.97808 0.0
H2201 H 0.90296 0.28086 0.99155 0.0
H2202 H 0.92091 0.29426 0.95601 0.0
H2203 H 0.90912 0.27357 0.94251 0.0
H2204 H 0.93268 0.28509 0.94424 0.0
H2205 H 0.95 0.24672 0.98991 0.0
H2206 H 0.93032 0.22043 0.96836 0.0
H2207 H 0.8983 0.24181 0.95058 0.0
C2208 C 0.94288 0.30086 0.99643 0.0
C2209 C 0.95924 0.30923 0.00752 0.0
C2210 C 0.9678 0.30005 0.01179 0.0
C2211 C 0.96036 0.28291 0.00476 0.0
C2212 C 0.94441 0.27516 0.99339 0.0
C2213 C 0.93576 0.28383 0.98928 0.0
C2214 C 0.91947 0.27305 0.97528 0.0
C2215 C 0.90294 0.26886 0.98796 0.0
C2216 C 0.92063 0.28203 0.95321 0.0
C2217 C 0.92045 0.25707 0.97192 0.0
C2218 C 0.93482 0.25846 0.98266 0.0
C2219 C 0.93866 0.24546 0.98149 0.0
C2220 C 0.92749 0.23064 0.96903 0.0
C2221 C 0.91273 0.229 0.95771 0.0
C2222 C 0.90925 0.24246 0.9593 0.0
H2223 H 0.70463 0.63685 0.97361 0.0
H2224 H 0.70479 0.6834 0.99003 0.0
H2225 H 0.73517 0.70108 0.97626 0.0
H2226 H 0.74997 0.65282 0.98847 0.0
H2227 H 0.75266 0.6414 0.96612 0.0
H2228 H 0.73152 0.63281 0.9785 0.0
H2229 H 0.71801 0.63192 0.94004 0.0
H2230 H 0.7391 0.64058 0.92757 0.0
H2231 H 0.72714 0.65138 0.92384 0.0
H2232 H 0.76523 0.71341 0.95823 0.0
H2233 H 0.79176 0.71904 0.93834 0.0
H2234 H 0.77104 0.66395 0.93527 0.0
C2235 C 0.71103 0.65077 0.97451 0.0
C2236 C 0.70233 0.65876 0.98282 0.0
C2237 C 0.71125 0.67701 0.98375 0.0
C2238 C 0.72848 0.68714 0.97597 0.0
C2239 C 0.73656 0.67876 0.96756 0.0
C2240 C 0.72809 0.66096 0.96698 0.0
C2241 C 0.73922 0.6549 0.95667 0.0
C2242 C 0.7436 0.6449 0.97344 0.0
C2243 C 0.73034 0.64406 0.9358 0.0
C2244 C 0.75521 0.67205 0.95106 0.0
C2245 C 0.75358 0.68572 0.95751 0.0
C2246 C 0.76667 0.70278 0.9533 0.0
C2247 C 0.78169 0.70586 0.94207 0.0
C2248 C 0.7834 0.69193 0.93513 0.0
C2249 C 0.77003 0.67488 0.94003 0.0
H2250 H 0.96078 0.66708 0.00923 0.0
H2251 H 0.96096 0.63045 0.96355 0.0
H2252 H 0.93857 0.63142 0.94065 0.0
H2253 H 0.91336 0.65075 0.00424 0.0
H2254 H 0.91676 0.67211 0.00597 0.0
H2255 H 0.93164 0.66733 0.01989 0.0
H2256 H 0.95763 0.69266 0.99936 0.0
H2257 H 0.94284 0.69739 0.9852 0.0
H2258 H 0.95727 0.69322 0.96962 0.0
H2259 H 0.91879 0.63872 0.92065 0.0
H2260 H 0.90129 0.6503 0.90596 0.0
H2261 H 0.91248 0.68111 0.96543 0.0
C2262 C 0.95586 0.65899 0.99466 0.0
C2263 C 0.96265 0.64867 0.98822 0.0
C2264 C 0.95596 0.63843 0.96888 0.0
C2265 C 0.94324 0.6389 0.95573 0.0
C2266 C 0.93719 0.64954 0.96223 0.0
C2267 C 0.94308 0.65924 0.98136 0.0
C2268 C 0.93491 0.67014 0.98407 0.0
C2269 C 0.92349 0.66475 0.00477 0.0
C2270 C 0.94901 0.6895 0.98459 0.0
C2271 C 0.92385 0.66536 0.96318 0.0
C2272 C 0.92534 0.65343 0.95088 0.0
C2273 C 0.91719 0.64776 0.93036 0.0
C2274 C 0.90714 0.65437 0.92223 0.0
C2275 C 0.90515 0.66645 0.93463 0.0
C2276 C 0.91366 0.67193 0.95544 0.0
H2277 H 0.34285 0.31241 0.97785 0.0
H2278 H 0.36337 0.31153 0.04282 0.0
H2279 H 0.36323 0.28521 0.03264 0.0
H2280 H 0.31373 0.26662 0.97315 0.0
H2281 H 0.31715 0.26584 0.94404 0.0
H2282 H 0.3195 0.28507 0.95599 0.0
H2283 H 0.35094 0.30315 0.94065 0.0
H2284 H 0.34867 0.28398 0.9286 0.0
H2285 H 0.36665 0.29702 0.94725 0.0
H2286 H 0.36081 0.25899 0.0157 0.0
H2287 H 0.35537 0.23397 0.99334 0.0
H2288 H 0.33578 0.25124 0.93958 0.0
C2289 C 0.34744 0.30675 0.98986 0.0
C2290 C 0.35319 0.31408 0.01112 0.0
C2291 C 0.35889 0.30616 0.02645 0.0
C2292 C 0.3589 0.29122 0.02082 0.0
C2293 C 0.35306 0.28426 0.99982 0.0
C2294 C 0.34737 0.2917 0.98458 0.0
C2295 C 0.34128 0.28127 0.96337 0.0
C2296 C 0.32175 0.27429 0.95888 0.0
C2297 C 0.35256 0.292 0.94381 0.0
C2298 C 0.34442 0.26682 0.96911 0.0
C2299 C 0.35133 0.26888 0.99017 0.0
C2300 C 0.35543 0.25725 0.99917 0.0
C2301 C 0.35237 0.24313 0.98631 0.0
C2302 C 0.34519 0.24067 0.96472 0.0
C2303 C 0.34115 0.25271 0.95609 0.0
H2304 H 0.69394 0.03148 0.96117 0.0
H2305 H 0.69834 0.06001 0.02048 0.0
H2306 H 0.73026 0.07852 0.01525 0.0
H2307 H 0.73799 0.0356 0.96513 0.0
H2308 H 0.74133 0.0388 0.9358 0.0
H2309 H 0.7195 0.02555 0.9464 0.0
H2310 H 0.71 0.04443 0.9257 0.0
H2311 H 0.73176 0.05774 0.91513 0.0
H2312 H 0.72191 0.06741 0.93048 0.0
H2313 H 0.76042 0.09583 0.00175 0.0
H2314 H 0.78711 0.11223 0.97966 0.0
H2315 H 0.76348 0.07385 0.9276 0.0
C2316 C 0.70181 0.04126 0.97338 0.0
C2317 C 0.69392 0.04422 0.99146 0.0
C2318 C 0.70433 0.05752 0.0067 0.0
C2319 C 0.72242 0.068 0.00391 0.0
C2320 C 0.72984 0.06511 0.98564 0.0
C2321 C 0.71991 0.05213 0.97054 0.0
C2322 C 0.7308 0.05332 0.95084 0.0
C2323 C 0.73251 0.03737 0.94947 0.0
C2324 C 0.72316 0.05588 0.92927 0.0
C2325 C 0.74817 0.06934 0.95689 0.0
C2326 C 0.74737 0.07566 0.97727 0.0
C2327 C 0.7613 0.09092 0.98589 0.0
C2328 C 0.77634 0.1002 0.97317 0.0
C2329 C 0.7773 0.09432 0.95193 0.0
C2330 C 0.76318 0.07847 0.94392 0.0
H2331 H 0.66731 0.95821 0.99555 0.0
H2332 H 0.62005 0.95119 0.02511 0.0
H2333 H 0.61602 0.9258 0.04514 0.0
H2334 H 0.65103 0.91117 0.99038 0.0
H2335 H 0.67227 0.91445 0.99678 0.0
H2336 H 0.67056 0.9311 0.98287 0.0
H2337 H 0.68982 0.95287 0.01344 0.0
H2338 H 0.69143 0.93627 0.02757 0.0
H2339 H 0.68325 0.94797 0.04185 0.0
H2340 H 0.6194 0.90425 0.06609 0.0
H2341 H 0.62827 0.88577 0.08408 0.0
H2342 H 0.67168 0.90429 0.03852 0.0
C2343 C 0.65591 0.95111 0.00586 0.0
C2344 C 0.64404 0.95676 0.00876 0.0
C2345 C 0.62934 0.94716 0.02254 0.0
C2346 C 0.62691 0.93268 0.03403 0.0
C2347 C 0.6391 0.92776 0.03132 0.0
C2348 C 0.65314 0.93644 0.01728 0.0
C2349 C 0.66466 0.92877 0.01812 0.0
C2350 C 0.66462 0.9209 0.9957 0.0
C2351 C 0.68339 0.94228 0.0257 0.0
C2352 C 0.65523 0.91488 0.03542 0.0
C2353 C 0.64053 0.91456 0.04276 0.0
C2354 C 0.63056 0.90396 0.06001 0.0
C2355 C 0.63569 0.89335 0.07004 0.0
C2356 C 0.65055 0.89312 0.06261 0.0
C2357 C 0.66029 0.90401 0.04483 0.0
H2358 H 0.06858 0.71431 0.01365 0.0
H2359 H 0.01524 0.692 0.03611 0.0
H2360 H 0.02334 0.71967 0.05389 0.0
H2361 H 0.08968 0.73766 0.05997 0.0
H2362 H 0.10682 0.75641 0.04614 0.0
H2363 H 0.09643 0.73569 0.03277 0.0
H2364 H 0.08825 0.74794 0.99915 0.0
H2365 H 0.09886 0.76883 0.01229 0.0
H2366 H 0.07633 0.75868 0.00338 0.0
H2367 H 0.0386 0.74776 0.07481 0.0
H2368 H 0.05879 0.77513 0.09356 0.0
H2369 H 0.10139 0.78073 0.05336 0.0
C2370 C 0.05852 0.71541 0.02183 0.0
C2371 C 0.0413 0.70105 0.02354 0.0
C2372 C 0.02847 0.70291 0.03444 0.0
C2373 C 0.03296 0.71856 0.04464 0.0
C2374 C 0.05021 0.73233 0.04325 0.0
C2375 C 0.06267 0.73105 0.03161 0.0
C2376 C 0.08043 0.74752 0.03335 0.0
C2377 C 0.09413 0.74411 0.04368 0.0
C2378 C 0.08631 0.75626 0.01069 0.0
C2379 C 0.07619 0.75793 0.04869 0.0
C2380 C 0.05872 0.74896 0.05422 0.0
C2381 C 0.05219 0.75517 0.07003 0.0
C2382 C 0.06385 0.7709 0.08053 0.0
C2383 C 0.08187 0.78047 0.07501 0.0
C2384 C 0.08786 0.7739 0.05841 0.0
H2385 H 0.3038 0.35707 0.07621 0.0
H2386 H 0.29066 0.32484 0.018 0.0
H2387 H 0.25977 0.3076 0.03013 0.0
H2388 H 0.27384 0.32195 0.11393 0.0
H2389 H 0.269 0.33606 0.12887 0.0
H2390 H 0.29011 0.34462 0.11636 0.0
H2391 H 0.28574 0.36693 0.095 0.0
H2392 H 0.2646 0.35836 0.10725 0.0
H2393 H 0.26661 0.35946 0.07764 0.0
H2394 H 0.22965 0.29666 0.04652 0.0
H2395 H 0.20364 0.29151 0.06681 0.0
H2396 H 0.23753 0.32933 0.11598 0.0
C2397 C 0.29447 0.3462 0.06618 0.0
C2398 C 0.2995 0.34229 0.04613 0.0
C2399 C 0.28701 0.32795 0.03348 0.0
C2400 C 0.26947 0.31814 0.04023 0.0
C2401 C 0.26485 0.32263 0.0599 0.0
C2402 C 0.27711 0.33613 0.07289 0.0
C2403 C 0.26887 0.33873 0.09295 0.0
C2404 C 0.27587 0.33512 0.11429 0.0
C2405 C 0.27162 0.35694 0.0932 0.0
C2406 C 0.2499 0.32505 0.08882 0.0
C2407 C 0.24778 0.31585 0.06974 0.0
C2408 C 0.23122 0.30351 0.06176 0.0
C2409 C 0.21648 0.30061 0.07351 0.0
C2410 C 0.21839 0.30996 0.09313 0.0
C2411 C 0.23544 0.32206 0.10096 0.0
H2412 H 0.68648 0.6608 0.38427 0.0
H2413 H 0.71739 0.71311 0.35921 0.0
H2414 H 0.74447 0.71421 0.37114 0.0
H2415 H 0.71171 0.66684 0.43204 0.0
H2416 H 0.70944 0.64594 0.43091 0.0
H2417 H 0.69265 0.64892 0.41917 0.0
H2418 H 0.69573 0.63732 0.38156 0.0
H2419 H 0.71253 0.63427 0.3932 0.0
H2420 H 0.71689 0.64724 0.36878 0.0
H2421 H 0.76791 0.71039 0.38864 0.0
H2422 H 0.78606 0.70137 0.40879 0.0
H2423 H 0.73976 0.65129 0.42111 0.0
C2424 C 0.69894 0.67245 0.3811 0.0
C2425 C 0.69984 0.68689 0.37086 0.0
C2426 C 0.71641 0.70187 0.36698 0.0
C2427 C 0.73185 0.70262 0.3737 0.0
C2428 C 0.73046 0.68821 0.38401 0.0
C2429 C 0.71444 0.67335 0.38749 0.0
C2430 C 0.71646 0.6598 0.39941 0.0
C2431 C 0.70701 0.65511 0.4217 0.0
C2432 C 0.71002 0.64371 0.38486 0.0
C2433 C 0.73612 0.66949 0.40253 0.0
C2434 C 0.74397 0.68585 0.39354 0.0
C2435 C 0.76194 0.69753 0.39548 0.0
C2436 C 0.77211 0.69234 0.407 0.0
C2437 C 0.76428 0.67562 0.41626 0.0
C2438 C 0.74609 0.66403 0.41379 0.0
H2439 H 0.31773 0.03873 0.34472 0.0
H2440 H 0.32151 0.01029 0.40021 0.0
H2441 H 0.32718 0.03394 0.42521 0.0
H2442 H 0.35189 0.08088 0.36292 0.0
H2443 H 0.34081 0.09164 0.35363 0.0
H2444 H 0.33687 0.0724 0.33978 0.0
H2445 H 0.30359 0.058 0.34647 0.0
H2446 H 0.30743 0.07721 0.36033 0.0
H2447 H 0.29586 0.05666 0.37417 0.0
H2448 H 0.33279 0.06047 0.44429 0.0
H2449 H 0.33746 0.08841 0.45657 0.0
H2450 H 0.33007 0.1001 0.3892 0.0
C2451 C 0.31972 0.03747 0.36213 0.0
C2452 C 0.31918 0.02261 0.37045 0.0
C2453 C 0.32184 0.0215 0.39337 0.0
C2454 C 0.32509 0.03488 0.40775 0.0
C2455 C 0.3256 0.04933 0.39905 0.0
C2456 C 0.32294 0.05074 0.37682 0.0
C2457 C 0.32419 0.06775 0.3719 0.0
C2458 C 0.33934 0.07882 0.35612 0.0
C2459 C 0.30672 0.06472 0.36267 0.0
C2460 C 0.32799 0.07562 0.39484 0.0
C2461 C 0.32877 0.06475 0.41019 0.0
C2462 C 0.33225 0.06913 0.43243 0.0
C2463 C 0.335 0.08508 0.43922 0.0
C2464 C 0.33426 0.09649 0.42384 0.0
C2465 C 0.33063 0.09161 0.40135 0.0
H2466 H 0.96665 0.27489 0.3912 0.0
H2467 H 0.96985 0.32189 0.36861 0.0
H2468 H 0.93949 0.3105 0.38103 0.0
H2469 H 0.92187 0.24547 0.37591 0.0
H2470 H 0.91746 0.2321 0.39994 0.0
H2471 H 0.93923 0.24392 0.38888 0.0
H2472 H 0.95147 0.2584 0.42699 0.0
H2473 H 0.92975 0.24662 0.43817 0.0
H2474 H 0.94247 0.26984 0.44005 0.0
H2475 H 0.90841 0.29351 0.39598 0.0
H2476 H 0.87979 0.27274 0.41246 0.0
H2477 H 0.89823 0.23789 0.42642 0.0
C2478 C 0.96099 0.2828 0.3887 0.0
C2479 C 0.9706 0.29925 0.37882 0.0
C2480 C 0.96272 0.30923 0.37612 0.0
C2481 C 0.94549 0.30287 0.38311 0.0
C2482 C 0.93641 0.28658 0.39286 0.0
C2483 C 0.94396 0.27675 0.39571 0.0
C2484 C 0.93169 0.25983 0.40703 0.0
C2485 C 0.9273 0.24442 0.39204 0.0
C2486 C 0.9393 0.25861 0.42938 0.0
C2487 C 0.91597 0.2616 0.41001 0.0
C2488 C 0.91886 0.27706 0.40173 0.0
C2489 C 0.90605 0.28139 0.40258 0.0
C2490 C 0.88987 0.26956 0.4121 0.0
C2491 C 0.88668 0.25362 0.42068 0.0
C2492 C 0.90005 0.24977 0.41967 0.0
H2493 H 0.99214 0.37028 0.32836 0.0
H2494 H 0.04788 0.39108 0.33687 0.0
H2495 H 0.05407 0.41892 0.32149 0.0
H2496 H 0.99434 0.39036 0.27743 0.0
H2497 H 0.97738 0.39471 0.2837 0.0
H2498 H 0.97722 0.37665 0.29635 0.0
H2499 H 0.97678 0.38831 0.33514 0.0
H2500 H 0.9768 0.40635 0.32259 0.0
H2501 H 0.99345 0.41005 0.34264 0.0
H2502 H 0.05424 0.44365 0.30255 0.0
H2503 H 0.04845 0.4642 0.28355 0.0
H2504 H 0.9925 0.42795 0.28958 0.0
C2505 C 0.00565 0.38073 0.32718 0.0
C2506 C 0.01953 0.37849 0.33378 0.0
C2507 C 0.03702 0.3925 0.33199 0.0
C2508 C 0.04068 0.40836 0.32323 0.0
C2509 C 0.02669 0.41005 0.31659 0.0
C2510 C 0.00953 0.39669 0.3187 0.0
C2511 C 0.99692 0.40183 0.3101 0.0
C2512 C 0.98582 0.39019 0.29075 0.0
C2513 C 0.98531 0.40163 0.32873 0.0
C2514 C 0.0097 0.42005 0.30245 0.0
C2515 C 0.0268 0.42453 0.30631 0.0
C2516 C 0.0409 0.44041 0.2998 0.0
C2517 C 0.03744 0.45207 0.28913 0.0
C2518 C 0.01999 0.44789 0.2852 0.0
C2519 C 0.00599 0.43161 0.29211 0.0
H2520 H 0.59595 0.63869 0.31821 0.0
H2521 H 0.64465 0.64377 0.34072 0.0
H2522 H 0.63456 0.6145 0.32689 0.0
H2523 H 0.56744 0.59223 0.33006 0.0
H2524 H 0.5542 0.58843 0.30565 0.0
H2525 H 0.56454 0.60911 0.31927 0.0
H2526 H 0.5794 0.62411 0.28259 0.0
H2527 H 0.56925 0.60349 0.26892 0.0
H2528 H 0.59271 0.61766 0.2685 0.0
H2529 H 0.62023 0.58565 0.30812 0.0
H2530 H 0.60242 0.55908 0.28616 0.0
H2531 H 0.56299 0.57268 0.2761 0.0
C2532 C 0.60434 0.63352 0.32064 0.0
C2533 C 0.62106 0.64351 0.33064 0.0
C2534 C 0.63177 0.63636 0.33315 0.0
C2535 C 0.62615 0.61973 0.32537 0.0
C2536 C 0.60978 0.61038 0.31515 0.0
C2537 C 0.59897 0.61696 0.31288 0.0
C2538 C 0.58241 0.60463 0.30016 0.0
C2539 C 0.56619 0.59822 0.31466 0.0
C2540 C 0.58086 0.61297 0.27878 0.0
C2541 C 0.58576 0.59026 0.29529 0.0
C2542 C 0.60155 0.59376 0.30423 0.0
C2543 C 0.60773 0.58266 0.30128 0.0
C2544 C 0.5975 0.56757 0.28884 0.0
C2545 C 0.58129 0.56375 0.27942 0.0
C2546 C 0.57538 0.57527 0.28289 0.0
H2547 H 0.36065 0.96022 0.3083 0.0
H2548 H 0.3687 0.00815 0.33501 0.0
H2549 H 0.39952 0.02334 0.32274 0.0
H2550 H 0.40229 0.96688 0.32332 0.0
H2551 H 0.40423 0.95717 0.29851 0.0
H2552 H 0.38292 0.95033 0.30925 0.0
H2553 H 0.37377 0.95728 0.27171 0.0
H2554 H 0.39504 0.96411 0.26083 0.0
H2555 H 0.38693 0.97857 0.2601 0.0
H2556 H 0.42985 0.03302 0.30776 0.0
H2557 H 0.45659 0.03627 0.29132 0.0
H2558 H 0.42759 0.9819 0.27391 0.0
C2559 C 0.36884 0.97392 0.31163 0.0
C2560 C 0.36226 0.98299 0.32269 0.0
C2561 C 0.37346 0.00093 0.32657 0.0
C2562 C 0.39097 0.00966 0.31967 0.0
C2563 C 0.397 0.00025 0.30885 0.0
C2564 C 0.38621 0.98278 0.30481 0.0
C2565 C 0.39569 0.97553 0.29286 0.0
C2566 C 0.39632 0.96166 0.30683 0.0
C2567 C 0.38736 0.96846 0.27002 0.0
C2568 C 0.4136 0.99161 0.29091 0.0
C2569 C 0.41418 0.00577 0.30017 0.0
C2570 C 0.4295 0.02201 0.30039 0.0
C2571 C 0.44459 0.02375 0.29093 0.0
C2572 C 0.44423 0.00932 0.28142 0.0
C2573 C 0.42844 0.99312 0.28137 0.0
H2574 H 0.64103 0.9831 0.30233 0.0
H2575 H 0.62414 0.97275 0.37045 0.0
H2576 H 0.59902 0.97591 0.36087 0.0
H2577 H 0.6315 0.01589 0.29373 0.0
H2578 H 0.62427 0.01001 0.26551 0.0
H2579 H 0.64004 0.00551 0.27723 0.0
H2580 H 0.61997 0.97315 0.26715 0.0
H2581 H 0.60418 0.97757 0.25522 0.0
H2582 H 0.59764 0.96147 0.27649 0.0
H2583 H 0.57627 0.98111 0.34402 0.0
H2584 H 0.55791 0.98846 0.32137 0.0
H2585 H 0.59035 0.99643 0.26461 0.0
C2586 C 0.63189 0.98119 0.31518 0.0
C2587 C 0.63446 0.97751 0.33713 0.0
C2588 C 0.62239 0.97549 0.35352 0.0
C2589 C 0.60809 0.97725 0.34823 0.0
C2590 C 0.60611 0.98116 0.32651 0.0
C2591 C 0.6177 0.98312 0.31025 0.0
C2592 C 0.61316 0.98818 0.28844 0.0
C2593 C 0.62813 0.00595 0.28079 0.0
C2594 C 0.60846 0.97426 0.27078 0.0
C2595 C 0.59728 0.98887 0.29498 0.0
C2596 C 0.59333 0.98463 0.31696 0.0
C2597 C 0.57921 0.98439 0.32678 0.0
C2598 C 0.56883 0.98853 0.31378 0.0
C2599 C 0.57271 0.99302 0.29125 0.0
C2600 C 0.58717 0.99321 0.28183 0.0
H2601 H 0.00959 0.64749 0.31352 0.0
H2602 H 0.02217 0.63899 0.38001 0.0
H2603 H 0.02114 0.61269 0.36731 0.0
H2604 H 0.97935 0.60233 0.30015 0.0
H2605 H 0.98621 0.60469 0.27185 0.0
H2606 H 0.98757 0.62268 0.28622 0.0
H2607 H 0.02059 0.64141 0.27727 0.0
H2608 H 0.01935 0.62349 0.26289 0.0
H2609 H 0.03496 0.63388 0.28512 0.0
H2610 H 0.02 0.58809 0.34721 0.0
H2611 H 0.01792 0.56623 0.32118 0.0
H2612 H 0.00545 0.59024 0.26788 0.0
C2613 C 0.01206 0.64007 0.32545 0.0
C2614 C 0.01599 0.64533 0.34778 0.0
C2615 C 0.01911 0.63522 0.36284 0.0
C2616 C 0.01856 0.62026 0.35579 0.0
C2617 C 0.01475 0.6155 0.33366 0.0
C2618 C 0.01145 0.62503 0.31872 0.0
C2619 C 0.00781 0.61715 0.29582 0.0
C2620 C 0.98912 0.61137 0.28806 0.0
C2621 C 0.0215 0.62974 0.27931 0.0
C2622 C 0.00977 0.6018 0.30017 0.0
C2623 C 0.0138 0.60112 0.32211 0.0
C2624 C 0.01677 0.58843 0.33002 0.0
C2625 C 0.01565 0.57613 0.31511 0.0
C2626 C 0.01153 0.57656 0.29256 0.0
C2627 C 0.00842 0.5895 0.28508 0.0
H2628 H 0.36922 0.39684 0.30532 0.0
H2629 H 0.37003 0.35273 0.33168 0.0
H2630 H 0.40004 0.36484 0.31733 0.0
H2631 H 0.39203 0.4007 0.2554 0.0
H2632 H 0.40353 0.42394 0.25542 0.0
H2633 H 0.38228 0.41166 0.26781 0.0
H2634 H 0.39509 0.42828 0.30461 0.0
H2635 H 0.41638 0.44061 0.29234 0.0
H2636 H 0.41359 0.42865 0.31735 0.0
H2637 H 0.43048 0.38254 0.30023 0.0
H2638 H 0.45818 0.40395 0.28218 0.0
H2639 H 0.43598 0.43535 0.26649 0.0
C2640 C 0.37565 0.38968 0.30818 0.0
C2641 C 0.3673 0.37387 0.31972 0.0
C2642 C 0.3762 0.36489 0.32291 0.0
C2643 C 0.39322 0.37167 0.31481 0.0
C2644 C 0.40104 0.38733 0.30349 0.0
C2645 C 0.39246 0.39615 0.30015 0.0
C2646 C 0.40351 0.41267 0.28747 0.0
C2647 C 0.39482 0.4122 0.26521 0.0
C2648 C 0.40737 0.42848 0.30127 0.0
C2649 C 0.41979 0.41193 0.28431 0.0
C2650 C 0.4182 0.39725 0.29359 0.0
C2651 C 0.43181 0.39403 0.29284 0.0
C2652 C 0.44745 0.40621 0.28247 0.0
C2653 C 0.4493 0.42139 0.27305 0.0
C2654 C 0.43515 0.42407 0.27387 0.0
H2655 H 0.3187 0.29565 0.38534 0.0
H2656 H 0.32465 0.28609 0.31679 0.0
H2657 H 0.33001 0.26315 0.32846 0.0
H2658 H 0.35254 0.29002 0.40708 0.0
H2659 H 0.34107 0.2796 0.43205 0.0
H2660 H 0.33697 0.29479 0.41831 0.0
H2661 H 0.30384 0.27169 0.41608 0.0
H2662 H 0.30784 0.25645 0.4299 0.0
H2663 H 0.29677 0.25109 0.40347 0.0
H2664 H 0.3354 0.2417 0.34763 0.0
H2665 H 0.3399 0.22292 0.37289 0.0
H2666 H 0.33118 0.24701 0.42895 0.0
C2667 C 0.32096 0.28864 0.37274 0.0
C2668 C 0.3212 0.29265 0.35012 0.0
C2669 C 0.32437 0.28324 0.33421 0.0
C2670 C 0.32744 0.27019 0.34067 0.0
C2671 C 0.32732 0.2667 0.36311 0.0
C2672 C 0.32412 0.27561 0.3789 0.0
C2673 C 0.32507 0.26959 0.40195 0.0
C2674 C 0.33979 0.28438 0.41565 0.0
C2675 C 0.30732 0.26174 0.41353 0.0
C2676 C 0.32935 0.25593 0.39665 0.0
C2677 C 0.33057 0.25445 0.37416 0.0
C2678 C 0.3345 0.24276 0.36529 0.0
C2679 C 0.33718 0.23224 0.37979 0.0
C2680 C 0.33596 0.2335 0.40294 0.0
C2681 C 0.33202 0.24557 0.41136 0.0
H2682 H 0.73971 0.0387 0.37624 0.0
H2683 H 0.6941 0.0347 0.34434 0.0
H2684 H 0.70144 0.06255 0.36135 0.0
H2685 H 0.73542 0.05603 0.42742 0.0
H2686 H 0.75874 0.06965 0.43162 0.0
H2687 H 0.74992 0.04972 0.41653 0.0
H2688 H 0.76961 0.06639 0.3833 0.0
H2689 H 0.77848 0.08637 0.39828 0.0
H2690 H 0.76853 0.08408 0.37148 0.0
H2691 H 0.71502 0.09178 0.38093 0.0
H2692 H 0.73249 0.11869 0.4024 0.0
H2693 H 0.76728 0.10133 0.42375 0.0
C2694 C 0.7313 0.04371 0.37268 0.0
C2695 C 0.71647 0.0347 0.35876 0.0
C2696 C 0.70559 0.0415 0.35489 0.0
C2697 C 0.70966 0.05727 0.36447 0.0
C2698 C 0.72445 0.06584 0.37813 0.0
C2699 C 0.73496 0.05916 0.38239 0.0
C2700 C 0.74982 0.07048 0.39807 0.0
C2701 C 0.74838 0.0609 0.41969 0.0
C2702 C 0.76766 0.07723 0.38712 0.0
C2703 C 0.74628 0.08482 0.40172 0.0
C2704 C 0.73167 0.08203 0.39006 0.0
C2705 C 0.72635 0.09397 0.39033 0.0
C2706 C 0.73631 0.10919 0.40274 0.0
C2707 C 0.75135 0.11226 0.41486 0.0
C2708 C 0.75611 0.09967 0.41445 0.0
H2709 H 0.96888 0.70873 0.38545 0.0
H2710 H 0.96412 0.65977 0.37017 0.0
H2711 H 0.93422 0.64432 0.38546 0.0
H2712 H 0.94728 0.69626 0.43668 0.0
H2713 H 0.93666 0.70839 0.43319 0.0
H2714 H 0.95723 0.7155 0.41998 0.0
H2715 H 0.94337 0.71506 0.38197 0.0
H2716 H 0.92278 0.70804 0.39509 0.0
H2717 H 0.92387 0.69558 0.3728 0.0
H2718 H 0.90511 0.63432 0.40393 0.0
H2719 H 0.87939 0.63068 0.42371 0.0
H2720 H 0.90359 0.68634 0.42629 0.0
C2721 C 0.96154 0.69475 0.3851 0.0
C2722 C 0.96886 0.68547 0.37655 0.0
C2723 C 0.95878 0.66718 0.37656 0.0
C2724 C 0.94179 0.65829 0.38522 0.0
C2725 C 0.93508 0.66788 0.39375 0.0
C2726 C 0.94464 0.68571 0.39366 0.0
C2727 C 0.93471 0.69306 0.40427 0.0
C2728 C 0.94456 0.70394 0.42474 0.0
C2729 C 0.93096 0.70355 0.38753 0.0
C2730 C 0.9181 0.67658 0.41061 0.0
C2731 C 0.91848 0.66217 0.40434 0.0
C2732 C 0.90464 0.64552 0.40878 0.0
C2733 C 0.89006 0.64358 0.41994 0.0
C2734 C 0.88947 0.65822 0.4266 0.0
C2735 C 0.9037 0.67489 0.4217 0.0
H2736 H 0.37444 0.03242 0.69638 0.0
H2737 H 0.344 0.98633 0.65636 0.0
H2738 H 0.36275 0.97552 0.66911 0.0
H2739 H 0.41746 0.03584 0.68778 0.0
H2740 H 0.42475 0.04345 0.71555 0.0
H2741 H 0.41 0.04837 0.70154 0.0
H2742 H 0.38831 0.03483 0.73392 0.0
H2743 H 0.40281 0.02959 0.74784 0.0
H2744 H 0.38052 0.01284 0.74187 0.0
H2745 H 0.38149 0.96764 0.69054 0.0
H2746 H 0.40185 0.96489 0.71511 0.0
H2747 H 0.42258 0.01741 0.73839 0.0
C2748 C 0.37201 0.02026 0.68987 0.0
C2749 C 0.35775 0.01023 0.67535 0.0
C2750 C 0.35491 0.99432 0.66734 0.0
C2751 C 0.36545 0.98801 0.67457 0.0
C2752 C 0.37899 0.99792 0.68947 0.0
C2753 C 0.38261 0.01389 0.69663 0.0
C2754 C 0.3977 0.02168 0.7131 0.0
C2755 C 0.41341 0.03832 0.70394 0.0
C2756 C 0.39198 0.02492 0.7355 0.0
C2757 C 0.40156 0.00731 0.71464 0.0
C2758 C 0.39056 0.99372 0.70094 0.0
C2759 C 0.39059 0.97843 0.70082 0.0
C2760 C 0.40238 0.97706 0.71482 0.0
C2761 C 0.4143 0.99104 0.72857 0.0
C2762 C 0.41376 0.00638 0.7283 0.0
H2763 H 0.97811 0.3544 0.7116 0.0
H2764 H 0.02009 0.37932 0.66411 0.0
H2765 H 0.02699 0.40782 0.67752 0.0
H2766 H 0.96401 0.38534 0.70709 0.0
H2767 H 0.95917 0.38437 0.73604 0.0
H2768 H 0.95728 0.36584 0.72247 0.0
H2769 H 0.97853 0.36523 0.75134 0.0
H2770 H 0.98051 0.38376 0.76497 0.0
H2771 H 0.99983 0.38431 0.75565 0.0
H2772 H 0.03036 0.43357 0.69722 0.0
H2773 H 0.02895 0.45497 0.72075 0.0
H2774 H 0.98422 0.41357 0.75464 0.0
C2775 C 0.9887 0.36585 0.70395 0.0
C2776 C 0.99858 0.36461 0.68681 0.0
C2777 C 0.0123 0.37991 0.67721 0.0
C2778 C 0.01635 0.39618 0.68474 0.0
C2779 C 0.00645 0.39695 0.70175 0.0
C2780 C 0.99282 0.38221 0.71113 0.0
C2781 C 0.98426 0.38668 0.72921 0.0
C2782 C 0.96504 0.38017 0.72334 0.0
C2783 C 0.98589 0.37958 0.75162 0.0
C2784 C 0.99536 0.40622 0.72868 0.0
C2785 C 0.00812 0.41186 0.71276 0.0
C2786 C 0.02035 0.42933 0.70963 0.0
C2787 C 0.0195 0.44136 0.72312 0.0
C2788 C 0.00646 0.4359 0.73942 0.0
C2789 C 0.99419 0.41809 0.74211 0.0
H2790 H 0.63566 0.61353 0.73128 0.0
H2791 H 0.6322 0.65517 0.70123 0.0
H2792 H 0.60199 0.64214 0.71497 0.0
H2793 H 0.59181 0.57971 0.71958 0.0
H2794 H 0.58928 0.56873 0.74539 0.0
H2795 H 0.61063 0.58147 0.73338 0.0
H2796 H 0.62241 0.59941 0.76943 0.0
H2797 H 0.6011 0.58671 0.78157 0.0
H2798 H 0.6116 0.60986 0.7803 0.0
H2799 H 0.57177 0.62403 0.73157 0.0
H2800 H 0.5443 0.60256 0.74977 0.0
H2801 H 0.5683 0.57352 0.7697 0.0
C2802 C 0.6286 0.61995 0.72755 0.0
C2803 C 0.63631 0.63536 0.7151 0.0
C2804 C 0.62658 0.64335 0.71071 0.0
C2805 C 0.60941 0.63605 0.71845 0.0
C2806 C 0.60221 0.62082 0.73063 0.0
C2807 C 0.61154 0.61291 0.73521 0.0
C2808 C 0.60089 0.59666 0.74864 0.0
C2809 C 0.59798 0.5807 0.73598 0.0
C2810 C 0.60952 0.59827 0.77133 0.0
C2811 C 0.58402 0.59654 0.75077 0.0
C2812 C 0.58501 0.61057 0.74032 0.0
C2813 C 0.5709 0.61305 0.73991 0.0
C2814 C 0.55538 0.60083 0.75041 0.0
C2815 C 0.55409 0.58632 0.76118 0.0
C2816 C 0.56872 0.58431 0.76138 0.0
H2817 H 0.69163 0.72325 0.65443 0.0
H2818 H 0.64938 0.70314 0.70168 0.0
H2819 H 0.6406 0.72298 0.68724 0.0
H2820 H 0.7028 0.76792 0.65797 0.0
H2821 H 0.70777 0.77209 0.62905 0.0
H2822 H 0.71084 0.75633 0.64313 0.0
H2823 H 0.69073 0.73323 0.61429 0.0
H2824 H 0.68754 0.74889 0.60018 0.0
H2825 H 0.6689 0.72893 0.60952 0.0
H2826 H 0.63527 0.74372 0.6664 0.0
H2827 H 0.63544 0.766 0.64254 0.0
H2828 H 0.682 0.77394 0.61016 0.0
C2829 C 0.68059 0.72309 0.66179 0.0
C2830 C 0.67117 0.71161 0.67917 0.0
C2831 C 0.65685 0.71186 0.68843 0.0
C2832 C 0.65171 0.72304 0.68029 0.0
C2833 C 0.66114 0.73407 0.66305 0.0
C2834 C 0.67542 0.73438 0.65408 0.0
C2835 C 0.68344 0.74773 0.63587 0.0
C2836 C 0.70233 0.76185 0.64187 0.0
C2837 C 0.68259 0.73918 0.61365 0.0
C2838 C 0.67133 0.75472 0.63588 0.0
C2839 C 0.65846 0.74655 0.65157 0.0
C2840 C 0.64537 0.75033 0.6542 0.0
C2841 C 0.64551 0.76292 0.64054 0.0
C2842 C 0.65877 0.7717 0.62467 0.0
C2843 C 0.67183 0.76754 0.62237 0.0
H2844 H 0.25534 0.96109 0.66812 0.0
H2845 H 0.30618 0.96964 0.68693 0.0
H2846 H 0.29732 0.94063 0.67284 0.0
H2847 H 0.22915 0.91436 0.67896 0.0
H2848 H 0.21543 0.91028 0.65496 0.0
H2849 H 0.22496 0.93067 0.66919 0.0
H2850 H 0.23889 0.94671 0.63264 0.0
H2851 H 0.22951 0.9264 0.61836 0.0
H2852 H 0.2528 0.94151 0.61759 0.0
H2853 H 0.28333 0.91123 0.65478 0.0
H2854 H 0.26582 0.88434 0.63336 0.0
H2855 H 0.22535 0.89663 0.62363 0.0
C2856 C 0.26443 0.95666 0.66985 0.0
C2857 C 0.28132 0.96746 0.67896 0.0
C2858 C 0.29308 0.96146 0.68023 0.0
C2859 C 0.28817 0.94502 0.67228 0.0
C2860 C 0.27153 0.93484 0.66292 0.0
C2861 C 0.25986 0.94046 0.66163 0.0
C2862 C 0.24341 0.92776 0.64904 0.0
C2863 C 0.22729 0.92033 0.66393 0.0
C2864 C 0.24103 0.9361 0.62818 0.0
C2865 C 0.2477 0.9142 0.64327 0.0
C2866 C 0.26385 0.91837 0.65165 0.0
C2867 C 0.27065 0.90784 0.64814 0.0
C2868 C 0.26066 0.89266 0.63573 0.0
C2869 C 0.24414 0.88824 0.62668 0.0
C2870 C 0.23771 0.89929 0.63061 0.0
H2871 H 0.03121 0.29408 0.65038 0.0
H2872 H 0.03715 0.34387 0.66332 0.0
H2873 H 0.06772 0.35841 0.65032 0.0
H2874 H 0.07522 0.3058 0.66688 0.0
H2875 H 0.07671 0.29293 0.64548 0.0
H2876 H 0.05574 0.28664 0.65694 0.0
H2877 H 0.04376 0.28651 0.61772 0.0
H2878 H 0.06469 0.29287 0.60615 0.0
H2879 H 0.05497 0.30565 0.60094 0.0
H2880 H 0.09735 0.36738 0.63405 0.0
H2881 H 0.12327 0.36995 0.61609 0.0
H2882 H 0.09749 0.3141 0.61462 0.0
C2883 C 0.03893 0.30805 0.65071 0.0
C2884 C 0.03176 0.31783 0.65791 0.0
C2885 C 0.04237 0.33609 0.65795 0.0
C2886 C 0.05974 0.34446 0.65059 0.0
C2887 C 0.0663 0.33438 0.64337 0.0
C2888 C 0.0562 0.31656 0.64348 0.0
C2889 C 0.06605 0.30862 0.63429 0.0
C2890 C 0.06858 0.29787 0.65196 0.0
C2891 C 0.05682 0.29778 0.61355 0.0
C2892 C 0.08321 0.32474 0.62867 0.0
C2893 C 0.08319 0.33949 0.63411 0.0
C2894 C 0.09755 0.3559 0.62991 0.0
C2895 C 0.11223 0.35723 0.61979 0.0
C2896 C 0.11242 0.34223 0.61392 0.0
C2897 C 0.09771 0.32582 0.61865 0.0
H2898 H 0.29926 0.32784 0.6846 0.0
H2899 H 0.30702 0.29804 0.63515 0.0
H2900 H 0.28424 0.29777 0.61168 0.0
H2901 H 0.25165 0.30648 0.67671 0.0
H2902 H 0.25166 0.32613 0.68083 0.0
H2903 H 0.26795 0.32321 0.69439 0.0
H2904 H 0.29245 0.35172 0.67711 0.0
H2905 H 0.27625 0.35465 0.66336 0.0
H2906 H 0.29303 0.35437 0.64757 0.0
H2907 H 0.26256 0.30266 0.59227 0.0
H2908 H 0.2419 0.31088 0.57892 0.0
H2909 H 0.24672 0.3362 0.64159 0.0
C2910 C 0.29602 0.32107 0.66896 0.0
C2911 C 0.30496 0.31297 0.66174 0.0
C2912 C 0.30036 0.30432 0.6411 0.0
C2913 C 0.28744 0.3041 0.62761 0.0
C2914 C 0.27911 0.31245 0.63504 0.0
C2915 C 0.28305 0.32063 0.65531 0.0
C2916 C 0.27233 0.32892 0.65908 0.0
C2917 C 0.26017 0.32069 0.67893 0.0
C2918 C 0.28423 0.34858 0.66194 0.0
C2919 C 0.26201 0.32437 0.63759 0.0
C2920 C 0.26614 0.31488 0.624 0.0
C2921 C 0.25894 0.3098 0.60293 0.0
C2922 C 0.24708 0.31445 0.59556 0.0
C2923 C 0.24235 0.32397 0.60928 0.0
C2924 C 0.25 0.32896 0.63061 0.0
H2925 H 0.68055 0.98716 0.64012 0.0
H2926 H 0.68761 0.97541 0.70762 0.0
H2927 H 0.68555 0.94869 0.69497 0.0
H2928 H 0.64887 0.9433 0.62428 0.0
H2929 H 0.65707 0.94546 0.59669 0.0
H2930 H 0.6595 0.96402 0.6108 0.0
H2931 H 0.693 0.98041 0.60476 0.0
H2932 H 0.69067 0.96191 0.5906 0.0
H2933 H 0.70528 0.97088 0.61407 0.0
H2934 H 0.68291 0.92342 0.67543 0.0
H2935 H 0.67907 0.90052 0.65007 0.0
H2936 H 0.67311 0.92784 0.59498 0.0
C2937 C 0.68173 0.97899 0.6522 0.0
C2938 C 0.68428 0.98343 0.67489 0.0
C2939 C 0.68563 0.97232 0.69018 0.0
C2940 C 0.6845 0.95709 0.68316 0.0
C2941 C 0.68193 0.95306 0.66077 0.0
C2942 C 0.68049 0.9636 0.64548 0.0
C2943 C 0.67743 0.95598 0.62243 0.0
C2944 C 0.65966 0.95195 0.613 0.0
C2945 C 0.69249 0.96801 0.60706 0.0
C2946 C 0.67741 0.93954 0.62721 0.0
C2947 C 0.68012 0.93821 0.64945 0.0
C2948 C 0.68081 0.92432 0.65798 0.0
C2949 C 0.67872 0.91143 0.64341 0.0
C2950 C 0.67589 0.91243 0.62053 0.0
C2951 C 0.67515 0.92667 0.6124 0.0
H2952 H 0.04608 0.72203 0.6709 0.0
H2953 H 0.0238 0.67325 0.6363 0.0
H2954 H 0.05261 0.6831 0.61937 0.0
H2955 H 0.0712 0.74829 0.62983 0.0
H2956 H 0.08973 0.76311 0.64669 0.0
H2957 H 0.06831 0.75123 0.65854 0.0
H2958 H 0.0796 0.73886 0.68858 0.0
H2959 H 0.1012 0.75091 0.67698 0.0
H2960 H 0.09061 0.72788 0.68049 0.0
H2961 H 0.08214 0.7007 0.60105 0.0
H2962 H 0.11039 0.72319 0.5857 0.0
H2963 H 0.11419 0.75908 0.63582 0.0
C2964 C 0.04745 0.71326 0.66024 0.0
C2965 C 0.0329 0.69695 0.6548 0.0
C2966 C 0.03496 0.68576 0.64076 0.0
C2967 C 0.05123 0.69126 0.63108 0.0
C2968 C 0.06528 0.70773 0.63624 0.0
C2969 C 0.06362 0.71837 0.65097 0.0
C2970 C 0.08031 0.7358 0.65286 0.0
C2971 C 0.07719 0.75046 0.6466 0.0
C2972 C 0.08841 0.73851 0.67611 0.0
C2973 C 0.09132 0.73372 0.63594 0.0
C2974 C 0.08253 0.71745 0.62657 0.0
C2975 C 0.08938 0.7133 0.60876 0.0
C2976 C 0.10551 0.72619 0.60018 0.0
C2977 C 0.11465 0.74301 0.6095 0.0
C2978 C 0.10757 0.7465 0.62805 0.0
H2979 H 0.98316 0.62658 0.718 0.0
H2980 H 0.95673 0.59901 0.65783 0.0
H2981 H 0.95746 0.57362 0.67113 0.0
H2982 H 0.01218 0.61116 0.72195 0.0
H2983 H 0.01155 0.60963 0.75163 0.0
H2984 H 0.00795 0.62521 0.73807 0.0
H2985 H 0.97817 0.61256 0.75771 0.0
H2986 H 0.98172 0.59698 0.77144 0.0
H2987 H 0.9621 0.58984 0.7552 0.0
H2988 H 0.96188 0.5516 0.69051 0.0
H2989 H 0.97006 0.53467 0.7143 0.0
H2990 H 0.99398 0.57686 0.7615 0.0
C2991 C 0.97732 0.61514 0.70771 0.0
C2992 C 0.9698 0.61474 0.6869 0.0
C2993 C 0.96253 0.59959 0.67384 0.0
C2994 C 0.96286 0.58511 0.68126 0.0
C2995 C 0.97056 0.58601 0.70174 0.0
C2996 C 0.97766 0.60064 0.71478 0.0
C2997 C 0.98577 0.59854 0.73573 0.0
C2998 C 0.00553 0.61193 0.7369 0.0
C2999 C 0.97637 0.59953 0.75623 0.0
C3000 C 0.98225 0.5805 0.73237 0.0
C3001 C 0.97335 0.57344 0.71274 0.0
C3002 C 0.96876 0.55695 0.70597 0.0
C3003 C 0.9734 0.54742 0.71963 0.0
C3004 C 0.98261 0.55443 0.73976 0.0
C3005 C 0.98706 0.5712 0.74613 0.0
H3006 H 0.41092 0.372 0.71352 0.0
H3007 H 0.36 0.36259 0.69313 0.0
H3008 H 0.36842 0.39166 0.70651 0.0
H3009 H 0.41382 0.39277 0.76297 0.0
H3010 H 0.43703 0.40807 0.76147 0.0
H3011 H 0.4277 0.38738 0.7482 0.0
H3012 H 0.44089 0.40236 0.71087 0.0
H3013 H 0.45041 0.42314 0.72407 0.0
H3014 H 0.43626 0.41817 0.70029 0.0
H3015 H 0.38184 0.42109 0.72483 0.0
H3016 H 0.39905 0.44812 0.74634 0.0
H3017 H 0.44089 0.43768 0.75434 0.0
C3018 C 0.4016 0.37611 0.71148 0.0
C3019 C 0.38481 0.36502 0.7022 0.0
C3020 C 0.37297 0.37089 0.70009 0.0
C3021 C 0.37764 0.38738 0.70764 0.0
C3022 C 0.39419 0.39783 0.71713 0.0
C3023 C 0.406 0.39242 0.71894 0.0
C3024 C 0.42258 0.40559 0.73087 0.0
C3025 C 0.42543 0.39799 0.75213 0.0
C3026 C 0.43847 0.41274 0.71561 0.0
C3027 C 0.41814 0.41913 0.73594 0.0
C3028 C 0.4018 0.41455 0.72774 0.0
C3029 C 0.39473 0.42487 0.73112 0.0
C3030 C 0.4046 0.44021 0.74329 0.0
C3031 C 0.42128 0.44496 0.75207 0.0
C3032 C 0.42811 0.43431 0.74807 0.0
H3033 H 0.63705 0.04009 0.72715 0.0
H3034 H 0.63121 0.99439 0.69596 0.0
H3035 H 0.59952 0.97837 0.70467 0.0
H3036 H 0.60721 0.01858 0.77141 0.0
H3037 H 0.5993 0.03322 0.77089 0.0
H3038 H 0.62132 0.04057 0.76248 0.0
H3039 H 0.61524 0.05026 0.72482 0.0
H3040 H 0.59318 0.04287 0.73306 0.0
H3041 H 0.59704 0.03485 0.70796 0.0
H3042 H 0.56804 0.96768 0.71706 0.0
H3043 H 0.54025 0.96354 0.73132 0.0
H3044 H 0.56796 0.01672 0.75376 0.0
C3045 C 0.62922 0.02668 0.72215 0.0
C3046 C 0.63665 0.01849 0.71087 0.0
C3047 C 0.62581 0.00093 0.70464 0.0
C3048 C 0.60782 0.99176 0.70952 0.0
C3049 C 0.60096 0.00036 0.72059 0.0
C3050 C 0.61142 0.01745 0.72679 0.0
C3051 C 0.60112 0.024 0.73826 0.0
C3052 C 0.60762 0.0294 0.76217 0.0
C3053 C 0.60168 0.03887 0.72524 0.0
C3054 C 0.5831 0.00796 0.7375 0.0
C3055 C 0.58317 0.99439 0.72736 0.0
C3056 C 0.56788 0.97825 0.725 0.0
C3057 C 0.55219 0.976 0.73319 0.0
C3058 C 0.55193 0.98986 0.74346 0.0
C3059 C 0.56765 0.00597 0.74562 0.0
loop_
_geom_bond_atom_site_label_1
_geom_bond_atom_site_label_2
_geom_bond_distance
_geom_bond_site_symmetry_2
_ccdc_geom_bond_type
Zn0 O3 2.031 1_554 S
Zn0 O5 2.049 . S
Zn0 O10 2.067 1_554 S
Zn1 O2 1.962 1_455 S
Zn1 O4 1.986 . S
Zn1 O6 1.996 1_455 S
Zn1 O9 1.943 1_554 S
O2 Zn1 1.962 1_655 S
O2 C7 1.257 . S
O3 Zn0 2.031 1_556 S
O3 C7 1.268 1_556 S
O4 Zn1 1.986 . S
O4 C11 1.262 . S
O5 Zn0 2.049 . S
O5 C13 1.260 . S
O6 Zn1 1.996 1_655 S
O6 C13 1.257 . S
C7 O2 1.257 . S
C7 O3 1.268 1_554 S
C8 O9 1.249 . S
C8 O10 1.270 1_455 S
O9 Zn1 1.943 1_556 S
O9 C8 1.249 . S
O10 Zn0 2.067 1_556 S
O10 C8 1.270 1_655 S
C11 O4 1.262 . S
C11 O12 1.232 . S
O12 C11 1.232 . S
C13 O5 1.260 . S
C13 O6 1.257 . S
Zn14 O17 2.031 1_554 S
Zn14 O19 2.049 . S
Zn14 O24 2.067 1_554 S
Zn15 O16 1.962 . S
Zn15 O18 1.986 . S
Zn15 O20 1.996 . S
Zn15 O23 1.943 1_554 S
O16 Zn15 1.962 . S
O16 C21 1.254 1_554 S
O17 Zn14 2.031 1_556 S
O17 C21 1.269 . S
O18 Zn15 1.986 . S
O18 C25 1.262 . S
O19 Zn14 2.049 . S
O19 C27 1.260 . S
O20 Zn15 1.996 . S
O20 C27 1.257 . S
C21 O16 1.254 1_556 S
C21 O17 1.269 . S
C22 O23 1.249 . S
C22 O24 1.270 . S
O23 Zn15 1.943 1_556 S
O23 C22 1.249 . S
O24 Zn14 2.067 1_556 S
O24 C22 1.270 . S
C25 O18 1.262 . S
C25 O26 1.232 . S
O26 C25 1.232 . S
C27 O19 1.260 . S
C27 O20 1.257 . S
Zn28 O31 2.031 . S
Zn28 O33 2.049 1_554 S
Zn28 O38 2.067 . S
Zn29 O30 1.962 1_545 S
Zn29 O32 1.986 1_554 S
Zn29 O34 1.996 1_544 S
Zn29 O37 1.943 . S
O30 Zn29 1.962 1_565 S
O30 C35 1.254 . S
O31 Zn28 2.031 . S
O31 C35 1.269 . S
O32 Zn29 1.986 1_556 S
O32 C39 1.262 . S
O33 Zn28 2.049 1_556 S
O33 C41 1.260 . S
O34 Zn29 1.996 1_566 S
O34 C41 1.257 . S
C35 O30 1.254 . S
C35 O31 1.269 . S
C36 O37 1.249 . S
C36 O38 1.270 1_545 S
O37 Zn29 1.943 . S
O37 C36 1.249 . S
O38 Zn28 2.067 . S
O38 C36 1.270 1_565 S
C39 O32 1.262 . S
C39 O40 1.232 1_556 S
O40 C39 1.232 1_554 S
C41 O33 1.260 . S
C41 O34 1.257 . S
Zn42 O45 2.031 . S
Zn42 O47 2.049 1_554 S
Zn42 O52 2.067 . S
Zn43 O44 1.962 1_655 S
Zn43 O46 1.986 1_554 S
Zn43 O48 1.996 1_654 S
Zn43 O51 1.943 . S
O44 Zn43 1.962 1_455 S
O44 C49 1.254 . S
O45 Zn42 2.031 . S
O45 C49 1.269 . S
O46 Zn43 1.986 1_556 S
O46 C53 1.262 . S
O47 Zn42 2.049 1_556 S
O47 C55 1.260 . S
O48 Zn43 1.996 1_456 S
O48 C55 1.257 . S
C49 O44 1.254 . S
C49 O45 1.269 . S
C50 O51 1.249 . S
C50 O52 1.270 1_655 S
O51 Zn43 1.943 . S
O51 C50 1.249 . S
O52 Zn42 2.067 . S
O52 C50 1.270 1_455 S
C53 O46 1.262 . S
C53 O54 1.232 1_556 S
O54 C53 1.232 1_554 S
C55 O47 1.260 . S
C55 O48 1.257 . S
Zn56 O59 2.031 . S
Zn56 O61 2.049 1_554 S
Zn56 O66 2.067 . S
Zn57 O58 1.962 . S
Zn57 O60 1.986 1_554 S
Zn57 O62 1.996 1_554 S
Zn57 O65 1.943 . S
O58 Zn57 1.962 . S
O58 C63 1.254 . S
O59 Zn56 2.031 . S
O59 C63 1.269 . S
O60 Zn57 1.986 1_556 S
O60 C67 1.262 . S
O61 Zn56 2.049 1_556 S
O61 C69 1.260 . S
O62 Zn57 1.996 1_556 S
O62 C69 1.257 . S
C63 O58 1.254 . S
C63 O59 1.269 . S
C64 O65 1.249 . S
C64 O66 1.270 . S
O65 Zn57 1.943 . S
O65 C64 1.249 . S
O66 Zn56 2.067 . S
O66 C64 1.270 . S
C67 O60 1.262 . S
C67 O68 1.232 1_556 S
O68 C67 1.232 1_554 S
C69 O61 1.260 . S
C69 O62 1.257 . S
Zn70 O73 2.031 1_554 S
Zn70 O75 2.049 . S
Zn70 O80 2.067 1_554 S
Zn71 O72 1.962 1_565 S
Zn71 O74 1.986 . S
Zn71 O76 1.996 1_565 S
Zn71 O79 1.933 1_554 S
O72 Zn71 1.962 1_545 S
O72 C77 1.254 . S
O73 Zn70 2.031 1_556 S
O73 C77 1.269 1_556 S
O74 Zn71 1.986 . S
O74 C81 1.262 . S
O75 Zn70 2.049 . S
O75 C83 1.260 . S
O76 Zn71 1.996 1_545 S
O76 C83 1.257 . S
C77 O72 1.254 . S
C77 O73 1.269 1_554 S
C78 O79 1.255 . S
C78 O80 1.270 1_565 S
O79 Zn71 1.933 1_556 S
O79 C78 1.255 . S
O80 Zn70 2.067 1_556 S
O80 C78 1.270 1_545 S
C81 O74 1.262 . S
C81 O82 1.232 . S
O82 C81 1.232 . S
C83 O75 1.260 . S
C83 O76 1.257 . S
Zn84 O87 2.031 . S
Zn84 O89 2.049 . S
Zn84 O94 2.067 . S
Zn85 O86 1.962 . S
Zn85 O88 1.986 . S
Zn85 O90 1.996 . S
Zn85 O93 1.943 . S
O86 Zn85 1.962 . S
O86 C91 1.254 . S
O87 Zn84 2.031 . S
O87 C91 1.269 . S
O88 Zn85 1.986 . S
O88 C95 1.262 . S
O89 Zn84 2.049 . S
O89 C97 1.260 . S
O90 Zn85 1.996 . S
O90 C97 1.257 . S
C91 O86 1.254 . S
C91 O87 1.269 . S
C92 O93 1.249 . S
C92 O94 1.270 . S
O93 Zn85 1.943 . S
O93 C92 1.249 . S
O94 Zn84 2.067 . S
O94 C92 1.270 . S
C95 O88 1.262 . S
C95 O96 1.232 . S
O96 C95 1.232 . S
C97 O89 1.260 . S
C97 O90 1.257 . S
Zn98 O101 2.031 . S
Zn98 O103 2.049 . S
Zn98 O108 2.067 . S
Zn99 O100 1.962 . S
Zn99 O102 1.986 1_565 S
Zn99 O104 1.996 . S
Zn99 O107 1.943 . S
O100 Zn99 1.962 . S
O100 C105 1.254 . S
O101 Zn98 2.031 . S
O101 C105 1.269 . S
O102 Zn99 1.986 1_545 S
O102 C109 1.262 . S
O103 Zn98 2.049 . S
O103 C111 1.260 . S
O104 Zn99 1.996 . S
O104 C111 1.257 . S
C105 O100 1.254 . S
C105 O101 1.269 . S
C106 O107 1.249 . S
C106 O108 1.270 . S
O107 Zn99 1.943 . S
O107 C106 1.249 . S
O108 Zn98 2.067 . S
O108 C106 1.270 . S
C109 O102 1.262 . S
C109 O110 1.232 . S
O110 C109 1.232 . S
C111 O103 1.260 . S
C111 O104 1.257 . S
Zn112 O115 2.031 . S
Zn112 O117 2.049 . S
Zn112 O122 2.067 . S
Zn113 O114 1.962 1_455 S
Zn113 O116 1.986 . S
Zn113 O118 1.996 . S
Zn113 O121 1.943 . S
O114 Zn113 1.962 1_655 S
O114 C119 1.254 . S
O115 Zn112 2.031 . S
O115 C119 1.269 1_455 S
O116 Zn113 1.986 . S
O116 C123 1.262 . S
O117 Zn112 2.049 . S
O117 C125 1.260 . S
O118 Zn113 1.996 . S
O118 C125 1.257 . S
C119 O114 1.254 . S
C119 O115 1.269 1_655 S
C120 O121 1.249 . S
C120 O122 1.270 . S
O121 Zn113 1.943 . S
O121 C120 1.249 . S
O122 Zn112 2.067 . S
O122 C120 1.270 . S
C123 O116 1.262 . S
C123 O124 1.232 . S
O124 C123 1.232 . S
C125 O117 1.260 . S
C125 O118 1.257 . S
Zn126 O129 2.031 . S
Zn126 O131 2.049 . S
Zn126 O136 2.067 . S
Zn127 O128 1.962 1_565 S
Zn127 O130 1.986 . S
Zn127 O132 1.996 . S
Zn127 O135 1.943 . S
O128 Zn127 1.962 1_545 S
O128 C133 1.254 . S
O129 Zn126 2.031 . S
O129 C133 1.269 1_565 S
O130 Zn127 1.986 . S
O130 C137 1.262 . S
O131 Zn126 2.049 . S
O131 C139 1.260 . S
O132 Zn127 1.996 . S
O132 C139 1.257 . S
C133 O128 1.254 . S
C133 O129 1.269 1_545 S
C134 O135 1.249 . S
C134 O136 1.270 . S
O135 Zn127 1.943 . S
O135 C134 1.249 . S
O136 Zn126 2.067 . S
O136 C134 1.270 . S
C137 O130 1.262 . S
C137 O138 1.232 . S
O138 C137 1.232 . S
C139 O131 1.260 . S
C139 O132 1.257 . S
Zn140 O143 2.031 . S
Zn140 O145 2.049 . S
Zn140 O150 2.067 . S
Zn141 O142 1.962 1_455 S
Zn141 O144 1.986 . S
Zn141 O146 1.996 . S
Zn141 O149 1.943 . S
O142 Zn141 1.962 1_655 S
O142 C147 1.254 . S
O143 Zn140 2.031 . S
O143 C147 1.269 1_455 S
O144 Zn141 1.986 . S
O144 C151 1.262 . S
O145 Zn140 2.049 . S
O145 C153 1.260 . S
O146 Zn141 1.996 . S
O146 C153 1.257 . S
C147 O142 1.254 . S
C147 O143 1.269 1_655 S
C148 O149 1.249 . S
C148 O150 1.270 . S
O149 Zn141 1.943 . S
O149 C148 1.249 . S
O150 Zn140 2.067 . S
O150 C148 1.270 . S
C151 O144 1.262 . S
C151 O152 1.232 . S
O152 C151 1.232 . S
C153 O145 1.260 . S
C153 O146 1.257 . S
Zn154 O157 2.031 . S
Zn154 O159 2.049 . S
Zn154 O164 2.067 . S
Zn155 O156 1.962 . S
Zn155 O158 1.986 . S
Zn155 O160 1.996 . S
Zn155 O163 1.943 . S
O156 Zn155 1.962 . S
O156 C161 1.254 . S
O157 Zn154 2.031 . S
O157 C161 1.269 . S
O158 Zn155 1.986 . S
O158 C165 1.262 . S
O159 Zn154 2.049 . S
O159 C167 1.260 . S
O160 Zn155 1.996 . S
O160 C167 1.257 . S
C161 O156 1.254 . S
C161 O157 1.269 . S
C162 O163 1.249 . S
C162 O164 1.270 . S
O163 Zn155 1.943 . S
O163 C162 1.249 . S
O164 Zn154 2.067 . S
O164 C162 1.270 . S
C165 O158 1.262 . S
C165 O166 1.232 . S
O166 C165 1.232 . S
C167 O159 1.260 . S
C167 O160 1.257 . S
Zn168 O171 2.031 . S
Zn168 O173 2.049 . S
Zn168 O178 2.067 . S
Zn169 O170 1.962 1_545 S
Zn169 O172 1.986 . S
Zn169 O174 1.996 . S
Zn169 O177 1.943 . S
O170 Zn169 1.962 1_565 S
O170 C175 1.254 . S
O171 Zn168 2.031 . S
O171 C175 1.269 1_545 S
O172 Zn169 1.986 . S
O172 C179 1.262 . S
O173 Zn168 2.049 . S
O173 C181 1.260 . S
O174 Zn169 1.996 . S
O174 C181 1.257 . S
C175 O170 1.254 . S
C175 O171 1.269 1_565 S
C176 O177 1.249 . S
C176 O178 1.270 . S
O177 Zn169 1.943 . S
O177 C176 1.249 . S
O178 Zn168 2.067 . S
O178 C176 1.270 . S
C179 O172 1.262 . S
C179 O180 1.232 . S
O180 C179 1.232 . S
C181 O173 1.260 . S
C181 O174 1.257 . S
Zn182 O185 2.042 . S
Zn182 O187 2.049 . S
Zn182 O192 2.067 . S
Zn183 O184 1.962 1_655 S
Zn183 O186 1.986 . S
Zn183 O188 1.996 . S
Zn183 O191 1.943 . S
O184 Zn183 1.962 1_455 S
O184 C189 1.254 . S
O185 Zn182 2.042 . S
O185 C189 1.258 1_655 S
O186 Zn183 1.986 . S
O186 C193 1.262 . S
O187 Zn182 2.049 . S
O187 C195 1.260 . S
O188 Zn183 1.996 . S
O188 C195 1.257 . S
C189 O184 1.254 . S
C189 O185 1.258 1_455 S
C190 O191 1.249 . S
C190 O192 1.270 . S
O191 Zn183 1.943 . S
O191 C190 1.249 . S
O192 Zn182 2.067 . S
O192 C190 1.270 . S
C193 O186 1.262 . S
C193 O194 1.232 . S
O194 C193 1.232 . S
C195 O187 1.260 . S
C195 O188 1.257 . S
Zn196 O199 2.031 . S
Zn196 O201 2.049 . S
Zn196 O206 2.067 . S
Zn197 O198 1.962 . S
Zn197 O200 1.986 . S
Zn197 O202 1.996 . S
Zn197 O205 1.943 . S
O198 Zn197 1.962 . S
O198 C203 1.254 . S
O199 Zn196 2.031 . S
O199 C203 1.269 . S
O200 Zn197 1.986 . S
O200 C207 1.262 . S
O201 Zn196 2.049 . S
O201 C209 1.260 . S
O202 Zn197 1.996 . S
O202 C209 1.257 . S
C203 O198 1.254 . S
C203 O199 1.269 . S
C204 O205 1.249 . S
C204 O206 1.270 . S
O205 Zn197 1.943 . S
O205 C204 1.249 . S
O206 Zn196 2.067 . S
O206 C204 1.270 . S
C207 O200 1.262 . S
C207 O208 1.232 . S
O208 C207 1.232 . S
C209 O201 1.260 . S
C209 O202 1.257 . S
Zn210 O213 2.031 . S
Zn210 O215 2.049 . S
Zn210 O220 2.067 . S
Zn211 O212 1.962 . S
Zn211 O214 1.986 . S
Zn211 O216 1.996 . S
Zn211 O219 1.943 . S
O212 Zn211 1.962 . S
O212 C217 1.254 . S
O213 Zn210 2.031 . S
O213 C217 1.269 . S
O214 Zn211 1.986 . S
O214 C221 1.262 . S
O215 Zn210 2.049 . S
O215 C223 1.260 . S
O216 Zn211 1.996 . S
O216 C223 1.257 . S
C217 O212 1.254 . S
C217 O213 1.269 . S
C218 O219 1.249 . S
C218 O220 1.270 . S
O219 Zn211 1.943 . S
O219 C218 1.249 . S
O220 Zn210 2.067 . S
O220 C218 1.270 . S
C221 O214 1.262 . S
C221 O222 1.232 . S
O222 C221 1.232 . S
C223 O215 1.260 . S
C223 O216 1.257 . S
Zn224 O227 2.031 . S
Zn224 O229 2.049 . S
Zn224 O234 2.067 . S
Zn225 O226 1.962 . S
Zn225 O228 1.986 1_545 S
Zn225 O230 1.996 . S
Zn225 O233 1.943 . S
O226 Zn225 1.962 . S
O226 C231 1.254 . S
O227 Zn224 2.031 . S
O227 C231 1.269 . S
O228 Zn225 1.986 1_565 S
O228 C235 1.262 . S
O229 Zn224 2.049 . S
O229 C237 1.260 . S
O230 Zn225 1.996 . S
O230 C237 1.257 . S
C231 O226 1.254 . S
C231 O227 1.269 . S
C232 O233 1.249 . S
C232 O234 1.270 . S
O233 Zn225 1.943 . S
O233 C232 1.249 . S
O234 Zn224 2.067 . S
O234 C232 1.270 . S
C235 O228 1.262 . S
C235 O236 1.232 . S
O236 C235 1.232 . S
C237 O229 1.260 . S
C237 O230 1.257 . S
Zn238 O241 2.031 . S
Zn238 O243 2.049 . S
Zn238 O248 2.067 . S
Zn239 O240 1.962 1_655 S
Zn239 O242 1.986 . S
Zn239 O244 1.996 . S
Zn239 O247 1.943 . S
O240 Zn239 1.962 1_455 S
O240 C245 1.254 . S
O241 Zn238 2.031 . S
O241 C245 1.269 1_655 S
O242 Zn239 1.986 . S
O242 C249 1.262 . S
O243 Zn238 2.049 . S
O243 C251 1.260 . S
O244 Zn239 1.996 . S
O244 C251 1.257 . S
C245 O240 1.254 . S
C245 O241 1.269 1_455 S
C246 O247 1.249 . S
C246 O248 1.270 . S
O247 Zn239 1.943 . S
O247 C246 1.249 . S
O248 Zn238 2.067 . S
O248 C246 1.270 . S
C249 O242 1.262 . S
C249 O250 1.232 . S
O250 C249 1.232 . S
C251 O243 1.260 . S
C251 O244 1.257 . S
H252 C271 0.949 . S
H253 C272 0.950 . S
H254 C274 0.950 . S
H255 C275 0.950 . S
H256 C277 0.950 . S
H257 C280 0.950 . S
H258 C281 0.950 . S
H259 C283 0.951 . S
H260 C284 0.949 . S
H261 C286 0.949 . S
H262 C287 0.950 . S
H263 C289 0.950 . S
H264 C290 0.950 . S
H265 C292 0.950 . S
H266 C295 0.950 . S
H267 C296 0.950 . S
H268 C298 0.951 . S
H269 C299 0.949 . S
C270 C271 1.376 . S
C270 C275 1.386 . S
C270 C276 1.483 . S
C271 H252 0.949 . S
C271 C270 1.376 . S
C271 C272 1.397 . S
C272 H253 0.950 . S
C272 C271 1.397 . S
C272 C273 1.391 . S
C273 C272 1.391 . S
C273 C274 1.405 . S
C274 H254 0.950 . S
C274 C273 1.405 . S
C274 C275 1.367 . S
C275 H255 0.950 . S
C275 C270 1.386 . S
C275 C274 1.367 . S
C276 C270 1.483 . S
C276 C277 1.382 . S
C276 C278 1.403 . S
C277 H256 0.950 . S
C277 C276 1.382 . S
C277 C293 1.411 . S
C278 C276 1.403 . S
C278 C279 1.489 . S
C278 C292 1.411 . S
C279 C278 1.489 . S
C279 C280 1.383 . S
C279 C284 1.382 . S
C280 H257 0.950 . S
C280 C279 1.383 . S
C280 C281 1.395 . S
C281 H258 0.950 . S
C281 C280 1.395 . S
C281 C282 1.288 . S
C282 C281 1.288 . S
C282 C283 1.392 . S
C283 H259 0.951 . S
C283 C282 1.392 . S
C283 C284 1.392 . S
C284 H260 0.949 . S
C284 C279 1.382 . S
C284 C283 1.392 . S
C285 C286 1.376 . S
C285 C290 1.386 . S
C285 C291 1.483 . S
C286 H261 0.949 . S
C286 C285 1.376 . S
C286 C287 1.397 . S
C287 H262 0.950 . S
C287 C286 1.397 . S
C287 C288 1.391 . S
C288 C287 1.391 . S
C288 C289 1.405 . S
C289 H263 0.950 . S
C289 C288 1.405 . S
C289 C290 1.367 . S
C290 H264 0.950 . S
C290 C285 1.386 . S
C290 C289 1.367 . S
C291 C285 1.483 . S
C291 C292 1.382 . S
C291 C293 1.403 . S
C292 H265 0.950 . S
C292 C278 1.411 . S
C292 C291 1.382 . S
C293 C277 1.411 . S
C293 C291 1.403 . S
C293 C294 1.489 . S
C294 C293 1.489 . S
C294 C295 1.383 . S
C294 C299 1.382 . S
C295 H266 0.950 . S
C295 C294 1.383 . S
C295 C296 1.395 . S
C296 H267 0.950 . S
C296 C295 1.395 . S
C296 C297 1.288 . S
C297 C296 1.288 . S
C297 C298 1.392 . S
C298 H268 0.951 . S
C298 C297 1.392 . S
C298 C299 1.392 . S
C299 H269 0.949 . S
C299 C294 1.382 . S
C299 C298 1.392 . S
H300 C319 0.949 . S
H301 C320 0.950 . S
H302 C322 0.950 . S
H303 C323 0.950 . S
H304 C325 0.950 . S
H305 C328 0.950 . S
H306 C329 0.950 . S
H307 C331 0.951 . S
H308 C332 0.949 . S
H309 C334 0.949 . S
H310 C335 0.950 . S
H311 C337 0.950 . S
H312 C338 0.950 . S
H313 C340 0.950 . S
H314 C343 0.950 . S
H315 C344 0.950 . S
H316 C346 0.951 . S
H317 C347 0.949 . S
C318 C319 1.376 . S
C318 C323 1.386 . S
C318 C324 1.483 . S
C319 H300 0.949 . S
C319 C318 1.376 . S
C319 C320 1.397 . S
C320 H301 0.950 . S
C320 C319 1.397 . S
C320 C321 1.391 . S
C321 C320 1.391 . S
C321 C322 1.405 . S
C322 H302 0.950 . S
C322 C321 1.405 . S
C322 C323 1.367 . S
C323 H303 0.950 . S
C323 C318 1.386 . S
C323 C322 1.367 . S
C324 C318 1.483 . S
C324 C325 1.382 . S
C324 C326 1.403 . S
C325 H304 0.950 . S
C325 C324 1.382 . S
C325 C341 1.411 . S
C326 C324 1.403 . S
C326 C327 1.489 . S
C326 C340 1.411 . S
C327 C326 1.489 . S
C327 C328 1.383 . S
C327 C332 1.382 . S
C328 H305 0.950 . S
C328 C327 1.383 . S
C328 C329 1.395 . S
C329 H306 0.950 . S
C329 C328 1.395 . S
C329 C330 1.288 . S
C330 C329 1.288 . S
C330 C331 1.392 . S
C331 H307 0.951 . S
C331 C330 1.392 . S
C331 C332 1.392 . S
C332 H308 0.949 . S
C332 C327 1.382 . S
C332 C331 1.392 . S
C333 C334 1.376 . S
C333 C338 1.386 . S
C333 C339 1.483 . S
C334 H309 0.949 . S
C334 C333 1.376 . S
C334 C335 1.397 . S
C335 H310 0.950 . S
C335 C334 1.397 . S
C335 C336 1.391 . S
C336 C335 1.391 . S
C336 C337 1.405 . S
C337 H311 0.950 . S
C337 C336 1.405 . S
C337 C338 1.367 . S
C338 H312 0.950 . S
C338 C333 1.386 . S
C338 C337 1.367 . S
C339 C333 1.483 . S
C339 C340 1.382 . S
C339 C341 1.403 . S
C340 H313 0.950 . S
C340 C326 1.411 . S
C340 C339 1.382 . S
C341 C325 1.411 . S
C341 C339 1.403 . S
C341 C342 1.489 . S
C342 C341 1.489 . S
C342 C343 1.383 . S
C342 C347 1.382 . S
C343 H314 0.950 . S
C343 C342 1.383 . S
C343 C344 1.395 . S
C344 H315 0.950 . S
C344 C343 1.395 . S
C344 C345 1.288 . S
C345 C344 1.288 . S
C345 C346 1.392 . S
C346 H316 0.951 . S
C346 C345 1.392 . S
C346 C347 1.392 . S
C347 H317 0.949 . S
C347 C342 1.382 . S
C347 C346 1.392 . S
H348 C367 0.949 . S
H349 C368 0.950 . S
H350 C370 0.950 . S
H351 C371 0.950 . S
H352 C373 0.950 . S
H353 C376 0.950 . S
H354 C377 0.950 . S
H355 C379 0.951 . S
H356 C380 0.949 . S
H357 C382 0.949 . S
H358 C383 0.950 . S
H359 C385 0.950 . S
H360 C386 0.950 . S
H361 C388 0.950 . S
H362 C391 0.950 . S
H363 C392 0.950 . S
H364 C394 0.951 . S
H365 C395 0.949 . S
C366 C367 1.376 . S
C366 C371 1.386 . S
C366 C372 1.483 . S
C367 H348 0.949 . S
C367 C366 1.376 . S
C367 C368 1.397 . S
C368 H349 0.950 . S
C368 C367 1.397 . S
C368 C369 1.391 . S
C369 C368 1.391 . S
C369 C370 1.405 . S
C370 H350 0.950 . S
C370 C369 1.405 . S
C370 C371 1.367 . S
C371 H351 0.950 . S
C371 C366 1.386 . S
C371 C370 1.367 . S
C372 C366 1.483 . S
C372 C373 1.382 . S
C372 C374 1.403 . S
C373 H352 0.950 . S
C373 C372 1.382 . S
C373 C389 1.411 . S
C374 C372 1.403 . S
C374 C375 1.489 . S
C374 C388 1.411 . S
C375 C374 1.489 . S
C375 C376 1.383 . S
C375 C380 1.382 . S
C376 H353 0.950 . S
C376 C375 1.383 . S
C376 C377 1.395 . S
C377 H354 0.950 . S
C377 C376 1.395 . S
C377 C378 1.288 . S
C378 C377 1.288 . S
C378 C379 1.392 . S
C379 H355 0.951 . S
C379 C378 1.392 . S
C379 C380 1.392 . S
C380 H356 0.949 . S
C380 C375 1.382 . S
C380 C379 1.392 . S
C381 C382 1.376 . S
C381 C386 1.386 . S
C381 C387 1.483 . S
C382 H357 0.949 . S
C382 C381 1.376 . S
C382 C383 1.397 . S
C383 H358 0.950 . S
C383 C382 1.397 . S
C383 C384 1.391 . S
C384 C383 1.391 . S
C384 C385 1.405 . S
C385 H359 0.950 . S
C385 C384 1.405 . S
C385 C386 1.367 . S
C386 H360 0.950 . S
C386 C381 1.386 . S
C386 C385 1.367 . S
C387 C381 1.483 . S
C387 C388 1.382 . S
C387 C389 1.403 . S
C388 H361 0.950 . S
C388 C374 1.411 . S
C388 C387 1.382 . S
C389 C373 1.411 . S
C389 C387 1.403 . S
C389 C390 1.489 . S
C390 C389 1.489 . S
C390 C391 1.383 . S
C390 C395 1.382 . S
C391 H362 0.950 . S
C391 C390 1.383 . S
C391 C392 1.395 . S
C392 H363 0.950 . S
C392 C391 1.395 . S
C392 C393 1.288 . S
C393 C392 1.288 . S
C393 C394 1.392 . S
C394 H364 0.951 . S
C394 C393 1.392 . S
C394 C395 1.392 . S
C395 H365 0.949 . S
C395 C390 1.382 . S
C395 C394 1.392 . S
H396 C415 0.949 . S
H397 C416 0.950 . S
H398 C418 0.950 . S
H399 C419 0.950 . S
H400 C421 0.950 . S
H401 C424 0.950 . S
H402 C425 0.950 . S
H403 C427 0.951 . S
H404 C428 0.949 . S
H405 C430 0.949 . S
H406 C431 0.950 . S
H407 C433 0.950 . S
H408 C434 0.950 . S
H409 C436 0.950 . S
H410 C439 0.950 . S
H411 C440 0.950 . S
H412 C442 0.951 . S
H413 C443 0.949 . S
C414 C415 1.376 . S
C414 C419 1.386 . S
C414 C420 1.483 . S
C415 H396 0.949 . S
C415 C414 1.376 . S
C415 C416 1.397 . S
C416 H397 0.950 . S
C416 C415 1.397 . S
C416 C417 1.391 . S
C417 C416 1.391 . S
C417 C418 1.405 . S
C418 H398 0.950 . S
C418 C417 1.405 . S
C418 C419 1.367 . S
C419 H399 0.950 . S
C419 C414 1.386 . S
C419 C418 1.367 . S
C420 C414 1.483 . S
C420 C421 1.382 . S
C420 C422 1.403 . S
C421 H400 0.950 . S
C421 C420 1.382 . S
C421 C437 1.411 . S
C422 C420 1.403 . S
C422 C423 1.489 . S
C422 C436 1.411 . S
C423 C422 1.489 . S
C423 C424 1.383 . S
C423 C428 1.382 . S
C424 H401 0.950 . S
C424 C423 1.383 . S
C424 C425 1.395 . S
C425 H402 0.950 . S
C425 C424 1.395 . S
C425 C426 1.288 . S
C426 C425 1.288 . S
C426 C427 1.392 . S
C427 H403 0.951 . S
C427 C426 1.392 . S
C427 C428 1.392 . S
C428 H404 0.949 . S
C428 C423 1.382 . S
C428 C427 1.392 . S
C429 C430 1.376 . S
C429 C434 1.386 . S
C429 C435 1.483 . S
C430 H405 0.949 . S
C430 C429 1.376 . S
C430 C431 1.397 . S
C431 H406 0.950 . S
C431 C430 1.397 . S
C431 C432 1.391 . S
C432 C431 1.391 . S
C432 C433 1.405 . S
C433 H407 0.950 . S
C433 C432 1.405 . S
C433 C434 1.367 . S
C434 H408 0.950 . S
C434 C429 1.386 . S
C434 C433 1.367 . S
C435 C429 1.483 . S
C435 C436 1.382 . S
C435 C437 1.403 . S
C436 H409 0.950 . S
C436 C422 1.411 . S
C436 C435 1.382 . S
C437 C421 1.411 . S
C437 C435 1.403 . S
C437 C438 1.489 . S
C438 C437 1.489 . S
C438 C439 1.383 . S
C438 C443 1.382 . S
C439 H410 0.950 . S
C439 C438 1.383 . S
C439 C440 1.395 . S
C440 H411 0.950 . S
C440 C439 1.395 . S
C440 C441 1.288 . S
C441 C440 1.288 . S
C441 C442 1.392 . S
C442 H412 0.951 . S
C442 C441 1.392 . S
C442 C443 1.392 . S
C443 H413 0.949 . S
C443 C438 1.382 . S
C443 C442 1.392 . S
H444 C463 0.949 . S
H445 C464 0.950 . S
H446 C466 0.950 . S
H447 C467 0.950 . S
H448 C469 0.950 . S
H449 C472 0.950 . S
H450 C473 0.950 . S
H451 C475 0.951 . S
H452 C476 0.949 . S
H453 C478 0.949 . S
H454 C479 0.950 . S
H455 C481 0.950 . S
H456 C482 0.950 . S
H457 C484 0.950 . S
H458 C487 0.950 . S
H459 C488 0.950 . S
H460 C490 0.951 . S
H461 C491 0.949 . S
C462 C463 1.376 . S
C462 C467 1.386 . S
C462 C468 1.483 . S
C463 H444 0.949 . S
C463 C462 1.376 . S
C463 C464 1.397 . S
C464 H445 0.950 . S
C464 C463 1.397 . S
C464 C465 1.391 . S
C465 C464 1.391 . S
C465 C466 1.405 . S
C466 H446 0.950 . S
C466 C465 1.405 . S
C466 C467 1.367 . S
C467 H447 0.950 . S
C467 C462 1.386 . S
C467 C466 1.367 . S
C468 C462 1.483 . S
C468 C469 1.382 . S
C468 C470 1.403 . S
C469 H448 0.950 . S
C469 C468 1.382 . S
C469 C485 1.411 . S
C470 C468 1.403 . S
C470 C471 1.489 . S
C470 C484 1.411 . S
C471 C470 1.489 . S
C471 C472 1.383 . S
C471 C476 1.382 . S
C472 H449 0.950 . S
C472 C471 1.383 . S
C472 C473 1.395 . S
C473 H450 0.950 . S
C473 C472 1.395 . S
C473 C474 1.288 . S
C474 C473 1.288 . S
C474 C475 1.392 . S
C475 H451 0.951 . S
C475 C474 1.392 . S
C475 C476 1.392 . S
C476 H452 0.949 . S
C476 C471 1.382 . S
C476 C475 1.392 . S
C477 C478 1.376 . S
C477 C482 1.386 . S
C477 C483 1.483 . S
C478 H453 0.949 . S
C478 C477 1.376 . S
C478 C479 1.397 . S
C479 H454 0.950 . S
C479 C478 1.397 . S
C479 C480 1.391 . S
C480 C479 1.391 . S
C480 C481 1.405 . S
C481 H455 0.950 . S
C481 C480 1.405 . S
C481 C482 1.367 . S
C482 H456 0.950 . S
C482 C477 1.386 . S
C482 C481 1.367 . S
C483 C477 1.483 . S
C483 C484 1.382 . S
C483 C485 1.403 . S
C484 H457 0.950 . S
C484 C470 1.411 . S
C484 C483 1.382 . S
C485 C469 1.411 . S
C485 C483 1.403 . S
C485 C486 1.489 . S
C486 C485 1.489 . S
C486 C487 1.383 . S
C486 C491 1.382 . S
C487 H458 0.950 . S
C487 C486 1.383 . S
C487 C488 1.395 . S
C488 H459 0.950 . S
C488 C487 1.395 . S
C488 C489 1.288 . S
C489 C488 1.288 . S
C489 C490 1.392 . S
C490 H460 0.951 . S
C490 C489 1.392 . S
C490 C491 1.392 . S
C491 H461 0.949 . S
C491 C486 1.382 . S
C491 C490 1.392 . S
H492 C511 0.949 . S
H493 C512 0.950 . S
H494 C514 0.950 . S
H495 C515 0.950 . S
H496 C517 0.950 . S
H497 C520 0.950 . S
H498 C521 0.950 . S
H499 C523 0.951 . S
H500 C524 0.949 . S
H501 C526 0.949 . S
H502 C527 0.950 . S
H503 C529 0.950 . S
H504 C530 0.950 . S
H505 C532 0.950 . S
H506 C535 0.950 . S
H507 C536 0.950 . S
H508 C538 0.951 . S
H509 C539 0.949 . S
C510 C511 1.376 . S
C510 C515 1.386 . S
C510 C516 1.483 . S
C511 H492 0.949 . S
C511 C510 1.376 . S
C511 C512 1.397 . S
C512 H493 0.950 . S
C512 C511 1.397 . S
C512 C513 1.391 . S
C513 C512 1.391 . S
C513 C514 1.405 . S
C514 H494 0.950 . S
C514 C513 1.405 . S
C514 C515 1.367 . S
C515 H495 0.950 . S
C515 C510 1.386 . S
C515 C514 1.367 . S
C516 C510 1.483 . S
C516 C517 1.382 . S
C516 C518 1.403 . S
C517 H496 0.950 . S
C517 C516 1.382 . S
C517 C533 1.411 . S
C518 C516 1.403 . S
C518 C519 1.489 . S
C518 C532 1.411 . S
C519 C518 1.489 . S
C519 C520 1.383 . S
C519 C524 1.382 . S
C520 H497 0.950 . S
C520 C519 1.383 . S
C520 C521 1.395 . S
C521 H498 0.950 . S
C521 C520 1.395 . S
C521 C522 1.288 . S
C522 C521 1.288 . S
C522 C523 1.392 . S
C523 H499 0.951 . S
C523 C522 1.392 . S
C523 C524 1.392 . S
C524 H500 0.949 . S
C524 C519 1.382 . S
C524 C523 1.392 . S
C525 C526 1.376 . S
C525 C530 1.386 . S
C525 C531 1.483 . S
C526 H501 0.949 . S
C526 C525 1.376 . S
C526 C527 1.397 . S
C527 H502 0.950 . S
C527 C526 1.397 . S
C527 C528 1.391 . S
C528 C527 1.391 . S
C528 C529 1.405 . S
C529 H503 0.950 . S
C529 C528 1.405 . S
C529 C530 1.367 . S
C530 H504 0.950 . S
C530 C525 1.386 . S
C530 C529 1.367 . S
C531 C525 1.483 . S
C531 C532 1.382 . S
C531 C533 1.403 . S
C532 H505 0.950 . S
C532 C518 1.411 . S
C532 C531 1.382 . S
C533 C517 1.411 . S
C533 C531 1.403 . S
C533 C534 1.489 . S
C534 C533 1.489 . S
C534 C535 1.383 . S
C534 C539 1.382 . S
C535 H506 0.950 . S
C535 C534 1.383 . S
C535 C536 1.395 . S
C536 H507 0.950 . S
C536 C535 1.395 . S
C536 C537 1.288 . S
C537 C536 1.288 . S
C537 C538 1.392 . S
C538 H508 0.951 . S
C538 C537 1.392 . S
C538 C539 1.392 . S
C539 H509 0.949 . S
C539 C534 1.382 . S
C539 C538 1.392 . S
H540 C559 0.949 . S
H541 C560 0.950 . S
H542 C562 0.950 . S
H543 C563 0.950 . S
H544 C565 0.950 . S
H545 C568 0.950 . S
H546 C569 0.950 . S
H547 C571 0.951 . S
H548 C572 0.949 . S
H549 C574 0.949 . S
H550 C575 0.950 . S
H551 C577 0.950 . S
H552 C578 0.950 . S
H553 C580 0.950 . S
H554 C583 0.950 . S
H555 C584 0.950 . S
H556 C586 0.951 . S
H557 C587 0.949 . S
C558 C559 1.376 . S
C558 C563 1.386 . S
C558 C564 1.483 . S
C559 H540 0.949 . S
C559 C558 1.376 . S
C559 C560 1.397 . S
C560 H541 0.950 . S
C560 C559 1.397 . S
C560 C561 1.391 . S
C561 C560 1.391 . S
C561 C562 1.405 . S
C562 H542 0.950 . S
C562 C561 1.405 . S
C562 C563 1.367 . S
C563 H543 0.950 . S
C563 C558 1.386 . S
C563 C562 1.367 . S
C564 C558 1.483 . S
C564 C565 1.382 . S
C564 C566 1.403 . S
C565 H544 0.950 . S
C565 C564 1.382 . S
C565 C581 1.411 . S
C566 C564 1.403 . S
C566 C567 1.489 . S
C566 C580 1.411 . S
C567 C566 1.489 . S
C567 C568 1.383 . S
C567 C572 1.382 . S
C568 H545 0.950 . S
C568 C567 1.383 . S
C568 C569 1.395 . S
C569 H546 0.950 . S
C569 C568 1.395 . S
C569 C570 1.288 . S
C570 C569 1.288 . S
C570 C571 1.392 . S
C571 H547 0.951 . S
C571 C570 1.392 . S
C571 C572 1.392 . S
C572 H548 0.949 . S
C572 C567 1.382 . S
C572 C571 1.392 . S
C573 C574 1.376 . S
C573 C578 1.386 . S
C573 C579 1.483 . S
C574 H549 0.949 . S
C574 C573 1.376 . S
C574 C575 1.397 . S
C575 H550 0.950 . S
C575 C574 1.397 . S
C575 C576 1.391 . S
C576 C575 1.391 . S
C576 C577 1.405 . S
C577 H551 0.950 . S
C577 C576 1.405 . S
C577 C578 1.367 . S
C578 H552 0.950 . S
C578 C573 1.386 . S
C578 C577 1.367 . S
C579 C573 1.483 . S
C579 C580 1.382 . S
C579 C581 1.403 . S
C580 H553 0.950 . S
C580 C566 1.411 . S
C580 C579 1.382 . S
C581 C565 1.411 . S
C581 C579 1.403 . S
C581 C582 1.489 . S
C582 C581 1.489 . S
C582 C583 1.383 . S
C582 C587 1.382 . S
C583 H554 0.950 . S
C583 C582 1.383 . S
C583 C584 1.395 . S
C584 H555 0.950 . S
C584 C583 1.395 . S
C584 C585 1.288 . S
C585 C584 1.288 . S
C585 C586 1.392 . S
C586 H556 0.951 . S
C586 C585 1.392 . S
C586 C587 1.392 . S
C587 H557 0.949 . S
C587 C582 1.382 . S
C587 C586 1.392 . S
H588 C607 0.949 . S
H589 C608 0.950 . S
H590 C610 0.950 . S
H591 C611 0.950 . S
H592 C613 0.950 . S
H593 C616 0.950 . S
H594 C617 0.950 . S
H595 C619 0.951 . S
H596 C620 0.949 . S
H597 C622 0.949 . S
H598 C623 0.950 . S
H599 C625 0.950 . S
H600 C626 0.950 . S
H601 C628 0.950 . S
H602 C631 0.950 . S
H603 C632 0.950 . S
H604 C634 0.951 . S
H605 C635 0.949 . S
C606 C607 1.376 . S
C606 C611 1.386 . S
C606 C612 1.483 . S
C607 H588 0.949 . S
C607 C606 1.376 . S
C607 C608 1.397 . S
C608 H589 0.950 . S
C608 C607 1.397 . S
C608 C609 1.391 . S
C609 C608 1.391 . S
C609 C610 1.405 . S
C610 H590 0.950 . S
C610 C609 1.405 . S
C610 C611 1.367 . S
C611 H591 0.950 . S
C611 C606 1.386 . S
C611 C610 1.367 . S
C612 C606 1.483 . S
C612 C613 1.382 . S
C612 C614 1.403 . S
C613 H592 0.950 . S
C613 C612 1.382 . S
C613 C629 1.411 . S
C614 C612 1.403 . S
C614 C615 1.489 . S
C614 C628 1.411 . S
C615 C614 1.489 . S
C615 C616 1.383 . S
C615 C620 1.382 . S
C616 H593 0.950 . S
C616 C615 1.383 . S
C616 C617 1.395 . S
C617 H594 0.950 . S
C617 C616 1.395 . S
C617 C618 1.288 . S
C618 C617 1.288 . S
C618 C619 1.392 . S
C619 H595 0.951 . S
C619 C618 1.392 . S
C619 C620 1.392 . S
C620 H596 0.949 . S
C620 C615 1.382 . S
C620 C619 1.392 . S
C621 C622 1.376 . S
C621 C626 1.386 . S
C621 C627 1.483 . S
C622 H597 0.949 . S
C622 C621 1.376 . S
C622 C623 1.397 . S
C623 H598 0.950 . S
C623 C622 1.397 . S
C623 C624 1.391 . S
C624 C623 1.391 . S
C624 C625 1.405 . S
C625 H599 0.950 . S
C625 C624 1.405 . S
C625 C626 1.367 . S
C626 H600 0.950 . S
C626 C621 1.386 . S
C626 C625 1.367 . S
C627 C621 1.483 . S
C627 C628 1.382 . S
C627 C629 1.403 . S
C628 H601 0.950 . S
C628 C614 1.411 . S
C628 C627 1.382 . S
C629 C613 1.411 . S
C629 C627 1.403 . S
C629 C630 1.489 . S
C630 C629 1.489 . S
C630 C631 1.383 . S
C630 C635 1.382 . S
C631 H602 0.950 . S
C631 C630 1.383 . S
C631 C632 1.395 . S
C632 H603 0.950 . S
C632 C631 1.395 . S
C632 C633 1.288 . S
C633 C632 1.288 . S
C633 C634 1.392 . S
C634 H604 0.951 . S
C634 C633 1.392 . S
C634 C635 1.392 . S
C635 H605 0.949 . S
C635 C630 1.382 . S
C635 C634 1.392 . S
H636 C655 0.949 . S
H637 C656 0.950 . S
H638 C658 0.950 . S
H639 C659 0.950 . S
H640 C661 0.950 . S
H641 C664 0.950 . S
H642 C665 0.950 . S
H643 C667 0.951 . S
H644 C668 0.949 . S
H645 C670 0.949 . S
H646 C671 0.950 . S
H647 C673 0.950 . S
H648 C674 0.950 . S
H649 C676 0.950 . S
H650 C679 0.950 . S
H651 C680 0.950 . S
H652 C682 0.951 . S
H653 C683 0.949 . S
C654 C655 1.376 . S
C654 C659 1.386 . S
C654 C660 1.483 . S
C655 H636 0.949 . S
C655 C654 1.376 . S
C655 C656 1.397 . S
C656 H637 0.950 . S
C656 C655 1.397 . S
C656 C657 1.391 . S
C657 C656 1.391 . S
C657 C658 1.405 . S
C658 H638 0.950 . S
C658 C657 1.405 . S
C658 C659 1.367 . S
C659 H639 0.950 . S
C659 C654 1.386 . S
C659 C658 1.367 . S
C660 C654 1.483 . S
C660 C661 1.382 . S
C660 C662 1.403 . S
C661 H640 0.950 . S
C661 C660 1.382 . S
C661 C677 1.411 . S
C662 C660 1.403 . S
C662 C663 1.489 . S
C662 C676 1.411 . S
C663 C662 1.489 . S
C663 C664 1.383 . S
C663 C668 1.382 . S
C664 H641 0.950 . S
C664 C663 1.383 . S
C664 C665 1.395 . S
C665 H642 0.950 . S
C665 C664 1.395 . S
C665 C666 1.288 . S
C666 C665 1.288 . S
C666 C667 1.392 . S
C667 H643 0.951 . S
C667 C666 1.392 . S
C667 C668 1.392 . S
C668 H644 0.949 . S
C668 C663 1.382 . S
C668 C667 1.392 . S
C669 C670 1.376 . S
C669 C674 1.386 . S
C669 C675 1.483 . S
C670 H645 0.949 . S
C670 C669 1.376 . S
C670 C671 1.397 . S
C671 H646 0.950 . S
C671 C670 1.397 . S
C671 C672 1.391 . S
C672 C671 1.391 . S
C672 C673 1.405 . S
C673 H647 0.950 . S
C673 C672 1.405 . S
C673 C674 1.367 . S
C674 H648 0.950 . S
C674 C669 1.386 . S
C674 C673 1.367 . S
C675 C669 1.483 . S
C675 C676 1.382 . S
C675 C677 1.403 . S
C676 H649 0.950 . S
C676 C662 1.411 . S
C676 C675 1.382 . S
C677 C661 1.411 . S
C677 C675 1.403 . S
C677 C678 1.489 . S
C678 C677 1.489 . S
C678 C679 1.383 . S
C678 C683 1.382 . S
C679 H650 0.950 . S
C679 C678 1.383 . S
C679 C680 1.395 . S
C680 H651 0.950 . S
C680 C679 1.395 . S
C680 C681 1.288 . S
C681 C680 1.288 . S
C681 C682 1.392 . S
C682 H652 0.951 . S
C682 C681 1.392 . S
C682 C683 1.392 . S
C683 H653 0.949 . S
C683 C678 1.382 . S
C683 C682 1.392 . S
H684 C703 0.949 . S
H685 C704 0.950 . S
H686 C706 0.950 . S
H687 C707 0.950 . S
H688 C709 0.950 . S
H689 C712 0.950 . S
H690 C713 0.950 . S
H691 C715 0.951 . S
H692 C716 0.949 . S
H693 C718 0.949 . S
H694 C719 0.950 . S
H695 C721 0.950 . S
H696 C722 0.950 . S
H697 C724 0.950 . S
H698 C727 0.950 . S
H699 C728 0.950 . S
H700 C730 0.951 . S
H701 C731 0.949 . S
C702 C703 1.376 . S
C702 C707 1.386 1_655 S
C702 C708 1.483 . S
C703 H684 0.949 . S
C703 C702 1.376 . S
C703 C704 1.397 . S
C704 H685 0.950 . S
C704 C703 1.397 . S
C704 C705 1.391 . S
C705 C704 1.391 . S
C705 C706 1.405 1_655 S
C706 H686 0.950 . S
C706 C705 1.405 1_455 S
C706 C707 1.367 . S
C707 H687 0.950 . S
C707 C702 1.386 1_455 S
C707 C706 1.367 . S
C708 C702 1.483 . S
C708 C709 1.382 . S
C708 C710 1.403 1_655 S
C709 H688 0.950 . S
C709 C708 1.382 . S
C709 C725 1.411 . S
C710 C708 1.403 1_455 S
C710 C711 1.489 . S
C710 C724 1.411 . S
C711 C710 1.489 . S
C711 C712 1.383 1_455 S
C711 C716 1.382 . S
C712 H689 0.950 . S
C712 C711 1.383 1_655 S
C712 C713 1.395 . S
C713 H690 0.950 . S
C713 C712 1.395 . S
C713 C714 1.288 1_655 S
C714 C713 1.288 1_455 S
C714 C715 1.392 . S
C715 H691 0.951 . S
C715 C714 1.392 . S
C715 C716 1.392 . S
C716 H692 0.949 . S
C716 C711 1.382 . S
C716 C715 1.392 . S
C717 C718 1.376 . S
C717 C722 1.386 1_455 S
C717 C723 1.483 . S
C718 H693 0.949 . S
C718 C717 1.376 . S
C718 C719 1.397 . S
C719 H694 0.950 . S
C719 C718 1.397 . S
C719 C720 1.391 . S
C720 C719 1.391 . S
C720 C721 1.405 1_455 S
C721 H695 0.950 . S
C721 C720 1.405 1_655 S
C721 C722 1.367 . S
C722 H696 0.950 . S
C722 C717 1.386 1_655 S
C722 C721 1.367 . S
C723 C717 1.483 . S
C723 C724 1.382 . S
C723 C725 1.403 1_455 S
C724 H697 0.950 . S
C724 C710 1.411 . S
C724 C723 1.382 . S
C725 C709 1.411 . S
C725 C723 1.403 1_655 S
C725 C726 1.489 . S
C726 C725 1.489 . S
C726 C727 1.383 1_655 S
C726 C731 1.382 . S
C727 H698 0.950 . S
C727 C726 1.383 1_455 S
C727 C728 1.395 . S
C728 H699 0.950 . S
C728 C727 1.395 . S
C728 C729 1.288 1_455 S
C729 C728 1.288 1_655 S
C729 C730 1.392 . S
C730 H700 0.951 . S
C730 C729 1.392 . S
C730 C731 1.392 . S
C731 H701 0.949 . S
C731 C726 1.382 . S
C731 C730 1.392 . S
H732 C751 0.949 . S
H733 C752 0.950 . S
H734 C754 0.950 . S
H735 C755 0.950 . S
H736 C757 0.950 . S
H737 C760 0.950 . S
H738 C761 0.950 . S
H739 C763 0.951 . S
H740 C764 0.949 . S
H741 C766 0.949 . S
H742 C767 0.950 . S
H743 C769 0.950 . S
H744 C770 0.950 . S
H745 C772 0.950 . S
H746 C775 0.950 . S
H747 C776 0.950 . S
H748 C778 0.951 . S
H749 C779 0.949 . S
C750 C751 1.376 . S
C750 C755 1.386 . S
C750 C756 1.483 . S
C751 H732 0.949 . S
C751 C750 1.376 . S
C751 C752 1.397 . S
C752 H733 0.950 . S
C752 C751 1.397 . S
C752 C753 1.391 . S
C753 C752 1.391 . S
C753 C754 1.405 . S
C754 H734 0.950 . S
C754 C753 1.405 . S
C754 C755 1.367 . S
C755 H735 0.950 . S
C755 C750 1.386 . S
C755 C754 1.367 . S
C756 C750 1.483 . S
C756 C757 1.382 . S
C756 C758 1.403 . S
C757 H736 0.950 . S
C757 C756 1.382 . S
C757 C773 1.411 . S
C758 C756 1.403 . S
C758 C759 1.489 . S
C758 C772 1.411 . S
C759 C758 1.489 . S
C759 C760 1.383 . S
C759 C764 1.382 . S
C760 H737 0.950 . S
C760 C759 1.383 . S
C760 C761 1.395 . S
C761 H738 0.950 . S
C761 C760 1.395 . S
C761 C762 1.288 . S
C762 C761 1.288 . S
C762 C763 1.392 . S
C763 H739 0.951 . S
C763 C762 1.392 . S
C763 C764 1.392 . S
C764 H740 0.949 . S
C764 C759 1.382 . S
C764 C763 1.392 . S
C765 C766 1.376 . S
C765 C770 1.386 . S
C765 C771 1.483 . S
C766 H741 0.949 . S
C766 C765 1.376 . S
C766 C767 1.397 . S
C767 H742 0.950 . S
C767 C766 1.397 . S
C767 C768 1.391 . S
C768 C767 1.391 . S
C768 C769 1.405 . S
C769 H743 0.950 . S
C769 C768 1.405 . S
C769 C770 1.367 . S
C770 H744 0.950 . S
C770 C765 1.386 . S
C770 C769 1.367 . S
C771 C765 1.483 . S
C771 C772 1.382 . S
C771 C773 1.403 . S
C772 H745 0.950 . S
C772 C758 1.411 . S
C772 C771 1.382 . S
C773 C757 1.411 . S
C773 C771 1.403 . S
C773 C774 1.489 . S
C774 C773 1.489 . S
C774 C775 1.383 . S
C774 C779 1.382 . S
C775 H746 0.950 . S
C775 C774 1.383 . S
C775 C776 1.395 . S
C776 H747 0.950 . S
C776 C775 1.395 . S
C776 C777 1.288 . S
C777 C776 1.288 . S
C777 C778 1.392 . S
C778 H748 0.951 . S
C778 C777 1.392 . S
C778 C779 1.392 . S
C779 H749 0.949 . S
C779 C774 1.382 . S
C779 C778 1.392 . S
H780 C799 0.949 . S
H781 C800 0.950 . S
H782 C802 0.950 . S
H783 C803 0.950 . S
H784 C805 0.950 . S
H785 C808 0.950 . S
H786 C809 0.950 . S
H787 C811 0.951 . S
H788 C812 0.949 . S
H789 C814 0.949 . S
H790 C815 0.950 . S
H791 C817 0.950 . S
H792 C818 0.950 . S
H793 C820 0.950 . S
H794 C823 0.950 . S
H795 C824 0.950 . S
H796 C826 0.951 . S
H797 C827 0.949 . S
C798 C799 1.376 . S
C798 C803 1.386 1_545 S
C798 C804 1.483 . S
C799 H780 0.949 . S
C799 C798 1.376 . S
C799 C800 1.397 . S
C800 H781 0.950 . S
C800 C799 1.397 . S
C800 C801 1.391 . S
C801 C800 1.391 . S
C801 C802 1.405 1_545 S
C802 H782 0.950 . S
C802 C801 1.405 1_565 S
C802 C803 1.367 . S
C803 H783 0.950 . S
C803 C798 1.386 1_565 S
C803 C802 1.367 . S
C804 C798 1.483 . S
C804 C805 1.382 . S
C804 C806 1.403 1_545 S
C805 H784 0.950 . S
C805 C804 1.382 . S
C805 C821 1.411 . S
C806 C804 1.403 1_565 S
C806 C807 1.489 . S
C806 C820 1.411 . S
C807 C806 1.489 . S
C807 C808 1.383 1_565 S
C807 C812 1.382 . S
C808 H785 0.950 . S
C808 C807 1.383 1_545 S
C808 C809 1.395 . S
C809 H786 0.950 . S
C809 C808 1.395 . S
C809 C810 1.288 1_545 S
C810 C809 1.288 1_565 S
C810 C811 1.392 . S
C811 H787 0.951 . S
C811 C810 1.392 . S
C811 C812 1.392 . S
C812 H788 0.949 . S
C812 C807 1.382 . S
C812 C811 1.392 . S
C813 C814 1.376 . S
C813 C818 1.386 1_565 S
C813 C819 1.483 . S
C814 H789 0.949 . S
C814 C813 1.376 . S
C814 C815 1.397 . S
C815 H790 0.950 . S
C815 C814 1.397 . S
C815 C816 1.391 . S
C816 C815 1.391 . S
C816 C817 1.405 1_565 S
C817 H791 0.950 . S
C817 C816 1.405 1_545 S
C817 C818 1.367 . S
C818 H792 0.950 . S
C818 C813 1.386 1_545 S
C818 C817 1.367 . S
C819 C813 1.483 . S
C819 C820 1.382 . S
C819 C821 1.403 1_565 S
C820 H793 0.950 . S
C820 C806 1.411 . S
C820 C819 1.382 . S
C821 C805 1.411 . S
C821 C819 1.403 1_545 S
C821 C822 1.489 . S
C822 C821 1.489 . S
C822 C823 1.383 1_545 S
C822 C827 1.382 . S
C823 H794 0.950 . S
C823 C822 1.383 1_565 S
C823 C824 1.395 . S
C824 H795 0.950 . S
C824 C823 1.395 . S
C824 C825 1.288 1_565 S
C825 C824 1.288 1_545 S
C825 C826 1.392 . S
C826 H796 0.951 . S
C826 C825 1.392 . S
C826 C827 1.392 . S
C827 H797 0.949 . S
C827 C822 1.382 . S
C827 C826 1.392 . S
H828 C847 0.949 . S
H829 C848 0.950 . S
H830 C850 0.950 . S
H831 C851 0.950 . S
H832 C853 0.950 . S
H833 C856 0.950 . S
H834 C857 0.950 . S
H835 C859 0.951 . S
H836 C860 0.949 . S
H837 C862 0.949 . S
H838 C863 0.950 . S
H839 C865 0.950 . S
H840 C866 0.950 . S
H841 C868 0.950 . S
H842 C871 0.950 . S
H843 C872 0.950 . S
H844 C874 0.951 . S
H845 C875 0.949 . S
C846 C847 1.411 . S
C846 C851 1.371 1_545 S
C846 C852 1.463 . S
C847 H828 0.949 . S
C847 C846 1.411 . S
C847 C848 1.397 . S
C848 H829 0.950 . S
C848 C847 1.397 . S
C848 C849 1.391 1_545 S
C849 C848 1.391 1_565 S
C849 C850 1.405 . S
C850 H830 0.950 . S
C850 C849 1.405 . S
C850 C851 1.367 . S
C851 H831 0.950 . S
C851 C846 1.371 1_565 S
C851 C850 1.367 . S
C852 C846 1.463 . S
C852 C853 1.382 . S
C852 C854 1.401 1_545 S
C853 H832 0.950 . S
C853 C852 1.382 . S
C853 C869 1.438 . S
C854 C852 1.401 1_565 S
C854 C855 1.476 . S
C854 C868 1.428 . S
C855 C854 1.476 . S
C855 C856 1.380 1_565 S
C855 C860 1.383 . S
C856 H833 0.950 . S
C856 C855 1.380 1_545 S
C856 C857 1.395 . S
C857 H834 0.950 . S
C857 C856 1.395 . S
C857 C858 1.288 . S
C858 C857 1.288 . S
C858 C859 1.392 1_545 S
C859 H835 0.951 . S
C859 C858 1.392 1_565 S
C859 C860 1.392 . S
C860 H836 0.949 . S
C860 C855 1.383 . S
C860 C859 1.392 . S
C861 C862 1.398 . S
C861 C866 1.377 1_565 S
C861 C867 1.498 . S
C862 H837 0.949 . S
C862 C861 1.398 . S
C862 C863 1.397 . S
C863 H838 0.950 . S
C863 C862 1.397 . S
C863 C864 1.391 1_565 S
C864 C863 1.391 1_545 S
C864 C865 1.405 . S
C865 H839 0.950 . S
C865 C864 1.405 . S
C865 C866 1.367 . S
C866 H840 0.950 . S
C866 C861 1.377 1_545 S
C866 C865 1.367 . S
C867 C861 1.498 . S
C867 C868 1.356 . S
C867 C869 1.398 1_565 S
C868 H841 0.950 . S
C868 C854 1.428 . S
C868 C867 1.356 . S
C869 C853 1.438 . S
C869 C867 1.398 1_545 S
C869 C870 1.476 . S
C870 C869 1.476 . S
C870 C871 1.363 1_545 S
C870 C875 1.392 . S
C871 H842 0.950 . S
C871 C870 1.363 1_565 S
C871 C872 1.395 . S
C872 H843 0.950 . S
C872 C871 1.395 . S
C872 C873 1.288 . S
C873 C872 1.288 . S
C873 C874 1.392 1_565 S
C874 H844 0.951 . S
C874 C873 1.392 1_545 S
C874 C875 1.392 . S
C875 H845 0.949 . S
C875 C870 1.392 . S
C875 C874 1.392 . S
H876 C895 0.949 . S
H877 C896 0.950 . S
H878 C898 0.950 . S
H879 C899 0.950 . S
H880 C901 0.950 . S
H881 C904 0.950 . S
H882 C905 0.950 . S
H883 C907 0.951 . S
H884 C908 0.949 . S
H885 C910 0.949 . S
H886 C911 0.950 . S
H887 C913 0.950 . S
H888 C914 0.950 . S
H889 C916 0.950 . S
H890 C919 0.950 . S
H891 C920 0.950 . S
H892 C922 0.951 . S
H893 C923 0.949 . S
C894 C895 1.376 . S
C894 C899 1.386 1_455 S
C894 C900 1.483 . S
C895 H876 0.949 . S
C895 C894 1.376 . S
C895 C896 1.397 . S
C896 H877 0.950 . S
C896 C895 1.397 . S
C896 C897 1.391 . S
C897 C896 1.391 . S
C897 C898 1.405 1_455 S
C898 H878 0.950 . S
C898 C897 1.405 1_655 S
C898 C899 1.367 . S
C899 H879 0.950 . S
C899 C894 1.386 1_655 S
C899 C898 1.367 . S
C900 C894 1.483 . S
C900 C901 1.382 . S
C900 C902 1.403 1_455 S
C901 H880 0.950 . S
C901 C900 1.382 . S
C901 C917 1.411 . S
C902 C900 1.403 1_655 S
C902 C903 1.489 . S
C902 C916 1.411 . S
C903 C902 1.489 . S
C903 C904 1.383 1_655 S
C903 C908 1.382 . S
C904 H881 0.950 . S
C904 C903 1.383 1_455 S
C904 C905 1.395 . S
C905 H882 0.950 . S
C905 C904 1.395 . S
C905 C906 1.288 1_455 S
C906 C905 1.288 1_655 S
C906 C907 1.392 . S
C907 H883 0.951 . S
C907 C906 1.392 . S
C907 C908 1.392 . S
C908 H884 0.949 . S
C908 C903 1.382 . S
C908 C907 1.392 . S
C909 C910 1.376 . S
C909 C914 1.386 1_655 S
C909 C915 1.483 . S
C910 H885 0.949 . S
C910 C909 1.376 . S
C910 C911 1.397 . S
C911 H886 0.950 . S
C911 C910 1.397 . S
C911 C912 1.391 . S
C912 C911 1.391 . S
C912 C913 1.405 1_655 S
C913 H887 0.950 . S
C913 C912 1.405 1_455 S
C913 C914 1.367 . S
C914 H888 0.950 . S
C914 C909 1.386 1_455 S
C914 C913 1.367 . S
C915 C909 1.483 . S
C915 C916 1.382 . S
C915 C917 1.403 1_655 S
C916 H889 0.950 . S
C916 C902 1.411 . S
C916 C915 1.382 . S
C917 C901 1.411 . S
C917 C915 1.403 1_455 S
C917 C918 1.489 . S
C918 C917 1.489 . S
C918 C919 1.383 1_455 S
C918 C923 1.382 . S
C919 H890 0.950 . S
C919 C918 1.383 1_655 S
C919 C920 1.395 . S
C920 H891 0.950 . S
C920 C919 1.395 . S
C920 C921 1.288 1_655 S
C921 C920 1.288 1_455 S
C921 C922 1.392 . S
C922 H892 0.951 . S
C922 C921 1.392 . S
C922 C923 1.392 . S
C923 H893 0.949 . S
C923 C918 1.382 . S
C923 C922 1.392 . S
H924 C943 0.949 . S
H925 C944 0.950 . S
H926 C946 0.950 . S
H927 C947 0.950 . S
H928 C949 0.950 . S
H929 C952 0.950 . S
H930 C953 0.950 . S
H931 C955 0.951 . S
H932 C956 0.949 . S
H933 C958 0.949 . S
H934 C959 0.950 . S
H935 C961 0.950 . S
H936 C962 0.950 . S
H937 C964 0.950 . S
H938 C967 0.950 . S
H939 C968 0.950 . S
H940 C970 0.951 . S
H941 C971 0.949 . S
C942 C943 1.376 . S
C942 C947 1.386 . S
C942 C948 1.483 . S
C943 H924 0.949 . S
C943 C942 1.376 . S
C943 C944 1.397 . S
C944 H925 0.950 . S
C944 C943 1.397 . S
C944 C945 1.391 . S
C945 C944 1.391 . S
C945 C946 1.405 . S
C946 H926 0.950 . S
C946 C945 1.405 . S
C946 C947 1.367 . S
C947 H927 0.950 . S
C947 C942 1.386 . S
C947 C946 1.367 . S
C948 C942 1.483 . S
C948 C949 1.382 . S
C948 C950 1.403 . S
C949 H928 0.950 . S
C949 C948 1.382 . S
C949 C965 1.411 . S
C950 C948 1.403 . S
C950 C951 1.489 . S
C950 C964 1.411 . S
C951 C950 1.489 . S
C951 C952 1.383 . S
C951 C956 1.382 . S
C952 H929 0.950 . S
C952 C951 1.383 . S
C952 C953 1.395 . S
C953 H930 0.950 . S
C953 C952 1.395 . S
C953 C954 1.288 . S
C954 C953 1.288 . S
C954 C955 1.392 . S
C955 H931 0.951 . S
C955 C954 1.392 . S
C955 C956 1.392 . S
C956 H932 0.949 . S
C956 C951 1.382 . S
C956 C955 1.392 . S
C957 C958 1.376 . S
C957 C962 1.386 . S
C957 C963 1.483 . S
C958 H933 0.949 . S
C958 C957 1.376 . S
C958 C959 1.397 . S
C959 H934 0.950 . S
C959 C958 1.397 . S
C959 C960 1.391 . S
C960 C959 1.391 . S
C960 C961 1.405 . S
C961 H935 0.950 . S
C961 C960 1.405 . S
C961 C962 1.367 . S
C962 H936 0.950 . S
C962 C957 1.386 . S
C962 C961 1.367 . S
C963 C957 1.483 . S
C963 C964 1.382 . S
C963 C965 1.403 . S
C964 H937 0.950 . S
C964 C950 1.411 . S
C964 C963 1.382 . S
C965 C949 1.411 . S
C965 C963 1.403 . S
C965 C966 1.489 . S
C966 C965 1.489 . S
C966 C967 1.383 . S
C966 C971 1.382 . S
C967 H938 0.950 . S
C967 C966 1.383 . S
C967 C968 1.395 . S
C968 H939 0.950 . S
C968 C967 1.395 . S
C968 C969 1.288 . S
C969 C968 1.288 . S
C969 C970 1.392 . S
C970 H940 0.951 . S
C970 C969 1.392 . S
C970 C971 1.392 . S
C971 H941 0.949 . S
C971 C966 1.382 . S
C971 C970 1.392 . S
H972 C991 0.949 . S
H973 C992 0.950 . S
H974 C994 0.950 . S
H975 C995 0.950 . S
H976 C997 0.950 . S
H977 C1000 0.950 . S
H978 C1001 0.950 . S
H979 C1003 0.951 . S
H980 C1004 0.949 . S
H981 C1006 0.949 . S
H982 C1007 0.950 . S
H983 C1009 0.950 . S
H984 C1010 0.950 . S
H985 C1012 0.950 . S
H986 C1015 0.950 . S
H987 C1016 0.950 . S
H988 C1018 0.951 . S
H989 C1019 0.949 . S
C990 C991 1.376 . S
C990 C995 1.386 . S
C990 C996 1.483 . S
C991 H972 0.949 . S
C991 C990 1.376 . S
C991 C992 1.397 . S
C992 H973 0.950 . S
C992 C991 1.397 . S
C992 C993 1.391 . S
C993 C992 1.391 . S
C993 C994 1.405 . S
C994 H974 0.950 . S
C994 C993 1.405 . S
C994 C995 1.367 . S
C995 H975 0.950 . S
C995 C990 1.386 . S
C995 C994 1.367 . S
C996 C990 1.483 . S
C996 C997 1.382 . S
C996 C998 1.403 . S
C997 H976 0.950 . S
C997 C996 1.382 . S
C997 C1013 1.411 . S
C998 C996 1.403 . S
C998 C999 1.489 . S
C998 C1012 1.411 . S
C999 C998 1.489 . S
C999 C1000 1.383 . S
C999 C1004 1.382 . S
C1000 H977 0.950 . S
C1000 C999 1.383 . S
C1000 C1001 1.395 . S
C1001 H978 0.950 . S
C1001 C1000 1.395 . S
C1001 C1002 1.288 . S
C1002 C1001 1.288 . S
C1002 C1003 1.392 . S
C1003 H979 0.951 . S
C1003 C1002 1.392 . S
C1003 C1004 1.392 . S
C1004 H980 0.949 . S
C1004 C999 1.382 . S
C1004 C1003 1.392 . S
C1005 C1006 1.376 . S
C1005 C1010 1.386 . S
C1005 C1011 1.483 . S
C1006 H981 0.949 . S
C1006 C1005 1.376 . S
C1006 C1007 1.397 . S
C1007 H982 0.950 . S
C1007 C1006 1.397 . S
C1007 C1008 1.391 . S
C1008 C1007 1.391 . S
C1008 C1009 1.405 . S
C1009 H983 0.950 . S
C1009 C1008 1.405 . S
C1009 C1010 1.367 . S
C1010 H984 0.950 . S
C1010 C1005 1.386 . S
C1010 C1009 1.367 . S
C1011 C1005 1.483 . S
C1011 C1012 1.382 . S
C1011 C1013 1.403 . S
C1012 H985 0.950 . S
C1012 C998 1.411 . S
C1012 C1011 1.382 . S
C1013 C997 1.411 . S
C1013 C1011 1.403 . S
C1013 C1014 1.489 . S
C1014 C1013 1.489 . S
C1014 C1015 1.383 . S
C1014 C1019 1.382 . S
C1015 H986 0.950 . S
C1015 C1014 1.383 . S
C1015 C1016 1.395 . S
C1016 H987 0.950 . S
C1016 C1015 1.395 . S
C1016 C1017 1.288 . S
C1017 C1016 1.288 . S
C1017 C1018 1.392 . S
C1018 H988 0.951 . S
C1018 C1017 1.392 . S
C1018 C1019 1.392 . S
C1019 H989 0.949 . S
C1019 C1014 1.382 . S
C1019 C1018 1.392 . S
H1020 C1039 0.949 . S
H1021 C1040 0.950 . S
H1022 C1042 0.950 . S
H1023 C1043 0.950 . S
H1024 C1045 0.950 . S
H1025 C1048 0.950 . S
H1026 C1049 0.950 . S
H1027 C1051 0.951 . S
H1028 C1052 0.949 . S
H1029 C1054 0.949 . S
H1030 C1055 0.950 . S
H1031 C1057 0.950 . S
H1032 C1058 0.950 . S
H1033 C1060 0.950 . S
H1034 C1063 0.950 . S
H1035 C1064 0.950 . S
H1036 C1066 0.951 . S
H1037 C1067 0.949 . S
C1038 C1039 1.376 . S
C1038 C1043 1.386 . S
C1038 C1044 1.483 . S
C1039 H1020 0.949 . S
C1039 C1038 1.376 . S
C1039 C1040 1.397 . S
C1040 H1021 0.950 . S
C1040 C1039 1.397 . S
C1040 C1041 1.391 . S
C1041 C1040 1.391 . S
C1041 C1042 1.405 . S
C1042 H1022 0.950 . S
C1042 C1041 1.405 . S
C1042 C1043 1.367 . S
C1043 H1023 0.950 . S
C1043 C1038 1.386 . S
C1043 C1042 1.367 . S
C1044 C1038 1.483 . S
C1044 C1045 1.382 . S
C1044 C1046 1.403 . S
C1045 H1024 0.950 . S
C1045 C1044 1.382 . S
C1045 C1061 1.411 . S
C1046 C1044 1.403 . S
C1046 C1047 1.489 . S
C1046 C1060 1.411 . S
C1047 C1046 1.489 . S
C1047 C1048 1.383 . S
C1047 C1052 1.382 . S
C1048 H1025 0.950 . S
C1048 C1047 1.383 . S
C1048 C1049 1.395 . S
C1049 H1026 0.950 . S
C1049 C1048 1.395 . S
C1049 C1050 1.288 . S
C1050 C1049 1.288 . S
C1050 C1051 1.392 . S
C1051 H1027 0.951 . S
C1051 C1050 1.392 . S
C1051 C1052 1.392 . S
C1052 H1028 0.949 . S
C1052 C1047 1.382 . S
C1052 C1051 1.392 . S
C1053 C1054 1.376 . S
C1053 C1058 1.386 . S
C1053 C1059 1.483 . S
C1054 H1029 0.949 . S
C1054 C1053 1.376 . S
C1054 C1055 1.397 . S
C1055 H1030 0.950 . S
C1055 C1054 1.397 . S
C1055 C1056 1.391 . S
C1056 C1055 1.391 . S
C1056 C1057 1.405 . S
C1057 H1031 0.950 . S
C1057 C1056 1.405 . S
C1057 C1058 1.367 . S
C1058 H1032 0.950 . S
C1058 C1053 1.386 . S
C1058 C1057 1.367 . S
C1059 C1053 1.483 . S
C1059 C1060 1.382 . S
C1059 C1061 1.403 . S
C1060 H1033 0.950 . S
C1060 C1046 1.411 . S
C1060 C1059 1.382 . S
C1061 C1045 1.411 . S
C1061 C1059 1.403 . S
C1061 C1062 1.489 . S
C1062 C1061 1.489 . S
C1062 C1063 1.383 . S
C1062 C1067 1.382 . S
C1063 H1034 0.950 . S
C1063 C1062 1.383 . S
C1063 C1064 1.395 . S
C1064 H1035 0.950 . S
C1064 C1063 1.395 . S
C1064 C1065 1.288 . S
C1065 C1064 1.288 . S
C1065 C1066 1.392 . S
C1066 H1036 0.951 . S
C1066 C1065 1.392 . S
C1066 C1067 1.392 . S
C1067 H1037 0.949 . S
C1067 C1062 1.382 . S
C1067 C1066 1.392 . S
H1068 C1087 0.949 . S
H1069 C1088 0.950 . S
H1070 C1090 0.950 . S
H1071 C1091 0.950 . S
H1072 C1093 0.950 . S
H1073 C1096 0.950 . S
H1074 C1097 0.950 . S
H1075 C1099 0.951 . S
H1076 C1100 0.949 . S
H1077 C1102 0.949 . S
H1078 C1103 0.950 . S
H1079 C1105 0.950 . S
H1080 C1106 0.950 . S
H1081 C1108 0.950 . S
H1082 C1111 0.950 . S
H1083 C1112 0.950 . S
H1084 C1114 0.951 . S
H1085 C1115 0.949 . S
C1086 C1087 1.376 . S
C1086 C1091 1.386 . S
C1086 C1092 1.483 . S
C1087 H1068 0.949 . S
C1087 C1086 1.376 . S
C1087 C1088 1.397 . S
C1088 H1069 0.950 . S
C1088 C1087 1.397 . S
C1088 C1089 1.391 . S
C1089 C1088 1.391 . S
C1089 C1090 1.405 . S
C1090 H1070 0.950 . S
C1090 C1089 1.405 . S
C1090 C1091 1.367 . S
C1091 H1071 0.950 . S
C1091 C1086 1.386 . S
C1091 C1090 1.367 . S
C1092 C1086 1.483 . S
C1092 C1093 1.382 . S
C1092 C1094 1.403 . S
C1093 H1072 0.950 . S
C1093 C1092 1.382 . S
C1093 C1109 1.411 . S
C1094 C1092 1.403 . S
C1094 C1095 1.489 . S
C1094 C1108 1.411 . S
C1095 C1094 1.489 . S
C1095 C1096 1.383 . S
C1095 C1100 1.382 . S
C1096 H1073 0.950 . S
C1096 C1095 1.383 . S
C1096 C1097 1.395 . S
C1097 H1074 0.950 . S
C1097 C1096 1.395 . S
C1097 C1098 1.288 . S
C1098 C1097 1.288 . S
C1098 C1099 1.392 . S
C1099 H1075 0.951 . S
C1099 C1098 1.392 . S
C1099 C1100 1.392 . S
C1100 H1076 0.949 . S
C1100 C1095 1.382 . S
C1100 C1099 1.392 . S
C1101 C1102 1.376 . S
C1101 C1106 1.386 . S
C1101 C1107 1.483 . S
C1102 H1077 0.949 . S
C1102 C1101 1.376 . S
C1102 C1103 1.397 . S
C1103 H1078 0.950 . S
C1103 C1102 1.397 . S
C1103 C1104 1.391 . S
C1104 C1103 1.391 . S
C1104 C1105 1.405 . S
C1105 H1079 0.950 . S
C1105 C1104 1.405 . S
C1105 C1106 1.367 . S
C1106 H1080 0.950 . S
C1106 C1101 1.386 . S
C1106 C1105 1.367 . S
C1107 C1101 1.483 . S
C1107 C1108 1.382 . S
C1107 C1109 1.403 . S
C1108 H1081 0.950 . S
C1108 C1094 1.411 . S
C1108 C1107 1.382 . S
C1109 C1093 1.411 . S
C1109 C1107 1.403 . S
C1109 C1110 1.489 . S
C1110 C1109 1.489 . S
C1110 C1111 1.383 . S
C1110 C1115 1.382 . S
C1111 H1082 0.950 . S
C1111 C1110 1.383 . S
C1111 C1112 1.395 . S
C1112 H1083 0.950 . S
C1112 C1111 1.395 . S
C1112 C1113 1.288 . S
C1113 C1112 1.288 . S
C1113 C1114 1.392 . S
C1114 H1084 0.951 . S
C1114 C1113 1.392 . S
C1114 C1115 1.392 . S
C1115 H1085 0.949 . S
C1115 C1110 1.382 . S
C1115 C1114 1.392 . S
H1116 C1128 0.930 . S
H1117 C1130 0.930 . S
H1118 C1131 0.930 . S
H1119 C1135 0.959 . S
H1120 C1135 0.959 . S
H1121 C1135 0.961 . S
H1122 C1136 0.960 . S
H1123 C1136 0.961 . S
H1124 C1136 0.959 1_455 S
H1125 C1139 0.929 . S
H1126 C1140 0.931 . S
H1127 C1142 0.930 . S
C1128 H1116 0.930 . S
C1128 C1129 1.399 . S
C1128 C1133 1.399 . S
C1129 C1128 1.399 . S
C1129 C1130 1.376 1_655 S
C1130 H1117 0.930 . S
C1130 C1129 1.376 1_455 S
C1130 C1131 1.388 . S
C1131 H1118 0.930 . S
C1131 C1130 1.388 . S
C1131 C1132 1.390 . S
C1132 C1131 1.390 . S
C1132 C1133 1.394 1_455 S
C1132 C1138 1.465 . S
C1133 C1128 1.399 . S
C1133 C1132 1.394 1_655 S
C1133 C1134 1.516 . S
C1134 C1133 1.516 . S
C1134 C1135 1.502 . S
C1134 C1136 1.561 . S
C1134 C1137 1.526 . S
C1135 H1119 0.959 . S
C1135 H1120 0.959 . S
C1135 H1121 0.961 . S
C1135 C1134 1.502 . S
C1136 H1122 0.960 . S
C1136 H1123 0.961 . S
C1136 H1124 0.959 1_655 S
C1136 C1134 1.561 . S
C1137 C1134 1.526 . S
C1137 C1138 1.396 1_655 S
C1137 C1142 1.390 . S
C1138 C1132 1.465 . S
C1138 C1137 1.396 1_455 S
C1138 C1139 1.399 . S
C1139 H1125 0.929 . S
C1139 C1138 1.399 . S
C1139 C1140 1.385 . S
C1140 H1126 0.931 . S
C1140 C1139 1.385 . S
C1140 C1141 1.389 1_455 S
C1141 C1140 1.389 1_655 S
C1141 C1142 1.387 . S
C1142 H1127 0.930 . S
C1142 C1137 1.390 . S
C1142 C1141 1.387 . S
H1143 C1155 0.930 . S
H1144 C1157 0.930 . S
H1145 C1158 0.930 . S
H1146 C1162 0.959 . S
H1147 C1162 0.959 . S
H1148 C1162 0.961 . S
H1149 C1163 0.960 . S
H1150 C1163 0.961 . S
H1151 C1163 0.959 . S
H1152 C1166 0.929 . S
H1153 C1167 0.931 . S
H1154 C1169 0.930 . S
C1155 H1143 0.930 . S
C1155 C1156 1.399 . S
C1155 C1160 1.399 . S
C1156 C1155 1.399 . S
C1156 C1157 1.376 . S
C1157 H1144 0.930 . S
C1157 C1156 1.376 . S
C1157 C1158 1.388 . S
C1158 H1145 0.930 . S
C1158 C1157 1.388 . S
C1158 C1159 1.390 . S
C1159 C1158 1.390 . S
C1159 C1160 1.394 . S
C1159 C1165 1.465 . S
C1160 C1155 1.399 . S
C1160 C1159 1.394 . S
C1160 C1161 1.516 . S
C1161 C1160 1.516 . S
C1161 C1162 1.502 . S
C1161 C1163 1.561 . S
C1161 C1164 1.526 . S
C1162 H1146 0.959 . S
C1162 H1147 0.959 . S
C1162 H1148 0.961 . S
C1162 C1161 1.502 . S
C1163 H1149 0.960 . S
C1163 H1150 0.961 . S
C1163 H1151 0.959 . S
C1163 C1161 1.561 . S
C1164 C1161 1.526 . S
C1164 C1165 1.396 . S
C1164 C1169 1.390 . S
C1165 C1159 1.465 . S
C1165 C1164 1.396 . S
C1165 C1166 1.399 . S
C1166 H1152 0.929 . S
C1166 C1165 1.399 . S
C1166 C1167 1.385 . S
C1167 H1153 0.931 . S
C1167 C1166 1.385 . S
C1167 C1168 1.389 . S
C1168 C1167 1.389 . S
C1168 C1169 1.387 . S
C1169 H1154 0.930 . S
C1169 C1164 1.390 . S
C1169 C1168 1.387 . S
H1170 C1182 0.958 . S
H1171 C1184 0.930 . S
H1172 C1185 0.930 . S
H1173 C1189 0.959 . S
H1174 C1189 0.959 . S
H1175 C1189 0.961 . S
H1176 C1190 0.960 . S
H1177 C1190 0.961 . S
H1178 C1190 0.959 . S
H1179 C1193 0.929 . S
H1180 C1194 0.931 . S
H1181 C1196 0.930 . S
C1182 H1170 0.958 . S
C1182 C1183 1.358 1_565 S
C1182 C1187 1.412 1_565 S
C1183 C1182 1.358 1_545 S
C1183 C1184 1.376 . S
C1184 H1171 0.930 . S
C1184 C1183 1.376 . S
C1184 C1185 1.388 . S
C1185 H1172 0.930 . S
C1185 C1184 1.388 . S
C1185 C1186 1.390 . S
C1186 C1185 1.390 . S
C1186 C1187 1.394 . S
C1186 C1192 1.465 . S
C1187 C1182 1.412 1_545 S
C1187 C1186 1.394 . S
C1187 C1188 1.516 1_545 S
C1188 C1187 1.516 1_565 S
C1188 C1189 1.502 . S
C1188 C1190 1.561 . S
C1188 C1191 1.537 . S
C1189 H1173 0.959 . S
C1189 H1174 0.959 . S
C1189 H1175 0.961 . S
C1189 C1188 1.502 . S
C1190 H1176 0.960 . S
C1190 H1177 0.961 . S
C1190 H1178 0.959 . S
C1190 C1188 1.561 . S
C1191 C1188 1.537 . S
C1191 C1192 1.346 1_565 S
C1191 C1196 1.422 . S
C1192 C1186 1.465 . S
C1192 C1191 1.346 1_545 S
C1192 C1193 1.399 . S
C1193 H1179 0.929 . S
C1193 C1192 1.399 . S
C1193 C1194 1.385 . S
C1194 H1180 0.931 . S
C1194 C1193 1.385 . S
C1194 C1195 1.389 . S
C1195 C1194 1.389 . S
C1195 C1196 1.387 1_545 S
C1196 H1181 0.930 . S
C1196 C1191 1.422 . S
C1196 C1195 1.387 1_565 S
H1197 C1209 0.930 . S
H1198 C1211 0.930 . S
H1199 C1212 0.930 . S
H1200 C1216 0.959 . S
H1201 C1216 0.959 . S
H1202 C1216 0.961 . S
H1203 C1217 0.960 . S
H1204 C1217 0.961 . S
H1205 C1217 0.959 . S
H1206 C1220 0.929 . S
H1207 C1221 0.931 . S
H1208 C1223 0.930 . S
C1209 H1197 0.930 . S
C1209 C1210 1.399 1_545 S
C1209 C1214 1.399 . S
C1210 C1209 1.399 1_565 S
C1210 C1211 1.376 . S
C1211 H1198 0.930 . S
C1211 C1210 1.376 . S
C1211 C1212 1.388 . S
C1212 H1199 0.930 . S
C1212 C1211 1.388 . S
C1212 C1213 1.390 . S
C1213 C1212 1.390 . S
C1213 C1214 1.394 1_565 S
C1213 C1219 1.465 . S
C1214 C1209 1.399 . S
C1214 C1213 1.394 1_545 S
C1214 C1215 1.516 . S
C1215 C1214 1.516 . S
C1215 C1216 1.502 . S
C1215 C1217 1.561 . S
C1215 C1218 1.526 . S
C1216 H1200 0.959 . S
C1216 H1201 0.959 . S
C1216 H1202 0.961 . S
C1216 C1215 1.502 . S
C1217 H1203 0.960 . S
C1217 H1204 0.961 . S
C1217 H1205 0.959 . S
C1217 C1215 1.561 . S
C1218 C1215 1.526 . S
C1218 C1219 1.396 1_545 S
C1218 C1223 1.390 . S
C1219 C1213 1.465 . S
C1219 C1218 1.396 1_565 S
C1219 C1220 1.399 . S
C1220 H1206 0.929 . S
C1220 C1219 1.399 . S
C1220 C1221 1.385 . S
C1221 H1207 0.931 . S
C1221 C1220 1.385 . S
C1221 C1222 1.389 . S
C1222 C1221 1.389 . S
C1222 C1223 1.387 1_565 S
C1223 H1208 0.930 . S
C1223 C1218 1.390 . S
C1223 C1222 1.387 1_545 S
H1224 C1236 0.930 . S
H1225 C1238 0.930 1_655 S
H1226 C1239 0.930 . S
H1227 C1243 1.028 . S
H1228 C1243 0.959 . S
H1229 C1243 0.961 . S
H1230 C1244 0.960 . S
H1231 C1244 0.961 . S
H1232 C1244 0.959 . S
H1233 C1247 0.929 . S
H1234 C1248 0.931 . S
H1235 C1250 0.930 . S
C1236 H1224 0.930 . S
C1236 C1237 1.399 . S
C1236 C1241 1.399 . S
C1237 C1236 1.399 . S
C1237 C1238 1.376 . S
C1238 H1225 0.930 1_455 S
C1238 C1237 1.376 . S
C1238 C1239 1.388 1_455 S
C1239 H1226 0.930 . S
C1239 C1238 1.388 1_655 S
C1239 C1240 1.390 1_655 S
C1240 C1239 1.390 1_455 S
C1240 C1241 1.394 . S
C1240 C1246 1.465 . S
C1241 C1236 1.399 . S
C1241 C1240 1.394 . S
C1241 C1242 1.516 . S
C1242 C1241 1.516 . S
C1242 C1243 1.502 . S
C1242 C1244 1.561 . S
C1242 C1245 1.526 . S
C1243 H1227 1.028 . S
C1243 H1228 0.959 . S
C1243 H1229 0.961 . S
C1243 C1242 1.502 . S
C1244 H1230 0.960 . S
C1244 H1231 0.961 . S
C1244 H1232 0.959 . S
C1244 C1242 1.561 . S
C1245 C1242 1.526 . S
C1245 C1246 1.396 . S
C1245 C1250 1.390 . S
C1246 C1240 1.465 . S
C1246 C1245 1.396 . S
C1246 C1247 1.399 1_455 S
C1247 H1233 0.929 . S
C1247 C1246 1.399 1_655 S
C1247 C1248 1.385 . S
C1248 H1234 0.931 . S
C1248 C1247 1.385 . S
C1248 C1249 1.389 1_655 S
C1249 C1248 1.389 1_455 S
C1249 C1250 1.387 . S
C1250 H1235 0.930 . S
C1250 C1245 1.390 . S
C1250 C1249 1.387 . S
H1251 C1263 0.930 . S
H1252 C1265 0.930 . S
H1253 C1266 0.930 . S
H1254 C1270 0.959 . S
H1255 C1270 0.959 . S
H1256 C1270 0.961 . S
H1257 C1271 0.960 . S
H1258 C1271 0.961 . S
H1259 C1271 0.959 . S
H1260 C1274 0.929 . S
H1261 C1275 0.931 . S
H1262 C1277 0.930 . S
C1263 H1251 0.930 . S
C1263 C1264 1.399 . S
C1263 C1268 1.399 . S
C1264 C1263 1.399 . S
C1264 C1265 1.376 . S
C1265 H1252 0.930 . S
C1265 C1264 1.376 . S
C1265 C1266 1.388 . S
C1266 H1253 0.930 . S
C1266 C1265 1.388 . S
C1266 C1267 1.390 . S
C1267 C1266 1.390 . S
C1267 C1268 1.394 . S
C1267 C1273 1.465 . S
C1268 C1263 1.399 . S
C1268 C1267 1.394 . S
C1268 C1269 1.516 . S
C1269 C1268 1.516 . S
C1269 C1270 1.502 . S
C1269 C1271 1.561 . S
C1269 C1272 1.526 . S
C1270 H1254 0.959 . S
C1270 H1255 0.959 . S
C1270 H1256 0.961 . S
C1270 C1269 1.502 . S
C1271 H1257 0.960 . S
C1271 H1258 0.961 . S
C1271 H1259 0.959 . S
C1271 C1269 1.561 . S
C1272 C1269 1.526 . S
C1272 C1273 1.396 . S
C1272 C1277 1.390 . S
C1273 C1267 1.465 . S
C1273 C1272 1.396 . S
C1273 C1274 1.399 . S
C1274 H1260 0.929 . S
C1274 C1273 1.399 . S
C1274 C1275 1.385 . S
C1275 H1261 0.931 . S
C1275 C1274 1.385 . S
C1275 C1276 1.389 . S
C1276 C1275 1.389 . S
C1276 C1277 1.387 . S
C1277 H1262 0.930 . S
C1277 C1272 1.390 . S
C1277 C1276 1.387 . S
H1278 C1290 0.930 . S
H1279 C1292 0.930 . S
H1280 C1293 0.930 . S
H1281 C1297 0.959 . S
H1282 C1297 0.954 . S
H1283 C1297 0.961 . S
H1284 C1298 0.960 . S
H1285 C1298 0.961 . S
H1286 C1298 0.959 . S
H1287 C1301 0.929 . S
H1288 C1302 0.931 . S
H1289 C1304 0.925 . S
C1290 H1278 0.930 . S
C1290 C1291 1.399 . S
C1290 C1295 1.399 . S
C1291 C1290 1.399 . S
C1291 C1292 1.376 . S
C1292 H1279 0.930 . S
C1292 C1291 1.376 . S
C1292 C1293 1.388 . S
C1293 H1280 0.930 . S
C1293 C1292 1.388 . S
C1293 C1294 1.390 . S
C1294 C1293 1.390 . S
C1294 C1295 1.394 . S
C1294 C1300 1.465 . S
C1295 C1290 1.399 . S
C1295 C1294 1.394 . S
C1295 C1296 1.516 1_455 S
C1296 C1295 1.516 1_655 S
C1296 C1297 1.502 1_655 S
C1296 C1298 1.561 . S
C1296 C1299 1.526 1_655 S
C1297 H1281 0.959 . S
C1297 H1282 0.954 . S
C1297 H1283 0.961 . S
C1297 C1296 1.502 1_455 S
C1298 H1284 0.960 . S
C1298 H1285 0.961 . S
C1298 H1286 0.959 . S
C1298 C1296 1.561 . S
C1299 C1296 1.526 1_455 S
C1299 C1300 1.396 . S
C1299 C1304 1.406 1_455 S
C1300 C1294 1.465 . S
C1300 C1299 1.396 . S
C1300 C1301 1.399 . S
C1301 H1287 0.929 . S
C1301 C1300 1.399 . S
C1301 C1302 1.385 . S
C1302 H1288 0.931 . S
C1302 C1301 1.385 . S
C1302 C1303 1.389 . S
C1303 C1302 1.389 . S
C1303 C1304 1.376 1_455 S
C1304 H1289 0.925 . S
C1304 C1299 1.406 1_655 S
C1304 C1303 1.376 1_655 S
H1305 C1317 0.930 . S
H1306 C1319 0.930 . S
H1307 C1320 0.930 . S
H1308 C1324 0.959 . S
H1309 C1324 0.959 . S
H1310 C1324 0.961 . S
H1311 C1325 0.960 . S
H1312 C1325 0.961 . S
H1313 C1325 0.959 . S
H1314 C1328 0.929 . S
H1315 C1329 0.931 . S
H1316 C1331 0.930 . S
C1317 H1305 0.930 . S
C1317 C1318 1.399 . S
C1317 C1322 1.399 . S
C1318 C1317 1.399 . S
C1318 C1319 1.376 . S
C1319 H1306 0.930 . S
C1319 C1318 1.376 . S
C1319 C1320 1.388 . S
C1320 H1307 0.930 . S
C1320 C1319 1.388 . S
C1320 C1321 1.390 . S
C1321 C1320 1.390 . S
C1321 C1322 1.394 . S
C1321 C1327 1.465 . S
C1322 C1317 1.399 . S
C1322 C1321 1.394 . S
C1322 C1323 1.516 . S
C1323 C1322 1.516 . S
C1323 C1324 1.502 . S
C1323 C1325 1.561 . S
C1323 C1326 1.526 . S
C1324 H1308 0.959 . S
C1324 H1309 0.959 . S
C1324 H1310 0.961 . S
C1324 C1323 1.502 . S
C1325 H1311 0.960 . S
C1325 H1312 0.961 . S
C1325 H1313 0.959 . S
C1325 C1323 1.561 . S
C1326 C1323 1.526 . S
C1326 C1327 1.396 . S
C1326 C1331 1.390 . S
C1327 C1321 1.465 . S
C1327 C1326 1.396 . S
C1327 C1328 1.399 . S
C1328 H1314 0.929 . S
C1328 C1327 1.399 . S
C1328 C1329 1.385 . S
C1329 H1315 0.931 . S
C1329 C1328 1.385 . S
C1329 C1330 1.389 . S
C1330 C1329 1.389 . S
C1330 C1331 1.387 . S
C1331 H1316 0.930 . S
C1331 C1326 1.390 . S
C1331 C1330 1.387 . S
H1332 C1344 0.930 . S
H1333 C1346 0.930 . S
H1334 C1347 0.930 . S
H1335 C1351 0.959 . S
H1336 C1351 0.959 . S
H1337 C1351 0.961 . S
H1338 C1352 0.960 . S
H1339 C1352 0.961 . S
H1340 C1352 0.959 . S
H1341 C1355 0.929 . S
H1342 C1356 0.931 . S
H1343 C1358 0.930 . S
C1344 H1332 0.930 . S
C1344 C1345 1.399 . S
C1344 C1349 1.399 . S
C1345 C1344 1.399 . S
C1345 C1346 1.376 1_565 S
C1346 H1333 0.930 . S
C1346 C1345 1.376 1_545 S
C1346 C1347 1.388 . S
C1347 H1334 0.930 . S
C1347 C1346 1.388 . S
C1347 C1348 1.390 . S
C1348 C1347 1.390 . S
C1348 C1349 1.394 1_545 S
C1348 C1354 1.465 . S
C1349 C1344 1.399 . S
C1349 C1348 1.394 1_565 S
C1349 C1350 1.516 . S
C1350 C1349 1.516 . S
C1350 C1351 1.502 . S
C1350 C1352 1.561 . S
C1350 C1353 1.526 . S
C1351 H1335 0.959 . S
C1351 H1336 0.959 . S
C1351 H1337 0.961 . S
C1351 C1350 1.502 . S
C1352 H1338 0.960 . S
C1352 H1339 0.961 . S
C1352 H1340 0.959 . S
C1352 C1350 1.561 . S
C1353 C1350 1.526 . S
C1353 C1354 1.396 1_565 S
C1353 C1358 1.390 . S
C1354 C1348 1.465 . S
C1354 C1353 1.396 1_545 S
C1354 C1355 1.399 . S
C1355 H1341 0.929 . S
C1355 C1354 1.399 . S
C1355 C1356 1.385 . S
C1356 H1342 0.931 . S
C1356 C1355 1.385 . S
C1356 C1357 1.389 1_545 S
C1357 C1356 1.389 1_565 S
C1357 C1358 1.387 . S
C1358 H1343 0.930 . S
C1358 C1353 1.390 . S
C1358 C1357 1.387 . S
H1359 C1371 0.930 . S
H1360 C1373 0.930 1_565 S
H1361 C1374 0.928 . S
H1362 C1378 0.959 1_565 S
H1363 C1378 0.959 . S
H1364 C1378 0.961 . S
H1365 C1379 0.960 . S
H1366 C1379 0.961 . S
H1367 C1379 0.959 . S
H1368 C1382 0.929 . S
H1369 C1383 0.931 . S
H1370 C1385 0.930 . S
C1371 H1359 0.930 . S
C1371 C1372 1.399 . S
C1371 C1376 1.399 . S
C1372 C1371 1.399 . S
C1372 C1373 1.376 . S
C1373 H1360 0.930 1_545 S
C1373 C1372 1.376 . S
C1373 C1374 1.401 1_545 S
C1374 H1361 0.928 . S
C1374 C1373 1.401 1_565 S
C1374 C1375 1.380 1_565 S
C1375 C1374 1.380 1_545 S
C1375 C1376 1.394 . S
C1375 C1381 1.465 . S
C1376 C1371 1.399 . S
C1376 C1375 1.394 . S
C1376 C1377 1.516 . S
C1377 C1376 1.516 . S
C1377 C1378 1.502 . S
C1377 C1379 1.561 . S
C1377 C1380 1.526 . S
C1378 H1362 0.959 1_545 S
C1378 H1363 0.959 . S
C1378 H1364 0.961 . S
C1378 C1377 1.502 . S
C1379 H1365 0.960 . S
C1379 H1366 0.961 . S
C1379 H1367 0.959 . S
C1379 C1377 1.561 . S
C1380 C1377 1.526 . S
C1380 C1381 1.396 . S
C1380 C1385 1.390 . S
C1381 C1375 1.465 . S
C1381 C1380 1.396 . S
C1381 C1382 1.399 1_545 S
C1382 H1368 0.929 . S
C1382 C1381 1.399 1_565 S
C1382 C1383 1.385 . S
C1383 H1369 0.931 . S
C1383 C1382 1.385 . S
C1383 C1384 1.389 1_565 S
C1384 C1383 1.389 1_545 S
C1384 C1385 1.387 . S
C1385 H1370 0.930 . S
C1385 C1380 1.390 . S
C1385 C1384 1.387 . S
H1386 C1398 0.930 . S
H1387 C1400 0.930 . S
H1388 C1401 0.930 . S
H1389 C1405 0.959 . S
H1390 C1405 0.959 . S
H1391 C1405 0.961 . S
H1392 C1406 0.960 . S
H1393 C1406 0.961 . S
H1394 C1406 0.959 . S
H1395 C1409 0.912 . S
H1396 C1410 0.931 . S
H1397 C1412 0.930 . S
C1398 H1386 0.930 . S
C1398 C1399 1.399 . S
C1398 C1403 1.399 . S
C1399 C1398 1.399 . S
C1399 C1400 1.376 . S
C1400 H1387 0.930 . S
C1400 C1399 1.376 . S
C1400 C1401 1.388 . S
C1401 H1388 0.930 . S
C1401 C1400 1.388 . S
C1401 C1402 1.390 . S
C1402 C1401 1.390 . S
C1402 C1403 1.394 . S
C1402 C1408 1.465 . S
C1403 C1398 1.399 . S
C1403 C1402 1.394 . S
C1403 C1404 1.516 . S
C1404 C1403 1.516 . S
C1404 C1405 1.502 . S
C1404 C1406 1.561 1_655 S
C1404 C1407 1.526 . S
C1405 H1389 0.959 . S
C1405 H1390 0.959 . S
C1405 H1391 0.961 . S
C1405 C1404 1.502 . S
C1406 H1392 0.960 . S
C1406 H1393 0.961 . S
C1406 H1394 0.959 . S
C1406 C1404 1.561 1_455 S
C1407 C1404 1.526 . S
C1407 C1408 1.396 . S
C1407 C1412 1.390 . S
C1408 C1402 1.465 . S
C1408 C1407 1.396 . S
C1408 C1409 1.399 . S
C1409 H1395 0.912 . S
C1409 C1408 1.399 . S
C1409 C1410 1.385 . S
C1410 H1396 0.931 . S
C1410 C1409 1.385 . S
C1410 C1411 1.389 . S
C1411 C1410 1.389 . S
C1411 C1412 1.387 . S
C1412 H1397 0.930 . S
C1412 C1407 1.390 . S
C1412 C1411 1.387 . S
H1413 C1425 0.930 . S
H1414 C1427 0.930 . S
H1415 C1428 0.930 . S
H1416 C1432 0.959 . S
H1417 C1432 0.959 . S
H1418 C1432 0.961 . S
H1419 C1433 0.960 . S
H1420 C1433 0.961 . S
H1421 C1433 0.959 . S
H1422 C1436 0.929 . S
H1423 C1437 0.931 . S
H1424 C1439 0.930 . S
C1425 H1413 0.930 . S
C1425 C1426 1.399 . S
C1425 C1430 1.399 . S
C1426 C1425 1.399 . S
C1426 C1427 1.376 . S
C1427 H1414 0.930 . S
C1427 C1426 1.376 . S
C1427 C1428 1.388 . S
C1428 H1415 0.930 . S
C1428 C1427 1.388 . S
C1428 C1429 1.390 . S
C1429 C1428 1.390 . S
C1429 C1430 1.394 . S
C1429 C1435 1.465 . S
C1430 C1425 1.399 . S
C1430 C1429 1.394 . S
C1430 C1431 1.516 . S
C1431 C1430 1.516 . S
C1431 C1432 1.502 . S
C1431 C1433 1.561 . S
C1431 C1434 1.526 . S
C1432 H1416 0.959 . S
C1432 H1417 0.959 . S
C1432 H1418 0.961 . S
C1432 C1431 1.502 . S
C1433 H1419 0.960 . S
C1433 H1420 0.961 . S
C1433 H1421 0.959 . S
C1433 C1431 1.561 . S
C1434 C1431 1.526 . S
C1434 C1435 1.396 . S
C1434 C1439 1.390 . S
C1435 C1429 1.465 . S
C1435 C1434 1.396 . S
C1435 C1436 1.399 . S
C1436 H1422 0.929 . S
C1436 C1435 1.399 . S
C1436 C1437 1.385 . S
C1437 H1423 0.931 . S
C1437 C1436 1.385 . S
C1437 C1438 1.389 . S
C1438 C1437 1.389 . S
C1438 C1439 1.387 . S
C1439 H1424 0.930 . S
C1439 C1434 1.390 . S
C1439 C1438 1.387 . S
H1440 C1452 0.930 . S
H1441 C1454 0.930 . S
H1442 C1455 0.930 . S
H1443 C1459 0.959 . S
H1444 C1459 0.959 . S
H1445 C1459 0.961 . S
H1446 C1460 0.960 . S
H1447 C1460 0.961 . S
H1448 C1460 0.959 . S
H1449 C1463 0.929 . S
H1450 C1464 0.931 . S
H1451 C1466 0.930 . S
C1452 H1440 0.930 . S
C1452 C1453 1.399 . S
C1452 C1457 1.399 . S
C1453 C1452 1.399 . S
C1453 C1454 1.376 . S
C1454 H1441 0.930 . S
C1454 C1453 1.376 . S
C1454 C1455 1.388 . S
C1455 H1442 0.930 . S
C1455 C1454 1.388 . S
C1455 C1456 1.390 . S
C1456 C1455 1.390 . S
C1456 C1457 1.394 . S
C1456 C1462 1.465 . S
C1457 C1452 1.399 . S
C1457 C1456 1.394 . S
C1457 C1458 1.516 . S
C1458 C1457 1.516 . S
C1458 C1459 1.502 . S
C1458 C1460 1.561 . S
C1458 C1461 1.526 . S
C1459 H1443 0.959 . S
C1459 H1444 0.959 . S
C1459 H1445 0.961 . S
C1459 C1458 1.502 . S
C1460 H1446 0.960 . S
C1460 H1447 0.961 . S
C1460 H1448 0.959 . S
C1460 C1458 1.561 . S
C1461 C1458 1.526 . S
C1461 C1462 1.396 . S
C1461 C1466 1.390 . S
C1462 C1456 1.465 . S
C1462 C1461 1.396 . S
C1462 C1463 1.399 . S
C1463 H1449 0.929 . S
C1463 C1462 1.399 . S
C1463 C1464 1.385 . S
C1464 H1450 0.931 . S
C1464 C1463 1.385 . S
C1464 C1465 1.389 . S
C1465 C1464 1.389 . S
C1465 C1466 1.387 . S
C1466 H1451 0.930 . S
C1466 C1461 1.390 . S
C1466 C1465 1.387 . S
H1467 C1479 0.930 . S
H1468 C1481 0.930 . S
H1469 C1482 0.930 . S
H1470 C1486 0.959 . S
H1471 C1486 0.959 . S
H1472 C1486 0.961 . S
H1473 C1487 0.960 . S
H1474 C1487 0.961 . S
H1475 C1487 0.959 . S
H1476 C1490 0.929 . S
H1477 C1491 0.931 . S
H1478 C1493 0.930 . S
C1479 H1467 0.930 . S
C1479 C1480 1.399 . S
C1479 C1484 1.399 . S
C1480 C1479 1.399 . S
C1480 C1481 1.376 . S
C1481 H1468 0.930 . S
C1481 C1480 1.376 . S
C1481 C1482 1.388 . S
C1482 H1469 0.930 . S
C1482 C1481 1.388 . S
C1482 C1483 1.390 . S
C1483 C1482 1.390 . S
C1483 C1484 1.394 . S
C1483 C1489 1.465 . S
C1484 C1479 1.399 . S
C1484 C1483 1.394 . S
C1484 C1485 1.516 . S
C1485 C1484 1.516 . S
C1485 C1486 1.502 . S
C1485 C1487 1.561 . S
C1485 C1488 1.526 . S
C1486 H1470 0.959 . S
C1486 H1471 0.959 . S
C1486 H1472 0.961 . S
C1486 C1485 1.502 . S
C1487 H1473 0.960 . S
C1487 H1474 0.961 . S
C1487 H1475 0.959 . S
C1487 C1485 1.561 . S
C1488 C1485 1.526 . S
C1488 C1489 1.396 . S
C1488 C1493 1.390 . S
C1489 C1483 1.465 . S
C1489 C1488 1.396 . S
C1489 C1490 1.399 . S
C1490 H1476 0.929 . S
C1490 C1489 1.399 . S
C1490 C1491 1.385 . S
C1491 H1477 0.931 . S
C1491 C1490 1.385 . S
C1491 C1492 1.389 . S
C1492 C1491 1.389 . S
C1492 C1493 1.387 . S
C1493 H1478 0.930 . S
C1493 C1488 1.390 . S
C1493 C1492 1.387 . S
H1494 C1506 0.930 . S
H1495 C1508 0.930 . S
H1496 C1509 0.930 . S
H1497 C1513 0.959 . S
H1498 C1513 0.959 . S
H1499 C1513 0.961 . S
H1500 C1514 0.960 . S
H1501 C1514 0.961 . S
H1502 C1514 0.959 . S
H1503 C1517 0.929 . S
H1504 C1518 0.931 . S
H1505 C1520 0.930 . S
C1506 H1494 0.930 . S
C1506 C1507 1.399 . S
C1506 C1511 1.399 . S
C1507 C1506 1.399 . S
C1507 C1508 1.376 . S
C1508 H1495 0.930 . S
C1508 C1507 1.376 . S
C1508 C1509 1.388 . S
C1509 H1496 0.930 . S
C1509 C1508 1.388 . S
C1509 C1510 1.390 . S
C1510 C1509 1.390 . S
C1510 C1511 1.394 . S
C1510 C1516 1.465 . S
C1511 C1506 1.399 . S
C1511 C1510 1.394 . S
C1511 C1512 1.516 . S
C1512 C1511 1.516 . S
C1512 C1513 1.502 . S
C1512 C1514 1.561 . S
C1512 C1515 1.526 . S
C1513 H1497 0.959 . S
C1513 H1498 0.959 . S
C1513 H1499 0.961 . S
C1513 C1512 1.502 . S
C1514 H1500 0.960 . S
C1514 H1501 0.961 . S
C1514 H1502 0.959 . S
C1514 C1512 1.561 . S
C1515 C1512 1.526 . S
C1515 C1516 1.396 . S
C1515 C1520 1.390 . S
C1516 C1510 1.465 . S
C1516 C1515 1.396 . S
C1516 C1517 1.399 . S
C1517 H1503 0.929 . S
C1517 C1516 1.399 . S
C1517 C1518 1.385 . S
C1518 H1504 0.931 . S
C1518 C1517 1.385 . S
C1518 C1519 1.389 . S
C1519 C1518 1.389 . S
C1519 C1520 1.387 . S
C1520 H1505 0.930 . S
C1520 C1515 1.390 . S
C1520 C1519 1.387 . S
H1521 C1533 0.930 . S
H1522 C1535 0.930 . S
H1523 C1536 0.930 . S
H1524 C1540 0.959 . S
H1525 C1540 0.959 . S
H1526 C1540 0.961 . S
H1527 C1541 0.960 . S
H1528 C1541 0.961 . S
H1529 C1541 0.959 . S
H1530 C1544 0.929 . S
H1531 C1545 0.931 . S
H1532 C1547 0.930 . S
C1533 H1521 0.930 . S
C1533 C1534 1.399 . S
C1533 C1538 1.399 . S
C1534 C1533 1.399 . S
C1534 C1535 1.376 . S
C1535 H1522 0.930 . S
C1535 C1534 1.376 . S
C1535 C1536 1.388 . S
C1536 H1523 0.930 . S
C1536 C1535 1.388 . S
C1536 C1537 1.390 . S
C1537 C1536 1.390 . S
C1537 C1538 1.394 . S
C1537 C1543 1.465 . S
C1538 C1533 1.399 . S
C1538 C1537 1.394 . S
C1538 C1539 1.516 . S
C1539 C1538 1.516 . S
C1539 C1540 1.502 . S
C1539 C1541 1.561 . S
C1539 C1542 1.526 . S
C1540 H1524 0.959 . S
C1540 H1525 0.959 . S
C1540 H1526 0.961 . S
C1540 C1539 1.502 . S
C1541 H1527 0.960 . S
C1541 H1528 0.961 . S
C1541 H1529 0.959 . S
C1541 C1539 1.561 . S
C1542 C1539 1.526 . S
C1542 C1543 1.396 . S
C1542 C1547 1.390 . S
C1543 C1537 1.465 . S
C1543 C1542 1.396 . S
C1543 C1544 1.399 . S
C1544 H1530 0.929 . S
C1544 C1543 1.399 . S
C1544 C1545 1.385 . S
C1545 H1531 0.931 . S
C1545 C1544 1.385 . S
C1545 C1546 1.389 . S
C1546 C1545 1.389 . S
C1546 C1547 1.387 . S
C1547 H1532 0.930 . S
C1547 C1542 1.390 . S
C1547 C1546 1.387 . S
H1548 C1560 0.930 . S
H1549 C1562 0.930 . S
H1550 C1563 0.930 . S
H1551 C1567 0.959 . S
H1552 C1567 0.959 . S
H1553 C1567 0.961 . S
H1554 C1568 0.960 . S
H1555 C1568 0.961 . S
H1556 C1568 0.959 . S
H1557 C1571 0.929 . S
H1558 C1572 0.931 . S
H1559 C1574 0.930 . S
C1560 H1548 0.930 . S
C1560 C1561 1.399 . S
C1560 C1565 1.399 . S
C1561 C1560 1.399 . S
C1561 C1562 1.376 . S
C1562 H1549 0.930 . S
C1562 C1561 1.376 . S
C1562 C1563 1.388 . S
C1563 H1550 0.930 . S
C1563 C1562 1.388 . S
C1563 C1564 1.390 . S
C1564 C1563 1.390 . S
C1564 C1565 1.394 . S
C1564 C1570 1.465 . S
C1565 C1560 1.399 . S
C1565 C1564 1.394 . S
C1565 C1566 1.516 . S
C1566 C1565 1.516 . S
C1566 C1567 1.502 . S
C1566 C1568 1.561 . S
C1566 C1569 1.526 . S
C1567 H1551 0.959 . S
C1567 H1552 0.959 . S
C1567 H1553 0.961 . S
C1567 C1566 1.502 . S
C1568 H1554 0.960 . S
C1568 H1555 0.961 . S
C1568 H1556 0.959 . S
C1568 C1566 1.561 . S
C1569 C1566 1.526 . S
C1569 C1570 1.396 . S
C1569 C1574 1.390 . S
C1570 C1564 1.465 . S
C1570 C1569 1.396 . S
C1570 C1571 1.399 . S
C1571 H1557 0.929 . S
C1571 C1570 1.399 . S
C1571 C1572 1.385 . S
C1572 H1558 0.931 . S
C1572 C1571 1.385 . S
C1572 C1573 1.389 . S
C1573 C1572 1.389 . S
C1573 C1574 1.387 . S
C1574 H1559 0.930 . S
C1574 C1569 1.390 . S
C1574 C1573 1.387 . S
H1575 C1587 0.930 . S
H1576 C1589 0.930 . S
H1577 C1590 0.930 . S
H1578 C1594 0.959 . S
H1579 C1594 0.959 . S
H1580 C1594 0.961 . S
H1581 C1595 0.960 . S
H1582 C1595 0.961 . S
H1583 C1595 0.959 . S
H1584 C1598 0.929 . S
H1585 C1599 0.931 . S
H1586 C1601 0.930 . S
C1587 H1575 0.930 . S
C1587 C1588 1.399 . S
C1587 C1592 1.399 . S
C1588 C1587 1.399 . S
C1588 C1589 1.376 . S
C1589 H1576 0.930 . S
C1589 C1588 1.376 . S
C1589 C1590 1.388 . S
C1590 H1577 0.930 . S
C1590 C1589 1.388 . S
C1590 C1591 1.390 . S
C1591 C1590 1.390 . S
C1591 C1592 1.394 . S
C1591 C1597 1.465 . S
C1592 C1587 1.399 . S
C1592 C1591 1.394 . S
C1592 C1593 1.516 . S
C1593 C1592 1.516 . S
C1593 C1594 1.502 . S
C1593 C1595 1.561 . S
C1593 C1596 1.526 . S
C1594 H1578 0.959 . S
C1594 H1579 0.959 . S
C1594 H1580 0.961 . S
C1594 C1593 1.502 . S
C1595 H1581 0.960 . S
C1595 H1582 0.961 . S
C1595 H1583 0.959 . S
C1595 C1593 1.561 . S
C1596 C1593 1.526 . S
C1596 C1597 1.396 . S
C1596 C1601 1.390 . S
C1597 C1591 1.465 . S
C1597 C1596 1.396 . S
C1597 C1598 1.399 . S
C1598 H1584 0.929 . S
C1598 C1597 1.399 . S
C1598 C1599 1.385 . S
C1599 H1585 0.931 . S
C1599 C1598 1.385 . S
C1599 C1600 1.389 . S
C1600 C1599 1.389 . S
C1600 C1601 1.387 . S
C1601 H1586 0.930 . S
C1601 C1596 1.390 . S
C1601 C1600 1.387 . S
H1602 C1614 0.930 . S
H1603 C1616 0.930 . S
H1604 C1617 0.930 . S
H1605 C1621 0.959 . S
H1606 C1621 0.959 . S
H1607 C1621 0.961 . S
H1608 C1622 0.960 . S
H1609 C1622 0.961 . S
H1610 C1622 0.959 . S
H1611 C1625 0.929 . S
H1612 C1626 0.931 . S
H1613 C1628 0.930 . S
C1614 H1602 0.930 . S
C1614 C1615 1.399 . S
C1614 C1619 1.399 . S
C1615 C1614 1.399 . S
C1615 C1616 1.376 . S
C1616 H1603 0.930 . S
C1616 C1615 1.376 . S
C1616 C1617 1.388 . S
C1617 H1604 0.930 . S
C1617 C1616 1.388 . S
C1617 C1618 1.390 . S
C1618 C1617 1.390 . S
C1618 C1619 1.394 . S
C1618 C1624 1.465 . S
C1619 C1614 1.399 . S
C1619 C1618 1.394 . S
C1619 C1620 1.516 . S
C1620 C1619 1.516 . S
C1620 C1621 1.502 . S
C1620 C1622 1.561 . S
C1620 C1623 1.526 . S
C1621 H1605 0.959 . S
C1621 H1606 0.959 . S
C1621 H1607 0.961 . S
C1621 C1620 1.502 . S
C1622 H1608 0.960 . S
C1622 H1609 0.961 . S
C1622 H1610 0.959 . S
C1622 C1620 1.561 . S
C1623 C1620 1.526 . S
C1623 C1624 1.396 . S
C1623 C1628 1.390 . S
C1624 C1618 1.465 . S
C1624 C1623 1.396 . S
C1624 C1625 1.399 . S
C1625 H1611 0.929 . S
C1625 C1624 1.399 . S
C1625 C1626 1.385 . S
C1626 H1612 0.931 . S
C1626 C1625 1.385 . S
C1626 C1627 1.389 . S
C1627 C1626 1.389 . S
C1627 C1628 1.387 . S
C1628 H1613 0.930 . S
C1628 C1623 1.390 . S
C1628 C1627 1.387 . S
H1629 C1641 0.930 . S
H1630 C1643 0.930 . S
H1631 C1644 0.930 . S
H1632 C1648 0.959 . S
H1633 C1648 0.959 . S
H1634 C1648 0.961 . S
H1635 C1649 0.960 . S
H1636 C1649 0.961 . S
H1637 C1649 0.959 . S
H1638 C1652 0.929 . S
H1639 C1653 0.931 . S
H1640 C1655 0.930 . S
C1641 H1629 0.930 . S
C1641 C1642 1.399 . S
C1641 C1646 1.399 . S
C1642 C1641 1.399 . S
C1642 C1643 1.376 . S
C1643 H1630 0.930 . S
C1643 C1642 1.376 . S
C1643 C1644 1.388 . S
C1644 H1631 0.930 . S
C1644 C1643 1.388 . S
C1644 C1645 1.390 . S
C1645 C1644 1.390 . S
C1645 C1646 1.394 . S
C1645 C1651 1.465 . S
C1646 C1641 1.399 . S
C1646 C1645 1.394 . S
C1646 C1647 1.516 . S
C1647 C1646 1.516 . S
C1647 C1648 1.502 . S
C1647 C1649 1.561 . S
C1647 C1650 1.526 . S
C1648 H1632 0.959 . S
C1648 H1633 0.959 . S
C1648 H1634 0.961 . S
C1648 C1647 1.502 . S
C1649 H1635 0.960 . S
C1649 H1636 0.961 . S
C1649 H1637 0.959 . S
C1649 C1647 1.561 . S
C1650 C1647 1.526 . S
C1650 C1651 1.396 . S
C1650 C1655 1.390 . S
C1651 C1645 1.465 . S
C1651 C1650 1.396 . S
C1651 C1652 1.399 . S
C1652 H1638 0.929 . S
C1652 C1651 1.399 . S
C1652 C1653 1.385 . S
C1653 H1639 0.931 . S
C1653 C1652 1.385 . S
C1653 C1654 1.389 . S
C1654 C1653 1.389 . S
C1654 C1655 1.387 . S
C1655 H1640 0.930 . S
C1655 C1650 1.390 . S
C1655 C1654 1.387 . S
H1656 C1668 0.930 . S
H1657 C1670 0.930 . S
H1658 C1671 0.930 . S
H1659 C1675 0.959 . S
H1660 C1675 0.959 . S
H1661 C1675 0.961 . S
H1662 C1676 0.960 . S
H1663 C1676 0.961 . S
H1664 C1676 0.959 . S
H1665 C1679 0.929 . S
H1666 C1680 0.931 . S
H1667 C1682 0.930 . S
C1668 H1656 0.930 . S
C1668 C1669 1.399 . S
C1668 C1673 1.399 . S
C1669 C1668 1.399 . S
C1669 C1670 1.376 . S
C1670 H1657 0.930 . S
C1670 C1669 1.376 . S
C1670 C1671 1.388 . S
C1671 H1658 0.930 . S
C1671 C1670 1.388 . S
C1671 C1672 1.390 . S
C1672 C1671 1.390 . S
C1672 C1673 1.394 . S
C1672 C1678 1.465 . S
C1673 C1668 1.399 . S
C1673 C1672 1.394 . S
C1673 C1674 1.516 . S
C1674 C1673 1.516 . S
C1674 C1675 1.502 . S
C1674 C1676 1.561 . S
C1674 C1677 1.526 . S
C1675 H1659 0.959 . S
C1675 H1660 0.959 . S
C1675 H1661 0.961 . S
C1675 C1674 1.502 . S
C1676 H1662 0.960 . S
C1676 H1663 0.961 . S
C1676 H1664 0.959 . S
C1676 C1674 1.561 . S
C1677 C1674 1.526 . S
C1677 C1678 1.396 . S
C1677 C1682 1.390 . S
C1678 C1672 1.465 . S
C1678 C1677 1.396 . S
C1678 C1679 1.399 . S
C1679 H1665 0.929 . S
C1679 C1678 1.399 . S
C1679 C1680 1.385 . S
C1680 H1666 0.931 . S
C1680 C1679 1.385 . S
C1680 C1681 1.389 . S
C1681 C1680 1.389 . S
C1681 C1682 1.387 . S
C1682 H1667 0.930 . S
C1682 C1677 1.390 . S
C1682 C1681 1.387 . S
H1683 C1695 0.930 . S
H1684 C1697 0.930 . S
H1685 C1698 0.930 . S
H1686 C1702 0.959 . S
H1687 C1702 0.959 . S
H1688 C1702 0.961 . S
H1689 C1703 0.960 . S
H1690 C1703 0.961 . S
H1691 C1703 0.959 . S
H1692 C1706 0.929 . S
H1693 C1707 0.931 . S
H1694 C1709 0.930 . S
C1695 H1683 0.930 . S
C1695 C1696 1.399 . S
C1695 C1700 1.399 . S
C1696 C1695 1.399 . S
C1696 C1697 1.376 . S
C1697 H1684 0.930 . S
C1697 C1696 1.376 . S
C1697 C1698 1.388 . S
C1698 H1685 0.930 . S
C1698 C1697 1.388 . S
C1698 C1699 1.390 . S
C1699 C1698 1.390 . S
C1699 C1700 1.394 . S
C1699 C1705 1.465 . S
C1700 C1695 1.399 . S
C1700 C1699 1.394 . S
C1700 C1701 1.516 . S
C1701 C1700 1.516 . S
C1701 C1702 1.502 . S
C1701 C1703 1.561 . S
C1701 C1704 1.526 . S
C1702 H1686 0.959 . S
C1702 H1687 0.959 . S
C1702 H1688 0.961 . S
C1702 C1701 1.502 . S
C1703 H1689 0.960 . S
C1703 H1690 0.961 . S
C1703 H1691 0.959 . S
C1703 C1701 1.561 . S
C1704 C1701 1.526 . S
C1704 C1705 1.396 . S
C1704 C1709 1.390 . S
C1705 C1699 1.465 . S
C1705 C1704 1.396 . S
C1705 C1706 1.399 . S
C1706 H1692 0.929 . S
C1706 C1705 1.399 . S
C1706 C1707 1.385 . S
C1707 H1693 0.931 . S
C1707 C1706 1.385 . S
C1707 C1708 1.389 . S
C1708 C1707 1.389 . S
C1708 C1709 1.387 . S
C1709 H1694 0.930 . S
C1709 C1704 1.390 . S
C1709 C1708 1.387 . S
H1710 C1722 0.930 . S
H1711 C1724 0.930 . S
H1712 C1725 0.930 . S
H1713 C1729 0.959 . S
H1714 C1729 0.959 . S
H1715 C1729 0.961 . S
H1716 C1730 0.960 . S
H1717 C1730 0.961 . S
H1718 C1730 0.959 . S
H1719 C1733 0.929 . S
H1720 C1734 0.931 . S
H1721 C1736 0.930 . S
C1722 H1710 0.930 . S
C1722 C1723 1.399 . S
C1722 C1727 1.399 . S
C1723 C1722 1.399 . S
C1723 C1724 1.376 . S
C1724 H1711 0.930 . S
C1724 C1723 1.376 . S
C1724 C1725 1.388 . S
C1725 H1712 0.930 . S
C1725 C1724 1.388 . S
C1725 C1726 1.390 . S
C1726 C1725 1.390 . S
C1726 C1727 1.394 . S
C1726 C1732 1.465 . S
C1727 C1722 1.399 . S
C1727 C1726 1.394 . S
C1727 C1728 1.516 . S
C1728 C1727 1.516 . S
C1728 C1729 1.502 . S
C1728 C1730 1.561 . S
C1728 C1731 1.526 . S
C1729 H1713 0.959 . S
C1729 H1714 0.959 . S
C1729 H1715 0.961 . S
C1729 C1728 1.502 . S
C1730 H1716 0.960 . S
C1730 H1717 0.961 . S
C1730 H1718 0.959 . S
C1730 C1728 1.561 . S
C1731 C1728 1.526 . S
C1731 C1732 1.396 . S
C1731 C1736 1.390 . S
C1732 C1726 1.465 . S
C1732 C1731 1.396 . S
C1732 C1733 1.399 . S
C1733 H1719 0.929 . S
C1733 C1732 1.399 . S
C1733 C1734 1.385 . S
C1734 H1720 0.931 . S
C1734 C1733 1.385 . S
C1734 C1735 1.389 . S
C1735 C1734 1.389 . S
C1735 C1736 1.387 . S
C1736 H1721 0.930 . S
C1736 C1731 1.390 . S
C1736 C1735 1.387 . S
H1737 C1749 0.930 . S
H1738 C1751 0.930 . S
H1739 C1752 0.930 . S
H1740 C1756 0.959 . S
H1741 C1756 0.959 . S
H1742 C1756 0.961 . S
H1743 C1757 0.960 . S
H1744 C1757 0.961 . S
H1745 C1757 0.959 . S
H1746 C1760 0.929 . S
H1747 C1761 0.931 . S
H1748 C1763 0.930 . S
C1749 H1737 0.930 . S
C1749 C1750 1.399 . S
C1749 C1754 1.399 . S
C1750 C1749 1.399 . S
C1750 C1751 1.376 . S
C1751 H1738 0.930 . S
C1751 C1750 1.376 . S
C1751 C1752 1.388 . S
C1752 H1739 0.930 . S
C1752 C1751 1.388 . S
C1752 C1753 1.390 . S
C1753 C1752 1.390 . S
C1753 C1754 1.394 . S
C1753 C1759 1.465 . S
C1754 C1749 1.399 . S
C1754 C1753 1.394 . S
C1754 C1755 1.516 . S
C1755 C1754 1.516 . S
C1755 C1756 1.502 . S
C1755 C1757 1.561 . S
C1755 C1758 1.526 . S
C1756 H1740 0.959 . S
C1756 H1741 0.959 . S
C1756 H1742 0.961 . S
C1756 C1755 1.502 . S
C1757 H1743 0.960 . S
C1757 H1744 0.961 . S
C1757 H1745 0.959 . S
C1757 C1755 1.561 . S
C1758 C1755 1.526 . S
C1758 C1759 1.396 . S
C1758 C1763 1.390 . S
C1759 C1753 1.465 . S
C1759 C1758 1.396 . S
C1759 C1760 1.399 . S
C1760 H1746 0.929 . S
C1760 C1759 1.399 . S
C1760 C1761 1.385 . S
C1761 H1747 0.931 . S
C1761 C1760 1.385 . S
C1761 C1762 1.389 . S
C1762 C1761 1.389 . S
C1762 C1763 1.387 . S
C1763 H1748 0.930 . S
C1763 C1758 1.390 . S
C1763 C1762 1.387 . S
H1764 C1776 0.930 . S
H1765 C1778 0.930 . S
H1766 C1779 0.930 . S
H1767 C1783 0.959 . S
H1768 C1783 0.959 . S
H1769 C1783 0.961 . S
H1770 C1784 0.960 . S
H1771 C1784 0.961 . S
H1772 C1784 0.959 . S
H1773 C1787 0.929 . S
H1774 C1788 0.931 . S
H1775 C1790 0.930 . S
C1776 H1764 0.930 . S
C1776 C1777 1.399 . S
C1776 C1781 1.399 . S
C1777 C1776 1.399 . S
C1777 C1778 1.376 . S
C1778 H1765 0.930 . S
C1778 C1777 1.376 . S
C1778 C1779 1.388 . S
C1779 H1766 0.930 . S
C1779 C1778 1.388 . S
C1779 C1780 1.390 . S
C1780 C1779 1.390 . S
C1780 C1781 1.394 . S
C1780 C1786 1.465 . S
C1781 C1776 1.399 . S
C1781 C1780 1.394 . S
C1781 C1782 1.516 . S
C1782 C1781 1.516 . S
C1782 C1783 1.502 . S
C1782 C1784 1.561 . S
C1782 C1785 1.526 . S
C1783 H1767 0.959 . S
C1783 H1768 0.959 . S
C1783 H1769 0.961 . S
C1783 C1782 1.502 . S
C1784 H1770 0.960 . S
C1784 H1771 0.961 . S
C1784 H1772 0.959 . S
C1784 C1782 1.561 . S
C1785 C1782 1.526 . S
C1785 C1786 1.396 . S
C1785 C1790 1.390 . S
C1786 C1780 1.465 . S
C1786 C1785 1.396 . S
C1786 C1787 1.399 . S
C1787 H1773 0.929 . S
C1787 C1786 1.399 . S
C1787 C1788 1.385 . S
C1788 H1774 0.931 . S
C1788 C1787 1.385 . S
C1788 C1789 1.389 . S
C1789 C1788 1.389 . S
C1789 C1790 1.387 . S
C1790 H1775 0.930 . S
C1790 C1785 1.390 . S
C1790 C1789 1.387 . S
H1791 C1803 0.930 . S
H1792 C1805 0.930 . S
H1793 C1806 0.930 . S
H1794 C1810 0.959 . S
H1795 C1810 0.959 . S
H1796 C1810 0.961 . S
H1797 C1811 0.960 . S
H1798 C1811 0.961 . S
H1799 C1811 0.959 . S
H1800 C1814 0.929 . S
H1801 C1815 0.931 . S
H1802 C1817 0.930 . S
C1803 H1791 0.930 . S
C1803 C1804 1.399 . S
C1803 C1808 1.399 . S
C1804 C1803 1.399 . S
C1804 C1805 1.376 . S
C1805 H1792 0.930 . S
C1805 C1804 1.376 . S
C1805 C1806 1.388 . S
C1806 H1793 0.930 . S
C1806 C1805 1.388 . S
C1806 C1807 1.390 . S
C1807 C1806 1.390 . S
C1807 C1808 1.394 . S
C1807 C1813 1.465 . S
C1808 C1803 1.399 . S
C1808 C1807 1.394 . S
C1808 C1809 1.516 . S
C1809 C1808 1.516 . S
C1809 C1810 1.502 . S
C1809 C1811 1.561 . S
C1809 C1812 1.526 . S
C1810 H1794 0.959 . S
C1810 H1795 0.959 . S
C1810 H1796 0.961 . S
C1810 C1809 1.502 . S
C1811 H1797 0.960 . S
C1811 H1798 0.961 . S
C1811 H1799 0.959 . S
C1811 C1809 1.561 . S
C1812 C1809 1.526 . S
C1812 C1813 1.396 . S
C1812 C1817 1.390 . S
C1813 C1807 1.465 . S
C1813 C1812 1.396 . S
C1813 C1814 1.399 . S
C1814 H1800 0.929 . S
C1814 C1813 1.399 . S
C1814 C1815 1.385 . S
C1815 H1801 0.931 . S
C1815 C1814 1.385 . S
C1815 C1816 1.389 . S
C1816 C1815 1.389 . S
C1816 C1817 1.387 . S
C1817 H1802 0.930 . S
C1817 C1812 1.390 . S
C1817 C1816 1.387 . S
H1818 C1830 0.930 . S
H1819 C1832 0.930 . S
H1820 C1833 0.930 . S
H1821 C1837 0.959 . S
H1822 C1837 0.959 . S
H1823 C1837 0.961 . S
H1824 C1838 0.960 . S
H1825 C1838 0.961 . S
H1826 C1838 0.959 . S
H1827 C1841 0.929 . S
H1828 C1842 0.931 . S
H1829 C1844 0.930 . S
C1830 H1818 0.930 . S
C1830 C1831 1.399 . S
C1830 C1835 1.399 . S
C1831 C1830 1.399 . S
C1831 C1832 1.376 . S
C1832 H1819 0.930 . S
C1832 C1831 1.376 . S
C1832 C1833 1.388 . S
C1833 H1820 0.930 . S
C1833 C1832 1.388 . S
C1833 C1834 1.390 . S
C1834 C1833 1.390 . S
C1834 C1835 1.394 . S
C1834 C1840 1.465 . S
C1835 C1830 1.399 . S
C1835 C1834 1.394 . S
C1835 C1836 1.516 . S
C1836 C1835 1.516 . S
C1836 C1837 1.502 . S
C1836 C1838 1.561 . S
C1836 C1839 1.526 . S
C1837 H1821 0.959 . S
C1837 H1822 0.959 . S
C1837 H1823 0.961 . S
C1837 C1836 1.502 . S
C1838 H1824 0.960 . S
C1838 H1825 0.961 . S
C1838 H1826 0.959 . S
C1838 C1836 1.561 . S
C1839 C1836 1.526 . S
C1839 C1840 1.396 . S
C1839 C1844 1.390 . S
C1840 C1834 1.465 . S
C1840 C1839 1.396 . S
C1840 C1841 1.399 . S
C1841 H1827 0.929 . S
C1841 C1840 1.399 . S
C1841 C1842 1.385 . S
C1842 H1828 0.931 . S
C1842 C1841 1.385 . S
C1842 C1843 1.389 . S
C1843 C1842 1.389 . S
C1843 C1844 1.387 . S
C1844 H1829 0.930 . S
C1844 C1839 1.390 . S
C1844 C1843 1.387 . S
H1845 C1857 0.930 . S
H1846 C1859 0.930 . S
H1847 C1860 0.930 . S
H1848 C1864 0.959 . S
H1849 C1864 0.959 . S
H1850 C1864 0.961 . S
H1851 C1865 0.960 . S
H1852 C1865 0.961 . S
H1853 C1865 0.959 . S
H1854 C1868 0.929 . S
H1855 C1869 0.931 . S
H1856 C1871 0.930 . S
C1857 H1845 0.930 . S
C1857 C1858 1.399 . S
C1857 C1862 1.399 . S
C1858 C1857 1.399 . S
C1858 C1859 1.376 . S
C1859 H1846 0.930 . S
C1859 C1858 1.376 . S
C1859 C1860 1.388 . S
C1860 H1847 0.930 . S
C1860 C1859 1.388 . S
C1860 C1861 1.390 . S
C1861 C1860 1.390 . S
C1861 C1862 1.394 . S
C1861 C1867 1.465 . S
C1862 C1857 1.399 . S
C1862 C1861 1.394 . S
C1862 C1863 1.516 . S
C1863 C1862 1.516 . S
C1863 C1864 1.502 . S
C1863 C1865 1.561 . S
C1863 C1866 1.526 . S
C1864 H1848 0.959 . S
C1864 H1849 0.959 . S
C1864 H1850 0.961 . S
C1864 C1863 1.502 . S
C1865 H1851 0.960 . S
C1865 H1852 0.961 . S
C1865 H1853 0.959 . S
C1865 C1863 1.561 . S
C1866 C1863 1.526 . S
C1866 C1867 1.396 . S
C1866 C1871 1.390 . S
C1867 C1861 1.465 . S
C1867 C1866 1.396 . S
C1867 C1868 1.399 . S
C1868 H1854 0.929 . S
C1868 C1867 1.399 . S
C1868 C1869 1.385 . S
C1869 H1855 0.931 . S
C1869 C1868 1.385 . S
C1869 C1870 1.389 . S
C1870 C1869 1.389 . S
C1870 C1871 1.387 . S
C1871 H1856 0.930 . S
C1871 C1866 1.390 . S
C1871 C1870 1.387 . S
H1872 C1884 0.930 . S
H1873 C1886 0.930 . S
H1874 C1887 0.930 . S
H1875 C1891 0.959 . S
H1876 C1891 0.959 . S
H1877 C1891 0.961 . S
H1878 C1892 0.960 . S
H1879 C1892 0.961 . S
H1880 C1892 0.959 . S
H1881 C1895 0.929 . S
H1882 C1896 0.931 . S
H1883 C1898 0.930 . S
C1884 H1872 0.930 . S
C1884 C1885 1.399 . S
C1884 C1889 1.399 . S
C1885 C1884 1.399 . S
C1885 C1886 1.376 . S
C1886 H1873 0.930 . S
C1886 C1885 1.376 . S
C1886 C1887 1.388 . S
C1887 H1874 0.930 . S
C1887 C1886 1.388 . S
C1887 C1888 1.390 . S
C1888 C1887 1.390 . S
C1888 C1889 1.394 . S
C1888 C1894 1.465 . S
C1889 C1884 1.399 . S
C1889 C1888 1.394 . S
C1889 C1890 1.516 . S
C1890 C1889 1.516 . S
C1890 C1891 1.502 . S
C1890 C1892 1.561 . S
C1890 C1893 1.526 . S
C1891 H1875 0.959 . S
C1891 H1876 0.959 . S
C1891 H1877 0.961 . S
C1891 C1890 1.502 . S
C1892 H1878 0.960 . S
C1892 H1879 0.961 . S
C1892 H1880 0.959 . S
C1892 C1890 1.561 . S
C1893 C1890 1.526 . S
C1893 C1894 1.396 . S
C1893 C1898 1.390 . S
C1894 C1888 1.465 . S
C1894 C1893 1.396 . S
C1894 C1895 1.399 . S
C1895 H1881 0.929 . S
C1895 C1894 1.399 . S
C1895 C1896 1.385 . S
C1896 H1882 0.931 . S
C1896 C1895 1.385 . S
C1896 C1897 1.389 . S
C1897 C1896 1.389 . S
C1897 C1898 1.387 . S
C1898 H1883 0.930 . S
C1898 C1893 1.390 . S
C1898 C1897 1.387 . S
H1899 C1911 0.930 . S
H1900 C1913 0.930 . S
H1901 C1914 0.930 . S
H1902 C1918 0.959 . S
H1903 C1918 0.959 . S
H1904 C1918 0.961 . S
H1905 C1919 0.960 . S
H1906 C1919 0.961 . S
H1907 C1919 0.959 . S
H1908 C1922 0.929 . S
H1909 C1923 0.931 . S
H1910 C1925 0.930 . S
C1911 H1899 0.930 . S
C1911 C1912 1.399 . S
C1911 C1916 1.399 . S
C1912 C1911 1.399 . S
C1912 C1913 1.376 . S
C1913 H1900 0.930 . S
C1913 C1912 1.376 . S
C1913 C1914 1.388 . S
C1914 H1901 0.930 . S
C1914 C1913 1.388 . S
C1914 C1915 1.390 . S
C1915 C1914 1.390 . S
C1915 C1916 1.394 . S
C1915 C1921 1.465 . S
C1916 C1911 1.399 . S
C1916 C1915 1.394 . S
C1916 C1917 1.516 . S
C1917 C1916 1.516 . S
C1917 C1918 1.502 . S
C1917 C1919 1.561 . S
C1917 C1920 1.526 . S
C1918 H1902 0.959 . S
C1918 H1903 0.959 . S
C1918 H1904 0.961 . S
C1918 C1917 1.502 . S
C1919 H1905 0.960 . S
C1919 H1906 0.961 . S
C1919 H1907 0.959 . S
C1919 C1917 1.561 . S
C1920 C1917 1.526 . S
C1920 C1921 1.396 . S
C1920 C1925 1.390 . S
C1921 C1915 1.465 . S
C1921 C1920 1.396 . S
C1921 C1922 1.399 . S
C1922 H1908 0.929 . S
C1922 C1921 1.399 . S
C1922 C1923 1.385 . S
C1923 H1909 0.931 . S
C1923 C1922 1.385 . S
C1923 C1924 1.389 . S
C1924 C1923 1.389 . S
C1924 C1925 1.387 . S
C1925 H1910 0.930 . S
C1925 C1920 1.390 . S
C1925 C1924 1.387 . S
H1926 C1938 0.930 . S
H1927 C1940 0.930 . S
H1928 C1941 0.930 . S
H1929 C1945 0.959 . S
H1930 C1945 0.959 . S
H1931 C1945 0.961 . S
H1932 C1946 0.960 . S
H1933 C1946 0.961 . S
H1934 C1946 0.959 . S
H1935 C1949 0.929 . S
H1936 C1950 0.931 . S
H1937 C1952 0.930 . S
C1938 H1926 0.930 . S
C1938 C1939 1.399 . S
C1938 C1943 1.399 . S
C1939 C1938 1.399 . S
C1939 C1940 1.376 . S
C1940 H1927 0.930 . S
C1940 C1939 1.376 . S
C1940 C1941 1.388 . S
C1941 H1928 0.930 . S
C1941 C1940 1.388 . S
C1941 C1942 1.390 . S
C1942 C1941 1.390 . S
C1942 C1943 1.394 . S
C1942 C1948 1.465 . S
C1943 C1938 1.399 . S
C1943 C1942 1.394 . S
C1943 C1944 1.516 . S
C1944 C1943 1.516 . S
C1944 C1945 1.502 . S
C1944 C1946 1.561 . S
C1944 C1947 1.526 . S
C1945 H1929 0.959 . S
C1945 H1930 0.959 . S
C1945 H1931 0.961 . S
C1945 C1944 1.502 . S
C1946 H1932 0.960 . S
C1946 H1933 0.961 . S
C1946 H1934 0.959 . S
C1946 C1944 1.561 . S
C1947 C1944 1.526 . S
C1947 C1948 1.396 . S
C1947 C1952 1.390 . S
C1948 C1942 1.465 . S
C1948 C1947 1.396 . S
C1948 C1949 1.399 . S
C1949 H1935 0.929 . S
C1949 C1948 1.399 . S
C1949 C1950 1.385 . S
C1950 H1936 0.931 . S
C1950 C1949 1.385 . S
C1950 C1951 1.389 . S
C1951 C1950 1.389 . S
C1951 C1952 1.387 . S
C1952 H1937 0.930 . S
C1952 C1947 1.390 . S
C1952 C1951 1.387 . S
H1953 C1965 0.930 . S
H1954 C1967 0.930 . S
H1955 C1968 0.930 . S
H1956 C1972 0.959 . S
H1957 C1972 0.959 . S
H1958 C1972 0.961 . S
H1959 C1973 0.960 . S
H1960 C1973 0.961 . S
H1961 C1973 0.959 . S
H1962 C1976 0.929 . S
H1963 C1977 0.931 . S
H1964 C1979 0.930 . S
C1965 H1953 0.930 . S
C1965 C1966 1.399 . S
C1965 C1970 1.399 . S
C1966 C1965 1.399 . S
C1966 C1967 1.376 . S
C1967 H1954 0.930 . S
C1967 C1966 1.376 . S
C1967 C1968 1.388 . S
C1968 H1955 0.930 . S
C1968 C1967 1.388 . S
C1968 C1969 1.390 . S
C1969 C1968 1.390 . S
C1969 C1970 1.394 . S
C1969 C1975 1.465 . S
C1970 C1965 1.399 . S
C1970 C1969 1.394 . S
C1970 C1971 1.516 . S
C1971 C1970 1.516 . S
C1971 C1972 1.502 . S
C1971 C1973 1.561 . S
C1971 C1974 1.526 . S
C1972 H1956 0.959 . S
C1972 H1957 0.959 . S
C1972 H1958 0.961 . S
C1972 C1971 1.502 . S
C1973 H1959 0.960 . S
C1973 H1960 0.961 . S
C1973 H1961 0.959 . S
C1973 C1971 1.561 . S
C1974 C1971 1.526 . S
C1974 C1975 1.396 . S
C1974 C1979 1.390 . S
C1975 C1969 1.465 . S
C1975 C1974 1.396 . S
C1975 C1976 1.399 . S
C1976 H1962 0.929 . S
C1976 C1975 1.399 . S
C1976 C1977 1.385 . S
C1977 H1963 0.931 . S
C1977 C1976 1.385 . S
C1977 C1978 1.389 . S
C1978 C1977 1.389 . S
C1978 C1979 1.387 . S
C1979 H1964 0.930 . S
C1979 C1974 1.390 . S
C1979 C1978 1.387 . S
H1980 C1992 0.930 . S
H1981 C1994 0.930 . S
H1982 C1995 0.930 . S
H1983 C1999 0.959 . S
H1984 C1999 0.959 . S
H1985 C1999 0.961 . S
H1986 C2000 0.960 . S
H1987 C2000 0.961 . S
H1988 C2000 0.959 . S
H1989 C2003 0.929 . S
H1990 C2004 0.931 . S
H1991 C2006 0.930 . S
C1992 H1980 0.930 . S
C1992 C1993 1.399 . S
C1992 C1997 1.399 . S
C1993 C1992 1.399 . S
C1993 C1994 1.376 . S
C1994 H1981 0.930 . S
C1994 C1993 1.376 . S
C1994 C1995 1.388 . S
C1995 H1982 0.930 . S
C1995 C1994 1.388 . S
C1995 C1996 1.390 . S
C1996 C1995 1.390 . S
C1996 C1997 1.394 . S
C1996 C2002 1.465 . S
C1997 C1992 1.399 . S
C1997 C1996 1.394 . S
C1997 C1998 1.516 . S
C1998 C1997 1.516 . S
C1998 C1999 1.502 . S
C1998 C2000 1.561 . S
C1998 C2001 1.526 . S
C1999 H1983 0.959 . S
C1999 H1984 0.959 . S
C1999 H1985 0.961 . S
C1999 C1998 1.502 . S
C2000 H1986 0.960 . S
C2000 H1987 0.961 . S
C2000 H1988 0.959 . S
C2000 C1998 1.561 . S
C2001 C1998 1.526 . S
C2001 C2002 1.396 . S
C2001 C2006 1.390 . S
C2002 C1996 1.465 . S
C2002 C2001 1.396 . S
C2002 C2003 1.399 . S
C2003 H1989 0.929 . S
C2003 C2002 1.399 . S
C2003 C2004 1.385 . S
C2004 H1990 0.931 . S
C2004 C2003 1.385 . S
C2004 C2005 1.389 . S
C2005 C2004 1.389 . S
C2005 C2006 1.387 . S
C2006 H1991 0.930 . S
C2006 C2001 1.390 . S
C2006 C2005 1.387 . S
H2007 C2019 0.930 . S
H2008 C2021 0.930 . S
H2009 C2022 0.930 . S
H2010 C2026 0.959 . S
H2011 C2026 0.959 . S
H2012 C2026 0.961 . S
H2013 C2027 0.960 . S
H2014 C2027 0.961 . S
H2015 C2027 0.959 . S
H2016 C2030 0.929 . S
H2017 C2031 0.931 . S
H2018 C2033 0.930 . S
C2019 H2007 0.930 . S
C2019 C2020 1.399 . S
C2019 C2024 1.399 . S
C2020 C2019 1.399 . S
C2020 C2021 1.376 . S
C2021 H2008 0.930 . S
C2021 C2020 1.376 . S
C2021 C2022 1.388 . S
C2022 H2009 0.930 . S
C2022 C2021 1.388 . S
C2022 C2023 1.390 . S
C2023 C2022 1.390 . S
C2023 C2024 1.394 . S
C2023 C2029 1.465 . S
C2024 C2019 1.399 . S
C2024 C2023 1.394 . S
C2024 C2025 1.516 . S
C2025 C2024 1.516 . S
C2025 C2026 1.502 . S
C2025 C2027 1.561 . S
C2025 C2028 1.526 . S
C2026 H2010 0.959 . S
C2026 H2011 0.959 . S
C2026 H2012 0.961 . S
C2026 C2025 1.502 . S
C2027 H2013 0.960 . S
C2027 H2014 0.961 . S
C2027 H2015 0.959 . S
C2027 C2025 1.561 . S
C2028 C2025 1.526 . S
C2028 C2029 1.396 . S
C2028 C2033 1.390 . S
C2029 C2023 1.465 . S
C2029 C2028 1.396 . S
C2029 C2030 1.399 . S
C2030 H2016 0.929 . S
C2030 C2029 1.399 . S
C2030 C2031 1.385 . S
C2031 H2017 0.931 . S
C2031 C2030 1.385 . S
C2031 C2032 1.389 . S
C2032 C2031 1.389 . S
C2032 C2033 1.387 . S
C2033 H2018 0.930 . S
C2033 C2028 1.390 . S
C2033 C2032 1.387 . S
H2034 C2046 0.930 . S
H2035 C2048 0.930 . S
H2036 C2049 0.930 . S
H2037 C2053 0.959 . S
H2038 C2053 0.959 . S
H2039 C2053 0.961 . S
H2040 C2054 0.960 . S
H2041 C2054 0.961 . S
H2042 C2054 0.959 . S
H2043 C2057 0.929 . S
H2044 C2058 0.931 . S
H2045 C2060 0.930 . S
C2046 H2034 0.930 . S
C2046 C2047 1.399 . S
C2046 C2051 1.399 . S
C2047 C2046 1.399 . S
C2047 C2048 1.376 . S
C2048 H2035 0.930 . S
C2048 C2047 1.376 . S
C2048 C2049 1.388 . S
C2049 H2036 0.930 . S
C2049 C2048 1.388 . S
C2049 C2050 1.390 . S
C2050 C2049 1.390 . S
C2050 C2051 1.394 . S
C2050 C2056 1.465 . S
C2051 C2046 1.399 . S
C2051 C2050 1.394 . S
C2051 C2052 1.516 . S
C2052 C2051 1.516 . S
C2052 C2053 1.502 . S
C2052 C2054 1.561 . S
C2052 C2055 1.526 . S
C2053 H2037 0.959 . S
C2053 H2038 0.959 . S
C2053 H2039 0.961 . S
C2053 C2052 1.502 . S
C2054 H2040 0.960 . S
C2054 H2041 0.961 . S
C2054 H2042 0.959 . S
C2054 C2052 1.561 . S
C2055 C2052 1.526 . S
C2055 C2056 1.396 . S
C2055 C2060 1.390 . S
C2056 C2050 1.465 . S
C2056 C2055 1.396 . S
C2056 C2057 1.399 . S
C2057 H2043 0.929 . S
C2057 C2056 1.399 . S
C2057 C2058 1.385 . S
C2058 H2044 0.931 . S
C2058 C2057 1.385 . S
C2058 C2059 1.389 . S
C2059 C2058 1.389 . S
C2059 C2060 1.387 . S
C2060 H2045 0.930 . S
C2060 C2055 1.390 . S
C2060 C2059 1.387 . S
H2061 C2073 0.930 . S
H2062 C2075 0.930 . S
H2063 C2076 0.930 . S
H2064 C2080 0.959 . S
H2065 C2080 0.959 . S
H2066 C2080 0.961 . S
H2067 C2081 0.960 . S
H2068 C2081 0.961 . S
H2069 C2081 0.959 . S
H2070 C2084 0.929 . S
H2071 C2085 0.931 . S
H2072 C2087 0.930 . S
C2073 H2061 0.930 . S
C2073 C2074 1.399 . S
C2073 C2078 1.399 . S
C2074 C2073 1.399 . S
C2074 C2075 1.376 . S
C2075 H2062 0.930 . S
C2075 C2074 1.376 . S
C2075 C2076 1.388 . S
C2076 H2063 0.930 . S
C2076 C2075 1.388 . S
C2076 C2077 1.390 . S
C2077 C2076 1.390 . S
C2077 C2078 1.394 . S
C2077 C2083 1.465 . S
C2078 C2073 1.399 . S
C2078 C2077 1.394 . S
C2078 C2079 1.516 . S
C2079 C2078 1.516 . S
C2079 C2080 1.502 . S
C2079 C2081 1.561 . S
C2079 C2082 1.526 . S
C2080 H2064 0.959 . S
C2080 H2065 0.959 . S
C2080 H2066 0.961 . S
C2080 C2079 1.502 . S
C2081 H2067 0.960 . S
C2081 H2068 0.961 . S
C2081 H2069 0.959 . S
C2081 C2079 1.561 . S
C2082 C2079 1.526 . S
C2082 C2083 1.396 . S
C2082 C2087 1.390 . S
C2083 C2077 1.465 . S
C2083 C2082 1.396 . S
C2083 C2084 1.399 . S
C2084 H2070 0.929 . S
C2084 C2083 1.399 . S
C2084 C2085 1.385 . S
C2085 H2071 0.931 . S
C2085 C2084 1.385 . S
C2085 C2086 1.389 . S
C2086 C2085 1.389 . S
C2086 C2087 1.387 . S
C2087 H2072 0.930 . S
C2087 C2082 1.390 . S
C2087 C2086 1.387 . S
H2088 C2100 0.930 . S
H2089 C2102 0.930 . S
H2090 C2103 0.930 . S
H2091 C2107 0.959 . S
H2092 C2107 0.959 . S
H2093 C2107 0.961 . S
H2094 C2108 0.960 . S
H2095 C2108 0.961 . S
H2096 C2108 0.959 . S
H2097 C2111 0.929 . S
H2098 C2112 0.931 . S
H2099 C2114 0.930 . S
C2100 H2088 0.930 . S
C2100 C2101 1.399 . S
C2100 C2105 1.399 . S
C2101 C2100 1.399 . S
C2101 C2102 1.376 . S
C2102 H2089 0.930 . S
C2102 C2101 1.376 . S
C2102 C2103 1.388 . S
C2103 H2090 0.930 . S
C2103 C2102 1.388 . S
C2103 C2104 1.390 . S
C2104 C2103 1.390 . S
C2104 C2105 1.394 . S
C2104 C2110 1.465 . S
C2105 C2100 1.399 . S
C2105 C2104 1.394 . S
C2105 C2106 1.516 . S
C2106 C2105 1.516 . S
C2106 C2107 1.502 . S
C2106 C2108 1.561 . S
C2106 C2109 1.526 . S
C2107 H2091 0.959 . S
C2107 H2092 0.959 . S
C2107 H2093 0.961 . S
C2107 C2106 1.502 . S
C2108 H2094 0.960 . S
C2108 H2095 0.961 . S
C2108 H2096 0.959 . S
C2108 C2106 1.561 . S
C2109 C2106 1.526 . S
C2109 C2110 1.396 . S
C2109 C2114 1.390 . S
C2110 C2104 1.465 . S
C2110 C2109 1.396 . S
C2110 C2111 1.399 . S
C2111 H2097 0.929 . S
C2111 C2110 1.399 . S
C2111 C2112 1.385 . S
C2112 H2098 0.931 . S
C2112 C2111 1.385 . S
C2112 C2113 1.389 . S
C2113 C2112 1.389 . S
C2113 C2114 1.387 . S
C2114 H2099 0.930 . S
C2114 C2109 1.390 . S
C2114 C2113 1.387 . S
H2115 C2127 0.930 . S
H2116 C2129 0.930 . S
H2117 C2130 0.930 . S
H2118 C2134 0.959 . S
H2119 C2134 0.959 . S
H2120 C2134 0.961 . S
H2121 C2135 0.960 . S
H2122 C2135 0.961 . S
H2123 C2135 0.959 . S
H2124 C2138 0.929 . S
H2125 C2139 0.931 . S
H2126 C2141 0.930 . S
C2127 H2115 0.930 . S
C2127 C2128 1.399 . S
C2127 C2132 1.399 . S
C2128 C2127 1.399 . S
C2128 C2129 1.376 . S
C2129 H2116 0.930 . S
C2129 C2128 1.376 . S
C2129 C2130 1.388 . S
C2130 H2117 0.930 . S
C2130 C2129 1.388 . S
C2130 C2131 1.390 . S
C2131 C2130 1.390 . S
C2131 C2132 1.394 . S
C2131 C2137 1.465 . S
C2132 C2127 1.399 . S
C2132 C2131 1.394 . S
C2132 C2133 1.516 . S
C2133 C2132 1.516 . S
C2133 C2134 1.502 . S
C2133 C2135 1.561 . S
C2133 C2136 1.526 . S
C2134 H2118 0.959 . S
C2134 H2119 0.959 . S
C2134 H2120 0.961 . S
C2134 C2133 1.502 . S
C2135 H2121 0.960 . S
C2135 H2122 0.961 . S
C2135 H2123 0.959 . S
C2135 C2133 1.561 . S
C2136 C2133 1.526 . S
C2136 C2137 1.396 . S
C2136 C2141 1.390 . S
C2137 C2131 1.465 . S
C2137 C2136 1.396 . S
C2137 C2138 1.399 . S
C2138 H2124 0.929 . S
C2138 C2137 1.399 . S
C2138 C2139 1.385 . S
C2139 H2125 0.931 . S
C2139 C2138 1.385 . S
C2139 C2140 1.389 . S
C2140 C2139 1.389 . S
C2140 C2141 1.387 . S
C2141 H2126 0.930 . S
C2141 C2136 1.390 . S
C2141 C2140 1.387 . S
H2142 C2154 0.930 . S
H2143 C2156 0.930 . S
H2144 C2157 0.930 . S
H2145 C2161 0.959 . S
H2146 C2161 0.959 . S
H2147 C2161 0.961 . S
H2148 C2162 0.960 . S
H2149 C2162 0.961 . S
H2150 C2162 0.959 . S
H2151 C2165 0.929 . S
H2152 C2166 0.931 . S
H2153 C2168 0.930 . S
C2154 H2142 0.930 . S
C2154 C2155 1.399 . S
C2154 C2159 1.399 . S
C2155 C2154 1.399 . S
C2155 C2156 1.376 . S
C2156 H2143 0.930 . S
C2156 C2155 1.376 . S
C2156 C2157 1.388 . S
C2157 H2144 0.930 . S
C2157 C2156 1.388 . S
C2157 C2158 1.390 . S
C2158 C2157 1.390 . S
C2158 C2159 1.394 . S
C2158 C2164 1.465 . S
C2159 C2154 1.399 . S
C2159 C2158 1.394 . S
C2159 C2160 1.516 . S
C2160 C2159 1.516 . S
C2160 C2161 1.502 . S
C2160 C2162 1.561 . S
C2160 C2163 1.526 . S
C2161 H2145 0.959 . S
C2161 H2146 0.959 . S
C2161 H2147 0.961 . S
C2161 C2160 1.502 . S
C2162 H2148 0.960 . S
C2162 H2149 0.961 . S
C2162 H2150 0.959 . S
C2162 C2160 1.561 . S
C2163 C2160 1.526 . S
C2163 C2164 1.396 . S
C2163 C2168 1.390 . S
C2164 C2158 1.465 . S
C2164 C2163 1.396 . S
C2164 C2165 1.399 . S
C2165 H2151 0.929 . S
C2165 C2164 1.399 . S
C2165 C2166 1.385 . S
C2166 H2152 0.931 . S
C2166 C2165 1.385 . S
C2166 C2167 1.389 . S
C2167 C2166 1.389 . S
C2167 C2168 1.387 . S
C2168 H2153 0.930 . S
C2168 C2163 1.390 . S
C2168 C2167 1.387 . S
H2169 C2181 0.930 1_554 S
H2170 C2183 0.930 . S
H2171 C2184 0.930 . S
H2172 C2188 0.959 . S
H2173 C2188 0.959 . S
H2174 C2188 0.961 . S
H2175 C2189 0.960 . S
H2176 C2189 0.961 . S
H2177 C2189 0.959 . S
H2178 C2192 0.929 . S
H2179 C2193 0.931 . S
H2180 C2195 0.930 . S
C2181 H2169 0.930 1_556 S
C2181 C2182 1.399 . S
C2181 C2186 1.399 . S
C2182 C2181 1.399 . S
C2182 C2183 1.376 . S
C2183 H2170 0.930 . S
C2183 C2182 1.376 . S
C2183 C2184 1.388 . S
C2184 H2171 0.930 . S
C2184 C2183 1.388 . S
C2184 C2185 1.390 . S
C2185 C2184 1.390 . S
C2185 C2186 1.394 . S
C2185 C2191 1.465 . S
C2186 C2181 1.399 . S
C2186 C2185 1.394 . S
C2186 C2187 1.516 . S
C2187 C2186 1.516 . S
C2187 C2188 1.502 1_556 S
C2187 C2189 1.561 . S
C2187 C2190 1.526 . S
C2188 H2172 0.959 . S
C2188 H2173 0.959 . S
C2188 H2174 0.961 . S
C2188 C2187 1.502 1_554 S
C2189 H2175 0.960 . S
C2189 H2176 0.961 . S
C2189 H2177 0.959 . S
C2189 C2187 1.561 . S
C2190 C2187 1.526 . S
C2190 C2191 1.396 . S
C2190 C2195 1.390 . S
C2191 C2185 1.465 . S
C2191 C2190 1.396 . S
C2191 C2192 1.399 . S
C2192 H2178 0.929 . S
C2192 C2191 1.399 . S
C2192 C2193 1.385 . S
C2193 H2179 0.931 . S
C2193 C2192 1.385 . S
C2193 C2194 1.389 . S
C2194 C2193 1.389 . S
C2194 C2195 1.387 . S
C2195 H2180 0.930 . S
C2195 C2190 1.390 . S
C2195 C2194 1.387 . S
H2196 C2208 0.930 . S
H2197 C2210 0.971 . S
H2198 C2211 0.930 1_554 S
H2199 C2215 0.959 . S
H2200 C2215 0.959 . S
H2201 C2215 0.961 . S
H2202 C2216 0.960 . S
H2203 C2216 0.961 . S
H2204 C2216 0.959 . S
H2205 C2219 0.929 . S
H2206 C2220 0.931 . S
H2207 C2222 0.930 . S
C2208 H2196 0.930 . S
C2208 C2209 1.399 . S
C2208 C2213 1.399 . S
C2209 C2208 1.399 . S
C2209 C2210 1.353 1_556 S
C2210 H2197 0.971 . S
C2210 C2209 1.353 1_554 S
C2210 C2211 1.374 1_554 S
C2211 H2198 0.930 1_556 S
C2211 C2210 1.374 1_556 S
C2211 C2212 1.390 . S
C2212 C2211 1.390 . S
C2212 C2213 1.394 . S
C2212 C2218 1.465 . S
C2213 C2208 1.399 . S
C2213 C2212 1.394 . S
C2213 C2214 1.516 . S
C2214 C2213 1.516 . S
C2214 C2215 1.502 . S
C2214 C2216 1.561 . S
C2214 C2217 1.526 . S
C2215 H2199 0.959 . S
C2215 H2200 0.959 . S
C2215 H2201 0.961 . S
C2215 C2214 1.502 . S
C2216 H2202 0.960 . S
C2216 H2203 0.961 . S
C2216 H2204 0.959 . S
C2216 C2214 1.561 . S
C2217 C2214 1.526 . S
C2217 C2218 1.396 . S
C2217 C2222 1.390 . S
C2218 C2212 1.465 . S
C2218 C2217 1.396 . S
C2218 C2219 1.399 . S
C2219 H2205 0.929 . S
C2219 C2218 1.399 . S
C2219 C2220 1.385 . S
C2220 H2206 0.931 . S
C2220 C2219 1.385 . S
C2220 C2221 1.389 . S
C2221 C2220 1.389 . S
C2221 C2222 1.387 . S
C2222 H2207 0.930 . S
C2222 C2217 1.390 . S
C2222 C2221 1.387 . S
H2223 C2235 0.930 1_554 S
H2224 C2237 0.930 . S
H2225 C2238 0.930 . S
H2226 C2242 0.959 . S
H2227 C2242 0.959 . S
H2228 C2242 0.961 . S
H2229 C2243 0.960 1_554 S
H2230 C2243 0.961 . S
H2231 C2243 0.959 . S
H2232 C2246 0.929 . S
H2233 C2247 0.931 . S
H2234 C2249 0.930 . S
C2235 H2223 0.930 1_556 S
C2235 C2236 1.399 . S
C2235 C2240 1.399 . S
C2236 C2235 1.399 . S
C2236 C2237 1.376 . S
C2237 H2224 0.930 . S
C2237 C2236 1.376 . S
C2237 C2238 1.388 . S
C2238 H2225 0.930 . S
C2238 C2237 1.388 . S
C2238 C2239 1.390 . S
C2239 C2238 1.390 . S
C2239 C2240 1.394 . S
C2239 C2245 1.465 . S
C2240 C2235 1.399 . S
C2240 C2239 1.394 . S
C2240 C2241 1.516 . S
C2241 C2240 1.516 . S
C2241 C2242 1.502 1_556 S
C2241 C2243 1.561 . S
C2241 C2244 1.526 . S
C2242 H2226 0.959 . S
C2242 H2227 0.959 . S
C2242 H2228 0.961 . S
C2242 C2241 1.502 1_554 S
C2243 H2229 0.960 1_556 S
C2243 H2230 0.961 . S
C2243 H2231 0.959 . S
C2243 C2241 1.561 . S
C2244 C2241 1.526 . S
C2244 C2245 1.396 . S
C2244 C2249 1.390 . S
C2245 C2239 1.465 . S
C2245 C2244 1.396 . S
C2245 C2246 1.399 . S
C2246 H2232 0.929 . S
C2246 C2245 1.399 . S
C2246 C2247 1.385 . S
C2247 H2233 0.931 . S
C2247 C2246 1.385 . S
C2247 C2248 1.389 . S
C2248 C2247 1.389 . S
C2248 C2249 1.387 . S
C2249 H2234 0.930 . S
C2249 C2244 1.390 . S
C2249 C2248 1.387 . S
H2250 C2262 0.930 1_554 S
H2251 C2264 0.930 . S
H2252 C2265 0.930 . S
H2253 C2269 0.970 . S
H2254 C2269 0.958 1_556 S
H2255 C2269 0.985 . S
H2256 C2270 0.960 . S
H2257 C2270 0.961 . S
H2258 C2270 0.959 . S
H2259 C2273 0.929 . S
H2260 C2274 0.931 . S
H2261 C2276 0.930 . S
C2262 H2250 0.930 1_556 S
C2262 C2263 1.399 . S
C2262 C2267 1.399 . S
C2263 C2262 1.399 . S
C2263 C2264 1.376 . S
C2264 H2251 0.930 . S
C2264 C2263 1.376 . S
C2264 C2265 1.388 . S
C2265 H2252 0.930 . S
C2265 C2264 1.388 . S
C2265 C2266 1.390 . S
C2266 C2265 1.390 . S
C2266 C2267 1.394 . S
C2266 C2272 1.465 . S
C2267 C2262 1.399 . S
C2267 C2266 1.394 . S
C2267 C2268 1.516 . S
C2268 C2267 1.516 . S
C2268 C2269 1.469 1_556 S
C2268 C2270 1.561 . S
C2268 C2271 1.526 . S
C2269 H2253 0.970 . S
C2269 H2254 0.958 1_554 S
C2269 H2255 0.985 . S
C2269 C2268 1.469 1_554 S
C2270 H2256 0.960 . S
C2270 H2257 0.961 . S
C2270 H2258 0.959 . S
C2270 C2268 1.561 . S
C2271 C2268 1.526 . S
C2271 C2272 1.396 . S
C2271 C2276 1.390 . S
C2272 C2266 1.465 . S
C2272 C2271 1.396 . S
C2272 C2273 1.399 . S
C2273 H2259 0.929 . S
C2273 C2272 1.399 . S
C2273 C2274 1.385 . S
C2274 H2260 0.931 . S
C2274 C2273 1.385 . S
C2274 C2275 1.389 . S
C2275 C2274 1.389 . S
C2275 C2276 1.387 . S
C2276 H2261 0.930 . S
C2276 C2271 1.390 . S
C2276 C2275 1.387 . S
H2277 C2289 0.930 . S
H2278 C2291 0.902 1_554 S
H2279 C2292 0.943 . S
H2280 C2296 0.959 . S
H2281 C2296 0.959 . S
H2282 C2296 0.961 . S
H2283 C2297 0.960 . S
H2284 C2297 0.961 . S
H2285 C2297 0.959 . S
H2286 C2300 0.929 . S
H2287 C2301 0.931 . S
H2288 C2303 0.930 . S
C2289 H2277 0.930 . S
C2289 C2290 1.399 . S
C2289 C2294 1.399 . S
C2290 C2289 1.399 . S
C2290 C2291 1.393 . S
C2291 H2278 0.902 1_556 S
C2291 C2290 1.393 . S
C2291 C2292 1.400 . S
C2292 H2279 0.943 . S
C2292 C2291 1.400 . S
C2292 C2293 1.390 . S
C2293 C2292 1.390 . S
C2293 C2294 1.394 . S
C2293 C2299 1.465 . S
C2294 C2289 1.399 . S
C2294 C2293 1.394 . S
C2294 C2295 1.516 . S
C2295 C2294 1.516 . S
C2295 C2296 1.502 . S
C2295 C2297 1.561 . S
C2295 C2298 1.526 . S
C2296 H2280 0.959 . S
C2296 H2281 0.959 . S
C2296 H2282 0.961 . S
C2296 C2295 1.502 . S
C2297 H2283 0.960 . S
C2297 H2284 0.961 . S
C2297 H2285 0.959 . S
C2297 C2295 1.561 . S
C2298 C2295 1.526 . S
C2298 C2299 1.396 . S
C2298 C2303 1.390 . S
C2299 C2293 1.465 . S
C2299 C2298 1.396 . S
C2299 C2300 1.399 . S
C2300 H2286 0.929 . S
C2300 C2299 1.399 . S
C2300 C2301 1.385 . S
C2301 H2287 0.931 . S
C2301 C2300 1.385 . S
C2301 C2302 1.389 . S
C2302 C2301 1.389 . S
C2302 C2303 1.387 . S
C2303 H2288 0.930 . S
C2303 C2298 1.390 . S
C2303 C2302 1.387 . S
H2304 C2316 0.930 . S
H2305 C2318 0.930 . S
H2306 C2319 0.930 . S
H2307 C2323 0.959 . S
H2308 C2323 0.959 . S
H2309 C2323 0.961 . S
H2310 C2324 0.960 . S
H2311 C2324 0.961 . S
H2312 C2324 0.959 . S
H2313 C2327 0.929 . S
H2314 C2328 0.931 . S
H2315 C2330 0.930 . S
C2316 H2304 0.930 . S
C2316 C2317 1.399 . S
C2316 C2321 1.399 . S
C2317 C2316 1.399 . S
C2317 C2318 1.376 1_556 S
C2318 H2305 0.930 . S
C2318 C2317 1.376 1_554 S
C2318 C2319 1.388 . S
C2319 H2306 0.930 . S
C2319 C2318 1.388 . S
C2319 C2320 1.390 1_554 S
C2320 C2319 1.390 1_556 S
C2320 C2321 1.394 . S
C2320 C2326 1.465 . S
C2321 C2316 1.399 . S
C2321 C2320 1.394 . S
C2321 C2322 1.516 . S
C2322 C2321 1.516 . S
C2322 C2323 1.502 . S
C2322 C2324 1.561 . S
C2322 C2325 1.526 . S
C2323 H2307 0.959 . S
C2323 H2308 0.959 . S
C2323 H2309 0.961 . S
C2323 C2322 1.502 . S
C2324 H2310 0.960 . S
C2324 H2311 0.961 . S
C2324 H2312 0.959 . S
C2324 C2322 1.561 . S
C2325 C2322 1.526 . S
C2325 C2326 1.396 . S
C2325 C2330 1.390 . S
C2326 C2320 1.465 . S
C2326 C2325 1.396 . S
C2326 C2327 1.399 . S
C2327 H2313 0.929 . S
C2327 C2326 1.399 . S
C2327 C2328 1.385 . S
C2328 H2314 0.931 . S
C2328 C2327 1.385 . S
C2328 C2329 1.389 . S
C2329 C2328 1.389 . S
C2329 C2330 1.387 . S
C2330 H2315 0.930 . S
C2330 C2325 1.390 . S
C2330 C2329 1.387 . S
H2331 C2343 0.930 . S
H2332 C2345 0.930 . S
H2333 C2346 0.930 . S
H2334 C2350 0.959 . S
H2335 C2350 0.959 . S
H2336 C2350 0.961 . S
H2337 C2351 0.960 . S
H2338 C2351 0.961 . S
H2339 C2351 0.959 . S
H2340 C2354 0.929 . S
H2341 C2355 0.931 . S
H2342 C2357 0.930 . S
C2343 H2331 0.930 . S
C2343 C2344 1.399 . S
C2343 C2348 1.399 . S
C2344 C2343 1.399 . S
C2344 C2345 1.376 . S
C2345 H2332 0.930 . S
C2345 C2344 1.376 . S
C2345 C2346 1.388 . S
C2346 H2333 0.930 . S
C2346 C2345 1.388 . S
C2346 C2347 1.390 . S
C2347 C2346 1.390 . S
C2347 C2348 1.394 . S
C2347 C2353 1.465 . S
C2348 C2343 1.399 . S
C2348 C2347 1.394 . S
C2348 C2349 1.516 . S
C2349 C2348 1.516 . S
C2349 C2350 1.502 . S
C2349 C2351 1.561 . S
C2349 C2352 1.526 . S
C2350 H2334 0.959 . S
C2350 H2335 0.959 . S
C2350 H2336 0.961 . S
C2350 C2349 1.502 . S
C2351 H2337 0.960 . S
C2351 H2338 0.961 . S
C2351 H2339 0.959 . S
C2351 C2349 1.561 . S
C2352 C2349 1.526 . S
C2352 C2353 1.396 . S
C2352 C2357 1.390 . S
C2353 C2347 1.465 . S
C2353 C2352 1.396 . S
C2353 C2354 1.399 . S
C2354 H2340 0.929 . S
C2354 C2353 1.399 . S
C2354 C2355 1.385 . S
C2355 H2341 0.931 . S
C2355 C2354 1.385 . S
C2355 C2356 1.389 . S
C2356 C2355 1.389 . S
C2356 C2357 1.387 . S
C2357 H2342 0.930 . S
C2357 C2352 1.390 . S
C2357 C2356 1.387 . S
H2358 C2370 0.930 . S
H2359 C2372 0.930 . S
H2360 C2373 0.930 . S
H2361 C2377 0.959 . S
H2362 C2377 0.959 . S
H2363 C2377 0.961 . S
H2364 C2378 0.960 . S
H2365 C2378 0.961 . S
H2366 C2378 0.959 . S
H2367 C2381 0.929 . S
H2368 C2382 0.931 . S
H2369 C2384 0.930 . S
C2370 H2358 0.930 . S
C2370 C2371 1.399 . S
C2370 C2375 1.399 . S
C2371 C2370 1.399 . S
C2371 C2372 1.376 . S
C2372 H2359 0.930 . S
C2372 C2371 1.376 . S
C2372 C2373 1.388 . S
C2373 H2360 0.930 . S
C2373 C2372 1.388 . S
C2373 C2374 1.390 . S
C2374 C2373 1.390 . S
C2374 C2375 1.394 . S
C2374 C2380 1.465 . S
C2375 C2370 1.399 . S
C2375 C2374 1.394 . S
C2375 C2376 1.516 . S
C2376 C2375 1.516 . S
C2376 C2377 1.502 . S
C2376 C2378 1.561 . S
C2376 C2379 1.526 . S
C2377 H2361 0.959 . S
C2377 H2362 0.959 . S
C2377 H2363 0.961 . S
C2377 C2376 1.502 . S
C2378 H2364 0.960 . S
C2378 H2365 0.961 . S
C2378 H2366 0.959 . S
C2378 C2376 1.561 . S
C2379 C2376 1.526 . S
C2379 C2380 1.396 . S
C2379 C2384 1.390 . S
C2380 C2374 1.465 . S
C2380 C2379 1.396 . S
C2380 C2381 1.399 . S
C2381 H2367 0.929 . S
C2381 C2380 1.399 . S
C2381 C2382 1.385 . S
C2382 H2368 0.931 . S
C2382 C2381 1.385 . S
C2382 C2383 1.389 . S
C2383 C2382 1.389 . S
C2383 C2384 1.387 . S
C2384 H2369 0.930 . S
C2384 C2379 1.390 . S
C2384 C2383 1.387 . S
H2385 C2397 0.930 . S
H2386 C2399 0.930 . S
H2387 C2400 0.930 . S
H2388 C2404 0.959 . S
H2389 C2404 0.959 . S
H2390 C2404 0.961 . S
H2391 C2405 0.960 . S
H2392 C2405 0.961 . S
H2393 C2405 0.959 . S
H2394 C2408 0.929 . S
H2395 C2409 0.931 . S
H2396 C2411 0.930 . S
C2397 H2385 0.930 . S
C2397 C2398 1.399 . S
C2397 C2402 1.399 . S
C2398 C2397 1.399 . S
C2398 C2399 1.376 . S
C2399 H2386 0.930 . S
C2399 C2398 1.376 . S
C2399 C2400 1.388 . S
C2400 H2387 0.930 . S
C2400 C2399 1.388 . S
C2400 C2401 1.390 . S
C2401 C2400 1.390 . S
C2401 C2402 1.394 . S
C2401 C2407 1.465 . S
C2402 C2397 1.399 . S
C2402 C2401 1.394 . S
C2402 C2403 1.516 . S
C2403 C2402 1.516 . S
C2403 C2404 1.502 . S
C2403 C2405 1.561 . S
C2403 C2406 1.526 . S
C2404 H2388 0.959 . S
C2404 H2389 0.959 . S
C2404 H2390 0.961 . S
C2404 C2403 1.502 . S
C2405 H2391 0.960 . S
C2405 H2392 0.961 . S
C2405 H2393 0.959 . S
C2405 C2403 1.561 . S
C2406 C2403 1.526 . S
C2406 C2407 1.396 . S
C2406 C2411 1.390 . S
C2407 C2401 1.465 . S
C2407 C2406 1.396 . S
C2407 C2408 1.399 . S
C2408 H2394 0.929 . S
C2408 C2407 1.399 . S
C2408 C2409 1.385 . S
C2409 H2395 0.931 . S
C2409 C2408 1.385 . S
C2409 C2410 1.389 . S
C2410 C2409 1.389 . S
C2410 C2411 1.387 . S
C2411 H2396 0.930 . S
C2411 C2406 1.390 . S
C2411 C2410 1.387 . S
H2412 C2424 0.930 . S
H2413 C2426 0.930 . S
H2414 C2427 0.930 . S
H2415 C2431 0.959 . S
H2416 C2431 0.959 . S
H2417 C2431 0.961 . S
H2418 C2432 0.960 . S
H2419 C2432 0.961 . S
H2420 C2432 0.959 . S
H2421 C2435 0.929 . S
H2422 C2436 0.931 . S
H2423 C2438 0.930 . S
C2424 H2412 0.930 . S
C2424 C2425 1.399 . S
C2424 C2429 1.399 . S
C2425 C2424 1.399 . S
C2425 C2426 1.376 . S
C2426 H2413 0.930 . S
C2426 C2425 1.376 . S
C2426 C2427 1.388 . S
C2427 H2414 0.930 . S
C2427 C2426 1.388 . S
C2427 C2428 1.390 . S
C2428 C2427 1.390 . S
C2428 C2429 1.394 . S
C2428 C2434 1.465 . S
C2429 C2424 1.399 . S
C2429 C2428 1.394 . S
C2429 C2430 1.516 . S
C2430 C2429 1.516 . S
C2430 C2431 1.502 . S
C2430 C2432 1.561 . S
C2430 C2433 1.526 . S
C2431 H2415 0.959 . S
C2431 H2416 0.959 . S
C2431 H2417 0.961 . S
C2431 C2430 1.502 . S
C2432 H2418 0.960 . S
C2432 H2419 0.961 . S
C2432 H2420 0.959 . S
C2432 C2430 1.561 . S
C2433 C2430 1.526 . S
C2433 C2434 1.396 . S
C2433 C2438 1.390 . S
C2434 C2428 1.465 . S
C2434 C2433 1.396 . S
C2434 C2435 1.399 . S
C2435 H2421 0.929 . S
C2435 C2434 1.399 . S
C2435 C2436 1.385 . S
C2436 H2422 0.931 . S
C2436 C2435 1.385 . S
C2436 C2437 1.389 . S
C2437 C2436 1.389 . S
C2437 C2438 1.387 . S
C2438 H2423 0.930 . S
C2438 C2433 1.390 . S
C2438 C2437 1.387 . S
H2439 C2451 0.930 . S
H2440 C2453 0.930 . S
H2441 C2454 0.930 . S
H2442 C2458 0.959 . S
H2443 C2458 0.959 . S
H2444 C2458 0.961 . S
H2445 C2459 0.960 . S
H2446 C2459 0.961 . S
H2447 C2459 0.959 . S
H2448 C2462 0.929 . S
H2449 C2463 0.931 . S
H2450 C2465 0.930 . S
C2451 H2439 0.930 . S
C2451 C2452 1.399 . S
C2451 C2456 1.399 . S
C2452 C2451 1.399 . S
C2452 C2453 1.376 . S
C2453 H2440 0.930 . S
C2453 C2452 1.376 . S
C2453 C2454 1.388 . S
C2454 H2441 0.930 . S
C2454 C2453 1.388 . S
C2454 C2455 1.390 . S
C2455 C2454 1.390 . S
C2455 C2456 1.394 . S
C2455 C2461 1.465 . S
C2456 C2451 1.399 . S
C2456 C2455 1.394 . S
C2456 C2457 1.516 . S
C2457 C2456 1.516 . S
C2457 C2458 1.502 . S
C2457 C2459 1.561 . S
C2457 C2460 1.526 . S
C2458 H2442 0.959 . S
C2458 H2443 0.959 . S
C2458 H2444 0.961 . S
C2458 C2457 1.502 . S
C2459 H2445 0.960 . S
C2459 H2446 0.961 . S
C2459 H2447 0.959 . S
C2459 C2457 1.561 . S
C2460 C2457 1.526 . S
C2460 C2461 1.396 . S
C2460 C2465 1.390 . S
C2461 C2455 1.465 . S
C2461 C2460 1.396 . S
C2461 C2462 1.399 . S
C2462 H2448 0.929 . S
C2462 C2461 1.399 . S
C2462 C2463 1.385 . S
C2463 H2449 0.931 . S
C2463 C2462 1.385 . S
C2463 C2464 1.389 . S
C2464 C2463 1.389 . S
C2464 C2465 1.387 . S
C2465 H2450 0.930 . S
C2465 C2460 1.390 . S
C2465 C2464 1.387 . S
H2466 C2478 0.930 . S
H2467 C2480 0.930 . S
H2468 C2481 0.930 . S
H2469 C2485 0.959 . S
H2470 C2485 0.959 . S
H2471 C2485 0.961 . S
H2472 C2486 0.960 . S
H2473 C2486 0.961 . S
H2474 C2486 0.959 . S
H2475 C2489 0.929 . S
H2476 C2490 0.931 . S
H2477 C2492 0.930 . S
C2478 H2466 0.930 . S
C2478 C2479 1.399 . S
C2478 C2483 1.399 . S
C2479 C2478 1.399 . S
C2479 C2480 1.376 . S
C2480 H2467 0.930 . S
C2480 C2479 1.376 . S
C2480 C2481 1.388 . S
C2481 H2468 0.930 . S
C2481 C2480 1.388 . S
C2481 C2482 1.390 . S
C2482 C2481 1.390 . S
C2482 C2483 1.394 . S
C2482 C2488 1.465 . S
C2483 C2478 1.399 . S
C2483 C2482 1.394 . S
C2483 C2484 1.516 . S
C2484 C2483 1.516 . S
C2484 C2485 1.502 . S
C2484 C2486 1.561 . S
C2484 C2487 1.526 . S
C2485 H2469 0.959 . S
C2485 H2470 0.959 . S
C2485 H2471 0.961 . S
C2485 C2484 1.502 . S
C2486 H2472 0.960 . S
C2486 H2473 0.961 . S
C2486 H2474 0.959 . S
C2486 C2484 1.561 . S
C2487 C2484 1.526 . S
C2487 C2488 1.396 . S
C2487 C2492 1.390 . S
C2488 C2482 1.465 . S
C2488 C2487 1.396 . S
C2488 C2489 1.399 . S
C2489 H2475 0.929 . S
C2489 C2488 1.399 . S
C2489 C2490 1.385 . S
C2490 H2476 0.931 . S
C2490 C2489 1.385 . S
C2490 C2491 1.389 . S
C2491 C2490 1.389 . S
C2491 C2492 1.387 . S
C2492 H2477 0.930 . S
C2492 C2487 1.390 . S
C2492 C2491 1.387 . S
H2493 C2505 0.929 . S
H2494 C2507 0.930 . S
H2495 C2508 0.930 . S
H2496 C2512 0.959 . S
H2497 C2512 0.959 . S
H2498 C2512 0.961 . S
H2499 C2513 0.960 . S
H2500 C2513 1.008 . S
H2501 C2513 0.959 . S
H2502 C2516 0.929 . S
H2503 C2517 0.931 . S
H2504 C2519 0.978 . S
C2505 H2493 0.929 . S
C2505 C2506 1.399 . S
C2505 C2510 1.399 . S
C2506 C2505 1.399 . S
C2506 C2507 1.376 . S
C2507 H2494 0.930 . S
C2507 C2506 1.376 . S
C2507 C2508 1.388 . S
C2508 H2495 0.930 . S
C2508 C2507 1.388 . S
C2508 C2509 1.390 . S
C2509 C2508 1.390 . S
C2509 C2510 1.394 . S
C2509 C2515 1.465 . S
C2510 C2505 1.399 . S
C2510 C2509 1.394 . S
C2510 C2511 1.516 1_455 S
C2511 C2510 1.516 1_655 S
C2511 C2512 1.502 . S
C2511 C2513 1.561 1_655 S
C2511 C2514 1.526 1_655 S
C2512 H2496 0.959 . S
C2512 H2497 0.959 . S
C2512 H2498 0.961 . S
C2512 C2511 1.502 . S
C2513 H2499 0.960 . S
C2513 H2500 1.008 . S
C2513 H2501 0.959 . S
C2513 C2511 1.561 1_455 S
C2514 C2511 1.526 1_455 S
C2514 C2515 1.396 . S
C2514 C2519 1.349 1_455 S
C2515 C2509 1.465 . S
C2515 C2514 1.396 . S
C2515 C2516 1.399 . S
C2516 H2502 0.929 . S
C2516 C2515 1.399 . S
C2516 C2517 1.385 . S
C2517 H2503 0.931 . S
C2517 C2516 1.385 . S
C2517 C2518 1.389 . S
C2518 C2517 1.389 . S
C2518 C2519 1.380 1_455 S
C2519 H2504 0.978 . S
C2519 C2514 1.349 1_655 S
C2519 C2518 1.380 1_655 S
H2520 C2532 0.930 . S
H2521 C2534 0.930 . S
H2522 C2535 0.930 . S
H2523 C2539 0.959 . S
H2524 C2539 0.959 . S
H2525 C2539 0.961 . S
H2526 C2540 0.960 . S
H2527 C2540 0.961 . S
H2528 C2540 0.959 . S
H2529 C2543 0.929 . S
H2530 C2544 0.931 . S
H2531 C2546 0.930 . S
C2532 H2520 0.930 . S
C2532 C2533 1.399 . S
C2532 C2537 1.399 . S
C2533 C2532 1.399 . S
C2533 C2534 1.376 . S
C2534 H2521 0.930 . S
C2534 C2533 1.376 . S
C2534 C2535 1.388 . S
C2535 H2522 0.930 . S
C2535 C2534 1.388 . S
C2535 C2536 1.390 . S
C2536 C2535 1.390 . S
C2536 C2537 1.394 . S
C2536 C2542 1.465 . S
C2537 C2532 1.399 . S
C2537 C2536 1.394 . S
C2537 C2538 1.516 . S
C2538 C2537 1.516 . S
C2538 C2539 1.502 . S
C2538 C2540 1.561 . S
C2538 C2541 1.526 . S
C2539 H2523 0.959 . S
C2539 H2524 0.959 . S
C2539 H2525 0.961 . S
C2539 C2538 1.502 . S
C2540 H2526 0.960 . S
C2540 H2527 0.961 . S
C2540 H2528 0.959 . S
C2540 C2538 1.561 . S
C2541 C2538 1.526 . S
C2541 C2542 1.396 . S
C2541 C2546 1.390 . S
C2542 C2536 1.465 . S
C2542 C2541 1.396 . S
C2542 C2543 1.399 . S
C2543 H2529 0.929 . S
C2543 C2542 1.399 . S
C2543 C2544 1.385 . S
C2544 H2530 0.931 . S
C2544 C2543 1.385 . S
C2544 C2545 1.389 . S
C2545 C2544 1.389 . S
C2545 C2546 1.387 . S
C2546 H2531 0.930 . S
C2546 C2541 1.390 . S
C2546 C2545 1.387 . S
H2547 C2559 0.912 1_545 S
H2548 C2561 0.930 . S
H2549 C2562 0.930 . S
H2550 C2566 0.959 . S
H2551 C2566 0.959 1_545 S
H2552 C2566 0.948 1_545 S
H2553 C2567 0.960 . S
H2554 C2567 0.961 . S
H2555 C2567 0.959 . S
H2556 C2570 0.929 . S
H2557 C2571 0.931 . S
H2558 C2573 0.930 . S
C2559 H2547 0.912 1_565 S
C2559 C2560 1.399 . S
C2559 C2564 1.399 . S
C2560 C2559 1.399 . S
C2560 C2561 1.376 . S
C2561 H2548 0.930 . S
C2561 C2560 1.376 . S
C2561 C2562 1.388 . S
C2562 H2549 0.930 . S
C2562 C2561 1.388 . S
C2562 C2563 1.390 . S
C2563 C2562 1.390 . S
C2563 C2564 1.394 . S
C2563 C2569 1.465 . S
C2564 C2559 1.399 . S
C2564 C2563 1.394 . S
C2564 C2565 1.516 1_565 S
C2565 C2564 1.516 1_545 S
C2565 C2566 1.502 1_545 S
C2565 C2567 1.561 . S
C2565 C2568 1.493 1_545 S
C2566 H2550 0.959 . S
C2566 H2551 0.959 1_565 S
C2566 H2552 0.948 1_565 S
C2566 C2565 1.502 1_565 S
C2567 H2553 0.960 . S
C2567 H2554 0.961 . S
C2567 H2555 0.959 . S
C2567 C2565 1.561 . S
C2568 C2565 1.493 1_565 S
C2568 C2569 1.418 . S
C2568 C2573 1.403 1_565 S
C2569 C2563 1.465 . S
C2569 C2568 1.418 . S
C2569 C2570 1.399 . S
C2570 H2556 0.929 . S
C2570 C2569 1.399 . S
C2570 C2571 1.385 . S
C2571 H2557 0.931 . S
C2571 C2570 1.385 . S
C2571 C2572 1.389 . S
C2572 C2571 1.389 . S
C2572 C2573 1.387 1_565 S
C2573 H2558 0.930 . S
C2573 C2568 1.403 1_545 S
C2573 C2572 1.387 1_545 S
H2574 C2586 0.930 . S
H2575 C2588 0.930 . S
H2576 C2589 0.930 . S
H2577 C2593 0.959 . S
H2578 C2593 0.959 . S
H2579 C2593 0.961 . S
H2580 C2594 0.960 . S
H2581 C2594 0.961 . S
H2582 C2594 0.959 . S
H2583 C2597 0.929 . S
H2584 C2598 0.931 . S
H2585 C2600 0.930 . S
C2586 H2574 0.930 . S
C2586 C2587 1.399 . S
C2586 C2591 1.399 . S
C2587 C2586 1.399 . S
C2587 C2588 1.376 1_565 S
C2588 H2575 0.930 . S
C2588 C2587 1.376 1_545 S
C2588 C2589 1.388 . S
C2589 H2576 0.930 . S
C2589 C2588 1.388 . S
C2589 C2590 1.390 1_545 S
C2590 C2589 1.390 1_565 S
C2590 C2591 1.394 . S
C2590 C2596 1.474 . S
C2591 C2586 1.399 . S
C2591 C2590 1.394 . S
C2591 C2592 1.516 . S
C2592 C2591 1.516 . S
C2592 C2593 1.502 . S
C2592 C2594 1.561 . S
C2592 C2595 1.526 . S
C2593 H2577 0.959 . S
C2593 H2578 0.959 . S
C2593 H2579 0.961 . S
C2593 C2592 1.502 . S
C2594 H2580 0.960 . S
C2594 H2581 0.961 . S
C2594 H2582 0.959 . S
C2594 C2592 1.561 . S
C2595 C2592 1.526 . S
C2595 C2596 1.406 . S
C2595 C2600 1.390 . S
C2596 C2590 1.474 . S
C2596 C2595 1.406 . S
C2596 C2597 1.383 1_565 S
C2597 H2583 0.929 . S
C2597 C2596 1.383 1_545 S
C2597 C2598 1.385 . S
C2598 H2584 0.931 . S
C2598 C2597 1.385 . S
C2598 C2599 1.389 1_545 S
C2599 C2598 1.389 1_565 S
C2599 C2600 1.387 . S
C2600 H2585 0.930 . S
C2600 C2595 1.390 . S
C2600 C2599 1.387 . S
H2601 C2613 0.930 . S
H2602 C2615 0.930 . S
H2603 C2616 0.930 . S
H2604 C2620 0.959 . S
H2605 C2620 0.959 . S
H2606 C2620 0.961 . S
H2607 C2621 0.960 . S
H2608 C2621 0.961 . S
H2609 C2621 0.959 . S
H2610 C2624 0.929 . S
H2611 C2625 0.931 . S
H2612 C2627 0.930 . S
C2613 H2601 0.930 . S
C2613 C2614 1.399 . S
C2613 C2618 1.399 . S
C2614 C2613 1.399 . S
C2614 C2615 1.376 . S
C2615 H2602 0.930 . S
C2615 C2614 1.376 . S
C2615 C2616 1.388 . S
C2616 H2603 0.930 . S
C2616 C2615 1.388 . S
C2616 C2617 1.390 . S
C2617 C2616 1.390 . S
C2617 C2618 1.394 . S
C2617 C2623 1.465 . S
C2618 C2613 1.399 . S
C2618 C2617 1.394 . S
C2618 C2619 1.516 . S
C2619 C2618 1.516 . S
C2619 C2620 1.502 1_455 S
C2619 C2621 1.561 . S
C2619 C2622 1.526 . S
C2620 H2604 0.959 . S
C2620 H2605 0.959 . S
C2620 H2606 0.961 . S
C2620 C2619 1.502 1_655 S
C2621 H2607 0.960 . S
C2621 H2608 0.961 . S
C2621 H2609 0.959 . S
C2621 C2619 1.561 . S
C2622 C2619 1.526 . S
C2622 C2623 1.396 . S
C2622 C2627 1.390 . S
C2623 C2617 1.465 . S
C2623 C2622 1.396 . S
C2623 C2624 1.399 . S
C2624 H2610 0.929 . S
C2624 C2623 1.399 . S
C2624 C2625 1.385 . S
C2625 H2611 0.931 . S
C2625 C2624 1.385 . S
C2625 C2626 1.389 . S
C2626 C2625 1.389 . S
C2626 C2627 1.387 . S
C2627 H2612 0.930 . S
C2627 C2622 1.390 . S
C2627 C2626 1.387 . S
H2628 C2640 0.930 . S
H2629 C2642 0.930 . S
H2630 C2643 0.930 . S
H2631 C2647 0.959 . S
H2632 C2647 0.959 . S
H2633 C2647 0.961 . S
H2634 C2648 0.960 . S
H2635 C2648 0.961 . S
H2636 C2648 0.959 . S
H2637 C2651 0.929 . S
H2638 C2652 0.931 . S
H2639 C2654 0.930 . S
C2640 H2628 0.930 . S
C2640 C2641 1.399 . S
C2640 C2645 1.399 . S
C2641 C2640 1.399 . S
C2641 C2642 1.376 . S
C2642 H2629 0.930 . S
C2642 C2641 1.376 . S
C2642 C2643 1.388 . S
C2643 H2630 0.930 . S
C2643 C2642 1.388 . S
C2643 C2644 1.390 . S
C2644 C2643 1.390 . S
C2644 C2645 1.394 . S
C2644 C2650 1.465 . S
C2645 C2640 1.399 . S
C2645 C2644 1.394 . S
C2645 C2646 1.516 . S
C2646 C2645 1.516 . S
C2646 C2647 1.502 . S
C2646 C2648 1.561 . S
C2646 C2649 1.526 . S
C2647 H2631 0.959 . S
C2647 H2632 0.959 . S
C2647 H2633 0.961 . S
C2647 C2646 1.502 . S
C2648 H2634 0.960 . S
C2648 H2635 0.961 . S
C2648 H2636 0.959 . S
C2648 C2646 1.561 . S
C2649 C2646 1.526 . S
C2649 C2650 1.396 . S
C2649 C2654 1.390 . S
C2650 C2644 1.465 . S
C2650 C2649 1.396 . S
C2650 C2651 1.399 . S
C2651 H2637 0.929 . S
C2651 C2650 1.399 . S
C2651 C2652 1.385 . S
C2652 H2638 0.931 . S
C2652 C2651 1.385 . S
C2652 C2653 1.389 . S
C2653 C2652 1.389 . S
C2653 C2654 1.387 . S
C2654 H2639 0.930 . S
C2654 C2649 1.390 . S
C2654 C2653 1.387 . S
H2655 C2667 0.930 . S
H2656 C2669 0.930 . S
H2657 C2670 0.930 . S
H2658 C2674 0.959 . S
H2659 C2674 0.959 . S
H2660 C2674 0.961 . S
H2661 C2675 0.960 . S
H2662 C2675 0.961 . S
H2663 C2675 0.959 . S
H2664 C2678 0.929 . S
H2665 C2679 0.931 . S
H2666 C2681 0.930 . S
C2667 H2655 0.930 . S
C2667 C2668 1.399 . S
C2667 C2672 1.399 . S
C2668 C2667 1.399 . S
C2668 C2669 1.376 . S
C2669 H2656 0.930 . S
C2669 C2668 1.376 . S
C2669 C2670 1.388 . S
C2670 H2657 0.930 . S
C2670 C2669 1.388 . S
C2670 C2671 1.390 . S
C2671 C2670 1.390 . S
C2671 C2672 1.394 . S
C2671 C2677 1.465 . S
C2672 C2667 1.399 . S
C2672 C2671 1.394 . S
C2672 C2673 1.516 . S
C2673 C2672 1.516 . S
C2673 C2674 1.502 . S
C2673 C2675 1.561 . S
C2673 C2676 1.526 . S
C2674 H2658 0.959 . S
C2674 H2659 0.959 . S
C2674 H2660 0.961 . S
C2674 C2673 1.502 . S
C2675 H2661 0.960 . S
C2675 H2662 0.961 . S
C2675 H2663 0.959 . S
C2675 C2673 1.561 . S
C2676 C2673 1.526 . S
C2676 C2677 1.396 . S
C2676 C2681 1.390 . S
C2677 C2671 1.465 . S
C2677 C2676 1.396 . S
C2677 C2678 1.399 . S
C2678 H2664 0.929 . S
C2678 C2677 1.399 . S
C2678 C2679 1.385 . S
C2679 H2665 0.931 . S
C2679 C2678 1.385 . S
C2679 C2680 1.389 . S
C2680 C2679 1.389 . S
C2680 C2681 1.387 . S
C2681 H2666 0.930 . S
C2681 C2676 1.390 . S
C2681 C2680 1.387 . S
H2682 C2694 0.930 . S
H2683 C2696 0.930 . S
H2684 C2697 0.930 . S
H2685 C2701 0.959 . S
H2686 C2701 0.959 . S
H2687 C2701 0.961 . S
H2688 C2702 0.960 . S
H2689 C2702 0.961 . S
H2690 C2702 0.959 . S
H2691 C2705 0.929 . S
H2692 C2706 0.931 . S
H2693 C2708 0.930 . S
C2694 H2682 0.930 . S
C2694 C2695 1.399 . S
C2694 C2699 1.399 . S
C2695 C2694 1.399 . S
C2695 C2696 1.376 . S
C2696 H2683 0.930 . S
C2696 C2695 1.376 . S
C2696 C2697 1.388 . S
C2697 H2684 0.930 . S
C2697 C2696 1.388 . S
C2697 C2698 1.390 . S
C2698 C2697 1.390 . S
C2698 C2699 1.394 . S
C2698 C2704 1.465 . S
C2699 C2694 1.399 . S
C2699 C2698 1.394 . S
C2699 C2700 1.516 . S
C2700 C2699 1.516 . S
C2700 C2701 1.502 . S
C2700 C2702 1.561 . S
C2700 C2703 1.526 . S
C2701 H2685 0.959 . S
C2701 H2686 0.959 . S
C2701 H2687 0.961 . S
C2701 C2700 1.502 . S
C2702 H2688 0.960 . S
C2702 H2689 0.961 . S
C2702 H2690 0.959 . S
C2702 C2700 1.561 . S
C2703 C2700 1.526 . S
C2703 C2704 1.396 . S
C2703 C2708 1.390 . S
C2704 C2698 1.465 . S
C2704 C2703 1.396 . S
C2704 C2705 1.399 . S
C2705 H2691 0.929 . S
C2705 C2704 1.399 . S
C2705 C2706 1.385 . S
C2706 H2692 0.931 . S
C2706 C2705 1.385 . S
C2706 C2707 1.389 . S
C2707 C2706 1.389 . S
C2707 C2708 1.387 . S
C2708 H2693 0.930 . S
C2708 C2703 1.390 . S
C2708 C2707 1.387 . S
H2709 C2721 0.930 . S
H2710 C2723 0.930 . S
H2711 C2724 0.930 . S
H2712 C2728 0.959 . S
H2713 C2728 0.959 . S
H2714 C2728 0.961 . S
H2715 C2729 0.960 . S
H2716 C2729 0.961 . S
H2717 C2729 0.959 . S
H2718 C2732 0.929 . S
H2719 C2733 0.931 . S
H2720 C2735 0.930 . S
C2721 H2709 0.930 . S
C2721 C2722 1.399 . S
C2721 C2726 1.399 . S
C2722 C2721 1.399 . S
C2722 C2723 1.376 . S
C2723 H2710 0.930 . S
C2723 C2722 1.376 . S
C2723 C2724 1.388 . S
C2724 H2711 0.930 . S
C2724 C2723 1.388 . S
C2724 C2725 1.390 . S
C2725 C2724 1.390 . S
C2725 C2726 1.394 . S
C2725 C2731 1.465 . S
C2726 C2721 1.399 . S
C2726 C2725 1.394 . S
C2726 C2727 1.516 . S
C2727 C2726 1.516 . S
C2727 C2728 1.502 . S
C2727 C2729 1.561 . S
C2727 C2730 1.526 . S
C2728 H2712 0.959 . S
C2728 H2713 0.959 . S
C2728 H2714 0.961 . S
C2728 C2727 1.502 . S
C2729 H2715 0.960 . S
C2729 H2716 0.961 . S
C2729 H2717 0.959 . S
C2729 C2727 1.561 . S
C2730 C2727 1.526 . S
C2730 C2731 1.396 . S
C2730 C2735 1.390 . S
C2731 C2725 1.465 . S
C2731 C2730 1.396 . S
C2731 C2732 1.399 . S
C2732 H2718 0.929 . S
C2732 C2731 1.399 . S
C2732 C2733 1.385 . S
C2733 H2719 0.931 . S
C2733 C2732 1.385 . S
C2733 C2734 1.389 . S
C2734 C2733 1.389 . S
C2734 C2735 1.387 . S
C2735 H2720 0.930 . S
C2735 C2730 1.390 . S
C2735 C2734 1.387 . S
H2736 C2748 0.930 . S
H2737 C2750 0.930 . S
H2738 C2751 0.930 . S
H2739 C2755 0.959 . S
H2740 C2755 0.959 . S
H2741 C2755 0.961 . S
H2742 C2756 0.960 . S
H2743 C2756 0.961 . S
H2744 C2756 0.959 . S
H2745 C2759 0.929 . S
H2746 C2760 0.931 . S
H2747 C2762 0.930 . S
C2748 H2736 0.930 . S
C2748 C2749 1.399 . S
C2748 C2753 1.399 . S
C2749 C2748 1.399 . S
C2749 C2750 1.376 1_545 S
C2750 H2737 0.930 . S
C2750 C2749 1.376 1_565 S
C2750 C2751 1.388 . S
C2751 H2738 0.930 . S
C2751 C2750 1.388 . S
C2751 C2752 1.390 1_565 S
C2752 C2751 1.390 1_545 S
C2752 C2753 1.394 . S
C2752 C2758 1.465 . S
C2753 C2748 1.399 . S
C2753 C2752 1.394 . S
C2753 C2754 1.516 . S
C2754 C2753 1.516 . S
C2754 C2755 1.502 . S
C2754 C2756 1.561 . S
C2754 C2757 1.526 . S
C2755 H2739 0.959 . S
C2755 H2740 0.959 . S
C2755 H2741 0.961 . S
C2755 C2754 1.502 . S
C2756 H2742 0.960 . S
C2756 H2743 0.961 . S
C2756 H2744 0.959 . S
C2756 C2754 1.561 . S
C2757 C2754 1.526 . S
C2757 C2758 1.396 . S
C2757 C2762 1.390 . S
C2758 C2752 1.465 . S
C2758 C2757 1.396 . S
C2758 C2759 1.399 1_545 S
C2759 H2745 0.929 . S
C2759 C2758 1.399 1_565 S
C2759 C2760 1.385 . S
C2760 H2746 0.931 . S
C2760 C2759 1.385 . S
C2760 C2761 1.389 1_565 S
C2761 C2760 1.389 1_545 S
C2761 C2762 1.387 . S
C2762 H2747 0.930 . S
C2762 C2757 1.390 . S
C2762 C2761 1.387 . S
H2763 C2775 0.930 . S
H2764 C2777 0.939 . S
H2765 C2778 0.930 . S
H2766 C2782 0.959 . S
H2767 C2782 0.959 . S
H2768 C2782 0.961 . S
H2769 C2783 0.960 . S
H2770 C2783 0.961 . S
H2771 C2783 0.959 1_455 S
H2772 C2786 0.929 . S
H2773 C2787 0.931 . S
H2774 C2789 0.930 . S
C2775 H2763 0.930 . S
C2775 C2776 1.399 . S
C2775 C2780 1.399 . S
C2776 C2775 1.399 . S
C2776 C2777 1.374 1_655 S
C2777 H2764 0.939 . S
C2777 C2776 1.374 1_455 S
C2777 C2778 1.383 . S
C2778 H2765 0.930 . S
C2778 C2777 1.383 . S
C2778 C2779 1.390 1_455 S
C2779 C2778 1.390 1_655 S
C2779 C2780 1.394 . S
C2779 C2785 1.451 . S
C2780 C2775 1.399 . S
C2780 C2779 1.394 . S
C2780 C2781 1.516 . S
C2781 C2780 1.516 . S
C2781 C2782 1.502 . S
C2781 C2783 1.561 . S
C2781 C2784 1.526 . S
C2782 H2766 0.959 . S
C2782 H2767 0.959 . S
C2782 H2768 0.961 . S
C2782 C2781 1.502 . S
C2783 H2769 0.960 . S
C2783 H2770 0.961 . S
C2783 H2771 0.959 1_655 S
C2783 C2781 1.561 . S
C2784 C2781 1.526 . S
C2784 C2785 1.410 . S
C2784 C2789 1.390 . S
C2785 C2779 1.451 . S
C2785 C2784 1.410 . S
C2785 C2786 1.401 1_655 S
C2786 H2772 0.929 . S
C2786 C2785 1.401 1_455 S
C2786 C2787 1.385 . S
C2787 H2773 0.931 . S
C2787 C2786 1.385 . S
C2787 C2788 1.389 1_455 S
C2788 C2787 1.389 1_655 S
C2788 C2789 1.387 . S
C2789 H2774 0.930 . S
C2789 C2784 1.390 . S
C2789 C2788 1.387 . S
H2790 C2802 0.930 . S
H2791 C2804 0.930 . S
H2792 C2805 0.930 . S
H2793 C2809 0.959 . S
H2794 C2809 0.959 . S
H2795 C2809 0.961 . S
H2796 C2810 0.960 . S
H2797 C2810 0.961 . S
H2798 C2810 0.959 . S
H2799 C2813 0.929 . S
H2800 C2814 0.931 . S
H2801 C2816 0.930 . S
C2802 H2790 0.930 . S
C2802 C2803 1.399 . S
C2802 C2807 1.399 . S
C2803 C2802 1.399 . S
C2803 C2804 1.376 . S
C2804 H2791 0.930 . S
C2804 C2803 1.376 . S
C2804 C2805 1.388 . S
C2805 H2792 0.930 . S
C2805 C2804 1.388 . S
C2805 C2806 1.390 . S
C2806 C2805 1.390 . S
C2806 C2807 1.394 . S
C2806 C2812 1.465 . S
C2807 C2802 1.399 . S
C2807 C2806 1.394 . S
C2807 C2808 1.516 . S
C2808 C2807 1.516 . S
C2808 C2809 1.502 . S
C2808 C2810 1.561 . S
C2808 C2811 1.526 . S
C2809 H2793 0.959 . S
C2809 H2794 0.959 . S
C2809 H2795 0.961 . S
C2809 C2808 1.502 . S
C2810 H2796 0.960 . S
C2810 H2797 0.961 . S
C2810 H2798 0.959 . S
C2810 C2808 1.561 . S
C2811 C2808 1.526 . S
C2811 C2812 1.396 . S
C2811 C2816 1.390 . S
C2812 C2806 1.465 . S
C2812 C2811 1.396 . S
C2812 C2813 1.399 . S
C2813 H2799 0.929 . S
C2813 C2812 1.399 . S
C2813 C2814 1.385 . S
C2814 H2800 0.931 . S
C2814 C2813 1.385 . S
C2814 C2815 1.389 . S
C2815 C2814 1.389 . S
C2815 C2816 1.387 . S
C2816 H2801 0.930 . S
C2816 C2811 1.390 . S
C2816 C2815 1.387 . S
H2817 C2829 0.930 . S
H2818 C2831 0.930 . S
H2819 C2832 0.930 . S
H2820 C2836 0.959 . S
H2821 C2836 0.959 . S
H2822 C2836 0.961 . S
H2823 C2837 0.960 . S
H2824 C2837 0.961 . S
H2825 C2837 0.959 . S
H2826 C2840 0.929 . S
H2827 C2841 0.931 . S
H2828 C2843 0.930 . S
C2829 H2817 0.930 . S
C2829 C2830 1.399 . S
C2829 C2834 1.399 . S
C2830 C2829 1.399 . S
C2830 C2831 1.376 . S
C2831 H2818 0.930 . S
C2831 C2830 1.376 . S
C2831 C2832 1.388 . S
C2832 H2819 0.930 . S
C2832 C2831 1.388 . S
C2832 C2833 1.390 . S
C2833 C2832 1.390 . S
C2833 C2834 1.394 . S
C2833 C2839 1.465 . S
C2834 C2829 1.399 . S
C2834 C2833 1.394 . S
C2834 C2835 1.516 . S
C2835 C2834 1.516 . S
C2835 C2836 1.502 . S
C2835 C2837 1.561 . S
C2835 C2838 1.526 . S
C2836 H2820 0.959 . S
C2836 H2821 0.959 . S
C2836 H2822 0.961 . S
C2836 C2835 1.502 . S
C2837 H2823 0.960 . S
C2837 H2824 0.961 . S
C2837 H2825 0.959 . S
C2837 C2835 1.561 . S
C2838 C2835 1.526 . S
C2838 C2839 1.396 . S
C2838 C2843 1.390 . S
C2839 C2833 1.465 . S
C2839 C2838 1.396 . S
C2839 C2840 1.399 . S
C2840 H2826 0.929 . S
C2840 C2839 1.399 . S
C2840 C2841 1.385 . S
C2841 H2827 0.931 . S
C2841 C2840 1.385 . S
C2841 C2842 1.389 . S
C2842 C2841 1.389 . S
C2842 C2843 1.387 . S
C2843 H2828 0.930 . S
C2843 C2838 1.390 . S
C2843 C2842 1.387 . S
H2844 C2856 0.930 . S
H2845 C2858 0.930 . S
H2846 C2859 0.930 . S
H2847 C2863 0.959 . S
H2848 C2863 0.959 . S
H2849 C2863 0.961 . S
H2850 C2864 0.960 . S
H2851 C2864 0.961 . S
H2852 C2864 0.959 . S
H2853 C2867 0.929 . S
H2854 C2868 0.931 . S
H2855 C2870 0.930 . S
C2856 H2844 0.930 . S
C2856 C2857 1.399 . S
C2856 C2861 1.399 . S
C2857 C2856 1.399 . S
C2857 C2858 1.376 . S
C2858 H2845 0.930 . S
C2858 C2857 1.376 . S
C2858 C2859 1.388 . S
C2859 H2846 0.930 . S
C2859 C2858 1.388 . S
C2859 C2860 1.390 . S
C2860 C2859 1.390 . S
C2860 C2861 1.394 . S
C2860 C2866 1.465 . S
C2861 C2856 1.399 . S
C2861 C2860 1.394 . S
C2861 C2862 1.516 . S
C2862 C2861 1.516 . S
C2862 C2863 1.502 . S
C2862 C2864 1.561 . S
C2862 C2865 1.526 . S
C2863 H2847 0.959 . S
C2863 H2848 0.959 . S
C2863 H2849 0.961 . S
C2863 C2862 1.502 . S
C2864 H2850 0.960 . S
C2864 H2851 0.961 . S
C2864 H2852 0.959 . S
C2864 C2862 1.561 . S
C2865 C2862 1.526 . S
C2865 C2866 1.396 . S
C2865 C2870 1.390 . S
C2866 C2860 1.465 . S
C2866 C2865 1.396 . S
C2866 C2867 1.399 . S
C2867 H2853 0.929 . S
C2867 C2866 1.399 . S
C2867 C2868 1.385 . S
C2868 H2854 0.931 . S
C2868 C2867 1.385 . S
C2868 C2869 1.389 . S
C2869 C2868 1.389 . S
C2869 C2870 1.387 . S
C2870 H2855 0.930 . S
C2870 C2865 1.390 . S
C2870 C2869 1.387 . S
H2871 C2883 0.930 . S
H2872 C2885 0.930 . S
H2873 C2886 0.930 . S
H2874 C2890 0.959 . S
H2875 C2890 0.959 . S
H2876 C2890 0.961 . S
H2877 C2891 0.960 . S
H2878 C2891 0.961 . S
H2879 C2891 0.959 . S
H2880 C2894 0.929 . S
H2881 C2895 0.931 . S
H2882 C2897 0.930 . S
C2883 H2871 0.930 . S
C2883 C2884 1.399 . S
C2883 C2888 1.399 . S
C2884 C2883 1.399 . S
C2884 C2885 1.376 . S
C2885 H2872 0.930 . S
C2885 C2884 1.376 . S
C2885 C2886 1.388 . S
C2886 H2873 0.930 . S
C2886 C2885 1.388 . S
C2886 C2887 1.390 . S
C2887 C2886 1.390 . S
C2887 C2888 1.394 . S
C2887 C2893 1.465 . S
C2888 C2883 1.399 . S
C2888 C2887 1.394 . S
C2888 C2889 1.516 . S
C2889 C2888 1.516 . S
C2889 C2890 1.502 . S
C2889 C2891 1.561 . S
C2889 C2892 1.526 . S
C2890 H2874 0.959 . S
C2890 H2875 0.959 . S
C2890 H2876 0.961 . S
C2890 C2889 1.502 . S
C2891 H2877 0.960 . S
C2891 H2878 0.961 . S
C2891 H2879 0.959 . S
C2891 C2889 1.561 . S
C2892 C2889 1.526 . S
C2892 C2893 1.396 . S
C2892 C2897 1.390 . S
C2893 C2887 1.465 . S
C2893 C2892 1.396 . S
C2893 C2894 1.399 . S
C2894 H2880 0.929 . S
C2894 C2893 1.399 . S
C2894 C2895 1.385 . S
C2895 H2881 0.931 . S
C2895 C2894 1.385 . S
C2895 C2896 1.389 . S
C2896 C2895 1.389 . S
C2896 C2897 1.387 . S
C2897 H2882 0.930 . S
C2897 C2892 1.390 . S
C2897 C2896 1.387 . S
H2898 C2910 0.930 . S
H2899 C2912 0.930 . S
H2900 C2913 0.930 . S
H2901 C2917 0.959 . S
H2902 C2917 0.959 . S
H2903 C2917 0.961 . S
H2904 C2918 0.960 . S
H2905 C2918 0.961 . S
H2906 C2918 0.959 . S
H2907 C2921 0.929 . S
H2908 C2922 0.931 . S
H2909 C2924 0.930 . S
C2910 H2898 0.930 . S
C2910 C2911 1.399 . S
C2910 C2915 1.399 . S
C2911 C2910 1.399 . S
C2911 C2912 1.376 . S
C2912 H2899 0.930 . S
C2912 C2911 1.376 . S
C2912 C2913 1.388 . S
C2913 H2900 0.930 . S
C2913 C2912 1.388 . S
C2913 C2914 1.390 . S
C2914 C2913 1.390 . S
C2914 C2915 1.394 . S
C2914 C2920 1.465 . S
C2915 C2910 1.399 . S
C2915 C2914 1.394 . S
C2915 C2916 1.516 . S
C2916 C2915 1.516 . S
C2916 C2917 1.502 . S
C2916 C2918 1.561 . S
C2916 C2919 1.526 . S
C2917 H2901 0.959 . S
C2917 H2902 0.959 . S
C2917 H2903 0.961 . S
C2917 C2916 1.502 . S
C2918 H2904 0.960 . S
C2918 H2905 0.961 . S
C2918 H2906 0.959 . S
C2918 C2916 1.561 . S
C2919 C2916 1.526 . S
C2919 C2920 1.396 . S
C2919 C2924 1.390 . S
C2920 C2914 1.465 . S
C2920 C2919 1.396 . S
C2920 C2921 1.399 . S
C2921 H2907 0.929 . S
C2921 C2920 1.399 . S
C2921 C2922 1.385 . S
C2922 H2908 0.931 . S
C2922 C2921 1.385 . S
C2922 C2923 1.389 . S
C2923 C2922 1.389 . S
C2923 C2924 1.387 . S
C2924 H2909 0.930 . S
C2924 C2919 1.390 . S
C2924 C2923 1.387 . S
H2925 C2937 0.930 . S
H2926 C2939 0.930 . S
H2927 C2940 0.930 . S
H2928 C2944 0.959 . S
H2929 C2944 0.959 . S
H2930 C2944 0.961 . S
H2931 C2945 0.960 . S
H2932 C2945 0.961 . S
H2933 C2945 0.959 . S
H2934 C2948 0.929 . S
H2935 C2949 0.931 . S
H2936 C2951 0.930 . S
C2937 H2925 0.930 . S
C2937 C2938 1.399 . S
C2937 C2942 1.399 . S
C2938 C2937 1.399 . S
C2938 C2939 1.376 . S
C2939 H2926 0.930 . S
C2939 C2938 1.376 . S
C2939 C2940 1.388 . S
C2940 H2927 0.930 . S
C2940 C2939 1.388 . S
C2940 C2941 1.390 . S
C2941 C2940 1.390 . S
C2941 C2942 1.394 . S
C2941 C2947 1.465 . S
C2942 C2937 1.399 . S
C2942 C2941 1.394 . S
C2942 C2943 1.516 . S
C2943 C2942 1.516 . S
C2943 C2944 1.502 . S
C2943 C2945 1.561 . S
C2943 C2946 1.526 . S
C2944 H2928 0.959 . S
C2944 H2929 0.959 . S
C2944 H2930 0.961 . S
C2944 C2943 1.502 . S
C2945 H2931 0.960 . S
C2945 H2932 0.961 . S
C2945 H2933 0.959 . S
C2945 C2943 1.561 . S
C2946 C2943 1.526 . S
C2946 C2947 1.396 . S
C2946 C2951 1.390 . S
C2947 C2941 1.465 . S
C2947 C2946 1.396 . S
C2947 C2948 1.399 . S
C2948 H2934 0.929 . S
C2948 C2947 1.399 . S
C2948 C2949 1.385 . S
C2949 H2935 0.931 . S
C2949 C2948 1.385 . S
C2949 C2950 1.389 . S
C2950 C2949 1.389 . S
C2950 C2951 1.387 . S
C2951 H2936 0.930 . S
C2951 C2946 1.390 . S
C2951 C2950 1.387 . S
H2952 C2964 0.930 . S
H2953 C2966 0.930 . S
H2954 C2967 0.930 . S
H2955 C2971 0.959 . S
H2956 C2971 0.959 . S
H2957 C2971 0.961 . S
H2958 C2972 0.960 . S
H2959 C2972 0.961 . S
H2960 C2972 0.959 . S
H2961 C2975 0.929 . S
H2962 C2976 0.931 . S
H2963 C2978 0.930 . S
C2964 H2952 0.930 . S
C2964 C2965 1.399 . S
C2964 C2969 1.399 . S
C2965 C2964 1.399 . S
C2965 C2966 1.376 . S
C2966 H2953 0.930 . S
C2966 C2965 1.376 . S
C2966 C2967 1.388 . S
C2967 H2954 0.930 . S
C2967 C2966 1.388 . S
C2967 C2968 1.390 . S
C2968 C2967 1.390 . S
C2968 C2969 1.394 . S
C2968 C2974 1.465 . S
C2969 C2964 1.399 . S
C2969 C2968 1.394 . S
C2969 C2970 1.516 . S
C2970 C2969 1.516 . S
C2970 C2971 1.502 . S
C2970 C2972 1.561 . S
C2970 C2973 1.526 . S
C2971 H2955 0.959 . S
C2971 H2956 0.959 . S
C2971 H2957 0.961 . S
C2971 C2970 1.502 . S
C2972 H2958 0.960 . S
C2972 H2959 0.961 . S
C2972 H2960 0.959 . S
C2972 C2970 1.561 . S
C2973 C2970 1.526 . S
C2973 C2974 1.396 . S
C2973 C2978 1.390 . S
C2974 C2968 1.465 . S
C2974 C2973 1.396 . S
C2974 C2975 1.399 . S
C2975 H2961 0.929 . S
C2975 C2974 1.399 . S
C2975 C2976 1.385 . S
C2976 H2962 0.931 . S
C2976 C2975 1.385 . S
C2976 C2977 1.389 . S
C2977 C2976 1.389 . S
C2977 C2978 1.387 . S
C2978 H2963 0.930 . S
C2978 C2973 1.390 . S
C2978 C2977 1.387 . S
H2979 C2991 0.930 1_455 S
H2980 C2993 0.930 . S
H2981 C2994 0.930 . S
H2982 C2998 0.959 . S
H2983 C2998 0.959 . S
H2984 C2998 0.961 . S
H2985 C2999 0.960 . S
H2986 C2999 0.961 . S
H2987 C2999 0.959 1_655 S
H2988 C3002 0.929 . S
H2989 C3003 0.931 . S
H2990 C3005 0.930 . S
C2991 H2979 0.930 1_655 S
C2991 C2992 1.399 . S
C2991 C2996 1.399 . S
C2992 C2991 1.399 . S
C2992 C2993 1.376 . S
C2993 H2980 0.930 . S
C2993 C2992 1.376 . S
C2993 C2994 1.388 . S
C2994 H2981 0.930 . S
C2994 C2993 1.388 . S
C2994 C2995 1.390 . S
C2995 C2994 1.390 . S
C2995 C2996 1.394 . S
C2995 C3001 1.465 . S
C2996 C2991 1.399 . S
C2996 C2995 1.394 . S
C2996 C2997 1.516 1_655 S
C2997 C2996 1.516 1_455 S
C2997 C2998 1.502 . S
C2997 C2999 1.561 . S
C2997 C3000 1.526 1_455 S
C2998 H2982 0.959 . S
C2998 H2983 0.959 . S
C2998 H2984 0.961 . S
C2998 C2997 1.502 . S
C2999 H2985 0.960 . S
C2999 H2986 0.961 . S
C2999 H2987 0.959 1_455 S
C2999 C2997 1.561 . S
C3000 C2997 1.526 1_655 S
C3000 C3001 1.396 . S
C3000 C3005 1.390 1_655 S
C3001 C2995 1.465 . S
C3001 C3000 1.396 . S
C3001 C3002 1.399 . S
C3002 H2988 0.929 . S
C3002 C3001 1.399 . S
C3002 C3003 1.385 . S
C3003 H2989 0.931 . S
C3003 C3002 1.385 . S
C3003 C3004 1.389 . S
C3004 C3003 1.389 . S
C3004 C3005 1.387 1_655 S
C3005 H2990 0.930 . S
C3005 C3000 1.390 1_455 S
C3005 C3004 1.387 1_455 S
H3006 C3018 0.930 . S
H3007 C3020 0.930 . S
H3008 C3021 0.930 . S
H3009 C3025 0.959 . S
H3010 C3025 0.959 . S
H3011 C3025 0.961 . S
H3012 C3026 0.960 . S
H3013 C3026 0.961 . S
H3014 C3026 0.959 . S
H3015 C3029 0.929 . S
H3016 C3030 0.931 . S
H3017 C3032 0.930 . S
C3018 H3006 0.930 . S
C3018 C3019 1.399 . S
C3018 C3023 1.399 . S
C3019 C3018 1.399 . S
C3019 C3020 1.376 . S
C3020 H3007 0.930 . S
C3020 C3019 1.376 . S
C3020 C3021 1.388 . S
C3021 H3008 0.930 . S
C3021 C3020 1.388 . S
C3021 C3022 1.390 . S
C3022 C3021 1.390 . S
C3022 C3023 1.394 . S
C3022 C3028 1.465 . S
C3023 C3018 1.399 . S
C3023 C3022 1.394 . S
C3023 C3024 1.516 . S
C3024 C3023 1.516 . S
C3024 C3025 1.502 . S
C3024 C3026 1.561 . S
C3024 C3027 1.526 . S
C3025 H3009 0.959 . S
C3025 H3010 0.959 . S
C3025 H3011 0.961 . S
C3025 C3024 1.502 . S
C3026 H3012 0.960 . S
C3026 H3013 0.961 . S
C3026 H3014 0.959 . S
C3026 C3024 1.561 . S
C3027 C3024 1.526 . S
C3027 C3028 1.396 . S
C3027 C3032 1.390 . S
C3028 C3022 1.465 . S
C3028 C3027 1.396 . S
C3028 C3029 1.399 . S
C3029 H3015 0.929 . S
C3029 C3028 1.399 . S
C3029 C3030 1.385 . S
C3030 H3016 0.931 . S
C3030 C3029 1.385 . S
C3030 C3031 1.389 . S
C3031 C3030 1.389 . S
C3031 C3032 1.387 . S
C3032 H3017 0.930 . S
C3032 C3027 1.390 . S
C3032 C3031 1.387 . S
H3033 C3045 0.862 1_565 S
H3034 C3047 0.930 . S
H3035 C3048 0.930 . S
H3036 C3052 0.959 . S
H3037 C3052 0.959 . S
H3038 C3052 0.961 . S
H3039 C3053 0.960 . S
H3040 C3053 0.961 . S
H3041 C3053 0.959 . S
H3042 C3056 0.929 . S
H3043 C3057 0.931 . S
H3044 C3059 0.930 . S
C3045 H3033 0.862 1_545 S
C3045 C3046 1.433 . S
C3045 C3050 1.437 . S
C3046 C3045 1.433 . S
C3046 C3047 1.376 . S
C3047 H3034 0.930 . S
C3047 C3046 1.376 . S
C3047 C3048 1.388 . S
C3048 H3035 0.930 . S
C3048 C3047 1.388 . S
C3048 C3049 1.390 . S
C3049 C3048 1.390 . S
C3049 C3050 1.394 . S
C3049 C3055 1.465 . S
C3050 C3045 1.437 . S
C3050 C3049 1.394 . S
C3050 C3051 1.516 1_545 S
C3051 C3050 1.516 1_565 S
C3051 C3052 1.502 . S
C3051 C3053 1.561 . S
C3051 C3054 1.526 . S
C3052 H3036 0.959 . S
C3052 H3037 0.959 . S
C3052 H3038 0.961 . S
C3052 C3051 1.502 . S
C3053 H3039 0.960 . S
C3053 H3040 0.961 . S
C3053 H3041 0.959 . S
C3053 C3051 1.561 . S
C3054 C3051 1.526 . S
C3054 C3055 1.396 1_565 S
C3054 C3059 1.390 . S
C3055 C3049 1.465 . S
C3055 C3054 1.396 1_545 S
C3055 C3056 1.399 . S
C3056 H3042 0.929 . S
C3056 C3055 1.399 . S
C3056 C3057 1.385 . S
C3057 H3043 0.931 . S
C3057 C3056 1.385 . S
C3057 C3058 1.389 . S
C3058 C3057 1.389 . S
C3058 C3059 1.387 1_545 S
C3059 H3044 0.930 . S
C3059 C3054 1.390 . S
C3059 C3058 1.387 1_565 S
C1129 C13 1.447 . S
C1141 C729 1.502 . S
C1156 C27 1.347 . S
C1168 C777 1.419 . S
C1195 C825 1.463 . S
C1183 C36 1.403 . S
C1210 C41 1.387 . S
C1222 C849 1.503 . S
C1237 C8 1.519 . S
C1249 C921 1.597 . S
C1264 C22 1.410 . S
C1276 C969 1.502 . S
C1291 C55 1.473 . S
C1303 C897 1.503 . S
C1330 C945 1.433 . S
C1318 C69 1.303 . S
C1357 C873 1.475 . S
C1345 C78 1.357 . S
C1372 C83 1.372 . S
C1384 C801 1.482 . S
C1411 C705 1.609 . S
C1399 C50 1.521 . S
C1426 C64 1.449 . S
C1438 C753 1.520 . S
C1453 C97 1.552 . S
C1465 C1017 1.629 . S
C1480 C111 1.438 . S
C1492 C1065 1.497 . S
C1519 C1089 1.595 . S
C1507 C120 1.532 . S
C1534 C125 1.511 . S
C1546 C273 1.538 . S
C1561 C92 1.680 . S
C1573 C345 1.732 . S
C1588 C106 1.532 . S
C1600 C393 1.570 . S
C1615 C139 1.448 . S
C1627 C321 1.594 . S
C1642 C153 1.382 . S
C1654 C369 1.460 . S
C1681 C297 1.592 . S
C1669 C162 1.566 . S
C1708 C1113 1.611 . S
C1696 C167 1.509 . S
C1735 C993 1.699 . S
C1723 C134 1.618 . S
C1762 C1041 1.589 . S
C1750 C148 1.549 . S
C1777 C181 1.510 . S
C1789 C441 1.578 . S
C1804 C195 1.430 . S
C1816 C489 1.469 . S
C1831 C204 1.540 . S
C1843 C513 1.575 . S
C1858 C209 1.459 . S
C1870 C561 1.611 . S
C1897 C633 1.722 . S
C1885 C176 1.667 . S
C1924 C681 1.583 . S
C1912 C190 1.543 . S
C1951 C609 1.652 . S
C1939 C223 1.499 . S
C1978 C657 1.504 . S
C1966 C237 1.372 . S
C1993 C246 1.552 . S
C2005 C585 1.573 . S
C2032 C537 1.547 . S
C2020 C251 1.462 . S
C2047 C218 1.666 . S
C2059 C417 1.729 . S
C2086 C465 1.568 . S
C2074 C232 1.504 . S
C2113 C282 1.484 . S
C2101 C11 1.419 . S
C2128 C25 1.350 . S
C2140 C336 1.301 . S
C2167 C384 1.407 . S
C2155 C35 1.457 . S
C2194 C432 1.454 . S
C2182 C39 1.445 . S
C2221 C480 1.549 . S
C2209 C7 1.547 1_556 S
C2248 C522 1.405 . S
C2236 C21 1.416 . S
C2263 C53 1.471 . S
C2275 C528 1.462 . S
C2290 C67 1.359 . S
C2302 C426 1.290 . S
C2317 C77 1.436 1_556 S
C2329 C474 1.385 . S
C2344 C81 1.488 . S
C2356 C330 1.433 . S
C2383 C378 1.505 . S
C2371 C49 1.543 . S
C2398 C63 1.419 . S
C2410 C288 1.380 . S
C2437 C570 1.430 . S
C2425 C95 1.447 . S
C2452 C109 1.426 . S
C2464 C624 1.372 . S
C2479 C119 1.511 . S
C2491 C672 1.497 . S
C2518 C720 1.254 . S
C2506 C123 1.290 . S
C2533 C91 1.503 . S
C2545 C768 1.456 . S
C2560 C105 1.263 . S
C2572 C816 1.275 . S
C2587 C137 1.296 . S
C2599 C810 1.320 . S
C2614 C151 1.191 . S
C2626 C714 1.178 . S
C2653 C762 1.357 . S
C2641 C161 1.405 . S
C2668 C165 1.421 . S
C2680 C618 1.462 . S
C2695 C133 1.575 . S
C2707 C666 1.569 . S
C2734 C576 1.486 . S
C2722 C147 1.503 . S
C2761 C858 1.317 . S
C2749 C179 1.299 . S
C2776 C193 1.161 . S
C2788 C912 1.190 . S
C2803 C203 1.409 . S
C2815 C960 1.406 . S
C2842 C1008 1.459 . S
C2830 C207 1.412 . S
C2869 C1056 1.577 . S
C2857 C175 1.582 . S
C2884 C189 1.502 . S
C2896 C1098 1.498 . S
C2911 C221 1.449 . S
C2923 C1104 1.418 . S
C2938 C235 1.414 . S
C2950 C1002 1.399 . S
C2977 C1050 1.428 . S
C2965 C245 1.482 . S
C3004 C906 1.242 . S
C2992 C249 1.273 . S
C3031 C954 1.476 . S
C3019 C217 1.513 . S
C3046 C231 1.269 . S
C3058 C864 1.278 . S
