# Generated by pormake.
# Topology pth, (4,4)-cn, num edge types: 1
# Building blocks:
#     Node 0, Type 0, BuildingBlock: NAHDIM_clean_sbu_0, # of connection points: 4
#     Node 1, Type 0, BuildingBlock: NAHDIM_clean_sbu_0, # of connection points: 4
#     Node 2, Type 0, BuildingBlock: NAHDIM_clean_sbu_0, # of connection points: 4
#     Node 3, Type 1, BuildingBlock: MUDLON_clean_linker_0, # of connection points: 4
#     Node 4, Type 1, BuildingBlock: MUDLON_clean_linker_0, # of connection points: 4
#     Node 5, Type 1, BuildingBlock: MUDLON_clean_linker_0, # of connection points: 4
#     Edge 6, Type (0, 1), BuildingBlock: KIFKEQ_clean_linker_1, # of connection points: 2
#     Edge 7, Type (0, 1), BuildingBlock: KIFKEQ_clean_linker_1, # of connection points: 2
#     Edge 8, Type (0, 1), BuildingBlock: KIFKEQ_clean_linker_1, # of connection points: 2
#     Edge 9, Type (0, 1), BuildingBlock: KIFKEQ_clean_linker_1, # of connection points: 2
#     Edge 10, Type (0, 1), BuildingBlock: KIFKEQ_clean_linker_1, # of connection points: 2
#     Edge 11, Type (0, 1), BuildingBlock: KIFKEQ_clean_linker_1, # of connection points: 2
#     Edge 12, Type (0, 1), BuildingBlock: KIFKEQ_clean_linker_1, # of connection points: 2
#     Edge 13, Type (0, 1), BuildingBlock: KIFKEQ_clean_linker_1, # of connection points: 2
#     Edge 14, Type (0, 1), BuildingBlock: KIFKEQ_clean_linker_1, # of connection points: 2
#     Edge 15, Type (0, 1), BuildingBlock: KIFKEQ_clean_linker_1, # of connection points: 2
#     Edge 16, Type (0, 1), BuildingBlock: KIFKEQ_clean_linker_1, # of connection points: 2
#     Edge 17, Type (0, 1), BuildingBlock: KIFKEQ_clean_linker_1, # of connection points: 2
# Relax obj value: 0.057
# Max RMSD: 0.170
# Mean RMSD: 0.116
data_MOF--net-pth--node1-NAHDIM_clean_sbu_0--node2-MUDLON_clean_linker_0--edge1-KIFKEQ_clean_linker_1
_symmetry_space_group_name_H-M    P1
_symmetry_Int_Tables_number       1
_symmetry_cell_setting            triclinic
loop_
_symmetry_equiv_pos_as_xyz
'x, y, z'
_cell_length_a     34.064895
_cell_length_b     34.228108
_cell_length_c     68.031455
_cell_angle_alpha  91.781005
_cell_angle_beta   90.019395
_cell_angle_gamma 120.46159
loop_
_atom_site_label
_atom_site_type_symbol
_atom_site_fract_x
_atom_site_fract_y
_atom_site_fract_z
_atom_type_partial_charge
C0 C 0.00859 0.94786 0.05665 0.0
O1 O 0.96885 0.93985 0.05007 0.0
O2 O 0.00942 0.06078 0.05967 0.0
Zn3 Zn 0.02983 0.02983 0.04009 0.0
O4 O 0.98112 0.99191 0.0197 0.0
C5 C 0.08094 0.11263 0.02176 0.0
O6 O 0.0439 0.11329 0.02648 0.0
O7 O 0.0434 0.98691 0.05451 0.0
C8 C 0.95341 -0.00073 0.01031 0.0
O9 O 0.95475 0.0381 0.01297 0.0
C10 C 0.96892 0.04845 0.0646 0.0
O11 O 0.93485 0.01075 0.05691 0.0
O12 O 0.08433 0.07868 0.02634 0.0
C13 C 0.02176 0.08803 0.34498 0.0
O14 O 0.98328 0.04958 0.34684 0.0
O15 O 0.02892 0.98604 0.34752 0.0
Zn16 Zn 0.04572 0.03728 0.3674 0.0
O17 O 0.99317 0.02448 0.3849 0.0
C18 C 0.1117 0.01942 0.38526 0.0
O19 O 0.08829 0.98068 0.37531 0.0
O20 O 0.05788 0.0923 0.35259 0.0
C21 C 0.98029 0.00138 0.40028 0.0
O22 O 0.00191 0.98114 0.4063 0.0
C23 C -0.00091 0.94487 0.3502 0.0
O24 O 0.97695 0.93393 0.36679 0.0
O25 O 0.10017 0.04927 0.38396 0.0
C26 C 0.05557 0.96931 0.66629 0.0
O27 O 0.01984 0.96524 0.65696 0.0
O28 O 0.98992 0.01825 0.67874 0.0
Zn29 Zn 0.02115 -0.00019 0.69836 0.0
O30 O 0.06014 0.05255 0.71708 0.0
C31 C 0.94758 0.9562 0.72439 0.0
O32 O 0.95554 0.99794 0.72614 0.0
O33 O 0.06214 0.98206 0.68433 0.0
C34 C 0.06581 0.04662 0.73497 0.0
O35 O 0.04611 0.00524 0.74144 0.0
C36 C 0.98134 0.04987 0.68215 0.0
O37 O 0.99474 0.07318 0.69896 0.0
O38 O 0.97219 0.9477 0.71305 0.0
H39 H 0.87861 0.64849 0.20776 0.0
N40 N 0.93742 0.62443 0.19544 0.0
H41 H 0.88741 0.69893 0.23582 0.0
H42 H 0.00748 0.66079 0.22261 0.0
H43 H 0.01594 0.70979 0.25101 0.0
H44 H 0.0224 0.69681 0.18906 0.0
H45 H 0.04303 0.74739 0.16148 0.0
H46 H 0.8907 0.60796 0.16211 0.0
H47 H 0.91181 0.65675 0.13391 0.0
H48 H 0.8667 0.54167 0.19779 0.0
H49 H 0.0132 0.61637 0.19664 0.0
H50 H 0.86707 0.47129 0.20164 0.0
H51 H 0.0145 0.54653 0.20187 0.0
H52 H 0.88221 0.27088 0.23808 0.0
H53 H 0.91087 0.24897 0.26605 0.0
H54 H 0.04832 0.35261 0.25286 0.0
H55 H 0.01892 0.37496 0.225 0.0
H56 H 0.0053 0.34079 0.19315 0.0
H57 H 0.00549 0.29453 0.16531 0.0
H58 H 0.85834 0.22152 0.16334 0.0
H59 H 0.8585 0.2683 0.19148 0.0
H60 H 0.87796 0.35971 0.22825 0.0
H61 H 0.88262 0.4327 0.2251 0.0
H62 H -0.00075 0.47635 0.18769 0.0
N63 N 0.93024 0.33184 0.21191 0.0
H64 H 0.99602 0.40444 0.19208 0.0
C65 C 0.94207 0.65068 0.21314 0.0
C66 C 0.90836 0.66144 0.21733 0.0
C67 C 0.9134 0.69006 0.23341 0.0
C68 C 0.95243 0.70846 0.24567 0.0
C69 C 0.98575 0.69669 0.24171 0.0
C70 C 0.98074 0.66822 0.22555 0.0
C71 C 0.95442 0.64928 0.17779 0.0
C72 C -0.00165 0.68761 0.17697 0.0
C73 C 0.01024 0.71635 0.16109 0.0
C74 C 0.97861 0.70673 0.14572 0.0
C75 C 0.93645 0.66591 0.14579 0.0
C76 C 0.92442 0.63773 0.16176 0.0
C77 C 0.93973 0.58398 0.19724 0.0
C78 C 0.89898 0.54271 0.19859 0.0
C79 C 0.89941 0.50267 0.201 0.0
C80 C 0.94087 0.50315 0.20246 0.0
C81 C 0.98192 0.54473 0.20074 0.0
C82 C 0.98133 0.58481 0.19798 0.0
C83 C 0.94836 0.32398 0.22943 0.0
C84 C 0.91839 0.28937 0.24149 0.0
C85 C 0.93485 0.27712 0.25748 0.0
C86 C 0.98188 0.29912 0.26163 0.0
C87 C 0.01196 0.33495 0.2499 0.0
C88 C 0.99526 0.34764 0.23399 0.0
C89 C 0.9317 0.30812 0.19433 0.0
C90 C 0.97306 0.31546 0.1866 0.0
C91 C 0.97313 0.28898 0.1706 0.0
C92 C 0.93191 0.2544 0.16213 0.0
C93 C 0.89061 0.2477 0.16966 0.0
C94 C 0.89061 0.27448 0.18559 0.0
C95 C 0.93587 0.37617 0.21015 0.0
C96 C 0.90469 0.38527 0.21951 0.0
C97 C 0.90722 0.42689 0.2175 0.0
C98 C 0.94075 0.46027 0.20576 0.0
C99 C 0.97305 0.45162 0.19688 0.0
C100 C 0.97093 0.41011 0.19921 0.0
H101 H 0.80712 0.15802 0.54263 0.0
N102 N 0.72206 0.10007 0.53099 0.0
H103 H 0.84757 0.15313 0.57128 0.0
H104 H 0.68373 0.03981 0.56044 0.0
H105 H 0.72345 0.03526 0.58942 0.0
H106 H 0.70637 0.01301 0.52943 0.0
H107 H 0.73451 0.9809 0.50446 0.0
H108 H 0.75681 0.13446 0.49649 0.0
H109 H 0.78421 0.10196 0.47116 0.0
H110 H 0.70405 0.16375 0.54245 0.0
H111 H 0.63869 0.02317 0.5231 0.0
H112 H 0.62987 0.15746 0.54588 0.0
H113 H 0.56453 0.01722 0.52516 0.0
H114 H 0.41037 0.12093 0.57273 0.0
H115 H 0.35187 0.0888 0.59765 0.0
H116 H 0.30073 0.95527 0.57058 0.0
H117 H 0.35791 0.98828 0.54523 0.0
H118 H 0.39088 0.01086 0.51292 0.0
H119 H 0.34628 0.00137 0.48298 0.0
H120 H 0.34881 0.1262 0.4982 0.0
H121 H 0.39347 0.13532 0.52794 0.0
H122 H 0.49694 0.1485 0.53076 0.0
H123 H 0.57007 0.15243 0.52751 0.0
H124 H 0.50882 0.01422 0.54622 0.0
N125 N 0.41833 0.07886 0.54102 0.0
H126 H 0.43543 0.00982 0.54813 0.0
C127 C 0.74263 0.0995 0.54942 0.0
C128 C 0.78859 0.13168 0.55302 0.0
C129 C 0.81152 0.12888 0.56942 0.0
C130 C 0.78877 0.09367 0.5826 0.0
C131 C 0.74209 0.06243 0.5794 0.0
C132 C 0.71922 0.06521 0.56293 0.0
C133 C 0.73021 0.07666 0.51494 0.0
C134 C 0.72273 0.03249 0.51667 0.0
C135 C 0.7388 0.0141 0.50239 0.0
C136 C 0.76183 0.03912 0.486 0.0
C137 C 0.76632 0.08183 0.48361 0.0
C138 C 0.75079 0.10046 0.49803 0.0
C139 C 0.67722 0.09443 0.53225 0.0
C140 C 0.67362 0.13171 0.53867 0.0
C141 C 0.63111 0.12804 0.54046 0.0
C142 C 0.59095 0.08695 0.53554 0.0
C143 C 0.59456 0.04931 0.52926 0.0
C144 C 0.63721 0.05283 0.52783 0.0
C145 C 0.38874 0.05722 0.55722 0.0
C146 C 0.38709 0.08463 0.57249 0.0
C147 C 0.35367 0.06603 0.58677 0.0
C148 C 0.32124 0.01932 0.58613 0.0
C149 C 0.32458 0.99146 0.57137 0.0
C150 C 0.35772 0.01025 0.55695 0.0
C151 C 0.39524 0.07384 0.5226 0.0
C152 C 0.38203 0.03623 0.50968 0.0
C153 C 0.35649 0.03083 0.49264 0.0
C154 C 0.34404 0.06306 0.48823 0.0
C155 C 0.35839 0.10114 0.50101 0.0
C156 C 0.38366 0.10634 0.51802 0.0
C157 C 0.46081 0.07935 0.53994 0.0
C158 C 0.49945 0.11912 0.53415 0.0
C159 C 0.54131 0.12133 0.53246 0.0
C160 C 0.54575 0.08382 0.53684 0.0
C161 C 0.50676 0.04368 0.54253 0.0
C162 C 0.46459 0.04127 0.54386 0.0
H163 H 0.66616 0.73331 0.87566 0.0
N164 N 0.66584 0.65395 0.86872 0.0
H165 H 0.70905 0.79023 0.90175 0.0
H166 H 0.70863 0.64496 0.89932 0.0
H167 H 0.7509 0.70132 0.92579 0.0
H168 H 0.74426 0.66885 0.85428 0.0
H169 H 0.78338 0.71235 0.82574 0.0
H170 H 0.63104 0.68802 0.84242 0.0
H171 H 0.6685 0.72936 0.81305 0.0
H172 H 0.59633 0.65917 0.88759 0.0
H173 H 0.6253 0.57526 0.84866 0.0
H174 H 0.51678 0.60064 0.88762 0.0
H175 H 0.54474 0.51772 0.84737 0.0
H176 H 0.26958 0.40736 0.89466 0.0
H177 H 0.23809 0.36601 0.9248 0.0
H178 H 0.34359 0.33137 0.92582 0.0
H179 H 0.37458 0.37226 0.89592 0.0
H180 H 0.3455 0.33748 0.86421 0.0
H181 H 0.30417 0.2803 0.83861 0.0
H182 H 0.2335 0.35019 0.82254 0.0
H183 H 0.27813 0.40967 0.84751 0.0
H184 H 0.36834 0.49999 0.87384 0.0
H185 H 0.44724 0.5614 0.87076 0.0
H186 H 0.49012 0.46218 0.8662 0.0
N187 N 0.337 0.41153 0.87363 0.0
H188 H 0.41195 0.40203 0.86771 0.0
C189 C 0.68459 0.68498 0.88553 0.0
C190 C 0.68408 0.72586 0.8867 0.0
C191 C 0.7084 0.75827 0.90168 0.0
C192 C 0.73378 0.75046 0.91569 0.0
C193 C 0.73229 0.70861 0.91501 0.0
C194 C 0.70792 0.67625 0.90005 0.0
C195 C 0.68488 0.67503 0.8504 0.0
C196 C 0.72743 0.68156 0.84515 0.0
C197 C 0.74952 0.70618 0.82871 0.0
C198 C 0.72916 0.72445 0.81696 0.0
C199 C 0.68558 0.71645 0.82189 0.0
C200 C 0.66382 0.69237 0.83856 0.0
C201 C 0.61747 0.62149 0.86828 0.0
C202 C 0.58581 0.62849 0.87882 0.0
C203 C 0.53974 0.5949 0.87865 0.0
C204 C 0.52401 0.554 0.86763 0.0
C205 C 0.55552 0.54805 0.8565 0.0
C206 C 0.60163 0.58113 0.85704 0.0
C207 C 0.32424 0.39297 0.89288 0.0
C208 C 0.28642 0.39166 0.90166 0.0
C209 C 0.2686 0.36814 0.91888 0.0
C210 C 0.28825 0.34519 0.92757 0.0
C211 C 0.32744 0.34828 0.91929 0.0
C212 C 0.34534 0.37197 0.90214 0.0
C213 C 0.31564 0.37868 0.85759 0.0
C214 C 0.3224 0.34164 0.85485 0.0
C215 C 0.29782 0.30816 0.84034 0.0
C216 C 0.26496 0.31013 0.82856 0.0
C217 C 0.2589 0.34771 0.8311 0.0
C218 C 0.28419 0.38167 0.84542 0.0
C219 C 0.38387 0.44635 0.87126 0.0
C220 C 0.39493 0.49175 0.87198 0.0
C221 C 0.44013 0.52676 0.8704 0.0
C222 C 0.47544 0.517 0.86833 0.0
C223 C 0.46406 0.4713 0.86742 0.0
C224 C 0.41887 0.43643 0.86861 0.0
H225 H 0.88704 0.03621 0.07729 0.0
H226 H 0.03252 0.12715 0.08317 0.0
H227 H 0.87461 0.08627 0.09955 0.0
H228 H 0.02014 0.17627 0.10555 0.0
H229 H 0.98568 0.27832 0.1298 0.0
H230 H 0.99161 0.22812 0.10531 0.0
H231 H 0.88569 0.11171 0.1342 0.0
H232 H 0.87949 0.16204 0.15859 0.0
C233 C 0.91632 0.0667 0.08337 0.0
C234 C 0.96074 0.0777 0.07843 0.0
C235 C 0.9092 0.09529 0.09616 0.0
C236 C 0.94638 0.13543 0.10419 0.0
C237 C 0.99072 0.14612 0.09931 0.0
C238 C 0.99781 0.11768 0.08658 0.0
C239 C 0.96355 0.24201 0.13085 0.0
C240 C 0.93236 0.2241 0.14618 0.0
C241 C 0.96698 0.21325 0.11686 0.0
C242 C 0.93948 0.1659 0.11794 0.0
C243 C 0.90708 0.14802 0.13285 0.0
C244 C 0.90353 0.17685 0.14682 0.0
H245 H 0.94075 0.05249 0.39556 0.0
H246 H 0.93448 0.94666 0.43079 0.0
H247 H 0.88266 0.05426 0.41539 0.0
H248 H 0.87436 0.94689 0.45027 0.0
H249 H 0.81823 0.00825 0.49605 0.0
H250 H 0.86603 0.99278 0.47448 0.0
H251 H 0.80586 0.01783 0.42395 0.0
H252 H 0.75947 0.03523 0.44579 0.0
C253 C 0.9264 0.02901 0.40738 0.0
C254 C 0.94252 -0.00034 0.4117 0.0
C255 C 0.89262 0.02971 0.41868 0.0
C256 C 0.87355 0.00066 0.43447 0.0
C257 C 0.88873 0.97026 0.43842 0.0
C258 C 0.92305 0.96995 0.42722 0.0
C259 C 0.81466 0.00959 0.4803 0.0
C260 C 0.78539 0.02317 0.47257 0.0
C261 C 0.84199 0.00058 0.46789 0.0
C262 C 0.84027 0.00446 0.44742 0.0
C263 C 0.80896 0.01558 0.43965 0.0
C264 C 0.78214 0.02526 0.45211 0.0
H265 H 0.90642 0.86429 0.71828 0.0
H266 H 0.90843 0.96738 0.75722 0.0
H267 H 0.84797 0.8055 0.73817 0.0
H268 H 0.85212 0.90915 0.77766 0.0
H269 H 0.72904 0.80023 0.805 0.0
H270 H 0.77622 0.85275 0.7804 0.0
H271 H 0.83813 0.77134 0.76839 0.0
H272 H 0.78796 0.71663 0.79169 0.0
C273 C 0.89452 0.87433 0.73116 0.0
C274 C 0.91195 0.92037 0.73621 0.0
C275 C 0.86117 0.84067 0.74264 0.0
C276 C 0.84512 0.85239 0.75958 0.0
C277 C 0.86269 0.89862 0.76451 0.0
C278 C 0.89537 0.93215 0.75287 0.0
C279 C 0.75169 0.7927 0.79673 0.0
C280 C 0.75485 0.75423 0.80055 0.0
C281 C 0.77947 0.8234 0.78282 0.0
C282 C 0.81177 0.81694 0.77261 0.0
C283 C 0.81361 0.7775 0.77584 0.0
C284 C 0.78524 0.74637 0.7895 0.0
H285 H 0.07491 0.95632 0.08251 0.0
H286 H 0.94797 0.85784 0.05388 0.0
H287 H 0.07179 0.89654 0.10266 0.0
H288 H 0.94545 0.79857 0.07347 0.0
H289 H 0.91802 0.72893 0.13176 0.0
H290 H 0.93039 0.78597 0.10853 0.0
H291 H 0.07107 0.82195 0.10337 0.0
H292 H 0.0585 0.76366 0.12678 0.0
C293 C 0.0469 0.92185 0.08027 0.0
C294 C 0.01121 0.91186 0.06694 0.0
C295 C 0.0452 0.88765 0.09172 0.0
C296 C 0.00792 0.84307 0.08988 0.0
C297 C 0.97403 0.8328 0.07556 0.0
C298 C 0.97553 0.86679 0.06432 0.0
C299 C 0.95141 0.74813 0.1254 0.0
C300 C 0.98703 0.74103 0.13089 0.0
C301 C 0.95855 0.78104 0.1121 0.0
C302 C 0.00155 0.80805 0.1039 0.0
C303 C 0.03757 0.8016 0.10948 0.0
C304 C 0.03034 0.76828 0.12285 0.0
H305 H 0.16337 0.09295 0.40989 0.0
H306 H 0.14549 0.96319 0.39079 0.0
H307 H 0.22243 0.10333 0.43323 0.0
H308 H 0.20525 0.97405 0.41385 0.0
H309 H 0.26808 0.98465 0.47553 0.0
H310 H 0.21496 0.97479 0.44921 0.0
H311 H 0.29923 0.1161 0.43573 0.0
H312 H 0.35226 0.12597 0.46217 0.0
C313 C 0.17237 0.06686 0.41052 0.0
C314 C 0.14953 0.02714 0.39856 0.0
C315 C 0.20645 0.07294 0.42382 0.0
C316 C 0.2185 0.03946 0.42543 0.0
C317 C 0.19633 0.00019 0.41316 0.0
C318 C 0.16222 0.99409 0.39988 0.0
C319 C 0.2757 0.0134 0.46671 0.0
C320 C 0.31424 0.05613 0.47098 0.0
C321 C 0.24524 0.00777 0.45162 0.0
C322 C 0.25271 0.04474 0.44044 0.0
C323 C 0.29206 0.08714 0.4443 0.0
C324 C 0.32247 0.09278 0.45942 0.0
H325 H 0.06447 0.04953 0.77497 0.0
H326 H 0.13061 0.13227 0.7253 0.0
H327 H 0.11088 0.11382 0.79728 0.0
H328 H 0.17897 0.19617 0.7476 0.0
H329 H 0.23187 0.31423 0.79222 0.0
H330 H 0.18185 0.25136 0.76988 0.0
H331 H 0.18468 0.15717 0.80996 0.0
H332 H 0.23116 0.21932 0.83291 0.0
C333 C 0.08932 0.08142 0.76884 0.0
C334 C 0.09405 0.08585 0.74841 0.0
C335 C 0.1162 0.11829 0.78163 0.0
C336 C 0.14913 0.1603 0.77431 0.0
C337 C 0.1536 0.16467 0.75381 0.0
C338 C 0.1261 0.12794 0.741 0.0
C339 C 0.22127 0.28006 0.7964 0.0
C340 C 0.23579 0.27207 0.81442 0.0
C341 C 0.19306 0.24395 0.78343 0.0
C342 C 0.17906 0.19898 0.78805 0.0
C343 C 0.19398 0.19114 0.80598 0.0
C344 C 0.22154 0.22708 0.81904 0.0
H345 H 0.95123 0.0097 0.64571 0.0
H346 H 0.94963 0.10885 0.68613 0.0
H347 H 0.9039 0.02112 0.62253 0.0
H348 H 0.90132 0.11954 0.66303 0.0
H349 H 0.85573 0.15942 0.60674 0.0
H350 H 0.90289 0.14994 0.63093 0.0
H351 H 0.82628 0.00497 0.61943 0.0
H352 H 0.78061 0.01459 0.59469 0.0
C353 C 0.94073 0.03391 0.64967 0.0
C354 C 0.95413 0.0583 0.66779 0.0
C355 C 0.9133 0.0402 0.63643 0.0
C356 C 0.89848 0.07093 0.64101 0.0
C357 C 0.91244 0.09586 0.65901 0.0
C358 C 0.94 0.08962 0.67226 0.0
C359 C 0.84904 0.12555 0.60937 0.0
C360 C 0.81452 0.08779 0.59872 0.0
C361 C 0.87577 0.12008 0.62336 0.0
C362 C 0.86857 0.07674 0.62699 0.0
C363 C 0.83319 0.0389 0.61675 0.0
C364 C 0.80655 0.04436 0.60276 0.0
H365 H 0.89329 0.00376 0.98481 0.0
H366 H 0.93594 0.91267 0.00556 0.0
H367 H 0.83871 0.94372 0.9621 0.0
H368 H 0.88111 0.85295 0.98341 0.0
H369 H 0.82095 0.77563 0.92573 0.0
H370 H 0.87245 0.8362 0.94856 0.0
H371 H 0.768 0.86936 0.96075 0.0
H372 H 0.71625 0.80853 0.93761 0.0
C373 C 0.89087 0.97096 0.98461 0.0
C374 C 0.91928 0.96317 -0.00315 0.0
C375 C 0.85944 0.93651 0.9717 0.0
C376 C 0.85585 0.89368 0.97083 0.0
C377 C 0.88365 0.8858 0.9834 0.0
C378 C 0.91501 0.92009 -0.00382 0.0
C379 C 0.8087 0.79541 0.93346 0.0
C380 C 0.76435 0.78695 0.93004 0.0
C381 C 0.83826 0.83022 0.94654 0.0
C382 C 0.82423 0.85741 0.95661 0.0
C383 C 0.77997 0.84927 0.95309 0.0
C384 C 0.75031 0.81439 0.9399 0.0
H385 H 0.94548 0.85286 0.35274 0.0
H386 H 0.03464 0.95689 0.31345 0.0
H387 H 0.93456 0.79465 0.32815 0.0
H388 H 0.02276 0.89887 0.28872 0.0
H389 H 0.03137 0.78579 0.2569 0.0
H390 H 0.04229 0.84133 0.28271 0.0
H391 H 0.89936 0.76293 0.29633 0.0
H392 H 0.8889 0.70605 0.27114 0.0
C393 C 0.96248 0.86332 0.33881 0.0
C394 C 0.99104 0.90949 0.33508 0.0
C395 C 0.95606 0.82996 0.32468 0.0
C396 C 0.97795 0.84208 0.3065 0.0
C397 C 0.00606 0.88831 0.30271 0.0
C398 C 0.01262 0.92161 0.31685 0.0
C399 C 0.00241 0.77992 0.26562 0.0
C400 C 0.95925 0.74141 0.26194 0.0
C401 C 0.00854 0.81214 0.28024 0.0
C402 C 0.97162 0.8068 0.29149 0.0
C403 C 0.92859 0.76794 0.28804 0.0
C404 C 0.92249 0.73558 0.27344 0.0
H405 H 0.12919 0.9675 0.68131 0.0
H406 H 0.06191 0.96183 0.62655 0.0
H407 H 0.19171 0.96928 0.66311 0.0
H408 H 0.12493 0.96551 0.60842 0.0
H409 H 0.23256 0.95393 0.57777 0.0
H410 H 0.1666 0.93109 0.59824 0.0
H411 H 0.25374 0.02295 0.64491 0.0
H412 H 0.32009 0.04323 0.62498 0.0
C413 C 0.1276 0.96632 0.66538 0.0
C414 C 0.09079 0.96494 0.65537 0.0
C415 C 0.16358 0.96762 0.65494 0.0
C416 C 0.16375 0.96801 0.63427 0.0
C417 C 0.12586 0.96462 0.6243 0.0
C418 C 0.08972 0.96283 0.63472 0.0
C419 C 0.23795 0.96824 0.59262 0.0
C420 C 0.28181 0.0009 0.5996 0.0
C421 C 0.19989 0.95562 0.60428 0.0
C422 C 0.20458 0.97574 0.62313 0.0
C423 C 0.24866 0.00649 0.63052 0.0
C424 C 0.28679 0.0187 0.61895 0.0
H425 H 0.07891 0.18504 0.00762 0.0
H426 H 0.16355 0.12467 0.0103 0.0
H427 H 0.13429 0.24379 0.98714 0.0
H428 H 0.22008 0.18472 0.99017 0.0
H429 H 0.27163 0.25924 0.93159 0.0
H430 H 0.22664 0.20596 0.95653 0.0
H431 H 0.20844 0.30935 0.98591 0.0
H432 H 0.25284 0.36244 0.9606 0.0
C433 C 0.1097 0.18464 0.00406 0.0
C434 C 0.11665 0.14994 0.01047 0.0
C435 C 0.14174 0.21868 0.99243 0.0
C436 C 0.18174 0.21909 0.98699 0.0
C437 C 0.18935 0.18507 0.99387 0.0
C438 C 0.15707 0.15077 0.00547 0.0
C439 C 0.25879 0.27086 0.9436 0.0
C440 C 0.26555 0.31494 0.9441 0.0
C441 C 0.23304 0.24032 0.95794 0.0
C442 C 0.21362 0.25323 0.97318 0.0
C443 C 0.22216 0.29802 0.97416 0.0
C444 C 0.24766 0.32848 0.95972 0.0
H445 H 0.09529 0.16778 0.33312 0.0
H446 H 0.94813 0.09308 0.3338 0.0
H447 H 0.09345 0.22847 0.31557 0.0
H448 H 0.94641 0.15296 0.31644 0.0
H449 H 0.95038 0.27706 0.29885 0.0
H450 H 0.96661 0.23298 0.32153 0.0
H451 H 0.06701 0.2362 0.28181 0.0
H452 H 0.05088 0.28056 0.25914 0.0
C453 C 0.06268 0.16443 0.32963 0.0
C454 C 0.02186 0.12558 0.33477 0.0
C455 C 0.06164 0.19907 0.31959 0.0
C456 C 0.01981 0.19565 0.31482 0.0
C457 C 0.97921 0.15704 0.32023 0.0
C458 C 0.98021 0.12244 0.33002 0.0
C459 C 0.97654 0.26909 0.29516 0.0
C460 C -0.00115 0.28158 0.27711 0.0
C461 C 0.98578 0.24383 0.30811 0.0
C462 C 0.01744 0.23043 0.30325 0.0
C463 C 0.04253 0.24615 0.28597 0.0
C464 C 0.03331 0.27156 0.273 0.0
loop_
_geom_bond_atom_site_label_1
_geom_bond_atom_site_label_2
_geom_bond_distance
_geom_bond_site_symmetry_2
_ccdc_geom_bond_type
C0 O1 1.160 . S
C0 O7 1.185 . S
O1 C0 1.160 . S
O2 Zn3 1.899 . S
O2 C10 1.284 1_455 S
Zn3 O2 1.899 . S
Zn3 O4 2.032 1_445 S
Zn3 O7 2.086 1_545 S
Zn3 O12 1.977 . S
O4 Zn3 2.032 1_665 S
O4 C8 1.278 . S
C5 O6 1.203 . S
C5 O12 1.267 . S
O6 C5 1.203 . S
O7 C0 1.185 . S
O7 Zn3 2.086 1_565 S
C8 O4 1.278 . S
C8 O9 1.211 1_565 S
O9 C8 1.211 1_545 S
C10 O2 1.284 1_655 S
C10 O11 1.273 . S
O11 C10 1.273 . S
O12 Zn3 1.977 . S
O12 C5 1.267 . S
C13 O14 1.160 . S
C13 O20 1.185 . S
O14 C13 1.160 . S
O15 Zn16 1.899 . S
O15 C23 1.284 1_545 S
Zn16 O15 1.899 . S
Zn16 O17 2.032 1_455 S
Zn16 O20 2.086 . S
Zn16 O25 1.977 . S
O17 Zn16 2.032 1_655 S
O17 C21 1.278 . S
C18 O19 1.203 1_545 S
C18 O25 1.267 . S
O19 C18 1.203 1_565 S
O20 C13 1.185 . S
O20 Zn16 2.086 . S
C21 O17 1.278 . S
C21 O22 1.211 . S
O22 C21 1.211 . S
C23 O15 1.284 1_565 S
C23 O24 1.273 1_455 S
O24 C23 1.273 1_655 S
O25 Zn16 1.977 . S
O25 C18 1.267 . S
C26 O27 1.160 1_565 S
C26 O33 1.185 . S
O27 C26 1.160 1_545 S
O28 Zn29 1.899 1_655 S
O28 C36 1.284 1_565 S
Zn29 O28 1.899 1_455 S
Zn29 O30 2.032 1_565 S
Zn29 O33 2.086 . S
Zn29 O38 1.977 1_455 S
O30 Zn29 2.032 1_545 S
O30 C34 1.278 . S
C31 O32 1.203 . S
C31 O38 1.267 . S
O32 C31 1.203 . S
O33 C26 1.185 . S
O33 Zn29 2.086 . S
C34 O30 1.278 . S
C34 O35 1.211 . S
O35 C34 1.211 . S
C36 O28 1.284 1_545 S
C36 O37 1.273 . S
O37 C36 1.273 . S
O38 Zn29 1.977 1_655 S
O38 C31 1.267 . S
H39 C66 0.929 . S
N40 C65 1.433 . S
N40 C71 1.435 . S
N40 C77 1.423 . S
H41 C67 0.930 . S
H42 C70 0.931 . S
H43 C69 0.929 . S
H44 C72 0.930 . S
H45 C73 0.932 . S
H46 C76 0.929 . S
H47 C75 0.931 . S
H48 C78 0.929 . S
H49 C82 0.938 . S
H50 C79 0.931 . S
H51 C81 0.929 1_455 S
H52 C84 0.929 . S
H53 C85 0.930 . S
H54 C87 0.929 . S
H55 C88 0.931 . S
H56 C90 0.930 . S
H57 C91 0.932 . S
H58 C93 0.931 . S
H59 C94 0.929 . S
H60 C96 0.929 . S
H61 C97 0.931 . S
H62 C99 0.929 1_455 S
N63 C83 1.433 . S
N63 C89 1.435 . S
N63 C95 1.423 . S
H64 C100 0.947 . S
C65 N40 1.433 . S
C65 C66 1.363 . S
C65 C70 1.370 1_655 S
C66 H39 0.929 . S
C66 C65 1.363 . S
C66 C67 1.385 . S
C67 H41 0.930 . S
C67 C66 1.385 . S
C67 C68 1.357 1_655 S
C68 C67 1.357 1_455 S
C68 C69 1.406 . S
C69 H43 0.929 . S
C69 C68 1.406 . S
C69 C70 1.391 . S
C70 H42 0.931 . S
C70 C65 1.370 1_455 S
C70 C69 1.391 . S
C71 N40 1.435 . S
C71 C72 1.358 1_655 S
C71 C76 1.371 . S
C72 H44 0.930 . S
C72 C71 1.358 1_455 S
C72 C73 1.405 . S
C73 H45 0.932 . S
C73 C72 1.405 . S
C73 C74 1.384 . S
C74 C73 1.384 . S
C74 C75 1.392 1_455 S
C75 H47 0.931 . S
C75 C74 1.392 1_655 S
C75 C76 1.382 . S
C76 H46 0.929 . S
C76 C71 1.371 . S
C76 C75 1.382 . S
C77 N40 1.423 . S
C77 C78 1.362 . S
C77 C82 1.375 1_655 S
C78 H48 0.929 . S
C78 C77 1.362 . S
C78 C79 1.376 . S
C79 H50 0.931 . S
C79 C78 1.376 . S
C79 C80 1.396 . S
C80 C79 1.396 . S
C80 C81 1.348 . S
C80 C98 1.472 . S
C81 H51 0.929 1_655 S
C81 C80 1.348 . S
C81 C82 1.451 1_655 S
C82 H49 0.938 . S
C82 C77 1.375 1_455 S
C82 C81 1.451 1_455 S
C83 N63 1.433 . S
C83 C84 1.363 . S
C83 C88 1.370 1_655 S
C84 H52 0.929 . S
C84 C83 1.363 . S
C84 C85 1.385 . S
C85 H53 0.930 . S
C85 C84 1.385 . S
C85 C86 1.357 1_655 S
C86 C85 1.357 1_455 S
C86 C87 1.406 . S
C87 H54 0.929 . S
C87 C86 1.406 . S
C87 C88 1.391 . S
C88 H55 0.931 . S
C88 C83 1.370 1_455 S
C88 C87 1.391 . S
C89 N63 1.435 . S
C89 C90 1.358 1_655 S
C89 C94 1.371 . S
C90 H56 0.930 . S
C90 C89 1.358 1_455 S
C90 C91 1.405 . S
C91 H57 0.932 . S
C91 C90 1.405 . S
C91 C92 1.383 . S
C92 C91 1.383 . S
C92 C93 1.393 1_455 S
C93 H58 0.931 . S
C93 C92 1.393 1_655 S
C93 C94 1.382 . S
C94 H59 0.929 . S
C94 C89 1.371 . S
C94 C93 1.382 . S
C95 N63 1.423 . S
C95 C96 1.362 . S
C95 C100 1.385 1_655 S
C96 H60 0.929 . S
C96 C95 1.362 . S
C96 C97 1.376 . S
C97 H61 0.931 . S
C97 C96 1.376 . S
C97 C98 1.396 . S
C98 C80 1.472 . S
C98 C97 1.396 . S
C98 C99 1.348 . S
C99 H62 0.929 1_655 S
C99 C98 1.348 . S
C99 C100 1.431 1_655 S
C100 H64 0.947 . S
C100 C95 1.385 1_455 S
C100 C99 1.431 1_455 S
H101 C128 0.929 . S
N102 C127 1.433 . S
N102 C133 1.435 . S
N102 C139 1.423 . S
H103 C129 0.930 . S
H104 C132 0.929 . S
H105 C131 0.929 . S
H106 C134 0.930 . S
H107 C135 0.932 . S
H108 C138 0.929 . S
H109 C137 0.931 . S
H110 C140 0.929 . S
H111 C144 0.932 1_565 S
H112 C141 0.931 . S
H113 C143 0.929 . S
H114 C146 0.929 . S
H115 C147 0.930 . S
H116 C149 0.929 . S
H117 C150 0.947 . S
H118 C152 0.930 . S
H119 C153 0.932 . S
H120 C155 0.931 . S
H121 C156 0.929 . S
H122 C158 0.929 . S
H123 C159 0.931 . S
H124 C161 0.929 . S
N125 C145 1.433 . S
N125 C151 1.435 . S
N125 C157 1.423 . S
H126 C162 0.932 1_565 S
C127 N102 1.433 . S
C127 C128 1.363 . S
C127 C132 1.365 1_545 S
C128 H101 0.929 . S
C128 C127 1.363 . S
C128 C129 1.385 . S
C129 H103 0.930 . S
C129 C128 1.385 . S
C129 C130 1.357 . S
C130 C129 1.357 . S
C130 C131 1.406 1_545 S
C131 H105 0.929 . S
C131 C130 1.406 1_565 S
C131 C132 1.399 . S
C132 H104 0.929 . S
C132 C127 1.365 1_565 S
C132 C131 1.399 . S
C133 N102 1.435 . S
C133 C134 1.358 1_545 S
C133 C138 1.371 . S
C134 H106 0.930 . S
C134 C133 1.358 1_565 S
C134 C135 1.405 . S
C135 H107 0.932 . S
C135 C134 1.405 . S
C135 C136 1.383 1_565 S
C136 C135 1.383 1_545 S
C136 C137 1.393 . S
C137 H109 0.931 . S
C137 C136 1.393 . S
C137 C138 1.382 . S
C138 H108 0.929 . S
C138 C133 1.371 . S
C138 C137 1.382 . S
C139 N102 1.423 . S
C139 C140 1.362 . S
C139 C144 1.388 . S
C140 H110 0.929 . S
C140 C139 1.362 . S
C140 C141 1.376 . S
C141 H112 0.931 . S
C141 C140 1.376 . S
C141 C142 1.396 . S
C142 C141 1.396 . S
C142 C143 1.348 . S
C142 C160 1.472 . S
C143 H113 0.929 . S
C143 C142 1.348 . S
C143 C144 1.443 . S
C144 H111 0.932 1_545 S
C144 C139 1.388 . S
C144 C143 1.443 . S
C145 N125 1.433 . S
C145 C146 1.363 . S
C145 C150 1.354 1_545 S
C146 H114 0.929 . S
C146 C145 1.363 . S
C146 C147 1.385 . S
C147 H115 0.930 . S
C147 C146 1.385 . S
C147 C148 1.357 . S
C148 C147 1.357 . S
C148 C149 1.406 1_545 S
C149 H116 0.929 . S
C149 C148 1.406 1_565 S
C149 C150 1.391 . S
C150 H117 0.947 . S
C150 C145 1.354 1_565 S
C150 C149 1.391 . S
C151 N125 1.435 . S
C151 C152 1.358 1_545 S
C151 C156 1.371 . S
C152 H118 0.930 . S
C152 C151 1.358 1_565 S
C152 C153 1.405 . S
C153 H119 0.932 . S
C153 C152 1.405 . S
C153 C154 1.383 1_565 S
C154 C153 1.383 1_545 S
C154 C155 1.393 . S
C155 H120 0.931 . S
C155 C154 1.393 . S
C155 C156 1.382 . S
C156 H121 0.929 . S
C156 C151 1.371 . S
C156 C155 1.382 . S
C157 N125 1.423 . S
C157 C158 1.362 . S
C157 C162 1.388 . S
C158 H122 0.929 . S
C158 C157 1.362 . S
C158 C159 1.376 . S
C159 H123 0.931 . S
C159 C158 1.376 . S
C159 C160 1.396 . S
C160 C142 1.472 . S
C160 C159 1.396 . S
C160 C161 1.348 . S
C161 H124 0.929 . S
C161 C160 1.348 . S
C161 C162 1.443 . S
C162 H126 0.932 1_545 S
C162 C157 1.388 . S
C162 C161 1.443 . S
H163 C190 0.929 . S
N164 C189 1.433 . S
N164 C195 1.435 . S
N164 C201 1.423 . S
H165 C191 0.930 . S
H166 C194 0.931 . S
H167 C193 0.929 . S
H168 C196 0.930 . S
H169 C197 0.932 . S
H170 C200 0.929 . S
H171 C199 0.931 . S
H172 C202 0.929 . S
H173 C206 0.932 . S
H174 C203 0.931 . S
H175 C205 0.929 . S
H176 C208 0.929 . S
H177 C209 0.930 . S
H178 C211 0.929 . S
H179 C212 0.931 . S
H180 C214 0.930 . S
H181 C215 0.932 . S
H182 C217 0.931 . S
H183 C218 0.929 . S
H184 C220 0.929 . S
H185 C221 0.931 . S
H186 C223 0.929 . S
N187 C207 1.433 . S
N187 C213 1.435 . S
N187 C219 1.423 . S
H188 C224 0.932 . S
C189 N164 1.433 . S
C189 C190 1.363 . S
C189 C194 1.370 . S
C190 H163 0.929 . S
C190 C189 1.363 . S
C190 C191 1.385 . S
C191 H165 0.930 . S
C191 C190 1.385 . S
C191 C192 1.357 . S
C192 C191 1.357 . S
C192 C193 1.406 . S
C193 H167 0.929 . S
C193 C192 1.406 . S
C193 C194 1.391 . S
C194 H166 0.931 . S
C194 C189 1.370 . S
C194 C193 1.391 . S
C195 N164 1.435 . S
C195 C196 1.358 . S
C195 C200 1.371 . S
C196 H168 0.930 . S
C196 C195 1.358 . S
C196 C197 1.405 . S
C197 H169 0.932 . S
C197 C196 1.405 . S
C197 C198 1.383 . S
C198 C197 1.383 . S
C198 C199 1.393 . S
C199 H171 0.931 . S
C199 C198 1.393 . S
C199 C200 1.382 . S
C200 H170 0.929 . S
C200 C195 1.371 . S
C200 C199 1.382 . S
C201 N164 1.423 . S
C201 C202 1.362 . S
C201 C206 1.388 . S
C202 H172 0.929 . S
C202 C201 1.362 . S
C202 C203 1.376 . S
C203 H174 0.931 . S
C203 C202 1.376 . S
C203 C204 1.396 . S
C204 C203 1.396 . S
C204 C205 1.348 . S
C204 C222 1.472 . S
C205 H175 0.929 . S
C205 C204 1.348 . S
C205 C206 1.443 . S
C206 H173 0.932 . S
C206 C201 1.388 . S
C206 C205 1.443 . S
C207 N187 1.433 . S
C207 C208 1.363 . S
C207 C212 1.370 . S
C208 H176 0.929 . S
C208 C207 1.363 . S
C208 C209 1.385 . S
C209 H177 0.930 . S
C209 C208 1.385 . S
C209 C210 1.357 . S
C210 C209 1.357 . S
C210 C211 1.406 . S
C211 H178 0.929 . S
C211 C210 1.406 . S
C211 C212 1.391 . S
C212 H179 0.931 . S
C212 C207 1.370 . S
C212 C211 1.391 . S
C213 N187 1.435 . S
C213 C214 1.358 . S
C213 C218 1.371 . S
C214 H180 0.930 . S
C214 C213 1.358 . S
C214 C215 1.405 . S
C215 H181 0.932 . S
C215 C214 1.405 . S
C215 C216 1.383 . S
C216 C215 1.383 . S
C216 C217 1.393 . S
C217 H182 0.931 . S
C217 C216 1.393 . S
C217 C218 1.382 . S
C218 H183 0.929 . S
C218 C213 1.371 . S
C218 C217 1.382 . S
C219 N187 1.423 . S
C219 C220 1.362 . S
C219 C224 1.388 . S
C220 H184 0.929 . S
C220 C219 1.362 . S
C220 C221 1.376 . S
C221 H185 0.931 . S
C221 C220 1.376 . S
C221 C222 1.396 . S
C222 C204 1.472 . S
C222 C221 1.396 . S
C222 C223 1.348 . S
C223 H186 0.929 . S
C223 C222 1.348 . S
C223 C224 1.443 . S
C224 H188 0.932 . S
C224 C219 1.388 . S
C224 C223 1.443 . S
H225 C233 0.950 . S
H226 C238 0.950 . S
H227 C235 0.950 . S
H228 C237 0.950 . S
H229 C239 0.950 . S
H230 C241 0.950 . S
H231 C243 0.950 . S
H232 C244 0.950 . S
C233 H225 0.950 . S
C233 C234 1.386 . S
C233 C235 1.391 . S
C234 C233 1.386 . S
C234 C238 1.393 1_655 S
C235 H227 0.950 . S
C235 C233 1.391 . S
C235 C236 1.395 1_655 S
C236 C235 1.395 1_455 S
C236 C237 1.410 . S
C236 C242 1.486 . S
C237 H228 0.950 . S
C237 C236 1.410 . S
C237 C238 1.391 . S
C238 H226 0.950 . S
C238 C234 1.393 1_455 S
C238 C237 1.391 . S
C239 H229 0.950 . S
C239 C240 1.404 . S
C239 C241 1.391 . S
C240 C239 1.404 . S
C240 C244 1.384 1_455 S
C241 H230 0.950 . S
C241 C239 1.391 . S
C241 C242 1.401 . S
C242 C236 1.486 . S
C242 C241 1.401 . S
C242 C243 1.396 1_455 S
C243 H231 0.950 . S
C243 C242 1.396 1_655 S
C243 C244 1.391 . S
C244 H232 0.950 . S
C244 C240 1.384 1_655 S
C244 C243 1.391 . S
H245 C253 0.950 . S
H246 C258 0.950 . S
H247 C255 0.950 . S
H248 C257 0.950 . S
H249 C259 0.950 . S
H250 C261 0.950 . S
H251 C263 0.950 . S
H252 C264 0.950 . S
C253 H245 0.950 . S
C253 C254 1.386 . S
C253 C255 1.391 . S
C254 C253 1.386 . S
C254 C258 1.393 1_545 S
C255 H247 0.950 . S
C255 C253 1.391 . S
C255 C256 1.400 . S
C256 C255 1.400 . S
C256 C257 1.398 1_545 S
C256 C262 1.491 . S
C257 H248 0.950 . S
C257 C256 1.398 1_565 S
C257 C258 1.391 . S
C258 H246 0.950 . S
C258 C254 1.393 1_565 S
C258 C257 1.391 . S
C259 H249 0.950 . S
C259 C260 1.386 1_565 S
C259 C261 1.391 . S
C260 C259 1.386 1_545 S
C260 C264 1.393 . S
C261 H250 0.950 . S
C261 C259 1.391 . S
C261 C262 1.400 1_565 S
C262 C256 1.491 . S
C262 C261 1.400 1_545 S
C262 C263 1.398 . S
C263 H251 0.950 . S
C263 C262 1.398 . S
C263 C264 1.391 . S
C264 H252 0.950 . S
C264 C260 1.393 . S
C264 C263 1.391 . S
H265 C273 0.950 . S
H266 C278 0.950 . S
H267 C275 0.950 . S
H268 C277 0.950 . S
H269 C279 0.950 . S
H270 C281 0.950 . S
H271 C283 0.950 . S
H272 C284 0.950 . S
C273 H265 0.950 . S
C273 C274 1.386 . S
C273 C275 1.391 . S
C274 C273 1.386 . S
C274 C278 1.393 . S
C275 H267 0.950 . S
C275 C273 1.391 . S
C275 C276 1.400 . S
C276 C275 1.400 . S
C276 C277 1.398 . S
C276 C282 1.491 . S
C277 H268 0.950 . S
C277 C276 1.398 . S
C277 C278 1.391 . S
C278 H266 0.950 . S
C278 C274 1.393 . S
C278 C277 1.391 . S
C279 H269 0.950 . S
C279 C280 1.386 . S
C279 C281 1.391 . S
C280 C279 1.386 . S
C280 C284 1.393 . S
C281 H270 0.950 . S
C281 C279 1.391 . S
C281 C282 1.400 . S
C282 C276 1.491 . S
C282 C281 1.400 . S
C282 C283 1.398 . S
C283 H271 0.950 . S
C283 C282 1.398 . S
C283 C284 1.391 . S
C284 H272 0.950 . S
C284 C280 1.393 . S
C284 C283 1.391 . S
H285 C293 0.950 . S
H286 C298 0.950 . S
H287 C295 0.950 . S
H288 C297 0.950 . S
H289 C299 0.950 . S
H290 C301 0.950 . S
H291 C303 0.950 . S
H292 C304 0.950 . S
C293 H285 0.950 . S
C293 C294 1.386 . S
C293 C295 1.391 . S
C294 C293 1.386 . S
C294 C298 1.393 1_455 S
C295 H287 0.950 . S
C295 C293 1.391 . S
C295 C296 1.400 . S
C296 C295 1.400 . S
C296 C297 1.398 1_455 S
C296 C302 1.491 . S
C297 H288 0.950 . S
C297 C296 1.398 1_655 S
C297 C298 1.391 . S
C298 H286 0.950 . S
C298 C294 1.393 1_655 S
C298 C297 1.391 . S
C299 H289 0.950 . S
C299 C300 1.386 1_655 S
C299 C301 1.391 . S
C300 C299 1.386 1_455 S
C300 C304 1.393 . S
C301 H290 0.950 . S
C301 C299 1.391 . S
C301 C302 1.400 1_655 S
C302 C296 1.491 . S
C302 C301 1.400 1_455 S
C302 C303 1.398 . S
C303 H291 0.950 . S
C303 C302 1.398 . S
C303 C304 1.391 . S
C304 H292 0.950 . S
C304 C300 1.393 . S
C304 C303 1.391 . S
H305 C313 0.950 . S
H306 C318 0.950 . S
H307 C315 0.950 . S
H308 C317 0.950 . S
H309 C319 0.950 . S
H310 C321 0.950 1_565 S
H311 C323 0.950 . S
H312 C324 0.950 . S
C313 H305 0.950 . S
C313 C314 1.386 . S
C313 C315 1.391 . S
C314 C313 1.386 . S
C314 C318 1.393 . S
C315 H307 0.950 . S
C315 C313 1.391 . S
C315 C316 1.400 . S
C316 C315 1.400 . S
C316 C317 1.398 . S
C316 C322 1.491 . S
C317 H308 0.950 . S
C317 C316 1.398 . S
C317 C318 1.391 . S
C318 H306 0.950 . S
C318 C314 1.393 . S
C318 C317 1.391 . S
C319 H309 0.950 . S
C319 C320 1.386 1_565 S
C319 C321 1.391 1_565 S
C320 C319 1.386 1_545 S
C320 C324 1.393 . S
C321 H310 0.950 1_545 S
C321 C319 1.391 1_545 S
C321 C322 1.400 . S
C322 C316 1.491 . S
C322 C321 1.400 . S
C322 C323 1.398 . S
C323 H311 0.950 . S
C323 C322 1.398 . S
C323 C324 1.391 . S
C324 H312 0.950 . S
C324 C320 1.393 . S
C324 C323 1.391 . S
H325 C333 0.950 . S
H326 C338 0.950 . S
H327 C335 0.950 . S
H328 C337 0.950 . S
H329 C339 0.950 . S
H330 C341 0.950 . S
H331 C343 0.950 . S
H332 C344 0.950 . S
C333 H325 0.950 . S
C333 C334 1.386 . S
C333 C335 1.391 . S
C334 C333 1.386 . S
C334 C338 1.393 . S
C335 H327 0.950 . S
C335 C333 1.391 . S
C335 C336 1.400 . S
C336 C335 1.400 . S
C336 C337 1.398 . S
C336 C342 1.491 . S
C337 H328 0.950 . S
C337 C336 1.398 . S
C337 C338 1.391 . S
C338 H326 0.950 . S
C338 C334 1.393 . S
C338 C337 1.391 . S
C339 H329 0.950 . S
C339 C340 1.386 . S
C339 C341 1.391 . S
C340 C339 1.386 . S
C340 C344 1.393 . S
C341 H330 0.950 . S
C341 C339 1.391 . S
C341 C342 1.400 . S
C342 C336 1.491 . S
C342 C341 1.400 . S
C342 C343 1.398 . S
C343 H331 0.950 . S
C343 C342 1.398 . S
C343 C344 1.391 . S
C344 H332 0.950 . S
C344 C340 1.393 . S
C344 C343 1.391 . S
H345 C353 0.950 . S
H346 C358 0.950 . S
H347 C355 0.950 . S
H348 C357 0.950 . S
H349 C359 0.950 . S
H350 C361 0.950 . S
H351 C363 0.950 . S
H352 C364 0.950 . S
C353 H345 0.950 . S
C353 C354 1.386 1_565 S
C353 C355 1.391 . S
C354 C353 1.386 1_545 S
C354 C358 1.393 . S
C355 H347 0.950 . S
C355 C353 1.391 . S
C355 C356 1.400 1_565 S
C356 C355 1.400 1_545 S
C356 C357 1.398 . S
C356 C362 1.491 . S
C357 H348 0.950 . S
C357 C356 1.398 . S
C357 C358 1.391 . S
C358 H346 0.950 . S
C358 C354 1.393 . S
C358 C357 1.391 . S
C359 H349 0.950 . S
C359 C360 1.386 . S
C359 C361 1.391 . S
C360 C359 1.386 . S
C360 C364 1.393 1_545 S
C361 H350 0.950 . S
C361 C359 1.391 . S
C361 C362 1.400 . S
C362 C356 1.491 . S
C362 C361 1.400 . S
C362 C363 1.398 1_545 S
C363 H351 0.950 . S
C363 C362 1.398 1_565 S
C363 C364 1.391 . S
C364 H352 0.950 . S
C364 C360 1.393 1_565 S
C364 C363 1.391 . S
H365 C373 0.950 . S
H366 C378 0.950 . S
H367 C375 0.950 . S
H368 C377 0.942 1_554 S
H369 C379 0.950 . S
H370 C381 0.950 . S
H371 C383 0.950 . S
H372 C384 0.950 . S
C373 H365 0.950 . S
C373 C374 1.386 1_556 S
C373 C375 1.391 . S
C374 C373 1.386 1_554 S
C374 C378 1.393 . S
C375 H367 0.950 . S
C375 C373 1.391 . S
C375 C376 1.400 . S
C376 C375 1.400 . S
C376 C377 1.427 . S
C376 C382 1.491 . S
C377 H368 0.942 1_556 S
C377 C376 1.427 . S
C377 C378 1.371 1_556 S
C378 H366 0.950 . S
C378 C374 1.393 . S
C378 C377 1.371 1_554 S
C379 H369 0.950 . S
C379 C380 1.386 . S
C379 C381 1.391 . S
C380 C379 1.386 . S
C380 C384 1.393 . S
C381 H370 0.950 . S
C381 C379 1.391 . S
C381 C382 1.400 . S
C382 C376 1.491 . S
C382 C381 1.400 . S
C382 C383 1.398 . S
C383 H371 0.950 . S
C383 C382 1.398 . S
C383 C384 1.391 . S
C384 H372 0.950 . S
C384 C380 1.393 . S
C384 C383 1.391 . S
H385 C393 0.950 . S
H386 C398 0.950 . S
H387 C395 0.950 . S
H388 C397 0.950 . S
H389 C399 0.950 . S
H390 C401 0.950 . S
H391 C403 0.950 . S
H392 C404 0.950 . S
C393 H385 0.950 . S
C393 C394 1.386 . S
C393 C395 1.391 . S
C394 C393 1.386 . S
C394 C398 1.393 . S
C395 H387 0.950 . S
C395 C393 1.391 . S
C395 C396 1.400 . S
C396 C395 1.400 . S
C396 C397 1.398 . S
C396 C402 1.491 . S
C397 H388 0.950 . S
C397 C396 1.398 . S
C397 C398 1.391 . S
C398 H386 0.950 . S
C398 C394 1.393 . S
C398 C397 1.391 . S
C399 H389 0.950 . S
C399 C400 1.386 . S
C399 C401 1.391 . S
C400 C399 1.386 . S
C400 C404 1.393 . S
C401 H390 0.950 . S
C401 C399 1.391 . S
C401 C402 1.400 . S
C402 C396 1.491 . S
C402 C401 1.400 . S
C402 C403 1.398 . S
C403 H391 0.950 . S
C403 C402 1.398 . S
C403 C404 1.391 . S
C404 H392 0.950 . S
C404 C400 1.393 . S
C404 C403 1.391 . S
H405 C413 0.950 . S
H406 C418 0.950 . S
H407 C415 0.950 . S
H408 C417 0.950 . S
H409 C419 0.950 . S
H410 C421 0.950 . S
H411 C423 0.950 . S
H412 C424 0.950 . S
C413 H405 0.950 . S
C413 C414 1.386 1_545 S
C413 C415 1.391 . S
C414 C413 1.386 1_565 S
C414 C418 1.393 . S
C415 H407 0.950 . S
C415 C413 1.391 . S
C415 C416 1.400 1_545 S
C416 C415 1.400 1_565 S
C416 C417 1.398 . S
C416 C422 1.489 . S
C417 H408 0.950 . S
C417 C416 1.398 . S
C417 C418 1.391 . S
C418 H406 0.950 . S
C418 C414 1.393 . S
C418 C417 1.391 . S
C419 H409 0.950 . S
C419 C420 1.386 1_565 S
C419 C421 1.391 . S
C420 C419 1.386 1_545 S
C420 C424 1.393 . S
C421 H410 0.950 . S
C421 C419 1.391 . S
C421 C422 1.402 . S
C422 C416 1.489 . S
C422 C421 1.402 . S
C422 C423 1.399 1_565 S
C423 H411 0.950 . S
C423 C422 1.399 1_545 S
C423 C424 1.391 . S
C424 H412 0.950 . S
C424 C420 1.393 . S
C424 C423 1.391 . S
H425 C433 0.943 1_554 S
H426 C438 0.961 . S
H427 C435 0.950 . S
H428 C437 0.950 . S
H429 C439 0.950 . S
H430 C441 0.950 . S
H431 C443 0.950 . S
H432 C444 0.950 . S
C433 H425 0.943 1_556 S
C433 C434 1.386 1_556 S
C433 C435 1.391 . S
C434 C433 1.386 1_554 S
C434 C438 1.399 . S
C435 H427 0.950 . S
C435 C433 1.391 . S
C435 C436 1.400 . S
C436 C435 1.400 . S
C436 C437 1.398 . S
C436 C442 1.491 . S
C437 H428 0.950 . S
C437 C436 1.398 . S
C437 C438 1.375 1_556 S
C438 H426 0.961 . S
C438 C434 1.399 . S
C438 C437 1.375 1_554 S
C439 H429 0.950 . S
C439 C440 1.386 . S
C439 C441 1.391 . S
C440 C439 1.386 . S
C440 C444 1.393 . S
C441 H430 0.950 . S
C441 C439 1.391 . S
C441 C442 1.400 . S
C442 C436 1.491 . S
C442 C441 1.400 . S
C442 C443 1.398 . S
C443 H431 0.950 . S
C443 C442 1.398 . S
C443 C444 1.391 . S
C444 H432 0.950 . S
C444 C440 1.393 . S
C444 C443 1.391 . S
H445 C453 0.950 . S
H446 C458 0.950 1_655 S
H447 C455 0.950 . S
H448 C457 0.950 . S
H449 C459 0.950 . S
H450 C461 0.950 . S
H451 C463 0.950 . S
H452 C464 0.950 . S
C453 H445 0.950 . S
C453 C454 1.386 . S
C453 C455 1.391 . S
C454 C453 1.386 . S
C454 C458 1.393 . S
C455 H447 0.950 . S
C455 C453 1.391 . S
C455 C456 1.400 . S
C456 C455 1.400 . S
C456 C457 1.398 1_455 S
C456 C462 1.491 . S
C457 H448 0.950 . S
C457 C456 1.398 1_655 S
C457 C458 1.391 1_655 S
C458 H446 0.950 1_455 S
C458 C454 1.393 . S
C458 C457 1.391 1_455 S
C459 H449 0.950 . S
C459 C460 1.386 1_655 S
C459 C461 1.391 . S
C460 C459 1.386 1_455 S
C460 C464 1.393 . S
C461 H450 0.950 . S
C461 C459 1.391 . S
C461 C462 1.400 1_655 S
C462 C456 1.491 . S
C462 C461 1.400 1_455 S
C462 C463 1.398 . S
C463 H451 0.950 . S
C463 C462 1.398 . S
C463 C464 1.391 . S
C464 H452 0.950 . S
C464 C460 1.393 . S
C464 C463 1.391 . S
C240 C92 1.259 . S
C234 C10 1.274 . S
C254 C21 1.309 . S
C260 C136 1.324 . S
C274 C31 1.290 . S
C280 C198 1.345 . S
C294 C0 1.243 . S
C300 C74 1.306 . S
C320 C154 1.330 . S
C314 C18 1.286 . S
C334 C34 1.269 . S
C340 C216 1.306 . S
C360 C130 1.460 . S
C354 C36 1.577 . S
C374 C8 1.615 . S
C380 C192 1.545 . S
C400 C68 1.515 . S
C394 C23 1.609 . S
C420 C148 1.475 . S
C414 C26 1.561 . S
C440 C210 1.559 . S
C434 C5 1.579 . S
C454 C13 1.599 . S
C460 C86 1.556 . S
