# Generated by pormake.
# Topology rtl, (3,6)-cn, num edge types: 1
# Building blocks:
#     Node 0, Type 0, BuildingBlock: VETTIZ_charged_linker_0, # of connection points: 3
#     Node 1, Type 0, BuildingBlock: VETTIZ_charged_linker_0, # of connection points: 3
#     Node 2, Type 0, BuildingBlock: VETTIZ_charged_linker_0, # of connection points: 3
#     Node 3, Type 0, BuildingBlock: VETTIZ_charged_linker_0, # of connection points: 3
#     Node 4, Type 1, BuildingBlock: CIFDUS_clean_sbu_1, # of connection points: 6
#     Node 5, Type 1, BuildingBlock: CIFDUS_clean_sbu_1, # of connection points: 6
#     Edge 6, Type (0, 1), BuildingBlock: CIFDUS_clean_linker_0, # of connection points: 2
#     Edge 7, Type (0, 1), BuildingBlock: CIFDUS_clean_linker_0, # of connection points: 2
#     Edge 8, Type (0, 1), BuildingBlock: CIFDUS_clean_linker_0, # of connection points: 2
#     Edge 9, Type (0, 1), BuildingBlock: CIFDUS_clean_linker_0, # of connection points: 2
#     Edge 10, Type (0, 1), BuildingBlock: CIFDUS_clean_linker_0, # of connection points: 2
#     Edge 11, Type (0, 1), BuildingBlock: CIFDUS_clean_linker_0, # of connection points: 2
#     Edge 12, Type (0, 1), BuildingBlock: CIFDUS_clean_linker_0, # of connection points: 2
#     Edge 13, Type (0, 1), BuildingBlock: CIFDUS_clean_linker_0, # of connection points: 2
#     Edge 14, Type (0, 1), BuildingBlock: CIFDUS_clean_linker_0, # of connection points: 2
#     Edge 15, Type (0, 1), BuildingBlock: CIFDUS_clean_linker_0, # of connection points: 2
#     Edge 16, Type (0, 1), BuildingBlock: CIFDUS_clean_linker_0, # of connection points: 2
#     Edge 17, Type (0, 1), BuildingBlock: CIFDUS_clean_linker_0, # of connection points: 2
# Relax obj value: 0.030
# Max RMSD: 0.064
# Mean RMSD: 0.050
data_MOF--net-rtl--node1-CIFDUS_clean_sbu_1--node2-VETTIZ_charged_linker_0--edge1-CIFDUS_clean_linker_0
_symmetry_space_group_name_H-M    P1
_symmetry_Int_Tables_number       1
_symmetry_cell_setting            triclinic
loop_
_symmetry_equiv_pos_as_xyz
'x, y, z'
_cell_length_a     33.051055
_cell_length_b     37.55638
_cell_length_c     26.417963
_cell_angle_alpha  90.048169
_cell_angle_beta   97.923303
_cell_angle_gamma 89.886017
loop_
_atom_site_label
_atom_site_type_symbol
_atom_site_fract_x
_atom_site_fract_y
_atom_site_fract_z
_atom_type_partial_charge
C0 C 0.24023 0.92088 0.91851 0.0
C1 C 0.20983 0.94734 0.9092 0.0
C2 C 0.20322 0.97048 0.94929 0.0
C3 C 0.25106 0.93691 0.00861 0.0
C4 C 0.26041 0.91608 0.96863 0.0
C5 C 0.29071 0.88718 0.98713 0.0
H6 H 0.38025 0.78572 0.18452 0.0
C7 C 0.27151 0.92148 0.057 0.0
C8 C 0.2948 0.89219 0.04494 0.0
H9 H 0.39288 0.77643 0.0246 0.0
H10 H 0.35236 0.82973 1.00574 0.0
H11 H 0.39135 0.87582 0.18924 0.0
H12 H 0.28717 0.80551 0.16963 0.0
H13 H 0.27551 0.84148 0.2075 0.0
H14 H 0.31715 0.81207 0.23091 0.0
H15 H 0.37985 0.84553 0.2379 0.0
H16 H 0.3562 0.88878 0.23052 0.0
C17 C 0.33128 0.89544 0.96642 0.0
C18 C 0.27162 0.8508 0.96976 0.0
C19 C 0.22804 0.96554 0.22215 0.0
C20 C 0.22998 0.95057 0.27115 0.0
C21 C 0.25703 0.92186 0.28416 0.0
C22 C 0.27914 0.9067 0.24742 0.0
C23 C 0.27345 0.91995 0.19697 0.0
C24 C 0.24861 0.94929 0.18556 0.0
C25 C 0.24154 0.9575 0.12947 0.0
C26 C 0.26705 0.92882 0.1087 0.0
C27 C 0.28598 0.90691 0.14822 0.0
C28 C 0.25861 0.99517 0.12157 0.0
C29 C 0.19508 0.95305 0.11047 0.0
C30 C 0.37416 0.79535 0.14558 0.0
C31 C 0.38911 0.77683 0.10576 0.0
C32 C 0.38118 0.79022 0.05561 0.0
C33 C 0.35772 0.82112 0.04479 0.0
C34 C 0.34172 0.83882 0.08452 0.0
C35 C 0.35085 0.82645 0.13415 0.0
C36 C 0.33183 0.84933 0.17147 0.0
C37 C 0.31008 0.87743 0.13616 0.0
C38 C 0.31532 0.87069 0.085 0.0
C39 C 0.36644 0.8657 0.20969 0.0
C40 C 0.30148 0.82608 0.19667 0.0
H41 H 0.21635 0.98346 0.02767 0.0
H42 H 0.24634 0.90304 0.88824 0.0
H43 H 0.23878 0.85011 0.97493 0.0
H44 H 0.28573 0.82813 0.99202 0.0
H45 H 0.27363 0.8459 0.92871 0.0
H46 H 0.33639 0.92467 0.9646 0.0
H47 H 0.3311 0.8846 0.92725 0.0
H48 H 0.35831 0.88518 0.99149 0.0
H49 H 0.20791 0.98782 0.2109 0.0
H50 H 0.25918 0.90975 0.32163 0.0
H51 H 0.29824 0.88417 0.25897 0.0
H52 H 0.28732 0.99985 0.14807 0.0
H53 H 0.2364 0.0161 0.12907 0.0
H54 H 0.267 0.99901 0.08286 0.0
H55 H 0.18041 0.93442 0.13514 0.0
H56 H 0.18875 0.94099 0.07208 0.0
H57 H 0.17868 0.97889 0.11046 0.0
H58 H 0.1809 0.99174 0.94274 0.0
C59 C 0.22383 0.9656 0.99867 0.0
C60 C 0.72623 0.61889 0.75545 0.0
C61 C 0.69952 0.58972 0.75524 0.0
C62 C 0.69129 0.56889 0.71072 0.0
C63 C 0.73032 0.60955 0.6652 0.0
C64 C 0.74172 0.62803 0.71018 0.0
C65 C 0.76822 0.65966 0.70223 0.0
H66 H 0.85501 0.76662 0.53957 0.0
C67 C 0.74623 0.62885 0.62324 0.0
C68 C 0.76945 0.6578 0.64488 0.0
H69 H 0.85951 0.77834 0.70271 0.0
H70 H 0.82038 0.72404 0.70623 0.0
H71 H 0.86633 0.67943 0.53623 0.0
H72 H 0.76155 0.74875 0.52108 0.0
H73 H 0.7502 0.71428 0.47676 0.0
H74 H 0.79257 0.74341 0.47094 0.0
H75 H 0.85203 0.7069 0.48105 0.0
H76 H 0.8308 0.66299 0.48594 0.0
C77 C 0.81087 0.65322 0.73313 0.0
C78 C 0.74651 0.69383 0.71756 0.0
C79 C 0.69351 0.59756 0.43773 0.0
C80 C 0.70254 0.61092 0.39083 0.0
C81 C 0.73276 0.63728 0.39099 0.0
C82 C 0.75287 0.65103 0.43709 0.0
C83 C 0.7429 0.63818 0.4838 0.0
C84 C 0.71439 0.61124 0.48367 0.0
C85 C 0.70995 0.59919 0.53709 0.0
C86 C 0.7389 0.62464 0.56916 0.0
C87 C 0.75766 0.64774 0.53767 0.0
C88 C 0.72442 0.55992 0.54353 0.0
C89 C 0.66499 0.60511 0.54538 0.0
C90 C 0.84803 0.75705 0.57606 0.0
C91 C 0.86069 0.77635 0.62109 0.0
C92 C 0.85024 0.76368 0.66771 0.0
C93 C 0.82752 0.73219 0.66957 0.0
C94 C 0.81433 0.71343 0.6241 0.0
C95 C 0.82459 0.72604 0.57834 0.0
C96 C 0.80556 0.7042 0.53343 0.0
C97 C 0.78286 0.67602 0.55973 0.0
C98 C 0.78837 0.68132 0.61295 0.0
C99 C 0.84027 0.68759 0.50728 0.0
C100 C 0.77609 0.7287 0.49828 0.0
H101 H 0.6978 0.56256 0.63249 0.0
H102 H 0.73241 0.63571 0.78894 0.0
H103 H 0.71279 0.69147 0.70766 0.0
H104 H 0.75465 0.71774 0.69692 0.0
H105 H 0.75325 0.69879 0.75932 0.0
H106 H 0.82021 0.62488 0.73027 0.0
H107 H 0.81076 0.65941 0.77424 0.0
H108 H 0.8352 0.66876 0.71876 0.0
H109 H 0.67129 0.57647 0.43853 0.0
H110 H 0.74064 0.6474 0.35522 0.0
H111 H 0.77539 0.67125 0.43459 0.0
H112 H 0.74471 0.55234 0.51497 0.0
H113 H 0.69814 0.54124 0.53883 0.0
H114 H 0.74306 0.55512 0.5811 0.0
H115 H 0.65486 0.63249 0.53355 0.0
H116 H 0.66009 0.60237 0.58559 0.0
H117 H 0.64452 0.58595 0.52232 0.0
H118 H 0.67027 0.5467 0.70959 0.0
C119 C 0.70666 0.57855 0.66578 0.0
C120 C 0.80587 0.12633 0.18613 0.0
C121 C 0.83311 0.09764 0.19668 0.0
C122 C 0.84508 0.07795 0.15587 0.0
C123 C 0.80357 0.11567 0.09484 0.0
C124 C 0.79126 0.13468 0.13491 0.0
C125 C 0.761 0.16347 0.11619 0.0
H126 H 0.66247 0.26024 0.919 0.0
C127 C 0.78363 0.13143 0.04636 0.0
C128 C 0.75867 0.15955 0.05842 0.0
H129 H 0.65323 0.26956 0.07989 0.0
H130 H 0.69966 0.22012 0.09861 0.0
H131 H 0.76116 0.24409 0.93257 0.0
H132 H 0.65821 0.17219 0.91634 0.0
H133 H 0.69346 0.15847 0.87581 0.0
H134 H 0.66862 0.2011 0.86554 0.0
H135 H 0.72728 0.23991 0.87359 0.0
H136 H 0.76973 0.20993 0.88977 0.0
C137 C 0.77945 0.19966 0.1355 0.0
C138 C 0.71972 0.15444 0.13477 0.0
C139 C 0.82631 0.08779 0.88058 0.0
C140 C 0.82125 0.1015 0.83076 0.0
C141 C 0.79195 0.12844 0.81762 0.0
C142 C 0.77017 0.14321 0.85495 0.0
C143 C 0.7784 0.13126 0.90596 0.0
C144 C 0.80541 0.10332 0.9175 0.0
C145 C 0.81364 0.09575 0.97372 0.0
C146 C 0.78746 0.12386 0.99457 0.0
C147 C 0.7665 0.14458 0.95494 0.0
C148 C 0.85996 0.10161 0.99175 0.0
C149 C 0.79816 0.05766 0.98268 0.0
C150 C 0.67088 0.25163 0.95815 0.0
C151 C 0.65476 0.26893 0.99823 0.0
C152 C 0.66568 0.25673 0.04864 0.0
C153 C 0.69256 0.22799 0.05938 0.0
C154 C 0.70876 0.21097 0.01925 0.0
C155 C 0.69753 0.22249 0.96951 0.0
C156 C 0.71701 0.20018 0.93185 0.0
C157 C 0.74129 0.17334 0.96711 0.0
C158 C 0.73687 0.1803 0.01846 0.0
C159 C 0.74515 0.22461 0.90505 0.0
C160 C 0.68272 0.18207 0.89503 0.0
H161 H 0.84093 0.07068 0.07597 0.0
H162 H 0.79543 0.14125 0.21697 0.0
H163 H 0.71542 0.12512 0.13709 0.0
H164 H 0.69309 0.16376 0.1081 0.0
H165 H 0.71811 0.16567 0.17335 0.0
H166 H 0.81256 0.20071 0.13178 0.0
H167 H 0.77634 0.20379 0.17644 0.0
H168 H 0.7657 0.22257 0.11337 0.0
H169 H 0.84918 0.06752 0.89182 0.0
H170 H 0.78797 0.13969 0.77951 0.0
H171 H 0.74928 0.16453 0.84326 0.0
H172 H 0.87291 0.12192 0.96789 0.0
H173 H 0.87758 0.07661 0.98927 0.0
H174 H 0.86642 0.11228 0.03099 0.0
H175 H 0.76952 0.0519 0.95658 0.0
H176 H 0.7901 0.05385 0.02154 0.0
H177 H 0.82112 0.03732 0.97543 0.0
H178 H 0.86558 0.05543 0.16338 0.0
C179 C 0.83055 0.08678 0.10516 0.0
C180 C 0.26987 0.43062 0.33091 0.0
C181 C 0.29842 0.45821 0.33003 0.0
C182 C 0.30641 0.48094 0.37259 0.0
C183 C 0.26388 0.4444 0.41946 0.0
C184 C 0.25264 0.42442 0.37583 0.0
C185 C 0.22462 0.39426 0.38515 0.0
H186 H 0.14525 0.28712 0.55178 0.0
C187 C 0.24691 0.42708 0.46232 0.0
C188 C 0.22288 0.39823 0.44214 0.0
H189 H 0.13262 0.27863 0.38744 0.0
H190 H 0.1673 0.3349 0.38262 0.0
H191 H 0.23271 0.30571 0.56633 0.0
H192 H 0.13156 0.37871 0.55739 0.0
H193 H 0.16838 0.39055 0.60967 0.0
H194 H 0.14457 0.34736 0.6084 0.0
H195 H 0.20793 0.31539 0.62101 0.0
H196 H 0.24994 0.34185 0.60518 0.0
C197 C 0.24526 0.35883 0.37253 0.0
C198 C 0.18246 0.40118 0.35305 0.0
C199 C 0.30681 0.45782 0.64474 0.0
C200 C 0.30431 0.4414 0.69222 0.0
C201 C 0.27417 0.41506 0.69447 0.0
C202 C 0.24903 0.40381 0.65004 0.0
C203 C 0.25437 0.41851 0.60244 0.0
C204 C 0.28213 0.44577 0.60059 0.0
C205 C 0.28499 0.45738 0.54664 0.0
C206 C 0.25523 0.43188 0.51623 0.0
C207 C 0.23741 0.40906 0.54912 0.0
C208 C 0.32965 0.45127 0.53673 0.0
C209 C 0.27033 0.49654 0.54028 0.0
C210 C 0.14904 0.29804 0.51479 0.0
C211 C 0.13594 0.27879 0.46979 0.0
C212 C 0.1423 0.2932 0.42241 0.0
C213 C 0.16263 0.32577 0.41981 0.0
C214 C 0.17778 0.34376 0.4652 0.0
C215 C 0.17011 0.33031 0.51167 0.0
C216 C 0.19067 0.352 0.55598 0.0
C217 C 0.21155 0.38078 0.52842 0.0
C218 C 0.20402 0.37567 0.47523 0.0
C219 C 0.22177 0.32769 0.58926 0.0
C220 C 0.15723 0.36795 0.58484 0.0
H221 H 0.29759 0.49165 0.4492 0.0
H222 H 0.26358 0.41262 0.29873 0.0
H223 H 0.17634 0.43021 0.34812 0.0
H224 H 0.15683 0.39107 0.37177 0.0
H225 H 0.18085 0.38927 0.31433 0.0
H226 H 0.27868 0.35968 0.38592 0.0
H227 H 0.24102 0.35381 0.3307 0.0
H228 H 0.23412 0.3355 0.39172 0.0
H229 H 0.32862 0.47889 0.64153 0.0
H230 H 0.27117 0.4019 0.7302 0.0
H231 H 0.22741 0.38309 0.65414 0.0
H232 H 0.34115 0.42508 0.55235 0.0
H233 H 0.35017 0.47224 0.55548 0.0
H234 H 0.33333 0.45051 0.49602 0.0
H235 H 0.24722 0.50277 0.5659 0.0
H236 H 0.2547 0.50218 0.50131 0.0
H237 H 0.29613 0.5154 0.5496 0.0
H238 H 0.32863 0.50213 0.3727 0.0
C239 C 0.28894 0.4744 0.41716 0.0
O240 O 0.98401 0.04256 0.49193 0.0
Mn241 Mn 0.02369 0.01833 0.55273 0.0
O242 O 0.95962 0.99805 0.44088 0.0
Mn243 Mn 0.99614 0.96596 0.47233 0.0
O244 O 0.06298 0.99356 0.6131 0.0
O245 O 0.04742 0.06891 0.56585 0.0
Mn246 Mn 0.06183 0.06828 0.6329 0.0
O247 O 0.97986 0.02885 0.6018 0.0
O248 O 0.10298 0.03612 0.65044 0.0
O249 O 0.06976 0.0096 0.50573 0.0
O250 O 0.04686 0.96603 0.45194 0.0
O251 O 0.07619 0.11231 0.61561 0.0
O252 O 0.01472 0.06304 0.66264 0.0
C253 C 0.98293 0.93518 0.53188 0.0
C254 C 0.96014 0.03063 0.45297 0.0
C255 C 0.09506 1.00359 0.64275 0.0
C256 C 0.06147 0.10158 0.57018 0.0
C257 C 0.98224 0.04678 0.64379 0.0
C258 C 0.07451 0.98773 0.4696 0.0
O259 O 0.9987 0.96734 0.54008 0.0
O260 O 0.97575 0.92372 0.48519 0.0
O261 O 0.53858 0.54313 0.10878 0.0
Mn262 Mn 0.50238 0.51843 0.04567 0.0
O263 O 0.56959 0.49934 0.15701 0.0
Mn264 Mn 0.53625 0.46479 0.12479 0.0
O265 O 0.46424 0.49497 0.98247 0.0
O266 O 0.47165 0.56532 0.03196 0.0
Mn267 Mn 0.46607 0.57268 0.96529 0.0
O268 O 0.54718 0.53191 0.99875 0.0
O269 O 0.42716 0.53969 0.94187 0.0
O270 O 0.45771 0.50487 0.09269 0.0
O271 O 0.48518 0.46144 0.14432 0.0
O272 O 0.46076 0.61629 0.99434 0.0
O273 O 0.51436 0.56753 0.93897 0.0
C274 C 0.55102 0.43918 0.05999 0.0
C275 C 0.56399 0.53212 0.14704 0.0
C276 C 0.4344 0.50667 0.94958 0.0
C277 C 0.47004 0.59967 0.03727 0.0
C278 C 0.54617 0.55072 0.95789 0.0
C279 C 0.45547 0.48185 0.12833 0.0
O280 O 0.53212 0.47004 0.05756 0.0
O281 O 0.55976 0.42493 0.10485 0.0
H282 H 0.06426 0.25583 0.49912 0.0
H283 H 0.17482 0.21892 0.4469 0.0
H284 H 0.1562 0.15711 0.46157 0.0
H285 H 0.11403 0.11482 0.50286 0.0
H286 H 1.00286 0.15135 0.55343 0.0
H287 H 0.01503 0.21159 0.52419 0.0
C288 C 0.08375 0.2341 0.49014 0.0
C289 C 0.12109 0.24172 0.4727 0.0
C290 C 0.07249 0.19852 0.49793 0.0
C291 C 0.14606 0.21352 0.46068 0.0
C292 C 0.1354 0.17822 0.46902 0.0
C293 C 0.09131 0.13552 0.50458 0.0
C294 C 0.05727 0.12853 0.52945 0.0
C295 C 0.09929 0.17042 0.4891 0.0
C296 C 0.02872 0.15589 0.53312 0.0
C297 C 0.0362 0.19058 0.5175 0.0
H298 H 0.36015 0.70952 0.10987 0.0
H299 H 0.47148 0.77004 0.12068 0.0
H300 H 0.51107 0.71509 0.11698 0.0
H301 H 0.51128 0.65215 0.09093 0.0
H302 H 0.39982 0.59185 0.07706 0.0
H303 H 0.36313 0.64369 0.10332 0.0
C304 C 0.39321 0.71039 0.11308 0.0
C305 C 0.41305 0.74357 0.11527 0.0
C306 C 0.41565 0.67865 0.11016 0.0
C307 C 0.45576 0.74469 0.11886 0.0
C308 C 0.47831 0.7133 0.11663 0.0
C309 C 0.47959 0.64976 0.09703 0.0
C310 C 0.45833 0.61821 0.08211 0.0
C311 C 0.45837 0.6803 0.10987 0.0
C312 C 0.41708 0.61559 0.08926 0.0
C313 C 0.3958 0.64563 0.10292 0.0
H314 H 0.93833 0.78669 0.60129 0.0
H315 H 0.83179 0.8428 0.63576 0.0
H316 H 0.86438 0.90002 0.62222 0.0
H317 H 0.91953 0.93326 0.58776 0.0
H318 H 0.0269 0.87666 0.55718 0.0
H319 H 0.99848 0.82081 0.58316 0.0
C320 C 0.92267 0.81153 0.60665 0.0
C321 C 0.8826 0.81069 0.61878 0.0
C322 C 0.94196 0.8443 0.59984 0.0
C323 C 0.86258 0.84293 0.62605 0.0
C324 C 0.88124 0.87562 0.61836 0.0
C325 C 0.93766 0.90906 0.58983 0.0
C326 C 0.97571 0.9093 0.57159 0.0
C327 C 0.92058 0.87666 0.60394 0.0
C328 C 0.99815 0.87739 0.57257 0.0
C329 C 0.98147 0.84522 0.58631 0.0
H330 H 0.67018 0.33858 0.9788 0.0
H331 H 0.57341 0.2657 0.99961 0.0
H332 H 0.52632 0.31551 1.00435 0.0
H333 H 0.51746 0.37893 0.02109 0.0
H334 H 0.61558 0.45206 0.00912 0.0
H335 H 0.65668 0.40378 0.97997 0.0
C336 C 0.63839 0.33378 0.98261 0.0
C337 C 0.62508 0.29864 0.98879 0.0
C338 C 0.61174 0.36277 0.98682 0.0
C339 C 0.58411 0.29255 0.99459 0.0
C340 C 0.55727 0.32104 0.99746 0.0
C341 C 0.5469 0.38462 0.00909 0.0
C342 C 0.56326 0.41907 0.01666 0.0
C343 C 0.57123 0.35623 0.99589 0.0
C344 C 0.60189 0.42599 1.00244 0.0
C345 C 0.62582 0.3981 0.98706 0.0
H346 H 0.23845 0.96174 0.37625 0.0
H347 H 0.14991 0.9619 0.23949 0.0
H348 H 0.09655 0.97885 0.28861 0.0
H349 H 0.07304 0.98967 0.36948 0.0
H350 H 0.15677 0.98648 0.50941 0.0
H351 H 0.21397 0.97542 0.46031 0.0
C352 C 0.2075 0.96564 0.35741 0.0
C353 C 0.19862 0.96122 0.30386 0.0
C354 C 0.17606 0.975 0.38638 0.0
C355 C 0.15817 0.96612 0.28017 0.0
C356 C 0.12736 0.97561 0.30828 0.0
C357 C 0.10397 0.98711 0.38925 0.0
C358 C 0.11081 0.98884 0.4427 0.0
C359 C 0.13584 0.9798 0.36118 0.0
C360 C 0.15092 0.98564 0.46806 0.0
C361 C 0.18343 0.97887 0.43999 0.0
H362 H 0.70521 0.54956 0.84443 0.0
H363 H 0.62935 0.62437 0.75046 0.0
H364 H 0.57649 0.61917 0.80553 0.0
H365 H 0.55081 0.59283 0.87676 0.0
H366 H 0.6229 0.51756 0.97463 0.0
H367 H 0.67878 0.52396 0.92224 0.0
C368 C 0.67725 0.56493 0.83678 0.0
C369 C 0.67103 0.58756 0.79369 0.0
C370 C 0.64652 0.56173 0.86904 0.0
C371 C 0.63474 0.60716 0.78364 0.0
C372 C 0.60451 0.60408 0.81498 0.0
C373 C 0.57858 0.57756 0.88729 0.0
C374 C 0.58215 0.55434 0.9296 0.0
C375 C 0.60992 0.58129 0.85729 0.0
C376 C 0.61897 0.53541 0.94216 0.0
C377 C 0.65091 0.53909 0.91211 0.0
H378 H 0.88646 0.13027 0.27118 0.0
H379 H 0.81108 0.0372 0.2393 0.0
H380 H 0.8393 0.01137 0.32133 0.0
H381 H 0.88996 0.01206 0.39656 0.0
H382 H 0.97137 0.10136 0.42766 0.0
H383 H 0.93523 0.13272 0.3528 0.0
C384 C 0.87578 0.10472 0.28302 0.0
C385 C 0.84665 0.08557 0.24962 0.0
C386 C 0.89314 0.08952 0.32998 0.0
C387 C 0.8333 0.05231 0.26463 0.0
C388 C 0.84947 0.03757 0.31141 0.0
C389 C 0.89956 0.03867 0.38757 0.0
C390 C 0.93363 0.05416 0.4173 0.0
C391 C 0.88006 0.05549 0.34363 0.0
C392 C 0.94518 0.08885 0.40552 0.0
C393 C 0.92481 0.10654 0.36233 0.0
H394 H 0.29286 0.44501 0.79364 0.0
H395 H 0.38549 0.45629 0.69426 0.0
H396 H 0.43556 0.47209 0.76695 0.0
H397 H 0.45231 0.48714 0.85788 0.0
H398 H 0.36057 0.47716 0.9577 0.0
H399 H 0.31155 0.45486 0.8865 0.0
C400 C 0.3241 0.45037 0.78786 0.0
C401 C 0.33486 0.45 0.73794 0.0
C402 C 0.35326 0.45904 0.83027 0.0
C403 C 0.37566 0.45737 0.73166 0.0
C404 C 0.40464 0.46599 0.77344 0.0
C405 C 0.42206 0.47864 0.86431 0.0
C406 C 0.41035 0.48259 0.91312 0.0
C407 C 0.39373 0.46733 0.82279 0.0
C408 C 0.37058 0.47311 0.92075 0.0
C409 C 0.3424 0.46099 0.87983 0.0
H410 H 0.62275 0.61776 0.3483 0.0
H411 H 0.73786 0.57203 0.32273 0.0
H412 H 0.70601 0.54696 0.24135 0.0
H413 H 0.64456 0.53483 0.18023 0.0
H414 H 0.52969 0.58235 0.20246 0.0
H415 H 0.5621 0.61056 0.28171 0.0
C416 C 0.64067 0.60234 0.32467 0.0
C417 C 0.68242 0.59625 0.34155 0.0
C418 C 0.62228 0.58876 0.27716 0.0
C419 C 0.70563 0.57673 0.31052 0.0
C420 C 0.68747 0.56253 0.26399 0.0
C421 C 0.62699 0.55233 0.20165 0.0
C422 C 0.58502 0.55705 0.18521 0.0
C423 C 0.6458 0.56813 0.24713 0.0
C424 C 0.56228 0.57915 0.21369 0.0
C425 C 0.5807 0.59477 0.25941 0.0
H426 H 0.81507 0.06842 0.7359 0.0
H427 H 0.90002 0.11737 0.85423 0.0
H428 H 0.95663 0.10287 0.80821 0.0
H429 H 0.98242 0.07646 0.73651 0.0
H430 H 0.90087 0.02791 0.61429 0.0
H431 H 0.84259 0.04129 0.66015 0.0
C432 C 0.846 0.076 0.75108 0.0
C433 C 0.85353 0.09383 0.7985 0.0
C434 C 0.87895 0.06728 0.72422 0.0
C435 C 0.89364 0.10348 0.81802 0.0
C436 C 0.92602 0.09514 0.79181 0.0
C437 C 0.95202 0.06862 0.71939 0.0
C438 C 0.94626 0.05124 0.67171 0.0
C439 C 0.91908 0.07692 0.74523 0.0
C440 C 0.90639 0.04119 0.65099 0.0
C441 C 0.87302 0.04907 0.6771 0.0
H442 H 0.29715 0.4961 0.24013 0.0
H443 H 0.36542 0.41833 0.33721 0.0
H444 H 0.41842 0.41736 0.2816 0.0
H445 H 0.4467 0.43992 0.20891 0.0
H446 H 0.38196 0.51891 0.11012 0.0
H447 H 0.32562 0.51747 0.16204 0.0
C448 C 0.32352 0.47879 0.24844 0.0
C449 C 0.32759 0.45715 0.29243 0.0
C450 C 0.35425 0.4785 0.21608 0.0
C451 C 0.36177 0.43492 0.30331 0.0
C452 C 0.39203 0.43443 0.27163 0.0
C453 C 0.4203 0.45683 0.19807 0.0
C454 C 0.41893 0.47973 0.15563 0.0
C455 C 0.38878 0.4563 0.22834 0.0
C456 C 0.38408 0.50116 0.14267 0.0
C457 C 0.3519 0.5004 0.17249 0.0
H458 H 0.23036 0.94931 0.81197 0.0
H459 H 0.12723 0.95005 0.89577 0.0
H460 H 0.08085 0.9597 0.81693 0.0
H461 H 0.07035 0.97588 0.7263 0.0
H462 H 0.1732 0.98098 0.64303 0.0
H463 H 0.21864 0.95985 0.71834 0.0
C464 C 0.19768 0.95097 0.81265 0.0
C465 C 0.18232 0.9495 0.85973 0.0
C466 C 0.17104 0.95722 0.76698 0.0
C467 C 0.13988 0.95178 0.86013 0.0
C468 C 0.11327 0.95709 0.81502 0.0
C469 C 0.10241 0.97075 0.72415 0.0
C470 C 0.11835 0.97894 0.67903 0.0
C471 C 0.12855 0.96079 0.76843 0.0
C472 C 0.1602 0.97381 0.67709 0.0
C473 C 0.18624 0.96234 0.72042 0.0
loop_
_geom_bond_atom_site_label_1
_geom_bond_atom_site_label_2
_geom_bond_distance
_geom_bond_site_symmetry_2
_ccdc_geom_bond_type
C0 C1 1.391 . S
C0 C4 1.391 . S
C0 H42 0.948 . S
C1 C0 1.391 . S
C1 C2 1.391 . S
C2 C1 1.391 . S
C2 H58 0.947 . S
C2 C59 1.392 . S
C3 C4 1.391 1_554 S
C3 C7 1.397 . S
C3 C59 1.419 1_554 S
C4 C0 1.391 . S
C4 C3 1.391 1_556 S
C4 C5 1.399 . S
C5 C4 1.399 . S
C5 C8 1.396 1_556 S
C5 C17 1.453 . S
C5 C18 1.684 . S
H6 C30 0.948 . S
C7 C3 1.397 . S
C7 C8 1.394 . S
C7 C26 1.723 . S
C8 C5 1.396 1_554 S
C8 C7 1.394 . S
C8 C38 1.723 . S
H9 C32 0.947 . S
H10 C33 0.959 . S
H11 C39 0.982 . S
H12 C40 0.979 . S
H13 C40 0.980 . S
H14 C40 0.983 . S
H15 C39 0.979 . S
H16 C39 0.977 . S
C17 C5 1.453 . S
C17 H46 0.982 . S
C17 H47 0.979 . S
C17 H48 0.977 . S
C18 C5 1.684 . S
C18 H43 0.979 . S
C18 H44 0.980 . S
C18 H45 0.983 . S
C19 C20 1.391 . S
C19 C24 1.391 . S
C19 H49 0.948 . S
C20 C19 1.391 . S
C20 C21 1.391 . S
C21 C20 1.391 . S
C21 C22 1.392 . S
C21 H50 0.947 . S
C22 C21 1.392 . S
C22 C23 1.419 . S
C22 H51 0.948 . S
C23 C22 1.419 . S
C23 C24 1.391 . S
C23 C27 1.397 . S
C24 C19 1.391 . S
C24 C23 1.391 . S
C24 C25 1.399 . S
C25 C24 1.399 . S
C25 C26 1.396 . S
C25 C28 1.453 . S
C25 C29 1.684 . S
C26 C7 1.723 . S
C26 C25 1.396 . S
C26 C27 1.394 . S
C27 C23 1.397 . S
C27 C26 1.394 . S
C27 C37 1.723 . S
C28 C25 1.453 . S
C28 H52 0.982 . S
C28 H53 0.979 . S
C28 H54 0.977 . S
C29 C25 1.684 . S
C29 H55 0.979 . S
C29 H56 0.980 . S
C29 H57 0.983 . S
C30 H6 0.948 . S
C30 C31 1.391 . S
C30 C35 1.391 . S
C31 C30 1.391 . S
C31 C32 1.391 . S
C32 H9 0.947 . S
C32 C31 1.391 . S
C32 C33 1.392 . S
C33 H10 0.959 . S
C33 C32 1.392 . S
C33 C34 1.419 . S
C34 C33 1.419 . S
C34 C35 1.391 . S
C34 C38 1.397 . S
C35 C30 1.391 . S
C35 C34 1.391 . S
C35 C36 1.399 . S
C36 C35 1.399 . S
C36 C37 1.396 . S
C36 C39 1.453 . S
C36 C40 1.684 . S
C37 C27 1.723 . S
C37 C36 1.396 . S
C37 C38 1.394 . S
C38 C8 1.723 . S
C38 C34 1.397 . S
C38 C37 1.394 . S
C39 H11 0.982 . S
C39 H15 0.979 . S
C39 H16 0.977 . S
C39 C36 1.453 . S
C40 H12 0.979 . S
C40 H13 0.980 . S
C40 H14 0.983 . S
C40 C36 1.684 . S
H41 C59 0.948 1_554 S
H42 C0 0.948 . S
H43 C18 0.979 . S
H44 C18 0.980 . S
H45 C18 0.983 . S
H46 C17 0.982 . S
H47 C17 0.979 . S
H48 C17 0.977 . S
H49 C19 0.948 . S
H50 C21 0.947 . S
H51 C22 0.948 . S
H52 C28 0.982 . S
H53 C28 0.979 . S
H54 C28 0.977 . S
H55 C29 0.979 . S
H56 C29 0.980 . S
H57 C29 0.983 . S
H58 C2 0.947 . S
C59 C2 1.392 . S
C59 C3 1.419 1_556 S
C59 H41 0.948 1_556 S
C60 C61 1.391 . S
C60 C64 1.391 . S
C60 H102 0.948 . S
C61 C60 1.391 . S
C61 C62 1.391 . S
C62 C61 1.391 . S
C62 H118 0.947 . S
C62 C119 1.392 . S
C63 C64 1.391 . S
C63 C67 1.397 . S
C63 C119 1.419 . S
C64 C60 1.391 . S
C64 C63 1.391 . S
C64 C65 1.399 . S
C65 C64 1.399 . S
C65 C68 1.396 . S
C65 C77 1.453 . S
C65 C78 1.684 . S
H66 C90 0.948 . S
C67 C63 1.397 . S
C67 C68 1.394 . S
C67 C86 1.723 . S
C68 C65 1.396 . S
C68 C67 1.394 . S
C68 C98 1.723 . S
H69 C92 0.947 . S
H70 C93 0.948 . S
H71 C99 0.982 . S
H72 C100 0.979 . S
H73 C100 0.980 . S
H74 C100 0.983 . S
H75 C99 0.979 . S
H76 C99 0.977 . S
C77 C65 1.453 . S
C77 H106 0.982 . S
C77 H107 0.979 . S
C77 H108 0.977 . S
C78 C65 1.684 . S
C78 H103 0.979 . S
C78 H104 0.980 . S
C78 H105 0.983 . S
C79 C80 1.391 . S
C79 C84 1.391 . S
C79 H109 0.948 . S
C80 C79 1.391 . S
C80 C81 1.391 . S
C81 C80 1.391 . S
C81 C82 1.392 . S
C81 H110 0.947 . S
C82 C81 1.392 . S
C82 C83 1.419 . S
C82 H111 0.948 . S
C83 C82 1.419 . S
C83 C84 1.391 . S
C83 C87 1.397 . S
C84 C79 1.391 . S
C84 C83 1.391 . S
C84 C85 1.399 . S
C85 C84 1.399 . S
C85 C86 1.396 . S
C85 C88 1.453 . S
C85 C89 1.684 . S
C86 C67 1.723 . S
C86 C85 1.396 . S
C86 C87 1.394 . S
C87 C83 1.397 . S
C87 C86 1.394 . S
C87 C97 1.723 . S
C88 C85 1.453 . S
C88 H112 0.982 . S
C88 H113 0.979 . S
C88 H114 0.977 . S
C89 C85 1.684 . S
C89 H115 0.979 . S
C89 H116 0.980 . S
C89 H117 0.983 . S
C90 H66 0.948 . S
C90 C91 1.391 . S
C90 C95 1.391 . S
C91 C90 1.391 . S
C91 C92 1.391 . S
C92 H69 0.947 . S
C92 C91 1.391 . S
C92 C93 1.392 . S
C93 H70 0.948 . S
C93 C92 1.392 . S
C93 C94 1.419 . S
C94 C93 1.419 . S
C94 C95 1.391 . S
C94 C98 1.397 . S
C95 C90 1.391 . S
C95 C94 1.391 . S
C95 C96 1.399 . S
C96 C95 1.399 . S
C96 C97 1.396 . S
C96 C99 1.453 . S
C96 C100 1.684 . S
C97 C87 1.723 . S
C97 C96 1.396 . S
C97 C98 1.394 . S
C98 C68 1.723 . S
C98 C94 1.397 . S
C98 C97 1.394 . S
C99 H71 0.982 . S
C99 H75 0.979 . S
C99 H76 0.977 . S
C99 C96 1.453 . S
C100 H72 0.979 . S
C100 H73 0.980 . S
C100 H74 0.983 . S
C100 C96 1.684 . S
H101 C119 0.948 . S
H102 C60 0.948 . S
H103 C78 0.979 . S
H104 C78 0.980 . S
H105 C78 0.983 . S
H106 C77 0.982 . S
H107 C77 0.979 . S
H108 C77 0.977 . S
H109 C79 0.948 . S
H110 C81 0.947 . S
H111 C82 0.948 . S
H112 C88 0.982 . S
H113 C88 0.979 . S
H114 C88 0.977 . S
H115 C89 0.979 . S
H116 C89 0.980 . S
H117 C89 0.983 . S
H118 C62 0.947 . S
C119 C62 1.392 . S
C119 C63 1.419 . S
C119 H101 0.948 . S
C120 C121 1.391 . S
C120 C124 1.391 . S
C120 H162 0.948 . S
C121 C120 1.391 . S
C121 C122 1.391 . S
C122 C121 1.391 . S
C122 H178 0.947 . S
C122 C179 1.392 . S
C123 C124 1.391 . S
C123 C127 1.397 . S
C123 C179 1.419 . S
C124 C120 1.391 . S
C124 C123 1.391 . S
C124 C125 1.399 . S
C125 C124 1.399 . S
C125 C128 1.396 . S
C125 C137 1.453 . S
C125 C138 1.684 . S
H126 C150 0.948 . S
C127 C123 1.397 . S
C127 C128 1.394 . S
C127 C146 1.723 1_554 S
C128 C125 1.396 . S
C128 C127 1.394 . S
C128 C158 1.723 . S
H129 C152 0.947 . S
H130 C153 0.948 . S
H131 C159 0.982 . S
H132 C160 0.979 . S
H133 C160 0.980 . S
H134 C160 0.983 . S
H135 C159 0.979 . S
H136 C159 0.977 . S
C137 C125 1.453 . S
C137 H166 0.982 . S
C137 H167 0.979 . S
C137 H168 0.977 . S
C138 C125 1.684 . S
C138 H163 0.979 . S
C138 H164 0.980 . S
C138 H165 0.983 . S
C139 C140 1.391 . S
C139 C144 1.391 . S
C139 H169 0.948 . S
C140 C139 1.391 . S
C140 C141 1.391 . S
C141 C140 1.391 . S
C141 C142 1.392 . S
C141 H170 0.947 . S
C142 C141 1.392 . S
C142 C143 1.419 . S
C142 H171 0.948 . S
C143 C142 1.419 . S
C143 C144 1.391 . S
C143 C147 1.397 . S
C144 C139 1.391 . S
C144 C143 1.391 . S
C144 C145 1.399 . S
C145 C144 1.399 . S
C145 C146 1.396 . S
C145 C148 1.453 . S
C145 C149 1.684 . S
C146 C127 1.723 1_556 S
C146 C145 1.396 . S
C146 C147 1.394 . S
C147 C143 1.397 . S
C147 C146 1.394 . S
C147 C157 1.723 . S
C148 C145 1.453 . S
C148 H172 0.982 . S
C148 H173 0.979 . S
C148 H174 0.977 1_556 S
C149 C145 1.684 . S
C149 H175 0.979 . S
C149 H176 0.980 1_556 S
C149 H177 0.983 . S
C150 H126 0.948 . S
C150 C151 1.384 1_556 S
C150 C155 1.391 . S
C151 C150 1.384 1_554 S
C151 C152 1.398 . S
C152 H129 0.947 . S
C152 C151 1.398 . S
C152 C153 1.392 . S
C153 H130 0.948 . S
C153 C152 1.392 . S
C153 C154 1.419 . S
C154 C153 1.419 . S
C154 C155 1.391 1_554 S
C154 C158 1.397 . S
C155 C150 1.391 . S
C155 C154 1.391 1_556 S
C155 C156 1.399 . S
C156 C155 1.399 . S
C156 C157 1.396 . S
C156 C159 1.453 . S
C156 C160 1.684 . S
C157 C147 1.723 . S
C157 C156 1.396 . S
C157 C158 1.394 1_556 S
C158 C128 1.723 . S
C158 C154 1.397 . S
C158 C157 1.394 1_554 S
C159 H131 0.982 . S
C159 H135 0.979 . S
C159 H136 0.977 . S
C159 C156 1.453 . S
C160 H132 0.979 . S
C160 H133 0.980 . S
C160 H134 0.983 . S
C160 C156 1.684 . S
H161 C179 0.948 . S
H162 C120 0.948 . S
H163 C138 0.979 . S
H164 C138 0.980 . S
H165 C138 0.983 . S
H166 C137 0.982 . S
H167 C137 0.979 . S
H168 C137 0.977 . S
H169 C139 0.948 . S
H170 C141 0.947 . S
H171 C142 0.948 . S
H172 C148 0.982 . S
H173 C148 0.979 . S
H174 C148 0.977 1_554 S
H175 C149 0.979 . S
H176 C149 0.980 1_554 S
H177 C149 0.983 . S
H178 C122 0.947 . S
C179 C122 1.392 . S
C179 C123 1.419 . S
C179 H161 0.948 . S
C180 C181 1.391 . S
C180 C184 1.391 . S
C180 H222 0.948 . S
C181 C180 1.391 . S
C181 C182 1.391 . S
C182 C181 1.391 . S
C182 H238 0.947 . S
C182 C239 1.392 . S
C183 C184 1.391 . S
C183 C187 1.397 . S
C183 C239 1.419 . S
C184 C180 1.391 . S
C184 C183 1.391 . S
C184 C185 1.399 . S
C185 C184 1.399 . S
C185 C188 1.396 . S
C185 C197 1.453 . S
C185 C198 1.684 . S
H186 C210 0.948 . S
C187 C183 1.397 . S
C187 C188 1.394 . S
C187 C206 1.723 . S
C188 C185 1.396 . S
C188 C187 1.394 . S
C188 C218 1.723 . S
H189 C212 0.947 . S
H190 C213 0.948 . S
H191 C219 0.982 . S
H192 C220 0.979 . S
H193 C220 0.980 . S
H194 C220 0.983 . S
H195 C219 0.979 . S
H196 C219 0.977 . S
C197 C185 1.453 . S
C197 H226 0.982 . S
C197 H227 0.979 . S
C197 H228 0.977 . S
C198 C185 1.684 . S
C198 H223 0.979 . S
C198 H224 0.980 . S
C198 H225 0.983 . S
C199 C200 1.391 . S
C199 C204 1.391 . S
C199 H229 0.948 . S
C200 C199 1.391 . S
C200 C201 1.391 . S
C201 C200 1.391 . S
C201 C202 1.392 . S
C201 H230 0.947 . S
C202 C201 1.392 . S
C202 C203 1.419 . S
C202 H231 0.948 . S
C203 C202 1.419 . S
C203 C204 1.391 . S
C203 C207 1.397 . S
C204 C199 1.391 . S
C204 C203 1.391 . S
C204 C205 1.399 . S
C205 C204 1.399 . S
C205 C206 1.396 . S
C205 C208 1.453 . S
C205 C209 1.684 . S
C206 C187 1.723 . S
C206 C205 1.396 . S
C206 C207 1.394 . S
C207 C203 1.397 . S
C207 C206 1.394 . S
C207 C217 1.723 . S
C208 C205 1.453 . S
C208 H232 0.982 . S
C208 H233 0.979 . S
C208 H234 0.977 . S
C209 C205 1.684 . S
C209 H235 0.979 . S
C209 H236 0.980 . S
C209 H237 0.983 . S
C210 H186 0.948 . S
C210 C211 1.391 . S
C210 C215 1.391 . S
C211 C210 1.391 . S
C211 C212 1.391 . S
C212 H189 0.947 . S
C212 C211 1.391 . S
C212 C213 1.392 . S
C213 H190 0.948 . S
C213 C212 1.392 . S
C213 C214 1.419 . S
C214 C213 1.419 . S
C214 C215 1.391 . S
C214 C218 1.397 . S
C215 C210 1.391 . S
C215 C214 1.391 . S
C215 C216 1.399 . S
C216 C215 1.399 . S
C216 C217 1.396 . S
C216 C219 1.453 . S
C216 C220 1.684 . S
C217 C207 1.723 . S
C217 C216 1.396 . S
C217 C218 1.394 . S
C218 C188 1.723 . S
C218 C214 1.397 . S
C218 C217 1.394 . S
C219 H191 0.982 . S
C219 H195 0.979 . S
C219 H196 0.977 . S
C219 C216 1.453 . S
C220 H192 0.979 . S
C220 H193 0.980 . S
C220 H194 0.983 . S
C220 C216 1.684 . S
H221 C239 0.948 . S
H222 C180 0.948 . S
H223 C198 0.979 . S
H224 C198 0.980 . S
H225 C198 0.983 . S
H226 C197 0.982 . S
H227 C197 0.979 . S
H228 C197 0.977 . S
H229 C199 0.948 . S
H230 C201 0.947 . S
H231 C202 0.948 . S
H232 C208 0.982 . S
H233 C208 0.979 . S
H234 C208 0.977 . S
H235 C209 0.979 . S
H236 C209 0.980 . S
H237 C209 0.983 . S
H238 C182 0.947 . S
C239 C182 1.392 . S
C239 C183 1.419 . S
C239 H221 0.948 . S
O240 Mn241 2.163 1_655 S
O240 C254 1.244 . S
Mn241 O240 2.163 1_455 S
Mn241 O244 2.160 1_545 S
Mn241 O245 2.221 . S
Mn241 O247 2.163 1_455 S
Mn241 O249 2.160 1_545 S
Mn241 O259 2.221 1_445 S
O242 Mn243 2.068 1_545 S
O242 C254 1.275 . S
Mn243 O242 2.068 1_565 S
Mn243 O250 2.089 1_655 S
Mn243 O259 2.290 . S
Mn243 O260 2.251 . S
O244 Mn241 2.160 1_565 S
O244 C255 1.239 . S
O245 Mn241 2.221 . S
O245 Mn246 2.290 . S
O245 C256 1.278 . S
Mn246 O245 2.290 . S
Mn246 O248 2.089 . S
Mn246 O251 2.251 . S
Mn246 O252 2.087 1_455 S
O247 Mn241 2.163 1_655 S
O247 C257 1.244 . S
O248 Mn246 2.089 . S
O248 C255 1.256 1_545 S
O249 Mn241 2.160 1_565 S
O249 C258 1.239 . S
O250 Mn243 2.089 1_455 S
O250 C258 1.256 . S
O251 Mn246 2.251 . S
O251 C256 1.241 . S
O252 Mn246 2.087 1_655 S
O252 C257 1.256 . S
C253 O259 1.278 . S
C253 O260 1.241 . S
C254 O240 1.244 . S
C254 O242 1.275 . S
C255 O244 1.239 . S
C255 O248 1.256 1_565 S
C256 O245 1.278 . S
C256 O251 1.241 . S
C257 O247 1.244 . S
C257 O252 1.256 . S
C258 O249 1.239 . S
C258 O250 1.256 . S
O259 Mn241 2.221 1_665 S
O259 Mn243 2.290 . S
O259 C253 1.278 . S
O260 Mn243 2.251 . S
O260 C253 1.241 . S
O261 Mn262 2.163 . S
O261 C275 1.244 . S
Mn262 O261 2.163 . S
Mn262 O265 2.160 1_554 S
Mn262 O266 2.221 . S
Mn262 O268 2.163 1_554 S
Mn262 O270 2.160 . S
Mn262 O280 2.221 . S
O263 Mn264 2.087 . S
O263 C275 1.256 . S
Mn264 O263 2.087 . S
Mn264 O271 2.089 . S
Mn264 O280 2.290 . S
Mn264 O281 2.251 . S
O265 Mn262 2.160 1_556 S
O265 C276 1.239 . S
O266 Mn262 2.221 . S
O266 Mn267 2.290 1_554 S
O266 C277 1.278 . S
Mn267 O266 2.290 1_556 S
Mn267 O269 2.089 . S
Mn267 O272 2.251 . S
Mn267 O273 2.087 . S
O268 Mn262 2.163 1_556 S
O268 C278 1.244 . S
O269 Mn267 2.089 . S
O269 C276 1.256 . S
O270 Mn262 2.160 . S
O270 C279 1.239 . S
O271 Mn264 2.089 . S
O271 C279 1.256 . S
O272 Mn267 2.251 . S
O272 C277 1.241 1_556 S
O273 Mn267 2.087 . S
O273 C278 1.256 . S
C274 O280 1.278 . S
C274 O281 1.241 . S
C275 O261 1.244 . S
C275 O263 1.256 . S
C276 O265 1.239 . S
C276 O269 1.256 . S
C277 O266 1.278 . S
C277 O272 1.241 1_554 S
C278 O268 1.244 . S
C278 O273 1.256 . S
C279 O270 1.239 . S
C279 O271 1.256 . S
O280 Mn262 2.221 . S
O280 Mn264 2.290 . S
O280 C274 1.278 . S
O281 Mn264 2.251 . S
O281 C274 1.241 . S
H282 C288 0.930 . S
H283 C291 0.930 . S
H284 C292 0.930 . S
H285 C293 0.930 . S
H286 C296 0.930 . S
H287 C297 0.930 . S
C288 H282 0.930 . S
C288 C289 1.355 . S
C288 C290 1.415 . S
C289 C288 1.355 . S
C289 C291 1.419 . S
C290 C288 1.415 . S
C290 C295 1.425 . S
C290 C297 1.409 . S
C291 H283 0.930 . S
C291 C289 1.419 . S
C291 C292 1.362 . S
C292 H284 0.930 . S
C292 C291 1.362 . S
C292 C295 1.409 . S
C293 H285 0.930 . S
C293 C294 1.355 . S
C293 C295 1.415 . S
C294 C293 1.355 . S
C294 C296 1.419 . S
C295 C290 1.425 . S
C295 C292 1.409 . S
C295 C293 1.415 . S
C296 H286 0.930 . S
C296 C294 1.419 . S
C296 C297 1.362 . S
C297 H287 0.930 . S
C297 C290 1.409 . S
C297 C296 1.362 . S
H298 C304 0.930 . S
H299 C307 0.930 . S
H300 C308 0.930 . S
H301 C309 0.930 . S
H302 C312 0.930 1_556 S
H303 C313 0.930 1_556 S
C304 H298 0.930 . S
C304 C305 1.355 . S
C304 C306 1.415 . S
C305 C304 1.355 . S
C305 C307 1.419 . S
C306 C304 1.415 . S
C306 C311 1.425 . S
C306 C313 1.409 . S
C307 H299 0.930 . S
C307 C305 1.419 . S
C307 C308 1.362 . S
C308 H300 0.930 . S
C308 C307 1.362 . S
C308 C311 1.409 . S
C309 H301 0.930 . S
C309 C310 1.355 . S
C309 C311 1.415 . S
C310 C309 1.355 . S
C310 C312 1.419 . S
C311 C306 1.425 . S
C311 C308 1.409 . S
C311 C309 1.415 . S
C312 H302 0.930 1_554 S
C312 C310 1.419 . S
C312 C313 1.362 . S
C313 H303 0.930 1_554 S
C313 C306 1.409 . S
C313 C312 1.362 . S
H314 C320 0.930 . S
H315 C323 0.930 . S
H316 C324 0.930 . S
H317 C325 0.930 . S
H318 C328 0.930 . S
H319 C329 0.930 . S
C320 H314 0.930 . S
C320 C321 1.355 . S
C320 C322 1.415 . S
C321 C320 1.355 . S
C321 C323 1.419 . S
C322 C320 1.415 . S
C322 C327 1.425 . S
C322 C329 1.409 . S
C323 H315 0.930 . S
C323 C321 1.419 . S
C323 C324 1.362 . S
C324 H316 0.930 . S
C324 C323 1.362 . S
C324 C327 1.409 . S
C325 H317 0.930 . S
C325 C326 1.355 . S
C325 C327 1.415 . S
C326 C325 1.355 . S
C326 C328 1.419 . S
C327 C322 1.425 . S
C327 C324 1.409 . S
C327 C325 1.415 . S
C328 H318 0.930 . S
C328 C326 1.419 . S
C328 C329 1.362 . S
C329 H319 0.930 . S
C329 C322 1.409 . S
C329 C328 1.362 . S
H330 C336 0.930 . S
H331 C339 0.930 . S
H332 C340 0.930 . S
H333 C341 0.930 . S
H334 C344 0.930 1_556 S
H335 C345 0.930 . S
C336 H330 0.930 . S
C336 C337 1.355 . S
C336 C338 1.412 1_556 S
C337 C336 1.355 . S
C337 C339 1.419 1_556 S
C338 C336 1.412 1_554 S
C338 C343 1.430 . S
C338 C345 1.407 1_554 S
C339 H331 0.930 . S
C339 C337 1.419 1_554 S
C339 C340 1.362 . S
C340 H332 0.930 . S
C340 C339 1.362 . S
C340 C343 1.409 . S
C341 H333 0.930 . S
C341 C342 1.355 . S
C341 C343 1.415 . S
C342 C341 1.355 . S
C342 C344 1.419 . S
C343 C338 1.430 . S
C343 C340 1.409 . S
C343 C341 1.415 . S
C344 H334 0.930 1_554 S
C344 C342 1.419 . S
C344 C345 1.362 1_554 S
C345 H335 0.930 . S
C345 C338 1.407 1_556 S
C345 C344 1.362 1_556 S
H346 C352 0.930 . S
H347 C355 0.930 . S
H348 C356 0.930 . S
H349 C357 0.930 . S
H350 C360 0.930 . S
H351 C361 0.930 . S
C352 H346 0.930 . S
C352 C353 1.355 . S
C352 C354 1.415 . S
C353 C352 1.355 . S
C353 C355 1.419 . S
C354 C352 1.415 . S
C354 C359 1.425 . S
C354 C361 1.409 . S
C355 H347 0.930 . S
C355 C353 1.419 . S
C355 C356 1.362 . S
C356 H348 0.930 . S
C356 C355 1.362 . S
C356 C359 1.409 . S
C357 H349 0.930 . S
C357 C358 1.355 . S
C357 C359 1.415 . S
C358 C357 1.355 . S
C358 C360 1.419 . S
C359 C354 1.425 . S
C359 C356 1.409 . S
C359 C357 1.415 . S
C360 H350 0.930 . S
C360 C358 1.419 . S
C360 C361 1.362 . S
C361 H351 0.930 . S
C361 C354 1.409 . S
C361 C360 1.362 . S
H362 C368 0.930 . S
H363 C371 0.930 . S
H364 C372 0.930 . S
H365 C373 0.930 . S
H366 C376 0.930 . S
H367 C377 0.930 . S
C368 H362 0.930 . S
C368 C369 1.355 . S
C368 C370 1.415 . S
C369 C368 1.355 . S
C369 C371 1.419 . S
C370 C368 1.415 . S
C370 C375 1.425 . S
C370 C377 1.409 . S
C371 H363 0.930 . S
C371 C369 1.419 . S
C371 C372 1.362 . S
C372 H364 0.930 . S
C372 C371 1.362 . S
C372 C375 1.409 . S
C373 H365 0.930 . S
C373 C374 1.355 . S
C373 C375 1.415 . S
C374 C373 1.355 . S
C374 C376 1.419 . S
C375 C370 1.425 . S
C375 C372 1.409 . S
C375 C373 1.415 . S
C376 H366 0.930 . S
C376 C374 1.419 . S
C376 C377 1.362 . S
C377 H367 0.930 . S
C377 C370 1.409 . S
C377 C376 1.362 . S
H378 C384 0.930 . S
H379 C387 0.930 . S
H380 C388 0.930 1_565 S
H381 C389 0.930 . S
H382 C392 0.930 . S
H383 C393 0.930 . S
C384 H378 0.930 . S
C384 C385 1.355 . S
C384 C386 1.415 . S
C385 C384 1.355 . S
C385 C387 1.419 . S
C386 C384 1.415 . S
C386 C391 1.425 . S
C386 C393 1.409 . S
C387 H379 0.930 . S
C387 C385 1.419 . S
C387 C388 1.362 . S
C388 H380 0.930 1_545 S
C388 C387 1.362 . S
C388 C391 1.409 . S
C389 H381 0.930 . S
C389 C390 1.355 . S
C389 C391 1.415 . S
C390 C389 1.355 . S
C390 C392 1.419 . S
C391 C386 1.425 . S
C391 C388 1.409 . S
C391 C389 1.415 . S
C392 H382 0.930 . S
C392 C390 1.419 . S
C392 C393 1.362 . S
C393 H383 0.930 . S
C393 C386 1.409 . S
C393 C392 1.362 . S
H394 C400 0.930 . S
H395 C403 0.930 . S
H396 C404 0.930 . S
H397 C405 0.930 . S
H398 C408 0.930 . S
H399 C409 0.930 . S
C400 H394 0.930 . S
C400 C401 1.355 . S
C400 C402 1.415 . S
C401 C400 1.355 . S
C401 C403 1.419 . S
C402 C400 1.415 . S
C402 C407 1.425 . S
C402 C409 1.409 . S
C403 H395 0.930 . S
C403 C401 1.419 . S
C403 C404 1.362 . S
C404 H396 0.930 . S
C404 C403 1.362 . S
C404 C407 1.409 . S
C405 H397 0.930 . S
C405 C406 1.355 . S
C405 C407 1.415 . S
C406 C405 1.355 . S
C406 C408 1.419 . S
C407 C402 1.425 . S
C407 C404 1.409 . S
C407 C405 1.415 . S
C408 H398 0.930 . S
C408 C406 1.419 . S
C408 C409 1.362 . S
C409 H399 0.930 . S
C409 C402 1.409 . S
C409 C408 1.362 . S
H410 C416 0.930 . S
H411 C419 0.930 . S
H412 C420 0.930 . S
H413 C421 0.930 . S
H414 C424 0.930 . S
H415 C425 0.930 . S
C416 H410 0.930 . S
C416 C417 1.355 . S
C416 C418 1.415 . S
C417 C416 1.355 . S
C417 C419 1.419 . S
C418 C416 1.415 . S
C418 C423 1.425 . S
C418 C425 1.409 . S
C419 H411 0.930 . S
C419 C417 1.419 . S
C419 C420 1.362 . S
C420 H412 0.930 . S
C420 C419 1.362 . S
C420 C423 1.409 . S
C421 H413 0.930 . S
C421 C422 1.355 . S
C421 C423 1.415 . S
C422 C421 1.355 . S
C422 C424 1.419 . S
C423 C418 1.425 . S
C423 C420 1.409 . S
C423 C421 1.415 . S
C424 H414 0.930 . S
C424 C422 1.419 . S
C424 C425 1.362 . S
C425 H415 0.930 . S
C425 C418 1.409 . S
C425 C424 1.362 . S
H426 C432 0.930 . S
H427 C435 0.930 . S
H428 C436 0.930 . S
H429 C437 0.930 . S
H430 C440 0.930 . S
H431 C441 0.930 . S
C432 H426 0.930 . S
C432 C433 1.355 . S
C432 C434 1.415 . S
C433 C432 1.355 . S
C433 C435 1.419 . S
C434 C432 1.415 . S
C434 C439 1.425 . S
C434 C441 1.409 . S
C435 H427 0.930 . S
C435 C433 1.419 . S
C435 C436 1.362 . S
C436 H428 0.930 . S
C436 C435 1.362 . S
C436 C439 1.409 . S
C437 H429 0.930 . S
C437 C438 1.355 . S
C437 C439 1.415 . S
C438 C437 1.355 . S
C438 C440 1.419 . S
C439 C434 1.425 . S
C439 C436 1.409 . S
C439 C437 1.415 . S
C440 H430 0.930 . S
C440 C438 1.419 . S
C440 C441 1.362 . S
C441 H431 0.930 . S
C441 C434 1.409 . S
C441 C440 1.362 . S
H442 C448 0.930 . S
H443 C451 0.930 . S
H444 C452 0.930 . S
H445 C453 0.930 . S
H446 C456 0.930 . S
H447 C457 0.930 . S
C448 H442 0.930 . S
C448 C449 1.355 . S
C448 C450 1.415 . S
C449 C448 1.355 . S
C449 C451 1.419 . S
C450 C448 1.415 . S
C450 C455 1.425 . S
C450 C457 1.409 . S
C451 H443 0.930 . S
C451 C449 1.419 . S
C451 C452 1.362 . S
C452 H444 0.930 . S
C452 C451 1.362 . S
C452 C455 1.409 . S
C453 H445 0.930 . S
C453 C454 1.355 . S
C453 C455 1.415 . S
C454 C453 1.355 . S
C454 C456 1.419 . S
C455 C450 1.425 . S
C455 C452 1.409 . S
C455 C453 1.415 . S
C456 H446 0.930 . S
C456 C454 1.419 . S
C456 C457 1.362 . S
C457 H447 0.930 . S
C457 C450 1.409 . S
C457 C456 1.362 . S
H458 C464 0.930 . S
H459 C467 0.930 . S
H460 C468 0.930 . S
H461 C469 0.930 . S
H462 C472 0.930 . S
H463 C473 0.930 . S
C464 H458 0.930 . S
C464 C465 1.355 . S
C464 C466 1.415 . S
C465 C464 1.355 . S
C465 C467 1.419 . S
C466 C464 1.415 . S
C466 C471 1.425 . S
C466 C473 1.409 . S
C467 H459 0.930 . S
C467 C465 1.419 . S
C467 C468 1.362 . S
C468 H460 0.930 . S
C468 C467 1.362 . S
C468 C471 1.409 . S
C469 H461 0.930 . S
C469 C470 1.355 . S
C469 C471 1.415 . S
C470 C469 1.355 . S
C470 C472 1.419 . S
C471 C466 1.425 . S
C471 C468 1.409 . S
C471 C469 1.415 . S
C472 H462 0.930 . S
C472 C470 1.419 . S
C472 C473 1.362 . S
C473 H463 0.930 . S
C473 C466 1.409 . S
C473 C472 1.362 . S
C294 C256 1.343 . S
C289 C211 1.544 . S
C305 C31 1.503 . S
C310 C277 1.329 . S
C321 C91 1.617 . S
C326 C253 1.429 . S
C337 C151 1.647 1_556 S
C342 C274 1.530 . S
C358 C258 1.679 . S
C353 C20 1.579 . S
C374 C278 1.606 . S
C369 C61 1.485 . S
C385 C121 1.568 . S
C390 C254 1.557 . S
C401 C200 1.645 . S
C406 C276 1.573 . S
C422 C275 1.548 . S
C417 C80 1.564 . S
C438 C257 1.608 . S
C433 C140 1.630 . S
C454 C279 1.681 . S
C449 C181 1.596 . S
C465 C1 1.525 . S
C470 C255 1.570 . S
