# Generated by pormake.
# Topology nom, (4,4)-cn, num edge types: 1
# Building blocks:
#     Node 0, Type 0, BuildingBlock: KUFVIS_clean_linker_0, # of connection points: 4
#     Node 1, Type 0, BuildingBlock: KUFVIS_clean_linker_0, # of connection points: 4
#     Node 2, Type 0, BuildingBlock: KUFVIS_clean_linker_0, # of connection points: 4
#     Node 3, Type 0, BuildingBlock: KUFVIS_clean_linker_0, # of connection points: 4
#     Node 4, Type 0, BuildingBlock: KUFVIS_clean_linker_0, # of connection points: 4
#     Node 5, Type 0, BuildingBlock: KUFVIS_clean_linker_0, # of connection points: 4
#     Node 6, Type 1, BuildingBlock: AZAVOO_clean_sbu_0, # of connection points: 4
#     Node 7, Type 1, BuildingBlock: AZAVOO_clean_sbu_0, # of connection points: 4
#     Node 8, Type 1, BuildingBlock: AZAVOO_clean_sbu_0, # of connection points: 4
#     Node 9, Type 1, BuildingBlock: AZAVOO_clean_sbu_0, # of connection points: 4
#     Node 10, Type 1, BuildingBlock: AZAVOO_clean_sbu_0, # of connection points: 4
#     Node 11, Type 1, BuildingBlock: AZAVOO_clean_sbu_0, # of connection points: 4
#     Edge 12, Type (0, 1), BuildingBlock: EZIPEK_clean_linker_0, # of connection points: 2
#     Edge 13, Type (0, 1), BuildingBlock: EZIPEK_clean_linker_0, # of connection points: 2
#     Edge 14, Type (0, 1), BuildingBlock: EZIPEK_clean_linker_0, # of connection points: 2
#     Edge 15, Type (0, 1), BuildingBlock: EZIPEK_clean_linker_0, # of connection points: 2
#     Edge 16, Type (0, 1), BuildingBlock: EZIPEK_clean_linker_0, # of connection points: 2
#     Edge 17, Type (0, 1), BuildingBlock: EZIPEK_clean_linker_0, # of connection points: 2
#     Edge 18, Type (0, 1), BuildingBlock: EZIPEK_clean_linker_0, # of connection points: 2
#     Edge 19, Type (0, 1), BuildingBlock: EZIPEK_clean_linker_0, # of connection points: 2
#     Edge 20, Type (0, 1), BuildingBlock: EZIPEK_clean_linker_0, # of connection points: 2
#     Edge 21, Type (0, 1), BuildingBlock: EZIPEK_clean_linker_0, # of connection points: 2
#     Edge 22, Type (0, 1), BuildingBlock: EZIPEK_clean_linker_0, # of connection points: 2
#     Edge 23, Type (0, 1), BuildingBlock: EZIPEK_clean_linker_0, # of connection points: 2
#     Edge 24, Type (0, 1), BuildingBlock: EZIPEK_clean_linker_0, # of connection points: 2
#     Edge 25, Type (0, 1), BuildingBlock: EZIPEK_clean_linker_0, # of connection points: 2
#     Edge 26, Type (0, 1), BuildingBlock: EZIPEK_clean_linker_0, # of connection points: 2
#     Edge 27, Type (0, 1), BuildingBlock: EZIPEK_clean_linker_0, # of connection points: 2
#     Edge 28, Type (0, 1), BuildingBlock: EZIPEK_clean_linker_0, # of connection points: 2
#     Edge 29, Type (0, 1), BuildingBlock: EZIPEK_clean_linker_0, # of connection points: 2
#     Edge 30, Type (0, 1), BuildingBlock: EZIPEK_clean_linker_0, # of connection points: 2
#     Edge 31, Type (0, 1), BuildingBlock: EZIPEK_clean_linker_0, # of connection points: 2
#     Edge 32, Type (0, 1), BuildingBlock: EZIPEK_clean_linker_0, # of connection points: 2
#     Edge 33, Type (0, 1), BuildingBlock: EZIPEK_clean_linker_0, # of connection points: 2
#     Edge 34, Type (0, 1), BuildingBlock: EZIPEK_clean_linker_0, # of connection points: 2
#     Edge 35, Type (0, 1), BuildingBlock: EZIPEK_clean_linker_0, # of connection points: 2
# Relax obj value: 0.031
# Max RMSD: 0.162
# Mean RMSD: 0.095
data_MOF--net-nom--node1-AZAVOO_clean_sbu_0--node2-KUFVIS_clean_linker_0--edge1-EZIPEK_clean_linker_0
_symmetry_space_group_name_H-M    P1
_symmetry_Int_Tables_number       1
_symmetry_cell_setting            triclinic
loop_
_symmetry_equiv_pos_as_xyz
'x, y, z'
_cell_length_a     33.888364
_cell_length_b     34.350443
_cell_length_c     33.473706
_cell_angle_alpha  91.995261
_cell_angle_beta   91.83423
_cell_angle_gamma 119.67424
loop_
_atom_site_label
_atom_site_type_symbol
_atom_site_fract_x
_atom_site_fract_y
_atom_site_fract_z
_atom_type_partial_charge
H0 H 0.17105 0.59417 0.35141 0.0
H1 H 0.06175 0.56426 0.26571 0.0
H2 H 0.03357 0.51368 0.38435 0.0
H3 H 0.97246 0.5232 0.37317 0.0
H4 H 0.8607 0.46129 0.28548 0.0
H5 H 0.99472 0.49876 0.25021 0.0
C6 C 0.13483 0.57709 0.34336 0.0
C7 C 0.10386 0.55376 0.37193 0.0
C8 C 0.11966 0.58034 0.30508 0.0
C9 C 0.07277 0.55978 0.29506 0.0
C10 C 0.04067 0.53519 0.32331 0.0
C11 C 0.05695 0.53216 0.36184 0.0
C12 C 0.99062 0.51417 0.31304 0.0
C13 C 0.96017 0.51053 0.3426 0.0
C14 C 0.91341 0.4913 0.33261 0.0
C15 C 0.89684 0.47609 0.29317 0.0
C16 C 0.92608 0.47918 0.26359 0.0
C17 C 0.97277 0.49779 0.27342 0.0
H18 H 0.59495 0.17186 0.50529 0.0
H19 H 0.51543 0.06443 0.41838 0.0
H20 H 0.52654 0.03684 0.54231 0.0
H21 H 0.46478 0.97301 0.5252 0.0
H22 H 0.42858 0.865 0.43805 0.0
H23 H 0.51381 0.99974 0.4054 0.0
C24 C 0.57376 0.13609 0.49808 0.0
C25 C 0.56159 0.10605 0.52858 0.0
C26 C 0.55627 0.12113 0.45889 0.0
C27 C 0.52926 0.07503 0.44891 0.0
C28 C 0.51931 0.04335 0.47835 0.0
C29 C 0.5346 0.0597 0.51856 0.0
C30 C 0.49338 0.99378 0.46709 0.0
C31 C 0.46791 0.96227 0.4953 0.0
C32 C 0.44552 0.91603 0.48491 0.0
C33 C 0.44676 0.90076 0.44616 0.0
C34 C 0.47042 0.93098 0.41752 0.0
C35 C 0.49438 0.97723 0.42796 0.0
H36 H 0.57487 0.40954 0.59175 0.0
H37 H 0.50783 0.44697 0.67883 0.0
H38 H 0.53029 0.50289 0.56242 0.0
H39 H 0.45974 0.4998 0.57789 0.0
H40 H 0.43909 0.57396 0.67302 0.0
H41 H 0.53002 0.52326 0.69416 0.0
C42 C 0.55825 0.42845 0.60014 0.0
C43 C 0.55371 0.45599 0.57282 0.0
C44 C 0.54196 0.42542 0.63829 0.0
C45 C 0.52067 0.44999 0.64919 0.0
C46 C 0.5162 0.47839 0.62209 0.0
C47 C 0.53268 0.48091 0.58362 0.0
C48 C 0.49595 0.50634 0.63486 0.0
C49 C 0.46689 0.51357 0.60856 0.0
C50 C 0.44631 0.53812 0.62235 0.0
C51 C 0.45498 0.55517 0.66215 0.0
C52 C 0.48516 0.55011 0.68781 0.0
C53 C 0.50597 0.52618 0.67412 0.0
H54 H 0.17248 0.59371 0.7758 0.0
H55 H 0.06909 0.50837 0.8524 0.0
H56 H 0.03449 0.56023 0.74909 0.0
H57 H 0.97546 0.48281 0.74776 0.0
H58 H 0.86879 0.43068 0.82954 0.0
H59 H 1.00649 0.51814 0.87465 0.0
C60 C 0.13739 0.57789 0.78416 0.0
C61 C 0.10488 0.57963 0.75891 0.0
C62 C 0.12487 0.55263 0.81796 0.0
C63 C 0.07903 0.52991 0.82743 0.0
C64 C 0.04588 0.53263 0.80277 0.0
C65 C 0.05941 0.55843 0.76887 0.0
C66 C 0.99681 0.50556 0.81017 0.0
C67 C 0.96461 0.48183 0.77799 0.0
C68 C 0.91855 0.45423 0.78513 0.0
C69 C 0.90442 0.45224 0.82405 0.0
C70 C 0.93591 0.4749 0.85639 0.0
C71 C 0.98215 0.50132 0.84946 0.0
H72 H 0.43294 0.86493 0.0129 0.0
H73 H 0.51587 0.96454 0.93286 0.0
H74 H 0.47646 1.00326 0.04244 0.0
H75 H 0.55434 0.05976 0.04038 0.0
H76 H 0.60112 0.16507 0.95905 0.0
H77 H 0.51493 0.02896 0.91402 0.0
C78 C 0.45117 0.89978 0.00533 0.0
C79 C 0.45316 0.93309 0.03189 0.0
C80 C 0.47278 0.91087 0.96932 0.0
C81 C 0.49767 0.95615 0.96009 0.0
C82 C 0.49983 0.9902 0.98661 0.0
C83 C 0.47616 0.97795 0.02197 0.0
C84 C 0.52775 0.03857 0.97865 0.0
C85 C 0.55299 0.07048 0.01055 0.0
C86 C 0.5795 0.11603 0.00337 0.0
C87 C 0.5795 0.1299 0.96468 0.0
C88 C 0.55813 0.09866 0.93224 0.0
C89 C 0.53162 0.05298 0.93925 0.0
H90 H 0.44793 0.60734 0.09868 0.0
H91 H 0.52693 0.58097 0.18516 0.0
H92 H 0.49299 0.51459 0.06672 0.0
H93 H 0.56877 0.52827 0.0815 0.0
H94 H 0.60053 0.45504 0.1655 0.0
H95 H 0.50879 0.50205 0.1967 0.0
C96 C 0.46438 0.58843 0.1074 0.0
C97 C 0.4679 0.55996 0.07892 0.0
C98 C 0.48592 0.59661 0.14556 0.0
C99 C 0.50905 0.57357 0.15605 0.0
C100 C 0.51122 0.54303 0.1279 0.0
C101 C 0.49063 0.53673 0.08919 0.0
C102 C 0.53634 0.51906 0.1382 0.0
C103 C 0.56448 0.51406 0.1105 0.0
C104 C 0.58733 0.49062 0.12039 0.0
C105 C 0.58278 0.47306 0.15792 0.0
C106 C 0.55476 0.4772 0.18543 0.0
C107 C 0.53129 0.4999 0.17554 0.0
Mg108 Mg 0.63926 0.37667 0.35861 0.0
O109 O 0.62309 0.40765 0.4128 0.0
O110 O 0.65025 0.48069 0.40335 0.0
Mg111 Mg 0.68074 0.49488 0.34199 0.0
C112 C 0.62981 0.44645 0.42414 0.0
C113 C 0.60602 0.27739 0.37002 0.0
O114 O 0.59887 0.27754 0.33125 0.0
O115 O 0.7144 0.41178 0.37988 0.0
O116 O 0.73776 0.48252 0.36613 0.0
O117 O 0.57253 0.35977 0.32885 0.0
O118 O 0.6365 0.42342 0.32258 0.0
C119 C 0.74588 0.45271 0.37974 0.0
C120 C 0.5934 0.3988 0.31399 0.0
O121 O 0.62327 0.31403 0.39134 0.0
Mg122 Mg 0.28119 0.66242 0.58668 0.0
O123 O 0.23111 0.62433 0.53341 0.0
O124 O 0.18889 0.55305 0.54999 0.0
Mg125 Mg 0.20845 0.54821 0.61544 0.0
C126 C 0.19974 0.58381 0.52524 0.0
C127 C 0.3421 0.75884 0.57125 0.0
O128 O 0.33351 0.75884 0.60923 0.0
O129 O 0.32147 0.62669 0.57213 0.0
O130 O 0.27974 0.56126 0.5996 0.0
O131 O 0.23278 0.68215 0.61125 0.0
O132 O 0.23426 0.62058 0.6257 0.0
C133 C 0.31603 0.58932 0.5835 0.0
C134 C 0.216 0.64555 0.63007 0.0
O135 O 0.32521 0.7218 0.55057 0.0
Mg136 Mg 0.65049 0.27465 0.75477 0.0
O137 O 0.62427 0.22238 0.70162 0.0
O138 O 0.66637 0.18898 0.70314 0.0
Mg139 Mg 0.70603 0.20728 0.76405 0.0
C140 C 0.63591 0.19531 0.68607 0.0
C141 C 0.58572 0.31233 0.73075 0.0
O142 O 0.55961 0.28356 0.75616 0.0
O143 O 0.72023 0.31619 0.72888 0.0
O144 O 0.75496 0.27743 0.74294 0.0
O145 O 0.5946 0.22775 0.79162 0.0
O146 O 0.6602 0.22984 0.78721 0.0
C147 C 0.75573 0.31218 0.7295 0.0
C148 C 0.62061 0.21156 0.80159 0.0
O149 O 0.62413 0.31613 0.72398 0.0
Mg150 Mg 0.40601 0.65075 0.8576 0.0
O151 O 0.41436 0.61768 0.91335 0.0
O152 O 0.39198 0.54582 0.89585 0.0
Mg153 Mg 0.36965 0.53316 0.82968 0.0
C154 C 0.40773 0.57891 0.92164 0.0
C155 C 0.44052 0.75022 0.87954 0.0
O156 O 0.45705 0.75122 0.8444 0.0
O157 O 0.32846 0.61439 0.86068 0.0
O158 O 0.30937 0.54354 0.84314 0.0
O159 O 0.47608 0.66838 0.84114 0.0
O160 O 0.41371 0.60536 0.82096 0.0
C161 C 0.29853 0.57315 0.85294 0.0
C162 C 0.45724 0.63017 0.82079 0.0
O163 O 0.41663 0.71266 0.89486 0.0
Mg164 Mg 0.75852 0.38857 0.03464 0.0
O165 O 0.80428 0.41091 0.09339 0.0
O166 O 0.85173 0.38321 0.08867 0.0
Mg167 Mg 0.83946 0.34606 0.0284 0.0
C168 C 0.83662 0.40545 0.10762 0.0
C169 C 0.69855 0.43344 0.03997 0.0
O170 O 0.7143 0.44415 0.00429 0.0
O171 O 0.71735 0.31496 0.05079 0.0
O172 O 0.7686 0.29239 0.04511 0.0
O173 O 0.80805 0.4479 0.00179 0.0
O174 O 0.80942 0.38498 0.00581 0.0
C175 C 0.72812 0.28408 0.05068 0.0
C176 C 0.82606 0.42372 -0.00849 0.0
O177 O 0.70979 0.4098 0.06088 0.0
Mg178 Mg 0.37004 0.75989 0.19565 0.0
O179 O 0.40547 0.80481 0.25301 0.0
O180 O 0.47542 0.8575 0.23849 0.0
Mg181 Mg 0.48486 0.8457 0.17317 0.0
C182 C 0.44392 0.83953 0.26283 0.0
C183 C 0.27285 0.69138 0.21316 0.0
O184 O 0.26842 0.70249 0.17683 0.0
O185 O 0.41156 0.7237 0.19945 0.0
O186 O 0.48064 0.77842 0.18587 0.0
O187 O 0.34565 0.80687 0.17821 0.0
O188 O 0.41045 0.81207 0.16071 0.0
C189 C 0.45346 0.73769 0.19337 0.0
C190 C 0.38276 0.82757 0.15952 0.0
O191 O 0.31221 0.70877 0.23073 0.0
C192 C 0.17513 0.65566 0.2821 0.0
C193 C 0.15416 0.60828 0.27687 0.0
C194 C 0.20762 0.61559 0.22602 0.0
C195 C 0.23173 0.66271 0.23472 0.0
N196 N 0.24068 0.72824 0.27199 0.0
N197 N 0.15111 0.54226 0.24631 0.0
C198 C 0.21603 0.68297 0.26297 0.0
C199 C 0.17029 0.58795 0.24917 0.0
N200 N 0.15533 0.67436 0.30491 0.0
N201 N 0.22037 0.59738 0.19554 0.0
H202 H 0.12277 0.521 0.2618 0.0
H203 H 0.16458 0.5254 0.23041 0.0
H204 H 0.24869 0.61639 0.17911 0.0
H205 H 0.20138 0.56404 0.18473 0.0
H206 H 0.16616 0.70851 0.30697 0.0
H207 H 0.12536 0.65517 0.31932 0.0
H208 H 0.23421 0.74441 0.29561 0.0
H209 H 0.26963 0.7497 0.25729 0.0
C210 C 0.53629 0.1754 0.42983 0.0
C211 C 0.56415 0.15534 0.4296 0.0
C212 C 0.61519 0.21107 0.3846 0.0
C213 C 0.59054 0.23431 0.38901 0.0
N214 N 0.52824 0.24004 0.41579 0.0
N215 N 0.63037 0.15344 0.40838 0.0
C216 C 0.55106 0.21672 0.41146 0.0
C217 C 0.6034 0.17266 0.40697 0.0
N218 N 0.49549 0.15448 0.4474 0.0
N219 N 0.64994 0.2259 0.35918 0.0
H220 H 0.62157 0.12417 0.42309 0.0
H221 H 0.66234 0.16736 0.3967 0.0
H222 H 0.66089 0.25508 0.34379 0.0
H223 H 0.66617 0.20801 0.35129 0.0
H224 H 0.47138 0.1648 0.44558 0.0
H225 H 0.48388 0.12426 0.46125 0.0
H226 H 0.50267 0.23216 0.43563 0.0
H227 H 0.53636 0.26902 0.40089 0.0
C228 C 0.3718 0.5175 0.5848 0.0
C229 C 0.41747 0.5497 0.5963 0.0
C230 C 0.39976 0.61031 0.59105 0.0
C231 C 0.35335 0.57808 0.58039 0.0
N232 N 0.30112 0.50375 0.55151 0.0
N233 N 0.4779 0.62583 0.59407 0.0
C234 C 0.34139 0.53251 0.57193 0.0
C235 C 0.43238 0.59582 0.593 0.0
N236 N 0.35661 0.47291 0.58841 0.0
N237 N 0.4126 0.65354 0.60332 0.0
H238 H 0.50219 0.61556 0.59605 0.0
H239 H 0.49096 0.65963 0.58872 0.0
H240 H 0.39047 0.66612 0.60569 0.0
H241 H 0.44518 0.67619 0.61537 0.0
H242 H 0.32233 0.44851 0.58491 0.0
H243 H 0.378 0.46064 0.59716 0.0
H244 H 0.29222 0.47107 0.54201 0.0
H245 H 0.27922 0.51439 0.54011 0.0
C246 C 0.88127 0.38175 0.743 0.0
C247 C 0.88431 0.42365 0.75339 0.0
C248 C 0.80757 0.39582 0.72281 0.0
C249 C 0.80123 0.3518 0.72208 0.0
N250 N 0.83764 0.30872 0.70744 0.0
N251 N 0.85415 0.47368 0.74767 0.0
C252 C 0.84018 0.34673 0.72418 0.0
C253 C 0.8489 0.43193 0.74063 0.0
N254 N 0.9159 0.37414 0.75412 0.0
N255 N 0.7752 0.40303 0.70489 0.0
H256 H 0.88499 0.50096 0.75881 0.0
H257 H 0.82799 0.48101 0.74368 0.0
H258 H 0.74754 0.37768 0.68775 0.0
H259 H 0.77849 0.43462 0.70255 0.0
H260 H 0.91309 0.34254 0.75197 0.0
H261 H 0.94686 0.39904 0.76741 0.0
H262 H 0.86564 0.30408 0.70522 0.0
H263 H 0.80821 0.28423 0.69149 0.0
C264 C 0.49504 0.85302 0.95261 0.0
C265 C 0.46929 0.87389 0.94229 0.0
C266 C 0.42833 0.81635 0.88783 0.0
C267 C 0.45051 0.79284 0.90106 0.0
N268 N 0.50298 0.78659 0.94715 0.0
N269 N 0.40894 0.87436 0.90262 0.0
C270 C 0.4834 0.81061 0.93377 0.0
C271 C 0.43555 0.85553 0.91028 0.0
N272 N 0.5312 0.87439 0.97999 0.0
N273 N 0.40034 0.80117 0.85377 0.0
H274 H 0.41409 0.90377 0.91762 0.0
H275 H 0.38009 0.85958 0.88316 0.0
H276 H 0.39221 0.77132 0.83775 0.0
H277 H 0.38736 0.81944 0.83989 0.0
H278 H 0.5542 0.86338 0.9863 0.0
H279 H 0.54059 0.90557 -0.00589 0.0
H280 H 0.52317 0.79498 0.9736 0.0
H281 H 0.49686 0.7564 0.93304 0.0
C282 C 0.66362 0.50798 0.09797 0.0
C283 C 0.61564 0.4823 0.09206 0.0
C284 C 0.62291 0.42927 0.04596 0.0
C285 C 0.67025 0.45134 0.0565 0.0
N286 N 0.73646 0.51115 0.09269 0.0
N287 N 0.54862 0.41783 0.06187 0.0
C288 C 0.69093 0.49082 0.08232 0.0
C289 C 0.595 0.44309 0.06592 0.0
N290 N 0.68278 0.54886 0.11853 0.0
N291 N 0.60472 0.39514 0.01686 0.0
H292 H 0.52722 0.42788 0.07475 0.0
H293 H 0.53122 0.38597 0.04749 0.0
H294 H 0.62391 0.3832 0.00262 0.0
H295 H 0.57148 0.38076 0.00475 0.0
H296 H 0.71759 0.57134 0.12122 0.0
H297 H 0.66332 0.56205 0.13008 0.0
H298 H 0.75284 0.53698 0.11478 0.0
H299 H 0.75779 0.50047 0.08069 0.0
C300 C 0.37164 0.86056 0.51106 0.0
C301 C 0.41976 0.882 0.51387 0.0
C302 C 0.41669 0.82659 0.55971 0.0
C303 C 0.36875 0.80191 0.55252 0.0
N304 N 0.29972 0.79384 0.52137 0.0
N305 N 0.48903 0.88581 0.53909 0.0
C306 C 0.3459 0.8186 0.52836 0.0
C307 C 0.44262 0.86551 0.53822 0.0
N308 N 0.35086 0.88078 0.49202 0.0
N309 N 0.43735 0.81269 0.58697 0.0
H310 H 0.50915 0.91536 0.52496 0.0
H311 H 0.50763 0.87236 0.55204 0.0
H312 H 0.4197 0.78318 0.60187 0.0
H313 H 0.47142 0.83171 0.59686 0.0
H314 H 0.31609 0.86923 0.49173 0.0
H315 H 0.36912 0.91163 0.47921 0.0
H316 H 0.28149 0.80143 0.50048 0.0
H317 H 0.27948 0.76396 0.53502 0.0
C318 C 0.58841 0.41661 0.69331 0.0
C319 C 0.54901 0.39712 0.66689 0.0
C320 C 0.53242 0.32174 0.68339 0.0
C321 C 0.57118 0.34124 0.71065 0.0
N322 N 0.63001 0.40649 0.74845 0.0
N323 N 0.47848 0.33258 0.64258 0.0
C324 C 0.59738 0.38852 0.71769 0.0
C325 C 0.51929 0.35006 0.66394 0.0
N326 N 0.61815 0.46176 0.69395 0.0
N327 N 0.50973 0.27645 0.67435 0.0
H328 H 0.46819 0.35254 0.62769 0.0
H329 H 0.45324 0.29902 0.64248 0.0
H330 H 0.51849 0.25457 0.68767 0.0
H331 H 0.48451 0.26086 0.6514 0.0
H332 H 0.65022 0.47718 0.70874 0.0
H333 H 0.61201 0.48367 0.67753 0.0
H334 H 0.64711 0.4404 0.75771 0.0
H335 H 0.63714 0.38688 0.76723 0.0
C336 C 0.18795 0.57339 0.87047 0.0
C337 C 0.16 0.54486 0.83768 0.0
C338 C 0.22087 0.53204 0.81679 0.0
C339 C 0.24943 0.56003 0.85005 0.0
N340 N 0.25462 0.59591 0.91492 0.0
N341 N 0.1436 0.48454 0.78964 0.0
C342 C 0.23117 0.57703 0.8791 0.0
C343 C 0.17423 0.51916 0.81501 0.0
N344 N 0.17404 0.59834 0.89213 0.0
N345 N 0.23858 0.52175 0.78459 0.0
H346 H 0.10922 0.4753 0.78743 0.0
H347 H 0.15151 0.46251 0.7744 0.0
H348 H 0.27327 0.53512 0.78122 0.0
H349 H 0.21913 0.50473 0.75848 0.0
H350 H 0.1951 0.6237 0.91343 0.0
H351 H 0.14179 0.59474 0.88724 0.0
H352 H 0.2413 0.60576 0.93828 0.0
H353 H 0.28539 0.59736 0.92272 0.0
C354 C 0.61098 0.18009 0.05578 0.0
C355 C 0.61661 0.14857 0.03196 0.0
C356 C 0.69513 0.20349 0.02342 0.0
C357 C 0.69122 0.2359 0.04848 0.0
N358 N 0.64828 0.24859 0.09862 0.0
N359 N 0.66801 0.1246 0.00912 0.0
C360 C 0.65004 0.2221 0.0682 0.0
C361 C 0.66064 0.15818 0.02286 0.0
N362 N 0.56835 0.17059 0.06502 0.0
N363 N 0.7275 0.2158 -0.00424 0.0
H364 H 0.64226 0.09104 0.00728 0.0
H365 H 0.70045 0.12999 0.00375 0.0
H366 H 0.74797 0.24865 -0.01212 0.0
H367 H 0.72868 0.19264 0.97556 0.0
H368 H 0.56146 0.19416 0.07861 0.0
H369 H 0.53985 0.1393 0.05733 0.0
H370 H 0.61985 0.23862 0.11548 0.0
H371 H 0.67692 0.27819 0.10976 0.0
C372 C 0.51519 0.67789 0.15371 0.0
C373 C 0.49021 0.63567 0.16997 0.0
C374 C 0.45366 0.66674 0.21244 0.0
C375 C 0.46958 0.70444 0.18827 0.0
N376 N 0.50742 0.73788 0.1276 0.0
N377 N 0.43516 0.58892 0.21556 0.0
C378 C 0.49906 0.70862 0.15711 0.0
C379 C 0.45967 0.62989 0.20007 0.0
N380 N 0.55201 0.68693 0.13217 0.0
N381 N 0.4336 0.66638 0.24724 0.0
H382 H 0.4403 0.5621 0.20792 0.0
H383 H 0.4086 0.58123 0.23429 0.0
H384 H 0.43082 0.69372 0.25807 0.0
H385 H 0.42437 0.64115 0.26731 0.0
H386 H 0.57322 0.71854 0.12172 0.0
H387 H 0.56368 0.66407 0.12871 0.0
H388 H 0.52596 0.73898 0.10298 0.0
H389 H 0.4906 0.75604 0.12387 0.0
C390 C 0.84999 0.44161 0.37464 0.0
C391 C 0.87992 0.4855 0.36267 0.0
C392 C 0.82903 0.51088 0.38777 0.0
C393 C 0.79461 0.46539 0.38898 0.0
N394 N 0.78115 0.39309 0.40797 0.0
N395 N 0.90144 0.56367 0.36217 0.0
C396 C 0.80778 0.43221 0.39022 0.0
C397 C 0.87116 0.52104 0.37172 0.0
N398 N 0.86095 0.40864 0.36879 0.0
N399 N 0.82152 0.54384 0.40308 0.0
H400 H 0.93311 0.57228 0.35139 0.0
H401 H 0.89444 0.58996 0.36337 0.0
H402 H 0.79193 0.53623 0.41762 0.0
H403 H 0.84624 0.57766 0.40569 0.0
H404 H 0.83841 0.37476 0.37204 0.0
H405 H 0.89266 0.41537 0.35927 0.0
H406 H 0.78993 0.36835 0.41178 0.0
H407 H 0.75313 0.38824 0.4237 0.0
C408 C 0.12588 0.59058 0.44099 0.0
C409 C 0.12179 0.55629 0.41348 0.0
C410 C 0.16924 0.53996 0.45896 0.0
C411 C 0.1719 0.57315 0.48718 0.0
N412 N 0.14434 0.6228 0.509 0.0
N413 N 0.13166 0.49274 0.39854 0.0
C414 C 0.1477 0.59632 0.47937 0.0
C415 C 0.14088 0.52906 0.42332 0.0
N416 N 0.11067 0.61903 0.42982 0.0
N417 N 0.19566 0.52066 0.4652 0.0
H418 H 0.1112 0.48425 0.37213 0.0
H419 H 0.14083 0.46894 0.40572 0.0
H420 H 0.21741 0.52833 0.4906 0.0
H421 H 0.19894 0.49983 0.44385 0.0
H422 H 0.11811 0.64826 0.44649 0.0
H423 H 0.09317 0.61523 0.40246 0.0
H424 H 0.12277 0.63619 0.50647 0.0
H425 H 0.15995 0.62834 0.53755 0.0
C426 C 0.59871 0.10976 0.59713 0.0
C427 C 0.57578 0.12463 0.57097 0.0
C428 C 0.59577 0.18818 0.61837 0.0
C429 C 0.61336 0.17014 0.64699 0.0
N430 N 0.61358 0.10273 0.66656 0.0
N431 N 0.53813 0.16863 0.56537 0.0
C432 C 0.60943 0.12752 0.63741 0.0
C433 C 0.56938 0.16064 0.58453 0.0
N434 N 0.61226 0.0805 0.58367 0.0
N435 N 0.60647 0.23214 0.62129 0.0
H436 H 0.51622 0.14753 0.54179 0.0
H437 H 0.53061 0.19294 0.57615 0.0
H438 H 0.63078 0.25584 0.64203 0.0
H439 H 0.59606 0.24636 0.59922 0.0
H440 H 0.63221 0.07187 0.60155 0.0
H441 H 0.60814 0.06902 0.55377 0.0
H442 H 0.60807 0.07036 0.66052 0.0
H443 H 0.61582 0.1115 0.697 0.0
C444 C 0.51713 0.62014 0.73112 0.0
C445 C 0.49577 0.57275 0.72834 0.0
C446 C 0.47426 0.57108 0.7973 0.0
C447 C 0.48329 0.6158 0.79537 0.0
N448 N 0.51701 0.68509 0.76103 0.0
N449 N 0.45583 0.50221 0.75966 0.0
C450 C 0.50719 0.64157 0.76308 0.0
C451 C 0.47587 0.54791 0.76207 0.0
N452 N 0.54554 0.64415 0.70231 0.0
N453 N 0.46403 0.55113 0.83289 0.0
H454 H 0.45694 0.48415 0.73446 0.0
H455 H 0.43614 0.48216 0.78188 0.0
H456 H 0.46498 0.56896 0.8591 0.0
H457 H 0.45994 0.51946 0.83709 0.0
H458 H 0.5651 0.67903 0.70413 0.0
H459 H 0.5528 0.6286 0.67856 0.0
H460 H 0.52854 0.70313 0.73551 0.0
H461 H 0.51188 0.70292 0.78405 0.0
C462 C 0.8968 0.4198 0.90706 0.0
C463 C 0.91951 0.46517 0.89738 0.0
C464 C 0.89363 0.48422 0.95853 0.0
C465 C 0.86151 0.43799 0.96162 0.0
N466 N 0.82643 0.36236 0.92974 0.0
N467 N 0.93785 0.54164 0.91319 0.0
C468 C 0.86176 0.40557 0.93397 0.0
C469 C 0.91805 0.498 0.92316 0.0
N470 N 0.90695 0.38993 0.88878 0.0
N471 N 0.90161 0.51469 -0.01059 0.0
H472 H 0.95599 0.55297 0.88755 0.0
H473 H 0.9334 0.56575 0.929 0.0
H474 H 0.88664 0.50531 0.01675 0.0
H475 H 0.9271 0.5482 -0.01048 0.0
H476 H 0.89316 0.35688 0.897 0.0
H477 H 0.93275 0.3998 0.8687 0.0
H478 H 0.82468 0.33933 0.90763 0.0
H479 H 0.79585 0.35101 0.9435 0.0
C480 C 0.45812 0.92785 0.10642 0.0
C481 C 0.43128 0.91957 0.0704 0.0
C482 C 0.3648 0.86041 0.10037 0.0
C483 C 0.39286 0.8661 0.13501 0.0
N484 N 0.45796 0.91659 0.17749 0.0
N485 N 0.357 0.89093 0.03811 0.0
C486 C 0.4368 0.90402 0.1402 0.0
C487 C 0.38364 0.89046 0.06936 0.0
N488 N 0.50418 0.95555 0.10764 0.0
N489 N 0.32169 0.82458 0.09554 0.0
H490 H 0.3706 0.91288 0.01514 0.0
H491 H 0.32159 0.87307 0.03703 0.0
H492 H 0.30582 0.80266 0.11793 0.0
H493 H 0.30217 0.81552 0.06863 0.0
H494 H 0.52566 0.95834 0.13188 0.0
H495 H 0.52141 0.97367 0.08354 0.0
H496 H 0.48897 0.94584 0.18395 0.0
H497 H 0.44135 0.90006 0.2025 0.0
C498 C 0.53123 0.40778 0.22121 0.0
C499 C 0.54933 0.45484 0.22351 0.0
C500 C 0.57606 0.45793 0.29261 0.0
C501 C 0.56957 0.41412 0.2862 0.0
N502 N 0.54125 0.34672 0.24254 0.0
N503 N 0.5895 0.52579 0.26193 0.0
C504 C 0.54608 0.38822 0.25043 0.0
C505 C 0.57115 0.48026 0.25965 0.0
N506 N 0.50122 0.38232 0.19021 0.0
N507 N 0.5858 0.47754 0.33037 0.0
H508 H 0.58619 0.5434 0.23854 0.0
H509 H 0.61033 0.54623 0.28624 0.0
H510 H 0.58559 0.45977 0.35499 0.0
H511 H 0.58794 0.50833 0.33744 0.0
H512 H 0.48398 0.34735 0.18857 0.0
H513 H 0.4902 0.39638 0.16842 0.0
H514 H 0.52918 0.32914 0.21482 0.0
H515 H 0.55248 0.33104 0.26224 0.0
C516 C 0.49688 0.89659 0.36528 0.0
C517 C 0.46729 0.91282 0.37601 0.0
C518 C 0.42418 0.88349 0.31148 0.0
C519 C 0.45087 0.86322 0.30244 0.0
N520 N 0.50912 0.84573 0.32207 0.0
N521 N 0.39995 0.91818 0.36201 0.0
C522 C 0.48653 0.86873 0.32961 0.0
C523 C 0.43024 0.90544 0.34977 0.0
N524 N 0.53498 0.90813 0.38918 0.0
N525 N 0.39429 0.88338 0.28295 0.0
H526 H 0.40435 0.93629 0.38904 0.0
H527 H 0.36901 0.90844 0.34658 0.0
H528 H 0.38818 0.86729 0.25461 0.0
H529 H 0.37808 0.90224 0.2861 0.0
H530 H 0.56039 0.90116 0.38128 0.0
H531 H 0.54309 0.92811 0.41569 0.0
H532 H 0.53228 0.84458 0.34248 0.0
H533 H 0.50192 0.82454 0.29651 0.0
C534 C 0.61917 0.48629 0.52856 0.0
C535 C 0.57192 0.45832 0.53289 0.0
C536 C 0.56202 0.42737 0.46401 0.0
C537 C 0.61001 0.45125 0.46138 0.0
N538 N 0.68506 0.49972 0.49211 0.0
N539 N 0.49841 0.39934 0.50689 0.0
C540 C 0.63887 0.4801 0.49378 0.0
C541 C 0.54326 0.42823 0.50111 0.0
N542 N 0.64502 0.51885 0.55771 0.0
N543 N 0.5343 0.40507 0.43072 0.0
H544 H 0.48299 0.40016 0.53315 0.0
H545 H 0.47712 0.37273 0.48674 0.0
H546 H 0.54657 0.40341 0.40293 0.0
H547 H 0.49913 0.39136 0.42969 0.0
H548 H 0.67872 0.54329 0.55468 0.0
H549 H 0.63157 0.52384 0.58374 0.0
H550 H 0.70784 0.51716 0.51639 0.0
H551 H 0.70075 0.49553 0.46731 0.0
C552 C 0.15083 0.64611 0.72027 0.0
C553 C 0.11957 0.59962 0.71994 0.0
C554 C 0.13969 0.59007 0.65237 0.0
C555 C 0.17843 0.63343 0.65719 0.0
N556 N 0.22178 0.70369 0.69672 0.0
N557 N 0.08368 0.52616 0.68549 0.0
C558 C 0.18373 0.66236 0.69089 0.0
C559 C 0.11297 0.57132 0.68554 0.0
N560 N 0.14985 0.67412 0.74969 0.0
N561 N 0.12829 0.56718 0.61593 0.0
H562 H 0.06271 0.51093 0.70883 0.0
H563 H 0.08215 0.50343 0.6632 0.0
H564 H 0.14637 0.58159 0.59094 0.0
H565 H 0.09836 0.53679 0.60963 0.0
H566 H 0.16931 0.70896 0.74995 0.0
H567 H 0.12595 0.66227 0.77158 0.0
H568 H 0.22965 0.7237 0.72311 0.0
H569 H 0.24741 0.71697 0.6766 0.0
C570 C 0.61839 0.13697 0.88462 0.0
C571 C 0.57145 0.11484 0.89156 0.0
C572 C 0.55782 0.14191 0.82904 0.0
C573 C 0.60505 0.17402 0.82903 0.0
N574 N 0.68009 0.20538 0.8633 0.0
N575 N 0.49536 0.0968 0.8702 0.0
C576 C 0.6357 0.17203 0.85797 0.0
C577 C 0.54056 0.11682 0.86341 0.0
N578 N 0.6466 0.12586 0.90505 0.0
N579 N 0.52975 0.13466 0.79608 0.0
H580 H 0.48155 0.07793 0.89494 0.0
H581 H 0.47231 0.10152 0.85258 0.0
H582 H 0.54192 0.15 0.76937 0.0
H583 H 0.49573 0.10942 0.79375 0.0
H584 H 0.68075 0.13897 0.89906 0.0
H585 H 0.63435 0.0999 0.92467 0.0
H586 H 0.70164 0.2065 0.88681 0.0
H587 H 0.69434 0.23476 0.84812 0.0
C588 C 0.48502 0.59284 0.01205 0.0
C589 C 0.45339 0.56057 0.03689 0.0
C590 C 0.39115 0.54232 0.98722 0.0
C591 C 0.42315 0.57299 0.96156 0.0
N592 N 0.50135 0.62061 0.9457 0.0
N593 N 0.37831 0.49966 0.04654 0.0
C594 C 0.47035 0.59636 0.97287 0.0
C595 C 0.40699 0.53365 0.02388 0.0
N596 N 0.52877 0.62131 0.02645 0.0
N597 N 0.34562 0.52305 0.97729 0.0
H598 H 0.38906 0.49289 0.07368 0.0
H599 H 0.34507 0.47596 0.03709 0.0
H600 H 0.33286 0.52905 0.95086 0.0
H601 H 0.32038 0.504 -0.00351 0.0
H602 H 0.55161 0.64934 0.01184 0.0
H603 H 0.54158 0.61884 0.05441 0.0
H604 H 0.53627 0.63388 0.9507 0.0
H605 H 0.49221 0.62444 0.91668 0.0
C606 C 0.90668 0.49044 0.19341 0.0
C607 C 0.90627 0.46114 0.22246 0.0
C608 C 0.85453 0.39592 0.17824 0.0
C609 C 0.8579 0.42509 0.14792 0.0
N610 N 0.89236 0.49972 0.12389 0.0
N611 N 0.88613 0.3866 0.24081 0.0
C612 C 0.8853 0.47232 0.15474 0.0
C613 C 0.88207 0.414 0.2143 0.0
N614 N 0.92634 0.53542 0.20318 0.0
N615 N 0.82369 0.35106 0.17309 0.0
H616 H 0.90599 0.39876 0.26761 0.0
H617 H 0.87318 0.35235 0.23476 0.0
H618 H 0.80233 0.33675 0.1473 0.0
H619 H 0.8162 0.32872 0.19565 0.0
H620 H 0.92308 0.55779 0.18502 0.0
H621 H 0.94346 0.55006 0.23079 0.0
H622 H 0.91606 0.53388 0.12577 0.0
H623 H 0.87697 0.48778 0.09526 0.0
loop_
_geom_bond_atom_site_label_1
_geom_bond_atom_site_label_2
_geom_bond_distance
_geom_bond_site_symmetry_2
_ccdc_geom_bond_type
H0 C6 0.930 . S
H1 C9 0.931 . S
H2 C11 0.931 . S
H3 C13 0.930 . S
H4 C15 0.930 . S
H5 C17 0.931 . S
C6 H0 0.930 . S
C6 C7 1.380 . S
C6 C8 1.394 . S
C7 C6 1.380 . S
C7 C11 1.382 . S
C8 C6 1.394 . S
C8 C9 1.400 . S
C9 H1 0.931 . S
C9 C8 1.400 . S
C9 C10 1.375 . S
C10 C9 1.375 . S
C10 C11 1.415 . S
C10 C12 1.501 1_455 S
C11 H2 0.931 . S
C11 C7 1.382 . S
C11 C10 1.415 . S
C12 C10 1.501 1_655 S
C12 C13 1.384 . S
C12 C17 1.408 . S
C13 H3 0.930 . S
C13 C12 1.384 . S
C13 C14 1.389 . S
C14 C13 1.389 . S
C14 C15 1.405 . S
C15 H4 0.930 . S
C15 C14 1.405 . S
C15 C16 1.364 . S
C16 C15 1.364 . S
C16 C17 1.400 . S
C17 H5 0.931 . S
C17 C12 1.408 . S
C17 C16 1.400 . S
H18 C24 0.930 . S
H19 C27 0.931 . S
H20 C29 0.931 . S
H21 C31 0.930 . S
H22 C33 0.930 . S
H23 C35 0.931 . S
C24 H18 0.930 . S
C24 C25 1.380 . S
C24 C26 1.394 . S
C25 C24 1.380 . S
C25 C29 1.382 . S
C26 C24 1.394 . S
C26 C27 1.400 . S
C27 H19 0.931 . S
C27 C26 1.400 . S
C27 C28 1.375 . S
C28 C27 1.375 . S
C28 C29 1.415 . S
C28 C30 1.501 1_545 S
C29 H20 0.931 . S
C29 C25 1.382 . S
C29 C28 1.415 . S
C30 C28 1.501 1_565 S
C30 C31 1.384 . S
C30 C35 1.408 . S
C31 H21 0.930 . S
C31 C30 1.384 . S
C31 C32 1.389 . S
C32 C31 1.389 . S
C32 C33 1.405 . S
C33 H22 0.930 . S
C33 C32 1.405 . S
C33 C34 1.364 . S
C34 C33 1.364 . S
C34 C35 1.400 . S
C35 H23 0.931 . S
C35 C30 1.408 . S
C35 C34 1.400 . S
H36 C42 0.930 . S
H37 C45 0.931 . S
H38 C47 0.931 . S
H39 C49 0.930 . S
H40 C51 0.930 . S
H41 C53 0.931 . S
C42 H36 0.930 . S
C42 C43 1.380 . S
C42 C44 1.394 . S
C43 C42 1.380 . S
C43 C47 1.382 . S
C44 C42 1.394 . S
C44 C45 1.400 . S
C45 H37 0.931 . S
C45 C44 1.400 . S
C45 C46 1.375 . S
C46 C45 1.375 . S
C46 C47 1.415 . S
C46 C48 1.501 . S
C47 H38 0.931 . S
C47 C43 1.382 . S
C47 C46 1.415 . S
C48 C46 1.501 . S
C48 C49 1.384 . S
C48 C53 1.408 . S
C49 H39 0.930 . S
C49 C48 1.384 . S
C49 C50 1.389 . S
C50 C49 1.389 . S
C50 C51 1.405 . S
C51 H40 0.930 . S
C51 C50 1.405 . S
C51 C52 1.364 . S
C52 C51 1.364 . S
C52 C53 1.400 . S
C53 H41 0.931 . S
C53 C48 1.408 . S
C53 C52 1.400 . S
H54 C60 0.930 . S
H55 C63 0.931 . S
H56 C65 0.931 . S
H57 C67 0.930 . S
H58 C69 0.930 . S
H59 C71 0.931 . S
C60 H54 0.930 . S
C60 C61 1.380 . S
C60 C62 1.394 . S
C61 C60 1.380 . S
C61 C65 1.382 . S
C62 C60 1.394 . S
C62 C63 1.400 . S
C63 H55 0.931 . S
C63 C62 1.400 . S
C63 C64 1.375 . S
C64 C63 1.375 . S
C64 C65 1.415 . S
C64 C66 1.501 1_455 S
C65 H56 0.931 . S
C65 C61 1.382 . S
C65 C64 1.415 . S
C66 C64 1.501 1_655 S
C66 C67 1.384 . S
C66 C71 1.408 . S
C67 H57 0.930 . S
C67 C66 1.384 . S
C67 C68 1.389 . S
C68 C67 1.389 . S
C68 C69 1.405 . S
C69 H58 0.930 . S
C69 C68 1.405 . S
C69 C70 1.364 . S
C70 C69 1.364 . S
C70 C71 1.400 . S
C71 H59 0.931 . S
C71 C66 1.408 . S
C71 C70 1.400 . S
H72 C78 0.930 . S
H73 C81 0.931 . S
H74 C83 0.931 1_545 S
H75 C85 0.930 . S
H76 C87 0.930 . S
H77 C89 0.931 . S
C78 H72 0.930 . S
C78 C79 1.380 . S
C78 C80 1.394 1_554 S
C79 C78 1.380 . S
C79 C83 1.382 . S
C80 C78 1.394 1_556 S
C80 C81 1.400 . S
C81 H73 0.931 . S
C81 C80 1.400 . S
C81 C82 1.375 . S
C82 C81 1.375 . S
C82 C83 1.415 1_556 S
C82 C84 1.501 1_565 S
C83 H74 0.931 1_565 S
C83 C79 1.382 . S
C83 C82 1.415 1_554 S
C84 C82 1.501 1_545 S
C84 C85 1.384 1_556 S
C84 C89 1.408 . S
C85 H75 0.930 . S
C85 C84 1.384 1_554 S
C85 C86 1.397 . S
C86 C85 1.397 . S
C86 C87 1.380 1_554 S
C87 H76 0.930 . S
C87 C86 1.380 1_556 S
C87 C88 1.364 . S
C88 C87 1.364 . S
C88 C89 1.400 . S
C89 H77 0.931 . S
C89 C84 1.408 . S
C89 C88 1.400 . S
H90 C96 0.930 . S
H91 C99 0.931 . S
H92 C101 0.931 . S
H93 C103 0.930 . S
H94 C105 0.930 . S
H95 C107 0.931 . S
C96 H90 0.930 . S
C96 C97 1.380 . S
C96 C98 1.394 . S
C97 C96 1.380 . S
C97 C101 1.382 . S
C98 C96 1.394 . S
C98 C99 1.400 . S
C99 H91 0.931 . S
C99 C98 1.400 . S
C99 C100 1.375 . S
C100 C99 1.375 . S
C100 C101 1.415 . S
C100 C102 1.501 . S
C101 H92 0.931 . S
C101 C97 1.382 . S
C101 C100 1.415 . S
C102 C100 1.501 . S
C102 C103 1.384 . S
C102 C107 1.408 . S
C103 H93 0.930 . S
C103 C102 1.384 . S
C103 C104 1.389 . S
C104 C103 1.389 . S
C104 C105 1.405 . S
C105 H94 0.930 . S
C105 C104 1.405 . S
C105 C106 1.364 . S
C106 C105 1.364 . S
C106 C107 1.400 . S
C107 H95 0.931 . S
C107 C102 1.408 . S
C107 C106 1.400 . S
Mg108 O109 2.028 . S
Mg108 O115 1.986 . S
Mg108 O117 2.114 . S
Mg108 O118 2.251 . S
Mg108 O121 2.010 . S
O109 Mg108 2.028 . S
O109 C112 1.250 . S
O110 Mg111 2.028 . S
O110 C112 1.248 . S
Mg111 O110 2.028 . S
Mg111 O116 2.032 . S
Mg111 O118 2.079 . S
C112 O109 1.250 . S
C112 O110 1.248 . S
C113 O114 1.264 . S
C113 O121 1.249 . S
O114 C113 1.264 . S
O115 Mg108 1.986 . S
O115 C119 1.246 . S
O116 Mg111 2.032 . S
O116 C119 1.259 . S
O117 Mg108 2.114 . S
O117 C120 1.252 . S
O118 Mg108 2.251 . S
O118 Mg111 2.079 . S
O118 C120 1.273 . S
C119 O115 1.246 . S
C119 O116 1.259 . S
C120 O117 1.252 . S
C120 O118 1.273 . S
O121 Mg108 2.010 . S
O121 C113 1.249 . S
Mg122 O123 2.028 . S
Mg122 O129 1.986 . S
Mg122 O131 2.114 . S
Mg122 O132 2.251 . S
Mg122 O135 2.010 . S
O123 Mg122 2.028 . S
O123 C126 1.250 . S
O124 Mg125 2.028 . S
O124 C126 1.248 . S
Mg125 O124 2.028 . S
Mg125 O130 2.032 . S
Mg125 O132 2.079 . S
C126 O123 1.250 . S
C126 O124 1.248 . S
C127 O128 1.264 . S
C127 O135 1.249 . S
O128 C127 1.264 . S
O129 Mg122 1.986 . S
O129 C133 1.246 . S
O130 Mg125 2.032 . S
O130 C133 1.259 . S
O131 Mg122 2.114 . S
O131 C134 1.252 . S
O132 Mg122 2.251 . S
O132 Mg125 2.079 . S
O132 C134 1.273 . S
C133 O129 1.246 . S
C133 O130 1.259 . S
C134 O131 1.252 . S
C134 O132 1.273 . S
O135 Mg122 2.010 . S
O135 C127 1.249 . S
Mg136 O137 2.028 . S
Mg136 O143 1.986 . S
Mg136 O145 2.114 . S
Mg136 O146 2.251 . S
Mg136 O149 2.010 . S
O137 Mg136 2.028 . S
O137 C140 1.250 . S
O138 Mg139 2.028 . S
O138 C140 1.248 . S
Mg139 O138 2.028 . S
Mg139 O144 2.032 . S
Mg139 O146 2.079 . S
C140 O137 1.250 . S
C140 O138 1.248 . S
C141 O142 1.264 . S
C141 O149 1.249 . S
O142 C141 1.264 . S
O143 Mg136 1.986 . S
O143 C147 1.246 . S
O144 Mg139 2.032 . S
O144 C147 1.259 . S
O145 Mg136 2.114 . S
O145 C148 1.252 . S
O146 Mg136 2.251 . S
O146 Mg139 2.079 . S
O146 C148 1.273 . S
C147 O143 1.246 . S
C147 O144 1.259 . S
C148 O145 1.252 . S
C148 O146 1.273 . S
O149 Mg136 2.010 . S
O149 C141 1.249 . S
Mg150 O151 2.028 . S
Mg150 O157 1.986 . S
Mg150 O159 2.114 . S
Mg150 O160 2.251 . S
Mg150 O163 2.010 . S
O151 Mg150 2.028 . S
O151 C154 1.250 . S
O152 Mg153 2.028 . S
O152 C154 1.248 . S
Mg153 O152 2.028 . S
Mg153 O158 2.032 . S
Mg153 O160 2.079 . S
C154 O151 1.250 . S
C154 O152 1.248 . S
C155 O156 1.264 . S
C155 O163 1.249 . S
O156 C155 1.264 . S
O157 Mg150 1.986 . S
O157 C161 1.246 . S
O158 Mg153 2.032 . S
O158 C161 1.259 . S
O159 Mg150 2.114 . S
O159 C162 1.252 . S
O160 Mg150 2.251 . S
O160 Mg153 2.079 . S
O160 C162 1.273 . S
C161 O157 1.246 . S
C161 O158 1.259 . S
C162 O159 1.252 . S
C162 O160 1.273 . S
O163 Mg150 2.010 . S
O163 C155 1.249 . S
Mg164 O165 2.028 . S
Mg164 O171 1.986 . S
Mg164 O173 2.114 . S
Mg164 O174 2.251 . S
Mg164 O177 2.010 . S
O165 Mg164 2.028 . S
O165 C168 1.250 . S
O166 Mg167 2.028 . S
O166 C168 1.248 . S
Mg167 O166 2.028 . S
Mg167 O172 2.032 . S
Mg167 O174 2.079 . S
C168 O165 1.250 . S
C168 O166 1.248 . S
C169 O170 1.264 . S
C169 O177 1.249 . S
O170 C169 1.264 . S
O171 Mg164 1.986 . S
O171 C175 1.246 . S
O172 Mg167 2.032 . S
O172 C175 1.259 . S
O173 Mg164 2.114 . S
O173 C176 1.252 . S
O174 Mg164 2.251 . S
O174 Mg167 2.079 . S
O174 C176 1.273 . S
C175 O171 1.246 . S
C175 O172 1.259 . S
C176 O173 1.252 . S
C176 O174 1.273 . S
O177 Mg164 2.010 . S
O177 C169 1.249 . S
Mg178 O179 2.028 . S
Mg178 O185 1.986 . S
Mg178 O187 2.114 . S
Mg178 O188 2.251 . S
Mg178 O191 2.010 . S
O179 Mg178 2.028 . S
O179 C182 1.250 . S
O180 Mg181 2.028 . S
O180 C182 1.248 . S
Mg181 O180 2.028 . S
Mg181 O186 2.032 . S
Mg181 O188 2.079 . S
C182 O179 1.250 . S
C182 O180 1.248 . S
C183 O184 1.264 . S
C183 O191 1.249 . S
O184 C183 1.264 . S
O185 Mg178 1.986 . S
O185 C189 1.246 . S
O186 Mg181 2.032 . S
O186 C189 1.259 . S
O187 Mg178 2.114 . S
O187 C190 1.252 . S
O188 Mg178 2.251 . S
O188 Mg181 2.079 . S
O188 C190 1.273 . S
C189 O185 1.246 . S
C189 O186 1.259 . S
C190 O187 1.252 . S
C190 O188 1.273 . S
O191 Mg178 2.010 . S
O191 C183 1.249 . S
C192 C193 1.363 . S
C192 C198 1.379 . S
C192 N200 1.356 . S
C193 C192 1.363 . S
C193 C199 1.363 . S
C194 C195 1.363 . S
C194 C199 1.379 . S
C194 N201 1.356 . S
C195 C194 1.363 . S
C195 C198 1.363 . S
N196 C198 1.356 . S
N196 H208 0.984 . S
N196 H209 0.985 . S
N197 C199 1.356 . S
N197 H202 0.984 . S
N197 H203 0.985 . S
C198 C192 1.379 . S
C198 C195 1.363 . S
C198 N196 1.356 . S
C199 C193 1.363 . S
C199 C194 1.379 . S
C199 N197 1.356 . S
N200 C192 1.356 . S
N200 H206 0.984 . S
N200 H207 0.984 . S
N201 C194 1.356 . S
N201 H204 0.984 . S
N201 H205 0.985 . S
H202 N197 0.984 . S
H203 N197 0.985 . S
H204 N201 0.984 . S
H205 N201 0.985 . S
H206 N200 0.984 . S
H207 N200 0.984 . S
H208 N196 0.984 . S
H209 N196 0.985 . S
C210 C211 1.363 . S
C210 C216 1.379 . S
C210 N218 1.356 . S
C211 C210 1.363 . S
C211 C217 1.363 . S
C212 C213 1.363 . S
C212 C217 1.379 . S
C212 N219 1.356 . S
C213 C212 1.363 . S
C213 C216 1.363 . S
N214 C216 1.356 . S
N214 H226 0.984 . S
N214 H227 0.985 . S
N215 C217 1.356 . S
N215 H220 0.984 . S
N215 H221 0.985 . S
C216 C210 1.379 . S
C216 C213 1.363 . S
C216 N214 1.356 . S
C217 C211 1.363 . S
C217 C212 1.379 . S
C217 N215 1.356 . S
N218 C210 1.356 . S
N218 H224 0.984 . S
N218 H225 0.984 . S
N219 C212 1.356 . S
N219 H222 0.984 . S
N219 H223 0.985 . S
H220 N215 0.984 . S
H221 N215 0.985 . S
H222 N219 0.984 . S
H223 N219 0.985 . S
H224 N218 0.984 . S
H225 N218 0.984 . S
H226 N214 0.984 . S
H227 N214 0.985 . S
C228 C229 1.363 . S
C228 C234 1.379 . S
C228 N236 1.356 . S
C229 C228 1.363 . S
C229 C235 1.363 . S
C230 C231 1.363 . S
C230 C235 1.379 . S
C230 N237 1.356 . S
C231 C230 1.363 . S
C231 C234 1.363 . S
N232 C234 1.356 . S
N232 H244 0.984 . S
N232 H245 0.985 . S
N233 C235 1.356 . S
N233 H238 0.984 . S
N233 H239 0.985 . S
C234 C228 1.379 . S
C234 C231 1.363 . S
C234 N232 1.356 . S
C235 C229 1.363 . S
C235 C230 1.379 . S
C235 N233 1.356 . S
N236 C228 1.356 . S
N236 H242 0.984 . S
N236 H243 0.984 . S
N237 C230 1.356 . S
N237 H240 0.984 . S
N237 H241 0.985 . S
H238 N233 0.984 . S
H239 N233 0.985 . S
H240 N237 0.984 . S
H241 N237 0.985 . S
H242 N236 0.984 . S
H243 N236 0.984 . S
H244 N232 0.984 . S
H245 N232 0.985 . S
C246 C247 1.363 . S
C246 C252 1.379 . S
C246 N254 1.356 . S
C247 C246 1.363 . S
C247 C253 1.363 . S
C248 C249 1.363 . S
C248 C253 1.379 . S
C248 N255 1.356 . S
C249 C248 1.363 . S
C249 C252 1.363 . S
N250 C252 1.356 . S
N250 H262 0.984 . S
N250 H263 0.985 . S
N251 C253 1.356 . S
N251 H256 0.984 . S
N251 H257 0.985 . S
C252 C246 1.379 . S
C252 C249 1.363 . S
C252 N250 1.356 . S
C253 C247 1.363 . S
C253 C248 1.379 . S
C253 N251 1.356 . S
N254 C246 1.356 . S
N254 H260 0.984 . S
N254 H261 0.984 . S
N255 C248 1.356 . S
N255 H258 0.984 . S
N255 H259 0.985 . S
H256 N251 0.984 . S
H257 N251 0.985 . S
H258 N255 0.984 . S
H259 N255 0.985 . S
H260 N254 0.984 . S
H261 N254 0.984 . S
H262 N250 0.984 . S
H263 N250 0.985 . S
C264 C265 1.363 . S
C264 C270 1.379 . S
C264 N272 1.356 1_556 S
C265 C264 1.363 . S
C265 C271 1.363 . S
C266 C267 1.363 . S
C266 C271 1.379 . S
C266 N273 1.356 . S
C267 C266 1.363 . S
C267 C270 1.363 . S
N268 C270 1.356 . S
N268 H280 0.984 1_556 S
N268 H281 0.985 . S
N269 C271 1.356 . S
N269 H274 0.984 . S
N269 H275 0.985 . S
C270 C264 1.379 . S
C270 C267 1.363 . S
C270 N268 1.356 . S
C271 C265 1.363 . S
C271 C266 1.379 . S
C271 N269 1.356 . S
N272 C264 1.356 1_554 S
N272 H278 0.984 . S
N272 H279 0.984 . S
N273 C266 1.356 . S
N273 H276 0.984 . S
N273 H277 0.985 . S
H274 N269 0.984 . S
H275 N269 0.985 . S
H276 N273 0.984 . S
H277 N273 0.985 . S
H278 N272 0.984 . S
H279 N272 0.984 . S
H280 N268 0.984 1_554 S
H281 N268 0.985 . S
C282 C283 1.363 . S
C282 C288 1.379 . S
C282 N290 1.356 . S
C283 C282 1.363 . S
C283 C289 1.363 . S
C284 C285 1.363 . S
C284 C289 1.379 . S
C284 N291 1.356 . S
C285 C284 1.363 . S
C285 C288 1.363 . S
N286 C288 1.356 . S
N286 H298 0.984 . S
N286 H299 0.985 . S
N287 C289 1.356 . S
N287 H292 0.984 . S
N287 H293 0.985 . S
C288 C282 1.379 . S
C288 C285 1.363 . S
C288 N286 1.356 . S
C289 C283 1.363 . S
C289 C284 1.379 . S
C289 N287 1.356 . S
N290 C282 1.356 . S
N290 H296 0.984 . S
N290 H297 0.984 . S
N291 C284 1.356 . S
N291 H294 0.984 . S
N291 H295 0.985 . S
H292 N287 0.984 . S
H293 N287 0.985 . S
H294 N291 0.984 . S
H295 N291 0.985 . S
H296 N290 0.984 . S
H297 N290 0.984 . S
H298 N286 0.984 . S
H299 N286 0.985 . S
C300 C301 1.363 . S
C300 C306 1.379 . S
C300 N308 1.356 . S
C301 C300 1.363 . S
C301 C307 1.363 . S
C302 C303 1.363 . S
C302 C307 1.379 . S
C302 N309 1.356 . S
C303 C302 1.363 . S
C303 C306 1.363 . S
N304 C306 1.356 . S
N304 H316 0.984 . S
N304 H317 0.985 . S
N305 C307 1.356 . S
N305 H310 0.984 . S
N305 H311 0.985 . S
C306 C300 1.379 . S
C306 C303 1.363 . S
C306 N304 1.356 . S
C307 C301 1.363 . S
C307 C302 1.379 . S
C307 N305 1.356 . S
N308 C300 1.356 . S
N308 H314 0.984 . S
N308 H315 0.984 . S
N309 C302 1.356 . S
N309 H312 0.984 . S
N309 H313 0.985 . S
H310 N305 0.984 . S
H311 N305 0.985 . S
H312 N309 0.984 . S
H313 N309 0.985 . S
H314 N308 0.984 . S
H315 N308 0.984 . S
H316 N304 0.984 . S
H317 N304 0.985 . S
C318 C319 1.363 . S
C318 C324 1.379 . S
C318 N326 1.356 . S
C319 C318 1.363 . S
C319 C325 1.363 . S
C320 C321 1.363 . S
C320 C325 1.379 . S
C320 N327 1.356 . S
C321 C320 1.363 . S
C321 C324 1.363 . S
N322 C324 1.356 . S
N322 H334 0.984 . S
N322 H335 0.985 . S
N323 C325 1.356 . S
N323 H328 0.984 . S
N323 H329 0.985 . S
C324 C318 1.379 . S
C324 C321 1.363 . S
C324 N322 1.356 . S
C325 C319 1.363 . S
C325 C320 1.379 . S
C325 N323 1.356 . S
N326 C318 1.356 . S
N326 H332 0.984 . S
N326 H333 0.984 . S
N327 C320 1.356 . S
N327 H330 0.984 . S
N327 H331 0.985 . S
H328 N323 0.984 . S
H329 N323 0.985 . S
H330 N327 0.984 . S
H331 N327 0.985 . S
H332 N326 0.984 . S
H333 N326 0.984 . S
H334 N322 0.984 . S
H335 N322 0.985 . S
C336 C337 1.363 . S
C336 C342 1.379 . S
C336 N344 1.356 . S
C337 C336 1.363 . S
C337 C343 1.363 . S
C338 C339 1.363 . S
C338 C343 1.379 . S
C338 N345 1.356 . S
C339 C338 1.363 . S
C339 C342 1.363 . S
N340 C342 1.356 . S
N340 H352 0.984 . S
N340 H353 0.985 . S
N341 C343 1.356 . S
N341 H346 0.984 . S
N341 H347 0.985 . S
C342 C336 1.379 . S
C342 C339 1.363 . S
C342 N340 1.356 . S
C343 C337 1.363 . S
C343 C338 1.379 . S
C343 N341 1.356 . S
N344 C336 1.356 . S
N344 H350 0.984 . S
N344 H351 0.984 . S
N345 C338 1.356 . S
N345 H348 0.984 . S
N345 H349 0.985 . S
H346 N341 0.984 . S
H347 N341 0.985 . S
H348 N345 0.984 . S
H349 N345 0.985 . S
H350 N344 0.984 . S
H351 N344 0.984 . S
H352 N340 0.984 . S
H353 N340 0.985 . S
C354 C355 1.363 . S
C354 C360 1.379 . S
C354 N362 1.356 . S
C355 C354 1.363 . S
C355 C361 1.363 . S
C356 C357 1.363 . S
C356 C361 1.379 . S
C356 N363 1.356 . S
C357 C356 1.363 . S
C357 C360 1.363 . S
N358 C360 1.356 . S
N358 H370 0.984 . S
N358 H371 0.985 . S
N359 C361 1.356 1_556 S
N359 H364 0.984 . S
N359 H365 0.985 . S
C360 C354 1.379 . S
C360 C357 1.363 . S
C360 N358 1.356 . S
C361 C355 1.363 . S
C361 C356 1.379 . S
C361 N359 1.356 1_554 S
N362 C354 1.356 . S
N362 H368 0.984 . S
N362 H369 0.984 . S
N363 C356 1.356 . S
N363 H366 0.984 . S
N363 H367 0.985 1_554 S
H364 N359 0.984 . S
H365 N359 0.985 . S
H366 N363 0.984 . S
H367 N363 0.985 1_556 S
H368 N362 0.984 . S
H369 N362 0.984 . S
H370 N358 0.984 . S
H371 N358 0.985 . S
C372 C373 1.363 . S
C372 C378 1.379 . S
C372 N380 1.356 . S
C373 C372 1.363 . S
C373 C379 1.363 . S
C374 C375 1.363 . S
C374 C379 1.379 . S
C374 N381 1.356 . S
C375 C374 1.363 . S
C375 C378 1.363 . S
N376 C378 1.356 . S
N376 H388 0.984 . S
N376 H389 0.985 . S
N377 C379 1.356 . S
N377 H382 0.984 . S
N377 H383 0.985 . S
C378 C372 1.379 . S
C378 C375 1.363 . S
C378 N376 1.356 . S
C379 C373 1.363 . S
C379 C374 1.379 . S
C379 N377 1.356 . S
N380 C372 1.356 . S
N380 H386 0.984 . S
N380 H387 0.984 . S
N381 C374 1.356 . S
N381 H384 0.984 . S
N381 H385 0.985 . S
H382 N377 0.984 . S
H383 N377 0.985 . S
H384 N381 0.984 . S
H385 N381 0.985 . S
H386 N380 0.984 . S
H387 N380 0.984 . S
H388 N376 0.984 . S
H389 N376 0.985 . S
C390 C391 1.363 . S
C390 C396 1.379 . S
C390 N398 1.356 . S
C391 C390 1.363 . S
C391 C397 1.363 . S
C392 C393 1.363 . S
C392 C397 1.379 . S
C392 N399 1.356 . S
C393 C392 1.363 . S
C393 C396 1.363 . S
N394 C396 1.356 . S
N394 H406 0.984 . S
N394 H407 0.985 . S
N395 C397 1.356 . S
N395 H400 0.984 . S
N395 H401 0.985 . S
C396 C390 1.379 . S
C396 C393 1.363 . S
C396 N394 1.356 . S
C397 C391 1.363 . S
C397 C392 1.379 . S
C397 N395 1.356 . S
N398 C390 1.356 . S
N398 H404 0.984 . S
N398 H405 0.984 . S
N399 C392 1.356 . S
N399 H402 0.984 . S
N399 H403 0.985 . S
H400 N395 0.984 . S
H401 N395 0.985 . S
H402 N399 0.984 . S
H403 N399 0.985 . S
H404 N398 0.984 . S
H405 N398 0.984 . S
H406 N394 0.984 . S
H407 N394 0.985 . S
C408 C409 1.363 . S
C408 C414 1.379 . S
C408 N416 1.356 . S
C409 C408 1.363 . S
C409 C415 1.363 . S
C410 C411 1.363 . S
C410 C415 1.379 . S
C410 N417 1.356 . S
C411 C410 1.363 . S
C411 C414 1.363 . S
N412 C414 1.356 . S
N412 H424 0.984 . S
N412 H425 0.985 . S
N413 C415 1.356 . S
N413 H418 0.984 . S
N413 H419 0.985 . S
C414 C408 1.379 . S
C414 C411 1.363 . S
C414 N412 1.356 . S
C415 C409 1.363 . S
C415 C410 1.379 . S
C415 N413 1.356 . S
N416 C408 1.356 . S
N416 H422 0.984 . S
N416 H423 0.984 . S
N417 C410 1.356 . S
N417 H420 0.984 . S
N417 H421 0.985 . S
H418 N413 0.984 . S
H419 N413 0.985 . S
H420 N417 0.984 . S
H421 N417 0.985 . S
H422 N416 0.984 . S
H423 N416 0.984 . S
H424 N412 0.984 . S
H425 N412 0.985 . S
C426 C427 1.363 . S
C426 C432 1.379 . S
C426 N434 1.356 . S
C427 C426 1.363 . S
C427 C433 1.363 . S
C428 C429 1.363 . S
C428 C433 1.379 . S
C428 N435 1.356 . S
C429 C428 1.363 . S
C429 C432 1.363 . S
N430 C432 1.356 . S
N430 H442 0.984 . S
N430 H443 0.985 . S
N431 C433 1.356 . S
N431 H436 0.984 . S
N431 H437 0.985 . S
C432 C426 1.379 . S
C432 C429 1.363 . S
C432 N430 1.356 . S
C433 C427 1.363 . S
C433 C428 1.379 . S
C433 N431 1.356 . S
N434 C426 1.356 . S
N434 H440 0.984 . S
N434 H441 0.984 . S
N435 C428 1.356 . S
N435 H438 0.984 . S
N435 H439 0.985 . S
H436 N431 0.984 . S
H437 N431 0.985 . S
H438 N435 0.984 . S
H439 N435 0.985 . S
H440 N434 0.984 . S
H441 N434 0.984 . S
H442 N430 0.984 . S
H443 N430 0.985 . S
C444 C445 1.363 . S
C444 C450 1.379 . S
C444 N452 1.356 . S
C445 C444 1.363 . S
C445 C451 1.363 . S
C446 C447 1.363 . S
C446 C451 1.379 . S
C446 N453 1.356 . S
C447 C446 1.363 . S
C447 C450 1.363 . S
N448 C450 1.356 . S
N448 H460 0.984 . S
N448 H461 0.985 . S
N449 C451 1.356 . S
N449 H454 0.984 . S
N449 H455 0.985 . S
C450 C444 1.379 . S
C450 C447 1.363 . S
C450 N448 1.356 . S
C451 C445 1.363 . S
C451 C446 1.379 . S
C451 N449 1.356 . S
N452 C444 1.356 . S
N452 H458 0.984 . S
N452 H459 0.984 . S
N453 C446 1.356 . S
N453 H456 0.984 . S
N453 H457 0.985 . S
H454 N449 0.984 . S
H455 N449 0.985 . S
H456 N453 0.984 . S
H457 N453 0.985 . S
H458 N452 0.984 . S
H459 N452 0.984 . S
H460 N448 0.984 . S
H461 N448 0.985 . S
C462 C463 1.363 . S
C462 C468 1.379 . S
C462 N470 1.356 . S
C463 C462 1.363 . S
C463 C469 1.363 . S
C464 C465 1.363 . S
C464 C469 1.379 . S
C464 N471 1.356 1_556 S
C465 C464 1.363 . S
C465 C468 1.363 . S
N466 C468 1.356 . S
N466 H478 0.984 . S
N466 H479 0.985 . S
N467 C469 1.356 . S
N467 H472 0.984 . S
N467 H473 0.985 . S
C468 C462 1.379 . S
C468 C465 1.363 . S
C468 N466 1.356 . S
C469 C463 1.363 . S
C469 C464 1.379 . S
C469 N467 1.356 . S
N470 C462 1.356 . S
N470 H476 0.984 . S
N470 H477 0.984 . S
N471 C464 1.356 1_554 S
N471 H474 0.984 . S
N471 H475 0.985 . S
H472 N467 0.984 . S
H473 N467 0.985 . S
H474 N471 0.984 . S
H475 N471 0.985 . S
H476 N470 0.984 . S
H477 N470 0.984 . S
H478 N466 0.984 . S
H479 N466 0.985 . S
C480 C481 1.363 . S
C480 C486 1.379 . S
C480 N488 1.356 . S
C481 C480 1.363 . S
C481 C487 1.363 . S
C482 C483 1.363 . S
C482 C487 1.379 . S
C482 N489 1.356 . S
C483 C482 1.363 . S
C483 C486 1.363 . S
N484 C486 1.356 . S
N484 H496 0.984 . S
N484 H497 0.985 . S
N485 C487 1.356 . S
N485 H490 0.984 . S
N485 H491 0.985 . S
C486 C480 1.379 . S
C486 C483 1.363 . S
C486 N484 1.356 . S
C487 C481 1.363 . S
C487 C482 1.379 . S
C487 N485 1.356 . S
N488 C480 1.356 . S
N488 H494 0.984 . S
N488 H495 0.984 . S
N489 C482 1.356 . S
N489 H492 0.984 . S
N489 H493 0.985 . S
H490 N485 0.984 . S
H491 N485 0.985 . S
H492 N489 0.984 . S
H493 N489 0.985 . S
H494 N488 0.984 . S
H495 N488 0.984 . S
H496 N484 0.984 . S
H497 N484 0.985 . S
C498 C499 1.363 . S
C498 C504 1.379 . S
C498 N506 1.356 . S
C499 C498 1.363 . S
C499 C505 1.363 . S
C500 C501 1.363 . S
C500 C505 1.379 . S
C500 N507 1.356 . S
C501 C500 1.363 . S
C501 C504 1.363 . S
N502 C504 1.356 . S
N502 H514 0.984 . S
N502 H515 0.985 . S
N503 C505 1.356 . S
N503 H508 0.984 . S
N503 H509 0.985 . S
C504 C498 1.379 . S
C504 C501 1.363 . S
C504 N502 1.356 . S
C505 C499 1.363 . S
C505 C500 1.379 . S
C505 N503 1.356 . S
N506 C498 1.356 . S
N506 H512 0.984 . S
N506 H513 0.984 . S
N507 C500 1.356 . S
N507 H510 0.984 . S
N507 H511 0.985 . S
H508 N503 0.984 . S
H509 N503 0.985 . S
H510 N507 0.984 . S
H511 N507 0.985 . S
H512 N506 0.984 . S
H513 N506 0.984 . S
H514 N502 0.984 . S
H515 N502 0.985 . S
C516 C517 1.363 . S
C516 C522 1.379 . S
C516 N524 1.356 . S
C517 C516 1.363 . S
C517 C523 1.363 . S
C518 C519 1.363 . S
C518 C523 1.379 . S
C518 N525 1.356 . S
C519 C518 1.363 . S
C519 C522 1.363 . S
N520 C522 1.356 . S
N520 H532 0.984 . S
N520 H533 0.985 . S
N521 C523 1.356 . S
N521 H526 0.984 . S
N521 H527 0.985 . S
C522 C516 1.379 . S
C522 C519 1.363 . S
C522 N520 1.356 . S
C523 C517 1.363 . S
C523 C518 1.379 . S
C523 N521 1.356 . S
N524 C516 1.356 . S
N524 H530 0.984 . S
N524 H531 0.984 . S
N525 C518 1.356 . S
N525 H528 0.984 . S
N525 H529 0.985 . S
H526 N521 0.984 . S
H527 N521 0.985 . S
H528 N525 0.984 . S
H529 N525 0.985 . S
H530 N524 0.984 . S
H531 N524 0.984 . S
H532 N520 0.984 . S
H533 N520 0.985 . S
C534 C535 1.363 . S
C534 C540 1.379 . S
C534 N542 1.356 . S
C535 C534 1.363 . S
C535 C541 1.363 . S
C536 C537 1.363 . S
C536 C541 1.379 . S
C536 N543 1.356 . S
C537 C536 1.363 . S
C537 C540 1.363 . S
N538 C540 1.356 . S
N538 H550 0.984 . S
N538 H551 0.985 . S
N539 C541 1.356 . S
N539 H544 0.984 . S
N539 H545 0.985 . S
C540 C534 1.379 . S
C540 C537 1.363 . S
C540 N538 1.356 . S
C541 C535 1.363 . S
C541 C536 1.379 . S
C541 N539 1.356 . S
N542 C534 1.356 . S
N542 H548 0.984 . S
N542 H549 0.984 . S
N543 C536 1.356 . S
N543 H546 0.984 . S
N543 H547 0.985 . S
H544 N539 0.984 . S
H545 N539 0.985 . S
H546 N543 0.984 . S
H547 N543 0.985 . S
H548 N542 0.984 . S
H549 N542 0.984 . S
H550 N538 0.984 . S
H551 N538 0.985 . S
C552 C553 1.363 . S
C552 C558 1.379 . S
C552 N560 1.356 . S
C553 C552 1.363 . S
C553 C559 1.363 . S
C554 C555 1.363 . S
C554 C559 1.379 . S
C554 N561 1.356 . S
C555 C554 1.363 . S
C555 C558 1.363 . S
N556 C558 1.356 . S
N556 H568 0.984 . S
N556 H569 0.985 . S
N557 C559 1.356 . S
N557 H562 0.984 . S
N557 H563 0.985 . S
C558 C552 1.379 . S
C558 C555 1.363 . S
C558 N556 1.356 . S
C559 C553 1.363 . S
C559 C554 1.379 . S
C559 N557 1.356 . S
N560 C552 1.356 . S
N560 H566 0.984 . S
N560 H567 0.984 . S
N561 C554 1.356 . S
N561 H564 0.984 . S
N561 H565 0.985 . S
H562 N557 0.984 . S
H563 N557 0.985 . S
H564 N561 0.984 . S
H565 N561 0.985 . S
H566 N560 0.984 . S
H567 N560 0.984 . S
H568 N556 0.984 . S
H569 N556 0.985 . S
C570 C571 1.363 . S
C570 C576 1.379 . S
C570 N578 1.356 . S
C571 C570 1.363 . S
C571 C577 1.363 . S
C572 C573 1.363 . S
C572 C577 1.379 . S
C572 N579 1.356 . S
C573 C572 1.363 . S
C573 C576 1.363 . S
N574 C576 1.356 . S
N574 H586 0.984 . S
N574 H587 0.985 . S
N575 C577 1.356 . S
N575 H580 0.984 . S
N575 H581 0.985 . S
C576 C570 1.379 . S
C576 C573 1.363 . S
C576 N574 1.356 . S
C577 C571 1.363 . S
C577 C572 1.379 . S
C577 N575 1.356 . S
N578 C570 1.356 . S
N578 H584 0.984 . S
N578 H585 0.984 . S
N579 C572 1.356 . S
N579 H582 0.984 . S
N579 H583 0.985 . S
H580 N575 0.984 . S
H581 N575 0.985 . S
H582 N579 0.984 . S
H583 N579 0.985 . S
H584 N578 0.984 . S
H585 N578 0.984 . S
H586 N574 0.984 . S
H587 N574 0.985 . S
C588 C589 1.363 . S
C588 C594 1.379 1_554 S
C588 N596 1.356 . S
C589 C588 1.363 . S
C589 C595 1.363 . S
C590 C591 1.363 1_554 S
C590 C595 1.379 . S
C590 N597 1.356 1_554 S
C591 C590 1.363 1_556 S
C591 C594 1.363 . S
N592 C594 1.356 . S
N592 H604 0.984 . S
N592 H605 0.985 . S
N593 C595 1.356 . S
N593 H598 0.984 . S
N593 H599 0.985 . S
C594 C588 1.379 1_556 S
C594 C591 1.363 . S
C594 N592 1.356 . S
C595 C589 1.363 . S
C595 C590 1.379 . S
C595 N593 1.356 . S
N596 C588 1.356 . S
N596 H602 0.984 . S
N596 H603 0.984 . S
N597 C590 1.356 1_556 S
N597 H600 0.984 . S
N597 H601 0.990 . S
H598 N593 0.984 . S
H599 N593 0.985 . S
H600 N597 0.984 . S
H601 N597 0.990 . S
H602 N596 0.984 . S
H603 N596 0.984 . S
H604 N592 0.984 . S
H605 N592 0.985 . S
C606 C607 1.363 . S
C606 C612 1.379 . S
C606 N614 1.356 . S
C607 C606 1.363 . S
C607 C613 1.363 . S
C608 C609 1.363 . S
C608 C613 1.379 . S
C608 N615 1.356 . S
C609 C608 1.363 . S
C609 C612 1.363 . S
N610 C612 1.356 . S
N610 H622 0.984 . S
N610 H623 0.985 . S
N611 C613 1.356 . S
N611 H616 0.984 . S
N611 H617 0.985 . S
C612 C606 1.379 . S
C612 C609 1.363 . S
C612 N610 1.356 . S
C613 C607 1.363 . S
C613 C608 1.379 . S
C613 N611 1.356 . S
N614 C606 1.356 . S
N614 H620 0.984 . S
N614 H621 0.984 . S
N615 C608 1.356 . S
N615 H618 0.984 . S
N615 H619 0.985 . S
H616 N611 0.984 . S
H617 N611 0.985 . S
H618 N615 0.984 . S
H619 N615 0.985 . S
H620 N614 0.984 . S
H621 N614 0.984 . S
H622 N610 0.984 . S
H623 N610 0.985 . S
C195 C183 1.302 . S
C193 C8 1.489 . S
C211 C26 1.512 . S
C213 C113 1.325 . S
C229 C50 1.494 . S
C231 C133 1.538 . S
C247 C68 1.452 . S
C249 C147 1.487 . S
C267 C155 1.269 . S
C265 C80 1.462 . S
C283 C104 1.468 . S
C285 C169 1.283 . S
C301 C32 1.498 . S
C303 C127 1.315 . S
C319 C44 1.466 . S
C321 C141 1.277 . S
C337 C62 1.438 . S
C339 C161 1.471 . S
C357 C175 1.505 . S
C355 C86 1.473 . S
C375 C189 1.509 . S
C373 C98 1.483 . S
C393 C119 1.527 . S
C391 C14 1.492 . S
C409 C7 1.443 . S
C411 C126 1.472 . S
C427 C25 1.447 . S
C429 C140 1.470 . S
C447 C162 1.487 . S
C445 C52 1.436 . S
C463 C70 1.441 . S
C465 C176 1.497 1_556 S
C483 C190 1.466 . S
C481 C79 1.404 . S
C501 C120 1.461 . S
C499 C106 1.403 . S
C519 C182 1.458 . S
C517 C34 1.439 . S
C535 C43 1.439 . S
C537 C112 1.466 . S
C555 C134 1.490 . S
C553 C61 1.430 . S
C571 C88 1.435 . S
C573 C148 1.486 . S
C589 C97 1.477 . S
C591 C154 1.497 . S
C607 C16 1.474 . S
C609 C168 1.492 . S
