# Generated by pormake.
# Topology zzz, (3,6)-cn, num edge types: 1
# Building blocks:
#     Node 0, Type 0, BuildingBlock: ESEHIV_clean_linker_0, # of connection points: 3
#     Node 1, Type 0, BuildingBlock: ESEHIV_clean_linker_0, # of connection points: 3
#     Node 2, Type 0, BuildingBlock: ESEHIV_clean_linker_0, # of connection points: 3
#     Node 3, Type 0, BuildingBlock: ESEHIV_clean_linker_0, # of connection points: 3
#     Node 4, Type 0, BuildingBlock: ESEHIV_clean_linker_0, # of connection points: 3
#     Node 5, Type 0, BuildingBlock: ESEHIV_clean_linker_0, # of connection points: 3
#     Node 6, Type 0, BuildingBlock: ESEHIV_clean_linker_0, # of connection points: 3
#     Node 7, Type 0, BuildingBlock: ESEHIV_clean_linker_0, # of connection points: 3
#     Node 8, Type 1, BuildingBlock: VOLQOD_clean_sbu_1, # of connection points: 6
#     Node 9, Type 1, BuildingBlock: VOLQOD_clean_sbu_1, # of connection points: 6
#     Node 10, Type 1, BuildingBlock: VOLQOD_clean_sbu_1, # of connection points: 6
#     Node 11, Type 1, BuildingBlock: VOLQOD_clean_sbu_1, # of connection points: 6
#     Edge 12, Type (0, 1), BuildingBlock: EZIPEK_clean_linker_0, # of connection points: 2
#     Edge 13, Type (0, 1), BuildingBlock: EZIPEK_clean_linker_0, # of connection points: 2
#     Edge 14, Type (0, 1), BuildingBlock: EZIPEK_clean_linker_0, # of connection points: 2
#     Edge 15, Type (0, 1), BuildingBlock: EZIPEK_clean_linker_0, # of connection points: 2
#     Edge 16, Type (0, 1), BuildingBlock: EZIPEK_clean_linker_0, # of connection points: 2
#     Edge 17, Type (0, 1), BuildingBlock: EZIPEK_clean_linker_0, # of connection points: 2
#     Edge 18, Type (0, 1), BuildingBlock: EZIPEK_clean_linker_0, # of connection points: 2
#     Edge 19, Type (0, 1), BuildingBlock: EZIPEK_clean_linker_0, # of connection points: 2
#     Edge 20, Type (0, 1), BuildingBlock: EZIPEK_clean_linker_0, # of connection points: 2
#     Edge 21, Type (0, 1), BuildingBlock: EZIPEK_clean_linker_0, # of connection points: 2
#     Edge 22, Type (0, 1), BuildingBlock: EZIPEK_clean_linker_0, # of connection points: 2
#     Edge 23, Type (0, 1), BuildingBlock: EZIPEK_clean_linker_0, # of connection points: 2
#     Edge 24, Type (0, 1), BuildingBlock: EZIPEK_clean_linker_0, # of connection points: 2
#     Edge 25, Type (0, 1), BuildingBlock: EZIPEK_clean_linker_0, # of connection points: 2
#     Edge 26, Type (0, 1), BuildingBlock: EZIPEK_clean_linker_0, # of connection points: 2
#     Edge 27, Type (0, 1), BuildingBlock: EZIPEK_clean_linker_0, # of connection points: 2
#     Edge 28, Type (0, 1), BuildingBlock: EZIPEK_clean_linker_0, # of connection points: 2
#     Edge 29, Type (0, 1), BuildingBlock: EZIPEK_clean_linker_0, # of connection points: 2
#     Edge 30, Type (0, 1), BuildingBlock: EZIPEK_clean_linker_0, # of connection points: 2
#     Edge 31, Type (0, 1), BuildingBlock: EZIPEK_clean_linker_0, # of connection points: 2
#     Edge 32, Type (0, 1), BuildingBlock: EZIPEK_clean_linker_0, # of connection points: 2
#     Edge 33, Type (0, 1), BuildingBlock: EZIPEK_clean_linker_0, # of connection points: 2
#     Edge 34, Type (0, 1), BuildingBlock: EZIPEK_clean_linker_0, # of connection points: 2
#     Edge 35, Type (0, 1), BuildingBlock: EZIPEK_clean_linker_0, # of connection points: 2
# Relax obj value: 0.358
# Max RMSD: 0.258
# Mean RMSD: 0.208
data_MOF--net-zzz--node1-VOLQOD_clean_sbu_1--node2-ESEHIV_clean_linker_0--edge1-EZIPEK_clean_linker_0
_symmetry_space_group_name_H-M    P1
_symmetry_Int_Tables_number       1
_symmetry_cell_setting            triclinic
loop_
_symmetry_equiv_pos_as_xyz
'x, y, z'
_cell_length_a     32.569343
_cell_length_b     32.001941
_cell_length_c     12.868217
_cell_angle_alpha  90.155388
_cell_angle_beta   90.275699
_cell_angle_gamma 92.324897
loop_
_atom_site_label
_atom_site_type_symbol
_atom_site_fract_x
_atom_site_fract_y
_atom_site_fract_z
_atom_type_partial_charge
H0 H 0.87395 0.48756 0.1987 0.0
H1 H 0.78261 0.47964 0.95869 0.0
H2 H 0.74944 0.51834 0.26826 0.0
C3 C 0.84225 0.49075 0.17439 0.0
C4 C 0.81313 0.50345 0.24623 0.0
C5 C 0.83127 0.48133 0.07232 0.0
C6 C 0.79079 0.48589 0.0392 0.0
C7 C 0.76128 0.50018 0.1087 0.0
C8 C 0.77224 0.50833 0.21353 0.0
H9 H 0.05891 0.84503 0.26562 0.0
H10 H 0.06586 0.78392 0.96927 0.0
H11 H 0.00494 0.72109 0.22452 0.0
C12 C 0.05327 0.81753 0.21723 0.0
C13 C 0.02894 0.784 0.25546 0.0
C14 C 0.06408 0.81922 0.11241 0.0
C15 C 0.057 0.78343 0.05039 0.0
C16 C 0.03798 0.74702 0.09202 0.0
C17 C 0.02254 0.74777 0.19423 0.0
H18 H 0.68508 0.03347 0.25297 0.0
H19 H 0.74896 0.03665 0.96187 0.0
H20 H 0.80271 0.97815 0.22799 0.0
C21 C 0.71241 0.02764 0.20802 0.0
C22 C 0.74283 0.00335 0.25125 0.0
C23 C 0.71266 0.03695 0.10205 0.0
C24 C 0.74805 0.02924 0.044 0.0
C25 C 0.78182 0.01052 0.09094 0.0
C26 C 0.77858 0.99618 0.19422 0.0
H27 H 0.48105 0.66814 0.32492 0.0
H28 H 0.54352 0.78705 0.26962 0.0
H29 H 0.48021 0.72163 0.01959 0.0
C30 C 0.48852 0.69415 0.27341 0.0
C31 C 0.47835 0.69044 0.16821 0.0
C32 C 0.5146 0.72709 0.30865 0.0
C33 C 0.52401 0.76102 0.24238 0.0
C34 C 0.50981 0.75983 0.13868 0.0
C35 C 0.48832 0.72389 0.1013 0.0
H36 H 0.19888 0.55144 0.07476 0.0
H37 H 0.24968 0.55314 0.38291 0.0
H38 H 0.30932 0.48643 0.13889 0.0
C39 C 0.22316 0.54335 0.12829 0.0
C40 C 0.25298 0.51591 0.09605 0.0
C41 C 0.2199 0.55434 0.23275 0.0
C42 C 0.2514 0.54408 0.30183 0.0
C43 C 0.28514 0.52193 0.26724 0.0
C44 C 0.28524 0.50641 0.16436 0.0
H45 H 0.01025 0.16966 0.07617 0.0
H46 H 0.00226 0.25632 0.32822 0.0
H47 H 0.07099 0.29139 0.05422 0.0
C48 C 0.0157 0.20112 0.10649 0.0
C49 C 0.04096 0.22965 0.0516 0.0
C50 C 0.00262 0.21024 0.2065 0.0
C51 C 0.01128 0.24988 0.2489 0.0
C52 C 0.0352 0.27974 0.19391 0.0
C53 C 0.05054 0.26951 0.09474 0.0
H54 H 0.35588 0.96825 0.1061 0.0
H55 H 0.26672 0.95893 0.34864 0.0
H56 H 0.23212 0.00498 0.04631 0.0
C57 C 0.3245 0.97181 0.13195 0.0
C58 C 0.2953 0.98697 0.0632 0.0
C59 C 0.31421 0.96103 0.23322 0.0
C60 C 0.27422 0.96609 0.26844 0.0
C61 C 0.24461 0.9828 0.20245 0.0
C62 C 0.25494 0.99283 0.09841 0.0
H63 H 0.5101 0.3405 0.13814 0.0
H64 H 0.48811 0.20805 0.09016 0.0
H65 H 0.52779 0.25613 0.39002 0.0
C66 C 0.50884 0.30872 0.16776 0.0
C67 C 0.52053 0.30174 0.26983 0.0
C68 C 0.49758 0.27542 0.10169 0.0
C69 C 0.49621 0.23419 0.14088 0.0
C70 C 0.50663 0.22725 0.24632 0.0
C71 C 0.51922 0.26121 0.30961 0.0
O72 O 0.11236 0.01074 0.5602 0.0
Zn73 Zn 0.07547 0.01802 0.68689 0.0
O74 O 0.0172 0.00226 0.65321 0.0
Zn75 Zn 0.98293 0.04831 0.689 0.0
Zn76 Zn 0.01207 0.98896 0.50568 0.0
Zn77 Zn 0.99594 0.95416 0.73048 0.0
O78 O 0.93462 0.03208 0.77936 0.0
O79 O 0.9437 0.96491 0.81136 0.0
O80 O 0.08122 0.07877 0.73822 0.0
O81 O 0.01591 0.09323 0.76411 0.0
O82 O 0.96547 0.07604 0.5593 0.0
O83 O 0.97966 0.03204 0.43146 0.0
O84 O 0.99355 0.92867 0.48093 0.0
O85 O 0.09534 0.98124 0.80497 0.0
O86 O 0.98844 0.9026 0.64048 0.0
O87 O 0.03872 0.94127 0.83256 0.0
C88 C 0.10398 1.00095 0.46595 0.0
C89 C 0.92353 0.99789 0.82326 0.0
C90 C 0.96679 0.06691 0.46322 0.0
C91 C 0.05406 0.10293 0.77237 0.0
C92 C 0.98858 0.89769 0.54233 0.0
C93 C 0.07569 0.95238 0.85444 0.0
O94 O 0.06721 0.99297 0.43621 0.0
O95 O 0.50047 0.07822 0.59143 0.0
Zn96 Zn 0.5034 0.03447 0.70826 0.0
O97 O 0.523 0.98117 0.65091 0.0
Zn98 Zn 0.48046 0.93751 0.66781 0.0
Zn99 Zn 0.53539 0.98655 0.50426 0.0
Zn100 Zn 0.5718 0.96252 0.72108 0.0
O101 O 0.49574 0.89481 0.77468 0.0
O102 O 0.56086 0.91182 0.81279 0.0
O103 O 0.44678 0.02458 0.77858 0.0
O104 O 0.42886 0.96141 0.71992 0.0
O105 O 0.4638 0.91019 0.53451 0.0
O106 O 0.49111 0.95583 0.42281 0.0
O107 O 0.59392 0.97197 0.47126 0.0
O108 O 0.54411 0.05752 0.81765 0.0
O109 O 0.61964 0.9549 0.62523 0.0
O110 O 0.59006 0.0078 0.81529 0.0
C111 C 0.51334 0.07792 0.49761 0.0
C112 C 0.52847 0.88884 0.82603 0.0
C113 C 0.46383 0.92786 0.44633 0.0
C114 C 0.42033 0.99407 0.77014 0.0
C115 C 0.62385 0.96123 0.52825 0.0
C116 C 0.57789 0.04265 0.84778 0.0
O117 O 0.52892 0.04569 0.45839 0.0
O118 O 0.41903 0.48768 0.64776 0.0
Zn119 Zn 0.4635 0.48602 0.76289 0.0
O120 O 0.51701 0.5091 0.7097 0.0
Zn121 Zn 0.55794 0.46663 0.7161 0.0
Zn122 Zn 0.51155 0.52581 0.56641 0.0
Zn123 Zn 0.53796 0.55753 0.78715 0.0
O124 O 0.60454 0.48237 0.81459 0.0
O125 O 0.58945 0.5458 0.86948 0.0
O126 O 0.47011 0.42643 0.82113 0.0
O127 O 0.53272 0.41297 0.76846 0.0
O128 O 0.57899 0.45122 0.57702 0.0
O129 O 0.53431 0.48214 0.47554 0.0
O130 O 0.53298 0.58469 0.53924 0.0
O131 O 0.44436 0.52252 0.882 0.0
O132 O 0.54726 0.60911 0.69782 0.0
O133 O 0.49557 0.57092 0.88881 0.0
C134 C 0.41995 0.50602 0.55945 0.0
C135 C 0.61233 0.51444 0.87125 0.0
C136 C 0.56004 0.454 0.49106 0.0
C137 C 0.49964 0.4014 0.81354 0.0
C138 C 0.54387 0.61459 0.60024 0.0
C139 C 0.46109 0.5559 0.92002 0.0
O140 O 0.45275 0.52368 0.52497 0.0
O141 O 0.96167 0.54593 0.54321 0.0
Zn142 Zn 0.01831 0.55775 0.61202 0.0
O143 O 0.0415 0.50541 0.66464 0.0
Zn144 Zn 0.05344 0.51024 0.8115 0.0
Zn145 Zn 1.0016 0.45929 0.64466 0.0
Zn146 Zn 0.09176 0.49148 0.59481 0.0
O147 O 0.11076 0.49279 0.84847 0.0
O148 O 0.13914 0.48263 0.694 0.0
O149 O 0.01631 0.60131 0.72945 0.0
O150 O 0.04933 0.56968 0.85712 0.0
O151 O 0.00767 0.48096 0.88842 0.0
O152 O 0.98404 0.43247 0.77777 0.0
O153 O 0.02034 0.41781 0.53763 0.0
O154 O 0.05582 0.58305 0.50161 0.0
O155 O 0.08324 0.44179 0.49704 0.0
O156 O 0.10766 0.53968 0.50627 0.0
C157 C 0.93796 0.5131 0.54443 0.0
C158 C 0.14176 0.48477 0.79268 0.0
C159 C 0.98176 0.45171 0.86394 0.0
C160 C 0.03221 0.60155 0.82055 0.0
C161 C 0.05301 0.41572 0.48406 0.0
C162 C 0.09141 0.57265 0.47342 0.0
O163 O 0.94933 0.48005 0.58826 0.0
C164 C 0.19941 0.02911 0.30517 0.0
C165 C 0.20395 0.9915 0.24844 0.0
C166 C 0.14246 0.96034 0.33173 0.0
C167 C 0.13763 0.99816 0.38835 0.0
N168 N 0.15532 0.07165 0.40934 0.0
N169 N 0.17524 0.92552 0.1878 0.0
C170 C 0.16428 0.03352 0.36914 0.0
C171 C 0.1737 0.9586 0.25485 0.0
N172 N 0.22957 0.06003 0.30086 0.0
N173 N 0.11901 0.9253 0.35593 0.0
H174 H 0.19793 0.9236 0.13118 0.0
H175 H 0.15218 0.90216 0.18173 0.0
H176 H 0.09692 0.92455 0.41431 0.0
H177 H 0.12381 0.89585 0.32483 0.0
H178 H 0.23096 0.08576 0.35063 0.0
H179 H 0.25454 0.05886 0.25057 0.0
H180 H 0.17098 0.09943 0.38913 0.0
H181 H 0.12982 0.07616 0.45602 0.0
C182 C 0.47024 0.17015 0.34848 0.0
C183 C 0.50576 0.18492 0.29427 0.0
C184 C 0.54651 0.13206 0.37999 0.0
C185 C 0.51057 0.1157 0.43049 0.0
N186 N 0.43664 0.11389 0.44584 0.0
N187 N 0.57534 0.175 0.24092 0.0
C188 C 0.47193 0.13327 0.41001 0.0
C189 C 0.54309 0.16405 0.30415 0.0
N190 N 0.4352 0.19218 0.3437 0.0
N191 N 0.58428 0.11878 0.40889 0.0
H192 H 0.57376 0.19857 0.18531 0.0
H193 H 0.60203 0.15823 0.2366 0.0
H194 H 0.58842 0.09685 0.46742 0.0
H195 H 0.61184 0.13244 0.38249 0.0
H196 H 0.40997 0.18628 0.39166 0.0
H197 H 0.43222 0.21807 0.2955 0.0
H198 H 0.40736 0.12245 0.42374 0.0
H199 H 0.43647 0.08696 0.491 0.0
C200 C 0.32686 0.47673 0.38644 0.0
C201 C 0.3201 0.51623 0.34062 0.0
C202 C 0.37184 0.54892 0.4572 0.0
C203 C 0.38236 0.5089 0.49381 0.0
N204 N 0.37405 0.43373 0.48054 0.0
N205 N 0.34191 0.58861 0.31835 0.0
C206 C 0.36088 0.47244 0.45543 0.0
C207 C 0.34431 0.55195 0.37201 0.0
N208 N 0.30015 0.44364 0.36658 0.0
N209 N 0.38725 0.5842 0.50614 0.0
H210 H 0.3226 0.59195 0.25421 0.0
H211 H 0.36198 0.61433 0.33085 0.0
H212 H 0.40628 0.58324 0.57151 0.0
H213 H 0.37764 0.61408 0.48908 0.0
H214 H 0.30098 0.41533 0.40617 0.0
H215 H 0.27499 0.44564 0.31669 0.0
H216 H 0.36251 0.40629 0.44547 0.0
H217 H 0.3988 0.42916 0.53026 0.0
C218 C 0.01955 0.35321 0.24464 0.0
C219 C 0.04666 0.31971 0.24847 0.0
C220 C 0.08147 0.35138 0.40116 0.0
C221 C 0.05392 0.38461 0.39801 0.0
N222 N 0.00482 0.42342 0.30075 0.0
N223 N 0.10905 0.29133 0.31331 0.0
C224 C 0.02546 0.38747 0.31455 0.0
C225 C 0.07969 0.32049 0.32097 0.0
N226 N 0.987 0.35133 0.17723 0.0
N227 N 0.10769 0.34804 0.48375 0.0
H228 H 0.10826 0.26833 0.25569 0.0
H229 H 0.13592 0.29212 0.35749 0.0
H230 H 0.10995 0.37012 0.54347 0.0
H231 H 0.12525 0.32211 0.49704 0.0
H232 H 0.9629 0.3717 0.18061 0.0
H233 H 0.98299 0.32779 0.12139 0.0
H234 H 0.9866 0.42902 0.23593 0.0
H235 H 0.00897 0.44941 0.34941 0.0
C236 C 0.85501 0.03062 0.04531 0.0
C237 C 0.8196 0.0041 0.0289 0.0
C238 C 0.85225 0.97275 0.87716 0.0
C239 C 0.8884 0.99789 0.89675 0.0
N240 N 0.92773 0.04321 0.0137 0.0
N241 N 0.7872 0.94433 0.94311 0.0
C242 C 0.89081 0.02462 0.98512 0.0
C243 C 0.81909 0.97336 0.94902 0.0
N244 N 0.85398 0.0627 0.11552 0.0
N245 N 0.84881 0.94981 0.78754 0.0
H246 H 0.76252 0.9439 0.99458 0.0
H247 H 0.7869 0.91859 0.89343 0.0
H248 H 0.87236 0.94859 0.73313 0.0
H249 H 0.82157 0.93462 0.76305 0.0
H250 H 0.87696 0.0862 0.12126 0.0
H251 H 0.82866 0.06784 0.1625 0.0
H252 H 0.93232 0.05948 0.08329 0.0
H253 H 0.95486 0.03894 0.97294 0.0
C254 C 0.55035 0.79329 0.99266 0.0
C255 C 0.51819 0.79537 0.06638 0.0
C256 C 0.4986 0.86241 0.99349 0.0
C257 C 0.52699 0.85758 0.9113 0.0
N258 N 0.57752 0.81658 0.82621 0.0
N259 N 0.45796 0.82874 0.12859 0.0
C260 C 0.55259 0.8227 0.90957 0.0
C261 C 0.4914 0.82917 0.06483 0.0
N262 N 0.57884 0.76334 0.00273 0.0
N263 N 0.47954 0.89941 0.0057 0.0
H264 H 0.45199 0.80538 0.18348 0.0
H265 H 0.43448 0.8497 0.12121 0.0
H266 H 0.4848 0.925 0.9568 0.0
H267 H 0.46173 0.90621 0.07014 0.0
H268 H 0.60533 0.76257 0.95795 0.0
H269 H 0.57771 0.74116 0.06204 0.0
H270 H 0.59349 0.78945 0.81465 0.0
H271 H 0.57986 0.83736 0.76402 0.0
C272 C 0.68815 0.47608 0.07189 0.0
C273 C 0.71963 0.50789 0.06697 0.0
C274 C 0.68003 0.54559 0.93723 0.0
C275 C 0.648 0.51425 0.94389 0.0
N276 N 0.61676 0.45614 0.03791 0.0
N277 N 0.74183 0.57733 0.01506 0.0
C278 C 0.6506 0.48141 0.01755 0.0
C279 C 0.71415 0.54423 0.00649 0.0
N280 N 0.69477 0.44001 0.12487 0.0
N281 N 0.67926 0.57507 0.86061 0.0
H282 H 0.76723 0.57707 0.06481 0.0
H283 H 0.73759 0.60628 0.98074 0.0
H284 H 0.65538 0.57671 0.80675 0.0
H285 H 0.7039 0.59576 0.84461 0.0
H286 H 0.67529 0.41345 0.11941 0.0
H287 H 0.72121 0.43571 0.16904 0.0
H288 H 0.61571 0.43403 0.09718 0.0
H289 H 0.58833 0.46012 0.00237 0.0
C290 C 0.99736 0.69554 0.97792 0.0
C291 C 0.03499 0.70849 0.0266 0.0
C292 C 0.07091 0.65592 0.92682 0.0
C293 C 0.03276 0.64003 0.88603 0.0
N294 N 0.95863 0.64013 0.88745 0.0
N295 N 0.10605 0.69569 0.06327 0.0
C296 C 0.99561 0.65864 0.91532 0.0
C297 C 0.0713 0.68701 0.00582 0.0
N298 N 0.96361 0.71913 0.98887 0.0
N299 N 0.10698 0.64265 0.88679 0.0
H300 H 0.10751 0.71814 0.12227 0.0
H301 H 0.13209 0.67789 0.05935 0.0
H302 H 0.10815 0.62121 0.82577 0.0
H303 H 0.13564 0.65614 0.90633 0.0
H304 H 0.93663 0.71385 0.94622 0.0
H305 H 0.96368 0.74608 0.03461 0.0
H306 H 0.93064 0.64963 0.91614 0.0
H307 H 0.95599 0.61297 0.84265 0.0
C308 C 0.02436 0.15546 0.32895 0.0
C309 C 0.99206 0.1747 0.27557 0.0
C310 C 0.94214 0.12103 0.33803 0.0
C311 C 0.97438 0.10286 0.39427 0.0
N312 N 0.04466 0.10602 0.45822 0.0
N313 N 0.92286 0.17757 0.2206 0.0
C314 C 0.01505 0.12091 0.39359 0.0
C315 C 0.95135 0.15783 0.27832 0.0
N316 N 0.06436 0.16887 0.31362 0.0
N317 N 0.90331 0.10333 0.34385 0.0
H318 H 0.89199 0.1681 0.21368 0.0
H319 H 0.89199 0.1681 0.21368 0.0
H320 H 0.89671 0.07605 0.3859 0.0
H321 H 0.87747 0.11526 0.30901 0.0
H322 H 0.08949 0.15222 0.33778 0.0
H323 H 0.07296 0.19504 0.26966 0.0
H324 H 0.0723 0.12232 0.47408 0.0
H325 H 0.0408 0.0791 0.50316 0.0
C326 C 0.36667 0.98033 0.36811 0.0
C327 C 0.34764 0.94925 0.30387 0.0
C328 C 0.40248 0.90099 0.34233 0.0
C329 C 0.423 0.93338 0.39976 0.0
N330 N 0.41817 0.99787 0.49755 0.0
N331 N 0.34508 0.88213 0.22524 0.0
C332 C 0.40315 0.97126 0.42173 0.0
C333 C 0.36472 0.90962 0.29157 0.0
N334 N 0.35168 0.01966 0.37184 0.0
N335 N 0.4186 0.86226 0.33928 0.0
H336 H 0.35588 0.85318 0.20364 0.0
H337 H 0.35588 0.85318 0.20364 0.0
H338 H 0.44689 0.856 0.37303 0.0
H339 H 0.40304 0.83571 0.31016 0.0
H340 H 0.36765 0.04521 0.4052 0.0
H341 H 0.32454 0.02777 0.33525 0.0
H342 H 0.40128 0.02185 0.52847 0.0
H343 H 0.44554 0.99377 0.53771 0.0
C344 C 0.50353 0.3551 0.40149 0.0
C345 C 0.53291 0.33811 0.33474 0.0
C346 C 0.58052 0.3983 0.36609 0.0
C347 C 0.55164 0.41432 0.43583 0.0
N348 N 0.49006 0.40357 0.53955 0.0
N349 N 0.60102 0.33918 0.262 0.0
C350 C 0.51445 0.39141 0.45939 0.0
C351 C 0.57208 0.35841 0.31976 0.0
N352 N 0.46449 0.33767 0.40604 0.0
N353 N 0.61533 0.42166 0.34299 0.0
H354 H 0.59557 0.30993 0.22745 0.0
H355 H 0.63121 0.35053 0.25393 0.0
H356 H 0.62214 0.4508 0.37689 0.0
H357 H 0.63636 0.41353 0.2867 0.0
H358 H 0.44028 0.35208 0.4424 0.0
H359 H 0.45527 0.31031 0.36675 0.0
H360 H 0.4657 0.38504 0.56839 0.0
H361 H 0.49601 0.4304 0.58405 0.0
C362 C 0.14223 0.5528 0.24857 0.0
C363 C 0.18143 0.5724 0.27189 0.0
C364 C 0.1494 0.61503 0.40431 0.0
C365 C 0.11193 0.59282 0.38464 0.0
N366 N 0.06841 0.55914 0.25741 0.0
N367 N 0.2182 0.63315 0.34323 0.0
C368 C 0.10697 0.56976 0.29249 0.0
C369 C 0.18363 0.60763 0.33972 0.0
N370 N 0.13857 0.51536 0.19727 0.0
N371 N 0.15273 0.64034 0.48951 0.0
H372 H 0.24313 0.62882 0.29421 0.0
H373 H 0.22035 0.66057 0.3871 0.0
H374 H 0.12716 0.64608 0.53542 0.0
H375 H 0.1805 0.65395 0.5157 0.0
H376 H 0.11043 0.49921 0.18639 0.0
H377 H 0.16343 0.49752 0.17793 0.0
H378 H 0.06296 0.54341 0.18726 0.0
H379 H 0.04247 0.57004 0.29466 0.0
C380 C 0.0559 0.89675 0.0828 0.0
C381 C 0.07818 0.85986 0.06526 0.0
C382 C 0.11741 0.89646 0.92878 0.0
C383 C 0.0935 0.93168 0.94502 0.0
N384 N 0.05667 0.97217 0.06677 0.0
N385 N 0.1404 0.83106 -0.00095 0.0
C386 C 0.06992 0.93431 0.03553 0.0
C387 C 0.11264 0.86186 0.99752 0.0
N388 N 0.01878 0.89538 0.13207 0.0
N389 N 0.14233 0.89512 0.84417 0.0
H390 H 0.13826 0.80625 0.05148 0.0
H391 H 0.16745 0.83254 0.95605 0.0
H392 H 0.14689 0.92094 0.79554 0.0
H393 H 0.157 0.8683 0.82111 0.0
H394 H 1.00081 0.92145 0.13917 0.0
H395 H 0.00309 0.8677 0.15282 0.0
H396 H 0.0407 0.97619 0.13594 0.0
H397 H 0.0656 0.99961 0.02761 0.0
C398 C 0.67221 0.08254 0.98056 0.0
C399 C 0.67345 0.0482 0.05043 0.0
C400 C 0.59954 0.0363 0.02543 0.0
C401 C 0.60148 0.06088 0.93542 0.0
N402 N 0.63845 0.11045 0.82827 0.0
N403 N 0.63761 0.98573 0.11788 0.0
C404 C 0.63727 0.0858 0.91451 0.0
C405 C 0.63669 0.02365 0.06945 0.0
N406 N 0.70396 0.11165 0.97746 0.0
N407 N 0.56242 0.02091 0.05982 0.0
H408 H 0.66476 0.97128 0.13614 0.0
H409 H 0.6116 0.96598 0.12629 0.0
H410 H 0.53503 0.02893 0.02376 0.0
H411 H 0.55913 0.00407 0.1288 0.0
H412 H 0.7032 0.13869 0.93269 0.0
H413 H 0.72922 0.11065 0.02745 0.0
H414 H 0.66518 0.12582 0.80174 0.0
H415 H 0.61245 0.11384 0.78165 0.0
C416 C 0.48397 0.61227 0.14544 0.0
C417 C 0.46244 0.64948 0.1259 0.0
C418 C 0.42054 0.61198 0.99459 0.0
C419 C 0.44411 0.57658 0.01122 0.0
N420 N 0.48214 0.53665 0.1318 0.0
N421 N 0.40087 0.67965 0.05909 0.0
C422 C 0.46894 0.57445 0.10017 0.0
C423 C 0.42723 0.64758 0.0599 0.0
N424 N 0.5212 0.61342 0.19517 0.0
N425 N 0.39419 0.61234 0.912 0.0
H426 H 0.4048 0.70553 0.10822 0.0
H427 H 0.37338 0.67862 0.0173 0.0
H428 H 0.38858 0.58573 0.86606 0.0
H429 H 0.37938 0.6389 0.88784 0.0
H430 H 0.53884 0.58716 0.20328 0.0
H431 H 0.53718 0.64096 0.21628 0.0
H432 H 0.49893 0.53284 0.2001 0.0
H433 H 0.47239 0.50903 0.09392 0.0
C434 C 0.88307 0.50162 0.93878 0.0
C435 C 0.86413 0.46979 0.00018 0.0
C436 C 0.92017 0.42282 0.96239 0.0
C437 C 0.94014 0.45579 0.90672 0.0
N438 N 0.9345 0.52063 0.81161 0.0
N439 N 0.8611 0.39942 0.06592 0.0
C440 C 0.91967 0.49335 0.88555 0.0
C441 C 0.88137 0.42979 0.00913 0.0
N442 N 0.8677 0.54081 0.93703 0.0
N443 N 0.93828 0.38512 0.96924 0.0
H444 H 0.83197 0.40347 0.09696 0.0
H445 H 0.87252 0.37034 0.08278 0.0
H446 H 0.96703 0.37989 0.93734 0.0
H447 H 0.92483 0.35855 0.00317 0.0
H448 H 0.88361 0.56683 0.90652 0.0
H449 H 0.84019 0.54825 0.97231 0.0
H450 H 0.91792 0.54533 0.78314 0.0
H451 H 0.96153 0.51653 0.77056 0.0
C452 C 0.03982 0.21311 0.86208 0.0
C453 C 0.06113 0.21277 0.95782 0.0
C454 C 0.09077 0.14595 0.91346 0.0
C455 C 0.06567 0.14382 0.82266 0.0
N456 N 0.02922 0.18141 0.69177 0.0
N457 N 0.11835 0.18906 0.0556 0.0
C458 C 0.04475 0.17976 0.79037 0.0
C459 C 0.09121 0.1829 0.97538 0.0
N460 N 0.01278 0.24374 0.84364 0.0
N461 N 0.11109 0.11179 0.946 0.0
H462 H 0.11814 0.21589 0.10197 0.0
H463 H 0.14305 0.17012 0.06926 0.0
H464 H 0.11172 0.08402 0.90393 0.0
H465 H 0.12553 0.11005 0.01814 0.0
H466 H 0.99241 0.24338 0.78102 0.0
H467 H 0.01016 0.26906 0.89424 0.0
H468 H 0.01609 0.20778 0.66073 0.0
H469 H 0.03317 0.15748 0.63789 0.0
C470 C 0.32802 0.03161 0.92396 0.0
C471 C 0.30931 0.99288 0.95425 0.0
C472 C 0.36056 0.95555 0.86011 0.0
C473 C 0.37993 0.99411 0.8264 0.0
N474 N 0.37092 0.06799 0.79694 0.0
N475 N 0.2967 0.92059 0.91285 0.0
C476 C 0.36009 0.03206 0.84858 0.0
C477 C 0.32098 0.95611 0.90447 0.0
N478 N 0.31658 0.06754 0.9708 0.0
N479 N 0.38129 0.91926 0.86369 0.0
H480 H 0.2683 0.92071 0.95034 0.0
H481 H 0.3031 0.89297 0.87398 0.0
H482 H 0.41286 0.91788 0.85334 0.0
H483 H 0.36841 0.8916 0.89422 0.0
H484 H 0.33234 0.09622 0.96063 0.0
H485 H 0.29223 0.06776 0.02326 0.0
H486 H 0.35544 0.09561 0.80639 0.0
H487 H 0.39179 0.06878 0.73575 0.0
C488 C 0.53071 0.29928 0.94317 0.0
C489 C 0.49351 0.28652 0.99025 0.0
C490 C 0.45891 0.33735 0.88172 0.0
C491 C 0.49744 0.35907 0.86464 0.0
N492 N 0.57103 0.36152 0.90617 0.0
N493 N 0.42037 0.29089 -0.00165 0.0
C494 C 0.53403 0.33986 0.89988 0.0
C495 C 0.45681 0.30422 0.95581 0.0
N496 N 0.56405 0.27525 0.95395 0.0
N497 N 0.42485 0.3475 0.82666 0.0
H498 H 0.4186 0.26579 0.05013 0.0
H499 H 0.39293 0.30576 0.9854 0.0
H500 H 0.42601 0.36902 0.76594 0.0
H501 H 0.39682 0.3308 0.83267 0.0
H502 H 0.59192 0.28234 0.91707 0.0
H503 H 0.56184 0.24628 0.99125 0.0
H504 H 0.59718 0.34867 0.93792 0.0
H505 H 0.57474 0.39368 0.89684 0.0
C506 C 0.24625 0.51735 0.90537 0.0
C507 C 0.24398 0.49332 0.99691 0.0
C508 C 0.18698 0.45067 0.92188 0.0
C509 C 0.18232 0.48173 0.84504 0.0
N510 N 0.20969 0.54317 0.75575 0.0
N511 N 0.218 0.43222 0.08674 0.0
C512 C 0.2134 0.51391 0.83203 0.0
C513 C 0.21701 0.45745 0.0015 0.0
N514 N 0.27877 0.54509 0.89318 0.0
N515 N 0.16212 0.41526 0.91892 0.0
H516 H 0.241 0.43568 0.14307 0.0
H517 H 0.19598 0.40869 0.10283 0.0
H518 H 0.14019 0.40994 0.86038 0.0
H519 H 0.16538 0.38989 0.96825 0.0
H520 H 0.28438 0.56213 0.82556 0.0
H521 H 0.30218 0.54786 0.94893 0.0
H522 H 0.22876 0.56994 0.74988 0.0
H523 H 0.1863 0.54186 0.70025 0.0
C524 C 0.96883 0.81312 0.34415 0.0
C525 C 0.0062 0.7921 0.35279 0.0
C526 C 0.02329 0.82953 0.51378 0.0
C527 C 0.98891 0.85495 0.49693 0.0
N528 N 0.92232 0.86232 0.42008 0.0
N529 N 0.0595 0.76767 0.46182 0.0
C530 C 0.95919 0.84345 0.42036 0.0
C531 C 0.02966 0.7956 0.44481 0.0
N532 N 0.94459 0.80646 0.25839 0.0
N533 N 0.05177 0.83992 0.58885 0.0
H534 H 0.06439 0.74343 0.40929 0.0
H535 H 0.07627 0.7661 0.53069 0.0
H536 H 0.04859 0.86424 0.64164 0.0
H537 H 0.07979 0.82564 0.59604 0.0
H538 H 0.91968 0.82438 0.23949 0.0
H539 H 0.95029 0.78309 0.20438 0.0
H540 H 0.89797 0.85369 0.37086 0.0
H541 H 0.91502 0.88444 0.47614 0.0
C542 C 0.72801 0.00396 0.43879 0.0
C543 C 0.73118 0.98015 0.34718 0.0
C544 C 0.6752 0.93253 0.40608 0.0
C545 C 0.66559 0.96238 0.48258 0.0
N546 N 0.68459 0.02486 0.58071 0.0
N547 N 0.71429 0.91733 0.25089 0.0
C548 C 0.69327 0.99698 0.50398 0.0
C549 C 0.70761 0.94216 0.33513 0.0
N550 N 0.75738 0.03456 0.45907 0.0
N551 N 0.6528 0.89554 0.40105 0.0
H552 H 0.73898 0.92303 0.20096 0.0
H553 H 0.69535 0.89181 0.22918 0.0
H554 H 0.62909 0.88822 0.45309 0.0
H555 H 0.65943 0.871 0.35152 0.0
H556 H 0.75901 0.05188 0.52764 0.0
H557 H 0.78237 0.03974 0.40945 0.0
H558 H 0.70101 0.05305 0.5926 0.0
H559 H 0.65966 0.0208 0.63063 0.0
C560 C 0.51282 0.7194 0.499 0.0
C561 C 0.53663 0.71975 0.40784 0.0
C562 C 0.57896 0.66526 0.48013 0.0
C563 C 0.54827 0.65724 0.55569 0.0
N564 N 0.48877 0.67972 0.64881 0.0
N565 N 0.59775 0.70051 0.31905 0.0
C566 C 0.51676 0.68613 0.57113 0.0
C567 C 0.5724 0.69601 0.40281 0.0
N568 N 0.48495 0.74966 0.51184 0.0
N569 N 0.61359 0.64259 0.48176 0.0
H570 H 0.59421 0.72408 0.26434 0.0
H571 H 0.62167 0.68098 0.30278 0.0
H572 H 0.61852 0.62017 0.53883 0.0
H573 H 0.63856 0.64803 0.43283 0.0
H574 H 0.46774 0.75333 0.57894 0.0
H575 H 0.48197 0.77337 0.45694 0.0
H576 H 0.46251 0.69686 0.65714 0.0
H577 H 0.49112 0.6562 0.70405 0.0
C578 C 0.84241 0.47065 0.3986 0.0
C579 C 0.82766 0.5075 0.35556 0.0
C580 C 0.87472 0.54767 0.47081 0.0
C581 C 0.89775 0.5112 0.48659 0.0
N582 N 0.90581 0.43839 0.43473 0.0
N583 N 0.82869 0.58258 0.35328 0.0
C584 C 0.88189 0.47232 0.44453 0.0
C585 C 0.84298 0.54662 0.39382 0.0
N586 N 0.82123 0.43357 0.38248 0.0
N587 N 0.88223 0.58263 0.5299 0.0
H588 H 0.80455 0.58232 0.29962 0.0
H589 H 0.84203 0.61203 0.36975 0.0
H590 H 0.90281 0.58342 0.59224 0.0
H591 H 0.86437 0.60885 0.52503 0.0
H592 H 0.83 0.40568 0.41626 0.0
H593 H 0.79289 0.43219 0.34392 0.0
H594 H 0.89542 0.4108 0.39814 0.0
H595 H 0.93746 0.43951 0.44622 0.0
loop_
_geom_bond_atom_site_label_1
_geom_bond_atom_site_label_2
_geom_bond_distance
_geom_bond_site_symmetry_2
_ccdc_geom_bond_type
H0 C3 0.931 . S
H1 C6 0.928 . S
H2 C8 0.930 . S
C3 H0 0.931 . S
C3 C4 1.413 . S
C3 C5 1.360 1_554 S
C4 C3 1.413 . S
C4 C8 1.429 . S
C5 C3 1.360 1_556 S
C5 C6 1.372 . S
C6 H1 0.928 . S
C6 C5 1.372 . S
C6 C7 1.404 1_556 S
C7 C6 1.404 1_554 S
C7 C8 1.391 . S
C8 H2 0.930 . S
C8 C4 1.429 . S
C8 C7 1.391 . S
H9 C12 0.931 . S
H10 C15 0.928 . S
H11 C17 0.930 . S
C12 H9 0.931 . S
C12 C13 1.413 . S
C12 C14 1.360 . S
C13 C12 1.413 . S
C13 C17 1.429 . S
C14 C12 1.360 . S
C14 C15 1.372 1_554 S
C15 H10 0.928 . S
C15 C14 1.372 1_556 S
C15 C16 1.404 1_556 S
C16 C15 1.404 1_554 S
C16 C17 1.391 . S
C17 H11 0.930 . S
C17 C13 1.429 . S
C17 C16 1.391 . S
H18 C21 0.931 . S
H19 C24 0.928 . S
H20 C26 0.931 . S
C21 H18 0.931 . S
C21 C22 1.413 . S
C21 C23 1.360 1_554 S
C22 C21 1.413 . S
C22 C26 1.429 1_565 S
C23 C21 1.360 1_556 S
C23 C24 1.373 . S
C24 H19 0.928 . S
C24 C23 1.373 . S
C24 C25 1.404 1_556 S
C25 C24 1.404 1_554 S
C25 C26 1.390 1_565 S
C26 H20 0.931 . S
C26 C22 1.429 1_545 S
C26 C25 1.390 1_545 S
H27 C30 0.931 . S
H28 C33 0.928 . S
H29 C35 0.930 . S
C30 H27 0.931 . S
C30 C31 1.413 1_554 S
C30 C32 1.360 . S
C31 C30 1.413 1_556 S
C31 C35 1.429 . S
C32 C30 1.360 . S
C32 C33 1.372 . S
C33 H28 0.928 . S
C33 C32 1.372 . S
C33 C34 1.404 . S
C34 C33 1.404 . S
C34 C35 1.391 1_554 S
C35 H29 0.930 . S
C35 C31 1.429 . S
C35 C34 1.391 1_556 S
H36 C39 0.931 . S
H37 C42 0.928 . S
H38 C44 0.930 . S
C39 H36 0.931 . S
C39 C40 1.413 . S
C39 C41 1.360 . S
C40 C39 1.413 . S
C40 C44 1.429 . S
C41 C39 1.360 . S
C41 C42 1.372 . S
C42 H37 0.928 . S
C42 C41 1.372 . S
C42 C43 1.404 . S
C43 C42 1.404 . S
C43 C44 1.391 . S
C44 H38 0.930 . S
C44 C40 1.429 . S
C44 C43 1.391 . S
H45 C48 0.931 . S
H46 C51 0.928 . S
H47 C53 0.930 . S
C48 H45 0.931 . S
C48 C49 1.413 . S
C48 C50 1.360 . S
C49 C48 1.413 . S
C49 C53 1.429 . S
C50 C48 1.360 . S
C50 C51 1.372 . S
C51 H46 0.928 . S
C51 C50 1.372 . S
C51 C52 1.404 . S
C52 C51 1.404 . S
C52 C53 1.391 . S
C53 H47 0.930 . S
C53 C49 1.429 . S
C53 C52 1.391 . S
H54 C57 0.931 . S
H55 C60 0.928 . S
H56 C62 0.930 . S
C57 H54 0.931 . S
C57 C58 1.413 . S
C57 C59 1.360 . S
C58 C57 1.413 . S
C58 C62 1.429 1_565 S
C59 C57 1.360 . S
C59 C60 1.372 . S
C60 H55 0.928 . S
C60 C59 1.372 . S
C60 C61 1.405 . S
C61 C60 1.405 . S
C61 C62 1.391 1_565 S
C62 H56 0.930 . S
C62 C58 1.429 1_545 S
C62 C61 1.391 1_545 S
H63 C66 0.931 . S
H64 C69 0.928 . S
H65 C71 0.930 . S
C66 H63 0.931 . S
C66 C67 1.413 . S
C66 C68 1.360 . S
C67 C66 1.413 . S
C67 C71 1.429 . S
C68 C66 1.360 . S
C68 C69 1.372 . S
C69 H64 0.928 . S
C69 C68 1.372 . S
C69 C70 1.404 . S
C70 C69 1.404 . S
C70 C71 1.391 . S
C71 H65 0.930 . S
C71 C67 1.429 . S
C71 C70 1.391 . S
O72 Zn73 1.953 . S
O72 C88 1.225 . S
Zn73 O72 1.953 . S
Zn73 O74 1.950 . S
Zn73 O80 1.919 1_565 S
Zn73 O85 1.924 . S
O74 Zn73 1.950 . S
O74 Zn75 1.898 1_565 S
O74 Zn76 1.953 . S
O74 Zn77 1.966 1_455 S
Zn75 O74 1.898 1_545 S
Zn75 O78 1.933 1_455 S
Zn75 O81 1.941 . S
Zn75 O82 1.965 . S
Zn76 O74 1.953 . S
Zn76 O83 1.938 1_565 S
Zn76 O84 1.906 . S
Zn76 O94 1.953 . S
Zn77 O74 1.966 1_655 S
Zn77 O79 1.932 . S
Zn77 O86 1.977 . S
Zn77 O87 1.910 1_655 S
O78 Zn75 1.933 1_655 S
O78 C89 1.226 . S
O79 Zn77 1.932 . S
O79 C89 1.307 1_565 S
O80 Zn73 1.919 1_545 S
O80 C91 1.253 . S
O81 Zn75 1.941 . S
O81 C91 1.283 . S
O82 Zn75 1.965 . S
O82 C90 1.303 . S
O83 Zn76 1.938 1_545 S
O83 C90 1.247 . S
O84 Zn76 1.906 . S
O84 C92 1.304 1_455 S
O85 Zn73 1.924 . S
O85 C93 1.311 . S
O86 Zn77 1.977 . S
O86 C92 1.272 . S
O87 Zn77 1.910 1_455 S
O87 C93 1.231 . S
C88 O72 1.225 . S
C88 O94 1.298 . S
C89 O78 1.226 . S
C89 O79 1.307 1_545 S
C90 O82 1.303 . S
C90 O83 1.247 . S
C91 O80 1.253 . S
C91 O81 1.283 . S
C92 O84 1.304 1_655 S
C92 O86 1.272 . S
C93 O85 1.311 . S
C93 O87 1.231 . S
O94 Zn76 1.953 . S
O94 C88 1.298 . S
O95 Zn96 1.953 . S
O95 C111 1.225 . S
Zn96 O95 1.953 . S
Zn96 O97 1.949 . S
Zn96 O103 1.919 . S
Zn96 O108 1.924 . S
O97 Zn96 1.949 . S
O97 Zn98 1.923 1_545 S
O97 Zn99 1.950 . S
O97 Zn100 1.945 1_545 S
Zn98 O97 1.923 1_565 S
Zn98 O101 1.933 . S
Zn98 O104 1.941 . S
Zn98 O105 1.965 . S
Zn99 O97 1.950 . S
Zn99 O106 1.938 . S
Zn99 O107 1.906 1_545 S
Zn99 O117 1.953 . S
Zn100 O97 1.945 1_565 S
Zn100 O102 1.932 . S
Zn100 O109 1.977 . S
Zn100 O110 1.910 1_565 S
O101 Zn98 1.933 . S
O101 C112 1.226 . S
O102 Zn100 1.932 . S
O102 C112 1.307 . S
O103 Zn96 1.919 . S
O103 C114 1.253 . S
O104 Zn98 1.941 . S
O104 C114 1.283 1_565 S
O105 Zn98 1.965 . S
O105 C113 1.303 . S
O106 Zn99 1.938 . S
O106 C113 1.247 1_545 S
O107 Zn99 1.906 1_565 S
O107 C115 1.304 . S
O108 Zn96 1.924 . S
O108 C116 1.311 . S
O109 Zn100 1.977 . S
O109 C115 1.272 . S
O110 Zn100 1.910 1_545 S
O110 C116 1.231 . S
C111 O95 1.225 . S
C111 O117 1.298 . S
C112 O101 1.226 . S
C112 O102 1.307 . S
C113 O105 1.303 . S
C113 O106 1.247 1_565 S
C114 O103 1.253 . S
C114 O104 1.283 1_545 S
C115 O107 1.304 . S
C115 O109 1.272 . S
C116 O108 1.311 . S
C116 O110 1.231 . S
O117 Zn99 1.953 . S
O117 C111 1.298 . S
O118 Zn119 1.953 . S
O118 C134 1.225 . S
Zn119 O118 1.953 . S
Zn119 O120 1.949 . S
Zn119 O126 1.919 . S
Zn119 O131 1.924 . S
O120 Zn119 1.949 . S
O120 Zn121 1.923 . S
O120 Zn122 1.950 . S
O120 Zn123 1.945 . S
Zn121 O120 1.923 . S
Zn121 O124 1.933 . S
Zn121 O127 1.941 . S
Zn121 O128 1.965 . S
Zn122 O120 1.950 . S
Zn122 O129 1.938 . S
Zn122 O130 1.906 . S
Zn122 O140 1.953 . S
Zn123 O120 1.945 . S
Zn123 O125 1.932 . S
Zn123 O132 1.977 . S
Zn123 O133 1.910 . S
O124 Zn121 1.933 . S
O124 C135 1.226 . S
O125 Zn123 1.932 . S
O125 C135 1.307 . S
O126 Zn119 1.919 . S
O126 C137 1.253 . S
O127 Zn121 1.941 . S
O127 C137 1.283 . S
O128 Zn121 1.965 . S
O128 C136 1.303 . S
O129 Zn122 1.938 . S
O129 C136 1.247 . S
O130 Zn122 1.906 . S
O130 C138 1.304 . S
O131 Zn119 1.924 . S
O131 C139 1.311 . S
O132 Zn123 1.977 . S
O132 C138 1.272 . S
O133 Zn123 1.910 . S
O133 C139 1.231 . S
C134 O118 1.225 . S
C134 O140 1.298 . S
C135 O124 1.226 . S
C135 O125 1.307 . S
C136 O128 1.303 . S
C136 O129 1.247 . S
C137 O126 1.253 . S
C137 O127 1.283 . S
C138 O130 1.304 . S
C138 O132 1.272 . S
C139 O131 1.311 . S
C139 O133 1.231 . S
O140 Zn122 1.953 . S
O140 C134 1.298 . S
O141 Zn142 1.953 1_655 S
O141 C157 1.225 . S
Zn142 O141 1.953 1_455 S
Zn142 O143 1.949 . S
Zn142 O149 1.919 . S
Zn142 O154 1.924 . S
O143 Zn142 1.949 . S
O143 Zn144 1.923 . S
O143 Zn145 1.950 1_455 S
O143 Zn146 1.945 . S
Zn144 O143 1.923 . S
Zn144 O147 1.933 . S
Zn144 O150 1.941 1_455 S
Zn144 O151 1.965 1_455 S
Zn145 O143 1.950 1_655 S
Zn145 O152 1.938 . S
Zn145 O153 1.906 . S
Zn145 O163 1.953 . S
Zn146 O143 1.945 . S
Zn146 O148 1.932 . S
Zn146 O155 1.977 . S
Zn146 O156 1.910 . S
O147 Zn144 1.933 . S
O147 C158 1.226 . S
O148 Zn146 1.932 . S
O148 C158 1.307 . S
O149 Zn142 1.919 . S
O149 C160 1.253 . S
O150 Zn144 1.941 1_655 S
O150 C160 1.283 1_655 S
O151 Zn144 1.965 1_655 S
O151 C159 1.303 . S
O152 Zn145 1.938 . S
O152 C159 1.247 . S
O153 Zn145 1.906 . S
O153 C161 1.304 1_655 S
O154 Zn142 1.924 . S
O154 C162 1.311 . S
O155 Zn146 1.977 . S
O155 C161 1.272 . S
O156 Zn146 1.910 . S
O156 C162 1.231 . S
C157 O141 1.225 . S
C157 O163 1.298 . S
C158 O147 1.226 . S
C158 O148 1.307 . S
C159 O151 1.303 . S
C159 O152 1.247 . S
C160 O149 1.253 . S
C160 O150 1.283 1_455 S
C161 O153 1.304 1_455 S
C161 O155 1.272 . S
C162 O154 1.311 . S
C162 O156 1.231 . S
O163 Zn145 1.953 . S
O163 C157 1.298 . S
C164 C165 1.363 1_545 S
C164 C170 1.379 . S
C164 N172 1.356 . S
C165 C164 1.363 1_565 S
C165 C171 1.363 . S
C166 C167 1.363 . S
C166 C171 1.379 . S
C166 N173 1.356 . S
C167 C166 1.363 . S
C167 C170 1.363 1_565 S
N168 C170 1.356 . S
N168 H180 0.984 . S
N168 H181 0.985 . S
N169 C171 1.356 . S
N169 H174 0.984 . S
N169 H175 0.985 . S
C170 C164 1.379 . S
C170 C167 1.363 1_545 S
C170 N168 1.356 . S
C171 C165 1.363 . S
C171 C166 1.379 . S
C171 N169 1.356 . S
N172 C164 1.356 . S
N172 H178 0.984 . S
N172 H179 0.984 . S
N173 C166 1.356 . S
N173 H176 0.984 . S
N173 H177 0.985 . S
H174 N169 0.984 . S
H175 N169 0.985 . S
H176 N173 0.984 . S
H177 N173 0.985 . S
H178 N172 0.984 . S
H179 N172 0.984 . S
H180 N168 0.984 . S
H181 N168 0.985 . S
C182 C183 1.363 . S
C182 C188 1.379 . S
C182 N190 1.356 . S
C183 C182 1.363 . S
C183 C189 1.363 . S
C184 C185 1.363 . S
C184 C189 1.379 . S
C184 N191 1.356 . S
C185 C184 1.363 . S
C185 C188 1.363 . S
N186 C188 1.356 . S
N186 H198 0.984 . S
N186 H199 0.985 . S
N187 C189 1.356 . S
N187 H192 0.984 . S
N187 H193 0.985 . S
C188 C182 1.379 . S
C188 C185 1.363 . S
C188 N186 1.356 . S
C189 C183 1.363 . S
C189 C184 1.379 . S
C189 N187 1.356 . S
N190 C182 1.356 . S
N190 H196 0.984 . S
N190 H197 0.984 . S
N191 C184 1.356 . S
N191 H194 0.984 . S
N191 H195 0.985 . S
H192 N187 0.984 . S
H193 N187 0.985 . S
H194 N191 0.984 . S
H195 N191 0.985 . S
H196 N190 0.984 . S
H197 N190 0.984 . S
H198 N186 0.984 . S
H199 N186 0.985 . S
C200 C201 1.363 . S
C200 C206 1.379 . S
C200 N208 1.356 . S
C201 C200 1.363 . S
C201 C207 1.363 . S
C202 C203 1.363 . S
C202 C207 1.379 . S
C202 N209 1.356 . S
C203 C202 1.363 . S
C203 C206 1.363 . S
N204 C206 1.356 . S
N204 H216 0.984 . S
N204 H217 0.985 . S
N205 C207 1.356 . S
N205 H210 0.984 . S
N205 H211 0.985 . S
C206 C200 1.379 . S
C206 C203 1.363 . S
C206 N204 1.356 . S
C207 C201 1.363 . S
C207 C202 1.379 . S
C207 N205 1.356 . S
N208 C200 1.356 . S
N208 H214 0.984 . S
N208 H215 0.984 . S
N209 C202 1.356 . S
N209 H212 0.984 . S
N209 H213 0.985 . S
H210 N205 0.984 . S
H211 N205 0.985 . S
H212 N209 0.984 . S
H213 N209 0.985 . S
H214 N208 0.984 . S
H215 N208 0.984 . S
H216 N204 0.984 . S
H217 N204 0.985 . S
C218 C219 1.363 . S
C218 C224 1.379 . S
C218 N226 1.356 . S
C219 C218 1.363 . S
C219 C225 1.363 . S
C220 C221 1.363 . S
C220 C225 1.379 . S
C220 N227 1.356 . S
C221 C220 1.363 . S
C221 C224 1.363 . S
N222 C224 1.356 1_655 S
N222 H234 0.984 . S
N222 H235 0.985 . S
N223 C225 1.356 . S
N223 H228 0.984 . S
N223 H229 0.985 . S
C224 C218 1.379 . S
C224 C221 1.363 . S
C224 N222 1.356 1_455 S
C225 C219 1.363 . S
C225 C220 1.379 . S
C225 N223 1.356 . S
N226 C218 1.356 . S
N226 H232 0.984 1_455 S
N226 H233 0.984 . S
N227 C220 1.356 . S
N227 H230 0.984 . S
N227 H231 0.985 . S
H228 N223 0.984 . S
H229 N223 0.985 . S
H230 N227 0.984 . S
H231 N227 0.985 . S
H232 N226 0.984 1_655 S
H233 N226 0.984 . S
H234 N222 0.984 . S
H235 N222 0.985 . S
C236 C237 1.363 . S
C236 C242 1.379 . S
C236 N244 1.356 . S
C237 C236 1.363 . S
C237 C243 1.363 1_545 S
C238 C239 1.363 1_565 S
C238 C243 1.379 . S
C238 N245 1.356 . S
C239 C238 1.363 1_545 S
C239 C242 1.363 . S
N240 C242 1.356 . S
N240 H252 0.984 . S
N240 H253 0.985 . S
N241 C243 1.356 1_554 S
N241 H246 0.984 . S
N241 H247 0.985 1_554 S
C242 C236 1.379 . S
C242 C239 1.363 . S
C242 N240 1.356 . S
C243 C237 1.363 1_565 S
C243 C238 1.379 . S
C243 N241 1.356 1_556 S
N244 C236 1.356 . S
N244 H250 0.984 . S
N244 H251 0.984 1_556 S
N245 C238 1.356 . S
N245 H248 0.984 . S
N245 H249 0.985 . S
H246 N241 0.984 . S
H247 N241 0.985 1_556 S
H248 N245 0.984 . S
H249 N245 0.985 . S
H250 N244 0.984 . S
H251 N244 0.984 1_554 S
H252 N240 0.984 . S
H253 N240 0.985 . S
C254 C255 1.363 . S
C254 C260 1.379 . S
C254 N262 1.356 . S
C255 C254 1.363 . S
C255 C261 1.363 . S
C256 C257 1.363 . S
C256 C261 1.379 . S
C256 N263 1.356 . S
C257 C256 1.363 . S
C257 C260 1.363 . S
N258 C260 1.356 . S
N258 H270 0.984 . S
N258 H271 0.985 . S
N259 C261 1.356 1_554 S
N259 H264 0.984 . S
N259 H265 0.985 . S
C260 C254 1.379 . S
C260 C257 1.363 . S
C260 N258 1.356 . S
C261 C255 1.363 . S
C261 C256 1.379 . S
C261 N259 1.356 1_556 S
N262 C254 1.356 . S
N262 H268 0.984 . S
N262 H269 0.984 . S
N263 C256 1.356 . S
N263 H266 0.984 . S
N263 H267 0.985 . S
H264 N259 0.984 . S
H265 N259 0.985 . S
H266 N263 0.984 . S
H267 N263 0.985 . S
H268 N262 0.984 . S
H269 N262 0.984 . S
H270 N258 0.984 . S
H271 N258 0.985 . S
C272 C273 1.363 . S
C272 C278 1.379 . S
C272 N280 1.356 . S
C273 C272 1.363 . S
C273 C279 1.363 . S
C274 C275 1.363 . S
C274 C279 1.379 . S
C274 N281 1.356 . S
C275 C274 1.363 . S
C275 C278 1.363 . S
N276 C278 1.356 . S
N276 H288 0.984 . S
N276 H289 0.985 . S
N277 C279 1.356 1_554 S
N277 H282 0.984 . S
N277 H283 0.985 . S
C278 C272 1.379 . S
C278 C275 1.363 . S
C278 N276 1.356 . S
C279 C273 1.363 . S
C279 C274 1.379 . S
C279 N277 1.356 1_556 S
N280 C272 1.356 . S
N280 H286 0.984 . S
N280 H287 0.984 . S
N281 C274 1.356 . S
N281 H284 0.984 . S
N281 H285 0.985 . S
H282 N277 0.984 . S
H283 N277 0.985 . S
H284 N281 0.984 . S
H285 N281 0.985 . S
H286 N280 0.984 . S
H287 N280 0.984 . S
H288 N276 0.984 . S
H289 N276 0.985 . S
C290 C291 1.363 . S
C290 C296 1.379 1_554 S
C290 N298 1.356 . S
C291 C290 1.363 . S
C291 C297 1.364 1_554 S
C292 C293 1.363 . S
C292 C297 1.378 1_455 S
C292 N299 1.356 . S
C293 C292 1.363 . S
C293 C296 1.363 1_455 S
N294 C296 1.356 1_455 S
N294 H306 0.984 1_455 S
N294 H307 0.986 . S
N295 C297 1.357 . S
N295 H300 0.984 . S
N295 H301 0.985 1_655 S
C296 C290 1.379 1_556 S
C296 C293 1.363 1_655 S
C296 N294 1.356 1_655 S
C297 C291 1.364 1_556 S
C297 C292 1.378 1_655 S
C297 N295 1.357 . S
N298 C290 1.356 . S
N298 H304 0.984 . S
N298 H305 0.984 . S
N299 C292 1.356 . S
N299 H302 0.984 . S
N299 H303 0.985 . S
H300 N295 0.984 . S
H301 N295 0.985 1_455 S
H302 N299 0.984 . S
H303 N299 0.985 . S
H304 N298 0.984 . S
H305 N298 0.984 . S
H306 N294 0.984 1_655 S
H307 N294 0.986 . S
C308 C309 1.363 . S
C308 C314 1.379 . S
C308 N316 1.356 . S
C309 C308 1.363 . S
C309 C315 1.363 . S
C310 C311 1.363 . S
C310 C315 1.379 . S
C310 N317 1.356 1_455 S
C311 C310 1.363 . S
C311 C314 1.363 . S
N312 C314 1.356 . S
N312 H324 0.984 . S
N312 H325 0.985 . S
N313 C315 1.356 . S
N313 H318 0.984 . S
N313 H319 0.985 . S
C314 C308 1.379 . S
C314 C311 1.363 . S
C314 N312 1.356 . S
C315 C309 1.363 . S
C315 C310 1.379 . S
C315 N313 1.356 . S
N316 C308 1.356 . S
N316 H322 0.984 . S
N316 H323 0.984 . S
N317 C310 1.356 1_655 S
N317 H320 0.984 . S
N317 H321 0.985 . S
H318 N313 0.984 . S
H319 N313 0.985 . S
H320 N317 0.984 . S
H321 N317 0.985 . S
H322 N316 0.984 . S
H323 N316 0.984 . S
H324 N312 0.984 . S
H325 N312 0.985 . S
C326 C327 1.363 . S
C326 C332 1.378 1_545 S
C326 N334 1.357 . S
C327 C326 1.363 . S
C327 C333 1.361 1_545 S
C328 C329 1.363 . S
C328 C333 1.379 . S
C328 N335 1.356 . S
C329 C328 1.363 . S
C329 C332 1.363 . S
N330 C332 1.356 . S
N330 H342 0.984 . S
N330 H343 0.985 . S
N331 C333 1.356 . S
N331 H336 0.984 1_565 S
N331 H337 0.985 . S
C332 C326 1.378 1_565 S
C332 C329 1.363 . S
C332 N330 1.356 . S
C333 C327 1.361 1_565 S
C333 C328 1.379 . S
C333 N331 1.356 . S
N334 C326 1.357 . S
N334 H340 0.984 . S
N334 H341 0.984 . S
N335 C328 1.356 . S
N335 H338 0.984 . S
N335 H339 0.985 . S
H336 N331 0.984 1_545 S
H337 N331 0.985 . S
H338 N335 0.984 . S
H339 N335 0.985 . S
H340 N334 0.984 . S
H341 N334 0.984 . S
H342 N330 0.984 . S
H343 N330 0.985 . S
C344 C345 1.363 . S
C344 C350 1.379 . S
C344 N352 1.356 . S
C345 C344 1.363 . S
C345 C351 1.363 . S
C346 C347 1.363 . S
C346 C351 1.379 . S
C346 N353 1.356 . S
C347 C346 1.363 . S
C347 C350 1.363 . S
N348 C350 1.356 . S
N348 H360 0.984 . S
N348 H361 0.985 . S
N349 C351 1.356 . S
N349 H354 0.984 . S
N349 H355 0.985 . S
C350 C344 1.379 . S
C350 C347 1.363 . S
C350 N348 1.356 . S
C351 C345 1.363 . S
C351 C346 1.379 . S
C351 N349 1.356 . S
N352 C344 1.356 . S
N352 H358 0.984 . S
N352 H359 0.984 . S
N353 C346 1.356 . S
N353 H356 0.984 . S
N353 H357 0.985 . S
H354 N349 0.984 . S
H355 N349 0.985 . S
H356 N353 0.984 . S
H357 N353 0.985 . S
H358 N352 0.984 . S
H359 N352 0.984 . S
H360 N348 0.984 . S
H361 N348 0.985 . S
C362 C363 1.363 . S
C362 C368 1.379 . S
C362 N370 1.356 . S
C363 C362 1.363 . S
C363 C369 1.363 . S
C364 C365 1.363 . S
C364 C369 1.379 . S
C364 N371 1.356 . S
C365 C364 1.363 . S
C365 C368 1.363 . S
N366 C368 1.356 . S
N366 H378 0.984 . S
N366 H379 0.985 . S
N367 C369 1.356 . S
N367 H372 0.984 . S
N367 H373 0.985 . S
C368 C362 1.379 . S
C368 C365 1.363 . S
C368 N366 1.356 . S
C369 C363 1.363 . S
C369 C364 1.379 . S
C369 N367 1.356 . S
N370 C362 1.356 . S
N370 H376 0.984 . S
N370 H377 0.984 . S
N371 C364 1.356 . S
N371 H374 0.984 . S
N371 H375 0.985 . S
H372 N367 0.984 . S
H373 N367 0.985 . S
H374 N371 0.984 . S
H375 N371 0.985 . S
H376 N370 0.984 . S
H377 N370 0.984 . S
H378 N366 0.984 . S
H379 N366 0.985 . S
C380 C381 1.363 1_454 S
C380 C386 1.379 1_554 S
C380 N388 1.356 1_455 S
C381 C380 1.363 1_656 S
C381 C387 1.363 1_655 S
C382 C383 1.363 . S
C382 C387 1.379 . S
C382 N389 1.356 . S
C383 C382 1.363 . S
C383 C386 1.363 . S
N384 C386 1.356 . S
N384 H396 0.984 1_556 S
N384 H397 0.985 . S
N385 C387 1.356 . S
N385 H390 0.984 1_455 S
N385 H391 0.985 . S
C386 C380 1.379 1_556 S
C386 C383 1.363 . S
C386 N384 1.356 . S
C387 C381 1.363 1_455 S
C387 C382 1.379 . S
C387 N385 1.356 . S
N388 C380 1.356 1_655 S
N388 H394 0.984 . S
N388 H395 0.984 . S
N389 C382 1.356 . S
N389 H392 0.984 . S
N389 H393 0.985 . S
H390 N385 0.984 1_655 S
H391 N385 0.985 . S
H392 N389 0.984 . S
H393 N389 0.985 . S
H394 N388 0.984 . S
H395 N388 0.984 . S
H396 N384 0.984 1_554 S
H397 N384 0.985 . S
C398 C399 1.363 . S
C398 C404 1.379 . S
C398 N406 1.356 . S
C399 C398 1.363 . S
C399 C405 1.363 . S
C400 C401 1.363 . S
C400 C405 1.379 . S
C400 N407 1.356 . S
C401 C400 1.363 . S
C401 C404 1.363 . S
N402 C404 1.356 . S
N402 H414 0.984 . S
N402 H415 0.985 . S
N403 C405 1.356 1_564 S
N403 H408 0.984 . S
N403 H409 0.985 . S
C404 C398 1.379 . S
C404 C401 1.363 . S
C404 N402 1.356 . S
C405 C399 1.363 . S
C405 C400 1.379 . S
C405 N403 1.356 1_546 S
N406 C398 1.356 . S
N406 H412 0.984 . S
N406 H413 0.984 1_545 S
N407 C400 1.356 . S
N407 H410 0.984 . S
N407 H411 0.985 1_556 S
H408 N403 0.984 . S
H409 N403 0.985 . S
H410 N407 0.984 . S
H411 N407 0.985 1_554 S
H412 N406 0.984 . S
H413 N406 0.984 1_565 S
H414 N402 0.984 . S
H415 N402 0.985 . S
C416 C417 1.363 . S
C416 C422 1.379 . S
C416 N424 1.356 . S
C417 C416 1.363 . S
C417 C423 1.363 . S
C418 C419 1.363 . S
C418 C423 1.379 . S
C418 N425 1.356 . S
C419 C418 1.363 . S
C419 C422 1.363 . S
N420 C422 1.356 . S
N420 H432 0.984 . S
N420 H433 0.985 . S
N421 C423 1.356 . S
N421 H426 0.984 . S
N421 H427 0.985 . S
C422 C416 1.379 . S
C422 C419 1.363 . S
C422 N420 1.356 . S
C423 C417 1.363 . S
C423 C418 1.379 . S
C423 N421 1.356 . S
N424 C416 1.356 . S
N424 H430 0.984 1_556 S
N424 H431 0.984 1_556 S
N425 C418 1.356 . S
N425 H428 0.984 . S
N425 H429 0.985 . S
H426 N421 0.984 . S
H427 N421 0.985 . S
H428 N425 0.984 . S
H429 N425 0.985 . S
H430 N424 0.984 1_554 S
H431 N424 0.984 1_554 S
H432 N420 0.984 . S
H433 N420 0.985 . S
C434 C435 1.363 . S
C434 C440 1.379 . S
C434 N442 1.356 . S
C435 C434 1.363 . S
C435 C441 1.363 . S
C436 C437 1.363 . S
C436 C441 1.379 . S
C436 N443 1.356 . S
C437 C436 1.363 . S
C437 C440 1.363 . S
N438 C440 1.356 . S
N438 H450 0.984 . S
N438 H451 0.985 . S
N439 C441 1.356 1_554 S
N439 H444 0.984 . S
N439 H445 0.985 . S
C440 C434 1.379 . S
C440 C437 1.363 . S
C440 N438 1.356 . S
C441 C435 1.363 . S
C441 C436 1.379 . S
C441 N439 1.356 1_556 S
N442 C434 1.356 . S
N442 H448 0.984 . S
N442 H449 0.984 . S
N443 C436 1.356 . S
N443 H446 0.984 . S
N443 H447 0.985 . S
H444 N439 0.984 . S
H445 N439 0.985 . S
H446 N443 0.984 . S
H447 N443 0.985 . S
H448 N442 0.984 . S
H449 N442 0.984 . S
H450 N438 0.984 . S
H451 N438 0.985 . S
C452 C453 1.363 . S
C452 C458 1.379 1_554 S
C452 N460 1.356 . S
C453 C452 1.363 . S
C453 C459 1.363 . S
C454 C455 1.363 . S
C454 C459 1.379 . S
C454 N461 1.356 . S
C455 C454 1.363 . S
C455 C458 1.363 1_554 S
N456 C458 1.356 . S
N456 H468 0.984 . S
N456 H469 0.985 . S
N457 C459 1.356 . S
N457 H462 0.984 . S
N457 H463 0.985 . S
C458 C452 1.379 1_556 S
C458 C455 1.363 1_556 S
C458 N456 1.356 . S
C459 C453 1.363 . S
C459 C454 1.379 . S
C459 N457 1.356 . S
N460 C452 1.356 . S
N460 H466 0.984 . S
N460 H467 0.984 . S
N461 C454 1.356 . S
N461 H464 0.984 . S
N461 H465 0.985 . S
H462 N457 0.984 . S
H463 N457 0.985 . S
H464 N461 0.984 . S
H465 N461 0.985 . S
H466 N460 0.984 . S
H467 N460 0.984 . S
H468 N456 0.984 . S
H469 N456 0.985 . S
C470 C471 1.361 1_545 S
C470 C476 1.379 1_554 S
C470 N478 1.356 . S
C471 C470 1.361 1_565 S
C471 C477 1.365 . S
C472 C473 1.363 1_554 S
C472 C477 1.379 . S
C472 N479 1.356 . S
C473 C472 1.363 1_556 S
C473 C476 1.363 1_565 S
N474 C476 1.356 . S
N474 H486 0.984 . S
N474 H487 0.985 . S
N475 C477 1.356 . S
N475 H480 0.984 . S
N475 H481 0.985 . S
C476 C470 1.379 1_556 S
C476 C473 1.363 1_545 S
C476 N474 1.356 . S
C477 C471 1.365 . S
C477 C472 1.379 . S
C477 N475 1.356 . S
N478 C470 1.356 . S
N478 H484 0.984 1_554 S
N478 H485 0.984 . S
N479 C472 1.356 . S
N479 H482 0.984 1_554 S
N479 H483 0.985 . S
H480 N475 0.984 . S
H481 N475 0.985 . S
H482 N479 0.984 1_556 S
H483 N479 0.985 . S
H484 N478 0.984 1_556 S
H485 N478 0.984 . S
H486 N474 0.984 . S
H487 N474 0.985 . S
C488 C489 1.363 1_556 S
C488 C494 1.379 . S
C488 N496 1.356 . S
C489 C488 1.363 1_554 S
C489 C495 1.363 . S
C490 C491 1.363 1_554 S
C490 C495 1.379 . S
C490 N497 1.356 . S
C491 C490 1.363 1_556 S
C491 C494 1.363 . S
N492 C494 1.356 . S
N492 H504 0.984 . S
N492 H505 0.985 . S
N493 C495 1.356 . S
N493 H498 0.984 . S
N493 H499 0.985 . S
C494 C488 1.379 . S
C494 C491 1.363 . S
C494 N492 1.356 . S
C495 C489 1.363 . S
C495 C490 1.379 . S
C495 N493 1.356 . S
N496 C488 1.356 . S
N496 H502 0.984 . S
N496 H503 0.984 1_556 S
N497 C490 1.356 . S
N497 H500 0.984 1_554 S
N497 H501 0.985 . S
H498 N493 0.984 . S
H499 N493 0.985 . S
H500 N497 0.984 1_556 S
H501 N497 0.985 . S
H502 N496 0.984 . S
H503 N496 0.984 1_554 S
H504 N492 0.984 . S
H505 N492 0.985 . S
C506 C507 1.363 . S
C506 C512 1.379 1_554 S
C506 N514 1.356 . S
C507 C506 1.363 . S
C507 C513 1.363 . S
C508 C509 1.363 . S
C508 C513 1.379 1_556 S
C508 N515 1.356 . S
C509 C508 1.363 . S
C509 C512 1.363 . S
N510 C512 1.356 . S
N510 H522 0.984 . S
N510 H523 0.985 . S
N511 C513 1.356 . S
N511 H516 0.984 . S
N511 H517 0.985 . S
C512 C506 1.379 1_556 S
C512 C509 1.363 . S
C512 N510 1.356 . S
C513 C507 1.363 . S
C513 C508 1.379 1_554 S
C513 N511 1.356 . S
N514 C506 1.356 . S
N514 H520 0.984 . S
N514 H521 0.984 . S
N515 C508 1.356 . S
N515 H518 0.984 . S
N515 H519 0.985 . S
H516 N511 0.984 . S
H517 N511 0.985 . S
H518 N515 0.984 . S
H519 N515 0.985 . S
H520 N514 0.984 . S
H521 N514 0.984 . S
H522 N510 0.984 . S
H523 N510 0.985 . S
C524 C525 1.363 . S
C524 C530 1.379 . S
C524 N532 1.356 . S
C525 C524 1.363 . S
C525 C531 1.358 1_655 S
C526 C527 1.363 . S
C526 C531 1.376 1_655 S
C526 N533 1.356 1_655 S
C527 C526 1.363 . S
C527 C530 1.363 . S
N528 C530 1.356 . S
N528 H540 0.984 . S
N528 H541 0.985 . S
N529 C531 1.364 . S
N529 H534 0.984 . S
N529 H535 0.985 . S
C530 C524 1.379 . S
C530 C527 1.363 . S
C530 N528 1.356 . S
C531 C525 1.358 1_455 S
C531 C526 1.376 1_455 S
C531 N529 1.364 . S
N532 C524 1.356 . S
N532 H538 0.984 . S
N532 H539 0.984 . S
N533 C526 1.356 1_455 S
N533 H536 0.984 1_455 S
N533 H537 0.985 . S
H534 N529 0.984 . S
H535 N529 0.985 . S
H536 N533 0.984 1_655 S
H537 N533 0.985 . S
H538 N532 0.984 . S
H539 N532 0.984 . S
H540 N528 0.984 . S
H541 N528 0.985 . S
C542 C543 1.363 . S
C542 C548 1.379 . S
C542 N550 1.356 . S
C543 C542 1.363 . S
C543 C549 1.363 . S
C544 C545 1.363 . S
C544 C549 1.379 . S
C544 N551 1.356 . S
C545 C544 1.363 . S
C545 C548 1.363 . S
N546 C548 1.356 . S
N546 H558 0.984 . S
N546 H559 0.985 . S
N547 C549 1.356 . S
N547 H552 0.984 1_565 S
N547 H553 0.985 . S
C548 C542 1.379 . S
C548 C545 1.363 . S
C548 N546 1.356 . S
C549 C543 1.363 . S
C549 C544 1.379 . S
C549 N547 1.356 . S
N550 C542 1.356 . S
N550 H556 0.984 . S
N550 H557 0.979 1_565 S
N551 C544 1.356 . S
N551 H554 0.984 . S
N551 H555 0.985 . S
H552 N547 0.984 1_545 S
H553 N547 0.985 . S
H554 N551 0.984 . S
H555 N551 0.985 . S
H556 N550 0.984 . S
H557 N550 0.979 1_545 S
H558 N546 0.984 . S
H559 N546 0.985 . S
C560 C561 1.363 . S
C560 C566 1.379 . S
C560 N568 1.356 . S
C561 C560 1.363 . S
C561 C567 1.363 . S
C562 C563 1.363 . S
C562 C567 1.379 . S
C562 N569 1.356 . S
C563 C562 1.363 . S
C563 C566 1.363 . S
N564 C566 1.356 . S
N564 H576 0.984 . S
N564 H577 0.985 . S
N565 C567 1.356 . S
N565 H570 0.984 . S
N565 H571 0.985 . S
C566 C560 1.379 . S
C566 C563 1.363 . S
C566 N564 1.356 . S
C567 C561 1.363 . S
C567 C562 1.379 . S
C567 N565 1.356 . S
N568 C560 1.356 . S
N568 H574 0.984 . S
N568 H575 0.984 . S
N569 C562 1.356 . S
N569 H572 0.984 . S
N569 H573 0.985 . S
H570 N565 0.984 . S
H571 N565 0.985 . S
H572 N569 0.984 . S
H573 N569 0.985 . S
H574 N568 0.984 . S
H575 N568 0.984 . S
H576 N564 0.984 . S
H577 N564 0.985 . S
C578 C579 1.363 . S
C578 C584 1.379 . S
C578 N586 1.356 . S
C579 C578 1.363 . S
C579 C585 1.363 . S
C580 C581 1.363 . S
C580 C585 1.379 . S
C580 N587 1.356 . S
C581 C580 1.363 . S
C581 C584 1.363 . S
N582 C584 1.356 . S
N582 H594 0.984 . S
N582 H595 0.985 . S
N583 C585 1.356 . S
N583 H588 0.984 . S
N583 H589 0.985 . S
C584 C578 1.379 . S
C584 C581 1.363 . S
C584 N582 1.356 . S
C585 C579 1.363 . S
C585 C580 1.379 . S
C585 N583 1.356 . S
N586 C578 1.356 . S
N586 H592 0.984 . S
N586 H593 0.984 . S
N587 C580 1.356 . S
N587 H590 0.984 . S
N587 H591 0.985 . S
H588 N583 0.984 . S
H589 N583 0.985 . S
H590 N587 0.984 . S
H591 N587 0.985 . S
H592 N586 0.984 . S
H593 N586 0.984 . S
H594 N582 0.984 . S
H595 N582 0.985 . S
C165 C61 1.601 . S
C167 C88 1.613 . S
C185 C111 1.700 . S
C183 C70 1.688 . S
C203 C134 1.635 . S
C201 C43 1.613 . S
C221 C161 1.536 . S
C219 C52 1.620 . S
C239 C89 1.555 . S
C237 C25 1.535 1_546 S
C255 C34 1.532 1_556 S
C257 C112 1.562 . S
C273 C7 1.471 1_556 S
C275 C135 1.492 . S
C291 C16 1.551 . S
C293 C160 1.574 . S
C311 C90 0.653 . S
C309 C50 0.681 . S
C329 C113 0.524 . S
C327 C59 0.548 1_545 S
C347 C136 0.635 . S
C345 C67 0.651 . S
C363 C41 0.781 . S
C365 C162 0.772 . S
C381 C14 0.935 1_556 S
C383 C93 0.872 . S
C401 C116 0.849 . S
C399 C23 0.926 1_545 S
C419 C139 0.875 . S
C417 C31 0.940 . S
C435 C5 0.605 . S
C437 C159 0.607 . S
C453 C49 1.608 . S
C455 C91 1.616 1_554 S
C471 C58 1.545 . S
C473 C114 1.568 1_565 S
C491 C137 1.582 . S
C489 C68 1.549 . S
C509 C158 1.467 . S
C507 C40 1.400 . S
C525 C13 1.685 . S
C527 C92 1.612 . S
C545 C115 1.554 . S
C543 C22 1.622 . S
C563 C138 1.549 . S
C561 C32 1.620 . S
C579 C4 1.629 . S
C581 C157 1.697 . S
