# Generated by pormake.
# Topology tsx, (6,3)-cn, num edge types: 1
# Building blocks:
#     Node 0, Type 0, BuildingBlock: JUFBIX_clean_sbu_0, # of connection points: 6
#     Node 1, Type 0, BuildingBlock: JUFBIX_clean_sbu_0, # of connection points: 6
#     Node 2, Type 1, BuildingBlock: BETDIP_clean_linker_0, # of connection points: 3
#     Node 3, Type 1, BuildingBlock: BETDIP_clean_linker_0, # of connection points: 3
#     Node 4, Type 1, BuildingBlock: BETDIP_clean_linker_0, # of connection points: 3
#     Node 5, Type 1, BuildingBlock: BETDIP_clean_linker_0, # of connection points: 3
#     Edge 6, Type (0, 1), BuildingBlock: XIVTED_clean_linker_0, # of connection points: 2
#     Edge 7, Type (0, 1), BuildingBlock: XIVTED_clean_linker_0, # of connection points: 2
#     Edge 8, Type (0, 1), BuildingBlock: XIVTED_clean_linker_0, # of connection points: 2
#     Edge 9, Type (0, 1), BuildingBlock: XIVTED_clean_linker_0, # of connection points: 2
#     Edge 10, Type (0, 1), BuildingBlock: XIVTED_clean_linker_0, # of connection points: 2
#     Edge 11, Type (0, 1), BuildingBlock: XIVTED_clean_linker_0, # of connection points: 2
#     Edge 12, Type (0, 1), BuildingBlock: XIVTED_clean_linker_0, # of connection points: 2
#     Edge 13, Type (0, 1), BuildingBlock: XIVTED_clean_linker_0, # of connection points: 2
#     Edge 14, Type (0, 1), BuildingBlock: XIVTED_clean_linker_0, # of connection points: 2
#     Edge 15, Type (0, 1), BuildingBlock: XIVTED_clean_linker_0, # of connection points: 2
#     Edge 16, Type (0, 1), BuildingBlock: XIVTED_clean_linker_0, # of connection points: 2
#     Edge 17, Type (0, 1), BuildingBlock: XIVTED_clean_linker_0, # of connection points: 2
# Relax obj value: 0.106
# Max RMSD: 0.132
# Mean RMSD: 0.118
data_MOF--net-tsx--node1-JUFBIX_clean_sbu_0--node2-BETDIP_clean_linker_0--edge1-XIVTED_clean_linker_0
_symmetry_space_group_name_H-M    P1
_symmetry_Int_Tables_number       1
_symmetry_cell_setting            triclinic
loop_
_symmetry_equiv_pos_as_xyz
'x, y, z'
_cell_length_a     20.116329
_cell_length_b     24.22632
_cell_length_c     33.026478
_cell_angle_alpha  93.454175
_cell_angle_beta   97.692106
_cell_angle_gamma 98.888913
loop_
_atom_site_label
_atom_site_type_symbol
_atom_site_fract_x
_atom_site_fract_y
_atom_site_fract_z
_atom_type_partial_charge
Co0 Co 0.06784 0.97462 -0.00729 0.0
C1 C 0.98143 0.99341 0.92208 0.0
Co2 Co 0.99405 0.03165 0.00195 0.0
C3 C 0.1672 0.89604 -0.00031 0.0
C4 C 0.16168 0.93881 0.94471 0.0
N5 N 0.1328 0.93217 0.97912 0.0
N6 N 0.21641 0.88081 0.97927 0.0
C7 C 0.21281 0.90759 0.94479 0.0
H8 H 0.1589 0.8836 0.02978 0.0
H9 H 0.14853 0.96677 0.92171 0.0
C10 C 0.0798 0.01307 0.07273 0.0
N11 N 0.93064 0.07508 0.01505 0.0
C12 C 0.91428 0.12158 -0.00158 0.0
C13 C 0.89255 0.06754 0.04553 0.0
N14 N 0.86755 0.14346 0.0174 0.0
C15 C 0.85369 0.10935 0.047 0.0
C16 C 0.94804 0.91708 0.0087 0.0
O17 O 0.10504 0.98129 0.04903 0.0
O18 O 0.03223 0.03819 0.05799 0.0
O19 O 0.93431 0.96655 0.01006 0.0
O20 O 1.00643 0.90905 0.00109 0.0
O21 O 0.95657 0.02535 0.94576 0.0
H22 H 0.89393 0.03431 0.06594 0.0
H23 H 0.93643 0.13898 0.97291 0.0
O24 O 0.02882 0.96815 0.93676 0.0
O25 O 0.12872 0.04123 0.9845 0.0
O26 O 0.05396 0.09597 -0.00642 0.0
C27 C 0.11259 0.08999 0.98582 0.0
H28 H 0.24642 0.90595 0.92187 0.0
H29 H 0.81937 0.11497 0.06893 0.0
Co30 Co 0.54785 0.45715 0.48943 0.0
C31 C 0.46988 0.47642 0.41535 0.0
Co32 Co 0.46885 0.51049 0.49431 0.0
C33 C 0.64771 0.37919 0.4988 0.0
C34 C 0.65354 0.4298 0.44795 0.0
N35 N 0.61746 0.41818 0.47894 0.0
N36 N 0.70141 0.36709 0.48132 0.0
C37 C 0.70502 0.39882 0.44946 0.0
H38 H 0.63258 0.36189 0.52627 0.0
H39 H 0.64433 0.46043 0.42624 0.0
C40 C 0.54592 0.49199 0.56855 0.0
N41 N 0.40031 0.55015 0.50465 0.0
C42 C 0.38655 0.59921 0.49111 0.0
C43 C 0.35591 0.53692 0.53114 0.0
N44 N 0.33542 0.61712 0.50823 0.0
C45 C 0.31595 0.57778 0.53331 0.0
C46 C 0.4266 0.39457 0.4974 0.0
O47 O 0.57831 0.46348 0.54687 0.0
O48 O 0.49779 0.51428 0.5511 0.0
O49 O 0.41018 0.44309 0.49727 0.0
O50 O 0.4878 0.38907 0.4945 0.0
O51 O 0.4404 0.50686 0.43738 0.0
H52 H 0.35411 0.50068 0.54881 0.0
H53 H 0.41413 0.62158 0.4695 0.0
O54 O 0.51598 0.45141 0.43225 0.0
O55 O 0.60707 0.52596 0.4846 0.0
O56 O 0.52809 0.57745 0.49102 0.0
C57 C 0.58874 0.57388 0.48604 0.0
H58 H 0.74322 0.40014 0.42917 0.0
H59 H 0.2773 0.57933 0.55302 0.0
H60 H 0.09461 0.98264 0.48904 0.0
H61 H 0.0538 0.06704 0.37992 0.0
H62 H 0.18619 0.94341 0.38289 0.0
H63 H 0.07851 0.14288 0.43941 0.0
C64 C 0.03675 0.12154 0.45337 0.0
C65 C 0.10212 0.98922 0.45773 0.0
C66 C 0.14452 0.95862 0.43837 0.0
C67 C 0.07185 0.0301 0.43725 0.0
C68 C 0.08046 0.03765 0.39626 0.0
C69 C 0.12054 0.00565 0.37596 0.0
C70 C 0.15386 0.96749 0.3978 0.0
N71 N 0.03242 0.06323 0.45793 0.0
H72 H 0.96808 0.95687 0.50412 0.0
H73 H 0.01865 0.04069 0.62562 0.0
H74 H 0.86328 0.89505 0.60167 0.0
H75 H 0.02501 0.11723 0.5833 0.0
C76 C 0.05943 0.10162 0.56434 0.0
C77 C 0.96023 0.96013 0.53595 0.0
C78 C 0.91123 0.92116 0.54996 0.0
C79 C 0.99757 0.00447 0.5629 0.0
C80 C 0.98753 0.00815 0.60427 0.0
C81 C 0.93971 0.96848 0.61863 0.0
C82 C 0.90117 0.92553 0.59109 0.0
N83 N 0.04562 0.04474 0.54824 0.0
H84 H 0.62191 0.50363 -0.00837 0.0
H85 H 0.56902 0.5889 0.88456 0.0
H86 H 0.67718 0.4497 0.87629 0.0
H87 H 0.60764 0.66471 0.94507 0.0
C88 C 0.56586 0.64467 0.95962 0.0
C89 C 0.62226 0.50816 0.95928 0.0
C90 C 0.65544 0.47308 0.93639 0.0
C91 C 0.59211 0.55059 0.94077 0.0
C92 C 0.59316 0.55655 0.89884 0.0
C93 C 0.62337 0.52006 0.87515 0.0
C94 C 0.65499 0.47892 0.89436 0.0
N95 N 0.55919 0.58625 0.96415 0.0
H96 H 0.49763 0.47195 0.00078 0.0
H97 H 0.53789 0.54704 0.1251 0.0
H98 H 0.39245 0.39624 0.0937 0.0
H99 H 0.54964 0.62738 0.08851 0.0
C100 C 0.58395 0.61392 0.06857 0.0
C101 C 0.48827 0.472 0.03232 0.0
C102 C 0.44115 0.42925 0.04409 0.0
C103 C 0.52211 0.51555 0.06129 0.0
C104 C 0.50971 0.51507 0.10219 0.0
C105 C 0.46346 0.47191 0.11414 0.0
C106 C 0.42906 0.42943 0.08484 0.0
N107 N 0.56986 0.5586 0.0492 0.0
H108 H 0.08802 0.19593 0.97392 0.0
H109 H 0.4774 0.329 0.02342 0.0
H110 H 0.24978 0.0972 0.98442 0.0
H111 H 0.31494 0.4252 0.00262 0.0
H112 H 0.39787 0.24389 -0.00443 0.0
H113 H 0.17156 0.27968 0.97199 0.0
C114 C 0.14116 0.1918 0.9755 0.0
C115 C 0.16213 0.13966 0.98011 0.0
C116 C 0.37992 0.28379 -0.00411 0.0
C117 C 0.25836 0.23565 0.97815 0.0
C118 C 0.42549 0.33231 0.01134 0.0
C119 C 0.40231 0.38374 0.01492 0.0
C120 C 0.31071 0.28698 0.9848 0.0
C121 C 0.33449 0.38613 -0.0001 0.0
C122 C 0.1889 0.23968 0.97421 0.0
C123 C 0.2315 0.1367 0.98133 0.0
N124 N 0.2907 0.33822 0.98612 0.0
N125 N 0.27731 0.18422 0.98103 0.0
H126 H 0.20022 0.77319 -0.0004 0.0
H127 H 0.58438 0.75746 0.9694 0.0
H128 H 0.3507 0.91495 0.9859 0.0
H129 H 0.44078 0.61112 0.98427 0.0
H130 H 0.50299 0.81669 0.98668 0.0
H131 H 0.29001 0.714 0.00552 0.0
C132 C 0.25253 0.79198 -0.0009 0.0
C133 C 0.26856 0.84867 -0.00784 0.0
C134 C 0.48911 0.77167 0.98655 0.0
C135 C 0.37069 0.78193 -0.00187 0.0
C136 C 0.53565 0.7379 0.97661 0.0
C137 C 0.51877 0.67951 0.9748 0.0
C138 C 0.42446 0.74689 -0.0059 0.0
C139 C 0.45542 0.65612 0.98497 0.0
C140 C 0.30359 0.75832 0.00211 0.0
C141 C 0.33664 0.87126 -0.00894 0.0
N142 N 0.40998 0.68991 -0.0064 0.0
N143 N 0.38497 0.83782 -0.00641 0.0
H144 H 0.82614 0.92579 0.03298 0.0
H145 H 0.69322 0.59714 0.02958 0.0
H146 H 0.94936 0.80274 0.00221 0.0
H147 H 0.60049 0.72593 0.08505 0.0
H148 H 0.78328 0.6698 0.01362 0.0
H149 H 0.73878 0.85119 0.04613 0.0
C150 C 0.83497 0.88294 0.02894 0.0
C151 C 0.8955 0.87061 0.01651 0.0
C152 C 0.74326 0.68201 0.02935 0.0
C153 C 0.79465 0.78431 0.03174 0.0
C154 C 0.69183 0.64069 0.03833 0.0
C155 C 0.63942 0.65585 0.05855 0.0
C156 C 0.74179 0.73862 0.0406 0.0
C157 C 0.64015 0.71262 0.06951 0.0
C158 C 0.78486 0.84023 0.0366 0.0
C159 C 0.9036 0.81412 0.01186 0.0
N160 N 0.69031 0.75191 0.06026 0.0
N161 N 0.85357 0.77288 0.01944 0.0
H162 H 0.92544 0.23339 0.98176 0.0
H163 H 0.60816 0.39567 0.98771 0.0
H164 H 0.74645 0.1689 0.03401 0.0
H165 H 0.78168 0.45122 0.9279 0.0
H166 H 0.66258 0.31718 0.0116 0.0
H167 H 0.87709 0.31746 0.96701 0.0
C168 C 0.87581 0.23669 -0.01005 0.0
C169 C 0.83982 0.19368 0.00889 0.0
C170 C 0.6889 0.34682 -0.0065 0.0
C171 C 0.78432 0.29047 -0.00743 0.0
C172 C 0.65809 0.39174 0.98014 0.0
C173 C 0.69024 0.42947 0.95543 0.0
C174 C 0.75231 0.33996 0.98218 0.0
C175 C 0.75471 0.42245 0.94631 0.0
C176 C 0.84838 0.28498 0.9818 0.0
C177 C 0.77627 0.20107 0.01964 0.0
N178 N 0.78339 0.37842 0.95946 0.0
N179 N 0.75042 0.2484 0.01117 0.0
H180 H 0.7256 0.58314 0.48309 0.0
H181 H 0.78113 0.9166 0.51458 0.0
H182 H 0.56366 0.68128 0.4824 0.0
H183 H 0.94486 0.82067 0.52691 0.0
H184 H 0.70208 0.83153 0.48676 0.0
H185 H 0.80713 0.6697 0.48485 0.0
C186 C 0.7071 0.62282 0.48292 0.0
C187 C 0.63787 0.62508 0.48333 0.0
C188 C 0.75551 0.82912 0.49461 0.0
C189 C 0.73075 0.7241 0.48514 0.0
C190 C 0.80055 0.87772 0.51004 0.0
C191 C 0.86912 0.87515 0.52266 0.0
C192 C 0.77927 0.77756 0.49261 0.0
C193 C 0.89217 0.82398 0.51707 0.0
C194 C 0.75365 0.67219 0.48385 0.0
C195 C 0.61667 0.67758 0.4827 0.0
N196 N 0.84704 0.77681 0.503 0.0
N197 N 0.66301 0.72499 0.48402 0.0
H198 H 0.8357 0.39913 0.50079 0.0
H199 H 0.91357 0.08538 0.47973 0.0
H200 H 0.67771 0.25512 0.48862 0.0
H201 H 0.05174 0.23412 0.46276 0.0
H202 H 0.83212 0.1449 0.49905 0.0
H203 H 0.92114 0.33736 0.50531 0.0
C204 C 0.8194 0.35429 0.50018 0.0
C205 C 0.75006 0.33191 0.49431 0.0
C206 C 0.88061 0.16437 0.49152 0.0
C207 C 0.84698 0.26063 0.49796 0.0
C208 C 0.927 0.13052 0.48052 0.0
C209 C 0.98889 0.15511 0.46908 0.0
C210 C 0.89698 0.22294 0.49153 0.0
C211 C 1.00412 0.21361 0.47084 0.0
C212 C 0.86793 0.31899 0.50238 0.0
C213 C 0.73095 0.27365 0.49341 0.0
N214 N 0.95847 0.24545 0.48165 0.0
N215 N 0.77924 0.23972 0.49449 0.0
H216 H 0.43789 0.28249 0.50347 0.0
H217 H 0.07257 0.21386 0.57311 0.0
H218 H 0.29423 0.39796 0.50316 0.0
H219 H 0.17049 0.08099 0.52829 0.0
H220 H 0.16208 0.28251 0.55369 0.0
H221 H 0.34794 0.20735 0.51718 0.0
C222 C 0.38765 0.29197 0.50598 0.0
C223 C 0.37387 0.34673 0.50255 0.0
C224 C 0.16411 0.23836 0.54792 0.0
C225 C 0.27193 0.26185 0.51849 0.0
C226 C 0.11322 0.19927 0.55921 0.0
C227 C 0.11425 0.142 0.55214 0.0
C228 C 0.21731 0.22013 0.53002 0.0
C229 C 0.16788 0.12502 0.53397 0.0
C230 C 0.33651 0.2492 0.51373 0.0
C231 C 0.30779 0.35668 0.50594 0.0
N232 N 0.21781 0.16408 0.52366 0.0
N233 N 0.25976 0.31491 0.51402 0.0
H234 H 0.20996 0.63815 0.5192 0.0
H235 H 0.27762 0.9463 0.44413 0.0
H236 H 0.401 0.71454 0.48547 0.0
H237 H 0.08632 0.8721 0.47839 0.0
H238 H 0.32719 0.86541 0.46643 0.0
H239 H 0.16674 0.72605 0.51046 0.0
C240 C 0.24304 0.67346 0.51021 0.0
C241 C 0.30921 0.66872 0.50286 0.0
C242 C 0.27459 0.86694 0.46955 0.0
C243 C 0.25975 0.76957 0.49257 0.0
C244 C 0.24639 0.91316 0.45693 0.0
C245 C 0.17767 0.91539 0.45903 0.0
C246 C 0.23364 0.82234 0.4841 0.0
C247 C 0.13953 0.87184 0.47628 0.0
C248 C 0.21821 0.72366 0.50515 0.0
C249 C 0.34935 0.71581 0.49078 0.0
N250 N 0.16782 0.82662 0.48767 0.0
N251 N 0.32392 0.76416 0.48592 0.0
H252 H 0.06421 0.09675 0.12769 0.0
H253 H 0.125 0.92067 0.31807 0.0
H254 H 0.14237 0.94091 0.11945 0.0
H255 H 0.1257 0.09928 0.33211 0.0
H256 H 0.12945 0.92683 0.24528 0.0
H257 H 0.0849 0.09878 0.20238 0.0
C258 C 0.08653 0.06328 0.14166 0.0
C259 C 0.10117 0.01833 0.11743 0.0
C260 C 0.12941 0.96478 0.26437 0.0
C261 C 0.1239 0.02002 0.20276 0.0
C262 C 0.12716 0.96144 0.30611 0.0
C263 C 0.12523 0.00964 0.3316 0.0
C264 C 0.12838 0.01645 0.24758 0.0
C265 C 0.12606 0.06086 0.31371 0.0
C266 C 0.09843 0.06456 0.18426 0.0
C267 C 0.13035 0.97628 0.13705 0.0
N268 N 0.12696 0.06283 0.27272 0.0
N269 N 0.1398 0.97768 0.17866 0.0
H270 H 0.92341 0.06688 0.87403 0.0
H271 H 0.93123 0.88088 0.66676 0.0
H272 H 0.98958 0.90576 0.86899 0.0
H273 H 0.93232 0.05942 0.67071 0.0
H274 H 0.92667 0.88429 0.74027 0.0
H275 H 0.90107 0.05936 0.79866 0.0
C276 C 0.93207 0.02959 0.85708 0.0
C277 C 0.95887 0.98707 0.87755 0.0
C278 C 0.92742 0.92269 0.72502 0.0
C279 C 0.93347 0.9782 0.79208 0.0
C280 C 0.92961 0.92072 0.68304 0.0
C281 C 0.93254 0.97002 0.6627 0.0
C282 C 0.92796 0.97427 0.74691 0.0
C283 C 0.93108 0.02061 0.68542 0.0
C284 C 0.91976 0.0255 0.81423 0.0
C285 C 0.96958 0.93974 0.85432 0.0
N286 N 0.92914 0.02152 0.72645 0.0
N287 N 0.95703 0.93666 0.81283 0.0
H288 H 0.47659 0.54255 0.62098 0.0
H289 H 0.7193 0.50407 0.82522 0.0
H290 H 0.65109 0.45897 0.61897 0.0
H291 H 0.51479 0.53963 0.8219 0.0
H292 H 0.70436 0.49915 0.75019 0.0
H293 H 0.49997 0.55421 0.69516 0.0
C294 C 0.52008 0.52666 0.63613 0.0
C295 C 0.56183 0.49942 0.61366 0.0
C296 C 0.66305 0.50829 0.76604 0.0
C297 C 0.58882 0.51283 0.69911 0.0
C298 C 0.67137 0.511 0.80881 0.0
C299 C 0.6181 0.52213 0.83001 0.0
C300 C 0.60132 0.5173 0.74441 0.0
C301 C 0.55768 0.53179 0.80711 0.0
C302 C 0.53327 0.5333 0.67862 0.0
C303 C 0.61745 0.47994 0.63515 0.0
N304 N 0.55096 0.52904 0.76562 0.0
N305 N 0.6294 0.487 0.67686 0.0
H306 H 0.41034 0.54812 0.36657 0.0
H307 H 0.46064 0.38155 0.15947 0.0
H308 H 0.49506 0.39503 0.36203 0.0
H309 H 0.44315 0.55706 0.16724 0.0
H310 H 0.44906 0.37902 0.23199 0.0
H311 H 0.39805 0.5448 0.29144 0.0
C312 C 0.42534 0.51344 0.34973 0.0
C313 C 0.45427 0.47202 0.37038 0.0
C314 C 0.44735 0.41801 0.21778 0.0
C315 C 0.44031 0.46798 0.2851 0.0
C316 C 0.4536 0.41941 0.1764 0.0
C317 C 0.45319 0.46967 0.15752 0.0
C318 C 0.44033 0.46715 0.2404 0.0
C319 C 0.4446 0.51767 0.18091 0.0
C320 C 0.4187 0.51176 0.30701 0.0
C321 C 0.47314 0.42809 0.34725 0.0
N322 N 0.43863 0.5153 0.22129 0.0
N323 N 0.466 0.42731 0.30584 0.0
loop_
_geom_bond_atom_site_label_1
_geom_bond_atom_site_label_2
_geom_bond_distance
_geom_bond_site_symmetry_2
_ccdc_geom_bond_type
Co0 N5 2.057 . S
Co0 O17 2.021 . S
Co0 O20 2.062 1_455 S
Co0 O24 2.117 1_554 S
Co0 O25 2.020 1_565 S
C1 O21 1.259 1_455 S
C1 O24 1.258 1_545 S
Co2 N11 2.057 . S
Co2 O18 2.117 1_655 S
Co2 O19 2.020 1_545 S
Co2 O21 2.021 1_554 S
Co2 O26 2.062 1_655 S
C3 N5 1.316 . S
C3 N6 1.347 . S
C3 H8 0.931 . S
C4 N5 1.375 1_556 S
C4 C7 1.350 . S
C4 H9 0.930 . S
N5 Co0 2.057 . S
N5 C3 1.316 . S
N5 C4 1.375 1_554 S
N6 C3 1.347 . S
N6 C7 1.373 1_554 S
C7 C4 1.350 . S
C7 N6 1.373 1_556 S
C7 H28 0.931 . S
H8 C3 0.931 . S
H9 C4 0.930 . S
C10 O17 1.259 1_545 S
C10 O18 1.258 . S
N11 Co2 2.057 . S
N11 C12 1.316 1_554 S
N11 C13 1.375 . S
C12 N11 1.316 1_556 S
C12 N14 1.347 1_556 S
C12 H23 0.931 . S
C13 N11 1.375 . S
C13 C15 1.350 . S
C13 H22 0.930 . S
N14 C12 1.347 1_554 S
N14 C15 1.373 . S
C15 C13 1.350 . S
C15 N14 1.373 . S
C15 H29 0.931 . S
C16 O19 1.256 . S
C16 O20 1.255 . S
O17 Co0 2.021 . S
O17 C10 1.259 1_565 S
O18 Co2 2.117 1_455 S
O18 C10 1.258 . S
O19 Co2 2.020 1_565 S
O19 C16 1.256 . S
O20 Co0 2.062 1_655 S
O20 C16 1.255 . S
O21 C1 1.259 1_655 S
O21 Co2 2.021 1_556 S
H22 C13 0.930 . S
H23 C12 0.931 . S
O24 Co0 2.117 1_556 S
O24 C1 1.258 1_565 S
O25 Co0 2.020 1_545 S
O25 C27 1.256 . S
O26 Co2 2.062 1_455 S
O26 C27 1.255 . S
C27 O25 1.256 . S
C27 O26 1.255 . S
H28 C7 0.931 . S
H29 C15 0.931 . S
Co30 N35 2.057 . S
Co30 O47 2.021 . S
Co30 O50 2.062 . S
Co30 O54 2.117 . S
Co30 O55 2.020 . S
C31 O51 1.259 . S
C31 O54 1.258 . S
Co32 N41 2.057 . S
Co32 O48 2.117 . S
Co32 O49 2.020 . S
Co32 O51 2.021 . S
Co32 O56 2.062 . S
C33 N35 1.316 . S
C33 N36 1.347 . S
C33 H38 0.931 . S
C34 N35 1.375 . S
C34 C37 1.350 . S
C34 H39 0.930 . S
N35 Co30 2.057 . S
N35 C33 1.316 . S
N35 C34 1.375 . S
N36 C33 1.347 . S
N36 C37 1.373 . S
C37 C34 1.350 . S
C37 N36 1.373 . S
C37 H58 0.931 . S
H38 C33 0.931 . S
H39 C34 0.930 . S
C40 O47 1.259 . S
C40 O48 1.258 . S
N41 Co32 2.057 . S
N41 C42 1.316 . S
N41 C43 1.375 . S
C42 N41 1.316 . S
C42 N44 1.347 . S
C42 H53 0.931 . S
C43 N41 1.375 . S
C43 C45 1.350 . S
C43 H52 0.930 . S
N44 C42 1.347 . S
N44 C45 1.373 . S
C45 C43 1.350 . S
C45 N44 1.373 . S
C45 H59 0.931 . S
C46 O49 1.256 . S
C46 O50 1.255 . S
O47 Co30 2.021 . S
O47 C40 1.259 . S
O48 Co32 2.117 . S
O48 C40 1.258 . S
O49 Co32 2.020 . S
O49 C46 1.256 . S
O50 Co30 2.062 . S
O50 C46 1.255 . S
O51 C31 1.259 . S
O51 Co32 2.021 . S
H52 C43 0.930 . S
H53 C42 0.931 . S
O54 Co30 2.117 . S
O54 C31 1.258 . S
O55 Co30 2.020 . S
O55 C57 1.256 . S
O56 Co32 2.062 . S
O56 C57 1.255 . S
C57 O55 1.256 . S
C57 O56 1.255 . S
H58 C37 0.931 . S
H59 C45 0.931 . S
H60 C65 0.930 . S
H61 C68 0.930 1_655 S
H62 C70 0.930 . S
H63 C64 1.016 . S
C64 H63 1.016 . S
C64 N71 1.286 . S
C65 H60 0.930 . S
C65 C66 1.397 . S
C65 C67 1.361 1_565 S
C66 C65 1.397 . S
C66 C70 1.390 . S
C67 C65 1.361 1_545 S
C67 C68 1.393 . S
C67 N71 1.413 1_455 S
C68 H61 0.930 1_455 S
C68 C67 1.393 . S
C68 C69 1.399 1_545 S
C69 C68 1.399 1_565 S
C69 C70 1.381 . S
C70 H62 0.930 . S
C70 C66 1.390 . S
C70 C69 1.381 . S
N71 C64 1.286 . S
N71 C67 1.413 1_655 S
H72 C77 0.930 . S
H73 C80 0.930 . S
H74 C82 0.930 . S
H75 C76 1.016 . S
C76 H75 1.016 . S
C76 N83 1.286 . S
C77 H72 0.930 . S
C77 C78 1.397 . S
C77 C79 1.361 1_665 S
C78 C77 1.397 . S
C78 C82 1.390 . S
C79 C77 1.361 1_445 S
C79 C80 1.393 . S
C79 N83 1.413 . S
C80 H73 0.930 . S
C80 C79 1.393 . S
C80 C81 1.398 1_445 S
C81 C80 1.398 1_665 S
C81 C82 1.381 . S
C82 H74 0.930 . S
C82 C78 1.390 . S
C82 C81 1.381 . S
N83 C76 1.286 . S
N83 C79 1.413 . S
H84 C89 0.930 1_554 S
H85 C92 0.930 . S
H86 C94 0.930 . S
H87 C88 1.016 . S
C88 H87 1.016 . S
C88 N95 1.286 . S
C89 H84 0.930 1_556 S
C89 C90 1.397 . S
C89 C91 1.361 . S
C90 C89 1.397 . S
C90 C94 1.390 . S
C91 C89 1.361 . S
C91 C92 1.393 . S
C91 N95 1.413 . S
C92 H85 0.930 . S
C92 C91 1.393 . S
C92 C93 1.399 . S
C93 C92 1.399 . S
C93 C94 1.381 . S
C94 H86 0.930 . S
C94 C90 1.390 . S
C94 C93 1.381 . S
N95 C88 1.286 . S
N95 C91 1.413 . S
H96 C101 0.930 . S
H97 C104 0.930 . S
H98 C106 0.930 . S
H99 C100 1.016 . S
C100 H99 1.016 . S
C100 N107 1.286 . S
C101 H96 0.930 . S
C101 C102 1.397 . S
C101 C103 1.361 . S
C102 C101 1.397 . S
C102 C106 1.390 . S
C103 C101 1.361 . S
C103 C104 1.393 . S
C103 N107 1.413 . S
C104 H97 0.930 . S
C104 C103 1.393 . S
C104 C105 1.399 . S
C105 C104 1.399 . S
C105 C106 1.381 . S
C106 H98 0.930 . S
C106 C102 1.390 . S
C106 C105 1.381 . S
N107 C100 1.286 . S
N107 C103 1.413 . S
H108 C114 0.930 . S
H109 C118 0.930 . S
H110 C123 0.929 . S
H111 C121 0.929 1_556 S
H112 C116 0.929 . S
H113 C122 0.929 . S
C114 H108 0.930 . S
C114 C115 1.367 1_556 S
C114 C122 1.378 . S
C115 C114 1.367 1_554 S
C115 C123 1.433 . S
C116 H112 0.929 . S
C116 C118 1.378 . S
C116 C120 1.350 . S
C117 C120 1.463 . S
C117 C122 1.350 1_554 S
C117 N125 1.427 . S
C118 H109 0.930 . S
C118 C116 1.378 . S
C118 C119 1.367 . S
C119 C118 1.367 . S
C119 C121 1.433 . S
C120 C116 1.350 . S
C120 C117 1.463 . S
C120 N124 1.445 . S
C121 H111 0.929 1_554 S
C121 C119 1.433 . S
C121 N124 1.383 . S
C122 H113 0.929 . S
C122 C114 1.378 . S
C122 C117 1.350 1_556 S
C123 H110 0.929 . S
C123 C115 1.433 . S
C123 N125 1.384 . S
N124 C120 1.445 . S
N124 C121 1.383 . S
N125 C117 1.427 . S
N125 C123 1.384 . S
H126 C132 0.930 . S
H127 C136 0.930 . S
H128 C141 0.929 . S
H129 C139 0.929 . S
H130 C134 0.929 . S
H131 C140 0.929 . S
C132 H126 0.930 . S
C132 C133 1.367 . S
C132 C140 1.378 . S
C133 C132 1.367 . S
C133 C141 1.433 . S
C134 H130 0.929 . S
C134 C136 1.378 1_554 S
C134 C138 1.350 . S
C135 C138 1.463 . S
C135 C140 1.350 . S
C135 N143 1.427 . S
C136 H127 0.930 . S
C136 C134 1.378 1_556 S
C136 C137 1.367 . S
C137 C136 1.367 . S
C137 C139 1.433 . S
C138 C134 1.350 . S
C138 C135 1.463 . S
C138 N142 1.427 . S
C139 H129 0.929 . S
C139 C137 1.433 . S
C139 N142 1.384 1_556 S
C140 H131 0.929 . S
C140 C132 1.378 . S
C140 C135 1.350 . S
C141 H128 0.929 . S
C141 C133 1.433 . S
C141 N143 1.384 . S
N142 C138 1.427 . S
N142 C139 1.384 1_554 S
N143 C135 1.427 . S
N143 C141 1.384 . S
H144 C150 0.930 . S
H145 C154 0.930 . S
H146 C159 0.929 . S
H147 C157 0.929 . S
H148 C152 0.929 . S
H149 C158 0.929 . S
C150 H144 0.930 . S
C150 C151 1.367 . S
C150 C158 1.378 . S
C151 C150 1.367 . S
C151 C159 1.433 1_554 S
C152 H148 0.929 . S
C152 C154 1.378 . S
C152 C156 1.350 1_556 S
C153 C156 1.463 . S
C153 C158 1.350 . S
C153 N161 1.427 1_554 S
C154 H145 0.930 . S
C154 C152 1.378 . S
C154 C155 1.367 1_556 S
C155 C154 1.367 1_554 S
C155 C157 1.433 . S
C156 C152 1.350 1_554 S
C156 C153 1.463 . S
C156 N160 1.427 . S
C157 H147 0.929 . S
C157 C155 1.433 . S
C157 N160 1.384 . S
C158 H149 0.929 . S
C158 C150 1.378 . S
C158 C153 1.350 . S
C159 H146 0.929 . S
C159 C151 1.433 1_556 S
C159 N161 1.384 . S
N160 C156 1.427 . S
N160 C157 1.384 . S
N161 C153 1.427 1_556 S
N161 C159 1.384 . S
H162 C168 0.930 . S
H163 C172 0.930 . S
H164 C177 0.929 . S
H165 C175 0.929 . S
H166 C170 0.929 . S
H167 C176 0.929 . S
C168 H162 0.930 . S
C168 C169 1.367 1_554 S
C168 C176 1.378 . S
C169 C168 1.367 1_556 S
C169 C177 1.433 . S
C170 H166 0.929 . S
C170 C172 1.378 . S
C170 C174 1.350 . S
C171 C174 1.463 . S
C171 C176 1.350 1_556 S
C171 N179 1.427 . S
C172 H163 0.930 . S
C172 C170 1.378 . S
C172 C173 1.367 . S
C173 C172 1.367 . S
C173 C175 1.433 . S
C174 C170 1.350 . S
C174 C171 1.463 . S
C174 N178 1.427 . S
C175 H165 0.929 . S
C175 C173 1.433 . S
C175 N178 1.384 . S
C176 H167 0.929 . S
C176 C168 1.378 . S
C176 C171 1.350 1_554 S
C177 H164 0.929 . S
C177 C169 1.433 . S
C177 N179 1.384 . S
N178 C174 1.427 . S
N178 C175 1.384 . S
N179 C171 1.427 . S
N179 C177 1.384 . S
H180 C186 0.930 . S
H181 C190 0.930 . S
H182 C195 0.929 . S
H183 C193 0.929 . S
H184 C188 0.929 . S
H185 C194 0.929 . S
C186 H180 0.930 . S
C186 C187 1.367 . S
C186 C194 1.378 . S
C187 C186 1.367 . S
C187 C195 1.433 . S
C188 H184 0.929 . S
C188 C190 1.378 . S
C188 C192 1.350 . S
C189 C192 1.463 . S
C189 C194 1.350 . S
C189 N197 1.427 . S
C190 H181 0.930 . S
C190 C188 1.378 . S
C190 C191 1.367 . S
C191 C190 1.367 . S
C191 C193 1.433 . S
C192 C188 1.350 . S
C192 C189 1.463 . S
C192 N196 1.427 . S
C193 H183 0.929 . S
C193 C191 1.433 . S
C193 N196 1.384 . S
C194 H185 0.929 . S
C194 C186 1.378 . S
C194 C189 1.350 . S
C195 H182 0.929 . S
C195 C187 1.433 . S
C195 N197 1.384 . S
N196 C192 1.427 . S
N196 C193 1.384 . S
N197 C189 1.427 . S
N197 C195 1.384 . S
H198 C204 0.930 . S
H199 C208 0.930 . S
H200 C213 0.929 . S
H201 C211 0.929 . S
H202 C206 0.929 . S
H203 C212 0.929 . S
C204 H198 0.930 . S
C204 C205 1.367 . S
C204 C212 1.378 . S
C205 C204 1.367 . S
C205 C213 1.433 . S
C206 H202 0.929 . S
C206 C208 1.378 . S
C206 C210 1.350 . S
C207 C210 1.463 . S
C207 C212 1.350 . S
C207 N215 1.427 . S
C208 H199 0.930 . S
C208 C206 1.378 . S
C208 C209 1.367 . S
C209 C208 1.367 . S
C209 C211 1.433 . S
C210 C206 1.350 . S
C210 C207 1.463 . S
C210 N214 1.427 . S
C211 H201 0.929 . S
C211 C209 1.433 . S
C211 N214 1.384 . S
C212 H203 0.929 . S
C212 C204 1.378 . S
C212 C207 1.350 . S
C213 H200 0.929 . S
C213 C205 1.433 . S
C213 N215 1.384 . S
N214 C210 1.427 . S
N214 C211 1.384 . S
N215 C207 1.427 . S
N215 C213 1.384 . S
H216 C222 0.930 . S
H217 C226 0.930 . S
H218 C231 0.929 . S
H219 C229 0.929 . S
H220 C224 0.929 . S
H221 C230 0.929 . S
C222 H216 0.930 . S
C222 C223 1.367 . S
C222 C230 1.378 . S
C223 C222 1.367 . S
C223 C231 1.433 . S
C224 H220 0.929 . S
C224 C226 1.378 . S
C224 C228 1.350 . S
C225 C228 1.463 . S
C225 C230 1.350 . S
C225 N233 1.427 . S
C226 H217 0.930 . S
C226 C224 1.378 . S
C226 C227 1.367 . S
C227 C226 1.367 . S
C227 C229 1.433 . S
C228 C224 1.350 . S
C228 C225 1.463 . S
C228 N232 1.427 . S
C229 H219 0.929 . S
C229 C227 1.433 . S
C229 N232 1.384 . S
C230 H221 0.929 . S
C230 C222 1.378 . S
C230 C225 1.350 . S
C231 H218 0.929 . S
C231 C223 1.433 . S
C231 N233 1.384 . S
N232 C228 1.427 . S
N232 C229 1.384 . S
N233 C225 1.427 . S
N233 C231 1.384 . S
H234 C240 0.930 . S
H235 C244 0.930 . S
H236 C249 0.929 . S
H237 C247 0.929 . S
H238 C242 0.929 . S
H239 C248 0.929 . S
C240 H234 0.930 . S
C240 C241 1.367 . S
C240 C248 1.378 . S
C241 C240 1.367 . S
C241 C249 1.433 . S
C242 H238 0.929 . S
C242 C244 1.378 . S
C242 C246 1.350 . S
C243 C246 1.463 . S
C243 C248 1.350 . S
C243 N251 1.427 . S
C244 H235 0.930 . S
C244 C242 1.378 . S
C244 C245 1.367 . S
C245 C244 1.367 . S
C245 C247 1.433 . S
C246 C242 1.350 . S
C246 C243 1.463 . S
C246 N250 1.427 . S
C247 H237 0.929 . S
C247 C245 1.433 . S
C247 N250 1.384 . S
C248 H239 0.929 . S
C248 C240 1.378 . S
C248 C243 1.350 . S
C249 H236 0.929 . S
C249 C241 1.433 . S
C249 N251 1.384 . S
N250 C246 1.427 . S
N250 C247 1.384 . S
N251 C243 1.427 . S
N251 C249 1.384 . S
H252 C258 0.930 . S
H253 C262 0.930 . S
H254 C267 0.929 . S
H255 C265 0.929 . S
H256 C260 0.929 . S
H257 C266 0.929 . S
C258 H252 0.930 . S
C258 C259 1.367 . S
C258 C266 1.378 . S
C259 C258 1.367 . S
C259 C267 1.433 1_545 S
C260 H256 0.929 . S
C260 C262 1.378 . S
C260 C264 1.350 . S
C261 C264 1.463 1_545 S
C261 C266 1.350 . S
C261 N269 1.427 1_545 S
C262 H253 0.930 . S
C262 C260 1.378 . S
C262 C263 1.367 . S
C263 C262 1.367 . S
C263 C265 1.433 1_565 S
C264 C260 1.350 . S
C264 C261 1.463 1_565 S
C264 N268 1.427 1_565 S
C265 H255 0.929 . S
C265 C263 1.433 1_545 S
C265 N268 1.384 . S
C266 H257 0.929 . S
C266 C258 1.378 . S
C266 C261 1.350 . S
C267 H254 0.929 . S
C267 C259 1.433 1_565 S
C267 N269 1.384 . S
N268 C264 1.427 1_545 S
N268 C265 1.384 . S
N269 C261 1.427 1_565 S
N269 C267 1.384 . S
H270 C276 0.930 . S
H271 C280 0.930 . S
H272 C285 0.929 . S
H273 C283 0.929 . S
H274 C278 0.929 . S
H275 C284 0.929 . S
C276 H270 0.930 . S
C276 C277 1.367 . S
C276 C284 1.378 . S
C277 C276 1.367 . S
C277 C285 1.433 1_445 S
C278 H274 0.929 . S
C278 C280 1.378 . S
C278 C282 1.350 1_565 S
C279 C282 1.463 1_455 S
C279 C284 1.350 . S
C279 N287 1.427 1_445 S
C280 H271 0.930 . S
C280 C278 1.378 . S
C280 C281 1.367 1_565 S
C281 C280 1.367 1_545 S
C281 C283 1.433 1_655 S
C282 C278 1.350 1_545 S
C282 C279 1.463 1_655 S
C282 N286 1.427 1_655 S
C283 H273 0.929 . S
C283 C281 1.433 1_455 S
C283 N286 1.384 . S
C284 H275 0.929 . S
C284 C276 1.378 . S
C284 C279 1.350 . S
C285 H272 0.929 . S
C285 C277 1.433 1_665 S
C285 N287 1.384 . S
N286 C282 1.427 1_455 S
N286 C283 1.384 . S
N287 C279 1.427 1_665 S
N287 C285 1.384 . S
H288 C294 0.930 . S
H289 C298 0.930 . S
H290 C303 0.929 . S
H291 C301 0.929 . S
H292 C296 0.929 . S
H293 C302 0.929 . S
C294 H288 0.930 . S
C294 C295 1.367 . S
C294 C302 1.378 . S
C295 C294 1.367 . S
C295 C303 1.433 . S
C296 H292 0.929 . S
C296 C298 1.378 . S
C296 C300 1.350 . S
C297 C300 1.463 . S
C297 C302 1.350 . S
C297 N305 1.427 . S
C298 H289 0.930 . S
C298 C296 1.378 . S
C298 C299 1.367 . S
C299 C298 1.367 . S
C299 C301 1.433 . S
C300 C296 1.350 . S
C300 C297 1.463 . S
C300 N304 1.427 . S
C301 H291 0.929 . S
C301 C299 1.433 . S
C301 N304 1.384 . S
C302 H293 0.929 . S
C302 C294 1.378 . S
C302 C297 1.350 . S
C303 H290 0.929 . S
C303 C295 1.433 . S
C303 N305 1.384 . S
N304 C300 1.427 . S
N304 C301 1.384 . S
N305 C297 1.427 . S
N305 C303 1.384 . S
H306 C312 0.930 . S
H307 C316 0.930 . S
H308 C321 0.929 . S
H309 C319 0.929 . S
H310 C314 0.929 . S
H311 C320 0.929 . S
C312 H306 0.930 . S
C312 C313 1.367 . S
C312 C320 1.378 . S
C313 C312 1.367 . S
C313 C321 1.433 . S
C314 H310 0.929 . S
C314 C316 1.378 . S
C314 C318 1.350 . S
C315 C318 1.463 . S
C315 C320 1.350 . S
C315 N323 1.427 . S
C316 H307 0.930 . S
C316 C314 1.378 . S
C316 C317 1.367 . S
C317 C316 1.367 . S
C317 C319 1.433 . S
C318 C314 1.350 . S
C318 C315 1.463 . S
C318 N322 1.427 . S
C319 H309 0.929 . S
C319 C317 1.433 . S
C319 N322 1.384 . S
C320 H311 0.929 . S
C320 C312 1.378 . S
C320 C315 1.350 . S
C321 H308 0.929 . S
C321 C313 1.433 . S
C321 N323 1.384 . S
N322 C318 1.427 . S
N322 C319 1.384 . S
N323 C315 1.427 . S
N323 C321 1.384 . S
C119 C102 1.451 . S
C115 C27 1.485 . S
C133 N6 1.356 . S
C137 C88 1.365 . S
C151 C16 1.424 . S
C155 C100 1.388 . S
C169 N14 1.439 1_556 S
C173 C90 1.435 . S
C187 C57 1.485 . S
C191 C78 1.462 . S
C205 N36 1.342 . S
C209 C64 1.375 . S
C227 C76 1.380 . S
C223 C46 1.427 . S
C245 C66 1.435 . S
C241 N44 1.433 . S
C259 C10 1.477 . S
C263 C69 1.473 . S
C277 C1 1.546 . S
C281 C81 1.540 1_545 S
C299 C93 1.474 . S
C295 C40 1.477 . S
C313 C31 1.546 . S
C317 C105 1.540 . S
