# Generated by pormake.
# Topology anh, (6,3)-cn, num edge types: 1
# Building blocks:
#     Node 0, Type 0, BuildingBlock: HISSIN_clean_sbu_0, # of connection points: 6
#     Node 1, Type 0, BuildingBlock: HISSIN_clean_sbu_0, # of connection points: 6
#     Node 2, Type 0, BuildingBlock: HISSIN_clean_sbu_0, # of connection points: 6
#     Node 3, Type 1, BuildingBlock: BETDIP_clean_linker_0, # of connection points: 3
#     Node 4, Type 1, BuildingBlock: BETDIP_clean_linker_0, # of connection points: 3
#     Node 5, Type 1, BuildingBlock: BETDIP_clean_linker_0, # of connection points: 3
#     Node 6, Type 1, BuildingBlock: BETDIP_clean_linker_0, # of connection points: 3
#     Node 7, Type 1, BuildingBlock: BETDIP_clean_linker_0, # of connection points: 3
#     Node 8, Type 1, BuildingBlock: BETDIP_clean_linker_0, # of connection points: 3
#     Edge 9, Type (0, 1), BuildingBlock: OJICUG_clean_linker_0, # of connection points: 2
#     Edge 10, Type (0, 1), BuildingBlock: OJICUG_clean_linker_0, # of connection points: 2
#     Edge 11, Type (0, 1), BuildingBlock: OJICUG_clean_linker_0, # of connection points: 2
#     Edge 12, Type (0, 1), BuildingBlock: OJICUG_clean_linker_0, # of connection points: 2
#     Edge 13, Type (0, 1), BuildingBlock: OJICUG_clean_linker_0, # of connection points: 2
#     Edge 14, Type (0, 1), BuildingBlock: OJICUG_clean_linker_0, # of connection points: 2
#     Edge 15, Type (0, 1), BuildingBlock: OJICUG_clean_linker_0, # of connection points: 2
#     Edge 16, Type (0, 1), BuildingBlock: OJICUG_clean_linker_0, # of connection points: 2
#     Edge 17, Type (0, 1), BuildingBlock: OJICUG_clean_linker_0, # of connection points: 2
#     Edge 18, Type (0, 1), BuildingBlock: OJICUG_clean_linker_0, # of connection points: 2
#     Edge 19, Type (0, 1), BuildingBlock: OJICUG_clean_linker_0, # of connection points: 2
#     Edge 20, Type (0, 1), BuildingBlock: OJICUG_clean_linker_0, # of connection points: 2
#     Edge 21, Type (0, 1), BuildingBlock: OJICUG_clean_linker_0, # of connection points: 2
#     Edge 22, Type (0, 1), BuildingBlock: OJICUG_clean_linker_0, # of connection points: 2
#     Edge 23, Type (0, 1), BuildingBlock: OJICUG_clean_linker_0, # of connection points: 2
#     Edge 24, Type (0, 1), BuildingBlock: OJICUG_clean_linker_0, # of connection points: 2
#     Edge 25, Type (0, 1), BuildingBlock: OJICUG_clean_linker_0, # of connection points: 2
#     Edge 26, Type (0, 1), BuildingBlock: OJICUG_clean_linker_0, # of connection points: 2
# Relax obj value: 0.376
# Max RMSD: 0.198
# Mean RMSD: 0.133
data_MOF--net-anh--node1-HISSIN_clean_sbu_0--node2-BETDIP_clean_linker_0--edge1-OJICUG_clean_linker_0
_symmetry_space_group_name_H-M    P1
_symmetry_Int_Tables_number       1
_symmetry_cell_setting            triclinic
loop_
_symmetry_equiv_pos_as_xyz
'x, y, z'
_cell_length_a     21.632709
_cell_length_b     21.444673
_cell_length_c     37.027491
_cell_angle_alpha  94.784876
_cell_angle_beta   87.970302
_cell_angle_gamma 120.11245
loop_
_atom_site_label
_atom_site_type_symbol
_atom_site_fract_x
_atom_site_fract_y
_atom_site_fract_z
_atom_type_partial_charge
Eu0 Eu 1.17993 0.52314 0.13238 0.0
Eu1 Eu 0.24642 0.69282 0.15074 0.0
C2 C 1.19176 0.59002 0.21407 0.0
C3 C 1.02364 0.34964 0.12535 0.0
C4 C 0.9825 0.35919 0.10008 0.0
C5 C 0.93913 0.3423 0.17208 0.0
C6 C 0.9262 0.36978 0.11183 0.0
C7 C 0.99624 0.33284 0.16041 0.0
C8 C 0.90868 0.36847 0.1488 0.0
C9 C 1.10207 0.38483 0.12004 0.0
O10 O 0.34147 0.67891 0.13302 0.0
O11 O 0.29587 0.56057 0.14542 0.0
C12 C 0.35071 0.6237 0.13799 0.0
O13 O 0.24244 0.57452 0.0825 0.0
O14 O 0.32467 0.79683 0.17664 0.0
O15 O 0.23804 0.78857 0.14491 0.0
O16 O 0.2263 0.67172 0.09095 0.0
C17 C 0.24272 0.63012 0.07007 0.0
O18 O 1.0978 0.5526 0.11658 0.0
O19 O 1.12678 0.64495 0.15938 0.0
O20 O 0.24615 0.64904 0.20341 0.0
O21 O 1.12683 0.42838 0.09392 0.0
O22 O 1.14095 0.41431 0.1495 0.0
O23 O 1.14783 0.53972 0.19018 0.0
C24 C 0.34684 0.89798 0.14595 0.0
C25 C 0.40622 0.90474 0.12621 0.0
C26 C 0.38996 1.02519 0.14279 0.0
C27 C 0.45944 0.97276 0.11652 0.0
C28 C 0.33712 0.95752 0.15238 0.0
C29 C 0.45385 1.03445 0.12678 0.0
C30 C 0.29723 0.83143 0.1626 0.0
C31 C 1.08051 0.59589 0.13579 0.0
H32 H 1.00019 0.36949 0.07236 0.0
H33 H 0.9237 0.33584 0.20026 0.0
H34 H 0.90252 0.38699 0.09252 0.0
H35 H 1.02485 0.32237 0.18028 0.0
H36 H 0.41347 0.85848 0.12026 0.0
H37 H 0.38338 1.07098 0.15146 0.0
H38 H 0.50732 0.97785 0.10362 0.0
H39 H 0.29086 0.95269 0.16708 0.0
Eu40 Eu 0.63597 1.06707 0.45937 0.0
Eu41 Eu 0.551 0.15438 0.48244 0.0
C42 C 0.61876 1.10635 0.54392 0.0
C43 C 0.75791 0.98303 0.4531 0.0
C44 C 0.74521 0.93648 0.48049 0.0
C45 C 0.87926 1.00411 0.44749 0.0
C46 C 0.79894 0.92383 0.4912 0.0
C47 C 0.82544 1.01663 0.43671 0.0
C48 C 0.86651 0.95733 0.47476 0.0
C49 C 0.70049 0.99408 0.44017 0.0
O50 O 0.66492 0.23968 0.46836 0.0
O51 O 0.72074 0.17764 0.48172 0.0
C52 C 0.72383 0.23842 0.47494 0.0
O53 O 0.64611 1.12898 0.41102 0.0
O54 O 0.53585 0.23219 0.5178 0.0
O55 O 0.46663 0.17807 0.47125 0.0
O56 O 0.54984 0.14437 0.42174 0.0
C57 C 0.60153 0.14876 0.40072 0.0
O58 O 0.5203 0.99593 0.44242 0.0
O59 O 0.46875 1.03538 0.4863 0.0
O60 O 0.5994 0.15178 0.53456 0.0
O61 O 0.64097 0.96784 0.45839 0.0
O62 O 0.71977 1.05759 0.42935 0.0
O63 O 0.62461 1.06043 0.52024 0.0
C64 C 0.51314 0.30355 0.4826 0.0
C65 C 0.55098 0.32237 0.44995 0.0
C66 C 0.55373 0.43 0.49878 0.0
C67 C 0.59243 0.39472 0.44249 0.0
C68 C 0.5117 0.35744 0.50602 0.0
C69 C 0.59804 0.44959 0.46802 0.0
C70 C 0.4904 0.23244 0.49572 0.0
C71 C 0.4646 0.98447 0.46236 0.0
H72 H 0.69352 0.90895 0.49335 0.0
H73 H 0.93086 1.03109 0.43449 0.0
H74 H 0.78689 0.88634 0.51178 0.0
H75 H 0.83652 1.05221 0.41527 0.0
H76 H 0.55377 0.28179 0.43173 0.0
H77 H 0.55703 0.47061 0.51931 0.0
H78 H 0.62511 0.40783 0.41838 0.0
H79 H 0.48347 0.34409 0.5315 0.0
Eu80 Eu 0.64501 0.57725 0.7991 0.0
Eu81 Eu 0.81733 0.66658 0.81234 0.0
C82 C 0.71169 0.62863 0.87984 0.0
C83 C 0.47303 0.5485 0.82293 0.0
C84 C 0.48881 0.55195 0.85984 0.0
C85 C 0.45904 0.6536 0.83554 0.0
C86 C 0.49916 0.61111 0.88299 0.0
C87 C 0.45071 0.5953 0.81203 0.0
C88 C 0.49065 0.66614 0.87002 0.0
C89 C 0.50811 0.52164 0.79606 0.0
O90 O 0.78607 0.54757 0.814 0.0
O91 O 0.67652 0.49319 0.78517 0.0
C92 C 0.7306 0.4899 0.7981 0.0
O93 O 0.69723 0.61628 0.74504 0.0
O94 O 0.91367 0.69647 0.84288 0.0
O95 O 0.92041 0.75303 0.79542 0.0
O96 O 0.80154 0.61838 0.75548 0.0
C97 C 0.75709 0.62021 0.73322 0.0
O98 O 0.67321 0.69121 0.81744 0.0
O99 O 0.78579 0.74629 0.7949 0.0
O100 O 0.77093 0.67829 0.86601 0.0
O101 O 0.5512 0.56992 0.77433 0.0
O102 O 0.53759 0.48756 0.80878 0.0
O103 O 0.66164 0.57622 0.85903 0.0
C104 C 1.02457 0.75101 0.81124 0.0
C105 C 1.07635 0.8128 0.79495 0.0
C106 C 1.11432 0.71799 0.82089 0.0
C107 C 1.14736 0.82888 0.79318 0.0
C108 C 1.04332 0.70183 0.82253 0.0
C109 C 1.16776 0.78366 0.80803 0.0
C110 C 0.95541 0.74513 0.82091 0.0
C111 C 0.72768 0.74802 0.80463 0.0
H112 H 0.5038 0.51517 0.86966 0.0
H113 H 0.44727 0.6924 0.82533 0.0
H114 H 0.52152 0.61701 0.90955 0.0
H115 H 0.43652 0.59298 0.78398 0.0
H116 H 1.06287 0.85129 0.78584 0.0
H117 H 1.12799 0.68205 0.83286 0.0
H118 H 1.18709 0.8793 0.78267 0.0
H119 H 1.00432 0.65344 0.83494 0.0
H120 H 0.65113 0.37596 0.1808 0.0
H121 H 0.69287 0.40847 0.29541 0.0
H122 H 0.62014 0.19889 0.24011 0.0
H123 H 0.77344 0.56885 0.20306 0.0
C124 C 0.75978 0.51416 0.2078 0.0
C125 C 0.65474 0.35522 0.2058 0.0
C126 C 0.63673 0.28293 0.20605 0.0
C127 C 0.67928 0.40173 0.23748 0.0
C128 C 0.67675 0.37336 0.27063 0.0
C129 C 0.65559 0.29991 0.2714 0.0
C130 C 0.63777 0.25581 0.23907 0.0
N131 N 0.71026 0.4775 0.23552 0.0
H132 H 0.92724 0.74091 0.49015 0.0
H133 H 0.97417 0.76952 0.60432 0.0
H134 H 0.75693 0.64226 0.56617 0.0
H135 H 1.10937 0.87675 0.50121 0.0
C136 C 1.05885 0.86199 0.51452 0.0
C137 C 0.90914 0.7326 0.51792 0.0
C138 C 0.83602 0.69052 0.525 0.0
C139 C 0.95898 0.76272 0.54672 0.0
C140 C 0.93545 0.74727 0.58234 0.0
C141 C 0.86214 0.70499 0.58965 0.0
C142 C 0.81314 0.67795 0.56087 0.0
N143 N 1.03299 0.80864 0.54019 0.0
H144 H 0.49151 0.95495 0.88793 0.0
H145 H 0.48023 0.86943 -0.00955 0.0
H146 H 0.31083 0.75046 0.91233 0.0
H147 H 0.67463 0.99017 0.9492 0.0
C148 C 0.6191 0.9505 0.94335 0.0
C149 C 0.46289 0.91325 0.90653 0.0
C150 C 0.39752 0.85187 0.89607 0.0
C151 C 0.49328 0.91875 0.94032 0.0
C152 C 0.45652 0.86451 0.96431 0.0
C153 C 0.39079 0.8034 0.95422 0.0
C154 C 0.36219 0.79721 0.91997 0.0
N155 N 0.56596 0.97111 0.94736 0.0
H156 H 1.14089 0.68421 0.46959 0.0
H157 H 1.05186 0.53178 0.37628 0.0
H158 H 0.25153 0.72916 0.36782 0.0
H159 H 1.04167 0.46176 0.43357 0.0
C160 C 1.00479 0.47938 0.44396 0.0
C161 C 1.14372 0.66941 0.44114 0.0
C162 C 1.20458 0.71412 0.42078 0.0
C163 C 1.08851 0.60292 0.42515 0.0
C164 C 1.09371 0.58287 0.38842 0.0
C165 C 1.1526 0.62769 0.3675 0.0
C166 C 1.20668 0.69334 0.38392 0.0
N167 N 1.02889 0.55501 0.44604 0.0
H168 H 0.74923 0.18324 0.79885 0.0
H169 H 0.70595 1.04856 0.69929 0.0
H170 H 0.691 0.24175 0.70288 0.0
H171 H 0.63793 0.9631 0.7486 0.0
C172 C 0.68782 0.98129 0.76295 0.0
C173 C 0.73554 0.17279 0.77027 0.0
C174 C 0.72218 0.22081 0.75269 0.0
C175 C 0.72677 1.10879 0.75136 0.0
C176 C 0.70927 1.09587 0.71408 0.0
C177 C 0.69806 0.14445 0.69582 0.0
C178 C 0.70292 0.20549 0.71586 0.0
N179 N 0.73481 1.05727 0.76986 0.0
H180 H 0.6624 0.62343 0.14124 0.0
H181 H 0.77584 0.62792 0.04242 0.0
H182 H 0.58373 0.63873 0.03865 0.0
H183 H 0.78571 0.54184 0.07354 0.0
C184 C 0.81144 0.57847 0.09732 0.0
C185 C 0.66741 0.62631 0.11214 0.0
C186 C 0.61597 0.6325 0.0922 0.0
C187 C 0.72529 0.62361 0.09425 0.0
C188 C 0.73131 0.62845 0.05646 0.0
C189 C 0.6803 0.6331 0.03629 0.0
C190 C 0.62307 0.63504 0.0543 0.0
N191 N 0.77747 0.6164 0.11379 0.0
C192 C 0.4373 0.57613 0.13956 0.0
C193 C 0.42254 0.63023 0.13078 0.0
H194 H 0.51047 0.53519 0.13522 0.0
C195 C 0.47574 0.68855 0.1126 0.0
H196 H 0.39791 0.53039 0.15358 0.0
C197 C 0.53978 0.69083 0.10189 0.0
C198 C 0.5535 0.63558 0.10949 0.0
H199 H 0.46677 0.73121 0.10519 0.0
H200 H 0.57796 0.73502 0.08655 0.0
C201 C 0.50213 0.57906 0.12929 0.0
C202 C 0.80455 0.3722 0.46508 0.0
C203 C 0.79588 0.30397 0.47087 0.0
H204 H 0.87752 0.48233 0.45272 0.0
C205 C 0.85729 0.2971 0.47033 0.0
H206 H 0.75857 0.37963 0.46522 0.0
C207 C 0.92448 0.35515 0.46274 0.0
C208 C 0.93319 0.4226 0.45608 0.0
H209 H 0.8534 0.24587 0.47453 0.0
H210 H 0.96991 0.3467 0.46137 0.0
C211 C 0.87271 0.43118 0.45803 0.0
C212 C 0.65085 0.79858 0.7889 0.0
C213 C 0.71915 0.81045 0.79682 0.0
H214 H 0.58836 0.84299 0.77184 0.0
C215 C 0.77808 0.88084 0.79504 0.0
H216 H 0.60435 0.74506 0.78956 0.0
C217 C 0.76855 0.93786 0.78553 0.0
C218 C 0.70015 0.92496 0.77672 0.0
H219 H 0.83146 0.89168 0.8008 0.0
H220 H 0.8148 0.99123 0.78394 0.0
C221 C 0.64167 0.85476 0.77863 0.0
C222 C 0.97051 0.54943 0.09744 0.0
C223 C 1.01106 0.59236 0.1279 0.0
H224 H 0.87753 0.51214 0.06459 0.0
C225 C 0.98511 0.63217 0.14914 0.0
H226 H 0.98844 0.51854 0.08006 0.0
C227 C 0.92035 0.62875 0.13994 0.0
C228 C 0.88042 0.5855 0.10927 0.0
H229 H 1.01479 0.66595 0.17281 0.0
H230 H 0.90165 0.65964 0.15675 0.0
C231 C 0.90668 0.5461 0.08837 0.0
C232 C 0.3291 0.90301 0.4668 0.0
C233 C 0.39679 0.91342 0.45619 0.0
H234 H 0.21458 0.83172 0.46416 0.0
C235 C 0.39977 0.85504 0.43767 0.0
H236 H 0.32471 0.94663 0.48126 0.0
C237 C 0.33749 0.78976 0.42842 0.0
C238 C 0.2695 0.78027 0.43693 0.0
H239 H 0.45059 0.86003 0.42959 0.0
H240 H 0.34257 0.74694 0.41345 0.0
C241 C 0.26598 0.83705 0.45719 0.0
C242 C 0.66381 0.35616 0.78207 0.0
C243 C 0.72861 0.41896 0.79247 0.0
H244 H 0.61121 0.24462 0.76233 0.0
C245 C 0.79038 0.41298 0.79462 0.0
H246 H 0.6148 0.3579 0.78051 0.0
C247 C 0.7879 0.34685 0.78431 0.0
C248 C 0.72361 0.28562 0.77185 0.0
H249 H 0.84116 0.46006 0.80254 0.0
H250 H 0.83687 0.3447 0.78409 0.0
C251 C 0.66143 0.29075 0.77189 0.0
C252 C 0.93138 0.93429 0.5219 0.0
C253 C 0.92231 0.9413 0.48536 0.0
H254 H 0.9833 0.90546 0.55988 0.0
C255 C 0.96443 0.92929 0.45895 0.0
H256 H 0.90116 0.94496 0.54298 0.0
C257 C 1.01186 0.90709 0.46875 0.0
C258 C 1.01715 0.89576 0.50494 0.0
H259 H 0.95853 0.93397 0.43054 0.0
H260 H 1.0416 0.8952 0.44785 0.0
C261 C 0.97848 0.91191 0.53159 0.0
C262 C 0.26979 0.76312 0.8185 0.0
C263 C 0.24348 0.81108 0.81784 0.0
H264 H 0.3425 0.73979 0.84395 0.0
C265 C 0.28358 0.88119 0.83491 0.0
H266 H 0.24109 0.70944 0.80487 0.0
C267 C 0.34189 0.89867 0.85697 0.0
C268 C 0.36053 0.84625 0.86224 0.0
H269 H 0.26508 0.91968 0.83496 0.0
H270 H 0.36639 0.94975 0.87326 0.0
C271 C 0.32795 0.78057 0.84068 0.0
C272 C 0.58035 1.11458 0.14599 0.0
C273 C 0.51845 1.10735 0.13045 0.0
H274 H 0.66863 0.17862 0.18209 0.0
C275 C 0.51172 0.16921 0.12995 0.0
H276 H 0.58862 1.06886 0.14632 0.0
C277 C 0.55641 0.23148 0.1517 0.0
C278 C 0.60952 0.23293 0.17307 0.0
H279 H 0.46615 0.16618 0.1169 0.0
H280 H 0.54367 0.27444 0.15498 0.0
C281 C 0.6258 0.17728 0.1671 0.0
C282 C 0.65578 0.58346 0.48297 0.0
C283 C 0.66071 0.52383 0.46778 0.0
H284 H 0.7106 0.68684 0.51276 0.0
C285 C 0.72903 0.53246 0.46107 0.0
H286 H 0.60412 0.57921 0.48759 0.0
C287 C 0.78992 0.59446 0.47502 0.0
C288 C 0.7831 0.64821 0.49591 0.0
H289 H 0.73523 0.48797 0.44932 0.0
H290 H 0.84056 0.5955 0.47374 0.0
C291 C 0.71674 0.64533 0.49707 0.0
C292 C 0.55527 0.80153 0.86965 0.0
C293 C 0.52528 0.73963 0.88949 0.0
H294 H 0.61143 0.91719 0.87132 0.0
C295 C 0.53496 0.74929 0.92741 0.0
H296 H 0.55022 0.79711 0.84053 0.0
C297 C 0.57255 0.81868 0.94483 0.0
C298 C 0.60015 0.87962 0.9248 0.0
H299 H 0.51204 0.70356 0.94389 0.0
H300 H 0.57616 0.82485 0.97415 0.0
C301 C 0.59219 0.87064 0.88711 0.0
C302 C 0.8879 0.44372 0.19811 0.0
C303 C 0.86902 0.40501 0.16379 0.0
H304 H 0.86799 0.50884 0.23866 0.0
C305 C 0.8173 0.40783 0.14301 0.0
H306 H 0.92923 0.44553 0.21454 0.0
C307 C 0.78561 0.4481 0.15621 0.0
C308 C 0.80301 0.4841 0.19087 0.0
H309 H 0.80078 0.37871 0.11664 0.0
H310 H 0.7451 0.44846 0.13999 0.0
C311 C 0.85439 0.4818 0.21168 0.0
C312 C 0.3441 0.67303 0.02718 0.0
C313 C 0.27373 0.65642 0.03496 0.0
H314 H 0.43746 0.73438 -0.0045 0.0
C315 C 0.24015 0.68206 0.01371 0.0
H316 H 0.37143 0.65514 0.04392 0.0
C317 C 0.27748 0.72696 -0.01375 0.0
C318 C 0.34953 0.74808 0.98003 0.0
H319 H 1.18632 0.6709 0.01982 0.0
H320 H 0.25125 0.74876 0.97141 0.0
C321 C 0.38208 0.71922 1e-05 0.0
C322 C 0.57449 0.21788 0.35889 0.0
C323 C 0.61465 0.18546 0.36681 0.0
H324 H 0.55838 0.28221 0.32314 0.0
C325 C 0.6707 0.19369 0.34359 0.0
H326 H 0.53045 0.21211 0.37588 0.0
C327 C 0.68577 0.23308 0.31303 0.0
C328 C 0.64622 0.26627 0.30574 0.0
H329 H 0.70283 0.16969 0.34894 0.0
H330 H 0.72795 0.23732 0.29492 0.0
C331 C 0.59072 0.25862 0.32891 0.0
C332 C 0.84334 0.63829 0.68304 0.0
C333 C 0.78072 0.6373 0.69563 0.0
H334 H 0.91826 0.66076 0.63984 0.0
C335 C 0.74553 0.6596 0.67328 0.0
H336 H 0.87189 0.62155 0.69962 0.0
C337 C 0.77292 0.68318 0.63921 0.0
C338 C 0.83582 0.68459 0.62674 0.0
H339 H 0.69781 0.66047 0.68239 0.0
H340 H 0.74514 0.70091 0.6227 0.0
C341 C 0.87059 0.6617 0.64898 0.0
C342 C 0.62145 1.05322 0.60176 0.0
C343 C 0.64167 1.11353 0.58193 0.0
H344 H 0.62089 1.01511 0.6536 0.0
C345 C 0.68371 0.18295 0.59891 0.0
H346 H 0.58908 0.99907 0.58917 0.0
C347 C 0.70414 0.19234 0.63515 0.0
C348 C 0.68103 1.13257 0.65603 0.0
H349 H 0.70136 0.23039 0.58399 0.0
H350 H 0.73798 0.24699 0.64676 0.0
C351 C 0.64019 1.06262 0.63863 0.0
C352 C 0.75975 0.68038 0.94265 0.0
C353 C 0.70221 0.63148 0.91982 0.0
H354 H 0.79782 0.71924 -0.00284 0.0
C355 C 0.63642 0.58496 0.93568 0.0
H356 H 0.81123 0.71709 0.93147 0.0
C357 C 0.62859 0.58697 0.97344 0.0
C358 C 0.68673 0.63463 -0.00383 0.0
H359 H 0.59106 0.5465 0.919 0.0
H360 H 0.57761 0.54976 -0.01509 0.0
C361 C 0.75222 0.68158 0.98033 0.0
C362 C 1.10933 0.56251 0.26746 0.0
C363 C 1.17804 0.58573 0.25341 0.0
H364 H 1.04719 0.55899 0.3146 0.0
C365 C 0.23634 0.61496 0.27741 0.0
H366 H 1.06357 0.54037 0.24941 0.0
C367 C 0.22704 0.62439 0.31452 0.0
C368 C 1.15938 0.60672 0.32863 0.0
H369 H 0.2898 0.63269 0.26728 0.0
H370 H 0.27361 0.64776 0.33205 0.0
C371 C 1.10009 0.57334 0.30478 0.0
loop_
_geom_bond_atom_site_label_1
_geom_bond_atom_site_label_2
_geom_bond_distance
_geom_bond_site_symmetry_2
_ccdc_geom_bond_type
Eu0 C9 2.828 . S
Eu0 O11 2.392 1_655 S
Eu0 O13 2.418 . S
Eu0 O18 2.373 . S
Eu0 O21 2.488 . S
Eu0 O22 2.471 . S
Eu0 O23 2.349 1_655 S
Eu1 O10 2.373 . S
Eu1 O14 2.488 . S
Eu1 O15 2.471 . S
Eu1 O16 2.349 . S
Eu1 O19 2.392 1_455 S
Eu1 O20 2.418 . S
Eu1 C30 2.828 . S
C2 O20 1.244 . S
C2 O23 1.265 . S
C3 C4 1.379 . S
C3 C7 1.373 . S
C3 C9 1.505 . S
C4 C3 1.379 . S
C4 C6 1.369 . S
C4 H32 0.930 . S
C5 C7 1.383 . S
C5 C8 1.382 . S
C5 H33 0.930 . S
C6 C4 1.369 . S
C6 C8 1.392 . S
C6 H34 0.930 . S
C7 C3 1.373 . S
C7 C5 1.383 . S
C7 H35 0.931 . S
C8 C5 1.382 . S
C8 C6 1.392 . S
C9 Eu0 2.828 . S
C9 C3 1.505 . S
C9 O21 1.249 . S
C9 O22 1.244 . S
O10 Eu1 2.373 . S
O10 C12 1.258 . S
O11 Eu0 2.392 1_455 S
O11 C12 1.242 . S
C12 O10 1.258 . S
C12 O11 1.242 . S
O13 Eu0 2.418 . S
O13 C17 1.244 1_655 S
O14 Eu1 2.488 . S
O14 C30 1.249 . S
O15 Eu1 2.471 . S
O15 C30 1.244 . S
O16 Eu1 2.349 . S
O16 C17 1.265 . S
C17 O13 1.244 1_455 S
C17 O16 1.265 . S
O18 Eu0 2.373 . S
O18 C31 1.258 . S
O19 Eu1 2.392 1_655 S
O19 C31 1.242 . S
O20 Eu1 2.418 . S
O20 C2 1.244 . S
O21 Eu0 2.488 . S
O21 C9 1.249 . S
O22 Eu0 2.471 . S
O22 C9 1.244 . S
O23 Eu0 2.349 1_455 S
O23 C2 1.265 . S
C24 C25 1.379 . S
C24 C28 1.373 . S
C24 C30 1.505 . S
C25 C24 1.379 . S
C25 C27 1.369 . S
C25 H36 0.930 . S
C26 C28 1.383 . S
C26 C29 1.382 . S
C26 H37 0.930 . S
C27 C25 1.369 . S
C27 C29 1.392 . S
C27 H38 0.930 . S
C28 C24 1.373 . S
C28 C26 1.383 . S
C28 H39 0.931 . S
C29 C26 1.382 . S
C29 C27 1.392 . S
C30 Eu1 2.828 . S
C30 O14 1.249 . S
C30 O15 1.244 . S
C30 C24 1.505 . S
C31 O18 1.258 . S
C31 O19 1.242 . S
H32 C4 0.930 . S
H33 C5 0.930 . S
H34 C6 0.930 . S
H35 C7 0.931 . S
H36 C25 0.930 . S
H37 C26 0.930 . S
H38 C27 0.930 . S
H39 C28 0.931 . S
Eu40 C49 2.828 . S
Eu40 O51 2.392 1_565 S
Eu40 O53 2.418 . S
Eu40 O58 2.373 . S
Eu40 O61 2.488 . S
Eu40 O62 2.471 . S
Eu40 O63 2.349 1_565 S
Eu41 O50 2.373 . S
Eu41 O54 2.488 . S
Eu41 O55 2.471 . S
Eu41 O56 2.349 . S
Eu41 O59 2.392 1_545 S
Eu41 O60 2.418 . S
Eu41 C70 2.828 . S
C42 O60 1.244 . S
C42 O63 1.265 . S
C43 C44 1.379 . S
C43 C47 1.373 . S
C43 C49 1.505 . S
C44 C43 1.379 . S
C44 C46 1.369 . S
C44 H72 0.930 . S
C45 C47 1.383 . S
C45 C48 1.382 . S
C45 H73 0.930 . S
C46 C44 1.369 . S
C46 C48 1.392 . S
C46 H74 0.930 . S
C47 C43 1.373 . S
C47 C45 1.383 . S
C47 H75 0.931 . S
C48 C45 1.382 . S
C48 C46 1.392 . S
C49 Eu40 2.828 . S
C49 C43 1.505 . S
C49 O61 1.249 . S
C49 O62 1.244 . S
O50 Eu41 2.373 . S
O50 C52 1.258 . S
O51 Eu40 2.392 1_545 S
O51 C52 1.242 . S
C52 O50 1.258 . S
C52 O51 1.242 . S
O53 Eu40 2.418 . S
O53 C57 1.244 1_565 S
O54 Eu41 2.488 . S
O54 C70 1.249 . S
O55 Eu41 2.471 . S
O55 C70 1.244 . S
O56 Eu41 2.349 . S
O56 C57 1.265 . S
C57 O53 1.244 1_545 S
C57 O56 1.265 . S
O58 Eu40 2.373 . S
O58 C71 1.258 . S
O59 Eu41 2.392 1_565 S
O59 C71 1.242 . S
O60 Eu41 2.418 . S
O60 C42 1.244 . S
O61 Eu40 2.488 . S
O61 C49 1.249 . S
O62 Eu40 2.471 . S
O62 C49 1.244 . S
O63 Eu40 2.349 1_545 S
O63 C42 1.265 . S
C64 C65 1.379 . S
C64 C68 1.373 . S
C64 C70 1.505 . S
C65 C64 1.379 . S
C65 C67 1.369 . S
C65 H76 0.930 . S
C66 C68 1.383 . S
C66 C69 1.382 . S
C66 H77 0.930 . S
C67 C65 1.369 . S
C67 C69 1.392 . S
C67 H78 0.930 . S
C68 C64 1.373 . S
C68 C66 1.383 . S
C68 H79 0.931 . S
C69 C66 1.382 . S
C69 C67 1.392 . S
C70 Eu41 2.828 . S
C70 O54 1.249 . S
C70 O55 1.244 . S
C70 C64 1.505 . S
C71 O58 1.258 . S
C71 O59 1.242 . S
H72 C44 0.930 . S
H73 C45 0.930 . S
H74 C46 0.930 . S
H75 C47 0.931 . S
H76 C65 0.930 . S
H77 C66 0.930 . S
H78 C67 0.930 . S
H79 C68 0.931 . S
Eu80 C89 2.828 . S
Eu80 O91 2.392 . S
Eu80 O93 2.418 . S
Eu80 O98 2.373 . S
Eu80 O101 2.488 . S
Eu80 O102 2.471 . S
Eu80 O103 2.349 . S
Eu81 O90 2.373 . S
Eu81 O94 2.488 . S
Eu81 O95 2.471 . S
Eu81 O96 2.349 . S
Eu81 O99 2.392 . S
Eu81 O100 2.418 . S
Eu81 C110 2.828 . S
C82 O100 1.244 . S
C82 O103 1.265 . S
C83 C84 1.379 . S
C83 C87 1.373 . S
C83 C89 1.505 . S
C84 C83 1.379 . S
C84 C86 1.369 . S
C84 H112 0.930 . S
C85 C87 1.383 . S
C85 C88 1.382 . S
C85 H113 0.930 . S
C86 C84 1.369 . S
C86 C88 1.392 . S
C86 H114 0.930 . S
C87 C83 1.373 . S
C87 C85 1.383 . S
C87 H115 0.931 . S
C88 C85 1.382 . S
C88 C86 1.392 . S
C89 Eu80 2.828 . S
C89 C83 1.505 . S
C89 O101 1.249 . S
C89 O102 1.244 . S
O90 Eu81 2.373 . S
O90 C92 1.258 . S
O91 Eu80 2.392 . S
O91 C92 1.242 . S
C92 O90 1.258 . S
C92 O91 1.242 . S
O93 Eu80 2.418 . S
O93 C97 1.244 . S
O94 Eu81 2.488 . S
O94 C110 1.249 . S
O95 Eu81 2.471 . S
O95 C110 1.244 . S
O96 Eu81 2.349 . S
O96 C97 1.265 . S
C97 O93 1.244 . S
C97 O96 1.265 . S
O98 Eu80 2.373 . S
O98 C111 1.258 . S
O99 Eu81 2.392 . S
O99 C111 1.242 . S
O100 Eu81 2.418 . S
O100 C82 1.244 . S
O101 Eu80 2.488 . S
O101 C89 1.249 . S
O102 Eu80 2.471 . S
O102 C89 1.244 . S
O103 Eu80 2.349 . S
O103 C82 1.265 . S
C104 C105 1.379 . S
C104 C108 1.373 . S
C104 C110 1.505 . S
C105 C104 1.379 . S
C105 C107 1.369 . S
C105 H116 0.930 . S
C106 C108 1.383 . S
C106 C109 1.382 . S
C106 H117 0.930 . S
C107 C105 1.369 . S
C107 C109 1.392 . S
C107 H118 0.930 . S
C108 C104 1.373 . S
C108 C106 1.383 . S
C108 H119 0.931 . S
C109 C106 1.382 . S
C109 C107 1.392 . S
C110 Eu81 2.828 . S
C110 O94 1.249 . S
C110 O95 1.244 . S
C110 C104 1.505 . S
C111 O98 1.258 . S
C111 O99 1.242 . S
H112 C84 0.930 . S
H113 C85 0.930 . S
H114 C86 0.930 . S
H115 C87 0.931 . S
H116 C105 0.930 . S
H117 C106 0.930 . S
H118 C107 0.930 . S
H119 C108 0.931 . S
H120 C125 0.930 . S
H121 C128 0.930 . S
H122 C130 0.930 . S
H123 C124 1.016 . S
C124 H123 1.016 . S
C124 N131 1.286 . S
C125 H120 0.930 . S
C125 C126 1.397 1_545 S
C125 C127 1.361 . S
C126 C125 1.397 1_565 S
C126 C130 1.390 . S
C127 C125 1.361 . S
C127 C128 1.393 . S
C127 N131 1.413 . S
C128 H121 0.930 . S
C128 C127 1.393 . S
C128 C129 1.399 . S
C129 C128 1.399 . S
C129 C130 1.381 1_545 S
C130 H122 0.930 . S
C130 C126 1.390 . S
C130 C129 1.381 1_565 S
N131 C124 1.286 . S
N131 C127 1.413 . S
H132 C137 0.930 . S
H133 C140 0.930 . S
H134 C142 0.930 . S
H135 C136 1.016 . S
C136 H135 1.016 . S
C136 N143 1.286 . S
C137 H132 0.930 . S
C137 C138 1.397 . S
C137 C139 1.361 . S
C138 C137 1.397 . S
C138 C142 1.390 . S
C139 C137 1.361 . S
C139 C140 1.393 . S
C139 N143 1.413 . S
C140 H133 0.930 . S
C140 C139 1.393 . S
C140 C141 1.399 . S
C141 C140 1.399 . S
C141 C142 1.381 . S
C142 H134 0.930 . S
C142 C138 1.390 . S
C142 C141 1.381 . S
N143 C136 1.286 . S
N143 C139 1.413 . S
H144 C149 0.929 1_655 S
H145 C152 0.930 . S
H146 C154 0.930 . S
H147 C148 1.016 . S
C148 H147 1.016 . S
C148 N155 1.286 . S
C149 H144 0.929 1_455 S
C149 C150 1.397 1_455 S
C149 C151 1.361 . S
C150 C149 1.397 1_655 S
C150 C154 1.390 . S
C151 C149 1.361 . S
C151 C152 1.393 . S
C151 N155 1.413 . S
C152 H145 0.930 . S
C152 C151 1.393 . S
C152 C153 1.399 . S
C153 C152 1.399 . S
C153 C154 1.381 1_455 S
C154 H146 0.930 . S
C154 C150 1.390 . S
C154 C153 1.381 1_655 S
N155 C148 1.286 . S
N155 C151 1.413 . S
H156 C161 0.930 . S
H157 C164 0.930 . S
H158 C166 0.930 . S
H159 C160 1.016 . S
C160 H159 1.016 . S
C160 N167 1.286 . S
C161 H156 0.930 . S
C161 C162 1.397 . S
C161 C163 1.361 1_455 S
C162 C161 1.397 . S
C162 C166 1.390 . S
C163 C161 1.361 1_655 S
C163 C164 1.393 . S
C163 N167 1.413 . S
C164 H157 0.930 . S
C164 C163 1.393 . S
C164 C165 1.399 1_655 S
C165 C164 1.399 1_455 S
C165 C166 1.381 . S
C166 H158 0.930 . S
C166 C162 1.390 . S
C166 C165 1.381 . S
N167 C160 1.286 . S
N167 C163 1.413 . S
H168 C173 0.930 . S
H169 C176 0.930 . S
H170 C178 0.930 . S
H171 C172 1.016 . S
C172 H171 1.016 . S
C172 N179 1.286 . S
C173 H168 0.930 . S
C173 C174 1.397 . S
C173 C175 1.361 . S
C174 C173 1.397 . S
C174 C178 1.390 . S
C175 C173 1.361 . S
C175 C176 1.393 1_545 S
C175 N179 1.413 1_545 S
C176 H169 0.930 . S
C176 C175 1.393 1_565 S
C176 C177 1.399 1_565 S
C177 C176 1.399 1_545 S
C177 C178 1.381 . S
C178 H170 0.930 . S
C178 C174 1.390 . S
C178 C177 1.381 . S
N179 C172 1.286 . S
N179 C175 1.413 1_565 S
H180 C185 0.930 . S
H181 C188 0.930 . S
H182 C190 0.930 . S
H183 C184 1.016 . S
C184 H183 1.016 . S
C184 N191 1.286 . S
C185 H180 0.930 . S
C185 C186 1.397 . S
C185 C187 1.361 . S
C186 C185 1.397 . S
C186 C190 1.390 . S
C187 C185 1.361 . S
C187 C188 1.393 . S
C187 N191 1.413 . S
C188 H181 0.930 . S
C188 C187 1.393 . S
C188 C189 1.399 . S
C189 C188 1.399 . S
C189 C190 1.381 . S
C190 H182 0.930 . S
C190 C186 1.390 . S
C190 C189 1.381 . S
N191 C184 1.286 . S
N191 C187 1.413 . S
C192 C193 1.387 . S
C192 H196 0.950 . S
C192 C201 1.390 . S
C193 C192 1.387 . S
C193 C195 1.387 . S
H194 C201 0.950 . S
C195 C193 1.387 . S
C195 C197 1.390 . S
C195 H199 0.950 . S
H196 C192 0.950 . S
C197 C195 1.390 . S
C197 C198 1.387 . S
C197 H200 0.950 . S
C198 C197 1.387 . S
C198 C201 1.387 . S
H199 C195 0.950 . S
H200 C197 0.950 . S
C201 C192 1.390 . S
C201 H194 0.950 . S
C201 C198 1.387 . S
C202 C203 1.387 . S
C202 H206 0.950 . S
C202 C211 1.390 . S
C203 C202 1.387 . S
C203 C205 1.387 . S
H204 C211 0.950 . S
C205 C203 1.387 . S
C205 C207 1.390 . S
C205 H209 0.950 . S
H206 C202 0.950 . S
C207 C205 1.390 . S
C207 C208 1.387 . S
C207 H210 0.950 . S
C208 C207 1.387 . S
C208 C211 1.387 . S
H209 C205 0.950 . S
H210 C207 0.950 . S
C211 C202 1.390 . S
C211 H204 0.950 . S
C211 C208 1.387 . S
C212 C213 1.387 . S
C212 H216 0.950 . S
C212 C221 1.390 . S
C213 C212 1.387 . S
C213 C215 1.387 . S
H214 C221 0.950 . S
C215 C213 1.387 . S
C215 C217 1.390 . S
C215 H219 0.950 . S
H216 C212 0.950 . S
C217 C215 1.390 . S
C217 C218 1.387 . S
C217 H220 0.950 . S
C218 C217 1.387 . S
C218 C221 1.387 . S
H219 C215 0.950 . S
H220 C217 0.950 . S
C221 C212 1.390 . S
C221 H214 0.950 . S
C221 C218 1.387 . S
C222 C223 1.387 . S
C222 H226 0.950 . S
C222 C231 1.390 . S
C223 C222 1.387 . S
C223 C225 1.387 . S
H224 C231 0.950 . S
C225 C223 1.387 . S
C225 C227 1.390 . S
C225 H229 0.950 . S
H226 C222 0.950 . S
C227 C225 1.390 . S
C227 C228 1.387 . S
C227 H230 0.950 . S
C228 C227 1.387 . S
C228 C231 1.387 . S
H229 C225 0.950 . S
H230 C227 0.950 . S
C231 C222 1.390 . S
C231 H224 0.950 . S
C231 C228 1.387 . S
C232 C233 1.387 . S
C232 H236 0.950 . S
C232 C241 1.390 . S
C233 C232 1.387 . S
C233 C235 1.387 . S
H234 C241 0.950 . S
C235 C233 1.387 . S
C235 C237 1.390 . S
C235 H239 0.950 . S
H236 C232 0.950 . S
C237 C235 1.390 . S
C237 C238 1.387 . S
C237 H240 0.950 . S
C238 C237 1.387 . S
C238 C241 1.387 . S
H239 C235 0.950 . S
H240 C237 0.950 . S
C241 C232 1.390 . S
C241 H234 0.950 . S
C241 C238 1.387 . S
C242 C243 1.387 . S
C242 H246 0.950 . S
C242 C251 1.390 . S
C243 C242 1.387 . S
C243 C245 1.387 . S
H244 C251 0.950 . S
C245 C243 1.387 . S
C245 C247 1.390 . S
C245 H249 0.950 . S
H246 C242 0.950 . S
C247 C245 1.390 . S
C247 C248 1.387 . S
C247 H250 0.950 . S
C248 C247 1.387 . S
C248 C251 1.387 . S
H249 C245 0.950 . S
H250 C247 0.950 . S
C251 C242 1.390 . S
C251 H244 0.950 . S
C251 C248 1.387 . S
C252 C253 1.387 . S
C252 H256 0.950 . S
C252 C261 1.390 . S
C253 C252 1.387 . S
C253 C255 1.387 . S
H254 C261 0.950 . S
C255 C253 1.387 . S
C255 C257 1.390 . S
C255 H259 0.950 . S
H256 C252 0.950 . S
C257 C255 1.390 . S
C257 C258 1.387 . S
C257 H260 0.950 . S
C258 C257 1.387 . S
C258 C261 1.387 . S
H259 C255 0.950 . S
H260 C257 0.950 . S
C261 C252 1.390 . S
C261 H254 0.950 . S
C261 C258 1.387 . S
C262 C263 1.387 . S
C262 H266 0.950 . S
C262 C271 1.390 . S
C263 C262 1.387 . S
C263 C265 1.387 . S
H264 C271 0.950 . S
C265 C263 1.387 . S
C265 C267 1.390 . S
C265 H269 0.950 . S
H266 C262 0.950 . S
C267 C265 1.390 . S
C267 C268 1.387 . S
C267 H270 0.950 . S
C268 C267 1.387 . S
C268 C271 1.387 . S
H269 C265 0.950 . S
H270 C267 0.950 . S
C271 C262 1.390 . S
C271 H264 0.950 . S
C271 C268 1.387 . S
C272 C273 1.387 . S
C272 H276 0.950 . S
C272 C281 1.390 . S
C273 C272 1.387 . S
C273 C275 1.387 . S
H274 C281 0.950 . S
C275 C273 1.387 . S
C275 C277 1.390 . S
C275 H279 0.950 . S
H276 C272 0.950 . S
C277 C275 1.390 . S
C277 C278 1.387 . S
C277 H280 0.950 . S
C278 C277 1.387 . S
C278 C281 1.387 . S
H279 C275 0.950 . S
H280 C277 0.950 . S
C281 C272 1.390 . S
C281 H274 0.950 . S
C281 C278 1.387 . S
C282 C283 1.387 . S
C282 H286 0.950 . S
C282 C291 1.390 . S
C283 C282 1.387 . S
C283 C285 1.387 . S
H284 C291 0.950 . S
C285 C283 1.387 . S
C285 C287 1.390 . S
C285 H289 0.950 . S
H286 C282 0.950 . S
C287 C285 1.390 . S
C287 C288 1.387 . S
C287 H290 0.950 . S
C288 C287 1.387 . S
C288 C291 1.387 . S
H289 C285 0.950 . S
H290 C287 0.950 . S
C291 C282 1.390 . S
C291 H284 0.950 . S
C291 C288 1.387 . S
C292 C293 1.387 . S
C292 H296 0.950 . S
C292 C301 1.390 . S
C293 C292 1.387 . S
C293 C295 1.387 . S
H294 C301 0.950 . S
C295 C293 1.387 . S
C295 C297 1.390 . S
C295 H299 0.950 . S
H296 C292 0.950 . S
C297 C295 1.390 . S
C297 C298 1.387 . S
C297 H300 0.950 . S
C298 C297 1.387 . S
C298 C301 1.387 . S
H299 C295 0.950 . S
H300 C297 0.950 . S
C301 C292 1.390 . S
C301 H294 0.950 . S
C301 C298 1.387 . S
C302 C303 1.387 . S
C302 H306 0.950 . S
C302 C311 1.390 . S
C303 C302 1.387 . S
C303 C305 1.387 . S
H304 C311 0.950 . S
C305 C303 1.387 . S
C305 C307 1.390 . S
C305 H309 0.950 . S
H306 C302 0.950 . S
C307 C305 1.390 . S
C307 C308 1.387 . S
C307 H310 0.950 . S
C308 C307 1.387 . S
C308 C311 1.387 . S
H309 C305 0.950 . S
H310 C307 0.950 . S
C311 C302 1.390 . S
C311 H304 0.950 . S
C311 C308 1.387 . S
C312 C313 1.387 . S
C312 H316 0.950 . S
C312 C321 1.416 . S
C313 C312 1.387 . S
C313 C315 1.387 1_455 S
H314 C321 0.937 1_556 S
C315 C313 1.387 1_655 S
C315 C317 1.378 1_554 S
C315 H319 0.950 . S
H316 C312 0.950 . S
C317 C315 1.378 1_556 S
C317 C318 1.394 1_655 S
C317 H320 0.956 . S
C318 C317 1.394 1_455 S
C318 C321 1.374 1_556 S
H319 C315 0.950 . S
H320 C317 0.956 . S
C321 C312 1.416 . S
C321 H314 0.937 1_554 S
C321 C318 1.374 1_554 S
C322 C323 1.387 . S
C322 H326 0.950 . S
C322 C331 1.390 . S
C323 C322 1.387 . S
C323 C325 1.387 1_545 S
H324 C331 0.950 . S
C325 C323 1.387 1_565 S
C325 C327 1.390 . S
C325 H329 0.950 . S
H326 C322 0.950 . S
C327 C325 1.390 . S
C327 C328 1.387 1_565 S
C327 H330 0.950 . S
C328 C327 1.387 1_545 S
C328 C331 1.387 . S
H329 C325 0.950 . S
H330 C327 0.950 . S
C331 C322 1.390 . S
C331 H324 0.950 . S
C331 C328 1.387 . S
C332 C333 1.387 . S
C332 H336 0.950 . S
C332 C341 1.390 . S
C333 C332 1.387 . S
C333 C335 1.387 . S
H334 C341 0.950 . S
C335 C333 1.387 . S
C335 C337 1.390 . S
C335 H339 0.950 . S
H336 C332 0.950 . S
C337 C335 1.390 . S
C337 C338 1.387 . S
C337 H340 0.950 . S
C338 C337 1.387 . S
C338 C341 1.387 . S
H339 C335 0.950 . S
H340 C337 0.950 . S
C341 C332 1.390 . S
C341 H334 0.950 . S
C341 C338 1.387 . S
C342 C343 1.387 1_565 S
C342 H346 0.950 . S
C342 C351 1.390 . S
C343 C342 1.387 1_545 S
C343 C345 1.387 . S
H344 C351 0.950 . S
C345 C343 1.387 . S
C345 C347 1.390 . S
C345 H349 0.950 . S
H346 C342 0.950 . S
C347 C345 1.390 . S
C347 C348 1.387 . S
C347 H350 0.950 . S
C348 C347 1.387 . S
C348 C351 1.387 1_545 S
H349 C345 0.950 . S
H350 C347 0.950 . S
C351 C342 1.390 . S
C351 H344 0.950 . S
C351 C348 1.387 1_565 S
C352 C353 1.387 . S
C352 H356 0.950 . S
C352 C361 1.390 . S
C353 C352 1.387 . S
C353 C355 1.387 . S
H354 C361 0.950 1_554 S
C355 C353 1.387 . S
C355 C357 1.390 . S
C355 H359 0.950 . S
H356 C352 0.950 . S
C357 C355 1.390 . S
C357 C358 1.387 1_556 S
C357 H360 0.950 1_556 S
C358 C357 1.387 1_554 S
C358 C361 1.387 1_554 S
H359 C355 0.950 . S
H360 C357 0.950 1_554 S
C361 C352 1.390 . S
C361 H354 0.950 1_556 S
C361 C358 1.387 1_556 S
C362 C363 1.387 1_655 S
C362 H366 0.950 . S
C362 C371 1.390 . S
C363 C362 1.387 1_455 S
C363 C365 1.387 . S
H364 C371 0.950 . S
C365 C363 1.387 . S
C365 C367 1.390 . S
C365 H369 0.950 . S
H366 C362 0.950 . S
C367 C365 1.390 . S
C367 C368 1.387 . S
C367 H370 0.950 . S
C368 C367 1.387 . S
C368 C371 1.387 1_455 S
H369 C365 0.950 . S
H370 C367 0.950 . S
C371 C362 1.390 . S
C371 H364 0.950 . S
C371 C368 1.387 1_655 S
C193 C12 3.227 . S
C198 C186 3.214 . S
C203 C52 3.075 . S
C208 C160 2.996 . S
C213 C111 3.095 . S
C218 C172 3.002 . S
C223 C31 2.975 . S
C228 C184 2.826 . S
C238 C162 3.010 . S
C233 C71 3.069 . S
C248 C174 2.983 . S
C243 C92 3.035 . S
C253 C48 0.878 . S
C258 C136 0.931 . S
C263 C109 0.915 . S
C268 C150 1.024 . S
C273 C29 0.657 . S
C278 C126 0.555 . S
C288 C138 0.707 . S
C283 C69 0.726 . S
C298 C148 0.439 . S
C293 C88 0.518 . S
C303 C8 0.656 . S
C308 C124 0.602 . S
C318 C153 1.104 . S
C313 C17 1.096 . S
C323 C57 1.083 . S
C328 C129 1.104 . S
C333 C97 1.168 . S
C338 C141 1.158 . S
C348 C177 1.765 . S
C343 C42 1.730 . S
C358 C189 1.844 . S
C353 C82 1.803 . S
C363 C2 1.750 . S
C368 C165 1.778 . S
