# Generated by pormake.
# Topology pyr, (3,6)-cn, num edge types: 1
# Building blocks:
#     Node 0, Type 0, BuildingBlock: CUQRIR_clean_linker_1, # of connection points: 3
#     Node 1, Type 0, BuildingBlock: CUQRIR_clean_linker_1, # of connection points: 3
#     Node 2, Type 0, BuildingBlock: CUQRIR_clean_linker_1, # of connection points: 3
#     Node 3, Type 0, BuildingBlock: CUQRIR_clean_linker_1, # of connection points: 3
#     Node 4, Type 0, BuildingBlock: CUQRIR_clean_linker_1, # of connection points: 3
#     Node 5, Type 0, BuildingBlock: CUQRIR_clean_linker_1, # of connection points: 3
#     Node 6, Type 0, BuildingBlock: CUQRIR_clean_linker_1, # of connection points: 3
#     Node 7, Type 0, BuildingBlock: CUQRIR_clean_linker_1, # of connection points: 3
#     Node 8, Type 1, BuildingBlock: JUFBIX_clean_sbu_0, # of connection points: 6
#     Node 9, Type 1, BuildingBlock: JUFBIX_clean_sbu_0, # of connection points: 6
#     Node 10, Type 1, BuildingBlock: JUFBIX_clean_sbu_0, # of connection points: 6
#     Node 11, Type 1, BuildingBlock: JUFBIX_clean_sbu_0, # of connection points: 6
#     Edge 12, Type (0, 1), BuildingBlock: XUDNAN_clean_linker_2, # of connection points: 2
#     Edge 13, Type (0, 1), BuildingBlock: XUDNAN_clean_linker_2, # of connection points: 2
#     Edge 14, Type (0, 1), BuildingBlock: XUDNAN_clean_linker_2, # of connection points: 2
#     Edge 15, Type (0, 1), BuildingBlock: XUDNAN_clean_linker_2, # of connection points: 2
#     Edge 16, Type (0, 1), BuildingBlock: XUDNAN_clean_linker_2, # of connection points: 2
#     Edge 17, Type (0, 1), BuildingBlock: XUDNAN_clean_linker_2, # of connection points: 2
#     Edge 18, Type (0, 1), BuildingBlock: XUDNAN_clean_linker_2, # of connection points: 2
#     Edge 19, Type (0, 1), BuildingBlock: XUDNAN_clean_linker_2, # of connection points: 2
#     Edge 20, Type (0, 1), BuildingBlock: XUDNAN_clean_linker_2, # of connection points: 2
#     Edge 21, Type (0, 1), BuildingBlock: XUDNAN_clean_linker_2, # of connection points: 2
#     Edge 22, Type (0, 1), BuildingBlock: XUDNAN_clean_linker_2, # of connection points: 2
#     Edge 23, Type (0, 1), BuildingBlock: XUDNAN_clean_linker_2, # of connection points: 2
#     Edge 24, Type (0, 1), BuildingBlock: XUDNAN_clean_linker_2, # of connection points: 2
#     Edge 25, Type (0, 1), BuildingBlock: XUDNAN_clean_linker_2, # of connection points: 2
#     Edge 26, Type (0, 1), BuildingBlock: XUDNAN_clean_linker_2, # of connection points: 2
#     Edge 27, Type (0, 1), BuildingBlock: XUDNAN_clean_linker_2, # of connection points: 2
#     Edge 28, Type (0, 1), BuildingBlock: XUDNAN_clean_linker_2, # of connection points: 2
#     Edge 29, Type (0, 1), BuildingBlock: XUDNAN_clean_linker_2, # of connection points: 2
#     Edge 30, Type (0, 1), BuildingBlock: XUDNAN_clean_linker_2, # of connection points: 2
#     Edge 31, Type (0, 1), BuildingBlock: XUDNAN_clean_linker_2, # of connection points: 2
#     Edge 32, Type (0, 1), BuildingBlock: XUDNAN_clean_linker_2, # of connection points: 2
#     Edge 33, Type (0, 1), BuildingBlock: XUDNAN_clean_linker_2, # of connection points: 2
#     Edge 34, Type (0, 1), BuildingBlock: XUDNAN_clean_linker_2, # of connection points: 2
#     Edge 35, Type (0, 1), BuildingBlock: XUDNAN_clean_linker_2, # of connection points: 2
# Relax obj value: 0.142
# Max RMSD: 0.221
# Mean RMSD: 0.152
data_MOF--net-pry--node1-JUFBIX_clean_sbu_0--node2-CUQRIR_clean_linker_1--edge1-XUDNAN_clean_linker_2
_symmetry_space_group_name_H-M    P1
_symmetry_Int_Tables_number       1
_symmetry_cell_setting            triclinic
loop_
_symmetry_equiv_pos_as_xyz
'x, y, z'
_cell_length_a     34.370124
_cell_length_b     32.918723
_cell_length_c     33.842382
_cell_angle_alpha  81.002968
_cell_angle_beta   90.055072
_cell_angle_gamma 93.847244
loop_
_atom_site_label
_atom_site_type_symbol
_atom_site_fract_x
_atom_site_fract_y
_atom_site_fract_z
_atom_type_partial_charge
C0 C 0.17636 0.20302 0.19874 0.0
N1 N 0.20226 0.17348 0.20845 0.0
N2 N 0.18755 0.22954 0.1652 0.0
C3 C 0.14081 0.20736 0.22358 0.0
C4 C 0.2217 0.21512 0.15483 0.0
N5 N 0.23094 0.18108 0.1808 0.0
C6 C 0.24784 0.23616 0.12116 0.0
H7 H 0.12691 0.23661 0.21395 0.0
H8 H 0.14871 0.20516 0.25562 0.0
H9 H 0.1187 0.18192 0.2207 0.0
H10 H 0.23607 0.26497 0.1058 0.0
H11 H 0.2512 0.21491 0.09915 0.0
H12 H 0.27724 0.2433 0.13294 0.0
C13 C 0.38009 0.76698 0.70837 0.0
N14 N 0.37174 0.79271 0.73407 0.0
N15 N 0.40743 0.74164 0.72389 0.0
C16 C 0.36009 0.76512 0.66901 0.0
C17 C 0.41519 0.75256 0.76019 0.0
N18 N 0.3933 0.7838 0.76644 0.0
C19 C 0.44573 0.73438 0.78808 0.0
H20 H 0.36005 0.7338 0.66077 0.0
H21 H 0.37603 0.78711 0.64536 0.0
H22 H 0.3296 0.77406 0.6701 0.0
H23 H 0.46785 0.72032 0.77163 0.0
H24 H 0.43153 0.70995 0.8108 0.0
H25 H 0.46034 0.75828 0.8038 0.0
C26 C 0.65663 0.37418 0.85362 0.0
N27 N 0.67825 0.36135 0.88615 0.0
N28 N 0.67335 0.409 0.83175 0.0
C29 C 0.61865 0.35258 0.84383 0.0
C30 C 0.70584 0.41731 0.85277 0.0
N31 N 0.70879 0.3885 0.88586 0.0
C32 C 0.73705 0.4508 0.83876 0.0
H33 H 0.62467 0.32806 0.82605 0.0
H34 H 0.59949 0.37446 0.82638 0.0
H35 H 0.60316 0.3377 0.87165 0.0
H36 H 0.73021 0.47932 0.85022 0.0
H37 H 0.73854 0.45744 0.80562 0.0
H38 H 0.76607 0.44201 0.85018 0.0
C39 C 0.94114 0.63255 0.43118 0.0
N40 N 0.9773 0.64945 0.42025 0.0
N41 N 0.92671 0.64933 0.46159 0.0
C42 C 0.91722 0.60438 0.40804 0.0
C43 C 0.95637 0.67566 0.47011 0.0
N44 N 0.98706 0.67635 0.44471 0.0
C45 C 0.95246 0.70589 0.49888 0.0
H46 H 0.89896 0.62313 0.38614 0.0
H47 H 0.8975 0.58271 0.42851 0.0
H48 H 0.93615 0.58649 0.39166 0.0
H49 H 0.97642 0.7029 0.52086 0.0
H50 H 0.92438 0.70029 0.5156 0.0
H51 H 0.95475 0.73787 0.48234 0.0
C52 C 0.82159 0.86328 0.90056 0.0
N53 N 0.85278 0.85649 0.8782 0.0
N54 N 0.80295 0.89645 0.88323 0.0
C55 C 0.8088 0.83674 0.93928 0.0
C56 C 0.82401 0.90951 0.84887 0.0
N57 N 0.85446 0.88537 0.84546 0.0
C58 C 0.81709 0.94861 0.821 0.0
H59 H 0.77674 0.83617 0.94337 0.0
H60 H 0.823 0.8497 0.96446 0.0
H61 H 0.81746 0.80472 0.9403 0.0
H62 H 0.80181 0.97019 0.83668 0.0
H63 H 0.79852 0.94106 0.79596 0.0
H64 H 0.84501 0.96421 0.80847 0.0
C65 C 0.77685 0.30348 0.34126 0.0
N66 N 0.78813 0.27653 0.31787 0.0
N67 N 0.7493 0.32703 0.32291 0.0
C68 C 0.7893 0.30378 0.3838 0.0
C69 C 0.74455 0.31345 0.28729 0.0
N70 N 0.76809 0.28271 0.28415 0.0
C71 C 0.7121 0.32526 0.25871 0.0
H72 H 0.76897 0.28252 0.40402 0.0
H73 H 0.78814 0.33515 0.39172 0.0
H74 H 0.81925 0.29339 0.38845 0.0
H75 H 0.72354 0.33164 0.22758 0.0
H76 H 0.6984 0.35299 0.2655 0.0
H77 H 0.68963 0.29916 0.26067 0.0
C78 C 0.31921 0.64846 0.19146 0.0
N79 N 0.34964 0.67013 0.20583 0.0
N80 N 0.30709 0.66843 0.15607 0.0
C81 C 0.30289 0.60641 0.21059 0.0
C82 C 0.33123 0.703 0.14914 0.0
N83 N 0.35766 0.70386 0.17898 0.0
C84 C 0.32572 0.73811 0.11566 0.0
H85 H 0.32538 0.58937 0.22853 0.0
H86 H 0.29172 0.58815 0.18756 0.0
H87 H 0.27825 0.60988 0.23068 0.0
H88 H 0.33503 0.76821 0.12474 0.0
H89 H 0.29473 0.7387 0.10652 0.0
H90 H 0.3434 0.73399 0.08935 0.0
C91 C 0.13069 0.34865 0.67597 0.0
N92 N 0.14565 0.3322 0.64556 0.0
N93 N 0.15671 0.37708 0.68768 0.0
C94 C 0.09048 0.33771 0.69351 0.0
C95 C 0.18791 0.37723 0.66338 0.0
N96 N 0.18109 0.35017 0.63756 0.0
C97 C 0.22614 0.40156 0.66693 0.0
H98 H 0.07055 0.3254 0.67176 0.0
H99 H 0.07826 0.36501 0.7031 0.0
H100 H 0.09232 0.31361 0.72018 0.0
H101 H 0.23044 0.40805 0.6979 0.0
H102 H 0.22618 0.43136 0.64643 0.0
H103 H 0.25091 0.38462 0.65847 0.0
Co104 Co 0.02632 0.01255 0.51739 0.0
C105 C 0.05288 0.93619 0.50855 0.0
Co106 Co 0.08181 0.99876 0.5474 0.0
C107 C 0.9721 0.05512 0.46453 0.0
C108 C 0.94469 1.00029 0.49829 0.0
N109 N 0.97923 0.02245 0.49233 0.0
N110 N 0.93456 0.05439 0.45294 0.0
C111 C 0.91705 0.02005 0.47425 0.0
H112 H 0.99383 0.0797 0.45381 0.0
H113 H 0.93984 0.97187 0.51903 0.0
C114 C 0.05631 0.07627 0.55383 0.0
N115 N 0.12942 0.99141 0.57189 0.0
C116 C 0.14159 0.96009 0.59861 0.0
C117 C 0.16001 0.0197 0.56678 0.0
N118 N 0.17871 0.96781 0.61 0.0
C119 C 0.19031 0.00525 0.58998 0.0
C120 C 0.09167 0.03729 0.46667 0.0
O121 O 0.02792 0.06566 0.53286 0.0
O122 O 0.08229 0.05116 0.56389 0.0
O123 O 0.10886 0.02304 0.49861 0.0
O124 O 0.0545 0.03592 0.4673 0.0
O125 O 0.0812 0.94605 0.53023 0.0
H126 H 0.16012 0.04932 0.54769 0.0
H127 H 0.12376 0.93214 0.60919 0.0
O128 O 0.02539 0.96019 0.50107 0.0
O129 O 0.99872 0.98859 0.56848 0.0
O130 O 0.05484 0.97476 0.59615 0.0
C131 C 1.01783 0.97391 0.59938 0.0
H132 H 0.88656 0.00995 0.47247 0.0
H133 H 0.21852 0.02133 0.59242 0.0
Co134 Co 0.50566 0.02917 0.03061 0.0
C135 C 0.50271 0.96392 0.09496 0.0
Co136 Co 0.54637 0.03841 0.07945 0.0
C137 C 0.46492 0.98138 0.97863 0.0
C138 C 0.45113 0.04442 0.96502 0.0
N139 N 0.47223 0.0186 0.99 0.0
N140 N 0.44014 0.98272 0.9477 0.0
C141 C 0.4315 0.0224 0.9387 0.0
H142 H 0.4784 0.95385 0.99217 0.0
H143 H 0.45032 0.0771 0.9657 0.0
C144 C 0.5502 0.10324 1.01504 0.0
N145 N 0.58115 0.04789 0.12012 0.0
C146 C 0.60051 0.08388 0.12504 0.0
C147 C 0.59553 0.01963 0.14874 0.0
N148 N 0.6264 0.0791 0.15511 0.0
C149 C 0.62311 0.03877 0.17042 0.0
C150 C 0.58034 1.00027 1.01943 0.0
O151 O 0.52355 0.08154 1.00032 0.0
O152 O 0.56343 0.09019 0.04928 0.0
O153 O 0.58771 0.01227 0.05301 0.0
O154 O 0.54614 1.00432 1.00552 0.0
O155 O 0.5287 0.98639 0.10943 0.0
H156 H 0.58767 0.98689 0.15285 0.0
H157 H 0.59625 0.11317 0.10664 0.0
O158 O 0.48886 0.97668 0.06083 0.0
O159 O 0.46465 0.05444 0.05601 0.0
O160 O 0.50466 0.06439 0.10463 0.0
C161 C 0.47065 0.06756 0.0892 0.0
H162 H 0.41228 0.03451 0.91502 0.0
H163 H 0.64058 0.02392 0.19439 0.0
Co164 Co 0.55387 0.54955 0.49163 0.0
C165 C 0.49114 0.54708 0.44088 0.0
Co166 Co 0.51324 0.49548 0.51016 0.0
C167 C 0.62663 0.59578 0.47838 0.0
C168 C 0.57953 0.63548 0.4705 0.0
N169 N 0.58748 0.59555 0.47871 0.0
N170 N 0.64381 0.63428 0.47065 0.0
C171 C 0.61415 0.65942 0.46552 0.0
H172 H 0.64206 0.56793 0.48402 0.0
H173 H 0.55052 0.64648 0.46912 0.0
C174 C 0.57517 0.50068 0.56222 0.0
N175 N 0.48085 0.44805 0.52304 0.0
C176 C 0.44192 0.44192 0.51909 0.0
C177 C 0.49312 0.41039 0.53644 0.0
N178 N 0.42931 0.40176 0.5296 0.0
C179 C 0.46173 0.38207 0.54069 0.0
C180 C 0.57267 0.48238 0.45852 0.0
O181 O 0.58395 0.53333 0.53781 0.0
O182 O 0.54588 0.47744 0.55494 0.0
O183 O 0.54177 0.46753 0.47719 0.0
O184 O 0.58488 0.51926 0.46065 0.0
O185 O 0.4806 0.51501 0.46577 0.0
H186 H 0.52317 0.40378 0.54236 0.0
H187 H 0.42351 0.46656 0.50827 0.0
O188 O 0.5235 0.56655 0.44575 0.0
O189 O 0.52283 0.57882 0.52319 0.0
O190 O 0.48478 0.52319 0.54358 0.0
C191 C 0.49465 0.56079 0.54501 0.0
H192 H 0.61704 0.69275 0.45964 0.0
H193 H 0.46305 0.34957 0.5517 0.0
Co194 Co 1.01224 0.52922 0.99535 0.0
C195 C 0.93847 0.48981 1.01354 0.0
Co196 Co 0.99049 0.53619 0.05493 0.0
C197 C 0.06078 0.51183 0.93043 0.0
C198 C 1.00651 0.53649 0.91124 0.0
N199 N 0.02773 0.52487 0.94421 0.0
N200 N 0.061 0.51588 0.89019 0.0
C201 C 0.02704 0.53126 0.87799 0.0
H202 H 0.08425 0.50008 0.9493 0.0
H203 H 0.97776 0.54797 0.91132 0.0
C204 C 0.065 0.57366 0.03617 0.0
N205 N 0.97367 0.54252 0.10569 0.0
C206 C 0.99541 0.5501 0.13744 0.0
C207 C 0.93673 0.54785 0.11617 0.0
N208 N 0.97357 0.56088 0.16678 0.0
C209 C 0.93659 0.55914 0.15359 0.0
C210 C 0.03512 0.46672 0.05545 0.0
O211 O 0.05934 0.56075 1.00301 0.0
O212 O 0.03819 0.56687 0.06264 0.0
O213 O 1.01477 0.48644 0.07663 0.0
O214 O 0.03737 0.47902 1.01772 0.0
O215 O 0.94224 0.50445 0.04614 0.0
H216 H 0.91175 0.54602 0.09691 0.0
H217 H 0.0269 0.55038 0.13802 0.0
O218 O 0.96576 0.49704 0.98772 0.0
O219 O 0.98759 0.58016 0.97382 0.0
O220 O 0.9676 0.58676 0.03347 0.0
C221 C 0.97012 0.60079 0.99631 0.0
H222 H 1.01757 0.5374 0.84723 0.0
H223 H 0.91135 0.56687 0.16929 0.0
H224 H 0.14308 0.11567 0.2322 0.0
H225 H 0.25187 0.16909 0.27142 0.0
H226 H 0.23766 0.13463 0.34032 0.0
H227 H 0.09008 0.13902 0.31248 0.0
H228 H 0.05612 0.09429 0.31775 0.0
H229 H 0.07852 0.11389 0.26988 0.0
H230 H 0.10494 0.0429 0.26607 0.0
H231 H 0.08196 0.02263 0.31358 0.0
H232 H 0.13348 0.01861 0.3067 0.0
H233 H 0.20821 0.09997 0.40702 0.0
H234 H 0.16678 0.06973 0.46502 0.0
H235 H 0.07154 0.04701 0.3854 0.0
C236 C 0.16462 0.11871 0.25508 0.0
C237 C 0.19974 0.14385 0.24545 0.0
C238 C 0.22624 0.14823 0.27681 0.0
C239 C 0.21778 0.12938 0.31654 0.0
C240 C 0.18203 0.10683 0.32516 0.0
C241 C 0.15575 0.1015 0.29524 0.0
C242 C 0.1173 0.08056 0.31308 0.0
C243 C 0.08352 0.10861 0.30267 0.0
C244 C 0.10893 0.03868 0.29902 0.0
C245 C 0.12591 0.0751 0.35774 0.0
C246 C 0.16371 0.08991 0.36388 0.0
C247 C 0.17865 0.08827 0.40238 0.0
C248 C 0.15472 0.07097 0.4353 0.0
C249 C 0.11561 0.05597 0.43022 0.0
C250 C 0.1011 0.05838 0.3906 0.0
H251 H 0.40374 0.86637 0.76164 0.0
H252 H 0.38786 0.75271 0.84535 0.0
H253 H 0.39444 0.79222 0.90197 0.0
H254 H 0.47431 0.91677 0.81516 0.0
H255 H 0.45583 0.96711 0.80272 0.0
H256 H 0.44802 0.92992 0.7693 0.0
H257 H 0.37347 0.93691 0.77227 0.0
H258 H 0.38103 0.97431 0.80565 0.0
H259 H 0.34882 0.9289 0.82013 0.0
H260 H 0.40738 0.84383 0.94873 0.0
H261 H 0.42413 0.90383 0.98269 0.0
H262 H 0.4282 0.9843 0.86823 0.0
C263 C 0.40089 0.85 0.79193 0.0
C264 C 0.3954 0.80664 0.79942 0.0
C265 C 0.39257 0.78594 0.83929 0.0
C266 C 0.39596 0.80813 0.87146 0.0
C267 C 0.40165 0.85098 0.86304 0.0
C268 C 0.40377 0.87173 0.82424 0.0
C269 C 0.41105 0.91775 0.8232 0.0
C270 C 0.4496 0.93381 0.80131 0.0
C271 C 0.37654 0.94083 0.80419 0.0
C272 C 0.41366 0.91966 0.86754 0.0
C273 C 0.40804 0.88081 0.89 0.0
C274 C 0.41136 0.87443 0.93149 0.0
C275 C 0.42107 0.90859 0.95048 0.0
C276 C 0.42722 0.9486 0.92804 0.0
C277 C 0.42287 0.95417 0.8861 0.0
H278 H 0.64913 0.37392 0.76716 0.0
H279 H 0.67028 0.49137 0.80878 0.0
H280 H 0.65214 0.52743 0.74231 0.0
H281 H 0.67883 0.40396 0.66482 0.0
H282 H 0.6396 0.37424 0.64504 0.0
H283 H 0.65747 0.35765 0.69462 0.0
H284 H 0.58783 0.35725 0.72395 0.0
H285 H 0.56967 0.37339 0.67442 0.0
H286 H 0.56132 0.40312 0.71368 0.0
H287 H 0.63361 0.55046 0.67081 0.0
H288 H 0.60653 0.55947 0.60275 0.0
H289 H 0.58773 0.42679 0.61047 0.0
C290 C 0.64938 0.40718 0.76255 0.0
C291 C 0.66151 0.42989 0.79318 0.0
C292 C 0.66201 0.47344 0.78553 0.0
C293 C 0.65156 0.49412 0.74794 0.0
C294 C 0.63973 0.47076 0.71852 0.0
C295 C 0.63771 0.42822 0.72566 0.0
C296 C 0.62117 0.41039 0.68992 0.0
C297 C 0.65106 0.38506 0.67258 0.0
C298 C 0.58271 0.38451 0.70117 0.0
C299 C 0.61435 0.4496 0.66143 0.0
C300 C 0.6261 0.48402 0.6783 0.0
C301 C 0.62401 0.52375 0.65745 0.0
C302 C 0.60881 0.52852 0.61868 0.0
C303 C 0.59501 0.49383 0.60134 0.0
C304 C 0.59796 0.45383 0.62304 0.0
H305 H 0.95058 0.67975 0.34842 0.0
H306 H 0.041 0.60917 0.40792 0.0
H307 H 0.05755 0.58571 0.34403 0.0
H308 H 0.914 0.60601 0.30028 0.0
H309 H 0.90059 0.6379 0.25471 0.0
H310 H 0.90379 0.65898 0.30052 0.0
H311 H 0.95362 0.71729 0.26846 0.0
H312 H 0.94978 0.6973 0.22186 0.0
H313 H 0.99684 0.70449 0.24426 0.0
H314 H 0.05524 0.5603 0.27643 0.0
H315 H 0.03499 0.53626 0.21308 0.0
H316 H 0.94291 0.62085 0.20065 0.0
C317 C 0.97537 0.66135 0.34715 0.0
C318 C 0.99535 0.64705 0.38242 0.0
C319 C 0.02632 0.62129 0.38073 0.0
C320 C 0.03559 0.60767 0.34466 0.0
C321 C 1.01351 0.62029 0.31077 0.0
C322 C 0.98429 0.64709 0.31175 0.0
C323 C 0.96054 0.65104 0.27388 0.0
C324 C 0.9172 0.63767 0.28291 0.0
C325 C 0.96551 0.69515 0.25074 0.0
C326 C 0.97973 0.621 0.25197 0.0
C327 C 1.01079 0.60419 0.27309 0.0
C328 C 0.03135 0.57382 0.25944 0.0
C329 C 1.01964 0.56027 0.22354 0.0
C330 C 0.98717 0.57641 0.20224 0.0
C331 C 0.96753 0.60758 0.21652 0.0
H332 H 0.25002 0.13035 0.128 0.0
H333 H 0.29664 0.1911 0.22373 0.0
H334 H 0.36138 0.16574 0.21353 0.0
H335 H 0.31094 0.04018 0.14233 0.0
H336 H 0.31755 0.04098 0.08937 0.0
H337 H 0.27383 0.05915 0.10791 0.0
H338 H 0.28703 0.12888 0.06134 0.0
H339 H 0.33098 0.11111 0.04296 0.0
H340 H 0.33295 0.15805 0.06432 0.0
H341 H 0.42329 0.13602 0.19012 0.0
H342 H 0.47559 0.10684 0.15548 0.0
H343 H 0.3912 0.06925 0.07059 0.0
C344 C 0.27357 0.13681 0.14784 0.0
C345 C 0.26709 0.16019 0.179 0.0
C346 C 0.29958 0.17046 0.2022 0.0
C347 C 0.33692 0.15689 0.19584 0.0
C348 C 0.34225 0.13379 0.16512 0.0
C349 C 0.3114 0.12398 0.14132 0.0
C350 C 0.32565 0.10159 0.1083 0.0
C351 C 0.30581 0.05788 0.11222 0.0
C352 C 0.31874 0.12639 0.06677 0.0
C353 C 0.36923 0.10028 0.11716 0.0
C354 C 0.37813 0.11886 0.15025 0.0
C355 C 0.41641 0.12144 0.16422 0.0
C356 C 0.44615 0.10469 0.14419 0.0
C357 C 0.43817 0.0856 0.10996 0.0
C358 C 0.39881 0.08363 0.09646 0.0
H359 H 0.37116 0.86093 0.67957 0.0
H360 H 0.30449 0.78629 0.7758 0.0
H361 H 0.24715 0.82741 0.75796 0.0
H362 H 0.32597 0.96046 0.68722 0.0
H363 H 0.32795 0.97571 0.63369 0.0
H364 H 0.36458 0.9444 0.65841 0.0
H365 H 0.34883 0.89005 0.61193 0.0
H366 H 0.31176 0.92063 0.58749 0.0
H367 H 0.29957 0.86795 0.60991 0.0
H368 H 0.19487 0.86951 0.72206 0.0
H369 H 0.15383 0.91426 0.67594 0.0
H370 H 0.25628 0.96177 0.60454 0.0
C371 C 0.34477 0.85446 0.69753 0.0
C372 C 0.34171 0.82113 0.72905 0.0
C373 C 0.30696 0.81235 0.75186 0.0
C374 C 0.27445 0.83536 0.74183 0.0
C375 C 0.27781 0.86728 0.70937 0.0
C376 C 0.31243 0.87739 0.68814 0.0
C377 C 0.30798 0.91109 0.65301 0.0
C378 C 0.3331 0.95024 0.65842 0.0
C379 C 0.31758 0.89653 0.61326 0.0
C380 C 0.26506 0.9172 0.65664 0.0
C381 C 0.24807 0.8919 0.68938 0.0
C382 C 0.20802 0.89009 0.69683 0.0
C383 C 0.1849 0.91521 0.67034 0.0
C384 C 0.20203 0.94169 0.63702 0.0
C385 C 0.24259 0.94257 0.63033 0.0
H386 H 0.7256 0.44816 0.93039 0.0
H387 H 0.76217 0.33178 0.90498 0.0
H388 H 0.82257 0.34106 0.94382 0.0
H389 H 0.81479 0.50122 0.91584 0.0
H390 H 0.81053 0.53231 0.95479 0.0
H391 H 0.76738 0.51291 0.93189 0.0
H392 H 0.74045 0.47806 1.00126 0.0
H393 H 0.78342 0.49772 0.02459 0.0
H394 H 0.76969 0.44322 0.03307 0.0
H395 H 0.88358 0.36928 0.97475 0.0
H396 H 0.9383 0.41144 0.99877 0.0
H397 H 0.86187 0.50933 1.00613 0.0
C398 C 0.74572 0.42395 0.93453 0.0
C399 C 0.73902 0.3888 0.91553 0.0
C400 C 0.76635 0.35826 0.92024 0.0
C401 C 0.80081 0.36355 0.94199 0.0
C402 C 0.80728 0.39942 0.95912 0.0
C403 C 0.78013 0.42884 0.95613 0.0
C404 C 0.79547 0.46636 0.97392 0.0
C405 C 0.79714 0.50549 0.94222 0.0
C406 C 0.77078 0.47164 1.01039 0.0
C407 C 0.83605 0.4542 0.98631 0.0
C408 C 0.8422 0.41534 0.97768 0.0
C409 C 0.87867 0.39915 0.98264 0.0
C410 C 0.90959 0.42329 0.9963 0.0
C411 C 0.90395 0.46303 1.00538 0.0
C412 C 0.86653 0.47841 1.00086 0.0
H413 H 0.86907 0.59509 0.4961 0.0
H414 H 0.8933 0.71876 0.4323 0.0
H415 H 0.82296 0.73018 0.43145 0.0
H416 H 0.78468 0.57264 0.44192 0.0
H417 H 0.75816 0.54292 0.48383 0.0
H418 H 0.81064 0.54579 0.48324 0.0
H419 H 0.81177 0.57275 0.55127 0.0
H420 H 0.75922 0.56966 0.55222 0.0
H421 H 0.78613 0.61764 0.5566 0.0
H422 H 0.75044 0.72623 0.43259 0.0
H423 H 0.67984 0.70768 0.43661 0.0
H424 H 0.70243 0.58664 0.50088 0.0
C425 C 0.85932 0.62471 0.48282 0.0
C426 C 0.88619 0.65644 0.46507 0.0
C427 C 0.87284 0.69462 0.44688 0.0
C428 C 0.8331 0.70125 0.4461 0.0
C429 C 0.80713 0.66926 0.46349 0.0
C430 C 0.81958 0.63178 0.48165 0.0
C431 C 0.78532 0.60183 0.49599 0.0
C432 C 0.78467 0.56355 0.47498 0.0
C433 C 0.78564 0.58978 0.54174 0.0
C434 C 0.75185 0.62821 0.48258 0.0
C435 C 0.76506 0.66698 0.46401 0.0
C436 C 0.73963 0.69613 0.44758 0.0
C437 C 0.69948 0.68531 0.45016 0.0
C438 C 0.68513 0.64567 0.46909 0.0
C439 C 0.71197 0.61705 0.48578 0.0
H440 H 0.14929 0.25481 0.09476 0.0
H441 H 0.1893 0.29409 0.20496 0.0
H442 H 0.15522 0.35832 0.18813 0.0
H443 H 0.15833 0.36018 0.03396 0.0
H444 H 0.11558 0.35113 1.00483 0.0
H445 H 0.14431 0.30883 0.02453 0.0
H446 H 0.08279 0.26966 0.05939 0.0
H447 H 0.05397 0.31199 0.04016 0.0
H448 H 0.05501 0.29391 0.09323 0.0
H449 H 0.11142 0.41444 0.16349 0.0
H450 H 0.06819 0.46454 0.12828 0.0
H451 H 0.05918 0.39479 0.02956 0.0
C452 C 0.1514 0.27744 0.1148 0.0
C453 C 0.17193 0.26937 0.15143 0.0
C454 C 0.17384 0.29966 0.17694 0.0
C455 C 0.15438 0.33613 0.16765 0.0
C456 C 0.13349 0.34273 0.13209 0.0
C457 C 0.13251 0.31479 0.10551 0.0
C458 C 0.10792 0.33019 0.06918 0.0
C459 C 0.13304 0.33805 0.03085 0.0
C460 C 0.07284 0.29961 0.06527 0.0
C461 C 0.0947 0.37058 0.07996 0.0
C462 C 0.10961 0.3767 0.11669 0.0
C463 C 0.10008 0.41022 0.13446 0.0
C464 C 0.07515 0.43849 0.11423 0.0
C465 C 0.0601 0.43402 0.07598 0.0
C466 C 0.07034 0.39946 0.05855 0.0
H467 H 0.64387 0.33513 0.95894 0.0
H468 H 0.6998 0.29458 0.85904 0.0
H469 H 0.67323 0.22315 0.88199 0.0
H470 H 0.65804 0.23592 0.03229 0.0
H471 H 0.61191 0.23902 0.05651 0.0
H472 H 0.63997 0.28553 0.03526 0.0
H473 H 0.58012 0.3089 0.99332 0.0
H474 H 0.55226 0.26193 1.0133 0.0
H475 H 0.55853 0.27626 0.95995 0.0
H476 H 0.62996 0.1605 0.90726 0.0
H477 H 0.58584 0.1046 0.94373 0.0
H478 H 0.56284 0.18203 0.03234 0.0
C479 C 0.65214 0.31065 0.94338 0.0
C480 C 0.67448 0.31991 0.90767 0.0
C481 C 0.68356 0.28759 0.88697 0.0
C482 C 0.66815 0.24715 0.8995 0.0
C483 C 0.64441 0.23927 0.93352 0.0
C484 C 0.6377 0.26963 0.95624 0.0
C485 C 0.61034 0.25269 0.99111 0.0
C486 C 0.63132 0.25332 0.03117 0.0
C487 C 0.57312 0.27637 0.98928 0.0
C488 C 0.60146 0.2088 0.98328 0.0
C489 C 0.62107 0.20199 0.94955 0.0
C490 C 0.61518 0.1651 0.93427 0.0
C491 C 0.58967 0.13378 0.95478 0.0
C492 C 0.57089 0.13923 0.99052 0.0
C493 C 0.57686 0.17724 1.00495 0.0
H494 H 0.04237 0.69935 0.49448 0.0
H495 H 0.99017 0.73424 0.37912 0.0
H496 H 1.01651 0.80551 0.37746 0.0
H497 H 1.0111 0.77484 0.53391 0.0
H498 H 0.05207 0.78602 0.56466 0.0
H499 H 0.04419 0.73564 0.55097 0.0
H500 H 0.1135 0.74125 0.51983 0.0
H501 H 0.12203 0.7915 0.53438 0.0
H502 H 0.12858 0.78511 0.48292 0.0
H503 H 0.0278 0.87333 0.39692 0.0
H504 H 0.03129 0.93319 0.43247 0.0
H505 H 0.07516 0.85817 0.53767 0.0
C506 C 0.03901 0.72169 0.46783 0.0
C507 C 1.01518 0.71111 0.43643 0.0
C508 C 1.00964 0.74115 0.40262 0.0
C509 C 1.02408 0.78204 0.4018 0.0
C510 C 0.04406 0.79242 0.43507 0.0
C511 C 0.05242 0.76298 0.46725 0.0
C512 C 0.06752 0.78313 0.50229 0.0
C513 C 0.04219 0.76906 0.54014 0.0
C514 C 0.11047 0.77476 0.51032 0.0
C515 C 0.06328 0.82818 0.48594 0.0
C516 C 0.05048 0.83277 0.4468 0.0
C517 C 0.0391 0.87036 0.42701 0.0
C518 C 0.0407 0.90406 0.44763 0.0
C519 C 0.05368 0.90017 0.48764 0.0
C520 C 0.06595 0.862 0.50677 0.0
H521 H 0.44992 0.74964 0.65612 0.0
H522 H 0.39615 0.66062 0.7512 0.0
H523 H 0.41221 0.6037 0.71504 0.0
H524 H 0.41779 0.70102 0.57574 0.0
H525 H 0.46204 0.7128 0.54646 0.0
H526 H 0.44888 0.74615 0.58097 0.0
H527 H 0.51524 0.73755 0.6167 0.0
H528 H 0.52894 0.70479 0.58181 0.0
H529 H 0.53003 0.6865 0.63484 0.0
H530 H 0.42842 0.55801 0.66549 0.0
H531 H 0.45191 0.52468 0.61051 0.0
H532 H 0.49796 0.64372 0.54858 0.0
C533 C 0.4425 0.718 0.66949 0.0
C534 C 0.42222 0.70891 0.70629 0.0
C535 C 0.41221 0.66757 0.72318 0.0
C536 C 0.42093 0.63535 0.70274 0.0
C537 C 0.44003 0.64532 0.6658 0.0
C538 C 0.45143 0.68557 0.6497 0.0
C539 C 0.4713 0.68798 0.60941 0.0
C540 C 0.44864 0.7135 0.57619 0.0
C541 C 0.51391 0.70521 0.61079 0.0
C542 C 0.4688 0.64283 0.60507 0.0
C543 C 0.45032 0.61883 0.63775 0.0
C544 C 0.44334 0.5764 0.63996 0.0
C545 C 0.45651 0.55783 0.60841 0.0
C546 C 0.47681 0.58164 0.57531 0.0
C547 C 0.48265 0.62474 0.57356 0.0
H548 H 0.84358 0.90192 0.76395 0.0
H549 H 0.93367 0.88618 0.85365 0.0
H550 H 0.984 0.90341 0.80051 0.0
H551 H 0.89491 0.865 0.68312 0.0
H552 H 0.87749 0.90346 0.64455 0.0
H553 H 0.8485 0.88592 0.68906 0.0
H554 H 0.84655 0.9611 0.7021 0.0
H555 H 0.87556 0.97889 0.65767 0.0
H556 H 0.89164 0.99168 0.7052 0.0
H557 H 0.02524 0.92537 0.73719 0.0
H558 H 0.05384 0.95102 0.67066 0.0
H559 H 0.93785 0.95873 0.62035 0.0
C560 C 0.8739 0.90195 0.7725 0.0
C561 C 0.88426 0.89194 0.81358 0.0
C562 C 0.9245 0.89229 0.82286 0.0
C563 C 0.95346 0.90264 0.79266 0.0
C564 C 0.94218 0.91318 0.75281 0.0
C565 C 0.90329 0.91304 0.74265 0.0
C566 C 0.89903 0.92768 0.69774 0.0
C567 C 0.87878 0.89347 0.67742 0.0
C568 C 0.87688 0.96718 0.69024 0.0
C569 C 0.94159 0.93627 0.68414 0.0
C570 C 0.96589 0.92728 0.7165 0.0
C571 C 1.00632 0.93245 0.71181 0.0
C572 C 1.02238 0.94715 0.67352 0.0
C573 C 0.99849 0.95722 0.63952 0.0
C574 C 0.95726 0.95153 0.6453 0.0
H575 H 0.73764 0.20525 0.30604 0.0
H576 H 0.77825 0.29378 0.20402 0.0
H577 H 0.75076 0.2473 0.15837 0.0
H578 H 0.75294 0.10979 0.26016 0.0
H579 H 0.70968 0.08353 0.28462 0.0
H580 H 0.73819 0.12083 0.30825 0.0
H581 H 0.67642 0.16054 0.31384 0.0
H582 H 0.64787 0.12414 0.28944 0.0
H583 H 0.64975 0.17827 0.26926 0.0
H584 H 0.70941 0.19689 0.12503 0.0
H585 H 0.66313 0.14282 0.10571 0.0
H586 H 0.65151 0.08572 0.22989 0.0
C587 C 0.74236 0.21374 0.27412 0.0
C588 C 0.7605 0.25249 0.25822 0.0
C589 C 0.76477 0.26382 0.21637 0.0
C590 C 0.74922 0.23769 0.19043 0.0
C591 C 0.73008 0.2002 0.20706 0.0
C592 C 0.72733 0.18785 0.24799 0.0
C593 C 0.70267 0.14771 0.25837 0.0
C594 C 0.72735 0.11343 0.27907 0.0
C595 C 0.66708 0.15302 0.28424 0.0
C596 C 0.69062 0.1402 0.21696 0.0
C597 C 0.70684 0.17073 0.18776 0.0
C598 C 0.69724 0.17234 0.14755 0.0
C599 C 0.67063 0.14179 0.13691 0.0
C600 C 0.65398 0.11004 0.16633 0.0
C601 C 0.66444 0.10918 0.20677 0.0
H602 H 0.42626 0.65936 0.22456 0.0
H603 H 0.31049 0.65698 0.2755 0.0
H604 H 0.33437 0.62495 0.34107 0.0
H605 H 0.45369 0.56533 0.27601 0.0
H606 H 0.50336 0.58194 0.28566 0.0
H607 H 0.47839 0.60744 0.24297 0.0
H608 H 0.49207 0.67782 0.26713 0.0
H609 H 0.51782 0.65267 0.3095 0.0
H610 H 0.47791 0.68351 0.31714 0.0
H611 H 0.36788 0.58387 0.39755 0.0
H612 H 0.41264 0.54921 0.44708 0.0
H613 H 0.50927 0.58447 0.36372 0.0
C614 C 0.40641 0.65316 0.24992 0.0
C615 C 0.36638 0.66004 0.24504 0.0
C616 C 0.34109 0.65135 0.27872 0.0
C617 C 0.35438 0.63312 0.31598 0.0
C618 C 0.39347 0.62475 0.31952 0.0
C619 C 0.41953 0.63567 0.2879 0.0
C620 C 0.46015 0.62332 0.30038 0.0
C621 C 0.47474 0.59269 0.27472 0.0
C622 C 0.48868 0.66161 0.29843 0.0
C623 C 0.45242 0.60276 0.34339 0.0
C624 C 0.41357 0.60348 0.35349 0.0
C625 C 0.39855 0.58387 0.39037 0.0
C626 C 0.42408 0.56391 0.41815 0.0
C627 C 0.46432 0.56437 0.4093 0.0
C628 C 0.47863 0.58403 0.37136 0.0
H629 H 0.13412 0.35529 0.76517 0.0
H630 H 0.16672 0.45965 0.6741 0.0
H631 H 0.15742 0.50715 0.72251 0.0
H632 H 0.05725 0.40003 0.80455 0.0
H633 H 0.06447 0.37753 0.85589 0.0
H634 H 0.08001 0.35187 0.8161 0.0
H635 H 0.14991 0.35163 0.84502 0.0
H636 H 0.13458 0.37791 0.88467 0.0
H637 H 0.1751 0.39956 0.85266 0.0
H638 H 0.13639 0.54303 0.77639 0.0
H639 H 0.10046 0.56545 0.8316 0.0
H640 H 0.08137 0.43882 0.8889 0.0
C641 C 0.13965 0.38814 0.75584 0.0
C642 C 0.15154 0.40411 0.71633 0.0
C643 C 0.15831 0.44713 0.70462 0.0
C644 C 0.15323 0.47418 0.73188 0.0
C645 C 0.14142 0.45758 0.77072 0.0
C646 C 0.13451 0.41559 0.78274 0.0
C647 C 0.11776 0.40616 0.82478 0.0
C648 C 0.07748 0.38253 0.82534 0.0
C649 C 0.14604 0.38241 0.85348 0.0
C650 C 0.11471 0.44949 0.83378 0.0
C651 C 0.12933 0.47863 0.80244 0.0
C652 C 0.12582 0.52066 0.80161 0.0
C653 C 0.10557 0.53316 0.83293 0.0
C654 C 0.08941 0.50378 0.86449 0.0
C655 C 0.09504 0.46165 0.86566 0.0
H656 H 0.78856 0.91978 0.95666 0.0
H657 H 0.73649 0.90929 0.84181 0.0
H658 H 0.67518 0.934 0.86465 0.0
H659 H 0.70157 0.88654 1.01728 0.0
H660 H 0.71087 0.92244 0.05186 0.0
H661 H 0.75096 0.90428 0.02676 0.0
H662 H 0.77519 0.97951 0.99955 0.0
H663 H 0.73522 0.9979 0.02463 0.0
H664 H 0.74238 0.01337 0.97151 0.0
H665 H 0.61865 0.95775 0.90023 0.0
H666 H 0.57159 0.98238 0.9439 0.0
H667 H 0.65836 0.9805 0.03746 0.0
C668 C 0.76418 0.92271 0.93639 0.0
C669 C 0.76754 0.91253 0.89711 0.0
C670 C 0.73492 0.91716 0.87162 0.0
C671 C 0.69985 0.93101 0.88453 0.0
C672 C 0.69739 0.94055 0.92326 0.0
C673 C 0.72873 0.93693 0.94884 0.0
C674 C 0.71804 0.94983 0.98884 0.0
C675 C 0.72051 0.91361 0.02323 0.0
C676 C 0.74427 0.98739 0.99659 0.0
C677 C 0.6758 0.96106 0.98181 0.0
C678 C 0.66469 0.95515 0.94372 0.0
C679 C 0.62721 0.96261 0.93 0.0
C680 C 0.60047 0.97665 0.95538 0.0
C681 C 0.61064 0.98371 0.99461 0.0
C682 C 0.64922 0.97563 1.00785 0.0
H683 H 0.77648 0.21349 0.37907 0.0
H684 H 0.85484 0.26465 0.28135 0.0
H685 H 0.90005 0.20969 0.30281 0.0
H686 H 0.84719 0.18683 0.45172 0.0
H687 H 0.82161 0.13932 0.47439 0.0
H688 H 0.79475 0.18082 0.44946 0.0
H689 H 0.76244 0.13207 0.40385 0.0
H690 H 0.7892 0.0903 0.42868 0.0
H691 H 0.79273 0.10466 0.37511 0.0
H692 H 0.93912 0.15358 0.33935 0.0
H693 H 0.96762 0.09763 0.38541 0.0
H694 H 0.86214 0.08135 0.45781 0.0
C695 C 0.80317 0.2128 0.36231 0.0
C696 C 0.81292 0.24326 0.32907 0.0
C697 C 0.84744 0.24142 0.30705 0.0
C698 C 0.87305 0.21043 0.31901 0.0
C699 C 0.86307 0.18121 0.35257 0.0
C700 C 0.82868 0.18179 0.37356 0.0
C701 C 0.82508 0.14736 0.40894 0.0
C702 C 0.82199 0.16463 0.44845 0.0
C703 C 0.7903 0.11678 0.40383 0.0
C704 C 0.86348 0.12812 0.40549 0.0
C705 C 0.88491 0.148 0.37269 0.0
C706 C 0.92238 0.13741 0.36476 0.0
C707 C 0.9384 0.10583 0.39116 0.0
C708 C 0.91693 0.08509 0.42491 0.0
C709 C 0.87883 0.09614 0.43177 0.0
H710 H 0.23189 0.6473 0.17907 0.0
H711 H 0.31109 0.66236 0.07768 0.0
H712 H 0.25678 0.6431 0.03451 0.0
H713 H 0.17579 0.55823 0.15459 0.0
H714 H 0.13014 0.57365 0.17158 0.0
H715 H 0.17516 0.58951 0.19378 0.0
H716 H 0.15839 0.66584 0.17645 0.0
H717 H 0.11351 0.65009 0.1539 0.0
H718 H 0.14806 0.68684 0.12537 0.0
H719 H 0.19404 0.6207 1.00301 0.0
H720 H 0.12801 0.59495 0.98572 0.0
H721 H 0.08961 0.59453 0.108 0.0
C722 C 0.23766 0.64622 0.14783 0.0
C723 C 0.27549 0.65625 0.13147 0.0
C724 C 0.28212 0.65503 0.09045 0.0
C725 C 0.25153 0.64411 0.06585 0.0
C726 C 0.21445 0.63453 0.08281 0.0
C727 C 0.2074 0.63535 0.1229 0.0
C728 C 0.16503 0.62302 0.13382 0.0
C729 C 0.16133 0.58377 0.1653 0.0
C730 C 0.14508 0.65858 0.14823 0.0
C731 C 0.14942 0.6149 0.09369 0.0
C732 C 0.17834 0.62184 0.06463 0.0
C733 C 0.17111 0.61536 0.02548 0.0
C734 C 0.13347 0.60081 1.01591 0.0
C735 C 0.1035 0.59292 0.04538 0.0
C736 C 0.11168 0.60062 0.08463 0.0
H737 H 0.20928 0.40853 0.57928 0.0
H738 H 0.21417 0.27989 0.62848 0.0
H739 H 0.27299 0.27607 0.58805 0.0
H740 H 0.26389 0.4086 0.4786 0.0
H741 H 0.28942 0.45704 0.484 0.0
H742 H 0.23988 0.44582 0.50201 0.0
H743 H 0.26182 0.46029 0.57199 0.0
H744 H 0.31124 0.47072 0.55469 0.0
H745 H 0.29988 0.43155 0.59735 0.0
H746 H 0.3386 0.29009 0.55744 0.0
H747 H 0.40513 0.31969 0.54261 0.0
H748 H 0.36218 0.44237 0.52112 0.0
C749 C 0.22174 0.37916 0.57949 0.0
C750 C 0.2069 0.34427 0.60593 0.0
C751 C 0.22426 0.30646 0.60719 0.0
C752 C 0.25793 0.30423 0.58447 0.0
C753 C 0.2739 0.34022 0.5611 0.0
C754 C 0.25616 0.37709 0.5583 0.0
C755 C 0.28328 0.41314 0.53963 0.0
C756 C 0.26822 0.43227 0.49861 0.0
C757 C 0.28942 0.44578 0.5676 0.0
C758 C 0.31998 0.3913 0.53524 0.0
C759 C 0.3135 0.34915 0.54612 0.0
C760 C 0.34385 0.323 0.54826 0.0
C761 C 0.38187 0.34039 0.54028 0.0
C762 C 0.38962 0.3838 0.5314 0.0
C763 C 0.35781 0.40921 0.52751 0.0
H764 H 0.86218 0.78137 0.85461 0.0
H765 H 0.90422 0.86253 0.9365 0.0
H766 H 0.94032 0.80649 0.9738 0.0
H767 H 0.84685 0.69177 0.92506 0.0
H768 H 0.86371 0.65598 0.89472 0.0
H769 H 0.84437 0.70326 0.87129 0.0
H770 H 0.90795 0.72296 0.82994 0.0
H771 H 0.92731 0.67537 0.85273 0.0
H772 H 0.95411 0.72387 0.85525 0.0
H773 H 0.96333 0.7396 1.00826 0.0
H774 H 0.98115 0.6686 0.03206 0.0
H775 H 0.93021 0.62898 0.92598 0.0
C776 C 0.88041 0.78763 0.87934 0.0
C777 C 0.88126 0.82683 0.89209 0.0
C778 C 0.90407 0.83325 0.92568 0.0
C779 C 0.92432 0.8014 0.94726 0.0
C780 C 0.922 0.76285 0.93486 0.0
C781 C 0.90147 0.75593 0.9011 0.0
C782 C 0.9032 0.71093 0.89529 0.0
C783 C 0.86208 0.68922 0.89667 0.0
C784 C 0.92441 0.70812 0.85596 0.0
C785 C 0.92702 0.69362 0.93147 0.0
C786 C 0.93707 0.72424 0.95402 0.0
C787 C 0.95634 0.71563 0.99037 0.0
C788 C 0.96614 0.67502 1.00383 0.0
C789 C 0.95753 0.64311 0.98089 0.0
C790 C 0.93779 0.65275 0.94397 0.0
H791 H 0.40808 0.73455 0.11953 0.0
H792 H 0.37469 0.74723 0.23994 0.0
H793 H 0.41696 0.81206 0.23472 0.0
H794 H 0.50753 0.78767 0.11446 0.0
H795 H 0.50009 0.81277 0.06401 0.0
H796 H 0.47632 0.76267 0.08136 0.0
H797 H 0.40947 0.79131 0.06137 0.0
H798 H 0.43286 0.8415 0.04448 0.0
H799 H 0.3945 0.83534 0.08166 0.0
H800 H 0.45766 0.88008 0.21258 0.0
H801 H 0.48778 0.94553 0.17531 0.0
H802 H 0.48395 0.89235 0.06598 0.0
C803 C 0.41057 0.75048 0.14516 0.0
C804 C 0.38844 0.73579 0.18024 0.0
C805 C 0.39207 0.75745 0.21314 0.0
C806 C 0.41577 0.79448 0.21021 0.0
C807 C 0.43514 0.80956 0.174 0.0
C808 C 0.43252 0.78813 0.14198 0.0
C809 C 0.45047 0.81341 0.10436 0.0
C810 C 0.4857 0.7929 0.09023 0.0
C811 C 0.42001 0.82083 0.07103 0.0
C812 C 0.46306 0.85289 0.11981 0.0
C813 C 0.45511 0.84976 0.1603 0.0
C814 C 0.46406 0.88268 0.18095 0.0
C815 C 0.48115 0.91969 0.15959 0.0
C816 C 0.48791 0.92388 0.11784 0.0
C817 C 0.47891 0.88994 0.09788 0.0
H818 H 0.1548 0.2515 0.66568 0.0
H819 H 0.09543 0.34075 0.58417 0.0
H820 H 0.06201 0.28406 0.55341 0.0
H821 H 0.17303 0.18523 0.59361 0.0
H822 H 0.16683 0.13862 0.62951 0.0
H823 H 0.1839 0.18626 0.64557 0.0
H824 H 0.12724 0.17771 0.69741 0.0
H825 H 0.10976 0.13024 0.68123 0.0
H826 H 0.07767 0.17142 0.68078 0.0
H827 H 0.03513 0.21673 0.53264 0.0
H828 H 1.02155 0.14542 0.51893 0.0
H829 H 0.10221 0.10153 0.61222 0.0
C830 C 0.13498 0.25878 0.6411 0.0
C831 C 0.12764 0.29989 0.62665 0.0
C832 C 0.10129 0.30905 0.595 0.0
C833 C 0.08223 0.27718 0.57768 0.0
C834 C 0.09025 0.23663 0.59246 0.0
C835 C 0.11638 0.22747 0.62316 0.0
C836 C 0.12141 0.18175 0.63245 0.0
C837 C 0.1638 0.17242 0.62481 0.0
C838 C 0.10822 0.16426 0.67553 0.0
C839 C 0.094 0.16644 0.60224 0.0
C840 C 0.07587 0.19839 0.57975 0.0
C841 C 0.04922 0.19149 0.55001 0.0
C842 C 0.04155 0.15093 0.54258 0.0
C843 C 0.06089 0.11808 0.56448 0.0
C844 C 0.08705 0.12606 0.59493 0.0
H845 H 0.75207 0.40288 0.3457 0.0
H846 H 0.68 0.28983 0.346 0.0
H847 H 0.6265 0.31891 0.37888 0.0
H848 H 0.71964 0.42243 0.44302 0.0
H849 H 0.72037 0.47754 0.42845 0.0
H850 H 0.75312 0.44809 0.40468 0.0
H851 H 0.72648 0.4782 0.33538 0.0
H852 H 0.69345 0.50748 0.35902 0.0
H853 H 0.67486 0.47273 0.32618 0.0
H854 H 0.58149 0.359 0.41 0.0
H855 H 0.54645 0.4073 0.44251 0.0
H856 H 0.64677 0.49615 0.42433 0.0
C857 C 0.72494 0.38458 0.35294 0.0
C858 C 0.71951 0.34441 0.34331 0.0
C859 C 0.68404 0.32078 0.35312 0.0
C860 C 0.65372 0.33702 0.37165 0.0
C861 C 0.65955 0.3769 0.38037 0.0
C862 C 0.69422 0.40041 0.37175 0.0
C863 C 0.69248 0.44223 0.38514 0.0
C864 C 0.72323 0.44789 0.41724 0.0
C865 C 0.69709 0.47723 0.34928 0.0
C866 C 0.65144 0.43831 0.40254 0.0
C867 C 0.63317 0.40034 0.39915 0.0
C868 C 0.5954 0.38884 0.41297 0.0
C869 C 0.57576 0.41662 0.43141 0.0
C870 C 0.59385 0.45557 0.43605 0.0
C871 C 0.63213 0.46673 0.42101 0.0
loop_
_geom_bond_atom_site_label_1
_geom_bond_atom_site_label_2
_geom_bond_distance
_geom_bond_site_symmetry_2
_ccdc_geom_bond_type
C0 N1 1.317 . S
C0 N2 1.348 . S
C0 C3 1.485 . S
N1 C0 1.317 . S
N1 N5 1.370 . S
N2 C0 1.348 . S
N2 C4 1.346 . S
C3 C0 1.485 . S
C3 H7 0.960 . S
C3 H8 0.961 . S
C3 H9 0.960 . S
C4 N2 1.346 . S
C4 N5 1.307 . S
C4 C6 1.486 . S
N5 N1 1.370 . S
N5 C4 1.307 . S
C6 C4 1.486 . S
C6 H10 0.960 . S
C6 H11 0.960 . S
C6 H12 0.959 . S
H7 C3 0.960 . S
H8 C3 0.961 . S
H9 C3 0.960 . S
H10 C6 0.960 . S
H11 C6 0.960 . S
H12 C6 0.959 . S
C13 N14 1.317 . S
C13 N15 1.348 . S
C13 C16 1.485 . S
N14 C13 1.317 . S
N14 N18 1.370 . S
N15 C13 1.348 . S
N15 C17 1.346 . S
C16 C13 1.485 . S
C16 H20 0.960 . S
C16 H21 0.961 . S
C16 H22 0.960 . S
C17 N15 1.346 . S
C17 N18 1.307 . S
C17 C19 1.486 . S
N18 N14 1.370 . S
N18 C17 1.307 . S
C19 C17 1.486 . S
C19 H23 0.960 . S
C19 H24 0.960 . S
C19 H25 0.959 . S
H20 C16 0.960 . S
H21 C16 0.961 . S
H22 C16 0.960 . S
H23 C19 0.960 . S
H24 C19 0.960 . S
H25 C19 0.959 . S
C26 N27 1.317 . S
C26 N28 1.348 . S
C26 C29 1.485 . S
N27 C26 1.317 . S
N27 N31 1.370 . S
N28 C26 1.348 . S
N28 C30 1.346 . S
C29 C26 1.485 . S
C29 H33 0.960 . S
C29 H34 0.961 . S
C29 H35 0.960 . S
C30 N28 1.346 . S
C30 N31 1.307 . S
C30 C32 1.486 . S
N31 N27 1.370 . S
N31 C30 1.307 . S
C32 C30 1.486 . S
C32 H36 0.960 . S
C32 H37 0.960 . S
C32 H38 0.959 . S
H33 C29 0.960 . S
H34 C29 0.961 . S
H35 C29 0.960 . S
H36 C32 0.960 . S
H37 C32 0.960 . S
H38 C32 0.959 . S
C39 N40 1.317 . S
C39 N41 1.348 . S
C39 C42 1.485 . S
N40 C39 1.317 . S
N40 N44 1.370 . S
N41 C39 1.348 . S
N41 C43 1.346 . S
C42 C39 1.485 . S
C42 H46 0.960 . S
C42 H47 0.961 . S
C42 H48 0.960 . S
C43 N41 1.346 . S
C43 N44 1.307 . S
C43 C45 1.486 . S
N44 N40 1.370 . S
N44 C43 1.307 . S
C45 C43 1.486 . S
C45 H49 0.960 . S
C45 H50 0.960 . S
C45 H51 0.959 . S
H46 C42 0.960 . S
H47 C42 0.961 . S
H48 C42 0.960 . S
H49 C45 0.960 . S
H50 C45 0.960 . S
H51 C45 0.959 . S
C52 N53 1.317 . S
C52 N54 1.348 . S
C52 C55 1.485 . S
N53 C52 1.317 . S
N53 N57 1.370 . S
N54 C52 1.348 . S
N54 C56 1.346 . S
C55 C52 1.485 . S
C55 H59 0.960 . S
C55 H60 0.961 . S
C55 H61 0.960 . S
C56 N54 1.346 . S
C56 N57 1.307 . S
C56 C58 1.486 . S
N57 N53 1.370 . S
N57 C56 1.307 . S
C58 C56 1.486 . S
C58 H62 0.960 1_565 S
C58 H63 0.960 . S
C58 H64 0.959 . S
H59 C55 0.960 . S
H60 C55 0.961 . S
H61 C55 0.960 . S
H62 C58 0.960 1_545 S
H63 C58 0.960 . S
H64 C58 0.959 . S
C65 N66 1.317 . S
C65 N67 1.348 . S
C65 C68 1.485 . S
N66 C65 1.317 . S
N66 N70 1.370 . S
N67 C65 1.348 . S
N67 C69 1.346 . S
C68 C65 1.485 . S
C68 H72 0.960 . S
C68 H73 0.961 . S
C68 H74 0.960 . S
C69 N67 1.346 . S
C69 N70 1.307 . S
C69 C71 1.486 . S
N70 N66 1.370 . S
N70 C69 1.307 . S
C71 C69 1.486 . S
C71 H75 0.960 . S
C71 H76 0.960 . S
C71 H77 0.959 . S
H72 C68 0.960 . S
H73 C68 0.961 . S
H74 C68 0.960 . S
H75 C71 0.960 . S
H76 C71 0.960 . S
H77 C71 0.959 . S
C78 N79 1.317 . S
C78 N80 1.348 . S
C78 C81 1.485 . S
N79 C78 1.317 . S
N79 N83 1.370 . S
N80 C78 1.348 . S
N80 C82 1.346 . S
C81 C78 1.485 . S
C81 H85 0.960 . S
C81 H86 0.961 . S
C81 H87 0.960 . S
C82 N80 1.346 . S
C82 N83 1.307 . S
C82 C84 1.486 . S
N83 N79 1.370 . S
N83 C82 1.307 . S
C84 C82 1.486 . S
C84 H88 0.960 . S
C84 H89 0.960 . S
C84 H90 0.959 . S
H85 C81 0.960 . S
H86 C81 0.961 . S
H87 C81 0.960 . S
H88 C84 0.960 . S
H89 C84 0.960 . S
H90 C84 0.959 . S
C91 N92 1.317 . S
C91 N93 1.348 . S
C91 C94 1.485 . S
N92 C91 1.317 . S
N92 N96 1.370 . S
N93 C91 1.348 . S
N93 C95 1.346 . S
C94 C91 1.485 . S
C94 H98 0.960 . S
C94 H99 0.961 . S
C94 H100 0.960 . S
C95 N93 1.346 . S
C95 N96 1.307 . S
C95 C97 1.486 . S
N96 N92 1.370 . S
N96 C95 1.307 . S
C97 C95 1.486 . S
C97 H101 0.960 . S
C97 H102 0.960 . S
C97 H103 0.959 . S
H98 C94 0.960 . S
H99 C94 0.961 . S
H100 C94 0.960 . S
H101 C97 0.960 . S
H102 C97 0.960 . S
H103 C97 0.959 . S
Co104 N109 2.057 1_455 S
Co104 O121 2.021 . S
Co104 O124 2.062 . S
Co104 O128 2.117 1_445 S
Co104 O129 2.020 1_455 S
C105 O125 1.259 . S
C105 O128 1.258 1_455 S
Co106 N115 2.057 . S
Co106 O122 2.117 1_565 S
Co106 O123 2.020 1_565 S
Co106 O125 2.021 . S
Co106 O130 2.062 . S
C107 N109 1.316 . S
C107 N110 1.347 . S
C107 H112 0.931 . S
C108 N109 1.375 . S
C108 C111 1.350 . S
C108 H113 0.930 1_545 S
N109 Co104 2.057 1_655 S
N109 C107 1.316 . S
N109 C108 1.375 . S
N110 C107 1.347 . S
N110 C111 1.373 . S
C111 C108 1.350 . S
C111 N110 1.373 . S
C111 H132 0.931 . S
H112 C107 0.931 . S
H113 C108 0.930 1_565 S
C114 O121 1.259 . S
C114 O122 1.258 . S
N115 Co106 2.057 . S
N115 C116 1.316 . S
N115 C117 1.375 1_565 S
C116 N115 1.316 . S
C116 N118 1.347 . S
C116 H127 0.931 . S
C117 N115 1.375 1_545 S
C117 C119 1.350 . S
C117 H126 0.930 . S
N118 C116 1.347 . S
N118 C119 1.373 1_565 S
C119 C117 1.350 . S
C119 N118 1.373 1_545 S
C119 H133 0.931 . S
C120 O123 1.256 . S
C120 O124 1.255 . S
O121 Co104 2.021 . S
O121 C114 1.259 . S
O122 Co106 2.117 1_545 S
O122 C114 1.258 . S
O123 Co106 2.020 1_545 S
O123 C120 1.256 . S
O124 Co104 2.062 . S
O124 C120 1.255 . S
O125 C105 1.259 . S
O125 Co106 2.021 . S
H126 C117 0.930 . S
H127 C116 0.931 . S
O128 Co104 2.117 1_665 S
O128 C105 1.258 1_655 S
O129 Co104 2.020 1_655 S
O129 C131 1.256 1_645 S
O130 Co106 2.062 . S
O130 C131 1.255 . S
C131 O129 1.256 1_465 S
C131 O130 1.255 . S
H132 C111 0.931 . S
H133 C119 0.931 . S
Co134 N139 2.057 1_545 S
Co134 O151 2.021 . S
Co134 O154 2.061 . S
Co134 O158 2.117 1_546 S
Co134 O159 2.020 1_556 S
C135 O155 1.259 . S
C135 O158 1.258 . S
Co136 N145 2.057 . S
Co136 O152 2.117 . S
Co136 O153 2.020 . S
Co136 O155 2.021 1_545 S
Co136 O160 2.062 . S
C137 N139 1.317 . S
C137 N140 1.349 . S
C137 H142 0.928 1_565 S
C138 N139 1.375 . S
C138 C141 1.350 . S
C138 H143 0.930 . S
N139 Co134 2.057 1_565 S
N139 C137 1.317 . S
N139 C138 1.375 . S
N140 C137 1.349 . S
N140 C141 1.373 . S
C141 C138 1.350 . S
C141 N140 1.373 . S
C141 H162 0.931 . S
H142 C137 0.928 1_545 S
H143 C138 0.930 . S
C144 O151 1.259 . S
C144 O152 1.258 1_556 S
N145 Co136 2.057 . S
N145 C146 1.316 . S
N145 C147 1.375 . S
C146 N145 1.316 . S
C146 N148 1.347 . S
C146 H157 0.931 . S
C147 N145 1.375 . S
C147 C149 1.350 . S
C147 H156 0.930 . S
N148 C146 1.347 . S
N148 C149 1.373 . S
C149 C147 1.350 . S
C149 N148 1.373 . S
C149 H163 0.931 . S
C150 O153 1.250 1_565 S
C150 O154 1.254 1_564 S
O151 Co134 2.021 . S
O151 C144 1.259 . S
O152 Co136 2.117 . S
O152 C144 1.258 1_554 S
O153 Co136 2.020 . S
O153 C150 1.250 1_545 S
O154 Co134 2.061 . S
O154 C150 1.254 1_546 S
O155 C135 1.259 . S
O155 Co136 2.021 1_565 S
H156 C147 0.930 . S
H157 C146 0.931 . S
O158 Co134 2.117 1_564 S
O158 C135 1.258 . S
O159 Co134 2.020 1_554 S
O159 C161 1.256 . S
O160 Co136 2.062 . S
O160 C161 1.255 . S
C161 O159 1.256 . S
C161 O160 1.255 . S
H162 C141 0.931 . S
H163 C149 0.931 . S
Co164 N169 2.057 . S
Co164 O181 2.021 . S
Co164 O184 2.062 . S
Co164 O188 2.117 . S
Co164 O189 2.020 . S
C165 O185 1.259 . S
C165 O188 1.258 . S
Co166 N175 2.057 . S
Co166 O182 2.117 . S
Co166 O183 2.020 . S
Co166 O185 2.021 . S
Co166 O190 2.062 . S
C167 N169 1.316 . S
C167 N170 1.347 . S
C167 H172 0.931 . S
C168 N169 1.375 . S
C168 C171 1.350 . S
C168 H173 0.930 . S
N169 Co164 2.057 . S
N169 C167 1.316 . S
N169 C168 1.375 . S
N170 C167 1.347 . S
N170 C171 1.373 . S
C171 C168 1.350 . S
C171 N170 1.373 . S
C171 H192 0.931 . S
H172 C167 0.931 . S
H173 C168 0.930 . S
C174 O181 1.259 . S
C174 O182 1.258 . S
N175 Co166 2.057 . S
N175 C176 1.316 . S
N175 C177 1.375 . S
C176 N175 1.316 . S
C176 N178 1.347 . S
C176 H187 0.931 . S
C177 N175 1.375 . S
C177 C179 1.350 . S
C177 H186 0.930 . S
N178 C176 1.347 . S
N178 C179 1.373 . S
C179 C177 1.350 . S
C179 N178 1.373 . S
C179 H193 0.931 . S
C180 O183 1.256 . S
C180 O184 1.255 . S
O181 Co164 2.021 . S
O181 C174 1.259 . S
O182 Co166 2.117 . S
O182 C174 1.258 . S
O183 Co166 2.020 . S
O183 C180 1.256 . S
O184 Co164 2.062 . S
O184 C180 1.255 . S
O185 C165 1.259 . S
O185 Co166 2.021 . S
H186 C177 0.930 . S
H187 C176 0.931 . S
O188 Co164 2.117 . S
O188 C165 1.258 . S
O189 Co164 2.020 . S
O189 C191 1.256 . S
O190 Co166 2.062 . S
O190 C191 1.255 . S
C191 O189 1.256 . S
C191 O190 1.255 . S
H192 C171 0.931 . S
H193 C179 0.931 . S
Co194 N199 2.057 . S
Co194 O211 2.021 . S
Co194 O214 2.062 . S
Co194 O218 2.117 1_455 S
Co194 O219 2.020 1_455 S
C195 O215 1.259 1_556 S
C195 O218 1.258 . S
Co196 N205 2.057 . S
Co196 O212 2.117 1_655 S
Co196 O213 2.020 1_655 S
Co196 O215 2.021 . S
Co196 O220 2.062 . S
C197 N199 1.316 . S
C197 N200 1.347 . S
C197 H202 0.931 . S
C198 N199 1.375 1_655 S
C198 C201 1.350 1_655 S
C198 H203 0.930 . S
N199 Co194 2.057 . S
N199 C197 1.316 . S
N199 C198 1.375 1_455 S
N200 C197 1.347 . S
N200 C201 1.373 . S
C201 C198 1.350 1_455 S
C201 N200 1.373 . S
C201 H222 0.931 1_455 S
H202 C197 0.931 . S
H203 C198 0.930 . S
C204 O211 1.259 1_554 S
C204 O212 1.258 . S
N205 Co196 2.057 . S
N205 C206 1.316 . S
N205 C207 1.375 1_655 S
C206 N205 1.316 . S
C206 N208 1.347 . S
C206 H217 0.931 . S
C207 N205 1.375 1_455 S
C207 C209 1.350 . S
C207 H216 0.930 . S
N208 C206 1.347 . S
N208 C209 1.373 1_655 S
C209 C207 1.350 . S
C209 N208 1.373 1_455 S
C209 H223 0.931 . S
C210 O213 1.256 . S
C210 O214 1.255 1_554 S
O211 Co194 2.021 . S
O211 C204 1.259 1_556 S
O212 Co196 2.117 1_455 S
O212 C204 1.258 . S
O213 Co196 2.020 1_455 S
O213 C210 1.256 . S
O214 Co194 2.062 . S
O214 C210 1.255 1_556 S
O215 C195 1.259 1_554 S
O215 Co196 2.021 . S
H216 C207 0.930 . S
H217 C206 0.931 . S
O218 Co194 2.117 1_655 S
O218 C195 1.258 . S
O219 Co194 2.020 1_655 S
O219 C221 1.256 . S
O220 Co196 2.062 . S
O220 C221 1.255 1_554 S
C221 O219 1.256 . S
C221 O220 1.255 1_556 S
H222 C201 0.931 1_655 S
H223 C209 0.931 . S
H224 C236 0.930 . S
H225 C238 0.930 . S
H226 C239 0.930 . S
H227 C243 0.959 . S
H228 C243 0.961 . S
H229 C243 0.961 . S
H230 C244 0.952 1_565 S
H231 C244 0.961 1_565 S
H232 C244 0.959 . S
H233 C247 0.929 . S
H234 C248 0.931 . S
H235 C250 0.930 . S
C236 H224 0.930 . S
C236 C237 1.399 . S
C236 C241 1.399 . S
C237 C236 1.399 . S
C237 C238 1.376 . S
C238 H225 0.930 . S
C238 C237 1.376 . S
C238 C239 1.388 . S
C239 H226 0.930 . S
C239 C238 1.388 . S
C239 C240 1.390 . S
C240 C239 1.390 . S
C240 C241 1.394 . S
C240 C246 1.465 . S
C241 C236 1.399 . S
C241 C240 1.394 . S
C241 C242 1.516 . S
C242 C241 1.516 . S
C242 C243 1.502 . S
C242 C244 1.561 . S
C242 C245 1.526 . S
C243 H227 0.959 . S
C243 H228 0.961 . S
C243 H229 0.961 . S
C243 C242 1.502 . S
C244 H230 0.952 1_545 S
C244 H231 0.961 1_545 S
C244 H232 0.959 . S
C244 C242 1.561 . S
C245 C242 1.526 . S
C245 C246 1.396 . S
C245 C250 1.390 . S
C246 C240 1.465 . S
C246 C245 1.396 . S
C246 C247 1.399 . S
C247 H233 0.929 . S
C247 C246 1.399 . S
C247 C248 1.385 . S
C248 H234 0.931 . S
C248 C247 1.385 . S
C248 C249 1.389 . S
C249 C248 1.389 . S
C249 C250 1.387 . S
C250 H235 0.930 . S
C250 C245 1.390 . S
C250 C249 1.387 . S
H251 C263 0.930 . S
H252 C265 0.930 . S
H253 C266 0.930 . S
H254 C270 0.959 . S
H255 C270 0.959 1_545 S
H256 C270 0.960 1_545 S
H257 C271 0.960 . S
H258 C271 0.961 . S
H259 C271 0.959 1_565 S
H260 C274 0.929 . S
H261 C275 0.931 . S
H262 C277 0.930 1_545 S
C263 H251 0.930 . S
C263 C264 1.399 . S
C263 C268 1.399 . S
C264 C263 1.399 . S
C264 C265 1.376 . S
C265 H252 0.930 . S
C265 C264 1.376 . S
C265 C266 1.388 . S
C266 H253 0.930 . S
C266 C265 1.388 . S
C266 C267 1.390 . S
C267 C266 1.390 . S
C267 C268 1.394 . S
C267 C273 1.465 . S
C268 C263 1.399 . S
C268 C267 1.394 . S
C268 C269 1.516 . S
C269 C268 1.516 . S
C269 C270 1.502 . S
C269 C271 1.561 1_565 S
C269 C272 1.526 . S
C270 H254 0.959 . S
C270 H255 0.959 1_565 S
C270 H256 0.960 1_565 S
C270 C269 1.502 . S
C271 H257 0.960 . S
C271 H258 0.961 . S
C271 H259 0.959 1_545 S
C271 C269 1.561 1_545 S
C272 C269 1.526 . S
C272 C273 1.396 . S
C272 C277 1.390 . S
C273 C267 1.465 . S
C273 C272 1.396 . S
C273 C274 1.399 . S
C274 H260 0.929 . S
C274 C273 1.399 . S
C274 C275 1.385 . S
C275 H261 0.931 . S
C275 C274 1.385 . S
C275 C276 1.389 . S
C276 C275 1.389 . S
C276 C277 1.387 . S
C277 H262 0.930 1_565 S
C277 C272 1.390 . S
C277 C276 1.387 . S
H278 C290 0.930 . S
H279 C292 0.930 . S
H280 C293 0.930 . S
H281 C297 0.959 . S
H282 C297 0.959 . S
H283 C297 0.961 . S
H284 C298 0.960 . S
H285 C298 0.961 . S
H286 C298 0.959 . S
H287 C301 0.929 . S
H288 C302 0.931 . S
H289 C304 0.930 . S
C290 H278 0.930 . S
C290 C291 1.399 . S
C290 C295 1.399 . S
C291 C290 1.399 . S
C291 C292 1.376 . S
C292 H279 0.930 . S
C292 C291 1.376 . S
C292 C293 1.388 . S
C293 H280 0.930 . S
C293 C292 1.388 . S
C293 C294 1.390 . S
C294 C293 1.390 . S
C294 C295 1.394 . S
C294 C300 1.465 . S
C295 C290 1.399 . S
C295 C294 1.394 . S
C295 C296 1.516 . S
C296 C295 1.516 . S
C296 C297 1.502 . S
C296 C298 1.561 . S
C296 C299 1.526 . S
C297 H281 0.959 . S
C297 H282 0.959 . S
C297 H283 0.961 . S
C297 C296 1.502 . S
C298 H284 0.960 . S
C298 H285 0.961 . S
C298 H286 0.959 . S
C298 C296 1.561 . S
C299 C296 1.526 . S
C299 C300 1.396 . S
C299 C304 1.390 . S
C300 C294 1.465 . S
C300 C299 1.396 . S
C300 C301 1.399 . S
C301 H287 0.929 . S
C301 C300 1.399 . S
C301 C302 1.385 . S
C302 H288 0.931 . S
C302 C301 1.385 . S
C302 C303 1.389 . S
C303 C302 1.389 . S
C303 C304 1.387 . S
C304 H289 0.930 . S
C304 C299 1.390 . S
C304 C303 1.387 . S
H305 C317 0.930 . S
H306 C319 0.930 . S
H307 C320 0.930 1_455 S
H308 C324 0.959 . S
H309 C324 0.959 . S
H310 C324 0.961 . S
H311 C325 0.960 . S
H312 C325 0.961 . S
H313 C325 0.959 . S
H314 C328 0.929 1_455 S
H315 C329 0.931 1_455 S
H316 C331 0.930 . S
C317 H305 0.930 . S
C317 C318 1.399 . S
C317 C322 1.399 . S
C318 C317 1.399 . S
C318 C319 1.376 . S
C319 H306 0.930 . S
C319 C318 1.376 . S
C319 C320 1.388 . S
C320 H307 0.930 1_655 S
C320 C319 1.388 . S
C320 C321 1.390 . S
C321 C320 1.390 . S
C321 C322 1.394 . S
C321 C327 1.465 . S
C322 C317 1.399 . S
C322 C321 1.394 . S
C322 C323 1.516 . S
C323 C322 1.516 . S
C323 C324 1.502 . S
C323 C325 1.561 . S
C323 C326 1.526 . S
C324 H308 0.959 . S
C324 H309 0.959 . S
C324 H310 0.961 . S
C324 C323 1.502 . S
C325 H311 0.960 . S
C325 H312 0.961 . S
C325 H313 0.959 . S
C325 C323 1.561 . S
C326 C323 1.526 . S
C326 C327 1.396 . S
C326 C331 1.390 . S
C327 C321 1.465 . S
C327 C326 1.396 . S
C327 C328 1.399 . S
C328 H314 0.929 1_655 S
C328 C327 1.399 . S
C328 C329 1.385 . S
C329 H315 0.931 1_655 S
C329 C328 1.385 . S
C329 C330 1.389 . S
C330 C329 1.389 . S
C330 C331 1.387 . S
C331 H316 0.930 . S
C331 C326 1.390 . S
C331 C330 1.387 . S
H332 C344 0.930 . S
H333 C346 0.930 . S
H334 C347 0.930 . S
H335 C351 0.961 . S
H336 C351 0.954 1_556 S
H337 C351 0.959 1_556 S
H338 C352 0.960 . S
H339 C352 0.966 . S
H340 C352 0.959 . S
H341 C355 0.929 . S
H342 C356 0.931 . S
H343 C358 0.930 . S
C344 H332 0.930 . S
C344 C345 1.399 . S
C344 C349 1.399 . S
C345 C344 1.399 . S
C345 C346 1.376 . S
C346 H333 0.930 . S
C346 C345 1.376 . S
C346 C347 1.388 . S
C347 H334 0.930 . S
C347 C346 1.388 . S
C347 C348 1.390 . S
C348 C347 1.390 . S
C348 C349 1.394 . S
C348 C354 1.465 . S
C349 C344 1.399 . S
C349 C348 1.394 . S
C349 C350 1.516 . S
C350 C349 1.516 . S
C350 C351 1.507 . S
C350 C352 1.561 . S
C350 C353 1.526 . S
C351 H335 0.961 . S
C351 H336 0.954 1_554 S
C351 H337 0.959 1_554 S
C351 C350 1.507 . S
C352 H338 0.960 . S
C352 H339 0.966 . S
C352 H340 0.959 . S
C352 C350 1.561 . S
C353 C350 1.526 . S
C353 C354 1.396 . S
C353 C358 1.390 . S
C354 C348 1.465 . S
C354 C353 1.396 . S
C354 C355 1.399 . S
C355 H341 0.929 . S
C355 C354 1.399 . S
C355 C356 1.385 . S
C356 H342 0.931 . S
C356 C355 1.385 . S
C356 C357 1.389 . S
C357 C356 1.389 . S
C357 C358 1.387 . S
C358 H343 0.930 . S
C358 C353 1.390 . S
C358 C357 1.387 . S
H359 C371 0.930 . S
H360 C373 0.930 . S
H361 C374 0.930 . S
H362 C378 0.959 . S
H363 C378 0.959 . S
H364 C378 0.961 . S
H365 C379 0.960 . S
H366 C379 0.961 1_545 S
H367 C379 0.957 1_545 S
H368 C382 0.929 . S
H369 C383 0.931 . S
H370 C385 0.930 . S
C371 H359 0.930 . S
C371 C372 1.399 . S
C371 C376 1.399 . S
C372 C371 1.399 . S
C372 C373 1.376 . S
C373 H360 0.930 . S
C373 C372 1.376 . S
C373 C374 1.388 . S
C374 H361 0.930 . S
C374 C373 1.388 . S
C374 C375 1.390 . S
C375 C374 1.390 . S
C375 C376 1.394 . S
C375 C381 1.465 . S
C376 C371 1.399 . S
C376 C375 1.394 . S
C376 C377 1.516 . S
C377 C376 1.516 . S
C377 C378 1.502 . S
C377 C379 1.561 . S
C377 C380 1.526 . S
C378 H362 0.959 . S
C378 H363 0.959 . S
C378 H364 0.961 . S
C378 C377 1.502 . S
C379 H365 0.960 . S
C379 H366 0.961 1_565 S
C379 H367 0.957 1_565 S
C379 C377 1.561 . S
C380 C377 1.526 . S
C380 C381 1.396 . S
C380 C385 1.390 . S
C381 C375 1.465 . S
C381 C380 1.396 . S
C381 C382 1.399 . S
C382 H368 0.929 . S
C382 C381 1.399 . S
C382 C383 1.385 . S
C383 H369 0.931 . S
C383 C382 1.385 . S
C383 C384 1.389 . S
C384 C383 1.389 . S
C384 C385 1.387 . S
C385 H370 0.930 . S
C385 C380 1.390 . S
C385 C384 1.387 . S
H386 C398 0.930 . S
H387 C400 0.930 . S
H388 C401 0.930 . S
H389 C405 0.959 . S
H390 C405 0.959 1_554 S
H391 C405 0.961 . S
H392 C406 0.960 . S
H393 C406 0.961 . S
H394 C406 0.959 . S
H395 C409 0.929 . S
H396 C410 0.931 . S
H397 C412 0.930 1_554 S
C398 H386 0.930 . S
C398 C399 1.399 . S
C398 C403 1.399 . S
C399 C398 1.399 . S
C399 C400 1.376 . S
C400 H387 0.930 . S
C400 C399 1.376 . S
C400 C401 1.388 . S
C401 H388 0.930 . S
C401 C400 1.388 . S
C401 C402 1.390 . S
C402 C401 1.390 . S
C402 C403 1.394 . S
C402 C408 1.465 . S
C403 C398 1.399 . S
C403 C402 1.394 . S
C403 C404 1.516 . S
C404 C403 1.516 . S
C404 C405 1.502 . S
C404 C406 1.561 1_556 S
C404 C407 1.526 . S
C405 H389 0.959 . S
C405 H390 0.959 1_556 S
C405 H391 0.961 . S
C405 C404 1.502 . S
C406 H392 0.960 . S
C406 H393 0.961 . S
C406 H394 0.959 . S
C406 C404 1.561 1_554 S
C407 C404 1.526 . S
C407 C408 1.396 . S
C407 C412 1.390 . S
C408 C402 1.465 . S
C408 C407 1.396 . S
C408 C409 1.399 . S
C409 H395 0.929 . S
C409 C408 1.399 . S
C409 C410 1.385 . S
C410 H396 0.931 . S
C410 C409 1.385 . S
C410 C411 1.389 . S
C411 C410 1.389 . S
C411 C412 1.387 . S
C412 H397 0.930 1_556 S
C412 C407 1.390 . S
C412 C411 1.387 . S
H413 C425 0.930 . S
H414 C427 0.930 . S
H415 C428 0.930 . S
H416 C432 0.959 . S
H417 C432 0.959 . S
H418 C432 0.961 . S
H419 C433 0.960 . S
H420 C433 0.961 . S
H421 C433 0.959 . S
H422 C436 0.929 . S
H423 C437 0.931 . S
H424 C439 0.930 . S
C425 H413 0.930 . S
C425 C426 1.399 . S
C425 C430 1.399 . S
C426 C425 1.399 . S
C426 C427 1.376 . S
C427 H414 0.930 . S
C427 C426 1.376 . S
C427 C428 1.388 . S
C428 H415 0.930 . S
C428 C427 1.388 . S
C428 C429 1.390 . S
C429 C428 1.390 . S
C429 C430 1.394 . S
C429 C435 1.465 . S
C430 C425 1.399 . S
C430 C429 1.394 . S
C430 C431 1.516 . S
C431 C430 1.516 . S
C431 C432 1.502 . S
C431 C433 1.561 . S
C431 C434 1.526 . S
C432 H416 0.959 . S
C432 H417 0.959 . S
C432 H418 0.961 . S
C432 C431 1.502 . S
C433 H419 0.960 . S
C433 H420 0.961 . S
C433 H421 0.959 . S
C433 C431 1.561 . S
C434 C431 1.526 . S
C434 C435 1.396 . S
C434 C439 1.390 . S
C435 C429 1.465 . S
C435 C434 1.396 . S
C435 C436 1.399 . S
C436 H422 0.929 . S
C436 C435 1.399 . S
C436 C437 1.385 . S
C437 H423 0.931 . S
C437 C436 1.385 . S
C437 C438 1.389 . S
C438 C437 1.389 . S
C438 C439 1.387 . S
C439 H424 0.930 . S
C439 C434 1.390 . S
C439 C438 1.387 . S
H440 C452 0.930 . S
H441 C454 0.930 . S
H442 C455 0.930 . S
H443 C459 0.959 1_554 S
H444 C459 0.959 . S
H445 C459 0.961 . S
H446 C460 0.960 . S
H447 C460 0.961 . S
H448 C460 0.959 . S
H449 C463 0.929 . S
H450 C464 0.931 . S
H451 C466 0.930 1_556 S
C452 H440 0.930 . S
C452 C453 1.399 . S
C452 C457 1.399 . S
C453 C452 1.399 . S
C453 C454 1.376 . S
C454 H441 0.930 . S
C454 C453 1.376 . S
C454 C455 1.388 . S
C455 H442 0.930 . S
C455 C454 1.388 . S
C455 C456 1.390 . S
C456 C455 1.390 . S
C456 C457 1.394 . S
C456 C462 1.465 . S
C457 C452 1.399 . S
C457 C456 1.394 . S
C457 C458 1.516 . S
C458 C457 1.516 . S
C458 C459 1.502 1_554 S
C458 C460 1.561 1_554 S
C458 C461 1.526 . S
C459 H443 0.959 1_556 S
C459 H444 0.959 . S
C459 H445 0.961 . S
C459 C458 1.502 1_556 S
C460 H446 0.960 . S
C460 H447 0.961 . S
C460 H448 0.959 . S
C460 C458 1.561 1_556 S
C461 C458 1.526 . S
C461 C462 1.396 . S
C461 C466 1.390 . S
C462 C456 1.465 . S
C462 C461 1.396 . S
C462 C463 1.399 . S
C463 H449 0.929 . S
C463 C462 1.399 . S
C463 C464 1.385 . S
C464 H450 0.931 . S
C464 C463 1.385 . S
C464 C465 1.389 . S
C465 C464 1.389 . S
C465 C466 1.387 . S
C466 H451 0.930 1_554 S
C466 C461 1.390 . S
C466 C465 1.387 . S
H467 C479 0.930 . S
H468 C481 0.930 . S
H469 C482 0.930 . S
H470 C486 0.959 . S
H471 C486 0.959 1_554 S
H472 C486 0.956 1_554 S
H473 C487 0.960 . S
H474 C487 0.961 . S
H475 C487 0.959 . S
H476 C490 0.929 . S
H477 C491 0.931 . S
H478 C493 0.930 1_554 S
C479 H467 0.930 . S
C479 C480 1.399 . S
C479 C484 1.399 . S
C480 C479 1.399 . S
C480 C481 1.376 . S
C481 H468 0.930 . S
C481 C480 1.376 . S
C481 C482 1.388 . S
C482 H469 0.930 . S
C482 C481 1.388 . S
C482 C483 1.390 . S
C483 C482 1.390 . S
C483 C484 1.394 . S
C483 C489 1.465 . S
C484 C479 1.399 . S
C484 C483 1.394 . S
C484 C485 1.516 . S
C485 C484 1.516 . S
C485 C486 1.502 . S
C485 C487 1.561 1_556 S
C485 C488 1.526 . S
C486 H470 0.959 . S
C486 H471 0.959 1_556 S
C486 H472 0.956 1_556 S
C486 C485 1.502 . S
C487 H473 0.960 . S
C487 H474 0.961 . S
C487 H475 0.959 . S
C487 C485 1.561 1_554 S
C488 C485 1.526 . S
C488 C489 1.396 . S
C488 C493 1.390 . S
C489 C483 1.465 . S
C489 C488 1.396 . S
C489 C490 1.399 . S
C490 H476 0.929 . S
C490 C489 1.399 . S
C490 C491 1.385 . S
C491 H477 0.931 . S
C491 C490 1.385 . S
C491 C492 1.389 . S
C492 C491 1.389 . S
C492 C493 1.387 . S
C493 H478 0.930 1_556 S
C493 C488 1.390 . S
C493 C492 1.387 . S
H494 C506 0.930 . S
H495 C508 0.930 . S
H496 C509 0.913 1_455 S
H497 C513 0.959 . S
H498 C513 0.959 . S
H499 C513 0.961 . S
H500 C514 0.960 . S
H501 C514 0.961 . S
H502 C514 0.959 1_455 S
H503 C517 0.929 . S
H504 C518 0.931 . S
H505 C520 0.930 . S
C506 H494 0.930 . S
C506 C507 1.399 . S
C506 C511 1.399 . S
C507 C506 1.399 . S
C507 C508 1.376 . S
C508 H495 0.930 . S
C508 C507 1.376 . S
C508 C509 1.388 . S
C509 H496 0.913 1_655 S
C509 C508 1.388 . S
C509 C510 1.390 . S
C510 C509 1.390 . S
C510 C511 1.394 . S
C510 C516 1.465 . S
C511 C506 1.399 . S
C511 C510 1.394 . S
C511 C512 1.516 . S
C512 C511 1.516 . S
C512 C513 1.502 . S
C512 C514 1.561 . S
C512 C515 1.526 . S
C513 H497 0.959 . S
C513 H498 0.959 . S
C513 H499 0.961 . S
C513 C512 1.502 . S
C514 H500 0.960 . S
C514 H501 0.961 . S
C514 H502 0.959 1_655 S
C514 C512 1.561 . S
C515 C512 1.526 . S
C515 C516 1.396 . S
C515 C520 1.390 . S
C516 C510 1.465 . S
C516 C515 1.396 . S
C516 C517 1.399 1_655 S
C517 H503 0.929 . S
C517 C516 1.399 1_455 S
C517 C518 1.385 . S
C518 H504 0.931 . S
C518 C517 1.385 . S
C518 C519 1.389 . S
C519 C518 1.389 . S
C519 C520 1.387 1_455 S
C520 H505 0.930 . S
C520 C515 1.390 . S
C520 C519 1.387 1_655 S
H521 C533 0.930 . S
H522 C535 0.930 . S
H523 C536 0.930 . S
H524 C540 0.959 . S
H525 C540 0.959 . S
H526 C540 0.961 . S
H527 C541 0.960 . S
H528 C541 0.961 . S
H529 C541 0.959 . S
H530 C544 0.929 . S
H531 C545 0.931 . S
H532 C547 0.930 . S
C533 H521 0.930 . S
C533 C534 1.399 . S
C533 C538 1.399 . S
C534 C533 1.399 . S
C534 C535 1.376 . S
C535 H522 0.930 . S
C535 C534 1.376 . S
C535 C536 1.388 . S
C536 H523 0.930 . S
C536 C535 1.388 . S
C536 C537 1.390 . S
C537 C536 1.390 . S
C537 C538 1.394 . S
C537 C543 1.465 . S
C538 C533 1.399 . S
C538 C537 1.394 . S
C538 C539 1.516 . S
C539 C538 1.516 . S
C539 C540 1.502 . S
C539 C541 1.561 . S
C539 C542 1.526 . S
C540 H524 0.959 . S
C540 H525 0.959 . S
C540 H526 0.961 . S
C540 C539 1.502 . S
C541 H527 0.960 . S
C541 H528 0.961 . S
C541 H529 0.959 . S
C541 C539 1.561 . S
C542 C539 1.526 . S
C542 C543 1.396 . S
C542 C547 1.390 . S
C543 C537 1.465 . S
C543 C542 1.396 . S
C543 C544 1.399 . S
C544 H530 0.929 . S
C544 C543 1.399 . S
C544 C545 1.385 . S
C545 H531 0.931 . S
C545 C544 1.385 . S
C545 C546 1.389 . S
C546 C545 1.389 . S
C546 C547 1.387 . S
C547 H532 0.930 . S
C547 C542 1.390 . S
C547 C546 1.387 . S
H548 C560 0.930 . S
H549 C562 0.930 . S
H550 C563 0.930 1_545 S
H551 C567 0.959 . S
H552 C567 0.959 . S
H553 C567 0.961 1_655 S
H554 C568 0.960 . S
H555 C568 0.961 . S
H556 C568 0.959 . S
H557 C571 0.929 . S
H558 C572 0.931 . S
H559 C574 0.930 1_455 S
C560 H548 0.930 . S
C560 C561 1.399 . S
C560 C565 1.399 . S
C561 C560 1.399 . S
C561 C562 1.376 . S
C562 H549 0.930 . S
C562 C561 1.376 . S
C562 C563 1.388 . S
C563 H550 0.930 1_565 S
C563 C562 1.388 . S
C563 C564 1.390 . S
C564 C563 1.390 . S
C564 C565 1.394 . S
C564 C570 1.465 . S
C565 C560 1.399 . S
C565 C564 1.394 . S
C565 C566 1.516 . S
C566 C565 1.516 . S
C566 C567 1.502 1_655 S
C566 C568 1.561 . S
C566 C569 1.526 . S
C567 H551 0.959 . S
C567 H552 0.959 . S
C567 H553 0.961 1_455 S
C567 C566 1.502 1_455 S
C568 H554 0.960 . S
C568 H555 0.961 . S
C568 H556 0.959 . S
C568 C566 1.561 . S
C569 C566 1.526 . S
C569 C570 1.396 . S
C569 C574 1.390 . S
C570 C564 1.465 . S
C570 C569 1.396 . S
C570 C571 1.399 1_565 S
C571 H557 0.929 . S
C571 C570 1.399 1_545 S
C571 C572 1.385 . S
C572 H558 0.931 . S
C572 C571 1.385 . S
C572 C573 1.389 1_645 S
C573 C572 1.389 1_465 S
C573 C574 1.386 1_455 S
C574 H559 0.930 1_655 S
C574 C569 1.390 . S
C574 C573 1.386 1_655 S
H575 C587 0.930 . S
H576 C589 0.930 . S
H577 C590 0.930 . S
H578 C594 0.959 . S
H579 C594 0.959 . S
H580 C594 0.961 . S
H581 C595 0.960 . S
H582 C595 0.961 . S
H583 C595 0.959 . S
H584 C598 0.929 . S
H585 C599 0.931 . S
H586 C601 0.930 . S
C587 H575 0.930 . S
C587 C588 1.399 . S
C587 C592 1.399 . S
C588 C587 1.399 . S
C588 C589 1.376 . S
C589 H576 0.930 . S
C589 C588 1.376 . S
C589 C590 1.388 . S
C590 H577 0.930 . S
C590 C589 1.388 . S
C590 C591 1.390 . S
C591 C590 1.390 . S
C591 C592 1.394 . S
C591 C597 1.465 . S
C592 C587 1.399 . S
C592 C591 1.394 . S
C592 C593 1.516 . S
C593 C592 1.516 . S
C593 C594 1.502 . S
C593 C595 1.561 . S
C593 C596 1.526 . S
C594 H578 0.959 . S
C594 H579 0.959 . S
C594 H580 0.961 . S
C594 C593 1.502 . S
C595 H581 0.960 . S
C595 H582 0.961 . S
C595 H583 0.959 . S
C595 C593 1.561 . S
C596 C593 1.526 . S
C596 C597 1.396 . S
C596 C601 1.390 . S
C597 C591 1.465 . S
C597 C596 1.396 . S
C597 C598 1.399 . S
C598 H584 0.929 . S
C598 C597 1.399 . S
C598 C599 1.385 . S
C599 H585 0.931 . S
C599 C598 1.385 . S
C599 C600 1.389 . S
C600 C599 1.389 . S
C600 C601 1.387 . S
C601 H586 0.930 . S
C601 C596 1.390 . S
C601 C600 1.387 . S
H602 C614 0.930 . S
H603 C616 0.930 . S
H604 C617 0.930 . S
H605 C621 0.959 . S
H606 C621 0.959 . S
H607 C621 0.961 . S
H608 C622 0.960 . S
H609 C622 0.961 . S
H610 C622 0.959 . S
H611 C625 0.929 . S
H612 C626 0.931 . S
H613 C628 0.930 . S
C614 H602 0.930 . S
C614 C615 1.399 . S
C614 C619 1.399 . S
C615 C614 1.399 . S
C615 C616 1.376 . S
C616 H603 0.930 . S
C616 C615 1.376 . S
C616 C617 1.388 . S
C617 H604 0.930 . S
C617 C616 1.388 . S
C617 C618 1.390 . S
C618 C617 1.390 . S
C618 C619 1.394 . S
C618 C624 1.465 . S
C619 C614 1.399 . S
C619 C618 1.394 . S
C619 C620 1.516 . S
C620 C619 1.516 . S
C620 C621 1.502 . S
C620 C622 1.561 . S
C620 C623 1.526 . S
C621 H605 0.959 . S
C621 H606 0.959 . S
C621 H607 0.961 . S
C621 C620 1.502 . S
C622 H608 0.960 . S
C622 H609 0.961 . S
C622 H610 0.959 . S
C622 C620 1.561 . S
C623 C620 1.526 . S
C623 C624 1.396 . S
C623 C628 1.390 . S
C624 C618 1.465 . S
C624 C623 1.396 . S
C624 C625 1.399 . S
C625 H611 0.929 . S
C625 C624 1.399 . S
C625 C626 1.385 . S
C626 H612 0.931 . S
C626 C625 1.385 . S
C626 C627 1.389 . S
C627 C626 1.389 . S
C627 C628 1.387 . S
C628 H613 0.930 . S
C628 C623 1.390 . S
C628 C627 1.387 . S
H629 C641 0.930 . S
H630 C643 0.930 . S
H631 C644 0.930 . S
H632 C648 0.959 1_655 S
H633 C648 0.959 1_655 S
H634 C648 0.961 1_655 S
H635 C649 0.960 . S
H636 C649 0.961 . S
H637 C649 0.959 . S
H638 C652 0.929 . S
H639 C653 0.931 . S
H640 C655 0.930 . S
C641 H629 0.930 . S
C641 C642 1.399 . S
C641 C646 1.399 . S
C642 C641 1.399 . S
C642 C643 1.376 . S
C643 H630 0.930 . S
C643 C642 1.376 . S
C643 C644 1.388 . S
C644 H631 0.930 . S
C644 C643 1.388 . S
C644 C645 1.390 . S
C645 C644 1.390 . S
C645 C646 1.394 . S
C645 C651 1.465 . S
C646 C641 1.399 . S
C646 C645 1.394 . S
C646 C647 1.516 . S
C647 C646 1.516 . S
C647 C648 1.502 . S
C647 C649 1.561 . S
C647 C650 1.526 . S
C648 H632 0.959 1_455 S
C648 H633 0.959 1_455 S
C648 H634 0.961 1_455 S
C648 C647 1.502 . S
C649 H635 0.960 . S
C649 H636 0.961 . S
C649 H637 0.959 . S
C649 C647 1.561 . S
C650 C647 1.526 . S
C650 C651 1.396 . S
C650 C655 1.390 . S
C651 C645 1.465 . S
C651 C650 1.396 . S
C651 C652 1.399 . S
C652 H638 0.929 . S
C652 C651 1.399 . S
C652 C653 1.385 . S
C653 H639 0.931 . S
C653 C652 1.385 . S
C653 C654 1.389 . S
C654 C653 1.389 . S
C654 C655 1.387 . S
C655 H640 0.930 . S
C655 C650 1.390 . S
C655 C654 1.387 . S
H656 C668 0.930 . S
H657 C670 0.930 . S
H658 C671 0.930 1_545 S
H659 C675 0.959 1_556 S
H660 C675 0.959 . S
H661 C675 0.961 . S
H662 C676 0.960 . S
H663 C676 0.961 . S
H664 C676 0.959 . S
H665 C679 0.929 . S
H666 C680 0.931 . S
H667 C682 0.930 . S
C668 H656 0.930 . S
C668 C669 1.399 . S
C668 C673 1.399 . S
C669 C668 1.399 . S
C669 C670 1.376 . S
C670 H657 0.930 . S
C670 C669 1.376 . S
C670 C671 1.388 . S
C671 H658 0.930 1_565 S
C671 C670 1.388 . S
C671 C672 1.390 . S
C672 C671 1.390 . S
C672 C673 1.394 . S
C672 C678 1.465 . S
C673 C668 1.399 . S
C673 C672 1.394 . S
C673 C674 1.516 1_556 S
C674 C673 1.516 1_554 S
C674 C675 1.502 . S
C674 C676 1.561 . S
C674 C677 1.526 1_554 S
C675 H659 0.959 1_554 S
C675 H660 0.959 . S
C675 H661 0.961 . S
C675 C674 1.502 . S
C676 H662 0.960 . S
C676 H663 0.961 . S
C676 H664 0.959 . S
C676 C674 1.561 . S
C677 C674 1.526 1_556 S
C677 C678 1.396 . S
C677 C682 1.390 1_556 S
C678 C672 1.465 . S
C678 C677 1.396 . S
C678 C679 1.399 1_565 S
C679 H665 0.929 . S
C679 C678 1.399 1_545 S
C679 C680 1.385 . S
C680 H666 0.931 . S
C680 C679 1.385 . S
C680 C681 1.389 1_545 S
C681 C680 1.389 1_565 S
C681 C682 1.387 1_556 S
C682 H667 0.930 . S
C682 C677 1.390 1_554 S
C682 C681 1.387 1_554 S
H683 C695 0.930 . S
H684 C697 0.930 . S
H685 C698 0.930 . S
H686 C702 0.959 . S
H687 C702 0.959 . S
H688 C702 0.961 . S
H689 C703 0.960 . S
H690 C703 0.961 . S
H691 C703 0.959 . S
H692 C706 0.929 . S
H693 C707 0.931 . S
H694 C709 0.930 . S
C695 H683 0.930 . S
C695 C696 1.399 . S
C695 C700 1.399 . S
C696 C695 1.399 . S
C696 C697 1.376 . S
C697 H684 0.930 . S
C697 C696 1.376 . S
C697 C698 1.388 . S
C698 H685 0.930 . S
C698 C697 1.388 . S
C698 C699 1.390 . S
C699 C698 1.390 . S
C699 C700 1.394 . S
C699 C705 1.465 . S
C700 C695 1.399 . S
C700 C699 1.394 . S
C700 C701 1.516 . S
C701 C700 1.516 . S
C701 C702 1.502 . S
C701 C703 1.561 . S
C701 C704 1.526 . S
C702 H686 0.959 . S
C702 H687 0.959 . S
C702 H688 0.961 . S
C702 C701 1.502 . S
C703 H689 0.960 . S
C703 H690 0.961 . S
C703 H691 0.959 . S
C703 C701 1.561 . S
C704 C701 1.526 . S
C704 C705 1.396 . S
C704 C709 1.390 . S
C705 C699 1.465 . S
C705 C704 1.396 . S
C705 C706 1.399 . S
C706 H692 0.929 . S
C706 C705 1.399 . S
C706 C707 1.385 . S
C707 H693 0.931 . S
C707 C706 1.385 . S
C707 C708 1.389 . S
C708 C707 1.389 . S
C708 C709 1.387 . S
C709 H694 0.930 . S
C709 C704 1.390 . S
C709 C708 1.387 . S
H710 C722 0.930 . S
H711 C724 0.930 . S
H712 C725 0.930 . S
H713 C729 0.959 . S
H714 C729 0.959 . S
H715 C729 0.961 . S
H716 C730 0.960 . S
H717 C730 0.961 . S
H718 C730 0.959 1_556 S
H719 C733 0.929 . S
H720 C734 0.931 . S
H721 C736 0.930 . S
C722 H710 0.930 . S
C722 C723 1.399 . S
C722 C727 1.399 . S
C723 C722 1.399 . S
C723 C724 1.376 . S
C724 H711 0.930 . S
C724 C723 1.376 . S
C724 C725 1.388 . S
C725 H712 0.930 . S
C725 C724 1.388 . S
C725 C726 1.390 . S
C726 C725 1.390 . S
C726 C727 1.394 . S
C726 C732 1.465 . S
C727 C722 1.399 . S
C727 C726 1.394 . S
C727 C728 1.516 . S
C728 C727 1.516 . S
C728 C729 1.502 . S
C728 C730 1.561 . S
C728 C731 1.526 . S
C729 H713 0.959 . S
C729 H714 0.959 . S
C729 H715 0.961 . S
C729 C728 1.502 . S
C730 H716 0.960 . S
C730 H717 0.961 . S
C730 H718 0.959 1_554 S
C730 C728 1.561 . S
C731 C728 1.526 . S
C731 C732 1.396 . S
C731 C736 1.390 . S
C732 C726 1.465 . S
C732 C731 1.396 . S
C732 C733 1.399 . S
C733 H719 0.929 . S
C733 C732 1.399 . S
C733 C734 1.385 . S
C734 H720 0.931 . S
C734 C733 1.385 . S
C734 C735 1.389 . S
C735 C734 1.389 . S
C735 C736 1.387 . S
C736 H721 0.930 . S
C736 C731 1.390 . S
C736 C735 1.387 . S
H737 C749 0.930 . S
H738 C751 0.930 . S
H739 C752 0.930 . S
H740 C756 0.959 . S
H741 C756 0.959 . S
H742 C756 0.961 . S
H743 C757 0.960 . S
H744 C757 0.961 . S
H745 C757 0.959 . S
H746 C760 0.929 . S
H747 C761 0.931 . S
H748 C763 0.930 . S
C749 H737 0.930 . S
C749 C750 1.399 . S
C749 C754 1.399 . S
C750 C749 1.399 . S
C750 C751 1.376 . S
C751 H738 0.930 . S
C751 C750 1.376 . S
C751 C752 1.388 . S
C752 H739 0.930 . S
C752 C751 1.388 . S
C752 C753 1.390 . S
C753 C752 1.390 . S
C753 C754 1.394 . S
C753 C759 1.465 . S
C754 C749 1.399 . S
C754 C753 1.394 . S
C754 C755 1.516 . S
C755 C754 1.516 . S
C755 C756 1.502 . S
C755 C757 1.561 . S
C755 C758 1.526 . S
C756 H740 0.959 . S
C756 H741 0.959 . S
C756 H742 0.961 . S
C756 C755 1.502 . S
C757 H743 0.960 . S
C757 H744 0.961 . S
C757 H745 0.959 . S
C757 C755 1.561 . S
C758 C755 1.526 . S
C758 C759 1.396 . S
C758 C763 1.390 . S
C759 C753 1.465 . S
C759 C758 1.396 . S
C759 C760 1.399 . S
C760 H746 0.929 . S
C760 C759 1.399 . S
C760 C761 1.385 . S
C761 H747 0.931 . S
C761 C760 1.385 . S
C761 C762 1.389 . S
C762 C761 1.389 . S
C762 C763 1.387 . S
C763 H748 0.930 . S
C763 C758 1.390 . S
C763 C762 1.387 . S
H764 C776 0.930 . S
H765 C778 0.930 . S
H766 C779 0.930 . S
H767 C783 0.959 . S
H768 C783 0.959 . S
H769 C783 0.961 . S
H770 C784 0.960 . S
H771 C784 0.961 . S
H772 C784 0.959 . S
H773 C787 0.929 1_554 S
H774 C788 0.931 . S
H775 C790 0.930 . S
C776 H764 0.930 . S
C776 C777 1.399 . S
C776 C781 1.399 . S
C777 C776 1.399 . S
C777 C778 1.376 . S
C778 H765 0.930 . S
C778 C777 1.376 . S
C778 C779 1.388 . S
C779 H766 0.930 . S
C779 C778 1.388 . S
C779 C780 1.390 . S
C780 C779 1.390 . S
C780 C781 1.394 . S
C780 C786 1.465 . S
C781 C776 1.399 . S
C781 C780 1.394 . S
C781 C782 1.516 . S
C782 C781 1.516 . S
C782 C783 1.502 . S
C782 C784 1.561 . S
C782 C785 1.526 . S
C783 H767 0.959 . S
C783 H768 0.959 . S
C783 H769 0.961 . S
C783 C782 1.502 . S
C784 H770 0.960 . S
C784 H771 0.961 . S
C784 H772 0.959 . S
C784 C782 1.561 . S
C785 C782 1.526 . S
C785 C786 1.396 . S
C785 C790 1.390 . S
C786 C780 1.465 . S
C786 C785 1.396 . S
C786 C787 1.399 . S
C787 H773 0.929 1_556 S
C787 C786 1.399 . S
C787 C788 1.385 1_556 S
C788 H774 0.931 . S
C788 C787 1.385 1_554 S
C788 C789 1.389 1_554 S
C789 C788 1.389 1_556 S
C789 C790 1.387 . S
C790 H775 0.930 . S
C790 C785 1.390 . S
C790 C789 1.387 . S
H791 C803 0.930 . S
H792 C805 0.930 . S
H793 C806 0.930 . S
H794 C810 0.959 . S
H795 C810 0.959 . S
H796 C810 0.961 . S
H797 C811 0.960 . S
H798 C811 0.961 1_556 S
H799 C811 0.959 . S
H800 C814 0.929 . S
H801 C815 0.931 . S
H802 C817 0.930 . S
C803 H791 0.930 . S
C803 C804 1.399 . S
C803 C808 1.399 . S
C804 C803 1.399 . S
C804 C805 1.376 . S
C805 H792 0.930 . S
C805 C804 1.376 . S
C805 C806 1.388 . S
C806 H793 0.930 . S
C806 C805 1.388 . S
C806 C807 1.390 . S
C807 C806 1.390 . S
C807 C808 1.394 . S
C807 C813 1.465 . S
C808 C803 1.399 . S
C808 C807 1.394 . S
C808 C809 1.516 . S
C809 C808 1.516 . S
C809 C810 1.502 . S
C809 C811 1.561 . S
C809 C812 1.526 . S
C810 H794 0.959 . S
C810 H795 0.959 . S
C810 H796 0.961 . S
C810 C809 1.502 . S
C811 H797 0.960 . S
C811 H798 0.961 1_554 S
C811 H799 0.959 . S
C811 C809 1.561 . S
C812 C809 1.526 . S
C812 C813 1.396 . S
C812 C817 1.390 . S
C813 C807 1.465 . S
C813 C812 1.396 . S
C813 C814 1.399 . S
C814 H800 0.929 . S
C814 C813 1.399 . S
C814 C815 1.385 . S
C815 H801 0.931 . S
C815 C814 1.385 . S
C815 C816 1.389 . S
C816 C815 1.389 . S
C816 C817 1.387 . S
C817 H802 0.930 . S
C817 C812 1.390 . S
C817 C816 1.387 . S
H818 C830 0.930 . S
H819 C832 0.930 . S
H820 C833 0.930 . S
H821 C837 0.959 . S
H822 C837 0.959 . S
H823 C837 0.961 . S
H824 C838 0.960 . S
H825 C838 0.961 . S
H826 C838 0.959 . S
H827 C841 0.929 . S
H828 C842 0.931 . S
H829 C844 0.930 . S
C830 H818 0.930 . S
C830 C831 1.399 . S
C830 C835 1.399 . S
C831 C830 1.399 . S
C831 C832 1.376 . S
C832 H819 0.930 . S
C832 C831 1.376 . S
C832 C833 1.388 . S
C833 H820 0.930 . S
C833 C832 1.388 . S
C833 C834 1.390 . S
C834 C833 1.390 . S
C834 C835 1.394 . S
C834 C840 1.465 . S
C835 C830 1.399 . S
C835 C834 1.394 . S
C835 C836 1.516 . S
C836 C835 1.516 . S
C836 C837 1.502 . S
C836 C838 1.561 . S
C836 C839 1.526 . S
C837 H821 0.959 . S
C837 H822 0.959 . S
C837 H823 0.961 . S
C837 C836 1.502 . S
C838 H824 0.960 . S
C838 H825 0.961 . S
C838 H826 0.959 . S
C838 C836 1.561 . S
C839 C836 1.526 . S
C839 C840 1.396 . S
C839 C844 1.390 . S
C840 C834 1.465 . S
C840 C839 1.396 . S
C840 C841 1.399 . S
C841 H827 0.929 . S
C841 C840 1.399 . S
C841 C842 1.385 . S
C842 H828 0.931 . S
C842 C841 1.385 . S
C842 C843 1.389 . S
C843 C842 1.389 . S
C843 C844 1.387 . S
C844 H829 0.930 . S
C844 C839 1.390 . S
C844 C843 1.387 . S
H845 C857 0.930 . S
H846 C859 0.930 . S
H847 C860 0.930 . S
H848 C864 0.959 . S
H849 C864 0.959 . S
H850 C864 0.961 . S
H851 C865 0.960 . S
H852 C865 0.961 . S
H853 C865 0.959 . S
H854 C868 0.929 . S
H855 C869 0.931 . S
H856 C871 0.930 . S
C857 H845 0.930 . S
C857 C858 1.399 . S
C857 C862 1.399 . S
C858 C857 1.399 . S
C858 C859 1.376 . S
C859 H846 0.930 . S
C859 C858 1.376 . S
C859 C860 1.388 . S
C860 H847 0.930 . S
C860 C859 1.388 . S
C860 C861 1.390 . S
C861 C860 1.390 . S
C861 C862 1.394 . S
C861 C867 1.465 . S
C862 C857 1.399 . S
C862 C861 1.394 . S
C862 C863 1.516 . S
C863 C862 1.516 . S
C863 C864 1.502 . S
C863 C865 1.561 . S
C863 C866 1.526 . S
C864 H848 0.959 . S
C864 H849 0.959 . S
C864 H850 0.961 . S
C864 C863 1.502 . S
C865 H851 0.960 . S
C865 H852 0.961 . S
C865 H853 0.959 . S
C865 C863 1.561 . S
C866 C863 1.526 . S
C866 C867 1.396 . S
C866 C871 1.390 . S
C867 C861 1.465 . S
C867 C866 1.396 . S
C867 C868 1.399 . S
C868 H854 0.929 . S
C868 C867 1.399 . S
C868 C869 1.385 . S
C869 H855 0.931 . S
C869 C868 1.385 . S
C869 C870 1.389 . S
C870 C869 1.389 . S
C870 C871 1.387 . S
C871 H856 0.930 . S
C871 C866 1.390 . S
C871 C870 1.387 . S
C237 N1 2.009 . S
C249 C120 2.097 . S
C264 N18 1.373 . S
C276 N140 1.321 . S
C303 C174 1.496 . S
C291 N28 1.518 . S
C318 N40 1.407 . S
C330 N208 1.296 . S
C357 C161 2.615 . S
C345 N5 2.573 . S
C384 N118 1.168 . S
C372 N14 1.168 . S
C411 C195 1.932 . S
C399 N31 1.886 . S
C438 N170 0.674 . S
C426 N41 0.703 . S
C453 N2 1.685 . S
C465 C210 1.719 . S
C492 C144 1.727 . S
C480 N27 1.673 . S
C507 N44 1.534 . S
C519 C105 1.545 . S
C534 N15 1.207 . S
C546 C191 1.214 . S
C573 C131 2.408 . S
C561 N57 2.391 . S
C588 N70 0.954 . S
C600 N148 0.966 . S
C615 N79 1.788 . S
C627 C165 1.821 . S
C642 N93 1.079 . S
C654 N200 1.106 . S
C669 N54 2.229 . S
C681 C150 2.223 1_556 S
C708 N110 1.514 . S
C696 N66 1.568 . S
C735 C204 1.439 . S
C723 N80 1.454 . S
C762 N178 0.931 . S
C750 N96 0.933 . S
C777 N53 1.739 . S
C789 C221 1.765 . S
C816 C135 1.629 . S
C804 N83 1.575 . S
C843 C114 1.547 . S
C831 N92 1.559 . S
C858 N67 1.236 . S
C870 C180 1.223 . S
