# Generated by pormake.
# Topology ctn, (3,4)-cn, num edge types: 1
# Building blocks:
#     Node 0, Type 0, BuildingBlock: ESEHIV_clean_linker_0, # of connection points: 3
#     Node 1, Type 0, BuildingBlock: ESEHIV_clean_linker_0, # of connection points: 3
#     Node 2, Type 0, BuildingBlock: ESEHIV_clean_linker_0, # of connection points: 3
#     Node 3, Type 0, BuildingBlock: ESEHIV_clean_linker_0, # of connection points: 3
#     Node 4, Type 0, BuildingBlock: ESEHIV_clean_linker_0, # of connection points: 3
#     Node 5, Type 0, BuildingBlock: ESEHIV_clean_linker_0, # of connection points: 3
#     Node 6, Type 0, BuildingBlock: ESEHIV_clean_linker_0, # of connection points: 3
#     Node 7, Type 0, BuildingBlock: ESEHIV_clean_linker_0, # of connection points: 3
#     Node 8, Type 0, BuildingBlock: ESEHIV_clean_linker_0, # of connection points: 3
#     Node 9, Type 0, BuildingBlock: ESEHIV_clean_linker_0, # of connection points: 3
#     Node 10, Type 0, BuildingBlock: ESEHIV_clean_linker_0, # of connection points: 3
#     Node 11, Type 0, BuildingBlock: ESEHIV_clean_linker_0, # of connection points: 3
#     Node 12, Type 0, BuildingBlock: ESEHIV_clean_linker_0, # of connection points: 3
#     Node 13, Type 0, BuildingBlock: ESEHIV_clean_linker_0, # of connection points: 3
#     Node 14, Type 0, BuildingBlock: ESEHIV_clean_linker_0, # of connection points: 3
#     Node 15, Type 0, BuildingBlock: ESEHIV_clean_linker_0, # of connection points: 3
#     Node 16, Type 1, BuildingBlock: NAHDIM_clean_sbu_0, # of connection points: 4
#     Node 17, Type 1, BuildingBlock: NAHDIM_clean_sbu_0, # of connection points: 4
#     Node 18, Type 1, BuildingBlock: NAHDIM_clean_sbu_0, # of connection points: 4
#     Node 19, Type 1, BuildingBlock: NAHDIM_clean_sbu_0, # of connection points: 4
#     Node 20, Type 1, BuildingBlock: NAHDIM_clean_sbu_0, # of connection points: 4
#     Node 21, Type 1, BuildingBlock: NAHDIM_clean_sbu_0, # of connection points: 4
#     Node 22, Type 1, BuildingBlock: NAHDIM_clean_sbu_0, # of connection points: 4
#     Node 23, Type 1, BuildingBlock: NAHDIM_clean_sbu_0, # of connection points: 4
#     Node 24, Type 1, BuildingBlock: NAHDIM_clean_sbu_0, # of connection points: 4
#     Node 25, Type 1, BuildingBlock: NAHDIM_clean_sbu_0, # of connection points: 4
#     Node 26, Type 1, BuildingBlock: NAHDIM_clean_sbu_0, # of connection points: 4
#     Node 27, Type 1, BuildingBlock: NAHDIM_clean_sbu_0, # of connection points: 4
#     Edge 28, Type (0, 1), BuildingBlock: AJUNOK_clean_linker_0, # of connection points: 2
#     Edge 29, Type (0, 1), BuildingBlock: AJUNOK_clean_linker_0, # of connection points: 2
#     Edge 30, Type (0, 1), BuildingBlock: AJUNOK_clean_linker_0, # of connection points: 2
#     Edge 31, Type (0, 1), BuildingBlock: AJUNOK_clean_linker_0, # of connection points: 2
#     Edge 32, Type (0, 1), BuildingBlock: AJUNOK_clean_linker_0, # of connection points: 2
#     Edge 33, Type (0, 1), BuildingBlock: AJUNOK_clean_linker_0, # of connection points: 2
#     Edge 34, Type (0, 1), BuildingBlock: AJUNOK_clean_linker_0, # of connection points: 2
#     Edge 35, Type (0, 1), BuildingBlock: AJUNOK_clean_linker_0, # of connection points: 2
#     Edge 36, Type (0, 1), BuildingBlock: AJUNOK_clean_linker_0, # of connection points: 2
#     Edge 37, Type (0, 1), BuildingBlock: AJUNOK_clean_linker_0, # of connection points: 2
#     Edge 38, Type (0, 1), BuildingBlock: AJUNOK_clean_linker_0, # of connection points: 2
#     Edge 39, Type (0, 1), BuildingBlock: AJUNOK_clean_linker_0, # of connection points: 2
#     Edge 40, Type (0, 1), BuildingBlock: AJUNOK_clean_linker_0, # of connection points: 2
#     Edge 41, Type (0, 1), BuildingBlock: AJUNOK_clean_linker_0, # of connection points: 2
#     Edge 42, Type (0, 1), BuildingBlock: AJUNOK_clean_linker_0, # of connection points: 2
#     Edge 43, Type (0, 1), BuildingBlock: AJUNOK_clean_linker_0, # of connection points: 2
#     Edge 44, Type (0, 1), BuildingBlock: AJUNOK_clean_linker_0, # of connection points: 2
#     Edge 45, Type (0, 1), BuildingBlock: AJUNOK_clean_linker_0, # of connection points: 2
#     Edge 46, Type (0, 1), BuildingBlock: AJUNOK_clean_linker_0, # of connection points: 2
#     Edge 47, Type (0, 1), BuildingBlock: AJUNOK_clean_linker_0, # of connection points: 2
#     Edge 48, Type (0, 1), BuildingBlock: AJUNOK_clean_linker_0, # of connection points: 2
#     Edge 49, Type (0, 1), BuildingBlock: AJUNOK_clean_linker_0, # of connection points: 2
#     Edge 50, Type (0, 1), BuildingBlock: AJUNOK_clean_linker_0, # of connection points: 2
#     Edge 51, Type (0, 1), BuildingBlock: AJUNOK_clean_linker_0, # of connection points: 2
#     Edge 52, Type (0, 1), BuildingBlock: AJUNOK_clean_linker_0, # of connection points: 2
#     Edge 53, Type (0, 1), BuildingBlock: AJUNOK_clean_linker_0, # of connection points: 2
#     Edge 54, Type (0, 1), BuildingBlock: AJUNOK_clean_linker_0, # of connection points: 2
#     Edge 55, Type (0, 1), BuildingBlock: AJUNOK_clean_linker_0, # of connection points: 2
#     Edge 56, Type (0, 1), BuildingBlock: AJUNOK_clean_linker_0, # of connection points: 2
#     Edge 57, Type (0, 1), BuildingBlock: AJUNOK_clean_linker_0, # of connection points: 2
#     Edge 58, Type (0, 1), BuildingBlock: AJUNOK_clean_linker_0, # of connection points: 2
#     Edge 59, Type (0, 1), BuildingBlock: AJUNOK_clean_linker_0, # of connection points: 2
#     Edge 60, Type (0, 1), BuildingBlock: AJUNOK_clean_linker_0, # of connection points: 2
#     Edge 61, Type (0, 1), BuildingBlock: AJUNOK_clean_linker_0, # of connection points: 2
#     Edge 62, Type (0, 1), BuildingBlock: AJUNOK_clean_linker_0, # of connection points: 2
#     Edge 63, Type (0, 1), BuildingBlock: AJUNOK_clean_linker_0, # of connection points: 2
#     Edge 64, Type (0, 1), BuildingBlock: AJUNOK_clean_linker_0, # of connection points: 2
#     Edge 65, Type (0, 1), BuildingBlock: AJUNOK_clean_linker_0, # of connection points: 2
#     Edge 66, Type (0, 1), BuildingBlock: AJUNOK_clean_linker_0, # of connection points: 2
#     Edge 67, Type (0, 1), BuildingBlock: AJUNOK_clean_linker_0, # of connection points: 2
#     Edge 68, Type (0, 1), BuildingBlock: AJUNOK_clean_linker_0, # of connection points: 2
#     Edge 69, Type (0, 1), BuildingBlock: AJUNOK_clean_linker_0, # of connection points: 2
#     Edge 70, Type (0, 1), BuildingBlock: AJUNOK_clean_linker_0, # of connection points: 2
#     Edge 71, Type (0, 1), BuildingBlock: AJUNOK_clean_linker_0, # of connection points: 2
#     Edge 72, Type (0, 1), BuildingBlock: AJUNOK_clean_linker_0, # of connection points: 2
#     Edge 73, Type (0, 1), BuildingBlock: AJUNOK_clean_linker_0, # of connection points: 2
#     Edge 74, Type (0, 1), BuildingBlock: AJUNOK_clean_linker_0, # of connection points: 2
#     Edge 75, Type (0, 1), BuildingBlock: AJUNOK_clean_linker_0, # of connection points: 2
# Relax obj value: 0.002
# Max RMSD: 0.031
# Mean RMSD: 0.018
data_MOF--net-ctn--node1-NAHDIM_clean_sbu_0--node2-ESEHIV_clean_linker_0--edge1-AJUNOK_clean_linker_0
_symmetry_space_group_name_H-M    P1
_symmetry_Int_Tables_number       1
_symmetry_cell_setting            triclinic
loop_
_symmetry_equiv_pos_as_xyz
'x, y, z'
_cell_length_a     36.852338
_cell_length_b     37.061884
_cell_length_c     36.615919
_cell_angle_alpha  91.273402
_cell_angle_beta   90.25179
_cell_angle_gamma 92.710689
loop_
_atom_site_label
_atom_site_type_symbol
_atom_site_fract_x
_atom_site_fract_y
_atom_site_fract_z
_atom_type_partial_charge
H0 H 0.99651 0.08531 0.06061 0.0
H1 H 0.07276 0.00914 0.09676 0.0
H2 H 0.0953 0.07167 1.00119 0.0
C3 C 0.02223 0.07256 0.05767 0.0
C4 C 0.04515 0.08237 0.02867 0.0
C5 C 0.03209 0.04659 0.08276 0.0
C6 C 0.06466 0.02899 0.0774 0.0
C7 C 0.08745 0.03752 0.04781 0.0
C8 C 0.07759 0.06446 0.02368 0.0
H9 H 0.29534 0.67708 0.27711 0.0
H10 H 0.33659 0.76697 0.21475 0.0
H11 H 0.24063 0.70563 0.17853 0.0
C12 C 0.29329 0.69435 0.25375 0.0
C13 C 0.26461 0.68814 0.22864 0.0
C14 C 0.31947 0.72261 0.24882 0.0
C15 C 0.31653 0.74506 0.21862 0.0
C16 C 0.288 0.73929 0.19328 0.0
C17 C 0.26236 0.71056 0.19832 0.0
H18 H 0.96384 0.52462 0.08043 0.0
H19 H 0.01909 0.42846 0.05129 0.0
H20 H 0.93861 0.46853 0.97891 0.0
C21 C 0.96794 0.50213 0.06171 0.0
C22 C 0.94801 0.49931 0.02896 0.0
C23 C 0.9934 0.4765 0.07023 0.0
C24 C 0.99932 0.4482 0.04506 0.0
C25 C 0.97966 0.44512 0.01201 0.0
C26 C 0.9543 0.47101 0.00404 0.0
H27 H 0.66494 0.75333 0.19326 0.0
H28 H 0.76374 0.80978 0.16114 0.0
H29 H 0.7078 0.84394 0.25799 0.0
C30 C 0.68547 0.7749 0.19785 0.0
C31 C 0.68273 0.79834 0.22826 0.0
C32 C 0.71482 0.77869 0.17377 0.0
C33 C 0.74166 0.80617 0.18038 0.0
C34 C 0.73963 0.82963 0.21089 0.0
C35 C 0.70992 0.82565 0.23467 0.0
H36 H 0.98058 0.92958 0.46186 0.0
H37 H 0.04224 0.02113 0.42075 0.0
H38 H 0.07838 0.96839 0.51707 0.0
C39 C 0.00374 0.94869 0.46398 0.0
C40 C 0.02875 0.94605 0.49268 0.0
C41 C 0.00879 0.97533 0.43761 0.0
C42 C 0.03847 1.00035 0.44094 0.0
C43 C 0.06367 0.99831 0.46967 0.0
C44 C 0.05874 0.9708 0.49526 0.0
H45 H 0.18021 0.77977 0.81621 0.0
H46 H 0.26907 0.71521 0.84673 0.0
H47 H 0.20161 0.68279 0.75468 0.0
C48 C 0.19602 0.75612 0.8119 0.0
C49 C 0.18735 0.7321 0.78256 0.0
C50 C 0.22545 0.75022 0.8352 0.0
C51 C 0.24634 0.72005 0.82885 0.0
C52 C 0.23813 0.69603 0.79956 0.0
C53 C 0.20857 0.70205 0.77662 0.0
H54 H 0.93952 0.54096 0.52587 0.0
H55 H 0.0337 0.57858 0.46632 0.0
H56 H 0.97486 0.48054 0.43196 0.0
C57 C 0.9583 0.53764 0.50346 0.0
C58 C 0.95377 0.50758 0.47957 0.0
C59 C 0.98687 0.56348 0.49873 0.0
C60 C 0.01132 0.55893 0.46985 0.0
C61 C 0.00711 0.52916 0.4455 0.0
C62 C 0.97824 0.50361 0.45057 0.0
H63 H 0.74894 0.79022 0.82854 0.0
H64 H 0.80599 0.82828 0.73343 0.0
H65 H 0.8364 0.73049 0.78371 0.0
C66 C 0.76969 0.78686 0.80801 0.0
C67 C 0.79155 0.75677 0.80901 0.0
C68 C 0.77474 0.8128 0.78079 0.0
C69 C 0.80185 0.80834 0.75442 0.0
C70 C 0.82388 0.77851 0.75516 0.0
C71 C 0.81886 0.75313 0.78272 0.0
H72 H 0.25002 0.29752 0.3376 0.0
H73 H 0.3137 0.33312 0.24565 0.0
H74 H 0.33572 0.23317 0.29657 0.0
C75 C 0.27164 0.29324 0.31822 0.0
C76 C 0.29131 0.26168 0.31968 0.0
C77 C 0.28 0.31944 0.29191 0.0
C78 C 0.30779 0.3135 0.2666 0.0
C79 C 0.32737 0.28199 0.2676 0.0
C80 C 0.31946 0.25668 0.29465 0.0
H81 H 0.45195 0.01957 0.58186 0.0
H82 H 0.51688 0.93172 0.54625 0.0
H83 H 0.43142 0.96739 0.47757 0.0
C84 C 0.45859 0.99909 0.56171 0.0
C85 C 0.43947 0.99699 0.52844 0.0
C86 C 0.48651 0.97549 0.56882 0.0
C87 C 0.49458 0.94921 0.54206 0.0
C88 C 0.47472 0.94593 0.50918 0.0
C89 C 0.44723 0.96997 0.50261 0.0
H90 H 0.17087 0.25542 0.69668 0.0
H91 H 0.27195 0.3145 0.67762 0.0
H92 H 0.20412 0.34552 0.76726 0.0
C93 C 0.19052 0.27698 0.70435 0.0
C94 C 0.18364 0.29992 0.73433 0.0
C95 C 0.22238 0.28206 0.68389 0.0
C96 C 0.24751 0.31023 0.69366 0.0
C97 C 0.24111 0.33324 0.72364 0.0
C98 C 0.20923 0.3278 0.74407 0.0
H99 H 0.79233 0.16783 0.77382 0.0
H100 H 0.8339 0.25934 0.71375 0.0
H101 H 0.74174 0.19559 0.67268 0.0
C102 C 0.7909 0.1852 0.75049 0.0
C103 C 0.76326 0.17866 0.72419 0.0
C104 C 0.81686 0.21394 0.74666 0.0
C105 C 0.81447 0.2367 0.71661 0.0
C106 C 0.78757 0.23004 0.68979 0.0
C107 C 0.76226 0.20092 0.69365 0.0
H108 H 0.48749 0.57323 0.54101 0.0
H109 H 0.56062 0.49618 0.58122 0.0
H110 H 0.58615 0.55362 0.48305 0.0
C111 C 0.51234 0.55889 0.53827 0.0
C112 C 0.53592 0.56666 0.50917 0.0
C113 C 0.52069 0.53298 0.564 0.0
C114 C 0.55324 0.51504 0.56056 0.0
C115 C 0.57679 0.5218 0.53116 0.0
C116 C 0.56817 0.54809 0.50581 0.0
H117 H 0.47874 0.4396 0.95741 0.0
H118 H 0.54577 0.52947 0.92084 0.0
H119 H 0.57986 0.46804 0.01221 0.0
C120 C 0.50295 0.45722 0.96046 0.0
C121 C 0.5278 0.45144 0.98868 0.0
C122 C 0.50952 0.48493 0.93554 0.0
C123 C 0.54122 0.5072 0.93922 0.0
C124 C 0.56691 0.50131 0.96665 0.0
C125 C 0.56009 0.47315 0.99119 0.0
H126 H 0.67155 0.27312 0.31058 0.0
H127 H 0.76581 0.21839 0.34514 0.0
H128 H 0.70161 0.17593 0.25433 0.0
C129 C 0.68987 0.25125 0.30719 0.0
C130 C 0.68315 0.22491 0.27951 0.0
C131 C 0.71928 0.24878 0.33138 0.0
C132 C 0.74255 0.22006 0.32712 0.0
C133 C 0.73641 0.19377 0.29934 0.0
C134 C 0.70663 0.19633 0.27567 0.0
H135 H 0.44822 0.05917 0.03204 0.0
H136 H 0.53254 0.09173 0.95734 0.0
H137 H 0.46483 0.99633 0.93363 0.0
C138 C 0.46296 0.05465 0.00692 0.0
C139 C 0.45287 0.02491 0.98396 0.0
C140 C 0.49186 0.0787 0.99763 0.0
C141 C 0.51045 0.07303 0.96481 0.0
C142 C 0.50068 0.04362 0.94141 0.0
C143 C 0.47215 0.01936 0.95137 0.0
C144 C 0.21819 0.95715 0.02508 0.0
O145 O 0.2474 0.97185 0.00998 0.0
O146 O 0.24435 0.85887 0.97987 0.0
Zn147 Zn 0.25948 0.89183 0.02244 0.0
O148 O 0.304 0.92235 0.0082 0.0
C149 C 0.27384 0.82827 0.06488 0.0
O150 O 0.27304 0.81223 0.03252 0.0
O151 O 0.21761 0.92387 0.03298 0.0
C152 C 0.33083 0.93036 0.02922 0.0
O153 O 0.33038 0.91823 0.06268 0.0
C154 C 0.2668 0.84928 0.9557 0.0
O155 O 0.30089 0.86108 0.95863 0.0
O156 O 0.26922 0.86206 0.06714 0.0
C157 C 0.19845 0.44946 0.2776 0.0
O158 O 0.21266 0.48175 0.28602 0.0
O159 O 0.10295 0.49846 0.2972 0.0
Zn160 Zn 0.13762 0.491 0.25532 0.0
O161 O 0.17188 0.535 0.25056 0.0
C162 C 0.07578 0.49319 0.20653 0.0
O163 O 0.0616 0.50872 0.23534 0.0
O164 O 0.16642 0.44665 0.26436 0.0
C165 C 0.16013 0.56639 0.24663 0.0
O166 O 0.12487 0.57012 0.24591 0.0
C167 C 0.1126 0.50941 0.32906 0.0
O168 O 0.14732 0.51595 0.33607 0.0
O169 O 0.10841 0.48349 0.20828 0.0
C170 C 0.83811 0.60187 0.99586 0.0
O171 O 0.84528 0.62729 0.97216 0.0
O172 O 0.77136 0.66275 0.9573 0.0
Zn173 Zn 0.76463 0.6311 1.00149 0.0
O174 O 0.71851 0.59916 0.99798 0.0
C175 C 0.73036 0.68098 0.04858 0.0
O176 O 0.70505 0.67613 0.02334 0.0
O177 O 0.80683 0.59925 0.01034 0.0
C178 C 0.69884 0.59435 0.96953 0.0
O179 O 0.70834 0.61069 0.93937 0.0
C180 C 0.77898 0.65179 0.92522 0.0
O181 O 0.78385 0.61727 0.91928 0.0
O182 O 0.75947 0.66415 0.0452 0.0
C183 C 0.82905 0.071 0.28781 0.0
O184 O 0.83126 0.04949 0.3157 0.0
O185 O 0.90537 0.01419 0.29987 0.0
Zn186 Zn 0.87588 0.0197 0.25385 0.0
O187 O 0.8408 0.97651 0.24539 0.0
C188 C 0.93846 0.01067 0.20566 0.0
O189 O 0.94678 0.98456 0.2274 0.0
O190 O 0.84628 0.0637 0.25882 0.0
C191 C 0.84841 0.94798 0.22769 0.0
O192 O 0.8806 0.94589 0.21283 0.0
C193 C 0.91352 0.98332 0.31097 0.0
O194 O 0.90169 0.95436 0.29246 0.0
O195 O 0.90993 0.02788 0.21146 0.0
C196 C 0.33057 0.10196 0.50019 0.0
O197 O 0.33798 0.13049 0.48043 0.0
O198 O 0.26513 0.16435 0.46503 0.0
Zn199 Zn 0.25788 0.13121 0.50813 0.0
O200 O 0.21104 0.1007 0.50333 0.0
C201 C 0.24553 0.19446 0.55308 0.0
O202 O 0.24109 0.20927 0.52121 0.0
O203 O 0.29922 0.09758 0.51425 0.0
C204 C 0.19186 0.0964 0.47449 0.0
O205 O 0.20225 0.11259 0.44454 0.0
C206 C 0.27279 0.15419 0.4327 0.0
O207 O 0.27751 0.11979 0.42586 0.0
O208 O 0.25363 0.16155 0.55417 0.0
C209 C 0.32353 0.56983 0.77731 0.0
O210 O 0.3141 0.54025 0.79468 0.0
O211 O 0.41334 0.51786 0.78907 0.0
Zn212 Zn 0.37851 0.52505 0.74754 0.0
O213 O 0.34238 0.48271 0.74205 0.0
C214 C 0.42524 0.50545 0.68781 0.0
O215 O 0.42346 0.47399 0.70365 0.0
O216 O 0.35073 0.56994 0.7561 0.0
C217 C 0.34875 0.45061 0.75074 0.0
O218 O 0.38101 0.44359 0.76339 0.0
C219 C 0.40375 0.50755 0.8206 0.0
O220 O 0.36908 0.50154 0.82746 0.0
O221 O 0.40783 0.53121 0.70156 0.0
C222 C 0.71056 0.44438 0.51801 0.0
O223 O 0.73944 0.46089 0.50405 0.0
O224 O 0.74986 0.34893 0.47994 0.0
Zn225 Zn 0.75775 0.38355 0.52259 0.0
O226 O 0.80159 0.41695 0.51386 0.0
C227 C 0.77793 0.32252 0.56384 0.0
O228 O 0.78697 0.3112 0.53104 0.0
O229 O 0.71253 0.41198 0.52832 0.0
C230 C 0.83149 0.40499 0.5028 0.0
O231 O 0.83372 0.37008 0.49697 0.0
C232 C 0.74402 0.35777 0.44722 0.0
O233 O 0.74328 0.39218 0.43951 0.0
O234 O 0.76543 0.35382 0.56767 0.0
C235 C 0.69081 0.94192 0.77222 0.0
O236 O 0.70778 0.9737 0.77666 0.0
O237 O 0.59676 0.99295 0.8004 0.0
Zn238 Zn 0.62899 0.98547 0.75627 0.0
O239 O 0.66457 0.0291 0.7509 0.0
C240 C 0.56972 0.99519 0.70425 0.0
O241 O 0.56069 0.0208 0.72734 0.0
O242 O 0.65726 0.94044 0.76368 0.0
C243 C 0.65821 0.05632 0.7317 0.0
O244 O 0.62777 0.05648 0.71301 0.0
C245 C 0.58758 0.0243 0.81042 0.0
O246 O 0.59986 0.05231 0.79207 0.0
O247 O 0.59741 0.97708 0.7108 0.0
C248 C 0.00877 0.20557 0.94148 0.0
O249 O 0.99335 0.23267 0.95793 0.0
O250 O 0.96572 0.24397 0.84543 0.0
Zn251 Zn 0.0081 0.25344 0.88004 0.0
O252 O 0.9987 0.29466 0.91539 0.0
C253 C 0.05086 0.27675 0.81802 0.0
O254 O 0.0186 0.28101 0.80383 0.0
O255 O 0.01707 0.20815 0.90795 0.0
C256 C 1.00052 0.32763 0.90643 0.0
O257 O 0.00807 0.33557 0.87243 0.0
C258 C 0.9327 0.23941 0.85484 0.0
O259 O 0.92453 0.24086 0.88972 0.0
O260 O 0.05311 0.26586 0.85061 0.0
C261 C 0.50057 0.68243 0.41182 0.0
O262 O 0.47142 0.68074 0.391 0.0
O263 O 0.46966 0.74517 0.34697 0.0
Zn264 Zn 0.51195 0.75491 0.38193 0.0
O265 O 0.50223 0.79686 0.41616 0.0
C266 C 0.55511 0.77789 0.32004 0.0
O267 O 0.52294 0.78197 0.30556 0.0
O268 O 0.5212 0.71094 0.41195 0.0
C269 C 0.50053 0.82884 0.40459 0.0
O270 O 0.50461 0.83431 0.3695 0.0
C271 C 0.43652 0.74827 0.35543 0.0
O272 O 0.42841 0.75748 0.38917 0.0
O273 O 0.55716 0.76692 0.35261 0.0
C274 C 1.00284 0.829 0.59421 0.0
O275 O 0.97152 0.82634 0.61114 0.0
O276 O 0.97193 0.76434 0.66006 0.0
Zn277 Zn 0.01549 0.75941 0.62732 0.0
O278 O 0.00706 0.71757 0.59183 0.0
C279 C 0.05972 0.75429 0.69263 0.0
O280 O 0.02964 0.76308 0.70897 0.0
O281 O 0.0252 0.80425 0.59788 0.0
C282 C 0.00422 0.68508 0.60217 0.0
O283 O 0.00623 0.67865 0.63725 0.0
C284 C 0.93921 0.75935 0.64929 0.0
O285 O 0.93266 0.7504 0.61489 0.0
O286 O 0.05993 0.75106 0.65799 0.0
C287 C 0.49803 0.33282 0.08772 0.0
O288 O 0.46486 0.32411 0.09843 0.0
O289 O 0.47032 0.28013 0.16226 0.0
Zn290 Zn 0.51382 0.27123 0.1304 0.0
O291 O 0.50395 0.22628 0.09904 0.0
C292 C 0.55878 0.23731 0.18254 0.0
O293 O 0.5319 0.21275 0.18085 0.0
O294 O 0.52384 0.31375 0.09792 0.0
C295 C 0.52934 0.20729 0.08708 0.0
O296 O 0.56315 0.21772 0.09466 0.0
C297 C 0.44643 0.25505 0.16803 0.0
O298 O 0.45053 0.22299 0.15307 0.0
O299 O 0.55714 0.26512 0.16301 0.0
C300 C 0.27088 0.78971 0.87016 0.0
C301 C 0.23493 0.77581 0.86587 0.0
C302 C 0.28075 0.81358 0.89909 0.0
C303 C 0.2551 0.82441 0.92504 0.0
H304 H 0.29155 0.78224 0.85083 0.0
H305 H 0.30883 0.82349 0.90109 0.0
S306 S 0.15735 0.79468 0.92637 0.0
N307 N 0.17366 0.77382 0.89014 0.0
N308 N 0.19194 0.81884 0.9445 0.0
C309 C 0.21894 0.81061 0.92101 0.0
C310 C 0.20893 0.78633 0.89143 0.0
C311 C 0.07093 0.52729 0.42228 0.0
C312 C 0.03334 0.52448 0.41519 0.0
C313 C 0.09624 0.52246 0.3943 0.0
C314 C 0.08502 0.51463 0.35805 0.0
H315 H 0.08088 0.53279 0.44982 0.0
H316 H 0.12486 0.52465 0.40132 0.0
S317 S 0.98944 0.50679 0.32477 0.0
N318 N 0.98604 0.51516 0.36906 0.0
N319 N 0.03337 0.50563 0.31651 0.0
C320 C 0.0474 0.51219 0.35053 0.0
C321 C 0.02166 0.51719 0.37906 0.0
C322 C 0.78523 0.7406 0.87489 0.0
C323 C 0.78673 0.7295 0.83799 0.0
C324 C 0.78264 0.7153 0.9028 0.0
C325 C 0.78149 0.67785 0.89494 0.0
H326 H 0.78682 0.76909 0.88233 0.0
H327 H 0.78197 0.72528 0.93081 0.0
S328 S 0.7815 0.6349 0.8023 0.0
N329 N 0.78455 0.67869 0.79481 0.0
N330 N 0.78015 0.63109 0.84711 0.0
C331 C 0.78226 0.66642 0.85802 0.0
C332 C 0.78476 0.69223 0.82962 0.0
C333 C 0.96874 0.00916 0.39632 0.0
C334 C 0.98372 0.97647 0.40588 0.0
C335 C 0.94582 0.01102 0.36583 0.0
C336 C 0.93704 0.98025 0.34367 0.0
H337 H 0.9747 0.03349 0.41262 0.0
H338 H 0.93498 0.03686 0.35962 0.0
S339 S 0.97084 0.88842 0.35625 0.0
N340 N 0.98933 0.91293 0.39025 0.0
N341 N 0.946 0.91613 0.33322 0.0
C342 C 0.95193 0.94734 0.35301 0.0
C343 C 0.97531 0.94552 0.38402 0.0
C344 C 0.23541 0.27501 0.61736 0.0
C345 C 0.2288 0.25899 0.65126 0.0
C346 C 0.24086 0.25388 0.58586 0.0
C347 C 0.2404 0.21592 0.58715 0.0
H348 H 0.23583 0.30413 0.61508 0.0
H349 H 0.24558 0.26749 0.56032 0.0
S350 S 0.22511 0.16101 0.66981 0.0
N351 N 0.22263 0.20321 0.68467 0.0
N352 N 0.23314 0.16325 0.62556 0.0
C353 C 0.23425 0.19959 0.6211 0.0
C354 C 0.22831 0.22118 0.6531 0.0
C355 C 0.48152 0.5537 0.61542 0.0
C356 C 0.49567 0.52515 0.59486 0.0
C357 C 0.45843 0.54703 0.64507 0.0
C358 C 0.44868 0.51154 0.65547 0.0
H359 H 0.48885 0.58147 0.60895 0.0
H360 H 0.44866 0.56998 0.6603 0.0
S361 S 0.47621 0.42727 0.60868 0.0
N362 N 0.49651 0.46006 0.58547 0.0
N363 N 0.4537 0.44743 0.6416 0.0
C364 C 0.4622 0.48271 0.63475 0.0
C365 C 0.48554 0.48953 0.6044 0.0
C366 C 0.78328 0.29083 0.66184 0.0
C367 C 0.78607 0.25328 0.65742 0.0
C368 C 0.7806 0.31306 0.63147 0.0
C369 C 0.7812 0.2986 0.59559 0.0
H370 H 0.78255 0.30301 0.68898 0.0
H371 H 0.77817 0.3418 0.6362 0.0
S372 S 0.78931 0.20178 0.56965 0.0
N373 N 0.79009 0.2026 0.61474 0.0
N374 N 0.78529 0.24409 0.55765 0.0
C375 C 0.78452 0.26104 0.59093 0.0
C376 C 0.78687 0.23846 0.62184 0.0
C377 C 0.51792 0.01419 0.61779 0.0
C378 C 0.50794 0.97943 0.60356 0.0
C379 C 0.53763 0.01894 0.6505 0.0
C380 C 0.54904 0.98918 0.66985 0.0
H381 H 0.51075 0.03807 0.6034 0.0
H382 H 0.54456 0.04618 0.66038 0.0
S383 S 0.52884 0.89262 0.64613 0.0
N384 N 0.50943 0.91464 0.61316 0.0
N385 N 0.54842 0.92388 0.67345 0.0
C386 C 0.53966 0.95433 0.65609 0.0
C387 C 0.51871 0.94938 0.62324 0.0
C388 C 0.83923 0.22165 0.81136 0.0
C389 C 0.84681 0.21998 0.77377 0.0
C390 C 0.86712 0.22794 0.8373 0.0
C391 C 0.90373 0.23261 0.8267 0.0
H392 H 0.81146 0.21857 0.82078 0.0
H393 H 0.85978 0.22924 0.86589 0.0
S394 S 0.93799 0.22855 0.73138 0.0
N395 N 0.89355 0.22192 0.72718 0.0
N396 N 0.94592 0.23398 0.7756 0.0
C397 C 0.91165 0.23052 0.78908 0.0
C398 C 0.88323 0.22417 0.76274 0.0
C399 C 0.48409 0.88097 0.49327 0.0
C400 C 0.48225 0.91686 0.48201 0.0
C401 C 0.48995 0.85282 0.46807 0.0
C402 C 0.49437 0.8594 0.43055 0.0
H403 H 0.48038 0.87447 0.52176 0.0
H404 H 0.49086 0.82564 0.4782 0.0
S405 S 0.49381 0.94927 0.38747 0.0
N406 N 0.48678 0.95786 0.43122 0.0
N407 N 0.49753 0.90513 0.38371 0.0
C408 C 0.49304 0.89537 0.41903 0.0
C409 C 0.48703 0.92402 0.44475 0.0
C410 C 0.15057 0.29096 0.79324 0.0
C411 C 0.14946 0.29499 0.7552 0.0
C412 C 0.11857 0.2852 0.81332 0.0
C413 C 0.08422 0.28369 0.79615 0.0
H414 H 0.17643 0.29166 0.80751 0.0
H415 H 0.12086 0.28189 0.84254 0.0
S416 S 0.06684 0.29447 0.69701 0.0
N417 N 0.11149 0.29835 0.70114 0.0
N418 N 0.05128 0.28762 0.73862 0.0
C419 C 0.08282 0.28835 0.75808 0.0
C420 C 0.11544 0.29392 0.73767 0.0
C421 C 0.55202 0.62364 0.47626 0.0
C422 C 0.527 0.59472 0.48272 0.0
C423 C 0.54329 0.6517 0.45318 0.0
C424 C 0.50931 0.65176 0.43534 0.0
H425 H 0.57825 0.62501 0.48984 0.0
H426 H 0.56336 0.6736 0.44948 0.0
S427 S 0.43511 0.58072 0.44172 0.0
N428 N 0.46756 0.5668 0.46846 0.0
N429 N 0.45097 0.61933 0.42501 0.0
C430 C 0.48437 0.62242 0.44098 0.0
C431 C 0.49323 0.59401 0.4647 0.0
C432 C 0.88867 0.76973 0.73882 0.0
C433 C 0.85268 0.774 0.72754 0.0
C434 C 0.91638 0.76517 0.71329 0.0
C435 C 0.90909 0.76421 0.67546 0.0
H436 H 0.89552 0.77024 0.76764 0.0
H437 H 0.94371 0.7621 0.72339 0.0
S438 S 0.81882 0.77351 0.63206 0.0
N439 N 0.81088 0.77665 0.67634 0.0
N440 N 0.86283 0.76785 0.62815 0.0
C441 C 0.87304 0.76825 0.66387 0.0
C442 C 0.84489 0.77326 0.68994 0.0
C443 C 0.98998 0.91192 0.53725 0.0
C444 C 0.02355 0.91698 0.51959 0.0
C445 C 0.98386 0.88387 0.56183 0.0
C446 C 0.01099 0.85955 0.5695 0.0
H447 H 0.96822 0.92981 0.532 0.0
H448 H 0.9574 0.88101 0.57447 0.0
S449 S 0.10377 0.86128 0.52995 0.0
N450 N 0.08427 0.89555 0.51113 0.0
N451 N 0.07307 0.84286 0.55743 0.0
C452 C 0.0449 0.86459 0.55217 0.0
C453 C 0.05111 0.89329 0.52724 0.0
C454 C 0.12181 0.74501 0.77466 0.0
C455 C 0.15549 0.73794 0.75882 0.0
C456 C 0.09114 0.75013 0.753 0.0
C457 C 0.09287 0.74847 0.71458 0.0
H458 H 0.11901 0.74615 0.8041 0.0
H459 H 0.06584 0.75532 0.76666 0.0
S460 S 0.17534 0.7322 0.65969 0.0
N461 N 0.18928 0.7307 0.70251 0.0
N462 N 0.13162 0.73993 0.66163 0.0
C463 C 0.12655 0.7416 0.69837 0.0
C464 C 0.15781 0.73641 0.72051 0.0
C465 C 0.9917 0.58965 0.56227 0.0
C466 C 0.99127 0.59498 0.52438 0.0
C467 C 0.99582 0.61892 0.5871 0.0
C468 C 0.99946 0.65473 0.57505 0.0
H469 H 0.98922 0.56257 0.57282 0.0
H470 H 0.99621 0.61328 0.616 0.0
S471 S 0.99828 0.68308 0.47829 0.0
N472 N 0.99357 0.63858 0.47583 0.0
N473 N 1.00144 0.69371 0.52225 0.0
C474 C 0.99868 0.6604 0.53709 0.0
C475 C 0.99462 0.63052 0.51184 0.0
C476 C 0.75789 0.89459 0.22449 0.0
C477 C 0.76796 0.85904 0.21699 0.0
C478 C 0.78411 0.92311 0.2283 0.0
C479 C 0.82136 0.91722 0.22444 0.0
H480 H 0.72948 0.90057 0.22661 0.0
H481 H 0.77502 0.9501 0.23357 0.0
S482 S 0.86211 0.82855 0.20863 0.0
N483 N 0.8179 0.81906 0.20889 0.0
N484 N 0.8671 0.87273 0.21517 0.0
C485 C 0.83185 0.88167 0.21781 0.0
C486 C 0.80518 0.85259 0.21431 0.0
C487 C 0.76777 0.14211 0.3262 0.0
C488 C 0.76068 0.16314 0.29573 0.0
C489 C 0.78995 0.1125 0.32335 0.0
C490 C 0.80618 0.10293 0.28997 0.0
H491 H 0.7556 0.14828 0.35235 0.0
H492 H 0.7943 0.09699 0.34758 0.0
S493 S 0.79734 0.15075 0.20241 0.0
N494 N 0.7724 0.17339 0.23151 0.0
N495 N 0.81412 0.1178 0.22588 0.0
C496 C 0.79966 0.12419 0.25936 0.0
C497 C 0.77688 0.15422 0.2623 0.0
C498 C 0.42043 0.98582 0.02959 0.0
C499 C 0.42204 0.99992 0.99425 0.0
C500 C 0.39109 0.96313 0.04043 0.0
C501 C 0.362 0.95372 0.01645 0.0
H502 H 0.44213 0.99233 0.04904 0.0
H503 H 0.39121 0.95311 0.06799 0.0
S504 S 0.35292 0.98432 0.92096 0.0
N505 N 0.39188 0.00345 0.93542 0.0
N506 N 0.33683 0.96064 0.95547 0.0
C507 C 0.36339 0.96759 0.98088 0.0
C508 C 0.39336 0.99066 0.96987 0.0
C509 C 0.22153 0.35086 0.28616 0.0
C510 C 0.25951 0.3529 0.29028 0.0
C511 C 0.202 0.38218 0.28218 0.0
C512 C 0.21967 0.41677 0.28273 0.0
H513 H 0.20691 0.32479 0.28513 0.0
H514 H 0.17281 0.37921 0.27859 0.0
S515 S 0.3189 0.43646 0.29464 0.0
N516 N 0.31406 0.392 0.29587 0.0
N517 N 0.27761 0.4509 0.28879 0.0
C518 C 0.25767 0.41909 0.2877 0.0
C519 C 0.27751 0.38717 0.29133 0.0
C520 C 0.11584 0.03188 0.44002 0.0
C521 C 0.09591 0.02399 0.47181 0.0
C522 C 0.14652 0.05566 0.44114 0.0
C523 C 0.15881 0.07213 0.47417 0.0
H524 H 0.108 0.01918 0.41407 0.0
H525 H 0.1611 0.06062 0.41598 0.0
S526 S 0.11501 0.06256 0.56473 0.0
N527 N 0.08946 0.03636 0.53694 0.0
N528 N 0.1479 0.08013 0.53925 0.0
C529 C 0.13906 0.06475 0.50615 0.0
C530 C 0.10747 0.04089 0.50493 0.0
C531 C 0.74677 0.11343 0.73661 0.0
C532 C 0.73584 0.14814 0.72797 0.0
C533 C 0.72148 0.08394 0.73831 0.0
C534 C 0.68436 0.08799 0.73108 0.0
H535 H 0.77521 0.10883 0.74129 0.0
H536 H 0.73123 0.05763 0.74452 0.0
S537 S 0.64118 0.174 0.71142 0.0
N538 N 0.68487 0.18541 0.71547 0.0
N539 N 0.6376 0.13001 0.71767 0.0
C540 C 0.67296 0.12274 0.72339 0.0
C541 C 0.6986 0.15277 0.72208 0.0
C542 C 0.38283 0.02844 0.5447 0.0
C543 C 0.41172 0.0235 0.52045 0.0
C544 C 0.3565 0.05358 0.5377 0.0
C545 C 0.3585 0.07521 0.50655 0.0
H546 H 0.38042 0.01254 0.56912 0.0
H547 H 0.3347 0.05642 0.55715 0.0
S548 S 0.42914 0.0726 0.43468 0.0
N549 N 0.4409 0.04206 0.4641 0.0
N550 N 0.39178 0.08964 0.45109 0.0
C551 C 0.38741 0.07056 0.48216 0.0
C552 C 0.41388 0.04459 0.48905 0.0
C553 C 0.6439 0.51973 0.52031 0.0
C554 C 0.61042 0.5014 0.52717 0.0
C555 C 0.67605 0.50107 0.51737 0.0
C556 C 0.67603 0.46333 0.52127 0.0
H557 H 0.64538 0.54883 0.51776 0.0
H558 H 0.70117 0.51648 0.51237 0.0
S559 S 0.59484 0.40238 0.53663 0.0
N560 N 0.57876 0.44315 0.53556 0.0
N561 N 0.6391 0.40813 0.53072 0.0
C562 C 0.64257 0.44461 0.52763 0.0
C563 C 0.60984 0.46362 0.53041 0.0
C564 C 0.72605 0.31312 0.3539 0.0
C565 C 0.72549 0.27604 0.36134 0.0
C566 C 0.73216 0.33931 0.38177 0.0
C567 C 0.73778 0.32943 0.41821 0.0
H568 H 0.72214 0.32197 0.32621 0.0
H569 H 0.7325 0.36751 0.37457 0.0
S570 S 0.73701 0.23554 0.45215 0.0
N571 N 0.72963 0.23061 0.40779 0.0
N572 N 0.74141 0.27952 0.46018 0.0
C573 C 0.73694 0.29229 0.42601 0.0
C574 C 0.73075 0.2657 0.39759 0.0
C575 C 0.53562 0.00512 0.89811 0.0
C576 C 0.52064 0.03845 0.90666 0.0
C577 C 0.55679 1.00061 0.86669 0.0
C578 C 0.56378 0.02926 0.84265 0.0
H579 H 0.53176 0.98265 0.91634 0.0
H580 H 0.56833 0.97463 0.86165 0.0
S581 S 0.52723 0.12083 0.85093 0.0
N582 N 0.51166 0.09963 0.88723 0.0
N583 N 0.55159 0.09147 0.82848 0.0
C584 C 0.54788 0.0624 0.85038 0.0
C585 C 0.5263 0.0669 0.88229 0.0
C586 C 0.28183 0.24431 0.38489 0.0
C587 C 0.28359 0.23406 0.34778 0.0
C588 C 0.27799 0.21832 0.41207 0.0
C589 C 0.27584 0.18105 0.4032 0.0
H590 H 0.28452 0.27259 0.39308 0.0
H591 H 0.27742 0.22758 0.44033 0.0
S592 S 0.27528 0.14046 0.30952 0.0
N593 N 0.27996 0.1844 0.30325 0.0
N594 N 0.27325 0.13553 0.35417 0.0
C595 C 0.27645 0.17055 0.36603 0.0
C596 C 0.28017 0.19703 0.33839 0.0
C597 C 0.44589 0.49188 0.91343 0.0
C598 C 0.48315 0.49063 0.9057 0.0
C599 C 0.42048 0.49736 0.88575 0.0
C600 C 0.43136 0.50187 0.84925 0.0
H601 H 0.4363 0.489 0.94119 0.0
H602 H 0.39212 0.49833 0.89316 0.0
S603 S 0.5257 0.4984 0.8144 0.0
N604 N 0.52959 0.49249 0.85876 0.0
N605 N 0.48206 0.50333 0.80675 0.0
C606 C 0.4686 0.50033 0.84111 0.0
C607 C 0.49442 0.4946 0.86931 0.0
C608 C 0.75037 0.7364 0.13551 0.0
C609 C 0.71783 0.75379 0.14178 0.0
C610 C 0.75404 0.71281 0.10548 0.0
C611 C 0.72537 0.70586 0.08034 0.0
H612 H 0.77312 0.74083 0.15419 0.0
H613 H 0.77967 0.70006 0.10195 0.0
S614 S 0.63476 0.74576 0.08414 0.0
N615 N 0.65668 0.7633 0.12023 0.0
N616 N 0.66326 0.71886 0.0638 0.0
C617 C 0.69265 0.72327 0.0863 0.0
C618 C 0.68894 0.74721 0.11701 0.0
C619 C 1.00187 1.00195 0.125 0.0
C620 C 0.00852 0.03807 0.11469 0.0
C621 C 0.97949 0.99329 0.15476 0.0
C622 C 0.96237 0.02035 0.17481 0.0
H623 H 0.01366 0.98011 0.1097 0.0
H624 H 0.97497 0.96516 0.16164 0.0
S625 S 0.97331 0.11911 0.16156 0.0
N626 N 0.99844 0.10125 0.1293 0.0
N627 N 0.95493 0.08466 0.18386 0.0
C628 C 0.96897 0.0565 0.16517 0.0
C629 C 0.99238 0.06543 0.13545 0.0
C630 C 0.28123 0.74717 0.1259 0.0
C631 C 0.28519 0.76279 0.1611 0.0
C632 C 0.2781 0.76861 0.09509 0.0
C633 C 0.27848 0.80661 0.09819 0.0
H634 H 0.28076 0.71808 0.1221 0.0
H635 H 0.275 0.75512 0.06864 0.0
S636 S 0.28781 0.86074 0.18464 0.0
N637 N 0.28904 0.81841 0.19756 0.0
N638 N 0.28327 0.85887 0.13975 0.0
C639 C 0.28255 0.82259 0.13335 0.0
C640 C 0.28591 0.80067 0.16474 0.0
C641 C 0.05171 0.47667 0.1061 0.0
C642 C 0.01375 0.47939 0.10546 0.0
C643 C 0.07152 0.48069 0.13891 0.0
C644 C 0.05415 0.48772 0.17233 0.0
H645 H 0.06634 0.47211 0.08095 0.0
H646 H 0.10076 0.47892 0.13791 0.0
S647 S 0.95471 0.49371 0.18582 0.0
N648 N 0.95923 0.48676 0.14144 0.0
N649 N 0.9963 0.49494 0.20289 0.0
C650 C 0.01606 0.48964 0.17213 0.0
C651 C 0.99592 0.48534 0.13878 0.0
C652 C 0.34249 0.7325 0.31292 0.0
C653 C 0.3498 0.72877 0.27541 0.0
C654 C 0.37066 0.73889 0.3385 0.0
C655 C 0.4073 0.74138 0.32762 0.0
H656 H 0.31471 0.73095 0.32253 0.0
H657 H 0.36356 0.74176 0.36705 0.0
S658 S 0.44076 0.73216 0.23238 0.0
N659 N 0.39615 0.72708 0.22856 0.0
N660 N 0.44917 0.73897 0.27638 0.0
C661 C 0.41494 0.73727 0.29009 0.0
C662 C 0.38619 0.73105 0.26407 0.0
C663 C 0.99136 0.4215 0.9487 0.0
C664 C 0.98515 0.41465 0.98583 0.0
C665 C 0.99628 0.39323 0.92337 0.0
C666 C 0.99493 0.3569 0.93406 0.0
H667 H 0.99277 0.449 0.9392 0.0
H668 H 1.00117 0.40005 0.89515 0.0
S669 S 0.97777 0.3246 0.02811 0.0
N670 N 0.97672 0.369 0.03199 0.0
N671 N 0.98611 0.3158 0.98464 0.0
C672 C 0.98842 0.34971 0.97118 0.0
C673 C 0.98354 0.37857 0.99698 0.0
C674 C 0.61566 0.7934 0.23772 0.0
C675 C 0.65088 0.79447 0.25268 0.0
C676 C 0.58499 0.78866 0.25985 0.0
C677 C 0.58831 0.78439 0.29783 0.0
H678 H 0.61178 0.79628 0.20859 0.0
H679 H 0.55849 0.7878 0.24687 0.0
S680 S 0.67485 0.78525 0.35034 0.0
N681 N 0.68759 0.79107 0.30762 0.0
N682 N 0.63 0.78204 0.34945 0.0
C683 C 0.62349 0.78568 0.31319 0.0
C684 C 0.65474 0.7908 0.29058 0.0
C685 C 0.02472 0.1452 0.02176 0.0
C686 C 0.03584 0.11293 0.00525 0.0
C687 C 0.0158 0.17469 1.00085 0.0
C688 C 0.0178 0.17332 0.96248 0.0
H689 H 0.0233 0.14788 0.05124 0.0
H690 H 0.00769 0.19893 0.01507 0.0
S691 S 0.04371 0.09439 0.90571 0.0
N692 N 0.04699 0.08073 0.94817 0.0
N693 N 0.03084 0.13643 0.90868 0.0
C694 C 0.02871 0.14111 0.94551 0.0
C695 C 0.03763 0.11092 0.96691 0.0
C696 C 0.38399 0.30192 0.23453 0.0
C697 C 0.35636 0.27533 0.24063 0.0
C698 C 0.41276 0.29526 0.21074 0.0
C699 C 0.41494 0.26177 0.19204 0.0
H700 H 0.38383 0.32777 0.24893 0.0
H701 H 0.43369 0.31643 0.20742 0.0
S702 S 0.34732 0.18433 0.19637 0.0
N703 N 0.33146 0.21522 0.22442 0.0
N704 N 0.38549 0.20241 0.17996 0.0
C705 C 0.38683 0.23529 0.19724 0.0
C706 C 0.35758 0.24214 0.22145 0.0
C707 C 0.54655 0.39723 0.02258 0.0
C708 C 0.52014 0.42224 0.01509 0.0
C709 C 0.53927 0.36863 0.04633 0.0
C710 C 0.50527 0.36392 0.06348 0.0
H711 H 0.57281 0.39934 0.00942 0.0
H712 H 0.56035 0.34979 0.05081 0.0
S713 S 0.42798 0.42412 0.05523 0.0
N714 N 0.45957 0.44198 0.02842 0.0
N715 N 0.4456 0.38811 0.07265 0.0
C716 C 0.47889 0.38929 0.05676 0.0
C717 C 0.48638 0.41844 0.03268 0.0
C718 C 0.64575 0.25935 0.23639 0.0
C719 C 0.65138 0.2272 0.2548 0.0
C720 C 0.61595 0.2622 0.2129 0.0
C721 C 0.59038 0.23311 0.20716 0.0
H722 H 0.66474 0.2824 0.23995 0.0
H723 H 0.61288 0.28756 0.19935 0.0
S724 S 0.59258 0.14322 0.24988 0.0
N725 N 0.62884 0.16591 0.26644 0.0
N726 N 0.57284 0.17103 0.22225 0.0
C727 C 0.59571 0.2008 0.2256 0.0
C728 C 0.6262 0.19789 0.24937 0.0
C729 C 0.47524 0.13381 0.03339 0.0
C730 C 0.50199 0.11047 0.02158 0.0
C731 C 0.48436 0.16489 0.05462 0.0
C732 C 0.52062 0.17385 0.06496 0.0
H733 H 0.44709 0.1284 0.02555 0.0
H734 H 0.46274 0.18217 0.06266 0.0
S735 S 0.60045 0.11982 0.04314 0.0
N736 N 0.56586 0.09712 0.0233 0.0
N737 N 0.58324 0.15558 0.06294 0.0
C738 C 0.54755 0.15025 0.05386 0.0
C739 C 0.53819 0.11859 0.03224 0.0
C740 C 0.30445 0.35664 0.73767 0.0
C741 C 0.26758 0.36344 0.73272 0.0
C742 C 0.33038 0.38496 0.74424 0.0
C743 C 0.32044 0.42117 0.74554 0.0
H744 H 0.31334 0.32919 0.73629 0.0
H745 H 0.35851 0.37839 0.74755 0.0
S746 S 0.22702 0.45309 0.73474 0.0
N747 N 0.22218 0.40872 0.72999 0.0
N748 N 0.27077 0.4621 0.74221 0.0
C749 C 0.28348 0.42825 0.74104 0.0
C750 C 0.25708 0.39935 0.73471 0.0
C751 C 0.26303 0.63857 0.82068 0.0
C752 C 0.26023 0.66426 0.7933 0.0
C753 C 0.28346 0.60799 0.81516 0.0
C754 C 0.3024 0.60249 0.78236 0.0
H755 H 0.24895 0.64194 0.84636 0.0
H756 H 0.2847 0.58872 0.83689 0.0
S757 S 0.30389 0.66235 0.7024 0.0
N758 N 0.2778 0.6825 0.73238 0.0
N759 N 0.31692 0.62541 0.72211 0.0
C760 C 0.30006 0.62827 0.75491 0.0
C761 C 0.27873 0.65905 0.76034 0.0
C762 C 0.88782 0.49247 0.49062 0.0
C763 C 0.92312 0.4807 0.48488 0.0
C764 C 0.85848 0.46781 0.4963 0.0
C765 C 0.86319 0.43032 0.49641 0.0
H766 H 0.88275 0.52102 0.49047 0.0
H767 H 0.83184 0.47833 0.50047 0.0
S768 S 0.95066 0.3857 0.48427 0.0
N769 N 0.96148 0.42923 0.48093 0.0
N770 N 0.90636 0.38274 0.49103 0.0
C771 C 0.89843 0.41818 0.49073 0.0
C772 C 0.92835 0.44337 0.48508 0.0
C773 C 0.76963 0.87977 0.77878 0.0
C774 C 0.75246 0.84514 0.78005 0.0
C775 C 0.74942 0.91078 0.77685 0.0
C776 C 0.71116 0.90843 0.77566 0.0
H777 H 0.79901 0.88293 0.77933 0.0
H778 H 0.76406 0.93677 0.77574 0.0
S779 S 0.65317 0.82375 0.77834 0.0
N780 N 0.69512 0.81007 0.78018 0.0
N781 N 0.65692 0.86825 0.77639 0.0
C782 C 0.69363 0.87385 0.77716 0.0
C783 C 0.71431 0.84227 0.77945 0.0
C784 C 0.62033 0.53215 0.93649 0.0
C785 C 0.60107 0.52433 0.96871 0.0
C786 C 0.65184 0.55477 0.93712 0.0
C787 C 0.66568 0.57019 0.97004 0.0
H788 H 0.611 0.52059 0.91047 0.0
H789 H 0.66561 0.55996 0.91155 0.0
S790 S 0.62479 0.55955 0.06188 0.0
N791 N 0.59745 0.53494 0.03435 0.0
N792 N 0.65735 0.57669 0.0357 0.0
C793 C 0.64691 0.56247 0.00256 0.0
C794 C 0.6145 0.5397 1.00186 0.0
C795 C 0.24888 0.62282 0.24016 0.0
C796 C 0.23738 0.65777 0.23375 0.0
C797 C 0.22375 0.59359 0.24434 0.0
C798 C 0.18602 0.59812 0.2425 0.0
H799 H 0.27761 0.6179 0.24141 0.0
H800 H 0.23411 0.56719 0.24894 0.0
S801 S 0.14196 0.6849 0.2281 0.0
N802 N 0.18591 0.69571 0.22715 0.0
N803 N 0.13857 0.64096 0.23477 0.0
C804 C 0.17419 0.63315 0.23656 0.0
C805 C 0.19985 0.66288 0.23221 0.0
C806 C 0.92103 0.54485 0.98855 0.0
C807 C 0.91994 0.52553 0.02116 0.0
C808 C 0.89475 0.56985 0.98082 0.0
C809 C 0.86604 0.57594 0.00513 0.0
H810 H 0.94256 0.54083 0.96903 0.0
H811 H 0.8967 0.58413 0.95536 0.0
S812 S 0.85094 0.5316 0.09414 0.0
N813 N 0.88798 0.51387 0.07785 0.0
N814 N 0.83836 0.56047 0.06334 0.0
C815 C 0.86463 0.55657 0.0378 0.0
C816 C 0.89164 0.5315 0.04582 0.0
C817 C 0.12047 0.98003 0.044 0.0
C818 C 0.1214 0.01795 0.04227 0.0
C819 C 0.1519 0.96073 0.03876 0.0
C820 C 0.1856 0.97854 0.03142 0.0
H821 H 0.09508 0.96505 0.049 0.0
H822 H 0.14957 0.93154 0.04002 0.0
S823 S 0.20311 0.07785 0.02655 0.0
N824 N 0.15916 0.0728 0.0347 0.0
N825 N 0.21817 0.03661 0.02415 0.0
C826 C 0.187 0.01654 0.03001 0.0
C827 C 0.15496 0.0362 0.03556 0.0
loop_
_geom_bond_atom_site_label_1
_geom_bond_atom_site_label_2
_geom_bond_distance
_geom_bond_site_symmetry_2
_ccdc_geom_bond_type
H0 C3 0.931 1_655 S
H1 C6 0.952 . S
H2 C8 0.930 1_556 S
C3 H0 0.931 1_455 S
C3 C4 1.413 . S
C3 C5 1.360 . S
C4 C3 1.413 . S
C4 C8 1.429 . S
C5 C3 1.360 . S
C5 C6 1.372 . S
C6 H1 0.952 . S
C6 C5 1.372 . S
C6 C7 1.404 . S
C7 C6 1.404 . S
C7 C8 1.391 . S
C8 H2 0.930 1_554 S
C8 C4 1.429 . S
C8 C7 1.391 . S
H9 C12 0.931 . S
H10 C15 0.928 . S
H11 C17 0.930 . S
C12 H9 0.931 . S
C12 C13 1.413 . S
C12 C14 1.360 . S
C13 C12 1.413 . S
C13 C17 1.429 . S
C14 C12 1.360 . S
C14 C15 1.372 . S
C15 H10 0.928 . S
C15 C14 1.372 . S
C15 C16 1.404 . S
C16 C15 1.404 . S
C16 C17 1.391 . S
C17 H11 0.930 . S
C17 C13 1.429 . S
C17 C16 1.391 . S
H18 C21 0.931 . S
H19 C24 0.928 1_455 S
H20 C26 0.930 1_556 S
C21 H18 0.931 . S
C21 C22 1.413 . S
C21 C23 1.360 . S
C22 C21 1.413 . S
C22 C26 1.429 . S
C23 C21 1.360 . S
C23 C24 1.372 . S
C24 H19 0.928 1_655 S
C24 C23 1.372 . S
C24 C25 1.404 . S
C25 C24 1.404 . S
C25 C26 1.391 . S
C26 H20 0.930 1_554 S
C26 C22 1.429 . S
C26 C25 1.391 . S
H27 C30 0.931 . S
H28 C33 0.928 . S
H29 C35 0.930 . S
C30 H27 0.931 . S
C30 C31 1.413 . S
C30 C32 1.360 . S
C31 C30 1.413 . S
C31 C35 1.429 . S
C32 C30 1.360 . S
C32 C33 1.372 . S
C33 H28 0.928 . S
C33 C32 1.372 . S
C33 C34 1.404 . S
C34 C33 1.404 . S
C34 C35 1.391 . S
C35 H29 0.930 . S
C35 C31 1.429 . S
C35 C34 1.391 . S
H36 C39 0.931 1_655 S
H37 C42 0.928 . S
H38 C44 0.930 . S
C39 H36 0.931 1_455 S
C39 C40 1.413 . S
C39 C41 1.360 . S
C40 C39 1.413 . S
C40 C44 1.429 . S
C41 C39 1.360 . S
C41 C42 1.372 1_565 S
C42 H37 0.928 . S
C42 C41 1.372 1_545 S
C42 C43 1.404 1_545 S
C43 C42 1.404 1_565 S
C43 C44 1.391 . S
C44 H38 0.930 . S
C44 C40 1.429 . S
C44 C43 1.391 . S
H45 C48 0.931 . S
H46 C51 0.928 . S
H47 C53 0.930 . S
C48 H45 0.931 . S
C48 C49 1.413 . S
C48 C50 1.360 . S
C49 C48 1.413 . S
C49 C53 1.429 . S
C50 C48 1.360 . S
C50 C51 1.372 . S
C51 H46 0.928 . S
C51 C50 1.372 . S
C51 C52 1.404 . S
C52 C51 1.404 . S
C52 C53 1.391 . S
C53 H47 0.930 . S
C53 C49 1.429 . S
C53 C52 1.391 . S
H54 C57 0.931 . S
H55 C60 0.928 1_455 S
H56 C62 0.930 . S
C57 H54 0.931 . S
C57 C58 1.413 . S
C57 C59 1.360 . S
C58 C57 1.413 . S
C58 C62 1.429 . S
C59 C57 1.360 . S
C59 C60 1.372 . S
C60 H55 0.928 1_655 S
C60 C59 1.372 . S
C60 C61 1.404 . S
C61 C60 1.404 . S
C61 C62 1.391 . S
C62 H56 0.930 . S
C62 C58 1.429 . S
C62 C61 1.391 . S
H63 C66 0.931 . S
H64 C69 0.928 . S
H65 C71 0.930 . S
C66 H63 0.931 . S
C66 C67 1.413 . S
C66 C68 1.360 . S
C67 C66 1.413 . S
C67 C71 1.429 . S
C68 C66 1.360 . S
C68 C69 1.372 . S
C69 H64 0.928 . S
C69 C68 1.372 . S
C69 C70 1.404 . S
C70 C69 1.404 . S
C70 C71 1.391 . S
C71 H65 0.930 . S
C71 C67 1.429 . S
C71 C70 1.391 . S
H72 C75 0.931 . S
H73 C78 0.928 . S
H74 C80 0.930 . S
C75 H72 0.931 . S
C75 C76 1.413 . S
C75 C77 1.360 . S
C76 C75 1.413 . S
C76 C80 1.429 . S
C77 C75 1.360 . S
C77 C78 1.372 . S
C78 H73 0.928 . S
C78 C77 1.372 . S
C78 C79 1.404 . S
C79 C78 1.404 . S
C79 C80 1.391 . S
C80 H74 0.930 . S
C80 C76 1.429 . S
C80 C79 1.391 . S
H81 C84 0.931 1_545 S
H82 C87 0.928 . S
H83 C89 0.930 . S
C84 H81 0.931 1_565 S
C84 C85 1.413 . S
C84 C86 1.360 . S
C85 C84 1.413 . S
C85 C89 1.429 . S
C86 C84 1.360 . S
C86 C87 1.372 . S
C87 H82 0.928 . S
C87 C86 1.372 . S
C87 C88 1.404 . S
C88 C87 1.404 . S
C88 C89 1.391 . S
C89 H83 0.930 . S
C89 C85 1.429 . S
C89 C88 1.391 . S
H90 C93 0.931 . S
H91 C96 0.928 . S
H92 C98 0.930 . S
C93 H90 0.931 . S
C93 C94 1.413 . S
C93 C95 1.360 . S
C94 C93 1.413 . S
C94 C98 1.429 . S
C95 C93 1.360 . S
C95 C96 1.372 . S
C96 H91 0.928 . S
C96 C95 1.372 . S
C96 C97 1.404 . S
C97 C96 1.404 . S
C97 C98 1.391 . S
C98 H92 0.930 . S
C98 C94 1.429 . S
C98 C97 1.391 . S
H99 C102 0.931 . S
H100 C105 0.928 . S
H101 C107 0.930 . S
C102 H99 0.931 . S
C102 C103 1.413 . S
C102 C104 1.360 . S
C103 C102 1.413 . S
C103 C107 1.429 . S
C104 C102 1.360 . S
C104 C105 1.372 . S
C105 H100 0.928 . S
C105 C104 1.372 . S
C105 C106 1.404 . S
C106 C105 1.404 . S
C106 C107 1.391 . S
C107 H101 0.930 . S
C107 C103 1.429 . S
C107 C106 1.391 . S
H108 C111 0.931 . S
H109 C114 0.928 . S
H110 C116 0.930 . S
C111 H108 0.931 . S
C111 C112 1.413 . S
C111 C113 1.360 . S
C112 C111 1.413 . S
C112 C116 1.429 . S
C113 C111 1.360 . S
C113 C114 1.372 . S
C114 H109 0.928 . S
C114 C113 1.372 . S
C114 C115 1.404 . S
C115 C114 1.404 . S
C115 C116 1.391 . S
C116 H110 0.930 . S
C116 C112 1.429 . S
C116 C115 1.391 . S
H117 C120 0.931 . S
H118 C123 0.928 . S
H119 C125 0.930 1_554 S
C120 H117 0.931 . S
C120 C121 1.413 . S
C120 C122 1.360 . S
C121 C120 1.413 . S
C121 C125 1.429 . S
C122 C120 1.360 . S
C122 C123 1.372 . S
C123 H118 0.928 . S
C123 C122 1.372 . S
C123 C124 1.404 . S
C124 C123 1.404 . S
C124 C125 1.391 . S
C125 H119 0.930 1_556 S
C125 C121 1.429 . S
C125 C124 1.391 . S
H126 C129 0.931 . S
H127 C132 0.928 . S
H128 C134 0.930 . S
C129 H126 0.931 . S
C129 C130 1.413 . S
C129 C131 1.360 . S
C130 C129 1.413 . S
C130 C134 1.429 . S
C131 C129 1.360 . S
C131 C132 1.372 . S
C132 H127 0.928 . S
C132 C131 1.372 . S
C132 C133 1.404 . S
C133 C132 1.404 . S
C133 C134 1.391 . S
C134 H128 0.930 . S
C134 C130 1.429 . S
C134 C133 1.391 . S
H135 C138 0.931 1_554 S
H136 C141 0.928 . S
H137 C143 0.930 1_565 S
C138 H135 0.931 1_556 S
C138 C139 1.413 . S
C138 C140 1.360 . S
C139 C138 1.413 . S
C139 C143 1.429 . S
C140 C138 1.360 . S
C140 C141 1.372 . S
C141 H136 0.928 . S
C141 C140 1.372 . S
C141 C142 1.404 . S
C142 C141 1.404 . S
C142 C143 1.391 . S
C143 H137 0.930 1_545 S
C143 C139 1.429 . S
C143 C142 1.391 . S
C144 O145 1.160 1_554 S
C144 O151 1.185 . S
O145 C144 1.160 1_556 S
O146 Zn147 1.899 1_556 S
O146 C154 1.284 . S
Zn147 O146 1.899 1_554 S
Zn147 O148 2.032 . S
Zn147 O151 2.086 . S
Zn147 O156 1.977 . S
O148 Zn147 2.032 . S
O148 C152 1.278 . S
C149 O150 1.203 . S
C149 O156 1.267 . S
O150 C149 1.203 . S
O151 C144 1.185 . S
O151 Zn147 2.086 . S
C152 O148 1.278 . S
C152 O153 1.211 . S
O153 C152 1.211 . S
C154 O146 1.284 . S
C154 O155 1.273 . S
O155 C154 1.273 . S
O156 Zn147 1.977 . S
O156 C149 1.267 . S
C157 O158 1.160 . S
C157 O164 1.185 . S
O158 C157 1.160 . S
O159 Zn160 1.899 . S
O159 C167 1.284 . S
Zn160 O159 1.899 . S
Zn160 O161 2.032 . S
Zn160 O164 2.086 . S
Zn160 O169 1.977 . S
O161 Zn160 2.032 . S
O161 C165 1.278 . S
C162 O163 1.203 . S
C162 O169 1.267 . S
O163 C162 1.203 . S
O164 C157 1.185 . S
O164 Zn160 2.086 . S
C165 O161 1.278 . S
C165 O166 1.211 . S
O166 C165 1.211 . S
C167 O159 1.284 . S
C167 O168 1.273 . S
O168 C167 1.273 . S
O169 Zn160 1.977 . S
O169 C162 1.267 . S
C170 O171 1.160 1_554 S
C170 O177 1.185 . S
O171 C170 1.160 1_556 S
O172 Zn173 1.899 1_556 S
O172 C180 1.284 . S
Zn173 O172 1.899 1_554 S
Zn173 O174 2.032 1_554 S
Zn173 O177 2.086 . S
Zn173 O182 1.977 . S
O174 Zn173 2.032 1_556 S
O174 C178 1.278 . S
C175 O176 1.203 . S
C175 O182 1.267 . S
O176 C175 1.203 . S
O177 C170 1.185 . S
O177 Zn173 2.086 . S
C178 O174 1.278 . S
C178 O179 1.211 1_556 S
O179 C178 1.211 1_554 S
C180 O172 1.284 . S
C180 O181 1.273 . S
O181 C180 1.273 . S
O182 Zn173 1.977 . S
O182 C175 1.267 . S
C183 O184 1.160 . S
C183 O190 1.185 . S
O184 C183 1.160 . S
O185 Zn186 1.899 . S
O185 C193 1.284 1_545 S
Zn186 O185 1.899 . S
Zn186 O187 2.032 1_545 S
Zn186 O190 2.086 . S
Zn186 O195 1.977 . S
O187 Zn186 2.032 1_565 S
O187 C191 1.278 . S
C188 O189 1.203 1_545 S
C188 O195 1.267 . S
O189 C188 1.203 1_565 S
O190 C183 1.185 . S
O190 Zn186 2.086 . S
C191 O187 1.278 . S
C191 O192 1.211 . S
O192 C191 1.211 . S
C193 O185 1.284 1_565 S
C193 O194 1.273 . S
O194 C193 1.273 . S
O195 Zn186 1.977 . S
O195 C188 1.267 . S
C196 O197 1.160 . S
C196 O203 1.185 . S
O197 C196 1.160 . S
O198 Zn199 1.899 . S
O198 C206 1.284 . S
Zn199 O198 1.899 . S
Zn199 O200 2.032 . S
Zn199 O203 2.086 . S
Zn199 O208 1.977 . S
O200 Zn199 2.032 . S
O200 C204 1.278 . S
C201 O202 1.203 . S
C201 O208 1.267 . S
O202 C201 1.203 . S
O203 C196 1.185 . S
O203 Zn199 2.086 . S
C204 O200 1.278 . S
C204 O205 1.211 . S
O205 C204 1.211 . S
C206 O198 1.284 . S
C206 O207 1.273 . S
O207 C206 1.273 . S
O208 Zn199 1.977 . S
O208 C201 1.267 . S
C209 O210 1.160 . S
C209 O216 1.185 . S
O210 C209 1.160 . S
O211 Zn212 1.899 . S
O211 C219 1.284 . S
Zn212 O211 1.899 . S
Zn212 O213 2.032 . S
Zn212 O216 2.086 . S
Zn212 O221 1.977 . S
O213 Zn212 2.032 . S
O213 C217 1.278 . S
C214 O215 1.203 . S
C214 O221 1.267 . S
O215 C214 1.203 . S
O216 C209 1.185 . S
O216 Zn212 2.086 . S
C217 O213 1.278 . S
C217 O218 1.211 . S
O218 C217 1.211 . S
C219 O211 1.284 . S
C219 O220 1.273 . S
O220 C219 1.273 . S
O221 Zn212 1.977 . S
O221 C214 1.267 . S
C222 O223 1.160 . S
C222 O229 1.185 . S
O223 C222 1.160 . S
O224 Zn225 1.899 . S
O224 C232 1.284 . S
Zn225 O224 1.899 . S
Zn225 O226 2.032 . S
Zn225 O229 2.086 . S
Zn225 O234 1.977 . S
O226 Zn225 2.032 . S
O226 C230 1.278 . S
C227 O228 1.203 . S
C227 O234 1.267 . S
O228 C227 1.203 . S
O229 C222 1.185 . S
O229 Zn225 2.086 . S
C230 O226 1.278 . S
C230 O231 1.211 . S
O231 C230 1.211 . S
C232 O224 1.284 . S
C232 O233 1.273 . S
O233 C232 1.273 . S
O234 Zn225 1.977 . S
O234 C227 1.267 . S
C235 O236 1.160 . S
C235 O242 1.185 . S
O236 C235 1.160 . S
O237 Zn238 1.899 . S
O237 C245 1.284 1_565 S
Zn238 O237 1.899 . S
Zn238 O239 2.032 1_565 S
Zn238 O242 2.086 . S
Zn238 O247 1.977 . S
O239 Zn238 2.032 1_545 S
O239 C243 1.278 . S
C240 O241 1.203 1_565 S
C240 O247 1.267 . S
O241 C240 1.203 1_545 S
O242 C235 1.185 . S
O242 Zn238 2.086 . S
C243 O239 1.278 . S
C243 O244 1.211 . S
O244 C243 1.211 . S
C245 O237 1.284 1_545 S
C245 O246 1.273 . S
O246 C245 1.273 . S
O247 Zn238 1.977 . S
O247 C240 1.267 . S
C248 O249 1.160 1_455 S
C248 O255 1.185 . S
O249 C248 1.160 1_655 S
O250 Zn251 1.899 1_655 S
O250 C258 1.284 . S
Zn251 O250 1.899 1_455 S
Zn251 O252 2.032 1_455 S
Zn251 O255 2.086 . S
Zn251 O260 1.977 . S
O252 Zn251 2.032 1_655 S
O252 C256 1.276 1_655 S
C253 O254 1.203 . S
C253 O260 1.267 . S
O254 C253 1.203 . S
O255 C248 1.185 . S
O255 Zn251 2.086 . S
C256 O252 1.276 1_455 S
C256 O257 1.218 . S
O257 C256 1.218 . S
C258 O250 1.284 . S
C258 O259 1.273 . S
O259 C258 1.273 . S
O260 Zn251 1.977 . S
O260 C253 1.267 . S
C261 O262 1.160 . S
C261 O268 1.185 . S
O262 C261 1.160 . S
O263 Zn264 1.899 . S
O263 C271 1.284 . S
Zn264 O263 1.899 . S
Zn264 O265 2.032 . S
Zn264 O268 2.086 . S
Zn264 O273 1.977 . S
O265 Zn264 2.032 . S
O265 C269 1.278 . S
C266 O267 1.203 . S
C266 O273 1.267 . S
O267 C266 1.203 . S
O268 C261 1.185 . S
O268 Zn264 2.086 . S
C269 O265 1.278 . S
C269 O270 1.211 . S
O270 C269 1.211 . S
C271 O263 1.284 . S
C271 O272 1.273 . S
O272 C271 1.273 . S
O273 Zn264 1.977 . S
O273 C266 1.267 . S
C274 O275 1.160 1_455 S
C274 O281 1.185 . S
O275 C274 1.160 1_655 S
O276 Zn277 1.899 1_655 S
O276 C284 1.284 . S
Zn277 O276 1.899 1_455 S
Zn277 O278 2.032 1_455 S
Zn277 O281 2.086 . S
Zn277 O286 1.977 . S
O278 Zn277 2.032 1_655 S
O278 C282 1.282 . S
C279 O280 1.203 . S
C279 O286 1.267 . S
O280 C279 1.203 . S
O281 C274 1.185 . S
O281 Zn277 2.086 . S
C282 O278 1.282 . S
C282 O283 1.201 1_655 S
O283 C282 1.201 1_455 S
C284 O276 1.284 . S
C284 O285 1.273 . S
O285 C284 1.273 . S
O286 Zn277 1.977 . S
O286 C279 1.267 . S
C287 O288 1.160 . S
C287 O294 1.185 . S
O288 C287 1.160 . S
O289 Zn290 1.899 . S
O289 C297 1.284 . S
Zn290 O289 1.899 . S
Zn290 O291 2.032 . S
Zn290 O294 2.086 . S
Zn290 O299 1.977 . S
O291 Zn290 2.032 . S
O291 C295 1.278 . S
C292 O293 1.203 . S
C292 O299 1.267 . S
O293 C292 1.203 . S
O294 C287 1.185 . S
O294 Zn290 2.086 . S
C295 O291 1.278 . S
C295 O296 1.211 . S
O296 C295 1.211 . S
C297 O289 1.284 . S
C297 O298 1.273 . S
O298 C297 1.273 . S
O299 Zn290 1.977 . S
O299 C292 1.267 . S
C300 C301 1.369 . S
C300 C302 1.419 . S
C300 H304 0.930 . S
C301 C300 1.369 . S
C301 C310 1.429 . S
C302 C300 1.419 . S
C302 C303 1.363 . S
C302 H305 0.929 . S
C303 C302 1.363 . S
C303 C309 1.428 . S
H304 C300 0.930 . S
H305 C302 0.929 . S
S306 N307 1.613 . S
S306 N308 1.610 . S
N307 S306 1.613 . S
N307 C310 1.350 . S
N308 S306 1.610 . S
N308 C309 1.351 . S
C309 C303 1.428 . S
C309 N308 1.351 . S
C309 C310 1.434 . S
C310 C301 1.429 . S
C310 N307 1.350 . S
C310 C309 1.434 . S
C311 C312 1.369 . S
C311 C313 1.419 . S
C311 H315 0.930 . S
C312 C311 1.369 . S
C312 C321 1.429 . S
C313 C311 1.419 . S
C313 C314 1.363 . S
C313 H316 0.929 . S
C314 C313 1.363 . S
C314 C320 1.428 . S
H315 C311 0.930 . S
H316 C313 0.929 . S
S317 N318 1.613 . S
S317 N319 1.610 1_655 S
N318 S317 1.613 . S
N318 C321 1.350 1_655 S
N319 S317 1.610 1_455 S
N319 C320 1.351 . S
C320 C314 1.428 . S
C320 N319 1.351 . S
C320 C321 1.434 . S
C321 C312 1.429 . S
C321 N318 1.350 1_455 S
C321 C320 1.434 . S
C322 C323 1.369 . S
C322 C324 1.419 . S
C322 H326 0.930 . S
C323 C322 1.369 . S
C323 C332 1.429 . S
C324 C322 1.419 . S
C324 C325 1.363 . S
C324 H327 0.929 . S
C325 C324 1.363 . S
C325 C331 1.428 . S
H326 C322 0.930 . S
H327 C324 0.929 . S
S328 N329 1.613 . S
S328 N330 1.610 . S
N329 S328 1.613 . S
N329 C332 1.350 . S
N330 S328 1.610 . S
N330 C331 1.351 . S
C331 C325 1.428 . S
C331 N330 1.351 . S
C331 C332 1.434 . S
C332 C323 1.429 . S
C332 N329 1.350 . S
C332 C331 1.434 . S
C333 C334 1.369 1_545 S
C333 C335 1.419 . S
C333 H337 0.930 . S
C334 C333 1.369 1_565 S
C334 C343 1.429 . S
C335 C333 1.419 . S
C335 C336 1.363 1_545 S
C335 H338 0.929 . S
C336 C335 1.363 1_565 S
C336 C342 1.428 . S
H337 C333 0.930 . S
H338 C335 0.929 . S
S339 N340 1.613 . S
S339 N341 1.610 . S
N340 S339 1.613 . S
N340 C343 1.350 . S
N341 S339 1.610 . S
N341 C342 1.351 . S
C342 C336 1.428 . S
C342 N341 1.351 . S
C342 C343 1.434 . S
C343 C334 1.429 . S
C343 N340 1.350 . S
C343 C342 1.434 . S
C344 C345 1.369 . S
C344 C346 1.419 . S
C344 H348 0.930 . S
C345 C344 1.369 . S
C345 C354 1.429 . S
C346 C344 1.419 . S
C346 C347 1.363 . S
C346 H349 0.929 . S
C347 C346 1.363 . S
C347 C353 1.428 . S
H348 C344 0.930 . S
H349 C346 0.929 . S
S350 N351 1.613 . S
S350 N352 1.610 . S
N351 S350 1.613 . S
N351 C354 1.350 . S
N352 S350 1.610 . S
N352 C353 1.351 . S
C353 C347 1.428 . S
C353 N352 1.351 . S
C353 C354 1.434 . S
C354 C345 1.429 . S
C354 N351 1.350 . S
C354 C353 1.434 . S
C355 C356 1.369 . S
C355 C357 1.419 . S
C355 H359 0.930 . S
C356 C355 1.369 . S
C356 C365 1.429 . S
C357 C355 1.419 . S
C357 C358 1.363 . S
C357 H360 0.929 . S
C358 C357 1.363 . S
C358 C364 1.428 . S
H359 C355 0.930 . S
H360 C357 0.929 . S
S361 N362 1.613 . S
S361 N363 1.610 . S
N362 S361 1.613 . S
N362 C365 1.350 . S
N363 S361 1.610 . S
N363 C364 1.351 . S
C364 C358 1.428 . S
C364 N363 1.351 . S
C364 C365 1.434 . S
C365 C356 1.429 . S
C365 N362 1.350 . S
C365 C364 1.434 . S
C366 C367 1.369 . S
C366 C368 1.419 . S
C366 H370 0.930 . S
C367 C366 1.369 . S
C367 C376 1.429 . S
C368 C366 1.419 . S
C368 C369 1.363 . S
C368 H371 0.929 . S
C369 C368 1.363 . S
C369 C375 1.428 . S
H370 C366 0.930 . S
H371 C368 0.929 . S
S372 N373 1.613 . S
S372 N374 1.610 . S
N373 S372 1.613 . S
N373 C376 1.350 . S
N374 S372 1.610 . S
N374 C375 1.351 . S
C375 C369 1.428 . S
C375 N374 1.351 . S
C375 C376 1.434 . S
C376 C367 1.429 . S
C376 N373 1.350 . S
C376 C375 1.434 . S
C377 C378 1.369 1_545 S
C377 C379 1.419 . S
C377 H381 0.930 . S
C378 C377 1.369 1_565 S
C378 C387 1.429 . S
C379 C377 1.419 . S
C379 C380 1.363 1_545 S
C379 H382 0.929 . S
C380 C379 1.363 1_565 S
C380 C386 1.428 . S
H381 C377 0.930 . S
H382 C379 0.929 . S
S383 N384 1.613 . S
S383 N385 1.610 . S
N384 S383 1.613 . S
N384 C387 1.350 . S
N385 S383 1.610 . S
N385 C386 1.351 . S
C386 C380 1.428 . S
C386 N385 1.351 . S
C386 C387 1.434 . S
C387 C378 1.429 . S
C387 N384 1.350 . S
C387 C386 1.434 . S
C388 C389 1.369 . S
C388 C390 1.419 . S
C388 H392 0.930 . S
C389 C388 1.369 . S
C389 C398 1.429 . S
C390 C388 1.419 . S
C390 C391 1.363 . S
C390 H393 0.929 . S
C391 C390 1.363 . S
C391 C397 1.428 . S
H392 C388 0.930 . S
H393 C390 0.929 . S
S394 N395 1.613 . S
S394 N396 1.610 . S
N395 S394 1.613 . S
N395 C398 1.350 . S
N396 S394 1.610 . S
N396 C397 1.351 . S
C397 C391 1.428 . S
C397 N396 1.351 . S
C397 C398 1.434 . S
C398 C389 1.429 . S
C398 N395 1.350 . S
C398 C397 1.434 . S
C399 C400 1.369 . S
C399 C401 1.419 . S
C399 H403 0.930 . S
C400 C399 1.369 . S
C400 C409 1.429 . S
C401 C399 1.419 . S
C401 C402 1.363 . S
C401 H404 0.929 . S
C402 C401 1.363 . S
C402 C408 1.428 . S
H403 C399 0.930 . S
H404 C401 0.929 . S
S405 N406 1.613 . S
S405 N407 1.610 . S
N406 S405 1.613 . S
N406 C409 1.350 . S
N407 S405 1.610 . S
N407 C408 1.351 . S
C408 C402 1.428 . S
C408 N407 1.351 . S
C408 C409 1.434 . S
C409 C400 1.429 . S
C409 N406 1.350 . S
C409 C408 1.434 . S
C410 C411 1.369 . S
C410 C412 1.419 . S
C410 H414 0.930 . S
C411 C410 1.369 . S
C411 C420 1.429 . S
C412 C410 1.419 . S
C412 C413 1.363 . S
C412 H415 0.929 . S
C413 C412 1.363 . S
C413 C419 1.428 . S
H414 C410 0.930 . S
H415 C412 0.929 . S
S416 N417 1.613 . S
S416 N418 1.610 . S
N417 S416 1.613 . S
N417 C420 1.350 . S
N418 S416 1.610 . S
N418 C419 1.351 . S
C419 C413 1.428 . S
C419 N418 1.351 . S
C419 C420 1.434 . S
C420 C411 1.429 . S
C420 N417 1.350 . S
C420 C419 1.434 . S
C421 C422 1.369 . S
C421 C423 1.419 . S
C421 H425 0.930 . S
C422 C421 1.369 . S
C422 C431 1.429 . S
C423 C421 1.419 . S
C423 C424 1.363 . S
C423 H426 0.929 . S
C424 C423 1.363 . S
C424 C430 1.428 . S
H425 C421 0.930 . S
H426 C423 0.929 . S
S427 N428 1.613 . S
S427 N429 1.610 . S
N428 S427 1.613 . S
N428 C431 1.350 . S
N429 S427 1.610 . S
N429 C430 1.351 . S
C430 C424 1.428 . S
C430 N429 1.351 . S
C430 C431 1.434 . S
C431 C422 1.429 . S
C431 N428 1.350 . S
C431 C430 1.434 . S
C432 C433 1.369 . S
C432 C434 1.419 . S
C432 H436 0.930 . S
C433 C432 1.369 . S
C433 C442 1.429 . S
C434 C432 1.419 . S
C434 C435 1.363 . S
C434 H437 0.929 . S
C435 C434 1.363 . S
C435 C441 1.428 . S
H436 C432 0.930 . S
H437 C434 0.929 . S
S438 N439 1.613 . S
S438 N440 1.610 . S
N439 S438 1.613 . S
N439 C442 1.350 . S
N440 S438 1.610 . S
N440 C441 1.351 . S
C441 C435 1.428 . S
C441 N440 1.351 . S
C441 C442 1.434 . S
C442 C433 1.429 . S
C442 N439 1.350 . S
C442 C441 1.434 . S
C443 C444 1.369 . S
C443 C445 1.419 . S
C443 H447 0.919 1_455 S
C444 C443 1.369 . S
C444 C453 1.429 . S
C445 C443 1.419 . S
C445 C446 1.363 . S
C445 H448 0.929 1_455 S
C446 C445 1.363 . S
C446 C452 1.428 . S
H447 C443 0.919 1_655 S
H448 C445 0.929 1_655 S
S449 N450 1.613 . S
S449 N451 1.610 . S
N450 S449 1.613 . S
N450 C453 1.350 . S
N451 S449 1.610 . S
N451 C452 1.351 . S
C452 C446 1.428 . S
C452 N451 1.351 . S
C452 C453 1.434 . S
C453 C444 1.429 . S
C453 N450 1.350 . S
C453 C452 1.434 . S
C454 C455 1.369 . S
C454 C456 1.419 . S
C454 H458 0.930 . S
C455 C454 1.369 . S
C455 C464 1.429 . S
C456 C454 1.419 . S
C456 C457 1.363 . S
C456 H459 0.929 . S
C457 C456 1.363 . S
C457 C463 1.428 . S
H458 C454 0.930 . S
H459 C456 0.929 . S
S460 N461 1.613 . S
S460 N462 1.610 . S
N461 S460 1.613 . S
N461 C464 1.350 . S
N462 S460 1.610 . S
N462 C463 1.351 . S
C463 C457 1.428 . S
C463 N462 1.351 . S
C463 C464 1.434 . S
C464 C455 1.429 . S
C464 N461 1.350 . S
C464 C463 1.434 . S
C465 C466 1.369 . S
C465 C467 1.419 . S
C465 H469 0.930 . S
C466 C465 1.369 . S
C466 C475 1.429 . S
C467 C465 1.419 . S
C467 C468 1.363 . S
C467 H470 0.929 . S
C468 C467 1.363 . S
C468 C474 1.428 . S
H469 C465 0.930 . S
H470 C467 0.929 . S
S471 N472 1.613 . S
S471 N473 1.610 . S
N472 S471 1.613 . S
N472 C475 1.350 . S
N473 S471 1.610 . S
N473 C474 1.351 . S
C474 C468 1.428 . S
C474 N473 1.351 . S
C474 C475 1.434 . S
C475 C466 1.429 . S
C475 N472 1.350 . S
C475 C474 1.434 . S
C476 C477 1.369 . S
C476 C478 1.419 . S
C476 H480 0.930 . S
C477 C476 1.369 . S
C477 C486 1.429 . S
C478 C476 1.419 . S
C478 C479 1.363 . S
C478 H481 0.929 . S
C479 C478 1.363 . S
C479 C485 1.428 . S
H480 C476 0.930 . S
H481 C478 0.929 . S
S482 N483 1.613 . S
S482 N484 1.610 . S
N483 S482 1.613 . S
N483 C486 1.350 . S
N484 S482 1.610 . S
N484 C485 1.351 . S
C485 C479 1.428 . S
C485 N484 1.351 . S
C485 C486 1.434 . S
C486 C477 1.429 . S
C486 N483 1.350 . S
C486 C485 1.434 . S
C487 C488 1.369 . S
C487 C489 1.419 . S
C487 H491 0.930 . S
C488 C487 1.369 . S
C488 C497 1.429 . S
C489 C487 1.419 . S
C489 C490 1.363 . S
C489 H492 0.929 . S
C490 C489 1.363 . S
C490 C496 1.428 . S
H491 C487 0.930 . S
H492 C489 0.929 . S
S493 N494 1.613 . S
S493 N495 1.610 . S
N494 S493 1.613 . S
N494 C497 1.350 . S
N495 S493 1.610 . S
N495 C496 1.351 . S
C496 C490 1.428 . S
C496 N495 1.351 . S
C496 C497 1.434 . S
C497 C488 1.429 . S
C497 N494 1.350 . S
C497 C496 1.434 . S
C498 C499 1.369 1_554 S
C498 C500 1.419 . S
C498 H502 0.930 1_565 S
C499 C498 1.369 1_556 S
C499 C508 1.429 . S
C500 C498 1.419 . S
C500 C501 1.363 1_554 S
C500 H503 0.929 . S
C501 C500 1.363 1_556 S
C501 C507 1.428 . S
H502 C498 0.930 1_545 S
H503 C500 0.929 . S
S504 N505 1.613 . S
S504 N506 1.610 . S
N505 S504 1.613 . S
N505 C508 1.350 . S
N506 S504 1.610 . S
N506 C507 1.351 . S
C507 C501 1.428 . S
C507 N506 1.351 . S
C507 C508 1.434 . S
C508 C499 1.429 . S
C508 N505 1.350 . S
C508 C507 1.434 . S
C509 C510 1.369 . S
C509 C511 1.419 . S
C509 H513 0.930 . S
C510 C509 1.369 . S
C510 C519 1.429 . S
C511 C509 1.419 . S
C511 C512 1.363 . S
C511 H514 0.929 . S
C512 C511 1.363 . S
C512 C518 1.428 . S
H513 C509 0.930 . S
H514 C511 0.929 . S
S515 N516 1.613 . S
S515 N517 1.610 . S
N516 S515 1.613 . S
N516 C519 1.350 . S
N517 S515 1.610 . S
N517 C518 1.351 . S
C518 C512 1.428 . S
C518 N517 1.351 . S
C518 C519 1.434 . S
C519 C510 1.429 . S
C519 N516 1.350 . S
C519 C518 1.434 . S
C520 C521 1.369 . S
C520 C522 1.419 . S
C520 H524 0.930 . S
C521 C520 1.369 . S
C521 C530 1.429 . S
C522 C520 1.419 . S
C522 C523 1.363 . S
C522 H525 0.929 . S
C523 C522 1.363 . S
C523 C529 1.428 . S
H524 C520 0.930 . S
H525 C522 0.929 . S
S526 N527 1.614 . S
S526 N528 1.605 1_565 S
N527 S526 1.614 . S
N527 C530 1.350 1_565 S
N528 S526 1.605 1_545 S
N528 C529 1.351 . S
C529 C523 1.428 . S
C529 N528 1.351 . S
C529 C530 1.434 . S
C530 C521 1.429 . S
C530 N527 1.350 1_545 S
C530 C529 1.434 . S
C531 C532 1.369 . S
C531 C533 1.419 . S
C531 H535 0.930 . S
C532 C531 1.369 . S
C532 C541 1.429 . S
C533 C531 1.419 . S
C533 C534 1.363 . S
C533 H536 0.929 . S
C534 C533 1.363 . S
C534 C540 1.428 . S
H535 C531 0.930 . S
H536 C533 0.929 . S
S537 N538 1.613 . S
S537 N539 1.610 . S
N538 S537 1.613 . S
N538 C541 1.350 . S
N539 S537 1.610 . S
N539 C540 1.351 . S
C540 C534 1.428 . S
C540 N539 1.351 . S
C540 C541 1.434 . S
C541 C532 1.429 . S
C541 N538 1.350 . S
C541 C540 1.434 . S
C542 C543 1.369 . S
C542 C544 1.419 . S
C542 H546 0.930 . S
C543 C542 1.369 . S
C543 C552 1.429 . S
C544 C542 1.419 . S
C544 C545 1.363 . S
C544 H547 0.929 . S
C545 C544 1.363 . S
C545 C551 1.428 . S
H546 C542 0.930 . S
H547 C544 0.929 . S
S548 N549 1.613 . S
S548 N550 1.610 . S
N549 S548 1.613 . S
N549 C552 1.350 . S
N550 S548 1.610 . S
N550 C551 1.351 . S
C551 C545 1.428 . S
C551 N550 1.351 . S
C551 C552 1.434 . S
C552 C543 1.429 . S
C552 N549 1.350 . S
C552 C551 1.434 . S
C553 C554 1.369 . S
C553 C555 1.419 . S
C553 H557 0.930 . S
C554 C553 1.369 . S
C554 C563 1.429 . S
C555 C553 1.419 . S
C555 C556 1.363 . S
C555 H558 0.929 . S
C556 C555 1.363 . S
C556 C562 1.428 . S
H557 C553 0.930 . S
H558 C555 0.929 . S
S559 N560 1.613 . S
S559 N561 1.610 . S
N560 S559 1.613 . S
N560 C563 1.350 . S
N561 S559 1.610 . S
N561 C562 1.351 . S
C562 C556 1.428 . S
C562 N561 1.351 . S
C562 C563 1.434 . S
C563 C554 1.429 . S
C563 N560 1.350 . S
C563 C562 1.434 . S
C564 C565 1.369 . S
C564 C566 1.419 . S
C564 H568 0.930 . S
C565 C564 1.369 . S
C565 C574 1.429 . S
C566 C564 1.419 . S
C566 C567 1.363 . S
C566 H569 0.929 . S
C567 C566 1.363 . S
C567 C573 1.428 . S
H568 C564 0.930 . S
H569 C566 0.929 . S
S570 N571 1.613 . S
S570 N572 1.610 . S
N571 S570 1.613 . S
N571 C574 1.350 . S
N572 S570 1.610 . S
N572 C573 1.351 . S
C573 C567 1.428 . S
C573 N572 1.351 . S
C573 C574 1.434 . S
C574 C565 1.429 . S
C574 N571 1.350 . S
C574 C573 1.434 . S
C575 C576 1.369 1_565 S
C575 C577 1.419 . S
C575 H579 0.930 . S
C576 C575 1.369 1_545 S
C576 C585 1.429 . S
C577 C575 1.419 . S
C577 C578 1.363 1_565 S
C577 H580 0.929 . S
C578 C577 1.363 1_545 S
C578 C584 1.428 . S
H579 C575 0.930 . S
H580 C577 0.929 . S
S581 N582 1.613 . S
S581 N583 1.610 . S
N582 S581 1.613 . S
N582 C585 1.350 . S
N583 S581 1.610 . S
N583 C584 1.351 . S
C584 C578 1.428 . S
C584 N583 1.351 . S
C584 C585 1.434 . S
C585 C576 1.429 . S
C585 N582 1.350 . S
C585 C584 1.434 . S
C586 C587 1.369 . S
C586 C588 1.419 . S
C586 H590 0.930 . S
C587 C586 1.369 . S
C587 C596 1.429 . S
C588 C586 1.419 . S
C588 C589 1.363 . S
C588 H591 0.929 . S
C589 C588 1.363 . S
C589 C595 1.428 . S
H590 C586 0.930 . S
H591 C588 0.929 . S
S592 N593 1.613 . S
S592 N594 1.610 . S
N593 S592 1.613 . S
N593 C596 1.350 . S
N594 S592 1.610 . S
N594 C595 1.351 . S
C595 C589 1.428 . S
C595 N594 1.351 . S
C595 C596 1.434 . S
C596 C587 1.429 . S
C596 N593 1.350 . S
C596 C595 1.434 . S
C597 C598 1.369 . S
C597 C599 1.419 . S
C597 H601 0.930 . S
C598 C597 1.369 . S
C598 C607 1.429 . S
C599 C597 1.419 . S
C599 C600 1.363 . S
C599 H602 0.929 . S
C600 C599 1.363 . S
C600 C606 1.428 . S
H601 C597 0.930 . S
H602 C599 0.929 . S
S603 N604 1.613 . S
S603 N605 1.610 . S
N604 S603 1.613 . S
N604 C607 1.350 . S
N605 S603 1.610 . S
N605 C606 1.351 . S
C606 C600 1.428 . S
C606 N605 1.351 . S
C606 C607 1.434 . S
C607 C598 1.429 . S
C607 N604 1.350 . S
C607 C606 1.434 . S
C608 C609 1.369 . S
C608 C610 1.419 . S
C608 H612 0.930 . S
C609 C608 1.369 . S
C609 C618 1.429 . S
C610 C608 1.419 . S
C610 C611 1.363 . S
C610 H613 0.929 . S
C611 C610 1.363 . S
C611 C617 1.428 . S
H612 C608 0.930 . S
H613 C610 0.929 . S
S614 N615 1.613 . S
S614 N616 1.610 . S
N615 S614 1.613 . S
N615 C618 1.350 . S
N616 S614 1.610 . S
N616 C617 1.351 . S
C617 C611 1.428 . S
C617 N616 1.351 . S
C617 C618 1.434 . S
C618 C609 1.429 . S
C618 N615 1.350 . S
C618 C617 1.434 . S
C619 C620 1.369 . S
C619 C621 1.419 1_545 S
C619 H623 0.930 1_645 S
C620 C619 1.369 . S
C620 C629 1.429 . S
C621 C619 1.419 1_565 S
C621 C622 1.363 1_565 S
C621 H624 0.929 . S
C622 C621 1.363 1_545 S
C622 C628 1.428 . S
H623 C619 0.930 1_465 S
H624 C621 0.929 . S
S625 N626 1.613 . S
S625 N627 1.610 . S
N626 S625 1.613 . S
N626 C629 1.350 . S
N627 S625 1.610 . S
N627 C628 1.351 . S
C628 C622 1.428 . S
C628 N627 1.351 . S
C628 C629 1.434 . S
C629 C620 1.429 . S
C629 N626 1.350 . S
C629 C628 1.434 . S
C630 C631 1.369 . S
C630 C632 1.419 . S
C630 H634 0.930 . S
C631 C630 1.369 . S
C631 C640 1.429 . S
C632 C630 1.419 . S
C632 C633 1.363 . S
C632 H635 0.929 . S
C633 C632 1.363 . S
C633 C639 1.428 . S
H634 C630 0.930 . S
H635 C632 0.929 . S
S636 N637 1.613 . S
S636 N638 1.610 . S
N637 S636 1.613 . S
N637 C640 1.350 . S
N638 S636 1.610 . S
N638 C639 1.351 . S
C639 C633 1.428 . S
C639 N638 1.351 . S
C639 C640 1.434 . S
C640 C631 1.429 . S
C640 N637 1.350 . S
C640 C639 1.434 . S
C641 C642 1.369 . S
C641 C643 1.419 . S
C641 H645 0.930 . S
C642 C641 1.369 . S
C642 C651 1.426 1_455 S
C643 C641 1.419 . S
C643 C644 1.363 . S
C643 H646 0.929 . S
C644 C643 1.363 . S
C644 C650 1.428 . S
H645 C641 0.930 . S
H646 C643 0.929 . S
S647 N648 1.613 . S
S647 N649 1.610 1_655 S
N648 S647 1.613 . S
N648 C651 1.356 . S
N649 S647 1.610 1_455 S
N649 C650 1.351 . S
C650 C644 1.428 . S
C650 N649 1.351 . S
C650 C651 1.430 1_455 S
C651 C642 1.426 1_655 S
C651 N648 1.356 . S
C651 C650 1.430 1_655 S
C652 C653 1.369 . S
C652 C654 1.419 . S
C652 H656 0.930 . S
C653 C652 1.369 . S
C653 C662 1.429 . S
C654 C652 1.419 . S
C654 C655 1.363 . S
C654 H657 0.929 . S
C655 C654 1.363 . S
C655 C661 1.428 . S
H656 C652 0.930 . S
H657 C654 0.929 . S
S658 N659 1.613 . S
S658 N660 1.610 . S
N659 S658 1.613 . S
N659 C662 1.350 . S
N660 S658 1.610 . S
N660 C661 1.351 . S
C661 C655 1.428 . S
C661 N660 1.351 . S
C661 C662 1.434 . S
C662 C653 1.429 . S
C662 N659 1.350 . S
C662 C661 1.434 . S
C663 C664 1.369 . S
C663 C665 1.420 . S
C663 H667 0.926 1_655 S
C664 C663 1.369 . S
C664 C673 1.434 . S
C665 C663 1.420 . S
C665 C666 1.364 . S
C665 H668 0.927 1_655 S
C666 C665 1.364 . S
C666 C672 1.428 . S
H667 C663 0.926 1_455 S
H668 C665 0.927 1_455 S
S669 N670 1.613 . S
S669 N671 1.610 1_554 S
N670 S669 1.613 . S
N670 C673 1.336 1_554 S
N671 S669 1.610 1_556 S
N671 C672 1.351 . S
C672 C666 1.428 . S
C672 N671 1.351 . S
C672 C673 1.443 . S
C673 C664 1.434 . S
C673 N670 1.336 1_556 S
C673 C672 1.443 . S
C674 C675 1.369 . S
C674 C676 1.419 . S
C674 H678 0.930 . S
C675 C674 1.369 . S
C675 C684 1.429 . S
C676 C674 1.419 . S
C676 C677 1.363 . S
C676 H679 0.929 . S
C677 C676 1.363 . S
C677 C683 1.428 . S
H678 C674 0.930 . S
H679 C676 0.929 . S
S680 N681 1.613 . S
S680 N682 1.610 . S
N681 S680 1.613 . S
N681 C684 1.350 . S
N682 S680 1.610 . S
N682 C683 1.351 . S
C683 C677 1.428 . S
C683 N682 1.351 . S
C683 C684 1.434 . S
C684 C675 1.429 . S
C684 N681 1.350 . S
C684 C683 1.434 . S
C685 C686 1.369 1_554 S
C685 C687 1.419 1_554 S
C685 H689 0.930 . S
C686 C685 1.369 1_556 S
C686 C695 1.429 . S
C687 C685 1.419 1_556 S
C687 C688 1.363 . S
C687 H690 0.923 1_455 S
C688 C687 1.363 . S
C688 C694 1.428 . S
H689 C685 0.930 . S
H690 C687 0.923 1_655 S
S691 N692 1.613 . S
S691 N693 1.610 . S
N692 S691 1.613 . S
N692 C695 1.350 . S
N693 S691 1.610 . S
N693 C694 1.351 . S
C694 C688 1.428 . S
C694 N693 1.351 . S
C694 C695 1.434 . S
C695 C686 1.429 . S
C695 N692 1.350 . S
C695 C694 1.434 . S
C696 C697 1.369 . S
C696 C698 1.419 . S
C696 H700 0.930 . S
C697 C696 1.369 . S
C697 C706 1.429 . S
C698 C696 1.419 . S
C698 C699 1.363 . S
C698 H701 0.929 . S
C699 C698 1.363 . S
C699 C705 1.428 . S
H700 C696 0.930 . S
H701 C698 0.929 . S
S702 N703 1.613 . S
S702 N704 1.610 . S
N703 S702 1.613 . S
N703 C706 1.350 . S
N704 S702 1.610 . S
N704 C705 1.351 . S
C705 C699 1.428 . S
C705 N704 1.351 . S
C705 C706 1.434 . S
C706 C697 1.429 . S
C706 N703 1.350 . S
C706 C705 1.434 . S
C707 C708 1.369 . S
C707 C709 1.419 . S
C707 H711 0.930 . S
C708 C707 1.369 . S
C708 C717 1.429 . S
C709 C707 1.419 . S
C709 C710 1.363 . S
C709 H712 0.929 . S
C710 C709 1.363 . S
C710 C716 1.428 . S
H711 C707 0.930 . S
H712 C709 0.929 . S
S713 N714 1.613 . S
S713 N715 1.610 1_556 S
N714 S713 1.613 . S
N714 C717 1.350 1_556 S
N715 S713 1.610 1_554 S
N715 C716 1.351 . S
C716 C710 1.428 . S
C716 N715 1.351 . S
C716 C717 1.434 . S
C717 C708 1.429 . S
C717 N714 1.350 1_554 S
C717 C716 1.434 . S
C718 C719 1.369 . S
C718 C720 1.419 . S
C718 H722 0.930 . S
C719 C718 1.369 . S
C719 C728 1.429 . S
C720 C718 1.419 . S
C720 C721 1.363 . S
C720 H723 0.929 . S
C721 C720 1.363 . S
C721 C727 1.428 . S
H722 C718 0.930 . S
H723 C720 0.929 . S
S724 N725 1.613 . S
S724 N726 1.610 . S
N725 S724 1.613 . S
N725 C728 1.350 . S
N726 S724 1.610 . S
N726 C727 1.351 . S
C727 C721 1.428 . S
C727 N726 1.351 . S
C727 C728 1.434 . S
C728 C719 1.429 . S
C728 N725 1.350 . S
C728 C727 1.434 . S
C729 C730 1.369 . S
C729 C731 1.419 . S
C729 H733 0.930 . S
C730 C729 1.369 . S
C730 C739 1.429 . S
C731 C729 1.419 . S
C731 C732 1.363 . S
C731 H734 0.929 . S
C732 C731 1.363 . S
C732 C738 1.428 . S
H733 C729 0.930 . S
H734 C731 0.929 . S
S735 N736 1.613 . S
S735 N737 1.610 . S
N736 S735 1.613 . S
N736 C739 1.350 . S
N737 S735 1.610 . S
N737 C738 1.351 . S
C738 C732 1.428 . S
C738 N737 1.351 . S
C738 C739 1.434 . S
C739 C730 1.429 . S
C739 N736 1.350 . S
C739 C738 1.434 . S
C740 C741 1.369 . S
C740 C742 1.419 . S
C740 H744 0.930 . S
C741 C740 1.369 . S
C741 C750 1.429 . S
C742 C740 1.419 . S
C742 C743 1.363 . S
C742 H745 0.929 . S
C743 C742 1.363 . S
C743 C749 1.428 . S
H744 C740 0.930 . S
H745 C742 0.929 . S
S746 N747 1.613 . S
S746 N748 1.610 . S
N747 S746 1.613 . S
N747 C750 1.350 . S
N748 S746 1.610 . S
N748 C749 1.351 . S
C749 C743 1.428 . S
C749 N748 1.351 . S
C749 C750 1.434 . S
C750 C741 1.429 . S
C750 N747 1.350 . S
C750 C749 1.434 . S
C751 C752 1.369 . S
C751 C753 1.419 . S
C751 H755 0.930 . S
C752 C751 1.369 . S
C752 C761 1.429 . S
C753 C751 1.419 . S
C753 C754 1.363 . S
C753 H756 0.929 . S
C754 C753 1.363 . S
C754 C760 1.428 . S
H755 C751 0.930 . S
H756 C753 0.929 . S
S757 N758 1.613 . S
S757 N759 1.610 . S
N758 S757 1.613 . S
N758 C761 1.350 . S
N759 S757 1.610 . S
N759 C760 1.351 . S
C760 C754 1.428 . S
C760 N759 1.351 . S
C760 C761 1.434 . S
C761 C752 1.429 . S
C761 N758 1.350 . S
C761 C760 1.434 . S
C762 C763 1.369 . S
C762 C764 1.419 . S
C762 H766 0.930 . S
C763 C762 1.369 . S
C763 C772 1.429 . S
C764 C762 1.419 . S
C764 C765 1.363 . S
C764 H767 0.929 . S
C765 C764 1.363 . S
C765 C771 1.428 . S
H766 C762 0.930 . S
H767 C764 0.929 . S
S768 N769 1.613 . S
S768 N770 1.610 . S
N769 S768 1.613 . S
N769 C772 1.350 . S
N770 S768 1.610 . S
N770 C771 1.351 . S
C771 C765 1.428 . S
C771 N770 1.351 . S
C771 C772 1.434 . S
C772 C763 1.429 . S
C772 N769 1.350 . S
C772 C771 1.434 . S
C773 C774 1.369 . S
C773 C775 1.419 . S
C773 H777 0.930 . S
C774 C773 1.369 . S
C774 C783 1.429 . S
C775 C773 1.419 . S
C775 C776 1.363 . S
C775 H778 0.929 . S
C776 C775 1.363 . S
C776 C782 1.428 . S
H777 C773 0.930 . S
H778 C775 0.929 . S
S779 N780 1.613 . S
S779 N781 1.610 . S
N780 S779 1.613 . S
N780 C783 1.350 . S
N781 S779 1.610 . S
N781 C782 1.351 . S
C782 C776 1.428 . S
C782 N781 1.351 . S
C782 C783 1.434 . S
C783 C774 1.429 . S
C783 N780 1.350 . S
C783 C782 1.434 . S
C784 C785 1.369 . S
C784 C786 1.419 . S
C784 H788 0.930 . S
C785 C784 1.369 . S
C785 C794 1.429 1_556 S
C786 C784 1.419 . S
C786 C787 1.363 . S
C786 H789 0.929 . S
C787 C786 1.363 . S
C787 C793 1.428 1_556 S
H788 C784 0.930 . S
H789 C786 0.929 . S
S790 N791 1.613 . S
S790 N792 1.610 . S
N791 S790 1.613 . S
N791 C794 1.350 . S
N792 S790 1.610 . S
N792 C793 1.351 . S
C793 C787 1.428 1_554 S
C793 N792 1.351 . S
C793 C794 1.434 . S
C794 C785 1.429 1_554 S
C794 N791 1.350 . S
C794 C793 1.434 . S
C795 C796 1.369 . S
C795 C797 1.419 . S
C795 H799 0.930 . S
C796 C795 1.369 . S
C796 C805 1.429 . S
C797 C795 1.419 . S
C797 C798 1.363 . S
C797 H800 0.929 . S
C798 C797 1.363 . S
C798 C804 1.428 . S
H799 C795 0.930 . S
H800 C797 0.929 . S
S801 N802 1.613 . S
S801 N803 1.610 . S
N802 S801 1.613 . S
N802 C805 1.350 . S
N803 S801 1.610 . S
N803 C804 1.351 . S
C804 C798 1.428 . S
C804 N803 1.351 . S
C804 C805 1.434 . S
C805 C796 1.429 . S
C805 N802 1.350 . S
C805 C804 1.434 . S
C806 C807 1.369 1_556 S
C806 C808 1.419 . S
C806 H810 0.930 . S
C807 C806 1.369 1_554 S
C807 C816 1.429 . S
C808 C806 1.419 . S
C808 C809 1.363 1_556 S
C808 H811 0.929 . S
C809 C808 1.363 1_554 S
C809 C815 1.428 . S
H810 C806 0.930 . S
H811 C808 0.929 . S
S812 N813 1.613 . S
S812 N814 1.610 . S
N813 S812 1.613 . S
N813 C816 1.350 . S
N814 S812 1.610 . S
N814 C815 1.351 . S
C815 C809 1.428 . S
C815 N814 1.351 . S
C815 C816 1.434 . S
C816 C807 1.429 . S
C816 N813 1.350 . S
C816 C815 1.434 . S
C817 C818 1.369 . S
C817 C819 1.419 . S
C817 H821 0.930 . S
C818 C817 1.369 . S
C818 C827 1.429 1_565 S
C819 C817 1.419 . S
C819 C820 1.363 . S
C819 H822 0.929 . S
C820 C819 1.363 . S
C820 C826 1.428 . S
H821 C817 0.930 . S
H822 C819 0.929 . S
S823 N824 1.613 1_556 S
S823 N825 1.610 1_556 S
N824 S823 1.613 1_554 S
N824 C827 1.350 . S
N825 S823 1.610 1_554 S
N825 C826 1.351 1_545 S
C826 C820 1.428 . S
C826 N825 1.351 1_565 S
C826 C827 1.434 1_565 S
C827 C818 1.429 1_545 S
C827 N824 1.350 . S
C827 C826 1.434 1_545 S
C303 C154 1.444 . S
C301 C50 1.450 . S
C314 C167 1.563 . S
C312 C61 1.574 1_455 S
C323 C67 1.481 . S
C325 C180 1.467 . S
C336 C193 1.502 . S
C334 C41 1.515 1_655 S
C347 C201 1.467 . S
C345 C95 1.491 . S
C358 C214 1.434 . S
C356 C113 1.451 . S
C367 C106 1.515 . S
C369 C227 1.486 . S
C380 C240 1.500 . S
C378 C86 1.516 . S
C389 C104 1.461 . S
C391 C258 1.450 . S
C402 C269 1.501 . S
C400 C88 1.528 . S
C411 C94 1.480 . S
C413 C253 1.455 . S
C424 C261 1.453 . S
C422 C112 1.481 . S
C433 C70 1.504 . S
C435 C284 1.494 . S
C444 C40 1.511 . S
C446 C274 1.483 . S
C455 C49 1.511 . S
C457 C279 1.485 . S
C466 C59 1.553 . S
C468 C282 1.529 . S
C477 C34 1.456 . S
C479 C191 1.433 . S
C488 C133 1.448 . S
C490 C183 1.434 . S
C501 C152 1.526 1_556 S
C499 C139 1.552 1_565 S
C512 C157 1.504 . S
C510 C77 1.524 . S
C521 C43 1.519 1_545 S
C523 C204 1.488 . S
C534 C243 1.501 . S
C532 C103 1.528 . S
C545 C196 1.484 . S
C543 C85 1.514 1_545 S
C556 C222 1.439 . S
C554 C115 1.472 . S
C567 C232 1.444 . S
C565 C131 1.450 . S
C576 C142 1.573 . S
C578 C245 1.560 . S
C587 C76 1.481 . S
C589 C206 1.467 . S
C600 C219 1.505 . S
C598 C122 1.515 . S
C609 C32 1.492 . S
C611 C175 1.462 . S
C622 C188 1.435 . S
C620 C5 1.450 1_655 S
C633 C149 1.491 . S
C631 C16 1.514 . S
C644 C162 1.498 . S
C642 C23 1.516 1_455 S
C653 C14 1.461 . S
C655 C271 1.451 . S
C664 C25 1.527 1_556 S
C666 C256 1.497 1_655 S
C675 C31 1.479 . S
C677 C266 1.459 . S
C686 C4 1.481 1_556 S
C688 C248 1.455 . S
C699 C297 1.494 . S
C697 C79 1.504 . S
C710 C287 1.479 . S
C708 C121 1.512 1_554 S
C721 C292 1.484 . S
C719 C130 1.511 . S
C730 C140 1.554 1_554 S
C732 C295 1.519 . S
C741 C97 1.458 . S
C743 C217 1.433 . S
C754 C209 1.434 . S
C752 C52 1.448 . S
C765 C230 1.524 . S
C763 C58 1.552 . S
C776 C235 1.504 . S
C774 C68 1.527 . S
C785 C124 1.519 . S
C787 C178 1.488 . S
C798 C165 1.500 . S
C796 C13 1.531 . S
C807 C22 1.514 . S
C809 C170 1.488 . S
C820 C144 1.441 . S
C818 C7 1.472 1_565 S
