# Generated by pormake.
# Topology zzz, (3,6)-cn, num edge types: 1
# Building blocks:
#     Node 0, Type 0, BuildingBlock: CUQRIR_clean_linker_1, # of connection points: 3
#     Node 1, Type 0, BuildingBlock: CUQRIR_clean_linker_1, # of connection points: 3
#     Node 2, Type 0, BuildingBlock: CUQRIR_clean_linker_1, # of connection points: 3
#     Node 3, Type 0, BuildingBlock: CUQRIR_clean_linker_1, # of connection points: 3
#     Node 4, Type 0, BuildingBlock: CUQRIR_clean_linker_1, # of connection points: 3
#     Node 5, Type 0, BuildingBlock: CUQRIR_clean_linker_1, # of connection points: 3
#     Node 6, Type 0, BuildingBlock: CUQRIR_clean_linker_1, # of connection points: 3
#     Node 7, Type 0, BuildingBlock: CUQRIR_clean_linker_1, # of connection points: 3
#     Node 8, Type 1, BuildingBlock: CIFDUS_clean_sbu_1, # of connection points: 6
#     Node 9, Type 1, BuildingBlock: CIFDUS_clean_sbu_1, # of connection points: 6
#     Node 10, Type 1, BuildingBlock: CIFDUS_clean_sbu_1, # of connection points: 6
#     Node 11, Type 1, BuildingBlock: CIFDUS_clean_sbu_1, # of connection points: 6
#     Edge 12, Type (0, 1), BuildingBlock: XUDNAN_clean_linker_2, # of connection points: 2
#     Edge 13, Type (0, 1), BuildingBlock: XUDNAN_clean_linker_2, # of connection points: 2
#     Edge 14, Type (0, 1), BuildingBlock: XUDNAN_clean_linker_2, # of connection points: 2
#     Edge 15, Type (0, 1), BuildingBlock: XUDNAN_clean_linker_2, # of connection points: 2
#     Edge 16, Type (0, 1), BuildingBlock: XUDNAN_clean_linker_2, # of connection points: 2
#     Edge 17, Type (0, 1), BuildingBlock: XUDNAN_clean_linker_2, # of connection points: 2
#     Edge 18, Type (0, 1), BuildingBlock: XUDNAN_clean_linker_2, # of connection points: 2
#     Edge 19, Type (0, 1), BuildingBlock: XUDNAN_clean_linker_2, # of connection points: 2
#     Edge 20, Type (0, 1), BuildingBlock: XUDNAN_clean_linker_2, # of connection points: 2
#     Edge 21, Type (0, 1), BuildingBlock: XUDNAN_clean_linker_2, # of connection points: 2
#     Edge 22, Type (0, 1), BuildingBlock: XUDNAN_clean_linker_2, # of connection points: 2
#     Edge 23, Type (0, 1), BuildingBlock: XUDNAN_clean_linker_2, # of connection points: 2
#     Edge 24, Type (0, 1), BuildingBlock: XUDNAN_clean_linker_2, # of connection points: 2
#     Edge 25, Type (0, 1), BuildingBlock: XUDNAN_clean_linker_2, # of connection points: 2
#     Edge 26, Type (0, 1), BuildingBlock: XUDNAN_clean_linker_2, # of connection points: 2
#     Edge 27, Type (0, 1), BuildingBlock: XUDNAN_clean_linker_2, # of connection points: 2
#     Edge 28, Type (0, 1), BuildingBlock: XUDNAN_clean_linker_2, # of connection points: 2
#     Edge 29, Type (0, 1), BuildingBlock: XUDNAN_clean_linker_2, # of connection points: 2
#     Edge 30, Type (0, 1), BuildingBlock: XUDNAN_clean_linker_2, # of connection points: 2
#     Edge 31, Type (0, 1), BuildingBlock: XUDNAN_clean_linker_2, # of connection points: 2
#     Edge 32, Type (0, 1), BuildingBlock: XUDNAN_clean_linker_2, # of connection points: 2
#     Edge 33, Type (0, 1), BuildingBlock: XUDNAN_clean_linker_2, # of connection points: 2
#     Edge 34, Type (0, 1), BuildingBlock: XUDNAN_clean_linker_2, # of connection points: 2
#     Edge 35, Type (0, 1), BuildingBlock: XUDNAN_clean_linker_2, # of connection points: 2
# Relax obj value: 0.151
# Max RMSD: 0.190
# Mean RMSD: 0.115
data_MOF--net-zzz--node1-CIFDUS_clean_sbu_1--node2-CUQRIR_clean_linker_1--edge1-XUDNAN_clean_linker_2
_symmetry_space_group_name_H-M    P1
_symmetry_Int_Tables_number       1
_symmetry_cell_setting            triclinic
loop_
_symmetry_equiv_pos_as_xyz
'x, y, z'
_cell_length_a     46.754439
_cell_length_b     46.87065
_cell_length_c     14.188536
_cell_angle_alpha  90.455625
_cell_angle_beta   90.194329
_cell_angle_gamma 89.745414
loop_
_atom_site_label
_atom_site_type_symbol
_atom_site_fract_x
_atom_site_fract_y
_atom_site_fract_z
_atom_type_partial_charge
C0 C 0.76234 0.55371 0.19774 0.0
N1 N 0.79026 0.56147 0.20044 0.0
N2 N 0.7494 0.56291 0.11718 0.0
C3 C 0.74853 0.53484 0.26899 0.0
C4 C 0.77083 0.57618 0.07115 0.0
N5 N 0.79571 0.57499 0.12051 0.0
C6 C 0.76818 0.5869 0.97167 0.0
H7 H 0.75535 0.51246 0.2557 0.0
H8 H 0.72487 0.53616 0.26388 0.0
H9 H 0.75565 0.5409 0.34108 0.0
H10 H 0.74866 0.60029 0.96498 0.0
H11 H 0.76578 0.5685 0.92256 0.0
H12 H 0.78711 0.59958 0.95113 0.0
C13 C 0.9651 0.75174 0.21996 0.0
N14 N 0.9674 0.7804 0.20676 0.0
N15 N 0.95243 0.73865 0.14419 0.0
C16 C 0.97643 0.73651 0.30478 0.0
C17 C 0.94703 0.76075 0.08528 0.0
N18 N 0.95714 0.7857 0.1211 0.0
C19 C 0.9325 0.75783 0.9903 0.0
H20 H 0.99989 0.73367 0.29727 0.0
H21 H 0.96632 0.71527 0.31197 0.0
H22 H 0.97254 0.74949 0.36926 0.0
H23 H 0.91062 0.74946 0.99949 0.0
H24 H 0.94464 0.74268 0.94496 0.0
H25 H 0.92996 0.77852 0.95395 0.0
C26 C 0.76228 0.95814 0.19135 0.0
N27 N 0.73319 0.95676 0.19302 0.0
N28 N 0.77276 0.95245 0.10344 0.0
C29 C 0.78013 0.96941 0.27119 0.0
C30 C 0.74868 0.94797 0.05213 0.0
N31 N 0.72488 0.95189 0.10467 0.0
C32 C 0.74831 0.94665 0.94597 0.0
H33 H 0.78132 0.99299 0.26605 0.0
H34 H 0.80219 0.96065 0.26698 0.0
H35 H 0.77037 0.96396 0.3399 0.0
H36 H 0.767 0.93433 0.91954 0.0
H37 H 0.74958 0.96862 0.91773 0.0
H38 H 0.72826 0.93669 0.91995 0.0
C39 C 0.54533 0.75853 0.18844 0.0
N40 N 0.55323 0.73059 0.19161 0.0
N41 N 0.55897 0.77227 0.1171 0.0
C42 C 0.52208 0.77149 0.24792 0.0
C43 C 0.57535 0.75136 0.07765 0.0
N44 N 0.57156 0.7261 0.12149 0.0
C45 C 0.59548 0.75535 0.99632 0.0
H46 H 0.50895 0.78653 0.20578 0.0
H47 H 0.53201 0.7836 0.3069 0.0
H48 H 0.50808 0.75486 0.27807 0.0
H49 H 0.60407 0.77738 0.99594 0.0
H50 H 0.58401 0.75141 0.92896 0.0
H51 H 0.61343 0.73983 1.00059 0.0
C52 C 0.26593 0.45958 0.22008 0.0
N53 N 0.23736 0.46492 0.21093 0.0
N54 N 0.27426 0.46069 0.3125 0.0
C55 C 0.28566 0.45393 0.139 0.0
C56 C 0.24978 0.46776 0.35842 0.0
N57 N 0.22771 0.47037 0.29718 0.0
C58 C 0.24812 0.47561 0.46152 0.0
H59 H 0.30368 0.43998 0.16095 0.0
H60 H 0.29453 0.47452 0.1148 0.0
H61 H 0.27388 0.44395 0.07933 0.0
H62 H 0.26871 0.48447 0.48724 0.0
H63 H 0.24322 0.45618 0.50248 0.0
H64 H 0.23096 0.49153 0.47496 0.0
C65 C 0.05531 0.26128 0.20755 0.0
N66 N 0.05734 0.23211 0.21116 0.0
N67 N 0.06165 0.27347 0.2932 0.0
C68 C 0.04617 0.2778 0.12227 0.0
C69 C 0.06818 0.25068 0.34751 0.0
N70 N 0.0649 0.22604 0.29909 0.0
C71 C 0.07697 0.25221 0.45 0.0
H72 H 0.05547 0.29944 0.12225 0.0
H73 H 0.02255 0.28015 0.12266 0.0
H74 H 0.05274 0.26658 0.05668 0.0
H75 H 0.0585 0.24645 0.49484 0.0
H76 H 0.08474 0.27373 0.47013 0.0
H77 H 0.09438 0.23678 0.46468 0.0
C78 C 0.25662 0.04949 0.1906 0.0
N79 N 0.28526 0.05353 0.20115 0.0
N80 N 0.24273 0.05267 0.27465 0.0
C81 C 0.24267 0.04076 0.0995 0.0
C82 C 0.26413 0.05864 0.33627 0.0
N83 N 0.2897 0.05923 0.29193 0.0
C84 C 0.26036 0.06084 0.44157 0.0
H85 H 0.24601 0.05765 0.04643 0.0
H86 H 0.21939 0.03726 0.10769 0.0
H87 H 0.25305 0.021 0.07241 0.0
H88 H 0.2518 0.04042 0.46845 0.0
H89 H 0.24466 0.07786 0.45874 0.0
H90 H 0.28068 0.0659 0.47847 0.0
C91 C 0.46172 0.25711 0.19555 0.0
N92 N 0.46121 0.28626 0.20386 0.0
N93 N 0.45989 0.2445 0.2817 0.0
C94 C 0.46407 0.24065 0.10485 0.0
C95 C 0.45816 0.26674 0.34228 0.0
N96 N 0.45901 0.29163 0.29574 0.0
C97 C 0.45827 0.26424 0.44823 0.0
H98 H 0.45345 0.21963 0.11114 0.0
H99 H 0.48699 0.2367 0.08925 0.0
H100 H 0.45427 0.25267 0.04587 0.0
H101 H 0.48013 0.26876 0.47505 0.0
H102 H 0.45185 0.24264 0.47117 0.0
H103 H 0.44352 0.28014 0.48022 0.0
O104 O 0.02843 0.0413 0.78772 0.0
Mn105 Mn 0.01227 0.00444 0.70927 0.0
O106 O 0.99688 0.04537 0.89304 0.0
Mn107 Mn 0.97831 0.04013 0.7793 0.0
O108 O 0.005 0.96704 0.62294 0.0
O109 O 0.05434 1.00069 0.66553 0.0
Mn110 Mn 0.067 0.9681 0.71246 0.0
O111 O 0.01442 0.97834 0.82485 0.0
O112 O 0.04912 0.94579 0.62049 0.0
O113 O 0.00666 0.02995 0.5957 0.0
O114 O 0.9868 0.0643 0.67982 0.0
O115 O 0.09774 0.99232 0.70364 0.0
O116 O 0.05731 0.95917 0.83433 0.0
C117 C 0.94219 0.01766 0.77666 0.0
C118 C 0.02123 0.05223 0.86723 0.0
C119 C 0.02295 0.94755 0.59227 0.0
C120 C 0.08063 0.00995 0.66249 0.0
C121 C 0.03168 0.96067 0.86115 0.0
C122 C 0.99792 0.05551 0.6038 0.0
O123 O 0.9663 0.00482 0.74675 0.0
O124 O 0.9426 0.04407 0.8037 0.0
O125 O 0.53845 0.0079 0.81919 0.0
Mn126 Mn 0.51191 0.0091 0.70051 0.0
O127 O 0.54536 0.0523 0.85396 0.0
Mn128 Mn 0.54873 0.05445 0.72607 0.0
O129 O 0.485 0.0087 0.58388 0.0
O130 O 0.50676 0.96598 0.73463 0.0
Mn131 Mn 0.47003 0.9613 0.70458 0.0
O132 O 0.47645 0.02072 0.78625 0.0
O133 O 0.46298 0.96693 0.57879 0.0
O134 O 0.54775 0.99908 0.61254 0.0
O135 O 0.57694 0.03319 0.66549 0.0
O136 O 0.4806 0.92624 0.7404 0.0
O137 O 0.44756 0.98262 0.78704 0.0
C138 C 0.52226 0.08006 0.64966 0.0
C139 C 0.54659 0.02676 0.87829 0.0
C140 C 0.46799 0.99112 0.54378 0.0
C141 C 0.50468 0.93882 0.75806 0.0
C142 C 0.4534 0.00803 0.8126 0.0
C143 C 0.57229 0.01174 0.61199 0.0
O144 O 0.51545 0.05292 0.66382 0.0
O145 O 0.54586 0.0897 0.6857 0.0
O146 O 0.50546 0.54081 0.83642 0.0
Mn147 Mn 0.50922 0.51348 0.7228 0.0
O148 O 0.46518 0.56583 0.82605 0.0
Mn149 Mn 0.46054 0.55513 0.70134 0.0
O150 O 0.51481 0.48603 0.61334 0.0
O151 O 0.55395 0.51117 0.76562 0.0
Mn152 Mn 0.54401 0.47553 0.7984 0.0
O153 O 0.49121 0.47844 0.80136 0.0
O154 O 0.53638 0.45206 0.69537 0.0
O155 O 0.52204 0.54778 0.63273 0.0
O156 O 0.48262 0.57519 0.61762 0.0
O157 O 0.57971 0.47432 0.82884 0.0
O158 O 0.52287 0.47022 0.90614 0.0
C159 C 0.44031 0.51839 0.64825 0.0
C160 C 0.48814 0.55941 0.86889 0.0
C161 C 0.52418 0.46066 0.62088 0.0
C162 C 0.57854 0.50031 0.7985 0.0
C163 C 0.49792 0.46602 0.87848 0.0
C164 C 0.50842 0.56933 0.59674 0.0
O165 O 0.46692 0.51809 0.67911 0.0
O166 O 0.42658 0.54232 0.6574 0.0
O167 O 0.04877 0.50036 0.80877 0.0
Mn168 Mn 0.01081 0.50764 0.72501 0.0
O169 O 0.074 0.53936 0.76951 0.0
Mn170 Mn 0.04649 0.55957 0.70284 0.0
O171 O 0.97434 0.51765 0.63961 0.0
O172 O 0.00718 0.46397 0.69345 0.0
Mn173 Mn 0.96983 0.45988 0.71799 0.0
O174 O 0.98547 0.50728 0.84373 0.0
O175 O 0.94784 0.47829 0.62792 0.0
O176 O 0.03621 0.50803 0.60619 0.0
O177 O 0.04575 0.55298 0.5747 0.0
O178 O 0.98058 0.42436 0.69 0.0
O179 O 0.96005 0.46741 0.84104 0.0
C180 C 0.01281 0.5776 0.78207 0.0
C181 C 0.07175 0.51592 0.81451 0.0
C182 C 0.95255 0.50403 0.60587 0.0
C183 C 0.00495 0.43644 0.67346 0.0
C184 C 0.96682 0.4909 0.87942 0.0
C185 C 0.04586 0.52695 0.55085 0.0
O186 O 0.01361 0.5507 0.75574 0.0
O187 O 0.03373 0.59312 0.75229 0.0
H188 H 0.20301 0.08529 0.3661 0.0
H189 H 0.21823 0.00112 0.24906 0.0
H190 H 0.17205 0.98475 0.31407 0.0
H191 H 0.1776 0.06463 0.5818 0.0
H192 H 0.15017 0.09162 0.59335 0.0
H193 H 0.18102 0.09819 0.52161 0.0
H194 H 0.1485 0.10868 0.37726 0.0
H195 H 0.1178 0.10276 0.4501 0.0
H196 H 0.12192 0.08291 0.34214 0.0
H197 H 0.12512 0.97722 0.39621 0.0
H198 H 0.08737 0.97483 0.51548 0.0
H199 H 0.10697 0.06103 0.60674 0.0
C200 C 0.19624 0.06358 0.35276 0.0
C201 C 0.21386 0.04461 0.3003 0.0
C202 C 0.20458 0.01623 0.28572 0.0
C203 C 0.17843 0.00678 0.32286 0.0
C204 C 0.1617 0.02593 0.37515 0.0
C205 C 0.17043 0.05363 0.39124 0.0
C206 C 0.14989 0.06896 0.45779 0.0
C207 C 0.16562 0.08156 0.54378 0.0
C208 C 0.13357 0.09219 0.40357 0.0
C209 C 0.12988 0.04472 0.48448 0.0
C210 C 0.13602 0.02076 0.43049 0.0
C211 C 0.12012 0.99589 0.43849 0.0
C212 C 0.09832 0.99491 0.50601 0.0
C213 C 0.09347 0.0179 0.56996 0.0
C214 C 0.10929 0.04342 0.55754 0.0
H215 H 0.50705 0.22524 0.368 0.0
H216 H 0.42381 0.19934 0.26742 0.0
H217 H 0.42948 0.15273 0.34915 0.0
H218 H 0.54348 0.15677 0.3613 0.0
H219 H 0.56231 0.16376 0.47009 0.0
H220 H 0.55205 0.1929 0.39522 0.0
H221 H 0.52534 0.21662 0.53547 0.0
H222 H 0.53513 0.1873 0.61032 0.0
H223 H 0.49802 0.19694 0.59593 0.0
H224 H 0.44446 0.10931 0.45721 0.0
H225 H 0.46804 0.07446 0.56537 0.0
H226 H 0.53984 0.13222 0.59382 0.0
C227 C 0.49054 0.20924 0.36041 0.0
C228 C 0.46543 0.21535 0.30901 0.0
C229 C 0.4436 0.19456 0.30398 0.0
C230 C 0.44654 0.16825 0.35129 0.0
C231 C 0.47135 0.16325 0.40427 0.0
C232 C 0.49296 0.18336 0.40835 0.0
C233 C 0.51664 0.17434 0.4744 0.0
C234 C 0.54531 0.17177 0.42209 0.0
C235 C 0.5189 0.19503 0.559 0.0
C236 C 0.50569 0.14554 0.50463 0.0
C237 C 0.47943 0.13932 0.46511 0.0
C238 C 0.46532 0.11383 0.48674 0.0
C239 C 0.47881 0.0941 0.5481 0.0
C240 C 0.50606 0.10008 0.5872 0.0
C241 C 0.51914 0.12644 0.56524 0.0
H242 H 0.3238 0.48827 0.2673 0.0
H243 H 0.28805 0.42671 0.45877 0.0
H244 H 0.33254 0.4277 0.55362 0.0
H245 H 0.40093 0.46016 0.28915 0.0
H246 H 0.41514 0.4957 0.27976 0.0
H247 H 0.38259 0.48632 0.2185 0.0
H248 H 0.35613 0.52843 0.30031 0.0
H249 H 0.38854 0.53797 0.36074 0.0
H250 H 0.35654 0.53103 0.42721 0.0
H251 H 0.37769 0.44201 0.64316 0.0
H252 H 0.41767 0.46879 0.71689 0.0
H253 H 0.4258 0.51892 0.46413 0.0
C254 C 0.32588 0.47413 0.32685 0.0
C255 C 0.30242 0.45727 0.35524 0.0
C256 C 0.30571 0.43973 0.43559 0.0
C257 C 0.33101 0.44008 0.48974 0.0
C258 C 0.35344 0.45762 0.46184 0.0
C259 C 0.35129 0.47396 0.38116 0.0
C260 C 0.37755 0.49265 0.37066 0.0
C261 C 0.39509 0.48314 0.28439 0.0
C262 C 0.36918 0.52439 0.36446 0.0
C263 C 0.39359 0.48611 0.4616 0.0
C264 C 0.37982 0.4652 0.51214 0.0
C265 C 0.3891 0.45776 0.60274 0.0
C266 C 0.4121 0.47286 0.64405 0.0
C267 C 0.42568 0.49517 0.59501 0.0
C268 C 0.41674 0.50107 0.50156 0.0
H269 H 0.0303 0.28774 0.44574 0.0
H270 H 0.08257 0.32447 0.22722 0.0
H271 H 0.07695 0.37224 0.30277 0.0
H272 H 0.98458 0.34396 0.50905 0.0
H273 H 0.98829 0.33792 0.63382 0.0
H274 H 0.99295 0.30879 0.55216 0.0
H275 H 0.04313 0.29896 0.6238 0.0
H276 H 0.03888 0.32861 0.70423 0.0
H277 H 0.06931 0.32706 0.62671 0.0
H278 H 0.05967 0.41775 0.40434 0.0
H279 H 0.03911 0.45161 0.52214 0.0
H280 H 0.01372 0.38042 0.69395 0.0
C281 C 0.04065 0.30576 0.41338 0.0
C282 C 0.05625 0.30223 0.32886 0.0
C283 C 0.06941 0.3266 0.2894 0.0
C284 C 0.06679 0.35378 0.33319 0.0
C285 C 0.05227 0.35601 0.41918 0.0
C286 C 0.04029 0.33219 0.45971 0.0
C287 C 0.02894 0.33865 0.55714 0.0
C288 C 0.99679 0.33195 0.56331 0.0
C289 C 0.04608 0.32235 0.6324 0.0
C290 C 0.03458 0.37033 0.56365 0.0
C291 C 0.04764 0.3804 0.48328 0.0
C292 C 0.05073 0.40981 0.46925 0.0
C293 C 0.03956 0.42907 0.53757 0.0
C294 C 0.02602 0.41883 0.61976 0.0
C295 C 0.02489 0.38904 0.63382 0.0
H296 H 0.82082 0.92485 0.0362 0.0
H297 H 0.78045 0.00765 0.06918 0.0
H298 H 0.81588 0.0286 0.96148 0.0
H299 H 0.8939 0.94934 0.03798 0.0
H300 H 0.90632 0.92598 0.94482 0.0
H301 H 0.87703 0.91514 0.01894 0.0
H302 H 0.84596 0.90694 0.87149 0.0
H303 H 0.87562 0.91697 0.79797 0.0
H304 H 0.84177 0.93518 0.78714 0.0
H305 H 0.84881 0.03799 0.82869 0.0
H306 H 0.89324 0.04501 0.74315 0.0
H307 H 0.92351 0.9614 0.83019 0.0
C308 C 0.82012 0.94753 0.02261 0.0
C309 C 0.798 0.96484 0.06167 0.0
C310 C 0.79739 0.99429 0.04105 0.0
C311 C 0.81702 0.00616 0.9784 0.0
C312 C 0.83767 0.98844 0.93784 0.0
C313 C 0.84043 0.96015 0.96222 0.0
C314 C 0.86652 0.94711 0.91304 0.0
C315 C 0.88714 0.93358 0.98349 0.0
C316 C 0.85691 0.92524 0.83802 0.0
C317 C 0.87954 0.97324 0.86593 0.0
C318 C 0.86056 0.99579 0.87406 0.0
C319 C 0.86459 0.02104 0.82618 0.0
C320 C 0.89007 0.02463 0.7771 0.0
C321 C 0.91296 0.00462 0.7843 0.0
C322 C 0.90699 0.97755 0.82477 0.0
H323 H 0.54909 0.78748 0.93462 0.0
H324 H 0.55717 0.82224 0.21698 0.0
H325 H 0.54966 0.87102 0.15389 0.0
H326 H 0.58902 0.84457 0.82005 0.0
H327 H 0.56709 0.84337 0.71538 0.0
H328 H 0.5726 0.81153 0.78364 0.0
H329 H 0.51778 0.8054 0.8011 0.0
H330 H 0.51218 0.83683 0.7315 0.0
H331 H 0.49669 0.83457 0.84735 0.0
H332 H 0.53624 0.91592 0.05699 0.0
H333 H 0.52043 0.95133 0.93879 0.0
H334 H 0.52816 0.88742 0.71931 0.0
C335 C 0.55003 0.80533 0.98318 0.0
C336 C 0.55408 0.8009 0.08101 0.0
C337 C 0.55389 0.82498 0.14207 0.0
C338 C 0.54992 0.8528 0.10655 0.0
C339 C 0.54666 0.85639 0.00928 0.0
C340 C 0.54696 0.83318 0.94861 0.0
C341 C 0.54294 0.8424 0.84718 0.0
C342 C 0.5695 0.83502 0.78808 0.0
C343 C 0.51579 0.82901 0.80431 0.0
C344 C 0.53969 0.87442 0.85977 0.0
C345 C 0.54171 0.8822 0.95376 0.0
C346 C 0.53589 0.91019 0.98295 0.0
C347 C 0.5275 0.93046 0.91497 0.0
C348 C 0.52496 0.92278 0.81861 0.0
C349 C 0.53177 0.89446 0.79127 0.0
H350 H 0.6995 0.58996 0.06685 0.0
H351 H 0.74475 0.50921 0.05491 0.0
H352 H 0.70863 0.49041 0.94322 0.0
H353 H 0.62788 0.56277 0.0675 0.0
H354 H 0.61317 0.58951 0.99013 0.0
H355 H 0.64387 0.59769 0.06198 0.0
H356 H 0.67138 0.61231 0.91197 0.0
H357 H 0.64079 0.60335 0.83981 0.0
H358 H 0.67504 0.58713 0.81621 0.0
H359 H 0.67316 0.48348 0.81516 0.0
H360 H 0.62679 0.47656 0.739 0.0
H361 H 0.59552 0.55561 0.86389 0.0
C362 C 0.70124 0.56812 0.04207 0.0
C363 C 0.72481 0.5508 0.06977 0.0
C364 C 0.72676 0.52253 0.03516 0.0
C365 C 0.7067 0.51198 0.97035 0.0
C366 C 0.68448 0.52985 0.94137 0.0
C367 C 0.68067 0.55682 0.97901 0.0
C368 C 0.65314 0.57021 0.9404 0.0
C369 C 0.63333 0.58061 0.01982 0.0
C370 C 0.66051 0.59472 0.8732 0.0
C371 C 0.64059 0.54514 0.88469 0.0
C372 C 0.66076 0.52354 0.87892 0.0
C373 C 0.65671 0.49967 0.82234 0.0
C374 C 0.63024 0.49617 0.7784 0.0
C375 C 0.60693 0.51475 0.7987 0.0
C376 C 0.61261 0.54071 0.84788 0.0
H377 H 0.99652 0.70021 0.1518 0.0
H378 H 0.90737 0.70817 0.07334 0.0
H379 H 0.91057 0.66303 0.98272 0.0
H380 H 0.02579 0.67216 0.95986 0.0
H381 H 0.04799 0.64537 0.01449 0.0
H382 H 0.0374 0.67642 0.08055 0.0
H383 H 0.0156 0.64428 0.20929 0.0
H384 H 0.0262 0.61295 0.14318 0.0
H385 H 0.98938 0.61789 0.1768 0.0
H386 H 0.92716 0.62114 0.8746 0.0
H387 H 0.95409 0.58599 0.77657 0.0
H388 H 0.02962 0.60135 0.94587 0.0
C389 C 0.97733 0.6919 0.11908 0.0
C390 C 0.95198 0.70854 0.11692 0.0
C391 C 0.92746 0.6967 0.07237 0.0
C392 C 0.92896 0.67073 0.02169 0.0
C393 C 0.95473 0.65562 0.02077 0.0
C394 C 0.97809 0.66524 0.07202 0.0
C395 C 0.00325 0.64499 0.06024 0.0
C396 C 0.03016 0.66069 0.02668 0.0
C397 C 0.00896 0.62909 0.15287 0.0
C398 C 0.99166 0.62461 0.98565 0.0
C399 C 0.96331 0.63039 0.96545 0.0
C400 C 0.94907 0.61585 0.89237 0.0
C401 C 0.96441 0.59566 0.83728 0.0
C402 C 0.99372 0.59028 0.85525 0.0
C403 C 0.00699 0.60438 0.93238 0.0
H404 H 0.01466 0.19868 0.31243 0.0
H405 H 0.10467 0.19349 0.38333 0.0
H406 H 0.0963 0.14821 0.46645 0.0
H407 H 0.98849 0.17047 0.52867 0.0
H408 H 0.95965 0.15043 0.47622 0.0
H409 H 0.97225 0.18232 0.42026 0.0
H410 H 0.98288 0.15407 0.2637 0.0
H411 H 0.96766 0.12352 0.32107 0.0
H412 H 0.00278 0.12114 0.27112 0.0
H413 H 0.07877 0.10553 0.54259 0.0
H414 H 0.05309 0.06472 0.60727 0.0
H415 H 0.97362 0.0962 0.48915 0.0
C416 C 0.03249 0.18755 0.34461 0.0
C417 C 0.06028 0.19914 0.34295 0.0
C418 C 0.08332 0.18472 0.38574 0.0
C419 C 0.07877 0.159 0.43176 0.0
C420 C 0.05117 0.14801 0.43218 0.0
C421 C 0.02833 0.16161 0.38971 0.0
C422 C 1.0007 0.14536 0.40373 0.0
C423 C 0.97901 0.16321 0.46067 0.0
C424 C 0.98778 0.13549 0.30922 0.0
C425 C 0.01186 0.12032 0.45973 0.0
C426 C 0.04103 0.1225 0.47489 0.0
C427 C 0.05636 0.10274 0.527 0.0
C428 C 0.04169 0.07959 0.56274 0.0
C429 C 0.01202 0.07679 0.54784 0.0
C430 C 0.99662 0.0975 0.49719 0.0
H431 H 0.30783 0.01655 0.39939 0.0
H432 H 0.33322 0.09655 0.27654 0.0
H433 H 0.38362 0.08737 0.32459 0.0
H434 H 0.36051 0.01574 0.59838 0.0
H435 H 0.36521 0.9777 0.58637 0.0
H436 H 0.33132 0.99383 0.55745 0.0
H437 H 0.33401 0.97006 0.39248 0.0
H438 H 0.36847 0.95492 0.41957 0.0
H439 H 0.36407 0.97702 0.31753 0.0
H440 H 0.4315 0.06622 0.36958 0.0
H441 H 0.47254 0.03861 0.43255 0.0
H442 H 0.41451 0.97092 0.51215 0.0
C443 C 0.32393 0.03258 0.38669 0.0
C444 C 0.3171 0.05745 0.33665 0.0
C445 C 0.33846 0.07768 0.31668 0.0
C446 C 0.36694 0.07252 0.34309 0.0
C447 C 0.3733 0.04696 0.38844 0.0
C448 C 0.3523 0.02748 0.41099 0.0
C449 C 0.36475 1.00057 0.4522 0.0
C450 C 0.35488 0.99677 0.55469 0.0
C451 C 0.3574 0.97413 0.39178 0.0
C452 C 0.39615 0.0076 0.44704 0.0
C453 C 0.40074 0.03448 0.41106 0.0
C454 C 0.42816 0.04545 0.4002 0.0
C455 C 0.45133 0.02944 0.43442 0.0
C456 C 0.44672 0.00277 0.47778 0.0
C457 C 0.41892 0.99114 0.47888 0.0
H458 H 0.5086 0.32026 0.30717 0.0
H459 H 0.41933 0.32216 0.3864 0.0
H460 H 0.42675 0.36794 0.47097 0.0
H461 H 0.53418 0.34544 0.52754 0.0
H462 H 0.56301 0.36651 0.48148 0.0
H463 H 0.55076 0.33559 0.41731 0.0
H464 H 0.53936 0.36638 0.26606 0.0
H465 H 0.55563 0.39512 0.33192 0.0
H466 H 0.52055 0.39971 0.28325 0.0
H467 H 0.44304 0.41154 0.54531 0.0
H468 H 0.4688 0.45127 0.62063 0.0
H469 H 0.54886 0.42048 0.50435 0.0
C470 C 0.49074 0.33086 0.34122 0.0
C471 C 0.46332 0.31859 0.3403 0.0
C472 C 0.44026 0.33194 0.38682 0.0
C473 C 0.4443 0.35774 0.43415 0.0
C474 C 0.47159 0.36943 0.43416 0.0
C475 C 0.49455 0.35653 0.38968 0.0
C476 C 0.5221 0.37259 0.40832 0.0
C477 C 0.54377 0.35392 0.46192 0.0
C478 C 0.53513 0.38405 0.31683 0.0
C479 C 0.51076 0.39663 0.46934 0.0
C480 C 0.48151 0.3944 0.48192 0.0
C481 C 0.46582 0.41387 0.53488 0.0
C482 C 0.48045 0.43648 0.57596 0.0
C483 C 0.51027 0.43918 0.56405 0.0
C484 C 0.52585 0.41899 0.51139 0.0
H485 H 0.18911 0.44821 0.41702 0.0
H486 H 0.20492 0.51994 0.23541 0.0
H487 H 0.155 0.53604 0.25345 0.0
H488 H 0.11394 0.43449 0.37922 0.0
H489 H 0.10681 0.43138 0.50372 0.0
H490 H 0.14166 0.42257 0.45866 0.0
H491 H 0.16367 0.45873 0.5789 0.0
H492 H 0.12844 0.46741 0.62128 0.0
H493 H 0.15139 0.49522 0.57871 0.0
H494 H 0.10457 0.5456 0.29646 0.0
H495 H 0.06071 0.55466 0.3894 0.0
H496 H 0.08001 0.4805 0.55963 0.0
C497 C 0.18169 0.467 0.38019 0.0
C498 C 0.19977 0.48153 0.31806 0.0
C499 C 0.19037 0.50714 0.2759 0.0
C500 C 0.16223 0.51661 0.28684 0.0
C501 C 0.14434 0.50106 0.34496 0.0
C502 C 0.15408 0.47759 0.39448 0.0
C503 C 0.13257 0.46837 0.46711 0.0
C504 C 0.12317 0.43736 0.45096 0.0
C505 C 0.14473 0.47269 0.56737 0.0
C506 C 0.10867 0.48934 0.44684 0.0
C507 C 0.11584 0.50796 0.37591 0.0
C508 C 0.09842 0.53098 0.35138 0.0
C509 C 0.07355 0.5359 0.40388 0.0
C510 C 0.06657 0.51779 0.47941 0.0
C511 C 0.08394 0.49381 0.49904 0.0
H512 H 0.95252 0.84263 0.16726 0.0
H513 H 0.98308 0.78371 0.95206 0.0
H514 H 0.9964 0.82387 0.85252 0.0
H515 H 0.93058 0.89751 0.03725 0.0
H516 H 0.94736 0.92911 0.08677 0.0
H517 H 0.9381 0.89936 0.16045 0.0
H518 H 0.98538 0.88688 0.21985 0.0
H519 H 0.9996 0.91878 0.1699 0.0
H520 H 0.01633 0.88485 0.14415 0.0
H521 H 0.01028 0.86786 0.78252 0.0
H522 H 0.03292 0.91383 0.75454 0.0
H523 H 0.99977 0.94688 0.01902 0.0
C524 C 0.96201 0.8382 0.09934 0.0
C525 C 0.96515 0.80994 0.06506 0.0
C526 C 0.97856 0.80514 0.9769 0.0
C527 C 0.9865 0.82782 0.92024 0.0
C528 C 0.98284 0.85527 0.95552 0.0
C529 C 0.97233 0.86061 0.0447 0.0
C530 C 0.97552 0.89191 0.071 0.0
C531 C 0.94619 0.90546 0.08988 0.0
C532 C 0.99549 0.89579 0.1562 0.0
C533 C 0.98938 0.90312 0.98224 0.0
C534 C 0.99287 0.88143 0.91652 0.0
C535 C 0.00779 0.88505 0.83328 0.0
C536 C 0.02081 0.91117 0.81853 0.0
C537 C 0.01861 0.93349 0.88588 0.0
C538 C 1.00192 0.92988 0.96738 0.0
H539 H 0.67539 0.92857 0.03856 0.0
H540 H 0.72049 0.00796 0.08264 0.0
H541 H 0.67584 0.03517 0.05688 0.0
H542 H 0.63322 0.95959 0.83882 0.0
H543 H 0.60274 0.93748 0.86346 0.0
H544 H 0.63824 0.92483 0.89006 0.0
H545 H 0.62279 0.91682 0.06524 0.0
H546 H 0.58767 0.92958 0.03496 0.0
H547 H 0.60701 0.94631 0.12937 0.0
H548 H 0.6261 0.0527 0.04848 0.0
H549 H 0.57787 0.06312 0.98868 0.0
H550 H 0.56675 0.97339 0.91952 0.0
C551 C 0.67563 0.95165 0.04133 0.0
C552 C 0.70049 0.96649 0.06724 0.0
C553 C 0.70093 0.99663 0.06647 0.0
C554 C 0.67582 0.01211 0.05272 0.0
C555 C 0.65099 0.99693 0.03442 0.0
C556 C 0.65099 0.96761 0.02216 0.0
C557 C 0.6221 0.95726 0.98881 0.0
C558 C 0.62421 0.94403 0.88938 0.0
C559 C 0.60918 0.93621 0.05887 0.0
C560 C 0.60575 0.98524 0.98812 0.0
C561 C 0.6227 0.00762 0.01763 0.0
C562 C 0.61262 0.03551 0.02338 0.0
C563 C 0.58506 0.04112 0.99017 0.0
C564 C 0.5686 0.01907 0.94809 0.0
C565 C 0.57848 0.99058 0.95236 0.0
H566 H 0.55206 0.71088 0.95208 0.0
H567 H 0.59618 0.67894 0.19766 0.0
H568 H 0.58074 0.62986 0.15709 0.0
H569 H 0.49396 0.6777 0.96852 0.0
H570 H 0.48712 0.66785 0.84746 0.0
H571 H 0.5091 0.69814 0.8738 0.0
H572 H 0.55147 0.67716 0.77892 0.0
H573 H 0.52887 0.64758 0.74596 0.0
H574 H 0.56318 0.64108 0.80002 0.0
H575 H 0.5513 0.58647 0.10669 0.0
H576 H 0.51782 0.55138 0.03439 0.0
H577 H 0.49114 0.61484 0.83169 0.0
C578 C 0.56033 0.6933 0.99306 0.0
C579 C 0.57516 0.69849 0.07782 0.0
C580 C 0.58484 0.67515 0.13216 0.0
C581 C 0.57598 0.64729 0.1099 0.0
C582 C 0.55838 0.64335 0.03132 0.0
C583 C 0.55175 0.66561 0.97136 0.0
C584 C 0.53016 0.65681 0.8975 0.0
C585 C 0.50353 0.67629 0.89703 0.0
C586 C 0.54426 0.65556 0.79982 0.0
C587 C 0.52321 0.62733 0.93161 0.0
C588 C 0.54036 0.61933 0.00642 0.0
C589 C 0.53791 0.59251 0.04773 0.0
C590 C 0.51847 0.57297 0.0079 0.0
C591 C 0.50109 0.58095 0.93053 0.0
C592 C 0.50313 0.60867 0.89385 0.0
H593 H 0.81094 0.54389 0.97037 0.0
H594 H 0.84347 0.60294 0.18001 0.0
H595 H 0.89301 0.58782 0.14179 0.0
H596 H 0.85064 0.48943 1.00427 0.0
H597 H 0.85853 0.47878 0.88468 0.0
H598 H 0.82658 0.49873 0.90951 0.0
H599 H 0.84079 0.53838 0.79285 0.0
H600 H 0.87211 0.51774 0.76262 0.0
H601 H 0.87576 0.55423 0.80124 0.0
H602 H 0.93817 0.56066 0.09457 0.0
H603 H 0.97532 0.52832 0.0274 0.0
H604 H 0.91043 0.48725 0.85531 0.0
C605 C 0.82852 0.55495 1.00402 0.0
C606 C 0.8236 0.57436 0.07842 0.0
C607 C 0.84704 0.58769 0.12365 0.0
C608 C 0.87513 0.57935 0.10204 0.0
C609 C 0.87912 0.55852 0.03264 0.0
C610 C 0.85644 0.54743 0.98147 0.0
C611 C 0.86592 0.52412 0.91463 0.0
C612 C 0.84944 0.49613 0.92937 0.0
C613 C 0.86351 0.53422 0.8118 0.0
C614 C 0.89673 0.52151 0.9443 0.0
C615 C 0.90444 0.54219 0.00933 0.0
C616 C 0.93238 0.54438 0.04358 0.0
C617 C 0.95316 0.52568 0.00674 0.0
C618 C 0.94542 0.50463 0.93949 0.0
C619 C 0.91674 0.50222 0.91009 0.0
H620 H 0.08578 0.1812 0.18508 0.0
H621 H 0.01492 0.23132 0.07627 0.0
H622 H 0.00427 0.19295 0.96225 0.0
H623 H 0.10605 0.14137 0.97569 0.0
H624 H 0.11049 0.10789 0.03585 0.0
H625 H 0.11633 0.141 0.0983 0.0
H626 H 0.07901 0.12717 0.22465 0.0
H627 H 0.07441 0.09359 0.1639 0.0
H628 H 0.04396 0.11611 0.18676 0.0
H629 H 1.00038 0.14898 0.86204 0.0
H630 H 0.99633 0.1 0.80323 0.0
H631 H 0.06321 0.07276 0.99535 0.0
C632 C 0.06793 0.18424 0.13757 0.0
C633 C 0.05188 0.21026 0.13868 0.0
C634 C 0.02873 0.2128 0.07455 0.0
C635 C 0.0222 0.19072 0.0101 0.0
C636 C 0.03819 0.16545 0.01237 0.0
C637 C 0.06004 0.1617 0.07644 0.0
C638 C 0.07127 0.13099 0.07258 0.0
C639 C 0.10292 0.13028 0.04385 0.0
C640 C 0.06692 0.1161 0.16765 0.0
C641 C 0.05225 0.11801 0.99572 0.0
C642 C 0.034 0.13875 0.96062 0.0
C643 C 0.01449 0.13262 0.88928 0.0
C644 C 0.0126 0.10454 0.85526 0.0
C645 C 0.02975 0.08224 0.89246 0.0
C646 C 0.05018 0.08925 0.96355 0.0
H647 H 0.33018 0.01569 0.2001 0.0
H648 H 0.29194 0.08502 0.04358 0.0
H649 H 0.3328 0.08373 0.9321 0.0
H650 H 0.4034 0.04223 0.1761 0.0
H651 H 0.41965 0.00735 0.16685 0.0
H652 H 0.38748 0.0122 0.23386 0.0
H653 H 0.36044 0.97413 0.13818 0.0
H654 H 0.39293 0.96736 0.07409 0.0
H655 H 0.36046 0.97603 0.01132 0.0
H656 H 0.37943 0.07497 0.83838 0.0
H657 H 0.42363 0.05606 0.76339 0.0
H658 H 0.43136 0.99309 0.98354 0.0
C659 C 0.33048 0.03075 0.14279 0.0
C660 C 0.30773 0.05056 0.13065 0.0
C661 C 0.30884 0.06947 0.0535 0.0
C662 C 0.3322 0.06911 0.99069 0.0
C663 C 0.35467 0.04991 0.00637 0.0
C664 C 0.35392 0.03102 0.08067 0.0
C665 C 0.38069 0.01247 0.08217 0.0
C666 C 0.39891 0.019 0.16991 0.0
C667 C 0.37317 0.98061 0.076 0.0
C668 C 0.39579 0.02256 0.99421 0.0
C669 C 0.38099 0.0448 0.95282 0.0
C670 C 0.39114 0.05767 0.87089 0.0
C671 C 0.41645 0.047 0.82917 0.0
C672 C 0.43116 0.0234 0.86839 0.0
C673 C 0.42077 0.01138 0.95268 0.0
H674 H 0.43481 0.33903 0.19607 0.0
H675 H 0.49646 0.28536 0.04977 0.0
H676 H 0.50451 0.3239 0.93624 0.0
H677 H 0.40933 0.38333 1.00335 0.0
H678 H 0.41038 0.41604 0.07098 0.0
H679 H 0.40412 0.3826 0.12916 0.0
H680 H 0.44727 0.39152 0.24072 0.0
H681 H 0.45268 0.42537 0.18439 0.0
H682 H 0.48145 0.39981 0.18985 0.0
H683 H 0.50613 0.36831 0.83867 0.0
H684 H 0.51183 0.41747 0.78692 0.0
H685 H 0.45999 0.44767 0.0202 0.0
C686 C 0.45028 0.33523 0.14107 0.0
C687 C 0.46447 0.30831 0.13194 0.0
C688 C 0.48409 0.30476 0.0568 0.0
C689 C 0.48911 0.32686 0.99229 0.0
C690 C 0.47528 0.35309 0.00524 0.0
C691 C 0.457 0.35773 0.07972 0.0
C692 C 0.44851 0.38924 0.08634 0.0
C693 C 0.41615 0.39302 0.07155 0.0
C694 C 0.45802 0.40226 0.18106 0.0
C695 C 0.46529 0.40169 0.00434 0.0
C696 C 0.47943 0.38001 0.95649 0.0
C697 C 0.4955 0.38544 0.87653 0.0
C698 C 0.49849 0.41372 0.84713 0.0
C699 C 0.4865 0.43686 0.89871 0.0
C700 C 0.4692 0.43061 0.97814 0.0
H701 H 0.19236 0.43383 0.138 0.0
H702 H 0.24305 0.50977 0.09753 0.0
H703 H 0.20461 0.53016 0.99882 0.0
H704 H 0.16492 0.43688 0.87639 0.0
H705 H 0.13138 0.42069 0.90722 0.0
H706 H 0.16364 0.41109 0.96978 0.0
H707 H 0.13882 0.42439 0.12651 0.0
H708 H 0.10685 0.43507 0.06478 0.0
H709 H 0.12458 0.45988 0.1431 0.0
H710 H 0.1572 0.54675 0.947 0.0
H711 H 0.11105 0.55399 0.87343 0.0
H712 H 0.09154 0.46373 0.90341 0.0
C713 C 0.19585 0.45411 0.10414 0.0
C714 C 0.22075 0.47046 0.12607 0.0
C715 C 0.22454 0.49686 0.08073 0.0
C716 C 0.20251 0.50878 0.02609 0.0
C717 C 0.17752 0.49314 0.01144 0.0
C718 C 0.17475 0.46559 0.04289 0.0
C719 C 0.14624 0.45307 0.008 0.0
C720 C 0.15187 0.42899 0.93612 0.0
C721 C 0.12804 0.4425 0.09057 0.0
C722 C 0.13243 0.47889 0.95966 0.0
C723 C 0.15111 0.50167 0.96522 0.0
C724 C 0.14314 0.52871 0.93662 0.0
C725 C 0.11646 0.53246 0.89435 0.0
C726 C 0.09754 0.50925 0.87629 0.0
C727 C 0.10544 0.48194 0.91273 0.0
H728 H 0.94449 0.81029 0.35459 0.0
H729 H 0.02102 0.80013 0.18712 0.0
H730 H 0.04167 0.84322 0.2629 0.0
H731 H 0.94151 0.88583 0.34322 0.0
H732 H 0.92909 0.89182 0.46186 0.0
H733 H 0.92082 0.85887 0.40149 0.0
H734 H 0.94402 0.82979 0.53662 0.0
H735 H 0.95157 0.86265 0.59847 0.0
H736 H 0.9801 0.8378 0.57314 0.0
H737 H 0.05145 0.89023 0.3414 0.0
H738 H 0.05543 0.93256 0.44373 0.0
H739 H 0.97382 0.91282 0.57184 0.0
C740 C 0.96605 0.81661 0.33702 0.0
C741 C 0.98155 0.80143 0.26649 0.0
C742 C 0.00922 0.81095 0.24247 0.0
C743 C 0.02093 0.83557 0.28462 0.0
C744 C 0.00482 0.85055 0.35165 0.0
C745 C 0.97818 0.84123 0.37925 0.0
C746 C 0.96516 0.86204 0.45097 0.0
C747 C 0.9375 0.87542 0.41207 0.0
C748 C 0.9599 0.84718 0.54542 0.0
C749 C 0.98869 0.88437 0.45996 0.0
C750 C 0.01097 0.8775 0.39981 0.0
C751 C 0.03453 0.89526 0.39076 0.0
C752 C 0.03645 0.91949 0.44904 0.0
C753 C 0.0152 0.92605 0.51737 0.0
C754 C 0.99043 0.90862 0.52058 0.0
H755 H 0.69118 0.92818 0.28802 0.0
H756 H 0.72973 0.0113 0.25499 0.0
H757 H 0.69025 0.0332 0.34579 0.0
H758 H 0.61602 0.94892 0.2869 0.0
H759 H 0.60652 0.92451 0.37858 0.0
H760 H 0.63665 0.9167 0.30347 0.0
H761 H 0.66771 0.91236 0.45689 0.0
H762 H 0.63725 0.92186 0.52834 0.0
H763 H 0.66965 0.94242 0.5367 0.0
H764 H 0.64512 0.04678 0.42501 0.0
H765 H 0.60282 0.05166 0.52455 0.0
H766 H 0.59408 0.95945 0.5329 0.0
C767 C 0.69159 0.95088 0.30244 0.0
C768 C 0.71384 0.96805 0.26492 0.0
C769 C 0.71342 0.9977 0.28428 0.0
C770 C 0.69078 0.01034 0.33463 0.0
C771 C 0.669 0.99301 0.36891 0.0
C772 C 0.66962 0.96379 0.35691 0.0
C773 C 0.64445 0.95022 0.40894 0.0
C774 C 0.62478 0.93407 0.34028 0.0
C775 C 0.65542 0.93054 0.48739 0.0
C776 C 0.62929 0.9765 0.45004 0.0
C777 C 0.64379 1.00082 0.42351 0.0
C778 C 0.63406 0.02786 0.4482 0.0
C779 C 0.60982 0.03034 0.50516 0.0
C780 C 0.59515 0.00603 0.53937 0.0
C781 C 0.60469 0.97854 0.50897 0.0
H782 H 0.57017 0.7117 0.36366 0.0
H783 H 0.50999 0.69629 0.1372 0.0
H784 H 0.49728 0.64977 0.20753 0.0
H785 H 0.59407 0.63908 0.38516 0.0
H786 H 0.59754 0.63994 0.51172 0.0
H787 H 0.60188 0.67221 0.44501 0.0
H788 H 0.56149 0.69785 0.54033 0.0
H789 H 0.55966 0.66614 0.61023 0.0
H790 H 0.52772 0.67995 0.55487 0.0
H791 H 0.49363 0.60362 0.29748 0.0
H792 H 0.48989 0.56639 0.41849 0.0
H793 H 0.5496 0.61251 0.59658 0.0
C794 C 0.55356 0.69892 0.33123 0.0
C795 C 0.54059 0.70779 0.24595 0.0
C796 C 0.5196 0.69013 0.20357 0.0
C797 C 0.51266 0.6635 0.24232 0.0
C798 C 0.52664 0.65486 0.32457 0.0
C799 C 0.54606 0.67237 0.37003 0.0
C800 C 0.55745 0.65819 0.45886 0.0
C801 C 0.58965 0.652 0.44963 0.0
C802 C 0.55114 0.67665 0.54625 0.0
C803 C 0.54044 0.63053 0.45902 0.0
C804 C 0.52374 0.62864 0.37847 0.0
C805 C 0.50646 0.60505 0.36096 0.0
C806 C 0.50478 0.58376 0.42977 0.0
C807 C 0.51983 0.5861 0.51643 0.0
C808 C 0.5385 0.60958 0.53015 0.0
H809 H 0.82276 0.51326 0.2282 0.0
H810 H 0.80693 0.5987 0.33312 0.0
H811 H 0.84871 0.59466 0.44034 0.0
H812 H 0.84422 0.48333 0.45683 0.0
H813 H 0.87108 0.46016 0.40644 0.0
H814 H 0.84012 0.47004 0.33797 0.0
H815 H 0.87325 0.48895 0.20683 0.0
H816 H 0.90435 0.47961 0.27552 0.0
H817 H 0.89952 0.5157 0.23531 0.0
H818 H 0.89438 0.5824 0.52944 0.0
H819 H 0.93516 0.56007 0.61348 0.0
H820 H 0.91971 0.48086 0.46216 0.0
C821 C 0.82778 0.53073 0.27572 0.0
C822 C 0.81139 0.55626 0.27374 0.0
C823 C 0.81893 0.5789 0.33522 0.0
C824 C 0.84283 0.57687 0.39534 0.0
C825 C 0.85898 0.55176 0.39462 0.0
C826 C 0.85142 0.5288 0.33798 0.0
C827 C 0.87195 0.50393 0.3536 0.0
C828 C 0.85588 0.47782 0.39094 0.0
C829 C 0.88823 0.49662 0.26241 0.0
C830 C 0.89196 0.5164 0.42836 0.0
C831 C 0.88449 0.54426 0.44927 0.0
C832 C 0.90021 0.56048 0.51425 0.0
C833 C 0.92353 0.54769 0.56133 0.0
C834 C 0.93073 0.51869 0.54511 0.0
C835 C 0.91477 0.50306 0.47663 0.0
loop_
_geom_bond_atom_site_label_1
_geom_bond_atom_site_label_2
_geom_bond_distance
_geom_bond_site_symmetry_2
_ccdc_geom_bond_type
C0 N1 1.317 . S
C0 N2 1.348 . S
C0 C3 1.485 . S
N1 C0 1.317 . S
N1 N5 1.370 . S
N2 C0 1.348 . S
N2 C4 1.346 . S
C3 C0 1.485 . S
C3 H7 0.960 . S
C3 H8 0.961 . S
C3 H9 0.960 . S
C4 N2 1.346 . S
C4 N5 1.307 . S
C4 C6 1.486 1_554 S
N5 N1 1.370 . S
N5 C4 1.307 . S
C6 C4 1.486 1_556 S
C6 H10 0.960 . S
C6 H11 0.960 . S
C6 H12 0.959 . S
H7 C3 0.960 . S
H8 C3 0.961 . S
H9 C3 0.960 . S
H10 C6 0.960 . S
H11 C6 0.960 . S
H12 C6 0.959 . S
C13 N14 1.317 . S
C13 N15 1.348 . S
C13 C16 1.485 . S
N14 C13 1.317 . S
N14 N18 1.370 . S
N15 C13 1.348 . S
N15 C17 1.346 . S
C16 C13 1.485 . S
C16 H20 0.960 . S
C16 H21 0.961 . S
C16 H22 0.960 . S
C17 N15 1.346 . S
C17 N18 1.307 . S
C17 C19 1.486 1_554 S
N18 N14 1.370 . S
N18 C17 1.307 . S
C19 C17 1.486 1_556 S
C19 H23 0.960 . S
C19 H24 0.960 . S
C19 H25 0.959 . S
H20 C16 0.960 . S
H21 C16 0.961 . S
H22 C16 0.960 . S
H23 C19 0.960 . S
H24 C19 0.960 . S
H25 C19 0.959 . S
C26 N27 1.317 . S
C26 N28 1.348 . S
C26 C29 1.485 . S
N27 C26 1.317 . S
N27 N31 1.370 . S
N28 C26 1.348 . S
N28 C30 1.346 . S
C29 C26 1.485 . S
C29 H33 0.960 . S
C29 H34 0.961 . S
C29 H35 0.960 . S
C30 N28 1.346 . S
C30 N31 1.307 . S
C30 C32 1.486 1_554 S
N31 N27 1.370 . S
N31 C30 1.307 . S
C32 C30 1.486 1_556 S
C32 H36 0.960 . S
C32 H37 0.960 . S
C32 H38 0.959 . S
H33 C29 0.960 . S
H34 C29 0.961 . S
H35 C29 0.960 . S
H36 C32 0.960 . S
H37 C32 0.960 . S
H38 C32 0.959 . S
C39 N40 1.317 . S
C39 N41 1.348 . S
C39 C42 1.485 . S
N40 C39 1.317 . S
N40 N44 1.370 . S
N41 C39 1.348 . S
N41 C43 1.346 . S
C42 C39 1.485 . S
C42 H46 0.960 . S
C42 H47 0.961 . S
C42 H48 0.960 . S
C43 N41 1.346 . S
C43 N44 1.307 . S
C43 C45 1.486 1_554 S
N44 N40 1.370 . S
N44 C43 1.307 . S
C45 C43 1.486 1_556 S
C45 H49 0.960 . S
C45 H50 0.960 . S
C45 H51 0.959 . S
H46 C42 0.960 . S
H47 C42 0.961 . S
H48 C42 0.960 . S
H49 C45 0.960 . S
H50 C45 0.960 . S
H51 C45 0.959 . S
C52 N53 1.317 . S
C52 N54 1.348 . S
C52 C55 1.485 . S
N53 C52 1.317 . S
N53 N57 1.370 . S
N54 C52 1.348 . S
N54 C56 1.346 . S
C55 C52 1.485 . S
C55 H59 0.960 . S
C55 H60 0.961 . S
C55 H61 0.960 . S
C56 N54 1.346 . S
C56 N57 1.307 . S
C56 C58 1.486 . S
N57 N53 1.370 . S
N57 C56 1.307 . S
C58 C56 1.486 . S
C58 H62 0.960 . S
C58 H63 0.960 . S
C58 H64 0.959 . S
H59 C55 0.960 . S
H60 C55 0.961 . S
H61 C55 0.960 . S
H62 C58 0.960 . S
H63 C58 0.960 . S
H64 C58 0.959 . S
C65 N66 1.317 . S
C65 N67 1.348 . S
C65 C68 1.485 . S
N66 C65 1.317 . S
N66 N70 1.370 . S
N67 C65 1.348 . S
N67 C69 1.346 . S
C68 C65 1.485 . S
C68 H72 0.960 . S
C68 H73 0.961 . S
C68 H74 0.960 . S
C69 N67 1.346 . S
C69 N70 1.307 . S
C69 C71 1.486 . S
N70 N66 1.370 . S
N70 C69 1.307 . S
C71 C69 1.486 . S
C71 H75 0.960 . S
C71 H76 0.960 . S
C71 H77 0.959 . S
H72 C68 0.960 . S
H73 C68 0.961 . S
H74 C68 0.960 . S
H75 C71 0.960 . S
H76 C71 0.960 . S
H77 C71 0.959 . S
C78 N79 1.317 . S
C78 N80 1.348 . S
C78 C81 1.485 . S
N79 C78 1.317 . S
N79 N83 1.370 . S
N80 C78 1.348 . S
N80 C82 1.346 . S
C81 C78 1.485 . S
C81 H85 0.960 . S
C81 H86 0.961 . S
C81 H87 0.960 . S
C82 N80 1.346 . S
C82 N83 1.307 . S
C82 C84 1.486 . S
N83 N79 1.370 . S
N83 C82 1.307 . S
C84 C82 1.486 . S
C84 H88 0.960 . S
C84 H89 0.960 . S
C84 H90 0.959 . S
H85 C81 0.960 . S
H86 C81 0.961 . S
H87 C81 0.960 . S
H88 C84 0.960 . S
H89 C84 0.960 . S
H90 C84 0.959 . S
C91 N92 1.317 . S
C91 N93 1.348 . S
C91 C94 1.485 . S
N92 C91 1.317 . S
N92 N96 1.370 . S
N93 C91 1.348 . S
N93 C95 1.346 . S
C94 C91 1.485 . S
C94 H98 0.960 . S
C94 H99 0.961 . S
C94 H100 0.960 . S
C95 N93 1.346 . S
C95 N96 1.307 . S
C95 C97 1.486 . S
N96 N92 1.370 . S
N96 C95 1.307 . S
C97 C95 1.486 . S
C97 H101 0.960 . S
C97 H102 0.960 . S
C97 H103 0.959 . S
H98 C94 0.960 . S
H99 C94 0.961 . S
H100 C94 0.960 . S
H101 C97 0.960 . S
H102 C97 0.960 . S
H103 C97 0.959 . S
O104 Mn105 2.163 . S
O104 C118 1.244 . S
Mn105 O104 2.163 . S
Mn105 O108 2.160 1_445 S
Mn105 O109 2.221 1_545 S
Mn105 O111 2.163 1_545 S
Mn105 O113 2.160 . S
Mn105 O123 2.221 1_455 S
O106 Mn107 2.087 . S
O106 C118 1.256 1_655 S
Mn107 O106 2.087 . S
Mn107 O114 2.089 . S
Mn107 O123 2.290 . S
Mn107 O124 2.251 . S
O108 Mn105 2.160 1_665 S
O108 C119 1.239 . S
O109 Mn105 2.221 1_565 S
O109 Mn110 2.290 . S
O109 C120 1.279 . S
Mn110 O109 2.290 . S
Mn110 O112 2.089 . S
Mn110 O115 2.251 . S
Mn110 O116 2.087 . S
O111 Mn105 2.163 1_565 S
O111 C121 1.244 . S
O112 Mn110 2.089 . S
O112 C119 1.256 1_455 S
O113 Mn105 2.160 . S
O113 C122 1.233 1_455 S
O114 Mn107 2.089 . S
O114 C122 1.267 . S
O115 Mn110 2.251 . S
O115 C120 1.260 . S
O116 Mn110 2.087 . S
O116 C121 1.256 . S
C117 O123 1.278 . S
C117 O124 1.241 . S
C118 O104 1.244 . S
C118 O106 1.256 1_455 S
C119 O108 1.239 . S
C119 O112 1.256 1_655 S
C120 O109 1.279 . S
C120 O115 1.260 . S
C121 O111 1.244 . S
C121 O116 1.256 . S
C122 O113 1.233 1_655 S
C122 O114 1.267 . S
O123 Mn105 2.221 1_655 S
O123 Mn107 2.290 . S
O123 C117 1.278 . S
O124 Mn107 2.251 . S
O124 C117 1.241 . S
O125 Mn126 2.163 . S
O125 C139 1.244 . S
Mn126 O125 2.163 . S
Mn126 O129 2.160 . S
Mn126 O130 2.221 1_545 S
Mn126 O132 2.163 . S
Mn126 O134 2.160 1_545 S
Mn126 O144 2.221 . S
O127 Mn128 2.087 . S
O127 C139 1.256 . S
Mn128 O127 2.087 . S
Mn128 O135 2.089 . S
Mn128 O144 2.290 . S
Mn128 O145 2.251 . S
O129 Mn126 2.160 . S
O129 C140 1.239 1_545 S
O130 Mn126 2.221 1_565 S
O130 Mn131 2.290 . S
O130 C141 1.278 . S
Mn131 O130 2.290 . S
Mn131 O133 2.089 . S
Mn131 O136 2.251 . S
Mn131 O137 2.087 . S
O132 Mn126 2.163 . S
O132 C142 1.244 . S
O133 Mn131 2.089 . S
O133 C140 1.256 . S
O134 Mn126 2.160 1_565 S
O134 C143 1.239 . S
O135 Mn128 2.089 . S
O135 C143 1.256 1_545 S
O136 Mn131 2.251 . S
O136 C141 1.241 . S
O137 Mn131 2.087 . S
O137 C142 1.256 1_565 S
C138 O144 1.278 . S
C138 O145 1.241 . S
C139 O125 1.244 . S
C139 O127 1.256 . S
C140 O129 1.239 1_565 S
C140 O133 1.256 . S
C141 O130 1.278 . S
C141 O136 1.241 . S
C142 O132 1.244 . S
C142 O137 1.256 1_545 S
C143 O134 1.239 . S
C143 O135 1.256 1_565 S
O144 Mn126 2.221 . S
O144 Mn128 2.290 . S
O144 C138 1.278 . S
O145 Mn128 2.251 . S
O145 C138 1.241 . S
O146 Mn147 2.163 . S
O146 C160 1.244 . S
Mn147 O146 2.163 . S
Mn147 O150 2.160 . S
Mn147 O151 2.221 . S
Mn147 O153 2.163 . S
Mn147 O155 2.160 . S
Mn147 O165 2.221 . S
O148 Mn149 2.087 . S
O148 C160 1.256 . S
Mn149 O148 2.087 . S
Mn149 O156 2.089 . S
Mn149 O165 2.290 . S
Mn149 O166 2.251 . S
O150 Mn147 2.160 . S
O150 C161 1.239 . S
O151 Mn147 2.221 . S
O151 Mn152 2.290 . S
O151 C162 1.278 . S
Mn152 O151 2.290 . S
Mn152 O154 2.089 . S
Mn152 O157 2.251 . S
Mn152 O158 2.087 . S
O153 Mn147 2.163 . S
O153 C163 1.244 . S
O154 Mn152 2.089 . S
O154 C161 1.256 . S
O155 Mn147 2.160 . S
O155 C164 1.239 . S
O156 Mn149 2.089 . S
O156 C164 1.256 . S
O157 Mn152 2.251 . S
O157 C162 1.241 . S
O158 Mn152 2.087 . S
O158 C163 1.256 . S
C159 O165 1.278 . S
C159 O166 1.241 . S
C160 O146 1.244 . S
C160 O148 1.256 . S
C161 O150 1.239 . S
C161 O154 1.256 . S
C162 O151 1.278 . S
C162 O157 1.241 . S
C163 O153 1.244 . S
C163 O158 1.256 . S
C164 O155 1.239 . S
C164 O156 1.256 . S
O165 Mn147 2.221 . S
O165 Mn149 2.290 . S
O165 C159 1.278 . S
O166 Mn149 2.251 . S
O166 C159 1.241 . S
O167 Mn168 2.163 . S
O167 C181 1.244 . S
Mn168 O167 2.163 . S
Mn168 O171 2.160 1_455 S
Mn168 O172 2.221 1_455 S
Mn168 O174 2.163 1_455 S
Mn168 O176 2.160 . S
Mn168 O186 2.221 . S
O169 Mn170 2.087 . S
O169 C181 1.256 . S
Mn170 O169 2.087 . S
Mn170 O177 2.089 . S
Mn170 O186 2.290 . S
Mn170 O187 2.251 . S
O171 Mn168 2.160 1_655 S
O171 C182 1.239 . S
O172 Mn168 2.221 1_655 S
O172 Mn173 2.290 . S
O172 C183 1.278 . S
Mn173 O172 2.290 . S
Mn173 O175 2.089 . S
Mn173 O178 2.251 . S
Mn173 O179 2.087 . S
O174 Mn168 2.163 1_655 S
O174 C184 1.244 . S
O175 Mn173 2.089 . S
O175 C182 1.256 . S
O176 Mn168 2.160 . S
O176 C185 1.239 . S
O177 Mn170 2.089 . S
O177 C185 1.256 . S
O178 Mn173 2.251 . S
O178 C183 1.242 . S
O179 Mn173 2.087 . S
O179 C184 1.256 . S
C180 O186 1.278 . S
C180 O187 1.241 . S
C181 O167 1.244 . S
C181 O169 1.256 . S
C182 O171 1.239 . S
C182 O175 1.256 . S
C183 O172 1.278 . S
C183 O178 1.242 . S
C184 O174 1.244 . S
C184 O179 1.256 . S
C185 O176 1.239 . S
C185 O177 1.256 . S
O186 Mn168 2.221 . S
O186 Mn170 2.290 . S
O186 C180 1.278 . S
O187 Mn170 2.251 . S
O187 C180 1.241 . S
H188 C200 0.930 . S
H189 C202 0.930 1_565 S
H190 C203 0.953 . S
H191 C207 0.959 . S
H192 C207 0.959 . S
H193 C207 0.961 . S
H194 C208 0.960 . S
H195 C208 0.961 . S
H196 C208 0.959 . S
H197 C211 0.929 . S
H198 C212 0.931 . S
H199 C214 0.930 . S
C200 H188 0.930 . S
C200 C201 1.399 . S
C200 C205 1.399 . S
C201 C200 1.399 . S
C201 C202 1.376 . S
C202 H189 0.930 1_545 S
C202 C201 1.376 . S
C202 C203 1.379 1_545 S
C203 H190 0.953 . S
C203 C202 1.379 1_565 S
C203 C204 1.375 1_565 S
C204 C203 1.375 1_545 S
C204 C205 1.394 . S
C204 C210 1.465 . S
C205 C200 1.399 . S
C205 C204 1.394 . S
C205 C206 1.516 . S
C206 C205 1.516 . S
C206 C207 1.502 . S
C206 C208 1.561 . S
C206 C209 1.526 . S
C207 H191 0.959 . S
C207 H192 0.959 . S
C207 H193 0.961 . S
C207 C206 1.502 . S
C208 H194 0.960 . S
C208 H195 0.961 . S
C208 H196 0.959 . S
C208 C206 1.561 . S
C209 C206 1.526 . S
C209 C210 1.396 . S
C209 C214 1.390 . S
C210 C204 1.465 . S
C210 C209 1.396 . S
C210 C211 1.399 1_545 S
C211 H197 0.929 . S
C211 C210 1.399 1_565 S
C211 C212 1.385 . S
C212 H198 0.931 . S
C212 C211 1.385 . S
C212 C213 1.389 1_565 S
C213 C212 1.389 1_545 S
C213 C214 1.387 . S
C214 H199 0.930 . S
C214 C209 1.390 . S
C214 C213 1.387 . S
H215 C227 0.930 . S
H216 C229 0.930 . S
H217 C230 0.930 . S
H218 C234 0.959 . S
H219 C234 0.959 . S
H220 C234 0.961 . S
H221 C235 0.960 . S
H222 C235 0.961 . S
H223 C235 0.959 . S
H224 C238 0.929 . S
H225 C239 0.931 . S
H226 C241 0.930 . S
C227 H215 0.930 . S
C227 C228 1.399 . S
C227 C232 1.399 . S
C228 C227 1.399 . S
C228 C229 1.376 . S
C229 H216 0.930 . S
C229 C228 1.376 . S
C229 C230 1.388 . S
C230 H217 0.930 . S
C230 C229 1.388 . S
C230 C231 1.390 . S
C231 C230 1.390 . S
C231 C232 1.394 . S
C231 C237 1.465 . S
C232 C227 1.399 . S
C232 C231 1.394 . S
C232 C233 1.516 . S
C233 C232 1.516 . S
C233 C234 1.502 . S
C233 C235 1.561 . S
C233 C236 1.526 . S
C234 H218 0.959 . S
C234 H219 0.959 . S
C234 H220 0.961 . S
C234 C233 1.502 . S
C235 H221 0.960 . S
C235 H222 0.961 . S
C235 H223 0.959 . S
C235 C233 1.561 . S
C236 C233 1.526 . S
C236 C237 1.396 . S
C236 C241 1.390 . S
C237 C231 1.465 . S
C237 C236 1.396 . S
C237 C238 1.399 . S
C238 H224 0.929 . S
C238 C237 1.399 . S
C238 C239 1.385 . S
C239 H225 0.931 . S
C239 C238 1.385 . S
C239 C240 1.389 . S
C240 C239 1.389 . S
C240 C241 1.387 . S
C241 H226 0.930 . S
C241 C236 1.390 . S
C241 C240 1.387 . S
H242 C254 0.930 . S
H243 C256 0.930 . S
H244 C257 0.930 . S
H245 C261 0.959 . S
H246 C261 0.959 . S
H247 C261 0.961 . S
H248 C262 0.960 . S
H249 C262 0.961 . S
H250 C262 0.959 . S
H251 C265 0.929 . S
H252 C266 0.931 . S
H253 C268 0.930 . S
C254 H242 0.930 . S
C254 C255 1.399 . S
C254 C259 1.399 . S
C255 C254 1.399 . S
C255 C256 1.376 . S
C256 H243 0.930 . S
C256 C255 1.376 . S
C256 C257 1.388 . S
C257 H244 0.930 . S
C257 C256 1.388 . S
C257 C258 1.390 . S
C258 C257 1.390 . S
C258 C259 1.394 . S
C258 C264 1.465 . S
C259 C254 1.399 . S
C259 C258 1.394 . S
C259 C260 1.516 . S
C260 C259 1.516 . S
C260 C261 1.502 . S
C260 C262 1.561 . S
C260 C263 1.526 . S
C261 H245 0.959 . S
C261 H246 0.959 . S
C261 H247 0.961 . S
C261 C260 1.502 . S
C262 H248 0.960 . S
C262 H249 0.961 . S
C262 H250 0.959 . S
C262 C260 1.561 . S
C263 C260 1.526 . S
C263 C264 1.396 . S
C263 C268 1.390 . S
C264 C258 1.465 . S
C264 C263 1.396 . S
C264 C265 1.399 . S
C265 H251 0.929 . S
C265 C264 1.399 . S
C265 C266 1.385 . S
C266 H252 0.931 . S
C266 C265 1.385 . S
C266 C267 1.389 . S
C267 C266 1.389 . S
C267 C268 1.387 . S
C268 H253 0.930 . S
C268 C263 1.390 . S
C268 C267 1.387 . S
H269 C281 0.930 . S
H270 C283 0.930 . S
H271 C284 0.930 . S
H272 C288 0.959 1_655 S
H273 C288 0.959 . S
H274 C288 0.961 . S
H275 C289 0.960 . S
H276 C289 0.961 . S
H277 C289 0.959 . S
H278 C292 0.929 . S
H279 C293 0.931 . S
H280 C295 0.930 . S
C281 H269 0.930 . S
C281 C282 1.399 . S
C281 C286 1.399 . S
C282 C281 1.399 . S
C282 C283 1.376 . S
C283 H270 0.930 . S
C283 C282 1.376 . S
C283 C284 1.388 . S
C284 H271 0.930 . S
C284 C283 1.388 . S
C284 C285 1.390 . S
C285 C284 1.390 . S
C285 C286 1.394 . S
C285 C291 1.465 . S
C286 C281 1.399 . S
C286 C285 1.394 . S
C286 C287 1.516 . S
C287 C286 1.516 . S
C287 C288 1.502 . S
C287 C289 1.561 . S
C287 C290 1.526 . S
C288 H272 0.959 1_455 S
C288 H273 0.959 . S
C288 H274 0.961 . S
C288 C287 1.502 . S
C289 H275 0.960 . S
C289 H276 0.961 . S
C289 H277 0.959 . S
C289 C287 1.561 . S
C290 C287 1.526 . S
C290 C291 1.396 . S
C290 C295 1.390 . S
C291 C285 1.465 . S
C291 C290 1.396 . S
C291 C292 1.399 . S
C292 H278 0.929 . S
C292 C291 1.399 . S
C292 C293 1.385 . S
C293 H279 0.931 . S
C293 C292 1.385 . S
C293 C294 1.389 . S
C294 C293 1.389 . S
C294 C295 1.387 . S
C295 H280 0.930 . S
C295 C290 1.390 . S
C295 C294 1.387 . S
H296 C308 0.930 . S
H297 C310 0.930 . S
H298 C311 0.930 1_554 S
H299 C315 0.959 . S
H300 C315 0.959 . S
H301 C315 0.961 . S
H302 C316 0.960 . S
H303 C316 0.961 . S
H304 C316 0.959 . S
H305 C319 0.929 . S
H306 C320 0.931 . S
H307 C322 0.930 . S
C308 H296 0.930 . S
C308 C309 1.399 1_556 S
C308 C313 1.399 . S
C309 C308 1.399 1_554 S
C309 C310 1.376 1_565 S
C310 H297 0.930 . S
C310 C309 1.376 1_545 S
C310 C311 1.388 1_554 S
C311 H298 0.930 1_556 S
C311 C310 1.388 1_556 S
C311 C312 1.390 1_545 S
C312 C311 1.390 1_565 S
C312 C313 1.394 . S
C312 C318 1.465 1_565 S
C313 C308 1.399 . S
C313 C312 1.394 . S
C313 C314 1.516 . S
C314 C313 1.516 . S
C314 C315 1.502 . S
C314 C316 1.561 . S
C314 C317 1.526 . S
C315 H299 0.959 . S
C315 H300 0.959 . S
C315 H301 0.961 . S
C315 C314 1.502 . S
C316 H302 0.960 . S
C316 H303 0.961 . S
C316 H304 0.959 . S
C316 C314 1.561 . S
C317 C314 1.526 . S
C317 C318 1.396 1_565 S
C317 C322 1.390 . S
C318 C312 1.465 1_545 S
C318 C317 1.396 1_545 S
C318 C319 1.399 . S
C319 H305 0.929 . S
C319 C318 1.399 . S
C319 C320 1.385 . S
C320 H306 0.931 . S
C320 C319 1.385 . S
C320 C321 1.397 . S
C321 C320 1.397 . S
C321 C322 1.380 1_545 S
C322 H307 0.930 . S
C322 C317 1.390 . S
C322 C321 1.380 1_565 S
H323 C335 0.930 . S
H324 C337 0.930 . S
H325 C338 0.930 . S
H326 C342 0.959 . S
H327 C342 0.959 . S
H328 C342 0.961 . S
H329 C343 0.960 . S
H330 C343 0.961 . S
H331 C343 0.959 . S
H332 C346 0.929 1_554 S
H333 C347 0.931 . S
H334 C349 0.930 . S
C335 H323 0.930 . S
C335 C336 1.399 1_556 S
C335 C340 1.399 . S
C336 C335 1.399 1_554 S
C336 C337 1.376 . S
C337 H324 0.930 . S
C337 C336 1.376 . S
C337 C338 1.388 . S
C338 H325 0.930 . S
C338 C337 1.388 . S
C338 C339 1.390 1_554 S
C339 C338 1.390 1_556 S
C339 C340 1.394 . S
C339 C345 1.465 . S
C340 C335 1.399 . S
C340 C339 1.394 . S
C340 C341 1.516 . S
C341 C340 1.516 . S
C341 C342 1.502 . S
C341 C343 1.561 . S
C341 C344 1.526 . S
C342 H326 0.959 . S
C342 H327 0.959 . S
C342 H328 0.961 . S
C342 C341 1.502 . S
C343 H329 0.960 . S
C343 H330 0.961 . S
C343 H331 0.959 . S
C343 C341 1.561 . S
C344 C341 1.526 . S
C344 C345 1.396 . S
C344 C349 1.390 . S
C345 C339 1.465 . S
C345 C344 1.396 . S
C345 C346 1.399 . S
C346 H332 0.929 1_556 S
C346 C345 1.399 . S
C346 C347 1.385 . S
C347 H333 0.931 . S
C347 C346 1.385 . S
C347 C348 1.389 . S
C348 C347 1.389 . S
C348 C349 1.387 . S
C349 H334 0.930 . S
C349 C344 1.390 . S
C349 C348 1.387 . S
H350 C362 0.930 . S
H351 C364 0.930 . S
H352 C365 0.930 . S
H353 C369 0.959 . S
H354 C369 0.959 . S
H355 C369 0.961 . S
H356 C370 0.960 . S
H357 C370 0.961 . S
H358 C370 0.959 . S
H359 C373 0.929 . S
H360 C374 0.931 . S
H361 C376 0.930 . S
C362 H350 0.930 . S
C362 C363 1.399 1_556 S
C362 C367 1.399 . S
C363 C362 1.399 1_554 S
C363 C364 1.376 . S
C364 H351 0.930 . S
C364 C363 1.376 . S
C364 C365 1.388 . S
C365 H352 0.930 . S
C365 C364 1.388 . S
C365 C366 1.390 1_554 S
C366 C365 1.390 1_556 S
C366 C367 1.394 . S
C366 C372 1.465 . S
C367 C362 1.399 . S
C367 C366 1.394 . S
C367 C368 1.516 . S
C368 C367 1.516 . S
C368 C369 1.502 . S
C368 C370 1.561 . S
C368 C371 1.526 . S
C369 H353 0.959 . S
C369 H354 0.959 . S
C369 H355 0.961 . S
C369 C368 1.502 . S
C370 H356 0.960 . S
C370 H357 0.961 . S
C370 H358 0.959 . S
C370 C368 1.561 . S
C371 C368 1.526 . S
C371 C372 1.396 . S
C371 C376 1.390 . S
C372 C366 1.465 . S
C372 C371 1.396 . S
C372 C373 1.399 . S
C373 H359 0.929 . S
C373 C372 1.399 . S
C373 C374 1.385 . S
C374 H360 0.931 . S
C374 C373 1.385 . S
C374 C375 1.389 . S
C375 C374 1.389 . S
C375 C376 1.387 . S
C376 H361 0.930 . S
C376 C371 1.390 . S
C376 C375 1.387 . S
H377 C389 0.930 . S
H378 C391 0.930 . S
H379 C392 0.930 . S
H380 C396 0.959 1_556 S
H381 C396 0.959 . S
H382 C396 0.961 . S
H383 C397 0.960 . S
H384 C397 0.961 . S
H385 C397 0.959 . S
H386 C400 0.929 . S
H387 C401 0.931 . S
H388 C403 0.930 . S
C389 H377 0.930 . S
C389 C390 1.399 . S
C389 C394 1.399 1_554 S
C390 C389 1.399 . S
C390 C391 1.376 1_554 S
C391 H378 0.930 . S
C391 C390 1.376 1_556 S
C391 C392 1.388 . S
C392 H379 0.930 . S
C392 C391 1.388 . S
C392 C393 1.390 . S
C393 C392 1.390 . S
C393 C394 1.394 . S
C393 C399 1.465 . S
C394 C389 1.399 1_556 S
C394 C393 1.394 . S
C394 C395 1.516 1_556 S
C395 C394 1.516 1_554 S
C395 C396 1.502 1_655 S
C395 C397 1.561 . S
C395 C398 1.526 1_554 S
C396 H380 0.959 1_554 S
C396 H381 0.959 . S
C396 H382 0.961 . S
C396 C395 1.502 1_455 S
C397 H383 0.960 . S
C397 H384 0.961 . S
C397 H385 0.959 . S
C397 C395 1.561 . S
C398 C395 1.526 1_556 S
C398 C399 1.396 . S
C398 C403 1.390 1_655 S
C399 C393 1.465 . S
C399 C398 1.396 . S
C399 C400 1.399 . S
C400 H386 0.929 . S
C400 C399 1.399 . S
C400 C401 1.385 . S
C401 H387 0.931 . S
C401 C400 1.385 . S
C401 C402 1.389 . S
C402 C401 1.389 . S
C402 C403 1.387 1_655 S
C403 H388 0.930 . S
C403 C398 1.390 1_455 S
C403 C402 1.387 1_455 S
H404 C416 0.930 . S
H405 C418 0.930 . S
H406 C419 0.930 . S
H407 C423 0.959 . S
H408 C423 0.959 . S
H409 C423 0.961 . S
H410 C424 0.960 . S
H411 C424 0.961 . S
H412 C424 0.959 . S
H413 C427 0.929 . S
H414 C428 0.931 . S
H415 C430 0.930 1_655 S
C416 H404 0.930 . S
C416 C417 1.399 . S
C416 C421 1.399 . S
C417 C416 1.399 . S
C417 C418 1.376 . S
C418 H405 0.930 . S
C418 C417 1.376 . S
C418 C419 1.388 . S
C419 H406 0.930 . S
C419 C418 1.388 . S
C419 C420 1.390 . S
C420 C419 1.390 . S
C420 C421 1.394 . S
C420 C426 1.465 . S
C421 C416 1.399 . S
C421 C420 1.394 . S
C421 C422 1.516 . S
C422 C421 1.516 . S
C422 C423 1.502 1_455 S
C422 C424 1.561 . S
C422 C425 1.526 . S
C423 H407 0.959 . S
C423 H408 0.959 . S
C423 H409 0.961 . S
C423 C422 1.502 1_655 S
C424 H410 0.960 . S
C424 H411 0.961 . S
C424 H412 0.959 . S
C424 C422 1.561 . S
C425 C422 1.526 . S
C425 C426 1.396 . S
C425 C430 1.390 . S
C426 C420 1.465 . S
C426 C425 1.396 . S
C426 C427 1.399 . S
C427 H413 0.929 . S
C427 C426 1.399 . S
C427 C428 1.385 . S
C428 H414 0.931 . S
C428 C427 1.385 . S
C428 C429 1.389 . S
C429 C428 1.389 . S
C429 C430 1.387 . S
C430 H415 0.930 1_455 S
C430 C425 1.390 . S
C430 C429 1.387 . S
H431 C443 0.930 . S
H432 C445 0.930 . S
H433 C446 0.930 . S
H434 C450 0.959 . S
H435 C450 0.959 . S
H436 C450 0.961 . S
H437 C451 0.960 . S
H438 C451 0.961 . S
H439 C451 0.959 1_545 S
H440 C454 0.929 . S
H441 C455 0.931 . S
H442 C457 0.930 . S
C443 H431 0.930 . S
C443 C444 1.399 . S
C443 C448 1.399 . S
C444 C443 1.399 . S
C444 C445 1.376 . S
C445 H432 0.930 . S
C445 C444 1.376 . S
C445 C446 1.388 . S
C446 H433 0.930 . S
C446 C445 1.388 . S
C446 C447 1.390 . S
C447 C446 1.390 . S
C447 C448 1.394 . S
C447 C453 1.465 . S
C448 C443 1.399 . S
C448 C447 1.394 . S
C448 C449 1.516 1_545 S
C449 C448 1.516 1_565 S
C449 C450 1.502 . S
C449 C451 1.561 . S
C449 C452 1.526 1_565 S
C450 H434 0.959 . S
C450 H435 0.959 . S
C450 H436 0.961 . S
C450 C449 1.502 . S
C451 H437 0.960 . S
C451 H438 0.961 . S
C451 H439 0.959 1_565 S
C451 C449 1.561 . S
C452 C449 1.526 1_545 S
C452 C453 1.396 . S
C452 C457 1.390 1_545 S
C453 C447 1.465 . S
C453 C452 1.396 . S
C453 C454 1.399 . S
C454 H440 0.929 . S
C454 C453 1.399 . S
C454 C455 1.385 . S
C455 H441 0.931 . S
C455 C454 1.385 . S
C455 C456 1.389 . S
C456 C455 1.389 . S
C456 C457 1.387 1_545 S
C457 H442 0.930 . S
C457 C452 1.390 1_565 S
C457 C456 1.387 1_565 S
H458 C470 0.930 . S
H459 C472 0.930 . S
H460 C473 0.930 . S
H461 C477 0.959 . S
H462 C477 0.959 . S
H463 C477 0.961 . S
H464 C478 0.960 . S
H465 C478 0.961 . S
H466 C478 0.959 . S
H467 C481 0.929 . S
H468 C482 0.931 . S
H469 C484 0.930 . S
C470 H458 0.930 . S
C470 C471 1.399 . S
C470 C475 1.399 . S
C471 C470 1.399 . S
C471 C472 1.376 . S
C472 H459 0.930 . S
C472 C471 1.376 . S
C472 C473 1.388 . S
C473 H460 0.930 . S
C473 C472 1.388 . S
C473 C474 1.390 . S
C474 C473 1.390 . S
C474 C475 1.394 . S
C474 C480 1.465 . S
C475 C470 1.399 . S
C475 C474 1.394 . S
C475 C476 1.516 . S
C476 C475 1.516 . S
C476 C477 1.502 . S
C476 C478 1.561 . S
C476 C479 1.526 . S
C477 H461 0.959 . S
C477 H462 0.959 . S
C477 H463 0.961 . S
C477 C476 1.502 . S
C478 H464 0.960 . S
C478 H465 0.961 . S
C478 H466 0.959 . S
C478 C476 1.561 . S
C479 C476 1.526 . S
C479 C480 1.396 . S
C479 C484 1.390 . S
C480 C474 1.465 . S
C480 C479 1.396 . S
C480 C481 1.399 . S
C481 H467 0.929 . S
C481 C480 1.399 . S
C481 C482 1.385 . S
C482 H468 0.931 . S
C482 C481 1.385 . S
C482 C483 1.389 . S
C483 C482 1.389 . S
C483 C484 1.387 . S
C484 H469 0.930 . S
C484 C479 1.390 . S
C484 C483 1.387 . S
H485 C497 0.930 . S
H486 C499 0.930 . S
H487 C500 0.930 . S
H488 C504 0.959 . S
H489 C504 0.959 . S
H490 C504 0.961 . S
H491 C505 0.960 . S
H492 C505 0.961 . S
H493 C505 0.959 . S
H494 C508 0.929 . S
H495 C509 0.931 . S
H496 C511 0.930 . S
C497 H485 0.930 . S
C497 C498 1.399 . S
C497 C502 1.399 . S
C498 C497 1.399 . S
C498 C499 1.376 . S
C499 H486 0.930 . S
C499 C498 1.376 . S
C499 C500 1.388 . S
C500 H487 0.930 . S
C500 C499 1.388 . S
C500 C501 1.390 . S
C501 C500 1.390 . S
C501 C502 1.394 . S
C501 C507 1.465 . S
C502 C497 1.399 . S
C502 C501 1.394 . S
C502 C503 1.516 . S
C503 C502 1.516 . S
C503 C504 1.502 . S
C503 C505 1.561 . S
C503 C506 1.526 . S
C504 H488 0.959 . S
C504 H489 0.959 . S
C504 H490 0.961 . S
C504 C503 1.502 . S
C505 H491 0.960 . S
C505 H492 0.961 . S
C505 H493 0.959 . S
C505 C503 1.561 . S
C506 C503 1.526 . S
C506 C507 1.396 . S
C506 C511 1.390 . S
C507 C501 1.465 . S
C507 C506 1.396 . S
C507 C508 1.399 . S
C508 H494 0.929 . S
C508 C507 1.399 . S
C508 C509 1.385 . S
C509 H495 0.931 . S
C509 C508 1.385 . S
C509 C510 1.389 . S
C510 C509 1.389 . S
C510 C511 1.387 . S
C511 H496 0.930 . S
C511 C506 1.390 . S
C511 C510 1.387 . S
H512 C524 0.930 . S
H513 C526 0.930 . S
H514 C527 0.930 . S
H515 C531 0.959 . S
H516 C531 0.959 . S
H517 C531 0.961 . S
H518 C532 0.960 . S
H519 C532 0.961 . S
H520 C532 0.959 . S
H521 C535 0.929 . S
H522 C536 0.931 . S
H523 C538 0.930 . S
C524 H512 0.930 . S
C524 C525 1.399 . S
C524 C529 1.399 . S
C525 C524 1.399 . S
C525 C526 1.376 1_554 S
C526 H513 0.930 . S
C526 C525 1.376 1_556 S
C526 C527 1.388 . S
C527 H514 0.930 . S
C527 C526 1.388 . S
C527 C528 1.390 . S
C528 C527 1.390 . S
C528 C529 1.394 1_556 S
C528 C534 1.465 . S
C529 C524 1.399 . S
C529 C528 1.394 1_554 S
C529 C530 1.516 . S
C530 C529 1.516 . S
C530 C531 1.502 . S
C530 C532 1.561 1_655 S
C530 C533 1.526 1_554 S
C531 H515 0.959 . S
C531 H516 0.959 . S
C531 H517 0.961 . S
C531 C530 1.502 . S
C532 H518 0.960 . S
C532 H519 0.961 . S
C532 H520 0.959 . S
C532 C530 1.561 1_455 S
C533 C530 1.526 1_556 S
C533 C534 1.396 . S
C533 C538 1.390 1_655 S
C534 C528 1.465 . S
C534 C533 1.396 . S
C534 C535 1.399 1_655 S
C535 H521 0.929 . S
C535 C534 1.399 1_455 S
C535 C536 1.385 . S
C536 H522 0.931 . S
C536 C535 1.385 . S
C536 C537 1.389 . S
C537 C536 1.389 . S
C537 C538 1.387 . S
C538 H523 0.930 . S
C538 C533 1.390 1_455 S
C538 C537 1.387 . S
H539 C551 0.930 . S
H540 C553 0.930 . S
H541 C554 0.930 . S
H542 C558 0.959 . S
H543 C558 0.959 . S
H544 C558 0.961 . S
H545 C559 0.960 . S
H546 C559 0.961 . S
H547 C559 0.959 . S
H548 C562 0.929 . S
H549 C563 0.931 . S
H550 C565 0.930 . S
C551 H539 0.930 . S
C551 C552 1.399 . S
C551 C556 1.399 1_554 S
C552 C551 1.399 . S
C552 C553 1.376 1_565 S
C553 H540 0.930 . S
C553 C552 1.376 1_545 S
C553 C554 1.388 1_554 S
C554 H541 0.930 . S
C554 C553 1.388 1_556 S
C554 C555 1.378 1_545 S
C555 C554 1.378 1_565 S
C555 C556 1.416 . S
C555 C561 1.459 1_565 S
C556 C551 1.399 1_556 S
C556 C555 1.416 . S
C556 C557 1.516 . S
C557 C556 1.516 . S
C557 C558 1.502 . S
C557 C559 1.561 1_556 S
C557 C560 1.526 . S
C558 H542 0.959 . S
C558 H543 0.959 . S
C558 H544 0.961 . S
C558 C557 1.502 . S
C559 H545 0.960 . S
C559 H546 0.961 . S
C559 H547 0.959 . S
C559 C557 1.561 1_554 S
C560 C557 1.526 . S
C560 C561 1.396 1_565 S
C560 C565 1.390 . S
C561 C555 1.459 1_545 S
C561 C560 1.396 1_545 S
C561 C562 1.399 . S
C562 H548 0.929 . S
C562 C561 1.399 . S
C562 C563 1.385 . S
C563 H549 0.931 . S
C563 C562 1.385 . S
C563 C564 1.389 . S
C564 C563 1.389 . S
C564 C565 1.387 1_545 S
C565 H550 0.930 . S
C565 C560 1.390 . S
C565 C564 1.387 1_565 S
H566 C578 0.930 . S
H567 C580 0.930 . S
H568 C581 0.930 . S
H569 C585 0.959 . S
H570 C585 0.959 . S
H571 C585 0.961 . S
H572 C586 0.960 . S
H573 C586 0.961 . S
H574 C586 0.959 . S
H575 C589 0.929 1_554 S
H576 C590 0.931 . S
H577 C592 0.930 . S
C578 H566 0.930 . S
C578 C579 1.399 1_556 S
C578 C583 1.399 . S
C579 C578 1.399 1_554 S
C579 C580 1.376 . S
C580 H567 0.930 . S
C580 C579 1.376 . S
C580 C581 1.388 . S
C581 H568 0.930 . S
C581 C580 1.388 . S
C581 C582 1.390 1_554 S
C582 C581 1.390 1_556 S
C582 C583 1.394 . S
C582 C588 1.465 . S
C583 C578 1.399 . S
C583 C582 1.394 . S
C583 C584 1.516 . S
C584 C583 1.516 . S
C584 C585 1.502 . S
C584 C586 1.561 . S
C584 C587 1.526 . S
C585 H569 0.959 . S
C585 H570 0.959 . S
C585 H571 0.961 . S
C585 C584 1.502 . S
C586 H572 0.960 . S
C586 H573 0.961 . S
C586 H574 0.959 . S
C586 C584 1.561 . S
C587 C584 1.526 . S
C587 C588 1.396 . S
C587 C592 1.390 . S
C588 C582 1.465 . S
C588 C587 1.396 . S
C588 C589 1.399 . S
C589 H575 0.929 1_556 S
C589 C588 1.399 . S
C589 C590 1.385 . S
C590 H576 0.931 . S
C590 C589 1.385 . S
C590 C591 1.389 . S
C591 C590 1.389 . S
C591 C592 1.387 . S
C592 H577 0.930 . S
C592 C587 1.390 . S
C592 C591 1.387 . S
H593 C605 0.930 . S
H594 C607 0.930 . S
H595 C608 0.930 . S
H596 C612 0.959 . S
H597 C612 0.959 . S
H598 C612 0.961 . S
H599 C613 0.960 . S
H600 C613 0.961 . S
H601 C613 0.959 . S
H602 C616 0.929 1_554 S
H603 C617 0.931 . S
H604 C619 0.930 . S
C605 H593 0.930 . S
C605 C606 1.399 1_556 S
C605 C610 1.399 . S
C606 C605 1.399 1_554 S
C606 C607 1.376 . S
C607 H594 0.930 . S
C607 C606 1.376 . S
C607 C608 1.388 . S
C608 H595 0.930 . S
C608 C607 1.388 . S
C608 C609 1.390 1_554 S
C609 C608 1.390 1_556 S
C609 C610 1.394 . S
C609 C615 1.465 . S
C610 C605 1.399 . S
C610 C609 1.394 . S
C610 C611 1.516 . S
C611 C610 1.516 . S
C611 C612 1.502 . S
C611 C613 1.561 . S
C611 C614 1.526 . S
C612 H596 0.959 . S
C612 H597 0.959 . S
C612 H598 0.961 . S
C612 C611 1.502 . S
C613 H599 0.960 . S
C613 H600 0.961 . S
C613 H601 0.959 . S
C613 C611 1.561 . S
C614 C611 1.526 . S
C614 C615 1.396 . S
C614 C619 1.390 . S
C615 C609 1.465 . S
C615 C614 1.396 . S
C615 C616 1.399 . S
C616 H602 0.929 1_556 S
C616 C615 1.399 . S
C616 C617 1.385 . S
C617 H603 0.931 . S
C617 C616 1.385 . S
C617 C618 1.389 . S
C618 C617 1.389 . S
C618 C619 1.387 . S
C619 H604 0.930 . S
C619 C614 1.390 . S
C619 C618 1.387 . S
H620 C632 0.930 . S
H621 C634 0.930 . S
H622 C635 0.930 1_556 S
H623 C639 0.959 . S
H624 C639 0.959 . S
H625 C639 0.961 . S
H626 C640 0.960 . S
H627 C640 0.961 . S
H628 C640 0.959 . S
H629 C643 0.929 . S
H630 C644 0.931 . S
H631 C646 0.930 1_554 S
C632 H620 0.930 . S
C632 C633 1.399 . S
C632 C637 1.399 . S
C633 C632 1.399 . S
C633 C634 1.376 . S
C634 H621 0.930 . S
C634 C633 1.376 . S
C634 C635 1.388 . S
C635 H622 0.930 1_554 S
C635 C634 1.388 . S
C635 C636 1.390 . S
C636 C635 1.390 . S
C636 C637 1.394 . S
C636 C642 1.465 1_554 S
C637 C632 1.399 . S
C637 C636 1.394 . S
C637 C638 1.516 . S
C638 C637 1.516 . S
C638 C639 1.502 . S
C638 C640 1.561 . S
C638 C641 1.526 . S
C639 H623 0.959 . S
C639 H624 0.959 . S
C639 H625 0.961 . S
C639 C638 1.502 . S
C640 H626 0.960 . S
C640 H627 0.961 . S
C640 H628 0.959 . S
C640 C638 1.561 . S
C641 C638 1.526 . S
C641 C642 1.396 1_554 S
C641 C646 1.390 1_554 S
C642 C636 1.465 1_556 S
C642 C641 1.396 1_556 S
C642 C643 1.399 . S
C643 H629 0.929 . S
C643 C642 1.399 . S
C643 C644 1.385 . S
C644 H630 0.931 . S
C644 C643 1.385 . S
C644 C645 1.389 . S
C645 C644 1.389 . S
C645 C646 1.387 . S
C646 H631 0.930 1_556 S
C646 C641 1.390 1_556 S
C646 C645 1.387 . S
H647 C659 0.930 . S
H648 C661 0.930 . S
H649 C662 0.930 1_556 S
H650 C666 0.959 . S
H651 C666 0.959 . S
H652 C666 0.961 . S
H653 C667 0.960 . S
H654 C667 0.961 . S
H655 C667 0.959 . S
H656 C670 0.929 . S
H657 C671 0.931 . S
H658 C673 0.930 1_554 S
C659 H647 0.930 . S
C659 C660 1.399 . S
C659 C664 1.399 . S
C660 C659 1.399 . S
C660 C661 1.376 . S
C661 H648 0.930 . S
C661 C660 1.376 . S
C661 C662 1.388 . S
C662 H649 0.930 1_554 S
C662 C661 1.388 . S
C662 C663 1.390 . S
C663 C662 1.390 . S
C663 C664 1.394 . S
C663 C669 1.465 1_554 S
C664 C659 1.399 . S
C664 C663 1.394 . S
C664 C665 1.516 . S
C665 C664 1.516 . S
C665 C666 1.502 . S
C665 C667 1.561 1_545 S
C665 C668 1.526 . S
C666 H650 0.959 . S
C666 H651 0.959 . S
C666 H652 0.961 . S
C666 C665 1.502 . S
C667 H653 0.960 . S
C667 H654 0.961 . S
C667 H655 0.959 . S
C667 C665 1.561 1_565 S
C668 C665 1.526 . S
C668 C669 1.396 1_554 S
C668 C673 1.390 1_554 S
C669 C663 1.465 1_556 S
C669 C668 1.396 1_556 S
C669 C670 1.399 . S
C670 H656 0.929 . S
C670 C669 1.399 . S
C670 C671 1.385 . S
C671 H657 0.931 . S
C671 C670 1.385 . S
C671 C672 1.389 . S
C672 C671 1.389 . S
C672 C673 1.387 . S
C673 H658 0.930 1_556 S
C673 C668 1.390 1_556 S
C673 C672 1.387 . S
H674 C686 0.930 . S
H675 C688 0.930 . S
H676 C689 0.930 1_556 S
H677 C693 0.959 . S
H678 C693 0.959 . S
H679 C693 0.961 . S
H680 C694 0.960 . S
H681 C694 0.961 . S
H682 C694 0.959 . S
H683 C697 0.929 . S
H684 C698 0.931 . S
H685 C700 0.930 1_554 S
C686 H674 0.930 . S
C686 C687 1.399 . S
C686 C691 1.399 . S
C687 C686 1.399 . S
C687 C688 1.376 . S
C688 H675 0.930 . S
C688 C687 1.376 . S
C688 C689 1.388 . S
C689 H676 0.930 1_554 S
C689 C688 1.388 . S
C689 C690 1.390 . S
C690 C689 1.390 . S
C690 C691 1.394 . S
C690 C696 1.465 1_554 S
C691 C686 1.399 . S
C691 C690 1.394 . S
C691 C692 1.516 . S
C692 C691 1.516 . S
C692 C693 1.502 . S
C692 C694 1.561 . S
C692 C695 1.526 . S
C693 H677 0.959 . S
C693 H678 0.959 . S
C693 H679 0.961 . S
C693 C692 1.502 . S
C694 H680 0.960 . S
C694 H681 0.961 . S
C694 H682 0.959 . S
C694 C692 1.561 . S
C695 C692 1.526 . S
C695 C696 1.396 1_554 S
C695 C700 1.390 1_554 S
C696 C690 1.465 1_556 S
C696 C695 1.396 1_556 S
C696 C697 1.399 . S
C697 H683 0.929 . S
C697 C696 1.399 . S
C697 C698 1.385 . S
C698 H684 0.931 . S
C698 C697 1.385 . S
C698 C699 1.389 . S
C699 C698 1.389 . S
C699 C700 1.387 . S
C700 H685 0.930 1_556 S
C700 C695 1.390 1_556 S
C700 C699 1.387 . S
H701 C713 0.930 . S
H702 C715 0.930 . S
H703 C716 0.930 . S
H704 C720 0.959 . S
H705 C720 0.959 . S
H706 C720 0.961 . S
H707 C721 0.960 . S
H708 C721 0.961 . S
H709 C721 0.959 . S
H710 C724 0.929 . S
H711 C725 0.931 . S
H712 C727 0.930 . S
C713 H701 0.930 . S
C713 C714 1.399 . S
C713 C718 1.399 . S
C714 C713 1.399 . S
C714 C715 1.376 . S
C715 H702 0.930 . S
C715 C714 1.376 . S
C715 C716 1.388 . S
C716 H703 0.930 . S
C716 C715 1.388 . S
C716 C717 1.390 . S
C717 C716 1.390 . S
C717 C718 1.394 . S
C717 C723 1.465 . S
C718 C713 1.399 . S
C718 C717 1.394 . S
C718 C719 1.516 . S
C719 C718 1.516 . S
C719 C720 1.502 1_554 S
C719 C721 1.561 . S
C719 C722 1.526 1_554 S
C720 H704 0.959 . S
C720 H705 0.959 . S
C720 H706 0.961 . S
C720 C719 1.502 1_556 S
C721 H707 0.960 . S
C721 H708 0.961 . S
C721 H709 0.959 . S
C721 C719 1.561 . S
C722 C719 1.526 1_556 S
C722 C723 1.396 1_556 S
C722 C727 1.390 . S
C723 C717 1.465 . S
C723 C722 1.396 1_554 S
C723 C724 1.399 . S
C724 H710 0.929 . S
C724 C723 1.399 . S
C724 C725 1.385 1_554 S
C725 H711 0.931 . S
C725 C724 1.385 1_556 S
C725 C726 1.389 . S
C726 C725 1.389 . S
C726 C727 1.387 . S
C727 H712 0.930 . S
C727 C722 1.390 . S
C727 C726 1.387 . S
H728 C740 0.930 . S
H729 C742 0.949 . S
H730 C743 0.930 . S
H731 C747 0.959 . S
H732 C747 0.959 . S
H733 C747 0.961 . S
H734 C748 0.960 . S
H735 C748 0.961 . S
H736 C748 0.959 . S
H737 C751 0.929 . S
H738 C752 0.931 . S
H739 C754 0.930 . S
C740 H728 0.930 . S
C740 C741 1.399 . S
C740 C745 1.399 . S
C741 C740 1.399 . S
C741 C742 1.350 1_655 S
C742 H729 0.949 . S
C742 C741 1.350 1_455 S
C742 C743 1.397 . S
C743 H730 0.930 . S
C743 C742 1.397 . S
C743 C744 1.390 1_455 S
C744 C743 1.390 1_655 S
C744 C745 1.394 . S
C744 C750 1.465 . S
C745 C740 1.399 . S
C745 C744 1.394 . S
C745 C746 1.516 . S
C746 C745 1.516 . S
C746 C747 1.502 . S
C746 C748 1.561 . S
C746 C749 1.526 . S
C747 H731 0.959 . S
C747 H732 0.959 . S
C747 H733 0.961 . S
C747 C746 1.502 . S
C748 H734 0.960 . S
C748 H735 0.961 . S
C748 H736 0.959 . S
C748 C746 1.561 . S
C749 C746 1.526 . S
C749 C750 1.396 . S
C749 C754 1.390 . S
C750 C744 1.465 . S
C750 C749 1.396 . S
C750 C751 1.399 1_655 S
C751 H737 0.929 . S
C751 C750 1.399 1_455 S
C751 C752 1.385 . S
C752 H738 0.931 . S
C752 C751 1.385 . S
C752 C753 1.389 1_455 S
C753 C752 1.389 1_655 S
C753 C754 1.387 . S
C754 H739 0.930 . S
C754 C749 1.390 . S
C754 C753 1.387 . S
H755 C767 0.930 . S
H756 C769 0.930 . S
H757 C770 0.930 . S
H758 C774 0.959 . S
H759 C774 0.959 . S
H760 C774 0.961 . S
H761 C775 0.960 . S
H762 C775 0.961 . S
H763 C775 0.959 . S
H764 C778 0.929 . S
H765 C779 0.931 . S
H766 C781 0.930 . S
C767 H755 0.930 . S
C767 C768 1.399 . S
C767 C772 1.399 . S
C768 C767 1.399 . S
C768 C769 1.376 1_565 S
C769 H756 0.930 . S
C769 C768 1.376 1_545 S
C769 C770 1.388 . S
C770 H757 0.930 . S
C770 C769 1.388 . S
C770 C771 1.390 1_545 S
C771 C770 1.390 1_565 S
C771 C772 1.394 . S
C771 C777 1.465 . S
C772 C767 1.399 . S
C772 C771 1.394 . S
C772 C773 1.516 . S
C773 C772 1.516 . S
C773 C774 1.502 . S
C773 C775 1.561 . S
C773 C776 1.526 . S
C774 H758 0.959 . S
C774 H759 0.959 . S
C774 H760 0.961 . S
C774 C773 1.502 . S
C775 H761 0.960 . S
C775 H762 0.961 . S
C775 H763 0.959 . S
C775 C773 1.561 . S
C776 C773 1.526 . S
C776 C777 1.396 . S
C776 C781 1.390 . S
C777 C771 1.465 . S
C777 C776 1.396 . S
C777 C778 1.399 1_565 S
C778 H764 0.929 . S
C778 C777 1.399 1_545 S
C778 C779 1.385 . S
C779 H765 0.931 . S
C779 C778 1.385 . S
C779 C780 1.389 1_545 S
C780 C779 1.389 1_565 S
C780 C781 1.387 . S
C781 H766 0.930 . S
C781 C776 1.390 . S
C781 C780 1.387 . S
H782 C794 0.930 . S
H783 C796 0.930 . S
H784 C797 0.930 . S
H785 C801 0.959 . S
H786 C801 0.959 . S
H787 C801 0.961 . S
H788 C802 0.960 . S
H789 C802 0.961 . S
H790 C802 0.959 . S
H791 C805 0.929 . S
H792 C806 0.931 . S
H793 C808 0.930 . S
C794 H782 0.930 . S
C794 C795 1.399 . S
C794 C799 1.399 . S
C795 C794 1.399 . S
C795 C796 1.376 . S
C796 H783 0.930 . S
C796 C795 1.376 . S
C796 C797 1.388 . S
C797 H784 0.930 . S
C797 C796 1.388 . S
C797 C798 1.390 . S
C798 C797 1.390 . S
C798 C799 1.394 . S
C798 C804 1.465 . S
C799 C794 1.399 . S
C799 C798 1.394 . S
C799 C800 1.516 . S
C800 C799 1.516 . S
C800 C801 1.502 . S
C800 C802 1.561 . S
C800 C803 1.526 . S
C801 H785 0.959 . S
C801 H786 0.959 . S
C801 H787 0.961 . S
C801 C800 1.502 . S
C802 H788 0.960 . S
C802 H789 0.961 . S
C802 H790 0.959 . S
C802 C800 1.561 . S
C803 C800 1.526 . S
C803 C804 1.396 . S
C803 C808 1.390 . S
C804 C798 1.465 . S
C804 C803 1.396 . S
C804 C805 1.399 . S
C805 H791 0.929 . S
C805 C804 1.399 . S
C805 C806 1.385 . S
C806 H792 0.931 . S
C806 C805 1.385 . S
C806 C807 1.389 . S
C807 C806 1.389 . S
C807 C808 1.387 . S
C808 H793 0.930 . S
C808 C803 1.390 . S
C808 C807 1.387 . S
H809 C821 0.930 . S
H810 C823 0.930 . S
H811 C824 0.930 . S
H812 C828 0.959 . S
H813 C828 0.959 . S
H814 C828 0.961 . S
H815 C829 0.960 . S
H816 C829 0.961 . S
H817 C829 0.959 . S
H818 C832 0.929 . S
H819 C833 0.931 . S
H820 C835 0.930 . S
C821 H809 0.930 . S
C821 C822 1.399 . S
C821 C826 1.399 . S
C822 C821 1.399 . S
C822 C823 1.376 . S
C823 H810 0.930 . S
C823 C822 1.376 . S
C823 C824 1.388 . S
C824 H811 0.930 . S
C824 C823 1.388 . S
C824 C825 1.390 . S
C825 C824 1.390 . S
C825 C826 1.394 . S
C825 C831 1.465 . S
C826 C821 1.399 . S
C826 C825 1.394 . S
C826 C827 1.516 . S
C827 C826 1.516 . S
C827 C828 1.502 . S
C827 C829 1.561 . S
C827 C830 1.526 . S
C828 H812 0.959 . S
C828 H813 0.959 . S
C828 H814 0.961 . S
C828 C827 1.502 . S
C829 H815 0.960 . S
C829 H816 0.961 . S
C829 H817 0.959 . S
C829 C827 1.561 . S
C830 C827 1.526 . S
C830 C831 1.396 . S
C830 C835 1.390 . S
C831 C825 1.465 . S
C831 C830 1.396 . S
C831 C832 1.399 . S
C832 H818 0.929 . S
C832 C831 1.399 . S
C832 C833 1.385 . S
C833 H819 0.931 . S
C833 C832 1.385 . S
C833 C834 1.389 . S
C834 C833 1.389 . S
C834 C835 1.387 . S
C835 H820 0.930 . S
C835 C830 1.390 . S
C835 C834 1.387 . S
C201 N80 1.586 . S
C213 C120 1.353 1_545 S
C240 C138 1.476 . S
C228 N93 1.611 . S
C267 C159 1.445 . S
C255 N54 1.571 . S
C294 C183 1.421 1_455 S
C282 N67 1.622 . S
C321 C117 1.280 . S
C309 N28 1.503 . S
C336 N41 1.524 . S
C348 C141 1.309 . S
C363 N2 1.504 . S
C375 C162 1.276 . S
C390 N15 1.509 . S
C402 C180 1.395 1_655 S
C429 C122 0.572 1_455 S
C417 N70 0.681 . S
C456 C140 0.650 1_545 S
C444 N83 0.688 . S
C483 C161 0.589 . S
C471 N96 0.684 . S
C498 N57 0.596 . S
C510 C185 0.721 . S
C525 N18 0.707 . S
C537 C121 0.671 . S
C564 C139 0.708 . S
C552 N31 0.692 . S
C591 C160 0.783 . S
C579 N44 0.747 . S
C606 N5 0.747 . S
C618 C184 0.784 . S
C633 N66 1.615 . S
C645 C118 1.497 . S
C660 N79 1.632 . S
C672 C142 1.536 . S
C699 C163 1.498 . S
C687 N92 1.616 . S
C726 C181 1.503 . S
C714 N53 1.597 . S
C741 N14 1.498 . S
C753 C119 1.377 . S
C780 C143 1.357 . S
C768 N27 1.509 . S
C807 C164 1.393 . S
C795 N40 1.491 . S
C822 N1 1.488 . S
C834 C182 1.456 . S
