# Generated by pormake.
# Topology zzz, (3,6)-cn, num edge types: 1
# Building blocks:
#     Node 0, Type 0, BuildingBlock: KAKCAD_clean_linker_0, # of connection points: 3
#     Node 1, Type 0, BuildingBlock: KAKCAD_clean_linker_0, # of connection points: 3
#     Node 2, Type 0, BuildingBlock: KAKCAD_clean_linker_0, # of connection points: 3
#     Node 3, Type 0, BuildingBlock: KAKCAD_clean_linker_0, # of connection points: 3
#     Node 4, Type 0, BuildingBlock: KAKCAD_clean_linker_0, # of connection points: 3
#     Node 5, Type 0, BuildingBlock: KAKCAD_clean_linker_0, # of connection points: 3
#     Node 6, Type 0, BuildingBlock: KAKCAD_clean_linker_0, # of connection points: 3
#     Node 7, Type 0, BuildingBlock: KAKCAD_clean_linker_0, # of connection points: 3
#     Node 8, Type 1, BuildingBlock: BETGAK_clean_sbu_0, # of connection points: 6
#     Node 9, Type 1, BuildingBlock: BETGAK_clean_sbu_0, # of connection points: 6
#     Node 10, Type 1, BuildingBlock: BETGAK_clean_sbu_0, # of connection points: 6
#     Node 11, Type 1, BuildingBlock: BETGAK_clean_sbu_0, # of connection points: 6
#     Edge 12, Type (0, 1), BuildingBlock: XUDNAN_clean_linker_2, # of connection points: 2
#     Edge 13, Type (0, 1), BuildingBlock: XUDNAN_clean_linker_2, # of connection points: 2
#     Edge 14, Type (0, 1), BuildingBlock: XUDNAN_clean_linker_2, # of connection points: 2
#     Edge 15, Type (0, 1), BuildingBlock: XUDNAN_clean_linker_2, # of connection points: 2
#     Edge 16, Type (0, 1), BuildingBlock: XUDNAN_clean_linker_2, # of connection points: 2
#     Edge 17, Type (0, 1), BuildingBlock: XUDNAN_clean_linker_2, # of connection points: 2
#     Edge 18, Type (0, 1), BuildingBlock: XUDNAN_clean_linker_2, # of connection points: 2
#     Edge 19, Type (0, 1), BuildingBlock: XUDNAN_clean_linker_2, # of connection points: 2
#     Edge 20, Type (0, 1), BuildingBlock: XUDNAN_clean_linker_2, # of connection points: 2
#     Edge 21, Type (0, 1), BuildingBlock: XUDNAN_clean_linker_2, # of connection points: 2
#     Edge 22, Type (0, 1), BuildingBlock: XUDNAN_clean_linker_2, # of connection points: 2
#     Edge 23, Type (0, 1), BuildingBlock: XUDNAN_clean_linker_2, # of connection points: 2
#     Edge 24, Type (0, 1), BuildingBlock: XUDNAN_clean_linker_2, # of connection points: 2
#     Edge 25, Type (0, 1), BuildingBlock: XUDNAN_clean_linker_2, # of connection points: 2
#     Edge 26, Type (0, 1), BuildingBlock: XUDNAN_clean_linker_2, # of connection points: 2
#     Edge 27, Type (0, 1), BuildingBlock: XUDNAN_clean_linker_2, # of connection points: 2
#     Edge 28, Type (0, 1), BuildingBlock: XUDNAN_clean_linker_2, # of connection points: 2
#     Edge 29, Type (0, 1), BuildingBlock: XUDNAN_clean_linker_2, # of connection points: 2
#     Edge 30, Type (0, 1), BuildingBlock: XUDNAN_clean_linker_2, # of connection points: 2
#     Edge 31, Type (0, 1), BuildingBlock: XUDNAN_clean_linker_2, # of connection points: 2
#     Edge 32, Type (0, 1), BuildingBlock: XUDNAN_clean_linker_2, # of connection points: 2
#     Edge 33, Type (0, 1), BuildingBlock: XUDNAN_clean_linker_2, # of connection points: 2
#     Edge 34, Type (0, 1), BuildingBlock: XUDNAN_clean_linker_2, # of connection points: 2
#     Edge 35, Type (0, 1), BuildingBlock: XUDNAN_clean_linker_2, # of connection points: 2
# Relax obj value: 0.449
# Max RMSD: 0.269
# Mean RMSD: 0.253
data_MOF--net-zzz--node1-BETGAK_clean_sbu_0--node2-KAKCAD_clean_linker_0--edge1-XUDNAN_clean_linker_2
_symmetry_space_group_name_H-M    P1
_symmetry_Int_Tables_number       1
_symmetry_cell_setting            triclinic
loop_
_symmetry_equiv_pos_as_xyz
'x, y, z'
_cell_length_a     60.155227
_cell_length_b     60.356483
_cell_length_c     18.513287
_cell_angle_alpha  89.826009
_cell_angle_beta   89.928135
_cell_angle_gamma 90.045378
loop_
_atom_site_label
_atom_site_type_symbol
_atom_site_fract_x
_atom_site_fract_y
_atom_site_fract_z
_atom_type_partial_charge
C0 C 0.7815 0.4254 0.00778 0.0
C1 C 0.7928 0.40762 0.04059 0.0
C2 C 0.76958 0.44048 0.04957 0.0
C3 C 0.76878 0.43814 0.12499 0.0
C4 C 0.778 0.41913 0.15697 0.0
C5 C 0.78977 0.4039 0.11503 0.0
C6 C 0.76132 0.45698 0.16998 0.0
C7 C 0.7422 0.46885 0.15177 0.0
C8 C 0.73675 0.48857 0.18727 0.0
C9 C 0.75078 0.49651 0.24304 0.0
C10 C 0.77011 0.48442 0.26316 0.0
C11 C 0.77497 0.46473 0.22573 0.0
C12 C 0.78669 0.49242 0.31814 0.0
C13 C 0.79359 0.51466 0.32027 0.0
C14 C 0.79814 0.47705 0.36211 0.0
C15 C 0.8171 0.48322 0.40126 0.0
C16 C 0.82512 0.50513 0.39911 0.0
C17 C 0.7165 0.50031 0.16161 0.0
C18 C 0.71734 0.51254 0.09691 0.0
C19 C 0.69563 0.49431 0.18941 0.0
C20 C 0.67606 0.49961 0.15188 0.0
C21 C 0.67684 0.51094 0.08509 0.0
C22 C 0.69778 0.51789 0.05931 0.0
C23 C 0.81241 0.52094 0.36048 0.0
H24 H 0.78358 0.42899 0.95083 0.0
H25 H 0.7627 0.455 0.0234 0.0
H26 H 0.77724 0.41674 0.21494 0.0
H27 H 0.7979 0.39012 0.14172 0.0
H28 H 0.73166 0.46293 0.10836 0.0
H29 H 0.79035 0.45602 0.23677 0.0
H30 H 0.74675 0.51189 0.27001 0.0
H31 H 0.78526 0.52703 0.28765 0.0
H32 H 0.79307 0.45983 0.36351 0.0
H33 H 0.82609 0.47041 0.42992 0.0
H34 H 0.73325 0.51682 0.07318 0.0
H35 H 0.69453 0.4842 0.23776 0.0
H36 H 0.81738 0.53817 0.35914 0.0
H37 H 0.69916 0.5269 0.00885 0.0
H38 H 0.66041 0.49362 0.17334 0.0
C39 C 0.90936 0.79277 0.1636 0.0
C40 C 0.9146 0.7948 0.08986 0.0
C41 C 0.91948 0.77635 0.20551 0.0
C42 C 0.93496 0.76181 0.17411 0.0
C43 C 0.93717 0.76159 0.09852 0.0
C44 C 0.92699 0.77792 0.05667 0.0
C45 C 0.95233 0.75105 0.2191 0.0
C46 C 0.96104 0.73038 0.20027 0.0
C47 C 0.98091 0.72236 0.231 0.0
C48 C 0.99229 0.73595 0.28176 0.0
C49 C 0.98304 0.75653 0.3035 0.0
C50 C 0.96304 0.76355 0.27227 0.0
C51 C 0.99442 0.77286 0.35163 0.0
C52 C 0.98292 0.78142 0.41182 0.0
C53 C 0.01314 0.78446 0.32645 0.0
C54 C 0.01899 0.80505 0.35645 0.0
C55 C 1.00627 0.81459 0.4125 0.0
C56 C 0.98979 0.70066 0.2034 0.0
C57 C 0.97494 0.68337 0.1862 0.0
C58 C 0.01224 0.69799 0.18417 0.0
C59 C 0.01921 0.67941 0.14421 0.0
C60 C 1.00387 0.66306 0.1212 0.0
C61 C 0.98174 0.66512 0.14516 0.0
C62 C 0.98883 0.80193 0.4421 0.0
H63 H 0.8995 0.80534 0.19029 0.0
H64 H 0.91699 0.7765 0.26347 0.0
H65 H 0.94887 0.7506 0.07233 0.0
H66 H 0.93133 0.77895 0.99996 0.0
H67 H 0.95284 0.72104 0.15808 0.0
H68 H 0.95683 0.77995 0.28512 0.0
H69 H 1.00802 0.73061 0.30418 0.0
H70 H 0.96815 0.7731 0.43164 0.0
H71 H 0.02209 0.77859 0.27942 0.0
H72 H 0.03277 0.8141 0.3329 0.0
H73 H 0.95758 0.68446 0.20143 0.0
H74 H 0.02423 0.71081 0.19655 0.0
H75 H 0.97856 0.80865 0.48485 0.0
H76 H 0.96917 0.65328 0.12933 0.0
H77 H 0.03659 0.67828 0.12971 0.0
C78 C 0.76514 0.07725 0.99895 0.0
C79 C 0.74587 0.08953 0.01497 0.0
C80 C 0.7748 0.06349 0.05094 0.0
C81 C 0.76621 0.06251 0.12174 0.0
C82 C 0.74922 0.07742 0.1404 0.0
C83 C 0.73886 0.09032 0.08767 0.0
C84 C 0.77301 0.04443 0.17266 0.0
C85 C 0.79396 0.03444 0.16719 0.0
C86 C 0.79912 0.01513 0.20591 0.0
C87 C 0.78351 1.00639 0.25578 0.0
C88 C 0.76256 0.01678 0.26448 0.0
C89 C 0.75759 0.03546 0.22192 0.0
C90 C 0.7451 0.00876 0.31619 0.0
C91 C 0.72287 1.00693 0.293 0.0
C92 C 0.7495 1.00667 0.3904 0.0
C93 C 0.73197 1.00442 0.44042 0.0
C94 C 0.70954 1.00424 0.41752 0.0
C95 C 0.82002 1.00367 0.18516 0.0
C96 C 0.81989 0.99008 0.12367 0.0
C97 C 0.84054 0.01133 0.21137 0.0
C98 C 0.8604 1.00638 0.17476 0.0
C99 C 0.86009 0.99409 0.11017 0.0
C100 C 0.83966 0.98539 0.0865 0.0
C101 C 0.70541 1.0048 0.3427 0.0
H102 H 0.77203 0.077 0.94496 0.0
H103 H 0.78802 0.05262 0.03347 0.0
H104 H 0.74287 0.07824 0.19504 0.0
H105 H 0.72433 0.09954 0.1041 0.0
H106 H 0.80628 0.04112 0.13035 0.0
H107 H 0.7412 0.0427 0.22643 0.0
H108 H 0.78736 0.99145 0.28576 0.0
H109 H 0.71886 0.00835 0.23614 0.0
H110 H 0.76638 0.00809 0.41017 0.0
H111 H 0.736 1.00349 0.49731 0.0
H112 H 0.80426 0.9845 0.10109 0.0
H113 H 0.84104 0.02245 0.25718 0.0
H114 H 0.68857 1.00487 0.32217 0.0
H115 H 0.83883 0.97573 0.03737 0.0
H116 H 0.8758 0.01349 0.19422 0.0
C117 C 0.5191 0.70671 0.36865 0.0
C118 C 0.53493 0.69422 0.40771 0.0
C119 C 0.52475 0.7272 0.33689 0.0
C120 C 0.54639 0.73572 0.34316 0.0
C121 C 0.56173 0.72401 0.38625 0.0
C122 C 0.55606 0.70366 0.41849 0.0
C123 C 0.55466 0.75304 0.2916 0.0
C124 C 0.54684 0.77525 0.28965 0.0
C125 C 0.55578 0.79047 0.23859 0.0
C126 C 0.57171 0.78297 0.18887 0.0
C127 C 0.57818 0.76074 0.18631 0.0
C128 C 0.57004 0.74613 0.23922 0.0
C129 C 0.59043 0.75204 0.12234 0.0
C130 C 0.58558 0.76027 0.05282 0.0
C131 C 0.60412 0.73325 0.12834 0.0
C132 C 0.60978 0.72108 0.06698 0.0
C133 C 0.60215 0.72771 0.99845 0.0
C134 C 0.54815 0.81392 0.22969 0.0
C135 C 0.52609 0.81874 0.20998 0.0
C136 C 0.56419 0.83083 0.22272 0.0
C137 C 0.55885 0.85121 0.19087 0.0
C138 C 0.53721 0.8555 0.16611 0.0
C139 C 0.52065 0.83939 0.17889 0.0
C140 C 0.5917 0.74839 0.99152 0.0
H141 H 0.50255 0.70019 0.35991 0.0
H142 H 0.51267 0.73555 0.30308 0.0
H143 H 0.57867 0.72994 0.39109 0.0
H144 H 0.56876 0.69461 0.4476 0.0
H145 H 0.53428 0.78064 0.32768 0.0
H146 H 0.57453 0.72875 0.23728 0.0
H147 H 0.57826 0.79442 0.14893 0.0
H148 H 0.57519 0.77471 0.04522 0.0
H149 H 0.60893 0.7269 0.1808 0.0
H150 H 0.61806 0.70531 0.07447 0.0
H151 H 0.51344 0.806 0.2134 0.0
H152 H 0.58135 0.82765 0.23715 0.0
H153 H 0.58609 0.7542 0.93921 0.0
H154 H 0.50379 0.84218 0.16056 0.0
H155 H 0.57191 0.86336 0.18311 0.0
C156 C 0.26235 0.55534 0.44685 0.0
C157 C 0.24646 0.54392 0.48811 0.0
C158 C 0.2692 0.54691 0.38023 0.0
C159 C 0.25977 0.52729 0.35333 0.0
C160 C 0.24409 0.51576 0.39489 0.0
C161 C 0.23761 0.52392 0.46205 0.0
C162 C 0.26679 0.51852 0.28278 0.0
C163 C 0.289 0.51322 0.27201 0.0
C164 C 0.2964 0.50433 0.20655 0.0
C165 C 0.28092 0.50118 0.14949 0.0
C166 C 0.2582 0.50733 0.1589 0.0
C167 C 0.25147 0.51529 0.22712 0.0
C168 C 0.241 0.5061 0.09977 0.0
C169 C 0.22427 0.52247 0.09532 0.0
C170 C 0.23984 0.48822 0.05119 0.0
C171 C 0.22199 0.48636 1.0021 0.0
C172 C 0.20473 0.50221 1.00086 0.0
C173 C 0.32041 0.49825 0.20399 0.0
C174 C 0.33618 0.51467 0.22082 0.0
C175 C 0.32674 0.47596 0.21073 0.0
C176 C 0.34742 0.47031 0.2411 0.0
C177 C 0.36208 0.48683 0.26704 0.0
C178 C 0.35658 0.5091 0.25248 0.0
C179 C 0.20637 0.52042 0.0475 0.0
H180 H 0.26908 0.57097 0.46549 0.0
H181 H 0.28142 0.55596 0.3488 0.0
H182 H 0.23682 0.5005 0.37524 0.0
H183 H 0.22492 0.5151 0.49223 0.0
H184 H 0.3006 0.51545 0.3163 0.0
H185 H 0.23417 0.51922 0.2373 0.0
H186 H 0.2866 0.49463 0.09831 0.0
H187 H 0.22479 0.53693 0.12977 0.0
H188 H 0.25228 0.47526 0.05276 0.0
H189 H 0.22132 0.47215 0.96662 0.0
H190 H 0.33167 0.53202 0.2172 0.0
H191 H 0.31491 0.46292 0.19905 0.0
H192 H 0.19377 0.53324 0.04685 0.0
H193 H 0.367 0.52251 0.27114 0.0
H194 H 0.35122 0.45293 0.24826 0.0
C195 C 0.91244 0.23529 0.24062 0.0
C196 C 0.91596 0.23225 0.31517 0.0
C197 C 0.92759 0.24749 0.19926 0.0
C198 C 0.94616 0.25731 0.23206 0.0
C199 C 0.94799 0.25681 0.30757 0.0
C200 C 0.93309 0.24433 0.34875 0.0
C201 C 0.96547 0.26447 0.18824 0.0
C202 C 0.97657 0.28423 0.20364 0.0
C203 C 0.99693 0.28936 0.1706 0.0
C204 C 1.0065 0.27406 0.12143 0.0
C205 C 0.99502 0.2542 0.10376 0.0
C206 C 0.97454 0.24986 0.13756 0.0
C207 C 1.0041 0.23662 0.05472 0.0
C208 C 0.98999 0.22644 1.00389 0.0
C209 C 0.02501 0.22701 0.06729 0.0
C210 C 0.03087 0.20685 0.03419 0.0
C211 C 0.01596 0.19572 0.98768 0.0
C212 C 1.0073 0.31091 0.19069 0.0
C213 C 0.99673 0.33067 0.16994 0.0
C214 C 0.02373 0.31188 0.24451 0.0
C215 C 0.02877 0.33205 0.2789 0.0
C216 C 0.01741 0.35174 0.26052 0.0
C217 C 1.00173 0.35076 0.20406 0.0
C218 C 0.99578 0.20634 0.97101 0.0
H219 H 0.89907 0.22671 0.21328 0.0
H220 H 0.92564 0.248 0.14111 0.0
H221 H 0.96218 0.26421 0.33423 0.0
H222 H 0.93654 0.24241 0.4058 0.0
H223 H 0.96952 0.29551 0.24303 0.0
H224 H 0.96622 0.23421 0.1278 0.0
H225 H 0.02243 0.27767 0.09668 0.0
H226 H 0.97375 0.23341 0.99275 0.0
H227 H 0.03624 0.23428 0.10631 0.0
H228 H 0.04682 0.19958 0.04725 0.0
H229 H 0.98353 0.33031 0.13019 0.0
H230 H 0.03171 0.29682 0.26299 0.0
H231 H 0.98374 0.19849 0.936 0.0
H232 H 0.99228 0.36528 0.18875 0.0
H233 H 0.04114 0.33207 0.32134 0.0
C234 C 0.27867 0.97459 0.47234 0.0
C235 C 0.29664 0.98606 0.50273 0.0
C236 C 0.26941 0.98177 0.40728 0.0
C237 C 0.27832 1.00024 0.37102 0.0
C238 C 0.29579 0.01215 0.40261 0.0
C239 C 0.30476 1.00521 0.46836 0.0
C240 C 0.26985 1.00648 0.29906 0.0
C241 C 0.24718 0.00986 0.28922 0.0
C242 C 0.2385 0.01506 0.22114 0.0
C243 C 0.25305 0.01662 0.16089 0.0
C244 C 0.27618 0.0125 0.16988 0.0
C245 C 0.28424 0.00808 0.23992 0.0
C246 C 0.29255 0.01193 0.10848 0.0
C247 C 0.30903 0.99532 0.1073 0.0
C248 C 0.29361 0.02875 0.05576 0.0
C249 C 0.3114 0.02953 0.00596 0.0
C250 C 0.32856 0.0136 0.0082 0.0
C251 C 0.21408 0.01883 0.21859 0.0
C252 C 0.19989 1.00125 0.23821 0.0
C253 C 0.20591 0.04055 0.22343 0.0
C254 C 0.18502 0.04468 0.25462 0.0
C255 C 0.17193 0.02719 0.28253 0.0
C256 C 0.17911 1.00535 0.26986 0.0
C257 C 0.32679 0.99624 0.05853 0.0
H258 H 0.27238 0.95963 0.4976 0.0
H259 H 0.25595 0.97234 0.38364 0.0
H260 H 0.30277 0.02652 0.37566 0.0
H261 H 0.3189 0.01407 0.49022 0.0
H262 H 0.23616 0.00871 0.33557 0.0
H263 H 0.30185 1.00536 0.24852 0.0
H264 H 0.24641 0.0203 0.10785 0.0
H265 H 0.30854 0.98177 0.14579 0.0
H266 H 0.28131 0.04184 0.05507 0.0
H267 H 0.31219 0.0431 0.96764 0.0
H268 H 0.20594 0.98435 0.23652 0.0
H269 H 0.21657 0.05445 0.21001 0.0
H270 H 0.33932 0.98338 0.06072 0.0
H271 H 0.16972 0.99139 0.29047 0.0
H272 H 0.17985 0.06173 0.26148 0.0
C273 C 0.48761 0.29905 0.94891 0.0
C274 C 0.50552 0.31184 0.97413 0.0
C275 C 0.48197 0.27897 0.98295 0.0
C276 C 0.4942 0.27104 0.0426 0.0
C277 C 0.51346 0.28263 0.0628 0.0
C278 C 0.51902 0.3028 0.02912 0.0
C279 C 0.48344 0.25554 0.09528 0.0
C280 C 0.49384 0.23629 0.12366 0.0
C281 C 0.48404 0.22469 0.18255 0.0
C282 C 0.46433 0.23293 0.21331 0.0
C283 C 0.45415 0.25202 0.18608 0.0
C284 C 0.46336 0.26268 0.12594 0.0
C285 C 0.43725 0.26401 0.22884 0.0
C286 C 0.41857 0.27336 0.19515 0.0
C287 C 0.44275 0.27067 0.29898 0.0
C288 C 0.43195 0.28863 0.33048 0.0
C289 C 0.41511 0.30012 0.29285 0.0
C290 C 0.49438 0.20482 0.21719 0.0
C291 C 0.49668 0.18475 0.17963 0.0
C292 C 0.4985 0.2049 0.29198 0.0
C293 C 0.50367 0.18531 0.32901 0.0
C294 C 0.50474 0.16489 0.29259 0.0
C295 C 0.50179 0.165 0.21688 0.0
C296 C 0.40733 0.29103 0.22754 0.0
H297 H 0.4768 0.30543 0.907 0.0
H298 H 0.46686 0.27058 0.96669 0.0
H299 H 0.52304 0.27723 0.10912 0.0
H300 H 0.53315 0.31202 0.04929 0.0
H301 H 0.50962 0.23084 0.10186 0.0
H302 H 0.45605 0.27813 0.10749 0.0
H303 H 0.45724 0.22488 0.2605 0.0
H304 H 0.41386 0.26826 0.14124 0.0
H305 H 0.45714 0.26377 0.32608 0.0
H306 H 0.43872 0.2948 0.38063 0.0
H307 H 0.49329 0.1841 0.12223 0.0
H308 H 0.49687 0.22012 0.32246 0.0
H309 H 0.39384 0.29876 0.19816 0.0
H310 H 0.50237 0.14968 0.18673 0.0
H311 H 0.50641 0.18615 0.38673 0.0
La312 La 0.03051 0.99463 0.74985 0.0
La313 La 1.00391 0.01827 0.62904 0.0
C314 C 0.04024 0.96825 0.84917 0.0
C315 C 0.02662 0.94941 0.87509 0.0
C316 C 0.02372 0.93044 0.83217 0.0
C317 C 1.00699 0.91516 0.84832 0.0
C318 C 0.99271 0.91856 0.9075 0.0
C319 C 0.99646 0.93688 0.95264 0.0
C320 C 0.01337 0.95198 0.93704 0.0
C321 C 0.05475 0.01535 0.65116 0.0
C322 C 0.01197 0.9669 0.61688 0.0
C323 C 0.99243 0.04036 0.5206 0.0
C324 C 0.97602 0.058 0.50994 0.0
C325 C 0.95975 0.06219 0.56258 0.0
C326 C 0.9444 0.07929 0.55278 0.0
C327 C 0.9452 0.0926 0.4904 0.0
C328 C 0.96162 0.08826 0.43788 0.0
C329 C 0.97683 0.07105 0.44753 0.0
C330 C 0.97701 1.00538 0.73753 0.0
C331 C 0.01997 0.04554 0.76736 0.0
O332 O 0.04857 0.96667 0.78382 0.0
O333 O 0.03148 0.98779 0.86073 0.0
O334 O 0.06057 0.01262 0.71803 0.0
O335 O 0.0369 1.00492 0.64032 0.0
O336 O 0.01663 0.96682 0.68689 0.0
O337 O 0.00933 0.98573 0.58092 0.0
O338 O 0.98416 0.02081 0.53653 0.0
O339 O 0.00954 0.04559 0.5612 0.0
O340 O 0.97035 0.01558 0.67999 0.0
O341 O 0.99751 1.00302 0.72929 0.0
O342 O 0.01395 0.0462 0.69833 0.0
O343 O 0.02462 0.02663 0.8008 0.0
H344 H 0.03372 0.92783 0.78424 0.0
H345 H 1.00502 0.90089 0.81361 0.0
H346 H 0.98576 0.94012 0.99846 0.0
H347 H 0.01517 0.96645 0.97108 0.0
H348 H 0.95899 0.05235 0.61147 0.0
H349 H 0.93197 0.08211 0.59409 0.0
H350 H 0.96313 0.09852 0.39004 0.0
H351 H 0.98941 0.06814 0.40673 0.0
La352 La 0.52569 0.02686 0.77832 0.0
La353 La 0.51672 0.99304 0.68011 0.0
C354 C 0.54329 0.05208 0.86987 0.0
C355 C 0.56279 0.06646 0.8617 0.0
C356 C 0.57025 0.07232 0.79231 0.0
C357 C 0.59046 0.08334 0.7833 0.0
C358 C 0.60365 0.08851 0.8435 0.0
C359 C 0.59559 0.08348 0.91317 0.0
C360 C 0.5753 0.07251 0.92213 0.0
C361 C 0.513 0.04299 0.65077 0.0
C362 C 0.5651 0.00846 0.67697 0.0
C363 C 0.49799 0.96648 0.59589 0.0
C364 C 0.47737 0.95451 0.61255 0.0
C365 C 0.47164 0.95071 0.68525 0.0
C366 C 0.44991 0.94511 0.7041 0.0
C367 C 0.43353 0.94329 0.65061 0.0
C368 C 0.43976 0.94528 0.57742 0.0
C369 C 0.46154 0.95095 0.55857 0.0
C370 C 0.52892 0.97754 0.80938 0.0
C371 C 0.47709 0.01239 0.77587 0.0
O372 O 0.52607 0.0576 0.83098 0.0
O373 O 0.54749 0.03087 0.86591 0.0
O374 O 0.50695 0.05049 0.71293 0.0
O375 O 0.52602 0.02688 0.66106 0.0
O376 O 0.55946 0.01787 0.73901 0.0
O377 O 0.54953 0.99975 0.63592 0.0
O378 O 0.51512 0.96111 0.63536 0.0
O379 O 0.49561 0.98795 0.59126 0.0
O380 O 0.53598 0.97031 0.74806 0.0
O381 O 0.51574 0.99332 0.79707 0.0
O382 O 0.48298 1.00409 0.71269 0.0
O383 O 0.49264 0.01937 0.82035 0.0
H384 H 0.56084 0.06762 0.74485 0.0
H385 H 0.59614 0.08707 0.72907 0.0
H386 H 0.60552 0.08684 0.96064 0.0
H387 H 0.56987 0.06789 0.97594 0.0
H388 H 0.48355 0.95368 0.72805 0.0
H389 H 0.4456 0.94364 0.76076 0.0
H390 H 0.42743 0.94433 0.53495 0.0
H391 H 0.46556 0.95415 0.50244 0.0
La392 La 0.50341 0.51328 0.73781 0.0
La393 La 0.52905 0.49065 0.62541 0.0
C394 C 0.49066 0.54044 0.83114 0.0
C395 C 0.50128 0.56184 0.84844 0.0
C396 C 0.49618 0.58085 0.8077 0.0
C397 C 0.51018 0.59927 0.80937 0.0
C398 C 0.52961 0.59898 0.85146 0.0
C399 C 0.53354 0.58079 0.89723 0.0
C400 C 0.51943 0.56248 0.89616 0.0
C401 C 0.47865 0.49349 0.63827 0.0
C402 C 0.52335 0.54144 0.60964 0.0
C403 C 0.537 0.46469 0.52326 0.0
C404 C 0.52009 0.45193 0.48317 0.0
C405 C 0.51901 0.42885 0.49186 0.0
C406 C 0.50041 0.41709 0.46812 0.0
C407 C 0.48255 0.42818 0.43491 0.0
C408 C 0.4842 0.45105 0.42269 0.0
C409 C 0.50269 0.46286 0.44682 0.0
C410 C 0.55489 0.50827 0.72702 0.0
C411 C 0.50929 0.46291 0.75822 0.0
O412 O 0.4817 0.539 0.76691 0.0
O413 O 0.50242 0.52284 0.84654 0.0
O414 O 0.47351 0.49472 0.70604 0.0
O415 O 0.49633 0.50416 0.62798 0.0
O416 O 0.51986 0.54095 0.6801 0.0
O417 O 0.52416 0.52272 0.57307 0.0
O418 O 0.53919 0.45906 0.59102 0.0
O419 O 0.53649 0.4862 0.51537 0.0
O420 O 0.56107 0.50491 0.66079 0.0
O421 O 0.53608 0.49948 0.73471 0.0
O422 O 0.5141 0.46291 0.68824 0.0
O423 O 0.50662 0.48177 0.79296 0.0
H424 H 0.48214 0.58103 0.77113 0.0
H425 H 0.50628 0.61324 0.77493 0.0
H426 H 0.54786 0.58045 0.93263 0.0
H427 H 0.52355 0.54831 0.92957 0.0
H428 H 0.5321 0.42005 0.52004 0.0
H429 H 0.49991 0.39933 0.47657 0.0
H430 H 0.47078 0.45994 0.39694 0.0
H431 H 0.5028 0.48068 0.43979 0.0
La432 La 1.00899 0.49214 0.74161 0.0
La433 La 0.02451 0.523 0.64026 0.0
C434 C 0.98844 0.47087 0.83816 0.0
C435 C 0.96959 0.45536 0.83978 0.0
C436 C 0.97086 0.43645 0.88364 0.0
C437 C 0.95302 0.42168 0.88736 0.0
C438 C 0.93354 0.42563 0.84745 0.0
C439 C 0.93266 0.44423 0.8015 0.0
C440 C 0.95056 0.45893 0.79756 0.0
C441 C 0.02306 0.4724 0.62131 0.0
C442 C 0.97476 0.5129 0.62513 0.0
C443 C 0.0482 0.54577 0.55672 0.0
C444 C 0.07128 0.55289 0.57086 0.0
C445 C 0.07578 0.57494 0.59061 0.0
C446 C 0.09651 0.58072 0.6192 0.0
C447 C 0.11287 0.56445 0.62929 0.0
C448 C 0.10872 0.5427 0.60638 0.0
C449 C 0.08824 0.537 0.57708 0.0
C450 C 0.01001 0.542 0.76257 0.0
C451 C 0.05919 0.50176 0.74816 0.0
O452 O 1.00626 0.46358 0.80587 0.0
O453 O 0.98413 0.49152 0.82134 0.0
O454 O 0.02572 0.46487 0.68599 0.0
O455 O 0.01203 0.49013 0.6252 0.0
O456 O 0.97722 0.50285 0.68871 0.0
O457 O 0.99238 0.51998 0.58962 0.0
O458 O 0.03338 0.55435 0.59978 0.0
O459 O 0.04497 0.5245 0.54823 0.0
O460 O 1.00545 0.54826 0.69752 0.0
O461 O 0.02192 0.52487 0.75681 0.0
O462 O 0.05571 0.50878 0.68174 0.0
O463 O 0.04189 0.49765 0.78993 0.0
H464 H 0.98556 0.43326 0.9158 0.0
H465 H 0.9543 0.40739 0.92264 0.0
H466 H 0.91779 0.44798 0.77085 0.0
H467 H 0.94931 0.4733 0.76271 0.0
H468 H 0.06298 0.5875 0.5866 0.0
H469 H 0.09959 0.59771 0.63504 0.0
H470 H 0.12139 0.53003 0.6111 0.0
H471 H 0.08548 0.51989 0.56208 0.0
H472 H 0.13217 1.00383 0.30092 0.0
H473 H 0.1693 0.05999 0.38414 0.0
H474 H 0.14121 0.06509 0.47886 0.0
H475 H 0.07582 0.02601 0.34265 0.0
H476 H 0.06519 0.99921 0.36857 0.0
H477 H 0.08681 1.00131 0.30138 0.0
H478 H 0.11151 0.97483 0.37673 0.0
H479 H 0.09001 0.9727 0.44409 0.0
H480 H 0.11754 0.9815 0.46953 0.0
H481 H 0.1123 0.06131 0.57468 0.0
H482 H 0.08293 0.05006 0.66083 0.0
H483 H 0.06287 0.99735 0.51643 0.0
C484 C 0.13424 0.01744 0.33828 0.0
C485 C 0.15303 0.03167 0.3337 0.0
C486 C 0.15494 0.04917 0.38443 0.0
C487 C 0.13909 0.05212 0.4392 0.0
C488 C 0.12113 0.03759 0.44295 0.0
C489 C 0.11841 0.02073 0.39344 0.0
C490 C 0.0981 1.00677 0.4123 0.0
C491 C 0.08043 0.00843 0.35267 0.0
C492 C 0.10469 0.98252 0.42652 0.0
C493 C 0.09029 0.01804 0.48122 0.0
C494 C 0.10386 0.03582 0.49767 0.0
C495 C 0.10127 0.04774 0.56155 0.0
C496 C 0.08457 0.04123 0.61022 0.0
C497 C 0.07039 0.02318 0.59463 0.0
C498 C 0.07308 0.01164 0.52868 0.0
H499 H 0.4879 0.15361 0.42672 0.0
H500 H 0.52888 0.12776 0.25329 0.0
H501 H 0.53415 0.09304 0.3226 0.0
H502 H 0.52023 0.13147 0.5724 0.0
H503 H 0.49639 0.1256 0.62835 0.0
H504 H 0.49536 0.1479 0.56365 0.0
H505 H 0.46023 0.13051 0.50605 0.0
H506 H 0.46123 0.10807 0.57036 0.0
H507 H 0.46112 0.10225 0.47493 0.0
H508 H 0.5358 0.061 0.4149 0.0
H509 H 0.5339 0.03561 0.52046 0.0
H510 H 0.49209 0.08289 0.63235 0.0
C511 C 0.49817 0.14079 0.40322 0.0
C512 C 0.50802 0.14367 0.33413 0.0
C513 C 0.52093 0.12607 0.30551 0.0
C514 C 0.52411 0.10625 0.34475 0.0
C515 C 0.51423 0.10409 0.41274 0.0
C516 C 0.50151 0.12095 0.44158 0.0
C517 C 0.4929 0.11478 0.51605 0.0
C518 C 0.50175 0.13089 0.57349 0.0
C519 C 0.46736 0.11385 0.51685 0.0
C520 C 0.50288 0.09187 0.52515 0.0
C521 C 0.51509 0.08589 0.46499 0.0
C522 C 0.52619 0.06556 0.462 0.0
C523 C 0.52498 0.05119 0.52215 0.0
C524 C 0.51279 0.05717 0.58465 0.0
C525 C 0.50145 0.07772 0.58535 0.0
H526 H 0.40189 0.5099 0.28997 0.0
H527 H 0.36563 0.4514 0.36135 0.0
H528 H 0.39399 0.44461 0.45362 0.0
H529 H 0.45788 0.48978 0.32583 0.0
H530 H 0.46803 0.51551 0.36244 0.0
H531 H 0.44663 0.51563 0.29434 0.0
H532 H 0.42012 0.5379 0.37441 0.0
H533 H 0.44135 0.53936 0.44263 0.0
H534 H 0.41426 0.52854 0.46501 0.0
H535 H 0.42304 0.44689 0.55057 0.0
H536 H 0.45165 0.45746 0.64022 0.0
H537 H 0.46955 0.51426 0.5088 0.0
C538 C 0.39984 0.49552 0.32429 0.0
C539 C 0.3812 0.48118 0.3167 0.0
C540 C 0.37975 0.46248 0.36341 0.0
C541 C 0.39579 0.45852 0.41706 0.0
C542 C 0.41335 0.47339 0.4244 0.0
C543 C 0.41559 0.49145 0.37899 0.0
C544 C 0.4351 0.50586 0.40203 0.0
C545 C 0.45298 0.50673 0.34271 0.0
C546 C 0.42723 0.52929 0.42222 0.0
C547 C 0.44319 0.49328 0.46827 0.0
C548 C 0.43038 0.47458 0.48012 0.0
C549 C 0.43338 0.4613 0.54119 0.0
C550 C 0.4496 0.46744 0.59194 0.0
C551 C 0.46292 0.48647 0.58101 0.0
C552 C 0.45989 0.49934 0.5177 0.0
H553 H 0.02518 0.35709 0.40741 0.0
H554 H 0.01685 0.39472 0.20902 0.0
H555 H 0.01847 0.42947 0.27848 0.0
H556 H 0.99253 0.39127 0.51962 0.0
H557 H 0.01025 0.38886 0.59768 0.0
H558 H 0.00939 0.36688 0.53222 0.0
H559 H 0.05206 0.36962 0.51549 0.0
H560 H 0.05307 0.39154 0.58128 0.0
H561 H 0.06442 0.39591 0.49221 0.0
H562 H 0.0183 0.4605 0.37158 0.0
H563 H 0.01848 0.48475 0.47949 0.0
H564 H 0.02914 0.42726 0.616 0.0
C565 C 0.02417 0.37259 0.37806 0.0
C566 C 0.02073 0.3729 0.30219 0.0
C567 C 0.01909 0.39378 0.26695 0.0
C568 C 0.02013 0.41372 0.30601 0.0
C569 C 0.02308 0.41276 0.38065 0.0
C570 C 0.02535 0.39272 0.41622 0.0
C571 C 0.02799 0.39625 0.49701 0.0
C572 C 1.00891 0.38516 0.53908 0.0
C573 C 0.05074 0.38783 0.52301 0.0
C574 C 0.02658 0.42135 0.50144 0.0
C575 C 0.02368 0.43059 0.43373 0.0
C576 C 0.02085 0.45342 0.42469 0.0
C577 C 0.02096 0.46709 0.48627 0.0
C578 C 0.02404 0.458 0.55611 0.0
C579 C 0.02706 0.4348 0.56331 0.0
H580 H 0.86391 1.00128 0.96419 0.0
H581 H 0.90263 0.98322 0.15267 0.0
H582 H 0.93665 0.98192 0.077 0.0
H583 H 0.8943 0.96787 0.83245 0.0
H584 H 0.89217 0.98864 0.76266 0.0
H585 H 0.87085 0.98644 0.83077 0.0
H586 H 0.87654 0.02777 0.86348 0.0
H587 H 0.89788 0.03008 0.79564 0.0
H588 H 0.90389 0.03742 0.88789 0.0
H589 H 0.96692 0.98367 0.97916 0.0
H590 H 0.99034 0.99038 0.8711 0.0
H591 H 0.93186 0.0084 0.7486 0.0
C592 C 0.87947 0.99663 0.98937 0.0
C593 C 0.88052 0.99207 0.06439 0.0
C594 C 0.90138 0.98671 0.09541 0.0
C595 C 0.92077 0.98586 0.05273 0.0
C596 C 0.91915 0.9906 0.97901 0.0
C597 C 0.89899 0.99598 0.94777 0.0
C598 C 0.90181 1.00165 0.86839 0.0
C599 C 0.88902 0.98516 0.82077 0.0
C600 C 0.89461 0.02566 0.85298 0.0
C601 C 0.92672 0.99886 0.85974 0.0
C602 C 0.93645 0.99222 0.92384 0.0
C603 C 0.95938 0.98883 0.92881 0.0
C604 C 0.97262 0.99261 0.86712 0.0
C605 C 0.96303 0.99984 0.80147 0.0
C606 C 0.93973 1.00282 0.798 0.0
H607 H 0.56087 0.87188 0.05077 0.0
H608 H 0.50273 0.88517 0.18207 0.0
H609 H 0.4953 0.91905 0.1097 0.0
H610 H 0.57842 0.92867 0.02296 0.0
H611 H 0.58675 0.92418 0.93059 0.0
H612 H 0.58793 0.90172 0.99481 0.0
H613 H 0.56298 0.87783 0.91177 0.0
H614 H 0.56181 0.90016 0.8472 0.0
H615 H 0.53646 0.88851 0.88279 0.0
H616 H 0.49466 0.95211 0.02183 0.0
H617 H 0.49876 0.9789 0.92098 0.0
H618 H 0.55628 0.94274 0.84385 0.0
C619 C 0.5467 0.88205 0.06485 0.0
C620 C 0.53252 0.87598 0.12283 0.0
C621 C 0.51384 0.88948 0.13815 0.0
C622 C 0.50957 0.90881 0.09746 0.0
C623 C 0.52396 0.91435 0.04084 0.0
C624 C 0.54202 0.90117 0.0241 0.0
C625 C 0.5543 0.91004 0.95838 0.0
C626 C 0.57827 0.91654 0.97788 0.0
C627 C 0.55385 0.89313 0.89637 0.0
C628 C 0.54041 0.9303 0.94054 0.0
C629 C 0.52312 0.9327 0.98919 0.0
C630 C 0.50814 0.9503 0.98353 0.0
C631 C 0.51066 0.96553 0.92621 0.0
C632 C 0.52786 0.96298 0.87451 0.0
C633 C 0.54299 0.94519 0.88254 0.0
H634 H 0.67174 0.50887 0.9361 0.0
H635 H 0.63451 0.52029 0.13362 0.0
H636 H 0.59989 0.52266 0.06285 0.0
H637 H 0.63867 0.54675 0.82187 0.0
H638 H 0.6406 0.52903 0.74392 0.0
H639 H 0.66268 0.52929 0.80964 0.0
H640 H 0.65877 0.48683 0.82567 0.0
H641 H 0.63665 0.48645 0.7603 0.0
H642 H 0.6321 0.47525 0.84949 0.0
H643 H 0.56875 0.52094 0.97176 0.0
H644 H 0.54387 0.51642 0.86698 0.0
H645 H 0.60096 0.50847 0.72664 0.0
C646 C 0.65643 0.51237 0.96459 0.0
C647 C 0.65608 0.5143 0.04108 0.0
C648 C 0.6354 0.51838 0.07557 0.0
C649 C 0.61558 0.51993 0.03565 0.0
C650 C 0.61653 0.51759 0.96078 0.0
C651 C 0.63645 0.51411 0.92543 0.0
C652 C 0.63275 0.51156 0.84457 0.0
C653 C 0.64437 0.53028 0.80252 0.0
C654 C 0.64053 0.48866 0.8185 0.0
C655 C 0.6076 0.51373 0.84014 0.0
C656 C 0.59861 0.51724 0.90791 0.0
C657 C 0.57569 0.51854 0.91839 0.0
C658 C 0.56162 0.51601 0.85842 0.0
C659 C 0.57035 0.51247 0.78836 0.0
C660 C 0.59374 0.51156 0.77924 0.0
H661 H 0.98527 0.62079 0.10205 0.0
H662 H 0.03679 0.66425 0.01669 0.0
H663 H 0.04589 0.6364 0.92526 0.0
H664 H 0.01278 0.56792 0.06569 0.0
H665 H 0.98746 0.5544 0.03815 0.0
H666 H 0.98652 0.57652 0.1033 0.0
H667 H 0.95849 0.59779 0.02293 0.0
H668 H 0.95931 0.57575 0.95769 0.0
H669 H 0.96558 0.60374 0.93023 0.0
H670 H 0.04817 0.60499 0.83692 0.0
H671 H 0.04218 0.57309 0.75575 0.0
H672 H 0.98767 0.55064 0.89062 0.0
C673 C 0.99851 0.62465 0.0645 0.0
C674 C 0.01039 0.64504 0.06854 0.0
C675 C 0.02771 0.64878 0.01759 0.0
C676 C 0.03294 0.63303 0.96444 0.0
C677 C 0.02068 0.61345 0.96162 0.0
C678 C 1.00374 0.60922 0.01006 0.0
C679 C 0.99211 0.5875 0.99188 0.0
C680 C 0.99489 0.57059 0.05343 0.0
C681 C 0.96741 0.59144 0.97465 0.0
C682 C 1.00492 0.5804 0.92491 0.0
C683 C 0.02154 0.59553 0.90917 0.0
C684 C 0.0353 0.59301 0.84908 0.0
C685 C 0.03181 0.57482 0.80332 0.0
C686 C 0.01463 0.55934 0.81728 0.0
C687 C 1.00112 0.56207 0.87931 0.0
H688 H 0.90733 0.19144 0.26005 0.0
H689 H 0.90353 0.22908 0.45874 0.0
H690 H 0.90115 0.19423 0.52792 0.0
H691 H 0.87227 0.14054 0.32938 0.0
H692 H 0.89008 0.12252 0.2778 0.0
H693 H 0.88318 0.14966 0.24357 0.0
H694 H 0.92512 0.15825 0.23039 0.0
H695 H 0.93227 0.13168 0.26637 0.0
H696 H 0.94285 0.15638 0.30872 0.0
H697 H 0.91198 0.15738 0.57481 0.0
H698 H 0.93128 0.12192 0.5943 0.0
H699 H 0.92565 0.10728 0.3659 0.0
C700 C 0.90448 0.19252 0.31762 0.0
C701 C 0.90586 0.21305 0.35384 0.0
C702 C 0.90281 0.21355 0.42971 0.0
C703 C 0.90128 0.19379 0.46949 0.0
C704 C 0.90215 0.17371 0.43244 0.0
C705 C 0.9029 0.17296 0.35777 0.0
C706 C 0.90757 0.14972 0.33112 0.0
C707 C 0.88705 0.14004 0.29325 0.0
C708 C 0.92817 0.149 0.28135 0.0
C709 C 0.9118 0.13809 0.40218 0.0
C710 C 0.90791 0.15196 0.46019 0.0
C711 C 0.91418 0.14605 0.53016 0.0
C712 C 0.92519 0.12582 0.54074 0.0
C713 C 0.92997 0.11178 0.48153 0.0
C714 C 0.92226 0.11767 0.41216 0.0
H715 H 0.31554 0.94585 0.50283 0.0
H716 H 0.30839 1.00512 0.63124 0.0
H717 H 0.33815 0.99207 0.71276 0.0
H718 H 0.33861 0.90685 0.65536 0.0
H719 H 0.35753 0.89483 0.59089 0.0
H720 H 0.33021 0.90357 0.56258 0.0
H721 H 0.34805 0.92809 0.46308 0.0
H722 H 0.37517 0.91965 0.49115 0.0
H723 H 0.3683 0.94872 0.4883 0.0
H724 H 0.37398 0.97865 0.75729 0.0
H725 H 0.41361 0.96909 0.75232 0.0
H726 H 0.39978 0.91934 0.59037 0.0
C727 C 0.31941 0.95532 0.55083 0.0
C728 C 0.3095 0.97613 0.56222 0.0
C729 C 0.3156 0.98888 0.62288 0.0
C730 C 0.33239 0.9815 0.66954 0.0
C731 C 0.34296 0.96144 0.65425 0.0
C732 C 0.33658 0.94843 0.59629 0.0
C733 C 0.35368 0.93072 0.58022 0.0
C734 C 0.34445 0.90762 0.59838 0.0
C735 C 0.36178 0.93192 0.50111 0.0
C736 C 0.37172 0.93726 0.63279 0.0
C737 C 0.36474 0.95419 0.67778 0.0
C738 C 0.37944 0.96505 0.72381 0.0
C739 C 0.40199 0.95947 0.72062 0.0
C740 C 0.40969 0.94355 0.67048 0.0
C741 C 0.39419 0.93147 0.62933 0.0
H742 H 0.41504 0.3192 0.42846 0.0
H743 H 0.40491 0.33482 0.20176 0.0
H744 H 0.41065 0.37394 0.22721 0.0
H745 H 0.39884 0.37751 0.50672 0.0
H746 H 0.42145 0.37536 0.57015 0.0
H747 H 0.40619 0.35091 0.54417 0.0
H748 H 0.44317 0.33223 0.50667 0.0
H749 H 0.4584 0.35657 0.53094 0.0
H750 H 0.46073 0.34566 0.44069 0.0
H751 H 0.42977 0.40774 0.26363 0.0
H752 H 0.45916 0.43247 0.30874 0.0
H753 H 0.46087 0.39563 0.51002 0.0
C754 C 0.41324 0.33092 0.38455 0.0
C755 C 0.40989 0.32355 0.31291 0.0
C756 C 0.40718 0.33963 0.2575 0.0
C757 C 0.41055 0.36216 0.2714 0.0
C758 C 0.41661 0.36852 0.34088 0.0
C759 C 0.41753 0.35338 0.39718 0.0
C760 C 0.42937 0.36313 0.46205 0.0
C761 C 0.41298 0.36696 0.52446 0.0
C762 C 0.44908 0.34854 0.48636 0.0
C763 C 0.43716 0.38494 0.43042 0.0
C764 C 0.4287 0.38825 0.36183 0.0
C765 C 0.43594 0.4057 0.31812 0.0
C766 C 0.45274 0.41964 0.34407 0.0
C767 C 0.46241 0.4158 0.41261 0.0
C768 C 0.45383 0.39881 0.45721 0.0
H769 H 0.22623 0.58341 0.49253 0.0
H770 H 0.24188 0.52618 0.62315 0.0
H771 H 0.21309 0.53688 0.71077 0.0
H772 H 0.1993 0.61983 0.65429 0.0
H773 H 0.17886 0.6296 0.59065 0.0
H774 H 0.20722 0.62537 0.56207 0.0
H775 H 0.19335 0.59985 0.45971 0.0
H776 H 0.16533 0.60378 0.48797 0.0
H777 H 0.17642 0.57608 0.48207 0.0
H778 H 0.17587 0.54332 0.75185 0.0
H779 H 0.13526 0.54368 0.73792 0.0
H780 H 0.14058 0.59623 0.5799 0.0
C781 C 0.22448 0.57418 0.54243 0.0
C782 C 0.2362 0.55423 0.55202 0.0
C783 C 0.23315 0.54172 0.61575 0.0
C784 C 0.21686 0.5478 0.66592 0.0
C785 C 0.20372 0.56635 0.65125 0.0
C786 C 0.2077 0.57975 0.59149 0.0
C787 C 0.18809 0.59484 0.57647 0.0
C788 C 0.19371 0.61883 0.59714 0.0
C789 C 0.18035 0.59348 0.49698 0.0
C790 C 0.1712 0.58515 0.6284 0.0
C791 C 0.18098 0.56988 0.67469 0.0
C792 C 0.16819 0.55574 0.71778 0.0
C793 C 0.14511 0.55592 0.70928 0.0
C794 C 0.13509 0.56998 0.65758 0.0
C795 C 0.14806 0.5858 0.62083 0.0
H796 H 0.92692 0.83384 0.14762 0.0
H797 H 0.90263 0.80454 0.94952 0.0
H798 H 0.91444 0.83795 0.88209 0.0
H799 H 0.91778 0.89518 0.09604 0.0
H800 H 0.94344 0.90233 0.14048 0.0
H801 H 0.92641 0.88013 0.17544 0.0
H802 H 0.96035 0.85386 0.16865 0.0
H803 H 0.97728 0.87555 0.13177 0.0
H804 H 0.97421 0.84989 0.08323 0.0
H805 H 0.93675 0.86968 0.83355 0.0
H806 H 0.96572 0.89766 0.80879 0.0
H807 H 0.97746 0.9042 0.03901 0.0
C808 C 0.92271 0.83502 0.09089 0.0
C809 C 0.91354 0.81675 0.05394 0.0
C810 C 0.90936 0.81849 0.97892 0.0
C811 C 0.91604 0.83742 0.94028 0.0
C812 C 0.92671 0.85442 0.97766 0.0
C813 C 0.92964 0.85355 0.05173 0.0
C814 C 0.94502 0.8717 0.07769 0.0
C815 C 0.9324 0.88833 0.12521 0.0
C816 C 0.9654 0.86216 0.11759 0.0
C817 C 0.9515 0.88201 0.00631 0.0
C818 C 0.94034 0.87229 0.94938 0.0
C819 C 0.94522 0.87772 0.87787 0.0
C820 C 0.96196 0.89338 0.86433 0.0
C821 C 0.97396 0.90313 0.922 0.0
C822 C 0.9683 0.89751 0.99376 0.0
H823 H 0.71416 0.12298 0.02046 0.0
H824 H 0.74271 0.07434 0.87438 0.0
H825 H 0.71182 0.07965 0.79222 0.0
H826 H 0.666 0.09953 0.02386 0.0
H827 H 0.64858 0.12376 0.02933 0.0
H828 H 0.67671 0.12507 0.0604 0.0
H829 H 0.68465 0.15797 0.97399 0.0
H830 H 0.65626 0.15692 0.94291 0.0
H831 H 0.67881 0.15531 0.87894 0.0
H832 H 0.67417 0.07959 0.74658 0.0
H833 H 0.63382 0.07388 0.74444 0.0
H834 H 0.62626 0.11935 0.92365 0.0
C835 C 0.71431 0.11375 0.97055 0.0
C836 C 0.73109 0.09795 0.95576 0.0
C837 C 0.73063 0.08688 0.88813 0.0
C838 C 0.71287 0.08972 0.84037 0.0
C839 C 0.69545 0.10354 0.86055 0.0
C840 C 0.6961 0.11562 0.92389 0.0
C841 C 0.67337 0.12496 0.94205 0.0
C842 C 0.66574 0.11788 0.01833 0.0
C843 C 0.67327 0.1503 0.93395 0.0
C844 C 0.6595 0.11419 0.88365 0.0
C845 C 0.67273 0.10287 0.83502 0.0
C846 C 0.66366 0.08901 0.78267 0.0
C847 C 0.64062 0.08586 0.78184 0.0
C848 C 0.62688 0.09627 0.83378 0.0
C849 C 0.6364 0.11134 0.88308 0.0
H850 H 0.56557 0.72079 0.91701 0.0
H851 H 0.63193 0.6955 0.95538 0.0
H852 H 0.62187 0.66092 0.89253 0.0
H853 H 0.53929 0.67811 0.96799 0.0
H854 H 0.51675 0.67802 0.90393 0.0
H855 H 0.5307 0.70343 0.92415 0.0
H856 H 0.54018 0.70951 0.78903 0.0
H857 H 0.52556 0.68426 0.76757 0.0
H858 H 0.55397 0.68793 0.739 0.0
H859 H 0.60213 0.6265 0.8578 0.0
H860 H 0.57509 0.59587 0.85088 0.0
H861 H 0.52111 0.6434 0.84268 0.0
C862 C 0.5785 0.70864 0.90805 0.0
C863 C 0.5996 0.71092 0.94068 0.0
C864 C 0.61569 0.69413 0.93058 0.0
C865 C 0.61013 0.67447 0.8946 0.0
C866 C 0.58851 0.67203 0.86839 0.0
C867 C 0.57306 0.68892 0.87331 0.0
C868 C 0.5499 0.68092 0.85467 0.0
C869 C 0.53323 0.68537 0.91638 0.0
C870 C 0.54194 0.69127 0.78331 0.0
C871 C 0.55434 0.65649 0.84568 0.0
C872 C 0.57679 0.65178 0.85075 0.0
C873 C 0.58459 0.63006 0.85206 0.0
C874 C 0.56907 0.61278 0.84934 0.0
C875 C 0.54596 0.6173 0.84704 0.0
C876 C 0.53866 0.63945 0.84329 0.0
H877 H 0.83381 0.3982 0.09258 0.0
H878 H 0.79406 0.39429 0.89803 0.0
H879 H 0.82818 0.38902 0.82611 0.0
H880 H 0.87053 0.43141 0.03273 0.0
H881 H 0.89491 0.42024 0.07612 0.0
H882 H 0.86809 0.41541 0.11484 0.0
H883 H 0.87434 0.37301 0.11053 0.0
H884 H 0.90163 0.37765 0.07291 0.0
H885 H 0.88211 0.36002 0.02668 0.0
H886 H 0.86568 0.39563 0.774 0.0
H887 H 0.90281 0.4112 0.74773 0.0
H888 H 0.91795 0.41078 0.97653 0.0
C889 C 0.83208 0.39478 0.03553 0.0
C890 C 0.81126 0.39667 1.00103 0.0
C891 C 0.80986 0.39299 0.92565 0.0
C892 C 0.82918 0.38985 0.8844 0.0
C893 C 0.84969 0.38997 0.91953 0.0
C894 C 0.8512 0.39177 0.9939 0.0
C895 C 0.87494 0.39556 0.01779 0.0
C896 C 0.87722 0.41692 0.06289 0.0
C897 C 0.88378 0.37535 0.05942 0.0
C898 C 0.88622 0.39775 0.94517 0.0
C899 C 0.8716 0.39378 0.88906 0.0
C900 C 0.87746 0.39805 0.81739 0.0
C901 C 0.89851 0.40711 0.803 0.0
C902 C 0.91333 0.41204 0.86012 0.0
C903 C 0.90729 0.40652 0.93158 0.0
H904 H 1.00461 0.17568 0.8566 0.0
H905 H 0.03663 0.16214 0.06227 0.0
H906 H 0.04182 0.12328 0.02657 0.0
H907 H 0.97466 0.12437 0.84649 0.0
H908 H 0.97797 0.12123 0.75028 0.0
H909 H 0.9777 0.14849 0.78962 0.0
H910 H 0.01591 0.15699 0.73125 0.0
H911 H 0.01624 0.12976 0.69157 0.0
H912 H 0.03899 0.13863 0.74783 0.0
H913 H 0.04192 0.08524 0.97235 0.0
H914 H 0.03831 0.05104 0.9013 0.0
H915 H 1.00613 0.08813 0.72938 0.0
C916 C 0.01279 0.16461 0.8942 0.0
C917 C 0.02039 0.17238 0.96239 0.0
C918 C 0.03108 0.15708 0.00923 0.0
C919 C 0.03394 0.13478 0.98967 0.0
C920 C 0.02607 0.12772 0.92279 0.0
C921 C 0.01582 0.14216 0.87546 0.0
C922 C 1.00861 0.13005 0.80722 0.0
C923 C 0.98323 0.1311 0.79788 0.0
C924 C 0.02066 0.13942 0.74052 0.0
C925 C 0.01625 0.10654 0.824 0.0
C926 C 0.02625 0.10565 0.8911 0.0
C927 C 0.03423 0.08579 0.91956 0.0
C928 C 0.03202 0.06635 0.87861 0.0
C929 C 0.02197 0.06667 0.8093 0.0
C930 C 0.01403 0.0872 0.78183 0.0
H931 H 0.37255 0.00858 0.04567 0.0
H932 H 0.33004 0.02194 0.8617 0.0
H933 H 0.36318 0.02286 0.78198 0.0
H934 H 0.41762 0.0443 0.99131 0.0
H935 H 0.43895 0.026 0.02476 0.0
H936 H 0.41188 0.02609 0.06644 0.0
H937 H 0.40837 0.98385 0.04431 0.0
H938 H 0.43542 0.98366 1.00244 0.0
H939 H 0.41167 0.97322 0.95403 0.0
H940 H 0.4014 0.01997 0.72111 0.0
H941 H 0.44117 0.01759 0.68693 0.0
H942 H 0.45886 0.00872 0.91202 0.0
C943 C 0.37018 0.01163 0.98853 0.0
C944 C 0.34858 0.01507 0.95997 0.0
C945 C 0.34634 0.01937 0.88502 0.0
C946 C 0.36509 0.0198 0.83926 0.0
C947 C 0.3861 0.01612 0.86917 0.0
C948 C 0.38873 0.01238 0.94233 0.0
C949 C 0.4131 0.00945 0.96148 0.0
C950 C 0.42084 0.02754 0.01411 0.0
C951 C 0.41739 0.98616 0.9924 0.0
C952 C 0.42388 0.0122 0.88783 0.0
C953 C 0.408 0.01567 0.83501 0.0
C954 C 0.41393 0.01761 0.76232 0.0
C955 C 0.43657 0.01615 0.74333 0.0
C956 C 0.45317 0.01331 0.79682 0.0
C957 C 0.44661 0.01131 0.87001 0.0
H958 H 0.50327 0.33068 0.83583 0.0
H959 H 0.5126 0.34723 0.06185 0.0
H960 H 0.51414 0.38679 0.03016 0.0
H961 H 0.54069 0.3737 0.76514 0.0
H962 H 0.52374 0.37962 0.68721 0.0
H963 H 0.52353 0.35228 0.72663 0.0
H964 H 0.48078 0.35449 0.74073 0.0
H965 H 0.48092 0.38188 0.70173 0.0
H966 H 0.46869 0.37733 0.78947 0.0
H967 H 0.51266 0.42451 0.9771 0.0
H968 H 0.51186 0.45852 0.9041 0.0
H969 H 0.50532 0.41922 0.70905 0.0
C970 C 0.50579 0.34265 0.87849 0.0
C971 C 0.50805 0.33564 0.95156 0.0
C972 C 0.51128 0.35195 1.00553 0.0
C973 C 0.51198 0.37456 0.98812 0.0
C974 C 0.5096 0.3809 0.91613 0.0
C975 C 0.50686 0.3655 0.86181 0.0
C976 C 0.50513 0.3771 0.78862 0.0
C977 C 0.52443 0.37027 0.73897 0.0
C978 C 0.48253 0.37242 0.75305 0.0
C979 C 0.50711 0.40135 0.81072 0.0
C980 C 0.50945 0.40299 0.88476 0.0
C981 C 0.511 0.42343 0.91902 0.0
C982 C 0.51041 0.44274 0.87682 0.0
C983 C 0.50854 0.44175 0.80052 0.0
C984 C 0.50685 0.42063 0.76712 0.0
H985 H 0.16018 0.50743 0.03348 0.0
H986 H 0.20472 0.49241 0.85594 0.0
H987 H 0.1725 0.4904 0.77302 0.0
H988 H 0.11573 0.47068 0.97845 0.0
H989 H 0.09388 0.48915 0.00676 0.0
H990 H 0.12041 0.48969 0.05182 0.0
H991 H 0.12401 0.53167 0.02471 0.0
H992 H 0.09748 0.53125 0.97966 0.0
H993 H 0.12176 0.54136 0.93279 0.0
H994 H 0.13531 0.4915 0.70827 0.0
H995 H 0.09624 0.4934 0.66809 0.0
H996 H 0.07519 0.50592 0.88828 0.0
C997 C 0.16316 0.5037 0.97712 0.0
C998 C 0.1851 0.50007 0.95132 0.0
C999 C 0.18816 0.49504 0.87725 0.0
C1000 C 0.16993 0.49398 0.82966 0.0
C1001 C 0.14857 0.49767 0.85687 0.0
C1002 C 0.14509 0.50224 0.92905 0.0
C1003 C 0.12041 0.50522 0.94471 0.0
C1004 C 0.11212 0.48763 0.99863 0.0
C1005 C 0.11564 0.52877 0.97209 0.0
C1006 C 0.11052 0.50161 0.87012 0.0
C1007 C 0.12711 0.49751 0.82013 0.0
C1008 C 0.12223 0.49447 0.74722 0.0
C1009 C 0.09993 0.49566 0.72482 0.0
C1010 C 0.08254 0.49963 0.7749 0.0
C1011 C 0.08801 0.5025 0.84875 0.0
H1012 H 1.00463 0.83444 0.54912 0.0
H1013 H 0.0137 0.84947 0.32145 0.0
H1014 H 0.0161 0.88917 0.3499 0.0
H1015 H 0.97076 0.88182 0.59196 0.0
H1016 H 0.98311 0.88668 0.67916 0.0
H1017 H 0.98254 0.85909 0.64237 0.0
H1018 H 0.02524 0.85636 0.65635 0.0
H1019 H 0.02588 0.88394 0.69334 0.0
H1020 H 0.04271 0.87727 0.61579 0.0
H1021 H 0.01563 0.92738 0.40037 0.0
H1022 H 0.01516 0.96181 0.47101 0.0
H1023 H 1.00763 0.92351 0.66854 0.0
C1024 C 1.00725 0.84608 0.50534 0.0
C1025 C 1.00923 0.83856 0.4328 0.0
C1026 C 0.01263 0.85451 0.37743 0.0
C1027 C 0.01381 0.87723 0.393 0.0
C1028 C 0.01171 0.88405 0.46453 0.0
C1029 C 1.00874 0.86901 0.52012 0.0
C1030 C 1.0072 0.88105 0.59237 0.0
C1031 C 0.98455 0.87691 0.62859 0.0
C1032 C 0.0264 0.87425 0.64242 0.0
C1033 C 0.00952 0.90514 0.56832 0.0
C1034 C 0.01196 0.90635 0.49419 0.0
C1035 C 0.01387 0.92662 0.4585 0.0
C1036 C 0.01347 0.94617 0.49933 0.0
C1037 C 0.01138 0.94558 0.57565 0.0
C1038 C 0.00939 0.92464 0.61044 0.0
H1039 H 0.66719 0.98575 0.40662 0.0
H1040 H 0.7082 0.02565 0.54896 0.0
H1041 H 0.67652 0.02974 0.63222 0.0
H1042 H 0.61796 0.01809 0.42698 0.0
H1043 H 0.59931 0.99472 0.42411 0.0
H1044 H 0.62566 0.99347 0.37807 0.0
H1045 H 0.63574 0.95781 0.44894 0.0
H1046 H 0.60938 0.95893 0.49509 0.0
H1047 H 0.63483 0.958 0.54628 0.0
H1048 H 0.63947 0.03111 0.69827 0.0
H1049 H 0.60062 0.02918 0.74124 0.0
H1050 H 0.58321 0.98948 0.55448 0.0
C1051 C 0.66964 0.99535 0.45523 0.0
C1052 C 0.69056 1.00521 0.47075 0.0
C1053 C 0.69274 0.01743 0.53584 0.0
C1054 C 0.67468 0.02005 0.58349 0.0
C1055 C 0.65433 0.01041 0.56583 0.0
C1056 C 0.65173 0.99825 0.50329 0.0
C1057 C 0.6279 0.99017 0.49579 0.0
C1058 C 0.61707 0.99969 0.42717 0.0
C1059 C 0.62691 0.96471 0.49659 0.0
C1060 C 0.61745 0.99983 0.5635 0.0
C1061 C 0.633 0.01138 0.60336 0.0
C1062 C 0.62722 0.022 0.66756 0.0
C1063 C 0.60504 0.02079 0.69163 0.0
C1064 C 0.58872 0.0091 0.65163 0.0
C1065 C 0.59519 0.99849 0.58665 0.0
H1066 H 0.54665 0.67186 0.53479 0.0
H1067 H 0.51333 0.66251 0.32924 0.0
H1068 H 0.5073 0.62318 0.35898 0.0
H1069 H 0.57429 0.61847 0.53812 0.0
H1070 H 0.57092 0.61436 0.63401 0.0
H1071 H 0.57275 0.64203 0.59762 0.0
H1072 H 0.53497 0.65227 0.65649 0.0
H1073 H 0.53423 0.62482 0.69421 0.0
H1074 H 0.51116 0.6347 0.64097 0.0
H1075 H 0.50669 0.58431 0.40648 0.0
H1076 H 0.50804 0.54911 0.47418 0.0
H1077 H 0.5394 0.58273 0.65421 0.0
C1078 C 0.53801 0.66156 0.49615 0.0
C1079 C 0.5303 0.67059 0.42964 0.0
C1080 C 0.51904 0.65635 0.38098 0.0
C1081 C 0.5157 0.63383 0.39714 0.0
C1082 C 0.52355 0.6255 0.46262 0.0
C1083 C 0.53427 0.63892 0.51185 0.0
C1084 C 0.54079 0.62561 0.57871 0.0
C1085 C 0.5662 0.62509 0.58759 0.0
C1086 C 0.52956 0.63494 0.64657 0.0
C1087 C 0.53177 0.60271 0.55971 0.0
C1088 C 0.52232 0.60306 0.49166 0.0
C1089 C 0.51384 0.5839 0.46007 0.0
C1090 C 0.51479 0.5639 0.49893 0.0
C1091 C 0.52375 0.56303 0.56963 0.0
C1092 C 0.53228 0.58284 0.6005 0.0
H1093 H 0.84681 0.48695 0.52007 0.0
H1094 H 0.85521 0.53596 0.34944 0.0
H1095 H 0.89247 0.5444 0.39484 0.0
H1096 H 0.87849 0.51617 0.65983 0.0
H1097 H 0.89112 0.49129 0.69493 0.0
H1098 H 0.86402 0.49007 0.65368 0.0
H1099 H 0.87818 0.4602 0.56486 0.0
H1100 H 0.90527 0.46136 0.606 0.0
H1101 H 0.90236 0.46585 0.51016 0.0
H1102 H 0.92957 0.54643 0.45213 0.0
H1103 H 0.96463 0.54187 0.51803 0.0
H1104 H 0.93442 0.49076 0.65156 0.0
C1105 C 0.85636 0.49952 0.49214 0.0
C1106 C 0.84745 0.51098 0.4312 0.0
C1107 C 0.8609 0.52733 0.39723 0.0
C1108 C 0.88237 0.53214 0.42229 0.0
C1109 C 0.89057 0.52047 0.48152 0.0
C1110 C 0.87807 0.50448 0.51624 0.0
C1111 C 0.89152 0.49378 0.57696 0.0
C1112 C 0.88063 0.49809 0.65073 0.0
C1113 C 0.89451 0.46882 0.56367 0.0
C1114 C 0.91357 0.50609 0.57004 0.0
C1115 C 0.91243 0.52147 0.51469 0.0
C1116 C 0.93062 0.53452 0.49579 0.0
C1117 C 0.95056 0.53172 0.53369 0.0
C1118 C 0.9525 0.51596 0.59038 0.0
C1119 C 0.93354 0.50311 0.60922 0.0
loop_
_geom_bond_atom_site_label_1
_geom_bond_atom_site_label_2
_geom_bond_distance
_geom_bond_site_symmetry_2
_ccdc_geom_bond_type
C0 C1 1.386 . S
C0 C2 1.397 . S
C0 H24 0.931 . S
C1 C0 1.386 . S
C1 C5 1.397 . S
C2 C0 1.397 . S
C2 C3 1.384 . S
C2 H25 0.930 . S
C3 C2 1.384 . S
C3 C4 1.377 . S
C3 C6 1.481 . S
C4 C3 1.377 . S
C4 C5 1.389 . S
C4 H26 0.929 . S
C5 C1 1.397 . S
C5 C4 1.389 . S
C5 H27 0.931 . S
C6 C3 1.481 . S
C6 C7 1.387 . S
C6 C11 1.390 . S
C7 C6 1.387 . S
C7 C8 1.401 . S
C7 H28 0.930 . S
C8 C7 1.401 . S
C8 C9 1.376 . S
C8 C17 1.511 . S
C9 C8 1.376 . S
C9 C10 1.392 . S
C9 H30 0.931 . S
C10 C9 1.392 . S
C10 C11 1.361 . S
C10 C12 1.500 . S
C11 C6 1.390 . S
C11 C10 1.361 . S
C11 H29 0.931 . S
C12 C10 1.500 . S
C12 C13 1.371 . S
C12 C14 1.365 . S
C13 C12 1.371 . S
C13 C23 1.386 . S
C13 H31 0.931 . S
C14 C12 1.365 . S
C14 C15 1.409 . S
C14 H32 0.929 . S
C15 C14 1.409 . S
C15 C16 1.380 . S
C15 H33 0.930 . S
C16 C15 1.380 . S
C16 C23 1.357 . S
C17 C8 1.511 . S
C17 C18 1.341 . S
C17 C19 1.371 . S
C18 C17 1.341 . S
C18 C22 1.394 . S
C18 H34 0.930 . S
C19 C17 1.371 . S
C19 C20 1.392 . S
C19 H35 0.931 . S
C20 C19 1.392 . S
C20 C21 1.331 . S
C20 H38 0.932 . S
C21 C20 1.331 . S
C21 C22 1.336 . S
C22 C18 1.394 . S
C22 C21 1.336 . S
C22 H37 0.929 . S
C23 C13 1.386 . S
C23 C16 1.357 . S
C23 H36 0.928 . S
H24 C0 0.931 . S
H25 C2 0.930 . S
H26 C4 0.929 . S
H27 C5 0.931 . S
H28 C7 0.930 . S
H29 C11 0.931 . S
H30 C9 0.931 . S
H31 C13 0.931 . S
H32 C14 0.929 . S
H33 C15 0.930 . S
H34 C18 0.930 . S
H35 C19 0.931 . S
H36 C23 0.928 . S
H37 C22 0.929 . S
H38 C20 0.932 . S
C39 C40 1.394 . S
C39 C41 1.397 . S
C39 H63 0.931 . S
C40 C39 1.394 . S
C40 C44 1.389 1_655 S
C41 C39 1.397 . S
C41 C42 1.389 . S
C41 H64 0.930 . S
C42 C41 1.389 . S
C42 C43 1.373 1_655 S
C42 C45 1.480 . S
C43 C42 1.373 1_455 S
C43 C44 1.389 . S
C43 H65 0.929 . S
C44 C40 1.389 1_455 S
C44 C43 1.389 . S
C44 H66 0.931 . S
C45 C42 1.480 . S
C45 C46 1.388 . S
C45 C50 1.390 . S
C46 C45 1.388 . S
C46 C47 1.402 . S
C46 H67 0.930 . S
C47 C46 1.402 . S
C47 C48 1.376 . S
C47 C56 1.513 . S
C48 C47 1.376 . S
C48 C49 1.392 . S
C48 H69 0.934 . S
C49 C48 1.392 . S
C49 C50 1.361 . S
C49 C51 1.499 1_655 S
C50 C45 1.390 . S
C50 C49 1.361 . S
C50 H68 0.931 . S
C51 C49 1.499 1_455 S
C51 C52 1.362 1_455 S
C51 C53 1.374 . S
C52 C51 1.362 1_655 S
C52 C62 1.386 . S
C52 H70 0.931 . S
C53 C51 1.374 . S
C53 C54 1.409 . S
C53 H71 0.929 . S
C54 C53 1.409 . S
C54 C55 1.379 . S
C54 H72 0.930 . S
C55 C54 1.379 . S
C55 C62 1.359 1_455 S
C56 C47 1.513 . S
C56 C57 1.341 . S
C56 C58 1.371 1_655 S
C57 C56 1.341 . S
C57 C61 1.394 . S
C57 H73 0.930 . S
C58 C56 1.371 1_455 S
C58 C59 1.392 . S
C58 H74 0.931 . S
C59 C58 1.392 . S
C59 C60 1.322 1_455 S
C59 H77 0.932 . S
C60 C59 1.322 1_655 S
C60 C61 1.345 . S
C61 C57 1.394 . S
C61 C60 1.345 . S
C61 H76 0.929 . S
C62 C52 1.386 . S
C62 C55 1.359 1_655 S
C62 H75 0.928 . S
H63 C39 0.931 . S
H64 C41 0.930 . S
H65 C43 0.929 . S
H66 C44 0.931 . S
H67 C46 0.930 . S
H68 C50 0.931 . S
H69 C48 0.934 . S
H70 C52 0.931 . S
H71 C53 0.929 . S
H72 C54 0.930 . S
H73 C57 0.930 . S
H74 C58 0.931 . S
H75 C62 0.928 . S
H76 C61 0.929 . S
H77 C59 0.932 . S
C78 C79 1.394 . S
C78 C80 1.397 . S
C78 H102 0.931 . S
C79 C78 1.394 . S
C79 C83 1.389 1_565 S
C80 C78 1.397 . S
C80 C81 1.389 . S
C80 H103 0.930 . S
C81 C80 1.389 . S
C81 C82 1.373 1_565 S
C81 C84 1.480 . S
C82 C81 1.373 1_545 S
C82 C83 1.389 . S
C82 H104 0.929 . S
C83 C79 1.389 1_545 S
C83 C82 1.389 . S
C83 H105 0.931 . S
C84 C81 1.480 . S
C84 C85 1.388 . S
C84 C89 1.390 . S
C85 C84 1.388 . S
C85 C86 1.402 . S
C85 H106 0.930 . S
C86 C85 1.402 . S
C86 C87 1.376 . S
C86 C95 1.513 . S
C87 C86 1.376 . S
C87 C88 1.392 . S
C87 H108 0.934 . S
C88 C87 1.392 . S
C88 C89 1.361 . S
C88 C90 1.499 1_565 S
C89 C84 1.390 . S
C89 C88 1.361 . S
C89 H107 0.931 . S
C90 C88 1.499 1_545 S
C90 C91 1.362 1_545 S
C90 C92 1.374 . S
C91 C90 1.362 1_565 S
C91 C101 1.386 . S
C91 H109 0.931 . S
C92 C90 1.374 . S
C92 C93 1.409 . S
C92 H110 0.929 . S
C93 C92 1.409 . S
C93 C94 1.379 . S
C93 H111 0.930 . S
C94 C93 1.379 . S
C94 C101 1.359 1_545 S
C95 C86 1.513 . S
C95 C96 1.341 . S
C95 C97 1.371 1_565 S
C96 C95 1.341 . S
C96 C100 1.394 . S
C96 H112 0.930 . S
C97 C95 1.371 1_545 S
C97 C98 1.392 . S
C97 H113 0.931 . S
C98 C97 1.392 . S
C98 C99 1.322 1_545 S
C98 H116 0.932 . S
C99 C98 1.322 1_565 S
C99 C100 1.345 . S
C100 C96 1.394 . S
C100 C99 1.345 . S
C100 H115 0.929 . S
C101 C91 1.386 . S
C101 C94 1.359 1_565 S
C101 H114 0.928 . S
H102 C78 0.931 . S
H103 C80 0.930 . S
H104 C82 0.929 . S
H105 C83 0.931 . S
H106 C85 0.930 . S
H107 C89 0.931 . S
H108 C87 0.934 . S
H109 C91 0.931 . S
H110 C92 0.929 . S
H111 C93 0.930 . S
H112 C96 0.930 . S
H113 C97 0.931 . S
H114 C101 0.928 . S
H115 C100 0.929 . S
H116 C98 0.932 . S
C117 C118 1.386 . S
C117 C119 1.397 . S
C117 H141 0.931 . S
C118 C117 1.386 . S
C118 C122 1.397 . S
C119 C117 1.397 . S
C119 C120 1.384 . S
C119 H142 0.930 . S
C120 C119 1.384 . S
C120 C121 1.377 . S
C120 C123 1.481 . S
C121 C120 1.377 . S
C121 C122 1.389 . S
C121 H143 0.929 . S
C122 C118 1.397 . S
C122 C121 1.389 . S
C122 H144 0.931 . S
C123 C120 1.481 . S
C123 C124 1.387 . S
C123 C128 1.390 . S
C124 C123 1.387 . S
C124 C125 1.401 . S
C124 H145 0.930 . S
C125 C124 1.401 . S
C125 C126 1.376 . S
C125 C134 1.511 . S
C126 C125 1.376 . S
C126 C127 1.392 . S
C126 H147 0.931 . S
C127 C126 1.392 . S
C127 C128 1.361 . S
C127 C129 1.500 . S
C128 C123 1.390 . S
C128 C127 1.361 . S
C128 H146 0.931 . S
C129 C127 1.500 . S
C129 C130 1.371 . S
C129 C131 1.365 . S
C130 C129 1.371 . S
C130 C140 1.386 . S
C130 H148 0.931 . S
C131 C129 1.365 . S
C131 C132 1.409 . S
C131 H149 0.929 . S
C132 C131 1.409 . S
C132 C133 1.380 . S
C132 H150 0.930 . S
C133 C132 1.380 . S
C133 C140 1.357 . S
C134 C125 1.511 . S
C134 C135 1.341 . S
C134 C136 1.371 . S
C135 C134 1.341 . S
C135 C139 1.394 . S
C135 H151 0.930 . S
C136 C134 1.371 . S
C136 C137 1.392 . S
C136 H152 0.931 . S
C137 C136 1.392 . S
C137 C138 1.331 . S
C137 H155 0.932 . S
C138 C137 1.331 . S
C138 C139 1.336 . S
C139 C135 1.394 . S
C139 C138 1.336 . S
C139 H154 0.929 . S
C140 C130 1.386 . S
C140 C133 1.357 . S
C140 H153 0.928 . S
H141 C117 0.931 . S
H142 C119 0.930 . S
H143 C121 0.929 . S
H144 C122 0.931 . S
H145 C124 0.930 . S
H146 C128 0.931 . S
H147 C126 0.931 . S
H148 C130 0.931 . S
H149 C131 0.929 . S
H150 C132 0.930 . S
H151 C135 0.930 . S
H152 C136 0.931 . S
H153 C140 0.928 . S
H154 C139 0.929 . S
H155 C137 0.932 . S
C156 C157 1.386 . S
C156 C158 1.397 . S
C156 H180 0.931 . S
C157 C156 1.386 . S
C157 C161 1.397 . S
C158 C156 1.397 . S
C158 C159 1.384 . S
C158 H181 0.930 . S
C159 C158 1.384 . S
C159 C160 1.377 . S
C159 C162 1.481 . S
C160 C159 1.377 . S
C160 C161 1.389 . S
C160 H182 0.929 . S
C161 C157 1.397 . S
C161 C160 1.389 . S
C161 H183 0.931 . S
C162 C159 1.481 . S
C162 C163 1.387 . S
C162 C167 1.390 . S
C163 C162 1.387 . S
C163 C164 1.401 . S
C163 H184 0.930 . S
C164 C163 1.401 . S
C164 C165 1.376 1_554 S
C164 C173 1.511 . S
C165 C164 1.376 1_556 S
C165 C166 1.392 . S
C165 H186 0.931 . S
C166 C165 1.392 . S
C166 C167 1.361 1_556 S
C166 C168 1.500 . S
C167 C162 1.390 . S
C167 C166 1.361 1_554 S
C167 H185 0.931 . S
C168 C166 1.500 . S
C168 C169 1.371 . S
C168 C170 1.365 . S
C169 C168 1.371 . S
C169 C179 1.386 . S
C169 H187 0.931 . S
C170 C168 1.365 . S
C170 C171 1.409 . S
C170 H188 0.929 . S
C171 C170 1.409 . S
C171 C172 1.380 . S
C171 H189 0.930 . S
C172 C171 1.380 . S
C172 C179 1.357 . S
C173 C164 1.511 . S
C173 C174 1.341 . S
C173 C175 1.371 . S
C174 C173 1.341 . S
C174 C178 1.394 . S
C174 H190 0.930 . S
C175 C173 1.371 . S
C175 C176 1.392 . S
C175 H191 0.931 1_554 S
C176 C175 1.392 . S
C176 C177 1.331 . S
C176 H194 0.932 . S
C177 C176 1.331 . S
C177 C178 1.336 . S
C178 C174 1.394 . S
C178 C177 1.336 . S
C178 H193 0.929 . S
C179 C169 1.386 . S
C179 C172 1.357 . S
C179 H192 0.928 . S
H180 C156 0.931 . S
H181 C158 0.930 . S
H182 C160 0.929 . S
H183 C161 0.931 . S
H184 C163 0.930 . S
H185 C167 0.931 . S
H186 C165 0.931 . S
H187 C169 0.931 . S
H188 C170 0.929 . S
H189 C171 0.930 . S
H190 C174 0.930 . S
H191 C175 0.931 1_556 S
H192 C179 0.928 . S
H193 C178 0.929 . S
H194 C176 0.932 . S
C195 C196 1.387 . S
C195 C197 1.397 . S
C195 H219 0.931 . S
C196 C195 1.387 . S
C196 C200 1.396 1_655 S
C197 C195 1.397 . S
C197 C198 1.381 . S
C197 H220 0.930 . S
C198 C197 1.381 . S
C198 C199 1.380 1_655 S
C198 C201 1.480 . S
C199 C198 1.380 1_455 S
C199 C200 1.389 . S
C199 H221 0.929 . S
C200 C196 1.396 1_455 S
C200 C199 1.389 . S
C200 H222 0.931 . S
C201 C198 1.480 . S
C201 C202 1.388 . S
C201 C206 1.390 . S
C202 C201 1.388 . S
C202 C203 1.402 . S
C202 H223 0.930 . S
C203 C202 1.402 . S
C203 C204 1.376 1_554 S
C203 C212 1.512 . S
C204 C203 1.376 1_556 S
C204 C205 1.392 1_655 S
C204 H225 0.933 . S
C205 C204 1.392 1_455 S
C205 C206 1.361 1_456 S
C205 C207 1.499 . S
C206 C201 1.390 . S
C206 C205 1.361 1_654 S
C206 H224 0.931 . S
C207 C205 1.499 . S
C207 C208 1.357 1_455 S
C207 C209 1.380 . S
C208 C207 1.357 1_655 S
C208 C218 1.386 . S
C208 H226 0.931 . S
C209 C207 1.380 . S
C209 C210 1.409 . S
C209 H227 0.929 . S
C210 C209 1.409 . S
C210 C211 1.384 . S
C210 H228 0.930 . S
C211 C210 1.384 . S
C211 C218 1.353 1_455 S
C212 C203 1.512 . S
C212 C213 1.341 . S
C212 C214 1.371 1_655 S
C213 C212 1.341 . S
C213 C217 1.394 . S
C213 H229 0.930 . S
C214 C212 1.371 1_455 S
C214 C215 1.392 . S
C214 H230 0.931 1_554 S
C215 C214 1.392 . S
C215 C216 1.326 1_455 S
C215 H233 0.932 . S
C216 C215 1.326 1_655 S
C216 C217 1.341 . S
C217 C213 1.394 . S
C217 C216 1.341 . S
C217 H232 0.929 . S
C218 C208 1.386 . S
C218 C211 1.353 1_655 S
C218 H231 0.928 . S
H219 C195 0.931 . S
H220 C197 0.930 . S
H221 C199 0.929 . S
H222 C200 0.931 . S
H223 C202 0.930 . S
H224 C206 0.931 . S
H225 C204 0.933 . S
H226 C208 0.931 . S
H227 C209 0.929 . S
H228 C210 0.930 . S
H229 C213 0.930 . S
H230 C214 0.931 1_556 S
H231 C218 0.928 . S
H232 C217 0.929 . S
H233 C215 0.932 . S
C234 C235 1.387 . S
C234 C236 1.397 . S
C234 H258 0.931 . S
C235 C234 1.387 . S
C235 C239 1.396 1_565 S
C236 C234 1.397 . S
C236 C237 1.381 . S
C236 H259 0.930 . S
C237 C236 1.381 . S
C237 C238 1.380 1_565 S
C237 C240 1.480 . S
C238 C237 1.380 1_545 S
C238 C239 1.389 . S
C238 H260 0.929 . S
C239 C235 1.396 1_545 S
C239 C238 1.389 . S
C239 H261 0.931 . S
C240 C237 1.480 . S
C240 C241 1.388 . S
C240 C245 1.390 . S
C241 C240 1.388 . S
C241 C242 1.402 . S
C241 H262 0.930 . S
C242 C241 1.402 . S
C242 C243 1.376 1_554 S
C242 C251 1.512 . S
C243 C242 1.376 1_556 S
C243 C244 1.392 1_565 S
C243 H264 0.933 . S
C244 C243 1.392 1_545 S
C244 C245 1.361 1_546 S
C244 C246 1.499 . S
C245 C240 1.390 . S
C245 C244 1.361 1_564 S
C245 H263 0.931 . S
C246 C244 1.499 . S
C246 C247 1.357 1_545 S
C246 C248 1.380 . S
C247 C246 1.357 1_565 S
C247 C257 1.386 . S
C247 H265 0.931 . S
C248 C246 1.380 . S
C248 C249 1.409 . S
C248 H266 0.929 . S
C249 C248 1.409 . S
C249 C250 1.384 . S
C249 H267 0.930 . S
C250 C249 1.384 . S
C250 C257 1.353 1_545 S
C251 C242 1.512 . S
C251 C252 1.341 . S
C251 C253 1.371 1_565 S
C252 C251 1.341 . S
C252 C256 1.394 . S
C252 H268 0.930 . S
C253 C251 1.371 1_545 S
C253 C254 1.392 . S
C253 H269 0.931 1_554 S
C254 C253 1.392 . S
C254 C255 1.326 1_545 S
C254 H272 0.932 . S
C255 C254 1.326 1_565 S
C255 C256 1.341 . S
C256 C252 1.394 . S
C256 C255 1.341 . S
C256 H271 0.929 . S
C257 C247 1.386 . S
C257 C250 1.353 1_565 S
C257 H270 0.928 . S
H258 C234 0.931 . S
H259 C236 0.930 . S
H260 C238 0.929 . S
H261 C239 0.931 . S
H262 C241 0.930 . S
H263 C245 0.931 . S
H264 C243 0.933 . S
H265 C247 0.931 . S
H266 C248 0.929 . S
H267 C249 0.930 . S
H268 C252 0.930 . S
H269 C253 0.931 1_556 S
H270 C257 0.928 . S
H271 C256 0.929 . S
H272 C254 0.932 . S
C273 C274 1.386 . S
C273 C275 1.397 . S
C273 H297 0.931 . S
C274 C273 1.386 . S
C274 C278 1.397 . S
C275 C273 1.397 . S
C275 C276 1.384 . S
C275 H298 0.930 . S
C276 C275 1.384 . S
C276 C277 1.377 . S
C276 C279 1.481 . S
C277 C276 1.377 . S
C277 C278 1.389 . S
C277 H299 0.929 . S
C278 C274 1.397 . S
C278 C277 1.389 . S
C278 H300 0.931 . S
C279 C276 1.481 . S
C279 C280 1.387 . S
C279 C284 1.390 1_556 S
C280 C279 1.387 . S
C280 C281 1.401 1_556 S
C280 H301 0.930 . S
C281 C280 1.401 1_554 S
C281 C282 1.376 . S
C281 C290 1.511 . S
C282 C281 1.376 . S
C282 C283 1.392 . S
C282 H303 0.931 . S
C283 C282 1.392 . S
C283 C284 1.361 . S
C283 C285 1.500 . S
C284 C279 1.390 1_554 S
C284 C283 1.361 . S
C284 H302 0.931 . S
C285 C283 1.500 . S
C285 C286 1.371 . S
C285 C287 1.365 . S
C286 C285 1.371 . S
C286 C296 1.386 . S
C286 H304 0.931 . S
C287 C285 1.365 . S
C287 C288 1.409 . S
C287 H305 0.929 . S
C288 C287 1.409 . S
C288 C289 1.380 . S
C288 H306 0.930 . S
C289 C288 1.380 . S
C289 C296 1.357 . S
C290 C281 1.511 . S
C290 C291 1.341 . S
C290 C292 1.371 . S
C291 C290 1.341 . S
C291 C295 1.394 . S
C291 H307 0.930 1_554 S
C292 C290 1.371 . S
C292 C293 1.392 . S
C292 H308 0.931 . S
C293 C292 1.392 . S
C293 C294 1.331 . S
C293 H311 0.932 . S
C294 C293 1.331 . S
C294 C295 1.336 . S
C295 C291 1.394 . S
C295 C294 1.336 . S
C295 H310 0.929 . S
C296 C286 1.386 . S
C296 C289 1.357 . S
C296 H309 0.928 . S
H297 C273 0.931 . S
H298 C275 0.930 . S
H299 C277 0.929 . S
H300 C278 0.931 . S
H301 C280 0.930 . S
H302 C284 0.931 . S
H303 C282 0.931 . S
H304 C286 0.931 . S
H305 C287 0.929 . S
H306 C288 0.930 . S
H307 C291 0.930 1_556 S
H308 C292 0.931 . S
H309 C296 0.928 . S
H310 C295 0.929 . S
H311 C293 0.932 . S
La312 C314 2.928 . S
La312 O332 2.521 . S
La312 O333 2.628 . S
La312 O334 2.554 . S
La312 O335 2.757 1_565 S
La312 O336 2.470 . S
La312 O341 2.482 1_455 S
La312 O343 2.503 1_565 S
La313 C323 2.928 . S
La313 O335 2.482 1_655 S
La313 O337 2.503 1_545 S
La313 O338 2.521 . S
La313 O339 2.628 . S
La313 O340 2.554 . S
La313 O341 2.757 1_545 S
La313 O342 2.470 . S
C314 La312 2.928 . S
C314 C315 1.503 . S
C314 O332 1.261 . S
C314 O333 1.243 . S
C315 C314 1.503 . S
C315 C316 1.394 . S
C315 C320 1.373 . S
C316 C315 1.394 . S
C316 C317 1.380 . S
C316 H344 0.930 . S
C317 C316 1.380 . S
C317 C318 1.376 . S
C317 H345 0.930 . S
C318 C317 1.376 . S
C318 C319 1.370 . S
C319 C318 1.370 . S
C319 C320 1.396 . S
C319 H346 0.930 1_455 S
C320 C315 1.373 . S
C320 C319 1.396 . S
C320 H347 0.929 1_455 S
C321 O334 1.269 . S
C321 O335 1.272 1_565 S
C322 O336 1.258 1_655 S
C322 O337 1.256 . S
C323 La313 2.928 . S
C323 C324 1.503 . S
C323 O338 1.261 . S
C323 O339 1.243 . S
C324 C323 1.503 . S
C324 C325 1.394 . S
C324 C329 1.373 . S
C325 C324 1.394 . S
C325 C326 1.380 . S
C325 H348 0.930 . S
C326 C325 1.380 . S
C326 C327 1.376 . S
C326 H349 0.930 . S
C327 C326 1.376 . S
C327 C328 1.370 . S
C328 C327 1.370 . S
C328 C329 1.396 . S
C328 H350 0.921 1_655 S
C329 C324 1.373 . S
C329 C328 1.396 . S
C329 H351 0.929 1_655 S
C330 O340 1.240 . S
C330 O341 1.289 1_545 S
C331 O342 1.258 1_455 S
C331 O343 1.256 . S
O332 La312 2.521 . S
O332 C314 1.261 . S
O333 La312 2.628 . S
O333 C314 1.243 . S
O334 La312 2.554 . S
O334 C321 1.269 . S
O335 La312 2.757 1_545 S
O335 La313 2.482 1_455 S
O335 C321 1.272 1_545 S
O336 La312 2.470 . S
O336 C322 1.258 1_455 S
O337 La313 2.503 1_565 S
O337 C322 1.256 . S
O338 La313 2.521 . S
O338 C323 1.261 . S
O339 La313 2.628 . S
O339 C323 1.243 . S
O340 La313 2.554 . S
O340 C330 1.240 . S
O341 La312 2.482 1_655 S
O341 La313 2.757 1_565 S
O341 C330 1.289 1_565 S
O342 La313 2.470 . S
O342 C331 1.258 1_655 S
O343 La312 2.503 1_545 S
O343 C331 1.256 . S
H344 C316 0.930 . S
H345 C317 0.930 . S
H346 C319 0.930 1_655 S
H347 C320 0.929 1_655 S
H348 C325 0.930 . S
H349 C326 0.930 . S
H350 C328 0.921 1_455 S
H351 C329 0.929 1_455 S
La352 C354 2.928 . S
La352 O372 2.521 . S
La352 O373 2.628 . S
La352 O374 2.554 . S
La352 O375 2.757 . S
La352 O376 2.470 . S
La352 O381 2.482 1_545 S
La352 O383 2.503 . S
La353 C363 2.928 . S
La353 O375 2.482 1_565 S
La353 O377 2.503 . S
La353 O378 2.521 . S
La353 O379 2.628 . S
La353 O380 2.554 . S
La353 O381 2.757 . S
La353 O382 2.470 . S
C354 La352 2.928 . S
C354 C355 1.503 . S
C354 O372 1.261 . S
C354 O373 1.243 . S
C355 C354 1.503 . S
C355 C356 1.394 . S
C355 C360 1.373 . S
C356 C355 1.394 . S
C356 C357 1.380 . S
C356 H384 0.930 . S
C357 C356 1.380 . S
C357 C358 1.376 . S
C357 H385 0.930 . S
C358 C357 1.376 . S
C358 C359 1.370 . S
C359 C358 1.370 . S
C359 C360 1.396 . S
C359 H386 0.910 1_545 S
C360 C355 1.373 . S
C360 C359 1.396 . S
C360 H387 0.929 1_545 S
C361 O374 1.240 . S
C361 O375 1.289 . S
C362 O376 1.258 1_565 S
C362 O377 1.256 . S
C363 La353 2.928 . S
C363 C364 1.503 . S
C363 O378 1.261 . S
C363 O379 1.243 . S
C364 C363 1.503 . S
C364 C365 1.394 . S
C364 C369 1.373 . S
C365 C364 1.394 . S
C365 C366 1.380 . S
C365 H388 0.930 . S
C366 C365 1.380 . S
C366 C367 1.376 . S
C366 H389 0.930 . S
C367 C366 1.376 . S
C367 C368 1.370 . S
C368 C367 1.370 . S
C368 C369 1.396 . S
C368 H390 0.900 1_565 S
C369 C364 1.373 . S
C369 C368 1.396 . S
C369 H391 0.929 1_565 S
C370 O380 1.240 . S
C370 O381 1.289 . S
C371 O382 1.258 1_545 S
C371 O383 1.256 . S
O372 La352 2.521 . S
O372 C354 1.261 . S
O373 La352 2.628 . S
O373 C354 1.243 . S
O374 La352 2.554 . S
O374 C361 1.240 . S
O375 La352 2.757 . S
O375 La353 2.482 1_545 S
O375 C361 1.289 . S
O376 La352 2.470 . S
O376 C362 1.258 1_545 S
O377 La353 2.503 . S
O377 C362 1.256 . S
O378 La353 2.521 . S
O378 C363 1.261 . S
O379 La353 2.628 . S
O379 C363 1.243 . S
O380 La353 2.554 . S
O380 C370 1.240 . S
O381 La352 2.482 1_565 S
O381 La353 2.757 . S
O381 C370 1.289 . S
O382 La353 2.470 . S
O382 C371 1.258 1_565 S
O383 La352 2.503 . S
O383 C371 1.256 . S
H384 C356 0.930 . S
H385 C357 0.930 . S
H386 C359 0.910 1_565 S
H387 C360 0.929 1_565 S
H388 C365 0.930 . S
H389 C366 0.930 . S
H390 C368 0.900 1_545 S
H391 C369 0.929 1_545 S
La392 C394 2.928 . S
La392 O412 2.521 . S
La392 O413 2.628 . S
La392 O414 2.554 . S
La392 O415 2.757 . S
La392 O416 2.470 . S
La392 O421 2.482 . S
La392 O423 2.503 . S
La393 C403 2.928 . S
La393 O415 2.482 . S
La393 O417 2.503 . S
La393 O418 2.521 . S
La393 O419 2.628 . S
La393 O420 2.554 . S
La393 O421 2.757 . S
La393 O422 2.470 . S
C394 La392 2.928 . S
C394 C395 1.503 . S
C394 O412 1.261 . S
C394 O413 1.243 . S
C395 C394 1.503 . S
C395 C396 1.394 . S
C395 C400 1.373 . S
C396 C395 1.394 . S
C396 C397 1.380 . S
C396 H424 0.930 . S
C397 C396 1.380 . S
C397 C398 1.376 . S
C397 H425 0.930 . S
C398 C397 1.376 . S
C398 C399 1.370 . S
C399 C398 1.370 . S
C399 C400 1.396 . S
C399 H426 0.929 . S
C400 C395 1.373 . S
C400 C399 1.396 . S
C400 H427 0.929 . S
C401 O414 1.240 . S
C401 O415 1.289 . S
C402 O416 1.258 . S
C402 O417 1.256 . S
C403 La393 2.928 . S
C403 C404 1.503 . S
C403 O418 1.261 . S
C403 O419 1.243 . S
C404 C403 1.503 . S
C404 C405 1.394 . S
C404 C409 1.373 . S
C405 C404 1.394 . S
C405 C406 1.380 . S
C405 H428 0.930 . S
C406 C405 1.380 . S
C406 C407 1.376 . S
C406 H429 0.930 . S
C407 C406 1.376 . S
C407 C408 1.370 . S
C408 C407 1.370 . S
C408 C409 1.396 . S
C408 H430 0.929 . S
C409 C404 1.373 . S
C409 C408 1.396 . S
C409 H431 0.929 . S
C410 O420 1.240 . S
C410 O421 1.289 . S
C411 O422 1.258 . S
C411 O423 1.256 . S
O412 La392 2.521 . S
O412 C394 1.261 . S
O413 La392 2.628 . S
O413 C394 1.243 . S
O414 La392 2.554 . S
O414 C401 1.240 . S
O415 La392 2.757 . S
O415 La393 2.482 . S
O415 C401 1.289 . S
O416 La392 2.470 . S
O416 C402 1.258 . S
O417 La393 2.503 . S
O417 C402 1.256 . S
O418 La393 2.521 . S
O418 C403 1.261 . S
O419 La393 2.628 . S
O419 C403 1.243 . S
O420 La393 2.554 . S
O420 C410 1.240 . S
O421 La392 2.482 . S
O421 La393 2.757 . S
O421 C410 1.289 . S
O422 La393 2.470 . S
O422 C411 1.258 . S
O423 La392 2.503 . S
O423 C411 1.256 . S
H424 C396 0.930 . S
H425 C397 0.930 . S
H426 C399 0.929 . S
H427 C400 0.929 . S
H428 C405 0.930 . S
H429 C406 0.930 . S
H430 C408 0.929 . S
H431 C409 0.929 . S
La432 C434 2.928 . S
La432 O452 2.521 . S
La432 O453 2.628 . S
La432 O454 2.554 . S
La432 O455 2.757 1_655 S
La432 O456 2.470 . S
La432 O461 2.482 . S
La432 O463 2.503 1_655 S
La433 C443 2.928 . S
La433 O455 2.482 . S
La433 O457 2.503 1_455 S
La433 O458 2.521 . S
La433 O459 2.628 . S
La433 O460 2.554 . S
La433 O461 2.757 1_455 S
La433 O462 2.470 . S
C434 La432 2.928 . S
C434 C435 1.503 . S
C434 O452 1.261 . S
C434 O453 1.243 . S
C435 C434 1.503 . S
C435 C436 1.394 . S
C435 C440 1.373 . S
C436 C435 1.394 . S
C436 C437 1.380 . S
C436 H464 0.930 . S
C437 C436 1.380 . S
C437 C438 1.376 . S
C437 H465 0.930 . S
C438 C437 1.376 . S
C438 C439 1.370 . S
C439 C438 1.370 . S
C439 C440 1.396 . S
C439 H466 0.929 . S
C440 C435 1.373 . S
C440 C439 1.396 . S
C440 H467 0.929 . S
C441 O454 1.257 . S
C441 O455 1.279 1_655 S
C442 O456 1.258 . S
C442 O457 1.256 . S
C443 La433 2.928 . S
C443 C444 1.503 . S
C443 O458 1.261 . S
C443 O459 1.243 . S
C444 C443 1.503 . S
C444 C445 1.394 . S
C444 C449 1.373 . S
C445 C444 1.394 . S
C445 C446 1.380 . S
C445 H468 0.930 . S
C446 C445 1.380 . S
C446 C447 1.376 . S
C446 H469 0.930 . S
C447 C446 1.376 . S
C447 C448 1.370 . S
C448 C447 1.370 . S
C448 C449 1.396 . S
C448 H470 0.929 . S
C449 C444 1.373 . S
C449 C448 1.396 . S
C449 H471 0.929 . S
C450 O460 1.264 . S
C450 O461 1.275 1_455 S
C451 O462 1.258 . S
C451 O463 1.256 . S
O452 La432 2.521 . S
O452 C434 1.261 . S
O453 La432 2.628 . S
O453 C434 1.243 . S
O454 La432 2.554 . S
O454 C441 1.257 . S
O455 La432 2.757 1_455 S
O455 La433 2.482 . S
O455 C441 1.279 1_455 S
O456 La432 2.470 . S
O456 C442 1.258 . S
O457 La433 2.503 1_655 S
O457 C442 1.256 . S
O458 La433 2.521 . S
O458 C443 1.261 . S
O459 La433 2.628 . S
O459 C443 1.243 . S
O460 La433 2.554 . S
O460 C450 1.264 . S
O461 La432 2.482 . S
O461 La433 2.757 1_655 S
O461 C450 1.275 1_655 S
O462 La433 2.470 . S
O462 C451 1.258 . S
O463 La432 2.503 1_455 S
O463 C451 1.256 . S
H464 C436 0.930 . S
H465 C437 0.930 . S
H466 C439 0.929 . S
H467 C440 0.929 . S
H468 C445 0.930 . S
H469 C446 0.930 . S
H470 C448 0.929 . S
H471 C449 0.929 . S
H472 C484 0.930 . S
H473 C486 0.930 . S
H474 C487 0.930 . S
H475 C491 0.959 . S
H476 C491 0.959 . S
H477 C491 0.961 . S
H478 C492 0.960 . S
H479 C492 0.961 . S
H480 C492 0.959 . S
H481 C495 0.929 . S
H482 C496 0.931 . S
H483 C498 0.930 . S
C484 H472 0.930 . S
C484 C485 1.399 1_565 S
C484 C489 1.399 . S
C485 C484 1.399 1_545 S
C485 C486 1.376 . S
C486 H473 0.930 . S
C486 C485 1.376 . S
C486 C487 1.388 . S
C487 H474 0.930 . S
C487 C486 1.388 . S
C487 C488 1.390 . S
C488 C487 1.390 . S
C488 C489 1.394 1_545 S
C488 C494 1.465 . S
C489 C484 1.399 . S
C489 C488 1.394 1_565 S
C489 C490 1.516 . S
C490 C489 1.516 . S
C490 C491 1.502 . S
C490 C492 1.561 . S
C490 C493 1.526 . S
C491 H475 0.959 . S
C491 H476 0.959 . S
C491 H477 0.961 . S
C491 C490 1.502 . S
C492 H478 0.960 . S
C492 H479 0.961 . S
C492 H480 0.959 . S
C492 C490 1.561 . S
C493 C490 1.526 . S
C493 C494 1.396 1_565 S
C493 C498 1.390 . S
C494 C488 1.465 . S
C494 C493 1.396 1_545 S
C494 C495 1.399 . S
C495 H481 0.929 . S
C495 C494 1.399 . S
C495 C496 1.385 . S
C496 H482 0.931 . S
C496 C495 1.385 . S
C496 C497 1.389 . S
C497 C496 1.389 . S
C497 C498 1.387 1_545 S
C498 H483 0.930 . S
C498 C493 1.390 . S
C498 C497 1.387 1_565 S
H499 C511 0.930 . S
H500 C513 0.930 . S
H501 C514 0.930 . S
H502 C518 0.959 . S
H503 C518 0.959 . S
H504 C518 0.961 . S
H505 C519 0.960 . S
H506 C519 0.961 . S
H507 C519 0.959 . S
H508 C522 0.929 . S
H509 C523 0.931 . S
H510 C525 0.930 . S
C511 H499 0.930 . S
C511 C512 1.399 . S
C511 C516 1.399 . S
C512 C511 1.399 . S
C512 C513 1.376 . S
C513 H500 0.930 . S
C513 C512 1.376 . S
C513 C514 1.388 . S
C514 H501 0.930 . S
C514 C513 1.388 . S
C514 C515 1.390 . S
C515 C514 1.390 . S
C515 C516 1.394 . S
C515 C521 1.465 . S
C516 C511 1.399 . S
C516 C515 1.394 . S
C516 C517 1.516 . S
C517 C516 1.516 . S
C517 C518 1.502 . S
C517 C519 1.561 . S
C517 C520 1.526 . S
C518 H502 0.959 . S
C518 H503 0.959 . S
C518 H504 0.961 . S
C518 C517 1.502 . S
C519 H505 0.960 . S
C519 H506 0.961 . S
C519 H507 0.959 . S
C519 C517 1.561 . S
C520 C517 1.526 . S
C520 C521 1.396 . S
C520 C525 1.390 . S
C521 C515 1.465 . S
C521 C520 1.396 . S
C521 C522 1.399 . S
C522 H508 0.929 . S
C522 C521 1.399 . S
C522 C523 1.385 . S
C523 H509 0.931 . S
C523 C522 1.385 . S
C523 C524 1.389 . S
C524 C523 1.389 . S
C524 C525 1.387 . S
C525 H510 0.930 . S
C525 C520 1.390 . S
C525 C524 1.387 . S
H526 C538 0.930 . S
H527 C540 0.930 . S
H528 C541 0.930 . S
H529 C545 0.959 . S
H530 C545 0.959 . S
H531 C545 0.961 . S
H532 C546 0.960 . S
H533 C546 0.961 . S
H534 C546 0.959 . S
H535 C549 0.929 . S
H536 C550 0.931 . S
H537 C552 0.930 . S
C538 H526 0.930 . S
C538 C539 1.399 . S
C538 C543 1.399 . S
C539 C538 1.399 . S
C539 C540 1.376 . S
C540 H527 0.930 . S
C540 C539 1.376 . S
C540 C541 1.388 . S
C541 H528 0.930 . S
C541 C540 1.388 . S
C541 C542 1.390 . S
C542 C541 1.390 . S
C542 C543 1.394 . S
C542 C548 1.465 . S
C543 C538 1.399 . S
C543 C542 1.394 . S
C543 C544 1.516 . S
C544 C543 1.516 . S
C544 C545 1.502 . S
C544 C546 1.561 . S
C544 C547 1.526 . S
C545 H529 0.959 . S
C545 H530 0.959 . S
C545 H531 0.961 . S
C545 C544 1.502 . S
C546 H532 0.960 . S
C546 H533 0.961 . S
C546 H534 0.959 . S
C546 C544 1.561 . S
C547 C544 1.526 . S
C547 C548 1.396 . S
C547 C552 1.390 . S
C548 C542 1.465 . S
C548 C547 1.396 . S
C548 C549 1.399 . S
C549 H535 0.929 . S
C549 C548 1.399 . S
C549 C550 1.385 . S
C550 H536 0.931 . S
C550 C549 1.385 . S
C550 C551 1.389 . S
C551 C550 1.389 . S
C551 C552 1.387 . S
C552 H537 0.930 . S
C552 C547 1.390 . S
C552 C551 1.387 . S
H553 C565 0.926 1_655 S
H554 C567 0.930 . S
H555 C568 0.930 . S
H556 C572 0.959 . S
H557 C572 0.959 . S
H558 C572 0.961 . S
H559 C573 0.960 . S
H560 C573 0.961 . S
H561 C573 0.959 . S
H562 C576 0.929 . S
H563 C577 0.931 . S
H564 C579 0.930 . S
C565 H553 0.926 1_455 S
C565 C566 1.401 . S
C565 C570 1.403 . S
C566 C565 1.401 . S
C566 C567 1.376 . S
C567 H554 0.930 . S
C567 C566 1.376 . S
C567 C568 1.388 . S
C568 H555 0.930 . S
C568 C567 1.388 . S
C568 C569 1.390 . S
C569 C568 1.390 . S
C569 C570 1.394 . S
C569 C575 1.465 . S
C570 C565 1.403 . S
C570 C569 1.394 . S
C570 C571 1.516 . S
C571 C570 1.516 . S
C571 C572 1.502 1_455 S
C571 C573 1.561 . S
C571 C574 1.526 . S
C572 H556 0.959 . S
C572 H557 0.959 . S
C572 H558 0.961 . S
C572 C571 1.502 1_655 S
C573 H559 0.960 . S
C573 H560 0.961 . S
C573 H561 0.959 . S
C573 C571 1.561 . S
C574 C571 1.526 . S
C574 C575 1.396 . S
C574 C579 1.390 . S
C575 C569 1.465 . S
C575 C574 1.396 . S
C575 C576 1.399 . S
C576 H562 0.929 . S
C576 C575 1.399 . S
C576 C577 1.385 . S
C577 H563 0.931 . S
C577 C576 1.385 . S
C577 C578 1.389 . S
C578 C577 1.389 . S
C578 C579 1.387 . S
C579 H564 0.930 . S
C579 C574 1.390 . S
C579 C578 1.387 . S
H580 C592 0.930 . S
H581 C594 0.930 . S
H582 C595 0.930 . S
H583 C599 0.959 . S
H584 C599 0.959 . S
H585 C599 0.961 . S
H586 C600 0.960 . S
H587 C600 0.961 1_556 S
H588 C600 0.959 1_556 S
H589 C603 0.929 . S
H590 C604 0.931 . S
H591 C606 0.930 . S
C592 H580 0.930 . S
C592 C593 1.399 1_565 S
C592 C597 1.399 . S
C593 C592 1.399 1_545 S
C593 C594 1.376 . S
C594 H581 0.930 . S
C594 C593 1.376 . S
C594 C595 1.388 . S
C595 H582 0.930 . S
C595 C594 1.388 . S
C595 C596 1.390 . S
C596 C595 1.390 . S
C596 C597 1.394 1_545 S
C596 C602 1.465 1_554 S
C597 C592 1.399 . S
C597 C596 1.394 1_565 S
C597 C598 1.516 . S
C598 C597 1.516 . S
C598 C599 1.502 . S
C598 C600 1.561 . S
C598 C601 1.526 1_554 S
C599 H583 0.959 . S
C599 H584 0.959 . S
C599 H585 0.961 . S
C599 C598 1.502 . S
C600 H586 0.960 . S
C600 H587 0.961 1_554 S
C600 H588 0.959 1_554 S
C600 C598 1.561 . S
C601 C598 1.526 1_556 S
C601 C602 1.396 1_565 S
C601 C606 1.390 . S
C602 C596 1.465 1_556 S
C602 C601 1.396 1_545 S
C602 C603 1.399 . S
C603 H589 0.929 . S
C603 C602 1.399 . S
C603 C604 1.385 . S
C604 H590 0.931 . S
C604 C603 1.385 . S
C604 C605 1.389 . S
C605 C604 1.389 . S
C605 C606 1.387 1_545 S
C606 H591 0.930 . S
C606 C601 1.390 . S
C606 C605 1.387 1_565 S
H607 C619 0.930 . S
H608 C621 0.930 . S
H609 C622 0.930 . S
H610 C626 0.959 . S
H611 C626 0.959 1_556 S
H612 C626 0.961 . S
H613 C627 0.960 1_554 S
H614 C627 0.961 . S
H615 C627 0.959 . S
H616 C630 0.929 . S
H617 C631 0.931 . S
H618 C633 0.930 . S
C619 H607 0.930 . S
C619 C620 1.399 . S
C619 C624 1.399 . S
C620 C619 1.399 . S
C620 C621 1.376 . S
C621 H608 0.930 . S
C621 C620 1.376 . S
C621 C622 1.388 . S
C622 H609 0.930 . S
C622 C621 1.388 . S
C622 C623 1.390 . S
C623 C622 1.390 . S
C623 C624 1.394 . S
C623 C629 1.465 . S
C624 C619 1.399 . S
C624 C623 1.394 . S
C624 C625 1.516 . S
C625 C624 1.516 . S
C625 C626 1.502 . S
C625 C627 1.561 1_554 S
C625 C628 1.526 1_554 S
C626 H610 0.959 . S
C626 H611 0.959 1_554 S
C626 H612 0.961 . S
C626 C625 1.502 . S
C627 H613 0.960 1_556 S
C627 H614 0.961 . S
C627 H615 0.959 . S
C627 C625 1.561 1_556 S
C628 C625 1.526 1_556 S
C628 C629 1.396 1_556 S
C628 C633 1.390 . S
C629 C623 1.465 . S
C629 C628 1.396 1_554 S
C629 C630 1.399 1_554 S
C630 H616 0.929 . S
C630 C629 1.399 1_556 S
C630 C631 1.385 . S
C631 H617 0.931 . S
C631 C630 1.385 . S
C631 C632 1.389 . S
C632 C631 1.389 . S
C632 C633 1.387 . S
C633 H618 0.930 . S
C633 C628 1.390 . S
C633 C632 1.387 . S
H634 C646 0.930 . S
H635 C648 0.930 . S
H636 C649 0.930 . S
H637 C653 0.959 . S
H638 C653 0.959 . S
H639 C653 0.961 . S
H640 C654 0.960 . S
H641 C654 0.961 1_556 S
H642 C654 0.959 1_556 S
H643 C657 0.929 . S
H644 C658 0.931 . S
H645 C660 0.930 . S
C646 H634 0.930 . S
C646 C647 1.399 . S
C646 C651 1.399 . S
C647 C646 1.399 . S
C647 C648 1.376 . S
C648 H635 0.930 . S
C648 C647 1.376 . S
C648 C649 1.388 . S
C649 H636 0.930 . S
C649 C648 1.388 . S
C649 C650 1.390 . S
C650 C649 1.390 . S
C650 C651 1.394 . S
C650 C656 1.465 1_554 S
C651 C646 1.399 . S
C651 C650 1.394 . S
C651 C652 1.516 . S
C652 C651 1.516 . S
C652 C653 1.502 . S
C652 C654 1.561 . S
C652 C655 1.526 1_554 S
C653 H637 0.959 . S
C653 H638 0.959 . S
C653 H639 0.961 . S
C653 C652 1.502 . S
C654 H640 0.960 . S
C654 H641 0.961 1_554 S
C654 H642 0.959 1_554 S
C654 C652 1.561 . S
C655 C652 1.526 1_556 S
C655 C656 1.396 . S
C655 C660 1.390 . S
C656 C650 1.465 1_556 S
C656 C655 1.396 . S
C656 C657 1.399 . S
C657 H643 0.929 . S
C657 C656 1.399 . S
C657 C658 1.385 . S
C658 H644 0.931 . S
C658 C657 1.385 . S
C658 C659 1.389 . S
C659 C658 1.389 . S
C659 C660 1.387 . S
C660 H645 0.930 . S
C660 C655 1.390 . S
C660 C659 1.387 . S
H661 C673 0.929 1_455 S
H662 C675 0.930 . S
H663 C676 0.930 . S
H664 C680 0.959 . S
H665 C680 0.959 . S
H666 C680 0.961 . S
H667 C681 0.960 . S
H668 C681 0.961 . S
H669 C681 0.959 . S
H670 C684 0.929 . S
H671 C685 0.931 . S
H672 C687 0.930 1_455 S
C673 H661 0.929 1_655 S
C673 C674 1.399 . S
C673 C678 1.399 . S
C674 C673 1.399 . S
C674 C675 1.376 . S
C675 H662 0.930 . S
C675 C674 1.376 . S
C675 C676 1.388 . S
C676 H663 0.930 . S
C676 C675 1.388 . S
C676 C677 1.390 . S
C677 C676 1.390 . S
C677 C678 1.394 . S
C677 C683 1.465 1_554 S
C678 C673 1.399 . S
C678 C677 1.394 . S
C678 C679 1.516 . S
C679 C678 1.516 . S
C679 C680 1.502 1_655 S
C679 C681 1.561 . S
C679 C682 1.526 1_554 S
C680 H664 0.959 . S
C680 H665 0.959 . S
C680 H666 0.961 . S
C680 C679 1.502 1_455 S
C681 H667 0.960 . S
C681 H668 0.961 . S
C681 H669 0.959 . S
C681 C679 1.561 . S
C682 C679 1.526 1_556 S
C682 C683 1.396 . S
C682 C687 1.390 . S
C683 C677 1.465 1_556 S
C683 C682 1.396 . S
C683 C684 1.399 . S
C684 H670 0.929 . S
C684 C683 1.399 . S
C684 C685 1.385 . S
C685 H671 0.931 . S
C685 C684 1.385 . S
C685 C686 1.389 . S
C686 C685 1.389 . S
C686 C687 1.387 . S
C687 H672 0.930 1_655 S
C687 C682 1.390 . S
C687 C686 1.387 . S
H688 C700 0.930 . S
H689 C702 0.930 . S
H690 C703 0.930 . S
H691 C707 0.959 . S
H692 C707 0.959 . S
H693 C707 0.961 . S
H694 C708 0.960 . S
H695 C708 0.973 . S
H696 C708 0.959 . S
H697 C711 0.929 . S
H698 C712 0.931 . S
H699 C714 0.930 . S
C700 H688 0.930 . S
C700 C701 1.399 1_655 S
C700 C705 1.399 . S
C701 C700 1.399 1_455 S
C701 C702 1.376 . S
C702 H689 0.930 . S
C702 C701 1.376 . S
C702 C703 1.388 1_455 S
C703 H690 0.930 . S
C703 C702 1.388 1_655 S
C703 C704 1.390 . S
C704 C703 1.390 . S
C704 C705 1.394 . S
C704 C710 1.465 . S
C705 C700 1.399 . S
C705 C704 1.394 . S
C705 C706 1.516 . S
C706 C705 1.516 . S
C706 C707 1.502 . S
C706 C708 1.561 1_655 S
C706 C709 1.526 . S
C707 H691 0.959 . S
C707 H692 0.959 . S
C707 H693 0.961 . S
C707 C706 1.502 . S
C708 H694 0.960 . S
C708 H695 0.973 . S
C708 H696 0.959 . S
C708 C706 1.561 1_455 S
C709 C706 1.526 . S
C709 C710 1.396 . S
C709 C714 1.390 . S
C710 C704 1.465 . S
C710 C709 1.396 . S
C710 C711 1.399 . S
C711 H697 0.929 . S
C711 C710 1.399 . S
C711 C712 1.385 . S
C712 H698 0.931 . S
C712 C711 1.385 . S
C712 C713 1.389 . S
C713 C712 1.389 . S
C713 C714 1.387 . S
C714 H699 0.930 . S
C714 C709 1.390 . S
C714 C713 1.387 . S
H715 C727 0.930 . S
H716 C729 0.930 . S
H717 C730 0.930 . S
H718 C734 0.959 . S
H719 C734 0.959 . S
H720 C734 0.961 . S
H721 C735 0.960 . S
H722 C735 0.961 . S
H723 C735 0.959 . S
H724 C738 0.950 . S
H725 C739 0.931 . S
H726 C741 0.930 . S
C727 H715 0.930 . S
C727 C728 1.399 1_565 S
C727 C732 1.399 . S
C728 C727 1.399 1_545 S
C728 C729 1.376 . S
C729 H716 0.930 . S
C729 C728 1.376 . S
C729 C730 1.388 . S
C730 H717 0.930 . S
C730 C729 1.388 . S
C730 C731 1.390 1_545 S
C731 C730 1.390 1_565 S
C731 C732 1.394 . S
C731 C737 1.465 . S
C732 C727 1.399 . S
C732 C731 1.394 . S
C732 C733 1.516 . S
C733 C732 1.516 . S
C733 C734 1.502 . S
C733 C735 1.561 . S
C733 C736 1.526 . S
C734 H718 0.959 . S
C734 H719 0.959 . S
C734 H720 0.961 . S
C734 C733 1.502 . S
C735 H721 0.960 . S
C735 H722 0.961 . S
C735 H723 0.959 . S
C735 C733 1.561 . S
C736 C733 1.526 . S
C736 C737 1.396 . S
C736 C741 1.390 . S
C737 C731 1.465 . S
C737 C736 1.396 . S
C737 C738 1.389 1_565 S
C738 H724 0.950 . S
C738 C737 1.389 1_545 S
C738 C739 1.374 1_545 S
C739 H725 0.931 . S
C739 C738 1.374 1_565 S
C739 C740 1.389 . S
C740 C739 1.389 . S
C740 C741 1.387 . S
C741 H726 0.930 . S
C741 C736 1.390 . S
C741 C740 1.387 . S
H742 C754 0.930 . S
H743 C756 0.930 . S
H744 C757 0.930 . S
H745 C761 0.959 . S
H746 C761 0.959 . S
H747 C761 0.961 . S
H748 C762 0.960 . S
H749 C762 0.961 . S
H750 C762 0.959 . S
H751 C765 0.929 . S
H752 C766 0.931 . S
H753 C768 0.930 . S
C754 H742 0.930 . S
C754 C755 1.399 . S
C754 C759 1.399 . S
C755 C754 1.399 . S
C755 C756 1.376 . S
C756 H743 0.930 . S
C756 C755 1.376 . S
C756 C757 1.388 . S
C757 H744 0.930 . S
C757 C756 1.388 . S
C757 C758 1.390 . S
C758 C757 1.390 . S
C758 C759 1.394 . S
C758 C764 1.465 . S
C759 C754 1.399 . S
C759 C758 1.394 . S
C759 C760 1.516 . S
C760 C759 1.516 . S
C760 C761 1.502 . S
C760 C762 1.561 . S
C760 C763 1.526 . S
C761 H745 0.959 . S
C761 H746 0.959 . S
C761 H747 0.961 . S
C761 C760 1.502 . S
C762 H748 0.960 . S
C762 H749 0.961 . S
C762 H750 0.959 . S
C762 C760 1.561 . S
C763 C760 1.526 . S
C763 C764 1.396 . S
C763 C768 1.390 . S
C764 C758 1.465 . S
C764 C763 1.396 . S
C764 C765 1.399 . S
C765 H751 0.929 . S
C765 C764 1.399 . S
C765 C766 1.385 . S
C766 H752 0.931 . S
C766 C765 1.385 . S
C766 C767 1.389 . S
C767 C766 1.389 . S
C767 C768 1.387 . S
C768 H753 0.930 . S
C768 C763 1.390 . S
C768 C767 1.387 . S
H769 C781 0.930 . S
H770 C783 0.930 . S
H771 C784 0.930 . S
H772 C788 0.959 . S
H773 C788 0.959 . S
H774 C788 0.961 . S
H775 C789 0.960 . S
H776 C789 0.961 . S
H777 C789 0.959 . S
H778 C792 0.929 . S
H779 C793 0.931 . S
H780 C795 0.930 . S
C781 H769 0.930 . S
C781 C782 1.399 . S
C781 C786 1.399 . S
C782 C781 1.399 . S
C782 C783 1.376 . S
C783 H770 0.930 . S
C783 C782 1.376 . S
C783 C784 1.388 . S
C784 H771 0.930 . S
C784 C783 1.388 . S
C784 C785 1.390 . S
C785 C784 1.390 . S
C785 C786 1.394 . S
C785 C791 1.465 . S
C786 C781 1.399 . S
C786 C785 1.394 . S
C786 C787 1.516 . S
C787 C786 1.516 . S
C787 C788 1.502 . S
C787 C789 1.561 . S
C787 C790 1.526 . S
C788 H772 0.959 . S
C788 H773 0.959 . S
C788 H774 0.961 . S
C788 C787 1.502 . S
C789 H775 0.960 . S
C789 H776 0.961 . S
C789 H777 0.959 . S
C789 C787 1.561 . S
C790 C787 1.526 . S
C790 C791 1.396 . S
C790 C795 1.390 . S
C791 C785 1.465 . S
C791 C790 1.396 . S
C791 C792 1.399 . S
C792 H778 0.929 . S
C792 C791 1.399 . S
C792 C793 1.385 . S
C793 H779 0.931 . S
C793 C792 1.385 . S
C793 C794 1.389 . S
C794 C793 1.389 . S
C794 C795 1.387 . S
C795 H780 0.930 . S
C795 C790 1.390 . S
C795 C794 1.387 . S
H796 C808 0.941 . S
H797 C810 0.930 . S
H798 C811 0.930 1_556 S
H799 C815 0.959 . S
H800 C815 0.959 . S
H801 C815 0.961 . S
H802 C816 0.960 . S
H803 C816 0.961 . S
H804 C816 0.959 . S
H805 C819 0.929 . S
H806 C820 0.931 . S
H807 C822 0.930 . S
C808 H796 0.941 . S
C808 C809 1.400 . S
C808 C813 1.387 1_655 S
C809 C808 1.400 . S
C809 C810 1.376 1_655 S
C810 H797 0.930 . S
C810 C809 1.376 1_455 S
C810 C811 1.388 . S
C811 H798 0.930 1_554 S
C811 C810 1.388 . S
C811 C812 1.390 . S
C812 C811 1.390 . S
C812 C813 1.394 . S
C812 C818 1.465 1_554 S
C813 C808 1.387 1_455 S
C813 C812 1.394 . S
C813 C814 1.516 . S
C814 C813 1.516 . S
C814 C815 1.502 1_455 S
C814 C816 1.561 . S
C814 C817 1.526 . S
C815 H799 0.959 . S
C815 H800 0.959 . S
C815 H801 0.961 . S
C815 C814 1.502 1_655 S
C816 H802 0.960 . S
C816 H803 0.961 . S
C816 H804 0.959 . S
C816 C814 1.561 . S
C817 C814 1.526 . S
C817 C818 1.396 1_554 S
C817 C822 1.390 . S
C818 C812 1.465 1_556 S
C818 C817 1.396 1_556 S
C818 C819 1.399 . S
C819 H805 0.929 . S
C819 C818 1.399 . S
C819 C820 1.385 . S
C820 H806 0.931 . S
C820 C819 1.385 . S
C820 C821 1.389 . S
C821 C820 1.389 . S
C821 C822 1.387 1_556 S
C822 H807 0.930 . S
C822 C817 1.390 . S
C822 C821 1.387 1_554 S
H823 C835 0.930 . S
H824 C837 0.930 . S
H825 C838 0.930 1_556 S
H826 C842 0.959 . S
H827 C842 0.959 . S
H828 C842 0.961 . S
H829 C843 0.960 . S
H830 C843 0.961 . S
H831 C843 0.959 1_556 S
H832 C846 0.929 1_565 S
H833 C847 0.931 . S
H834 C849 0.930 1_554 S
C835 H823 0.930 . S
C835 C836 1.399 1_545 S
C835 C840 1.399 . S
C836 C835 1.399 1_565 S
C836 C837 1.376 . S
C837 H824 0.930 . S
C837 C836 1.376 . S
C837 C838 1.388 . S
C838 H825 0.930 1_554 S
C838 C837 1.388 . S
C838 C839 1.390 1_565 S
C839 C838 1.390 1_545 S
C839 C840 1.394 . S
C839 C845 1.465 1_554 S
C840 C835 1.399 . S
C840 C839 1.394 . S
C840 C841 1.516 . S
C841 C840 1.516 . S
C841 C842 1.502 . S
C841 C843 1.561 . S
C841 C844 1.526 . S
C842 H826 0.959 . S
C842 H827 0.959 . S
C842 H828 0.961 . S
C842 C841 1.502 . S
C843 H829 0.960 . S
C843 H830 0.961 . S
C843 H831 0.959 1_554 S
C843 C841 1.561 . S
C844 C841 1.526 . S
C844 C845 1.396 1_554 S
C844 C849 1.390 1_554 S
C845 C839 1.465 1_556 S
C845 C844 1.396 1_556 S
C845 C846 1.399 . S
C846 H832 0.929 1_545 S
C846 C845 1.399 . S
C846 C847 1.385 . S
C847 H833 0.931 . S
C847 C846 1.385 . S
C847 C848 1.389 . S
C848 C847 1.389 . S
C848 C849 1.387 . S
C849 H834 0.930 1_556 S
C849 C844 1.390 1_556 S
C849 C848 1.387 . S
H850 C862 0.930 . S
H851 C864 0.930 . S
H852 C865 0.930 . S
H853 C869 0.959 1_554 S
H854 C869 0.959 . S
H855 C869 0.961 . S
H856 C870 0.960 . S
H857 C870 0.961 . S
H858 C870 0.959 . S
H859 C873 0.929 . S
H860 C874 0.931 . S
H861 C876 0.930 . S
C862 H850 0.930 . S
C862 C863 1.399 . S
C862 C867 1.399 . S
C863 C862 1.399 . S
C863 C864 1.376 . S
C864 H851 0.930 . S
C864 C863 1.376 . S
C864 C865 1.388 . S
C865 H852 0.930 . S
C865 C864 1.388 . S
C865 C866 1.390 . S
C866 C865 1.390 . S
C866 C867 1.394 . S
C866 C872 1.465 . S
C867 C862 1.399 . S
C867 C866 1.394 . S
C867 C868 1.516 1_554 S
C868 C867 1.516 1_556 S
C868 C869 1.502 . S
C868 C870 1.561 . S
C868 C871 1.526 . S
C869 H853 0.959 1_556 S
C869 H854 0.959 . S
C869 H855 0.961 . S
C869 C868 1.502 . S
C870 H856 0.960 . S
C870 H857 0.961 . S
C870 H858 0.959 . S
C870 C868 1.561 . S
C871 C868 1.526 . S
C871 C872 1.396 1_556 S
C871 C876 1.390 . S
C872 C866 1.465 . S
C872 C871 1.396 1_554 S
C872 C873 1.399 . S
C873 H859 0.929 . S
C873 C872 1.399 . S
C873 C874 1.385 . S
C874 H860 0.931 . S
C874 C873 1.385 . S
C874 C875 1.389 1_554 S
C875 C874 1.389 1_556 S
C875 C876 1.387 . S
C876 H861 0.930 . S
C876 C871 1.390 . S
C876 C875 1.387 . S
H877 C889 0.930 . S
H878 C891 0.930 . S
H879 C892 0.942 . S
H880 C896 0.959 . S
H881 C896 0.959 . S
H882 C896 0.961 . S
H883 C897 0.960 . S
H884 C897 0.961 . S
H885 C897 0.959 . S
H886 C900 0.929 . S
H887 C901 0.931 . S
H888 C903 0.930 . S
C889 H877 0.930 . S
C889 C890 1.399 . S
C889 C894 1.399 . S
C890 C889 1.399 . S
C890 C891 1.376 . S
C891 H878 0.930 . S
C891 C890 1.376 . S
C891 C892 1.380 1_554 S
C892 H879 0.942 . S
C892 C891 1.380 1_556 S
C892 C893 1.386 1_556 S
C893 C892 1.386 1_554 S
C893 C894 1.394 . S
C893 C899 1.465 1_554 S
C894 C889 1.399 . S
C894 C893 1.394 . S
C894 C895 1.516 . S
C895 C894 1.516 . S
C895 C896 1.502 . S
C895 C897 1.561 . S
C895 C898 1.526 . S
C896 H880 0.959 . S
C896 H881 0.959 . S
C896 H882 0.961 . S
C896 C895 1.502 . S
C897 H883 0.960 . S
C897 H884 0.961 . S
C897 H885 0.959 . S
C897 C895 1.561 . S
C898 C895 1.526 . S
C898 C899 1.396 1_554 S
C898 C903 1.390 . S
C899 C893 1.465 1_556 S
C899 C898 1.396 1_556 S
C899 C900 1.399 . S
C900 H886 0.929 . S
C900 C899 1.399 . S
C900 C901 1.385 . S
C901 H887 0.931 . S
C901 C900 1.385 . S
C901 C902 1.389 . S
C902 C901 1.389 . S
C902 C903 1.387 1_556 S
C903 H888 0.930 . S
C903 C898 1.390 . S
C903 C902 1.387 1_554 S
H904 C916 0.930 . S
H905 C918 0.930 . S
H906 C919 0.930 . S
H907 C923 0.959 . S
H908 C923 0.959 . S
H909 C923 0.961 . S
H910 C924 0.971 . S
H911 C924 0.964 . S
H912 C924 0.959 . S
H913 C927 0.929 . S
H914 C928 0.931 . S
H915 C930 0.930 1_655 S
C916 H904 0.930 . S
C916 C917 1.399 1_655 S
C916 C921 1.395 1_655 S
C917 C916 1.399 1_455 S
C917 C918 1.376 . S
C918 H905 0.930 . S
C918 C917 1.376 . S
C918 C919 1.388 . S
C919 H906 0.930 . S
C919 C918 1.388 . S
C919 C920 1.390 . S
C920 C919 1.390 . S
C920 C921 1.406 . S
C920 C926 1.465 . S
C921 C916 1.395 1_455 S
C921 C920 1.406 . S
C921 C922 1.510 1_455 S
C922 C921 1.510 1_655 S
C922 C923 1.502 . S
C922 C924 1.561 1_655 S
C922 C925 1.526 1_655 S
C923 H907 0.959 . S
C923 H908 0.959 . S
C923 H909 0.961 . S
C923 C922 1.502 . S
C924 H910 0.971 . S
C924 H911 0.964 . S
C924 H912 0.959 . S
C924 C922 1.561 1_455 S
C925 C922 1.526 1_455 S
C925 C926 1.396 . S
C925 C930 1.390 . S
C926 C920 1.465 . S
C926 C925 1.396 . S
C926 C927 1.399 . S
C927 H913 0.929 . S
C927 C926 1.399 . S
C927 C928 1.385 . S
C928 H914 0.931 . S
C928 C927 1.385 . S
C928 C929 1.389 . S
C929 C928 1.389 . S
C929 C930 1.387 . S
C930 H915 0.930 1_455 S
C930 C925 1.390 . S
C930 C929 1.387 . S
H931 C943 0.930 . S
H932 C945 0.930 . S
H933 C946 0.930 . S
H934 C950 0.959 . S
H935 C950 0.959 . S
H936 C950 0.961 . S
H937 C951 0.960 . S
H938 C951 0.961 . S
H939 C951 0.959 . S
H940 C954 0.929 . S
H941 C955 0.931 . S
H942 C957 0.930 1_565 S
C943 H931 0.930 . S
C943 C944 1.399 1_565 S
C943 C948 1.399 1_565 S
C944 C943 1.399 1_545 S
C944 C945 1.376 . S
C945 H932 0.930 . S
C945 C944 1.376 . S
C945 C946 1.388 . S
C946 H933 0.930 . S
C946 C945 1.388 . S
C946 C947 1.390 . S
C947 C946 1.390 . S
C947 C948 1.394 . S
C947 C953 1.465 . S
C948 C943 1.399 1_545 S
C948 C947 1.394 . S
C948 C949 1.516 1_545 S
C949 C948 1.516 1_565 S
C949 C950 1.502 . S
C949 C951 1.561 1_565 S
C949 C952 1.526 1_565 S
C950 H934 0.959 . S
C950 H935 0.959 . S
C950 H936 0.961 . S
C950 C949 1.502 . S
C951 H937 0.960 . S
C951 H938 0.961 . S
C951 H939 0.959 . S
C951 C949 1.561 1_545 S
C952 C949 1.526 1_545 S
C952 C953 1.396 . S
C952 C957 1.390 . S
C953 C947 1.465 . S
C953 C952 1.396 . S
C953 C954 1.399 . S
C954 H940 0.929 . S
C954 C953 1.399 . S
C954 C955 1.385 . S
C955 H941 0.931 . S
C955 C954 1.385 . S
C955 C956 1.389 . S
C956 C955 1.389 . S
C956 C957 1.387 . S
C957 H942 0.930 1_545 S
C957 C952 1.390 . S
C957 C956 1.387 . S
H958 C970 0.930 . S
H959 C972 0.930 . S
H960 C973 0.930 . S
H961 C977 0.959 . S
H962 C977 0.959 . S
H963 C977 0.961 . S
H964 C978 0.960 . S
H965 C978 0.961 . S
H966 C978 0.959 . S
H967 C981 0.929 . S
H968 C982 0.931 . S
H969 C984 0.930 . S
C970 H958 0.930 . S
C970 C971 1.399 . S
C970 C975 1.399 . S
C971 C970 1.399 . S
C971 C972 1.376 . S
C972 H959 0.930 . S
C972 C971 1.376 . S
C972 C973 1.388 . S
C973 H960 0.930 . S
C973 C972 1.388 . S
C973 C974 1.390 . S
C974 C973 1.390 . S
C974 C975 1.394 . S
C974 C980 1.465 . S
C975 C970 1.399 . S
C975 C974 1.394 . S
C975 C976 1.516 . S
C976 C975 1.516 . S
C976 C977 1.502 . S
C976 C978 1.561 . S
C976 C979 1.526 . S
C977 H961 0.959 . S
C977 H962 0.959 . S
C977 H963 0.961 . S
C977 C976 1.502 . S
C978 H964 0.960 . S
C978 H965 0.961 . S
C978 H966 0.959 . S
C978 C976 1.561 . S
C979 C976 1.526 . S
C979 C980 1.396 . S
C979 C984 1.390 . S
C980 C974 1.465 . S
C980 C979 1.396 . S
C980 C981 1.399 . S
C981 H967 0.929 . S
C981 C980 1.399 . S
C981 C982 1.385 . S
C982 H968 0.931 . S
C982 C981 1.385 . S
C982 C983 1.389 . S
C983 C982 1.389 . S
C983 C984 1.387 . S
C984 H969 0.930 . S
C984 C979 1.390 . S
C984 C983 1.387 . S
H985 C997 0.930 . S
H986 C999 0.930 . S
H987 C1000 0.930 . S
H988 C1004 0.959 . S
H989 C1004 0.959 . S
H990 C1004 0.961 . S
H991 C1005 0.960 . S
H992 C1005 0.961 . S
H993 C1005 0.959 . S
H994 C1008 0.929 . S
H995 C1009 0.931 . S
H996 C1011 0.930 . S
C997 H985 0.930 . S
C997 C998 1.399 . S
C997 C1002 1.399 . S
C998 C997 1.399 . S
C998 C999 1.376 . S
C999 H986 0.930 . S
C999 C998 1.376 . S
C999 C1000 1.388 . S
C1000 H987 0.930 . S
C1000 C999 1.388 . S
C1000 C1001 1.390 . S
C1001 C1000 1.390 . S
C1001 C1002 1.394 . S
C1001 C1007 1.465 . S
C1002 C997 1.399 . S
C1002 C1001 1.394 . S
C1002 C1003 1.516 . S
C1003 C1002 1.516 . S
C1003 C1004 1.502 . S
C1003 C1005 1.561 . S
C1003 C1006 1.526 . S
C1004 H988 0.959 . S
C1004 H989 0.959 . S
C1004 H990 0.961 . S
C1004 C1003 1.502 . S
C1005 H991 0.960 . S
C1005 H992 0.961 . S
C1005 H993 0.959 . S
C1005 C1003 1.561 . S
C1006 C1003 1.526 . S
C1006 C1007 1.396 . S
C1006 C1011 1.390 . S
C1007 C1001 1.465 . S
C1007 C1006 1.396 . S
C1007 C1008 1.399 . S
C1008 H994 0.929 . S
C1008 C1007 1.399 . S
C1008 C1009 1.385 . S
C1009 H995 0.931 . S
C1009 C1008 1.385 . S
C1009 C1010 1.389 . S
C1010 C1009 1.389 . S
C1010 C1011 1.387 . S
C1011 H996 0.930 . S
C1011 C1006 1.390 . S
C1011 C1010 1.387 . S
H1012 C1024 0.930 . S
H1013 C1026 0.930 . S
H1014 C1027 0.930 . S
H1015 C1031 0.959 . S
H1016 C1031 0.959 . S
H1017 C1031 0.961 . S
H1018 C1032 0.960 . S
H1019 C1032 0.961 . S
H1020 C1032 0.959 1_455 S
H1021 C1035 0.929 . S
H1022 C1036 0.931 . S
H1023 C1038 0.930 . S
C1024 H1012 0.930 . S
C1024 C1025 1.416 . S
C1024 C1029 1.399 . S
C1025 C1024 1.416 . S
C1025 C1026 1.357 1_655 S
C1026 H1013 0.930 . S
C1026 C1025 1.357 1_455 S
C1026 C1027 1.388 . S
C1027 H1014 0.930 . S
C1027 C1026 1.388 . S
C1027 C1028 1.390 . S
C1028 C1027 1.390 . S
C1028 C1029 1.394 1_455 S
C1028 C1034 1.467 . S
C1029 C1024 1.399 . S
C1029 C1028 1.394 1_655 S
C1029 C1030 1.516 . S
C1030 C1029 1.516 . S
C1030 C1031 1.502 . S
C1030 C1032 1.561 . S
C1030 C1033 1.526 . S
C1031 H1015 0.959 . S
C1031 H1016 0.959 . S
C1031 H1017 0.961 . S
C1031 C1030 1.502 . S
C1032 H1018 0.960 . S
C1032 H1019 0.961 . S
C1032 H1020 0.959 1_655 S
C1032 C1030 1.561 . S
C1033 C1030 1.526 . S
C1033 C1034 1.385 1_655 S
C1033 C1038 1.390 . S
C1034 C1028 1.467 . S
C1034 C1033 1.385 1_455 S
C1034 C1035 1.406 . S
C1035 H1021 0.929 . S
C1035 C1034 1.406 . S
C1035 C1036 1.385 . S
C1036 H1022 0.931 . S
C1036 C1035 1.385 . S
C1036 C1037 1.389 1_455 S
C1037 C1036 1.389 1_655 S
C1037 C1038 1.387 . S
C1038 H1023 0.930 . S
C1038 C1033 1.390 . S
C1038 C1037 1.387 . S
H1039 C1051 0.930 . S
H1040 C1053 0.930 . S
H1041 C1054 0.930 . S
H1042 C1058 0.959 . S
H1043 C1058 0.959 . S
H1044 C1058 0.961 . S
H1045 C1059 0.960 . S
H1046 C1059 0.961 . S
H1047 C1059 0.959 . S
H1048 C1062 0.929 . S
H1049 C1063 0.931 . S
H1050 C1065 0.930 . S
C1051 H1039 0.930 . S
C1051 C1052 1.403 . S
C1051 C1056 1.399 . S
C1052 C1051 1.403 . S
C1052 C1053 1.372 1_565 S
C1053 H1040 0.930 . S
C1053 C1052 1.372 1_545 S
C1053 C1054 1.388 . S
C1054 H1041 0.930 . S
C1054 C1053 1.388 . S
C1054 C1055 1.390 . S
C1055 C1054 1.390 . S
C1055 C1056 1.394 1_545 S
C1055 C1061 1.465 . S
C1056 C1051 1.399 . S
C1056 C1055 1.394 1_565 S
C1056 C1057 1.516 . S
C1057 C1056 1.516 . S
C1057 C1058 1.502 . S
C1057 C1059 1.561 . S
C1057 C1060 1.526 . S
C1058 H1042 0.959 . S
C1058 H1043 0.959 . S
C1058 H1044 0.961 . S
C1058 C1057 1.502 . S
C1059 H1045 0.960 . S
C1059 H1046 0.961 . S
C1059 H1047 0.959 . S
C1059 C1057 1.561 . S
C1060 C1057 1.526 . S
C1060 C1061 1.396 1_565 S
C1060 C1065 1.390 . S
C1061 C1055 1.465 . S
C1061 C1060 1.396 1_545 S
C1061 C1062 1.399 . S
C1062 H1048 0.929 . S
C1062 C1061 1.399 . S
C1062 C1063 1.385 . S
C1063 H1049 0.931 . S
C1063 C1062 1.385 . S
C1063 C1064 1.389 1_545 S
C1064 C1063 1.389 1_565 S
C1064 C1065 1.387 . S
C1065 H1050 0.930 . S
C1065 C1060 1.390 . S
C1065 C1064 1.387 . S
H1066 C1078 0.930 . S
H1067 C1080 0.930 . S
H1068 C1081 0.930 . S
H1069 C1085 0.959 . S
H1070 C1085 0.959 . S
H1071 C1085 0.961 . S
H1072 C1086 0.960 . S
H1073 C1086 0.961 . S
H1074 C1086 0.959 . S
H1075 C1089 0.929 . S
H1076 C1090 0.931 . S
H1077 C1092 0.930 . S
C1078 H1066 0.930 . S
C1078 C1079 1.399 . S
C1078 C1083 1.399 . S
C1079 C1078 1.399 . S
C1079 C1080 1.376 . S
C1080 H1067 0.930 . S
C1080 C1079 1.376 . S
C1080 C1081 1.388 . S
C1081 H1068 0.930 . S
C1081 C1080 1.388 . S
C1081 C1082 1.390 . S
C1082 C1081 1.390 . S
C1082 C1083 1.394 . S
C1082 C1088 1.465 . S
C1083 C1078 1.399 . S
C1083 C1082 1.394 . S
C1083 C1084 1.516 . S
C1084 C1083 1.516 . S
C1084 C1085 1.502 . S
C1084 C1086 1.561 . S
C1084 C1087 1.526 . S
C1085 H1069 0.959 . S
C1085 H1070 0.959 . S
C1085 H1071 0.961 . S
C1085 C1084 1.502 . S
C1086 H1072 0.960 . S
C1086 H1073 0.961 . S
C1086 H1074 0.959 . S
C1086 C1084 1.561 . S
C1087 C1084 1.526 . S
C1087 C1088 1.396 . S
C1087 C1092 1.390 . S
C1088 C1082 1.465 . S
C1088 C1087 1.396 . S
C1088 C1089 1.399 . S
C1089 H1075 0.929 . S
C1089 C1088 1.399 . S
C1089 C1090 1.385 . S
C1090 H1076 0.931 . S
C1090 C1089 1.385 . S
C1090 C1091 1.389 . S
C1091 C1090 1.389 . S
C1091 C1092 1.387 . S
C1092 H1077 0.930 . S
C1092 C1087 1.390 . S
C1092 C1091 1.387 . S
H1093 C1105 0.930 . S
H1094 C1107 0.930 . S
H1095 C1108 0.930 . S
H1096 C1112 0.959 . S
H1097 C1112 0.959 . S
H1098 C1112 0.961 . S
H1099 C1113 0.960 . S
H1100 C1113 0.961 . S
H1101 C1113 0.959 . S
H1102 C1116 0.929 . S
H1103 C1117 0.931 . S
H1104 C1119 0.930 . S
C1105 H1093 0.930 . S
C1105 C1106 1.399 . S
C1105 C1110 1.399 . S
C1106 C1105 1.399 . S
C1106 C1107 1.376 . S
C1107 H1094 0.930 . S
C1107 C1106 1.376 . S
C1107 C1108 1.388 . S
C1108 H1095 0.930 . S
C1108 C1107 1.388 . S
C1108 C1109 1.390 . S
C1109 C1108 1.390 . S
C1109 C1110 1.394 . S
C1109 C1115 1.465 . S
C1110 C1105 1.399 . S
C1110 C1109 1.394 . S
C1110 C1111 1.516 . S
C1111 C1110 1.516 . S
C1111 C1112 1.502 . S
C1111 C1113 1.561 . S
C1111 C1114 1.526 . S
C1112 H1096 0.959 . S
C1112 H1097 0.959 . S
C1112 H1098 0.961 . S
C1112 C1111 1.502 . S
C1113 H1099 0.960 . S
C1113 H1100 0.961 . S
C1113 H1101 0.959 . S
C1113 C1111 1.561 . S
C1114 C1111 1.526 . S
C1114 C1115 1.396 . S
C1114 C1119 1.390 . S
C1115 C1109 1.465 . S
C1115 C1114 1.396 . S
C1115 C1116 1.399 . S
C1116 H1102 0.929 . S
C1116 C1115 1.399 . S
C1116 C1117 1.385 . S
C1117 H1103 0.931 . S
C1117 C1116 1.385 . S
C1117 C1118 1.389 . S
C1118 C1117 1.389 . S
C1118 C1119 1.387 . S
C1119 H1104 0.930 . S
C1119 C1114 1.390 . S
C1119 C1118 1.387 . S
C485 C255 2.147 1_545 S
C497 C321 2.365 1_545 S
C524 C361 2.382 . S
C512 C294 2.183 . S
C551 C401 2.384 . S
C539 C177 2.156 . S
C578 C441 2.366 1_455 S
C566 C216 2.218 1_455 S
C605 C330 2.357 . S
C593 C99 2.153 1_545 S
C620 C138 2.164 . S
C632 C370 2.373 . S
C647 C21 2.171 . S
C659 C410 2.362 . S
C674 C60 2.148 . S
C686 C450 2.376 1_655 S
C713 C327 0.432 . S
C701 C196 0.546 1_455 S
C740 C367 0.329 . S
C728 C235 0.495 1_545 S
C767 C407 0.424 . S
C755 C289 0.353 . S
C782 C157 0.508 . S
C794 C447 0.315 . S
C809 C40 0.449 . S
C821 C318 0.498 . S
C848 C358 0.340 . S
C836 C79 0.543 . S
C875 C398 0.383 . S
C863 C133 0.453 . S
C890 C1 0.522 . S
C902 C438 0.382 . S
C917 C211 2.816 . S
C929 C331 3.233 . S
C944 C250 2.790 . S
C956 C371 3.217 . S
C983 C411 3.213 . S
C971 C274 2.788 . S
C1010 C451 3.224 . S
C998 C172 2.849 . S
C1025 C55 2.814 1_655 S
C1037 C322 3.227 . S
C1064 C362 3.195 . S
C1052 C94 2.808 1_565 S
C1091 C402 3.199 . S
C1079 C118 2.804 . S
C1106 C16 2.786 . S
C1118 C442 3.230 . S
