# Generated by pormake.
# Topology llk, (3,12)-cn, num edge types: 1
# Building blocks:
#     Node 0, Type 0, BuildingBlock: PAMTOO_clean_linker_0, # of connection points: 3
#     Node 1, Type 0, BuildingBlock: PAMTOO_clean_linker_0, # of connection points: 3
#     Node 2, Type 0, BuildingBlock: PAMTOO_clean_linker_0, # of connection points: 3
#     Node 3, Type 0, BuildingBlock: PAMTOO_clean_linker_0, # of connection points: 3
#     Node 4, Type 0, BuildingBlock: PAMTOO_clean_linker_0, # of connection points: 3
#     Node 5, Type 0, BuildingBlock: PAMTOO_clean_linker_0, # of connection points: 3
#     Node 6, Type 0, BuildingBlock: PAMTOO_clean_linker_0, # of connection points: 3
#     Node 7, Type 0, BuildingBlock: PAMTOO_clean_linker_0, # of connection points: 3
#     Node 8, Type 0, BuildingBlock: PAMTOO_clean_linker_0, # of connection points: 3
#     Node 9, Type 0, BuildingBlock: PAMTOO_clean_linker_0, # of connection points: 3
#     Node 10, Type 0, BuildingBlock: PAMTOO_clean_linker_0, # of connection points: 3
#     Node 11, Type 0, BuildingBlock: PAMTOO_clean_linker_0, # of connection points: 3
#     Node 12, Type 0, BuildingBlock: PAMTOO_clean_linker_0, # of connection points: 3
#     Node 13, Type 0, BuildingBlock: PAMTOO_clean_linker_0, # of connection points: 3
#     Node 14, Type 0, BuildingBlock: PAMTOO_clean_linker_0, # of connection points: 3
#     Node 15, Type 0, BuildingBlock: PAMTOO_clean_linker_0, # of connection points: 3
#     Node 16, Type 0, BuildingBlock: PAMTOO_clean_linker_0, # of connection points: 3
#     Node 17, Type 0, BuildingBlock: PAMTOO_clean_linker_0, # of connection points: 3
#     Node 18, Type 0, BuildingBlock: PAMTOO_clean_linker_0, # of connection points: 3
#     Node 19, Type 0, BuildingBlock: PAMTOO_clean_linker_0, # of connection points: 3
#     Node 20, Type 0, BuildingBlock: PAMTOO_clean_linker_0, # of connection points: 3
#     Node 21, Type 0, BuildingBlock: PAMTOO_clean_linker_0, # of connection points: 3
#     Node 22, Type 0, BuildingBlock: PAMTOO_clean_linker_0, # of connection points: 3
#     Node 23, Type 0, BuildingBlock: PAMTOO_clean_linker_0, # of connection points: 3
#     Node 24, Type 1, BuildingBlock: EZIPEK_clean_sbu_0, # of connection points: 12
#     Node 25, Type 1, BuildingBlock: EZIPEK_clean_sbu_0, # of connection points: 12
#     Node 26, Type 1, BuildingBlock: EZIPEK_clean_sbu_0, # of connection points: 12
#     Node 27, Type 1, BuildingBlock: EZIPEK_clean_sbu_0, # of connection points: 12
#     Node 28, Type 1, BuildingBlock: EZIPEK_clean_sbu_0, # of connection points: 12
#     Node 29, Type 1, BuildingBlock: EZIPEK_clean_sbu_0, # of connection points: 12
#     Edge 30, Type (0, 1), BuildingBlock: TEMPAE_clean_linker_10, # of connection points: 2
#     Edge 31, Type (0, 1), BuildingBlock: TEMPAE_clean_linker_10, # of connection points: 2
#     Edge 32, Type (0, 1), BuildingBlock: TEMPAE_clean_linker_10, # of connection points: 2
#     Edge 33, Type (0, 1), BuildingBlock: TEMPAE_clean_linker_10, # of connection points: 2
#     Edge 34, Type (0, 1), BuildingBlock: TEMPAE_clean_linker_10, # of connection points: 2
#     Edge 35, Type (0, 1), BuildingBlock: TEMPAE_clean_linker_10, # of connection points: 2
#     Edge 36, Type (0, 1), BuildingBlock: TEMPAE_clean_linker_10, # of connection points: 2
#     Edge 37, Type (0, 1), BuildingBlock: TEMPAE_clean_linker_10, # of connection points: 2
#     Edge 38, Type (0, 1), BuildingBlock: TEMPAE_clean_linker_10, # of connection points: 2
#     Edge 39, Type (0, 1), BuildingBlock: TEMPAE_clean_linker_10, # of connection points: 2
#     Edge 40, Type (0, 1), BuildingBlock: TEMPAE_clean_linker_10, # of connection points: 2
#     Edge 41, Type (0, 1), BuildingBlock: TEMPAE_clean_linker_10, # of connection points: 2
#     Edge 42, Type (0, 1), BuildingBlock: TEMPAE_clean_linker_10, # of connection points: 2
#     Edge 43, Type (0, 1), BuildingBlock: TEMPAE_clean_linker_10, # of connection points: 2
#     Edge 44, Type (0, 1), BuildingBlock: TEMPAE_clean_linker_10, # of connection points: 2
#     Edge 45, Type (0, 1), BuildingBlock: TEMPAE_clean_linker_10, # of connection points: 2
#     Edge 46, Type (0, 1), BuildingBlock: TEMPAE_clean_linker_10, # of connection points: 2
#     Edge 47, Type (0, 1), BuildingBlock: TEMPAE_clean_linker_10, # of connection points: 2
#     Edge 48, Type (0, 1), BuildingBlock: TEMPAE_clean_linker_10, # of connection points: 2
#     Edge 49, Type (0, 1), BuildingBlock: TEMPAE_clean_linker_10, # of connection points: 2
#     Edge 50, Type (0, 1), BuildingBlock: TEMPAE_clean_linker_10, # of connection points: 2
#     Edge 51, Type (0, 1), BuildingBlock: TEMPAE_clean_linker_10, # of connection points: 2
#     Edge 52, Type (0, 1), BuildingBlock: TEMPAE_clean_linker_10, # of connection points: 2
#     Edge 53, Type (0, 1), BuildingBlock: TEMPAE_clean_linker_10, # of connection points: 2
#     Edge 54, Type (0, 1), BuildingBlock: TEMPAE_clean_linker_10, # of connection points: 2
#     Edge 55, Type (0, 1), BuildingBlock: TEMPAE_clean_linker_10, # of connection points: 2
#     Edge 56, Type (0, 1), BuildingBlock: TEMPAE_clean_linker_10, # of connection points: 2
#     Edge 57, Type (0, 1), BuildingBlock: TEMPAE_clean_linker_10, # of connection points: 2
#     Edge 58, Type (0, 1), BuildingBlock: TEMPAE_clean_linker_10, # of connection points: 2
#     Edge 59, Type (0, 1), BuildingBlock: TEMPAE_clean_linker_10, # of connection points: 2
#     Edge 60, Type (0, 1), BuildingBlock: TEMPAE_clean_linker_10, # of connection points: 2
#     Edge 61, Type (0, 1), BuildingBlock: TEMPAE_clean_linker_10, # of connection points: 2
#     Edge 62, Type (0, 1), BuildingBlock: TEMPAE_clean_linker_10, # of connection points: 2
#     Edge 63, Type (0, 1), BuildingBlock: TEMPAE_clean_linker_10, # of connection points: 2
#     Edge 64, Type (0, 1), BuildingBlock: TEMPAE_clean_linker_10, # of connection points: 2
#     Edge 65, Type (0, 1), BuildingBlock: TEMPAE_clean_linker_10, # of connection points: 2
#     Edge 66, Type (0, 1), BuildingBlock: TEMPAE_clean_linker_10, # of connection points: 2
#     Edge 67, Type (0, 1), BuildingBlock: TEMPAE_clean_linker_10, # of connection points: 2
#     Edge 68, Type (0, 1), BuildingBlock: TEMPAE_clean_linker_10, # of connection points: 2
#     Edge 69, Type (0, 1), BuildingBlock: TEMPAE_clean_linker_10, # of connection points: 2
#     Edge 70, Type (0, 1), BuildingBlock: TEMPAE_clean_linker_10, # of connection points: 2
#     Edge 71, Type (0, 1), BuildingBlock: TEMPAE_clean_linker_10, # of connection points: 2
#     Edge 72, Type (0, 1), BuildingBlock: TEMPAE_clean_linker_10, # of connection points: 2
#     Edge 73, Type (0, 1), BuildingBlock: TEMPAE_clean_linker_10, # of connection points: 2
#     Edge 74, Type (0, 1), BuildingBlock: TEMPAE_clean_linker_10, # of connection points: 2
#     Edge 75, Type (0, 1), BuildingBlock: TEMPAE_clean_linker_10, # of connection points: 2
#     Edge 76, Type (0, 1), BuildingBlock: TEMPAE_clean_linker_10, # of connection points: 2
#     Edge 77, Type (0, 1), BuildingBlock: TEMPAE_clean_linker_10, # of connection points: 2
#     Edge 78, Type (0, 1), BuildingBlock: TEMPAE_clean_linker_10, # of connection points: 2
#     Edge 79, Type (0, 1), BuildingBlock: TEMPAE_clean_linker_10, # of connection points: 2
#     Edge 80, Type (0, 1), BuildingBlock: TEMPAE_clean_linker_10, # of connection points: 2
#     Edge 81, Type (0, 1), BuildingBlock: TEMPAE_clean_linker_10, # of connection points: 2
#     Edge 82, Type (0, 1), BuildingBlock: TEMPAE_clean_linker_10, # of connection points: 2
#     Edge 83, Type (0, 1), BuildingBlock: TEMPAE_clean_linker_10, # of connection points: 2
#     Edge 84, Type (0, 1), BuildingBlock: TEMPAE_clean_linker_10, # of connection points: 2
#     Edge 85, Type (0, 1), BuildingBlock: TEMPAE_clean_linker_10, # of connection points: 2
#     Edge 86, Type (0, 1), BuildingBlock: TEMPAE_clean_linker_10, # of connection points: 2
#     Edge 87, Type (0, 1), BuildingBlock: TEMPAE_clean_linker_10, # of connection points: 2
#     Edge 88, Type (0, 1), BuildingBlock: TEMPAE_clean_linker_10, # of connection points: 2
#     Edge 89, Type (0, 1), BuildingBlock: TEMPAE_clean_linker_10, # of connection points: 2
#     Edge 90, Type (0, 1), BuildingBlock: TEMPAE_clean_linker_10, # of connection points: 2
#     Edge 91, Type (0, 1), BuildingBlock: TEMPAE_clean_linker_10, # of connection points: 2
#     Edge 92, Type (0, 1), BuildingBlock: TEMPAE_clean_linker_10, # of connection points: 2
#     Edge 93, Type (0, 1), BuildingBlock: TEMPAE_clean_linker_10, # of connection points: 2
#     Edge 94, Type (0, 1), BuildingBlock: TEMPAE_clean_linker_10, # of connection points: 2
#     Edge 95, Type (0, 1), BuildingBlock: TEMPAE_clean_linker_10, # of connection points: 2
#     Edge 96, Type (0, 1), BuildingBlock: TEMPAE_clean_linker_10, # of connection points: 2
#     Edge 97, Type (0, 1), BuildingBlock: TEMPAE_clean_linker_10, # of connection points: 2
#     Edge 98, Type (0, 1), BuildingBlock: TEMPAE_clean_linker_10, # of connection points: 2
#     Edge 99, Type (0, 1), BuildingBlock: TEMPAE_clean_linker_10, # of connection points: 2
#     Edge 100, Type (0, 1), BuildingBlock: TEMPAE_clean_linker_10, # of connection points: 2
#     Edge 101, Type (0, 1), BuildingBlock: TEMPAE_clean_linker_10, # of connection points: 2
# Relax obj value: 0.069
# Max RMSD: 0.163
# Mean RMSD: 0.123
data_MOF--net-llk--node1-EZIPEK_clean_sbu_0--node2-PAMTOO_clean_linker_0--edge1-TEMPAE_clean_linker_10
_symmetry_space_group_name_H-M    P1
_symmetry_Int_Tables_number       1
_symmetry_cell_setting            triclinic
loop_
_symmetry_equiv_pos_as_xyz
'x, y, z'
_cell_length_a     46.866753
_cell_length_b     47.876609
_cell_length_c     47.364802
_cell_angle_alpha  90.032515
_cell_angle_beta   89.986319
_cell_angle_gamma 89.996189
loop_
_atom_site_label
_atom_site_type_symbol
_atom_site_fract_x
_atom_site_fract_y
_atom_site_fract_z
_atom_type_partial_charge
H0 H 0.01776 0.33702 0.25289 0.0
H1 H 0.02344 0.26339 0.30452 0.0
H2 H 0.01884 0.25562 0.21408 0.0
H3 H 0.99788 0.19525 0.25228 0.0
C4 C 1.00029 0.21087 0.26945 0.0
O5 O 0.02321 0.22806 0.26298 0.0
H6 H 0.98009 0.22316 0.27014 0.0
C7 C 0.01875 0.31444 0.25469 0.0
C8 C 0.01794 0.29803 0.23024 0.0
C9 C 0.02065 0.30214 0.28143 0.0
C10 C 0.02174 0.27304 0.28389 0.0
C11 C 0.02102 0.25616 0.25981 0.0
C12 C 0.01918 0.26863 0.23279 0.0
H13 H 0.76563 0.98997 0.33151 0.0
H14 H 0.71739 0.99466 0.25444 0.0
H15 H 0.80896 1.00036 0.25204 0.0
H16 H 0.77288 0.02742 0.19159 0.0
C17 C 0.75543 0.02332 0.20689 0.0
O18 O 0.76165 0.99903 0.22146 0.0
H19 H 0.75462 0.04157 0.2215 0.0
C20 C 0.76498 0.99161 0.30867 0.0
C21 C 0.7905 0.99467 0.29358 0.0
C22 C 0.73857 0.99201 0.29484 0.0
C23 C 0.73769 0.99467 0.26541 0.0
C24 C 0.76297 0.99756 0.24996 0.0
C25 C 0.78943 0.99803 0.26405 0.0
H26 H 0.00386 0.76188 0.33295 0.0
H27 H 0.01741 0.71236 0.2584 0.0
H28 H 0.01923 0.80199 0.25291 0.0
H29 H 0.0048 0.76607 0.18769 0.0
C30 C 0.00282 0.74962 0.20408 0.0
O31 O 0.02378 0.75406 0.22429 0.0
H32 H 0.98118 0.75194 0.21359 0.0
C33 C 0.00733 0.76062 0.31034 0.0
C34 C 0.0108 0.78529 0.2947 0.0
C35 C 0.00991 0.73434 0.29752 0.0
C36 C 0.0154 0.73258 0.26853 0.0
C37 C 0.01821 0.75674 0.25229 0.0
C38 C 0.01634 0.78325 0.2654 0.0
H39 H 0.33816 0.98956 0.25677 0.0
H40 H 0.25927 0.9943 0.3029 0.0
H41 H 0.25897 1.00189 0.21243 0.0
H42 H 0.19667 0.02887 0.2486 0.0
C43 C 0.21285 0.02467 0.26518 0.0
O44 O 0.22708 1.00025 0.25843 0.0
H45 H 0.22776 0.04282 0.26527 0.0
C46 C 0.31508 0.99141 0.25695 0.0
C47 C 0.30044 0.99518 0.23144 0.0
C48 C 0.30052 0.99148 0.28277 0.0
C49 C 0.27081 0.99449 0.28306 0.0
C50 C 0.25584 0.99815 0.25777 0.0
C51 C 0.27065 0.99895 0.23194 0.0
H52 H 0.01661 0.68412 0.75888 0.0
H53 H 0.02412 0.75784 0.70766 0.0
H54 H 0.01832 0.76535 0.79807 0.0
H55 H 0.99869 0.82606 0.76027 0.0
C56 C 1.00087 0.81049 0.74302 0.0
O57 O 0.02363 0.79304 0.74934 0.0
H58 H 0.98054 0.79842 0.74233 0.0
C59 C 0.01791 0.70669 0.75722 0.0
C60 C 0.01693 0.72301 0.78175 0.0
C61 C 0.02051 0.71906 0.73057 0.0
C62 C 0.02198 0.74815 0.72823 0.0
C63 C 0.02113 0.76495 0.75237 0.0
C64 C 0.01877 0.75239 0.77933 0.0
H65 H 0.33847 0.01202 0.76004 0.0
H66 H 0.26183 0.02074 0.71083 0.0
H67 H 0.25755 0.02296 0.80154 0.0
H68 H 0.19179 1.00632 0.76688 0.0
C69 C 0.20856 1.00457 0.7504 0.0
O70 O 0.2279 0.02607 0.7541 0.0
H71 H 0.21891 0.98382 0.7535 0.0
C72 C 0.31548 0.01447 0.7589 0.0
C73 C 0.29975 0.01736 0.78384 0.0
C74 C 0.302 0.01546 0.73254 0.0
C75 C 0.27246 0.01963 0.73113 0.0
C76 C 0.25637 0.02189 0.75592 0.0
C77 C 0.26997 0.02066 0.78239 0.0
H78 H 0.01646 0.25767 0.67933 0.0
H79 H 0.02113 0.30876 0.75385 0.0
H80 H 0.01492 0.2194 0.76168 0.0
H81 H 0.98972 0.25774 0.81976 0.0
C82 C 0.9951 0.27546 0.80559 0.0
O83 O 0.01872 0.26789 0.78961 0.0
H84 H 0.97619 0.27915 0.79182 0.0
C85 C 0.01701 0.25944 0.70217 0.0
C86 C 0.01547 0.23525 0.71875 0.0
C87 C 0.019 0.2859 0.71464 0.0
C88 C 0.0195 0.28834 0.74406 0.0
C89 C 0.01788 0.2646 0.76114 0.0
C90 C 0.01602 0.23785 0.7485 0.0
H91 H 0.76676 0.03002 0.68134 0.0
H92 H 0.7168 0.0231 0.75707 0.0
H93 H 0.80812 0.01483 0.76104 0.0
H94 H 0.76987 0.98327 0.81643 0.0
C95 C 0.75175 0.99114 0.80357 0.0
O96 O 0.76016 0.01579 0.79073 0.0
H97 H 0.74659 0.97481 0.7876 0.0
C98 C 0.76559 0.02745 0.70407 0.0
C99 C 0.7907 0.02307 0.7195 0.0
C100 C 0.73891 0.02707 0.71734 0.0
C101 C 0.73735 0.02318 0.74659 0.0
C102 C 0.76219 0.01885 0.76239 0.0
C103 C 0.78893 0.0183 0.7488 0.0
H104 H 0.26368 0.33686 0.99099 0.0
H105 H 0.3139 0.26181 0.99452 0.0
H106 H 0.22237 0.25706 1.00052 0.0
H107 H 0.26019 0.19807 0.02705 0.0
C108 C 0.27775 0.21294 0.0224 0.0
O109 O 0.27073 0.22791 0.99836 0.0
H110 H 0.27962 0.22711 0.041 0.0
C111 C 0.2649 0.31427 0.99251 0.0
C112 C 0.23976 0.29872 0.99544 0.0
C113 C 0.29162 0.30122 0.99258 0.0
C114 C 0.29331 0.27213 0.99489 0.0
C115 C 0.26849 0.25613 0.99766 0.0
C116 C 0.2416 0.26944 0.99841 0.0
H117 H 0.26324 0.68681 0.99293 0.0
H118 H 0.31368 0.76005 0.00941 0.0
H119 H 0.2221 0.76474 0.01305 0.0
H120 H 0.25633 0.82983 1.00199 0.0
C121 C 0.2735 0.81426 0.99835 0.0
O122 O 0.27066 0.79312 0.01814 0.0
H123 H 0.27043 0.80593 0.97657 0.0
C124 C 0.26452 0.709 0.99741 0.0
C125 C 0.23937 0.72413 1.00211 0.0
C126 C 0.29133 0.72164 1.00022 0.0
C127 C 0.29306 0.75004 0.00712 0.0
C128 C 0.26824 0.76575 0.01119 0.0
C129 C 0.24128 0.75273 0.00914 0.0
H130 H 0.76661 0.33311 0.99264 0.0
H131 H 0.71671 0.25979 0.0101 0.0
H132 H 0.80834 0.2558 0.01378 0.0
H133 H 0.77499 0.19056 1.00309 0.0
C134 C 0.75761 0.20591 0.9994 0.0
O135 O 0.7601 0.22713 0.01911 0.0
H136 H 0.76079 0.21398 0.97754 0.0
C137 C 0.7655 0.31096 0.9974 0.0
C138 C 0.79075 0.2961 1.0023 0.0
C139 C 0.7388 0.29819 1.00035 0.0
C140 C 0.73726 0.2699 0.00769 0.0
C141 C 0.76222 0.25444 0.01197 0.0
C142 C 0.78907 0.26762 0.00973 0.0
H143 H 0.76669 0.68767 0.98955 0.0
H144 H 0.71693 0.76298 0.99389 0.0
H145 H 0.80845 0.76701 1.00056 0.0
H146 H 0.77091 0.82602 0.02763 0.0
C147 C 0.75346 0.81105 0.02289 0.0
O148 O 0.76044 0.7965 0.99857 0.0
H149 H 0.75185 0.79663 0.0413 0.0
C150 C 0.76558 0.71025 0.99134 0.0
C151 C 0.79077 0.72559 0.99469 0.0
C152 C 0.73896 0.72346 0.99142 0.0
C153 C 0.73745 0.75253 0.99416 0.0
C154 C 0.76239 0.7683 0.99733 0.0
C155 C 0.78916 0.75481 0.99808 0.0
H156 H 0.52734 0.83784 0.75452 0.0
H157 H 0.52358 0.7637 0.80552 0.0
H158 H 0.51501 0.75754 0.71526 0.0
H159 H 0.48415 0.70328 0.75505 0.0
C160 C 0.49287 0.71551 0.77302 0.0
O161 O 0.51734 0.7291 0.76384 0.0
H162 H 0.47617 0.7308 0.77948 0.0
C163 C 0.52543 0.81531 0.75616 0.0
C164 C 0.5216 0.79941 0.73161 0.0
C165 C 0.52566 0.80269 0.78283 0.0
C166 C 0.523 0.77366 0.78498 0.0
C167 C 0.51913 0.75726 0.76085 0.0
C168 C 0.51798 0.77017 0.734 0.0
H169 H 0.26589 0.5231 0.829 0.0
H170 H 0.21693 0.50402 0.75465 0.0
H171 H 0.30854 0.50028 0.75186 0.0
H172 H 0.27602 0.50814 0.68488 0.0
C173 C 0.25921 0.51326 0.70059 0.0
O174 O 0.2609 0.49426 0.72251 0.0
H175 H 0.26383 0.53487 0.7081 0.0
C176 C 0.26502 0.51786 0.80672 0.0
C177 C 0.29045 0.51263 0.79207 0.0
C178 C 0.23846 0.51459 0.79356 0.0
C179 C 0.23733 0.50665 0.7651 0.0
C180 C 0.26251 0.502 0.74994 0.0
C181 C 0.28912 0.50457 0.7635 0.0
H182 H 0.51508 0.26355 0.83398 0.0
H183 H 0.52151 0.21215 0.75979 0.0
H184 H 0.51968 0.30168 0.75169 0.0
H185 H 0.49879 0.26427 0.69039 0.0
C186 C 0.50051 0.24724 0.70621 0.0
O187 O 0.52323 0.25311 0.72402 0.0
H188 H 0.48001 0.24712 0.71817 0.0
C189 C 0.51659 0.2617 0.81119 0.0
C190 C 0.51696 0.28589 0.79455 0.0
C191 C 0.51822 0.23516 0.79884 0.0
C192 C 0.52005 0.23263 0.76947 0.0
C193 C 0.52047 0.2564 0.75236 0.0
C194 C 0.5191 0.28322 0.76489 0.0
H195 H 0.83883 0.50701 0.75506 0.0
H196 H 0.76098 0.49776 0.80219 0.0
H197 H 0.75813 0.50516 0.71169 0.0
H198 H 0.69294 0.52204 0.7468 0.0
C199 C 0.70974 0.52159 0.76332 0.0
O200 O 0.72752 0.49911 0.75819 0.0
H201 H 0.72156 0.54174 0.76156 0.0
C202 C 0.81574 0.50543 0.75555 0.0
C203 C 0.80029 0.50672 0.7303 0.0
C204 C 0.80178 0.5021 0.78145 0.0
C205 C 0.77198 0.50027 0.78221 0.0
C206 C 0.75625 0.50139 0.75712 0.0
C207 C 0.77037 0.50441 0.73107 0.0
H208 H 0.52229 0.18542 0.25963 0.0
H209 H 0.523 0.25927 0.20801 0.0
H210 H 0.51325 0.2665 0.2981 0.0
H211 H 0.48516 0.3216 0.25823 0.0
C212 C 0.49307 0.30874 0.24032 0.0
O213 O 0.51718 0.29442 0.24929 0.0
H214 H 0.47568 0.29395 0.2345 0.0
C215 C 0.5214 0.208 0.25778 0.0
C216 C 0.51786 0.22425 0.28211 0.0
C217 C 0.52297 0.22042 0.23106 0.0
C218 C 0.52157 0.24951 0.22861 0.0
C219 C 0.518 0.26625 0.25255 0.0
C220 C 0.51597 0.25362 0.27949 0.0
H221 H 0.83672 0.49775 0.25793 0.0
H222 H 0.76119 0.51748 0.21043 0.0
H223 H 0.75863 0.51827 0.30111 0.0
H224 H 0.68967 0.51212 0.26642 0.0
C225 C 0.70682 0.50666 0.25122 0.0
O226 O 0.72886 0.52563 0.25436 0.0
H227 H 0.71411 0.48515 0.25663 0.0
C228 C 0.81415 0.50272 0.25735 0.0
C229 C 0.79937 0.50703 0.28273 0.0
C230 C 0.80068 0.50659 0.23123 0.0
C231 C 0.77186 0.51432 0.23047 0.0
C232 C 0.75661 0.518 0.25558 0.0
C233 C 0.77039 0.51471 0.28175 0.0
H234 H 0.51638 0.7581 0.17954 0.0
H235 H 0.52261 0.80883 0.25424 0.0
H236 H 0.519 0.71932 0.26159 0.0
H237 H 0.49804 0.7572 0.3232 0.0
C238 C 0.5001 0.77396 0.30713 0.0
O239 O 0.52298 0.76761 0.28968 0.0
H240 H 0.47976 0.77406 0.29492 0.0
C241 C 0.51764 0.75977 0.20236 0.0
C242 C 0.51733 0.73546 0.21882 0.0
C243 C 0.5195 0.78619 0.21494 0.0
C244 C 0.52097 0.78846 0.24436 0.0
C245 C 0.52067 0.76457 0.26128 0.0
C246 C 0.51899 0.73787 0.24853 0.0
H247 H 0.26708 0.51294 0.1817 0.0
H248 H 0.21797 0.52052 0.25799 0.0
H249 H 0.30943 0.51337 0.26236 0.0
H250 H 0.27369 0.49461 0.32512 0.0
C251 C 0.2564 0.49606 0.30915 0.0
O252 O 0.26175 0.5188 0.29194 0.0
H253 H 0.25697 0.4762 0.29686 0.0
C254 C 0.26615 0.51408 0.20457 0.0
C255 C 0.29139 0.51255 0.22027 0.0
C256 C 0.23972 0.51705 0.21795 0.0
C257 C 0.23837 0.51828 0.24745 0.0
C258 C 0.26343 0.51694 0.26348 0.0
C259 C 0.29006 0.51428 0.24991 0.0
H260 H 0.76268 0.8369 0.50376 0.0
H261 H 0.81355 0.7624 0.49776 0.0
H262 H 0.72212 0.75617 0.50411 0.0
H263 H 0.75947 0.69564 0.52501 0.0
C264 C 0.77702 0.71099 0.52235 0.0
O265 O 0.77081 0.7278 0.49934 0.0
H266 H 0.77783 0.72359 0.54214 0.0
C267 C 0.76411 0.81429 0.50291 0.0
C268 C 0.73918 0.79827 0.50438 0.0
C269 C 0.79088 0.80155 0.5005 0.0
C270 C 0.79288 0.7724 0.49967 0.0
C271 C 0.76824 0.75596 0.50101 0.0
C272 C 0.74122 0.76888 0.50323 0.0
H273 H 0.76222 0.1861 0.49496 0.0
H274 H 0.81355 0.25897 0.51058 0.0
H275 H 0.72201 0.26482 0.51364 0.0
H276 H 0.75635 0.3286 0.50034 0.0
C277 C 0.77394 0.31325 0.49786 0.0
O278 O 0.77085 0.29276 0.51827 0.0
H279 H 0.77168 0.30427 0.47625 0.0
C280 C 0.76382 0.20832 0.49923 0.0
C281 C 0.73887 0.22385 0.50357 0.0
C282 C 0.79077 0.22067 0.50197 0.0
C283 C 0.79282 0.24916 0.50843 0.0
C284 C 0.76818 0.26525 0.51206 0.0
C285 C 0.74108 0.25252 0.51009 0.0
H286 H 0.26829 0.83281 0.49504 0.0
H287 H 0.21668 0.75983 0.50934 0.0
H288 H 0.30805 0.75458 0.51615 0.0
H289 H 0.27472 0.69031 0.50276 0.0
C290 C 0.25724 0.70557 0.49921 0.0
O291 O 0.25933 0.72646 0.5193 0.0
H292 H 0.26043 0.71406 0.47751 0.0
C293 C 0.26657 0.81062 0.49938 0.0
C294 C 0.29132 0.79526 0.50494 0.0
C295 C 0.2396 0.79814 0.50112 0.0
C296 C 0.23743 0.76971 0.50782 0.0
C297 C 0.26202 0.75384 0.51265 0.0
C298 C 0.28907 0.76668 0.51158 0.0
H299 H 0.26542 0.18937 0.52184 0.0
H300 H 0.21643 0.26291 0.50288 0.0
H301 H 0.30806 0.26557 0.49845 0.0
H302 H 0.27507 0.33189 0.50717 0.0
C303 C 0.25799 0.31647 0.51178 0.0
O304 O 0.26021 0.2947 0.49267 0.0
H305 H 0.26183 0.30911 0.53378 0.0
C306 C 0.26459 0.21142 0.5166 0.0
C307 C 0.29001 0.22582 0.51111 0.0
C308 C 0.23804 0.22448 0.5135 0.0
C309 C 0.23685 0.2526 0.50546 0.0
C310 C 0.26199 0.26758 0.50059 0.0
C311 C 0.28866 0.25412 0.50298 0.0
C312 C 0.01662 0.94306 0.57545 0.0
C313 C 0.01705 0.943 0.4373 0.0
C314 C 0.01614 0.07859 0.57534 0.0
C315 C 0.01583 0.0785 0.43712 0.0
C316 C 0.94746 0.07818 0.50478 0.0
C317 C 0.94844 0.94264 0.50587 0.0
C318 C 0.08508 0.07922 0.5091 0.0
C319 C 0.08612 0.94339 0.50387 0.0
C320 C 0.08584 0.01365 0.43747 0.0
C321 C 0.94789 1.00858 0.43759 0.0
C322 C 0.08583 1.00933 0.57524 0.0
C323 C 0.94801 0.01171 0.57542 0.0
Eu324 Eu 0.01725 0.95784 0.50635 0.0
O325 O 0.99167 0.98594 0.48157 0.0
O326 O 0.0426 0.98613 0.53132 0.0
Eu327 Eu 0.96255 0.01049 0.5065 0.0
Eu328 Eu 0.07134 0.01119 0.50633 0.0
O329 O 0.99149 0.98571 0.53145 0.0
O330 O 0.04256 0.98615 0.48134 0.0
Eu331 Eu 0.01684 0.01084 0.55948 0.0
Eu332 Eu 0.01684 0.01075 0.45316 0.0
O333 O 0.99124 0.03565 0.53133 0.0
O334 O 0.9912 0.03546 0.48138 0.0
O335 O 0.04222 0.03587 0.48131 0.0
O336 O 0.04206 0.03578 0.53116 0.0
Eu337 Eu 0.01646 0.06386 0.50622 0.0
O338 O 0.01736 0.93427 0.54856 0.0
O339 O 0.01725 0.93438 0.46421 0.0
O340 O 0.01582 0.08725 0.54844 0.0
O341 O 0.017 0.08732 0.46398 0.0
O342 O 0.93866 0.05166 0.50579 0.0
O343 O 0.9393 0.96903 0.50706 0.0
O344 O 0.09443 0.05286 0.50815 0.0
O345 O 0.09509 0.96988 0.50479 0.0
O346 O 0.05857 0.01287 0.42943 0.0
O347 O 0.9751 1.0089 0.42937 0.0
O348 O 0.05854 1.00963 0.58322 0.0
O349 O 0.97526 0.01174 0.58351 0.0
O350 O 0.05792 0.08737 0.5083 0.0
O351 O 0.9745 0.08681 0.50474 0.0
O352 O 0.05908 0.93487 0.50452 0.0
O353 O 0.97558 0.93433 0.50512 0.0
O354 O 0.01709 0.96969 0.42905 0.0
O355 O 0.01514 0.05173 0.42918 0.0
O356 O 0.01609 0.96982 0.58343 0.0
O357 O 0.01675 0.0519 0.58357 0.0
O358 O 0.93888 0.011 0.54865 0.0
O359 O 0.93883 1.00945 0.4644 0.0
O360 O 0.09514 1.01014 0.54851 0.0
O361 O 0.09512 0.01283 0.4642 0.0
C362 C 0.51501 0.94462 0.07687 0.0
C363 C 0.51662 0.07984 0.07461 0.0
C364 C 0.51649 0.94226 0.94019 0.0
C365 C 0.51428 0.07748 0.93791 0.0
C366 C 0.58462 1.00927 0.93896 0.0
C367 C 0.58501 0.01365 0.07546 0.0
C368 C 0.44543 0.0112 0.93948 0.0
C369 C 0.44593 1.01016 0.07578 0.0
C370 C 0.44552 0.07886 0.00858 0.0
C371 C 0.58484 0.07872 1.00503 0.0
C372 C 0.44532 0.94345 0.00792 0.0
C373 C 0.58474 0.94345 0.0099 0.0
Eu374 Eu 0.51544 0.01194 0.06106 0.0
O375 O 0.54043 0.03641 0.03204 0.0
O376 O 0.49019 0.98664 0.03296 0.0
Eu377 Eu 0.5688 0.01112 0.00726 0.0
Eu378 Eu 0.46161 0.01113 0.00762 0.0
O379 O 0.54046 0.98649 0.03284 0.0
O380 O 0.49004 0.03653 0.03238 0.0
Eu381 Eu 0.5151 0.95788 0.00822 0.0
Eu382 Eu 0.51518 0.06428 0.00659 0.0
O383 O 0.54026 0.98576 0.98263 0.0
O384 O 0.54028 0.03563 0.98174 0.0
O385 O 0.49003 0.03556 0.98196 0.0
O386 O 0.4898 0.98564 0.98259 0.0
Eu387 Eu 0.51507 1.01014 0.95374 0.0
O388 O 0.51638 0.97121 0.08522 0.0
O389 O 0.51526 0.05351 0.08376 0.0
O390 O 0.51502 0.96858 0.93105 0.0
O391 O 0.51557 0.05088 0.92956 0.0
O392 O 0.59287 1.00996 0.96591 0.0
O393 O 0.59309 0.0135 0.04844 0.0
O394 O 0.43727 0.01194 0.96645 0.0
O395 O 0.43758 1.0098 0.04888 0.0
O396 O 0.47262 0.08772 0.00751 0.0
O397 O 0.55776 0.08767 1.00559 0.0
O398 O 0.47242 0.93451 0.00782 0.0
O399 O 0.55766 0.93455 0.00941 0.0
O400 O 0.47247 1.0101 0.93045 0.0
O401 O 0.55752 1.00902 0.93003 0.0
O402 O 0.473 0.01141 0.08467 0.0
O403 O 0.55799 0.0127 0.08458 0.0
O404 O 0.51718 0.08806 0.04772 0.0
O405 O 0.51354 0.08652 0.96456 0.0
O406 O 0.51386 0.9356 0.05023 0.0
O407 O 0.51706 0.93404 0.96709 0.0
O408 O 0.59293 0.97016 0.00933 0.0
O409 O 0.59298 0.052 1.00531 0.0
O410 O 0.43732 0.97022 0.00774 0.0
O411 O 0.43739 0.05213 0.0089 0.0
C412 C 0.01431 0.4428 0.07494 0.0
C413 C 0.01407 0.44261 0.93801 0.0
C414 C 0.01351 0.57976 0.07496 0.0
C415 C 0.01333 0.57945 0.93806 0.0
C416 C 0.94475 0.5792 1.0055 0.0
C417 C 0.94536 0.4424 1.0061 0.0
C418 C 0.08262 0.57952 1.00605 0.0
C419 C 0.08309 0.44296 1.00549 0.0
C420 C 0.08226 0.51289 0.93769 0.0
C421 C 0.94398 0.50993 0.93866 0.0
C422 C 0.08245 0.51218 0.07514 0.0
C423 C 0.94423 0.50968 0.07474 0.0
Eu424 Eu 0.01412 0.4586 0.00647 0.0
O425 O 0.98836 0.48629 0.9814 0.0
O426 O 0.03927 0.4866 0.03187 0.0
Eu427 Eu 0.95951 0.51083 0.00666 0.0
Eu428 Eu 0.06803 0.51116 0.00646 0.0
O429 O 0.98852 0.48637 0.03174 0.0
O430 O 0.03926 0.48654 0.98108 0.0
Eu431 Eu 0.01353 0.51129 0.06036 0.0
Eu432 Eu 0.01335 0.51104 0.95267 0.0
O433 O 0.98804 0.53594 0.03184 0.0
O434 O 0.98808 0.53569 0.98135 0.0
O435 O 0.03883 0.53557 0.98137 0.0
O436 O 0.039 0.53578 0.03161 0.0
Eu437 Eu 0.0136 0.56364 0.00645 0.0
O438 O 0.01408 0.43485 0.0479 0.0
O439 O 0.01463 0.43478 0.96506 0.0
O440 O 0.01384 0.58748 0.04785 0.0
O441 O 0.01324 0.58746 0.96507 0.0
O442 O 0.93565 0.55265 1.00608 0.0
O443 O 0.93608 0.46887 0.0068 0.0
O444 O 0.09173 0.55298 0.00674 0.0
O445 O 0.09208 0.46953 1.00594 0.0
O446 O 0.05514 0.51255 0.9292 0.0
O447 O 0.97095 0.5112 0.92964 0.0
O448 O 0.05537 0.51279 0.08372 0.0
O449 O 0.97126 0.51056 0.08362 0.0
O450 O 0.05532 0.58744 1.00567 0.0
O451 O 0.97198 0.58718 1.00572 0.0
O452 O 0.05585 0.43492 1.00573 0.0
O453 O 0.97267 0.43461 1.00577 0.0
O454 O 0.01328 0.46916 0.929 0.0
O455 O 0.01348 0.55286 0.92914 0.0
O456 O 0.01441 0.4694 0.08387 0.0
O457 O 0.01306 0.55321 0.084 0.0
O458 O 0.93563 0.50969 0.04792 0.0
O459 O 0.93547 0.50931 0.9655 0.0
O460 O 0.09145 0.51097 0.04839 0.0
O461 O 0.09134 0.51206 0.96444 0.0
C462 C 0.51618 0.44359 0.07502 0.0
C463 C 0.51611 0.57905 0.07501 0.0
C464 C 0.51736 0.44349 0.93691 0.0
C465 C 0.51554 0.57903 0.93693 0.0
C466 C 0.58582 0.51308 0.93743 0.0
C467 C 0.58528 0.51211 0.07529 0.0
C468 C 0.44772 0.51127 0.93693 0.0
C469 C 0.44751 0.51041 0.07481 0.0
C470 C 0.44736 0.57884 1.00446 0.0
C471 C 0.58498 0.57937 1.00379 0.0
C472 C 0.44791 0.44326 1.00387 0.0
C473 C 0.58546 0.44347 1.00448 0.0
Eu474 Eu 0.51638 0.51132 0.05903 0.0
O475 O 0.54193 0.53631 0.03098 0.0
O476 O 0.49103 0.4863 0.03086 0.0
Eu477 Eu 0.57105 0.51139 0.00626 0.0
Eu478 Eu 0.46217 0.5111 1.00591 0.0
O479 O 0.54217 0.48635 0.03109 0.0
O480 O 0.49075 0.53621 0.03095 0.0
Eu481 Eu 0.51668 0.45832 1.00593 0.0
Eu482 Eu 0.51625 0.56424 1.00592 0.0
O483 O 0.54218 0.48658 0.98109 0.0
O484 O 0.54188 0.53598 0.98127 0.0
O485 O 0.49107 0.53591 0.98096 0.0
O486 O 0.49127 0.48644 0.98095 0.0
Eu487 Eu 0.5167 0.51128 0.95274 0.0
O488 O 0.51699 0.47033 0.08309 0.0
O489 O 0.51554 0.55234 0.08317 0.0
O490 O 0.51696 0.47018 0.92866 0.0
O491 O 0.51644 0.55233 0.92876 0.0
O492 O 0.59501 0.51195 0.96418 0.0
O493 O 0.59472 0.5116 0.04858 0.0
O494 O 0.43861 0.51081 0.96373 0.0
O495 O 0.43842 0.51119 0.04802 0.0
O496 O 0.47443 0.58735 1.00478 0.0
O497 O 0.55782 0.58757 1.00362 0.0
O498 O 0.47504 0.43495 1.00366 0.0
O499 O 0.55835 0.43513 1.00487 0.0
O500 O 0.47497 0.51158 0.92881 0.0
O501 O 0.55858 0.51298 0.92929 0.0
O502 O 0.47473 0.51011 0.08297 0.0
O503 O 0.55791 0.51214 0.08298 0.0
O504 O 0.51675 0.5877 0.0481 0.0
O505 O 0.51505 0.58774 0.96381 0.0
O506 O 0.51559 0.43481 0.04813 0.0
O507 O 0.51753 0.43489 0.96382 0.0
O508 O 0.59458 0.46991 1.00535 0.0
O509 O 0.59427 0.55302 1.00546 0.0
O510 O 0.43876 0.46965 1.00537 0.0
O511 O 0.43842 0.55235 1.00521 0.0
C512 C 0.01538 0.4435 0.57552 0.0
C513 C 0.01486 0.44175 0.4389 0.0
C514 C 0.01617 0.57881 0.57365 0.0
C515 C 0.01421 0.57705 0.43696 0.0
C516 C 0.94576 0.57831 0.50737 0.0
C517 C 0.94511 0.4429 0.50639 0.0
C518 C 0.08511 0.57756 0.50415 0.0
C519 C 0.08446 0.4424 0.50769 0.0
C520 C 0.08415 0.50745 0.43752 0.0
C521 C 0.94506 0.50961 0.43862 0.0
C522 C 0.08532 0.5115 0.57401 0.0
C523 C 0.94612 0.51105 0.57489 0.0
Eu524 Eu 0.01484 0.45712 0.50697 0.0
O525 O 0.98968 0.4852 0.48158 0.0
O526 O 0.04042 0.48549 0.53159 0.0
Eu527 Eu 0.96153 0.51051 0.50665 0.0
Eu528 Eu 0.06867 0.51003 0.50586 0.0
O529 O 0.98993 0.48572 0.53205 0.0
O530 O 0.03984 0.48504 0.48129 0.0
Eu531 Eu 0.01562 0.51085 0.55998 0.0
Eu532 Eu 0.0147 0.50968 0.45257 0.0
O533 O 0.99045 0.53552 0.53123 0.0
O534 O 0.98982 0.53512 0.48094 0.0
O535 O 0.04033 0.53491 0.48046 0.0
O536 O 0.04058 0.5354 0.53095 0.0
Eu537 Eu 0.01543 0.56348 0.50557 0.0
O538 O 0.01413 0.4346 0.54886 0.0
O539 O 0.01574 0.43344 0.46575 0.0
O540 O 0.01687 0.58711 0.54679 0.0
O541 O 0.01517 0.58598 0.46365 0.0
O542 O 0.93753 0.55161 0.50743 0.0
O543 O 0.9371 0.46967 0.50643 0.0
O544 O 0.09309 0.55079 0.50393 0.0
O545 O 0.09267 0.46909 0.50758 0.0
O546 O 0.05707 0.50893 0.42861 0.0
O547 O 0.97207 0.50963 0.42946 0.0
O548 O 0.05833 0.51114 0.58329 0.0
O549 O 0.97325 0.5105 0.58369 0.0
O550 O 0.05809 0.58662 0.50506 0.0
O551 O 0.9729 0.58708 0.50642 0.0
O552 O 0.05735 0.43355 0.5072 0.0
O553 O 0.97217 0.43388 0.50677 0.0
O554 O 0.01384 0.46812 0.42982 0.0
O555 O 0.01374 0.55045 0.42854 0.0
O556 O 0.01661 0.47006 0.58398 0.0
O557 O 0.01513 0.55243 0.58274 0.0
O558 O 0.93764 0.51123 0.54803 0.0
O559 O 0.93695 0.50997 0.4656 0.0
O560 O 0.09318 0.51143 0.54693 0.0
O561 O 0.09245 0.50734 0.46445 0.0
C562 C 0.51472 0.94321 0.57522 0.0
C563 C 0.51231 0.942 0.43829 0.0
C564 C 0.51261 0.07998 0.57395 0.0
C565 C 0.51253 0.0789 0.43701 0.0
C566 C 0.44415 0.07896 0.50671 0.0
C567 C 0.44495 0.9422 0.50739 0.0
C568 C 0.58205 0.07955 0.5048 0.0
C569 C 0.58276 0.94298 0.50657 0.0
C570 C 0.58131 1.00827 0.43681 0.0
C571 C 0.44308 1.00777 0.43876 0.0
C572 C 0.58251 0.01462 0.57408 0.0
C573 C 0.44432 0.01125 0.57481 0.0
Eu574 Eu 0.51371 0.95848 0.5067 0.0
O575 O 0.48792 0.98601 0.48151 0.0
O576 O 0.53918 0.9867 0.53153 0.0
Eu577 Eu 0.45907 0.01062 0.5066 0.0
Eu578 Eu 0.56757 0.0112 0.50559 0.0
O579 O 0.48811 0.98631 0.53189 0.0
O580 O 0.53844 0.98637 0.48093 0.0
Eu581 Eu 0.51351 0.01152 0.55991 0.0
Eu582 Eu 0.51253 0.01051 0.45225 0.0
O583 O 0.48797 0.03574 0.53117 0.0
O584 O 0.48724 0.03547 0.48074 0.0
O585 O 0.53838 0.03554 0.48028 0.0
O586 O 0.53857 0.03584 0.53068 0.0
Eu587 Eu 0.51305 0.06353 0.50553 0.0
O588 O 0.51449 0.93503 0.54826 0.0
O589 O 0.51278 0.93435 0.46541 0.0
O590 O 0.5126 0.08766 0.54683 0.0
O591 O 0.51242 0.087 0.46399 0.0
O592 O 0.43512 0.05239 0.50637 0.0
O593 O 0.43567 0.96867 0.50723 0.0
O594 O 0.59118 0.05302 0.5048 0.0
O595 O 0.59168 0.96958 0.50611 0.0
O596 O 0.55413 1.00831 0.42849 0.0
O597 O 0.46996 1.00924 0.4295 0.0
O598 O 0.55549 0.0143 0.58286 0.0
O599 O 0.47144 0.01202 0.58345 0.0
O600 O 0.55473 0.08743 0.50513 0.0
O601 O 0.47137 0.08702 0.50642 0.0
O602 O 0.55553 0.93488 0.50672 0.0
O603 O 0.47228 0.93448 0.50735 0.0
O604 O 0.51234 0.96847 0.42903 0.0
O605 O 0.51276 0.05222 0.42829 0.0
O606 O 0.5144 0.96989 0.5839 0.0
O607 O 0.5131 0.05352 0.58317 0.0
O608 O 0.43548 0.01041 0.54808 0.0
O609 O 0.43478 1.00805 0.46566 0.0
O610 O 0.59136 0.01296 0.5473 0.0
O611 O 0.59059 1.00986 0.46344 0.0
C612 C 0.19207 0.20685 0.49421 0.0
C613 C 0.21186 0.20761 0.51632 0.0
C614 C 0.16988 0.18725 0.49419 0.0
C615 C 0.16746 0.16825 0.51696 0.0
C616 C 0.18636 0.17011 0.54016 0.0
C617 C 0.20848 0.18974 0.5395 0.0
C618 C 0.15009 0.1858 0.46907 0.0
C619 C 0.1841 0.15047 0.56501 0.0
C620 C 0.09878 0.12729 0.52382 0.0
C621 C 0.10645 0.10163 0.51164 0.0
C622 C 0.11854 0.14909 0.52607 0.0
C623 C 0.14647 0.1452 0.51555 0.0
C624 C 0.15442 0.1193 0.50339 0.0
C625 C 0.13432 0.09769 0.50178 0.0
C626 C 0.1095 0.17627 0.53961 0.0
C627 C 0.18404 0.11454 0.49177 0.0
H628 H 0.1949 0.22051 0.47617 0.0
H629 H 0.22375 0.19055 0.55668 0.0
H630 H 0.15366 0.16591 0.45755 0.0
H631 H 0.12752 0.18598 0.47611 0.0
H632 H 0.15346 0.20341 0.45418 0.0
H633 H 0.19862 0.1565 0.58252 0.0
H634 H 0.1619 0.14998 0.57312 0.0
H635 H 0.18958 0.12896 0.55818 0.0
H636 H 0.07733 0.13029 0.53186 0.0
H637 H 0.14025 0.07792 0.49227 0.0
H638 H 0.11128 0.19354 0.5241 0.0
H639 H 0.12389 0.18137 0.55748 0.0
H640 H 0.08721 0.17554 0.54758 0.0
H641 H 0.18862 0.12998 0.47491 0.0
H642 H 0.18674 0.0932 0.48293 0.0
H643 H 0.20013 0.11768 0.50866 0.0
C644 C 0.83664 0.20315 0.52175 0.0
C645 C 0.81653 0.20305 0.49989 0.0
C646 C 0.85915 0.18388 0.52197 0.0
C647 C 0.86162 0.16436 0.49964 0.0
C648 C 0.84211 0.16507 0.47686 0.0
C649 C 0.81965 0.18435 0.47735 0.0
C650 C 0.87948 0.18357 0.54671 0.0
C651 C 0.84439 0.14484 0.45248 0.0
C652 C 0.93173 0.12597 0.49096 0.0
C653 C 0.92541 0.10008 0.50334 0.0
C654 C 0.91108 0.14706 0.48938 0.0
C655 C 0.88367 0.14224 0.50085 0.0
C656 C 0.8772 0.11619 0.51349 0.0
C657 C 0.89812 0.0953 0.51436 0.0
C658 C 0.91855 0.17442 0.47533 0.0
C659 C 0.84824 0.11046 0.52624 0.0
H660 H 0.83401 0.21745 0.53932 0.0
H661 H 0.80414 0.18448 0.46036 0.0
H662 H 0.87715 0.16365 0.55844 0.0
H663 H 0.90186 0.18472 0.53919 0.0
H664 H 0.87559 0.20115 0.56153 0.0
H665 H 0.82885 0.14959 0.43543 0.0
H666 H 0.86623 0.1453 0.44346 0.0
H667 H 0.84044 0.12327 0.46008 0.0
H668 H 0.95274 0.12964 0.48212 0.0
H669 H 0.89325 0.07538 0.52412 0.0
H670 H 0.91613 0.19184 0.4906 0.0
H671 H 0.90364 0.17851 0.45762 0.0
H672 H 0.94072 0.17462 0.46702 0.0
H673 H 0.8435 0.12614 0.54286 0.0
H674 H 0.84684 0.08928 0.53571 0.0
H675 H 0.83147 0.11243 0.50984 0.0
C676 C 0.81867 0.84006 0.4787 0.0
C677 C 0.8166 0.81913 0.49921 0.0
C678 C 0.8415 0.8589 0.47886 0.0
C679 C 0.86231 0.85698 0.50041 0.0
C680 C 0.86071 0.83534 0.52072 0.0
C681 C 0.83789 0.81644 0.51971 0.0
C682 C 0.84285 0.88137 0.45651 0.0
C683 C 0.88236 0.83293 0.5442 0.0
C684 C 0.93212 0.89557 0.49053 0.0
C685 C 0.92664 0.92057 0.50497 0.0
C686 C 0.91137 0.87458 0.48888 0.0
C687 C 0.88483 0.87856 0.50252 0.0
C688 C 0.87939 0.90358 0.51756 0.0
C689 C 0.9003 0.92446 0.51834 0.0
C690 C 0.91763 0.84843 0.47215 0.0
C691 C 0.85145 0.90833 0.53273 0.0
H692 H 0.80214 0.8419 0.46278 0.0
H693 H 0.836 0.80029 0.53566 0.0
H694 H 0.83979 0.90216 0.46641 0.0
H695 H 0.86415 0.88145 0.44628 0.0
H696 H 0.8263 0.87855 0.43997 0.0
H697 H 0.87889 0.81406 0.5574 0.0
H698 H 0.90427 0.83216 0.53538 0.0
H699 H 0.88111 0.85166 0.55796 0.0
H700 H 0.95243 0.89267 0.47994 0.0
H701 H 0.89618 0.9437 0.52972 0.0
H702 H 0.90196 0.84627 0.45473 0.0
H703 H 0.91537 0.82975 0.48581 0.0
H704 H 0.93945 0.84853 0.46297 0.0
H705 H 0.83365 0.90849 0.5173 0.0
H706 H 0.85117 0.92836 0.54459 0.0
H707 H 0.84735 0.891 0.54774 0.0
C708 C 0.21162 0.83442 0.47554 0.0
C709 C 0.21394 0.81575 0.49818 0.0
C710 C 0.18964 0.85421 0.47468 0.0
C711 C 0.16982 0.85544 0.49718 0.0
C712 C 0.17135 0.83582 0.51948 0.0
C713 C 0.19339 0.81605 0.51963 0.0
C714 C 0.18833 0.87451 0.45031 0.0
C715 C 0.15063 0.83665 0.54389 0.0
C716 C 0.13528 0.92535 0.51255 0.0
C717 C 0.10786 0.92131 0.50159 0.0
C718 C 0.15568 0.90399 0.51127 0.0
C719 C 0.14854 0.87827 0.49826 0.0
C720 C 0.12108 0.87431 0.4866 0.0
C721 C 0.10096 0.89584 0.48861 0.0
C722 C 0.18474 0.90878 0.52417 0.0
C723 C 0.11291 0.84736 0.4721 0.0
H724 H 0.22749 0.83399 0.45888 0.0
H725 H 0.19541 0.80177 0.53728 0.0
H726 H 0.16653 0.87495 0.44119 0.0
H727 H 0.19317 0.89589 0.45797 0.0
H728 H 0.20375 0.86914 0.43333 0.0
H729 H 0.15368 0.81886 0.55864 0.0
H730 H 0.15346 0.85641 0.55582 0.0
H731 H 0.12835 0.83628 0.53603 0.0
H732 H 0.14058 0.94498 0.5227 0.0
H733 H 0.07986 0.89279 0.47975 0.0
H734 H 0.20156 0.90619 0.50789 0.0
H735 H 0.1888 0.89301 0.54086 0.0
H736 H 0.18682 0.92994 0.53361 0.0
H737 H 0.12814 0.84276 0.45477 0.0
H738 H 0.091 0.84809 0.46318 0.0
H739 H 0.11415 0.82979 0.4873 0.0
C740 C 0.50423 0.20548 0.18431 0.0
C741 C 0.52464 0.20266 0.2057 0.0
C742 C 0.50349 0.18672 0.16162 0.0
C743 C 0.52394 0.16501 0.16023 0.0
C744 C 0.5454 0.16289 0.18113 0.0
C745 C 0.54533 0.18165 0.20383 0.0
C746 C 0.48006 0.18934 0.1399 0.0
C747 C 0.56786 0.14029 0.18001 0.0
C748 C 0.50461 0.09805 0.12232 0.0
C749 C 0.51805 0.10184 0.09621 0.0
C750 C 0.50601 0.11872 0.1432 0.0
C751 C 0.52177 0.14341 0.13796 0.0
C752 C 0.53554 0.14727 0.11167 0.0
C753 C 0.53325 0.1265 0.09093 0.0
C754 C 0.49063 0.11411 0.17085 0.0
C755 C 0.55299 0.17309 0.1056 0.0
H756 H 0.4881 0.22164 0.186 0.0
H757 H 0.5612 0.17969 0.22037 0.0
H758 H 0.48925 0.19004 0.11833 0.0
H759 H 0.46598 0.17072 0.14094 0.0
H760 H 0.46681 0.20831 0.14318 0.0
H761 H 0.58446 0.14306 0.19652 0.0
H762 H 0.5577 0.11958 0.18301 0.0
H763 H 0.57836 0.14009 0.15901 0.0
H764 H 0.49266 0.07906 0.1263 0.0
H765 H 0.54391 0.12929 0.07081 0.0
H766 H 0.47557 0.13156 0.17486 0.0
H767 H 0.5062 0.11387 0.18848 0.0
H768 H 0.4785 0.09417 0.17114 0.0
H769 H 0.53942 0.19199 0.10745 0.0
H770 H 0.56266 0.17268 0.08418 0.0
H771 H 0.57033 0.17512 0.12142 0.0
C772 C 0.81754 0.52647 0.18558 0.0
C773 C 0.81763 0.50447 0.20505 0.0
C774 C 0.83663 0.52668 0.16281 0.0
C775 C 0.85599 0.50423 0.15945 0.0
C776 C 0.85509 0.48125 0.1782 0.0
C777 C 0.83596 0.48172 0.20091 0.0
C778 C 0.83711 0.55159 0.14326 0.0
C779 C 0.87514 0.45676 0.175 0.0
C780 C 0.89502 0.49671 0.08983 0.0
C781 C 0.9217 0.50832 0.0964 0.0
C782 C 0.87341 0.49508 0.11019 0.0
C783 C 0.87853 0.50568 0.13759 0.0
C784 C 0.90535 0.51757 0.14431 0.0
C785 C 0.92673 0.51855 0.12365 0.0
C786 C 0.84519 0.48189 0.10245 0.0
C787 C 0.91145 0.52932 0.17329 0.0
H788 H 0.80353 0.54418 0.18896 0.0
H789 H 0.83579 0.4646 0.21589 0.0
H790 H 0.85753 0.56303 0.14588 0.0
H791 H 0.83591 0.54468 0.12093 0.0
H792 H 0.81924 0.56626 0.14746 0.0
H793 H 0.86992 0.43948 0.18978 0.0
H794 H 0.87442 0.4486 0.15308 0.0
H795 H 0.89736 0.46364 0.17912 0.0
H796 H 0.89114 0.48849 0.06884 0.0
H797 H 0.94725 0.52772 0.12875 0.0
H798 H 0.8277 0.49725 0.10524 0.0
H799 H 0.84066 0.46407 0.11673 0.0
H800 H 0.84484 0.47424 0.0803 0.0
H801 H 0.89569 0.54584 0.1785 0.0
H802 H 0.93323 0.53836 0.17489 0.0
H803 H 0.90925 0.51267 0.18942 0.0
C804 C 0.4998 0.8326 0.20133 0.0
C805 C 0.51993 0.81141 0.19713 0.0
C806 C 0.49874 0.85573 0.18322 0.0
C807 C 0.51865 0.85776 0.16083 0.0
C808 C 0.5397 0.83685 0.1572 0.0
C809 C 0.5399 0.81373 0.17528 0.0
C810 C 0.47571 0.8774 0.18738 0.0
C811 C 0.56158 0.83858 0.13385 0.0
C812 C 0.50018 0.89803 0.09465 0.0
C813 C 0.51491 0.9231 0.099 0.0
C814 C 0.50051 0.87692 0.11508 0.0
C815 C 0.51651 0.88082 0.14011 0.0
C816 C 0.53126 0.90621 0.14473 0.0
C817 C 0.53001 0.92725 0.12418 0.0
C818 C 0.48407 0.85031 0.10968 0.0
C819 C 0.54896 0.91084 0.17095 0.0
H820 H 0.48429 0.83058 0.21821 0.0
H821 H 0.55561 0.79736 0.17232 0.0
H822 H 0.48528 0.89853 0.189 0.0
H823 H 0.4613 0.87752 0.16879 0.0
H824 H 0.46276 0.87342 0.20661 0.0
H825 H 0.57777 0.82169 0.13527 0.0
H826 H 0.55081 0.83705 0.11305 0.0
H827 H 0.57268 0.85904 0.13455 0.0
H828 H 0.48822 0.89497 0.0753 0.0
H829 H 0.54158 0.94661 0.12743 0.0
H830 H 0.46947 0.84595 0.12759 0.0
H831 H 0.49905 0.83244 0.10806 0.0
H832 H 0.4713 0.85132 0.08994 0.0
H833 H 0.53565 0.90793 0.19009 0.0
H834 H 0.5586 0.93203 0.1716 0.0
H835 H 0.56636 0.89513 0.17186 0.0
C836 C 0.2115 0.53918 0.17975 0.0
C837 C 0.21375 0.51861 0.2006 0.0
C838 C 0.18876 0.53904 0.16062 0.0
C839 C 0.1682 0.51744 0.16216 0.0
C840 C 0.16992 0.4971 0.1838 0.0
C841 C 0.19266 0.49808 0.20301 0.0
C842 C 0.18728 0.56141 0.13819 0.0
C843 C 0.14854 0.4736 0.18583 0.0
C844 C 0.09856 0.5271 0.12287 0.0
C845 C 0.1043 0.51321 0.09742 0.0
C846 C 0.11915 0.52858 0.14424 0.0
C847 C 0.14584 0.5154 0.14018 0.0
C848 C 0.15158 0.50097 0.11469 0.0
C849 C 0.1308 0.50031 0.09344 0.0
C850 C 0.11255 0.54466 0.1709 0.0
C851 C 0.17969 0.4863 0.10984 0.0
H852 H 0.22792 0.55507 0.1781 0.0
H853 H 0.19473 0.48208 0.21908 0.0
H854 H 0.19066 0.55192 0.11708 0.0
H855 H 0.16584 0.57124 0.13807 0.0
H856 H 0.20358 0.57796 0.14139 0.0
H857 H 0.15197 0.46043 0.20483 0.0
H858 H 0.12651 0.48204 0.18644 0.0
H859 H 0.15017 0.46016 0.1668 0.0
H860 H 0.07814 0.53732 0.12587 0.0
H861 H 0.13514 0.48934 0.07386 0.0
H862 H 0.12801 0.56205 0.17342 0.0
H863 H 0.11488 0.5309 0.18958 0.0
H864 H 0.09062 0.55349 0.17082 0.0
H865 H 0.19734 0.50174 0.11001 0.0
H866 H 0.18021 0.47487 0.08942 0.0
H867 H 0.18383 0.47124 0.12716 0.0
C868 C 0.54774 0.84107 0.81096 0.0
C869 C 0.52695 0.82021 0.80842 0.0
C870 C 0.54737 0.85967 0.83379 0.0
C871 C 0.52539 0.85754 0.85418 0.0
C872 C 0.50485 0.83597 0.85214 0.0
C873 C 0.50601 0.81739 0.82932 0.0
C874 C 0.56991 0.88215 0.83559 0.0
C875 C 0.48089 0.83333 0.8733 0.0
C876 C 0.53315 0.89552 0.92397 0.0
C877 C 0.51817 0.92028 0.91853 0.0
C878 C 0.53587 0.8749 0.90314 0.0
C879 C 0.52278 0.87901 0.87655 0.0
C880 C 0.50722 0.90378 0.87114 0.0
C881 C 0.50536 0.92429 0.89214 0.0
C882 C 0.55306 0.84896 0.90941 0.0
C883 C 0.49256 0.90866 0.84317 0.0
H884 H 0.56404 0.84304 0.79482 0.0
H885 H 0.48977 0.8014 0.82712 0.0
H886 H 0.55992 0.90294 0.83252 0.0
H887 H 0.57991 0.88215 0.85682 0.0
H888 H 0.58688 0.87943 0.81944 0.0
H889 H 0.46766 0.81442 0.86961 0.0
H890 H 0.48955 0.83247 0.89507 0.0
H891 H 0.46692 0.852 0.87203 0.0
H892 H 0.54334 0.89256 0.94431 0.0
H893 H 0.49359 0.94336 0.88801 0.0
H894 H 0.5708 0.847 0.89402 0.0
H895 H 0.53948 0.83013 0.90706 0.0
H896 H 0.56216 0.84915 0.93108 0.0
H897 H 0.50857 0.90897 0.82592 0.0
H898 H 0.48052 0.92865 0.84274 0.0
H899 H 0.47754 0.8913 0.83865 0.0
C900 C 0.20871 0.54027 0.82867 0.0
C901 C 0.21219 0.51738 0.81055 0.0
C902 C 0.18613 0.54117 0.84802 0.0
C903 C 0.16683 0.51849 0.84936 0.0
C904 C 0.16947 0.49593 0.83019 0.0
C905 C 0.19212 0.49571 0.81087 0.0
C906 C 0.18369 0.56577 0.86785 0.0
C907 C 0.14932 0.47134 0.83112 0.0
C908 C 0.1316 0.5043 0.9199 0.0
C909 C 0.10404 0.51461 0.9153 0.0
C910 C 0.15222 0.50535 0.8985 0.0
C911 C 0.14515 0.5174 0.8721 0.0
C912 C 0.11749 0.52825 0.86749 0.0
C913 C 0.09717 0.52654 0.88911 0.0
C914 C 0.1815 0.49335 0.90405 0.0
C915 C 0.10937 0.54166 0.83978 0.0
H916 H 0.22416 0.55713 0.8282 0.0
H917 H 0.19499 0.47789 0.79703 0.0
H918 H 0.16164 0.57419 0.86765 0.0
H919 H 0.18832 0.55891 0.88974 0.0
H920 H 0.19872 0.58285 0.86226 0.0
H921 H 0.153 0.45652 0.81343 0.0
H922 H 0.15213 0.45994 0.85132 0.0
H923 H 0.12686 0.47859 0.8303 0.0
H924 H 0.13692 0.49494 0.94006 0.0
H925 H 0.07595 0.53487 0.88559 0.0
H926 H 0.19795 0.5098 0.9014 0.0
H927 H 0.18623 0.47664 0.88849 0.0
H928 H 0.18344 0.48448 0.92563 0.0
H929 H 0.12416 0.55912 0.83495 0.0
H930 H 0.0872 0.54987 0.83994 0.0
H931 H 0.11137 0.52623 0.82241 0.0
C932 C 0.49774 0.18927 0.81314 0.0
C933 C 0.51829 0.21014 0.81692 0.0
C934 C 0.49643 0.16636 0.83154 0.0
C935 C 0.51653 0.16422 0.85375 0.0
C936 C 0.53792 0.18484 0.85699 0.0
C937 C 0.53836 0.20775 0.83866 0.0
C938 C 0.47304 0.14499 0.8278 0.0
C939 C 0.56002 0.18297 0.88013 0.0
C940 C 0.49912 0.12408 0.92033 0.0
C941 C 0.51373 0.09897 0.91574 0.0
C942 C 0.49905 0.14514 0.89984 0.0
C943 C 0.51451 0.14115 0.87448 0.0
C944 C 0.52906 0.11569 0.8696 0.0
C945 C 0.52823 0.09472 0.89023 0.0
C946 C 0.4828 0.17181 0.90552 0.0
C947 C 0.5462 0.11097 0.84302 0.0
H948 H 0.48216 0.19136 0.79636 0.0
H949 H 0.55437 0.22389 0.8413 0.0
H950 H 0.48231 0.12375 0.82595 0.0
H951 H 0.459 0.14501 0.84667 0.0
H952 H 0.45978 0.14917 0.80883 0.0
H953 H 0.5763 0.19976 0.87856 0.0
H954 H 0.54947 0.18453 0.90104 0.0
H955 H 0.57099 0.16245 0.87929 0.0
H956 H 0.4876 0.12722 0.93994 0.0
H957 H 0.53967 0.07533 0.88677 0.0
H958 H 0.46801 0.17631 0.88781 0.0
H959 H 0.49791 0.18959 0.90702 0.0
H960 H 0.47028 0.17079 0.92542 0.0
H961 H 0.5326 0.11417 0.82414 0.0
H962 H 0.55551 0.08964 0.84208 0.0
H963 H 0.56381 0.12642 0.84189 0.0
C964 C 0.84041 0.48084 0.81006 0.0
C965 C 0.81881 0.50086 0.8075 0.0
C966 C 0.85923 0.48138 0.83298 0.0
C967 C 0.85661 0.50281 0.85341 0.0
C968 C 0.83417 0.52253 0.85139 0.0
C969 C 0.81529 0.52115 0.82847 0.0
C970 C 0.88254 0.45965 0.83476 0.0
C971 C 0.831 0.54586 0.87262 0.0
C972 C 0.89605 0.49417 0.92263 0.0
C973 C 0.92142 0.50869 0.91711 0.0
C974 C 0.87461 0.49218 0.90213 0.0
C975 C 0.87849 0.50554 0.87579 0.0
C976 C 0.90384 0.52072 0.87033 0.0
C977 C 0.92519 0.52184 0.89099 0.0
C978 C 0.84814 0.4753 0.90841 0.0
C979 C 0.90849 0.53561 0.8426 0.0
H980 H 0.8429 0.46511 0.79376 0.0
H981 H 0.79863 0.53671 0.82619 0.0
H982 H 0.90362 0.46974 0.83166 0.0
H983 H 0.8827 0.44985 0.85598 0.0
H984 H 0.88 0.44299 0.81862 0.0
H985 H 0.81133 0.55833 0.86908 0.0
H986 H 0.8305 0.53734 0.89438 0.0
H987 H 0.8497 0.56001 0.87122 0.0
H988 H 0.89324 0.48376 0.94277 0.0
H989 H 0.94471 0.53328 0.88683 0.0
H990 H 0.84639 0.45775 0.89319 0.0
H991 H 0.82883 0.48843 0.90578 0.0
H992 H 0.84822 0.4666 0.93015 0.0
H993 H 0.90909 0.5202 0.82511 0.0
H994 H 0.92869 0.54775 0.84233 0.0
H995 H 0.89048 0.55005 0.83834 0.0
C996 C 0.71 0.68602 0.96904 0.0
C997 C 0.71298 0.70622 0.99021 0.0
C998 C 0.6878 0.66649 0.97005 0.0
C999 C 0.66852 0.66705 0.99303 0.0
C1000 C 0.67075 0.68817 0.01385 0.0
C1001 C 0.69294 0.70771 0.01207 0.0
C1002 C 0.68571 0.64459 0.94717 0.0
C1003 C 0.65065 0.68924 0.03875 0.0
C1004 C 0.59941 0.62663 0.98737 0.0
C1005 C 0.60646 0.60166 1.00121 0.0
C1006 C 0.61945 0.64811 0.98445 0.0
C1007 C 0.64699 0.64464 0.99604 0.0
C1008 C 0.6542 0.61956 0.01022 0.0
C1009 C 0.63387 0.5982 0.0124 0.0
C1010 C 0.61124 0.67435 0.96872 0.0
C1011 C 0.68334 0.61534 0.02313 0.0
H1012 H 0.72555 0.68506 0.95211 0.0
H1013 H 0.69555 0.72322 0.02857 0.0
H1014 H 0.69042 0.62371 0.95618 0.0
H1015 H 0.66372 0.64384 0.93853 0.0
H1016 H 0.70082 0.64856 0.92955 0.0
H1017 H 0.65418 0.70801 0.0521 0.0
H1018 H 0.62817 0.68921 0.03143 0.0
H1019 H 0.65367 0.67035 0.05198 0.0
H1020 H 0.57831 0.62924 0.97836 0.0
H1021 H 0.63928 0.57898 0.02325 0.0
H1022 H 0.62575 0.67746 0.95048 0.0
H1023 H 0.61362 0.6928 0.9827 0.0
H1024 H 0.58892 0.67365 0.96084 0.0
H1025 H 0.69996 0.61643 0.00648 0.0
H1026 H 0.68524 0.59493 0.03412 0.0
H1027 H 0.68787 0.63228 0.0385 0.0
C1028 C 0.3374 0.70448 0.01984 0.0
C1029 C 0.31727 0.7043 0.998 0.0
C1030 C 0.35991 0.68523 0.02013 0.0
C1031 C 0.36234 0.6656 0.99789 0.0
C1032 C 0.34291 0.66629 0.97505 0.0
C1033 C 0.32046 0.68559 0.97546 0.0
C1034 C 0.38022 0.68498 0.04488 0.0
C1035 C 0.34514 0.64594 0.95078 0.0
C1036 C 0.43211 0.62652 0.98998 0.0
C1037 C 0.42551 0.60086 1.00267 0.0
C1038 C 0.41166 0.64775 0.988 0.0
C1039 C 0.38415 0.64328 0.99938 0.0
C1040 C 0.37737 0.61743 0.01228 0.0
C1041 C 0.39811 0.59639 0.01356 0.0
C1042 C 0.41946 0.67488 0.97367 0.0
C1043 C 0.34828 0.61207 0.0249 0.0
H1044 H 0.33473 0.71878 0.03741 0.0
H1045 H 0.30496 0.68566 0.95847 0.0
H1046 H 0.37764 0.66522 0.05684 0.0
H1047 H 0.40262 0.68582 0.03738 0.0
H1048 H 0.3765 0.70277 0.0595 0.0
H1049 H 0.32983 0.65081 0.93357 0.0
H1050 H 0.36707 0.64606 0.94195 0.0
H1051 H 0.34082 0.62446 0.95844 0.0
H1052 H 0.4532 0.62991 0.9812 0.0
H1053 H 0.39303 0.57662 0.02352 0.0
H1054 H 0.41712 0.6925 0.98871 0.0
H1055 H 0.4047 0.6789 0.95581 0.0
H1056 H 0.44168 0.67479 0.96548 0.0
H1057 H 0.34356 0.62795 0.04132 0.0
H1058 H 0.34663 0.591 0.03457 0.0
H1059 H 0.33164 0.61402 0.00836 0.0
C1060 C 0.33793 0.3165 0.01306 0.0
C1061 C 0.31759 0.31853 0.99152 0.0
C1062 C 0.36053 0.33561 0.01468 0.0
C1063 C 0.36287 0.35685 0.99402 0.0
C1064 C 0.34319 0.35802 0.9714 0.0
C1065 C 0.32058 0.33892 0.97056 0.0
C1066 C 0.381 0.33394 0.03923 0.0
C1067 C 0.34538 0.38005 0.9487 0.0
C1068 C 0.39904 0.42494 0.01336 0.0
C1069 C 0.4262 0.42115 1.00167 0.0
C1070 C 0.37835 0.40392 0.0114 0.0
C1071 C 0.38489 0.37883 0.9969 0.0
C1072 C 0.41222 0.37499 0.98486 0.0
C1073 C 0.43267 0.39614 0.98762 0.0
C1074 C 0.3495 0.40853 0.02484 0.0
C1075 C 0.41971 0.34874 0.96878 0.0
H1076 H 0.33535 0.30083 0.02938 0.0
H1077 H 0.30483 0.34028 0.95385 0.0
H1078 H 0.40335 0.33351 0.03154 0.0
H1079 H 0.37865 0.35281 0.05265 0.0
H1080 H 0.37725 0.31517 0.05251 0.0
H1081 H 0.32984 0.37658 0.93133 0.0
H1082 H 0.34135 0.40096 0.95798 0.0
H1083 H 0.36722 0.38036 0.93965 0.0
H1084 H 0.3941 0.4442 0.02439 0.0
H1085 H 0.45359 0.39329 0.97826 0.0
H1086 H 0.34485 0.39149 0.04003 0.0
H1087 H 0.33261 0.40799 0.00844 0.0
H1088 H 0.34818 0.42882 0.03615 0.0
H1089 H 0.41719 0.33022 0.98261 0.0
H1090 H 0.44192 0.34912 0.96058 0.0
H1091 H 0.40489 0.34605 0.95072 0.0
C1092 C 0.69304 0.31605 0.01999 0.0
C1093 C 0.71284 0.31543 0.99787 0.0
C1094 C 0.67095 0.33577 0.02023 0.0
C1095 C 0.66864 0.35503 0.99768 0.0
C1096 C 0.68764 0.35343 0.97452 0.0
C1097 C 0.70965 0.33367 0.97496 0.0
C1098 C 0.65106 0.33695 0.04529 0.0
C1099 C 0.6855 0.37335 0.9499 0.0
C1100 C 0.59972 0.39546 0.99014 0.0
C1101 C 0.60702 0.42118 1.0024 0.0
C1102 C 0.61966 0.37379 0.98817 0.0
C1103 C 0.64741 0.37787 0.99907 0.0
C1104 C 0.65497 0.40381 0.0114 0.0
C1105 C 0.63469 0.42529 0.01272 0.0
C1106 C 0.61103 0.34658 0.97446 0.0
C1107 C 0.68439 0.40877 0.02342 0.0
H1108 H 0.69574 0.3021 0.03782 0.0
H1109 H 0.72494 0.33298 0.95778 0.0
H1110 H 0.65437 0.35684 0.05689 0.0
H1111 H 0.62852 0.33659 0.03815 0.0
H1112 H 0.65453 0.31932 0.06013 0.0
H1113 H 0.70035 0.36774 0.93251 0.0
H1114 H 0.66342 0.37365 0.94148 0.0
H1115 H 0.69057 0.39485 0.95707 0.0
H1116 H 0.57843 0.39232 0.98176 0.0
H1117 H 0.64033 0.44511 0.0223 0.0
H1118 H 0.61282 0.32927 0.98992 0.0
H1119 H 0.62564 0.34168 0.9567 0.0
H1120 H 0.58881 0.34712 0.96629 0.0
H1121 H 0.68894 0.3932 0.04017 0.0
H1122 H 0.68673 0.43004 0.03251 0.0
H1123 H 0.70071 0.40597 0.00668 0.0
C1124 C 1.0013 0.70438 0.68386 0.0
C1125 C 0.02161 0.70123 0.70527 0.0
C1126 C 1.00043 0.6857 0.66107 0.0
C1127 C 0.02072 0.66383 0.65961 0.0
C1128 C 0.04203 0.66136 0.68062 0.0
C1129 C 0.04203 0.67998 0.70341 0.0
C1130 C 0.97715 0.68865 0.63924 0.0
C1131 C 0.06434 0.63862 0.67945 0.0
C1132 C 0.00266 0.59691 0.62103 0.0
C1133 C 0.01678 0.60083 0.59529 0.0
C1134 C 0.00318 0.61764 0.64188 0.0
C1135 C 0.01876 0.64252 0.63703 0.0
C1136 C 0.0331 0.64656 0.61106 0.0
C1137 C 0.03166 0.62573 0.59032 0.0
C1138 C 0.98721 0.61284 0.66916 0.0
C1139 C 0.05041 0.67258 0.60544 0.0
H1140 H 0.98543 0.72079 0.68556 0.0
H1141 H 0.05782 0.67781 0.72 0.0
H1142 H 0.9865 0.68964 0.61776 0.0
H1143 H 0.96305 0.67004 0.63992 0.0
H1144 H 0.96392 0.7076 0.64271 0.0
H1145 H 0.08072 0.64099 0.69623 0.0
H1146 H 0.05399 0.61792 0.68195 0.0
H1147 H 0.07515 0.63869 0.65861 0.0
H1148 H 0.99091 0.57775 0.62473 0.0
H1149 H 0.04279 0.62864 0.57046 0.0
H1150 H 0.97223 0.63036 0.67313 0.0
H1151 H 0.00244 0.61224 0.68708 0.0
H1152 H 0.97492 0.593 0.66897 0.0
H1153 H 0.03675 0.69138 0.60756 0.0
H1154 H 0.06013 0.67254 0.58403 0.0
H1155 H 0.06771 0.67442 0.62132 0.0
C1156 C 0.33845 0.99065 0.70382 0.0
C1157 C 0.31932 0.01293 0.70669 0.0
C1158 C 0.35735 0.98942 0.68097 0.0
C1159 C 0.3573 0.01125 0.66085 0.0
C1160 C 0.33733 0.03334 0.66315 0.0
C1161 C 0.31836 0.03381 0.68604 0.0
C1162 C 0.37803 0.9653 0.67892 0.0
C1163 C 0.33689 0.05709 0.64219 0.0
C1164 C 0.4273 0.0237 0.62303 0.0
C1165 C 0.42202 0.0114 0.59672 0.0
C1166 C 0.40614 0.02427 0.64392 0.0
C1167 C 0.37932 0.01178 0.63844 0.0
C1168 C 0.3739 0.99923 0.61195 0.0
C1169 C 0.39528 0.99939 0.59128 0.0
C1170 C 0.41252 0.03819 0.67185 0.0
C1171 C 0.34571 0.9853 0.60561 0.0
H1172 H 0.33893 0.97441 0.71977 0.0
H1173 H 0.30365 0.05112 0.68849 0.0
H1174 H 0.37696 0.95567 0.65764 0.0
H1175 H 0.40014 0.97301 0.68195 0.0
H1176 H 0.37369 0.94893 0.69498 0.0
H1177 H 0.31886 0.07169 0.64597 0.0
H1178 H 0.35716 0.06898 0.64362 0.0
H1179 H 0.33528 0.04888 0.62034 0.0
H1180 H 0.44785 0.03325 0.62718 0.0
H1181 H 0.39122 0.98966 0.57099 0.0
H1182 H 0.41118 0.02263 0.68914 0.0
H1183 H 0.39639 0.05458 0.67627 0.0
H1184 H 0.43405 0.04788 0.67229 0.0
H1185 H 0.34195 0.96804 0.62078 0.0
H1186 H 0.34485 0.97669 0.58384 0.0
H1187 H 0.32801 1.00046 0.60825 0.0
C1188 C 0.9999 0.33234 0.70041 0.0
C1189 C 0.01999 0.31101 0.69669 0.0
C1190 C 0.99913 0.35524 0.68201 0.0
C1191 C 0.01927 0.35691 0.65979 0.0
C1192 C 0.04028 0.3359 0.65665 0.0
C1193 C 0.0402 0.313 0.67503 0.0
C1194 C 0.97615 0.37705 0.68566 0.0
C1195 C 0.0624 0.33726 0.63349 0.0
C1196 C 1.00104 0.39673 0.59324 0.0
C1197 C 0.01557 0.42191 0.59759 0.0
C1198 C 0.00149 0.37566 0.61371 0.0
C1199 C 0.01739 0.37973 0.63878 0.0
C1200 C 0.03204 0.40519 0.64333 0.0
C1201 C 0.03068 0.42617 0.62274 0.0
C1202 C 0.98515 0.34897 0.60838 0.0
C1203 C 0.04964 0.40999 0.66958 0.0
H1204 H 0.98417 0.33058 0.7171 0.0
H1205 H 0.05585 0.29651 0.67242 0.0
H1206 H 0.98577 0.39816 0.68712 0.0
H1207 H 0.96193 0.37699 0.66692 0.0
H1208 H 0.96298 0.37336 0.7048 0.0
H1209 H 0.07854 0.32036 0.63532 0.0
H1210 H 0.05184 0.33545 0.61262 0.0
H1211 H 0.07353 0.35771 0.63401 0.0
H1212 H 0.98909 0.39357 0.57389 0.0
H1213 H 0.0421 0.44561 0.62597 0.0
H1214 H 0.97033 0.34479 0.62616 0.0
H1215 H 1.00016 0.3311 0.60715 0.0
H1216 H 0.97262 0.34977 0.58848 0.0
H1217 H 0.03618 0.40748 0.68867 0.0
H1218 H 0.05948 0.43111 0.67001 0.0
H1219 H 0.06687 0.39414 0.67083 0.0
C1220 C 0.70996 0.04954 0.67952 0.0
C1221 C 0.71284 0.02862 0.69998 0.0
C1222 C 0.68741 0.04891 0.66013 0.0
C1223 C 0.66765 0.02658 0.66107 0.0
C1224 C 0.66982 1.00602 0.68244 0.0
C1225 C 0.69236 1.00741 0.70181 0.0
C1226 C 0.6854 0.07149 0.63796 0.0
C1227 C 0.64925 0.98179 0.68391 0.0
C1228 C 0.59788 0.03203 0.62118 0.0
C1229 C 0.6044 0.01774 0.59614 0.0
C1230 C 0.61837 0.03541 0.64241 0.0
C1231 C 0.64582 0.02374 0.63865 0.0
C1232 C 0.65252 1.00921 0.61344 0.0
C1233 C 0.63175 1.00663 0.5923 0.0
C1234 C 0.61069 0.05152 0.66877 0.0
C1235 C 0.68152 0.9962 0.60889 0.0
H1236 H 0.72579 0.06601 0.67829 0.0
H1237 H 0.69484 0.99108 0.71749 0.0
H1238 H 0.68978 0.06243 0.61684 0.0
H1239 H 0.66353 0.08033 0.6374 0.0
H1240 H 0.70081 0.08872 0.64179 0.0
H1241 H 0.65282 0.96858 0.70287 0.0
H1242 H 0.62693 0.98946 0.68422 0.0
H1243 H 0.65171 0.96856 0.66482 0.0
H1244 H 0.57682 0.041 0.62402 0.0
H1245 H 0.63677 0.99547 0.57301 0.0
H1246 H 0.62578 0.06914 0.67176 0.0
H1247 H 0.61263 0.03781 0.68754 0.0
H1248 H 0.58863 0.05999 0.66799 0.0
H1249 H 0.69828 0.01254 0.60974 0.0
H1250 H 0.6831 0.98521 0.58828 0.0
H1251 H 0.68611 0.98104 0.62601 0.0
C1252 C 0.0416 0.3414 0.3088 0.0
C1253 C 0.02136 0.32001 0.30673 0.0
C1254 C 0.04129 0.35993 0.33166 0.0
C1255 C 0.01987 0.35721 0.35253 0.0
C1256 C 0.99973 0.33522 0.35084 0.0
C1257 C 1.00089 0.31665 0.32798 0.0
C1258 C 0.06343 0.38282 0.33308 0.0
C1259 C 0.97634 0.33201 0.37252 0.0
C1260 C 0.03035 0.39488 0.42211 0.0
C1261 C 0.01539 0.41975 0.41725 0.0
C1262 C 0.03193 0.37418 0.40124 0.0
C1263 C 0.01766 0.37833 0.37526 0.0
C1264 C 0.00195 0.40316 0.37054 0.0
C1265 C 1.00128 0.42375 0.39152 0.0
C1266 C 0.04936 0.34821 0.40674 0.0
C1267 C 0.98605 0.40806 0.34325 0.0
H1268 H 0.05753 0.34372 0.29235 0.0
H1269 H 0.98516 0.30014 0.32612 0.0
H1270 H 0.05294 0.40346 0.33074 0.0
H1271 H 0.07417 0.38264 0.35395 0.0
H1272 H 0.07988 0.38071 0.31632 0.0
H1273 H 0.96322 0.31303 0.36884 0.0
H1274 H 0.98558 0.33089 0.39405 0.0
H1275 H 0.96216 0.35056 0.37192 0.0
H1276 H 0.04148 0.39191 0.44195 0.0
H1277 H 0.98948 0.4429 0.3879 0.0
H1278 H 0.06678 0.34661 0.39094 0.0
H1279 H 0.03584 0.32935 0.40436 0.0
H1280 H 0.05894 0.34812 0.4282 0.0
H1281 H 1.00135 0.40892 0.32539 0.0
H1282 H 0.9736 0.42781 0.34357 0.0
H1283 H 0.97122 0.39046 0.33907 0.0
C1284 C 0.6921 0.01291 0.30899 0.0
C1285 C 0.71214 0.99139 0.31172 0.0
C1286 C 0.66922 0.01514 0.32792 0.0
C1287 C 0.66626 0.99513 0.34972 0.0
C1288 C 0.68555 0.97246 0.35152 0.0
C1289 C 0.70845 0.97099 0.33258 0.0
C1290 C 0.64918 0.03972 0.32554 0.0
C1291 C 0.68272 0.95043 0.37416 0.0
C1292 C 0.63031 0.01648 0.41803 0.0
C1293 C 0.60292 1.00541 0.41441 0.0
C1294 C 0.651 0.01366 0.39686 0.0
C1295 C 0.64421 0.99891 0.37181 0.0
C1296 C 0.61664 0.98751 0.36813 0.0
C1297 C 0.5962 0.99112 0.38941 0.0
C1298 C 0.68013 0.02642 0.40132 0.0
C1299 C 0.60885 0.97118 0.34195 0.0
H1300 H 0.69519 0.02881 0.29298 0.0
H1301 H 0.72395 0.95427 0.33448 0.0
H1302 H 0.62669 0.03251 0.3253 0.0
H1303 H 0.65178 0.05346 0.34424 0.0
H1304 H 0.65318 0.05228 0.30622 0.0
H1305 H 0.69781 0.93281 0.37097 0.0
H1306 H 0.68697 0.95987 0.39514 0.0
H1307 H 0.66066 0.94205 0.37459 0.0
H1308 H 0.63547 0.02766 0.43728 0.0
H1309 H 0.57511 0.98221 0.3867 0.0
H1310 H 0.68518 0.04095 0.38377 0.0
H1311 H 0.69665 1.00982 0.40121 0.0
H1312 H 0.68163 0.03804 0.42157 0.0
H1313 H 0.61163 0.98442 0.32294 0.0
H1314 H 0.58649 0.96348 0.34251 0.0
H1315 H 0.62334 0.953 0.33961 0.0
C1316 C 0.98627 0.70525 0.33441 0.0
C1317 C 0.00845 0.7088 0.31492 0.0
C1318 C 0.986 0.68233 0.35278 0.0
C1319 C 0.00867 0.66282 0.35178 0.0
C1320 C 0.03065 0.66585 0.33153 0.0
C1321 C 0.0302 0.6888 0.3132 0.0
C1322 C 0.96201 0.67953 0.37388 0.0
C1323 C 0.05532 0.6456 0.33008 0.0
C1324 C 0.02525 0.62498 0.4199 0.0
C1325 C 0.01333 0.59862 0.41484 0.0
C1326 C 0.02421 0.64592 0.39933 0.0
C1327 C 0.01048 0.64046 0.37329 0.0
C1328 C 0.99837 0.61389 0.36804 0.0
C1329 C 1.00016 0.59315 0.38884 0.0
C1330 C 0.03773 0.67392 0.4055 0.0
C1331 C 0.9832 0.60753 0.34066 0.0
H1332 H 0.96932 0.72063 0.3355 0.0
H1333 H 0.04749 0.69173 0.29828 0.0
H1334 H 0.95263 0.65827 0.37281 0.0
H1335 H 0.97044 0.68242 0.39557 0.0
H1336 H 0.94482 0.6951 0.37028 0.0
H1337 H 0.06964 0.64986 0.31189 0.0
H1338 H 0.06802 0.64698 0.3498 0.0
H1339 H 0.04735 0.62385 0.3284 0.0
H1340 H 0.03567 0.62918 0.4399 0.0
H1341 H 0.99069 0.57284 0.38499 0.0
H1342 H 0.02128 0.69056 0.40488 0.0
H1343 H 0.05382 0.67894 0.38908 0.0
H1344 H 0.04832 0.67446 0.42648 0.0
H1345 H 0.96519 0.62227 0.33767 0.0
H1346 H 0.97476 0.58585 0.33999 0.0
H1347 H 0.99799 0.61048 0.32261 0.0
C1348 C 0.33795 0.96998 0.31308 0.0
C1349 C 0.317 0.99048 0.30926 0.0
C1350 C 0.35685 0.97134 0.33593 0.0
C1351 C 0.35492 0.99401 0.35502 0.0
C1352 C 0.33292 0.01405 0.35199 0.0
C1353 C 0.31403 0.01192 0.32916 0.0
C1354 C 0.3797 0.94928 0.33886 0.0
C1355 C 0.33039 0.03863 0.37182 0.0
C1356 C 0.39518 0.99047 0.42427 0.0
C1357 C 0.42039 1.00477 0.41748 0.0
C1358 C 0.37365 0.98668 0.40412 0.0
C1359 C 0.37728 0.99794 0.37677 0.0
C1360 C 0.40253 0.01272 0.36991 0.0
C1361 C 0.42396 0.01571 0.39031 0.0
C1362 C 0.34726 0.97032 0.41197 0.0
C1363 C 0.40693 0.02535 0.34101 0.0
H1364 H 0.34004 0.95333 0.29769 0.0
H1365 H 0.29795 0.0279 0.32597 0.0
H1366 H 0.4009 0.95864 0.33448 0.0
H1367 H 0.3802 0.94109 0.36076 0.0
H1368 H 0.37638 0.93154 0.32408 0.0
H1369 H 0.31073 0.05102 0.36794 0.0
H1370 H 0.33032 0.03145 0.39408 0.0
H1371 H 0.34915 0.05252 0.36913 0.0
H1372 H 0.39253 0.98166 0.4452 0.0
H1373 H 0.44337 0.02691 0.3851 0.0
H1374 H 0.34499 0.952 0.39779 0.0
H1375 H 0.32798 0.98346 0.4091 0.0
H1376 H 0.34784 0.96282 0.43416 0.0
H1377 H 0.40684 1.00866 0.32475 0.0
H1378 H 0.42737 0.037 0.33942 0.0
H1379 H 0.38914 0.03982 0.33601 0.0
C1380 C 0.98075 0.18862 0.31389 0.0
C1381 C 0.00455 0.19535 0.29722 0.0
C1382 C 0.98323 0.17143 0.3379 0.0
C1383 C 0.01022 0.16042 0.34555 0.0
C1384 C 0.03448 0.16761 0.32914 0.0
C1385 C 0.03132 0.18469 0.30505 0.0
C1386 C 0.9567 0.16413 0.3544 0.0
C1387 C 0.06368 0.1565 0.3365 0.0
C1388 C 0.01813 0.1285 0.41946 0.0
C1389 C 0.01495 0.09981 0.41393 0.0
C1390 C 0.01711 0.14843 0.39748 0.0
C1391 C 0.01255 0.13962 0.36922 0.0
C1392 C 0.0094 0.11074 0.36354 0.0
C1393 C 0.01073 0.09132 0.38579 0.0
C1394 C 0.02077 0.17896 0.40451 0.0
C1395 C 0.00425 0.10026 0.33389 0.0
H1396 H 0.9599 0.19627 0.30768 0.0
H1397 H 0.04973 0.18925 0.292 0.0
H1398 H 0.95235 0.14143 0.35246 0.0
H1399 H 0.95987 0.16869 0.37715 0.0
H1400 H 0.93766 0.17579 0.3469 0.0
H1401 H 0.08072 0.16599 0.32333 0.0
H1402 H 0.06851 0.16057 0.35906 0.0
H1403 H 0.06413 0.13353 0.3334 0.0
H1404 H 0.02148 0.13546 0.44098 0.0
H1405 H 0.00815 0.06933 0.38099 0.0
H1406 H 1.00119 0.19063 0.39871 0.0
H1407 H 0.03859 0.18789 0.392 0.0
H1408 H 0.02518 0.18242 0.42729 0.0
H1409 H 0.9843 0.10949 0.3254 0.0
H1410 H 0.00246 0.07714 0.3329 0.0
H1411 H 0.02193 0.10692 0.31985 0.0
C1412 C 0.82385 0.97289 0.32812 0.0
C1413 C 0.81769 0.99492 0.30961 0.0
C1414 C 0.84648 0.9747 0.34742 0.0
C1415 C 0.86316 0.99934 0.34854 0.0
C1416 C 0.85779 0.0212 0.32904 0.0
C1417 C 0.83515 0.01866 0.30965 0.0
C1418 C 0.85173 0.95071 0.36745 0.0
C1419 C 0.87499 0.04784 0.32962 0.0
C1420 C 0.8979 0.01513 0.4195 0.0
C1421 C 0.92617 1.0067 0.41481 0.0
C1422 C 0.87738 0.01344 0.3979 0.0
C1423 C 0.88516 1.00267 0.37108 0.0
C1424 C 0.91364 0.9941 0.36625 0.0
C1425 C 0.93379 0.99637 0.38807 0.0
C1426 C 0.84728 0.02304 0.40385 0.0
C1427 C 0.92272 0.98203 0.33819 0.0
H1428 H 0.81027 0.95455 0.3281 0.0
H1429 H 0.83014 0.03584 0.2956 0.0
H1430 H 0.87453 0.94448 0.36693 0.0
H1431 H 0.84681 0.95734 0.38937 0.0
H1432 H 0.83845 0.93218 0.36231 0.0
H1433 H 0.8695 0.06199 0.31186 0.0
H1434 H 0.87104 0.05902 0.34978 0.0
H1435 H 0.89813 0.04307 0.32868 0.0
H1436 H 0.89185 0.0233 0.43999 0.0
H1437 H 0.9555 0.98953 0.38426 0.0
H1438 H 0.83233 1.00519 0.40176 0.0
H1439 H 0.84076 0.03901 0.38816 0.0
H1440 H 0.84496 0.03204 0.42535 0.0
H1441 H 0.91069 0.96251 0.33396 0.0
H1442 H 0.94591 0.97724 0.3375 0.0
H1443 H 0.91764 0.99684 0.3209 0.0
C1444 C 0.98676 0.81837 0.32814 0.0
C1445 C 0.00986 0.81246 0.31022 0.0
C1446 C 0.98755 0.84092 0.34721 0.0
C1447 C 0.01225 0.85793 0.34883 0.0
C1448 C 0.0352 0.85277 0.32995 0.0
C1449 C 0.03367 0.8302 0.31077 0.0
C1450 C 0.96236 0.84579 0.36648 0.0
C1451 C 0.06198 0.87022 0.33097 0.0
C1452 C 0.00652 0.928 0.38738 0.0
C1453 C 0.0164 0.92131 0.41458 0.0
C1454 C 0.00526 0.90776 0.36579 0.0
C1455 C 0.01448 0.88009 0.37123 0.0
C1456 C 0.02487 0.87331 0.39853 0.0
C1457 C 0.02548 0.89386 0.41986 0.0
C1458 C 0.99353 0.91591 0.33727 0.0
C1459 C 0.03523 0.84421 0.40529 0.0
H1460 H 0.96833 0.80467 0.32787 0.0
H1461 H 0.05176 0.82549 0.29732 0.0
H1462 H 0.96862 0.84152 0.38865 0.0
H1463 H 0.95546 0.86793 0.36539 0.0
H1464 H 0.94391 0.83224 0.36105 0.0
H1465 H 0.07706 0.86487 0.31369 0.0
H1466 H 0.05661 0.89274 0.3295 0.0
H1467 H 0.0729 0.86696 0.35149 0.0
H1468 H 0.99919 0.94904 0.38302 0.0
H1469 H 0.03336 0.88844 0.44067 0.0
H1470 H 0.97392 0.90371 0.33279 0.0
H1471 H 0.00919 0.91086 0.32046 0.0
H1472 H 0.98827 0.9385 0.33604 0.0
H1473 H 0.01742 0.82912 0.40301 0.0
H1474 H 0.04388 0.84257 0.42706 0.0
H1475 H 0.05212 0.83793 0.39014 0.0
C1476 C 0.19936 0.04321 0.31344 0.0
C1477 C 0.19783 0.02178 0.29331 0.0
C1478 C 0.18349 0.04189 0.33862 0.0
C1479 C 0.16561 0.01857 0.34377 0.0
C1480 C 0.16463 0.99651 0.32383 0.0
C1481 C 0.18054 0.9985 0.29875 0.0
C1482 C 0.18495 0.06598 0.35914 0.0
C1483 C 0.14596 0.97123 0.3285 0.0
C1484 C 0.13505 1.00586 0.41746 0.0
C1485 C 0.10714 0.01599 0.41437 0.0
C1486 C 0.15451 1.00673 0.39477 0.0
C1487 C 0.14594 0.01839 0.36858 0.0
C1488 C 0.11805 0.02938 0.36571 0.0
C1489 C 0.09902 0.02789 0.3885 0.0
C1490 C 0.18397 0.9946 0.39858 0.0
C1491 C 0.10811 0.04244 0.33839 0.0
H1492 H 0.21249 0.06137 0.30919 0.0
H1493 H 0.17908 0.98205 0.28307 0.0
H1494 H 0.164 0.07675 0.35988 0.0
H1495 H 0.18951 0.05826 0.38075 0.0
H1496 H 0.20156 0.08146 0.3532 0.0
H1497 H 0.14954 0.95481 0.3123 0.0
H1498 H 0.15004 0.96216 0.34967 0.0
H1499 H 0.12318 0.97752 0.32783 0.0
H1500 H 0.14145 0.99657 0.43734 0.0
H1501 H 0.07763 0.03616 0.38601 0.0
H1502 H 0.20038 0.01046 0.39334 0.0
H1503 H 0.187 0.97682 0.38384 0.0
H1504 H 0.18767 0.98712 0.42047 0.0
H1505 H 0.12284 0.05946 0.33206 0.0
H1506 H 0.08619 0.05114 0.34002 0.0
H1507 H 0.10837 0.02659 0.32129 0.0
C1508 C 0.03216 0.83503 0.70632 0.0
C1509 C 0.00508 0.82612 0.71529 0.0
C1510 C 0.03542 0.85213 0.68224 0.0
C1511 C 0.011 0.86115 0.66705 0.0
C1512 C 0.98367 0.85195 0.67589 0.0
C1513 C 0.98108 0.83469 0.69982 0.0
C1514 C 0.06496 0.86128 0.6736 0.0
C1515 C 0.95698 0.86124 0.66071 0.0
C1516 C 0.01397 0.93031 0.627 0.0
C1517 C 0.01603 0.92173 0.59864 0.0
C1518 C 0.01272 0.91089 0.64926 0.0
C1519 C 0.01368 0.8819 0.64336 0.0
C1520 C 0.0162 0.87298 0.61489 0.0
C1521 C 0.01727 0.89293 0.59292 0.0
C1522 C 0.0099 0.92151 0.67917 0.0
C1523 C 0.01749 0.84232 0.60761 0.0
H1524 H 0.0508 0.82907 0.71843 0.0
H1525 H 0.96005 0.82842 0.70694 0.0
H1526 H 0.06844 0.85709 0.65081 0.0
H1527 H 0.0672 0.88413 0.67681 0.0
H1528 H 0.08188 0.85052 0.6859 0.0
H1529 H 0.93751 0.85095 0.6691 0.0
H1530 H 0.95445 0.88418 0.6629 0.0
H1531 H 0.9587 0.85658 0.63783 0.0
H1532 H 0.01303 0.95238 0.63199 0.0
H1533 H 0.01896 0.88588 0.57124 0.0
H1534 H 0.02764 0.9134 0.69231 0.0
H1535 H 0.9897 0.91378 0.68857 0.0
H1536 H 0.01002 0.94469 0.68033 0.0
H1537 H 0.03516 0.83217 0.61934 0.0
H1538 H 0.02069 0.83872 0.58466 0.0
H1539 H 0.99741 0.83193 0.61419 0.0
C1540 C 0.17784 0.02969 0.71478 0.0
C1541 C 0.19474 1.00653 0.72162 0.0
C1542 C 0.16283 0.03087 0.68912 0.0
C1543 C 0.16461 1.00823 0.66989 0.0
C1544 C 0.18259 0.98528 0.67624 0.0
C1545 C 0.1975 0.98473 0.70201 0.0
C1546 C 0.14407 0.05581 0.68315 0.0
C1547 C 0.18504 0.96068 0.65643 0.0
C1548 C 0.09888 0.99635 0.62459 0.0
C1549 C 0.10706 1.00772 0.59849 0.0
C1550 C 0.11764 0.99587 0.64763 0.0
C1551 C 0.14535 1.00727 0.64477 0.0
C1552 C 0.15405 0.01828 0.61833 0.0
C1553 C 0.13484 0.01821 0.59541 0.0
C1554 C 0.10753 0.98352 0.67524 0.0
C1555 C 0.18336 0.03074 0.61448 0.0
H1556 H 0.17581 0.04657 0.72992 0.0
H1557 H 0.21069 0.96686 0.70719 0.0
H1558 H 0.1485 0.06416 0.66175 0.0
H1559 H 0.12133 0.04935 0.68362 0.0
H1560 H 0.14718 0.07282 0.69882 0.0
H1561 H 0.20198 0.94583 0.66307 0.0
H1562 H 0.16441 0.94933 0.65575 0.0
H1563 H 0.18971 0.9679 0.63467 0.0
H1564 H 0.07761 0.9878 0.62711 0.0
H1565 H 0.1413 0.02709 0.57535 0.0
H1566 H 0.10731 0.99991 0.69181 0.0
H1567 H 0.12244 0.96694 0.68231 0.0
H1568 H 0.08578 0.97443 0.67363 0.0
H1569 H 0.18577 0.04922 0.62843 0.0
H1570 H 0.18734 0.03729 0.59233 0.0
H1571 H 0.19996 0.01544 0.62075 0.0
C1572 C 0.03703 0.19015 0.70203 0.0
C1573 C 0.01334 0.20792 0.70383 0.0
C1574 C 0.03757 0.16772 0.68264 0.0
C1575 C 0.01379 0.16287 0.66472 0.0
C1576 C 0.98927 0.18 0.66758 0.0
C1577 C 0.98946 0.20239 0.68686 0.0
C1578 C 0.0642 0.15017 0.68028 0.0
C1579 C 0.96328 0.1755 0.64932 0.0
C1580 C 0.0245 0.12773 0.59285 0.0
C1581 C 0.0157 0.1002 0.59816 0.0
C1582 C 0.02448 0.14809 0.61439 0.0
C1583 C 0.01501 0.14101 0.64194 0.0
C1584 C 0.00598 0.11328 0.64739 0.0
C1585 C 0.00663 0.09325 0.62558 0.0
C1586 C 0.03459 0.17726 0.6076 0.0
C1587 C 0.99529 0.10482 0.67621 0.0
H1588 H 0.05575 0.19474 0.71465 0.0
H1589 H 0.97129 0.21638 0.6879 0.0
H1590 H 0.05879 0.12765 0.6816 0.0
H1591 H 0.07433 0.15372 0.65941 0.0
H1592 H 0.07998 0.15518 0.69704 0.0
H1593 H 0.9451 0.18894 0.65582 0.0
H1594 H 0.96859 0.18023 0.62701 0.0
H1595 H 0.95642 0.15334 0.65025 0.0
H1596 H 0.03178 0.13334 0.57188 0.0
H1597 H 0.99956 0.07214 0.62998 0.0
H1598 H 0.05226 0.18322 0.62198 0.0
H1599 H 0.01699 0.19239 0.61103 0.0
H1600 H 0.04214 0.17924 0.58545 0.0
H1601 H 0.01201 0.10873 0.6923 0.0
H1602 H 0.98911 0.08243 0.6771 0.0
H1603 H 0.9765 0.11768 0.68205 0.0
C1604 C 0.83495 0.99869 0.70297 0.0
C1605 C 0.81814 0.02285 0.70392 0.0
C1606 C 0.85763 0.99634 0.6836 0.0
C1607 C 0.86365 0.0188 0.66501 0.0
C1608 C 0.84769 0.04383 0.66711 0.0
C1609 C 0.82506 0.04547 0.68642 0.0
C1610 C 0.87413 0.96932 0.68199 0.0
C1611 C 0.85363 0.06843 0.64804 0.0
C1612 C 0.93424 0.022 0.62549 0.0
C1613 C 0.92638 0.01293 0.59835 0.0
C1614 C 0.9142 0.02366 0.64746 0.0
C1615 C 0.88556 0.0158 0.64235 0.0
C1616 C 0.87753 1.00626 0.61513 0.0
C1617 C 0.89798 1.00511 0.59342 0.0
C1618 C 0.92357 0.03432 0.676 0.0
C1619 C 0.84723 0.99753 0.60886 0.0
H1620 H 0.82935 0.98107 0.71623 0.0
H1621 H 0.81199 0.06415 0.68715 0.0
H1622 H 0.86978 0.95893 0.66149 0.0
H1623 H 0.89739 0.97347 0.68295 0.0
H1624 H 0.86835 0.95472 0.6993 0.0
H1625 H 0.84081 0.08708 0.65388 0.0
H1626 H 0.87657 0.07406 0.64884 0.0
H1627 H 0.84859 0.06275 0.62588 0.0
H1628 H 0.95607 0.02833 0.62954 0.0
H1629 H 0.89173 0.99788 0.57263 0.0
H1630 H 0.91845 0.01875 0.69258 0.0
H1631 H 0.91176 0.05372 0.68127 0.0
H1632 H 0.94681 0.03886 0.67677 0.0
H1633 H 0.84031 0.9812 0.624 0.0
H1634 H 0.84474 0.98929 0.58706 0.0
H1635 H 0.83271 0.01564 0.61153 0.0
C1636 C 0.33644 0.97426 0.19899 0.0
C1637 C 0.31714 0.99587 0.20486 0.0
C1638 C 0.35598 0.97639 0.17667 0.0
C1639 C 0.35648 1.00091 0.15999 0.0
C1640 C 0.33624 0.02235 0.1651 0.0
C1641 C 0.31665 0.01949 0.18744 0.0
C1642 C 0.37683 0.95284 0.17166 0.0
C1643 C 0.33617 0.04884 0.14784 0.0
C1644 C 0.42766 0.01755 0.12508 0.0
C1645 C 0.42298 1.00849 0.09731 0.0
C1646 C 0.40593 0.01587 0.14549 0.0
C1647 C 0.37903 1.00447 0.13807 0.0
C1648 C 0.37418 0.99535 0.11007 0.0
C1649 C 0.39611 0.99764 0.09002 0.0
C1650 C 0.41187 0.02606 0.17509 0.0
C1651 C 0.34601 0.98267 0.10139 0.0
H1652 H 0.33676 0.95596 0.21247 0.0
H1653 H 0.30195 0.03634 0.1922 0.0
H1654 H 0.37624 0.94623 0.14922 0.0
H1655 H 0.39883 0.96011 0.17619 0.0
H1656 H 0.37227 0.93439 0.18515 0.0
H1657 H 0.31794 0.06268 0.15324 0.0
H1658 H 0.35632 0.06046 0.15153 0.0
H1659 H 0.33521 0.04384 0.12499 0.0
H1660 H 0.44824 0.02616 0.13084 0.0
H1661 H 0.39232 0.99034 0.06867 0.0
H1662 H 0.41043 1.00835 0.19012 0.0
H1663 H 0.39557 0.04164 0.18147 0.0
H1664 H 0.43333 0.03572 0.17707 0.0
H1665 H 0.34187 0.96354 0.11396 0.0
H1666 H 0.34547 0.97707 0.07862 0.0
H1667 H 0.32836 0.99748 0.10581 0.0
C1668 C 0.99055 0.32593 0.19498 0.0
C1669 C 0.01612 0.3128 0.2027 0.0
C1670 C 0.98971 0.34566 0.17295 0.0
C1671 C 0.0152 0.35286 0.15853 0.0
C1672 C 0.0409 0.33881 0.16559 0.0
C1673 C 0.04104 0.31897 0.1876 0.0
C1674 C 0.96178 0.35979 0.16605 0.0
C1675 C 0.06856 0.34581 0.1509 0.0
C1676 C 0.01005 0.39199 0.08836 0.0
C1677 C 0.01448 0.41994 0.09654 0.0
C1678 C 0.01025 0.37007 0.10818 0.0
C1679 C 0.01516 0.37597 0.13707 0.0
C1680 C 0.01972 0.40407 0.14552 0.0
C1681 C 0.01922 0.42565 0.12525 0.0
C1682 C 0.00504 0.34056 0.09819 0.0
C1683 C 0.02516 0.41135 0.17606 0.0
H1684 H 0.97141 0.32165 0.20709 0.0
H1685 H 0.06097 0.3094 0.19405 0.0
H1686 H 0.963 0.38222 0.17182 0.0
H1687 H 0.95753 0.35866 0.14303 0.0
H1688 H 0.94352 0.35024 0.17748 0.0
H1689 H 0.08621 0.33169 0.15735 0.0
H1690 H 0.0659 0.34445 0.12767 0.0
H1691 H 0.07475 0.36762 0.15595 0.0
H1692 H 0.0062 0.3871 0.06635 0.0
H1693 H 0.02278 0.44702 0.13195 0.0
H1694 H 0.98605 0.33177 0.10899 0.0
H1695 H 0.0235 0.32714 0.10376 0.0
H1696 H 0.00159 0.33937 0.07501 0.0
H1697 H 0.00673 0.40481 0.18919 0.0
H1698 H 0.02875 0.43408 0.17922 0.0
H1699 H 0.04414 0.39985 0.18387 0.0
C1700 C 0.70798 0.04246 0.19022 0.0
C1701 C 0.72764 0.02038 0.1908 0.0
C1702 C 0.68334 0.04115 0.17332 0.0
C1703 C 0.67822 0.01719 0.15649 0.0
C1704 C 0.6977 0.99456 0.15749 0.0
C1705 C 0.72229 0.99654 0.17441 0.0
C1706 C 0.66333 0.06587 0.17267 0.0
C1707 C 0.69306 0.9686 0.13997 0.0
C1708 C 0.60419 1.0059 0.12458 0.0
C1709 C 0.6083 0.01514 0.09675 0.0
C1710 C 0.62671 1.00638 0.14431 0.0
C1711 C 0.65384 0.01672 0.13614 0.0
C1712 C 0.6579 0.02651 0.10822 0.0
C1713 C 0.63522 0.02545 0.08891 0.0
C1714 C 0.62158 0.99551 0.17377 0.0
C1715 C 0.6863 0.03805 0.09864 0.0
H1716 H 0.71222 0.06109 0.20255 0.0
H1717 H 0.73765 0.97961 0.17447 0.0
H1718 H 0.66359 0.07542 0.15133 0.0
H1719 H 0.64113 0.05902 0.17691 0.0
H1720 H 0.66927 0.08211 0.18836 0.0
H1721 H 0.70882 0.95198 0.14489 0.0
H1722 H 0.67128 0.96024 0.14354 0.0
H1723 H 0.6948 0.97384 0.11722 0.0
H1724 H 0.58355 0.99776 0.1308 0.0
H1725 H 0.6386 0.03293 0.06757 0.0
H1726 H 0.62605 0.01216 0.18946 0.0
H1727 H 0.6364 0.97799 0.17827 0.0
H1728 H 0.59933 0.98808 0.17681 0.0
H1729 H 0.69278 0.05568 0.11245 0.0
H1730 H 0.68573 0.04554 0.07645 0.0
H1731 H 0.70298 0.02172 0.10045 0.0
C1732 C 0.03211 0.70879 0.18454 0.0
C1733 C 0.00546 0.7212 0.18976 0.0
C1734 C 0.03446 0.68414 0.16829 0.0
C1735 C 0.00967 0.67185 0.15635 0.0
C1736 C 0.98272 0.68409 0.16195 0.0
C1737 C 0.98099 0.70853 0.17844 0.0
C1738 C 0.06362 0.67185 0.16301 0.0
C1739 C 0.95572 0.67207 0.1495 0.0
C1740 C 0.01599 0.63087 0.08743 0.0
C1741 C 0.01348 0.60293 0.09633 0.0
C1742 C 0.01529 0.65321 0.10673 0.0
C1743 C 0.01201 0.64784 0.13596 0.0
C1744 C 0.0099 0.61973 0.14526 0.0
C1745 C 0.01067 0.59766 0.12541 0.0
C1746 C 0.01763 0.68272 0.09568 0.0
C1747 C 0.00643 0.61299 0.17618 0.0
H1748 H 0.05122 0.71867 0.19265 0.0
H1749 H 0.96039 0.71828 0.18185 0.0
H1750 H 0.06357 0.64913 0.16765 0.0
H1751 H 0.06931 0.67434 0.14041 0.0
H1752 H 0.08038 0.68204 0.17601 0.0
H1753 H 0.93628 0.68275 0.15747 0.0
H1754 H 0.95629 0.6741 0.12617 0.0
H1755 H 0.95409 0.64948 0.15444 0.0
H1756 H 0.01836 0.63549 0.06517 0.0
H1757 H 0.00875 0.57629 0.13271 0.0
H1758 H 0.03568 0.69366 0.10604 0.0
H1759 H 0.99792 0.6945 0.10084 0.0
H1760 H 0.02092 0.68341 0.07246 0.0
H1761 H 0.02396 0.62266 0.18853 0.0
H1762 H 0.00636 0.59014 0.18023 0.0
H1763 H 0.98612 0.62195 0.1841 0.0
C1764 C 0.31723 0.99415 0.82772 0.0
C1765 C 0.3155 0.01806 0.81084 0.0
C1766 C 0.33691 0.99268 0.85011 0.0
C1767 C 0.35513 0.01571 0.85561 0.0
C1768 C 0.3524 0.04036 0.83932 0.0
C1769 C 0.33274 0.04114 0.81699 0.0
C1770 C 0.33921 0.96601 0.86693 0.0
C1771 C 0.37114 0.06548 0.84462 0.0
C1772 C 0.39474 0.0207 0.92553 0.0
C1773 C 0.42233 0.0119 0.91799 0.0
C1774 C 0.37262 0.02178 0.90556 0.0
C1775 C 0.37805 0.01363 0.87735 0.0
C1776 C 0.40573 1.0044 0.86965 0.0
C1777 C 0.42756 1.0038 0.89 0.0
C1778 C 0.34354 0.03206 0.91457 0.0
C1779 C 0.41234 0.99533 0.83982 0.0
H1780 H 0.30422 0.97614 0.82251 0.0
H1781 H 0.33158 0.05945 0.80356 0.0
H1782 H 0.36023 0.95609 0.86289 0.0
H1783 H 0.33802 0.97055 0.88987 0.0
H1784 H 0.32216 0.95084 0.86143 0.0
H1785 H 0.36482 0.08373 0.83157 0.0
H1786 H 0.37025 0.07156 0.86721 0.0
H1787 H 0.39365 0.06017 0.83971 0.0
H1788 H 0.39043 0.0272 0.94703 0.0
H1789 H 0.44869 0.99677 0.88399 0.0
H1790 H 0.32712 0.01605 0.90978 0.0
H1791 H 0.33786 0.05111 0.90248 0.0
H1792 H 0.34261 0.03703 0.93746 0.0
H1793 H 0.39747 0.97851 0.83323 0.0
H1794 H 0.43457 0.9876 0.8375 0.0
H1795 H 0.40919 0.01311 0.82514 0.0
C1796 C 0.97819 0.31022 0.84183 0.0
C1797 C 0.99999 0.30155 0.82349 0.0
C1798 C 0.98121 0.33399 0.85908 0.0
C1799 C 0.00678 0.34977 0.85815 0.0
C1800 C 0.02882 0.34139 0.83941 0.0
C1801 C 0.02518 0.31747 0.82228 0.0
C1802 C 0.95707 0.34203 0.8786 0.0
C1803 C 0.05644 0.35749 0.83774 0.0
C1804 C 0.00398 0.42385 0.889 0.0
C1805 C 0.01398 0.41957 0.91662 0.0
C1806 C 0.00208 0.40154 0.86954 0.0
C1807 C 0.01069 0.37427 0.87769 0.0
C1808 C 0.02167 0.37008 0.90524 0.0
C1809 C 0.02303 0.39261 0.92429 0.0
C1810 C 0.99006 0.40699 0.84052 0.0
C1811 C 0.0314 0.34157 0.9149 0.0
H1812 H 0.95863 0.29814 0.84275 0.0
H1813 H 0.04217 0.31122 0.80812 0.0
H1814 H 0.96435 0.34091 0.90086 0.0
H1815 H 0.95046 0.36391 0.87453 0.0
H1816 H 0.93818 0.32824 0.87609 0.0
H1817 H 0.07114 0.34892 0.8215 0.0
H1818 H 0.05207 0.37972 0.83276 0.0
H1819 H 0.06736 0.35697 0.85852 0.0
H1820 H 0.99684 0.44448 0.8828 0.0
H1821 H 0.03113 0.38898 0.94541 0.0
H1822 H 0.96979 0.39532 0.83786 0.0
H1823 H 0.00504 0.39936 0.8241 0.0
H1824 H 0.98584 0.42953 0.83682 0.0
H1825 H 0.01293 0.32709 0.91544 0.0
H1826 H 0.04125 0.34213 0.93623 0.0
H1827 H 0.04713 0.33284 0.89978 0.0
C1828 C 0.70963 0.01992 0.82227 0.0
C1829 C 0.72589 0.99524 0.82247 0.0
C1830 C 0.68564 0.02299 0.83988 0.0
C1831 C 0.67756 1.00086 0.85806 0.0
C1832 C 0.69357 0.97576 0.85795 0.0
C1833 C 0.71744 0.97328 0.84015 0.0
C1834 C 0.66916 0.05008 0.83934 0.0
C1835 C 0.6857 0.95163 0.87694 0.0
C1836 C 0.63561 0.01661 0.92495 0.0
C1837 C 0.60781 1.00845 0.9175 0.0
C1838 C 0.65826 0.01479 0.90564 0.0
C1839 C 0.6532 1.00434 0.87813 0.0
C1840 C 0.62513 0.99653 0.87024 0.0
C1841 C 0.60274 0.9988 0.88997 0.0
C1842 C 0.68775 0.02365 0.9149 0.0
C1843 C 0.61886 0.98519 0.84115 0.0
H1844 H 0.71566 0.03702 0.80856 0.0
H1845 H 0.72973 0.95409 0.84012 0.0
H1846 H 0.64631 0.04596 0.83485 0.0
H1847 H 0.67027 0.06027 0.86036 0.0
H1848 H 0.67747 0.06487 0.82325 0.0
H1849 H 0.69968 0.93317 0.87359 0.0
H1850 H 0.68734 0.95813 0.89936 0.0
H1851 H 0.66324 0.94533 0.87315 0.0
H1852 H 0.63978 0.02444 0.94603 0.0
H1853 H 0.5814 0.99236 0.88401 0.0
H1854 H 0.69638 0.03957 0.90019 0.0
H1855 H 0.7024 1.00545 0.91427 0.0
H1856 H 0.6879 0.03244 0.93661 0.0
H1857 H 0.6262 1.00015 0.82482 0.0
H1858 H 0.59576 0.98106 0.83793 0.0
H1859 H 0.63077 0.96543 0.83784 0.0
C1860 C 0.98982 0.69207 0.81457 0.0
C1861 C 0.01423 0.70817 0.80923 0.0
C1862 C 0.98902 0.67268 0.83688 0.0
C1863 C 0.01344 0.66886 0.85411 0.0
C1864 C 0.03777 0.68595 0.84952 0.0
C1865 C 0.03785 0.70545 0.82716 0.0
C1866 C 0.96248 0.65532 0.84112 0.0
C1867 C 0.0643 0.68257 0.86724 0.0
C1868 C 0.00496 0.62945 0.92381 0.0
C1869 C 0.01333 0.60219 0.91643 0.0
C1870 C 0.00499 0.65129 0.9039 0.0
C1871 C 0.01393 0.64601 0.87583 0.0
C1872 C 0.02262 0.61859 0.86827 0.0
C1873 C 0.02203 0.59704 0.88855 0.0
C1874 C 0.99518 0.67999 0.91287 0.0
C1875 C 0.03254 0.61199 0.83869 0.0
H1876 H 0.97171 0.69384 0.80044 0.0
H1877 H 0.05697 0.7174 0.82269 0.0
H1878 H 0.96713 0.63316 0.836 0.0
H1879 H 0.95562 0.65611 0.86353 0.0
H1880 H 0.94452 0.66246 0.82762 0.0
H1881 H 0.08057 0.69877 0.86248 0.0
H1882 H 0.05889 0.68364 0.89001 0.0
H1883 H 0.07381 0.6617 0.86328 0.0
H1884 H 0.99801 0.63376 0.94521 0.0
H1885 H 0.02876 0.57619 0.88259 0.0
H1886 H 0.97671 0.68659 0.89983 0.0
H1887 H 0.01247 0.69542 0.90934 0.0
H1888 H 0.98883 0.68071 0.93547 0.0
H1889 H 0.015 0.61594 0.82348 0.0
H1890 H 0.03959 0.58995 0.83641 0.0
H1891 H 0.05053 0.6259 0.8328 0.0
C1892 C 0.20544 0.33119 0.9723 0.0
C1893 C 0.21227 0.31418 0.99543 0.0
C1894 C 0.18311 0.35072 0.97375 0.0
C1895 C 0.16738 0.35365 0.99911 0.0
C1896 C 0.17339 0.33565 0.02216 0.0
C1897 C 0.19575 0.31603 0.02001 0.0
C1898 C 0.17725 0.3691 0.94851 0.0
C1899 C 0.1572 0.3381 0.04959 0.0
C1900 C 0.13335 0.42511 0.0117 0.0
C1901 C 0.1048 0.42021 1.0043 0.0
C1902 C 0.15376 0.40351 0.01072 0.0
C1903 C 0.14557 0.37637 1.00176 0.0
C1904 C 0.11681 0.37132 0.99424 0.0
C1905 C 0.09682 0.39317 0.99573 0.0
C1906 C 0.18416 0.40978 0.01909 0.0
C1907 C 0.10719 0.3429 0.98417 0.0
H1908 H 0.2184 0.32994 0.95338 0.0
H1909 H 0.20135 0.30326 0.03807 0.0
H1910 H 0.15425 0.36846 0.94299 0.0
H1911 H 0.1826 0.39109 0.95371 0.0
H1912 H 0.18986 0.36275 0.9297 0.0
H1913 H 0.16301 0.32134 0.06476 0.0
H1914 H 0.1618 0.35863 0.05948 0.0
H1915 H 0.13389 0.33719 0.04566 0.0
H1916 H 0.13975 0.4458 0.01852 0.0
H1917 H 0.07491 0.38908 0.9897 0.0
H1918 H 0.19851 0.40654 1.00074 0.0
H1919 H 0.19114 0.39522 0.03595 0.0
H1920 H 0.18685 0.43155 0.02678 0.0
H1921 H 0.11892 0.33714 0.96467 0.0
H1922 H 0.08394 0.34221 0.97965 0.0
H1923 H 0.11221 0.32686 1.00031 0.0
C1924 C 0.20511 0.69265 0.97722 0.0
C1925 C 0.21185 0.70866 1.00113 0.0
C1926 C 0.18274 0.67311 0.97769 0.0
C1927 C 0.16686 0.66913 1.00282 0.0
C1928 C 0.17274 0.68617 0.02665 0.0
C1929 C 0.1951 0.70584 0.02547 0.0
C1930 C 0.17698 0.65581 0.95163 0.0
C1931 C 0.15642 0.68259 0.05388 0.0
C1932 C 0.09632 0.62966 0.99794 0.0
C1933 C 0.10432 0.60235 1.00551 0.0
C1934 C 0.1163 0.65157 0.9972 0.0
C1935 C 0.14509 0.64627 1.00444 0.0
C1936 C 0.15331 0.61884 0.01235 0.0
C1937 C 0.13291 0.59722 0.01263 0.0
C1938 C 0.10665 0.68033 0.98827 0.0
C1939 C 0.18374 0.6123 0.02043 0.0
H1940 H 0.21817 0.69468 0.95843 0.0
H1941 H 0.20058 0.71784 0.04412 0.0
H1942 H 0.18239 0.63364 0.95586 0.0
H1943 H 0.15399 0.65662 0.94611 0.0
H1944 H 0.1896 0.663 0.93316 0.0
H1945 H 0.16208 0.69875 0.06976 0.0
H1946 H 0.13312 0.68356 0.04988 0.0
H1947 H 0.16107 0.66171 0.06293 0.0
H1948 H 0.07438 0.63398 0.99219 0.0
H1949 H 0.13937 0.57632 0.01867 0.0
H1950 H 0.11841 0.68686 0.96904 0.0
H1951 H 0.11162 0.69575 1.00505 0.0
H1952 H 0.0834 0.68116 0.98376 0.0
H1953 H 0.1981 0.61645 1.00228 0.0
H1954 H 0.18652 0.59021 0.02705 0.0
H1955 H 0.19063 0.62609 0.03799 0.0
C1956 C 0.32441 0.19348 0.04083 0.0
C1957 C 0.30517 0.19646 0.01833 0.0
C1958 C 0.34845 0.17598 0.03868 0.0
C1959 C 0.35345 0.16087 0.01341 0.0
C1960 C 0.3344 0.16422 0.99039 0.0
C1961 C 0.31037 0.18172 0.99323 0.0
C1962 C 0.36793 0.17286 0.06386 0.0
C1963 C 0.33889 0.14863 0.96305 0.0
C1964 C 0.42713 0.12809 1.00198 0.0
C1965 C 0.42228 0.10018 0.00978 0.0
C1966 C 0.40495 0.14803 1.00275 0.0
C1967 C 0.3773 0.14002 0.01187 0.0
C1968 C 0.37237 0.11194 0.01991 0.0
C1969 C 0.39476 0.09244 0.01863 0.0
C1970 C 0.41108 0.17764 0.99371 0.0
C1971 C 0.3434 0.10245 0.03008 0.0
H1972 H 0.32026 0.2044 0.06046 0.0
H1973 H 0.29532 0.18348 0.97595 0.0
H1974 H 0.36689 0.15109 0.07185 0.0
H1975 H 0.39037 0.17691 0.05764 0.0
H1976 H 0.36214 0.18727 0.08134 0.0
H1977 H 0.32363 0.15524 0.9464 0.0
H1978 H 0.36094 0.15197 0.95521 0.0
H1979 H 0.33625 0.12589 0.96667 0.0
H1980 H 0.44819 0.13433 0.99493 0.0
H1981 H 0.39068 0.07105 0.02493 0.0
H1982 H 0.40709 0.19214 0.01156 0.0
H1983 H 0.39647 0.18375 0.97634 0.0
H1984 H 0.43344 0.18041 0.98644 0.0
H1985 H 0.33694 0.11478 0.04886 0.0
H1986 H 0.34308 0.07994 0.03575 0.0
H1987 H 0.32718 0.10615 0.01344 0.0
C1988 C 0.83499 0.31464 0.02538 0.0
C1989 C 0.81809 0.31178 1.00116 0.0
C1990 C 0.85705 0.33462 0.02653 0.0
C1991 C 0.86238 0.35195 1.00282 0.0
C1992 C 0.84639 0.34793 0.97777 0.0
C1993 C 0.82441 0.32801 0.97731 0.0
C1994 C 0.87361 0.33821 0.05361 0.0
C1995 C 0.85159 0.36558 0.95186 0.0
C1996 C 0.89537 0.42416 0.01303 0.0
C1997 C 0.92391 0.41943 1.00546 0.0
C1998 C 0.87527 0.40229 0.01277 0.0
C1999 C 0.88378 0.37506 1.00442 0.0
C2000 C 0.91251 0.37019 0.99669 0.0
C2001 C 0.93218 0.39232 0.99741 0.0
C2002 C 0.84487 0.40836 0.02132 0.0
C2003 C 0.92244 0.34164 0.9873 0.0
H2004 H 0.82985 0.30245 0.04399 0.0
H2005 H 0.81125 0.32589 0.9586 0.0
H2006 H 0.89687 0.33761 0.04935 0.0
H2007 H 0.86875 0.35894 0.06294 0.0
H2008 H 0.86836 0.32182 0.06939 0.0
H2009 H 0.83882 0.35844 0.93346 0.0
H2010 H 0.84596 0.38764 0.95643 0.0
H2011 H 0.87451 0.36511 0.94602 0.0
H2012 H 0.88876 0.44491 0.01945 0.0
H2013 H 0.95409 0.38835 0.99128 0.0
H2014 H 0.83833 0.3942 0.0387 0.0
H2015 H 0.83037 0.40435 1.00325 0.0
H2016 H 0.84191 0.4303 0.02838 0.0
H2017 H 0.91788 0.32599 1.00396 0.0
H2018 H 0.94564 0.34115 0.98249 0.0
H2019 H 0.91054 0.33515 0.96814 0.0
C2020 C 0.70619 0.82903 0.04134 0.0
C2021 C 0.72591 0.82728 0.01911 0.0
C2022 C 0.68189 0.84619 0.0394 0.0
C2023 C 0.67715 0.86215 0.01465 0.0
C2024 C 0.69668 0.86 0.99188 0.0
C2025 C 0.72094 0.84283 0.9945 0.0
C2026 C 0.66185 0.84805 0.0643 0.0
C2027 C 0.69245 0.87654 0.96508 0.0
C2028 C 0.60348 0.89453 1.00268 0.0
C2029 C 0.60795 0.92222 0.01141 0.0
C2030 C 0.62578 0.87476 1.0034 0.0
C2031 C 0.6531 0.88272 0.01349 0.0
C2032 C 0.65757 0.91055 0.02263 0.0
C2033 C 0.63509 0.92991 0.02132 0.0
C2034 C 0.62019 0.84541 0.99317 0.0
C2035 C 0.68616 0.91994 0.03388 0.0
H2036 H 0.71015 0.81742 0.06058 0.0
H2037 H 0.73634 0.84194 0.97745 0.0
H2038 H 0.66244 0.86948 0.07322 0.0
H2039 H 0.6396 0.84397 0.05747 0.0
H2040 H 0.66749 0.83301 0.08126 0.0
H2041 H 0.70812 0.87077 0.94847 0.0
H2042 H 0.6706 0.8732 0.95672 0.0
H2043 H 0.69469 0.89917 0.96964 0.0
H2044 H 0.58269 0.8884 0.99481 0.0
H2045 H 0.63878 0.95114 0.02838 0.0
H2046 H 0.62412 0.83032 0.01051 0.0
H2047 H 0.63513 0.84013 0.97579 0.0
H2048 H 0.59798 0.84263 0.98548 0.0
H2049 H 0.69239 0.90688 0.05221 0.0
H2050 H 0.68603 0.94218 0.04059 0.0
H2051 H 0.7028 0.91719 0.01745 0.0
C2052 C 0.83378 0.70718 0.01986 0.0
C2053 C 0.81807 0.70994 0.99488 0.0
C2054 C 0.85566 0.68711 0.02211 0.0
C2055 C 0.86196 0.66959 0.99875 0.0
C2056 C 0.8471 0.67345 0.97302 0.0
C2057 C 0.82525 0.69344 0.97147 0.0
C2058 C 0.871 0.68368 0.0499 0.0
C2059 C 0.85335 0.65558 0.94747 0.0
C2060 C 0.93186 0.62921 0.99628 0.0
C2061 C 0.92328 0.60212 1.00411 0.0
C2062 C 0.91226 0.65134 0.99475 0.0
C2063 C 0.88326 0.6465 1.00138 0.0
C2064 C 0.87441 0.61931 0.00946 0.0
C2065 C 0.89448 0.59742 0.01059 0.0
C2066 C 0.92257 0.67984 0.98564 0.0
C2067 C 0.84367 0.6133 0.01678 0.0
H2068 H 0.82785 0.71957 0.03812 0.0
H2069 H 0.81284 0.6954 0.95225 0.0
H2070 H 0.86573 0.66299 0.05909 0.0
H2071 H 0.89443 0.68425 0.04664 0.0
H2072 H 0.86506 0.70014 0.06536 0.0
H2073 H 0.84141 0.66262 0.9285 0.0
H2074 H 0.8765 0.65594 0.9426 0.0
H2075 H 0.84745 0.63358 0.95194 0.0
H2076 H 0.95398 0.63318 0.99093 0.0
H2077 H 0.88762 0.57669 0.01677 0.0
H2078 H 0.9175 0.69554 1.00213 0.0
H2079 H 0.91136 0.68631 0.96609 0.0
H2080 H 0.94592 0.68026 0.9816 0.0
H2081 H 0.83649 0.62741 0.03396 0.0
H2082 H 0.84038 0.59134 0.02361 0.0
H2083 H 0.82991 0.61742 0.99819 0.0
C2084 C 0.31536 0.83361 0.02679 0.0
C2085 C 0.30214 0.82905 1.00058 0.0
C2086 C 0.34026 0.85002 0.029 0.0
C2087 C 0.35191 0.86275 1.00454 0.0
C2088 C 0.33882 0.8579 0.97802 0.0
C2089 C 0.31414 0.84123 0.9764 0.0
C2090 C 0.35351 0.85454 0.05767 0.0
C2091 C 0.3502 0.87125 0.95142 0.0
C2092 C 0.39336 0.93089 0.01179 0.0
C2093 C 0.42182 0.92227 0.00812 0.0
C2094 C 0.37067 0.91171 0.01122 0.0
C2095 C 0.37627 0.88296 0.00685 0.0
C2096 C 0.40493 0.87394 1.00367 0.0
C2097 C 0.42734 0.89365 1.00436 0.0
C2098 C 0.34055 0.92238 0.01481 0.0
C2099 C 0.41188 0.8435 0.99909 0.0
H2100 H 0.30592 0.8248 0.04567 0.0
H2101 H 0.30372 0.83829 0.95619 0.0
H2102 H 0.37673 0.85009 0.0569 0.0
H2103 H 0.35098 0.87672 0.064 0.0
H2104 H 0.34361 0.84116 0.07414 0.0
H2105 H 0.33877 0.86398 0.93223 0.0
H2106 H 0.348 0.89428 0.95289 0.0
H2107 H 0.37325 0.86658 0.94895 0.0
H2108 H 0.38862 0.95281 0.01501 0.0
H2109 H 0.44913 0.88662 1.00157 0.0
H2110 H 0.3299 0.91136 0.03251 0.0
H2111 H 0.32802 0.91802 0.99543 0.0
H2112 H 0.33982 0.9452 0.01905 0.0
H2113 H 0.40248 0.8307 0.01625 0.0
H2114 H 0.43524 0.83961 0.99833 0.0
H2115 H 0.40229 0.83626 0.97896 0.0
C2116 C 0.7092 0.1921 0.97995 0.0
C2117 C 0.7291 0.19118 1.00205 0.0
C2118 C 0.68407 0.17601 0.98084 0.0
C2119 C 0.67856 0.15868 1.00448 0.0
C2120 C 0.69799 0.15873 0.02745 0.0
C2121 C 0.72302 0.17493 0.02592 0.0
C2122 C 0.66407 0.17658 0.95586 0.0
C2123 C 0.69291 0.14079 0.05316 0.0
C2124 C 0.60415 0.1271 0.0143 0.0
C2125 C 0.60816 0.09985 1.00405 0.0
C2126 C 0.62679 0.14652 0.01464 0.0
C2127 C 0.65398 0.13867 1.00409 0.0
C2128 C 0.6579 0.11137 0.99323 0.0
C2129 C 0.6351 0.09233 0.99351 0.0
C2130 C 0.62176 0.17529 0.02668 0.0
C2131 C 0.68632 0.10211 0.98141 0.0
H2132 H 0.71374 0.20475 0.96152 0.0
H2133 H 0.73835 0.17428 0.04305 0.0
H2134 H 0.66424 0.15592 0.94524 0.0
H2135 H 0.64188 0.18057 0.96295 0.0
H2136 H 0.67012 0.19279 0.94018 0.0
H2137 H 0.70852 0.14514 0.07025 0.0
H2138 H 0.67105 0.14424 0.06147 0.0
H2139 H 0.69458 0.11842 0.04726 0.0
H2140 H 0.5835 0.13306 0.02268 0.0
H2141 H 0.63842 0.07145 0.98527 0.0
H2142 H 0.62665 0.19139 0.01055 0.0
H2143 H 0.63632 0.17894 0.04477 0.0
H2144 H 0.59942 0.17821 0.03397 0.0
H2145 H 0.69305 0.11636 0.96419 0.0
H2146 H 0.68564 0.08045 0.973 0.0
H2147 H 0.70287 0.10316 0.99812 0.0
C2148 C 0.47692 0.67712 0.80581 0.0
C2149 C 0.49841 0.69595 0.79785 0.0
C2150 C 0.48029 0.65909 0.82905 0.0
C2151 C 0.50586 0.65978 0.84501 0.0
C2152 C 0.52759 0.67898 0.83732 0.0
C2153 C 0.52356 0.69694 0.81401 0.0
C2154 C 0.45644 0.63919 0.83646 0.0
C2155 C 0.55519 0.68042 0.85365 0.0
C2156 C 0.50401 0.62747 0.91902 0.0
C2157 C 0.51458 0.60046 0.91399 0.0
C2158 C 0.50147 0.64713 0.89696 0.0
C2159 C 0.51002 0.63983 0.86916 0.0
C2160 C 0.52143 0.61286 0.86417 0.0
C2161 C 0.52341 0.59356 0.88649 0.0
C2162 C 0.48888 0.67547 0.90327 0.0
C2163 C 0.53114 0.60418 0.83506 0.0
H2164 H 0.45729 0.67656 0.79372 0.0
H2165 H 0.5402 0.71164 0.80846 0.0
H2166 H 0.4641 0.61732 0.83479 0.0
H2167 H 0.44962 0.64255 0.85864 0.0
H2168 H 0.4376 0.64173 0.82247 0.0
H2169 H 0.56984 0.69669 0.84532 0.0
H2170 H 0.55077 0.68496 0.8762 0.0
H2171 H 0.56619 0.65992 0.85277 0.0
H2172 H 0.49697 0.63305 0.94009 0.0
H2173 H 0.5319 0.57291 0.8823 0.0
H2174 H 0.46844 0.67793 0.89172 0.0
H2175 H 0.50342 0.69219 0.89582 0.0
H2176 H 0.48479 0.67854 0.92617 0.0
H2177 H 0.51284 0.60471 0.82022 0.0
H2178 H 0.54043 0.58283 0.83481 0.0
H2179 H 0.54735 0.61908 0.82704 0.0
C2180 C 0.33507 0.49034 0.81045 0.0
C2181 C 0.31773 0.51405 0.80791 0.0
C2182 C 0.35766 0.48965 0.83002 0.0
C2183 C 0.36315 0.51335 0.84717 0.0
C2184 C 0.34667 0.53787 0.84345 0.0
C2185 C 0.32407 0.53785 0.82401 0.0
C2186 C 0.37466 0.46309 0.8334 0.0
C2187 C 0.35207 0.56374 0.86091 0.0
C2188 C 0.3976 0.50394 0.91941 0.0
C2189 C 0.42598 0.51157 0.91403 0.0
C2190 C 0.37709 0.50396 0.89773 0.0
C2191 C 0.38503 0.51212 0.87004 0.0
C2192 C 0.4136 0.51989 0.86449 0.0
C2193 C 0.43372 0.5194 0.88646 0.0
C2194 C 0.34686 0.49534 0.90448 0.0
C2195 C 0.42287 0.52908 0.8354 0.0
H2196 H 0.32993 0.47181 0.79831 0.0
H2197 H 0.31063 0.55618 0.82205 0.0
H2198 H 0.39785 0.46758 0.83217 0.0
H2199 H 0.37047 0.45398 0.85454 0.0
H2200 H 0.36919 0.44728 0.8171 0.0
H2201 H 0.33896 0.58175 0.85382 0.0
H2202 H 0.34701 0.55941 0.88337 0.0
H2203 H 0.37492 0.56969 0.85983 0.0
H2204 H 0.39141 0.49768 0.94052 0.0
H2205 H 0.45552 0.52554 0.88203 0.0
H2206 H 0.34026 0.47787 0.89054 0.0
H2207 H 0.33211 0.51301 0.90042 0.0
H2208 H 0.34434 0.48867 0.92681 0.0
H2209 H 0.41817 0.51246 0.81976 0.0
H2210 H 0.44601 0.53404 0.83443 0.0
H2211 H 0.41066 0.54789 0.82897 0.0
C2212 C 0.5399 0.32996 0.81214 0.0
C2213 C 0.51547 0.31332 0.80932 0.0
C2214 C 0.54063 0.35244 0.83143 0.0
C2215 C 0.51627 0.35853 0.84818 0.0
C2216 C 0.49111 0.34255 0.84429 0.0
C2217 C 0.49112 0.32004 0.82515 0.0
C2218 C 0.56796 0.36873 0.83496 0.0
C2219 C 0.46451 0.3484 0.86128 0.0
C2220 C 0.52493 0.39395 0.92013 0.0
C2221 C 0.51752 0.42176 0.91418 0.0
C2222 C 0.52514 0.37339 0.89881 0.0
C2223 C 0.51742 0.38056 0.87076 0.0
C2224 C 0.50996 0.40858 0.8646 0.0
C2225 C 0.51025 0.42878 0.88625 0.0
C2226 C 0.53352 0.34388 0.90637 0.0
C2227 C 0.50126 0.41717 0.83518 0.0
H2228 H 0.55895 0.32442 0.80041 0.0
H2229 H 0.47235 0.30691 0.82332 0.0
H2230 H 0.56375 0.39147 0.83324 0.0
H2231 H 0.57684 0.36489 0.85633 0.0
H2232 H 0.58429 0.36283 0.81903 0.0
H2233 H 0.44606 0.33567 0.85412 0.0
H2234 H 0.46855 0.34377 0.88388 0.0
H2235 H 0.45873 0.37083 0.85977 0.0
H2236 H 0.5308 0.38822 0.94149 0.0
H2237 H 0.50433 0.4501 0.88128 0.0
H2238 H 0.55136 0.33682 0.89271 0.0
H2239 H 0.5153 0.32958 0.90255 0.0
H2240 H 0.54017 0.34189 0.92879 0.0
H2241 H 0.51846 0.412 0.81995 0.0
H2242 H 0.49654 0.43986 0.83366 0.0
H2243 H 0.482 0.40533 0.82864 0.0
C2244 C 0.67777 0.49601 0.79748 0.0
C2245 C 0.69571 0.51876 0.79192 0.0
C2246 C 0.66252 0.49419 0.82298 0.0
C2247 C 0.6651 0.51578 0.84331 0.0
C2248 C 0.68406 0.53827 0.83821 0.0
C2249 C 0.69919 0.53946 0.81259 0.0
C2250 C 0.64271 0.46975 0.82761 0.0
C2251 C 0.68735 0.56178 0.85922 0.0
C2252 C 0.59956 0.52784 0.88884 0.0
C2253 C 0.60719 0.51499 0.91438 0.0
C2254 C 0.61848 0.52879 0.86594 0.0
C2255 C 0.64574 0.51627 0.86836 0.0
C2256 C 0.65385 0.5037 0.89425 0.0
C2257 C 0.63454 0.5034 0.91708 0.0
C2258 C 0.60904 0.54285 0.83895 0.0
C2259 C 0.68263 0.48995 0.89758 0.0
H2260 H 0.67514 0.47999 0.7815 0.0
H2261 H 0.71314 0.55703 0.80837 0.0
H2262 H 0.64663 0.46022 0.8486 0.0
H2263 H 0.62027 0.47711 0.82733 0.0
H2264 H 0.64526 0.4534 0.81114 0.0
H2265 H 0.70492 0.57626 0.85341 0.0
H2266 H 0.66719 0.57387 0.86036 0.0
H2267 H 0.69157 0.55335 0.88062 0.0
H2268 H 0.57863 0.53724 0.88668 0.0
H2269 H 0.64052 0.49337 0.93671 0.0
H2270 H 0.60824 0.52731 0.82158 0.0
H2271 H 0.62465 0.55916 0.83277 0.0
H2272 H 0.58768 0.5527 0.84096 0.0
H2273 H 0.6844 0.4721 0.88272 0.0
H2274 H 0.6862 0.48215 0.91938 0.0
H2275 H 0.69986 0.50489 0.89216 0.0
C2276 C 0.52436 0.32711 0.19959 0.0
C2277 C 0.49874 0.32773 0.21506 0.0
C2278 C 0.52858 0.3448 0.1761 0.0
C2279 C 0.50662 0.36339 0.16755 0.0
C2280 C 0.48061 0.36372 0.18284 0.0
C2281 C 0.47705 0.34596 0.20627 0.0
C2282 C 0.55667 0.34382 0.16056 0.0
C2283 C 0.45652 0.38298 0.17454 0.0
C2284 C 0.52343 0.42961 0.12574 0.0
C2285 C 0.51541 0.42225 0.09811 0.0
C2286 C 0.5215 0.41046 0.14821 0.0
C2287 C 0.51096 0.38316 0.14326 0.0
C2288 C 0.5033 0.37538 0.11534 0.0
C2289 C 0.50577 0.3949 0.09313 0.0
C2290 C 0.53023 0.41971 0.17745 0.0
C2291 C 0.49171 0.34663 0.10907 0.0
H2292 H 0.54121 0.31293 0.20585 0.0
H2293 H 0.45712 0.34631 0.21789 0.0
H2294 H 0.553 0.33901 0.13793 0.0
H2295 H 0.56718 0.36456 0.16158 0.0
H2296 H 0.57142 0.32793 0.16943 0.0
H2297 H 0.43733 0.38012 0.18801 0.0
H2298 H 0.46357 0.40504 0.17621 0.0
H2299 H 0.45044 0.37925 0.15221 0.0
H2300 H 0.53118 0.45053 0.12995 0.0
H2301 H 0.4994 0.38893 0.07198 0.0
H2302 H 0.54595 0.40486 0.18645 0.0
H2303 H 0.51135 0.41971 0.19158 0.0
H2304 H 0.53972 0.44097 0.17753 0.0
H2305 H 0.50672 0.33042 0.11676 0.0
H2306 H 0.48799 0.34331 0.08614 0.0
H2307 H 0.47124 0.34357 0.12043 0.0
C2308 C 0.68278 0.48314 0.20994 0.0
C2309 C 0.69452 0.50746 0.22165 0.0
C2310 C 0.668 0.48382 0.18413 0.0
C2311 C 0.66471 0.50951 0.16966 0.0
C2312 C 0.67738 0.53399 0.1809 0.0
C2313 C 0.69182 0.53274 0.20691 0.0
C2314 C 0.65457 0.45728 0.17315 0.0
C2315 C 0.67446 0.56179 0.16617 0.0
C2316 C 0.63558 0.50771 0.09424 0.0
C2317 C 0.60639 0.51255 0.09884 0.0
C2318 C 0.65502 0.50704 0.11698 0.0
C2319 C 0.64504 0.51135 0.14491 0.0
C2320 C 0.61574 0.51674 0.14956 0.0
C2321 C 0.5969 0.51731 0.1266 0.0
C2322 C 0.68614 0.50132 0.11119 0.0
C2323 C 0.60408 0.52151 0.17893 0.0
H2324 H 0.68438 0.46365 0.22148 0.0
H2325 H 0.70038 0.55172 0.21606 0.0
H2326 H 0.63099 0.45897 0.17453 0.0
H2327 H 0.66008 0.45412 0.1506 0.0
H2328 H 0.66144 0.43861 0.18529 0.0
H2329 H 0.6885 0.578 0.1756 0.0
H2330 H 0.6797 0.5597 0.14342 0.0
H2331 H 0.65203 0.56907 0.16764 0.0
H2332 H 0.64321 0.50401 0.07296 0.0
H2333 H 0.57452 0.52138 0.1306 0.0
H2334 H 0.6926 0.48158 0.12163 0.0
H2335 H 0.69949 0.51824 0.12023 0.0
H2336 H 0.69075 0.49958 0.08825 0.0
H2337 H 0.60791 0.50276 0.19216 0.0
H2338 H 0.58082 0.52601 0.17889 0.0
H2339 H 0.61528 0.53927 0.18909 0.0
C2340 C 0.49074 0.70132 0.18884 0.0
C2341 C 0.51556 0.70816 0.20386 0.0
C2342 C 0.4903 0.67897 0.16952 0.0
C2343 C 0.51549 0.6633 0.16457 0.0
C2344 C 0.54036 0.66952 0.18049 0.0
C2345 C 0.54007 0.69183 0.19999 0.0
C2346 C 0.46318 0.67295 0.15344 0.0
C2347 C 0.56774 0.65357 0.17585 0.0
C2348 C 0.5096 0.59331 0.12592 0.0
C2349 C 0.51607 0.60069 0.09788 0.0
C2350 C 0.50942 0.61332 0.14776 0.0
C2351 C 0.51615 0.64153 0.14169 0.0
C2352 C 0.52292 0.64911 0.11351 0.0
C2353 C 0.52264 0.62872 0.092 0.0
C2354 C 0.50174 0.60429 0.17733 0.0
C2355 C 0.53046 0.67886 0.10603 0.0
H2356 H 0.47192 0.71425 0.19145 0.0
H2357 H 0.55946 0.69749 0.21108 0.0
H2358 H 0.4663 0.67796 0.13078 0.0
H2359 H 0.45778 0.65043 0.15484 0.0
H2360 H 0.44482 0.68532 0.16146 0.0
H2361 H 0.58455 0.65951 0.19126 0.0
H2362 H 0.56386 0.63078 0.1775 0.0
H2363 H 0.57581 0.65771 0.15423 0.0
H2364 H 0.50434 0.57183 0.13088 0.0
H2365 H 0.52785 0.63476 0.07056 0.0
H2366 H 0.48262 0.6159 0.18466 0.0
H2367 H 0.5194 0.60939 0.19205 0.0
H2368 H 0.49725 0.58155 0.1787 0.0
H2369 H 0.51222 0.69283 0.11091 0.0
H2370 H 0.53602 0.68127 0.08336 0.0
H2371 H 0.5488 0.68597 0.11898 0.0
C2372 C 0.33801 0.53171 0.20353 0.0
C2373 C 0.3186 0.50952 0.2047 0.0
C2374 C 0.36049 0.53163 0.18382 0.0
C2375 C 0.36365 0.50868 0.16511 0.0
C2376 C 0.34501 0.48552 0.16744 0.0
C2377 C 0.32258 0.48634 0.18706 0.0
C2378 C 0.37985 0.55675 0.18194 0.0
C2379 C 0.34786 0.46046 0.14828 0.0
C2380 C 0.39813 0.51987 0.09314 0.0
C2381 C 0.42584 0.5098 0.09769 0.0
C2382 C 0.37786 0.52005 0.11504 0.0
C2383 C 0.38531 0.50949 0.14203 0.0
C2384 C 0.41316 0.49905 0.14665 0.0
C2385 C 0.43311 0.49951 0.12452 0.0
C2386 C 0.34844 0.53158 0.1093 0.0
C2387 C 0.42183 0.48714 0.17489 0.0
H2388 H 0.33459 0.54982 0.21687 0.0
H2389 H 0.30735 0.4693 0.18786 0.0
H2390 H 0.40253 0.55018 0.18254 0.0
H2391 H 0.37633 0.56754 0.1615 0.0
H2392 H 0.37598 0.57188 0.19931 0.0
H2393 H 0.33335 0.44318 0.15452 0.0
H2394 H 0.34281 0.46659 0.12626 0.0
H2395 H 0.37013 0.45259 0.14847 0.0
H2396 H 0.3924 0.52805 0.07257 0.0
H2397 H 0.4544 0.49144 0.12821 0.0
H2398 H 0.34351 0.54857 0.12448 0.0
H2399 H 0.33223 0.51497 0.11239 0.0
H2400 H 0.34632 0.5399 0.08751 0.0
H2401 H 0.41909 0.50312 0.19164 0.0
H2402 H 0.44435 0.47989 0.17507 0.0
H2403 H 0.40783 0.46927 0.18038 0.0
C2404 C 0.81697 0.48849 0.68369 0.0
C2405 C 0.8163 0.5101 0.70359 0.0
C2406 C 0.83666 0.48899 0.66126 0.0
C2407 C 0.85579 0.5118 0.65865 0.0
C2408 C 0.85395 0.53441 0.67784 0.0
C2409 C 0.83439 0.53316 0.70022 0.0
C2410 C 0.83806 0.46441 0.64134 0.0
C2411 C 0.87356 0.55934 0.67555 0.0
C2412 C 0.928 0.50069 0.62361 0.0
C2413 C 0.92323 0.51146 0.59651 0.0
C2414 C 0.90607 0.50027 0.64385 0.0
C2415 C 0.87887 0.51133 0.637 0.0
C2416 C 0.87405 0.52251 0.60977 0.0
C2417 C 0.8962 0.52226 0.58981 0.0
C2418 C 0.912 0.48791 0.67259 0.0
C2419 C 0.84558 0.53501 0.60181 0.0
H2420 H 0.80323 0.4705 0.6866 0.0
H2421 H 0.83389 0.54979 0.71577 0.0
H2422 H 0.83721 0.47164 0.61911 0.0
H2423 H 0.85866 0.45334 0.64421 0.0
H2424 H 0.82041 0.44934 0.64493 0.0
H2425 H 0.8676 0.57627 0.69048 0.0
H2426 H 0.89581 0.55283 0.68012 0.0
H2427 H 0.87323 0.56782 0.65376 0.0
H2428 H 0.94875 0.49214 0.62886 0.0
H2429 H 0.89239 0.53089 0.56899 0.0
H2430 H 0.89655 0.47092 0.6771 0.0
H2431 H 0.90915 0.50409 0.68912 0.0
H2432 H 0.93396 0.47934 0.67427 0.0
H2433 H 0.82843 0.51926 0.60442 0.0
H2434 H 0.84523 0.54269 0.57968 0.0
H2435 H 0.84051 0.55271 0.61608 0.0
C2436 C 0.49565 0.81915 0.68976 0.0
C2437 C 0.52134 0.81451 0.70414 0.0
C2438 C 0.49399 0.8388 0.6676 0.0
C2439 C 0.51867 0.85407 0.65956 0.0
C2440 C 0.54495 0.84835 0.67319 0.0
C2441 C 0.54589 0.82887 0.69541 0.0
C2442 C 0.46553 0.84424 0.65378 0.0
C2443 C 0.57188 0.86372 0.66517 0.0
C2444 C 0.52061 0.89265 0.58893 0.0
C2445 C 0.51546 0.92052 0.59698 0.0
C2446 C 0.52146 0.8709 0.60892 0.0
C2447 C 0.51689 0.87687 0.63784 0.0
C2448 C 0.51148 0.90488 0.64615 0.0
C2449 C 0.51095 0.92631 0.62571 0.0
C2450 C 0.52759 0.8415 0.59906 0.0
C2451 C 0.50639 0.91224 0.67673 0.0
H2452 H 0.47652 0.80855 0.69689 0.0
H2453 H 0.56567 0.82563 0.70682 0.0
H2454 H 0.4584 0.86578 0.65879 0.0
H2455 H 0.4675 0.84275 0.63049 0.0
H2456 H 0.44886 0.82935 0.66096 0.0
H2457 H 0.59096 0.85533 0.67621 0.0
H2458 H 0.57549 0.86235 0.64206 0.0
H2459 H 0.56965 0.88617 0.67056 0.0
H2460 H 0.5243 0.88772 0.5669 0.0
H2461 H 0.50683 0.94761 0.63229 0.0
H2462 H 0.50989 0.82742 0.60531 0.0
H2463 H 0.54725 0.8336 0.60937 0.0
H2464 H 0.53041 0.84021 0.5758 0.0
H2465 H 0.48827 0.89987 0.68515 0.0
H2466 H 0.50165 0.93479 0.67971 0.0
H2467 H 0.52548 0.90684 0.68945 0.0
C2468 C 0.22177 0.48718 0.67268 0.0
C2469 C 0.23037 0.51176 0.68631 0.0
C2470 C 0.1964 0.48624 0.65681 0.0
C2471 C 0.17932 0.51056 0.65436 0.0
C2472 C 0.18737 0.53512 0.66906 0.0
C2473 C 0.21277 0.5354 0.68489 0.0
C2474 C 0.18857 0.45959 0.64165 0.0
C2475 C 0.1699 0.56153 0.66697 0.0
C2476 C 0.13669 0.51883 0.58659 0.0
C2477 C 0.10887 0.5119 0.59515 0.0
C2478 C 0.15958 0.51863 0.60568 0.0
C2479 C 0.15477 0.51116 0.6342 0.0
C2480 C 0.12676 0.50427 0.64314 0.0
C2481 C 0.10412 0.50484 0.62354 0.0
C2482 C 0.189 0.52633 0.59521 0.0
C2483 C 0.12079 0.49603 0.67331 0.0
H2484 H 0.23538 0.4689 0.67379 0.0
H2485 H 0.21933 0.55443 0.69546 0.0
H2486 H 0.16601 0.454 0.64597 0.0
H2487 H 0.19065 0.46268 0.61852 0.0
H2488 H 0.20241 0.44181 0.64796 0.0
H2489 H 0.17757 0.57802 0.68163 0.0
H2490 H 0.17096 0.56974 0.64509 0.0
H2491 H 0.14715 0.55712 0.67167 0.0
H2492 H 0.14072 0.52455 0.56481 0.0
H2493 H 0.08279 0.49929 0.63039 0.0
H2494 H 0.20382 0.50852 0.59832 0.0
H2495 H 0.19747 0.5442 0.60756 0.0
H2496 H 0.18909 0.53208 0.57249 0.0
H2497 H 0.13364 0.47741 0.679 0.0
H2498 H 0.09789 0.49122 0.67693 0.0
H2499 H 0.12724 0.51314 0.68777 0.0
C2500 C 0.48242 0.20013 0.68928 0.0
C2501 C 0.5047 0.2197 0.69065 0.0
C2502 C 0.48442 0.17614 0.67214 0.0
C2503 C 0.50931 0.17146 0.65577 0.0
C2504 C 0.53224 0.19073 0.65775 0.0
C2505 C 0.52958 0.21466 0.67498 0.0
C2506 C 0.45936 0.15639 0.67064 0.0
C2507 C 0.55922 0.1866 0.64087 0.0
C2508 C 0.52093 0.09892 0.62319 0.0
C2509 C 0.51169 0.10302 0.59528 0.0
C2510 C 0.52061 0.12097 0.64303 0.0
C2511 C 0.51038 0.14772 0.63499 0.0
C2512 C 0.50075 0.15182 0.60693 0.0
C2513 C 0.50169 0.1296 0.58749 0.0
C2514 C 0.53134 0.11567 0.67257 0.0
C2515 C 0.48927 0.17974 0.59738 0.0
H2516 H 0.46299 0.204 0.70106 0.0
H2517 H 0.54671 0.22986 0.67565 0.0
H2518 H 0.45004 0.15689 0.64911 0.0
H2519 H 0.46643 0.13464 0.67468 0.0
H2520 H 0.44239 0.16184 0.68608 0.0
H2521 H 0.57601 0.20198 0.64658 0.0
H2522 H 0.56773 0.16523 0.6442 0.0
H2523 H 0.55446 0.18877 0.61803 0.0
H2524 H 0.52886 0.07858 0.62945 0.0
H2525 H 0.49421 0.13306 0.56612 0.0
H2526 H 0.51406 0.11971 0.68806 0.0
H2527 H 0.54904 0.13026 0.67754 0.0
H2528 H 0.53907 0.09392 0.67542 0.0
H2529 H 0.47074 0.1858 0.61063 0.0
H2530 H 0.48243 0.17951 0.57492 0.0
H2531 H 0.50581 0.1961 0.60007 0.0
C2532 C 0.81643 0.52817 0.32805 0.0
C2533 C 0.81546 0.50526 0.30966 0.0
C2534 C 0.83595 0.52888 0.35061 0.0
C2535 C 0.85468 0.50603 0.35494 0.0
C2536 C 0.85256 0.48218 0.33737 0.0
C2537 C 0.83308 0.48215 0.31488 0.0
C2538 C 0.83759 0.55471 0.36883 0.0
C2539 C 0.87179 0.4572 0.3415 0.0
C2540 C 0.92691 0.5182 0.38955 0.0
C2541 C 0.92196 0.50895 0.4172 0.0
C2542 C 0.90503 0.51786 0.36927 0.0
C2543 C 0.87764 0.50762 0.37667 0.0
C2544 C 0.87255 0.49817 0.40453 0.0
C2545 C 0.89469 0.49911 0.42448 0.0
C2546 C 0.91127 0.52837 0.33986 0.0
C2547 C 0.84383 0.48671 0.41317 0.0
H2548 H 0.80307 0.54618 0.32384 0.0
H2549 H 0.83227 0.46439 0.30069 0.0
H2550 H 0.83659 0.54898 0.3915 0.0
H2551 H 0.85832 0.56534 0.36529 0.0
H2552 H 0.82013 0.5697 0.36417 0.0
H2553 H 0.86578 0.43943 0.32762 0.0
H2554 H 0.89417 0.46313 0.33679 0.0
H2555 H 0.87107 0.45011 0.36378 0.0
H2556 H 0.94782 0.52603 0.38382 0.0
H2557 H 0.89071 0.49168 0.44574 0.0
H2558 H 0.89594 0.54508 0.3341 0.0
H2559 H 0.90852 0.51116 0.3244 0.0
H2560 H 0.93328 0.53675 0.33782 0.0
H2561 H 0.82692 0.50242 0.40914 0.0
H2562 H 0.84316 0.48076 0.43583 0.0
H2563 H 0.83867 0.46802 0.40027 0.0
C2564 C 0.5295 0.80728 0.33728 0.0
C2565 C 0.50429 0.80171 0.32232 0.0
C2566 C 0.5322 0.83138 0.35425 0.0
C2567 C 0.50898 0.85026 0.35674 0.0
C2568 C 0.48374 0.84504 0.34111 0.0
C2569 C 0.4817 0.82089 0.32419 0.0
C2570 C 0.55956 0.83609 0.37035 0.0
C2571 C 0.45835 0.86434 0.34319 0.0
C2572 C 0.50221 0.89212 0.42509 0.0
C2573 C 0.5114 0.9189 0.41702 0.0
C2574 C 0.5013 0.86984 0.40574 0.0
C2575 C 0.51012 0.87407 0.37744 0.0
C2576 C 0.51956 0.901 0.3691 0.0
C2577 C 0.51989 0.92311 0.38888 0.0
C2578 C 0.4907 0.8417 0.41563 0.0
C2579 C 0.52944 0.90644 0.33928 0.0
H2580 H 0.54687 0.79236 0.33627 0.0
H2581 H 0.46201 0.81658 0.31302 0.0
H2582 H 0.56751 0.85764 0.36677 0.0
H2583 H 0.5555 0.83385 0.39332 0.0
H2584 H 0.57651 0.82106 0.36417 0.0
H2585 H 0.4411 0.85853 0.32821 0.0
H2586 H 0.4496 0.86372 0.36495 0.0
H2587 H 0.4649 0.88619 0.33892 0.0
H2588 H 0.49533 0.88855 0.44665 0.0
H2589 H 0.52722 0.9436 0.38239 0.0
H2590 H 0.50757 0.82572 0.41263 0.0
H2591 H 0.47204 0.83516 0.40282 0.0
H2592 H 0.48436 0.84185 0.43824 0.0
H2593 H 0.54721 0.8921 0.33384 0.0
H2594 H 0.53677 0.9283 0.33624 0.0
H2595 H 0.51181 0.90216 0.32426 0.0
C2596 C 0.22335 0.5227 0.34162 0.0
C2597 C 0.22815 0.49944 0.32427 0.0
C2598 C 0.19834 0.52496 0.35789 0.0
C2599 C 0.17775 0.50328 0.35704 0.0
C2600 C 0.18214 0.48014 0.33888 0.0
C2601 C 0.20727 0.47852 0.3227 0.0
C2602 C 0.19447 0.55006 0.37682 0.0
C2603 C 0.1609 0.45648 0.33745 0.0
C2604 C 0.13349 0.4933 0.42355 0.0
C2605 C 0.1073 0.50551 0.41614 0.0
C2606 C 0.15625 0.49203 0.40436 0.0
C2607 C 0.15306 0.50359 0.37703 0.0
C2608 C 0.12658 0.51569 0.36923 0.0
C2609 C 0.10391 0.5163 0.3888 0.0
C2610 C 0.18387 0.47848 0.41348 0.0
C2611 C 0.12241 0.52846 0.3404 0.0
H2612 H 0.23954 0.53882 0.34293 0.0
H2613 H 0.21094 0.46047 0.30937 0.0
H2614 H 0.17315 0.55954 0.3734 0.0
H2615 H 0.19554 0.54345 0.39925 0.0
H2616 H 0.21104 0.56624 0.37315 0.0
H2617 H 0.16625 0.44116 0.32064 0.0
H2618 H 0.16038 0.44538 0.35801 0.0
H2619 H 0.13913 0.46468 0.33353 0.0
H2620 H 0.13623 0.48456 0.44449 0.0
H2621 H 0.08381 0.52587 0.38294 0.0
H2622 H 0.20136 0.49409 0.41309 0.0
H2623 H 0.18974 0.46156 0.39856 0.0
H2624 H 0.18253 0.46951 0.43507 0.0
H2625 H 0.13765 0.54595 0.33743 0.0
H2626 H 0.10039 0.53651 0.33735 0.0
H2627 H 0.12699 0.51279 0.32376 0.0
C2628 C 0.54116 0.20071 0.3231 0.0
C2629 C 0.51607 0.20933 0.30956 0.0
C2630 C 0.5405 0.18074 0.34494 0.0
C2631 C 0.5141 0.16879 0.35329 0.0
C2632 C 0.48858 0.17829 0.34035 0.0
C2633 C 0.4899 0.19832 0.31857 0.0
C2634 C 0.56822 0.17142 0.35813 0.0
C2635 C 0.45998 0.16631 0.34855 0.0
C2636 C 0.51507 0.09575 0.38636 0.0
C2637 C 0.51255 0.1017 0.4153 0.0
C2638 C 0.51554 0.11731 0.36603 0.0
C2639 C 0.51334 0.14563 0.37468 0.0
C2640 C 0.5106 0.15175 0.4038 0.0
C2641 C 0.51028 0.12986 0.42364 0.0
C2642 C 0.51856 0.10977 0.33523 0.0
C2643 C 0.50809 0.18152 0.41406 0.0
H2644 H 0.56147 0.20864 0.31562 0.0
H2645 H 0.47057 0.20438 0.30758 0.0
H2646 H 0.56693 0.17289 0.38147 0.0
H2647 H 0.57225 0.1492 0.35277 0.0
H2648 H 0.58665 0.18407 0.35076 0.0
H2649 H 0.442 0.1773 0.33806 0.0
H2650 H 0.45912 0.14389 0.34265 0.0
H2651 H 0.45697 0.16758 0.37175 0.0
H2652 H 0.51688 0.07423 0.37951 0.0
H2653 H 0.50822 0.13498 0.44583 0.0
H2654 H 0.53803 0.11963 0.3264 0.0
H2655 H 0.50009 0.11797 0.32316 0.0
H2656 H 0.5199 0.08684 0.33186 0.0
H2657 H 0.52726 0.19356 0.40769 0.0
H2658 H 0.50578 0.18285 0.43736 0.0
H2659 H 0.48937 0.19173 0.40412 0.0
C2660 C 0.70621 0.82931 0.53117 0.0
C2661 C 0.71164 0.81339 0.50691 0.0
C2662 C 0.68396 0.84899 0.53187 0.0
C2663 C 0.66696 0.85325 0.50751 0.0
C2664 C 0.67164 0.83636 0.48331 0.0
C2665 C 0.69392 0.81657 0.48332 0.0
C2666 C 0.67956 0.86618 0.55825 0.0
C2667 C 0.65413 0.84024 0.45687 0.0
C2668 C 0.59682 0.89303 0.51513 0.0
C2669 C 0.60457 0.92025 0.50699 0.0
C2670 C 0.61679 0.8711 0.51536 0.0
C2671 C 0.6453 0.87627 0.50698 0.0
C2672 C 0.65329 0.90365 0.49867 0.0
C2673 C 0.63291 0.92531 0.49894 0.0
C2674 C 0.60739 0.84241 0.52476 0.0
C2675 C 0.68341 0.91008 0.48942 0.0
H2676 H 0.72025 0.82717 0.54924 0.0
H2677 H 0.69855 0.80473 0.46435 0.0
H2678 H 0.68507 0.88831 0.55392 0.0
H2679 H 0.65682 0.86562 0.56475 0.0
H2680 H 0.69289 0.85871 0.57611 0.0
H2681 H 0.659 0.82419 0.44061 0.0
H2682 H 0.63103 0.83931 0.4619 0.0
H2683 H 0.65844 0.86118 0.44779 0.0
H2684 H 0.57507 0.8888 0.52165 0.0
H2685 H 0.63915 0.94615 0.49246 0.0
H2686 H 0.62035 0.83555 0.5431 0.0
H2687 H 0.61098 0.82708 0.50756 0.0
H2688 H 0.5845 0.84183 0.53083 0.0
H2689 H 0.69849 0.90558 0.50688 0.0
H2690 H 0.68608 0.93223 0.48295 0.0
H2691 H 0.68942 0.89646 0.47141 0.0
C2692 C 0.70314 0.19486 0.47781 0.0
C2693 C 0.71121 0.20877 0.5026 0.0
C2694 C 0.68068 0.1754 0.47778 0.0
C2695 C 0.66625 0.16925 0.50333 0.0
C2696 C 0.67359 0.18411 0.52822 0.0
C2697 C 0.69592 0.20382 0.52752 0.0
C2698 C 0.6733 0.16048 0.45066 0.0
C2699 C 0.65894 0.17809 0.55593 0.0
C2700 C 0.59541 0.1302 0.49956 0.0
C2701 C 0.60376 0.10238 0.50448 0.0
C2702 C 0.6154 0.1521 0.49928 0.0
C2703 C 0.64458 0.14628 0.50421 0.0
C2704 C 0.65319 0.11833 0.50932 0.0
C2705 C 0.63275 0.09675 0.50928 0.0
C2706 C 0.6053 0.18149 0.49346 0.0
C2707 C 0.68407 0.11119 0.51482 0.0
H2708 H 0.71522 0.19845 0.45862 0.0
H2709 H 0.70256 0.21412 0.54682 0.0
H2710 H 0.67898 0.13806 0.4525 0.0
H2711 H 0.65001 0.16165 0.44665 0.0
H2712 H 0.68475 0.16937 0.43219 0.0
H2713 H 0.66563 0.19277 0.57286 0.0
H2714 H 0.63545 0.17938 0.55344 0.0
H2715 H 0.66404 0.15649 0.56276 0.0
H2716 H 0.57315 0.13496 0.49566 0.0
H2717 H 0.63953 0.07547 0.51324 0.0
H2718 H 0.61603 0.18975 0.47432 0.0
H2719 H 0.61114 0.19539 0.51128 0.0
H2720 H 0.58185 0.18262 0.49024 0.0
H2721 H 0.69725 0.11706 0.49628 0.0
H2722 H 0.68724 0.0886 0.51914 0.0
H2723 H 0.69209 0.12333 0.53313 0.0
C2724 C 0.81003 0.68042 0.49302 0.0
C2725 C 0.80479 0.69512 0.51813 0.0
C2726 C 0.83424 0.66317 0.49008 0.0
C2727 C 0.8535 0.66012 0.51298 0.0
C2728 C 0.84856 0.67534 0.53818 0.0
C2729 C 0.82431 0.69256 0.54045 0.0
C2730 C 0.83865 0.64745 0.46281 0.0
C2731 C 0.86829 0.6726 0.56322 0.0
C2732 C 0.89518 0.59189 0.5182 0.0
C2733 C 0.92253 0.59964 0.50886 0.0
C2734 C 0.87275 0.61133 0.5197 0.0
C2735 C 0.87746 0.63938 0.51141 0.0
C2736 C 0.90499 0.64743 0.50195 0.0
C2737 C 0.92722 0.62755 0.50096 0.0
C2738 C 0.84397 0.60179 0.53034 0.0
C2739 C 0.9109 0.67703 0.49273 0.0
H2740 H 0.7948 0.68195 0.47587 0.0
H2741 H 0.82019 0.70352 0.56007 0.0
H2742 H 0.86062 0.65087 0.4548 0.0
H2743 H 0.83618 0.62471 0.46661 0.0
H2744 H 0.82322 0.65385 0.44623 0.0
H2745 H 0.86264 0.68723 0.58055 0.0
H2746 H 0.86736 0.65095 0.57151 0.0
H2747 H 0.89067 0.67661 0.55674 0.0
H2748 H 0.89126 0.57053 0.5247 0.0
H2749 H 0.94817 0.6338 0.49362 0.0
H2750 H 0.82744 0.60557 0.51402 0.0
H2751 H 0.83787 0.61404 0.54929 0.0
H2752 H 0.84375 0.57926 0.53592 0.0
H2753 H 0.89639 0.68283 0.47517 0.0
H2754 H 0.93329 0.67996 0.48563 0.0
H2755 H 0.90659 0.69166 0.51039 0.0
C2756 C 0.32935 0.82039 0.53132 0.0
C2757 C 0.31872 0.81056 0.50555 0.0
C2758 C 0.35095 0.84077 0.53214 0.0
C2759 C 0.36223 0.85143 0.50654 0.0
C2760 C 0.35247 0.84046 0.48046 0.0
C2761 C 0.33059 0.82037 0.48029 0.0
C2762 C 0.3606 0.85199 0.56036 0.0
C2763 C 0.36418 0.85089 0.45271 0.0
C2764 C 0.39413 0.92478 0.50632 0.0
C2765 C 0.42351 0.91917 0.50744 0.0
C2766 C 0.37399 0.90296 0.50608 0.0
C2767 C 0.38336 0.8748 0.50697 0.0
C2768 C 0.41292 0.86899 0.50812 0.0
C2769 C 0.43255 0.89114 0.50836 0.0
C2770 C 0.34262 0.91005 0.5048 0.0
C2771 C 0.42385 0.83932 0.50896 0.0
H2772 H 0.31959 0.81329 0.5508 0.0
H2773 H 0.32187 0.81316 0.46038 0.0
H2774 H 0.38418 0.85091 0.56209 0.0
H2775 H 0.35446 0.8743 0.56223 0.0
H2776 H 0.35106 0.84034 0.57831 0.0
H2777 H 0.35605 0.83865 0.43448 0.0
H2778 H 0.35812 0.8731 0.44971 0.0
H2779 H 0.38783 0.84988 0.45275 0.0
H2780 H 0.3868 0.94624 0.50553 0.0
H2781 H 0.45513 0.88633 0.50922 0.0
H2782 H 0.33143 0.90099 0.5233 0.0
H2783 H 0.33296 0.90073 0.4856 0.0
H2784 H 0.33878 0.93294 0.50447 0.0
H2785 H 0.41508 0.82835 0.52767 0.0
H2786 H 0.44751 0.8383 0.50984 0.0
H2787 H 0.41649 0.8278 0.48999 0.0
C2788 C 0.20967 0.32982 0.53179 0.0
C2789 C 0.22923 0.33077 0.50939 0.0
C2790 C 0.1843 0.34554 0.53108 0.0
C2791 C 0.17821 0.36251 0.50731 0.0
C2792 C 0.19725 0.36239 0.48403 0.0
C2793 C 0.22254 0.34656 0.48539 0.0
C2794 C 0.16472 0.34505 0.55639 0.0
C2795 C 0.19155 0.37995 0.45818 0.0
C2796 C 0.10358 0.3939 0.49852 0.0
C2797 C 0.10776 0.42124 0.50844 0.0
C2798 C 0.12623 0.37447 0.49799 0.0
C2799 C 0.15359 0.38244 0.50797 0.0
C2800 C 0.15769 0.40984 0.51849 0.0
C2801 C 0.13488 0.42885 0.51845 0.0
C2802 C 0.121 0.34558 0.48636 0.0
C2803 C 0.18632 0.41924 0.52967 0.0
H2804 H 0.21469 0.31747 0.55031 0.0
H2805 H 0.23758 0.34718 0.46801 0.0
H2806 H 0.16504 0.36577 0.5669 0.0
H2807 H 0.14242 0.34099 0.5497 0.0
H2808 H 0.17107 0.32894 0.57204 0.0
H2809 H 0.20683 0.37544 0.44083 0.0
H2810 H 0.16955 0.37632 0.45037 0.0
H2811 H 0.19325 0.40241 0.46373 0.0
H2812 H 0.08279 0.38785 0.49057 0.0
H2813 H 0.13835 0.4498 0.52643 0.0
H2814 H 0.12615 0.32966 0.50259 0.0
H2815 H 0.13528 0.34172 0.46808 0.0
H2816 H 0.09855 0.34258 0.47946 0.0
H2817 H 0.19336 0.4052 0.54695 0.0
H2818 H 0.1858 0.441 0.53782 0.0
H2819 H 0.20257 0.41798 0.51268 0.0
C2820 C 0.33398 0.2067 0.48798 0.0
C2821 C 0.31715 0.20981 0.51224 0.0
C2822 C 0.3559 0.18659 0.4869 0.0
C2823 C 0.3612 0.16939 0.51071 0.0
C2824 C 0.3453 0.17365 0.53577 0.0
C2825 C 0.32342 0.19369 0.53617 0.0
C2826 C 0.37239 0.18276 0.4598 0.0
C2827 C 0.35048 0.15615 0.56179 0.0
C2828 C 0.394 0.09708 0.50049 0.0
C2829 C 0.42261 0.10183 0.50773 0.0
C2830 C 0.37391 0.11896 0.50097 0.0
C2831 C 0.38251 0.1462 0.50918 0.0
C2832 C 0.41129 0.15105 0.5167 0.0
C2833 C 0.43093 0.12892 0.5158 0.0
C2834 C 0.34342 0.11293 0.49269 0.0
C2835 C 0.42132 0.17959 0.52601 0.0
H2836 H 0.32888 0.21882 0.46932 0.0
H2837 H 0.31035 0.19602 0.55492 0.0
H2838 H 0.39567 0.18343 0.464 0.0
H2839 H 0.36754 0.16194 0.45069 0.0
H2840 H 0.3671 0.19899 0.44388 0.0
H2841 H 0.33783 0.16351 0.58019 0.0
H2842 H 0.34468 0.1341 0.5574 0.0
H2843 H 0.37343 0.1565 0.56752 0.0
H2844 H 0.38735 0.07633 0.49413 0.0
H2845 H 0.45289 0.1329 0.52176 0.0
H2846 H 0.33693 0.12678 0.47505 0.0
H2847 H 0.32901 0.11742 0.51072 0.0
H2848 H 0.34028 0.09087 0.48611 0.0
H2849 H 0.41656 0.19528 0.50944 0.0
H2850 H 0.44458 0.18008 0.53053 0.0
H2851 H 0.40967 0.18604 0.54534 0.0
C2852 C 0.82151 0.32956 0.47831 0.0
C2853 C 0.80222 0.3284 0.50094 0.0
C2854 C 0.84625 0.34619 0.47968 0.0
C2855 C 0.85196 0.36207 0.50431 0.0
C2856 C 0.83309 0.36009 0.52765 0.0
C2857 C 0.80842 0.34338 0.52563 0.0
C2858 C 0.86563 0.3477 0.45426 0.0
C2859 C 0.83836 0.37649 0.55436 0.0
C2860 C 0.92621 0.39405 0.51423 0.0
C2861 C 0.92171 0.42176 0.50559 0.0
C2862 C 0.90377 0.37439 0.51409 0.0
C2863 C 0.87622 0.38249 0.50475 0.0
C2864 C 0.87171 0.41033 0.49567 0.0
C2865 C 0.89436 0.42956 0.49634 0.0
C2866 C 0.90948 0.34501 0.52413 0.0
C2867 C 0.84289 0.41989 0.48518 0.0
H2868 H 0.8168 0.31807 0.45914 0.0
H2869 H 0.79349 0.34261 0.5431 0.0
H2870 H 0.86485 0.36904 0.44515 0.0
H2871 H 0.88805 0.34363 0.46053 0.0
H2872 H 0.85948 0.33251 0.4376 0.0
H2873 H 0.82318 0.3708 0.57144 0.0
H2874 H 0.86044 0.37295 0.562 0.0
H2875 H 0.83616 0.39915 0.54996 0.0
H2876 H 0.94718 0.3878 0.52154 0.0
H2877 H 0.8906 0.45078 0.4893 0.0
H2878 H 0.90485 0.32993 0.50694 0.0
H2879 H 0.89509 0.33986 0.54199 0.0
H2880 H 0.93191 0.34207 0.5311 0.0
H2881 H 0.8362 0.40698 0.46689 0.0
H2882 H 0.84293 0.44218 0.47865 0.0
H2883 H 0.82664 0.41707 0.50198 0.0
C2884 C 0.20971 0.69039 0.47875 0.0
C2885 C 0.22887 0.69056 0.50149 0.0
C2886 C 0.18469 0.67415 0.47952 0.0
C2887 C 0.17859 0.65774 0.50368 0.0
C2888 C 0.1973 0.65881 0.52719 0.0
C2889 C 0.22225 0.67513 0.52576 0.0
C2890 C 0.16546 0.67359 0.45397 0.0
C2891 C 0.19157 0.64183 0.55343 0.0
C2892 C 0.1041 0.62621 0.51254 0.0
C2893 C 0.10849 0.59864 0.50337 0.0
C2894 C 0.12664 0.64572 0.51284 0.0
C2895 C 0.15415 0.63761 0.50339 0.0
C2896 C 0.15852 0.60995 0.49369 0.0
C2897 C 0.13578 0.59086 0.49394 0.0
C2898 C 0.12113 0.67491 0.52358 0.0
C2899 C 0.18734 0.60041 0.48312 0.0
H2900 H 0.21472 0.70236 0.45997 0.0
H2901 H 0.23704 0.67527 0.54335 0.0
H2902 H 0.16604 0.65251 0.44422 0.0
H2903 H 0.14305 0.67774 0.46023 0.0
H2904 H 0.1719 0.68917 0.43781 0.0
H2905 H 0.20667 0.64691 0.57077 0.0
H2906 H 0.16947 0.64548 0.56099 0.0
H2907 H 0.1935 0.61926 0.54846 0.0
H2908 H 0.08318 0.63241 0.52003 0.0
H2909 H 0.13944 0.56973 0.48655 0.0
H2910 H 0.12615 0.69036 0.50686 0.0
H2911 H 0.13534 0.67945 0.54174 0.0
H2912 H 0.09864 0.67792 0.53036 0.0
H2913 H 0.19444 0.61392 0.46544 0.0
H2914 H 0.18707 0.57839 0.4757 0.0
H2915 H 0.20341 0.60236 0.5002 0.0
loop_
_geom_bond_atom_site_label_1
_geom_bond_atom_site_label_2
_geom_bond_distance
_geom_bond_site_symmetry_2
_ccdc_geom_bond_type
H0 C7 0.929 . S
H1 C10 0.930 . S
H2 C12 0.929 . S
H3 C4 0.969 1_655 S
C4 H3 0.969 1_455 S
C4 O5 1.550 . S
C4 H6 0.973 . S
O5 C4 1.550 . S
O5 C11 1.412 . S
H6 C4 0.973 . S
C7 H0 0.929 . S
C7 C8 1.400 . S
C7 C9 1.364 . S
C8 C7 1.400 . S
C8 C12 1.377 . S
C9 C7 1.364 . S
C9 C10 1.374 . S
C10 H1 0.930 . S
C10 C9 1.374 . S
C10 C11 1.383 . S
C11 O5 1.412 . S
C11 C10 1.383 . S
C11 C12 1.394 . S
C12 H2 0.929 . S
C12 C8 1.377 . S
C12 C11 1.394 . S
H13 C20 0.928 . S
H14 C23 0.930 1_565 S
H15 C25 0.928 . S
H16 C17 0.969 . S
C17 H16 0.969 . S
C17 O18 1.550 1_545 S
C17 H19 0.973 1_545 S
O18 C17 1.550 1_565 S
O18 C24 1.412 1_565 S
H19 C17 0.973 1_565 S
C20 H13 0.928 . S
C20 C21 1.400 . S
C20 C22 1.364 . S
C21 C20 1.400 . S
C21 C25 1.378 . S
C22 C20 1.364 . S
C22 C23 1.374 . S
C23 H14 0.930 1_545 S
C23 C22 1.374 . S
C23 C24 1.384 . S
C24 O18 1.412 1_545 S
C24 C23 1.384 . S
C24 C25 1.395 . S
C25 H15 0.928 . S
C25 C21 1.378 . S
C25 C24 1.395 . S
H26 C33 0.929 . S
H27 C36 0.930 . S
H28 C38 0.929 . S
H29 C30 0.969 1_655 S
C30 H29 0.969 1_455 S
C30 O31 1.550 . S
C30 H32 0.973 . S
O31 C30 1.550 . S
O31 C37 1.412 . S
H32 C30 0.973 . S
C33 H26 0.929 . S
C33 C34 1.400 . S
C33 C35 1.364 . S
C34 C33 1.400 . S
C34 C38 1.377 . S
C35 C33 1.364 . S
C35 C36 1.374 . S
C36 H27 0.930 . S
C36 C35 1.374 . S
C36 C37 1.383 . S
C37 O31 1.412 . S
C37 C36 1.383 . S
C37 C38 1.394 . S
C38 H28 0.929 . S
C38 C34 1.377 . S
C38 C37 1.394 . S
H39 C46 0.928 . S
H40 C49 0.930 1_565 S
H41 C51 0.928 . S
H42 C43 0.969 . S
C43 H42 0.969 . S
C43 O44 1.550 1_545 S
C43 H45 0.973 1_545 S
O44 C43 1.550 1_565 S
O44 C50 1.412 1_565 S
H45 C43 0.973 1_565 S
C46 H39 0.928 . S
C46 C47 1.400 . S
C46 C48 1.364 . S
C47 C46 1.400 . S
C47 C51 1.378 . S
C48 C46 1.364 . S
C48 C49 1.374 . S
C49 H40 0.930 1_545 S
C49 C48 1.374 . S
C49 C50 1.384 . S
C50 O44 1.412 1_545 S
C50 C49 1.384 . S
C50 C51 1.396 . S
C51 H41 0.928 . S
C51 C47 1.378 . S
C51 C50 1.396 . S
H52 C59 0.929 . S
H53 C62 0.930 . S
H54 C64 0.929 . S
H55 C56 0.969 1_655 S
C56 H55 0.969 1_455 S
C56 O57 1.550 . S
C56 H58 0.973 . S
O57 C56 1.550 . S
O57 C63 1.412 . S
H58 C56 0.973 . S
C59 H52 0.929 . S
C59 C60 1.400 . S
C59 C61 1.364 . S
C60 C59 1.400 . S
C60 C64 1.377 . S
C61 C59 1.364 . S
C61 C62 1.374 . S
C62 H53 0.930 . S
C62 C61 1.374 . S
C62 C63 1.383 . S
C63 O57 1.412 . S
C63 C62 1.383 . S
C63 C64 1.394 . S
C64 H54 0.929 . S
C64 C60 1.377 . S
C64 C63 1.394 . S
H65 C72 0.928 1_545 S
H66 C75 0.931 . S
H67 C77 0.928 1_545 S
H68 C69 0.969 . S
C69 H68 0.969 . S
C69 O70 1.550 1_565 S
C69 H71 0.973 1_565 S
O70 C69 1.550 1_545 S
O70 C76 1.404 1_545 S
H71 C69 0.973 1_545 S
C72 H65 0.928 1_565 S
C72 C73 1.400 . S
C72 C74 1.364 . S
C73 C72 1.400 . S
C73 C77 1.377 . S
C74 C72 1.364 . S
C74 C75 1.374 1_565 S
C75 H66 0.931 . S
C75 C74 1.374 1_545 S
C75 C76 1.382 1_545 S
C76 O70 1.404 1_565 S
C76 C75 1.382 1_565 S
C76 C77 1.394 . S
C77 H67 0.928 1_565 S
C77 C73 1.377 . S
C77 C76 1.394 . S
H78 C85 0.929 . S
H79 C88 0.930 . S
H80 C90 0.929 . S
H81 C82 0.969 1_655 S
C82 H81 0.969 1_455 S
C82 O83 1.550 . S
C82 H84 0.973 . S
O83 C82 1.550 . S
O83 C89 1.412 . S
H84 C82 0.973 . S
C85 H78 0.929 . S
C85 C86 1.400 . S
C85 C87 1.364 . S
C86 C85 1.400 . S
C86 C90 1.377 . S
C87 C85 1.364 . S
C87 C88 1.374 . S
C88 H79 0.930 . S
C88 C87 1.374 . S
C88 C89 1.383 . S
C89 O83 1.412 . S
C89 C88 1.383 . S
C89 C90 1.394 . S
C90 H80 0.929 . S
C90 C86 1.377 . S
C90 C89 1.394 . S
H91 C98 0.928 1_545 S
H92 C101 0.931 . S
H93 C103 0.928 1_545 S
H94 C95 0.969 . S
C95 H94 0.969 . S
C95 O96 1.550 1_565 S
C95 H97 0.973 1_565 S
O96 C95 1.550 1_545 S
O96 C102 1.404 1_545 S
H97 C95 0.973 1_545 S
C98 H91 0.928 1_565 S
C98 C99 1.400 . S
C98 C100 1.364 . S
C99 C98 1.400 . S
C99 C103 1.377 . S
C100 C98 1.364 . S
C100 C101 1.374 1_565 S
C101 H92 0.931 . S
C101 C100 1.374 1_545 S
C101 C102 1.382 1_545 S
C102 O96 1.404 1_565 S
C102 C101 1.382 1_565 S
C102 C103 1.394 . S
C103 H93 0.928 1_565 S
C103 C99 1.377 . S
C103 C102 1.394 . S
H104 C111 0.928 1_556 S
H105 C114 0.930 . S
H106 C116 0.928 1_556 S
H107 C108 0.969 . S
C108 H107 0.969 . S
C108 O109 1.550 1_554 S
C108 H110 0.973 1_554 S
O109 C108 1.550 1_556 S
O109 C115 1.402 1_556 S
H110 C108 0.973 1_556 S
C111 H104 0.928 1_554 S
C111 C112 1.400 . S
C111 C113 1.364 . S
C112 C111 1.400 . S
C112 C116 1.377 . S
C113 C111 1.364 . S
C113 C114 1.374 1_554 S
C114 H105 0.930 . S
C114 C113 1.374 1_556 S
C114 C115 1.382 1_556 S
C115 O109 1.402 1_554 S
C115 C114 1.382 1_554 S
C115 C116 1.394 . S
C116 H106 0.928 1_554 S
C116 C112 1.377 . S
C116 C115 1.394 . S
H117 C124 0.928 . S
H118 C127 0.932 . S
H119 C129 0.929 . S
H120 C121 0.969 . S
C121 H120 0.969 . S
C121 O122 1.550 1_556 S
C121 H123 0.973 1_556 S
O122 C121 1.550 1_554 S
O122 C128 1.411 1_554 S
H123 C121 0.973 1_554 S
C124 H117 0.928 . S
C124 C125 1.400 . S
C124 C126 1.364 . S
C125 C124 1.400 . S
C125 C129 1.377 . S
C126 C124 1.364 . S
C126 C127 1.374 . S
C127 H118 0.932 . S
C127 C126 1.374 . S
C127 C128 1.382 1_554 S
C128 O122 1.411 1_556 S
C128 C127 1.382 1_556 S
C128 C129 1.394 1_556 S
C129 H119 0.929 . S
C129 C125 1.377 . S
C129 C128 1.394 1_554 S
H130 C137 0.928 1_554 S
H131 C140 0.931 . S
H132 C142 0.928 1_554 S
H133 C134 0.969 . S
C134 H133 0.969 . S
C134 O135 1.550 1_556 S
C134 H136 0.973 1_556 S
O135 C134 1.550 1_554 S
O135 C141 1.404 1_554 S
H136 C134 0.973 1_554 S
C137 H130 0.928 1_556 S
C137 C138 1.400 . S
C137 C139 1.364 . S
C138 C137 1.400 . S
C138 C142 1.377 . S
C139 C137 1.364 . S
C139 C140 1.374 1_556 S
C140 H131 0.931 . S
C140 C139 1.374 1_554 S
C140 C141 1.382 1_554 S
C141 O135 1.404 1_556 S
C141 C140 1.382 1_556 S
C141 C142 1.394 . S
C142 H132 0.928 1_556 S
C142 C138 1.377 . S
C142 C141 1.394 . S
H143 C150 0.928 . S
H144 C153 0.930 1_556 S
H145 C155 0.928 . S
H146 C147 0.969 . S
C147 H146 0.969 . S
C147 O148 1.550 1_554 S
C147 H149 0.973 1_554 S
O148 C147 1.550 1_556 S
O148 C154 1.412 1_556 S
H149 C147 0.973 1_556 S
C150 H143 0.928 . S
C150 C151 1.400 . S
C150 C152 1.364 . S
C151 C150 1.400 . S
C151 C155 1.378 . S
C152 C150 1.364 . S
C152 C153 1.374 . S
C153 H144 0.930 1_554 S
C153 C152 1.374 . S
C153 C154 1.384 . S
C154 O148 1.412 1_554 S
C154 C153 1.384 . S
C154 C155 1.395 . S
C155 H145 0.928 . S
C155 C151 1.378 . S
C155 C154 1.395 . S
H156 C163 0.929 . S
H157 C166 0.930 . S
H158 C168 0.929 . S
H159 C160 0.969 . S
C160 H159 0.969 . S
C160 O161 1.550 . S
C160 H162 0.973 . S
O161 C160 1.550 . S
O161 C167 1.412 . S
H162 C160 0.973 . S
C163 H156 0.929 . S
C163 C164 1.400 . S
C163 C165 1.364 . S
C164 C163 1.400 . S
C164 C168 1.377 . S
C165 C163 1.364 . S
C165 C166 1.374 . S
C166 H157 0.930 . S
C166 C165 1.374 . S
C166 C167 1.383 . S
C167 O161 1.412 . S
C167 C166 1.383 . S
C167 C168 1.394 . S
C168 H158 0.929 . S
C168 C164 1.377 . S
C168 C167 1.394 . S
H169 C176 0.929 . S
H170 C179 0.930 . S
H171 C181 0.929 . S
H172 C173 0.969 . S
C173 H172 0.969 . S
C173 O174 1.550 . S
C173 H175 0.973 . S
O174 C173 1.550 . S
O174 C180 1.412 . S
H175 C173 0.973 . S
C176 H169 0.929 . S
C176 C177 1.400 . S
C176 C178 1.364 . S
C177 C176 1.400 . S
C177 C181 1.377 . S
C178 C176 1.364 . S
C178 C179 1.374 . S
C179 H170 0.930 . S
C179 C178 1.374 . S
C179 C180 1.383 . S
C180 O174 1.412 . S
C180 C179 1.383 . S
C180 C181 1.394 . S
C181 H171 0.929 . S
C181 C177 1.377 . S
C181 C180 1.394 . S
H182 C189 0.929 . S
H183 C192 0.930 . S
H184 C194 0.929 . S
H185 C186 0.969 . S
C186 H185 0.969 . S
C186 O187 1.550 . S
C186 H188 0.973 . S
O187 C186 1.550 . S
O187 C193 1.412 . S
H188 C186 0.973 . S
C189 H182 0.929 . S
C189 C190 1.400 . S
C189 C191 1.364 . S
C190 C189 1.400 . S
C190 C194 1.377 . S
C191 C189 1.364 . S
C191 C192 1.374 . S
C192 H183 0.930 . S
C192 C191 1.374 . S
C192 C193 1.383 . S
C193 O187 1.412 . S
C193 C192 1.383 . S
C193 C194 1.394 . S
C194 H184 0.929 . S
C194 C190 1.377 . S
C194 C193 1.394 . S
H195 C202 0.929 . S
H196 C205 0.930 . S
H197 C207 0.929 . S
H198 C199 0.969 . S
C199 H198 0.969 . S
C199 O200 1.550 . S
C199 H201 0.973 . S
O200 C199 1.550 . S
O200 C206 1.412 . S
H201 C199 0.973 . S
C202 H195 0.929 . S
C202 C203 1.400 . S
C202 C204 1.364 . S
C203 C202 1.400 . S
C203 C207 1.377 . S
C204 C202 1.364 . S
C204 C205 1.374 . S
C205 H196 0.930 . S
C205 C204 1.374 . S
C205 C206 1.383 . S
C206 O200 1.412 . S
C206 C205 1.383 . S
C206 C207 1.394 . S
C207 H197 0.929 . S
C207 C203 1.377 . S
C207 C206 1.394 . S
H208 C215 0.929 . S
H209 C218 0.930 . S
H210 C220 0.929 . S
H211 C212 0.969 . S
C212 H211 0.969 . S
C212 O213 1.550 . S
C212 H214 0.973 . S
O213 C212 1.550 . S
O213 C219 1.412 . S
H214 C212 0.973 . S
C215 H208 0.929 . S
C215 C216 1.400 . S
C215 C217 1.364 . S
C216 C215 1.400 . S
C216 C220 1.377 . S
C217 C215 1.364 . S
C217 C218 1.374 . S
C218 H209 0.930 . S
C218 C217 1.374 . S
C218 C219 1.383 . S
C219 O213 1.412 . S
C219 C218 1.383 . S
C219 C220 1.394 . S
C220 H210 0.929 . S
C220 C216 1.377 . S
C220 C219 1.394 . S
H221 C228 0.929 . S
H222 C231 0.930 . S
H223 C233 0.929 . S
H224 C225 0.969 . S
C225 H224 0.969 . S
C225 O226 1.550 . S
C225 H227 0.973 . S
O226 C225 1.550 . S
O226 C232 1.412 . S
H227 C225 0.973 . S
C228 H221 0.929 . S
C228 C229 1.400 . S
C228 C230 1.364 . S
C229 C228 1.400 . S
C229 C233 1.377 . S
C230 C228 1.364 . S
C230 C231 1.374 . S
C231 H222 0.930 . S
C231 C230 1.374 . S
C231 C232 1.383 . S
C232 O226 1.412 . S
C232 C231 1.383 . S
C232 C233 1.394 . S
C233 H223 0.929 . S
C233 C229 1.377 . S
C233 C232 1.394 . S
H234 C241 0.929 . S
H235 C244 0.930 . S
H236 C246 0.929 . S
H237 C238 0.969 . S
C238 H237 0.969 . S
C238 O239 1.550 . S
C238 H240 0.973 . S
O239 C238 1.550 . S
O239 C245 1.412 . S
H240 C238 0.973 . S
C241 H234 0.929 . S
C241 C242 1.400 . S
C241 C243 1.364 . S
C242 C241 1.400 . S
C242 C246 1.377 . S
C243 C241 1.364 . S
C243 C244 1.374 . S
C244 H235 0.930 . S
C244 C243 1.374 . S
C244 C245 1.383 . S
C245 O239 1.412 . S
C245 C244 1.383 . S
C245 C246 1.394 . S
C246 H236 0.929 . S
C246 C242 1.377 . S
C246 C245 1.394 . S
H247 C254 0.929 . S
H248 C257 0.930 . S
H249 C259 0.929 . S
H250 C251 0.969 . S
C251 H250 0.969 . S
C251 O252 1.550 . S
C251 H253 0.973 . S
O252 C251 1.550 . S
O252 C258 1.412 . S
H253 C251 0.973 . S
C254 H247 0.929 . S
C254 C255 1.400 . S
C254 C256 1.364 . S
C255 C254 1.400 . S
C255 C259 1.377 . S
C256 C254 1.364 . S
C256 C257 1.374 . S
C257 H248 0.930 . S
C257 C256 1.374 . S
C257 C258 1.383 . S
C258 O252 1.412 . S
C258 C257 1.383 . S
C258 C259 1.394 . S
C259 H249 0.929 . S
C259 C255 1.377 . S
C259 C258 1.394 . S
H260 C267 0.929 . S
H261 C270 0.930 . S
H262 C272 0.929 . S
H263 C264 0.969 . S
C264 H263 0.969 . S
C264 O265 1.550 . S
C264 H266 0.973 . S
O265 C264 1.550 . S
O265 C271 1.412 . S
H266 C264 0.973 . S
C267 H260 0.929 . S
C267 C268 1.400 . S
C267 C269 1.364 . S
C268 C267 1.400 . S
C268 C272 1.377 . S
C269 C267 1.364 . S
C269 C270 1.374 . S
C270 H261 0.930 . S
C270 C269 1.374 . S
C270 C271 1.383 . S
C271 O265 1.412 . S
C271 C270 1.383 . S
C271 C272 1.394 . S
C272 H262 0.929 . S
C272 C268 1.377 . S
C272 C271 1.394 . S
H273 C280 0.929 . S
H274 C283 0.930 . S
H275 C285 0.929 . S
H276 C277 0.969 . S
C277 H276 0.969 . S
C277 O278 1.550 . S
C277 H279 0.973 . S
O278 C277 1.550 . S
O278 C284 1.412 . S
H279 C277 0.973 . S
C280 H273 0.929 . S
C280 C281 1.400 . S
C280 C282 1.364 . S
C281 C280 1.400 . S
C281 C285 1.377 . S
C282 C280 1.364 . S
C282 C283 1.374 . S
C283 H274 0.930 . S
C283 C282 1.374 . S
C283 C284 1.383 . S
C284 O278 1.412 . S
C284 C283 1.383 . S
C284 C285 1.394 . S
C285 H275 0.929 . S
C285 C281 1.377 . S
C285 C284 1.394 . S
H286 C293 0.929 . S
H287 C296 0.930 . S
H288 C298 0.929 . S
H289 C290 0.969 . S
C290 H289 0.969 . S
C290 O291 1.550 . S
C290 H292 0.973 . S
O291 C290 1.550 . S
O291 C297 1.412 . S
H292 C290 0.973 . S
C293 H286 0.929 . S
C293 C294 1.400 . S
C293 C295 1.364 . S
C294 C293 1.400 . S
C294 C298 1.377 . S
C295 C293 1.364 . S
C295 C296 1.374 . S
C296 H287 0.930 . S
C296 C295 1.374 . S
C296 C297 1.383 . S
C297 O291 1.412 . S
C297 C296 1.383 . S
C297 C298 1.394 . S
C298 H288 0.929 . S
C298 C294 1.377 . S
C298 C297 1.394 . S
H299 C306 0.929 . S
H300 C309 0.930 . S
H301 C311 0.929 . S
H302 C303 0.969 . S
C303 H302 0.969 . S
C303 O304 1.550 . S
C303 H305 0.973 . S
O304 C303 1.550 . S
O304 C310 1.412 . S
H305 C303 0.973 . S
C306 H299 0.929 . S
C306 C307 1.400 . S
C306 C308 1.364 . S
C307 C306 1.400 . S
C307 C311 1.377 . S
C308 C306 1.364 . S
C308 C309 1.374 . S
C309 H300 0.930 . S
C309 C308 1.374 . S
C309 C310 1.383 . S
C310 O304 1.412 . S
C310 C309 1.383 . S
C310 C311 1.394 . S
C311 H301 0.929 . S
C311 C307 1.377 . S
C311 C310 1.394 . S
C312 O338 1.283 . S
C312 O356 1.283 . S
C313 O339 1.283 . S
C313 O354 1.283 . S
C314 O340 1.283 . S
C314 O357 1.283 . S
C315 O341 1.283 . S
C315 O355 1.283 . S
C316 O342 1.283 . S
C316 O351 1.283 . S
C317 O343 1.283 . S
C317 O353 1.283 . S
C318 O344 1.283 . S
C318 O350 1.283 . S
C319 O345 1.283 . S
C319 O352 1.283 . S
C320 O346 1.283 . S
C320 O361 1.283 . S
C321 O347 1.283 . S
C321 O359 1.283 . S
C322 O348 1.283 . S
C322 O360 1.283 . S
C323 O349 1.283 . S
C323 O358 1.283 . S
Eu324 O325 2.370 1_455 S
Eu324 O326 2.370 . S
Eu324 O329 2.370 1_455 S
Eu324 O330 2.370 . S
Eu324 O338 2.363 . S
Eu324 O339 2.363 . S
Eu324 O352 2.363 . S
Eu324 O353 2.363 1_455 S
O325 Eu324 2.370 1_655 S
O325 Eu327 2.365 1_565 S
O325 Eu332 2.364 1_665 S
O326 Eu324 2.370 . S
O326 Eu328 2.365 1_565 S
O326 Eu331 2.366 1_565 S
Eu327 O325 2.365 1_545 S
Eu327 O329 2.365 1_545 S
Eu327 O333 2.375 . S
Eu327 O334 2.375 . S
Eu327 O342 2.372 . S
Eu327 O343 2.354 1_545 S
Eu327 O358 2.363 . S
Eu327 O359 2.363 . S
Eu328 O326 2.365 1_545 S
Eu328 O330 2.365 1_545 S
Eu328 O335 2.375 . S
Eu328 O336 2.375 . S
Eu328 O344 2.372 . S
Eu328 O345 2.354 1_545 S
Eu328 O360 2.363 . S
Eu328 O361 2.363 . S
O329 Eu324 2.370 1_655 S
O329 Eu327 2.365 1_565 S
O329 Eu331 2.366 1_665 S
O330 Eu324 2.370 . S
O330 Eu328 2.365 1_565 S
O330 Eu332 2.364 1_565 S
Eu331 O326 2.366 1_545 S
Eu331 O329 2.366 1_445 S
Eu331 O333 2.374 1_455 S
Eu331 O336 2.374 . S
Eu331 O348 2.363 . S
Eu331 O349 2.363 1_455 S
Eu331 O356 2.356 1_545 S
Eu331 O357 2.370 . S
Eu332 O325 2.364 1_445 S
Eu332 O330 2.364 1_545 S
Eu332 O334 2.376 1_455 S
Eu332 O335 2.376 . S
Eu332 O346 2.363 . S
Eu332 O347 2.363 1_455 S
Eu332 O354 2.353 1_545 S
Eu332 O355 2.373 . S
O333 Eu327 2.375 . S
O333 Eu331 2.374 1_655 S
O333 Eu337 2.370 1_655 S
O334 Eu327 2.375 . S
O334 Eu332 2.376 1_655 S
O334 Eu337 2.370 1_655 S
O335 Eu328 2.375 . S
O335 Eu332 2.376 . S
O335 Eu337 2.370 . S
O336 Eu328 2.375 . S
O336 Eu331 2.374 . S
O336 Eu337 2.370 . S
Eu337 O333 2.370 1_455 S
Eu337 O334 2.370 1_455 S
Eu337 O335 2.370 . S
Eu337 O336 2.370 . S
Eu337 O340 2.363 . S
Eu337 O341 2.363 . S
Eu337 O350 2.363 . S
Eu337 O351 2.363 1_455 S
O338 C312 1.283 . S
O338 Eu324 2.363 . S
O339 C313 1.283 . S
O339 Eu324 2.363 . S
O340 C314 1.283 . S
O340 Eu337 2.363 . S
O341 C315 1.283 . S
O341 Eu337 2.363 . S
O342 C316 1.283 . S
O342 Eu327 2.372 . S
O343 C317 1.283 . S
O343 Eu327 2.354 1_565 S
O344 C318 1.283 . S
O344 Eu328 2.372 . S
O345 C319 1.283 . S
O345 Eu328 2.354 1_565 S
O346 C320 1.283 . S
O346 Eu332 2.363 . S
O347 C321 1.283 . S
O347 Eu332 2.363 1_655 S
O348 C322 1.283 . S
O348 Eu331 2.363 . S
O349 C323 1.283 . S
O349 Eu331 2.363 1_655 S
O350 C318 1.283 . S
O350 Eu337 2.363 . S
O351 C316 1.283 . S
O351 Eu337 2.363 1_655 S
O352 C319 1.283 . S
O352 Eu324 2.363 . S
O353 C317 1.283 . S
O353 Eu324 2.363 1_655 S
O354 C313 1.283 . S
O354 Eu332 2.353 1_565 S
O355 C315 1.283 . S
O355 Eu332 2.373 . S
O356 C312 1.283 . S
O356 Eu331 2.356 1_565 S
O357 C314 1.283 . S
O357 Eu331 2.370 . S
O358 C323 1.283 . S
O358 Eu327 2.363 . S
O359 C321 1.283 . S
O359 Eu327 2.363 . S
O360 C322 1.283 . S
O360 Eu328 2.363 . S
O361 C320 1.283 . S
O361 Eu328 2.363 . S
C362 O388 1.283 . S
C362 O406 1.283 . S
C363 O389 1.283 . S
C363 O404 1.283 . S
C364 O390 1.283 . S
C364 O407 1.283 . S
C365 O391 1.283 . S
C365 O405 1.283 . S
C366 O392 1.283 . S
C366 O401 1.283 . S
C367 O393 1.283 . S
C367 O403 1.283 . S
C368 O394 1.283 . S
C368 O400 1.283 . S
C369 O395 1.283 . S
C369 O402 1.283 . S
C370 O396 1.283 . S
C370 O411 1.283 . S
C371 O397 1.283 . S
C371 O409 1.283 . S
C372 O398 1.283 . S
C372 O410 1.283 . S
C373 O399 1.283 . S
C373 O408 1.283 . S
Eu374 O375 2.377 . S
Eu374 O376 2.363 1_545 S
Eu374 O379 2.363 1_545 S
Eu374 O380 2.377 . S
Eu374 O388 2.351 1_545 S
Eu374 O389 2.375 . S
Eu374 O402 2.363 . S
Eu374 O403 2.363 . S
O375 Eu374 2.377 . S
O375 Eu377 2.380 . S
O375 Eu382 2.373 . S
O376 Eu374 2.363 1_565 S
O376 Eu378 2.370 1_565 S
O376 Eu381 2.377 . S
Eu377 O375 2.380 . S
Eu377 O379 2.370 1_545 S
Eu377 O383 2.360 1_544 S
Eu377 O384 2.370 1_554 S
Eu377 O392 2.355 1_554 S
Eu377 O393 2.371 . S
Eu377 O408 2.354 1_545 S
Eu377 O409 2.372 . S
Eu378 O376 2.370 1_545 S
Eu378 O380 2.380 . S
Eu378 O385 2.371 1_554 S
Eu378 O386 2.360 1_544 S
Eu378 O394 2.355 1_554 S
Eu378 O395 2.371 . S
Eu378 O410 2.354 1_545 S
Eu378 O411 2.372 . S
O379 Eu374 2.363 1_565 S
O379 Eu377 2.370 1_565 S
O379 Eu381 2.377 . S
O380 Eu374 2.377 . S
O380 Eu378 2.380 . S
O380 Eu382 2.373 . S
Eu381 O376 2.377 . S
Eu381 O379 2.377 . S
Eu381 O383 2.364 1_554 S
Eu381 O386 2.364 1_554 S
Eu381 O398 2.363 . S
Eu381 O399 2.363 . S
Eu381 O406 2.374 . S
Eu381 O407 2.352 1_554 S
Eu382 O375 2.373 . S
Eu382 O380 2.373 . S
Eu382 O384 2.367 1_554 S
Eu382 O385 2.367 1_554 S
Eu382 O396 2.363 . S
Eu382 O397 2.363 . S
Eu382 O404 2.368 . S
Eu382 O405 2.358 1_554 S
O383 Eu377 2.360 1_566 S
O383 Eu381 2.364 1_556 S
O383 Eu387 2.367 1_565 S
O384 Eu377 2.370 1_556 S
O384 Eu382 2.367 1_556 S
O384 Eu387 2.373 . S
O385 Eu378 2.371 1_556 S
O385 Eu382 2.367 1_556 S
O385 Eu387 2.373 . S
O386 Eu378 2.360 1_566 S
O386 Eu381 2.364 1_556 S
O386 Eu387 2.367 1_565 S
Eu387 O383 2.367 1_545 S
Eu387 O384 2.373 . S
Eu387 O385 2.373 . S
Eu387 O386 2.367 1_545 S
Eu387 O390 2.357 1_545 S
Eu387 O391 2.369 . S
Eu387 O400 2.363 . S
Eu387 O401 2.363 . S
O388 C362 1.283 . S
O388 Eu374 2.351 1_565 S
O389 C363 1.283 . S
O389 Eu374 2.375 . S
O390 C364 1.283 . S
O390 Eu387 2.357 1_565 S
O391 C365 1.283 . S
O391 Eu387 2.369 . S
O392 C366 1.283 . S
O392 Eu377 2.355 1_556 S
O393 C367 1.283 . S
O393 Eu377 2.371 . S
O394 C368 1.283 . S
O394 Eu378 2.355 1_556 S
O395 C369 1.283 . S
O395 Eu378 2.371 . S
O396 C370 1.283 . S
O396 Eu382 2.363 . S
O397 C371 1.283 . S
O397 Eu382 2.363 . S
O398 C372 1.283 . S
O398 Eu381 2.363 . S
O399 C373 1.283 . S
O399 Eu381 2.363 . S
O400 C368 1.283 . S
O400 Eu387 2.363 . S
O401 C366 1.283 . S
O401 Eu387 2.363 . S
O402 C369 1.283 . S
O402 Eu374 2.363 . S
O403 C367 1.283 . S
O403 Eu374 2.363 . S
O404 C363 1.283 . S
O404 Eu382 2.368 . S
O405 C365 1.283 . S
O405 Eu382 2.358 1_556 S
O406 C362 1.283 . S
O406 Eu381 2.374 . S
O407 C364 1.283 . S
O407 Eu381 2.352 1_556 S
O408 C373 1.283 . S
O408 Eu377 2.354 1_565 S
O409 C371 1.283 . S
O409 Eu377 2.372 . S
O410 C372 1.283 . S
O410 Eu378 2.354 1_565 S
O411 C370 1.283 . S
O411 Eu378 2.372 . S
C412 O438 1.283 . S
C412 O456 1.283 . S
C413 O439 1.283 . S
C413 O454 1.283 . S
C414 O440 1.283 . S
C414 O457 1.283 . S
C415 O441 1.283 . S
C415 O455 1.283 . S
C416 O442 1.283 . S
C416 O451 1.283 . S
C417 O443 1.283 . S
C417 O453 1.283 . S
C418 O444 1.283 . S
C418 O450 1.283 . S
C419 O445 1.283 . S
C419 O452 1.283 . S
C420 O446 1.283 . S
C420 O461 1.283 . S
C421 O447 1.283 . S
C421 O459 1.283 . S
C422 O448 1.283 . S
C422 O460 1.283 . S
C423 O449 1.283 . S
C423 O458 1.283 . S
Eu424 O425 2.366 1_454 S
Eu424 O426 2.374 . S
Eu424 O429 2.374 1_455 S
Eu424 O430 2.366 1_554 S
Eu424 O438 2.369 . S
Eu424 O439 2.357 1_554 S
Eu424 O452 2.363 . S
Eu424 O453 2.363 1_455 S
O425 Eu424 2.366 1_656 S
O425 Eu427 2.365 1_556 S
O425 Eu432 2.370 1_655 S
O426 Eu424 2.374 . S
O426 Eu428 2.375 . S
O426 Eu431 2.370 . S
Eu427 O425 2.365 1_554 S
Eu427 O429 2.375 . S
Eu427 O433 2.375 . S
Eu427 O434 2.365 1_554 S
Eu427 O442 2.363 . S
Eu427 O443 2.363 . S
Eu427 O458 2.371 . S
Eu427 O459 2.355 1_554 S
Eu428 O426 2.375 . S
Eu428 O430 2.365 1_554 S
Eu428 O435 2.365 1_554 S
Eu428 O436 2.375 . S
Eu428 O444 2.363 . S
Eu428 O445 2.363 . S
Eu428 O460 2.371 . S
Eu428 O461 2.355 1_554 S
O429 Eu424 2.374 1_655 S
O429 Eu427 2.375 . S
O429 Eu431 2.370 1_655 S
O430 Eu424 2.366 1_556 S
O430 Eu428 2.365 1_556 S
O430 Eu432 2.370 . S
Eu431 O426 2.370 . S
Eu431 O429 2.370 1_455 S
Eu431 O433 2.370 1_455 S
Eu431 O436 2.370 . S
Eu431 O448 2.363 . S
Eu431 O449 2.363 1_455 S
Eu431 O456 2.363 . S
Eu431 O457 2.363 . S
Eu432 O425 2.370 1_455 S
Eu432 O430 2.370 . S
Eu432 O434 2.370 1_455 S
Eu432 O435 2.370 . S
Eu432 O446 2.363 . S
Eu432 O447 2.363 1_455 S
Eu432 O454 2.363 . S
Eu432 O455 2.363 . S
O433 Eu427 2.375 . S
O433 Eu431 2.370 1_655 S
O433 Eu437 2.376 1_655 S
O434 Eu427 2.365 1_556 S
O434 Eu432 2.370 1_655 S
O434 Eu437 2.364 1_656 S
O435 Eu428 2.365 1_556 S
O435 Eu432 2.370 . S
O435 Eu437 2.364 1_556 S
O436 Eu428 2.375 . S
O436 Eu431 2.370 . S
O436 Eu437 2.376 . S
Eu437 O433 2.376 1_455 S
Eu437 O434 2.364 1_454 S
Eu437 O435 2.364 1_554 S
Eu437 O436 2.376 . S
Eu437 O440 2.373 . S
Eu437 O441 2.353 1_554 S
Eu437 O450 2.363 . S
Eu437 O451 2.363 1_455 S
O438 C412 1.283 . S
O438 Eu424 2.369 . S
O439 C413 1.283 . S
O439 Eu424 2.357 1_556 S
O440 C414 1.283 . S
O440 Eu437 2.373 . S
O441 C415 1.283 . S
O441 Eu437 2.353 1_556 S
O442 C416 1.283 . S
O442 Eu427 2.363 . S
O443 C417 1.283 . S
O443 Eu427 2.363 . S
O444 C418 1.283 . S
O444 Eu428 2.363 . S
O445 C419 1.283 . S
O445 Eu428 2.363 . S
O446 C420 1.283 . S
O446 Eu432 2.363 . S
O447 C421 1.283 . S
O447 Eu432 2.363 1_655 S
O448 C422 1.283 . S
O448 Eu431 2.363 . S
O449 C423 1.283 . S
O449 Eu431 2.363 1_655 S
O450 C418 1.283 . S
O450 Eu437 2.363 . S
O451 C416 1.283 . S
O451 Eu437 2.363 1_655 S
O452 C419 1.283 . S
O452 Eu424 2.363 . S
O453 C417 1.283 . S
O453 Eu424 2.363 1_655 S
O454 C413 1.283 . S
O454 Eu432 2.363 . S
O455 C415 1.283 . S
O455 Eu432 2.363 . S
O456 C412 1.283 . S
O456 Eu431 2.363 . S
O457 C414 1.283 . S
O457 Eu431 2.363 . S
O458 C423 1.283 . S
O458 Eu427 2.371 . S
O459 C421 1.283 . S
O459 Eu427 2.355 1_556 S
O460 C422 1.283 . S
O460 Eu428 2.371 . S
O461 C420 1.283 . S
O461 Eu428 2.355 1_556 S
C462 O488 1.283 . S
C462 O506 1.283 . S
C463 O489 1.283 . S
C463 O504 1.283 . S
C464 O490 1.283 . S
C464 O507 1.283 . S
C465 O491 1.283 . S
C465 O505 1.283 . S
C466 O492 1.283 . S
C466 O501 1.283 . S
C467 O493 1.283 . S
C467 O503 1.283 . S
C468 O494 1.283 . S
C468 O500 1.283 . S
C469 O495 1.283 . S
C469 O502 1.283 . S
C470 O496 1.283 . S
C470 O511 1.283 . S
C471 O497 1.283 . S
C471 O509 1.283 . S
C472 O498 1.283 . S
C472 O510 1.283 . S
C473 O499 1.283 . S
C473 O508 1.283 . S
Eu474 O475 2.370 . S
Eu474 O476 2.370 . S
Eu474 O479 2.370 . S
Eu474 O480 2.370 . S
Eu474 O488 2.363 . S
Eu474 O489 2.363 . S
Eu474 O502 2.363 . S
Eu474 O503 2.363 . S
O475 Eu474 2.370 . S
O475 Eu477 2.375 . S
O475 Eu482 2.376 . S
O476 Eu474 2.370 . S
O476 Eu478 2.375 . S
O476 Eu481 2.374 . S
Eu477 O475 2.375 . S
Eu477 O479 2.375 . S
Eu477 O483 2.365 1_554 S
Eu477 O484 2.365 1_554 S
Eu477 O492 2.355 1_554 S
Eu477 O493 2.371 . S
Eu477 O508 2.363 . S
Eu477 O509 2.363 . S
Eu478 O476 2.375 . S
Eu478 O480 2.375 . S
Eu478 O485 2.365 1_554 S
Eu478 O486 2.365 1_554 S
Eu478 O494 2.355 1_554 S
Eu478 O495 2.371 . S
Eu478 O510 2.363 . S
Eu478 O511 2.363 . S
O479 Eu474 2.370 . S
O479 Eu477 2.375 . S
O479 Eu481 2.374 . S
O480 Eu474 2.370 . S
O480 Eu478 2.375 . S
O480 Eu482 2.376 . S
Eu481 O476 2.374 . S
Eu481 O479 2.374 . S
Eu481 O483 2.366 1_554 S
Eu481 O486 2.366 1_554 S
Eu481 O498 2.363 . S
Eu481 O499 2.363 . S
Eu481 O506 2.369 . S
Eu481 O507 2.357 1_554 S
Eu482 O475 2.376 . S
Eu482 O480 2.376 . S
Eu482 O484 2.364 1_554 S
Eu482 O485 2.364 1_554 S
Eu482 O496 2.363 . S
Eu482 O497 2.363 . S
Eu482 O504 2.373 . S
Eu482 O505 2.353 1_554 S
O483 Eu477 2.365 1_556 S
O483 Eu481 2.366 1_556 S
O483 Eu487 2.370 . S
O484 Eu477 2.365 1_556 S
O484 Eu482 2.364 1_556 S
O484 Eu487 2.370 . S
O485 Eu478 2.365 1_556 S
O485 Eu482 2.364 1_556 S
O485 Eu487 2.370 . S
O486 Eu478 2.365 1_556 S
O486 Eu481 2.366 1_556 S
O486 Eu487 2.370 . S
Eu487 O483 2.370 . S
Eu487 O484 2.370 . S
Eu487 O485 2.370 . S
Eu487 O486 2.370 . S
Eu487 O490 2.363 . S
Eu487 O491 2.363 . S
Eu487 O500 2.363 . S
Eu487 O501 2.363 . S
O488 C462 1.283 . S
O488 Eu474 2.363 . S
O489 C463 1.283 . S
O489 Eu474 2.363 . S
O490 C464 1.283 . S
O490 Eu487 2.363 . S
O491 C465 1.283 . S
O491 Eu487 2.363 . S
O492 C466 1.283 . S
O492 Eu477 2.355 1_556 S
O493 C467 1.283 . S
O493 Eu477 2.371 . S
O494 C468 1.283 . S
O494 Eu478 2.355 1_556 S
O495 C469 1.283 . S
O495 Eu478 2.371 . S
O496 C470 1.283 . S
O496 Eu482 2.363 . S
O497 C471 1.283 . S
O497 Eu482 2.363 . S
O498 C472 1.283 . S
O498 Eu481 2.363 . S
O499 C473 1.283 . S
O499 Eu481 2.363 . S
O500 C468 1.283 . S
O500 Eu487 2.363 . S
O501 C466 1.283 . S
O501 Eu487 2.363 . S
O502 C469 1.283 . S
O502 Eu474 2.363 . S
O503 C467 1.283 . S
O503 Eu474 2.363 . S
O504 C463 1.283 . S
O504 Eu482 2.373 . S
O505 C465 1.283 . S
O505 Eu482 2.353 1_556 S
O506 C462 1.283 . S
O506 Eu481 2.369 . S
O507 C464 1.283 . S
O507 Eu481 2.357 1_556 S
O508 C473 1.283 . S
O508 Eu477 2.363 . S
O509 C471 1.283 . S
O509 Eu477 2.363 . S
O510 C472 1.283 . S
O510 Eu478 2.363 . S
O511 C470 1.283 . S
O511 Eu478 2.363 . S
C512 O538 1.283 . S
C512 O556 1.283 . S
C513 O539 1.283 . S
C513 O554 1.283 . S
C514 O540 1.283 . S
C514 O557 1.283 . S
C515 O541 1.283 . S
C515 O555 1.283 . S
C516 O542 1.283 . S
C516 O551 1.283 . S
C517 O543 1.283 . S
C517 O553 1.283 . S
C518 O544 1.283 . S
C518 O550 1.283 . S
C519 O545 1.283 . S
C519 O552 1.283 . S
C520 O546 1.283 . S
C520 O561 1.283 . S
C521 O547 1.283 . S
C521 O559 1.283 . S
C522 O548 1.283 . S
C522 O560 1.283 . S
C523 O549 1.283 . S
C523 O558 1.283 . S
Eu524 O525 2.370 1_455 S
Eu524 O526 2.370 . S
Eu524 O529 2.370 1_455 S
Eu524 O530 2.370 . S
Eu524 O538 2.363 . S
Eu524 O539 2.363 . S
Eu524 O552 2.363 . S
Eu524 O553 2.363 1_455 S
O525 Eu524 2.370 1_655 S
O525 Eu527 2.370 . S
O525 Eu532 2.370 1_655 S
O526 Eu524 2.370 . S
O526 Eu528 2.370 . S
O526 Eu531 2.370 . S
Eu527 O525 2.370 . S
Eu527 O529 2.370 . S
Eu527 O533 2.370 . S
Eu527 O534 2.370 . S
Eu527 O542 2.363 . S
Eu527 O543 2.363 . S
Eu527 O558 2.363 . S
Eu527 O559 2.363 . S
Eu528 O526 2.370 . S
Eu528 O530 2.370 . S
Eu528 O535 2.370 . S
Eu528 O536 2.370 . S
Eu528 O544 2.363 . S
Eu528 O545 2.363 . S
Eu528 O560 2.363 . S
Eu528 O561 2.363 . S
O529 Eu524 2.370 1_655 S
O529 Eu527 2.370 . S
O529 Eu531 2.370 1_655 S
O530 Eu524 2.370 . S
O530 Eu528 2.370 . S
O530 Eu532 2.370 . S
Eu531 O526 2.370 . S
Eu531 O529 2.370 1_455 S
Eu531 O533 2.370 1_455 S
Eu531 O536 2.370 . S
Eu531 O548 2.363 . S
Eu531 O549 2.363 1_455 S
Eu531 O556 2.363 . S
Eu531 O557 2.363 . S
Eu532 O525 2.370 1_455 S
Eu532 O530 2.370 . S
Eu532 O534 2.370 1_455 S
Eu532 O535 2.370 . S
Eu532 O546 2.363 . S
Eu532 O547 2.363 1_455 S
Eu532 O554 2.363 . S
Eu532 O555 2.363 . S
O533 Eu527 2.370 . S
O533 Eu531 2.370 1_655 S
O533 Eu537 2.370 1_655 S
O534 Eu527 2.370 . S
O534 Eu532 2.370 1_655 S
O534 Eu537 2.370 1_655 S
O535 Eu528 2.370 . S
O535 Eu532 2.370 . S
O535 Eu537 2.370 . S
O536 Eu528 2.370 . S
O536 Eu531 2.370 . S
O536 Eu537 2.370 . S
Eu537 O533 2.370 1_455 S
Eu537 O534 2.370 1_455 S
Eu537 O535 2.370 . S
Eu537 O536 2.370 . S
Eu537 O540 2.363 . S
Eu537 O541 2.363 . S
Eu537 O550 2.363 . S
Eu537 O551 2.363 1_455 S
O538 C512 1.283 . S
O538 Eu524 2.363 . S
O539 C513 1.283 . S
O539 Eu524 2.363 . S
O540 C514 1.283 . S
O540 Eu537 2.363 . S
O541 C515 1.283 . S
O541 Eu537 2.363 . S
O542 C516 1.283 . S
O542 Eu527 2.363 . S
O543 C517 1.283 . S
O543 Eu527 2.363 . S
O544 C518 1.283 . S
O544 Eu528 2.363 . S
O545 C519 1.283 . S
O545 Eu528 2.363 . S
O546 C520 1.283 . S
O546 Eu532 2.363 . S
O547 C521 1.283 . S
O547 Eu532 2.363 1_655 S
O548 C522 1.283 . S
O548 Eu531 2.363 . S
O549 C523 1.283 . S
O549 Eu531 2.363 1_655 S
O550 C518 1.283 . S
O550 Eu537 2.363 . S
O551 C516 1.283 . S
O551 Eu537 2.363 1_655 S
O552 C519 1.283 . S
O552 Eu524 2.363 . S
O553 C517 1.283 . S
O553 Eu524 2.363 1_655 S
O554 C513 1.283 . S
O554 Eu532 2.363 . S
O555 C515 1.283 . S
O555 Eu532 2.363 . S
O556 C512 1.283 . S
O556 Eu531 2.363 . S
O557 C514 1.283 . S
O557 Eu531 2.363 . S
O558 C523 1.283 . S
O558 Eu527 2.363 . S
O559 C521 1.283 . S
O559 Eu527 2.363 . S
O560 C522 1.283 . S
O560 Eu528 2.363 . S
O561 C520 1.283 . S
O561 Eu528 2.363 . S
C562 O588 1.283 . S
C562 O606 1.283 . S
C563 O589 1.283 . S
C563 O604 1.283 . S
C564 O590 1.283 . S
C564 O607 1.283 . S
C565 O591 1.283 . S
C565 O605 1.283 . S
C566 O592 1.283 . S
C566 O601 1.283 . S
C567 O593 1.283 . S
C567 O603 1.283 . S
C568 O594 1.283 . S
C568 O600 1.283 . S
C569 O595 1.283 . S
C569 O602 1.283 . S
C570 O596 1.283 . S
C570 O611 1.283 . S
C571 O597 1.283 . S
C571 O609 1.283 . S
C572 O598 1.283 . S
C572 O610 1.283 . S
C573 O599 1.283 . S
C573 O608 1.283 . S
Eu574 O575 2.370 . S
Eu574 O576 2.370 . S
Eu574 O579 2.370 . S
Eu574 O580 2.370 . S
Eu574 O588 2.363 . S
Eu574 O589 2.363 . S
Eu574 O602 2.363 . S
Eu574 O603 2.363 . S
O575 Eu574 2.370 . S
O575 Eu577 2.365 1_565 S
O575 Eu582 2.364 1_565 S
O576 Eu574 2.370 . S
O576 Eu578 2.365 1_565 S
O576 Eu581 2.366 1_565 S
Eu577 O575 2.365 1_545 S
Eu577 O579 2.365 1_545 S
Eu577 O583 2.375 . S
Eu577 O584 2.375 . S
Eu577 O592 2.372 . S
Eu577 O593 2.354 1_545 S
Eu577 O608 2.363 . S
Eu577 O609 2.363 . S
Eu578 O576 2.365 1_545 S
Eu578 O580 2.365 1_545 S
Eu578 O585 2.375 . S
Eu578 O586 2.375 . S
Eu578 O594 2.372 . S
Eu578 O595 2.354 1_545 S
Eu578 O610 2.363 . S
Eu578 O611 2.363 . S
O579 Eu574 2.370 . S
O579 Eu577 2.365 1_565 S
O579 Eu581 2.366 1_565 S
O580 Eu574 2.370 . S
O580 Eu578 2.365 1_565 S
O580 Eu582 2.364 1_565 S
Eu581 O576 2.366 1_545 S
Eu581 O579 2.366 1_545 S
Eu581 O583 2.374 . S
Eu581 O586 2.374 . S
Eu581 O598 2.363 . S
Eu581 O599 2.363 . S
Eu581 O606 2.356 1_545 S
Eu581 O607 2.370 . S
Eu582 O575 2.364 1_545 S
Eu582 O580 2.364 1_545 S
Eu582 O584 2.376 . S
Eu582 O585 2.376 . S
Eu582 O596 2.363 . S
Eu582 O597 2.363 . S
Eu582 O604 2.353 1_545 S
Eu582 O605 2.373 . S
O583 Eu577 2.375 . S
O583 Eu581 2.374 . S
O583 Eu587 2.370 . S
O584 Eu577 2.375 . S
O584 Eu582 2.376 . S
O584 Eu587 2.370 . S
O585 Eu578 2.375 . S
O585 Eu582 2.376 . S
O585 Eu587 2.370 . S
O586 Eu578 2.375 . S
O586 Eu581 2.374 . S
O586 Eu587 2.370 . S
Eu587 O583 2.370 . S
Eu587 O584 2.370 . S
Eu587 O585 2.370 . S
Eu587 O586 2.370 . S
Eu587 O590 2.363 . S
Eu587 O591 2.363 . S
Eu587 O600 2.363 . S
Eu587 O601 2.363 . S
O588 C562 1.283 . S
O588 Eu574 2.363 . S
O589 C563 1.283 . S
O589 Eu574 2.363 . S
O590 C564 1.283 . S
O590 Eu587 2.363 . S
O591 C565 1.283 . S
O591 Eu587 2.363 . S
O592 C566 1.283 . S
O592 Eu577 2.372 . S
O593 C567 1.283 . S
O593 Eu577 2.354 1_565 S
O594 C568 1.283 . S
O594 Eu578 2.372 . S
O595 C569 1.283 . S
O595 Eu578 2.354 1_565 S
O596 C570 1.283 . S
O596 Eu582 2.363 . S
O597 C571 1.283 . S
O597 Eu582 2.363 . S
O598 C572 1.283 . S
O598 Eu581 2.363 . S
O599 C573 1.283 . S
O599 Eu581 2.363 . S
O600 C568 1.283 . S
O600 Eu587 2.363 . S
O601 C566 1.283 . S
O601 Eu587 2.363 . S
O602 C569 1.283 . S
O602 Eu574 2.363 . S
O603 C567 1.283 . S
O603 Eu574 2.363 . S
O604 C563 1.283 . S
O604 Eu582 2.353 1_565 S
O605 C565 1.283 . S
O605 Eu582 2.373 . S
O606 C562 1.283 . S
O606 Eu581 2.356 1_565 S
O607 C564 1.283 . S
O607 Eu581 2.370 . S
O608 C573 1.283 . S
O608 Eu577 2.363 . S
O609 C571 1.283 . S
O609 Eu577 2.363 . S
O610 C572 1.283 . S
O610 Eu578 2.363 . S
O611 C570 1.283 . S
O611 Eu578 2.363 . S
C612 C613 1.391 . S
C612 C614 1.394 . S
C612 H628 0.931 . S
C613 C612 1.391 . S
C613 C617 1.376 . S
C614 C612 1.394 . S
C614 C615 1.369 . S
C614 C618 1.531 . S
C615 C614 1.369 . S
C615 C616 1.410 . S
C615 C623 1.503 . S
C616 C615 1.410 . S
C616 C617 1.392 . S
C616 C619 1.511 . S
C617 C613 1.376 . S
C617 C616 1.392 . S
C617 H629 0.929 . S
C618 C614 1.531 . S
C618 H630 0.960 . S
C618 H631 0.962 . S
C618 H632 0.960 . S
C619 C616 1.511 . S
C619 H633 0.961 . S
C619 H634 0.961 . S
C619 H635 0.961 . S
C620 C621 1.370 . S
C620 C622 1.363 . S
C620 H636 0.931 . S
C621 C620 1.370 . S
C621 C625 1.408 . S
C622 C620 1.363 . S
C622 C623 1.370 . S
C622 C626 1.524 . S
C623 C615 1.503 . S
C623 C622 1.370 . S
C623 C624 1.403 . S
C624 C623 1.403 . S
C624 C625 1.404 . S
C624 C627 1.539 . S
C625 C621 1.408 . S
C625 C624 1.404 . S
C625 H637 0.930 . S
C626 C622 1.524 . S
C626 H638 0.956 . S
C626 H639 0.961 . S
C626 H640 0.961 . S
C627 C624 1.539 . S
C627 H641 0.958 . S
C627 H642 0.961 . S
C627 H643 0.960 . S
H628 C612 0.931 . S
H629 C617 0.929 . S
H630 C618 0.960 . S
H631 C618 0.962 . S
H632 C618 0.960 . S
H633 C619 0.961 . S
H634 C619 0.961 . S
H635 C619 0.961 . S
H636 C620 0.931 . S
H637 C625 0.930 . S
H638 C626 0.956 . S
H639 C626 0.961 . S
H640 C626 0.961 . S
H641 C627 0.958 . S
H642 C627 0.961 . S
H643 C627 0.960 . S
C644 C645 1.391 . S
C644 C646 1.394 . S
C644 H660 0.931 . S
C645 C644 1.391 . S
C645 C649 1.376 . S
C646 C644 1.394 . S
C646 C647 1.369 . S
C646 C650 1.531 . S
C647 C646 1.369 . S
C647 C648 1.410 . S
C647 C655 1.503 . S
C648 C647 1.410 . S
C648 C649 1.392 . S
C648 C651 1.511 . S
C649 C645 1.376 . S
C649 C648 1.392 . S
C649 H661 0.929 . S
C650 C646 1.531 . S
C650 H662 0.960 . S
C650 H663 0.962 . S
C650 H664 0.960 . S
C651 C648 1.511 . S
C651 H665 0.961 . S
C651 H666 0.961 . S
C651 H667 0.961 . S
C652 C653 1.370 . S
C652 C654 1.363 . S
C652 H668 0.931 . S
C653 C652 1.370 . S
C653 C657 1.408 . S
C654 C652 1.363 . S
C654 C655 1.370 . S
C654 C658 1.524 . S
C655 C647 1.503 . S
C655 C654 1.370 . S
C655 C656 1.403 . S
C656 C655 1.403 . S
C656 C657 1.404 . S
C656 C659 1.539 . S
C657 C653 1.408 . S
C657 C656 1.404 . S
C657 H669 0.930 . S
C658 C654 1.524 . S
C658 H670 0.956 . S
C658 H671 0.961 . S
C658 H672 0.961 . S
C659 C656 1.539 . S
C659 H673 0.958 . S
C659 H674 0.961 . S
C659 H675 0.960 . S
H660 C644 0.931 . S
H661 C649 0.929 . S
H662 C650 0.960 . S
H663 C650 0.962 . S
H664 C650 0.960 . S
H665 C651 0.961 . S
H666 C651 0.961 . S
H667 C651 0.961 . S
H668 C652 0.931 . S
H669 C657 0.930 . S
H670 C658 0.956 . S
H671 C658 0.961 . S
H672 C658 0.961 . S
H673 C659 0.958 . S
H674 C659 0.961 . S
H675 C659 0.960 . S
C676 C677 1.391 . S
C676 C678 1.394 . S
C676 H692 0.931 . S
C677 C676 1.391 . S
C677 C681 1.376 . S
C678 C676 1.394 . S
C678 C679 1.369 . S
C678 C682 1.531 . S
C679 C678 1.369 . S
C679 C680 1.410 . S
C679 C687 1.503 . S
C680 C679 1.410 . S
C680 C681 1.392 . S
C680 C683 1.511 . S
C681 C677 1.376 . S
C681 C680 1.392 . S
C681 H693 0.929 . S
C682 C678 1.531 . S
C682 H694 0.960 . S
C682 H695 0.962 . S
C682 H696 0.960 . S
C683 C680 1.511 . S
C683 H697 0.961 . S
C683 H698 0.961 . S
C683 H699 0.961 . S
C684 C685 1.370 . S
C684 C686 1.363 . S
C684 H700 0.931 . S
C685 C684 1.370 . S
C685 C689 1.408 . S
C686 C684 1.363 . S
C686 C687 1.370 . S
C686 C690 1.524 . S
C687 C679 1.503 . S
C687 C686 1.370 . S
C687 C688 1.403 . S
C688 C687 1.403 . S
C688 C689 1.404 . S
C688 C691 1.539 . S
C689 C685 1.408 . S
C689 C688 1.404 . S
C689 H701 0.930 . S
C690 C686 1.524 . S
C690 H702 0.956 . S
C690 H703 0.961 . S
C690 H704 0.961 . S
C691 C688 1.539 . S
C691 H705 0.958 . S
C691 H706 0.961 . S
C691 H707 0.960 . S
H692 C676 0.931 . S
H693 C681 0.929 . S
H694 C682 0.960 . S
H695 C682 0.962 . S
H696 C682 0.960 . S
H697 C683 0.961 . S
H698 C683 0.961 . S
H699 C683 0.961 . S
H700 C684 0.931 . S
H701 C689 0.930 . S
H702 C690 0.956 . S
H703 C690 0.961 . S
H704 C690 0.961 . S
H705 C691 0.958 . S
H706 C691 0.961 . S
H707 C691 0.960 . S
C708 C709 1.391 . S
C708 C710 1.394 . S
C708 H724 0.931 . S
C709 C708 1.391 . S
C709 C713 1.376 . S
C710 C708 1.394 . S
C710 C711 1.369 . S
C710 C714 1.531 . S
C711 C710 1.369 . S
C711 C712 1.410 . S
C711 C719 1.503 . S
C712 C711 1.410 . S
C712 C713 1.392 . S
C712 C715 1.511 . S
C713 C709 1.376 . S
C713 C712 1.392 . S
C713 H725 0.929 . S
C714 C710 1.531 . S
C714 H726 0.960 . S
C714 H727 0.962 . S
C714 H728 0.960 . S
C715 C712 1.511 . S
C715 H729 0.961 . S
C715 H730 0.961 . S
C715 H731 0.961 . S
C716 C717 1.370 . S
C716 C718 1.363 . S
C716 H732 0.931 . S
C717 C716 1.370 . S
C717 C721 1.408 . S
C718 C716 1.363 . S
C718 C719 1.370 . S
C718 C722 1.524 . S
C719 C711 1.503 . S
C719 C718 1.370 . S
C719 C720 1.403 . S
C720 C719 1.403 . S
C720 C721 1.404 . S
C720 C723 1.539 . S
C721 C717 1.408 . S
C721 C720 1.404 . S
C721 H733 0.930 . S
C722 C718 1.524 . S
C722 H734 0.956 . S
C722 H735 0.961 . S
C722 H736 0.961 . S
C723 C720 1.539 . S
C723 H737 0.958 . S
C723 H738 0.961 . S
C723 H739 0.960 . S
H724 C708 0.931 . S
H725 C713 0.929 . S
H726 C714 0.960 . S
H727 C714 0.962 . S
H728 C714 0.960 . S
H729 C715 0.961 . S
H730 C715 0.961 . S
H731 C715 0.961 . S
H732 C716 0.931 . S
H733 C721 0.930 . S
H734 C722 0.956 . S
H735 C722 0.961 . S
H736 C722 0.961 . S
H737 C723 0.958 . S
H738 C723 0.961 . S
H739 C723 0.960 . S
C740 C741 1.391 . S
C740 C742 1.394 . S
C740 H756 0.931 . S
C741 C740 1.391 . S
C741 C745 1.376 . S
C742 C740 1.394 . S
C742 C743 1.369 . S
C742 C746 1.531 . S
C743 C742 1.369 . S
C743 C744 1.410 . S
C743 C751 1.503 . S
C744 C743 1.410 . S
C744 C745 1.392 . S
C744 C747 1.511 . S
C745 C741 1.376 . S
C745 C744 1.392 . S
C745 H757 0.929 . S
C746 C742 1.531 . S
C746 H758 0.960 . S
C746 H759 0.962 . S
C746 H760 0.960 . S
C747 C744 1.511 . S
C747 H761 0.961 . S
C747 H762 0.961 . S
C747 H763 0.961 . S
C748 C749 1.370 . S
C748 C750 1.363 . S
C748 H764 0.931 . S
C749 C748 1.370 . S
C749 C753 1.408 . S
C750 C748 1.363 . S
C750 C751 1.370 . S
C750 C754 1.524 . S
C751 C743 1.503 . S
C751 C750 1.370 . S
C751 C752 1.403 . S
C752 C751 1.403 . S
C752 C753 1.404 . S
C752 C755 1.539 . S
C753 C749 1.408 . S
C753 C752 1.404 . S
C753 H765 0.930 . S
C754 C750 1.524 . S
C754 H766 0.956 . S
C754 H767 0.961 . S
C754 H768 0.961 . S
C755 C752 1.539 . S
C755 H769 0.958 . S
C755 H770 0.961 . S
C755 H771 0.960 . S
H756 C740 0.931 . S
H757 C745 0.929 . S
H758 C746 0.960 . S
H759 C746 0.962 . S
H760 C746 0.960 . S
H761 C747 0.961 . S
H762 C747 0.961 . S
H763 C747 0.961 . S
H764 C748 0.931 . S
H765 C753 0.930 . S
H766 C754 0.956 . S
H767 C754 0.961 . S
H768 C754 0.961 . S
H769 C755 0.958 . S
H770 C755 0.961 . S
H771 C755 0.960 . S
C772 C773 1.391 . S
C772 C774 1.394 . S
C772 H788 0.931 . S
C773 C772 1.391 . S
C773 C777 1.376 . S
C774 C772 1.394 . S
C774 C775 1.369 . S
C774 C778 1.531 . S
C775 C774 1.369 . S
C775 C776 1.410 . S
C775 C783 1.503 . S
C776 C775 1.410 . S
C776 C777 1.392 . S
C776 C779 1.511 . S
C777 C773 1.376 . S
C777 C776 1.392 . S
C777 H789 0.929 . S
C778 C774 1.531 . S
C778 H790 0.960 . S
C778 H791 0.962 . S
C778 H792 0.960 . S
C779 C776 1.511 . S
C779 H793 0.961 . S
C779 H794 0.961 . S
C779 H795 0.961 . S
C780 C781 1.370 . S
C780 C782 1.363 . S
C780 H796 0.931 . S
C781 C780 1.370 . S
C781 C785 1.408 . S
C782 C780 1.363 . S
C782 C783 1.370 . S
C782 C786 1.524 . S
C783 C775 1.503 . S
C783 C782 1.370 . S
C783 C784 1.403 . S
C784 C783 1.403 . S
C784 C785 1.404 . S
C784 C787 1.539 . S
C785 C781 1.408 . S
C785 C784 1.404 . S
C785 H797 0.930 . S
C786 C782 1.524 . S
C786 H798 0.956 . S
C786 H799 0.961 . S
C786 H800 0.961 . S
C787 C784 1.539 . S
C787 H801 0.958 . S
C787 H802 0.961 . S
C787 H803 0.960 . S
H788 C772 0.931 . S
H789 C777 0.929 . S
H790 C778 0.960 . S
H791 C778 0.962 . S
H792 C778 0.960 . S
H793 C779 0.961 . S
H794 C779 0.961 . S
H795 C779 0.961 . S
H796 C780 0.931 . S
H797 C785 0.930 . S
H798 C786 0.956 . S
H799 C786 0.961 . S
H800 C786 0.961 . S
H801 C787 0.958 . S
H802 C787 0.961 . S
H803 C787 0.960 . S
C804 C805 1.391 . S
C804 C806 1.394 . S
C804 H820 0.931 . S
C805 C804 1.391 . S
C805 C809 1.376 . S
C806 C804 1.394 . S
C806 C807 1.369 . S
C806 C810 1.531 . S
C807 C806 1.369 . S
C807 C808 1.410 . S
C807 C815 1.503 . S
C808 C807 1.410 . S
C808 C809 1.392 . S
C808 C811 1.511 . S
C809 C805 1.376 . S
C809 C808 1.392 . S
C809 H821 0.929 . S
C810 C806 1.531 . S
C810 H822 0.960 . S
C810 H823 0.962 . S
C810 H824 0.960 . S
C811 C808 1.511 . S
C811 H825 0.961 . S
C811 H826 0.961 . S
C811 H827 0.961 . S
C812 C813 1.370 . S
C812 C814 1.363 . S
C812 H828 0.931 . S
C813 C812 1.370 . S
C813 C817 1.408 . S
C814 C812 1.363 . S
C814 C815 1.370 . S
C814 C818 1.524 . S
C815 C807 1.503 . S
C815 C814 1.370 . S
C815 C816 1.403 . S
C816 C815 1.403 . S
C816 C817 1.404 . S
C816 C819 1.539 . S
C817 C813 1.408 . S
C817 C816 1.404 . S
C817 H829 0.930 . S
C818 C814 1.524 . S
C818 H830 0.956 . S
C818 H831 0.961 . S
C818 H832 0.961 . S
C819 C816 1.539 . S
C819 H833 0.958 . S
C819 H834 0.961 . S
C819 H835 0.960 . S
H820 C804 0.931 . S
H821 C809 0.929 . S
H822 C810 0.960 . S
H823 C810 0.962 . S
H824 C810 0.960 . S
H825 C811 0.961 . S
H826 C811 0.961 . S
H827 C811 0.961 . S
H828 C812 0.931 . S
H829 C817 0.930 . S
H830 C818 0.956 . S
H831 C818 0.961 . S
H832 C818 0.961 . S
H833 C819 0.958 . S
H834 C819 0.961 . S
H835 C819 0.960 . S
C836 C837 1.391 . S
C836 C838 1.394 . S
C836 H852 0.931 . S
C837 C836 1.391 . S
C837 C841 1.376 . S
C838 C836 1.394 . S
C838 C839 1.369 . S
C838 C842 1.531 . S
C839 C838 1.369 . S
C839 C840 1.410 . S
C839 C847 1.503 . S
C840 C839 1.410 . S
C840 C841 1.392 . S
C840 C843 1.511 . S
C841 C837 1.376 . S
C841 C840 1.392 . S
C841 H853 0.929 . S
C842 C838 1.531 . S
C842 H854 0.960 . S
C842 H855 0.962 . S
C842 H856 0.960 . S
C843 C840 1.511 . S
C843 H857 0.961 . S
C843 H858 0.961 . S
C843 H859 0.961 . S
C844 C845 1.370 . S
C844 C846 1.363 . S
C844 H860 0.931 . S
C845 C844 1.370 . S
C845 C849 1.408 . S
C846 C844 1.363 . S
C846 C847 1.370 . S
C846 C850 1.524 . S
C847 C839 1.503 . S
C847 C846 1.370 . S
C847 C848 1.403 . S
C848 C847 1.403 . S
C848 C849 1.404 . S
C848 C851 1.539 . S
C849 C845 1.408 . S
C849 C848 1.404 . S
C849 H861 0.930 . S
C850 C846 1.524 . S
C850 H862 0.956 . S
C850 H863 0.961 . S
C850 H864 0.961 . S
C851 C848 1.539 . S
C851 H865 0.958 . S
C851 H866 0.961 . S
C851 H867 0.960 . S
H852 C836 0.931 . S
H853 C841 0.929 . S
H854 C842 0.960 . S
H855 C842 0.962 . S
H856 C842 0.960 . S
H857 C843 0.961 . S
H858 C843 0.961 . S
H859 C843 0.961 . S
H860 C844 0.931 . S
H861 C849 0.930 . S
H862 C850 0.956 . S
H863 C850 0.961 . S
H864 C850 0.961 . S
H865 C851 0.958 . S
H866 C851 0.961 . S
H867 C851 0.960 . S
C868 C869 1.391 . S
C868 C870 1.394 . S
C868 H884 0.931 . S
C869 C868 1.391 . S
C869 C873 1.376 . S
C870 C868 1.394 . S
C870 C871 1.369 . S
C870 C874 1.531 . S
C871 C870 1.369 . S
C871 C872 1.410 . S
C871 C879 1.503 . S
C872 C871 1.410 . S
C872 C873 1.392 . S
C872 C875 1.511 . S
C873 C869 1.376 . S
C873 C872 1.392 . S
C873 H885 0.929 . S
C874 C870 1.531 . S
C874 H886 0.960 . S
C874 H887 0.962 . S
C874 H888 0.960 . S
C875 C872 1.511 . S
C875 H889 0.961 . S
C875 H890 0.961 . S
C875 H891 0.961 . S
C876 C877 1.370 . S
C876 C878 1.363 . S
C876 H892 0.931 . S
C877 C876 1.370 . S
C877 C881 1.408 . S
C878 C876 1.363 . S
C878 C879 1.370 . S
C878 C882 1.524 . S
C879 C871 1.503 . S
C879 C878 1.370 . S
C879 C880 1.403 . S
C880 C879 1.403 . S
C880 C881 1.404 . S
C880 C883 1.539 . S
C881 C877 1.408 . S
C881 C880 1.404 . S
C881 H893 0.930 . S
C882 C878 1.524 . S
C882 H894 0.956 . S
C882 H895 0.961 . S
C882 H896 0.961 . S
C883 C880 1.539 . S
C883 H897 0.958 . S
C883 H898 0.961 . S
C883 H899 0.960 . S
H884 C868 0.931 . S
H885 C873 0.929 . S
H886 C874 0.960 . S
H887 C874 0.962 . S
H888 C874 0.960 . S
H889 C875 0.961 . S
H890 C875 0.961 . S
H891 C875 0.961 . S
H892 C876 0.931 . S
H893 C881 0.930 . S
H894 C882 0.956 . S
H895 C882 0.961 . S
H896 C882 0.961 . S
H897 C883 0.958 . S
H898 C883 0.961 . S
H899 C883 0.960 . S
C900 C901 1.391 . S
C900 C902 1.394 . S
C900 H916 0.931 . S
C901 C900 1.391 . S
C901 C905 1.376 . S
C902 C900 1.394 . S
C902 C903 1.369 . S
C902 C906 1.531 . S
C903 C902 1.369 . S
C903 C904 1.410 . S
C903 C911 1.503 . S
C904 C903 1.410 . S
C904 C905 1.392 . S
C904 C907 1.511 . S
C905 C901 1.376 . S
C905 C904 1.392 . S
C905 H917 0.929 . S
C906 C902 1.531 . S
C906 H918 0.960 . S
C906 H919 0.962 . S
C906 H920 0.960 . S
C907 C904 1.511 . S
C907 H921 0.961 . S
C907 H922 0.961 . S
C907 H923 0.961 . S
C908 C909 1.370 . S
C908 C910 1.363 . S
C908 H924 0.931 . S
C909 C908 1.370 . S
C909 C913 1.408 . S
C910 C908 1.363 . S
C910 C911 1.370 . S
C910 C914 1.524 . S
C911 C903 1.503 . S
C911 C910 1.370 . S
C911 C912 1.403 . S
C912 C911 1.403 . S
C912 C913 1.404 . S
C912 C915 1.539 . S
C913 C909 1.408 . S
C913 C912 1.404 . S
C913 H925 0.930 . S
C914 C910 1.524 . S
C914 H926 0.956 . S
C914 H927 0.961 . S
C914 H928 0.961 . S
C915 C912 1.539 . S
C915 H929 0.958 . S
C915 H930 0.961 . S
C915 H931 0.960 . S
H916 C900 0.931 . S
H917 C905 0.929 . S
H918 C906 0.960 . S
H919 C906 0.962 . S
H920 C906 0.960 . S
H921 C907 0.961 . S
H922 C907 0.961 . S
H923 C907 0.961 . S
H924 C908 0.931 . S
H925 C913 0.930 . S
H926 C914 0.956 . S
H927 C914 0.961 . S
H928 C914 0.961 . S
H929 C915 0.958 . S
H930 C915 0.961 . S
H931 C915 0.960 . S
C932 C933 1.391 . S
C932 C934 1.394 . S
C932 H948 0.931 . S
C933 C932 1.391 . S
C933 C937 1.376 . S
C934 C932 1.394 . S
C934 C935 1.369 . S
C934 C938 1.531 . S
C935 C934 1.369 . S
C935 C936 1.410 . S
C935 C943 1.503 . S
C936 C935 1.410 . S
C936 C937 1.392 . S
C936 C939 1.511 . S
C937 C933 1.376 . S
C937 C936 1.392 . S
C937 H949 0.929 . S
C938 C934 1.531 . S
C938 H950 0.960 . S
C938 H951 0.962 . S
C938 H952 0.960 . S
C939 C936 1.511 . S
C939 H953 0.961 . S
C939 H954 0.961 . S
C939 H955 0.961 . S
C940 C941 1.370 . S
C940 C942 1.363 . S
C940 H956 0.931 . S
C941 C940 1.370 . S
C941 C945 1.408 . S
C942 C940 1.363 . S
C942 C943 1.370 . S
C942 C946 1.524 . S
C943 C935 1.503 . S
C943 C942 1.370 . S
C943 C944 1.403 . S
C944 C943 1.403 . S
C944 C945 1.404 . S
C944 C947 1.539 . S
C945 C941 1.408 . S
C945 C944 1.404 . S
C945 H957 0.930 . S
C946 C942 1.524 . S
C946 H958 0.956 . S
C946 H959 0.961 . S
C946 H960 0.961 . S
C947 C944 1.539 . S
C947 H961 0.958 . S
C947 H962 0.961 . S
C947 H963 0.960 . S
H948 C932 0.931 . S
H949 C937 0.929 . S
H950 C938 0.960 . S
H951 C938 0.962 . S
H952 C938 0.960 . S
H953 C939 0.961 . S
H954 C939 0.961 . S
H955 C939 0.961 . S
H956 C940 0.931 . S
H957 C945 0.930 . S
H958 C946 0.956 . S
H959 C946 0.961 . S
H960 C946 0.961 . S
H961 C947 0.958 . S
H962 C947 0.961 . S
H963 C947 0.960 . S
C964 C965 1.391 . S
C964 C966 1.394 . S
C964 H980 0.931 . S
C965 C964 1.391 . S
C965 C969 1.376 . S
C966 C964 1.394 . S
C966 C967 1.369 . S
C966 C970 1.531 . S
C967 C966 1.369 . S
C967 C968 1.410 . S
C967 C975 1.503 . S
C968 C967 1.410 . S
C968 C969 1.392 . S
C968 C971 1.511 . S
C969 C965 1.376 . S
C969 C968 1.392 . S
C969 H981 0.929 . S
C970 C966 1.531 . S
C970 H982 0.960 . S
C970 H983 0.962 . S
C970 H984 0.960 . S
C971 C968 1.511 . S
C971 H985 0.961 . S
C971 H986 0.961 . S
C971 H987 0.961 . S
C972 C973 1.370 . S
C972 C974 1.363 . S
C972 H988 0.931 . S
C973 C972 1.370 . S
C973 C977 1.408 . S
C974 C972 1.363 . S
C974 C975 1.370 . S
C974 C978 1.524 . S
C975 C967 1.503 . S
C975 C974 1.370 . S
C975 C976 1.403 . S
C976 C975 1.403 . S
C976 C977 1.404 . S
C976 C979 1.539 . S
C977 C973 1.408 . S
C977 C976 1.404 . S
C977 H989 0.930 . S
C978 C974 1.524 . S
C978 H990 0.956 . S
C978 H991 0.961 . S
C978 H992 0.961 . S
C979 C976 1.539 . S
C979 H993 0.958 . S
C979 H994 0.961 . S
C979 H995 0.960 . S
H980 C964 0.931 . S
H981 C969 0.929 . S
H982 C970 0.960 . S
H983 C970 0.962 . S
H984 C970 0.960 . S
H985 C971 0.961 . S
H986 C971 0.961 . S
H987 C971 0.961 . S
H988 C972 0.931 . S
H989 C977 0.930 . S
H990 C978 0.956 . S
H991 C978 0.961 . S
H992 C978 0.961 . S
H993 C979 0.958 . S
H994 C979 0.961 . S
H995 C979 0.960 . S
C996 C997 1.391 1_556 S
C996 C998 1.394 . S
C996 H1012 0.931 . S
C997 C996 1.391 1_554 S
C997 C1001 1.376 . S
C998 C996 1.394 . S
C998 C999 1.369 1_556 S
C998 C1002 1.531 . S
C999 C998 1.369 1_554 S
C999 C1000 1.410 . S
C999 C1007 1.503 . S
C1000 C999 1.410 . S
C1000 C1001 1.392 . S
C1000 C1003 1.511 . S
C1001 C997 1.376 . S
C1001 C1000 1.392 . S
C1001 H1013 0.929 . S
C1002 C998 1.531 . S
C1002 H1014 0.960 . S
C1002 H1015 0.962 . S
C1002 H1016 0.960 . S
C1003 C1000 1.511 . S
C1003 H1017 0.961 . S
C1003 H1018 0.961 . S
C1003 H1019 0.961 . S
C1004 C1005 1.370 1_556 S
C1004 C1006 1.363 . S
C1004 H1020 0.931 . S
C1005 C1004 1.370 1_554 S
C1005 C1009 1.408 . S
C1006 C1004 1.363 . S
C1006 C1007 1.370 1_556 S
C1006 C1010 1.524 . S
C1007 C999 1.503 . S
C1007 C1006 1.370 1_554 S
C1007 C1008 1.403 . S
C1008 C1007 1.403 . S
C1008 C1009 1.404 . S
C1008 C1011 1.539 . S
C1009 C1005 1.408 . S
C1009 C1008 1.404 . S
C1009 H1021 0.930 . S
C1010 C1006 1.524 . S
C1010 H1022 0.956 . S
C1010 H1023 0.961 . S
C1010 H1024 0.961 . S
C1011 C1008 1.539 . S
C1011 H1025 0.958 . S
C1011 H1026 0.961 . S
C1011 H1027 0.960 . S
H1012 C996 0.931 . S
H1013 C1001 0.929 . S
H1014 C1002 0.960 . S
H1015 C1002 0.962 . S
H1016 C1002 0.960 . S
H1017 C1003 0.961 . S
H1018 C1003 0.961 . S
H1019 C1003 0.961 . S
H1020 C1004 0.931 . S
H1021 C1009 0.930 . S
H1022 C1010 0.956 . S
H1023 C1010 0.961 . S
H1024 C1010 0.961 . S
H1025 C1011 0.958 . S
H1026 C1011 0.961 . S
H1027 C1011 0.960 . S
C1028 C1029 1.391 . S
C1028 C1030 1.394 . S
C1028 H1044 0.931 . S
C1029 C1028 1.391 . S
C1029 C1033 1.376 1_554 S
C1030 C1028 1.394 . S
C1030 C1031 1.369 . S
C1030 C1034 1.531 . S
C1031 C1030 1.369 . S
C1031 C1032 1.410 1_554 S
C1031 C1039 1.503 . S
C1032 C1031 1.410 1_556 S
C1032 C1033 1.392 . S
C1032 C1035 1.511 . S
C1033 C1029 1.376 1_556 S
C1033 C1032 1.392 . S
C1033 H1045 0.929 . S
C1034 C1030 1.531 . S
C1034 H1046 0.960 . S
C1034 H1047 0.962 . S
C1034 H1048 0.960 . S
C1035 C1032 1.511 . S
C1035 H1049 0.961 . S
C1035 H1050 0.961 . S
C1035 H1051 0.961 1_556 S
C1036 C1037 1.370 1_556 S
C1036 C1038 1.363 . S
C1036 H1052 0.931 . S
C1037 C1036 1.370 1_554 S
C1037 C1041 1.408 . S
C1038 C1036 1.363 . S
C1038 C1039 1.370 1_556 S
C1038 C1042 1.524 . S
C1039 C1031 1.503 . S
C1039 C1038 1.370 1_554 S
C1039 C1040 1.403 . S
C1040 C1039 1.403 . S
C1040 C1041 1.404 . S
C1040 C1043 1.539 . S
C1041 C1037 1.408 . S
C1041 C1040 1.404 . S
C1041 H1053 0.930 . S
C1042 C1038 1.524 . S
C1042 H1054 0.956 . S
C1042 H1055 0.961 . S
C1042 H1056 0.961 . S
C1043 C1040 1.539 . S
C1043 H1057 0.958 . S
C1043 H1058 0.961 . S
C1043 H1059 0.960 . S
H1044 C1028 0.931 . S
H1045 C1033 0.929 . S
H1046 C1034 0.960 . S
H1047 C1034 0.962 . S
H1048 C1034 0.960 . S
H1049 C1035 0.961 . S
H1050 C1035 0.961 . S
H1051 C1035 0.961 1_554 S
H1052 C1036 0.931 . S
H1053 C1041 0.930 . S
H1054 C1042 0.956 . S
H1055 C1042 0.961 . S
H1056 C1042 0.961 . S
H1057 C1043 0.958 . S
H1058 C1043 0.961 . S
H1059 C1043 0.960 . S
C1060 C1061 1.391 1_554 S
C1060 C1062 1.394 . S
C1060 H1076 0.931 . S
C1061 C1060 1.391 1_556 S
C1061 C1065 1.376 . S
C1062 C1060 1.394 . S
C1062 C1063 1.369 1_554 S
C1062 C1066 1.531 . S
C1063 C1062 1.369 1_556 S
C1063 C1064 1.410 . S
C1063 C1071 1.503 . S
C1064 C1063 1.410 . S
C1064 C1065 1.392 . S
C1064 C1067 1.511 . S
C1065 C1061 1.376 . S
C1065 C1064 1.392 . S
C1065 H1077 0.929 . S
C1066 C1062 1.531 . S
C1066 H1078 0.960 . S
C1066 H1079 0.962 . S
C1066 H1080 0.960 . S
C1067 C1064 1.511 . S
C1067 H1081 0.961 . S
C1067 H1082 0.961 . S
C1067 H1083 0.961 . S
C1068 C1069 1.356 1_554 S
C1068 C1070 1.363 . S
C1068 H1084 0.931 . S
C1069 C1068 1.356 1_556 S
C1069 C1073 1.424 . S
C1070 C1068 1.363 . S
C1070 C1071 1.370 1_554 S
C1070 C1074 1.524 . S
C1071 C1063 1.503 . S
C1071 C1070 1.370 1_556 S
C1071 C1072 1.403 . S
C1072 C1071 1.403 . S
C1072 C1073 1.404 . S
C1072 C1075 1.539 . S
C1073 C1069 1.424 . S
C1073 C1072 1.404 . S
C1073 H1085 0.930 . S
C1074 C1070 1.524 . S
C1074 H1086 0.956 . S
C1074 H1087 0.961 . S
C1074 H1088 0.961 . S
C1075 C1072 1.539 . S
C1075 H1089 0.958 . S
C1075 H1090 0.961 . S
C1075 H1091 0.960 . S
H1076 C1060 0.931 . S
H1077 C1065 0.929 . S
H1078 C1066 0.960 . S
H1079 C1066 0.962 . S
H1080 C1066 0.960 . S
H1081 C1067 0.961 . S
H1082 C1067 0.961 . S
H1083 C1067 0.961 . S
H1084 C1068 0.931 . S
H1085 C1073 0.930 . S
H1086 C1074 0.956 . S
H1087 C1074 0.961 . S
H1088 C1074 0.961 . S
H1089 C1075 0.958 . S
H1090 C1075 0.961 . S
H1091 C1075 0.960 . S
C1092 C1093 1.391 . S
C1092 C1094 1.394 . S
C1092 H1108 0.931 . S
C1093 C1092 1.391 . S
C1093 C1097 1.376 1_554 S
C1094 C1092 1.394 . S
C1094 C1095 1.369 . S
C1094 C1098 1.531 . S
C1095 C1094 1.369 . S
C1095 C1096 1.410 1_554 S
C1095 C1103 1.503 . S
C1096 C1095 1.410 1_556 S
C1096 C1097 1.392 . S
C1096 C1099 1.511 . S
C1097 C1093 1.376 1_556 S
C1097 C1096 1.392 . S
C1097 H1109 0.929 . S
C1098 C1094 1.531 . S
C1098 H1110 0.960 . S
C1098 H1111 0.962 . S
C1098 H1112 0.960 . S
C1099 C1096 1.511 . S
C1099 H1113 0.961 . S
C1099 H1114 0.961 . S
C1099 H1115 0.961 1_556 S
C1100 C1101 1.370 1_556 S
C1100 C1102 1.363 . S
C1100 H1116 0.931 . S
C1101 C1100 1.370 1_554 S
C1101 C1105 1.408 . S
C1102 C1100 1.363 . S
C1102 C1103 1.370 1_556 S
C1102 C1106 1.524 . S
C1103 C1095 1.503 . S
C1103 C1102 1.370 1_554 S
C1103 C1104 1.403 . S
C1104 C1103 1.403 . S
C1104 C1105 1.404 . S
C1104 C1107 1.539 . S
C1105 C1101 1.408 . S
C1105 C1104 1.404 . S
C1105 H1117 0.930 . S
C1106 C1102 1.524 . S
C1106 H1118 0.956 . S
C1106 H1119 0.961 . S
C1106 H1120 0.961 . S
C1107 C1104 1.539 . S
C1107 H1121 0.958 . S
C1107 H1122 0.961 . S
C1107 H1123 0.960 . S
H1108 C1092 0.931 . S
H1109 C1097 0.929 . S
H1110 C1098 0.960 . S
H1111 C1098 0.962 . S
H1112 C1098 0.960 . S
H1113 C1099 0.961 . S
H1114 C1099 0.961 . S
H1115 C1099 0.961 1_554 S
H1116 C1100 0.931 . S
H1117 C1105 0.930 . S
H1118 C1106 0.956 . S
H1119 C1106 0.961 . S
H1120 C1106 0.961 . S
H1121 C1107 0.958 . S
H1122 C1107 0.961 . S
H1123 C1107 0.960 . S
C1124 C1125 1.391 . S
C1124 C1126 1.394 . S
C1124 H1140 0.931 1_455 S
C1125 C1124 1.391 . S
C1125 C1129 1.376 . S
C1126 C1124 1.394 . S
C1126 C1127 1.369 . S
C1126 C1130 1.531 1_455 S
C1127 C1126 1.369 . S
C1127 C1128 1.410 . S
C1127 C1135 1.503 . S
C1128 C1127 1.410 . S
C1128 C1129 1.392 . S
C1128 C1131 1.511 . S
C1129 C1125 1.376 . S
C1129 C1128 1.392 . S
C1129 H1141 0.929 . S
C1130 C1126 1.531 1_655 S
C1130 H1142 0.960 . S
C1130 H1143 0.962 . S
C1130 H1144 0.960 . S
C1131 C1128 1.511 . S
C1131 H1145 0.961 . S
C1131 H1146 0.961 . S
C1131 H1147 0.961 . S
C1132 C1133 1.370 1_655 S
C1132 C1134 1.363 . S
C1132 H1148 0.931 . S
C1133 C1132 1.370 1_455 S
C1133 C1137 1.408 . S
C1134 C1132 1.363 . S
C1134 C1135 1.370 1_655 S
C1134 C1138 1.524 . S
C1135 C1127 1.503 . S
C1135 C1134 1.370 1_455 S
C1135 C1136 1.403 . S
C1136 C1135 1.403 . S
C1136 C1137 1.404 . S
C1136 C1139 1.539 . S
C1137 C1133 1.408 . S
C1137 C1136 1.404 . S
C1137 H1149 0.930 . S
C1138 C1134 1.524 . S
C1138 H1150 0.956 . S
C1138 H1151 0.961 . S
C1138 H1152 0.961 . S
C1139 C1136 1.539 . S
C1139 H1153 0.958 . S
C1139 H1154 0.961 . S
C1139 H1155 0.960 . S
H1140 C1124 0.931 1_655 S
H1141 C1129 0.929 . S
H1142 C1130 0.960 . S
H1143 C1130 0.962 . S
H1144 C1130 0.960 . S
H1145 C1131 0.961 . S
H1146 C1131 0.961 . S
H1147 C1131 0.961 . S
H1148 C1132 0.931 . S
H1149 C1137 0.930 . S
H1150 C1138 0.956 . S
H1151 C1138 0.961 . S
H1152 C1138 0.961 . S
H1153 C1139 0.958 . S
H1154 C1139 0.961 . S
H1155 C1139 0.960 . S
C1156 C1157 1.391 . S
C1156 C1158 1.394 . S
C1156 H1172 0.931 . S
C1157 C1156 1.391 . S
C1157 C1161 1.376 1_565 S
C1158 C1156 1.394 . S
C1158 C1159 1.369 . S
C1158 C1162 1.531 . S
C1159 C1158 1.369 . S
C1159 C1160 1.410 1_565 S
C1159 C1167 1.503 . S
C1160 C1159 1.410 1_545 S
C1160 C1161 1.392 . S
C1160 C1163 1.511 . S
C1161 C1157 1.376 1_545 S
C1161 C1160 1.392 . S
C1161 H1173 0.929 . S
C1162 C1158 1.531 . S
C1162 H1174 0.960 . S
C1162 H1175 0.962 . S
C1162 H1176 0.960 . S
C1163 C1160 1.511 . S
C1163 H1177 0.961 . S
C1163 H1178 0.961 . S
C1163 H1179 0.961 . S
C1164 C1165 1.365 1_545 S
C1164 C1166 1.363 . S
C1164 H1180 0.931 . S
C1165 C1164 1.365 1_565 S
C1165 C1169 1.415 . S
C1166 C1164 1.363 . S
C1166 C1167 1.370 1_545 S
C1166 C1170 1.524 . S
C1167 C1159 1.503 . S
C1167 C1166 1.370 1_565 S
C1167 C1168 1.403 . S
C1168 C1167 1.403 . S
C1168 C1169 1.404 . S
C1168 C1171 1.539 . S
C1169 C1165 1.415 . S
C1169 C1168 1.404 . S
C1169 H1181 0.930 . S
C1170 C1166 1.524 . S
C1170 H1182 0.956 . S
C1170 H1183 0.961 . S
C1170 H1184 0.961 . S
C1171 C1168 1.539 . S
C1171 H1185 0.958 . S
C1171 H1186 0.961 . S
C1171 H1187 0.960 . S
H1172 C1156 0.931 . S
H1173 C1161 0.929 . S
H1174 C1162 0.960 . S
H1175 C1162 0.962 . S
H1176 C1162 0.960 . S
H1177 C1163 0.961 . S
H1178 C1163 0.961 . S
H1179 C1163 0.961 . S
H1180 C1164 0.931 . S
H1181 C1169 0.930 . S
H1182 C1170 0.956 . S
H1183 C1170 0.961 . S
H1184 C1170 0.961 . S
H1185 C1171 0.958 . S
H1186 C1171 0.961 . S
H1187 C1171 0.960 . S
C1188 C1189 1.389 1_655 S
C1188 C1190 1.393 1_655 S
C1188 H1204 0.933 . S
C1189 C1188 1.389 1_455 S
C1189 C1193 1.376 . S
C1190 C1188 1.393 1_455 S
C1190 C1191 1.369 . S
C1190 C1194 1.531 1_455 S
C1191 C1190 1.369 . S
C1191 C1192 1.410 . S
C1191 C1199 1.503 . S
C1192 C1191 1.410 . S
C1192 C1193 1.392 . S
C1192 C1195 1.511 . S
C1193 C1189 1.376 . S
C1193 C1192 1.392 . S
C1193 H1205 0.929 . S
C1194 C1190 1.531 1_655 S
C1194 H1206 0.960 . S
C1194 H1207 0.962 . S
C1194 H1208 0.960 . S
C1195 C1192 1.511 . S
C1195 H1209 0.961 . S
C1195 H1210 0.961 . S
C1195 H1211 0.961 . S
C1196 C1197 1.370 1_655 S
C1196 C1198 1.363 . S
C1196 H1212 0.931 . S
C1197 C1196 1.370 1_455 S
C1197 C1201 1.408 . S
C1198 C1196 1.363 . S
C1198 C1199 1.370 1_655 S
C1198 C1202 1.524 . S
C1199 C1191 1.503 . S
C1199 C1198 1.370 1_455 S
C1199 C1200 1.403 . S
C1200 C1199 1.403 . S
C1200 C1201 1.404 . S
C1200 C1203 1.539 . S
C1201 C1197 1.408 . S
C1201 C1200 1.404 . S
C1201 H1213 0.930 . S
C1202 C1198 1.524 . S
C1202 H1214 0.956 . S
C1202 H1215 0.961 . S
C1202 H1216 0.961 . S
C1203 C1200 1.539 . S
C1203 H1217 0.958 . S
C1203 H1218 0.961 . S
C1203 H1219 0.960 . S
H1204 C1188 0.933 . S
H1205 C1193 0.929 . S
H1206 C1194 0.960 . S
H1207 C1194 0.962 . S
H1208 C1194 0.960 . S
H1209 C1195 0.961 . S
H1210 C1195 0.961 . S
H1211 C1195 0.961 . S
H1212 C1196 0.931 . S
H1213 C1201 0.930 . S
H1214 C1202 0.956 . S
H1215 C1202 0.961 . S
H1216 C1202 0.961 . S
H1217 C1203 0.958 . S
H1218 C1203 0.961 . S
H1219 C1203 0.960 . S
C1220 C1221 1.391 1_545 S
C1220 C1222 1.395 . S
C1220 H1236 0.931 . S
C1221 C1220 1.391 1_565 S
C1221 C1225 1.376 . S
C1222 C1220 1.395 . S
C1222 C1223 1.366 1_545 S
C1222 C1226 1.533 . S
C1223 C1222 1.366 1_565 S
C1223 C1224 1.410 . S
C1223 C1231 1.503 . S
C1224 C1223 1.410 . S
C1224 C1225 1.392 . S
C1224 C1227 1.511 . S
C1225 C1221 1.376 . S
C1225 C1224 1.392 . S
C1225 H1237 0.929 . S
C1226 C1222 1.533 . S
C1226 H1238 0.960 1_545 S
C1226 H1239 0.962 . S
C1226 H1240 0.963 . S
C1227 C1224 1.511 . S
C1227 H1241 0.961 . S
C1227 H1242 0.961 . S
C1227 H1243 0.961 . S
C1228 C1229 1.347 1_545 S
C1228 C1230 1.363 . S
C1228 H1244 0.931 . S
C1229 C1228 1.347 1_565 S
C1229 C1233 1.434 . S
C1230 C1228 1.363 . S
C1230 C1231 1.370 1_545 S
C1230 C1234 1.524 . S
C1231 C1223 1.503 . S
C1231 C1230 1.370 1_565 S
C1231 C1232 1.403 . S
C1232 C1231 1.403 . S
C1232 C1233 1.404 . S
C1232 C1235 1.539 . S
C1233 C1229 1.434 . S
C1233 C1232 1.404 . S
C1233 H1245 0.930 . S
C1234 C1230 1.524 . S
C1234 H1246 0.956 . S
C1234 H1247 0.961 . S
C1234 H1248 0.961 . S
C1235 C1232 1.539 . S
C1235 H1249 0.958 . S
C1235 H1250 0.961 . S
C1235 H1251 0.960 . S
H1236 C1220 0.931 . S
H1237 C1225 0.929 . S
H1238 C1226 0.960 1_565 S
H1239 C1226 0.962 . S
H1240 C1226 0.963 . S
H1241 C1227 0.961 . S
H1242 C1227 0.961 . S
H1243 C1227 0.961 . S
H1244 C1228 0.931 . S
H1245 C1233 0.930 . S
H1246 C1234 0.956 . S
H1247 C1234 0.961 . S
H1248 C1234 0.961 . S
H1249 C1235 0.958 . S
H1250 C1235 0.961 . S
H1251 C1235 0.960 . S
C1252 C1253 1.391 . S
C1252 C1254 1.394 . S
C1252 H1268 0.931 . S
C1253 C1252 1.391 . S
C1253 C1257 1.376 1_455 S
C1254 C1252 1.394 . S
C1254 C1255 1.369 . S
C1254 C1258 1.531 . S
C1255 C1254 1.369 . S
C1255 C1256 1.410 1_455 S
C1255 C1263 1.503 . S
C1256 C1255 1.410 1_655 S
C1256 C1257 1.392 . S
C1256 C1259 1.511 . S
C1257 C1253 1.376 1_655 S
C1257 C1256 1.392 . S
C1257 H1269 0.929 . S
C1258 C1254 1.531 . S
C1258 H1270 0.960 . S
C1258 H1271 0.962 . S
C1258 H1272 0.960 . S
C1259 C1256 1.511 . S
C1259 H1273 0.961 . S
C1259 H1274 0.961 . S
C1259 H1275 0.961 . S
C1260 C1261 1.370 . S
C1260 C1262 1.363 . S
C1260 H1276 0.931 . S
C1261 C1260 1.370 . S
C1261 C1265 1.406 1_455 S
C1262 C1260 1.363 . S
C1262 C1263 1.370 . S
C1262 C1266 1.524 . S
C1263 C1255 1.503 . S
C1263 C1262 1.370 . S
C1263 C1264 1.391 1_455 S
C1264 C1263 1.391 1_655 S
C1264 C1265 1.404 . S
C1264 C1267 1.554 . S
C1265 C1261 1.406 1_655 S
C1265 C1264 1.404 . S
C1265 H1277 0.932 . S
C1266 C1262 1.524 . S
C1266 H1278 0.956 . S
C1266 H1279 0.961 . S
C1266 H1280 0.961 . S
C1267 C1264 1.554 . S
C1267 H1281 0.958 . S
C1267 H1282 0.961 . S
C1267 H1283 0.960 . S
H1268 C1252 0.931 . S
H1269 C1257 0.929 . S
H1270 C1258 0.960 . S
H1271 C1258 0.962 . S
H1272 C1258 0.960 . S
H1273 C1259 0.961 . S
H1274 C1259 0.961 . S
H1275 C1259 0.961 . S
H1276 C1260 0.931 . S
H1277 C1265 0.932 . S
H1278 C1266 0.956 . S
H1279 C1266 0.961 . S
H1280 C1266 0.961 . S
H1281 C1267 0.958 . S
H1282 C1267 0.961 . S
H1283 C1267 0.960 . S
C1284 C1285 1.391 1_545 S
C1284 C1286 1.394 . S
C1284 H1300 0.931 . S
C1285 C1284 1.391 1_565 S
C1285 C1289 1.376 . S
C1286 C1284 1.394 . S
C1286 C1287 1.369 1_545 S
C1286 C1290 1.531 . S
C1287 C1286 1.369 1_565 S
C1287 C1288 1.410 . S
C1287 C1295 1.503 . S
C1288 C1287 1.410 . S
C1288 C1289 1.392 . S
C1288 C1291 1.511 . S
C1289 C1285 1.376 . S
C1289 C1288 1.392 . S
C1289 H1301 0.929 . S
C1290 C1286 1.531 . S
C1290 H1302 0.960 . S
C1290 H1303 0.962 . S
C1290 H1304 0.960 . S
C1291 C1288 1.511 . S
C1291 H1305 0.961 . S
C1291 H1306 0.961 . S
C1291 H1307 0.961 . S
C1292 C1293 1.361 1_545 S
C1292 C1294 1.363 . S
C1292 H1308 0.931 . S
C1293 C1292 1.361 1_565 S
C1293 C1297 1.418 . S
C1294 C1292 1.363 . S
C1294 C1295 1.370 1_545 S
C1294 C1298 1.524 . S
C1295 C1287 1.503 . S
C1295 C1294 1.370 1_565 S
C1295 C1296 1.403 . S
C1296 C1295 1.403 . S
C1296 C1297 1.404 . S
C1296 C1299 1.539 . S
C1297 C1293 1.418 . S
C1297 C1296 1.404 . S
C1297 H1309 0.930 . S
C1298 C1294 1.524 . S
C1298 H1310 0.956 . S
C1298 H1311 0.961 . S
C1298 H1312 0.961 . S
C1299 C1296 1.539 . S
C1299 H1313 0.958 . S
C1299 H1314 0.961 . S
C1299 H1315 0.960 . S
H1300 C1284 0.931 . S
H1301 C1289 0.929 . S
H1302 C1290 0.960 . S
H1303 C1290 0.962 . S
H1304 C1290 0.960 . S
H1305 C1291 0.961 . S
H1306 C1291 0.961 . S
H1307 C1291 0.961 . S
H1308 C1292 0.931 . S
H1309 C1297 0.930 . S
H1310 C1298 0.956 . S
H1311 C1298 0.961 . S
H1312 C1298 0.961 . S
H1313 C1299 0.958 . S
H1314 C1299 0.961 . S
H1315 C1299 0.960 . S
C1316 C1317 1.391 . S
C1316 C1318 1.394 . S
C1316 H1332 0.931 . S
C1317 C1316 1.391 . S
C1317 C1321 1.376 . S
C1318 C1316 1.394 . S
C1318 C1319 1.369 . S
C1318 C1322 1.531 . S
C1319 C1318 1.369 . S
C1319 C1320 1.410 . S
C1319 C1327 1.503 . S
C1320 C1319 1.410 . S
C1320 C1321 1.392 . S
C1320 C1323 1.511 . S
C1321 C1317 1.376 . S
C1321 C1320 1.392 . S
C1321 H1333 0.929 . S
C1322 C1318 1.531 . S
C1322 H1334 0.960 1_455 S
C1322 H1335 0.962 . S
C1322 H1336 0.960 1_455 S
C1323 C1320 1.511 . S
C1323 H1337 0.961 . S
C1323 H1338 0.961 . S
C1323 H1339 0.961 1_455 S
C1324 C1325 1.370 . S
C1324 C1326 1.363 . S
C1324 H1340 0.931 . S
C1325 C1324 1.370 . S
C1325 C1329 1.408 1_455 S
C1326 C1324 1.363 . S
C1326 C1327 1.370 . S
C1326 C1330 1.524 . S
C1327 C1319 1.503 . S
C1327 C1326 1.370 . S
C1327 C1328 1.403 1_455 S
C1328 C1327 1.403 1_655 S
C1328 C1329 1.404 . S
C1328 C1331 1.539 . S
C1329 C1325 1.408 1_655 S
C1329 C1328 1.404 . S
C1329 H1341 0.930 . S
C1330 C1326 1.524 . S
C1330 H1342 0.956 . S
C1330 H1343 0.961 . S
C1330 H1344 0.961 . S
C1331 C1328 1.539 . S
C1331 H1345 0.958 . S
C1331 H1346 0.961 . S
C1331 H1347 0.960 . S
H1332 C1316 0.931 . S
H1333 C1321 0.929 . S
H1334 C1322 0.960 1_655 S
H1335 C1322 0.962 . S
H1336 C1322 0.960 1_655 S
H1337 C1323 0.961 . S
H1338 C1323 0.961 . S
H1339 C1323 0.961 1_655 S
H1340 C1324 0.931 . S
H1341 C1329 0.930 . S
H1342 C1330 0.956 . S
H1343 C1330 0.961 . S
H1344 C1330 0.961 . S
H1345 C1331 0.958 . S
H1346 C1331 0.961 . S
H1347 C1331 0.960 . S
C1348 C1349 1.391 . S
C1348 C1350 1.394 . S
C1348 H1364 0.931 . S
C1349 C1348 1.391 . S
C1349 C1353 1.376 . S
C1350 C1348 1.394 . S
C1350 C1351 1.369 . S
C1350 C1354 1.531 . S
C1351 C1350 1.369 . S
C1351 C1352 1.410 . S
C1351 C1359 1.503 . S
C1352 C1351 1.410 . S
C1352 C1353 1.392 . S
C1352 C1355 1.511 . S
C1353 C1349 1.376 . S
C1353 C1352 1.392 . S
C1353 H1365 0.929 . S
C1354 C1350 1.531 . S
C1354 H1366 0.960 . S
C1354 H1367 0.962 1_545 S
C1354 H1368 0.960 . S
C1355 C1352 1.511 . S
C1355 H1369 0.961 1_545 S
C1355 H1370 0.961 1_545 S
C1355 H1371 0.961 . S
C1356 C1357 1.370 1_565 S
C1356 C1358 1.363 . S
C1356 H1372 0.931 . S
C1357 C1356 1.370 1_545 S
C1357 C1361 1.408 . S
C1358 C1356 1.363 . S
C1358 C1359 1.370 1_565 S
C1358 C1362 1.524 . S
C1359 C1351 1.503 . S
C1359 C1358 1.370 1_545 S
C1359 C1360 1.403 . S
C1360 C1359 1.403 . S
C1360 C1361 1.404 . S
C1360 C1363 1.539 . S
C1361 C1357 1.408 . S
C1361 C1360 1.404 . S
C1361 H1373 0.930 . S
C1362 C1358 1.524 . S
C1362 H1374 0.956 . S
C1362 H1375 0.961 . S
C1362 H1376 0.961 . S
C1363 C1360 1.539 . S
C1363 H1377 0.958 . S
C1363 H1378 0.961 . S
C1363 H1379 0.960 . S
H1364 C1348 0.931 . S
H1365 C1353 0.929 . S
H1366 C1354 0.960 . S
H1367 C1354 0.962 1_565 S
H1368 C1354 0.960 . S
H1369 C1355 0.961 1_565 S
H1370 C1355 0.961 1_565 S
H1371 C1355 0.961 . S
H1372 C1356 0.931 . S
H1373 C1361 0.930 . S
H1374 C1362 0.956 . S
H1375 C1362 0.961 . S
H1376 C1362 0.961 . S
H1377 C1363 0.958 . S
H1378 C1363 0.961 . S
H1379 C1363 0.960 . S
C1380 C1381 1.391 1_655 S
C1380 C1382 1.394 . S
C1380 H1396 0.931 . S
C1381 C1380 1.391 1_455 S
C1381 C1385 1.376 . S
C1382 C1380 1.394 . S
C1382 C1383 1.369 1_655 S
C1382 C1386 1.531 . S
C1383 C1382 1.369 1_455 S
C1383 C1384 1.410 . S
C1383 C1391 1.503 . S
C1384 C1383 1.410 . S
C1384 C1385 1.392 . S
C1384 C1387 1.511 . S
C1385 C1381 1.376 . S
C1385 C1384 1.392 . S
C1385 H1397 0.929 . S
C1386 C1382 1.531 . S
C1386 H1398 0.960 . S
C1386 H1399 0.962 . S
C1386 H1400 0.960 . S
C1387 C1384 1.511 . S
C1387 H1401 0.961 . S
C1387 H1402 0.961 . S
C1387 H1403 0.961 . S
C1388 C1389 1.370 . S
C1388 C1390 1.363 . S
C1388 H1404 0.931 . S
C1389 C1388 1.370 . S
C1389 C1393 1.408 . S
C1390 C1388 1.363 . S
C1390 C1391 1.370 . S
C1390 C1394 1.524 . S
C1391 C1383 1.503 . S
C1391 C1390 1.370 . S
C1391 C1392 1.403 . S
C1392 C1391 1.403 . S
C1392 C1393 1.404 . S
C1392 C1395 1.539 . S
C1393 C1389 1.408 . S
C1393 C1392 1.404 . S
C1393 H1405 0.930 . S
C1394 C1390 1.524 . S
C1394 H1406 0.956 1_455 S
C1394 H1407 0.961 . S
C1394 H1408 0.961 . S
C1395 C1392 1.539 . S
C1395 H1409 0.958 1_455 S
C1395 H1410 0.961 . S
C1395 H1411 0.960 . S
H1396 C1380 0.931 . S
H1397 C1385 0.929 . S
H1398 C1386 0.960 . S
H1399 C1386 0.962 . S
H1400 C1386 0.960 . S
H1401 C1387 0.961 . S
H1402 C1387 0.961 . S
H1403 C1387 0.961 . S
H1404 C1388 0.931 . S
H1405 C1393 0.930 . S
H1406 C1394 0.956 1_655 S
H1407 C1394 0.961 . S
H1408 C1394 0.961 . S
H1409 C1395 0.958 1_655 S
H1410 C1395 0.961 . S
H1411 C1395 0.960 . S
C1412 C1413 1.391 . S
C1412 C1414 1.394 . S
C1412 H1428 0.931 . S
C1413 C1412 1.391 . S
C1413 C1417 1.376 1_565 S
C1414 C1412 1.394 . S
C1414 C1415 1.369 . S
C1414 C1418 1.531 . S
C1415 C1414 1.369 . S
C1415 C1416 1.410 1_565 S
C1415 C1423 1.503 . S
C1416 C1415 1.410 1_545 S
C1416 C1417 1.392 . S
C1416 C1419 1.511 . S
C1417 C1413 1.376 1_545 S
C1417 C1416 1.392 . S
C1417 H1429 0.929 . S
C1418 C1414 1.531 . S
C1418 H1430 0.960 . S
C1418 H1431 0.962 . S
C1418 H1432 0.960 . S
C1419 C1416 1.511 . S
C1419 H1433 0.961 . S
C1419 H1434 0.961 . S
C1419 H1435 0.961 1_545 S
C1420 C1421 1.355 1_545 S
C1420 C1422 1.363 . S
C1420 H1436 0.931 . S
C1421 C1420 1.355 1_565 S
C1421 C1425 1.425 . S
C1422 C1420 1.363 . S
C1422 C1423 1.370 1_545 S
C1422 C1426 1.524 . S
C1423 C1415 1.503 . S
C1423 C1422 1.370 1_565 S
C1423 C1424 1.403 . S
C1424 C1423 1.403 . S
C1424 C1425 1.404 . S
C1424 C1427 1.539 . S
C1425 C1421 1.425 . S
C1425 C1424 1.404 . S
C1425 H1437 0.930 . S
C1426 C1422 1.524 . S
C1426 H1438 0.956 . S
C1426 H1439 0.961 . S
C1426 H1440 0.961 . S
C1427 C1424 1.539 . S
C1427 H1441 0.958 . S
C1427 H1442 0.961 . S
C1427 H1443 0.960 . S
H1428 C1412 0.931 . S
H1429 C1417 0.929 . S
H1430 C1418 0.960 . S
H1431 C1418 0.962 . S
H1432 C1418 0.960 . S
H1433 C1419 0.961 . S
H1434 C1419 0.961 . S
H1435 C1419 0.961 1_565 S
H1436 C1420 0.931 . S
H1437 C1425 0.930 . S
H1438 C1426 0.956 . S
H1439 C1426 0.961 . S
H1440 C1426 0.961 . S
H1441 C1427 0.958 . S
H1442 C1427 0.961 . S
H1443 C1427 0.960 . S
C1444 C1445 1.391 . S
C1444 C1446 1.394 . S
C1444 H1460 0.931 1_455 S
C1445 C1444 1.391 . S
C1445 C1449 1.376 . S
C1446 C1444 1.394 . S
C1446 C1447 1.369 . S
C1446 C1450 1.531 1_455 S
C1447 C1446 1.369 . S
C1447 C1448 1.410 . S
C1447 C1455 1.503 . S
C1448 C1447 1.410 . S
C1448 C1449 1.392 . S
C1448 C1451 1.511 . S
C1449 C1445 1.376 . S
C1449 C1448 1.392 . S
C1449 H1461 0.929 . S
C1450 C1446 1.531 1_655 S
C1450 H1462 0.960 1_655 S
C1450 H1463 0.962 . S
C1450 H1464 0.960 . S
C1451 C1448 1.511 . S
C1451 H1465 0.961 . S
C1451 H1466 0.961 . S
C1451 H1467 0.961 . S
C1452 C1453 1.370 1_655 S
C1452 C1454 1.363 . S
C1452 H1468 0.931 . S
C1453 C1452 1.370 1_455 S
C1453 C1457 1.408 . S
C1454 C1452 1.363 . S
C1454 C1455 1.370 1_655 S
C1454 C1458 1.524 . S
C1455 C1447 1.503 . S
C1455 C1454 1.370 1_455 S
C1455 C1456 1.403 . S
C1456 C1455 1.403 . S
C1456 C1457 1.404 . S
C1456 C1459 1.539 . S
C1457 C1453 1.408 . S
C1457 C1456 1.404 . S
C1457 H1469 0.930 . S
C1458 C1454 1.524 . S
C1458 H1470 0.956 . S
C1458 H1471 0.961 . S
C1458 H1472 0.961 . S
C1459 C1456 1.539 . S
C1459 H1473 0.958 . S
C1459 H1474 0.961 . S
C1459 H1475 0.960 . S
H1460 C1444 0.931 1_655 S
H1461 C1449 0.929 . S
H1462 C1450 0.960 1_455 S
H1463 C1450 0.962 . S
H1464 C1450 0.960 . S
H1465 C1451 0.961 . S
H1466 C1451 0.961 . S
H1467 C1451 0.961 . S
H1468 C1452 0.931 . S
H1469 C1457 0.930 . S
H1470 C1458 0.956 . S
H1471 C1458 0.961 . S
H1472 C1458 0.961 . S
H1473 C1459 0.958 . S
H1474 C1459 0.961 . S
H1475 C1459 0.960 . S
C1476 C1477 1.391 . S
C1476 C1478 1.394 . S
C1476 H1492 0.931 . S
C1477 C1476 1.391 . S
C1477 C1481 1.376 . S
C1478 C1476 1.394 . S
C1478 C1479 1.369 . S
C1478 C1482 1.531 . S
C1479 C1478 1.369 . S
C1479 C1480 1.410 . S
C1479 C1487 1.503 . S
C1480 C1479 1.410 . S
C1480 C1481 1.392 . S
C1480 C1483 1.511 . S
C1481 C1477 1.376 . S
C1481 C1480 1.392 . S
C1481 H1493 0.931 . S
C1482 C1478 1.531 . S
C1482 H1494 0.960 . S
C1482 H1495 0.962 1_545 S
C1482 H1496 0.960 . S
C1483 C1480 1.511 . S
C1483 H1497 0.961 1_545 S
C1483 H1498 0.961 1_545 S
C1483 H1499 0.961 . S
C1484 C1485 1.370 1_565 S
C1484 C1486 1.363 . S
C1484 H1500 0.931 . S
C1485 C1484 1.370 1_545 S
C1485 C1489 1.408 . S
C1486 C1484 1.363 . S
C1486 C1487 1.370 1_565 S
C1486 C1490 1.524 . S
C1487 C1479 1.503 . S
C1487 C1486 1.370 1_545 S
C1487 C1488 1.403 . S
C1488 C1487 1.403 . S
C1488 C1489 1.404 . S
C1488 C1491 1.539 . S
C1489 C1485 1.408 . S
C1489 C1488 1.404 . S
C1489 H1501 0.930 . S
C1490 C1486 1.524 . S
C1490 H1502 0.956 . S
C1490 H1503 0.961 . S
C1490 H1504 0.961 . S
C1491 C1488 1.539 . S
C1491 H1505 0.958 . S
C1491 H1506 0.961 . S
C1491 H1507 0.960 . S
H1492 C1476 0.931 . S
H1493 C1481 0.931 . S
H1494 C1482 0.960 . S
H1495 C1482 0.962 1_565 S
H1496 C1482 0.960 . S
H1497 C1483 0.961 1_565 S
H1498 C1483 0.961 1_565 S
H1499 C1483 0.961 . S
H1500 C1484 0.931 . S
H1501 C1489 0.930 . S
H1502 C1490 0.956 . S
H1503 C1490 0.961 . S
H1504 C1490 0.961 . S
H1505 C1491 0.958 . S
H1506 C1491 0.961 . S
H1507 C1491 0.960 . S
C1508 C1509 1.391 . S
C1508 C1510 1.394 . S
C1508 H1524 0.931 . S
C1509 C1508 1.391 . S
C1509 C1513 1.376 1_455 S
C1510 C1508 1.394 . S
C1510 C1511 1.369 . S
C1510 C1514 1.531 . S
C1511 C1510 1.369 . S
C1511 C1512 1.410 1_455 S
C1511 C1519 1.503 . S
C1512 C1511 1.410 1_655 S
C1512 C1513 1.392 . S
C1512 C1515 1.511 . S
C1513 C1509 1.376 1_655 S
C1513 C1512 1.392 . S
C1513 H1525 0.929 . S
C1514 C1510 1.531 . S
C1514 H1526 0.960 . S
C1514 H1527 0.962 . S
C1514 H1528 0.960 . S
C1515 C1512 1.511 . S
C1515 H1529 0.961 . S
C1515 H1530 0.961 . S
C1515 H1531 0.961 . S
C1516 C1517 1.370 . S
C1516 C1518 1.363 . S
C1516 H1532 0.931 . S
C1517 C1516 1.370 . S
C1517 C1521 1.408 . S
C1518 C1516 1.363 . S
C1518 C1519 1.370 . S
C1518 C1522 1.524 . S
C1519 C1511 1.503 . S
C1519 C1518 1.370 . S
C1519 C1520 1.403 . S
C1520 C1519 1.403 . S
C1520 C1521 1.404 . S
C1520 C1523 1.539 1_455 S
C1521 C1517 1.408 . S
C1521 C1520 1.404 . S
C1521 H1533 0.924 1_455 S
C1522 C1518 1.524 . S
C1522 H1534 0.956 . S
C1522 H1535 0.961 . S
C1522 H1536 0.961 . S
C1523 C1520 1.539 1_655 S
C1523 H1537 0.958 1_655 S
C1523 H1538 0.961 . S
C1523 H1539 0.960 . S
H1524 C1508 0.931 . S
H1525 C1513 0.929 . S
H1526 C1514 0.960 . S
H1527 C1514 0.962 . S
H1528 C1514 0.960 . S
H1529 C1515 0.961 . S
H1530 C1515 0.961 . S
H1531 C1515 0.961 . S
H1532 C1516 0.931 . S
H1533 C1521 0.924 1_655 S
H1534 C1522 0.956 . S
H1535 C1522 0.961 . S
H1536 C1522 0.961 . S
H1537 C1523 0.958 1_455 S
H1538 C1523 0.961 . S
H1539 C1523 0.960 . S
C1540 C1541 1.391 . S
C1540 C1542 1.394 . S
C1540 H1556 0.931 . S
C1541 C1540 1.391 . S
C1541 C1545 1.376 1_545 S
C1542 C1540 1.394 . S
C1542 C1543 1.369 . S
C1542 C1546 1.531 . S
C1543 C1542 1.369 . S
C1543 C1544 1.410 1_545 S
C1543 C1551 1.503 . S
C1544 C1543 1.410 1_565 S
C1544 C1545 1.392 . S
C1544 C1547 1.511 . S
C1545 C1541 1.376 1_565 S
C1545 C1544 1.392 . S
C1545 H1557 0.929 . S
C1546 C1542 1.531 . S
C1546 H1558 0.960 . S
C1546 H1559 0.962 . S
C1546 H1560 0.960 . S
C1547 C1544 1.511 . S
C1547 H1561 0.961 . S
C1547 H1562 0.961 . S
C1547 H1563 0.961 . S
C1548 C1549 1.341 1_565 S
C1548 C1550 1.363 . S
C1548 H1564 0.931 . S
C1549 C1548 1.341 1_545 S
C1549 C1553 1.441 . S
C1550 C1548 1.363 . S
C1550 C1551 1.370 1_565 S
C1550 C1554 1.524 . S
C1551 C1543 1.503 . S
C1551 C1550 1.370 1_545 S
C1551 C1552 1.403 . S
C1552 C1551 1.403 . S
C1552 C1553 1.404 . S
C1552 C1555 1.539 . S
C1553 C1549 1.441 . S
C1553 C1552 1.404 . S
C1553 H1565 0.930 . S
C1554 C1550 1.524 . S
C1554 H1566 0.956 . S
C1554 H1567 0.961 . S
C1554 H1568 0.961 . S
C1555 C1552 1.539 . S
C1555 H1569 0.958 . S
C1555 H1570 0.961 . S
C1555 H1571 0.960 . S
H1556 C1540 0.931 . S
H1557 C1545 0.929 . S
H1558 C1546 0.960 . S
H1559 C1546 0.962 . S
H1560 C1546 0.960 . S
H1561 C1547 0.961 . S
H1562 C1547 0.961 . S
H1563 C1547 0.961 . S
H1564 C1548 0.931 . S
H1565 C1553 0.930 . S
H1566 C1554 0.956 . S
H1567 C1554 0.961 . S
H1568 C1554 0.961 . S
H1569 C1555 0.958 . S
H1570 C1555 0.961 . S
H1571 C1555 0.960 . S
C1572 C1573 1.391 . S
C1572 C1574 1.394 . S
C1572 H1588 0.931 . S
C1573 C1572 1.391 . S
C1573 C1577 1.376 1_455 S
C1574 C1572 1.394 . S
C1574 C1575 1.369 . S
C1574 C1578 1.531 . S
C1575 C1574 1.369 . S
C1575 C1576 1.410 1_455 S
C1575 C1583 1.503 . S
C1576 C1575 1.410 1_655 S
C1576 C1577 1.392 . S
C1576 C1579 1.511 . S
C1577 C1573 1.376 1_655 S
C1577 C1576 1.392 . S
C1577 H1589 0.929 . S
C1578 C1574 1.531 . S
C1578 H1590 0.960 . S
C1578 H1591 0.962 . S
C1578 H1592 0.960 . S
C1579 C1576 1.511 . S
C1579 H1593 0.961 . S
C1579 H1594 0.961 . S
C1579 H1595 0.961 . S
C1580 C1581 1.370 . S
C1580 C1582 1.363 . S
C1580 H1596 0.931 . S
C1581 C1580 1.370 . S
C1581 C1585 1.408 1_455 S
C1582 C1580 1.363 . S
C1582 C1583 1.370 . S
C1582 C1586 1.524 . S
C1583 C1575 1.503 . S
C1583 C1582 1.370 . S
C1583 C1584 1.403 1_455 S
C1584 C1583 1.403 1_655 S
C1584 C1585 1.404 . S
C1584 C1587 1.539 . S
C1585 C1581 1.408 1_655 S
C1585 C1584 1.404 . S
C1585 H1597 0.930 . S
C1586 C1582 1.524 . S
C1586 H1598 0.956 . S
C1586 H1599 0.961 . S
C1586 H1600 0.961 . S
C1587 C1584 1.539 . S
C1587 H1601 0.958 . S
C1587 H1602 0.961 . S
C1587 H1603 0.960 . S
H1588 C1572 0.931 . S
H1589 C1577 0.929 . S
H1590 C1578 0.960 . S
H1591 C1578 0.962 . S
H1592 C1578 0.960 . S
H1593 C1579 0.961 . S
H1594 C1579 0.961 . S
H1595 C1579 0.961 . S
H1596 C1580 0.931 . S
H1597 C1585 0.930 . S
H1598 C1586 0.956 . S
H1599 C1586 0.961 . S
H1600 C1586 0.961 . S
H1601 C1587 0.958 . S
H1602 C1587 0.961 . S
H1603 C1587 0.960 . S
C1604 C1605 1.411 . S
C1604 C1606 1.394 . S
C1604 H1620 0.931 . S
C1605 C1604 1.411 . S
C1605 C1609 1.357 1_565 S
C1606 C1604 1.394 . S
C1606 C1607 1.369 . S
C1606 C1610 1.531 . S
C1607 C1606 1.369 . S
C1607 C1608 1.410 1_565 S
C1607 C1615 1.503 . S
C1608 C1607 1.410 1_545 S
C1608 C1609 1.392 . S
C1608 C1611 1.511 . S
C1609 C1605 1.357 1_545 S
C1609 C1608 1.392 . S
C1609 H1621 0.929 . S
C1610 C1606 1.531 . S
C1610 H1622 0.960 . S
C1610 H1623 0.962 . S
C1610 H1624 0.960 . S
C1611 C1608 1.511 . S
C1611 H1625 0.961 . S
C1611 H1626 0.961 . S
C1611 H1627 0.961 . S
C1612 C1613 1.371 . S
C1612 C1614 1.363 . S
C1612 H1628 0.931 . S
C1613 C1612 1.371 . S
C1613 C1617 1.408 1_545 S
C1614 C1612 1.363 . S
C1614 C1615 1.370 1_545 S
C1614 C1618 1.524 . S
C1615 C1607 1.503 . S
C1615 C1614 1.370 1_565 S
C1615 C1616 1.403 . S
C1616 C1615 1.403 . S
C1616 C1617 1.404 . S
C1616 C1619 1.539 . S
C1617 C1613 1.408 1_565 S
C1617 C1616 1.404 . S
C1617 H1629 0.930 . S
C1618 C1614 1.524 . S
C1618 H1630 0.956 1_545 S
C1618 H1631 0.961 . S
C1618 H1632 0.961 . S
C1619 C1616 1.539 . S
C1619 H1633 0.958 . S
C1619 H1634 0.961 . S
C1619 H1635 0.960 . S
H1620 C1604 0.931 . S
H1621 C1609 0.929 . S
H1622 C1610 0.960 . S
H1623 C1610 0.962 . S
H1624 C1610 0.960 . S
H1625 C1611 0.961 . S
H1626 C1611 0.961 . S
H1627 C1611 0.961 . S
H1628 C1612 0.931 . S
H1629 C1617 0.930 . S
H1630 C1618 0.956 1_565 S
H1631 C1618 0.961 . S
H1632 C1618 0.961 . S
H1633 C1619 0.958 . S
H1634 C1619 0.961 . S
H1635 C1619 0.960 . S
C1636 C1637 1.411 . S
C1636 C1638 1.394 . S
C1636 H1652 0.931 . S
C1637 C1636 1.411 . S
C1637 C1641 1.357 1_565 S
C1638 C1636 1.394 . S
C1638 C1639 1.369 . S
C1638 C1642 1.531 . S
C1639 C1638 1.369 . S
C1639 C1640 1.410 1_565 S
C1639 C1647 1.503 . S
C1640 C1639 1.410 1_545 S
C1640 C1641 1.392 . S
C1640 C1643 1.511 . S
C1641 C1637 1.357 1_545 S
C1641 C1640 1.392 . S
C1641 H1653 0.929 . S
C1642 C1638 1.531 . S
C1642 H1654 0.960 . S
C1642 H1655 0.962 . S
C1642 H1656 0.960 . S
C1643 C1640 1.511 . S
C1643 H1657 0.961 . S
C1643 H1658 0.961 . S
C1643 H1659 0.961 . S
C1644 C1645 1.369 . S
C1644 C1646 1.363 . S
C1644 H1660 0.931 . S
C1645 C1644 1.369 . S
C1645 C1649 1.409 1_545 S
C1646 C1644 1.363 . S
C1646 C1647 1.370 1_545 S
C1646 C1650 1.524 . S
C1647 C1639 1.503 . S
C1647 C1646 1.370 1_565 S
C1647 C1648 1.403 . S
C1648 C1647 1.403 . S
C1648 C1649 1.404 . S
C1648 C1651 1.539 . S
C1649 C1645 1.409 1_565 S
C1649 C1648 1.404 . S
C1649 H1661 0.930 . S
C1650 C1646 1.524 . S
C1650 H1662 0.956 . S
C1650 H1663 0.961 . S
C1650 H1664 0.961 . S
C1651 C1648 1.539 . S
C1651 H1665 0.958 . S
C1651 H1666 0.961 . S
C1651 H1667 0.960 . S
H1652 C1636 0.931 . S
H1653 C1641 0.929 . S
H1654 C1642 0.960 . S
H1655 C1642 0.962 . S
H1656 C1642 0.960 . S
H1657 C1643 0.961 . S
H1658 C1643 0.961 . S
H1659 C1643 0.961 . S
H1660 C1644 0.931 . S
H1661 C1649 0.930 . S
H1662 C1650 0.956 . S
H1663 C1650 0.961 . S
H1664 C1650 0.961 . S
H1665 C1651 0.958 . S
H1666 C1651 0.961 . S
H1667 C1651 0.960 . S
C1668 C1669 1.391 1_655 S
C1668 C1670 1.394 . S
C1668 H1684 0.931 . S
C1669 C1668 1.391 1_455 S
C1669 C1673 1.376 . S
C1670 C1668 1.394 . S
C1670 C1671 1.369 1_655 S
C1670 C1674 1.531 . S
C1671 C1670 1.369 1_455 S
C1671 C1672 1.410 . S
C1671 C1679 1.503 . S
C1672 C1671 1.410 . S
C1672 C1673 1.392 . S
C1672 C1675 1.511 . S
C1673 C1669 1.376 . S
C1673 C1672 1.392 . S
C1673 H1685 0.929 . S
C1674 C1670 1.531 . S
C1674 H1686 0.960 . S
C1674 H1687 0.962 . S
C1674 H1688 0.960 . S
C1675 C1672 1.511 . S
C1675 H1689 0.961 . S
C1675 H1690 0.961 . S
C1675 H1691 0.961 . S
C1676 C1677 1.370 . S
C1676 C1678 1.363 . S
C1676 H1692 0.931 . S
C1677 C1676 1.370 . S
C1677 C1681 1.408 . S
C1678 C1676 1.363 . S
C1678 C1679 1.370 . S
C1678 C1682 1.524 . S
C1679 C1671 1.503 . S
C1679 C1678 1.370 . S
C1679 C1680 1.403 . S
C1680 C1679 1.403 . S
C1680 C1681 1.404 . S
C1680 C1683 1.539 . S
C1681 C1677 1.408 . S
C1681 C1680 1.404 . S
C1681 H1693 0.930 . S
C1682 C1678 1.524 . S
C1682 H1694 0.956 1_455 S
C1682 H1695 0.961 . S
C1682 H1696 0.961 . S
C1683 C1680 1.539 . S
C1683 H1697 0.958 . S
C1683 H1698 0.961 . S
C1683 H1699 0.960 . S
H1684 C1668 0.931 . S
H1685 C1673 0.929 . S
H1686 C1674 0.960 . S
H1687 C1674 0.962 . S
H1688 C1674 0.960 . S
H1689 C1675 0.961 . S
H1690 C1675 0.961 . S
H1691 C1675 0.961 . S
H1692 C1676 0.931 . S
H1693 C1681 0.930 . S
H1694 C1682 0.956 1_655 S
H1695 C1682 0.961 . S
H1696 C1682 0.961 . S
H1697 C1683 0.958 . S
H1698 C1683 0.961 . S
H1699 C1683 0.960 . S
C1700 C1701 1.391 . S
C1700 C1702 1.394 . S
C1700 H1716 0.931 . S
C1701 C1700 1.391 . S
C1701 C1705 1.376 1_545 S
C1702 C1700 1.394 . S
C1702 C1703 1.369 . S
C1702 C1706 1.531 . S
C1703 C1702 1.369 . S
C1703 C1704 1.410 1_545 S
C1703 C1711 1.503 . S
C1704 C1703 1.410 1_565 S
C1704 C1705 1.392 . S
C1704 C1707 1.511 . S
C1705 C1701 1.376 1_565 S
C1705 C1704 1.392 . S
C1705 H1717 0.929 . S
C1706 C1702 1.531 . S
C1706 H1718 0.960 . S
C1706 H1719 0.962 . S
C1706 H1720 0.960 . S
C1707 C1704 1.511 . S
C1707 H1721 0.961 . S
C1707 H1722 0.961 . S
C1707 H1723 0.961 . S
C1708 C1709 1.366 1_565 S
C1708 C1710 1.363 . S
C1708 H1724 0.931 . S
C1709 C1708 1.366 1_545 S
C1709 C1713 1.414 . S
C1710 C1708 1.363 . S
C1710 C1711 1.370 1_565 S
C1710 C1714 1.524 . S
C1711 C1703 1.503 . S
C1711 C1710 1.370 1_545 S
C1711 C1712 1.403 . S
C1712 C1711 1.403 . S
C1712 C1713 1.404 . S
C1712 C1715 1.539 . S
C1713 C1709 1.414 . S
C1713 C1712 1.404 . S
C1713 H1725 0.930 . S
C1714 C1710 1.524 . S
C1714 H1726 0.956 1_565 S
C1714 H1727 0.961 . S
C1714 H1728 0.961 . S
C1715 C1712 1.539 . S
C1715 H1729 0.958 . S
C1715 H1730 0.961 . S
C1715 H1731 0.960 . S
H1716 C1700 0.931 . S
H1717 C1705 0.929 . S
H1718 C1706 0.960 . S
H1719 C1706 0.962 . S
H1720 C1706 0.960 . S
H1721 C1707 0.961 . S
H1722 C1707 0.961 . S
H1723 C1707 0.961 . S
H1724 C1708 0.931 . S
H1725 C1713 0.930 . S
H1726 C1714 0.956 1_545 S
H1727 C1714 0.961 . S
H1728 C1714 0.961 . S
H1729 C1715 0.958 . S
H1730 C1715 0.961 . S
H1731 C1715 0.960 . S
C1732 C1733 1.391 . S
C1732 C1734 1.394 . S
C1732 H1748 0.931 . S
C1733 C1732 1.391 . S
C1733 C1737 1.376 1_455 S
C1734 C1732 1.394 . S
C1734 C1735 1.369 . S
C1734 C1738 1.531 . S
C1735 C1734 1.369 . S
C1735 C1736 1.410 1_455 S
C1735 C1743 1.503 . S
C1736 C1735 1.410 1_655 S
C1736 C1737 1.392 . S
C1736 C1739 1.511 . S
C1737 C1733 1.376 1_655 S
C1737 C1736 1.392 . S
C1737 H1749 0.929 . S
C1738 C1734 1.531 . S
C1738 H1750 0.960 . S
C1738 H1751 0.962 . S
C1738 H1752 0.960 . S
C1739 C1736 1.511 . S
C1739 H1753 0.961 . S
C1739 H1754 0.961 . S
C1739 H1755 0.961 . S
C1740 C1741 1.370 . S
C1740 C1742 1.363 . S
C1740 H1756 0.931 . S
C1741 C1740 1.370 . S
C1741 C1745 1.408 . S
C1742 C1740 1.363 . S
C1742 C1743 1.370 . S
C1742 C1746 1.524 . S
C1743 C1735 1.503 . S
C1743 C1742 1.370 . S
C1743 C1744 1.403 . S
C1744 C1743 1.403 . S
C1744 C1745 1.404 . S
C1744 C1747 1.539 1_455 S
C1745 C1741 1.408 . S
C1745 C1744 1.404 . S
C1745 H1757 0.930 1_455 S
C1746 C1742 1.524 . S
C1746 H1758 0.956 . S
C1746 H1759 0.961 . S
C1746 H1760 0.961 . S
C1747 C1744 1.539 1_655 S
C1747 H1761 0.958 . S
C1747 H1762 0.961 . S
C1747 H1763 0.960 . S
H1748 C1732 0.931 . S
H1749 C1737 0.929 . S
H1750 C1738 0.960 . S
H1751 C1738 0.962 . S
H1752 C1738 0.960 . S
H1753 C1739 0.961 . S
H1754 C1739 0.961 . S
H1755 C1739 0.961 . S
H1756 C1740 0.931 . S
H1757 C1745 0.930 1_655 S
H1758 C1746 0.956 . S
H1759 C1746 0.961 . S
H1760 C1746 0.961 . S
H1761 C1747 0.958 . S
H1762 C1747 0.961 . S
H1763 C1747 0.960 . S
C1764 C1765 1.391 . S
C1764 C1766 1.394 . S
C1764 H1780 0.931 . S
C1765 C1764 1.391 . S
C1765 C1769 1.376 1_565 S
C1766 C1764 1.394 . S
C1766 C1767 1.369 . S
C1766 C1770 1.531 . S
C1767 C1766 1.369 . S
C1767 C1768 1.410 1_565 S
C1767 C1775 1.503 . S
C1768 C1767 1.410 1_545 S
C1768 C1769 1.392 . S
C1768 C1771 1.511 . S
C1769 C1765 1.376 1_545 S
C1769 C1768 1.392 . S
C1769 H1781 0.929 . S
C1770 C1766 1.531 . S
C1770 H1782 0.960 . S
C1770 H1783 0.962 . S
C1770 H1784 0.960 . S
C1771 C1768 1.511 . S
C1771 H1785 0.961 . S
C1771 H1786 0.961 . S
C1771 H1787 0.961 . S
C1772 C1773 1.357 1_545 S
C1772 C1774 1.363 . S
C1772 H1788 0.931 . S
C1773 C1772 1.357 1_565 S
C1773 C1777 1.423 . S
C1774 C1772 1.363 . S
C1774 C1775 1.370 1_545 S
C1774 C1778 1.524 . S
C1775 C1767 1.503 . S
C1775 C1774 1.370 1_565 S
C1775 C1776 1.403 . S
C1776 C1775 1.403 . S
C1776 C1777 1.404 . S
C1776 C1779 1.539 . S
C1777 C1773 1.423 . S
C1777 C1776 1.404 . S
C1777 H1789 0.930 . S
C1778 C1774 1.524 . S
C1778 H1790 0.956 . S
C1778 H1791 0.961 . S
C1778 H1792 0.961 . S
C1779 C1776 1.539 . S
C1779 H1793 0.958 . S
C1779 H1794 0.961 . S
C1779 H1795 0.960 . S
H1780 C1764 0.931 . S
H1781 C1769 0.929 . S
H1782 C1770 0.960 . S
H1783 C1770 0.962 . S
H1784 C1770 0.960 . S
H1785 C1771 0.961 . S
H1786 C1771 0.961 . S
H1787 C1771 0.961 . S
H1788 C1772 0.931 . S
H1789 C1777 0.930 . S
H1790 C1778 0.956 . S
H1791 C1778 0.961 . S
H1792 C1778 0.961 . S
H1793 C1779 0.958 . S
H1794 C1779 0.961 . S
H1795 C1779 0.960 . S
C1796 C1797 1.391 1_655 S
C1796 C1798 1.394 . S
C1796 H1812 0.931 . S
C1797 C1796 1.391 1_455 S
C1797 C1801 1.376 . S
C1798 C1796 1.394 . S
C1798 C1799 1.369 1_655 S
C1798 C1802 1.531 . S
C1799 C1798 1.369 1_455 S
C1799 C1800 1.410 . S
C1799 C1807 1.503 . S
C1800 C1799 1.410 . S
C1800 C1801 1.392 . S
C1800 C1803 1.511 . S
C1801 C1797 1.376 . S
C1801 C1800 1.392 . S
C1801 H1813 0.929 . S
C1802 C1798 1.531 . S
C1802 H1814 0.960 . S
C1802 H1815 0.962 . S
C1802 H1816 0.960 . S
C1803 C1800 1.511 . S
C1803 H1817 0.961 . S
C1803 H1818 0.961 . S
C1803 H1819 0.961 . S
C1804 C1805 1.370 . S
C1804 C1806 1.363 . S
C1804 H1820 0.943 . S
C1805 C1804 1.370 . S
C1805 C1809 1.408 . S
C1806 C1804 1.363 . S
C1806 C1807 1.370 . S
C1806 C1810 1.524 1_455 S
C1807 C1799 1.503 . S
C1807 C1806 1.370 . S
C1807 C1808 1.403 . S
C1808 C1807 1.403 . S
C1808 C1809 1.404 . S
C1808 C1811 1.539 . S
C1809 C1805 1.408 . S
C1809 C1808 1.404 . S
C1809 H1821 0.930 . S
C1810 C1806 1.524 1_655 S
C1810 H1822 0.956 . S
C1810 H1823 0.961 1_655 S
C1810 H1824 0.961 . S
C1811 C1808 1.539 . S
C1811 H1825 0.958 . S
C1811 H1826 0.961 . S
C1811 H1827 0.960 . S
H1812 C1796 0.931 . S
H1813 C1801 0.929 . S
H1814 C1802 0.960 . S
H1815 C1802 0.962 . S
H1816 C1802 0.960 . S
H1817 C1803 0.961 . S
H1818 C1803 0.961 . S
H1819 C1803 0.961 . S
H1820 C1804 0.943 . S
H1821 C1809 0.930 . S
H1822 C1810 0.956 . S
H1823 C1810 0.961 1_455 S
H1824 C1810 0.961 . S
H1825 C1811 0.958 . S
H1826 C1811 0.961 . S
H1827 C1811 0.960 . S
C1828 C1829 1.361 1_545 S
C1828 C1830 1.394 . S
C1828 H1844 0.931 . S
C1829 C1828 1.361 1_565 S
C1829 C1833 1.408 . S
C1830 C1828 1.394 . S
C1830 C1831 1.369 1_545 S
C1830 C1834 1.531 . S
C1831 C1830 1.369 1_565 S
C1831 C1832 1.410 . S
C1831 C1839 1.503 . S
C1832 C1831 1.410 . S
C1832 C1833 1.392 . S
C1832 C1835 1.511 . S
C1833 C1829 1.408 . S
C1833 C1832 1.392 . S
C1833 H1845 0.929 . S
C1834 C1830 1.531 . S
C1834 H1846 0.960 . S
C1834 H1847 0.962 . S
C1834 H1848 0.960 . S
C1835 C1832 1.511 . S
C1835 H1849 0.961 . S
C1835 H1850 0.961 . S
C1835 H1851 0.961 . S
C1836 C1837 1.366 1_545 S
C1836 C1838 1.363 . S
C1836 H1852 0.931 . S
C1837 C1836 1.366 1_565 S
C1837 C1841 1.412 . S
C1838 C1836 1.363 . S
C1838 C1839 1.370 1_545 S
C1838 C1842 1.524 . S
C1839 C1831 1.503 . S
C1839 C1838 1.370 1_565 S
C1839 C1840 1.403 . S
C1840 C1839 1.403 . S
C1840 C1841 1.404 . S
C1840 C1843 1.539 . S
C1841 C1837 1.412 . S
C1841 C1840 1.404 . S
C1841 H1853 0.930 . S
C1842 C1838 1.524 . S
C1842 H1854 0.956 . S
C1842 H1855 0.961 . S
C1842 H1856 0.961 . S
C1843 C1840 1.539 . S
C1843 H1857 0.958 . S
C1843 H1858 0.961 . S
C1843 H1859 0.960 . S
H1844 C1828 0.931 . S
H1845 C1833 0.929 . S
H1846 C1834 0.960 . S
H1847 C1834 0.962 . S
H1848 C1834 0.960 . S
H1849 C1835 0.961 . S
H1850 C1835 0.961 . S
H1851 C1835 0.961 . S
H1852 C1836 0.931 . S
H1853 C1841 0.930 . S
H1854 C1842 0.956 . S
H1855 C1842 0.961 . S
H1856 C1842 0.961 . S
H1857 C1843 0.958 . S
H1858 C1843 0.961 . S
H1859 C1843 0.960 . S
C1860 C1861 1.391 1_655 S
C1860 C1862 1.394 1_655 S
C1860 H1876 0.931 . S
C1861 C1860 1.391 1_455 S
C1861 C1865 1.376 . S
C1862 C1860 1.394 1_455 S
C1862 C1863 1.369 . S
C1862 C1866 1.531 1_455 S
C1863 C1862 1.369 . S
C1863 C1864 1.410 . S
C1863 C1871 1.503 . S
C1864 C1863 1.410 . S
C1864 C1865 1.392 . S
C1864 C1867 1.511 . S
C1865 C1861 1.376 . S
C1865 C1864 1.392 . S
C1865 H1877 0.929 . S
C1866 C1862 1.531 1_655 S
C1866 H1878 0.960 . S
C1866 H1879 0.962 . S
C1866 H1880 0.960 . S
C1867 C1864 1.511 . S
C1867 H1881 0.961 . S
C1867 H1882 0.961 . S
C1867 H1883 0.961 . S
C1868 C1869 1.370 . S
C1868 C1870 1.363 . S
C1868 H1884 0.931 1_455 S
C1869 C1868 1.370 . S
C1869 C1873 1.408 . S
C1870 C1868 1.363 . S
C1870 C1871 1.370 . S
C1870 C1874 1.524 1_455 S
C1871 C1863 1.503 . S
C1871 C1870 1.370 . S
C1871 C1872 1.403 . S
C1872 C1871 1.403 . S
C1872 C1873 1.404 . S
C1872 C1875 1.539 . S
C1873 C1869 1.408 . S
C1873 C1872 1.404 . S
C1873 H1885 0.930 . S
C1874 C1870 1.524 1_655 S
C1874 H1886 0.956 . S
C1874 H1887 0.961 . S
C1874 H1888 0.961 . S
C1875 C1872 1.539 . S
C1875 H1889 0.958 . S
C1875 H1890 0.961 . S
C1875 H1891 0.960 . S
H1876 C1860 0.931 . S
H1877 C1865 0.929 . S
H1878 C1866 0.960 . S
H1879 C1866 0.962 . S
H1880 C1866 0.960 . S
H1881 C1867 0.961 . S
H1882 C1867 0.961 . S
H1883 C1867 0.961 . S
H1884 C1868 0.931 1_655 S
H1885 C1873 0.930 . S
H1886 C1874 0.956 . S
H1887 C1874 0.961 . S
H1888 C1874 0.961 . S
H1889 C1875 0.958 . S
H1890 C1875 0.961 . S
H1891 C1875 0.960 . S
C1892 C1893 1.391 . S
C1892 C1894 1.394 . S
C1892 H1908 0.931 . S
C1893 C1892 1.391 . S
C1893 C1897 1.373 1_556 S
C1894 C1892 1.394 . S
C1894 C1895 1.369 . S
C1894 C1898 1.531 . S
C1895 C1894 1.369 . S
C1895 C1896 1.410 . S
C1895 C1903 1.503 . S
C1896 C1895 1.410 . S
C1896 C1897 1.390 1_556 S
C1896 C1899 1.511 1_556 S
C1897 C1893 1.373 1_554 S
C1897 C1896 1.390 1_554 S
C1897 H1909 0.936 . S
C1898 C1894 1.531 . S
C1898 H1910 0.960 . S
C1898 H1911 0.951 1_556 S
C1898 H1912 0.960 . S
C1899 C1896 1.511 1_554 S
C1899 H1913 0.961 . S
C1899 H1914 0.961 . S
C1899 H1915 0.961 1_554 S
C1900 C1901 1.345 1_554 S
C1900 C1902 1.363 . S
C1900 H1916 0.931 . S
C1901 C1900 1.345 1_556 S
C1901 C1905 1.437 . S
C1902 C1900 1.363 . S
C1902 C1903 1.370 1_554 S
C1902 C1906 1.524 . S
C1903 C1895 1.503 . S
C1903 C1902 1.370 1_556 S
C1903 C1904 1.403 . S
C1904 C1903 1.403 . S
C1904 C1905 1.404 . S
C1904 C1907 1.539 . S
C1905 C1901 1.437 . S
C1905 C1904 1.404 . S
C1905 H1917 0.930 . S
C1906 C1902 1.524 . S
C1906 H1918 0.956 . S
C1906 H1919 0.961 . S
C1906 H1920 0.961 . S
C1907 C1904 1.539 . S
C1907 H1921 0.958 . S
C1907 H1922 0.961 . S
C1907 H1923 0.960 . S
H1908 C1892 0.931 . S
H1909 C1897 0.936 . S
H1910 C1898 0.960 . S
H1911 C1898 0.951 1_554 S
H1912 C1898 0.960 . S
H1913 C1899 0.961 . S
H1914 C1899 0.961 . S
H1915 C1899 0.961 1_556 S
H1916 C1900 0.931 . S
H1917 C1905 0.930 . S
H1918 C1906 0.956 . S
H1919 C1906 0.961 . S
H1920 C1906 0.961 . S
H1921 C1907 0.958 . S
H1922 C1907 0.961 . S
H1923 C1907 0.960 . S
C1924 C1925 1.391 1_556 S
C1924 C1926 1.394 . S
C1924 H1940 0.931 . S
C1925 C1924 1.391 1_554 S
C1925 C1929 1.376 . S
C1926 C1924 1.394 . S
C1926 C1927 1.369 1_556 S
C1926 C1930 1.531 . S
C1927 C1926 1.369 1_554 S
C1927 C1928 1.410 . S
C1927 C1935 1.503 . S
C1928 C1927 1.410 . S
C1928 C1929 1.392 . S
C1928 C1931 1.511 . S
C1929 C1925 1.376 . S
C1929 C1928 1.392 . S
C1929 H1941 0.929 . S
C1930 C1926 1.531 . S
C1930 H1942 0.960 . S
C1930 H1943 0.962 . S
C1930 H1944 0.960 . S
C1931 C1928 1.511 . S
C1931 H1945 0.961 . S
C1931 H1946 0.961 . S
C1931 H1947 0.961 . S
C1932 C1933 1.370 1_556 S
C1932 C1934 1.363 . S
C1932 H1948 0.931 . S
C1933 C1932 1.370 1_554 S
C1933 C1937 1.408 . S
C1934 C1932 1.363 . S
C1934 C1935 1.370 1_556 S
C1934 C1938 1.524 . S
C1935 C1927 1.503 . S
C1935 C1934 1.370 1_554 S
C1935 C1936 1.403 . S
C1936 C1935 1.403 . S
C1936 C1937 1.404 . S
C1936 C1939 1.539 . S
C1937 C1933 1.408 . S
C1937 C1936 1.404 . S
C1937 H1949 0.930 . S
C1938 C1934 1.524 . S
C1938 H1950 0.956 . S
C1938 H1951 0.961 . S
C1938 H1952 0.961 . S
C1939 C1936 1.539 . S
C1939 H1953 0.958 . S
C1939 H1954 0.961 . S
C1939 H1955 0.960 . S
H1940 C1924 0.931 . S
H1941 C1929 0.929 . S
H1942 C1930 0.960 . S
H1943 C1930 0.962 . S
H1944 C1930 0.960 . S
H1945 C1931 0.961 . S
H1946 C1931 0.961 . S
H1947 C1931 0.961 . S
H1948 C1932 0.931 . S
H1949 C1937 0.930 . S
H1950 C1938 0.956 . S
H1951 C1938 0.961 . S
H1952 C1938 0.961 . S
H1953 C1939 0.958 . S
H1954 C1939 0.961 . S
H1955 C1939 0.960 . S
C1956 C1957 1.391 . S
C1956 C1958 1.394 . S
C1956 H1972 0.931 . S
C1957 C1956 1.391 . S
C1957 C1961 1.376 1_554 S
C1958 C1956 1.394 . S
C1958 C1959 1.369 . S
C1958 C1962 1.531 . S
C1959 C1958 1.369 . S
C1959 C1960 1.410 1_554 S
C1959 C1967 1.503 . S
C1960 C1959 1.410 1_556 S
C1960 C1961 1.392 . S
C1960 C1963 1.511 . S
C1961 C1957 1.376 1_556 S
C1961 C1960 1.392 . S
C1961 H1973 0.929 . S
C1962 C1958 1.531 . S
C1962 H1974 0.960 . S
C1962 H1975 0.962 . S
C1962 H1976 0.960 . S
C1963 C1960 1.511 . S
C1963 H1977 0.961 . S
C1963 H1978 0.961 . S
C1963 H1979 0.961 . S
C1964 C1965 1.364 1_556 S
C1964 C1966 1.363 . S
C1964 H1980 0.931 . S
C1965 C1964 1.364 1_554 S
C1965 C1969 1.416 . S
C1966 C1964 1.363 . S
C1966 C1967 1.370 1_556 S
C1966 C1970 1.524 . S
C1967 C1959 1.503 . S
C1967 C1966 1.370 1_554 S
C1967 C1968 1.403 . S
C1968 C1967 1.403 . S
C1968 C1969 1.404 . S
C1968 C1971 1.539 . S
C1969 C1965 1.416 . S
C1969 C1968 1.404 . S
C1969 H1981 0.930 . S
C1970 C1966 1.524 . S
C1970 H1982 0.956 . S
C1970 H1983 0.961 . S
C1970 H1984 0.961 . S
C1971 C1968 1.539 . S
C1971 H1985 0.958 . S
C1971 H1986 0.961 . S
C1971 H1987 0.960 . S
H1972 C1956 0.931 . S
H1973 C1961 0.929 . S
H1974 C1962 0.960 . S
H1975 C1962 0.962 . S
H1976 C1962 0.960 . S
H1977 C1963 0.961 . S
H1978 C1963 0.961 . S
H1979 C1963 0.961 . S
H1980 C1964 0.931 . S
H1981 C1969 0.930 . S
H1982 C1970 0.956 . S
H1983 C1970 0.961 . S
H1984 C1970 0.961 . S
H1985 C1971 0.958 . S
H1986 C1971 0.961 . S
H1987 C1971 0.960 . S
C1988 C1989 1.391 1_554 S
C1988 C1990 1.393 1_554 S
C1988 H2004 0.931 . S
C1989 C1988 1.391 1_556 S
C1989 C1993 1.376 . S
C1990 C1988 1.393 1_556 S
C1990 C1991 1.371 . S
C1990 C1994 1.529 1_556 S
C1991 C1990 1.371 . S
C1991 C1992 1.410 . S
C1991 C1999 1.503 . S
C1992 C1991 1.410 . S
C1992 C1993 1.392 . S
C1992 C1995 1.511 . S
C1993 C1989 1.376 . S
C1993 C1992 1.392 . S
C1993 H2005 0.929 . S
C1994 C1990 1.529 1_554 S
C1994 H2006 0.960 1_554 S
C1994 H2007 0.962 . S
C1994 H2008 0.960 1_554 S
C1995 C1992 1.511 . S
C1995 H2009 0.961 . S
C1995 H2010 0.961 . S
C1995 H2011 0.961 . S
C1996 C1997 1.342 1_554 S
C1996 C1998 1.363 . S
C1996 H2012 0.931 . S
C1997 C1996 1.342 1_556 S
C1997 C2001 1.439 . S
C1998 C1996 1.363 . S
C1998 C1999 1.370 1_554 S
C1998 C2002 1.524 . S
C1999 C1991 1.503 . S
C1999 C1998 1.370 1_556 S
C1999 C2000 1.403 . S
C2000 C1999 1.403 . S
C2000 C2001 1.404 . S
C2000 C2003 1.539 . S
C2001 C1997 1.439 . S
C2001 C2000 1.404 . S
C2001 H2013 0.930 . S
C2002 C1998 1.524 . S
C2002 H2014 0.956 . S
C2002 H2015 0.961 . S
C2002 H2016 0.961 . S
C2003 C2000 1.539 . S
C2003 H2017 0.958 . S
C2003 H2018 0.961 . S
C2003 H2019 0.960 . S
H2004 C1988 0.931 . S
H2005 C1993 0.929 . S
H2006 C1994 0.960 1_556 S
H2007 C1994 0.962 . S
H2008 C1994 0.960 1_556 S
H2009 C1995 0.961 . S
H2010 C1995 0.961 . S
H2011 C1995 0.961 . S
H2012 C1996 0.931 . S
H2013 C2001 0.930 . S
H2014 C2002 0.956 . S
H2015 C2002 0.961 . S
H2016 C2002 0.961 . S
H2017 C2003 0.958 . S
H2018 C2003 0.961 . S
H2019 C2003 0.960 . S
C2020 C2021 1.391 . S
C2020 C2022 1.394 . S
C2020 H2036 0.931 . S
C2021 C2020 1.391 . S
C2021 C2025 1.376 1_554 S
C2022 C2020 1.394 . S
C2022 C2023 1.369 . S
C2022 C2026 1.531 . S
C2023 C2022 1.369 . S
C2023 C2024 1.410 1_554 S
C2023 C2031 1.503 . S
C2024 C2023 1.410 1_556 S
C2024 C2025 1.392 . S
C2024 C2027 1.511 . S
C2025 C2021 1.376 1_556 S
C2025 C2024 1.392 . S
C2025 H2037 0.929 . S
C2026 C2022 1.531 . S
C2026 H2038 0.960 . S
C2026 H2039 0.962 . S
C2026 H2040 0.960 . S
C2027 C2024 1.511 . S
C2027 H2041 0.961 . S
C2027 H2042 0.961 . S
C2027 H2043 0.961 . S
C2028 C2029 1.358 1_556 S
C2028 C2030 1.363 . S
C2028 H2044 0.931 . S
C2029 C2028 1.358 1_554 S
C2029 C2033 1.423 . S
C2030 C2028 1.363 . S
C2030 C2031 1.370 1_556 S
C2030 C2034 1.524 . S
C2031 C2023 1.503 . S
C2031 C2030 1.370 1_554 S
C2031 C2032 1.403 . S
C2032 C2031 1.403 . S
C2032 C2033 1.404 . S
C2032 C2035 1.539 . S
C2033 C2029 1.423 . S
C2033 C2032 1.404 . S
C2033 H2045 0.930 . S
C2034 C2030 1.524 . S
C2034 H2046 0.956 . S
C2034 H2047 0.961 . S
C2034 H2048 0.961 . S
C2035 C2032 1.539 . S
C2035 H2049 0.958 . S
C2035 H2050 0.961 . S
C2035 H2051 0.960 . S
H2036 C2020 0.931 . S
H2037 C2025 0.929 . S
H2038 C2026 0.960 . S
H2039 C2026 0.962 . S
H2040 C2026 0.960 . S
H2041 C2027 0.961 . S
H2042 C2027 0.961 . S
H2043 C2027 0.961 . S
H2044 C2028 0.931 . S
H2045 C2033 0.930 . S
H2046 C2034 0.956 . S
H2047 C2034 0.961 . S
H2048 C2034 0.961 . S
H2049 C2035 0.958 . S
H2050 C2035 0.961 . S
H2051 C2035 0.960 . S
C2052 C2053 1.391 . S
C2052 C2054 1.394 . S
C2052 H2068 0.931 . S
C2053 C2052 1.391 . S
C2053 C2057 1.376 1_554 S
C2054 C2052 1.394 . S
C2054 C2055 1.369 . S
C2054 C2058 1.531 . S
C2055 C2054 1.369 . S
C2055 C2056 1.410 1_554 S
C2055 C2063 1.503 . S
C2056 C2055 1.410 1_556 S
C2056 C2057 1.392 . S
C2056 C2059 1.511 . S
C2057 C2053 1.376 1_556 S
C2057 C2056 1.392 . S
C2057 H2069 0.929 . S
C2058 C2054 1.531 . S
C2058 H2070 0.960 . S
C2058 H2071 0.962 . S
C2058 H2072 0.960 . S
C2059 C2056 1.511 . S
C2059 H2073 0.961 . S
C2059 H2074 0.961 . S
C2059 H2075 0.961 . S
C2060 C2061 1.360 1_556 S
C2060 C2062 1.363 . S
C2060 H2076 0.931 . S
C2061 C2060 1.360 1_554 S
C2061 C2065 1.421 . S
C2062 C2060 1.363 . S
C2062 C2063 1.370 1_556 S
C2062 C2066 1.524 . S
C2063 C2055 1.503 . S
C2063 C2062 1.370 1_554 S
C2063 C2064 1.403 . S
C2064 C2063 1.403 . S
C2064 C2065 1.404 . S
C2064 C2067 1.539 . S
C2065 C2061 1.421 . S
C2065 C2064 1.404 . S
C2065 H2077 0.930 . S
C2066 C2062 1.524 . S
C2066 H2078 0.956 . S
C2066 H2079 0.961 . S
C2066 H2080 0.961 . S
C2067 C2064 1.539 . S
C2067 H2081 0.958 . S
C2067 H2082 0.961 . S
C2067 H2083 0.960 . S
H2068 C2052 0.931 . S
H2069 C2057 0.929 . S
H2070 C2058 0.960 . S
H2071 C2058 0.962 . S
H2072 C2058 0.960 . S
H2073 C2059 0.961 . S
H2074 C2059 0.961 . S
H2075 C2059 0.961 . S
H2076 C2060 0.931 . S
H2077 C2065 0.930 . S
H2078 C2066 0.956 . S
H2079 C2066 0.961 . S
H2080 C2066 0.961 . S
H2081 C2067 0.958 . S
H2082 C2067 0.961 . S
H2083 C2067 0.960 . S
C2084 C2085 1.391 1_554 S
C2084 C2086 1.394 . S
C2084 H2100 0.931 . S
C2085 C2084 1.391 1_556 S
C2085 C2089 1.376 . S
C2086 C2084 1.394 . S
C2086 C2087 1.369 1_554 S
C2086 C2090 1.531 . S
C2087 C2086 1.369 1_556 S
C2087 C2088 1.410 . S
C2087 C2095 1.503 . S
C2088 C2087 1.410 . S
C2088 C2089 1.392 . S
C2088 C2091 1.511 . S
C2089 C2085 1.376 . S
C2089 C2088 1.392 . S
C2089 H2101 0.929 . S
C2090 C2086 1.531 . S
C2090 H2102 0.960 . S
C2090 H2103 0.962 . S
C2090 H2104 0.960 . S
C2091 C2088 1.511 . S
C2091 H2105 0.961 . S
C2091 H2106 0.961 . S
C2091 H2107 0.961 . S
C2092 C2093 1.356 1_554 S
C2092 C2094 1.363 . S
C2092 H2108 0.931 . S
C2093 C2092 1.356 1_556 S
C2093 C2097 1.423 . S
C2094 C2092 1.363 . S
C2094 C2095 1.370 1_554 S
C2094 C2098 1.524 . S
C2095 C2087 1.503 . S
C2095 C2094 1.370 1_556 S
C2095 C2096 1.403 . S
C2096 C2095 1.403 . S
C2096 C2097 1.404 . S
C2096 C2099 1.539 . S
C2097 C2093 1.423 . S
C2097 C2096 1.404 . S
C2097 H2109 0.930 . S
C2098 C2094 1.524 . S
C2098 H2110 0.956 . S
C2098 H2111 0.961 . S
C2098 H2112 0.961 . S
C2099 C2096 1.539 . S
C2099 H2113 0.958 . S
C2099 H2114 0.961 . S
C2099 H2115 0.960 . S
H2100 C2084 0.931 . S
H2101 C2089 0.929 . S
H2102 C2090 0.960 . S
H2103 C2090 0.962 . S
H2104 C2090 0.960 . S
H2105 C2091 0.961 . S
H2106 C2091 0.961 . S
H2107 C2091 0.961 . S
H2108 C2092 0.931 . S
H2109 C2097 0.930 . S
H2110 C2098 0.956 . S
H2111 C2098 0.961 . S
H2112 C2098 0.961 . S
H2113 C2099 0.958 . S
H2114 C2099 0.961 . S
H2115 C2099 0.960 . S
C2116 C2117 1.391 . S
C2116 C2118 1.394 . S
C2116 H2132 0.931 . S
C2117 C2116 1.391 . S
C2117 C2121 1.376 . S
C2118 C2116 1.394 . S
C2118 C2119 1.369 . S
C2118 C2122 1.531 . S
C2119 C2118 1.369 . S
C2119 C2120 1.410 . S
C2119 C2127 1.503 . S
C2120 C2119 1.410 . S
C2120 C2121 1.392 . S
C2120 C2123 1.511 . S
C2121 C2117 1.376 . S
C2121 C2120 1.392 . S
C2121 H2133 0.929 . S
C2122 C2118 1.531 . S
C2122 H2134 0.960 . S
C2122 H2135 0.962 1_556 S
C2122 H2136 0.960 . S
C2123 C2120 1.511 . S
C2123 H2137 0.961 1_556 S
C2123 H2138 0.961 1_556 S
C2123 H2139 0.961 . S
C2124 C2125 1.341 1_554 S
C2124 C2126 1.363 . S
C2124 H2140 0.931 . S
C2125 C2124 1.341 1_556 S
C2125 C2129 1.441 . S
C2126 C2124 1.363 . S
C2126 C2127 1.370 1_554 S
C2126 C2130 1.524 . S
C2127 C2119 1.503 . S
C2127 C2126 1.370 1_556 S
C2127 C2128 1.403 . S
C2128 C2127 1.403 . S
C2128 C2129 1.404 . S
C2128 C2131 1.539 . S
C2129 C2125 1.441 . S
C2129 C2128 1.404 . S
C2129 H2141 0.930 . S
C2130 C2126 1.524 . S
C2130 H2142 0.956 . S
C2130 H2143 0.961 . S
C2130 H2144 0.961 . S
C2131 C2128 1.539 . S
C2131 H2145 0.958 . S
C2131 H2146 0.961 . S
C2131 H2147 0.960 . S
H2132 C2116 0.931 . S
H2133 C2121 0.929 . S
H2134 C2122 0.960 . S
H2135 C2122 0.962 1_554 S
H2136 C2122 0.960 . S
H2137 C2123 0.961 1_554 S
H2138 C2123 0.961 1_554 S
H2139 C2123 0.961 . S
H2140 C2124 0.931 . S
H2141 C2129 0.930 . S
H2142 C2130 0.956 . S
H2143 C2130 0.961 . S
H2144 C2130 0.961 . S
H2145 C2131 0.958 . S
H2146 C2131 0.961 . S
H2147 C2131 0.960 . S
C2148 C2149 1.391 . S
C2148 C2150 1.394 . S
C2148 H2164 0.931 . S
C2149 C2148 1.391 . S
C2149 C2153 1.376 . S
C2150 C2148 1.394 . S
C2150 C2151 1.369 . S
C2150 C2154 1.531 . S
C2151 C2150 1.369 . S
C2151 C2152 1.410 . S
C2151 C2159 1.503 . S
C2152 C2151 1.410 . S
C2152 C2153 1.392 . S
C2152 C2155 1.511 . S
C2153 C2149 1.376 . S
C2153 C2152 1.392 . S
C2153 H2165 0.929 . S
C2154 C2150 1.531 . S
C2154 H2166 0.960 . S
C2154 H2167 0.962 . S
C2154 H2168 0.960 . S
C2155 C2152 1.511 . S
C2155 H2169 0.961 . S
C2155 H2170 0.961 . S
C2155 H2171 0.961 . S
C2156 C2157 1.370 . S
C2156 C2158 1.363 . S
C2156 H2172 0.931 . S
C2157 C2156 1.370 . S
C2157 C2161 1.408 . S
C2158 C2156 1.363 . S
C2158 C2159 1.370 . S
C2158 C2162 1.524 . S
C2159 C2151 1.503 . S
C2159 C2158 1.370 . S
C2159 C2160 1.403 . S
C2160 C2159 1.403 . S
C2160 C2161 1.404 . S
C2160 C2163 1.539 . S
C2161 C2157 1.408 . S
C2161 C2160 1.404 . S
C2161 H2173 0.930 . S
C2162 C2158 1.524 . S
C2162 H2174 0.956 . S
C2162 H2175 0.961 . S
C2162 H2176 0.961 . S
C2163 C2160 1.539 . S
C2163 H2177 0.958 . S
C2163 H2178 0.961 . S
C2163 H2179 0.960 . S
H2164 C2148 0.931 . S
H2165 C2153 0.929 . S
H2166 C2154 0.960 . S
H2167 C2154 0.962 . S
H2168 C2154 0.960 . S
H2169 C2155 0.961 . S
H2170 C2155 0.961 . S
H2171 C2155 0.961 . S
H2172 C2156 0.931 . S
H2173 C2161 0.930 . S
H2174 C2162 0.956 . S
H2175 C2162 0.961 . S
H2176 C2162 0.961 . S
H2177 C2163 0.958 . S
H2178 C2163 0.961 . S
H2179 C2163 0.960 . S
C2180 C2181 1.391 . S
C2180 C2182 1.394 . S
C2180 H2196 0.931 . S
C2181 C2180 1.391 . S
C2181 C2185 1.376 . S
C2182 C2180 1.394 . S
C2182 C2183 1.369 . S
C2182 C2186 1.531 . S
C2183 C2182 1.369 . S
C2183 C2184 1.410 . S
C2183 C2191 1.503 . S
C2184 C2183 1.410 . S
C2184 C2185 1.392 . S
C2184 C2187 1.511 . S
C2185 C2181 1.376 . S
C2185 C2184 1.392 . S
C2185 H2197 0.929 . S
C2186 C2182 1.531 . S
C2186 H2198 0.960 . S
C2186 H2199 0.962 . S
C2186 H2200 0.960 . S
C2187 C2184 1.511 . S
C2187 H2201 0.961 . S
C2187 H2202 0.961 . S
C2187 H2203 0.961 . S
C2188 C2189 1.370 . S
C2188 C2190 1.363 . S
C2188 H2204 0.931 . S
C2189 C2188 1.370 . S
C2189 C2193 1.408 . S
C2190 C2188 1.363 . S
C2190 C2191 1.370 . S
C2190 C2194 1.524 . S
C2191 C2183 1.503 . S
C2191 C2190 1.370 . S
C2191 C2192 1.403 . S
C2192 C2191 1.403 . S
C2192 C2193 1.404 . S
C2192 C2195 1.539 . S
C2193 C2189 1.408 . S
C2193 C2192 1.404 . S
C2193 H2205 0.930 . S
C2194 C2190 1.524 . S
C2194 H2206 0.956 . S
C2194 H2207 0.961 . S
C2194 H2208 0.961 . S
C2195 C2192 1.539 . S
C2195 H2209 0.958 . S
C2195 H2210 0.961 . S
C2195 H2211 0.960 . S
H2196 C2180 0.931 . S
H2197 C2185 0.929 . S
H2198 C2186 0.960 . S
H2199 C2186 0.962 . S
H2200 C2186 0.960 . S
H2201 C2187 0.961 . S
H2202 C2187 0.961 . S
H2203 C2187 0.961 . S
H2204 C2188 0.931 . S
H2205 C2193 0.930 . S
H2206 C2194 0.956 . S
H2207 C2194 0.961 . S
H2208 C2194 0.961 . S
H2209 C2195 0.958 . S
H2210 C2195 0.961 . S
H2211 C2195 0.960 . S
C2212 C2213 1.391 . S
C2212 C2214 1.394 . S
C2212 H2228 0.931 . S
C2213 C2212 1.391 . S
C2213 C2217 1.376 . S
C2214 C2212 1.394 . S
C2214 C2215 1.369 . S
C2214 C2218 1.531 . S
C2215 C2214 1.369 . S
C2215 C2216 1.410 . S
C2215 C2223 1.503 . S
C2216 C2215 1.410 . S
C2216 C2217 1.392 . S
C2216 C2219 1.511 . S
C2217 C2213 1.376 . S
C2217 C2216 1.392 . S
C2217 H2229 0.929 . S
C2218 C2214 1.531 . S
C2218 H2230 0.960 . S
C2218 H2231 0.962 . S
C2218 H2232 0.960 . S
C2219 C2216 1.511 . S
C2219 H2233 0.961 . S
C2219 H2234 0.961 . S
C2219 H2235 0.961 . S
C2220 C2221 1.370 . S
C2220 C2222 1.363 . S
C2220 H2236 0.931 . S
C2221 C2220 1.370 . S
C2221 C2225 1.408 . S
C2222 C2220 1.363 . S
C2222 C2223 1.370 . S
C2222 C2226 1.524 . S
C2223 C2215 1.503 . S
C2223 C2222 1.370 . S
C2223 C2224 1.403 . S
C2224 C2223 1.403 . S
C2224 C2225 1.404 . S
C2224 C2227 1.539 . S
C2225 C2221 1.408 . S
C2225 C2224 1.404 . S
C2225 H2237 0.930 . S
C2226 C2222 1.524 . S
C2226 H2238 0.956 . S
C2226 H2239 0.961 . S
C2226 H2240 0.961 . S
C2227 C2224 1.539 . S
C2227 H2241 0.958 . S
C2227 H2242 0.961 . S
C2227 H2243 0.960 . S
H2228 C2212 0.931 . S
H2229 C2217 0.929 . S
H2230 C2218 0.960 . S
H2231 C2218 0.962 . S
H2232 C2218 0.960 . S
H2233 C2219 0.961 . S
H2234 C2219 0.961 . S
H2235 C2219 0.961 . S
H2236 C2220 0.931 . S
H2237 C2225 0.930 . S
H2238 C2226 0.956 . S
H2239 C2226 0.961 . S
H2240 C2226 0.961 . S
H2241 C2227 0.958 . S
H2242 C2227 0.961 . S
H2243 C2227 0.960 . S
C2244 C2245 1.391 . S
C2244 C2246 1.394 . S
C2244 H2260 0.931 . S
C2245 C2244 1.391 . S
C2245 C2249 1.376 . S
C2246 C2244 1.394 . S
C2246 C2247 1.369 . S
C2246 C2250 1.531 . S
C2247 C2246 1.369 . S
C2247 C2248 1.410 . S
C2247 C2255 1.503 . S
C2248 C2247 1.410 . S
C2248 C2249 1.392 . S
C2248 C2251 1.511 . S
C2249 C2245 1.376 . S
C2249 C2248 1.392 . S
C2249 H2261 0.929 . S
C2250 C2246 1.531 . S
C2250 H2262 0.960 . S
C2250 H2263 0.962 . S
C2250 H2264 0.960 . S
C2251 C2248 1.511 . S
C2251 H2265 0.961 . S
C2251 H2266 0.961 . S
C2251 H2267 0.961 . S
C2252 C2253 1.370 . S
C2252 C2254 1.363 . S
C2252 H2268 0.931 . S
C2253 C2252 1.370 . S
C2253 C2257 1.408 . S
C2254 C2252 1.363 . S
C2254 C2255 1.370 . S
C2254 C2258 1.524 . S
C2255 C2247 1.503 . S
C2255 C2254 1.370 . S
C2255 C2256 1.403 . S
C2256 C2255 1.403 . S
C2256 C2257 1.404 . S
C2256 C2259 1.539 . S
C2257 C2253 1.408 . S
C2257 C2256 1.404 . S
C2257 H2269 0.930 . S
C2258 C2254 1.524 . S
C2258 H2270 0.956 . S
C2258 H2271 0.961 . S
C2258 H2272 0.961 . S
C2259 C2256 1.539 . S
C2259 H2273 0.958 . S
C2259 H2274 0.961 . S
C2259 H2275 0.960 . S
H2260 C2244 0.931 . S
H2261 C2249 0.929 . S
H2262 C2250 0.960 . S
H2263 C2250 0.962 . S
H2264 C2250 0.960 . S
H2265 C2251 0.961 . S
H2266 C2251 0.961 . S
H2267 C2251 0.961 . S
H2268 C2252 0.931 . S
H2269 C2257 0.930 . S
H2270 C2258 0.956 . S
H2271 C2258 0.961 . S
H2272 C2258 0.961 . S
H2273 C2259 0.958 . S
H2274 C2259 0.961 . S
H2275 C2259 0.960 . S
C2276 C2277 1.391 . S
C2276 C2278 1.394 . S
C2276 H2292 0.931 . S
C2277 C2276 1.391 . S
C2277 C2281 1.376 . S
C2278 C2276 1.394 . S
C2278 C2279 1.369 . S
C2278 C2282 1.531 . S
C2279 C2278 1.369 . S
C2279 C2280 1.410 . S
C2279 C2287 1.503 . S
C2280 C2279 1.410 . S
C2280 C2281 1.392 . S
C2280 C2283 1.511 . S
C2281 C2277 1.376 . S
C2281 C2280 1.392 . S
C2281 H2293 0.929 . S
C2282 C2278 1.531 . S
C2282 H2294 0.960 . S
C2282 H2295 0.962 . S
C2282 H2296 0.960 . S
C2283 C2280 1.511 . S
C2283 H2297 0.961 . S
C2283 H2298 0.961 . S
C2283 H2299 0.961 . S
C2284 C2285 1.370 . S
C2284 C2286 1.363 . S
C2284 H2300 0.931 . S
C2285 C2284 1.370 . S
C2285 C2289 1.408 . S
C2286 C2284 1.363 . S
C2286 C2287 1.370 . S
C2286 C2290 1.524 . S
C2287 C2279 1.503 . S
C2287 C2286 1.370 . S
C2287 C2288 1.403 . S
C2288 C2287 1.403 . S
C2288 C2289 1.404 . S
C2288 C2291 1.539 . S
C2289 C2285 1.408 . S
C2289 C2288 1.404 . S
C2289 H2301 0.930 . S
C2290 C2286 1.524 . S
C2290 H2302 0.956 . S
C2290 H2303 0.961 . S
C2290 H2304 0.961 . S
C2291 C2288 1.539 . S
C2291 H2305 0.958 . S
C2291 H2306 0.961 . S
C2291 H2307 0.960 . S
H2292 C2276 0.931 . S
H2293 C2281 0.929 . S
H2294 C2282 0.960 . S
H2295 C2282 0.962 . S
H2296 C2282 0.960 . S
H2297 C2283 0.961 . S
H2298 C2283 0.961 . S
H2299 C2283 0.961 . S
H2300 C2284 0.931 . S
H2301 C2289 0.930 . S
H2302 C2290 0.956 . S
H2303 C2290 0.961 . S
H2304 C2290 0.961 . S
H2305 C2291 0.958 . S
H2306 C2291 0.961 . S
H2307 C2291 0.960 . S
C2308 C2309 1.391 . S
C2308 C2310 1.394 . S
C2308 H2324 0.931 . S
C2309 C2308 1.391 . S
C2309 C2313 1.376 . S
C2310 C2308 1.394 . S
C2310 C2311 1.369 . S
C2310 C2314 1.531 . S
C2311 C2310 1.369 . S
C2311 C2312 1.410 . S
C2311 C2319 1.503 . S
C2312 C2311 1.410 . S
C2312 C2313 1.392 . S
C2312 C2315 1.511 . S
C2313 C2309 1.376 . S
C2313 C2312 1.392 . S
C2313 H2325 0.929 . S
C2314 C2310 1.531 . S
C2314 H2326 0.960 . S
C2314 H2327 0.962 . S
C2314 H2328 0.960 . S
C2315 C2312 1.511 . S
C2315 H2329 0.961 . S
C2315 H2330 0.961 . S
C2315 H2331 0.961 . S
C2316 C2317 1.370 . S
C2316 C2318 1.363 . S
C2316 H2332 0.931 . S
C2317 C2316 1.370 . S
C2317 C2321 1.408 . S
C2318 C2316 1.363 . S
C2318 C2319 1.370 . S
C2318 C2322 1.524 . S
C2319 C2311 1.503 . S
C2319 C2318 1.370 . S
C2319 C2320 1.403 . S
C2320 C2319 1.403 . S
C2320 C2321 1.404 . S
C2320 C2323 1.539 . S
C2321 C2317 1.408 . S
C2321 C2320 1.404 . S
C2321 H2333 0.930 . S
C2322 C2318 1.524 . S
C2322 H2334 0.956 . S
C2322 H2335 0.961 . S
C2322 H2336 0.961 . S
C2323 C2320 1.539 . S
C2323 H2337 0.958 . S
C2323 H2338 0.961 . S
C2323 H2339 0.960 . S
H2324 C2308 0.931 . S
H2325 C2313 0.929 . S
H2326 C2314 0.960 . S
H2327 C2314 0.962 . S
H2328 C2314 0.960 . S
H2329 C2315 0.961 . S
H2330 C2315 0.961 . S
H2331 C2315 0.961 . S
H2332 C2316 0.931 . S
H2333 C2321 0.930 . S
H2334 C2322 0.956 . S
H2335 C2322 0.961 . S
H2336 C2322 0.961 . S
H2337 C2323 0.958 . S
H2338 C2323 0.961 . S
H2339 C2323 0.960 . S
C2340 C2341 1.391 . S
C2340 C2342 1.394 . S
C2340 H2356 0.931 . S
C2341 C2340 1.391 . S
C2341 C2345 1.376 . S
C2342 C2340 1.394 . S
C2342 C2343 1.369 . S
C2342 C2346 1.531 . S
C2343 C2342 1.369 . S
C2343 C2344 1.410 . S
C2343 C2351 1.503 . S
C2344 C2343 1.410 . S
C2344 C2345 1.392 . S
C2344 C2347 1.511 . S
C2345 C2341 1.376 . S
C2345 C2344 1.392 . S
C2345 H2357 0.929 . S
C2346 C2342 1.531 . S
C2346 H2358 0.960 . S
C2346 H2359 0.962 . S
C2346 H2360 0.960 . S
C2347 C2344 1.511 . S
C2347 H2361 0.961 . S
C2347 H2362 0.961 . S
C2347 H2363 0.961 . S
C2348 C2349 1.370 . S
C2348 C2350 1.363 . S
C2348 H2364 0.931 . S
C2349 C2348 1.370 . S
C2349 C2353 1.408 . S
C2350 C2348 1.363 . S
C2350 C2351 1.370 . S
C2350 C2354 1.524 . S
C2351 C2343 1.503 . S
C2351 C2350 1.370 . S
C2351 C2352 1.403 . S
C2352 C2351 1.403 . S
C2352 C2353 1.404 . S
C2352 C2355 1.539 . S
C2353 C2349 1.408 . S
C2353 C2352 1.404 . S
C2353 H2365 0.930 . S
C2354 C2350 1.524 . S
C2354 H2366 0.956 . S
C2354 H2367 0.961 . S
C2354 H2368 0.961 . S
C2355 C2352 1.539 . S
C2355 H2369 0.958 . S
C2355 H2370 0.961 . S
C2355 H2371 0.960 . S
H2356 C2340 0.931 . S
H2357 C2345 0.929 . S
H2358 C2346 0.960 . S
H2359 C2346 0.962 . S
H2360 C2346 0.960 . S
H2361 C2347 0.961 . S
H2362 C2347 0.961 . S
H2363 C2347 0.961 . S
H2364 C2348 0.931 . S
H2365 C2353 0.930 . S
H2366 C2354 0.956 . S
H2367 C2354 0.961 . S
H2368 C2354 0.961 . S
H2369 C2355 0.958 . S
H2370 C2355 0.961 . S
H2371 C2355 0.960 . S
C2372 C2373 1.391 . S
C2372 C2374 1.394 . S
C2372 H2388 0.931 . S
C2373 C2372 1.391 . S
C2373 C2377 1.376 . S
C2374 C2372 1.394 . S
C2374 C2375 1.369 . S
C2374 C2378 1.531 . S
C2375 C2374 1.369 . S
C2375 C2376 1.410 . S
C2375 C2383 1.503 . S
C2376 C2375 1.410 . S
C2376 C2377 1.392 . S
C2376 C2379 1.511 . S
C2377 C2373 1.376 . S
C2377 C2376 1.392 . S
C2377 H2389 0.929 . S
C2378 C2374 1.531 . S
C2378 H2390 0.960 . S
C2378 H2391 0.962 . S
C2378 H2392 0.960 . S
C2379 C2376 1.511 . S
C2379 H2393 0.961 . S
C2379 H2394 0.961 . S
C2379 H2395 0.961 . S
C2380 C2381 1.370 . S
C2380 C2382 1.363 . S
C2380 H2396 0.931 . S
C2381 C2380 1.370 . S
C2381 C2385 1.408 . S
C2382 C2380 1.363 . S
C2382 C2383 1.370 . S
C2382 C2386 1.524 . S
C2383 C2375 1.503 . S
C2383 C2382 1.370 . S
C2383 C2384 1.403 . S
C2384 C2383 1.403 . S
C2384 C2385 1.404 . S
C2384 C2387 1.539 . S
C2385 C2381 1.408 . S
C2385 C2384 1.404 . S
C2385 H2397 0.930 . S
C2386 C2382 1.524 . S
C2386 H2398 0.956 . S
C2386 H2399 0.961 . S
C2386 H2400 0.961 . S
C2387 C2384 1.539 . S
C2387 H2401 0.958 . S
C2387 H2402 0.961 . S
C2387 H2403 0.960 . S
H2388 C2372 0.931 . S
H2389 C2377 0.929 . S
H2390 C2378 0.960 . S
H2391 C2378 0.962 . S
H2392 C2378 0.960 . S
H2393 C2379 0.961 . S
H2394 C2379 0.961 . S
H2395 C2379 0.961 . S
H2396 C2380 0.931 . S
H2397 C2385 0.930 . S
H2398 C2386 0.956 . S
H2399 C2386 0.961 . S
H2400 C2386 0.961 . S
H2401 C2387 0.958 . S
H2402 C2387 0.961 . S
H2403 C2387 0.960 . S
C2404 C2405 1.391 . S
C2404 C2406 1.394 . S
C2404 H2420 0.931 . S
C2405 C2404 1.391 . S
C2405 C2409 1.376 . S
C2406 C2404 1.394 . S
C2406 C2407 1.369 . S
C2406 C2410 1.531 . S
C2407 C2406 1.369 . S
C2407 C2408 1.410 . S
C2407 C2415 1.503 . S
C2408 C2407 1.410 . S
C2408 C2409 1.392 . S
C2408 C2411 1.511 . S
C2409 C2405 1.376 . S
C2409 C2408 1.392 . S
C2409 H2421 0.929 . S
C2410 C2406 1.531 . S
C2410 H2422 0.960 . S
C2410 H2423 0.962 . S
C2410 H2424 0.960 . S
C2411 C2408 1.511 . S
C2411 H2425 0.961 . S
C2411 H2426 0.961 . S
C2411 H2427 0.961 . S
C2412 C2413 1.370 . S
C2412 C2414 1.363 . S
C2412 H2428 0.931 . S
C2413 C2412 1.370 . S
C2413 C2417 1.408 . S
C2414 C2412 1.363 . S
C2414 C2415 1.370 . S
C2414 C2418 1.524 . S
C2415 C2407 1.503 . S
C2415 C2414 1.370 . S
C2415 C2416 1.403 . S
C2416 C2415 1.403 . S
C2416 C2417 1.404 . S
C2416 C2419 1.539 . S
C2417 C2413 1.408 . S
C2417 C2416 1.404 . S
C2417 H2429 0.930 . S
C2418 C2414 1.524 . S
C2418 H2430 0.956 . S
C2418 H2431 0.961 . S
C2418 H2432 0.961 . S
C2419 C2416 1.539 . S
C2419 H2433 0.958 . S
C2419 H2434 0.961 . S
C2419 H2435 0.960 . S
H2420 C2404 0.931 . S
H2421 C2409 0.929 . S
H2422 C2410 0.960 . S
H2423 C2410 0.962 . S
H2424 C2410 0.960 . S
H2425 C2411 0.961 . S
H2426 C2411 0.961 . S
H2427 C2411 0.961 . S
H2428 C2412 0.931 . S
H2429 C2417 0.930 . S
H2430 C2418 0.956 . S
H2431 C2418 0.961 . S
H2432 C2418 0.961 . S
H2433 C2419 0.958 . S
H2434 C2419 0.961 . S
H2435 C2419 0.960 . S
C2436 C2437 1.391 . S
C2436 C2438 1.394 . S
C2436 H2452 0.931 . S
C2437 C2436 1.391 . S
C2437 C2441 1.376 . S
C2438 C2436 1.394 . S
C2438 C2439 1.369 . S
C2438 C2442 1.531 . S
C2439 C2438 1.369 . S
C2439 C2440 1.410 . S
C2439 C2447 1.503 . S
C2440 C2439 1.410 . S
C2440 C2441 1.392 . S
C2440 C2443 1.511 . S
C2441 C2437 1.376 . S
C2441 C2440 1.392 . S
C2441 H2453 0.929 . S
C2442 C2438 1.531 . S
C2442 H2454 0.960 . S
C2442 H2455 0.962 . S
C2442 H2456 0.960 . S
C2443 C2440 1.511 . S
C2443 H2457 0.961 . S
C2443 H2458 0.961 . S
C2443 H2459 0.961 . S
C2444 C2445 1.370 . S
C2444 C2446 1.363 . S
C2444 H2460 0.931 . S
C2445 C2444 1.370 . S
C2445 C2449 1.408 . S
C2446 C2444 1.363 . S
C2446 C2447 1.370 . S
C2446 C2450 1.524 . S
C2447 C2439 1.503 . S
C2447 C2446 1.370 . S
C2447 C2448 1.403 . S
C2448 C2447 1.403 . S
C2448 C2449 1.404 . S
C2448 C2451 1.539 . S
C2449 C2445 1.408 . S
C2449 C2448 1.404 . S
C2449 H2461 0.930 . S
C2450 C2446 1.524 . S
C2450 H2462 0.956 . S
C2450 H2463 0.961 . S
C2450 H2464 0.961 . S
C2451 C2448 1.539 . S
C2451 H2465 0.958 . S
C2451 H2466 0.961 . S
C2451 H2467 0.960 . S
H2452 C2436 0.931 . S
H2453 C2441 0.929 . S
H2454 C2442 0.960 . S
H2455 C2442 0.962 . S
H2456 C2442 0.960 . S
H2457 C2443 0.961 . S
H2458 C2443 0.961 . S
H2459 C2443 0.961 . S
H2460 C2444 0.931 . S
H2461 C2449 0.930 . S
H2462 C2450 0.956 . S
H2463 C2450 0.961 . S
H2464 C2450 0.961 . S
H2465 C2451 0.958 . S
H2466 C2451 0.961 . S
H2467 C2451 0.960 . S
C2468 C2469 1.391 . S
C2468 C2470 1.394 . S
C2468 H2484 0.931 . S
C2469 C2468 1.391 . S
C2469 C2473 1.376 . S
C2470 C2468 1.394 . S
C2470 C2471 1.369 . S
C2470 C2474 1.531 . S
C2471 C2470 1.369 . S
C2471 C2472 1.410 . S
C2471 C2479 1.503 . S
C2472 C2471 1.410 . S
C2472 C2473 1.392 . S
C2472 C2475 1.511 . S
C2473 C2469 1.376 . S
C2473 C2472 1.392 . S
C2473 H2485 0.929 . S
C2474 C2470 1.531 . S
C2474 H2486 0.960 . S
C2474 H2487 0.962 . S
C2474 H2488 0.960 . S
C2475 C2472 1.511 . S
C2475 H2489 0.961 . S
C2475 H2490 0.961 . S
C2475 H2491 0.961 . S
C2476 C2477 1.370 . S
C2476 C2478 1.363 . S
C2476 H2492 0.931 . S
C2477 C2476 1.370 . S
C2477 C2481 1.408 . S
C2478 C2476 1.363 . S
C2478 C2479 1.370 . S
C2478 C2482 1.524 . S
C2479 C2471 1.503 . S
C2479 C2478 1.370 . S
C2479 C2480 1.403 . S
C2480 C2479 1.403 . S
C2480 C2481 1.404 . S
C2480 C2483 1.539 . S
C2481 C2477 1.408 . S
C2481 C2480 1.404 . S
C2481 H2493 0.930 . S
C2482 C2478 1.524 . S
C2482 H2494 0.956 . S
C2482 H2495 0.961 . S
C2482 H2496 0.961 . S
C2483 C2480 1.539 . S
C2483 H2497 0.958 . S
C2483 H2498 0.961 . S
C2483 H2499 0.960 . S
H2484 C2468 0.931 . S
H2485 C2473 0.929 . S
H2486 C2474 0.960 . S
H2487 C2474 0.962 . S
H2488 C2474 0.960 . S
H2489 C2475 0.961 . S
H2490 C2475 0.961 . S
H2491 C2475 0.961 . S
H2492 C2476 0.931 . S
H2493 C2481 0.930 . S
H2494 C2482 0.956 . S
H2495 C2482 0.961 . S
H2496 C2482 0.961 . S
H2497 C2483 0.958 . S
H2498 C2483 0.961 . S
H2499 C2483 0.960 . S
C2500 C2501 1.391 . S
C2500 C2502 1.394 . S
C2500 H2516 0.931 . S
C2501 C2500 1.391 . S
C2501 C2505 1.376 . S
C2502 C2500 1.394 . S
C2502 C2503 1.369 . S
C2502 C2506 1.531 . S
C2503 C2502 1.369 . S
C2503 C2504 1.410 . S
C2503 C2511 1.503 . S
C2504 C2503 1.410 . S
C2504 C2505 1.392 . S
C2504 C2507 1.511 . S
C2505 C2501 1.376 . S
C2505 C2504 1.392 . S
C2505 H2517 0.929 . S
C2506 C2502 1.531 . S
C2506 H2518 0.960 . S
C2506 H2519 0.962 . S
C2506 H2520 0.960 . S
C2507 C2504 1.511 . S
C2507 H2521 0.961 . S
C2507 H2522 0.961 . S
C2507 H2523 0.961 . S
C2508 C2509 1.370 . S
C2508 C2510 1.363 . S
C2508 H2524 0.931 . S
C2509 C2508 1.370 . S
C2509 C2513 1.408 . S
C2510 C2508 1.363 . S
C2510 C2511 1.370 . S
C2510 C2514 1.524 . S
C2511 C2503 1.503 . S
C2511 C2510 1.370 . S
C2511 C2512 1.403 . S
C2512 C2511 1.403 . S
C2512 C2513 1.404 . S
C2512 C2515 1.539 . S
C2513 C2509 1.408 . S
C2513 C2512 1.404 . S
C2513 H2525 0.930 . S
C2514 C2510 1.524 . S
C2514 H2526 0.956 . S
C2514 H2527 0.961 . S
C2514 H2528 0.961 . S
C2515 C2512 1.539 . S
C2515 H2529 0.958 . S
C2515 H2530 0.961 . S
C2515 H2531 0.960 . S
H2516 C2500 0.931 . S
H2517 C2505 0.929 . S
H2518 C2506 0.960 . S
H2519 C2506 0.962 . S
H2520 C2506 0.960 . S
H2521 C2507 0.961 . S
H2522 C2507 0.961 . S
H2523 C2507 0.961 . S
H2524 C2508 0.931 . S
H2525 C2513 0.930 . S
H2526 C2514 0.956 . S
H2527 C2514 0.961 . S
H2528 C2514 0.961 . S
H2529 C2515 0.958 . S
H2530 C2515 0.961 . S
H2531 C2515 0.960 . S
C2532 C2533 1.391 . S
C2532 C2534 1.394 . S
C2532 H2548 0.931 . S
C2533 C2532 1.391 . S
C2533 C2537 1.376 . S
C2534 C2532 1.394 . S
C2534 C2535 1.369 . S
C2534 C2538 1.531 . S
C2535 C2534 1.369 . S
C2535 C2536 1.410 . S
C2535 C2543 1.503 . S
C2536 C2535 1.410 . S
C2536 C2537 1.392 . S
C2536 C2539 1.511 . S
C2537 C2533 1.376 . S
C2537 C2536 1.392 . S
C2537 H2549 0.929 . S
C2538 C2534 1.531 . S
C2538 H2550 0.960 . S
C2538 H2551 0.962 . S
C2538 H2552 0.960 . S
C2539 C2536 1.511 . S
C2539 H2553 0.961 . S
C2539 H2554 0.961 . S
C2539 H2555 0.961 . S
C2540 C2541 1.370 . S
C2540 C2542 1.363 . S
C2540 H2556 0.931 . S
C2541 C2540 1.370 . S
C2541 C2545 1.408 . S
C2542 C2540 1.363 . S
C2542 C2543 1.370 . S
C2542 C2546 1.524 . S
C2543 C2535 1.503 . S
C2543 C2542 1.370 . S
C2543 C2544 1.403 . S
C2544 C2543 1.403 . S
C2544 C2545 1.404 . S
C2544 C2547 1.539 . S
C2545 C2541 1.408 . S
C2545 C2544 1.404 . S
C2545 H2557 0.930 . S
C2546 C2542 1.524 . S
C2546 H2558 0.956 . S
C2546 H2559 0.961 . S
C2546 H2560 0.961 . S
C2547 C2544 1.539 . S
C2547 H2561 0.958 . S
C2547 H2562 0.961 . S
C2547 H2563 0.960 . S
H2548 C2532 0.931 . S
H2549 C2537 0.929 . S
H2550 C2538 0.960 . S
H2551 C2538 0.962 . S
H2552 C2538 0.960 . S
H2553 C2539 0.961 . S
H2554 C2539 0.961 . S
H2555 C2539 0.961 . S
H2556 C2540 0.931 . S
H2557 C2545 0.930 . S
H2558 C2546 0.956 . S
H2559 C2546 0.961 . S
H2560 C2546 0.961 . S
H2561 C2547 0.958 . S
H2562 C2547 0.961 . S
H2563 C2547 0.960 . S
C2564 C2565 1.391 . S
C2564 C2566 1.394 . S
C2564 H2580 0.931 . S
C2565 C2564 1.391 . S
C2565 C2569 1.376 . S
C2566 C2564 1.394 . S
C2566 C2567 1.369 . S
C2566 C2570 1.531 . S
C2567 C2566 1.369 . S
C2567 C2568 1.410 . S
C2567 C2575 1.503 . S
C2568 C2567 1.410 . S
C2568 C2569 1.392 . S
C2568 C2571 1.511 . S
C2569 C2565 1.376 . S
C2569 C2568 1.392 . S
C2569 H2581 0.929 . S
C2570 C2566 1.531 . S
C2570 H2582 0.960 . S
C2570 H2583 0.962 . S
C2570 H2584 0.960 . S
C2571 C2568 1.511 . S
C2571 H2585 0.961 . S
C2571 H2586 0.961 . S
C2571 H2587 0.961 . S
C2572 C2573 1.370 . S
C2572 C2574 1.363 . S
C2572 H2588 0.931 . S
C2573 C2572 1.370 . S
C2573 C2577 1.408 . S
C2574 C2572 1.363 . S
C2574 C2575 1.370 . S
C2574 C2578 1.524 . S
C2575 C2567 1.503 . S
C2575 C2574 1.370 . S
C2575 C2576 1.403 . S
C2576 C2575 1.403 . S
C2576 C2577 1.404 . S
C2576 C2579 1.539 . S
C2577 C2573 1.408 . S
C2577 C2576 1.404 . S
C2577 H2589 0.930 . S
C2578 C2574 1.524 . S
C2578 H2590 0.956 . S
C2578 H2591 0.961 . S
C2578 H2592 0.961 . S
C2579 C2576 1.539 . S
C2579 H2593 0.958 . S
C2579 H2594 0.961 . S
C2579 H2595 0.960 . S
H2580 C2564 0.931 . S
H2581 C2569 0.929 . S
H2582 C2570 0.960 . S
H2583 C2570 0.962 . S
H2584 C2570 0.960 . S
H2585 C2571 0.961 . S
H2586 C2571 0.961 . S
H2587 C2571 0.961 . S
H2588 C2572 0.931 . S
H2589 C2577 0.930 . S
H2590 C2578 0.956 . S
H2591 C2578 0.961 . S
H2592 C2578 0.961 . S
H2593 C2579 0.958 . S
H2594 C2579 0.961 . S
H2595 C2579 0.960 . S
C2596 C2597 1.391 . S
C2596 C2598 1.394 . S
C2596 H2612 0.931 . S
C2597 C2596 1.391 . S
C2597 C2601 1.376 . S
C2598 C2596 1.394 . S
C2598 C2599 1.369 . S
C2598 C2602 1.531 . S
C2599 C2598 1.369 . S
C2599 C2600 1.410 . S
C2599 C2607 1.503 . S
C2600 C2599 1.410 . S
C2600 C2601 1.392 . S
C2600 C2603 1.511 . S
C2601 C2597 1.376 . S
C2601 C2600 1.392 . S
C2601 H2613 0.929 . S
C2602 C2598 1.531 . S
C2602 H2614 0.960 . S
C2602 H2615 0.962 . S
C2602 H2616 0.960 . S
C2603 C2600 1.511 . S
C2603 H2617 0.961 . S
C2603 H2618 0.961 . S
C2603 H2619 0.961 . S
C2604 C2605 1.370 . S
C2604 C2606 1.363 . S
C2604 H2620 0.931 . S
C2605 C2604 1.370 . S
C2605 C2609 1.408 . S
C2606 C2604 1.363 . S
C2606 C2607 1.370 . S
C2606 C2610 1.524 . S
C2607 C2599 1.503 . S
C2607 C2606 1.370 . S
C2607 C2608 1.403 . S
C2608 C2607 1.403 . S
C2608 C2609 1.404 . S
C2608 C2611 1.539 . S
C2609 C2605 1.408 . S
C2609 C2608 1.404 . S
C2609 H2621 0.930 . S
C2610 C2606 1.524 . S
C2610 H2622 0.956 . S
C2610 H2623 0.961 . S
C2610 H2624 0.961 . S
C2611 C2608 1.539 . S
C2611 H2625 0.958 . S
C2611 H2626 0.961 . S
C2611 H2627 0.960 . S
H2612 C2596 0.931 . S
H2613 C2601 0.929 . S
H2614 C2602 0.960 . S
H2615 C2602 0.962 . S
H2616 C2602 0.960 . S
H2617 C2603 0.961 . S
H2618 C2603 0.961 . S
H2619 C2603 0.961 . S
H2620 C2604 0.931 . S
H2621 C2609 0.930 . S
H2622 C2610 0.956 . S
H2623 C2610 0.961 . S
H2624 C2610 0.961 . S
H2625 C2611 0.958 . S
H2626 C2611 0.961 . S
H2627 C2611 0.960 . S
C2628 C2629 1.391 . S
C2628 C2630 1.394 . S
C2628 H2644 0.931 . S
C2629 C2628 1.391 . S
C2629 C2633 1.376 . S
C2630 C2628 1.394 . S
C2630 C2631 1.369 . S
C2630 C2634 1.531 . S
C2631 C2630 1.369 . S
C2631 C2632 1.410 . S
C2631 C2639 1.503 . S
C2632 C2631 1.410 . S
C2632 C2633 1.392 . S
C2632 C2635 1.511 . S
C2633 C2629 1.376 . S
C2633 C2632 1.392 . S
C2633 H2645 0.929 . S
C2634 C2630 1.531 . S
C2634 H2646 0.960 . S
C2634 H2647 0.962 . S
C2634 H2648 0.960 . S
C2635 C2632 1.511 . S
C2635 H2649 0.961 . S
C2635 H2650 0.961 . S
C2635 H2651 0.961 . S
C2636 C2637 1.370 . S
C2636 C2638 1.363 . S
C2636 H2652 0.931 . S
C2637 C2636 1.370 . S
C2637 C2641 1.408 . S
C2638 C2636 1.363 . S
C2638 C2639 1.370 . S
C2638 C2642 1.524 . S
C2639 C2631 1.503 . S
C2639 C2638 1.370 . S
C2639 C2640 1.403 . S
C2640 C2639 1.403 . S
C2640 C2641 1.404 . S
C2640 C2643 1.539 . S
C2641 C2637 1.408 . S
C2641 C2640 1.404 . S
C2641 H2653 0.930 . S
C2642 C2638 1.524 . S
C2642 H2654 0.956 . S
C2642 H2655 0.961 . S
C2642 H2656 0.961 . S
C2643 C2640 1.539 . S
C2643 H2657 0.958 . S
C2643 H2658 0.961 . S
C2643 H2659 0.960 . S
H2644 C2628 0.931 . S
H2645 C2633 0.929 . S
H2646 C2634 0.960 . S
H2647 C2634 0.962 . S
H2648 C2634 0.960 . S
H2649 C2635 0.961 . S
H2650 C2635 0.961 . S
H2651 C2635 0.961 . S
H2652 C2636 0.931 . S
H2653 C2641 0.930 . S
H2654 C2642 0.956 . S
H2655 C2642 0.961 . S
H2656 C2642 0.961 . S
H2657 C2643 0.958 . S
H2658 C2643 0.961 . S
H2659 C2643 0.960 . S
C2660 C2661 1.391 . S
C2660 C2662 1.394 . S
C2660 H2676 0.931 . S
C2661 C2660 1.391 . S
C2661 C2665 1.376 . S
C2662 C2660 1.394 . S
C2662 C2663 1.369 . S
C2662 C2666 1.531 . S
C2663 C2662 1.369 . S
C2663 C2664 1.410 . S
C2663 C2671 1.503 . S
C2664 C2663 1.410 . S
C2664 C2665 1.392 . S
C2664 C2667 1.511 . S
C2665 C2661 1.376 . S
C2665 C2664 1.392 . S
C2665 H2677 0.929 . S
C2666 C2662 1.531 . S
C2666 H2678 0.960 . S
C2666 H2679 0.962 . S
C2666 H2680 0.960 . S
C2667 C2664 1.511 . S
C2667 H2681 0.961 . S
C2667 H2682 0.961 . S
C2667 H2683 0.961 . S
C2668 C2669 1.370 . S
C2668 C2670 1.363 . S
C2668 H2684 0.931 . S
C2669 C2668 1.370 . S
C2669 C2673 1.408 . S
C2670 C2668 1.363 . S
C2670 C2671 1.370 . S
C2670 C2674 1.524 . S
C2671 C2663 1.503 . S
C2671 C2670 1.370 . S
C2671 C2672 1.403 . S
C2672 C2671 1.403 . S
C2672 C2673 1.404 . S
C2672 C2675 1.539 . S
C2673 C2669 1.408 . S
C2673 C2672 1.404 . S
C2673 H2685 0.930 . S
C2674 C2670 1.524 . S
C2674 H2686 0.956 . S
C2674 H2687 0.961 . S
C2674 H2688 0.961 . S
C2675 C2672 1.539 . S
C2675 H2689 0.958 . S
C2675 H2690 0.961 . S
C2675 H2691 0.960 . S
H2676 C2660 0.931 . S
H2677 C2665 0.929 . S
H2678 C2666 0.960 . S
H2679 C2666 0.962 . S
H2680 C2666 0.960 . S
H2681 C2667 0.961 . S
H2682 C2667 0.961 . S
H2683 C2667 0.961 . S
H2684 C2668 0.931 . S
H2685 C2673 0.930 . S
H2686 C2674 0.956 . S
H2687 C2674 0.961 . S
H2688 C2674 0.961 . S
H2689 C2675 0.958 . S
H2690 C2675 0.961 . S
H2691 C2675 0.960 . S
C2692 C2693 1.391 . S
C2692 C2694 1.394 . S
C2692 H2708 0.931 . S
C2693 C2692 1.391 . S
C2693 C2697 1.376 . S
C2694 C2692 1.394 . S
C2694 C2695 1.369 . S
C2694 C2698 1.531 . S
C2695 C2694 1.369 . S
C2695 C2696 1.410 . S
C2695 C2703 1.503 . S
C2696 C2695 1.410 . S
C2696 C2697 1.392 . S
C2696 C2699 1.511 . S
C2697 C2693 1.376 . S
C2697 C2696 1.392 . S
C2697 H2709 0.929 . S
C2698 C2694 1.531 . S
C2698 H2710 0.960 . S
C2698 H2711 0.962 . S
C2698 H2712 0.960 . S
C2699 C2696 1.511 . S
C2699 H2713 0.961 . S
C2699 H2714 0.961 . S
C2699 H2715 0.961 . S
C2700 C2701 1.370 . S
C2700 C2702 1.363 . S
C2700 H2716 0.931 . S
C2701 C2700 1.370 . S
C2701 C2705 1.408 . S
C2702 C2700 1.363 . S
C2702 C2703 1.370 . S
C2702 C2706 1.524 . S
C2703 C2695 1.503 . S
C2703 C2702 1.370 . S
C2703 C2704 1.403 . S
C2704 C2703 1.403 . S
C2704 C2705 1.404 . S
C2704 C2707 1.539 . S
C2705 C2701 1.408 . S
C2705 C2704 1.404 . S
C2705 H2717 0.930 . S
C2706 C2702 1.524 . S
C2706 H2718 0.956 . S
C2706 H2719 0.961 . S
C2706 H2720 0.961 . S
C2707 C2704 1.539 . S
C2707 H2721 0.958 . S
C2707 H2722 0.961 . S
C2707 H2723 0.960 . S
H2708 C2692 0.931 . S
H2709 C2697 0.929 . S
H2710 C2698 0.960 . S
H2711 C2698 0.962 . S
H2712 C2698 0.960 . S
H2713 C2699 0.961 . S
H2714 C2699 0.961 . S
H2715 C2699 0.961 . S
H2716 C2700 0.931 . S
H2717 C2705 0.930 . S
H2718 C2706 0.956 . S
H2719 C2706 0.961 . S
H2720 C2706 0.961 . S
H2721 C2707 0.958 . S
H2722 C2707 0.961 . S
H2723 C2707 0.960 . S
C2724 C2725 1.391 . S
C2724 C2726 1.394 . S
C2724 H2740 0.931 . S
C2725 C2724 1.391 . S
C2725 C2729 1.376 . S
C2726 C2724 1.394 . S
C2726 C2727 1.369 . S
C2726 C2730 1.531 . S
C2727 C2726 1.369 . S
C2727 C2728 1.410 . S
C2727 C2735 1.503 . S
C2728 C2727 1.410 . S
C2728 C2729 1.392 . S
C2728 C2731 1.511 . S
C2729 C2725 1.376 . S
C2729 C2728 1.392 . S
C2729 H2741 0.929 . S
C2730 C2726 1.531 . S
C2730 H2742 0.960 . S
C2730 H2743 0.962 . S
C2730 H2744 0.960 . S
C2731 C2728 1.511 . S
C2731 H2745 0.961 . S
C2731 H2746 0.961 . S
C2731 H2747 0.961 . S
C2732 C2733 1.370 . S
C2732 C2734 1.363 . S
C2732 H2748 0.931 . S
C2733 C2732 1.370 . S
C2733 C2737 1.408 . S
C2734 C2732 1.363 . S
C2734 C2735 1.370 . S
C2734 C2738 1.524 . S
C2735 C2727 1.503 . S
C2735 C2734 1.370 . S
C2735 C2736 1.403 . S
C2736 C2735 1.403 . S
C2736 C2737 1.404 . S
C2736 C2739 1.539 . S
C2737 C2733 1.408 . S
C2737 C2736 1.404 . S
C2737 H2749 0.930 . S
C2738 C2734 1.524 . S
C2738 H2750 0.956 . S
C2738 H2751 0.961 . S
C2738 H2752 0.961 . S
C2739 C2736 1.539 . S
C2739 H2753 0.958 . S
C2739 H2754 0.961 . S
C2739 H2755 0.960 . S
H2740 C2724 0.931 . S
H2741 C2729 0.929 . S
H2742 C2730 0.960 . S
H2743 C2730 0.962 . S
H2744 C2730 0.960 . S
H2745 C2731 0.961 . S
H2746 C2731 0.961 . S
H2747 C2731 0.961 . S
H2748 C2732 0.931 . S
H2749 C2737 0.930 . S
H2750 C2738 0.956 . S
H2751 C2738 0.961 . S
H2752 C2738 0.961 . S
H2753 C2739 0.958 . S
H2754 C2739 0.961 . S
H2755 C2739 0.960 . S
C2756 C2757 1.391 . S
C2756 C2758 1.394 . S
C2756 H2772 0.931 . S
C2757 C2756 1.391 . S
C2757 C2761 1.376 . S
C2758 C2756 1.394 . S
C2758 C2759 1.369 . S
C2758 C2762 1.531 . S
C2759 C2758 1.369 . S
C2759 C2760 1.410 . S
C2759 C2767 1.503 . S
C2760 C2759 1.410 . S
C2760 C2761 1.392 . S
C2760 C2763 1.511 . S
C2761 C2757 1.376 . S
C2761 C2760 1.392 . S
C2761 H2773 0.929 . S
C2762 C2758 1.531 . S
C2762 H2774 0.960 . S
C2762 H2775 0.962 . S
C2762 H2776 0.960 . S
C2763 C2760 1.511 . S
C2763 H2777 0.961 . S
C2763 H2778 0.961 . S
C2763 H2779 0.961 . S
C2764 C2765 1.370 . S
C2764 C2766 1.363 . S
C2764 H2780 0.931 . S
C2765 C2764 1.370 . S
C2765 C2769 1.408 . S
C2766 C2764 1.363 . S
C2766 C2767 1.370 . S
C2766 C2770 1.524 . S
C2767 C2759 1.503 . S
C2767 C2766 1.370 . S
C2767 C2768 1.403 . S
C2768 C2767 1.403 . S
C2768 C2769 1.404 . S
C2768 C2771 1.539 . S
C2769 C2765 1.408 . S
C2769 C2768 1.404 . S
C2769 H2781 0.930 . S
C2770 C2766 1.524 . S
C2770 H2782 0.956 . S
C2770 H2783 0.961 . S
C2770 H2784 0.961 . S
C2771 C2768 1.539 . S
C2771 H2785 0.958 . S
C2771 H2786 0.961 . S
C2771 H2787 0.960 . S
H2772 C2756 0.931 . S
H2773 C2761 0.929 . S
H2774 C2762 0.960 . S
H2775 C2762 0.962 . S
H2776 C2762 0.960 . S
H2777 C2763 0.961 . S
H2778 C2763 0.961 . S
H2779 C2763 0.961 . S
H2780 C2764 0.931 . S
H2781 C2769 0.930 . S
H2782 C2770 0.956 . S
H2783 C2770 0.961 . S
H2784 C2770 0.961 . S
H2785 C2771 0.958 . S
H2786 C2771 0.961 . S
H2787 C2771 0.960 . S
C2788 C2789 1.391 . S
C2788 C2790 1.394 . S
C2788 H2804 0.931 . S
C2789 C2788 1.391 . S
C2789 C2793 1.376 . S
C2790 C2788 1.394 . S
C2790 C2791 1.369 . S
C2790 C2794 1.531 . S
C2791 C2790 1.369 . S
C2791 C2792 1.410 . S
C2791 C2799 1.503 . S
C2792 C2791 1.410 . S
C2792 C2793 1.392 . S
C2792 C2795 1.511 . S
C2793 C2789 1.376 . S
C2793 C2792 1.392 . S
C2793 H2805 0.929 . S
C2794 C2790 1.531 . S
C2794 H2806 0.960 . S
C2794 H2807 0.962 . S
C2794 H2808 0.960 . S
C2795 C2792 1.511 . S
C2795 H2809 0.961 . S
C2795 H2810 0.961 . S
C2795 H2811 0.961 . S
C2796 C2797 1.370 . S
C2796 C2798 1.363 . S
C2796 H2812 0.931 . S
C2797 C2796 1.370 . S
C2797 C2801 1.408 . S
C2798 C2796 1.363 . S
C2798 C2799 1.370 . S
C2798 C2802 1.524 . S
C2799 C2791 1.503 . S
C2799 C2798 1.370 . S
C2799 C2800 1.403 . S
C2800 C2799 1.403 . S
C2800 C2801 1.404 . S
C2800 C2803 1.539 . S
C2801 C2797 1.408 . S
C2801 C2800 1.404 . S
C2801 H2813 0.930 . S
C2802 C2798 1.524 . S
C2802 H2814 0.956 . S
C2802 H2815 0.961 . S
C2802 H2816 0.961 . S
C2803 C2800 1.539 . S
C2803 H2817 0.958 . S
C2803 H2818 0.961 . S
C2803 H2819 0.960 . S
H2804 C2788 0.931 . S
H2805 C2793 0.929 . S
H2806 C2794 0.960 . S
H2807 C2794 0.962 . S
H2808 C2794 0.960 . S
H2809 C2795 0.961 . S
H2810 C2795 0.961 . S
H2811 C2795 0.961 . S
H2812 C2796 0.931 . S
H2813 C2801 0.930 . S
H2814 C2802 0.956 . S
H2815 C2802 0.961 . S
H2816 C2802 0.961 . S
H2817 C2803 0.958 . S
H2818 C2803 0.961 . S
H2819 C2803 0.960 . S
C2820 C2821 1.391 . S
C2820 C2822 1.394 . S
C2820 H2836 0.931 . S
C2821 C2820 1.391 . S
C2821 C2825 1.376 . S
C2822 C2820 1.394 . S
C2822 C2823 1.369 . S
C2822 C2826 1.531 . S
C2823 C2822 1.369 . S
C2823 C2824 1.410 . S
C2823 C2831 1.503 . S
C2824 C2823 1.410 . S
C2824 C2825 1.392 . S
C2824 C2827 1.511 . S
C2825 C2821 1.376 . S
C2825 C2824 1.392 . S
C2825 H2837 0.929 . S
C2826 C2822 1.531 . S
C2826 H2838 0.960 . S
C2826 H2839 0.962 . S
C2826 H2840 0.960 . S
C2827 C2824 1.511 . S
C2827 H2841 0.961 . S
C2827 H2842 0.961 . S
C2827 H2843 0.961 . S
C2828 C2829 1.370 . S
C2828 C2830 1.363 . S
C2828 H2844 0.931 . S
C2829 C2828 1.370 . S
C2829 C2833 1.408 . S
C2830 C2828 1.363 . S
C2830 C2831 1.370 . S
C2830 C2834 1.524 . S
C2831 C2823 1.503 . S
C2831 C2830 1.370 . S
C2831 C2832 1.403 . S
C2832 C2831 1.403 . S
C2832 C2833 1.404 . S
C2832 C2835 1.539 . S
C2833 C2829 1.408 . S
C2833 C2832 1.404 . S
C2833 H2845 0.930 . S
C2834 C2830 1.524 . S
C2834 H2846 0.956 . S
C2834 H2847 0.961 . S
C2834 H2848 0.961 . S
C2835 C2832 1.539 . S
C2835 H2849 0.958 . S
C2835 H2850 0.961 . S
C2835 H2851 0.960 . S
H2836 C2820 0.931 . S
H2837 C2825 0.929 . S
H2838 C2826 0.960 . S
H2839 C2826 0.962 . S
H2840 C2826 0.960 . S
H2841 C2827 0.961 . S
H2842 C2827 0.961 . S
H2843 C2827 0.961 . S
H2844 C2828 0.931 . S
H2845 C2833 0.930 . S
H2846 C2834 0.956 . S
H2847 C2834 0.961 . S
H2848 C2834 0.961 . S
H2849 C2835 0.958 . S
H2850 C2835 0.961 . S
H2851 C2835 0.960 . S
C2852 C2853 1.391 . S
C2852 C2854 1.394 . S
C2852 H2868 0.931 . S
C2853 C2852 1.391 . S
C2853 C2857 1.376 . S
C2854 C2852 1.394 . S
C2854 C2855 1.369 . S
C2854 C2858 1.531 . S
C2855 C2854 1.369 . S
C2855 C2856 1.410 . S
C2855 C2863 1.503 . S
C2856 C2855 1.410 . S
C2856 C2857 1.392 . S
C2856 C2859 1.511 . S
C2857 C2853 1.376 . S
C2857 C2856 1.392 . S
C2857 H2869 0.929 . S
C2858 C2854 1.531 . S
C2858 H2870 0.960 . S
C2858 H2871 0.962 . S
C2858 H2872 0.960 . S
C2859 C2856 1.511 . S
C2859 H2873 0.961 . S
C2859 H2874 0.961 . S
C2859 H2875 0.961 . S
C2860 C2861 1.370 . S
C2860 C2862 1.363 . S
C2860 H2876 0.931 . S
C2861 C2860 1.370 . S
C2861 C2865 1.408 . S
C2862 C2860 1.363 . S
C2862 C2863 1.370 . S
C2862 C2866 1.524 . S
C2863 C2855 1.503 . S
C2863 C2862 1.370 . S
C2863 C2864 1.403 . S
C2864 C2863 1.403 . S
C2864 C2865 1.404 . S
C2864 C2867 1.539 . S
C2865 C2861 1.408 . S
C2865 C2864 1.404 . S
C2865 H2877 0.930 . S
C2866 C2862 1.524 . S
C2866 H2878 0.956 . S
C2866 H2879 0.961 . S
C2866 H2880 0.961 . S
C2867 C2864 1.539 . S
C2867 H2881 0.958 . S
C2867 H2882 0.961 . S
C2867 H2883 0.960 . S
H2868 C2852 0.931 . S
H2869 C2857 0.929 . S
H2870 C2858 0.960 . S
H2871 C2858 0.962 . S
H2872 C2858 0.960 . S
H2873 C2859 0.961 . S
H2874 C2859 0.961 . S
H2875 C2859 0.961 . S
H2876 C2860 0.931 . S
H2877 C2865 0.930 . S
H2878 C2866 0.956 . S
H2879 C2866 0.961 . S
H2880 C2866 0.961 . S
H2881 C2867 0.958 . S
H2882 C2867 0.961 . S
H2883 C2867 0.960 . S
C2884 C2885 1.391 . S
C2884 C2886 1.394 . S
C2884 H2900 0.931 . S
C2885 C2884 1.391 . S
C2885 C2889 1.376 . S
C2886 C2884 1.394 . S
C2886 C2887 1.369 . S
C2886 C2890 1.531 . S
C2887 C2886 1.369 . S
C2887 C2888 1.410 . S
C2887 C2895 1.503 . S
C2888 C2887 1.410 . S
C2888 C2889 1.392 . S
C2888 C2891 1.511 . S
C2889 C2885 1.376 . S
C2889 C2888 1.392 . S
C2889 H2901 0.929 . S
C2890 C2886 1.531 . S
C2890 H2902 0.960 . S
C2890 H2903 0.962 . S
C2890 H2904 0.960 . S
C2891 C2888 1.511 . S
C2891 H2905 0.961 . S
C2891 H2906 0.961 . S
C2891 H2907 0.961 . S
C2892 C2893 1.370 . S
C2892 C2894 1.363 . S
C2892 H2908 0.931 . S
C2893 C2892 1.370 . S
C2893 C2897 1.408 . S
C2894 C2892 1.363 . S
C2894 C2895 1.370 . S
C2894 C2898 1.524 . S
C2895 C2887 1.503 . S
C2895 C2894 1.370 . S
C2895 C2896 1.403 . S
C2896 C2895 1.403 . S
C2896 C2897 1.404 . S
C2896 C2899 1.539 . S
C2897 C2893 1.408 . S
C2897 C2896 1.404 . S
C2897 H2909 0.930 . S
C2898 C2894 1.524 . S
C2898 H2910 0.956 . S
C2898 H2911 0.961 . S
C2898 H2912 0.961 . S
C2899 C2896 1.539 . S
C2899 H2913 0.958 . S
C2899 H2914 0.961 . S
C2899 H2915 0.960 . S
H2900 C2884 0.931 . S
H2901 C2889 0.929 . S
H2902 C2890 0.960 . S
H2903 C2890 0.962 . S
H2904 C2890 0.960 . S
H2905 C2891 0.961 . S
H2906 C2891 0.961 . S
H2907 C2891 0.961 . S
H2908 C2892 0.931 . S
H2909 C2897 0.930 . S
H2910 C2898 0.956 . S
H2911 C2898 0.961 . S
H2912 C2898 0.961 . S
H2913 C2899 0.958 . S
H2914 C2899 0.961 . S
H2915 C2899 0.960 . S
C621 C318 1.574 . S
C613 C308 1.571 . S
C645 C282 1.374 . S
C653 C316 1.385 . S
C685 C317 1.385 . S
C677 C269 1.374 . S
C709 C295 1.572 . S
C717 C319 1.576 . S
C749 C363 1.522 . S
C741 C217 1.520 . S
C781 C423 1.529 . S
C773 C230 1.524 . S
C805 C243 1.526 . S
C813 C362 1.528 . S
C845 C422 1.347 . S
C837 C256 1.339 . S
C869 C165 1.516 . S
C877 C364 1.521 . S
C909 C420 1.347 . S
C901 C178 1.345 . S
C933 C191 1.526 . S
C941 C365 1.530 . S
C965 C204 1.524 . S
C973 C421 1.530 . S
C1005 C471 1.575 . S
C997 C152 1.572 . S
C1029 C126 1.380 . S
C1037 C470 1.385 . S
C1061 C113 1.384 1_556 S
C1069 C472 1.384 1_556 S
C1101 C473 1.574 . S
C1093 C139 1.571 1_554 S
C1125 C61 1.520 . S
C1133 C514 1.522 . S
C1157 C74 1.527 . S
C1165 C573 1.530 1_565 S
C1189 C87 1.526 . S
C1197 C512 1.529 . S
C1221 C100 1.340 . S
C1229 C572 1.346 1_565 S
C1261 C513 1.521 . S
C1253 C9 1.515 . S
C1293 C570 1.347 1_565 S
C1285 C22 1.345 1_565 S
C1317 C35 1.524 . S
C1325 C515 1.528 . S
C1357 C571 1.530 . S
C1349 C48 1.528 . S
C1389 C315 1.490 . S
C1381 C4 1.340 . S
C1413 C21 1.414 1_565 S
C1421 C321 1.447 1_565 S
C1445 C34 1.705 . S
C1453 C313 1.749 . S
C1477 C43 1.147 . S
C1485 C320 1.348 . S
C1509 C56 1.223 . S
C1517 C312 1.494 . S
C1549 C322 1.350 . S
C1541 C69 1.142 1_545 S
C1573 C86 1.724 . S
C1581 C314 1.751 . S
C1613 C323 1.450 . S
C1605 C99 1.370 . S
C1645 C369 1.631 . S
C1637 C47 1.610 1_565 S
C1669 C8 1.626 . S
C1677 C412 1.692 . S
C1709 C367 1.284 . S
C1701 C17 1.166 . S
C1741 C414 1.447 . S
C1733 C30 1.177 . S
C1765 C73 1.578 . S
C1773 C368 1.630 1_565 S
C1805 C413 1.444 . S
C1797 C82 1.299 . S
C1837 C366 1.290 1_565 S
C1829 C95 1.041 . S
C1869 C415 1.692 . S
C1861 C60 1.631 . S
C1901 C419 1.472 1_556 S
C1893 C112 1.430 1_556 S
C1925 C125 1.400 . S
C1933 C418 1.475 . S
C1965 C370 1.427 . S
C1957 C108 1.278 . S
C1997 C417 1.678 1_556 S
C1989 C138 1.642 . S
C2021 C147 1.292 . S
C2029 C373 1.446 . S
C2053 C151 1.617 . S
C2061 C416 1.679 . S
C2093 C372 1.429 1_556 S
C2085 C121 1.182 . S
C2125 C371 1.447 1_556 S
C2117 C134 1.234 . S
C2157 C465 1.491 . S
C2149 C160 1.313 . S
C2189 C468 1.446 . S
C2181 C177 1.430 . S
C2213 C190 1.731 . S
C2221 C464 1.751 . S
C2253 C466 1.349 . S
C2245 C199 1.179 . S
C2285 C462 1.494 . S
C2277 C212 1.224 . S
C2309 C225 1.196 . S
C2317 C467 1.348 . S
C2341 C242 1.693 . S
C2349 C463 1.749 . S
C2381 C469 1.449 . S
C2373 C255 1.400 . S
C2413 C523 1.631 . S
C2405 C203 1.603 . S
C2437 C164 1.625 . S
C2445 C562 1.691 . S
C2477 C522 1.290 . S
C2469 C173 1.039 . S
C2509 C564 1.445 . S
C2501 C186 1.216 . S
C2541 C521 1.631 . S
C2533 C229 1.613 . S
C2565 C238 1.217 . S
C2573 C563 1.449 . S
C2605 C520 1.287 . S
C2597 C251 1.133 . S
C2637 C565 1.690 . S
C2629 C216 1.663 . S
C2669 C569 1.474 . S
C2661 C268 1.401 . S
C2693 C281 1.395 . S
C2701 C568 1.475 . S
C2733 C516 1.430 . S
C2725 C264 1.209 . S
C2757 C294 1.641 . S
C2765 C567 1.679 . S
C2797 C519 1.447 . S
C2789 C303 1.274 . S
C2829 C566 1.679 . S
C2821 C307 1.655 . S
C2861 C517 1.427 . S
C2853 C277 1.273 . S
C2885 C290 1.264 . S
C2893 C518 1.447 . S
