# Generated by pormake.
# Topology anh, (6,3)-cn, num edge types: 1
# Building blocks:
#     Node 0, Type 0, BuildingBlock: BETGAK_clean_sbu_0, # of connection points: 6
#     Node 1, Type 0, BuildingBlock: BETGAK_clean_sbu_0, # of connection points: 6
#     Node 2, Type 0, BuildingBlock: BETGAK_clean_sbu_0, # of connection points: 6
#     Node 3, Type 1, BuildingBlock: KAKCAD_clean_linker_0, # of connection points: 3
#     Node 4, Type 1, BuildingBlock: KAKCAD_clean_linker_0, # of connection points: 3
#     Node 5, Type 1, BuildingBlock: KAKCAD_clean_linker_0, # of connection points: 3
#     Node 6, Type 1, BuildingBlock: KAKCAD_clean_linker_0, # of connection points: 3
#     Node 7, Type 1, BuildingBlock: KAKCAD_clean_linker_0, # of connection points: 3
#     Node 8, Type 1, BuildingBlock: KAKCAD_clean_linker_0, # of connection points: 3
#     Edge 9, Type (0, 1), BuildingBlock: ZUJKAS_clean_linker_0, # of connection points: 2
#     Edge 10, Type (0, 1), BuildingBlock: ZUJKAS_clean_linker_0, # of connection points: 2
#     Edge 11, Type (0, 1), BuildingBlock: ZUJKAS_clean_linker_0, # of connection points: 2
#     Edge 12, Type (0, 1), BuildingBlock: ZUJKAS_clean_linker_0, # of connection points: 2
#     Edge 13, Type (0, 1), BuildingBlock: ZUJKAS_clean_linker_0, # of connection points: 2
#     Edge 14, Type (0, 1), BuildingBlock: ZUJKAS_clean_linker_0, # of connection points: 2
#     Edge 15, Type (0, 1), BuildingBlock: ZUJKAS_clean_linker_0, # of connection points: 2
#     Edge 16, Type (0, 1), BuildingBlock: ZUJKAS_clean_linker_0, # of connection points: 2
#     Edge 17, Type (0, 1), BuildingBlock: ZUJKAS_clean_linker_0, # of connection points: 2
#     Edge 18, Type (0, 1), BuildingBlock: ZUJKAS_clean_linker_0, # of connection points: 2
#     Edge 19, Type (0, 1), BuildingBlock: ZUJKAS_clean_linker_0, # of connection points: 2
#     Edge 20, Type (0, 1), BuildingBlock: ZUJKAS_clean_linker_0, # of connection points: 2
#     Edge 21, Type (0, 1), BuildingBlock: ZUJKAS_clean_linker_0, # of connection points: 2
#     Edge 22, Type (0, 1), BuildingBlock: ZUJKAS_clean_linker_0, # of connection points: 2
#     Edge 23, Type (0, 1), BuildingBlock: ZUJKAS_clean_linker_0, # of connection points: 2
#     Edge 24, Type (0, 1), BuildingBlock: ZUJKAS_clean_linker_0, # of connection points: 2
#     Edge 25, Type (0, 1), BuildingBlock: ZUJKAS_clean_linker_0, # of connection points: 2
#     Edge 26, Type (0, 1), BuildingBlock: ZUJKAS_clean_linker_0, # of connection points: 2
# Relax obj value: 0.165
# Max RMSD: 0.197
# Mean RMSD: 0.149
data_MOF--net-anh--node1-BETGAK_clean_sbu_0--node2-KAKCAD_clean_linker_0--edge1-ZUJKAS_clean_linker_0
_symmetry_space_group_name_H-M    P1
_symmetry_Int_Tables_number       1
_symmetry_cell_setting            triclinic
loop_
_symmetry_equiv_pos_as_xyz
'x, y, z'
_cell_length_a     45.988195
_cell_length_b     52.353137
_cell_length_c     82.512115
_cell_angle_alpha  92.421884
_cell_angle_beta   89.301331
_cell_angle_gamma 127.0177
loop_
_atom_site_label
_atom_site_type_symbol
_atom_site_fract_x
_atom_site_fract_y
_atom_site_fract_z
_atom_type_partial_charge
La0 La 0.09852 0.53365 0.14999 0.0
La1 La 0.05625 0.55625 0.16227 0.0
C2 C 0.14301 0.52839 0.1354 0.0
C3 C 0.18087 0.54283 0.13973 0.0
C4 C 0.19628 0.56219 0.15401 0.0
C5 C 0.23003 0.57179 0.15975 0.0
C6 C 0.24884 0.56219 0.15127 0.0
C7 C 0.23426 0.54443 0.13643 0.0
C8 C 0.20039 0.53472 0.13074 0.0
C9 C 0.09116 0.53276 0.18163 0.0
C10 C 0.13834 0.60918 0.15843 0.0
C11 C 1.00943 0.55703 0.17765 0.0
C12 C 0.97084 0.52979 0.1792 0.0
C13 C 0.95328 0.50633 0.16653 0.0
C14 C 0.91818 0.47849 0.1684 0.0
C15 C 0.89944 0.47359 0.18289 0.0
C16 C 0.91702 0.49711 0.19561 0.0
C17 C 0.95259 0.52496 0.1938 0.0
C18 C 0.06368 0.55661 0.13048 0.0
C19 C 1.01716 0.48156 0.1547 0.0
O20 O 0.11935 0.50785 0.14571 0.0
O21 O 0.13644 0.54839 0.13135 0.0
O22 O 0.09278 0.51234 0.17318 0.0
O23 O 0.09669 0.55397 0.17263 0.0
O24 O 0.13891 0.5865 0.15094 0.0
O25 O 0.10882 0.60234 0.16573 0.0
O26 O 1.0196 0.56765 0.16302 0.0
O27 O 1.03224 0.55362 0.1846 0.0
O28 O 0.06221 0.57731 0.13885 0.0
O29 O 0.05814 0.53561 0.13966 0.0
O30 O 1.01907 0.50388 0.16384 0.0
O31 O 1.04422 0.48928 0.14502 0.0
H32 H 0.18137 0.56853 0.16113 0.0
H33 H 0.24069 0.58553 0.17116 0.0
H34 H 0.24791 0.53628 0.12976 0.0
H35 H 0.1887 0.51963 0.11975 0.0
H36 H 0.96699 0.50913 0.15524 0.0
H37 H 0.90587 0.46062 0.15849 0.0
H38 H 0.90316 0.49422 0.20686 0.0
H39 H 0.96593 0.54254 0.20381 0.0
La40 La 0.59256 0.01856 0.48618 0.0
La41 La 0.54602 0.04002 0.48165 0.0
C42 C 0.62097 0.99289 0.49573 0.0
C43 C 0.61097 0.96096 0.4988 0.0
C44 C 0.63274 0.9527 0.49232 0.0
C45 C 0.62557 0.92351 0.49567 0.0
C46 C 0.59657 0.90194 0.5057 0.0
C47 C 0.57413 0.9099 0.51187 0.0
C48 C 0.58124 0.93916 0.50844 0.0
C49 C 0.58807 0.03154 0.45628 0.0
C50 C 0.50653 0.9669 0.48057 0.0
C51 C 0.51894 0.06715 0.47258 0.0
C52 C 0.52661 0.09834 0.47645 0.0
C53 C 0.55298 0.11951 0.48827 0.0
C54 C 0.55884 0.14845 0.4925 0.0
C55 C 0.53827 0.15664 0.48505 0.0
C56 C 0.51227 0.13549 0.47302 0.0
C57 C 0.50652 0.1066 0.46877 0.0
C58 C 0.55208 0.02871 0.51177 0.0
C59 C 0.63295 0.09213 0.48624 0.0
O60 O 0.62008 0.99879 0.48058 0.0
O61 O 0.60824 1.00426 0.50552 0.0
O62 O 0.617 0.03699 0.46266 0.0
O63 O 0.56235 0.01746 0.46617 0.0
O64 O 0.53675 0.97354 0.48706 0.0
O65 O 0.50586 0.98973 0.4748 0.0
O66 O 0.50645 0.04771 0.48456 0.0
O67 O 0.54414 0.06778 0.46461 0.0
O68 O 0.52321 0.02379 0.50574 0.0
O69 O 0.5769 0.0419 0.50148 0.0
O70 O 0.60132 0.08561 0.482 0.0
O71 O 0.63559 0.06942 0.49029 0.0
H72 H 0.65569 0.96909 0.48479 0.0
H73 H 0.64294 0.91792 0.49042 0.0
H74 H 0.55172 0.89397 0.51972 0.0
H75 H 0.56389 0.9449 0.51353 0.0
H76 H 0.56854 0.11337 0.49442 0.0
H77 H 0.57874 0.16396 0.50194 0.0
H78 H 0.49631 0.14125 0.4669 0.0
H79 H 0.48608 0.09051 0.45961 0.0
La80 La 0.59625 0.55565 0.85109 0.0
La81 La 0.54646 0.4844 0.85252 0.0
C82 C 0.62766 0.61269 0.84325 0.0
C83 C 0.61845 0.63457 0.84001 0.0
C84 C 0.6428 0.66685 0.84519 0.0
C85 C 0.63564 0.68854 0.84184 0.0
C86 C 0.60398 0.67842 0.83316 0.0
C87 C 0.57932 0.6459 0.82814 0.0
C88 C 0.58642 0.62412 0.83158 0.0
C89 C 0.58589 0.53331 0.88017 0.0
C90 C 0.50903 0.51856 0.85346 0.0
C91 C 0.51643 0.42709 0.85949 0.0
C92 C 0.52427 0.40402 0.85598 0.0
C93 C 0.55185 0.41117 0.84519 0.0
C94 C 0.55784 0.38843 0.84125 0.0
C95 C 0.53629 0.35807 0.848 0.0
C96 C 0.50915 0.35134 0.85906 0.0
C97 C 0.50321 0.37412 0.86299 0.0
C98 C 0.55721 0.5063 0.82326 0.0
C99 C 0.63439 0.522 0.85124 0.0
O100 O 0.6245 0.60426 0.85824 0.0
O101 O 0.61567 0.58867 0.83277 0.0
O102 O 0.61657 0.55877 0.87552 0.0
O103 O 0.56216 0.52263 0.86914 0.0
O104 O 0.54123 0.54439 0.84897 0.0
O105 O 0.50578 0.49282 0.85785 0.0
O106 O 0.50731 0.4354 0.84692 0.0
O107 O 0.53971 0.4518 0.8691 0.0
O108 O 0.52692 0.48062 0.82793 0.0
O109 O 0.58081 0.51722 0.83439 0.0
O110 O 0.60133 0.49512 0.85378 0.0
O111 O 0.63876 0.54884 0.84828 0.0
H112 H 0.66768 0.6754 0.85168 0.0
H113 H 0.6554 0.71345 0.84571 0.0
H114 H 0.55449 0.63728 0.82159 0.0
H115 H 0.56705 0.59925 0.82755 0.0
H116 H 0.56829 0.43411 0.83958 0.0
H117 H 0.57868 0.39435 0.83257 0.0
H118 H 0.49243 0.32843 0.86467 0.0
H119 H 0.48187 0.36823 0.87138 0.0
C120 C 0.5873 0.07413 0.27565 0.0
C121 C 0.58107 0.04819 0.28379 0.0
C122 C 0.58846 0.07443 0.2587 0.0
C123 C 0.58346 0.04881 0.24947 0.0
C124 C 0.57755 0.02303 0.25761 0.0
C125 C 0.57628 0.02269 0.27453 0.0
C126 C 0.58378 0.04863 0.2314 0.0
C127 C 0.60896 0.07668 0.22321 0.0
C128 C 0.60941 0.07657 0.20615 0.0
C129 C 0.58403 0.04777 0.1972 0.0
C130 C 0.55855 0.01945 0.20525 0.0
C131 C 0.55871 0.02022 0.22229 0.0
C132 C 0.53071 0.98883 0.19625 0.0
C133 C 0.50733 0.9872 0.18474 0.0
C134 C 0.52477 0.96033 0.20052 0.0
C135 C 0.49516 0.93071 0.19399 0.0
C136 C 0.47055 0.92881 0.18313 0.0
C137 C 0.63707 0.10672 0.19799 0.0
C138 C 0.64283 0.13543 0.20303 0.0
C139 C 0.65975 0.10762 0.18608 0.0
C140 C 0.68865 0.13688 0.17992 0.0
C141 C 0.6953 0.16586 0.18541 0.0
C142 C 0.67135 0.16454 0.19676 0.0
C143 C 0.47739 0.95745 0.17831 0.0
H144 H 0.59153 0.09435 0.28239 0.0
H145 H 0.59274 0.09453 0.25283 0.0
H146 H 0.57403 1.00308 0.25091 0.0
H147 H 0.57101 1.00215 0.28035 0.0
H148 H 0.62899 0.09859 0.23013 0.0
H149 H 0.53843 0.99865 0.22848 0.0
H150 H 0.58406 0.04742 0.18405 0.0
H151 H 0.51116 0.00877 0.18131 0.0
H152 H 0.54244 0.9609 0.20934 0.0
H153 H 0.49061 0.90918 0.19807 0.0
H154 H 0.62547 0.13541 0.21204 0.0
H155 H 0.65611 0.08588 0.18206 0.0
H156 H 0.45914 0.95681 0.16984 0.0
H157 H 0.67481 0.1861 0.20097 0.0
H158 H 0.70658 0.13684 0.17131 0.0
C159 C 0.56482 0.54209 0.64338 0.0
C160 C 0.59243 0.54292 0.65121 0.0
C161 C 0.56251 0.54085 0.62646 0.0
C162 C 0.58744 0.54 0.61694 0.0
C163 C 0.615 0.54075 0.62467 0.0
C164 C 0.61762 0.5424 0.64161 0.0
C165 C 0.58455 0.53823 0.59898 0.0
C166 C 0.57988 0.5587 0.59102 0.0
C167 C 0.57673 0.55712 0.57403 0.0
C168 C 0.57807 0.53447 0.56498 0.0
C169 C 0.58242 0.51352 0.57277 0.0
C170 C 0.58589 0.5158 0.58979 0.0
C171 C 0.58218 0.48852 0.56332 0.0
C172 C 0.55693 0.47055 0.55053 0.0
C173 C 0.60614 0.48148 0.56748 0.0
C174 C 0.60429 0.45655 0.55934 0.0
C175 C 0.57845 0.43804 0.54682 0.0
C176 C 0.57262 0.57961 0.56589 0.0
C177 C 0.54907 0.58614 0.57219 0.0
C178 C 0.59346 0.5959 0.55229 0.0
C179 C 0.59175 0.61904 0.54552 0.0
C180 C 0.56897 0.62622 0.55213 0.0
C181 C 0.54723 0.60912 0.56539 0.0
C182 C 0.55508 0.4456 0.54238 0.0
H183 H 0.54444 0.54175 0.6503 0.0
H184 H 0.54072 0.5399 0.62081 0.0
H185 H 0.63483 0.54048 0.6176 0.0
H186 H 0.6396 0.54354 0.64716 0.0
H187 H 0.5796 0.57649 0.59808 0.0
H188 H 0.5884 0.49934 0.59599 0.0
H189 H 0.57556 0.53307 0.55187 0.0
H190 H 0.53787 0.47515 0.54709 0.0
H191 H 0.6262 0.49509 0.57714 0.0
H192 H 0.6225 0.45125 0.56319 0.0
H193 H 0.53236 0.57372 0.58255 0.0
H194 H 0.61199 0.59152 0.5472 0.0
H195 H 0.53515 0.43209 0.53266 0.0
H196 H 0.52963 0.61424 0.57087 0.0
H197 H 0.60855 0.63155 0.5352 0.0
C198 C 0.10548 0.54416 0.94691 0.0
C199 C 0.07377 0.53465 0.95532 0.0
C200 C 0.10568 0.54251 0.92994 0.0
C201 C 0.07384 0.53024 0.92075 0.0
C202 C 1.04199 0.52021 0.92917 0.0
C203 C 1.04213 0.52293 0.9461 0.0
C204 C 0.07376 0.52783 0.90255 0.0
C205 C 0.09681 0.52252 0.89438 0.0
C206 C 0.09752 0.52039 0.87733 0.0
C207 C 0.07278 0.52246 0.86821 0.0
C208 C 0.04862 0.52726 0.8763 0.0
C209 C 0.05039 0.5306 0.89332 0.0
C210 C 1.02034 0.52854 0.86804 0.0
C211 C 1.02099 0.55567 0.87074 0.0
C212 C 0.98829 0.50071 0.86113 0.0
C213 C 0.95748 0.49971 0.8577 0.0
C214 C 0.95756 0.52652 0.86108 0.0
C215 C 0.12487 0.51609 0.87008 0.0
C216 C 0.1537 0.53928 0.86041 0.0
C217 C 0.12658 0.49191 0.87567 0.0
C218 C 0.15652 0.49163 0.8724 0.0
C219 C 0.18634 0.51554 0.86333 0.0
C220 C 0.18388 0.53902 0.85709 0.0
C221 C 0.9904 0.55475 0.86729 0.0
H222 H 0.13037 0.55271 0.95334 0.0
H223 H 0.13109 0.55114 0.9241 0.0
H224 H 1.01656 0.50994 0.92276 0.0
H225 H 1.0172 0.51595 0.95185 0.0
H226 H 0.11465 0.51995 0.90135 0.0
H227 H 1.03297 0.53532 0.8994 0.0
H228 H 0.07225 0.52026 0.85509 0.0
H229 H 1.04473 0.5773 0.87643 0.0
H230 H 0.98626 0.47908 0.85925 0.0
H231 H 0.93325 0.47756 0.85271 0.0
H232 H 0.15388 0.55863 0.8561 0.0
H233 H 0.10529 0.47384 0.88333 0.0
H234 H 0.99209 0.57591 0.87035 0.0
H235 H 0.20562 0.55768 0.84984 0.0
H236 H 0.15684 0.47327 0.87773 0.0
C237 C 1.03637 0.50662 0.36401 0.0
C238 C 0.06947 0.52735 0.35598 0.0
C239 C 1.03522 0.50665 0.38094 0.0
C240 C 0.06727 0.52678 0.3904 0.0
C241 C 0.10049 0.54705 0.38237 0.0
C242 C 0.10151 0.54764 0.36545 0.0
C243 C 0.06589 0.52702 0.40852 0.0
C244 C 1.03998 0.49901 0.41658 0.0
C245 C 1.03685 0.4992 0.43357 0.0
C246 C 0.06206 0.5278 0.44273 0.0
C247 C 0.08872 0.55606 0.43489 0.0
C248 C 0.08997 0.5554 0.41785 0.0
C249 C 0.11583 0.58668 0.4441 0.0
C250 C 0.1236 0.61544 0.43898 0.0
C251 C 0.1369 0.58802 0.45678 0.0
C252 C 0.16649 0.61766 0.4635 0.0
C253 C 0.17546 0.64654 0.45774 0.0
C254 C 1.00634 0.46944 0.44131 0.0
C255 C 0.97197 0.44984 0.43349 0.0
C256 C 1.01121 0.45952 0.45598 0.0
C257 C 0.98281 0.43005 0.46223 0.0
C258 C 0.94924 0.40991 0.45384 0.0
C259 C 0.94399 0.42041 0.43958 0.0
C260 C 0.15301 0.64493 0.44566 0.0
H261 H 1.01112 0.4901 0.35727 0.0
H262 H 1.00895 0.49105 0.38656 0.0
H263 H 0.12593 0.56253 0.38911 0.0
H264 H 0.12754 0.56439 0.35987 0.0
H265 H 1.02216 0.47669 0.40958 0.0
H266 H 0.10996 0.57731 0.41186 0.0
H267 H 0.06024 0.52843 0.45582 0.0
H268 H 0.10763 0.61518 0.42934 0.0
H269 H 0.13161 0.56625 0.46094 0.0
H270 H 0.18282 0.61796 0.47296 0.0
H271 H 0.9667 0.45706 0.42247 0.0
H272 H 1.03726 0.47395 0.46233 0.0
H273 H 0.15911 0.6665 0.44075 0.0
H274 H 0.91815 0.40569 0.43305 0.0
H275 H 0.98749 0.42249 0.47329 0.0
C276 C 0.55344 0.99299 0.6924 0.0
C277 C 0.57773 0.02155 0.68437 0.0
C278 C 0.55341 0.99289 0.70934 0.0
C279 C 0.57752 0.02137 0.71865 0.0
C280 C 0.6018 0.04994 0.71063 0.0
C281 C 0.60199 0.05001 0.69368 0.0
C282 C 0.5773 0.02125 0.73667 0.0
C283 C 0.57499 0.99693 0.74463 0.0
C284 C 0.5746 0.99642 0.76165 0.0
C285 C 0.57655 0.02076 0.77078 0.0
C286 C 0.57864 0.04527 0.76302 0.0
C287 C 0.57911 0.04528 0.74596 0.0
C288 C 0.5792 0.07043 0.7725 0.0
C289 C 0.55561 0.06241 0.78557 0.0
C290 C 0.60197 0.10246 0.76796 0.0
C291 C 0.60041 0.1257 0.77594 0.0
C292 C 0.57602 0.11753 0.78868 0.0
C293 C 0.57246 0.97043 0.76966 0.0
C294 C 0.54767 0.93849 0.76387 0.0
C295 C 0.59632 0.9774 0.78251 0.0
C296 C 0.59627 0.95308 0.78902 0.0
C297 C 0.57217 0.9212 0.78289 0.0
C298 C 0.54743 0.91419 0.77043 0.0
C299 C 0.55398 0.08568 0.79354 0.0
H300 H 0.53464 0.97062 0.68558 0.0
H301 H 0.53416 0.97054 0.71516 0.0
H302 H 0.62092 0.07222 0.71747 0.0
H303 H 0.62081 0.07246 0.68786 0.0
H304 H 0.57436 0.97869 0.73754 0.0
H305 H 0.57971 0.06351 0.73984 0.0
H306 H 0.57624 0.0205 0.78391 0.0
H307 H 0.53753 0.03794 0.78932 0.0
H308 H 0.62076 0.10953 0.75807 0.0
H309 H 0.61756 0.1499 0.77176 0.0
H310 H 0.52854 0.9323 0.75415 0.0
H311 H 0.61592 1.00184 0.78714 0.0
H312 H 0.53522 0.07863 0.80344 0.0
H313 H 0.52787 0.88987 0.76566 0.0
H314 H 0.61596 0.95947 0.79848 0.0
C315 C 0.52114 0.39969 0.0483 0.0
C316 C 0.52809 0.42792 0.04274 0.0
C317 C 0.51489 0.39286 0.06477 0.0
C318 C 0.5153 0.41406 0.07599 0.0
C319 C 0.52231 0.44225 0.07038 0.0
C320 C 0.52841 0.44899 0.054 0.0
C321 C 0.50935 0.40762 0.09358 0.0
C322 C 0.52601 0.39629 0.10171 0.0
C323 C 0.52422 0.39439 0.11868 0.0
C324 C 0.50525 0.4035 0.12744 0.0
C325 C 0.48861 0.41498 0.11962 0.0
C326 C 0.48978 0.41589 0.10262 0.0
C327 C 0.47378 0.42925 0.12936 0.0
C328 C 0.45765 0.41732 0.14449 0.0
C329 C 0.47828 0.45664 0.12417 0.0
C330 C 0.46716 0.47173 0.1338 0.0
C331 C 0.45211 0.46047 0.14915 0.0
C332 C 0.54516 0.38624 0.12767 0.0
C333 C 0.54495 0.3601 0.12271 0.0
C334 C 0.56534 0.40477 0.14161 0.0
C335 C 0.58452 0.39726 0.1505 0.0
C336 C 0.58467 0.37135 0.14557 0.0
C337 C 0.56448 0.35263 0.13164 0.0
C338 C 0.4474 0.43296 0.15434 0.0
H339 H 0.52097 0.38306 0.03996 0.0
H340 H 0.50949 0.37091 0.06869 0.0
H341 H 0.52357 0.45948 0.07869 0.0
H342 H 0.5331 0.4707 0.05015 0.0
H343 H 0.54225 0.39089 0.09499 0.0
H344 H 0.47617 0.42389 0.09639 0.0
H345 H 0.50499 0.40301 0.14054 0.0
H346 H 0.45316 0.396 0.14884 0.0
H347 H 0.49117 0.46704 0.11278 0.0
H348 H 0.47028 0.49221 0.12907 0.0
H349 H 0.52951 0.34536 0.11204 0.0
H350 H 0.56664 0.42542 0.14561 0.0
H351 H 0.43611 0.42356 0.16608 0.0
H352 H 0.5644 0.33269 0.12747 0.0
H353 H 0.59946 0.41196 0.16127 0.0
H354 H 0.31279 0.58161 0.13708 0.0
H355 H 0.35635 0.57364 0.1474 0.0
H356 H 0.29922 0.54304 0.19259 0.0
H357 H 0.25548 0.5508 0.18239 0.0
H358 H 0.3952 0.58536 0.18618 0.0
H359 H 0.28494 0.46532 0.15839 0.0
H360 H 0.29471 0.50069 0.14968 0.0
H361 H 0.2748 0.48956 0.16934 0.0
C362 C 0.3103 0.57427 0.14941 0.0
C363 C 0.2805 0.56635 0.15884 0.0
C364 C 0.33535 0.57005 0.15534 0.0
C365 C 0.33079 0.55777 0.17071 0.0
C366 C 0.3033 0.55292 0.18078 0.0
H367 H 0.39403 0.43326 0.16983 0.0
H368 H 0.36844 0.4583 0.18241 0.0
C369 C 0.27831 0.5573 0.17489 0.0
C370 C 0.34858 0.54285 0.17431 0.0
H371 H 0.3402 0.47501 0.16452 0.0
C372 C 0.38311 0.56104 0.18177 0.0
C373 C 0.33218 0.51094 0.16886 0.0
C374 C 0.29457 0.49026 0.16115 0.0
C375 C 0.40267 0.54845 0.1831 0.0
C376 C 0.38759 0.51745 0.17627 0.0
C377 C 0.35197 0.49874 0.1698 0.0
C378 C 0.40927 0.50528 0.17339 0.0
C379 C 0.43934 0.56869 0.19161 0.0
C380 C 0.44205 0.52372 0.16494 0.0
C381 C 0.45758 0.50971 0.15821 0.0
C382 C 0.43991 0.47662 0.1592 0.0
C383 C 0.4086 0.45876 0.16874 0.0
C384 C 0.39372 0.47306 0.17592 0.0
H385 H 0.43941 0.58316 0.20188 0.0
H386 H 0.44701 0.5539 0.19631 0.0
H387 H 0.46032 0.5857 0.18299 0.0
H388 H 0.45438 0.54842 0.16248 0.0
H389 H 0.48246 0.52458 0.15149 0.0
H390 H 0.63754 0.14674 0.48593 0.0
H391 H 0.69222 0.20164 0.48324 0.0
H392 H 0.75838 0.16852 0.48252 0.0
H393 H 0.70391 0.11367 0.48586 0.0
H394 H 0.79186 0.22415 0.49959 0.0
H395 H 0.74289 0.23467 0.44102 0.0
H396 H 0.71266 0.22627 0.45737 0.0
H397 H 0.71991 0.19723 0.45092 0.0
C398 C 0.66375 0.15114 0.48533 0.0
C399 C 0.6663 0.12574 0.48597 0.0
C400 C 0.69501 0.18257 0.48367 0.0
C401 C 0.72941 0.1892 0.48223 0.0
C402 C 0.73216 0.16404 0.4835 0.0
H403 H 0.91335 0.35375 0.43609 0.0
H404 H 0.86189 0.30067 0.44415 0.0
C405 C 0.70096 0.13266 0.48541 0.0
C406 C 0.76233 0.22206 0.47888 0.0
H407 H 0.79695 0.2818 0.4522 0.0
C408 C 0.79302 0.23676 0.48921 0.0
C409 C 0.76413 0.23838 0.46519 0.0
C410 C 0.7333 0.22323 0.4529 0.0
C411 C 0.82532 0.26726 0.48626 0.0
C412 C 0.82668 0.28394 0.47284 0.0
C413 C 0.79593 0.26921 0.46256 0.0
C414 C 0.86 0.31603 0.46867 0.0
C415 C 0.85795 0.28078 0.49726 0.0
C416 C 0.87662 0.34248 0.4798 0.0
C417 C 0.90656 0.3729 0.47525 0.0
C418 C 0.91984 0.37748 0.45938 0.0
C419 C 0.90349 0.35095 0.44836 0.0
C420 C 0.87406 0.3206 0.45296 0.0
H421 H 0.85591 0.26168 0.50383 0.0
H422 H 0.8836 0.29397 0.49032 0.0
H423 H 0.85949 0.29768 0.50645 0.0
H424 H 0.86584 0.33986 0.49185 0.0
H425 H 0.91845 0.39303 0.48392 0.0
H426 H 0.5799 0.68376 0.80422 0.0
H427 H 0.57281 0.72464 0.79697 0.0
H428 H 0.60584 0.76709 0.84548 0.0
H429 H 0.61328 0.72648 0.85276 0.0
H430 H 0.52984 0.74071 0.80922 0.0
H431 H 0.67578 0.84318 0.81825 0.0
H432 H 0.65981 0.80211 0.81765 0.0
H433 H 0.65522 0.81965 0.83579 0.0
C434 C 0.58535 0.70163 0.81338 0.0
C435 C 0.59744 0.70201 0.82903 0.0
C436 C 0.58143 0.72506 0.80921 0.0
C437 C 0.58953 0.74935 0.82058 0.0
C438 C 0.60042 0.74915 0.83637 0.0
H439 H 0.58369 0.91261 0.81423 0.0
H440 H 0.58686 0.87071 0.82391 0.0
C441 C 0.60456 0.72586 0.84052 0.0
C442 C 0.58655 0.77482 0.81588 0.0
H443 H 0.63536 0.8558 0.81282 0.0
C444 C 0.55293 0.76586 0.80998 0.0
C445 C 0.61671 0.80769 0.81688 0.0
C446 C 0.65401 0.8188 0.82234 0.0
C447 C 0.54859 0.78883 0.80518 0.0
C448 C 0.57875 0.82161 0.80613 0.0
C449 C 0.61226 0.83065 0.81218 0.0
C450 C 0.57644 0.8468 0.80033 0.0
C451 C 0.51168 0.7779 0.79924 0.0
C452 C 0.57007 0.8475 0.78384 0.0
C453 C 0.56864 0.87155 0.77824 0.0
C454 C 0.57351 0.89549 0.78901 0.0
C455 C 0.58012 0.89479 0.80555 0.0
C456 C 0.58174 0.87076 0.81113 0.0
H457 H 0.48964 0.75327 0.80293 0.0
H458 H 0.50561 0.79439 0.80395 0.0
H459 H 0.51151 0.7779 0.7858 0.0
H460 H 0.56671 0.82965 0.77524 0.0
H461 H 0.56437 0.87168 0.76537 0.0
H462 H 0.86495 0.43624 0.20927 0.0
H463 H 0.7999 0.39162 0.21141 0.0
H464 H 0.78295 0.40206 0.16154 0.0
H465 H 0.84665 0.44634 0.15944 0.0
H466 H 0.74685 0.39797 0.20844 0.0
H467 H 0.71702 0.30619 0.16262 0.0
H468 H 0.76165 0.33392 0.17199 0.0
H469 H 0.7492 0.34437 0.15413 0.0
C470 C 0.84729 0.42868 0.19874 0.0
C471 C 0.86103 0.44485 0.18418 0.0
C472 C 0.81031 0.40294 0.19992 0.0
C473 C 0.78671 0.3928 0.1865 0.0
C474 C 0.80075 0.40843 0.17188 0.0
H475 H 0.65359 0.41569 0.15687 0.0
H476 H 0.69147 0.40746 0.1724 0.0
C477 C 0.83734 0.43408 0.17073 0.0
C478 C 0.74665 0.3706 0.18808 0.0
H479 H 0.67512 0.32239 0.16189 0.0
C480 C 0.73058 0.38017 0.19877 0.0
C481 C 0.72469 0.34627 0.17603 0.0
C482 C 0.73907 0.33184 0.1657 0.0
C483 C 0.6955 0.37084 0.1956 0.0
C484 C 0.6769 0.3523 0.18127 0.0
C485 C 0.69 0.33767 0.17254 0.0
C486 C 0.65145 0.35594 0.17288 0.0
C487 C 0.68047 0.38402 0.20651 0.0
C488 C 0.6168 0.32953 0.16735 0.0
C489 C 0.59482 0.33423 0.15834 0.0
C490 C 0.6075 0.36537 0.15465 0.0
C491 C 0.64256 0.3915 0.15991 0.0
C492 C 0.66421 0.38683 0.16888 0.0
H493 H 0.68831 0.38521 0.21936 0.0
H494 H 0.69224 0.40879 0.20316 0.0
H495 H 0.65032 0.36921 0.20545 0.0
H496 H 0.60685 0.30544 0.17 0.0
H497 H 0.56789 0.31366 0.15442 0.0
H498 H 0.49919 0.91212 0.48677 0.0
H499 H 0.44398 0.85667 0.48396 0.0
H500 H 0.38298 0.89016 0.46927 0.0
H501 H 0.43797 0.94535 0.4716 0.0
H502 H 0.37861 0.82524 0.49884 0.0
H503 H 0.35775 0.8259 0.43298 0.0
H504 H 0.39941 0.85736 0.44348 0.0
H505 H 0.36025 0.85736 0.4441 0.0
C506 C 0.47406 0.90767 0.48286 0.0
C507 C 0.47316 0.93322 0.47921 0.0
C508 C 0.44249 0.87594 0.48129 0.0
C509 C 0.40943 0.86913 0.47606 0.0
C510 C 0.40832 0.89467 0.47286 0.0
H511 H 0.18529 0.70345 0.46328 0.0
H512 H 0.24257 0.75657 0.46876 0.0
C513 C 0.43984 0.9263 0.47428 0.0
C514 C 0.37593 0.83546 0.47412 0.0
H515 H 0.30765 0.7823 0.44712 0.0
C516 C 0.36329 0.81576 0.48749 0.0
C517 C 0.35599 0.82293 0.45926 0.0
C518 C 0.36923 0.84188 0.4441 0.0
C519 C 0.33071 0.78433 0.48654 0.0
C520 C 0.31031 0.77233 0.47185 0.0
C521 C 0.3232 0.79175 0.45842 0.0
C522 C 0.27532 0.73972 0.4701 0.0
C523 C 0.31773 0.76434 0.5013 0.0
C524 C 0.27471 0.71258 0.46922 0.0
C525 C 0.24203 0.68213 0.46587 0.0
C526 C 0.2093 0.67825 0.46334 0.0
C527 C 0.20996 0.7055 0.46488 0.0
C528 C 0.24265 0.7359 0.4681 0.0
H529 H 0.334 0.77853 0.51235 0.0
H530 H 0.28865 0.75355 0.50348 0.0
H531 H 0.31987 0.74445 0.49916 0.0
H532 H 0.29973 0.71508 0.47054 0.0
H533 H 0.24278 0.66187 0.46456 0.0
H534 H 0.48355 0.2939 0.8418 0.0
H535 H 0.4916 0.25328 0.83324 0.0
H536 H 0.6081 0.32527 0.8338 0.0
H537 H 0.60038 0.36593 0.84291 0.0
H538 H 0.52419 0.25145 0.80524 0.0
H539 H 0.59635 0.25488 0.8597 0.0
H540 H 0.5726 0.27252 0.85979 0.0
H541 H 0.61706 0.29312 0.85111 0.0
C542 C 0.51094 0.30105 0.84041 0.0
C543 C 0.54133 0.33321 0.84315 0.0
C544 C 0.51547 0.2778 0.83539 0.0
C545 C 0.55045 0.28612 0.83309 0.0
C546 C 0.58087 0.31817 0.8358 0.0
H547 H 0.63056 0.18063 0.79699 0.0
H548 H 0.62425 0.22134 0.80778 0.0
C549 C 0.57638 0.34146 0.84082 0.0
C550 C 0.55487 0.26144 0.82717 0.0
H551 H 0.59255 0.22409 0.83671 0.0
C552 C 0.53899 0.24536 0.81216 0.0
C553 C 0.57433 0.25361 0.83618 0.0
C554 C 0.59081 0.2692 0.85266 0.0
C555 C 0.5424 0.22198 0.80579 0.0
C556 C 0.56168 0.21403 0.81483 0.0
C557 C 0.57774 0.2302 0.82981 0.0
C558 C 0.56546 0.18899 0.80888 0.0
C559 C 0.52598 0.20649 0.78928 0.0
C560 C 0.53458 0.15714 0.80624 0.0
C561 C 0.53806 0.13386 0.79999 0.0
C562 C 0.57257 0.1419 0.79633 0.0
C563 C 0.60355 0.17369 0.79943 0.0
C564 C 0.60002 0.19695 0.8057 0.0
H565 H 0.5205 0.22086 0.78225 0.0
H566 H 0.54423 0.20321 0.78215 0.0
H567 H 0.49972 0.18256 0.79079 0.0
H568 H 0.50768 0.15033 0.80887 0.0
H569 H 0.5136 0.10972 0.79764 0.0
H570 H 0.64834 0.89384 0.51293 0.0
H571 H 0.63941 0.84473 0.51976 0.0
H572 H 0.523 0.79307 0.5163 0.0
H573 H 0.53171 0.842 0.50873 0.0
H574 H 0.60421 0.80777 0.54574 0.0
H575 H 0.5383 0.73631 0.48825 0.0
H576 H 0.56125 0.77895 0.49 0.0
H577 H 0.51621 0.75173 0.49784 0.0
C578 C 0.62079 0.87196 0.51331 0.0
C579 C 0.59075 0.87186 0.51008 0.0
C580 C 0.61575 0.84393 0.51736 0.0
C581 C 0.58057 0.81511 0.5183 0.0
C582 C 0.55042 0.81489 0.51531 0.0
H583 H 0.51069 0.62693 0.54672 0.0
H584 H 0.51208 0.6721 0.53846 0.0
C585 C 0.55544 0.84298 0.51119 0.0
C586 C 0.57586 0.78573 0.52293 0.0
H587 H 0.54294 0.70995 0.50955 0.0
C588 C 0.59081 0.78639 0.53782 0.0
C589 C 0.55824 0.75781 0.51261 0.0
C590 C 0.54283 0.75609 0.49621 0.0
C591 C 0.58877 0.75999 0.54264 0.0
C592 C 0.57172 0.7323 0.53222 0.0
C593 C 0.55608 0.73129 0.51748 0.0
C594 C 0.57065 0.70448 0.53633 0.0
C595 C 0.60473 0.76184 0.55891 0.0
C596 C 0.60306 0.70757 0.53751 0.0
C597 C 0.60239 0.6819 0.54223 0.0
C598 C 0.56925 0.65259 0.54586 0.0
C599 C 0.53669 0.64931 0.54421 0.0
C600 C 0.5374 0.675 0.53941 0.0
H601 H 0.60893 0.78135 0.56701 0.0
H602 H 0.58681 0.73883 0.56506 0.0
H603 H 0.63156 0.76668 0.5571 0.0
H604 H 0.62897 0.73004 0.53498 0.0
H605 H 0.62796 0.68535 0.54352 0.0
H606 H 0.63742 0.47188 0.85715 0.0
H607 H 0.69099 0.47233 0.85851 0.0
H608 H 0.75999 0.57197 0.84723 0.0
H609 H 0.70674 0.57184 0.84615 0.0
H610 H 0.74138 0.48287 0.83715 0.0
H611 H 0.81417 0.57674 0.88617 0.0
H612 H 0.76737 0.55836 0.88075 0.0
H613 H 0.8038 0.59009 0.86904 0.0
C614 C 0.66397 0.49401 0.855 0.0
C615 C 0.6673 0.5219 0.85165 0.0
C616 C 0.69483 0.49422 0.85577 0.0
C617 C 0.73026 0.52236 0.85334 0.0
C618 C 0.7335 0.55005 0.84966 0.0
H619 H 0.95201 0.57436 0.85252 0.0
H620 H 0.89773 0.57244 0.85054 0.0
C621 C 0.7027 0.54987 0.8489 0.0
C622 C 0.76348 0.52261 0.85441 0.0
H623 H 0.84793 0.56167 0.87258 0.0
C624 C 0.76451 0.50004 0.845 0.0
C625 C 0.7942 0.54487 0.86459 0.0
C626 C 0.7948 0.56867 0.87583 0.0
C627 C 0.7951 0.49961 0.84518 0.0
C628 C 0.82589 0.522 0.8553 0.0
C629 C 0.8248 0.54448 0.86474 0.0
C630 C 0.85939 0.52265 0.85626 0.0
C631 C 0.79447 0.47565 0.83407 0.0
C632 C 0.8569 0.49547 0.86028 0.0
C633 C 0.88825 0.49651 0.86152 0.0
C634 C 0.92352 0.52488 0.85891 0.0
C635 C 0.92584 0.55205 0.85487 0.0
C636 C 0.89449 0.55097 0.85365 0.0
H637 H 0.77462 0.46699 0.82387 0.0
H638 H 0.82177 0.48609 0.82897 0.0
H639 H 0.78615 0.45462 0.84105 0.0
H640 H 0.83064 0.47341 0.86283 0.0
H641 H 0.88478 0.47514 0.865 0.0
H642 H 0.14661 0.66346 0.16923 0.0
H643 H 0.20284 0.71825 0.17133 0.0
H644 H 0.26344 0.68522 0.15266 0.0
H645 H 0.20727 0.63056 0.15012 0.0
H646 H 0.26293 0.74241 0.18931 0.0
H647 H 0.30078 0.75972 0.12453 0.0
H648 H 0.25647 0.7265 0.13109 0.0
H649 H 0.29468 0.72527 0.13221 0.0
C650 C 0.17185 0.66786 0.16544 0.0
C651 C 0.17232 0.64258 0.15942 0.0
C652 C 0.20401 0.69924 0.16665 0.0
C653 C 0.23739 0.70606 0.16189 0.0
C654 C 0.23797 0.68081 0.15599 0.0
H655 H 0.463 0.8743 0.17329 0.0
H656 H 0.40624 0.82066 0.16752 0.0
C657 C 0.20578 0.64946 0.15465 0.0
C658 C 0.2717 0.73932 0.16383 0.0
H659 H 0.34604 0.79922 0.14356 0.0
C660 C 0.2809 0.75488 0.17926 0.0
C661 C 0.29531 0.75567 0.15073 0.0
C662 C 0.28618 0.74108 0.13368 0.0
C663 C 0.3132 0.78599 0.18201 0.0
C664 C 0.33688 0.80215 0.16896 0.0
C665 C 0.32782 0.78671 0.15353 0.0
C666 C 0.37129 0.83507 0.17125 0.0
C667 C 0.32218 0.80119 0.19893 0.0
C668 C 0.37047 0.86106 0.17486 0.0
C669 C 0.40281 0.89173 0.17811 0.0
C670 C 0.43664 0.89698 0.17787 0.0
C671 C 0.43739 0.87101 0.17373 0.0
C672 C 0.40502 0.84039 0.17037 0.0
H673 H 0.3047 0.78348 0.20817 0.0
H674 H 0.35116 0.81282 0.2021 0.0
H675 H 0.31796 0.81997 0.19948 0.0
H676 H 0.34471 0.85749 0.17546 0.0
H677 H 0.40119 0.91108 0.1814 0.0
H678 H 0.60203 0.21628 0.49187 0.0
H679 H 0.60929 0.26473 0.50161 0.0
H680 H 0.49285 0.21338 0.49929 0.0
H681 H 0.48524 0.1647 0.48998 0.0
H682 H 0.58604 0.29827 0.48688 0.0
H683 H 0.5207 0.25124 0.54626 0.0
H684 H 0.53602 0.23267 0.53356 0.0
H685 H 0.49386 0.22612 0.52893 0.0
C686 C 0.57795 0.21524 0.49354 0.0
C687 C 0.54303 0.18655 0.49022 0.0
C688 C 0.58217 0.24299 0.499 0.0
C689 C 0.55158 0.24251 0.50138 0.0
C690 C 0.51678 0.21414 0.49777 0.0
H691 H 0.51592 0.37895 0.53817 0.0
H692 H 0.5102 0.33261 0.52614 0.0
C693 C 0.51252 0.18642 0.49228 0.0
C694 C 0.55599 0.27162 0.50771 0.0
H695 H 0.53449 0.30095 0.53954 0.0
C696 C 0.57493 0.29896 0.49842 0.0
C697 C 0.54144 0.27239 0.52276 0.0
C698 C 0.52213 0.24416 0.53356 0.0
C699 C 0.57904 0.3269 0.50364 0.0
C700 C 0.56438 0.32764 0.51868 0.0
C701 C 0.54559 0.30031 0.52798 0.0
C702 C 0.56824 0.35648 0.52509 0.0
C703 C 0.59826 0.35509 0.49283 0.0
C704 C 0.60279 0.38533 0.5285 0.0
C705 C 0.60617 0.41198 0.53527 0.0
C706 C 0.57504 0.41025 0.53886 0.0
C707 C 0.54048 0.38132 0.53532 0.0
C708 C 0.53714 0.35472 0.52855 0.0
H709 H 0.59914 0.34786 0.48008 0.0
H710 H 0.5847 0.36689 0.49301 0.0
H711 H 0.62673 0.37291 0.49727 0.0
H712 H 0.62716 0.38708 0.52621 0.0
H713 H 0.6332 0.43392 0.53773 0.0
H714 H 0.43701 0.4689 0.85935 0.0
H715 H 0.3841 0.46943 0.86011 0.0
H716 H 0.45347 0.56993 0.85049 0.0
H717 H 0.50619 0.56923 0.84917 0.0
H718 H 0.36382 0.49719 0.8787 0.0
H719 H 0.37688 0.54296 0.81783 0.0
H720 H 0.40404 0.53081 0.82428 0.0
H721 H 0.41688 0.56995 0.83017 0.0
C722 C 0.44112 0.49115 0.85727 0.0
C723 C 0.47631 0.51896 0.85407 0.0
C724 C 0.41059 0.49145 0.85774 0.0
C725 C 0.41392 0.51955 0.85502 0.0
C726 C 0.44923 0.54751 0.85211 0.0
H727 H 0.25926 0.56807 0.86037 0.0
H728 H 0.31313 0.56908 0.85818 0.0
C729 C 0.47974 0.54716 0.85151 0.0
C730 C 0.3808 0.51962 0.85571 0.0
H731 H 0.33419 0.54119 0.83532 0.0
C732 C 0.35742 0.50667 0.8691 0.0
C733 C 0.37167 0.53195 0.84332 0.0
C734 C 0.39346 0.54439 0.82802 0.0
C735 C 0.32628 0.50615 0.87055 0.0
C736 C 0.31732 0.51859 0.85821 0.0
C737 C 0.3407 0.5317 0.84487 0.0
C738 C 0.28374 0.51783 0.8589 0.0
C739 C 0.30359 0.49281 0.88556 0.0
C740 C 0.24849 0.48871 0.85962 0.0
C741 C 0.21731 0.48797 0.86066 0.0
C742 C 0.21997 0.51637 0.86108 0.0
C743 C 0.25536 0.5455 0.85994 0.0
C744 C 0.28656 0.54618 0.85879 0.0
H745 H 0.31889 0.49217 0.89565 0.0
H746 H 0.29425 0.50719 0.88973 0.0
H747 H 0.27918 0.46793 0.88273 0.0
H748 H 0.24495 0.46629 0.85929 0.0
H749 H 0.19098 0.46484 0.86104 0.0
H750 H 0.99376 0.42973 0.13384 0.0
H751 H 0.93745 0.37483 0.13559 0.0
H752 H 0.91019 0.40281 0.17969 0.0
H753 H 0.96547 0.4572 0.17789 0.0
H754 H 0.91361 0.33089 0.15819 0.0
H755 H 0.81753 0.36052 0.15413 0.0
H756 H 0.86551 0.38976 0.15077 0.0
H757 H 0.84804 0.38204 0.17109 0.0
C758 C 0.97564 0.42412 0.14385 0.0
C759 C 0.98389 0.44799 0.15558 0.0
C760 C 0.94346 0.39277 0.14484 0.0
C761 C 0.91903 0.38478 0.15756 0.0
C762 C 0.92786 0.40846 0.16947 0.0
H763 H 0.73837 0.22255 0.20331 0.0
H764 H 0.79121 0.27418 0.19456 0.0
C765 C 0.95971 0.43965 0.16845 0.0
C766 C 0.88488 0.35158 0.15886 0.0
H767 H 0.79358 0.30939 0.16561 0.0
C768 C 0.88727 0.32611 0.15952 0.0
C769 C 0.85035 0.34519 0.16053 0.0
C770 C 0.84519 0.37085 0.15892 0.0
C771 C 0.85651 0.29488 0.16263 0.0
C772 C 0.82249 0.28895 0.1651 0.0
C773 C 0.81978 0.31409 0.16385 0.0
C774 C 0.7899 0.25733 0.17002 0.0
C775 C 0.86074 0.26863 0.16397 0.0
C776 C 0.77133 0.2307 0.15906 0.0
C777 C 0.74054 0.20106 0.16395 0.0
C778 C 0.72778 0.19745 0.17993 0.0
C779 C 0.7467 0.22436 0.19083 0.0
C780 C 0.77719 0.25394 0.1859 0.0
H781 H 0.88969 0.27782 0.16342 0.0
H782 H 0.84914 0.25638 0.17554 0.0
H783 H 0.84541 0.25051 0.15389 0.0
H784 H 0.7805 0.23292 0.14669 0.0
H785 H 0.72652 0.1811 0.15514 0.0
H786 H 0.07865 0.52133 0.11231 0.0
H787 H 0.08448 0.51992 0.0829 0.0
H788 H 0.05471 0.58349 0.07887 0.0
H789 H 0.05263 0.58745 0.10843 0.0
H790 H 1.04131 0.49864 0.05987 0.0
H791 H 0.13781 0.62808 0.05024 0.0
H792 H 0.12701 0.61257 0.07025 0.0
H793 H 0.09796 0.6194 0.05996 0.0
C794 C 0.07427 0.53563 0.10515 0.0
C795 C 0.06608 0.55511 0.11265 0.0
C796 C 0.07726 0.5346 0.08829 0.0
C797 C 0.07099 0.55225 0.0785 0.0
C798 C 0.06134 0.57075 0.08604 0.0
H799 H 1.01599 0.49789 0.97598 0.0
H800 H 1.01552 0.50323 0.00524 0.0
C801 C 0.05969 0.57271 0.10296 0.0
C802 C 0.07305 0.55012 0.06046 0.0
H803 H 0.10481 0.59454 0.02668 0.0
C804 C 0.05566 0.51973 0.05267 0.0
C805 C 0.09233 0.57751 0.05091 0.0
C806 C 0.11516 0.61119 0.05831 0.0
C807 C 0.05666 0.51592 0.03577 0.0
C808 C 0.07354 0.5431 0.02613 0.0
C809 C 0.09132 0.57353 0.03392 0.0
C810 C 0.07351 0.54071 0.00802 0.0
C811 C 1.04059 0.48281 0.02863 0.0
C812 C 0.1058 0.56134 0.99949 0.0
C813 C 0.10582 0.55975 0.98252 0.0
C814 C 0.07366 0.53687 0.97353 0.0
C815 C 1.04136 0.51624 0.98218 0.0
C816 C 1.04116 0.51867 0.99912 0.0
H817 H 1.04163 0.46802 0.03753 0.0
H818 H 1.01152 0.47053 0.02541 0.0
H819 H 0.05518 0.48367 0.0176 0.0
H820 H 0.13118 0.57886 0.00596 0.0
H821 H 0.13116 0.57683 0.97655 0.0
H822 H 0.64206 0.06206 0.43434 0.0
H823 H 0.63629 0.06687 0.4054 0.0
H824 H 0.52041 0.01584 0.41037 0.0
H825 H 0.52604 0.01091 0.43945 0.0
H826 H 0.54115 0.99193 0.38471 0.0
H827 H 0.61553 0.12321 0.38259 0.0
H828 H 0.63993 0.11191 0.39308 0.0
H829 H 0.59799 0.10206 0.40117 0.0
C830 C 0.6154 0.05214 0.4293 0.0
C831 C 0.58448 0.03606 0.43909 0.0
C832 C 0.61218 0.05508 0.41279 0.0
C833 C 0.578 0.04204 0.40579 0.0
C834 C 0.54706 0.02624 0.41558 0.0
H835 H 0.54987 0.0678 0.30431 0.0
H836 H 0.54666 0.06602 0.33394 0.0
C837 C 0.5503 0.02346 0.43216 0.0
C838 C 0.57456 0.04327 0.38805 0.0
H839 H 0.60549 0.09491 0.35722 0.0
C840 C 0.55484 0.01441 0.3787 0.0
C841 C 0.59218 0.07261 0.38027 0.0
C842 C 0.61233 0.10422 0.38979 0.0
C843 C 0.55352 0.01419 0.3617 0.0
C844 C 0.5727 0.0436 0.35388 0.0
C845 C 0.59114 0.07241 0.36325 0.0
C846 C 0.57489 0.04495 0.33596 0.0
C847 C 0.53182 0.98249 0.35223 0.0
C848 C 0.59241 0.03423 0.32734 0.0
C849 C 0.59464 0.0355 0.31046 0.0
C850 C 0.57939 0.04757 0.30182 0.0
C851 C 0.56225 0.05869 0.31056 0.0
C852 C 0.56017 0.05751 0.32748 0.0
H853 H 0.51145 0.96254 0.35992 0.0
H854 H 0.51746 0.98313 0.34171 0.0
H855 H 0.55059 0.97734 0.34753 0.0
H856 H 0.60463 0.02508 0.33371 0.0
H857 H 0.60869 0.02735 0.30419 0.0
H858 H 0.62322 0.54459 0.80852 0.0
H859 H 0.63384 0.55537 0.77955 0.0
H860 H 0.51802 0.50117 0.7711 0.0
H861 H 0.50736 0.48939 0.79981 0.0
H862 H 0.54611 0.48233 0.75039 0.0
H863 H 0.63113 0.61488 0.75157 0.0
H864 H 0.64974 0.60005 0.76368 0.0
H865 H 0.6071 0.59217 0.76913 0.0
C866 C 0.60016 0.53539 0.80047 0.0
C867 C 0.56447 0.51604 0.80632 0.0
C868 C 0.60624 0.54172 0.78395 0.0
C869 C 0.57674 0.52934 0.77314 0.0
C870 C 0.5412 0.51094 0.77917 0.0
H871 H 0.57779 0.57438 0.67336 0.0
H872 H 0.57571 0.57145 0.70284 0.0
C873 C 0.53513 0.50425 0.79558 0.0
C874 C 0.58226 0.53332 0.75538 0.0
H875 H 0.62551 0.58867 0.72622 0.0
C876 C 0.56342 0.50562 0.74512 0.0
C877 C 0.60461 0.5637 0.74848 0.0
C878 C 0.62403 0.59441 0.75876 0.0
C879 C 0.56601 0.50736 0.7282 0.0
C880 C 0.58917 0.53767 0.72129 0.0
C881 C 0.60811 0.56544 0.73153 0.0
C882 C 0.5928 0.54098 0.70345 0.0
C883 C 0.54292 0.47668 0.71791 0.0
C884 C 0.60392 0.52544 0.69398 0.0
C885 C 0.6043 0.52642 0.67707 0.0
C886 C 0.59424 0.5435 0.66927 0.0
C887 C 0.58482 0.56032 0.67888 0.0
C888 C 0.58402 0.55899 0.69578 0.0
H889 H 0.51952 0.45707 0.72476 0.0
H890 H 0.53218 0.48009 0.70689 0.0
H891 H 0.55975 0.46888 0.71404 0.0
H892 H 0.61167 0.51203 0.69966 0.0
H893 H 0.61152 0.51302 0.67014 0.0
H894 H 0.61563 0.05206 0.52799 0.0
H895 H 0.62349 0.04915 0.55709 0.0
H896 H 0.50766 0.99604 0.56343 0.0
H897 H 0.49967 0.99881 0.53444 0.0
H898 H 0.60146 0.07307 0.58287 0.0
H899 H 0.53378 0.9429 0.58623 0.0
H900 H 0.55007 0.96349 0.56745 0.0
H901 H 0.50784 0.95261 0.5757 0.0
C902 C 0.59185 0.03945 0.53559 0.0
C903 C 0.55703 0.0256 0.52901 0.0
C904 C 0.59638 0.03787 0.55217 0.0
C905 C 0.5661 0.02207 0.56235 0.0
C906 C 0.53129 0.00788 0.55573 0.0
H907 H 0.51862 0.99107 0.66379 0.0
H908 H 0.51819 0.9918 0.63418 0.0
C909 C 0.52679 0.00963 0.53921 0.0
C910 C 0.57087 0.02189 0.58006 0.0
H911 H 0.54578 0.97209 0.61132 0.0
C912 C 0.58969 0.05107 0.58911 0.0
C913 C 0.5553 0.99311 0.58811 0.0
C914 C 0.53586 0.96123 0.57889 0.0
C915 C 0.59222 0.05216 0.60611 0.0
C916 C 0.57618 0.0233 0.61421 0.0
C917 C 0.558 0.99417 0.6051 0.0
C918 C 0.57687 0.02267 0.63217 0.0
C919 C 0.61078 0.08404 0.61525 0.0
C920 C 0.61001 0.03943 0.64087 0.0
C921 C 0.61033 0.03912 0.65781 0.0
C922 C 0.5775 0.0217 0.66636 0.0
C923 C 0.54436 1.00448 0.65757 0.0
C924 C 0.54407 1.00495 0.64065 0.0
H925 H 0.61327 0.1023 0.60768 0.0
H926 H 0.59565 0.08174 0.62637 0.0
H927 H 0.63863 0.09291 0.61895 0.0
H928 H 0.63564 0.05263 0.63456 0.0
H929 H 0.63628 0.05218 0.66421 0.0
H930 H 0.63601 0.55048 0.90388 0.0
H931 H 0.62477 0.52799 0.93071 0.0
H932 H 0.50983 0.46255 0.91937 0.0
H933 H 0.52088 0.48496 0.89253 0.0
H934 H 0.52906 0.49857 0.9499 0.0
H935 H 0.59485 0.43814 0.94209 0.0
H936 H 0.62191 0.47909 0.93627 0.0
H937 H 0.58077 0.44931 0.92513 0.0
C938 C 0.60839 0.5312 0.9071 0.0
C939 C 0.5793 0.51942 0.89618 0.0
C940 C 0.60205 0.51825 0.92236 0.0
C941 C 0.56654 0.49337 0.92691 0.0
C942 C 0.53744 0.4816 0.91601 0.0
H943 H 0.4937 0.38708 0.016 0.0
H944 H 0.50247 0.40106 0.98743 0.0
C945 C 0.5438 0.49441 0.90072 0.0
C946 C 0.55955 0.48079 0.94336 0.0
H947 H 0.57798 0.44233 0.96892 0.0
C948 C 0.5395 0.48607 0.95403 0.0
C949 C 0.57304 0.46431 0.94863 0.0
C950 C 0.5936 0.45707 0.93742 0.0
C951 C 0.53351 0.47611 0.97003 0.0
C952 C 0.54795 0.46054 0.97545 0.0
C953 C 0.56713 0.45444 0.96468 0.0
C954 C 0.5444 0.45158 0.99249 0.0
C955 C 0.51209 0.48254 0.98115 0.0
C956 C 0.56566 0.47532 0.00463 0.0
C957 C 0.56105 0.46744 0.02088 0.0
C958 C 0.53485 0.43564 0.02532 0.0
C959 C 0.51429 0.41173 0.01301 0.0
C960 C 0.51911 0.41966 0.99671 0.0
H961 H 0.49808 0.49037 0.97446 0.0
H962 H 0.49147 0.46073 0.98773 0.0
H963 H 0.53084 0.50166 0.99033 0.0
H964 H 0.58555 0.50005 0.00154 0.0
H965 H 0.57789 0.48635 0.02999 0.0
H966 H 0.05528 0.48067 0.19995 0.0
H967 H 1.04731 0.4791 0.22934 0.0
H968 H 0.10983 0.58215 0.23241 0.0
H969 H 0.11543 0.58335 0.20284 0.0
H970 H 0.09271 0.49981 0.25222 0.0
H971 H 1.02952 0.56164 0.26053 0.0
H972 H 1.03536 0.54957 0.24073 0.0
H973 H 0.07234 0.58666 0.25064 0.0
C974 C 0.06686 0.50289 0.20694 0.0
C975 C 0.08586 0.53211 0.19925 0.0
C976 C 0.06237 0.50203 0.22372 0.0
C977 C 0.07747 0.53046 0.23318 0.0
C978 C 0.09681 0.55976 0.22542 0.0
H979 H 0.12474 0.53996 0.33587 0.0
H980 H 0.12679 0.54193 0.3065 0.0
C981 C 0.10036 0.56051 0.20855 0.0
C982 C 0.07472 0.52941 0.25117 0.0
H983 H 0.05485 0.55701 0.28446 0.0
C984 C 0.08401 0.51205 0.25923 0.0
C985 C 0.0628 0.54486 0.2604 0.0
C986 C 0.04905 0.56139 0.2526 0.0
C987 C 0.0821 0.50996 0.27615 0.0
C988 C 0.07254 0.52719 0.28546 0.0
C989 C 0.06276 0.54419 0.2774 0.0
C990 C 0.07202 0.52756 0.30351 0.0
C991 C 0.08934 0.48848 0.28372 0.0
C992 C 1.04137 0.52066 0.31181 0.0
C993 C 1.04074 0.52105 0.32875 0.0
C994 C 0.07053 0.52779 0.33786 0.0
C995 C 0.10134 0.53498 0.32946 0.0
C996 C 0.1023 0.53544 0.31253 0.0
H997 H 0.08338 0.46905 0.275 0.0
H998 H 0.11857 0.50278 0.28724 0.0
H999 H 0.07267 0.47737 0.29467 0.0
H1000 H 1.01776 0.51484 0.30518 0.0
H1001 H 1.01689 0.51629 0.33466 0.0
loop_
_geom_bond_atom_site_label_1
_geom_bond_atom_site_label_2
_geom_bond_distance
_geom_bond_site_symmetry_2
_ccdc_geom_bond_type
La0 C2 2.928 . S
La0 O20 2.521 . S
La0 O21 2.628 . S
La0 O22 2.554 . S
La0 O23 2.757 . S
La0 O24 2.470 . S
La0 O29 2.482 . S
La0 O31 2.503 1_455 S
La1 C11 2.928 . S
La1 O23 2.482 1_655 S
La1 O25 2.503 1_655 S
La1 O26 2.521 . S
La1 O27 2.628 . S
La1 O28 2.554 1_655 S
La1 O29 2.757 1_655 S
La1 O30 2.470 . S
C2 La0 2.928 . S
C2 C3 1.503 . S
C2 O20 1.261 . S
C2 O21 1.243 . S
C3 C2 1.503 . S
C3 C4 1.394 . S
C3 C8 1.373 . S
C4 C3 1.394 . S
C4 C5 1.380 . S
C4 H32 0.930 . S
C5 C4 1.380 . S
C5 C6 1.376 . S
C5 H33 0.930 . S
C6 C5 1.376 . S
C6 C7 1.370 . S
C7 C6 1.370 . S
C7 C8 1.396 . S
C7 H34 0.929 . S
C8 C3 1.373 . S
C8 C7 1.396 . S
C8 H35 0.929 . S
C9 O22 1.240 . S
C9 O23 1.289 . S
C10 O24 1.258 . S
C10 O25 1.256 . S
C11 La1 2.928 . S
C11 C12 1.503 . S
C11 O26 1.261 . S
C11 O27 1.243 . S
C12 C11 1.503 . S
C12 C13 1.394 . S
C12 C17 1.373 . S
C13 C12 1.394 . S
C13 C14 1.380 . S
C13 H36 0.930 . S
C14 C13 1.380 . S
C14 C15 1.376 . S
C14 H37 0.930 . S
C15 C14 1.376 . S
C15 C16 1.370 . S
C16 C15 1.370 . S
C16 C17 1.396 . S
C16 H38 0.929 . S
C17 C12 1.373 . S
C17 C16 1.396 . S
C17 H39 0.929 . S
C18 O28 1.240 . S
C18 O29 1.289 . S
C19 O30 1.258 . S
C19 O31 1.256 . S
O20 La0 2.521 . S
O20 C2 1.261 . S
O21 La0 2.628 . S
O21 C2 1.243 . S
O22 La0 2.554 . S
O22 C9 1.240 . S
O23 La0 2.757 . S
O23 La1 2.482 1_455 S
O23 C9 1.289 . S
O24 La0 2.470 . S
O24 C10 1.258 . S
O25 La1 2.503 1_455 S
O25 C10 1.256 . S
O26 La1 2.521 . S
O26 C11 1.261 . S
O27 La1 2.628 . S
O27 C11 1.243 . S
O28 La1 2.554 1_455 S
O28 C18 1.240 . S
O29 La0 2.482 . S
O29 La1 2.757 1_455 S
O29 C18 1.289 . S
O30 La1 2.470 . S
O30 C19 1.258 . S
O31 La0 2.503 1_655 S
O31 C19 1.256 . S
H32 C4 0.930 . S
H33 C5 0.930 . S
H34 C7 0.929 . S
H35 C8 0.929 . S
H36 C13 0.930 . S
H37 C14 0.930 . S
H38 C16 0.929 . S
H39 C17 0.929 . S
La40 C42 2.928 . S
La40 O60 2.521 . S
La40 O61 2.628 . S
La40 O62 2.554 . S
La40 O63 2.757 1_565 S
La40 O64 2.470 . S
La40 O69 2.468 1_565 S
La40 O71 2.503 1_565 S
La41 C51 2.928 . S
La41 O63 2.482 . S
La41 O65 2.503 1_545 S
La41 O66 2.521 . S
La41 O67 2.628 . S
La41 O68 2.554 . S
La41 O69 2.779 . S
La41 O70 2.470 . S
C42 La40 2.928 . S
C42 C43 1.503 . S
C42 O60 1.261 . S
C42 O61 1.243 . S
C43 C42 1.503 . S
C43 C44 1.394 . S
C43 C48 1.373 . S
C44 C43 1.394 . S
C44 C45 1.380 . S
C44 H72 0.930 . S
C45 C44 1.380 . S
C45 C46 1.376 . S
C45 H73 0.930 . S
C46 C45 1.376 . S
C46 C47 1.370 . S
C47 C46 1.370 . S
C47 C48 1.396 . S
C47 H74 0.929 . S
C48 C43 1.373 . S
C48 C47 1.396 . S
C48 H75 0.929 . S
C49 O62 1.240 1_545 S
C49 O63 1.289 . S
C50 O64 1.258 . S
C50 O65 1.256 . S
C51 La41 2.928 . S
C51 C52 1.503 . S
C51 O66 1.261 . S
C51 O67 1.243 . S
C52 C51 1.503 . S
C52 C53 1.394 . S
C52 C57 1.373 . S
C53 C52 1.394 . S
C53 C54 1.380 . S
C53 H76 0.930 . S
C54 C53 1.380 . S
C54 C55 1.376 . S
C54 H77 0.930 . S
C55 C54 1.376 . S
C55 C56 1.370 . S
C56 C55 1.370 . S
C56 C57 1.396 . S
C56 H78 0.929 . S
C57 C52 1.373 . S
C57 C56 1.396 . S
C57 H79 0.929 . S
C58 O68 1.240 . S
C58 O69 1.302 . S
C59 O70 1.258 . S
C59 O71 1.256 . S
O60 La40 2.521 . S
O60 C42 1.261 . S
O61 La40 2.628 . S
O61 C42 1.243 . S
O62 La40 2.554 . S
O62 C49 1.240 1_565 S
O63 La40 2.757 1_545 S
O63 La41 2.482 . S
O63 C49 1.289 . S
O64 La40 2.470 . S
O64 C50 1.258 . S
O65 La41 2.503 1_565 S
O65 C50 1.256 . S
O66 La41 2.521 . S
O66 C51 1.261 . S
O67 La41 2.628 . S
O67 C51 1.243 . S
O68 La41 2.554 . S
O68 C58 1.240 . S
O69 La40 2.468 1_545 S
O69 La41 2.779 . S
O69 C58 1.302 . S
O70 La41 2.470 . S
O70 C59 1.258 . S
O71 La40 2.503 1_545 S
O71 C59 1.256 . S
H72 C44 0.930 . S
H73 C45 0.930 . S
H74 C47 0.929 . S
H75 C48 0.929 . S
H76 C53 0.930 . S
H77 C54 0.930 . S
H78 C56 0.929 . S
H79 C57 0.929 . S
La80 C82 2.928 . S
La80 O100 2.521 . S
La80 O101 2.628 . S
La80 O102 2.554 . S
La80 O103 2.757 . S
La80 O104 2.470 . S
La80 O109 2.482 . S
La80 O111 2.503 . S
La81 C91 2.928 . S
La81 O103 2.482 . S
La81 O105 2.503 . S
La81 O106 2.521 . S
La81 O107 2.628 . S
La81 O108 2.554 . S
La81 O109 2.757 . S
La81 O110 2.470 . S
C82 La80 2.928 . S
C82 C83 1.503 . S
C82 O100 1.261 . S
C82 O101 1.243 . S
C83 C82 1.503 . S
C83 C84 1.394 . S
C83 C88 1.373 . S
C84 C83 1.394 . S
C84 C85 1.380 . S
C84 H112 0.930 . S
C85 C84 1.380 . S
C85 C86 1.376 . S
C85 H113 0.930 . S
C86 C85 1.376 . S
C86 C87 1.370 . S
C87 C86 1.370 . S
C87 C88 1.396 . S
C87 H114 0.929 . S
C88 C83 1.373 . S
C88 C87 1.396 . S
C88 H115 0.929 . S
C89 O102 1.240 . S
C89 O103 1.289 . S
C90 O104 1.258 . S
C90 O105 1.256 . S
C91 La81 2.928 . S
C91 C92 1.503 . S
C91 O106 1.261 . S
C91 O107 1.243 . S
C92 C91 1.503 . S
C92 C93 1.394 . S
C92 C97 1.373 . S
C93 C92 1.394 . S
C93 C94 1.380 . S
C93 H116 0.930 . S
C94 C93 1.380 . S
C94 C95 1.376 . S
C94 H117 0.930 . S
C95 C94 1.376 . S
C95 C96 1.370 . S
C96 C95 1.370 . S
C96 C97 1.396 . S
C96 H118 0.929 . S
C97 C92 1.373 . S
C97 C96 1.396 . S
C97 H119 0.929 . S
C98 O108 1.240 . S
C98 O109 1.289 . S
C99 O110 1.258 . S
C99 O111 1.256 . S
O100 La80 2.521 . S
O100 C82 1.261 . S
O101 La80 2.628 . S
O101 C82 1.243 . S
O102 La80 2.554 . S
O102 C89 1.240 . S
O103 La80 2.757 . S
O103 La81 2.482 . S
O103 C89 1.289 . S
O104 La80 2.470 . S
O104 C90 1.258 . S
O105 La81 2.503 . S
O105 C90 1.256 . S
O106 La81 2.521 . S
O106 C91 1.261 . S
O107 La81 2.628 . S
O107 C91 1.243 . S
O108 La81 2.554 . S
O108 C98 1.240 . S
O109 La80 2.482 . S
O109 La81 2.757 . S
O109 C98 1.289 . S
O110 La81 2.470 . S
O110 C99 1.258 . S
O111 La80 2.503 . S
O111 C99 1.256 . S
H112 C84 0.930 . S
H113 C85 0.930 . S
H114 C87 0.929 . S
H115 C88 0.929 . S
H116 C93 0.930 . S
H117 C94 0.930 . S
H118 C96 0.929 . S
H119 C97 0.929 . S
C120 C121 1.386 . S
C120 C122 1.397 . S
C120 H144 0.931 . S
C121 C120 1.386 . S
C121 C125 1.397 1_545 S
C122 C120 1.397 . S
C122 C123 1.384 . S
C122 H145 0.930 . S
C123 C122 1.384 . S
C123 C124 1.377 1_545 S
C123 C126 1.481 . S
C124 C123 1.377 1_565 S
C124 C125 1.389 . S
C124 H146 0.929 . S
C125 C121 1.397 1_565 S
C125 C124 1.389 . S
C125 H147 0.931 . S
C126 C123 1.481 . S
C126 C127 1.387 . S
C126 C131 1.390 1_545 S
C127 C126 1.387 . S
C127 C128 1.401 . S
C127 H148 0.930 . S
C128 C127 1.401 . S
C128 C129 1.376 . S
C128 C137 1.511 . S
C129 C128 1.376 . S
C129 C130 1.392 1_545 S
C129 H150 0.931 . S
C130 C129 1.392 1_565 S
C130 C131 1.361 . S
C130 C132 1.500 . S
C131 C126 1.390 1_565 S
C131 C130 1.361 . S
C131 H149 0.931 . S
C132 C130 1.500 . S
C132 C133 1.371 . S
C132 C134 1.365 . S
C133 C132 1.371 . S
C133 C143 1.386 . S
C133 H151 0.931 . S
C134 C132 1.365 . S
C134 C135 1.409 . S
C134 H152 0.929 . S
C135 C134 1.409 . S
C135 C136 1.380 . S
C135 H153 0.930 . S
C136 C135 1.380 . S
C136 C143 1.357 . S
C137 C128 1.511 . S
C137 C138 1.341 . S
C137 C139 1.371 . S
C138 C137 1.341 . S
C138 C142 1.394 . S
C138 H154 0.930 . S
C139 C137 1.371 . S
C139 C140 1.392 . S
C139 H155 0.931 . S
C140 C139 1.392 . S
C140 C141 1.331 . S
C140 H158 0.932 . S
C141 C140 1.331 . S
C141 C142 1.336 . S
C142 C138 1.394 . S
C142 C141 1.336 . S
C142 H157 0.929 . S
C143 C133 1.386 . S
C143 C136 1.357 . S
C143 H156 0.928 . S
H144 C120 0.931 . S
H145 C122 0.930 . S
H146 C124 0.929 . S
H147 C125 0.931 . S
H148 C127 0.930 . S
H149 C131 0.931 . S
H150 C129 0.931 . S
H151 C133 0.931 . S
H152 C134 0.929 . S
H153 C135 0.930 . S
H154 C138 0.930 . S
H155 C139 0.931 . S
H156 C143 0.928 . S
H157 C142 0.929 . S
H158 C140 0.932 . S
C159 C160 1.386 . S
C159 C161 1.397 . S
C159 H183 0.931 . S
C160 C159 1.386 . S
C160 C164 1.397 . S
C161 C159 1.397 . S
C161 C162 1.384 . S
C161 H184 0.930 . S
C162 C161 1.384 . S
C162 C163 1.377 . S
C162 C165 1.481 . S
C163 C162 1.377 . S
C163 C164 1.389 . S
C163 H185 0.929 . S
C164 C160 1.397 . S
C164 C163 1.389 . S
C164 H186 0.931 . S
C165 C162 1.481 . S
C165 C166 1.387 . S
C165 C170 1.390 . S
C166 C165 1.387 . S
C166 C167 1.401 . S
C166 H187 0.930 . S
C167 C166 1.401 . S
C167 C168 1.376 . S
C167 C176 1.511 . S
C168 C167 1.376 . S
C168 C169 1.392 . S
C168 H189 0.931 . S
C169 C168 1.392 . S
C169 C170 1.361 . S
C169 C171 1.500 . S
C170 C165 1.390 . S
C170 C169 1.361 . S
C170 H188 0.931 . S
C171 C169 1.500 . S
C171 C172 1.371 . S
C171 C173 1.365 . S
C172 C171 1.371 . S
C172 C182 1.386 . S
C172 H190 0.931 . S
C173 C171 1.365 . S
C173 C174 1.409 . S
C173 H191 0.929 . S
C174 C173 1.409 . S
C174 C175 1.380 . S
C174 H192 0.930 . S
C175 C174 1.380 . S
C175 C182 1.357 . S
C176 C167 1.511 . S
C176 C177 1.341 . S
C176 C178 1.371 . S
C177 C176 1.341 . S
C177 C181 1.394 . S
C177 H193 0.930 . S
C178 C176 1.371 . S
C178 C179 1.392 . S
C178 H194 0.931 . S
C179 C178 1.392 . S
C179 C180 1.331 . S
C179 H197 0.932 . S
C180 C179 1.331 . S
C180 C181 1.336 . S
C181 C177 1.394 . S
C181 C180 1.336 . S
C181 H196 0.929 . S
C182 C172 1.386 . S
C182 C175 1.357 . S
C182 H195 0.928 . S
H183 C159 0.931 . S
H184 C161 0.930 . S
H185 C163 0.929 . S
H186 C164 0.931 . S
H187 C166 0.930 . S
H188 C170 0.931 . S
H189 C168 0.931 . S
H190 C172 0.931 . S
H191 C173 0.929 . S
H192 C174 0.930 . S
H193 C177 0.930 . S
H194 C178 0.931 . S
H195 C182 0.928 . S
H196 C181 0.929 . S
H197 C179 0.932 . S
C198 C199 1.386 . S
C198 C200 1.397 . S
C198 H222 0.931 . S
C199 C198 1.386 . S
C199 C203 1.397 . S
C200 C198 1.397 . S
C200 C201 1.384 . S
C200 H223 0.930 . S
C201 C200 1.384 . S
C201 C202 1.377 . S
C201 C204 1.481 . S
C202 C201 1.377 . S
C202 C203 1.389 . S
C202 H224 0.929 1_455 S
C203 C199 1.397 . S
C203 C202 1.389 . S
C203 H225 0.931 1_455 S
C204 C201 1.481 . S
C204 C205 1.387 . S
C204 C209 1.390 . S
C205 C204 1.387 . S
C205 C206 1.401 . S
C205 H226 0.930 . S
C206 C205 1.401 . S
C206 C207 1.376 . S
C206 C215 1.511 . S
C207 C206 1.376 . S
C207 C208 1.392 . S
C207 H228 0.931 . S
C208 C207 1.392 . S
C208 C209 1.361 . S
C208 C210 1.500 1_455 S
C209 C204 1.390 . S
C209 C208 1.361 . S
C209 H227 0.931 . S
C210 C208 1.500 1_655 S
C210 C211 1.373 1_655 S
C210 C212 1.365 . S
C211 C210 1.373 1_455 S
C211 C221 1.372 1_455 S
C211 H229 0.943 . S
C212 C210 1.365 . S
C212 C213 1.409 . S
C212 H230 0.929 . S
C213 C212 1.409 . S
C213 C214 1.380 . S
C213 H231 0.930 . S
C214 C213 1.380 . S
C214 C221 1.357 . S
C215 C206 1.511 . S
C215 C216 1.341 . S
C215 C217 1.371 . S
C216 C215 1.341 . S
C216 C220 1.394 . S
C216 H232 0.930 . S
C217 C215 1.371 . S
C217 C218 1.392 . S
C217 H233 0.931 . S
C218 C217 1.392 . S
C218 C219 1.331 . S
C218 H236 0.932 . S
C219 C218 1.331 . S
C219 C220 1.336 . S
C220 C216 1.394 . S
C220 C219 1.336 . S
C220 H235 0.929 . S
C221 C211 1.372 1_655 S
C221 C214 1.357 . S
C221 H234 0.928 . S
H222 C198 0.931 . S
H223 C200 0.930 . S
H224 C202 0.929 1_655 S
H225 C203 0.931 1_655 S
H226 C205 0.930 . S
H227 C209 0.931 . S
H228 C207 0.931 . S
H229 C211 0.943 . S
H230 C212 0.929 . S
H231 C213 0.930 . S
H232 C216 0.930 . S
H233 C217 0.931 . S
H234 C221 0.928 . S
H235 C220 0.929 . S
H236 C218 0.932 . S
C237 C238 1.403 . S
C237 C239 1.397 . S
C237 H261 0.931 . S
C238 C237 1.403 . S
C238 C242 1.381 1_655 S
C239 C237 1.397 . S
C239 C240 1.384 . S
C239 H262 0.930 . S
C240 C239 1.384 . S
C240 C241 1.377 1_655 S
C240 C243 1.481 . S
C241 C240 1.377 1_455 S
C241 C242 1.389 . S
C241 H263 0.929 . S
C242 C238 1.381 1_455 S
C242 C241 1.389 . S
C242 H264 0.931 . S
C243 C240 1.481 . S
C243 C244 1.387 . S
C243 C248 1.390 1_655 S
C244 C243 1.387 . S
C244 C245 1.401 . S
C244 H265 0.930 . S
C245 C244 1.401 . S
C245 C246 1.387 . S
C245 C254 1.511 . S
C246 C245 1.387 . S
C246 C247 1.381 1_655 S
C246 H267 0.931 . S
C247 C246 1.381 1_455 S
C247 C248 1.361 . S
C247 C249 1.500 . S
C248 C243 1.390 1_455 S
C248 C247 1.361 . S
C248 H266 0.931 . S
C249 C247 1.500 . S
C249 C250 1.371 . S
C249 C251 1.365 . S
C250 C249 1.371 . S
C250 C260 1.386 . S
C250 H268 0.931 . S
C251 C249 1.365 . S
C251 C252 1.409 . S
C251 H269 0.929 . S
C252 C251 1.409 . S
C252 C253 1.380 . S
C252 H270 0.930 . S
C253 C252 1.380 . S
C253 C260 1.357 . S
C254 C245 1.511 . S
C254 C255 1.341 . S
C254 C256 1.371 . S
C255 C254 1.341 . S
C255 C259 1.394 . S
C255 H271 0.930 . S
C256 C254 1.371 . S
C256 C257 1.392 . S
C256 H272 0.931 . S
C257 C256 1.392 . S
C257 C258 1.331 . S
C257 H275 0.932 . S
C258 C257 1.331 . S
C258 C259 1.336 . S
C259 C255 1.394 . S
C259 C258 1.336 . S
C259 H274 0.929 . S
C260 C250 1.386 . S
C260 C253 1.357 . S
C260 H273 0.928 . S
H261 C237 0.931 . S
H262 C239 0.930 . S
H263 C241 0.929 . S
H264 C242 0.931 . S
H265 C244 0.930 . S
H266 C248 0.931 . S
H267 C246 0.931 . S
H268 C250 0.931 . S
H269 C251 0.929 . S
H270 C252 0.930 . S
H271 C255 0.930 . S
H272 C256 0.931 . S
H273 C260 0.928 . S
H274 C259 0.929 . S
H275 C257 0.932 . S
C276 C277 1.386 . S
C276 C278 1.397 . S
C276 H300 0.931 . S
C277 C276 1.386 . S
C277 C281 1.397 1_565 S
C278 C276 1.397 . S
C278 C279 1.375 1_565 S
C278 H301 0.930 . S
C279 C278 1.375 1_545 S
C279 C280 1.387 . S
C279 C282 1.480 . S
C280 C279 1.387 . S
C280 C281 1.389 . S
C280 H302 0.929 . S
C281 C277 1.397 1_545 S
C281 C280 1.389 . S
C281 H303 0.931 . S
C282 C279 1.480 . S
C282 C283 1.387 1_545 S
C282 C287 1.390 . S
C283 C282 1.387 1_565 S
C283 C284 1.401 . S
C283 H304 0.930 . S
C284 C283 1.401 . S
C284 C285 1.376 1_565 S
C284 C293 1.511 . S
C285 C284 1.376 1_545 S
C285 C286 1.392 . S
C285 H306 0.931 . S
C286 C285 1.392 . S
C286 C287 1.361 . S
C286 C288 1.500 . S
C287 C282 1.390 . S
C287 C286 1.361 . S
C287 H305 0.931 . S
C288 C286 1.500 . S
C288 C289 1.371 . S
C288 C290 1.365 . S
C289 C288 1.371 . S
C289 C299 1.386 . S
C289 H307 0.931 . S
C290 C288 1.365 . S
C290 C291 1.409 . S
C290 H308 0.929 . S
C291 C290 1.409 . S
C291 C292 1.380 . S
C291 H309 0.930 . S
C292 C291 1.380 . S
C292 C299 1.357 . S
C293 C284 1.511 . S
C293 C294 1.341 . S
C293 C295 1.371 . S
C294 C293 1.341 . S
C294 C298 1.394 . S
C294 H310 0.930 . S
C295 C293 1.371 . S
C295 C296 1.392 . S
C295 H311 0.931 . S
C296 C295 1.392 . S
C296 C297 1.331 . S
C296 H314 0.932 . S
C297 C296 1.331 . S
C297 C298 1.336 . S
C298 C294 1.394 . S
C298 C297 1.336 . S
C298 H313 0.929 . S
C299 C289 1.386 . S
C299 C292 1.357 . S
C299 H312 0.928 . S
H300 C276 0.931 . S
H301 C278 0.930 . S
H302 C280 0.929 . S
H303 C281 0.931 . S
H304 C283 0.930 . S
H305 C287 0.931 . S
H306 C285 0.931 . S
H307 C289 0.931 . S
H308 C290 0.929 . S
H309 C291 0.930 . S
H310 C294 0.930 . S
H311 C295 0.931 . S
H312 C299 0.928 . S
H313 C298 0.929 . S
H314 C296 0.932 . S
C315 C316 1.386 . S
C315 C317 1.397 . S
C315 H339 0.931 . S
C316 C315 1.386 . S
C316 C320 1.397 . S
C317 C315 1.397 . S
C317 C318 1.384 . S
C317 H340 0.930 . S
C318 C317 1.384 . S
C318 C319 1.377 . S
C318 C321 1.481 . S
C319 C318 1.377 . S
C319 C320 1.389 . S
C319 H341 0.929 . S
C320 C316 1.397 . S
C320 C319 1.389 . S
C320 H342 0.931 . S
C321 C318 1.481 . S
C321 C322 1.387 . S
C321 C326 1.390 . S
C322 C321 1.387 . S
C322 C323 1.401 . S
C322 H343 0.930 . S
C323 C322 1.401 . S
C323 C324 1.376 . S
C323 C332 1.511 . S
C324 C323 1.376 . S
C324 C325 1.392 . S
C324 H345 0.931 . S
C325 C324 1.392 . S
C325 C326 1.361 . S
C325 C327 1.500 . S
C326 C321 1.390 . S
C326 C325 1.361 . S
C326 H344 0.931 . S
C327 C325 1.500 . S
C327 C328 1.371 . S
C327 C329 1.365 . S
C328 C327 1.371 . S
C328 C338 1.386 . S
C328 H346 0.931 . S
C329 C327 1.365 . S
C329 C330 1.409 . S
C329 H347 0.929 . S
C330 C329 1.409 . S
C330 C331 1.380 . S
C330 H348 0.930 . S
C331 C330 1.380 . S
C331 C338 1.357 . S
C332 C323 1.511 . S
C332 C333 1.341 . S
C332 C334 1.371 . S
C333 C332 1.341 . S
C333 C337 1.394 . S
C333 H349 0.930 . S
C334 C332 1.371 . S
C334 C335 1.392 . S
C334 H350 0.931 . S
C335 C334 1.392 . S
C335 C336 1.331 . S
C335 H353 0.932 . S
C336 C335 1.331 . S
C336 C337 1.336 . S
C337 C333 1.394 . S
C337 C336 1.336 . S
C337 H352 0.929 . S
C338 C328 1.386 . S
C338 C331 1.357 . S
C338 H351 0.928 . S
H339 C315 0.931 . S
H340 C317 0.930 . S
H341 C319 0.929 . S
H342 C320 0.931 . S
H343 C322 0.930 . S
H344 C326 0.931 . S
H345 C324 0.931 . S
H346 C328 0.931 . S
H347 C329 0.929 . S
H348 C330 0.930 . S
H349 C333 0.930 . S
H350 C334 0.931 . S
H351 C338 0.928 . S
H352 C337 0.929 . S
H353 C335 0.932 . S
H354 C362 0.929 . S
H355 C364 0.930 . S
H356 C366 0.930 . S
H357 C369 0.929 . S
H358 C372 0.930 . S
H359 C374 0.960 . S
H360 C374 0.960 . S
H361 C374 0.960 . S
C362 H354 0.929 . S
C362 C363 1.377 . S
C362 C364 1.384 . S
C363 C362 1.377 . S
C363 C369 1.390 . S
C364 H355 0.930 . S
C364 C362 1.384 . S
C364 C365 1.372 . S
C365 C364 1.372 . S
C365 C366 1.400 . S
C365 C370 1.490 . S
C366 H356 0.930 . S
C366 C365 1.400 . S
C366 C369 1.386 . S
H367 C383 0.930 . S
H368 C384 0.931 . S
C369 H357 0.929 . S
C369 C363 1.390 . S
C369 C366 1.386 . S
C370 C365 1.490 . S
C370 C372 1.395 . S
C370 C373 1.403 . S
H371 C377 0.930 . S
C372 H358 0.930 . S
C372 C370 1.395 . S
C372 C375 1.403 . S
C373 C370 1.403 . S
C373 C374 1.524 . S
C373 C377 1.400 . S
C374 H359 0.960 . S
C374 H360 0.960 . S
C374 H361 0.960 . S
C374 C373 1.524 . S
C375 C372 1.403 . S
C375 C376 1.392 . S
C375 C379 1.495 . S
C376 C375 1.392 . S
C376 C377 1.385 . S
C376 C378 1.478 . S
C377 H371 0.930 . S
C377 C373 1.400 . S
C377 C376 1.385 . S
C378 C376 1.478 . S
C378 C380 1.381 . S
C378 C384 1.383 . S
C379 C375 1.495 . S
C379 H385 0.959 . S
C379 H386 0.961 . S
C379 H387 0.960 . S
C380 C378 1.381 . S
C380 C381 1.394 . S
C380 H388 0.930 . S
C381 C380 1.394 . S
C381 C382 1.383 . S
C381 H389 0.929 . S
C382 C381 1.383 . S
C382 C383 1.377 . S
C383 H367 0.930 . S
C383 C382 1.377 . S
C383 C384 1.379 . S
C384 H368 0.931 . S
C384 C378 1.383 . S
C384 C383 1.379 . S
H385 C379 0.959 . S
H386 C379 0.961 . S
H387 C379 0.960 . S
H388 C380 0.930 . S
H389 C381 0.929 . S
H390 C398 0.929 . S
H391 C400 0.930 . S
H392 C402 0.930 . S
H393 C405 0.929 . S
H394 C408 0.930 . S
H395 C410 0.960 . S
H396 C410 0.960 . S
H397 C410 0.960 . S
C398 H390 0.929 . S
C398 C399 1.377 . S
C398 C400 1.384 . S
C399 C398 1.377 . S
C399 C405 1.390 . S
C400 H391 0.930 . S
C400 C398 1.384 . S
C400 C401 1.372 . S
C401 C400 1.372 . S
C401 C402 1.400 . S
C401 C406 1.490 . S
C402 H392 0.930 . S
C402 C401 1.400 . S
C402 C405 1.386 . S
H403 C419 0.930 . S
H404 C420 0.931 . S
C405 H393 0.929 . S
C405 C399 1.390 . S
C405 C402 1.386 . S
C406 C401 1.490 . S
C406 C408 1.395 . S
C406 C409 1.403 . S
H407 C413 0.930 . S
C408 H394 0.930 . S
C408 C406 1.395 . S
C408 C411 1.403 . S
C409 C406 1.403 . S
C409 C410 1.524 . S
C409 C413 1.400 . S
C410 H395 0.960 . S
C410 H396 0.960 . S
C410 H397 0.960 . S
C410 C409 1.524 . S
C411 C408 1.403 . S
C411 C412 1.392 . S
C411 C415 1.495 . S
C412 C411 1.392 . S
C412 C413 1.385 . S
C412 C414 1.478 . S
C413 H407 0.930 . S
C413 C409 1.400 . S
C413 C412 1.385 . S
C414 C412 1.478 . S
C414 C416 1.381 . S
C414 C420 1.383 . S
C415 C411 1.495 . S
C415 H421 0.959 . S
C415 H422 0.961 . S
C415 H423 0.960 . S
C416 C414 1.381 . S
C416 C417 1.394 . S
C416 H424 0.930 . S
C417 C416 1.394 . S
C417 C418 1.383 . S
C417 H425 0.929 . S
C418 C417 1.383 . S
C418 C419 1.377 . S
C419 H403 0.930 . S
C419 C418 1.377 . S
C419 C420 1.379 . S
C420 H404 0.931 . S
C420 C414 1.383 . S
C420 C419 1.379 . S
H421 C415 0.959 . S
H422 C415 0.961 . S
H423 C415 0.960 . S
H424 C416 0.930 . S
H425 C417 0.929 . S
H426 C434 0.929 . S
H427 C436 0.930 . S
H428 C438 0.930 . S
H429 C441 0.929 . S
H430 C444 0.930 . S
H431 C446 0.960 . S
H432 C446 0.960 . S
H433 C446 0.960 . S
C434 H426 0.929 . S
C434 C435 1.377 . S
C434 C436 1.384 . S
C435 C434 1.377 . S
C435 C441 1.390 . S
C436 H427 0.930 . S
C436 C434 1.384 . S
C436 C437 1.372 . S
C437 C436 1.372 . S
C437 C438 1.400 . S
C437 C442 1.490 . S
C438 H428 0.930 . S
C438 C437 1.400 . S
C438 C441 1.386 . S
H439 C455 0.930 . S
H440 C456 0.931 . S
C441 H429 0.929 . S
C441 C435 1.390 . S
C441 C438 1.386 . S
C442 C437 1.490 . S
C442 C444 1.395 . S
C442 C445 1.403 . S
H443 C449 0.930 . S
C444 H430 0.930 . S
C444 C442 1.395 . S
C444 C447 1.403 . S
C445 C442 1.403 . S
C445 C446 1.524 . S
C445 C449 1.400 . S
C446 H431 0.960 . S
C446 H432 0.960 . S
C446 H433 0.960 . S
C446 C445 1.524 . S
C447 C444 1.403 . S
C447 C448 1.392 . S
C447 C451 1.495 . S
C448 C447 1.392 . S
C448 C449 1.385 . S
C448 C450 1.478 . S
C449 H443 0.930 . S
C449 C445 1.400 . S
C449 C448 1.385 . S
C450 C448 1.478 . S
C450 C452 1.381 . S
C450 C456 1.383 . S
C451 C447 1.495 . S
C451 H457 0.959 . S
C451 H458 0.961 . S
C451 H459 0.960 . S
C452 C450 1.381 . S
C452 C453 1.394 . S
C452 H460 0.930 . S
C453 C452 1.394 . S
C453 C454 1.383 . S
C453 H461 0.929 . S
C454 C453 1.383 . S
C454 C455 1.377 . S
C455 H439 0.930 . S
C455 C454 1.377 . S
C455 C456 1.379 . S
C456 H440 0.931 . S
C456 C450 1.383 . S
C456 C455 1.379 . S
H457 C451 0.959 . S
H458 C451 0.961 . S
H459 C451 0.960 . S
H460 C452 0.930 . S
H461 C453 0.929 . S
H462 C470 0.929 . S
H463 C472 0.930 . S
H464 C474 0.930 . S
H465 C477 0.929 . S
H466 C480 0.930 . S
H467 C482 0.960 . S
H468 C482 0.960 . S
H469 C482 0.960 . S
C470 H462 0.929 . S
C470 C471 1.377 . S
C470 C472 1.384 . S
C471 C470 1.377 . S
C471 C477 1.390 . S
C472 H463 0.930 . S
C472 C470 1.384 . S
C472 C473 1.372 . S
C473 C472 1.372 . S
C473 C474 1.400 . S
C473 C478 1.490 . S
C474 H464 0.930 . S
C474 C473 1.400 . S
C474 C477 1.386 . S
H475 C491 0.930 . S
H476 C492 0.931 . S
C477 H465 0.929 . S
C477 C471 1.390 . S
C477 C474 1.386 . S
C478 C473 1.490 . S
C478 C480 1.395 . S
C478 C481 1.403 . S
H479 C485 0.930 . S
C480 H466 0.930 . S
C480 C478 1.395 . S
C480 C483 1.403 . S
C481 C478 1.403 . S
C481 C482 1.524 . S
C481 C485 1.400 . S
C482 H467 0.960 . S
C482 H468 0.960 . S
C482 H469 0.960 . S
C482 C481 1.524 . S
C483 C480 1.403 . S
C483 C484 1.392 . S
C483 C487 1.495 . S
C484 C483 1.392 . S
C484 C485 1.385 . S
C484 C486 1.478 . S
C485 H479 0.930 . S
C485 C481 1.400 . S
C485 C484 1.385 . S
C486 C484 1.478 . S
C486 C488 1.381 . S
C486 C492 1.383 . S
C487 C483 1.495 . S
C487 H493 0.959 . S
C487 H494 0.961 . S
C487 H495 0.960 . S
C488 C486 1.381 . S
C488 C489 1.394 . S
C488 H496 0.930 . S
C489 C488 1.394 . S
C489 C490 1.383 . S
C489 H497 0.929 . S
C490 C489 1.383 . S
C490 C491 1.377 . S
C491 H475 0.930 . S
C491 C490 1.377 . S
C491 C492 1.379 . S
C492 H476 0.931 . S
C492 C486 1.383 . S
C492 C491 1.379 . S
H493 C487 0.959 . S
H494 C487 0.961 . S
H495 C487 0.960 . S
H496 C488 0.930 . S
H497 C489 0.929 . S
H498 C506 0.929 . S
H499 C508 0.930 . S
H500 C510 0.930 . S
H501 C513 0.929 . S
H502 C516 0.930 . S
H503 C518 0.960 . S
H504 C518 0.960 . S
H505 C518 0.960 . S
C506 H498 0.929 . S
C506 C507 1.377 . S
C506 C508 1.384 . S
C507 C506 1.377 . S
C507 C513 1.390 . S
C508 H499 0.930 . S
C508 C506 1.384 . S
C508 C509 1.372 . S
C509 C508 1.372 . S
C509 C510 1.400 . S
C509 C514 1.490 . S
C510 H500 0.930 . S
C510 C509 1.400 . S
C510 C513 1.386 . S
H511 C527 0.930 . S
H512 C528 0.931 . S
C513 H501 0.929 . S
C513 C507 1.390 . S
C513 C510 1.386 . S
C514 C509 1.490 . S
C514 C516 1.395 . S
C514 C517 1.403 . S
H515 C521 0.930 . S
C516 H502 0.930 . S
C516 C514 1.395 . S
C516 C519 1.403 . S
C517 C514 1.403 . S
C517 C518 1.524 . S
C517 C521 1.400 . S
C518 H503 0.960 . S
C518 H504 0.960 . S
C518 H505 0.960 . S
C518 C517 1.524 . S
C519 C516 1.403 . S
C519 C520 1.392 . S
C519 C523 1.495 . S
C520 C519 1.392 . S
C520 C521 1.385 . S
C520 C522 1.478 . S
C521 H515 0.930 . S
C521 C517 1.400 . S
C521 C520 1.385 . S
C522 C520 1.478 . S
C522 C524 1.381 . S
C522 C528 1.383 . S
C523 C519 1.495 . S
C523 H529 0.959 . S
C523 H530 0.961 . S
C523 H531 0.960 . S
C524 C522 1.381 . S
C524 C525 1.394 . S
C524 H532 0.930 . S
C525 C524 1.394 . S
C525 C526 1.383 . S
C525 H533 0.929 . S
C526 C525 1.383 . S
C526 C527 1.377 . S
C527 H511 0.930 . S
C527 C526 1.377 . S
C527 C528 1.379 . S
C528 H512 0.931 . S
C528 C522 1.383 . S
C528 C527 1.379 . S
H529 C523 0.959 . S
H530 C523 0.961 . S
H531 C523 0.960 . S
H532 C524 0.930 . S
H533 C525 0.929 . S
H534 C542 0.929 . S
H535 C544 0.930 . S
H536 C546 0.930 . S
H537 C549 0.929 . S
H538 C552 0.930 . S
H539 C554 0.960 . S
H540 C554 0.960 . S
H541 C554 0.960 . S
C542 H534 0.929 . S
C542 C543 1.377 . S
C542 C544 1.384 . S
C543 C542 1.377 . S
C543 C549 1.390 . S
C544 H535 0.930 . S
C544 C542 1.384 . S
C544 C545 1.372 . S
C545 C544 1.372 . S
C545 C546 1.400 . S
C545 C550 1.490 . S
C546 H536 0.930 . S
C546 C545 1.400 . S
C546 C549 1.386 . S
H547 C563 0.930 . S
H548 C564 0.931 . S
C549 H537 0.929 . S
C549 C543 1.390 . S
C549 C546 1.386 . S
C550 C545 1.490 . S
C550 C552 1.395 . S
C550 C553 1.403 . S
H551 C557 0.930 . S
C552 H538 0.930 . S
C552 C550 1.395 . S
C552 C555 1.403 . S
C553 C550 1.403 . S
C553 C554 1.524 . S
C553 C557 1.400 . S
C554 H539 0.960 . S
C554 H540 0.960 . S
C554 H541 0.960 . S
C554 C553 1.524 . S
C555 C552 1.403 . S
C555 C556 1.392 . S
C555 C559 1.495 . S
C556 C555 1.392 . S
C556 C557 1.385 . S
C556 C558 1.478 . S
C557 H551 0.930 . S
C557 C553 1.400 . S
C557 C556 1.385 . S
C558 C556 1.478 . S
C558 C560 1.381 . S
C558 C564 1.383 . S
C559 C555 1.495 . S
C559 H565 0.959 . S
C559 H566 0.961 . S
C559 H567 0.960 . S
C560 C558 1.381 . S
C560 C561 1.394 . S
C560 H568 0.930 . S
C561 C560 1.394 . S
C561 C562 1.383 . S
C561 H569 0.929 . S
C562 C561 1.383 . S
C562 C563 1.377 . S
C563 H547 0.930 . S
C563 C562 1.377 . S
C563 C564 1.379 . S
C564 H548 0.931 . S
C564 C558 1.383 . S
C564 C563 1.379 . S
H565 C559 0.959 . S
H566 C559 0.961 . S
H567 C559 0.960 . S
H568 C560 0.930 . S
H569 C561 0.929 . S
H570 C578 0.929 . S
H571 C580 0.930 . S
H572 C582 0.930 . S
H573 C585 0.929 . S
H574 C588 0.930 . S
H575 C590 0.960 . S
H576 C590 0.960 . S
H577 C590 0.960 . S
C578 H570 0.929 . S
C578 C579 1.377 . S
C578 C580 1.384 . S
C579 C578 1.377 . S
C579 C585 1.390 . S
C580 H571 0.930 . S
C580 C578 1.384 . S
C580 C581 1.372 . S
C581 C580 1.372 . S
C581 C582 1.400 . S
C581 C586 1.490 . S
C582 H572 0.930 . S
C582 C581 1.400 . S
C582 C585 1.386 . S
H583 C599 0.930 . S
H584 C600 0.931 . S
C585 H573 0.929 . S
C585 C579 1.390 . S
C585 C582 1.386 . S
C586 C581 1.490 . S
C586 C588 1.395 . S
C586 C589 1.403 . S
H587 C593 0.930 . S
C588 H574 0.930 . S
C588 C586 1.395 . S
C588 C591 1.403 . S
C589 C586 1.403 . S
C589 C590 1.524 . S
C589 C593 1.400 . S
C590 H575 0.960 . S
C590 H576 0.960 . S
C590 H577 0.960 . S
C590 C589 1.524 . S
C591 C588 1.403 . S
C591 C592 1.392 . S
C591 C595 1.495 . S
C592 C591 1.392 . S
C592 C593 1.385 . S
C592 C594 1.478 . S
C593 H587 0.930 . S
C593 C589 1.400 . S
C593 C592 1.385 . S
C594 C592 1.478 . S
C594 C596 1.381 . S
C594 C600 1.383 . S
C595 C591 1.495 . S
C595 H601 0.959 . S
C595 H602 0.961 . S
C595 H603 0.960 . S
C596 C594 1.381 . S
C596 C597 1.394 . S
C596 H604 0.930 . S
C597 C596 1.394 . S
C597 C598 1.383 . S
C597 H605 0.929 . S
C598 C597 1.383 . S
C598 C599 1.377 . S
C599 H583 0.930 . S
C599 C598 1.377 . S
C599 C600 1.379 . S
C600 H584 0.931 . S
C600 C594 1.383 . S
C600 C599 1.379 . S
H601 C595 0.959 . S
H602 C595 0.961 . S
H603 C595 0.960 . S
H604 C596 0.930 . S
H605 C597 0.929 . S
H606 C614 0.929 . S
H607 C616 0.930 . S
H608 C618 0.930 . S
H609 C621 0.929 . S
H610 C624 0.930 . S
H611 C626 0.960 . S
H612 C626 0.960 . S
H613 C626 0.960 . S
C614 H606 0.929 . S
C614 C615 1.377 . S
C614 C616 1.384 . S
C615 C614 1.377 . S
C615 C621 1.390 . S
C616 H607 0.930 . S
C616 C614 1.384 . S
C616 C617 1.372 . S
C617 C616 1.372 . S
C617 C618 1.400 . S
C617 C622 1.490 . S
C618 H608 0.930 . S
C618 C617 1.400 . S
C618 C621 1.386 . S
H619 C635 0.930 . S
H620 C636 0.931 . S
C621 H609 0.929 . S
C621 C615 1.390 . S
C621 C618 1.386 . S
C622 C617 1.490 . S
C622 C624 1.395 . S
C622 C625 1.403 . S
H623 C629 0.930 . S
C624 H610 0.930 . S
C624 C622 1.395 . S
C624 C627 1.403 . S
C625 C622 1.403 . S
C625 C626 1.524 . S
C625 C629 1.400 . S
C626 H611 0.960 . S
C626 H612 0.960 . S
C626 H613 0.960 . S
C626 C625 1.524 . S
C627 C624 1.403 . S
C627 C628 1.392 . S
C627 C631 1.495 . S
C628 C627 1.392 . S
C628 C629 1.385 . S
C628 C630 1.478 . S
C629 H623 0.930 . S
C629 C625 1.400 . S
C629 C628 1.385 . S
C630 C628 1.478 . S
C630 C632 1.381 . S
C630 C636 1.383 . S
C631 C627 1.495 . S
C631 H637 0.959 . S
C631 H638 0.961 . S
C631 H639 0.960 . S
C632 C630 1.381 . S
C632 C633 1.394 . S
C632 H640 0.930 . S
C633 C632 1.394 . S
C633 C634 1.383 . S
C633 H641 0.929 . S
C634 C633 1.383 . S
C634 C635 1.377 . S
C635 H619 0.930 . S
C635 C634 1.377 . S
C635 C636 1.379 . S
C636 H620 0.931 . S
C636 C630 1.383 . S
C636 C635 1.379 . S
H637 C631 0.959 . S
H638 C631 0.961 . S
H639 C631 0.960 . S
H640 C632 0.930 . S
H641 C633 0.929 . S
H642 C650 0.929 . S
H643 C652 0.930 . S
H644 C654 0.930 . S
H645 C657 0.929 . S
H646 C660 0.930 . S
H647 C662 0.960 . S
H648 C662 0.960 . S
H649 C662 0.960 . S
C650 H642 0.929 . S
C650 C651 1.377 . S
C650 C652 1.384 . S
C651 C650 1.377 . S
C651 C657 1.390 . S
C652 H643 0.930 . S
C652 C650 1.384 . S
C652 C653 1.372 . S
C653 C652 1.372 . S
C653 C654 1.400 . S
C653 C658 1.490 . S
C654 H644 0.930 . S
C654 C653 1.400 . S
C654 C657 1.386 . S
H655 C671 0.930 . S
H656 C672 0.931 . S
C657 H645 0.929 . S
C657 C651 1.390 . S
C657 C654 1.386 . S
C658 C653 1.490 . S
C658 C660 1.395 . S
C658 C661 1.403 . S
H659 C665 0.930 . S
C660 H646 0.930 . S
C660 C658 1.395 . S
C660 C663 1.403 . S
C661 C658 1.403 . S
C661 C662 1.524 . S
C661 C665 1.400 . S
C662 H647 0.960 . S
C662 H648 0.960 . S
C662 H649 0.960 . S
C662 C661 1.524 . S
C663 C660 1.403 . S
C663 C664 1.392 . S
C663 C667 1.495 . S
C664 C663 1.392 . S
C664 C665 1.385 . S
C664 C666 1.478 . S
C665 H659 0.930 . S
C665 C661 1.400 . S
C665 C664 1.385 . S
C666 C664 1.478 . S
C666 C668 1.381 . S
C666 C672 1.383 . S
C667 C663 1.495 . S
C667 H673 0.959 . S
C667 H674 0.961 . S
C667 H675 0.960 . S
C668 C666 1.381 . S
C668 C669 1.394 . S
C668 H676 0.930 . S
C669 C668 1.394 . S
C669 C670 1.383 . S
C669 H677 0.929 . S
C670 C669 1.383 . S
C670 C671 1.377 . S
C671 H655 0.930 . S
C671 C670 1.377 . S
C671 C672 1.379 . S
C672 H656 0.931 . S
C672 C666 1.383 . S
C672 C671 1.379 . S
H673 C667 0.959 . S
H674 C667 0.961 . S
H675 C667 0.960 . S
H676 C668 0.930 . S
H677 C669 0.929 . S
H678 C686 0.929 . S
H679 C688 0.930 . S
H680 C690 0.930 . S
H681 C693 0.929 . S
H682 C696 0.930 . S
H683 C698 0.960 . S
H684 C698 0.960 . S
H685 C698 0.960 . S
C686 H678 0.929 . S
C686 C687 1.377 . S
C686 C688 1.384 . S
C687 C686 1.377 . S
C687 C693 1.390 . S
C688 H679 0.930 . S
C688 C686 1.384 . S
C688 C689 1.372 . S
C689 C688 1.372 . S
C689 C690 1.400 . S
C689 C694 1.490 . S
C690 H680 0.930 . S
C690 C689 1.400 . S
C690 C693 1.386 . S
H691 C707 0.930 . S
H692 C708 0.931 . S
C693 H681 0.929 . S
C693 C687 1.390 . S
C693 C690 1.386 . S
C694 C689 1.490 . S
C694 C696 1.395 . S
C694 C697 1.403 . S
H695 C701 0.930 . S
C696 H682 0.930 . S
C696 C694 1.395 . S
C696 C699 1.403 . S
C697 C694 1.403 . S
C697 C698 1.524 . S
C697 C701 1.400 . S
C698 H683 0.960 . S
C698 H684 0.960 . S
C698 H685 0.960 . S
C698 C697 1.524 . S
C699 C696 1.403 . S
C699 C700 1.392 . S
C699 C703 1.495 . S
C700 C699 1.392 . S
C700 C701 1.385 . S
C700 C702 1.478 . S
C701 H695 0.930 . S
C701 C697 1.400 . S
C701 C700 1.385 . S
C702 C700 1.478 . S
C702 C704 1.381 . S
C702 C708 1.383 . S
C703 C699 1.495 . S
C703 H709 0.959 . S
C703 H710 0.961 . S
C703 H711 0.960 . S
C704 C702 1.381 . S
C704 C705 1.394 . S
C704 H712 0.930 . S
C705 C704 1.394 . S
C705 C706 1.383 . S
C705 H713 0.929 . S
C706 C705 1.383 . S
C706 C707 1.377 . S
C707 H691 0.930 . S
C707 C706 1.377 . S
C707 C708 1.379 . S
C708 H692 0.931 . S
C708 C702 1.383 . S
C708 C707 1.379 . S
H709 C703 0.959 . S
H710 C703 0.961 . S
H711 C703 0.960 . S
H712 C704 0.930 . S
H713 C705 0.929 . S
H714 C722 0.929 . S
H715 C724 0.930 . S
H716 C726 0.930 . S
H717 C729 0.929 . S
H718 C732 0.930 . S
H719 C734 0.960 . S
H720 C734 0.960 . S
H721 C734 0.960 . S
C722 H714 0.929 . S
C722 C723 1.377 . S
C722 C724 1.384 . S
C723 C722 1.377 . S
C723 C729 1.390 . S
C724 H715 0.930 . S
C724 C722 1.384 . S
C724 C725 1.372 . S
C725 C724 1.372 . S
C725 C726 1.400 . S
C725 C730 1.490 . S
C726 H716 0.930 . S
C726 C725 1.400 . S
C726 C729 1.386 . S
H727 C743 0.930 . S
H728 C744 0.931 . S
C729 H717 0.929 . S
C729 C723 1.390 . S
C729 C726 1.386 . S
C730 C725 1.490 . S
C730 C732 1.395 . S
C730 C733 1.403 . S
H731 C737 0.930 . S
C732 H718 0.930 . S
C732 C730 1.395 . S
C732 C735 1.403 . S
C733 C730 1.403 . S
C733 C734 1.524 . S
C733 C737 1.400 . S
C734 H719 0.960 . S
C734 H720 0.960 . S
C734 H721 0.960 . S
C734 C733 1.524 . S
C735 C732 1.403 . S
C735 C736 1.392 . S
C735 C739 1.495 . S
C736 C735 1.392 . S
C736 C737 1.385 . S
C736 C738 1.478 . S
C737 H731 0.930 . S
C737 C733 1.400 . S
C737 C736 1.385 . S
C738 C736 1.478 . S
C738 C740 1.381 . S
C738 C744 1.383 . S
C739 C735 1.495 . S
C739 H745 0.959 . S
C739 H746 0.961 . S
C739 H747 0.960 . S
C740 C738 1.381 . S
C740 C741 1.394 . S
C740 H748 0.930 . S
C741 C740 1.394 . S
C741 C742 1.383 . S
C741 H749 0.929 . S
C742 C741 1.383 . S
C742 C743 1.377 . S
C743 H727 0.930 . S
C743 C742 1.377 . S
C743 C744 1.379 . S
C744 H728 0.931 . S
C744 C738 1.383 . S
C744 C743 1.379 . S
H745 C739 0.959 . S
H746 C739 0.961 . S
H747 C739 0.960 . S
H748 C740 0.930 . S
H749 C741 0.929 . S
H750 C758 0.929 . S
H751 C760 0.930 . S
H752 C762 0.930 . S
H753 C765 0.929 . S
H754 C768 0.930 . S
H755 C770 0.960 . S
H756 C770 0.960 . S
H757 C770 0.960 . S
C758 H750 0.929 . S
C758 C759 1.377 . S
C758 C760 1.384 . S
C759 C758 1.377 . S
C759 C765 1.390 . S
C760 H751 0.930 . S
C760 C758 1.384 . S
C760 C761 1.372 . S
C761 C760 1.372 . S
C761 C762 1.400 . S
C761 C766 1.490 . S
C762 H752 0.930 . S
C762 C761 1.400 . S
C762 C765 1.386 . S
H763 C779 0.930 . S
H764 C780 0.931 . S
C765 H753 0.929 . S
C765 C759 1.390 . S
C765 C762 1.386 . S
C766 C761 1.490 . S
C766 C768 1.395 . S
C766 C769 1.403 . S
H767 C773 0.930 . S
C768 H754 0.930 . S
C768 C766 1.395 . S
C768 C771 1.403 . S
C769 C766 1.403 . S
C769 C770 1.524 . S
C769 C773 1.400 . S
C770 H755 0.960 . S
C770 H756 0.960 . S
C770 H757 0.960 . S
C770 C769 1.524 . S
C771 C768 1.403 . S
C771 C772 1.392 . S
C771 C775 1.495 . S
C772 C771 1.392 . S
C772 C773 1.385 . S
C772 C774 1.478 . S
C773 H767 0.930 . S
C773 C769 1.400 . S
C773 C772 1.385 . S
C774 C772 1.478 . S
C774 C776 1.381 . S
C774 C780 1.383 . S
C775 C771 1.495 . S
C775 H781 0.959 . S
C775 H782 0.961 . S
C775 H783 0.960 . S
C776 C774 1.381 . S
C776 C777 1.394 . S
C776 H784 0.930 . S
C777 C776 1.394 . S
C777 C778 1.383 . S
C777 H785 0.929 . S
C778 C777 1.383 . S
C778 C779 1.377 . S
C779 H763 0.930 . S
C779 C778 1.377 . S
C779 C780 1.379 . S
C780 H764 0.931 . S
C780 C774 1.383 . S
C780 C779 1.379 . S
H781 C775 0.959 . S
H782 C775 0.961 . S
H783 C775 0.960 . S
H784 C776 0.930 . S
H785 C777 0.929 . S
H786 C794 0.929 . S
H787 C796 0.930 . S
H788 C798 0.955 . S
H789 C801 0.929 . S
H790 C804 0.930 . S
H791 C806 0.960 . S
H792 C806 0.960 1_455 S
H793 C806 0.960 . S
C794 H786 0.929 . S
C794 C795 1.377 . S
C794 C796 1.384 . S
C795 C794 1.377 . S
C795 C801 1.390 1_455 S
C796 H787 0.930 . S
C796 C794 1.384 . S
C796 C797 1.372 . S
C797 C796 1.372 . S
C797 C798 1.376 1_455 S
C797 C802 1.490 . S
C798 H788 0.955 . S
C798 C797 1.376 1_655 S
C798 C801 1.387 . S
H799 C815 0.930 1_655 S
H800 C816 0.931 1_655 S
C801 H789 0.929 . S
C801 C795 1.390 1_655 S
C801 C798 1.387 . S
C802 C797 1.490 . S
C802 C804 1.395 . S
C802 C805 1.403 . S
H803 C809 0.930 . S
C804 H790 0.930 . S
C804 C802 1.395 . S
C804 C807 1.403 . S
C805 C802 1.403 . S
C805 C806 1.524 1_455 S
C805 C809 1.400 . S
C806 H791 0.960 . S
C806 H792 0.960 1_655 S
C806 H793 0.960 . S
C806 C805 1.524 1_655 S
C807 C804 1.403 . S
C807 C808 1.392 . S
C807 C811 1.495 . S
C808 C807 1.392 . S
C808 C809 1.385 . S
C808 C810 1.478 . S
C809 H803 0.930 . S
C809 C805 1.400 . S
C809 C808 1.385 . S
C810 C808 1.478 . S
C810 C812 1.381 . S
C810 C816 1.383 . S
C811 C807 1.495 . S
C811 H817 0.959 . S
C811 H818 0.961 . S
C811 H819 0.960 . S
C812 C810 1.381 . S
C812 C813 1.394 1_554 S
C812 H820 0.930 . S
C813 C812 1.394 1_556 S
C813 C814 1.383 . S
C813 H821 0.929 . S
C814 C813 1.383 . S
C814 C815 1.377 . S
C815 H799 0.930 1_455 S
C815 C814 1.377 . S
C815 C816 1.379 1_556 S
C816 H800 0.931 1_455 S
C816 C810 1.383 . S
C816 C815 1.379 1_554 S
H817 C811 0.959 . S
H818 C811 0.961 . S
H819 C811 0.960 . S
H820 C812 0.930 . S
H821 C813 0.929 . S
H822 C830 0.929 . S
H823 C832 0.930 . S
H824 C834 0.930 . S
H825 C837 0.929 . S
H826 C840 0.930 . S
H827 C842 0.960 . S
H828 C842 0.960 . S
H829 C842 0.960 . S
C830 H822 0.929 . S
C830 C831 1.377 1_565 S
C830 C832 1.384 . S
C831 C830 1.377 1_545 S
C831 C837 1.390 . S
C832 H823 0.930 . S
C832 C830 1.384 . S
C832 C833 1.372 1_565 S
C833 C832 1.372 1_545 S
C833 C834 1.400 . S
C833 C838 1.490 . S
C834 H824 0.930 . S
C834 C833 1.400 . S
C834 C837 1.386 . S
H835 C851 0.930 . S
H836 C852 0.931 . S
C837 H825 0.929 . S
C837 C831 1.390 . S
C837 C834 1.386 . S
C838 C833 1.490 . S
C838 C840 1.395 1_545 S
C838 C841 1.403 . S
H839 C845 0.930 . S
C840 H826 0.930 . S
C840 C838 1.395 1_565 S
C840 C843 1.403 . S
C841 C838 1.403 . S
C841 C842 1.524 . S
C841 C845 1.400 . S
C842 H827 0.960 . S
C842 H828 0.960 . S
C842 H829 0.960 . S
C842 C841 1.524 . S
C843 C840 1.403 . S
C843 C844 1.392 1_565 S
C843 C847 1.495 . S
C844 C843 1.392 1_545 S
C844 C845 1.385 . S
C844 C846 1.478 . S
C845 H839 0.930 . S
C845 C841 1.400 . S
C845 C844 1.385 . S
C846 C844 1.478 . S
C846 C848 1.381 1_545 S
C846 C852 1.383 . S
C847 C843 1.495 . S
C847 H853 0.959 . S
C847 H854 0.961 . S
C847 H855 0.960 . S
C848 C846 1.381 1_565 S
C848 C849 1.394 . S
C848 H856 0.930 . S
C849 C848 1.394 . S
C849 C850 1.383 1_565 S
C849 H857 0.929 . S
C850 C849 1.383 1_545 S
C850 C851 1.377 . S
C851 H835 0.930 . S
C851 C850 1.377 . S
C851 C852 1.379 . S
C852 H836 0.931 . S
C852 C846 1.383 . S
C852 C851 1.379 . S
H853 C847 0.959 . S
H854 C847 0.961 . S
H855 C847 0.960 . S
H856 C848 0.930 . S
H857 C849 0.929 . S
H858 C866 0.929 . S
H859 C868 0.930 . S
H860 C870 0.930 . S
H861 C873 0.929 . S
H862 C876 0.930 . S
H863 C878 0.960 . S
H864 C878 0.960 . S
H865 C878 0.960 . S
C866 H858 0.929 . S
C866 C867 1.377 . S
C866 C868 1.384 . S
C867 C866 1.377 . S
C867 C873 1.390 . S
C868 H859 0.930 . S
C868 C866 1.384 . S
C868 C869 1.372 . S
C869 C868 1.372 . S
C869 C870 1.400 . S
C869 C874 1.490 . S
C870 H860 0.930 . S
C870 C869 1.400 . S
C870 C873 1.386 . S
H871 C887 0.930 . S
H872 C888 0.931 . S
C873 H861 0.929 . S
C873 C867 1.390 . S
C873 C870 1.386 . S
C874 C869 1.490 . S
C874 C876 1.395 . S
C874 C877 1.403 . S
H875 C881 0.930 . S
C876 H862 0.930 . S
C876 C874 1.395 . S
C876 C879 1.403 . S
C877 C874 1.403 . S
C877 C878 1.524 . S
C877 C881 1.400 . S
C878 H863 0.960 . S
C878 H864 0.960 . S
C878 H865 0.960 . S
C878 C877 1.524 . S
C879 C876 1.403 . S
C879 C880 1.392 . S
C879 C883 1.495 . S
C880 C879 1.392 . S
C880 C881 1.385 . S
C880 C882 1.478 . S
C881 H875 0.930 . S
C881 C877 1.400 . S
C881 C880 1.385 . S
C882 C880 1.478 . S
C882 C884 1.381 . S
C882 C888 1.383 . S
C883 C879 1.495 . S
C883 H889 0.959 . S
C883 H890 0.961 . S
C883 H891 0.960 . S
C884 C882 1.381 . S
C884 C885 1.394 . S
C884 H892 0.930 . S
C885 C884 1.394 . S
C885 C886 1.383 . S
C885 H893 0.929 . S
C886 C885 1.383 . S
C886 C887 1.377 . S
C887 H871 0.930 . S
C887 C886 1.377 . S
C887 C888 1.379 . S
C888 H872 0.931 . S
C888 C882 1.383 . S
C888 C887 1.379 . S
H889 C883 0.959 . S
H890 C883 0.961 . S
H891 C883 0.960 . S
H892 C884 0.930 . S
H893 C885 0.929 . S
H894 C902 0.929 . S
H895 C904 0.930 . S
H896 C906 0.930 . S
H897 C909 0.929 . S
H898 C912 0.930 . S
H899 C914 0.960 . S
H900 C914 0.960 . S
H901 C914 0.960 . S
C902 H894 0.929 . S
C902 C903 1.377 . S
C902 C904 1.384 . S
C903 C902 1.377 . S
C903 C909 1.390 . S
C904 H895 0.930 . S
C904 C902 1.384 . S
C904 C905 1.372 . S
C905 C904 1.372 . S
C905 C906 1.400 . S
C905 C910 1.490 . S
C906 H896 0.930 . S
C906 C905 1.400 . S
C906 C909 1.386 . S
H907 C923 0.930 . S
H908 C924 0.931 . S
C909 H897 0.929 . S
C909 C903 1.390 . S
C909 C906 1.386 . S
C910 C905 1.490 . S
C910 C912 1.395 . S
C910 C913 1.403 1_545 S
H911 C917 0.930 . S
C912 H898 0.930 . S
C912 C910 1.395 . S
C912 C915 1.403 . S
C913 C910 1.403 1_565 S
C913 C914 1.524 . S
C913 C917 1.400 . S
C914 H899 0.960 . S
C914 H900 0.960 . S
C914 H901 0.960 . S
C914 C913 1.524 . S
C915 C912 1.403 . S
C915 C916 1.392 . S
C915 C919 1.495 . S
C916 C915 1.392 . S
C916 C917 1.385 1_545 S
C916 C918 1.478 . S
C917 H911 0.930 . S
C917 C913 1.400 . S
C917 C916 1.385 1_565 S
C918 C916 1.478 . S
C918 C920 1.381 . S
C918 C924 1.383 . S
C919 C915 1.495 . S
C919 H925 0.959 . S
C919 H926 0.961 . S
C919 H927 0.960 . S
C920 C918 1.381 . S
C920 C921 1.395 . S
C920 H928 0.930 . S
C921 C920 1.395 . S
C921 C922 1.387 . S
C921 H929 0.924 1_545 S
C922 C921 1.387 . S
C922 C923 1.377 . S
C923 H907 0.930 . S
C923 C922 1.377 . S
C923 C924 1.379 . S
C924 H908 0.931 . S
C924 C918 1.383 . S
C924 C923 1.379 . S
H925 C919 0.959 . S
H926 C919 0.961 . S
H927 C919 0.960 . S
H928 C920 0.930 . S
H929 C921 0.924 1_565 S
H930 C938 0.929 . S
H931 C940 0.930 . S
H932 C942 0.930 . S
H933 C945 0.929 . S
H934 C948 0.930 . S
H935 C950 0.960 . S
H936 C950 0.960 . S
H937 C950 0.960 . S
C938 H930 0.929 . S
C938 C939 1.377 . S
C938 C940 1.384 . S
C939 C938 1.377 . S
C939 C945 1.390 . S
C940 H931 0.930 . S
C940 C938 1.384 . S
C940 C941 1.372 . S
C941 C940 1.372 . S
C941 C942 1.400 . S
C941 C946 1.490 . S
C942 H932 0.930 . S
C942 C941 1.400 . S
C942 C945 1.386 . S
H943 C959 0.930 . S
H944 C960 0.931 . S
C945 H933 0.929 . S
C945 C939 1.390 . S
C945 C942 1.386 . S
C946 C941 1.490 . S
C946 C948 1.395 . S
C946 C949 1.403 . S
H947 C953 0.930 . S
C948 H934 0.930 . S
C948 C946 1.395 . S
C948 C951 1.403 . S
C949 C946 1.403 . S
C949 C950 1.524 . S
C949 C953 1.400 . S
C950 H935 0.960 . S
C950 H936 0.960 . S
C950 H937 0.960 . S
C950 C949 1.524 . S
C951 C948 1.403 . S
C951 C952 1.392 . S
C951 C955 1.495 . S
C952 C951 1.392 . S
C952 C953 1.385 . S
C952 C954 1.478 . S
C953 H947 0.930 . S
C953 C949 1.400 . S
C953 C952 1.385 . S
C954 C952 1.478 . S
C954 C956 1.381 . S
C954 C960 1.383 . S
C955 C951 1.495 . S
C955 H961 0.959 . S
C955 H962 0.961 . S
C955 H963 0.960 . S
C956 C954 1.381 . S
C956 C957 1.394 1_556 S
C956 H964 0.930 . S
C957 C956 1.394 1_554 S
C957 C958 1.383 . S
C957 H965 0.929 . S
C958 C957 1.383 . S
C958 C959 1.377 . S
C959 H943 0.930 . S
C959 C958 1.377 . S
C959 C960 1.379 1_554 S
C960 H944 0.931 . S
C960 C954 1.383 . S
C960 C959 1.379 1_556 S
H961 C955 0.959 . S
H962 C955 0.961 . S
H963 C955 0.960 . S
H964 C956 0.930 . S
H965 C957 0.929 . S
H966 C974 0.929 . S
H967 C976 0.930 . S
H968 C978 0.930 . S
H969 C981 0.929 . S
H970 C984 0.930 . S
H971 C986 0.960 . S
H972 C986 0.960 . S
H973 C986 0.960 . S
C974 H966 0.929 . S
C974 C975 1.377 1_655 S
C974 C976 1.384 . S
C975 C974 1.377 1_455 S
C975 C981 1.390 . S
C976 H967 0.930 . S
C976 C974 1.384 . S
C976 C977 1.372 1_655 S
C977 C976 1.372 1_455 S
C977 C978 1.400 . S
C977 C982 1.490 . S
C978 H968 0.930 . S
C978 C977 1.400 . S
C978 C981 1.386 . S
H979 C995 0.930 . S
H980 C996 0.931 . S
C981 H969 0.929 . S
C981 C975 1.390 . S
C981 C978 1.386 . S
C982 C977 1.490 . S
C982 C984 1.395 1_455 S
C982 C985 1.403 . S
H983 C989 0.930 . S
C984 H970 0.930 . S
C984 C982 1.395 1_655 S
C984 C987 1.403 . S
C985 C982 1.403 . S
C985 C986 1.524 . S
C985 C989 1.400 . S
C986 H971 0.960 . S
C986 H972 0.960 . S
C986 H973 0.960 . S
C986 C985 1.524 . S
C987 C984 1.403 . S
C987 C988 1.392 1_655 S
C987 C991 1.495 . S
C988 C987 1.392 1_455 S
C988 C989 1.385 . S
C988 C990 1.477 1_455 S
C989 H983 0.930 . S
C989 C985 1.400 . S
C989 C988 1.385 . S
C990 C988 1.477 1_655 S
C990 C992 1.388 . S
C990 C996 1.376 1_655 S
C991 C987 1.495 . S
C991 H997 0.959 . S
C991 H998 0.961 . S
C991 H999 0.960 . S
C992 C990 1.388 . S
C992 C993 1.394 . S
C992 H1000 0.930 . S
C993 C992 1.394 . S
C993 C994 1.408 . S
C993 H1001 0.929 . S
C994 C993 1.408 . S
C994 C995 1.351 1_655 S
C995 H979 0.930 . S
C995 C994 1.351 1_455 S
C995 C996 1.379 . S
C996 H980 0.931 . S
C996 C990 1.376 1_455 S
C996 C995 1.379 . S
H997 C991 0.959 . S
H998 C991 0.961 . S
H999 C991 0.960 . S
H1000 C992 0.930 . S
H1001 C993 0.929 . S
C363 C6 0.426 . S
C382 C331 0.412 . S
C399 C59 1.858 . S
C418 C258 1.842 . S
C435 C86 1.143 . S
C454 C297 1.140 . S
C471 C15 0.311 . S
C490 C336 0.284 . S
C526 C253 1.915 . S
C507 C50 1.935 . S
C562 C292 1.237 . S
C543 C95 1.247 . S
C579 C46 1.146 . S
C598 C180 1.135 . S
C615 C99 3.077 . S
C634 C214 3.027 . S
C651 C10 1.962 . S
C670 C136 1.932 . S
C706 C175 1.227 . S
C687 C55 1.218 . S
C742 C219 2.901 . S
C723 C90 2.922 . S
C759 C19 1.848 . S
C778 C141 1.831 . S
C814 C199 1.760 . S
C795 C18 1.688 . S
C831 C49 1.324 . S
C850 C121 1.377 . S
C867 C98 1.451 . S
C886 C160 1.503 . S
C922 C277 1.483 1_545 S
C903 C58 1.443 . S
C958 C316 1.109 . S
C939 C89 1.080 . S
C975 C9 1.331 . S
C994 C238 1.368 . S
