# Generated by pormake.
# Topology pyr, (3,6)-cn, num edge types: 1
# Building blocks:
#     Node 0, Type 0, BuildingBlock: MIDCAF_clean_linker_0, # of connection points: 3
#     Node 1, Type 0, BuildingBlock: MIDCAF_clean_linker_0, # of connection points: 3
#     Node 2, Type 0, BuildingBlock: MIDCAF_clean_linker_0, # of connection points: 3
#     Node 3, Type 0, BuildingBlock: MIDCAF_clean_linker_0, # of connection points: 3
#     Node 4, Type 0, BuildingBlock: MIDCAF_clean_linker_0, # of connection points: 3
#     Node 5, Type 0, BuildingBlock: MIDCAF_clean_linker_0, # of connection points: 3
#     Node 6, Type 0, BuildingBlock: MIDCAF_clean_linker_0, # of connection points: 3
#     Node 7, Type 0, BuildingBlock: MIDCAF_clean_linker_0, # of connection points: 3
#     Node 8, Type 1, BuildingBlock: PAMTUU_clean_sbu_0, # of connection points: 6
#     Node 9, Type 1, BuildingBlock: PAMTUU_clean_sbu_0, # of connection points: 6
#     Node 10, Type 1, BuildingBlock: PAMTUU_clean_sbu_0, # of connection points: 6
#     Node 11, Type 1, BuildingBlock: PAMTUU_clean_sbu_0, # of connection points: 6
#     Edge 12, Type (0, 1), BuildingBlock: OJICUG_clean_linker_0, # of connection points: 2
#     Edge 13, Type (0, 1), BuildingBlock: OJICUG_clean_linker_0, # of connection points: 2
#     Edge 14, Type (0, 1), BuildingBlock: OJICUG_clean_linker_0, # of connection points: 2
#     Edge 15, Type (0, 1), BuildingBlock: OJICUG_clean_linker_0, # of connection points: 2
#     Edge 16, Type (0, 1), BuildingBlock: OJICUG_clean_linker_0, # of connection points: 2
#     Edge 17, Type (0, 1), BuildingBlock: OJICUG_clean_linker_0, # of connection points: 2
#     Edge 18, Type (0, 1), BuildingBlock: OJICUG_clean_linker_0, # of connection points: 2
#     Edge 19, Type (0, 1), BuildingBlock: OJICUG_clean_linker_0, # of connection points: 2
#     Edge 20, Type (0, 1), BuildingBlock: OJICUG_clean_linker_0, # of connection points: 2
#     Edge 21, Type (0, 1), BuildingBlock: OJICUG_clean_linker_0, # of connection points: 2
#     Edge 22, Type (0, 1), BuildingBlock: OJICUG_clean_linker_0, # of connection points: 2
#     Edge 23, Type (0, 1), BuildingBlock: OJICUG_clean_linker_0, # of connection points: 2
#     Edge 24, Type (0, 1), BuildingBlock: OJICUG_clean_linker_0, # of connection points: 2
#     Edge 25, Type (0, 1), BuildingBlock: OJICUG_clean_linker_0, # of connection points: 2
#     Edge 26, Type (0, 1), BuildingBlock: OJICUG_clean_linker_0, # of connection points: 2
#     Edge 27, Type (0, 1), BuildingBlock: OJICUG_clean_linker_0, # of connection points: 2
#     Edge 28, Type (0, 1), BuildingBlock: OJICUG_clean_linker_0, # of connection points: 2
#     Edge 29, Type (0, 1), BuildingBlock: OJICUG_clean_linker_0, # of connection points: 2
#     Edge 30, Type (0, 1), BuildingBlock: OJICUG_clean_linker_0, # of connection points: 2
#     Edge 31, Type (0, 1), BuildingBlock: OJICUG_clean_linker_0, # of connection points: 2
#     Edge 32, Type (0, 1), BuildingBlock: OJICUG_clean_linker_0, # of connection points: 2
#     Edge 33, Type (0, 1), BuildingBlock: OJICUG_clean_linker_0, # of connection points: 2
#     Edge 34, Type (0, 1), BuildingBlock: OJICUG_clean_linker_0, # of connection points: 2
#     Edge 35, Type (0, 1), BuildingBlock: OJICUG_clean_linker_0, # of connection points: 2
# Relax obj value: 0.128
# Max RMSD: 0.142
# Mean RMSD: 0.058
data_MOF--net-pyr--node1-PAMTUU_clean_sbu_0--node2-MIDCAF_clean_linker_0--edge1-OJICUG_clean_linker_0
_symmetry_space_group_name_H-M    P1
_symmetry_Int_Tables_number       1
_symmetry_cell_setting            triclinic
loop_
_symmetry_equiv_pos_as_xyz
'x, y, z'
_cell_length_a     36.210862
_cell_length_b     37.216633
_cell_length_c     35.471955
_cell_angle_alpha  89.928132
_cell_angle_beta   89.406252
_cell_angle_gamma 101.38604
loop_
_atom_site_label
_atom_site_type_symbol
_atom_site_fract_x
_atom_site_fract_y
_atom_site_fract_z
_atom_type_partial_charge
C0 C 0.31092 0.26854 0.37971 0.0
C1 C 0.32686 0.2402 0.39475 0.0
C2 C 0.36193 0.23523 0.38065 0.0
C3 C 0.37824 0.25492 0.34912 0.0
H4 H 0.44048 0.23343 0.26214 0.0
H5 H 0.46919 0.18994 0.22719 0.0
H6 H 0.43996 0.2362 0.12248 0.0
H7 H 0.40997 0.27914 0.15746 0.0
H8 H 0.33442 0.3167 0.1607 0.0
H9 H 0.2829 0.34054 0.13214 0.0
H10 H 0.25927 0.38653 0.23943 0.0
H11 H 0.31087 0.36381 0.26748 0.0
H12 H 0.31263 0.308 0.33575 0.0
H13 H 0.28396 0.27321 0.38986 0.0
H14 H 0.37544 0.21427 0.39232 0.0
H15 H 0.40377 0.24837 0.33722 0.0
N16 N 0.39459 0.2762 0.272 0.0
N17 N 0.37765 0.30222 0.21604 0.0
N18 N 0.34959 0.31329 0.27363 0.0
C19 C 0.39888 0.28124 0.23416 0.0
C20 C 0.35325 0.31876 0.23583 0.0
C21 C 0.37009 0.29214 0.29201 0.0
C22 C 0.42213 0.25944 0.21267 0.0
C23 C 0.44049 0.23478 0.23164 0.0
C24 C 0.45729 0.20988 0.21158 0.0
C25 C 0.45636 0.20911 0.17203 0.0
C26 C 0.44037 0.23547 0.153 0.0
C27 C 0.42338 0.26029 0.17307 0.0
C28 C 0.3266 0.33803 0.21649 0.0
C29 C 0.31875 0.33262 0.17793 0.0
C30 C 0.28898 0.34597 0.16165 0.0
C31 C 0.26667 0.36517 0.18354 0.0
C32 C 0.27597 0.3722 0.22154 0.0
C33 C 0.30552 0.35887 0.23776 0.0
C34 C 0.35981 0.28005 0.33121 0.0
C35 C 0.32734 0.2884 0.34835 0.0
C36 C 0.07977 0.85802 0.71518 0.0
C37 C 0.08058 0.8579 0.6756 0.0
C38 C 0.09648 0.83112 0.65695 0.0
C39 C 0.11347 0.80669 0.67733 0.0
H40 H 0.20161 0.74912 0.66461 0.0
H41 H 0.25278 0.72434 0.63556 0.0
H42 H 0.2774 0.68151 0.74372 0.0
H43 H 0.22611 0.70508 0.77228 0.0
H44 H 0.22259 0.75985 0.83979 0.0
H45 H 0.25106 0.79451 0.89335 0.0
H46 H 0.16119 0.85554 0.89547 0.0
H47 H 0.13311 0.82157 0.84086 0.0
H48 H 0.09668 0.83552 0.76602 0.0
H49 H 0.06795 0.87832 0.73048 0.0
H50 H 0.09681 0.82973 0.62646 0.0
H51 H 0.12677 0.78747 0.66195 0.0
N52 N 0.15911 0.76552 0.72046 0.0
N53 N 0.18677 0.75501 0.77787 0.0
N54 N 0.142 0.79234 0.77618 0.0
C55 C 0.18331 0.74911 0.74021 0.0
C56 C 0.16628 0.7765 0.79615 0.0
C57 C 0.13791 0.78684 0.73848 0.0
C58 C 0.20991 0.72941 0.72087 0.0
C59 C 0.21743 0.7337 0.68197 0.0
C60 C 0.24701 0.71982 0.66539 0.0
C61 C 0.26948 0.7012 0.68734 0.0
C62 C 0.26056 0.69534 0.72579 0.0
C63 C 0.23118 0.70917 0.74228 0.0
C64 C 0.17628 0.78884 0.83509 0.0
C65 C 0.2082 0.77992 0.85219 0.0
C66 C 0.22448 0.7997 0.88325 0.0
C67 C 0.20897 0.82853 0.89803 0.0
C68 C 0.17438 0.83417 0.88399 0.0
C69 C 0.15822 0.81456 0.85274 0.0
C70 C 0.11479 0.80838 0.71688 0.0
C71 C 0.09657 0.83352 0.73556 0.0
C72 C 0.6264 0.26482 0.94988 0.0
C73 C 0.6037 0.23701 0.92877 0.0
C74 C 0.59569 0.24559 0.89122 0.0
C75 C 0.61087 0.28032 0.87523 0.0
H76 H 0.5959 0.36569 0.79262 0.0
H77 H 0.57105 0.39393 0.73899 0.0
H78 H 0.66393 0.48628 0.74512 0.0
H79 H 0.68835 0.45835 0.79933 0.0
H80 H 0.75691 0.45807 0.8636 0.0
H81 H 0.81548 0.48503 0.89587 0.0
H82 H 0.79186 0.39964 0.98021 0.0
H83 H 0.73454 0.37263 0.94806 0.0
H84 H 0.65943 0.31912 0.95142 0.0
H85 H 0.63244 0.26035 0.97914 0.0
H86 H 0.5785 0.22518 0.87374 0.0
H87 H 0.60479 0.28554 0.84614 0.0
N88 N 0.6411 0.35879 0.84852 0.0
N89 N 0.69174 0.40963 0.85207 0.0
N90 N 0.68604 0.36184 0.8962 0.0
C91 C 0.65954 0.39207 0.8346 0.0
C92 C 0.70524 0.39459 0.88298 0.0
C93 C 0.65421 0.34355 0.87955 0.0
C94 C 0.6444 0.40941 0.80085 0.0
C95 C 0.61119 0.39202 0.78267 0.0
C96 C 0.59694 0.40829 0.75144 0.0
C97 C 0.61525 0.4427 0.73699 0.0
C98 C 0.64845 0.46012 0.75526 0.0
C99 C 0.66273 0.44382 0.78649 0.0
C100 C 0.74069 0.41283 0.90275 0.0
C101 C 0.7642 0.44508 0.88904 0.0
C102 C 0.79784 0.46067 0.90775 0.0
C103 C 0.80905 0.44446 0.9407 0.0
C104 C 0.78506 0.41266 0.95459 0.0
C105 C 0.7517 0.39718 0.93604 0.0
C106 C 0.63477 0.30738 0.89621 0.0
C107 C 0.64179 0.29904 0.9339 0.0
C108 C 0.75224 0.65605 0.45352 0.0
C109 C 0.72945 0.62345 0.44051 0.0
C110 C 0.74178 0.60684 0.40821 0.0
C111 C 0.77546 0.62281 0.3892 0.0
H112 H 0.85158 0.60931 0.30101 0.0
H113 H 0.87575 0.5807 0.24685 0.0
H114 H 0.96953 0.6722 0.23805 0.0
H115 H 0.94484 0.70127 0.29175 0.0
H116 H 0.95649 0.76612 0.36727 0.0
H117 H 0.98431 0.82491 0.39683 0.0
H118 H 0.87635 0.82961 0.44727 0.0
H119 H 0.84933 0.77146 0.41912 0.0
H120 H 0.80192 0.69712 0.44586 0.0
H121 H 0.74446 0.66937 0.47867 0.0
H122 H 0.72501 0.58187 0.39706 0.0
H123 H 0.78372 0.60949 0.36425 0.0
N124 N 0.84798 0.65843 0.35209 0.0
N125 N 0.89793 0.7098 0.34691 0.0
N126 N 0.85101 0.7079 0.39339 0.0
C127 C 0.88039 0.67586 0.33433 0.0
C128 C 0.88313 0.72609 0.37649 0.0
C129 C 0.83317 0.67426 0.38183 0.0
C130 C 0.89601 0.65793 0.30118 0.0
C131 C 0.87741 0.6235 0.28766 0.0
C132 C 0.89151 0.6068 0.25647 0.0
C133 C 0.9248 0.62384 0.23748 0.0
C134 C 0.94353 0.6582 0.25118 0.0
C135 C 0.92941 0.67491 0.28239 0.0
C136 C 0.90068 0.76344 0.39108 0.0
C137 C 0.93874 0.77988 0.38453 0.0
C138 C 0.95468 0.81372 0.40148 0.0
C139 C 0.93292 0.83207 0.42528 0.0
C140 C 0.89457 0.81614 0.43031 0.0
C141 C 0.87889 0.78255 0.41377 0.0
C142 C 0.79776 0.65584 0.40197 0.0
C143 C 0.78562 0.67195 0.43462 0.0
C144 C 0.57468 0.84864 0.89956 0.0
C145 C 0.58473 0.85904 0.93665 0.0
C146 C 0.60999 0.8413 0.95568 0.0
C147 C 0.62656 0.81519 0.93723 0.0
H148 H 0.70539 0.74684 0.94952 0.0
H149 H 0.75641 0.72132 0.97693 0.0
H150 H 0.77939 0.67842 0.86786 0.0
H151 H 0.72823 0.70255 0.84105 0.0
H152 H 0.72502 0.75711 0.77374 0.0
H153 H 0.75444 0.79199 0.71999 0.0
H154 H 0.66695 0.85589 0.72082 0.0
H155 H 0.63793 0.8217 0.77561 0.0
H156 H 0.58447 0.81671 0.85178 0.0
H157 H 0.55537 0.8619 0.88418 0.0
H158 H 0.61784 0.84849 0.98449 0.0
H159 H 0.64719 0.80327 0.95212 0.0
N160 N 0.66261 0.76372 0.89485 0.0
N161 N 0.68989 0.75314 0.83671 0.0
N162 N 0.64526 0.79055 0.83948 0.0
C163 C 0.68654 0.74715 0.87445 0.0
C164 C 0.6695 0.77478 0.81894 0.0
C165 C 0.64133 0.78499 0.87729 0.0
C166 C 0.71291 0.72706 0.89299 0.0
C167 C 0.72081 0.73121 0.93166 0.0
C168 C 0.75029 0.71691 0.94729 0.0
C169 C 0.77226 0.69805 0.92457 0.0
C170 C 0.76292 0.69236 0.8864 0.0
C171 C 0.73362 0.70655 0.87089 0.0
C172 C 0.67983 0.78746 0.77992 0.0
C173 C 0.71134 0.7779 0.76197 0.0
C174 C 0.72818 0.79782 0.73082 0.0
C175 C 0.71363 0.82744 0.71678 0.0
C176 C 0.67943 0.83389 0.73174 0.0
C177 C 0.66269 0.81413 0.76306 0.0
C178 C 0.61852 0.8067 0.89922 0.0
C179 C 0.59152 0.82287 0.88098 0.0
C180 C 0.85522 0.23601 0.22175 0.0
C181 C 0.8195 0.24101 0.2104 0.0
C182 C 0.80354 0.26811 0.22822 0.0
C183 C 0.82078 0.28661 0.2596 0.0
H184 H 0.81777 0.36731 0.3432 0.0
H185 H 0.76809 0.3926 0.37261 0.0
H186 H 0.78135 0.335 0.47595 0.0
H187 H 0.83088 0.30853 0.44577 0.0
H188 H 0.91783 0.27515 0.44274 0.0
H189 H 0.94782 0.23002 0.47485 0.0
H190 H 0.94643 0.16902 0.37145 0.0
H191 H 0.91749 0.21372 0.33916 0.0
H192 H 0.89844 0.24766 0.26306 0.0
H193 H 0.86873 0.21603 0.20788 0.0
H194 H 0.77608 0.27274 0.2202 0.0
H195 H 0.80614 0.30512 0.27445 0.0
N196 N 0.84757 0.31058 0.3331 0.0
N197 N 0.87493 0.29505 0.38904 0.0
N198 N 0.88841 0.26936 0.33133 0.0
C199 C 0.85223 0.31451 0.37091 0.0
C200 C 0.89354 0.27268 0.36912 0.0
C201 C 0.86557 0.28817 0.31305 0.0
C202 C 0.82801 0.3355 0.39195 0.0
C203 C 0.81063 0.36042 0.37241 0.0
C204 C 0.78221 0.37522 0.38946 0.0
C205 C 0.77041 0.36566 0.42663 0.0
C206 C 0.78938 0.3425 0.44707 0.0
C207 C 0.81804 0.32764 0.42992 0.0
C208 C 0.915 0.24805 0.38841 0.0
C209 C 0.92441 0.2524 0.42675 0.0
C210 C 0.94164 0.22673 0.44509 0.0
C211 C 0.94909 0.1961 0.42552 0.0
C212 C 0.94073 0.19235 0.38711 0.0
C213 C 0.92421 0.21814 0.36868 0.0
C214 C 0.85408 0.27804 0.27393 0.0
C215 C 0.87232 0.25426 0.25331 0.0
C216 C 0.2372 0.61159 0.18988 0.0
C217 C 0.23048 0.62184 0.15251 0.0
C218 C 0.25824 0.64884 0.13512 0.0
C219 C 0.29066 0.66566 0.1545 0.0
H220 H 0.35608 0.76383 0.15625 0.0
H221 H 0.38272 0.82281 0.12892 0.0
H222 H 0.46871 0.84023 0.214 0.0
H223 H 0.44208 0.77991 0.24146 0.0
H224 H 0.42764 0.71354 0.31484 0.0
H225 H 0.45203 0.68562 0.36948 0.0
H226 H 0.38376 0.58091 0.3408 0.0
H227 H 0.35924 0.60868 0.28654 0.0
H228 H 0.27382 0.61991 0.23793 0.0
H229 H 0.21665 0.59136 0.2048 0.0
H230 H 0.25522 0.65707 0.10624 0.0
H231 H 0.31087 0.68651 0.13988 0.0
N232 N 0.34856 0.70944 0.19994 0.0
N233 N 0.39283 0.71458 0.24852 0.0
N234 N 0.34492 0.66154 0.2436 0.0
C235 C 0.37918 0.72926 0.21736 0.0
C236 C 0.37593 0.68051 0.26185 0.0
C237 C 0.33107 0.67586 0.21252 0.0
C238 C 0.39666 0.7665 0.20146 0.0
C239 C 0.38065 0.77995 0.16954 0.0
C240 C 0.39588 0.81433 0.15379 0.0
C241 C 0.42786 0.83703 0.16917 0.0
C242 C 0.44422 0.82368 0.20102 0.0
C243 C 0.4288 0.78901 0.21698 0.0
C244 C 0.39125 0.66364 0.29578 0.0
C245 C 0.41773 0.68456 0.32009 0.0
C246 C 0.43164 0.66849 0.35175 0.0
C247 C 0.4201 0.63076 0.35996 0.0
C248 C 0.39379 0.60987 0.33552 0.0
C249 C 0.37947 0.626 0.30428 0.0
C250 C 0.2971 0.65584 0.1919 0.0
C251 C 0.27009 0.62814 0.20915 0.0
C252 C 0.13983 0.24821 0.65392 0.0
C253 C 0.1074 0.22588 0.66956 0.0
C254 C 0.09066 0.23931 0.7014 0.0
C255 C 0.10624 0.27378 0.71718 0.0
H256 H 0.10739 0.34884 0.81522 0.0
H257 H 0.08347 0.37724 0.87029 0.0
H258 H 0.15408 0.48099 0.84048 0.0
H259 H 0.17803 0.45284 0.78585 0.0
H260 H 0.26136 0.44185 0.73679 0.0
H261 H 0.31893 0.47084 0.70343 0.0
H262 H 0.2829 0.40489 0.60532 0.0
H263 H 0.2267 0.375 0.63921 0.0
H264 H 0.18016 0.29826 0.65603 0.0
H265 H 0.15325 0.23957 0.62903 0.0
H266 H 0.06577 0.22296 0.71449 0.0
H267 H 0.09271 0.28302 0.7417 0.0
N268 N 0.14278 0.3475 0.74848 0.0
N269 N 0.19119 0.40012 0.74299 0.0
N270 N 0.18742 0.3525 0.69928 0.0
C271 C 0.15995 0.38134 0.76161 0.0
C272 C 0.20508 0.38586 0.71174 0.0
C273 C 0.15651 0.33287 0.7171 0.0
C274 C 0.14481 0.39831 0.79566 0.0
C275 C 0.11787 0.37771 0.82034 0.0
C276 C 0.10426 0.39402 0.85218 0.0
C277 C 0.11664 0.43162 0.86012 0.0
C278 C 0.14343 0.45215 0.83534 0.0
C279 C 0.15741 0.43579 0.80391 0.0
C280 C 0.2393 0.40581 0.69096 0.0
C281 C 0.26572 0.43366 0.70806 0.0
C282 C 0.29881 0.45045 0.68868 0.0
C283 C 0.30626 0.44028 0.6514 0.0
C284 C 0.27915 0.41306 0.63416 0.0
C285 C 0.24649 0.39599 0.65365 0.0
C286 C 0.13886 0.29591 0.70142 0.0
C287 C 0.1552 0.28239 0.66947 0.0
Tb288 Tb 0.05994 0.03416 0.52609 0.0
Tb289 Tb 0.9784 1.02468 0.56913 0.0
C290 C 0.99189 0.96861 0.50658 0.0
C291 C 0.15521 0.07293 0.48639 0.0
C292 C 0.2173 0.12933 0.46939 0.0
C293 C 0.22256 0.09375 0.47781 0.0
C294 C 0.19176 0.0658 0.4861 0.0
C295 C 0.14983 0.1087 0.47971 0.0
C296 C 0.18063 0.13666 0.47112 0.0
C297 C 0.12328 0.04261 0.49359 0.0
O298 O 0.03696 0.0816 0.51049 0.0
O299 O 0.97595 0.05194 0.51524 0.0
O300 O 1.00993 0.07805 0.58738 0.0
O301 O 0.07001 0.06936 0.57603 0.0
O302 O 0.92022 1.01981 0.56226 0.0
O303 O 0.94468 1.02441 0.61773 0.0
O304 O 1.01049 0.99318 0.60354 0.0
O305 O 0.05511 0.98499 0.55954 0.0
O306 O 0.0204 0.99338 0.49335 0.0
O307 O 0.97577 0.97324 0.53916 0.0
C308 C 1.00137 0.07956 0.50296 0.0
O309 O 0.1175 0.03279 0.52877 0.0
O310 O 0.09193 0.0438 0.47617 0.0
C311 C 0.04654 0.08783 0.59205 0.0
C312 C 0.8829 0.98997 0.61149 0.0
C313 C 0.82265 0.93522 0.63675 0.0
C314 C 0.81671 0.97031 0.62721 0.0
C315 C 0.84662 0.99743 0.61476 0.0
C316 C 0.88897 0.95478 0.61989 0.0
C317 C 0.85904 0.92759 0.63254 0.0
C318 C 0.91364 1.0191 0.5984 0.0
C319 C 0.03753 0.97677 0.59181 0.0
H320 H 0.25046 0.08733 0.47733 0.0
H321 H 0.19643 0.03843 0.49173 0.0
H322 H 0.1218 0.11484 0.48029 0.0
H323 H 0.1755 0.16362 0.46439 0.0
H324 H 0.78895 0.97689 0.62959 0.0
H325 H 0.84145 1.02437 0.60784 0.0
H326 H 0.91685 0.94851 0.61709 0.0
H327 H 0.86463 0.90097 0.64005 0.0
Tb328 Tb 0.55822 0.03985 0.06876 0.0
Tb329 Tb 0.4774 1.03086 1.02548 0.0
C330 C 0.5361 0.98383 1.00356 0.0
C331 C 0.6524 0.07591 0.11038 0.0
C332 C 0.71169 0.13235 0.13287 0.0
C333 C 0.71896 0.09839 0.12087 0.0
C334 C 0.68953 0.07042 0.10983 0.0
C335 C 0.64495 0.11005 0.12114 0.0
C336 C 0.67439 0.13805 0.13246 0.0
C337 C 0.62221 0.04602 0.09841 0.0
O338 O 0.56282 0.0907 1.03688 0.0
O339 O 0.51719 0.07202 0.99248 0.0
O340 O 0.48233 0.08025 0.05832 0.0
O341 O 0.52564 0.07173 0.10261 0.0
O342 O 0.44576 1.02161 0.97601 0.0
O343 O 0.41998 0.03281 1.02897 0.0
O344 O 0.46627 0.99469 0.07514 0.0
O345 O 0.52618 0.98661 0.08763 0.0
O346 O 0.56181 1.01066 1.01637 0.0
O347 O 0.50026 0.98348 1.00901 0.0
C348 C 0.54663 0.09584 1.00479 0.0
O349 O 0.5907 0.041 0.11765 0.0
O350 O 0.61649 0.04405 0.06227 0.0
C351 C 0.49926 0.08851 0.09049 0.0
C352 C 0.38209 0.99334 0.98708 0.0
C353 C 0.31934 0.93786 0.97104 0.0
C354 C 0.31468 0.97365 0.97936 0.0
C355 C 0.34582 1.00114 0.98718 0.0
C356 C 0.38685 0.95736 0.98048 0.0
C357 C 0.35572 0.92985 0.97238 0.0
C358 C 0.41437 1.0232 0.99385 0.0
C359 C 0.48942 0.97634 0.09157 0.0
H360 H 0.7474 0.09332 0.12027 0.0
H361 H 0.69576 0.04437 0.10097 0.0
H362 H 0.61641 0.1149 0.1212 0.0
H363 H 0.66778 0.16372 0.14193 0.0
H364 H 0.28701 0.98059 0.97917 0.0
H365 H 0.34163 1.02869 0.99276 0.0
H366 H 0.41466 0.9507 0.98077 0.0
H367 H 0.36037 0.9027 0.96571 0.0
Tb368 Tb 0.51756 0.4975 0.52377 0.0
Tb369 Tb 0.51843 0.57285 0.57077 0.0
C370 C 0.48184 0.56266 0.48961 0.0
C371 C 0.55866 0.42506 0.48036 0.0
C372 C 0.62861 0.40422 0.46784 0.0
C373 C 0.60996 0.41783 0.43811 0.0
C374 C 0.57525 0.42788 0.44425 0.0
C375 C 0.57669 0.4102 0.50989 0.0
C376 C 0.61126 0.39964 0.50358 0.0
C377 C 0.52498 0.44118 0.48732 0.0
O378 O 0.57585 0.5274 0.52164 0.0
O379 O 0.56654 0.58563 0.53198 0.0
O380 O 0.55635 0.54425 0.60218 0.0
O381 O 0.53328 0.486 0.58141 0.0
O382 O 0.52206 0.62994 0.57183 0.0
O383 O 0.51503 0.59835 0.62317 0.0
O384 O 0.46858 0.53444 0.5908 0.0
O385 O 0.45944 0.49073 0.54419 0.0
O386 O 0.49869 0.53487 0.4834 0.0
O387 O 0.48045 0.57639 0.52368 0.0
C388 C 0.58728 0.56307 0.51886 0.0
O389 O 0.51186 0.44012 0.52173 0.0
O390 O 0.52614 0.47315 0.47193 0.0
C391 C 0.55258 0.50842 0.60605 0.0
C392 C 0.47936 0.64462 0.61796 0.0
C393 C 0.41031 0.6645 0.63774 0.0
C394 C 0.4327 0.65258 0.66543 0.0
C395 C 0.46694 0.64294 0.65567 0.0
C396 C 0.45753 0.65768 0.59039 0.0
C397 C 0.42344 0.66768 0.60024 0.0
C398 C 0.51297 0.62955 0.6075 0.0
C399 C 0.44778 0.50583 0.57451 0.0
H400 H 0.62245 0.42104 0.41012 0.0
H401 H 0.56195 0.43909 0.42097 0.0
H402 H 0.56475 0.40773 0.53812 0.0
H403 H 0.62508 0.38916 0.52694 0.0
H404 H 0.42359 0.65045 0.69467 0.0
H405 H 0.48321 0.63312 0.6775 0.0
H406 H 0.46617 0.65923 0.56101 0.0
H407 H 0.40673 0.6767 0.57831 0.0
Tb408 Tb 0.0219 0.56737 1.02358 0.0
Tb409 Tb 0.01847 0.49161 0.07077 0.0
C410 C 0.05643 0.5015 0.98976 0.0
C411 C 0.98384 0.64113 0.98009 0.0
C412 C 0.91438 0.66179 0.96608 0.0
C413 C 0.93651 0.65274 0.93613 0.0
C414 C 0.971 0.64274 0.94306 0.0
C415 C 0.96234 0.65148 1.01001 0.0
C416 C 0.92803 0.66201 1.00299 0.0
C417 C 0.0169 0.62439 0.98712 0.0
O418 O 0.96314 0.53851 1.02093 0.0
O419 O 0.97069 0.47983 1.03228 0.0
O420 O 0.98077 0.52083 0.10214 0.0
O421 O 1.00533 0.57889 0.08106 0.0
O422 O 1.01422 0.43444 0.07162 0.0
O423 O 0.02007 0.46546 0.1231 0.0
O424 O 0.06821 0.52937 0.09128 0.0
O425 O 0.07954 0.57288 1.04426 0.0
O426 O 0.03996 0.52939 0.98336 0.0
O427 O 0.05752 0.48808 1.02396 0.0
C428 C 0.95089 0.50289 1.01865 0.0
O429 O 0.02898 0.62487 1.02162 0.0
O430 O 1.01546 0.59247 0.97167 0.0
C431 C 0.98532 0.5567 0.10584 0.0
C432 C 0.05584 0.41918 0.11768 0.0
C433 C 0.12498 0.39972 0.1365 0.0
C434 C 0.103 0.41278 0.16424 0.0
C435 C 0.06872 0.42222 0.15497 0.0
C436 C 0.07716 0.4048 0.09017 0.0
C437 C 0.11131 0.39504 0.09954 0.0
C438 C 0.02245 0.43441 0.10731 0.0
C439 C 0.08999 0.55772 0.07497 0.0
H440 H 0.92682 0.65287 0.90734 0.0
H441 H 0.98699 0.63484 0.91955 0.0
H442 H 0.97128 0.65024 1.03895 0.0
H443 H 0.91144 0.66884 1.02654 0.0
H444 H 0.11251 0.41605 0.19311 0.0
H445 H 0.05284 0.43302 0.17679 0.0
H446 H 0.06815 0.40212 0.06111 0.0
H447 H 0.12768 0.38508 0.07758 0.0
C448 C 0.30216 0.17479 0.4119 0.0
C449 C 0.30381 0.21212 0.41961 0.0
H450 H 0.2734 0.11971 0.42103 0.0
C451 C 0.27934 0.2218 0.44714 0.0
H452 H 0.31997 0.16629 0.39033 0.0
C453 C 0.25232 0.19482 0.46485 0.0
C454 C 0.24927 0.15768 0.45535 0.0
H455 H 0.28017 0.2503 0.45397 0.0
H456 H 0.23312 0.20314 0.48516 0.0
C457 C 0.27525 0.14795 0.42951 0.0
C458 C 0.25592 0.84622 0.95001 0.0
C459 C 0.23212 0.85635 0.92256 0.0
H460 H 0.30187 0.86415 0.98753 0.0
C461 C 0.2346 0.89376 0.91457 0.0
H462 H 0.25442 0.81765 0.95708 0.0
C463 C 0.26173 0.92022 0.93178 0.0
C464 C 0.28708 0.91001 0.95749 0.0
H465 H 0.21733 0.9026 0.89305 0.0
H466 H 0.26425 0.94852 0.92309 0.0
C467 C 0.28316 0.87281 0.96731 0.0
C468 C 0.58142 0.4382 0.67375 0.0
C469 C 0.59991 0.46 0.7031 0.0
H470 H 0.55271 0.43581 0.62094 0.0
C471 C 0.60332 0.49839 0.69957 0.0
H472 H 0.57861 0.4087 0.67452 0.0
C473 C 0.5885 0.51418 0.66826 0.0
C474 C 0.56972 0.49221 0.63921 0.0
H475 H 0.61687 0.51643 0.72143 0.0
H476 H 0.59145 0.54369 0.66707 0.0
C477 C 0.56666 0.45393 0.64255 0.0
C478 C 0.93595 0.56775 0.20058 0.0
C479 C 0.93965 0.60619 0.20348 0.0
H480 H 0.94709 0.52205 0.16821 0.0
C481 C 0.95774 0.62769 0.17334 0.0
H482 H 0.92268 0.55001 0.22311 0.0
C483 C 0.97191 0.61157 0.14187 0.0
C484 C 0.96857 0.57324 0.13913 0.0
H485 H 0.96068 0.6572 0.17372 0.0
H486 H 0.98564 0.62941 0.11959 0.0
C487 C 0.95015 0.55158 0.16898 0.0
C488 C 0.50053 0.16507 0.16178 0.0
C489 C 0.4687 0.17893 0.15094 0.0
H490 H 0.53532 0.12549 0.15132 0.0
C491 C 0.4471 0.16235 0.12071 0.0
H492 H 0.51788 0.17732 0.18489 0.0
C493 C 0.45706 0.13295 0.10162 0.0
C494 C 0.48885 0.11905 0.11225 0.0
H495 H 0.42187 0.17156 0.11218 0.0
H496 H 0.43946 0.12096 0.07857 0.0
C497 C 0.51051 0.13537 0.14262 0.0
C498 C 0.03628 0.90161 0.66495 0.0
C499 C 0.06817 0.88761 0.65396 0.0
H500 H 1.0014 0.94087 0.65406 0.0
C501 C 0.08975 0.90357 0.62295 0.0
H502 H 0.01897 0.88982 0.68866 0.0
C503 C 0.07974 0.93255 0.60329 0.0
C504 C 0.0479 0.9466 0.61408 0.0
H505 H 0.11501 0.89423 0.61424 0.0
H506 H 0.09734 0.94408 0.57965 0.0
C507 C 0.02623 0.93086 0.64519 0.0
C508 C 0.85931 0.49797 0.96337 0.0
C509 C 0.84554 0.45988 0.96048 0.0
H510 H 0.90254 0.54136 0.98403 0.0
C511 C 0.86687 0.43636 0.97727 0.0
H512 H 0.84377 0.51713 0.95127 0.0
C513 C 0.90048 0.45027 0.99635 0.0
C514 C 0.91416 0.48828 0.9994 0.0
H515 H 0.85791 0.40691 0.97525 0.0
H516 H 0.91591 0.43103 1.0085 0.0
C517 C 0.89301 0.51193 0.98256 0.0
C518 C 0.67032 0.6307 0.47609 0.0
C519 C 0.69295 0.60756 0.46051 0.0
H520 H 0.62003 0.6352 0.50654 0.0
C521 C 0.68047 0.56941 0.46471 0.0
H522 H 0.67836 0.66016 0.47299 0.0
C523 C 0.6466 0.55497 0.48399 0.0
C524 C 0.62412 0.57824 0.49961 0.0
H525 H 0.69711 0.5506 0.45354 0.0
H526 H 0.63799 0.52549 0.48649 0.0
C527 C 0.63657 0.61631 0.49532 0.0
C528 C 0.20773 0.35149 0.14479 0.0
C529 C 0.23224 0.37572 0.16803 0.0
H530 H 0.15445 0.33992 0.11687 0.0
C531 C 0.22202 0.4088 0.17887 0.0
H532 H 0.21444 0.32557 0.1363 0.0
C533 C 0.18749 0.41672 0.16815 0.0
C534 C 0.16244 0.39192 0.14607 0.0
H535 H 0.24051 0.42842 0.19612 0.0
H536 H 0.18029 0.44227 0.17729 0.0
C537 C 0.17324 0.35958 0.13382 0.0
C538 C 0.55402 0.17782 0.93689 0.0
C539 C 0.58933 0.19952 0.9462 0.0
H540 H 0.51288 0.12841 0.94755 0.0
C541 C 0.61084 0.18532 0.9734 0.0
H542 H 0.5363 0.18749 0.91638 0.0
C543 C 0.59715 0.15175 0.99161 0.0
C544 C 0.5616 0.13051 0.98303 0.0
H545 H 0.6386 0.20014 0.98084 0.0
H546 H 0.61464 0.14248 1.01266 0.0
C547 C 0.54044 0.1438 0.95493 0.0
C548 C 0.97743 0.8946 0.42948 0.0
C549 C 0.94955 0.86695 0.44589 0.0
H550 H 1.01252 0.94825 0.43522 0.0
C551 C 0.93677 0.87315 0.48255 0.0
H552 H 0.98799 0.89115 0.40133 0.0
C553 C 0.95046 0.9059 0.50171 0.0
C554 C 0.97781 0.93382 0.48522 0.0
H555 H 0.91615 0.85244 0.49684 0.0
H556 H 0.93953 0.90916 0.52977 0.0
C557 C 0.99137 0.92756 0.44888 0.0
C558 C 0.32791 0.71331 0.64646 0.0
C559 C 0.30365 0.68999 0.67129 0.0
H560 H 0.38078 0.72369 0.61661 0.0
C561 C 0.3139 0.65724 0.68308 0.0
H562 H 0.32118 0.73897 0.63719 0.0
C563 C 0.34823 0.6488 0.67171 0.0
C564 C 0.37302 0.67273 0.64801 0.0
H565 H 0.29559 0.63827 0.70156 0.0
H566 H 0.35547 0.62356 0.68163 0.0
C567 C 0.36217 0.70469 0.63483 0.0
C568 C 0.76011 0.84412 0.6632 0.0
C569 C 0.73723 0.85485 0.69164 0.0
H570 H 0.80483 0.86117 0.62305 0.0
C571 C 0.74069 0.89238 0.69947 0.0
H572 H 0.75789 0.81544 0.65628 0.0
C573 C 0.76751 0.9184 0.68066 0.0
C574 C 0.79159 0.90761 0.65349 0.0
H575 H 0.72421 0.90166 0.72177 0.0
H576 H 0.77061 0.94686 0.68885 0.0
C577 C 0.78707 0.87026 0.64431 0.0
C578 C 0.77075 0.22458 0.15983 0.0
C579 C 0.79613 0.21395 0.18531 0.0
H580 H 0.72442 0.20707 0.12265 0.0
C581 C 0.79552 0.1764 0.19064 0.0
H582 H 0.77074 0.2533 0.1549 0.0
C583 C 0.76903 0.1501 0.17246 0.0
C584 C 0.74244 0.16061 0.14841 0.0
H585 H 0.81401 0.16715 0.21069 0.0
H586 H 0.76817 0.12149 0.1789 0.0
C587 C 0.74415 0.19813 0.14153 0.0
C588 C 0.44491 0.57822 0.39068 0.0
C589 C 0.43547 0.61316 0.39351 0.0
H590 H 0.46685 0.53528 0.41784 0.0
C591 C 0.44085 0.63094 0.42874 0.0
H592 H 0.44164 0.5636 0.36418 0.0
C593 C 0.45499 0.61437 0.4599 0.0
C594 C 0.46487 0.57963 0.45687 0.0
H595 H 0.4337 0.65763 0.43244 0.0
H596 H 0.45868 0.62915 0.48631 0.0
C597 C 0.45959 0.56192 0.42163 0.0
C598 C 0.09274 0.48468 0.89056 0.0
C599 C 0.10163 0.44956 0.89368 0.0
H600 H 0.07164 0.52825 0.91764 0.0
C601 C 0.09618 0.43205 0.92917 0.0
H602 H 0.09613 0.49904 0.8638 0.0
C603 C 0.08245 0.44911 0.9604 0.0
C604 C 0.07313 0.48404 0.95709 0.0
H605 H 0.10294 0.40522 0.93297 0.0
H606 H 0.07859 0.43459 0.98708 0.0
C607 C 0.07851 0.50147 0.92159 0.0
C608 C 0.59765 0.91832 0.97157 0.0
C609 C 0.57161 0.89052 0.95412 0.0
H610 H 0.60704 0.96968 1.00017 0.0
C611 C 0.53373 0.89403 0.95206 0.0
H612 H 0.62715 0.91668 0.97299 0.0
C613 C 0.52207 0.92455 0.96769 0.0
C614 C 0.54822 0.95235 0.98515 0.0
H615 H 0.51308 0.87298 0.93872 0.0
H616 H 0.49261 0.9263 0.96616 0.0
C617 C 0.58615 0.94892 0.98675 0.0
C618 C 0.94212 0.13062 0.44419 0.0
C619 C 0.9631 0.16659 0.44528 0.0
H620 H 0.93776 0.07492 0.46179 0.0
C621 C 0.99734 0.17378 0.46467 0.0
H622 H 0.91556 0.12451 0.42945 0.0
C623 C 1.01051 0.14524 0.48252 0.0
C624 C 0.98915 0.10931 0.48192 0.0
H625 H 1.01399 0.20135 0.46568 0.0
H626 H 0.03692 0.15141 0.49751 0.0
C627 C 0.95482 0.10232 0.46266 0.0
C628 C 0.17912 0.62509 0.10448 0.0
C629 C 0.19482 0.60499 0.13183 0.0
H630 H 0.13468 0.62622 0.06502 0.0
C631 C 0.1759 0.5687 0.13913 0.0
H632 H 0.19193 0.65328 0.09825 0.0
C633 C 0.14243 0.55341 0.12038 0.0
C634 C 0.12684 0.57361 0.09323 0.0
H635 H 0.18699 0.55175 0.1592 0.0
H636 H 0.12877 0.52553 0.1272 0.0
C637 C 0.14592 0.60958 0.08534 0.0
C638 C 0.35993 0.4941 0.63739 0.0
C639 C 0.34207 0.45749 0.63069 0.0
H640 H 0.4066 0.53788 0.62511 0.0
C641 C 0.359 0.4374 0.60405 0.0
H642 H 0.34777 0.51097 0.6569 0.0
C643 C 0.39254 0.45326 0.58504 0.0
C644 C 0.41062 0.48955 0.59242 0.0
H645 H 0.34689 0.40899 0.59836 0.0
H646 H 0.40485 0.43669 0.56529 0.0
C647 C 0.39372 0.50975 0.61878 0.0
C648 C 0.83121 0.70966 0.96343 0.0
C649 C 0.8065 0.68658 0.93935 0.0
H650 H 0.88489 0.71992 0.99075 0.0
C651 C 0.81656 0.65399 0.92664 0.0
H652 H 0.8246 0.73516 0.97343 0.0
C653 C 0.85129 0.64573 0.93596 0.0
C654 C 0.87658 0.66958 0.95864 0.0
H655 H 0.79789 0.63515 0.90878 0.0
H656 H 0.85857 0.6208 0.92511 0.0
C657 C 0.86585 0.70112 0.97316 0.0
C658 C 0.48297 0.88754 0.14887 0.0
C659 C 0.44382 0.87396 0.15144 0.0
H660 H 0.52793 0.92978 0.1283 0.0
C661 C 0.41992 0.89549 0.13543 0.0
H662 H 0.5025 0.87191 0.16036 0.0
C663 C 0.43455 0.92875 0.11678 0.0
C664 C 0.47368 0.94188 0.11346 0.0
H665 H 0.38962 0.88665 0.13723 0.0
H666 H 0.41503 0.94398 0.10454 0.0
C667 C 0.49763 0.92085 0.13017 0.0
C668 C 0.05228 0.17638 0.64892 0.0
C669 C 0.09143 0.18919 0.65207 0.0
H670 H 1.00749 0.13494 0.62774 0.0
C671 C 0.11546 0.16722 0.63674 0.0
H672 H 0.03275 0.19244 0.65996 0.0
C673 C 0.10097 0.13425 0.61805 0.0
C674 C 0.06189 0.12192 0.61405 0.0
H675 H 0.14573 0.17555 0.63906 0.0
H676 H 0.12059 0.11865 0.6063 0.0
C677 C 0.03775 0.14334 0.63016 0.0
C678 C 0.70899 0.35268 0.46277 0.0
C679 C 0.73636 0.37742 0.44224 0.0
H680 H 0.65328 0.34179 0.48694 0.0
C681 C 0.72906 0.41218 0.43333 0.0
H682 H 0.71345 0.32554 0.46977 0.0
C683 C 0.69442 0.42111 0.44256 0.0
C684 C 0.66645 0.39572 0.46137 0.0
H685 H 0.74978 0.43221 0.41831 0.0
H686 H 0.68925 0.44775 0.43446 0.0
C687 C 0.67442 0.36184 0.47241 0.0
loop_
_geom_bond_atom_site_label_1
_geom_bond_atom_site_label_2
_geom_bond_distance
_geom_bond_site_symmetry_2
_ccdc_geom_bond_type
C0 C1 1.384 . S
C0 H13 0.947 . S
C0 C35 1.382 . S
C1 C0 1.384 . S
C1 C2 1.378 . S
C2 C1 1.378 . S
C2 C3 1.378 . S
C2 H14 0.952 . S
C3 C2 1.378 . S
C3 H15 0.950 . S
C3 C34 1.383 . S
H4 C23 0.947 . S
H5 C24 0.946 . S
H6 C26 0.953 . S
H7 C27 0.945 . S
H8 C29 0.952 . S
H9 C30 0.949 . S
H10 C32 0.950 . S
H11 C33 0.948 . S
H12 C35 0.951 . S
H13 C0 0.947 . S
H14 C2 0.952 . S
H15 C3 0.950 . S
N16 C19 1.382 . S
N16 C21 1.363 . S
N17 C19 1.371 . S
N17 C20 1.372 . S
N18 C20 1.361 . S
N18 C21 1.377 . S
C19 N16 1.382 . S
C19 N17 1.371 . S
C19 C22 1.480 . S
C20 N17 1.372 . S
C20 N18 1.361 . S
C20 C28 1.457 . S
C21 N16 1.363 . S
C21 N18 1.377 . S
C21 C34 1.479 . S
C22 C19 1.480 . S
C22 C23 1.383 . S
C22 C27 1.385 . S
C23 H4 0.947 . S
C23 C22 1.383 . S
C23 C24 1.388 . S
C24 H5 0.946 . S
C24 C23 1.388 . S
C24 C25 1.384 . S
C25 C24 1.384 . S
C25 C26 1.377 . S
C26 H6 0.953 . S
C26 C25 1.377 . S
C26 C27 1.369 . S
C27 H7 0.945 . S
C27 C22 1.385 . S
C27 C26 1.369 . S
C28 C20 1.457 . S
C28 C29 1.372 . S
C28 C33 1.364 . S
C29 H8 0.952 . S
C29 C28 1.372 . S
C29 C30 1.389 . S
C30 H9 0.949 . S
C30 C29 1.389 . S
C30 C31 1.387 . S
C31 C30 1.387 . S
C31 C32 1.372 . S
C32 H10 0.950 . S
C32 C31 1.372 . S
C32 C33 1.379 . S
C33 H11 0.948 . S
C33 C28 1.364 . S
C33 C32 1.379 . S
C34 C3 1.383 . S
C34 C21 1.479 . S
C34 C35 1.398 . S
C35 C0 1.382 . S
C35 H12 0.951 . S
C35 C34 1.398 . S
C36 C37 1.384 . S
C36 H49 0.947 . S
C36 C71 1.382 . S
C37 C36 1.384 . S
C37 C38 1.378 . S
C38 C37 1.378 . S
C38 C39 1.378 . S
C38 H50 0.952 . S
C39 C38 1.378 . S
C39 H51 0.950 . S
C39 C70 1.383 . S
H40 C59 0.947 . S
H41 C60 0.946 . S
H42 C62 0.953 . S
H43 C63 0.945 . S
H44 C65 0.952 . S
H45 C66 0.949 . S
H46 C68 0.950 . S
H47 C69 0.948 . S
H48 C71 0.951 . S
H49 C36 0.947 . S
H50 C38 0.952 . S
H51 C39 0.950 . S
N52 C55 1.382 . S
N52 C57 1.363 . S
N53 C55 1.371 . S
N53 C56 1.372 . S
N54 C56 1.361 . S
N54 C57 1.377 . S
C55 N52 1.382 . S
C55 N53 1.371 . S
C55 C58 1.480 . S
C56 N53 1.372 . S
C56 N54 1.361 . S
C56 C64 1.457 . S
C57 N52 1.363 . S
C57 N54 1.377 . S
C57 C70 1.479 . S
C58 C55 1.480 . S
C58 C59 1.383 . S
C58 C63 1.385 . S
C59 H40 0.947 . S
C59 C58 1.383 . S
C59 C60 1.388 . S
C60 H41 0.946 . S
C60 C59 1.388 . S
C60 C61 1.384 . S
C61 C60 1.384 . S
C61 C62 1.377 . S
C62 H42 0.953 . S
C62 C61 1.377 . S
C62 C63 1.369 . S
C63 H43 0.945 . S
C63 C58 1.385 . S
C63 C62 1.369 . S
C64 C56 1.457 . S
C64 C65 1.372 . S
C64 C69 1.364 . S
C65 H44 0.952 . S
C65 C64 1.372 . S
C65 C66 1.389 . S
C66 H45 0.949 . S
C66 C65 1.389 . S
C66 C67 1.387 . S
C67 C66 1.387 . S
C67 C68 1.372 . S
C68 H46 0.950 . S
C68 C67 1.372 . S
C68 C69 1.379 . S
C69 H47 0.948 . S
C69 C64 1.364 . S
C69 C68 1.379 . S
C70 C39 1.383 . S
C70 C57 1.479 . S
C70 C71 1.398 . S
C71 C36 1.382 . S
C71 H48 0.951 . S
C71 C70 1.398 . S
C72 C73 1.384 . S
C72 H85 0.947 . S
C72 C107 1.382 . S
C73 C72 1.384 . S
C73 C74 1.378 . S
C74 C73 1.378 . S
C74 C75 1.378 . S
C74 H86 0.952 . S
C75 C74 1.378 . S
C75 H87 0.950 . S
C75 C106 1.383 . S
H76 C95 0.947 . S
H77 C96 0.946 . S
H78 C98 0.953 . S
H79 C99 0.945 . S
H80 C101 0.952 . S
H81 C102 0.949 . S
H82 C104 0.950 . S
H83 C105 0.948 . S
H84 C107 0.951 . S
H85 C72 0.947 . S
H86 C74 0.952 . S
H87 C75 0.950 . S
N88 C91 1.382 . S
N88 C93 1.363 . S
N89 C91 1.371 . S
N89 C92 1.372 . S
N90 C92 1.361 . S
N90 C93 1.377 . S
C91 N88 1.382 . S
C91 N89 1.371 . S
C91 C94 1.480 . S
C92 N89 1.372 . S
C92 N90 1.361 . S
C92 C100 1.457 . S
C93 N88 1.363 . S
C93 N90 1.377 . S
C93 C106 1.479 . S
C94 C91 1.480 . S
C94 C95 1.383 . S
C94 C99 1.385 . S
C95 H76 0.947 . S
C95 C94 1.383 . S
C95 C96 1.388 . S
C96 H77 0.946 . S
C96 C95 1.388 . S
C96 C97 1.384 . S
C97 C96 1.384 . S
C97 C98 1.377 . S
C98 H78 0.953 . S
C98 C97 1.377 . S
C98 C99 1.369 . S
C99 H79 0.945 . S
C99 C94 1.385 . S
C99 C98 1.369 . S
C100 C92 1.457 . S
C100 C101 1.372 . S
C100 C105 1.364 . S
C101 H80 0.952 . S
C101 C100 1.372 . S
C101 C102 1.389 . S
C102 H81 0.949 . S
C102 C101 1.389 . S
C102 C103 1.387 . S
C103 C102 1.387 . S
C103 C104 1.372 . S
C104 H82 0.950 . S
C104 C103 1.372 . S
C104 C105 1.379 . S
C105 H83 0.948 . S
C105 C100 1.364 . S
C105 C104 1.379 . S
C106 C75 1.383 . S
C106 C93 1.479 . S
C106 C107 1.398 . S
C107 C72 1.382 . S
C107 H84 0.951 . S
C107 C106 1.398 . S
C108 C109 1.384 . S
C108 H121 0.947 . S
C108 C143 1.382 . S
C109 C108 1.384 . S
C109 C110 1.378 . S
C110 C109 1.378 . S
C110 C111 1.378 . S
C110 H122 0.952 . S
C111 C110 1.378 . S
C111 H123 0.950 . S
C111 C142 1.383 . S
H112 C131 0.947 . S
H113 C132 0.946 . S
H114 C134 0.953 . S
H115 C135 0.945 . S
H116 C137 0.952 . S
H117 C138 0.949 . S
H118 C140 0.950 . S
H119 C141 0.948 . S
H120 C143 0.951 . S
H121 C108 0.947 . S
H122 C110 0.952 . S
H123 C111 0.950 . S
N124 C127 1.382 . S
N124 C129 1.363 . S
N125 C127 1.371 . S
N125 C128 1.372 . S
N126 C128 1.361 . S
N126 C129 1.377 . S
C127 N124 1.382 . S
C127 N125 1.371 . S
C127 C130 1.480 . S
C128 N125 1.372 . S
C128 N126 1.361 . S
C128 C136 1.457 . S
C129 N124 1.363 . S
C129 N126 1.377 . S
C129 C142 1.479 . S
C130 C127 1.480 . S
C130 C131 1.383 . S
C130 C135 1.385 . S
C131 H112 0.947 . S
C131 C130 1.383 . S
C131 C132 1.388 . S
C132 H113 0.946 . S
C132 C131 1.388 . S
C132 C133 1.384 . S
C133 C132 1.384 . S
C133 C134 1.377 . S
C134 H114 0.953 . S
C134 C133 1.377 . S
C134 C135 1.369 . S
C135 H115 0.945 . S
C135 C130 1.385 . S
C135 C134 1.369 . S
C136 C128 1.457 . S
C136 C137 1.372 . S
C136 C141 1.364 . S
C137 H116 0.952 . S
C137 C136 1.372 . S
C137 C138 1.389 . S
C138 H117 0.949 . S
C138 C137 1.389 . S
C138 C139 1.387 . S
C139 C138 1.387 . S
C139 C140 1.372 . S
C140 H118 0.950 . S
C140 C139 1.372 . S
C140 C141 1.379 . S
C141 H119 0.948 . S
C141 C136 1.364 . S
C141 C140 1.379 . S
C142 C111 1.383 . S
C142 C129 1.479 . S
C142 C143 1.398 . S
C143 C108 1.382 . S
C143 H120 0.951 . S
C143 C142 1.398 . S
C144 C145 1.384 . S
C144 H157 0.947 . S
C144 C179 1.382 . S
C145 C144 1.384 . S
C145 C146 1.378 . S
C146 C145 1.378 . S
C146 C147 1.378 . S
C146 H158 0.952 . S
C147 C146 1.378 . S
C147 H159 0.950 . S
C147 C178 1.383 . S
H148 C167 0.947 . S
H149 C168 0.946 . S
H150 C170 0.953 . S
H151 C171 0.945 . S
H152 C173 0.952 . S
H153 C174 0.949 . S
H154 C176 0.950 . S
H155 C177 0.948 . S
H156 C179 0.951 . S
H157 C144 0.947 . S
H158 C146 0.952 . S
H159 C147 0.950 . S
N160 C163 1.382 . S
N160 C165 1.363 . S
N161 C163 1.371 . S
N161 C164 1.372 . S
N162 C164 1.361 . S
N162 C165 1.377 . S
C163 N160 1.382 . S
C163 N161 1.371 . S
C163 C166 1.480 . S
C164 N161 1.372 . S
C164 N162 1.361 . S
C164 C172 1.457 . S
C165 N160 1.363 . S
C165 N162 1.377 . S
C165 C178 1.479 . S
C166 C163 1.480 . S
C166 C167 1.383 . S
C166 C171 1.385 . S
C167 H148 0.947 . S
C167 C166 1.383 . S
C167 C168 1.388 . S
C168 H149 0.946 . S
C168 C167 1.388 . S
C168 C169 1.384 . S
C169 C168 1.384 . S
C169 C170 1.377 . S
C170 H150 0.953 . S
C170 C169 1.377 . S
C170 C171 1.369 . S
C171 H151 0.945 . S
C171 C166 1.385 . S
C171 C170 1.369 . S
C172 C164 1.457 . S
C172 C173 1.372 . S
C172 C177 1.364 . S
C173 H152 0.952 . S
C173 C172 1.372 . S
C173 C174 1.389 . S
C174 H153 0.949 . S
C174 C173 1.389 . S
C174 C175 1.387 . S
C175 C174 1.387 . S
C175 C176 1.372 . S
C176 H154 0.950 . S
C176 C175 1.372 . S
C176 C177 1.379 . S
C177 H155 0.948 . S
C177 C172 1.364 . S
C177 C176 1.379 . S
C178 C147 1.383 . S
C178 C165 1.479 . S
C178 C179 1.398 . S
C179 C144 1.382 . S
C179 H156 0.951 . S
C179 C178 1.398 . S
C180 C181 1.384 . S
C180 H193 0.947 . S
C180 C215 1.382 . S
C181 C180 1.384 . S
C181 C182 1.378 . S
C182 C181 1.378 . S
C182 C183 1.378 . S
C182 H194 0.952 . S
C183 C182 1.378 . S
C183 H195 0.950 . S
C183 C214 1.383 . S
H184 C203 0.947 . S
H185 C204 0.946 . S
H186 C206 0.953 . S
H187 C207 0.945 . S
H188 C209 0.952 . S
H189 C210 0.949 . S
H190 C212 0.950 . S
H191 C213 0.948 . S
H192 C215 0.951 . S
H193 C180 0.947 . S
H194 C182 0.952 . S
H195 C183 0.950 . S
N196 C199 1.382 . S
N196 C201 1.363 . S
N197 C199 1.371 . S
N197 C200 1.372 . S
N198 C200 1.361 . S
N198 C201 1.377 . S
C199 N196 1.382 . S
C199 N197 1.371 . S
C199 C202 1.480 . S
C200 N197 1.372 . S
C200 N198 1.361 . S
C200 C208 1.457 . S
C201 N196 1.363 . S
C201 N198 1.377 . S
C201 C214 1.479 . S
C202 C199 1.480 . S
C202 C203 1.383 . S
C202 C207 1.385 . S
C203 H184 0.947 . S
C203 C202 1.383 . S
C203 C204 1.388 . S
C204 H185 0.946 . S
C204 C203 1.388 . S
C204 C205 1.384 . S
C205 C204 1.384 . S
C205 C206 1.377 . S
C206 H186 0.953 . S
C206 C205 1.377 . S
C206 C207 1.369 . S
C207 H187 0.945 . S
C207 C202 1.385 . S
C207 C206 1.369 . S
C208 C200 1.457 . S
C208 C209 1.372 . S
C208 C213 1.364 . S
C209 H188 0.952 . S
C209 C208 1.372 . S
C209 C210 1.389 . S
C210 H189 0.949 . S
C210 C209 1.389 . S
C210 C211 1.387 . S
C211 C210 1.387 . S
C211 C212 1.372 . S
C212 H190 0.950 . S
C212 C211 1.372 . S
C212 C213 1.379 . S
C213 H191 0.948 . S
C213 C208 1.364 . S
C213 C212 1.379 . S
C214 C183 1.383 . S
C214 C201 1.479 . S
C214 C215 1.398 . S
C215 C180 1.382 . S
C215 H192 0.951 . S
C215 C214 1.398 . S
C216 C217 1.384 . S
C216 H229 0.947 . S
C216 C251 1.382 . S
C217 C216 1.384 . S
C217 C218 1.378 . S
C218 C217 1.378 . S
C218 C219 1.378 . S
C218 H230 0.952 . S
C219 C218 1.378 . S
C219 H231 0.950 . S
C219 C250 1.383 . S
H220 C239 0.947 . S
H221 C240 0.946 . S
H222 C242 0.953 . S
H223 C243 0.945 . S
H224 C245 0.952 . S
H225 C246 0.949 . S
H226 C248 0.950 . S
H227 C249 0.948 . S
H228 C251 0.951 . S
H229 C216 0.947 . S
H230 C218 0.952 . S
H231 C219 0.950 . S
N232 C235 1.382 . S
N232 C237 1.363 . S
N233 C235 1.371 . S
N233 C236 1.372 . S
N234 C236 1.361 . S
N234 C237 1.377 . S
C235 N232 1.382 . S
C235 N233 1.371 . S
C235 C238 1.480 . S
C236 N233 1.372 . S
C236 N234 1.361 . S
C236 C244 1.457 . S
C237 N232 1.363 . S
C237 N234 1.377 . S
C237 C250 1.479 . S
C238 C235 1.480 . S
C238 C239 1.383 . S
C238 C243 1.385 . S
C239 H220 0.947 . S
C239 C238 1.383 . S
C239 C240 1.388 . S
C240 H221 0.946 . S
C240 C239 1.388 . S
C240 C241 1.384 . S
C241 C240 1.384 . S
C241 C242 1.377 . S
C242 H222 0.953 . S
C242 C241 1.377 . S
C242 C243 1.369 . S
C243 H223 0.945 . S
C243 C238 1.385 . S
C243 C242 1.369 . S
C244 C236 1.457 . S
C244 C245 1.372 . S
C244 C249 1.364 . S
C245 H224 0.952 . S
C245 C244 1.372 . S
C245 C246 1.389 . S
C246 H225 0.949 . S
C246 C245 1.389 . S
C246 C247 1.387 . S
C247 C246 1.387 . S
C247 C248 1.372 . S
C248 H226 0.950 . S
C248 C247 1.372 . S
C248 C249 1.379 . S
C249 H227 0.948 . S
C249 C244 1.364 . S
C249 C248 1.379 . S
C250 C219 1.383 . S
C250 C237 1.479 . S
C250 C251 1.398 . S
C251 C216 1.382 . S
C251 H228 0.951 . S
C251 C250 1.398 . S
C252 C253 1.384 . S
C252 H265 0.947 . S
C252 C287 1.382 . S
C253 C252 1.384 . S
C253 C254 1.378 . S
C254 C253 1.378 . S
C254 C255 1.378 . S
C254 H266 0.952 . S
C255 C254 1.378 . S
C255 H267 0.950 . S
C255 C286 1.383 . S
H256 C275 0.947 . S
H257 C276 0.946 . S
H258 C278 0.953 . S
H259 C279 0.945 . S
H260 C281 0.952 . S
H261 C282 0.949 . S
H262 C284 0.950 . S
H263 C285 0.948 . S
H264 C287 0.951 . S
H265 C252 0.947 . S
H266 C254 0.952 . S
H267 C255 0.950 . S
N268 C271 1.382 . S
N268 C273 1.363 . S
N269 C271 1.371 . S
N269 C272 1.372 . S
N270 C272 1.361 . S
N270 C273 1.377 . S
C271 N268 1.382 . S
C271 N269 1.371 . S
C271 C274 1.480 . S
C272 N269 1.372 . S
C272 N270 1.361 . S
C272 C280 1.457 . S
C273 N268 1.363 . S
C273 N270 1.377 . S
C273 C286 1.479 . S
C274 C271 1.480 . S
C274 C275 1.383 . S
C274 C279 1.385 . S
C275 H256 0.947 . S
C275 C274 1.383 . S
C275 C276 1.388 . S
C276 H257 0.946 . S
C276 C275 1.388 . S
C276 C277 1.384 . S
C277 C276 1.384 . S
C277 C278 1.377 . S
C278 H258 0.953 . S
C278 C277 1.377 . S
C278 C279 1.369 . S
C279 H259 0.945 . S
C279 C274 1.385 . S
C279 C278 1.369 . S
C280 C272 1.457 . S
C280 C281 1.372 . S
C280 C285 1.364 . S
C281 H260 0.952 . S
C281 C280 1.372 . S
C281 C282 1.389 . S
C282 H261 0.949 . S
C282 C281 1.389 . S
C282 C283 1.387 . S
C283 C282 1.387 . S
C283 C284 1.372 . S
C284 H262 0.950 . S
C284 C283 1.372 . S
C284 C285 1.379 . S
C285 H263 0.948 . S
C285 C280 1.364 . S
C285 C284 1.379 . S
C286 C255 1.383 . S
C286 C273 1.479 . S
C286 C287 1.398 . S
C287 C252 1.382 . S
C287 H264 0.951 . S
C287 C286 1.398 . S
Tb288 C297 2.764 . S
Tb288 O298 2.325 1_455 S
Tb288 O301 2.303 . S
Tb288 O305 2.322 1_545 S
Tb288 O306 2.349 1_545 S
Tb288 O309 2.415 . S
Tb288 O310 2.399 . S
Tb289 O299 2.318 1_565 S
Tb289 O300 2.344 1_565 S
Tb289 O302 2.421 . S
Tb289 O303 2.400 . S
Tb289 O304 2.329 1_655 S
Tb289 O307 2.308 . S
Tb289 C318 2.768 . S
C290 O306 1.261 1_655 S
C290 O307 1.257 . S
C291 C294 1.358 . S
C291 C295 1.332 . S
C291 C297 1.504 . S
C292 C293 1.373 . S
C292 C296 1.308 . S
C293 C292 1.373 . S
C293 C294 1.429 . S
C293 H320 0.932 . S
C294 C291 1.358 . S
C294 C293 1.429 . S
C294 H321 0.930 . S
C295 C291 1.332 . S
C295 C296 1.394 . S
C295 H322 0.932 . S
C296 C292 1.308 . S
C296 C295 1.394 . S
C296 H323 0.929 . S
C297 Tb288 2.764 . S
C297 C291 1.504 . S
C297 O309 1.239 . S
C297 O310 1.263 . S
O298 Tb288 2.325 1_655 S
O298 C308 1.236 . S
O299 Tb289 2.318 1_545 S
O299 C308 1.257 . S
O300 Tb289 2.344 1_545 S
O300 C311 1.261 1_655 S
O301 Tb288 2.303 . S
O301 C311 1.257 . S
O302 Tb289 2.421 . S
O302 C318 1.239 . S
O303 Tb289 2.400 . S
O303 C318 1.263 . S
O304 Tb289 2.329 1_455 S
O304 C319 1.236 . S
O305 Tb288 2.322 1_565 S
O305 C319 1.257 . S
O306 Tb288 2.349 1_565 S
O306 C290 1.261 1_455 S
O307 Tb289 2.308 . S
O307 C290 1.257 . S
C308 O298 1.236 . S
C308 O299 1.257 . S
O309 Tb288 2.415 . S
O309 C297 1.239 . S
O310 Tb288 2.399 . S
O310 C297 1.263 . S
C311 O300 1.261 1_455 S
C311 O301 1.257 . S
C312 C315 1.358 . S
C312 C316 1.332 . S
C312 C318 1.504 . S
C313 C314 1.373 . S
C313 C317 1.308 . S
C314 C313 1.373 . S
C314 C315 1.429 . S
C314 H324 0.932 . S
C315 C312 1.358 . S
C315 C314 1.429 . S
C315 H325 0.930 . S
C316 C312 1.332 . S
C316 C317 1.394 . S
C316 H326 0.932 . S
C317 C313 1.308 . S
C317 C316 1.394 . S
C317 H327 0.929 . S
C318 Tb289 2.768 . S
C318 O302 1.239 . S
C318 O303 1.263 . S
C318 C312 1.504 . S
C319 O304 1.236 . S
C319 O305 1.257 . S
H320 C293 0.932 . S
H321 C294 0.930 . S
H322 C295 0.932 . S
H323 C296 0.929 . S
H324 C314 0.932 . S
H325 C315 0.930 . S
H326 C316 0.932 . S
H327 C317 0.929 . S
Tb328 C337 2.764 . S
Tb328 O338 2.325 1_554 S
Tb328 O341 2.303 . S
Tb328 O345 2.322 1_545 S
Tb328 O346 2.349 1_544 S
Tb328 O349 2.415 . S
Tb328 O350 2.399 . S
Tb329 O339 2.322 1_565 S
Tb329 O340 2.349 1_566 S
Tb329 O342 2.415 . S
Tb329 O343 2.399 . S
Tb329 O344 2.325 1_556 S
Tb329 O347 2.303 . S
Tb329 C358 2.764 . S
C330 O346 1.261 . S
C330 O347 1.257 . S
C331 C334 1.358 . S
C331 C335 1.332 . S
C331 C337 1.504 . S
C332 C333 1.373 . S
C332 C336 1.308 . S
C333 C332 1.373 . S
C333 C334 1.429 . S
C333 H360 0.932 . S
C334 C331 1.358 . S
C334 C333 1.429 . S
C334 H361 0.930 . S
C335 C331 1.332 . S
C335 C336 1.394 . S
C335 H362 0.932 . S
C336 C332 1.308 . S
C336 C335 1.394 . S
C336 H363 0.929 . S
C337 Tb328 2.764 . S
C337 C331 1.504 . S
C337 O349 1.239 . S
C337 O350 1.263 . S
O338 Tb328 2.325 1_556 S
O338 C348 1.236 . S
O339 Tb329 2.322 1_545 S
O339 C348 1.257 . S
O340 Tb329 2.349 1_544 S
O340 C351 1.261 . S
O341 Tb328 2.303 . S
O341 C351 1.257 . S
O342 Tb329 2.415 . S
O342 C358 1.239 . S
O343 Tb329 2.399 . S
O343 C358 1.263 . S
O344 Tb329 2.325 1_554 S
O344 C359 1.236 . S
O345 Tb328 2.322 1_565 S
O345 C359 1.257 . S
O346 Tb328 2.349 1_566 S
O346 C330 1.261 . S
O347 Tb329 2.303 . S
O347 C330 1.257 . S
C348 O338 1.236 . S
C348 O339 1.257 . S
O349 Tb328 2.415 . S
O349 C337 1.239 . S
O350 Tb328 2.399 . S
O350 C337 1.263 . S
C351 O340 1.261 . S
C351 O341 1.257 . S
C352 C355 1.358 . S
C352 C356 1.332 . S
C352 C358 1.504 . S
C353 C354 1.373 . S
C353 C357 1.308 . S
C354 C353 1.373 . S
C354 C355 1.429 . S
C354 H364 0.932 . S
C355 C352 1.358 . S
C355 C354 1.429 . S
C355 H365 0.930 . S
C356 C352 1.332 . S
C356 C357 1.394 . S
C356 H366 0.932 . S
C357 C353 1.308 . S
C357 C356 1.394 . S
C357 H367 0.929 . S
C358 Tb329 2.764 . S
C358 O342 1.239 . S
C358 O343 1.263 . S
C358 C352 1.504 . S
C359 O344 1.236 . S
C359 O345 1.257 . S
H360 C333 0.932 . S
H361 C334 0.930 . S
H362 C335 0.932 . S
H363 C336 0.929 . S
H364 C354 0.932 . S
H365 C355 0.930 . S
H366 C356 0.932 . S
H367 C357 0.929 . S
Tb368 C377 2.764 . S
Tb368 O378 2.325 . S
Tb368 O381 2.303 . S
Tb368 O385 2.322 . S
Tb368 O386 2.349 . S
Tb368 O389 2.415 . S
Tb368 O390 2.399 . S
Tb369 O379 2.322 . S
Tb369 O380 2.349 . S
Tb369 O382 2.415 . S
Tb369 O383 2.399 . S
Tb369 O384 2.325 . S
Tb369 O387 2.303 . S
Tb369 C398 2.764 . S
C370 O386 1.261 . S
C370 O387 1.257 . S
C371 C374 1.358 . S
C371 C375 1.332 . S
C371 C377 1.504 . S
C372 C373 1.373 . S
C372 C376 1.308 . S
C373 C372 1.373 . S
C373 C374 1.429 . S
C373 H400 0.932 . S
C374 C371 1.358 . S
C374 C373 1.429 . S
C374 H401 0.930 . S
C375 C371 1.332 . S
C375 C376 1.394 . S
C375 H402 0.932 . S
C376 C372 1.308 . S
C376 C375 1.394 . S
C376 H403 0.929 . S
C377 Tb368 2.764 . S
C377 C371 1.504 . S
C377 O389 1.239 . S
C377 O390 1.263 . S
O378 Tb368 2.325 . S
O378 C388 1.236 . S
O379 Tb369 2.322 . S
O379 C388 1.257 . S
O380 Tb369 2.349 . S
O380 C391 1.261 . S
O381 Tb368 2.303 . S
O381 C391 1.257 . S
O382 Tb369 2.415 . S
O382 C398 1.239 . S
O383 Tb369 2.399 . S
O383 C398 1.263 . S
O384 Tb369 2.325 . S
O384 C399 1.236 . S
O385 Tb368 2.322 . S
O385 C399 1.257 . S
O386 Tb368 2.349 . S
O386 C370 1.261 . S
O387 Tb369 2.303 . S
O387 C370 1.257 . S
C388 O378 1.236 . S
C388 O379 1.257 . S
O389 Tb368 2.415 . S
O389 C377 1.239 . S
O390 Tb368 2.399 . S
O390 C377 1.263 . S
C391 O380 1.261 . S
C391 O381 1.257 . S
C392 C395 1.358 . S
C392 C396 1.332 . S
C392 C398 1.504 . S
C393 C394 1.373 . S
C393 C397 1.308 . S
C394 C393 1.373 . S
C394 C395 1.429 . S
C394 H404 0.932 . S
C395 C392 1.358 . S
C395 C394 1.429 . S
C395 H405 0.930 . S
C396 C392 1.332 . S
C396 C397 1.394 . S
C396 H406 0.932 . S
C397 C393 1.308 . S
C397 C396 1.394 . S
C397 H407 0.929 . S
C398 Tb369 2.764 . S
C398 O382 1.239 . S
C398 O383 1.263 . S
C398 C392 1.504 . S
C399 O384 1.236 . S
C399 O385 1.257 . S
H400 C373 0.932 . S
H401 C374 0.930 . S
H402 C375 0.932 . S
H403 C376 0.929 . S
H404 C394 0.932 . S
H405 C395 0.930 . S
H406 C396 0.932 . S
H407 C397 0.929 . S
Tb408 C417 2.764 . S
Tb408 O418 2.325 . S
Tb408 O421 2.303 1_556 S
Tb408 O425 2.313 1_656 S
Tb408 O426 2.349 1_655 S
Tb408 O429 2.415 . S
Tb408 O430 2.399 . S
Tb409 O419 2.322 1_455 S
Tb409 O420 2.349 1_455 S
Tb409 O422 2.415 . S
Tb409 O423 2.399 . S
Tb409 O424 2.325 . S
Tb409 O427 2.303 1_554 S
Tb409 C438 2.764 . S
C410 O426 1.261 . S
C410 O427 1.257 . S
C411 C414 1.358 . S
C411 C415 1.332 . S
C411 C417 1.504 . S
C412 C413 1.373 . S
C412 C416 1.308 . S
C413 C412 1.373 . S
C413 C414 1.429 . S
C413 H440 0.932 . S
C414 C411 1.358 . S
C414 C413 1.429 . S
C414 H441 0.930 . S
C415 C411 1.332 . S
C415 C416 1.394 . S
C415 H442 0.932 . S
C416 C412 1.308 . S
C416 C415 1.394 . S
C416 H443 0.929 . S
C417 Tb408 2.764 . S
C417 C411 1.504 . S
C417 O429 1.239 . S
C417 O430 1.263 . S
O418 Tb408 2.325 . S
O418 C428 1.236 . S
O419 Tb409 2.322 1_655 S
O419 C428 1.257 1_554 S
O420 Tb409 2.349 1_655 S
O420 C431 1.261 . S
O421 Tb408 2.303 1_554 S
O421 C431 1.257 . S
O422 Tb409 2.415 . S
O422 C438 1.239 . S
O423 Tb409 2.399 . S
O423 C438 1.263 . S
O424 Tb409 2.325 . S
O424 C439 1.236 . S
O425 Tb408 2.313 1_454 S
O425 C439 1.273 . S
O426 Tb408 2.349 1_455 S
O426 C410 1.261 . S
O427 Tb409 2.303 1_556 S
O427 C410 1.257 . S
C428 O418 1.236 . S
C428 O419 1.257 1_556 S
O429 Tb408 2.415 . S
O429 C417 1.239 . S
O430 Tb408 2.399 . S
O430 C417 1.263 . S
C431 O420 1.261 . S
C431 O421 1.257 . S
C432 C435 1.358 . S
C432 C436 1.332 . S
C432 C438 1.504 . S
C433 C434 1.373 . S
C433 C437 1.308 . S
C434 C433 1.373 . S
C434 C435 1.429 . S
C434 H444 0.932 . S
C435 C432 1.358 . S
C435 C434 1.429 . S
C435 H445 0.930 . S
C436 C432 1.332 . S
C436 C437 1.394 . S
C436 H446 0.932 . S
C437 C433 1.308 . S
C437 C436 1.394 . S
C437 H447 0.929 . S
C438 Tb409 2.764 . S
C438 O422 1.239 . S
C438 O423 1.263 . S
C438 C432 1.504 . S
C439 O424 1.236 . S
C439 O425 1.273 . S
H440 C413 0.932 . S
H441 C414 0.930 . S
H442 C415 0.932 . S
H443 C416 0.929 . S
H444 C434 0.932 . S
H445 C435 0.930 . S
H446 C436 0.932 . S
H447 C437 0.929 . S
C448 C449 1.387 . S
C448 H452 0.950 . S
C448 C457 1.390 . S
C449 C448 1.387 . S
C449 C451 1.387 . S
H450 C457 0.950 . S
C451 C449 1.387 . S
C451 C453 1.390 . S
C451 H455 0.950 . S
H452 C448 0.950 . S
C453 C451 1.390 . S
C453 C454 1.387 . S
C453 H456 0.950 . S
C454 C453 1.387 . S
C454 C457 1.387 . S
H455 C451 0.950 . S
H456 C453 0.950 . S
C457 C448 1.390 . S
C457 H450 0.950 . S
C457 C454 1.387 . S
C458 C459 1.387 . S
C458 H462 0.950 . S
C458 C467 1.390 . S
C459 C458 1.387 . S
C459 C461 1.387 . S
H460 C467 0.950 . S
C461 C459 1.387 . S
C461 C463 1.390 . S
C461 H465 0.950 . S
H462 C458 0.950 . S
C463 C461 1.390 . S
C463 C464 1.387 . S
C463 H466 0.950 . S
C464 C463 1.387 . S
C464 C467 1.387 . S
H465 C461 0.950 . S
H466 C463 0.950 . S
C467 C458 1.390 . S
C467 H460 0.950 . S
C467 C464 1.387 . S
C468 C469 1.387 . S
C468 H472 0.950 . S
C468 C477 1.390 . S
C469 C468 1.387 . S
C469 C471 1.387 . S
H470 C477 0.950 . S
C471 C469 1.387 . S
C471 C473 1.390 . S
C471 H475 0.950 . S
H472 C468 0.950 . S
C473 C471 1.390 . S
C473 C474 1.387 . S
C473 H476 0.950 . S
C474 C473 1.387 . S
C474 C477 1.387 . S
H475 C471 0.950 . S
H476 C473 0.950 . S
C477 C468 1.390 . S
C477 H470 0.950 . S
C477 C474 1.387 . S
C478 C479 1.387 . S
C478 H482 0.950 . S
C478 C487 1.390 . S
C479 C478 1.387 . S
C479 C481 1.387 . S
H480 C487 0.950 . S
C481 C479 1.387 . S
C481 C483 1.390 . S
C481 H485 0.950 . S
H482 C478 0.950 . S
C483 C481 1.390 . S
C483 C484 1.387 . S
C483 H486 0.950 . S
C484 C483 1.387 . S
C484 C487 1.387 . S
H485 C481 0.950 . S
H486 C483 0.950 . S
C487 C478 1.390 . S
C487 H480 0.950 . S
C487 C484 1.387 . S
C488 C489 1.387 . S
C488 H492 0.950 . S
C488 C497 1.390 . S
C489 C488 1.387 . S
C489 C491 1.387 . S
H490 C497 0.950 . S
C491 C489 1.387 . S
C491 C493 1.390 . S
C491 H495 0.950 . S
H492 C488 0.950 . S
C493 C491 1.390 . S
C493 C494 1.387 . S
C493 H496 0.950 . S
C494 C493 1.387 . S
C494 C497 1.387 . S
H495 C491 0.950 . S
H496 C493 0.950 . S
C497 C488 1.390 . S
C497 H490 0.950 . S
C497 C494 1.387 . S
C498 C499 1.387 1_655 S
C498 H502 0.950 . S
C498 C507 1.390 . S
C499 C498 1.387 1_455 S
C499 C501 1.387 . S
H500 C507 0.950 . S
C501 C499 1.387 . S
C501 C503 1.390 . S
C501 H505 0.950 . S
H502 C498 0.950 . S
C503 C501 1.390 . S
C503 C504 1.387 . S
C503 H506 0.950 . S
C504 C503 1.387 . S
C504 C507 1.387 1_455 S
H505 C501 0.950 . S
H506 C503 0.950 . S
C507 C498 1.390 . S
C507 H500 0.950 . S
C507 C504 1.387 1_655 S
C508 C509 1.387 . S
C508 H512 0.950 . S
C508 C517 1.390 . S
C509 C508 1.387 . S
C509 C511 1.387 . S
H510 C517 0.950 . S
C511 C509 1.387 . S
C511 C513 1.390 . S
C511 H515 0.950 . S
H512 C508 0.950 . S
C513 C511 1.390 . S
C513 C514 1.387 . S
C513 H516 0.950 . S
C514 C513 1.387 . S
C514 C517 1.387 . S
H515 C511 0.950 . S
H516 C513 0.950 . S
C517 C508 1.390 . S
C517 H510 0.950 . S
C517 C514 1.387 . S
C518 C519 1.387 . S
C518 H522 0.950 . S
C518 C527 1.390 . S
C519 C518 1.387 . S
C519 C521 1.387 . S
H520 C527 0.950 . S
C521 C519 1.387 . S
C521 C523 1.390 . S
C521 H525 0.950 . S
H522 C518 0.950 . S
C523 C521 1.390 . S
C523 C524 1.387 . S
C523 H526 0.950 . S
C524 C523 1.387 . S
C524 C527 1.387 . S
H525 C521 0.950 . S
H526 C523 0.950 . S
C527 C518 1.390 . S
C527 H520 0.950 . S
C527 C524 1.387 . S
C528 C529 1.387 . S
C528 H532 0.950 . S
C528 C537 1.390 . S
C529 C528 1.387 . S
C529 C531 1.387 . S
H530 C537 0.950 . S
C531 C529 1.387 . S
C531 C533 1.390 . S
C531 H535 0.950 . S
H532 C528 0.950 . S
C533 C531 1.390 . S
C533 C534 1.387 . S
C533 H536 0.950 . S
C534 C533 1.387 . S
C534 C537 1.387 . S
H535 C531 0.950 . S
H536 C533 0.950 . S
C537 C528 1.390 . S
C537 H530 0.950 . S
C537 C534 1.387 . S
C538 C539 1.387 . S
C538 H542 0.950 . S
C538 C547 1.390 . S
C539 C538 1.387 . S
C539 C541 1.387 . S
H540 C547 0.950 . S
C541 C539 1.387 . S
C541 C543 1.390 . S
C541 H545 0.950 . S
H542 C538 0.950 . S
C543 C541 1.390 . S
C543 C544 1.387 . S
C543 H546 0.950 . S
C544 C543 1.387 . S
C544 C547 1.387 . S
H545 C541 0.950 . S
H546 C543 0.950 . S
C547 C538 1.390 . S
C547 H540 0.950 . S
C547 C544 1.387 . S
C548 C549 1.387 . S
C548 H552 0.950 . S
C548 C557 1.390 . S
C549 C548 1.387 . S
C549 C551 1.387 . S
H550 C557 0.950 . S
C551 C549 1.387 . S
C551 C553 1.390 . S
C551 H555 0.950 . S
H552 C548 0.950 . S
C553 C551 1.390 . S
C553 C554 1.387 . S
C553 H556 0.950 . S
C554 C553 1.387 . S
C554 C557 1.387 . S
H555 C551 0.950 . S
H556 C553 0.950 . S
C557 C548 1.390 . S
C557 H550 0.950 . S
C557 C554 1.387 . S
C558 C559 1.387 . S
C558 H562 0.950 . S
C558 C567 1.390 . S
C559 C558 1.387 . S
C559 C561 1.387 . S
H560 C567 0.950 . S
C561 C559 1.387 . S
C561 C563 1.390 . S
C561 H565 0.950 . S
H562 C558 0.950 . S
C563 C561 1.390 . S
C563 C564 1.387 . S
C563 H566 0.950 . S
C564 C563 1.387 . S
C564 C567 1.387 . S
H565 C561 0.950 . S
H566 C563 0.950 . S
C567 C558 1.390 . S
C567 H560 0.950 . S
C567 C564 1.387 . S
C568 C569 1.387 . S
C568 H572 0.950 . S
C568 C577 1.390 . S
C569 C568 1.387 . S
C569 C571 1.387 . S
H570 C577 0.950 . S
C571 C569 1.387 . S
C571 C573 1.390 . S
C571 H575 0.950 . S
H572 C568 0.950 . S
C573 C571 1.390 . S
C573 C574 1.387 . S
C573 H576 0.950 . S
C574 C573 1.387 . S
C574 C577 1.387 . S
H575 C571 0.950 . S
H576 C573 0.950 . S
C577 C568 1.390 . S
C577 H570 0.950 . S
C577 C574 1.387 . S
C578 C579 1.387 . S
C578 H582 0.950 . S
C578 C587 1.390 . S
C579 C578 1.387 . S
C579 C581 1.387 . S
H580 C587 0.950 . S
C581 C579 1.387 . S
C581 C583 1.390 . S
C581 H585 0.950 . S
H582 C578 0.950 . S
C583 C581 1.390 . S
C583 C584 1.387 . S
C583 H586 0.950 . S
C584 C583 1.387 . S
C584 C587 1.387 . S
H585 C581 0.950 . S
H586 C583 0.950 . S
C587 C578 1.390 . S
C587 H580 0.950 . S
C587 C584 1.387 . S
C588 C589 1.387 . S
C588 H592 0.950 . S
C588 C597 1.390 . S
C589 C588 1.387 . S
C589 C591 1.387 . S
H590 C597 0.950 . S
C591 C589 1.387 . S
C591 C593 1.390 . S
C591 H595 0.950 . S
H592 C588 0.950 . S
C593 C591 1.390 . S
C593 C594 1.387 . S
C593 H596 0.950 . S
C594 C593 1.387 . S
C594 C597 1.387 . S
H595 C591 0.950 . S
H596 C593 0.950 . S
C597 C588 1.390 . S
C597 H590 0.950 . S
C597 C594 1.387 . S
C598 C599 1.387 . S
C598 H602 0.950 . S
C598 C607 1.390 . S
C599 C598 1.387 . S
C599 C601 1.387 . S
H600 C607 0.950 . S
C601 C599 1.387 . S
C601 C603 1.390 . S
C601 H605 0.950 . S
H602 C598 0.950 . S
C603 C601 1.390 . S
C603 C604 1.387 . S
C603 H606 0.950 . S
C604 C603 1.387 . S
C604 C607 1.387 . S
H605 C601 0.950 . S
H606 C603 0.950 . S
C607 C598 1.390 . S
C607 H600 0.950 . S
C607 C604 1.387 . S
C608 C609 1.387 . S
C608 H612 0.950 . S
C608 C617 1.390 . S
C609 C608 1.387 . S
C609 C611 1.387 . S
H610 C617 0.950 . S
C611 C609 1.387 . S
C611 C613 1.390 . S
C611 H615 0.950 . S
H612 C608 0.950 . S
C613 C611 1.390 . S
C613 C614 1.387 . S
C613 H616 0.950 . S
C614 C613 1.387 . S
C614 C617 1.387 . S
H615 C611 0.950 . S
H616 C613 0.950 . S
C617 C608 1.390 . S
C617 H610 0.950 . S
C617 C614 1.387 . S
C618 C619 1.387 . S
C618 H622 0.950 . S
C618 C627 1.390 . S
C619 C618 1.387 . S
C619 C621 1.387 . S
H620 C627 0.950 . S
C621 C619 1.387 . S
C621 C623 1.390 . S
C621 H625 0.950 1_655 S
H622 C618 0.950 . S
C623 C621 1.390 . S
C623 C624 1.387 . S
C623 H626 0.950 1_655 S
C624 C623 1.387 . S
C624 C627 1.387 . S
H625 C621 0.950 1_455 S
H626 C623 0.950 1_455 S
C627 C618 1.390 . S
C627 H620 0.950 . S
C627 C624 1.387 . S
C628 C629 1.387 . S
C628 H632 0.950 . S
C628 C637 1.390 . S
C629 C628 1.387 . S
C629 C631 1.387 . S
H630 C637 0.950 . S
C631 C629 1.387 . S
C631 C633 1.390 . S
C631 H635 0.950 . S
H632 C628 0.950 . S
C633 C631 1.390 . S
C633 C634 1.387 . S
C633 H636 0.950 . S
C634 C633 1.387 . S
C634 C637 1.387 . S
H635 C631 0.950 . S
H636 C633 0.950 . S
C637 C628 1.390 . S
C637 H630 0.950 . S
C637 C634 1.387 . S
C638 C639 1.387 . S
C638 H642 0.950 . S
C638 C647 1.390 . S
C639 C638 1.387 . S
C639 C641 1.387 . S
H640 C647 0.950 . S
C641 C639 1.387 . S
C641 C643 1.390 . S
C641 H645 0.950 . S
H642 C638 0.950 . S
C643 C641 1.390 . S
C643 C644 1.387 . S
C643 H646 0.950 . S
C644 C643 1.387 . S
C644 C647 1.387 . S
H645 C641 0.950 . S
H646 C643 0.950 . S
C647 C638 1.390 . S
C647 H640 0.950 . S
C647 C644 1.387 . S
C648 C649 1.387 . S
C648 H652 0.950 . S
C648 C657 1.390 . S
C649 C648 1.387 . S
C649 C651 1.387 . S
H650 C657 0.950 . S
C651 C649 1.387 . S
C651 C653 1.390 . S
C651 H655 0.950 . S
H652 C648 0.950 . S
C653 C651 1.390 . S
C653 C654 1.387 . S
C653 H656 0.950 . S
C654 C653 1.387 . S
C654 C657 1.387 . S
H655 C651 0.950 . S
H656 C653 0.950 . S
C657 C648 1.390 . S
C657 H650 0.950 . S
C657 C654 1.387 . S
C658 C659 1.387 . S
C658 H662 0.950 . S
C658 C667 1.390 . S
C659 C658 1.387 . S
C659 C661 1.387 . S
H660 C667 0.950 . S
C661 C659 1.387 . S
C661 C663 1.390 . S
C661 H665 0.950 . S
H662 C658 0.950 . S
C663 C661 1.390 . S
C663 C664 1.387 . S
C663 H666 0.950 . S
C664 C663 1.387 . S
C664 C667 1.387 . S
H665 C661 0.950 . S
H666 C663 0.950 . S
C667 C658 1.390 . S
C667 H660 0.950 . S
C667 C664 1.387 . S
C668 C669 1.387 . S
C668 H672 0.950 . S
C668 C677 1.390 . S
C669 C668 1.387 . S
C669 C671 1.387 . S
H670 C677 0.950 . S
C671 C669 1.387 . S
C671 C673 1.390 . S
C671 H675 0.950 . S
H672 C668 0.950 . S
C673 C671 1.390 . S
C673 C674 1.387 . S
C673 H676 0.950 . S
C674 C673 1.387 . S
C674 C677 1.387 . S
H675 C671 0.950 . S
H676 C673 0.950 . S
C677 C668 1.390 . S
C677 H670 0.950 . S
C677 C674 1.387 . S
C678 C679 1.387 . S
C678 H682 0.950 . S
C678 C687 1.390 . S
C679 C678 1.387 . S
C679 C681 1.387 . S
H680 C687 0.950 . S
C681 C679 1.387 . S
C681 C683 1.390 . S
C681 H685 0.950 . S
H682 C678 0.950 . S
C683 C681 1.390 . S
C683 C684 1.387 . S
C683 H686 0.950 . S
C684 C683 1.387 . S
C684 C687 1.387 . S
H685 C681 0.950 . S
H686 C683 0.950 . S
C687 C678 1.390 . S
C687 H680 0.950 . S
C687 C684 1.387 . S
C449 C1 1.105 . S
C454 C292 1.123 . S
C459 C67 1.263 . S
C464 C353 1.313 . S
C474 C391 2.513 . S
C469 C97 2.565 . S
C479 C133 2.433 . S
C484 C431 2.376 . S
C494 C351 1.520 . S
C489 C25 1.448 . S
C504 C319 2.269 . S
C499 C37 2.136 . S
C514 C428 1.814 . S
C509 C103 1.817 . S
C524 C388 1.906 . S
C519 C109 1.932 . S
C529 C31 1.354 . S
C534 C433 1.397 . S
C544 C348 2.390 . S
C539 C73 2.381 . S
C549 C139 2.266 . S
C554 C290 2.219 . S
C559 C61 1.687 . S
C564 C393 1.759 . S
C574 C313 1.121 . S
C569 C175 1.053 . S
C579 C181 1.225 . S
C584 C332 1.297 . S
C589 C247 2.611 . S
C594 C370 2.533 . S
C599 C277 2.413 . S
C604 C410 2.364 . S
C609 C145 1.357 . S
C614 C330 1.506 . S
C624 C308 2.271 . S
C619 C211 2.141 . S
C634 C439 1.804 . S
C629 C217 1.811 . S
C644 C399 1.924 . S
C639 C283 1.939 . S
C649 C169 1.277 . S
C654 C412 1.383 . S
C664 C359 2.401 . S
C659 C241 2.409 . S
C674 C311 2.206 . S
C669 C253 2.258 . S
C679 C205 1.722 . S
C684 C372 1.762 . S
