# Generated by pormake.
# Topology rtl, (3,6)-cn, num edge types: 1
# Building blocks:
#     Node 0, Type 0, BuildingBlock: KAKCAD_clean_linker_0, # of connection points: 3
#     Node 1, Type 0, BuildingBlock: KAKCAD_clean_linker_0, # of connection points: 3
#     Node 2, Type 0, BuildingBlock: KAKCAD_clean_linker_0, # of connection points: 3
#     Node 3, Type 0, BuildingBlock: KAKCAD_clean_linker_0, # of connection points: 3
#     Node 4, Type 1, BuildingBlock: LEVNOQ01_clean_sbu_1, # of connection points: 6
#     Node 5, Type 1, BuildingBlock: LEVNOQ01_clean_sbu_1, # of connection points: 6
#     Edge 6, Type (0, 1), BuildingBlock: ZUJKAS_clean_linker_0, # of connection points: 2
#     Edge 7, Type (0, 1), BuildingBlock: ZUJKAS_clean_linker_0, # of connection points: 2
#     Edge 8, Type (0, 1), BuildingBlock: ZUJKAS_clean_linker_0, # of connection points: 2
#     Edge 9, Type (0, 1), BuildingBlock: ZUJKAS_clean_linker_0, # of connection points: 2
#     Edge 10, Type (0, 1), BuildingBlock: ZUJKAS_clean_linker_0, # of connection points: 2
#     Edge 11, Type (0, 1), BuildingBlock: ZUJKAS_clean_linker_0, # of connection points: 2
#     Edge 12, Type (0, 1), BuildingBlock: ZUJKAS_clean_linker_0, # of connection points: 2
#     Edge 13, Type (0, 1), BuildingBlock: ZUJKAS_clean_linker_0, # of connection points: 2
#     Edge 14, Type (0, 1), BuildingBlock: ZUJKAS_clean_linker_0, # of connection points: 2
#     Edge 15, Type (0, 1), BuildingBlock: ZUJKAS_clean_linker_0, # of connection points: 2
#     Edge 16, Type (0, 1), BuildingBlock: ZUJKAS_clean_linker_0, # of connection points: 2
#     Edge 17, Type (0, 1), BuildingBlock: ZUJKAS_clean_linker_0, # of connection points: 2
# Relax obj value: 0.026
# Max RMSD: 0.060
# Mean RMSD: 0.046
data_MOF--net-rtl--node1-LEVNOQ01_clean_sbu_1--node2-KAKCAD_clean_linker_0--edge1-ZUJKAS_clean_linker_0
_symmetry_space_group_name_H-M    P1
_symmetry_Int_Tables_number       1
_symmetry_cell_setting            triclinic
loop_
_symmetry_equiv_pos_as_xyz
'x, y, z'
_cell_length_a     46.500253
_cell_length_b     52.585248
_cell_length_c     36.886391
_cell_angle_alpha  89.878332
_cell_angle_beta   97.725476
_cell_angle_gamma 89.911653
loop_
_atom_site_label
_atom_site_type_symbol
_atom_site_fract_x
_atom_site_fract_y
_atom_site_fract_z
_atom_type_partial_charge
C0 C 0.20003 0.87746 0.96952 0.0
C1 C 0.19889 0.90312 0.95863 0.0
C2 C 0.21264 0.87046 0.00468 0.0
C3 C 0.22454 0.88892 0.02988 0.0
C4 C 0.22372 0.91456 0.01887 0.0
C5 C 0.21105 0.92158 0.98369 0.0
C6 C 0.23718 0.88141 0.06769 0.0
C7 C 0.25358 0.85892 0.07377 0.0
C8 C 0.26442 0.85098 0.10941 0.0
C9 C 0.25879 0.86586 0.13922 0.0
C10 C 0.24253 0.8884 0.13378 0.0
C11 C 0.23203 0.89618 0.09796 0.0
C12 C 0.23522 0.90302 0.16568 0.0
C13 C 0.22379 0.89045 0.19413 0.0
C14 C 0.23928 0.92946 0.16782 0.0
C15 C 0.23227 0.94304 0.19809 0.0
C16 C 0.22066 0.93049 0.22662 0.0
C17 C 0.28096 0.8268 0.11556 0.0
C18 C 0.27113 0.80466 0.09656 0.0
C19 C 0.30651 0.8256 0.14068 0.0
C20 C 0.32201 0.80279 0.14643 0.0
C21 C 0.31213 0.78064 0.12744 0.0
C22 C 0.28647 0.78183 0.10252 0.0
C23 C 0.21641 0.90401 0.22405 0.0
H24 H 0.19119 0.86271 0.95084 0.0
H25 H 0.21255 0.85056 0.01232 0.0
H26 H 0.23292 0.92925 0.03742 0.0
H27 H 0.21028 0.94155 0.97641 0.0
H28 H 0.25825 0.84767 0.05067 0.0
H29 H 0.21873 0.91315 0.09384 0.0
H30 H 0.2667 0.85968 0.16684 0.0
H31 H 0.21999 0.87013 0.19289 0.0
H32 H 0.24824 0.93957 0.14631 0.0
H33 H 0.23622 0.96332 0.19922 0.0
H34 H 0.25137 0.80493 0.0773 0.0
H35 H 0.31471 0.84239 0.15557 0.0
H36 H 0.20681 0.89369 0.24482 0.0
H37 H 0.27849 0.76517 0.08714 0.0
H38 H 0.34163 0.80245 0.16592 0.0
C39 C 0.70131 0.63967 0.71413 0.0
C40 C 0.70317 0.61299 0.71565 0.0
C41 C 0.70952 0.65302 0.68438 0.0
C42 C 0.71957 0.63998 0.65532 0.0
C43 C 0.72179 0.61331 0.65703 0.0
C44 C 0.71381 0.59996 0.68699 0.0
C45 C 0.72702 0.65417 0.62298 0.0
C46 C 0.74338 0.67665 0.62751 0.0
C47 C 0.74993 0.69051 0.59705 0.0
C48 C 0.73977 0.68164 0.56169 0.0
C49 C 0.72316 0.65928 0.55656 0.0
C50 C 0.71705 0.64562 0.58744 0.0
C51 C 0.71149 0.65052 0.51906 0.0
C52 C 0.70019 0.66804 0.49193 0.0
C53 C 0.71093 0.62448 0.51034 0.0
C54 C 0.69894 0.61615 0.47561 0.0
C55 C 0.68731 0.63365 0.44866 0.0
C56 C 0.76718 0.71435 0.60214 0.0
C57 C 0.76167 0.73236 0.62851 0.0
C58 C 0.78917 0.71936 0.58045 0.0
C59 C 0.80509 0.74193 0.58479 0.0
C60 C 0.79937 0.76011 0.61084 0.0
C61 C 0.77756 0.75498 0.6328 0.0
C62 C 0.6883 0.65971 0.45713 0.0
H63 H 0.69344 0.65025 0.73598 0.0
H64 H 0.70737 0.67353 0.68374 0.0
H65 H 0.72969 0.60277 0.63517 0.0
H66 H 0.71531 0.5794 0.6873 0.0
H67 H 0.75151 0.68311 0.65485 0.0
H68 H 0.70359 0.62877 0.58389 0.0
H69 H 0.74464 0.69229 0.5381 0.0
H70 H 0.69984 0.6882 0.49783 0.0
H71 H 0.71988 0.61049 0.53033 0.0
H72 H 0.69894 0.59598 0.46977 0.0
H73 H 0.74464 0.72919 0.64537 0.0
H74 H 0.79429 0.7057 0.56034 0.0
H75 H 0.67921 0.67365 0.43713 0.0
H76 H 0.77234 0.76868 0.65281 0.0
H77 H 0.82212 0.74499 0.56792 0.0
C78 C 0.79391 0.14055 0.13261 0.0
C79 C 0.82186 0.12981 0.13801 0.0
C80 C 0.78128 0.14809 0.09762 0.0
C81 C 0.79641 0.14521 0.06728 0.0
C82 C 0.82459 0.13488 0.07294 0.0
C83 C 0.8371 0.1272 0.10781 0.0
C84 C 0.78293 0.15278 0.02982 0.0
C85 C 0.76604 0.17501 0.02422 0.0
C86 C 0.75383 0.18251 0.98882 0.0
C87 C 0.75886 0.16751 0.95878 0.0
C88 C 0.77574 0.14525 0.96373 0.0
C89 C 0.78737 0.13794 0.99938 0.0
C90 C 0.78207 0.13008 0.93163 0.0
C91 C 0.76063 0.12608 0.90146 0.0
C92 C 0.81003 0.12011 0.93053 0.0
C93 C 0.81653 0.10689 0.89984 0.0
C94 C 0.79529 0.10335 0.86936 0.0
C95 C 0.73615 0.2062 0.98321 0.0
C96 C 0.71604 0.21239 0.00707 0.0
C97 C 0.73922 0.22281 0.95402 0.0
C98 C 0.72258 0.24504 0.94883 0.0
C99 C 0.70245 0.25121 0.97268 0.0
C100 C 0.69942 0.23461 1.00189 0.0
C101 C 0.76719 0.11291 0.87066 0.0
H102 H 0.78152 0.14257 0.15529 0.0
H103 H 0.75942 0.1557 0.09425 0.0
H104 H 0.83716 0.1329 0.05043 0.0
H105 H 0.85887 0.11939 0.11118 0.0
H106 H 0.76312 0.18695 0.04736 0.0
H107 H 0.79968 0.12042 0.00347 0.0
H108 H 0.74981 0.1733 0.93141 0.0
H109 H 0.73876 0.13313 0.90163 0.0
H110 H 0.82721 0.12319 0.95297 0.0
H111 H 0.83854 0.10021 0.8995 0.0
H112 H 0.71293 0.19993 0.02963 0.0
H113 H 0.75474 0.21879 0.93537 0.0
H114 H 0.75026 0.11026 0.84778 0.0
H115 H 0.68443 0.23891 0.0211 0.0
H116 H 0.72532 0.25728 0.9259 0.0
C117 C 0.26209 0.42204 0.36768 0.0
C118 C 0.29116 0.4297 0.36876 0.0
C119 C 0.25273 0.40991 0.39781 0.0
C120 C 0.27222 0.40512 0.42971 0.0
C121 C 0.30118 0.41309 0.43088 0.0
C122 C 0.31048 0.42531 0.4009 0.0
C123 C 0.26267 0.39149 0.46146 0.0
C124 C 0.24372 0.3706 0.45596 0.0
C125 C 0.23554 0.35697 0.48582 0.0
C126 C 0.24638 0.36471 0.52157 0.0
C127 C 0.2657 0.38521 0.52755 0.0
C128 C 0.27349 0.39862 0.49743 0.0
C129 C 0.27897 0.39184 0.56519 0.0
C130 C 0.26179 0.39478 0.59348 0.0
C131 C 0.30918 0.39483 0.57311 0.0
C132 C 0.32199 0.40051 0.6086 0.0
C133 C 0.30485 0.40364 0.63687 0.0
C134 C 0.21692 0.33393 0.47971 0.0
C135 C 0.19342 0.33313 0.45136 0.0
C136 C 0.22284 0.31232 0.50201 0.0
C137 C 0.20553 0.29065 0.49649 0.0
C138 C 0.18195 0.2899 0.46838 0.0
C139 C 0.17618 0.3113 0.44567 0.0
C140 C 0.27459 0.40086 0.62894 0.0
H141 H 0.24667 0.42493 0.34328 0.0
H142 H 0.23019 0.40429 0.39611 0.0
H143 H 0.31692 0.40947 0.45474 0.0
H144 H 0.33291 0.43128 0.40296 0.0
H145 H 0.23633 0.36425 0.42837 0.0
H146 H 0.28794 0.41478 0.50215 0.0
H147 H 0.24034 0.3544 0.54486 0.0
H148 H 0.23844 0.39264 0.58806 0.0
H149 H 0.32295 0.39244 0.55189 0.0
H150 H 0.34533 0.40279 0.61386 0.0
H151 H 0.18806 0.3495 0.43387 0.0
H152 H 0.24116 0.31197 0.52351 0.0
H153 H 0.26089 0.40309 0.65027 0.0
H154 H 0.15799 0.31136 0.42398 0.0
H155 H 0.21085 0.27429 0.51404 0.0
O156 O 0.97137 0.06205 0.60143 0.0
Mg157 Mg 0.01639 0.06192 0.60139 0.0
O158 O 0.96805 0.02348 0.57721 0.0
Mg159 Mg 0.00939 0.01573 0.54772 0.0
O160 O 0.02683 0.05698 0.55002 0.0
O161 O 0.0352 0.0931 0.58137 0.0
O162 O 0.05097 0.00888 0.51824 0.0
O163 O 0.98128 0.02762 0.49272 0.0
Mg164 Mg 0.00477 0.97141 0.49516 0.0
O165 O 0.99221 0.97387 0.5461 0.0
O166 O 0.04958 0.97046 0.49434 0.0
O167 O 0.97896 0.99422 0.4561 0.0
O168 O 0.98732 0.93877 0.5115 0.0
C169 C 0.04711 0.01463 0.6334 0.0
C170 C 0.95697 0.04206 0.5929 0.0
C171 C 0.03646 0.08017 0.55194 0.0
C172 C 0.06305 0.99093 0.50251 0.0
C173 C 0.97243 0.01713 0.46203 0.0
C174 C 0.98375 0.95037 0.54139 0.0
O175 O 0.0418 0.03786 0.63905 0.0
O176 O 0.03739 0.00401 0.60305 0.0
O177 O 0.54133 0.4931 0.13122 0.0
Mg178 Mg 0.51307 0.46941 0.09667 0.0
O179 O 0.53141 0.52667 0.0954 0.0
Mg180 Mg 0.50134 0.51402 0.04227 0.0
O181 O 0.51948 0.47252 0.0431 0.0
O182 O 0.52922 0.43724 0.07671 0.0
O183 O 0.47102 0.50128 0.9893 0.0
O184 O 0.54052 0.52275 0.00927 0.0
Mg185 Mg 0.4881 0.55864 0.98734 0.0
O186 O 0.48367 0.55563 0.04148 0.0
O187 O 0.45849 0.53503 0.95471 0.0
O188 O 0.53152 0.55864 0.97829 0.0
O189 O 0.47311 0.59098 0.00832 0.0
C190 C 0.45316 0.48743 0.09423 0.0
C191 C 0.54432 0.51657 0.12472 0.0
C192 C 0.52914 0.44926 0.04615 0.0
C193 C 0.45663 0.51141 0.96094 0.0
C194 C 0.54836 0.54039 0.9888 0.0
C195 C 0.47411 0.57893 0.03898 0.0
O196 O 0.46928 0.46857 0.10385 0.0
O197 O 0.46194 0.50542 0.07508 0.0
H198 H 0.16031 0.2625 0.52122 0.0
H199 H 0.13165 0.22352 0.51403 0.0
H200 H 0.13229 0.2263 0.39732 0.0
H201 H 0.16143 0.26543 0.40435 0.0
H202 H 0.0752 0.21591 0.46638 0.0
H203 H 0.16548 0.15373 0.43382 0.0
H204 H 0.17257 0.18377 0.45692 0.0
H205 H 0.15808 0.18326 0.40939 0.0
C206 C 0.15447 0.2548 0.49402 0.0
C207 C 0.16333 0.26691 0.46339 0.0
C208 C 0.13795 0.23262 0.48993 0.0
C209 C 0.13006 0.22198 0.4552 0.0
C210 C 0.13836 0.23417 0.42437 0.0
H211 H 0.01402 0.09253 0.48159 0.0
H212 H 0.03512 0.12403 0.44318 0.0
C213 C 0.15481 0.25656 0.42842 0.0
C214 C 0.1136 0.19782 0.4522 0.0
H215 H 0.12373 0.1336 0.44914 0.0
C216 C 0.08537 0.19787 0.46158 0.0
C217 C 0.1271 0.17445 0.44592 0.0
C218 C 0.15751 0.17353 0.436 0.0
C219 C 0.07106 0.17508 0.46763 0.0
C220 C 0.08535 0.15161 0.4638 0.0
C221 C 0.11274 0.15159 0.45171 0.0
C222 C 0.07524 0.12795 0.48005 0.0
C223 C 0.04188 0.1764 0.48121 0.0
C224 C 0.0916 0.11849 0.51195 0.0
C225 C 0.0797 0.10063 0.53353 0.0
C226 C 0.05142 0.09164 0.52338 0.0
C227 C 0.03603 0.09906 0.48964 0.0
C228 C 0.04795 0.11718 0.46797 0.0
H229 H 0.03519 0.19625 0.48612 0.0
H230 H 0.02514 0.16779 0.46062 0.0
H231 H 0.04235 0.16549 0.5071 0.0
H232 H 0.11266 0.12648 0.52183 0.0
H233 H 0.09181 0.09527 0.55962 0.0
H234 H 0.2913 0.73257 0.13548 0.0
H235 H 0.31856 0.69255 0.13913 0.0
H236 H 0.39777 0.73417 0.13383 0.0
H237 H 0.37074 0.77414 0.13065 0.0
H238 H 0.34712 0.67444 0.08734 0.0
H239 H 0.42501 0.68391 0.21333 0.0
H240 H 0.39374 0.70443 0.20341 0.0
H241 H 0.42651 0.71094 0.18398 0.0
C242 C 0.31459 0.73317 0.13551 0.0
C243 C 0.32888 0.75651 0.13273 0.0
C244 C 0.33015 0.71031 0.13783 0.0
C245 C 0.36031 0.71032 0.13744 0.0
C246 C 0.37468 0.73365 0.13537 0.0
H247 H 0.4901 0.62528 0.06498 0.0
H248 H 0.46178 0.65313 0.09956 0.0
C249 C 0.35917 0.75652 0.13332 0.0
C250 C 0.37623 0.686 0.13476 0.0
H251 H 0.43867 0.65454 0.16778 0.0
C252 C 0.36673 0.66972 0.1055 0.0
C253 C 0.40181 0.67982 0.1585 0.0
C254 C 0.41217 0.69559 0.19178 0.0
C255 C 0.38314 0.6485 0.09772 0.0
C256 C 0.40961 0.64314 0.12021 0.0
C257 C 0.41834 0.65861 0.15067 0.0
C258 C 0.43039 0.62431 0.10881 0.0
C259 C 0.37302 0.63305 0.06394 0.0
C260 C 0.42317 0.59842 0.10451 0.0
C261 C 0.43953 0.58241 0.08477 0.0
C262 C 0.46327 0.59214 0.06948 0.0
C263 C 0.472 0.61734 0.07686 0.0
C264 C 0.4558 0.63325 0.09657 0.0
H265 H 0.35423 0.64196 0.04671 0.0
H266 H 0.39088 0.63065 0.04705 0.0
H267 H 0.36633 0.61388 0.07219 0.0
H268 H 0.40374 0.5911 0.11401 0.0
H269 H 0.43201 0.56327 0.07843 0.0
H270 H 0.82034 0.78551 0.67399 0.0
H271 H 0.84853 0.82499 0.67973 0.0
H272 H 0.8451 0.82838 0.5624 0.0
H273 H 0.81607 0.78973 0.55635 0.0
H274 H 0.90118 0.83386 0.66058 0.0
H275 H 0.82369 0.90035 0.58422 0.0
H276 H 0.81272 0.86966 0.59958 0.0
H277 H 0.82771 0.87264 0.55716 0.0
C278 C 0.82511 0.79496 0.64937 0.0
C279 C 0.81591 0.78442 0.61468 0.0
C280 C 0.84133 0.81746 0.65273 0.0
C281 C 0.84845 0.82997 0.62148 0.0
C282 C 0.83924 0.8195 0.58689 0.0
H283 H 0.98724 0.90019 0.5557 0.0
H284 H 0.95512 0.87497 0.58799 0.0
C285 C 0.82302 0.79711 0.5835 0.0
C286 C 0.86739 0.85281 0.62463 0.0
H287 H 0.87501 0.91052 0.58463 0.0
C288 C 0.89519 0.85091 0.64472 0.0
C289 C 0.85944 0.87545 0.60495 0.0
C290 C 0.82912 0.87976 0.58565 0.0
C291 C 0.91609 0.86991 0.64261 0.0
C292 C 0.9092 0.89105 0.61921 0.0
C293 C 0.88054 0.89417 0.60216 0.0
C294 C 0.9321 0.90722 0.60661 0.0
C295 C 0.94576 0.86659 0.66427 0.0
C296 C 0.93021 0.93396 0.6065 0.0
C297 C 0.94878 0.94857 0.58777 0.0
C298 C 0.96898 0.93652 0.5684 0.0
C299 C 0.97185 0.90997 0.57041 0.0
C300 C 0.95363 0.8955 0.58921 0.0
H301 H 0.94422 0.85676 0.69063 0.0
H302 H 0.95926 0.85451 0.64854 0.0
H303 H 0.95686 0.88511 0.67 0.0
H304 H 0.91355 0.9434 0.61942 0.0
H305 H 0.94595 0.96901 0.58627 0.0
H306 H 0.71977 0.29864 0.95299 0.0
H307 H 0.69115 0.33793 0.9473 0.0
H308 H 0.61706 0.29705 0.97586 0.0
H309 H 0.64511 0.25758 0.98031 0.0
H310 H 0.60332 0.33235 0.91765 0.0
H311 H 0.67099 0.37587 0.03763 0.0
H312 H 0.68976 0.36537 1.00083 0.0
H313 H 0.6729 0.34245 0.0273 0.0
C314 C 0.69725 0.29792 0.95752 0.0
C315 C 0.68483 0.27496 0.96748 0.0
C316 C 0.68101 0.32045 0.95455 0.0
C317 C 0.65211 0.32048 0.96166 0.0
C318 C 0.63938 0.29748 0.97039 0.0
H319 H 0.51537 0.40238 0.02078 0.0
H320 H 0.54534 0.37498 0.98807 0.0
C321 C 0.65554 0.27497 0.97331 0.0
C322 C 0.63531 0.34449 0.96191 0.0
H323 H 0.62994 0.39844 0.01185 0.0
C324 C 0.60935 0.34702 0.93786 0.0
C325 C 0.64333 0.36375 0.98804 0.0
C326 C 0.67064 0.36181 0.01514 0.0
C327 C 0.59056 0.36771 0.94038 0.0
C328 C 0.59769 0.3861 0.96805 0.0
C329 C 0.62452 0.38441 0.99051 0.0
C330 C 0.57596 0.40446 0.97859 0.0
C331 C 0.56284 0.36926 0.91405 0.0
C332 C 0.58262 0.43044 0.98335 0.0
C333 C 0.56523 0.44625 1.00203 0.0
C334 C 0.54129 0.43611 0.01651 0.0
C335 C 0.53351 0.41067 0.00935 0.0
C336 C 0.55061 0.39501 0.99051 0.0
H337 H 0.56567 0.36061 0.88731 0.0
H338 H 0.54561 0.35845 0.92541 0.0
H339 H 0.55546 0.38924 0.90944 0.0
H340 H 0.60226 0.43807 0.97477 0.0
H341 H 0.57202 0.46564 0.0081 0.0
H342 H 0.22503 0.91493 0.29828 0.0
H343 H 0.20585 0.93591 0.3487 0.0
H344 H 0.18053 1.0005 0.2794 0.0
H345 H 0.19757 0.97879 0.22785 0.0
H346 H 0.21621 0.97882 0.38616 0.0
H347 H 0.10431 0.9824 0.31072 0.0
H348 H 0.13322 0.96527 0.29362 0.0
H349 H 0.13081 0.99932 0.28903 0.0
C350 C 0.21506 0.93346 0.29346 0.0
C351 C 0.21225 0.94479 0.25854 0.0
C352 C 0.20444 0.94562 0.32258 0.0
C353 C 0.19109 0.96956 0.3177 0.0
C354 C 0.18999 0.98173 0.28361 0.0
H355 H 0.08128 0.03383 0.47067 0.0
H356 H 0.11835 0.03538 0.42911 0.0
C357 C 0.20016 0.96938 0.25422 0.0
C358 C 0.17693 0.98076 0.34784 0.0
H359 H 0.11071 0.99745 0.37084 0.0
C360 C 0.19321 0.98321 0.38267 0.0
C361 C 0.14687 0.98653 0.34338 0.0
C362 C 0.12768 0.98306 0.30731 0.0
C363 C 0.18002 0.9902 0.41331 0.0
C364 C 0.14987 0.99499 0.40897 0.0
C365 C 0.13392 0.99401 0.37393 0.0
C366 C 0.13343 0.99689 0.44058 0.0
C367 C 0.19816 0.99159 0.45032 0.0
C368 C 0.13039 0.97507 0.46165 0.0
C369 C 0.10906 0.97402 0.48484 0.0
C370 C 0.09062 0.99489 0.4877 0.0
C371 C 0.09547 0.01759 0.4693 0.0
C372 C 0.11652 0.01847 0.44545 0.0
H373 H 0.2215 0.9944 0.44787 0.0
H374 H 0.19067 0.00729 0.46685 0.0
H375 H 0.19599 0.97348 0.46522 0.0
H376 H 0.14287 0.95808 0.45788 0.0
H377 H 0.10563 0.95627 0.49859 0.0
H378 H 0.73005 0.57339 0.75544 0.0
H379 H 0.71283 0.55045 0.80656 0.0
H380 H 0.63647 0.5979 0.79628 0.0
H381 H 0.65333 0.62069 0.74535 0.0
H382 H 0.69786 0.57309 0.87478 0.0
H383 H 0.6058 0.52299 0.79456 0.0
H384 H 0.63603 0.53557 0.77412 0.0
H385 H 0.60725 0.55628 0.7839 0.0
C386 C 0.70949 0.57875 0.76397 0.0
C387 C 0.69304 0.59886 0.74645 0.0
C388 C 0.69977 0.56572 0.79318 0.0
C389 C 0.67325 0.57232 0.80484 0.0
C390 C 0.65683 0.59232 0.78736 0.0
H391 H 0.58421 0.57959 0.98032 0.0
H392 H 0.6221 0.58082 0.94077 0.0
C393 C 0.66661 0.60547 0.7585 0.0
C394 C 0.66271 0.55909 0.83599 0.0
H395 H 0.60313 0.52841 0.85875 0.0
C396 C 0.67749 0.56278 0.87132 0.0
C397 C 0.63648 0.54522 0.83137 0.0
C398 C 0.62057 0.53952 0.7939 0.0
C399 C 0.66538 0.55481 0.90235 0.0
C400 C 0.63774 0.54313 0.89779 0.0
C401 C 0.62425 0.53749 0.86235 0.0
C402 C 0.62022 0.54058 0.92839 0.0
C403 C 0.68176 0.55988 0.93974 0.0
C404 C 0.6069 0.5174 0.93539 0.0
C405 C 0.58515 0.51667 0.9583 0.0
C406 C 0.5762 0.53918 0.97391 0.0
C407 C 0.5909 0.56194 0.9688 0.0
C408 C 0.61271 0.56262 0.94634 0.0
H409 H 0.70556 0.55959 0.93901 0.0
H410 H 0.67595 0.57908 0.9489 0.0
H411 H 0.67637 0.5457 0.96012 0.0
H412 H 0.61212 0.50022 0.92146 0.0
H413 H 0.57373 0.49902 0.9612 0.0
H414 H 0.82253 0.15403 0.20397 0.0
H415 H 0.84485 0.13907 0.26443 0.0
H416 H 0.87307 0.07063 0.21553 0.0
H417 H 0.85075 0.08528 0.15524 0.0
H418 H 0.84153 0.06617 0.28292 0.0
H419 H 0.93674 0.13145 0.29693 0.0
H420 H 0.90108 0.14419 0.28203 0.0
H421 H 0.91754 0.12311 0.25269 0.0
C422 C 0.83338 0.13575 0.20617 0.0
C423 C 0.83501 0.12088 0.17482 0.0
C424 C 0.84624 0.12732 0.24064 0.0
C425 C 0.86076 0.10386 0.24428 0.0
C426 C 0.86208 0.08886 0.21317 0.0
H427 H 0.95103 1.00018 0.39396 0.0
H428 H 0.92203 0.02335 0.34491 0.0
C429 C 0.84946 0.09732 0.17876 0.0
C430 C 0.87445 0.09458 0.28044 0.0
H431 H 0.93532 0.10056 0.34282 0.0
C432 C 0.86186 0.07384 0.29629 0.0
C433 C 0.90078 0.10485 0.29791 0.0
C434 C 0.91506 0.12709 0.28167 0.0
C435 C 0.87538 0.06258 0.3287 0.0
C436 C 0.9026 0.07189 0.34512 0.0
C437 C 0.91453 0.09339 0.33014 0.0
C438 C 0.92012 0.05816 0.37567 0.0
C439 C 0.86049 0.04063 0.34484 0.0
C440 C 0.92958 0.07028 0.40906 0.0
C441 C 0.94653 0.05706 0.43736 0.0
C442 C 0.95445 0.03155 0.43257 0.0
C443 C 0.94519 0.0197 0.39886 0.0
C444 C 0.92838 0.03288 0.37075 0.0
H445 H 0.83659 0.04148 0.33693 0.0
H446 H 0.8683 0.02251 0.33426 0.0
H447 H 0.86523 0.04039 0.37516 0.0
H448 H 0.92371 0.08989 0.41327 0.0
H449 H 0.95344 0.06681 0.46287 0.0
H450 H 0.28902 0.44102 0.68158 0.0
H451 H 0.3141 0.45386 0.7414 0.0
H452 H 0.37626 0.39334 0.7369 0.0
H453 H 0.35174 0.38095 0.67661 0.0
H454 H 0.32626 0.43054 0.80685 0.0
H455 H 0.42909 0.45371 0.75306 0.0
H456 H 0.39594 0.4469 0.72344 0.0
H457 H 0.41771 0.42139 0.74517 0.0
C458 C 0.30792 0.43038 0.69351 0.0
C459 C 0.31865 0.41019 0.67431 0.0
C460 C 0.32225 0.43772 0.72765 0.0
C461 C 0.34745 0.42492 0.74332 0.0
C462 C 0.35739 0.40399 0.72491 0.0
H463 H 0.46082 0.46018 0.94823 0.0
H464 H 0.43331 0.43571 0.89839 0.0
C465 C 0.34332 0.39686 0.69055 0.0
C466 C 0.36364 0.43397 0.7784 0.0
H467 H 0.42931 0.45724 0.81687 0.0
C468 C 0.34883 0.43624 0.80906 0.0
C469 C 0.39311 0.44153 0.78129 0.0
C470 C 0.40985 0.44102 0.74893 0.0
C471 C 0.36259 0.44614 0.84227 0.0
C472 C 0.39187 0.45381 0.84491 0.0
C473 C 0.40693 0.45098 0.81472 0.0
C474 C 0.40638 0.46741 0.87733 0.0
C475 C 0.34574 0.44883 0.87423 0.0
C476 C 0.40011 0.49316 0.88191 0.0
C477 C 0.41592 0.50718 0.90983 0.0
C478 C 0.43819 0.49565 0.93394 0.0
C479 C 0.4437 0.46953 0.93019 0.0
C480 C 0.42808 0.45557 0.90178 0.0
H481 H 0.32485 0.43834 0.86985 0.0
H482 H 0.35881 0.44176 0.89969 0.0
H483 H 0.34102 0.46925 0.87826 0.0
H484 H 0.38358 0.50263 0.8631 0.0
H485 H 0.41105 0.52722 0.91211 0.0
H486 H 0.65055 0.59342 0.43364 0.0
H487 H 0.62817 0.57838 0.37374 0.0
H488 H 0.6699 0.63874 0.32127 0.0
H489 H 0.69283 0.65371 0.38119 0.0
H490 H 0.59099 0.60704 0.31848 0.0
H491 H 0.69237 0.57187 0.27043 0.0
H492 H 0.68993 0.57782 0.31813 0.0
H493 H 0.69262 0.60394 0.2874 0.0
C494 C 0.65522 0.60336 0.40936 0.0
C495 C 0.67363 0.62467 0.41217 0.0
C496 C 0.64224 0.59486 0.37518 0.0
C497 C 0.64757 0.60733 0.34311 0.0
C498 C 0.66575 0.62871 0.34571 0.0
H499 H 0.54646 0.56875 0.1301 0.0
H500 H 0.5726 0.59396 0.18001 0.0
C501 C 0.67865 0.63733 0.37995 0.0
C502 C 0.63395 0.59777 0.30709 0.0
H503 H 0.64881 0.56654 0.23064 0.0
C504 C 0.60359 0.59845 0.29902 0.0
C505 C 0.65053 0.58648 0.28196 0.0
C506 C 0.68317 0.58474 0.28979 0.0
C507 C 0.58929 0.58759 0.26679 0.0
C508 C 0.60584 0.57592 0.24194 0.0
C509 C 0.63624 0.57574 0.24962 0.0
C510 C 0.59187 0.56137 0.20998 0.0
C511 C 0.55655 0.58765 0.26031 0.0
C512 C 0.59473 0.53484 0.20987 0.0
C513 C 0.5799 0.52046 0.18161 0.0
C514 C 0.562 0.53232 0.15263 0.0
C515 C 0.56005 0.55903 0.15202 0.0
C516 C 0.57483 0.57345 0.18056 0.0
H517 H 0.54697 0.59422 0.28468 0.0
H518 H 0.54898 0.60055 0.23712 0.0
H519 H 0.54824 0.5683 0.25291 0.0
H520 H 0.60783 0.52517 0.23227 0.0
H521 H 0.58209 0.49996 0.18287 0.0
H522 H 0.82903 0.06101 0.86409 0.0
H523 H 0.84729 0.04477 0.80924 0.0
H524 H 0.79766 0.1017 0.74375 0.0
H525 H 0.77966 0.11834 0.79839 0.0
H526 H 0.81547 0.02992 0.73127 0.0
H527 H 0.88878 0.11405 0.74091 0.0
H528 H 0.8724 0.10259 0.7795 0.0
H529 H 0.85096 0.11984 0.74349 0.0
C530 C 0.82175 0.0699 0.83794 0.0
C531 C 0.80312 0.09114 0.83567 0.0
C532 C 0.83198 0.06044 0.80662 0.0
C533 C 0.82382 0.07209 0.77258 0.0
C534 C 0.80408 0.09242 0.76984 0.0
H535 H 0.9128 0.07583 0.58328 0.0
H536 H 0.87406 0.07973 0.62158 0.0
C537 C 0.79378 0.10185 0.80109 0.0
C538 C 0.83868 0.06517 0.74095 0.0
H539 H 0.89097 0.08627 0.6919 0.0
C540 C 0.8319 0.04221 0.72239 0.0
C541 C 0.86013 0.08124 0.72972 0.0
C542 C 0.86877 0.10576 0.74945 0.0
C543 C 0.84588 0.03508 0.69236 0.0
C544 C 0.8675 0.05116 0.68124 0.0
C545 C 0.87416 0.07407 0.70004 0.0
C546 C 0.88465 0.04465 0.65129 0.0
C547 C 0.83713 0.01066 0.67259 0.0
C548 C 0.90233 0.02282 0.65357 0.0
C549 C 0.92405 0.02027 0.63088 0.0
C550 C 0.92868 0.03977 0.60627 0.0
C551 C 0.90945 0.06047 0.60189 0.0
C552 C 0.88744 0.06276 0.62393 0.0
H553 H 0.81478 0.00492 0.67658 0.0
H554 H 0.83825 0.01244 0.64281 0.0
H555 H 0.85214 0.99526 0.68369 0.0
H556 H 0.90106 0.00884 0.67487 0.0
H557 H 0.93901 0.0044 0.63524 0.0
H558 H 0.34271 0.42119 0.34297 0.0
H559 H 0.36067 0.4409 0.29058 0.0
H560 H 0.28138 0.48398 0.26723 0.0
H561 H 0.26331 0.46471 0.32048 0.0
H562 H 0.3006 0.45875 0.20492 0.0
H563 H 0.38769 0.51575 0.28297 0.0
H564 H 0.38795 0.4832 0.29781 0.0
H565 H 0.35741 0.5032 0.3033 0.0
C566 C 0.3292 0.43516 0.32717 0.0
C567 C 0.30168 0.44157 0.33629 0.0
C568 C 0.33949 0.44636 0.29713 0.0
C569 C 0.32255 0.46421 0.27545 0.0
C570 C 0.29484 0.47036 0.28384 0.0
H571 H 0.42716 0.52957 0.11875 0.0
H572 H 0.38742 0.52996 0.15629 0.0
C573 C 0.28452 0.45922 0.31413 0.0
C574 C 0.33394 0.47565 0.24354 0.0
H575 H 0.39378 0.50585 0.2207 0.0
C576 C 0.32062 0.46956 0.20823 0.0
C577 C 0.35965 0.49026 0.24786 0.0
C578 C 0.37387 0.49873 0.28504 0.0
C579 C 0.33377 0.47585 0.17725 0.0
C580 C 0.36105 0.48818 0.18192 0.0
C581 C 0.37299 0.4962 0.21702 0.0
C582 C 0.37973 0.4894 0.15232 0.0
C583 C 0.31879 0.46842 0.13998 0.0
C584 C 0.38801 0.46667 0.13672 0.0
C585 C 0.41047 0.4665 0.11521 0.0
C586 C 0.42519 0.48904 0.10886 0.0
C587 C 0.41569 0.51208 0.1224 0.0
C588 C 0.39319 0.51225 0.14415 0.0
H589 H 0.29483 0.46879 0.13925 0.0
H590 H 0.32485 0.48123 0.11828 0.0
H591 H 0.32509 0.44869 0.13384 0.0
H592 H 0.37859 0.4487 0.14332 0.0
H593 H 0.4175 0.44844 0.1053 0.0
H594 H 0.1487 0.88408 0.92107 0.0
H595 H 0.12413 0.89736 0.86128 0.0
H596 H 0.1907 0.95332 0.85336 0.0
H597 H 0.21604 0.9395 0.9125 0.0
H598 H 0.1016 0.94383 0.84353 0.0
H599 H 0.18371 0.92048 0.75304 0.0
H600 H 0.18557 0.90817 0.79904 0.0
H601 H 0.19804 0.93984 0.79122 0.0
C602 C 0.1585 0.89884 0.90629 0.0
C603 C 0.18444 0.91066 0.92163 0.0
C604 C 0.14431 0.9065 0.87218 0.0
C605 C 0.15578 0.92606 0.85254 0.0
C606 C 0.18175 0.9378 0.8676 0.0
H607 H 0.07105 0.03212 0.70018 0.0
H608 H 0.0967 0.00806 0.75095 0.0
C609 C 0.196 0.93012 0.9017 0.0
C610 C 0.13943 0.93551 0.81774 0.0
H611 H 0.14557 0.94904 0.72839 0.0
C612 C 0.11111 0.94465 0.81827 0.0
C613 C 0.15167 0.9363 0.7846 0.0
C614 C 0.18131 0.92543 0.78175 0.0
C615 C 0.09521 0.95555 0.78707 0.0
C616 C 0.10808 0.9577 0.75459 0.0
C617 C 0.13587 0.94756 0.75346 0.0
C618 C 0.09368 0.97205 0.72256 0.0
C619 C 0.06484 0.96504 0.78925 0.0
C620 C 0.08417 0.95986 0.68927 0.0
C621 C 0.06936 0.97363 0.65987 0.0
C622 C 0.06407 0.99983 0.66332 0.0
C623 C 0.07448 0.01196 0.69648 0.0
C624 C 0.08912 0.99824 0.72568 0.0
H625 H 0.0554 0.95605 0.81224 0.0
H626 H 0.06546 0.9859 0.79381 0.0
H627 H 0.05035 0.96125 0.76336 0.0
H628 H 0.08767 0.93964 0.68633 0.0
H629 H 0.06173 0.96371 0.63471 0.0
loop_
_geom_bond_atom_site_label_1
_geom_bond_atom_site_label_2
_geom_bond_distance
_geom_bond_site_symmetry_2
_ccdc_geom_bond_type
C0 C1 1.386 . S
C0 C2 1.397 . S
C0 H24 0.931 . S
C1 C0 1.386 . S
C1 C5 1.397 . S
C2 C0 1.397 . S
C2 C3 1.384 1_556 S
C2 H25 0.930 . S
C3 C2 1.384 1_554 S
C3 C4 1.377 . S
C3 C6 1.481 . S
C4 C3 1.377 . S
C4 C5 1.389 1_554 S
C4 H26 0.929 . S
C5 C1 1.397 . S
C5 C4 1.389 1_556 S
C5 H27 0.931 . S
C6 C3 1.481 . S
C6 C7 1.387 . S
C6 C11 1.390 . S
C7 C6 1.387 . S
C7 C8 1.401 . S
C7 H28 0.930 . S
C8 C7 1.401 . S
C8 C9 1.376 . S
C8 C17 1.511 . S
C9 C8 1.376 . S
C9 C10 1.392 . S
C9 H30 0.931 . S
C10 C9 1.392 . S
C10 C11 1.361 . S
C10 C12 1.500 . S
C11 C6 1.390 . S
C11 C10 1.361 . S
C11 H29 0.931 . S
C12 C10 1.500 . S
C12 C13 1.371 . S
C12 C14 1.365 . S
C13 C12 1.371 . S
C13 C23 1.386 . S
C13 H31 0.931 . S
C14 C12 1.365 . S
C14 C15 1.409 . S
C14 H32 0.929 . S
C15 C14 1.409 . S
C15 C16 1.380 . S
C15 H33 0.930 . S
C16 C15 1.380 . S
C16 C23 1.357 . S
C17 C8 1.511 . S
C17 C18 1.341 . S
C17 C19 1.371 . S
C18 C17 1.341 . S
C18 C22 1.394 . S
C18 H34 0.930 . S
C19 C17 1.371 . S
C19 C20 1.392 . S
C19 H35 0.931 . S
C20 C19 1.392 . S
C20 C21 1.331 . S
C20 H38 0.932 . S
C21 C20 1.331 . S
C21 C22 1.336 . S
C22 C18 1.394 . S
C22 C21 1.336 . S
C22 H37 0.929 . S
C23 C13 1.386 . S
C23 C16 1.357 . S
C23 H36 0.928 . S
H24 C0 0.931 . S
H25 C2 0.930 . S
H26 C4 0.929 . S
H27 C5 0.931 . S
H28 C7 0.930 . S
H29 C11 0.931 . S
H30 C9 0.931 . S
H31 C13 0.931 . S
H32 C14 0.929 . S
H33 C15 0.930 . S
H34 C18 0.930 . S
H35 C19 0.931 . S
H36 C23 0.928 . S
H37 C22 0.929 . S
H38 C20 0.932 . S
C39 C40 1.386 . S
C39 C41 1.397 . S
C39 H63 0.931 . S
C40 C39 1.386 . S
C40 C44 1.397 . S
C41 C39 1.397 . S
C41 C42 1.384 . S
C41 H64 0.930 . S
C42 C41 1.384 . S
C42 C43 1.377 . S
C42 C45 1.481 . S
C43 C42 1.377 . S
C43 C44 1.389 . S
C43 H65 0.929 . S
C44 C40 1.397 . S
C44 C43 1.389 . S
C44 H66 0.931 . S
C45 C42 1.481 . S
C45 C46 1.387 . S
C45 C50 1.390 . S
C46 C45 1.387 . S
C46 C47 1.401 . S
C46 H67 0.930 . S
C47 C46 1.401 . S
C47 C48 1.376 . S
C47 C56 1.511 . S
C48 C47 1.376 . S
C48 C49 1.392 . S
C48 H69 0.931 . S
C49 C48 1.392 . S
C49 C50 1.361 . S
C49 C51 1.500 . S
C50 C45 1.390 . S
C50 C49 1.361 . S
C50 H68 0.931 . S
C51 C49 1.500 . S
C51 C52 1.371 . S
C51 C53 1.365 . S
C52 C51 1.371 . S
C52 C62 1.386 . S
C52 H70 0.931 . S
C53 C51 1.365 . S
C53 C54 1.409 . S
C53 H71 0.929 . S
C54 C53 1.409 . S
C54 C55 1.380 . S
C54 H72 0.930 . S
C55 C54 1.380 . S
C55 C62 1.357 . S
C56 C47 1.511 . S
C56 C57 1.341 . S
C56 C58 1.371 . S
C57 C56 1.341 . S
C57 C61 1.394 . S
C57 H73 0.930 . S
C58 C56 1.371 . S
C58 C59 1.392 . S
C58 H74 0.931 . S
C59 C58 1.392 . S
C59 C60 1.331 . S
C59 H77 0.932 . S
C60 C59 1.331 . S
C60 C61 1.336 . S
C61 C57 1.394 . S
C61 C60 1.336 . S
C61 H76 0.929 . S
C62 C52 1.386 . S
C62 C55 1.357 . S
C62 H75 0.928 . S
H63 C39 0.931 . S
H64 C41 0.930 . S
H65 C43 0.929 . S
H66 C44 0.931 . S
H67 C46 0.930 . S
H68 C50 0.931 . S
H69 C48 0.931 . S
H70 C52 0.931 . S
H71 C53 0.929 . S
H72 C54 0.930 . S
H73 C57 0.930 . S
H74 C58 0.931 . S
H75 C62 0.928 . S
H76 C61 0.929 . S
H77 C59 0.932 . S
C78 C79 1.386 . S
C78 C80 1.397 . S
C78 H102 0.931 . S
C79 C78 1.386 . S
C79 C83 1.397 . S
C80 C78 1.397 . S
C80 C81 1.384 . S
C80 H103 0.930 . S
C81 C80 1.384 . S
C81 C82 1.377 . S
C81 C84 1.481 . S
C82 C81 1.377 . S
C82 C83 1.389 . S
C82 H104 0.929 . S
C83 C79 1.397 . S
C83 C82 1.389 . S
C83 H105 0.931 . S
C84 C81 1.481 . S
C84 C85 1.387 . S
C84 C89 1.390 . S
C85 C84 1.387 . S
C85 C86 1.389 1_554 S
C85 H106 0.930 . S
C86 C85 1.389 1_556 S
C86 C87 1.388 . S
C86 C95 1.510 . S
C87 C86 1.388 . S
C87 C88 1.392 . S
C87 H108 0.931 . S
C88 C87 1.392 . S
C88 C89 1.361 1_556 S
C88 C90 1.500 . S
C89 C84 1.390 . S
C89 C88 1.361 1_554 S
C89 H107 0.931 . S
C90 C88 1.500 . S
C90 C91 1.371 . S
C90 C92 1.365 . S
C91 C90 1.371 . S
C91 C101 1.386 . S
C91 H109 0.931 . S
C92 C90 1.365 . S
C92 C93 1.409 . S
C92 H110 0.929 . S
C93 C92 1.409 . S
C93 C94 1.380 . S
C93 H111 0.930 . S
C94 C93 1.380 . S
C94 C101 1.357 . S
C95 C86 1.510 . S
C95 C96 1.341 1_556 S
C95 C97 1.371 . S
C96 C95 1.341 1_554 S
C96 C100 1.394 . S
C96 H112 0.930 . S
C97 C95 1.371 . S
C97 C98 1.392 . S
C97 H113 0.931 . S
C98 C97 1.392 . S
C98 C99 1.331 . S
C98 H116 0.932 . S
C99 C98 1.331 . S
C99 C100 1.336 1_556 S
C100 C96 1.394 . S
C100 C99 1.336 1_554 S
C100 H115 0.929 . S
C101 C91 1.386 . S
C101 C94 1.357 . S
C101 H114 0.928 . S
H102 C78 0.931 . S
H103 C80 0.930 . S
H104 C82 0.929 . S
H105 C83 0.931 . S
H106 C85 0.930 . S
H107 C89 0.931 . S
H108 C87 0.931 . S
H109 C91 0.931 . S
H110 C92 0.929 . S
H111 C93 0.930 . S
H112 C96 0.930 . S
H113 C97 0.931 . S
H114 C101 0.928 . S
H115 C100 0.929 . S
H116 C98 0.932 . S
C117 C118 1.386 . S
C117 C119 1.397 . S
C117 H141 0.931 . S
C118 C117 1.386 . S
C118 C122 1.397 . S
C119 C117 1.397 . S
C119 C120 1.384 . S
C119 H142 0.930 . S
C120 C119 1.384 . S
C120 C121 1.377 . S
C120 C123 1.481 . S
C121 C120 1.377 . S
C121 C122 1.389 . S
C121 H143 0.929 . S
C122 C118 1.397 . S
C122 C121 1.389 . S
C122 H144 0.931 . S
C123 C120 1.481 . S
C123 C124 1.387 . S
C123 C128 1.390 . S
C124 C123 1.387 . S
C124 C125 1.401 . S
C124 H145 0.930 . S
C125 C124 1.401 . S
C125 C126 1.376 . S
C125 C134 1.511 . S
C126 C125 1.376 . S
C126 C127 1.392 . S
C126 H147 0.931 . S
C127 C126 1.392 . S
C127 C128 1.361 . S
C127 C129 1.500 . S
C128 C123 1.390 . S
C128 C127 1.361 . S
C128 H146 0.931 . S
C129 C127 1.500 . S
C129 C130 1.371 . S
C129 C131 1.365 . S
C130 C129 1.371 . S
C130 C140 1.386 . S
C130 H148 0.931 . S
C131 C129 1.365 . S
C131 C132 1.409 . S
C131 H149 0.929 . S
C132 C131 1.409 . S
C132 C133 1.380 . S
C132 H150 0.930 . S
C133 C132 1.380 . S
C133 C140 1.357 . S
C134 C125 1.511 . S
C134 C135 1.341 . S
C134 C136 1.371 . S
C135 C134 1.341 . S
C135 C139 1.394 . S
C135 H151 0.930 . S
C136 C134 1.371 . S
C136 C137 1.392 . S
C136 H152 0.931 . S
C137 C136 1.392 . S
C137 C138 1.331 . S
C137 H155 0.932 . S
C138 C137 1.331 . S
C138 C139 1.336 . S
C139 C135 1.394 . S
C139 C138 1.336 . S
C139 H154 0.929 . S
C140 C130 1.386 . S
C140 C133 1.357 . S
C140 H153 0.928 . S
H141 C117 0.931 . S
H142 C119 0.930 . S
H143 C121 0.929 . S
H144 C122 0.931 . S
H145 C124 0.930 . S
H146 C128 0.931 . S
H147 C126 0.931 . S
H148 C130 0.931 . S
H149 C131 0.929 . S
H150 C132 0.930 . S
H151 C135 0.930 . S
H152 C136 0.931 . S
H153 C140 0.928 . S
H154 C139 0.929 . S
H155 C137 0.932 . S
O156 Mg157 1.990 1_655 S
O156 C170 1.253 . S
Mg157 O156 1.990 1_455 S
Mg157 O160 2.180 . S
Mg157 O161 2.117 . S
Mg157 O175 2.030 . S
O158 Mg159 2.072 1_655 S
O158 C170 1.260 . S
Mg159 O158 2.072 1_455 S
Mg159 O160 2.099 . S
Mg159 O162 2.066 1_545 S
Mg159 O163 2.072 1_455 S
Mg159 O165 2.099 1_445 S
Mg159 O176 2.079 1_545 S
O160 Mg157 2.180 . S
O160 Mg159 2.099 . S
O160 C171 1.279 . S
O161 Mg157 2.117 . S
O161 C171 1.250 . S
O162 Mg159 2.066 1_565 S
O162 C172 1.279 . S
O163 Mg159 2.072 1_655 S
O163 C173 1.260 . S
Mg164 O165 2.180 . S
Mg164 O166 2.030 1_655 S
Mg164 O167 1.990 1_565 S
Mg164 O168 2.117 . S
O165 Mg159 2.099 1_665 S
O165 Mg164 2.180 . S
O165 C174 1.279 . S
O166 Mg164 2.030 1_455 S
O166 C172 1.248 . S
O167 Mg164 1.990 1_545 S
O167 C173 1.253 . S
O168 Mg164 2.117 . S
O168 C174 1.250 . S
C169 O175 1.236 1_565 S
C169 O176 1.267 . S
C170 O156 1.253 . S
C170 O158 1.260 . S
C171 O160 1.279 . S
C171 O161 1.250 . S
C172 O162 1.279 . S
C172 O166 1.248 . S
C173 O163 1.260 . S
C173 O167 1.253 . S
C174 O165 1.279 . S
C174 O168 1.250 . S
O175 Mg157 2.030 . S
O175 C169 1.236 1_545 S
O176 Mg159 2.079 1_565 S
O176 C169 1.267 . S
O177 Mg178 1.990 . S
O177 C191 1.253 . S
Mg178 O177 1.990 . S
Mg178 O181 2.180 . S
Mg178 O182 2.117 . S
Mg178 O196 2.030 . S
O179 Mg180 2.072 . S
O179 C191 1.260 . S
Mg180 O179 2.072 . S
Mg180 O181 2.099 . S
Mg180 O183 2.079 1_554 S
Mg180 O184 2.072 . S
Mg180 O186 2.099 . S
Mg180 O197 2.079 . S
O181 Mg178 2.180 . S
O181 Mg180 2.099 . S
O181 C192 1.279 . S
O182 Mg178 2.117 . S
O182 C192 1.250 . S
O183 Mg180 2.079 1_556 S
O183 C193 1.264 . S
O184 Mg180 2.072 . S
O184 C194 1.260 1_554 S
Mg185 O186 2.180 1_556 S
Mg185 O187 2.030 . S
Mg185 O188 1.990 . S
Mg185 O189 2.117 1_556 S
O186 Mg180 2.099 . S
O186 Mg185 2.180 1_554 S
O186 C195 1.279 . S
O187 Mg185 2.030 . S
O187 C193 1.248 . S
O188 Mg185 1.990 . S
O188 C194 1.253 . S
O189 Mg185 2.117 1_554 S
O189 C195 1.250 . S
C190 O196 1.248 . S
C190 O197 1.264 . S
C191 O177 1.253 . S
C191 O179 1.260 . S
C192 O181 1.279 . S
C192 O182 1.250 . S
C193 O183 1.264 . S
C193 O187 1.248 . S
C194 O184 1.260 1_556 S
C194 O188 1.253 . S
C195 O186 1.279 . S
C195 O189 1.250 . S
O196 Mg178 2.030 . S
O196 C190 1.248 . S
O197 Mg180 2.079 . S
O197 C190 1.264 . S
H198 C206 0.929 . S
H199 C208 0.930 . S
H200 C210 0.930 . S
H201 C213 0.929 . S
H202 C216 0.930 . S
H203 C218 0.960 . S
H204 C218 0.960 . S
H205 C218 0.960 . S
C206 H198 0.929 . S
C206 C207 1.377 . S
C206 C208 1.384 . S
C207 C206 1.377 . S
C207 C213 1.390 . S
C208 H199 0.930 . S
C208 C206 1.384 . S
C208 C209 1.372 . S
C209 C208 1.372 . S
C209 C210 1.400 . S
C209 C214 1.490 . S
C210 H200 0.930 . S
C210 C209 1.400 . S
C210 C213 1.386 . S
H211 C227 0.930 . S
H212 C228 0.931 . S
C213 H201 0.929 . S
C213 C207 1.390 . S
C213 C210 1.386 . S
C214 C209 1.490 . S
C214 C216 1.395 . S
C214 C217 1.403 . S
H215 C221 0.930 . S
C216 H202 0.930 . S
C216 C214 1.395 . S
C216 C219 1.403 . S
C217 C214 1.403 . S
C217 C218 1.524 . S
C217 C221 1.400 . S
C218 H203 0.960 . S
C218 H204 0.960 . S
C218 H205 0.960 . S
C218 C217 1.524 . S
C219 C216 1.403 . S
C219 C220 1.392 . S
C219 C223 1.495 . S
C220 C219 1.392 . S
C220 C221 1.385 . S
C220 C222 1.478 . S
C221 H215 0.930 . S
C221 C217 1.400 . S
C221 C220 1.385 . S
C222 C220 1.478 . S
C222 C224 1.381 . S
C222 C228 1.383 . S
C223 C219 1.495 . S
C223 H229 0.959 . S
C223 H230 0.961 . S
C223 H231 0.960 . S
C224 C222 1.381 . S
C224 C225 1.394 . S
C224 H232 0.930 . S
C225 C224 1.394 . S
C225 C226 1.383 . S
C225 H233 0.929 . S
C226 C225 1.383 . S
C226 C227 1.377 . S
C227 H211 0.930 . S
C227 C226 1.377 . S
C227 C228 1.379 . S
C228 H212 0.931 . S
C228 C222 1.383 . S
C228 C227 1.379 . S
H229 C223 0.959 . S
H230 C223 0.961 . S
H231 C223 0.960 . S
H232 C224 0.930 . S
H233 C225 0.929 . S
H234 C242 0.929 . S
H235 C244 0.930 . S
H236 C246 0.930 . S
H237 C249 0.929 . S
H238 C252 0.930 . S
H239 C254 0.960 . S
H240 C254 0.960 . S
H241 C254 0.960 . S
C242 H234 0.929 . S
C242 C243 1.377 . S
C242 C244 1.384 . S
C243 C242 1.377 . S
C243 C249 1.390 . S
C244 H235 0.930 . S
C244 C242 1.384 . S
C244 C245 1.372 . S
C245 C244 1.372 . S
C245 C246 1.400 . S
C245 C250 1.490 . S
C246 H236 0.930 . S
C246 C245 1.400 . S
C246 C249 1.386 . S
H247 C263 0.930 . S
H248 C264 0.931 . S
C249 H237 0.929 . S
C249 C243 1.390 . S
C249 C246 1.386 . S
C250 C245 1.490 . S
C250 C252 1.395 . S
C250 C253 1.403 . S
H251 C257 0.930 . S
C252 H238 0.930 . S
C252 C250 1.395 . S
C252 C255 1.403 . S
C253 C250 1.403 . S
C253 C254 1.524 . S
C253 C257 1.400 . S
C254 H239 0.960 . S
C254 H240 0.960 . S
C254 H241 0.960 . S
C254 C253 1.524 . S
C255 C252 1.403 . S
C255 C256 1.392 . S
C255 C259 1.495 . S
C256 C255 1.392 . S
C256 C257 1.385 . S
C256 C258 1.478 . S
C257 H251 0.930 . S
C257 C253 1.400 . S
C257 C256 1.385 . S
C258 C256 1.478 . S
C258 C260 1.381 . S
C258 C264 1.383 . S
C259 C255 1.495 . S
C259 H265 0.959 . S
C259 H266 0.961 1_554 S
C259 H267 0.960 . S
C260 C258 1.381 . S
C260 C261 1.394 . S
C260 H268 0.930 . S
C261 C260 1.394 . S
C261 C262 1.383 . S
C261 H269 0.929 . S
C262 C261 1.383 . S
C262 C263 1.377 . S
C263 H247 0.930 . S
C263 C262 1.377 . S
C263 C264 1.379 . S
C264 H248 0.931 . S
C264 C258 1.383 . S
C264 C263 1.379 . S
H265 C259 0.959 . S
H266 C259 0.961 1_556 S
H267 C259 0.960 . S
H268 C260 0.930 . S
H269 C261 0.929 . S
H270 C278 0.929 . S
H271 C280 0.930 . S
H272 C282 0.930 . S
H273 C285 0.929 . S
H274 C288 0.930 . S
H275 C290 0.960 . S
H276 C290 0.960 . S
H277 C290 0.960 . S
C278 H270 0.929 . S
C278 C279 1.377 . S
C278 C280 1.384 . S
C279 C278 1.377 . S
C279 C285 1.390 . S
C280 H271 0.930 . S
C280 C278 1.384 . S
C280 C281 1.372 . S
C281 C280 1.372 . S
C281 C282 1.400 . S
C281 C286 1.490 . S
C282 H272 0.930 . S
C282 C281 1.400 . S
C282 C285 1.386 . S
H283 C299 0.930 . S
H284 C300 0.931 . S
C285 H273 0.929 . S
C285 C279 1.390 . S
C285 C282 1.386 . S
C286 C281 1.490 . S
C286 C288 1.395 . S
C286 C289 1.403 . S
H287 C293 0.930 . S
C288 H274 0.930 . S
C288 C286 1.395 . S
C288 C291 1.403 . S
C289 C286 1.403 . S
C289 C290 1.524 . S
C289 C293 1.400 . S
C290 H275 0.960 . S
C290 H276 0.960 . S
C290 H277 0.960 . S
C290 C289 1.524 . S
C291 C288 1.403 . S
C291 C292 1.392 . S
C291 C295 1.495 . S
C292 C291 1.392 . S
C292 C293 1.385 . S
C292 C294 1.478 . S
C293 H287 0.930 . S
C293 C289 1.400 . S
C293 C292 1.385 . S
C294 C292 1.478 . S
C294 C296 1.381 . S
C294 C300 1.383 . S
C295 C291 1.495 . S
C295 H301 0.959 . S
C295 H302 0.961 . S
C295 H303 0.960 . S
C296 C294 1.381 . S
C296 C297 1.394 . S
C296 H304 0.930 . S
C297 C296 1.394 . S
C297 C298 1.383 . S
C297 H305 0.929 . S
C298 C297 1.383 . S
C298 C299 1.377 . S
C299 H283 0.930 . S
C299 C298 1.377 . S
C299 C300 1.379 . S
C300 H284 0.931 . S
C300 C294 1.383 . S
C300 C299 1.379 . S
H301 C295 0.959 . S
H302 C295 0.961 . S
H303 C295 0.960 . S
H304 C296 0.930 . S
H305 C297 0.929 . S
H306 C314 0.929 . S
H307 C316 0.930 . S
H308 C318 0.930 . S
H309 C321 0.929 . S
H310 C324 0.930 . S
H311 C326 0.960 . S
H312 C326 0.960 . S
H313 C326 0.960 . S
C314 H306 0.929 . S
C314 C315 1.377 . S
C314 C316 1.384 . S
C315 C314 1.377 . S
C315 C321 1.390 1_556 S
C316 H307 0.930 . S
C316 C314 1.384 . S
C316 C317 1.372 1_556 S
C317 C316 1.372 1_554 S
C317 C318 1.400 . S
C317 C322 1.490 . S
C318 H308 0.930 . S
C318 C317 1.400 . S
C318 C321 1.386 . S
H319 C335 0.930 . S
H320 C336 0.931 . S
C321 H309 0.929 . S
C321 C315 1.390 1_554 S
C321 C318 1.386 . S
C322 C317 1.490 . S
C322 C324 1.395 1_554 S
C322 C325 1.403 . S
H323 C329 0.930 . S
C324 H310 0.930 . S
C324 C322 1.395 1_556 S
C324 C327 1.403 . S
C325 C322 1.403 . S
C325 C326 1.524 . S
C325 C329 1.400 . S
C326 H311 0.960 . S
C326 H312 0.960 . S
C326 H313 0.960 . S
C326 C325 1.524 . S
C327 C324 1.403 . S
C327 C328 1.392 1_556 S
C327 C331 1.495 . S
C328 C327 1.392 1_554 S
C328 C329 1.385 . S
C328 C330 1.478 . S
C329 H323 0.930 . S
C329 C325 1.400 . S
C329 C328 1.385 . S
C330 C328 1.478 . S
C330 C332 1.381 1_554 S
C330 C336 1.383 . S
C331 C327 1.495 . S
C331 H337 0.959 . S
C331 H338 0.961 . S
C331 H339 0.960 . S
C332 C330 1.381 1_556 S
C332 C333 1.394 1_556 S
C332 H340 0.930 . S
C333 C332 1.394 1_554 S
C333 C334 1.383 . S
C333 H341 0.929 1_554 S
C334 C333 1.383 . S
C334 C335 1.377 . S
C335 H319 0.930 . S
C335 C334 1.377 . S
C335 C336 1.379 . S
C336 H320 0.931 . S
C336 C330 1.383 . S
C336 C335 1.379 . S
H337 C331 0.959 . S
H338 C331 0.961 . S
H339 C331 0.960 . S
H340 C332 0.930 . S
H341 C333 0.929 1_556 S
H342 C350 0.929 . S
H343 C352 0.930 . S
H344 C354 0.930 . S
H345 C357 0.929 . S
H346 C360 0.930 . S
H347 C362 0.960 . S
H348 C362 0.960 . S
H349 C362 0.960 . S
C350 H342 0.929 . S
C350 C351 1.377 . S
C350 C352 1.384 . S
C351 C350 1.377 . S
C351 C357 1.390 . S
C352 H343 0.930 . S
C352 C350 1.384 . S
C352 C353 1.372 . S
C353 C352 1.372 . S
C353 C354 1.400 . S
C353 C358 1.490 . S
C354 H344 0.930 . S
C354 C353 1.400 . S
C354 C357 1.386 . S
H355 C371 0.930 . S
H356 C372 0.931 1_545 S
C357 H345 0.929 . S
C357 C351 1.390 . S
C357 C354 1.386 . S
C358 C353 1.490 . S
C358 C360 1.395 . S
C358 C361 1.403 . S
H359 C365 0.930 . S
C360 H346 0.930 . S
C360 C358 1.395 . S
C360 C363 1.403 . S
C361 C358 1.403 . S
C361 C362 1.524 . S
C361 C365 1.400 . S
C362 H347 0.960 . S
C362 H348 0.960 . S
C362 H349 0.960 . S
C362 C361 1.524 . S
C363 C360 1.403 . S
C363 C364 1.392 . S
C363 C367 1.495 . S
C364 C363 1.392 . S
C364 C365 1.385 . S
C364 C366 1.478 . S
C365 H359 0.930 . S
C365 C361 1.400 . S
C365 C364 1.385 . S
C366 C364 1.478 . S
C366 C368 1.381 . S
C366 C372 1.383 . S
C367 C363 1.495 . S
C367 H373 0.959 . S
C367 H374 0.961 . S
C367 H375 0.960 . S
C368 C366 1.381 . S
C368 C369 1.394 . S
C368 H376 0.930 . S
C369 C368 1.394 . S
C369 C370 1.383 . S
C369 H377 0.929 . S
C370 C369 1.383 . S
C370 C371 1.377 1_565 S
C371 H355 0.930 . S
C371 C370 1.377 1_545 S
C371 C372 1.379 1_545 S
C372 H356 0.931 1_565 S
C372 C366 1.383 . S
C372 C371 1.379 1_565 S
H373 C367 0.959 . S
H374 C367 0.961 . S
H375 C367 0.960 . S
H376 C368 0.930 . S
H377 C369 0.929 . S
H378 C386 0.929 . S
H379 C388 0.930 . S
H380 C390 0.930 . S
H381 C393 0.929 . S
H382 C396 0.930 . S
H383 C398 0.960 . S
H384 C398 0.960 . S
H385 C398 0.960 . S
C386 H378 0.929 . S
C386 C387 1.377 . S
C386 C388 1.384 . S
C387 C386 1.377 . S
C387 C393 1.390 . S
C388 H379 0.930 . S
C388 C386 1.384 . S
C388 C389 1.372 . S
C389 C388 1.372 . S
C389 C390 1.400 . S
C389 C394 1.490 . S
C390 H380 0.930 . S
C390 C389 1.400 . S
C390 C393 1.386 . S
H391 C407 0.930 . S
H392 C408 0.931 . S
C393 H381 0.929 . S
C393 C387 1.390 . S
C393 C390 1.386 . S
C394 C389 1.490 . S
C394 C396 1.395 . S
C394 C397 1.403 . S
H395 C401 0.930 . S
C396 H382 0.930 . S
C396 C394 1.395 . S
C396 C399 1.403 . S
C397 C394 1.403 . S
C397 C398 1.524 . S
C397 C401 1.400 . S
C398 H383 0.960 . S
C398 H384 0.960 . S
C398 H385 0.960 . S
C398 C397 1.524 . S
C399 C396 1.403 . S
C399 C400 1.392 . S
C399 C403 1.495 . S
C400 C399 1.392 . S
C400 C401 1.385 . S
C400 C402 1.478 . S
C401 H395 0.930 . S
C401 C397 1.400 . S
C401 C400 1.385 . S
C402 C400 1.478 . S
C402 C404 1.381 . S
C402 C408 1.383 . S
C403 C399 1.495 . S
C403 H409 0.959 . S
C403 H410 0.961 . S
C403 H411 0.960 . S
C404 C402 1.381 . S
C404 C405 1.394 . S
C404 H412 0.930 . S
C405 C404 1.394 . S
C405 C406 1.383 . S
C405 H413 0.929 . S
C406 C405 1.383 . S
C406 C407 1.377 . S
C407 H391 0.930 . S
C407 C406 1.377 . S
C407 C408 1.379 . S
C408 H392 0.931 . S
C408 C402 1.383 . S
C408 C407 1.379 . S
H409 C403 0.959 . S
H410 C403 0.961 . S
H411 C403 0.960 . S
H412 C404 0.930 . S
H413 C405 0.929 . S
H414 C422 0.929 . S
H415 C424 0.930 . S
H416 C426 0.930 . S
H417 C429 0.929 . S
H418 C432 0.930 . S
H419 C434 0.960 . S
H420 C434 0.960 . S
H421 C434 0.960 . S
C422 H414 0.929 . S
C422 C423 1.377 . S
C422 C424 1.384 . S
C423 C422 1.377 . S
C423 C429 1.390 . S
C424 H415 0.930 . S
C424 C422 1.384 . S
C424 C425 1.372 . S
C425 C424 1.372 . S
C425 C426 1.400 . S
C425 C430 1.490 . S
C426 H416 0.930 . S
C426 C425 1.400 . S
C426 C429 1.386 . S
H427 C443 0.930 . S
H428 C444 0.931 . S
C429 H417 0.929 . S
C429 C423 1.390 . S
C429 C426 1.386 . S
C430 C425 1.490 . S
C430 C432 1.395 . S
C430 C433 1.403 . S
H431 C437 0.930 . S
C432 H418 0.930 . S
C432 C430 1.395 . S
C432 C435 1.403 . S
C433 C430 1.403 . S
C433 C434 1.524 . S
C433 C437 1.400 . S
C434 H419 0.960 . S
C434 H420 0.960 . S
C434 H421 0.960 . S
C434 C433 1.524 . S
C435 C432 1.403 . S
C435 C436 1.392 . S
C435 C439 1.495 . S
C436 C435 1.392 . S
C436 C437 1.385 . S
C436 C438 1.478 . S
C437 H431 0.930 . S
C437 C433 1.400 . S
C437 C436 1.385 . S
C438 C436 1.478 . S
C438 C440 1.381 . S
C438 C444 1.383 . S
C439 C435 1.495 . S
C439 H445 0.959 . S
C439 H446 0.961 . S
C439 H447 0.960 . S
C440 C438 1.381 . S
C440 C441 1.394 . S
C440 H448 0.930 . S
C441 C440 1.394 . S
C441 C442 1.383 . S
C441 H449 0.929 . S
C442 C441 1.383 . S
C442 C443 1.377 . S
C443 H427 0.930 . S
C443 C442 1.377 . S
C443 C444 1.379 . S
C444 H428 0.931 . S
C444 C438 1.383 . S
C444 C443 1.379 . S
H445 C439 0.959 . S
H446 C439 0.961 . S
H447 C439 0.960 . S
H448 C440 0.930 . S
H449 C441 0.929 . S
H450 C458 0.929 . S
H451 C460 0.930 . S
H452 C462 0.930 . S
H453 C465 0.929 . S
H454 C468 0.930 . S
H455 C470 0.960 . S
H456 C470 0.960 . S
H457 C470 0.960 . S
C458 H450 0.929 . S
C458 C459 1.377 . S
C458 C460 1.384 . S
C459 C458 1.377 . S
C459 C465 1.390 . S
C460 H451 0.930 . S
C460 C458 1.384 . S
C460 C461 1.372 . S
C461 C460 1.372 . S
C461 C462 1.400 . S
C461 C466 1.490 . S
C462 H452 0.930 . S
C462 C461 1.400 . S
C462 C465 1.386 . S
H463 C479 0.930 . S
H464 C480 0.931 . S
C465 H453 0.929 . S
C465 C459 1.390 . S
C465 C462 1.386 . S
C466 C461 1.490 . S
C466 C468 1.395 . S
C466 C469 1.403 . S
H467 C473 0.930 . S
C468 H454 0.930 . S
C468 C466 1.395 . S
C468 C471 1.403 . S
C469 C466 1.403 . S
C469 C470 1.524 . S
C469 C473 1.400 . S
C470 H455 0.960 . S
C470 H456 0.960 . S
C470 H457 0.960 . S
C470 C469 1.524 . S
C471 C468 1.403 . S
C471 C472 1.392 . S
C471 C475 1.495 . S
C472 C471 1.392 . S
C472 C473 1.385 . S
C472 C474 1.478 . S
C473 H467 0.930 . S
C473 C469 1.400 . S
C473 C472 1.385 . S
C474 C472 1.478 . S
C474 C476 1.381 . S
C474 C480 1.383 . S
C475 C471 1.495 . S
C475 H481 0.959 . S
C475 H482 0.961 . S
C475 H483 0.960 . S
C476 C474 1.381 . S
C476 C477 1.394 . S
C476 H484 0.930 . S
C477 C476 1.394 . S
C477 C478 1.383 . S
C477 H485 0.929 . S
C478 C477 1.383 . S
C478 C479 1.377 . S
C479 H463 0.930 . S
C479 C478 1.377 . S
C479 C480 1.379 . S
C480 H464 0.931 . S
C480 C474 1.383 . S
C480 C479 1.379 . S
H481 C475 0.959 . S
H482 C475 0.961 . S
H483 C475 0.960 . S
H484 C476 0.930 . S
H485 C477 0.929 . S
H486 C494 0.929 . S
H487 C496 0.930 . S
H488 C498 0.930 . S
H489 C501 0.929 . S
H490 C504 0.930 . S
H491 C506 0.960 . S
H492 C506 0.960 . S
H493 C506 0.960 . S
C494 H486 0.929 . S
C494 C495 1.377 . S
C494 C496 1.384 . S
C495 C494 1.377 . S
C495 C501 1.390 . S
C496 H487 0.930 . S
C496 C494 1.384 . S
C496 C497 1.372 . S
C497 C496 1.372 . S
C497 C498 1.400 . S
C497 C502 1.490 . S
C498 H488 0.930 . S
C498 C497 1.400 . S
C498 C501 1.386 . S
H499 C515 0.930 . S
H500 C516 0.931 . S
C501 H489 0.929 . S
C501 C495 1.390 . S
C501 C498 1.386 . S
C502 C497 1.490 . S
C502 C504 1.395 . S
C502 C505 1.403 . S
H503 C509 0.930 . S
C504 H490 0.930 . S
C504 C502 1.395 . S
C504 C507 1.403 . S
C505 C502 1.403 . S
C505 C506 1.524 . S
C505 C509 1.400 . S
C506 H491 0.960 . S
C506 H492 0.960 . S
C506 H493 0.960 . S
C506 C505 1.524 . S
C507 C504 1.403 . S
C507 C508 1.392 . S
C507 C511 1.495 . S
C508 C507 1.392 . S
C508 C509 1.385 . S
C508 C510 1.478 . S
C509 H503 0.930 . S
C509 C505 1.400 . S
C509 C508 1.385 . S
C510 C508 1.478 . S
C510 C512 1.381 . S
C510 C516 1.383 . S
C511 C507 1.495 . S
C511 H517 0.959 . S
C511 H518 0.961 . S
C511 H519 0.960 . S
C512 C510 1.381 . S
C512 C513 1.394 . S
C512 H520 0.930 . S
C513 C512 1.394 . S
C513 C514 1.383 . S
C513 H521 0.929 . S
C514 C513 1.383 . S
C514 C515 1.377 . S
C515 H499 0.930 . S
C515 C514 1.377 . S
C515 C516 1.379 . S
C516 H500 0.931 . S
C516 C510 1.383 . S
C516 C515 1.379 . S
H517 C511 0.959 . S
H518 C511 0.961 . S
H519 C511 0.960 . S
H520 C512 0.930 . S
H521 C513 0.929 . S
H522 C530 0.929 . S
H523 C532 0.930 . S
H524 C534 0.930 . S
H525 C537 0.929 . S
H526 C540 0.930 . S
H527 C542 0.960 . S
H528 C542 0.960 . S
H529 C542 0.960 . S
C530 H522 0.929 . S
C530 C531 1.377 . S
C530 C532 1.384 . S
C531 C530 1.377 . S
C531 C537 1.390 . S
C532 H523 0.930 . S
C532 C530 1.384 . S
C532 C533 1.372 . S
C533 C532 1.372 . S
C533 C534 1.400 . S
C533 C538 1.490 . S
C534 H524 0.930 . S
C534 C533 1.400 . S
C534 C537 1.386 . S
H535 C551 0.930 . S
H536 C552 0.931 . S
C537 H525 0.929 . S
C537 C531 1.390 . S
C537 C534 1.386 . S
C538 C533 1.490 . S
C538 C540 1.395 . S
C538 C541 1.403 . S
H539 C545 0.930 . S
C540 H526 0.930 . S
C540 C538 1.395 . S
C540 C543 1.403 . S
C541 C538 1.403 . S
C541 C542 1.524 . S
C541 C545 1.400 . S
C542 H527 0.960 . S
C542 H528 0.960 . S
C542 H529 0.960 . S
C542 C541 1.524 . S
C543 C540 1.403 . S
C543 C544 1.392 . S
C543 C547 1.495 . S
C544 C543 1.392 . S
C544 C545 1.385 . S
C544 C546 1.478 . S
C545 H539 0.930 . S
C545 C541 1.400 . S
C545 C544 1.385 . S
C546 C544 1.478 . S
C546 C548 1.381 . S
C546 C552 1.383 . S
C547 C543 1.495 . S
C547 H553 0.959 . S
C547 H554 0.961 . S
C547 H555 0.960 . S
C548 C546 1.381 . S
C548 C549 1.394 . S
C548 H556 0.930 . S
C549 C548 1.394 . S
C549 C550 1.383 . S
C549 H557 0.929 . S
C550 C549 1.383 . S
C550 C551 1.377 . S
C551 H535 0.930 . S
C551 C550 1.377 . S
C551 C552 1.379 . S
C552 H536 0.931 . S
C552 C546 1.383 . S
C552 C551 1.379 . S
H553 C547 0.959 . S
H554 C547 0.961 . S
H555 C547 0.960 . S
H556 C548 0.930 . S
H557 C549 0.929 . S
H558 C566 0.929 . S
H559 C568 0.930 . S
H560 C570 0.930 . S
H561 C573 0.929 . S
H562 C576 0.930 . S
H563 C578 0.960 . S
H564 C578 0.960 . S
H565 C578 0.960 . S
C566 H558 0.929 . S
C566 C567 1.377 . S
C566 C568 1.384 . S
C567 C566 1.377 . S
C567 C573 1.390 . S
C568 H559 0.930 . S
C568 C566 1.384 . S
C568 C569 1.372 . S
C569 C568 1.372 . S
C569 C570 1.400 . S
C569 C574 1.490 . S
C570 H560 0.930 . S
C570 C569 1.400 . S
C570 C573 1.386 . S
H571 C587 0.930 . S
H572 C588 0.931 . S
C573 H561 0.929 . S
C573 C567 1.390 . S
C573 C570 1.386 . S
C574 C569 1.490 . S
C574 C576 1.395 . S
C574 C577 1.403 . S
H575 C581 0.930 . S
C576 H562 0.930 . S
C576 C574 1.395 . S
C576 C579 1.403 . S
C577 C574 1.403 . S
C577 C578 1.524 . S
C577 C581 1.400 . S
C578 H563 0.960 . S
C578 H564 0.960 . S
C578 H565 0.960 . S
C578 C577 1.524 . S
C579 C576 1.403 . S
C579 C580 1.392 . S
C579 C583 1.495 . S
C580 C579 1.392 . S
C580 C581 1.385 . S
C580 C582 1.478 . S
C581 H575 0.930 . S
C581 C577 1.400 . S
C581 C580 1.385 . S
C582 C580 1.478 . S
C582 C584 1.381 . S
C582 C588 1.383 . S
C583 C579 1.495 . S
C583 H589 0.959 . S
C583 H590 0.961 . S
C583 H591 0.960 . S
C584 C582 1.381 . S
C584 C585 1.394 . S
C584 H592 0.930 . S
C585 C584 1.394 . S
C585 C586 1.383 . S
C585 H593 0.929 . S
C586 C585 1.383 . S
C586 C587 1.377 . S
C587 H571 0.930 . S
C587 C586 1.377 . S
C587 C588 1.379 . S
C588 H572 0.931 . S
C588 C582 1.383 . S
C588 C587 1.379 . S
H589 C583 0.959 . S
H590 C583 0.961 . S
H591 C583 0.960 . S
H592 C584 0.930 . S
H593 C585 0.929 . S
H594 C602 0.929 . S
H595 C604 0.930 . S
H596 C606 0.930 . S
H597 C609 0.929 . S
H598 C612 0.930 . S
H599 C614 0.960 . S
H600 C614 0.960 . S
H601 C614 0.960 . S
C602 H594 0.929 . S
C602 C603 1.377 . S
C602 C604 1.384 . S
C603 C602 1.377 . S
C603 C609 1.390 . S
C604 H595 0.930 . S
C604 C602 1.384 . S
C604 C605 1.372 . S
C605 C604 1.372 . S
C605 C606 1.400 . S
C605 C610 1.490 . S
C606 H596 0.930 . S
C606 C605 1.400 . S
C606 C609 1.386 . S
H607 C623 0.930 . S
H608 C624 0.931 1_545 S
C609 H597 0.929 . S
C609 C603 1.390 . S
C609 C606 1.386 . S
C610 C605 1.490 . S
C610 C612 1.395 . S
C610 C613 1.403 . S
H611 C617 0.930 . S
C612 H598 0.930 . S
C612 C610 1.395 . S
C612 C615 1.403 . S
C613 C610 1.403 . S
C613 C614 1.524 . S
C613 C617 1.400 . S
C614 H599 0.960 . S
C614 H600 0.960 . S
C614 H601 0.960 . S
C614 C613 1.524 . S
C615 C612 1.403 . S
C615 C616 1.392 . S
C615 C619 1.495 . S
C616 C615 1.392 . S
C616 C617 1.385 . S
C616 C618 1.478 . S
C617 H611 0.930 . S
C617 C613 1.400 . S
C617 C616 1.385 . S
C618 C616 1.478 . S
C618 C620 1.381 . S
C618 C624 1.383 . S
C619 C615 1.495 . S
C619 H625 0.959 . S
C619 H626 0.961 . S
C619 H627 0.960 . S
C620 C618 1.381 . S
C620 C621 1.394 . S
C620 H628 0.930 . S
C621 C620 1.394 . S
C621 C622 1.383 . S
C621 H629 0.929 . S
C622 C621 1.383 . S
C622 C623 1.377 1_565 S
C623 H607 0.930 . S
C623 C622 1.377 1_545 S
C623 C624 1.379 1_545 S
C624 H608 0.931 1_565 S
C624 C618 1.383 . S
C624 C623 1.379 1_565 S
H625 C619 0.959 . S
H626 C619 0.961 . S
H627 C619 0.960 . S
H628 C620 0.930 . S
H629 C621 0.929 . S
C226 C171 1.309 . S
C207 C138 1.495 . S
C243 C21 1.490 . S
C262 C195 1.285 . S
C279 C60 1.664 . S
C298 C174 1.493 . S
C315 C99 1.674 . S
C334 C192 1.501 . S
C370 C172 1.605 . S
C351 C16 1.601 . S
C406 C194 1.553 . S
C387 C40 1.602 . S
C423 C79 1.579 . S
C442 C173 1.479 . S
C459 C133 1.588 . S
C478 C193 1.530 . S
C514 C191 1.512 . S
C495 C55 1.581 . S
C550 C170 1.580 . S
C531 C94 1.598 . S
C586 C190 1.594 . S
C567 C118 1.602 . S
C603 C1 1.586 . S
C622 C169 1.539 . S
