# Generated by pormake.
# Topology apo, (3,6)-cn, num edge types: 1
# Building blocks:
#     Node 0, Type 0, BuildingBlock: QEWDON_clean_linker_0, # of connection points: 3
#     Node 1, Type 0, BuildingBlock: QEWDON_clean_linker_0, # of connection points: 3
#     Node 2, Type 0, BuildingBlock: QEWDON_clean_linker_0, # of connection points: 3
#     Node 3, Type 0, BuildingBlock: QEWDON_clean_linker_0, # of connection points: 3
#     Node 4, Type 0, BuildingBlock: QEWDON_clean_linker_0, # of connection points: 3
#     Node 5, Type 0, BuildingBlock: QEWDON_clean_linker_0, # of connection points: 3
#     Node 6, Type 0, BuildingBlock: QEWDON_clean_linker_0, # of connection points: 3
#     Node 7, Type 0, BuildingBlock: QEWDON_clean_linker_0, # of connection points: 3
#     Node 8, Type 1, BuildingBlock: MIDCAF_clean_sbu_0, # of connection points: 6
#     Node 9, Type 1, BuildingBlock: MIDCAF_clean_sbu_0, # of connection points: 6
#     Node 10, Type 1, BuildingBlock: MIDCAF_clean_sbu_0, # of connection points: 6
#     Node 11, Type 1, BuildingBlock: MIDCAF_clean_sbu_0, # of connection points: 6
#     Edge 12, Type (0, 1), BuildingBlock: KIFKEQ_clean_linker_1, # of connection points: 2
#     Edge 13, Type (0, 1), BuildingBlock: KIFKEQ_clean_linker_1, # of connection points: 2
#     Edge 14, Type (0, 1), BuildingBlock: KIFKEQ_clean_linker_1, # of connection points: 2
#     Edge 15, Type (0, 1), BuildingBlock: KIFKEQ_clean_linker_1, # of connection points: 2
#     Edge 16, Type (0, 1), BuildingBlock: KIFKEQ_clean_linker_1, # of connection points: 2
#     Edge 17, Type (0, 1), BuildingBlock: KIFKEQ_clean_linker_1, # of connection points: 2
#     Edge 18, Type (0, 1), BuildingBlock: KIFKEQ_clean_linker_1, # of connection points: 2
#     Edge 19, Type (0, 1), BuildingBlock: KIFKEQ_clean_linker_1, # of connection points: 2
#     Edge 20, Type (0, 1), BuildingBlock: KIFKEQ_clean_linker_1, # of connection points: 2
#     Edge 21, Type (0, 1), BuildingBlock: KIFKEQ_clean_linker_1, # of connection points: 2
#     Edge 22, Type (0, 1), BuildingBlock: KIFKEQ_clean_linker_1, # of connection points: 2
#     Edge 23, Type (0, 1), BuildingBlock: KIFKEQ_clean_linker_1, # of connection points: 2
#     Edge 24, Type (0, 1), BuildingBlock: KIFKEQ_clean_linker_1, # of connection points: 2
#     Edge 25, Type (0, 1), BuildingBlock: KIFKEQ_clean_linker_1, # of connection points: 2
#     Edge 26, Type (0, 1), BuildingBlock: KIFKEQ_clean_linker_1, # of connection points: 2
#     Edge 27, Type (0, 1), BuildingBlock: KIFKEQ_clean_linker_1, # of connection points: 2
#     Edge 28, Type (0, 1), BuildingBlock: KIFKEQ_clean_linker_1, # of connection points: 2
#     Edge 29, Type (0, 1), BuildingBlock: KIFKEQ_clean_linker_1, # of connection points: 2
#     Edge 30, Type (0, 1), BuildingBlock: KIFKEQ_clean_linker_1, # of connection points: 2
#     Edge 31, Type (0, 1), BuildingBlock: KIFKEQ_clean_linker_1, # of connection points: 2
#     Edge 32, Type (0, 1), BuildingBlock: KIFKEQ_clean_linker_1, # of connection points: 2
#     Edge 33, Type (0, 1), BuildingBlock: KIFKEQ_clean_linker_1, # of connection points: 2
#     Edge 34, Type (0, 1), BuildingBlock: KIFKEQ_clean_linker_1, # of connection points: 2
#     Edge 35, Type (0, 1), BuildingBlock: KIFKEQ_clean_linker_1, # of connection points: 2
# Relax obj value: 0.009
# Max RMSD: 0.110
# Mean RMSD: 0.093
data_MOF--net-apo--node1-MIDCAF_clean_sbu_0--node2-QEWDON_clean_linker_0--edge1-KIFKEQ_clean_linker_1
_symmetry_space_group_name_H-M    P1
_symmetry_Int_Tables_number       1
_symmetry_cell_setting            triclinic
loop_
_symmetry_equiv_pos_as_xyz
'x, y, z'
_cell_length_a     39.258158
_cell_length_b     43.373113
_cell_length_c     34.424291
_cell_angle_alpha  90.508122
_cell_angle_beta   90.288056
_cell_angle_gamma 90.095828
loop_
_atom_site_label
_atom_site_type_symbol
_atom_site_fract_x
_atom_site_fract_y
_atom_site_fract_z
_atom_type_partial_charge
H0 H 0.3385 0.38318 0.34788 0.0
C1 C 0.34304 0.37131 0.37501 0.0
C2 C 0.37381 0.37616 0.39495 0.0
C3 C 0.31719 0.35281 0.39089 0.0
H4 H 0.40277 0.36535 0.44616 0.0
C5 C 0.37917 0.36128 0.43041 0.0
C6 C 0.35387 0.34261 0.44689 0.0
C7 C 0.32273 0.33843 0.42697 0.0
C8 C 0.2835 0.35144 0.37109 0.0
H9 H 0.30264 0.32488 0.43996 0.0
C10 C 0.2677 0.32314 0.36141 0.0
C11 C 0.23695 0.32266 0.33987 0.0
C12 C 0.26766 0.37912 0.3602 0.0
H13 H 0.27907 0.40117 0.36765 0.0
C14 C 0.23703 0.37873 0.33964 0.0
H15 H 0.27988 0.30168 0.36939 0.0
C16 C 0.22183 0.35077 0.32934 0.0
H17 H 0.19791 0.35116 0.31353 0.0
H18 H 0.22505 0.40021 0.33152 0.0
H19 H 0.19609 0.13251 0.8655 0.0
C20 C 0.1859 0.13886 0.89365 0.0
C21 C 0.15301 0.12915 0.90433 0.0
C22 C 0.20656 0.15534 0.92002 0.0
H23 H 0.11615 0.12895 0.95071 0.0
C24 C 0.14075 0.13739 0.94141 0.0
C25 C 0.16079 0.15456 0.96782 0.0
C26 C 0.19382 0.16324 0.95688 0.0
C27 C 0.24283 0.16126 0.91115 0.0
H28 H 0.20986 0.17598 0.97711 0.0
C29 C 0.25268 0.17967 0.87956 0.0
C30 C 0.28751 0.18594 0.87281 0.0
C31 C 0.26789 0.1485 0.93531 0.0
H32 H 0.26082 0.13415 0.9596 0.0
C33 C 0.30223 0.15404 0.92839 0.0
H34 H 0.23326 0.18946 0.86094 0.0
C35 C 0.31202 0.17274 0.89769 0.0
H36 H 0.33889 0.17759 0.89433 0.0
H37 H 0.32137 0.14423 0.94734 0.0
H38 H 0.82996 0.12307 0.70919 0.0
C39 C 0.8337 0.13007 0.67937 0.0
C40 C 0.86383 0.12204 0.65995 0.0
C41 C 0.80746 0.14601 0.66029 0.0
H42 H 0.89012 0.1241 0.60504 0.0
C43 C 0.86768 0.13104 0.62111 0.0
C44 C 0.84206 0.14762 0.60182 0.0
C45 C 0.81198 0.15538 0.62161 0.0
C46 C 0.77393 0.14831 0.67954 0.0
H47 H 0.79151 0.16696 0.60638 0.0
C48 C 0.75979 0.17689 0.6905 0.0
C49 C 0.72936 0.17791 0.71223 0.0
C50 C 0.75698 0.12094 0.68937 0.0
H51 H 0.76747 0.09872 0.6812 0.0
C52 C 0.72659 0.1219 0.71002 0.0
H53 H 0.77301 0.19805 0.68342 0.0
C54 C 0.71292 0.15012 0.72158 0.0
H55 H 0.6892 0.15022 0.73751 0.0
H56 H 0.71369 0.10067 0.71735 0.0
H57 H 0.69624 0.36843 0.19151 0.0
C58 C 0.68585 0.36161 0.1635 0.0
C59 C 0.65299 0.37129 0.15238 0.0
C60 C 0.70622 0.34457 0.13765 0.0
H61 H 0.61598 0.37104 0.10576 0.0
C62 C 0.64052 0.36258 0.11542 0.0
C63 C 0.66028 0.34499 0.08949 0.0
C64 C 0.69326 0.33628 0.10084 0.0
C65 C 0.74256 0.33884 0.14672 0.0
H66 H 0.70914 0.3233 0.0809 0.0
C67 C 0.75273 0.32011 0.178 0.0
C68 C 0.78767 0.31413 0.18484 0.0
C69 C 0.7674 0.35214 0.12295 0.0
H70 H 0.76009 0.3667 0.0989 0.0
C71 C 0.80182 0.34683 0.12992 0.0
H72 H 0.73349 0.30989 0.19632 0.0
C73 C 0.81192 0.32787 0.16031 0.0
H74 H 0.83886 0.32327 0.16371 0.0
H75 H 0.82078 0.35705 0.11126 0.0
H76 H 0.64244 0.66176 0.71135 0.0
C77 C 0.64533 0.665 0.68036 0.0
C78 C 0.63219 0.64288 0.65433 0.0
C79 C 0.66253 0.69127 0.66684 0.0
H80 H 0.62453 0.63146 0.59401 0.0
C81 C 0.63631 0.64753 0.61429 0.0
C82 C 0.65394 0.67329 0.59993 0.0
C83 C 0.66716 0.69514 0.6266 0.0
C84 C 0.6737 0.71522 0.69524 0.0
H85 H 0.68028 0.71542 0.61616 0.0
C86 C 0.70777 0.72545 0.6971 0.0
C87 C 0.71825 0.74663 0.72624 0.0
C88 C 0.65006 0.72697 0.72205 0.0
H89 H 0.62369 0.71957 0.72108 0.0
C90 C 0.66012 0.74836 0.7503 0.0
H91 H 0.72623 0.71608 0.6769 0.0
C92 C 0.69395 0.75806 0.75255 0.0
H93 H 0.70103 0.77478 0.77472 0.0
H94 H 0.64165 0.75735 0.77068 0.0
H95 H 0.89197 0.828 0.20433 0.0
C96 C 0.88932 0.82576 0.17306 0.0
C97 C 0.90142 0.84925 0.149 0.0
C98 C 0.87485 0.79884 0.15707 0.0
H99 H 0.90794 0.86365 0.08961 0.0
C100 C 0.89848 0.84571 0.1085 0.0
C101 C 0.88414 0.81889 0.09206 0.0
C102 C 0.87232 0.79542 0.11648 0.0
C103 C 0.86494 0.77361 0.18327 0.0
H104 H 0.86199 0.77434 0.10399 0.0
C105 C 0.83049 0.76598 0.18893 0.0
C106 C 0.82128 0.7437 0.21664 0.0
C107 C 0.8902 0.75849 0.20482 0.0
H108 H 0.91684 0.76424 0.20098 0.0
C109 C 0.8813 0.73597 0.2316 0.0
H110 H 0.81097 0.77819 0.17289 0.0
C111 C 0.84713 0.72866 0.23763 0.0
H112 H 0.84094 0.71104 0.25855 0.0
H113 H 0.90096 0.7243 0.24797 0.0
H114 H 0.13631 0.83309 0.33209 0.0
C115 C 0.14001 0.82946 0.36295 0.0
C116 C 0.12623 0.85057 0.38965 0.0
C117 C 0.15749 0.80308 0.37571 0.0
H118 H 0.11989 0.86143 0.45048 0.0
C119 C 0.1306 0.84536 0.42955 0.0
C120 C 0.14815 0.81931 0.44286 0.0
C121 C 0.1617 0.79817 0.41587 0.0
C122 C 0.16866 0.77976 0.34668 0.0
H123 H 0.17436 0.77755 0.42604 0.0
C124 C 0.20287 0.77014 0.34437 0.0
C125 C 0.2133 0.74949 0.31474 0.0
C126 C 0.14484 0.76797 0.31981 0.0
H127 H 0.11836 0.77492 0.32112 0.0
C128 C 0.15484 0.7471 0.29107 0.0
H129 H 0.22144 0.77958 0.36463 0.0
C130 C 0.18878 0.73798 0.28839 0.0
H131 H 0.19578 0.72162 0.26587 0.0
H132 H 0.13622 0.73805 0.27065 0.0
H133 H 0.39428 0.67566 0.83825 0.0
C134 C 0.39126 0.67835 0.8694 0.0
C135 C 0.40283 0.65514 0.89426 0.0
C136 C 0.37669 0.70547 0.88443 0.0
H137 H 0.40831 0.64138 0.95406 0.0
C138 C 0.39929 0.65913 0.93457 0.0
C139 C 0.38482 0.68611 0.95008 0.0
C140 C 0.37348 0.70933 0.92489 0.0
C141 C 0.36694 0.73023 0.85733 0.0
H142 H 0.36297 0.73051 0.93669 0.0
C143 C 0.33264 0.7387 0.85227 0.0
C144 C 0.32337 0.76022 0.82357 0.0
C145 C 0.39203 0.74389 0.8342 0.0
H146 H 0.41856 0.73752 0.83755 0.0
C147 C 0.38311 0.76569 0.80643 0.0
H148 H 0.31318 0.72762 0.86951 0.0
C149 C 0.34904 0.77374 0.80097 0.0
H150 H 0.34279 0.79073 0.77921 0.0
H151 H 0.40265 0.7762 0.78883 0.0
Zn152 Zn 0.03065 0.11714 0.35382 0.0
Zn153 Zn 0.97359 0.11924 0.21998 0.0
Zn154 Zn 1.00194 0.11759 0.28632 0.0
C155 C 0.03318 0.15124 0.21023 0.0
C156 C 0.9838 0.05742 0.23335 0.0
O157 O 0.9662 0.13946 0.329 0.0
O158 O 0.99673 0.14145 0.38309 0.0
C159 C 0.0759 0.14816 0.30746 0.0
O160 O 0.03709 0.14167 0.24536 0.0
O161 O 1.0055 0.14641 0.19246 0.0
O162 O 0.97485 0.07514 0.20633 0.0
O163 O 0.99409 0.06881 0.26615 0.0
O164 O 0.07419 0.13716 0.34118 0.0
O165 O 0.05116 0.1438 0.28314 0.0
O166 O 0.01162 0.06836 0.30199 0.0
O167 O 0.03164 0.07222 0.36198 0.0
C168 C 0.02307 0.05567 0.33323 0.0
O169 O 0.95199 0.14295 0.29153 0.0
O170 O 0.92909 0.13653 0.23333 0.0
C171 C 0.96934 0.14705 0.36521 0.0
C172 C 0.92707 0.14707 0.26748 0.0
Zn173 Zn 0.52686 0.3816 0.70186 0.0
Zn174 Zn 0.47123 0.38287 0.83617 0.0
Zn175 Zn 0.49939 0.38287 0.76957 0.0
C176 C 0.48198 0.44431 0.82008 0.0
C177 C 0.42455 0.35388 0.78916 0.0
O178 O 0.54855 0.35712 0.77381 0.0
O179 O 0.57105 0.36312 0.71563 0.0
C180 C 0.51946 0.44349 0.71979 0.0
O181 O 0.49203 0.43204 0.78783 0.0
O182 O 0.47293 0.42735 0.84777 0.0
O183 O 0.42661 0.36516 0.82297 0.0
O184 O 0.44942 0.35754 0.7652 0.0
O185 O 0.52675 0.4262 0.69138 0.0
O186 O 0.5092 0.43164 0.75195 0.0
O187 O 0.46338 0.35968 0.72769 0.0
O188 O 0.49347 0.35549 0.67375 0.0
C189 C 0.46631 0.35054 0.69207 0.0
O190 O 0.53461 0.3595 0.8114 0.0
O191 O 0.50343 0.35626 0.86449 0.0
C192 C 0.57318 0.3528 0.74968 0.0
C193 C 0.53086 0.35075 0.84687 0.0
Zn194 Zn 0.03956 0.87867 0.83976 0.0
Zn195 Zn 0.99877 0.87847 0.69676 0.0
Zn196 Zn 0.01912 0.8773 0.76833 0.0
C197 C 0.99796 0.93914 0.7209 0.0
C198 C 0.95166 0.8424 0.73659 0.0
O199 O 0.06846 0.85197 0.77022 0.0
O200 O 0.07808 0.84992 0.83353 0.0
C201 C 0.0407 0.93931 0.81713 0.0
O202 O 0.01009 0.9261 0.75153 0.0
O203 O 0.98994 0.92307 0.69152 0.0
O204 O 0.95995 0.84983 0.70256 0.0
O205 O 0.96968 0.85174 0.7659 0.0
O206 O 0.04874 0.92325 0.84612 0.0
O207 O 0.02844 0.92628 0.78623 0.0
O208 O 0.97896 0.85466 0.80525 0.0
O209 O 0.99882 0.86277 0.86481 0.0
C210 C 0.97581 0.85263 0.84249 0.0
O211 O 0.05906 0.85433 0.73098 0.0
O212 O 0.03945 0.8623 0.67148 0.0
C213 C 0.0864 0.84261 0.79932 0.0
C214 C 0.06229 0.8521 0.69372 0.0
Zn215 Zn 0.53859 0.62332 0.20419 0.0
Zn216 Zn 0.49685 0.62599 0.3464 0.0
Zn217 Zn 0.51814 0.62614 0.27558 0.0
C218 C 0.55861 0.65604 0.35009 0.0
C219 C 0.49967 0.56477 0.32547 0.0
O220 O 0.47818 0.64804 0.23733 0.0
O221 O 0.49756 0.63813 0.17821 0.0
C222 C 0.58504 0.66077 0.24449 0.0
O223 O 0.55743 0.65061 0.31312 0.0
O224 O 0.53476 0.64724 0.37168 0.0
O225 O 0.49233 0.58112 0.35472 0.0
O226 O 0.50994 0.57755 0.29391 0.0
O227 O 0.57671 0.65285 0.21038 0.0
O228 O 0.56729 0.65174 0.27372 0.0
O229 O 0.52803 0.57695 0.25923 0.0
O230 O 0.54842 0.57873 0.19952 0.0
C231 C 0.54051 0.5633 0.22904 0.0
O232 O 0.46806 0.65095 0.27623 0.0
O233 O 0.45561 0.65096 0.33884 0.0
C234 C 0.4748 0.64903 0.19999 0.0
C235 C 0.44843 0.65887 0.3046 0.0
H236 H 0.06396 0.86963 0.41491 0.0
H237 H 0.14318 0.89205 0.33342 0.0
H238 H 0.0324 0.91541 0.39568 0.0
H239 H 0.11224 0.93853 0.31491 0.0
H240 H 0.0438 0.01548 0.27591 0.0
H241 H 0.06367 0.96242 0.28472 0.0
H242 H 0.03874 0.96875 0.40674 0.0
H243 H 0.01781 0.02069 0.3974 0.0
C244 C 0.07465 0.88446 0.39292 0.0
C245 C 0.10626 0.87753 0.37607 0.0
C246 C 0.05658 0.91072 0.38186 0.0
C247 C 0.06987 0.93098 0.35401 0.0
C248 C 0.10095 0.92335 0.33608 0.0
C249 C 0.11885 0.89683 0.34687 0.0
C250 C 0.0415 0.00499 0.30421 0.0
C251 C 0.029 0.02209 0.3359 0.0
C252 C 0.05337 0.97479 0.30946 0.0
C253 C 0.05311 0.96125 0.34654 0.0
C254 C 0.03899 0.97804 0.37765 0.0
C255 C 0.02713 0.00799 0.37238 0.0
H256 H 0.46291 0.62956 0.91719 0.0
H257 H 0.38049 0.61775 0.83499 0.0
H258 H 0.4889 0.58195 0.89374 0.0
H259 H 0.40578 0.56948 0.81222 0.0
H260 H 0.46495 0.48825 0.76625 0.0
H261 H 0.45123 0.54248 0.77953 0.0
H262 H 0.4761 0.52919 0.90074 0.0
H263 H 0.49096 0.47606 0.88707 0.0
C264 C 0.45033 0.61667 0.89414 0.0
C265 C 0.41945 0.62708 0.8783 0.0
C266 C 0.4652 0.58939 0.88064 0.0
C267 C 0.44929 0.57159 0.85133 0.0
C268 C 0.41901 0.5827 0.83447 0.0
C269 C 0.40434 0.61024 0.84769 0.0
C270 C 0.46851 0.49736 0.79538 0.0
C271 C 0.47918 0.47803 0.82558 0.0
C272 C 0.4602 0.52826 0.80315 0.0
C273 C 0.46232 0.54026 0.84129 0.0
C274 C 0.47457 0.52109 0.87094 0.0
C275 C 0.48288 0.49045 0.86316 0.0
H276 H 0.63513 0.58419 0.62509 0.0
H277 H 0.58749 0.63825 0.71583 0.0
H278 H 0.60222 0.53943 0.64439 0.0
H279 H 0.55531 0.59261 0.73604 0.0
H280 H 0.5128 0.4773 0.65471 0.0
H281 H 0.53751 0.52777 0.64234 0.0
H282 H 0.56812 0.53544 0.76261 0.0
H283 H 0.54356 0.48431 0.77504 0.0
C284 C 0.61755 0.58664 0.64906 0.0
C285 C 0.61366 0.61508 0.66844 0.0
C286 C 0.59877 0.56091 0.6602 0.0
C287 C 0.57587 0.56271 0.69135 0.0
C288 C 0.57278 0.59067 0.71188 0.0
C289 C 0.59134 0.6167 0.70037 0.0
C290 C 0.52404 0.49005 0.67878 0.0
C291 C 0.52636 0.47684 0.7158 0.0
C292 C 0.53833 0.51886 0.67164 0.0
C293 C 0.55527 0.5352 0.70134 0.0
C294 C 0.5552 0.52326 0.73921 0.0
C295 C 0.54098 0.49413 0.74636 0.0
H296 H 0.87905 0.88574 0.20887 0.0
H297 H 0.96193 0.87497 0.12806 0.0
H298 H 0.90496 0.93317 0.234 0.0
H299 H 0.98851 0.92173 0.15384 0.0
H300 H 0.99297 0.02734 0.16535 0.0
H301 H 0.97708 0.97484 0.14898 0.0
H302 H 0.95062 0.95863 0.26887 0.0
H303 H 0.96545 0.01226 0.28487 0.0
C304 C 0.9031 0.8933 0.19693 0.0
C305 C 0.91819 0.87698 0.16607 0.0
C306 C 0.91813 0.92035 0.21152 0.0
C307 C 0.94876 0.9315 0.1958 0.0
C308 C 0.96456 0.91426 0.16612 0.0
C309 C 0.94934 0.88747 0.15127 0.0
C310 C 0.98433 0.01242 0.1884 0.0
C311 C 0.98051 0.02387 0.22639 0.0
C312 C 0.97541 0.98214 0.17907 0.0
C313 C 0.96239 0.96236 0.20753 0.0
C314 C 0.96015 0.97335 0.24612 0.0
C315 C 0.96908 0.00389 0.25545 0.0
H316 H 0.85246 0.07379 0.70934 0.0
H317 H 0.93367 0.12325 0.65248 0.0
H318 H 0.89325 0.03622 0.73268 0.0
H319 H 0.97433 0.08454 0.67476 0.0
H320 H 1.00313 0.97747 0.65962 0.0
H321 H 0.97699 0.02806 0.65304 0.0
H322 H 0.9472 0.02599 0.77357 0.0
H323 H 0.97397 0.97522 0.78026 0.0
C324 C 0.8791 0.07726 0.70265 0.0
C325 C 0.88958 0.10158 0.67863 0.0
C326 C 0.90254 0.05559 0.71611 0.0
C327 C 0.93696 0.05742 0.7055 0.0
C328 C 0.94788 0.08251 0.6832 0.0
C329 C 0.9245 0.10449 0.67017 0.0
C330 C 0.99199 0.98829 0.68504 0.0
C331 C 0.99027 0.97241 0.72033 0.0
C332 C 0.97716 0.01732 0.68133 0.0
C333 C 0.95977 0.03081 0.71269 0.0
C334 C 0.9603 0.01598 0.74889 0.0
C335 C 0.97577 0.98707 0.75279 0.0
H336 H 0.58363 0.37301 0.16312 0.0
H337 H 0.67659 0.41994 0.19676 0.0
H338 H 0.55044 0.41531 0.19083 0.0
H339 H 0.6432 0.46136 0.22585 0.0
H340 H 0.57107 0.52894 0.28559 0.0
H341 H 0.59524 0.47699 0.27716 0.0
H342 H 0.55048 0.47123 0.16253 0.0
H343 H 0.5275 0.52309 0.17048 0.0
C344 C 0.59704 0.39198 0.17705 0.0
C345 C 0.63291 0.39325 0.17689 0.0
C346 C 0.57796 0.41605 0.1932 0.0
C347 C 0.59426 0.44166 0.21028 0.0
C348 C 0.62996 0.44174 0.2132 0.0
C349 C 0.64911 0.41789 0.19651 0.0
C350 C 0.56565 0.51609 0.25914 0.0
C351 C 0.5476 0.52992 0.22858 0.0
C352 C 0.5796 0.48654 0.25424 0.0
C353 C 0.5748 0.47016 0.21915 0.0
C354 C 0.55437 0.48316 0.18998 0.0
C355 C 0.54128 0.51286 0.19447 0.0
H356 H 0.39925 0.38418 0.32126 0.0
H357 H 0.40363 0.42157 0.43778 0.0
H358 H 0.43817 0.42471 0.29945 0.0
H359 H 0.44119 0.46212 0.41632 0.0
H360 H 0.51883 0.52625 0.38282 0.0
H361 H 0.49551 0.47531 0.39558 0.0
H362 H 0.43943 0.47856 0.28722 0.0
H363 H 0.46494 0.52874 0.27351 0.0
C364 C 0.40866 0.40098 0.34218 0.0
C365 C 0.39868 0.39951 0.3813 0.0
C366 C 0.43089 0.42422 0.32973 0.0
C367 C 0.44331 0.44662 0.35612 0.0
C368 C 0.43326 0.44484 0.39524 0.0
C369 C 0.41145 0.4216 0.40764 0.0
C370 C 0.50246 0.51548 0.36117 0.0
C371 C 0.49332 0.53138 0.32745 0.0
C372 C 0.4887 0.48648 0.36864 0.0
C373 C 0.46449 0.47322 0.34318 0.0
C374 C 0.45785 0.48798 0.30762 0.0
C375 C 0.47243 0.51676 0.29968 0.0
H376 H 0.17619 0.08161 0.85821 0.0
H377 H 0.08351 0.12756 0.89336 0.0
H378 H 0.14259 0.04126 0.82667 0.0
H379 H 0.05007 0.08623 0.86314 0.0
H380 H 0.02647 0.97784 0.87685 0.0
H381 H 0.04915 0.02958 0.88774 0.0
H382 H 0.09531 0.02729 0.7742 0.0
H383 H 0.07149 0.97544 0.76283 0.0
C384 C 0.14871 0.0837 0.85833 0.0
C385 C 0.13267 0.10774 0.879 0.0
C386 C 0.12944 0.06046 0.84021 0.0
C387 C 0.09374 0.06051 0.84271 0.0
C388 C 0.07759 0.08552 0.86104 0.0
C389 C 0.09681 0.10902 0.87864 0.0
C390 C 0.04047 0.98883 0.85371 0.0
C391 C 0.04737 0.97275 0.8191 0.0
C392 C 0.05339 0.01847 0.85987 0.0
C393 C 0.07417 0.03236 0.83191 0.0
C394 C 0.07941 0.01703 0.79623 0.0
C395 C 0.06567 0.98754 0.78966 0.0
H396 H 0.19461 0.15197 0.03807 0.0
H397 H 0.09681 0.17351 0.98729 0.0
H398 H 0.17104 0.16011 0.10296 0.0
H399 H 0.07293 0.18012 0.05157 0.0
H400 H 0.03257 0.2014 0.16405 0.0
H401 H 0.0699 0.20984 0.10883 0.0
H402 H 0.13325 0.13411 0.1461 0.0
H403 H 0.09671 0.12704 0.20256 0.0
C404 C 0.16821 0.15883 0.04069 0.0
C405 C 0.14753 0.16189 1.0074 0.0
C406 C 0.1546 0.16321 0.07796 0.0
C407 C 0.12003 0.17083 0.08279 0.0
C408 C 0.09979 0.17485 0.04931 0.0
C409 C 0.11336 0.17056 1.01224 0.0
C410 C 0.05541 0.18757 0.16134 0.0
C411 C 0.06171 0.16348 0.18733 0.0
C412 C 0.07653 0.19201 0.12934 0.0
C413 C 0.10391 0.17191 0.12205 0.0
C414 C 0.11237 0.15001 0.15055 0.0
C415 C 0.09153 0.146 0.18311 0.0
H416 H 0.31352 0.34865 0.51139 0.0
H417 H 0.4088 0.31051 0.47218 0.0
H418 H 0.33103 0.34067 0.57897 0.0
H419 H 0.42701 0.3037 0.53877 0.0
H420 H 0.46355 0.2954 0.65466 0.0
H421 H 0.42615 0.28253 0.60011 0.0
H422 H 0.36944 0.36642 0.62099 0.0
H423 H 0.40557 0.37778 0.67713 0.0
C424 C 0.33775 0.33768 0.51722 0.0
C425 C 0.35995 0.33044 0.48658 0.0
C426 C 0.34804 0.33348 0.55596 0.0
C427 C 0.38073 0.32195 0.56476 0.0
C428 C 0.40153 0.31231 0.5337 0.0
C429 C 0.39123 0.31641 0.49525 0.0
C430 C 0.44199 0.3102 0.6486 0.0
C431 C 0.43739 0.33757 0.66988 0.0
C432 C 0.42083 0.30315 0.61695 0.0
C433 C 0.39541 0.32397 0.60498 0.0
C434 C 0.38861 0.34972 0.62903 0.0
C435 C 0.40931 0.35632 0.66139 0.0
H436 H 0.69369 0.34733 1.01933 0.0
H437 H 0.59613 0.32602 0.06991 0.0
H438 H 0.66943 0.33979 0.95435 0.0
H439 H 0.57157 0.32001 1.0056 0.0
H440 H 0.5296 0.30052 0.89284 0.0
H441 H 0.56728 0.29117 0.94792 0.0
H442 H 0.63168 0.36644 0.91159 0.0
H443 H 0.59478 0.37436 0.8552 0.0
C444 C 0.6672 0.34061 1.01664 0.0
C445 C 0.64679 0.3375 0.0499 0.0
C446 C 0.6532 0.33659 0.97933 0.0
C447 C 0.61847 0.32928 0.97442 0.0
C448 C 0.59853 0.32507 1.00788 0.0
C449 C 0.6125 0.32899 0.04497 0.0
C450 C 0.55271 0.31407 0.89574 0.0
C451 C 0.55927 0.33823 0.87 0.0
C452 C 0.57404 0.3091 0.92766 0.0
C453 C 0.6019 0.32878 0.93518 0.0
C454 C 0.61047 0.35083 0.90697 0.0
C455 C 0.58941 0.35535 0.87446 0.0
H456 H 0.8538 0.20319 0.56758 0.0
H457 H 0.84229 0.1062 0.54269 0.0
H458 H 0.87488 0.21139 0.50141 0.0
H459 H 0.86331 0.11404 0.47698 0.0
H460 H 0.90209 0.13044 0.36002 0.0
H461 H 0.85974 0.137 0.41158 0.0
H462 H 0.93016 0.19533 0.47524 0.0
H463 H 0.97197 0.18875 0.42406 0.0
C464 C 0.8547 0.18387 0.54746 0.0
C465 C 0.84653 0.1541 0.56 0.0
C466 C 0.86693 0.18847 0.50971 0.0
C467 C 0.87101 0.16335 0.48388 0.0
C468 C 0.86014 0.13399 0.49575 0.0
C469 C 0.84824 0.12941 0.53347 0.0
C470 C 0.90785 0.14567 0.38429 0.0
C471 C 0.9404 0.15882 0.38831 0.0
C472 C 0.88376 0.14921 0.414 0.0
C473 C 0.89174 0.16629 0.44789 0.0
C474 C 0.92297 0.18215 0.44961 0.0
C475 C 0.94707 0.17829 0.42028 0.0
H476 H 0.8448 0.84828 0.03858 0.0
H477 H 0.92554 0.78185 0.04977 0.0
H478 H 0.8532 0.84936 0.96828 0.0
H479 H 0.93583 0.78411 0.98022 0.0
H480 H 0.9598 0.79303 0.85881 0.0
H481 H 0.92541 0.77762 0.91443 0.0
H482 H 0.89269 0.87222 0.92905 0.0
H483 H 0.92541 0.88662 0.87267 0.0
C484 C 0.86394 0.83348 0.02569 0.0
C485 C 0.88452 0.81496 0.04932 0.0
C486 C 0.86908 0.83427 0.98546 0.0
C487 C 0.89567 0.81726 0.96812 0.0
C488 C 0.91479 0.79727 0.99189 0.0
C489 C 0.90912 0.79604 0.03196 0.0
C490 C 0.94352 0.80997 0.87264 0.0
C491 C 0.94494 0.84092 0.86136 0.0
C492 C 0.92438 0.80137 0.90513 0.0
C493 C 0.90697 0.82377 0.92741 0.0
C494 C 0.90543 0.85407 0.91303 0.0
C495 C 0.92414 0.86246 0.88035 0.0
H496 H 0.66625 0.62954 0.54411 0.0
H497 H 0.6462 0.7268 0.55812 0.0
H498 H 0.65509 0.63315 0.4753 0.0
H499 H 0.63768 0.73119 0.48818 0.0
H500 H 0.55735 0.70863 0.39174 0.0
H501 H 0.59303 0.71902 0.44777 0.0
H502 H 0.66132 0.64613 0.41156 0.0
H503 H 0.62347 0.6344 0.35699 0.0
C504 C 0.66026 0.65196 0.53227 0.0
C505 C 0.65597 0.67764 0.55697 0.0
C506 C 0.65439 0.65421 0.49234 0.0
C507 C 0.64463 0.68241 0.47564 0.0
C508 C 0.64406 0.70884 0.49987 0.0
C509 C 0.64942 0.70644 0.54009 0.0
C510 C 0.58091 0.69586 0.39477 0.0
C511 C 0.58778 0.67091 0.36981 0.0
C512 C 0.60156 0.70174 0.42718 0.0
C513 C 0.6298 0.68282 0.43534 0.0
C514 C 0.63921 0.66058 0.40717 0.0
C515 C 0.61807 0.65435 0.37505 0.0
H516 H 0.42592 0.72302 0.99365 0.0
H517 H 0.34418 0.65716 1.00227 0.0
H518 H 0.4357 0.72002 0.06339 0.0
H519 H 0.3522 0.65528 0.07267 0.0
H520 H 0.42489 0.61552 0.16711 0.0
H521 H 0.39222 0.63117 0.11089 0.0
H522 H 0.42477 0.72552 0.12955 0.0
H523 H 0.45891 0.70895 0.18526 0.0
C524 C 0.40911 0.70888 1.01092 0.0
C525 C 0.38441 0.69027 0.99279 0.0
C526 C 0.41453 0.70719 0.05109 0.0
C527 C 0.39509 0.68702 0.07411 0.0
C528 C 0.3683 0.67049 0.05604 0.0
C529 C 0.36337 0.67176 1.01575 0.0
C530 C 0.4236 0.63986 0.16034 0.0
C531 C 0.44422 0.66104 0.18055 0.0
C532 C 0.4049 0.64897 0.1278 0.0
C533 C 0.40637 0.67963 0.11467 0.0
C534 C 0.42373 0.70156 0.13799 0.0
C535 C 0.44275 0.69227 0.17047 0.0
H536 H 0.19171 0.84408 0.49659 0.0
H537 H 0.10531 0.78349 0.484 0.0
H538 H 0.18461 0.8443 0.5672 0.0
H539 H 0.09674 0.78469 0.55393 0.0
H540 H 0.07562 0.79217 0.67581 0.0
H541 H 0.1088 0.77594 0.61932 0.0
H542 H 0.14629 0.86922 0.60773 0.0
H543 H 0.11449 0.8845 0.66485 0.0
C544 C 0.17176 0.83014 0.5092 0.0
C545 C 0.14917 0.8136 0.48515 0.0
C546 C 0.16737 0.83049 0.54961 0.0
C547 C 0.13975 0.81489 0.56669 0.0
C548 C 0.11862 0.79666 0.5424 0.0
C549 C 0.12335 0.79601 0.50213 0.0
C550 C 0.09269 0.80858 0.66249 0.0
C551 C 0.09278 0.83949 0.67478 0.0
C552 C 0.11116 0.79953 0.62954 0.0
C553 C 0.1295 0.82141 0.60787 0.0
C554 C 0.13272 0.85149 0.6233 0.0
C555 C 0.11458 0.86037 0.6564 0.0
H556 H 0.22546 0.27222 0.38505 0.0
H557 H 0.20937 0.30688 0.26929 0.0
H558 H 0.191 0.22708 0.36915 0.0
H559 H 0.17538 0.26138 0.2529 0.0
H560 H 0.07636 0.20124 0.26495 0.0
H561 H 0.1203 0.2412 0.26739 0.0
H562 H 0.18542 0.18055 0.33341 0.0
H563 H 0.14099 0.14135 0.33215 0.0
C564 C 0.21522 0.26981 0.3559 0.0
C565 C 0.21989 0.29323 0.32859 0.0
C566 C 0.19547 0.24385 0.34663 0.0
C567 C 0.18017 0.24052 0.30966 0.0
C568 C 0.18619 0.26337 0.28181 0.0
C569 C 0.20575 0.28941 0.29119 0.0
C570 C 0.10049 0.19619 0.27888 0.0
C571 C 0.10515 0.16839 0.29873 0.0
C572 C 0.12573 0.21912 0.28043 0.0
C573 C 0.15619 0.21445 0.30151 0.0
C574 C 0.16193 0.18538 0.31802 0.0
C575 C 0.13662 0.16275 0.31691 0.0
H576 H 0.25589 0.23918 0.84864 0.0
H577 H 0.34482 0.18309 0.82745 0.0
H578 H 0.28041 0.28012 0.80997 0.0
H579 H 0.37073 0.2249 0.79221 0.0
H580 H 0.42216 0.30278 0.7412 0.0
H581 H 0.38034 0.26113 0.74478 0.0
H582 H 0.32106 0.31599 0.82534 0.0
H583 H 0.36138 0.35761 0.81962 0.0
C584 C 0.28041 0.23527 0.83523 0.0
C585 C 0.2988 0.20809 0.8424 0.0
C586 C 0.2948 0.25905 0.81342 0.0
C587 C 0.32824 0.25656 0.79895 0.0
C588 C 0.34506 0.2281 0.8028 0.0
C589 C 0.33038 0.20413 0.82384 0.0
C590 C 0.39929 0.30638 0.75807 0.0
C591 C 0.39531 0.33327 0.78059 0.0
C592 C 0.37553 0.28226 0.76077 0.0
C593 C 0.34762 0.28452 0.78638 0.0
C594 C 0.34191 0.31296 0.80524 0.0
C595 C 0.36534 0.33699 0.80221 0.0
H596 H 0.70429 0.19283 0.7839 0.0
H597 H 0.71927 0.22974 0.66923 0.0
H598 H 0.67241 0.23886 0.80253 0.0
H599 H 0.68683 0.27539 0.6873 0.0
H600 H 0.63829 0.3604 0.72608 0.0
H601 H 0.68262 0.32124 0.72444 0.0
H602 H 0.61762 0.25994 0.78926 0.0
H603 H 0.57391 0.29986 0.79219 0.0
C604 C 0.70093 0.21094 0.76275 0.0
C605 C 0.71402 0.20759 0.72496 0.0
C606 C 0.68258 0.23728 0.7734 0.0
C607 C 0.67674 0.26086 0.74645 0.0
C608 C 0.6912 0.25802 0.70916 0.0
C609 C 0.70976 0.23178 0.69863 0.0
C610 C 0.634 0.33889 0.74109 0.0
C611 C 0.6026 0.33299 0.75894 0.0
C612 C 0.65923 0.31629 0.73975 0.0
C613 C 0.6534 0.28703 0.75564 0.0
C614 C 0.62312 0.28217 0.77667 0.0
C615 C 0.598 0.30507 0.7785 0.0
H616 H 0.84521 0.31731 0.23051 0.0
H617 H 0.75689 0.26021 0.20816 0.0
H618 H 0.87185 0.27559 0.26533 0.0
H619 H 0.78215 0.21928 0.24644 0.0
H620 H 0.86368 0.14269 0.23716 0.0
H621 H 0.82299 0.1839 0.23143 0.0
H622 H 0.88234 0.23919 0.31234 0.0
H623 H 0.92449 0.19784 0.31607 0.0
C624 C 0.83106 0.29604 0.23376 0.0
C625 C 0.79942 0.29183 0.215 0.0
C626 C 0.84618 0.2721 0.25456 0.0
C627 C 0.82976 0.24338 0.25801 0.0
C628 C 0.79627 0.24056 0.2433 0.0
C629 C 0.78144 0.26433 0.22171 0.0
C630 C 0.86758 0.1633 0.25466 0.0
C631 C 0.89768 0.16726 0.27637 0.0
C632 C 0.84394 0.18712 0.25161 0.0
C633 C 0.84954 0.21559 0.27053 0.0
C634 C 0.87761 0.21805 0.29625 0.0
C635 C 0.90157 0.19413 0.29901 0.0
H636 H 0.76129 0.76365 0.66792 0.0
H637 H 0.75669 0.75334 0.79241 0.0
H638 H 0.81903 0.7838 0.67394 0.0
H639 H 0.81472 0.77312 0.79852 0.0
H640 H 0.90249 0.84628 0.79303 0.0
H641 H 0.847 0.82031 0.79252 0.0
H642 H 0.87598 0.76978 0.68907 0.0
H643 H 0.93063 0.7962 0.68928 0.0
C644 C 0.77283 0.76522 0.69652 0.0
C645 C 0.75433 0.75698 0.72964 0.0
C646 C 0.80601 0.77675 0.70005 0.0
C647 C 0.82168 0.78009 0.73679 0.0
C648 C 0.80334 0.77132 0.76987 0.0
C649 C 0.77009 0.75992 0.76633 0.0
C650 C 0.8972 0.82902 0.7709 0.0
C651 C 0.92077 0.82327 0.74121 0.0
C652 C 0.86537 0.81421 0.77041 0.0
C653 C 0.8567 0.7933 0.74029 0.0
C654 C 0.8813 0.78633 0.71206 0.0
C655 C 0.91277 0.80128 0.71237 0.0
H656 H 0.77025 0.735 0.16326 0.0
H657 H 0.79015 0.73493 0.28674 0.0
H658 H 0.71166 0.71935 0.17504 0.0
H659 H 0.73131 0.71955 0.29868 0.0
H660 H 0.63858 0.6509 0.2936 0.0
H661 H 0.69494 0.67487 0.29026 0.0
H662 H 0.65817 0.7357 0.20056 0.0
H663 H 0.60233 0.71122 0.20373 0.0
C664 C 0.76194 0.73213 0.19297 0.0
C665 C 0.78493 0.73605 0.22399 0.0
C666 C 0.72828 0.72323 0.19981 0.0
C667 C 0.71665 0.71821 0.2379 0.0
C668 C 0.73948 0.72278 0.26899 0.0
C669 C 0.77321 0.7316 0.26212 0.0
C670 C 0.64233 0.6702 0.27443 0.0
C671 C 0.61616 0.67948 0.24931 0.0
C672 C 0.67467 0.68381 0.27216 0.0
C673 C 0.68129 0.70694 0.24465 0.0
C674 C 0.65426 0.71749 0.2214 0.0
C675 C 0.62217 0.70373 0.2235 0.0
H676 H 0.25075 0.74336 0.24809 0.0
H677 H 0.25767 0.73324 0.37256 0.0
H678 H 0.30912 0.72479 0.24143 0.0
H679 H 0.31578 0.71446 0.36597 0.0
H680 H 0.39926 0.65343 0.2476 0.0
H681 H 0.34306 0.67814 0.2477 0.0
H682 H 0.37192 0.73074 0.34994 0.0
H683 H 0.42717 0.70559 0.35018 0.0
C684 C 0.26471 0.73708 0.27405 0.0
C685 C 0.2495 0.73975 0.31091 0.0
C686 C 0.29817 0.72639 0.27018 0.0
C687 C 0.31728 0.71817 0.3031 0.0
C688 C 0.30212 0.72115 0.33998 0.0
C689 C 0.26874 0.73191 0.34384 0.0
C690 C 0.39375 0.67088 0.26934 0.0
C691 C 0.41741 0.67755 0.29893 0.0
C692 C 0.36154 0.68496 0.26961 0.0
C693 C 0.35265 0.706 0.29938 0.0
C694 C 0.37742 0.71403 0.32728 0.0
C695 C 0.40923 0.69984 0.3272 0.0
H696 H 0.29011 0.76678 0.75395 0.0
H697 H 0.27472 0.77273 0.87789 0.0
H698 H 0.23109 0.78233 0.74292 0.0
H699 H 0.2161 0.78868 0.86704 0.0
H700 H 0.10621 0.79459 0.84298 0.0
H701 H 0.16216 0.77072 0.84523 0.0
H702 H 0.19411 0.82666 0.74863 0.0
H703 H 0.13724 0.84979 0.74571 0.0
C704 C 0.27413 0.77152 0.77885 0.0
C705 C 0.28709 0.76854 0.81684 0.0
C706 C 0.24032 0.78045 0.77251 0.0
C707 C 0.21869 0.78665 0.80402 0.0
C708 C 0.2317 0.78344 0.842 0.0
C709 C 0.2654 0.77437 0.84831 0.0
C710 C 0.12498 0.80123 0.82163 0.0
C711 C 0.11755 0.82409 0.79427 0.0
C712 C 0.15718 0.78781 0.82317 0.0
C713 C 0.18301 0.79732 0.79782 0.0
C714 C 0.17484 0.81873 0.7686 0.0
C715 C 0.14226 0.83194 0.76676 0.0
loop_
_geom_bond_atom_site_label_1
_geom_bond_atom_site_label_2
_geom_bond_distance
_geom_bond_site_symmetry_2
_ccdc_geom_bond_type
H0 C1 0.949 . S
C1 H0 0.949 . S
C1 C2 1.395 . S
C1 C3 1.391 . S
C2 C1 1.395 . S
C2 C5 1.390 . S
C3 C1 1.391 . S
C3 C7 1.387 . S
C3 C8 1.491 . S
H4 C5 0.950 . S
C5 C2 1.390 . S
C5 H4 0.950 . S
C5 C6 1.378 . S
C6 C5 1.378 . S
C6 C7 1.409 . S
C7 C3 1.387 . S
C7 C6 1.409 . S
C7 H9 0.951 . S
C8 C3 1.491 . S
C8 C10 1.382 . S
C8 C12 1.404 . S
H9 C7 0.951 . S
C10 C8 1.382 . S
C10 C11 1.390 . S
C10 H15 0.949 . S
C11 C10 1.390 . S
C11 C16 1.399 . S
C12 C8 1.404 . S
C12 H13 0.950 . S
C12 C14 1.375 . S
H13 C12 0.950 . S
C14 C12 1.375 . S
C14 C16 1.382 . S
C14 H18 0.950 . S
H15 C10 0.949 . S
C16 C11 1.399 . S
C16 C14 1.382 . S
C16 H17 0.952 . S
H17 C16 0.952 . S
H18 C14 0.950 . S
H19 C20 0.949 . S
C20 H19 0.949 . S
C20 C21 1.395 . S
C20 C22 1.391 . S
C21 C20 1.395 . S
C21 C24 1.390 . S
C22 C20 1.391 . S
C22 C26 1.387 . S
C22 C27 1.491 . S
H23 C24 0.950 . S
C24 C21 1.390 . S
C24 H23 0.950 . S
C24 C25 1.378 . S
C25 C24 1.378 . S
C25 C26 1.409 . S
C26 C22 1.387 . S
C26 C25 1.409 . S
C26 H28 0.951 . S
C27 C22 1.491 . S
C27 C29 1.382 . S
C27 C31 1.404 . S
H28 C26 0.951 . S
C29 C27 1.382 . S
C29 C30 1.390 . S
C29 H34 0.949 . S
C30 C29 1.390 . S
C30 C35 1.399 . S
C31 C27 1.404 . S
C31 H32 0.950 . S
C31 C33 1.375 . S
H32 C31 0.950 . S
C33 C31 1.375 . S
C33 C35 1.382 . S
C33 H37 0.950 . S
H34 C29 0.949 . S
C35 C30 1.399 . S
C35 C33 1.382 . S
C35 H36 0.952 . S
H36 C35 0.952 . S
H37 C33 0.950 . S
H38 C39 0.949 . S
C39 H38 0.949 . S
C39 C40 1.395 . S
C39 C41 1.391 . S
C40 C39 1.395 . S
C40 C43 1.390 . S
C41 C39 1.391 . S
C41 C45 1.387 . S
C41 C46 1.491 . S
H42 C43 0.950 . S
C43 C40 1.390 . S
C43 H42 0.950 . S
C43 C44 1.378 . S
C44 C43 1.378 . S
C44 C45 1.409 . S
C45 C41 1.387 . S
C45 C44 1.409 . S
C45 H47 0.951 . S
C46 C41 1.491 . S
C46 C48 1.382 . S
C46 C50 1.404 . S
H47 C45 0.951 . S
C48 C46 1.382 . S
C48 C49 1.390 . S
C48 H53 0.949 . S
C49 C48 1.390 . S
C49 C54 1.399 . S
C50 C46 1.404 . S
C50 H51 0.950 . S
C50 C52 1.375 . S
H51 C50 0.950 . S
C52 C50 1.375 . S
C52 C54 1.382 . S
C52 H56 0.950 . S
H53 C48 0.949 . S
C54 C49 1.399 . S
C54 C52 1.382 . S
C54 H55 0.952 . S
H55 C54 0.952 . S
H56 C52 0.950 . S
H57 C58 0.949 . S
C58 H57 0.949 . S
C58 C59 1.395 . S
C58 C60 1.391 . S
C59 C58 1.395 . S
C59 C62 1.390 . S
C60 C58 1.391 . S
C60 C64 1.387 . S
C60 C65 1.491 . S
H61 C62 0.950 . S
C62 C59 1.390 . S
C62 H61 0.950 . S
C62 C63 1.378 . S
C63 C62 1.378 . S
C63 C64 1.409 . S
C64 C60 1.387 . S
C64 C63 1.409 . S
C64 H66 0.951 . S
C65 C60 1.491 . S
C65 C67 1.382 . S
C65 C69 1.404 . S
H66 C64 0.951 . S
C67 C65 1.382 . S
C67 C68 1.390 . S
C67 H72 0.949 . S
C68 C67 1.390 . S
C68 C73 1.399 . S
C69 C65 1.404 . S
C69 H70 0.950 . S
C69 C71 1.375 . S
H70 C69 0.950 . S
C71 C69 1.375 . S
C71 C73 1.382 . S
C71 H75 0.950 . S
H72 C67 0.949 . S
C73 C68 1.399 . S
C73 C71 1.382 . S
C73 H74 0.952 . S
H74 C73 0.952 . S
H75 C71 0.950 . S
H76 C77 0.949 . S
C77 H76 0.949 . S
C77 C78 1.395 . S
C77 C79 1.391 . S
C78 C77 1.395 . S
C78 C81 1.390 . S
C79 C77 1.391 . S
C79 C83 1.387 . S
C79 C84 1.491 . S
H80 C81 0.950 . S
C81 C78 1.390 . S
C81 H80 0.950 . S
C81 C82 1.378 . S
C82 C81 1.378 . S
C82 C83 1.409 . S
C83 C79 1.387 . S
C83 C82 1.409 . S
C83 H85 0.951 . S
C84 C79 1.491 . S
C84 C86 1.382 . S
C84 C88 1.404 . S
H85 C83 0.951 . S
C86 C84 1.382 . S
C86 C87 1.390 . S
C86 H91 0.949 . S
C87 C86 1.390 . S
C87 C92 1.399 . S
C88 C84 1.404 . S
C88 H89 0.950 . S
C88 C90 1.375 . S
H89 C88 0.950 . S
C90 C88 1.375 . S
C90 C92 1.382 . S
C90 H94 0.950 . S
H91 C86 0.949 . S
C92 C87 1.399 . S
C92 C90 1.382 . S
C92 H93 0.952 . S
H93 C92 0.952 . S
H94 C90 0.950 . S
H95 C96 0.949 . S
C96 H95 0.949 . S
C96 C97 1.395 . S
C96 C98 1.391 . S
C97 C96 1.395 . S
C97 C100 1.390 . S
C98 C96 1.391 . S
C98 C102 1.387 . S
C98 C103 1.491 . S
H99 C100 0.950 . S
C100 C97 1.390 . S
C100 H99 0.950 . S
C100 C101 1.378 . S
C101 C100 1.378 . S
C101 C102 1.409 . S
C102 C98 1.387 . S
C102 C101 1.409 . S
C102 H104 0.951 . S
C103 C98 1.491 . S
C103 C105 1.382 . S
C103 C107 1.404 . S
H104 C102 0.951 . S
C105 C103 1.382 . S
C105 C106 1.390 . S
C105 H110 0.949 . S
C106 C105 1.390 . S
C106 C111 1.399 . S
C107 C103 1.404 . S
C107 H108 0.950 . S
C107 C109 1.375 . S
H108 C107 0.950 . S
C109 C107 1.375 . S
C109 C111 1.382 . S
C109 H113 0.950 . S
H110 C105 0.949 . S
C111 C106 1.399 . S
C111 C109 1.382 . S
C111 H112 0.952 . S
H112 C111 0.952 . S
H113 C109 0.950 . S
H114 C115 0.949 . S
C115 H114 0.949 . S
C115 C116 1.395 . S
C115 C117 1.391 . S
C116 C115 1.395 . S
C116 C119 1.390 . S
C117 C115 1.391 . S
C117 C121 1.387 . S
C117 C122 1.491 . S
H118 C119 0.950 . S
C119 C116 1.390 . S
C119 H118 0.950 . S
C119 C120 1.378 . S
C120 C119 1.378 . S
C120 C121 1.409 . S
C121 C117 1.387 . S
C121 C120 1.409 . S
C121 H123 0.951 . S
C122 C117 1.491 . S
C122 C124 1.382 . S
C122 C126 1.404 . S
H123 C121 0.951 . S
C124 C122 1.382 . S
C124 C125 1.390 . S
C124 H129 0.949 . S
C125 C124 1.390 . S
C125 C130 1.399 . S
C126 C122 1.404 . S
C126 H127 0.950 . S
C126 C128 1.375 . S
H127 C126 0.950 . S
C128 C126 1.375 . S
C128 C130 1.382 . S
C128 H132 0.950 . S
H129 C124 0.949 . S
C130 C125 1.399 . S
C130 C128 1.382 . S
C130 H131 0.952 . S
H131 C130 0.952 . S
H132 C128 0.950 . S
H133 C134 0.949 . S
C134 H133 0.949 . S
C134 C135 1.395 . S
C134 C136 1.391 . S
C135 C134 1.395 . S
C135 C138 1.390 . S
C136 C134 1.391 . S
C136 C140 1.387 . S
C136 C141 1.491 . S
H137 C138 0.950 . S
C138 C135 1.390 . S
C138 H137 0.950 . S
C138 C139 1.378 . S
C139 C138 1.378 . S
C139 C140 1.409 . S
C140 C136 1.387 . S
C140 C139 1.409 . S
C140 H142 0.951 . S
C141 C136 1.491 . S
C141 C143 1.382 . S
C141 C145 1.404 . S
H142 C140 0.951 . S
C143 C141 1.382 . S
C143 C144 1.390 . S
C143 H148 0.949 . S
C144 C143 1.390 . S
C144 C149 1.399 . S
C145 C141 1.404 . S
C145 H146 0.950 . S
C145 C147 1.375 . S
H146 C145 0.950 . S
C147 C145 1.375 . S
C147 C149 1.382 . S
C147 H151 0.950 . S
H148 C143 0.949 . S
C149 C144 1.399 . S
C149 C147 1.382 . S
C149 H150 0.952 . S
H150 C149 0.952 . S
H151 C147 0.950 . S
Zn152 O158 1.920 1_455 S
Zn152 O164 1.898 . S
Zn152 O167 1.905 . S
Zn153 O161 1.905 1_655 S
Zn153 O162 1.898 . S
Zn153 O170 1.920 . S
Zn154 O157 2.080 1_455 S
Zn154 O160 2.114 . S
Zn154 O163 2.120 1_455 S
Zn154 O165 2.120 . S
Zn154 O166 2.114 . S
Zn154 O169 2.080 1_455 S
C155 O160 1.166 . S
C155 O161 1.182 . S
C156 O162 1.167 . S
C156 O163 1.299 . S
O157 Zn154 2.080 1_655 S
O157 C171 1.305 . S
O158 Zn152 1.920 1_655 S
O158 C171 1.234 . S
C159 O164 1.167 . S
C159 O165 1.299 . S
O160 Zn154 2.114 . S
O160 C155 1.166 . S
O161 Zn153 1.905 1_455 S
O161 C155 1.182 . S
O162 Zn153 1.898 . S
O162 C156 1.167 . S
O163 Zn154 2.120 1_655 S
O163 C156 1.299 . S
O164 Zn152 1.898 . S
O164 C159 1.167 . S
O165 Zn154 2.120 . S
O165 C159 1.299 . S
O166 Zn154 2.114 . S
O166 C168 1.166 . S
O167 Zn152 1.905 . S
O167 C168 1.182 . S
C168 O166 1.166 . S
C168 O167 1.182 . S
O169 Zn154 2.080 1_655 S
O169 C172 1.305 . S
O170 Zn153 1.920 . S
O170 C172 1.234 . S
C171 O157 1.305 . S
C171 O158 1.234 . S
C172 O169 1.305 . S
C172 O170 1.234 . S
Zn173 O179 1.920 . S
Zn173 O185 1.898 . S
Zn173 O188 1.905 . S
Zn174 O182 1.905 . S
Zn174 O183 1.898 . S
Zn174 O191 1.920 . S
Zn175 O178 2.080 . S
Zn175 O181 2.114 . S
Zn175 O184 2.120 . S
Zn175 O186 2.120 . S
Zn175 O187 2.114 . S
Zn175 O190 2.080 . S
C176 O181 1.166 . S
C176 O182 1.182 . S
C177 O183 1.167 . S
C177 O184 1.299 . S
O178 Zn175 2.080 . S
O178 C192 1.305 . S
O179 Zn173 1.920 . S
O179 C192 1.234 . S
C180 O185 1.167 . S
C180 O186 1.299 . S
O181 Zn175 2.114 . S
O181 C176 1.166 . S
O182 Zn174 1.905 . S
O182 C176 1.182 . S
O183 Zn174 1.898 . S
O183 C177 1.167 . S
O184 Zn175 2.120 . S
O184 C177 1.299 . S
O185 Zn173 1.898 . S
O185 C180 1.167 . S
O186 Zn175 2.120 . S
O186 C180 1.299 . S
O187 Zn175 2.114 . S
O187 C189 1.166 . S
O188 Zn173 1.905 . S
O188 C189 1.182 . S
C189 O187 1.166 . S
C189 O188 1.182 . S
O190 Zn175 2.080 . S
O190 C193 1.305 . S
O191 Zn174 1.920 . S
O191 C193 1.234 . S
C192 O178 1.305 . S
C192 O179 1.234 . S
C193 O190 1.305 . S
C193 O191 1.234 . S
Zn194 O200 1.920 . S
Zn194 O206 1.898 . S
Zn194 O209 1.905 1_455 S
Zn195 O203 1.905 . S
Zn195 O204 1.898 . S
Zn195 O212 1.920 1_655 S
Zn196 O199 2.080 . S
Zn196 O202 2.114 1_455 S
Zn196 O205 2.120 1_455 S
Zn196 O207 2.120 . S
Zn196 O208 2.114 1_455 S
Zn196 O211 2.080 . S
C197 O202 1.166 . S
C197 O203 1.182 . S
C198 O204 1.167 . S
C198 O205 1.299 . S
O199 Zn196 2.080 . S
O199 C213 1.305 . S
O200 Zn194 1.920 . S
O200 C213 1.234 . S
C201 O206 1.167 . S
C201 O207 1.299 . S
O202 Zn196 2.114 1_655 S
O202 C197 1.166 . S
O203 Zn195 1.905 . S
O203 C197 1.182 . S
O204 Zn195 1.898 . S
O204 C198 1.167 . S
O205 Zn196 2.120 1_655 S
O205 C198 1.299 . S
O206 Zn194 1.898 . S
O206 C201 1.167 . S
O207 Zn196 2.120 . S
O207 C201 1.299 . S
O208 Zn196 2.114 1_655 S
O208 C210 1.166 . S
O209 Zn194 1.905 1_655 S
O209 C210 1.182 . S
C210 O208 1.166 . S
C210 O209 1.182 . S
O211 Zn196 2.080 . S
O211 C214 1.305 . S
O212 Zn195 1.920 1_455 S
O212 C214 1.234 . S
C213 O199 1.305 . S
C213 O200 1.234 . S
C214 O211 1.305 . S
C214 O212 1.234 . S
Zn215 O221 1.920 . S
Zn215 O227 1.898 . S
Zn215 O230 1.905 . S
Zn216 O224 1.905 . S
Zn216 O225 1.898 . S
Zn216 O233 1.920 . S
Zn217 O220 2.080 . S
Zn217 O223 2.114 . S
Zn217 O226 2.120 . S
Zn217 O228 2.120 . S
Zn217 O229 2.114 . S
Zn217 O232 2.080 . S
C218 O223 1.166 . S
C218 O224 1.182 . S
C219 O225 1.167 . S
C219 O226 1.299 . S
O220 Zn217 2.080 . S
O220 C234 1.305 . S
O221 Zn215 1.920 . S
O221 C234 1.234 . S
C222 O227 1.167 . S
C222 O228 1.299 . S
O223 Zn217 2.114 . S
O223 C218 1.166 . S
O224 Zn216 1.905 . S
O224 C218 1.182 . S
O225 Zn216 1.898 . S
O225 C219 1.167 . S
O226 Zn217 2.120 . S
O226 C219 1.299 . S
O227 Zn215 1.898 . S
O227 C222 1.167 . S
O228 Zn217 2.120 . S
O228 C222 1.299 . S
O229 Zn217 2.114 . S
O229 C231 1.166 . S
O230 Zn215 1.905 . S
O230 C231 1.182 . S
C231 O229 1.166 . S
C231 O230 1.182 . S
O232 Zn217 2.080 . S
O232 C235 1.305 . S
O233 Zn216 1.920 . S
O233 C235 1.234 . S
C234 O220 1.305 . S
C234 O221 1.234 . S
C235 O232 1.305 . S
C235 O233 1.234 . S
H236 C244 0.950 . S
H237 C249 0.950 . S
H238 C246 0.950 . S
H239 C248 0.950 . S
H240 C250 0.950 . S
H241 C252 0.950 . S
H242 C254 0.950 . S
H243 C255 0.951 . S
C244 H236 0.950 . S
C244 C245 1.386 . S
C244 C246 1.391 . S
C245 C244 1.386 . S
C245 C249 1.393 . S
C246 H238 0.950 . S
C246 C244 1.391 . S
C246 C247 1.400 . S
C247 C246 1.400 . S
C247 C248 1.398 . S
C247 C253 1.491 . S
C248 H239 0.950 . S
C248 C247 1.398 . S
C248 C249 1.391 . S
C249 H237 0.950 . S
C249 C245 1.393 . S
C249 C248 1.391 . S
C250 H240 0.950 . S
C250 C251 1.386 . S
C250 C252 1.391 1_545 S
C251 C250 1.386 . S
C251 C255 1.394 . S
C252 H241 0.950 . S
C252 C250 1.391 1_565 S
C252 C253 1.400 . S
C253 C247 1.491 . S
C253 C252 1.400 . S
C253 C254 1.398 . S
C254 H242 0.950 . S
C254 C253 1.398 . S
C254 C255 1.389 1_565 S
C255 H243 0.951 . S
C255 C251 1.394 . S
C255 C254 1.389 1_545 S
H256 C264 0.950 . S
H257 C269 0.950 . S
H258 C266 0.950 . S
H259 C268 0.950 . S
H260 C270 0.950 . S
H261 C272 0.950 . S
H262 C274 0.950 . S
H263 C275 0.950 . S
C264 H256 0.950 . S
C264 C265 1.386 . S
C264 C266 1.391 . S
C265 C264 1.386 . S
C265 C269 1.393 . S
C266 H258 0.950 . S
C266 C264 1.391 . S
C266 C267 1.400 . S
C267 C266 1.400 . S
C267 C268 1.398 . S
C267 C273 1.491 . S
C268 H259 0.950 . S
C268 C267 1.398 . S
C268 C269 1.391 . S
C269 H257 0.950 . S
C269 C265 1.393 . S
C269 C268 1.391 . S
C270 H260 0.950 . S
C270 C271 1.386 . S
C270 C272 1.391 . S
C271 C270 1.386 . S
C271 C275 1.393 . S
C272 H261 0.950 . S
C272 C270 1.391 . S
C272 C273 1.400 . S
C273 C267 1.491 . S
C273 C272 1.400 . S
C273 C274 1.398 . S
C274 H262 0.950 . S
C274 C273 1.398 . S
C274 C275 1.391 . S
C275 H263 0.950 . S
C275 C271 1.393 . S
C275 C274 1.391 . S
H276 C284 0.950 . S
H277 C289 0.950 . S
H278 C286 0.950 . S
H279 C288 0.950 . S
H280 C290 0.950 . S
H281 C292 0.950 . S
H282 C294 0.950 . S
H283 C295 0.950 . S
C284 H276 0.950 . S
C284 C285 1.386 . S
C284 C286 1.391 . S
C285 C284 1.386 . S
C285 C289 1.393 . S
C286 H278 0.950 . S
C286 C284 1.391 . S
C286 C287 1.400 . S
C287 C286 1.400 . S
C287 C288 1.398 . S
C287 C293 1.491 . S
C288 H279 0.950 . S
C288 C287 1.398 . S
C288 C289 1.391 . S
C289 H277 0.950 . S
C289 C285 1.393 . S
C289 C288 1.391 . S
C290 H280 0.950 . S
C290 C291 1.386 . S
C290 C292 1.391 . S
C291 C290 1.386 . S
C291 C295 1.393 . S
C292 H281 0.950 . S
C292 C290 1.391 . S
C292 C293 1.400 . S
C293 C287 1.491 . S
C293 C292 1.400 . S
C293 C294 1.398 . S
C294 H282 0.950 . S
C294 C293 1.398 . S
C294 C295 1.391 . S
C295 H283 0.950 . S
C295 C291 1.393 . S
C295 C294 1.391 . S
H296 C304 0.950 . S
H297 C309 0.950 . S
H298 C306 0.950 . S
H299 C308 0.950 . S
H300 C310 0.950 1_545 S
H301 C312 0.950 . S
H302 C314 0.950 . S
H303 C315 0.950 . S
C304 H296 0.950 . S
C304 C305 1.386 . S
C304 C306 1.391 . S
C305 C304 1.386 . S
C305 C309 1.393 . S
C306 H298 0.950 . S
C306 C304 1.391 . S
C306 C307 1.400 . S
C307 C306 1.400 . S
C307 C308 1.398 . S
C307 C313 1.491 . S
C308 H299 0.950 . S
C308 C307 1.398 . S
C308 C309 1.391 . S
C309 H297 0.950 . S
C309 C305 1.393 . S
C309 C308 1.391 . S
C310 H300 0.950 1_565 S
C310 C311 1.386 1_565 S
C310 C312 1.391 . S
C311 C310 1.386 1_545 S
C311 C315 1.393 . S
C312 H301 0.950 . S
C312 C310 1.391 . S
C312 C313 1.400 . S
C313 C307 1.491 . S
C313 C312 1.400 . S
C313 C314 1.398 . S
C314 H302 0.950 . S
C314 C313 1.398 . S
C314 C315 1.391 1_565 S
C315 H303 0.950 . S
C315 C311 1.393 . S
C315 C314 1.391 1_545 S
H316 C324 0.950 . S
H317 C329 0.950 . S
H318 C326 0.950 . S
H319 C328 0.950 . S
H320 C330 0.950 . S
H321 C332 0.950 . S
H322 C334 0.950 . S
H323 C335 0.950 . S
C324 H316 0.950 . S
C324 C325 1.386 . S
C324 C326 1.391 . S
C325 C324 1.386 . S
C325 C329 1.393 . S
C326 H318 0.950 . S
C326 C324 1.391 . S
C326 C327 1.400 . S
C327 C326 1.400 . S
C327 C328 1.398 . S
C327 C333 1.491 . S
C328 H319 0.950 . S
C328 C327 1.398 . S
C328 C329 1.391 . S
C329 H317 0.950 . S
C329 C325 1.393 . S
C329 C328 1.391 . S
C330 H320 0.950 . S
C330 C331 1.386 1_545 S
C330 C332 1.391 . S
C331 C330 1.386 1_565 S
C331 C335 1.393 . S
C332 H321 0.950 . S
C332 C330 1.391 . S
C332 C333 1.400 . S
C333 C327 1.491 . S
C333 C332 1.400 . S
C333 C334 1.398 . S
C334 H322 0.950 . S
C334 C333 1.398 . S
C334 C335 1.391 1_545 S
C335 H323 0.950 . S
C335 C331 1.393 . S
C335 C334 1.391 1_565 S
H336 C344 0.950 . S
H337 C349 0.950 . S
H338 C346 0.950 . S
H339 C348 0.950 . S
H340 C350 0.950 . S
H341 C352 0.950 . S
H342 C354 0.950 . S
H343 C355 0.950 . S
C344 H336 0.950 . S
C344 C345 1.386 . S
C344 C346 1.391 . S
C345 C344 1.386 . S
C345 C349 1.393 . S
C346 H338 0.950 . S
C346 C344 1.391 . S
C346 C347 1.400 . S
C347 C346 1.400 . S
C347 C348 1.398 . S
C347 C353 1.491 . S
C348 H339 0.950 . S
C348 C347 1.398 . S
C348 C349 1.391 . S
C349 H337 0.950 . S
C349 C345 1.393 . S
C349 C348 1.391 . S
C350 H340 0.950 . S
C350 C351 1.386 . S
C350 C352 1.391 . S
C351 C350 1.386 . S
C351 C355 1.393 . S
C352 H341 0.950 . S
C352 C350 1.391 . S
C352 C353 1.400 . S
C353 C347 1.491 . S
C353 C352 1.400 . S
C353 C354 1.398 . S
C354 H342 0.950 . S
C354 C353 1.398 . S
C354 C355 1.391 . S
C355 H343 0.950 . S
C355 C351 1.393 . S
C355 C354 1.391 . S
H356 C364 0.950 . S
H357 C369 0.950 . S
H358 C366 0.950 . S
H359 C368 0.950 . S
H360 C370 0.950 . S
H361 C372 0.950 . S
H362 C374 0.950 . S
H363 C375 0.950 . S
C364 H356 0.950 . S
C364 C365 1.386 . S
C364 C366 1.391 . S
C365 C364 1.386 . S
C365 C369 1.393 . S
C366 H358 0.950 . S
C366 C364 1.391 . S
C366 C367 1.400 . S
C367 C366 1.400 . S
C367 C368 1.398 . S
C367 C373 1.491 . S
C368 H359 0.950 . S
C368 C367 1.398 . S
C368 C369 1.391 . S
C369 H357 0.950 . S
C369 C365 1.393 . S
C369 C368 1.391 . S
C370 H360 0.950 . S
C370 C371 1.386 . S
C370 C372 1.391 . S
C371 C370 1.386 . S
C371 C375 1.393 . S
C372 H361 0.950 . S
C372 C370 1.391 . S
C372 C373 1.400 . S
C373 C367 1.491 . S
C373 C372 1.400 . S
C373 C374 1.398 . S
C374 H362 0.950 . S
C374 C373 1.398 . S
C374 C375 1.391 . S
C375 H363 0.950 . S
C375 C371 1.393 . S
C375 C374 1.391 . S
H376 C384 0.950 . S
H377 C389 0.950 . S
H378 C386 0.950 . S
H379 C388 0.950 . S
H380 C390 0.950 . S
H381 C392 0.950 . S
H382 C394 0.950 . S
H383 C395 0.950 . S
C384 H376 0.950 . S
C384 C385 1.386 . S
C384 C386 1.391 . S
C385 C384 1.386 . S
C385 C389 1.393 . S
C386 H378 0.950 . S
C386 C384 1.391 . S
C386 C387 1.400 . S
C387 C386 1.400 . S
C387 C388 1.398 . S
C387 C393 1.491 . S
C388 H379 0.950 . S
C388 C387 1.398 . S
C388 C389 1.391 . S
C389 H377 0.950 . S
C389 C385 1.393 . S
C389 C388 1.391 . S
C390 H380 0.950 . S
C390 C391 1.386 1_545 S
C390 C392 1.391 . S
C391 C390 1.386 1_565 S
C391 C395 1.393 . S
C392 H381 0.950 . S
C392 C390 1.391 . S
C392 C393 1.400 . S
C393 C387 1.491 . S
C393 C392 1.400 . S
C393 C394 1.398 . S
C394 H382 0.950 . S
C394 C393 1.398 . S
C394 C395 1.391 1_545 S
C395 H383 0.950 . S
C395 C391 1.393 . S
C395 C394 1.391 1_565 S
H396 C404 0.950 . S
H397 C409 0.954 . S
H398 C406 0.950 . S
H399 C408 0.950 . S
H400 C410 0.950 . S
H401 C412 0.950 . S
H402 C414 0.950 . S
H403 C415 0.950 . S
C404 H396 0.950 . S
C404 C405 1.386 . S
C404 C406 1.391 1_556 S
C405 C404 1.386 . S
C405 C409 1.400 . S
C406 H398 0.950 . S
C406 C404 1.391 1_554 S
C406 C407 1.400 . S
C407 C406 1.400 . S
C407 C408 1.398 . S
C407 C413 1.491 . S
C408 H399 0.950 . S
C408 C407 1.398 . S
C408 C409 1.380 1_554 S
C409 H397 0.954 . S
C409 C405 1.400 . S
C409 C408 1.380 1_556 S
C410 H400 0.950 . S
C410 C411 1.386 . S
C410 C412 1.391 . S
C411 C410 1.386 . S
C411 C415 1.393 . S
C412 H401 0.950 . S
C412 C410 1.391 . S
C412 C413 1.400 . S
C413 C407 1.491 . S
C413 C412 1.400 . S
C413 C414 1.398 . S
C414 H402 0.950 . S
C414 C413 1.398 . S
C414 C415 1.391 . S
C415 H403 0.950 . S
C415 C411 1.393 . S
C415 C414 1.391 . S
H416 C424 0.950 . S
H417 C429 0.950 . S
H418 C426 0.950 . S
H419 C428 0.950 . S
H420 C430 0.950 . S
H421 C432 0.950 . S
H422 C434 0.950 . S
H423 C435 0.950 . S
C424 H416 0.950 . S
C424 C425 1.386 . S
C424 C426 1.391 . S
C425 C424 1.386 . S
C425 C429 1.393 . S
C426 H418 0.950 . S
C426 C424 1.391 . S
C426 C427 1.400 . S
C427 C426 1.400 . S
C427 C428 1.398 . S
C427 C433 1.491 . S
C428 H419 0.950 . S
C428 C427 1.398 . S
C428 C429 1.391 . S
C429 H417 0.950 . S
C429 C425 1.393 . S
C429 C428 1.391 . S
C430 H420 0.950 . S
C430 C431 1.386 . S
C430 C432 1.391 . S
C431 C430 1.386 . S
C431 C435 1.393 . S
C432 H421 0.950 . S
C432 C430 1.391 . S
C432 C433 1.400 . S
C433 C427 1.491 . S
C433 C432 1.400 . S
C433 C434 1.398 . S
C434 H422 0.950 . S
C434 C433 1.398 . S
C434 C435 1.391 . S
C435 H423 0.950 . S
C435 C431 1.393 . S
C435 C434 1.391 . S
H436 C444 0.950 . S
H437 C449 0.945 1_554 S
H438 C446 0.950 . S
H439 C448 0.950 . S
H440 C450 0.950 . S
H441 C452 0.950 . S
H442 C454 0.950 . S
H443 C455 0.950 . S
C444 H436 0.950 . S
C444 C445 1.386 . S
C444 C446 1.391 1_554 S
C445 C444 1.386 . S
C445 C449 1.375 1_554 S
C446 H438 0.950 . S
C446 C444 1.391 1_556 S
C446 C447 1.400 . S
C447 C446 1.400 . S
C447 C448 1.398 . S
C447 C453 1.491 . S
C448 H439 0.950 . S
C448 C447 1.398 . S
C448 C449 1.413 . S
C449 H437 0.945 1_556 S
C449 C445 1.375 1_556 S
C449 C448 1.413 . S
C450 H440 0.950 . S
C450 C451 1.386 . S
C450 C452 1.391 . S
C451 C450 1.386 . S
C451 C455 1.393 . S
C452 H441 0.950 . S
C452 C450 1.391 . S
C452 C453 1.400 . S
C453 C447 1.491 . S
C453 C452 1.400 . S
C453 C454 1.398 . S
C454 H442 0.950 . S
C454 C453 1.398 . S
C454 C455 1.391 . S
C455 H443 0.950 . S
C455 C451 1.393 . S
C455 C454 1.391 . S
H456 C464 0.950 . S
H457 C469 0.950 . S
H458 C466 0.950 . S
H459 C468 0.950 . S
H460 C470 0.950 . S
H461 C472 0.950 . S
H462 C474 0.950 . S
H463 C475 0.950 . S
C464 H456 0.950 . S
C464 C465 1.386 . S
C464 C466 1.391 . S
C465 C464 1.386 . S
C465 C469 1.393 . S
C466 H458 0.950 . S
C466 C464 1.391 . S
C466 C467 1.400 . S
C467 C466 1.400 . S
C467 C468 1.398 . S
C467 C473 1.491 . S
C468 H459 0.950 . S
C468 C467 1.398 . S
C468 C469 1.391 . S
C469 H457 0.950 . S
C469 C465 1.393 . S
C469 C468 1.391 . S
C470 H460 0.950 . S
C470 C471 1.386 . S
C470 C472 1.391 . S
C471 C470 1.386 . S
C471 C475 1.393 . S
C472 H461 0.950 . S
C472 C470 1.391 . S
C472 C473 1.400 . S
C473 C467 1.491 . S
C473 C472 1.400 . S
C473 C474 1.398 . S
C474 H462 0.950 . S
C474 C473 1.398 . S
C474 C475 1.391 . S
C475 H463 0.950 . S
C475 C471 1.393 . S
C475 C474 1.391 . S
H476 C484 0.950 . S
H477 C489 0.950 . S
H478 C486 0.950 . S
H479 C488 0.950 . S
H480 C490 0.950 . S
H481 C492 0.950 . S
H482 C494 0.950 . S
H483 C495 0.950 . S
C484 H476 0.950 . S
C484 C485 1.386 1_556 S
C484 C486 1.391 . S
C485 C484 1.386 1_554 S
C485 C489 1.393 . S
C486 H478 0.950 . S
C486 C484 1.391 . S
C486 C487 1.400 . S
C487 C486 1.400 . S
C487 C488 1.398 . S
C487 C493 1.491 . S
C488 H479 0.950 . S
C488 C487 1.398 . S
C488 C489 1.391 1_556 S
C489 H477 0.950 . S
C489 C485 1.393 . S
C489 C488 1.391 1_554 S
C490 H480 0.950 . S
C490 C491 1.386 . S
C490 C492 1.391 . S
C491 C490 1.386 . S
C491 C495 1.393 . S
C492 H481 0.950 . S
C492 C490 1.391 . S
C492 C493 1.400 . S
C493 C487 1.491 . S
C493 C492 1.400 . S
C493 C494 1.398 . S
C494 H482 0.950 . S
C494 C493 1.398 . S
C494 C495 1.391 . S
C495 H483 0.950 . S
C495 C491 1.393 . S
C495 C494 1.391 . S
H496 C504 0.950 . S
H497 C509 0.950 . S
H498 C506 0.950 . S
H499 C508 0.950 . S
H500 C510 0.950 . S
H501 C512 0.950 . S
H502 C514 0.950 . S
H503 C515 0.950 . S
C504 H496 0.950 . S
C504 C505 1.386 . S
C504 C506 1.391 . S
C505 C504 1.386 . S
C505 C509 1.393 . S
C506 H498 0.950 . S
C506 C504 1.391 . S
C506 C507 1.400 . S
C507 C506 1.400 . S
C507 C508 1.398 . S
C507 C513 1.491 . S
C508 H499 0.950 . S
C508 C507 1.398 . S
C508 C509 1.391 . S
C509 H497 0.950 . S
C509 C505 1.393 . S
C509 C508 1.391 . S
C510 H500 0.950 . S
C510 C511 1.386 . S
C510 C512 1.391 . S
C511 C510 1.386 . S
C511 C515 1.393 . S
C512 H501 0.950 . S
C512 C510 1.391 . S
C512 C513 1.400 . S
C513 C507 1.491 . S
C513 C512 1.400 . S
C513 C514 1.398 . S
C514 H502 0.950 . S
C514 C513 1.398 . S
C514 C515 1.391 . S
C515 H503 0.950 . S
C515 C511 1.393 . S
C515 C514 1.391 . S
H516 C524 0.950 . S
H517 C529 0.950 1_556 S
H518 C526 0.950 . S
H519 C528 0.950 . S
H520 C530 0.950 . S
H521 C532 0.950 . S
H522 C534 0.950 . S
H523 C535 0.950 . S
C524 H516 0.950 . S
C524 C525 1.386 . S
C524 C526 1.391 1_556 S
C525 C524 1.386 . S
C525 C529 1.393 1_556 S
C526 H518 0.950 . S
C526 C524 1.391 1_554 S
C526 C527 1.400 . S
C527 C526 1.400 . S
C527 C528 1.398 . S
C527 C533 1.491 . S
C528 H519 0.950 . S
C528 C527 1.398 . S
C528 C529 1.391 . S
C529 H517 0.950 1_554 S
C529 C525 1.393 1_554 S
C529 C528 1.391 . S
C530 H520 0.950 . S
C530 C531 1.386 . S
C530 C532 1.391 . S
C531 C530 1.386 . S
C531 C535 1.393 . S
C532 H521 0.950 . S
C532 C530 1.391 . S
C532 C533 1.400 . S
C533 C527 1.491 . S
C533 C532 1.400 . S
C533 C534 1.398 . S
C534 H522 0.950 . S
C534 C533 1.398 . S
C534 C535 1.391 . S
C535 H523 0.950 . S
C535 C531 1.393 . S
C535 C534 1.391 . S
H536 C544 0.950 . S
H537 C549 0.950 . S
H538 C546 0.950 . S
H539 C548 0.950 . S
H540 C550 0.950 . S
H541 C552 0.950 . S
H542 C554 0.950 . S
H543 C555 0.950 . S
C544 H536 0.950 . S
C544 C545 1.386 . S
C544 C546 1.391 . S
C545 C544 1.386 . S
C545 C549 1.393 . S
C546 H538 0.950 . S
C546 C544 1.391 . S
C546 C547 1.400 . S
C547 C546 1.400 . S
C547 C548 1.398 . S
C547 C553 1.491 . S
C548 H539 0.950 . S
C548 C547 1.398 . S
C548 C549 1.391 . S
C549 H537 0.950 . S
C549 C545 1.393 . S
C549 C548 1.391 . S
C550 H540 0.950 . S
C550 C551 1.386 . S
C550 C552 1.391 . S
C551 C550 1.386 . S
C551 C555 1.393 . S
C552 H541 0.950 . S
C552 C550 1.391 . S
C552 C553 1.400 . S
C553 C547 1.491 . S
C553 C552 1.400 . S
C553 C554 1.398 . S
C554 H542 0.950 . S
C554 C553 1.398 . S
C554 C555 1.391 . S
C555 H543 0.950 . S
C555 C551 1.393 . S
C555 C554 1.391 . S
H556 C564 0.950 . S
H557 C569 0.950 . S
H558 C566 0.950 . S
H559 C568 0.950 . S
H560 C570 0.950 . S
H561 C572 0.950 . S
H562 C574 0.950 . S
H563 C575 0.950 . S
C564 H556 0.950 . S
C564 C565 1.386 . S
C564 C566 1.391 . S
C565 C564 1.386 . S
C565 C569 1.393 . S
C566 H558 0.950 . S
C566 C564 1.391 . S
C566 C567 1.400 . S
C567 C566 1.400 . S
C567 C568 1.398 . S
C567 C573 1.491 . S
C568 H559 0.950 . S
C568 C567 1.398 . S
C568 C569 1.391 . S
C569 H557 0.950 . S
C569 C565 1.393 . S
C569 C568 1.391 . S
C570 H560 0.950 . S
C570 C571 1.386 . S
C570 C572 1.391 . S
C571 C570 1.386 . S
C571 C575 1.393 . S
C572 H561 0.950 . S
C572 C570 1.391 . S
C572 C573 1.400 . S
C573 C567 1.491 . S
C573 C572 1.400 . S
C573 C574 1.398 . S
C574 H562 0.950 . S
C574 C573 1.398 . S
C574 C575 1.391 . S
C575 H563 0.950 . S
C575 C571 1.393 . S
C575 C574 1.391 . S
H576 C584 0.950 . S
H577 C589 0.950 . S
H578 C586 0.950 . S
H579 C588 0.950 . S
H580 C590 0.950 . S
H581 C592 0.950 . S
H582 C594 0.950 . S
H583 C595 0.950 . S
C584 H576 0.950 . S
C584 C585 1.386 . S
C584 C586 1.391 . S
C585 C584 1.386 . S
C585 C589 1.393 . S
C586 H578 0.950 . S
C586 C584 1.391 . S
C586 C587 1.400 . S
C587 C586 1.400 . S
C587 C588 1.398 . S
C587 C593 1.491 . S
C588 H579 0.950 . S
C588 C587 1.398 . S
C588 C589 1.391 . S
C589 H577 0.950 . S
C589 C585 1.393 . S
C589 C588 1.391 . S
C590 H580 0.950 . S
C590 C591 1.386 . S
C590 C592 1.391 . S
C591 C590 1.386 . S
C591 C595 1.393 . S
C592 H581 0.950 . S
C592 C590 1.391 . S
C592 C593 1.400 . S
C593 C587 1.491 . S
C593 C592 1.400 . S
C593 C594 1.398 . S
C594 H582 0.950 . S
C594 C593 1.398 . S
C594 C595 1.391 . S
C595 H583 0.950 . S
C595 C591 1.393 . S
C595 C594 1.391 . S
H596 C604 0.950 . S
H597 C609 0.950 . S
H598 C606 0.950 . S
H599 C608 0.950 . S
H600 C610 0.950 . S
H601 C612 0.950 . S
H602 C614 0.950 . S
H603 C615 0.950 . S
C604 H596 0.950 . S
C604 C605 1.386 . S
C604 C606 1.391 . S
C605 C604 1.386 . S
C605 C609 1.393 . S
C606 H598 0.950 . S
C606 C604 1.391 . S
C606 C607 1.400 . S
C607 C606 1.400 . S
C607 C608 1.398 . S
C607 C613 1.491 . S
C608 H599 0.950 . S
C608 C607 1.398 . S
C608 C609 1.391 . S
C609 H597 0.950 . S
C609 C605 1.393 . S
C609 C608 1.391 . S
C610 H600 0.950 . S
C610 C611 1.386 . S
C610 C612 1.391 . S
C611 C610 1.386 . S
C611 C615 1.393 . S
C612 H601 0.950 . S
C612 C610 1.391 . S
C612 C613 1.400 . S
C613 C607 1.491 . S
C613 C612 1.400 . S
C613 C614 1.398 . S
C614 H602 0.950 . S
C614 C613 1.398 . S
C614 C615 1.391 . S
C615 H603 0.950 . S
C615 C611 1.393 . S
C615 C614 1.391 . S
H616 C624 0.950 . S
H617 C629 0.950 . S
H618 C626 0.950 . S
H619 C628 0.950 . S
H620 C630 0.950 . S
H621 C632 0.950 . S
H622 C634 0.950 . S
H623 C635 0.950 . S
C624 H616 0.950 . S
C624 C625 1.386 . S
C624 C626 1.391 . S
C625 C624 1.386 . S
C625 C629 1.393 . S
C626 H618 0.950 . S
C626 C624 1.391 . S
C626 C627 1.400 . S
C627 C626 1.400 . S
C627 C628 1.398 . S
C627 C633 1.491 . S
C628 H619 0.950 . S
C628 C627 1.398 . S
C628 C629 1.391 . S
C629 H617 0.950 . S
C629 C625 1.393 . S
C629 C628 1.391 . S
C630 H620 0.950 . S
C630 C631 1.386 . S
C630 C632 1.391 . S
C631 C630 1.386 . S
C631 C635 1.393 . S
C632 H621 0.950 . S
C632 C630 1.391 . S
C632 C633 1.400 . S
C633 C627 1.491 . S
C633 C632 1.400 . S
C633 C634 1.398 . S
C634 H622 0.950 . S
C634 C633 1.398 . S
C634 C635 1.391 . S
C635 H623 0.950 . S
C635 C631 1.393 . S
C635 C634 1.391 . S
H636 C644 0.950 . S
H637 C649 0.950 . S
H638 C646 0.950 . S
H639 C648 0.950 . S
H640 C650 0.950 . S
H641 C652 0.950 . S
H642 C654 0.950 . S
H643 C655 0.950 . S
C644 H636 0.950 . S
C644 C645 1.386 . S
C644 C646 1.391 . S
C645 C644 1.386 . S
C645 C649 1.393 . S
C646 H638 0.950 . S
C646 C644 1.391 . S
C646 C647 1.400 . S
C647 C646 1.400 . S
C647 C648 1.398 . S
C647 C653 1.491 . S
C648 H639 0.950 . S
C648 C647 1.398 . S
C648 C649 1.391 . S
C649 H637 0.950 . S
C649 C645 1.393 . S
C649 C648 1.391 . S
C650 H640 0.950 . S
C650 C651 1.386 . S
C650 C652 1.391 . S
C651 C650 1.386 . S
C651 C655 1.393 . S
C652 H641 0.950 . S
C652 C650 1.391 . S
C652 C653 1.400 . S
C653 C647 1.491 . S
C653 C652 1.400 . S
C653 C654 1.398 . S
C654 H642 0.950 . S
C654 C653 1.398 . S
C654 C655 1.391 . S
C655 H643 0.950 . S
C655 C651 1.393 . S
C655 C654 1.391 . S
H656 C664 0.950 . S
H657 C669 0.950 . S
H658 C666 0.950 . S
H659 C668 0.950 . S
H660 C670 0.950 . S
H661 C672 0.950 . S
H662 C674 0.950 . S
H663 C675 0.950 . S
C664 H656 0.950 . S
C664 C665 1.386 . S
C664 C666 1.391 . S
C665 C664 1.386 . S
C665 C669 1.393 . S
C666 H658 0.950 . S
C666 C664 1.391 . S
C666 C667 1.400 . S
C667 C666 1.400 . S
C667 C668 1.398 . S
C667 C673 1.491 . S
C668 H659 0.950 . S
C668 C667 1.398 . S
C668 C669 1.391 . S
C669 H657 0.950 . S
C669 C665 1.393 . S
C669 C668 1.391 . S
C670 H660 0.950 . S
C670 C671 1.386 . S
C670 C672 1.391 . S
C671 C670 1.386 . S
C671 C675 1.393 . S
C672 H661 0.950 . S
C672 C670 1.391 . S
C672 C673 1.400 . S
C673 C667 1.491 . S
C673 C672 1.400 . S
C673 C674 1.398 . S
C674 H662 0.950 . S
C674 C673 1.398 . S
C674 C675 1.391 . S
C675 H663 0.950 . S
C675 C671 1.393 . S
C675 C674 1.391 . S
H676 C684 0.950 . S
H677 C689 0.950 . S
H678 C686 0.950 . S
H679 C688 0.950 . S
H680 C690 0.950 . S
H681 C692 0.950 . S
H682 C694 0.950 . S
H683 C695 0.950 . S
C684 H676 0.950 . S
C684 C685 1.386 . S
C684 C686 1.391 . S
C685 C684 1.386 . S
C685 C689 1.393 . S
C686 H678 0.950 . S
C686 C684 1.391 . S
C686 C687 1.400 . S
C687 C686 1.400 . S
C687 C688 1.398 . S
C687 C693 1.491 . S
C688 H679 0.950 . S
C688 C687 1.398 . S
C688 C689 1.391 . S
C689 H677 0.950 . S
C689 C685 1.393 . S
C689 C688 1.391 . S
C690 H680 0.950 . S
C690 C691 1.386 . S
C690 C692 1.391 . S
C691 C690 1.386 . S
C691 C695 1.393 . S
C692 H681 0.950 . S
C692 C690 1.391 . S
C692 C693 1.400 . S
C693 C687 1.491 . S
C693 C692 1.400 . S
C693 C694 1.398 . S
C694 H682 0.950 . S
C694 C693 1.398 . S
C694 C695 1.391 . S
C695 H683 0.950 . S
C695 C691 1.393 . S
C695 C694 1.391 . S
H696 C704 0.950 . S
H697 C709 0.950 . S
H698 C706 0.950 . S
H699 C708 0.950 . S
H700 C710 0.950 . S
H701 C712 0.950 . S
H702 C714 0.950 . S
H703 C715 0.950 . S
C704 H696 0.950 . S
C704 C705 1.386 . S
C704 C706 1.391 . S
C705 C704 1.386 . S
C705 C709 1.393 . S
C706 H698 0.950 . S
C706 C704 1.391 . S
C706 C707 1.400 . S
C707 C706 1.400 . S
C707 C708 1.398 . S
C707 C713 1.491 . S
C708 H699 0.950 . S
C708 C707 1.398 . S
C708 C709 1.391 . S
C709 H697 0.950 . S
C709 C705 1.393 . S
C709 C708 1.391 . S
C710 H700 0.950 . S
C710 C711 1.386 . S
C710 C712 1.391 . S
C711 C710 1.386 . S
C711 C715 1.393 . S
C712 H701 0.950 . S
C712 C710 1.391 . S
C712 C713 1.400 . S
C713 C707 1.491 . S
C713 C712 1.400 . S
C713 C714 1.398 . S
C714 H702 0.950 . S
C714 C713 1.398 . S
C714 C715 1.391 . S
C715 H703 0.950 . S
C715 C711 1.393 . S
C715 C714 1.391 . S
C245 C116 1.439 . S
C251 C168 1.403 . S
C271 C176 1.403 . S
C265 C135 1.439 . S
C291 C180 1.368 . S
C285 C78 1.454 . S
C305 C97 1.447 . S
C311 C156 1.360 . S
C331 C197 1.389 . S
C325 C40 1.429 . S
C351 C231 1.376 . S
C345 C59 1.453 . S
C365 C2 1.443 . S
C371 C219 1.389 . S
C385 C21 1.428 . S
C391 C201 1.390 . S
C411 C155 1.394 . S
C405 C25 1.545 . S
C431 C189 1.395 . S
C425 C6 1.546 . S
C451 C193 1.388 . S
C445 C63 1.542 . S
C471 C171 1.408 . S
C465 C44 1.537 . S
C491 C210 1.416 . S
C485 C101 1.542 . S
C505 C82 1.542 . S
C511 C218 1.417 . S
C531 C234 1.394 . S
C525 C139 1.547 . S
C545 C120 1.540 . S
C551 C214 1.421 . S
C571 C159 1.403 . S
C565 C11 1.376 . S
C591 C177 1.380 . S
C585 C30 1.382 . S
C605 C49 1.408 . S
C611 C192 1.367 . S
C631 C172 1.375 . S
C625 C68 1.408 . S
C651 C198 1.394 . S
C645 C87 1.413 . S
C665 C106 1.417 . S
C671 C222 1.403 . S
C685 C125 1.422 . S
C691 C235 1.396 . S
C705 C144 1.433 . S
C711 C213 1.365 . S
