# Generated by pormake.
# Topology tbo, (3,4)-cn, num edge types: 1
# Building blocks:
#     Node 0, Type 0, BuildingBlock: WUSLED_clean_sbu_0, # of connection points: 3
#     Node 1, Type 0, BuildingBlock: WUSLED_clean_sbu_0, # of connection points: 3
#     Node 2, Type 0, BuildingBlock: WUSLED_clean_sbu_0, # of connection points: 3
#     Node 3, Type 0, BuildingBlock: WUSLED_clean_sbu_0, # of connection points: 3
#     Node 4, Type 0, BuildingBlock: WUSLED_clean_sbu_0, # of connection points: 3
#     Node 5, Type 0, BuildingBlock: WUSLED_clean_sbu_0, # of connection points: 3
#     Node 6, Type 0, BuildingBlock: WUSLED_clean_sbu_0, # of connection points: 3
#     Node 7, Type 0, BuildingBlock: WUSLED_clean_sbu_0, # of connection points: 3
#     Node 8, Type 0, BuildingBlock: WUSLED_clean_sbu_0, # of connection points: 3
#     Node 9, Type 0, BuildingBlock: WUSLED_clean_sbu_0, # of connection points: 3
#     Node 10, Type 0, BuildingBlock: WUSLED_clean_sbu_0, # of connection points: 3
#     Node 11, Type 0, BuildingBlock: WUSLED_clean_sbu_0, # of connection points: 3
#     Node 12, Type 0, BuildingBlock: WUSLED_clean_sbu_0, # of connection points: 3
#     Node 13, Type 0, BuildingBlock: WUSLED_clean_sbu_0, # of connection points: 3
#     Node 14, Type 0, BuildingBlock: WUSLED_clean_sbu_0, # of connection points: 3
#     Node 15, Type 0, BuildingBlock: WUSLED_clean_sbu_0, # of connection points: 3
#     Node 16, Type 0, BuildingBlock: WUSLED_clean_sbu_0, # of connection points: 3
#     Node 17, Type 0, BuildingBlock: WUSLED_clean_sbu_0, # of connection points: 3
#     Node 18, Type 0, BuildingBlock: WUSLED_clean_sbu_0, # of connection points: 3
#     Node 19, Type 0, BuildingBlock: WUSLED_clean_sbu_0, # of connection points: 3
#     Node 20, Type 0, BuildingBlock: WUSLED_clean_sbu_0, # of connection points: 3
#     Node 21, Type 0, BuildingBlock: WUSLED_clean_sbu_0, # of connection points: 3
#     Node 22, Type 0, BuildingBlock: WUSLED_clean_sbu_0, # of connection points: 3
#     Node 23, Type 0, BuildingBlock: WUSLED_clean_sbu_0, # of connection points: 3
#     Node 24, Type 0, BuildingBlock: WUSLED_clean_sbu_0, # of connection points: 3
#     Node 25, Type 0, BuildingBlock: WUSLED_clean_sbu_0, # of connection points: 3
#     Node 26, Type 0, BuildingBlock: WUSLED_clean_sbu_0, # of connection points: 3
#     Node 27, Type 0, BuildingBlock: WUSLED_clean_sbu_0, # of connection points: 3
#     Node 28, Type 0, BuildingBlock: WUSLED_clean_sbu_0, # of connection points: 3
#     Node 29, Type 0, BuildingBlock: WUSLED_clean_sbu_0, # of connection points: 3
#     Node 30, Type 0, BuildingBlock: WUSLED_clean_sbu_0, # of connection points: 3
#     Node 31, Type 0, BuildingBlock: WUSLED_clean_sbu_0, # of connection points: 3
#     Node 32, Type 1, BuildingBlock: MIFKUJ_clean_linker_1, # of connection points: 4
#     Node 33, Type 1, BuildingBlock: MIFKUJ_clean_linker_1, # of connection points: 4
#     Node 34, Type 1, BuildingBlock: MIFKUJ_clean_linker_1, # of connection points: 4
#     Node 35, Type 1, BuildingBlock: MIFKUJ_clean_linker_1, # of connection points: 4
#     Node 36, Type 1, BuildingBlock: MIFKUJ_clean_linker_1, # of connection points: 4
#     Node 37, Type 1, BuildingBlock: MIFKUJ_clean_linker_1, # of connection points: 4
#     Node 38, Type 1, BuildingBlock: MIFKUJ_clean_linker_1, # of connection points: 4
#     Node 39, Type 1, BuildingBlock: MIFKUJ_clean_linker_1, # of connection points: 4
#     Node 40, Type 1, BuildingBlock: MIFKUJ_clean_linker_1, # of connection points: 4
#     Node 41, Type 1, BuildingBlock: MIFKUJ_clean_linker_1, # of connection points: 4
#     Node 42, Type 1, BuildingBlock: MIFKUJ_clean_linker_1, # of connection points: 4
#     Node 43, Type 1, BuildingBlock: MIFKUJ_clean_linker_1, # of connection points: 4
#     Node 44, Type 1, BuildingBlock: MIFKUJ_clean_linker_1, # of connection points: 4
#     Node 45, Type 1, BuildingBlock: MIFKUJ_clean_linker_1, # of connection points: 4
#     Node 46, Type 1, BuildingBlock: MIFKUJ_clean_linker_1, # of connection points: 4
#     Node 47, Type 1, BuildingBlock: MIFKUJ_clean_linker_1, # of connection points: 4
#     Node 48, Type 1, BuildingBlock: MIFKUJ_clean_linker_1, # of connection points: 4
#     Node 49, Type 1, BuildingBlock: MIFKUJ_clean_linker_1, # of connection points: 4
#     Node 50, Type 1, BuildingBlock: MIFKUJ_clean_linker_1, # of connection points: 4
#     Node 51, Type 1, BuildingBlock: MIFKUJ_clean_linker_1, # of connection points: 4
#     Node 52, Type 1, BuildingBlock: MIFKUJ_clean_linker_1, # of connection points: 4
#     Node 53, Type 1, BuildingBlock: MIFKUJ_clean_linker_1, # of connection points: 4
#     Node 54, Type 1, BuildingBlock: MIFKUJ_clean_linker_1, # of connection points: 4
#     Node 55, Type 1, BuildingBlock: MIFKUJ_clean_linker_1, # of connection points: 4
#     Edge 56, Type (0, 1), BuildingBlock: TEMPAE_clean_linker_10, # of connection points: 2
#     Edge 57, Type (0, 1), BuildingBlock: TEMPAE_clean_linker_10, # of connection points: 2
#     Edge 58, Type (0, 1), BuildingBlock: TEMPAE_clean_linker_10, # of connection points: 2
#     Edge 59, Type (0, 1), BuildingBlock: TEMPAE_clean_linker_10, # of connection points: 2
#     Edge 60, Type (0, 1), BuildingBlock: TEMPAE_clean_linker_10, # of connection points: 2
#     Edge 61, Type (0, 1), BuildingBlock: TEMPAE_clean_linker_10, # of connection points: 2
#     Edge 62, Type (0, 1), BuildingBlock: TEMPAE_clean_linker_10, # of connection points: 2
#     Edge 63, Type (0, 1), BuildingBlock: TEMPAE_clean_linker_10, # of connection points: 2
#     Edge 64, Type (0, 1), BuildingBlock: TEMPAE_clean_linker_10, # of connection points: 2
#     Edge 65, Type (0, 1), BuildingBlock: TEMPAE_clean_linker_10, # of connection points: 2
#     Edge 66, Type (0, 1), BuildingBlock: TEMPAE_clean_linker_10, # of connection points: 2
#     Edge 67, Type (0, 1), BuildingBlock: TEMPAE_clean_linker_10, # of connection points: 2
#     Edge 68, Type (0, 1), BuildingBlock: TEMPAE_clean_linker_10, # of connection points: 2
#     Edge 69, Type (0, 1), BuildingBlock: TEMPAE_clean_linker_10, # of connection points: 2
#     Edge 70, Type (0, 1), BuildingBlock: TEMPAE_clean_linker_10, # of connection points: 2
#     Edge 71, Type (0, 1), BuildingBlock: TEMPAE_clean_linker_10, # of connection points: 2
#     Edge 72, Type (0, 1), BuildingBlock: TEMPAE_clean_linker_10, # of connection points: 2
#     Edge 73, Type (0, 1), BuildingBlock: TEMPAE_clean_linker_10, # of connection points: 2
#     Edge 74, Type (0, 1), BuildingBlock: TEMPAE_clean_linker_10, # of connection points: 2
#     Edge 75, Type (0, 1), BuildingBlock: TEMPAE_clean_linker_10, # of connection points: 2
#     Edge 76, Type (0, 1), BuildingBlock: TEMPAE_clean_linker_10, # of connection points: 2
#     Edge 77, Type (0, 1), BuildingBlock: TEMPAE_clean_linker_10, # of connection points: 2
#     Edge 78, Type (0, 1), BuildingBlock: TEMPAE_clean_linker_10, # of connection points: 2
#     Edge 79, Type (0, 1), BuildingBlock: TEMPAE_clean_linker_10, # of connection points: 2
#     Edge 80, Type (0, 1), BuildingBlock: TEMPAE_clean_linker_10, # of connection points: 2
#     Edge 81, Type (0, 1), BuildingBlock: TEMPAE_clean_linker_10, # of connection points: 2
#     Edge 82, Type (0, 1), BuildingBlock: TEMPAE_clean_linker_10, # of connection points: 2
#     Edge 83, Type (0, 1), BuildingBlock: TEMPAE_clean_linker_10, # of connection points: 2
#     Edge 84, Type (0, 1), BuildingBlock: TEMPAE_clean_linker_10, # of connection points: 2
#     Edge 85, Type (0, 1), BuildingBlock: TEMPAE_clean_linker_10, # of connection points: 2
#     Edge 86, Type (0, 1), BuildingBlock: TEMPAE_clean_linker_10, # of connection points: 2
#     Edge 87, Type (0, 1), BuildingBlock: TEMPAE_clean_linker_10, # of connection points: 2
#     Edge 88, Type (0, 1), BuildingBlock: TEMPAE_clean_linker_10, # of connection points: 2
#     Edge 89, Type (0, 1), BuildingBlock: TEMPAE_clean_linker_10, # of connection points: 2
#     Edge 90, Type (0, 1), BuildingBlock: TEMPAE_clean_linker_10, # of connection points: 2
#     Edge 91, Type (0, 1), BuildingBlock: TEMPAE_clean_linker_10, # of connection points: 2
#     Edge 92, Type (0, 1), BuildingBlock: TEMPAE_clean_linker_10, # of connection points: 2
#     Edge 93, Type (0, 1), BuildingBlock: TEMPAE_clean_linker_10, # of connection points: 2
#     Edge 94, Type (0, 1), BuildingBlock: TEMPAE_clean_linker_10, # of connection points: 2
#     Edge 95, Type (0, 1), BuildingBlock: TEMPAE_clean_linker_10, # of connection points: 2
#     Edge 96, Type (0, 1), BuildingBlock: TEMPAE_clean_linker_10, # of connection points: 2
#     Edge 97, Type (0, 1), BuildingBlock: TEMPAE_clean_linker_10, # of connection points: 2
#     Edge 98, Type (0, 1), BuildingBlock: TEMPAE_clean_linker_10, # of connection points: 2
#     Edge 99, Type (0, 1), BuildingBlock: TEMPAE_clean_linker_10, # of connection points: 2
#     Edge 100, Type (0, 1), BuildingBlock: TEMPAE_clean_linker_10, # of connection points: 2
#     Edge 101, Type (0, 1), BuildingBlock: TEMPAE_clean_linker_10, # of connection points: 2
#     Edge 102, Type (0, 1), BuildingBlock: TEMPAE_clean_linker_10, # of connection points: 2
#     Edge 103, Type (0, 1), BuildingBlock: TEMPAE_clean_linker_10, # of connection points: 2
#     Edge 104, Type (0, 1), BuildingBlock: TEMPAE_clean_linker_10, # of connection points: 2
#     Edge 105, Type (0, 1), BuildingBlock: TEMPAE_clean_linker_10, # of connection points: 2
#     Edge 106, Type (0, 1), BuildingBlock: TEMPAE_clean_linker_10, # of connection points: 2
#     Edge 107, Type (0, 1), BuildingBlock: TEMPAE_clean_linker_10, # of connection points: 2
#     Edge 108, Type (0, 1), BuildingBlock: TEMPAE_clean_linker_10, # of connection points: 2
#     Edge 109, Type (0, 1), BuildingBlock: TEMPAE_clean_linker_10, # of connection points: 2
#     Edge 110, Type (0, 1), BuildingBlock: TEMPAE_clean_linker_10, # of connection points: 2
#     Edge 111, Type (0, 1), BuildingBlock: TEMPAE_clean_linker_10, # of connection points: 2
#     Edge 112, Type (0, 1), BuildingBlock: TEMPAE_clean_linker_10, # of connection points: 2
#     Edge 113, Type (0, 1), BuildingBlock: TEMPAE_clean_linker_10, # of connection points: 2
#     Edge 114, Type (0, 1), BuildingBlock: TEMPAE_clean_linker_10, # of connection points: 2
#     Edge 115, Type (0, 1), BuildingBlock: TEMPAE_clean_linker_10, # of connection points: 2
#     Edge 116, Type (0, 1), BuildingBlock: TEMPAE_clean_linker_10, # of connection points: 2
#     Edge 117, Type (0, 1), BuildingBlock: TEMPAE_clean_linker_10, # of connection points: 2
#     Edge 118, Type (0, 1), BuildingBlock: TEMPAE_clean_linker_10, # of connection points: 2
#     Edge 119, Type (0, 1), BuildingBlock: TEMPAE_clean_linker_10, # of connection points: 2
#     Edge 120, Type (0, 1), BuildingBlock: TEMPAE_clean_linker_10, # of connection points: 2
#     Edge 121, Type (0, 1), BuildingBlock: TEMPAE_clean_linker_10, # of connection points: 2
#     Edge 122, Type (0, 1), BuildingBlock: TEMPAE_clean_linker_10, # of connection points: 2
#     Edge 123, Type (0, 1), BuildingBlock: TEMPAE_clean_linker_10, # of connection points: 2
#     Edge 124, Type (0, 1), BuildingBlock: TEMPAE_clean_linker_10, # of connection points: 2
#     Edge 125, Type (0, 1), BuildingBlock: TEMPAE_clean_linker_10, # of connection points: 2
#     Edge 126, Type (0, 1), BuildingBlock: TEMPAE_clean_linker_10, # of connection points: 2
#     Edge 127, Type (0, 1), BuildingBlock: TEMPAE_clean_linker_10, # of connection points: 2
#     Edge 128, Type (0, 1), BuildingBlock: TEMPAE_clean_linker_10, # of connection points: 2
#     Edge 129, Type (0, 1), BuildingBlock: TEMPAE_clean_linker_10, # of connection points: 2
#     Edge 130, Type (0, 1), BuildingBlock: TEMPAE_clean_linker_10, # of connection points: 2
#     Edge 131, Type (0, 1), BuildingBlock: TEMPAE_clean_linker_10, # of connection points: 2
#     Edge 132, Type (0, 1), BuildingBlock: TEMPAE_clean_linker_10, # of connection points: 2
#     Edge 133, Type (0, 1), BuildingBlock: TEMPAE_clean_linker_10, # of connection points: 2
#     Edge 134, Type (0, 1), BuildingBlock: TEMPAE_clean_linker_10, # of connection points: 2
#     Edge 135, Type (0, 1), BuildingBlock: TEMPAE_clean_linker_10, # of connection points: 2
#     Edge 136, Type (0, 1), BuildingBlock: TEMPAE_clean_linker_10, # of connection points: 2
#     Edge 137, Type (0, 1), BuildingBlock: TEMPAE_clean_linker_10, # of connection points: 2
#     Edge 138, Type (0, 1), BuildingBlock: TEMPAE_clean_linker_10, # of connection points: 2
#     Edge 139, Type (0, 1), BuildingBlock: TEMPAE_clean_linker_10, # of connection points: 2
#     Edge 140, Type (0, 1), BuildingBlock: TEMPAE_clean_linker_10, # of connection points: 2
#     Edge 141, Type (0, 1), BuildingBlock: TEMPAE_clean_linker_10, # of connection points: 2
#     Edge 142, Type (0, 1), BuildingBlock: TEMPAE_clean_linker_10, # of connection points: 2
#     Edge 143, Type (0, 1), BuildingBlock: TEMPAE_clean_linker_10, # of connection points: 2
#     Edge 144, Type (0, 1), BuildingBlock: TEMPAE_clean_linker_10, # of connection points: 2
#     Edge 145, Type (0, 1), BuildingBlock: TEMPAE_clean_linker_10, # of connection points: 2
#     Edge 146, Type (0, 1), BuildingBlock: TEMPAE_clean_linker_10, # of connection points: 2
#     Edge 147, Type (0, 1), BuildingBlock: TEMPAE_clean_linker_10, # of connection points: 2
#     Edge 148, Type (0, 1), BuildingBlock: TEMPAE_clean_linker_10, # of connection points: 2
#     Edge 149, Type (0, 1), BuildingBlock: TEMPAE_clean_linker_10, # of connection points: 2
#     Edge 150, Type (0, 1), BuildingBlock: TEMPAE_clean_linker_10, # of connection points: 2
#     Edge 151, Type (0, 1), BuildingBlock: TEMPAE_clean_linker_10, # of connection points: 2
# Relax obj value: 0.000
# Max RMSD: 0.011
# Mean RMSD: 0.006
data_MOF--net-tbo--node1-WUSLED_clean_sbu_0--node2-MIFKUJ_clean_linker_1--edge1-TEMPAE_clean_linker_10
_symmetry_space_group_name_H-M    P1
_symmetry_Int_Tables_number       1
_symmetry_cell_setting            triclinic
loop_
_symmetry_equiv_pos_as_xyz
'x, y, z'
_cell_length_a     109.14503
_cell_length_b     109.50798
_cell_length_c     109.31085
_cell_angle_alpha  89.653991
_cell_angle_beta   90.311314
_cell_angle_gamma 90.702739
loop_
_atom_site_label
_atom_site_type_symbol
_atom_site_fract_x
_atom_site_fract_y
_atom_site_fract_z
_atom_type_partial_charge
C0 C 0.18526 0.15144 0.20196 0.0
C1 C 0.19751 0.14974 0.19854 0.0
C2 C 0.19805 0.13053 0.21001 0.0
C3 C 0.20385 0.13937 0.20254 0.0
C4 C 0.18571 0.13222 0.21319 0.0
C5 C 0.17941 0.14257 0.20922 0.0
U6 U 0.17957 0.17957 0.18141 0.0
O7 O 0.16213 0.1871 0.17482 0.0
O8 O 0.1741 0.1981 0.18675 0.0
C9 C 0.16337 0.19714 0.18128 0.0
C10 C 0.17847 0.16246 0.19836 0.0
C11 C 0.15266 0.20095 0.18852 0.0
C12 C 0.13257 0.19701 0.19746 0.0
C13 C 0.1429 0.19288 0.19122 0.0
C14 C 0.1417 0.21722 0.19868 0.0
C15 C 0.13178 0.20927 0.20118 0.0
C16 C 0.15198 0.21311 0.1924 0.0
C17 C 0.20072 0.18662 0.15407 0.0
C18 C 0.19617 0.19846 0.1357 0.0
C19 C 0.21725 0.19452 0.14132 0.0
C20 C 0.21326 0.18801 0.15164 0.0
C21 C 0.20876 0.19975 0.13316 0.0
C22 C 0.19219 0.192 0.14608 0.0
C23 C 0.19684 0.17923 0.16475 0.0
O24 O 0.18428 0.17294 0.19985 0.0
O25 O 0.17237 0.16182 0.18798 0.0
O26 O 0.18638 0.17323 0.16368 0.0
O27 O 0.19832 0.18437 0.17551 0.0
H28 H 0.20219 0.15648 0.19292 0.0
H29 H 0.21336 0.13842 0.19999 0.0
H30 H 0.18087 0.12551 0.21872 0.0
H31 H 0.16995 0.14368 0.2119 0.0
H32 H 0.12508 0.19064 0.1991 0.0
H33 H 0.14316 0.18344 0.18836 0.0
H34 H 0.14154 0.22665 0.20159 0.0
H35 H 0.15938 0.2195 0.19045 0.0
H36 H 0.18941 0.20249 0.12967 0.0
H37 H 0.227 0.19522 0.13958 0.0
H38 H 0.22 0.18392 0.15766 0.0
H39 H 0.18245 0.19113 0.14779 0.0
C40 C 0.81923 0.18568 0.15368 0.0
C41 C 0.82196 0.19818 0.15232 0.0
C42 C 0.81171 0.19839 0.13245 0.0
C43 C 0.81818 0.2045 0.14181 0.0
C44 C 0.80914 0.18584 0.13383 0.0
C45 C 0.81285 0.17956 0.14436 0.0
U46 U 0.8401 0.18072 0.18152 0.0
O47 O 0.83536 0.175 0.20028 0.0
O48 O 0.84746 0.16371 0.18918 0.0
C49 C 0.84117 0.16461 0.19936 0.0
C50 C 0.82288 0.17886 0.16474 0.0
C51 C 0.83416 0.15365 0.20311 0.0
C52 C 0.82145 0.1359 0.19833 0.0
C53 C 0.82788 0.14638 0.19453 0.0
C54 C 0.82727 0.14 0.21934 0.0
C55 C 0.82108 0.13259 0.21078 0.0
C56 C 0.83376 0.15041 0.21553 0.0
C57 C 0.86701 0.20272 0.1878 0.0
C58 C 0.88659 0.19878 0.19774 0.0
C59 C 0.87851 0.21927 0.19739 0.0
C60 C 0.86821 0.21507 0.19094 0.0
C61 C 0.88791 0.21121 0.20077 0.0
C62 C 0.87623 0.19457 0.19138 0.0
C63 C 0.85626 0.19865 0.18056 0.0
O64 O 0.83338 0.17316 0.16407 0.0
O65 O 0.82136 0.18449 0.1752 0.0
O66 O 0.84556 0.19966 0.1859 0.0
O67 O 0.8574 0.18838 0.17451 0.0
H68 H 0.82698 0.20305 0.15939 0.0
H69 H 0.82041 0.21413 0.14095 0.0
H70 H 0.80405 0.18091 0.12686 0.0
H71 H 0.81066 0.16992 0.14525 0.0
H72 H 0.81666 0.13045 0.19154 0.0
H73 H 0.82799 0.14879 0.1849 0.0
H74 H 0.82727 0.13762 0.22897 0.0
H75 H 0.83854 0.15592 0.22228 0.0
H76 H 0.89369 0.19233 0.20005 0.0
H77 H 0.87909 0.22886 0.19974 0.0
H78 H 0.86119 0.22151 0.18833 0.0
H79 H 0.87554 0.18497 0.18912 0.0
C80 C 0.82008 0.83416 0.15455 0.0
C81 C 0.82829 0.83124 0.14517 0.0
C82 C 0.81182 0.82127 0.13359 0.0
C83 C 0.8242 0.82488 0.1348 0.0
C84 C 0.80371 0.824 0.14313 0.0
C85 C 0.80779 0.83041 0.15345 0.0
U86 U 0.84119 0.8414 0.1821 0.0
O87 O 0.84794 0.85912 0.1889 0.0
O88 O 0.83625 0.84756 0.20057 0.0
C89 C 0.84185 0.85817 0.19921 0.0
C90 C 0.82389 0.84151 0.16528 0.0
C91 C 0.83484 0.86897 0.20288 0.0
C92 C 0.82124 0.88587 0.19827 0.0
C93 C 0.82746 0.87539 0.19455 0.0
C94 C 0.82955 0.88346 0.21871 0.0
C95 C 0.82229 0.89009 0.21039 0.0
C96 C 0.83576 0.87304 0.21499 0.0
C97 C 0.86857 0.82054 0.18932 0.0
C98 C 0.88683 0.82539 0.20133 0.0
C99 C 0.88151 0.80429 0.19712 0.0
C100 C 0.87117 0.80809 0.19058 0.0
C101 C 0.88951 0.81289 0.20253 0.0
C102 C 0.87643 0.82918 0.19483 0.0
C103 C 0.85779 0.8242 0.182 0.0
O104 O 0.82254 0.83624 0.17603 0.0
O105 O 0.83418 0.84783 0.16433 0.0
O106 O 0.85883 0.83442 0.17569 0.0
O107 O 0.84711 0.82292 0.18738 0.0
H108 H 0.83784 0.83401 0.14575 0.0
H109 H 0.83069 0.82306 0.12761 0.0
H110 H 0.79418 0.82119 0.14265 0.0
H111 H 0.80128 0.83253 0.16056 0.0
H112 H 0.81582 0.89079 0.19159 0.0
H113 H 0.82661 0.87238 0.18515 0.0
H114 H 0.8304 0.88628 0.22816 0.0
H115 H 0.84135 0.86817 0.22157 0.0
H116 H 0.89273 0.83223 0.20549 0.0
H117 H 0.88337 0.79462 0.19773 0.0
H118 H 0.86525 0.80128 0.18638 0.0
H119 H 0.87457 0.83885 0.19405 0.0
C120 C 0.15312 0.81912 0.18808 0.0
C121 C 0.14588 0.82774 0.19405 0.0
C122 C 0.13227 0.8115 0.20146 0.0
C123 C 0.13551 0.82396 0.20064 0.0
C124 C 0.13966 0.80292 0.19558 0.0
C125 C 0.14996 0.8067 0.18894 0.0
U126 U 0.18039 0.84048 0.18081 0.0
O127 O 0.19906 0.83577 0.175 0.0
O128 O 0.18738 0.84692 0.16306 0.0
C129 C 0.19766 0.84086 0.16416 0.0
C130 C 0.16389 0.82281 0.18079 0.0
C131 C 0.20131 0.83341 0.15356 0.0
C132 C 0.19682 0.82367 0.13404 0.0
C133 C 0.19292 0.83011 0.14431 0.0
C134 C 0.21746 0.82341 0.14224 0.0
C135 C 0.20915 0.82031 0.13285 0.0
C136 C 0.21359 0.82993 0.15245 0.0
C137 C 0.18657 0.86875 0.20082 0.0
C138 C 0.20575 0.88016 0.20288 0.0
C139 C 0.18679 0.88906 0.20969 0.0
C140 C 0.18038 0.87855 0.20604 0.0
C141 C 0.19956 0.88997 0.20823 0.0
C142 C 0.19931 0.86966 0.19915 0.0
C143 C 0.17957 0.85764 0.19748 0.0
O144 O 0.16284 0.83286 0.17425 0.0
O145 O 0.17455 0.82193 0.18635 0.0
O146 O 0.18514 0.84718 0.19917 0.0
O147 O 0.17343 0.85817 0.18711 0.0
H148 H 0.14821 0.83737 0.19358 0.0
H149 H 0.13008 0.83078 0.20518 0.0
H150 H 0.13735 0.79327 0.1959 0.0
H151 H 0.15543 0.79991 0.18439 0.0
H152 H 0.19017 0.8213 0.12703 0.0
H153 H 0.18337 0.8326 0.14494 0.0
H154 H 0.22705 0.82106 0.14154 0.0
H155 H 0.22024 0.83241 0.15943 0.0
H156 H 0.21557 0.88063 0.20151 0.0
H157 H 0.18176 0.89637 0.21391 0.0
H158 H 0.17056 0.87802 0.20742 0.0
H159 H 0.20428 0.86223 0.19506 0.0
C160 C 0.15363 0.81867 0.83729 0.0
C161 C 0.15167 0.82251 0.82517 0.0
C162 C 0.13276 0.81043 0.82421 0.0
C163 C 0.14134 0.8184 0.81867 0.0
C164 C 0.13475 0.80675 0.83642 0.0
C165 C 0.1451 0.81082 0.84287 0.0
U166 U 0.18061 0.84066 0.84261 0.0
O167 O 0.18777 0.84828 0.85987 0.0
O168 O 0.19951 0.83695 0.84843 0.0
C169 C 0.19824 0.84256 0.85895 0.0
C170 C 0.16448 0.82275 0.84426 0.0
C171 C 0.20209 0.8357 0.86991 0.0
C172 C 0.2035 0.8168 0.88161 0.0
C173 C 0.19962 0.82314 0.87115 0.0
C174 C 0.21211 0.83555 0.88981 0.0
C175 C 0.20979 0.82295 0.89106 0.0
C176 C 0.20831 0.84185 0.87932 0.0
C177 C 0.18585 0.86783 0.82083 0.0
C178 C 0.20485 0.87839 0.81545 0.0
C179 C 0.18553 0.88892 0.81376 0.0
C180 C 0.17937 0.87843 0.81789 0.0
C181 C 0.19835 0.88901 0.81237 0.0
C182 C 0.19867 0.86792 0.81968 0.0
C183 C 0.17902 0.8568 0.82485 0.0
O184 O 0.17505 0.82172 0.83867 0.0
O185 O 0.16335 0.83317 0.85002 0.0
O186 O 0.17306 0.85777 0.83521 0.0
O187 O 0.18462 0.8463 0.82371 0.0
H188 H 0.15816 0.82862 0.82072 0.0
H189 H 0.14016 0.82134 0.80927 0.0
H190 H 0.12824 0.80081 0.84105 0.0
H191 H 0.14642 0.80783 0.85225 0.0
H192 H 0.20146 0.80712 0.88237 0.0
H193 H 0.19472 0.81823 0.86403 0.0
H194 H 0.21704 0.84052 0.89686 0.0
H195 H 0.21028 0.85155 0.87853 0.0
H196 H 0.2147 0.87807 0.81438 0.0
H197 H 0.18024 0.89698 0.81171 0.0
H198 H 0.16948 0.87859 0.81876 0.0
H199 H 0.20393 0.85988 0.82192 0.0
C200 C 0.15229 0.18467 0.82056 0.0
C201 C 0.14614 0.19227 0.82873 0.0
C202 C 0.1313 0.19757 0.8128 0.0
C203 C 0.13573 0.19866 0.82489 0.0
C204 C 0.13768 0.19009 0.80463 0.0
C205 C 0.14804 0.1837 0.80849 0.0
U206 U 0.17972 0.17795 0.8418 0.0
O207 O 0.18619 0.16023 0.84882 0.0
O208 O 0.19811 0.17153 0.83714 0.0
C209 C 0.19657 0.161 0.8428 0.0
C210 C 0.16297 0.17745 0.82443 0.0
C211 C 0.20009 0.15005 0.83594 0.0
C212 C 0.20087 0.13822 0.81718 0.0
C213 C 0.19691 0.1485 0.82357 0.0
C214 C 0.21098 0.13083 0.8355 0.0
C215 C 0.20806 0.1293 0.82304 0.0
C216 C 0.20705 0.1411 0.84186 0.0
C217 C 0.1872 0.19909 0.86901 0.0
C218 C 0.19686 0.19467 0.88867 0.0
C219 C 0.19729 0.2153 0.88058 0.0
C220 C 0.19077 0.21137 0.87025 0.0
C221 C 0.20033 0.20702 0.88997 0.0
C222 C 0.1904 0.19073 0.87827 0.0
C223 C 0.17982 0.19539 0.85822 0.0
O224 O 0.17374 0.18278 0.82311 0.0
O225 O 0.16187 0.17147 0.83484 0.0
O226 O 0.17324 0.18529 0.85926 0.0
O227 O 0.18525 0.19649 0.84756 0.0
H228 H 0.1493 0.19316 0.8381 0.0
H229 H 0.13101 0.20425 0.83146 0.0
H230 H 0.13469 0.1892 0.79521 0.0
H231 H 0.1527 0.17793 0.80203 0.0
H232 H 0.19851 0.13739 0.80758 0.0
H233 H 0.19151 0.15531 0.81884 0.0
H234 H 0.21629 0.12406 0.84039 0.0
H235 H 0.20955 0.14209 0.85141 0.0
H236 H 0.19917 0.18804 0.89568 0.0
H237 H 0.1997 0.22489 0.88135 0.0
H238 H 0.18836 0.218 0.86325 0.0
H239 H 0.18783 0.18117 0.87755 0.0
C240 C 0.8187 0.15257 0.83789 0.0
C241 C 0.82684 0.14643 0.83024 0.0
C242 C 0.81088 0.13145 0.82516 0.0
C243 C 0.82297 0.13594 0.82394 0.0
C244 C 0.80275 0.13778 0.83273 0.0
C245 C 0.80664 0.14822 0.83903 0.0
U246 U 0.8404 0.1798 0.84396 0.0
O247 O 0.83594 0.19859 0.84932 0.0
O248 O 0.84717 0.18717 0.86142 0.0
C249 C 0.84132 0.19752 0.86005 0.0
C250 C 0.82256 0.16348 0.8448 0.0
C251 C 0.83415 0.20151 0.87065 0.0
C252 C 0.8199 0.19738 0.88726 0.0
C253 C 0.82626 0.19345 0.87692 0.0
C254 C 0.82907 0.21752 0.88499 0.0
C255 C 0.82131 0.20945 0.89148 0.0
C256 C 0.83543 0.21357 0.8747 0.0
C257 C 0.8685 0.18543 0.82344 0.0
C258 C 0.87903 0.20441 0.81796 0.0
C259 C 0.88982 0.18526 0.81704 0.0
C260 C 0.87927 0.17905 0.821 0.0
C261 C 0.88982 0.19801 0.81533 0.0
C262 C 0.8685 0.1982 0.822 0.0
C263 C 0.85737 0.17851 0.82708 0.0
O264 O 0.83278 0.16252 0.85114 0.0
O265 O 0.82167 0.17394 0.83893 0.0
O266 O 0.84681 0.18393 0.82534 0.0
O267 O 0.85801 0.1726 0.83757 0.0
H268 H 0.83619 0.14968 0.82922 0.0
H269 H 0.8295 0.13125 0.81829 0.0
H270 H 0.79333 0.13473 0.83372 0.0
H271 H 0.80021 0.15289 0.84483 0.0
H272 H 0.81409 0.1909 0.89208 0.0
H273 H 0.82513 0.18409 0.87391 0.0
H274 H 0.8302 0.22693 0.88782 0.0
H275 H 0.84142 0.21994 0.86994 0.0
H276 H 0.87863 0.21421 0.81664 0.0
H277 H 0.89799 0.18004 0.81534 0.0
H278 H 0.87951 0.16922 0.82208 0.0
H279 H 0.86033 0.20337 0.82384 0.0
C280 C 0.83469 0.86868 0.8209 0.0
C281 C 0.83155 0.87798 0.82909 0.0
C282 C 0.82165 0.88939 0.81259 0.0
C283 C 0.82513 0.88823 0.82497 0.0
C284 C 0.82456 0.8799 0.80451 0.0
C285 C 0.83103 0.8697 0.80862 0.0
U286 U 0.8426 0.84173 0.84237 0.0
O287 O 0.84916 0.8234 0.83782 0.0
O288 O 0.86066 0.83565 0.84896 0.0
C289 C 0.85987 0.82521 0.84311 0.0
C290 C 0.84221 0.85815 0.82474 0.0
C291 C 0.87077 0.82179 0.83603 0.0
C292 C 0.88168 0.81959 0.8168 0.0
C293 C 0.87133 0.82334 0.82327 0.0
C294 C 0.8911 0.81295 0.83577 0.0
C295 C 0.89168 0.81432 0.82298 0.0
C296 C 0.88076 0.81663 0.8422 0.0
C297 C 0.82246 0.83489 0.87056 0.0
C298 C 0.81997 0.81569 0.88169 0.0
C299 C 0.81389 0.83464 0.89106 0.0
C300 C 0.81759 0.84107 0.88058 0.0
C301 C 0.81495 0.82186 0.89172 0.0
C302 C 0.82373 0.82215 0.87122 0.0
C303 C 0.82573 0.84192 0.85944 0.0
O304 O 0.84871 0.85942 0.83483 0.0
O305 O 0.837 0.84731 0.82376 0.0
O306 O 0.82432 0.83627 0.84893 0.0
O307 O 0.83588 0.84847 0.86006 0.0
H308 H 0.83423 0.87745 0.83863 0.0
H309 H 0.82317 0.89539 0.83143 0.0
H310 H 0.82185 0.88035 0.79498 0.0
H311 H 0.83332 0.86265 0.80214 0.0
H312 H 0.88188 0.82089 0.80697 0.0
H313 H 0.86376 0.82738 0.81831 0.0
H314 H 0.89855 0.80879 0.8408 0.0
H315 H 0.8805 0.81533 0.85204 0.0
H316 H 0.82103 0.80587 0.88196 0.0
H317 H 0.80994 0.83967 0.89854 0.0
H318 H 0.81649 0.85088 0.88025 0.0
H319 H 0.82754 0.81717 0.86363 0.0
C320 C 0.18518 0.65043 0.70064 0.0
C321 C 0.19797 0.6499 0.69929 0.0
C322 C 0.19808 0.62938 0.70814 0.0
C323 C 0.20436 0.63949 0.70305 0.0
C324 C 0.18526 0.62989 0.70926 0.0
C325 C 0.1789 0.64031 0.70558 0.0
U326 U 0.17867 0.67867 0.6805 0.0
O327 O 0.16103 0.68614 0.67444 0.0
O328 O 0.17327 0.69717 0.68605 0.0
C329 C 0.1624 0.69616 0.6809 0.0
C330 C 0.17823 0.66148 0.69739 0.0
C331 C 0.15185 0.69987 0.68843 0.0
C332 C 0.13202 0.69571 0.69782 0.0
C333 C 0.14226 0.69169 0.69137 0.0
C334 C 0.14092 0.71604 0.69879 0.0
C335 C 0.13119 0.70796 0.70153 0.0
C336 C 0.15111 0.71204 0.69228 0.0
C337 C 0.1989 0.68536 0.65221 0.0
C338 C 0.20489 0.70443 0.64216 0.0
C339 C 0.20524 0.68548 0.6309 0.0
C340 C 0.20112 0.67916 0.64127 0.0
C341 C 0.20733 0.69818 0.63123 0.0
C342 C 0.20071 0.69809 0.65254 0.0
C343 C 0.19527 0.67822 0.66318 0.0
O344 O 0.18399 0.67201 0.69876 0.0
O345 O 0.17169 0.6609 0.68727 0.0
O346 O 0.18476 0.67229 0.66246 0.0
O347 O 0.19715 0.68336 0.67389 0.0
H348 H 0.20302 0.65757 0.69543 0.0
H349 H 0.21421 0.63934 0.70193 0.0
H350 H 0.18016 0.62234 0.71327 0.0
H351 H 0.16905 0.64053 0.70673 0.0
H352 H 0.12474 0.68923 0.6999 0.0
H353 H 0.14259 0.68223 0.68858 0.0
H354 H 0.14052 0.72555 0.7014 0.0
H355 H 0.15834 0.71854 0.69007 0.0
H356 H 0.20649 0.71418 0.6428 0.0
H357 H 0.20678 0.68038 0.6226 0.0
H358 H 0.19977 0.66935 0.64078 0.0
H359 H 0.19907 0.70313 0.66086 0.0
C360 C 0.81842 0.68683 0.65549 0.0
C361 C 0.82695 0.69052 0.64656 0.0
C362 C 0.81068 0.69987 0.63451 0.0
C363 C 0.82309 0.69692 0.63613 0.0
C364 C 0.80222 0.69632 0.64355 0.0
C365 C 0.80606 0.68983 0.65391 0.0
U366 U 0.84015 0.6808 0.68242 0.0
O367 O 0.83596 0.67544 0.70142 0.0
O368 O 0.84707 0.66355 0.68995 0.0
C369 C 0.84131 0.66482 0.70038 0.0
C370 C 0.82216 0.6798 0.66643 0.0
C371 C 0.8341 0.65414 0.70452 0.0
C372 C 0.82001 0.63725 0.70047 0.0
C373 C 0.82639 0.64768 0.69645 0.0
C374 C 0.82875 0.63981 0.72072 0.0
C375 C 0.82119 0.63312 0.71264 0.0
C376 C 0.83515 0.65019 0.71668 0.0
C377 C 0.86825 0.70156 0.68715 0.0
C378 C 0.88008 0.70313 0.70601 0.0
C379 C 0.88837 0.71129 0.68709 0.0
C380 C 0.87777 0.70752 0.68087 0.0
C381 C 0.88962 0.7092 0.69974 0.0
C382 C 0.86951 0.69928 0.69975 0.0
C383 C 0.8571 0.6979 0.6804 0.0
O384 O 0.8322 0.67337 0.66547 0.0
O385 O 0.82136 0.68557 0.6769 0.0
O386 O 0.84668 0.69948 0.68613 0.0
O387 O 0.85763 0.68741 0.67467 0.0
H388 H 0.83657 0.68843 0.6476 0.0
H389 H 0.82983 0.69964 0.62938 0.0
H390 H 0.79258 0.69836 0.6425 0.0
H391 H 0.79934 0.68708 0.66068 0.0
H392 H 0.81436 0.63227 0.69397 0.0
H393 H 0.82543 0.65062 0.68701 0.0
H394 H 0.82971 0.63703 0.7302 0.0
H395 H 0.84101 0.65511 0.72305 0.0
H396 H 0.88084 0.70128 0.71572 0.0
H397 H 0.8955 0.71605 0.68203 0.0
H398 H 0.87697 0.70934 0.67115 0.0
H399 H 0.8623 0.6946 0.70476 0.0
C400 C 0.82011 0.33369 0.65409 0.0
C401 C 0.82861 0.33078 0.64497 0.0
C402 C 0.81258 0.32051 0.63308 0.0
C403 C 0.82487 0.32429 0.63455 0.0
C404 C 0.80416 0.32326 0.64233 0.0
C405 C 0.80788 0.3298 0.65269 0.0
U406 U 0.84051 0.34147 0.68202 0.0
O407 O 0.84674 0.35936 0.68887 0.0
O408 O 0.83504 0.3476 0.70035 0.0
C409 C 0.84038 0.35835 0.69903 0.0
C410 C 0.82355 0.34115 0.66485 0.0
C411 C 0.83302 0.369 0.7025 0.0
C412 C 0.82138 0.38719 0.69738 0.0
C413 C 0.82784 0.37685 0.69372 0.0
C414 C 0.82495 0.38182 0.71861 0.0
C415 C 0.8199 0.38983 0.70988 0.0
C416 C 0.83145 0.37154 0.71495 0.0
C417 C 0.86822 0.32116 0.68994 0.0
C418 C 0.88809 0.3257 0.69926 0.0
C419 C 0.87957 0.30522 0.70051 0.0
C420 C 0.86924 0.30902 0.69395 0.0
C421 C 0.88918 0.31348 0.70315 0.0
C422 C 0.8777 0.32952 0.69276 0.0
C423 C 0.85749 0.32465 0.6824 0.0
O424 O 0.8221 0.3359 0.6756 0.0
O425 O 0.83373 0.34767 0.66407 0.0
O426 O 0.85842 0.33482 0.67599 0.0
O427 O 0.8467 0.32315 0.68754 0.0
H428 H 0.83812 0.3336 0.64581 0.0
H429 H 0.83161 0.32221 0.62766 0.0
H430 H 0.79461 0.32061 0.64143 0.0
H431 H 0.80114 0.33199 0.65955 0.0
H432 H 0.8175 0.3931 0.69042 0.0
H433 H 0.82886 0.37505 0.68405 0.0
H434 H 0.82413 0.38364 0.72829 0.0
H435 H 0.83539 0.36564 0.72187 0.0
H436 H 0.89527 0.33232 0.70126 0.0
H437 H 0.88018 0.29572 0.70323 0.0
H438 H 0.8621 0.30238 0.69183 0.0
H439 H 0.87717 0.33896 0.68983 0.0
C440 C 0.15196 0.31965 0.68627 0.0
C441 C 0.15122 0.32148 0.69895 0.0
C442 C 0.13094 0.31189 0.6993 0.0
C443 C 0.14082 0.31758 0.70542 0.0
C444 C 0.13168 0.31022 0.68657 0.0
C445 C 0.1421 0.31405 0.68014 0.0
U446 U 0.17961 0.34083 0.68043 0.0
O447 O 0.19833 0.33648 0.67471 0.0
O448 O 0.18683 0.34804 0.66301 0.0
C449 C 0.19718 0.34212 0.66412 0.0
C450 C 0.16291 0.3234 0.67926 0.0
C451 C 0.20102 0.33524 0.65328 0.0
C452 C 0.20128 0.31668 0.64117 0.0
C453 C 0.19726 0.32308 0.65143 0.0
C454 C 0.21266 0.33459 0.63443 0.0
C455 C 0.2091 0.32234 0.63256 0.0
C456 C 0.20868 0.34095 0.64469 0.0
C457 C 0.18553 0.36803 0.70186 0.0
C458 C 0.20427 0.38028 0.70251 0.0
C459 C 0.18629 0.38691 0.71341 0.0
C460 C 0.17984 0.3766 0.70932 0.0
C461 C 0.19863 0.38886 0.71014 0.0
C462 C 0.19777 0.36996 0.69839 0.0
C463 C 0.17853 0.35715 0.69791 0.0
O464 O 0.16204 0.33376 0.6732 0.0
O465 O 0.17353 0.32211 0.68483 0.0
O466 O 0.18407 0.34663 0.69918 0.0
O467 O 0.17262 0.35821 0.68746 0.0
H468 H 0.15869 0.32589 0.70386 0.0
H469 H 0.14047 0.31911 0.71519 0.0
H470 H 0.12429 0.30575 0.68161 0.0
H471 H 0.1425 0.31255 0.67036 0.0
H472 H 0.19844 0.30724 0.64009 0.0
H473 H 0.19131 0.31852 0.65796 0.0
H474 H 0.21847 0.33932 0.62789 0.0
H475 H 0.21161 0.35035 0.64592 0.0
H476 H 0.21377 0.38143 0.69989 0.0
H477 H 0.18157 0.39341 0.71906 0.0
H478 H 0.17037 0.3753 0.71203 0.0
H479 H 0.20232 0.36346 0.69259 0.0
C480 C 0.15402 0.31762 0.33709 0.0
C481 C 0.15211 0.32134 0.32493 0.0
C482 C 0.13311 0.3094 0.32406 0.0
C483 C 0.14176 0.31725 0.31846 0.0
C484 C 0.13506 0.30581 0.3363 0.0
C485 C 0.14543 0.30987 0.34273 0.0
U486 U 0.18093 0.33969 0.34212 0.0
O487 O 0.18805 0.34768 0.35922 0.0
O488 O 0.19984 0.33616 0.34804 0.0
C489 C 0.19855 0.34201 0.35842 0.0
C490 C 0.16484 0.32178 0.34406 0.0
C491 C 0.20245 0.33536 0.36948 0.0
C492 C 0.20283 0.31697 0.38205 0.0
C493 C 0.19879 0.3232 0.37158 0.0
C494 C 0.21403 0.33507 0.38851 0.0
C495 C 0.21055 0.32282 0.39062 0.0
C496 C 0.21003 0.34126 0.37803 0.0
C497 C 0.18621 0.36621 0.31974 0.0
C498 C 0.20023 0.38318 0.32364 0.0
C499 C 0.19116 0.38066 0.30352 0.0
C500 C 0.18489 0.37022 0.30762 0.0
C501 C 0.19884 0.38734 0.3115 0.0
C502 C 0.19398 0.37269 0.32772 0.0
C503 C 0.17934 0.35532 0.32389 0.0
O504 O 0.17544 0.32066 0.33855 0.0
O505 O 0.16368 0.3323 0.34963 0.0
O506 O 0.17334 0.35649 0.3342 0.0
O507 O 0.18518 0.34493 0.32311 0.0
H508 H 0.15864 0.32738 0.32043 0.0
H509 H 0.14061 0.32011 0.30902 0.0
H510 H 0.1285 0.29997 0.34098 0.0
H511 H 0.14671 0.30698 0.35214 0.0
H512 H 0.20006 0.30752 0.38331 0.0
H513 H 0.1929 0.3185 0.36508 0.0
H514 H 0.21977 0.33993 0.39501 0.0
H515 H 0.21288 0.35067 0.37659 0.0
H516 H 0.20597 0.38815 0.33006 0.0
H517 H 0.19004 0.38346 0.29407 0.0
H518 H 0.17899 0.36528 0.30132 0.0
H519 H 0.19514 0.3697 0.33712 0.0
C520 C 0.151 0.68328 0.32211 0.0
C521 C 0.1506 0.696 0.32362 0.0
C522 C 0.13012 0.69646 0.31455 0.0
C523 C 0.14027 0.70254 0.31982 0.0
C524 C 0.13053 0.6837 0.31323 0.0
C525 C 0.14087 0.6772 0.31695 0.0
U526 U 0.17887 0.67666 0.34277 0.0
O527 O 0.18576 0.65898 0.34944 0.0
O528 O 0.19737 0.67069 0.33784 0.0
C529 C 0.19608 0.66006 0.34337 0.0
C530 C 0.1619 0.67616 0.32562 0.0
C531 C 0.19979 0.64925 0.33638 0.0
C532 C 0.20054 0.63748 0.31758 0.0
C533 C 0.1965 0.64769 0.32404 0.0
C534 C 0.21099 0.63021 0.33576 0.0
C535 C 0.20792 0.62865 0.32334 0.0
C536 C 0.20698 0.6404 0.34218 0.0
C537 C 0.18565 0.69728 0.37055 0.0
C538 C 0.205 0.70019 0.38141 0.0
C539 C 0.186 0.70603 0.39095 0.0
C540 C 0.17949 0.70214 0.3806 0.0
C541 C 0.19884 0.70517 0.39147 0.0
C542 C 0.19846 0.69624 0.37106 0.0
C543 C 0.17849 0.69367 0.35962 0.0
O544 O 0.1726 0.68163 0.32426 0.0
O545 O 0.16104 0.66989 0.33588 0.0
O546 O 0.17229 0.68335 0.36051 0.0
O547 O 0.18388 0.69513 0.34897 0.0
H548 H 0.15828 0.7009 0.32767 0.0
H549 H 0.1402 0.71234 0.32109 0.0
H550 H 0.12294 0.67875 0.30908 0.0
H551 H 0.14099 0.66739 0.31569 0.0
H552 H 0.19807 0.63662 0.30801 0.0
H553 H 0.19092 0.65441 0.3194 0.0
H554 H 0.21644 0.6235 0.34057 0.0
H555 H 0.20956 0.6414 0.35172 0.0
H556 H 0.21487 0.69929 0.38157 0.0
H557 H 0.18097 0.70994 0.39846 0.0
H558 H 0.16962 0.70306 0.38039 0.0
H559 H 0.20342 0.69244 0.36344 0.0
C560 C 0.81874 0.653 0.33738 0.0
C561 C 0.82682 0.6469 0.32964 0.0
C562 C 0.81073 0.63215 0.32431 0.0
C563 C 0.82286 0.63655 0.32317 0.0
C564 C 0.80265 0.63847 0.33194 0.0
C565 C 0.80662 0.64876 0.33841 0.0
U566 U 0.8408 0.67975 0.34417 0.0
O567 O 0.83684 0.69837 0.3503 0.0
O568 O 0.84786 0.68627 0.36192 0.0
C569 C 0.84214 0.69673 0.36101 0.0
C570 C 0.82275 0.66364 0.34461 0.0
C571 C 0.83519 0.70047 0.37192 0.0
C572 C 0.81622 0.7061 0.38194 0.0
C573 C 0.82242 0.70199 0.37159 0.0
C574 C 0.83538 0.70694 0.39317 0.0
C575 C 0.82263 0.70872 0.39285 0.0
C576 C 0.84158 0.70292 0.38281 0.0
C577 C 0.86869 0.68568 0.32355 0.0
C578 C 0.88029 0.70472 0.32159 0.0
C579 C 0.88888 0.68585 0.31426 0.0
C580 C 0.87835 0.6795 0.31802 0.0
C581 C 0.88995 0.69855 0.31593 0.0
C582 C 0.86977 0.69834 0.32542 0.0
C583 C 0.85754 0.67878 0.32704 0.0
O584 O 0.83301 0.66235 0.35082 0.0
O585 O 0.82194 0.67431 0.33911 0.0
O586 O 0.8471 0.68449 0.32566 0.0
O587 O 0.85822 0.67253 0.33732 0.0
H588 H 0.83622 0.65005 0.32871 0.0
H589 H 0.82936 0.63186 0.31747 0.0
H590 H 0.7932 0.63549 0.33287 0.0
H591 H 0.80023 0.6534 0.34429 0.0
H592 H 0.80642 0.70747 0.3813 0.0
H593 H 0.81724 0.70016 0.36331 0.0
H594 H 0.8406 0.70863 0.40145 0.0
H595 H 0.85142 0.70177 0.3833 0.0
H596 H 0.88089 0.71447 0.32312 0.0
H597 H 0.89609 0.68085 0.30981 0.0
H598 H 0.87769 0.66975 0.31648 0.0
H599 H 0.86246 0.70329 0.32976 0.0
C600 C 0.83579 0.37006 0.32082 0.0
C601 C 0.82342 0.37149 0.3239 0.0
C602 C 0.82292 0.39097 0.31291 0.0
C603 C 0.81704 0.38185 0.31997 0.0
C604 C 0.83539 0.38956 0.31009 0.0
C605 C 0.84173 0.37921 0.31399 0.0
U606 U 0.84192 0.34171 0.34105 0.0
O607 O 0.84768 0.32337 0.33541 0.0
O608 O 0.85953 0.33439 0.34743 0.0
C609 C 0.85842 0.32444 0.34082 0.0
C610 C 0.84266 0.35905 0.32431 0.0
C611 C 0.86916 0.32095 0.33345 0.0
C612 C 0.88896 0.32555 0.32419 0.0
C613 C 0.8786 0.32933 0.33059 0.0
C614 C 0.88048 0.30505 0.32312 0.0
C615 C 0.89005 0.31334 0.32044 0.0
C616 C 0.87018 0.30881 0.32958 0.0
C617 C 0.8212 0.33389 0.36855 0.0
C618 C 0.82572 0.32413 0.38813 0.0
C619 C 0.80503 0.32357 0.38005 0.0
C620 C 0.8089 0.33019 0.36976 0.0
C621 C 0.81336 0.32056 0.38943 0.0
C622 C 0.82962 0.33068 0.37778 0.0
C623 C 0.82483 0.3415 0.35789 0.0
O624 O 0.84883 0.35964 0.33465 0.0
O625 O 0.83695 0.34853 0.32274 0.0
O626 O 0.82331 0.3365 0.34707 0.0
O627 O 0.83515 0.34776 0.35889 0.0
H628 H 0.81866 0.36453 0.32919 0.0
H629 H 0.80743 0.38259 0.32224 0.0
H630 H 0.84029 0.39648 0.30488 0.0
H631 H 0.8513 0.37831 0.31157 0.0
H632 H 0.89611 0.33218 0.32216 0.0
H633 H 0.87804 0.33878 0.3334 0.0
H634 H 0.88109 0.29555 0.32049 0.0
H635 H 0.86305 0.30217 0.33173 0.0
H636 H 0.83239 0.32183 0.39512 0.0
H637 H 0.79543 0.32108 0.38083 0.0
H638 H 0.80223 0.3326 0.36281 0.0
H639 H 0.83918 0.33334 0.37709 0.0
C640 C 0.68667 0.15249 0.70249 0.0
C641 C 0.68994 0.14343 0.6941 0.0
C642 C 0.69977 0.1317 0.71039 0.0
C643 C 0.69639 0.13311 0.69802 0.0
C644 C 0.69667 0.1409 0.7187 0.0
C645 C 0.69016 0.15115 0.71479 0.0
U646 U 0.67938 0.17998 0.68157 0.0
O647 O 0.66154 0.18643 0.67473 0.0
O648 O 0.67293 0.19826 0.6864 0.0
C649 C 0.66234 0.19674 0.68078 0.0
C650 C 0.67923 0.16313 0.6988 0.0
C651 C 0.65137 0.20025 0.68768 0.0
C652 C 0.63953 0.20103 0.70647 0.0
C653 C 0.64984 0.19708 0.70006 0.0
C654 C 0.63209 0.21111 0.68815 0.0
C655 C 0.63057 0.2082 0.70062 0.0
C656 C 0.64238 0.20719 0.68178 0.0
C657 C 0.70054 0.1875 0.65422 0.0
C658 C 0.6965 0.1964 0.63413 0.0
C659 C 0.71685 0.19783 0.64294 0.0
C660 C 0.71276 0.19151 0.65333 0.0
C661 C 0.70882 0.20024 0.63312 0.0
C662 C 0.69239 0.19011 0.64457 0.0
C663 C 0.69677 0.18018 0.66503 0.0
O664 O 0.68444 0.17393 0.70019 0.0
O665 O 0.67295 0.16216 0.68854 0.0
O666 O 0.68662 0.17364 0.66401 0.0
O667 O 0.69792 0.18556 0.6757 0.0
H668 H 0.68744 0.14423 0.68453 0.0
H669 H 0.69875 0.12625 0.69137 0.0
H670 H 0.69902 0.14004 0.72831 0.0
H671 H 0.68769 0.15799 0.72144 0.0
H672 H 0.6387 0.19869 0.71607 0.0
H673 H 0.65667 0.1917 0.70478 0.0
H674 H 0.62529 0.2164 0.68328 0.0
H675 H 0.64336 0.20967 0.67222 0.0
H676 H 0.69007 0.19797 0.62672 0.0
H677 H 0.72633 0.20083 0.64261 0.0
H678 H 0.71922 0.18962 0.66065 0.0
H679 H 0.6829 0.18715 0.64499 0.0
C680 C 0.31808 0.18723 0.6554 0.0
C681 C 0.32649 0.19075 0.6463 0.0
C682 C 0.31013 0.20011 0.6344 0.0
C683 C 0.32254 0.19708 0.63587 0.0
C684 C 0.30179 0.19677 0.64362 0.0
C685 C 0.30572 0.19035 0.65399 0.0
U686 U 0.33952 0.1814 0.68268 0.0
O687 O 0.33515 0.17544 0.70145 0.0
O688 O 0.3469 0.16421 0.68992 0.0
C689 C 0.3409 0.16504 0.70027 0.0
C690 C 0.32189 0.18014 0.66629 0.0
C691 C 0.33398 0.15406 0.70405 0.0
C692 C 0.31998 0.1372 0.69959 0.0
C693 C 0.32627 0.14779 0.69584 0.0
C694 C 0.32887 0.13919 0.71985 0.0
C695 C 0.32126 0.13273 0.71164 0.0
C696 C 0.33518 0.14973 0.71608 0.0
C697 C 0.36669 0.20317 0.68866 0.0
C698 C 0.38623 0.199 0.69859 0.0
C699 C 0.37852 0.21964 0.698 0.0
C700 C 0.36813 0.21554 0.69164 0.0
C701 C 0.38777 0.21145 0.70146 0.0
C702 C 0.37578 0.1949 0.6923 0.0
C703 C 0.35579 0.19921 0.6816 0.0
O704 O 0.33219 0.1741 0.66541 0.0
O705 O 0.32066 0.18563 0.67687 0.0
O706 O 0.34523 0.20022 0.68719 0.0
O707 O 0.35675 0.189 0.67541 0.0
H708 H 0.33611 0.18856 0.64719 0.0
H709 H 0.32919 0.19965 0.62898 0.0
H710 H 0.29216 0.19888 0.64268 0.0
H711 H 0.29908 0.18771 0.66087 0.0
H712 H 0.31429 0.1324 0.693 0.0
H713 H 0.3252 0.15103 0.68651 0.0
H714 H 0.32991 0.13615 0.72924 0.0
H715 H 0.34103 0.1545 0.72256 0.0
H716 H 0.39321 0.19245 0.70098 0.0
H717 H 0.37927 0.22924 0.70024 0.0
H718 H 0.36121 0.22207 0.68898 0.0
H719 H 0.37489 0.18528 0.69017 0.0
C720 C 0.32114 0.83608 0.65224 0.0
C721 C 0.31951 0.82333 0.65252 0.0
C722 C 0.31315 0.8234 0.63106 0.0
C723 C 0.31554 0.81706 0.64205 0.0
C724 C 0.31506 0.83614 0.63078 0.0
C725 C 0.31896 0.84239 0.64125 0.0
U726 U 0.34123 0.84238 0.68076 0.0
O727 O 0.34793 0.85991 0.6881 0.0
O728 O 0.33575 0.84826 0.69916 0.0
C729 C 0.34151 0.85883 0.6982 0.0
C730 C 0.32458 0.8431 0.66331 0.0
C731 C 0.33451 0.86963 0.70186 0.0
C732 C 0.32087 0.88649 0.69724 0.0
C733 C 0.32714 0.87604 0.69351 0.0
C734 C 0.32914 0.88406 0.7177 0.0
C735 C 0.32187 0.89068 0.70937 0.0
C736 C 0.33539 0.87367 0.71397 0.0
C737 C 0.36828 0.82132 0.68843 0.0
C738 C 0.38628 0.82606 0.70087 0.0
C739 C 0.38115 0.80502 0.69623 0.0
C740 C 0.37091 0.80887 0.68956 0.0
C741 C 0.38902 0.81356 0.7019 0.0
C742 C 0.37598 0.82991 0.69424 0.0
C743 C 0.35771 0.82508 0.68086 0.0
O744 O 0.32278 0.83769 0.67394 0.0
O745 O 0.33499 0.84924 0.66279 0.0
O746 O 0.35898 0.83539 0.67473 0.0
O747 O 0.34687 0.82376 0.6859 0.0
H748 H 0.32113 0.8182 0.66086 0.0
H749 H 0.31406 0.80728 0.64267 0.0
H750 H 0.31354 0.84131 0.62244 0.0
H751 H 0.32017 0.85222 0.64079 0.0
H752 H 0.31544 0.8914 0.69056 0.0
H753 H 0.32631 0.87305 0.68411 0.0
H754 H 0.32995 0.88686 0.72716 0.0
H755 H 0.34098 0.8688 0.72056 0.0
H756 H 0.39208 0.83287 0.70524 0.0
H757 H 0.38305 0.79534 0.69671 0.0
H758 H 0.36511 0.8021 0.68513 0.0
H759 H 0.37409 0.83958 0.69357 0.0
C760 C 0.65315 0.81891 0.68777 0.0
C761 C 0.6471 0.8271 0.69544 0.0
C762 C 0.63182 0.8114 0.70047 0.0
C763 C 0.63652 0.82338 0.70172 0.0
C764 C 0.63808 0.80322 0.6929 0.0
C765 C 0.64861 0.80696 0.68662 0.0
U766 U 0.68101 0.8399 0.68169 0.0
O767 O 0.69963 0.83494 0.67594 0.0
O768 O 0.68837 0.84673 0.66422 0.0
C769 C 0.6985 0.84041 0.66527 0.0
C770 C 0.66411 0.82262 0.6808 0.0
C771 C 0.70219 0.83323 0.65451 0.0
C772 C 0.69776 0.8238 0.63482 0.0
C773 C 0.69383 0.83009 0.64518 0.0
C774 C 0.71837 0.82341 0.64308 0.0
C775 C 0.71011 0.82046 0.63358 0.0
C776 C 0.71446 0.82976 0.65339 0.0
C777 C 0.68797 0.86722 0.7028 0.0
C778 C 0.69734 0.88711 0.69866 0.0
C779 C 0.69809 0.87858 0.71913 0.0
C780 C 0.69167 0.86823 0.71507 0.0
C781 C 0.70089 0.88824 0.71102 0.0
C782 C 0.69098 0.87671 0.69459 0.0
C783 C 0.68062 0.85643 0.69898 0.0
O784 O 0.66335 0.83296 0.67468 0.0
O785 O 0.67465 0.82132 0.68649 0.0
O786 O 0.68589 0.84577 0.70036 0.0
O787 O 0.67443 0.8574 0.68867 0.0
H788 H 0.65049 0.83638 0.69647 0.0
H789 H 0.63189 0.82995 0.70738 0.0
H790 H 0.63488 0.79388 0.69189 0.0
H791 H 0.6532 0.80049 0.6808 0.0
H792 H 0.69116 0.82181 0.62765 0.0
H793 H 0.68429 0.83263 0.6458 0.0
H794 H 0.72789 0.82081 0.64258 0.0
H795 H 0.72106 0.83204 0.66047 0.0
H796 H 0.69921 0.89441 0.69218 0.0
H797 H 0.70085 0.87901 0.72865 0.0
H798 H 0.68948 0.86103 0.72157 0.0
H799 H 0.68827 0.87619 0.68506 0.0
C800 C 0.65417 0.81805 0.33506 0.0
C801 C 0.6453 0.82658 0.33146 0.0
C802 C 0.63316 0.81044 0.32181 0.0
C803 C 0.63486 0.82279 0.32496 0.0
C804 C 0.64215 0.80198 0.32527 0.0
C805 C 0.65252 0.80575 0.33187 0.0
U806 U 0.68149 0.83943 0.3415 0.0
O807 O 0.68905 0.84618 0.35889 0.0
O808 O 0.70039 0.83491 0.34698 0.0
C809 C 0.69931 0.84014 0.35771 0.0
C810 C 0.66512 0.82169 0.34221 0.0
C811 C 0.70324 0.8328 0.36839 0.0
C812 C 0.69902 0.82269 0.38784 0.0
C813 C 0.69493 0.82908 0.3775 0.0
C814 C 0.71971 0.8233 0.37995 0.0
C815 C 0.71149 0.81979 0.38925 0.0
C816 C 0.71563 0.82977 0.36967 0.0
C817 C 0.68688 0.86754 0.3209 0.0
C818 C 0.70589 0.87815 0.31565 0.0
C819 C 0.68661 0.8888 0.31439 0.0
C820 C 0.68043 0.87824 0.31831 0.0
C821 C 0.69941 0.88886 0.31288 0.0
C822 C 0.69969 0.8676 0.31966 0.0
C823 C 0.68 0.85641 0.32454 0.0
O824 O 0.67564 0.82078 0.33651 0.0
O825 O 0.66428 0.83172 0.34871 0.0
O826 O 0.67415 0.85697 0.33499 0.0
O827 O 0.68549 0.84592 0.32287 0.0
H828 H 0.6464 0.83615 0.33371 0.0
H829 H 0.62815 0.82953 0.32231 0.0
H830 H 0.64103 0.7924 0.32309 0.0
H831 H 0.65923 0.79903 0.33456 0.0
H832 H 0.69244 0.82027 0.39486 0.0
H833 H 0.6853 0.83126 0.37674 0.0
H834 H 0.72932 0.82105 0.3806 0.0
H835 H 0.72219 0.8325 0.36274 0.0
H836 H 0.71572 0.87781 0.31448 0.0
H837 H 0.68134 0.89694 0.31258 0.0
H838 H 0.67055 0.87842 0.31925 0.0
H839 H 0.70492 0.85947 0.32163 0.0
C840 C 0.65044 0.18387 0.3223 0.0
C841 C 0.65011 0.19659 0.32389 0.0
C842 C 0.62963 0.19721 0.31481 0.0
C843 C 0.63981 0.2032 0.32013 0.0
C844 C 0.62998 0.18445 0.31341 0.0
C845 C 0.64028 0.17788 0.31709 0.0
U846 U 0.67845 0.17692 0.34271 0.0
O847 O 0.68516 0.15911 0.34924 0.0
O848 O 0.6968 0.17072 0.33757 0.0
C849 C 0.69538 0.16005 0.34299 0.0
C850 C 0.6613 0.17667 0.32573 0.0
C851 C 0.6988 0.14918 0.33588 0.0
C852 C 0.70146 0.13853 0.31659 0.0
C853 C 0.69763 0.14881 0.32308 0.0
C854 C 0.70741 0.1288 0.33563 0.0
C855 C 0.70645 0.12842 0.3228 0.0
C856 C 0.70365 0.13908 0.34208 0.0
C857 C 0.68582 0.19734 0.37057 0.0
C858 C 0.70515 0.20295 0.38044 0.0
C859 C 0.68627 0.20353 0.39193 0.0
C860 C 0.67974 0.19961 0.3816 0.0
C861 C 0.69904 0.20535 0.39146 0.0
C862 C 0.69861 0.19894 0.37011 0.0
C863 C 0.67851 0.19384 0.35966 0.0
O864 O 0.67204 0.18205 0.32429 0.0
O865 O 0.66046 0.1704 0.33599 0.0
O866 O 0.67215 0.18361 0.36056 0.0
O867 O 0.68374 0.19532 0.34893 0.0
H868 H 0.65782 0.20142 0.32796 0.0
H869 H 0.63978 0.21299 0.32146 0.0
H870 H 0.62237 0.17956 0.30922 0.0
H871 H 0.64036 0.16808 0.31576 0.0
H872 H 0.70047 0.13848 0.30673 0.0
H873 H 0.69384 0.15647 0.31808 0.0
H874 H 0.71134 0.12125 0.34069 0.0
H875 H 0.70467 0.13919 0.35195 0.0
H876 H 0.71499 0.20413 0.37982 0.0
H877 H 0.68126 0.20543 0.40022 0.0
H878 H 0.66988 0.19852 0.38217 0.0
H879 H 0.70357 0.19722 0.36175 0.0
C880 C 0.31883 0.15276 0.33646 0.0
C881 C 0.32747 0.14556 0.33045 0.0
C882 C 0.31116 0.1321 0.32291 0.0
C883 C 0.32367 0.13529 0.32378 0.0
C884 C 0.30255 0.13948 0.32879 0.0
C885 C 0.30636 0.14968 0.33551 0.0
U886 U 0.34043 0.17965 0.34411 0.0
O887 O 0.33618 0.19814 0.35045 0.0
O888 O 0.34716 0.18599 0.36206 0.0
C889 C 0.34136 0.19641 0.36121 0.0
C890 C 0.32258 0.16334 0.34397 0.0
C891 C 0.33428 0.20001 0.37209 0.0
C892 C 0.3153 0.206 0.38189 0.0
C893 C 0.32158 0.20194 0.37156 0.0
C894 C 0.33424 0.20597 0.3935 0.0
C895 C 0.32157 0.20817 0.39298 0.0
C896 C 0.34051 0.20198 0.38318 0.0
C897 C 0.3686 0.18605 0.32389 0.0
C898 C 0.37998 0.20519 0.32171 0.0
C899 C 0.38898 0.18628 0.315 0.0
C900 C 0.37846 0.17988 0.3187 0.0
C901 C 0.38984 0.19903 0.31637 0.0
C902 C 0.36948 0.19875 0.32549 0.0
C903 C 0.35745 0.17906 0.32722 0.0
O904 O 0.33271 0.1621 0.35041 0.0
O905 O 0.32171 0.17409 0.33866 0.0
O906 O 0.34698 0.18472 0.32577 0.0
O907 O 0.35804 0.1727 0.33743 0.0
H908 H 0.33715 0.14783 0.33099 0.0
H909 H 0.33052 0.12988 0.31925 0.0
H910 H 0.29287 0.13721 0.32842 0.0
H911 H 0.29955 0.15511 0.34009 0.0
H912 H 0.30557 0.2077 0.3811 0.0
H913 H 0.31651 0.20048 0.36314 0.0
H914 H 0.33934 0.20731 0.40192 0.0
H915 H 0.3503 0.20054 0.38382 0.0
H916 H 0.38042 0.21499 0.32301 0.0
H917 H 0.39633 0.18128 0.3108 0.0
H918 H 0.37796 0.17009 0.31737 0.0
H919 H 0.36201 0.20371 0.32955 0.0
C920 C 0.33657 0.87007 0.3215 0.0
C921 C 0.32379 0.87057 0.32291 0.0
C922 C 0.32361 0.89106 0.31396 0.0
C923 C 0.31737 0.88096 0.31912 0.0
C924 C 0.33642 0.89053 0.31274 0.0
C925 C 0.34281 0.88014 0.31645 0.0
U926 U 0.34263 0.84178 0.3417 0.0
O927 O 0.34876 0.8235 0.33647 0.0
O928 O 0.36021 0.83477 0.34864 0.0
C929 C 0.3593 0.82466 0.34226 0.0
C930 C 0.34358 0.85912 0.32499 0.0
C931 C 0.3703 0.82116 0.33539 0.0
C932 C 0.38225 0.82055 0.31667 0.0
C933 C 0.37194 0.82449 0.32307 0.0
C934 C 0.38949 0.81015 0.33488 0.0
C935 C 0.39111 0.81323 0.32247 0.0
C936 C 0.37919 0.81406 0.34125 0.0
C937 C 0.32116 0.83402 0.3686 0.0
C938 C 0.32575 0.82187 0.38676 0.0
C939 C 0.30466 0.82599 0.38132 0.0
C940 C 0.30862 0.83264 0.37108 0.0
C941 C 0.31317 0.8206 0.38935 0.0
C942 C 0.32971 0.82847 0.37645 0.0
C943 C 0.32502 0.84156 0.35803 0.0
O944 O 0.34954 0.85975 0.33545 0.0
O945 O 0.33813 0.8485 0.32324 0.0
O946 O 0.32389 0.83644 0.34723 0.0
O947 O 0.3353 0.84783 0.35932 0.0
H948 H 0.31878 0.86293 0.32687 0.0
H949 H 0.30753 0.88113 0.32032 0.0
H950 H 0.3415 0.89807 0.30867 0.0
H951 H 0.35266 0.87993 0.31526 0.0
H952 H 0.38315 0.82302 0.3071 0.0
H953 H 0.36518 0.83 0.31838 0.0
H954 H 0.39622 0.80474 0.33972 0.0
H955 H 0.37813 0.81145 0.35077 0.0
H956 H 0.33253 0.81771 0.39267 0.0
H957 H 0.29492 0.82532 0.38311 0.0
H958 H 0.30187 0.83687 0.36516 0.0
H959 H 0.33944 0.82933 0.37469 0.0
C960 C 0.68416 0.65163 0.20208 0.0
C961 C 0.69645 0.65005 0.19875 0.0
C962 C 0.69717 0.63095 0.21039 0.0
C963 C 0.7029 0.63981 0.20288 0.0
C964 C 0.68479 0.63254 0.21351 0.0
C965 C 0.67838 0.64278 0.20942 0.0
U966 U 0.67831 0.67897 0.18063 0.0
O967 O 0.66079 0.6859 0.17348 0.0
O968 O 0.67246 0.69757 0.18504 0.0
C969 C 0.66186 0.69627 0.17939 0.0
C970 C 0.67721 0.66245 0.19816 0.0
C971 C 0.65097 0.70009 0.18625 0.0
C972 C 0.6389 0.70079 0.20489 0.0
C973 C 0.64919 0.69672 0.19853 0.0
C974 C 0.63198 0.71145 0.1867 0.0
C975 C 0.6302 0.70829 0.19907 0.0
C976 C 0.64226 0.70741 0.18038 0.0
C977 C 0.69976 0.68494 0.15329 0.0
C978 C 0.70077 0.70361 0.14111 0.0
C979 C 0.71129 0.68554 0.13433 0.0
C980 C 0.70709 0.67917 0.14464 0.0
C981 C 0.70828 0.69788 0.13246 0.0
C982 C 0.69654 0.69719 0.15142 0.0
C983 C 0.69579 0.67802 0.16421 0.0
O984 O 0.68285 0.67306 0.19936 0.0
O985 O 0.6712 0.66141 0.18776 0.0
O986 O 0.68535 0.67201 0.16318 0.0
O987 O 0.69704 0.68364 0.17476 0.0
H988 H 0.70107 0.65678 0.19305 0.0
H989 H 0.71243 0.63895 0.20037 0.0
H990 H 0.68 0.62582 0.21907 0.0
H991 H 0.66889 0.64379 0.21202 0.0
H992 H 0.63788 0.69825 0.21443 0.0
H993 H 0.6558 0.69103 0.20322 0.0
H994 H 0.62538 0.717 0.18185 0.0
H995 H 0.64343 0.71004 0.17089 0.0
H996 H 0.69834 0.71311 0.14002 0.0
H997 H 0.71685 0.68076 0.12777 0.0
H998 H 0.70962 0.6697 0.14587 0.0
H999 H 0.69085 0.70181 0.15799 0.0
C1000 C 0.3174 0.68688 0.15525 0.0
C1001 C 0.32583 0.69042 0.14618 0.0
C1002 C 0.30949 0.69985 0.13424 0.0
C1003 C 0.3219 0.6968 0.13577 0.0
C1004 C 0.30114 0.69648 0.14348 0.0
C1005 C 0.30506 0.69004 0.15383 0.0
U1006 U 0.33883 0.68065 0.18246 0.0
O1007 O 0.33435 0.67469 0.20122 0.0
O1008 O 0.34593 0.66332 0.18965 0.0
C1009 C 0.33988 0.66418 0.19998 0.0
C1010 C 0.32116 0.67972 0.1661 0.0
C1011 C 0.3327 0.6533 0.20367 0.0
C1012 C 0.31977 0.63574 0.19878 0.0
C1013 C 0.32627 0.6462 0.19506 0.0
C1014 C 0.32581 0.63953 0.2198 0.0
C1015 C 0.31949 0.63227 0.2112 0.0
C1016 C 0.33237 0.64992 0.21605 0.0
C1017 C 0.36634 0.70196 0.18855 0.0
C1018 C 0.38583 0.69746 0.19841 0.0
C1019 C 0.37837 0.7182 0.19804 0.0
C1020 C 0.36793 0.7143 0.19163 0.0
C1021 C 0.38748 0.70985 0.20142 0.0
C1022 C 0.37533 0.69354 0.19209 0.0
C1023 C 0.35538 0.6982 0.18146 0.0
O1024 O 0.33137 0.67354 0.16516 0.0
O1025 O 0.32004 0.6852 0.1767 0.0
O1026 O 0.34483 0.69936 0.18705 0.0
O1027 O 0.35617 0.688 0.17524 0.0
H1028 H 0.33543 0.68816 0.14705 0.0
H1029 H 0.32856 0.69911 0.1288 0.0
H1030 H 0.29157 0.69886 0.14274 0.0
H1031 H 0.29841 0.68745 0.16074 0.0
H1032 H 0.31489 0.6304 0.19197 0.0
H1033 H 0.32633 0.64871 0.18546 0.0
H1034 H 0.32588 0.63703 0.2294 0.0
H1035 H 0.33727 0.6553 0.22283 0.0
H1036 H 0.39264 0.6908 0.201 0.0
H1037 H 0.37944 0.72782 0.20012 0.0
H1038 H 0.36113 0.72095 0.18897 0.0
H1039 H 0.37429 0.68394 0.18991 0.0
C1040 C 0.32003 0.3345 0.15358 0.0
C1041 C 0.32869 0.32918 0.14585 0.0
C1042 C 0.31233 0.32129 0.13267 0.0
C1043 C 0.32488 0.32268 0.13547 0.0
C1044 C 0.30371 0.32649 0.14054 0.0
C1045 C 0.30752 0.33304 0.15086 0.0
U1046 U 0.34097 0.34157 0.18121 0.0
O1047 O 0.34768 0.35926 0.18812 0.0
O1048 O 0.33595 0.34764 0.19968 0.0
C1049 C 0.34154 0.35826 0.1984 0.0
C1050 C 0.32372 0.34181 0.16433 0.0
C1051 C 0.3345 0.36904 0.20207 0.0
C1052 C 0.32064 0.38573 0.19749 0.0
C1053 C 0.32694 0.37531 0.19377 0.0
C1054 C 0.32923 0.38358 0.21785 0.0
C1055 C 0.32178 0.39006 0.20957 0.0
C1056 C 0.33552 0.37321 0.21412 0.0
C1057 C 0.36831 0.32067 0.18846 0.0
C1058 C 0.38667 0.32546 0.20035 0.0
C1059 C 0.38108 0.30437 0.19643 0.0
C1060 C 0.37077 0.3082 0.18987 0.0
C1061 C 0.38921 0.31294 0.20169 0.0
C1062 C 0.37629 0.32929 0.19383 0.0
C1063 C 0.35756 0.32436 0.18111 0.0
O1064 O 0.32234 0.33645 0.17504 0.0
O1065 O 0.33404 0.34807 0.16343 0.0
O1066 O 0.35863 0.33461 0.17484 0.0
O1067 O 0.34685 0.32306 0.18644 0.0
H1068 H 0.3384 0.3301 0.1478 0.0
H1069 H 0.33175 0.31868 0.12966 0.0
H1070 H 0.29399 0.32573 0.13859 0.0
H1071 H 0.30069 0.33708 0.15668 0.0
H1072 H 0.31507 0.39053 0.19084 0.0
H1073 H 0.326 0.37221 0.18442 0.0
H1074 H 0.33016 0.38648 0.22726 0.0
H1075 H 0.34125 0.36845 0.22068 0.0
H1076 H 0.39267 0.33229 0.2044 0.0
H1077 H 0.38283 0.29468 0.19715 0.0
H1078 H 0.36475 0.3014 0.18578 0.0
H1079 H 0.37454 0.33897 0.19293 0.0
C1080 C 0.65234 0.32028 0.1871 0.0
C1081 C 0.65254 0.3188 0.19989 0.0
C1082 C 0.63101 0.31244 0.1997 0.0
C1083 C 0.64199 0.31489 0.20611 0.0
C1084 C 0.63083 0.31419 0.18693 0.0
C1085 C 0.64138 0.31802 0.18072 0.0
U1086 U 0.68094 0.34041 0.18111 0.0
O1087 O 0.69944 0.33503 0.17544 0.0
O1088 O 0.68853 0.34711 0.16369 0.0
C1089 C 0.69852 0.34059 0.16479 0.0
C1090 C 0.66348 0.3237 0.18016 0.0
C1091 C 0.70222 0.33342 0.15401 0.0
C1092 C 0.69801 0.3245 0.13404 0.0
C1093 C 0.69401 0.33073 0.14442 0.0
C1094 C 0.71837 0.3233 0.14282 0.0
C1095 C 0.71028 0.32079 0.13306 0.0
C1096 C 0.71439 0.32957 0.15314 0.0
C1097 C 0.68839 0.36754 0.20234 0.0
C1098 C 0.69805 0.38733 0.19831 0.0
C1099 C 0.69843 0.37879 0.21878 0.0
C1100 C 0.69195 0.36851 0.21465 0.0
C1101 C 0.70143 0.38843 0.21071 0.0
C1102 C 0.69162 0.37699 0.19416 0.0
C1103 C 0.68086 0.35691 0.19845 0.0
O1104 O 0.66303 0.33404 0.17401 0.0
O1105 O 0.67407 0.32199 0.18567 0.0
O1106 O 0.68588 0.34613 0.19983 0.0
O1107 O 0.67475 0.35805 0.18811 0.0
H1108 H 0.66086 0.32049 0.20508 0.0
H1109 H 0.64253 0.31353 0.21592 0.0
H1110 H 0.6225 0.31263 0.1817 0.0
H1111 H 0.64099 0.31913 0.17086 0.0
H1112 H 0.69154 0.32285 0.12667 0.0
H1113 H 0.68455 0.33357 0.14484 0.0
H1114 H 0.72781 0.3204 0.14251 0.0
H1115 H 0.72088 0.33152 0.16043 0.0
H1116 H 0.70008 0.3946 0.19185 0.0
H1117 H 0.70107 0.3792 0.22834 0.0
H1118 H 0.68959 0.36134 0.22112 0.0
H1119 H 0.68902 0.37651 0.1846 0.0
C1120 C 0.65483 0.31779 0.83606 0.0
C1121 C 0.6459 0.32604 0.83203 0.0
C1122 C 0.63391 0.30935 0.8231 0.0
C1123 C 0.63552 0.32186 0.82567 0.0
C1124 C 0.64302 0.30117 0.82697 0.0
C1125 C 0.65334 0.30535 0.83341 0.0
U1126 U 0.68151 0.34006 0.84184 0.0
O1127 O 0.68856 0.34772 0.85912 0.0
O1128 O 0.70046 0.33658 0.84766 0.0
C1129 C 0.69913 0.34219 0.85816 0.0
C1130 C 0.66566 0.3219 0.84315 0.0
C1131 C 0.70315 0.3354 0.86909 0.0
C1132 C 0.70347 0.31692 0.88152 0.0
C1133 C 0.69942 0.32325 0.87112 0.0
C1134 C 0.71484 0.3349 0.88804 0.0
C1135 C 0.71128 0.32266 0.8901 0.0
C1136 C 0.71082 0.34118 0.87763 0.0
C1137 C 0.68635 0.3672 0.82006 0.0
C1138 C 0.70016 0.38429 0.82417 0.0
C1139 C 0.69124 0.38181 0.80397 0.0
C1140 C 0.68506 0.37128 0.80796 0.0
C1141 C 0.69882 0.3885 0.81203 0.0
C1142 C 0.69399 0.37371 0.82814 0.0
C1143 C 0.67966 0.35614 0.82403 0.0
O1144 O 0.67626 0.32105 0.83758 0.0
O1145 O 0.66451 0.33212 0.84927 0.0
O1146 O 0.67368 0.35697 0.8344 0.0
O1147 O 0.68564 0.34586 0.82297 0.0
H1148 H 0.64685 0.33571 0.83389 0.0
H1149 H 0.62865 0.32841 0.82298 0.0
H1150 H 0.64222 0.29152 0.82497 0.0
H1151 H 0.66016 0.29884 0.83637 0.0
H1152 H 0.70064 0.30748 0.88275 0.0
H1153 H 0.69345 0.31864 0.86463 0.0
H1154 H 0.72065 0.33968 0.89454 0.0
H1155 H 0.71372 0.35059 0.87625 0.0
H1156 H 0.70581 0.38927 0.83065 0.0
H1157 H 0.69017 0.38465 0.79452 0.0
H1158 H 0.67927 0.36631 0.80158 0.0
H1159 H 0.69513 0.37066 0.83752 0.0
C1160 C 0.6505 0.68485 0.82242 0.0
C1161 C 0.65001 0.69757 0.82396 0.0
C1162 C 0.62948 0.6979 0.81499 0.0
C1163 C 0.63961 0.70403 0.82023 0.0
C1164 C 0.62996 0.68514 0.81367 0.0
C1165 C 0.64036 0.6787 0.81732 0.0
U1166 U 0.67874 0.6781 0.84258 0.0
O1167 O 0.68615 0.66046 0.84855 0.0
O1168 O 0.69731 0.67272 0.83706 0.0
C1169 C 0.69626 0.66186 0.84217 0.0
C1170 C 0.66154 0.67783 0.82565 0.0
C1171 C 0.70007 0.65138 0.83464 0.0
C1172 C 0.69597 0.63172 0.82501 0.0
C1173 C 0.69185 0.64194 0.83139 0.0
C1174 C 0.71648 0.64038 0.82472 0.0
C1175 C 0.70838 0.63074 0.82171 0.0
C1176 C 0.71237 0.65054 0.83114 0.0
C1177 C 0.68552 0.69806 0.87096 0.0
C1178 C 0.70464 0.70417 0.88094 0.0
C1179 C 0.68573 0.70394 0.89241 0.0
C1180 C 0.67936 0.69993 0.88201 0.0
C1181 C 0.69843 0.70627 0.89199 0.0
C1182 C 0.69826 0.7001 0.87054 0.0
C1183 C 0.67832 0.69455 0.85998 0.0
O1184 O 0.67213 0.68353 0.82433 0.0
O1185 O 0.6609 0.67126 0.83574 0.0
O1186 O 0.67233 0.68409 0.86065 0.0
O1187 O 0.68347 0.69648 0.84928 0.0
H1188 H 0.65769 0.70252 0.82794 0.0
H1189 H 0.63949 0.71383 0.8215 0.0
H1190 H 0.62239 0.68015 0.80955 0.0
H1191 H 0.64056 0.66891 0.81602 0.0
H1192 H 0.68949 0.62445 0.82296 0.0
H1193 H 0.6823 0.64233 0.83395 0.0
H1194 H 0.72604 0.64007 0.82214 0.0
H1195 H 0.71888 0.65771 0.83352 0.0
H1196 H 0.71439 0.70597 0.88023 0.0
H1197 H 0.68067 0.70521 0.90079 0.0
H1198 H 0.66955 0.69841 0.88258 0.0
H1199 H 0.70327 0.69873 0.86215 0.0
C1200 C 0.32003 0.6513 0.83749 0.0
C1201 C 0.31832 0.65173 0.82474 0.0
C1202 C 0.3119 0.63029 0.82465 0.0
C1203 C 0.31428 0.64134 0.81839 0.0
C1204 C 0.31384 0.62987 0.83738 0.0
C1205 C 0.31781 0.64026 0.84372 0.0
U1206 U 0.34108 0.67906 0.84393 0.0
O1207 O 0.33651 0.69758 0.84993 0.0
O1208 O 0.34801 0.68596 0.86159 0.0
C1209 C 0.34193 0.69621 0.86062 0.0
C1210 C 0.32373 0.66223 0.84458 0.0
C1211 C 0.33494 0.69986 0.87155 0.0
C1212 C 0.31599 0.70577 0.88147 0.0
C1213 C 0.32221 0.70166 0.87113 0.0
C1214 C 0.33505 0.70607 0.89289 0.0
C1215 C 0.32235 0.70813 0.89247 0.0
C1216 C 0.34126 0.70203 0.88254 0.0
C1217 C 0.36874 0.68559 0.82312 0.0
C1218 C 0.38003 0.70481 0.8212 0.0
C1219 C 0.38885 0.68612 0.81367 0.0
C1220 C 0.37844 0.6796 0.81745 0.0
C1221 C 0.38976 0.69882 0.81544 0.0
C1222 C 0.36963 0.69824 0.82506 0.0
C1223 C 0.35778 0.67845 0.82674 0.0
O1224 O 0.33403 0.66137 0.8508 0.0
O1225 O 0.32241 0.6729 0.83917 0.0
O1226 O 0.34717 0.68387 0.82536 0.0
O1227 O 0.35869 0.67234 0.83708 0.0
H1228 H 0.31997 0.66011 0.81967 0.0
H1229 H 0.31277 0.64206 0.80862 0.0
H1230 H 0.31234 0.62148 0.84249 0.0
H1231 H 0.31908 0.63969 0.85354 0.0
H1232 H 0.30624 0.70737 0.88075 0.0
H1233 H 0.31707 0.70006 0.86278 0.0
H1234 H 0.34023 0.70755 0.90124 0.0
H1235 H 0.35107 0.70069 0.88311 0.0
H1236 H 0.38051 0.71455 0.82281 0.0
H1237 H 0.3961 0.68125 0.80914 0.0
H1238 H 0.37791 0.66985 0.81586 0.0
H1239 H 0.36228 0.70305 0.8295 0.0
C1240 C 0.33632 0.36979 0.82177 0.0
C1241 C 0.32354 0.37026 0.82315 0.0
C1242 C 0.3233 0.3907 0.81411 0.0
C1243 C 0.31709 0.38061 0.81931 0.0
C1244 C 0.33612 0.39022 0.81291 0.0
C1245 C 0.34254 0.37987 0.81668 0.0
U1246 U 0.34242 0.3416 0.84209 0.0
O1247 O 0.34863 0.32332 0.83694 0.0
O1248 O 0.36001 0.33467 0.8491 0.0
C1249 C 0.35914 0.32453 0.84276 0.0
C1250 C 0.34337 0.35889 0.82532 0.0
C1251 C 0.37018 0.32104 0.83594 0.0
C1252 C 0.38217 0.32034 0.81724 0.0
C1253 C 0.37183 0.32429 0.8236 0.0
C1254 C 0.38941 0.3101 0.83555 0.0
C1255 C 0.39105 0.31309 0.82312 0.0
C1256 C 0.37909 0.31401 0.84186 0.0
C1257 C 0.32088 0.33388 0.86894 0.0
C1258 C 0.32545 0.3216 0.887 0.0
C1259 C 0.30438 0.32606 0.88177 0.0
C1260 C 0.30835 0.33269 0.87153 0.0
C1261 C 0.31288 0.32051 0.8897 0.0
C1262 C 0.32941 0.32818 0.87669 0.0
C1263 C 0.32476 0.3414 0.85835 0.0
O1264 O 0.3493 0.35957 0.83579 0.0
O1265 O 0.33796 0.34824 0.82358 0.0
O1266 O 0.32368 0.33623 0.84757 0.0
O1267 O 0.33502 0.34769 0.85966 0.0
H1268 H 0.31855 0.36262 0.82713 0.0
H1269 H 0.30724 0.38074 0.82048 0.0
H1270 H 0.34117 0.39775 0.80881 0.0
H1271 H 0.35238 0.37968 0.81551 0.0
H1272 H 0.38308 0.32275 0.80767 0.0
H1273 H 0.36506 0.32974 0.81886 0.0
H1274 H 0.39615 0.30474 0.84044 0.0
H1275 H 0.37801 0.31146 0.8514 0.0
H1276 H 0.33222 0.31731 0.89284 0.0
H1277 H 0.29465 0.32553 0.88365 0.0
H1278 H 0.30162 0.33704 0.86568 0.0
H1279 H 0.33914 0.3289 0.87484 0.0
H1280 H 0.23198 0.25438 0.99341 0.0
H1281 H 0.22302 0.24579 0.9748 0.0
H1282 H 0.2592 0.23669 0.96213 0.0
H1283 H 0.26804 0.24477 0.98105 0.0
H1284 H 0.24417 0.24439 0.01146 0.0
H1285 H 0.25314 0.27597 0.9819 0.0
H1286 H 0.26126 0.2848 0.96296 0.0
H1287 H 0.2977 0.27385 0.97359 0.0
H1288 H 0.28947 0.26475 0.99238 0.0
H1289 H 0.28971 0.26525 0.03025 0.0
H1290 H 0.29795 0.27456 0.04891 0.0
H1291 H 0.26136 0.28467 0.05943 0.0
H1292 H 0.25324 0.27566 0.0406 0.0
H1293 H 0.27784 0.27521 0.01124 0.0
H1294 H 0.26884 0.24417 0.04113 0.0
H1295 H 0.26064 0.23544 0.06008 0.0
H1296 H 0.22411 0.2455 0.0488 0.0
H1297 H 0.23242 0.25452 0.03002 0.0
C1298 C 0.25071 0.25036 0.98863 0.0
C1299 C 0.23799 0.25048 0.98666 0.0
C1300 C 0.23288 0.24567 0.97593 0.0
C1301 C 0.24038 0.2406 0.96688 0.0
C1302 C 0.25313 0.24041 0.96891 0.0
C1303 C 0.25822 0.24518 0.97969 0.0
C1304 C 0.25604 0.25546 1.00013 0.0
C1305 C 0.25142 0.25125 0.0114 0.0
C1306 C 0.26575 0.26419 1.00008 0.0
C1307 C 0.27066 0.26957 0.98853 0.0
C1308 C 0.26286 0.27537 0.98011 0.0
C1309 C 0.26754 0.28052 0.96932 0.0
C1310 C 0.28014 0.28003 0.96674 0.0
C1311 C 0.28794 0.27425 0.97521 0.0
C1312 C 0.28325 0.26912 0.98601 0.0
C1313 C 0.27084 0.26964 0.03405 0.0
C1314 C 0.28347 0.26949 0.03657 0.0
C1315 C 0.28816 0.27473 0.0473 0.0
C1316 C 0.28032 0.28035 0.0557 0.0
C1317 C 0.26768 0.28052 0.05312 0.0
C1318 C 0.263 0.27526 0.0424 0.0
C1319 C 0.26589 0.26419 0.02255 0.0
C1320 C 0.2706 0.26833 0.01129 0.0
C1321 C 0.25624 0.25542 0.02261 0.0
C1322 C 0.25127 0.25013 0.03418 0.0
C1323 C 0.25908 0.24461 0.04279 0.0
C1324 C 0.25436 0.23951 0.05358 0.0
C1325 C 0.24171 0.23976 0.05598 0.0
C1326 C 0.23391 0.24528 0.04733 0.0
C1327 C 0.23864 0.25036 0.03653 0.0
H1328 H 0.76345 0.23172 0.9928 0.0
H1329 H 0.77209 0.22339 0.97404 0.0
H1330 H 0.78551 0.25936 0.96406 0.0
H1331 H 0.77679 0.26761 0.98276 0.0
H1332 H 0.77429 0.24275 0.01194 0.0
H1333 H 0.74381 0.25384 0.98198 0.0
H1334 H 0.73582 0.26291 0.9631 0.0
H1335 H 0.74973 0.29823 0.9744 0.0
H1336 H 0.75755 0.28912 0.9933 0.0
H1337 H 0.75658 0.28908 0.02991 0.0
H1338 H 0.74845 0.29802 0.04859 0.0
H1339 H 0.73622 0.26229 0.06064 0.0
H1340 H 0.74425 0.2534 0.04188 0.0
H1341 H 0.74585 0.27773 0.01169 0.0
H1342 H 0.77694 0.26683 0.04114 0.0
H1343 H 0.78503 0.25803 0.06014 0.0
H1344 H 0.77071 0.22264 0.04964 0.0
H1345 H 0.76245 0.23153 0.03078 0.0
C1346 C 0.76934 0.25032 0.98914 0.0
C1347 C 0.76825 0.2378 0.98656 0.0
C1348 C 0.77323 0.23305 0.97584 0.0
C1349 C 0.77947 0.2407 0.9675 0.0
C1350 C 0.78058 0.25323 0.97015 0.0
C1351 C 0.77561 0.25797 0.98087 0.0
C1352 C 0.76419 0.25532 1.00063 0.0
C1353 C 0.76793 0.25028 0.01188 0.0
C1354 C 0.75611 0.26535 1.00057 0.0
C1355 C 0.75136 0.27079 0.98903 0.0
C1356 C 0.74521 0.26352 0.98034 0.0
C1357 C 0.74066 0.26872 0.96954 0.0
C1358 C 0.74212 0.28131 0.96722 0.0
C1359 C 0.74827 0.28855 0.97596 0.0
C1360 C 0.7528 0.28335 0.98676 0.0
C1361 C 0.75117 0.27053 0.03451 0.0
C1362 C 0.75212 0.28316 0.03655 0.0
C1363 C 0.74744 0.28827 0.04722 0.0
C1364 C 0.7417 0.28087 0.05611 0.0
C1365 C 0.74074 0.26822 0.05405 0.0
C1366 C 0.74535 0.26312 0.04333 0.0
C1367 C 0.756 0.26521 0.02302 0.0
C1368 C 0.7522 0.27018 0.01176 0.0
C1369 C 0.76406 0.25516 0.02306 0.0
C1370 C 0.76899 0.24986 0.03459 0.0
C1371 C 0.77547 0.2572 0.04298 0.0
C1372 C 0.78017 0.25214 0.05378 0.0
C1373 C 0.77848 0.23964 0.05641 0.0
C1374 C 0.77203 0.23232 0.04796 0.0
C1375 C 0.76738 0.23737 0.03714 0.0
H1376 H 0.7656 0.78877 0.02976 0.0
H1377 H 0.77388 0.79781 0.0485 0.0
H1378 H 0.78465 0.76206 0.06116 0.0
H1379 H 0.77647 0.75307 0.04232 0.0
H1380 H 0.77604 0.77712 0.01186 0.0
H1381 H 0.74487 0.76669 0.04142 0.0
H1382 H 0.7362 0.75782 0.06012 0.0
H1383 H 0.74848 0.72219 0.04912 0.0
H1384 H 0.75705 0.7311 0.03045 0.0
H1385 H 0.75629 0.73109 0.9934 0.0
H1386 H 0.7473 0.72252 0.97473 0.0
H1387 H 0.73653 0.75864 0.9632 0.0
H1388 H 0.74545 0.76715 0.98191 0.0
H1389 H 0.74623 0.74259 0.0118 0.0
H1390 H 0.7771 0.75297 0.98208 0.0
H1391 H 0.78537 0.76177 0.96317 0.0
H1392 H 0.774 0.79756 0.97464 0.0
H1393 H 0.76543 0.78865 0.99333 0.0
C1394 C 0.77027 0.77021 0.03464 0.0
C1395 C 0.76978 0.78287 0.03654 0.0
C1396 C 0.77455 0.78803 0.04726 0.0
C1397 C 0.77993 0.78065 0.05634 0.0
C1398 C 0.78043 0.76798 0.05443 0.0
C1399 C 0.77573 0.76282 0.04365 0.0
C1400 C 0.76531 0.76483 0.02309 0.0
C1401 C 0.7694 0.76967 0.01185 0.0
C1402 C 0.75687 0.75488 0.02306 0.0
C1403 C 0.75172 0.74959 0.03455 0.0
C1404 C 0.74579 0.75699 0.04309 0.0
C1405 C 0.74084 0.7519 0.05379 0.0
C1406 C 0.74162 0.73928 0.05614 0.0
C1407 C 0.74754 0.7319 0.04754 0.0
C1408 C 0.7525 0.737 0.03687 0.0
C1409 C 0.75169 0.74979 0.98904 0.0
C1410 C 0.75199 0.73717 0.98686 0.0
C1411 C 0.74682 0.73227 0.97619 0.0
C1412 C 0.74122 0.7399 0.96745 0.0
C1413 C 0.74094 0.75254 0.96964 0.0
C1414 C 0.74605 0.75742 0.98035 0.0
C1415 C 0.75692 0.75491 1.00058 0.0
C1416 C 0.75289 0.75003 0.01181 0.0
C1417 C 0.7654 0.76482 1.0006 0.0
C1418 C 0.77051 0.77012 0.9891 0.0
C1419 C 0.77628 0.76269 0.98047 0.0
C1420 C 0.78112 0.76776 0.96971 0.0
C1421 C 0.78033 0.78038 0.96736 0.0
C1422 C 0.77461 0.78779 0.97606 0.0
C1423 C 0.76979 0.78272 0.98681 0.0
H1424 H 0.26528 0.73225 0.99339 0.0
H1425 H 0.27414 0.72383 0.97478 0.0
H1426 H 0.28549 0.76008 0.96351 0.0
H1427 H 0.27675 0.76844 0.98218 0.0
H1428 H 0.27554 0.74383 0.01195 0.0
H1429 H 0.24439 0.75407 0.98211 0.0
H1430 H 0.23647 0.76293 0.96305 0.0
H1431 H 0.24973 0.79849 0.97428 0.0
H1432 H 0.25781 0.78955 0.99319 0.0
H1433 H 0.25626 0.78953 0.02985 0.0
H1434 H 0.24787 0.79825 0.04846 0.0
H1435 H 0.23722 0.7621 0.06084 0.0
H1436 H 0.24506 0.75352 0.04188 0.0
H1437 H 0.24601 0.77788 0.01165 0.0
H1438 H 0.27624 0.76787 0.04204 0.0
H1439 H 0.28428 0.75905 0.06105 0.0
H1440 H 0.27328 0.72309 0.04886 0.0
H1441 H 0.26506 0.73195 0.02998 0.0
C1442 C 0.2702 0.75101 0.98915 0.0
C1443 C 0.26968 0.73839 0.98692 0.0
C1444 C 0.27477 0.73358 0.97628 0.0
C1445 C 0.28049 0.74129 0.96764 0.0
C1446 C 0.28098 0.75392 0.96988 0.0
C1447 C 0.27597 0.75871 0.98056 0.0
C1448 C 0.26502 0.75603 1.00063 0.0
C1449 C 0.26893 0.75115 0.01189 0.0
C1450 C 0.25666 0.76582 1.00057 0.0
C1451 C 0.25178 0.77113 0.98903 0.0
C1452 C 0.24565 0.76376 0.98042 0.0
C1453 C 0.24106 0.76885 0.96958 0.0
C1454 C 0.24251 0.78141 0.96715 0.0
C1455 C 0.2486 0.78876 0.97581 0.0
C1456 C 0.25314 0.78368 0.98666 0.0
C1457 C 0.25143 0.77084 0.03448 0.0
C1458 C 0.25205 0.78348 0.03654 0.0
C1459 C 0.24735 0.78844 0.04727 0.0
C1460 C 0.24193 0.78088 0.05624 0.0
C1461 C 0.24123 0.76822 0.05411 0.0
C1462 C 0.24585 0.76328 0.04332 0.0
C1463 C 0.25649 0.76566 0.02302 0.0
C1464 C 0.25258 0.77053 0.01174 0.0
C1465 C 0.26488 0.75587 0.02309 0.0
C1466 C 0.26988 0.7506 0.03463 0.0
C1467 C 0.27543 0.7581 0.04351 0.0
C1468 C 0.28004 0.75306 0.05436 0.0
C1469 C 0.2794 0.74038 0.05644 0.0
C1470 C 0.27401 0.73288 0.04746 0.0
C1471 C 0.26929 0.73793 0.03668 0.0
H1472 H 0.02903 0.25662 0.23245 0.0
H1473 H 0.04762 0.24821 0.2236 0.0
H1474 H 0.0594 0.23645 0.25952 0.0
H1475 H 0.04073 0.24477 0.26832 0.0
H1476 H 0.01056 0.24619 0.24403 0.0
H1477 H 0.04095 0.27697 0.2547 0.0
H1478 H 0.05994 0.28498 0.26378 0.0
H1479 H 0.04856 0.27127 0.29915 0.0
H1480 H 0.02956 0.26345 0.29004 0.0
H1481 H 0.9928 0.26545 0.29004 0.0
H1482 H 0.9743 0.27408 0.29876 0.0
H1483 H 0.96232 0.28489 0.26257 0.0
H1484 H 0.98115 0.27677 0.25399 0.0
H1485 H 0.0113 0.27541 0.27851 0.0
H1486 H 0.98049 0.2456 0.26827 0.0
H1487 H 0.96136 0.23764 0.25947 0.0
H1488 H 0.97355 0.24856 0.22346 0.0
H1489 H 0.99258 0.25668 0.23231 0.0
C1490 C 0.0335 0.25148 0.25108 0.0
C1491 C 0.03559 0.2522 0.23842 0.0
C1492 C 0.04622 0.24736 0.23337 0.0
C1493 C 0.05501 0.24167 0.24085 0.0
C1494 C 0.0529 0.24092 0.25352 0.0
C1495 C 0.04222 0.2457 0.25857 0.0
C1496 C 0.02207 0.25654 0.25635 0.0
C1497 C 0.01072 0.25272 0.25146 0.0
C1498 C 0.02225 0.26479 0.26628 0.0
C1499 C 0.03387 0.26954 0.27168 0.0
C1500 C 0.04259 0.27563 0.2644 0.0
C1501 C 0.05346 0.28018 0.2696 0.0
C1502 C 0.05578 0.27878 0.28221 0.0
C1503 C 0.04699 0.27268 0.28946 0.0
C1504 C 0.03614 0.26816 0.28426 0.0
C1505 C 0.98835 0.27032 0.27133 0.0
C1506 C 0.98622 0.26974 0.28398 0.0
C1507 C 0.97555 0.27458 0.28895 0.0
C1508 C 0.96673 0.28013 0.28137 0.0
C1509 C 0.96893 0.28079 0.2687 0.0
C1510 C 0.97965 0.27601 0.26376 0.0
C1511 C 0.99976 0.26513 0.26614 0.0
C1512 C 0.01111 0.2689 0.27106 0.0
C1513 C 0.99957 0.2568 0.25626 0.0
C1514 C 0.98794 0.25189 0.25098 0.0
C1515 C 0.979 0.24641 0.2585 0.0
C1516 C 0.96807 0.24185 0.25346 0.0
C1517 C 0.96595 0.24248 0.24077 0.0
C1518 C 0.97497 0.24783 0.23325 0.0
C1519 C 0.98584 0.25249 0.23831 0.0
H1520 H 0.76473 0.02975 0.23252 0.0
H1521 H 0.77378 0.04873 0.22452 0.0
H1522 H 0.78571 0.05841 0.26098 0.0
H1523 H 0.7769 0.03931 0.26888 0.0
H1524 H 0.77569 0.0107 0.24396 0.0
H1525 H 0.74463 0.03993 0.25384 0.0
H1526 H 0.73632 0.05855 0.26267 0.0
H1527 H 0.74749 0.04635 0.29866 0.0
H1528 H 0.75609 0.02795 0.28973 0.0
H1529 H 0.75564 0.9915 0.28944 0.0
H1530 H 0.74692 0.97256 0.29785 0.0
H1531 H 0.73685 0.96102 0.26141 0.0
H1532 H 0.74543 0.98002 0.25305 0.0
H1533 H 0.74545 0.00964 0.27766 0.0
H1534 H 0.77695 0.98106 0.26838 0.0
H1535 H 0.78591 0.96251 0.26014 0.0
H1536 H 0.77432 0.97316 0.22379 0.0
H1537 H 0.76546 0.99175 0.2321 0.0
C1538 C 0.77005 0.03315 0.25131 0.0
C1539 C 0.7693 0.03597 0.23878 0.0
C1540 C 0.7744 0.04686 0.23424 0.0
C1541 C 0.78044 0.05509 0.24212 0.0
C1542 C 0.7812 0.05222 0.25466 0.0
C1543 C 0.77608 0.04135 0.2592 0.0
C1544 C 0.76479 0.0215 0.25609 0.0
C1545 C 0.76894 0.01046 0.2512 0.0
C1546 C 0.75622 0.02122 0.26578 0.0
C1547 C 0.75112 0.03257 0.2711 0.0
C1548 C 0.7454 0.04132 0.26362 0.0
C1549 C 0.74055 0.05191 0.2687 0.0
C1550 C 0.74126 0.05398 0.28138 0.0
C1551 C 0.74693 0.04516 0.28884 0.0
C1552 C 0.75177 0.03457 0.28376 0.0
C1553 C 0.75132 0.98716 0.27059 0.0
C1554 C 0.75154 0.9849 0.28325 0.0
C1555 C 0.74655 0.97409 0.28805 0.0
C1556 C 0.74123 0.96529 0.28029 0.0
C1557 C 0.74105 0.96754 0.26761 0.0
C1558 C 0.74596 0.9784 0.26282 0.0
C1559 C 0.75639 0.99881 0.26557 0.0
C1560 C 0.75219 0.00987 0.2704 0.0
C1561 C 0.76498 0.9991 0.2559 0.0
C1562 C 0.77041 0.98777 0.25088 0.0
C1563 C 0.77624 0.97935 0.25865 0.0
C1564 C 0.78135 0.96872 0.25392 0.0
C1565 C 0.78081 0.96629 0.24129 0.0
C1566 C 0.77503 0.97479 0.23353 0.0
C1567 C 0.76993 0.98542 0.23827 0.0
H1568 H 0.02838 0.73139 0.26646 0.0
H1569 H 0.047 0.72213 0.27463 0.0
H1570 H 0.05986 0.75759 0.28656 0.0
H1571 H 0.04104 0.76676 0.27866 0.0
H1572 H 0.01042 0.74307 0.2776 0.0
H1573 H 0.0395 0.75279 0.2463 0.0
H1574 H 0.05843 0.76089 0.23737 0.0
H1575 H 0.04912 0.79706 0.24954 0.0
H1576 H 0.03035 0.78883 0.25877 0.0
H1577 H 0.99214 0.78921 0.25861 0.0
H1578 H 0.97355 0.79772 0.24949 0.0
H1579 H 0.96232 0.76161 0.2379 0.0
H1580 H 0.98109 0.75324 0.24669 0.0
H1581 H 0.01089 0.77773 0.24818 0.0
H1582 H 0.98101 0.76736 0.27901 0.0
H1583 H 0.96197 0.75858 0.28716 0.0
H1584 H 0.97285 0.7229 0.27491 0.0
H1585 H 0.99169 0.73177 0.26652 0.0
C1586 C 0.03332 0.7498 0.27185 0.0
C1587 C 0.03519 0.73718 0.27086 0.0
C1588 C 0.0459 0.7319 0.27545 0.0
C1589 C 0.05497 0.73912 0.28121 0.0
C1590 C 0.05304 0.75176 0.28226 0.0
C1591 C 0.04233 0.75703 0.27764 0.0
C1592 C 0.02184 0.7553 0.26701 0.0
C1593 C 0.01053 0.75056 0.27106 0.0
C1594 C 0.02197 0.76526 0.25868 0.0
C1595 C 0.03355 0.77017 0.25334 0.0
C1596 C 0.04159 0.76244 0.24718 0.0
C1597 C 0.05236 0.76711 0.24196 0.0
C1598 C 0.0553 0.77963 0.24273 0.0
C1599 C 0.04722 0.78736 0.2489 0.0
C1600 C 0.03644 0.78268 0.25411 0.0
C1601 C 0.98799 0.77056 0.25346 0.0
C1602 C 0.98568 0.78313 0.2541 0.0
C1603 C 0.97499 0.78797 0.24895 0.0
C1604 C 0.96641 0.78035 0.24297 0.0
C1605 C 0.96877 0.76776 0.24233 0.0
C1606 C 0.97945 0.76294 0.24747 0.0
C1607 C 0.99947 0.76546 0.25874 0.0
C1608 C 0.01079 0.77029 0.25478 0.0
C1609 C 0.99935 0.75552 0.26709 0.0
C1610 C 0.98775 0.75025 0.27204 0.0
C1611 C 0.97924 0.75767 0.27798 0.0
C1612 C 0.96841 0.75262 0.28273 0.0
C1613 C 0.96587 0.74004 0.28167 0.0
C1614 C 0.97443 0.73264 0.27574 0.0
C1615 C 0.98526 0.73769 0.27103 0.0
H1616 H 0.23181 0.02824 0.25746 0.0
H1617 H 0.22267 0.04682 0.24918 0.0
H1618 H 0.25834 0.05918 0.23698 0.0
H1619 H 0.26744 0.04062 0.24542 0.0
H1620 H 0.24362 0.01018 0.24658 0.0
H1621 H 0.25297 0.03928 0.27774 0.0
H1622 H 0.26085 0.05824 0.28667 0.0
H1623 H 0.29734 0.0492 0.2749 0.0
H1624 H 0.28933 0.03039 0.26568 0.0
H1625 H 0.29011 0.99271 0.26503 0.0
H1626 H 0.29921 0.97416 0.27348 0.0
H1627 H 0.26348 0.96188 0.28558 0.0
H1628 H 0.2545 0.98063 0.27744 0.0
H1629 H 0.27833 0.01092 0.27604 0.0
H1630 H 0.26819 0.98106 0.24515 0.0
H1631 H 0.25951 0.96204 0.23699 0.0
H1632 H 0.22362 0.97265 0.24922 0.0
H1633 H 0.2324 0.99145 0.25766 0.0
C1634 C 0.25033 0.03305 0.25217 0.0
C1635 C 0.23766 0.03495 0.25299 0.0
C1636 C 0.23244 0.04557 0.2482 0.0
C1637 C 0.23975 0.05452 0.24238 0.0
C1638 C 0.25245 0.05258 0.24154 0.0
C1639 C 0.25767 0.04196 0.24636 0.0
C1640 C 0.25579 0.02165 0.25717 0.0
C1641 C 0.25111 0.01034 0.25314 0.0
C1642 C 0.26573 0.02186 0.26556 0.0
C1643 C 0.27053 0.03345 0.27091 0.0
C1644 C 0.26264 0.04144 0.27695 0.0
C1645 C 0.26719 0.05223 0.28217 0.0
C1646 C 0.27974 0.05525 0.28151 0.0
C1647 C 0.28761 0.04723 0.27545 0.0
C1648 C 0.28306 0.03643 0.27025 0.0
C1649 C 0.2716 0.98804 0.27047 0.0
C1650 C 0.28424 0.98604 0.26953 0.0
C1651 C 0.28941 0.97537 0.27427 0.0
C1652 C 0.28207 0.96648 0.28016 0.0
C1653 C 0.26942 0.96856 0.28119 0.0
C1654 C 0.26425 0.97923 0.27642 0.0
C1655 C 0.26617 0.99944 0.26544 0.0
C1656 C 0.27086 0.01076 0.26945 0.0
C1657 C 0.25617 0.99924 0.25711 0.0
C1658 C 0.25098 0.98764 0.25215 0.0
C1659 C 0.25847 0.97923 0.24618 0.0
C1660 C 0.25348 0.96841 0.24142 0.0
C1661 C 0.24087 0.9658 0.24247 0.0
C1662 C 0.23339 0.97428 0.2484 0.0
C1663 C 0.23838 0.98508 0.25315 0.0
H1664 H 0.02964 0.76362 0.79021 0.0
H1665 H 0.04859 0.77158 0.79929 0.0
H1666 H 0.05967 0.78565 0.76395 0.0
H1667 H 0.04074 0.77749 0.75491 0.0
H1668 H 0.01119 0.77541 0.77891 0.0
H1669 H 0.04074 0.74525 0.76841 0.0
H1670 H 0.05953 0.73719 0.75972 0.0
H1671 H 0.04752 0.74841 0.72367 0.0
H1672 H 0.02905 0.757 0.73251 0.0
H1673 H 0.99203 0.75835 0.73261 0.0
H1674 H 0.97309 0.75009 0.72368 0.0
H1675 H 0.96203 0.73678 0.75928 0.0
H1676 H 0.98113 0.74481 0.76811 0.0
H1677 H 0.01057 0.7468 0.74392 0.0
H1678 H 0.98139 0.77751 0.75447 0.0
H1679 H 0.96262 0.78571 0.76319 0.0
H1680 H 0.97387 0.77309 0.79901 0.0
H1681 H 0.99241 0.76458 0.79017 0.0
C1682 C 0.0338 0.76988 0.77187 0.0
C1683 C 0.03615 0.76843 0.78442 0.0
C1684 C 0.04697 0.77304 0.78961 0.0
C1685 C 0.05566 0.77929 0.78236 0.0
C1686 C 0.05327 0.78074 0.76977 0.0
C1687 C 0.04244 0.77611 0.76459 0.0
C1688 C 0.0222 0.76506 0.76648 0.0
C1689 C 0.01105 0.76903 0.77136 0.0
C1690 C 0.02206 0.75695 0.75642 0.0
C1691 C 0.03352 0.75193 0.75116 0.0
C1692 C 0.04223 0.74615 0.75866 0.0
C1693 C 0.05293 0.74139 0.75364 0.0
C1694 C 0.0551 0.74215 0.74097 0.0
C1695 C 0.04629 0.74783 0.73348 0.0
C1696 C 0.03564 0.75265 0.73851 0.0
C1697 C 0.98796 0.7523 0.75104 0.0
C1698 C 0.98553 0.75364 0.73848 0.0
C1699 C 0.97466 0.749 0.73341 0.0
C1700 C 0.96603 0.74282 0.74078 0.0
C1701 C 0.96852 0.74142 0.75335 0.0
C1702 C 0.97938 0.7461 0.75842 0.0
C1703 C 0.99958 0.75716 0.75634 0.0
C1704 C 0.01073 0.7532 0.75146 0.0
C1705 C 0.99973 0.76528 0.76638 0.0
C1706 C 0.98828 0.77029 0.77163 0.0
C1707 C 0.97975 0.77639 0.76418 0.0
C1708 C 0.96907 0.78119 0.7692 0.0
C1709 C 0.9667 0.78004 0.78181 0.0
C1710 C 0.9753 0.77398 0.78925 0.0
C1711 C 0.98597 0.7692 0.78422 0.0
H1712 H 0.26351 0.02993 0.73194 0.0
H1713 H 0.27222 0.04906 0.72397 0.0
H1714 H 0.2847 0.05847 0.76035 0.0
H1715 H 0.27585 0.03942 0.76825 0.0
H1716 H 0.27461 0.01088 0.74327 0.0
H1717 H 0.24356 0.04009 0.75346 0.0
H1718 H 0.23511 0.05853 0.76251 0.0
H1719 H 0.24683 0.04624 0.79829 0.0
H1720 H 0.25519 0.02781 0.78919 0.0
H1721 H 0.25457 0.99151 0.78874 0.0
H1722 H 0.24581 0.97258 0.79711 0.0
H1723 H 0.23594 0.96103 0.76062 0.0
H1724 H 0.24454 0.98004 0.7523 0.0
H1725 H 0.24446 0.00963 0.77705 0.0
H1726 H 0.276 0.98118 0.76762 0.0
H1727 H 0.28505 0.96271 0.75933 0.0
H1728 H 0.27339 0.9734 0.72301 0.0
H1729 H 0.26445 0.99193 0.73138 0.0
C1730 C 0.26892 0.03329 0.7507 0.0
C1731 C 0.26812 0.03613 0.73819 0.0
C1732 C 0.27314 0.04705 0.73365 0.0
C1733 C 0.27914 0.05533 0.74152 0.0
C1734 C 0.27995 0.05242 0.75406 0.0
C1735 C 0.27492 0.04151 0.75859 0.0
C1736 C 0.26371 0.02161 0.75547 0.0
C1737 C 0.26787 0.01059 0.75053 0.0
C1738 C 0.25519 0.02127 0.7652 0.0
C1739 C 0.25011 0.03258 0.77062 0.0
C1740 C 0.2444 0.04141 0.76324 0.0
C1741 C 0.23958 0.05197 0.76843 0.0
C1742 C 0.24027 0.05389 0.78114 0.0
C1743 C 0.24597 0.04499 0.7885 0.0
C1744 C 0.2508 0.03446 0.7833 0.0
C1745 C 0.25034 0.98718 0.76987 0.0
C1746 C 0.25051 0.98492 0.78254 0.0
C1747 C 0.24549 0.9741 0.78731 0.0
C1748 C 0.24021 0.96531 0.77952 0.0
C1749 C 0.2401 0.96755 0.76684 0.0
C1750 C 0.24503 0.97842 0.76207 0.0
C1751 C 0.25539 0.99886 0.76489 0.0
C1752 C 0.25118 0.0099 0.76977 0.0
C1753 C 0.26396 0.99921 0.7552 0.0
C1754 C 0.26942 0.98791 0.75015 0.0
C1755 C 0.2753 0.9795 0.75789 0.0
C1756 C 0.28045 0.96892 0.75312 0.0
C1757 C 0.27992 0.96652 0.74049 0.0
C1758 C 0.2741 0.97501 0.73276 0.0
C1759 C 0.26894 0.9856 0.73753 0.0
H1760 H 0.99223 0.26557 0.73403 0.0
H1761 H 0.97361 0.27422 0.72528 0.0
H1762 H 0.96168 0.28414 0.76149 0.0
H1763 H 0.98061 0.27594 0.77012 0.0
H1764 H 0.01067 0.27547 0.74572 0.0
H1765 H 0.98047 0.24504 0.75527 0.0
H1766 H 0.96165 0.2361 0.76364 0.0
H1767 H 0.97342 0.2461 0.80005 0.0
H1768 H 0.99219 0.25517 0.79162 0.0
H1769 H 0.02987 0.25581 0.79123 0.0
H1770 H 0.04864 0.2468 0.79941 0.0
H1771 H 0.05815 0.2348 0.76313 0.0
H1772 H 0.03944 0.2439 0.75502 0.0
H1773 H 0.01049 0.24538 0.77981 0.0
H1774 H 0.04092 0.27618 0.76936 0.0
H1775 H 0.05992 0.28406 0.76026 0.0
H1776 H 0.04746 0.27204 0.72469 0.0
H1777 H 0.02863 0.26396 0.73386 0.0
C1778 C 0.98782 0.26998 0.75276 0.0
C1779 C 0.98564 0.26966 0.74009 0.0
C1780 C 0.97491 0.27451 0.73511 0.0
C1781 C 0.96607 0.27983 0.74267 0.0
C1782 C 0.96831 0.28022 0.75536 0.0
C1783 C 0.97909 0.2754 0.76034 0.0
C1784 C 0.99932 0.26482 0.75796 0.0
C1785 C 0.0106 0.26878 0.75309 0.0
C1786 C 0.99928 0.25624 0.76774 0.0
C1787 C 0.98771 0.25094 0.77279 0.0
C1788 C 0.97894 0.24548 0.76504 0.0
C1789 C 0.96817 0.24036 0.76984 0.0
C1790 C 0.96602 0.24042 0.78251 0.0
C1791 C 0.97485 0.24581 0.79026 0.0
C1792 C 0.98557 0.25102 0.78545 0.0
C1793 C 0.03329 0.25067 0.77248 0.0
C1794 C 0.03601 0.25124 0.78504 0.0
C1795 C 0.04673 0.24604 0.78971 0.0
C1796 C 0.05495 0.24009 0.78193 0.0
C1797 C 0.05216 0.2395 0.76936 0.0
C1798 C 0.04144 0.24469 0.7647 0.0
C1799 C 0.02178 0.25606 0.76757 0.0
C1800 C 0.01052 0.25212 0.77249 0.0
C1801 C 0.02182 0.26456 0.75776 0.0
C1802 C 0.03338 0.26938 0.75231 0.0
C1803 C 0.04233 0.27516 0.75962 0.0
C1804 C 0.05314 0.27975 0.75439 0.0
C1805 C 0.05522 0.27865 0.74175 0.0
C1806 C 0.04622 0.27289 0.73447 0.0
C1807 C 0.0354 0.26835 0.73969 0.0
H1808 H 0.73166 0.0281 0.75689 0.0
H1809 H 0.72261 0.04668 0.74857 0.0
H1810 H 0.75871 0.06027 0.73915 0.0
H1811 H 0.76764 0.0414 0.74696 0.0
H1812 H 0.7438 0.01055 0.74667 0.0
H1813 H 0.75288 0.03942 0.77847 0.0
H1814 H 0.76095 0.05815 0.78771 0.0
H1815 H 0.79731 0.04904 0.77559 0.0
H1816 H 0.78919 0.03025 0.76648 0.0
H1817 H 0.78988 0.99305 0.76651 0.0
H1818 H 0.7988 0.97437 0.77484 0.0
H1819 H 0.76276 0.96155 0.78531 0.0
H1820 H 0.75388 0.98032 0.77709 0.0
H1821 H 0.77785 0.01088 0.77688 0.0
H1822 H 0.76822 0.98091 0.74605 0.0
H1823 H 0.75952 0.96195 0.73776 0.0
H1824 H 0.7234 0.97326 0.74853 0.0
H1825 H 0.73213 0.99211 0.75691 0.0
C1826 C 0.75036 0.03336 0.7527 0.0
C1827 C 0.73763 0.03506 0.75299 0.0
C1828 C 0.73247 0.04576 0.74832 0.0
C1829 C 0.73992 0.05506 0.74324 0.0
C1830 C 0.75267 0.05329 0.74289 0.0
C1831 C 0.75782 0.04255 0.7475 0.0
C1832 C 0.75576 0.02188 0.75763 0.0
C1833 C 0.75114 0.01061 0.7534 0.0
C1834 C 0.76554 0.02196 0.76622 0.0
C1835 C 0.7704 0.03346 0.77168 0.0
C1836 C 0.76257 0.04151 0.77771 0.0
C1837 C 0.7672 0.05224 0.78297 0.0
C1838 C 0.77979 0.05514 0.78238 0.0
C1839 C 0.78761 0.04703 0.77636 0.0
C1840 C 0.78297 0.0363 0.7711 0.0
C1841 C 0.77118 0.98808 0.77102 0.0
C1842 C 0.78389 0.98625 0.77064 0.0
C1843 C 0.78899 0.97557 0.77543 0.0
C1844 C 0.78149 0.96645 0.78072 0.0
C1845 C 0.76877 0.96831 0.78114 0.0
C1846 C 0.76368 0.97904 0.77643 0.0
C1847 C 0.76586 0.99953 0.76595 0.0
C1848 C 0.77052 0.0108 0.77014 0.0
C1849 C 0.75605 0.99944 0.75739 0.0
C1850 C 0.75085 0.98791 0.75224 0.0
C1851 C 0.75844 0.97926 0.74674 0.0
C1852 C 0.75346 0.96843 0.74199 0.0
C1853 C 0.74077 0.9661 0.74249 0.0
C1854 C 0.73319 0.97483 0.74787 0.0
C1855 C 0.73818 0.98561 0.75269 0.0
H1856 H 0.28953 0.76503 0.4921 0.0
H1857 H 0.29784 0.77407 0.47333 0.0
H1858 H 0.26139 0.78473 0.46237 0.0
H1859 H 0.2532 0.77598 0.48132 0.0
H1860 H 0.27782 0.7755 0.5108 0.0
H1861 H 0.26806 0.74432 0.48114 0.0
H1862 H 0.25926 0.7359 0.4623 0.0
H1863 H 0.22321 0.74656 0.474 0.0
H1864 H 0.2321 0.75528 0.49263 0.0
H1865 H 0.2322 0.75462 0.52921 0.0
H1866 H 0.22367 0.74578 0.54796 0.0
H1867 H 0.26009 0.73621 0.55999 0.0
H1868 H 0.26857 0.745 0.54119 0.0
H1869 H 0.24409 0.74475 0.51107 0.0
H1870 H 0.25322 0.77571 0.54052 0.0
H1871 H 0.2615 0.78484 0.55923 0.0
H1872 H 0.29806 0.77528 0.54817 0.0
H1873 H 0.28973 0.76607 0.52951 0.0
C1874 C 0.27072 0.76971 0.4881 0.0
C1875 C 0.28334 0.76932 0.48566 0.0
C1876 C 0.28806 0.77441 0.47487 0.0
C1877 C 0.28029 0.78011 0.46631 0.0
C1878 C 0.26766 0.78052 0.4688 0.0
C1879 C 0.26294 0.77541 0.47959 0.0
C1880 C 0.26577 0.76443 0.49967 0.0
C1881 C 0.27057 0.76864 0.51088 0.0
C1882 C 0.25605 0.75573 0.49975 0.0
C1883 C 0.25077 0.75056 0.48827 0.0
C1884 C 0.25828 0.74496 0.47959 0.0
C1885 C 0.25321 0.74004 0.46887 0.0
C1886 C 0.24052 0.74058 0.46661 0.0
C1887 C 0.23303 0.74614 0.47535 0.0
C1888 C 0.2381 0.75104 0.48606 0.0
C1889 C 0.25105 0.7506 0.53379 0.0
C1890 C 0.23836 0.75061 0.53587 0.0
C1891 C 0.23349 0.74552 0.54659 0.0
C1892 C 0.2412 0.7403 0.5555 0.0
C1893 C 0.25391 0.74032 0.55341 0.0
C1894 C 0.25877 0.74535 0.54265 0.0
C1895 C 0.25614 0.75582 0.52223 0.0
C1896 C 0.25136 0.7516 0.51102 0.0
C1897 C 0.26582 0.76457 0.52216 0.0
C1898 C 0.27082 0.77005 0.53363 0.0
C1899 C 0.26301 0.77543 0.54218 0.0
C1900 C 0.26775 0.78066 0.55289 0.0
C1901 C 0.28045 0.78077 0.55522 0.0
C1902 C 0.28826 0.77546 0.54661 0.0
C1903 C 0.2835 0.77016 0.53594 0.0
H1904 H 0.76582 0.73178 0.49411 0.0
H1905 H 0.7749 0.72357 0.47551 0.0
H1906 H 0.78539 0.76007 0.46423 0.0
H1907 H 0.77643 0.76822 0.48289 0.0
H1908 H 0.7755 0.74362 0.51274 0.0
H1909 H 0.74542 0.75285 0.48196 0.0
H1910 H 0.73751 0.76146 0.46281 0.0
H1911 H 0.74756 0.79765 0.47509 0.0
H1912 H 0.7556 0.78901 0.49413 0.0
H1913 H 0.75544 0.78893 0.5302 0.0
H1914 H 0.74704 0.7977 0.54883 0.0
H1915 H 0.73606 0.76167 0.56114 0.0
H1916 H 0.74435 0.75293 0.54239 0.0
H1917 H 0.74515 0.77693 0.51204 0.0
H1918 H 0.77535 0.76753 0.54287 0.0
H1919 H 0.78298 0.75884 0.56204 0.0
H1920 H 0.77309 0.72269 0.54939 0.0
H1921 H 0.76487 0.73151 0.53056 0.0
C1922 C 0.7703 0.75064 0.48987 0.0
C1923 C 0.7701 0.73802 0.48765 0.0
C1924 C 0.77531 0.73333 0.47702 0.0
C1925 C 0.78082 0.74117 0.46836 0.0
C1926 C 0.78104 0.75381 0.47062 0.0
C1927 C 0.77591 0.75848 0.48129 0.0
C1928 C 0.76483 0.75555 0.50126 0.0
C1929 C 0.76873 0.75079 0.51258 0.0
C1930 C 0.75619 0.7651 0.50107 0.0
C1931 C 0.75125 0.77026 0.48945 0.0
C1932 C 0.74604 0.76263 0.48048 0.0
C1933 C 0.74151 0.76755 0.46954 0.0
C1934 C 0.74192 0.78023 0.46744 0.0
C1935 C 0.74699 0.78786 0.47649 0.0
C1936 C 0.75161 0.78293 0.48738 0.0
C1937 C 0.75067 0.77024 0.53492 0.0
C1938 C 0.75117 0.78291 0.53687 0.0
C1939 C 0.74634 0.78792 0.54752 0.0
C1940 C 0.74089 0.78038 0.55647 0.0
C1941 C 0.74033 0.7677 0.55449 0.0
C1942 C 0.74508 0.7627 0.54378 0.0
C1943 C 0.75585 0.76504 0.52353 0.0
C1944 C 0.7519 0.76975 0.5122 0.0
C1945 C 0.76443 0.75542 0.52372 0.0
C1946 C 0.76934 0.7502 0.53532 0.0
C1947 C 0.77467 0.75775 0.5443 0.0
C1948 C 0.77918 0.75274 0.55521 0.0
C1949 C 0.77862 0.74005 0.55732 0.0
C1950 C 0.77346 0.73252 0.54821 0.0
C1951 C 0.76887 0.73754 0.53736 0.0
H1952 H 0.76606 0.28892 0.52907 0.0
H1953 H 0.77448 0.29783 0.54777 0.0
H1954 H 0.78432 0.26184 0.56062 0.0
H1955 H 0.77639 0.25305 0.54161 0.0
H1956 H 0.77634 0.27708 0.51118 0.0
H1957 H 0.74532 0.26728 0.54098 0.0
H1958 H 0.73672 0.25856 0.55978 0.0
H1959 H 0.7475 0.2226 0.5483 0.0
H1960 H 0.75614 0.23136 0.52957 0.0
H1961 H 0.75565 0.23146 0.49281 0.0
H1962 H 0.74641 0.22296 0.47427 0.0
H1963 H 0.73674 0.25931 0.46235 0.0
H1964 H 0.74549 0.26767 0.48118 0.0
H1965 H 0.74583 0.24317 0.51113 0.0
H1966 H 0.77632 0.25304 0.48095 0.0
H1967 H 0.78434 0.2618 0.46195 0.0
H1968 H 0.77484 0.29785 0.47435 0.0
H1969 H 0.76632 0.28898 0.49304 0.0
C1970 C 0.77045 0.27029 0.53394 0.0
C1971 C 0.77008 0.28294 0.53589 0.0
C1972 C 0.77481 0.28802 0.54666 0.0
C1973 C 0.78002 0.28056 0.55579 0.0
C1974 C 0.78047 0.26789 0.55378 0.0
C1975 C 0.77581 0.26282 0.54295 0.0
C1976 C 0.76539 0.265 0.52241 0.0
C1977 C 0.76955 0.26976 0.51116 0.0
C1978 C 0.75675 0.25522 0.52239 0.0
C1979 C 0.75152 0.25001 0.53389 0.0
C1980 C 0.74595 0.25753 0.54256 0.0
C1981 C 0.74103 0.25253 0.55331 0.0
C1982 C 0.74142 0.23987 0.55555 0.0
C1983 C 0.74691 0.23236 0.5468 0.0
C1984 C 0.75188 0.23736 0.53609 0.0
C1985 C 0.7514 0.25023 0.48838 0.0
C1986 C 0.75152 0.2376 0.48622 0.0
C1987 C 0.74632 0.23276 0.47554 0.0
C1988 C 0.74085 0.24044 0.46675 0.0
C1989 C 0.74075 0.25309 0.46895 0.0
C1990 C 0.74589 0.25792 0.47967 0.0
C1991 C 0.75674 0.25528 0.4999 0.0
C1992 C 0.75264 0.25047 0.51114 0.0
C1993 C 0.76542 0.26503 0.49991 0.0
C1994 C 0.77054 0.27031 0.48839 0.0
C1995 C 0.77583 0.26282 0.47951 0.0
C1996 C 0.78055 0.26787 0.46869 0.0
C1997 C 0.78022 0.28055 0.46655 0.0
C1998 C 0.77507 0.28804 0.47555 0.0
C1999 C 0.7703 0.28298 0.48633 0.0
H2000 H 0.26413 0.23206 0.49384 0.0
H2001 H 0.27299 0.22363 0.47523 0.0
H2002 H 0.28478 0.25983 0.4642 0.0
H2003 H 0.27604 0.26819 0.48286 0.0
H2004 H 0.27425 0.24345 0.51257 0.0
H2005 H 0.24371 0.25411 0.48239 0.0
H2006 H 0.23565 0.26314 0.46351 0.0
H2007 H 0.24915 0.29858 0.4749 0.0
H2008 H 0.25704 0.28952 0.49379 0.0
H2009 H 0.25645 0.28929 0.53072 0.0
H2010 H 0.24819 0.29815 0.54935 0.0
H2011 H 0.23453 0.26259 0.56044 0.0
H2012 H 0.24295 0.25376 0.54181 0.0
H2013 H 0.24529 0.27798 0.51207 0.0
H2014 H 0.27495 0.26753 0.54268 0.0
H2015 H 0.28253 0.25874 0.56181 0.0
H2016 H 0.27176 0.22276 0.54934 0.0
H2017 H 0.26358 0.23171 0.53054 0.0
C2018 C 0.26927 0.25079 0.48972 0.0
C2019 C 0.26864 0.23818 0.48742 0.0
C2020 C 0.27372 0.23337 0.47679 0.0
C2021 C 0.27955 0.24107 0.4682 0.0
C2022 C 0.28018 0.25368 0.47052 0.0
C2023 C 0.27517 0.25847 0.48119 0.0
C2024 C 0.26403 0.25583 0.50116 0.0
C2025 C 0.26776 0.25087 0.51246 0.0
C2026 C 0.25581 0.26574 0.50104 0.0
C2027 C 0.25105 0.27113 0.48948 0.0
C2028 C 0.245 0.26381 0.48077 0.0
C2029 C 0.24041 0.26898 0.46997 0.0
C2030 C 0.24174 0.28159 0.46768 0.0
C2031 C 0.2478 0.28887 0.47644 0.0
C2032 C 0.25236 0.2837 0.48723 0.0
C2033 C 0.25042 0.27084 0.53489 0.0
C2034 C 0.25165 0.2834 0.53715 0.0
C2035 C 0.24688 0.28846 0.54779 0.0
C2036 C 0.24066 0.28109 0.5564 0.0
C2037 C 0.23941 0.2685 0.5541 0.0
C2038 C 0.2442 0.26344 0.54343 0.0
C2039 C 0.25547 0.26557 0.52348 0.0
C2040 C 0.25173 0.27051 0.51219 0.0
C2041 C 0.26368 0.25564 0.52363 0.0
C2042 C 0.26849 0.25032 0.53523 0.0
C2043 C 0.27405 0.25777 0.54415 0.0
C2044 C 0.27853 0.2527 0.55503 0.0
C2045 C 0.27774 0.24002 0.55717 0.0
C2046 C 0.27233 0.23257 0.54813 0.0
C2047 C 0.26775 0.23767 0.5373 0.0
H2048 H 0.75483 0.52787 0.79041 0.0
H2049 H 0.74634 0.54637 0.79926 0.0
H2050 H 0.73626 0.55902 0.76313 0.0
H2051 H 0.74464 0.54042 0.75432 0.0
H2052 H 0.74488 0.50979 0.77818 0.0
H2053 H 0.77627 0.53961 0.76959 0.0
H2054 H 0.78506 0.55871 0.76174 0.0
H2055 H 0.77312 0.54911 0.72525 0.0
H2056 H 0.76445 0.52994 0.73316 0.0
H2057 H 0.76511 0.49213 0.7326 0.0
H2058 H 0.77419 0.47366 0.72422 0.0
H2059 H 0.78492 0.46246 0.76066 0.0
H2060 H 0.77619 0.4811 0.76892 0.0
H2061 H 0.77526 0.51095 0.74461 0.0
H2062 H 0.74404 0.48086 0.75352 0.0
H2063 H 0.73524 0.4619 0.76171 0.0
H2064 H 0.74735 0.47207 0.79799 0.0
H2065 H 0.75597 0.4911 0.78975 0.0
C2066 C 0.75052 0.53277 0.77167 0.0
C2067 C 0.75074 0.53459 0.78438 0.0
C2068 C 0.74586 0.54517 0.78944 0.0
C2069 C 0.74063 0.55419 0.7819 0.0
C2070 C 0.74037 0.55233 0.76917 0.0
C2071 C 0.74518 0.5417 0.76413 0.0
C2072 C 0.75569 0.52143 0.76638 0.0
C2073 C 0.75165 0.51006 0.77095 0.0
C2074 C 0.76432 0.52173 0.75673 0.0
C2075 C 0.7696 0.53339 0.75198 0.0
C2076 C 0.77546 0.54166 0.75991 0.0
C2077 C 0.78045 0.5526 0.75541 0.0
C2078 C 0.77976 0.55548 0.74286 0.0
C2079 C 0.77394 0.54713 0.73493 0.0
C2080 C 0.76894 0.53618 0.73944 0.0
C2081 C 0.76985 0.48798 0.75141 0.0
C2082 C 0.76945 0.48571 0.73878 0.0
C2083 C 0.77456 0.47509 0.73401 0.0
C2084 C 0.78027 0.46654 0.74176 0.0
C2085 C 0.7807 0.46888 0.75441 0.0
C2086 C 0.77559 0.47949 0.75916 0.0
C2087 C 0.76447 0.49933 0.75645 0.0
C2088 C 0.76848 0.51069 0.75182 0.0
C2089 C 0.75586 0.49903 0.7661 0.0
C2090 C 0.75074 0.48737 0.77101 0.0
C2091 C 0.74488 0.47895 0.76322 0.0
C2092 C 0.73989 0.46809 0.76792 0.0
C2093 C 0.7406 0.46543 0.78052 0.0
C2094 C 0.74649 0.47389 0.78828 0.0
C2095 C 0.75146 0.48476 0.78358 0.0
H2096 H 0.28917 0.52925 0.76646 0.0
H2097 H 0.29738 0.54799 0.77563 0.0
H2098 H 0.26084 0.55812 0.78622 0.0
H2099 H 0.25269 0.53932 0.77718 0.0
H2100 H 0.27785 0.51029 0.77613 0.0
H2101 H 0.26725 0.54019 0.74556 0.0
H2102 H 0.25829 0.55895 0.73737 0.0
H2103 H 0.22243 0.5464 0.7488 0.0
H2104 H 0.23148 0.52785 0.75727 0.0
H2105 H 0.23192 0.4911 0.75774 0.0
H2106 H 0.22304 0.4723 0.74943 0.0
H2107 H 0.25875 0.46179 0.73658 0.0
H2108 H 0.26759 0.4806 0.74502 0.0
H2109 H 0.24325 0.50983 0.74655 0.0
H2110 H 0.25398 0.48006 0.77735 0.0
H2111 H 0.26295 0.46129 0.78545 0.0
H2112 H 0.29868 0.47358 0.77339 0.0
H2113 H 0.2896 0.49215 0.76499 0.0
C2114 C 0.27028 0.5329 0.77097 0.0
C2115 C 0.28292 0.53549 0.77076 0.0
C2116 C 0.28761 0.5462 0.77603 0.0
C2117 C 0.27975 0.55457 0.78162 0.0
C2118 C 0.26711 0.55197 0.78181 0.0
C2119 C 0.26244 0.54122 0.77663 0.0
C2120 C 0.26537 0.52135 0.76562 0.0
C2121 C 0.27041 0.5102 0.76951 0.0
C2122 C 0.25546 0.52121 0.75718 0.0
C2123 C 0.25007 0.53264 0.75216 0.0
C2124 C 0.25747 0.54153 0.74641 0.0
C2125 C 0.25232 0.55221 0.74162 0.0
C2126 C 0.23964 0.55421 0.74244 0.0
C2127 C 0.23225 0.54525 0.74815 0.0
C2128 C 0.2374 0.53458 0.75292 0.0
C2129 C 0.25044 0.48724 0.7521 0.0
C2130 C 0.23784 0.48476 0.75312 0.0
C2131 C 0.23276 0.47402 0.74831 0.0
C2132 C 0.24017 0.46553 0.7423 0.0
C2133 C 0.2528 0.46804 0.74129 0.0
C2134 C 0.25787 0.4788 0.7461 0.0
C2135 C 0.2557 0.49879 0.7571 0.0
C2136 C 0.25072 0.50993 0.75313 0.0
C2137 C 0.26568 0.49892 0.76544 0.0
C2138 C 0.27108 0.48748 0.77042 0.0
C2139 C 0.26372 0.47866 0.77633 0.0
C2140 C 0.26889 0.46797 0.78107 0.0
C2141 C 0.28154 0.46589 0.78005 0.0
C2142 C 0.28889 0.47479 0.77419 0.0
C2143 C 0.28372 0.48546 0.76946 0.0
H2144 H 0.26325 0.52925 0.23249 0.0
H2145 H 0.27221 0.5483 0.22453 0.0
H2146 H 0.28449 0.5577 0.26095 0.0
H2147 H 0.27578 0.53854 0.26879 0.0
H2148 H 0.27433 0.51011 0.24365 0.0
H2149 H 0.24334 0.53916 0.25403 0.0
H2150 H 0.23485 0.55761 0.26301 0.0
H2151 H 0.24683 0.54558 0.2988 0.0
H2152 H 0.2552 0.52713 0.28977 0.0
H2153 H 0.25576 0.49006 0.28908 0.0
H2154 H 0.24731 0.47095 0.29734 0.0
H2155 H 0.23485 0.46086 0.26115 0.0
H2156 H 0.24345 0.4799 0.25295 0.0
H2157 H 0.24455 0.50877 0.27777 0.0
H2158 H 0.27597 0.48041 0.26793 0.0
H2159 H 0.28496 0.46196 0.25955 0.0
H2160 H 0.27284 0.47259 0.22336 0.0
H2161 H 0.26396 0.49112 0.23182 0.0
C2162 C 0.26876 0.53251 0.25124 0.0
C2163 C 0.26788 0.53542 0.23875 0.0
C2164 C 0.27292 0.54634 0.23423 0.0
C2165 C 0.27905 0.55452 0.24212 0.0
C2166 C 0.27993 0.55156 0.25463 0.0
C2167 C 0.27486 0.54066 0.25914 0.0
C2168 C 0.26355 0.52082 0.25599 0.0
C2169 C 0.26766 0.50981 0.25098 0.0
C2170 C 0.25511 0.52046 0.26579 0.0
C2171 C 0.25001 0.53177 0.2712 0.0
C2172 C 0.24422 0.54054 0.2638 0.0
C2173 C 0.23938 0.5511 0.26895 0.0
C2174 C 0.24014 0.55311 0.28165 0.0
C2175 C 0.24591 0.54427 0.28903 0.0
C2176 C 0.25075 0.53372 0.28387 0.0
C2177 C 0.25033 0.48638 0.27038 0.0
C2178 C 0.25121 0.48372 0.28293 0.0
C2179 C 0.24634 0.47281 0.28765 0.0
C2180 C 0.2404 0.46435 0.27991 0.0
C2181 C 0.23954 0.46706 0.26733 0.0
C2182 C 0.24443 0.47796 0.26263 0.0
C2183 C 0.25534 0.49807 0.26545 0.0
C2184 C 0.25118 0.50908 0.27041 0.0
C2185 C 0.26379 0.49843 0.25565 0.0
C2186 C 0.26916 0.48712 0.25054 0.0
C2187 C 0.27514 0.47872 0.25821 0.0
C2188 C 0.28026 0.46814 0.25339 0.0
C2189 C 0.27959 0.46573 0.24077 0.0
C2190 C 0.27365 0.4742 0.2331 0.0
C2191 C 0.26853 0.48479 0.23793 0.0
H2192 H 0.73152 0.52874 0.25753 0.0
H2193 H 0.72229 0.5473 0.24933 0.0
H2194 H 0.7579 0.55994 0.23724 0.0
H2195 H 0.76709 0.54137 0.24557 0.0
H2196 H 0.74348 0.51081 0.24656 0.0
H2197 H 0.7528 0.54008 0.27783 0.0
H2198 H 0.76087 0.55892 0.28684 0.0
H2199 H 0.79718 0.54981 0.27455 0.0
H2200 H 0.78904 0.53092 0.26565 0.0
H2201 H 0.78978 0.49344 0.26582 0.0
H2202 H 0.79874 0.47485 0.27429 0.0
H2203 H 0.76287 0.46265 0.28604 0.0
H2204 H 0.75396 0.48126 0.27751 0.0
H2205 H 0.7779 0.51162 0.27635 0.0
H2206 H 0.76821 0.4813 0.24611 0.0
H2207 H 0.75965 0.46226 0.23791 0.0
H2208 H 0.72342 0.47345 0.24845 0.0
H2209 H 0.73203 0.49238 0.25679 0.0
C2210 C 0.75002 0.53368 0.25227 0.0
C2211 C 0.73734 0.5355 0.25309 0.0
C2212 C 0.73207 0.54611 0.24835 0.0
C2213 C 0.73934 0.55514 0.2426 0.0
C2214 C 0.75205 0.55328 0.24176 0.0
C2215 C 0.75732 0.54265 0.24651 0.0
C2216 C 0.75554 0.52229 0.25725 0.0
C2217 C 0.75091 0.51097 0.2532 0.0
C2218 C 0.76543 0.52252 0.2657 0.0
C2219 C 0.77029 0.53412 0.27095 0.0
C2220 C 0.76248 0.5422 0.27696 0.0
C2221 C 0.76711 0.55299 0.28209 0.0
C2222 C 0.77968 0.55592 0.2814 0.0
C2223 C 0.78748 0.54779 0.27538 0.0
C2224 C 0.78284 0.537 0.27025 0.0
C2225 C 0.77117 0.48873 0.2709 0.0
C2226 C 0.78384 0.48678 0.27025 0.0
C2227 C 0.78896 0.47615 0.27514 0.0
C2228 C 0.78153 0.46723 0.28085 0.0
C2229 C 0.76884 0.46923 0.28155 0.0
C2230 C 0.76373 0.47989 0.27668 0.0
C2231 C 0.76581 0.5001 0.26571 0.0
C2232 C 0.77049 0.51143 0.2697 0.0
C2233 C 0.75592 0.49987 0.25724 0.0
C2234 C 0.7508 0.48825 0.25222 0.0
C2235 C 0.75844 0.4796 0.24679 0.0
C2236 C 0.75354 0.46872 0.24209 0.0
C2237 C 0.74085 0.46634 0.24253 0.0
C2238 C 0.73321 0.47507 0.24785 0.0
C2239 C 0.73813 0.48589 0.25264 0.0
H2240 H 0.52903 0.25603 0.73331 0.0
H2241 H 0.54751 0.24734 0.72456 0.0
H2242 H 0.55886 0.23528 0.76054 0.0
H2243 H 0.54032 0.24402 0.76924 0.0
H2244 H 0.51032 0.24576 0.74501 0.0
H2245 H 0.54171 0.27521 0.7549 0.0
H2246 H 0.56091 0.28297 0.76377 0.0
H2247 H 0.54816 0.27292 0.79982 0.0
H2248 H 0.5291 0.26494 0.79092 0.0
H2249 H 0.49273 0.26527 0.79067 0.0
H2250 H 0.47422 0.27394 0.79939 0.0
H2251 H 0.46292 0.28601 0.7634 0.0
H2252 H 0.48146 0.27727 0.75472 0.0
H2253 H 0.51145 0.27555 0.77898 0.0
H2254 H 0.48021 0.24595 0.76916 0.0
H2255 H 0.46104 0.23803 0.76037 0.0
H2256 H 0.47351 0.24831 0.72428 0.0
H2257 H 0.49255 0.25641 0.73311 0.0
C2258 C 0.5333 0.2508 0.75196 0.0
C2259 C 0.53547 0.25148 0.73932 0.0
C2260 C 0.54604 0.24647 0.73432 0.0
C2261 C 0.55469 0.2406 0.74184 0.0
C2262 C 0.55248 0.23988 0.7545 0.0
C2263 C 0.54187 0.24487 0.75949 0.0
C2264 C 0.52198 0.25613 0.75715 0.0
C2265 C 0.51057 0.2524 0.75233 0.0
C2266 C 0.52229 0.26458 0.76693 0.0
C2267 C 0.534 0.26933 0.77222 0.0
C2268 C 0.5431 0.27452 0.7647 0.0
C2269 C 0.55406 0.27898 0.76977 0.0
C2270 C 0.55603 0.27855 0.78249 0.0
C2271 C 0.54685 0.27348 0.79 0.0
C2272 C 0.53597 0.2689 0.78492 0.0
C2273 C 0.48847 0.27051 0.77202 0.0
C2274 C 0.48629 0.26982 0.78465 0.0
C2275 C 0.47571 0.27482 0.78963 0.0
C2276 C 0.46706 0.28069 0.7821 0.0
C2277 C 0.46929 0.28141 0.76944 0.0
C2278 C 0.4799 0.27643 0.76447 0.0
C2279 C 0.4998 0.26518 0.76683 0.0
C2280 C 0.5112 0.26891 0.77165 0.0
C2281 C 0.49949 0.25672 0.75706 0.0
C2282 C 0.48779 0.25193 0.75182 0.0
C2283 C 0.47876 0.24665 0.75937 0.0
C2284 C 0.46782 0.24211 0.75434 0.0
C2285 C 0.46578 0.24255 0.74164 0.0
C2286 C 0.47487 0.24772 0.73409 0.0
C2287 C 0.48575 0.25237 0.73913 0.0
H2288 H 0.52789 0.73247 0.76629 0.0
H2289 H 0.54648 0.72325 0.77456 0.0
H2290 H 0.55921 0.75875 0.78654 0.0
H2291 H 0.54041 0.76787 0.77854 0.0
H2292 H 0.50986 0.7441 0.77734 0.0
H2293 H 0.539 0.75392 0.74612 0.0
H2294 H 0.55787 0.76207 0.73715 0.0
H2295 H 0.54874 0.79812 0.74982 0.0
H2296 H 0.52979 0.7899 0.75868 0.0
H2297 H 0.49144 0.79017 0.75839 0.0
H2298 H 0.47281 0.79858 0.74924 0.0
H2299 H 0.46193 0.76245 0.73739 0.0
H2300 H 0.48072 0.75418 0.74623 0.0
H2301 H 0.51036 0.77878 0.74794 0.0
H2302 H 0.48043 0.76832 0.7787 0.0
H2303 H 0.46139 0.75949 0.78681 0.0
H2304 H 0.47231 0.72387 0.77445 0.0
H2305 H 0.49117 0.73278 0.76612 0.0
C2306 C 0.53276 0.75089 0.77169 0.0
C2307 C 0.53467 0.73827 0.77072 0.0
C2308 C 0.54536 0.73302 0.77537 0.0
C2309 C 0.55438 0.74026 0.78118 0.0
C2310 C 0.55242 0.7529 0.78221 0.0
C2311 C 0.54172 0.75814 0.77753 0.0
C2312 C 0.52129 0.75637 0.76681 0.0
C2313 C 0.50997 0.7516 0.7708 0.0
C2314 C 0.52143 0.76633 0.75848 0.0
C2315 C 0.53302 0.77127 0.7532 0.0
C2316 C 0.54112 0.76356 0.74708 0.0
C2317 C 0.55193 0.76824 0.74197 0.0
C2318 C 0.55487 0.78076 0.7428 0.0
C2319 C 0.54671 0.78847 0.7489 0.0
C2320 C 0.53589 0.78378 0.75401 0.0
C2321 C 0.48745 0.77152 0.75312 0.0
C2322 C 0.48504 0.78406 0.75382 0.0
C2323 C 0.47434 0.78884 0.74866 0.0
C2324 C 0.46584 0.78119 0.7426 0.0
C2325 C 0.46831 0.76863 0.74189 0.0
C2326 C 0.479 0.76386 0.74706 0.0
C2327 C 0.49893 0.76647 0.75844 0.0
C2328 C 0.51025 0.77133 0.75454 0.0
C2329 C 0.4988 0.75652 0.76679 0.0
C2330 C 0.48719 0.75124 0.7717 0.0
C2331 C 0.47867 0.75863 0.77764 0.0
C2332 C 0.46784 0.75355 0.78237 0.0
C2333 C 0.46531 0.74098 0.78126 0.0
C2334 C 0.47389 0.73361 0.77532 0.0
C2335 C 0.48472 0.73867 0.77064 0.0
H2336 H 0.52866 0.75639 0.23188 0.0
H2337 H 0.54712 0.74776 0.22303 0.0
H2338 H 0.5584 0.73519 0.25885 0.0
H2339 H 0.53991 0.74391 0.26767 0.0
H2340 H 0.5099 0.74592 0.24361 0.0
H2341 H 0.54136 0.77536 0.25352 0.0
H2342 H 0.56064 0.78284 0.26229 0.0
H2343 H 0.54787 0.77286 0.2984 0.0
H2344 H 0.52892 0.76479 0.28949 0.0
H2345 H 0.49254 0.76529 0.28944 0.0
H2346 H 0.4741 0.77398 0.29827 0.0
H2347 H 0.46268 0.7862 0.26237 0.0
H2348 H 0.48115 0.77743 0.25358 0.0
H2349 H 0.51124 0.77557 0.27769 0.0
H2350 H 0.47997 0.74606 0.26803 0.0
H2351 H 0.46067 0.73838 0.25949 0.0
H2352 H 0.47304 0.74818 0.22319 0.0
H2353 H 0.49202 0.75645 0.23187 0.0
C2354 C 0.53292 0.75092 0.25046 0.0
C2355 C 0.53509 0.75175 0.23783 0.0
C2356 C 0.54564 0.74676 0.23277 0.0
C2357 C 0.55427 0.74076 0.24022 0.0
C2358 C 0.55205 0.73989 0.25287 0.0
C2359 C 0.54147 0.74487 0.25793 0.0
C2360 C 0.52162 0.75624 0.25573 0.0
C2361 C 0.5102 0.75253 0.25095 0.0
C2362 C 0.522 0.76464 0.26555 0.0
C2363 C 0.53373 0.76932 0.27081 0.0
C2364 C 0.54279 0.77461 0.2633 0.0
C2365 C 0.55376 0.77904 0.26836 0.0
C2366 C 0.55586 0.77844 0.28107 0.0
C2367 C 0.54669 0.77328 0.28856 0.0
C2368 C 0.53578 0.76876 0.28349 0.0
C2369 C 0.48822 0.77059 0.27082 0.0
C2370 C 0.48609 0.76987 0.28346 0.0
C2371 C 0.47555 0.77489 0.28851 0.0
C2372 C 0.46689 0.78081 0.28104 0.0
C2373 C 0.46906 0.78157 0.26837 0.0
C2374 C 0.47963 0.77656 0.26333 0.0
C2375 C 0.49952 0.76526 0.26556 0.0
C2376 C 0.51094 0.76896 0.27034 0.0
C2377 C 0.49914 0.75683 0.25577 0.0
C2378 C 0.4874 0.75202 0.25063 0.0
C2379 C 0.47845 0.74673 0.25826 0.0
C2380 C 0.46746 0.74219 0.25333 0.0
C2381 C 0.46525 0.74267 0.24064 0.0
C2382 C 0.47431 0.74784 0.23302 0.0
C2383 C 0.48524 0.75247 0.23796 0.0
H2384 H 0.52814 0.23184 0.26639 0.0
H2385 H 0.54679 0.22274 0.27467 0.0
H2386 H 0.55939 0.25836 0.28643 0.0
H2387 H 0.54054 0.26737 0.27838 0.0
H2388 H 0.51009 0.24359 0.27745 0.0
H2389 H 0.53978 0.253 0.24675 0.0
H2390 H 0.55862 0.26125 0.23776 0.0
H2391 H 0.54808 0.29762 0.24813 0.0
H2392 H 0.52931 0.28931 0.25728 0.0
H2393 H 0.49179 0.28939 0.25777 0.0
H2394 H 0.47319 0.2978 0.24859 0.0
H2395 H 0.46183 0.26155 0.23758 0.0
H2396 H 0.48061 0.25326 0.24642 0.0
H2397 H 0.51045 0.27776 0.24748 0.0
H2398 H 0.48054 0.2678 0.27841 0.0
H2399 H 0.46155 0.25906 0.2867 0.0
H2400 H 0.47266 0.22321 0.27517 0.0
H2401 H 0.49145 0.23203 0.26662 0.0
C2402 C 0.53295 0.25031 0.27167 0.0
C2403 C 0.5349 0.23769 0.27077 0.0
C2404 C 0.54562 0.23252 0.27543 0.0
C2405 C 0.55463 0.23983 0.28117 0.0
C2406 C 0.55261 0.25246 0.28214 0.0
C2407 C 0.54189 0.25764 0.27744 0.0
C2408 C 0.52147 0.25571 0.2667 0.0
C2409 C 0.51017 0.25098 0.2708 0.0
C2410 C 0.52158 0.26553 0.2582 0.0
C2411 C 0.53316 0.2705 0.25287 0.0
C2412 C 0.54159 0.26273 0.24728 0.0
C2413 C 0.55237 0.26746 0.24212 0.0
C2414 C 0.55487 0.28009 0.24226 0.0
C2415 C 0.54638 0.28786 0.24778 0.0
C2416 C 0.53565 0.28312 0.25303 0.0
C2417 C 0.48758 0.27067 0.25291 0.0
C2418 C 0.48529 0.28326 0.25337 0.0
C2419 C 0.4746 0.28804 0.2482 0.0
C2420 C 0.46598 0.28036 0.24236 0.0
C2421 C 0.46831 0.26775 0.2419 0.0
C2422 C 0.479 0.26298 0.24707 0.0
C2423 C 0.49907 0.26564 0.25823 0.0
C2424 C 0.51038 0.27043 0.2542 0.0
C2425 C 0.49898 0.25582 0.26674 0.0
C2426 C 0.48739 0.25059 0.27177 0.0
C2427 C 0.47883 0.25807 0.27756 0.0
C2428 C 0.46803 0.25305 0.2824 0.0
C2429 C 0.46556 0.24044 0.28158 0.0
C2430 C 0.47418 0.23298 0.27581 0.0
C2431 C 0.48498 0.238 0.271 0.0
C2432 C 0.20734 0.20415 0.1106 0.0
C2433 C 0.21307 0.20626 0.12193 0.0
C2434 C 0.21168 0.20978 0.09984 0.0
C2435 C 0.22197 0.21778 0.10041 0.0
C2436 C 0.22764 0.22013 0.11185 0.0
C2437 C 0.22315 0.21432 0.12245 0.0
C2438 C 0.2054 0.20698 0.08782 0.0
C2439 C 0.23856 0.22867 0.11288 0.0
C2440 C 0.24093 0.22286 0.07164 0.0
C2441 C 0.23665 0.23417 0.06739 0.0
C2442 C 0.23621 0.21743 0.08233 0.0
C2443 C 0.22699 0.22344 0.089 0.0
C2444 C 0.22263 0.23485 0.08478 0.0
C2445 C 0.22749 0.24007 0.07403 0.0
C2446 C 0.24107 0.20523 0.08647 0.0
C2447 C 0.21286 0.24159 0.09165 0.0
H2448 H 0.19963 0.19783 0.11009 0.0
H2449 H 0.22753 0.21613 0.13119 0.0
H2450 H 0.20239 0.21557 0.08335 0.0
H2451 H 0.21194 0.20258 0.08155 0.0
H2452 H 0.1973 0.20084 0.08897 0.0
H2453 H 0.24169 0.22983 0.1225 0.0
H2454 H 0.24628 0.22511 0.10744 0.0
H2455 H 0.23625 0.23777 0.10906 0.0
H2456 H 0.24786 0.21815 0.06648 0.0
H2457 H 0.22423 0.24886 0.07091 0.0
H2458 H 0.23347 0.19842 0.08694 0.0
H2459 H 0.24503 0.20601 0.09581 0.0
H2460 H 0.24822 0.20173 0.08026 0.0
H2461 H 0.20447 0.23582 0.09238 0.0
H2462 H 0.21043 0.25036 0.08714 0.0
H2463 H 0.21606 0.24352 0.1011 0.0
C2464 C 0.8088 0.1999 0.10972 0.0
C2465 C 0.80749 0.20507 0.12134 0.0
C2466 C 0.80441 0.20584 0.09919 0.0
C2467 C 0.79851 0.21722 0.10029 0.0
C2468 C 0.79732 0.22259 0.11198 0.0
C2469 C 0.80186 0.21646 0.12236 0.0
C2470 C 0.80597 0.19988 0.08688 0.0
C2471 C 0.79102 0.23467 0.11354 0.0
C2472 C 0.79547 0.23706 0.07175 0.0
C2473 C 0.78351 0.2342 0.06785 0.0
C2474 C 0.80045 0.23169 0.08235 0.0
C2475 C 0.79327 0.22332 0.08925 0.0
C2476 C 0.78113 0.22054 0.08546 0.0
C2477 C 0.77641 0.22599 0.0748 0.0
C2478 C 0.81345 0.23483 0.08604 0.0
C2479 C 0.77314 0.21173 0.09262 0.0
H2480 H 0.8133 0.19117 0.10886 0.0
H2481 H 0.80071 0.22045 0.13132 0.0
H2482 H 0.79686 0.19788 0.08277 0.0
H2483 H 0.81087 0.20619 0.08055 0.0
H2484 H 0.81115 0.19122 0.08753 0.0
H2485 H 0.79118 0.2378 0.12319 0.0
H2486 H 0.79548 0.24177 0.10775 0.0
H2487 H 0.78134 0.23387 0.11048 0.0
H2488 H 0.80105 0.2433 0.06635 0.0
H2489 H 0.76711 0.22387 0.07193 0.0
H2490 H 0.8191 0.22647 0.08597 0.0
H2491 H 0.81367 0.2384 0.09552 0.0
H2492 H 0.81772 0.24173 0.07986 0.0
H2493 H 0.77741 0.2026 0.09288 0.0
H2494 H 0.76379 0.21079 0.08863 0.0
H2495 H 0.77232 0.21485 0.10222 0.0
C2496 C 0.79583 0.81779 0.11726 0.0
C2497 C 0.80731 0.81493 0.12233 0.0
C2498 C 0.79144 0.81198 0.10665 0.0
C2499 C 0.79872 0.80313 0.10084 0.0
C2500 C 0.81031 0.80019 0.10587 0.0
C2501 C 0.81444 0.80609 0.11656 0.0
C2502 C 0.77903 0.81539 0.1016 0.0
C2503 C 0.81837 0.79084 0.09995 0.0
C2504 C 0.78274 0.78082 0.07919 0.0
C2505 C 0.78502 0.78621 0.06774 0.0
C2506 C 0.78723 0.78615 0.09003 0.0
C2507 C 0.79425 0.79711 0.0894 0.0
C2508 C 0.79673 0.80249 0.07785 0.0
C2509 C 0.79206 0.797 0.06718 0.0
C2510 C 0.7843 0.78017 0.10216 0.0
C2511 C 0.80425 0.81411 0.07676 0.0
H2512 H 0.79032 0.82474 0.12149 0.0
H2513 H 0.82324 0.80367 0.12046 0.0
H2514 H 0.78004 0.81922 0.09223 0.0
H2515 H 0.77308 0.80714 0.1009 0.0
H2516 H 0.77436 0.82221 0.10736 0.0
H2517 H 0.82714 0.78959 0.10497 0.0
H2518 H 0.81348 0.78191 0.0995 0.0
H2519 H 0.82046 0.79366 0.09041 0.0
H2520 H 0.7772 0.77255 0.07972 0.0
H2521 H 0.79401 0.80113 0.05835 0.0
H2522 H 0.77891 0.78648 0.10785 0.0
H2523 H 0.79289 0.77819 0.10724 0.0
H2524 H 0.779 0.77151 0.10107 0.0
H2525 H 0.79966 0.8216 0.08167 0.0
H2526 H 0.80563 0.81696 0.06709 0.0
H2527 H 0.81336 0.81285 0.08112 0.0
C2528 C 0.20981 0.81792 0.11004 0.0
C2529 C 0.21344 0.8139 0.12171 0.0
C2530 C 0.21421 0.81233 0.09942 0.0
C2531 C 0.22236 0.8024 0.10047 0.0
C2532 C 0.22588 0.79816 0.11223 0.0
C2533 C 0.22142 0.804 0.1227 0.0
C2534 C 0.21032 0.8172 0.08706 0.0
C2535 C 0.23444 0.78753 0.11375 0.0
C2536 C 0.22601 0.78179 0.07281 0.0
C2537 C 0.237 0.78622 0.06772 0.0
C2538 C 0.22121 0.78687 0.08352 0.0
C2539 C 0.22747 0.7967 0.08927 0.0
C2540 C 0.23858 0.80118 0.08422 0.0
C2541 C 0.24323 0.79586 0.07357 0.0
C2542 C 0.20937 0.78178 0.08864 0.0
C2543 C 0.24553 0.81167 0.09004 0.0
H2544 H 0.20376 0.82566 0.10921 0.0
H2545 H 0.22415 0.80076 0.13169 0.0
H2546 H 0.21847 0.82058 0.08199 0.0
H2547 H 0.20606 0.80979 0.08156 0.0
H2548 H 0.20369 0.82478 0.08781 0.0
H2549 H 0.23595 0.78507 0.12351 0.0
H2550 H 0.23067 0.77941 0.10891 0.0
H2551 H 0.24342 0.78978 0.10956 0.0
H2552 H 0.22102 0.77446 0.0683 0.0
H2553 H 0.25183 0.79923 0.06987 0.0
H2554 H 0.2023 0.78898 0.08863 0.0
H2555 H 0.21074 0.77885 0.09828 0.0
H2556 H 0.20582 0.77387 0.08332 0.0
H2557 H 0.23962 0.81982 0.09044 0.0
H2558 H 0.25401 0.81413 0.08496 0.0
H2559 H 0.24808 0.80926 0.09959 0.0
C2560 C 0.21995 0.80501 0.90107 0.0
C2561 C 0.21404 0.81626 0.90214 0.0
C2562 C 0.22445 0.79885 0.91145 0.0
C2563 C 0.22293 0.80403 0.92318 0.0
C2564 C 0.21677 0.81526 0.92433 0.0
C2565 C 0.21244 0.82126 0.9138 0.0
C2566 C 0.23104 0.78693 0.90983 0.0
C2567 C 0.21486 0.82102 0.93668 0.0
C2568 C 0.2258 0.78384 0.95148 0.0
C2569 C 0.23761 0.78688 0.95566 0.0
C2570 C 0.22093 0.78926 0.94087 0.0
C2571 C 0.22808 0.79788 0.93423 0.0
C2572 C 0.24009 0.80084 0.9383 0.0
C2573 C 0.24469 0.79533 0.94898 0.0
C2574 C 0.20806 0.78592 0.93686 0.0
C2575 C 0.24804 0.8099 0.93143 0.0
H2576 H 0.22132 0.80117 0.89208 0.0
H2577 H 0.20774 0.82987 0.9147 0.0
H2578 H 0.24064 0.78789 0.91313 0.0
H2579 H 0.22659 0.77966 0.91541 0.0
H2580 H 0.23116 0.78396 0.90013 0.0
H2581 H 0.20954 0.82959 0.93605 0.0
H2582 H 0.20996 0.81453 0.94282 0.0
H2583 H 0.22386 0.82312 0.941 0.0
H2584 H 0.22024 0.77741 0.95668 0.0
H2585 H 0.25389 0.79759 0.95207 0.0
H2586 H 0.20811 0.78249 0.92734 0.0
H2587 H 0.20224 0.79416 0.93695 0.0
H2588 H 0.20381 0.77884 0.94286 0.0
H2589 H 0.2491 0.80695 0.9218 0.0
H2590 H 0.25729 0.81096 0.93562 0.0
H2591 H 0.24359 0.81896 0.93122 0.0
C2592 C 0.20289 0.20753 0.91283 0.0
C2593 C 0.20682 0.21136 0.9012 0.0
C2594 C 0.20854 0.212 0.92352 0.0
C2595 C 0.21844 0.22045 0.92259 0.0
C2596 C 0.2226 0.22416 0.91087 0.0
C2597 C 0.21672 0.21961 0.90034 0.0
C2598 C 0.20376 0.20787 0.93582 0.0
C2599 C 0.2332 0.23304 0.90947 0.0
C2600 C 0.22505 0.24135 0.9496 0.0
C2601 C 0.23489 0.23549 0.95542 0.0
C2602 C 0.21963 0.23656 0.93895 0.0
C2603 C 0.22419 0.22566 0.93386 0.0
C2604 C 0.23418 0.21975 0.9396 0.0
C2605 C 0.23938 0.2247 0.9503 0.0
C2606 C 0.209 0.24316 0.93313 0.0
C2607 C 0.23934 0.20813 0.93446 0.0
H2608 H 0.19516 0.20127 0.91358 0.0
H2609 H 0.21991 0.22249 0.89139 0.0
H2610 H 0.21127 0.20387 0.94136 0.0
H2611 H 0.2003 0.21585 0.94092 0.0
H2612 H 0.19623 0.201 0.93499 0.0
H2613 H 0.23559 0.2347 0.89973 0.0
H2614 H 0.23088 0.24189 0.9137 0.0
H2615 H 0.24139 0.22952 0.91433 0.0
H2616 H 0.22163 0.24979 0.95333 0.0
H2617 H 0.24685 0.21999 0.95479 0.0
H2618 H 0.20088 0.23698 0.93266 0.0
H2619 H 0.21131 0.24584 0.92361 0.0
H2620 H 0.20648 0.25148 0.93826 0.0
H2621 H 0.23215 0.20088 0.93436 0.0
H2622 H 0.24731 0.2048 0.93983 0.0
H2623 H 0.24224 0.20965 0.92485 0.0
C2624 C 0.80267 0.2101 0.90496 0.0
C2625 C 0.81486 0.21363 0.90269 0.0
C2626 C 0.7965 0.21412 0.91543 0.0
C2627 C 0.80265 0.2219 0.92383 0.0
C2628 C 0.81496 0.22544 0.92163 0.0
C2629 C 0.82091 0.22124 0.91113 0.0
C2630 C 0.78338 0.21013 0.91746 0.0
C2631 C 0.82186 0.23369 0.93036 0.0
C2632 C 0.78428 0.24205 0.94506 0.0
C2633 C 0.785 0.23564 0.95619 0.0
C2634 C 0.78981 0.23759 0.93442 0.0
C2635 C 0.79621 0.22643 0.9349 0.0
C2636 C 0.79681 0.21981 0.94605 0.0
C2637 C 0.79122 0.22449 0.95655 0.0
C2638 C 0.78893 0.24492 0.92271 0.0
C2639 C 0.80355 0.20787 0.94694 0.0
H2640 H 0.79786 0.20433 0.89844 0.0
H2641 H 0.83039 0.22385 0.90958 0.0
H2642 H 0.78252 0.20541 0.92643 0.0
H2643 H 0.77739 0.21824 0.91772 0.0
H2644 H 0.77996 0.2039 0.91018 0.0
H2645 H 0.8314 0.23559 0.92734 0.0
H2646 H 0.81703 0.2425 0.93122 0.0
H2647 H 0.82216 0.22945 0.9396 0.0
H2648 H 0.77934 0.25057 0.94464 0.0
H2649 H 0.79196 0.21954 0.96513 0.0
H2650 H 0.78483 0.23924 0.91535 0.0
H2651 H 0.79824 0.24772 0.91967 0.0
H2652 H 0.78333 0.25325 0.92378 0.0
H2653 H 0.79994 0.20137 0.94003 0.0
H2654 H 0.80274 0.20359 0.95615 0.0
H2655 H 0.81341 0.20942 0.94494 0.0
C2656 C 0.80357 0.80426 0.90149 0.0
C2657 C 0.81055 0.81504 0.90273 0.0
C2658 C 0.79882 0.79811 0.91179 0.0
C2659 C 0.80113 0.80281 0.92364 0.0
C2660 C 0.80838 0.81354 0.92496 0.0
C2661 C 0.81297 0.81953 0.91451 0.0
C2662 C 0.79109 0.78673 0.90997 0.0
C2663 C 0.81115 0.81881 0.93743 0.0
C2664 C 0.77913 0.79491 0.9495 0.0
C2665 C 0.78553 0.78585 0.95594 0.0
C2666 C 0.78404 0.80039 0.93892 0.0
C2667 C 0.79565 0.79675 0.93463 0.0
C2668 C 0.8021 0.78751 0.941 0.0
C2669 C 0.79697 0.78217 0.95156 0.0
C2670 C 0.77682 0.81015 0.93238 0.0
C2671 C 0.81452 0.78339 0.93675 0.0
H2672 H 0.80154 0.8008 0.89243 0.0
H2673 H 0.81849 0.82775 0.91557 0.0
H2674 H 0.79493 0.77905 0.91536 0.0
H2675 H 0.78168 0.78827 0.91336 0.0
H2676 H 0.79053 0.78399 0.90021 0.0
H2677 H 0.81727 0.82697 0.93693 0.0
H2678 H 0.80249 0.82143 0.94193 0.0
H2679 H 0.81555 0.81183 0.94333 0.0
H2680 H 0.77021 0.79768 0.9527 0.0
H2681 H 0.80205 0.77528 0.95654 0.0
H2682 H 0.77522 0.80751 0.92272 0.0
H2683 H 0.78214 0.81885 0.93229 0.0
H2684 H 0.76783 0.81178 0.93675 0.0
H2685 H 0.81394 0.78023 0.92714 0.0
H2686 H 0.8182 0.77587 0.94251 0.0
H2687 H 0.82111 0.79118 0.93698 0.0
C2688 C 0.116 0.22545 0.2045 0.0
C2689 C 0.12058 0.21384 0.20738 0.0
C2690 C 0.10544 0.2299 0.21018 0.0
C2691 C 0.0992 0.22255 0.2189 0.0
C2692 C 0.10374 0.21083 0.22185 0.0
C2693 C 0.11437 0.20663 0.21608 0.0
C2694 C 0.10092 0.24246 0.20677 0.0
C2695 C 0.09733 0.2027 0.23107 0.0
C2696 C 0.07778 0.23841 0.24101 0.0
C2697 C 0.06631 0.2365 0.23542 0.0
C2698 C 0.08854 0.23383 0.23581 0.0
C2699 C 0.08782 0.22711 0.22478 0.0
C2700 C 0.07625 0.22501 0.2192 0.0
C2701 C 0.06566 0.22975 0.22456 0.0
C2702 C 0.1007 0.23635 0.242 0.0
C2703 C 0.07507 0.21781 0.2075 0.0
H2704 H 0.12056 0.23103 0.19765 0.0
H2705 H 0.1179 0.19772 0.2185 0.0
H2706 H 0.09157 0.24175 0.20279 0.0
H2707 H 0.10032 0.24821 0.21506 0.0
H2708 H 0.10699 0.24715 0.20005 0.0
H2709 H 0.10201 0.19383 0.23235 0.0
H2710 H 0.09692 0.20736 0.24004 0.0
H2711 H 0.08775 0.20089 0.22809 0.0
H2712 H 0.07838 0.24372 0.24933 0.0
H2713 H 0.05682 0.22808 0.22029 0.0
H2714 H 0.10671 0.24175 0.2358 0.0
H2715 H 0.10541 0.22764 0.24401 0.0
H2716 H 0.09967 0.24145 0.25069 0.0
H2717 H 0.08029 0.22246 0.2001 0.0
H2718 H 0.06538 0.21672 0.20448 0.0
H2719 H 0.07906 0.20862 0.20877 0.0
C2720 C 0.81579 0.11035 0.20854 0.0
C2721 C 0.81444 0.12135 0.21486 0.0
C2722 C 0.81002 0.09955 0.21263 0.0
C2723 C 0.80266 0.09977 0.22326 0.0
C2724 C 0.80107 0.1109 0.22954 0.0
C2725 C 0.80701 0.12155 0.22529 0.0
C2726 C 0.812 0.08784 0.20572 0.0
C2727 C 0.79322 0.11155 0.24084 0.0
C2728 C 0.77984 0.07376 0.22868 0.0
C2729 C 0.7861 0.06654 0.23726 0.0
C2730 C 0.7851 0.0846 0.22404 0.0
C2731 C 0.79694 0.08828 0.22803 0.0
C2732 C 0.80332 0.08101 0.23666 0.0
C2733 C 0.79782 0.07026 0.24118 0.0
C2734 C 0.77798 0.09214 0.21491 0.0
C2735 C 0.81599 0.08458 0.2411 0.0
H2736 H 0.82162 0.11011 0.20055 0.0
H2737 H 0.80581 0.13006 0.23012 0.0
H2738 H 0.81661 0.08111 0.21175 0.0
H2739 H 0.80306 0.08378 0.20294 0.0
H2740 H 0.81768 0.08928 0.19742 0.0
H2741 H 0.79256 0.12099 0.24441 0.0
H2742 H 0.78384 0.10807 0.2388 0.0
H2743 H 0.79708 0.10563 0.24814 0.0
H2744 H 0.77073 0.07102 0.22571 0.0
H2745 H 0.80278 0.06464 0.24768 0.0
H2746 H 0.78326 0.09319 0.20632 0.0
H2747 H 0.77656 0.10144 0.21859 0.0
H2748 H 0.7689 0.088 0.21271 0.0
H2749 H 0.82234 0.08532 0.23323 0.0
H2750 H 0.81975 0.0779 0.24777 0.0
H2751 H 0.81576 0.09368 0.24549 0.0
C2752 C 0.91203 0.8147 0.2073 0.0
C2753 C 0.90072 0.80876 0.20916 0.0
C2754 C 0.92278 0.8105 0.21301 0.0
C2755 C 0.92222 0.80014 0.22081 0.0
C2756 C 0.91079 0.79426 0.22292 0.0
C2757 C 0.9002 0.79862 0.21706 0.0
C2758 C 0.93479 0.817 0.21047 0.0
C2759 C 0.90976 0.78324 0.23124 0.0
C2760 C 0.95106 0.78147 0.22578 0.0
C2761 C 0.95512 0.78551 0.23729 0.0
C2762 C 0.94043 0.78619 0.22031 0.0
C2763 C 0.93364 0.79519 0.22647 0.0
C2764 C 0.9377 0.79936 0.23807 0.0
C2765 C 0.94839 0.79448 0.24332 0.0
C2766 C 0.93645 0.78154 0.20791 0.0
C2767 C 0.93071 0.8089 0.24496 0.0
H2768 H 0.91255 0.82246 0.20111 0.0
H2769 H 0.89148 0.79408 0.21868 0.0
H2770 H 0.93917 0.81989 0.21919 0.0
H2771 H 0.94117 0.81068 0.20593 0.0
H2772 H 0.93362 0.82518 0.20453 0.0
H2773 H 0.90015 0.77997 0.23226 0.0
H2774 H 0.9153 0.77568 0.22756 0.0
H2775 H 0.9135 0.78546 0.24044 0.0
H2776 H 0.95629 0.77468 0.22095 0.0
H2777 H 0.95136 0.79756 0.25227 0.0
H2778 H 0.93598 0.78923 0.20129 0.0
H2779 H 0.92713 0.77742 0.2085 0.0
H2780 H 0.94278 0.77458 0.20428 0.0
H2781 H 0.92994 0.81733 0.23934 0.0
H2782 H 0.93515 0.81129 0.25381 0.0
H2783 H 0.92126 0.80555 0.24679 0.0
C2784 C 0.21735 0.8999 0.21917 0.0
C2785 C 0.20637 0.90103 0.21254 0.0
C2786 C 0.22349 0.91023 0.22386 0.0
C2787 C 0.21859 0.92199 0.22182 0.0
C2788 C 0.20766 0.9232 0.2149 0.0
C2789 C 0.20168 0.91272 0.21037 0.0
C2790 C 0.23509 0.90854 0.23123 0.0
C2791 C 0.20217 0.93557 0.21242 0.0
C2792 C 0.2266 0.94767 0.24387 0.0
C2793 C 0.23547 0.95435 0.23731 0.0
C2794 C 0.22115 0.93706 0.239 0.0
C2795 C 0.22464 0.933 0.22725 0.0
C2796 C 0.23369 0.93961 0.22064 0.0
C2797 C 0.239 0.95019 0.22575 0.0
C2798 C 0.21159 0.93025 0.24638 0.0
C2799 C 0.23762 0.93561 0.20808 0.0
H2800 H 0.22096 0.89089 0.221 0.0
H2801 H 0.1933 0.91368 0.2051 0.0
H2802 H 0.24265 0.91413 0.22726 0.0
H2803 H 0.23369 0.91177 0.24072 0.0
H2804 H 0.23797 0.89885 0.2316 0.0
H2805 H 0.19387 0.935 0.20651 0.0
H2806 H 0.19965 0.93991 0.22119 0.0
H2807 H 0.20901 0.94166 0.20792 0.0
H2808 H 0.22395 0.95071 0.25289 0.0
H2809 H 0.24573 0.95536 0.22055 0.0
H2810 H 0.21439 0.92064 0.24778 0.0
H2811 H 0.20275 0.93007 0.24131 0.0
H2812 H 0.21009 0.93446 0.25547 0.0
H2813 H 0.24091 0.92607 0.20845 0.0
H2814 H 0.24502 0.94154 0.20428 0.0
H2815 H 0.22968 0.93578 0.20171 0.0
C2816 C 0.11519 0.81385 0.80965 0.0
C2817 C 0.12177 0.80597 0.81735 0.0
C2818 C 0.10461 0.80981 0.80342 0.0
C2819 C 0.10046 0.7976 0.80498 0.0
C2820 C 0.10714 0.78955 0.81261 0.0
C2821 C 0.11772 0.79381 0.81866 0.0
C2822 C 0.09776 0.81865 0.79533 0.0
C2823 C 0.10302 0.77646 0.81451 0.0
C2824 C 0.06684 0.78991 0.79946 0.0
C2825 C 0.06712 0.7843 0.78796 0.0
C2826 C 0.07759 0.79438 0.80503 0.0
C2827 C 0.08893 0.7933 0.79893 0.0
C2828 C 0.08928 0.78783 0.78723 0.0
C2829 C 0.07838 0.78337 0.7819 0.0
C2830 C 0.07683 0.80015 0.81752 0.0
C2831 C 0.10119 0.78654 0.78043 0.0
H2832 H 0.11816 0.82329 0.80868 0.0
H2833 H 0.12285 0.78759 0.8244 0.0
H2834 H 0.09671 0.81486 0.78599 0.0
H2835 H 0.08841 0.82002 0.79898 0.0
H2836 H 0.10247 0.82768 0.79467 0.0
H2837 H 0.10936 0.77131 0.82057 0.0
H2838 H 0.09375 0.77621 0.81863 0.0
H2839 H 0.10236 0.77172 0.80559 0.0
H2840 H 0.05816 0.79086 0.80412 0.0
H2841 H 0.07872 0.77894 0.77308 0.0
H2842 H 0.08062 0.8096 0.81719 0.0
H2843 H 0.08246 0.79493 0.82417 0.0
H2844 H 0.06728 0.80047 0.82095 0.0
H2845 H 0.10574 0.7956 0.77938 0.0
H2846 H 0.09984 0.7825 0.77121 0.0
H2847 H 0.10751 0.78066 0.78575 0.0
C2848 C 0.22457 0.11427 0.81829 0.0
C2849 C 0.21264 0.1185 0.81624 0.0
C2850 C 0.22896 0.10392 0.81226 0.0
C2851 C 0.22126 0.09762 0.80389 0.0
C2852 C 0.20927 0.10193 0.80161 0.0
C2853 C 0.2051 0.11229 0.80781 0.0
C2854 C 0.24181 0.09966 0.81494 0.0
C2855 C 0.20078 0.09548 0.79275 0.0
C2856 C 0.23661 0.07655 0.78112 0.0
C2857 C 0.23507 0.06508 0.78674 0.0
C2858 C 0.232 0.08719 0.78648 0.0
C2859 C 0.2257 0.08636 0.79776 0.0
C2860 C 0.22398 0.0748 0.8034 0.0
C2861 C 0.22866 0.06432 0.79783 0.0
C2862 C 0.23404 0.09934 0.78017 0.0
C2863 C 0.2173 0.0735 0.81541 0.0
H2864 H 0.23056 0.11911 0.8246 0.0
H2865 H 0.19583 0.11539 0.80624 0.0
H2866 H 0.24151 0.09025 0.81875 0.0
H2867 H 0.24717 0.09937 0.80635 0.0
H2868 H 0.2467 0.10568 0.82155 0.0
H2869 H 0.19188 0.1002 0.79167 0.0
H2870 H 0.20516 0.09486 0.78364 0.0
H2871 H 0.19896 0.086 0.79596 0.0
H2872 H 0.24165 0.07726 0.77263 0.0
H2873 H 0.22724 0.05548 0.80215 0.0
H2874 H 0.23971 0.10539 0.78608 0.0
H2875 H 0.22515 0.10393 0.77864 0.0
H2876 H 0.2387 0.09838 0.77122 0.0
H2877 H 0.22222 0.07876 0.8226 0.0
H2878 H 0.21647 0.06383 0.81846 0.0
H2879 H 0.20797 0.07735 0.81457 0.0
C2880 C 0.9044 0.21605 0.81524 0.0
C2881 C 0.90095 0.20455 0.81065 0.0
C2882 C 0.91485 0.22227 0.81085 0.0
C2883 C 0.9221 0.21685 0.80171 0.0
C2884 C 0.91869 0.20526 0.79705 0.0
C2885 C 0.90815 0.19929 0.80152 0.0
C2886 C 0.91815 0.23464 0.81603 0.0
C2887 C 0.92619 0.19914 0.78731 0.0
C2888 C 0.94327 0.2366 0.78206 0.0
C2889 C 0.9547 0.23467 0.78764 0.0
C2890 C 0.93257 0.23103 0.78666 0.0
C2891 C 0.9333 0.22325 0.79703 0.0
C2892 C 0.9448 0.22134 0.80275 0.0
C2893 C 0.95534 0.2271 0.79801 0.0
C2894 C 0.92047 0.2334 0.78036 0.0
C2895 C 0.94601 0.21303 0.81376 0.0
H2896 H 0.89901 0.22014 0.8224 0.0
H2897 H 0.90548 0.19052 0.79774 0.0
H2898 H 0.92734 0.23433 0.82039 0.0
H2899 H 0.91863 0.24153 0.80856 0.0
H2900 H 0.91143 0.23772 0.82292 0.0
H2901 H 0.92239 0.19004 0.78475 0.0
H2902 H 0.92657 0.20498 0.77899 0.0
H2903 H 0.93575 0.19797 0.79059 0.0
H2904 H 0.94269 0.24257 0.77414 0.0
H2905 H 0.96416 0.22545 0.80228 0.0
H2906 H 0.91383 0.23709 0.787 0.0
H2907 H 0.91655 0.2247 0.77684 0.0
H2908 H 0.9214 0.23994 0.77261 0.0
H2909 H 0.93992 0.21613 0.82119 0.0
H2910 H 0.95555 0.21273 0.81732 0.0
H2911 H 0.94305 0.20363 0.81131 0.0
C2912 C 0.81834 0.90568 0.7966 0.0
C2913 C 0.81531 0.90057 0.80803 0.0
C2914 C 0.81259 0.91625 0.79221 0.0
C2915 C 0.80362 0.92199 0.79943 0.0
C2916 C 0.80049 0.91691 0.81096 0.0
C2917 C 0.80634 0.90626 0.8151 0.0
C2918 C 0.81619 0.92135 0.77986 0.0
C2919 C 0.791 0.92275 0.81896 0.0
C2920 C 0.79769 0.95561 0.79289 0.0
C2921 C 0.78696 0.95506 0.78578 0.0
C2922 C 0.8031 0.94494 0.79754 0.0
C2923 C 0.79768 0.93341 0.79497 0.0
C2924 C 0.78679 0.9328 0.78788 0.0
C2925 C 0.78154 0.94362 0.78341 0.0
C2926 C 0.81465 0.94602 0.80514 0.0
C2927 C 0.78078 0.92069 0.78486 0.0
H2928 H 0.8254 0.90152 0.79114 0.0
H2929 H 0.8038 0.90233 0.82386 0.0
H2930 H 0.80799 0.92207 0.77387 0.0
H2931 H 0.82007 0.9307 0.78092 0.0
H2932 H 0.82307 0.91563 0.77521 0.0
H2933 H 0.78959 0.91768 0.82767 0.0
H2934 H 0.79384 0.93226 0.82112 0.0
H2935 H 0.78212 0.92322 0.814 0.0
H2936 H 0.80184 0.96442 0.79491 0.0
H2937 H 0.77332 0.94311 0.77782 0.0
H2938 H 0.82221 0.94116 0.80059 0.0
H2939 H 0.81325 0.94162 0.8142 0.0
H2940 H 0.81754 0.95567 0.80657 0.0
H2941 H 0.78718 0.91505 0.7795 0.0
H2942 H 0.77218 0.92178 0.7795 0.0
H2943 H 0.77865 0.91558 0.79339 0.0
C2944 C 0.21286 0.11333 0.20699 0.0
C2945 C 0.20481 0.11963 0.21461 0.0
C2946 C 0.21901 0.10287 0.21118 0.0
C2947 C 0.21706 0.09857 0.22328 0.0
C2948 C 0.20906 0.10497 0.23105 0.0
C2949 C 0.20307 0.11541 0.22664 0.0
C2950 C 0.22748 0.09632 0.20262 0.0
C2951 C 0.20672 0.10072 0.24401 0.0
C2952 C 0.22281 0.06518 0.23103 0.0
C2953 C 0.23413 0.0658 0.23718 0.0
C2954 C 0.21724 0.07573 0.22634 0.0
C2955 C 0.22314 0.08723 0.22776 0.0
C2956 C 0.23465 0.08792 0.23379 0.0
C2957 C 0.23999 0.07721 0.23844 0.0
C2958 C 0.20498 0.07459 0.21997 0.0
C2959 C 0.24124 0.1 0.23549 0.0
H2960 H 0.21418 0.11642 0.19765 0.0
H2961 H 0.19706 0.12032 0.23268 0.0
H2962 H 0.23673 0.09559 0.2068 0.0
H2963 H 0.22403 0.08689 0.20104 0.0
H2964 H 0.22834 0.10105 0.19364 0.0
H2965 H 0.20037 0.1068 0.24894 0.0
H2966 H 0.20274 0.09135 0.24395 0.0
H2967 H 0.21549 0.10033 0.24917 0.0
H2968 H 0.2183 0.05639 0.22982 0.0
H2969 H 0.24866 0.07783 0.24328 0.0
H2970 H 0.20557 0.07842 0.21057 0.0
H2971 H 0.19804 0.07994 0.22494 0.0
H2972 H 0.20171 0.06496 0.2194 0.0
H2973 H 0.24254 0.10459 0.2265 0.0
H2974 H 0.25034 0.09893 0.23994 0.0
H2975 H 0.23562 0.10611 0.24118 0.0
C2976 C 0.19965 0.90711 0.79818 0.0
C2977 C 0.20486 0.9001 0.80761 0.0
C2978 C 0.20557 0.91765 0.79367 0.0
C2979 C 0.21707 0.92123 0.79861 0.0
C2980 C 0.22246 0.91416 0.80804 0.0
C2981 C 0.21627 0.90372 0.81247 0.0
C2982 C 0.19949 0.92498 0.78363 0.0
C2983 C 0.23473 0.91765 0.8135 0.0
C2984 C 0.23682 0.9426 0.77923 0.0
C2985 C 0.23459 0.95395 0.78461 0.0
C2986 C 0.23135 0.93185 0.78382 0.0
C2987 C 0.22337 0.93247 0.79397 0.0
C2988 C 0.22115 0.9439 0.79949 0.0
C2989 C 0.22682 0.95448 0.79477 0.0
C2990 C 0.23405 0.91983 0.77776 0.0
C2991 C 0.21261 0.94496 0.81024 0.0
H2992 H 0.19095 0.9043 0.7942 0.0
H2993 H 0.22031 0.89847 0.81986 0.0
H2994 H 0.19809 0.93449 0.78673 0.0
H2995 H 0.20551 0.92543 0.77549 0.0
H2996 H 0.19049 0.92102 0.78085 0.0
H2997 H 0.23783 0.911 0.82055 0.0
H2998 H 0.24175 0.91826 0.80621 0.0
H2999 H 0.2342 0.9268 0.81776 0.0
H3000 H 0.24293 0.94213 0.77147 0.0
H3001 H 0.22496 0.96325 0.79888 0.0
H3002 H 0.22546 0.91577 0.77402 0.0
H3003 H 0.23773 0.91328 0.7846 0.0
H3004 H 0.24076 0.92085 0.77021 0.0
H3005 H 0.20327 0.94184 0.80757 0.0
H3006 H 0.21208 0.95448 0.81366 0.0
H3007 H 0.21571 0.93898 0.81785 0.0
C3008 C 0.1178 0.21609 0.81237 0.0
C3009 C 0.12002 0.20405 0.80871 0.0
C3010 C 0.10728 0.22231 0.80838 0.0
C3011 C 0.09877 0.21637 0.80053 0.0
C3012 C 0.1009 0.2042 0.79688 0.0
C3013 C 0.11146 0.1982 0.80103 0.0
C3014 C 0.10533 0.23527 0.8125 0.0
C3015 C 0.09205 0.19752 0.78854 0.0
C3016 C 0.06601 0.22781 0.798 0.0
C3017 C 0.06629 0.23435 0.78692 0.0
C3018 C 0.07654 0.22209 0.80264 0.0
C3019 C 0.08765 0.22288 0.79603 0.0
C3020 C 0.08804 0.22959 0.78491 0.0
C3021 C 0.07738 0.23524 0.7805 0.0
C3022 C 0.07572 0.21503 0.81451 0.0
C3023 C 0.0997 0.23068 0.77759 0.0
H3024 H 0.1244 0.22075 0.81819 0.0
H3025 H 0.11295 0.18883 0.79832 0.0
H3026 H 0.10503 0.24146 0.80444 0.0
H3027 H 0.09639 0.23597 0.81722 0.0
H3028 H 0.11268 0.23852 0.8188 0.0
H3029 H 0.09502 0.18807 0.78656 0.0
H3030 H 0.08284 0.19708 0.79277 0.0
H3031 H 0.09113 0.20256 0.77975 0.0
H3032 H 0.05747 0.22693 0.80296 0.0
H3033 H 0.07775 0.24042 0.77203 0.0
H3034 H 0.08271 0.21847 0.82109 0.0
H3035 H 0.0777 0.20526 0.81287 0.0
H3036 H 0.06654 0.21567 0.81878 0.0
H3037 H 0.10714 0.23466 0.78332 0.0
H3038 H 0.09857 0.23645 0.76928 0.0
H3039 H 0.10269 0.22148 0.77474 0.0
C3040 C 0.81027 0.11799 0.80655 0.0
C3041 C 0.80672 0.12018 0.81866 0.0
C3042 C 0.80623 0.10748 0.8003 0.0
C3043 C 0.79841 0.09896 0.80627 0.0
C3044 C 0.79485 0.10107 0.81851 0.0
C3045 C 0.79907 0.11161 0.82455 0.0
C3046 C 0.81025 0.10555 0.78726 0.0
C3047 C 0.78655 0.0922 0.82523 0.0
C3048 C 0.7783 0.07747 0.78739 0.0
C3049 C 0.78475 0.06648 0.78819 0.0
C3050 C 0.78271 0.08813 0.7931 0.0
C3051 C 0.79387 0.08784 0.79975 0.0
C3052 C 0.80052 0.07683 0.80045 0.0
C3053 C 0.79588 0.06629 0.79469 0.0
C3054 C 0.77534 0.09968 0.79212 0.0
C3055 C 0.81247 0.07613 0.80745 0.0
H3056 H 0.81606 0.12461 0.80186 0.0
H3057 H 0.79644 0.11309 0.83396 0.0
H3058 H 0.81497 0.09668 0.78649 0.0
H3059 H 0.80212 0.10517 0.78113 0.0
H3060 H 0.81652 0.11293 0.78399 0.0
H3061 H 0.78462 0.09517 0.83472 0.0
H3062 H 0.77772 0.0912 0.82023 0.0
H3063 H 0.79079 0.08305 0.82561 0.0
H3064 H 0.76979 0.07776 0.78224 0.0
H3065 H 0.80086 0.05783 0.7955 0.0
H3066 H 0.78103 0.10713 0.78811 0.0
H3067 H 0.77256 0.10266 0.80137 0.0
H3068 H 0.76697 0.09846 0.7864 0.0
H3069 H 0.81902 0.08314 0.80397 0.0
H3070 H 0.81675 0.06702 0.80674 0.0
H3071 H 0.81088 0.07812 0.81725 0.0
C3072 C 0.90122 0.80341 0.80528 0.0
C3073 C 0.90261 0.81002 0.81617 0.0
C3074 C 0.91143 0.79872 0.79916 0.0
C3075 C 0.92335 0.80073 0.80401 0.0
C3076 C 0.92483 0.80763 0.81485 0.0
C3077 C 0.91446 0.81217 0.82079 0.0
C3078 C 0.90945 0.79139 0.78766 0.0
C3079 C 0.93737 0.81007 0.82027 0.0
C3080 C 0.9488 0.77868 0.79616 0.0
C3081 C 0.95539 0.78523 0.78722 0.0
C3082 C 0.9383 0.78356 0.80157 0.0
C3083 C 0.93425 0.7953 0.798 0.0
C3084 C 0.94076 0.80191 0.78889 0.0
C3085 C 0.95123 0.7968 0.78362 0.0
C3086 C 0.9316 0.77618 0.8112 0.0
C3087 C 0.93677 0.81445 0.78485 0.0
H3088 H 0.8921 0.80159 0.80171 0.0
H3089 H 0.91564 0.81743 0.8291 0.0
H3090 H 0.91494 0.79536 0.78006 0.0
H3091 H 0.91263 0.78191 0.78914 0.0
H3092 H 0.89967 0.79106 0.7848 0.0
H3093 H 0.937 0.81596 0.82851 0.0
H3094 H 0.9417 0.80131 0.82287 0.0
H3095 H 0.94337 0.81457 0.81339 0.0
H3096 H 0.95182 0.76966 0.79887 0.0
H3097 H 0.95633 0.80199 0.77683 0.0
H3098 H 0.92189 0.77479 0.80843 0.0
H3099 H 0.93162 0.78123 0.81997 0.0
H3100 H 0.93578 0.7671 0.81279 0.0
H3101 H 0.92713 0.8141 0.78158 0.0
H3102 H 0.9426 0.81826 0.77742 0.0
H3103 H 0.93714 0.8208 0.79272 0.0
C3104 C 0.80398 0.90392 0.2105 0.0
C3105 C 0.81598 0.90141 0.21438 0.0
C3106 C 0.7979 0.91443 0.21446 0.0
C3107 C 0.80393 0.92265 0.22251 0.0
C3108 C 0.81607 0.92023 0.22637 0.0
C3109 C 0.82194 0.90969 0.22224 0.0
C3110 C 0.78496 0.91668 0.21012 0.0
C3111 C 0.82286 0.92876 0.23492 0.0
C3112 C 0.79301 0.95544 0.22527 0.0
C3113 C 0.78639 0.95501 0.23625 0.0
C3114 C 0.79858 0.94495 0.22059 0.0
C3115 C 0.79755 0.93373 0.22704 0.0
C3116 C 0.79075 0.93319 0.23803 0.0
C3117 C 0.78525 0.94381 0.24249 0.0
C3118 C 0.80575 0.94593 0.20884 0.0
C3119 C 0.7894 0.92141 0.24518 0.0
H3120 H 0.79924 0.89753 0.20454 0.0
H3121 H 0.83128 0.90798 0.22513 0.0
H3122 H 0.77869 0.91687 0.21807 0.0
H3123 H 0.78444 0.92573 0.20553 0.0
H3124 H 0.78164 0.90957 0.20365 0.0
H3125 H 0.83228 0.92562 0.23701 0.0
H3126 H 0.82346 0.93804 0.23081 0.0
H3127 H 0.81777 0.92955 0.24363 0.0
H3128 H 0.79408 0.96406 0.22045 0.0
H3129 H 0.78 0.94332 0.25086 0.0
H3130 H 0.80222 0.93917 0.20213 0.0
H3131 H 0.8155 0.94377 0.21062 0.0
H3132 H 0.80527 0.95519 0.20467 0.0
H3133 H 0.78534 0.9142 0.23928 0.0
H3134 H 0.78356 0.92243 0.25339 0.0
H3135 H 0.79856 0.91821 0.24817 0.0
C3136 C 0.12145 0.79706 0.21584 0.0
C3137 C 0.12112 0.80741 0.20822 0.0
C3138 C 0.11088 0.79276 0.22183 0.0
C3139 C 0.09965 0.79892 0.22014 0.0
C3140 C 0.09929 0.80949 0.21262 0.0
C3141 C 0.11003 0.81362 0.20678 0.0
C3142 C 0.11168 0.78152 0.22985 0.0
C3143 C 0.08751 0.81629 0.21053 0.0
C3144 C 0.07016 0.78076 0.22528 0.0
C3145 C 0.06665 0.78463 0.23695 0.0
C3146 C 0.08083 0.78538 0.2197 0.0
C3147 C 0.08823 0.79407 0.22593 0.0
C3148 C 0.08474 0.79804 0.23771 0.0
C3149 C 0.074 0.79329 0.24307 0.0
C3150 C 0.08418 0.78095 0.20711 0.0
C3151 C 0.09241 0.80725 0.24468 0.0
H3152 H 0.13002 0.79231 0.21713 0.0
H3153 H 0.10966 0.82155 0.2008 0.0
H3154 H 0.10835 0.78357 0.23918 0.0
H3155 H 0.10568 0.77417 0.22611 0.0
H3156 H 0.12117 0.77803 0.23056 0.0
H3157 H 0.08884 0.82458 0.20476 0.0
H3158 H 0.08069 0.81021 0.206 0.0
H3159 H 0.08356 0.81905 0.21941 0.0
H3160 H 0.06445 0.77422 0.22042 0.0
H3161 H 0.07144 0.79623 0.25214 0.0
H3162 H 0.09333 0.77664 0.2074 0.0
H3163 H 0.08479 0.78879 0.20066 0.0
H3164 H 0.07742 0.77422 0.20346 0.0
H3165 H 0.10176 0.80366 0.24618 0.0
H3166 H 0.08839 0.80948 0.2537 0.0
H3167 H 0.09336 0.8158 0.23926 0.0
C3168 C 0.90473 0.20885 0.21643 0.0
C3169 C 0.89915 0.2158 0.20716 0.0
C3170 C 0.91552 0.21294 0.22226 0.0
C3171 C 0.92081 0.22432 0.21884 0.0
C3172 C 0.91515 0.23145 0.20962 0.0
C3173 C 0.90445 0.22709 0.20386 0.0
C3174 C 0.9213 0.20504 0.23203 0.0
C3175 C 0.92048 0.24366 0.20574 0.0
C3176 C 0.94305 0.2402 0.24065 0.0
C3177 C 0.95439 0.23757 0.23537 0.0
C3178 C 0.93204 0.23588 0.23543 0.0
C3179 C 0.9324 0.22867 0.22472 0.0
C3180 C 0.94384 0.22584 0.21946 0.0
C3181 C 0.95468 0.23037 0.22481 0.0
C3182 C 0.92003 0.23919 0.24125 0.0
C3183 C 0.94462 0.21808 0.20812 0.0
H3184 H 0.90063 0.20021 0.21919 0.0
H3185 H 0.90036 0.23245 0.19658 0.0
H3186 H 0.93076 0.20267 0.22932 0.0
H3187 H 0.92198 0.21014 0.24075 0.0
H3188 H 0.91603 0.19645 0.23366 0.0
H3189 H 0.91473 0.24829 0.19875 0.0
H3190 H 0.92145 0.24973 0.21379 0.0
H3191 H 0.92977 0.2424 0.20193 0.0
H3192 H 0.94277 0.24587 0.24874 0.0
H3193 H 0.96344 0.22818 0.22079 0.0
H3194 H 0.91473 0.2308 0.24357 0.0
H3195 H 0.91442 0.24452 0.23467 0.0
H3196 H 0.92133 0.24466 0.24969 0.0
H3197 H 0.94001 0.20913 0.20972 0.0
H3198 H 0.95424 0.21645 0.20535 0.0
H3199 H 0.93977 0.2226 0.20042 0.0
C3200 C 0.22133 0.69944 0.61304 0.0
C3201 C 0.21227 0.70478 0.62027 0.0
C3202 C 0.22598 0.70541 0.60262 0.0
C3203 C 0.22157 0.71709 0.59933 0.0
C3204 C 0.21252 0.72261 0.60664 0.0
C3205 C 0.20797 0.71639 0.61699 0.0
C3206 C 0.23562 0.69919 0.59509 0.0
C3207 C 0.20759 0.73506 0.60346 0.0
C3208 C 0.24159 0.73656 0.57823 0.0
C3209 C 0.23598 0.73464 0.5668 0.0
C3210 C 0.23689 0.73108 0.58891 0.0
C3211 C 0.22635 0.72343 0.58817 0.0
C3212 C 0.22059 0.72154 0.57668 0.0
C3213 C 0.22545 0.72718 0.56616 0.0
C3214 C 0.24326 0.7334 0.60099 0.0
C3215 C 0.2094 0.71339 0.57547 0.0
H3216 H 0.22489 0.69058 0.6156 0.0
H3217 H 0.20088 0.72056 0.62241 0.0
H3218 H 0.23229 0.69801 0.58556 0.0
H3219 H 0.24404 0.70496 0.5947 0.0
H3220 H 0.23806 0.69008 0.59885 0.0
H3221 H 0.20079 0.73823 0.61023 0.0
H3222 H 0.21521 0.74184 0.60299 0.0
H3223 H 0.20317 0.73482 0.5943 0.0
H3224 H 0.24963 0.74244 0.57883 0.0
H3225 H 0.22115 0.72552 0.55736 0.0
H3226 H 0.24663 0.72467 0.60486 0.0
H3227 H 0.23669 0.73718 0.60764 0.0
H3228 H 0.25114 0.73985 0.60008 0.0
H3229 H 0.21167 0.70395 0.57834 0.0
H3230 H 0.20579 0.71314 0.56595 0.0
H3231 H 0.20204 0.71659 0.58159 0.0
C3232 C 0.81042 0.70267 0.61173 0.0
C3233 C 0.8065 0.7064 0.62331 0.0
C3234 C 0.80613 0.7084 0.60104 0.0
C3235 C 0.79781 0.71818 0.60194 0.0
C3236 C 0.79401 0.72214 0.61361 0.0
C3237 C 0.79835 0.71616 0.62415 0.0
C3238 C 0.8103 0.70382 0.58876 0.0
C3239 C 0.78528 0.73263 0.61496 0.0
C3240 C 0.79428 0.73917 0.57429 0.0
C3241 C 0.78343 0.73465 0.56892 0.0
C3242 C 0.79899 0.734 0.58511 0.0
C3243 C 0.79279 0.72399 0.59064 0.0
C3244 C 0.78182 0.71942 0.58531 0.0
C3245 C 0.77725 0.72484 0.57458 0.0
C3246 C 0.81067 0.73919 0.59056 0.0
C3247 C 0.77495 0.70873 0.59091 0.0
H3248 H 0.81661 0.69505 0.61103 0.0
H3249 H 0.79541 0.71916 0.63309 0.0
H3250 H 0.80229 0.70042 0.58344 0.0
H3251 H 0.81453 0.7114 0.58341 0.0
H3252 H 0.81704 0.69634 0.58964 0.0
H3253 H 0.78359 0.7349 0.62469 0.0
H3254 H 0.78899 0.74087 0.61025 0.0
H3255 H 0.77638 0.73031 0.61054 0.0
H3256 H 0.79923 0.74663 0.56992 0.0
H3257 H 0.76875 0.72141 0.57065 0.0
H3258 H 0.81785 0.73211 0.59068 0.0
H3259 H 0.80911 0.74191 0.60018 0.0
H3260 H 0.81415 0.74726 0.58538 0.0
H3261 H 0.78098 0.70067 0.59143 0.0
H3262 H 0.76659 0.70622 0.5856 0.0
H3263 H 0.77222 0.71094 0.6004 0.0
C3264 C 0.80037 0.30397 0.62258 0.0
C3265 C 0.80844 0.31402 0.62181 0.0
C3266 C 0.79598 0.2981 0.612 0.0
C3267 C 0.79965 0.30243 0.60033 0.0
C3268 C 0.80791 0.31247 0.59949 0.0
C3269 C 0.81223 0.31812 0.61023 0.0
C3270 C 0.78729 0.28734 0.6133 0.0
C3271 C 0.81199 0.31743 0.58723 0.0
C3272 C 0.7959 0.28172 0.5726 0.0
C3273 C 0.785 0.28602 0.56732 0.0
C3274 C 0.80073 0.2869 0.58337 0.0
C3275 C 0.79457 0.29668 0.58899 0.0
C3276 C 0.78356 0.30104 0.58374 0.0
C3277 C 0.77889 0.29564 0.57303 0.0
C3278 C 0.81247 0.28196 0.58869 0.0
C3279 C 0.7767 0.31145 0.58943 0.0
H3280 H 0.79752 0.30065 0.6315 0.0
H3281 H 0.81834 0.32597 0.60954 0.0
H3282 H 0.77836 0.2895 0.60894 0.0
H3283 H 0.791 0.2793 0.60851 0.0
H3284 H 0.78565 0.28483 0.62302 0.0
H3285 H 0.81874 0.32506 0.58814 0.0
H3286 H 0.81618 0.31008 0.58177 0.0
H3287 H 0.80394 0.32076 0.58201 0.0
H3288 H 0.80079 0.27442 0.5682 0.0
H3289 H 0.77036 0.29891 0.56917 0.0
H3290 H 0.81098 0.27895 0.59828 0.0
H3291 H 0.8196 0.28927 0.58887 0.0
H3292 H 0.816 0.27414 0.58339 0.0
H3293 H 0.77402 0.309 0.59892 0.0
H3294 H 0.76831 0.31383 0.58418 0.0
H3295 H 0.78272 0.31967 0.58997 0.0
C3296 C 0.22573 0.31711 0.61773 0.0
C3297 C 0.21359 0.31556 0.6217 0.0
C3298 C 0.23001 0.31114 0.60728 0.0
C3299 C 0.22201 0.30334 0.60063 0.0
C3300 C 0.20982 0.30154 0.60469 0.0
C3301 C 0.20575 0.30768 0.61515 0.0
C3302 C 0.24309 0.31331 0.60328 0.0
C3303 C 0.20101 0.29327 0.59786 0.0
C3304 C 0.22972 0.29793 0.5672 0.0
C3305 C 0.23552 0.28657 0.56771 0.0
C3306 C 0.22515 0.3034 0.57781 0.0
C3307 C 0.22635 0.29736 0.58924 0.0
C3308 C 0.23201 0.28579 0.5898 0.0
C3309 C 0.23654 0.28055 0.57904 0.0
C3310 C 0.21916 0.31573 0.5768 0.0
C3311 C 0.23346 0.27905 0.60179 0.0
H3312 H 0.23193 0.32299 0.62284 0.0
H3313 H 0.19632 0.3065 0.61805 0.0
H3314 H 0.24797 0.3045 0.60279 0.0
H3315 H 0.24321 0.31741 0.59397 0.0
H3316 H 0.24821 0.31948 0.60958 0.0
H3317 H 0.19198 0.29245 0.60247 0.0
H3318 H 0.19953 0.29685 0.58846 0.0
H3319 H 0.20493 0.28402 0.597 0.0
H3320 H 0.22869 0.30256 0.55847 0.0
H3321 H 0.24112 0.27184 0.57956 0.0
H3322 H 0.22434 0.3225 0.58236 0.0
H3323 H 0.20972 0.31522 0.5805 0.0
H3324 H 0.2187 0.3191 0.56721 0.0
H3325 H 0.23933 0.28449 0.6081 0.0
H3326 H 0.23763 0.26993 0.60062 0.0
H3327 H 0.22441 0.27784 0.60625 0.0
C3328 C 0.20719 0.3083 0.40826 0.0
C3329 C 0.21502 0.3162 0.4017 0.0
C3330 C 0.21126 0.30221 0.41885 0.0
C3331 C 0.22344 0.30409 0.42304 0.0
C3332 C 0.23141 0.31195 0.41641 0.0
C3333 C 0.22713 0.31786 0.40582 0.0
C3334 C 0.20249 0.29388 0.42565 0.0
C3335 C 0.24446 0.3142 0.42057 0.0
C3336 C 0.23094 0.29852 0.4566 0.0
C3337 C 0.23677 0.28718 0.45625 0.0
C3338 C 0.22646 0.30406 0.44588 0.0
C3339 C 0.22778 0.2981 0.43452 0.0
C3340 C 0.23349 0.28656 0.43411 0.0
C3341 C 0.23794 0.28126 0.44497 0.0
C3342 C 0.22043 0.31636 0.44671 0.0
C3343 C 0.23504 0.2799 0.42217 0.0
H3344 H 0.19779 0.30706 0.40524 0.0
H3345 H 0.23331 0.32376 0.40071 0.0
H3346 H 0.20645 0.28464 0.42662 0.0
H3347 H 0.20101 0.29741 0.43501 0.0
H3348 H 0.19347 0.29305 0.42096 0.0
H3349 H 0.24954 0.32045 0.41431 0.0
H3350 H 0.24453 0.31823 0.42986 0.0
H3351 H 0.24942 0.30543 0.42117 0.0
H3352 H 0.2298 0.30307 0.46529 0.0
H3353 H 0.24254 0.27256 0.44459 0.0
H3354 H 0.21099 0.31582 0.44292 0.0
H3355 H 0.22558 0.32317 0.44114 0.0
H3356 H 0.21997 0.31972 0.45627 0.0
H3357 H 0.22602 0.27862 0.41761 0.0
H3358 H 0.23931 0.27082 0.42346 0.0
H3359 H 0.24086 0.28544 0.4159 0.0
C3360 C 0.20137 0.70726 0.41423 0.0
C3361 C 0.20573 0.70969 0.4024 0.0
C3362 C 0.2074 0.71196 0.42461 0.0
C3363 C 0.21805 0.71934 0.42315 0.0
C3364 C 0.22263 0.72166 0.41124 0.0
C3365 C 0.21643 0.71679 0.40102 0.0
C3366 C 0.20227 0.70918 0.43713 0.0
C3367 C 0.23392 0.72951 0.40928 0.0
C3368 C 0.22582 0.74148 0.44885 0.0
C3369 C 0.23506 0.73528 0.45525 0.0
C3370 C 0.22033 0.73647 0.43833 0.0
C3371 C 0.22414 0.72494 0.43406 0.0
C3372 C 0.23356 0.71868 0.44038 0.0
C3373 C 0.2389 0.72393 0.45088 0.0
C3374 C 0.21037 0.74348 0.43183 0.0
C3375 C 0.23785 0.70636 0.43616 0.0
H3376 H 0.19321 0.70164 0.41539 0.0
H3377 H 0.21979 0.71883 0.39191 0.0
H3378 H 0.20939 0.70493 0.44299 0.0
H3379 H 0.19953 0.71778 0.44161 0.0
H3380 H 0.19417 0.70294 0.43674 0.0
H3381 H 0.23657 0.73007 0.39949 0.0
H3382 H 0.23225 0.73889 0.41263 0.0
H3383 H 0.24173 0.72584 0.41463 0.0
H3384 H 0.22292 0.75034 0.45204 0.0
H3385 H 0.24593 0.719 0.45583 0.0
H3386 H 0.20172 0.73805 0.43185 0.0
H3387 H 0.21292 0.74506 0.42213 0.0
H3388 H 0.20864 0.75244 0.43616 0.0
H3389 H 0.23014 0.69967 0.4365 0.0
H3390 H 0.24551 0.70284 0.44186 0.0
H3391 H 0.24093 0.70694 0.42651 0.0
C3392 C 0.8045 0.70888 0.40704 0.0
C3393 C 0.81613 0.71344 0.4038 0.0
C3394 C 0.79835 0.71326 0.41737 0.0
C3395 C 0.80397 0.72236 0.42472 0.0
C3396 C 0.81569 0.72702 0.42151 0.0
C3397 C 0.82158 0.72256 0.41108 0.0
C3398 C 0.78585 0.70808 0.42046 0.0
C3399 C 0.82202 0.73671 0.4291 0.0
C3400 C 0.7846 0.74182 0.44571 0.0
C3401 C 0.78649 0.73618 0.45712 0.0
C3402 C 0.79006 0.73731 0.43507 0.0
C3403 C 0.79769 0.72696 0.43584 0.0
C3404 C 0.79958 0.72118 0.44732 0.0
C3405 C 0.79393 0.72583 0.4578 0.0
C3406 C 0.78773 0.74367 0.423 0.0
C3407 C 0.80772 0.71019 0.44856 0.0
H3408 H 0.80026 0.70174 0.40158 0.0
H3409 H 0.83045 0.72632 0.40857 0.0
H3410 H 0.78612 0.70364 0.42961 0.0
H3411 H 0.77909 0.71554 0.42092 0.0
H3412 H 0.7826 0.70126 0.41366 0.0
H3413 H 0.83115 0.73932 0.42542 0.0
H3414 H 0.81629 0.745 0.42946 0.0
H3415 H 0.8232 0.73339 0.43864 0.0
H3416 H 0.77873 0.74972 0.4451 0.0
H3417 H 0.79555 0.72151 0.4666 0.0
H3418 H 0.78388 0.73708 0.41629 0.0
H3419 H 0.79649 0.74722 0.41921 0.0
H3420 H 0.7813 0.75139 0.42389 0.0
H3421 H 0.80444 0.7028 0.44241 0.0
H3422 H 0.80802 0.70658 0.45807 0.0
H3423 H 0.81719 0.71265 0.44572 0.0
C3424 C 0.80088 0.30411 0.39982 0.0
C3425 C 0.80907 0.31405 0.40066 0.0
C3426 C 0.79638 0.29821 0.41037 0.0
C3427 C 0.80008 0.3024 0.42207 0.0
C3428 C 0.80846 0.31234 0.42298 0.0
C3429 C 0.81288 0.31801 0.41228 0.0
C3430 C 0.78758 0.28756 0.40899 0.0
C3431 C 0.81255 0.31717 0.43527 0.0
C3432 C 0.77922 0.29569 0.44917 0.0
C3433 C 0.78523 0.28599 0.45502 0.0
C3434 C 0.78394 0.30108 0.43846 0.0
C3435 C 0.79491 0.29663 0.43337 0.0
C3436 C 0.80096 0.28676 0.43913 0.0
C3437 C 0.79609 0.2816 0.44989 0.0
C3438 C 0.7772 0.31159 0.43262 0.0
C3439 C 0.81265 0.28172 0.43397 0.0
H3440 H 0.79801 0.30091 0.39088 0.0
H3441 H 0.81908 0.32578 0.41301 0.0
H3442 H 0.79119 0.27943 0.41386 0.0
H3443 H 0.77867 0.28978 0.41322 0.0
H3444 H 0.78594 0.28514 0.39926 0.0
H3445 H 0.81937 0.32474 0.43442 0.0
H3446 H 0.80452 0.32053 0.44038 0.0
H3447 H 0.81666 0.30973 0.44081 0.0
H3448 H 0.77073 0.29903 0.45291 0.0
H3449 H 0.8009 0.27422 0.4544 0.0
H3450 H 0.77453 0.30924 0.42311 0.0
H3451 H 0.78331 0.31976 0.43212 0.0
H3452 H 0.76883 0.31402 0.43774 0.0
H3453 H 0.81115 0.27881 0.42437 0.0
H3454 H 0.81607 0.2738 0.43935 0.0
H3455 H 0.81988 0.28893 0.43387 0.0
C3456 C 0.10832 0.70911 0.70371 0.0
C3457 C 0.12007 0.71241 0.70791 0.0
C3458 C 0.09775 0.71369 0.70926 0.0
C3459 C 0.09892 0.72172 0.71932 0.0
C3460 C 0.11075 0.72492 0.72375 0.0
C3461 C 0.12117 0.72027 0.71796 0.0
C3462 C 0.08532 0.71013 0.70419 0.0
C3463 C 0.11241 0.73334 0.73453 0.0
C3464 C 0.07254 0.7431 0.72599 0.0
C3465 C 0.06645 0.73698 0.73556 0.0
C3466 C 0.08309 0.73824 0.72064 0.0
C3467 C 0.08779 0.72702 0.72502 0.0
C3468 C 0.08178 0.72085 0.73475 0.0
C3469 C 0.07118 0.72587 0.73986 0.0
C3470 C 0.0892 0.74511 0.71028 0.0
C3471 C 0.08651 0.70889 0.7397 0.0
H3472 H 0.10739 0.70317 0.69585 0.0
H3473 H 0.13021 0.72275 0.72135 0.0
H3474 H 0.0796 0.70597 0.7115 0.0
H3475 H 0.08052 0.71839 0.70087 0.0
H3476 H 0.08596 0.70356 0.69653 0.0
H3477 H 0.1222 0.73463 0.7371 0.0
H3478 H 0.10848 0.7424 0.73236 0.0
H3479 H 0.10739 0.72963 0.74256 0.0
H3480 H 0.06912 0.75178 0.72272 0.0
H3481 H 0.06648 0.72096 0.74712 0.0
H3482 H 0.08951 0.73926 0.70203 0.0
H3483 H 0.09881 0.74743 0.7128 0.0
H3484 H 0.08437 0.75368 0.70788 0.0
H3485 H 0.08638 0.70192 0.73238 0.0
H3486 H 0.08098 0.70539 0.74751 0.0
H3487 H 0.09616 0.71002 0.74277 0.0
C3488 C 0.82074 0.61352 0.72468 0.0
C3489 C 0.81476 0.62179 0.71688 0.0
C3490 C 0.81484 0.60281 0.7288 0.0
C3491 C 0.80266 0.60024 0.72499 0.0
C3492 C 0.79658 0.60849 0.71708 0.0
C3493 C 0.80269 0.61917 0.71314 0.0
C3494 C 0.82165 0.59424 0.73723 0.0
C3495 C 0.78361 0.60605 0.7128 0.0
C3496 C 0.79187 0.56714 0.72708 0.0
C3497 C 0.78526 0.56705 0.73806 0.0
C3498 C 0.7974 0.57791 0.72262 0.0
C3499 C 0.79634 0.58888 0.7293 0.0
C3500 C 0.78956 0.58889 0.74031 0.0
C3501 C 0.78409 0.578 0.74454 0.0
C3502 C 0.80455 0.57751 0.71084 0.0
C3503 C 0.7882 0.6004 0.7477 0.0
H3504 H 0.83013 0.61533 0.72745 0.0
H3505 H 0.79795 0.62556 0.70723 0.0
H3506 H 0.81652 0.59301 0.7459 0.0
H3507 H 0.82234 0.58512 0.73295 0.0
H3508 H 0.83103 0.59763 0.73944 0.0
H3509 H 0.78021 0.61332 0.70656 0.0
H3510 H 0.78309 0.59718 0.70795 0.0
H3511 H 0.77741 0.60536 0.72078 0.0
H3512 H 0.79296 0.5587 0.72209 0.0
H3513 H 0.77884 0.57806 0.75293 0.0
H3514 H 0.8143 0.57989 0.71265 0.0
H3515 H 0.80098 0.58438 0.70427 0.0
H3516 H 0.8041 0.56838 0.70648 0.0
H3517 H 0.79735 0.60374 0.75074 0.0
H3518 H 0.78237 0.59896 0.75589 0.0
H3519 H 0.78412 0.60769 0.74196 0.0
C3520 C 0.91209 0.31276 0.70544 0.0
C3521 C 0.90043 0.30923 0.70962 0.0
C3522 C 0.92278 0.3083 0.71104 0.0
C3523 C 0.92182 0.30016 0.72113 0.0
C3524 C 0.91008 0.29677 0.72555 0.0
C3525 C 0.89954 0.3013 0.71973 0.0
C3526 C 0.93511 0.31208 0.70599 0.0
C3527 C 0.90864 0.28821 0.73635 0.0
C3528 C 0.94849 0.27896 0.7277 0.0
C3529 C 0.95461 0.28498 0.73731 0.0
C3530 C 0.93783 0.28379 0.72238 0.0
C3531 C 0.93308 0.2949 0.7268 0.0
C3532 C 0.93913 0.30097 0.73655 0.0
C3533 C 0.94982 0.29597 0.74167 0.0
C3534 C 0.93167 0.27702 0.712 0.0
C3535 C 0.93435 0.31282 0.74154 0.0
H3536 H 0.91286 0.31875 0.69755 0.0
H3537 H 0.89057 0.29866 0.72311 0.0
H3538 H 0.94088 0.31617 0.71332 0.0
H3539 H 0.93996 0.30394 0.7026 0.0
H3540 H 0.93431 0.31879 0.69836 0.0
H3541 H 0.8989 0.28681 0.73894 0.0
H3542 H 0.91262 0.27921 0.73416 0.0
H3543 H 0.91374 0.29187 0.74436 0.0
H3544 H 0.95197 0.27037 0.72439 0.0
H3545 H 0.95454 0.30078 0.74896 0.0
H3546 H 0.93122 0.28298 0.70377 0.0
H3547 H 0.92211 0.27458 0.71452 0.0
H3548 H 0.93655 0.26853 0.70959 0.0
H3549 H 0.9343 0.31988 0.73422 0.0
H3550 H 0.93995 0.31627 0.74934 0.0
H3551 H 0.92475 0.31155 0.74463 0.0
C3552 C 0.21349 0.40637 0.70705 0.0
C3553 C 0.2055 0.39978 0.71473 0.0
C3554 C 0.21969 0.41691 0.71121 0.0
C3555 C 0.21783 0.42099 0.72332 0.0
C3556 C 0.20993 0.41429 0.73117 0.0
C3557 C 0.2039 0.40377 0.7268 0.0
C3558 C 0.22807 0.42379 0.70257 0.0
C3559 C 0.2077 0.41831 0.74415 0.0
C3560 C 0.24068 0.44293 0.73828 0.0
C3561 C 0.23468 0.45415 0.73708 0.0
C3562 C 0.23542 0.4321 0.73367 0.0
C3563 C 0.22386 0.43247 0.72773 0.0
C3564 C 0.21784 0.44378 0.72634 0.0
C3565 C 0.22332 0.45446 0.731 0.0
C3566 C 0.24213 0.42023 0.73533 0.0
C3567 C 0.20552 0.44458 0.72005 0.0
H3568 H 0.2147 0.40346 0.69769 0.0
H3569 H 0.19793 0.39862 0.73288 0.0
H3570 H 0.22452 0.43311 0.70095 0.0
H3571 H 0.23733 0.42481 0.70671 0.0
H3572 H 0.22894 0.41915 0.69362 0.0
H3573 H 0.20147 0.41196 0.74916 0.0
H3574 H 0.21651 0.41895 0.74922 0.0
H3575 H 0.20362 0.42754 0.74413 0.0
H3576 H 0.24939 0.44256 0.74306 0.0
H3577 H 0.21871 0.4631 0.72983 0.0
H3578 H 0.24338 0.41576 0.72635 0.0
H3579 H 0.23663 0.41388 0.7411 0.0
H3580 H 0.25127 0.42156 0.73969 0.0
H3581 H 0.20608 0.44084 0.71066 0.0
H3582 H 0.20217 0.45411 0.71946 0.0
H3583 H 0.19866 0.43896 0.7251 0.0
C3584 C 0.11787 0.2929 0.31865 0.0
C3585 C 0.12207 0.30499 0.31723 0.0
C3586 C 0.10726 0.2887 0.31262 0.0
C3587 C 0.10069 0.29675 0.30489 0.0
C3588 C 0.10497 0.3089 0.30324 0.0
C3589 C 0.11559 0.31288 0.30945 0.0
C3590 C 0.10299 0.27567 0.31463 0.0
C3591 C 0.09824 0.31775 0.29505 0.0
C3592 C 0.07855 0.28258 0.28183 0.0
C3593 C 0.06728 0.28369 0.28782 0.0
C3594 C 0.08948 0.28695 0.28719 0.0
C3595 C 0.08914 0.29252 0.29884 0.0
C3596 C 0.07779 0.29378 0.30487 0.0
C3597 C 0.06701 0.2894 0.29928 0.0
C3598 C 0.1014 0.28546 0.28045 0.0
C3599 C 0.07704 0.29967 0.3173 0.0
H3600 H 0.12293 0.28667 0.32447 0.0
H3601 H 0.11866 0.32228 0.3084 0.0
H3602 H 0.0937 0.27557 0.31871 0.0
H3603 H 0.10231 0.27085 0.30576 0.0
H3604 H 0.10924 0.27052 0.32077 0.0
H3605 H 0.10304 0.32673 0.29433 0.0
H3606 H 0.0972 0.31389 0.28573 0.0
H3607 H 0.0889 0.31923 0.29864 0.0
H3608 H 0.07887 0.27807 0.27304 0.0
H3609 H 0.05832 0.29049 0.30389 0.0
H3610 H 0.10763 0.27957 0.28586 0.0
H3611 H 0.10605 0.29446 0.27932 0.0
H3612 H 0.10005 0.28133 0.27127 0.0
H3613 H 0.08258 0.29444 0.32402 0.0
H3614 H 0.06748 0.30011 0.32069 0.0
H3615 H 0.08092 0.30907 0.31691 0.0
C3616 C 0.20492 0.61157 0.30819 0.0
C3617 C 0.21252 0.61788 0.31649 0.0
C3618 C 0.20908 0.60119 0.30201 0.0
C3619 C 0.22113 0.59697 0.30417 0.0
C3620 C 0.22889 0.60339 0.3124 0.0
C3621 C 0.22451 0.61375 0.31841 0.0
C3622 C 0.20053 0.59462 0.2933 0.0
C3623 C 0.2418 0.59923 0.31496 0.0
C3624 C 0.22865 0.56364 0.29836 0.0
C3625 C 0.23493 0.56432 0.2872 0.0
C3626 C 0.22397 0.57415 0.30388 0.0
C3627 C 0.22556 0.58567 0.2981 0.0
C3628 C 0.23173 0.58642 0.28675 0.0
C3629 C 0.23635 0.57575 0.28145 0.0
C3630 C 0.21743 0.57294 0.31597 0.0
C3631 C 0.23363 0.59851 0.28029 0.0
H3632 H 0.19561 0.61459 0.30672 0.0
H3633 H 0.23054 0.61868 0.32461 0.0
H3634 H 0.20482 0.59391 0.28415 0.0
H3635 H 0.19878 0.58517 0.29664 0.0
H3636 H 0.19161 0.5993 0.29226 0.0
H3637 H 0.24675 0.60535 0.32143 0.0
H3638 H 0.2416 0.58986 0.31887 0.0
H3639 H 0.24705 0.59888 0.30631 0.0
H3640 H 0.22731 0.55485 0.30278 0.0
H3641 H 0.2413 0.57641 0.2729 0.0
H3642 H 0.20807 0.57673 0.3152 0.0
H3643 H 0.2224 0.5783 0.32305 0.0
H3644 H 0.21669 0.5633 0.31913 0.0
H3645 H 0.2247 0.60305 0.27884 0.0
H3646 H 0.23817 0.59749 0.27129 0.0
H3647 H 0.23934 0.60466 0.28607 0.0
C3648 C 0.89988 0.71636 0.30508 0.0
C3649 C 0.90103 0.70531 0.31154 0.0
C3650 C 0.91023 0.72251 0.30037 0.0
C3651 C 0.92202 0.71754 0.30222 0.0
C3652 C 0.92325 0.70653 0.30895 0.0
C3653 C 0.91276 0.70054 0.31349 0.0
C3654 C 0.90851 0.73419 0.29319 0.0
C3655 C 0.93567 0.70098 0.31122 0.0
C3656 C 0.94768 0.72585 0.28014 0.0
C3657 C 0.95441 0.73458 0.2868 0.0
C3658 C 0.93705 0.72036 0.28499 0.0
C3659 C 0.93304 0.72364 0.29681 0.0
C3660 C 0.93971 0.73255 0.30353 0.0
C3661 C 0.9503 0.73793 0.29844 0.0
C3662 C 0.93016 0.71097 0.27749 0.0
C3663 C 0.93578 0.73626 0.31618 0.0
H3664 H 0.89084 0.72003 0.30342 0.0
H3665 H 0.91373 0.6921 0.31862 0.0
H3666 H 0.91412 0.74165 0.29726 0.0
H3667 H 0.91172 0.73296 0.28367 0.0
H3668 H 0.89879 0.73707 0.29291 0.0
H3669 H 0.93511 0.6926 0.31698 0.0
H3670 H 0.93995 0.69862 0.30238 0.0
H3671 H 0.94181 0.7077 0.31581 0.0
H3672 H 0.9507 0.72334 0.27108 0.0
H3673 H 0.95551 0.74457 0.30369 0.0
H3674 H 0.92051 0.71379 0.27622 0.0
H3675 H 0.93001 0.70207 0.2824 0.0
H3676 H 0.93432 0.70964 0.26834 0.0
H3677 H 0.92622 0.73958 0.31592 0.0
H3678 H 0.94177 0.74355 0.32008 0.0
H3679 H 0.93595 0.72823 0.32241 0.0
C3680 C 0.80778 0.40789 0.31586 0.0
C3681 C 0.81614 0.40187 0.30835 0.0
C3682 C 0.80163 0.41838 0.31173 0.0
C3683 C 0.8039 0.42298 0.2998 0.0
C3684 C 0.8122 0.41685 0.29212 0.0
C3685 C 0.81818 0.40638 0.29647 0.0
C3686 C 0.79284 0.42464 0.32019 0.0
C3687 C 0.81487 0.42141 0.27934 0.0
C3688 C 0.78126 0.4445 0.28444 0.0
C3689 C 0.78703 0.45591 0.28606 0.0
C3690 C 0.78653 0.43373 0.28903 0.0
C3691 C 0.79786 0.43436 0.2954 0.0
C3692 C 0.80364 0.44587 0.29721 0.0
C3693 C 0.79816 0.45648 0.29253 0.0
C3694 C 0.78007 0.42166 0.28689 0.0
C3695 C 0.8157 0.44696 0.30397 0.0
H3696 H 0.80622 0.40457 0.32508 0.0
H3697 H 0.82444 0.40168 0.29051 0.0
H3698 H 0.79617 0.43405 0.32209 0.0
H3699 H 0.78372 0.4254 0.31575 0.0
H3700 H 0.79176 0.41969 0.32902 0.0
H3701 H 0.82139 0.41549 0.27444 0.0
H3702 H 0.80625 0.42188 0.27394 0.0
H3703 H 0.81878 0.4308 0.27972 0.0
H3704 H 0.77272 0.44394 0.27935 0.0
H3705 H 0.8026 0.46526 0.294 0.0
H3706 H 0.77854 0.41686 0.29572 0.0
H3707 H 0.78591 0.41571 0.28123 0.0
H3708 H 0.7711 0.42276 0.28218 0.0
H3709 H 0.81486 0.44287 0.31325 0.0
H3710 H 0.81885 0.4566 0.3049 0.0
H3711 H 0.82284 0.44181 0.29907 0.0
C3712 C 0.20028 0.60663 0.71016 0.0
C3713 C 0.20484 0.61843 0.71253 0.0
C3714 C 0.20624 0.59623 0.71471 0.0
C3715 C 0.21701 0.59763 0.72188 0.0
C3716 C 0.22177 0.6095 0.72416 0.0
C3717 C 0.21565 0.61974 0.71944 0.0
C3718 C 0.20092 0.58375 0.71198 0.0
C3719 C 0.23319 0.61139 0.7318 0.0
C3720 C 0.22497 0.57167 0.74374 0.0
C3721 C 0.23409 0.56552 0.73729 0.0
C3722 C 0.21944 0.58218 0.73889 0.0
C3723 C 0.22308 0.58668 0.72727 0.0
C3724 C 0.23235 0.58059 0.72075 0.0
C3725 C 0.23775 0.57011 0.72584 0.0
C3726 C 0.20965 0.58843 0.74618 0.0
C3727 C 0.23646 0.58506 0.70832 0.0
H3728 H 0.19203 0.60553 0.70469 0.0
H3729 H 0.21916 0.62882 0.72143 0.0
H3730 H 0.20789 0.57802 0.70751 0.0
H3731 H 0.19829 0.5791 0.72063 0.0
H3732 H 0.19271 0.5842 0.70593 0.0
H3733 H 0.23594 0.62117 0.7324 0.0
H3734 H 0.23164 0.60782 0.7412 0.0
H3735 H 0.2409 0.60621 0.72789 0.0
H3736 H 0.22221 0.56831 0.75267 0.0
H3737 H 0.24468 0.56535 0.72072 0.0
H3738 H 0.20092 0.58844 0.74093 0.0
H3739 H 0.2123 0.5981 0.74779 0.0
H3740 H 0.20801 0.58391 0.75516 0.0
H3741 H 0.22862 0.58481 0.70182 0.0
H3742 H 0.24397 0.57947 0.70455 0.0
H3743 H 0.23968 0.59469 0.7089 0.0
C3744 C 0.21742 0.40116 0.31068 0.0
C3745 C 0.20526 0.39864 0.30716 0.0
C3746 C 0.22355 0.41176 0.30657 0.0
C3747 C 0.21742 0.42002 0.2987 0.0
C3748 C 0.20515 0.41754 0.29514 0.0
C3749 C 0.19922 0.40692 0.29943 0.0
C3750 C 0.23662 0.4141 0.3106 0.0
C3751 C 0.19828 0.42612 0.28677 0.0
C3752 C 0.22851 0.45298 0.29606 0.0
C3753 C 0.23491 0.45288 0.28496 0.0
C3754 C 0.22297 0.44231 0.30075 0.0
C3755 C 0.22379 0.43126 0.29416 0.0
C3756 C 0.23036 0.43105 0.28304 0.0
C3757 C 0.23586 0.44184 0.27859 0.0
C3758 C 0.21606 0.44291 0.31266 0.0
C3759 C 0.23145 0.41945 0.27574 0.0
H3760 H 0.22221 0.39475 0.31653 0.0
H3761 H 0.18977 0.40517 0.29683 0.0
H3762 H 0.24269 0.41461 0.3025 0.0
H3763 H 0.23734 0.42302 0.31532 0.0
H3764 H 0.24004 0.40687 0.31687 0.0
H3765 H 0.18881 0.42284 0.28479 0.0
H3766 H 0.19779 0.43529 0.29098 0.0
H3767 H 0.20324 0.4272 0.27799 0.0
H3768 H 0.22759 0.46148 0.30098 0.0
H3769 H 0.24095 0.44163 0.2701 0.0
H3770 H 0.21966 0.43605 0.31923 0.0
H3771 H 0.20625 0.44065 0.31106 0.0
H3772 H 0.21672 0.45208 0.31693 0.0
H3773 H 0.23556 0.41217 0.28148 0.0
H3774 H 0.23714 0.42074 0.26743 0.0
H3775 H 0.2222 0.41618 0.27291 0.0
C3776 C 0.12061 0.71426 0.30355 0.0
C3777 C 0.1192 0.70336 0.31025 0.0
C3778 C 0.11039 0.72054 0.29895 0.0
C3779 C 0.09844 0.71586 0.30115 0.0
C3780 C 0.09694 0.70499 0.3081 0.0
C3781 C 0.10732 0.69887 0.31253 0.0
C3782 C 0.11239 0.73206 0.29153 0.0
C3783 C 0.08437 0.69974 0.31075 0.0
C3784 C 0.07099 0.73683 0.29769 0.0
C3785 C 0.06632 0.73343 0.2862 0.0
C3786 C 0.08148 0.73127 0.30263 0.0
C3787 C 0.0875 0.72212 0.2959 0.0
C3788 C 0.08292 0.71876 0.28423 0.0
C3789 C 0.0724 0.72444 0.27954 0.0
C3790 C 0.08603 0.73508 0.31512 0.0
C3791 C 0.08909 0.70911 0.27672 0.0
H3792 H 0.12975 0.71772 0.30163 0.0
H3793 H 0.10614 0.69055 0.31784 0.0
H3794 H 0.10877 0.73074 0.28212 0.0
H3795 H 0.10728 0.73971 0.29562 0.0
H3796 H 0.12222 0.73471 0.29096 0.0
H3797 H 0.08475 0.69143 0.31661 0.0
H3798 H 0.0787 0.70664 0.31538 0.0
H3799 H 0.07967 0.69735 0.30205 0.0
H3800 H 0.06628 0.74366 0.30297 0.0
H3801 H 0.06897 0.72188 0.27058 0.0
H3802 H 0.09572 0.73819 0.31459 0.0
H3803 H 0.08571 0.72714 0.32147 0.0
H3804 H 0.08051 0.74254 0.31905 0.0
H3805 H 0.09882 0.71169 0.27516 0.0
H3806 H 0.08455 0.70772 0.26772 0.0
H3807 H 0.08902 0.70029 0.28178 0.0
C3808 C 0.81009 0.61881 0.30561 0.0
C3809 C 0.80652 0.62095 0.31772 0.0
C3810 C 0.80605 0.60834 0.29931 0.0
C3811 C 0.79822 0.59979 0.30524 0.0
C3812 C 0.79462 0.60186 0.31747 0.0
C3813 C 0.79883 0.61237 0.32356 0.0
C3814 C 0.8101 0.60645 0.28628 0.0
C3815 C 0.78631 0.59296 0.32414 0.0
C3816 C 0.77818 0.57826 0.28632 0.0
C3817 C 0.78465 0.56728 0.28714 0.0
C3818 C 0.78257 0.58894 0.29201 0.0
C3819 C 0.79373 0.58867 0.29868 0.0
C3820 C 0.80041 0.57768 0.29939 0.0
C3821 C 0.79578 0.56713 0.29364 0.0
C3822 C 0.77519 0.60047 0.29101 0.0
C3823 C 0.81234 0.577 0.30641 0.0
H3824 H 0.8159 0.62544 0.30097 0.0
H3825 H 0.79619 0.61381 0.33298 0.0
H3826 H 0.81488 0.59761 0.2855 0.0
H3827 H 0.80199 0.60603 0.28013 0.0
H3828 H 0.81634 0.61386 0.28302 0.0
H3829 H 0.78433 0.59592 0.33362 0.0
H3830 H 0.77751 0.59194 0.3191 0.0
H3831 H 0.79058 0.58382 0.32453 0.0
H3832 H 0.76968 0.57853 0.28117 0.0
H3833 H 0.80078 0.55867 0.29447 0.0
H3834 H 0.78088 0.60795 0.28706 0.0
H3835 H 0.77234 0.60342 0.30026 0.0
H3836 H 0.76686 0.59925 0.28524 0.0
H3837 H 0.81887 0.58404 0.30296 0.0
H3838 H 0.81666 0.56791 0.30569 0.0
H3839 H 0.81072 0.57895 0.31621 0.0
C3840 C 0.90032 0.30129 0.30398 0.0
C3841 C 0.90126 0.30913 0.31406 0.0
C3842 C 0.91083 0.29682 0.29822 0.0
C3843 C 0.92259 0.30018 0.3027 0.0
C3844 C 0.9236 0.30822 0.31277 0.0
C3845 C 0.91294 0.31263 0.31829 0.0
C3846 C 0.90934 0.28838 0.28743 0.0
C3847 C 0.93596 0.31196 0.31788 0.0
C3848 C 0.94923 0.27908 0.29626 0.0
C3849 C 0.95531 0.28522 0.2867 0.0
C3850 C 0.9386 0.28384 0.30153 0.0
C3851 C 0.93383 0.295 0.29709 0.0
C3852 C 0.93982 0.3012 0.28737 0.0
C3853 C 0.95049 0.29627 0.28233 0.0
C3854 C 0.9325 0.27694 0.31188 0.0
C3855 C 0.935 0.31309 0.28235 0.0
H3856 H 0.89133 0.29867 0.30056 0.0
H3857 H 0.91375 0.31856 0.32617 0.0
H3858 H 0.9144 0.29213 0.27943 0.0
H3859 H 0.91334 0.27936 0.28964 0.0
H3860 H 0.89959 0.28699 0.28478 0.0
H3861 H 0.9352 0.31857 0.32551 0.0
H3862 H 0.94084 0.30378 0.32129 0.0
H3863 H 0.94168 0.31615 0.31058 0.0
H3864 H 0.95272 0.27044 0.29958 0.0
H3865 H 0.95518 0.30119 0.27508 0.0
H3866 H 0.92294 0.2745 0.3093 0.0
H3867 H 0.93207 0.28281 0.3201 0.0
H3868 H 0.93741 0.26844 0.31434 0.0
H3869 H 0.92538 0.31185 0.27921 0.0
H3870 H 0.94055 0.31664 0.27458 0.0
H3871 H 0.93499 0.32008 0.28966 0.0
C3872 C 0.80524 0.40049 0.72376 0.0
C3873 C 0.81338 0.401 0.71387 0.0
C3874 C 0.7995 0.41105 0.72803 0.0
C3875 C 0.80197 0.42246 0.72232 0.0
C3876 C 0.81002 0.42301 0.71219 0.0
C3877 C 0.8156 0.41229 0.70808 0.0
C3878 C 0.79092 0.41004 0.73879 0.0
C3879 C 0.81293 0.43498 0.70586 0.0
C3880 C 0.77985 0.44859 0.72746 0.0
C3881 C 0.78585 0.45528 0.73669 0.0
C3882 C 0.78499 0.43793 0.72266 0.0
C3883 C 0.79643 0.43384 0.72717 0.0
C3884 C 0.80256 0.44058 0.73644 0.0
C3885 C 0.7972 0.45119 0.74107 0.0
C3886 C 0.77815 0.43099 0.71283 0.0
C3887 C 0.81479 0.43657 0.74147 0.0
H3888 H 0.80334 0.39179 0.72818 0.0
H3889 H 0.82197 0.4128 0.70052 0.0
H3890 H 0.79456 0.41553 0.74652 0.0
H3891 H 0.78184 0.41379 0.73631 0.0
H3892 H 0.78963 0.40045 0.74195 0.0
H3893 H 0.81902 0.43381 0.69785 0.0
H3894 H 0.80436 0.43938 0.70273 0.0
H3895 H 0.81749 0.44131 0.7124 0.0
H3896 H 0.77101 0.45158 0.72411 0.0
H3897 H 0.802 0.45639 0.74806 0.0
H3898 H 0.77605 0.42158 0.71606 0.0
H3899 H 0.78394 0.43021 0.70457 0.0
H3900 H 0.76943 0.43545 0.71019 0.0
H3901 H 0.81392 0.42728 0.74549 0.0
H3902 H 0.8184 0.44286 0.74861 0.0
H3903 H 0.82157 0.4361 0.73398 0.0
C3904 C 0.1212 0.3011 0.71719 0.0
C3905 C 0.11993 0.30754 0.70613 0.0
C3906 C 0.1109 0.2965 0.72346 0.0
C3907 C 0.09902 0.29845 0.71858 0.0
C3908 C 0.09767 0.30514 0.70754 0.0
C3909 C 0.10813 0.30956 0.70143 0.0
C3910 C 0.11273 0.28936 0.73517 0.0
C3911 C 0.08518 0.30751 0.70209 0.0
C3912 C 0.07292 0.27681 0.72733 0.0
C3913 C 0.06667 0.28359 0.73612 0.0
C3914 C 0.08353 0.28148 0.72168 0.0
C3915 C 0.08801 0.29324 0.72485 0.0
C3916 C 0.08182 0.30008 0.73382 0.0
C3917 C 0.07125 0.29517 0.73936 0.0
C3918 C 0.08991 0.27384 0.71224 0.0
C3919 C 0.08626 0.31268 0.73741 0.0
H3920 H 0.13029 0.2994 0.72081 0.0
H3921 H 0.10708 0.31466 0.69297 0.0
H3922 H 0.10749 0.29356 0.74269 0.0
H3923 H 0.10916 0.27991 0.73402 0.0
H3924 H 0.12253 0.28893 0.73792 0.0
H3925 H 0.08567 0.31319 0.69365 0.0
H3926 H 0.08056 0.29872 0.69985 0.0
H3927 H 0.07936 0.31222 0.70884 0.0
H3928 H 0.06954 0.2678 0.7249 0.0
H3929 H 0.0664 0.30051 0.74605 0.0
H3930 H 0.09961 0.27246 0.71495 0.0
H3931 H 0.08994 0.27869 0.7033 0.0
H3932 H 0.08544 0.26476 0.71101 0.0
H3933 H 0.0959 0.31231 0.74063 0.0
H3934 H 0.0806 0.3167 0.74474 0.0
H3935 H 0.08605 0.31884 0.72932 0.0
C3936 C 0.89978 0.71964 0.71755 0.0
C3937 C 0.90078 0.71353 0.70636 0.0
C3938 C 0.91022 0.72426 0.72362 0.0
C3939 C 0.92194 0.72266 0.71841 0.0
C3940 C 0.92302 0.71629 0.70724 0.0
C3941 C 0.91243 0.71184 0.70134 0.0
C3942 C 0.90868 0.73106 0.73547 0.0
C3943 C 0.93536 0.7143 0.70144 0.0
C3944 C 0.94785 0.74463 0.72679 0.0
C3945 C 0.95455 0.73776 0.73532 0.0
C3946 C 0.93715 0.73988 0.72133 0.0
C3947 C 0.93305 0.72794 0.72444 0.0
C3948 C 0.9397 0.721 0.73314 0.0
C3949 C 0.95036 0.726 0.73849 0.0
C3950 C 0.93027 0.7476 0.71216 0.0
C3951 C 0.93567 0.70823 0.73666 0.0
H3952 H 0.8908 0.72108 0.72141 0.0
H3953 H 0.91327 0.70698 0.69277 0.0
H3954 H 0.9143 0.72679 0.74279 0.0
H3955 H 0.912 0.74061 0.73437 0.0
H3956 H 0.89898 0.7312 0.7385 0.0
H3957 H 0.93467 0.70882 0.69294 0.0
H3958 H 0.93972 0.72324 0.69919 0.0
H3959 H 0.94152 0.70956 0.70798 0.0
H3960 H 0.95094 0.75378 0.72443 0.0
H3961 H 0.95556 0.7206 0.74498 0.0
H3962 H 0.92066 0.74872 0.71515 0.0
H3963 H 0.92999 0.74297 0.70316 0.0
H3964 H 0.93452 0.75679 0.71093 0.0
H3965 H 0.92614 0.70831 0.74015 0.0
H3966 H 0.94169 0.70414 0.74377 0.0
H3967 H 0.93569 0.70228 0.72848 0.0
C3968 C 0.7062 0.21508 0.61559 0.0
C3969 C 0.71338 0.20644 0.62179 0.0
C3970 C 0.71039 0.22085 0.60484 0.0
C3971 C 0.72208 0.21798 0.60017 0.0
C3972 C 0.7294 0.20933 0.6064 0.0
C3973 C 0.72496 0.20365 0.61707 0.0
C3974 C 0.7023 0.23001 0.59846 0.0
C3975 C 0.74192 0.206 0.60174 0.0
C3976 C 0.72917 0.22365 0.56652 0.0
C3977 C 0.73614 0.23449 0.56696 0.0
C3978 C 0.72438 0.21829 0.57722 0.0
C3979 C 0.72664 0.22388 0.58868 0.0
C3980 C 0.73355 0.23491 0.58918 0.0
C3981 C 0.73819 0.24009 0.57832 0.0
C3982 C 0.71699 0.20659 0.57627 0.0
C3983 C 0.73623 0.24112 0.60121 0.0
H3984 H 0.69731 0.21743 0.61921 0.0
H3985 H 0.73051 0.19684 0.62163 0.0
H3986 H 0.70708 0.23899 0.59787 0.0
H3987 H 0.70037 0.22702 0.58895 0.0
H3988 H 0.69344 0.23123 0.60324 0.0
H3989 H 0.74659 0.19931 0.60779 0.0
H3990 H 0.74108 0.20203 0.59245 0.0
H3991 H 0.74779 0.21431 0.60097 0.0
H3992 H 0.72739 0.21936 0.55777 0.0
H3993 H 0.74367 0.2484 0.57876 0.0
H3994 H 0.70782 0.20781 0.58038 0.0
H3995 H 0.72159 0.19922 0.58149 0.0
H3996 H 0.71577 0.20358 0.56665 0.0
H3997 H 0.72755 0.24303 0.60603 0.0
H3998 H 0.74141 0.24984 0.60001 0.0
H3999 H 0.74164 0.23498 0.6072 0.0
C4000 C 0.29779 0.21637 0.62398 0.0
C4001 C 0.30583 0.20651 0.62316 0.0
C4002 C 0.29339 0.22226 0.61341 0.0
C4003 C 0.297 0.21811 0.60174 0.0
C4004 C 0.30519 0.20822 0.60087 0.0
C4005 C 0.30956 0.20259 0.61159 0.0
C4006 C 0.2848 0.23286 0.61473 0.0
C4007 C 0.30917 0.20344 0.5886 0.0
C4008 C 0.27632 0.22487 0.5745 0.0
C4009 C 0.2826 0.23456 0.56873 0.0
C4010 C 0.2809 0.21945 0.58523 0.0
C4011 C 0.29198 0.22389 0.59044 0.0
C4012 C 0.29829 0.23376 0.58478 0.0
C4013 C 0.29357 0.23893 0.57397 0.0
C4014 C 0.27392 0.20891 0.59096 0.0
C4015 C 0.31009 0.23881 0.59009 0.0
H4016 H 0.295 0.21952 0.63291 0.0
H4017 H 0.31566 0.19489 0.61091 0.0
H4018 H 0.28859 0.24102 0.60994 0.0
H4019 H 0.27585 0.23063 0.61038 0.0
H4020 H 0.28319 0.23523 0.62446 0.0
H4021 H 0.31578 0.19585 0.5895 0.0
H4022 H 0.30105 0.20013 0.58338 0.0
H4023 H 0.31349 0.21089 0.58315 0.0
H4024 H 0.26773 0.22156 0.57066 0.0
H4025 H 0.2986 0.24629 0.56952 0.0
H4026 H 0.27128 0.21124 0.60044 0.0
H4027 H 0.27984 0.20076 0.59151 0.0
H4028 H 0.26549 0.20648 0.58572 0.0
H4029 H 0.30865 0.24166 0.5997 0.0
H4030 H 0.31368 0.24677 0.58481 0.0
H4031 H 0.31716 0.23161 0.59024 0.0
C4032 C 0.29948 0.82213 0.61248 0.0
C4033 C 0.30847 0.81683 0.61999 0.0
C4034 C 0.295 0.81614 0.602 0.0
C4035 C 0.29953 0.80448 0.59896 0.0
C4036 C 0.30853 0.79903 0.60653 0.0
C4037 C 0.31291 0.80527 0.61692 0.0
C4038 C 0.28541 0.82229 0.59418 0.0
C4039 C 0.31357 0.78661 0.60363 0.0
C4040 C 0.27981 0.78473 0.57785 0.0
C4041 C 0.28552 0.78658 0.5665 0.0
C4042 C 0.28437 0.79035 0.58851 0.0
C4043 C 0.29486 0.79807 0.58782 0.0
C4044 C 0.30071 0.79989 0.57641 0.0
C4045 C 0.296 0.79412 0.56591 0.0
C4046 C 0.27792 0.78807 0.6005 0.0
C4047 C 0.31186 0.80812 0.57525 0.0
H4048 H 0.2958 0.83094 0.61486 0.0
H4049 H 0.31996 0.80114 0.62255 0.0
H4050 H 0.28881 0.8234 0.58469 0.0
H4051 H 0.27701 0.8165 0.59376 0.0
H4052 H 0.28293 0.83141 0.59773 0.0
H4053 H 0.32037 0.78351 0.61055 0.0
H4054 H 0.306 0.77977 0.60315 0.0
H4055 H 0.31803 0.78684 0.59453 0.0
H4056 H 0.27182 0.77879 0.57842 0.0
H4057 H 0.30037 0.79572 0.55716 0.0
H4058 H 0.27448 0.79681 0.60416 0.0
H4059 H 0.28444 0.78435 0.60735 0.0
H4060 H 0.27007 0.78158 0.59956 0.0
H4061 H 0.3095 0.81756 0.57793 0.0
H4062 H 0.31552 0.80835 0.56578 0.0
H4063 H 0.3192 0.805 0.58155 0.0
C4064 C 0.72585 0.81724 0.61723 0.0
C4065 C 0.71444 0.81416 0.62235 0.0
C4066 C 0.73005 0.81147 0.60663 0.0
C4067 C 0.72265 0.80245 0.60091 0.0
C4068 C 0.71113 0.79928 0.606 0.0
C4069 C 0.70718 0.80513 0.61667 0.0
C4070 C 0.7424 0.81511 0.60151 0.0
C4071 C 0.70295 0.78973 0.60015 0.0
C4072 C 0.72882 0.79639 0.56727 0.0
C4073 C 0.73586 0.78576 0.56784 0.0
C4074 C 0.72429 0.80178 0.57793 0.0
C4075 C 0.72692 0.79648 0.58948 0.0
C4076 C 0.7339 0.78567 0.59012 0.0
C4077 C 0.73825 0.78042 0.57929 0.0
C4078 C 0.71678 0.81323 0.57683 0.0
C4079 C 0.73698 0.77978 0.60226 0.0
H4080 H 0.73144 0.82434 0.62139 0.0
H4081 H 0.69844 0.80255 0.62063 0.0
H4082 H 0.74831 0.80697 0.6008 0.0
H4083 H 0.74127 0.81889 0.59214 0.0
H4084 H 0.74719 0.82205 0.60723 0.0
H4085 H 0.69425 0.78831 0.60522 0.0
H4086 H 0.70072 0.79247 0.59061 0.0
H4087 H 0.70779 0.7809 0.59971 0.0
H4088 H 0.7268 0.80047 0.55844 0.0
H4089 H 0.74379 0.77228 0.57981 0.0
H4090 H 0.72149 0.82085 0.58166 0.0
H4091 H 0.70776 0.81181 0.58127 0.0
H4092 H 0.71524 0.81601 0.56716 0.0
H4093 H 0.74251 0.78621 0.60789 0.0
H4094 H 0.74221 0.77121 0.60117 0.0
H4095 H 0.72847 0.77768 0.60739 0.0
C4096 C 0.70894 0.80407 0.40598 0.0
C4097 C 0.71595 0.81343 0.4005 0.0
C4098 C 0.71291 0.79826 0.41677 0.0
C4099 C 0.72421 0.80182 0.42218 0.0
C4100 C 0.7314 0.81113 0.41662 0.0
C4101 C 0.72716 0.81686 0.4059 0.0
C4102 C 0.70496 0.7884 0.42245 0.0
C4103 C 0.74352 0.81516 0.42208 0.0
C4104 C 0.72973 0.79592 0.45606 0.0
C4105 C 0.73709 0.78552 0.45585 0.0
C4106 C 0.72532 0.8012 0.44518 0.0
C4107 C 0.72841 0.796 0.4338 0.0
C4108 C 0.73576 0.78543 0.43352 0.0
C4109 C 0.73998 0.78029 0.44455 0.0
C4110 C 0.71741 0.81239 0.44587 0.0
C4111 C 0.73935 0.77968 0.42156 0.0
H4112 H 0.70036 0.80121 0.40179 0.0
H4113 H 0.73255 0.82421 0.40189 0.0
H4114 H 0.71014 0.77977 0.42319 0.0
H4115 H 0.70237 0.79105 0.43186 0.0
H4116 H 0.69646 0.78664 0.41707 0.0
H4117 H 0.74822 0.82222 0.4164 0.0
H4118 H 0.74206 0.81894 0.43134 0.0
H4119 H 0.74966 0.80722 0.42311 0.0
H4120 H 0.72734 0.7999 0.46477 0.0
H4121 H 0.74576 0.77232 0.44433 0.0
H4122 H 0.70853 0.81067 0.44116 0.0
H4123 H 0.72197 0.82016 0.44109 0.0
H4124 H 0.71557 0.81511 0.45546 0.0
H4125 H 0.73103 0.77725 0.41618 0.0
H4126 H 0.74487 0.77132 0.42293 0.0
H4127 H 0.74475 0.78632 0.41603 0.0
C4128 C 0.71467 0.21938 0.4011 0.0
C4129 C 0.70585 0.21003 0.40236 0.0
C4130 C 0.72074 0.22429 0.41137 0.0
C4131 C 0.71799 0.21969 0.4232 0.0
C4132 C 0.70926 0.21009 0.4245 0.0
C4133 C 0.70329 0.20541 0.41408 0.0
C4134 C 0.72991 0.23457 0.40959 0.0
C4135 C 0.70615 0.20484 0.43692 0.0
C4136 C 0.74061 0.22553 0.44927 0.0
C4137 C 0.73512 0.23524 0.45545 0.0
C4138 C 0.73517 0.22041 0.43876 0.0
C4139 C 0.72399 0.22513 0.43424 0.0
C4140 C 0.71845 0.23498 0.44036 0.0
C4141 C 0.72405 0.23988 0.45089 0.0
C4142 C 0.74136 0.2099 0.43252 0.0
C4143 C 0.70655 0.2403 0.43584 0.0
H4144 H 0.71661 0.2231 0.3921 0.0
H4145 H 0.6966 0.19808 0.41511 0.0
H4146 H 0.72674 0.24285 0.41438 0.0
H4147 H 0.73887 0.23207 0.41367 0.0
H4148 H 0.73129 0.23687 0.39978 0.0
H4149 H 0.69945 0.19715 0.43635 0.0
H4150 H 0.71458 0.20154 0.44153 0.0
H4151 H 0.70227 0.21205 0.44278 0.0
H4152 H 0.74924 0.22198 0.45258 0.0
H4153 H 0.71961 0.24724 0.45567 0.0
H4154 H 0.74345 0.21237 0.4229 0.0
H4155 H 0.73511 0.20183 0.43231 0.0
H4156 H 0.75001 0.20726 0.43719 0.0
H4157 H 0.70752 0.2434 0.42621 0.0
H4158 H 0.70358 0.24815 0.44144 0.0
H4159 H 0.69922 0.23319 0.43603 0.0
C4160 C 0.32062 0.22172 0.41144 0.0
C4161 C 0.31502 0.21291 0.4039 0.0
C4162 C 0.31467 0.22621 0.42181 0.0
C4163 C 0.30275 0.22189 0.42472 0.0
C4164 C 0.29698 0.21308 0.41712 0.0
C4165 C 0.30319 0.20868 0.40683 0.0
C4166 C 0.32115 0.23559 0.42968 0.0
C4167 C 0.28427 0.20827 0.41989 0.0
C4168 C 0.29222 0.22533 0.45766 0.0
C4169 C 0.28517 0.23594 0.45698 0.0
C4170 C 0.29787 0.22058 0.44722 0.0
C4171 C 0.2964 0.22655 0.43579 0.0
C4172 C 0.28914 0.23716 0.435 0.0
C4173 C 0.28365 0.24175 0.4456 0.0
C4174 C 0.30561 0.2093 0.44848 0.0
C4175 C 0.28725 0.24374 0.42297 0.0
H4176 H 0.32965 0.22523 0.40915 0.0
H4177 H 0.29882 0.20177 0.40118 0.0
H4178 H 0.3157 0.24406 0.43004 0.0
H4179 H 0.32203 0.2321 0.43919 0.0
H4180 H 0.33045 0.23794 0.42622 0.0
H4181 H 0.28095 0.20163 0.41294 0.0
H4182 H 0.28421 0.20372 0.42899 0.0
H4183 H 0.27774 0.21593 0.4203 0.0
H4184 H 0.29355 0.22087 0.46644 0.0
H4185 H 0.27808 0.24986 0.44498 0.0
H4186 H 0.31521 0.21149 0.4459 0.0
H4187 H 0.30223 0.20212 0.44214 0.0
H4188 H 0.30556 0.20554 0.45794 0.0
H4189 H 0.29619 0.24706 0.4194 0.0
H4190 H 0.28105 0.25165 0.42383 0.0
H4191 H 0.28334 0.23736 0.4161 0.0
C4192 C 0.29874 0.80599 0.39996 0.0
C4193 C 0.30889 0.81396 0.40052 0.0
C4194 C 0.29426 0.8001 0.41052 0.0
C4195 C 0.30003 0.80226 0.42196 0.0
C4196 C 0.3104 0.81015 0.42255 0.0
C4197 C 0.31472 0.81587 0.41184 0.0
C4198 C 0.28325 0.79168 0.40946 0.0
C4199 C 0.31678 0.81274 0.43457 0.0
C4200 C 0.28118 0.79713 0.45079 0.0
C4201 C 0.28535 0.78574 0.45492 0.0
C4202 C 0.28589 0.8026 0.44012 0.0
C4203 C 0.295 0.79654 0.43334 0.0
C4204 C 0.29924 0.78504 0.43743 0.0
C4205 C 0.29438 0.77979 0.44816 0.0
C4206 C 0.28115 0.81489 0.43611 0.0
C4207 C 0.30889 0.77825 0.43044 0.0
H4208 H 0.29428 0.80434 0.39123 0.0
H4209 H 0.32248 0.82212 0.41238 0.0
H4210 H 0.28548 0.78252 0.41319 0.0
H4211 H 0.2756 0.79527 0.41496 0.0
H4212 H 0.28007 0.79064 0.39984 0.0
H4213 H 0.32495 0.81878 0.43343 0.0
H4214 H 0.31033 0.81717 0.44092 0.0
H4215 H 0.3197 0.80407 0.43893 0.0
H4216 H 0.27433 0.80188 0.45603 0.0
H4217 H 0.29756 0.77093 0.45119 0.0
H4218 H 0.27714 0.81424 0.42679 0.0
H4219 H 0.28882 0.82162 0.43567 0.0
H4220 H 0.27407 0.81841 0.4424 0.0
H4221 H 0.30562 0.77645 0.42099 0.0
H4222 H 0.31124 0.76941 0.43485 0.0
H4223 H 0.31734 0.78393 0.42972 0.0
C4224 C 0.61348 0.20526 0.71583 0.0
C4225 C 0.61975 0.21278 0.70743 0.0
C4226 C 0.60305 0.20942 0.72199 0.0
C4227 C 0.59875 0.22138 0.71971 0.0
C4228 C 0.60514 0.22906 0.71138 0.0
C4229 C 0.61554 0.22469 0.70539 0.0
C4230 C 0.59652 0.20095 0.73081 0.0
C4231 C 0.6009 0.24189 0.7087 0.0
C4232 C 0.56529 0.22886 0.72537 0.0
C4233 C 0.56594 0.23526 0.73645 0.0
C4234 C 0.57586 0.22412 0.71995 0.0
C4235 C 0.58739 0.22579 0.72573 0.0
C4236 C 0.5881 0.23207 0.73702 0.0
C4237 C 0.57738 0.23672 0.74224 0.0
C4238 C 0.57468 0.21746 0.70794 0.0
C4239 C 0.60022 0.23407 0.74347 0.0
H4240 H 0.61657 0.19602 0.7174 0.0
H4241 H 0.62043 0.23066 0.6991 0.0
H4242 H 0.59579 0.20531 0.7399 0.0
H4243 H 0.58705 0.19911 0.7275 0.0
H4244 H 0.60127 0.19209 0.73193 0.0
H4245 H 0.60701 0.24679 0.70217 0.0
H4246 H 0.5915 0.2416 0.70478 0.0
H4247 H 0.6005 0.2472 0.71729 0.0
H4248 H 0.55648 0.22751 0.72093 0.0
H4249 H 0.578 0.24175 0.75073 0.0
H4250 H 0.57856 0.20818 0.70881 0.0
H4251 H 0.58 0.22238 0.70079 0.0
H4252 H 0.56501 0.2166 0.70481 0.0
H4253 H 0.60481 0.2252 0.745 0.0
H4254 H 0.59916 0.23867 0.75242 0.0
H4255 H 0.60636 0.23974 0.73764 0.0
C4256 C 0.32076 0.11286 0.72321 0.0
C4257 C 0.31479 0.12133 0.71564 0.0
C4258 C 0.31477 0.10217 0.72724 0.0
C4259 C 0.30251 0.09982 0.72356 0.0
C4260 C 0.29646 0.10825 0.71582 0.0
C4261 C 0.30266 0.11892 0.71198 0.0
C4262 C 0.32155 0.09339 0.73548 0.0
C4263 C 0.2834 0.10605 0.71168 0.0
C4264 C 0.29118 0.06688 0.7256 0.0
C4265 C 0.28473 0.06685 0.73668 0.0
C4266 C 0.29682 0.07759 0.72111 0.0
C4267 C 0.29605 0.08854 0.72788 0.0
C4268 C 0.28943 0.08861 0.73898 0.0
C4269 C 0.28383 0.07778 0.74323 0.0
C4270 C 0.30378 0.07714 0.70923 0.0
C4271 C 0.28838 0.10009 0.74646 0.0
H4272 H 0.3302 0.11452 0.72592 0.0
H4273 H 0.29792 0.12547 0.70625 0.0
H4274 H 0.31656 0.0922 0.74423 0.0
H4275 H 0.32198 0.08429 0.73111 0.0
H4276 H 0.33104 0.09657 0.73753 0.0
H4277 H 0.28007 0.11339 0.70549 0.0
H4278 H 0.28266 0.0972 0.70683 0.0
H4279 H 0.27728 0.10547 0.71973 0.0
H4280 H 0.29206 0.05846 0.72055 0.0
H4281 H 0.27871 0.07789 0.75169 0.0
H4282 H 0.3136 0.07931 0.71091 0.0
H4283 H 0.30026 0.08413 0.70276 0.0
H4284 H 0.30308 0.06805 0.70481 0.0
H4285 H 0.29763 0.10325 0.74939 0.0
H4286 H 0.28265 0.0987 0.75473 0.0
H4287 H 0.28435 0.10749 0.74083 0.0
C4288 C 0.41147 0.81546 0.70692 0.0
C4289 C 0.40018 0.80941 0.70858 0.0
C4290 C 0.42219 0.81126 0.71268 0.0
C4291 C 0.42163 0.80079 0.72034 0.0
C4292 C 0.41022 0.79479 0.72224 0.0
C4293 C 0.39966 0.79916 0.71633 0.0
C4294 C 0.43418 0.81788 0.71035 0.0
C4295 C 0.40919 0.78366 0.73041 0.0
C4296 C 0.4506 0.78233 0.72532 0.0
C4297 C 0.45454 0.78629 0.7369 0.0
C4298 C 0.43995 0.787 0.71983 0.0
C4299 C 0.43303 0.79586 0.72604 0.0
C4300 C 0.43696 0.79993 0.73772 0.0
C4301 C 0.44766 0.79511 0.74299 0.0
C4302 C 0.43613 0.78246 0.70734 0.0
C4303 C 0.42981 0.80931 0.74468 0.0
H4304 H 0.41199 0.82331 0.70085 0.0
H4305 H 0.39095 0.79453 0.71779 0.0
H4306 H 0.43844 0.82069 0.71914 0.0
H4307 H 0.44066 0.81166 0.7058 0.0
H4308 H 0.43301 0.82612 0.7045 0.0
H4309 H 0.39959 0.78031 0.73129 0.0
H4310 H 0.41482 0.7762 0.72668 0.0
H4311 H 0.41282 0.78578 0.73967 0.0
H4312 H 0.45594 0.77566 0.72046 0.0
H4313 H 0.45055 0.79812 0.75199 0.0
H4314 H 0.43566 0.79024 0.7008 0.0
H4315 H 0.42684 0.77827 0.7078 0.0
H4316 H 0.44255 0.77561 0.70369 0.0
H4317 H 0.42903 0.81781 0.73916 0.0
H4318 H 0.43413 0.8116 0.75361 0.0
H4319 H 0.42036 0.80586 0.74635 0.0
C4320 C 0.70425 0.90444 0.72694 0.0
C4321 C 0.70722 0.89954 0.71551 0.0
C4322 C 0.71 0.91513 0.73127 0.0
C4323 C 0.71889 0.92118 0.72396 0.0
C4324 C 0.72196 0.9163 0.71243 0.0
C4325 C 0.71613 0.90553 0.70836 0.0
C4326 C 0.70646 0.92002 0.74363 0.0
C4327 C 0.73137 0.92249 0.70435 0.0
C4328 C 0.72463 0.9549 0.73036 0.0
C4329 C 0.73541 0.95461 0.73742 0.0
C4330 C 0.71928 0.94412 0.72577 0.0
C4331 C 0.72479 0.93273 0.72834 0.0
C4332 C 0.73573 0.93239 0.73535 0.0
C4333 C 0.74093 0.94332 0.73977 0.0
C4334 C 0.70768 0.94491 0.71824 0.0
C4335 C 0.74184 0.92044 0.73837 0.0
H4336 H 0.69724 0.90004 0.73246 0.0
H4337 H 0.71862 0.90175 0.69959 0.0
H4338 H 0.71471 0.92094 0.74956 0.0
H4339 H 0.70252 0.92926 0.74257 0.0
H4340 H 0.69966 0.91404 0.74836 0.0
H4341 H 0.73275 0.91753 0.69564 0.0
H4342 H 0.72846 0.93194 0.70216 0.0
H4343 H 0.74028 0.92319 0.70924 0.0
H4344 H 0.72041 0.9636 0.72836 0.0
H4345 H 0.74918 0.94302 0.74532 0.0
H4346 H 0.70017 0.9398 0.72287 0.0
H4347 H 0.70904 0.9406 0.70919 0.0
H4348 H 0.70473 0.95448 0.71677 0.0
H4349 H 0.73552 0.91456 0.74381 0.0
H4350 H 0.75048 0.92175 0.74365 0.0
H4351 H 0.74392 0.91545 0.72984 0.0
C4352 C 0.61036 0.81018 0.31892 0.0
C4353 C 0.62195 0.80632 0.31517 0.0
C4354 C 0.59965 0.80591 0.3131 0.0
C4355 C 0.60055 0.79766 0.30322 0.0
C4356 C 0.61224 0.79393 0.29923 0.0
C4357 C 0.62279 0.79826 0.3053 0.0
C4358 C 0.58735 0.81001 0.3177 0.0
C4359 C 0.61359 0.78528 0.28864 0.0
C4360 C 0.57311 0.77708 0.29631 0.0
C4361 C 0.56749 0.78325 0.28653 0.0
C4362 C 0.58386 0.78166 0.3018 0.0
C4363 C 0.58924 0.79263 0.29733 0.0
C4364 C 0.58374 0.79882 0.28735 0.0
C4365 C 0.57291 0.79409 0.28211 0.0
C4366 C 0.58943 0.7748 0.31245 0.0
C4367 C 0.58924 0.8105 0.28228 0.0
H4368 H 0.60966 0.81631 0.32663 0.0
H4369 H 0.63174 0.79536 0.30228 0.0
H4370 H 0.58203 0.81422 0.31014 0.0
H4371 H 0.582 0.80199 0.32104 0.0
H4372 H 0.58824 0.81671 0.32526 0.0
H4373 H 0.62333 0.78365 0.28635 0.0
H4374 H 0.60914 0.77638 0.29087 0.0
H4375 H 0.60889 0.78898 0.28042 0.0
H4376 H 0.56914 0.76858 0.29966 0.0
H4377 H 0.56856 0.79903 0.27468 0.0
H4378 H 0.58994 0.78079 0.32059 0.0
H4379 H 0.59893 0.77213 0.31023 0.0
H4380 H 0.58408 0.76644 0.31488 0.0
H4381 H 0.58936 0.81764 0.28943 0.0
H4382 H 0.58408 0.81398 0.27422 0.0
H4383 H 0.59888 0.80899 0.27955 0.0
C4384 C 0.71789 0.11908 0.30534 0.0
C4385 C 0.71087 0.11758 0.31597 0.0
C4386 C 0.72268 0.10895 0.29921 0.0
C4387 C 0.72035 0.09701 0.30378 0.0
C4388 C 0.71305 0.09543 0.31436 0.0
C4389 C 0.70843 0.10572 0.32033 0.0
C4390 C 0.73044 0.11103 0.28798 0.0
C4391 C 0.71027 0.08288 0.31949 0.0
C4392 C 0.7246 0.06958 0.28297 0.0
C4393 C 0.73603 0.06521 0.28686 0.0
C4394 C 0.71944 0.07997 0.2883 0.0
C4395 C 0.72585 0.08619 0.29774 0.0
C4396 C 0.73745 0.08191 0.30161 0.0
C4397 C 0.74238 0.07149 0.29613 0.0
C4398 C 0.70704 0.08421 0.28395 0.0
C4399 C 0.74462 0.08829 0.31159 0.0
H4400 H 0.71993 0.1282 0.30198 0.0
H4401 H 0.70287 0.10447 0.32844 0.0
H4402 H 0.73985 0.10768 0.28971 0.0
H4403 H 0.72664 0.10577 0.28016 0.0
H4404 H 0.73102 0.12083 0.28533 0.0
H4405 H 0.70412 0.08317 0.32754 0.0
H4406 H 0.7059 0.07708 0.31237 0.0
H4407 H 0.71892 0.07839 0.32227 0.0
H4408 H 0.71955 0.06472 0.27592 0.0
H4409 H 0.75129 0.0683 0.29907 0.0
H4410 H 0.70763 0.09386 0.28086 0.0
H4411 H 0.70042 0.08379 0.29161 0.0
H4412 H 0.70337 0.07858 0.2763 0.0
H4413 H 0.74624 0.098 0.30905 0.0
H4414 H 0.75361 0.08396 0.31339 0.0
H4415 H 0.73927 0.08817 0.32019 0.0
C4416 C 0.41265 0.20127 0.31415 0.0
C4417 C 0.40088 0.20584 0.31196 0.0
C4418 C 0.42312 0.20726 0.30954 0.0
C4419 C 0.42181 0.21808 0.30252 0.0
C4420 C 0.40998 0.22286 0.30045 0.0
C4421 C 0.39966 0.21671 0.30522 0.0
C4422 C 0.43557 0.20191 0.31205 0.0
C4423 C 0.40819 0.23434 0.29296 0.0
C4424 C 0.44993 0.23862 0.29833 0.0
C4425 C 0.45413 0.23501 0.2868 0.0
C4426 C 0.43937 0.23328 0.30351 0.0
C4427 C 0.43281 0.22414 0.29701 0.0
C4428 C 0.43691 0.22058 0.2853 0.0
C4429 C 0.44751 0.22605 0.28035 0.0
C4430 C 0.43533 0.2373 0.31603 0.0
C4431 C 0.43015 0.21092 0.27802 0.0
H4432 H 0.41367 0.19297 0.31949 0.0
H4433 H 0.3906 0.22023 0.30338 0.0
H4434 H 0.43993 0.19934 0.30331 0.0
H4435 H 0.44163 0.20881 0.31647 0.0
H4436 H 0.43507 0.19369 0.31805 0.0
H4437 H 0.39844 0.23713 0.29257 0.0
H4438 H 0.41373 0.24195 0.29685 0.0
H4439 H 0.41144 0.23288 0.28348 0.0
H4440 H 0.45506 0.24544 0.30344 0.0
H4441 H 0.45058 0.22334 0.27137 0.0
H4442 H 0.43556 0.22944 0.32248 0.0
H4443 H 0.42573 0.24051 0.31564 0.0
H4444 H 0.44123 0.24475 0.31976 0.0
H4445 H 0.43005 0.20217 0.28318 0.0
H4446 H 0.43437 0.20938 0.26894 0.0
H4447 H 0.42047 0.21362 0.27661 0.0
C4448 C 0.30594 0.90079 0.30288 0.0
C4449 C 0.31685 0.90204 0.30965 0.0
C4450 C 0.29982 0.91107 0.29824 0.0
C4451 C 0.30467 0.92292 0.30047 0.0
C4452 C 0.31553 0.92425 0.30751 0.0
C4453 C 0.32149 0.91382 0.31199 0.0
C4454 C 0.28829 0.90924 0.29074 0.0
C4455 C 0.32095 0.93671 0.31019 0.0
C4456 C 0.29662 0.94893 0.2787 0.0
C4457 C 0.28764 0.95515 0.28527 0.0
C4458 C 0.30213 0.93838 0.28349 0.0
C4459 C 0.2986 0.93391 0.29515 0.0
C4460 C 0.28946 0.94006 0.30178 0.0
C4461 C 0.28409 0.95059 0.29677 0.0
C4462 C 0.3118 0.93207 0.27608 0.0
C4463 C 0.28547 0.93562 0.31426 0.0
H4464 H 0.30236 0.89173 0.30092 0.0
H4465 H 0.3298 0.91488 0.31736 0.0
H4466 H 0.28067 0.91448 0.29475 0.0
H4467 H 0.28975 0.91279 0.28133 0.0
H4468 H 0.28547 0.89948 0.29019 0.0
H4469 H 0.32922 0.93621 0.31614 0.0
H4470 H 0.32351 0.94135 0.30151 0.0
H4471 H 0.31407 0.94247 0.31474 0.0
H4472 H 0.2993 0.95227 0.26974 0.0
H4473 H 0.27726 0.9554 0.30197 0.0
H4474 H 0.30905 0.92241 0.2745 0.0
H4475 H 0.32059 0.93199 0.28123 0.0
H4476 H 0.31336 0.93657 0.26709 0.0
H4477 H 0.28219 0.92601 0.31372 0.0
H4478 H 0.27804 0.94125 0.31811 0.0
H4479 H 0.29338 0.93582 0.32067 0.0
C4480 C 0.70228 0.10892 0.71084 0.0
C4481 C 0.70621 0.12053 0.7147 0.0
C4482 C 0.70793 0.09827 0.71523 0.0
C4483 C 0.71781 0.09924 0.72365 0.0
C4484 C 0.72196 0.11094 0.72742 0.0
C4485 C 0.71608 0.12143 0.72294 0.0
C4486 C 0.70315 0.08598 0.71106 0.0
C4487 C 0.73254 0.11237 0.73626 0.0
C4488 C 0.72454 0.07196 0.74429 0.0
C4489 C 0.73438 0.06649 0.73828 0.0
C4490 C 0.71908 0.08259 0.73963 0.0
C4491 C 0.7236 0.08799 0.72872 0.0
C4492 C 0.73359 0.0826 0.72266 0.0
C4493 C 0.73882 0.07191 0.72747 0.0
C4494 C 0.70844 0.08803 0.74638 0.0
C4495 C 0.73871 0.08808 0.71103 0.0
H4496 H 0.69457 0.10814 0.70459 0.0
H4497 H 0.71926 0.13037 0.72586 0.0
H4498 H 0.71066 0.08069 0.70691 0.0
H4499 H 0.69975 0.08066 0.71904 0.0
H4500 H 0.6956 0.08679 0.70426 0.0
H4501 H 0.73489 0.12211 0.73801 0.0
H4502 H 0.73025 0.1079 0.7451 0.0
H4503 H 0.74076 0.10779 0.73263 0.0
H4504 H 0.72115 0.06799 0.75274 0.0
H4505 H 0.7463 0.06769 0.72265 0.0
H4506 H 0.70031 0.08847 0.74027 0.0
H4507 H 0.71073 0.09753 0.74914 0.0
H4508 H 0.70595 0.08269 0.75469 0.0
H4509 H 0.73152 0.08818 0.70382 0.0
H4510 H 0.7467 0.08296 0.70757 0.0
H4511 H 0.74159 0.0977 0.71261 0.0
C4512 C 0.71738 0.9035 0.31302 0.0
C4513 C 0.70591 0.9 0.30824 0.0
C4514 C 0.72358 0.91397 0.30867 0.0
C4515 C 0.71814 0.92119 0.29937 0.0
C4516 C 0.70657 0.91772 0.29451 0.0
C4517 C 0.70064 0.90716 0.29895 0.0
C4518 C 0.73592 0.91734 0.31406 0.0
C4519 C 0.70044 0.92519 0.28461 0.0
C4520 C 0.72801 0.95442 0.29566 0.0
C4521 C 0.73565 0.95392 0.28541 0.0
C4522 C 0.72236 0.94382 0.30038 0.0
C4523 C 0.72447 0.93242 0.29476 0.0
C4524 C 0.73233 0.93183 0.28453 0.0
C4525 C 0.73779 0.94259 0.27994 0.0
C4526 C 0.71396 0.94485 0.31125 0.0
C4527 C 0.73491 0.91984 0.27836 0.0
H4528 H 0.72147 0.89814 0.3203 0.0
H4529 H 0.6919 0.90444 0.29502 0.0
H4530 H 0.74288 0.91795 0.30671 0.0
H4531 H 0.73549 0.92647 0.31838 0.0
H4532 H 0.73903 0.91062 0.32103 0.0
H4533 H 0.69138 0.92133 0.28189 0.0
H4534 H 0.69915 0.93468 0.28781 0.0
H4535 H 0.70637 0.92568 0.2764 0.0
H4536 H 0.72621 0.96316 0.29984 0.0
H4537 H 0.74381 0.94214 0.27211 0.0
H4538 H 0.71708 0.93876 0.31875 0.0
H4539 H 0.70456 0.94184 0.30865 0.0
H4540 H 0.71354 0.95433 0.31477 0.0
H4541 H 0.7386 0.91322 0.28511 0.0
H4542 H 0.74155 0.92087 0.27075 0.0
H4543 H 0.72626 0.91586 0.27466 0.0
C4544 C 0.62022 0.21511 0.30389 0.0
C4545 C 0.61875 0.20418 0.31053 0.0
C4546 C 0.61004 0.22143 0.29927 0.0
C4547 C 0.59807 0.21675 0.30137 0.0
C4548 C 0.59651 0.20587 0.30828 0.0
C4549 C 0.60685 0.19971 0.31274 0.0
C4550 C 0.6121 0.23297 0.2919 0.0
C4551 C 0.58392 0.20062 0.31082 0.0
C4552 C 0.57059 0.23765 0.29772 0.0
C4553 C 0.566 0.23423 0.2862 0.0
C4554 C 0.58108 0.23215 0.30272 0.0
C4555 C 0.58717 0.22302 0.29604 0.0
C4556 C 0.58269 0.21966 0.28433 0.0
C4557 C 0.57217 0.22528 0.27957 0.0
C4558 C 0.58551 0.23595 0.31525 0.0
C4559 C 0.58896 0.21003 0.27685 0.0
H4560 H 0.62938 0.21856 0.30203 0.0
H4561 H 0.60562 0.19137 0.318 0.0
H4562 H 0.6086 0.23168 0.28244 0.0
H4563 H 0.60693 0.2406 0.29594 0.0
H4564 H 0.62194 0.23565 0.29145 0.0
H4565 H 0.58425 0.19231 0.31669 0.0
H4566 H 0.5782 0.20753 0.31539 0.0
H4567 H 0.57929 0.19823 0.30208 0.0
H4568 H 0.56581 0.24446 0.30297 0.0
H4569 H 0.56881 0.22271 0.27059 0.0
H4570 H 0.59522 0.23905 0.3148 0.0
H4571 H 0.58513 0.22802 0.3216 0.0
H4572 H 0.57996 0.24342 0.31913 0.0
H4573 H 0.5987 0.21263 0.2754 0.0
H4574 H 0.58451 0.20867 0.26779 0.0
H4575 H 0.58884 0.2012 0.28188 0.0
C4576 C 0.3133 0.10993 0.31762 0.0
C4577 C 0.30708 0.12099 0.31615 0.0
C4578 C 0.30919 0.09924 0.31176 0.0
C4579 C 0.29864 0.0996 0.30417 0.0
C4580 C 0.29246 0.11079 0.30245 0.0
C4581 C 0.29673 0.12132 0.30848 0.0
C4582 C 0.316 0.08749 0.31389 0.0
C4583 C 0.28124 0.11159 0.29436 0.0
C4584 C 0.2933 0.07399 0.28122 0.0
C4585 C 0.2846 0.06663 0.28728 0.0
C4586 C 0.29795 0.08474 0.28659 0.0
C4587 C 0.29384 0.08821 0.29833 0.0
C4588 C 0.28509 0.0808 0.3045 0.0
C4589 C 0.28058 0.07013 0.2989 0.0
C4590 C 0.30721 0.09242 0.27969 0.0
C4591 C 0.28052 0.08413 0.31704 0.0
H4592 H 0.32121 0.10957 0.32364 0.0
H4593 H 0.29197 0.12986 0.30716 0.0
H4594 H 0.30986 0.08068 0.31835 0.0
H4595 H 0.31886 0.08359 0.30502 0.0
H4596 H 0.32426 0.08881 0.31974 0.0
H4597 H 0.27774 0.12105 0.29363 0.0
H4598 H 0.28337 0.1083 0.28504 0.0
H4599 H 0.27385 0.1056 0.29804 0.0
H4600 H 0.29635 0.07144 0.27219 0.0
H4601 H 0.274 0.06441 0.30373 0.0
H4602 H 0.31576 0.09336 0.28515 0.0
H4603 H 0.30361 0.10175 0.27819 0.0
H4604 H 0.3095 0.08845 0.27067 0.0
H4605 H 0.28832 0.08473 0.32356 0.0
H4606 H 0.27373 0.07739 0.32063 0.0
H4607 H 0.27619 0.09325 0.31672 0.0
C4608 C 0.40607 0.7967 0.31757 0.0
C4609 C 0.40194 0.80866 0.31565 0.0
C4610 C 0.41646 0.79233 0.31156 0.0
C4611 C 0.42292 0.80007 0.30334 0.0
C4612 C 0.41871 0.81208 0.30118 0.0
C4613 C 0.40829 0.81623 0.30736 0.0
C4614 C 0.42061 0.77945 0.31411 0.0
C4615 C 0.42532 0.82061 0.29247 0.0
C4616 C 0.45634 0.79244 0.29762 0.0
C4617 C 0.45566 0.78616 0.28648 0.0
C4618 C 0.4458 0.79719 0.30309 0.0
C4619 C 0.43426 0.79565 0.29728 0.0
C4620 C 0.43352 0.7895 0.28593 0.0
C4621 C 0.44422 0.78483 0.28067 0.0
C4622 C 0.447 0.80371 0.31517 0.0
C4623 C 0.4214 0.78765 0.27944 0.0
H4624 H 0.40111 0.79069 0.32377 0.0
H4625 H 0.40526 0.82552 0.30589 0.0
H4626 H 0.42097 0.77423 0.30546 0.0
H4627 H 0.43001 0.77963 0.31803 0.0
H4628 H 0.41446 0.77452 0.32058 0.0
H4629 H 0.42063 0.82951 0.29144 0.0
H4630 H 0.43479 0.82234 0.29582 0.0
H4631 H 0.42603 0.81634 0.28333 0.0
H4632 H 0.46515 0.7937 0.30208 0.0
H4633 H 0.44357 0.77988 0.27213 0.0
H4634 H 0.44163 0.79875 0.32226 0.0
H4635 H 0.44319 0.81303 0.3144 0.0
H4636 H 0.45667 0.80446 0.31833 0.0
H4637 H 0.41522 0.78193 0.28518 0.0
H4638 H 0.42244 0.78316 0.27042 0.0
H4639 H 0.41686 0.79656 0.27801 0.0
C4640 C 0.30348 0.9044 0.70951 0.0
C4641 C 0.31549 0.90196 0.71339 0.0
C4642 C 0.29732 0.91485 0.7135 0.0
C4643 C 0.30331 0.92309 0.72158 0.0
C4644 C 0.31546 0.92074 0.72543 0.0
C4645 C 0.3214 0.91025 0.72127 0.0
C4646 C 0.28438 0.91704 0.70916 0.0
C4647 C 0.32219 0.92928 0.73401 0.0
C4648 C 0.29218 0.95579 0.72443 0.0
C4649 C 0.28556 0.95529 0.73541 0.0
C4650 C 0.29781 0.94535 0.71972 0.0
C4651 C 0.29685 0.93411 0.72613 0.0
C4652 C 0.29006 0.93349 0.73713 0.0
C4653 C 0.28449 0.94406 0.74161 0.0
C4654 C 0.30498 0.94641 0.70797 0.0
C4655 C 0.28878 0.92169 0.74424 0.0
H4656 H 0.29878 0.898 0.70353 0.0
H4657 H 0.33075 0.90858 0.72416 0.0
H4658 H 0.2781 0.91716 0.71711 0.0
H4659 H 0.28379 0.92609 0.7046 0.0
H4660 H 0.2811 0.90992 0.70268 0.0
H4661 H 0.33164 0.92619 0.73609 0.0
H4662 H 0.32273 0.93858 0.72993 0.0
H4663 H 0.3171 0.93001 0.74272 0.0
H4664 H 0.2932 0.96443 0.71964 0.0
H4665 H 0.27924 0.94352 0.74999 0.0
H4666 H 0.30149 0.93965 0.70124 0.0
H4667 H 0.31475 0.94431 0.70975 0.0
H4668 H 0.30443 0.95568 0.70382 0.0
H4669 H 0.28477 0.91446 0.73832 0.0
H4670 H 0.28293 0.92264 0.75245 0.0
H4671 H 0.29796 0.91854 0.74722 0.0
C4672 C 0.61824 0.81093 0.71904 0.0
C4673 C 0.62043 0.80742 0.70692 0.0
C4674 C 0.60764 0.807 0.72524 0.0
C4675 C 0.599 0.79934 0.71922 0.0
C4676 C 0.6011 0.79585 0.70696 0.0
C4677 C 0.61174 0.79995 0.70097 0.0
C4678 C 0.60572 0.81095 0.7383 0.0
C4679 C 0.59211 0.78772 0.70019 0.0
C4680 C 0.57729 0.77926 0.7379 0.0
C4681 C 0.5663 0.78576 0.73714 0.0
C4682 C 0.58803 0.78366 0.73227 0.0
C4683 C 0.58782 0.79486 0.72572 0.0
C4684 C 0.57682 0.80156 0.72507 0.0
C4685 C 0.5662 0.79693 0.73076 0.0
C4686 C 0.59957 0.77624 0.7332 0.0
C4687 C 0.5762 0.81353 0.71818 0.0
H4688 H 0.62495 0.81659 0.72376 0.0
H4689 H 0.61321 0.79735 0.69154 0.0
H4690 H 0.59685 0.8157 0.73911 0.0
H4691 H 0.6053 0.80282 0.74439 0.0
H4692 H 0.61316 0.81715 0.7416 0.0
H4693 H 0.59506 0.78587 0.69067 0.0
H4694 H 0.59104 0.77888 0.7051 0.0
H4695 H 0.58297 0.79202 0.69987 0.0
H4696 H 0.57752 0.77073 0.74297 0.0
H4697 H 0.55773 0.80194 0.72998 0.0
H4698 H 0.6071 0.78184 0.73722 0.0
H4699 H 0.60253 0.7735 0.72393 0.0
H4700 H 0.59831 0.76788 0.73888 0.0
H4701 H 0.5833 0.81997 0.72169 0.0
H4702 H 0.56709 0.81787 0.71896 0.0
H4703 H 0.57814 0.81202 0.70836 0.0
C4704 C 0.40449 0.20902 0.71723 0.0
C4705 C 0.39908 0.21592 0.70783 0.0
C4706 C 0.41527 0.21306 0.72311 0.0
C4707 C 0.42073 0.22433 0.71959 0.0
C4708 C 0.41526 0.2314 0.7102 0.0
C4709 C 0.40456 0.22709 0.7044 0.0
C4710 C 0.42085 0.20524 0.73305 0.0
C4711 C 0.42079 0.24348 0.70619 0.0
C4712 C 0.44287 0.24039 0.74136 0.0
C4713 C 0.45424 0.2376 0.73623 0.0
C4714 C 0.43189 0.23605 0.73611 0.0
C4715 C 0.43229 0.22865 0.72554 0.0
C4716 C 0.44376 0.22564 0.72045 0.0
C4717 C 0.45459 0.23019 0.72582 0.0
C4718 C 0.41984 0.23956 0.74174 0.0
C4719 C 0.4446 0.21767 0.70926 0.0
H4720 H 0.40024 0.20048 0.72008 0.0
H4721 H 0.4006 0.2324 0.69701 0.0
H4722 H 0.43032 0.20275 0.73051 0.0
H4723 H 0.42147 0.21045 0.74171 0.0
H4724 H 0.41548 0.19672 0.73473 0.0
H4725 H 0.41519 0.24806 0.69903 0.0
H4726 H 0.42171 0.24967 0.71414 0.0
H4727 H 0.43012 0.24206 0.70253 0.0
H4728 H 0.44255 0.24621 0.74934 0.0
H4729 H 0.46336 0.22787 0.72192 0.0
H4730 H 0.41443 0.23125 0.74412 0.0
H4731 H 0.41436 0.24485 0.73502 0.0
H4732 H 0.4211 0.24514 0.75012 0.0
H4733 H 0.43986 0.2088 0.71095 0.0
H4734 H 0.45423 0.21587 0.70665 0.0
H4735 H 0.43991 0.22212 0.70142 0.0
C4736 C 0.7251 0.70291 0.11756 0.0
C4737 C 0.71305 0.70468 0.12156 0.0
C4738 C 0.72964 0.70889 0.10709 0.0
C4739 C 0.722 0.71694 0.10044 0.0
C4740 C 0.7099 0.71895 0.10453 0.0
C4741 C 0.70557 0.7128 0.11502 0.0
C4742 C 0.74261 0.70649 0.10307 0.0
C4743 C 0.70146 0.72747 0.09771 0.0
C4744 C 0.73754 0.73965 0.07879 0.0
C4745 C 0.73626 0.73378 0.06747 0.0
C4746 C 0.73278 0.73439 0.08956 0.0
C4747 C 0.72659 0.72295 0.08903 0.0
C4748 C 0.72513 0.71706 0.07761 0.0
C4749 C 0.72995 0.72253 0.06699 0.0
C4750 C 0.73455 0.74097 0.10155 0.0
C4751 C 0.71857 0.70487 0.07662 0.0
H4752 H 0.73104 0.69684 0.12266 0.0
H4753 H 0.69621 0.71416 0.11795 0.0
H4754 H 0.74253 0.70249 0.09377 0.0
H4755 H 0.74789 0.7152 0.10256 0.0
H4756 H 0.74745 0.70016 0.10937 0.0
H4757 H 0.69248 0.72842 0.10233 0.0
H4758 H 0.7058 0.73665 0.09684 0.0
H4759 H 0.69982 0.72403 0.08832 0.0
H4760 H 0.7425 0.74827 0.07929 0.0
H4761 H 0.72873 0.71802 0.05827 0.0
H4762 H 0.74016 0.73534 0.10786 0.0
H4763 H 0.72556 0.74234 0.106 0.0
H4764 H 0.73915 0.75001 0.10036 0.0
H4765 H 0.72345 0.69793 0.08217 0.0
H4766 H 0.71795 0.70162 0.06703 0.0
H4767 H 0.70917 0.70554 0.08034 0.0
C4768 C 0.31236 0.71558 0.11757 0.0
C4769 C 0.3052 0.70628 0.12297 0.0
C4770 C 0.3085 0.72151 0.10681 0.0
C4771 C 0.29716 0.71817 0.10135 0.0
C4772 C 0.28984 0.7089 0.10681 0.0
C4773 C 0.29397 0.70304 0.11749 0.0
C4774 C 0.3166 0.73132 0.10123 0.0
C4775 C 0.27767 0.70509 0.10131 0.0
C4776 C 0.28159 0.74014 0.0793 0.0
C4777 C 0.2843 0.73497 0.06794 0.0
C4778 C 0.28582 0.73485 0.09025 0.0
C4779 C 0.29302 0.72419 0.08982 0.0
C4780 C 0.29598 0.71906 0.07836 0.0
C4781 C 0.29154 0.72448 0.06757 0.0
C4782 C 0.28237 0.74052 0.10229 0.0
C4783 C 0.30375 0.70779 0.0775 0.0
H4784 H 0.32096 0.71829 0.1218 0.0
H4785 H 0.28846 0.69574 0.12145 0.0
H4786 H 0.31909 0.72875 0.09177 0.0
H4787 H 0.31157 0.74004 0.10063 0.0
H4788 H 0.32515 0.73286 0.10659 0.0
H4789 H 0.27288 0.69801 0.10689 0.0
H4790 H 0.27163 0.71312 0.1004 0.0
H4791 H 0.27907 0.70143 0.09199 0.0
H4792 H 0.27591 0.74818 0.07963 0.0
H4793 H 0.29379 0.72055 0.0588 0.0
H4794 H 0.29073 0.74273 0.10768 0.0
H4795 H 0.27686 0.7339 0.10775 0.0
H4796 H 0.27699 0.74899 0.10104 0.0
H4797 H 0.31264 0.70933 0.08225 0.0
H4798 H 0.30557 0.70519 0.06788 0.0
H4799 H 0.29909 0.70001 0.08216 0.0
C4800 C 0.29815 0.30655 0.12192 0.0
C4801 C 0.3082 0.31467 0.12147 0.0
C4802 C 0.29382 0.30063 0.11135 0.0
C4803 C 0.29962 0.30291 0.09998 0.0
C4804 C 0.30987 0.31096 0.09948 0.0
C4805 C 0.31405 0.31671 0.11022 0.0
C4806 C 0.28295 0.29203 0.11231 0.0
C4807 C 0.31628 0.3137 0.08755 0.0
C4808 C 0.29446 0.28034 0.07398 0.0
C4809 C 0.28532 0.28612 0.06704 0.0
C4810 C 0.29921 0.28569 0.08469 0.0
C4811 C 0.29476 0.29712 0.08858 0.0
C4812 C 0.28557 0.30302 0.08159 0.0
C4813 C 0.28097 0.29745 0.07094 0.0
C4814 C 0.30895 0.27908 0.09191 0.0
C4815 C 0.28061 0.31524 0.08537 0.0
H4816 H 0.29368 0.30479 0.1306 0.0
H4817 H 0.32172 0.32307 0.10976 0.0
H4818 H 0.27527 0.2955 0.10662 0.0
H4819 H 0.28535 0.28292 0.10873 0.0
H4820 H 0.27971 0.29094 0.12187 0.0
H4821 H 0.32433 0.31989 0.08876 0.0
H4822 H 0.31938 0.30509 0.08333 0.0
H4823 H 0.30979 0.31802 0.08104 0.0
H4824 H 0.29778 0.27152 0.07112 0.0
H4825 H 0.27404 0.30207 0.06555 0.0
H4826 H 0.30565 0.27718 0.10132 0.0
H4827 H 0.31729 0.28491 0.09272 0.0
H4828 H 0.3115 0.2703 0.08762 0.0
H4829 H 0.27654 0.31452 0.09462 0.0
H4830 H 0.27353 0.31866 0.07891 0.0
H4831 H 0.28818 0.32208 0.08588 0.0
C4832 C 0.72632 0.31745 0.11704 0.0
C4833 C 0.71471 0.31458 0.12182 0.0
C4834 C 0.73064 0.31174 0.10646 0.0
C4835 C 0.72316 0.30301 0.10039 0.0
C4836 C 0.71142 0.30008 0.10513 0.0
C4837 C 0.70736 0.30586 0.11579 0.0
C4838 C 0.74321 0.31513 0.10172 0.0
C4839 C 0.70315 0.29084 0.09891 0.0
C4840 C 0.73 0.2972 0.06684 0.0
C4841 C 0.73669 0.28635 0.06744 0.0
C4842 C 0.72539 0.30261 0.07746 0.0
C4843 C 0.72757 0.29709 0.089 0.0
C4844 C 0.73424 0.28608 0.08967 0.0
C4845 C 0.73868 0.28083 0.07888 0.0
C4846 C 0.71824 0.31429 0.07633 0.0
C4847 C 0.73685 0.27996 0.1018 0.0
H4848 H 0.732 0.32432 0.12147 0.0
H4849 H 0.69845 0.30345 0.11948 0.0
H4850 H 0.74892 0.30685 0.10106 0.0
H4851 H 0.74243 0.31906 0.09237 0.0
H4852 H 0.74802 0.32187 0.10766 0.0
H4853 H 0.69428 0.28959 0.10373 0.0
H4854 H 0.70127 0.29377 0.08936 0.0
H4855 H 0.70777 0.28188 0.09848 0.0
H4856 H 0.72827 0.30143 0.05801 0.0
H4857 H 0.74395 0.27252 0.07943 0.0
H4858 H 0.723 0.3217 0.08143 0.0
H4859 H 0.70905 0.31305 0.08047 0.0
H4860 H 0.71707 0.31726 0.06666 0.0
H4861 H 0.74236 0.28618 0.10768 0.0
H4862 H 0.7419 0.27128 0.10074 0.0
H4863 H 0.72815 0.27798 0.10666 0.0
C4864 C 0.70782 0.30816 0.90772 0.0
C4865 C 0.71571 0.31597 0.90115 0.0
C4866 C 0.71184 0.30205 0.91833 0.0
C4867 C 0.72403 0.30383 0.9225 0.0
C4868 C 0.73208 0.31158 0.91585 0.0
C4869 C 0.72784 0.31752 0.90525 0.0
C4870 C 0.70299 0.29382 0.92516 0.0
C4871 C 0.74515 0.31372 0.91999 0.0
C4872 C 0.7315 0.29832 0.95608 0.0
C4873 C 0.73722 0.28691 0.95577 0.0
C4874 C 0.72708 0.30386 0.94534 0.0
C4875 C 0.72832 0.29783 0.934 0.0
C4876 C 0.73392 0.28624 0.93364 0.0
C4877 C 0.73832 0.28093 0.94451 0.0
C4878 C 0.72116 0.31622 0.94613 0.0
C4879 C 0.7354 0.27952 0.92173 0.0
H4880 H 0.6984 0.307 0.90472 0.0
H4881 H 0.73407 0.32335 0.90012 0.0
H4882 H 0.70687 0.28455 0.92617 0.0
H4883 H 0.70154 0.29741 0.9345 0.0
H4884 H 0.69396 0.29305 0.92047 0.0
H4885 H 0.75029 0.31989 0.9137 0.0
H4886 H 0.74526 0.3178 0.92926 0.0
H4887 H 0.75001 0.3049 0.92063 0.0
H4888 H 0.73042 0.30291 0.96475 0.0
H4889 H 0.74284 0.27219 0.94416 0.0
H4890 H 0.71172 0.31576 0.94235 0.0
H4891 H 0.72638 0.32296 0.94053 0.0
H4892 H 0.72074 0.31961 0.95567 0.0
H4893 H 0.72635 0.2783 0.91718 0.0
H4894 H 0.73957 0.2704 0.92305 0.0
H4895 H 0.74126 0.28497 0.91543 0.0
C4896 C 0.69962 0.71986 0.91044 0.0
C4897 C 0.70508 0.71109 0.90297 0.0
C4898 C 0.70567 0.72445 0.92085 0.0
C4899 C 0.71754 0.72027 0.92387 0.0
C4900 C 0.72315 0.71149 0.91634 0.0
C4901 C 0.71686 0.70699 0.90601 0.0
C4902 C 0.69934 0.7338 0.92862 0.0
C4903 C 0.7358 0.7068 0.91924 0.0
C4904 C 0.73703 0.74042 0.9448 0.0
C4905 C 0.73547 0.73466 0.9562 0.0
C4906 C 0.73142 0.73573 0.93418 0.0
C4907 C 0.724 0.72505 0.93496 0.0
C4908 C 0.72248 0.71914 0.94643 0.0
C4909 C 0.72824 0.724 0.95688 0.0
C4910 C 0.73337 0.74226 0.92213 0.0
C4911 C 0.71457 0.70779 0.94769 0.0
H4912 H 0.69064 0.72328 0.90807 0.0
H4913 H 0.72111 0.70012 0.90041 0.0
H4914 H 0.69845 0.73034 0.93814 0.0
H4915 H 0.70492 0.74232 0.92899 0.0
H4916 H 0.69007 0.73604 0.92509 0.0
H4917 H 0.739 0.70016 0.91235 0.0
H4918 H 0.74245 0.71453 0.91964 0.0
H4919 H 0.73583 0.70231 0.92836 0.0
H4920 H 0.74273 0.74857 0.94416 0.0
H4921 H 0.72685 0.71957 0.96567 0.0
H4922 H 0.72446 0.74546 0.91846 0.0
H4923 H 0.73718 0.73588 0.91532 0.0
H4924 H 0.73967 0.75025 0.92299 0.0
H4925 H 0.70499 0.70987 0.94503 0.0
H4926 H 0.7146 0.70408 0.95717 0.0
H4927 H 0.71782 0.70061 0.94141 0.0
C4928 C 0.30409 0.7086 0.90647 0.0
C4929 C 0.31586 0.71291 0.9034 0.0
C4930 C 0.29792 0.71306 0.91676 0.0
C4931 C 0.30367 0.722 0.92422 0.0
C4932 C 0.31552 0.7264 0.92117 0.0
C4933 C 0.32143 0.72186 0.91079 0.0
C4934 C 0.28528 0.70816 0.91968 0.0
C4935 C 0.32198 0.73592 0.92889 0.0
C4936 C 0.28449 0.74186 0.94502 0.0
C4937 C 0.28613 0.73616 0.95644 0.0
C4938 C 0.28998 0.73724 0.93443 0.0
C4939 C 0.29736 0.72671 0.93527 0.0
C4940 C 0.29896 0.72086 0.94675 0.0
C4941 C 0.29331 0.72563 0.95718 0.0
C4942 C 0.28795 0.74369 0.92236 0.0
C4943 C 0.30683 0.70968 0.94807 0.0
H4944 H 0.29975 0.70159 0.90093 0.0
H4945 H 0.33041 0.72543 0.9084 0.0
H4946 H 0.28533 0.7037 0.92882 0.0
H4947 H 0.27868 0.71577 0.92006 0.0
H4948 H 0.28196 0.70142 0.91282 0.0
H4949 H 0.33123 0.73832 0.92533 0.0
H4950 H 0.31645 0.74434 0.9292 0.0
H4951 H 0.32296 0.73254 0.93843 0.0
H4952 H 0.27884 0.7499 0.94436 0.0
H4953 H 0.29473 0.72126 0.96599 0.0
H4954 H 0.28403 0.73721 0.91558 0.0
H4955 H 0.29684 0.74704 0.91868 0.0
H4956 H 0.2817 0.75156 0.92318 0.0
H4957 H 0.30347 0.70239 0.94184 0.0
H4958 H 0.30691 0.70603 0.95757 0.0
H4959 H 0.31638 0.71194 0.94538 0.0
C4960 C 0.31455 0.31564 0.91215 0.0
C4961 C 0.3086 0.31387 0.90088 0.0
C4962 C 0.31024 0.30992 0.92288 0.0
C4963 C 0.29975 0.30219 0.92233 0.0
C4964 C 0.29385 0.30018 0.91094 0.0
C4965 C 0.29832 0.30606 0.90037 0.0
C4966 C 0.31677 0.31235 0.93485 0.0
C4967 C 0.28271 0.29193 0.90993 0.0
C4968 C 0.29405 0.27964 0.94846 0.0
C4969 C 0.28516 0.28567 0.95533 0.0
C4970 C 0.29887 0.28488 0.93771 0.0
C4971 C 0.29475 0.29647 0.93373 0.0
C4972 C 0.28579 0.3026 0.94063 0.0
C4973 C 0.2811 0.29713 0.95131 0.0
C4974 C 0.30835 0.278 0.93058 0.0
C4975 C 0.28119 0.31499 0.93675 0.0
H4976 H 0.32241 0.32176 0.91266 0.0
H4977 H 0.29376 0.30452 0.89167 0.0
H4978 H 0.31045 0.31682 0.9413 0.0
H4979 H 0.31961 0.30361 0.93913 0.0
H4980 H 0.32501 0.31829 0.93368 0.0
H4981 H 0.27942 0.291 0.90034 0.0
H4982 H 0.28484 0.28271 0.91357 0.0
H4983 H 0.27517 0.29559 0.91553 0.0
H4984 H 0.29713 0.27072 0.9514 0.0
H4985 H 0.27437 0.30194 0.95665 0.0
H4986 H 0.31688 0.28357 0.92982 0.0
H4987 H 0.30497 0.27632 0.92114 0.0
H4988 H 0.31061 0.2691 0.9349 0.0
H4989 H 0.28895 0.32162 0.93627 0.0
H4990 H 0.27422 0.31857 0.94313 0.0
H4991 H 0.27708 0.31446 0.92746 0.0
C4992 C 0.61532 0.7249 0.20395 0.0
C4993 C 0.61934 0.71289 0.20582 0.0
C4994 C 0.60489 0.72929 0.20989 0.0
C4995 C 0.5983 0.72154 0.21799 0.0
C4996 C 0.6024 0.70948 0.2201 0.0
C4997 C 0.61285 0.7053 0.21398 0.0
C4998 C 0.60085 0.74222 0.2074 0.0
C4999 C 0.59565 0.70093 0.22867 0.0
C5000 C 0.57693 0.73669 0.24065 0.0
C5001 C 0.56552 0.73545 0.23477 0.0
C5002 C 0.58764 0.73203 0.23541 0.0
C5003 C 0.58695 0.726 0.224 0.0
C5004 C 0.57544 0.72457 0.2181 0.0
C5005 C 0.56488 0.72929 0.22355 0.0
C5006 C 0.59972 0.73375 0.242 0.0
C5007 C 0.57428 0.71817 0.20594 0.0
H5008 H 0.62037 0.73092 0.19785 0.0
H5009 H 0.61578 0.69597 0.21541 0.0
H5010 H 0.59149 0.74214 0.20341 0.0
H5011 H 0.60046 0.74738 0.21609 0.0
H5012 H 0.60709 0.74715 0.20102 0.0
H5013 H 0.60026 0.69198 0.22967 0.0
H5014 H 0.59489 0.70513 0.23785 0.0
H5015 H 0.58619 0.6993 0.22524 0.0
H5016 H 0.57755 0.74154 0.24925 0.0
H5017 H 0.55609 0.72811 0.21903 0.0
H5018 H 0.60599 0.73945 0.23633 0.0
H5019 H 0.60418 0.7248 0.2434 0.0
H5020 H 0.59865 0.7382 0.25103 0.0
H5021 H 0.57976 0.72315 0.19895 0.0
H5022 H 0.56463 0.71753 0.2027 0.0
H5023 H 0.578 0.70881 0.20667 0.0
C5024 C 0.30551 0.6211 0.2257 0.0
C5025 C 0.31284 0.62101 0.2152 0.0
C5026 C 0.29958 0.61042 0.22987 0.0
C5027 C 0.30109 0.59936 0.22344 0.0
C5028 C 0.30833 0.59925 0.21274 0.0
C5029 C 0.31409 0.61008 0.20872 0.0
C5030 C 0.29184 0.61095 0.24126 0.0
C5031 C 0.31023 0.58762 0.20567 0.0
C5032 C 0.29643 0.56967 0.24111 0.0
C5033 C 0.28466 0.56601 0.23729 0.0
C5034 C 0.30188 0.58047 0.23664 0.0
C5035 C 0.29541 0.58783 0.22816 0.0
C5036 C 0.28353 0.58419 0.22425 0.0
C5037 C 0.27831 0.57331 0.22885 0.0
C5038 C 0.3146 0.58399 0.24097 0.0
C5039 C 0.27631 0.59182 0.21529 0.0
H5040 H 0.30438 0.62956 0.23064 0.0
H5041 H 0.31985 0.60993 0.20068 0.0
H5042 H 0.28244 0.60749 0.23928 0.0
H5043 H 0.29578 0.60496 0.24846 0.0
H5044 H 0.29121 0.62036 0.24493 0.0
H5045 H 0.3158 0.58915 0.19732 0.0
H5046 H 0.31491 0.58082 0.21157 0.0
H5047 H 0.30125 0.58359 0.20295 0.0
H5048 H 0.30146 0.56399 0.2475 0.0
H5049 H 0.26917 0.57059 0.22595 0.0
H5050 H 0.31442 0.59304 0.24547 0.0
H5051 H 0.32086 0.58482 0.23303 0.0
H5052 H 0.31843 0.57723 0.24752 0.0
H5053 H 0.27493 0.60108 0.21907 0.0
H5054 H 0.26721 0.5877 0.21313 0.0
H5055 H 0.2815 0.59296 0.20665 0.0
C5056 C 0.3998 0.29875 0.21637 0.0
C5057 C 0.4004 0.30877 0.20833 0.0
C5058 C 0.41036 0.29435 0.22226 0.0
C5059 C 0.42185 0.30008 0.22003 0.0
C5060 C 0.42249 0.31033 0.21207 0.0
C5061 C 0.41177 0.31456 0.20634 0.0
C5062 C 0.40925 0.28347 0.23075 0.0
C5063 C 0.43455 0.31666 0.2094 0.0
C5064 C 0.44802 0.29458 0.24256 0.0
C5065 C 0.45468 0.28547 0.23664 0.0
C5066 C 0.43736 0.29944 0.23726 0.0
C5067 C 0.43323 0.29512 0.22575 0.0
C5068 C 0.43993 0.28597 0.21971 0.0
C5069 C 0.45055 0.28126 0.22522 0.0
C5070 C 0.43046 0.30915 0.24402 0.0
C5071 C 0.43588 0.28114 0.20741 0.0
H5072 H 0.39103 0.29433 0.21809 0.0
H5073 H 0.41234 0.32223 0.20004 0.0
H5074 H 0.41471 0.27581 0.22717 0.0
H5075 H 0.41302 0.2858 0.2399 0.0
H5076 H 0.39961 0.2803 0.23183 0.0
H5077 H 0.43345 0.32475 0.20332 0.0
H5078 H 0.43898 0.31966 0.21806 0.0
H5079 H 0.44086 0.3102 0.20496 0.0
H5080 H 0.45105 0.29779 0.25145 0.0
H5081 H 0.45572 0.27437 0.22049 0.0
H5082 H 0.42098 0.30592 0.2459 0.0
H5083 H 0.42976 0.3175 0.23827 0.0
H5084 H 0.43493 0.31163 0.25283 0.0
H5085 H 0.42652 0.27713 0.20808 0.0
H5086 H 0.44213 0.27406 0.20388 0.0
H5087 H 0.43547 0.28873 0.20065 0.0
C5088 C 0.71677 0.40566 0.20827 0.0
C5089 C 0.70775 0.39969 0.21529 0.0
C5090 C 0.72255 0.41643 0.21239 0.0
C5091 C 0.7193 0.42135 0.22387 0.0
C5092 C 0.7103 0.41532 0.23105 0.0
C5093 C 0.70461 0.40463 0.22667 0.0
C5094 C 0.73208 0.4226 0.20444 0.0
C5095 C 0.70658 0.42025 0.24335 0.0
C5096 C 0.74108 0.44357 0.23992 0.0
C5097 C 0.73557 0.45483 0.23745 0.0
C5098 C 0.73596 0.43261 0.23546 0.0
C5099 C 0.72512 0.43292 0.22828 0.0
C5100 C 0.71963 0.44429 0.2256 0.0
C5101 C 0.7249 0.45509 0.23024 0.0
C5102 C 0.74204 0.42067 0.23861 0.0
C5103 C 0.70814 0.44504 0.21789 0.0
H5104 H 0.7194 0.40186 0.19955 0.0
H5105 H 0.69751 0.40025 0.23209 0.0
H5106 H 0.7292 0.43203 0.20216 0.0
H5107 H 0.74091 0.42333 0.20948 0.0
H5108 H 0.73362 0.41759 0.19579 0.0
H5109 H 0.69972 0.41427 0.24799 0.0
H5110 H 0.71473 0.4212 0.24938 0.0
H5111 H 0.70263 0.42947 0.24219 0.0
H5112 H 0.74926 0.44329 0.24558 0.0
H5113 H 0.72069 0.46377 0.22816 0.0
H5114 H 0.74426 0.41567 0.23014 0.0
H5115 H 0.73565 0.41481 0.24397 0.0
H5116 H 0.75059 0.42201 0.24402 0.0
H5117 H 0.70965 0.4407 0.20888 0.0
H5118 H 0.70522 0.4546 0.21634 0.0
H5119 H 0.70057 0.43994 0.22242 0.0
C5120 C 0.61704 0.29379 0.82019 0.0
C5121 C 0.62269 0.30483 0.81663 0.0
C5122 C 0.60637 0.28948 0.81432 0.0
C5123 C 0.6011 0.29644 0.80473 0.0
C5124 C 0.60675 0.30757 0.80106 0.0
C5125 C 0.61749 0.3116 0.807 0.0
C5126 C 0.60066 0.27754 0.81848 0.0
C5127 C 0.60137 0.31527 0.79091 0.0
C5128 C 0.57895 0.28036 0.78297 0.0
C5129 C 0.56758 0.2834 0.78794 0.0
C5130 C 0.58995 0.2846 0.78828 0.0
C5131 C 0.58954 0.29217 0.79874 0.0
C5132 C 0.57807 0.29543 0.80366 0.0
C5133 C 0.56724 0.29096 0.79824 0.0
C5134 C 0.60199 0.28082 0.78284 0.0
C5135 C 0.57724 0.30359 0.8147 0.0
H5136 H 0.62083 0.28858 0.82774 0.0
H5137 H 0.62187 0.32003 0.80404 0.0
H5138 H 0.59132 0.27915 0.82204 0.0
H5139 H 0.59971 0.27123 0.81062 0.0
H5140 H 0.60614 0.273 0.82575 0.0
H5141 H 0.60688 0.32368 0.78912 0.0
H5142 H 0.60077 0.30991 0.78235 0.0
H5143 H 0.59192 0.31795 0.79331 0.0
H5144 H 0.57926 0.27444 0.77507 0.0
H5145 H 0.55845 0.29345 0.80201 0.0
H5146 H 0.60733 0.27558 0.78972 0.0
H5147 H 0.60754 0.28901 0.78036 0.0
H5148 H 0.60073 0.2751 0.77456 0.0
H5149 H 0.58178 0.29921 0.82267 0.0
H5150 H 0.56761 0.30557 0.81718 0.0
H5151 H 0.58212 0.31237 0.81292 0.0
C5152 C 0.70591 0.61375 0.80636 0.0
C5153 C 0.71295 0.6196 0.81545 0.0
C5154 C 0.71009 0.60316 0.80057 0.0
C5155 C 0.72161 0.59828 0.80388 0.0
C5156 C 0.72879 0.60417 0.81298 0.0
C5157 C 0.72436 0.61469 0.81867 0.0
C5158 C 0.70215 0.59715 0.79093 0.0
C5159 C 0.74113 0.59928 0.81678 0.0
C5160 C 0.72826 0.56479 0.79789 0.0
C5161 C 0.73548 0.56547 0.78731 0.0
C5162 C 0.72354 0.57536 0.80325 0.0
C5163 C 0.72613 0.58694 0.79796 0.0
C5164 C 0.73333 0.58769 0.78722 0.0
C5165 C 0.73788 0.57696 0.78202 0.0
C5166 C 0.71583 0.57414 0.81463 0.0
C5167 C 0.73638 0.59986 0.78135 0.0
H5168 H 0.69716 0.61753 0.80368 0.0
H5169 H 0.72979 0.61897 0.82582 0.0
H5170 H 0.70716 0.59678 0.78214 0.0
H5171 H 0.69998 0.5876 0.79367 0.0
H5172 H 0.69342 0.60206 0.78939 0.0
H5173 H 0.74572 0.60509 0.82378 0.0
H5174 H 0.74003 0.58991 0.82056 0.0
H5175 H 0.7472 0.59868 0.8087 0.0
H5176 H 0.72622 0.55594 0.80194 0.0
H5177 H 0.74355 0.57758 0.77392 0.0
H5178 H 0.70677 0.57838 0.81309 0.0
H5179 H 0.72032 0.57909 0.8223 0.0
H5180 H 0.71438 0.56447 0.81742 0.0
H5181 H 0.72785 0.60481 0.7791 0.0
H5182 H 0.74181 0.59886 0.77285 0.0
H5183 H 0.7417 0.6056 0.78786 0.0
C5184 C 0.41253 0.70106 0.81297 0.0
C5185 C 0.40075 0.70574 0.8111 0.0
C5186 C 0.42296 0.70717 0.80843 0.0
C5187 C 0.4216 0.71822 0.8018 0.0
C5188 C 0.40975 0.72311 0.80005 0.0
C5189 C 0.39948 0.71683 0.80475 0.0
C5190 C 0.43542 0.7017 0.8106 0.0
C5191 C 0.40791 0.73484 0.79299 0.0
C5192 C 0.44977 0.73876 0.79804 0.0
C5193 C 0.45386 0.73549 0.78637 0.0
C5194 C 0.43921 0.73333 0.80313 0.0
C5195 C 0.43255 0.72444 0.79637 0.0
C5196 C 0.43652 0.72125 0.78451 0.0
C5197 C 0.44713 0.7268 0.77967 0.0
C5198 C 0.43532 0.73693 0.81582 0.0
C5199 C 0.42964 0.71189 0.77697 0.0
H5200 H 0.4136 0.69258 0.81802 0.0
H5201 H 0.3904 0.72044 0.80316 0.0
H5202 H 0.43967 0.69943 0.80171 0.0
H5203 H 0.44155 0.70843 0.81519 0.0
H5204 H 0.43496 0.69328 0.8163 0.0
H5205 H 0.39817 0.73766 0.79281 0.0
H5206 H 0.41351 0.7423 0.79708 0.0
H5207 H 0.41105 0.7337 0.78343 0.0
H5208 H 0.45499 0.74537 0.80333 0.0
H5209 H 0.45013 0.72435 0.77058 0.0
H5210 H 0.4356 0.72886 0.822 0.0
H5211 H 0.42572 0.74016 0.81564 0.0
H5212 H 0.44127 0.74424 0.81973 0.0
H5213 H 0.42958 0.70295 0.7818 0.0
H5214 H 0.43373 0.71068 0.76778 0.0
H5215 H 0.41995 0.71466 0.7758 0.0
C5216 C 0.30561 0.40032 0.80296 0.0
C5217 C 0.3165 0.40164 0.80974 0.0
C5218 C 0.29945 0.41056 0.79828 0.0
C5219 C 0.30424 0.42243 0.80046 0.0
C5220 C 0.31509 0.42383 0.80751 0.0
C5221 C 0.32109 0.41344 0.81204 0.0
C5222 C 0.28793 0.40865 0.79078 0.0
C5223 C 0.32047 0.43632 0.81015 0.0
C5224 C 0.29611 0.44836 0.77862 0.0
C5225 C 0.28711 0.45456 0.78517 0.0
C5226 C 0.30165 0.43784 0.78343 0.0
C5227 C 0.29813 0.43338 0.7951 0.0
C5228 C 0.28896 0.43952 0.80172 0.0
C5229 C 0.28356 0.45001 0.79667 0.0
C5230 C 0.31134 0.43153 0.77605 0.0
C5231 C 0.28498 0.43509 0.8142 0.0
H5232 H 0.30206 0.39124 0.80104 0.0
H5233 H 0.3294 0.41456 0.81741 0.0
H5234 H 0.28029 0.41387 0.79476 0.0
H5235 H 0.28938 0.41218 0.78135 0.0
H5236 H 0.28516 0.39888 0.79025 0.0
H5237 H 0.32874 0.43588 0.81609 0.0
H5238 H 0.323 0.44094 0.80144 0.0
H5239 H 0.31355 0.44207 0.81468 0.0
H5240 H 0.29878 0.45168 0.76966 0.0
H5241 H 0.27672 0.45482 0.80187 0.0
H5242 H 0.30864 0.42186 0.7745 0.0
H5243 H 0.32013 0.43152 0.78119 0.0
H5244 H 0.31288 0.43601 0.76703 0.0
H5245 H 0.28176 0.42546 0.81369 0.0
H5246 H 0.27752 0.4407 0.81803 0.0
H5247 H 0.29288 0.43535 0.82062 0.0
C5248 C 0.70224 0.61584 0.22702 0.0
C5249 C 0.70401 0.62011 0.21501 0.0
C5250 C 0.70828 0.60544 0.23143 0.0
C5251 C 0.7164 0.59914 0.22369 0.0
C5252 C 0.7184 0.6035 0.21163 0.0
C5253 C 0.71218 0.61391 0.20743 0.0
C5254 C 0.70589 0.60111 0.24435 0.0
C5255 C 0.727 0.59707 0.2031 0.0
C5256 C 0.73941 0.57786 0.23885 0.0
C5257 C 0.73365 0.56641 0.23746 0.0
C5258 C 0.734 0.58856 0.23426 0.0
C5259 C 0.72253 0.58783 0.22816 0.0
C5260 C 0.71674 0.57629 0.22662 0.0
C5261 C 0.72237 0.56575 0.23126 0.0
C5262 C 0.74049 0.60067 0.23609 0.0
C5263 C 0.70452 0.5751 0.22017 0.0
H5264 H 0.69613 0.62067 0.23304 0.0
H5265 H 0.71353 0.61704 0.19811 0.0
H5266 H 0.70197 0.59171 0.24422 0.0
H5267 H 0.71462 0.60075 0.24958 0.0
H5268 H 0.69946 0.60712 0.24927 0.0
H5269 H 0.7279 0.60186 0.19416 0.0
H5270 H 0.73622 0.59638 0.20736 0.0
H5271 H 0.72362 0.58763 0.20144 0.0
H5272 H 0.74805 0.5785 0.24374 0.0
H5273 H 0.71794 0.55694 0.22995 0.0
H5274 H 0.73476 0.60671 0.24176 0.0
H5275 H 0.74184 0.60533 0.22715 0.0
H5276 H 0.74955 0.59965 0.24063 0.0
H5277 H 0.69751 0.58038 0.22512 0.0
H5278 H 0.70132 0.56545 0.21952 0.0
H5279 H 0.70515 0.57898 0.21079 0.0
C5280 C 0.71734 0.4024 0.81137 0.0
C5281 C 0.70521 0.39984 0.80778 0.0
C5282 C 0.72348 0.413 0.80727 0.0
C5283 C 0.71737 0.42123 0.79934 0.0
C5284 C 0.70513 0.41873 0.79572 0.0
C5285 C 0.6992 0.40811 0.80001 0.0
C5286 C 0.73652 0.41537 0.81136 0.0
C5287 C 0.6983 0.42727 0.78728 0.0
C5288 C 0.72852 0.45416 0.79661 0.0
C5289 C 0.73501 0.454 0.78555 0.0
C5290 C 0.72293 0.44353 0.80131 0.0
C5291 C 0.72377 0.43245 0.79478 0.0
C5292 C 0.73041 0.43217 0.78369 0.0
C5293 C 0.73597 0.44293 0.77923 0.0
C5294 C 0.71594 0.44419 0.81317 0.0
C5295 C 0.73152 0.42054 0.77646 0.0
H5296 H 0.72212 0.39601 0.81724 0.0
H5297 H 0.68977 0.40633 0.79734 0.0
H5298 H 0.74264 0.41581 0.8033 0.0
H5299 H 0.73722 0.42433 0.81602 0.0
H5300 H 0.7399 0.40818 0.81771 0.0
H5301 H 0.68883 0.42399 0.78529 0.0
H5302 H 0.6978 0.43647 0.79144 0.0
H5303 H 0.70329 0.4283 0.77851 0.0
H5304 H 0.72759 0.46269 0.80148 0.0
H5305 H 0.74112 0.44267 0.77079 0.0
H5306 H 0.71951 0.43737 0.81979 0.0
H5307 H 0.70614 0.44192 0.81152 0.0
H5308 H 0.71658 0.45338 0.81739 0.0
H5309 H 0.73562 0.41329 0.78225 0.0
H5310 H 0.73723 0.42179 0.76815 0.0
H5311 H 0.72229 0.41724 0.77362 0.0
C5312 C 0.60668 0.70022 0.81289 0.0
C5313 C 0.61854 0.70475 0.81064 0.0
C5314 C 0.5963 0.70628 0.80839 0.0
C5315 C 0.59778 0.71713 0.80141 0.0
C5316 C 0.60972 0.72186 0.79925 0.0
C5317 C 0.61995 0.71563 0.80391 0.0
C5318 C 0.58373 0.70099 0.811 0.0
C5319 C 0.61171 0.73336 0.7918 0.0
C5320 C 0.57184 0.7256 0.77964 0.0
C5321 C 0.5657 0.7346 0.78624 0.0
C5322 C 0.58234 0.71995 0.78441 0.0
C5323 C 0.58684 0.72334 0.7961 0.0
C5324 C 0.58077 0.7325 0.80277 0.0
C5325 C 0.5703 0.73802 0.79776 0.0
C5326 C 0.58858 0.71029 0.77696 0.0
C5327 C 0.58524 0.73635 0.81528 0.0
H5328 H 0.60551 0.69191 0.81821 0.0
H5329 H 0.62908 0.71912 0.80201 0.0
H5330 H 0.57801 0.70789 0.81558 0.0
H5331 H 0.57908 0.69856 0.80228 0.0
H5332 H 0.58412 0.6927 0.81689 0.0
H5333 H 0.62154 0.73605 0.79127 0.0
H5334 H 0.60814 0.732 0.78238 0.0
H5335 H 0.60655 0.741 0.79584 0.0
H5336 H 0.56847 0.72302 0.77066 0.0
H5337 H 0.56554 0.74486 0.80299 0.0
H5338 H 0.58852 0.70149 0.78205 0.0
H5339 H 0.5983 0.71291 0.77543 0.0
H5340 H 0.58407 0.70885 0.76794 0.0
H5341 H 0.58493 0.72842 0.82164 0.0
H5342 H 0.57967 0.74379 0.81917 0.0
H5343 H 0.59493 0.7395 0.81478 0.0
C5344 C 0.2983 0.61163 0.82328 0.0
C5345 C 0.30725 0.61929 0.81799 0.0
C5346 C 0.2939 0.60117 0.81722 0.0
C5347 C 0.29846 0.59831 0.80549 0.0
C5348 C 0.3074 0.60603 0.80003 0.0
C5349 C 0.31172 0.61639 0.80635 0.0
C5350 C 0.28438 0.59317 0.82339 0.0
C5351 C 0.31246 0.60332 0.78752 0.0
C5352 C 0.29525 0.56537 0.79488 0.0
C5353 C 0.28475 0.56586 0.78743 0.0
C5354 C 0.29987 0.57588 0.80071 0.0
C5355 C 0.2939 0.58718 0.79902 0.0
C5356 C 0.28339 0.58776 0.79138 0.0
C5357 C 0.27892 0.5771 0.78572 0.0
C5358 C 0.31103 0.57483 0.80886 0.0
C5359 C 0.27682 0.59965 0.78924 0.0
H5360 H 0.29461 0.61388 0.83216 0.0
H5361 H 0.31874 0.62213 0.80222 0.0
H5362 H 0.27598 0.59266 0.81764 0.0
H5363 H 0.28785 0.58374 0.82441 0.0
H5364 H 0.28185 0.5966 0.83257 0.0
H5365 H 0.31918 0.61037 0.78441 0.0
H5366 H 0.31703 0.59432 0.78765 0.0
H5367 H 0.30489 0.60276 0.78073 0.0
H5368 H 0.29971 0.5567 0.79636 0.0
H5369 H 0.2709 0.57757 0.77986 0.0
H5370 H 0.30865 0.57741 0.81835 0.0
H5371 H 0.31831 0.58126 0.80572 0.0
H5372 H 0.31478 0.56545 0.809 0.0
H5373 H 0.27335 0.60317 0.79805 0.0
H5374 H 0.26899 0.59864 0.78279 0.0
H5375 H 0.28329 0.60662 0.78553 0.0
C5376 C 0.40824 0.31605 0.80802 0.0
C5377 C 0.40191 0.30851 0.81635 0.0
C5378 C 0.41869 0.31189 0.80189 0.0
C5379 C 0.42294 0.29991 0.80414 0.0
C5380 C 0.4165 0.29221 0.8124 0.0
C5381 C 0.40607 0.29658 0.81836 0.0
C5382 C 0.42529 0.32039 0.79314 0.0
C5383 C 0.42069 0.27936 0.81505 0.0
C5384 C 0.44437 0.28461 0.78164 0.0
C5385 C 0.45579 0.28602 0.78748 0.0
C5386 C 0.43364 0.28926 0.78684 0.0
C5387 C 0.43432 0.29549 0.79815 0.0
C5388 C 0.44584 0.29712 0.80398 0.0
C5389 C 0.45641 0.29238 0.79858 0.0
C5390 C 0.42155 0.28732 0.78033 0.0
C5391 C 0.44698 0.30373 0.81603 0.0
H5392 H 0.40519 0.32532 0.80648 0.0
H5393 H 0.40113 0.29059 0.82459 0.0
H5394 H 0.43475 0.32218 0.7965 0.0
H5395 H 0.42605 0.31605 0.78403 0.0
H5396 H 0.42056 0.32926 0.79203 0.0
H5397 H 0.41454 0.27445 0.82154 0.0
H5398 H 0.4211 0.27408 0.80644 0.0
H5399 H 0.43007 0.2796 0.81901 0.0
H5400 H 0.44377 0.27961 0.77313 0.0
H5401 H 0.46521 0.2937 0.80306 0.0
H5402 H 0.41698 0.2962 0.77881 0.0
H5403 H 0.41537 0.28163 0.7861 0.0
H5404 H 0.42263 0.28275 0.77136 0.0
H5405 H 0.44313 0.31302 0.81517 0.0
H5406 H 0.45664 0.30454 0.81921 0.0
H5407 H 0.4416 0.29879 0.82313 0.0
C5408 C 0.30327 0.40362 0.20981 0.0
C5409 C 0.31536 0.40131 0.21356 0.0
C5410 C 0.29708 0.41406 0.21379 0.0
C5411 C 0.30308 0.4224 0.22173 0.0
C5412 C 0.3153 0.42019 0.22545 0.0
C5413 C 0.32129 0.40972 0.22131 0.0
C5414 C 0.28406 0.41609 0.20959 0.0
C5415 C 0.32206 0.42886 0.23389 0.0
C5416 C 0.29169 0.45502 0.22457 0.0
C5417 C 0.28522 0.45452 0.23563 0.0
C5418 C 0.29735 0.44461 0.21983 0.0
C5419 C 0.29657 0.43339 0.2263 0.0
C5420 C 0.28992 0.43277 0.23739 0.0
C5421 C 0.28432 0.44331 0.2419 0.0
C5422 C 0.30435 0.44567 0.20798 0.0
C5423 C 0.28885 0.42099 0.24457 0.0
H5424 H 0.29855 0.39713 0.20394 0.0
H5425 H 0.33069 0.40817 0.22409 0.0
H5426 H 0.27787 0.41619 0.21761 0.0
H5427 H 0.28333 0.42511 0.205 0.0
H5428 H 0.28078 0.40892 0.20318 0.0
H5429 H 0.33156 0.42588 0.23587 0.0
H5430 H 0.32245 0.43813 0.22974 0.0
H5431 H 0.31707 0.42959 0.24266 0.0
H5432 H 0.29258 0.46365 0.21973 0.0
H5433 H 0.27918 0.44276 0.25034 0.0
H5434 H 0.30086 0.43883 0.20134 0.0
H5435 H 0.31416 0.4437 0.20965 0.0
H5436 H 0.30364 0.4549 0.20378 0.0
H5437 H 0.28484 0.4137 0.23874 0.0
H5438 H 0.28308 0.42193 0.25285 0.0
H5439 H 0.29809 0.41795 0.24746 0.0
C5440 C 0.61232 0.29882 0.20093 0.0
C5441 C 0.61987 0.30785 0.20623 0.0
C5442 C 0.60179 0.29441 0.2069 0.0
C5443 C 0.59873 0.29903 0.21855 0.0
C5444 C 0.60633 0.30808 0.22401 0.0
C5445 C 0.61677 0.3124 0.21777 0.0
C5446 C 0.59392 0.28479 0.20075 0.0
C5447 C 0.60341 0.31321 0.23643 0.0
C5448 C 0.56563 0.29553 0.22893 0.0
C5449 C 0.56618 0.28514 0.23647 0.0
C5450 C 0.57616 0.30021 0.22313 0.0
C5451 C 0.58755 0.29441 0.22497 0.0
C5452 C 0.5882 0.28401 0.23271 0.0
C5453 C 0.57751 0.27948 0.23832 0.0
C5454 C 0.57505 0.31124 0.21487 0.0
C5455 C 0.60019 0.27763 0.23501 0.0
H5456 H 0.61473 0.29506 0.19213 0.0
H5457 H 0.62242 0.31948 0.2219 0.0
H5458 H 0.59347 0.27645 0.20655 0.0
H5459 H 0.58442 0.28812 0.19964 0.0
H5460 H 0.59747 0.28226 0.19161 0.0
H5461 H 0.61035 0.32004 0.23952 0.0
H5462 H 0.59431 0.31762 0.23617 0.0
H5463 H 0.60289 0.30573 0.2433 0.0
H5464 H 0.55688 0.29987 0.22735 0.0
H5465 H 0.57802 0.27153 0.24426 0.0
H5466 H 0.57775 0.30882 0.20542 0.0
H5467 H 0.58137 0.31861 0.21799 0.0
H5468 H 0.56558 0.31486 0.21461 0.0
H5469 H 0.60384 0.27413 0.22627 0.0
H5470 H 0.59921 0.26986 0.24153 0.0
H5471 H 0.60707 0.28419 0.23872 0.0
C5472 C 0.41033 0.7103 0.20387 0.0
C5473 C 0.39879 0.71412 0.2078 0.0
C5474 C 0.42112 0.7147 0.20943 0.0
C5475 C 0.42036 0.72304 0.21925 0.0
C5476 C 0.40873 0.72674 0.22342 0.0
C5477 C 0.39809 0.72228 0.2176 0.0
C5478 C 0.43335 0.71062 0.20464 0.0
C5479 C 0.40753 0.73549 0.23395 0.0
C5480 C 0.44831 0.72689 0.2399 0.0
C5481 C 0.4536 0.73773 0.23533 0.0
C5482 C 0.43743 0.72207 0.23485 0.0
C5483 C 0.43175 0.72816 0.22491 0.0
C5484 C 0.43701 0.73911 0.22027 0.0
C5485 C 0.44782 0.74379 0.22557 0.0
C5486 C 0.43206 0.7104 0.2401 0.0
C5487 C 0.43126 0.74586 0.20965 0.0
H5488 H 0.41092 0.7041 0.19621 0.0
H5489 H 0.38918 0.72515 0.22076 0.0
H5490 H 0.43862 0.71863 0.20116 0.0
H5491 H 0.43883 0.70649 0.21214 0.0
H5492 H 0.43237 0.70386 0.19715 0.0
H5493 H 0.39781 0.73712 0.23637 0.0
H5494 H 0.41237 0.73187 0.24213 0.0
H5495 H 0.41192 0.74438 0.23157 0.0
H5496 H 0.45278 0.72203 0.24731 0.0
H5497 H 0.45169 0.75228 0.22211 0.0
H5498 H 0.43183 0.70322 0.23299 0.0
H5499 H 0.42247 0.71189 0.24299 0.0
H5500 H 0.43737 0.70699 0.24808 0.0
H5501 H 0.43063 0.73979 0.20157 0.0
H5502 H 0.43654 0.75421 0.20707 0.0
H5503 H 0.42179 0.74852 0.212 0.0
loop_
_geom_bond_atom_site_label_1
_geom_bond_atom_site_label_2
_geom_bond_distance
_geom_bond_site_symmetry_2
_ccdc_geom_bond_type
C0 C1 1.264 . S
C0 C5 1.479 . S
C0 C10 1.465 . S
C1 C0 1.264 . S
C1 C3 1.339 . S
C1 H28 0.931 . S
C2 C3 1.395 . S
C2 C4 1.320 . S
C3 C1 1.339 . S
C3 C2 1.395 . S
C3 H29 0.929 . S
C4 C2 1.320 . S
C4 C5 1.405 . S
C4 H30 0.930 . S
C5 C0 1.479 . S
C5 C4 1.405 . S
C5 H31 0.931 . S
U6 O7 2.454 . S
U6 O8 2.458 . S
U6 C9 2.984 . S
U6 C10 2.847 . S
U6 C23 2.882 . S
U6 O24 2.441 . S
U6 O25 2.420 . S
U6 O26 2.455 . S
U6 O27 2.449 . S
O7 U6 2.454 . S
O7 C9 1.353 . S
O8 U6 2.458 . S
O8 C9 1.286 . S
C9 U6 2.984 . S
C9 O7 1.353 . S
C9 O8 1.286 . S
C9 C11 1.363 . S
C10 C0 1.465 . S
C10 U6 2.847 . S
C10 O24 1.249 . S
C10 O25 1.202 . S
C11 C9 1.363 . S
C11 C13 1.408 . S
C11 C16 1.342 . S
C12 C13 1.310 . S
C12 C15 1.461 . S
C12 H32 0.932 . S
C13 C11 1.408 . S
C13 C12 1.310 . S
C13 H33 0.930 . S
C14 C15 1.474 . S
C14 C16 1.285 . S
C14 H34 0.929 . S
C15 C12 1.461 . S
C15 C14 1.474 . S
C16 C11 1.342 . S
C16 C14 1.285 . S
C16 H35 0.930 . S
C17 C20 1.424 . S
C17 C22 1.245 . S
C17 C23 1.428 . S
C18 C21 1.260 . S
C18 C22 1.477 . S
C18 H36 0.932 . S
C19 C20 1.384 . S
C19 C21 1.479 . S
C19 H37 0.929 . S
C20 C17 1.424 . S
C20 C19 1.384 . S
C20 H38 0.928 . S
C21 C18 1.260 . S
C21 C19 1.479 . S
C22 C17 1.245 . S
C22 C18 1.477 . S
C22 H39 0.932 . S
C23 U6 2.882 . S
C23 C17 1.428 . S
C23 O26 1.301 . S
C23 O27 1.282 . S
O24 U6 2.441 . S
O24 C10 1.249 . S
O25 U6 2.420 . S
O25 C10 1.202 . S
O26 U6 2.455 . S
O26 C23 1.301 . S
O27 U6 2.449 . S
O27 C23 1.282 . S
H28 C1 0.931 . S
H29 C3 0.929 . S
H30 C4 0.930 . S
H31 C5 0.931 . S
H32 C12 0.932 . S
H33 C13 0.930 . S
H34 C14 0.929 . S
H35 C16 0.930 . S
H36 C18 0.932 . S
H37 C19 0.929 . S
H38 C20 0.928 . S
H39 C22 0.932 . S
C40 C41 1.264 . S
C40 C45 1.479 . S
C40 C50 1.465 . S
C41 C40 1.264 . S
C41 C43 1.339 . S
C41 H68 0.931 . S
C42 C43 1.395 . S
C42 C44 1.320 . S
C43 C41 1.339 . S
C43 C42 1.395 . S
C43 H69 0.929 . S
C44 C42 1.320 . S
C44 C45 1.405 . S
C44 H70 0.930 . S
C45 C40 1.479 . S
C45 C44 1.405 . S
C45 H71 0.931 . S
U46 O47 2.454 . S
U46 O48 2.458 . S
U46 C49 2.984 . S
U46 C50 2.847 . S
U46 C63 2.882 . S
U46 O64 2.441 . S
U46 O65 2.420 . S
U46 O66 2.455 . S
U46 O67 2.449 . S
O47 U46 2.454 . S
O47 C49 1.353 . S
O48 U46 2.458 . S
O48 C49 1.286 . S
C49 U46 2.984 . S
C49 O47 1.353 . S
C49 O48 1.286 . S
C49 C51 1.363 . S
C50 C40 1.465 . S
C50 U46 2.847 . S
C50 O64 1.249 . S
C50 O65 1.202 . S
C51 C49 1.363 . S
C51 C53 1.408 . S
C51 C56 1.342 . S
C52 C53 1.310 . S
C52 C55 1.461 . S
C52 H72 0.932 . S
C53 C51 1.408 . S
C53 C52 1.310 . S
C53 H73 0.930 . S
C54 C55 1.474 . S
C54 C56 1.285 . S
C54 H74 0.929 . S
C55 C52 1.461 . S
C55 C54 1.474 . S
C56 C51 1.342 . S
C56 C54 1.285 . S
C56 H75 0.930 . S
C57 C60 1.424 . S
C57 C62 1.245 . S
C57 C63 1.428 . S
C58 C61 1.260 . S
C58 C62 1.477 . S
C58 H76 0.932 . S
C59 C60 1.384 . S
C59 C61 1.479 . S
C59 H77 0.929 . S
C60 C57 1.424 . S
C60 C59 1.384 . S
C60 H78 0.928 . S
C61 C58 1.260 . S
C61 C59 1.479 . S
C62 C57 1.245 . S
C62 C58 1.477 . S
C62 H79 0.932 . S
C63 U46 2.882 . S
C63 C57 1.428 . S
C63 O66 1.301 . S
C63 O67 1.282 . S
O64 U46 2.441 . S
O64 C50 1.249 . S
O65 U46 2.420 . S
O65 C50 1.202 . S
O66 U46 2.455 . S
O66 C63 1.301 . S
O67 U46 2.449 . S
O67 C63 1.282 . S
H68 C41 0.931 . S
H69 C43 0.929 . S
H70 C44 0.930 . S
H71 C45 0.931 . S
H72 C52 0.932 . S
H73 C53 0.930 . S
H74 C54 0.929 . S
H75 C56 0.930 . S
H76 C58 0.932 . S
H77 C59 0.929 . S
H78 C60 0.928 . S
H79 C62 0.932 . S
C80 C81 1.264 . S
C80 C85 1.479 . S
C80 C90 1.465 . S
C81 C80 1.264 . S
C81 C83 1.339 . S
C81 H108 0.931 . S
C82 C83 1.395 . S
C82 C84 1.320 . S
C83 C81 1.339 . S
C83 C82 1.395 . S
C83 H109 0.929 . S
C84 C82 1.320 . S
C84 C85 1.405 . S
C84 H110 0.930 . S
C85 C80 1.479 . S
C85 C84 1.405 . S
C85 H111 0.931 . S
U86 O87 2.454 . S
U86 O88 2.458 . S
U86 C89 2.984 . S
U86 C90 2.847 . S
U86 C103 2.882 . S
U86 O104 2.441 . S
U86 O105 2.420 . S
U86 O106 2.455 . S
U86 O107 2.449 . S
O87 U86 2.454 . S
O87 C89 1.353 . S
O88 U86 2.458 . S
O88 C89 1.286 . S
C89 U86 2.984 . S
C89 O87 1.353 . S
C89 O88 1.286 . S
C89 C91 1.363 . S
C90 C80 1.465 . S
C90 U86 2.847 . S
C90 O104 1.249 . S
C90 O105 1.202 . S
C91 C89 1.363 . S
C91 C93 1.408 . S
C91 C96 1.342 . S
C92 C93 1.310 . S
C92 C95 1.461 . S
C92 H112 0.932 . S
C93 C91 1.408 . S
C93 C92 1.310 . S
C93 H113 0.930 . S
C94 C95 1.474 . S
C94 C96 1.285 . S
C94 H114 0.929 . S
C95 C92 1.461 . S
C95 C94 1.474 . S
C96 C91 1.342 . S
C96 C94 1.285 . S
C96 H115 0.930 . S
C97 C100 1.424 . S
C97 C102 1.245 . S
C97 C103 1.428 . S
C98 C101 1.260 . S
C98 C102 1.477 . S
C98 H116 0.932 . S
C99 C100 1.384 . S
C99 C101 1.479 . S
C99 H117 0.929 . S
C100 C97 1.424 . S
C100 C99 1.384 . S
C100 H118 0.928 . S
C101 C98 1.260 . S
C101 C99 1.479 . S
C102 C97 1.245 . S
C102 C98 1.477 . S
C102 H119 0.932 . S
C103 U86 2.882 . S
C103 C97 1.428 . S
C103 O106 1.301 . S
C103 O107 1.282 . S
O104 U86 2.441 . S
O104 C90 1.249 . S
O105 U86 2.420 . S
O105 C90 1.202 . S
O106 U86 2.455 . S
O106 C103 1.301 . S
O107 U86 2.449 . S
O107 C103 1.282 . S
H108 C81 0.931 . S
H109 C83 0.929 . S
H110 C84 0.930 . S
H111 C85 0.931 . S
H112 C92 0.932 . S
H113 C93 0.930 . S
H114 C94 0.929 . S
H115 C96 0.930 . S
H116 C98 0.932 . S
H117 C99 0.929 . S
H118 C100 0.928 . S
H119 C102 0.932 . S
C120 C121 1.264 . S
C120 C125 1.479 . S
C120 C130 1.465 . S
C121 C120 1.264 . S
C121 C123 1.339 . S
C121 H148 0.931 . S
C122 C123 1.395 . S
C122 C124 1.320 . S
C123 C121 1.339 . S
C123 C122 1.395 . S
C123 H149 0.929 . S
C124 C122 1.320 . S
C124 C125 1.405 . S
C124 H150 0.930 . S
C125 C120 1.479 . S
C125 C124 1.405 . S
C125 H151 0.931 . S
U126 O127 2.454 . S
U126 O128 2.458 . S
U126 C129 2.984 . S
U126 C130 2.847 . S
U126 C143 2.882 . S
U126 O144 2.441 . S
U126 O145 2.420 . S
U126 O146 2.455 . S
U126 O147 2.449 . S
O127 U126 2.454 . S
O127 C129 1.353 . S
O128 U126 2.458 . S
O128 C129 1.286 . S
C129 U126 2.984 . S
C129 O127 1.353 . S
C129 O128 1.286 . S
C129 C131 1.363 . S
C130 C120 1.465 . S
C130 U126 2.847 . S
C130 O144 1.249 . S
C130 O145 1.202 . S
C131 C129 1.363 . S
C131 C133 1.408 . S
C131 C136 1.342 . S
C132 C133 1.310 . S
C132 C135 1.461 . S
C132 H152 0.932 . S
C133 C131 1.408 . S
C133 C132 1.310 . S
C133 H153 0.930 . S
C134 C135 1.474 . S
C134 C136 1.285 . S
C134 H154 0.929 . S
C135 C132 1.461 . S
C135 C134 1.474 . S
C136 C131 1.342 . S
C136 C134 1.285 . S
C136 H155 0.930 . S
C137 C140 1.424 . S
C137 C142 1.245 . S
C137 C143 1.428 . S
C138 C141 1.260 . S
C138 C142 1.477 . S
C138 H156 0.932 . S
C139 C140 1.384 . S
C139 C141 1.479 . S
C139 H157 0.929 . S
C140 C137 1.424 . S
C140 C139 1.384 . S
C140 H158 0.928 . S
C141 C138 1.260 . S
C141 C139 1.479 . S
C142 C137 1.245 . S
C142 C138 1.477 . S
C142 H159 0.932 . S
C143 U126 2.882 . S
C143 C137 1.428 . S
C143 O146 1.301 . S
C143 O147 1.282 . S
O144 U126 2.441 . S
O144 C130 1.249 . S
O145 U126 2.420 . S
O145 C130 1.202 . S
O146 U126 2.455 . S
O146 C143 1.301 . S
O147 U126 2.449 . S
O147 C143 1.282 . S
H148 C121 0.931 . S
H149 C123 0.929 . S
H150 C124 0.930 . S
H151 C125 0.931 . S
H152 C132 0.932 . S
H153 C133 0.930 . S
H154 C134 0.929 . S
H155 C136 0.930 . S
H156 C138 0.932 . S
H157 C139 0.929 . S
H158 C140 0.928 . S
H159 C142 0.932 . S
C160 C161 1.264 . S
C160 C165 1.479 . S
C160 C170 1.465 . S
C161 C160 1.264 . S
C161 C163 1.339 . S
C161 H188 0.931 . S
C162 C163 1.395 . S
C162 C164 1.320 . S
C163 C161 1.339 . S
C163 C162 1.395 . S
C163 H189 0.929 . S
C164 C162 1.320 . S
C164 C165 1.405 . S
C164 H190 0.930 . S
C165 C160 1.479 . S
C165 C164 1.405 . S
C165 H191 0.931 . S
U166 O167 2.454 . S
U166 O168 2.458 . S
U166 C169 2.984 . S
U166 C170 2.847 . S
U166 C183 2.882 . S
U166 O184 2.441 . S
U166 O185 2.420 . S
U166 O186 2.455 . S
U166 O187 2.449 . S
O167 U166 2.454 . S
O167 C169 1.353 . S
O168 U166 2.458 . S
O168 C169 1.286 . S
C169 U166 2.984 . S
C169 O167 1.353 . S
C169 O168 1.286 . S
C169 C171 1.363 . S
C170 C160 1.465 . S
C170 U166 2.847 . S
C170 O184 1.249 . S
C170 O185 1.202 . S
C171 C169 1.363 . S
C171 C173 1.408 . S
C171 C176 1.342 . S
C172 C173 1.310 . S
C172 C175 1.461 . S
C172 H192 0.932 . S
C173 C171 1.408 . S
C173 C172 1.310 . S
C173 H193 0.930 . S
C174 C175 1.474 . S
C174 C176 1.285 . S
C174 H194 0.929 . S
C175 C172 1.461 . S
C175 C174 1.474 . S
C176 C171 1.342 . S
C176 C174 1.285 . S
C176 H195 0.930 . S
C177 C180 1.424 . S
C177 C182 1.245 . S
C177 C183 1.428 . S
C178 C181 1.260 . S
C178 C182 1.477 . S
C178 H196 0.932 . S
C179 C180 1.384 . S
C179 C181 1.479 . S
C179 H197 0.929 . S
C180 C177 1.424 . S
C180 C179 1.384 . S
C180 H198 0.928 . S
C181 C178 1.260 . S
C181 C179 1.479 . S
C182 C177 1.245 . S
C182 C178 1.477 . S
C182 H199 0.932 . S
C183 U166 2.882 . S
C183 C177 1.428 . S
C183 O186 1.301 . S
C183 O187 1.282 . S
O184 U166 2.441 . S
O184 C170 1.249 . S
O185 U166 2.420 . S
O185 C170 1.202 . S
O186 U166 2.455 . S
O186 C183 1.301 . S
O187 U166 2.449 . S
O187 C183 1.282 . S
H188 C161 0.931 . S
H189 C163 0.929 . S
H190 C164 0.930 . S
H191 C165 0.931 . S
H192 C172 0.932 . S
H193 C173 0.930 . S
H194 C174 0.929 . S
H195 C176 0.930 . S
H196 C178 0.932 . S
H197 C179 0.929 . S
H198 C180 0.928 . S
H199 C182 0.932 . S
C200 C201 1.264 . S
C200 C205 1.479 . S
C200 C210 1.465 . S
C201 C200 1.264 . S
C201 C203 1.339 . S
C201 H228 0.931 . S
C202 C203 1.395 . S
C202 C204 1.320 . S
C203 C201 1.339 . S
C203 C202 1.395 . S
C203 H229 0.929 . S
C204 C202 1.320 . S
C204 C205 1.405 . S
C204 H230 0.930 . S
C205 C200 1.479 . S
C205 C204 1.405 . S
C205 H231 0.931 . S
U206 O207 2.454 . S
U206 O208 2.458 . S
U206 C209 2.984 . S
U206 C210 2.847 . S
U206 C223 2.882 . S
U206 O224 2.441 . S
U206 O225 2.420 . S
U206 O226 2.455 . S
U206 O227 2.449 . S
O207 U206 2.454 . S
O207 C209 1.353 . S
O208 U206 2.458 . S
O208 C209 1.286 . S
C209 U206 2.984 . S
C209 O207 1.353 . S
C209 O208 1.286 . S
C209 C211 1.363 . S
C210 C200 1.465 . S
C210 U206 2.847 . S
C210 O224 1.249 . S
C210 O225 1.202 . S
C211 C209 1.363 . S
C211 C213 1.408 . S
C211 C216 1.342 . S
C212 C213 1.310 . S
C212 C215 1.461 . S
C212 H232 0.932 . S
C213 C211 1.408 . S
C213 C212 1.310 . S
C213 H233 0.930 . S
C214 C215 1.474 . S
C214 C216 1.285 . S
C214 H234 0.929 . S
C215 C212 1.461 . S
C215 C214 1.474 . S
C216 C211 1.342 . S
C216 C214 1.285 . S
C216 H235 0.930 . S
C217 C220 1.424 . S
C217 C222 1.245 . S
C217 C223 1.428 . S
C218 C221 1.260 . S
C218 C222 1.477 . S
C218 H236 0.932 . S
C219 C220 1.384 . S
C219 C221 1.479 . S
C219 H237 0.929 . S
C220 C217 1.424 . S
C220 C219 1.384 . S
C220 H238 0.928 . S
C221 C218 1.260 . S
C221 C219 1.479 . S
C222 C217 1.245 . S
C222 C218 1.477 . S
C222 H239 0.932 . S
C223 U206 2.882 . S
C223 C217 1.428 . S
C223 O226 1.301 . S
C223 O227 1.282 . S
O224 U206 2.441 . S
O224 C210 1.249 . S
O225 U206 2.420 . S
O225 C210 1.202 . S
O226 U206 2.455 . S
O226 C223 1.301 . S
O227 U206 2.449 . S
O227 C223 1.282 . S
H228 C201 0.931 . S
H229 C203 0.929 . S
H230 C204 0.930 . S
H231 C205 0.931 . S
H232 C212 0.932 . S
H233 C213 0.930 . S
H234 C214 0.929 . S
H235 C216 0.930 . S
H236 C218 0.932 . S
H237 C219 0.929 . S
H238 C220 0.928 . S
H239 C222 0.932 . S
C240 C241 1.264 . S
C240 C245 1.479 . S
C240 C250 1.465 . S
C241 C240 1.264 . S
C241 C243 1.339 . S
C241 H268 0.931 . S
C242 C243 1.395 . S
C242 C244 1.320 . S
C243 C241 1.339 . S
C243 C242 1.395 . S
C243 H269 0.929 . S
C244 C242 1.320 . S
C244 C245 1.405 . S
C244 H270 0.930 . S
C245 C240 1.479 . S
C245 C244 1.405 . S
C245 H271 0.931 . S
U246 O247 2.454 . S
U246 O248 2.458 . S
U246 C249 2.984 . S
U246 C250 2.847 . S
U246 C263 2.882 . S
U246 O264 2.441 . S
U246 O265 2.420 . S
U246 O266 2.455 . S
U246 O267 2.449 . S
O247 U246 2.454 . S
O247 C249 1.353 . S
O248 U246 2.458 . S
O248 C249 1.286 . S
C249 U246 2.984 . S
C249 O247 1.353 . S
C249 O248 1.286 . S
C249 C251 1.363 . S
C250 C240 1.465 . S
C250 U246 2.847 . S
C250 O264 1.249 . S
C250 O265 1.202 . S
C251 C249 1.363 . S
C251 C253 1.408 . S
C251 C256 1.342 . S
C252 C253 1.310 . S
C252 C255 1.461 . S
C252 H272 0.932 . S
C253 C251 1.408 . S
C253 C252 1.310 . S
C253 H273 0.930 . S
C254 C255 1.474 . S
C254 C256 1.285 . S
C254 H274 0.929 . S
C255 C252 1.461 . S
C255 C254 1.474 . S
C256 C251 1.342 . S
C256 C254 1.285 . S
C256 H275 0.930 . S
C257 C260 1.424 . S
C257 C262 1.245 . S
C257 C263 1.428 . S
C258 C261 1.260 . S
C258 C262 1.477 . S
C258 H276 0.932 . S
C259 C260 1.384 . S
C259 C261 1.479 . S
C259 H277 0.929 . S
C260 C257 1.424 . S
C260 C259 1.384 . S
C260 H278 0.928 . S
C261 C258 1.260 . S
C261 C259 1.479 . S
C262 C257 1.245 . S
C262 C258 1.477 . S
C262 H279 0.932 . S
C263 U246 2.882 . S
C263 C257 1.428 . S
C263 O266 1.301 . S
C263 O267 1.282 . S
O264 U246 2.441 . S
O264 C250 1.249 . S
O265 U246 2.420 . S
O265 C250 1.202 . S
O266 U246 2.455 . S
O266 C263 1.301 . S
O267 U246 2.449 . S
O267 C263 1.282 . S
H268 C241 0.931 . S
H269 C243 0.929 . S
H270 C244 0.930 . S
H271 C245 0.931 . S
H272 C252 0.932 . S
H273 C253 0.930 . S
H274 C254 0.929 . S
H275 C256 0.930 . S
H276 C258 0.932 . S
H277 C259 0.929 . S
H278 C260 0.928 . S
H279 C262 0.932 . S
C280 C281 1.264 . S
C280 C285 1.479 . S
C280 C290 1.465 . S
C281 C280 1.264 . S
C281 C283 1.339 . S
C281 H308 0.931 . S
C282 C283 1.395 . S
C282 C284 1.320 . S
C283 C281 1.339 . S
C283 C282 1.395 . S
C283 H309 0.929 . S
C284 C282 1.320 . S
C284 C285 1.405 . S
C284 H310 0.930 . S
C285 C280 1.479 . S
C285 C284 1.405 . S
C285 H311 0.931 . S
U286 O287 2.454 . S
U286 O288 2.458 . S
U286 C289 2.984 . S
U286 C290 2.847 . S
U286 C303 2.882 . S
U286 O304 2.441 . S
U286 O305 2.420 . S
U286 O306 2.455 . S
U286 O307 2.449 . S
O287 U286 2.454 . S
O287 C289 1.353 . S
O288 U286 2.458 . S
O288 C289 1.286 . S
C289 U286 2.984 . S
C289 O287 1.353 . S
C289 O288 1.286 . S
C289 C291 1.363 . S
C290 C280 1.465 . S
C290 U286 2.847 . S
C290 O304 1.249 . S
C290 O305 1.202 . S
C291 C289 1.363 . S
C291 C293 1.408 . S
C291 C296 1.342 . S
C292 C293 1.310 . S
C292 C295 1.461 . S
C292 H312 0.932 . S
C293 C291 1.408 . S
C293 C292 1.310 . S
C293 H313 0.930 . S
C294 C295 1.474 . S
C294 C296 1.285 . S
C294 H314 0.929 . S
C295 C292 1.461 . S
C295 C294 1.474 . S
C296 C291 1.342 . S
C296 C294 1.285 . S
C296 H315 0.930 . S
C297 C300 1.424 . S
C297 C302 1.245 . S
C297 C303 1.428 . S
C298 C301 1.260 . S
C298 C302 1.477 . S
C298 H316 0.932 . S
C299 C300 1.384 . S
C299 C301 1.479 . S
C299 H317 0.929 . S
C300 C297 1.424 . S
C300 C299 1.384 . S
C300 H318 0.928 . S
C301 C298 1.260 . S
C301 C299 1.479 . S
C302 C297 1.245 . S
C302 C298 1.477 . S
C302 H319 0.932 . S
C303 U286 2.882 . S
C303 C297 1.428 . S
C303 O306 1.301 . S
C303 O307 1.282 . S
O304 U286 2.441 . S
O304 C290 1.249 . S
O305 U286 2.420 . S
O305 C290 1.202 . S
O306 U286 2.455 . S
O306 C303 1.301 . S
O307 U286 2.449 . S
O307 C303 1.282 . S
H308 C281 0.931 . S
H309 C283 0.929 . S
H310 C284 0.930 . S
H311 C285 0.931 . S
H312 C292 0.932 . S
H313 C293 0.930 . S
H314 C294 0.929 . S
H315 C296 0.930 . S
H316 C298 0.932 . S
H317 C299 0.929 . S
H318 C300 0.928 . S
H319 C302 0.932 . S
C320 C321 1.264 . S
C320 C325 1.479 . S
C320 C330 1.465 . S
C321 C320 1.264 . S
C321 C323 1.339 . S
C321 H348 0.931 . S
C322 C323 1.395 . S
C322 C324 1.320 . S
C323 C321 1.339 . S
C323 C322 1.395 . S
C323 H349 0.929 . S
C324 C322 1.320 . S
C324 C325 1.405 . S
C324 H350 0.930 . S
C325 C320 1.479 . S
C325 C324 1.405 . S
C325 H351 0.931 . S
U326 O327 2.454 . S
U326 O328 2.458 . S
U326 C329 2.984 . S
U326 C330 2.847 . S
U326 C343 2.882 . S
U326 O344 2.441 . S
U326 O345 2.420 . S
U326 O346 2.455 . S
U326 O347 2.449 . S
O327 U326 2.454 . S
O327 C329 1.353 . S
O328 U326 2.458 . S
O328 C329 1.286 . S
C329 U326 2.984 . S
C329 O327 1.353 . S
C329 O328 1.286 . S
C329 C331 1.363 . S
C330 C320 1.465 . S
C330 U326 2.847 . S
C330 O344 1.249 . S
C330 O345 1.202 . S
C331 C329 1.363 . S
C331 C333 1.408 . S
C331 C336 1.342 . S
C332 C333 1.310 . S
C332 C335 1.461 . S
C332 H352 0.932 . S
C333 C331 1.408 . S
C333 C332 1.310 . S
C333 H353 0.930 . S
C334 C335 1.474 . S
C334 C336 1.285 . S
C334 H354 0.929 . S
C335 C332 1.461 . S
C335 C334 1.474 . S
C336 C331 1.342 . S
C336 C334 1.285 . S
C336 H355 0.930 . S
C337 C340 1.424 . S
C337 C342 1.245 . S
C337 C343 1.428 . S
C338 C341 1.260 . S
C338 C342 1.477 . S
C338 H356 0.932 . S
C339 C340 1.384 . S
C339 C341 1.479 . S
C339 H357 0.929 . S
C340 C337 1.424 . S
C340 C339 1.384 . S
C340 H358 0.928 . S
C341 C338 1.260 . S
C341 C339 1.479 . S
C342 C337 1.245 . S
C342 C338 1.477 . S
C342 H359 0.932 . S
C343 U326 2.882 . S
C343 C337 1.428 . S
C343 O346 1.301 . S
C343 O347 1.282 . S
O344 U326 2.441 . S
O344 C330 1.249 . S
O345 U326 2.420 . S
O345 C330 1.202 . S
O346 U326 2.455 . S
O346 C343 1.301 . S
O347 U326 2.449 . S
O347 C343 1.282 . S
H348 C321 0.931 . S
H349 C323 0.929 . S
H350 C324 0.930 . S
H351 C325 0.931 . S
H352 C332 0.932 . S
H353 C333 0.930 . S
H354 C334 0.929 . S
H355 C336 0.930 . S
H356 C338 0.932 . S
H357 C339 0.929 . S
H358 C340 0.928 . S
H359 C342 0.932 . S
C360 C361 1.264 . S
C360 C365 1.479 . S
C360 C370 1.465 . S
C361 C360 1.264 . S
C361 C363 1.339 . S
C361 H388 0.931 . S
C362 C363 1.395 . S
C362 C364 1.320 . S
C363 C361 1.339 . S
C363 C362 1.395 . S
C363 H389 0.929 . S
C364 C362 1.320 . S
C364 C365 1.405 . S
C364 H390 0.930 . S
C365 C360 1.479 . S
C365 C364 1.405 . S
C365 H391 0.931 . S
U366 O367 2.454 . S
U366 O368 2.458 . S
U366 C369 2.984 . S
U366 C370 2.847 . S
U366 C383 2.882 . S
U366 O384 2.441 . S
U366 O385 2.420 . S
U366 O386 2.455 . S
U366 O387 2.449 . S
O367 U366 2.454 . S
O367 C369 1.353 . S
O368 U366 2.458 . S
O368 C369 1.286 . S
C369 U366 2.984 . S
C369 O367 1.353 . S
C369 O368 1.286 . S
C369 C371 1.363 . S
C370 C360 1.465 . S
C370 U366 2.847 . S
C370 O384 1.249 . S
C370 O385 1.202 . S
C371 C369 1.363 . S
C371 C373 1.408 . S
C371 C376 1.342 . S
C372 C373 1.310 . S
C372 C375 1.461 . S
C372 H392 0.932 . S
C373 C371 1.408 . S
C373 C372 1.310 . S
C373 H393 0.930 . S
C374 C375 1.474 . S
C374 C376 1.285 . S
C374 H394 0.929 . S
C375 C372 1.461 . S
C375 C374 1.474 . S
C376 C371 1.342 . S
C376 C374 1.285 . S
C376 H395 0.930 . S
C377 C380 1.424 . S
C377 C382 1.245 . S
C377 C383 1.428 . S
C378 C381 1.260 . S
C378 C382 1.477 . S
C378 H396 0.932 . S
C379 C380 1.384 . S
C379 C381 1.479 . S
C379 H397 0.929 . S
C380 C377 1.424 . S
C380 C379 1.384 . S
C380 H398 0.928 . S
C381 C378 1.260 . S
C381 C379 1.479 . S
C382 C377 1.245 . S
C382 C378 1.477 . S
C382 H399 0.932 . S
C383 U366 2.882 . S
C383 C377 1.428 . S
C383 O386 1.301 . S
C383 O387 1.282 . S
O384 U366 2.441 . S
O384 C370 1.249 . S
O385 U366 2.420 . S
O385 C370 1.202 . S
O386 U366 2.455 . S
O386 C383 1.301 . S
O387 U366 2.449 . S
O387 C383 1.282 . S
H388 C361 0.931 . S
H389 C363 0.929 . S
H390 C364 0.930 . S
H391 C365 0.931 . S
H392 C372 0.932 . S
H393 C373 0.930 . S
H394 C374 0.929 . S
H395 C376 0.930 . S
H396 C378 0.932 . S
H397 C379 0.929 . S
H398 C380 0.928 . S
H399 C382 0.932 . S
C400 C401 1.264 . S
C400 C405 1.479 . S
C400 C410 1.465 . S
C401 C400 1.264 . S
C401 C403 1.339 . S
C401 H428 0.931 . S
C402 C403 1.395 . S
C402 C404 1.320 . S
C403 C401 1.339 . S
C403 C402 1.395 . S
C403 H429 0.929 . S
C404 C402 1.320 . S
C404 C405 1.405 . S
C404 H430 0.930 . S
C405 C400 1.479 . S
C405 C404 1.405 . S
C405 H431 0.931 . S
U406 O407 2.454 . S
U406 O408 2.458 . S
U406 C409 2.984 . S
U406 C410 2.847 . S
U406 C423 2.882 . S
U406 O424 2.441 . S
U406 O425 2.420 . S
U406 O426 2.455 . S
U406 O427 2.449 . S
O407 U406 2.454 . S
O407 C409 1.353 . S
O408 U406 2.458 . S
O408 C409 1.286 . S
C409 U406 2.984 . S
C409 O407 1.353 . S
C409 O408 1.286 . S
C409 C411 1.363 . S
C410 C400 1.465 . S
C410 U406 2.847 . S
C410 O424 1.249 . S
C410 O425 1.202 . S
C411 C409 1.363 . S
C411 C413 1.408 . S
C411 C416 1.342 . S
C412 C413 1.310 . S
C412 C415 1.461 . S
C412 H432 0.932 . S
C413 C411 1.408 . S
C413 C412 1.310 . S
C413 H433 0.930 . S
C414 C415 1.474 . S
C414 C416 1.285 . S
C414 H434 0.929 . S
C415 C412 1.461 . S
C415 C414 1.474 . S
C416 C411 1.342 . S
C416 C414 1.285 . S
C416 H435 0.930 . S
C417 C420 1.424 . S
C417 C422 1.245 . S
C417 C423 1.428 . S
C418 C421 1.260 . S
C418 C422 1.477 . S
C418 H436 0.932 . S
C419 C420 1.384 . S
C419 C421 1.479 . S
C419 H437 0.929 . S
C420 C417 1.424 . S
C420 C419 1.384 . S
C420 H438 0.928 . S
C421 C418 1.260 . S
C421 C419 1.479 . S
C422 C417 1.245 . S
C422 C418 1.477 . S
C422 H439 0.932 . S
C423 U406 2.882 . S
C423 C417 1.428 . S
C423 O426 1.301 . S
C423 O427 1.282 . S
O424 U406 2.441 . S
O424 C410 1.249 . S
O425 U406 2.420 . S
O425 C410 1.202 . S
O426 U406 2.455 . S
O426 C423 1.301 . S
O427 U406 2.449 . S
O427 C423 1.282 . S
H428 C401 0.931 . S
H429 C403 0.929 . S
H430 C404 0.930 . S
H431 C405 0.931 . S
H432 C412 0.932 . S
H433 C413 0.930 . S
H434 C414 0.929 . S
H435 C416 0.930 . S
H436 C418 0.932 . S
H437 C419 0.929 . S
H438 C420 0.928 . S
H439 C422 0.932 . S
C440 C441 1.264 . S
C440 C445 1.479 . S
C440 C450 1.465 . S
C441 C440 1.264 . S
C441 C443 1.339 . S
C441 H468 0.931 . S
C442 C443 1.395 . S
C442 C444 1.320 . S
C443 C441 1.339 . S
C443 C442 1.395 . S
C443 H469 0.929 . S
C444 C442 1.320 . S
C444 C445 1.405 . S
C444 H470 0.930 . S
C445 C440 1.479 . S
C445 C444 1.405 . S
C445 H471 0.931 . S
U446 O447 2.454 . S
U446 O448 2.458 . S
U446 C449 2.984 . S
U446 C450 2.847 . S
U446 C463 2.882 . S
U446 O464 2.441 . S
U446 O465 2.420 . S
U446 O466 2.455 . S
U446 O467 2.449 . S
O447 U446 2.454 . S
O447 C449 1.353 . S
O448 U446 2.458 . S
O448 C449 1.286 . S
C449 U446 2.984 . S
C449 O447 1.353 . S
C449 O448 1.286 . S
C449 C451 1.363 . S
C450 C440 1.465 . S
C450 U446 2.847 . S
C450 O464 1.249 . S
C450 O465 1.202 . S
C451 C449 1.363 . S
C451 C453 1.408 . S
C451 C456 1.342 . S
C452 C453 1.310 . S
C452 C455 1.461 . S
C452 H472 0.932 . S
C453 C451 1.408 . S
C453 C452 1.310 . S
C453 H473 0.930 . S
C454 C455 1.474 . S
C454 C456 1.285 . S
C454 H474 0.929 . S
C455 C452 1.461 . S
C455 C454 1.474 . S
C456 C451 1.342 . S
C456 C454 1.285 . S
C456 H475 0.930 . S
C457 C460 1.424 . S
C457 C462 1.245 . S
C457 C463 1.428 . S
C458 C461 1.260 . S
C458 C462 1.477 . S
C458 H476 0.932 . S
C459 C460 1.384 . S
C459 C461 1.479 . S
C459 H477 0.929 . S
C460 C457 1.424 . S
C460 C459 1.384 . S
C460 H478 0.928 . S
C461 C458 1.260 . S
C461 C459 1.479 . S
C462 C457 1.245 . S
C462 C458 1.477 . S
C462 H479 0.932 . S
C463 U446 2.882 . S
C463 C457 1.428 . S
C463 O466 1.301 . S
C463 O467 1.282 . S
O464 U446 2.441 . S
O464 C450 1.249 . S
O465 U446 2.420 . S
O465 C450 1.202 . S
O466 U446 2.455 . S
O466 C463 1.301 . S
O467 U446 2.449 . S
O467 C463 1.282 . S
H468 C441 0.931 . S
H469 C443 0.929 . S
H470 C444 0.930 . S
H471 C445 0.931 . S
H472 C452 0.932 . S
H473 C453 0.930 . S
H474 C454 0.929 . S
H475 C456 0.930 . S
H476 C458 0.932 . S
H477 C459 0.929 . S
H478 C460 0.928 . S
H479 C462 0.932 . S
C480 C481 1.264 . S
C480 C485 1.479 . S
C480 C490 1.465 . S
C481 C480 1.264 . S
C481 C483 1.339 . S
C481 H508 0.931 . S
C482 C483 1.395 . S
C482 C484 1.320 . S
C483 C481 1.339 . S
C483 C482 1.395 . S
C483 H509 0.929 . S
C484 C482 1.320 . S
C484 C485 1.405 . S
C484 H510 0.930 . S
C485 C480 1.479 . S
C485 C484 1.405 . S
C485 H511 0.931 . S
U486 O487 2.454 . S
U486 O488 2.458 . S
U486 C489 2.984 . S
U486 C490 2.847 . S
U486 C503 2.882 . S
U486 O504 2.441 . S
U486 O505 2.420 . S
U486 O506 2.455 . S
U486 O507 2.449 . S
O487 U486 2.454 . S
O487 C489 1.353 . S
O488 U486 2.458 . S
O488 C489 1.286 . S
C489 U486 2.984 . S
C489 O487 1.353 . S
C489 O488 1.286 . S
C489 C491 1.363 . S
C490 C480 1.465 . S
C490 U486 2.847 . S
C490 O504 1.249 . S
C490 O505 1.202 . S
C491 C489 1.363 . S
C491 C493 1.408 . S
C491 C496 1.342 . S
C492 C493 1.310 . S
C492 C495 1.461 . S
C492 H512 0.932 . S
C493 C491 1.408 . S
C493 C492 1.310 . S
C493 H513 0.930 . S
C494 C495 1.474 . S
C494 C496 1.285 . S
C494 H514 0.929 . S
C495 C492 1.461 . S
C495 C494 1.474 . S
C496 C491 1.342 . S
C496 C494 1.285 . S
C496 H515 0.930 . S
C497 C500 1.424 . S
C497 C502 1.245 . S
C497 C503 1.428 . S
C498 C501 1.260 . S
C498 C502 1.477 . S
C498 H516 0.932 . S
C499 C500 1.384 . S
C499 C501 1.479 . S
C499 H517 0.929 . S
C500 C497 1.424 . S
C500 C499 1.384 . S
C500 H518 0.928 . S
C501 C498 1.260 . S
C501 C499 1.479 . S
C502 C497 1.245 . S
C502 C498 1.477 . S
C502 H519 0.932 . S
C503 U486 2.882 . S
C503 C497 1.428 . S
C503 O506 1.301 . S
C503 O507 1.282 . S
O504 U486 2.441 . S
O504 C490 1.249 . S
O505 U486 2.420 . S
O505 C490 1.202 . S
O506 U486 2.455 . S
O506 C503 1.301 . S
O507 U486 2.449 . S
O507 C503 1.282 . S
H508 C481 0.931 . S
H509 C483 0.929 . S
H510 C484 0.930 . S
H511 C485 0.931 . S
H512 C492 0.932 . S
H513 C493 0.930 . S
H514 C494 0.929 . S
H515 C496 0.930 . S
H516 C498 0.932 . S
H517 C499 0.929 . S
H518 C500 0.928 . S
H519 C502 0.932 . S
C520 C521 1.264 . S
C520 C525 1.479 . S
C520 C530 1.465 . S
C521 C520 1.264 . S
C521 C523 1.339 . S
C521 H548 0.931 . S
C522 C523 1.395 . S
C522 C524 1.320 . S
C523 C521 1.339 . S
C523 C522 1.395 . S
C523 H549 0.929 . S
C524 C522 1.320 . S
C524 C525 1.405 . S
C524 H550 0.930 . S
C525 C520 1.479 . S
C525 C524 1.405 . S
C525 H551 0.931 . S
U526 O527 2.454 . S
U526 O528 2.458 . S
U526 C529 2.984 . S
U526 C530 2.847 . S
U526 C543 2.882 . S
U526 O544 2.441 . S
U526 O545 2.420 . S
U526 O546 2.455 . S
U526 O547 2.449 . S
O527 U526 2.454 . S
O527 C529 1.353 . S
O528 U526 2.458 . S
O528 C529 1.286 . S
C529 U526 2.984 . S
C529 O527 1.353 . S
C529 O528 1.286 . S
C529 C531 1.363 . S
C530 C520 1.465 . S
C530 U526 2.847 . S
C530 O544 1.249 . S
C530 O545 1.202 . S
C531 C529 1.363 . S
C531 C533 1.408 . S
C531 C536 1.342 . S
C532 C533 1.310 . S
C532 C535 1.461 . S
C532 H552 0.932 . S
C533 C531 1.408 . S
C533 C532 1.310 . S
C533 H553 0.930 . S
C534 C535 1.474 . S
C534 C536 1.285 . S
C534 H554 0.929 . S
C535 C532 1.461 . S
C535 C534 1.474 . S
C536 C531 1.342 . S
C536 C534 1.285 . S
C536 H555 0.930 . S
C537 C540 1.424 . S
C537 C542 1.245 . S
C537 C543 1.428 . S
C538 C541 1.260 . S
C538 C542 1.477 . S
C538 H556 0.932 . S
C539 C540 1.384 . S
C539 C541 1.479 . S
C539 H557 0.929 . S
C540 C537 1.424 . S
C540 C539 1.384 . S
C540 H558 0.928 . S
C541 C538 1.260 . S
C541 C539 1.479 . S
C542 C537 1.245 . S
C542 C538 1.477 . S
C542 H559 0.932 . S
C543 U526 2.882 . S
C543 C537 1.428 . S
C543 O546 1.301 . S
C543 O547 1.282 . S
O544 U526 2.441 . S
O544 C530 1.249 . S
O545 U526 2.420 . S
O545 C530 1.202 . S
O546 U526 2.455 . S
O546 C543 1.301 . S
O547 U526 2.449 . S
O547 C543 1.282 . S
H548 C521 0.931 . S
H549 C523 0.929 . S
H550 C524 0.930 . S
H551 C525 0.931 . S
H552 C532 0.932 . S
H553 C533 0.930 . S
H554 C534 0.929 . S
H555 C536 0.930 . S
H556 C538 0.932 . S
H557 C539 0.929 . S
H558 C540 0.928 . S
H559 C542 0.932 . S
C560 C561 1.264 . S
C560 C565 1.479 . S
C560 C570 1.465 . S
C561 C560 1.264 . S
C561 C563 1.339 . S
C561 H588 0.931 . S
C562 C563 1.395 . S
C562 C564 1.320 . S
C563 C561 1.339 . S
C563 C562 1.395 . S
C563 H589 0.929 . S
C564 C562 1.320 . S
C564 C565 1.405 . S
C564 H590 0.930 . S
C565 C560 1.479 . S
C565 C564 1.405 . S
C565 H591 0.931 . S
U566 O567 2.454 . S
U566 O568 2.458 . S
U566 C569 2.984 . S
U566 C570 2.847 . S
U566 C583 2.882 . S
U566 O584 2.441 . S
U566 O585 2.420 . S
U566 O586 2.455 . S
U566 O587 2.449 . S
O567 U566 2.454 . S
O567 C569 1.353 . S
O568 U566 2.458 . S
O568 C569 1.286 . S
C569 U566 2.984 . S
C569 O567 1.353 . S
C569 O568 1.286 . S
C569 C571 1.363 . S
C570 C560 1.465 . S
C570 U566 2.847 . S
C570 O584 1.249 . S
C570 O585 1.202 . S
C571 C569 1.363 . S
C571 C573 1.408 . S
C571 C576 1.342 . S
C572 C573 1.310 . S
C572 C575 1.461 . S
C572 H592 0.932 . S
C573 C571 1.408 . S
C573 C572 1.310 . S
C573 H593 0.930 . S
C574 C575 1.474 . S
C574 C576 1.285 . S
C574 H594 0.929 . S
C575 C572 1.461 . S
C575 C574 1.474 . S
C576 C571 1.342 . S
C576 C574 1.285 . S
C576 H595 0.930 . S
C577 C580 1.424 . S
C577 C582 1.245 . S
C577 C583 1.428 . S
C578 C581 1.260 . S
C578 C582 1.477 . S
C578 H596 0.932 . S
C579 C580 1.384 . S
C579 C581 1.479 . S
C579 H597 0.929 . S
C580 C577 1.424 . S
C580 C579 1.384 . S
C580 H598 0.928 . S
C581 C578 1.260 . S
C581 C579 1.479 . S
C582 C577 1.245 . S
C582 C578 1.477 . S
C582 H599 0.932 . S
C583 U566 2.882 . S
C583 C577 1.428 . S
C583 O586 1.301 . S
C583 O587 1.282 . S
O584 U566 2.441 . S
O584 C570 1.249 . S
O585 U566 2.420 . S
O585 C570 1.202 . S
O586 U566 2.455 . S
O586 C583 1.301 . S
O587 U566 2.449 . S
O587 C583 1.282 . S
H588 C561 0.931 . S
H589 C563 0.929 . S
H590 C564 0.930 . S
H591 C565 0.931 . S
H592 C572 0.932 . S
H593 C573 0.930 . S
H594 C574 0.929 . S
H595 C576 0.930 . S
H596 C578 0.932 . S
H597 C579 0.929 . S
H598 C580 0.928 . S
H599 C582 0.932 . S
C600 C601 1.264 . S
C600 C605 1.479 . S
C600 C610 1.465 . S
C601 C600 1.264 . S
C601 C603 1.339 . S
C601 H628 0.931 . S
C602 C603 1.395 . S
C602 C604 1.320 . S
C603 C601 1.339 . S
C603 C602 1.395 . S
C603 H629 0.929 . S
C604 C602 1.320 . S
C604 C605 1.405 . S
C604 H630 0.930 . S
C605 C600 1.479 . S
C605 C604 1.405 . S
C605 H631 0.931 . S
U606 O607 2.454 . S
U606 O608 2.458 . S
U606 C609 2.984 . S
U606 C610 2.847 . S
U606 C623 2.882 . S
U606 O624 2.441 . S
U606 O625 2.420 . S
U606 O626 2.455 . S
U606 O627 2.449 . S
O607 U606 2.454 . S
O607 C609 1.353 . S
O608 U606 2.458 . S
O608 C609 1.286 . S
C609 U606 2.984 . S
C609 O607 1.353 . S
C609 O608 1.286 . S
C609 C611 1.363 . S
C610 C600 1.465 . S
C610 U606 2.847 . S
C610 O624 1.249 . S
C610 O625 1.202 . S
C611 C609 1.363 . S
C611 C613 1.408 . S
C611 C616 1.342 . S
C612 C613 1.310 . S
C612 C615 1.461 . S
C612 H632 0.932 . S
C613 C611 1.408 . S
C613 C612 1.310 . S
C613 H633 0.930 . S
C614 C615 1.474 . S
C614 C616 1.285 . S
C614 H634 0.929 . S
C615 C612 1.461 . S
C615 C614 1.474 . S
C616 C611 1.342 . S
C616 C614 1.285 . S
C616 H635 0.930 . S
C617 C620 1.424 . S
C617 C622 1.245 . S
C617 C623 1.428 . S
C618 C621 1.260 . S
C618 C622 1.477 . S
C618 H636 0.932 . S
C619 C620 1.384 . S
C619 C621 1.479 . S
C619 H637 0.929 . S
C620 C617 1.424 . S
C620 C619 1.384 . S
C620 H638 0.928 . S
C621 C618 1.260 . S
C621 C619 1.479 . S
C622 C617 1.245 . S
C622 C618 1.477 . S
C622 H639 0.932 . S
C623 U606 2.882 . S
C623 C617 1.428 . S
C623 O626 1.301 . S
C623 O627 1.282 . S
O624 U606 2.441 . S
O624 C610 1.249 . S
O625 U606 2.420 . S
O625 C610 1.202 . S
O626 U606 2.455 . S
O626 C623 1.301 . S
O627 U606 2.449 . S
O627 C623 1.282 . S
H628 C601 0.931 . S
H629 C603 0.929 . S
H630 C604 0.930 . S
H631 C605 0.931 . S
H632 C612 0.932 . S
H633 C613 0.930 . S
H634 C614 0.929 . S
H635 C616 0.930 . S
H636 C618 0.932 . S
H637 C619 0.929 . S
H638 C620 0.928 . S
H639 C622 0.932 . S
C640 C641 1.264 . S
C640 C645 1.479 . S
C640 C650 1.465 . S
C641 C640 1.264 . S
C641 C643 1.339 . S
C641 H668 0.931 . S
C642 C643 1.395 . S
C642 C644 1.320 . S
C643 C641 1.339 . S
C643 C642 1.395 . S
C643 H669 0.929 . S
C644 C642 1.320 . S
C644 C645 1.405 . S
C644 H670 0.930 . S
C645 C640 1.479 . S
C645 C644 1.405 . S
C645 H671 0.931 . S
U646 O647 2.454 . S
U646 O648 2.458 . S
U646 C649 2.984 . S
U646 C650 2.847 . S
U646 C663 2.882 . S
U646 O664 2.441 . S
U646 O665 2.420 . S
U646 O666 2.455 . S
U646 O667 2.449 . S
O647 U646 2.454 . S
O647 C649 1.353 . S
O648 U646 2.458 . S
O648 C649 1.286 . S
C649 U646 2.984 . S
C649 O647 1.353 . S
C649 O648 1.286 . S
C649 C651 1.363 . S
C650 C640 1.465 . S
C650 U646 2.847 . S
C650 O664 1.249 . S
C650 O665 1.202 . S
C651 C649 1.363 . S
C651 C653 1.408 . S
C651 C656 1.342 . S
C652 C653 1.310 . S
C652 C655 1.461 . S
C652 H672 0.932 . S
C653 C651 1.408 . S
C653 C652 1.310 . S
C653 H673 0.930 . S
C654 C655 1.474 . S
C654 C656 1.285 . S
C654 H674 0.929 . S
C655 C652 1.461 . S
C655 C654 1.474 . S
C656 C651 1.342 . S
C656 C654 1.285 . S
C656 H675 0.930 . S
C657 C660 1.424 . S
C657 C662 1.245 . S
C657 C663 1.428 . S
C658 C661 1.260 . S
C658 C662 1.477 . S
C658 H676 0.932 . S
C659 C660 1.384 . S
C659 C661 1.479 . S
C659 H677 0.929 . S
C660 C657 1.424 . S
C660 C659 1.384 . S
C660 H678 0.928 . S
C661 C658 1.260 . S
C661 C659 1.479 . S
C662 C657 1.245 . S
C662 C658 1.477 . S
C662 H679 0.932 . S
C663 U646 2.882 . S
C663 C657 1.428 . S
C663 O666 1.301 . S
C663 O667 1.282 . S
O664 U646 2.441 . S
O664 C650 1.249 . S
O665 U646 2.420 . S
O665 C650 1.202 . S
O666 U646 2.455 . S
O666 C663 1.301 . S
O667 U646 2.449 . S
O667 C663 1.282 . S
H668 C641 0.931 . S
H669 C643 0.929 . S
H670 C644 0.930 . S
H671 C645 0.931 . S
H672 C652 0.932 . S
H673 C653 0.930 . S
H674 C654 0.929 . S
H675 C656 0.930 . S
H676 C658 0.932 . S
H677 C659 0.929 . S
H678 C660 0.928 . S
H679 C662 0.932 . S
C680 C681 1.264 . S
C680 C685 1.479 . S
C680 C690 1.465 . S
C681 C680 1.264 . S
C681 C683 1.339 . S
C681 H708 0.931 . S
C682 C683 1.395 . S
C682 C684 1.320 . S
C683 C681 1.339 . S
C683 C682 1.395 . S
C683 H709 0.929 . S
C684 C682 1.320 . S
C684 C685 1.405 . S
C684 H710 0.930 . S
C685 C680 1.479 . S
C685 C684 1.405 . S
C685 H711 0.931 . S
U686 O687 2.454 . S
U686 O688 2.458 . S
U686 C689 2.984 . S
U686 C690 2.847 . S
U686 C703 2.882 . S
U686 O704 2.441 . S
U686 O705 2.420 . S
U686 O706 2.455 . S
U686 O707 2.449 . S
O687 U686 2.454 . S
O687 C689 1.353 . S
O688 U686 2.458 . S
O688 C689 1.286 . S
C689 U686 2.984 . S
C689 O687 1.353 . S
C689 O688 1.286 . S
C689 C691 1.363 . S
C690 C680 1.465 . S
C690 U686 2.847 . S
C690 O704 1.249 . S
C690 O705 1.202 . S
C691 C689 1.363 . S
C691 C693 1.408 . S
C691 C696 1.342 . S
C692 C693 1.310 . S
C692 C695 1.461 . S
C692 H712 0.932 . S
C693 C691 1.408 . S
C693 C692 1.310 . S
C693 H713 0.930 . S
C694 C695 1.474 . S
C694 C696 1.285 . S
C694 H714 0.929 . S
C695 C692 1.461 . S
C695 C694 1.474 . S
C696 C691 1.342 . S
C696 C694 1.285 . S
C696 H715 0.930 . S
C697 C700 1.424 . S
C697 C702 1.245 . S
C697 C703 1.428 . S
C698 C701 1.260 . S
C698 C702 1.477 . S
C698 H716 0.932 . S
C699 C700 1.384 . S
C699 C701 1.479 . S
C699 H717 0.929 . S
C700 C697 1.424 . S
C700 C699 1.384 . S
C700 H718 0.928 . S
C701 C698 1.260 . S
C701 C699 1.479 . S
C702 C697 1.245 . S
C702 C698 1.477 . S
C702 H719 0.932 . S
C703 U686 2.882 . S
C703 C697 1.428 . S
C703 O706 1.301 . S
C703 O707 1.282 . S
O704 U686 2.441 . S
O704 C690 1.249 . S
O705 U686 2.420 . S
O705 C690 1.202 . S
O706 U686 2.455 . S
O706 C703 1.301 . S
O707 U686 2.449 . S
O707 C703 1.282 . S
H708 C681 0.931 . S
H709 C683 0.929 . S
H710 C684 0.930 . S
H711 C685 0.931 . S
H712 C692 0.932 . S
H713 C693 0.930 . S
H714 C694 0.929 . S
H715 C696 0.930 . S
H716 C698 0.932 . S
H717 C699 0.929 . S
H718 C700 0.928 . S
H719 C702 0.932 . S
C720 C721 1.264 . S
C720 C725 1.479 . S
C720 C730 1.465 . S
C721 C720 1.264 . S
C721 C723 1.339 . S
C721 H748 0.931 . S
C722 C723 1.395 . S
C722 C724 1.320 . S
C723 C721 1.339 . S
C723 C722 1.395 . S
C723 H749 0.929 . S
C724 C722 1.320 . S
C724 C725 1.405 . S
C724 H750 0.930 . S
C725 C720 1.479 . S
C725 C724 1.405 . S
C725 H751 0.931 . S
U726 O727 2.454 . S
U726 O728 2.458 . S
U726 C729 2.984 . S
U726 C730 2.847 . S
U726 C743 2.882 . S
U726 O744 2.441 . S
U726 O745 2.420 . S
U726 O746 2.455 . S
U726 O747 2.449 . S
O727 U726 2.454 . S
O727 C729 1.353 . S
O728 U726 2.458 . S
O728 C729 1.286 . S
C729 U726 2.984 . S
C729 O727 1.353 . S
C729 O728 1.286 . S
C729 C731 1.363 . S
C730 C720 1.465 . S
C730 U726 2.847 . S
C730 O744 1.249 . S
C730 O745 1.202 . S
C731 C729 1.363 . S
C731 C733 1.408 . S
C731 C736 1.342 . S
C732 C733 1.310 . S
C732 C735 1.461 . S
C732 H752 0.932 . S
C733 C731 1.408 . S
C733 C732 1.310 . S
C733 H753 0.930 . S
C734 C735 1.474 . S
C734 C736 1.285 . S
C734 H754 0.929 . S
C735 C732 1.461 . S
C735 C734 1.474 . S
C736 C731 1.342 . S
C736 C734 1.285 . S
C736 H755 0.930 . S
C737 C740 1.424 . S
C737 C742 1.245 . S
C737 C743 1.428 . S
C738 C741 1.260 . S
C738 C742 1.477 . S
C738 H756 0.932 . S
C739 C740 1.384 . S
C739 C741 1.479 . S
C739 H757 0.929 . S
C740 C737 1.424 . S
C740 C739 1.384 . S
C740 H758 0.928 . S
C741 C738 1.260 . S
C741 C739 1.479 . S
C742 C737 1.245 . S
C742 C738 1.477 . S
C742 H759 0.932 . S
C743 U726 2.882 . S
C743 C737 1.428 . S
C743 O746 1.301 . S
C743 O747 1.282 . S
O744 U726 2.441 . S
O744 C730 1.249 . S
O745 U726 2.420 . S
O745 C730 1.202 . S
O746 U726 2.455 . S
O746 C743 1.301 . S
O747 U726 2.449 . S
O747 C743 1.282 . S
H748 C721 0.931 . S
H749 C723 0.929 . S
H750 C724 0.930 . S
H751 C725 0.931 . S
H752 C732 0.932 . S
H753 C733 0.930 . S
H754 C734 0.929 . S
H755 C736 0.930 . S
H756 C738 0.932 . S
H757 C739 0.929 . S
H758 C740 0.928 . S
H759 C742 0.932 . S
C760 C761 1.264 . S
C760 C765 1.479 . S
C760 C770 1.465 . S
C761 C760 1.264 . S
C761 C763 1.339 . S
C761 H788 0.931 . S
C762 C763 1.395 . S
C762 C764 1.320 . S
C763 C761 1.339 . S
C763 C762 1.395 . S
C763 H789 0.929 . S
C764 C762 1.320 . S
C764 C765 1.405 . S
C764 H790 0.930 . S
C765 C760 1.479 . S
C765 C764 1.405 . S
C765 H791 0.931 . S
U766 O767 2.454 . S
U766 O768 2.458 . S
U766 C769 2.984 . S
U766 C770 2.847 . S
U766 C783 2.882 . S
U766 O784 2.441 . S
U766 O785 2.420 . S
U766 O786 2.455 . S
U766 O787 2.449 . S
O767 U766 2.454 . S
O767 C769 1.353 . S
O768 U766 2.458 . S
O768 C769 1.286 . S
C769 U766 2.984 . S
C769 O767 1.353 . S
C769 O768 1.286 . S
C769 C771 1.363 . S
C770 C760 1.465 . S
C770 U766 2.847 . S
C770 O784 1.249 . S
C770 O785 1.202 . S
C771 C769 1.363 . S
C771 C773 1.408 . S
C771 C776 1.342 . S
C772 C773 1.310 . S
C772 C775 1.461 . S
C772 H792 0.932 . S
C773 C771 1.408 . S
C773 C772 1.310 . S
C773 H793 0.930 . S
C774 C775 1.474 . S
C774 C776 1.285 . S
C774 H794 0.929 . S
C775 C772 1.461 . S
C775 C774 1.474 . S
C776 C771 1.342 . S
C776 C774 1.285 . S
C776 H795 0.930 . S
C777 C780 1.424 . S
C777 C782 1.245 . S
C777 C783 1.428 . S
C778 C781 1.260 . S
C778 C782 1.477 . S
C778 H796 0.932 . S
C779 C780 1.384 . S
C779 C781 1.479 . S
C779 H797 0.929 . S
C780 C777 1.424 . S
C780 C779 1.384 . S
C780 H798 0.928 . S
C781 C778 1.260 . S
C781 C779 1.479 . S
C782 C777 1.245 . S
C782 C778 1.477 . S
C782 H799 0.932 . S
C783 U766 2.882 . S
C783 C777 1.428 . S
C783 O786 1.301 . S
C783 O787 1.282 . S
O784 U766 2.441 . S
O784 C770 1.249 . S
O785 U766 2.420 . S
O785 C770 1.202 . S
O786 U766 2.455 . S
O786 C783 1.301 . S
O787 U766 2.449 . S
O787 C783 1.282 . S
H788 C761 0.931 . S
H789 C763 0.929 . S
H790 C764 0.930 . S
H791 C765 0.931 . S
H792 C772 0.932 . S
H793 C773 0.930 . S
H794 C774 0.929 . S
H795 C776 0.930 . S
H796 C778 0.932 . S
H797 C779 0.929 . S
H798 C780 0.928 . S
H799 C782 0.932 . S
C800 C801 1.264 . S
C800 C805 1.479 . S
C800 C810 1.465 . S
C801 C800 1.264 . S
C801 C803 1.339 . S
C801 H828 0.931 . S
C802 C803 1.395 . S
C802 C804 1.320 . S
C803 C801 1.339 . S
C803 C802 1.395 . S
C803 H829 0.929 . S
C804 C802 1.320 . S
C804 C805 1.405 . S
C804 H830 0.930 . S
C805 C800 1.479 . S
C805 C804 1.405 . S
C805 H831 0.931 . S
U806 O807 2.454 . S
U806 O808 2.458 . S
U806 C809 2.984 . S
U806 C810 2.847 . S
U806 C823 2.882 . S
U806 O824 2.441 . S
U806 O825 2.420 . S
U806 O826 2.455 . S
U806 O827 2.449 . S
O807 U806 2.454 . S
O807 C809 1.353 . S
O808 U806 2.458 . S
O808 C809 1.286 . S
C809 U806 2.984 . S
C809 O807 1.353 . S
C809 O808 1.286 . S
C809 C811 1.363 . S
C810 C800 1.465 . S
C810 U806 2.847 . S
C810 O824 1.249 . S
C810 O825 1.202 . S
C811 C809 1.363 . S
C811 C813 1.408 . S
C811 C816 1.342 . S
C812 C813 1.310 . S
C812 C815 1.461 . S
C812 H832 0.932 . S
C813 C811 1.408 . S
C813 C812 1.310 . S
C813 H833 0.930 . S
C814 C815 1.474 . S
C814 C816 1.285 . S
C814 H834 0.929 . S
C815 C812 1.461 . S
C815 C814 1.474 . S
C816 C811 1.342 . S
C816 C814 1.285 . S
C816 H835 0.930 . S
C817 C820 1.424 . S
C817 C822 1.245 . S
C817 C823 1.428 . S
C818 C821 1.260 . S
C818 C822 1.477 . S
C818 H836 0.932 . S
C819 C820 1.384 . S
C819 C821 1.479 . S
C819 H837 0.929 . S
C820 C817 1.424 . S
C820 C819 1.384 . S
C820 H838 0.928 . S
C821 C818 1.260 . S
C821 C819 1.479 . S
C822 C817 1.245 . S
C822 C818 1.477 . S
C822 H839 0.932 . S
C823 U806 2.882 . S
C823 C817 1.428 . S
C823 O826 1.301 . S
C823 O827 1.282 . S
O824 U806 2.441 . S
O824 C810 1.249 . S
O825 U806 2.420 . S
O825 C810 1.202 . S
O826 U806 2.455 . S
O826 C823 1.301 . S
O827 U806 2.449 . S
O827 C823 1.282 . S
H828 C801 0.931 . S
H829 C803 0.929 . S
H830 C804 0.930 . S
H831 C805 0.931 . S
H832 C812 0.932 . S
H833 C813 0.930 . S
H834 C814 0.929 . S
H835 C816 0.930 . S
H836 C818 0.932 . S
H837 C819 0.929 . S
H838 C820 0.928 . S
H839 C822 0.932 . S
C840 C841 1.264 . S
C840 C845 1.479 . S
C840 C850 1.465 . S
C841 C840 1.264 . S
C841 C843 1.339 . S
C841 H868 0.931 . S
C842 C843 1.395 . S
C842 C844 1.320 . S
C843 C841 1.339 . S
C843 C842 1.395 . S
C843 H869 0.929 . S
C844 C842 1.320 . S
C844 C845 1.405 . S
C844 H870 0.930 . S
C845 C840 1.479 . S
C845 C844 1.405 . S
C845 H871 0.931 . S
U846 O847 2.454 . S
U846 O848 2.458 . S
U846 C849 2.984 . S
U846 C850 2.847 . S
U846 C863 2.882 . S
U846 O864 2.441 . S
U846 O865 2.420 . S
U846 O866 2.455 . S
U846 O867 2.449 . S
O847 U846 2.454 . S
O847 C849 1.353 . S
O848 U846 2.458 . S
O848 C849 1.286 . S
C849 U846 2.984 . S
C849 O847 1.353 . S
C849 O848 1.286 . S
C849 C851 1.363 . S
C850 C840 1.465 . S
C850 U846 2.847 . S
C850 O864 1.249 . S
C850 O865 1.202 . S
C851 C849 1.363 . S
C851 C853 1.408 . S
C851 C856 1.342 . S
C852 C853 1.310 . S
C852 C855 1.461 . S
C852 H872 0.932 . S
C853 C851 1.408 . S
C853 C852 1.310 . S
C853 H873 0.930 . S
C854 C855 1.474 . S
C854 C856 1.285 . S
C854 H874 0.929 . S
C855 C852 1.461 . S
C855 C854 1.474 . S
C856 C851 1.342 . S
C856 C854 1.285 . S
C856 H875 0.930 . S
C857 C860 1.424 . S
C857 C862 1.245 . S
C857 C863 1.428 . S
C858 C861 1.260 . S
C858 C862 1.477 . S
C858 H876 0.932 . S
C859 C860 1.384 . S
C859 C861 1.479 . S
C859 H877 0.929 . S
C860 C857 1.424 . S
C860 C859 1.384 . S
C860 H878 0.928 . S
C861 C858 1.260 . S
C861 C859 1.479 . S
C862 C857 1.245 . S
C862 C858 1.477 . S
C862 H879 0.932 . S
C863 U846 2.882 . S
C863 C857 1.428 . S
C863 O866 1.301 . S
C863 O867 1.282 . S
O864 U846 2.441 . S
O864 C850 1.249 . S
O865 U846 2.420 . S
O865 C850 1.202 . S
O866 U846 2.455 . S
O866 C863 1.301 . S
O867 U846 2.449 . S
O867 C863 1.282 . S
H868 C841 0.931 . S
H869 C843 0.929 . S
H870 C844 0.930 . S
H871 C845 0.931 . S
H872 C852 0.932 . S
H873 C853 0.930 . S
H874 C854 0.929 . S
H875 C856 0.930 . S
H876 C858 0.932 . S
H877 C859 0.929 . S
H878 C860 0.928 . S
H879 C862 0.932 . S
C880 C881 1.264 . S
C880 C885 1.479 . S
C880 C890 1.465 . S
C881 C880 1.264 . S
C881 C883 1.339 . S
C881 H908 0.931 . S
C882 C883 1.395 . S
C882 C884 1.320 . S
C883 C881 1.339 . S
C883 C882 1.395 . S
C883 H909 0.929 . S
C884 C882 1.320 . S
C884 C885 1.405 . S
C884 H910 0.930 . S
C885 C880 1.479 . S
C885 C884 1.405 . S
C885 H911 0.931 . S
U886 O887 2.454 . S
U886 O888 2.458 . S
U886 C889 2.984 . S
U886 C890 2.847 . S
U886 C903 2.882 . S
U886 O904 2.441 . S
U886 O905 2.420 . S
U886 O906 2.455 . S
U886 O907 2.449 . S
O887 U886 2.454 . S
O887 C889 1.353 . S
O888 U886 2.458 . S
O888 C889 1.286 . S
C889 U886 2.984 . S
C889 O887 1.353 . S
C889 O888 1.286 . S
C889 C891 1.363 . S
C890 C880 1.465 . S
C890 U886 2.847 . S
C890 O904 1.249 . S
C890 O905 1.202 . S
C891 C889 1.363 . S
C891 C893 1.408 . S
C891 C896 1.342 . S
C892 C893 1.310 . S
C892 C895 1.461 . S
C892 H912 0.932 . S
C893 C891 1.408 . S
C893 C892 1.310 . S
C893 H913 0.930 . S
C894 C895 1.474 . S
C894 C896 1.285 . S
C894 H914 0.929 . S
C895 C892 1.461 . S
C895 C894 1.474 . S
C896 C891 1.342 . S
C896 C894 1.285 . S
C896 H915 0.930 . S
C897 C900 1.424 . S
C897 C902 1.245 . S
C897 C903 1.428 . S
C898 C901 1.260 . S
C898 C902 1.477 . S
C898 H916 0.932 . S
C899 C900 1.384 . S
C899 C901 1.479 . S
C899 H917 0.929 . S
C900 C897 1.424 . S
C900 C899 1.384 . S
C900 H918 0.928 . S
C901 C898 1.260 . S
C901 C899 1.479 . S
C902 C897 1.245 . S
C902 C898 1.477 . S
C902 H919 0.932 . S
C903 U886 2.882 . S
C903 C897 1.428 . S
C903 O906 1.301 . S
C903 O907 1.282 . S
O904 U886 2.441 . S
O904 C890 1.249 . S
O905 U886 2.420 . S
O905 C890 1.202 . S
O906 U886 2.455 . S
O906 C903 1.301 . S
O907 U886 2.449 . S
O907 C903 1.282 . S
H908 C881 0.931 . S
H909 C883 0.929 . S
H910 C884 0.930 . S
H911 C885 0.931 . S
H912 C892 0.932 . S
H913 C893 0.930 . S
H914 C894 0.929 . S
H915 C896 0.930 . S
H916 C898 0.932 . S
H917 C899 0.929 . S
H918 C900 0.928 . S
H919 C902 0.932 . S
C920 C921 1.264 . S
C920 C925 1.479 . S
C920 C930 1.465 . S
C921 C920 1.264 . S
C921 C923 1.339 . S
C921 H948 0.931 . S
C922 C923 1.395 . S
C922 C924 1.320 . S
C923 C921 1.339 . S
C923 C922 1.395 . S
C923 H949 0.929 . S
C924 C922 1.320 . S
C924 C925 1.405 . S
C924 H950 0.930 . S
C925 C920 1.479 . S
C925 C924 1.405 . S
C925 H951 0.931 . S
U926 O927 2.454 . S
U926 O928 2.458 . S
U926 C929 2.984 . S
U926 C930 2.847 . S
U926 C943 2.882 . S
U926 O944 2.441 . S
U926 O945 2.420 . S
U926 O946 2.455 . S
U926 O947 2.449 . S
O927 U926 2.454 . S
O927 C929 1.353 . S
O928 U926 2.458 . S
O928 C929 1.286 . S
C929 U926 2.984 . S
C929 O927 1.353 . S
C929 O928 1.286 . S
C929 C931 1.363 . S
C930 C920 1.465 . S
C930 U926 2.847 . S
C930 O944 1.249 . S
C930 O945 1.202 . S
C931 C929 1.363 . S
C931 C933 1.408 . S
C931 C936 1.342 . S
C932 C933 1.310 . S
C932 C935 1.461 . S
C932 H952 0.932 . S
C933 C931 1.408 . S
C933 C932 1.310 . S
C933 H953 0.930 . S
C934 C935 1.474 . S
C934 C936 1.285 . S
C934 H954 0.929 . S
C935 C932 1.461 . S
C935 C934 1.474 . S
C936 C931 1.342 . S
C936 C934 1.285 . S
C936 H955 0.930 . S
C937 C940 1.424 . S
C937 C942 1.245 . S
C937 C943 1.428 . S
C938 C941 1.260 . S
C938 C942 1.477 . S
C938 H956 0.932 . S
C939 C940 1.384 . S
C939 C941 1.479 . S
C939 H957 0.929 . S
C940 C937 1.424 . S
C940 C939 1.384 . S
C940 H958 0.928 . S
C941 C938 1.260 . S
C941 C939 1.479 . S
C942 C937 1.245 . S
C942 C938 1.477 . S
C942 H959 0.932 . S
C943 U926 2.882 . S
C943 C937 1.428 . S
C943 O946 1.301 . S
C943 O947 1.282 . S
O944 U926 2.441 . S
O944 C930 1.249 . S
O945 U926 2.420 . S
O945 C930 1.202 . S
O946 U926 2.455 . S
O946 C943 1.301 . S
O947 U926 2.449 . S
O947 C943 1.282 . S
H948 C921 0.931 . S
H949 C923 0.929 . S
H950 C924 0.930 . S
H951 C925 0.931 . S
H952 C932 0.932 . S
H953 C933 0.930 . S
H954 C934 0.929 . S
H955 C936 0.930 . S
H956 C938 0.932 . S
H957 C939 0.929 . S
H958 C940 0.928 . S
H959 C942 0.932 . S
C960 C961 1.264 . S
C960 C965 1.479 . S
C960 C970 1.465 . S
C961 C960 1.264 . S
C961 C963 1.339 . S
C961 H988 0.931 . S
C962 C963 1.395 . S
C962 C964 1.320 . S
C963 C961 1.339 . S
C963 C962 1.395 . S
C963 H989 0.929 . S
C964 C962 1.320 . S
C964 C965 1.405 . S
C964 H990 0.930 . S
C965 C960 1.479 . S
C965 C964 1.405 . S
C965 H991 0.931 . S
U966 O967 2.454 . S
U966 O968 2.458 . S
U966 C969 2.984 . S
U966 C970 2.847 . S
U966 C983 2.882 . S
U966 O984 2.441 . S
U966 O985 2.420 . S
U966 O986 2.455 . S
U966 O987 2.449 . S
O967 U966 2.454 . S
O967 C969 1.353 . S
O968 U966 2.458 . S
O968 C969 1.286 . S
C969 U966 2.984 . S
C969 O967 1.353 . S
C969 O968 1.286 . S
C969 C971 1.363 . S
C970 C960 1.465 . S
C970 U966 2.847 . S
C970 O984 1.249 . S
C970 O985 1.202 . S
C971 C969 1.363 . S
C971 C973 1.408 . S
C971 C976 1.342 . S
C972 C973 1.310 . S
C972 C975 1.461 . S
C972 H992 0.932 . S
C973 C971 1.408 . S
C973 C972 1.310 . S
C973 H993 0.930 . S
C974 C975 1.474 . S
C974 C976 1.285 . S
C974 H994 0.929 . S
C975 C972 1.461 . S
C975 C974 1.474 . S
C976 C971 1.342 . S
C976 C974 1.285 . S
C976 H995 0.930 . S
C977 C980 1.424 . S
C977 C982 1.245 . S
C977 C983 1.428 . S
C978 C981 1.260 . S
C978 C982 1.477 . S
C978 H996 0.932 . S
C979 C980 1.384 . S
C979 C981 1.479 . S
C979 H997 0.929 . S
C980 C977 1.424 . S
C980 C979 1.384 . S
C980 H998 0.928 . S
C981 C978 1.260 . S
C981 C979 1.479 . S
C982 C977 1.245 . S
C982 C978 1.477 . S
C982 H999 0.932 . S
C983 U966 2.882 . S
C983 C977 1.428 . S
C983 O986 1.301 . S
C983 O987 1.282 . S
O984 U966 2.441 . S
O984 C970 1.249 . S
O985 U966 2.420 . S
O985 C970 1.202 . S
O986 U966 2.455 . S
O986 C983 1.301 . S
O987 U966 2.449 . S
O987 C983 1.282 . S
H988 C961 0.931 . S
H989 C963 0.929 . S
H990 C964 0.930 . S
H991 C965 0.931 . S
H992 C972 0.932 . S
H993 C973 0.930 . S
H994 C974 0.929 . S
H995 C976 0.930 . S
H996 C978 0.932 . S
H997 C979 0.929 . S
H998 C980 0.928 . S
H999 C982 0.932 . S
C1000 C1001 1.264 . S
C1000 C1005 1.479 . S
C1000 C1010 1.465 . S
C1001 C1000 1.264 . S
C1001 C1003 1.339 . S
C1001 H1028 0.931 . S
C1002 C1003 1.395 . S
C1002 C1004 1.320 . S
C1003 C1001 1.339 . S
C1003 C1002 1.395 . S
C1003 H1029 0.929 . S
C1004 C1002 1.320 . S
C1004 C1005 1.405 . S
C1004 H1030 0.930 . S
C1005 C1000 1.479 . S
C1005 C1004 1.405 . S
C1005 H1031 0.931 . S
U1006 O1007 2.454 . S
U1006 O1008 2.458 . S
U1006 C1009 2.984 . S
U1006 C1010 2.847 . S
U1006 C1023 2.882 . S
U1006 O1024 2.441 . S
U1006 O1025 2.420 . S
U1006 O1026 2.455 . S
U1006 O1027 2.449 . S
O1007 U1006 2.454 . S
O1007 C1009 1.353 . S
O1008 U1006 2.458 . S
O1008 C1009 1.286 . S
C1009 U1006 2.984 . S
C1009 O1007 1.353 . S
C1009 O1008 1.286 . S
C1009 C1011 1.363 . S
C1010 C1000 1.465 . S
C1010 U1006 2.847 . S
C1010 O1024 1.249 . S
C1010 O1025 1.202 . S
C1011 C1009 1.363 . S
C1011 C1013 1.408 . S
C1011 C1016 1.342 . S
C1012 C1013 1.310 . S
C1012 C1015 1.461 . S
C1012 H1032 0.932 . S
C1013 C1011 1.408 . S
C1013 C1012 1.310 . S
C1013 H1033 0.930 . S
C1014 C1015 1.474 . S
C1014 C1016 1.285 . S
C1014 H1034 0.929 . S
C1015 C1012 1.461 . S
C1015 C1014 1.474 . S
C1016 C1011 1.342 . S
C1016 C1014 1.285 . S
C1016 H1035 0.930 . S
C1017 C1020 1.424 . S
C1017 C1022 1.245 . S
C1017 C1023 1.428 . S
C1018 C1021 1.260 . S
C1018 C1022 1.477 . S
C1018 H1036 0.932 . S
C1019 C1020 1.384 . S
C1019 C1021 1.479 . S
C1019 H1037 0.929 . S
C1020 C1017 1.424 . S
C1020 C1019 1.384 . S
C1020 H1038 0.928 . S
C1021 C1018 1.260 . S
C1021 C1019 1.479 . S
C1022 C1017 1.245 . S
C1022 C1018 1.477 . S
C1022 H1039 0.932 . S
C1023 U1006 2.882 . S
C1023 C1017 1.428 . S
C1023 O1026 1.301 . S
C1023 O1027 1.282 . S
O1024 U1006 2.441 . S
O1024 C1010 1.249 . S
O1025 U1006 2.420 . S
O1025 C1010 1.202 . S
O1026 U1006 2.455 . S
O1026 C1023 1.301 . S
O1027 U1006 2.449 . S
O1027 C1023 1.282 . S
H1028 C1001 0.931 . S
H1029 C1003 0.929 . S
H1030 C1004 0.930 . S
H1031 C1005 0.931 . S
H1032 C1012 0.932 . S
H1033 C1013 0.930 . S
H1034 C1014 0.929 . S
H1035 C1016 0.930 . S
H1036 C1018 0.932 . S
H1037 C1019 0.929 . S
H1038 C1020 0.928 . S
H1039 C1022 0.932 . S
C1040 C1041 1.264 . S
C1040 C1045 1.479 . S
C1040 C1050 1.465 . S
C1041 C1040 1.264 . S
C1041 C1043 1.339 . S
C1041 H1068 0.931 . S
C1042 C1043 1.395 . S
C1042 C1044 1.320 . S
C1043 C1041 1.339 . S
C1043 C1042 1.395 . S
C1043 H1069 0.929 . S
C1044 C1042 1.320 . S
C1044 C1045 1.405 . S
C1044 H1070 0.930 . S
C1045 C1040 1.479 . S
C1045 C1044 1.405 . S
C1045 H1071 0.931 . S
U1046 O1047 2.454 . S
U1046 O1048 2.458 . S
U1046 C1049 2.984 . S
U1046 C1050 2.847 . S
U1046 C1063 2.882 . S
U1046 O1064 2.441 . S
U1046 O1065 2.420 . S
U1046 O1066 2.455 . S
U1046 O1067 2.449 . S
O1047 U1046 2.454 . S
O1047 C1049 1.353 . S
O1048 U1046 2.458 . S
O1048 C1049 1.286 . S
C1049 U1046 2.984 . S
C1049 O1047 1.353 . S
C1049 O1048 1.286 . S
C1049 C1051 1.363 . S
C1050 C1040 1.465 . S
C1050 U1046 2.847 . S
C1050 O1064 1.249 . S
C1050 O1065 1.202 . S
C1051 C1049 1.363 . S
C1051 C1053 1.408 . S
C1051 C1056 1.342 . S
C1052 C1053 1.310 . S
C1052 C1055 1.461 . S
C1052 H1072 0.932 . S
C1053 C1051 1.408 . S
C1053 C1052 1.310 . S
C1053 H1073 0.930 . S
C1054 C1055 1.474 . S
C1054 C1056 1.285 . S
C1054 H1074 0.929 . S
C1055 C1052 1.461 . S
C1055 C1054 1.474 . S
C1056 C1051 1.342 . S
C1056 C1054 1.285 . S
C1056 H1075 0.930 . S
C1057 C1060 1.424 . S
C1057 C1062 1.245 . S
C1057 C1063 1.428 . S
C1058 C1061 1.260 . S
C1058 C1062 1.477 . S
C1058 H1076 0.932 . S
C1059 C1060 1.384 . S
C1059 C1061 1.479 . S
C1059 H1077 0.929 . S
C1060 C1057 1.424 . S
C1060 C1059 1.384 . S
C1060 H1078 0.928 . S
C1061 C1058 1.260 . S
C1061 C1059 1.479 . S
C1062 C1057 1.245 . S
C1062 C1058 1.477 . S
C1062 H1079 0.932 . S
C1063 U1046 2.882 . S
C1063 C1057 1.428 . S
C1063 O1066 1.301 . S
C1063 O1067 1.282 . S
O1064 U1046 2.441 . S
O1064 C1050 1.249 . S
O1065 U1046 2.420 . S
O1065 C1050 1.202 . S
O1066 U1046 2.455 . S
O1066 C1063 1.301 . S
O1067 U1046 2.449 . S
O1067 C1063 1.282 . S
H1068 C1041 0.931 . S
H1069 C1043 0.929 . S
H1070 C1044 0.930 . S
H1071 C1045 0.931 . S
H1072 C1052 0.932 . S
H1073 C1053 0.930 . S
H1074 C1054 0.929 . S
H1075 C1056 0.930 . S
H1076 C1058 0.932 . S
H1077 C1059 0.929 . S
H1078 C1060 0.928 . S
H1079 C1062 0.932 . S
C1080 C1081 1.264 . S
C1080 C1085 1.479 . S
C1080 C1090 1.465 . S
C1081 C1080 1.264 . S
C1081 C1083 1.339 . S
C1081 H1108 0.931 . S
C1082 C1083 1.395 . S
C1082 C1084 1.320 . S
C1083 C1081 1.339 . S
C1083 C1082 1.395 . S
C1083 H1109 0.929 . S
C1084 C1082 1.320 . S
C1084 C1085 1.405 . S
C1084 H1110 0.930 . S
C1085 C1080 1.479 . S
C1085 C1084 1.405 . S
C1085 H1111 0.931 . S
U1086 O1087 2.454 . S
U1086 O1088 2.458 . S
U1086 C1089 2.984 . S
U1086 C1090 2.847 . S
U1086 C1103 2.882 . S
U1086 O1104 2.441 . S
U1086 O1105 2.420 . S
U1086 O1106 2.455 . S
U1086 O1107 2.449 . S
O1087 U1086 2.454 . S
O1087 C1089 1.353 . S
O1088 U1086 2.458 . S
O1088 C1089 1.286 . S
C1089 U1086 2.984 . S
C1089 O1087 1.353 . S
C1089 O1088 1.286 . S
C1089 C1091 1.363 . S
C1090 C1080 1.465 . S
C1090 U1086 2.847 . S
C1090 O1104 1.249 . S
C1090 O1105 1.202 . S
C1091 C1089 1.363 . S
C1091 C1093 1.408 . S
C1091 C1096 1.342 . S
C1092 C1093 1.310 . S
C1092 C1095 1.461 . S
C1092 H1112 0.932 . S
C1093 C1091 1.408 . S
C1093 C1092 1.310 . S
C1093 H1113 0.930 . S
C1094 C1095 1.474 . S
C1094 C1096 1.285 . S
C1094 H1114 0.929 . S
C1095 C1092 1.461 . S
C1095 C1094 1.474 . S
C1096 C1091 1.342 . S
C1096 C1094 1.285 . S
C1096 H1115 0.930 . S
C1097 C1100 1.424 . S
C1097 C1102 1.245 . S
C1097 C1103 1.428 . S
C1098 C1101 1.260 . S
C1098 C1102 1.477 . S
C1098 H1116 0.932 . S
C1099 C1100 1.384 . S
C1099 C1101 1.479 . S
C1099 H1117 0.929 . S
C1100 C1097 1.424 . S
C1100 C1099 1.384 . S
C1100 H1118 0.928 . S
C1101 C1098 1.260 . S
C1101 C1099 1.479 . S
C1102 C1097 1.245 . S
C1102 C1098 1.477 . S
C1102 H1119 0.932 . S
C1103 U1086 2.882 . S
C1103 C1097 1.428 . S
C1103 O1106 1.301 . S
C1103 O1107 1.282 . S
O1104 U1086 2.441 . S
O1104 C1090 1.249 . S
O1105 U1086 2.420 . S
O1105 C1090 1.202 . S
O1106 U1086 2.455 . S
O1106 C1103 1.301 . S
O1107 U1086 2.449 . S
O1107 C1103 1.282 . S
H1108 C1081 0.931 . S
H1109 C1083 0.929 . S
H1110 C1084 0.930 . S
H1111 C1085 0.931 . S
H1112 C1092 0.932 . S
H1113 C1093 0.930 . S
H1114 C1094 0.929 . S
H1115 C1096 0.930 . S
H1116 C1098 0.932 . S
H1117 C1099 0.929 . S
H1118 C1100 0.928 . S
H1119 C1102 0.932 . S
C1120 C1121 1.264 . S
C1120 C1125 1.479 . S
C1120 C1130 1.465 . S
C1121 C1120 1.264 . S
C1121 C1123 1.339 . S
C1121 H1148 0.931 . S
C1122 C1123 1.395 . S
C1122 C1124 1.320 . S
C1123 C1121 1.339 . S
C1123 C1122 1.395 . S
C1123 H1149 0.929 . S
C1124 C1122 1.320 . S
C1124 C1125 1.405 . S
C1124 H1150 0.930 . S
C1125 C1120 1.479 . S
C1125 C1124 1.405 . S
C1125 H1151 0.931 . S
U1126 O1127 2.454 . S
U1126 O1128 2.458 . S
U1126 C1129 2.984 . S
U1126 C1130 2.847 . S
U1126 C1143 2.882 . S
U1126 O1144 2.441 . S
U1126 O1145 2.420 . S
U1126 O1146 2.455 . S
U1126 O1147 2.449 . S
O1127 U1126 2.454 . S
O1127 C1129 1.353 . S
O1128 U1126 2.458 . S
O1128 C1129 1.286 . S
C1129 U1126 2.984 . S
C1129 O1127 1.353 . S
C1129 O1128 1.286 . S
C1129 C1131 1.363 . S
C1130 C1120 1.465 . S
C1130 U1126 2.847 . S
C1130 O1144 1.249 . S
C1130 O1145 1.202 . S
C1131 C1129 1.363 . S
C1131 C1133 1.408 . S
C1131 C1136 1.342 . S
C1132 C1133 1.310 . S
C1132 C1135 1.461 . S
C1132 H1152 0.932 . S
C1133 C1131 1.408 . S
C1133 C1132 1.310 . S
C1133 H1153 0.930 . S
C1134 C1135 1.474 . S
C1134 C1136 1.285 . S
C1134 H1154 0.929 . S
C1135 C1132 1.461 . S
C1135 C1134 1.474 . S
C1136 C1131 1.342 . S
C1136 C1134 1.285 . S
C1136 H1155 0.930 . S
C1137 C1140 1.424 . S
C1137 C1142 1.245 . S
C1137 C1143 1.428 . S
C1138 C1141 1.260 . S
C1138 C1142 1.477 . S
C1138 H1156 0.932 . S
C1139 C1140 1.384 . S
C1139 C1141 1.479 . S
C1139 H1157 0.929 . S
C1140 C1137 1.424 . S
C1140 C1139 1.384 . S
C1140 H1158 0.928 . S
C1141 C1138 1.260 . S
C1141 C1139 1.479 . S
C1142 C1137 1.245 . S
C1142 C1138 1.477 . S
C1142 H1159 0.932 . S
C1143 U1126 2.882 . S
C1143 C1137 1.428 . S
C1143 O1146 1.301 . S
C1143 O1147 1.282 . S
O1144 U1126 2.441 . S
O1144 C1130 1.249 . S
O1145 U1126 2.420 . S
O1145 C1130 1.202 . S
O1146 U1126 2.455 . S
O1146 C1143 1.301 . S
O1147 U1126 2.449 . S
O1147 C1143 1.282 . S
H1148 C1121 0.931 . S
H1149 C1123 0.929 . S
H1150 C1124 0.930 . S
H1151 C1125 0.931 . S
H1152 C1132 0.932 . S
H1153 C1133 0.930 . S
H1154 C1134 0.929 . S
H1155 C1136 0.930 . S
H1156 C1138 0.932 . S
H1157 C1139 0.929 . S
H1158 C1140 0.928 . S
H1159 C1142 0.932 . S
C1160 C1161 1.264 . S
C1160 C1165 1.479 . S
C1160 C1170 1.465 . S
C1161 C1160 1.264 . S
C1161 C1163 1.339 . S
C1161 H1188 0.931 . S
C1162 C1163 1.395 . S
C1162 C1164 1.320 . S
C1163 C1161 1.339 . S
C1163 C1162 1.395 . S
C1163 H1189 0.929 . S
C1164 C1162 1.320 . S
C1164 C1165 1.405 . S
C1164 H1190 0.930 . S
C1165 C1160 1.479 . S
C1165 C1164 1.405 . S
C1165 H1191 0.931 . S
U1166 O1167 2.454 . S
U1166 O1168 2.458 . S
U1166 C1169 2.984 . S
U1166 C1170 2.847 . S
U1166 C1183 2.882 . S
U1166 O1184 2.441 . S
U1166 O1185 2.420 . S
U1166 O1186 2.455 . S
U1166 O1187 2.449 . S
O1167 U1166 2.454 . S
O1167 C1169 1.353 . S
O1168 U1166 2.458 . S
O1168 C1169 1.286 . S
C1169 U1166 2.984 . S
C1169 O1167 1.353 . S
C1169 O1168 1.286 . S
C1169 C1171 1.363 . S
C1170 C1160 1.465 . S
C1170 U1166 2.847 . S
C1170 O1184 1.249 . S
C1170 O1185 1.202 . S
C1171 C1169 1.363 . S
C1171 C1173 1.408 . S
C1171 C1176 1.342 . S
C1172 C1173 1.310 . S
C1172 C1175 1.461 . S
C1172 H1192 0.932 . S
C1173 C1171 1.408 . S
C1173 C1172 1.310 . S
C1173 H1193 0.930 . S
C1174 C1175 1.474 . S
C1174 C1176 1.285 . S
C1174 H1194 0.929 . S
C1175 C1172 1.461 . S
C1175 C1174 1.474 . S
C1176 C1171 1.342 . S
C1176 C1174 1.285 . S
C1176 H1195 0.930 . S
C1177 C1180 1.424 . S
C1177 C1182 1.245 . S
C1177 C1183 1.428 . S
C1178 C1181 1.260 . S
C1178 C1182 1.477 . S
C1178 H1196 0.932 . S
C1179 C1180 1.384 . S
C1179 C1181 1.479 . S
C1179 H1197 0.929 . S
C1180 C1177 1.424 . S
C1180 C1179 1.384 . S
C1180 H1198 0.928 . S
C1181 C1178 1.260 . S
C1181 C1179 1.479 . S
C1182 C1177 1.245 . S
C1182 C1178 1.477 . S
C1182 H1199 0.932 . S
C1183 U1166 2.882 . S
C1183 C1177 1.428 . S
C1183 O1186 1.301 . S
C1183 O1187 1.282 . S
O1184 U1166 2.441 . S
O1184 C1170 1.249 . S
O1185 U1166 2.420 . S
O1185 C1170 1.202 . S
O1186 U1166 2.455 . S
O1186 C1183 1.301 . S
O1187 U1166 2.449 . S
O1187 C1183 1.282 . S
H1188 C1161 0.931 . S
H1189 C1163 0.929 . S
H1190 C1164 0.930 . S
H1191 C1165 0.931 . S
H1192 C1172 0.932 . S
H1193 C1173 0.930 . S
H1194 C1174 0.929 . S
H1195 C1176 0.930 . S
H1196 C1178 0.932 . S
H1197 C1179 0.929 . S
H1198 C1180 0.928 . S
H1199 C1182 0.932 . S
C1200 C1201 1.264 . S
C1200 C1205 1.479 . S
C1200 C1210 1.465 . S
C1201 C1200 1.264 . S
C1201 C1203 1.339 . S
C1201 H1228 0.931 . S
C1202 C1203 1.395 . S
C1202 C1204 1.320 . S
C1203 C1201 1.339 . S
C1203 C1202 1.395 . S
C1203 H1229 0.929 . S
C1204 C1202 1.320 . S
C1204 C1205 1.405 . S
C1204 H1230 0.930 . S
C1205 C1200 1.479 . S
C1205 C1204 1.405 . S
C1205 H1231 0.931 . S
U1206 O1207 2.454 . S
U1206 O1208 2.458 . S
U1206 C1209 2.984 . S
U1206 C1210 2.847 . S
U1206 C1223 2.882 . S
U1206 O1224 2.441 . S
U1206 O1225 2.420 . S
U1206 O1226 2.455 . S
U1206 O1227 2.449 . S
O1207 U1206 2.454 . S
O1207 C1209 1.353 . S
O1208 U1206 2.458 . S
O1208 C1209 1.286 . S
C1209 U1206 2.984 . S
C1209 O1207 1.353 . S
C1209 O1208 1.286 . S
C1209 C1211 1.363 . S
C1210 C1200 1.465 . S
C1210 U1206 2.847 . S
C1210 O1224 1.249 . S
C1210 O1225 1.202 . S
C1211 C1209 1.363 . S
C1211 C1213 1.408 . S
C1211 C1216 1.342 . S
C1212 C1213 1.310 . S
C1212 C1215 1.461 . S
C1212 H1232 0.932 . S
C1213 C1211 1.408 . S
C1213 C1212 1.310 . S
C1213 H1233 0.930 . S
C1214 C1215 1.474 . S
C1214 C1216 1.285 . S
C1214 H1234 0.929 . S
C1215 C1212 1.461 . S
C1215 C1214 1.474 . S
C1216 C1211 1.342 . S
C1216 C1214 1.285 . S
C1216 H1235 0.930 . S
C1217 C1220 1.424 . S
C1217 C1222 1.245 . S
C1217 C1223 1.428 . S
C1218 C1221 1.260 . S
C1218 C1222 1.477 . S
C1218 H1236 0.932 . S
C1219 C1220 1.384 . S
C1219 C1221 1.479 . S
C1219 H1237 0.929 . S
C1220 C1217 1.424 . S
C1220 C1219 1.384 . S
C1220 H1238 0.928 . S
C1221 C1218 1.260 . S
C1221 C1219 1.479 . S
C1222 C1217 1.245 . S
C1222 C1218 1.477 . S
C1222 H1239 0.932 . S
C1223 U1206 2.882 . S
C1223 C1217 1.428 . S
C1223 O1226 1.301 . S
C1223 O1227 1.282 . S
O1224 U1206 2.441 . S
O1224 C1210 1.249 . S
O1225 U1206 2.420 . S
O1225 C1210 1.202 . S
O1226 U1206 2.455 . S
O1226 C1223 1.301 . S
O1227 U1206 2.449 . S
O1227 C1223 1.282 . S
H1228 C1201 0.931 . S
H1229 C1203 0.929 . S
H1230 C1204 0.930 . S
H1231 C1205 0.931 . S
H1232 C1212 0.932 . S
H1233 C1213 0.930 . S
H1234 C1214 0.929 . S
H1235 C1216 0.930 . S
H1236 C1218 0.932 . S
H1237 C1219 0.929 . S
H1238 C1220 0.928 . S
H1239 C1222 0.932 . S
C1240 C1241 1.264 . S
C1240 C1245 1.479 . S
C1240 C1250 1.465 . S
C1241 C1240 1.264 . S
C1241 C1243 1.339 . S
C1241 H1268 0.931 . S
C1242 C1243 1.395 . S
C1242 C1244 1.320 . S
C1243 C1241 1.339 . S
C1243 C1242 1.395 . S
C1243 H1269 0.929 . S
C1244 C1242 1.320 . S
C1244 C1245 1.405 . S
C1244 H1270 0.930 . S
C1245 C1240 1.479 . S
C1245 C1244 1.405 . S
C1245 H1271 0.931 . S
U1246 O1247 2.454 . S
U1246 O1248 2.458 . S
U1246 C1249 2.984 . S
U1246 C1250 2.847 . S
U1246 C1263 2.882 . S
U1246 O1264 2.441 . S
U1246 O1265 2.420 . S
U1246 O1266 2.455 . S
U1246 O1267 2.449 . S
O1247 U1246 2.454 . S
O1247 C1249 1.353 . S
O1248 U1246 2.458 . S
O1248 C1249 1.286 . S
C1249 U1246 2.984 . S
C1249 O1247 1.353 . S
C1249 O1248 1.286 . S
C1249 C1251 1.363 . S
C1250 C1240 1.465 . S
C1250 U1246 2.847 . S
C1250 O1264 1.249 . S
C1250 O1265 1.202 . S
C1251 C1249 1.363 . S
C1251 C1253 1.408 . S
C1251 C1256 1.342 . S
C1252 C1253 1.310 . S
C1252 C1255 1.461 . S
C1252 H1272 0.932 . S
C1253 C1251 1.408 . S
C1253 C1252 1.310 . S
C1253 H1273 0.930 . S
C1254 C1255 1.474 . S
C1254 C1256 1.285 . S
C1254 H1274 0.929 . S
C1255 C1252 1.461 . S
C1255 C1254 1.474 . S
C1256 C1251 1.342 . S
C1256 C1254 1.285 . S
C1256 H1275 0.930 . S
C1257 C1260 1.424 . S
C1257 C1262 1.245 . S
C1257 C1263 1.428 . S
C1258 C1261 1.260 . S
C1258 C1262 1.477 . S
C1258 H1276 0.932 . S
C1259 C1260 1.384 . S
C1259 C1261 1.479 . S
C1259 H1277 0.929 . S
C1260 C1257 1.424 . S
C1260 C1259 1.384 . S
C1260 H1278 0.928 . S
C1261 C1258 1.260 . S
C1261 C1259 1.479 . S
C1262 C1257 1.245 . S
C1262 C1258 1.477 . S
C1262 H1279 0.932 . S
C1263 U1246 2.882 . S
C1263 C1257 1.428 . S
C1263 O1266 1.301 . S
C1263 O1267 1.282 . S
O1264 U1246 2.441 . S
O1264 C1250 1.249 . S
O1265 U1246 2.420 . S
O1265 C1250 1.202 . S
O1266 U1246 2.455 . S
O1266 C1263 1.301 . S
O1267 U1246 2.449 . S
O1267 C1263 1.282 . S
H1268 C1241 0.931 . S
H1269 C1243 0.929 . S
H1270 C1244 0.930 . S
H1271 C1245 0.931 . S
H1272 C1252 0.932 . S
H1273 C1253 0.930 . S
H1274 C1254 0.929 . S
H1275 C1256 0.930 . S
H1276 C1258 0.932 . S
H1277 C1259 0.929 . S
H1278 C1260 0.928 . S
H1279 C1262 0.932 . S
H1280 C1299 0.949 . S
H1281 C1300 0.950 . S
H1282 C1302 0.950 . S
H1283 C1303 0.950 . S
H1284 C1305 0.950 . S
H1285 C1308 0.950 . S
H1286 C1309 0.950 . S
H1287 C1311 0.951 . S
H1288 C1312 0.949 . S
H1289 C1314 0.949 . S
H1290 C1315 0.950 . S
H1291 C1317 0.950 . S
H1292 C1318 0.950 . S
H1293 C1320 0.950 . S
H1294 C1323 0.950 . S
H1295 C1324 0.950 . S
H1296 C1326 0.951 . S
H1297 C1327 0.949 . S
C1298 C1299 1.376 . S
C1298 C1303 1.386 . S
C1298 C1304 1.483 . S
C1299 H1280 0.949 . S
C1299 C1298 1.376 . S
C1299 C1300 1.397 . S
C1300 H1281 0.950 . S
C1300 C1299 1.397 . S
C1300 C1301 1.391 . S
C1301 C1300 1.391 . S
C1301 C1302 1.405 . S
C1302 H1282 0.950 . S
C1302 C1301 1.405 . S
C1302 C1303 1.367 . S
C1303 H1283 0.950 . S
C1303 C1298 1.386 . S
C1303 C1302 1.367 . S
C1304 C1298 1.483 . S
C1304 C1305 1.382 1_556 S
C1304 C1306 1.403 . S
C1305 H1284 0.950 . S
C1305 C1304 1.382 1_554 S
C1305 C1321 1.411 . S
C1306 C1304 1.403 . S
C1306 C1307 1.489 . S
C1306 C1320 1.411 1_556 S
C1307 C1306 1.489 . S
C1307 C1308 1.383 . S
C1307 C1312 1.382 . S
C1308 H1285 0.950 . S
C1308 C1307 1.383 . S
C1308 C1309 1.395 . S
C1309 H1286 0.950 . S
C1309 C1308 1.395 . S
C1309 C1310 1.288 . S
C1310 C1309 1.288 . S
C1310 C1311 1.392 . S
C1311 H1287 0.951 . S
C1311 C1310 1.392 . S
C1311 C1312 1.392 . S
C1312 H1288 0.949 . S
C1312 C1307 1.382 . S
C1312 C1311 1.392 . S
C1313 C1314 1.376 . S
C1313 C1318 1.386 . S
C1313 C1319 1.483 . S
C1314 H1289 0.949 . S
C1314 C1313 1.376 . S
C1314 C1315 1.397 . S
C1315 H1290 0.950 . S
C1315 C1314 1.397 . S
C1315 C1316 1.391 . S
C1316 C1315 1.391 . S
C1316 C1317 1.405 . S
C1317 H1291 0.950 . S
C1317 C1316 1.405 . S
C1317 C1318 1.367 . S
C1318 H1292 0.950 . S
C1318 C1313 1.386 . S
C1318 C1317 1.367 . S
C1319 C1313 1.483 . S
C1319 C1320 1.382 . S
C1319 C1321 1.403 . S
C1320 H1293 0.950 . S
C1320 C1306 1.411 1_554 S
C1320 C1319 1.382 . S
C1321 C1305 1.411 . S
C1321 C1319 1.403 . S
C1321 C1322 1.489 . S
C1322 C1321 1.489 . S
C1322 C1323 1.383 . S
C1322 C1327 1.382 . S
C1323 H1294 0.950 . S
C1323 C1322 1.383 . S
C1323 C1324 1.395 . S
C1324 H1295 0.950 . S
C1324 C1323 1.395 . S
C1324 C1325 1.288 . S
C1325 C1324 1.288 . S
C1325 C1326 1.392 . S
C1326 H1296 0.951 . S
C1326 C1325 1.392 . S
C1326 C1327 1.392 . S
C1327 H1297 0.949 . S
C1327 C1322 1.382 . S
C1327 C1326 1.392 . S
H1328 C1347 0.949 . S
H1329 C1348 0.950 . S
H1330 C1350 0.950 . S
H1331 C1351 0.950 . S
H1332 C1353 0.950 . S
H1333 C1356 0.950 . S
H1334 C1357 0.950 . S
H1335 C1359 0.951 . S
H1336 C1360 0.949 . S
H1337 C1362 0.949 . S
H1338 C1363 0.950 . S
H1339 C1365 0.950 . S
H1340 C1366 0.950 . S
H1341 C1368 0.950 . S
H1342 C1371 0.950 . S
H1343 C1372 0.950 . S
H1344 C1374 0.951 . S
H1345 C1375 0.949 . S
C1346 C1347 1.376 . S
C1346 C1351 1.386 . S
C1346 C1352 1.483 . S
C1347 H1328 0.949 . S
C1347 C1346 1.376 . S
C1347 C1348 1.397 . S
C1348 H1329 0.950 . S
C1348 C1347 1.397 . S
C1348 C1349 1.391 . S
C1349 C1348 1.391 . S
C1349 C1350 1.405 . S
C1350 H1330 0.950 . S
C1350 C1349 1.405 . S
C1350 C1351 1.367 . S
C1351 H1331 0.950 . S
C1351 C1346 1.386 . S
C1351 C1350 1.367 . S
C1352 C1346 1.483 . S
C1352 C1353 1.382 1_556 S
C1352 C1354 1.403 . S
C1353 H1332 0.950 . S
C1353 C1352 1.382 1_554 S
C1353 C1369 1.411 . S
C1354 C1352 1.403 . S
C1354 C1355 1.489 . S
C1354 C1368 1.411 1_556 S
C1355 C1354 1.489 . S
C1355 C1356 1.383 . S
C1355 C1360 1.382 . S
C1356 H1333 0.950 . S
C1356 C1355 1.383 . S
C1356 C1357 1.395 . S
C1357 H1334 0.950 . S
C1357 C1356 1.395 . S
C1357 C1358 1.288 . S
C1358 C1357 1.288 . S
C1358 C1359 1.392 . S
C1359 H1335 0.951 . S
C1359 C1358 1.392 . S
C1359 C1360 1.392 . S
C1360 H1336 0.949 . S
C1360 C1355 1.382 . S
C1360 C1359 1.392 . S
C1361 C1362 1.376 . S
C1361 C1366 1.386 . S
C1361 C1367 1.483 . S
C1362 H1337 0.949 . S
C1362 C1361 1.376 . S
C1362 C1363 1.397 . S
C1363 H1338 0.950 . S
C1363 C1362 1.397 . S
C1363 C1364 1.391 . S
C1364 C1363 1.391 . S
C1364 C1365 1.405 . S
C1365 H1339 0.950 . S
C1365 C1364 1.405 . S
C1365 C1366 1.367 . S
C1366 H1340 0.950 . S
C1366 C1361 1.386 . S
C1366 C1365 1.367 . S
C1367 C1361 1.483 . S
C1367 C1368 1.382 . S
C1367 C1369 1.403 . S
C1368 H1341 0.950 . S
C1368 C1354 1.411 1_554 S
C1368 C1367 1.382 . S
C1369 C1353 1.411 . S
C1369 C1367 1.403 . S
C1369 C1370 1.489 . S
C1370 C1369 1.489 . S
C1370 C1371 1.383 . S
C1370 C1375 1.382 . S
C1371 H1342 0.950 . S
C1371 C1370 1.383 . S
C1371 C1372 1.395 . S
C1372 H1343 0.950 . S
C1372 C1371 1.395 . S
C1372 C1373 1.288 . S
C1373 C1372 1.288 . S
C1373 C1374 1.392 . S
C1374 H1344 0.951 . S
C1374 C1373 1.392 . S
C1374 C1375 1.392 . S
C1375 H1345 0.949 . S
C1375 C1370 1.382 . S
C1375 C1374 1.392 . S
H1376 C1395 0.949 . S
H1377 C1396 0.950 . S
H1378 C1398 0.950 . S
H1379 C1399 0.950 . S
H1380 C1401 0.950 . S
H1381 C1404 0.950 . S
H1382 C1405 0.950 . S
H1383 C1407 0.951 . S
H1384 C1408 0.949 . S
H1385 C1410 0.949 . S
H1386 C1411 0.950 . S
H1387 C1413 0.950 . S
H1388 C1414 0.950 . S
H1389 C1416 0.950 . S
H1390 C1419 0.950 . S
H1391 C1420 0.950 . S
H1392 C1422 0.951 . S
H1393 C1423 0.949 . S
C1394 C1395 1.376 . S
C1394 C1399 1.386 . S
C1394 C1400 1.483 . S
C1395 H1376 0.949 . S
C1395 C1394 1.376 . S
C1395 C1396 1.397 . S
C1396 H1377 0.950 . S
C1396 C1395 1.397 . S
C1396 C1397 1.391 . S
C1397 C1396 1.391 . S
C1397 C1398 1.405 . S
C1398 H1378 0.950 . S
C1398 C1397 1.405 . S
C1398 C1399 1.367 . S
C1399 H1379 0.950 . S
C1399 C1394 1.386 . S
C1399 C1398 1.367 . S
C1400 C1394 1.483 . S
C1400 C1401 1.382 . S
C1400 C1402 1.403 . S
C1401 H1380 0.950 . S
C1401 C1400 1.382 . S
C1401 C1417 1.411 1_554 S
C1402 C1400 1.403 . S
C1402 C1403 1.489 . S
C1402 C1416 1.411 . S
C1403 C1402 1.489 . S
C1403 C1404 1.383 . S
C1403 C1408 1.382 . S
C1404 H1381 0.950 . S
C1404 C1403 1.383 . S
C1404 C1405 1.395 . S
C1405 H1382 0.950 . S
C1405 C1404 1.395 . S
C1405 C1406 1.288 . S
C1406 C1405 1.288 . S
C1406 C1407 1.392 . S
C1407 H1383 0.951 . S
C1407 C1406 1.392 . S
C1407 C1408 1.392 . S
C1408 H1384 0.949 . S
C1408 C1403 1.382 . S
C1408 C1407 1.392 . S
C1409 C1410 1.376 . S
C1409 C1414 1.386 . S
C1409 C1415 1.483 . S
C1410 H1385 0.949 . S
C1410 C1409 1.376 . S
C1410 C1411 1.397 . S
C1411 H1386 0.950 . S
C1411 C1410 1.397 . S
C1411 C1412 1.391 . S
C1412 C1411 1.391 . S
C1412 C1413 1.405 . S
C1413 H1387 0.950 . S
C1413 C1412 1.405 . S
C1413 C1414 1.367 . S
C1414 H1388 0.950 . S
C1414 C1409 1.386 . S
C1414 C1413 1.367 . S
C1415 C1409 1.483 . S
C1415 C1416 1.382 1_556 S
C1415 C1417 1.403 . S
C1416 H1389 0.950 . S
C1416 C1402 1.411 . S
C1416 C1415 1.382 1_554 S
C1417 C1401 1.411 1_556 S
C1417 C1415 1.403 . S
C1417 C1418 1.489 . S
C1418 C1417 1.489 . S
C1418 C1419 1.383 . S
C1418 C1423 1.382 . S
C1419 H1390 0.950 . S
C1419 C1418 1.383 . S
C1419 C1420 1.395 . S
C1420 H1391 0.950 . S
C1420 C1419 1.395 . S
C1420 C1421 1.288 . S
C1421 C1420 1.288 . S
C1421 C1422 1.392 . S
C1422 H1392 0.951 . S
C1422 C1421 1.392 . S
C1422 C1423 1.392 . S
C1423 H1393 0.949 . S
C1423 C1418 1.382 . S
C1423 C1422 1.392 . S
H1424 C1443 0.949 . S
H1425 C1444 0.950 . S
H1426 C1446 0.950 . S
H1427 C1447 0.950 . S
H1428 C1449 0.950 . S
H1429 C1452 0.950 . S
H1430 C1453 0.950 . S
H1431 C1455 0.951 . S
H1432 C1456 0.949 . S
H1433 C1458 0.949 . S
H1434 C1459 0.950 . S
H1435 C1461 0.950 . S
H1436 C1462 0.950 . S
H1437 C1464 0.950 . S
H1438 C1467 0.950 . S
H1439 C1468 0.950 . S
H1440 C1470 0.951 . S
H1441 C1471 0.949 . S
C1442 C1443 1.376 . S
C1442 C1447 1.386 . S
C1442 C1448 1.483 . S
C1443 H1424 0.949 . S
C1443 C1442 1.376 . S
C1443 C1444 1.397 . S
C1444 H1425 0.950 . S
C1444 C1443 1.397 . S
C1444 C1445 1.391 . S
C1445 C1444 1.391 . S
C1445 C1446 1.405 . S
C1446 H1426 0.950 . S
C1446 C1445 1.405 . S
C1446 C1447 1.367 . S
C1447 H1427 0.950 . S
C1447 C1442 1.386 . S
C1447 C1446 1.367 . S
C1448 C1442 1.483 . S
C1448 C1449 1.382 1_556 S
C1448 C1450 1.403 . S
C1449 H1428 0.950 . S
C1449 C1448 1.382 1_554 S
C1449 C1465 1.411 . S
C1450 C1448 1.403 . S
C1450 C1451 1.489 . S
C1450 C1464 1.411 1_556 S
C1451 C1450 1.489 . S
C1451 C1452 1.383 . S
C1451 C1456 1.382 . S
C1452 H1429 0.950 . S
C1452 C1451 1.383 . S
C1452 C1453 1.395 . S
C1453 H1430 0.950 . S
C1453 C1452 1.395 . S
C1453 C1454 1.288 . S
C1454 C1453 1.288 . S
C1454 C1455 1.392 . S
C1455 H1431 0.951 . S
C1455 C1454 1.392 . S
C1455 C1456 1.392 . S
C1456 H1432 0.949 . S
C1456 C1451 1.382 . S
C1456 C1455 1.392 . S
C1457 C1458 1.376 . S
C1457 C1462 1.386 . S
C1457 C1463 1.483 . S
C1458 H1433 0.949 . S
C1458 C1457 1.376 . S
C1458 C1459 1.397 . S
C1459 H1434 0.950 . S
C1459 C1458 1.397 . S
C1459 C1460 1.391 . S
C1460 C1459 1.391 . S
C1460 C1461 1.405 . S
C1461 H1435 0.950 . S
C1461 C1460 1.405 . S
C1461 C1462 1.367 . S
C1462 H1436 0.950 . S
C1462 C1457 1.386 . S
C1462 C1461 1.367 . S
C1463 C1457 1.483 . S
C1463 C1464 1.382 . S
C1463 C1465 1.403 . S
C1464 H1437 0.950 . S
C1464 C1450 1.411 1_554 S
C1464 C1463 1.382 . S
C1465 C1449 1.411 . S
C1465 C1463 1.403 . S
C1465 C1466 1.489 . S
C1466 C1465 1.489 . S
C1466 C1467 1.383 . S
C1466 C1471 1.382 . S
C1467 H1438 0.950 . S
C1467 C1466 1.383 . S
C1467 C1468 1.395 . S
C1468 H1439 0.950 . S
C1468 C1467 1.395 . S
C1468 C1469 1.288 . S
C1469 C1468 1.288 . S
C1469 C1470 1.392 . S
C1470 H1440 0.951 . S
C1470 C1469 1.392 . S
C1470 C1471 1.392 . S
C1471 H1441 0.949 . S
C1471 C1466 1.382 . S
C1471 C1470 1.392 . S
H1472 C1491 0.949 . S
H1473 C1492 0.950 . S
H1474 C1494 0.950 . S
H1475 C1495 0.950 . S
H1476 C1497 0.950 . S
H1477 C1500 0.950 . S
H1478 C1501 0.950 . S
H1479 C1503 0.951 . S
H1480 C1504 0.949 . S
H1481 C1506 0.949 . S
H1482 C1507 0.950 . S
H1483 C1509 0.950 . S
H1484 C1510 0.950 . S
H1485 C1512 0.950 . S
H1486 C1515 0.950 . S
H1487 C1516 0.950 . S
H1488 C1518 0.951 . S
H1489 C1519 0.949 . S
C1490 C1491 1.376 . S
C1490 C1495 1.386 . S
C1490 C1496 1.483 . S
C1491 H1472 0.949 . S
C1491 C1490 1.376 . S
C1491 C1492 1.397 . S
C1492 H1473 0.950 . S
C1492 C1491 1.397 . S
C1492 C1493 1.391 . S
C1493 C1492 1.391 . S
C1493 C1494 1.405 . S
C1494 H1474 0.950 . S
C1494 C1493 1.405 . S
C1494 C1495 1.367 . S
C1495 H1475 0.950 . S
C1495 C1490 1.386 . S
C1495 C1494 1.367 . S
C1496 C1490 1.483 . S
C1496 C1497 1.382 . S
C1496 C1498 1.403 . S
C1497 H1476 0.950 . S
C1497 C1496 1.382 . S
C1497 C1513 1.411 1_455 S
C1498 C1496 1.403 . S
C1498 C1499 1.489 . S
C1498 C1512 1.411 . S
C1499 C1498 1.489 . S
C1499 C1500 1.383 . S
C1499 C1504 1.382 . S
C1500 H1477 0.950 . S
C1500 C1499 1.383 . S
C1500 C1501 1.395 . S
C1501 H1478 0.950 . S
C1501 C1500 1.395 . S
C1501 C1502 1.288 . S
C1502 C1501 1.288 . S
C1502 C1503 1.392 . S
C1503 H1479 0.951 . S
C1503 C1502 1.392 . S
C1503 C1504 1.392 . S
C1504 H1480 0.949 . S
C1504 C1499 1.382 . S
C1504 C1503 1.392 . S
C1505 C1506 1.376 . S
C1505 C1510 1.386 . S
C1505 C1511 1.483 . S
C1506 H1481 0.949 . S
C1506 C1505 1.376 . S
C1506 C1507 1.397 . S
C1507 H1482 0.950 . S
C1507 C1506 1.397 . S
C1507 C1508 1.391 . S
C1508 C1507 1.391 . S
C1508 C1509 1.405 . S
C1509 H1483 0.950 . S
C1509 C1508 1.405 . S
C1509 C1510 1.367 . S
C1510 H1484 0.950 . S
C1510 C1505 1.386 . S
C1510 C1509 1.367 . S
C1511 C1505 1.483 . S
C1511 C1512 1.382 1_655 S
C1511 C1513 1.403 . S
C1512 H1485 0.950 . S
C1512 C1498 1.411 . S
C1512 C1511 1.382 1_455 S
C1513 C1497 1.411 1_655 S
C1513 C1511 1.403 . S
C1513 C1514 1.489 . S
C1514 C1513 1.489 . S
C1514 C1515 1.383 . S
C1514 C1519 1.382 . S
C1515 H1486 0.950 . S
C1515 C1514 1.383 . S
C1515 C1516 1.395 . S
C1516 H1487 0.950 . S
C1516 C1515 1.395 . S
C1516 C1517 1.288 . S
C1517 C1516 1.288 . S
C1517 C1518 1.392 . S
C1518 H1488 0.951 . S
C1518 C1517 1.392 . S
C1518 C1519 1.392 . S
C1519 H1489 0.949 . S
C1519 C1514 1.382 . S
C1519 C1518 1.392 . S
H1520 C1539 0.949 . S
H1521 C1540 0.950 . S
H1522 C1542 0.950 . S
H1523 C1543 0.950 . S
H1524 C1545 0.950 . S
H1525 C1548 0.950 . S
H1526 C1549 0.950 . S
H1527 C1551 0.951 . S
H1528 C1552 0.949 . S
H1529 C1554 0.949 . S
H1530 C1555 0.950 . S
H1531 C1557 0.950 . S
H1532 C1558 0.950 . S
H1533 C1560 0.950 1_565 S
H1534 C1563 0.950 . S
H1535 C1564 0.950 . S
H1536 C1566 0.951 . S
H1537 C1567 0.949 . S
C1538 C1539 1.376 . S
C1538 C1543 1.386 . S
C1538 C1544 1.483 . S
C1539 H1520 0.949 . S
C1539 C1538 1.376 . S
C1539 C1540 1.397 . S
C1540 H1521 0.950 . S
C1540 C1539 1.397 . S
C1540 C1541 1.391 . S
C1541 C1540 1.391 . S
C1541 C1542 1.405 . S
C1542 H1522 0.950 . S
C1542 C1541 1.405 . S
C1542 C1543 1.367 . S
C1543 H1523 0.950 . S
C1543 C1538 1.386 . S
C1543 C1542 1.367 . S
C1544 C1538 1.483 . S
C1544 C1545 1.382 . S
C1544 C1546 1.403 . S
C1545 H1524 0.950 . S
C1545 C1544 1.382 . S
C1545 C1561 1.411 1_545 S
C1546 C1544 1.403 . S
C1546 C1547 1.489 . S
C1546 C1560 1.408 . S
C1547 C1546 1.489 . S
C1547 C1548 1.383 . S
C1547 C1552 1.382 . S
C1548 H1525 0.950 . S
C1548 C1547 1.383 . S
C1548 C1549 1.395 . S
C1549 H1526 0.950 . S
C1549 C1548 1.395 . S
C1549 C1550 1.288 . S
C1550 C1549 1.288 . S
C1550 C1551 1.392 . S
C1551 H1527 0.951 . S
C1551 C1550 1.392 . S
C1551 C1552 1.392 . S
C1552 H1528 0.949 . S
C1552 C1547 1.382 . S
C1552 C1551 1.392 . S
C1553 C1554 1.376 . S
C1553 C1558 1.386 . S
C1553 C1559 1.483 . S
C1554 H1529 0.949 . S
C1554 C1553 1.376 . S
C1554 C1555 1.397 . S
C1555 H1530 0.950 . S
C1555 C1554 1.397 . S
C1555 C1556 1.391 . S
C1556 C1555 1.391 . S
C1556 C1557 1.405 . S
C1557 H1531 0.950 . S
C1557 C1556 1.405 . S
C1557 C1558 1.367 . S
C1558 H1532 0.950 . S
C1558 C1553 1.386 . S
C1558 C1557 1.367 . S
C1559 C1553 1.483 . S
C1559 C1560 1.385 1_565 S
C1559 C1561 1.403 . S
C1560 H1533 0.950 1_545 S
C1560 C1546 1.408 . S
C1560 C1559 1.385 1_545 S
C1561 C1545 1.411 1_565 S
C1561 C1559 1.403 . S
C1561 C1562 1.489 . S
C1562 C1561 1.489 . S
C1562 C1563 1.383 . S
C1562 C1567 1.382 . S
C1563 H1534 0.950 . S
C1563 C1562 1.383 . S
C1563 C1564 1.395 . S
C1564 H1535 0.950 . S
C1564 C1563 1.395 . S
C1564 C1565 1.288 . S
C1565 C1564 1.288 . S
C1565 C1566 1.392 . S
C1566 H1536 0.951 . S
C1566 C1565 1.392 . S
C1566 C1567 1.392 . S
C1567 H1537 0.949 . S
C1567 C1562 1.382 . S
C1567 C1566 1.392 . S
H1568 C1587 0.949 . S
H1569 C1588 0.950 . S
H1570 C1590 0.950 . S
H1571 C1591 0.950 . S
H1572 C1593 0.957 . S
H1573 C1596 0.950 . S
H1574 C1597 0.950 . S
H1575 C1599 0.951 . S
H1576 C1600 0.949 . S
H1577 C1602 0.949 . S
H1578 C1603 0.950 . S
H1579 C1605 0.950 . S
H1580 C1606 0.950 . S
H1581 C1608 0.950 . S
H1582 C1611 0.950 . S
H1583 C1612 0.950 . S
H1584 C1614 0.951 . S
H1585 C1615 0.949 . S
C1586 C1587 1.376 . S
C1586 C1591 1.386 . S
C1586 C1592 1.483 . S
C1587 H1568 0.949 . S
C1587 C1586 1.376 . S
C1587 C1588 1.397 . S
C1588 H1569 0.950 . S
C1588 C1587 1.397 . S
C1588 C1589 1.391 . S
C1589 C1588 1.391 . S
C1589 C1590 1.405 . S
C1590 H1570 0.950 . S
C1590 C1589 1.405 . S
C1590 C1591 1.367 . S
C1591 H1571 0.950 . S
C1591 C1586 1.386 . S
C1591 C1590 1.367 . S
C1592 C1586 1.483 . S
C1592 C1593 1.466 . S
C1592 C1594 1.403 . S
C1593 H1572 0.957 . S
C1593 C1592 1.466 . S
C1593 C1609 1.326 1_455 S
C1594 C1592 1.403 . S
C1594 C1595 1.489 . S
C1594 C1608 1.444 . S
C1595 C1594 1.489 . S
C1595 C1596 1.383 . S
C1595 C1600 1.382 . S
C1596 H1573 0.950 . S
C1596 C1595 1.383 . S
C1596 C1597 1.395 . S
C1597 H1574 0.950 . S
C1597 C1596 1.395 . S
C1597 C1598 1.288 . S
C1598 C1597 1.288 . S
C1598 C1599 1.392 . S
C1599 H1575 0.951 . S
C1599 C1598 1.392 . S
C1599 C1600 1.392 . S
C1600 H1576 0.949 . S
C1600 C1595 1.382 . S
C1600 C1599 1.392 . S
C1601 C1602 1.376 . S
C1601 C1606 1.386 . S
C1601 C1607 1.483 . S
C1602 H1577 0.949 . S
C1602 C1601 1.376 . S
C1602 C1603 1.397 . S
C1603 H1578 0.950 . S
C1603 C1602 1.397 . S
C1603 C1604 1.391 . S
C1604 C1603 1.391 . S
C1604 C1605 1.405 . S
C1605 H1579 0.950 . S
C1605 C1604 1.405 . S
C1605 C1606 1.367 . S
C1606 H1580 0.950 . S
C1606 C1601 1.386 . S
C1606 C1605 1.367 . S
C1607 C1601 1.483 . S
C1607 C1608 1.350 1_655 S
C1607 C1609 1.403 . S
C1608 H1581 0.950 . S
C1608 C1594 1.444 . S
C1608 C1607 1.350 1_455 S
C1609 C1593 1.326 1_655 S
C1609 C1607 1.403 . S
C1609 C1610 1.489 . S
C1610 C1609 1.489 . S
C1610 C1611 1.383 . S
C1610 C1615 1.382 . S
C1611 H1582 0.950 . S
C1611 C1610 1.383 . S
C1611 C1612 1.395 . S
C1612 H1583 0.950 . S
C1612 C1611 1.395 . S
C1612 C1613 1.288 . S
C1613 C1612 1.288 . S
C1613 C1614 1.392 . S
C1614 H1584 0.951 . S
C1614 C1613 1.392 . S
C1614 C1615 1.392 . S
C1615 H1585 0.949 . S
C1615 C1610 1.382 . S
C1615 C1614 1.392 . S
H1616 C1635 0.949 . S
H1617 C1636 0.950 . S
H1618 C1638 0.950 . S
H1619 C1639 0.950 . S
H1620 C1641 0.950 . S
H1621 C1644 0.950 . S
H1622 C1645 0.950 . S
H1623 C1647 0.951 . S
H1624 C1648 0.949 . S
H1625 C1650 0.949 . S
H1626 C1651 0.950 . S
H1627 C1653 0.950 . S
H1628 C1654 0.950 . S
H1629 C1656 0.950 . S
H1630 C1659 0.950 . S
H1631 C1660 0.950 . S
H1632 C1662 0.951 . S
H1633 C1663 0.949 . S
C1634 C1635 1.376 . S
C1634 C1639 1.386 . S
C1634 C1640 1.483 . S
C1635 H1616 0.949 . S
C1635 C1634 1.376 . S
C1635 C1636 1.397 . S
C1636 H1617 0.950 . S
C1636 C1635 1.397 . S
C1636 C1637 1.391 . S
C1637 C1636 1.391 . S
C1637 C1638 1.405 . S
C1638 H1618 0.950 . S
C1638 C1637 1.405 . S
C1638 C1639 1.367 . S
C1639 H1619 0.950 . S
C1639 C1634 1.386 . S
C1639 C1638 1.367 . S
C1640 C1634 1.483 . S
C1640 C1641 1.382 . S
C1640 C1642 1.403 . S
C1641 H1620 0.950 . S
C1641 C1640 1.382 . S
C1641 C1657 1.411 1_545 S
C1642 C1640 1.403 . S
C1642 C1643 1.489 . S
C1642 C1656 1.411 . S
C1643 C1642 1.489 . S
C1643 C1644 1.383 . S
C1643 C1648 1.382 . S
C1644 H1621 0.950 . S
C1644 C1643 1.383 . S
C1644 C1645 1.395 . S
C1645 H1622 0.950 . S
C1645 C1644 1.395 . S
C1645 C1646 1.288 . S
C1646 C1645 1.288 . S
C1646 C1647 1.392 . S
C1647 H1623 0.951 . S
C1647 C1646 1.392 . S
C1647 C1648 1.392 . S
C1648 H1624 0.949 . S
C1648 C1643 1.382 . S
C1648 C1647 1.392 . S
C1649 C1650 1.376 . S
C1649 C1654 1.386 . S
C1649 C1655 1.483 . S
C1650 H1625 0.949 . S
C1650 C1649 1.376 . S
C1650 C1651 1.397 . S
C1651 H1626 0.950 . S
C1651 C1650 1.397 . S
C1651 C1652 1.391 . S
C1652 C1651 1.391 . S
C1652 C1653 1.405 . S
C1653 H1627 0.950 . S
C1653 C1652 1.405 . S
C1653 C1654 1.367 . S
C1654 H1628 0.950 . S
C1654 C1649 1.386 . S
C1654 C1653 1.367 . S
C1655 C1649 1.483 . S
C1655 C1656 1.382 1_565 S
C1655 C1657 1.403 . S
C1656 H1629 0.950 . S
C1656 C1642 1.411 . S
C1656 C1655 1.382 1_545 S
C1657 C1641 1.411 1_565 S
C1657 C1655 1.403 . S
C1657 C1658 1.489 . S
C1658 C1657 1.489 . S
C1658 C1659 1.383 . S
C1658 C1663 1.382 . S
C1659 H1630 0.950 . S
C1659 C1658 1.383 . S
C1659 C1660 1.395 . S
C1660 H1631 0.950 . S
C1660 C1659 1.395 . S
C1660 C1661 1.288 . S
C1661 C1660 1.288 . S
C1661 C1662 1.392 . S
C1662 H1632 0.951 . S
C1662 C1661 1.392 . S
C1662 C1663 1.392 . S
C1663 H1633 0.949 . S
C1663 C1658 1.382 . S
C1663 C1662 1.392 . S
H1664 C1683 0.949 . S
H1665 C1684 0.950 . S
H1666 C1686 0.950 . S
H1667 C1687 0.950 . S
H1668 C1689 0.950 . S
H1669 C1692 0.950 . S
H1670 C1693 0.950 . S
H1671 C1695 0.951 . S
H1672 C1696 0.949 . S
H1673 C1698 0.949 . S
H1674 C1699 0.950 . S
H1675 C1701 0.950 . S
H1676 C1702 0.950 . S
H1677 C1704 0.958 . S
H1678 C1707 0.950 . S
H1679 C1708 0.950 . S
H1680 C1710 0.951 . S
H1681 C1711 0.949 . S
C1682 C1683 1.376 . S
C1682 C1687 1.386 . S
C1682 C1688 1.483 . S
C1683 H1664 0.949 . S
C1683 C1682 1.376 . S
C1683 C1684 1.397 . S
C1684 H1665 0.950 . S
C1684 C1683 1.397 . S
C1684 C1685 1.391 . S
C1685 C1684 1.391 . S
C1685 C1686 1.405 . S
C1686 H1666 0.950 . S
C1686 C1685 1.405 . S
C1686 C1687 1.367 . S
C1687 H1667 0.950 . S
C1687 C1682 1.386 . S
C1687 C1686 1.367 . S
C1688 C1682 1.483 . S
C1688 C1689 1.382 . S
C1688 C1690 1.403 . S
C1689 H1668 0.950 . S
C1689 C1688 1.382 . S
C1689 C1705 1.411 1_455 S
C1690 C1688 1.403 . S
C1690 C1691 1.489 . S
C1690 C1704 1.411 . S
C1691 C1690 1.489 . S
C1691 C1692 1.383 . S
C1691 C1696 1.382 . S
C1692 H1669 0.950 . S
C1692 C1691 1.383 . S
C1692 C1693 1.395 . S
C1693 H1670 0.950 . S
C1693 C1692 1.395 . S
C1693 C1694 1.288 . S
C1694 C1693 1.288 . S
C1694 C1695 1.392 . S
C1695 H1671 0.951 . S
C1695 C1694 1.392 . S
C1695 C1696 1.392 . S
C1696 H1672 0.949 . S
C1696 C1691 1.382 . S
C1696 C1695 1.392 . S
C1697 C1698 1.376 . S
C1697 C1702 1.386 . S
C1697 C1703 1.483 . S
C1698 H1673 0.949 . S
C1698 C1697 1.376 . S
C1698 C1699 1.397 . S
C1699 H1674 0.950 . S
C1699 C1698 1.397 . S
C1699 C1700 1.391 . S
C1700 C1699 1.391 . S
C1700 C1701 1.405 . S
C1701 H1675 0.950 . S
C1701 C1700 1.405 . S
C1701 C1702 1.367 . S
C1702 H1676 0.950 . S
C1702 C1697 1.386 . S
C1702 C1701 1.367 . S
C1703 C1697 1.483 . S
C1703 C1704 1.382 1_655 S
C1703 C1705 1.403 . S
C1704 H1677 0.958 . S
C1704 C1690 1.411 . S
C1704 C1703 1.382 1_455 S
C1705 C1689 1.411 1_655 S
C1705 C1703 1.403 . S
C1705 C1706 1.489 . S
C1706 C1705 1.489 . S
C1706 C1707 1.383 . S
C1706 C1711 1.382 . S
C1707 H1678 0.950 . S
C1707 C1706 1.383 . S
C1707 C1708 1.395 . S
C1708 H1679 0.950 . S
C1708 C1707 1.395 . S
C1708 C1709 1.288 . S
C1709 C1708 1.288 . S
C1709 C1710 1.392 . S
C1710 H1680 0.951 . S
C1710 C1709 1.392 . S
C1710 C1711 1.392 . S
C1711 H1681 0.949 . S
C1711 C1706 1.382 . S
C1711 C1710 1.392 . S
H1712 C1731 0.949 . S
H1713 C1732 0.950 . S
H1714 C1734 0.950 . S
H1715 C1735 0.950 . S
H1716 C1737 0.950 . S
H1717 C1740 0.950 . S
H1718 C1741 0.950 . S
H1719 C1743 0.951 . S
H1720 C1744 0.949 . S
H1721 C1746 0.949 . S
H1722 C1747 0.950 . S
H1723 C1749 0.950 . S
H1724 C1750 0.950 . S
H1725 C1752 0.950 1_565 S
H1726 C1755 0.950 . S
H1727 C1756 0.950 . S
H1728 C1758 0.951 . S
H1729 C1759 0.949 . S
C1730 C1731 1.376 . S
C1730 C1735 1.386 . S
C1730 C1736 1.483 . S
C1731 H1712 0.949 . S
C1731 C1730 1.376 . S
C1731 C1732 1.397 . S
C1732 H1713 0.950 . S
C1732 C1731 1.397 . S
C1732 C1733 1.391 . S
C1733 C1732 1.391 . S
C1733 C1734 1.405 . S
C1734 H1714 0.950 . S
C1734 C1733 1.405 . S
C1734 C1735 1.367 . S
C1735 H1715 0.950 . S
C1735 C1730 1.386 . S
C1735 C1734 1.367 . S
C1736 C1730 1.483 . S
C1736 C1737 1.382 . S
C1736 C1738 1.403 . S
C1737 H1716 0.950 . S
C1737 C1736 1.382 . S
C1737 C1753 1.411 1_545 S
C1738 C1736 1.403 . S
C1738 C1739 1.489 . S
C1738 C1752 1.410 . S
C1739 C1738 1.489 . S
C1739 C1740 1.383 . S
C1739 C1744 1.382 . S
C1740 H1717 0.950 . S
C1740 C1739 1.383 . S
C1740 C1741 1.395 . S
C1741 H1718 0.950 . S
C1741 C1740 1.395 . S
C1741 C1742 1.288 . S
C1742 C1741 1.288 . S
C1742 C1743 1.392 . S
C1743 H1719 0.951 . S
C1743 C1742 1.392 . S
C1743 C1744 1.392 . S
C1744 H1720 0.949 . S
C1744 C1739 1.382 . S
C1744 C1743 1.392 . S
C1745 C1746 1.376 . S
C1745 C1750 1.386 . S
C1745 C1751 1.483 . S
C1746 H1721 0.949 . S
C1746 C1745 1.376 . S
C1746 C1747 1.397 . S
C1747 H1722 0.950 . S
C1747 C1746 1.397 . S
C1747 C1748 1.391 . S
C1748 C1747 1.391 . S
C1748 C1749 1.405 . S
C1749 H1723 0.950 . S
C1749 C1748 1.405 . S
C1749 C1750 1.367 . S
C1750 H1724 0.950 . S
C1750 C1745 1.386 . S
C1750 C1749 1.367 . S
C1751 C1745 1.483 . S
C1751 C1752 1.383 1_565 S
C1751 C1753 1.403 . S
C1752 H1725 0.950 1_545 S
C1752 C1738 1.410 . S
C1752 C1751 1.383 1_545 S
C1753 C1737 1.411 1_565 S
C1753 C1751 1.403 . S
C1753 C1754 1.489 . S
C1754 C1753 1.489 . S
C1754 C1755 1.383 . S
C1754 C1759 1.382 . S
C1755 H1726 0.950 . S
C1755 C1754 1.383 . S
C1755 C1756 1.395 . S
C1756 H1727 0.950 . S
C1756 C1755 1.395 . S
C1756 C1757 1.288 . S
C1757 C1756 1.288 . S
C1757 C1758 1.392 . S
C1758 H1728 0.951 . S
C1758 C1757 1.392 . S
C1758 C1759 1.392 . S
C1759 H1729 0.949 . S
C1759 C1754 1.382 . S
C1759 C1758 1.392 . S
H1760 C1779 0.949 . S
H1761 C1780 0.950 . S
H1762 C1782 0.950 . S
H1763 C1783 0.950 . S
H1764 C1785 0.950 . S
H1765 C1788 0.950 . S
H1766 C1789 0.950 . S
H1767 C1791 0.951 . S
H1768 C1792 0.949 . S
H1769 C1794 0.949 . S
H1770 C1795 0.950 . S
H1771 C1797 0.950 . S
H1772 C1798 0.950 . S
H1773 C1800 0.950 . S
H1774 C1803 0.950 . S
H1775 C1804 0.950 . S
H1776 C1806 0.951 . S
H1777 C1807 0.949 . S
C1778 C1779 1.376 . S
C1778 C1783 1.386 . S
C1778 C1784 1.483 . S
C1779 H1760 0.949 . S
C1779 C1778 1.376 . S
C1779 C1780 1.397 . S
C1780 H1761 0.950 . S
C1780 C1779 1.397 . S
C1780 C1781 1.391 . S
C1781 C1780 1.391 . S
C1781 C1782 1.405 . S
C1782 H1762 0.950 . S
C1782 C1781 1.405 . S
C1782 C1783 1.367 . S
C1783 H1763 0.950 . S
C1783 C1778 1.386 . S
C1783 C1782 1.367 . S
C1784 C1778 1.483 . S
C1784 C1785 1.353 1_655 S
C1784 C1786 1.403 . S
C1785 H1764 0.950 . S
C1785 C1784 1.353 1_455 S
C1785 C1801 1.441 . S
C1786 C1784 1.403 . S
C1786 C1787 1.489 . S
C1786 C1800 1.411 1_655 S
C1787 C1786 1.489 . S
C1787 C1788 1.383 . S
C1787 C1792 1.382 . S
C1788 H1765 0.950 . S
C1788 C1787 1.383 . S
C1788 C1789 1.395 . S
C1789 H1766 0.950 . S
C1789 C1788 1.395 . S
C1789 C1790 1.288 . S
C1790 C1789 1.288 . S
C1790 C1791 1.392 . S
C1791 H1767 0.951 . S
C1791 C1790 1.392 . S
C1791 C1792 1.392 . S
C1792 H1768 0.949 . S
C1792 C1787 1.382 . S
C1792 C1791 1.392 . S
C1793 C1794 1.376 . S
C1793 C1798 1.386 . S
C1793 C1799 1.483 . S
C1794 H1769 0.949 . S
C1794 C1793 1.376 . S
C1794 C1795 1.397 . S
C1795 H1770 0.950 . S
C1795 C1794 1.397 . S
C1795 C1796 1.391 . S
C1796 C1795 1.391 . S
C1796 C1797 1.405 . S
C1797 H1771 0.950 . S
C1797 C1796 1.405 . S
C1797 C1798 1.367 . S
C1798 H1772 0.950 . S
C1798 C1793 1.386 . S
C1798 C1797 1.367 . S
C1799 C1793 1.483 . S
C1799 C1800 1.382 . S
C1799 C1801 1.403 . S
C1800 H1773 0.950 . S
C1800 C1786 1.411 1_455 S
C1800 C1799 1.382 . S
C1801 C1785 1.441 . S
C1801 C1799 1.403 . S
C1801 C1802 1.489 . S
C1802 C1801 1.489 . S
C1802 C1803 1.383 . S
C1802 C1807 1.382 . S
C1803 H1774 0.950 . S
C1803 C1802 1.383 . S
C1803 C1804 1.395 . S
C1804 H1775 0.950 . S
C1804 C1803 1.395 . S
C1804 C1805 1.288 . S
C1805 C1804 1.288 . S
C1805 C1806 1.392 . S
C1806 H1776 0.951 . S
C1806 C1805 1.392 . S
C1806 C1807 1.392 . S
C1807 H1777 0.949 . S
C1807 C1802 1.382 . S
C1807 C1806 1.392 . S
H1808 C1827 0.949 . S
H1809 C1828 0.950 . S
H1810 C1830 0.950 . S
H1811 C1831 0.950 . S
H1812 C1833 0.950 . S
H1813 C1836 0.950 . S
H1814 C1837 0.950 . S
H1815 C1839 0.951 . S
H1816 C1840 0.949 . S
H1817 C1842 0.949 . S
H1818 C1843 0.950 . S
H1819 C1845 0.950 . S
H1820 C1846 0.950 . S
H1821 C1848 0.950 . S
H1822 C1851 0.950 . S
H1823 C1852 0.950 . S
H1824 C1854 0.951 . S
H1825 C1855 0.949 . S
C1826 C1827 1.376 . S
C1826 C1831 1.386 . S
C1826 C1832 1.483 . S
C1827 H1808 0.949 . S
C1827 C1826 1.376 . S
C1827 C1828 1.397 . S
C1828 H1809 0.950 . S
C1828 C1827 1.397 . S
C1828 C1829 1.391 . S
C1829 C1828 1.391 . S
C1829 C1830 1.405 . S
C1830 H1810 0.950 . S
C1830 C1829 1.405 . S
C1830 C1831 1.367 . S
C1831 H1811 0.950 . S
C1831 C1826 1.386 . S
C1831 C1830 1.367 . S
C1832 C1826 1.483 . S
C1832 C1833 1.382 . S
C1832 C1834 1.403 . S
C1833 H1812 0.950 . S
C1833 C1832 1.382 . S
C1833 C1849 1.411 1_545 S
C1834 C1832 1.403 . S
C1834 C1835 1.489 . S
C1834 C1848 1.411 . S
C1835 C1834 1.489 . S
C1835 C1836 1.383 . S
C1835 C1840 1.382 . S
C1836 H1813 0.950 . S
C1836 C1835 1.383 . S
C1836 C1837 1.395 . S
C1837 H1814 0.950 . S
C1837 C1836 1.395 . S
C1837 C1838 1.288 . S
C1838 C1837 1.288 . S
C1838 C1839 1.392 . S
C1839 H1815 0.951 . S
C1839 C1838 1.392 . S
C1839 C1840 1.392 . S
C1840 H1816 0.949 . S
C1840 C1835 1.382 . S
C1840 C1839 1.392 . S
C1841 C1842 1.376 . S
C1841 C1846 1.386 . S
C1841 C1847 1.483 . S
C1842 H1817 0.949 . S
C1842 C1841 1.376 . S
C1842 C1843 1.397 . S
C1843 H1818 0.950 . S
C1843 C1842 1.397 . S
C1843 C1844 1.391 . S
C1844 C1843 1.391 . S
C1844 C1845 1.405 . S
C1845 H1819 0.950 . S
C1845 C1844 1.405 . S
C1845 C1846 1.367 . S
C1846 H1820 0.950 . S
C1846 C1841 1.386 . S
C1846 C1845 1.367 . S
C1847 C1841 1.483 . S
C1847 C1848 1.382 1_565 S
C1847 C1849 1.403 . S
C1848 H1821 0.950 . S
C1848 C1834 1.411 . S
C1848 C1847 1.382 1_545 S
C1849 C1833 1.411 1_565 S
C1849 C1847 1.403 . S
C1849 C1850 1.489 . S
C1850 C1849 1.489 . S
C1850 C1851 1.383 . S
C1850 C1855 1.382 . S
C1851 H1822 0.950 . S
C1851 C1850 1.383 . S
C1851 C1852 1.395 . S
C1852 H1823 0.950 . S
C1852 C1851 1.395 . S
C1852 C1853 1.288 . S
C1853 C1852 1.288 . S
C1853 C1854 1.392 . S
C1854 H1824 0.951 . S
C1854 C1853 1.392 . S
C1854 C1855 1.392 . S
C1855 H1825 0.949 . S
C1855 C1850 1.382 . S
C1855 C1854 1.392 . S
H1856 C1875 0.949 . S
H1857 C1876 0.950 . S
H1858 C1878 0.950 . S
H1859 C1879 0.950 . S
H1860 C1881 0.950 . S
H1861 C1884 0.950 . S
H1862 C1885 0.950 . S
H1863 C1887 0.951 . S
H1864 C1888 0.949 . S
H1865 C1890 0.949 . S
H1866 C1891 0.950 . S
H1867 C1893 0.950 . S
H1868 C1894 0.950 . S
H1869 C1896 0.950 . S
H1870 C1899 0.950 . S
H1871 C1900 0.950 . S
H1872 C1902 0.951 . S
H1873 C1903 0.949 . S
C1874 C1875 1.376 . S
C1874 C1879 1.386 . S
C1874 C1880 1.483 . S
C1875 H1856 0.949 . S
C1875 C1874 1.376 . S
C1875 C1876 1.397 . S
C1876 H1857 0.950 . S
C1876 C1875 1.397 . S
C1876 C1877 1.391 . S
C1877 C1876 1.391 . S
C1877 C1878 1.405 . S
C1878 H1858 0.950 . S
C1878 C1877 1.405 . S
C1878 C1879 1.367 . S
C1879 H1859 0.950 . S
C1879 C1874 1.386 . S
C1879 C1878 1.367 . S
C1880 C1874 1.483 . S
C1880 C1881 1.382 . S
C1880 C1882 1.403 . S
C1881 H1860 0.950 . S
C1881 C1880 1.382 . S
C1881 C1897 1.411 . S
C1882 C1880 1.403 . S
C1882 C1883 1.489 . S
C1882 C1896 1.411 . S
C1883 C1882 1.489 . S
C1883 C1884 1.383 . S
C1883 C1888 1.382 . S
C1884 H1861 0.950 . S
C1884 C1883 1.383 . S
C1884 C1885 1.395 . S
C1885 H1862 0.950 . S
C1885 C1884 1.395 . S
C1885 C1886 1.288 . S
C1886 C1885 1.288 . S
C1886 C1887 1.392 . S
C1887 H1863 0.951 . S
C1887 C1886 1.392 . S
C1887 C1888 1.392 . S
C1888 H1864 0.949 . S
C1888 C1883 1.382 . S
C1888 C1887 1.392 . S
C1889 C1890 1.376 . S
C1889 C1894 1.386 . S
C1889 C1895 1.483 . S
C1890 H1865 0.949 . S
C1890 C1889 1.376 . S
C1890 C1891 1.397 . S
C1891 H1866 0.950 . S
C1891 C1890 1.397 . S
C1891 C1892 1.391 . S
C1892 C1891 1.391 . S
C1892 C1893 1.405 . S
C1893 H1867 0.950 . S
C1893 C1892 1.405 . S
C1893 C1894 1.367 . S
C1894 H1868 0.950 . S
C1894 C1889 1.386 . S
C1894 C1893 1.367 . S
C1895 C1889 1.483 . S
C1895 C1896 1.382 . S
C1895 C1897 1.403 . S
C1896 H1869 0.950 . S
C1896 C1882 1.411 . S
C1896 C1895 1.382 . S
C1897 C1881 1.411 . S
C1897 C1895 1.403 . S
C1897 C1898 1.489 . S
C1898 C1897 1.489 . S
C1898 C1899 1.383 . S
C1898 C1903 1.382 . S
C1899 H1870 0.950 . S
C1899 C1898 1.383 . S
C1899 C1900 1.395 . S
C1900 H1871 0.950 . S
C1900 C1899 1.395 . S
C1900 C1901 1.288 . S
C1901 C1900 1.288 . S
C1901 C1902 1.392 . S
C1902 H1872 0.951 . S
C1902 C1901 1.392 . S
C1902 C1903 1.392 . S
C1903 H1873 0.949 . S
C1903 C1898 1.382 . S
C1903 C1902 1.392 . S
H1904 C1923 0.949 . S
H1905 C1924 0.950 . S
H1906 C1926 0.950 . S
H1907 C1927 0.950 . S
H1908 C1929 0.950 . S
H1909 C1932 0.950 . S
H1910 C1933 0.950 . S
H1911 C1935 0.951 . S
H1912 C1936 0.949 . S
H1913 C1938 0.949 . S
H1914 C1939 0.950 . S
H1915 C1941 0.950 . S
H1916 C1942 0.950 . S
H1917 C1944 0.950 . S
H1918 C1947 0.950 . S
H1919 C1948 0.950 . S
H1920 C1950 0.951 . S
H1921 C1951 0.949 . S
C1922 C1923 1.376 . S
C1922 C1927 1.386 . S
C1922 C1928 1.483 . S
C1923 H1904 0.949 . S
C1923 C1922 1.376 . S
C1923 C1924 1.397 . S
C1924 H1905 0.950 . S
C1924 C1923 1.397 . S
C1924 C1925 1.391 . S
C1925 C1924 1.391 . S
C1925 C1926 1.405 . S
C1926 H1906 0.950 . S
C1926 C1925 1.405 . S
C1926 C1927 1.367 . S
C1927 H1907 0.950 . S
C1927 C1922 1.386 . S
C1927 C1926 1.367 . S
C1928 C1922 1.483 . S
C1928 C1929 1.382 . S
C1928 C1930 1.403 . S
C1929 H1908 0.950 . S
C1929 C1928 1.382 . S
C1929 C1945 1.411 . S
C1930 C1928 1.403 . S
C1930 C1931 1.489 . S
C1930 C1944 1.411 . S
C1931 C1930 1.489 . S
C1931 C1932 1.383 . S
C1931 C1936 1.382 . S
C1932 H1909 0.950 . S
C1932 C1931 1.383 . S
C1932 C1933 1.395 . S
C1933 H1910 0.950 . S
C1933 C1932 1.395 . S
C1933 C1934 1.288 . S
C1934 C1933 1.288 . S
C1934 C1935 1.392 . S
C1935 H1911 0.951 . S
C1935 C1934 1.392 . S
C1935 C1936 1.392 . S
C1936 H1912 0.949 . S
C1936 C1931 1.382 . S
C1936 C1935 1.392 . S
C1937 C1938 1.376 . S
C1937 C1942 1.386 . S
C1937 C1943 1.483 . S
C1938 H1913 0.949 . S
C1938 C1937 1.376 . S
C1938 C1939 1.397 . S
C1939 H1914 0.950 . S
C1939 C1938 1.397 . S
C1939 C1940 1.391 . S
C1940 C1939 1.391 . S
C1940 C1941 1.405 . S
C1941 H1915 0.950 . S
C1941 C1940 1.405 . S
C1941 C1942 1.367 . S
C1942 H1916 0.950 . S
C1942 C1937 1.386 . S
C1942 C1941 1.367 . S
C1943 C1937 1.483 . S
C1943 C1944 1.382 . S
C1943 C1945 1.403 . S
C1944 H1917 0.950 . S
C1944 C1930 1.411 . S
C1944 C1943 1.382 . S
C1945 C1929 1.411 . S
C1945 C1943 1.403 . S
C1945 C1946 1.489 . S
C1946 C1945 1.489 . S
C1946 C1947 1.383 . S
C1946 C1951 1.382 . S
C1947 H1918 0.950 . S
C1947 C1946 1.383 . S
C1947 C1948 1.395 . S
C1948 H1919 0.950 . S
C1948 C1947 1.395 . S
C1948 C1949 1.288 . S
C1949 C1948 1.288 . S
C1949 C1950 1.392 . S
C1950 H1920 0.951 . S
C1950 C1949 1.392 . S
C1950 C1951 1.392 . S
C1951 H1921 0.949 . S
C1951 C1946 1.382 . S
C1951 C1950 1.392 . S
H1952 C1971 0.949 . S
H1953 C1972 0.950 . S
H1954 C1974 0.950 . S
H1955 C1975 0.950 . S
H1956 C1977 0.950 . S
H1957 C1980 0.950 . S
H1958 C1981 0.950 . S
H1959 C1983 0.951 . S
H1960 C1984 0.949 . S
H1961 C1986 0.949 . S
H1962 C1987 0.950 . S
H1963 C1989 0.950 . S
H1964 C1990 0.950 . S
H1965 C1992 0.950 . S
H1966 C1995 0.950 . S
H1967 C1996 0.950 . S
H1968 C1998 0.951 . S
H1969 C1999 0.949 . S
C1970 C1971 1.376 . S
C1970 C1975 1.386 . S
C1970 C1976 1.483 . S
C1971 H1952 0.949 . S
C1971 C1970 1.376 . S
C1971 C1972 1.397 . S
C1972 H1953 0.950 . S
C1972 C1971 1.397 . S
C1972 C1973 1.391 . S
C1973 C1972 1.391 . S
C1973 C1974 1.405 . S
C1974 H1954 0.950 . S
C1974 C1973 1.405 . S
C1974 C1975 1.367 . S
C1975 H1955 0.950 . S
C1975 C1970 1.386 . S
C1975 C1974 1.367 . S
C1976 C1970 1.483 . S
C1976 C1977 1.382 . S
C1976 C1978 1.403 . S
C1977 H1956 0.950 . S
C1977 C1976 1.382 . S
C1977 C1993 1.411 . S
C1978 C1976 1.403 . S
C1978 C1979 1.489 . S
C1978 C1992 1.411 . S
C1979 C1978 1.489 . S
C1979 C1980 1.383 . S
C1979 C1984 1.382 . S
C1980 H1957 0.950 . S
C1980 C1979 1.383 . S
C1980 C1981 1.395 . S
C1981 H1958 0.950 . S
C1981 C1980 1.395 . S
C1981 C1982 1.288 . S
C1982 C1981 1.288 . S
C1982 C1983 1.392 . S
C1983 H1959 0.951 . S
C1983 C1982 1.392 . S
C1983 C1984 1.392 . S
C1984 H1960 0.949 . S
C1984 C1979 1.382 . S
C1984 C1983 1.392 . S
C1985 C1986 1.376 . S
C1985 C1990 1.386 . S
C1985 C1991 1.483 . S
C1986 H1961 0.949 . S
C1986 C1985 1.376 . S
C1986 C1987 1.397 . S
C1987 H1962 0.950 . S
C1987 C1986 1.397 . S
C1987 C1988 1.391 . S
C1988 C1987 1.391 . S
C1988 C1989 1.405 . S
C1989 H1963 0.950 . S
C1989 C1988 1.405 . S
C1989 C1990 1.367 . S
C1990 H1964 0.950 . S
C1990 C1985 1.386 . S
C1990 C1989 1.367 . S
C1991 C1985 1.483 . S
C1991 C1992 1.382 . S
C1991 C1993 1.403 . S
C1992 H1965 0.950 . S
C1992 C1978 1.411 . S
C1992 C1991 1.382 . S
C1993 C1977 1.411 . S
C1993 C1991 1.403 . S
C1993 C1994 1.489 . S
C1994 C1993 1.489 . S
C1994 C1995 1.383 . S
C1994 C1999 1.382 . S
C1995 H1966 0.950 . S
C1995 C1994 1.383 . S
C1995 C1996 1.395 . S
C1996 H1967 0.950 . S
C1996 C1995 1.395 . S
C1996 C1997 1.288 . S
C1997 C1996 1.288 . S
C1997 C1998 1.392 . S
C1998 H1968 0.951 . S
C1998 C1997 1.392 . S
C1998 C1999 1.392 . S
C1999 H1969 0.949 . S
C1999 C1994 1.382 . S
C1999 C1998 1.392 . S
H2000 C2019 0.949 . S
H2001 C2020 0.950 . S
H2002 C2022 0.950 . S
H2003 C2023 0.950 . S
H2004 C2025 0.950 . S
H2005 C2028 0.950 . S
H2006 C2029 0.950 . S
H2007 C2031 0.951 . S
H2008 C2032 0.949 . S
H2009 C2034 0.949 . S
H2010 C2035 0.950 . S
H2011 C2037 0.950 . S
H2012 C2038 0.950 . S
H2013 C2040 0.950 . S
H2014 C2043 0.950 . S
H2015 C2044 0.950 . S
H2016 C2046 0.951 . S
H2017 C2047 0.949 . S
C2018 C2019 1.376 . S
C2018 C2023 1.386 . S
C2018 C2024 1.483 . S
C2019 H2000 0.949 . S
C2019 C2018 1.376 . S
C2019 C2020 1.397 . S
C2020 H2001 0.950 . S
C2020 C2019 1.397 . S
C2020 C2021 1.391 . S
C2021 C2020 1.391 . S
C2021 C2022 1.405 . S
C2022 H2002 0.950 . S
C2022 C2021 1.405 . S
C2022 C2023 1.367 . S
C2023 H2003 0.950 . S
C2023 C2018 1.386 . S
C2023 C2022 1.367 . S
C2024 C2018 1.483 . S
C2024 C2025 1.382 . S
C2024 C2026 1.403 . S
C2025 H2004 0.950 . S
C2025 C2024 1.382 . S
C2025 C2041 1.411 . S
C2026 C2024 1.403 . S
C2026 C2027 1.489 . S
C2026 C2040 1.411 . S
C2027 C2026 1.489 . S
C2027 C2028 1.383 . S
C2027 C2032 1.382 . S
C2028 H2005 0.950 . S
C2028 C2027 1.383 . S
C2028 C2029 1.395 . S
C2029 H2006 0.950 . S
C2029 C2028 1.395 . S
C2029 C2030 1.288 . S
C2030 C2029 1.288 . S
C2030 C2031 1.392 . S
C2031 H2007 0.951 . S
C2031 C2030 1.392 . S
C2031 C2032 1.392 . S
C2032 H2008 0.949 . S
C2032 C2027 1.382 . S
C2032 C2031 1.392 . S
C2033 C2034 1.376 . S
C2033 C2038 1.386 . S
C2033 C2039 1.483 . S
C2034 H2009 0.949 . S
C2034 C2033 1.376 . S
C2034 C2035 1.397 . S
C2035 H2010 0.950 . S
C2035 C2034 1.397 . S
C2035 C2036 1.391 . S
C2036 C2035 1.391 . S
C2036 C2037 1.405 . S
C2037 H2011 0.950 . S
C2037 C2036 1.405 . S
C2037 C2038 1.367 . S
C2038 H2012 0.950 . S
C2038 C2033 1.386 . S
C2038 C2037 1.367 . S
C2039 C2033 1.483 . S
C2039 C2040 1.382 . S
C2039 C2041 1.403 . S
C2040 H2013 0.950 . S
C2040 C2026 1.411 . S
C2040 C2039 1.382 . S
C2041 C2025 1.411 . S
C2041 C2039 1.403 . S
C2041 C2042 1.489 . S
C2042 C2041 1.489 . S
C2042 C2043 1.383 . S
C2042 C2047 1.382 . S
C2043 H2014 0.950 . S
C2043 C2042 1.383 . S
C2043 C2044 1.395 . S
C2044 H2015 0.950 . S
C2044 C2043 1.395 . S
C2044 C2045 1.288 . S
C2045 C2044 1.288 . S
C2045 C2046 1.392 . S
C2046 H2016 0.951 . S
C2046 C2045 1.392 . S
C2046 C2047 1.392 . S
C2047 H2017 0.949 . S
C2047 C2042 1.382 . S
C2047 C2046 1.392 . S
H2048 C2067 0.949 . S
H2049 C2068 0.950 . S
H2050 C2070 0.950 . S
H2051 C2071 0.950 . S
H2052 C2073 0.950 . S
H2053 C2076 0.950 . S
H2054 C2077 0.950 . S
H2055 C2079 0.951 . S
H2056 C2080 0.949 . S
H2057 C2082 0.949 . S
H2058 C2083 0.950 . S
H2059 C2085 0.950 . S
H2060 C2086 0.950 . S
H2061 C2088 0.950 . S
H2062 C2091 0.950 . S
H2063 C2092 0.950 . S
H2064 C2094 0.951 . S
H2065 C2095 0.949 . S
C2066 C2067 1.376 . S
C2066 C2071 1.386 . S
C2066 C2072 1.483 . S
C2067 H2048 0.949 . S
C2067 C2066 1.376 . S
C2067 C2068 1.397 . S
C2068 H2049 0.950 . S
C2068 C2067 1.397 . S
C2068 C2069 1.391 . S
C2069 C2068 1.391 . S
C2069 C2070 1.405 . S
C2070 H2050 0.950 . S
C2070 C2069 1.405 . S
C2070 C2071 1.367 . S
C2071 H2051 0.950 . S
C2071 C2066 1.386 . S
C2071 C2070 1.367 . S
C2072 C2066 1.483 . S
C2072 C2073 1.382 . S
C2072 C2074 1.403 . S
C2073 H2052 0.950 . S
C2073 C2072 1.382 . S
C2073 C2089 1.411 . S
C2074 C2072 1.403 . S
C2074 C2075 1.489 . S
C2074 C2088 1.411 . S
C2075 C2074 1.489 . S
C2075 C2076 1.383 . S
C2075 C2080 1.382 . S
C2076 H2053 0.950 . S
C2076 C2075 1.383 . S
C2076 C2077 1.395 . S
C2077 H2054 0.950 . S
C2077 C2076 1.395 . S
C2077 C2078 1.288 . S
C2078 C2077 1.288 . S
C2078 C2079 1.392 . S
C2079 H2055 0.951 . S
C2079 C2078 1.392 . S
C2079 C2080 1.392 . S
C2080 H2056 0.949 . S
C2080 C2075 1.382 . S
C2080 C2079 1.392 . S
C2081 C2082 1.376 . S
C2081 C2086 1.386 . S
C2081 C2087 1.483 . S
C2082 H2057 0.949 . S
C2082 C2081 1.376 . S
C2082 C2083 1.397 . S
C2083 H2058 0.950 . S
C2083 C2082 1.397 . S
C2083 C2084 1.391 . S
C2084 C2083 1.391 . S
C2084 C2085 1.405 . S
C2085 H2059 0.950 . S
C2085 C2084 1.405 . S
C2085 C2086 1.367 . S
C2086 H2060 0.950 . S
C2086 C2081 1.386 . S
C2086 C2085 1.367 . S
C2087 C2081 1.483 . S
C2087 C2088 1.382 . S
C2087 C2089 1.403 . S
C2088 H2061 0.950 . S
C2088 C2074 1.411 . S
C2088 C2087 1.382 . S
C2089 C2073 1.411 . S
C2089 C2087 1.403 . S
C2089 C2090 1.489 . S
C2090 C2089 1.489 . S
C2090 C2091 1.383 . S
C2090 C2095 1.382 . S
C2091 H2062 0.950 . S
C2091 C2090 1.383 . S
C2091 C2092 1.395 . S
C2092 H2063 0.950 . S
C2092 C2091 1.395 . S
C2092 C2093 1.288 . S
C2093 C2092 1.288 . S
C2093 C2094 1.392 . S
C2094 H2064 0.951 . S
C2094 C2093 1.392 . S
C2094 C2095 1.392 . S
C2095 H2065 0.949 . S
C2095 C2090 1.382 . S
C2095 C2094 1.392 . S
H2096 C2115 0.949 . S
H2097 C2116 0.950 . S
H2098 C2118 0.950 . S
H2099 C2119 0.950 . S
H2100 C2121 0.950 . S
H2101 C2124 0.950 . S
H2102 C2125 0.950 . S
H2103 C2127 0.951 . S
H2104 C2128 0.949 . S
H2105 C2130 0.949 . S
H2106 C2131 0.950 . S
H2107 C2133 0.950 . S
H2108 C2134 0.950 . S
H2109 C2136 0.950 . S
H2110 C2139 0.950 . S
H2111 C2140 0.950 . S
H2112 C2142 0.951 . S
H2113 C2143 0.949 . S
C2114 C2115 1.376 . S
C2114 C2119 1.386 . S
C2114 C2120 1.483 . S
C2115 H2096 0.949 . S
C2115 C2114 1.376 . S
C2115 C2116 1.397 . S
C2116 H2097 0.950 . S
C2116 C2115 1.397 . S
C2116 C2117 1.391 . S
C2117 C2116 1.391 . S
C2117 C2118 1.405 . S
C2118 H2098 0.950 . S
C2118 C2117 1.405 . S
C2118 C2119 1.367 . S
C2119 H2099 0.950 . S
C2119 C2114 1.386 . S
C2119 C2118 1.367 . S
C2120 C2114 1.483 . S
C2120 C2121 1.382 . S
C2120 C2122 1.403 . S
C2121 H2100 0.950 . S
C2121 C2120 1.382 . S
C2121 C2137 1.411 . S
C2122 C2120 1.403 . S
C2122 C2123 1.489 . S
C2122 C2136 1.411 . S
C2123 C2122 1.489 . S
C2123 C2124 1.383 . S
C2123 C2128 1.382 . S
C2124 H2101 0.950 . S
C2124 C2123 1.383 . S
C2124 C2125 1.395 . S
C2125 H2102 0.950 . S
C2125 C2124 1.395 . S
C2125 C2126 1.288 . S
C2126 C2125 1.288 . S
C2126 C2127 1.392 . S
C2127 H2103 0.951 . S
C2127 C2126 1.392 . S
C2127 C2128 1.392 . S
C2128 H2104 0.949 . S
C2128 C2123 1.382 . S
C2128 C2127 1.392 . S
C2129 C2130 1.376 . S
C2129 C2134 1.386 . S
C2129 C2135 1.483 . S
C2130 H2105 0.949 . S
C2130 C2129 1.376 . S
C2130 C2131 1.397 . S
C2131 H2106 0.950 . S
C2131 C2130 1.397 . S
C2131 C2132 1.391 . S
C2132 C2131 1.391 . S
C2132 C2133 1.405 . S
C2133 H2107 0.950 . S
C2133 C2132 1.405 . S
C2133 C2134 1.367 . S
C2134 H2108 0.950 . S
C2134 C2129 1.386 . S
C2134 C2133 1.367 . S
C2135 C2129 1.483 . S
C2135 C2136 1.382 . S
C2135 C2137 1.403 . S
C2136 H2109 0.950 . S
C2136 C2122 1.411 . S
C2136 C2135 1.382 . S
C2137 C2121 1.411 . S
C2137 C2135 1.403 . S
C2137 C2138 1.489 . S
C2138 C2137 1.489 . S
C2138 C2139 1.383 . S
C2138 C2143 1.382 . S
C2139 H2110 0.950 . S
C2139 C2138 1.383 . S
C2139 C2140 1.395 . S
C2140 H2111 0.950 . S
C2140 C2139 1.395 . S
C2140 C2141 1.288 . S
C2141 C2140 1.288 . S
C2141 C2142 1.392 . S
C2142 H2112 0.951 . S
C2142 C2141 1.392 . S
C2142 C2143 1.392 . S
C2143 H2113 0.949 . S
C2143 C2138 1.382 . S
C2143 C2142 1.392 . S
H2144 C2163 0.949 . S
H2145 C2164 0.950 . S
H2146 C2166 0.950 . S
H2147 C2167 0.950 . S
H2148 C2169 0.950 . S
H2149 C2172 0.950 . S
H2150 C2173 0.950 . S
H2151 C2175 0.951 . S
H2152 C2176 0.949 . S
H2153 C2178 0.949 . S
H2154 C2179 0.950 . S
H2155 C2181 0.950 . S
H2156 C2182 0.950 . S
H2157 C2184 0.950 . S
H2158 C2187 0.950 . S
H2159 C2188 0.950 . S
H2160 C2190 0.951 . S
H2161 C2191 0.949 . S
C2162 C2163 1.376 . S
C2162 C2167 1.386 . S
C2162 C2168 1.483 . S
C2163 H2144 0.949 . S
C2163 C2162 1.376 . S
C2163 C2164 1.397 . S
C2164 H2145 0.950 . S
C2164 C2163 1.397 . S
C2164 C2165 1.391 . S
C2165 C2164 1.391 . S
C2165 C2166 1.405 . S
C2166 H2146 0.950 . S
C2166 C2165 1.405 . S
C2166 C2167 1.367 . S
C2167 H2147 0.950 . S
C2167 C2162 1.386 . S
C2167 C2166 1.367 . S
C2168 C2162 1.483 . S
C2168 C2169 1.382 . S
C2168 C2170 1.403 . S
C2169 H2148 0.950 . S
C2169 C2168 1.382 . S
C2169 C2185 1.411 . S
C2170 C2168 1.403 . S
C2170 C2171 1.489 . S
C2170 C2184 1.411 . S
C2171 C2170 1.489 . S
C2171 C2172 1.383 . S
C2171 C2176 1.382 . S
C2172 H2149 0.950 . S
C2172 C2171 1.383 . S
C2172 C2173 1.395 . S
C2173 H2150 0.950 . S
C2173 C2172 1.395 . S
C2173 C2174 1.288 . S
C2174 C2173 1.288 . S
C2174 C2175 1.392 . S
C2175 H2151 0.951 . S
C2175 C2174 1.392 . S
C2175 C2176 1.392 . S
C2176 H2152 0.949 . S
C2176 C2171 1.382 . S
C2176 C2175 1.392 . S
C2177 C2178 1.376 . S
C2177 C2182 1.386 . S
C2177 C2183 1.483 . S
C2178 H2153 0.949 . S
C2178 C2177 1.376 . S
C2178 C2179 1.397 . S
C2179 H2154 0.950 . S
C2179 C2178 1.397 . S
C2179 C2180 1.391 . S
C2180 C2179 1.391 . S
C2180 C2181 1.405 . S
C2181 H2155 0.950 . S
C2181 C2180 1.405 . S
C2181 C2182 1.367 . S
C2182 H2156 0.950 . S
C2182 C2177 1.386 . S
C2182 C2181 1.367 . S
C2183 C2177 1.483 . S
C2183 C2184 1.382 . S
C2183 C2185 1.403 . S
C2184 H2157 0.950 . S
C2184 C2170 1.411 . S
C2184 C2183 1.382 . S
C2185 C2169 1.411 . S
C2185 C2183 1.403 . S
C2185 C2186 1.489 . S
C2186 C2185 1.489 . S
C2186 C2187 1.383 . S
C2186 C2191 1.382 . S
C2187 H2158 0.950 . S
C2187 C2186 1.383 . S
C2187 C2188 1.395 . S
C2188 H2159 0.950 . S
C2188 C2187 1.395 . S
C2188 C2189 1.288 . S
C2189 C2188 1.288 . S
C2189 C2190 1.392 . S
C2190 H2160 0.951 . S
C2190 C2189 1.392 . S
C2190 C2191 1.392 . S
C2191 H2161 0.949 . S
C2191 C2186 1.382 . S
C2191 C2190 1.392 . S
H2192 C2211 0.949 . S
H2193 C2212 0.950 . S
H2194 C2214 0.950 . S
H2195 C2215 0.950 . S
H2196 C2217 0.950 . S
H2197 C2220 0.950 . S
H2198 C2221 0.950 . S
H2199 C2223 0.951 . S
H2200 C2224 0.949 . S
H2201 C2226 0.949 . S
H2202 C2227 0.950 . S
H2203 C2229 0.950 . S
H2204 C2230 0.950 . S
H2205 C2232 0.950 . S
H2206 C2235 0.950 . S
H2207 C2236 0.950 . S
H2208 C2238 0.951 . S
H2209 C2239 0.949 . S
C2210 C2211 1.376 . S
C2210 C2215 1.386 . S
C2210 C2216 1.483 . S
C2211 H2192 0.949 . S
C2211 C2210 1.376 . S
C2211 C2212 1.397 . S
C2212 H2193 0.950 . S
C2212 C2211 1.397 . S
C2212 C2213 1.391 . S
C2213 C2212 1.391 . S
C2213 C2214 1.405 . S
C2214 H2194 0.950 . S
C2214 C2213 1.405 . S
C2214 C2215 1.367 . S
C2215 H2195 0.950 . S
C2215 C2210 1.386 . S
C2215 C2214 1.367 . S
C2216 C2210 1.483 . S
C2216 C2217 1.382 . S
C2216 C2218 1.403 . S
C2217 H2196 0.950 . S
C2217 C2216 1.382 . S
C2217 C2233 1.411 . S
C2218 C2216 1.403 . S
C2218 C2219 1.489 . S
C2218 C2232 1.411 . S
C2219 C2218 1.489 . S
C2219 C2220 1.383 . S
C2219 C2224 1.382 . S
C2220 H2197 0.950 . S
C2220 C2219 1.383 . S
C2220 C2221 1.395 . S
C2221 H2198 0.950 . S
C2221 C2220 1.395 . S
C2221 C2222 1.288 . S
C2222 C2221 1.288 . S
C2222 C2223 1.392 . S
C2223 H2199 0.951 . S
C2223 C2222 1.392 . S
C2223 C2224 1.392 . S
C2224 H2200 0.949 . S
C2224 C2219 1.382 . S
C2224 C2223 1.392 . S
C2225 C2226 1.376 . S
C2225 C2230 1.386 . S
C2225 C2231 1.483 . S
C2226 H2201 0.949 . S
C2226 C2225 1.376 . S
C2226 C2227 1.397 . S
C2227 H2202 0.950 . S
C2227 C2226 1.397 . S
C2227 C2228 1.391 . S
C2228 C2227 1.391 . S
C2228 C2229 1.405 . S
C2229 H2203 0.950 . S
C2229 C2228 1.405 . S
C2229 C2230 1.367 . S
C2230 H2204 0.950 . S
C2230 C2225 1.386 . S
C2230 C2229 1.367 . S
C2231 C2225 1.483 . S
C2231 C2232 1.382 . S
C2231 C2233 1.403 . S
C2232 H2205 0.950 . S
C2232 C2218 1.411 . S
C2232 C2231 1.382 . S
C2233 C2217 1.411 . S
C2233 C2231 1.403 . S
C2233 C2234 1.489 . S
C2234 C2233 1.489 . S
C2234 C2235 1.383 . S
C2234 C2239 1.382 . S
C2235 H2206 0.950 . S
C2235 C2234 1.383 . S
C2235 C2236 1.395 . S
C2236 H2207 0.950 . S
C2236 C2235 1.395 . S
C2236 C2237 1.288 . S
C2237 C2236 1.288 . S
C2237 C2238 1.392 . S
C2238 H2208 0.951 . S
C2238 C2237 1.392 . S
C2238 C2239 1.392 . S
C2239 H2209 0.949 . S
C2239 C2234 1.382 . S
C2239 C2238 1.392 . S
H2240 C2259 0.949 . S
H2241 C2260 0.950 . S
H2242 C2262 0.950 . S
H2243 C2263 0.950 . S
H2244 C2265 0.950 . S
H2245 C2268 0.950 . S
H2246 C2269 0.950 . S
H2247 C2271 0.951 . S
H2248 C2272 0.949 . S
H2249 C2274 0.949 . S
H2250 C2275 0.950 . S
H2251 C2277 0.950 . S
H2252 C2278 0.950 . S
H2253 C2280 0.950 . S
H2254 C2283 0.950 . S
H2255 C2284 0.950 . S
H2256 C2286 0.951 . S
H2257 C2287 0.949 . S
C2258 C2259 1.376 . S
C2258 C2263 1.386 . S
C2258 C2264 1.483 . S
C2259 H2240 0.949 . S
C2259 C2258 1.376 . S
C2259 C2260 1.397 . S
C2260 H2241 0.950 . S
C2260 C2259 1.397 . S
C2260 C2261 1.391 . S
C2261 C2260 1.391 . S
C2261 C2262 1.405 . S
C2262 H2242 0.950 . S
C2262 C2261 1.405 . S
C2262 C2263 1.367 . S
C2263 H2243 0.950 . S
C2263 C2258 1.386 . S
C2263 C2262 1.367 . S
C2264 C2258 1.483 . S
C2264 C2265 1.382 . S
C2264 C2266 1.403 . S
C2265 H2244 0.950 . S
C2265 C2264 1.382 . S
C2265 C2281 1.411 . S
C2266 C2264 1.403 . S
C2266 C2267 1.489 . S
C2266 C2280 1.411 . S
C2267 C2266 1.489 . S
C2267 C2268 1.383 . S
C2267 C2272 1.382 . S
C2268 H2245 0.950 . S
C2268 C2267 1.383 . S
C2268 C2269 1.395 . S
C2269 H2246 0.950 . S
C2269 C2268 1.395 . S
C2269 C2270 1.288 . S
C2270 C2269 1.288 . S
C2270 C2271 1.392 . S
C2271 H2247 0.951 . S
C2271 C2270 1.392 . S
C2271 C2272 1.392 . S
C2272 H2248 0.949 . S
C2272 C2267 1.382 . S
C2272 C2271 1.392 . S
C2273 C2274 1.376 . S
C2273 C2278 1.386 . S
C2273 C2279 1.483 . S
C2274 H2249 0.949 . S
C2274 C2273 1.376 . S
C2274 C2275 1.397 . S
C2275 H2250 0.950 . S
C2275 C2274 1.397 . S
C2275 C2276 1.391 . S
C2276 C2275 1.391 . S
C2276 C2277 1.405 . S
C2277 H2251 0.950 . S
C2277 C2276 1.405 . S
C2277 C2278 1.367 . S
C2278 H2252 0.950 . S
C2278 C2273 1.386 . S
C2278 C2277 1.367 . S
C2279 C2273 1.483 . S
C2279 C2280 1.382 . S
C2279 C2281 1.403 . S
C2280 H2253 0.950 . S
C2280 C2266 1.411 . S
C2280 C2279 1.382 . S
C2281 C2265 1.411 . S
C2281 C2279 1.403 . S
C2281 C2282 1.489 . S
C2282 C2281 1.489 . S
C2282 C2283 1.383 . S
C2282 C2287 1.382 . S
C2283 H2254 0.950 . S
C2283 C2282 1.383 . S
C2283 C2284 1.395 . S
C2284 H2255 0.950 . S
C2284 C2283 1.395 . S
C2284 C2285 1.288 . S
C2285 C2284 1.288 . S
C2285 C2286 1.392 . S
C2286 H2256 0.951 . S
C2286 C2285 1.392 . S
C2286 C2287 1.392 . S
C2287 H2257 0.949 . S
C2287 C2282 1.382 . S
C2287 C2286 1.392 . S
H2288 C2307 0.949 . S
H2289 C2308 0.950 . S
H2290 C2310 0.950 . S
H2291 C2311 0.950 . S
H2292 C2313 0.950 . S
H2293 C2316 0.950 . S
H2294 C2317 0.950 . S
H2295 C2319 0.951 . S
H2296 C2320 0.949 . S
H2297 C2322 0.949 . S
H2298 C2323 0.950 . S
H2299 C2325 0.950 . S
H2300 C2326 0.950 . S
H2301 C2328 0.950 . S
H2302 C2331 0.950 . S
H2303 C2332 0.950 . S
H2304 C2334 0.951 . S
H2305 C2335 0.949 . S
C2306 C2307 1.376 . S
C2306 C2311 1.386 . S
C2306 C2312 1.483 . S
C2307 H2288 0.949 . S
C2307 C2306 1.376 . S
C2307 C2308 1.397 . S
C2308 H2289 0.950 . S
C2308 C2307 1.397 . S
C2308 C2309 1.391 . S
C2309 C2308 1.391 . S
C2309 C2310 1.405 . S
C2310 H2290 0.950 . S
C2310 C2309 1.405 . S
C2310 C2311 1.367 . S
C2311 H2291 0.950 . S
C2311 C2306 1.386 . S
C2311 C2310 1.367 . S
C2312 C2306 1.483 . S
C2312 C2313 1.382 . S
C2312 C2314 1.403 . S
C2313 H2292 0.950 . S
C2313 C2312 1.382 . S
C2313 C2329 1.411 . S
C2314 C2312 1.403 . S
C2314 C2315 1.489 . S
C2314 C2328 1.411 . S
C2315 C2314 1.489 . S
C2315 C2316 1.383 . S
C2315 C2320 1.382 . S
C2316 H2293 0.950 . S
C2316 C2315 1.383 . S
C2316 C2317 1.395 . S
C2317 H2294 0.950 . S
C2317 C2316 1.395 . S
C2317 C2318 1.288 . S
C2318 C2317 1.288 . S
C2318 C2319 1.392 . S
C2319 H2295 0.951 . S
C2319 C2318 1.392 . S
C2319 C2320 1.392 . S
C2320 H2296 0.949 . S
C2320 C2315 1.382 . S
C2320 C2319 1.392 . S
C2321 C2322 1.376 . S
C2321 C2326 1.386 . S
C2321 C2327 1.483 . S
C2322 H2297 0.949 . S
C2322 C2321 1.376 . S
C2322 C2323 1.397 . S
C2323 H2298 0.950 . S
C2323 C2322 1.397 . S
C2323 C2324 1.391 . S
C2324 C2323 1.391 . S
C2324 C2325 1.405 . S
C2325 H2299 0.950 . S
C2325 C2324 1.405 . S
C2325 C2326 1.367 . S
C2326 H2300 0.950 . S
C2326 C2321 1.386 . S
C2326 C2325 1.367 . S
C2327 C2321 1.483 . S
C2327 C2328 1.382 . S
C2327 C2329 1.403 . S
C2328 H2301 0.950 . S
C2328 C2314 1.411 . S
C2328 C2327 1.382 . S
C2329 C2313 1.411 . S
C2329 C2327 1.403 . S
C2329 C2330 1.489 . S
C2330 C2329 1.489 . S
C2330 C2331 1.383 . S
C2330 C2335 1.382 . S
C2331 H2302 0.950 . S
C2331 C2330 1.383 . S
C2331 C2332 1.395 . S
C2332 H2303 0.950 . S
C2332 C2331 1.395 . S
C2332 C2333 1.288 . S
C2333 C2332 1.288 . S
C2333 C2334 1.392 . S
C2334 H2304 0.951 . S
C2334 C2333 1.392 . S
C2334 C2335 1.392 . S
C2335 H2305 0.949 . S
C2335 C2330 1.382 . S
C2335 C2334 1.392 . S
H2336 C2355 0.949 . S
H2337 C2356 0.950 . S
H2338 C2358 0.950 . S
H2339 C2359 0.950 . S
H2340 C2361 0.950 . S
H2341 C2364 0.950 . S
H2342 C2365 0.950 . S
H2343 C2367 0.951 . S
H2344 C2368 0.949 . S
H2345 C2370 0.949 . S
H2346 C2371 0.950 . S
H2347 C2373 0.950 . S
H2348 C2374 0.950 . S
H2349 C2376 0.950 . S
H2350 C2379 0.950 . S
H2351 C2380 0.950 . S
H2352 C2382 0.951 . S
H2353 C2383 0.949 . S
C2354 C2355 1.376 . S
C2354 C2359 1.386 . S
C2354 C2360 1.483 . S
C2355 H2336 0.949 . S
C2355 C2354 1.376 . S
C2355 C2356 1.397 . S
C2356 H2337 0.950 . S
C2356 C2355 1.397 . S
C2356 C2357 1.391 . S
C2357 C2356 1.391 . S
C2357 C2358 1.405 . S
C2358 H2338 0.950 . S
C2358 C2357 1.405 . S
C2358 C2359 1.367 . S
C2359 H2339 0.950 . S
C2359 C2354 1.386 . S
C2359 C2358 1.367 . S
C2360 C2354 1.483 . S
C2360 C2361 1.382 . S
C2360 C2362 1.403 . S
C2361 H2340 0.950 . S
C2361 C2360 1.382 . S
C2361 C2377 1.411 . S
C2362 C2360 1.403 . S
C2362 C2363 1.489 . S
C2362 C2376 1.411 . S
C2363 C2362 1.489 . S
C2363 C2364 1.383 . S
C2363 C2368 1.382 . S
C2364 H2341 0.950 . S
C2364 C2363 1.383 . S
C2364 C2365 1.395 . S
C2365 H2342 0.950 . S
C2365 C2364 1.395 . S
C2365 C2366 1.288 . S
C2366 C2365 1.288 . S
C2366 C2367 1.392 . S
C2367 H2343 0.951 . S
C2367 C2366 1.392 . S
C2367 C2368 1.392 . S
C2368 H2344 0.949 . S
C2368 C2363 1.382 . S
C2368 C2367 1.392 . S
C2369 C2370 1.376 . S
C2369 C2374 1.386 . S
C2369 C2375 1.483 . S
C2370 H2345 0.949 . S
C2370 C2369 1.376 . S
C2370 C2371 1.397 . S
C2371 H2346 0.950 . S
C2371 C2370 1.397 . S
C2371 C2372 1.391 . S
C2372 C2371 1.391 . S
C2372 C2373 1.405 . S
C2373 H2347 0.950 . S
C2373 C2372 1.405 . S
C2373 C2374 1.367 . S
C2374 H2348 0.950 . S
C2374 C2369 1.386 . S
C2374 C2373 1.367 . S
C2375 C2369 1.483 . S
C2375 C2376 1.382 . S
C2375 C2377 1.403 . S
C2376 H2349 0.950 . S
C2376 C2362 1.411 . S
C2376 C2375 1.382 . S
C2377 C2361 1.411 . S
C2377 C2375 1.403 . S
C2377 C2378 1.489 . S
C2378 C2377 1.489 . S
C2378 C2379 1.383 . S
C2378 C2383 1.382 . S
C2379 H2350 0.950 . S
C2379 C2378 1.383 . S
C2379 C2380 1.395 . S
C2380 H2351 0.950 . S
C2380 C2379 1.395 . S
C2380 C2381 1.288 . S
C2381 C2380 1.288 . S
C2381 C2382 1.392 . S
C2382 H2352 0.951 . S
C2382 C2381 1.392 . S
C2382 C2383 1.392 . S
C2383 H2353 0.949 . S
C2383 C2378 1.382 . S
C2383 C2382 1.392 . S
H2384 C2403 0.949 . S
H2385 C2404 0.950 . S
H2386 C2406 0.950 . S
H2387 C2407 0.950 . S
H2388 C2409 0.950 . S
H2389 C2412 0.950 . S
H2390 C2413 0.950 . S
H2391 C2415 0.951 . S
H2392 C2416 0.949 . S
H2393 C2418 0.949 . S
H2394 C2419 0.950 . S
H2395 C2421 0.950 . S
H2396 C2422 0.950 . S
H2397 C2424 0.950 . S
H2398 C2427 0.950 . S
H2399 C2428 0.950 . S
H2400 C2430 0.951 . S
H2401 C2431 0.949 . S
C2402 C2403 1.376 . S
C2402 C2407 1.386 . S
C2402 C2408 1.483 . S
C2403 H2384 0.949 . S
C2403 C2402 1.376 . S
C2403 C2404 1.397 . S
C2404 H2385 0.950 . S
C2404 C2403 1.397 . S
C2404 C2405 1.391 . S
C2405 C2404 1.391 . S
C2405 C2406 1.405 . S
C2406 H2386 0.950 . S
C2406 C2405 1.405 . S
C2406 C2407 1.367 . S
C2407 H2387 0.950 . S
C2407 C2402 1.386 . S
C2407 C2406 1.367 . S
C2408 C2402 1.483 . S
C2408 C2409 1.382 . S
C2408 C2410 1.403 . S
C2409 H2388 0.950 . S
C2409 C2408 1.382 . S
C2409 C2425 1.411 . S
C2410 C2408 1.403 . S
C2410 C2411 1.489 . S
C2410 C2424 1.411 . S
C2411 C2410 1.489 . S
C2411 C2412 1.383 . S
C2411 C2416 1.382 . S
C2412 H2389 0.950 . S
C2412 C2411 1.383 . S
C2412 C2413 1.395 . S
C2413 H2390 0.950 . S
C2413 C2412 1.395 . S
C2413 C2414 1.288 . S
C2414 C2413 1.288 . S
C2414 C2415 1.392 . S
C2415 H2391 0.951 . S
C2415 C2414 1.392 . S
C2415 C2416 1.392 . S
C2416 H2392 0.949 . S
C2416 C2411 1.382 . S
C2416 C2415 1.392 . S
C2417 C2418 1.376 . S
C2417 C2422 1.386 . S
C2417 C2423 1.483 . S
C2418 H2393 0.949 . S
C2418 C2417 1.376 . S
C2418 C2419 1.397 . S
C2419 H2394 0.950 . S
C2419 C2418 1.397 . S
C2419 C2420 1.391 . S
C2420 C2419 1.391 . S
C2420 C2421 1.405 . S
C2421 H2395 0.950 . S
C2421 C2420 1.405 . S
C2421 C2422 1.367 . S
C2422 H2396 0.950 . S
C2422 C2417 1.386 . S
C2422 C2421 1.367 . S
C2423 C2417 1.483 . S
C2423 C2424 1.382 . S
C2423 C2425 1.403 . S
C2424 H2397 0.950 . S
C2424 C2410 1.411 . S
C2424 C2423 1.382 . S
C2425 C2409 1.411 . S
C2425 C2423 1.403 . S
C2425 C2426 1.489 . S
C2426 C2425 1.489 . S
C2426 C2427 1.383 . S
C2426 C2431 1.382 . S
C2427 H2398 0.950 . S
C2427 C2426 1.383 . S
C2427 C2428 1.395 . S
C2428 H2399 0.950 . S
C2428 C2427 1.395 . S
C2428 C2429 1.288 . S
C2429 C2428 1.288 . S
C2429 C2430 1.392 . S
C2430 H2400 0.951 . S
C2430 C2429 1.392 . S
C2430 C2431 1.392 . S
C2431 H2401 0.949 . S
C2431 C2426 1.382 . S
C2431 C2430 1.392 . S
C2432 C2433 1.391 . S
C2432 C2434 1.394 . S
C2432 H2448 0.931 . S
C2433 C2432 1.391 . S
C2433 C2437 1.376 . S
C2434 C2432 1.394 . S
C2434 C2435 1.369 . S
C2434 C2438 1.531 . S
C2435 C2434 1.369 . S
C2435 C2436 1.410 . S
C2435 C2443 1.503 . S
C2436 C2435 1.410 . S
C2436 C2437 1.392 . S
C2436 C2439 1.511 . S
C2437 C2433 1.376 . S
C2437 C2436 1.392 . S
C2437 H2449 0.929 . S
C2438 C2434 1.531 . S
C2438 H2450 0.960 . S
C2438 H2451 0.962 . S
C2438 H2452 0.960 . S
C2439 C2436 1.511 . S
C2439 H2453 0.961 . S
C2439 H2454 0.961 . S
C2439 H2455 0.961 . S
C2440 C2441 1.370 . S
C2440 C2442 1.363 . S
C2440 H2456 0.931 . S
C2441 C2440 1.370 . S
C2441 C2445 1.408 . S
C2442 C2440 1.363 . S
C2442 C2443 1.370 . S
C2442 C2446 1.524 . S
C2443 C2435 1.503 . S
C2443 C2442 1.370 . S
C2443 C2444 1.403 . S
C2444 C2443 1.403 . S
C2444 C2445 1.404 . S
C2444 C2447 1.539 . S
C2445 C2441 1.408 . S
C2445 C2444 1.404 . S
C2445 H2457 0.930 . S
C2446 C2442 1.524 . S
C2446 H2458 0.956 . S
C2446 H2459 0.961 . S
C2446 H2460 0.961 . S
C2447 C2444 1.539 . S
C2447 H2461 0.958 . S
C2447 H2462 0.961 . S
C2447 H2463 0.960 . S
H2448 C2432 0.931 . S
H2449 C2437 0.929 . S
H2450 C2438 0.960 . S
H2451 C2438 0.962 . S
H2452 C2438 0.960 . S
H2453 C2439 0.961 . S
H2454 C2439 0.961 . S
H2455 C2439 0.961 . S
H2456 C2440 0.931 . S
H2457 C2445 0.930 . S
H2458 C2446 0.956 . S
H2459 C2446 0.961 . S
H2460 C2446 0.961 . S
H2461 C2447 0.958 . S
H2462 C2447 0.961 . S
H2463 C2447 0.960 . S
C2464 C2465 1.391 . S
C2464 C2466 1.394 . S
C2464 H2480 0.931 . S
C2465 C2464 1.391 . S
C2465 C2469 1.376 . S
C2466 C2464 1.394 . S
C2466 C2467 1.369 . S
C2466 C2470 1.531 . S
C2467 C2466 1.369 . S
C2467 C2468 1.410 . S
C2467 C2475 1.503 . S
C2468 C2467 1.410 . S
C2468 C2469 1.392 . S
C2468 C2471 1.511 . S
C2469 C2465 1.376 . S
C2469 C2468 1.392 . S
C2469 H2481 0.929 . S
C2470 C2466 1.531 . S
C2470 H2482 0.960 . S
C2470 H2483 0.962 . S
C2470 H2484 0.960 . S
C2471 C2468 1.511 . S
C2471 H2485 0.961 . S
C2471 H2486 0.961 . S
C2471 H2487 0.961 . S
C2472 C2473 1.370 . S
C2472 C2474 1.363 . S
C2472 H2488 0.931 . S
C2473 C2472 1.370 . S
C2473 C2477 1.408 . S
C2474 C2472 1.363 . S
C2474 C2475 1.370 . S
C2474 C2478 1.524 . S
C2475 C2467 1.503 . S
C2475 C2474 1.370 . S
C2475 C2476 1.403 . S
C2476 C2475 1.403 . S
C2476 C2477 1.404 . S
C2476 C2479 1.539 . S
C2477 C2473 1.408 . S
C2477 C2476 1.404 . S
C2477 H2489 0.930 . S
C2478 C2474 1.524 . S
C2478 H2490 0.956 . S
C2478 H2491 0.961 . S
C2478 H2492 0.961 . S
C2479 C2476 1.539 . S
C2479 H2493 0.958 . S
C2479 H2494 0.961 . S
C2479 H2495 0.960 . S
H2480 C2464 0.931 . S
H2481 C2469 0.929 . S
H2482 C2470 0.960 . S
H2483 C2470 0.962 . S
H2484 C2470 0.960 . S
H2485 C2471 0.961 . S
H2486 C2471 0.961 . S
H2487 C2471 0.961 . S
H2488 C2472 0.931 . S
H2489 C2477 0.930 . S
H2490 C2478 0.956 . S
H2491 C2478 0.961 . S
H2492 C2478 0.961 . S
H2493 C2479 0.958 . S
H2494 C2479 0.961 . S
H2495 C2479 0.960 . S
C2496 C2497 1.391 . S
C2496 C2498 1.394 . S
C2496 H2512 0.931 . S
C2497 C2496 1.391 . S
C2497 C2501 1.376 . S
C2498 C2496 1.394 . S
C2498 C2499 1.369 . S
C2498 C2502 1.531 . S
C2499 C2498 1.369 . S
C2499 C2500 1.410 . S
C2499 C2507 1.503 . S
C2500 C2499 1.410 . S
C2500 C2501 1.392 . S
C2500 C2503 1.511 . S
C2501 C2497 1.376 . S
C2501 C2500 1.392 . S
C2501 H2513 0.929 . S
C2502 C2498 1.531 . S
C2502 H2514 0.960 . S
C2502 H2515 0.962 . S
C2502 H2516 0.960 . S
C2503 C2500 1.511 . S
C2503 H2517 0.961 . S
C2503 H2518 0.961 . S
C2503 H2519 0.961 . S
C2504 C2505 1.370 . S
C2504 C2506 1.363 . S
C2504 H2520 0.931 . S
C2505 C2504 1.370 . S
C2505 C2509 1.408 . S
C2506 C2504 1.363 . S
C2506 C2507 1.370 . S
C2506 C2510 1.524 . S
C2507 C2499 1.503 . S
C2507 C2506 1.370 . S
C2507 C2508 1.403 . S
C2508 C2507 1.403 . S
C2508 C2509 1.404 . S
C2508 C2511 1.539 . S
C2509 C2505 1.408 . S
C2509 C2508 1.404 . S
C2509 H2521 0.930 . S
C2510 C2506 1.524 . S
C2510 H2522 0.956 . S
C2510 H2523 0.961 . S
C2510 H2524 0.961 . S
C2511 C2508 1.539 . S
C2511 H2525 0.958 . S
C2511 H2526 0.961 . S
C2511 H2527 0.960 . S
H2512 C2496 0.931 . S
H2513 C2501 0.929 . S
H2514 C2502 0.960 . S
H2515 C2502 0.962 . S
H2516 C2502 0.960 . S
H2517 C2503 0.961 . S
H2518 C2503 0.961 . S
H2519 C2503 0.961 . S
H2520 C2504 0.931 . S
H2521 C2509 0.930 . S
H2522 C2510 0.956 . S
H2523 C2510 0.961 . S
H2524 C2510 0.961 . S
H2525 C2511 0.958 . S
H2526 C2511 0.961 . S
H2527 C2511 0.960 . S
C2528 C2529 1.391 . S
C2528 C2530 1.394 . S
C2528 H2544 0.931 . S
C2529 C2528 1.391 . S
C2529 C2533 1.376 . S
C2530 C2528 1.394 . S
C2530 C2531 1.369 . S
C2530 C2534 1.531 . S
C2531 C2530 1.369 . S
C2531 C2532 1.410 . S
C2531 C2539 1.503 . S
C2532 C2531 1.410 . S
C2532 C2533 1.392 . S
C2532 C2535 1.511 . S
C2533 C2529 1.376 . S
C2533 C2532 1.392 . S
C2533 H2545 0.929 . S
C2534 C2530 1.531 . S
C2534 H2546 0.960 . S
C2534 H2547 0.962 . S
C2534 H2548 0.960 . S
C2535 C2532 1.511 . S
C2535 H2549 0.961 . S
C2535 H2550 0.961 . S
C2535 H2551 0.961 . S
C2536 C2537 1.370 . S
C2536 C2538 1.363 . S
C2536 H2552 0.931 . S
C2537 C2536 1.370 . S
C2537 C2541 1.408 . S
C2538 C2536 1.363 . S
C2538 C2539 1.370 . S
C2538 C2542 1.524 . S
C2539 C2531 1.503 . S
C2539 C2538 1.370 . S
C2539 C2540 1.403 . S
C2540 C2539 1.403 . S
C2540 C2541 1.404 . S
C2540 C2543 1.539 . S
C2541 C2537 1.408 . S
C2541 C2540 1.404 . S
C2541 H2553 0.930 . S
C2542 C2538 1.524 . S
C2542 H2554 0.956 . S
C2542 H2555 0.961 . S
C2542 H2556 0.961 . S
C2543 C2540 1.539 . S
C2543 H2557 0.958 . S
C2543 H2558 0.961 . S
C2543 H2559 0.960 . S
H2544 C2528 0.931 . S
H2545 C2533 0.929 . S
H2546 C2534 0.960 . S
H2547 C2534 0.962 . S
H2548 C2534 0.960 . S
H2549 C2535 0.961 . S
H2550 C2535 0.961 . S
H2551 C2535 0.961 . S
H2552 C2536 0.931 . S
H2553 C2541 0.930 . S
H2554 C2542 0.956 . S
H2555 C2542 0.961 . S
H2556 C2542 0.961 . S
H2557 C2543 0.958 . S
H2558 C2543 0.961 . S
H2559 C2543 0.960 . S
C2560 C2561 1.391 . S
C2560 C2562 1.394 . S
C2560 H2576 0.931 . S
C2561 C2560 1.391 . S
C2561 C2565 1.376 . S
C2562 C2560 1.394 . S
C2562 C2563 1.369 . S
C2562 C2566 1.531 . S
C2563 C2562 1.369 . S
C2563 C2564 1.410 . S
C2563 C2571 1.503 . S
C2564 C2563 1.410 . S
C2564 C2565 1.392 . S
C2564 C2567 1.511 . S
C2565 C2561 1.376 . S
C2565 C2564 1.392 . S
C2565 H2577 0.929 . S
C2566 C2562 1.531 . S
C2566 H2578 0.960 . S
C2566 H2579 0.962 . S
C2566 H2580 0.960 . S
C2567 C2564 1.511 . S
C2567 H2581 0.961 . S
C2567 H2582 0.961 . S
C2567 H2583 0.961 . S
C2568 C2569 1.370 . S
C2568 C2570 1.363 . S
C2568 H2584 0.931 . S
C2569 C2568 1.370 . S
C2569 C2573 1.408 . S
C2570 C2568 1.363 . S
C2570 C2571 1.370 . S
C2570 C2574 1.524 . S
C2571 C2563 1.503 . S
C2571 C2570 1.370 . S
C2571 C2572 1.403 . S
C2572 C2571 1.403 . S
C2572 C2573 1.404 . S
C2572 C2575 1.539 . S
C2573 C2569 1.408 . S
C2573 C2572 1.404 . S
C2573 H2585 0.930 . S
C2574 C2570 1.524 . S
C2574 H2586 0.956 . S
C2574 H2587 0.961 . S
C2574 H2588 0.961 . S
C2575 C2572 1.539 . S
C2575 H2589 0.958 . S
C2575 H2590 0.961 . S
C2575 H2591 0.960 . S
H2576 C2560 0.931 . S
H2577 C2565 0.929 . S
H2578 C2566 0.960 . S
H2579 C2566 0.962 . S
H2580 C2566 0.960 . S
H2581 C2567 0.961 . S
H2582 C2567 0.961 . S
H2583 C2567 0.961 . S
H2584 C2568 0.931 . S
H2585 C2573 0.930 . S
H2586 C2574 0.956 . S
H2587 C2574 0.961 . S
H2588 C2574 0.961 . S
H2589 C2575 0.958 . S
H2590 C2575 0.961 . S
H2591 C2575 0.960 . S
C2592 C2593 1.391 . S
C2592 C2594 1.394 . S
C2592 H2608 0.931 . S
C2593 C2592 1.391 . S
C2593 C2597 1.376 . S
C2594 C2592 1.394 . S
C2594 C2595 1.369 . S
C2594 C2598 1.531 . S
C2595 C2594 1.369 . S
C2595 C2596 1.410 . S
C2595 C2603 1.503 . S
C2596 C2595 1.410 . S
C2596 C2597 1.392 . S
C2596 C2599 1.511 . S
C2597 C2593 1.376 . S
C2597 C2596 1.392 . S
C2597 H2609 0.929 . S
C2598 C2594 1.531 . S
C2598 H2610 0.960 . S
C2598 H2611 0.962 . S
C2598 H2612 0.960 . S
C2599 C2596 1.511 . S
C2599 H2613 0.961 . S
C2599 H2614 0.961 . S
C2599 H2615 0.961 . S
C2600 C2601 1.370 . S
C2600 C2602 1.363 . S
C2600 H2616 0.931 . S
C2601 C2600 1.370 . S
C2601 C2605 1.408 . S
C2602 C2600 1.363 . S
C2602 C2603 1.370 . S
C2602 C2606 1.524 . S
C2603 C2595 1.503 . S
C2603 C2602 1.370 . S
C2603 C2604 1.403 . S
C2604 C2603 1.403 . S
C2604 C2605 1.404 . S
C2604 C2607 1.539 . S
C2605 C2601 1.408 . S
C2605 C2604 1.404 . S
C2605 H2617 0.930 . S
C2606 C2602 1.524 . S
C2606 H2618 0.956 . S
C2606 H2619 0.961 . S
C2606 H2620 0.961 . S
C2607 C2604 1.539 . S
C2607 H2621 0.958 . S
C2607 H2622 0.961 . S
C2607 H2623 0.960 . S
H2608 C2592 0.931 . S
H2609 C2597 0.929 . S
H2610 C2598 0.960 . S
H2611 C2598 0.962 . S
H2612 C2598 0.960 . S
H2613 C2599 0.961 . S
H2614 C2599 0.961 . S
H2615 C2599 0.961 . S
H2616 C2600 0.931 . S
H2617 C2605 0.930 . S
H2618 C2606 0.956 . S
H2619 C2606 0.961 . S
H2620 C2606 0.961 . S
H2621 C2607 0.958 . S
H2622 C2607 0.961 . S
H2623 C2607 0.960 . S
C2624 C2625 1.391 . S
C2624 C2626 1.394 . S
C2624 H2640 0.931 . S
C2625 C2624 1.391 . S
C2625 C2629 1.376 . S
C2626 C2624 1.394 . S
C2626 C2627 1.369 . S
C2626 C2630 1.531 . S
C2627 C2626 1.369 . S
C2627 C2628 1.410 . S
C2627 C2635 1.503 . S
C2628 C2627 1.410 . S
C2628 C2629 1.392 . S
C2628 C2631 1.511 . S
C2629 C2625 1.376 . S
C2629 C2628 1.392 . S
C2629 H2641 0.929 . S
C2630 C2626 1.531 . S
C2630 H2642 0.960 . S
C2630 H2643 0.962 . S
C2630 H2644 0.960 . S
C2631 C2628 1.511 . S
C2631 H2645 0.961 . S
C2631 H2646 0.961 . S
C2631 H2647 0.961 . S
C2632 C2633 1.370 . S
C2632 C2634 1.363 . S
C2632 H2648 0.931 . S
C2633 C2632 1.370 . S
C2633 C2637 1.408 . S
C2634 C2632 1.363 . S
C2634 C2635 1.370 . S
C2634 C2638 1.524 . S
C2635 C2627 1.503 . S
C2635 C2634 1.370 . S
C2635 C2636 1.403 . S
C2636 C2635 1.403 . S
C2636 C2637 1.404 . S
C2636 C2639 1.539 . S
C2637 C2633 1.408 . S
C2637 C2636 1.404 . S
C2637 H2649 0.930 . S
C2638 C2634 1.524 . S
C2638 H2650 0.956 . S
C2638 H2651 0.961 . S
C2638 H2652 0.961 . S
C2639 C2636 1.539 . S
C2639 H2653 0.958 . S
C2639 H2654 0.961 . S
C2639 H2655 0.960 . S
H2640 C2624 0.931 . S
H2641 C2629 0.929 . S
H2642 C2630 0.960 . S
H2643 C2630 0.962 . S
H2644 C2630 0.960 . S
H2645 C2631 0.961 . S
H2646 C2631 0.961 . S
H2647 C2631 0.961 . S
H2648 C2632 0.931 . S
H2649 C2637 0.930 . S
H2650 C2638 0.956 . S
H2651 C2638 0.961 . S
H2652 C2638 0.961 . S
H2653 C2639 0.958 . S
H2654 C2639 0.961 . S
H2655 C2639 0.960 . S
C2656 C2657 1.391 . S
C2656 C2658 1.394 . S
C2656 H2672 0.931 . S
C2657 C2656 1.391 . S
C2657 C2661 1.376 . S
C2658 C2656 1.394 . S
C2658 C2659 1.369 . S
C2658 C2662 1.531 . S
C2659 C2658 1.369 . S
C2659 C2660 1.410 . S
C2659 C2667 1.503 . S
C2660 C2659 1.410 . S
C2660 C2661 1.392 . S
C2660 C2663 1.511 . S
C2661 C2657 1.376 . S
C2661 C2660 1.392 . S
C2661 H2673 0.929 . S
C2662 C2658 1.531 . S
C2662 H2674 0.960 . S
C2662 H2675 0.962 . S
C2662 H2676 0.960 . S
C2663 C2660 1.511 . S
C2663 H2677 0.961 . S
C2663 H2678 0.961 . S
C2663 H2679 0.961 . S
C2664 C2665 1.370 . S
C2664 C2666 1.363 . S
C2664 H2680 0.931 . S
C2665 C2664 1.370 . S
C2665 C2669 1.408 . S
C2666 C2664 1.363 . S
C2666 C2667 1.370 . S
C2666 C2670 1.524 . S
C2667 C2659 1.503 . S
C2667 C2666 1.370 . S
C2667 C2668 1.403 . S
C2668 C2667 1.403 . S
C2668 C2669 1.404 . S
C2668 C2671 1.539 . S
C2669 C2665 1.408 . S
C2669 C2668 1.404 . S
C2669 H2681 0.930 . S
C2670 C2666 1.524 . S
C2670 H2682 0.956 . S
C2670 H2683 0.961 . S
C2670 H2684 0.961 . S
C2671 C2668 1.539 . S
C2671 H2685 0.958 . S
C2671 H2686 0.961 . S
C2671 H2687 0.960 . S
H2672 C2656 0.931 . S
H2673 C2661 0.929 . S
H2674 C2662 0.960 . S
H2675 C2662 0.962 . S
H2676 C2662 0.960 . S
H2677 C2663 0.961 . S
H2678 C2663 0.961 . S
H2679 C2663 0.961 . S
H2680 C2664 0.931 . S
H2681 C2669 0.930 . S
H2682 C2670 0.956 . S
H2683 C2670 0.961 . S
H2684 C2670 0.961 . S
H2685 C2671 0.958 . S
H2686 C2671 0.961 . S
H2687 C2671 0.960 . S
C2688 C2689 1.391 . S
C2688 C2690 1.394 . S
C2688 H2704 0.931 . S
C2689 C2688 1.391 . S
C2689 C2693 1.376 . S
C2690 C2688 1.394 . S
C2690 C2691 1.369 . S
C2690 C2694 1.531 . S
C2691 C2690 1.369 . S
C2691 C2692 1.410 . S
C2691 C2699 1.503 . S
C2692 C2691 1.410 . S
C2692 C2693 1.392 . S
C2692 C2695 1.511 . S
C2693 C2689 1.376 . S
C2693 C2692 1.392 . S
C2693 H2705 0.929 . S
C2694 C2690 1.531 . S
C2694 H2706 0.960 . S
C2694 H2707 0.962 . S
C2694 H2708 0.960 . S
C2695 C2692 1.511 . S
C2695 H2709 0.961 . S
C2695 H2710 0.961 . S
C2695 H2711 0.961 . S
C2696 C2697 1.370 . S
C2696 C2698 1.363 . S
C2696 H2712 0.931 . S
C2697 C2696 1.370 . S
C2697 C2701 1.408 . S
C2698 C2696 1.363 . S
C2698 C2699 1.370 . S
C2698 C2702 1.524 . S
C2699 C2691 1.503 . S
C2699 C2698 1.370 . S
C2699 C2700 1.403 . S
C2700 C2699 1.403 . S
C2700 C2701 1.404 . S
C2700 C2703 1.539 . S
C2701 C2697 1.408 . S
C2701 C2700 1.404 . S
C2701 H2713 0.930 . S
C2702 C2698 1.524 . S
C2702 H2714 0.956 . S
C2702 H2715 0.961 . S
C2702 H2716 0.961 . S
C2703 C2700 1.539 . S
C2703 H2717 0.958 . S
C2703 H2718 0.961 . S
C2703 H2719 0.960 . S
H2704 C2688 0.931 . S
H2705 C2693 0.929 . S
H2706 C2694 0.960 . S
H2707 C2694 0.962 . S
H2708 C2694 0.960 . S
H2709 C2695 0.961 . S
H2710 C2695 0.961 . S
H2711 C2695 0.961 . S
H2712 C2696 0.931 . S
H2713 C2701 0.930 . S
H2714 C2702 0.956 . S
H2715 C2702 0.961 . S
H2716 C2702 0.961 . S
H2717 C2703 0.958 . S
H2718 C2703 0.961 . S
H2719 C2703 0.960 . S
C2720 C2721 1.391 . S
C2720 C2722 1.394 . S
C2720 H2736 0.931 . S
C2721 C2720 1.391 . S
C2721 C2725 1.376 . S
C2722 C2720 1.394 . S
C2722 C2723 1.369 . S
C2722 C2726 1.531 . S
C2723 C2722 1.369 . S
C2723 C2724 1.410 . S
C2723 C2731 1.503 . S
C2724 C2723 1.410 . S
C2724 C2725 1.392 . S
C2724 C2727 1.511 . S
C2725 C2721 1.376 . S
C2725 C2724 1.392 . S
C2725 H2737 0.929 . S
C2726 C2722 1.531 . S
C2726 H2738 0.960 . S
C2726 H2739 0.962 . S
C2726 H2740 0.960 . S
C2727 C2724 1.511 . S
C2727 H2741 0.961 . S
C2727 H2742 0.961 . S
C2727 H2743 0.961 . S
C2728 C2729 1.370 . S
C2728 C2730 1.363 . S
C2728 H2744 0.931 . S
C2729 C2728 1.370 . S
C2729 C2733 1.408 . S
C2730 C2728 1.363 . S
C2730 C2731 1.370 . S
C2730 C2734 1.524 . S
C2731 C2723 1.503 . S
C2731 C2730 1.370 . S
C2731 C2732 1.403 . S
C2732 C2731 1.403 . S
C2732 C2733 1.404 . S
C2732 C2735 1.539 . S
C2733 C2729 1.408 . S
C2733 C2732 1.404 . S
C2733 H2745 0.930 . S
C2734 C2730 1.524 . S
C2734 H2746 0.956 . S
C2734 H2747 0.961 . S
C2734 H2748 0.961 . S
C2735 C2732 1.539 . S
C2735 H2749 0.958 . S
C2735 H2750 0.961 . S
C2735 H2751 0.960 . S
H2736 C2720 0.931 . S
H2737 C2725 0.929 . S
H2738 C2726 0.960 . S
H2739 C2726 0.962 . S
H2740 C2726 0.960 . S
H2741 C2727 0.961 . S
H2742 C2727 0.961 . S
H2743 C2727 0.961 . S
H2744 C2728 0.931 . S
H2745 C2733 0.930 . S
H2746 C2734 0.956 . S
H2747 C2734 0.961 . S
H2748 C2734 0.961 . S
H2749 C2735 0.958 . S
H2750 C2735 0.961 . S
H2751 C2735 0.960 . S
C2752 C2753 1.391 . S
C2752 C2754 1.394 . S
C2752 H2768 0.931 . S
C2753 C2752 1.391 . S
C2753 C2757 1.376 . S
C2754 C2752 1.394 . S
C2754 C2755 1.369 . S
C2754 C2758 1.531 . S
C2755 C2754 1.369 . S
C2755 C2756 1.410 . S
C2755 C2763 1.503 . S
C2756 C2755 1.410 . S
C2756 C2757 1.392 . S
C2756 C2759 1.511 . S
C2757 C2753 1.376 . S
C2757 C2756 1.392 . S
C2757 H2769 0.929 . S
C2758 C2754 1.531 . S
C2758 H2770 0.960 . S
C2758 H2771 0.962 . S
C2758 H2772 0.960 . S
C2759 C2756 1.511 . S
C2759 H2773 0.961 . S
C2759 H2774 0.961 . S
C2759 H2775 0.961 . S
C2760 C2761 1.370 . S
C2760 C2762 1.363 . S
C2760 H2776 0.931 . S
C2761 C2760 1.370 . S
C2761 C2765 1.408 . S
C2762 C2760 1.363 . S
C2762 C2763 1.370 . S
C2762 C2766 1.524 . S
C2763 C2755 1.503 . S
C2763 C2762 1.370 . S
C2763 C2764 1.403 . S
C2764 C2763 1.403 . S
C2764 C2765 1.404 . S
C2764 C2767 1.539 . S
C2765 C2761 1.408 . S
C2765 C2764 1.404 . S
C2765 H2777 0.930 . S
C2766 C2762 1.524 . S
C2766 H2778 0.956 . S
C2766 H2779 0.961 . S
C2766 H2780 0.961 . S
C2767 C2764 1.539 . S
C2767 H2781 0.958 . S
C2767 H2782 0.961 . S
C2767 H2783 0.960 . S
H2768 C2752 0.931 . S
H2769 C2757 0.929 . S
H2770 C2758 0.960 . S
H2771 C2758 0.962 . S
H2772 C2758 0.960 . S
H2773 C2759 0.961 . S
H2774 C2759 0.961 . S
H2775 C2759 0.961 . S
H2776 C2760 0.931 . S
H2777 C2765 0.930 . S
H2778 C2766 0.956 . S
H2779 C2766 0.961 . S
H2780 C2766 0.961 . S
H2781 C2767 0.958 . S
H2782 C2767 0.961 . S
H2783 C2767 0.960 . S
C2784 C2785 1.391 . S
C2784 C2786 1.394 . S
C2784 H2800 0.931 . S
C2785 C2784 1.391 . S
C2785 C2789 1.376 . S
C2786 C2784 1.394 . S
C2786 C2787 1.369 . S
C2786 C2790 1.531 . S
C2787 C2786 1.369 . S
C2787 C2788 1.410 . S
C2787 C2795 1.503 . S
C2788 C2787 1.410 . S
C2788 C2789 1.392 . S
C2788 C2791 1.511 . S
C2789 C2785 1.376 . S
C2789 C2788 1.392 . S
C2789 H2801 0.929 . S
C2790 C2786 1.531 . S
C2790 H2802 0.960 . S
C2790 H2803 0.962 . S
C2790 H2804 0.960 . S
C2791 C2788 1.511 . S
C2791 H2805 0.961 . S
C2791 H2806 0.961 . S
C2791 H2807 0.961 . S
C2792 C2793 1.370 . S
C2792 C2794 1.363 . S
C2792 H2808 0.931 . S
C2793 C2792 1.370 . S
C2793 C2797 1.408 . S
C2794 C2792 1.363 . S
C2794 C2795 1.370 . S
C2794 C2798 1.524 . S
C2795 C2787 1.503 . S
C2795 C2794 1.370 . S
C2795 C2796 1.403 . S
C2796 C2795 1.403 . S
C2796 C2797 1.404 . S
C2796 C2799 1.539 . S
C2797 C2793 1.408 . S
C2797 C2796 1.404 . S
C2797 H2809 0.930 . S
C2798 C2794 1.524 . S
C2798 H2810 0.956 . S
C2798 H2811 0.961 . S
C2798 H2812 0.961 . S
C2799 C2796 1.539 . S
C2799 H2813 0.958 . S
C2799 H2814 0.961 . S
C2799 H2815 0.960 . S
H2800 C2784 0.931 . S
H2801 C2789 0.929 . S
H2802 C2790 0.960 . S
H2803 C2790 0.962 . S
H2804 C2790 0.960 . S
H2805 C2791 0.961 . S
H2806 C2791 0.961 . S
H2807 C2791 0.961 . S
H2808 C2792 0.931 . S
H2809 C2797 0.930 . S
H2810 C2798 0.956 . S
H2811 C2798 0.961 . S
H2812 C2798 0.961 . S
H2813 C2799 0.958 . S
H2814 C2799 0.961 . S
H2815 C2799 0.960 . S
C2816 C2817 1.391 . S
C2816 C2818 1.394 . S
C2816 H2832 0.931 . S
C2817 C2816 1.391 . S
C2817 C2821 1.376 . S
C2818 C2816 1.394 . S
C2818 C2819 1.369 . S
C2818 C2822 1.531 . S
C2819 C2818 1.369 . S
C2819 C2820 1.410 . S
C2819 C2827 1.503 . S
C2820 C2819 1.410 . S
C2820 C2821 1.392 . S
C2820 C2823 1.511 . S
C2821 C2817 1.376 . S
C2821 C2820 1.392 . S
C2821 H2833 0.929 . S
C2822 C2818 1.531 . S
C2822 H2834 0.960 . S
C2822 H2835 0.962 . S
C2822 H2836 0.960 . S
C2823 C2820 1.511 . S
C2823 H2837 0.961 . S
C2823 H2838 0.961 . S
C2823 H2839 0.961 . S
C2824 C2825 1.370 . S
C2824 C2826 1.363 . S
C2824 H2840 0.931 . S
C2825 C2824 1.370 . S
C2825 C2829 1.408 . S
C2826 C2824 1.363 . S
C2826 C2827 1.370 . S
C2826 C2830 1.524 . S
C2827 C2819 1.503 . S
C2827 C2826 1.370 . S
C2827 C2828 1.403 . S
C2828 C2827 1.403 . S
C2828 C2829 1.404 . S
C2828 C2831 1.539 . S
C2829 C2825 1.408 . S
C2829 C2828 1.404 . S
C2829 H2841 0.930 . S
C2830 C2826 1.524 . S
C2830 H2842 0.956 . S
C2830 H2843 0.961 . S
C2830 H2844 0.961 . S
C2831 C2828 1.539 . S
C2831 H2845 0.958 . S
C2831 H2846 0.961 . S
C2831 H2847 0.960 . S
H2832 C2816 0.931 . S
H2833 C2821 0.929 . S
H2834 C2822 0.960 . S
H2835 C2822 0.962 . S
H2836 C2822 0.960 . S
H2837 C2823 0.961 . S
H2838 C2823 0.961 . S
H2839 C2823 0.961 . S
H2840 C2824 0.931 . S
H2841 C2829 0.930 . S
H2842 C2830 0.956 . S
H2843 C2830 0.961 . S
H2844 C2830 0.961 . S
H2845 C2831 0.958 . S
H2846 C2831 0.961 . S
H2847 C2831 0.960 . S
C2848 C2849 1.391 . S
C2848 C2850 1.394 . S
C2848 H2864 0.931 . S
C2849 C2848 1.391 . S
C2849 C2853 1.376 . S
C2850 C2848 1.394 . S
C2850 C2851 1.369 . S
C2850 C2854 1.531 . S
C2851 C2850 1.369 . S
C2851 C2852 1.410 . S
C2851 C2859 1.503 . S
C2852 C2851 1.410 . S
C2852 C2853 1.392 . S
C2852 C2855 1.511 . S
C2853 C2849 1.376 . S
C2853 C2852 1.392 . S
C2853 H2865 0.929 . S
C2854 C2850 1.531 . S
C2854 H2866 0.960 . S
C2854 H2867 0.962 . S
C2854 H2868 0.960 . S
C2855 C2852 1.511 . S
C2855 H2869 0.961 . S
C2855 H2870 0.961 . S
C2855 H2871 0.961 . S
C2856 C2857 1.370 . S
C2856 C2858 1.363 . S
C2856 H2872 0.931 . S
C2857 C2856 1.370 . S
C2857 C2861 1.408 . S
C2858 C2856 1.363 . S
C2858 C2859 1.370 . S
C2858 C2862 1.524 . S
C2859 C2851 1.503 . S
C2859 C2858 1.370 . S
C2859 C2860 1.403 . S
C2860 C2859 1.403 . S
C2860 C2861 1.404 . S
C2860 C2863 1.539 . S
C2861 C2857 1.408 . S
C2861 C2860 1.404 . S
C2861 H2873 0.930 . S
C2862 C2858 1.524 . S
C2862 H2874 0.956 . S
C2862 H2875 0.961 . S
C2862 H2876 0.961 . S
C2863 C2860 1.539 . S
C2863 H2877 0.958 . S
C2863 H2878 0.961 . S
C2863 H2879 0.960 . S
H2864 C2848 0.931 . S
H2865 C2853 0.929 . S
H2866 C2854 0.960 . S
H2867 C2854 0.962 . S
H2868 C2854 0.960 . S
H2869 C2855 0.961 . S
H2870 C2855 0.961 . S
H2871 C2855 0.961 . S
H2872 C2856 0.931 . S
H2873 C2861 0.930 . S
H2874 C2862 0.956 . S
H2875 C2862 0.961 . S
H2876 C2862 0.961 . S
H2877 C2863 0.958 . S
H2878 C2863 0.961 . S
H2879 C2863 0.960 . S
C2880 C2881 1.391 . S
C2880 C2882 1.394 . S
C2880 H2896 0.931 . S
C2881 C2880 1.391 . S
C2881 C2885 1.376 . S
C2882 C2880 1.394 . S
C2882 C2883 1.369 . S
C2882 C2886 1.531 . S
C2883 C2882 1.369 . S
C2883 C2884 1.410 . S
C2883 C2891 1.503 . S
C2884 C2883 1.410 . S
C2884 C2885 1.392 . S
C2884 C2887 1.511 . S
C2885 C2881 1.376 . S
C2885 C2884 1.392 . S
C2885 H2897 0.929 . S
C2886 C2882 1.531 . S
C2886 H2898 0.960 . S
C2886 H2899 0.962 . S
C2886 H2900 0.960 . S
C2887 C2884 1.511 . S
C2887 H2901 0.961 . S
C2887 H2902 0.961 . S
C2887 H2903 0.961 . S
C2888 C2889 1.370 . S
C2888 C2890 1.363 . S
C2888 H2904 0.931 . S
C2889 C2888 1.370 . S
C2889 C2893 1.408 . S
C2890 C2888 1.363 . S
C2890 C2891 1.370 . S
C2890 C2894 1.524 . S
C2891 C2883 1.503 . S
C2891 C2890 1.370 . S
C2891 C2892 1.403 . S
C2892 C2891 1.403 . S
C2892 C2893 1.404 . S
C2892 C2895 1.539 . S
C2893 C2889 1.408 . S
C2893 C2892 1.404 . S
C2893 H2905 0.930 . S
C2894 C2890 1.524 . S
C2894 H2906 0.956 . S
C2894 H2907 0.961 . S
C2894 H2908 0.961 . S
C2895 C2892 1.539 . S
C2895 H2909 0.958 . S
C2895 H2910 0.961 . S
C2895 H2911 0.960 . S
H2896 C2880 0.931 . S
H2897 C2885 0.929 . S
H2898 C2886 0.960 . S
H2899 C2886 0.962 . S
H2900 C2886 0.960 . S
H2901 C2887 0.961 . S
H2902 C2887 0.961 . S
H2903 C2887 0.961 . S
H2904 C2888 0.931 . S
H2905 C2893 0.930 . S
H2906 C2894 0.956 . S
H2907 C2894 0.961 . S
H2908 C2894 0.961 . S
H2909 C2895 0.958 . S
H2910 C2895 0.961 . S
H2911 C2895 0.960 . S
C2912 C2913 1.391 . S
C2912 C2914 1.394 . S
C2912 H2928 0.931 . S
C2913 C2912 1.391 . S
C2913 C2917 1.376 . S
C2914 C2912 1.394 . S
C2914 C2915 1.369 . S
C2914 C2918 1.531 . S
C2915 C2914 1.369 . S
C2915 C2916 1.410 . S
C2915 C2923 1.503 . S
C2916 C2915 1.410 . S
C2916 C2917 1.392 . S
C2916 C2919 1.511 . S
C2917 C2913 1.376 . S
C2917 C2916 1.392 . S
C2917 H2929 0.929 . S
C2918 C2914 1.531 . S
C2918 H2930 0.960 . S
C2918 H2931 0.962 . S
C2918 H2932 0.960 . S
C2919 C2916 1.511 . S
C2919 H2933 0.961 . S
C2919 H2934 0.961 . S
C2919 H2935 0.961 . S
C2920 C2921 1.370 . S
C2920 C2922 1.363 . S
C2920 H2936 0.931 . S
C2921 C2920 1.370 . S
C2921 C2925 1.408 . S
C2922 C2920 1.363 . S
C2922 C2923 1.370 . S
C2922 C2926 1.524 . S
C2923 C2915 1.503 . S
C2923 C2922 1.370 . S
C2923 C2924 1.403 . S
C2924 C2923 1.403 . S
C2924 C2925 1.404 . S
C2924 C2927 1.539 . S
C2925 C2921 1.408 . S
C2925 C2924 1.404 . S
C2925 H2937 0.930 . S
C2926 C2922 1.524 . S
C2926 H2938 0.956 . S
C2926 H2939 0.961 . S
C2926 H2940 0.961 . S
C2927 C2924 1.539 . S
C2927 H2941 0.958 . S
C2927 H2942 0.961 . S
C2927 H2943 0.960 . S
H2928 C2912 0.931 . S
H2929 C2917 0.929 . S
H2930 C2918 0.960 . S
H2931 C2918 0.962 . S
H2932 C2918 0.960 . S
H2933 C2919 0.961 . S
H2934 C2919 0.961 . S
H2935 C2919 0.961 . S
H2936 C2920 0.931 . S
H2937 C2925 0.930 . S
H2938 C2926 0.956 . S
H2939 C2926 0.961 . S
H2940 C2926 0.961 . S
H2941 C2927 0.958 . S
H2942 C2927 0.961 . S
H2943 C2927 0.960 . S
C2944 C2945 1.391 . S
C2944 C2946 1.394 . S
C2944 H2960 0.931 . S
C2945 C2944 1.391 . S
C2945 C2949 1.376 . S
C2946 C2944 1.394 . S
C2946 C2947 1.369 . S
C2946 C2950 1.531 . S
C2947 C2946 1.369 . S
C2947 C2948 1.410 . S
C2947 C2955 1.503 . S
C2948 C2947 1.410 . S
C2948 C2949 1.392 . S
C2948 C2951 1.511 . S
C2949 C2945 1.376 . S
C2949 C2948 1.392 . S
C2949 H2961 0.929 . S
C2950 C2946 1.531 . S
C2950 H2962 0.960 . S
C2950 H2963 0.962 . S
C2950 H2964 0.960 . S
C2951 C2948 1.511 . S
C2951 H2965 0.961 . S
C2951 H2966 0.961 . S
C2951 H2967 0.961 . S
C2952 C2953 1.370 . S
C2952 C2954 1.363 . S
C2952 H2968 0.931 . S
C2953 C2952 1.370 . S
C2953 C2957 1.408 . S
C2954 C2952 1.363 . S
C2954 C2955 1.370 . S
C2954 C2958 1.524 . S
C2955 C2947 1.503 . S
C2955 C2954 1.370 . S
C2955 C2956 1.403 . S
C2956 C2955 1.403 . S
C2956 C2957 1.404 . S
C2956 C2959 1.539 . S
C2957 C2953 1.408 . S
C2957 C2956 1.404 . S
C2957 H2969 0.930 . S
C2958 C2954 1.524 . S
C2958 H2970 0.956 . S
C2958 H2971 0.961 . S
C2958 H2972 0.961 . S
C2959 C2956 1.539 . S
C2959 H2973 0.958 . S
C2959 H2974 0.961 . S
C2959 H2975 0.960 . S
H2960 C2944 0.931 . S
H2961 C2949 0.929 . S
H2962 C2950 0.960 . S
H2963 C2950 0.962 . S
H2964 C2950 0.960 . S
H2965 C2951 0.961 . S
H2966 C2951 0.961 . S
H2967 C2951 0.961 . S
H2968 C2952 0.931 . S
H2969 C2957 0.930 . S
H2970 C2958 0.956 . S
H2971 C2958 0.961 . S
H2972 C2958 0.961 . S
H2973 C2959 0.958 . S
H2974 C2959 0.961 . S
H2975 C2959 0.960 . S
C2976 C2977 1.391 . S
C2976 C2978 1.394 . S
C2976 H2992 0.931 . S
C2977 C2976 1.391 . S
C2977 C2981 1.376 . S
C2978 C2976 1.394 . S
C2978 C2979 1.369 . S
C2978 C2982 1.531 . S
C2979 C2978 1.369 . S
C2979 C2980 1.410 . S
C2979 C2987 1.503 . S
C2980 C2979 1.410 . S
C2980 C2981 1.392 . S
C2980 C2983 1.511 . S
C2981 C2977 1.376 . S
C2981 C2980 1.392 . S
C2981 H2993 0.929 . S
C2982 C2978 1.531 . S
C2982 H2994 0.960 . S
C2982 H2995 0.962 . S
C2982 H2996 0.960 . S
C2983 C2980 1.511 . S
C2983 H2997 0.961 . S
C2983 H2998 0.961 . S
C2983 H2999 0.961 . S
C2984 C2985 1.370 . S
C2984 C2986 1.363 . S
C2984 H3000 0.931 . S
C2985 C2984 1.370 . S
C2985 C2989 1.408 . S
C2986 C2984 1.363 . S
C2986 C2987 1.370 . S
C2986 C2990 1.524 . S
C2987 C2979 1.503 . S
C2987 C2986 1.370 . S
C2987 C2988 1.403 . S
C2988 C2987 1.403 . S
C2988 C2989 1.404 . S
C2988 C2991 1.539 . S
C2989 C2985 1.408 . S
C2989 C2988 1.404 . S
C2989 H3001 0.930 . S
C2990 C2986 1.524 . S
C2990 H3002 0.956 . S
C2990 H3003 0.961 . S
C2990 H3004 0.961 . S
C2991 C2988 1.539 . S
C2991 H3005 0.958 . S
C2991 H3006 0.961 . S
C2991 H3007 0.960 . S
H2992 C2976 0.931 . S
H2993 C2981 0.929 . S
H2994 C2982 0.960 . S
H2995 C2982 0.962 . S
H2996 C2982 0.960 . S
H2997 C2983 0.961 . S
H2998 C2983 0.961 . S
H2999 C2983 0.961 . S
H3000 C2984 0.931 . S
H3001 C2989 0.930 . S
H3002 C2990 0.956 . S
H3003 C2990 0.961 . S
H3004 C2990 0.961 . S
H3005 C2991 0.958 . S
H3006 C2991 0.961 . S
H3007 C2991 0.960 . S
C3008 C3009 1.391 . S
C3008 C3010 1.394 . S
C3008 H3024 0.931 . S
C3009 C3008 1.391 . S
C3009 C3013 1.376 . S
C3010 C3008 1.394 . S
C3010 C3011 1.369 . S
C3010 C3014 1.531 . S
C3011 C3010 1.369 . S
C3011 C3012 1.410 . S
C3011 C3019 1.503 . S
C3012 C3011 1.410 . S
C3012 C3013 1.392 . S
C3012 C3015 1.511 . S
C3013 C3009 1.376 . S
C3013 C3012 1.392 . S
C3013 H3025 0.929 . S
C3014 C3010 1.531 . S
C3014 H3026 0.960 . S
C3014 H3027 0.962 . S
C3014 H3028 0.960 . S
C3015 C3012 1.511 . S
C3015 H3029 0.961 . S
C3015 H3030 0.961 . S
C3015 H3031 0.961 . S
C3016 C3017 1.370 . S
C3016 C3018 1.363 . S
C3016 H3032 0.931 . S
C3017 C3016 1.370 . S
C3017 C3021 1.408 . S
C3018 C3016 1.363 . S
C3018 C3019 1.370 . S
C3018 C3022 1.524 . S
C3019 C3011 1.503 . S
C3019 C3018 1.370 . S
C3019 C3020 1.403 . S
C3020 C3019 1.403 . S
C3020 C3021 1.404 . S
C3020 C3023 1.539 . S
C3021 C3017 1.408 . S
C3021 C3020 1.404 . S
C3021 H3033 0.930 . S
C3022 C3018 1.524 . S
C3022 H3034 0.956 . S
C3022 H3035 0.961 . S
C3022 H3036 0.961 . S
C3023 C3020 1.539 . S
C3023 H3037 0.958 . S
C3023 H3038 0.961 . S
C3023 H3039 0.960 . S
H3024 C3008 0.931 . S
H3025 C3013 0.929 . S
H3026 C3014 0.960 . S
H3027 C3014 0.962 . S
H3028 C3014 0.960 . S
H3029 C3015 0.961 . S
H3030 C3015 0.961 . S
H3031 C3015 0.961 . S
H3032 C3016 0.931 . S
H3033 C3021 0.930 . S
H3034 C3022 0.956 . S
H3035 C3022 0.961 . S
H3036 C3022 0.961 . S
H3037 C3023 0.958 . S
H3038 C3023 0.961 . S
H3039 C3023 0.960 . S
C3040 C3041 1.391 . S
C3040 C3042 1.394 . S
C3040 H3056 0.931 . S
C3041 C3040 1.391 . S
C3041 C3045 1.376 . S
C3042 C3040 1.394 . S
C3042 C3043 1.369 . S
C3042 C3046 1.531 . S
C3043 C3042 1.369 . S
C3043 C3044 1.410 . S
C3043 C3051 1.503 . S
C3044 C3043 1.410 . S
C3044 C3045 1.392 . S
C3044 C3047 1.511 . S
C3045 C3041 1.376 . S
C3045 C3044 1.392 . S
C3045 H3057 0.929 . S
C3046 C3042 1.531 . S
C3046 H3058 0.960 . S
C3046 H3059 0.962 . S
C3046 H3060 0.960 . S
C3047 C3044 1.511 . S
C3047 H3061 0.961 . S
C3047 H3062 0.961 . S
C3047 H3063 0.961 . S
C3048 C3049 1.370 . S
C3048 C3050 1.363 . S
C3048 H3064 0.931 . S
C3049 C3048 1.370 . S
C3049 C3053 1.408 . S
C3050 C3048 1.363 . S
C3050 C3051 1.370 . S
C3050 C3054 1.524 . S
C3051 C3043 1.503 . S
C3051 C3050 1.370 . S
C3051 C3052 1.403 . S
C3052 C3051 1.403 . S
C3052 C3053 1.404 . S
C3052 C3055 1.539 . S
C3053 C3049 1.408 . S
C3053 C3052 1.404 . S
C3053 H3065 0.930 . S
C3054 C3050 1.524 . S
C3054 H3066 0.956 . S
C3054 H3067 0.961 . S
C3054 H3068 0.961 . S
C3055 C3052 1.539 . S
C3055 H3069 0.958 . S
C3055 H3070 0.961 . S
C3055 H3071 0.960 . S
H3056 C3040 0.931 . S
H3057 C3045 0.929 . S
H3058 C3046 0.960 . S
H3059 C3046 0.962 . S
H3060 C3046 0.960 . S
H3061 C3047 0.961 . S
H3062 C3047 0.961 . S
H3063 C3047 0.961 . S
H3064 C3048 0.931 . S
H3065 C3053 0.930 . S
H3066 C3054 0.956 . S
H3067 C3054 0.961 . S
H3068 C3054 0.961 . S
H3069 C3055 0.958 . S
H3070 C3055 0.961 . S
H3071 C3055 0.960 . S
C3072 C3073 1.391 . S
C3072 C3074 1.394 . S
C3072 H3088 0.931 . S
C3073 C3072 1.391 . S
C3073 C3077 1.376 . S
C3074 C3072 1.394 . S
C3074 C3075 1.369 . S
C3074 C3078 1.531 . S
C3075 C3074 1.369 . S
C3075 C3076 1.410 . S
C3075 C3083 1.503 . S
C3076 C3075 1.410 . S
C3076 C3077 1.392 . S
C3076 C3079 1.511 . S
C3077 C3073 1.376 . S
C3077 C3076 1.392 . S
C3077 H3089 0.929 . S
C3078 C3074 1.531 . S
C3078 H3090 0.960 . S
C3078 H3091 0.962 . S
C3078 H3092 0.960 . S
C3079 C3076 1.511 . S
C3079 H3093 0.961 . S
C3079 H3094 0.961 . S
C3079 H3095 0.961 . S
C3080 C3081 1.370 . S
C3080 C3082 1.363 . S
C3080 H3096 0.931 . S
C3081 C3080 1.370 . S
C3081 C3085 1.408 . S
C3082 C3080 1.363 . S
C3082 C3083 1.370 . S
C3082 C3086 1.524 . S
C3083 C3075 1.503 . S
C3083 C3082 1.370 . S
C3083 C3084 1.403 . S
C3084 C3083 1.403 . S
C3084 C3085 1.404 . S
C3084 C3087 1.539 . S
C3085 C3081 1.408 . S
C3085 C3084 1.404 . S
C3085 H3097 0.930 . S
C3086 C3082 1.524 . S
C3086 H3098 0.956 . S
C3086 H3099 0.961 . S
C3086 H3100 0.961 . S
C3087 C3084 1.539 . S
C3087 H3101 0.958 . S
C3087 H3102 0.961 . S
C3087 H3103 0.960 . S
H3088 C3072 0.931 . S
H3089 C3077 0.929 . S
H3090 C3078 0.960 . S
H3091 C3078 0.962 . S
H3092 C3078 0.960 . S
H3093 C3079 0.961 . S
H3094 C3079 0.961 . S
H3095 C3079 0.961 . S
H3096 C3080 0.931 . S
H3097 C3085 0.930 . S
H3098 C3086 0.956 . S
H3099 C3086 0.961 . S
H3100 C3086 0.961 . S
H3101 C3087 0.958 . S
H3102 C3087 0.961 . S
H3103 C3087 0.960 . S
C3104 C3105 1.391 . S
C3104 C3106 1.394 . S
C3104 H3120 0.931 . S
C3105 C3104 1.391 . S
C3105 C3109 1.376 . S
C3106 C3104 1.394 . S
C3106 C3107 1.369 . S
C3106 C3110 1.531 . S
C3107 C3106 1.369 . S
C3107 C3108 1.410 . S
C3107 C3115 1.503 . S
C3108 C3107 1.410 . S
C3108 C3109 1.392 . S
C3108 C3111 1.511 . S
C3109 C3105 1.376 . S
C3109 C3108 1.392 . S
C3109 H3121 0.929 . S
C3110 C3106 1.531 . S
C3110 H3122 0.960 . S
C3110 H3123 0.962 . S
C3110 H3124 0.960 . S
C3111 C3108 1.511 . S
C3111 H3125 0.961 . S
C3111 H3126 0.961 . S
C3111 H3127 0.961 . S
C3112 C3113 1.370 . S
C3112 C3114 1.363 . S
C3112 H3128 0.931 . S
C3113 C3112 1.370 . S
C3113 C3117 1.408 . S
C3114 C3112 1.363 . S
C3114 C3115 1.370 . S
C3114 C3118 1.524 . S
C3115 C3107 1.503 . S
C3115 C3114 1.370 . S
C3115 C3116 1.403 . S
C3116 C3115 1.403 . S
C3116 C3117 1.404 . S
C3116 C3119 1.539 . S
C3117 C3113 1.408 . S
C3117 C3116 1.404 . S
C3117 H3129 0.930 . S
C3118 C3114 1.524 . S
C3118 H3130 0.956 . S
C3118 H3131 0.961 . S
C3118 H3132 0.961 . S
C3119 C3116 1.539 . S
C3119 H3133 0.958 . S
C3119 H3134 0.961 . S
C3119 H3135 0.960 . S
H3120 C3104 0.931 . S
H3121 C3109 0.929 . S
H3122 C3110 0.960 . S
H3123 C3110 0.962 . S
H3124 C3110 0.960 . S
H3125 C3111 0.961 . S
H3126 C3111 0.961 . S
H3127 C3111 0.961 . S
H3128 C3112 0.931 . S
H3129 C3117 0.930 . S
H3130 C3118 0.956 . S
H3131 C3118 0.961 . S
H3132 C3118 0.961 . S
H3133 C3119 0.958 . S
H3134 C3119 0.961 . S
H3135 C3119 0.960 . S
C3136 C3137 1.391 . S
C3136 C3138 1.394 . S
C3136 H3152 0.931 . S
C3137 C3136 1.391 . S
C3137 C3141 1.376 . S
C3138 C3136 1.394 . S
C3138 C3139 1.369 . S
C3138 C3142 1.531 . S
C3139 C3138 1.369 . S
C3139 C3140 1.410 . S
C3139 C3147 1.503 . S
C3140 C3139 1.410 . S
C3140 C3141 1.392 . S
C3140 C3143 1.511 . S
C3141 C3137 1.376 . S
C3141 C3140 1.392 . S
C3141 H3153 0.929 . S
C3142 C3138 1.531 . S
C3142 H3154 0.960 . S
C3142 H3155 0.962 . S
C3142 H3156 0.960 . S
C3143 C3140 1.511 . S
C3143 H3157 0.961 . S
C3143 H3158 0.961 . S
C3143 H3159 0.961 . S
C3144 C3145 1.370 . S
C3144 C3146 1.363 . S
C3144 H3160 0.931 . S
C3145 C3144 1.370 . S
C3145 C3149 1.408 . S
C3146 C3144 1.363 . S
C3146 C3147 1.370 . S
C3146 C3150 1.524 . S
C3147 C3139 1.503 . S
C3147 C3146 1.370 . S
C3147 C3148 1.403 . S
C3148 C3147 1.403 . S
C3148 C3149 1.404 . S
C3148 C3151 1.539 . S
C3149 C3145 1.408 . S
C3149 C3148 1.404 . S
C3149 H3161 0.930 . S
C3150 C3146 1.524 . S
C3150 H3162 0.956 . S
C3150 H3163 0.961 . S
C3150 H3164 0.961 . S
C3151 C3148 1.539 . S
C3151 H3165 0.958 . S
C3151 H3166 0.961 . S
C3151 H3167 0.960 . S
H3152 C3136 0.931 . S
H3153 C3141 0.929 . S
H3154 C3142 0.960 . S
H3155 C3142 0.962 . S
H3156 C3142 0.960 . S
H3157 C3143 0.961 . S
H3158 C3143 0.961 . S
H3159 C3143 0.961 . S
H3160 C3144 0.931 . S
H3161 C3149 0.930 . S
H3162 C3150 0.956 . S
H3163 C3150 0.961 . S
H3164 C3150 0.961 . S
H3165 C3151 0.958 . S
H3166 C3151 0.961 . S
H3167 C3151 0.960 . S
C3168 C3169 1.391 . S
C3168 C3170 1.394 . S
C3168 H3184 0.931 . S
C3169 C3168 1.391 . S
C3169 C3173 1.376 . S
C3170 C3168 1.394 . S
C3170 C3171 1.369 . S
C3170 C3174 1.531 . S
C3171 C3170 1.369 . S
C3171 C3172 1.410 . S
C3171 C3179 1.503 . S
C3172 C3171 1.410 . S
C3172 C3173 1.392 . S
C3172 C3175 1.511 . S
C3173 C3169 1.376 . S
C3173 C3172 1.392 . S
C3173 H3185 0.929 . S
C3174 C3170 1.531 . S
C3174 H3186 0.960 . S
C3174 H3187 0.962 . S
C3174 H3188 0.960 . S
C3175 C3172 1.511 . S
C3175 H3189 0.961 . S
C3175 H3190 0.961 . S
C3175 H3191 0.961 . S
C3176 C3177 1.370 . S
C3176 C3178 1.363 . S
C3176 H3192 0.931 . S
C3177 C3176 1.370 . S
C3177 C3181 1.408 . S
C3178 C3176 1.363 . S
C3178 C3179 1.370 . S
C3178 C3182 1.524 . S
C3179 C3171 1.503 . S
C3179 C3178 1.370 . S
C3179 C3180 1.403 . S
C3180 C3179 1.403 . S
C3180 C3181 1.404 . S
C3180 C3183 1.539 . S
C3181 C3177 1.408 . S
C3181 C3180 1.404 . S
C3181 H3193 0.930 . S
C3182 C3178 1.524 . S
C3182 H3194 0.956 . S
C3182 H3195 0.961 . S
C3182 H3196 0.961 . S
C3183 C3180 1.539 . S
C3183 H3197 0.958 . S
C3183 H3198 0.961 . S
C3183 H3199 0.960 . S
H3184 C3168 0.931 . S
H3185 C3173 0.929 . S
H3186 C3174 0.960 . S
H3187 C3174 0.962 . S
H3188 C3174 0.960 . S
H3189 C3175 0.961 . S
H3190 C3175 0.961 . S
H3191 C3175 0.961 . S
H3192 C3176 0.931 . S
H3193 C3181 0.930 . S
H3194 C3182 0.956 . S
H3195 C3182 0.961 . S
H3196 C3182 0.961 . S
H3197 C3183 0.958 . S
H3198 C3183 0.961 . S
H3199 C3183 0.960 . S
C3200 C3201 1.391 . S
C3200 C3202 1.394 . S
C3200 H3216 0.931 . S
C3201 C3200 1.391 . S
C3201 C3205 1.376 . S
C3202 C3200 1.394 . S
C3202 C3203 1.369 . S
C3202 C3206 1.531 . S
C3203 C3202 1.369 . S
C3203 C3204 1.410 . S
C3203 C3211 1.503 . S
C3204 C3203 1.410 . S
C3204 C3205 1.392 . S
C3204 C3207 1.511 . S
C3205 C3201 1.376 . S
C3205 C3204 1.392 . S
C3205 H3217 0.929 . S
C3206 C3202 1.531 . S
C3206 H3218 0.960 . S
C3206 H3219 0.962 . S
C3206 H3220 0.960 . S
C3207 C3204 1.511 . S
C3207 H3221 0.961 . S
C3207 H3222 0.961 . S
C3207 H3223 0.961 . S
C3208 C3209 1.370 . S
C3208 C3210 1.363 . S
C3208 H3224 0.931 . S
C3209 C3208 1.370 . S
C3209 C3213 1.408 . S
C3210 C3208 1.363 . S
C3210 C3211 1.370 . S
C3210 C3214 1.524 . S
C3211 C3203 1.503 . S
C3211 C3210 1.370 . S
C3211 C3212 1.403 . S
C3212 C3211 1.403 . S
C3212 C3213 1.404 . S
C3212 C3215 1.539 . S
C3213 C3209 1.408 . S
C3213 C3212 1.404 . S
C3213 H3225 0.930 . S
C3214 C3210 1.524 . S
C3214 H3226 0.956 . S
C3214 H3227 0.961 . S
C3214 H3228 0.961 . S
C3215 C3212 1.539 . S
C3215 H3229 0.958 . S
C3215 H3230 0.961 . S
C3215 H3231 0.960 . S
H3216 C3200 0.931 . S
H3217 C3205 0.929 . S
H3218 C3206 0.960 . S
H3219 C3206 0.962 . S
H3220 C3206 0.960 . S
H3221 C3207 0.961 . S
H3222 C3207 0.961 . S
H3223 C3207 0.961 . S
H3224 C3208 0.931 . S
H3225 C3213 0.930 . S
H3226 C3214 0.956 . S
H3227 C3214 0.961 . S
H3228 C3214 0.961 . S
H3229 C3215 0.958 . S
H3230 C3215 0.961 . S
H3231 C3215 0.960 . S
C3232 C3233 1.391 . S
C3232 C3234 1.394 . S
C3232 H3248 0.931 . S
C3233 C3232 1.391 . S
C3233 C3237 1.376 . S
C3234 C3232 1.394 . S
C3234 C3235 1.369 . S
C3234 C3238 1.531 . S
C3235 C3234 1.369 . S
C3235 C3236 1.410 . S
C3235 C3243 1.503 . S
C3236 C3235 1.410 . S
C3236 C3237 1.392 . S
C3236 C3239 1.511 . S
C3237 C3233 1.376 . S
C3237 C3236 1.392 . S
C3237 H3249 0.929 . S
C3238 C3234 1.531 . S
C3238 H3250 0.960 . S
C3238 H3251 0.962 . S
C3238 H3252 0.960 . S
C3239 C3236 1.511 . S
C3239 H3253 0.961 . S
C3239 H3254 0.961 . S
C3239 H3255 0.961 . S
C3240 C3241 1.370 . S
C3240 C3242 1.363 . S
C3240 H3256 0.931 . S
C3241 C3240 1.370 . S
C3241 C3245 1.408 . S
C3242 C3240 1.363 . S
C3242 C3243 1.370 . S
C3242 C3246 1.524 . S
C3243 C3235 1.503 . S
C3243 C3242 1.370 . S
C3243 C3244 1.403 . S
C3244 C3243 1.403 . S
C3244 C3245 1.404 . S
C3244 C3247 1.539 . S
C3245 C3241 1.408 . S
C3245 C3244 1.404 . S
C3245 H3257 0.930 . S
C3246 C3242 1.524 . S
C3246 H3258 0.956 . S
C3246 H3259 0.961 . S
C3246 H3260 0.961 . S
C3247 C3244 1.539 . S
C3247 H3261 0.958 . S
C3247 H3262 0.961 . S
C3247 H3263 0.960 . S
H3248 C3232 0.931 . S
H3249 C3237 0.929 . S
H3250 C3238 0.960 . S
H3251 C3238 0.962 . S
H3252 C3238 0.960 . S
H3253 C3239 0.961 . S
H3254 C3239 0.961 . S
H3255 C3239 0.961 . S
H3256 C3240 0.931 . S
H3257 C3245 0.930 . S
H3258 C3246 0.956 . S
H3259 C3246 0.961 . S
H3260 C3246 0.961 . S
H3261 C3247 0.958 . S
H3262 C3247 0.961 . S
H3263 C3247 0.960 . S
C3264 C3265 1.391 . S
C3264 C3266 1.394 . S
C3264 H3280 0.931 . S
C3265 C3264 1.391 . S
C3265 C3269 1.376 . S
C3266 C3264 1.394 . S
C3266 C3267 1.369 . S
C3266 C3270 1.531 . S
C3267 C3266 1.369 . S
C3267 C3268 1.410 . S
C3267 C3275 1.503 . S
C3268 C3267 1.410 . S
C3268 C3269 1.392 . S
C3268 C3271 1.511 . S
C3269 C3265 1.376 . S
C3269 C3268 1.392 . S
C3269 H3281 0.929 . S
C3270 C3266 1.531 . S
C3270 H3282 0.960 . S
C3270 H3283 0.962 . S
C3270 H3284 0.960 . S
C3271 C3268 1.511 . S
C3271 H3285 0.961 . S
C3271 H3286 0.961 . S
C3271 H3287 0.961 . S
C3272 C3273 1.370 . S
C3272 C3274 1.363 . S
C3272 H3288 0.931 . S
C3273 C3272 1.370 . S
C3273 C3277 1.408 . S
C3274 C3272 1.363 . S
C3274 C3275 1.370 . S
C3274 C3278 1.524 . S
C3275 C3267 1.503 . S
C3275 C3274 1.370 . S
C3275 C3276 1.403 . S
C3276 C3275 1.403 . S
C3276 C3277 1.404 . S
C3276 C3279 1.539 . S
C3277 C3273 1.408 . S
C3277 C3276 1.404 . S
C3277 H3289 0.930 . S
C3278 C3274 1.524 . S
C3278 H3290 0.956 . S
C3278 H3291 0.961 . S
C3278 H3292 0.961 . S
C3279 C3276 1.539 . S
C3279 H3293 0.958 . S
C3279 H3294 0.961 . S
C3279 H3295 0.960 . S
H3280 C3264 0.931 . S
H3281 C3269 0.929 . S
H3282 C3270 0.960 . S
H3283 C3270 0.962 . S
H3284 C3270 0.960 . S
H3285 C3271 0.961 . S
H3286 C3271 0.961 . S
H3287 C3271 0.961 . S
H3288 C3272 0.931 . S
H3289 C3277 0.930 . S
H3290 C3278 0.956 . S
H3291 C3278 0.961 . S
H3292 C3278 0.961 . S
H3293 C3279 0.958 . S
H3294 C3279 0.961 . S
H3295 C3279 0.960 . S
C3296 C3297 1.391 . S
C3296 C3298 1.394 . S
C3296 H3312 0.931 . S
C3297 C3296 1.391 . S
C3297 C3301 1.376 . S
C3298 C3296 1.394 . S
C3298 C3299 1.369 . S
C3298 C3302 1.531 . S
C3299 C3298 1.369 . S
C3299 C3300 1.410 . S
C3299 C3307 1.503 . S
C3300 C3299 1.410 . S
C3300 C3301 1.392 . S
C3300 C3303 1.511 . S
C3301 C3297 1.376 . S
C3301 C3300 1.392 . S
C3301 H3313 0.929 . S
C3302 C3298 1.531 . S
C3302 H3314 0.960 . S
C3302 H3315 0.962 . S
C3302 H3316 0.960 . S
C3303 C3300 1.511 . S
C3303 H3317 0.961 . S
C3303 H3318 0.961 . S
C3303 H3319 0.961 . S
C3304 C3305 1.370 . S
C3304 C3306 1.363 . S
C3304 H3320 0.931 . S
C3305 C3304 1.370 . S
C3305 C3309 1.408 . S
C3306 C3304 1.363 . S
C3306 C3307 1.370 . S
C3306 C3310 1.524 . S
C3307 C3299 1.503 . S
C3307 C3306 1.370 . S
C3307 C3308 1.403 . S
C3308 C3307 1.403 . S
C3308 C3309 1.404 . S
C3308 C3311 1.539 . S
C3309 C3305 1.408 . S
C3309 C3308 1.404 . S
C3309 H3321 0.930 . S
C3310 C3306 1.524 . S
C3310 H3322 0.956 . S
C3310 H3323 0.961 . S
C3310 H3324 0.961 . S
C3311 C3308 1.539 . S
C3311 H3325 0.958 . S
C3311 H3326 0.961 . S
C3311 H3327 0.960 . S
H3312 C3296 0.931 . S
H3313 C3301 0.929 . S
H3314 C3302 0.960 . S
H3315 C3302 0.962 . S
H3316 C3302 0.960 . S
H3317 C3303 0.961 . S
H3318 C3303 0.961 . S
H3319 C3303 0.961 . S
H3320 C3304 0.931 . S
H3321 C3309 0.930 . S
H3322 C3310 0.956 . S
H3323 C3310 0.961 . S
H3324 C3310 0.961 . S
H3325 C3311 0.958 . S
H3326 C3311 0.961 . S
H3327 C3311 0.960 . S
C3328 C3329 1.391 . S
C3328 C3330 1.394 . S
C3328 H3344 0.931 . S
C3329 C3328 1.391 . S
C3329 C3333 1.376 . S
C3330 C3328 1.394 . S
C3330 C3331 1.369 . S
C3330 C3334 1.531 . S
C3331 C3330 1.369 . S
C3331 C3332 1.410 . S
C3331 C3339 1.503 . S
C3332 C3331 1.410 . S
C3332 C3333 1.392 . S
C3332 C3335 1.511 . S
C3333 C3329 1.376 . S
C3333 C3332 1.392 . S
C3333 H3345 0.929 . S
C3334 C3330 1.531 . S
C3334 H3346 0.960 . S
C3334 H3347 0.962 . S
C3334 H3348 0.960 . S
C3335 C3332 1.511 . S
C3335 H3349 0.961 . S
C3335 H3350 0.961 . S
C3335 H3351 0.961 . S
C3336 C3337 1.370 . S
C3336 C3338 1.363 . S
C3336 H3352 0.931 . S
C3337 C3336 1.370 . S
C3337 C3341 1.408 . S
C3338 C3336 1.363 . S
C3338 C3339 1.370 . S
C3338 C3342 1.524 . S
C3339 C3331 1.503 . S
C3339 C3338 1.370 . S
C3339 C3340 1.403 . S
C3340 C3339 1.403 . S
C3340 C3341 1.404 . S
C3340 C3343 1.539 . S
C3341 C3337 1.408 . S
C3341 C3340 1.404 . S
C3341 H3353 0.930 . S
C3342 C3338 1.524 . S
C3342 H3354 0.956 . S
C3342 H3355 0.961 . S
C3342 H3356 0.961 . S
C3343 C3340 1.539 . S
C3343 H3357 0.958 . S
C3343 H3358 0.961 . S
C3343 H3359 0.960 . S
H3344 C3328 0.931 . S
H3345 C3333 0.929 . S
H3346 C3334 0.960 . S
H3347 C3334 0.962 . S
H3348 C3334 0.960 . S
H3349 C3335 0.961 . S
H3350 C3335 0.961 . S
H3351 C3335 0.961 . S
H3352 C3336 0.931 . S
H3353 C3341 0.930 . S
H3354 C3342 0.956 . S
H3355 C3342 0.961 . S
H3356 C3342 0.961 . S
H3357 C3343 0.958 . S
H3358 C3343 0.961 . S
H3359 C3343 0.960 . S
C3360 C3361 1.391 . S
C3360 C3362 1.394 . S
C3360 H3376 0.931 . S
C3361 C3360 1.391 . S
C3361 C3365 1.376 . S
C3362 C3360 1.394 . S
C3362 C3363 1.369 . S
C3362 C3366 1.531 . S
C3363 C3362 1.369 . S
C3363 C3364 1.410 . S
C3363 C3371 1.503 . S
C3364 C3363 1.410 . S
C3364 C3365 1.392 . S
C3364 C3367 1.511 . S
C3365 C3361 1.376 . S
C3365 C3364 1.392 . S
C3365 H3377 0.929 . S
C3366 C3362 1.531 . S
C3366 H3378 0.960 . S
C3366 H3379 0.962 . S
C3366 H3380 0.960 . S
C3367 C3364 1.511 . S
C3367 H3381 0.961 . S
C3367 H3382 0.961 . S
C3367 H3383 0.961 . S
C3368 C3369 1.370 . S
C3368 C3370 1.363 . S
C3368 H3384 0.931 . S
C3369 C3368 1.370 . S
C3369 C3373 1.408 . S
C3370 C3368 1.363 . S
C3370 C3371 1.370 . S
C3370 C3374 1.524 . S
C3371 C3363 1.503 . S
C3371 C3370 1.370 . S
C3371 C3372 1.403 . S
C3372 C3371 1.403 . S
C3372 C3373 1.404 . S
C3372 C3375 1.539 . S
C3373 C3369 1.408 . S
C3373 C3372 1.404 . S
C3373 H3385 0.930 . S
C3374 C3370 1.524 . S
C3374 H3386 0.956 . S
C3374 H3387 0.961 . S
C3374 H3388 0.961 . S
C3375 C3372 1.539 . S
C3375 H3389 0.958 . S
C3375 H3390 0.961 . S
C3375 H3391 0.960 . S
H3376 C3360 0.931 . S
H3377 C3365 0.929 . S
H3378 C3366 0.960 . S
H3379 C3366 0.962 . S
H3380 C3366 0.960 . S
H3381 C3367 0.961 . S
H3382 C3367 0.961 . S
H3383 C3367 0.961 . S
H3384 C3368 0.931 . S
H3385 C3373 0.930 . S
H3386 C3374 0.956 . S
H3387 C3374 0.961 . S
H3388 C3374 0.961 . S
H3389 C3375 0.958 . S
H3390 C3375 0.961 . S
H3391 C3375 0.960 . S
C3392 C3393 1.391 . S
C3392 C3394 1.394 . S
C3392 H3408 0.931 . S
C3393 C3392 1.391 . S
C3393 C3397 1.376 . S
C3394 C3392 1.394 . S
C3394 C3395 1.369 . S
C3394 C3398 1.531 . S
C3395 C3394 1.369 . S
C3395 C3396 1.410 . S
C3395 C3403 1.503 . S
C3396 C3395 1.410 . S
C3396 C3397 1.392 . S
C3396 C3399 1.511 . S
C3397 C3393 1.376 . S
C3397 C3396 1.392 . S
C3397 H3409 0.929 . S
C3398 C3394 1.531 . S
C3398 H3410 0.960 . S
C3398 H3411 0.962 . S
C3398 H3412 0.960 . S
C3399 C3396 1.511 . S
C3399 H3413 0.961 . S
C3399 H3414 0.961 . S
C3399 H3415 0.961 . S
C3400 C3401 1.370 . S
C3400 C3402 1.363 . S
C3400 H3416 0.931 . S
C3401 C3400 1.370 . S
C3401 C3405 1.408 . S
C3402 C3400 1.363 . S
C3402 C3403 1.370 . S
C3402 C3406 1.524 . S
C3403 C3395 1.503 . S
C3403 C3402 1.370 . S
C3403 C3404 1.403 . S
C3404 C3403 1.403 . S
C3404 C3405 1.404 . S
C3404 C3407 1.539 . S
C3405 C3401 1.408 . S
C3405 C3404 1.404 . S
C3405 H3417 0.930 . S
C3406 C3402 1.524 . S
C3406 H3418 0.956 . S
C3406 H3419 0.961 . S
C3406 H3420 0.961 . S
C3407 C3404 1.539 . S
C3407 H3421 0.958 . S
C3407 H3422 0.961 . S
C3407 H3423 0.960 . S
H3408 C3392 0.931 . S
H3409 C3397 0.929 . S
H3410 C3398 0.960 . S
H3411 C3398 0.962 . S
H3412 C3398 0.960 . S
H3413 C3399 0.961 . S
H3414 C3399 0.961 . S
H3415 C3399 0.961 . S
H3416 C3400 0.931 . S
H3417 C3405 0.930 . S
H3418 C3406 0.956 . S
H3419 C3406 0.961 . S
H3420 C3406 0.961 . S
H3421 C3407 0.958 . S
H3422 C3407 0.961 . S
H3423 C3407 0.960 . S
C3424 C3425 1.391 . S
C3424 C3426 1.394 . S
C3424 H3440 0.931 . S
C3425 C3424 1.391 . S
C3425 C3429 1.376 . S
C3426 C3424 1.394 . S
C3426 C3427 1.369 . S
C3426 C3430 1.531 . S
C3427 C3426 1.369 . S
C3427 C3428 1.410 . S
C3427 C3435 1.503 . S
C3428 C3427 1.410 . S
C3428 C3429 1.392 . S
C3428 C3431 1.511 . S
C3429 C3425 1.376 . S
C3429 C3428 1.392 . S
C3429 H3441 0.929 . S
C3430 C3426 1.531 . S
C3430 H3442 0.960 . S
C3430 H3443 0.962 . S
C3430 H3444 0.960 . S
C3431 C3428 1.511 . S
C3431 H3445 0.961 . S
C3431 H3446 0.961 . S
C3431 H3447 0.961 . S
C3432 C3433 1.370 . S
C3432 C3434 1.363 . S
C3432 H3448 0.931 . S
C3433 C3432 1.370 . S
C3433 C3437 1.408 . S
C3434 C3432 1.363 . S
C3434 C3435 1.370 . S
C3434 C3438 1.524 . S
C3435 C3427 1.503 . S
C3435 C3434 1.370 . S
C3435 C3436 1.403 . S
C3436 C3435 1.403 . S
C3436 C3437 1.404 . S
C3436 C3439 1.539 . S
C3437 C3433 1.408 . S
C3437 C3436 1.404 . S
C3437 H3449 0.930 . S
C3438 C3434 1.524 . S
C3438 H3450 0.956 . S
C3438 H3451 0.961 . S
C3438 H3452 0.961 . S
C3439 C3436 1.539 . S
C3439 H3453 0.958 . S
C3439 H3454 0.961 . S
C3439 H3455 0.960 . S
H3440 C3424 0.931 . S
H3441 C3429 0.929 . S
H3442 C3430 0.960 . S
H3443 C3430 0.962 . S
H3444 C3430 0.960 . S
H3445 C3431 0.961 . S
H3446 C3431 0.961 . S
H3447 C3431 0.961 . S
H3448 C3432 0.931 . S
H3449 C3437 0.930 . S
H3450 C3438 0.956 . S
H3451 C3438 0.961 . S
H3452 C3438 0.961 . S
H3453 C3439 0.958 . S
H3454 C3439 0.961 . S
H3455 C3439 0.960 . S
C3456 C3457 1.391 . S
C3456 C3458 1.394 . S
C3456 H3472 0.931 . S
C3457 C3456 1.391 . S
C3457 C3461 1.376 . S
C3458 C3456 1.394 . S
C3458 C3459 1.369 . S
C3458 C3462 1.531 . S
C3459 C3458 1.369 . S
C3459 C3460 1.410 . S
C3459 C3467 1.503 . S
C3460 C3459 1.410 . S
C3460 C3461 1.392 . S
C3460 C3463 1.511 . S
C3461 C3457 1.376 . S
C3461 C3460 1.392 . S
C3461 H3473 0.929 . S
C3462 C3458 1.531 . S
C3462 H3474 0.960 . S
C3462 H3475 0.962 . S
C3462 H3476 0.960 . S
C3463 C3460 1.511 . S
C3463 H3477 0.961 . S
C3463 H3478 0.961 . S
C3463 H3479 0.961 . S
C3464 C3465 1.370 . S
C3464 C3466 1.363 . S
C3464 H3480 0.931 . S
C3465 C3464 1.370 . S
C3465 C3469 1.408 . S
C3466 C3464 1.363 . S
C3466 C3467 1.370 . S
C3466 C3470 1.524 . S
C3467 C3459 1.503 . S
C3467 C3466 1.370 . S
C3467 C3468 1.403 . S
C3468 C3467 1.403 . S
C3468 C3469 1.404 . S
C3468 C3471 1.539 . S
C3469 C3465 1.408 . S
C3469 C3468 1.404 . S
C3469 H3481 0.930 . S
C3470 C3466 1.524 . S
C3470 H3482 0.956 . S
C3470 H3483 0.961 . S
C3470 H3484 0.961 . S
C3471 C3468 1.539 . S
C3471 H3485 0.958 . S
C3471 H3486 0.961 . S
C3471 H3487 0.960 . S
H3472 C3456 0.931 . S
H3473 C3461 0.929 . S
H3474 C3462 0.960 . S
H3475 C3462 0.962 . S
H3476 C3462 0.960 . S
H3477 C3463 0.961 . S
H3478 C3463 0.961 . S
H3479 C3463 0.961 . S
H3480 C3464 0.931 . S
H3481 C3469 0.930 . S
H3482 C3470 0.956 . S
H3483 C3470 0.961 . S
H3484 C3470 0.961 . S
H3485 C3471 0.958 . S
H3486 C3471 0.961 . S
H3487 C3471 0.960 . S
C3488 C3489 1.391 . S
C3488 C3490 1.394 . S
C3488 H3504 0.931 . S
C3489 C3488 1.391 . S
C3489 C3493 1.376 . S
C3490 C3488 1.394 . S
C3490 C3491 1.369 . S
C3490 C3494 1.531 . S
C3491 C3490 1.369 . S
C3491 C3492 1.410 . S
C3491 C3499 1.503 . S
C3492 C3491 1.410 . S
C3492 C3493 1.392 . S
C3492 C3495 1.511 . S
C3493 C3489 1.376 . S
C3493 C3492 1.392 . S
C3493 H3505 0.929 . S
C3494 C3490 1.531 . S
C3494 H3506 0.960 . S
C3494 H3507 0.962 . S
C3494 H3508 0.960 . S
C3495 C3492 1.511 . S
C3495 H3509 0.961 . S
C3495 H3510 0.961 . S
C3495 H3511 0.961 . S
C3496 C3497 1.370 . S
C3496 C3498 1.363 . S
C3496 H3512 0.931 . S
C3497 C3496 1.370 . S
C3497 C3501 1.408 . S
C3498 C3496 1.363 . S
C3498 C3499 1.370 . S
C3498 C3502 1.524 . S
C3499 C3491 1.503 . S
C3499 C3498 1.370 . S
C3499 C3500 1.403 . S
C3500 C3499 1.403 . S
C3500 C3501 1.404 . S
C3500 C3503 1.539 . S
C3501 C3497 1.408 . S
C3501 C3500 1.404 . S
C3501 H3513 0.930 . S
C3502 C3498 1.524 . S
C3502 H3514 0.956 . S
C3502 H3515 0.961 . S
C3502 H3516 0.961 . S
C3503 C3500 1.539 . S
C3503 H3517 0.958 . S
C3503 H3518 0.961 . S
C3503 H3519 0.960 . S
H3504 C3488 0.931 . S
H3505 C3493 0.929 . S
H3506 C3494 0.960 . S
H3507 C3494 0.962 . S
H3508 C3494 0.960 . S
H3509 C3495 0.961 . S
H3510 C3495 0.961 . S
H3511 C3495 0.961 . S
H3512 C3496 0.931 . S
H3513 C3501 0.930 . S
H3514 C3502 0.956 . S
H3515 C3502 0.961 . S
H3516 C3502 0.961 . S
H3517 C3503 0.958 . S
H3518 C3503 0.961 . S
H3519 C3503 0.960 . S
C3520 C3521 1.391 . S
C3520 C3522 1.394 . S
C3520 H3536 0.931 . S
C3521 C3520 1.391 . S
C3521 C3525 1.376 . S
C3522 C3520 1.394 . S
C3522 C3523 1.369 . S
C3522 C3526 1.531 . S
C3523 C3522 1.369 . S
C3523 C3524 1.410 . S
C3523 C3531 1.503 . S
C3524 C3523 1.410 . S
C3524 C3525 1.392 . S
C3524 C3527 1.511 . S
C3525 C3521 1.376 . S
C3525 C3524 1.392 . S
C3525 H3537 0.929 . S
C3526 C3522 1.531 . S
C3526 H3538 0.960 . S
C3526 H3539 0.962 . S
C3526 H3540 0.960 . S
C3527 C3524 1.511 . S
C3527 H3541 0.961 . S
C3527 H3542 0.961 . S
C3527 H3543 0.961 . S
C3528 C3529 1.370 . S
C3528 C3530 1.363 . S
C3528 H3544 0.931 . S
C3529 C3528 1.370 . S
C3529 C3533 1.408 . S
C3530 C3528 1.363 . S
C3530 C3531 1.370 . S
C3530 C3534 1.524 . S
C3531 C3523 1.503 . S
C3531 C3530 1.370 . S
C3531 C3532 1.403 . S
C3532 C3531 1.403 . S
C3532 C3533 1.404 . S
C3532 C3535 1.539 . S
C3533 C3529 1.408 . S
C3533 C3532 1.404 . S
C3533 H3545 0.930 . S
C3534 C3530 1.524 . S
C3534 H3546 0.956 . S
C3534 H3547 0.961 . S
C3534 H3548 0.961 . S
C3535 C3532 1.539 . S
C3535 H3549 0.958 . S
C3535 H3550 0.961 . S
C3535 H3551 0.960 . S
H3536 C3520 0.931 . S
H3537 C3525 0.929 . S
H3538 C3526 0.960 . S
H3539 C3526 0.962 . S
H3540 C3526 0.960 . S
H3541 C3527 0.961 . S
H3542 C3527 0.961 . S
H3543 C3527 0.961 . S
H3544 C3528 0.931 . S
H3545 C3533 0.930 . S
H3546 C3534 0.956 . S
H3547 C3534 0.961 . S
H3548 C3534 0.961 . S
H3549 C3535 0.958 . S
H3550 C3535 0.961 . S
H3551 C3535 0.960 . S
C3552 C3553 1.391 . S
C3552 C3554 1.394 . S
C3552 H3568 0.931 . S
C3553 C3552 1.391 . S
C3553 C3557 1.376 . S
C3554 C3552 1.394 . S
C3554 C3555 1.369 . S
C3554 C3558 1.531 . S
C3555 C3554 1.369 . S
C3555 C3556 1.410 . S
C3555 C3563 1.503 . S
C3556 C3555 1.410 . S
C3556 C3557 1.392 . S
C3556 C3559 1.511 . S
C3557 C3553 1.376 . S
C3557 C3556 1.392 . S
C3557 H3569 0.929 . S
C3558 C3554 1.531 . S
C3558 H3570 0.960 . S
C3558 H3571 0.962 . S
C3558 H3572 0.960 . S
C3559 C3556 1.511 . S
C3559 H3573 0.961 . S
C3559 H3574 0.961 . S
C3559 H3575 0.961 . S
C3560 C3561 1.370 . S
C3560 C3562 1.363 . S
C3560 H3576 0.931 . S
C3561 C3560 1.370 . S
C3561 C3565 1.408 . S
C3562 C3560 1.363 . S
C3562 C3563 1.370 . S
C3562 C3566 1.524 . S
C3563 C3555 1.503 . S
C3563 C3562 1.370 . S
C3563 C3564 1.403 . S
C3564 C3563 1.403 . S
C3564 C3565 1.404 . S
C3564 C3567 1.539 . S
C3565 C3561 1.408 . S
C3565 C3564 1.404 . S
C3565 H3577 0.930 . S
C3566 C3562 1.524 . S
C3566 H3578 0.956 . S
C3566 H3579 0.961 . S
C3566 H3580 0.961 . S
C3567 C3564 1.539 . S
C3567 H3581 0.958 . S
C3567 H3582 0.961 . S
C3567 H3583 0.960 . S
H3568 C3552 0.931 . S
H3569 C3557 0.929 . S
H3570 C3558 0.960 . S
H3571 C3558 0.962 . S
H3572 C3558 0.960 . S
H3573 C3559 0.961 . S
H3574 C3559 0.961 . S
H3575 C3559 0.961 . S
H3576 C3560 0.931 . S
H3577 C3565 0.930 . S
H3578 C3566 0.956 . S
H3579 C3566 0.961 . S
H3580 C3566 0.961 . S
H3581 C3567 0.958 . S
H3582 C3567 0.961 . S
H3583 C3567 0.960 . S
C3584 C3585 1.391 . S
C3584 C3586 1.394 . S
C3584 H3600 0.931 . S
C3585 C3584 1.391 . S
C3585 C3589 1.376 . S
C3586 C3584 1.394 . S
C3586 C3587 1.369 . S
C3586 C3590 1.531 . S
C3587 C3586 1.369 . S
C3587 C3588 1.410 . S
C3587 C3595 1.503 . S
C3588 C3587 1.410 . S
C3588 C3589 1.392 . S
C3588 C3591 1.511 . S
C3589 C3585 1.376 . S
C3589 C3588 1.392 . S
C3589 H3601 0.929 . S
C3590 C3586 1.531 . S
C3590 H3602 0.960 . S
C3590 H3603 0.962 . S
C3590 H3604 0.960 . S
C3591 C3588 1.511 . S
C3591 H3605 0.961 . S
C3591 H3606 0.961 . S
C3591 H3607 0.961 . S
C3592 C3593 1.370 . S
C3592 C3594 1.363 . S
C3592 H3608 0.931 . S
C3593 C3592 1.370 . S
C3593 C3597 1.408 . S
C3594 C3592 1.363 . S
C3594 C3595 1.370 . S
C3594 C3598 1.524 . S
C3595 C3587 1.503 . S
C3595 C3594 1.370 . S
C3595 C3596 1.403 . S
C3596 C3595 1.403 . S
C3596 C3597 1.404 . S
C3596 C3599 1.539 . S
C3597 C3593 1.408 . S
C3597 C3596 1.404 . S
C3597 H3609 0.930 . S
C3598 C3594 1.524 . S
C3598 H3610 0.956 . S
C3598 H3611 0.961 . S
C3598 H3612 0.961 . S
C3599 C3596 1.539 . S
C3599 H3613 0.958 . S
C3599 H3614 0.961 . S
C3599 H3615 0.960 . S
H3600 C3584 0.931 . S
H3601 C3589 0.929 . S
H3602 C3590 0.960 . S
H3603 C3590 0.962 . S
H3604 C3590 0.960 . S
H3605 C3591 0.961 . S
H3606 C3591 0.961 . S
H3607 C3591 0.961 . S
H3608 C3592 0.931 . S
H3609 C3597 0.930 . S
H3610 C3598 0.956 . S
H3611 C3598 0.961 . S
H3612 C3598 0.961 . S
H3613 C3599 0.958 . S
H3614 C3599 0.961 . S
H3615 C3599 0.960 . S
C3616 C3617 1.391 . S
C3616 C3618 1.394 . S
C3616 H3632 0.931 . S
C3617 C3616 1.391 . S
C3617 C3621 1.376 . S
C3618 C3616 1.394 . S
C3618 C3619 1.369 . S
C3618 C3622 1.531 . S
C3619 C3618 1.369 . S
C3619 C3620 1.410 . S
C3619 C3627 1.503 . S
C3620 C3619 1.410 . S
C3620 C3621 1.392 . S
C3620 C3623 1.511 . S
C3621 C3617 1.376 . S
C3621 C3620 1.392 . S
C3621 H3633 0.929 . S
C3622 C3618 1.531 . S
C3622 H3634 0.960 . S
C3622 H3635 0.962 . S
C3622 H3636 0.960 . S
C3623 C3620 1.511 . S
C3623 H3637 0.961 . S
C3623 H3638 0.961 . S
C3623 H3639 0.961 . S
C3624 C3625 1.370 . S
C3624 C3626 1.363 . S
C3624 H3640 0.931 . S
C3625 C3624 1.370 . S
C3625 C3629 1.408 . S
C3626 C3624 1.363 . S
C3626 C3627 1.370 . S
C3626 C3630 1.524 . S
C3627 C3619 1.503 . S
C3627 C3626 1.370 . S
C3627 C3628 1.403 . S
C3628 C3627 1.403 . S
C3628 C3629 1.404 . S
C3628 C3631 1.539 . S
C3629 C3625 1.408 . S
C3629 C3628 1.404 . S
C3629 H3641 0.930 . S
C3630 C3626 1.524 . S
C3630 H3642 0.956 . S
C3630 H3643 0.961 . S
C3630 H3644 0.961 . S
C3631 C3628 1.539 . S
C3631 H3645 0.958 . S
C3631 H3646 0.961 . S
C3631 H3647 0.960 . S
H3632 C3616 0.931 . S
H3633 C3621 0.929 . S
H3634 C3622 0.960 . S
H3635 C3622 0.962 . S
H3636 C3622 0.960 . S
H3637 C3623 0.961 . S
H3638 C3623 0.961 . S
H3639 C3623 0.961 . S
H3640 C3624 0.931 . S
H3641 C3629 0.930 . S
H3642 C3630 0.956 . S
H3643 C3630 0.961 . S
H3644 C3630 0.961 . S
H3645 C3631 0.958 . S
H3646 C3631 0.961 . S
H3647 C3631 0.960 . S
C3648 C3649 1.391 . S
C3648 C3650 1.394 . S
C3648 H3664 0.931 . S
C3649 C3648 1.391 . S
C3649 C3653 1.376 . S
C3650 C3648 1.394 . S
C3650 C3651 1.369 . S
C3650 C3654 1.531 . S
C3651 C3650 1.369 . S
C3651 C3652 1.410 . S
C3651 C3659 1.503 . S
C3652 C3651 1.410 . S
C3652 C3653 1.392 . S
C3652 C3655 1.511 . S
C3653 C3649 1.376 . S
C3653 C3652 1.392 . S
C3653 H3665 0.929 . S
C3654 C3650 1.531 . S
C3654 H3666 0.960 . S
C3654 H3667 0.962 . S
C3654 H3668 0.960 . S
C3655 C3652 1.511 . S
C3655 H3669 0.961 . S
C3655 H3670 0.961 . S
C3655 H3671 0.961 . S
C3656 C3657 1.370 . S
C3656 C3658 1.363 . S
C3656 H3672 0.931 . S
C3657 C3656 1.370 . S
C3657 C3661 1.408 . S
C3658 C3656 1.363 . S
C3658 C3659 1.370 . S
C3658 C3662 1.524 . S
C3659 C3651 1.503 . S
C3659 C3658 1.370 . S
C3659 C3660 1.403 . S
C3660 C3659 1.403 . S
C3660 C3661 1.404 . S
C3660 C3663 1.539 . S
C3661 C3657 1.408 . S
C3661 C3660 1.404 . S
C3661 H3673 0.930 . S
C3662 C3658 1.524 . S
C3662 H3674 0.956 . S
C3662 H3675 0.961 . S
C3662 H3676 0.961 . S
C3663 C3660 1.539 . S
C3663 H3677 0.958 . S
C3663 H3678 0.961 . S
C3663 H3679 0.960 . S
H3664 C3648 0.931 . S
H3665 C3653 0.929 . S
H3666 C3654 0.960 . S
H3667 C3654 0.962 . S
H3668 C3654 0.960 . S
H3669 C3655 0.961 . S
H3670 C3655 0.961 . S
H3671 C3655 0.961 . S
H3672 C3656 0.931 . S
H3673 C3661 0.930 . S
H3674 C3662 0.956 . S
H3675 C3662 0.961 . S
H3676 C3662 0.961 . S
H3677 C3663 0.958 . S
H3678 C3663 0.961 . S
H3679 C3663 0.960 . S
C3680 C3681 1.391 . S
C3680 C3682 1.394 . S
C3680 H3696 0.931 . S
C3681 C3680 1.391 . S
C3681 C3685 1.376 . S
C3682 C3680 1.394 . S
C3682 C3683 1.369 . S
C3682 C3686 1.531 . S
C3683 C3682 1.369 . S
C3683 C3684 1.410 . S
C3683 C3691 1.503 . S
C3684 C3683 1.410 . S
C3684 C3685 1.392 . S
C3684 C3687 1.511 . S
C3685 C3681 1.376 . S
C3685 C3684 1.392 . S
C3685 H3697 0.929 . S
C3686 C3682 1.531 . S
C3686 H3698 0.960 . S
C3686 H3699 0.962 . S
C3686 H3700 0.960 . S
C3687 C3684 1.511 . S
C3687 H3701 0.961 . S
C3687 H3702 0.961 . S
C3687 H3703 0.961 . S
C3688 C3689 1.370 . S
C3688 C3690 1.363 . S
C3688 H3704 0.931 . S
C3689 C3688 1.370 . S
C3689 C3693 1.408 . S
C3690 C3688 1.363 . S
C3690 C3691 1.370 . S
C3690 C3694 1.524 . S
C3691 C3683 1.503 . S
C3691 C3690 1.370 . S
C3691 C3692 1.403 . S
C3692 C3691 1.403 . S
C3692 C3693 1.404 . S
C3692 C3695 1.539 . S
C3693 C3689 1.408 . S
C3693 C3692 1.404 . S
C3693 H3705 0.930 . S
C3694 C3690 1.524 . S
C3694 H3706 0.956 . S
C3694 H3707 0.961 . S
C3694 H3708 0.961 . S
C3695 C3692 1.539 . S
C3695 H3709 0.958 . S
C3695 H3710 0.961 . S
C3695 H3711 0.960 . S
H3696 C3680 0.931 . S
H3697 C3685 0.929 . S
H3698 C3686 0.960 . S
H3699 C3686 0.962 . S
H3700 C3686 0.960 . S
H3701 C3687 0.961 . S
H3702 C3687 0.961 . S
H3703 C3687 0.961 . S
H3704 C3688 0.931 . S
H3705 C3693 0.930 . S
H3706 C3694 0.956 . S
H3707 C3694 0.961 . S
H3708 C3694 0.961 . S
H3709 C3695 0.958 . S
H3710 C3695 0.961 . S
H3711 C3695 0.960 . S
C3712 C3713 1.391 . S
C3712 C3714 1.394 . S
C3712 H3728 0.931 . S
C3713 C3712 1.391 . S
C3713 C3717 1.376 . S
C3714 C3712 1.394 . S
C3714 C3715 1.369 . S
C3714 C3718 1.531 . S
C3715 C3714 1.369 . S
C3715 C3716 1.410 . S
C3715 C3723 1.503 . S
C3716 C3715 1.410 . S
C3716 C3717 1.392 . S
C3716 C3719 1.511 . S
C3717 C3713 1.376 . S
C3717 C3716 1.392 . S
C3717 H3729 0.929 . S
C3718 C3714 1.531 . S
C3718 H3730 0.960 . S
C3718 H3731 0.962 . S
C3718 H3732 0.960 . S
C3719 C3716 1.511 . S
C3719 H3733 0.961 . S
C3719 H3734 0.961 . S
C3719 H3735 0.961 . S
C3720 C3721 1.370 . S
C3720 C3722 1.363 . S
C3720 H3736 0.931 . S
C3721 C3720 1.370 . S
C3721 C3725 1.408 . S
C3722 C3720 1.363 . S
C3722 C3723 1.370 . S
C3722 C3726 1.524 . S
C3723 C3715 1.503 . S
C3723 C3722 1.370 . S
C3723 C3724 1.403 . S
C3724 C3723 1.403 . S
C3724 C3725 1.404 . S
C3724 C3727 1.539 . S
C3725 C3721 1.408 . S
C3725 C3724 1.404 . S
C3725 H3737 0.930 . S
C3726 C3722 1.524 . S
C3726 H3738 0.956 . S
C3726 H3739 0.961 . S
C3726 H3740 0.961 . S
C3727 C3724 1.539 . S
C3727 H3741 0.958 . S
C3727 H3742 0.961 . S
C3727 H3743 0.960 . S
H3728 C3712 0.931 . S
H3729 C3717 0.929 . S
H3730 C3718 0.960 . S
H3731 C3718 0.962 . S
H3732 C3718 0.960 . S
H3733 C3719 0.961 . S
H3734 C3719 0.961 . S
H3735 C3719 0.961 . S
H3736 C3720 0.931 . S
H3737 C3725 0.930 . S
H3738 C3726 0.956 . S
H3739 C3726 0.961 . S
H3740 C3726 0.961 . S
H3741 C3727 0.958 . S
H3742 C3727 0.961 . S
H3743 C3727 0.960 . S
C3744 C3745 1.391 . S
C3744 C3746 1.394 . S
C3744 H3760 0.931 . S
C3745 C3744 1.391 . S
C3745 C3749 1.376 . S
C3746 C3744 1.394 . S
C3746 C3747 1.369 . S
C3746 C3750 1.531 . S
C3747 C3746 1.369 . S
C3747 C3748 1.410 . S
C3747 C3755 1.503 . S
C3748 C3747 1.410 . S
C3748 C3749 1.392 . S
C3748 C3751 1.511 . S
C3749 C3745 1.376 . S
C3749 C3748 1.392 . S
C3749 H3761 0.929 . S
C3750 C3746 1.531 . S
C3750 H3762 0.960 . S
C3750 H3763 0.962 . S
C3750 H3764 0.960 . S
C3751 C3748 1.511 . S
C3751 H3765 0.961 . S
C3751 H3766 0.961 . S
C3751 H3767 0.961 . S
C3752 C3753 1.370 . S
C3752 C3754 1.363 . S
C3752 H3768 0.931 . S
C3753 C3752 1.370 . S
C3753 C3757 1.408 . S
C3754 C3752 1.363 . S
C3754 C3755 1.370 . S
C3754 C3758 1.524 . S
C3755 C3747 1.503 . S
C3755 C3754 1.370 . S
C3755 C3756 1.403 . S
C3756 C3755 1.403 . S
C3756 C3757 1.404 . S
C3756 C3759 1.539 . S
C3757 C3753 1.408 . S
C3757 C3756 1.404 . S
C3757 H3769 0.930 . S
C3758 C3754 1.524 . S
C3758 H3770 0.956 . S
C3758 H3771 0.961 . S
C3758 H3772 0.961 . S
C3759 C3756 1.539 . S
C3759 H3773 0.958 . S
C3759 H3774 0.961 . S
C3759 H3775 0.960 . S
H3760 C3744 0.931 . S
H3761 C3749 0.929 . S
H3762 C3750 0.960 . S
H3763 C3750 0.962 . S
H3764 C3750 0.960 . S
H3765 C3751 0.961 . S
H3766 C3751 0.961 . S
H3767 C3751 0.961 . S
H3768 C3752 0.931 . S
H3769 C3757 0.930 . S
H3770 C3758 0.956 . S
H3771 C3758 0.961 . S
H3772 C3758 0.961 . S
H3773 C3759 0.958 . S
H3774 C3759 0.961 . S
H3775 C3759 0.960 . S
C3776 C3777 1.391 . S
C3776 C3778 1.394 . S
C3776 H3792 0.931 . S
C3777 C3776 1.391 . S
C3777 C3781 1.376 . S
C3778 C3776 1.394 . S
C3778 C3779 1.369 . S
C3778 C3782 1.531 . S
C3779 C3778 1.369 . S
C3779 C3780 1.410 . S
C3779 C3787 1.503 . S
C3780 C3779 1.410 . S
C3780 C3781 1.392 . S
C3780 C3783 1.511 . S
C3781 C3777 1.376 . S
C3781 C3780 1.392 . S
C3781 H3793 0.929 . S
C3782 C3778 1.531 . S
C3782 H3794 0.960 . S
C3782 H3795 0.962 . S
C3782 H3796 0.960 . S
C3783 C3780 1.511 . S
C3783 H3797 0.961 . S
C3783 H3798 0.961 . S
C3783 H3799 0.961 . S
C3784 C3785 1.370 . S
C3784 C3786 1.363 . S
C3784 H3800 0.931 . S
C3785 C3784 1.370 . S
C3785 C3789 1.408 . S
C3786 C3784 1.363 . S
C3786 C3787 1.370 . S
C3786 C3790 1.524 . S
C3787 C3779 1.503 . S
C3787 C3786 1.370 . S
C3787 C3788 1.403 . S
C3788 C3787 1.403 . S
C3788 C3789 1.404 . S
C3788 C3791 1.539 . S
C3789 C3785 1.408 . S
C3789 C3788 1.404 . S
C3789 H3801 0.930 . S
C3790 C3786 1.524 . S
C3790 H3802 0.956 . S
C3790 H3803 0.961 . S
C3790 H3804 0.961 . S
C3791 C3788 1.539 . S
C3791 H3805 0.958 . S
C3791 H3806 0.961 . S
C3791 H3807 0.960 . S
H3792 C3776 0.931 . S
H3793 C3781 0.929 . S
H3794 C3782 0.960 . S
H3795 C3782 0.962 . S
H3796 C3782 0.960 . S
H3797 C3783 0.961 . S
H3798 C3783 0.961 . S
H3799 C3783 0.961 . S
H3800 C3784 0.931 . S
H3801 C3789 0.930 . S
H3802 C3790 0.956 . S
H3803 C3790 0.961 . S
H3804 C3790 0.961 . S
H3805 C3791 0.958 . S
H3806 C3791 0.961 . S
H3807 C3791 0.960 . S
C3808 C3809 1.391 . S
C3808 C3810 1.394 . S
C3808 H3824 0.931 . S
C3809 C3808 1.391 . S
C3809 C3813 1.376 . S
C3810 C3808 1.394 . S
C3810 C3811 1.369 . S
C3810 C3814 1.531 . S
C3811 C3810 1.369 . S
C3811 C3812 1.410 . S
C3811 C3819 1.503 . S
C3812 C3811 1.410 . S
C3812 C3813 1.392 . S
C3812 C3815 1.511 . S
C3813 C3809 1.376 . S
C3813 C3812 1.392 . S
C3813 H3825 0.929 . S
C3814 C3810 1.531 . S
C3814 H3826 0.960 . S
C3814 H3827 0.962 . S
C3814 H3828 0.960 . S
C3815 C3812 1.511 . S
C3815 H3829 0.961 . S
C3815 H3830 0.961 . S
C3815 H3831 0.961 . S
C3816 C3817 1.370 . S
C3816 C3818 1.363 . S
C3816 H3832 0.931 . S
C3817 C3816 1.370 . S
C3817 C3821 1.408 . S
C3818 C3816 1.363 . S
C3818 C3819 1.370 . S
C3818 C3822 1.524 . S
C3819 C3811 1.503 . S
C3819 C3818 1.370 . S
C3819 C3820 1.403 . S
C3820 C3819 1.403 . S
C3820 C3821 1.404 . S
C3820 C3823 1.539 . S
C3821 C3817 1.408 . S
C3821 C3820 1.404 . S
C3821 H3833 0.930 . S
C3822 C3818 1.524 . S
C3822 H3834 0.956 . S
C3822 H3835 0.961 . S
C3822 H3836 0.961 . S
C3823 C3820 1.539 . S
C3823 H3837 0.958 . S
C3823 H3838 0.961 . S
C3823 H3839 0.960 . S
H3824 C3808 0.931 . S
H3825 C3813 0.929 . S
H3826 C3814 0.960 . S
H3827 C3814 0.962 . S
H3828 C3814 0.960 . S
H3829 C3815 0.961 . S
H3830 C3815 0.961 . S
H3831 C3815 0.961 . S
H3832 C3816 0.931 . S
H3833 C3821 0.930 . S
H3834 C3822 0.956 . S
H3835 C3822 0.961 . S
H3836 C3822 0.961 . S
H3837 C3823 0.958 . S
H3838 C3823 0.961 . S
H3839 C3823 0.960 . S
C3840 C3841 1.391 . S
C3840 C3842 1.394 . S
C3840 H3856 0.931 . S
C3841 C3840 1.391 . S
C3841 C3845 1.376 . S
C3842 C3840 1.394 . S
C3842 C3843 1.369 . S
C3842 C3846 1.531 . S
C3843 C3842 1.369 . S
C3843 C3844 1.410 . S
C3843 C3851 1.503 . S
C3844 C3843 1.410 . S
C3844 C3845 1.392 . S
C3844 C3847 1.511 . S
C3845 C3841 1.376 . S
C3845 C3844 1.392 . S
C3845 H3857 0.929 . S
C3846 C3842 1.531 . S
C3846 H3858 0.960 . S
C3846 H3859 0.962 . S
C3846 H3860 0.960 . S
C3847 C3844 1.511 . S
C3847 H3861 0.961 . S
C3847 H3862 0.961 . S
C3847 H3863 0.961 . S
C3848 C3849 1.370 . S
C3848 C3850 1.363 . S
C3848 H3864 0.931 . S
C3849 C3848 1.370 . S
C3849 C3853 1.408 . S
C3850 C3848 1.363 . S
C3850 C3851 1.370 . S
C3850 C3854 1.524 . S
C3851 C3843 1.503 . S
C3851 C3850 1.370 . S
C3851 C3852 1.403 . S
C3852 C3851 1.403 . S
C3852 C3853 1.404 . S
C3852 C3855 1.539 . S
C3853 C3849 1.408 . S
C3853 C3852 1.404 . S
C3853 H3865 0.930 . S
C3854 C3850 1.524 . S
C3854 H3866 0.956 . S
C3854 H3867 0.961 . S
C3854 H3868 0.961 . S
C3855 C3852 1.539 . S
C3855 H3869 0.958 . S
C3855 H3870 0.961 . S
C3855 H3871 0.960 . S
H3856 C3840 0.931 . S
H3857 C3845 0.929 . S
H3858 C3846 0.960 . S
H3859 C3846 0.962 . S
H3860 C3846 0.960 . S
H3861 C3847 0.961 . S
H3862 C3847 0.961 . S
H3863 C3847 0.961 . S
H3864 C3848 0.931 . S
H3865 C3853 0.930 . S
H3866 C3854 0.956 . S
H3867 C3854 0.961 . S
H3868 C3854 0.961 . S
H3869 C3855 0.958 . S
H3870 C3855 0.961 . S
H3871 C3855 0.960 . S
C3872 C3873 1.391 . S
C3872 C3874 1.394 . S
C3872 H3888 0.931 . S
C3873 C3872 1.391 . S
C3873 C3877 1.376 . S
C3874 C3872 1.394 . S
C3874 C3875 1.369 . S
C3874 C3878 1.531 . S
C3875 C3874 1.369 . S
C3875 C3876 1.410 . S
C3875 C3883 1.503 . S
C3876 C3875 1.410 . S
C3876 C3877 1.392 . S
C3876 C3879 1.511 . S
C3877 C3873 1.376 . S
C3877 C3876 1.392 . S
C3877 H3889 0.929 . S
C3878 C3874 1.531 . S
C3878 H3890 0.960 . S
C3878 H3891 0.962 . S
C3878 H3892 0.960 . S
C3879 C3876 1.511 . S
C3879 H3893 0.961 . S
C3879 H3894 0.961 . S
C3879 H3895 0.961 . S
C3880 C3881 1.370 . S
C3880 C3882 1.363 . S
C3880 H3896 0.931 . S
C3881 C3880 1.370 . S
C3881 C3885 1.408 . S
C3882 C3880 1.363 . S
C3882 C3883 1.370 . S
C3882 C3886 1.524 . S
C3883 C3875 1.503 . S
C3883 C3882 1.370 . S
C3883 C3884 1.403 . S
C3884 C3883 1.403 . S
C3884 C3885 1.404 . S
C3884 C3887 1.539 . S
C3885 C3881 1.408 . S
C3885 C3884 1.404 . S
C3885 H3897 0.930 . S
C3886 C3882 1.524 . S
C3886 H3898 0.956 . S
C3886 H3899 0.961 . S
C3886 H3900 0.961 . S
C3887 C3884 1.539 . S
C3887 H3901 0.958 . S
C3887 H3902 0.961 . S
C3887 H3903 0.960 . S
H3888 C3872 0.931 . S
H3889 C3877 0.929 . S
H3890 C3878 0.960 . S
H3891 C3878 0.962 . S
H3892 C3878 0.960 . S
H3893 C3879 0.961 . S
H3894 C3879 0.961 . S
H3895 C3879 0.961 . S
H3896 C3880 0.931 . S
H3897 C3885 0.930 . S
H3898 C3886 0.956 . S
H3899 C3886 0.961 . S
H3900 C3886 0.961 . S
H3901 C3887 0.958 . S
H3902 C3887 0.961 . S
H3903 C3887 0.960 . S
C3904 C3905 1.391 . S
C3904 C3906 1.394 . S
C3904 H3920 0.931 . S
C3905 C3904 1.391 . S
C3905 C3909 1.376 . S
C3906 C3904 1.394 . S
C3906 C3907 1.369 . S
C3906 C3910 1.531 . S
C3907 C3906 1.369 . S
C3907 C3908 1.410 . S
C3907 C3915 1.503 . S
C3908 C3907 1.410 . S
C3908 C3909 1.392 . S
C3908 C3911 1.511 . S
C3909 C3905 1.376 . S
C3909 C3908 1.392 . S
C3909 H3921 0.929 . S
C3910 C3906 1.531 . S
C3910 H3922 0.960 . S
C3910 H3923 0.962 . S
C3910 H3924 0.960 . S
C3911 C3908 1.511 . S
C3911 H3925 0.961 . S
C3911 H3926 0.961 . S
C3911 H3927 0.961 . S
C3912 C3913 1.370 . S
C3912 C3914 1.363 . S
C3912 H3928 0.931 . S
C3913 C3912 1.370 . S
C3913 C3917 1.408 . S
C3914 C3912 1.363 . S
C3914 C3915 1.370 . S
C3914 C3918 1.524 . S
C3915 C3907 1.503 . S
C3915 C3914 1.370 . S
C3915 C3916 1.403 . S
C3916 C3915 1.403 . S
C3916 C3917 1.404 . S
C3916 C3919 1.539 . S
C3917 C3913 1.408 . S
C3917 C3916 1.404 . S
C3917 H3929 0.930 . S
C3918 C3914 1.524 . S
C3918 H3930 0.956 . S
C3918 H3931 0.961 . S
C3918 H3932 0.961 . S
C3919 C3916 1.539 . S
C3919 H3933 0.958 . S
C3919 H3934 0.961 . S
C3919 H3935 0.960 . S
H3920 C3904 0.931 . S
H3921 C3909 0.929 . S
H3922 C3910 0.960 . S
H3923 C3910 0.962 . S
H3924 C3910 0.960 . S
H3925 C3911 0.961 . S
H3926 C3911 0.961 . S
H3927 C3911 0.961 . S
H3928 C3912 0.931 . S
H3929 C3917 0.930 . S
H3930 C3918 0.956 . S
H3931 C3918 0.961 . S
H3932 C3918 0.961 . S
H3933 C3919 0.958 . S
H3934 C3919 0.961 . S
H3935 C3919 0.960 . S
C3936 C3937 1.391 . S
C3936 C3938 1.394 . S
C3936 H3952 0.931 . S
C3937 C3936 1.391 . S
C3937 C3941 1.376 . S
C3938 C3936 1.394 . S
C3938 C3939 1.369 . S
C3938 C3942 1.531 . S
C3939 C3938 1.369 . S
C3939 C3940 1.410 . S
C3939 C3947 1.503 . S
C3940 C3939 1.410 . S
C3940 C3941 1.392 . S
C3940 C3943 1.511 . S
C3941 C3937 1.376 . S
C3941 C3940 1.392 . S
C3941 H3953 0.929 . S
C3942 C3938 1.531 . S
C3942 H3954 0.960 . S
C3942 H3955 0.962 . S
C3942 H3956 0.960 . S
C3943 C3940 1.511 . S
C3943 H3957 0.961 . S
C3943 H3958 0.961 . S
C3943 H3959 0.961 . S
C3944 C3945 1.370 . S
C3944 C3946 1.363 . S
C3944 H3960 0.931 . S
C3945 C3944 1.370 . S
C3945 C3949 1.408 . S
C3946 C3944 1.363 . S
C3946 C3947 1.370 . S
C3946 C3950 1.524 . S
C3947 C3939 1.503 . S
C3947 C3946 1.370 . S
C3947 C3948 1.403 . S
C3948 C3947 1.403 . S
C3948 C3949 1.404 . S
C3948 C3951 1.539 . S
C3949 C3945 1.408 . S
C3949 C3948 1.404 . S
C3949 H3961 0.930 . S
C3950 C3946 1.524 . S
C3950 H3962 0.956 . S
C3950 H3963 0.961 . S
C3950 H3964 0.961 . S
C3951 C3948 1.539 . S
C3951 H3965 0.958 . S
C3951 H3966 0.961 . S
C3951 H3967 0.960 . S
H3952 C3936 0.931 . S
H3953 C3941 0.929 . S
H3954 C3942 0.960 . S
H3955 C3942 0.962 . S
H3956 C3942 0.960 . S
H3957 C3943 0.961 . S
H3958 C3943 0.961 . S
H3959 C3943 0.961 . S
H3960 C3944 0.931 . S
H3961 C3949 0.930 . S
H3962 C3950 0.956 . S
H3963 C3950 0.961 . S
H3964 C3950 0.961 . S
H3965 C3951 0.958 . S
H3966 C3951 0.961 . S
H3967 C3951 0.960 . S
C3968 C3969 1.391 . S
C3968 C3970 1.394 . S
C3968 H3984 0.931 . S
C3969 C3968 1.391 . S
C3969 C3973 1.376 . S
C3970 C3968 1.394 . S
C3970 C3971 1.369 . S
C3970 C3974 1.531 . S
C3971 C3970 1.369 . S
C3971 C3972 1.410 . S
C3971 C3979 1.503 . S
C3972 C3971 1.410 . S
C3972 C3973 1.392 . S
C3972 C3975 1.511 . S
C3973 C3969 1.376 . S
C3973 C3972 1.392 . S
C3973 H3985 0.929 . S
C3974 C3970 1.531 . S
C3974 H3986 0.960 . S
C3974 H3987 0.962 . S
C3974 H3988 0.960 . S
C3975 C3972 1.511 . S
C3975 H3989 0.961 . S
C3975 H3990 0.961 . S
C3975 H3991 0.961 . S
C3976 C3977 1.370 . S
C3976 C3978 1.363 . S
C3976 H3992 0.931 . S
C3977 C3976 1.370 . S
C3977 C3981 1.408 . S
C3978 C3976 1.363 . S
C3978 C3979 1.370 . S
C3978 C3982 1.524 . S
C3979 C3971 1.503 . S
C3979 C3978 1.370 . S
C3979 C3980 1.403 . S
C3980 C3979 1.403 . S
C3980 C3981 1.404 . S
C3980 C3983 1.539 . S
C3981 C3977 1.408 . S
C3981 C3980 1.404 . S
C3981 H3993 0.930 . S
C3982 C3978 1.524 . S
C3982 H3994 0.956 . S
C3982 H3995 0.961 . S
C3982 H3996 0.961 . S
C3983 C3980 1.539 . S
C3983 H3997 0.958 . S
C3983 H3998 0.961 . S
C3983 H3999 0.960 . S
H3984 C3968 0.931 . S
H3985 C3973 0.929 . S
H3986 C3974 0.960 . S
H3987 C3974 0.962 . S
H3988 C3974 0.960 . S
H3989 C3975 0.961 . S
H3990 C3975 0.961 . S
H3991 C3975 0.961 . S
H3992 C3976 0.931 . S
H3993 C3981 0.930 . S
H3994 C3982 0.956 . S
H3995 C3982 0.961 . S
H3996 C3982 0.961 . S
H3997 C3983 0.958 . S
H3998 C3983 0.961 . S
H3999 C3983 0.960 . S
C4000 C4001 1.391 . S
C4000 C4002 1.394 . S
C4000 H4016 0.931 . S
C4001 C4000 1.391 . S
C4001 C4005 1.376 . S
C4002 C4000 1.394 . S
C4002 C4003 1.369 . S
C4002 C4006 1.531 . S
C4003 C4002 1.369 . S
C4003 C4004 1.410 . S
C4003 C4011 1.503 . S
C4004 C4003 1.410 . S
C4004 C4005 1.392 . S
C4004 C4007 1.511 . S
C4005 C4001 1.376 . S
C4005 C4004 1.392 . S
C4005 H4017 0.929 . S
C4006 C4002 1.531 . S
C4006 H4018 0.960 . S
C4006 H4019 0.962 . S
C4006 H4020 0.960 . S
C4007 C4004 1.511 . S
C4007 H4021 0.961 . S
C4007 H4022 0.961 . S
C4007 H4023 0.961 . S
C4008 C4009 1.370 . S
C4008 C4010 1.363 . S
C4008 H4024 0.931 . S
C4009 C4008 1.370 . S
C4009 C4013 1.408 . S
C4010 C4008 1.363 . S
C4010 C4011 1.370 . S
C4010 C4014 1.524 . S
C4011 C4003 1.503 . S
C4011 C4010 1.370 . S
C4011 C4012 1.403 . S
C4012 C4011 1.403 . S
C4012 C4013 1.404 . S
C4012 C4015 1.539 . S
C4013 C4009 1.408 . S
C4013 C4012 1.404 . S
C4013 H4025 0.930 . S
C4014 C4010 1.524 . S
C4014 H4026 0.956 . S
C4014 H4027 0.961 . S
C4014 H4028 0.961 . S
C4015 C4012 1.539 . S
C4015 H4029 0.958 . S
C4015 H4030 0.961 . S
C4015 H4031 0.960 . S
H4016 C4000 0.931 . S
H4017 C4005 0.929 . S
H4018 C4006 0.960 . S
H4019 C4006 0.962 . S
H4020 C4006 0.960 . S
H4021 C4007 0.961 . S
H4022 C4007 0.961 . S
H4023 C4007 0.961 . S
H4024 C4008 0.931 . S
H4025 C4013 0.930 . S
H4026 C4014 0.956 . S
H4027 C4014 0.961 . S
H4028 C4014 0.961 . S
H4029 C4015 0.958 . S
H4030 C4015 0.961 . S
H4031 C4015 0.960 . S
C4032 C4033 1.391 . S
C4032 C4034 1.394 . S
C4032 H4048 0.931 . S
C4033 C4032 1.391 . S
C4033 C4037 1.376 . S
C4034 C4032 1.394 . S
C4034 C4035 1.369 . S
C4034 C4038 1.531 . S
C4035 C4034 1.369 . S
C4035 C4036 1.410 . S
C4035 C4043 1.503 . S
C4036 C4035 1.410 . S
C4036 C4037 1.392 . S
C4036 C4039 1.511 . S
C4037 C4033 1.376 . S
C4037 C4036 1.392 . S
C4037 H4049 0.929 . S
C4038 C4034 1.531 . S
C4038 H4050 0.960 . S
C4038 H4051 0.962 . S
C4038 H4052 0.960 . S
C4039 C4036 1.511 . S
C4039 H4053 0.961 . S
C4039 H4054 0.961 . S
C4039 H4055 0.961 . S
C4040 C4041 1.370 . S
C4040 C4042 1.363 . S
C4040 H4056 0.931 . S
C4041 C4040 1.370 . S
C4041 C4045 1.408 . S
C4042 C4040 1.363 . S
C4042 C4043 1.370 . S
C4042 C4046 1.524 . S
C4043 C4035 1.503 . S
C4043 C4042 1.370 . S
C4043 C4044 1.403 . S
C4044 C4043 1.403 . S
C4044 C4045 1.404 . S
C4044 C4047 1.539 . S
C4045 C4041 1.408 . S
C4045 C4044 1.404 . S
C4045 H4057 0.930 . S
C4046 C4042 1.524 . S
C4046 H4058 0.956 . S
C4046 H4059 0.961 . S
C4046 H4060 0.961 . S
C4047 C4044 1.539 . S
C4047 H4061 0.958 . S
C4047 H4062 0.961 . S
C4047 H4063 0.960 . S
H4048 C4032 0.931 . S
H4049 C4037 0.929 . S
H4050 C4038 0.960 . S
H4051 C4038 0.962 . S
H4052 C4038 0.960 . S
H4053 C4039 0.961 . S
H4054 C4039 0.961 . S
H4055 C4039 0.961 . S
H4056 C4040 0.931 . S
H4057 C4045 0.930 . S
H4058 C4046 0.956 . S
H4059 C4046 0.961 . S
H4060 C4046 0.961 . S
H4061 C4047 0.958 . S
H4062 C4047 0.961 . S
H4063 C4047 0.960 . S
C4064 C4065 1.391 . S
C4064 C4066 1.394 . S
C4064 H4080 0.931 . S
C4065 C4064 1.391 . S
C4065 C4069 1.376 . S
C4066 C4064 1.394 . S
C4066 C4067 1.369 . S
C4066 C4070 1.531 . S
C4067 C4066 1.369 . S
C4067 C4068 1.410 . S
C4067 C4075 1.503 . S
C4068 C4067 1.410 . S
C4068 C4069 1.392 . S
C4068 C4071 1.511 . S
C4069 C4065 1.376 . S
C4069 C4068 1.392 . S
C4069 H4081 0.929 . S
C4070 C4066 1.531 . S
C4070 H4082 0.960 . S
C4070 H4083 0.962 . S
C4070 H4084 0.960 . S
C4071 C4068 1.511 . S
C4071 H4085 0.961 . S
C4071 H4086 0.961 . S
C4071 H4087 0.961 . S
C4072 C4073 1.370 . S
C4072 C4074 1.363 . S
C4072 H4088 0.931 . S
C4073 C4072 1.370 . S
C4073 C4077 1.408 . S
C4074 C4072 1.363 . S
C4074 C4075 1.370 . S
C4074 C4078 1.524 . S
C4075 C4067 1.503 . S
C4075 C4074 1.370 . S
C4075 C4076 1.403 . S
C4076 C4075 1.403 . S
C4076 C4077 1.404 . S
C4076 C4079 1.539 . S
C4077 C4073 1.408 . S
C4077 C4076 1.404 . S
C4077 H4089 0.930 . S
C4078 C4074 1.524 . S
C4078 H4090 0.956 . S
C4078 H4091 0.961 . S
C4078 H4092 0.961 . S
C4079 C4076 1.539 . S
C4079 H4093 0.958 . S
C4079 H4094 0.961 . S
C4079 H4095 0.960 . S
H4080 C4064 0.931 . S
H4081 C4069 0.929 . S
H4082 C4070 0.960 . S
H4083 C4070 0.962 . S
H4084 C4070 0.960 . S
H4085 C4071 0.961 . S
H4086 C4071 0.961 . S
H4087 C4071 0.961 . S
H4088 C4072 0.931 . S
H4089 C4077 0.930 . S
H4090 C4078 0.956 . S
H4091 C4078 0.961 . S
H4092 C4078 0.961 . S
H4093 C4079 0.958 . S
H4094 C4079 0.961 . S
H4095 C4079 0.960 . S
C4096 C4097 1.391 . S
C4096 C4098 1.394 . S
C4096 H4112 0.931 . S
C4097 C4096 1.391 . S
C4097 C4101 1.376 . S
C4098 C4096 1.394 . S
C4098 C4099 1.369 . S
C4098 C4102 1.531 . S
C4099 C4098 1.369 . S
C4099 C4100 1.410 . S
C4099 C4107 1.503 . S
C4100 C4099 1.410 . S
C4100 C4101 1.392 . S
C4100 C4103 1.511 . S
C4101 C4097 1.376 . S
C4101 C4100 1.392 . S
C4101 H4113 0.929 . S
C4102 C4098 1.531 . S
C4102 H4114 0.960 . S
C4102 H4115 0.962 . S
C4102 H4116 0.960 . S
C4103 C4100 1.511 . S
C4103 H4117 0.961 . S
C4103 H4118 0.961 . S
C4103 H4119 0.961 . S
C4104 C4105 1.370 . S
C4104 C4106 1.363 . S
C4104 H4120 0.931 . S
C4105 C4104 1.370 . S
C4105 C4109 1.408 . S
C4106 C4104 1.363 . S
C4106 C4107 1.370 . S
C4106 C4110 1.524 . S
C4107 C4099 1.503 . S
C4107 C4106 1.370 . S
C4107 C4108 1.403 . S
C4108 C4107 1.403 . S
C4108 C4109 1.404 . S
C4108 C4111 1.539 . S
C4109 C4105 1.408 . S
C4109 C4108 1.404 . S
C4109 H4121 0.930 . S
C4110 C4106 1.524 . S
C4110 H4122 0.956 . S
C4110 H4123 0.961 . S
C4110 H4124 0.961 . S
C4111 C4108 1.539 . S
C4111 H4125 0.958 . S
C4111 H4126 0.961 . S
C4111 H4127 0.960 . S
H4112 C4096 0.931 . S
H4113 C4101 0.929 . S
H4114 C4102 0.960 . S
H4115 C4102 0.962 . S
H4116 C4102 0.960 . S
H4117 C4103 0.961 . S
H4118 C4103 0.961 . S
H4119 C4103 0.961 . S
H4120 C4104 0.931 . S
H4121 C4109 0.930 . S
H4122 C4110 0.956 . S
H4123 C4110 0.961 . S
H4124 C4110 0.961 . S
H4125 C4111 0.958 . S
H4126 C4111 0.961 . S
H4127 C4111 0.960 . S
C4128 C4129 1.391 . S
C4128 C4130 1.394 . S
C4128 H4144 0.931 . S
C4129 C4128 1.391 . S
C4129 C4133 1.376 . S
C4130 C4128 1.394 . S
C4130 C4131 1.369 . S
C4130 C4134 1.531 . S
C4131 C4130 1.369 . S
C4131 C4132 1.410 . S
C4131 C4139 1.503 . S
C4132 C4131 1.410 . S
C4132 C4133 1.392 . S
C4132 C4135 1.511 . S
C4133 C4129 1.376 . S
C4133 C4132 1.392 . S
C4133 H4145 0.929 . S
C4134 C4130 1.531 . S
C4134 H4146 0.960 . S
C4134 H4147 0.962 . S
C4134 H4148 0.960 . S
C4135 C4132 1.511 . S
C4135 H4149 0.961 . S
C4135 H4150 0.961 . S
C4135 H4151 0.961 . S
C4136 C4137 1.370 . S
C4136 C4138 1.363 . S
C4136 H4152 0.931 . S
C4137 C4136 1.370 . S
C4137 C4141 1.408 . S
C4138 C4136 1.363 . S
C4138 C4139 1.370 . S
C4138 C4142 1.524 . S
C4139 C4131 1.503 . S
C4139 C4138 1.370 . S
C4139 C4140 1.403 . S
C4140 C4139 1.403 . S
C4140 C4141 1.404 . S
C4140 C4143 1.539 . S
C4141 C4137 1.408 . S
C4141 C4140 1.404 . S
C4141 H4153 0.930 . S
C4142 C4138 1.524 . S
C4142 H4154 0.956 . S
C4142 H4155 0.961 . S
C4142 H4156 0.961 . S
C4143 C4140 1.539 . S
C4143 H4157 0.958 . S
C4143 H4158 0.961 . S
C4143 H4159 0.960 . S
H4144 C4128 0.931 . S
H4145 C4133 0.929 . S
H4146 C4134 0.960 . S
H4147 C4134 0.962 . S
H4148 C4134 0.960 . S
H4149 C4135 0.961 . S
H4150 C4135 0.961 . S
H4151 C4135 0.961 . S
H4152 C4136 0.931 . S
H4153 C4141 0.930 . S
H4154 C4142 0.956 . S
H4155 C4142 0.961 . S
H4156 C4142 0.961 . S
H4157 C4143 0.958 . S
H4158 C4143 0.961 . S
H4159 C4143 0.960 . S
C4160 C4161 1.391 . S
C4160 C4162 1.394 . S
C4160 H4176 0.931 . S
C4161 C4160 1.391 . S
C4161 C4165 1.376 . S
C4162 C4160 1.394 . S
C4162 C4163 1.369 . S
C4162 C4166 1.531 . S
C4163 C4162 1.369 . S
C4163 C4164 1.410 . S
C4163 C4171 1.503 . S
C4164 C4163 1.410 . S
C4164 C4165 1.392 . S
C4164 C4167 1.511 . S
C4165 C4161 1.376 . S
C4165 C4164 1.392 . S
C4165 H4177 0.929 . S
C4166 C4162 1.531 . S
C4166 H4178 0.960 . S
C4166 H4179 0.962 . S
C4166 H4180 0.960 . S
C4167 C4164 1.511 . S
C4167 H4181 0.961 . S
C4167 H4182 0.961 . S
C4167 H4183 0.961 . S
C4168 C4169 1.370 . S
C4168 C4170 1.363 . S
C4168 H4184 0.931 . S
C4169 C4168 1.370 . S
C4169 C4173 1.408 . S
C4170 C4168 1.363 . S
C4170 C4171 1.370 . S
C4170 C4174 1.524 . S
C4171 C4163 1.503 . S
C4171 C4170 1.370 . S
C4171 C4172 1.403 . S
C4172 C4171 1.403 . S
C4172 C4173 1.404 . S
C4172 C4175 1.539 . S
C4173 C4169 1.408 . S
C4173 C4172 1.404 . S
C4173 H4185 0.930 . S
C4174 C4170 1.524 . S
C4174 H4186 0.956 . S
C4174 H4187 0.961 . S
C4174 H4188 0.961 . S
C4175 C4172 1.539 . S
C4175 H4189 0.958 . S
C4175 H4190 0.961 . S
C4175 H4191 0.960 . S
H4176 C4160 0.931 . S
H4177 C4165 0.929 . S
H4178 C4166 0.960 . S
H4179 C4166 0.962 . S
H4180 C4166 0.960 . S
H4181 C4167 0.961 . S
H4182 C4167 0.961 . S
H4183 C4167 0.961 . S
H4184 C4168 0.931 . S
H4185 C4173 0.930 . S
H4186 C4174 0.956 . S
H4187 C4174 0.961 . S
H4188 C4174 0.961 . S
H4189 C4175 0.958 . S
H4190 C4175 0.961 . S
H4191 C4175 0.960 . S
C4192 C4193 1.391 . S
C4192 C4194 1.394 . S
C4192 H4208 0.931 . S
C4193 C4192 1.391 . S
C4193 C4197 1.376 . S
C4194 C4192 1.394 . S
C4194 C4195 1.369 . S
C4194 C4198 1.531 . S
C4195 C4194 1.369 . S
C4195 C4196 1.410 . S
C4195 C4203 1.503 . S
C4196 C4195 1.410 . S
C4196 C4197 1.392 . S
C4196 C4199 1.511 . S
C4197 C4193 1.376 . S
C4197 C4196 1.392 . S
C4197 H4209 0.929 . S
C4198 C4194 1.531 . S
C4198 H4210 0.960 . S
C4198 H4211 0.962 . S
C4198 H4212 0.960 . S
C4199 C4196 1.511 . S
C4199 H4213 0.961 . S
C4199 H4214 0.961 . S
C4199 H4215 0.961 . S
C4200 C4201 1.370 . S
C4200 C4202 1.363 . S
C4200 H4216 0.931 . S
C4201 C4200 1.370 . S
C4201 C4205 1.408 . S
C4202 C4200 1.363 . S
C4202 C4203 1.370 . S
C4202 C4206 1.524 . S
C4203 C4195 1.503 . S
C4203 C4202 1.370 . S
C4203 C4204 1.403 . S
C4204 C4203 1.403 . S
C4204 C4205 1.404 . S
C4204 C4207 1.539 . S
C4205 C4201 1.408 . S
C4205 C4204 1.404 . S
C4205 H4217 0.930 . S
C4206 C4202 1.524 . S
C4206 H4218 0.956 . S
C4206 H4219 0.961 . S
C4206 H4220 0.961 . S
C4207 C4204 1.539 . S
C4207 H4221 0.958 . S
C4207 H4222 0.961 . S
C4207 H4223 0.960 . S
H4208 C4192 0.931 . S
H4209 C4197 0.929 . S
H4210 C4198 0.960 . S
H4211 C4198 0.962 . S
H4212 C4198 0.960 . S
H4213 C4199 0.961 . S
H4214 C4199 0.961 . S
H4215 C4199 0.961 . S
H4216 C4200 0.931 . S
H4217 C4205 0.930 . S
H4218 C4206 0.956 . S
H4219 C4206 0.961 . S
H4220 C4206 0.961 . S
H4221 C4207 0.958 . S
H4222 C4207 0.961 . S
H4223 C4207 0.960 . S
C4224 C4225 1.391 . S
C4224 C4226 1.394 . S
C4224 H4240 0.931 . S
C4225 C4224 1.391 . S
C4225 C4229 1.376 . S
C4226 C4224 1.394 . S
C4226 C4227 1.369 . S
C4226 C4230 1.531 . S
C4227 C4226 1.369 . S
C4227 C4228 1.410 . S
C4227 C4235 1.503 . S
C4228 C4227 1.410 . S
C4228 C4229 1.392 . S
C4228 C4231 1.511 . S
C4229 C4225 1.376 . S
C4229 C4228 1.392 . S
C4229 H4241 0.929 . S
C4230 C4226 1.531 . S
C4230 H4242 0.960 . S
C4230 H4243 0.962 . S
C4230 H4244 0.960 . S
C4231 C4228 1.511 . S
C4231 H4245 0.961 . S
C4231 H4246 0.961 . S
C4231 H4247 0.961 . S
C4232 C4233 1.370 . S
C4232 C4234 1.363 . S
C4232 H4248 0.931 . S
C4233 C4232 1.370 . S
C4233 C4237 1.408 . S
C4234 C4232 1.363 . S
C4234 C4235 1.370 . S
C4234 C4238 1.524 . S
C4235 C4227 1.503 . S
C4235 C4234 1.370 . S
C4235 C4236 1.403 . S
C4236 C4235 1.403 . S
C4236 C4237 1.404 . S
C4236 C4239 1.539 . S
C4237 C4233 1.408 . S
C4237 C4236 1.404 . S
C4237 H4249 0.930 . S
C4238 C4234 1.524 . S
C4238 H4250 0.956 . S
C4238 H4251 0.961 . S
C4238 H4252 0.961 . S
C4239 C4236 1.539 . S
C4239 H4253 0.958 . S
C4239 H4254 0.961 . S
C4239 H4255 0.960 . S
H4240 C4224 0.931 . S
H4241 C4229 0.929 . S
H4242 C4230 0.960 . S
H4243 C4230 0.962 . S
H4244 C4230 0.960 . S
H4245 C4231 0.961 . S
H4246 C4231 0.961 . S
H4247 C4231 0.961 . S
H4248 C4232 0.931 . S
H4249 C4237 0.930 . S
H4250 C4238 0.956 . S
H4251 C4238 0.961 . S
H4252 C4238 0.961 . S
H4253 C4239 0.958 . S
H4254 C4239 0.961 . S
H4255 C4239 0.960 . S
C4256 C4257 1.391 . S
C4256 C4258 1.394 . S
C4256 H4272 0.931 . S
C4257 C4256 1.391 . S
C4257 C4261 1.376 . S
C4258 C4256 1.394 . S
C4258 C4259 1.369 . S
C4258 C4262 1.531 . S
C4259 C4258 1.369 . S
C4259 C4260 1.410 . S
C4259 C4267 1.503 . S
C4260 C4259 1.410 . S
C4260 C4261 1.392 . S
C4260 C4263 1.511 . S
C4261 C4257 1.376 . S
C4261 C4260 1.392 . S
C4261 H4273 0.929 . S
C4262 C4258 1.531 . S
C4262 H4274 0.960 . S
C4262 H4275 0.962 . S
C4262 H4276 0.960 . S
C4263 C4260 1.511 . S
C4263 H4277 0.961 . S
C4263 H4278 0.961 . S
C4263 H4279 0.961 . S
C4264 C4265 1.370 . S
C4264 C4266 1.363 . S
C4264 H4280 0.931 . S
C4265 C4264 1.370 . S
C4265 C4269 1.408 . S
C4266 C4264 1.363 . S
C4266 C4267 1.370 . S
C4266 C4270 1.524 . S
C4267 C4259 1.503 . S
C4267 C4266 1.370 . S
C4267 C4268 1.403 . S
C4268 C4267 1.403 . S
C4268 C4269 1.404 . S
C4268 C4271 1.539 . S
C4269 C4265 1.408 . S
C4269 C4268 1.404 . S
C4269 H4281 0.930 . S
C4270 C4266 1.524 . S
C4270 H4282 0.956 . S
C4270 H4283 0.961 . S
C4270 H4284 0.961 . S
C4271 C4268 1.539 . S
C4271 H4285 0.958 . S
C4271 H4286 0.961 . S
C4271 H4287 0.960 . S
H4272 C4256 0.931 . S
H4273 C4261 0.929 . S
H4274 C4262 0.960 . S
H4275 C4262 0.962 . S
H4276 C4262 0.960 . S
H4277 C4263 0.961 . S
H4278 C4263 0.961 . S
H4279 C4263 0.961 . S
H4280 C4264 0.931 . S
H4281 C4269 0.930 . S
H4282 C4270 0.956 . S
H4283 C4270 0.961 . S
H4284 C4270 0.961 . S
H4285 C4271 0.958 . S
H4286 C4271 0.961 . S
H4287 C4271 0.960 . S
C4288 C4289 1.391 . S
C4288 C4290 1.394 . S
C4288 H4304 0.931 . S
C4289 C4288 1.391 . S
C4289 C4293 1.376 . S
C4290 C4288 1.394 . S
C4290 C4291 1.369 . S
C4290 C4294 1.531 . S
C4291 C4290 1.369 . S
C4291 C4292 1.410 . S
C4291 C4299 1.503 . S
C4292 C4291 1.410 . S
C4292 C4293 1.392 . S
C4292 C4295 1.511 . S
C4293 C4289 1.376 . S
C4293 C4292 1.392 . S
C4293 H4305 0.929 . S
C4294 C4290 1.531 . S
C4294 H4306 0.960 . S
C4294 H4307 0.962 . S
C4294 H4308 0.960 . S
C4295 C4292 1.511 . S
C4295 H4309 0.961 . S
C4295 H4310 0.961 . S
C4295 H4311 0.961 . S
C4296 C4297 1.370 . S
C4296 C4298 1.363 . S
C4296 H4312 0.931 . S
C4297 C4296 1.370 . S
C4297 C4301 1.408 . S
C4298 C4296 1.363 . S
C4298 C4299 1.370 . S
C4298 C4302 1.524 . S
C4299 C4291 1.503 . S
C4299 C4298 1.370 . S
C4299 C4300 1.403 . S
C4300 C4299 1.403 . S
C4300 C4301 1.404 . S
C4300 C4303 1.539 . S
C4301 C4297 1.408 . S
C4301 C4300 1.404 . S
C4301 H4313 0.930 . S
C4302 C4298 1.524 . S
C4302 H4314 0.956 . S
C4302 H4315 0.961 . S
C4302 H4316 0.961 . S
C4303 C4300 1.539 . S
C4303 H4317 0.958 . S
C4303 H4318 0.961 . S
C4303 H4319 0.960 . S
H4304 C4288 0.931 . S
H4305 C4293 0.929 . S
H4306 C4294 0.960 . S
H4307 C4294 0.962 . S
H4308 C4294 0.960 . S
H4309 C4295 0.961 . S
H4310 C4295 0.961 . S
H4311 C4295 0.961 . S
H4312 C4296 0.931 . S
H4313 C4301 0.930 . S
H4314 C4302 0.956 . S
H4315 C4302 0.961 . S
H4316 C4302 0.961 . S
H4317 C4303 0.958 . S
H4318 C4303 0.961 . S
H4319 C4303 0.960 . S
C4320 C4321 1.391 . S
C4320 C4322 1.394 . S
C4320 H4336 0.931 . S
C4321 C4320 1.391 . S
C4321 C4325 1.376 . S
C4322 C4320 1.394 . S
C4322 C4323 1.369 . S
C4322 C4326 1.531 . S
C4323 C4322 1.369 . S
C4323 C4324 1.410 . S
C4323 C4331 1.503 . S
C4324 C4323 1.410 . S
C4324 C4325 1.392 . S
C4324 C4327 1.511 . S
C4325 C4321 1.376 . S
C4325 C4324 1.392 . S
C4325 H4337 0.929 . S
C4326 C4322 1.531 . S
C4326 H4338 0.960 . S
C4326 H4339 0.962 . S
C4326 H4340 0.960 . S
C4327 C4324 1.511 . S
C4327 H4341 0.961 . S
C4327 H4342 0.961 . S
C4327 H4343 0.961 . S
C4328 C4329 1.370 . S
C4328 C4330 1.363 . S
C4328 H4344 0.931 . S
C4329 C4328 1.370 . S
C4329 C4333 1.408 . S
C4330 C4328 1.363 . S
C4330 C4331 1.370 . S
C4330 C4334 1.524 . S
C4331 C4323 1.503 . S
C4331 C4330 1.370 . S
C4331 C4332 1.403 . S
C4332 C4331 1.403 . S
C4332 C4333 1.404 . S
C4332 C4335 1.539 . S
C4333 C4329 1.408 . S
C4333 C4332 1.404 . S
C4333 H4345 0.930 . S
C4334 C4330 1.524 . S
C4334 H4346 0.956 . S
C4334 H4347 0.961 . S
C4334 H4348 0.961 . S
C4335 C4332 1.539 . S
C4335 H4349 0.958 . S
C4335 H4350 0.961 . S
C4335 H4351 0.960 . S
H4336 C4320 0.931 . S
H4337 C4325 0.929 . S
H4338 C4326 0.960 . S
H4339 C4326 0.962 . S
H4340 C4326 0.960 . S
H4341 C4327 0.961 . S
H4342 C4327 0.961 . S
H4343 C4327 0.961 . S
H4344 C4328 0.931 . S
H4345 C4333 0.930 . S
H4346 C4334 0.956 . S
H4347 C4334 0.961 . S
H4348 C4334 0.961 . S
H4349 C4335 0.958 . S
H4350 C4335 0.961 . S
H4351 C4335 0.960 . S
C4352 C4353 1.391 . S
C4352 C4354 1.394 . S
C4352 H4368 0.931 . S
C4353 C4352 1.391 . S
C4353 C4357 1.376 . S
C4354 C4352 1.394 . S
C4354 C4355 1.369 . S
C4354 C4358 1.531 . S
C4355 C4354 1.369 . S
C4355 C4356 1.410 . S
C4355 C4363 1.503 . S
C4356 C4355 1.410 . S
C4356 C4357 1.392 . S
C4356 C4359 1.511 . S
C4357 C4353 1.376 . S
C4357 C4356 1.392 . S
C4357 H4369 0.929 . S
C4358 C4354 1.531 . S
C4358 H4370 0.960 . S
C4358 H4371 0.962 . S
C4358 H4372 0.960 . S
C4359 C4356 1.511 . S
C4359 H4373 0.961 . S
C4359 H4374 0.961 . S
C4359 H4375 0.961 . S
C4360 C4361 1.370 . S
C4360 C4362 1.363 . S
C4360 H4376 0.931 . S
C4361 C4360 1.370 . S
C4361 C4365 1.408 . S
C4362 C4360 1.363 . S
C4362 C4363 1.370 . S
C4362 C4366 1.524 . S
C4363 C4355 1.503 . S
C4363 C4362 1.370 . S
C4363 C4364 1.403 . S
C4364 C4363 1.403 . S
C4364 C4365 1.404 . S
C4364 C4367 1.539 . S
C4365 C4361 1.408 . S
C4365 C4364 1.404 . S
C4365 H4377 0.930 . S
C4366 C4362 1.524 . S
C4366 H4378 0.956 . S
C4366 H4379 0.961 . S
C4366 H4380 0.961 . S
C4367 C4364 1.539 . S
C4367 H4381 0.958 . S
C4367 H4382 0.961 . S
C4367 H4383 0.960 . S
H4368 C4352 0.931 . S
H4369 C4357 0.929 . S
H4370 C4358 0.960 . S
H4371 C4358 0.962 . S
H4372 C4358 0.960 . S
H4373 C4359 0.961 . S
H4374 C4359 0.961 . S
H4375 C4359 0.961 . S
H4376 C4360 0.931 . S
H4377 C4365 0.930 . S
H4378 C4366 0.956 . S
H4379 C4366 0.961 . S
H4380 C4366 0.961 . S
H4381 C4367 0.958 . S
H4382 C4367 0.961 . S
H4383 C4367 0.960 . S
C4384 C4385 1.391 . S
C4384 C4386 1.394 . S
C4384 H4400 0.931 . S
C4385 C4384 1.391 . S
C4385 C4389 1.376 . S
C4386 C4384 1.394 . S
C4386 C4387 1.369 . S
C4386 C4390 1.531 . S
C4387 C4386 1.369 . S
C4387 C4388 1.410 . S
C4387 C4395 1.503 . S
C4388 C4387 1.410 . S
C4388 C4389 1.392 . S
C4388 C4391 1.511 . S
C4389 C4385 1.376 . S
C4389 C4388 1.392 . S
C4389 H4401 0.929 . S
C4390 C4386 1.531 . S
C4390 H4402 0.960 . S
C4390 H4403 0.962 . S
C4390 H4404 0.960 . S
C4391 C4388 1.511 . S
C4391 H4405 0.961 . S
C4391 H4406 0.961 . S
C4391 H4407 0.961 . S
C4392 C4393 1.370 . S
C4392 C4394 1.363 . S
C4392 H4408 0.931 . S
C4393 C4392 1.370 . S
C4393 C4397 1.408 . S
C4394 C4392 1.363 . S
C4394 C4395 1.370 . S
C4394 C4398 1.524 . S
C4395 C4387 1.503 . S
C4395 C4394 1.370 . S
C4395 C4396 1.403 . S
C4396 C4395 1.403 . S
C4396 C4397 1.404 . S
C4396 C4399 1.539 . S
C4397 C4393 1.408 . S
C4397 C4396 1.404 . S
C4397 H4409 0.930 . S
C4398 C4394 1.524 . S
C4398 H4410 0.956 . S
C4398 H4411 0.961 . S
C4398 H4412 0.961 . S
C4399 C4396 1.539 . S
C4399 H4413 0.958 . S
C4399 H4414 0.961 . S
C4399 H4415 0.960 . S
H4400 C4384 0.931 . S
H4401 C4389 0.929 . S
H4402 C4390 0.960 . S
H4403 C4390 0.962 . S
H4404 C4390 0.960 . S
H4405 C4391 0.961 . S
H4406 C4391 0.961 . S
H4407 C4391 0.961 . S
H4408 C4392 0.931 . S
H4409 C4397 0.930 . S
H4410 C4398 0.956 . S
H4411 C4398 0.961 . S
H4412 C4398 0.961 . S
H4413 C4399 0.958 . S
H4414 C4399 0.961 . S
H4415 C4399 0.960 . S
C4416 C4417 1.391 . S
C4416 C4418 1.394 . S
C4416 H4432 0.931 . S
C4417 C4416 1.391 . S
C4417 C4421 1.376 . S
C4418 C4416 1.394 . S
C4418 C4419 1.369 . S
C4418 C4422 1.531 . S
C4419 C4418 1.369 . S
C4419 C4420 1.410 . S
C4419 C4427 1.503 . S
C4420 C4419 1.410 . S
C4420 C4421 1.392 . S
C4420 C4423 1.511 . S
C4421 C4417 1.376 . S
C4421 C4420 1.392 . S
C4421 H4433 0.929 . S
C4422 C4418 1.531 . S
C4422 H4434 0.960 . S
C4422 H4435 0.962 . S
C4422 H4436 0.960 . S
C4423 C4420 1.511 . S
C4423 H4437 0.961 . S
C4423 H4438 0.961 . S
C4423 H4439 0.961 . S
C4424 C4425 1.370 . S
C4424 C4426 1.363 . S
C4424 H4440 0.931 . S
C4425 C4424 1.370 . S
C4425 C4429 1.408 . S
C4426 C4424 1.363 . S
C4426 C4427 1.370 . S
C4426 C4430 1.524 . S
C4427 C4419 1.503 . S
C4427 C4426 1.370 . S
C4427 C4428 1.403 . S
C4428 C4427 1.403 . S
C4428 C4429 1.404 . S
C4428 C4431 1.539 . S
C4429 C4425 1.408 . S
C4429 C4428 1.404 . S
C4429 H4441 0.930 . S
C4430 C4426 1.524 . S
C4430 H4442 0.956 . S
C4430 H4443 0.961 . S
C4430 H4444 0.961 . S
C4431 C4428 1.539 . S
C4431 H4445 0.958 . S
C4431 H4446 0.961 . S
C4431 H4447 0.960 . S
H4432 C4416 0.931 . S
H4433 C4421 0.929 . S
H4434 C4422 0.960 . S
H4435 C4422 0.962 . S
H4436 C4422 0.960 . S
H4437 C4423 0.961 . S
H4438 C4423 0.961 . S
H4439 C4423 0.961 . S
H4440 C4424 0.931 . S
H4441 C4429 0.930 . S
H4442 C4430 0.956 . S
H4443 C4430 0.961 . S
H4444 C4430 0.961 . S
H4445 C4431 0.958 . S
H4446 C4431 0.961 . S
H4447 C4431 0.960 . S
C4448 C4449 1.391 . S
C4448 C4450 1.394 . S
C4448 H4464 0.931 . S
C4449 C4448 1.391 . S
C4449 C4453 1.376 . S
C4450 C4448 1.394 . S
C4450 C4451 1.369 . S
C4450 C4454 1.531 . S
C4451 C4450 1.369 . S
C4451 C4452 1.410 . S
C4451 C4459 1.503 . S
C4452 C4451 1.410 . S
C4452 C4453 1.392 . S
C4452 C4455 1.511 . S
C4453 C4449 1.376 . S
C4453 C4452 1.392 . S
C4453 H4465 0.929 . S
C4454 C4450 1.531 . S
C4454 H4466 0.960 . S
C4454 H4467 0.962 . S
C4454 H4468 0.960 . S
C4455 C4452 1.511 . S
C4455 H4469 0.961 . S
C4455 H4470 0.961 . S
C4455 H4471 0.961 . S
C4456 C4457 1.370 . S
C4456 C4458 1.363 . S
C4456 H4472 0.931 . S
C4457 C4456 1.370 . S
C4457 C4461 1.408 . S
C4458 C4456 1.363 . S
C4458 C4459 1.370 . S
C4458 C4462 1.524 . S
C4459 C4451 1.503 . S
C4459 C4458 1.370 . S
C4459 C4460 1.403 . S
C4460 C4459 1.403 . S
C4460 C4461 1.404 . S
C4460 C4463 1.539 . S
C4461 C4457 1.408 . S
C4461 C4460 1.404 . S
C4461 H4473 0.930 . S
C4462 C4458 1.524 . S
C4462 H4474 0.956 . S
C4462 H4475 0.961 . S
C4462 H4476 0.961 . S
C4463 C4460 1.539 . S
C4463 H4477 0.958 . S
C4463 H4478 0.961 . S
C4463 H4479 0.960 . S
H4464 C4448 0.931 . S
H4465 C4453 0.929 . S
H4466 C4454 0.960 . S
H4467 C4454 0.962 . S
H4468 C4454 0.960 . S
H4469 C4455 0.961 . S
H4470 C4455 0.961 . S
H4471 C4455 0.961 . S
H4472 C4456 0.931 . S
H4473 C4461 0.930 . S
H4474 C4462 0.956 . S
H4475 C4462 0.961 . S
H4476 C4462 0.961 . S
H4477 C4463 0.958 . S
H4478 C4463 0.961 . S
H4479 C4463 0.960 . S
C4480 C4481 1.391 . S
C4480 C4482 1.394 . S
C4480 H4496 0.931 . S
C4481 C4480 1.391 . S
C4481 C4485 1.376 . S
C4482 C4480 1.394 . S
C4482 C4483 1.369 . S
C4482 C4486 1.531 . S
C4483 C4482 1.369 . S
C4483 C4484 1.410 . S
C4483 C4491 1.503 . S
C4484 C4483 1.410 . S
C4484 C4485 1.392 . S
C4484 C4487 1.511 . S
C4485 C4481 1.376 . S
C4485 C4484 1.392 . S
C4485 H4497 0.929 . S
C4486 C4482 1.531 . S
C4486 H4498 0.960 . S
C4486 H4499 0.962 . S
C4486 H4500 0.960 . S
C4487 C4484 1.511 . S
C4487 H4501 0.961 . S
C4487 H4502 0.961 . S
C4487 H4503 0.961 . S
C4488 C4489 1.370 . S
C4488 C4490 1.363 . S
C4488 H4504 0.931 . S
C4489 C4488 1.370 . S
C4489 C4493 1.408 . S
C4490 C4488 1.363 . S
C4490 C4491 1.370 . S
C4490 C4494 1.524 . S
C4491 C4483 1.503 . S
C4491 C4490 1.370 . S
C4491 C4492 1.403 . S
C4492 C4491 1.403 . S
C4492 C4493 1.404 . S
C4492 C4495 1.539 . S
C4493 C4489 1.408 . S
C4493 C4492 1.404 . S
C4493 H4505 0.930 . S
C4494 C4490 1.524 . S
C4494 H4506 0.956 . S
C4494 H4507 0.961 . S
C4494 H4508 0.961 . S
C4495 C4492 1.539 . S
C4495 H4509 0.958 . S
C4495 H4510 0.961 . S
C4495 H4511 0.960 . S
H4496 C4480 0.931 . S
H4497 C4485 0.929 . S
H4498 C4486 0.960 . S
H4499 C4486 0.962 . S
H4500 C4486 0.960 . S
H4501 C4487 0.961 . S
H4502 C4487 0.961 . S
H4503 C4487 0.961 . S
H4504 C4488 0.931 . S
H4505 C4493 0.930 . S
H4506 C4494 0.956 . S
H4507 C4494 0.961 . S
H4508 C4494 0.961 . S
H4509 C4495 0.958 . S
H4510 C4495 0.961 . S
H4511 C4495 0.960 . S
C4512 C4513 1.391 . S
C4512 C4514 1.394 . S
C4512 H4528 0.931 . S
C4513 C4512 1.391 . S
C4513 C4517 1.376 . S
C4514 C4512 1.394 . S
C4514 C4515 1.369 . S
C4514 C4518 1.531 . S
C4515 C4514 1.369 . S
C4515 C4516 1.410 . S
C4515 C4523 1.503 . S
C4516 C4515 1.410 . S
C4516 C4517 1.392 . S
C4516 C4519 1.511 . S
C4517 C4513 1.376 . S
C4517 C4516 1.392 . S
C4517 H4529 0.929 . S
C4518 C4514 1.531 . S
C4518 H4530 0.960 . S
C4518 H4531 0.962 . S
C4518 H4532 0.960 . S
C4519 C4516 1.511 . S
C4519 H4533 0.961 . S
C4519 H4534 0.961 . S
C4519 H4535 0.961 . S
C4520 C4521 1.370 . S
C4520 C4522 1.363 . S
C4520 H4536 0.931 . S
C4521 C4520 1.370 . S
C4521 C4525 1.408 . S
C4522 C4520 1.363 . S
C4522 C4523 1.370 . S
C4522 C4526 1.524 . S
C4523 C4515 1.503 . S
C4523 C4522 1.370 . S
C4523 C4524 1.403 . S
C4524 C4523 1.403 . S
C4524 C4525 1.404 . S
C4524 C4527 1.539 . S
C4525 C4521 1.408 . S
C4525 C4524 1.404 . S
C4525 H4537 0.930 . S
C4526 C4522 1.524 . S
C4526 H4538 0.956 . S
C4526 H4539 0.961 . S
C4526 H4540 0.961 . S
C4527 C4524 1.539 . S
C4527 H4541 0.958 . S
C4527 H4542 0.961 . S
C4527 H4543 0.960 . S
H4528 C4512 0.931 . S
H4529 C4517 0.929 . S
H4530 C4518 0.960 . S
H4531 C4518 0.962 . S
H4532 C4518 0.960 . S
H4533 C4519 0.961 . S
H4534 C4519 0.961 . S
H4535 C4519 0.961 . S
H4536 C4520 0.931 . S
H4537 C4525 0.930 . S
H4538 C4526 0.956 . S
H4539 C4526 0.961 . S
H4540 C4526 0.961 . S
H4541 C4527 0.958 . S
H4542 C4527 0.961 . S
H4543 C4527 0.960 . S
C4544 C4545 1.391 . S
C4544 C4546 1.394 . S
C4544 H4560 0.931 . S
C4545 C4544 1.391 . S
C4545 C4549 1.376 . S
C4546 C4544 1.394 . S
C4546 C4547 1.369 . S
C4546 C4550 1.531 . S
C4547 C4546 1.369 . S
C4547 C4548 1.410 . S
C4547 C4555 1.503 . S
C4548 C4547 1.410 . S
C4548 C4549 1.392 . S
C4548 C4551 1.511 . S
C4549 C4545 1.376 . S
C4549 C4548 1.392 . S
C4549 H4561 0.929 . S
C4550 C4546 1.531 . S
C4550 H4562 0.960 . S
C4550 H4563 0.962 . S
C4550 H4564 0.960 . S
C4551 C4548 1.511 . S
C4551 H4565 0.961 . S
C4551 H4566 0.961 . S
C4551 H4567 0.961 . S
C4552 C4553 1.370 . S
C4552 C4554 1.363 . S
C4552 H4568 0.931 . S
C4553 C4552 1.370 . S
C4553 C4557 1.408 . S
C4554 C4552 1.363 . S
C4554 C4555 1.370 . S
C4554 C4558 1.524 . S
C4555 C4547 1.503 . S
C4555 C4554 1.370 . S
C4555 C4556 1.403 . S
C4556 C4555 1.403 . S
C4556 C4557 1.404 . S
C4556 C4559 1.539 . S
C4557 C4553 1.408 . S
C4557 C4556 1.404 . S
C4557 H4569 0.930 . S
C4558 C4554 1.524 . S
C4558 H4570 0.956 . S
C4558 H4571 0.961 . S
C4558 H4572 0.961 . S
C4559 C4556 1.539 . S
C4559 H4573 0.958 . S
C4559 H4574 0.961 . S
C4559 H4575 0.960 . S
H4560 C4544 0.931 . S
H4561 C4549 0.929 . S
H4562 C4550 0.960 . S
H4563 C4550 0.962 . S
H4564 C4550 0.960 . S
H4565 C4551 0.961 . S
H4566 C4551 0.961 . S
H4567 C4551 0.961 . S
H4568 C4552 0.931 . S
H4569 C4557 0.930 . S
H4570 C4558 0.956 . S
H4571 C4558 0.961 . S
H4572 C4558 0.961 . S
H4573 C4559 0.958 . S
H4574 C4559 0.961 . S
H4575 C4559 0.960 . S
C4576 C4577 1.391 . S
C4576 C4578 1.394 . S
C4576 H4592 0.931 . S
C4577 C4576 1.391 . S
C4577 C4581 1.376 . S
C4578 C4576 1.394 . S
C4578 C4579 1.369 . S
C4578 C4582 1.531 . S
C4579 C4578 1.369 . S
C4579 C4580 1.410 . S
C4579 C4587 1.503 . S
C4580 C4579 1.410 . S
C4580 C4581 1.392 . S
C4580 C4583 1.511 . S
C4581 C4577 1.376 . S
C4581 C4580 1.392 . S
C4581 H4593 0.929 . S
C4582 C4578 1.531 . S
C4582 H4594 0.960 . S
C4582 H4595 0.962 . S
C4582 H4596 0.960 . S
C4583 C4580 1.511 . S
C4583 H4597 0.961 . S
C4583 H4598 0.961 . S
C4583 H4599 0.961 . S
C4584 C4585 1.370 . S
C4584 C4586 1.363 . S
C4584 H4600 0.931 . S
C4585 C4584 1.370 . S
C4585 C4589 1.408 . S
C4586 C4584 1.363 . S
C4586 C4587 1.370 . S
C4586 C4590 1.524 . S
C4587 C4579 1.503 . S
C4587 C4586 1.370 . S
C4587 C4588 1.403 . S
C4588 C4587 1.403 . S
C4588 C4589 1.404 . S
C4588 C4591 1.539 . S
C4589 C4585 1.408 . S
C4589 C4588 1.404 . S
C4589 H4601 0.930 . S
C4590 C4586 1.524 . S
C4590 H4602 0.956 . S
C4590 H4603 0.961 . S
C4590 H4604 0.961 . S
C4591 C4588 1.539 . S
C4591 H4605 0.958 . S
C4591 H4606 0.961 . S
C4591 H4607 0.960 . S
H4592 C4576 0.931 . S
H4593 C4581 0.929 . S
H4594 C4582 0.960 . S
H4595 C4582 0.962 . S
H4596 C4582 0.960 . S
H4597 C4583 0.961 . S
H4598 C4583 0.961 . S
H4599 C4583 0.961 . S
H4600 C4584 0.931 . S
H4601 C4589 0.930 . S
H4602 C4590 0.956 . S
H4603 C4590 0.961 . S
H4604 C4590 0.961 . S
H4605 C4591 0.958 . S
H4606 C4591 0.961 . S
H4607 C4591 0.960 . S
C4608 C4609 1.391 . S
C4608 C4610 1.394 . S
C4608 H4624 0.931 . S
C4609 C4608 1.391 . S
C4609 C4613 1.376 . S
C4610 C4608 1.394 . S
C4610 C4611 1.369 . S
C4610 C4614 1.531 . S
C4611 C4610 1.369 . S
C4611 C4612 1.410 . S
C4611 C4619 1.503 . S
C4612 C4611 1.410 . S
C4612 C4613 1.392 . S
C4612 C4615 1.511 . S
C4613 C4609 1.376 . S
C4613 C4612 1.392 . S
C4613 H4625 0.929 . S
C4614 C4610 1.531 . S
C4614 H4626 0.960 . S
C4614 H4627 0.962 . S
C4614 H4628 0.960 . S
C4615 C4612 1.511 . S
C4615 H4629 0.961 . S
C4615 H4630 0.961 . S
C4615 H4631 0.961 . S
C4616 C4617 1.370 . S
C4616 C4618 1.363 . S
C4616 H4632 0.931 . S
C4617 C4616 1.370 . S
C4617 C4621 1.408 . S
C4618 C4616 1.363 . S
C4618 C4619 1.370 . S
C4618 C4622 1.524 . S
C4619 C4611 1.503 . S
C4619 C4618 1.370 . S
C4619 C4620 1.403 . S
C4620 C4619 1.403 . S
C4620 C4621 1.404 . S
C4620 C4623 1.539 . S
C4621 C4617 1.408 . S
C4621 C4620 1.404 . S
C4621 H4633 0.930 . S
C4622 C4618 1.524 . S
C4622 H4634 0.956 . S
C4622 H4635 0.961 . S
C4622 H4636 0.961 . S
C4623 C4620 1.539 . S
C4623 H4637 0.958 . S
C4623 H4638 0.961 . S
C4623 H4639 0.960 . S
H4624 C4608 0.931 . S
H4625 C4613 0.929 . S
H4626 C4614 0.960 . S
H4627 C4614 0.962 . S
H4628 C4614 0.960 . S
H4629 C4615 0.961 . S
H4630 C4615 0.961 . S
H4631 C4615 0.961 . S
H4632 C4616 0.931 . S
H4633 C4621 0.930 . S
H4634 C4622 0.956 . S
H4635 C4622 0.961 . S
H4636 C4622 0.961 . S
H4637 C4623 0.958 . S
H4638 C4623 0.961 . S
H4639 C4623 0.960 . S
C4640 C4641 1.391 . S
C4640 C4642 1.394 . S
C4640 H4656 0.931 . S
C4641 C4640 1.391 . S
C4641 C4645 1.376 . S
C4642 C4640 1.394 . S
C4642 C4643 1.369 . S
C4642 C4646 1.531 . S
C4643 C4642 1.369 . S
C4643 C4644 1.410 . S
C4643 C4651 1.503 . S
C4644 C4643 1.410 . S
C4644 C4645 1.392 . S
C4644 C4647 1.511 . S
C4645 C4641 1.376 . S
C4645 C4644 1.392 . S
C4645 H4657 0.929 . S
C4646 C4642 1.531 . S
C4646 H4658 0.960 . S
C4646 H4659 0.962 . S
C4646 H4660 0.960 . S
C4647 C4644 1.511 . S
C4647 H4661 0.961 . S
C4647 H4662 0.961 . S
C4647 H4663 0.961 . S
C4648 C4649 1.370 . S
C4648 C4650 1.363 . S
C4648 H4664 0.931 . S
C4649 C4648 1.370 . S
C4649 C4653 1.408 . S
C4650 C4648 1.363 . S
C4650 C4651 1.370 . S
C4650 C4654 1.524 . S
C4651 C4643 1.503 . S
C4651 C4650 1.370 . S
C4651 C4652 1.403 . S
C4652 C4651 1.403 . S
C4652 C4653 1.404 . S
C4652 C4655 1.539 . S
C4653 C4649 1.408 . S
C4653 C4652 1.404 . S
C4653 H4665 0.930 . S
C4654 C4650 1.524 . S
C4654 H4666 0.956 . S
C4654 H4667 0.961 . S
C4654 H4668 0.961 . S
C4655 C4652 1.539 . S
C4655 H4669 0.958 . S
C4655 H4670 0.961 . S
C4655 H4671 0.960 . S
H4656 C4640 0.931 . S
H4657 C4645 0.929 . S
H4658 C4646 0.960 . S
H4659 C4646 0.962 . S
H4660 C4646 0.960 . S
H4661 C4647 0.961 . S
H4662 C4647 0.961 . S
H4663 C4647 0.961 . S
H4664 C4648 0.931 . S
H4665 C4653 0.930 . S
H4666 C4654 0.956 . S
H4667 C4654 0.961 . S
H4668 C4654 0.961 . S
H4669 C4655 0.958 . S
H4670 C4655 0.961 . S
H4671 C4655 0.960 . S
C4672 C4673 1.391 . S
C4672 C4674 1.394 . S
C4672 H4688 0.931 . S
C4673 C4672 1.391 . S
C4673 C4677 1.376 . S
C4674 C4672 1.394 . S
C4674 C4675 1.369 . S
C4674 C4678 1.531 . S
C4675 C4674 1.369 . S
C4675 C4676 1.410 . S
C4675 C4683 1.503 . S
C4676 C4675 1.410 . S
C4676 C4677 1.392 . S
C4676 C4679 1.511 . S
C4677 C4673 1.376 . S
C4677 C4676 1.392 . S
C4677 H4689 0.929 . S
C4678 C4674 1.531 . S
C4678 H4690 0.960 . S
C4678 H4691 0.962 . S
C4678 H4692 0.960 . S
C4679 C4676 1.511 . S
C4679 H4693 0.961 . S
C4679 H4694 0.961 . S
C4679 H4695 0.961 . S
C4680 C4681 1.370 . S
C4680 C4682 1.363 . S
C4680 H4696 0.931 . S
C4681 C4680 1.370 . S
C4681 C4685 1.408 . S
C4682 C4680 1.363 . S
C4682 C4683 1.370 . S
C4682 C4686 1.524 . S
C4683 C4675 1.503 . S
C4683 C4682 1.370 . S
C4683 C4684 1.403 . S
C4684 C4683 1.403 . S
C4684 C4685 1.404 . S
C4684 C4687 1.539 . S
C4685 C4681 1.408 . S
C4685 C4684 1.404 . S
C4685 H4697 0.930 . S
C4686 C4682 1.524 . S
C4686 H4698 0.956 . S
C4686 H4699 0.961 . S
C4686 H4700 0.961 . S
C4687 C4684 1.539 . S
C4687 H4701 0.958 . S
C4687 H4702 0.961 . S
C4687 H4703 0.960 . S
H4688 C4672 0.931 . S
H4689 C4677 0.929 . S
H4690 C4678 0.960 . S
H4691 C4678 0.962 . S
H4692 C4678 0.960 . S
H4693 C4679 0.961 . S
H4694 C4679 0.961 . S
H4695 C4679 0.961 . S
H4696 C4680 0.931 . S
H4697 C4685 0.930 . S
H4698 C4686 0.956 . S
H4699 C4686 0.961 . S
H4700 C4686 0.961 . S
H4701 C4687 0.958 . S
H4702 C4687 0.961 . S
H4703 C4687 0.960 . S
C4704 C4705 1.391 . S
C4704 C4706 1.394 . S
C4704 H4720 0.931 . S
C4705 C4704 1.391 . S
C4705 C4709 1.376 . S
C4706 C4704 1.394 . S
C4706 C4707 1.369 . S
C4706 C4710 1.531 . S
C4707 C4706 1.369 . S
C4707 C4708 1.410 . S
C4707 C4715 1.503 . S
C4708 C4707 1.410 . S
C4708 C4709 1.392 . S
C4708 C4711 1.511 . S
C4709 C4705 1.376 . S
C4709 C4708 1.392 . S
C4709 H4721 0.929 . S
C4710 C4706 1.531 . S
C4710 H4722 0.960 . S
C4710 H4723 0.962 . S
C4710 H4724 0.960 . S
C4711 C4708 1.511 . S
C4711 H4725 0.961 . S
C4711 H4726 0.961 . S
C4711 H4727 0.961 . S
C4712 C4713 1.370 . S
C4712 C4714 1.363 . S
C4712 H4728 0.931 . S
C4713 C4712 1.370 . S
C4713 C4717 1.408 . S
C4714 C4712 1.363 . S
C4714 C4715 1.370 . S
C4714 C4718 1.524 . S
C4715 C4707 1.503 . S
C4715 C4714 1.370 . S
C4715 C4716 1.403 . S
C4716 C4715 1.403 . S
C4716 C4717 1.404 . S
C4716 C4719 1.539 . S
C4717 C4713 1.408 . S
C4717 C4716 1.404 . S
C4717 H4729 0.930 . S
C4718 C4714 1.524 . S
C4718 H4730 0.956 . S
C4718 H4731 0.961 . S
C4718 H4732 0.961 . S
C4719 C4716 1.539 . S
C4719 H4733 0.958 . S
C4719 H4734 0.961 . S
C4719 H4735 0.960 . S
H4720 C4704 0.931 . S
H4721 C4709 0.929 . S
H4722 C4710 0.960 . S
H4723 C4710 0.962 . S
H4724 C4710 0.960 . S
H4725 C4711 0.961 . S
H4726 C4711 0.961 . S
H4727 C4711 0.961 . S
H4728 C4712 0.931 . S
H4729 C4717 0.930 . S
H4730 C4718 0.956 . S
H4731 C4718 0.961 . S
H4732 C4718 0.961 . S
H4733 C4719 0.958 . S
H4734 C4719 0.961 . S
H4735 C4719 0.960 . S
C4736 C4737 1.391 . S
C4736 C4738 1.394 . S
C4736 H4752 0.931 . S
C4737 C4736 1.391 . S
C4737 C4741 1.376 . S
C4738 C4736 1.394 . S
C4738 C4739 1.369 . S
C4738 C4742 1.531 . S
C4739 C4738 1.369 . S
C4739 C4740 1.410 . S
C4739 C4747 1.503 . S
C4740 C4739 1.410 . S
C4740 C4741 1.392 . S
C4740 C4743 1.511 . S
C4741 C4737 1.376 . S
C4741 C4740 1.392 . S
C4741 H4753 0.929 . S
C4742 C4738 1.531 . S
C4742 H4754 0.960 . S
C4742 H4755 0.962 . S
C4742 H4756 0.960 . S
C4743 C4740 1.511 . S
C4743 H4757 0.961 . S
C4743 H4758 0.961 . S
C4743 H4759 0.961 . S
C4744 C4745 1.370 . S
C4744 C4746 1.363 . S
C4744 H4760 0.931 . S
C4745 C4744 1.370 . S
C4745 C4749 1.408 . S
C4746 C4744 1.363 . S
C4746 C4747 1.370 . S
C4746 C4750 1.524 . S
C4747 C4739 1.503 . S
C4747 C4746 1.370 . S
C4747 C4748 1.403 . S
C4748 C4747 1.403 . S
C4748 C4749 1.404 . S
C4748 C4751 1.539 . S
C4749 C4745 1.408 . S
C4749 C4748 1.404 . S
C4749 H4761 0.930 . S
C4750 C4746 1.524 . S
C4750 H4762 0.956 . S
C4750 H4763 0.961 . S
C4750 H4764 0.961 . S
C4751 C4748 1.539 . S
C4751 H4765 0.958 . S
C4751 H4766 0.961 . S
C4751 H4767 0.960 . S
H4752 C4736 0.931 . S
H4753 C4741 0.929 . S
H4754 C4742 0.960 . S
H4755 C4742 0.962 . S
H4756 C4742 0.960 . S
H4757 C4743 0.961 . S
H4758 C4743 0.961 . S
H4759 C4743 0.961 . S
H4760 C4744 0.931 . S
H4761 C4749 0.930 . S
H4762 C4750 0.956 . S
H4763 C4750 0.961 . S
H4764 C4750 0.961 . S
H4765 C4751 0.958 . S
H4766 C4751 0.961 . S
H4767 C4751 0.960 . S
C4768 C4769 1.391 . S
C4768 C4770 1.394 . S
C4768 H4784 0.931 . S
C4769 C4768 1.391 . S
C4769 C4773 1.376 . S
C4770 C4768 1.394 . S
C4770 C4771 1.369 . S
C4770 C4774 1.531 . S
C4771 C4770 1.369 . S
C4771 C4772 1.410 . S
C4771 C4779 1.503 . S
C4772 C4771 1.410 . S
C4772 C4773 1.392 . S
C4772 C4775 1.511 . S
C4773 C4769 1.376 . S
C4773 C4772 1.392 . S
C4773 H4785 0.929 . S
C4774 C4770 1.531 . S
C4774 H4786 0.960 . S
C4774 H4787 0.962 . S
C4774 H4788 0.960 . S
C4775 C4772 1.511 . S
C4775 H4789 0.961 . S
C4775 H4790 0.961 . S
C4775 H4791 0.961 . S
C4776 C4777 1.370 . S
C4776 C4778 1.363 . S
C4776 H4792 0.931 . S
C4777 C4776 1.370 . S
C4777 C4781 1.408 . S
C4778 C4776 1.363 . S
C4778 C4779 1.370 . S
C4778 C4782 1.524 . S
C4779 C4771 1.503 . S
C4779 C4778 1.370 . S
C4779 C4780 1.403 . S
C4780 C4779 1.403 . S
C4780 C4781 1.404 . S
C4780 C4783 1.539 . S
C4781 C4777 1.408 . S
C4781 C4780 1.404 . S
C4781 H4793 0.930 . S
C4782 C4778 1.524 . S
C4782 H4794 0.956 . S
C4782 H4795 0.961 . S
C4782 H4796 0.961 . S
C4783 C4780 1.539 . S
C4783 H4797 0.958 . S
C4783 H4798 0.961 . S
C4783 H4799 0.960 . S
H4784 C4768 0.931 . S
H4785 C4773 0.929 . S
H4786 C4774 0.960 . S
H4787 C4774 0.962 . S
H4788 C4774 0.960 . S
H4789 C4775 0.961 . S
H4790 C4775 0.961 . S
H4791 C4775 0.961 . S
H4792 C4776 0.931 . S
H4793 C4781 0.930 . S
H4794 C4782 0.956 . S
H4795 C4782 0.961 . S
H4796 C4782 0.961 . S
H4797 C4783 0.958 . S
H4798 C4783 0.961 . S
H4799 C4783 0.960 . S
C4800 C4801 1.391 . S
C4800 C4802 1.394 . S
C4800 H4816 0.931 . S
C4801 C4800 1.391 . S
C4801 C4805 1.376 . S
C4802 C4800 1.394 . S
C4802 C4803 1.369 . S
C4802 C4806 1.531 . S
C4803 C4802 1.369 . S
C4803 C4804 1.410 . S
C4803 C4811 1.503 . S
C4804 C4803 1.410 . S
C4804 C4805 1.392 . S
C4804 C4807 1.511 . S
C4805 C4801 1.376 . S
C4805 C4804 1.392 . S
C4805 H4817 0.929 . S
C4806 C4802 1.531 . S
C4806 H4818 0.960 . S
C4806 H4819 0.962 . S
C4806 H4820 0.960 . S
C4807 C4804 1.511 . S
C4807 H4821 0.961 . S
C4807 H4822 0.961 . S
C4807 H4823 0.961 . S
C4808 C4809 1.370 . S
C4808 C4810 1.363 . S
C4808 H4824 0.931 . S
C4809 C4808 1.370 . S
C4809 C4813 1.408 . S
C4810 C4808 1.363 . S
C4810 C4811 1.370 . S
C4810 C4814 1.524 . S
C4811 C4803 1.503 . S
C4811 C4810 1.370 . S
C4811 C4812 1.403 . S
C4812 C4811 1.403 . S
C4812 C4813 1.404 . S
C4812 C4815 1.539 . S
C4813 C4809 1.408 . S
C4813 C4812 1.404 . S
C4813 H4825 0.930 . S
C4814 C4810 1.524 . S
C4814 H4826 0.956 . S
C4814 H4827 0.961 . S
C4814 H4828 0.961 . S
C4815 C4812 1.539 . S
C4815 H4829 0.958 . S
C4815 H4830 0.961 . S
C4815 H4831 0.960 . S
H4816 C4800 0.931 . S
H4817 C4805 0.929 . S
H4818 C4806 0.960 . S
H4819 C4806 0.962 . S
H4820 C4806 0.960 . S
H4821 C4807 0.961 . S
H4822 C4807 0.961 . S
H4823 C4807 0.961 . S
H4824 C4808 0.931 . S
H4825 C4813 0.930 . S
H4826 C4814 0.956 . S
H4827 C4814 0.961 . S
H4828 C4814 0.961 . S
H4829 C4815 0.958 . S
H4830 C4815 0.961 . S
H4831 C4815 0.960 . S
C4832 C4833 1.391 . S
C4832 C4834 1.394 . S
C4832 H4848 0.931 . S
C4833 C4832 1.391 . S
C4833 C4837 1.376 . S
C4834 C4832 1.394 . S
C4834 C4835 1.369 . S
C4834 C4838 1.531 . S
C4835 C4834 1.369 . S
C4835 C4836 1.410 . S
C4835 C4843 1.503 . S
C4836 C4835 1.410 . S
C4836 C4837 1.392 . S
C4836 C4839 1.511 . S
C4837 C4833 1.376 . S
C4837 C4836 1.392 . S
C4837 H4849 0.929 . S
C4838 C4834 1.531 . S
C4838 H4850 0.960 . S
C4838 H4851 0.962 . S
C4838 H4852 0.960 . S
C4839 C4836 1.511 . S
C4839 H4853 0.961 . S
C4839 H4854 0.961 . S
C4839 H4855 0.961 . S
C4840 C4841 1.370 . S
C4840 C4842 1.363 . S
C4840 H4856 0.931 . S
C4841 C4840 1.370 . S
C4841 C4845 1.408 . S
C4842 C4840 1.363 . S
C4842 C4843 1.370 . S
C4842 C4846 1.524 . S
C4843 C4835 1.503 . S
C4843 C4842 1.370 . S
C4843 C4844 1.403 . S
C4844 C4843 1.403 . S
C4844 C4845 1.404 . S
C4844 C4847 1.539 . S
C4845 C4841 1.408 . S
C4845 C4844 1.404 . S
C4845 H4857 0.930 . S
C4846 C4842 1.524 . S
C4846 H4858 0.956 . S
C4846 H4859 0.961 . S
C4846 H4860 0.961 . S
C4847 C4844 1.539 . S
C4847 H4861 0.958 . S
C4847 H4862 0.961 . S
C4847 H4863 0.960 . S
H4848 C4832 0.931 . S
H4849 C4837 0.929 . S
H4850 C4838 0.960 . S
H4851 C4838 0.962 . S
H4852 C4838 0.960 . S
H4853 C4839 0.961 . S
H4854 C4839 0.961 . S
H4855 C4839 0.961 . S
H4856 C4840 0.931 . S
H4857 C4845 0.930 . S
H4858 C4846 0.956 . S
H4859 C4846 0.961 . S
H4860 C4846 0.961 . S
H4861 C4847 0.958 . S
H4862 C4847 0.961 . S
H4863 C4847 0.960 . S
C4864 C4865 1.391 . S
C4864 C4866 1.394 . S
C4864 H4880 0.931 . S
C4865 C4864 1.391 . S
C4865 C4869 1.376 . S
C4866 C4864 1.394 . S
C4866 C4867 1.369 . S
C4866 C4870 1.531 . S
C4867 C4866 1.369 . S
C4867 C4868 1.410 . S
C4867 C4875 1.503 . S
C4868 C4867 1.410 . S
C4868 C4869 1.392 . S
C4868 C4871 1.511 . S
C4869 C4865 1.376 . S
C4869 C4868 1.392 . S
C4869 H4881 0.929 . S
C4870 C4866 1.531 . S
C4870 H4882 0.960 . S
C4870 H4883 0.962 . S
C4870 H4884 0.960 . S
C4871 C4868 1.511 . S
C4871 H4885 0.961 . S
C4871 H4886 0.961 . S
C4871 H4887 0.961 . S
C4872 C4873 1.370 . S
C4872 C4874 1.363 . S
C4872 H4888 0.931 . S
C4873 C4872 1.370 . S
C4873 C4877 1.408 . S
C4874 C4872 1.363 . S
C4874 C4875 1.370 . S
C4874 C4878 1.524 . S
C4875 C4867 1.503 . S
C4875 C4874 1.370 . S
C4875 C4876 1.403 . S
C4876 C4875 1.403 . S
C4876 C4877 1.404 . S
C4876 C4879 1.539 . S
C4877 C4873 1.408 . S
C4877 C4876 1.404 . S
C4877 H4889 0.930 . S
C4878 C4874 1.524 . S
C4878 H4890 0.956 . S
C4878 H4891 0.961 . S
C4878 H4892 0.961 . S
C4879 C4876 1.539 . S
C4879 H4893 0.958 . S
C4879 H4894 0.961 . S
C4879 H4895 0.960 . S
H4880 C4864 0.931 . S
H4881 C4869 0.929 . S
H4882 C4870 0.960 . S
H4883 C4870 0.962 . S
H4884 C4870 0.960 . S
H4885 C4871 0.961 . S
H4886 C4871 0.961 . S
H4887 C4871 0.961 . S
H4888 C4872 0.931 . S
H4889 C4877 0.930 . S
H4890 C4878 0.956 . S
H4891 C4878 0.961 . S
H4892 C4878 0.961 . S
H4893 C4879 0.958 . S
H4894 C4879 0.961 . S
H4895 C4879 0.960 . S
C4896 C4897 1.391 . S
C4896 C4898 1.394 . S
C4896 H4912 0.931 . S
C4897 C4896 1.391 . S
C4897 C4901 1.376 . S
C4898 C4896 1.394 . S
C4898 C4899 1.369 . S
C4898 C4902 1.531 . S
C4899 C4898 1.369 . S
C4899 C4900 1.410 . S
C4899 C4907 1.503 . S
C4900 C4899 1.410 . S
C4900 C4901 1.392 . S
C4900 C4903 1.511 . S
C4901 C4897 1.376 . S
C4901 C4900 1.392 . S
C4901 H4913 0.929 . S
C4902 C4898 1.531 . S
C4902 H4914 0.960 . S
C4902 H4915 0.962 . S
C4902 H4916 0.960 . S
C4903 C4900 1.511 . S
C4903 H4917 0.961 . S
C4903 H4918 0.961 . S
C4903 H4919 0.961 . S
C4904 C4905 1.370 . S
C4904 C4906 1.363 . S
C4904 H4920 0.931 . S
C4905 C4904 1.370 . S
C4905 C4909 1.408 . S
C4906 C4904 1.363 . S
C4906 C4907 1.370 . S
C4906 C4910 1.524 . S
C4907 C4899 1.503 . S
C4907 C4906 1.370 . S
C4907 C4908 1.403 . S
C4908 C4907 1.403 . S
C4908 C4909 1.404 . S
C4908 C4911 1.539 . S
C4909 C4905 1.408 . S
C4909 C4908 1.404 . S
C4909 H4921 0.930 . S
C4910 C4906 1.524 . S
C4910 H4922 0.956 . S
C4910 H4923 0.961 . S
C4910 H4924 0.961 . S
C4911 C4908 1.539 . S
C4911 H4925 0.958 . S
C4911 H4926 0.961 . S
C4911 H4927 0.960 . S
H4912 C4896 0.931 . S
H4913 C4901 0.929 . S
H4914 C4902 0.960 . S
H4915 C4902 0.962 . S
H4916 C4902 0.960 . S
H4917 C4903 0.961 . S
H4918 C4903 0.961 . S
H4919 C4903 0.961 . S
H4920 C4904 0.931 . S
H4921 C4909 0.930 . S
H4922 C4910 0.956 . S
H4923 C4910 0.961 . S
H4924 C4910 0.961 . S
H4925 C4911 0.958 . S
H4926 C4911 0.961 . S
H4927 C4911 0.960 . S
C4928 C4929 1.391 . S
C4928 C4930 1.394 . S
C4928 H4944 0.931 . S
C4929 C4928 1.391 . S
C4929 C4933 1.376 . S
C4930 C4928 1.394 . S
C4930 C4931 1.369 . S
C4930 C4934 1.531 . S
C4931 C4930 1.369 . S
C4931 C4932 1.410 . S
C4931 C4939 1.503 . S
C4932 C4931 1.410 . S
C4932 C4933 1.392 . S
C4932 C4935 1.511 . S
C4933 C4929 1.376 . S
C4933 C4932 1.392 . S
C4933 H4945 0.929 . S
C4934 C4930 1.531 . S
C4934 H4946 0.960 . S
C4934 H4947 0.962 . S
C4934 H4948 0.960 . S
C4935 C4932 1.511 . S
C4935 H4949 0.961 . S
C4935 H4950 0.961 . S
C4935 H4951 0.961 . S
C4936 C4937 1.370 . S
C4936 C4938 1.363 . S
C4936 H4952 0.931 . S
C4937 C4936 1.370 . S
C4937 C4941 1.408 . S
C4938 C4936 1.363 . S
C4938 C4939 1.370 . S
C4938 C4942 1.524 . S
C4939 C4931 1.503 . S
C4939 C4938 1.370 . S
C4939 C4940 1.403 . S
C4940 C4939 1.403 . S
C4940 C4941 1.404 . S
C4940 C4943 1.539 . S
C4941 C4937 1.408 . S
C4941 C4940 1.404 . S
C4941 H4953 0.930 . S
C4942 C4938 1.524 . S
C4942 H4954 0.956 . S
C4942 H4955 0.961 . S
C4942 H4956 0.961 . S
C4943 C4940 1.539 . S
C4943 H4957 0.958 . S
C4943 H4958 0.961 . S
C4943 H4959 0.960 . S
H4944 C4928 0.931 . S
H4945 C4933 0.929 . S
H4946 C4934 0.960 . S
H4947 C4934 0.962 . S
H4948 C4934 0.960 . S
H4949 C4935 0.961 . S
H4950 C4935 0.961 . S
H4951 C4935 0.961 . S
H4952 C4936 0.931 . S
H4953 C4941 0.930 . S
H4954 C4942 0.956 . S
H4955 C4942 0.961 . S
H4956 C4942 0.961 . S
H4957 C4943 0.958 . S
H4958 C4943 0.961 . S
H4959 C4943 0.960 . S
C4960 C4961 1.391 . S
C4960 C4962 1.394 . S
C4960 H4976 0.931 . S
C4961 C4960 1.391 . S
C4961 C4965 1.376 . S
C4962 C4960 1.394 . S
C4962 C4963 1.369 . S
C4962 C4966 1.531 . S
C4963 C4962 1.369 . S
C4963 C4964 1.410 . S
C4963 C4971 1.503 . S
C4964 C4963 1.410 . S
C4964 C4965 1.392 . S
C4964 C4967 1.511 . S
C4965 C4961 1.376 . S
C4965 C4964 1.392 . S
C4965 H4977 0.929 . S
C4966 C4962 1.531 . S
C4966 H4978 0.960 . S
C4966 H4979 0.962 . S
C4966 H4980 0.960 . S
C4967 C4964 1.511 . S
C4967 H4981 0.961 . S
C4967 H4982 0.961 . S
C4967 H4983 0.961 . S
C4968 C4969 1.370 . S
C4968 C4970 1.363 . S
C4968 H4984 0.931 . S
C4969 C4968 1.370 . S
C4969 C4973 1.408 . S
C4970 C4968 1.363 . S
C4970 C4971 1.370 . S
C4970 C4974 1.524 . S
C4971 C4963 1.503 . S
C4971 C4970 1.370 . S
C4971 C4972 1.403 . S
C4972 C4971 1.403 . S
C4972 C4973 1.404 . S
C4972 C4975 1.539 . S
C4973 C4969 1.408 . S
C4973 C4972 1.404 . S
C4973 H4985 0.930 . S
C4974 C4970 1.524 . S
C4974 H4986 0.956 . S
C4974 H4987 0.961 . S
C4974 H4988 0.961 . S
C4975 C4972 1.539 . S
C4975 H4989 0.958 . S
C4975 H4990 0.961 . S
C4975 H4991 0.960 . S
H4976 C4960 0.931 . S
H4977 C4965 0.929 . S
H4978 C4966 0.960 . S
H4979 C4966 0.962 . S
H4980 C4966 0.960 . S
H4981 C4967 0.961 . S
H4982 C4967 0.961 . S
H4983 C4967 0.961 . S
H4984 C4968 0.931 . S
H4985 C4973 0.930 . S
H4986 C4974 0.956 . S
H4987 C4974 0.961 . S
H4988 C4974 0.961 . S
H4989 C4975 0.958 . S
H4990 C4975 0.961 . S
H4991 C4975 0.960 . S
C4992 C4993 1.391 . S
C4992 C4994 1.394 . S
C4992 H5008 0.931 . S
C4993 C4992 1.391 . S
C4993 C4997 1.376 . S
C4994 C4992 1.394 . S
C4994 C4995 1.369 . S
C4994 C4998 1.531 . S
C4995 C4994 1.369 . S
C4995 C4996 1.410 . S
C4995 C5003 1.503 . S
C4996 C4995 1.410 . S
C4996 C4997 1.392 . S
C4996 C4999 1.511 . S
C4997 C4993 1.376 . S
C4997 C4996 1.392 . S
C4997 H5009 0.929 . S
C4998 C4994 1.531 . S
C4998 H5010 0.960 . S
C4998 H5011 0.962 . S
C4998 H5012 0.960 . S
C4999 C4996 1.511 . S
C4999 H5013 0.961 . S
C4999 H5014 0.961 . S
C4999 H5015 0.961 . S
C5000 C5001 1.370 . S
C5000 C5002 1.363 . S
C5000 H5016 0.931 . S
C5001 C5000 1.370 . S
C5001 C5005 1.408 . S
C5002 C5000 1.363 . S
C5002 C5003 1.370 . S
C5002 C5006 1.524 . S
C5003 C4995 1.503 . S
C5003 C5002 1.370 . S
C5003 C5004 1.403 . S
C5004 C5003 1.403 . S
C5004 C5005 1.404 . S
C5004 C5007 1.539 . S
C5005 C5001 1.408 . S
C5005 C5004 1.404 . S
C5005 H5017 0.930 . S
C5006 C5002 1.524 . S
C5006 H5018 0.956 . S
C5006 H5019 0.961 . S
C5006 H5020 0.961 . S
C5007 C5004 1.539 . S
C5007 H5021 0.958 . S
C5007 H5022 0.961 . S
C5007 H5023 0.960 . S
H5008 C4992 0.931 . S
H5009 C4997 0.929 . S
H5010 C4998 0.960 . S
H5011 C4998 0.962 . S
H5012 C4998 0.960 . S
H5013 C4999 0.961 . S
H5014 C4999 0.961 . S
H5015 C4999 0.961 . S
H5016 C5000 0.931 . S
H5017 C5005 0.930 . S
H5018 C5006 0.956 . S
H5019 C5006 0.961 . S
H5020 C5006 0.961 . S
H5021 C5007 0.958 . S
H5022 C5007 0.961 . S
H5023 C5007 0.960 . S
C5024 C5025 1.391 . S
C5024 C5026 1.394 . S
C5024 H5040 0.931 . S
C5025 C5024 1.391 . S
C5025 C5029 1.376 . S
C5026 C5024 1.394 . S
C5026 C5027 1.369 . S
C5026 C5030 1.531 . S
C5027 C5026 1.369 . S
C5027 C5028 1.410 . S
C5027 C5035 1.503 . S
C5028 C5027 1.410 . S
C5028 C5029 1.392 . S
C5028 C5031 1.511 . S
C5029 C5025 1.376 . S
C5029 C5028 1.392 . S
C5029 H5041 0.929 . S
C5030 C5026 1.531 . S
C5030 H5042 0.960 . S
C5030 H5043 0.962 . S
C5030 H5044 0.960 . S
C5031 C5028 1.511 . S
C5031 H5045 0.961 . S
C5031 H5046 0.961 . S
C5031 H5047 0.961 . S
C5032 C5033 1.370 . S
C5032 C5034 1.363 . S
C5032 H5048 0.931 . S
C5033 C5032 1.370 . S
C5033 C5037 1.408 . S
C5034 C5032 1.363 . S
C5034 C5035 1.370 . S
C5034 C5038 1.524 . S
C5035 C5027 1.503 . S
C5035 C5034 1.370 . S
C5035 C5036 1.403 . S
C5036 C5035 1.403 . S
C5036 C5037 1.404 . S
C5036 C5039 1.539 . S
C5037 C5033 1.408 . S
C5037 C5036 1.404 . S
C5037 H5049 0.930 . S
C5038 C5034 1.524 . S
C5038 H5050 0.956 . S
C5038 H5051 0.961 . S
C5038 H5052 0.961 . S
C5039 C5036 1.539 . S
C5039 H5053 0.958 . S
C5039 H5054 0.961 . S
C5039 H5055 0.960 . S
H5040 C5024 0.931 . S
H5041 C5029 0.929 . S
H5042 C5030 0.960 . S
H5043 C5030 0.962 . S
H5044 C5030 0.960 . S
H5045 C5031 0.961 . S
H5046 C5031 0.961 . S
H5047 C5031 0.961 . S
H5048 C5032 0.931 . S
H5049 C5037 0.930 . S
H5050 C5038 0.956 . S
H5051 C5038 0.961 . S
H5052 C5038 0.961 . S
H5053 C5039 0.958 . S
H5054 C5039 0.961 . S
H5055 C5039 0.960 . S
C5056 C5057 1.391 . S
C5056 C5058 1.394 . S
C5056 H5072 0.931 . S
C5057 C5056 1.391 . S
C5057 C5061 1.376 . S
C5058 C5056 1.394 . S
C5058 C5059 1.369 . S
C5058 C5062 1.531 . S
C5059 C5058 1.369 . S
C5059 C5060 1.410 . S
C5059 C5067 1.503 . S
C5060 C5059 1.410 . S
C5060 C5061 1.392 . S
C5060 C5063 1.511 . S
C5061 C5057 1.376 . S
C5061 C5060 1.392 . S
C5061 H5073 0.929 . S
C5062 C5058 1.531 . S
C5062 H5074 0.960 . S
C5062 H5075 0.962 . S
C5062 H5076 0.960 . S
C5063 C5060 1.511 . S
C5063 H5077 0.961 . S
C5063 H5078 0.961 . S
C5063 H5079 0.961 . S
C5064 C5065 1.370 . S
C5064 C5066 1.363 . S
C5064 H5080 0.931 . S
C5065 C5064 1.370 . S
C5065 C5069 1.408 . S
C5066 C5064 1.363 . S
C5066 C5067 1.370 . S
C5066 C5070 1.524 . S
C5067 C5059 1.503 . S
C5067 C5066 1.370 . S
C5067 C5068 1.403 . S
C5068 C5067 1.403 . S
C5068 C5069 1.404 . S
C5068 C5071 1.539 . S
C5069 C5065 1.408 . S
C5069 C5068 1.404 . S
C5069 H5081 0.930 . S
C5070 C5066 1.524 . S
C5070 H5082 0.956 . S
C5070 H5083 0.961 . S
C5070 H5084 0.961 . S
C5071 C5068 1.539 . S
C5071 H5085 0.958 . S
C5071 H5086 0.961 . S
C5071 H5087 0.960 . S
H5072 C5056 0.931 . S
H5073 C5061 0.929 . S
H5074 C5062 0.960 . S
H5075 C5062 0.962 . S
H5076 C5062 0.960 . S
H5077 C5063 0.961 . S
H5078 C5063 0.961 . S
H5079 C5063 0.961 . S
H5080 C5064 0.931 . S
H5081 C5069 0.930 . S
H5082 C5070 0.956 . S
H5083 C5070 0.961 . S
H5084 C5070 0.961 . S
H5085 C5071 0.958 . S
H5086 C5071 0.961 . S
H5087 C5071 0.960 . S
C5088 C5089 1.391 . S
C5088 C5090 1.394 . S
C5088 H5104 0.931 . S
C5089 C5088 1.391 . S
C5089 C5093 1.376 . S
C5090 C5088 1.394 . S
C5090 C5091 1.369 . S
C5090 C5094 1.531 . S
C5091 C5090 1.369 . S
C5091 C5092 1.410 . S
C5091 C5099 1.503 . S
C5092 C5091 1.410 . S
C5092 C5093 1.392 . S
C5092 C5095 1.511 . S
C5093 C5089 1.376 . S
C5093 C5092 1.392 . S
C5093 H5105 0.929 . S
C5094 C5090 1.531 . S
C5094 H5106 0.960 . S
C5094 H5107 0.962 . S
C5094 H5108 0.960 . S
C5095 C5092 1.511 . S
C5095 H5109 0.961 . S
C5095 H5110 0.961 . S
C5095 H5111 0.961 . S
C5096 C5097 1.370 . S
C5096 C5098 1.363 . S
C5096 H5112 0.931 . S
C5097 C5096 1.370 . S
C5097 C5101 1.408 . S
C5098 C5096 1.363 . S
C5098 C5099 1.370 . S
C5098 C5102 1.524 . S
C5099 C5091 1.503 . S
C5099 C5098 1.370 . S
C5099 C5100 1.403 . S
C5100 C5099 1.403 . S
C5100 C5101 1.404 . S
C5100 C5103 1.539 . S
C5101 C5097 1.408 . S
C5101 C5100 1.404 . S
C5101 H5113 0.930 . S
C5102 C5098 1.524 . S
C5102 H5114 0.956 . S
C5102 H5115 0.961 . S
C5102 H5116 0.961 . S
C5103 C5100 1.539 . S
C5103 H5117 0.958 . S
C5103 H5118 0.961 . S
C5103 H5119 0.960 . S
H5104 C5088 0.931 . S
H5105 C5093 0.929 . S
H5106 C5094 0.960 . S
H5107 C5094 0.962 . S
H5108 C5094 0.960 . S
H5109 C5095 0.961 . S
H5110 C5095 0.961 . S
H5111 C5095 0.961 . S
H5112 C5096 0.931 . S
H5113 C5101 0.930 . S
H5114 C5102 0.956 . S
H5115 C5102 0.961 . S
H5116 C5102 0.961 . S
H5117 C5103 0.958 . S
H5118 C5103 0.961 . S
H5119 C5103 0.960 . S
C5120 C5121 1.391 . S
C5120 C5122 1.394 . S
C5120 H5136 0.931 . S
C5121 C5120 1.391 . S
C5121 C5125 1.376 . S
C5122 C5120 1.394 . S
C5122 C5123 1.369 . S
C5122 C5126 1.531 . S
C5123 C5122 1.369 . S
C5123 C5124 1.410 . S
C5123 C5131 1.503 . S
C5124 C5123 1.410 . S
C5124 C5125 1.392 . S
C5124 C5127 1.511 . S
C5125 C5121 1.376 . S
C5125 C5124 1.392 . S
C5125 H5137 0.929 . S
C5126 C5122 1.531 . S
C5126 H5138 0.960 . S
C5126 H5139 0.962 . S
C5126 H5140 0.960 . S
C5127 C5124 1.511 . S
C5127 H5141 0.961 . S
C5127 H5142 0.961 . S
C5127 H5143 0.961 . S
C5128 C5129 1.370 . S
C5128 C5130 1.363 . S
C5128 H5144 0.931 . S
C5129 C5128 1.370 . S
C5129 C5133 1.408 . S
C5130 C5128 1.363 . S
C5130 C5131 1.370 . S
C5130 C5134 1.524 . S
C5131 C5123 1.503 . S
C5131 C5130 1.370 . S
C5131 C5132 1.403 . S
C5132 C5131 1.403 . S
C5132 C5133 1.404 . S
C5132 C5135 1.539 . S
C5133 C5129 1.408 . S
C5133 C5132 1.404 . S
C5133 H5145 0.930 . S
C5134 C5130 1.524 . S
C5134 H5146 0.956 . S
C5134 H5147 0.961 . S
C5134 H5148 0.961 . S
C5135 C5132 1.539 . S
C5135 H5149 0.958 . S
C5135 H5150 0.961 . S
C5135 H5151 0.960 . S
H5136 C5120 0.931 . S
H5137 C5125 0.929 . S
H5138 C5126 0.960 . S
H5139 C5126 0.962 . S
H5140 C5126 0.960 . S
H5141 C5127 0.961 . S
H5142 C5127 0.961 . S
H5143 C5127 0.961 . S
H5144 C5128 0.931 . S
H5145 C5133 0.930 . S
H5146 C5134 0.956 . S
H5147 C5134 0.961 . S
H5148 C5134 0.961 . S
H5149 C5135 0.958 . S
H5150 C5135 0.961 . S
H5151 C5135 0.960 . S
C5152 C5153 1.391 . S
C5152 C5154 1.394 . S
C5152 H5168 0.931 . S
C5153 C5152 1.391 . S
C5153 C5157 1.376 . S
C5154 C5152 1.394 . S
C5154 C5155 1.369 . S
C5154 C5158 1.531 . S
C5155 C5154 1.369 . S
C5155 C5156 1.410 . S
C5155 C5163 1.503 . S
C5156 C5155 1.410 . S
C5156 C5157 1.392 . S
C5156 C5159 1.511 . S
C5157 C5153 1.376 . S
C5157 C5156 1.392 . S
C5157 H5169 0.929 . S
C5158 C5154 1.531 . S
C5158 H5170 0.960 . S
C5158 H5171 0.962 . S
C5158 H5172 0.960 . S
C5159 C5156 1.511 . S
C5159 H5173 0.961 . S
C5159 H5174 0.961 . S
C5159 H5175 0.961 . S
C5160 C5161 1.370 . S
C5160 C5162 1.363 . S
C5160 H5176 0.931 . S
C5161 C5160 1.370 . S
C5161 C5165 1.408 . S
C5162 C5160 1.363 . S
C5162 C5163 1.370 . S
C5162 C5166 1.524 . S
C5163 C5155 1.503 . S
C5163 C5162 1.370 . S
C5163 C5164 1.403 . S
C5164 C5163 1.403 . S
C5164 C5165 1.404 . S
C5164 C5167 1.539 . S
C5165 C5161 1.408 . S
C5165 C5164 1.404 . S
C5165 H5177 0.930 . S
C5166 C5162 1.524 . S
C5166 H5178 0.956 . S
C5166 H5179 0.961 . S
C5166 H5180 0.961 . S
C5167 C5164 1.539 . S
C5167 H5181 0.958 . S
C5167 H5182 0.961 . S
C5167 H5183 0.960 . S
H5168 C5152 0.931 . S
H5169 C5157 0.929 . S
H5170 C5158 0.960 . S
H5171 C5158 0.962 . S
H5172 C5158 0.960 . S
H5173 C5159 0.961 . S
H5174 C5159 0.961 . S
H5175 C5159 0.961 . S
H5176 C5160 0.931 . S
H5177 C5165 0.930 . S
H5178 C5166 0.956 . S
H5179 C5166 0.961 . S
H5180 C5166 0.961 . S
H5181 C5167 0.958 . S
H5182 C5167 0.961 . S
H5183 C5167 0.960 . S
C5184 C5185 1.391 . S
C5184 C5186 1.394 . S
C5184 H5200 0.931 . S
C5185 C5184 1.391 . S
C5185 C5189 1.376 . S
C5186 C5184 1.394 . S
C5186 C5187 1.369 . S
C5186 C5190 1.531 . S
C5187 C5186 1.369 . S
C5187 C5188 1.410 . S
C5187 C5195 1.503 . S
C5188 C5187 1.410 . S
C5188 C5189 1.392 . S
C5188 C5191 1.511 . S
C5189 C5185 1.376 . S
C5189 C5188 1.392 . S
C5189 H5201 0.929 . S
C5190 C5186 1.531 . S
C5190 H5202 0.960 . S
C5190 H5203 0.962 . S
C5190 H5204 0.960 . S
C5191 C5188 1.511 . S
C5191 H5205 0.961 . S
C5191 H5206 0.961 . S
C5191 H5207 0.961 . S
C5192 C5193 1.370 . S
C5192 C5194 1.363 . S
C5192 H5208 0.931 . S
C5193 C5192 1.370 . S
C5193 C5197 1.408 . S
C5194 C5192 1.363 . S
C5194 C5195 1.370 . S
C5194 C5198 1.524 . S
C5195 C5187 1.503 . S
C5195 C5194 1.370 . S
C5195 C5196 1.403 . S
C5196 C5195 1.403 . S
C5196 C5197 1.404 . S
C5196 C5199 1.539 . S
C5197 C5193 1.408 . S
C5197 C5196 1.404 . S
C5197 H5209 0.930 . S
C5198 C5194 1.524 . S
C5198 H5210 0.956 . S
C5198 H5211 0.961 . S
C5198 H5212 0.961 . S
C5199 C5196 1.539 . S
C5199 H5213 0.958 . S
C5199 H5214 0.961 . S
C5199 H5215 0.960 . S
H5200 C5184 0.931 . S
H5201 C5189 0.929 . S
H5202 C5190 0.960 . S
H5203 C5190 0.962 . S
H5204 C5190 0.960 . S
H5205 C5191 0.961 . S
H5206 C5191 0.961 . S
H5207 C5191 0.961 . S
H5208 C5192 0.931 . S
H5209 C5197 0.930 . S
H5210 C5198 0.956 . S
H5211 C5198 0.961 . S
H5212 C5198 0.961 . S
H5213 C5199 0.958 . S
H5214 C5199 0.961 . S
H5215 C5199 0.960 . S
C5216 C5217 1.391 . S
C5216 C5218 1.394 . S
C5216 H5232 0.931 . S
C5217 C5216 1.391 . S
C5217 C5221 1.376 . S
C5218 C5216 1.394 . S
C5218 C5219 1.369 . S
C5218 C5222 1.531 . S
C5219 C5218 1.369 . S
C5219 C5220 1.410 . S
C5219 C5227 1.503 . S
C5220 C5219 1.410 . S
C5220 C5221 1.392 . S
C5220 C5223 1.511 . S
C5221 C5217 1.376 . S
C5221 C5220 1.392 . S
C5221 H5233 0.929 . S
C5222 C5218 1.531 . S
C5222 H5234 0.960 . S
C5222 H5235 0.962 . S
C5222 H5236 0.960 . S
C5223 C5220 1.511 . S
C5223 H5237 0.961 . S
C5223 H5238 0.961 . S
C5223 H5239 0.961 . S
C5224 C5225 1.370 . S
C5224 C5226 1.363 . S
C5224 H5240 0.931 . S
C5225 C5224 1.370 . S
C5225 C5229 1.408 . S
C5226 C5224 1.363 . S
C5226 C5227 1.370 . S
C5226 C5230 1.524 . S
C5227 C5219 1.503 . S
C5227 C5226 1.370 . S
C5227 C5228 1.403 . S
C5228 C5227 1.403 . S
C5228 C5229 1.404 . S
C5228 C5231 1.539 . S
C5229 C5225 1.408 . S
C5229 C5228 1.404 . S
C5229 H5241 0.930 . S
C5230 C5226 1.524 . S
C5230 H5242 0.956 . S
C5230 H5243 0.961 . S
C5230 H5244 0.961 . S
C5231 C5228 1.539 . S
C5231 H5245 0.958 . S
C5231 H5246 0.961 . S
C5231 H5247 0.960 . S
H5232 C5216 0.931 . S
H5233 C5221 0.929 . S
H5234 C5222 0.960 . S
H5235 C5222 0.962 . S
H5236 C5222 0.960 . S
H5237 C5223 0.961 . S
H5238 C5223 0.961 . S
H5239 C5223 0.961 . S
H5240 C5224 0.931 . S
H5241 C5229 0.930 . S
H5242 C5230 0.956 . S
H5243 C5230 0.961 . S
H5244 C5230 0.961 . S
H5245 C5231 0.958 . S
H5246 C5231 0.961 . S
H5247 C5231 0.960 . S
C5248 C5249 1.391 . S
C5248 C5250 1.394 . S
C5248 H5264 0.931 . S
C5249 C5248 1.391 . S
C5249 C5253 1.376 . S
C5250 C5248 1.394 . S
C5250 C5251 1.369 . S
C5250 C5254 1.531 . S
C5251 C5250 1.369 . S
C5251 C5252 1.410 . S
C5251 C5259 1.503 . S
C5252 C5251 1.410 . S
C5252 C5253 1.392 . S
C5252 C5255 1.511 . S
C5253 C5249 1.376 . S
C5253 C5252 1.392 . S
C5253 H5265 0.929 . S
C5254 C5250 1.531 . S
C5254 H5266 0.960 . S
C5254 H5267 0.962 . S
C5254 H5268 0.960 . S
C5255 C5252 1.511 . S
C5255 H5269 0.961 . S
C5255 H5270 0.961 . S
C5255 H5271 0.961 . S
C5256 C5257 1.370 . S
C5256 C5258 1.363 . S
C5256 H5272 0.931 . S
C5257 C5256 1.370 . S
C5257 C5261 1.408 . S
C5258 C5256 1.363 . S
C5258 C5259 1.370 . S
C5258 C5262 1.524 . S
C5259 C5251 1.503 . S
C5259 C5258 1.370 . S
C5259 C5260 1.403 . S
C5260 C5259 1.403 . S
C5260 C5261 1.404 . S
C5260 C5263 1.539 . S
C5261 C5257 1.408 . S
C5261 C5260 1.404 . S
C5261 H5273 0.930 . S
C5262 C5258 1.524 . S
C5262 H5274 0.956 . S
C5262 H5275 0.961 . S
C5262 H5276 0.961 . S
C5263 C5260 1.539 . S
C5263 H5277 0.958 . S
C5263 H5278 0.961 . S
C5263 H5279 0.960 . S
H5264 C5248 0.931 . S
H5265 C5253 0.929 . S
H5266 C5254 0.960 . S
H5267 C5254 0.962 . S
H5268 C5254 0.960 . S
H5269 C5255 0.961 . S
H5270 C5255 0.961 . S
H5271 C5255 0.961 . S
H5272 C5256 0.931 . S
H5273 C5261 0.930 . S
H5274 C5262 0.956 . S
H5275 C5262 0.961 . S
H5276 C5262 0.961 . S
H5277 C5263 0.958 . S
H5278 C5263 0.961 . S
H5279 C5263 0.960 . S
C5280 C5281 1.391 . S
C5280 C5282 1.394 . S
C5280 H5296 0.931 . S
C5281 C5280 1.391 . S
C5281 C5285 1.376 . S
C5282 C5280 1.394 . S
C5282 C5283 1.369 . S
C5282 C5286 1.531 . S
C5283 C5282 1.369 . S
C5283 C5284 1.410 . S
C5283 C5291 1.503 . S
C5284 C5283 1.410 . S
C5284 C5285 1.392 . S
C5284 C5287 1.511 . S
C5285 C5281 1.376 . S
C5285 C5284 1.392 . S
C5285 H5297 0.929 . S
C5286 C5282 1.531 . S
C5286 H5298 0.960 . S
C5286 H5299 0.962 . S
C5286 H5300 0.960 . S
C5287 C5284 1.511 . S
C5287 H5301 0.961 . S
C5287 H5302 0.961 . S
C5287 H5303 0.961 . S
C5288 C5289 1.370 . S
C5288 C5290 1.363 . S
C5288 H5304 0.931 . S
C5289 C5288 1.370 . S
C5289 C5293 1.408 . S
C5290 C5288 1.363 . S
C5290 C5291 1.370 . S
C5290 C5294 1.524 . S
C5291 C5283 1.503 . S
C5291 C5290 1.370 . S
C5291 C5292 1.403 . S
C5292 C5291 1.403 . S
C5292 C5293 1.404 . S
C5292 C5295 1.539 . S
C5293 C5289 1.408 . S
C5293 C5292 1.404 . S
C5293 H5305 0.930 . S
C5294 C5290 1.524 . S
C5294 H5306 0.956 . S
C5294 H5307 0.961 . S
C5294 H5308 0.961 . S
C5295 C5292 1.539 . S
C5295 H5309 0.958 . S
C5295 H5310 0.961 . S
C5295 H5311 0.960 . S
H5296 C5280 0.931 . S
H5297 C5285 0.929 . S
H5298 C5286 0.960 . S
H5299 C5286 0.962 . S
H5300 C5286 0.960 . S
H5301 C5287 0.961 . S
H5302 C5287 0.961 . S
H5303 C5287 0.961 . S
H5304 C5288 0.931 . S
H5305 C5293 0.930 . S
H5306 C5294 0.956 . S
H5307 C5294 0.961 . S
H5308 C5294 0.961 . S
H5309 C5295 0.958 . S
H5310 C5295 0.961 . S
H5311 C5295 0.960 . S
C5312 C5313 1.391 . S
C5312 C5314 1.394 . S
C5312 H5328 0.931 . S
C5313 C5312 1.391 . S
C5313 C5317 1.376 . S
C5314 C5312 1.394 . S
C5314 C5315 1.369 . S
C5314 C5318 1.531 . S
C5315 C5314 1.369 . S
C5315 C5316 1.410 . S
C5315 C5323 1.503 . S
C5316 C5315 1.410 . S
C5316 C5317 1.392 . S
C5316 C5319 1.511 . S
C5317 C5313 1.376 . S
C5317 C5316 1.392 . S
C5317 H5329 0.929 . S
C5318 C5314 1.531 . S
C5318 H5330 0.960 . S
C5318 H5331 0.962 . S
C5318 H5332 0.960 . S
C5319 C5316 1.511 . S
C5319 H5333 0.961 . S
C5319 H5334 0.961 . S
C5319 H5335 0.961 . S
C5320 C5321 1.370 . S
C5320 C5322 1.363 . S
C5320 H5336 0.931 . S
C5321 C5320 1.370 . S
C5321 C5325 1.408 . S
C5322 C5320 1.363 . S
C5322 C5323 1.370 . S
C5322 C5326 1.524 . S
C5323 C5315 1.503 . S
C5323 C5322 1.370 . S
C5323 C5324 1.403 . S
C5324 C5323 1.403 . S
C5324 C5325 1.404 . S
C5324 C5327 1.539 . S
C5325 C5321 1.408 . S
C5325 C5324 1.404 . S
C5325 H5337 0.930 . S
C5326 C5322 1.524 . S
C5326 H5338 0.956 . S
C5326 H5339 0.961 . S
C5326 H5340 0.961 . S
C5327 C5324 1.539 . S
C5327 H5341 0.958 . S
C5327 H5342 0.961 . S
C5327 H5343 0.960 . S
H5328 C5312 0.931 . S
H5329 C5317 0.929 . S
H5330 C5318 0.960 . S
H5331 C5318 0.962 . S
H5332 C5318 0.960 . S
H5333 C5319 0.961 . S
H5334 C5319 0.961 . S
H5335 C5319 0.961 . S
H5336 C5320 0.931 . S
H5337 C5325 0.930 . S
H5338 C5326 0.956 . S
H5339 C5326 0.961 . S
H5340 C5326 0.961 . S
H5341 C5327 0.958 . S
H5342 C5327 0.961 . S
H5343 C5327 0.960 . S
C5344 C5345 1.391 . S
C5344 C5346 1.394 . S
C5344 H5360 0.931 . S
C5345 C5344 1.391 . S
C5345 C5349 1.376 . S
C5346 C5344 1.394 . S
C5346 C5347 1.369 . S
C5346 C5350 1.531 . S
C5347 C5346 1.369 . S
C5347 C5348 1.410 . S
C5347 C5355 1.503 . S
C5348 C5347 1.410 . S
C5348 C5349 1.392 . S
C5348 C5351 1.511 . S
C5349 C5345 1.376 . S
C5349 C5348 1.392 . S
C5349 H5361 0.929 . S
C5350 C5346 1.531 . S
C5350 H5362 0.960 . S
C5350 H5363 0.962 . S
C5350 H5364 0.960 . S
C5351 C5348 1.511 . S
C5351 H5365 0.961 . S
C5351 H5366 0.961 . S
C5351 H5367 0.961 . S
C5352 C5353 1.370 . S
C5352 C5354 1.363 . S
C5352 H5368 0.931 . S
C5353 C5352 1.370 . S
C5353 C5357 1.408 . S
C5354 C5352 1.363 . S
C5354 C5355 1.370 . S
C5354 C5358 1.524 . S
C5355 C5347 1.503 . S
C5355 C5354 1.370 . S
C5355 C5356 1.403 . S
C5356 C5355 1.403 . S
C5356 C5357 1.404 . S
C5356 C5359 1.539 . S
C5357 C5353 1.408 . S
C5357 C5356 1.404 . S
C5357 H5369 0.930 . S
C5358 C5354 1.524 . S
C5358 H5370 0.956 . S
C5358 H5371 0.961 . S
C5358 H5372 0.961 . S
C5359 C5356 1.539 . S
C5359 H5373 0.958 . S
C5359 H5374 0.961 . S
C5359 H5375 0.960 . S
H5360 C5344 0.931 . S
H5361 C5349 0.929 . S
H5362 C5350 0.960 . S
H5363 C5350 0.962 . S
H5364 C5350 0.960 . S
H5365 C5351 0.961 . S
H5366 C5351 0.961 . S
H5367 C5351 0.961 . S
H5368 C5352 0.931 . S
H5369 C5357 0.930 . S
H5370 C5358 0.956 . S
H5371 C5358 0.961 . S
H5372 C5358 0.961 . S
H5373 C5359 0.958 . S
H5374 C5359 0.961 . S
H5375 C5359 0.960 . S
C5376 C5377 1.391 . S
C5376 C5378 1.394 . S
C5376 H5392 0.931 . S
C5377 C5376 1.391 . S
C5377 C5381 1.376 . S
C5378 C5376 1.394 . S
C5378 C5379 1.369 . S
C5378 C5382 1.531 . S
C5379 C5378 1.369 . S
C5379 C5380 1.410 . S
C5379 C5387 1.503 . S
C5380 C5379 1.410 . S
C5380 C5381 1.392 . S
C5380 C5383 1.511 . S
C5381 C5377 1.376 . S
C5381 C5380 1.392 . S
C5381 H5393 0.929 . S
C5382 C5378 1.531 . S
C5382 H5394 0.960 . S
C5382 H5395 0.962 . S
C5382 H5396 0.960 . S
C5383 C5380 1.511 . S
C5383 H5397 0.961 . S
C5383 H5398 0.961 . S
C5383 H5399 0.961 . S
C5384 C5385 1.370 . S
C5384 C5386 1.363 . S
C5384 H5400 0.931 . S
C5385 C5384 1.370 . S
C5385 C5389 1.408 . S
C5386 C5384 1.363 . S
C5386 C5387 1.370 . S
C5386 C5390 1.524 . S
C5387 C5379 1.503 . S
C5387 C5386 1.370 . S
C5387 C5388 1.403 . S
C5388 C5387 1.403 . S
C5388 C5389 1.404 . S
C5388 C5391 1.539 . S
C5389 C5385 1.408 . S
C5389 C5388 1.404 . S
C5389 H5401 0.930 . S
C5390 C5386 1.524 . S
C5390 H5402 0.956 . S
C5390 H5403 0.961 . S
C5390 H5404 0.961 . S
C5391 C5388 1.539 . S
C5391 H5405 0.958 . S
C5391 H5406 0.961 . S
C5391 H5407 0.960 . S
H5392 C5376 0.931 . S
H5393 C5381 0.929 . S
H5394 C5382 0.960 . S
H5395 C5382 0.962 . S
H5396 C5382 0.960 . S
H5397 C5383 0.961 . S
H5398 C5383 0.961 . S
H5399 C5383 0.961 . S
H5400 C5384 0.931 . S
H5401 C5389 0.930 . S
H5402 C5390 0.956 . S
H5403 C5390 0.961 . S
H5404 C5390 0.961 . S
H5405 C5391 0.958 . S
H5406 C5391 0.961 . S
H5407 C5391 0.960 . S
C5408 C5409 1.391 . S
C5408 C5410 1.394 . S
C5408 H5424 0.931 . S
C5409 C5408 1.391 . S
C5409 C5413 1.376 . S
C5410 C5408 1.394 . S
C5410 C5411 1.369 . S
C5410 C5414 1.531 . S
C5411 C5410 1.369 . S
C5411 C5412 1.410 . S
C5411 C5419 1.503 . S
C5412 C5411 1.410 . S
C5412 C5413 1.392 . S
C5412 C5415 1.511 . S
C5413 C5409 1.376 . S
C5413 C5412 1.392 . S
C5413 H5425 0.929 . S
C5414 C5410 1.531 . S
C5414 H5426 0.960 . S
C5414 H5427 0.962 . S
C5414 H5428 0.960 . S
C5415 C5412 1.511 . S
C5415 H5429 0.961 . S
C5415 H5430 0.961 . S
C5415 H5431 0.961 . S
C5416 C5417 1.370 . S
C5416 C5418 1.363 . S
C5416 H5432 0.931 . S
C5417 C5416 1.370 . S
C5417 C5421 1.408 . S
C5418 C5416 1.363 . S
C5418 C5419 1.370 . S
C5418 C5422 1.524 . S
C5419 C5411 1.503 . S
C5419 C5418 1.370 . S
C5419 C5420 1.403 . S
C5420 C5419 1.403 . S
C5420 C5421 1.404 . S
C5420 C5423 1.539 . S
C5421 C5417 1.408 . S
C5421 C5420 1.404 . S
C5421 H5433 0.930 . S
C5422 C5418 1.524 . S
C5422 H5434 0.956 . S
C5422 H5435 0.961 . S
C5422 H5436 0.961 . S
C5423 C5420 1.539 . S
C5423 H5437 0.958 . S
C5423 H5438 0.961 . S
C5423 H5439 0.960 . S
H5424 C5408 0.931 . S
H5425 C5413 0.929 . S
H5426 C5414 0.960 . S
H5427 C5414 0.962 . S
H5428 C5414 0.960 . S
H5429 C5415 0.961 . S
H5430 C5415 0.961 . S
H5431 C5415 0.961 . S
H5432 C5416 0.931 . S
H5433 C5421 0.930 . S
H5434 C5422 0.956 . S
H5435 C5422 0.961 . S
H5436 C5422 0.961 . S
H5437 C5423 0.958 . S
H5438 C5423 0.961 . S
H5439 C5423 0.960 . S
C5440 C5441 1.391 . S
C5440 C5442 1.394 . S
C5440 H5456 0.931 . S
C5441 C5440 1.391 . S
C5441 C5445 1.376 . S
C5442 C5440 1.394 . S
C5442 C5443 1.369 . S
C5442 C5446 1.531 . S
C5443 C5442 1.369 . S
C5443 C5444 1.410 . S
C5443 C5451 1.503 . S
C5444 C5443 1.410 . S
C5444 C5445 1.392 . S
C5444 C5447 1.511 . S
C5445 C5441 1.376 . S
C5445 C5444 1.392 . S
C5445 H5457 0.929 . S
C5446 C5442 1.531 . S
C5446 H5458 0.960 . S
C5446 H5459 0.962 . S
C5446 H5460 0.960 . S
C5447 C5444 1.511 . S
C5447 H5461 0.961 . S
C5447 H5462 0.961 . S
C5447 H5463 0.961 . S
C5448 C5449 1.370 . S
C5448 C5450 1.363 . S
C5448 H5464 0.931 . S
C5449 C5448 1.370 . S
C5449 C5453 1.408 . S
C5450 C5448 1.363 . S
C5450 C5451 1.370 . S
C5450 C5454 1.524 . S
C5451 C5443 1.503 . S
C5451 C5450 1.370 . S
C5451 C5452 1.403 . S
C5452 C5451 1.403 . S
C5452 C5453 1.404 . S
C5452 C5455 1.539 . S
C5453 C5449 1.408 . S
C5453 C5452 1.404 . S
C5453 H5465 0.930 . S
C5454 C5450 1.524 . S
C5454 H5466 0.956 . S
C5454 H5467 0.961 . S
C5454 H5468 0.961 . S
C5455 C5452 1.539 . S
C5455 H5469 0.958 . S
C5455 H5470 0.961 . S
C5455 H5471 0.960 . S
H5456 C5440 0.931 . S
H5457 C5445 0.929 . S
H5458 C5446 0.960 . S
H5459 C5446 0.962 . S
H5460 C5446 0.960 . S
H5461 C5447 0.961 . S
H5462 C5447 0.961 . S
H5463 C5447 0.961 . S
H5464 C5448 0.931 . S
H5465 C5453 0.930 . S
H5466 C5454 0.956 . S
H5467 C5454 0.961 . S
H5468 C5454 0.961 . S
H5469 C5455 0.958 . S
H5470 C5455 0.961 . S
H5471 C5455 0.960 . S
C5472 C5473 1.391 . S
C5472 C5474 1.394 . S
C5472 H5488 0.931 . S
C5473 C5472 1.391 . S
C5473 C5477 1.376 . S
C5474 C5472 1.394 . S
C5474 C5475 1.369 . S
C5474 C5478 1.531 . S
C5475 C5474 1.369 . S
C5475 C5476 1.410 . S
C5475 C5483 1.503 . S
C5476 C5475 1.410 . S
C5476 C5477 1.392 . S
C5476 C5479 1.511 . S
C5477 C5473 1.376 . S
C5477 C5476 1.392 . S
C5477 H5489 0.929 . S
C5478 C5474 1.531 . S
C5478 H5490 0.960 . S
C5478 H5491 0.962 . S
C5478 H5492 0.960 . S
C5479 C5476 1.511 . S
C5479 H5493 0.961 . S
C5479 H5494 0.961 . S
C5479 H5495 0.961 . S
C5480 C5481 1.370 . S
C5480 C5482 1.363 . S
C5480 H5496 0.931 . S
C5481 C5480 1.370 . S
C5481 C5485 1.408 . S
C5482 C5480 1.363 . S
C5482 C5483 1.370 . S
C5482 C5486 1.524 . S
C5483 C5475 1.503 . S
C5483 C5482 1.370 . S
C5483 C5484 1.403 . S
C5484 C5483 1.403 . S
C5484 C5485 1.404 . S
C5484 C5487 1.539 . S
C5485 C5481 1.408 . S
C5485 C5484 1.404 . S
C5485 H5497 0.930 . S
C5486 C5482 1.524 . S
C5486 H5498 0.956 . S
C5486 H5499 0.961 . S
C5486 H5500 0.961 . S
C5487 C5484 1.539 . S
C5487 H5501 0.958 . S
C5487 H5502 0.961 . S
C5487 H5503 0.960 . S
H5488 C5472 0.931 . S
H5489 C5477 0.929 . S
H5490 C5478 0.960 . S
H5491 C5478 0.962 . S
H5492 C5478 0.960 . S
H5493 C5479 0.961 . S
H5494 C5479 0.961 . S
H5495 C5479 0.961 . S
H5496 C5480 0.931 . S
H5497 C5485 0.930 . S
H5498 C5486 0.956 . S
H5499 C5486 0.961 . S
H5500 C5486 0.961 . S
H5501 C5487 0.958 . S
H5502 C5487 0.961 . S
H5503 C5487 0.960 . S
C2441 C1325 1.540 . S
C2433 C21 1.533 . S
C2473 C1373 1.431 . S
C2465 C42 1.417 . S
C2497 C82 1.498 . S
C2505 C1397 1.531 . S
C2537 C1460 1.494 . S
C2529 C135 1.491 . S
C2561 C175 1.428 . S
C2569 C1454 1.424 . S
C2593 C221 1.532 . S
C2601 C1301 1.542 . S
C2625 C255 1.480 . S
C2633 C1349 1.482 . S
C2665 C1421 1.559 . S
C2657 C301 1.550 . S
C2697 C1493 1.519 . S
C2689 C15 1.511 . S
C2721 C55 1.437 . S
C2729 C1541 1.439 . S
C2753 C101 1.544 . S
C2761 C1604 1.549 . S
C2793 C1661 1.504 . S
C2785 C141 1.496 . S
C2817 C162 1.458 . S
C2825 C1685 1.459 . S
C2857 C1742 1.512 . S
C2849 C215 1.508 . S
C2881 C261 1.506 . S
C2889 C1790 1.504 . S
C2921 C1844 1.519 . S
C2913 C282 1.495 . S
C2945 C2 1.525 . S
C2953 C1637 1.530 . S
C2977 C181 1.403 . S
C2985 C1748 1.445 . S
C3017 C1796 1.544 . S
C3009 C202 1.534 . S
C3041 C242 1.510 . S
C3049 C1838 1.502 . S
C3081 C1709 1.507 . S
C3073 C295 1.505 . S
C3113 C1565 1.518 . S
C3105 C95 1.520 . S
C3137 C122 1.487 . S
C3145 C1598 1.492 . S
C3177 C1517 1.451 . S
C3169 C61 1.456 . S
C3209 C1892 1.550 . S
C3201 C341 1.515 . S
C3233 C362 1.426 . S
C3241 C1949 1.429 . S
C3265 C402 1.497 . S
C3273 C1973 1.529 . S
C3305 C2036 1.493 . S
C3297 C455 1.494 . S
C3329 C495 1.430 . S
C3337 C2030 1.427 . S
C3361 C541 1.521 . S
C3369 C1886 1.541 . S
C3393 C575 1.479 . S
C3401 C1925 1.484 . S
C3425 C621 1.546 . S
C3433 C1997 1.560 . S
C3465 C1694 1.516 . S
C3457 C335 1.513 . S
C3489 C375 1.440 . S
C3497 C2078 1.436 . S
C3529 C1781 1.553 . S
C3521 C421 1.540 . S
C3553 C461 1.505 . S
C3561 C2132 1.505 . S
C3585 C482 1.421 . S
C3593 C1502 1.453 . S
C3625 C2174 1.512 . S
C3617 C535 1.515 . S
C3649 C581 1.504 . S
C3657 C1613 1.503 . S
C3689 C2228 1.525 . S
C3681 C602 1.522 . S
C3713 C322 1.512 . S
C3721 C2126 1.531 . S
C3753 C2180 1.440 . S
C3745 C501 1.438 . S
C3777 C522 1.527 . S
C3785 C1589 1.541 . S
C3817 C2222 1.502 . S
C3809 C562 1.510 . S
C3841 C615 1.508 . S
C3849 C1508 1.512 . S
C3873 C415 1.518 . S
C3881 C2084 1.522 . S
C3905 C442 1.501 . S
C3913 C1805 1.499 . S
C3937 C381 1.449 . S
C3945 C1700 1.454 . S
C3969 C661 1.546 . S
C3977 C1982 1.544 . S
C4009 C2045 1.439 . S
C4001 C682 1.436 . S
C4033 C722 1.491 . S
C4041 C1901 1.525 . S
C4065 C775 1.493 . S
C4073 C1940 1.491 . S
C4097 C815 1.430 . S
C4105 C1934 1.426 . S
C4129 C861 1.530 . S
C4137 C1988 1.544 . S
C4169 C2021 1.478 . S
C4161 C895 1.483 . S
C4193 C941 1.546 . S
C4201 C1877 1.560 . S
C4233 C2261 1.514 . S
C4225 C655 1.516 . S
C4257 C695 1.440 . S
C4265 C1733 1.436 . S
C4297 C2324 1.549 . S
C4289 C741 1.546 . S
C4321 C781 1.482 . S
C4329 C1853 1.500 . S
C4353 C802 1.454 . S
C4361 C2366 1.461 . S
C4385 C855 1.514 . S
C4393 C1550 1.510 . S
C4425 C2429 1.498 . S
C4417 C901 1.490 . S
C4449 C922 1.524 . S
C4457 C1652 1.526 . S
C4489 C1829 1.530 . S
C4481 C642 1.519 . S
C4521 C1556 1.439 . S
C4513 C821 1.442 . S
C4545 C842 1.533 . S
C4553 C2405 1.541 . S
C4577 C882 1.494 . S
C4585 C1646 1.510 . S
C4617 C2372 1.509 . S
C4609 C935 1.510 . S
C4649 C1757 1.519 . S
C4641 C735 1.519 . S
C4681 C2318 1.494 . S
C4673 C762 1.501 . S
C4713 C2285 1.452 . S
C4705 C701 1.456 . S
C4737 C981 1.515 . S
C4745 C1406 1.546 . S
C4769 C1002 1.442 . S
C4777 C1469 1.436 . S
C4809 C1316 1.530 . S
C4801 C1042 1.499 . S
C4841 C1364 1.491 . S
C4833 C1095 1.493 . S
C4873 C1358 1.427 . S
C4865 C1135 1.429 . S
C4905 C1412 1.545 . S
C4897 C1181 1.510 . S
C4937 C1445 1.485 . S
C4929 C1215 1.479 . S
C4961 C1261 1.558 . S
C4969 C1310 1.560 . S
C4993 C975 1.511 . S
C5001 C2357 1.519 . S
C5033 C2165 1.436 . S
C5025 C1015 1.438 . S
C5065 C2420 1.553 . S
C5057 C1061 1.533 . S
C5097 C2237 1.501 . S
C5089 C1101 1.504 . S
C5121 C1122 1.426 . S
C5129 C2270 1.459 . S
C5161 C2069 1.513 . S
C5153 C1175 1.516 . S
C5193 C2333 1.500 . S
C5185 C1221 1.486 . S
C5217 C1242 1.523 . S
C5225 C2141 1.522 . S
C5257 C2213 1.532 . S
C5249 C962 1.492 . S
C5289 C2093 1.442 . S
C5281 C1141 1.437 . S
C5321 C2309 1.546 . S
C5313 C1162 1.528 . S
C5345 C1202 1.487 . S
C5353 C2117 1.506 . S
C5377 C1255 1.507 . S
C5385 C2276 1.510 . S
C5409 C1055 1.519 . S
C5417 C2189 1.518 . S
C5441 C1082 1.482 . S
C5449 C2414 1.493 . S
C5481 C2381 1.449 . S
C5473 C1021 1.447 . S
