# Generated by pormake.
# Topology rtl, (3,6)-cn, num edge types: 1
# Building blocks:
#     Node 0, Type 0, BuildingBlock: CUQRIR_clean_linker_1, # of connection points: 3
#     Node 1, Type 0, BuildingBlock: CUQRIR_clean_linker_1, # of connection points: 3
#     Node 2, Type 0, BuildingBlock: CUQRIR_clean_linker_1, # of connection points: 3
#     Node 3, Type 0, BuildingBlock: CUQRIR_clean_linker_1, # of connection points: 3
#     Node 4, Type 1, BuildingBlock: VOLQOD_clean_sbu_1, # of connection points: 6
#     Node 5, Type 1, BuildingBlock: VOLQOD_clean_sbu_1, # of connection points: 6
#     Edge 6, Type (0, 1), BuildingBlock: ZUJKAS_clean_linker_0, # of connection points: 2
#     Edge 7, Type (0, 1), BuildingBlock: ZUJKAS_clean_linker_0, # of connection points: 2
#     Edge 8, Type (0, 1), BuildingBlock: ZUJKAS_clean_linker_0, # of connection points: 2
#     Edge 9, Type (0, 1), BuildingBlock: ZUJKAS_clean_linker_0, # of connection points: 2
#     Edge 10, Type (0, 1), BuildingBlock: ZUJKAS_clean_linker_0, # of connection points: 2
#     Edge 11, Type (0, 1), BuildingBlock: ZUJKAS_clean_linker_0, # of connection points: 2
#     Edge 12, Type (0, 1), BuildingBlock: ZUJKAS_clean_linker_0, # of connection points: 2
#     Edge 13, Type (0, 1), BuildingBlock: ZUJKAS_clean_linker_0, # of connection points: 2
#     Edge 14, Type (0, 1), BuildingBlock: ZUJKAS_clean_linker_0, # of connection points: 2
#     Edge 15, Type (0, 1), BuildingBlock: ZUJKAS_clean_linker_0, # of connection points: 2
#     Edge 16, Type (0, 1), BuildingBlock: ZUJKAS_clean_linker_0, # of connection points: 2
#     Edge 17, Type (0, 1), BuildingBlock: ZUJKAS_clean_linker_0, # of connection points: 2
# Relax obj value: 0.040
# Max RMSD: 0.143
# Mean RMSD: 0.106
data_MOF--net-rtl--node1-VOLQOD_clean_sbu_1--node2-CUQRIR_clean_linker_1--edge1-ZUJKAS_clean_linker_0
_symmetry_space_group_name_H-M    P1
_symmetry_Int_Tables_number       1
_symmetry_cell_setting            triclinic
loop_
_symmetry_equiv_pos_as_xyz
'x, y, z'
_cell_length_a     46.426643
_cell_length_b     46.987983
_cell_length_c     26.493912
_cell_angle_alpha  90.073734
_cell_angle_beta   90.390026
_cell_angle_gamma 89.976957
loop_
_atom_site_label
_atom_site_type_symbol
_atom_site_fract_x
_atom_site_fract_y
_atom_site_fract_z
_atom_type_partial_charge
C0 C 0.21105 0.78666 0.96353 0.0
N1 N 0.19268 0.80714 0.97923 0.0
N2 N 0.22689 0.77676 0.00282 0.0
C3 C 0.21371 0.77661 0.90983 0.0
C4 C 0.21769 0.79207 0.04289 0.0
N5 N 0.19707 0.81078 0.0284 0.0
C6 C 0.22881 0.78876 0.09601 0.0
H7 H 0.19547 0.76216 0.90098 0.0
H8 H 0.23407 0.76487 0.9035 0.0
H9 H 0.21245 0.79496 0.88357 0.0
H10 H 0.23905 0.76771 0.10192 0.0
H11 H 0.21107 0.79157 0.12345 0.0
H12 H 0.24518 0.80546 0.10347 0.0
C13 C 0.7246 0.70771 0.54104 0.0
N14 N 0.70395 0.68883 0.52728 0.0
N15 N 0.73497 0.72133 0.50006 0.0
C16 C 0.73302 0.71454 0.59465 0.0
C17 C 0.71987 0.71022 0.46089 0.0
N18 N 0.70079 0.69057 0.47744 0.0
C19 C 0.72544 0.71708 0.40635 0.0
H20 H 0.71456 0.71152 0.62047 0.0
H21 H 0.74089 0.73676 0.59805 0.0
H22 H 0.75062 0.70001 0.60658 0.0
H23 H 0.74799 0.7242 0.40097 0.0
H24 H 0.71088 0.73458 0.39437 0.0
H25 H 0.72125 0.6983 0.38196 0.0
C26 C 0.77667 0.20987 0.04038 0.0
N27 N 0.79704 0.19113 0.02519 0.0
N28 N 0.76726 0.22569 0.00092 0.0
C29 C 0.76766 0.21443 0.09424 0.0
C30 C 0.78269 0.21608 0.96125 0.0
N31 N 0.80096 0.1952 0.97608 0.0
C32 C 0.77843 0.22572 0.90759 0.0
H33 H 0.74983 0.19958 0.1031 0.0
H34 H 0.75993 0.23651 0.10024 0.0
H35 H 0.7858 0.2101 0.12061 0.0
H36 H 0.79402 0.24297 0.8994 0.0
H37 H 0.75634 0.23412 0.90155 0.0
H38 H 0.78232 0.20798 0.88081 0.0
C39 C 0.28962 0.28173 0.45824 0.0
N40 N 0.30872 0.30214 0.47202 0.0
N41 N 0.27705 0.27026 0.49942 0.0
C42 C 0.28139 0.27472 0.4046 0.0
C43 C 0.28905 0.28447 0.53872 0.0
N44 N 0.30813 0.30409 0.52208 0.0
C45 C 0.28385 0.27748 0.59333 0.0
H46 H 0.25878 0.2672 0.40215 0.0
H47 H 0.29566 0.25752 0.39065 0.0
H48 H 0.28398 0.29353 0.37976 0.0
H49 H 0.27746 0.25487 0.59775 0.0
H50 H 0.26612 0.29104 0.60766 0.0
H51 H 0.30341 0.28159 0.6165 0.0
O52 O 0.93611 0.97055 0.50209 0.0
Zn53 Zn 0.95692 0.0082 0.50232 0.0
O54 O -0.00121 0.00255 0.5022 0.0
Zn55 Zn 0.01565 0.01981 0.56278 0.0
Zn56 Zn 0.00769 0.96178 0.50147 0.0
Zn57 Zn 0.01519 0.02053 0.44234 0.0
O58 O 0.04542 0.04927 0.54509 0.0
O59 O 0.04433 0.05044 0.46137 0.0
O60 O 0.94428 0.03029 0.56406 0.0
O61 O 0.98535 0.03894 0.60462 0.0
O62 O 0.03467 0.99039 0.60695 0.0
O63 O 0.03041 0.95024 0.56336 0.0
O64 O 0.0305 0.95093 0.4397 0.0
O65 O 0.94384 0.02972 0.4403 0.0
O66 O 0.0355 0.99181 0.39883 0.0
O67 O 0.98439 0.0389 0.39952 0.0
C68 C 0.94461 0.94476 0.5015 0.0
C69 C 0.05434 0.05932 0.50339 0.0
C70 C 0.03911 0.96378 0.60225 0.0
C71 C 0.95808 0.04118 0.60109 0.0
C72 C 0.03988 0.96513 0.40231 0.0
C73 C 0.9571 0.0406 0.40305 0.0
O74 O 0.9713 0.93854 0.50111 0.0
O75 O 0.56221 0.47227 0.00193 0.0
Zn76 Zn 0.54075 0.50956 0.00172 0.0
O77 O 0.49903 0.503 -8e-05 0.0
Zn78 Zn 0.48293 0.52086 0.93929 0.0
Zn79 Zn 0.49088 0.46207 0.99874 0.0
Zn80 Zn 0.48141 0.51965 0.05999 0.0
O81 O 0.45331 0.55049 0.95727 0.0
O82 O 0.45293 0.55024 0.04108 0.0
O83 O 0.55407 0.53165 0.94087 0.0
O84 O 0.51363 0.54003 0.89834 0.0
O85 O 0.46432 0.49175 0.89378 0.0
O86 O 0.4688 0.45106 0.93574 0.0
O87 O 0.46767 0.44994 0.05917 0.0
O88 O 0.55254 0.53124 0.06447 0.0
O89 O 0.46047 0.49024 0.10088 0.0
O90 O 0.51146 0.53677 0.10588 0.0
C91 C 0.55431 0.44631 0.00124 0.0
C92 C 0.44384 0.56 -0.00095 0.0
C93 C 0.46019 0.46504 0.89731 0.0
C94 C 0.54083 0.54237 0.90314 0.0
C95 C 0.45709 0.46347 0.09638 0.0
C96 C 0.5386 0.54009 0.10268 0.0
O97 O 0.52776 0.4395 4e-05 0.0
H98 H 0.22566 0.27453 0.545 0.0
H99 H 0.18778 0.23812 0.54804 0.0
H100 H 0.24052 0.18193 0.45872 0.0
H101 H 0.27867 0.21817 0.45695 0.0
H102 H 0.15835 0.21339 0.46741 0.0
H103 H 0.21772 0.13219 0.57914 0.0
H104 H 0.22949 0.16872 0.57475 0.0
H105 H 0.23637 0.14428 0.52399 0.0
C106 C 0.22915 0.25423 0.52663 0.0
C107 C 0.25495 0.24888 0.50104 0.0
C108 C 0.20757 0.23358 0.52811 0.0
C109 C 0.21153 0.20722 0.50418 0.0
C110 C 0.23726 0.20194 0.47821 0.0
H111 H 0.07958 0.08489 0.4221 0.0
H112 H 0.11733 0.12107 0.42281 0.0
C113 C 0.25886 0.22262 0.47679 0.0
C114 C 0.18837 0.1856 0.50527 0.0
H115 H 0.17304 0.11788 0.54296 0.0
C116 C 0.1615 0.19253 0.48404 0.0
C117 C 0.1925 0.15856 0.52757 0.0
C118 C 0.22048 0.1505 0.5531 0.0
C119 C 0.13872 0.17293 0.48379 0.0
C120 C 0.14312 0.14557 0.50463 0.0
C121 C 0.16984 0.1388 0.52661 0.0
C122 C 0.12021 0.12368 0.50423 0.0
C123 C 0.11001 0.18183 0.46189 0.0
C124 C 0.10977 0.11273 0.5498 0.0
C125 C 0.08829 0.09191 0.54959 0.0
C126 C 0.07695 0.08156 0.50372 0.0
C127 C 0.08766 0.09248 0.45811 0.0
C128 C 0.10915 0.11328 0.4584 0.0
H129 H 0.10799 0.20536 0.45962 0.0
H130 H 0.10784 0.17313 0.4231 0.0
H131 H 0.09197 0.17343 0.4848 0.0
H132 H 0.11816 0.12042 0.58556 0.0
H133 H 0.08062 0.08394 0.5854 0.0
H134 H 0.27991 0.782 0.96447 0.0
H135 H 0.3175 0.74506 0.96174 0.0
H136 H 0.26055 0.68681 0.03778 0.0
H137 H 0.22296 0.72374 0.03948 0.0
H138 H 0.34377 0.71633 0.04127 0.0
H139 H 0.28611 0.64143 0.9139 0.0
H140 H 0.27502 0.67797 0.92209 0.0
H141 H 0.26587 0.65166 0.96853 0.0
C142 C 0.27564 0.7612 0.9803 0.0
C143 C 0.24885 0.75533 0.00195 0.0
C144 C 0.29695 0.74023 0.97885 0.0
C145 C 0.29162 0.71309 -0.00111 0.0
C146 C 0.26488 0.70741 0.0212 0.0
H147 H 0.41698 0.58417 0.08025 0.0
H148 H 0.38061 0.62173 0.07958 0.0
C149 C 0.24357 0.7284 0.02251 0.0
C150 C 0.31426 0.69092 0.99729 0.0
H151 H 0.32877 0.62413 0.95347 0.0
C152 C 0.34057 0.6962 0.02194 0.0
C153 C 0.31012 0.66488 0.97143 0.0
C154 C 0.28287 0.65867 0.94205 0.0
C155 C 0.36271 0.67586 0.02226 0.0
C156 C 0.35816 0.64939 0.99797 0.0
C157 C 0.33206 0.64434 0.97248 0.0
C158 C 0.38026 0.62666 0.99839 0.0
C159 C 0.39089 0.68304 0.04796 0.0
C160 C 0.39159 0.6165 0.95285 0.0
C161 C 0.41225 0.59486 0.95302 0.0
C162 C 0.42187 0.58289 0.99879 0.0
C163 C 0.41023 0.593 0.04434 0.0
C164 C 0.38954 0.6146 0.04408 0.0
H165 H 0.39365 0.70638 0.05262 0.0
H166 H 0.39134 0.67326 0.08606 0.0
H167 H 0.40942 0.67457 0.0263 0.0
H168 H 0.38457 0.62544 0.91716 0.0
H169 H 0.42069 0.58757 0.91724 0.0
H170 H 0.72817 0.77416 0.46333 0.0
H171 H 0.76431 0.8123 0.46238 0.0
H172 H 0.82604 0.75583 0.53249 0.0
H173 H 0.7895 0.71799 0.53435 0.0
H174 H 0.82571 0.80743 0.57704 0.0
H175 H 0.83208 0.82096 0.36959 0.0
H176 H 0.79616 0.8249 0.39309 0.0
H177 H 0.81415 0.79107 0.39828 0.0
C178 C 0.74958 0.77003 0.47805 0.0
C179 C 0.75635 0.74336 0.49864 0.0
C180 C 0.77021 0.79165 0.47731 0.0
C181 C 0.79806 0.78673 0.49644 0.0
C182 C 0.80474 0.76003 0.51727 0.0
H183 H 0.95417 0.88776 0.51449 0.0
H184 H 0.9185 0.84945 0.51406 0.0
C185 C 0.78401 0.7385 0.51838 0.0
C186 C 0.81991 0.80972 0.49638 0.0
H187 H 0.85503 0.8566 0.41991 0.0
C188 C 0.83226 0.81803 0.54264 0.0
C189 C 0.82847 0.8235 0.4514 0.0
C190 C 0.81725 0.81448 0.40023 0.0
C191 C 0.85258 0.84009 0.54521 0.0
C192 C 0.86071 0.8541 0.50042 0.0
C193 C 0.8485 0.84582 0.45416 0.0
C194 C 0.88214 0.87729 0.50088 0.0
C195 C 0.86499 0.84862 0.59577 0.0
C196 C 0.87337 0.9055 0.49321 0.0
C197 C 0.89363 0.92749 0.49369 0.0
C198 C 0.92305 0.92154 0.50127 0.0
C199 C 0.93171 0.89311 0.50851 0.0
C200 C 0.91139 0.87119 0.50843 0.0
H201 H 0.85347 0.83843 0.62762 0.0
H202 H 0.88799 0.84221 0.59769 0.0
H203 H 0.86402 0.87209 0.60047 0.0
H204 H 0.85082 0.91049 0.48717 0.0
H205 H 0.88624 0.9491 0.4878 0.0
H206 H 0.71233 0.22086 0.03118 0.0
H207 H 0.67556 0.25861 0.0315 0.0
H208 H 0.73754 0.31778 0.9716 0.0
H209 H 0.77425 0.27996 0.97137 0.0
H210 H 0.70236 0.33538 0.06333 0.0
H211 H 0.63876 0.29572 0.89875 0.0
H212 H 0.64894 0.27019 0.94626 0.0
H213 H 0.67619 0.28653 0.90843 0.0
C214 C 0.71792 0.24198 0.01822 0.0
C215 C 0.74584 0.24774 0.00113 0.0
C216 C 0.69703 0.26339 0.01818 0.0
C217 C 0.70389 0.29082 0.00121 0.0
C218 C 0.73189 0.29666 0.9846 0.0
H219 H 0.61262 0.45207 0.99041 0.0
H220 H 0.64896 0.41447 0.99099 0.0
C221 C 0.75271 0.27519 0.9843 0.0
C222 C 0.6819 0.31351 0.00137 0.0
H223 H 0.62032 0.33548 0.9423 0.0
C224 C 0.68442 0.33553 0.03687 0.0
C225 C 0.65856 0.31338 0.96695 0.0
C226 C 0.65535 0.29033 0.92762 0.0
C227 C 0.66385 0.35737 0.03934 0.0
C228 C 0.64062 0.35749 0.00442 0.0
C229 C 0.63815 0.33537 0.96896 0.0
C230 C 0.61861 0.38034 0.00398 0.0
C231 C 0.66682 0.37966 0.0801 0.0
C232 C 0.58937 0.37356 0.00951 0.0
C233 C 0.56848 0.39496 0.00851 0.0
C234 C 0.57644 0.42359 0.00197 0.0
C235 C 0.60576 0.43028 0.99603 0.0
C236 C 0.6266 0.40883 0.99666 0.0
H237 H 0.68044 0.37203 0.11197 0.0
H238 H 0.67725 0.39885 0.06412 0.0
H239 H 0.64545 0.38594 0.09507 0.0
H240 H 0.58273 0.35167 0.01492 0.0
H241 H 0.54611 0.38904 0.01318 0.0
H242 H 0.13978 0.81141 0.0415 0.0
H243 H 0.11284 0.84068 0.10185 0.0
H244 H 0.1919 0.88189 0.14769 0.0
H245 H 0.2187 0.85223 0.08772 0.0
H246 H 0.16159 0.86338 0.22758 0.0
H247 H 0.08949 0.92358 0.0989 0.0
H248 H 0.08713 0.88579 0.08997 0.0
H249 H 0.12033 0.90394 0.07663 0.0
C250 C 0.15114 0.82709 0.06402 0.0
C251 C 0.18114 0.82968 0.06051 0.0
C252 C 0.13584 0.84385 0.09824 0.0
C253 C 0.15032 0.86372 0.12889 0.0
C254 C 0.18029 0.86673 0.12439 0.0
H255 H 0.0674 0.98904 0.32172 0.0
H256 H 0.09476 0.96479 0.25597 0.0
C257 C 0.19557 0.84984 0.09039 0.0
C258 C 0.13457 0.87994 0.16805 0.0
H259 H 0.07777 0.92484 0.18661 0.0
C260 C 0.14338 0.87698 0.21857 0.0
C261 C 0.11104 0.89792 0.15621 0.0
C262 C 0.1016 0.90326 0.10244 0.0
C263 C 0.12897 0.89106 0.2577 0.0
C264 C 0.10465 0.90804 0.24609 0.0
C265 C 0.0962 0.91152 0.19548 0.0
C266 C 0.08784 0.92256 0.28595 0.0
C267 C 0.1402 0.88791 0.311 0.0
C268 C 0.07455 0.90682 0.32429 0.0
C269 C 0.05904 0.9206 0.36217 0.0
C270 C 0.05623 0.95042 0.36209 0.0
C271 C 0.06916 0.96607 0.32306 0.0
C272 C 0.08479 0.95226 0.28536 0.0
H273 H 0.16314 0.88115 0.31169 0.0
H274 H 0.13821 0.90818 0.33229 0.0
H275 H 0.12746 0.8714 0.33076 0.0
H276 H 0.07608 0.88382 0.32481 0.0
H277 H 0.04915 0.90786 0.39134 0.0
H278 H 0.64603 0.68765 0.53407 0.0
H279 H 0.61747 0.66098 0.59603 0.0
H280 H 0.69553 0.62504 0.65804 0.0
H281 H 0.72392 0.65141 0.59572 0.0
H282 H 0.61668 0.59928 0.61835 0.0
H283 H 0.65488 0.66629 0.77849 0.0
H284 H 0.6579 0.67732 0.71347 0.0
H285 H 0.68253 0.65157 0.73908 0.0
C286 C 0.65688 0.6737 0.56056 0.0
C287 C 0.68703 0.67159 0.56073 0.0
C288 C 0.64068 0.65861 0.59589 0.0
C289 C 0.65449 0.64144 0.63198 0.0
C290 C 0.68455 0.63857 0.63097 0.0
H291 H 0.59945 0.54704 0.89486 0.0
H292 H 0.62654 0.57037 0.8278 0.0
C293 C 0.7007 0.65354 0.59557 0.0
C294 C 0.6376 0.62712 0.67167 0.0
H295 H 0.62634 0.62633 0.79881 0.0
C296 C 0.61865 0.60519 0.65781 0.0
C297 C 0.64037 0.63493 0.72301 0.0
C298 C 0.65983 0.65896 0.73962 0.0
C299 C 0.60273 0.59041 0.69426 0.0
C300 C 0.60542 0.59829 0.74569 0.0
C301 C 0.62435 0.62031 0.7594 0.0
C302 C 0.5888 0.58402 0.78599 0.0
C303 C 0.58377 0.56605 0.6775 0.0
C304 C 0.55859 0.58435 0.78516 0.0
C305 C 0.54302 0.57095 0.82332 0.0
C306 C 0.55738 0.55721 0.8634 0.0
C307 C 0.58768 0.55739 0.86458 0.0
C308 C 0.60322 0.57069 0.82626 0.0
H309 H 0.5902 0.55774 0.63994 0.0
H310 H 0.58451 0.54831 0.70513 0.0
H311 H 0.56117 0.5736 0.67446 0.0
H312 H 0.54702 0.59514 0.75515 0.0
H313 H 0.51971 0.57144 0.82138 0.0
H314 H 0.85483 0.18837 0.03347 0.0
H315 H 0.88264 0.15954 0.09385 0.0
H316 H 0.80375 0.12322 0.14984 0.0
H317 H 0.77607 0.15177 0.08887 0.0
H318 H 0.84108 0.14831 0.22469 0.0
H319 H 0.89897 0.07252 0.09998 0.0
H320 H 0.901 0.10938 0.08223 0.0
H321 H 0.86694 0.09134 0.07992 0.0
C322 C 0.84362 0.1737 0.05794 0.0
C323 C 0.81344 0.17219 0.05692 0.0
C324 C 0.85943 0.1573 0.09233 0.0
C325 C 0.84522 0.13914 0.12604 0.0
C326 C 0.81509 0.13707 0.12405 0.0
H327 H 0.8985 0.04272 0.39079 0.0
H328 H 0.87128 0.06614 0.32342 0.0
C329 C 0.79933 0.15336 0.08951 0.0
C330 C 0.86154 0.12405 0.16602 0.0
H331 H 0.91283 0.07321 0.1863 0.0
C332 C 0.85666 0.13176 0.21641 0.0
C333 C 0.88198 0.10271 0.15489 0.0
C334 C 0.88748 0.09325 0.10138 0.0
C335 C 0.87205 0.11899 0.25612 0.0
C336 C 0.89234 0.09741 0.24513 0.0
C337 C 0.89722 0.08971 0.19464 0.0
C338 C 0.90885 0.08272 0.28552 0.0
C339 C 0.86696 0.12931 0.3093 0.0
C340 C 0.93906 0.08356 0.28581 0.0
C341 C 0.95473 0.06993 0.324 0.0
C342 C 0.94047 0.05517 0.36268 0.0
C343 C 0.91019 0.05414 0.36195 0.0
C344 C 0.89456 0.06763 0.32356 0.0
H345 H 0.85716 0.15089 0.3098 0.0
H346 H 0.8519 0.11457 0.32841 0.0
H347 H 0.88737 0.12991 0.33137 0.0
H348 H 0.95052 0.09499 0.25669 0.0
H349 H 0.97802 0.07111 0.32328 0.0
H350 H 0.36577 0.3124 0.51947 0.0
H351 H 0.39426 0.34298 0.5761 0.0
H352 H 0.31644 0.3683 0.65237 0.0
H353 H 0.28803 0.33937 0.59355 0.0
H354 H 0.35058 0.41212 0.643 0.0
H355 H 0.41454 0.32152 0.71772 0.0
H356 H 0.41849 0.32662 0.65106 0.0
H357 H 0.38405 0.31654 0.6762 0.0
C358 C 0.35487 0.32494 0.54784 0.0
C359 C 0.32484 0.32335 0.55283 0.0
C360 C 0.37112 0.34206 0.5806 0.0
C361 C 0.35759 0.35732 0.6195 0.0
C362 C 0.32744 0.35653 0.62305 0.0
H363 H 0.43236 0.41387 0.90097 0.0
H364 H 0.40784 0.38907 0.83183 0.0
C365 C 0.31123 0.33986 0.58982 0.0
C366 C 0.37454 0.37369 0.65741 0.0
H367 H 0.42698 0.36727 0.74768 0.0
C368 C 0.36732 0.40232 0.66587 0.0
C369 C 0.39608 0.36078 0.6878 0.0
C370 C 0.40359 0.32962 0.68318 0.0
C371 C 0.38069 0.41829 0.70423 0.0
C372 C 0.40273 0.40558 0.73379 0.0
C373 C 0.41023 0.37707 0.72484 0.0
C374 C 0.4175 0.42101 0.77555 0.0
C375 C 0.37017 0.4482 0.71389 0.0
C376 C 0.43132 0.44712 0.76697 0.0
C377 C 0.44484 0.46161 0.80669 0.0
C378 C 0.44547 0.4499 0.8555 0.0
C379 C 0.43223 0.42344 0.86379 0.0
C380 C 0.41825 0.40923 0.82427 0.0
H381 H 0.348 0.45148 0.69888 0.0
H382 H 0.37022 0.45322 0.75485 0.0
H383 H 0.38454 0.4635 0.69454 0.0
H384 H 0.43186 0.45624 0.72948 0.0
H385 H 0.45523 0.48176 0.79895 0.0
H386 H 0.66342 0.71003 0.40744 0.0
H387 H 0.6338 0.68161 0.34978 0.0
H388 H 0.66348 0.60484 0.42289 0.0
H389 H 0.69475 0.63342 0.47822 0.0
H390 H 0.66591 0.59841 0.32591 0.0
H391 H 0.55886 0.6429 0.36865 0.0
H392 H 0.583 0.67073 0.35047 0.0
H393 H 0.59011 0.65058 0.40711 0.0
C394 C 0.66357 0.68709 0.41098 0.0
C395 C 0.68139 0.67383 0.44687 0.0
C396 C 0.64631 0.67086 0.37864 0.0
C397 C 0.6459 0.64105 0.38254 0.0
C398 C 0.66326 0.6278 0.41932 0.0
H399 H 0.52168 0.54482 0.20077 0.0
H400 H 0.54801 0.56676 0.27087 0.0
C401 C 0.68093 0.64407 0.45113 0.0
C402 C 0.62899 0.62377 0.34588 0.0
H403 H 0.56309 0.61857 0.28877 0.0
C404 C 0.64331 0.60256 0.3183 0.0
C405 C 0.59935 0.62871 0.33649 0.0
C406 C 0.58191 0.64925 0.36772 0.0
C407 C 0.62913 0.58693 0.28043 0.0
C408 C 0.6001 0.59345 0.26835 0.0
C409 C 0.58549 0.61389 0.29724 0.0
C410 C 0.58452 0.57953 0.22579 0.0
C411 C 0.6454 0.56337 0.25433 0.0
C412 C 0.59606 0.57963 0.17688 0.0
C413 C 0.58129 0.56661 0.13692 0.0
C414 C 0.55429 0.55395 0.1448 0.0
C415 C 0.54242 0.55448 0.19348 0.0
C416 C 0.55746 0.567 0.2336 0.0
H417 H 0.66278 0.55472 0.27896 0.0
H418 H 0.6309 0.54562 0.24322 0.0
H419 H 0.65571 0.57195 0.2199 0.0
H420 H 0.61641 0.59001 0.16943 0.0
H421 H 0.59081 0.56686 0.09971 0.0
H422 H 0.80079 0.13836 0.96371 0.0
H423 H 0.82946 0.11094 0.90301 0.0
H424 H 0.8716 0.18821 0.85573 0.0
H425 H 0.84262 0.21548 0.91609 0.0
H426 H 0.85076 0.15758 0.77638 0.0
H427 H 0.91369 0.08748 0.90432 0.0
H428 H 0.87551 0.08579 0.91418 0.0
H429 H 0.89451 0.11843 0.92658 0.0
C430 C 0.81658 0.14922 0.94085 0.0
C431 C 0.81964 0.17885 0.9441 0.0
C432 C 0.83297 0.13364 0.90639 0.0
C433 C 0.85287 0.14751 0.87517 0.0
C434 C 0.85638 0.1771 0.87946 0.0
H435 H 0.98072 0.06992 0.68198 0.0
H436 H 0.95482 0.09558 0.74777 0.0
C437 C 0.83992 0.19263 0.91372 0.0
C438 C 0.86865 0.13158 0.8357 0.0
H439 H 0.9151 0.07631 0.81661 0.0
C440 C 0.86492 0.13987 0.78518 0.0
C441 C 0.88729 0.10866 0.84733 0.0
C442 C 0.89326 0.09969 0.90107 0.0
C443 C 0.87911 0.12573 0.74588 0.0
C444 C 0.89706 0.10224 0.75733 0.0
C445 C 0.90107 0.09413 0.8079 0.0
C446 C 0.91248 0.08631 0.71743 0.0
C447 C 0.87522 0.13645 0.69259 0.0
C448 C 0.89724 0.07232 0.67876 0.0
C449 C 0.91198 0.05774 0.6408 0.0
C450 C 0.94227 0.05665 0.64111 0.0
C451 C 0.95741 0.07036 0.68041 0.0
C452 C 0.94265 0.085 0.71818 0.0
H453 H 0.86715 0.15871 0.69183 0.0
H454 H 0.89578 0.13549 0.6715 0.0
H455 H 0.85922 0.12289 0.67263 0.0
H456 H 0.87391 0.07259 0.67805 0.0
H457 H 0.89962 0.04724 0.6114 0.0
H458 H 0.30963 0.35953 0.46737 0.0
H459 H 0.33561 0.38876 0.40545 0.0
H460 H 0.37104 0.31264 0.33909 0.0
H461 H 0.34542 0.28361 0.40134 0.0
H462 H 0.39799 0.38958 0.38092 0.0
H463 H 0.32753 0.355 0.22183 0.0
H464 H 0.31726 0.35119 0.28712 0.0
H465 H 0.34254 0.32685 0.25964 0.0
C466 C 0.32333 0.34924 0.43992 0.0
C467 C 0.32553 0.31947 0.43855 0.0
C468 C 0.33801 0.36583 0.40461 0.0
C469 C 0.35484 0.35276 0.36734 0.0
C470 C 0.35778 0.32305 0.36709 0.0
H471 H 0.44996 0.40581 0.10499 0.0
H472 H 0.42529 0.37994 0.17197 0.0
C473 C 0.34323 0.30654 0.40246 0.0
C474 C 0.36885 0.37 0.32784 0.0
H475 H 0.36863 0.38223 0.2009 0.0
C476 C 0.39152 0.38818 0.34157 0.0
C477 C 0.3603 0.36797 0.27665 0.0
C478 C 0.33543 0.34939 0.26023 0.0
C479 C 0.40648 0.40389 0.30508 0.0
C480 C 0.39802 0.40177 0.25375 0.0
C481 C 0.37511 0.38378 0.24022 0.0
C482 C 0.41288 0.41771 0.21329 0.0
C483 C 0.43175 0.4219 0.32162 0.0
C484 C 0.41366 0.44755 0.21384 0.0
C485 C 0.42784 0.46243 0.17571 0.0
C486 C 0.44127 0.44773 0.13595 0.0
C487 C 0.4399 0.41782 0.13501 0.0
C488 C 0.42582 0.40298 0.17329 0.0
H489 H 0.44009 0.41536 0.35926 0.0
H490 H 0.44957 0.4206 0.29398 0.0
H491 H 0.42481 0.44445 0.32432 0.0
H492 H 0.4032 0.45937 0.24367 0.0
H493 H 0.42826 0.48545 0.17746 0.0
H494 H 0.14906 0.7884 0.92068 0.0
H495 H 0.12075 0.81671 0.86 0.0
H496 H 0.16656 0.89227 0.90644 0.0
H497 H 0.19487 0.86383 0.96704 0.0
H498 H 0.08707 0.87407 0.88007 0.0
H499 H 0.17884 0.87677 0.74554 0.0
H500 H 0.17533 0.84925 0.79266 0.0
H501 H 0.18607 0.88441 0.81109 0.0
C502 C 0.15277 0.81109 0.918 0.0
C503 C 0.17409 0.8241 0.94783 0.0
C504 C 0.13662 0.8272 0.88372 0.0
C505 C 0.14179 0.85645 0.87871 0.0
C506 C 0.16239 0.86967 0.90983 0.0
H507 H 0.05395 0.98362 0.69611 0.0
H508 H 0.0782 0.95764 0.76415 0.0
C509 C 0.1784 0.85357 0.94435 0.0
C510 C 0.12682 0.87278 0.83886 0.0
H511 H 0.13652 0.90109 0.72162 0.0
C512 C 0.09782 0.88012 0.84548 0.0
C513 C 0.14098 0.88027 0.79375 0.0
C514 C 0.17199 0.87224 0.78482 0.0
C515 C 0.08258 0.89505 0.80796 0.0
C516 C 0.09682 0.90275 0.76299 0.0
C517 C 0.12577 0.8952 0.7563 0.0
C518 C 0.08192 0.91838 0.72205 0.0
C519 C 0.05126 0.90211 0.81615 0.0
C520 C 0.07642 0.90495 0.67569 0.0
C521 C 0.06253 0.91967 0.63672 0.0
C522 C 0.05418 0.94822 0.64328 0.0
C523 C 0.06008 0.96167 0.68972 0.0
C524 C 0.07379 0.94685 0.72877 0.0
H525 H 0.04215 0.89037 0.84873 0.0
H526 H 0.04907 0.92525 0.82356 0.0
H527 H 0.03837 0.89702 0.78184 0.0
H528 H 0.08272 0.88299 0.66981 0.0
H529 H 0.05841 0.90868 0.60144 0.0
loop_
_geom_bond_atom_site_label_1
_geom_bond_atom_site_label_2
_geom_bond_distance
_geom_bond_site_symmetry_2
_ccdc_geom_bond_type
C0 N1 1.317 . S
C0 N2 1.348 1_556 S
C0 C3 1.485 . S
N1 C0 1.317 . S
N1 N5 1.370 1_556 S
N2 C0 1.348 1_554 S
N2 C4 1.346 . S
C3 C0 1.485 . S
C3 H7 0.960 . S
C3 H8 0.961 . S
C3 H9 0.960 . S
C4 N2 1.346 . S
C4 N5 1.307 . S
C4 C6 1.486 . S
N5 N1 1.370 1_554 S
N5 C4 1.307 . S
C6 C4 1.486 . S
C6 H10 0.960 . S
C6 H11 0.960 . S
C6 H12 0.959 . S
H7 C3 0.960 . S
H8 C3 0.961 . S
H9 C3 0.960 . S
H10 C6 0.960 . S
H11 C6 0.960 . S
H12 C6 0.959 . S
C13 N14 1.317 . S
C13 N15 1.348 . S
C13 C16 1.485 . S
N14 C13 1.317 . S
N14 N18 1.370 . S
N15 C13 1.348 . S
N15 C17 1.346 . S
C16 C13 1.485 . S
C16 H20 0.960 . S
C16 H21 0.961 . S
C16 H22 0.960 . S
C17 N15 1.346 . S
C17 N18 1.307 . S
C17 C19 1.486 . S
N18 N14 1.370 . S
N18 C17 1.307 . S
C19 C17 1.486 . S
C19 H23 0.960 . S
C19 H24 0.960 . S
C19 H25 0.959 . S
H20 C16 0.960 . S
H21 C16 0.961 . S
H22 C16 0.960 . S
H23 C19 0.960 . S
H24 C19 0.960 . S
H25 C19 0.959 . S
C26 N27 1.317 . S
C26 N28 1.348 . S
C26 C29 1.485 . S
N27 C26 1.317 . S
N27 N31 1.370 1_554 S
N28 C26 1.348 . S
N28 C30 1.346 1_554 S
C29 C26 1.485 . S
C29 H33 0.960 . S
C29 H34 0.961 . S
C29 H35 0.960 . S
C30 N28 1.346 1_556 S
C30 N31 1.307 . S
C30 C32 1.486 . S
N31 N27 1.370 1_556 S
N31 C30 1.307 . S
C32 C30 1.486 . S
C32 H36 0.960 . S
C32 H37 0.960 . S
C32 H38 0.959 . S
H33 C29 0.960 . S
H34 C29 0.961 . S
H35 C29 0.960 . S
H36 C32 0.960 . S
H37 C32 0.960 . S
H38 C32 0.959 . S
C39 N40 1.317 . S
C39 N41 1.348 . S
C39 C42 1.485 . S
N40 C39 1.317 . S
N40 N44 1.370 . S
N41 C39 1.348 . S
N41 C43 1.346 . S
C42 C39 1.485 . S
C42 H46 0.960 . S
C42 H47 0.961 . S
C42 H48 0.960 . S
C43 N41 1.346 . S
C43 N44 1.307 . S
C43 C45 1.486 . S
N44 N40 1.370 . S
N44 C43 1.307 . S
C45 C43 1.486 . S
C45 H49 0.960 . S
C45 H50 0.960 . S
C45 H51 0.959 . S
H46 C42 0.960 . S
H47 C42 0.961 . S
H48 C42 0.960 . S
H49 C45 0.960 . S
H50 C45 0.960 . S
H51 C45 0.959 . S
O52 Zn53 1.953 1_565 S
O52 C68 1.225 . S
Zn53 O52 1.953 1_545 S
Zn53 O54 1.949 1_655 S
Zn53 O60 1.919 . S
Zn53 O65 1.924 . S
O54 Zn53 1.949 1_455 S
O54 Zn55 1.923 . S
O54 Zn56 1.950 1_545 S
O54 Zn57 1.945 . S
Zn55 O54 1.923 . S
Zn55 O58 1.933 . S
Zn55 O61 1.941 . S
Zn55 O62 1.965 1_545 S
Zn56 O54 1.950 1_565 S
Zn56 O63 1.938 . S
Zn56 O64 1.906 . S
Zn56 O74 1.953 1_455 S
Zn57 O54 1.945 . S
Zn57 O59 1.932 . S
Zn57 O66 1.977 . S
Zn57 O67 1.910 1_455 S
O58 Zn55 1.933 . S
O58 C69 1.226 . S
O59 Zn57 1.932 . S
O59 C69 1.307 . S
O60 Zn53 1.919 . S
O60 C71 1.253 . S
O61 Zn55 1.941 . S
O61 C71 1.283 1_455 S
O62 Zn55 1.965 1_565 S
O62 C70 1.303 . S
O63 Zn56 1.938 . S
O63 C70 1.247 . S
O64 Zn56 1.906 . S
O64 C72 1.304 . S
O65 Zn53 1.924 . S
O65 C73 1.311 . S
O66 Zn57 1.977 . S
O66 C72 1.272 1_545 S
O67 Zn57 1.910 1_655 S
O67 C73 1.231 . S
C68 O52 1.225 . S
C68 O74 1.298 . S
C69 O58 1.226 . S
C69 O59 1.307 . S
C70 O62 1.303 . S
C70 O63 1.247 . S
C71 O60 1.253 . S
C71 O61 1.283 1_655 S
C72 O64 1.304 . S
C72 O66 1.272 1_565 S
C73 O65 1.311 . S
C73 O67 1.231 . S
O74 Zn56 1.953 1_655 S
O74 C68 1.298 . S
O75 Zn76 1.953 . S
O75 C91 1.223 1_556 S
Zn76 O75 1.953 . S
Zn76 O77 1.949 1_556 S
Zn76 O83 1.919 . S
Zn76 O88 1.924 1_556 S
O77 Zn76 1.949 1_554 S
O77 Zn78 1.923 1_554 S
O77 Zn79 1.950 . S
O77 Zn80 1.945 . S
Zn78 O77 1.923 1_556 S
Zn78 O81 1.933 . S
Zn78 O84 1.941 . S
Zn78 O85 1.965 . S
Zn79 O77 1.950 . S
Zn79 O86 1.938 1_554 S
Zn79 O87 1.906 . S
Zn79 O97 1.953 . S
Zn80 O77 1.945 . S
Zn80 O82 1.932 . S
Zn80 O89 1.977 . S
Zn80 O90 1.910 . S
O81 Zn78 1.933 . S
O81 C92 1.226 1_556 S
O82 Zn80 1.932 . S
O82 C92 1.307 . S
O83 Zn76 1.919 . S
O83 C94 1.253 . S
O84 Zn78 1.941 . S
O84 C94 1.283 . S
O85 Zn78 1.965 . S
O85 C93 1.303 . S
O86 Zn79 1.938 1_556 S
O86 C93 1.247 . S
O87 Zn79 1.906 . S
O87 C95 1.304 . S
O88 Zn76 1.924 1_554 S
O88 C96 1.311 . S
O89 Zn80 1.977 . S
O89 C95 1.272 . S
O90 Zn80 1.910 . S
O90 C96 1.231 . S
C91 O75 1.223 1_554 S
C91 O97 1.301 . S
C92 O81 1.226 1_554 S
C92 O82 1.307 . S
C93 O85 1.303 . S
C93 O86 1.247 . S
C94 O83 1.253 . S
C94 O84 1.283 . S
C95 O87 1.304 . S
C95 O89 1.272 . S
C96 O88 1.311 . S
C96 O90 1.231 . S
O97 Zn79 1.953 . S
O97 C91 1.301 . S
H98 C106 0.929 . S
H99 C108 0.930 . S
H100 C110 0.930 . S
H101 C113 0.929 . S
H102 C116 0.930 . S
H103 C118 0.960 . S
H104 C118 0.960 . S
H105 C118 0.960 . S
C106 H98 0.929 . S
C106 C107 1.377 . S
C106 C108 1.384 . S
C107 C106 1.377 . S
C107 C113 1.390 . S
C108 H99 0.930 . S
C108 C106 1.384 . S
C108 C109 1.372 . S
C109 C108 1.372 . S
C109 C110 1.400 . S
C109 C114 1.490 . S
C110 H100 0.930 . S
C110 C109 1.400 . S
C110 C113 1.386 . S
H111 C127 0.930 . S
H112 C128 0.931 . S
C113 H101 0.929 . S
C113 C107 1.390 . S
C113 C110 1.386 . S
C114 C109 1.490 . S
C114 C116 1.395 . S
C114 C117 1.403 . S
H115 C121 0.930 . S
C116 H102 0.930 . S
C116 C114 1.395 . S
C116 C119 1.403 . S
C117 C114 1.403 . S
C117 C118 1.524 . S
C117 C121 1.400 . S
C118 H103 0.960 . S
C118 H104 0.960 . S
C118 H105 0.960 . S
C118 C117 1.524 . S
C119 C116 1.403 . S
C119 C120 1.392 . S
C119 C123 1.495 . S
C120 C119 1.392 . S
C120 C121 1.385 . S
C120 C122 1.478 . S
C121 H115 0.930 . S
C121 C117 1.400 . S
C121 C120 1.385 . S
C122 C120 1.478 . S
C122 C124 1.381 . S
C122 C128 1.383 . S
C123 C119 1.495 . S
C123 H129 0.959 . S
C123 H130 0.961 . S
C123 H131 0.960 . S
C124 C122 1.381 . S
C124 C125 1.394 . S
C124 H132 0.930 . S
C125 C124 1.394 . S
C125 C126 1.383 . S
C125 H133 0.929 . S
C126 C125 1.383 . S
C126 C127 1.377 . S
C127 H111 0.930 . S
C127 C126 1.377 . S
C127 C128 1.379 . S
C128 H112 0.931 . S
C128 C122 1.383 . S
C128 C127 1.379 . S
H129 C123 0.959 . S
H130 C123 0.961 . S
H131 C123 0.960 . S
H132 C124 0.930 . S
H133 C125 0.929 . S
H134 C142 0.929 . S
H135 C144 0.930 . S
H136 C146 0.930 . S
H137 C149 0.929 . S
H138 C152 0.930 . S
H139 C154 0.960 . S
H140 C154 0.960 . S
H141 C154 0.960 . S
C142 H134 0.929 . S
C142 C143 1.377 1_556 S
C142 C144 1.384 . S
C143 C142 1.377 1_554 S
C143 C149 1.390 . S
C144 H135 0.930 . S
C144 C142 1.384 . S
C144 C145 1.372 1_556 S
C145 C144 1.372 1_554 S
C145 C146 1.400 . S
C145 C150 1.490 . S
C146 H136 0.930 . S
C146 C145 1.400 . S
C146 C149 1.386 . S
H147 C163 0.930 . S
H148 C164 0.931 . S
C149 H137 0.929 . S
C149 C143 1.390 . S
C149 C146 1.386 . S
C150 C145 1.490 . S
C150 C152 1.395 . S
C150 C153 1.403 1_554 S
H151 C157 0.930 . S
C152 H138 0.930 . S
C152 C150 1.395 . S
C152 C155 1.403 . S
C153 C150 1.403 1_556 S
C153 C154 1.524 . S
C153 C157 1.400 . S
C154 H139 0.960 . S
C154 H140 0.960 . S
C154 H141 0.960 . S
C154 C153 1.524 . S
C155 C152 1.403 . S
C155 C156 1.392 . S
C155 C159 1.495 . S
C156 C155 1.392 . S
C156 C157 1.385 1_554 S
C156 C158 1.478 . S
C157 H151 0.930 . S
C157 C153 1.400 . S
C157 C156 1.385 1_556 S
C158 C156 1.478 . S
C158 C160 1.381 1_554 S
C158 C164 1.383 . S
C159 C155 1.495 . S
C159 H165 0.959 . S
C159 H166 0.961 . S
C159 H167 0.960 . S
C160 C158 1.381 1_556 S
C160 C161 1.394 . S
C160 H168 0.930 . S
C161 C160 1.394 . S
C161 C162 1.383 1_556 S
C161 H169 0.929 . S
C162 C161 1.383 1_554 S
C162 C163 1.377 . S
C163 H147 0.930 . S
C163 C162 1.377 . S
C163 C164 1.379 . S
C164 H148 0.931 . S
C164 C158 1.383 . S
C164 C163 1.379 . S
H165 C159 0.959 . S
H166 C159 0.961 . S
H167 C159 0.960 . S
H168 C160 0.930 . S
H169 C161 0.929 . S
H170 C178 0.929 . S
H171 C180 0.930 . S
H172 C182 0.930 . S
H173 C185 0.929 . S
H174 C188 0.930 . S
H175 C190 0.960 . S
H176 C190 0.960 . S
H177 C190 0.960 . S
C178 H170 0.929 . S
C178 C179 1.377 . S
C178 C180 1.384 . S
C179 C178 1.377 . S
C179 C185 1.390 . S
C180 H171 0.930 . S
C180 C178 1.384 . S
C180 C181 1.372 . S
C181 C180 1.372 . S
C181 C182 1.400 . S
C181 C186 1.490 . S
C182 H172 0.930 . S
C182 C181 1.400 . S
C182 C185 1.386 . S
H183 C199 0.930 . S
H184 C200 0.931 . S
C185 H173 0.929 . S
C185 C179 1.390 . S
C185 C182 1.386 . S
C186 C181 1.490 . S
C186 C188 1.395 . S
C186 C189 1.403 . S
H187 C193 0.930 . S
C188 H174 0.930 . S
C188 C186 1.395 . S
C188 C191 1.403 . S
C189 C186 1.403 . S
C189 C190 1.524 . S
C189 C193 1.400 . S
C190 H175 0.960 . S
C190 H176 0.960 . S
C190 H177 0.960 . S
C190 C189 1.524 . S
C191 C188 1.403 . S
C191 C192 1.392 . S
C191 C195 1.495 . S
C192 C191 1.392 . S
C192 C193 1.385 . S
C192 C194 1.478 . S
C193 H187 0.930 . S
C193 C189 1.400 . S
C193 C192 1.385 . S
C194 C192 1.478 . S
C194 C196 1.381 . S
C194 C200 1.383 . S
C195 C191 1.495 . S
C195 H201 0.959 . S
C195 H202 0.961 . S
C195 H203 0.960 . S
C196 C194 1.381 . S
C196 C197 1.394 . S
C196 H204 0.930 . S
C197 C196 1.394 . S
C197 C198 1.383 . S
C197 H205 0.929 . S
C198 C197 1.383 . S
C198 C199 1.377 . S
C199 H183 0.930 . S
C199 C198 1.377 . S
C199 C200 1.379 . S
C200 H184 0.931 . S
C200 C194 1.383 . S
C200 C199 1.379 . S
H201 C195 0.959 . S
H202 C195 0.961 . S
H203 C195 0.960 . S
H204 C196 0.930 . S
H205 C197 0.929 . S
H206 C214 0.929 . S
H207 C216 0.930 . S
H208 C218 0.930 . S
H209 C221 0.929 . S
H210 C224 0.930 . S
H211 C226 0.960 . S
H212 C226 0.960 . S
H213 C226 0.960 . S
C214 H206 0.929 . S
C214 C215 1.387 . S
C214 C216 1.384 . S
C215 C214 1.387 . S
C215 C221 1.380 1_554 S
C216 H207 0.930 . S
C216 C214 1.384 . S
C216 C217 1.372 . S
C217 C216 1.372 . S
C217 C218 1.400 1_554 S
C217 C222 1.490 . S
C218 H208 0.930 . S
C218 C217 1.400 1_556 S
C218 C221 1.386 . S
H219 C235 0.930 . S
H220 C236 0.931 . S
C221 H209 0.929 . S
C221 C215 1.380 1_556 S
C221 C218 1.386 . S
C222 C217 1.490 . S
C222 C224 1.395 . S
C222 C225 1.403 1_554 S
H223 C229 0.930 . S
C224 H210 0.930 . S
C224 C222 1.395 . S
C224 C227 1.403 . S
C225 C222 1.403 1_556 S
C225 C226 1.524 . S
C225 C229 1.400 . S
C226 H211 0.960 . S
C226 H212 0.960 . S
C226 H213 0.960 . S
C226 C225 1.524 . S
C227 C224 1.403 . S
C227 C228 1.392 . S
C227 C231 1.495 . S
C228 C227 1.392 . S
C228 C229 1.385 1_554 S
C228 C230 1.478 . S
C229 H223 0.930 . S
C229 C225 1.400 . S
C229 C228 1.385 1_556 S
C230 C228 1.478 . S
C230 C232 1.381 . S
C230 C236 1.383 1_554 S
C231 C227 1.495 . S
C231 H237 0.959 . S
C231 H238 0.961 . S
C231 H239 0.960 . S
C232 C230 1.381 . S
C232 C233 1.394 . S
C232 H240 0.930 . S
C233 C232 1.394 . S
C233 C234 1.383 . S
C233 H241 0.929 . S
C234 C233 1.383 . S
C234 C235 1.377 1_554 S
C235 H219 0.930 . S
C235 C234 1.377 1_556 S
C235 C236 1.379 . S
C236 H220 0.931 . S
C236 C230 1.383 1_556 S
C236 C235 1.379 . S
H237 C231 0.959 . S
H238 C231 0.961 . S
H239 C231 0.960 . S
H240 C232 0.930 . S
H241 C233 0.929 . S
H242 C250 0.929 . S
H243 C252 0.930 . S
H244 C254 0.930 . S
H245 C257 0.929 . S
H246 C260 0.930 . S
H247 C262 0.960 . S
H248 C262 0.960 . S
H249 C262 0.960 . S
C250 H242 0.929 . S
C250 C251 1.377 . S
C250 C252 1.384 . S
C251 C250 1.377 . S
C251 C257 1.390 . S
C252 H243 0.930 . S
C252 C250 1.384 . S
C252 C253 1.372 . S
C253 C252 1.372 . S
C253 C254 1.400 . S
C253 C258 1.490 . S
C254 H244 0.930 . S
C254 C253 1.400 . S
C254 C257 1.386 . S
H255 C271 0.930 . S
H256 C272 0.931 . S
C257 H245 0.929 . S
C257 C251 1.390 . S
C257 C254 1.386 . S
C258 C253 1.490 . S
C258 C260 1.395 . S
C258 C261 1.403 . S
H259 C265 0.930 . S
C260 H246 0.930 . S
C260 C258 1.395 . S
C260 C263 1.403 . S
C261 C258 1.403 . S
C261 C262 1.524 . S
C261 C265 1.400 . S
C262 H247 0.960 . S
C262 H248 0.960 . S
C262 H249 0.960 . S
C262 C261 1.524 . S
C263 C260 1.403 . S
C263 C264 1.392 . S
C263 C267 1.495 . S
C264 C263 1.392 . S
C264 C265 1.385 . S
C264 C266 1.478 . S
C265 H259 0.930 . S
C265 C261 1.400 . S
C265 C264 1.385 . S
C266 C264 1.478 . S
C266 C268 1.381 . S
C266 C272 1.383 . S
C267 C263 1.495 . S
C267 H273 0.959 . S
C267 H274 0.961 . S
C267 H275 0.960 . S
C268 C266 1.381 . S
C268 C269 1.394 . S
C268 H276 0.930 . S
C269 C268 1.394 . S
C269 C270 1.383 . S
C269 H277 0.929 . S
C270 C269 1.383 . S
C270 C271 1.377 . S
C271 H255 0.930 . S
C271 C270 1.377 . S
C271 C272 1.379 . S
C272 H256 0.931 . S
C272 C266 1.383 . S
C272 C271 1.379 . S
H273 C267 0.959 . S
H274 C267 0.961 . S
H275 C267 0.960 . S
H276 C268 0.930 . S
H277 C269 0.929 . S
H278 C286 0.929 . S
H279 C288 0.930 . S
H280 C290 0.930 . S
H281 C293 0.929 . S
H282 C296 0.930 . S
H283 C298 0.960 . S
H284 C298 0.960 . S
H285 C298 0.960 . S
C286 H278 0.929 . S
C286 C287 1.377 . S
C286 C288 1.384 . S
C287 C286 1.377 . S
C287 C293 1.390 . S
C288 H279 0.930 . S
C288 C286 1.384 . S
C288 C289 1.372 . S
C289 C288 1.372 . S
C289 C290 1.400 . S
C289 C294 1.490 . S
C290 H280 0.930 . S
C290 C289 1.400 . S
C290 C293 1.386 . S
H291 C307 0.930 . S
H292 C308 0.931 . S
C293 H281 0.929 . S
C293 C287 1.390 . S
C293 C290 1.386 . S
C294 C289 1.490 . S
C294 C296 1.395 . S
C294 C297 1.403 . S
H295 C301 0.930 . S
C296 H282 0.930 . S
C296 C294 1.395 . S
C296 C299 1.403 . S
C297 C294 1.403 . S
C297 C298 1.524 . S
C297 C301 1.400 . S
C298 H283 0.960 . S
C298 H284 0.960 . S
C298 H285 0.960 . S
C298 C297 1.524 . S
C299 C296 1.403 . S
C299 C300 1.392 . S
C299 C303 1.495 . S
C300 C299 1.392 . S
C300 C301 1.385 . S
C300 C302 1.478 . S
C301 H295 0.930 . S
C301 C297 1.400 . S
C301 C300 1.385 . S
C302 C300 1.478 . S
C302 C304 1.381 . S
C302 C308 1.383 . S
C303 C299 1.495 . S
C303 H309 0.959 . S
C303 H310 0.961 . S
C303 H311 0.960 . S
C304 C302 1.381 . S
C304 C305 1.394 . S
C304 H312 0.930 . S
C305 C304 1.394 . S
C305 C306 1.383 . S
C305 H313 0.929 . S
C306 C305 1.383 . S
C306 C307 1.377 . S
C307 H291 0.930 . S
C307 C306 1.377 . S
C307 C308 1.379 . S
C308 H292 0.931 . S
C308 C302 1.383 . S
C308 C307 1.379 . S
H309 C303 0.959 . S
H310 C303 0.961 . S
H311 C303 0.960 . S
H312 C304 0.930 . S
H313 C305 0.929 . S
H314 C322 0.929 . S
H315 C324 0.930 . S
H316 C326 0.930 . S
H317 C329 0.929 . S
H318 C332 0.930 . S
H319 C334 0.960 . S
H320 C334 0.960 . S
H321 C334 0.960 . S
C322 H314 0.929 . S
C322 C323 1.377 . S
C322 C324 1.384 . S
C323 C322 1.377 . S
C323 C329 1.390 . S
C324 H315 0.930 . S
C324 C322 1.384 . S
C324 C325 1.372 . S
C325 C324 1.372 . S
C325 C326 1.400 . S
C325 C330 1.490 . S
C326 H316 0.930 . S
C326 C325 1.400 . S
C326 C329 1.386 . S
H327 C343 0.930 . S
H328 C344 0.931 . S
C329 H317 0.929 . S
C329 C323 1.390 . S
C329 C326 1.386 . S
C330 C325 1.490 . S
C330 C332 1.395 . S
C330 C333 1.403 . S
H331 C337 0.930 . S
C332 H318 0.930 . S
C332 C330 1.395 . S
C332 C335 1.403 . S
C333 C330 1.403 . S
C333 C334 1.524 . S
C333 C337 1.400 . S
C334 H319 0.960 . S
C334 H320 0.960 . S
C334 H321 0.960 . S
C334 C333 1.524 . S
C335 C332 1.403 . S
C335 C336 1.392 . S
C335 C339 1.495 . S
C336 C335 1.392 . S
C336 C337 1.385 . S
C336 C338 1.478 . S
C337 H331 0.930 . S
C337 C333 1.400 . S
C337 C336 1.385 . S
C338 C336 1.478 . S
C338 C340 1.381 . S
C338 C344 1.383 . S
C339 C335 1.495 . S
C339 H345 0.959 . S
C339 H346 0.961 . S
C339 H347 0.960 . S
C340 C338 1.381 . S
C340 C341 1.394 . S
C340 H348 0.930 . S
C341 C340 1.394 . S
C341 C342 1.383 . S
C341 H349 0.929 . S
C342 C341 1.383 . S
C342 C343 1.377 . S
C343 H327 0.930 . S
C343 C342 1.377 . S
C343 C344 1.379 . S
C344 H328 0.931 . S
C344 C338 1.383 . S
C344 C343 1.379 . S
H345 C339 0.959 . S
H346 C339 0.961 . S
H347 C339 0.960 . S
H348 C340 0.930 . S
H349 C341 0.929 . S
H350 C358 0.929 . S
H351 C360 0.930 . S
H352 C362 0.930 . S
H353 C365 0.929 . S
H354 C368 0.930 . S
H355 C370 0.960 . S
H356 C370 0.960 . S
H357 C370 0.960 . S
C358 H350 0.929 . S
C358 C359 1.377 . S
C358 C360 1.384 . S
C359 C358 1.377 . S
C359 C365 1.390 . S
C360 H351 0.930 . S
C360 C358 1.384 . S
C360 C361 1.372 . S
C361 C360 1.372 . S
C361 C362 1.400 . S
C361 C366 1.490 . S
C362 H352 0.930 . S
C362 C361 1.400 . S
C362 C365 1.386 . S
H363 C379 0.930 . S
H364 C380 0.931 . S
C365 H353 0.929 . S
C365 C359 1.390 . S
C365 C362 1.386 . S
C366 C361 1.490 . S
C366 C368 1.395 . S
C366 C369 1.403 . S
H367 C373 0.930 . S
C368 H354 0.930 . S
C368 C366 1.395 . S
C368 C371 1.403 . S
C369 C366 1.403 . S
C369 C370 1.524 . S
C369 C373 1.400 . S
C370 H355 0.960 . S
C370 H356 0.960 . S
C370 H357 0.960 . S
C370 C369 1.524 . S
C371 C368 1.403 . S
C371 C372 1.392 . S
C371 C375 1.495 . S
C372 C371 1.392 . S
C372 C373 1.385 . S
C372 C374 1.478 . S
C373 H367 0.930 . S
C373 C369 1.400 . S
C373 C372 1.385 . S
C374 C372 1.478 . S
C374 C376 1.381 . S
C374 C380 1.383 . S
C375 C371 1.495 . S
C375 H381 0.959 . S
C375 H382 0.961 . S
C375 H383 0.960 . S
C376 C374 1.381 . S
C376 C377 1.394 . S
C376 H384 0.930 . S
C377 C376 1.394 . S
C377 C378 1.383 . S
C377 H385 0.929 . S
C378 C377 1.383 . S
C378 C379 1.377 . S
C379 H363 0.930 . S
C379 C378 1.377 . S
C379 C380 1.379 . S
C380 H364 0.931 . S
C380 C374 1.383 . S
C380 C379 1.379 . S
H381 C375 0.959 . S
H382 C375 0.961 . S
H383 C375 0.960 . S
H384 C376 0.930 . S
H385 C377 0.929 . S
H386 C394 0.929 . S
H387 C396 0.930 . S
H388 C398 0.930 . S
H389 C401 0.929 . S
H390 C404 0.930 . S
H391 C406 0.960 . S
H392 C406 0.960 . S
H393 C406 0.960 . S
C394 H386 0.929 . S
C394 C395 1.377 . S
C394 C396 1.384 . S
C395 C394 1.377 . S
C395 C401 1.390 . S
C396 H387 0.930 . S
C396 C394 1.384 . S
C396 C397 1.372 . S
C397 C396 1.372 . S
C397 C398 1.400 . S
C397 C402 1.490 . S
C398 H388 0.930 . S
C398 C397 1.400 . S
C398 C401 1.386 . S
H399 C415 0.930 . S
H400 C416 0.931 . S
C401 H389 0.929 . S
C401 C395 1.390 . S
C401 C398 1.386 . S
C402 C397 1.490 . S
C402 C404 1.395 . S
C402 C405 1.403 . S
H403 C409 0.930 . S
C404 H390 0.930 . S
C404 C402 1.395 . S
C404 C407 1.403 . S
C405 C402 1.403 . S
C405 C406 1.524 . S
C405 C409 1.400 . S
C406 H391 0.960 . S
C406 H392 0.960 . S
C406 H393 0.960 . S
C406 C405 1.524 . S
C407 C404 1.403 . S
C407 C408 1.392 . S
C407 C411 1.495 . S
C408 C407 1.392 . S
C408 C409 1.385 . S
C408 C410 1.478 . S
C409 H403 0.930 . S
C409 C405 1.400 . S
C409 C408 1.385 . S
C410 C408 1.478 . S
C410 C412 1.381 . S
C410 C416 1.383 . S
C411 C407 1.495 . S
C411 H417 0.959 . S
C411 H418 0.961 . S
C411 H419 0.960 . S
C412 C410 1.381 . S
C412 C413 1.394 . S
C412 H420 0.930 . S
C413 C412 1.394 . S
C413 C414 1.383 . S
C413 H421 0.929 . S
C414 C413 1.383 . S
C414 C415 1.377 . S
C415 H399 0.930 . S
C415 C414 1.377 . S
C415 C416 1.379 . S
C416 H400 0.931 . S
C416 C410 1.383 . S
C416 C415 1.379 . S
H417 C411 0.959 . S
H418 C411 0.961 . S
H419 C411 0.960 . S
H420 C412 0.930 . S
H421 C413 0.929 . S
H422 C430 0.929 . S
H423 C432 0.930 . S
H424 C434 0.930 . S
H425 C437 0.929 . S
H426 C440 0.930 . S
H427 C442 0.960 . S
H428 C442 0.960 . S
H429 C442 0.960 . S
C430 H422 0.929 . S
C430 C431 1.377 . S
C430 C432 1.384 . S
C431 C430 1.377 . S
C431 C437 1.390 . S
C432 H423 0.930 . S
C432 C430 1.384 . S
C432 C433 1.372 . S
C433 C432 1.372 . S
C433 C434 1.400 . S
C433 C438 1.490 . S
C434 H424 0.930 . S
C434 C433 1.400 . S
C434 C437 1.386 . S
H435 C451 0.930 . S
H436 C452 0.931 . S
C437 H425 0.929 . S
C437 C431 1.390 . S
C437 C434 1.386 . S
C438 C433 1.490 . S
C438 C440 1.395 . S
C438 C441 1.403 . S
H439 C445 0.930 . S
C440 H426 0.930 . S
C440 C438 1.395 . S
C440 C443 1.403 . S
C441 C438 1.403 . S
C441 C442 1.524 . S
C441 C445 1.400 . S
C442 H427 0.960 . S
C442 H428 0.960 . S
C442 H429 0.960 . S
C442 C441 1.524 . S
C443 C440 1.403 . S
C443 C444 1.392 . S
C443 C447 1.495 . S
C444 C443 1.392 . S
C444 C445 1.385 . S
C444 C446 1.478 . S
C445 H439 0.930 . S
C445 C441 1.400 . S
C445 C444 1.385 . S
C446 C444 1.478 . S
C446 C448 1.381 . S
C446 C452 1.383 . S
C447 C443 1.495 . S
C447 H453 0.959 . S
C447 H454 0.961 . S
C447 H455 0.960 . S
C448 C446 1.381 . S
C448 C449 1.394 . S
C448 H456 0.930 . S
C449 C448 1.394 . S
C449 C450 1.383 . S
C449 H457 0.929 . S
C450 C449 1.383 . S
C450 C451 1.377 . S
C451 H435 0.930 . S
C451 C450 1.377 . S
C451 C452 1.379 . S
C452 H436 0.931 . S
C452 C446 1.383 . S
C452 C451 1.379 . S
H453 C447 0.959 . S
H454 C447 0.961 . S
H455 C447 0.960 . S
H456 C448 0.930 . S
H457 C449 0.929 . S
H458 C466 0.929 . S
H459 C468 0.930 . S
H460 C470 0.930 . S
H461 C473 0.929 . S
H462 C476 0.930 . S
H463 C478 0.960 . S
H464 C478 0.960 . S
H465 C478 0.960 . S
C466 H458 0.929 . S
C466 C467 1.377 . S
C466 C468 1.384 . S
C467 C466 1.377 . S
C467 C473 1.390 . S
C468 H459 0.930 . S
C468 C466 1.384 . S
C468 C469 1.372 . S
C469 C468 1.372 . S
C469 C470 1.400 . S
C469 C474 1.490 . S
C470 H460 0.930 . S
C470 C469 1.400 . S
C470 C473 1.386 . S
H471 C487 0.930 . S
H472 C488 0.931 . S
C473 H461 0.929 . S
C473 C467 1.390 . S
C473 C470 1.386 . S
C474 C469 1.490 . S
C474 C476 1.395 . S
C474 C477 1.403 . S
H475 C481 0.930 . S
C476 H462 0.930 . S
C476 C474 1.395 . S
C476 C479 1.403 . S
C477 C474 1.403 . S
C477 C478 1.524 . S
C477 C481 1.400 . S
C478 H463 0.960 . S
C478 H464 0.960 . S
C478 H465 0.960 . S
C478 C477 1.524 . S
C479 C476 1.403 . S
C479 C480 1.392 . S
C479 C483 1.495 . S
C480 C479 1.392 . S
C480 C481 1.385 . S
C480 C482 1.478 . S
C481 H475 0.930 . S
C481 C477 1.400 . S
C481 C480 1.385 . S
C482 C480 1.478 . S
C482 C484 1.381 . S
C482 C488 1.383 . S
C483 C479 1.495 . S
C483 H489 0.959 . S
C483 H490 0.961 . S
C483 H491 0.960 . S
C484 C482 1.381 . S
C484 C485 1.394 . S
C484 H492 0.930 . S
C485 C484 1.394 . S
C485 C486 1.383 . S
C485 H493 0.929 . S
C486 C485 1.383 . S
C486 C487 1.377 . S
C487 H471 0.930 . S
C487 C486 1.377 . S
C487 C488 1.379 . S
C488 H472 0.931 . S
C488 C482 1.383 . S
C488 C487 1.379 . S
H489 C483 0.959 . S
H490 C483 0.961 . S
H491 C483 0.960 . S
H492 C484 0.930 . S
H493 C485 0.929 . S
H494 C502 0.929 . S
H495 C504 0.930 . S
H496 C506 0.930 . S
H497 C509 0.929 . S
H498 C512 0.930 . S
H499 C514 0.960 . S
H500 C514 0.960 . S
H501 C514 0.960 . S
C502 H494 0.929 . S
C502 C503 1.377 . S
C502 C504 1.384 . S
C503 C502 1.377 . S
C503 C509 1.390 . S
C504 H495 0.930 . S
C504 C502 1.384 . S
C504 C505 1.372 . S
C505 C504 1.372 . S
C505 C506 1.400 . S
C505 C510 1.490 . S
C506 H496 0.930 . S
C506 C505 1.400 . S
C506 C509 1.386 . S
H507 C523 0.930 . S
H508 C524 0.931 . S
C509 H497 0.929 . S
C509 C503 1.390 . S
C509 C506 1.386 . S
C510 C505 1.490 . S
C510 C512 1.395 . S
C510 C513 1.403 . S
H511 C517 0.930 . S
C512 H498 0.930 . S
C512 C510 1.395 . S
C512 C515 1.403 . S
C513 C510 1.403 . S
C513 C514 1.524 . S
C513 C517 1.400 . S
C514 H499 0.960 . S
C514 H500 0.960 . S
C514 H501 0.960 . S
C514 C513 1.524 . S
C515 C512 1.403 . S
C515 C516 1.392 . S
C515 C519 1.495 . S
C516 C515 1.392 . S
C516 C517 1.385 . S
C516 C518 1.478 . S
C517 H511 0.930 . S
C517 C513 1.400 . S
C517 C516 1.385 . S
C518 C516 1.478 . S
C518 C520 1.381 . S
C518 C524 1.383 . S
C519 C515 1.495 . S
C519 H525 0.959 . S
C519 H526 0.961 . S
C519 H527 0.960 . S
C520 C518 1.381 . S
C520 C521 1.394 . S
C520 H528 0.930 . S
C521 C520 1.394 . S
C521 C522 1.383 . S
C521 H529 0.929 . S
C522 C521 1.383 . S
C522 C523 1.377 . S
C523 H507 0.930 . S
C523 C522 1.377 . S
C523 C524 1.379 . S
C524 H508 0.931 . S
C524 C518 1.383 . S
C524 C523 1.379 . S
H525 C519 0.959 . S
H526 C519 0.961 . S
H527 C519 0.960 . S
H528 C520 0.930 . S
H529 C521 0.929 . S
C126 C69 1.495 . S
C107 N41 1.495 . S
C143 N2 1.494 . S
C162 C92 1.494 . S
C179 N15 1.536 . S
C198 C68 1.533 . S
C215 N28 1.536 . S
C234 C91 1.532 . S
C270 C72 1.427 . S
C251 N5 1.462 . S
C306 C94 1.475 . S
C287 N14 1.519 . S
C323 N27 1.472 . S
C342 C73 1.411 . S
C359 N44 1.508 . S
C378 C93 1.455 . S
C414 C96 1.440 . S
C395 N18 1.470 . S
C450 C71 1.458 . S
C431 N31 1.521 . S
C486 C95 1.406 . S
C467 N40 1.462 . S
C503 N1 1.508 . S
C522 C70 1.481 . S
