# Generated by pormake.
# Topology ssa, (4,4)-cn, num edge types: 1
# Building blocks:
#     Node 0, Type 0, BuildingBlock: ESEHIV_clean_sbu_0, # of connection points: 4
#     Node 1, Type 0, BuildingBlock: ESEHIV_clean_sbu_0, # of connection points: 4
#     Node 2, Type 0, BuildingBlock: ESEHIV_clean_sbu_0, # of connection points: 4
#     Node 3, Type 0, BuildingBlock: ESEHIV_clean_sbu_0, # of connection points: 4
#     Node 4, Type 0, BuildingBlock: ESEHIV_clean_sbu_0, # of connection points: 4
#     Node 5, Type 0, BuildingBlock: ESEHIV_clean_sbu_0, # of connection points: 4
#     Node 6, Type 1, BuildingBlock: KUFVIS_clean_linker_0, # of connection points: 4
#     Node 7, Type 1, BuildingBlock: KUFVIS_clean_linker_0, # of connection points: 4
#     Node 8, Type 1, BuildingBlock: KUFVIS_clean_linker_0, # of connection points: 4
#     Node 9, Type 1, BuildingBlock: KUFVIS_clean_linker_0, # of connection points: 4
#     Node 10, Type 1, BuildingBlock: KUFVIS_clean_linker_0, # of connection points: 4
#     Node 11, Type 1, BuildingBlock: KUFVIS_clean_linker_0, # of connection points: 4
#     Edge 12, Type (0, 1), BuildingBlock: TEMPAE_clean_linker_10, # of connection points: 2
#     Edge 13, Type (0, 1), BuildingBlock: TEMPAE_clean_linker_10, # of connection points: 2
#     Edge 14, Type (0, 1), BuildingBlock: TEMPAE_clean_linker_10, # of connection points: 2
#     Edge 15, Type (0, 1), BuildingBlock: TEMPAE_clean_linker_10, # of connection points: 2
#     Edge 16, Type (0, 1), BuildingBlock: TEMPAE_clean_linker_10, # of connection points: 2
#     Edge 17, Type (0, 1), BuildingBlock: TEMPAE_clean_linker_10, # of connection points: 2
#     Edge 18, Type (0, 1), BuildingBlock: TEMPAE_clean_linker_10, # of connection points: 2
#     Edge 19, Type (0, 1), BuildingBlock: TEMPAE_clean_linker_10, # of connection points: 2
#     Edge 20, Type (0, 1), BuildingBlock: TEMPAE_clean_linker_10, # of connection points: 2
#     Edge 21, Type (0, 1), BuildingBlock: TEMPAE_clean_linker_10, # of connection points: 2
#     Edge 22, Type (0, 1), BuildingBlock: TEMPAE_clean_linker_10, # of connection points: 2
#     Edge 23, Type (0, 1), BuildingBlock: TEMPAE_clean_linker_10, # of connection points: 2
#     Edge 24, Type (0, 1), BuildingBlock: TEMPAE_clean_linker_10, # of connection points: 2
#     Edge 25, Type (0, 1), BuildingBlock: TEMPAE_clean_linker_10, # of connection points: 2
#     Edge 26, Type (0, 1), BuildingBlock: TEMPAE_clean_linker_10, # of connection points: 2
#     Edge 27, Type (0, 1), BuildingBlock: TEMPAE_clean_linker_10, # of connection points: 2
#     Edge 28, Type (0, 1), BuildingBlock: TEMPAE_clean_linker_10, # of connection points: 2
#     Edge 29, Type (0, 1), BuildingBlock: TEMPAE_clean_linker_10, # of connection points: 2
#     Edge 30, Type (0, 1), BuildingBlock: TEMPAE_clean_linker_10, # of connection points: 2
#     Edge 31, Type (0, 1), BuildingBlock: TEMPAE_clean_linker_10, # of connection points: 2
#     Edge 32, Type (0, 1), BuildingBlock: TEMPAE_clean_linker_10, # of connection points: 2
#     Edge 33, Type (0, 1), BuildingBlock: TEMPAE_clean_linker_10, # of connection points: 2
#     Edge 34, Type (0, 1), BuildingBlock: TEMPAE_clean_linker_10, # of connection points: 2
#     Edge 35, Type (0, 1), BuildingBlock: TEMPAE_clean_linker_10, # of connection points: 2
# Relax obj value: 0.006
# Max RMSD: 0.108
# Mean RMSD: 0.074
data_MOF--net-ssa--node1-ESEHIV_clean_sbu_0--node2-KUFVIS_clean_linker_0--edge1-TEMPAE_clean_linker_10
_symmetry_space_group_name_H-M    P1
_symmetry_Int_Tables_number       1
_symmetry_cell_setting            triclinic
loop_
_symmetry_equiv_pos_as_xyz
'x, y, z'
_cell_length_a     53.757275
_cell_length_b     57.464853
_cell_length_c     30.96129
_cell_angle_alpha  88.020142
_cell_angle_beta   91.097456
_cell_angle_gamma 122.30509
loop_
_atom_site_label
_atom_site_type_symbol
_atom_site_fract_x
_atom_site_fract_y
_atom_site_fract_z
_atom_type_partial_charge
Cu0 Cu 0.02343 0.5342 0.01134 0.0
N1 N 0.9973 0.49833 0.03222 0.0
N2 N 0.96112 0.45384 0.0321 0.0
C3 C 0.977 0.47745 0.00843 0.0
C4 C 0.97204 0.46019 0.0726 0.0
C5 C 0.99433 0.48771 0.07258 0.0
O6 O 1.00131 0.54335 0.97011 0.0
C7 C 0.06329 0.51764 0.98623 0.0
O8 O 0.03988 0.49294 0.98099 0.0
H9 H 0.9745 0.47942 0.97406 0.0
H10 H 1.00746 0.49916 0.09998 0.0
N11 N 0.03545 0.55835 0.05699 0.0
N12 N 0.06567 0.59032 0.1038 0.0
C13 C 0.06357 0.57576 0.06907 0.0
C14 C 0.019 0.56199 0.08479 0.0
C15 C 0.03757 0.58167 0.11375 0.0
C16 C 0.99237 0.53346 0.9327 0.0
O17 O 1.00172 0.51868 0.91633 0.0
H18 H 0.08208 0.5773 0.05304 0.0
H19 H 0.99523 0.55098 0.08419 0.0
O20 O 0.06005 0.5377 0.99269 0.0
H21 H 0.96443 0.44609 0.1003 0.0
H22 H 0.03079 0.58907 0.13991 0.0
Cu23 Cu 0.54145 0.02342 0.52001 0.0
N24 N 0.55418 0.0126 0.47302 0.0
N25 N 0.559 0.98395 0.43158 0.0
C26 C 0.54843 0.98689 0.46891 0.0
C27 C 0.57197 1.009 0.41143 0.0
C28 C 0.56893 0.02658 0.43699 0.0
O29 O 0.50345 0.9906 0.53502 0.0
C30 C 0.59693 0.05508 0.55473 0.0
O31 O 0.60262 0.06208 0.51362 0.0
H32 H 0.53593 0.97045 0.49252 0.0
H33 H 0.57684 0.04798 0.42971 0.0
N34 N 0.53721 0.05339 0.50769 0.0
N35 N 0.53557 0.09069 0.52102 0.0
C36 C 0.53672 0.06933 0.53819 0.0
C37 C 0.53633 0.06502 0.46968 0.0
C38 C 0.53534 0.08804 0.4778 0.0
C39 C 0.48415 0.98363 0.50538 0.0
O40 O 0.49047 1.00069 0.47209 0.0
H41 H 0.53818 0.06575 0.57244 0.0
H42 H 0.5367 0.05752 0.4383 0.0
O43 O 0.57081 0.03629 0.56574 0.0
H44 H 0.58298 0.01437 0.38047 0.0
H45 H 0.53445 0.10169 0.45372 0.0
Cu46 Cu 0.54207 0.52072 0.01495 0.0
N47 N 0.53745 0.48634 0.02704 0.0
N48 N 0.53571 0.44739 0.01337 0.0
C49 C 0.53708 0.47005 0.99639 0.0
C50 C 0.5352 0.44957 0.05661 0.0
C51 C 0.53624 0.47358 0.06495 0.0
O52 O 0.57185 0.53725 0.96989 0.0
C53 C 0.48482 0.50361 0.02872 0.0
O54 O 0.49095 0.49289 0.06227 0.0
H55 H 0.53879 0.47528 0.9622 0.0
H56 H 0.53643 0.48127 0.0964 0.0
N57 N 0.55463 0.54408 0.06219 0.0
N58 N 0.55944 0.57752 0.10364 0.0
C59 C 0.54938 0.5644 0.06591 0.0
C60 C 0.56855 0.54426 0.09887 0.0
C61 C 0.57155 0.56486 0.12448 0.0
C62 C 0.59768 0.54392 0.98153 0.0
O63 O 0.60275 0.54199 0.02275 0.0
H64 H 0.53755 0.56884 0.04177 0.0
H65 H 0.57587 0.53037 0.1066 0.0
O66 O 0.50427 0.51586 0.99929 0.0
H67 H 0.5341 0.43487 0.08055 0.0
H68 H 0.58192 0.57007 0.15595 0.0
Cu69 Cu 0.02505 0.49375 0.51939 0.0
N70 N 0.0356 0.48027 0.4737 0.0
N71 N 0.06521 0.47791 0.42644 0.0
C72 C 0.06358 0.48975 0.46234 0.0
C73 C 0.03691 0.46011 0.41493 0.0
C74 C 0.01874 0.46169 0.44401 0.0
O75 O 0.06267 0.52604 0.53708 0.0
C76 C 0.9763 0.44513 0.55252 0.0
O77 O 0.96726 0.44614 0.5132 0.0
H78 H 0.08238 0.50576 0.47942 0.0
H79 H 0.99499 0.45055 0.44281 0.0
N80 N 1.00088 0.50594 0.49932 0.0
N81 N 0.96747 0.51769 0.5016 0.0
C82 C 0.98137 0.50727 0.52385 0.0
C83 C 0.99931 0.51568 0.45991 0.0
C84 C 0.97857 0.5229 0.46117 0.0
C85 C 0.06689 0.54943 0.5458 0.0
O86 O 0.04417 0.55127 0.55426 0.0
H87 H 0.97748 0.50058 0.55749 0.0
H88 H 1.01251 0.51768 0.43244 0.0
O89 O 1.00231 0.46423 0.56336 0.0
H90 H 0.02967 0.447 0.3873 0.0
H91 H 0.97266 0.53183 0.4347 0.0
Cu92 Cu 0.49937 0.99649 0.02132 0.0
N93 N 0.47891 1.00675 0.98405 0.0
N94 N 0.46877 0.03533 0.94883 0.0
C95 C 0.48439 0.03249 0.98085 0.0
C96 C 0.45268 1.01027 0.93122 0.0
C97 C 0.45895 0.99265 0.95308 0.0
O98 O 0.53933 0.02956 0.02404 0.0
C99 C 0.451 0.96102 0.07134 0.0
O100 O 0.44053 0.9539 0.03208 0.0
H101 H 0.50078 0.04918 0.00021 0.0
H102 H 0.45018 0.97132 0.94607 0.0
N103 N 0.50164 0.96756 0.00043 0.0
N104 N 0.50471 0.93027 0.00554 0.0
C105 C 0.5066 0.95133 0.02658 0.0
C106 C 0.49641 0.9565 0.96112 0.0
C107 C 0.4982 0.93335 0.96422 0.0
C108 C 0.55309 0.03629 0.98806 0.0
O109 O 0.54025 0.02 0.95535 0.0
H110 H 0.51015 0.95426 0.06101 0.0
H111 H 0.49106 0.96429 0.9325 0.0
O112 O 0.47748 0.98135 0.07573 0.0
H113 H 0.43791 1.00517 0.90396 0.0
H114 H 0.49466 0.91973 0.9383 0.0
Cu115 Cu 0.49591 0.50294 0.51011 0.0
N116 N 0.49796 0.53412 0.53069 0.0
N117 N 0.50102 0.57447 0.52539 0.0
C118 C 0.50307 0.55535 0.5045 0.0
C119 C 0.49426 0.56483 0.56663 0.0
C120 C 0.49246 0.53989 0.56985 0.0
O121 O 0.47415 0.49603 0.45546 0.0
C122 C 0.55008 0.51775 0.5434 0.0
O123 O 0.53782 0.52233 0.57558 0.0
H124 H 0.50687 0.55602 0.47015 0.0
H125 H 0.48696 0.52673 0.59846 0.0
N126 N 0.47551 0.47229 0.54748 0.0
N127 N 0.46573 0.43382 0.58313 0.0
C128 C 0.48129 0.45224 0.55108 0.0
C129 C 0.45541 0.46635 0.57821 0.0
C130 C 0.44936 0.4426 0.60034 0.0
C131 C 0.44755 0.4896 0.4594 0.0
O132 O 0.43679 0.48603 0.49848 0.0
H133 H 0.49786 0.45208 0.53201 0.0
H134 H 0.4464 0.47875 0.58489 0.0
O135 O 0.53588 0.5098 0.50783 0.0
H136 H 0.49058 0.57488 0.59243 0.0
H137 H 0.43456 0.43292 0.62753 0.0
H138 H 0.36243 0.51312 0.17964 0.0
H139 H 0.28963 0.5014 0.25191 0.0
H140 H 0.29991 0.52701 0.11608 0.0
H141 H 0.25205 0.50981 0.1175 0.0
H142 H 0.19197 0.51826 0.19419 0.0
H143 H 0.2644 0.52031 0.25641 0.0
C144 C 0.34246 0.51347 0.18099 0.0
C145 C 0.3325 0.52037 0.14369 0.0
C146 C 0.32739 0.50711 0.21998 0.0
C147 C 0.30139 0.5074 0.2216 0.0
C148 C 0.29051 0.51449 0.1843 0.0
C149 C 0.30668 0.52094 0.1452 0.0
C150 C 0.26285 0.51546 0.18643 0.0
C151 C 0.24605 0.51321 0.14871 0.0
C152 C 0.22036 0.51411 0.15143 0.0
C153 C 0.2117 0.5176 0.19173 0.0
C154 C 0.22702 0.51901 0.22932 0.0
C155 C 0.25262 0.51828 0.22671 0.0
H156 H 0.69151 0.16147 0.80822 0.0
H157 H 0.75193 0.23484 0.87496 0.0
H158 H 0.76932 0.224 0.74289 0.0
H159 H 0.79659 0.26945 0.73906 0.0
H160 H 0.86803 0.33295 0.81079 0.0
H161 H 0.80008 0.26146 0.87881 0.0
C162 C 0.71188 0.18154 0.80856 0.0
C163 C 0.72936 0.19145 0.77162 0.0
C164 C 0.72003 0.19693 0.84585 0.0
C165 C 0.74648 0.22299 0.84607 0.0
C166 C 0.76504 0.23365 0.80889 0.0
C167 C 0.75586 0.21727 0.77168 0.0
C168 C 0.79389 0.26135 0.80899 0.0
C169 C 0.80718 0.27677 0.76998 0.0
C170 C 0.83414 0.30241 0.77077 0.0
C171 C 0.84767 0.31289 0.81032 0.0
C172 C 0.83534 0.29833 0.84917 0.0
C173 C 0.80868 0.27264 0.84843 0.0
H174 H 0.51396 0.6781 0.28971 0.0
H175 H 0.53444 0.74684 0.2057 0.0
H176 H 0.5061 0.74294 0.33754 0.0
H177 H 0.53337 0.7899 0.32758 0.0
H178 H 0.51369 0.8384 0.24263 0.0
H179 H 0.50694 0.76616 0.19493 0.0
C180 C 0.51555 0.69762 0.28431 0.0
C181 C 0.50945 0.70927 0.31818 0.0
C182 C 0.52434 0.71089 0.24387 0.0
C183 C 0.52722 0.73656 0.23707 0.0
C184 C 0.52035 0.74856 0.27052 0.0
C185 C 0.51187 0.73468 0.31137 0.0
C186 C 0.52027 0.77447 0.26237 0.0
C187 C 0.52654 0.7931 0.29598 0.0
C188 C 0.52355 0.81582 0.28901 0.0
C189 C 0.51527 0.82047 0.24822 0.0
C190 C 0.50976 0.80295 0.21422 0.0
C191 C 0.51226 0.78002 0.22124 0.0
H192 H 0.86684 0.53856 0.70893 0.0
H193 H 0.79924 0.53126 0.78997 0.0
H194 H 0.79186 0.53316 0.64972 0.0
H195 H 0.74562 0.5148 0.65855 0.0
H196 H 0.68771 0.52772 0.73172 0.0
H197 H 0.7683 0.54481 0.78959 0.0
C198 C 0.84593 0.53701 0.71242 0.0
C199 C 0.82976 0.53512 0.67558 0.0
C200 C 0.83539 0.53621 0.75361 0.0
C201 C 0.8075 0.53291 0.75774 0.0
C202 C 0.79087 0.53195 0.72041 0.0
C203 C 0.80287 0.53328 0.67931 0.0
C204 C 0.76162 0.53004 0.7237 0.0
C205 C 0.74144 0.52146 0.68823 0.0
C206 C 0.7149 0.52077 0.69097 0.0
C207 C 0.70806 0.5281 0.72936 0.0
C208 C 0.72702 0.53628 0.76471 0.0
C209 C 0.75374 0.53749 0.76199 0.0
H210 H 0.19373 0.6765 0.33555 0.0
H211 H 0.26609 0.74651 0.27258 0.0
H212 H 0.2546 0.74492 0.41168 0.0
H213 H 0.30192 0.77562 0.41323 0.0
H214 H 0.3648 0.85179 0.34979 0.0
H215 H 0.29243 0.79058 0.27687 0.0
C216 C 0.21358 0.69683 0.33776 0.0
C217 C 0.22265 0.70902 0.37798 0.0
C218 C 0.22872 0.71059 0.29999 0.0
C219 C 0.25447 0.73687 0.30239 0.0
C220 C 0.26504 0.74998 0.34262 0.0
C221 C 0.24842 0.73554 0.38046 0.0
C222 C 0.29286 0.77853 0.34472 0.0
C223 C 0.30883 0.78834 0.384 0.0
C224 C 0.33464 0.8147 0.38567 0.0
C225 C 0.34486 0.83145 0.34831 0.0
C226 C 0.33002 0.82265 0.30914 0.0
C227 C 0.304 0.79638 0.30735 0.0
H228 H 0.52633 0.34515 0.77782 0.0
H229 H 0.53684 0.28247 0.83694 0.0
H230 H 0.51014 0.27723 0.70258 0.0
H231 H 0.53646 0.25701 0.69652 0.0
H232 H 0.52689 0.18424 0.75581 0.0
H233 H 0.51074 0.23592 0.83122 0.0
C234 C 0.52603 0.3262 0.77525 0.0
C235 C 0.51839 0.31278 0.73598 0.0
C236 C 0.53206 0.31515 0.81177 0.0
C237 C 0.53125 0.29036 0.80864 0.0
C238 C 0.52401 0.27642 0.76888 0.0
C239 C 0.51689 0.28773 0.73295 0.0
C240 C 0.52409 0.25041 0.76474 0.0
C241 C 0.53115 0.24364 0.72489 0.0
C242 C 0.53212 0.21975 0.72176 0.0
C243 C 0.52645 0.20282 0.75836 0.0
C244 C 0.51902 0.20868 0.79772 0.0
C245 C 0.51733 0.23213 0.80077 0.0
C246 C 0.11117 0.5397 0.02644 0.0
C247 C 0.09205 0.52054 0.9962 0.0
C248 C 0.13496 0.53877 0.044 0.0
C249 C 0.14057 0.51876 0.02995 0.0
C250 C 0.12301 0.50106 0.99644 0.0
C251 C 0.09861 0.50174 0.98064 0.0
C252 C 0.15251 0.55773 0.08025 0.0
C253 C 0.12895 0.48031 0.97894 0.0
C254 C 0.21174 0.52826 0.07707 0.0
C255 C 0.20095 0.51066 0.11374 0.0
C256 C 0.19228 0.52969 0.04729 0.0
C257 C 0.16147 0.5137 0.05509 0.0
C258 C 0.15058 0.49448 0.09038 0.0
C259 C 0.17037 0.49283 0.11853 0.0
C260 C 0.20483 0.54949 0.00899 0.0
C261 C 0.11809 0.4772 0.1007 0.0
H262 H 0.10629 0.55419 0.03892 0.0
H263 H 0.08412 0.48697 0.95705 0.0
H264 H 0.14833 0.54541 0.1107 0.0
H265 H 0.17641 0.56862 0.07342 0.0
H266 H 0.14673 0.57332 0.08548 0.0
H267 H 0.11802 0.47265 0.94722 0.0
H268 H 0.15295 0.48941 0.97521 0.0
H269 H 0.12047 0.46243 0.00189 0.0
H270 H 0.23531 0.54207 0.07302 0.0
H271 H 0.16187 0.47884 0.14645 0.0
H272 H 0.20534 0.56853 0.016 0.0
H273 H 0.19093 0.54045 0.97987 0.0
H274 H 0.22764 0.55528 0.00171 0.0
H275 H 0.1101 0.49084 0.10835 0.0
H276 H 0.11316 0.46271 0.12862 0.0
H277 H 0.10546 0.46512 0.07236 0.0
C278 C 0.64903 0.08947 0.57443 0.0
C279 C 0.61951 0.07222 0.58715 0.0
C280 C 0.67023 0.10898 0.60241 0.0
C281 C 0.66167 0.11154 0.64399 0.0
C282 C 0.63213 0.09346 0.65768 0.0
C283 C 0.61142 0.07388 0.62916 0.0
C284 C 0.70155 0.12754 0.58686 0.0
C285 C 0.62211 0.09561 0.70177 0.0
C286 C 0.71675 0.14903 0.73385 0.0
C287 C 0.7184 0.17421 0.73316 0.0
C288 C 0.69953 0.12891 0.70357 0.0
C289 C 0.68316 0.13395 0.67249 0.0
C290 C 0.68596 0.15995 0.67044 0.0
C291 C 0.70368 0.17984 0.7008 0.0
C292 C 0.6975 0.10167 0.70649 0.0
C293 C 0.66874 0.1661 0.63799 0.0
H294 H 0.65547 0.08821 0.54205 0.0
H295 H 0.58862 0.06078 0.63907 0.0
H296 H 0.70702 0.14907 0.5837 0.0
H297 H 0.71705 0.12727 0.61073 0.0
H298 H 0.70517 0.1214 0.55509 0.0
H299 H 0.59878 0.07921 0.70827 0.0
H300 H 0.6361 0.09426 0.72728 0.0
H301 H 0.62453 0.11594 0.70432 0.0
H302 H 0.72775 0.14459 0.75952 0.0
H303 H 0.70447 0.19909 0.70106 0.0
H304 H 0.70052 0.0958 0.67415 0.0
H305 H 0.67531 0.08534 0.71815 0.0
H306 H 0.71416 0.1022 0.72894 0.0
H307 H 0.67228 0.16166 0.60488 0.0
H308 H 0.67496 0.18789 0.6386 0.0
H309 H 0.64487 0.15259 0.64507 0.0
C310 C 0.55338 0.61702 0.08976 0.0
C311 C 0.55647 0.59946 0.11901 0.0
C312 C 0.5493 0.63771 0.10427 0.0
C313 C 0.54825 0.64101 0.14917 0.0
C314 C 0.55183 0.62367 0.17886 0.0
C315 C 0.55591 0.60319 0.16346 0.0
C316 C 0.54558 0.65572 0.07155 0.0
C317 C 0.55066 0.6263 0.22704 0.0
C318 C 0.559 0.70569 0.19854 0.0
C319 C 0.53008 0.69678 0.20988 0.0
C320 C 0.56521 0.68835 0.17638 0.0
C321 C 0.54192 0.66153 0.16549 0.0
C322 C 0.5125 0.65332 0.17426 0.0
C323 C 0.50698 0.67099 0.1965 0.0
C324 C 0.59685 0.69798 0.16746 0.0
C325 C 0.48695 0.62506 0.16308 0.0
H326 H 0.5542 0.61467 0.05538 0.0
H327 H 0.55788 0.58961 0.18639 0.0
H328 H 0.52326 0.65217 0.07454 0.0
H329 H 0.56165 0.67777 0.0779 0.0
H330 H 0.54856 0.6516 0.03785 0.0
H331 H 0.55502 0.61203 0.24586 0.0
H332 H 0.56707 0.6477 0.23647 0.0
H333 H 0.52863 0.62185 0.23615 0.0
H334 H 0.57689 0.72541 0.20961 0.0
H335 H 0.48464 0.66397 0.20585 0.0
H336 H 0.5994 0.69353 0.13382 0.0
H337 H 0.60362 0.68663 0.18935 0.0
H338 H 0.61194 0.7204 0.17256 0.0
H339 H 0.48889 0.62025 0.1294 0.0
H340 H 0.46543 0.6232 0.16675 0.0
H341 H 0.48715 0.60934 0.18465 0.0
C342 C 0.94557 0.52692 0.56269 0.0
C343 C 0.94584 0.52255 0.51847 0.0
C344 C 0.92376 0.52992 0.58054 0.0
C345 C 0.90173 0.52896 0.55342 0.0
C346 C 0.90238 0.52559 0.50847 0.0
C347 C 0.9244 0.52231 0.49149 0.0
C348 C 0.924 0.53355 0.62873 0.0
C349 C 0.87946 0.52478 0.47855 0.0
C350 C 0.83486 0.50782 0.6207 0.0
C351 C 0.84121 0.5335 0.63371 0.0
C352 C 0.85283 0.50589 0.59065 0.0
C353 C 0.87758 0.53032 0.57333 0.0
C354 C 0.88202 0.55622 0.58286 0.0
C355 C 0.86391 0.55753 0.6135 0.0
C356 C 0.84733 0.47786 0.58163 0.0
C357 C 0.90776 0.58271 0.56442 0.0
H358 H 0.96246 0.52792 0.58361 0.0
H359 H 0.92437 0.51887 0.45733 0.0
H360 H 0.9252 0.55299 0.63524 0.0
H361 H 0.9033 0.5164 0.64337 0.0
H362 H 0.94284 0.53406 0.64517 0.0
H363 H 0.88493 0.52519 0.444 0.0
H364 H 0.85779 0.50572 0.48533 0.0
H365 H 0.8771 0.54248 0.48415 0.0
H366 H 0.8175 0.48931 0.637 0.0
H367 H 0.86893 0.57738 0.62414 0.0
H368 H 0.86347 0.47496 0.59996 0.0
H369 H 0.85034 0.47608 0.54683 0.0
H370 H 0.82482 0.46103 0.59143 0.0
H371 H 0.92806 0.58774 0.58227 0.0
H372 H 0.90458 0.60017 0.5673 0.0
H373 H 0.9112 0.5806 0.52991 0.0
C374 C 0.40198 0.92651 0.10311 0.0
C375 C 0.43263 0.94328 0.10836 0.0
C376 C 0.38397 0.90691 0.13495 0.0
C377 C 0.39682 0.9036 0.17309 0.0
C378 C 0.42773 0.92086 0.17911 0.0
C379 C 0.44526 0.94063 0.14678 0.0
C380 C 0.35116 0.88934 0.12735 0.0
C381 C 0.44236 0.91789 0.21916 0.0
C382 C 0.34855 0.86843 0.2724 0.0
C383 C 0.34289 0.84164 0.27078 0.0
C384 C 0.36565 0.88861 0.24058 0.0
C385 C 0.37783 0.88203 0.20646 0.0
C386 C 0.37159 0.85477 0.20409 0.0
C387 C 0.35404 0.83485 0.23617 0.0
C388 C 0.37133 0.9172 0.24417 0.0
C389 C 0.38431 0.84691 0.1685 0.0
H390 H 0.39199 0.92844 0.07356 0.0
H391 H 0.46893 0.95323 0.15086 0.0
H392 H 0.34408 0.86735 0.12626 0.0
H393 H 0.33923 0.89127 0.15447 0.0
H394 H 0.34447 0.89513 0.0967 0.0
H395 H 0.46643 0.93329 0.21959 0.0
H396 H 0.43241 0.92022 0.24847 0.0
H397 H 0.43869 0.89696 0.22108 0.0
H398 H 0.34022 0.87379 0.29945 0.0
H399 H 0.35024 0.81434 0.23537 0.0
H400 H 0.36461 0.92329 0.21391 0.0
H401 H 0.39523 0.93224 0.24859 0.0
H402 H 0.35933 0.9187 0.27167 0.0
H403 H 0.3778 0.85127 0.13649 0.0
H404 H 0.37697 0.8248 0.17069 0.0
H405 H 0.40871 0.85952 0.17008 0.0
C406 C 0.46655 0.4048 0.64303 0.0
C407 C 0.46919 0.41179 0.59883 0.0
C408 C 0.47312 0.38561 0.65941 0.0
C409 C 0.48231 0.37288 0.63084 0.0
C410 C 0.48367 0.37886 0.58592 0.0
C411 C 0.47722 0.39834 0.57048 0.0
C412 C 0.47159 0.37996 0.70762 0.0
C413 C 0.49305 0.36552 0.5544 0.0
C414 C 0.53139 0.35276 0.68701 0.0
C415 C 0.51105 0.32532 0.69944 0.0
C416 C 0.52274 0.36797 0.66179 0.0
C417 C 0.49296 0.35537 0.64882 0.0
C418 C 0.47293 0.32694 0.65809 0.0
C419 C 0.48224 0.31218 0.68346 0.0
C420 C 0.54495 0.39814 0.65239 0.0
C421 C 0.44113 0.31268 0.64429 0.0
H422 H 0.46067 0.41528 0.66515 0.0
H423 H 0.47887 0.40338 0.5362 0.0
H424 H 0.45784 0.35749 0.71483 0.0
H425 H 0.49398 0.38741 0.72039 0.0
H426 H 0.46234 0.39023 0.72512 0.0
H427 H 0.48956 0.36979 0.5203 0.0
H428 H 0.51676 0.37339 0.55903 0.0
H429 H 0.48073 0.3429 0.5604 0.0
H430 H 0.55368 0.36286 0.69952 0.0
H431 H 0.46647 0.29101 0.69344 0.0
H432 H 0.54004 0.41077 0.67263 0.0
H433 H 0.54369 0.40366 0.6181 0.0
H434 H 0.56782 0.40371 0.65941 0.0
H435 H 0.42944 0.31928 0.66488 0.0
H436 H 0.42981 0.28991 0.64737 0.0
H437 H 0.43933 0.31846 0.61034 0.0
C438 C 0.55086 0.93749 0.44488 0.0
C439 C 0.55585 0.959 0.41598 0.0
C440 C 0.54655 0.9127 0.43002 0.0
C441 C 0.54732 0.90923 0.38513 0.0
C442 C 0.55288 0.931 0.35584 0.0
C443 C 0.55705 0.95552 0.37156 0.0
C444 C 0.54051 0.88999 0.46232 0.0
C445 C 0.55371 0.92815 0.30765 0.0
C446 C 0.55737 0.85447 0.33719 0.0
C447 C 0.52874 0.83549 0.32309 0.0
C448 C 0.56359 0.87791 0.35974 0.0
C449 C 0.54061 0.88236 0.36825 0.0
C450 C 0.51136 0.86213 0.3567 0.0
C451 C 0.50583 0.83904 0.33414 0.0
C452 C 0.59504 0.89886 0.37169 0.0
C453 C 0.48612 0.86582 0.36518 0.0
H454 H 0.55031 0.93997 0.47927 0.0
H455 H 0.5605 0.9717 0.34881 0.0
H456 H 0.51794 0.87191 0.45734 0.0
H457 H 0.55601 0.88316 0.45738 0.0
H458 H 0.54246 0.89649 0.49623 0.0
H459 H 0.55972 0.94742 0.28931 0.0
H460 H 0.56982 0.92245 0.2999 0.0
H461 H 0.53182 0.91137 0.29636 0.0
H462 H 0.57516 0.85199 0.32801 0.0
H463 H 0.48372 0.8245 0.32279 0.0
H464 H 0.5964 0.9052 0.40553 0.0
H465 H 0.6034 0.91756 0.35055 0.0
H466 H 0.60963 0.89084 0.36799 0.0
H467 H 0.48741 0.873 0.3984 0.0
H468 H 0.4644 0.84645 0.36089 0.0
H469 H 0.48742 0.88177 0.3424 0.0
C470 C 0.61279 0.54068 0.90693 0.0
C471 C 0.62045 0.54913 0.94964 0.0
C472 C 0.63342 0.54146 0.87868 0.0
C473 C 0.66243 0.55117 0.89342 0.0
C474 C 0.67066 0.56106 0.93577 0.0
C475 C 0.64956 0.55982 0.9634 0.0
C476 C 0.62377 0.53071 0.83369 0.0
C477 C 0.70142 0.5719 0.95251 0.0
C478 C 0.70129 0.52225 0.83526 0.0
C479 C 0.71751 0.54306 0.80415 0.0
C480 C 0.68425 0.52515 0.86588 0.0
C481 C 0.68355 0.54948 0.86523 0.0
C482 C 0.70148 0.57128 0.83555 0.0
C483 C 0.71808 0.56769 0.80506 0.0
C484 C 0.66542 0.50139 0.8969 0.0
C485 C 0.70161 0.59762 0.83406 0.0
H486 H 0.59032 0.53225 0.89615 0.0
H487 H 0.6557 0.56654 0.99632 0.0
H488 H 0.63888 0.5463 0.80932 0.0
H489 H 0.62476 0.51207 0.83013 0.0
H490 H 0.60099 0.5253 0.82639 0.0
H491 H 0.70503 0.58106 0.98481 0.0
H492 H 0.70545 0.55487 0.95504 0.0
H493 H 0.71792 0.58771 0.92967 0.0
H494 H 0.70033 0.50297 0.83368 0.0
H495 H 0.73014 0.58347 0.78023 0.0
H496 H 0.64183 0.49235 0.88885 0.0
H497 H 0.66877 0.50867 0.93047 0.0
H498 H 0.67029 0.48492 0.89566 0.0
H499 H 0.68018 0.59344 0.82143 0.0
H500 H 0.71939 0.61376 0.81298 0.0
H501 H 0.70439 0.60572 0.86698 0.0
C502 C 0.10308 0.60047 0.55133 0.0
C503 C 0.09569 0.57502 0.53509 0.0
C504 C 0.1274 0.62538 0.53499 0.0
C505 C 0.14406 0.62495 0.50043 0.0
C506 C 0.13768 0.59921 0.48571 0.0
C507 C 0.11393 0.57464 0.50365 0.0
C508 C 0.13413 0.65221 0.55304 0.0
C509 C 0.15434 0.59754 0.44843 0.0
C510 C 0.17309 0.6807 0.41208 0.0
C511 C 0.20369 0.69318 0.41597 0.0
C512 C 0.15356 0.65939 0.44055 0.0
C513 C 0.16478 0.65082 0.4751 0.0
C514 C 0.19568 0.66531 0.48196 0.0
C515 C 0.21485 0.68615 0.45196 0.0
C516 C 0.12093 0.64455 0.43135 0.0
C517 C 0.20859 0.65771 0.51938 0.0
H518 H 0.08927 0.60099 0.57584 0.0
H519 H 0.10841 0.55518 0.49064 0.0
H520 H 0.15825 0.66679 0.55621 0.0
H521 H 0.12568 0.66193 0.53068 0.0
H522 H 0.12371 0.64909 0.58512 0.0
H523 H 0.1482 0.57609 0.44292 0.0
H524 H 0.14967 0.60572 0.41845 0.0
H525 H 0.17838 0.61039 0.45428 0.0
H526 H 0.16434 0.68634 0.38463 0.0
H527 H 0.23844 0.69568 0.45524 0.0
H528 H 0.10886 0.64397 0.46039 0.0
H529 H 0.11254 0.62291 0.4231 0.0
H530 H 0.11575 0.65441 0.40416 0.0
H531 H 0.19536 0.65321 0.54911 0.0
H532 H 0.23171 0.6744 0.5259 0.0
H533 H 0.20836 0.63887 0.51186 0.0
C534 C 0.4797 0.08205 0.96216 0.0
C535 C 0.47193 0.06077 0.93351 0.0
C536 C 0.48581 0.10793 0.94709 0.0
C537 C 0.48437 0.1127 0.90225 0.0
C538 C 0.47543 0.09097 0.87337 0.0
C539 C 0.4692 0.06526 0.88938 0.0
C540 C 0.49491 0.13045 0.97892 0.0
C541 C 0.4738 0.09524 0.82522 0.0
C542 C 0.4833 0.17299 0.85036 0.0
C543 C 0.51206 0.18894 0.83432 0.0
C544 C 0.47434 0.14894 0.87558 0.0
C545 C 0.49467 0.14086 0.88463 0.0
C546 C 0.52439 0.15834 0.87165 0.0
C547 C 0.5327 0.18217 0.84661 0.0
C548 C 0.44258 0.13107 0.88938 0.0
C549 C 0.54689 0.1507 0.88081 0.0
H550 H 0.4814 0.07855 0.99639 0.0
H551 H 0.46351 0.04904 0.86703 0.0
H552 H 0.51856 0.1465 0.9744 0.0
H553 H 0.48234 0.14053 0.97317 0.0
H554 H 0.49152 0.12255 0.01293 0.0
H555 H 0.46479 0.07585 0.80746 0.0
H556 H 0.45979 0.10373 0.81825 0.0
H557 H 0.49613 0.11045 0.81254 0.0
H558 H 0.4673 0.17813 0.84048 0.0
H559 H 0.55494 0.19458 0.83404 0.0
H560 H 0.4409 0.12335 0.92321 0.0
H561 H 0.43104 0.11289 0.86854 0.0
H562 H 0.43103 0.14233 0.88662 0.0
H563 H 0.56963 0.16805 0.87335 0.0
H564 H 0.54195 0.13304 0.86083 0.0
H565 H 0.54598 0.14418 0.91518 0.0
C566 C 0.44214 0.50455 0.38399 0.0
C567 C 0.42934 0.48891 0.42206 0.0
C568 C 0.42469 0.50674 0.35142 0.0
C569 C 0.3937 0.49268 0.35679 0.0
C570 C 0.38069 0.47614 0.39453 0.0
C571 C 0.39861 0.47461 0.42666 0.0
C572 C 0.43949 0.52476 0.31182 0.0
C573 C 0.3478 0.46044 0.40143 0.0
C574 C 0.35068 0.51839 0.29355 0.0
C575 C 0.34013 0.50084 0.25841 0.0
C576 C 0.36809 0.51596 0.32585 0.0
C577 C 0.37479 0.49527 0.32319 0.0
C578 C 0.36319 0.47686 0.28854 0.0
C579 C 0.34622 0.48 0.2565 0.0
C580 C 0.38019 0.53617 0.362 0.0
C581 C 0.36936 0.45429 0.28463 0.0
H582 H 0.46586 0.51594 0.38043 0.0
H583 H 0.3885 0.46242 0.45593 0.0
H584 H 0.42994 0.51272 0.28219 0.0
H585 H 0.4355 0.54183 0.31012 0.0
H586 H 0.46362 0.53372 0.31186 0.0
H587 H 0.34099 0.44765 0.43176 0.0
H588 H 0.34035 0.47506 0.40274 0.0
H589 H 0.33628 0.44682 0.37389 0.0
H590 H 0.34653 0.53487 0.29461 0.0
H591 H 0.33835 0.4666 0.22908 0.0
H592 H 0.40461 0.54829 0.3609 0.0
H593 H 0.37358 0.52498 0.39374 0.0
H594 H 0.37248 0.55067 0.36004 0.0
H595 H 0.39334 0.46346 0.28064 0.0
H596 H 0.35772 0.44099 0.25675 0.0
H597 H 0.36253 0.4412 0.31459 0.0
C598 C 0.92339 0.42613 0.97778 0.0
C599 C 0.93839 0.42742 0.01609 0.0
C600 C 0.90399 0.40096 0.9585 0.0
C601 C 0.89874 0.3762 0.97852 0.0
C602 C 0.91206 0.37707 0.01882 0.0
C603 C 0.93198 0.40272 0.03698 0.0
C604 C 0.89029 0.40109 0.91545 0.0
C605 C 0.90642 0.3511 0.04179 0.0
C606 C 0.8352 0.31554 0.92237 0.0
C607 C 0.85034 0.31148 0.8901 0.0
C608 C 0.85069 0.33466 0.95486 0.0
C609 C 0.88188 0.35019 0.9544 0.0
C610 C 0.89699 0.34389 0.92467 0.0
C611 C 0.88098 0.3244 0.89315 0.0
C612 C 0.83376 0.34003 0.98705 0.0
C613 C 0.9302 0.35983 0.92296 0.0
H614 H 0.92732 0.44493 0.96211 0.0
H615 H 0.9433 0.40339 0.06665 0.0
H616 H 0.89806 0.39311 0.8903 0.0
H617 H 0.866 0.38735 0.91723 0.0
H618 H 0.89586 0.42203 0.90496 0.0
H619 H 0.9129 0.35456 0.07638 0.0
H620 H 0.88285 0.33443 0.03967 0.0
H621 H 0.9194 0.34387 0.02617 0.0
H622 H 0.81148 0.30546 0.92028 0.0
H623 H 0.89265 0.32085 0.86866 0.0
H624 H 0.83381 0.35872 0.97656 0.0
H625 H 0.84416 0.34381 0.01948 0.0
H626 H 0.81051 0.32253 0.98968 0.0
H627 H 0.93854 0.38108 0.91036 0.0
H628 H 0.93841 0.35018 0.90168 0.0
H629 H 0.93956 0.36144 0.95573 0.0
C630 C 0.9603 0.52634 0.86775 0.0
C631 C 0.96902 0.53592 0.90986 0.0
C632 C 0.93722 0.52701 0.8466 0.0
C633 C 0.92208 0.5373 0.86801 0.0
C634 C 0.93073 0.54698 0.91054 0.0
C635 C 0.95409 0.5463 0.93082 0.0
C636 C 0.92908 0.51673 0.80112 0.0
C637 C 0.91518 0.55795 0.93474 0.0
C638 C 0.88343 0.56199 0.79242 0.0
C639 C 0.85465 0.53876 0.79089 0.0
C640 C 0.90511 0.56232 0.81904 0.0
C641 C 0.89802 0.53877 0.84501 0.0
C642 C 0.86846 0.51589 0.84576 0.0
C643 C 0.84714 0.51612 0.8186 0.0
C644 C 0.93613 0.58721 0.81699 0.0
C645 C 0.85977 0.49045 0.87315 0.0
H646 H 0.9715 0.5182 0.85117 0.0
H647 H 0.96035 0.55352 0.96348 0.0
H648 H 0.90563 0.49968 0.79988 0.0
H649 H 0.93168 0.53349 0.77897 0.0
H650 H 0.94281 0.50924 0.78896 0.0
H651 H 0.92411 0.56425 0.96786 0.0
H652 H 0.91732 0.57599 0.91682 0.0
H653 H 0.89134 0.54202 0.9371 0.0
H654 H 0.88942 0.57941 0.77067 0.0
H655 H 0.82512 0.49793 0.81699 0.0
H656 H 0.95058 0.58177 0.80097 0.0
H657 H 0.94494 0.59388 0.85 0.0
H658 H 0.93745 0.60482 0.79872 0.0
H659 H 0.8697 0.47961 0.85959 0.0
H660 H 0.83552 0.47596 0.87445 0.0
H661 H 0.86827 0.49611 0.90656 0.0
C662 C 0.45212 0.93456 0.53421 0.0
C663 C 0.45774 0.95521 0.50315 0.0
C664 C 0.42936 0.90689 0.52809 0.0
C665 C 0.41243 0.89973 0.48958 0.0
C666 C 0.41726 0.92076 0.4592 0.0
C667 C 0.43948 0.94811 0.46666 0.0
C668 C 0.42448 0.88533 0.5619 0.0
C669 C 0.4 0.91428 0.41741 0.0
C670 C 0.38143 0.8354 0.42646 0.0
C671 C 0.35157 0.82657 0.42585 0.0
C672 C 0.40157 0.85728 0.45216 0.0
C673 C 0.39144 0.87043 0.47802 0.0
C674 C 0.36073 0.85856 0.48272 0.0
C675 C 0.34105 0.83683 0.45612 0.0
C676 C 0.43397 0.86875 0.4464 0.0
C677 C 0.34889 0.87103 0.51162 0.0
H678 H 0.46601 0.93981 0.56262 0.0
H679 H 0.44336 0.96385 0.44258 0.0
H680 H 0.40083 0.86887 0.56468 0.0
H681 H 0.43667 0.87563 0.55264 0.0
H682 H 0.43267 0.89452 0.59404 0.0
H683 H 0.40626 0.93308 0.39749 0.0
H684 H 0.40378 0.90057 0.39798 0.0
H685 H 0.3761 0.90326 0.42429 0.0
H686 H 0.38955 0.82742 0.403 0.0
H687 H 0.31795 0.83003 0.45571 0.0
H688 H 0.44617 0.87653 0.47712 0.0
H689 H 0.44317 0.88624 0.42251 0.0
H690 H 0.43778 0.85295 0.43424 0.0
H691 H 0.36207 0.87844 0.54173 0.0
H692 H 0.3255 0.85599 0.52019 0.0
H693 H 0.35024 0.88897 0.49455 0.0
C694 C 0.54791 0.41154 0.0081 0.0
C695 C 0.53572 0.42602 0.9899 0.0
C696 C 0.549 0.39147 0.98472 0.0
C697 C 0.53746 0.38556 0.9422 0.0
C698 C 0.52466 0.39976 0.92403 0.0
C699 C 0.52402 0.41978 0.94797 0.0
C700 C 0.56306 0.37703 0.00515 0.0
C701 C 0.51184 0.39401 0.87896 0.0
C702 C 0.56205 0.35688 0.85555 0.0
C703 C 0.53769 0.32985 0.85276 0.0
C704 C 0.56334 0.37465 0.88685 0.0
C705 C 0.53946 0.36529 0.91572 0.0
C706 C 0.51584 0.33734 0.91509 0.0
C707 C 0.51526 0.31993 0.8836 0.0
C708 C 0.58914 0.40412 0.88652 0.0
C709 C 0.48992 0.32645 0.94514 0.0
H710 H 0.55727 0.41637 0.04026 0.0
H711 H 0.51415 0.43048 0.93387 0.0
H712 H 0.5476 0.35437 0.00441 0.0
H713 H 0.58281 0.38211 0.98636 0.0
H714 H 0.56976 0.38296 0.03917 0.0
H715 H 0.50182 0.40614 0.87004 0.0
H716 H 0.52931 0.39903 0.85514 0.0
H717 H 0.49476 0.3718 0.87628 0.0
H718 H 0.57917 0.36469 0.83124 0.0
H719 H 0.49613 0.29922 0.8809 0.0
H720 H 0.59719 0.41069 0.91986 0.0
H721 H 0.58206 0.41783 0.87304 0.0
H722 H 0.60767 0.40708 0.86666 0.0
H723 H 0.49744 0.33296 0.97867 0.0
H724 H 0.47564 0.30361 0.94507 0.0
H725 H 0.4765 0.33509 0.93485 0.0
C726 C 0.1191 0.49756 0.42487 0.0
C727 C 0.09165 0.48445 0.40379 0.0
C728 C 0.14509 0.50509 0.40272 0.0
C729 C 0.14367 0.49917 0.35845 0.0
C730 C 0.11606 0.48557 0.33712 0.0
C731 C 0.0905 0.4785 0.35993 0.0
C732 C 0.17409 0.51969 0.42652 0.0
C733 C 0.11353 0.47884 0.28987 0.0
C734 C 0.20622 0.53785 0.27842 0.0
C735 C 0.21349 0.51825 0.27103 0.0
C736 C 0.1852 0.53293 0.30961 0.0
C737 C 0.1709 0.50765 0.3336 0.0
C738 C 0.18017 0.48893 0.32896 0.0
C739 C 0.20148 0.49453 0.29774 0.0
C740 C 0.1764 0.55368 0.31392 0.0
C741 C 0.16559 0.46179 0.35391 0.0
H742 H 0.12039 0.50195 0.45883 0.0
H743 H 0.06969 0.46879 0.34295 0.0
H744 H 0.18514 0.5081 0.42409 0.0
H745 H 0.18891 0.54038 0.4114 0.0
H746 H 0.17141 0.52217 0.46122 0.0
H747 H 0.09036 0.46742 0.27839 0.0
H748 H 0.12621 0.49812 0.27003 0.0
H749 H 0.1231 0.46624 0.28417 0.0
H750 H 0.21541 0.55613 0.25753 0.0
H751 H 0.2068 0.4792 0.29162 0.0
H752 H 0.17421 0.55688 0.34843 0.0
H753 H 0.15464 0.54579 0.29838 0.0
H754 H 0.19255 0.57388 0.2983 0.0
H755 H 0.16302 0.46467 0.38841 0.0
H756 H 0.17825 0.45166 0.35184 0.0
H757 H 0.14324 0.44778 0.34058 0.0
C758 C 0.59806 0.06562 0.94358 0.0
C759 C 0.5816 0.0628 0.98023 0.0
C760 C 0.62271 0.09111 0.93068 0.0
C761 C 0.63151 0.11474 0.95502 0.0
C762 C 0.61593 0.11189 0.99339 0.0
C763 C 0.59109 0.08592 0.00556 0.0
C764 C 0.63853 0.09289 0.88963 0.0
C765 C 0.62462 0.13643 0.02048 0.0
C766 C 0.70749 0.1722 0.91778 0.0
C767 C 0.70014 0.18418 0.88378 0.0
C768 C 0.68552 0.15143 0.94497 0.0
C769 C 0.65555 0.14232 0.93761 0.0
C770 C 0.64858 0.1566 0.90636 0.0
C771 C 0.67094 0.17729 0.87982 0.0
C772 C 0.69411 0.13728 0.97844 0.0
C773 C 0.6171 0.14794 0.89743 0.0
H774 H 0.59114 0.04788 0.92396 0.0
H775 H 0.57845 0.08401 0.0338 0.0
H776 H 0.63631 0.10629 0.86523 0.0
H777 H 0.66236 0.1023 0.89606 0.0
H778 H 0.62974 0.07241 0.87549 0.0
H779 H 0.61437 0.13012 0.05305 0.0
H780 H 0.64888 0.14943 0.02421 0.0
H781 H 0.61737 0.1493 0.00413 0.0
H782 H 0.72997 0.17723 0.92062 0.0
H783 H 0.66517 0.18637 0.85328 0.0
H784 H 0.68958 0.11756 0.96569 0.0
H785 H 0.68101 0.13241 0.0084 0.0
H786 H 0.71789 0.15012 0.98662 0.0
H787 H 0.60575 0.12819 0.88024 0.0
H788 H 0.61572 0.16351 0.87706 0.0
H789 H 0.60507 0.14451 0.92803 0.0
C790 C 0.48643 0.60877 0.52108 0.0
C791 C 0.50319 0.59863 0.50578 0.0
C792 C 0.48568 0.63009 0.4985 0.0
C793 C 0.50189 0.64127 0.45967 0.0
C794 C 0.52009 0.63213 0.44553 0.0
C795 C 0.52062 0.61111 0.46888 0.0
C796 C 0.4664 0.63957 0.51498 0.0
C797 C 0.53788 0.64352 0.40438 0.0
C798 C 0.47889 0.66646 0.36245 0.0
C799 C 0.50146 0.69436 0.36056 0.0
C800 C 0.47687 0.64927 0.3972 0.0
C801 C 0.49791 0.66036 0.43092 0.0
C802 C 0.51854 0.68917 0.43161 0.0
C803 C 0.52015 0.70591 0.39617 0.0
C804 C 0.45436 0.61873 0.39514 0.0
C805 C 0.54087 0.70189 0.46746 0.0
H806 H 0.47287 0.59924 0.54955 0.0
H807 H 0.53421 0.60388 0.45754 0.0
H808 H 0.47777 0.66233 0.5122 0.0
H809 H 0.44611 0.63074 0.49511 0.0
H810 H 0.4599 0.63293 0.54921 0.0
H811 H 0.55207 0.63521 0.39916 0.0
H812 H 0.52285 0.63828 0.37627 0.0
H813 H 0.55207 0.66629 0.40515 0.0
H814 H 0.46434 0.65762 0.3349 0.0
H815 H 0.53764 0.7275 0.39466 0.0
H816 H 0.44371 0.61028 0.42701 0.0
H817 H 0.4655 0.60791 0.38647 0.0
H818 H 0.43703 0.61403 0.37064 0.0
H819 H 0.53078 0.69236 0.49929 0.0
H820 H 0.55067 0.72447 0.46849 0.0
H821 H 0.55886 0.69825 0.46214 0.0
C822 C 0.5476 0.13872 0.52592 0.0
C823 C 0.53553 0.11212 0.5443 0.0
C824 C 0.54864 0.15992 0.5491 0.0
C825 C 0.53717 0.15442 0.59162 0.0
C826 C 0.52447 0.12748 0.60999 0.0
C827 C 0.52386 0.10678 0.58622 0.0
C828 C 0.56255 0.18835 0.52844 0.0
C829 C 0.51177 0.12055 0.6551 0.0
C830 C 0.56202 0.20801 0.67784 0.0
C831 C 0.53762 0.21062 0.68074 0.0
C832 C 0.56322 0.19144 0.64664 0.0
C833 C 0.53922 0.17677 0.61796 0.0
C834 C 0.51556 0.18104 0.61865 0.0
C835 C 0.51507 0.19796 0.65007 0.0
C836 C 0.58904 0.18781 0.64692 0.0
C837 C 0.48954 0.16588 0.58877 0.0
H838 H 0.55694 0.14318 0.49377 0.0
H839 H 0.51404 0.08625 0.60047 0.0
H840 H 0.54705 0.19549 0.5292 0.0
H841 H 0.58236 0.20311 0.54706 0.0
H842 H 0.56912 0.189 0.4944 0.0
H843 H 0.50183 0.09844 0.66418 0.0
H844 H 0.52928 0.13311 0.67883 0.0
H845 H 0.49464 0.12563 0.65771 0.0
H846 H 0.57925 0.21744 0.70201 0.0
H847 H 0.49591 0.19949 0.65285 0.0
H848 H 0.59698 0.18919 0.61355 0.0
H849 H 0.58204 0.16706 0.66052 0.0
H850 H 0.60763 0.20345 0.66666 0.0
H851 H 0.49693 0.16675 0.55523 0.0
H852 H 0.47525 0.17444 0.58878 0.0
H853 H 0.47616 0.14387 0.59926 0.0
C854 C 0.4397 0.49414 0.06636 0.0
C855 C 0.45831 0.50549 0.03028 0.0
C856 C 0.4172 0.49899 0.07312 0.0
C857 C 0.41246 0.51512 0.04245 0.0
C858 C 0.42982 0.52515 0.0044 0.0
C859 C 0.45283 0.5205 0.99898 0.0
C860 C 0.3995 0.48795 0.11445 0.0
C861 C 0.42509 0.54181 0.97032 0.0
C862 C 0.34011 0.50543 0.07341 0.0
C863 C 0.3499 0.52604 0.10387 0.0
C864 C 0.36039 0.50385 0.04753 0.0
C865 C 0.39096 0.52297 0.0532 0.0
C866 C 0.40037 0.54607 0.07923 0.0
C867 C 0.37964 0.54737 0.10412 0.0
C868 C 0.34933 0.47971 0.01846 0.0
C869 C 0.43261 0.56724 0.08603 0.0
H870 H 0.44348 0.48231 0.09064 0.0
H871 H 0.467 0.52931 0.9709 0.0
H872 H 0.40282 0.50529 0.13383 0.0
H873 H 0.37569 0.47489 0.10694 0.0
H874 H 0.40575 0.4755 0.13467 0.0
H875 H 0.43367 0.54097 0.93843 0.0
H876 H 0.40143 0.53447 0.96693 0.0
H877 H 0.43703 0.56366 0.97973 0.0
H878 H 0.31712 0.48888 0.07318 0.0
H879 H 0.38718 0.56331 0.12777 0.0
H880 H 0.35084 0.46326 0.03569 0.0
H881 H 0.3629 0.48579 0.98874 0.0
H882 H 0.32597 0.47106 0.00918 0.0
H883 H 0.44188 0.55872 0.10937 0.0
H884 H 0.43599 0.58645 0.09925 0.0
H885 H 0.44509 0.57242 0.05542 0.0
C886 C 0.96266 0.42116 0.6265 0.0
C887 C 0.95535 0.42261 0.58315 0.0
C888 C 0.94202 0.40029 0.6552 0.0
C889 C 0.91335 0.38041 0.64033 0.0
C890 C 0.90607 0.38163 0.59652 0.0
C891 C 0.92703 0.40255 0.56865 0.0
C892 C 0.95077 0.39973 0.70163 0.0
C893 C 0.87586 0.36108 0.57914 0.0
C894 C 0.86686 0.31337 0.70685 0.0
C895 C 0.84938 0.31935 0.7313 0.0
C896 C 0.88743 0.33282 0.67665 0.0
C897 C 0.8906 0.35889 0.67075 0.0
C898 C 0.87205 0.36448 0.6942 0.0
C899 C 0.85189 0.34476 0.72435 0.0
C900 C 0.90668 0.32593 0.65248 0.0
C901 C 0.87427 0.39174 0.6887 0.0
H902 H 0.98437 0.43646 0.63814 0.0
H903 H 0.92096 0.40328 0.53528 0.0
H904 H 0.93659 0.40277 0.72329 0.0
H905 H 0.94736 0.37932 0.71028 0.0
H906 H 0.97413 0.41592 0.70787 0.0
H907 H 0.87387 0.36433 0.54398 0.0
H908 H 0.87078 0.33981 0.58489 0.0
H909 H 0.85898 0.36268 0.59648 0.0
H910 H 0.86556 0.29407 0.71307 0.0
H911 H 0.83889 0.34967 0.74399 0.0
H912 H 0.93 0.34001 0.66202 0.0
H913 H 0.9052 0.32905 0.61719 0.0
H914 H 0.90054 0.30436 0.65899 0.0
H915 H 0.8963 0.40859 0.69937 0.0
H916 H 0.85726 0.39234 0.70757 0.0
H917 H 0.8719 0.39592 0.65411 0.0
C918 C 0.52378 0.9129 0.06235 0.0
C919 C 0.50663 0.90814 0.02513 0.0
C920 C 0.52282 0.89119 0.08584 0.0
C921 C 0.50452 0.8639 0.0715 0.0
C922 C 0.48868 0.85909 0.0323 0.0
C923 C 0.48983 0.8813 0.0096 0.0
C924 C 0.54022 0.89738 0.12739 0.0
C925 C 0.46934 0.83039 0.01556 0.0
C926 C 0.5214 0.81701 0.13638 0.0
C927 C 0.50239 0.81007 0.17148 0.0
C928 C 0.52032 0.83222 0.10061 0.0
C929 C 0.49993 0.8407 0.10045 0.0
C930 C 0.47856 0.83095 0.13362 0.0
C931 C 0.48003 0.81568 0.1687 0.0
C932 C 0.54297 0.84159 0.06534 0.0
C933 C 0.45629 0.8393 0.13477 0.0
H934 H 0.53741 0.93367 0.07386 0.0
H935 H 0.47651 0.87744 0.98086 0.0
H936 H 0.52492 0.88769 0.15519 0.0
H937 H 0.5542 0.88855 0.12712 0.0
H938 H 0.55458 0.91984 0.13274 0.0
H939 H 0.46339 0.83069 0.98107 0.0
H940 H 0.48039 0.81873 0.01905 0.0
H941 H 0.44874 0.81912 0.03474 0.0
H942 H 0.53871 0.81268 0.13855 0.0
H943 H 0.4652 0.81009 0.19582 0.0
H944 H 0.56112 0.86313 0.0709 0.0
H945 H 0.53327 0.84119 0.03321 0.0
H946 H 0.55249 0.82855 0.06482 0.0
H947 H 0.46755 0.86129 0.14336 0.0
H948 H 0.43867 0.82682 0.15893 0.0
H949 H 0.44597 0.83717 0.1026 0.0
C950 C 0.59601 0.53487 0.58624 0.0
C951 C 0.57832 0.5193 0.55166 0.0
C952 C 0.62016 0.53353 0.60045 0.0
C953 C 0.62711 0.51612 0.57966 0.0
C954 C 0.61036 0.50145 0.54311 0.0
C955 C 0.58612 0.5032 0.52949 0.0
C956 C 0.63728 0.5497 0.63941 0.0
C957 C 0.61705 0.48282 0.51975 0.0
C958 C 0.702 0.53141 0.61775 0.0
C959 C 0.69397 0.51373 0.65423 0.0
C960 C 0.6804 0.53061 0.59007 0.0
C961 C 0.65012 0.51181 0.59934 0.0
C962 C 0.64218 0.49206 0.63357 0.0
C963 C 0.66417 0.49328 0.66052 0.0
C964 C 0.68995 0.55165 0.55347 0.0
C965 C 0.61033 0.47144 0.64463 0.0
H966 H 0.59035 0.54756 0.60338 0.0
H967 H 0.57248 0.49095 0.50293 0.0
H968 H 0.63427 0.5353 0.66656 0.0
H969 H 0.66113 0.56242 0.63194 0.0
H970 H 0.63017 0.56348 0.65034 0.0
H971 H 0.60639 0.47749 0.48744 0.0
H972 H 0.64113 0.49258 0.51575 0.0
H973 H 0.60875 0.46345 0.5391 0.0
H974 H 0.72497 0.54739 0.61293 0.0
H975 H 0.65789 0.4796 0.68875 0.0
H976 H 0.6871 0.56849 0.56318 0.0
H977 H 0.6762 0.54231 0.52435 0.0
H978 H 0.71344 0.56077 0.54496 0.0
H979 H 0.60039 0.4823 0.65811 0.0
H980 H 0.60785 0.4556 0.66881 0.0
H981 H 0.5977 0.46098 0.61521 0.0
C982 C 0.09124 0.61553 0.1698 0.0
C983 C 0.09229 0.60998 0.12632 0.0
C984 C 0.11696 0.63387 0.19251 0.0
C985 C 0.1446 0.64704 0.1714 0.0
C986 C 0.1459 0.64179 0.12745 0.0
C987 C 0.11977 0.62342 0.10544 0.0
C988 C 0.11456 0.63879 0.23945 0.0
C989 C 0.1749 0.65535 0.10384 0.0
C990 C 0.20344 0.70955 0.23114 0.0
C991 C 0.21497 0.69762 0.25843 0.0
C992 C 0.18197 0.69383 0.20003 0.0
C993 C 0.17198 0.66562 0.19618 0.0
C994 C 0.18575 0.65433 0.22079 0.0
C995 C 0.20702 0.67046 0.25172 0.0
C996 C 0.16805 0.70674 0.17426 0.0
C997 C 0.17613 0.6245 0.21743 0.0
H998 H 0.07035 0.60508 0.18655 0.0
H999 H 0.12095 0.61971 0.07174 0.0
H1000 H 0.12691 0.63209 0.25991 0.0
H1001 H 0.12457 0.66112 0.24439 0.0
H1002 H 0.09138 0.62756 0.25081 0.0
H1003 H 0.17212 0.64972 0.06934 0.0
H1004 H 0.18644 0.67807 0.10556 0.0
H1005 H 0.18933 0.6492 0.11961 0.0
H1006 H 0.20929 0.73042 0.23667 0.0
H1007 H 0.21586 0.66121 0.27301 0.0
H1008 H 0.1458 0.69908 0.18735 0.0
H1009 H 0.16535 0.70088 0.13994 0.0
H1010 H 0.18125 0.72957 0.17574 0.0
H1011 H 0.15426 0.61122 0.23289 0.0
H1012 H 0.19184 0.62007 0.23366 0.0
H1013 H 0.17386 0.61871 0.18312 0.0
loop_
_geom_bond_atom_site_label_1
_geom_bond_atom_site_label_2
_geom_bond_distance
_geom_bond_site_symmetry_2
_ccdc_geom_bond_type
Cu0 N1 1.999 1_454 S
Cu0 O6 1.974 1_454 S
Cu0 N11 1.985 . S
Cu0 O20 1.959 . S
N1 Cu0 1.999 1_656 S
N1 C3 1.263 . S
N1 C5 1.389 1_556 S
N2 C3 1.358 . S
N2 C4 1.400 . S
C3 N1 1.263 . S
C3 N2 1.358 . S
C3 H9 0.930 . S
C4 N2 1.400 . S
C4 C5 1.351 1_556 S
C4 H21 0.930 . S
C5 N1 1.389 1_554 S
C5 C4 1.351 1_554 S
C5 H10 0.930 . S
O6 Cu0 1.974 1_656 S
O6 C16 1.282 . S
C7 O8 1.261 1_554 S
C7 O20 1.251 . S
O8 C7 1.261 1_556 S
H9 C3 0.930 . S
H10 C5 0.930 . S
N11 Cu0 1.985 . S
N11 C13 1.335 . S
N11 C14 1.390 . S
N12 C13 1.345 . S
N12 C15 1.336 . S
C13 N11 1.335 . S
C13 N12 1.345 . S
C13 H18 0.930 . S
C14 N11 1.390 . S
C14 C15 1.346 . S
C14 H19 0.930 1_554 S
C15 N12 1.336 . S
C15 C14 1.346 . S
C15 H22 0.929 . S
C16 O6 1.282 . S
C16 O17 1.179 1_655 S
O17 C16 1.179 1_455 S
H18 C13 0.930 . S
H19 C14 0.930 1_556 S
O20 Cu0 1.959 . S
O20 C7 1.251 . S
H21 C4 0.930 . S
H22 C15 0.929 . S
Cu23 N24 1.999 . S
Cu23 O29 1.974 . S
Cu23 N34 1.985 1_565 S
Cu23 O43 1.959 1_565 S
N24 Cu23 1.999 . S
N24 C26 1.263 . S
N24 C28 1.389 . S
N25 C26 1.358 . S
N25 C27 1.400 . S
C26 N24 1.263 . S
C26 N25 1.358 . S
C26 H32 0.930 . S
C27 N25 1.400 . S
C27 C28 1.351 . S
C27 H44 0.930 . S
C28 N24 1.389 . S
C28 C27 1.351 . S
C28 H33 0.930 . S
O29 Cu23 1.974 . S
O29 C39 1.282 . S
C30 O31 1.261 . S
C30 O43 1.251 . S
O31 C30 1.261 . S
H32 C26 0.930 . S
H33 C28 0.930 . S
N34 Cu23 1.985 1_545 S
N34 C36 1.335 . S
N34 C37 1.390 . S
N35 C36 1.345 . S
N35 C38 1.336 . S
C36 N34 1.335 . S
C36 N35 1.345 . S
C36 H41 0.930 . S
C37 N34 1.390 . S
C37 C38 1.346 . S
C37 H42 0.930 . S
C38 N35 1.336 . S
C38 C37 1.346 . S
C38 H45 0.929 . S
C39 O29 1.282 . S
C39 O40 1.216 . S
O40 C39 1.216 . S
H41 C36 0.930 . S
H42 C37 0.930 . S
O43 Cu23 1.959 1_545 S
O43 C30 1.251 . S
H44 C27 0.930 . S
H45 C38 0.929 . S
Cu46 N47 1.999 1_554 S
Cu46 O52 1.974 1_554 S
Cu46 N57 1.985 . S
Cu46 O66 1.959 . S
N47 Cu46 1.999 1_556 S
N47 C49 1.263 . S
N47 C51 1.389 . S
N48 C49 1.358 . S
N48 C50 1.400 . S
C49 N47 1.263 . S
C49 N48 1.358 . S
C49 H55 0.930 . S
C50 N48 1.400 . S
C50 C51 1.351 . S
C50 H67 0.930 . S
C51 N47 1.389 . S
C51 C50 1.351 . S
C51 H56 0.930 . S
O52 Cu46 1.974 1_556 S
O52 C62 1.282 . S
C53 O54 1.261 . S
C53 O66 1.251 . S
O54 C53 1.261 . S
H55 C49 0.930 . S
H56 C51 0.930 . S
N57 Cu46 1.985 . S
N57 C59 1.335 . S
N57 C60 1.390 . S
N58 C59 1.345 . S
N58 C61 1.336 . S
C59 N57 1.335 . S
C59 N58 1.345 . S
C59 H64 0.930 . S
C60 N57 1.390 . S
C60 C61 1.346 . S
C60 H65 0.930 . S
C61 N58 1.336 . S
C61 C60 1.346 . S
C61 H68 0.929 . S
C62 O52 1.282 . S
C62 O63 1.216 1_556 S
O63 C62 1.216 1_554 S
H64 C59 0.930 . S
H65 C60 0.930 . S
O66 Cu46 1.959 . S
O66 C53 1.251 . S
H67 C50 0.930 . S
H68 C61 0.929 . S
Cu69 N70 1.999 1_655 S
Cu69 O75 1.974 1_655 S
Cu69 N80 1.985 . S
Cu69 O89 1.959 . S
N70 Cu69 1.999 1_455 S
N70 C72 1.263 . S
N70 C74 1.389 1_455 S
N71 C72 1.358 . S
N71 C73 1.400 . S
C72 N70 1.263 . S
C72 N71 1.358 . S
C72 H78 0.930 . S
C73 N71 1.400 . S
C73 C74 1.351 1_455 S
C73 H90 0.930 . S
C74 N70 1.389 1_655 S
C74 C73 1.351 1_655 S
C74 H79 0.930 . S
O75 Cu69 1.974 1_455 S
O75 C85 1.282 . S
C76 O77 1.261 . S
C76 O89 1.251 . S
O77 C76 1.261 . S
H78 C72 0.930 . S
H79 C74 0.930 . S
N80 Cu69 1.985 . S
N80 C82 1.335 . S
N80 C83 1.390 . S
N81 C82 1.345 . S
N81 C84 1.336 . S
C82 N80 1.335 . S
C82 N81 1.345 . S
C82 H87 0.930 . S
C83 N80 1.390 . S
C83 C84 1.346 . S
C83 H88 0.930 1_655 S
C84 N81 1.336 . S
C84 C83 1.346 . S
C84 H91 0.929 . S
C85 O75 1.282 . S
C85 O86 1.216 . S
O86 C85 1.216 . S
H87 C82 0.930 . S
H88 C83 0.930 1_455 S
O89 Cu69 1.959 . S
O89 C76 1.251 . S
H90 C73 0.930 . S
H91 C84 0.929 . S
Cu92 N93 1.999 . S
Cu92 O98 1.974 . S
Cu92 N103 1.985 1_545 S
Cu92 O112 1.959 1_545 S
N93 Cu92 1.999 . S
N93 C95 1.263 1_554 S
N93 C97 1.389 . S
N94 C95 1.358 . S
N94 C96 1.400 1_556 S
C95 N93 1.263 1_556 S
C95 N94 1.358 . S
C95 H101 0.930 . S
C96 N94 1.400 1_554 S
C96 C97 1.351 . S
C96 H113 0.930 . S
C97 N93 1.389 . S
C97 C96 1.351 . S
C97 H102 0.930 . S
O98 Cu92 1.974 . S
O98 C108 1.282 1_554 S
C99 O100 1.261 . S
C99 O112 1.251 . S
O100 C99 1.261 . S
H101 C95 0.930 . S
H102 C97 0.930 . S
N103 Cu92 1.985 1_565 S
N103 C105 1.335 . S
N103 C106 1.390 . S
N104 C105 1.345 . S
N104 C107 1.336 . S
C105 N103 1.335 . S
C105 N104 1.345 . S
C105 H110 0.930 . S
C106 N103 1.390 . S
C106 C107 1.346 . S
C106 H111 0.930 1_565 S
C107 N104 1.336 . S
C107 C106 1.346 . S
C107 H114 0.929 . S
C108 O98 1.282 1_556 S
C108 O109 1.216 . S
O109 C108 1.216 . S
H110 C105 0.930 . S
H111 C106 0.930 1_545 S
O112 Cu92 1.959 1_565 S
O112 C99 1.251 . S
H113 C96 0.930 . S
H114 C107 0.929 . S
Cu115 N116 1.999 . S
Cu115 O121 1.974 . S
Cu115 N126 1.985 . S
Cu115 O135 1.959 . S
N116 Cu115 1.999 . S
N116 C118 1.263 . S
N116 C120 1.389 . S
N117 C118 1.358 . S
N117 C119 1.400 . S
C118 N116 1.263 . S
C118 N117 1.358 . S
C118 H124 0.930 . S
C119 N117 1.400 . S
C119 C120 1.351 . S
C119 H136 0.930 . S
C120 N116 1.389 . S
C120 C119 1.351 . S
C120 H125 0.930 . S
O121 Cu115 1.974 . S
O121 C131 1.282 . S
C122 O123 1.261 . S
C122 O135 1.251 . S
O123 C122 1.261 . S
H124 C118 0.930 . S
H125 C120 0.930 . S
N126 Cu115 1.985 . S
N126 C128 1.335 . S
N126 C129 1.390 . S
N127 C128 1.345 . S
N127 C130 1.336 . S
C128 N126 1.335 . S
C128 N127 1.345 . S
C128 H133 0.930 . S
C129 N126 1.390 . S
C129 C130 1.346 . S
C129 H134 0.930 . S
C130 N127 1.336 . S
C130 C129 1.346 . S
C130 H137 0.929 . S
C131 O121 1.282 . S
C131 O132 1.216 . S
O132 C131 1.216 . S
H133 C128 0.930 . S
H134 C129 0.930 . S
O135 Cu115 1.959 . S
O135 C122 1.251 . S
H136 C119 0.930 . S
H137 C130 0.929 . S
H138 C144 0.930 . S
H139 C147 0.931 . S
H140 C149 0.931 . S
H141 C151 0.930 . S
H142 C153 0.930 . S
H143 C155 0.931 . S
C144 H138 0.930 . S
C144 C145 1.380 . S
C144 C146 1.394 . S
C145 C144 1.380 . S
C145 C149 1.382 . S
C146 C144 1.394 . S
C146 C147 1.400 . S
C147 H139 0.931 . S
C147 C146 1.400 . S
C147 C148 1.375 . S
C148 C147 1.375 . S
C148 C149 1.415 . S
C148 C150 1.501 . S
C149 H140 0.931 . S
C149 C145 1.382 . S
C149 C148 1.415 . S
C150 C148 1.501 . S
C150 C151 1.384 . S
C150 C155 1.408 . S
C151 H141 0.930 . S
C151 C150 1.384 . S
C151 C152 1.389 . S
C152 C151 1.389 . S
C152 C153 1.405 . S
C153 H142 0.930 . S
C153 C152 1.405 . S
C153 C154 1.364 . S
C154 C153 1.364 . S
C154 C155 1.400 . S
C155 H143 0.931 . S
C155 C150 1.408 . S
C155 C154 1.400 . S
H156 C162 0.930 . S
H157 C165 0.931 . S
H158 C167 0.931 . S
H159 C169 0.930 . S
H160 C171 0.930 . S
H161 C173 0.931 . S
C162 H156 0.930 . S
C162 C163 1.380 . S
C162 C164 1.394 . S
C163 C162 1.380 . S
C163 C167 1.382 . S
C164 C162 1.394 . S
C164 C165 1.400 . S
C165 H157 0.931 . S
C165 C164 1.400 . S
C165 C166 1.375 . S
C166 C165 1.375 . S
C166 C167 1.415 . S
C166 C168 1.501 . S
C167 H158 0.931 . S
C167 C163 1.382 . S
C167 C166 1.415 . S
C168 C166 1.501 . S
C168 C169 1.384 . S
C168 C173 1.408 . S
C169 H159 0.930 . S
C169 C168 1.384 . S
C169 C170 1.389 . S
C170 C169 1.389 . S
C170 C171 1.405 . S
C171 H160 0.930 . S
C171 C170 1.405 . S
C171 C172 1.364 . S
C172 C171 1.364 . S
C172 C173 1.400 . S
C173 H161 0.931 . S
C173 C168 1.408 . S
C173 C172 1.400 . S
H174 C180 0.930 . S
H175 C183 0.931 . S
H176 C185 0.931 . S
H177 C187 0.930 . S
H178 C189 0.930 . S
H179 C191 0.931 . S
C180 H174 0.930 . S
C180 C181 1.380 . S
C180 C182 1.394 . S
C181 C180 1.380 . S
C181 C185 1.382 . S
C182 C180 1.394 . S
C182 C183 1.400 . S
C183 H175 0.931 . S
C183 C182 1.400 . S
C183 C184 1.375 . S
C184 C183 1.375 . S
C184 C185 1.415 . S
C184 C186 1.501 . S
C185 H176 0.931 . S
C185 C181 1.382 . S
C185 C184 1.415 . S
C186 C184 1.501 . S
C186 C187 1.384 . S
C186 C191 1.408 . S
C187 H177 0.930 . S
C187 C186 1.384 . S
C187 C188 1.389 . S
C188 C187 1.389 . S
C188 C189 1.405 . S
C189 H178 0.930 . S
C189 C188 1.405 . S
C189 C190 1.364 . S
C190 C189 1.364 . S
C190 C191 1.400 . S
C191 H179 0.931 . S
C191 C186 1.408 . S
C191 C190 1.400 . S
H192 C198 0.930 . S
H193 C201 0.931 . S
H194 C203 0.931 . S
H195 C205 0.930 . S
H196 C207 0.930 . S
H197 C209 0.931 . S
C198 H192 0.930 . S
C198 C199 1.380 . S
C198 C200 1.394 . S
C199 C198 1.380 . S
C199 C203 1.382 . S
C200 C198 1.394 . S
C200 C201 1.400 . S
C201 H193 0.931 . S
C201 C200 1.400 . S
C201 C202 1.375 . S
C202 C201 1.375 . S
C202 C203 1.415 . S
C202 C204 1.501 . S
C203 H194 0.931 . S
C203 C199 1.382 . S
C203 C202 1.415 . S
C204 C202 1.501 . S
C204 C205 1.384 . S
C204 C209 1.408 . S
C205 H195 0.930 . S
C205 C204 1.384 . S
C205 C206 1.389 . S
C206 C205 1.389 . S
C206 C207 1.405 . S
C207 H196 0.930 . S
C207 C206 1.405 . S
C207 C208 1.364 . S
C208 C207 1.364 . S
C208 C209 1.400 . S
C209 H197 0.931 . S
C209 C204 1.408 . S
C209 C208 1.400 . S
H210 C216 0.930 . S
H211 C219 0.931 . S
H212 C221 0.931 . S
H213 C223 0.930 . S
H214 C225 0.930 . S
H215 C227 0.931 . S
C216 H210 0.930 . S
C216 C217 1.380 . S
C216 C218 1.394 . S
C217 C216 1.380 . S
C217 C221 1.382 . S
C218 C216 1.394 . S
C218 C219 1.400 . S
C219 H211 0.931 . S
C219 C218 1.400 . S
C219 C220 1.375 . S
C220 C219 1.375 . S
C220 C221 1.415 . S
C220 C222 1.501 . S
C221 H212 0.931 . S
C221 C217 1.382 . S
C221 C220 1.415 . S
C222 C220 1.501 . S
C222 C223 1.384 . S
C222 C227 1.408 . S
C223 H213 0.930 . S
C223 C222 1.384 . S
C223 C224 1.389 . S
C224 C223 1.389 . S
C224 C225 1.405 . S
C225 H214 0.930 . S
C225 C224 1.405 . S
C225 C226 1.364 . S
C226 C225 1.364 . S
C226 C227 1.400 . S
C227 H215 0.931 . S
C227 C222 1.408 . S
C227 C226 1.400 . S
H228 C234 0.930 . S
H229 C237 0.931 . S
H230 C239 0.931 . S
H231 C241 0.930 . S
H232 C243 0.930 . S
H233 C245 0.931 . S
C234 H228 0.930 . S
C234 C235 1.380 . S
C234 C236 1.394 . S
C235 C234 1.380 . S
C235 C239 1.382 . S
C236 C234 1.394 . S
C236 C237 1.400 . S
C237 H229 0.931 . S
C237 C236 1.400 . S
C237 C238 1.375 . S
C238 C237 1.375 . S
C238 C239 1.415 . S
C238 C240 1.501 . S
C239 H230 0.931 . S
C239 C235 1.382 . S
C239 C238 1.415 . S
C240 C238 1.501 . S
C240 C241 1.384 . S
C240 C245 1.408 . S
C241 H231 0.930 . S
C241 C240 1.384 . S
C241 C242 1.389 . S
C242 C241 1.389 . S
C242 C243 1.405 . S
C243 H232 0.930 . S
C243 C242 1.405 . S
C243 C244 1.364 . S
C244 C243 1.364 . S
C244 C245 1.400 . S
C245 H233 0.931 . S
C245 C240 1.408 . S
C245 C244 1.400 . S
C246 C247 1.391 . S
C246 C248 1.394 . S
C246 H262 0.931 . S
C247 C246 1.391 . S
C247 C251 1.376 . S
C248 C246 1.394 . S
C248 C249 1.369 . S
C248 C252 1.531 . S
C249 C248 1.369 . S
C249 C250 1.410 . S
C249 C257 1.503 . S
C250 C249 1.410 . S
C250 C251 1.392 . S
C250 C253 1.511 . S
C251 C247 1.376 . S
C251 C250 1.392 . S
C251 H263 0.929 . S
C252 C248 1.531 . S
C252 H264 0.960 . S
C252 H265 0.962 . S
C252 H266 0.960 . S
C253 C250 1.511 . S
C253 H267 0.961 . S
C253 H268 0.961 . S
C253 H269 0.961 . S
C254 C255 1.370 . S
C254 C256 1.363 . S
C254 H270 0.931 . S
C255 C254 1.370 . S
C255 C259 1.408 . S
C256 C254 1.363 . S
C256 C257 1.370 . S
C256 C260 1.524 . S
C257 C249 1.503 . S
C257 C256 1.370 . S
C257 C258 1.403 . S
C258 C257 1.403 . S
C258 C259 1.404 . S
C258 C261 1.539 . S
C259 C255 1.408 . S
C259 C258 1.404 . S
C259 H271 0.930 . S
C260 C256 1.524 . S
C260 H272 0.956 . S
C260 H273 0.961 . S
C260 H274 0.961 . S
C261 C258 1.539 . S
C261 H275 0.958 . S
C261 H276 0.961 . S
C261 H277 0.960 . S
H262 C246 0.931 . S
H263 C251 0.929 . S
H264 C252 0.960 . S
H265 C252 0.962 . S
H266 C252 0.960 . S
H267 C253 0.961 . S
H268 C253 0.961 . S
H269 C253 0.961 . S
H270 C254 0.931 . S
H271 C259 0.930 . S
H272 C260 0.956 . S
H273 C260 0.961 . S
H274 C260 0.961 . S
H275 C261 0.958 . S
H276 C261 0.961 . S
H277 C261 0.960 . S
C278 C279 1.391 . S
C278 C280 1.394 . S
C278 H294 0.931 . S
C279 C278 1.391 . S
C279 C283 1.376 . S
C280 C278 1.394 . S
C280 C281 1.369 . S
C280 C284 1.531 . S
C281 C280 1.369 . S
C281 C282 1.410 . S
C281 C289 1.503 . S
C282 C281 1.410 . S
C282 C283 1.392 . S
C282 C285 1.511 . S
C283 C279 1.376 . S
C283 C282 1.392 . S
C283 H295 0.929 . S
C284 C280 1.531 . S
C284 H296 0.960 . S
C284 H297 0.962 . S
C284 H298 0.960 . S
C285 C282 1.511 . S
C285 H299 0.961 . S
C285 H300 0.961 . S
C285 H301 0.961 . S
C286 C287 1.370 . S
C286 C288 1.363 . S
C286 H302 0.931 . S
C287 C286 1.370 . S
C287 C291 1.408 . S
C288 C286 1.363 . S
C288 C289 1.370 . S
C288 C292 1.524 . S
C289 C281 1.503 . S
C289 C288 1.370 . S
C289 C290 1.403 . S
C290 C289 1.403 . S
C290 C291 1.404 . S
C290 C293 1.539 . S
C291 C287 1.408 . S
C291 C290 1.404 . S
C291 H303 0.930 . S
C292 C288 1.524 . S
C292 H304 0.956 . S
C292 H305 0.961 . S
C292 H306 0.961 . S
C293 C290 1.539 . S
C293 H307 0.958 . S
C293 H308 0.961 . S
C293 H309 0.960 . S
H294 C278 0.931 . S
H295 C283 0.929 . S
H296 C284 0.960 . S
H297 C284 0.962 . S
H298 C284 0.960 . S
H299 C285 0.961 . S
H300 C285 0.961 . S
H301 C285 0.961 . S
H302 C286 0.931 . S
H303 C291 0.930 . S
H304 C292 0.956 . S
H305 C292 0.961 . S
H306 C292 0.961 . S
H307 C293 0.958 . S
H308 C293 0.961 . S
H309 C293 0.960 . S
C310 C311 1.391 . S
C310 C312 1.394 . S
C310 H326 0.931 . S
C311 C310 1.391 . S
C311 C315 1.376 . S
C312 C310 1.394 . S
C312 C313 1.369 . S
C312 C316 1.531 . S
C313 C312 1.369 . S
C313 C314 1.410 . S
C313 C321 1.503 . S
C314 C313 1.410 . S
C314 C315 1.392 . S
C314 C317 1.511 . S
C315 C311 1.376 . S
C315 C314 1.392 . S
C315 H327 0.929 . S
C316 C312 1.531 . S
C316 H328 0.960 . S
C316 H329 0.962 . S
C316 H330 0.960 . S
C317 C314 1.511 . S
C317 H331 0.961 . S
C317 H332 0.961 . S
C317 H333 0.961 . S
C318 C319 1.370 . S
C318 C320 1.363 . S
C318 H334 0.931 . S
C319 C318 1.370 . S
C319 C323 1.408 . S
C320 C318 1.363 . S
C320 C321 1.370 . S
C320 C324 1.524 . S
C321 C313 1.503 . S
C321 C320 1.370 . S
C321 C322 1.403 . S
C322 C321 1.403 . S
C322 C323 1.404 . S
C322 C325 1.539 . S
C323 C319 1.408 . S
C323 C322 1.404 . S
C323 H335 0.930 . S
C324 C320 1.524 . S
C324 H336 0.956 . S
C324 H337 0.961 . S
C324 H338 0.961 . S
C325 C322 1.539 . S
C325 H339 0.958 . S
C325 H340 0.961 . S
C325 H341 0.960 . S
H326 C310 0.931 . S
H327 C315 0.929 . S
H328 C316 0.960 . S
H329 C316 0.962 . S
H330 C316 0.960 . S
H331 C317 0.961 . S
H332 C317 0.961 . S
H333 C317 0.961 . S
H334 C318 0.931 . S
H335 C323 0.930 . S
H336 C324 0.956 . S
H337 C324 0.961 . S
H338 C324 0.961 . S
H339 C325 0.958 . S
H340 C325 0.961 . S
H341 C325 0.960 . S
C342 C343 1.391 . S
C342 C344 1.394 . S
C342 H358 0.931 . S
C343 C342 1.391 . S
C343 C347 1.376 . S
C344 C342 1.394 . S
C344 C345 1.369 . S
C344 C348 1.531 . S
C345 C344 1.369 . S
C345 C346 1.410 . S
C345 C353 1.503 . S
C346 C345 1.410 . S
C346 C347 1.392 . S
C346 C349 1.511 . S
C347 C343 1.376 . S
C347 C346 1.392 . S
C347 H359 0.929 . S
C348 C344 1.531 . S
C348 H360 0.960 . S
C348 H361 0.962 . S
C348 H362 0.960 . S
C349 C346 1.511 . S
C349 H363 0.961 . S
C349 H364 0.961 . S
C349 H365 0.961 . S
C350 C351 1.370 . S
C350 C352 1.363 . S
C350 H366 0.931 . S
C351 C350 1.370 . S
C351 C355 1.408 . S
C352 C350 1.363 . S
C352 C353 1.370 . S
C352 C356 1.524 . S
C353 C345 1.503 . S
C353 C352 1.370 . S
C353 C354 1.403 . S
C354 C353 1.403 . S
C354 C355 1.404 . S
C354 C357 1.539 . S
C355 C351 1.408 . S
C355 C354 1.404 . S
C355 H367 0.930 . S
C356 C352 1.524 . S
C356 H368 0.956 . S
C356 H369 0.961 . S
C356 H370 0.961 . S
C357 C354 1.539 . S
C357 H371 0.958 . S
C357 H372 0.961 . S
C357 H373 0.960 . S
H358 C342 0.931 . S
H359 C347 0.929 . S
H360 C348 0.960 . S
H361 C348 0.962 . S
H362 C348 0.960 . S
H363 C349 0.961 . S
H364 C349 0.961 . S
H365 C349 0.961 . S
H366 C350 0.931 . S
H367 C355 0.930 . S
H368 C356 0.956 . S
H369 C356 0.961 . S
H370 C356 0.961 . S
H371 C357 0.958 . S
H372 C357 0.961 . S
H373 C357 0.960 . S
C374 C375 1.391 . S
C374 C376 1.394 . S
C374 H390 0.931 . S
C375 C374 1.391 . S
C375 C379 1.376 . S
C376 C374 1.394 . S
C376 C377 1.369 . S
C376 C380 1.531 . S
C377 C376 1.369 . S
C377 C378 1.410 . S
C377 C385 1.503 . S
C378 C377 1.410 . S
C378 C379 1.392 . S
C378 C381 1.511 . S
C379 C375 1.376 . S
C379 C378 1.392 . S
C379 H391 0.929 . S
C380 C376 1.531 . S
C380 H392 0.960 . S
C380 H393 0.962 . S
C380 H394 0.960 . S
C381 C378 1.511 . S
C381 H395 0.961 . S
C381 H396 0.961 . S
C381 H397 0.961 . S
C382 C383 1.370 . S
C382 C384 1.363 . S
C382 H398 0.931 . S
C383 C382 1.370 . S
C383 C387 1.408 . S
C384 C382 1.363 . S
C384 C385 1.370 . S
C384 C388 1.524 . S
C385 C377 1.503 . S
C385 C384 1.370 . S
C385 C386 1.403 . S
C386 C385 1.403 . S
C386 C387 1.404 . S
C386 C389 1.539 . S
C387 C383 1.408 . S
C387 C386 1.404 . S
C387 H399 0.930 . S
C388 C384 1.524 . S
C388 H400 0.956 . S
C388 H401 0.961 . S
C388 H402 0.961 . S
C389 C386 1.539 . S
C389 H403 0.958 . S
C389 H404 0.961 . S
C389 H405 0.960 . S
H390 C374 0.931 . S
H391 C379 0.929 . S
H392 C380 0.960 . S
H393 C380 0.962 . S
H394 C380 0.960 . S
H395 C381 0.961 . S
H396 C381 0.961 . S
H397 C381 0.961 . S
H398 C382 0.931 . S
H399 C387 0.930 . S
H400 C388 0.956 . S
H401 C388 0.961 . S
H402 C388 0.961 . S
H403 C389 0.958 . S
H404 C389 0.961 . S
H405 C389 0.960 . S
C406 C407 1.391 . S
C406 C408 1.394 . S
C406 H422 0.931 . S
C407 C406 1.391 . S
C407 C411 1.376 . S
C408 C406 1.394 . S
C408 C409 1.369 . S
C408 C412 1.531 . S
C409 C408 1.369 . S
C409 C410 1.410 . S
C409 C417 1.503 . S
C410 C409 1.410 . S
C410 C411 1.392 . S
C410 C413 1.511 . S
C411 C407 1.376 . S
C411 C410 1.392 . S
C411 H423 0.929 . S
C412 C408 1.531 . S
C412 H424 0.960 . S
C412 H425 0.962 . S
C412 H426 0.960 . S
C413 C410 1.511 . S
C413 H427 0.961 . S
C413 H428 0.961 . S
C413 H429 0.961 . S
C414 C415 1.370 . S
C414 C416 1.363 . S
C414 H430 0.931 . S
C415 C414 1.370 . S
C415 C419 1.408 . S
C416 C414 1.363 . S
C416 C417 1.370 . S
C416 C420 1.524 . S
C417 C409 1.503 . S
C417 C416 1.370 . S
C417 C418 1.403 . S
C418 C417 1.403 . S
C418 C419 1.404 . S
C418 C421 1.539 . S
C419 C415 1.408 . S
C419 C418 1.404 . S
C419 H431 0.930 . S
C420 C416 1.524 . S
C420 H432 0.956 . S
C420 H433 0.961 . S
C420 H434 0.961 . S
C421 C418 1.539 . S
C421 H435 0.958 . S
C421 H436 0.961 . S
C421 H437 0.960 . S
H422 C406 0.931 . S
H423 C411 0.929 . S
H424 C412 0.960 . S
H425 C412 0.962 . S
H426 C412 0.960 . S
H427 C413 0.961 . S
H428 C413 0.961 . S
H429 C413 0.961 . S
H430 C414 0.931 . S
H431 C419 0.930 . S
H432 C420 0.956 . S
H433 C420 0.961 . S
H434 C420 0.961 . S
H435 C421 0.958 . S
H436 C421 0.961 . S
H437 C421 0.960 . S
C438 C439 1.391 . S
C438 C440 1.394 . S
C438 H454 0.931 . S
C439 C438 1.391 . S
C439 C443 1.376 . S
C440 C438 1.394 . S
C440 C441 1.369 . S
C440 C444 1.531 . S
C441 C440 1.369 . S
C441 C442 1.410 . S
C441 C449 1.503 . S
C442 C441 1.410 . S
C442 C443 1.392 . S
C442 C445 1.511 . S
C443 C439 1.376 . S
C443 C442 1.392 . S
C443 H455 0.929 . S
C444 C440 1.531 . S
C444 H456 0.960 . S
C444 H457 0.962 . S
C444 H458 0.960 . S
C445 C442 1.511 . S
C445 H459 0.961 . S
C445 H460 0.961 . S
C445 H461 0.961 . S
C446 C447 1.370 . S
C446 C448 1.363 . S
C446 H462 0.931 . S
C447 C446 1.370 . S
C447 C451 1.408 . S
C448 C446 1.363 . S
C448 C449 1.370 . S
C448 C452 1.524 . S
C449 C441 1.503 . S
C449 C448 1.370 . S
C449 C450 1.403 . S
C450 C449 1.403 . S
C450 C451 1.404 . S
C450 C453 1.539 . S
C451 C447 1.408 . S
C451 C450 1.404 . S
C451 H463 0.930 . S
C452 C448 1.524 . S
C452 H464 0.956 . S
C452 H465 0.961 . S
C452 H466 0.961 . S
C453 C450 1.539 . S
C453 H467 0.958 . S
C453 H468 0.961 . S
C453 H469 0.960 . S
H454 C438 0.931 . S
H455 C443 0.929 . S
H456 C444 0.960 . S
H457 C444 0.962 . S
H458 C444 0.960 . S
H459 C445 0.961 . S
H460 C445 0.961 . S
H461 C445 0.961 . S
H462 C446 0.931 . S
H463 C451 0.930 . S
H464 C452 0.956 . S
H465 C452 0.961 . S
H466 C452 0.961 . S
H467 C453 0.958 . S
H468 C453 0.961 . S
H469 C453 0.960 . S
C470 C471 1.391 . S
C470 C472 1.394 . S
C470 H486 0.931 . S
C471 C470 1.391 . S
C471 C475 1.376 . S
C472 C470 1.394 . S
C472 C473 1.369 . S
C472 C476 1.531 . S
C473 C472 1.369 . S
C473 C474 1.410 . S
C473 C481 1.503 . S
C474 C473 1.410 . S
C474 C475 1.392 . S
C474 C477 1.511 . S
C475 C471 1.376 . S
C475 C474 1.392 . S
C475 H487 0.929 1_556 S
C476 C472 1.531 . S
C476 H488 0.960 . S
C476 H489 0.962 . S
C476 H490 0.960 . S
C477 C474 1.511 . S
C477 H491 0.961 . S
C477 H492 0.961 . S
C477 H493 0.961 . S
C478 C479 1.370 . S
C478 C480 1.363 . S
C478 H494 0.931 . S
C479 C478 1.370 . S
C479 C483 1.408 . S
C480 C478 1.363 . S
C480 C481 1.370 . S
C480 C484 1.524 . S
C481 C473 1.503 . S
C481 C480 1.370 . S
C481 C482 1.403 . S
C482 C481 1.403 . S
C482 C483 1.404 . S
C482 C485 1.539 . S
C483 C479 1.408 . S
C483 C482 1.404 . S
C483 H495 0.930 . S
C484 C480 1.524 . S
C484 H496 0.956 . S
C484 H497 0.961 . S
C484 H498 0.961 . S
C485 C482 1.539 . S
C485 H499 0.958 . S
C485 H500 0.961 . S
C485 H501 0.960 . S
H486 C470 0.931 . S
H487 C475 0.929 1_554 S
H488 C476 0.960 . S
H489 C476 0.962 . S
H490 C476 0.960 . S
H491 C477 0.961 . S
H492 C477 0.961 . S
H493 C477 0.961 . S
H494 C478 0.931 . S
H495 C483 0.930 . S
H496 C484 0.956 . S
H497 C484 0.961 . S
H498 C484 0.961 . S
H499 C485 0.958 . S
H500 C485 0.961 . S
H501 C485 0.960 . S
C502 C503 1.391 . S
C502 C504 1.394 . S
C502 H518 0.931 . S
C503 C502 1.391 . S
C503 C507 1.376 . S
C504 C502 1.394 . S
C504 C505 1.369 . S
C504 C508 1.531 . S
C505 C504 1.369 . S
C505 C506 1.410 . S
C505 C513 1.503 . S
C506 C505 1.410 . S
C506 C507 1.392 . S
C506 C509 1.511 . S
C507 C503 1.376 . S
C507 C506 1.392 . S
C507 H519 0.929 . S
C508 C504 1.531 . S
C508 H520 0.960 . S
C508 H521 0.962 . S
C508 H522 0.960 . S
C509 C506 1.511 . S
C509 H523 0.961 . S
C509 H524 0.961 . S
C509 H525 0.961 . S
C510 C511 1.370 . S
C510 C512 1.363 . S
C510 H526 0.931 . S
C511 C510 1.370 . S
C511 C515 1.408 . S
C512 C510 1.363 . S
C512 C513 1.370 . S
C512 C516 1.524 . S
C513 C505 1.503 . S
C513 C512 1.370 . S
C513 C514 1.403 . S
C514 C513 1.403 . S
C514 C515 1.404 . S
C514 C517 1.539 . S
C515 C511 1.408 . S
C515 C514 1.404 . S
C515 H527 0.930 . S
C516 C512 1.524 . S
C516 H528 0.956 . S
C516 H529 0.961 . S
C516 H530 0.961 . S
C517 C514 1.539 . S
C517 H531 0.958 . S
C517 H532 0.961 . S
C517 H533 0.960 . S
H518 C502 0.931 . S
H519 C507 0.929 . S
H520 C508 0.960 . S
H521 C508 0.962 . S
H522 C508 0.960 . S
H523 C509 0.961 . S
H524 C509 0.961 . S
H525 C509 0.961 . S
H526 C510 0.931 . S
H527 C515 0.930 . S
H528 C516 0.956 . S
H529 C516 0.961 . S
H530 C516 0.961 . S
H531 C517 0.958 . S
H532 C517 0.961 . S
H533 C517 0.960 . S
C534 C535 1.391 . S
C534 C536 1.394 . S
C534 H550 0.931 . S
C535 C534 1.391 . S
C535 C539 1.376 . S
C536 C534 1.394 . S
C536 C537 1.369 . S
C536 C540 1.531 . S
C537 C536 1.369 . S
C537 C538 1.410 . S
C537 C545 1.503 . S
C538 C537 1.410 . S
C538 C539 1.392 . S
C538 C541 1.511 . S
C539 C535 1.376 . S
C539 C538 1.392 . S
C539 H551 0.929 . S
C540 C536 1.531 . S
C540 H552 0.960 . S
C540 H553 0.962 . S
C540 H554 0.960 . S
C541 C538 1.511 . S
C541 H555 0.961 . S
C541 H556 0.961 . S
C541 H557 0.961 . S
C542 C543 1.370 . S
C542 C544 1.363 . S
C542 H558 0.931 . S
C543 C542 1.370 . S
C543 C547 1.408 . S
C544 C542 1.363 . S
C544 C545 1.370 . S
C544 C548 1.524 . S
C545 C537 1.503 . S
C545 C544 1.370 . S
C545 C546 1.403 . S
C546 C545 1.403 . S
C546 C547 1.404 . S
C546 C549 1.539 . S
C547 C543 1.408 . S
C547 C546 1.404 . S
C547 H559 0.930 . S
C548 C544 1.524 . S
C548 H560 0.956 . S
C548 H561 0.961 . S
C548 H562 0.961 . S
C549 C546 1.539 . S
C549 H563 0.958 . S
C549 H564 0.961 . S
C549 H565 0.960 . S
H550 C534 0.931 . S
H551 C539 0.929 . S
H552 C540 0.960 . S
H553 C540 0.962 . S
H554 C540 0.960 . S
H555 C541 0.961 . S
H556 C541 0.961 . S
H557 C541 0.961 . S
H558 C542 0.931 . S
H559 C547 0.930 . S
H560 C548 0.956 . S
H561 C548 0.961 . S
H562 C548 0.961 . S
H563 C549 0.958 . S
H564 C549 0.961 . S
H565 C549 0.960 . S
C566 C567 1.391 . S
C566 C568 1.394 . S
C566 H582 0.931 . S
C567 C566 1.391 . S
C567 C571 1.376 . S
C568 C566 1.394 . S
C568 C569 1.369 . S
C568 C572 1.531 . S
C569 C568 1.369 . S
C569 C570 1.410 . S
C569 C577 1.503 . S
C570 C569 1.410 . S
C570 C571 1.392 . S
C570 C573 1.511 . S
C571 C567 1.376 . S
C571 C570 1.392 . S
C571 H583 0.929 . S
C572 C568 1.531 . S
C572 H584 0.960 . S
C572 H585 0.962 . S
C572 H586 0.960 . S
C573 C570 1.511 . S
C573 H587 0.961 . S
C573 H588 0.961 . S
C573 H589 0.961 . S
C574 C575 1.370 . S
C574 C576 1.363 . S
C574 H590 0.931 . S
C575 C574 1.370 . S
C575 C579 1.408 . S
C576 C574 1.363 . S
C576 C577 1.370 . S
C576 C580 1.524 . S
C577 C569 1.503 . S
C577 C576 1.370 . S
C577 C578 1.403 . S
C578 C577 1.403 . S
C578 C579 1.404 . S
C578 C581 1.539 . S
C579 C575 1.408 . S
C579 C578 1.404 . S
C579 H591 0.930 . S
C580 C576 1.524 . S
C580 H592 0.956 . S
C580 H593 0.961 . S
C580 H594 0.961 . S
C581 C578 1.539 . S
C581 H595 0.958 . S
C581 H596 0.961 . S
C581 H597 0.960 . S
H582 C566 0.931 . S
H583 C571 0.929 . S
H584 C572 0.960 . S
H585 C572 0.962 . S
H586 C572 0.960 . S
H587 C573 0.961 . S
H588 C573 0.961 . S
H589 C573 0.961 . S
H590 C574 0.931 . S
H591 C579 0.930 . S
H592 C580 0.956 . S
H593 C580 0.961 . S
H594 C580 0.961 . S
H595 C581 0.958 . S
H596 C581 0.961 . S
H597 C581 0.960 . S
C598 C599 1.391 . S
C598 C600 1.394 . S
C598 H614 0.931 . S
C599 C598 1.391 . S
C599 C603 1.376 . S
C600 C598 1.394 . S
C600 C601 1.369 . S
C600 C604 1.531 . S
C601 C600 1.369 . S
C601 C602 1.410 . S
C601 C609 1.503 . S
C602 C601 1.410 . S
C602 C603 1.392 . S
C602 C605 1.511 . S
C603 C599 1.376 . S
C603 C602 1.392 . S
C603 H615 0.929 . S
C604 C600 1.531 . S
C604 H616 0.960 . S
C604 H617 0.962 . S
C604 H618 0.960 . S
C605 C602 1.511 . S
C605 H619 0.961 . S
C605 H620 0.961 . S
C605 H621 0.961 . S
C606 C607 1.370 . S
C606 C608 1.363 . S
C606 H622 0.931 . S
C607 C606 1.370 . S
C607 C611 1.408 . S
C608 C606 1.363 . S
C608 C609 1.370 . S
C608 C612 1.524 . S
C609 C601 1.503 . S
C609 C608 1.370 . S
C609 C610 1.403 . S
C610 C609 1.403 . S
C610 C611 1.404 . S
C610 C613 1.539 . S
C611 C607 1.408 . S
C611 C610 1.404 . S
C611 H623 0.930 . S
C612 C608 1.524 . S
C612 H624 0.956 . S
C612 H625 0.961 . S
C612 H626 0.961 . S
C613 C610 1.539 . S
C613 H627 0.958 . S
C613 H628 0.961 . S
C613 H629 0.960 . S
H614 C598 0.931 . S
H615 C603 0.929 . S
H616 C604 0.960 . S
H617 C604 0.962 . S
H618 C604 0.960 . S
H619 C605 0.961 . S
H620 C605 0.961 . S
H621 C605 0.961 . S
H622 C606 0.931 . S
H623 C611 0.930 . S
H624 C612 0.956 . S
H625 C612 0.961 . S
H626 C612 0.961 . S
H627 C613 0.958 . S
H628 C613 0.961 . S
H629 C613 0.960 . S
C630 C631 1.391 . S
C630 C632 1.394 . S
C630 H646 0.931 . S
C631 C630 1.391 . S
C631 C635 1.376 . S
C632 C630 1.394 . S
C632 C633 1.369 . S
C632 C636 1.531 . S
C633 C632 1.369 . S
C633 C634 1.410 . S
C633 C641 1.503 . S
C634 C633 1.410 . S
C634 C635 1.392 . S
C634 C637 1.511 . S
C635 C631 1.376 . S
C635 C634 1.392 . S
C635 H647 0.929 . S
C636 C632 1.531 . S
C636 H648 0.960 . S
C636 H649 0.962 . S
C636 H650 0.960 . S
C637 C634 1.511 . S
C637 H651 0.961 . S
C637 H652 0.961 . S
C637 H653 0.961 . S
C638 C639 1.370 . S
C638 C640 1.363 . S
C638 H654 0.931 . S
C639 C638 1.370 . S
C639 C643 1.408 . S
C640 C638 1.363 . S
C640 C641 1.370 . S
C640 C644 1.524 . S
C641 C633 1.503 . S
C641 C640 1.370 . S
C641 C642 1.403 . S
C642 C641 1.403 . S
C642 C643 1.404 . S
C642 C645 1.539 . S
C643 C639 1.408 . S
C643 C642 1.404 . S
C643 H655 0.930 . S
C644 C640 1.524 . S
C644 H656 0.956 . S
C644 H657 0.961 . S
C644 H658 0.961 . S
C645 C642 1.539 . S
C645 H659 0.958 . S
C645 H660 0.961 . S
C645 H661 0.960 . S
H646 C630 0.931 . S
H647 C635 0.929 . S
H648 C636 0.960 . S
H649 C636 0.962 . S
H650 C636 0.960 . S
H651 C637 0.961 . S
H652 C637 0.961 . S
H653 C637 0.961 . S
H654 C638 0.931 . S
H655 C643 0.930 . S
H656 C644 0.956 . S
H657 C644 0.961 . S
H658 C644 0.961 . S
H659 C645 0.958 . S
H660 C645 0.961 . S
H661 C645 0.960 . S
C662 C663 1.391 . S
C662 C664 1.394 . S
C662 H678 0.931 . S
C663 C662 1.391 . S
C663 C667 1.376 . S
C664 C662 1.394 . S
C664 C665 1.369 . S
C664 C668 1.531 . S
C665 C664 1.369 . S
C665 C666 1.410 . S
C665 C673 1.503 . S
C666 C665 1.410 . S
C666 C667 1.392 . S
C666 C669 1.511 . S
C667 C663 1.376 . S
C667 C666 1.392 . S
C667 H679 0.929 . S
C668 C664 1.531 . S
C668 H680 0.960 . S
C668 H681 0.962 . S
C668 H682 0.960 . S
C669 C666 1.511 . S
C669 H683 0.961 . S
C669 H684 0.961 . S
C669 H685 0.961 . S
C670 C671 1.370 . S
C670 C672 1.363 . S
C670 H686 0.931 . S
C671 C670 1.370 . S
C671 C675 1.408 . S
C672 C670 1.363 . S
C672 C673 1.370 . S
C672 C676 1.524 . S
C673 C665 1.503 . S
C673 C672 1.370 . S
C673 C674 1.403 . S
C674 C673 1.403 . S
C674 C675 1.404 . S
C674 C677 1.539 . S
C675 C671 1.408 . S
C675 C674 1.404 . S
C675 H687 0.930 . S
C676 C672 1.524 . S
C676 H688 0.956 . S
C676 H689 0.961 . S
C676 H690 0.961 . S
C677 C674 1.539 . S
C677 H691 0.958 . S
C677 H692 0.961 . S
C677 H693 0.960 . S
H678 C662 0.931 . S
H679 C667 0.929 . S
H680 C668 0.960 . S
H681 C668 0.962 . S
H682 C668 0.960 . S
H683 C669 0.961 . S
H684 C669 0.961 . S
H685 C669 0.961 . S
H686 C670 0.931 . S
H687 C675 0.930 . S
H688 C676 0.956 . S
H689 C676 0.961 . S
H690 C676 0.961 . S
H691 C677 0.958 . S
H692 C677 0.961 . S
H693 C677 0.960 . S
C694 C695 1.391 . S
C694 C696 1.394 . S
C694 H710 0.931 . S
C695 C694 1.391 . S
C695 C699 1.376 . S
C696 C694 1.394 . S
C696 C697 1.369 . S
C696 C700 1.531 . S
C697 C696 1.369 . S
C697 C698 1.410 . S
C697 C705 1.503 . S
C698 C697 1.410 . S
C698 C699 1.392 . S
C698 C701 1.511 . S
C699 C695 1.376 . S
C699 C698 1.392 . S
C699 H711 0.929 . S
C700 C696 1.531 . S
C700 H712 0.960 . S
C700 H713 0.962 . S
C700 H714 0.960 . S
C701 C698 1.511 . S
C701 H715 0.961 . S
C701 H716 0.961 . S
C701 H717 0.961 . S
C702 C703 1.370 . S
C702 C704 1.363 . S
C702 H718 0.931 . S
C703 C702 1.370 . S
C703 C707 1.408 . S
C704 C702 1.363 . S
C704 C705 1.370 . S
C704 C708 1.524 . S
C705 C697 1.503 . S
C705 C704 1.370 . S
C705 C706 1.403 . S
C706 C705 1.403 . S
C706 C707 1.404 . S
C706 C709 1.539 . S
C707 C703 1.408 . S
C707 C706 1.404 . S
C707 H719 0.930 . S
C708 C704 1.524 . S
C708 H720 0.956 . S
C708 H721 0.961 . S
C708 H722 0.961 . S
C709 C706 1.539 . S
C709 H723 0.958 . S
C709 H724 0.961 . S
C709 H725 0.960 . S
H710 C694 0.931 . S
H711 C699 0.929 . S
H712 C700 0.960 . S
H713 C700 0.962 . S
H714 C700 0.960 . S
H715 C701 0.961 . S
H716 C701 0.961 . S
H717 C701 0.961 . S
H718 C702 0.931 . S
H719 C707 0.930 . S
H720 C708 0.956 . S
H721 C708 0.961 . S
H722 C708 0.961 . S
H723 C709 0.958 . S
H724 C709 0.961 . S
H725 C709 0.960 . S
C726 C727 1.391 . S
C726 C728 1.394 . S
C726 H742 0.931 . S
C727 C726 1.391 . S
C727 C731 1.376 . S
C728 C726 1.394 . S
C728 C729 1.369 . S
C728 C732 1.531 . S
C729 C728 1.369 . S
C729 C730 1.410 . S
C729 C737 1.503 . S
C730 C729 1.410 . S
C730 C731 1.392 . S
C730 C733 1.511 . S
C731 C727 1.376 . S
C731 C730 1.392 . S
C731 H743 0.929 . S
C732 C728 1.531 . S
C732 H744 0.960 . S
C732 H745 0.962 . S
C732 H746 0.960 . S
C733 C730 1.511 . S
C733 H747 0.961 . S
C733 H748 0.961 . S
C733 H749 0.961 . S
C734 C735 1.370 . S
C734 C736 1.363 . S
C734 H750 0.931 . S
C735 C734 1.370 . S
C735 C739 1.408 . S
C736 C734 1.363 . S
C736 C737 1.370 . S
C736 C740 1.524 . S
C737 C729 1.503 . S
C737 C736 1.370 . S
C737 C738 1.403 . S
C738 C737 1.403 . S
C738 C739 1.404 . S
C738 C741 1.539 . S
C739 C735 1.408 . S
C739 C738 1.404 . S
C739 H751 0.930 . S
C740 C736 1.524 . S
C740 H752 0.956 . S
C740 H753 0.961 . S
C740 H754 0.961 . S
C741 C738 1.539 . S
C741 H755 0.958 . S
C741 H756 0.961 . S
C741 H757 0.960 . S
H742 C726 0.931 . S
H743 C731 0.929 . S
H744 C732 0.960 . S
H745 C732 0.962 . S
H746 C732 0.960 . S
H747 C733 0.961 . S
H748 C733 0.961 . S
H749 C733 0.961 . S
H750 C734 0.931 . S
H751 C739 0.930 . S
H752 C740 0.956 . S
H753 C740 0.961 . S
H754 C740 0.961 . S
H755 C741 0.958 . S
H756 C741 0.961 . S
H757 C741 0.960 . S
C758 C759 1.391 . S
C758 C760 1.394 . S
C758 H774 0.931 . S
C759 C758 1.391 . S
C759 C763 1.376 . S
C760 C758 1.394 . S
C760 C761 1.369 . S
C760 C764 1.531 . S
C761 C760 1.369 . S
C761 C762 1.410 . S
C761 C769 1.503 . S
C762 C761 1.410 . S
C762 C763 1.392 . S
C762 C765 1.511 . S
C763 C759 1.376 . S
C763 C762 1.392 . S
C763 H775 0.929 . S
C764 C760 1.531 . S
C764 H776 0.960 . S
C764 H777 0.962 . S
C764 H778 0.960 . S
C765 C762 1.511 . S
C765 H779 0.961 . S
C765 H780 0.961 . S
C765 H781 0.961 . S
C766 C767 1.370 . S
C766 C768 1.363 . S
C766 H782 0.931 . S
C767 C766 1.370 . S
C767 C771 1.408 . S
C768 C766 1.363 . S
C768 C769 1.370 . S
C768 C772 1.524 . S
C769 C761 1.503 . S
C769 C768 1.370 . S
C769 C770 1.403 . S
C770 C769 1.403 . S
C770 C771 1.404 . S
C770 C773 1.539 . S
C771 C767 1.408 . S
C771 C770 1.404 . S
C771 H783 0.930 . S
C772 C768 1.524 . S
C772 H784 0.956 . S
C772 H785 0.961 . S
C772 H786 0.961 . S
C773 C770 1.539 . S
C773 H787 0.958 . S
C773 H788 0.961 . S
C773 H789 0.960 . S
H774 C758 0.931 . S
H775 C763 0.929 . S
H776 C764 0.960 . S
H777 C764 0.962 . S
H778 C764 0.960 . S
H779 C765 0.961 . S
H780 C765 0.961 . S
H781 C765 0.961 . S
H782 C766 0.931 . S
H783 C771 0.930 . S
H784 C772 0.956 . S
H785 C772 0.961 . S
H786 C772 0.961 . S
H787 C773 0.958 . S
H788 C773 0.961 . S
H789 C773 0.960 . S
C790 C791 1.391 . S
C790 C792 1.394 . S
C790 H806 0.931 . S
C791 C790 1.391 . S
C791 C795 1.376 . S
C792 C790 1.394 . S
C792 C793 1.369 . S
C792 C796 1.531 . S
C793 C792 1.369 . S
C793 C794 1.410 . S
C793 C801 1.503 . S
C794 C793 1.410 . S
C794 C795 1.392 . S
C794 C797 1.511 . S
C795 C791 1.376 . S
C795 C794 1.392 . S
C795 H807 0.929 . S
C796 C792 1.531 . S
C796 H808 0.960 . S
C796 H809 0.962 . S
C796 H810 0.960 . S
C797 C794 1.511 . S
C797 H811 0.961 . S
C797 H812 0.961 . S
C797 H813 0.961 . S
C798 C799 1.370 . S
C798 C800 1.363 . S
C798 H814 0.931 . S
C799 C798 1.370 . S
C799 C803 1.408 . S
C800 C798 1.363 . S
C800 C801 1.370 . S
C800 C804 1.524 . S
C801 C793 1.503 . S
C801 C800 1.370 . S
C801 C802 1.403 . S
C802 C801 1.403 . S
C802 C803 1.404 . S
C802 C805 1.539 . S
C803 C799 1.408 . S
C803 C802 1.404 . S
C803 H815 0.930 . S
C804 C800 1.524 . S
C804 H816 0.956 . S
C804 H817 0.961 . S
C804 H818 0.961 . S
C805 C802 1.539 . S
C805 H819 0.958 . S
C805 H820 0.961 . S
C805 H821 0.960 . S
H806 C790 0.931 . S
H807 C795 0.929 . S
H808 C796 0.960 . S
H809 C796 0.962 . S
H810 C796 0.960 . S
H811 C797 0.961 . S
H812 C797 0.961 . S
H813 C797 0.961 . S
H814 C798 0.931 . S
H815 C803 0.930 . S
H816 C804 0.956 . S
H817 C804 0.961 . S
H818 C804 0.961 . S
H819 C805 0.958 . S
H820 C805 0.961 . S
H821 C805 0.960 . S
C822 C823 1.391 . S
C822 C824 1.394 . S
C822 H838 0.931 . S
C823 C822 1.391 . S
C823 C827 1.376 . S
C824 C822 1.394 . S
C824 C825 1.369 . S
C824 C828 1.531 . S
C825 C824 1.369 . S
C825 C826 1.410 . S
C825 C833 1.503 . S
C826 C825 1.410 . S
C826 C827 1.392 . S
C826 C829 1.511 . S
C827 C823 1.376 . S
C827 C826 1.392 . S
C827 H839 0.929 . S
C828 C824 1.531 . S
C828 H840 0.960 . S
C828 H841 0.962 . S
C828 H842 0.960 . S
C829 C826 1.511 . S
C829 H843 0.961 . S
C829 H844 0.961 . S
C829 H845 0.961 . S
C830 C831 1.370 . S
C830 C832 1.363 . S
C830 H846 0.931 . S
C831 C830 1.370 . S
C831 C835 1.408 . S
C832 C830 1.363 . S
C832 C833 1.370 . S
C832 C836 1.524 . S
C833 C825 1.503 . S
C833 C832 1.370 . S
C833 C834 1.403 . S
C834 C833 1.403 . S
C834 C835 1.404 . S
C834 C837 1.539 . S
C835 C831 1.408 . S
C835 C834 1.404 . S
C835 H847 0.930 . S
C836 C832 1.524 . S
C836 H848 0.956 . S
C836 H849 0.961 . S
C836 H850 0.961 . S
C837 C834 1.539 . S
C837 H851 0.958 . S
C837 H852 0.961 . S
C837 H853 0.960 . S
H838 C822 0.931 . S
H839 C827 0.929 . S
H840 C828 0.960 . S
H841 C828 0.962 . S
H842 C828 0.960 . S
H843 C829 0.961 . S
H844 C829 0.961 . S
H845 C829 0.961 . S
H846 C830 0.931 . S
H847 C835 0.930 . S
H848 C836 0.956 . S
H849 C836 0.961 . S
H850 C836 0.961 . S
H851 C837 0.958 . S
H852 C837 0.961 . S
H853 C837 0.960 . S
C854 C855 1.391 . S
C854 C856 1.394 . S
C854 H870 0.931 . S
C855 C854 1.391 . S
C855 C859 1.376 . S
C856 C854 1.394 . S
C856 C857 1.369 . S
C856 C860 1.531 . S
C857 C856 1.369 . S
C857 C858 1.410 . S
C857 C865 1.503 . S
C858 C857 1.410 . S
C858 C859 1.392 . S
C858 C861 1.511 . S
C859 C855 1.376 . S
C859 C858 1.392 . S
C859 H871 0.929 . S
C860 C856 1.531 . S
C860 H872 0.960 . S
C860 H873 0.962 . S
C860 H874 0.960 . S
C861 C858 1.511 . S
C861 H875 0.961 . S
C861 H876 0.961 . S
C861 H877 0.961 . S
C862 C863 1.370 . S
C862 C864 1.363 . S
C862 H878 0.931 . S
C863 C862 1.370 . S
C863 C867 1.408 . S
C864 C862 1.363 . S
C864 C865 1.370 . S
C864 C868 1.524 . S
C865 C857 1.503 . S
C865 C864 1.370 . S
C865 C866 1.403 . S
C866 C865 1.403 . S
C866 C867 1.404 . S
C866 C869 1.539 . S
C867 C863 1.408 . S
C867 C866 1.404 . S
C867 H879 0.930 . S
C868 C864 1.524 . S
C868 H880 0.956 . S
C868 H881 0.961 . S
C868 H882 0.961 . S
C869 C866 1.539 . S
C869 H883 0.958 . S
C869 H884 0.961 . S
C869 H885 0.960 . S
H870 C854 0.931 . S
H871 C859 0.929 . S
H872 C860 0.960 . S
H873 C860 0.962 . S
H874 C860 0.960 . S
H875 C861 0.961 . S
H876 C861 0.961 . S
H877 C861 0.961 . S
H878 C862 0.931 . S
H879 C867 0.930 . S
H880 C868 0.956 . S
H881 C868 0.961 . S
H882 C868 0.961 . S
H883 C869 0.958 . S
H884 C869 0.961 . S
H885 C869 0.960 . S
C886 C887 1.391 . S
C886 C888 1.394 . S
C886 H902 0.931 . S
C887 C886 1.391 . S
C887 C891 1.376 . S
C888 C886 1.394 . S
C888 C889 1.369 . S
C888 C892 1.531 . S
C889 C888 1.369 . S
C889 C890 1.410 . S
C889 C897 1.503 . S
C890 C889 1.410 . S
C890 C891 1.392 . S
C890 C893 1.511 . S
C891 C887 1.376 . S
C891 C890 1.392 . S
C891 H903 0.929 . S
C892 C888 1.531 . S
C892 H904 0.960 . S
C892 H905 0.962 . S
C892 H906 0.960 . S
C893 C890 1.511 . S
C893 H907 0.961 . S
C893 H908 0.961 . S
C893 H909 0.961 . S
C894 C895 1.370 . S
C894 C896 1.363 . S
C894 H910 0.931 . S
C895 C894 1.370 . S
C895 C899 1.408 . S
C896 C894 1.363 . S
C896 C897 1.370 . S
C896 C900 1.524 . S
C897 C889 1.503 . S
C897 C896 1.370 . S
C897 C898 1.403 . S
C898 C897 1.403 . S
C898 C899 1.404 . S
C898 C901 1.539 . S
C899 C895 1.408 . S
C899 C898 1.404 . S
C899 H911 0.930 . S
C900 C896 1.524 . S
C900 H912 0.956 . S
C900 H913 0.961 . S
C900 H914 0.961 . S
C901 C898 1.539 . S
C901 H915 0.958 . S
C901 H916 0.961 . S
C901 H917 0.960 . S
H902 C886 0.931 . S
H903 C891 0.929 . S
H904 C892 0.960 . S
H905 C892 0.962 . S
H906 C892 0.960 . S
H907 C893 0.961 . S
H908 C893 0.961 . S
H909 C893 0.961 . S
H910 C894 0.931 . S
H911 C899 0.930 . S
H912 C900 0.956 . S
H913 C900 0.961 . S
H914 C900 0.961 . S
H915 C901 0.958 . S
H916 C901 0.961 . S
H917 C901 0.960 . S
C918 C919 1.391 . S
C918 C920 1.394 . S
C918 H934 0.931 . S
C919 C918 1.391 . S
C919 C923 1.376 . S
C920 C918 1.394 . S
C920 C921 1.369 . S
C920 C924 1.531 . S
C921 C920 1.369 . S
C921 C922 1.410 . S
C921 C929 1.503 . S
C922 C921 1.410 . S
C922 C923 1.392 . S
C922 C925 1.511 . S
C923 C919 1.376 . S
C923 C922 1.392 . S
C923 H935 0.929 . S
C924 C920 1.531 . S
C924 H936 0.960 . S
C924 H937 0.962 . S
C924 H938 0.960 . S
C925 C922 1.511 . S
C925 H939 0.961 . S
C925 H940 0.961 . S
C925 H941 0.961 . S
C926 C927 1.370 . S
C926 C928 1.363 . S
C926 H942 0.931 . S
C927 C926 1.370 . S
C927 C931 1.408 . S
C928 C926 1.363 . S
C928 C929 1.370 . S
C928 C932 1.524 . S
C929 C921 1.503 . S
C929 C928 1.370 . S
C929 C930 1.403 . S
C930 C929 1.403 . S
C930 C931 1.404 . S
C930 C933 1.539 . S
C931 C927 1.408 . S
C931 C930 1.404 . S
C931 H943 0.930 . S
C932 C928 1.524 . S
C932 H944 0.956 . S
C932 H945 0.961 . S
C932 H946 0.961 . S
C933 C930 1.539 . S
C933 H947 0.958 . S
C933 H948 0.961 . S
C933 H949 0.960 . S
H934 C918 0.931 . S
H935 C923 0.929 . S
H936 C924 0.960 . S
H937 C924 0.962 . S
H938 C924 0.960 . S
H939 C925 0.961 . S
H940 C925 0.961 . S
H941 C925 0.961 . S
H942 C926 0.931 . S
H943 C931 0.930 . S
H944 C932 0.956 . S
H945 C932 0.961 . S
H946 C932 0.961 . S
H947 C933 0.958 . S
H948 C933 0.961 . S
H949 C933 0.960 . S
C950 C951 1.391 . S
C950 C952 1.394 . S
C950 H966 0.931 . S
C951 C950 1.391 . S
C951 C955 1.376 . S
C952 C950 1.394 . S
C952 C953 1.369 . S
C952 C956 1.531 . S
C953 C952 1.369 . S
C953 C954 1.410 . S
C953 C961 1.503 . S
C954 C953 1.410 . S
C954 C955 1.392 . S
C954 C957 1.511 . S
C955 C951 1.376 . S
C955 C954 1.392 . S
C955 H967 0.929 . S
C956 C952 1.531 . S
C956 H968 0.960 . S
C956 H969 0.962 . S
C956 H970 0.960 . S
C957 C954 1.511 . S
C957 H971 0.961 . S
C957 H972 0.961 . S
C957 H973 0.961 . S
C958 C959 1.370 . S
C958 C960 1.363 . S
C958 H974 0.931 . S
C959 C958 1.370 . S
C959 C963 1.408 . S
C960 C958 1.363 . S
C960 C961 1.370 . S
C960 C964 1.524 . S
C961 C953 1.503 . S
C961 C960 1.370 . S
C961 C962 1.403 . S
C962 C961 1.403 . S
C962 C963 1.404 . S
C962 C965 1.539 . S
C963 C959 1.408 . S
C963 C962 1.404 . S
C963 H975 0.930 . S
C964 C960 1.524 . S
C964 H976 0.956 . S
C964 H977 0.961 . S
C964 H978 0.961 . S
C965 C962 1.539 . S
C965 H979 0.958 . S
C965 H980 0.961 . S
C965 H981 0.960 . S
H966 C950 0.931 . S
H967 C955 0.929 . S
H968 C956 0.960 . S
H969 C956 0.962 . S
H970 C956 0.960 . S
H971 C957 0.961 . S
H972 C957 0.961 . S
H973 C957 0.961 . S
H974 C958 0.931 . S
H975 C963 0.930 . S
H976 C964 0.956 . S
H977 C964 0.961 . S
H978 C964 0.961 . S
H979 C965 0.958 . S
H980 C965 0.961 . S
H981 C965 0.960 . S
C982 C983 1.391 . S
C982 C984 1.394 . S
C982 H998 0.931 . S
C983 C982 1.391 . S
C983 C987 1.376 . S
C984 C982 1.394 . S
C984 C985 1.369 . S
C984 C988 1.531 . S
C985 C984 1.369 . S
C985 C986 1.410 . S
C985 C993 1.503 . S
C986 C985 1.410 . S
C986 C987 1.392 . S
C986 C989 1.511 . S
C987 C983 1.376 . S
C987 C986 1.392 . S
C987 H999 0.929 . S
C988 C984 1.531 . S
C988 H1000 0.960 . S
C988 H1001 0.962 . S
C988 H1002 0.960 . S
C989 C986 1.511 . S
C989 H1003 0.961 . S
C989 H1004 0.961 . S
C989 H1005 0.961 . S
C990 C991 1.370 . S
C990 C992 1.363 . S
C990 H1006 0.931 . S
C991 C990 1.370 . S
C991 C995 1.408 . S
C992 C990 1.363 . S
C992 C993 1.370 . S
C992 C996 1.524 . S
C993 C985 1.503 . S
C993 C992 1.370 . S
C993 C994 1.403 . S
C994 C993 1.403 . S
C994 C995 1.404 . S
C994 C997 1.539 . S
C995 C991 1.408 . S
C995 C994 1.404 . S
C995 H1007 0.930 . S
C996 C992 1.524 . S
C996 H1008 0.956 . S
C996 H1009 0.961 . S
C996 H1010 0.961 . S
C997 C994 1.539 . S
C997 H1011 0.958 . S
C997 H1012 0.961 . S
C997 H1013 0.960 . S
H998 C982 0.931 . S
H999 C987 0.929 . S
H1000 C988 0.960 . S
H1001 C988 0.962 . S
H1002 C988 0.960 . S
H1003 C989 0.961 . S
H1004 C989 0.961 . S
H1005 C989 0.961 . S
H1006 C990 0.931 . S
H1007 C995 0.930 . S
H1008 C996 0.956 . S
H1009 C996 0.961 . S
H1010 C996 0.961 . S
H1011 C997 0.958 . S
H1012 C997 0.961 . S
H1013 C997 0.960 . S
C247 C7 1.743 . S
C255 C152 1.683 . S
C279 C30 1.515 . S
C287 C163 1.465 . S
C319 C182 1.565 . S
C311 N58 1.597 . S
C351 C199 1.373 . S
C343 N81 1.338 . S
C383 C226 1.606 . S
C375 C99 1.644 . S
C415 C235 1.392 . S
C407 N127 1.396 . S
C439 N25 1.620 . S
C447 C188 1.563 . S
C471 C62 1.494 . S
C479 C208 1.474 . S
C511 C217 1.640 . S
C503 C85 1.703 . S
C543 C244 1.377 . S
C535 N94 1.429 . S
C567 C131 1.674 . S
C575 C146 1.631 . S
C607 C172 1.347 . S
C599 N2 1.377 . S
C639 C200 1.658 . S
C631 C16 1.767 . S
C663 C39 1.530 . S
C671 C224 1.478 . S
C703 C236 1.607 . S
C695 N48 1.639 . S
C727 N71 1.374 . S
C735 C154 1.363 . S
C759 C108 1.680 . S
C767 C164 1.620 . S
C791 N117 1.437 . S
C799 C181 1.407 . S
C823 N35 1.619 . S
C831 C242 1.618 . S
C863 C145 1.466 . S
C855 C53 1.568 . S
C887 C76 1.791 . S
C895 C170 1.682 . S
C919 N104 1.464 . S
C927 C190 1.356 . S
C951 C122 1.692 . S
C959 C206 1.611 . S
C983 N12 1.408 . S
C991 C218 1.346 . S
