# Generated by pormake.
# Topology pth, (4,4)-cn, num edge types: 1
# Building blocks:
#     Node 0, Type 0, BuildingBlock: TATPOV_clean_sbu_0, # of connection points: 4
#     Node 1, Type 0, BuildingBlock: TATPOV_clean_sbu_0, # of connection points: 4
#     Node 2, Type 0, BuildingBlock: TATPOV_clean_sbu_0, # of connection points: 4
#     Node 3, Type 1, BuildingBlock: MIFKUJ_clean_linker_1, # of connection points: 4
#     Node 4, Type 1, BuildingBlock: MIFKUJ_clean_linker_1, # of connection points: 4
#     Node 5, Type 1, BuildingBlock: MIFKUJ_clean_linker_1, # of connection points: 4
#     Edge 6, Type (0, 1), BuildingBlock: KIFKEQ_clean_linker_1, # of connection points: 2
#     Edge 7, Type (0, 1), BuildingBlock: KIFKEQ_clean_linker_1, # of connection points: 2
#     Edge 8, Type (0, 1), BuildingBlock: KIFKEQ_clean_linker_1, # of connection points: 2
#     Edge 9, Type (0, 1), BuildingBlock: KIFKEQ_clean_linker_1, # of connection points: 2
#     Edge 10, Type (0, 1), BuildingBlock: KIFKEQ_clean_linker_1, # of connection points: 2
#     Edge 11, Type (0, 1), BuildingBlock: KIFKEQ_clean_linker_1, # of connection points: 2
#     Edge 12, Type (0, 1), BuildingBlock: KIFKEQ_clean_linker_1, # of connection points: 2
#     Edge 13, Type (0, 1), BuildingBlock: KIFKEQ_clean_linker_1, # of connection points: 2
#     Edge 14, Type (0, 1), BuildingBlock: KIFKEQ_clean_linker_1, # of connection points: 2
#     Edge 15, Type (0, 1), BuildingBlock: KIFKEQ_clean_linker_1, # of connection points: 2
#     Edge 16, Type (0, 1), BuildingBlock: KIFKEQ_clean_linker_1, # of connection points: 2
#     Edge 17, Type (0, 1), BuildingBlock: KIFKEQ_clean_linker_1, # of connection points: 2
# Relax obj value: 0.038
# Max RMSD: 0.160
# Mean RMSD: 0.089
data_MOF--net-pth--node1-TATPOV_clean_sbu_0--node2-MIFKUJ_clean_linker_1--edge1-KIFKEQ_clean_linker_1
_symmetry_space_group_name_H-M    P1
_symmetry_Int_Tables_number       1
_symmetry_cell_setting            triclinic
loop_
_symmetry_equiv_pos_as_xyz
'x, y, z'
_cell_length_a     30.159018
_cell_length_b     29.894848
_cell_length_c     62.952288
_cell_angle_alpha  92.532385
_cell_angle_beta   92.149299
_cell_angle_gamma 120.8007
loop_
_atom_site_label
_atom_site_type_symbol
_atom_site_fract_x
_atom_site_fract_y
_atom_site_fract_z
_atom_type_partial_charge
Zn0 Zn 0.12035 0.00218 0.02221 0.0
Zn1 Zn 0.07935 0.05065 0.04309 0.0
O2 O 0.08754 0.00672 0.06572 0.0
O3 O 0.12402 0.96909 0.04892 0.0
O4 O 0.05765 0.09505 0.05947 0.0
O5 O 0.18065 0.06921 0.01386 0.0
O6 O 0.14388 0.10776 0.02958 0.0
C7 C 0.10566 0.97638 0.0656 0.0
C8 C 0.0168 0.97405 0.00554 0.0
O9 O 0.01956 0.00506 0.0208 0.0
O10 O 0.05433 0.96701 0.00289 0.0
C11 C 0.0219 0.07922 0.0723 0.0
O12 O 0.99466 0.02927 0.07545 0.0
C13 C 0.17981 0.11028 0.0187 0.0
Zn14 Zn 0.16494 0.11899 0.35235 0.0
Zn15 Zn 0.08352 0.0833 0.37619 0.0
O16 O 0.14532 0.0999 0.39711 0.0
O17 O 0.21356 0.13437 0.37815 0.0
O18 O 0.02666 0.06574 0.39597 0.0
O19 O 0.15281 0.17408 0.34137 0.0
O20 O 0.0841 0.14229 0.35999 0.0
C21 C 0.1939 0.12014 0.39581 0.0
C22 C 0.0829 0.01016 0.34139 0.0
O23 O 0.06003 0.01734 0.35663 0.0
O24 O 0.12687 0.04677 0.33681 0.0
C25 C 0.98076 0.05155 0.38922 0.0
O26 O 0.96898 0.04534 0.36857 0.0
C27 C 0.11305 0.17437 0.34691 0.0
Zn28 Zn 0.08964 0.92459 0.73432 0.0
Zn29 Zn 0.04275 0.95747 0.70801 0.0
O30 O 0.09075 0.94652 0.68851 0.0
O31 O 0.1298 0.91988 0.71032 0.0
O32 O 0.99792 0.9709 0.68789 0.0
O33 O 0.02311 0.86282 0.74223 0.0
O34 O 0.98589 0.89488 0.72251 0.0
C35 C 0.12356 0.93232 0.69196 0.0
C36 C 0.11007 0.02961 0.74582 0.0
O37 O 0.0829 0.02309 0.72867 0.0
O38 O 0.11722 0.9935 0.75153 0.0
C39 C 0.01065 0.01118 0.67778 0.0
O40 O 0.05865 0.05057 0.67994 0.0
C41 C 0.98251 0.86133 0.73518 0.0
H42 H 0.04211 0.48176 0.16459 0.0
H43 H 0.04515 0.41335 0.14317 0.0
H44 H 0.90988 0.29602 0.17185 0.0
H45 H 0.90668 0.36466 0.19312 0.0
H46 H 0.98106 0.51599 0.16738 0.0
H47 H 0.05048 0.45102 0.21517 0.0
H48 H 0.06779 0.39619 0.23731 0.0
H49 H 0.92489 0.34685 0.26741 0.0
H50 H 0.90797 0.40247 0.24517 0.0
H51 H 0.90978 0.59264 0.21252 0.0
H52 H 0.91184 0.66395 0.23414 0.0
H53 H 0.03048 0.6708 0.27719 0.0
H54 H 0.02888 0.60034 0.25547 0.0
H55 H 0.96419 0.50517 0.24533 0.0
H56 H 0.9278 0.56414 0.16146 0.0
H57 H 0.95148 0.64356 0.14345 0.0
H58 H 0.07964 0.73286 0.1904 0.0
H59 H 0.05687 0.65321 0.20782 0.0
C60 C 0.97435 0.4285 0.18059 0.0
C61 C 0.01274 0.44136 0.16612 0.0
C62 C 0.01444 0.40218 0.15387 0.0
C63 C 0.97779 0.34923 0.15583 0.0
C64 C 0.93908 0.3364 0.17018 0.0
C65 C 0.9372 0.37563 0.18234 0.0
C66 C 0.97352 0.47025 0.19405 0.0
C67 C 0.97692 0.51335 0.18439 0.0
C68 C 0.97055 0.46829 0.21642 0.0
C69 C 0.97758 0.43034 0.2283 0.0
C70 C 0.02224 0.4275 0.22617 0.0
C71 C 0.03211 0.39612 0.23889 0.0
C72 C 0.99768 0.36704 0.25413 0.0
C73 C 0.95245 0.36919 0.25599 0.0
C74 C 0.94257 0.40067 0.24321 0.0
C75 C 0.96951 0.5914 0.23225 0.0
C76 C 0.93624 0.60955 0.22661 0.0
C77 C 0.93735 0.65016 0.23898 0.0
C78 C 0.97122 0.67284 0.25738 0.0
C79 C 0.00338 0.65358 0.2633 0.0
C80 C 0.00258 0.61336 0.25085 0.0
C81 C 0.97072 0.55024 0.21863 0.0
C82 C 0.9672 0.50719 0.22824 0.0
C83 C 0.9775 0.55429 0.19652 0.0
C84 C 0.99021 0.60274 0.18611 0.0
C85 C 0.96089 0.60088 0.16788 0.0
C86 C 0.97423 0.6464 0.15773 0.0
C87 C 0.01741 0.69465 0.16552 0.0
C88 C 0.04644 0.69635 0.18387 0.0
C89 C 0.03314 0.65087 0.19398 0.0
H90 H 0.68077 0.12011 0.50894 0.0
H91 H 0.7443 0.1209 0.48556 0.0
H92 H 0.69661 0.96317 0.5 0.0
H93 H 0.63283 0.96234 0.52309 0.0
H94 H 0.57854 0.06127 0.50585 0.0
H95 H 0.71019 0.10007 0.55698 0.0
H96 H 0.78021 0.09759 0.57651 0.0
H97 H 0.67087 0.94342 0.59504 0.0
H98 H 0.60108 0.94543 0.57481 0.0
H99 H 0.45038 0.92894 0.5637 0.0
H100 H 0.3747 0.90802 0.58332 0.0
H101 H 0.42577 0.07237 0.59105 0.0
H102 H 0.49997 0.09233 0.5703 0.0
H103 H 0.56051 0.00368 0.57934 0.0
H104 H 0.42711 0.97946 0.52523 0.0
H105 H 0.36838 0.00019 0.5061 0.0
H106 H 0.4972 0.15352 0.49669 0.0
H107 H 0.55554 0.1335 0.51643 0.0
C108 C 0.65227 0.04131 0.51787 0.0
C109 C 0.68415 0.08579 0.50711 0.0
C110 C 0.7206 0.08629 0.49386 0.0
C111 C 0.72537 0.04205 0.49093 0.0
C112 C 0.69352 -0.00234 0.50179 0.0
C113 C 0.6574 -0.00267 0.51514 0.0
C114 C 0.61201 0.03965 0.53125 0.0
C115 C 0.57507 0.04954 0.52206 0.0
C116 C 0.60794 0.02501 0.55248 0.0
C117 C 0.65037 0.02268 0.56419 0.0
C118 C 0.70133 0.06539 0.56499 0.0
C119 C 0.7413 0.06419 0.57639 0.0
C120 C 0.73119 0.02034 0.58737 0.0
C121 C 0.68011 0.97754 0.58654 0.0
C122 C 0.64008 0.97879 0.57513 0.0
C123 C 0.48068 0.01211 0.56562 0.0
C124 C 0.44504 0.96036 0.56959 0.0
C125 C 0.4019 0.94857 0.58094 0.0
C126 C 0.39402 0.98847 0.58901 0.0
C127 C 0.42991 0.04044 0.58486 0.0
C128 C 0.47268 0.05209 0.57316 0.0
C129 C 0.52627 0.02375 0.55365 0.0
C130 C 0.56428 0.01575 0.56318 0.0
C131 C 0.53259 0.04261 0.53309 0.0
C132 C 0.49578 0.05515 0.52253 0.0
C133 C 0.44258 0.01802 0.51957 0.0
C134 C 0.40905 0.02979 0.50857 0.0
C135 C 0.42835 0.07842 0.49994 0.0
C136 C 0.48141 0.11563 0.50309 0.0
C137 C 0.51471 0.10418 0.51433 0.0
H138 H 0.47392 0.45366 0.83363 0.0
H139 H 0.40738 0.37256 0.81457 0.0
H140 H 0.28902 0.38877 0.84428 0.0
H141 H 0.35624 0.47131 0.86305 0.0
H142 H 0.49865 0.5489 0.83283 0.0
H143 H 0.45226 0.42777 0.88474 0.0
H144 H 0.40511 0.36188 0.9098 0.0
H145 H 0.35748 0.46188 0.93977 0.0
H146 H 0.40438 0.52766 0.91437 0.0
H147 H 0.59881 0.71128 0.87775 0.0
H148 H 0.67906 0.77998 0.89707 0.0
H149 H 0.68203 0.66443 0.93501 0.0
H150 H 0.60344 0.59622 0.91532 0.0
H151 H 0.51036 0.57495 0.9116 0.0
H152 H 0.5495 0.65384 0.82657 0.0
H153 H 0.62024 0.69569 0.80287 0.0
H154 H 0.71093 0.65138 0.84159 0.0
H155 H 0.63992 0.60887 0.86487 0.0
C156 C 0.42012 0.46856 0.8498 0.0
C157 C 0.43367 0.44017 0.83591 0.0
C158 C 0.39559 0.39353 0.82517 0.0
C159 C 0.34301 0.37411 0.82807 0.0
C160 C 0.32925 0.40297 0.84167 0.0
C161 C 0.36756 0.44983 0.85251 0.0
C162 C 0.46153 0.51725 0.86156 0.0
C163 C 0.50074 0.5551 0.85004 0.0
C164 C 0.46527 0.52444 0.88405 0.0
C165 C 0.43118 0.48228 0.8975 0.0
C166 C 0.4307 0.43505 0.89638 0.0
C167 C 0.40433 0.39774 0.91089 0.0
C168 C 0.378 0.40697 0.92685 0.0
C169 C 0.3772 0.45362 0.92756 0.0
C170 C 0.40394 0.49117 0.9131 0.0
C171 C 0.59521 0.64856 0.89501 0.0
C172 C 0.61692 0.70086 0.8902 0.0
C173 C 0.66248 0.74008 0.90135 0.0
C174 C 0.68702 0.72753 0.91746 0.0
C175 C 0.66455 0.67527 0.92247 0.0
C176 C 0.61925 0.63628 0.91136 0.0
C177 C 0.54807 0.60601 0.88291 0.0
C178 C 0.50735 0.56978 0.89433 0.0
C179 C 0.54495 0.59815 0.86045 0.0
C180 C 0.58974 0.62891 0.84764 0.0
C181 C 0.58494 0.65382 0.83007 0.0
C182 C 0.62536 0.67774 0.81659 0.0
C183 C 0.671 0.67652 0.82031 0.0
C184 C 0.67601 0.6524 0.83816 0.0
C185 C 0.63573 0.62873 0.85165 0.0
H186 H 0.07514 0.18522 0.07083 0.0
H187 H 0.94768 0.05991 0.10038 0.0
H188 H 0.06206 0.24857 0.09073 0.0
H189 H 0.93371 0.12352 0.11997 0.0
H190 H 0.96569 0.25791 0.1692 0.0
H191 H 0.9737 0.19152 0.14869 0.0
H192 H 0.00336 0.28 0.09309 0.0
H193 H 0.99591 0.34653 0.11369 0.0
C194 C 0.04399 0.17109 0.08145 0.0
C195 C 0.01248 0.11741 0.08401 0.0
C196 C 0.03627 0.2075 0.09278 0.0
C197 C 0.99671 0.19123 0.10693 0.0
C198 C 0.96493 0.13748 0.1094 0.0
C199 C 0.97274 0.10097 0.09808 0.0
C200 C 0.97337 0.26286 0.15254 0.0
C201 C 0.98044 0.30764 0.14311 0.0
C202 C 0.97789 0.22476 0.14076 0.0
C203 C 0.98943 0.23046 0.11924 0.0
C204 C 0.99545 0.27479 0.10973 0.0
C205 C 0.99113 0.31294 0.12152 0.0
H206 H 0.99678 0.07567 0.43229 0.0
H207 H 0.87785 0.01582 0.38063 0.0
H208 H 0.93482 0.07176 0.45706 0.0
H209 H 0.81597 0.01215 0.40547 0.0
H210 H 0.70893 0.96506 0.46101 0.0
H211 H 0.77024 0.96475 0.43679 0.0
H212 H 0.88723 0.11861 0.4633 0.0
H213 H 0.82616 0.11858 0.48775 0.0
C214 C 0.95736 0.06139 0.42622 0.0
C215 C 0.9423 0.04616 0.40445 0.0
C216 C 0.92198 0.0595 0.44041 0.0
C217 C 0.87062 0.04191 0.43319 0.0
C218 C 0.8552 0.02554 0.41153 0.0
C219 C 0.89072 0.02784 0.39729 0.0
C220 C 0.74788 -0.00138 0.46177 0.0
C221 C 0.76278 0.04183 0.4763 0.0
C222 C 0.78281 -0.00138 0.44778 0.0
C223 C 0.83354 0.04163 0.44815 0.0
C224 C 0.84854 0.08469 0.46278 0.0
C225 C 0.81347 0.08489 0.47664 0.0
H226 H 0.88835 0.85136 0.72555 0.0
H227 H 0.96309 0.79033 0.76473 0.0
H228 H 0.80917 0.80173 0.74378 0.0
H229 H 0.88462 0.74196 0.78324 0.0
H230 H 0.71087 0.76997 0.80224 0.0
H231 H 0.78208 0.80844 0.7789 0.0
H232 H 0.79598 0.67179 0.78097 0.0
H233 H 0.72525 0.63375 0.80451 0.0
C234 C 0.88774 0.82686 0.73785 0.0
C235 C 0.93224 0.82515 0.74378 0.0
C236 C 0.84247 0.79878 0.74842 0.0
C237 C 0.8407 0.76837 0.76516 0.0
C238 C 0.8844 0.76461 0.77032 0.0
C239 C 0.92957 0.79257 0.75974 0.0
C240 C 0.72882 0.74798 0.79751 0.0
C241 C 0.71282 0.6991 0.80538 0.0
C242 C 0.76948 0.76988 0.78406 0.0
C243 C 0.79486 0.74324 0.77808 0.0
C244 C 0.77789 0.69374 0.78553 0.0
C245 C 0.73742 0.67198 0.79905 0.0
H246 H 0.1517 0.91967 0.07256 0.0
H247 H 0.04682 0.96083 0.09984 0.0
H248 H 0.13305 0.85717 0.09923 0.0
H249 H 0.02861 0.89836 0.12688 0.0
H250 H 0.95559 0.7273 0.14744 0.0
H251 H 0.98164 0.80215 0.12618 0.0
H252 H 0.14164 0.84602 0.1369 0.0
H253 H 0.11551 0.77029 0.15748 0.0
C254 C 0.12535 0.91609 0.08451 0.0
C255 C 0.10048 0.94502 0.08395 0.0
C256 C 0.11485 0.88037 0.0999 0.0
C257 C 0.07907 0.87249 0.11512 0.0
C258 C 0.05588 0.90308 0.11519 0.0
C259 C 0.06666 0.93918 0.09982 0.0
C260 C 0.99632 0.75294 0.14526 0.0
C261 C 0.0334 0.74253 0.15403 0.0
C262 C 0.01133 0.79624 0.13331 0.0
C263 C 0.06374 0.83002 0.12979 0.0
C264 C 0.10092 0.82049 0.13913 0.0
C265 C 0.08595 0.77731 0.1511 0.0
H266 H 0.29752 0.18694 0.40391 0.0
H267 H 0.165 0.05739 0.429 0.0
H268 H 0.35411 0.1828 0.43132 0.0
H269 H 0.22166 0.05093 0.45569 0.0
H270 H 0.33473 0.06597 0.50903 0.0
H271 H 0.27817 0.0832 0.48642 0.0
H272 H 0.38758 0.12961 0.43755 0.0
H273 H 0.44449 0.11474 0.46055 0.0
C274 C 0.28051 0.15772 0.4154 0.0
C275 C 0.22694 0.12228 0.41424 0.0
C276 C 0.31297 0.15492 0.43101 0.0
C277 C 0.2928 0.11576 0.44553 0.0
C278 C 0.23877 0.0819 0.44496 0.0
C279 C 0.20617 0.08544 0.42959 0.0
C280 C 0.34654 0.08018 0.49348 0.0
C281 C 0.39401 0.08933 0.48655 0.0
C282 C 0.31413 0.08988 0.48046 0.0
C283 C 0.32819 0.10812 0.4601 0.0
C284 C 0.37583 0.11703 0.45329 0.0
C285 C 0.40844 0.10815 0.46641 0.0
H286 H 0.12919 0.12558 0.73471 0.0
H287 H 0.14763 0.04642 0.78707 0.0
H288 H 0.18064 0.20928 0.75581 0.0
H289 H 0.19748 0.12915 0.80813 0.0
H290 H 0.34589 0.28476 0.82478 0.0
H291 H 0.28412 0.20218 0.80555 0.0
H292 H 0.18724 0.26426 0.78817 0.0
H293 H 0.25053 0.34826 0.80706 0.0
C294 C 0.14341 0.12595 0.75082 0.0
C295 C 0.13518 0.07958 0.75909 0.0
C296 C 0.17266 0.17379 0.76292 0.0
C297 C 0.19384 0.17587 0.7835 0.0
C298 C 0.18281 0.12902 0.79214 0.0
C299 C 0.15408 0.08155 0.78007 0.0
C300 C 0.31154 0.28095 0.8168 0.0
C301 C 0.30324 0.32309 0.8173 0.0
C302 C 0.27578 0.23339 0.80597 0.0
C303 C 0.2306 0.22655 0.79541 0.0
C304 C 0.22184 0.26848 0.79606 0.0
C305 C 0.25777 0.31631 0.80701 0.0
H306 H 0.02258 0.09069 0.65379 0.0
H307 H 0.90864 0.9361 0.67033 0.0
H308 H 0.95644 0.09325 0.63112 0.0
H309 H 0.84272 0.93911 0.6481 0.0
H310 H 0.74865 0.93933 0.58998 0.0
H311 H 0.81738 0.9378 0.611 0.0
H312 H 0.87859 0.09829 0.63416 0.0
H313 H 0.80989 0.09982 0.61313 0.0
C314 C 0.9835 0.05733 0.65263 0.0
C315 C 0.97099 0.01321 0.66388 0.0
C316 C 0.94552 0.05889 0.63972 0.0
C317 C 0.89427 0.01633 0.63775 0.0
C318 C 0.88193 0.97224 0.64897 0.0
C319 C 0.91976 0.97069 0.66186 0.0
C320 C 0.77658 0.97418 0.59965 0.0
C321 C 0.77365 0.01964 0.5999 0.0
C322 C 0.81602 0.97334 0.6117 0.0
C323 C 0.85347 0.0179 0.62431 0.0
C324 C 0.85085 0.06352 0.62439 0.0
C325 C 0.81142 0.06437 0.61233 0.0
H326 H 0.92059 0.96024 0.01061 0.0
H327 H 0.00629 0.92165 0.9675 0.0
H328 H 0.8413 0.90448 0.98793 0.0
H329 H 0.92787 0.86747 0.94471 0.0
H330 H 0.77175 0.72058 0.92742 0.0
H331 H 0.85115 0.78422 0.9478 0.0
H332 H 0.79515 0.89124 0.95298 0.0
H333 H 0.71418 0.82615 0.93313 0.0
C334 C 0.92265 0.94051 0.99616 0.0
C335 C 0.96953 0.94473 0.99102 0.0
C336 C 0.87731 0.9088 0.98312 0.0
C337 C 0.87818 0.881 0.96467 0.0
C338 C 0.92562 0.88736 0.95907 0.0
C339 C 0.97065 0.91861 0.97212 0.0
C340 C 0.77616 0.75755 0.93299 0.0
C341 C 0.73651 0.76816 0.92882 0.0
C342 C 0.82201 0.79435 0.94446 0.0
C343 C 0.82961 0.84294 0.95195 0.0
C344 C 0.79027 0.854 0.94755 0.0
C345 C 0.74419 0.81699 0.93602 0.0
H346 H 0.11116 0.98942 0.30341 0.0
H347 H 0.00018 0.91599 0.35071 0.0
H348 H 0.07505 0.90584 0.28307 0.0
H349 H 0.96379 0.83166 0.3301 0.0
H350 H 0.97714 0.69029 0.30071 0.0
H351 H 0.99654 0.77077 0.32086 0.0
H352 H 0.99452 0.83889 0.26202 0.0
H353 H 0.97618 0.75892 0.24186 0.0
C354 C 0.07881 0.95545 0.30943 0.0
C355 C 0.05873 0.95931 0.32876 0.0
C356 C 0.05782 0.9076 0.29764 0.0
C357 C 0.01646 0.86229 0.30495 0.0
C358 C 0.99581 0.86602 0.32415 0.0
C359 C 0.01652 0.91423 0.33589 0.0
C360 C 0.98035 0.72232 0.29212 0.0
C361 C 0.97565 0.71854 0.26971 0.0
C362 C 0.99095 0.76816 0.30366 0.0
C363 C 0.99743 0.81119 0.29299 0.0
C364 C 0.99024 0.80647 0.27063 0.0
C365 C 0.97932 0.76056 0.25911 0.0
H366 H 0.12003 0.95218 0.6498 0.0
H367 H 0.20565 0.91826 0.69639 0.0
H368 H 0.18105 0.96136 0.62337 0.0
H369 H 0.26725 0.92954 0.67057 0.0
H370 H 0.35141 0.91299 0.61753 0.0
H371 H 0.28084 0.8934 0.63977 0.0
H372 H 0.26764 0.01861 0.61461 0.0
H373 H 0.33576 0.03552 0.59094 0.0
C374 C 0.15167 0.94647 0.65438 0.0
C375 C 0.15777 0.93432 0.67521 0.0
C376 C 0.18694 0.95217 0.63929 0.0
C377 C 0.22927 0.94621 0.64475 0.0
C378 C 0.23471 0.93338 0.66553 0.0
C379 C 0.19936 0.9272 0.68047 0.0
C380 C 0.33282 0.93568 0.61628 0.0
C381 C 0.34968 0.97599 0.60234 0.0
C382 C 0.29269 0.92494 0.62937 0.0
C383 C 0.26873 0.95479 0.62928 0.0
C384 C 0.28479 0.99446 0.61506 0.0
C385 C 0.32457 0.00477 0.60169 0.0
H386 H 0.25733 0.12721 0.99316 0.0
H387 H 0.18507 0.20468 0.0228 0.0
H388 H 0.30826 0.20285 0.97325 0.0
H389 H 0.23744 0.28138 0.00321 0.0
H390 H 0.28181 0.36998 0.94146 0.0
H391 H 0.23921 0.30322 0.96668 0.0
H392 H 0.37613 0.292 0.97449 0.0
H393 H 0.41807 0.35786 0.94898 0.0
C394 C 0.25307 0.16084 0.99579 0.0
C395 C 0.21672 0.15962 0.00945 0.0
C396 C 0.28256 0.20445 0.9844 0.0
C397 C 0.27669 0.24814 0.98647 0.0
C398 C 0.24222 0.24801 1.00096 0.0
C399 C 0.21255 0.20421 0.01233 0.0
C400 C 0.30288 0.35354 0.94875 0.0
C401 C 0.35297 0.3686 0.94305 0.0
C402 C 0.27863 0.31549 0.96329 0.0
C403 C 0.30414 0.29199 0.97256 0.0
C404 C 0.35496 0.30849 0.96736 0.0
C405 C 0.379 0.3462 0.95273 0.0
H406 H 0.02416 0.17745 0.35065 0.0
H407 H 0.16653 0.24673 0.31863 0.0
H408 H 0.994 0.22388 0.32895 0.0
H409 H 0.13649 0.29298 0.29722 0.0
H410 H 0.03936 0.30708 0.24398 0.0
H411 H 0.06739 0.26343 0.26808 0.0
H412 H 0.01265 0.31377 0.3211 0.0
H413 H 0.98513 0.35828 0.297 0.0
C414 C 0.04936 0.20318 0.33927 0.0
C415 C 0.09756 0.20798 0.33625 0.0
C416 C 0.03206 0.22973 0.32685 0.0
C417 C 0.06254 0.26131 0.31114 0.0
C418 C 0.11168 0.26799 0.30887 0.0
C419 C 0.12902 0.24174 0.32128 0.0
C420 C 0.03346 0.30907 0.26078 0.0
C421 C 0.01043 0.33658 0.26857 0.0
C422 C 0.04955 0.28409 0.27459 0.0
C423 C 0.04283 0.28579 0.29652 0.0
C424 C 0.01816 0.31167 0.30426 0.0
C425 C 0.00224 0.33696 0.29043 0.0
loop_
_geom_bond_atom_site_label_1
_geom_bond_atom_site_label_2
_geom_bond_distance
_geom_bond_site_symmetry_2
_ccdc_geom_bond_type
Zn0 O3 2.031 . S
Zn0 O5 2.065 1_565 S
Zn0 O10 2.067 . S
Zn1 O2 1.962 . S
Zn1 O4 1.986 . S
Zn1 O6 1.996 . S
Zn1 O9 1.943 . S
O2 Zn1 1.962 . S
O2 C7 1.254 1_545 S
O3 Zn0 2.031 . S
O3 C7 1.269 . S
O4 Zn1 1.986 . S
O4 C11 1.262 . S
O5 Zn0 2.065 1_545 S
O5 C13 1.275 . S
O6 Zn1 1.996 . S
O6 C13 1.257 . S
C7 O2 1.254 1_565 S
C7 O3 1.269 . S
C8 O9 1.249 1_565 S
C8 O10 1.270 . S
O9 Zn1 1.943 . S
O9 C8 1.249 1_545 S
O10 Zn0 2.067 . S
O10 C8 1.270 . S
C11 O4 1.262 . S
C11 O12 1.232 . S
O12 C11 1.232 . S
C13 O5 1.275 . S
C13 O6 1.257 . S
Zn14 O17 2.031 . S
Zn14 O19 2.049 . S
Zn14 O24 2.067 . S
Zn15 O16 1.962 . S
Zn15 O18 1.986 1_455 S
Zn15 O20 1.996 . S
Zn15 O23 1.943 1_455 S
O16 Zn15 1.962 . S
O16 C21 1.254 . S
O17 Zn14 2.031 . S
O17 C21 1.269 . S
O18 Zn15 1.986 1_655 S
O18 C25 1.262 . S
O19 Zn14 2.049 . S
O19 C27 1.260 . S
O20 Zn15 1.996 . S
O20 C27 1.257 . S
C21 O16 1.254 . S
C21 O17 1.269 . S
C22 O23 1.249 1_465 S
C22 O24 1.270 1_565 S
O23 Zn15 1.943 1_655 S
O23 C22 1.249 1_645 S
O24 Zn14 2.067 . S
O24 C22 1.270 1_545 S
C25 O18 1.262 . S
C25 O26 1.232 . S
O26 C25 1.232 . S
C27 O19 1.260 . S
C27 O20 1.257 . S
Zn28 O31 2.031 1_565 S
Zn28 O33 2.049 . S
Zn28 O38 2.067 1_565 S
Zn29 O30 1.962 1_545 S
Zn29 O32 1.986 1_445 S
Zn29 O34 1.996 1_445 S
Zn29 O37 1.943 . S
O30 Zn29 1.962 1_565 S
O30 C35 1.254 . S
O31 Zn28 2.031 1_545 S
O31 C35 1.269 1_545 S
O32 Zn29 1.986 1_665 S
O32 C39 1.262 1_565 S
O33 Zn28 2.049 . S
O33 C41 1.260 1_455 S
O34 Zn29 1.996 1_665 S
O34 C41 1.257 . S
C35 O30 1.254 . S
C35 O31 1.269 1_565 S
C36 O37 1.249 . S
C36 O38 1.270 . S
O37 Zn29 1.943 . S
O37 C36 1.249 . S
O38 Zn28 2.067 1_545 S
O38 C36 1.270 . S
C39 O32 1.262 1_545 S
C39 O40 1.232 1_655 S
O40 C39 1.232 1_455 S
C41 O33 1.260 1_655 S
C41 O34 1.257 . S
H42 C61 0.949 . S
H43 C62 0.950 . S
H44 C64 0.950 1_655 S
H45 C65 0.950 1_655 S
H46 C67 0.950 . S
H47 C70 0.950 . S
H48 C71 0.950 . S
H49 C73 0.951 . S
H50 C74 0.949 . S
H51 C76 0.949 . S
H52 C77 0.950 . S
H53 C79 0.950 . S
H54 C80 0.950 . S
H55 C82 0.950 . S
H56 C85 0.950 1_655 S
H57 C86 0.950 1_655 S
H58 C88 0.951 . S
H59 C89 0.949 . S
C60 C61 1.376 . S
C60 C65 1.386 . S
C60 C66 1.483 . S
C61 H42 0.949 . S
C61 C60 1.376 . S
C61 C62 1.397 . S
C62 H43 0.950 . S
C62 C61 1.397 . S
C62 C63 1.391 . S
C63 C62 1.391 . S
C63 C64 1.405 . S
C64 H44 0.950 1_455 S
C64 C63 1.405 . S
C64 C65 1.367 . S
C65 H45 0.950 1_455 S
C65 C60 1.386 . S
C65 C64 1.367 . S
C66 C60 1.483 . S
C66 C67 1.382 . S
C66 C68 1.403 . S
C67 H46 0.950 . S
C67 C66 1.382 . S
C67 C83 1.411 . S
C68 C66 1.403 . S
C68 C69 1.489 . S
C68 C82 1.411 . S
C69 C68 1.489 . S
C69 C70 1.383 . S
C69 C74 1.382 1_455 S
C70 H47 0.950 . S
C70 C69 1.383 . S
C70 C71 1.395 . S
C71 H48 0.950 . S
C71 C70 1.395 . S
C71 C72 1.288 . S
C72 C71 1.288 . S
C72 C73 1.392 1_455 S
C73 H49 0.951 . S
C73 C72 1.392 1_655 S
C73 C74 1.392 . S
C74 H50 0.949 . S
C74 C69 1.382 1_655 S
C74 C73 1.392 . S
C75 C76 1.376 1_455 S
C75 C80 1.386 . S
C75 C81 1.483 . S
C76 H51 0.949 . S
C76 C75 1.376 1_655 S
C76 C77 1.397 . S
C77 H52 0.950 . S
C77 C76 1.397 . S
C77 C78 1.391 1_655 S
C78 C77 1.391 1_455 S
C78 C79 1.405 . S
C79 H53 0.950 . S
C79 C78 1.405 . S
C79 C80 1.367 . S
C80 H54 0.950 . S
C80 C75 1.386 . S
C80 C79 1.367 . S
C81 C75 1.483 . S
C81 C82 1.382 . S
C81 C83 1.403 . S
C82 H55 0.950 . S
C82 C68 1.411 . S
C82 C81 1.382 . S
C83 C67 1.411 . S
C83 C81 1.403 . S
C83 C84 1.489 . S
C84 C83 1.489 . S
C84 C85 1.383 . S
C84 C89 1.382 . S
C85 H56 0.950 1_455 S
C85 C84 1.383 . S
C85 C86 1.395 . S
C86 H57 0.950 1_455 S
C86 C85 1.395 . S
C86 C87 1.288 . S
C87 C86 1.288 . S
C87 C88 1.392 . S
C88 H58 0.951 . S
C88 C87 1.392 . S
C88 C89 1.392 . S
C89 H59 0.949 . S
C89 C84 1.382 . S
C89 C88 1.392 . S
H90 C109 0.949 . S
H91 C110 0.950 . S
H92 C112 0.950 . S
H93 C113 0.950 . S
H94 C115 0.950 . S
H95 C118 0.950 . S
H96 C119 0.950 . S
H97 C121 0.951 . S
H98 C122 0.949 . S
H99 C124 0.949 . S
H100 C125 0.950 . S
H101 C127 0.950 . S
H102 C128 0.950 . S
H103 C130 0.950 . S
H104 C133 0.950 1_565 S
H105 C134 0.950 1_565 S
H106 C136 0.951 . S
H107 C137 0.949 . S
C108 C109 1.376 . S
C108 C113 1.386 1_545 S
C108 C114 1.483 . S
C109 H90 0.949 . S
C109 C108 1.376 . S
C109 C110 1.397 . S
C110 H91 0.950 . S
C110 C109 1.397 . S
C110 C111 1.391 . S
C111 C110 1.391 . S
C111 C112 1.405 1_545 S
C112 H92 0.950 . S
C112 C111 1.405 1_565 S
C112 C113 1.367 . S
C113 H93 0.950 . S
C113 C108 1.386 1_565 S
C113 C112 1.367 . S
C114 C108 1.483 . S
C114 C115 1.382 . S
C114 C116 1.403 . S
C115 H94 0.950 . S
C115 C114 1.382 . S
C115 C131 1.411 . S
C116 C114 1.403 . S
C116 C117 1.489 . S
C116 C130 1.411 . S
C117 C116 1.489 . S
C117 C118 1.383 . S
C117 C122 1.382 1_545 S
C118 H95 0.950 . S
C118 C117 1.383 . S
C118 C119 1.395 . S
C119 H96 0.950 . S
C119 C118 1.395 . S
C119 C120 1.288 . S
C120 C119 1.288 . S
C120 C121 1.392 1_545 S
C121 H97 0.951 . S
C121 C120 1.392 1_565 S
C121 C122 1.392 . S
C122 H98 0.949 . S
C122 C117 1.382 1_565 S
C122 C121 1.392 . S
C123 C124 1.376 1_545 S
C123 C128 1.386 . S
C123 C129 1.483 . S
C124 H99 0.949 . S
C124 C123 1.376 1_565 S
C124 C125 1.397 . S
C125 H100 0.950 . S
C125 C124 1.397 . S
C125 C126 1.391 1_565 S
C126 C125 1.391 1_545 S
C126 C127 1.405 . S
C127 H101 0.950 . S
C127 C126 1.405 . S
C127 C128 1.367 . S
C128 H102 0.950 . S
C128 C123 1.386 . S
C128 C127 1.367 . S
C129 C123 1.483 . S
C129 C130 1.382 . S
C129 C131 1.403 . S
C130 H103 0.950 . S
C130 C116 1.411 . S
C130 C129 1.382 . S
C131 C115 1.411 . S
C131 C129 1.403 . S
C131 C132 1.489 . S
C132 C131 1.489 . S
C132 C133 1.383 . S
C132 C137 1.382 . S
C133 H104 0.950 1_545 S
C133 C132 1.383 . S
C133 C134 1.395 . S
C134 H105 0.950 1_545 S
C134 C133 1.395 . S
C134 C135 1.288 . S
C135 C134 1.288 . S
C135 C136 1.392 . S
C136 H106 0.951 . S
C136 C135 1.392 . S
C136 C137 1.392 . S
C137 H107 0.949 . S
C137 C132 1.382 . S
C137 C136 1.392 . S
H138 C157 0.949 . S
H139 C158 0.950 . S
H140 C160 0.950 . S
H141 C161 0.950 . S
H142 C163 0.950 . S
H143 C166 0.950 . S
H144 C167 0.950 . S
H145 C169 0.951 . S
H146 C170 0.949 . S
H147 C172 0.949 . S
H148 C173 0.950 . S
H149 C175 0.950 . S
H150 C176 0.950 . S
H151 C178 0.950 . S
H152 C181 0.950 . S
H153 C182 0.950 . S
H154 C184 0.951 . S
H155 C185 0.949 . S
C156 C157 1.376 . S
C156 C161 1.386 . S
C156 C162 1.483 . S
C157 H138 0.949 . S
C157 C156 1.376 . S
C157 C158 1.397 . S
C158 H139 0.950 . S
C158 C157 1.397 . S
C158 C159 1.391 . S
C159 C158 1.391 . S
C159 C160 1.405 . S
C160 H140 0.950 . S
C160 C159 1.405 . S
C160 C161 1.367 . S
C161 H141 0.950 . S
C161 C156 1.386 . S
C161 C160 1.367 . S
C162 C156 1.483 . S
C162 C163 1.382 . S
C162 C164 1.403 . S
C163 H142 0.950 . S
C163 C162 1.382 . S
C163 C179 1.411 . S
C164 C162 1.403 . S
C164 C165 1.489 . S
C164 C178 1.411 . S
C165 C164 1.489 . S
C165 C166 1.383 . S
C165 C170 1.382 . S
C166 H143 0.950 . S
C166 C165 1.383 . S
C166 C167 1.395 . S
C167 H144 0.950 . S
C167 C166 1.395 . S
C167 C168 1.288 . S
C168 C167 1.288 . S
C168 C169 1.392 . S
C169 H145 0.951 . S
C169 C168 1.392 . S
C169 C170 1.392 . S
C170 H146 0.949 . S
C170 C165 1.382 . S
C170 C169 1.392 . S
C171 C172 1.376 . S
C171 C176 1.386 . S
C171 C177 1.483 . S
C172 H147 0.949 . S
C172 C171 1.376 . S
C172 C173 1.397 . S
C173 H148 0.950 . S
C173 C172 1.397 . S
C173 C174 1.391 . S
C174 C173 1.391 . S
C174 C175 1.405 . S
C175 H149 0.950 . S
C175 C174 1.405 . S
C175 C176 1.367 . S
C176 H150 0.950 . S
C176 C171 1.386 . S
C176 C175 1.367 . S
C177 C171 1.483 . S
C177 C178 1.382 . S
C177 C179 1.403 . S
C178 H151 0.950 . S
C178 C164 1.411 . S
C178 C177 1.382 . S
C179 C163 1.411 . S
C179 C177 1.403 . S
C179 C180 1.489 . S
C180 C179 1.489 . S
C180 C181 1.383 . S
C180 C185 1.382 . S
C181 H152 0.950 . S
C181 C180 1.383 . S
C181 C182 1.395 . S
C182 H153 0.950 . S
C182 C181 1.395 . S
C182 C183 1.288 . S
C183 C182 1.288 . S
C183 C184 1.392 . S
C184 H154 0.951 . S
C184 C183 1.392 . S
C184 C185 1.392 . S
C185 H155 0.949 . S
C185 C180 1.382 . S
C185 C184 1.392 . S
H186 C194 0.950 . S
H187 C199 0.950 1_655 S
H188 C196 0.950 . S
H189 C198 0.950 1_655 S
H190 C200 0.950 . S
H191 C202 0.950 . S
H192 C204 0.950 . S
H193 C205 0.950 . S
C194 H186 0.950 . S
C194 C195 1.386 . S
C194 C196 1.391 . S
C195 C194 1.386 . S
C195 C199 1.393 . S
C196 H188 0.950 . S
C196 C194 1.391 . S
C196 C197 1.400 . S
C197 C196 1.400 . S
C197 C198 1.398 . S
C197 C203 1.491 . S
C198 H189 0.950 1_455 S
C198 C197 1.398 . S
C198 C199 1.391 . S
C199 H187 0.950 1_455 S
C199 C195 1.393 . S
C199 C198 1.391 . S
C200 H190 0.950 . S
C200 C201 1.386 . S
C200 C202 1.391 . S
C201 C200 1.386 . S
C201 C205 1.393 . S
C202 H191 0.950 . S
C202 C200 1.391 . S
C202 C203 1.400 . S
C203 C197 1.491 . S
C203 C202 1.400 . S
C203 C204 1.398 . S
C204 H192 0.950 . S
C204 C203 1.398 . S
C204 C205 1.391 . S
C205 H193 0.950 . S
C205 C201 1.393 . S
C205 C204 1.391 . S
H206 C214 0.950 . S
H207 C219 0.950 1_565 S
H208 C216 0.950 . S
H209 C218 0.950 1_565 S
H210 C220 0.950 1_565 S
H211 C222 0.950 1_565 S
H212 C224 0.950 . S
H213 C225 0.950 . S
C214 H206 0.950 . S
C214 C215 1.386 . S
C214 C216 1.391 . S
C215 C214 1.386 . S
C215 C219 1.393 . S
C216 H208 0.950 . S
C216 C214 1.391 . S
C216 C217 1.400 . S
C217 C216 1.400 . S
C217 C218 1.398 . S
C217 C223 1.491 . S
C218 H209 0.950 1_545 S
C218 C217 1.398 . S
C218 C219 1.391 . S
C219 H207 0.950 1_545 S
C219 C215 1.393 . S
C219 C218 1.391 . S
C220 H210 0.950 1_545 S
C220 C221 1.386 . S
C220 C222 1.391 . S
C221 C220 1.386 . S
C221 C225 1.393 . S
C222 H211 0.950 1_545 S
C222 C220 1.391 . S
C222 C223 1.400 . S
C223 C217 1.491 . S
C223 C222 1.400 . S
C223 C224 1.398 . S
C224 H212 0.950 . S
C224 C223 1.398 . S
C224 C225 1.391 . S
C225 H213 0.950 . S
C225 C221 1.393 . S
C225 C224 1.391 . S
H226 C234 0.950 . S
H227 C239 0.950 . S
H228 C236 0.950 . S
H229 C238 0.950 . S
H230 C240 0.950 . S
H231 C242 0.950 . S
H232 C244 0.950 . S
H233 C245 0.950 . S
C234 H226 0.950 . S
C234 C235 1.386 . S
C234 C236 1.391 . S
C235 C234 1.386 . S
C235 C239 1.393 . S
C236 H228 0.950 . S
C236 C234 1.391 . S
C236 C237 1.400 . S
C237 C236 1.400 . S
C237 C238 1.398 . S
C237 C243 1.491 . S
C238 H229 0.950 . S
C238 C237 1.398 . S
C238 C239 1.391 . S
C239 H227 0.950 . S
C239 C235 1.393 . S
C239 C238 1.391 . S
C240 H230 0.950 . S
C240 C241 1.386 . S
C240 C242 1.391 . S
C241 C240 1.386 . S
C241 C245 1.393 . S
C242 H231 0.950 . S
C242 C240 1.391 . S
C242 C243 1.400 . S
C243 C237 1.491 . S
C243 C242 1.400 . S
C243 C244 1.398 . S
C244 H232 0.950 . S
C244 C243 1.398 . S
C244 C245 1.391 . S
C245 H233 0.950 . S
C245 C241 1.393 . S
C245 C244 1.391 . S
H246 C254 0.950 . S
H247 C259 0.965 . S
H248 C256 0.950 . S
H249 C258 0.950 . S
H250 C260 0.950 . S
H251 C262 0.950 . S
H252 C264 0.950 . S
H253 C265 0.950 . S
C254 H246 0.950 . S
C254 C255 1.386 . S
C254 C256 1.391 . S
C255 C254 1.386 . S
C255 C259 1.393 . S
C256 H248 0.950 . S
C256 C254 1.391 . S
C256 C257 1.400 . S
C257 C256 1.400 . S
C257 C258 1.398 . S
C257 C263 1.491 . S
C258 H249 0.950 . S
C258 C257 1.398 . S
C258 C259 1.391 . S
C259 H247 0.965 . S
C259 C255 1.393 . S
C259 C258 1.391 . S
C260 H250 0.950 . S
C260 C261 1.386 . S
C260 C262 1.391 . S
C261 C260 1.386 . S
C261 C265 1.393 . S
C262 H251 0.950 . S
C262 C260 1.391 . S
C262 C263 1.400 . S
C263 C257 1.491 . S
C263 C262 1.400 . S
C263 C264 1.398 . S
C264 H252 0.950 . S
C264 C263 1.398 . S
C264 C265 1.391 . S
C265 H253 0.950 . S
C265 C261 1.393 . S
C265 C264 1.391 . S
H266 C274 0.950 . S
H267 C279 0.950 . S
H268 C276 0.950 . S
H269 C278 0.950 . S
H270 C280 0.950 . S
H271 C282 0.950 . S
H272 C284 0.950 . S
H273 C285 0.950 . S
C274 H266 0.950 . S
C274 C275 1.386 . S
C274 C276 1.391 . S
C275 C274 1.386 . S
C275 C279 1.393 . S
C276 H268 0.950 . S
C276 C274 1.391 . S
C276 C277 1.400 . S
C277 C276 1.400 . S
C277 C278 1.398 . S
C277 C283 1.491 . S
C278 H269 0.950 . S
C278 C277 1.398 . S
C278 C279 1.391 . S
C279 H267 0.950 . S
C279 C275 1.393 . S
C279 C278 1.391 . S
C280 H270 0.950 . S
C280 C281 1.386 . S
C280 C282 1.391 . S
C281 C280 1.386 . S
C281 C285 1.393 . S
C282 H271 0.950 . S
C282 C280 1.391 . S
C282 C283 1.400 . S
C283 C277 1.491 . S
C283 C282 1.400 . S
C283 C284 1.398 . S
C284 H272 0.950 . S
C284 C283 1.398 . S
C284 C285 1.391 . S
C285 H273 0.950 . S
C285 C281 1.393 . S
C285 C284 1.391 . S
H286 C294 0.950 . S
H287 C299 0.950 . S
H288 C296 0.950 . S
H289 C298 0.950 . S
H290 C300 0.950 . S
H291 C302 0.950 . S
H292 C304 0.950 . S
H293 C305 0.950 . S
C294 H286 0.950 . S
C294 C295 1.386 . S
C294 C296 1.391 . S
C295 C294 1.386 . S
C295 C299 1.393 . S
C296 H288 0.950 . S
C296 C294 1.391 . S
C296 C297 1.400 . S
C297 C296 1.400 . S
C297 C298 1.398 . S
C297 C303 1.491 . S
C298 H289 0.950 . S
C298 C297 1.398 . S
C298 C299 1.391 . S
C299 H287 0.950 . S
C299 C295 1.393 . S
C299 C298 1.391 . S
C300 H290 0.950 . S
C300 C301 1.386 . S
C300 C302 1.391 . S
C301 C300 1.386 . S
C301 C305 1.393 . S
C302 H291 0.950 . S
C302 C300 1.391 . S
C302 C303 1.400 . S
C303 C297 1.491 . S
C303 C302 1.400 . S
C303 C304 1.398 . S
C304 H292 0.950 . S
C304 C303 1.398 . S
C304 C305 1.391 . S
C305 H293 0.950 . S
C305 C301 1.393 . S
C305 C304 1.391 . S
H306 C314 0.950 . S
H307 C319 0.950 1_565 S
H308 C316 0.950 . S
H309 C318 0.950 1_565 S
H310 C320 0.950 . S
H311 C322 0.950 . S
H312 C324 0.950 . S
H313 C325 0.950 . S
C314 H306 0.950 . S
C314 C315 1.386 . S
C314 C316 1.391 . S
C315 C314 1.386 . S
C315 C319 1.393 . S
C316 H308 0.950 . S
C316 C314 1.391 . S
C316 C317 1.400 . S
C317 C316 1.400 . S
C317 C318 1.398 . S
C317 C323 1.491 . S
C318 H309 0.950 1_545 S
C318 C317 1.398 . S
C318 C319 1.391 . S
C319 H307 0.950 1_545 S
C319 C315 1.393 . S
C319 C318 1.391 . S
C320 H310 0.950 . S
C320 C321 1.386 1_565 S
C320 C322 1.391 . S
C321 C320 1.386 1_545 S
C321 C325 1.393 . S
C322 H311 0.950 . S
C322 C320 1.391 . S
C322 C323 1.400 1_565 S
C323 C317 1.491 . S
C323 C322 1.400 1_545 S
C323 C324 1.398 . S
C324 H312 0.950 . S
C324 C323 1.398 . S
C324 C325 1.391 . S
C325 H313 0.950 . S
C325 C321 1.393 . S
C325 C324 1.391 . S
H326 C334 0.950 . S
H327 C339 0.950 . S
H328 C336 0.950 . S
H329 C338 0.950 . S
H330 C340 0.950 . S
H331 C342 0.950 . S
H332 C344 0.950 . S
H333 C345 0.950 . S
C334 H326 0.950 . S
C334 C335 1.386 . S
C334 C336 1.391 1_554 S
C335 C334 1.386 . S
C335 C339 1.393 1_554 S
C336 H328 0.950 . S
C336 C334 1.391 1_556 S
C336 C337 1.400 . S
C337 C336 1.400 . S
C337 C338 1.398 . S
C337 C343 1.491 . S
C338 H329 0.950 . S
C338 C337 1.398 . S
C338 C339 1.391 . S
C339 H327 0.950 . S
C339 C335 1.393 1_556 S
C339 C338 1.391 . S
C340 H330 0.950 . S
C340 C341 1.386 . S
C340 C342 1.391 . S
C341 C340 1.386 . S
C341 C345 1.393 . S
C342 H331 0.950 . S
C342 C340 1.391 . S
C342 C343 1.400 . S
C343 C337 1.491 . S
C343 C342 1.400 . S
C343 C344 1.398 . S
C344 H332 0.950 . S
C344 C343 1.398 . S
C344 C345 1.391 . S
C345 H333 0.950 . S
C345 C341 1.393 . S
C345 C344 1.391 . S
H346 C354 0.950 . S
H347 C359 0.950 . S
H348 C356 0.950 . S
H349 C358 0.950 . S
H350 C360 0.950 . S
H351 C362 0.950 . S
H352 C364 0.950 . S
H353 C365 0.957 . S
C354 H346 0.950 . S
C354 C355 1.386 1_655 S
C354 C356 1.391 . S
C355 C354 1.386 1_455 S
C355 C359 1.393 . S
C356 H348 0.950 . S
C356 C354 1.391 . S
C356 C357 1.400 1_655 S
C357 C356 1.400 1_455 S
C357 C358 1.398 . S
C357 C363 1.491 . S
C358 H349 0.950 . S
C358 C357 1.398 . S
C358 C359 1.391 . S
C359 H347 0.950 . S
C359 C355 1.393 . S
C359 C358 1.391 . S
C360 H350 0.950 . S
C360 C361 1.386 . S
C360 C362 1.391 . S
C361 C360 1.386 . S
C361 C365 1.375 1_455 S
C362 H351 0.950 . S
C362 C360 1.391 . S
C362 C363 1.400 . S
C363 C357 1.491 . S
C363 C362 1.400 . S
C363 C364 1.398 1_455 S
C364 H352 0.950 . S
C364 C363 1.398 1_655 S
C364 C365 1.401 . S
C365 H353 0.957 . S
C365 C361 1.375 1_655 S
C365 C364 1.401 . S
H366 C374 0.937 . S
H367 C379 0.949 1_565 S
H368 C376 0.950 . S
H369 C378 0.950 . S
H370 C380 0.950 . S
H371 C382 0.950 . S
H372 C384 0.950 . S
H373 C385 0.950 . S
C374 H366 0.937 . S
C374 C375 1.386 1_545 S
C374 C376 1.391 . S
C375 C374 1.386 1_565 S
C375 C379 1.393 1_565 S
C376 H368 0.950 . S
C376 C374 1.391 . S
C376 C377 1.400 . S
C377 C376 1.400 . S
C377 C378 1.398 . S
C377 C383 1.491 . S
C378 H369 0.950 . S
C378 C377 1.398 . S
C378 C379 1.391 . S
C379 H367 0.949 1_545 S
C379 C375 1.393 1_545 S
C379 C378 1.391 . S
C380 H370 0.950 . S
C380 C381 1.386 . S
C380 C382 1.391 . S
C381 C380 1.386 . S
C381 C385 1.393 . S
C382 H371 0.950 . S
C382 C380 1.391 . S
C382 C383 1.400 . S
C383 C377 1.491 . S
C383 C382 1.400 . S
C383 C384 1.398 . S
C384 H372 0.950 . S
C384 C383 1.398 . S
C384 C385 1.391 . S
C385 H373 0.950 . S
C385 C381 1.393 . S
C385 C384 1.391 . S
H386 C394 0.950 . S
H387 C399 0.944 1_554 S
H388 C396 0.950 . S
H389 C398 0.950 . S
H390 C400 0.950 . S
H391 C402 0.950 . S
H392 C404 0.950 . S
H393 C405 0.950 . S
C394 H386 0.950 . S
C394 C395 1.386 1_556 S
C394 C396 1.391 . S
C395 C394 1.386 1_554 S
C395 C399 1.391 1_554 S
C396 H388 0.950 . S
C396 C394 1.391 . S
C396 C397 1.400 . S
C397 C396 1.400 . S
C397 C398 1.398 . S
C397 C403 1.491 . S
C398 H389 0.950 . S
C398 C397 1.398 . S
C398 C399 1.398 . S
C399 H387 0.944 1_556 S
C399 C395 1.391 1_556 S
C399 C398 1.398 . S
C400 H390 0.950 . S
C400 C401 1.386 . S
C400 C402 1.391 . S
C401 C400 1.386 . S
C401 C405 1.393 . S
C402 H391 0.950 . S
C402 C400 1.391 . S
C402 C403 1.400 . S
C403 C397 1.491 . S
C403 C402 1.400 . S
C403 C404 1.398 . S
C404 H392 0.950 . S
C404 C403 1.398 . S
C404 C405 1.391 . S
C405 H393 0.950 . S
C405 C401 1.393 . S
C405 C404 1.391 . S
H406 C414 0.950 1_655 S
H407 C419 0.950 . S
H408 C416 0.950 1_655 S
H409 C418 0.950 . S
H410 C420 0.950 . S
H411 C422 0.950 . S
H412 C424 0.950 1_655 S
H413 C425 0.950 1_655 S
C414 H406 0.950 1_455 S
C414 C415 1.386 . S
C414 C416 1.391 . S
C415 C414 1.386 . S
C415 C419 1.393 . S
C416 H408 0.950 1_455 S
C416 C414 1.391 . S
C416 C417 1.400 . S
C417 C416 1.400 . S
C417 C418 1.398 . S
C417 C423 1.491 . S
C418 H409 0.950 . S
C418 C417 1.398 . S
C418 C419 1.391 . S
C419 H407 0.950 . S
C419 C415 1.393 . S
C419 C418 1.391 . S
C420 H410 0.950 . S
C420 C421 1.386 . S
C420 C422 1.391 . S
C421 C420 1.386 . S
C421 C425 1.393 . S
C422 H411 0.950 . S
C422 C420 1.391 . S
C422 C423 1.400 . S
C423 C417 1.491 . S
C423 C422 1.400 . S
C423 C424 1.398 . S
C424 H412 0.950 1_455 S
C424 C423 1.398 . S
C424 C425 1.391 . S
C425 H413 0.950 1_455 S
C425 C421 1.393 . S
C425 C424 1.391 . S
C201 C63 1.347 . S
C195 C11 1.341 . S
C215 C25 1.400 . S
C221 C111 1.414 . S
C235 C41 1.386 . S
C241 C183 1.460 . S
C255 C7 1.363 . S
C261 C87 1.363 . S
C281 C135 1.427 . S
C275 C21 1.429 . S
C295 C36 1.411 . S
C301 C159 1.479 . S
C321 C120 1.405 . S
C315 C39 1.394 . S
C335 C8 1.423 1_655 S
C341 C174 1.467 . S
C361 C78 1.512 . S
C355 C22 1.443 . S
C381 C126 1.419 . S
C375 C35 1.416 . S
C401 C168 1.446 . S
C395 C13 1.391 . S
C415 C27 1.442 . S
C421 C72 1.493 . S
