# Generated by pormake.
# Topology anh, (6,3)-cn, num edge types: 1
# Building blocks:
#     Node 0, Type 0, BuildingBlock: BETDEL_clean_sbu_0, # of connection points: 6
#     Node 1, Type 0, BuildingBlock: BETDEL_clean_sbu_0, # of connection points: 6
#     Node 2, Type 0, BuildingBlock: BETDEL_clean_sbu_0, # of connection points: 6
#     Node 3, Type 1, BuildingBlock: PAMTOO_clean_linker_0, # of connection points: 3
#     Node 4, Type 1, BuildingBlock: PAMTOO_clean_linker_0, # of connection points: 3
#     Node 5, Type 1, BuildingBlock: PAMTOO_clean_linker_0, # of connection points: 3
#     Node 6, Type 1, BuildingBlock: PAMTOO_clean_linker_0, # of connection points: 3
#     Node 7, Type 1, BuildingBlock: PAMTOO_clean_linker_0, # of connection points: 3
#     Node 8, Type 1, BuildingBlock: PAMTOO_clean_linker_0, # of connection points: 3
#     Edge 9, Type (0, 1), BuildingBlock: MIFKUJ_clean_linker_0, # of connection points: 2
#     Edge 10, Type (0, 1), BuildingBlock: MIFKUJ_clean_linker_0, # of connection points: 2
#     Edge 11, Type (0, 1), BuildingBlock: MIFKUJ_clean_linker_0, # of connection points: 2
#     Edge 12, Type (0, 1), BuildingBlock: MIFKUJ_clean_linker_0, # of connection points: 2
#     Edge 13, Type (0, 1), BuildingBlock: MIFKUJ_clean_linker_0, # of connection points: 2
#     Edge 14, Type (0, 1), BuildingBlock: MIFKUJ_clean_linker_0, # of connection points: 2
#     Edge 15, Type (0, 1), BuildingBlock: MIFKUJ_clean_linker_0, # of connection points: 2
#     Edge 16, Type (0, 1), BuildingBlock: MIFKUJ_clean_linker_0, # of connection points: 2
#     Edge 17, Type (0, 1), BuildingBlock: MIFKUJ_clean_linker_0, # of connection points: 2
#     Edge 18, Type (0, 1), BuildingBlock: MIFKUJ_clean_linker_0, # of connection points: 2
#     Edge 19, Type (0, 1), BuildingBlock: MIFKUJ_clean_linker_0, # of connection points: 2
#     Edge 20, Type (0, 1), BuildingBlock: MIFKUJ_clean_linker_0, # of connection points: 2
#     Edge 21, Type (0, 1), BuildingBlock: MIFKUJ_clean_linker_0, # of connection points: 2
#     Edge 22, Type (0, 1), BuildingBlock: MIFKUJ_clean_linker_0, # of connection points: 2
#     Edge 23, Type (0, 1), BuildingBlock: MIFKUJ_clean_linker_0, # of connection points: 2
#     Edge 24, Type (0, 1), BuildingBlock: MIFKUJ_clean_linker_0, # of connection points: 2
#     Edge 25, Type (0, 1), BuildingBlock: MIFKUJ_clean_linker_0, # of connection points: 2
#     Edge 26, Type (0, 1), BuildingBlock: MIFKUJ_clean_linker_0, # of connection points: 2
# Relax obj value: 0.086
# Max RMSD: 0.132
# Mean RMSD: 0.100
data_MOF--net-anh--node1-BETDEL_clean_sbu_0--node2-PAMTOO_clean_linker_0--edge1-MIFKUJ_clean_linker_0
_symmetry_space_group_name_H-M    P1
_symmetry_Int_Tables_number       1
_symmetry_cell_setting            triclinic
loop_
_symmetry_equiv_pos_as_xyz
'x, y, z'
_cell_length_a     38.73449
_cell_length_b     38.589262
_cell_length_c     62.502715
_cell_angle_alpha  85.597421
_cell_angle_beta   92.148049
_cell_angle_gamma 119.9118
loop_
_atom_site_label
_atom_site_type_symbol
_atom_site_fract_x
_atom_site_fract_y
_atom_site_fract_z
_atom_type_partial_charge
Dy0 Dy 0.06494 0.50902 0.16638 0.0
C1 C 0.971 0.58144 0.17979 0.0
C2 C 0.11306 0.48056 0.15522 0.0
Dy3 Dy 0.02173 0.55506 0.16991 0.0
O4 O 0.0933 0.47093 0.17303 0.0
O5 O 0.10642 0.50573 0.14332 0.0
O6 O 0.04546 0.4806 0.19965 0.0
O7 O 0.0564 0.53907 0.19217 0.0
C8 C 0.04344 0.51054 0.20634 0.0
C9 C 0.04536 0.55469 0.13027 0.0
O10 O 0.08253 0.60352 0.17889 0.0
O11 O 0.11573 0.57373 0.16544 0.0
O12 O 0.98907 0.5887 0.16156 0.0
O13 O 0.98124 0.56028 0.19283 0.0
O14 O 0.04563 0.58542 0.13755 0.0
O15 O 0.03034 0.5251 0.14387 0.0
O16 O 1.00336 0.45923 0.15963 0.0
O17 O 0.97164 0.4906 0.1727 0.0
C18 C 0.11591 0.60527 0.17287 0.0
C19 C 0.97069 0.45809 0.16631 0.0
Dy20 Dy 0.54582 0.05811 0.4991 0.0
C21 C 0.71268 0.15511 0.52109 0.0
C22 C 0.46855 1.00507 0.49066 0.0
Dy23 Dy 0.64024 0.10812 0.50349 0.0
O24 O 0.48701 1.00525 0.50845 0.0
O25 O 0.49231 0.03426 0.47726 0.0
O26 O 0.54117 0.07886 0.53091 0.0
O27 O 0.58981 0.07132 0.52459 0.0
C28 C 0.57524 0.0836 0.53779 0.0
C29 C 0.61836 0.09939 0.4619 0.0
O30 O 0.62981 0.0454 0.50933 0.0
O31 O 0.56438 1.01154 0.49671 0.0
O32 O 0.70527 0.12808 0.50762 0.0
O33 O 0.68036 0.15576 0.52512 0.0
O34 O 0.65537 0.11879 0.46801 0.0
O35 O 0.59686 0.08715 0.47838 0.0
O36 O 0.55534 0.12002 0.49156 0.0
O37 O 0.62166 0.15517 0.50289 0.0
C38 C 0.59779 1.01221 0.50334 0.0
C39 C 0.58783 0.15374 0.49647 0.0
Dy40 Dy 0.63308 0.62447 0.82959 0.0
C41 C 0.56604 0.45305 0.86205 0.0
C42 C 0.65691 0.69698 0.80833 0.0
Dy43 Dy 0.59081 0.52718 0.84248 0.0
O44 O 0.67885 0.68907 0.82187 0.0
O45 O 0.62264 0.66491 0.80596 0.0
O46 O 0.63719 0.642 0.864 0.0
O47 O 0.61452 0.58321 0.85717 0.0
C48 C 0.62158 0.60532 0.87226 0.0
C49 C 0.60215 0.54634 0.79967 0.0
O50 O 0.54044 0.53961 0.84706 0.0
O51 O 0.5673 0.6035 0.82912 0.0
O52 O 0.54476 0.46233 0.84874 0.0
O53 O 0.60018 0.4848 0.86524 0.0
O54 O 0.58688 0.50984 0.80803 0.0
O55 O 0.60959 0.56856 0.81474 0.0
O56 O 0.68425 0.61237 0.82675 0.0
O57 O 0.65644 0.54895 0.84525 0.0
C58 C 0.53716 0.57075 0.83866 0.0
C59 C 0.68725 0.5817 0.8362 0.0
H60 H 0.60966 0.11404 0.23619 0.0
H61 H 0.50611 0.99741 0.23196 0.0
H62 H 0.57568 0.06023 0.17546 0.0
H63 H 0.48484 1.00175 0.16422 0.0
C64 C 0.47811 0.99039 0.1813 0.0
O65 O 0.51231 0.99367 0.19099 0.0
H66 H 0.46862 1.00955 0.18885 0.0
C67 C 0.58915 0.08971 0.22663 0.0
C68 C 0.5965 0.09195 0.20456 0.0
C69 C 0.55688 0.05585 0.23674 0.0
C70 C 0.53128 0.02371 0.22447 0.0
C71 C 0.53764 0.02531 0.2024 0.0
C72 C 0.57061 0.05925 0.19247 0.0
H73 H 0.59674 0.65383 0.56971 0.0
H74 H 0.59719 0.54349 0.56399 0.0
H75 H 0.59291 0.61186 0.50742 0.0
H76 H 0.55551 0.52039 0.49931 0.0
C77 C 0.56348 0.51379 0.51578 0.0
O78 O 0.59718 0.54771 0.52233 0.0
H79 H 0.53786 0.50598 0.52647 0.0
C80 C 0.5952 0.63106 0.55997 0.0
C81 C 0.59302 0.63627 0.53756 0.0
C82 C 0.59645 0.59777 0.5699 0.0
C83 C 0.59664 0.56969 0.55686 0.0
C84 C 0.59569 0.57478 0.53442 0.0
C85 C 0.59401 0.6082 0.52474 0.0
H86 H 0.03156 0.56297 0.90367 0.0
H87 H 0.14698 0.57409 0.89821 0.0
H88 H 0.08464 0.58226 0.8413 0.0
H89 H 0.13616 0.5415 0.83443 0.0
C90 C 0.15217 0.55007 0.84997 0.0
O91 O 0.15011 0.58259 0.85645 0.0
H92 H 0.13693 0.52386 0.86179 0.0
C93 C 0.05568 0.56677 0.89369 0.0
C94 C 0.05351 0.57237 0.87128 0.0
C95 C 0.0892 0.56757 0.90353 0.0
C96 C 0.12104 0.57366 0.89078 0.0
C97 C 0.1193 0.5782 0.86837 0.0
C98 C 0.08576 0.57825 0.8586 0.0
H99 H 1.00086 0.49962 0.43681 0.0
H100 H 0.09002 0.6247 0.43089 0.0
H101 H 0.04472 0.56691 0.49301 0.0
H102 H 0.0668 0.65585 0.4901 0.0
C103 C 0.08275 0.66273 0.47456 0.0
O104 O 0.09361 0.63432 0.47191 0.0
H105 H 0.0623 0.66271 0.46152 0.0
C106 C 1.02017 0.52764 0.44405 0.0
C107 C 1.01969 0.52915 0.4664 0.0
C108 C 0.04551 0.56182 0.43102 0.0
C109 C 0.07003 0.59796 0.44059 0.0
C110 C 0.06944 0.59966 0.46286 0.0
C111 C 0.04468 0.56528 0.47577 0.0
H112 H 0.6866 0.07728 0.75206 0.0
H113 H 0.65059 0.16002 0.77036 0.0
H114 H 0.65677 0.0766 0.81769 0.0
H115 H 0.59056 0.09374 0.82708 0.0
C116 C 0.60068 0.11986 0.81517 0.0
O117 O 0.64059 0.13489 0.81091 0.0
H118 H 0.58253 0.10962 0.80033 0.0
C119 C 0.67862 0.09045 0.76433 0.0
C120 C 0.67392 0.07417 0.78556 0.0
C121 C 0.66983 0.12109 0.75851 0.0
C122 C 0.65758 0.13642 0.77447 0.0
C123 C 0.65316 0.12052 0.79577 0.0
C124 C 0.66105 0.08927 0.80128 0.0
H125 H 0.61994 0.52363 0.10189 0.0
H126 H 0.49717 0.49395 0.10046 0.0
H127 H 0.55338 0.49285 0.16078 0.0
H128 H 0.46268 0.42664 0.16003 0.0
C129 C 0.4578 0.43972 0.14453 0.0
O130 O 0.48683 0.47956 0.14196 0.0
H131 H 0.45917 0.42237 0.13145 0.0
C132 C 0.59234 0.51429 0.11027 0.0
C133 C 0.59099 0.50918 0.13279 0.0
C134 C 0.55874 0.50911 0.09851 0.0
C135 C 0.52341 0.49825 0.10936 0.0
C136 C 0.52143 0.49168 0.13173 0.0
C137 C 0.55521 0.49761 0.14345 0.0
H138 H 0.12896 0.42889 0.17947 0.0
H139 H 0.18351 0.41556 0.1747 0.0
H140 H 0.21802 0.49177 0.11617 0.0
H141 H 0.16355 0.50569 0.12108 0.0
H142 H 0.22324 0.41894 0.11516 0.0
H143 H 0.26556 0.53289 0.15726 0.0
H144 H 0.25985 0.56872 0.18673 0.0
H145 H 0.26454 0.48283 0.23291 0.0
H146 H 0.26965 0.44612 0.20366 0.0
H147 H 0.4251 0.4635 0.11136 0.0
H148 H 0.3622 0.46414 0.11082 0.0
H149 H 0.33723 0.40927 0.1754 0.0
H150 H 0.40088 0.41001 0.17617 0.0
H151 H 0.32575 0.47043 0.17233 0.0
H152 H 0.2861 0.35741 0.13046 0.0
H153 H 0.29096 0.32091 0.10108 0.0
H154 H 0.28084 0.40337 0.05466 0.0
H155 H 0.27644 0.4407 0.08377 0.0
C156 C 0.14777 0.44228 0.1654 0.0
C157 C 0.14231 0.46843 0.15064 0.0
C158 C 0.17883 0.43461 0.16269 0.0
C159 C 0.20486 0.45298 0.1452 0.0
C160 C 0.1981 0.47729 0.12974 0.0
C161 C 0.16709 0.48519 0.13254 0.0
C162 C 0.24118 0.44975 0.1443 0.0
C163 C 0.24596 0.43051 0.12748 0.0
C164 C 0.27025 0.46429 0.16065 0.0
C165 C 0.26757 0.48653 0.17827 0.0
C166 C 0.26504 0.52146 0.17369 0.0
C167 C 0.26196 0.54195 0.19035 0.0
C168 C 0.26172 0.528 0.21168 0.0
C169 C 0.26467 0.49357 0.21638 0.0
C170 C 0.26768 0.47292 0.19977 0.0
C171 C 0.40593 0.45134 0.12533 0.0
C172 C 0.41771 0.43687 0.14383 0.0
C173 C 0.36993 0.45142 0.12498 0.0
C174 C 0.34477 0.43635 0.14299 0.0
C175 C 0.35617 0.42102 0.16131 0.0
C176 C 0.3924 0.42134 0.16175 0.0
C177 C 0.30792 0.43902 0.14329 0.0
C178 C 0.30307 0.45851 0.16 0.0
C179 C 0.27886 0.42458 0.12685 0.0
C180 C 0.28131 0.40207 0.10931 0.0
C181 C 0.28521 0.36794 0.11399 0.0
C182 C 0.28783 0.34707 0.09738 0.0
C183 C 0.28632 0.35987 0.07601 0.0
C184 C 0.28206 0.39351 0.07122 0.0
C185 C 0.27945 0.41451 0.08776 0.0
H186 H 0.28836 0.34368 0.06318 0.0
H187 H 0.25934 0.54391 0.22456 0.0
H188 H 0.78374 0.15949 0.51357 0.0
H189 H 0.84956 0.21977 0.51432 0.0
H190 H 0.79673 0.28361 0.53967 0.0
H191 H 0.7317 0.22338 0.53977 0.0
H192 H 0.86456 0.28135 0.48921 0.0
H193 H 0.86092 0.36555 0.56238 0.0
H194 H 0.84212 0.34987 0.60061 0.0
H195 H 0.8603 0.24872 0.60195 0.0
H196 H 0.87978 0.26405 0.56381 0.0
H197 H 0.94033 0.48051 0.46135 0.0
H198 H 0.89833 0.41456 0.47942 0.0
H199 H 0.99768 0.42836 0.51887 0.0
H200 H 0.03985 0.49512 0.50097 0.0
H201 H 0.92365 0.38772 0.54089 0.0
H202 H 0.98122 0.37905 0.47658 0.0
H203 H 1.0003 0.39606 0.43839 0.0
H204 H 0.87716 0.3436 0.42039 0.0
H205 H 0.85735 0.32687 0.4585 0.0
C206 C 0.78659 0.18601 0.52008 0.0
C207 C 0.75278 0.18703 0.52645 0.0
C208 C 0.82412 0.22041 0.52048 0.0
C209 C 0.82818 0.25626 0.5271 0.0
C210 C 0.79468 0.25621 0.53497 0.0
C211 C 0.75736 0.22177 0.53484 0.0
C212 C 0.86489 0.29501 0.52209 0.0
C213 C 0.87797 0.30426 0.50069 0.0
C214 C 0.88276 0.32494 0.53705 0.0
C215 C 0.8718 0.31598 0.56017 0.0
C216 C 0.86132 0.34019 0.57086 0.0
C217 C 0.85047 0.33132 0.59253 0.0
C218 C 0.85007 0.29836 0.60371 0.0
C219 C 0.86063 0.27425 0.59327 0.0
C220 C 0.8715 0.28297 0.57161 0.0
C221 C 0.95298 0.46972 0.47412 0.0
C222 C 0.9933 0.49244 0.47964 0.0
C223 C 0.92905 0.43217 0.48443 0.0
C224 C 0.94522 0.41639 0.50014 0.0
C225 C 0.9848 0.44006 0.50671 0.0
C226 C 1.00877 0.47802 0.49651 0.0
C227 C 0.92143 0.3739 0.50799 0.0
C228 C 0.91092 0.36422 0.52975 0.0
C229 C 0.90613 0.34327 0.49346 0.0
C230 C 0.91782 0.35178 0.47043 0.0
C231 C 0.95821 0.3712 0.46448 0.0
C232 C 0.96916 0.38084 0.44285 0.0
C233 C 0.93996 0.37094 0.42697 0.0
C234 C 0.89974 0.35121 0.4327 0.0
C235 C 0.88863 0.34158 0.45432 0.0
H236 H 0.9485 0.37852 0.41023 0.0
H237 H 0.84148 0.29144 0.62045 0.0
H238 H 0.60402 0.71889 0.79272 0.0
H239 H 0.61451 0.78647 0.78702 0.0
H240 H 0.73959 0.83491 0.80127 0.0
H241 H 0.72839 0.76666 0.80843 0.0
H242 H 0.71577 0.87234 0.82169 0.0
H243 H 0.70077 0.8428 0.74858 0.0
H244 H 0.67113 0.80409 0.71676 0.0
H245 H 0.56401 0.80855 0.72545 0.0
H246 H 0.59277 0.84683 0.7575 0.0
H247 H 0.73923 0.06746 0.77841 0.0
H248 H 0.74364 1.00587 0.7817 0.0
H249 H 0.62301 0.93942 0.80539 0.0
H250 H 0.61884 1.00104 0.8027 0.0
H251 H 0.65328 0.9168 0.76338 0.0
H252 H 0.67135 0.94135 0.84014 0.0
H253 H 0.70639 0.98376 0.87006 0.0
H254 H 0.81621 0.99351 0.85058 0.0
H255 H 0.78185 0.95162 0.82032 0.0
C256 C 0.63393 0.74393 0.7942 0.0
C257 C 0.66544 0.73764 0.80096 0.0
C258 C 0.64 0.78271 0.79081 0.0
C259 C 0.67802 0.8161 0.79338 0.0
C260 C 0.70997 0.80974 0.79919 0.0
C261 C 0.70366 0.7708 0.80312 0.0
C262 C 0.68336 0.85718 0.79179 0.0
C263 C 0.70272 0.88218 0.80866 0.0
C264 C 0.66629 0.87039 0.7749 0.0
C265 C 0.64888 0.84751 0.75554 0.0
C266 C 0.6708 0.83532 0.74379 0.0
C267 C 0.65416 0.81348 0.7257 0.0
C268 C 0.61569 0.80382 0.71911 0.0
C269 C 0.59381 0.81606 0.73057 0.0
C270 C 0.61029 0.83789 0.74868 0.0
C271 C 0.71406 0.03981 0.78477 0.0
C272 C 0.67881 0.03882 0.79047 0.0
C273 C 0.71657 1.00481 0.78659 0.0
C274 C 0.68364 0.96836 0.79377 0.0
C275 C 0.64874 0.96745 0.79991 0.0
C276 C 0.64648 1.00257 0.79852 0.0
C277 C 0.68455 0.93066 0.79344 0.0
C278 C 0.66659 0.90669 0.77616 0.0
C279 C 0.70363 0.91883 0.80962 0.0
C280 C 0.72416 0.94386 0.82782 0.0
C281 C 0.70305 0.95294 0.84209 0.0
C282 C 0.72276 0.97678 0.85915 0.0
C283 C 0.76353 0.99145 0.86217 0.0
C284 C 0.78465 0.9822 0.84819 0.0
C285 C 0.76507 0.95841 0.83109 0.0
H286 H 0.77874 1.00988 0.87539 0.0
H287 H 0.60286 0.78689 0.7051 0.0
H288 H 0.92537 0.56149 0.21584 0.0
H289 H 0.8608 0.55834 0.2182 0.0
H290 H 0.8751 0.61019 0.15319 0.0
H291 H 0.93989 0.6147 0.1511 0.0
H292 H 0.83395 0.63268 0.17512 0.0
H293 H 0.82823 0.50429 0.16494 0.0
H294 H 0.84116 0.44912 0.17608 0.0
H295 H 0.78093 0.42995 0.23585 0.0
H296 H 0.76745 0.48497 0.22492 0.0
H297 H 0.64167 0.48187 0.12529 0.0
H298 H 0.70521 0.49984 0.14292 0.0
H299 H 0.68607 0.57173 0.18538 0.0
H300 H 0.62231 0.55402 0.16757 0.0
H301 H 0.72664 0.49061 0.18433 0.0
H302 H 0.78094 0.65681 0.19102 0.0
H303 H 0.76801 0.7099 0.17521 0.0
H304 H 0.73197 0.65134 0.11612 0.0
H305 H 0.74517 0.59827 0.13149 0.0
C306 C 0.91518 0.57334 0.20233 0.0
C307 C 0.9372 0.58777 0.18317 0.0
C308 C 0.87825 0.57136 0.20365 0.0
C309 C 0.86267 0.58312 0.18569 0.0
C310 C 0.88638 0.60081 0.16725 0.0
C311 C 0.92339 0.60322 0.16602 0.0
C312 C 0.82013 0.57224 0.18465 0.0
C313 C 0.81039 0.60174 0.17757 0.0
C314 C 0.78927 0.53186 0.18771 0.0
C315 C 0.7973 0.4989 0.19425 0.0
C316 C 0.81793 0.48836 0.18049 0.0
C317 C 0.82533 0.45713 0.18676 0.0
C318 C 0.81216 0.43621 0.20675 0.0
C319 C 0.79124 0.44627 0.22042 0.0
C320 C 0.78363 0.4774 0.21417 0.0
C321 C 0.65088 0.50127 0.13848 0.0
C322 C 0.62731 0.51681 0.14498 0.0
C323 C 0.68698 0.51126 0.14864 0.0
C324 C 0.70036 0.53725 0.16537 0.0
C325 C 0.67627 0.55175 0.17244 0.0
C326 C 0.63988 0.54149 0.16234 0.0
C327 C 0.74075 0.55083 0.17417 0.0
C328 C 0.74998 0.52179 0.18273 0.0
C329 C 0.77115 0.59146 0.17202 0.0
C330 C 0.76349 0.62335 0.16252 0.0
C331 C 0.77029 0.65535 0.17465 0.0
C332 C 0.76294 0.68542 0.16576 0.0
C333 C 0.74901 0.6839 0.14471 0.0
C334 C 0.74258 0.6524 0.13246 0.0
C335 C 0.74995 0.6223 0.14126 0.0
H336 H 0.74331 0.70719 0.13787 0.0
H337 H 0.81801 0.41213 0.21167 0.0
H338 H 0.41823 0.94504 0.51826 0.0
H339 H 0.35174 0.89042 0.51096 0.0
H340 H 0.35912 0.94001 0.44592 0.0
H341 H 0.4263 0.99547 0.45324 0.0
H342 H 0.28404 0.91147 0.46581 0.0
H343 H 0.37307 0.86444 0.45251 0.0
H344 H 0.42973 0.853 0.45975 0.0
H345 H 0.37179 0.77979 0.51673 0.0
H346 H 0.31503 0.79132 0.51004 0.0
H347 H 0.115 0.71969 0.4411 0.0
H348 H 0.17979 0.7818 0.44008 0.0
H349 H 0.19964 0.75606 0.50634 0.0
H350 H 0.13489 0.69419 0.50739 0.0
H351 H 0.26252 0.77363 0.47932 0.0
H352 H 0.17697 0.82739 0.49393 0.0
H353 H 0.12094 0.83978 0.48651 0.0
H354 H 0.1728 0.90001 0.42571 0.0
H355 H 0.22892 0.88748 0.43266 0.0
C356 C 0.40566 0.94455 0.50244 0.0
C357 C 0.42739 0.97422 0.48625 0.0
C358 C 0.36773 0.91329 0.49828 0.0
C359 C 0.35089 0.91094 0.47783 0.0
C360 C 0.37183 0.94133 0.46178 0.0
C361 C 0.41005 0.97282 0.46595 0.0
C362 C 0.3119 0.87573 0.47343 0.0
C363 C 0.27937 0.88129 0.46829 0.0
C364 C 0.306 0.83648 0.47685 0.0
C365 C 0.33986 0.82897 0.48083 0.0
C366 C 0.37251 0.84612 0.46667 0.0
C367 C 0.40464 0.8396 0.47066 0.0
C368 C 0.4044 0.81574 0.4887 0.0
C369 C 0.37195 0.79827 0.50276 0.0
C370 C 0.33975 0.80475 0.49886 0.0
C371 C 0.13294 0.72789 0.45553 0.0
C372 C 0.11987 0.70287 0.47448 0.0
C373 C 0.16985 0.76316 0.45491 0.0
C374 C 0.19427 0.7735 0.47317 0.0
C375 C 0.18109 0.74858 0.49212 0.0
C376 C 0.14415 0.71353 0.49277 0.0
C377 C 0.23442 0.80933 0.47242 0.0
C378 C 0.26724 0.80378 0.4765 0.0
C379 C 0.24052 0.84846 0.46785 0.0
C380 C 0.20687 0.85608 0.4637 0.0
C381 C 0.17624 0.84295 0.4789 0.0
C382 C 0.1445 0.85007 0.4748 0.0
C383 C 0.14324 0.87056 0.45562 0.0
C384 C 0.17378 0.88408 0.44054 0.0
C385 C 0.20556 0.877 0.44455 0.0
H386 H 0.11865 0.87605 0.45248 0.0
H387 H 0.42932 0.81075 0.49177 0.0
H388 H 0.61536 0.43019 0.88254 0.0
H389 H 0.61269 0.36602 0.8802 0.0
H390 H 0.49766 0.31875 0.84966 0.0
H391 H 0.50065 0.38332 0.85151 0.0
H392 H 0.56816 0.28637 0.88997 0.0
H393 H 0.50028 0.27489 0.80538 0.0
H394 H 0.49272 0.31859 0.77687 0.0
H395 H 0.59904 0.42029 0.79837 0.0
H396 H 0.60754 0.37708 0.82676 0.0
H397 H 0.54864 0.11123 0.8464 0.0
H398 H 0.53565 0.16238 0.85884 0.0
H399 H 0.6245 0.251 0.81483 0.0
H400 H 0.63633 0.19966 0.80184 0.0
H401 H 0.56324 0.26007 0.8131 0.0
H402 H 0.64126 0.24421 0.87039 0.0
H403 H 0.65848 0.20744 0.89881 0.0
H404 H 0.54872 0.17097 0.93137 0.0
H405 H 0.53062 0.20713 0.90298 0.0
C406 C 0.58889 0.4057 0.87599 0.0
C407 C 0.55854 0.41187 0.86683 0.0
C408 C 0.58737 0.36899 0.87469 0.0
C409 C 0.55544 0.33797 0.86427 0.0
C410 C 0.52291 0.34259 0.85742 0.0
C411 C 0.52456 0.37942 0.85857 0.0
C412 C 0.55926 0.30393 0.85764 0.0
C413 C 0.56663 0.28023 0.8732 0.0
C414 C 0.55851 0.29677 0.83569 0.0
C415 C 0.55423 0.32282 0.81832 0.0
C416 C 0.52211 0.30654 0.80394 0.0
C417 C 0.51767 0.33123 0.78782 0.0
C418 C 0.5453 0.37221 0.78586 0.0
C419 C 0.57759 0.38857 0.79994 0.0
C420 C 0.58222 0.36399 0.81605 0.0
C421 C 0.5656 0.14175 0.83957 0.0
C422 C 0.5943 0.15178 0.82362 0.0
C423 C 0.55824 0.17096 0.84671 0.0
C424 C 0.57958 0.21076 0.83805 0.0
C425 C 0.60779 0.22059 0.82185 0.0
C426 C 0.61482 0.19134 0.81456 0.0
C427 C 0.5721 0.24216 0.84543 0.0
C428 C 0.5641 0.26554 0.82994 0.0
C429 C 0.5736 0.24977 0.86738 0.0
C430 C 0.58439 0.22799 0.88444 0.0
C431 C 0.62065 0.22807 0.88352 0.0
C432 C 0.6306 0.2074 0.89964 0.0
C433 C 0.60466 0.18678 0.91685 0.0
C434 C 0.56875 0.18689 0.91801 0.0
C435 C 0.55864 0.20749 0.90192 0.0
H436 H 0.61242 0.1708 0.92932 0.0
H437 H 0.54175 0.39128 0.7734 0.0
H438 H 0.65909 0.99908 0.51679 0.0
H439 H 0.6601 0.93601 0.51882 0.0
H440 H 0.53987 0.87513 0.49468 0.0
H441 H 0.53874 0.93799 0.49233 0.0
H442 H 0.61733 0.86763 0.54183 0.0
H443 H 0.52504 0.79708 0.46641 0.0
H444 H 0.51141 0.81869 0.43045 0.0
H445 H 0.62466 0.92704 0.43075 0.0
H446 H 0.63917 0.90586 0.46659 0.0
H447 H 0.54269 0.6609 0.55015 0.0
H448 H 0.54507 0.72457 0.54056 0.0
H449 H 0.63851 0.75597 0.49491 0.0
H450 H 0.63646 0.69185 0.50466 0.0
H451 H 0.58174 0.78092 0.48073 0.0
H452 H 0.66582 0.79161 0.54129 0.0
H453 H 0.68064 0.76971 0.57684 0.0
H454 H 0.58982 0.7842 0.6053 0.0
H455 H 0.57397 0.80552 0.56984 0.0
C456 C 0.63288 0.97237 0.51179 0.0
C457 C 0.59887 0.97392 0.50435 0.0
C458 C 0.63349 0.93619 0.51301 0.0
C459 C 0.60025 0.90066 0.50669 0.0
C460 C 0.56622 0.9021 0.4993 0.0
C461 C 0.56557 0.93822 0.49808 0.0
C462 C 0.6007 0.86194 0.50847 0.0
C463 C 0.60967 0.84887 0.5284 0.0
C464 C 0.59111 0.83729 0.49097 0.0
C465 C 0.58303 0.84999 0.46925 0.0
C466 C 0.54712 0.82542 0.45875 0.0
C467 C 0.53922 0.83762 0.43841 0.0
C468 C 0.56711 0.87426 0.42835 0.0
C469 C 0.60303 0.89872 0.43859 0.0
C470 C 0.61108 0.88665 0.45893 0.0
C471 C 0.56343 0.68107 0.53784 0.0
C472 C 0.5898 0.6715 0.52839 0.0
C473 C 0.56473 0.7175 0.53236 0.0
C474 C 0.59243 0.74545 0.51728 0.0
C475 C 0.61696 0.73494 0.50665 0.0
C476 C 0.6157 0.69825 0.51218 0.0
C477 C 0.59758 0.78655 0.51415 0.0
C478 C 0.58961 0.79994 0.49405 0.0
C479 C 0.6084 0.81174 0.53144 0.0
C480 C 0.61853 0.7999 0.55288 0.0
C481 C 0.64886 0.78992 0.55511 0.0
C482 C 0.65745 0.77761 0.57524 0.0
C483 C 0.63614 0.7755 0.59331 0.0
C484 C 0.60629 0.78583 0.59129 0.0
C485 C 0.59751 0.79806 0.57118 0.0
H486 H 0.6428 0.76592 0.60888 0.0
H487 H 0.56092 0.88367 0.41261 0.0
H488 H 0.75901 0.63931 0.81765 0.0
H489 H 0.82347 0.64133 0.82011 0.0
H490 H 0.76965 0.53024 0.85929 0.0
H491 H 0.70577 0.52802 0.85704 0.0
H492 H 0.83857 0.58354 0.87647 0.0
H493 H 0.79338 0.53527 0.80596 0.0
H494 H 0.7707 0.53894 0.76889 0.0
H495 H 0.87996 0.64859 0.75479 0.0
H496 H 0.90307 0.64585 0.79189 0.0
H497 H 0.97573 0.5172 0.87956 0.0
H498 H 0.91675 0.52245 0.86999 0.0
H499 H 0.98964 0.63345 0.83296 0.0
H500 H 0.04919 0.62803 0.84243 0.0
H501 H 0.91599 0.58863 0.81365 0.0
H502 H 0.96271 0.63707 0.88264 0.0
H503 H 0.98677 0.63583 0.91955 0.0
H504 H 0.87614 0.52959 0.93654 0.0
H505 H 0.85154 0.53002 0.89957 0.0
C506 C 0.76086 0.61526 0.82675 0.0
C507 C 0.72686 0.58352 0.83713 0.0
C508 C 0.79779 0.61636 0.82807 0.0
C509 C 0.80163 0.5858 0.83981 0.0
C510 C 0.76774 0.55424 0.85015 0.0
C511 C 0.73098 0.55301 0.84877 0.0
C512 C 0.84076 0.58663 0.84197 0.0
C513 C 0.85518 0.58427 0.86268 0.0
C514 C 0.86354 0.58903 0.82407 0.0
C515 C 0.84975 0.59059 0.80176 0.0
C516 C 0.81243 0.56033 0.79501 0.0
C517 C 0.79952 0.56221 0.77398 0.0
C518 C 0.82382 0.59404 0.75951 0.0
C519 C 0.86114 0.62399 0.76603 0.0
C520 C 0.87416 0.62228 0.78705 0.0
C521 C 0.97922 0.54247 0.8691 0.0
C522 C 1.01731 0.57239 0.86194 0.0
C523 C 0.94541 0.54553 0.86369 0.0
C524 C 0.94862 0.57883 0.85113 0.0
C525 C 0.98626 0.60756 0.84276 0.0
C526 C 1.02031 0.60438 0.84812 0.0
C527 C 0.91302 0.58442 0.84815 0.0
C528 C 0.89941 0.58814 0.82739 0.0
C529 C 0.89101 0.58365 0.86599 0.0
C530 C 0.90542 0.58341 0.8883 0.0
C531 C 0.9436 0.6133 0.89421 0.0
C532 C 0.95733 0.61274 0.91516 0.0
C533 C 0.93306 0.58255 0.93039 0.0
C534 C 0.89493 0.55293 0.92471 0.0
C535 C 0.88105 0.55336 0.90377 0.0
H536 H 0.94372 0.58213 0.94661 0.0
H537 H 0.81378 0.59545 0.74324 0.0
H538 H 0.13611 0.66052 0.20275 0.0
H539 H 0.19913 0.72279 0.20635 0.0
H540 H 0.24545 0.69875 0.15107 0.0
H541 H 0.18319 0.6351 0.14836 0.0
H542 H 0.30235 0.72989 0.17702 0.0
H543 H 0.20817 0.76988 0.15112 0.0
H544 H 0.14585 0.77253 0.15134 0.0
H545 H 0.17638 0.82286 0.2128 0.0
H546 H 0.23868 0.82008 0.21305 0.0
H547 H 0.45782 0.93241 0.15267 0.0
H548 H 0.39869 0.86538 0.15297 0.0
H549 H 0.36258 0.88426 0.21344 0.0
H550 H 0.42163 0.95146 0.21301 0.0
H551 H 0.30131 0.856 0.18573 0.0
H552 H 0.39865 0.81884 0.20958 0.0
H553 H 0.46138 0.81741 0.20752 0.0
H554 H 0.42519 0.76339 0.14716 0.0
H555 H 0.36246 0.76499 0.14873 0.0
C556 C 0.15975 0.66854 0.19136 0.0
C557 C 0.15448 0.64301 0.17514 0.0
C558 C 0.19584 0.70442 0.19333 0.0
C559 C 0.22716 0.71653 0.17863 0.0
C560 C 0.22203 0.69055 0.16263 0.0
C561 C 0.18629 0.65411 0.16102 0.0
C562 C 0.26504 0.75611 0.17984 0.0
C563 C 0.30193 0.75747 0.17863 0.0
C564 C 0.26516 0.79244 0.18238 0.0
C565 C 0.22789 0.79443 0.18218 0.0
C566 C 0.20147 0.78131 0.16473 0.0
C567 C 0.16618 0.78286 0.16477 0.0
C568 C 0.15712 0.79776 0.1821 0.0
C569 C 0.18341 0.81128 0.1994 0.0
C570 C 0.21874 0.80977 0.19945 0.0
C571 C 0.43749 0.92198 0.16614 0.0
C572 C 0.44412 0.9473 0.18271 0.0
C573 C 0.40369 0.8836 0.16635 0.0
C574 C 0.37593 0.86946 0.18325 0.0
C575 C 0.38329 0.89436 0.20016 0.0
C576 C 0.41713 0.9327 0.19997 0.0
C577 C 0.33838 0.82967 0.18282 0.0
C578 C 0.3016 0.82835 0.18415 0.0
C579 C 0.3384 0.79355 0.18008 0.0
C580 C 0.37601 0.79236 0.17919 0.0
C581 C 0.40419 0.80692 0.1958 0.0
C582 C 0.43973 0.80604 0.19473 0.0
C583 C 0.44731 0.79041 0.1772 0.0
C584 C 0.41931 0.77553 0.16072 0.0
C585 C 0.38373 0.77637 0.1617 0.0
H586 H 0.47484 0.78976 0.1764 0.0
H587 H 0.12976 0.79891 0.18211 0.0
H588 H 0.64876 0.23075 0.48918 0.0
H589 H 0.64694 0.29286 0.49096 0.0
H590 H 0.52168 0.22433 0.50642 0.0
H591 H 0.52299 0.16217 0.50326 0.0
H592 H 0.53191 0.28428 0.48234 0.0
H593 H 0.60363 0.27335 0.54503 0.0
H594 H 0.65698 0.26545 0.56344 0.0
H595 H 0.74536 0.37449 0.53075 0.0
H596 H 0.69253 0.38269 0.51187 0.0
H597 H 0.51125 0.43519 0.52775 0.0
H598 H 0.51789 0.37617 0.52389 0.0
H599 H 0.63598 0.45191 0.49797 0.0
H600 H 0.62934 0.51132 0.50182 0.0
H601 H 0.63208 0.39088 0.52649 0.0
H602 H 0.56007 0.40228 0.4648 0.0
H603 H 0.50677 0.4091 0.44559 0.0
H604 H 0.41855 0.2984 0.47701 0.0
H605 H 0.47133 0.2912 0.49664 0.0
C606 C 0.62074 0.22894 0.49277 0.0
C607 C 0.58604 0.19145 0.49612 0.0
C608 C 0.61978 0.26459 0.49401 0.0
C609 C 0.58441 0.26375 0.49948 0.0
C610 C 0.54948 0.22619 0.50228 0.0
C611 C 0.55022 0.19052 0.50046 0.0
C612 C 0.58368 0.3017 0.50241 0.0
C613 C 0.55355 0.30719 0.49228 0.0
C614 C 0.61243 0.33256 0.5149 0.0
C615 C 0.64412 0.32844 0.5269 0.0
C616 C 0.63444 0.2956 0.54174 0.0
C617 C 0.6646 0.29104 0.55224 0.0
C618 C 0.70455 0.3194 0.54821 0.0
C619 C 0.71441 0.35253 0.53381 0.0
C620 C 0.68438 0.35715 0.52322 0.0
C621 C 0.53891 0.43938 0.52155 0.0
C622 C 0.57007 0.47809 0.5155 0.0
C623 C 0.54258 0.40553 0.5192 0.0
C624 C 0.57734 0.40937 0.51048 0.0
C625 C 0.60891 0.44807 0.5048 0.0
C626 C 0.60515 0.48204 0.50706 0.0
C627 C 0.57998 0.37287 0.50672 0.0
C628 C 0.61045 0.36778 0.51664 0.0
C629 C 0.55143 0.34222 0.49417 0.0
C630 C 0.51964 0.34641 0.48234 0.0
C631 C 0.52929 0.37956 0.46774 0.0
C632 C 0.49917 0.38346 0.45675 0.0
C633 C 0.45929 0.35425 0.46012 0.0
C634 C 0.44945 0.32103 0.47444 0.0
C635 C 0.47946 0.317 0.48549 0.0
H636 H 0.43602 0.35732 0.45159 0.0
H637 H 0.72791 0.31577 0.55622 0.0
H638 H 0.46481 0.50797 0.85323 0.0
H639 H 0.40101 0.50653 0.85496 0.0
H640 H 0.45711 0.62977 0.82996 0.0
H641 H 0.52047 0.63117 0.82768 0.0
H642 H 0.37354 0.54387 0.87593 0.0
H643 H 0.39296 0.64829 0.8001 0.0
H644 H 0.42727 0.66752 0.76509 0.0
H645 H 0.42438 0.55468 0.76667 0.0
H646 H 0.38956 0.53454 0.80151 0.0
H647 H 0.21708 0.59061 0.87664 0.0
H648 H 0.28336 0.59717 0.8747 0.0
H649 H 0.24819 0.5319 0.81743 0.0
H650 H 0.18273 0.52651 0.81901 0.0
H651 H 0.32093 0.58773 0.81237 0.0
H652 H 0.25029 0.48822 0.86924 0.0
H653 H 0.21257 0.46137 0.90315 0.0
H654 H 0.31129 0.55078 0.93728 0.0
H655 H 0.34942 0.57848 0.90352 0.0
C656 C 0.46362 0.53477 0.84803 0.0
C657 C 0.49803 0.56956 0.84013 0.0
C658 C 0.42701 0.53396 0.84912 0.0
C659 C 0.42375 0.56786 0.84233 0.0
C660 C 0.45829 0.60286 0.83488 0.0
C661 C 0.49476 0.60362 0.83366 0.0
C662 C 0.38438 0.56663 0.84287 0.0
C663 C 0.36217 0.55359 0.86202 0.0
C664 C 0.36879 0.57862 0.8247 0.0
C665 C 0.38901 0.59011 0.80352 0.0
C666 C 0.39947 0.62751 0.79292 0.0
C667 C 0.41904 0.63858 0.77312 0.0
C668 C 0.42811 0.61238 0.76369 0.0
C669 C 0.41746 0.57499 0.77401 0.0
C670 C 0.39783 0.56375 0.79379 0.0
C671 C 0.22389 0.5785 0.86339 0.0
C672 C 0.19488 0.55888 0.84769 0.0
C673 C 0.26167 0.58179 0.86241 0.0
C674 C 0.27105 0.56466 0.84602 0.0
C675 C 0.24218 0.54563 0.83019 0.0
C676 C 0.20464 0.54261 0.83108 0.0
C677 C 0.31023 0.56539 0.84551 0.0
C678 C 0.33241 0.57831 0.82634 0.0
C679 C 0.3253 0.55234 0.86351 0.0
C680 C 0.30253 0.53566 0.88383 0.0
C681 C 0.26384 0.50231 0.88396 0.0
C682 C 0.24241 0.48692 0.90315 0.0
C683 C 0.25948 0.50443 0.92235 0.0
C684 C 0.29808 0.53729 0.9224 0.0
C685 C 0.31962 0.55283 0.90324 0.0
H686 H 0.24284 0.49247 0.93719 0.0
H687 H 0.44332 0.62103 0.74838 0.0
H688 H 0.95282 0.38577 0.15085 0.0
H689 H 0.88973 0.32208 0.1542 0.0
H690 H 0.83805 0.37887 0.18758 0.0
H691 H 0.90085 0.44223 0.18463 0.0
H692 H 0.8211 0.30941 0.20811 0.0
H693 H 0.81452 0.35461 0.13489 0.0
H694 H 0.83818 0.37744 0.09762 0.0
H695 H 0.83674 0.26716 0.08975 0.0
H696 H 0.81356 0.24388 0.12709 0.0
H697 H 0.61821 0.16993 0.20899 0.0
H698 H 0.6814 0.22979 0.19912 0.0
H699 H 0.71949 0.15738 0.16925 0.0
H700 H 0.65562 0.09699 0.17901 0.0
H701 H 0.74576 0.23096 0.14655 0.0
H702 H 0.74929 0.18442 0.21923 0.0
H703 H 0.7243 0.16109 0.25625 0.0
H704 H 0.7321 0.27399 0.26524 0.0
H705 H 0.75646 0.29775 0.22812 0.0
C706 C 0.92797 0.38479 0.15881 0.0
C707 C 0.93204 0.41942 0.16733 0.0
C708 C 0.89177 0.3483 0.16065 0.0
C709 C 0.85879 0.34554 0.17106 0.0
C710 C 0.8629 0.38009 0.17951 0.0
C711 C 0.89889 0.41648 0.17765 0.0
C712 C 0.82026 0.30673 0.17379 0.0
C713 C 0.80454 0.29256 0.19458 0.0
C714 C 0.7989 0.28381 0.1563 0.0
C715 C 0.81275 0.2977 0.13386 0.0
C716 C 0.81957 0.33537 0.12527 0.0
C717 C 0.83283 0.34836 0.10412 0.0
C718 C 0.83908 0.32382 0.09135 0.0
C719 C 0.83196 0.28617 0.09968 0.0
C720 C 0.81874 0.27305 0.12083 0.0
C721 C 0.63978 0.16675 0.20004 0.0
C722 C 0.63199 0.12858 0.19499 0.0
C723 C 0.67602 0.20105 0.19445 0.0
C724 C 0.70578 0.19818 0.18386 0.0
C725 C 0.69718 0.16045 0.17753 0.0
C726 C 0.66061 0.12593 0.18305 0.0
C727 C 0.7464 0.23424 0.18079 0.0
C728 C 0.76252 0.24776 0.16004 0.0
C729 C 0.76831 0.25663 0.19833 0.0
C730 C 0.75441 0.24275 0.22082 0.0
C731 C 0.74546 0.20419 0.22905 0.0
C732 C 0.73141 0.19089 0.25006 0.0
C733 C 0.72654 0.21601 0.26307 0.0
C734 C 0.73585 0.25455 0.25513 0.0
C735 C 0.7498 0.26796 0.23411 0.0
H736 H 0.71564 0.20565 0.27932 0.0
H737 H 0.84934 0.33393 0.07498 0.0
H738 H 1.0194 0.48965 0.10645 0.0
H739 H 0.03322 0.48996 0.06851 0.0
H740 H 0.11286 0.61794 0.06693 0.0
H741 H 0.09685 0.61781 0.10437 0.0
H742 H 0.07097 0.60546 0.03465 0.0
H743 H 0.14603 0.54409 0.062 0.0
H744 H 0.16032 0.49608 0.08317 0.0
H745 H 0.06371 0.39841 0.05235 0.0
H746 H 0.04926 0.44594 0.0307 0.0
H747 H 0.14713 0.61739 0.93032 0.0
H748 H 0.1459 0.61299 0.96974 0.0
H749 H 0.03371 0.50251 0.96946 0.0
H750 H 0.03439 0.50724 0.93007 0.0
H751 H 0.09598 0.50679 0.00204 0.0
H752 H 0.02436 0.57525 0.97466 0.0
H753 H 1.01902 0.62786 0.95238 0.0
H754 H 0.12018 0.71866 0.98438 0.0
H755 H 0.12656 0.66647 0.00666 0.0
C756 C 0.04013 0.5177 0.09798 0.0
C757 C 0.05683 0.55375 0.10819 0.0
C758 C 0.04836 0.51788 0.07632 0.0
C759 C 0.07448 0.55396 0.06471 0.0
C760 C 0.0924 0.58971 0.07534 0.0
C761 C 0.08333 0.58965 0.09677 0.0
C762 C 0.08067 0.55517 0.04116 0.0
C763 C 0.07722 0.58425 0.02772 0.0
C764 C 0.08819 0.52727 0.03175 0.0
C765 C 0.09632 0.49851 0.04491 0.0
C766 C 0.12766 0.51234 0.05986 0.0
C767 C 0.13583 0.48523 0.07191 0.0
C768 C 0.11269 0.44419 0.06929 0.0
C769 C 0.08154 0.4302 0.05443 0.0
C770 C 0.07348 0.45722 0.04217 0.0
C771 C 0.12258 0.59188 0.93872 0.0
C772 C 0.09078 0.56272 0.92724 0.0
C773 C 0.12188 0.58942 0.96117 0.0
C774 C 0.0897 0.55742 0.97244 0.0
C775 C 0.05885 0.52731 0.96102 0.0
C776 C 0.05917 0.53015 0.93859 0.0
C777 C 0.08654 0.55707 0.99601 0.0
C778 C 0.09022 0.5281 0.00927 0.0
C779 C 0.08031 0.58568 0.00536 0.0
C780 C 0.07621 0.61699 0.99213 0.0
C781 C 0.04569 0.60643 0.97681 0.0
C782 C 0.04243 0.63617 0.96421 0.0
C783 C 0.06929 0.67658 0.9669 0.0
C784 C 0.09943 0.68734 0.98227 0.0
C785 C 0.10288 0.6577 0.9949 0.0
H786 H 0.06667 0.69955 0.95712 0.0
H787 H 0.11903 0.42327 0.07868 0.0
H788 H 0.66387 0.13342 0.42644 0.0
H789 H 0.64446 0.12015 0.3891 0.0
H790 H 0.52442 0.03383 0.40911 0.0
H791 H 0.54387 0.04771 0.44674 0.0
H792 H 0.61938 0.05491 0.36888 0.0
H793 H 0.46065 0.03159 0.3683 0.0
H794 H 0.42016 0.05166 0.38809 0.0
H795 H 0.52574 0.15997 0.40382 0.0
H796 H 0.56675 0.14075 0.38392 0.0
H797 H 0.54069 0.99325 0.26615 0.0
H798 H 0.54039 0.99358 0.30533 0.0
H799 H 0.56147 0.1147 0.29971 0.0
H800 H 0.56109 0.11432 0.26059 0.0
H801 H 0.51058 0.07014 0.33327 0.0
H802 H 0.63843 0.10026 0.3062 0.0
H803 H 0.68354 0.08722 0.28576 0.0
H804 H 0.64803 0.97791 0.32452 0.0
H805 H 0.60227 0.99008 0.34501 0.0
C806 C 0.63326 0.11178 0.42289 0.0
C807 C 0.60525 0.09177 0.43944 0.0
C808 C 0.62223 0.10408 0.40154 0.0
C809 C 0.58296 0.07607 0.39623 0.0
C810 C 0.55478 0.05595 0.41277 0.0
C811 C 0.56584 0.0639 0.43424 0.0
C812 C 0.57227 0.06806 0.37332 0.0
C813 C 0.59532 0.0579 0.36119 0.0
C814 C 0.54113 0.07226 0.36315 0.0
C815 C 0.51675 0.08449 0.37483 0.0
C816 C 0.47517 0.05974 0.37593 0.0
C817 C 0.45215 0.07096 0.38717 0.0
C818 C 0.47039 0.107 0.39727 0.0
C819 C 0.51167 0.13199 0.39606 0.0
C820 C 0.53481 0.12092 0.38482 0.0
C821 C 0.5443 0.01959 0.27326 0.0
C822 C 0.55135 0.05392 0.2603 0.0
C823 C 0.5443 0.0198 0.29564 0.0
C824 C 0.55133 0.05432 0.30543 0.0
C825 C 0.556 0.08776 0.29251 0.0
C826 C 0.55615 0.08762 0.27017 0.0
C827 C 0.55785 0.05724 0.32894 0.0
C828 C 0.53408 0.06642 0.34113 0.0
C829 C 0.58893 0.05306 0.33913 0.0
C830 C 0.61662 0.04583 0.32696 0.0
C831 C 0.64003 0.07329 0.31025 0.0
C832 C 0.66574 0.06609 0.29867 0.0
C833 C 0.66856 0.03169 0.30379 0.0
C834 C 0.64575 1.0045 0.32054 0.0
C835 C 0.61994 1.01154 0.33215 0.0
H836 H 0.68848 0.02615 0.29482 0.0
H837 H 0.45252 0.1156 0.40599 0.0
H838 H 0.60313 0.61085 0.77766 0.0
H839 H 0.60668 0.62491 0.73847 0.0
H840 H 0.6201 0.52214 0.73082 0.0
H841 H 0.61534 0.50736 0.76978 0.0
H842 H 0.67431 0.60428 0.70411 0.0
H843 H 0.53682 0.4992 0.72301 0.0
H844 H 0.47536 0.47415 0.74412 0.0
H845 H 0.46667 0.57746 0.72151 0.0
H846 H 0.5284 0.6033 0.70042 0.0
H847 H 0.63531 0.56576 0.59495 0.0
H848 H 0.63867 0.56007 0.63398 0.0
H849 H 0.56713 0.6164 0.63824 0.0
H850 H 0.56021 0.61844 0.59948 0.0
H851 H 0.54476 0.5633 0.66773 0.0
H852 H 0.67404 0.66647 0.64561 0.0
H853 H 0.73744 0.69869 0.62565 0.0
H854 H 0.76591 0.6117 0.65497 0.0
H855 H 0.7024 0.57861 0.67489 0.0
C856 C 0.60764 0.59186 0.76759 0.0
C857 C 0.60909 0.55817 0.77661 0.0
C858 C 0.60953 0.59979 0.74529 0.0
C859 C 0.61375 0.57456 0.73187 0.0
C860 C 0.61707 0.54202 0.74097 0.0
C861 C 0.61421 0.53357 0.76315 0.0
C862 C 0.61137 0.57986 0.7083 0.0
C863 C 0.64608 0.59518 0.69602 0.0
C864 C 0.5747 0.56913 0.69799 0.0
C865 C 0.53732 0.55331 0.71033 0.0
C866 C 0.52193 0.51668 0.72267 0.0
C867 C 0.48704 0.50232 0.73459 0.0
C868 C 0.46716 0.52423 0.73418 0.0
C869 C 0.48211 0.56053 0.72181 0.0
C870 C 0.51701 0.57502 0.70985 0.0
C871 C 0.61961 0.57625 0.60414 0.0
C872 C 0.59788 0.59304 0.59383 0.0
C873 C 0.6222 0.57367 0.62655 0.0
C874 C 0.60412 0.58884 0.63919 0.0
C875 C 0.58172 0.60478 0.62896 0.0
C876 C 0.57828 0.60646 0.60665 0.0
C877 C 0.6079 0.58759 0.66303 0.0
C878 C 0.57331 0.57291 0.67553 0.0
C879 C 0.64501 0.60003 0.67353 0.0
C880 C 0.68327 0.61983 0.66159 0.0
C881 C 0.69368 0.65403 0.64768 0.0
C882 C 0.72966 0.67248 0.63639 0.0
C883 C 0.75564 0.65719 0.639 0.0
C884 C 0.74573 0.62348 0.65294 0.0
C885 C 0.70976 0.60488 0.66426 0.0
H886 H 0.78349 0.67151 0.63024 0.0
H887 H 0.44012 0.513 0.74339 0.0
H888 H 0.54699 0.11185 0.56703 0.0
H889 H 0.57176 0.12995 0.60344 0.0
H890 H 0.66637 0.10505 0.59278 0.0
H891 H 0.64184 0.08703 0.55626 0.0
H892 H 0.58077 0.06874 0.63342 0.0
H893 H 0.72805 0.16317 0.60797 0.0
H894 H 0.7737 0.21864 0.58279 0.0
H895 H 0.71308 0.28332 0.59385 0.0
H896 H 0.66663 0.22777 0.61869 0.0
H897 H 0.72496 0.13702 0.72755 0.0
H898 H 0.71594 0.14167 0.68865 0.0
H899 H 0.60386 0.13662 0.69846 0.0
H900 H 0.6122 0.13104 0.73728 0.0
H901 H 0.70153 0.18933 0.65758 0.0
H902 H 0.53572 0.06681 0.66618 0.0
H903 H 0.49195 1.01145 0.69193 0.0
H904 H 0.59164 0.99977 0.7152 0.0
H905 H 0.6358 0.05453 0.68935 0.0
C906 C 0.57342 0.11081 0.57235 0.0
C907 C 0.59241 0.09786 0.55893 0.0
C908 C 0.58759 0.1213 0.59307 0.0
C909 C 0.62113 0.1193 0.60064 0.0
C910 C 0.64093 0.10757 0.58705 0.0
C911 C 0.62673 0.09702 0.56629 0.0
C912 C 0.6323 0.12484 0.62349 0.0
C913 C 0.60701 0.09519 0.63874 0.0
C914 C 0.66692 0.15882 0.63031 0.0
C915 C 0.69379 0.19135 0.6149 0.0
C916 C 0.72428 0.18908 0.60479 0.0
C917 C 0.75026 0.2205 0.5906 0.0
C918 C 0.74614 0.2544 0.5866 0.0
C919 C 0.71603 0.25692 0.59678 0.0
C920 C 0.68982 0.22546 0.61086 0.0
C921 C 0.69876 0.13767 0.72139 0.0
C922 C 0.66903 0.13312 0.73545 0.0
C923 C 0.69379 0.1406 0.69919 0.0
C924 C 0.65894 0.1388 0.69073 0.0
C925 C 0.63079 0.13763 0.70472 0.0
C926 C 0.63574 0.13474 0.7269 0.0
C927 C 0.64976 0.1333 0.66761 0.0
C928 C 0.67529 0.16282 0.65232 0.0
C929 C 0.6156 0.09865 0.6607 0.0
C930 C 0.58911 0.06509 0.676 0.0
C931 C 0.54823 0.0523 0.67673 0.0
C932 C 0.52337 0.02103 0.69135 0.0
C933 C 0.53903 1.00221 0.70524 0.0
C934 C 0.57956 1.01447 0.70448 0.0
C935 C 0.60452 0.04563 0.68986 0.0
H936 H 0.51974 0.97806 0.71657 0.0
H937 H 0.76636 0.27879 0.5757 0.0
H938 H 0.61746 0.64888 0.90289 0.0
H939 H 0.60325 0.62941 0.94101 0.0
H940 H 0.59184 0.51452 0.93138 0.0
H941 H 0.60415 0.53347 0.89289 0.0
H942 H 0.53795 0.50381 0.95823 0.0
H943 H 0.67788 0.59311 0.95342 0.0
H944 H 0.74011 0.65482 0.94271 0.0
H945 H 0.70518 0.72391 0.97771 0.0
H946 H 0.64245 0.66267 0.98839 0.0
H947 H 0.58044 0.473 0.07038 0.0
H948 H 0.58684 0.48606 0.03121 0.0
H949 H 0.54996 0.57406 0.03466 0.0
H950 H 0.54243 0.56028 0.07376 0.0
H951 H 0.62859 0.59637 0.01154 0.0
H952 H 0.48661 0.50189 0.01577 0.0
H953 H 0.42796 0.43736 0.0272 0.0
H954 H 0.4728 0.37461 0.99394 0.0
H955 H 0.53208 0.4388 0.9826 0.0
C956 C 0.61179 0.61943 0.90892 0.0
C957 C 0.61215 0.59268 0.89508 0.0
C958 C 0.6039 0.60839 0.93072 0.0
C959 C 0.59742 0.57084 0.93921 0.0
C960 C 0.59694 0.54372 0.92525 0.0
C961 C 0.60405 0.55453 0.9033 0.0
C962 C 0.59143 0.56019 0.96264 0.0
C963 C 0.55811 0.52388 0.96983 0.0
C964 C 0.61755 0.5864 0.9779 0.0
C965 C 0.65529 0.62333 0.97154 0.0
C966 C 0.68333 0.6215 0.95871 0.0
C967 C 0.71872 0.65639 0.95266 0.0
C968 C 0.72655 0.69327 0.95948 0.0
C969 C 0.69905 0.69532 0.97241 0.0
C970 C 0.66359 0.66053 0.97849 0.0
C971 C 0.57341 0.49485 0.06268 0.0
C972 C 0.56094 0.51567 0.07492 0.0
C973 C 0.57696 0.50218 0.04042 0.0
C974 C 0.56877 0.53091 0.0302 0.0
C975 C 0.55625 0.55169 0.04237 0.0
C976 C 0.55186 0.54375 0.06458 0.0
C977 C 0.57505 0.54054 0.00688 0.0
C978 C 0.60856 0.57652 -0.0002 0.0
C979 C 0.54967 0.51368 0.9918 0.0
C980 C 0.51401 0.47512 -0.00143 0.0
C981 C 0.48419 0.47432 0.0111 0.0
C982 C 0.45078 0.43781 0.01751 0.0
C983 C 0.44672 0.4019 0.01136 0.0
C984 C 0.47602 0.40244 -0.00127 0.0
C985 C 0.50952 0.43888 0.9923 0.0
H986 H 0.42081 0.37366 0.01633 0.0
H987 H 0.75397 0.72025 0.95479 0.0
H988 H 0.04057 0.57229 0.22286 0.0
H989 H 0.03587 0.58168 0.26067 0.0
H990 H 0.03019 0.46863 0.2785 0.0
H991 H 0.03309 0.45833 0.24063 0.0
H992 H 0.98207 0.47796 0.3031 0.0
H993 H 0.11862 0.55979 0.27977 0.0
H994 H 0.17184 0.6109 0.25592 0.0
H995 H 0.14346 0.69937 0.27325 0.0
H996 H 0.08965 0.64861 0.29697 0.0
H997 H 0.0475 0.50351 0.41 0.0
H998 H 0.04464 0.49684 0.37136 0.0
H999 H 0.04248 0.60748 0.36022 0.0
H1000 H 0.04549 0.61443 0.39902 0.0
H1001 H 0.09156 0.60185 0.33205 0.0
H1002 H 0.95715 0.51908 0.3576 0.0
H1003 H 0.90537 0.46706 0.38177 0.0
H1004 H 0.93157 0.37932 0.36072 0.0
H1005 H 0.98389 0.43096 0.3366 0.0
C1006 C 0.03772 0.5492 0.23485 0.0
C1007 C 0.03749 0.51474 0.2289 0.0
C1008 C 0.03528 0.5547 0.25644 0.0
C1009 C 0.03354 0.52626 0.27245 0.0
C1010 C 0.03168 0.49104 0.26643 0.0
C1011 C 0.0335 0.48526 0.24482 0.0
C1012 C 0.03562 0.53395 0.29548 0.0
C1013 C 1.00617 0.5049 0.30945 0.0
C1014 C 0.0667 0.56947 0.30371 0.0
C1015 C 0.09987 0.60032 0.28998 0.0
C1016 C 0.12364 0.59012 0.27843 0.0
C1017 C 0.15389 0.61901 0.26493 0.0
C1018 C 0.16094 0.65833 0.26301 0.0
C1019 C 0.13791 0.66889 0.27471 0.0
C1020 C 0.10755 0.64008 0.2882 0.0
C1021 C 0.04631 0.52638 0.39933 0.0
C1022 C 0.04626 0.55927 0.40752 0.0
C1023 C 0.04472 0.52255 0.37727 0.0
C1024 C 0.04261 0.55129 0.36297 0.0
C1025 C 0.04393 0.5849 0.37102 0.0
C1026 C 0.04572 0.58887 0.39315 0.0
C1027 C 0.03827 0.54567 0.33965 0.0
C1028 C 0.06729 0.5751 0.32565 0.0
C1029 C 1.00697 0.51037 0.33142 0.0
C1030 C 0.97462 0.47897 0.34539 0.0
C1031 C 0.95196 0.48872 0.35817 0.0
C1032 C 0.92252 0.4593 0.37187 0.0
C1033 C 0.91524 0.41993 0.37281 0.0
C1034 C 0.93725 0.40984 0.35997 0.0
C1035 C 0.96675 0.43916 0.34625 0.0
H1036 H 0.89252 0.39722 0.38347 0.0
H1037 H 0.18429 0.68063 0.2525 0.0
loop_
_geom_bond_atom_site_label_1
_geom_bond_atom_site_label_2
_geom_bond_distance
_geom_bond_site_symmetry_2
_ccdc_geom_bond_type
Dy0 O4 2.398 . S
Dy0 O5 2.491 . S
Dy0 O6 2.403 . S
Dy0 O7 2.664 1_455 S
Dy0 O11 2.326 . S
Dy0 O15 2.310 . S
Dy0 O16 2.351 1_455 S
C1 O12 1.185 . S
C1 O13 1.355 . S
C2 O4 1.185 . S
C2 O5 1.355 . S
Dy3 O7 2.310 . S
Dy3 O10 2.351 1_655 S
Dy3 O12 2.398 . S
Dy3 O13 2.491 . S
Dy3 O14 2.403 . S
Dy3 O15 2.664 1_655 S
Dy3 O17 2.326 . S
O4 Dy0 2.398 . S
O4 C2 1.185 . S
O5 Dy0 2.491 . S
O5 C2 1.355 . S
O6 Dy0 2.403 . S
O6 C8 1.254 . S
O7 Dy0 2.664 1_655 S
O7 Dy3 2.310 . S
O7 C8 1.268 1_655 S
C8 O6 1.254 . S
C8 O7 1.268 1_455 S
C9 O14 1.254 1_455 S
C9 O15 1.268 . S
O10 Dy3 2.351 1_455 S
O10 C18 1.249 . S
O11 Dy0 2.326 . S
O11 C18 1.267 . S
O12 C1 1.185 . S
O12 Dy3 2.398 . S
O13 C1 1.355 . S
O13 Dy3 2.491 . S
O14 Dy3 2.403 . S
O14 C9 1.254 1_655 S
O15 Dy0 2.310 . S
O15 Dy3 2.664 1_455 S
O15 C9 1.268 . S
O16 Dy0 2.351 1_655 S
O16 C19 1.249 . S
O17 Dy3 2.326 . S
O17 C19 1.267 . S
C18 O10 1.249 . S
C18 O11 1.267 . S
C19 O16 1.249 . S
C19 O17 1.267 . S
Dy20 O24 2.398 1_545 S
Dy20 O25 2.491 1_545 S
Dy20 O26 2.403 . S
Dy20 O27 2.664 . S
Dy20 O31 2.326 1_545 S
Dy20 O35 2.310 . S
Dy20 O36 2.351 . S
C21 O32 1.185 . S
C21 O33 1.355 . S
C22 O24 1.185 . S
C22 O25 1.355 . S
Dy23 O27 2.310 . S
Dy23 O30 2.351 . S
Dy23 O32 2.398 . S
Dy23 O33 2.491 . S
Dy23 O34 2.403 . S
Dy23 O35 2.664 . S
Dy23 O37 2.326 . S
O24 Dy20 2.398 1_565 S
O24 C22 1.185 . S
O25 Dy20 2.491 1_565 S
O25 C22 1.355 . S
O26 Dy20 2.403 . S
O26 C28 1.254 . S
O27 Dy20 2.664 . S
O27 Dy23 2.310 . S
O27 C28 1.268 . S
C28 O26 1.254 . S
C28 O27 1.268 . S
C29 O34 1.254 . S
C29 O35 1.268 . S
O30 Dy23 2.351 . S
O30 C38 1.249 1_545 S
O31 Dy20 2.326 1_565 S
O31 C38 1.267 . S
O32 C21 1.185 . S
O32 Dy23 2.398 . S
O33 C21 1.355 . S
O33 Dy23 2.491 . S
O34 Dy23 2.403 . S
O34 C29 1.254 . S
O35 Dy20 2.310 . S
O35 Dy23 2.664 . S
O35 C29 1.268 . S
O36 Dy20 2.351 . S
O36 C39 1.249 . S
O37 Dy23 2.326 . S
O37 C39 1.267 . S
C38 O30 1.249 1_565 S
C38 O31 1.267 . S
C39 O36 1.249 . S
C39 O37 1.267 . S
Dy40 O44 2.398 . S
Dy40 O45 2.491 . S
Dy40 O46 2.403 . S
Dy40 O47 2.664 . S
Dy40 O51 2.326 . S
Dy40 O55 2.310 . S
Dy40 O56 2.351 . S
C41 O52 1.185 . S
C41 O53 1.355 . S
C42 O44 1.185 . S
C42 O45 1.355 . S
Dy43 O47 2.310 . S
Dy43 O50 2.351 . S
Dy43 O52 2.398 . S
Dy43 O53 2.491 . S
Dy43 O54 2.403 . S
Dy43 O55 2.664 . S
Dy43 O57 2.326 . S
O44 Dy40 2.398 . S
O44 C42 1.185 . S
O45 Dy40 2.491 . S
O45 C42 1.355 . S
O46 Dy40 2.403 . S
O46 C48 1.254 . S
O47 Dy40 2.664 . S
O47 Dy43 2.310 . S
O47 C48 1.268 . S
C48 O46 1.254 . S
C48 O47 1.268 . S
C49 O54 1.254 . S
C49 O55 1.268 . S
O50 Dy43 2.351 . S
O50 C58 1.249 . S
O51 Dy40 2.326 . S
O51 C58 1.267 . S
O52 C41 1.185 . S
O52 Dy43 2.398 . S
O53 C41 1.355 . S
O53 Dy43 2.491 . S
O54 Dy43 2.403 . S
O54 C49 1.254 . S
O55 Dy40 2.310 . S
O55 Dy43 2.664 . S
O55 C49 1.268 . S
O56 Dy40 2.351 . S
O56 C59 1.249 . S
O57 Dy43 2.326 . S
O57 C59 1.267 . S
C58 O50 1.249 . S
C58 O51 1.267 . S
C59 O56 1.249 . S
C59 O57 1.267 . S
H60 C67 0.929 . S
H61 C70 0.930 . S
H62 C72 0.929 . S
H63 C64 0.969 . S
C64 H63 0.969 . S
C64 O65 1.550 . S
C64 H66 0.973 . S
O65 C64 1.550 . S
O65 C71 1.412 1_565 S
H66 C64 0.973 . S
C67 H60 0.929 . S
C67 C68 1.400 . S
C67 C69 1.364 . S
C68 C67 1.400 . S
C68 C72 1.377 . S
C69 C67 1.364 . S
C69 C70 1.374 1_545 S
C70 H61 0.930 . S
C70 C69 1.374 1_565 S
C70 C71 1.383 1_565 S
C71 O65 1.412 1_545 S
C71 C70 1.383 1_545 S
C71 C72 1.394 . S
C72 H62 0.929 . S
C72 C68 1.377 . S
C72 C71 1.394 . S
H73 C80 0.929 . S
H74 C83 0.930 . S
H75 C85 0.929 . S
H76 C77 0.969 . S
C77 H76 0.969 . S
C77 O78 1.550 . S
C77 H79 0.973 . S
O78 C77 1.550 . S
O78 C84 1.412 . S
H79 C77 0.973 . S
C80 H73 0.929 . S
C80 C81 1.400 . S
C80 C82 1.364 . S
C81 C80 1.400 . S
C81 C85 1.377 . S
C82 C80 1.364 . S
C82 C83 1.374 . S
C83 H74 0.930 . S
C83 C82 1.374 . S
C83 C84 1.383 . S
C84 O78 1.412 . S
C84 C83 1.383 . S
C84 C85 1.394 . S
C85 H75 0.929 . S
C85 C81 1.377 . S
C85 C84 1.394 . S
H86 C93 0.929 . S
H87 C96 0.930 . S
H88 C98 0.929 . S
H89 C90 0.969 . S
C90 H89 0.969 . S
C90 O91 1.550 . S
C90 H92 0.973 . S
O91 C90 1.550 . S
O91 C97 1.412 . S
H92 C90 0.973 . S
C93 H86 0.929 . S
C93 C94 1.400 . S
C93 C95 1.364 . S
C94 C93 1.400 . S
C94 C98 1.377 . S
C95 C93 1.364 . S
C95 C96 1.374 . S
C96 H87 0.930 . S
C96 C95 1.374 . S
C96 C97 1.383 . S
C97 O91 1.412 . S
C97 C96 1.383 . S
C97 C98 1.394 . S
C98 H88 0.929 . S
C98 C94 1.377 . S
C98 C97 1.394 . S
H99 C106 0.923 1_655 S
H100 C109 0.930 . S
H101 C111 0.929 . S
H102 C103 0.969 . S
C103 H102 0.969 . S
C103 O104 1.550 . S
C103 H105 0.973 . S
O104 C103 1.550 . S
O104 C110 1.412 . S
H105 C103 0.973 . S
C106 H99 0.923 1_455 S
C106 C107 1.399 1_455 S
C106 C108 1.371 . S
C107 C106 1.399 1_655 S
C107 C111 1.377 1_655 S
C108 C106 1.371 . S
C108 C109 1.374 . S
C109 H100 0.930 . S
C109 C108 1.374 . S
C109 C110 1.383 . S
C110 O104 1.412 . S
C110 C109 1.383 . S
C110 C111 1.394 . S
C111 H101 0.929 . S
C111 C107 1.377 1_455 S
C111 C110 1.394 . S
H112 C119 0.929 . S
H113 C122 0.930 . S
H114 C124 0.929 . S
H115 C116 0.969 . S
C116 H115 0.969 . S
C116 O117 1.550 . S
C116 H118 0.973 . S
O117 C116 1.550 . S
O117 C123 1.412 . S
H118 C116 0.973 . S
C119 H112 0.929 . S
C119 C120 1.400 . S
C119 C121 1.364 . S
C120 C119 1.400 . S
C120 C124 1.377 . S
C121 C119 1.364 . S
C121 C122 1.374 . S
C122 H113 0.930 . S
C122 C121 1.374 . S
C122 C123 1.383 . S
C123 O117 1.412 . S
C123 C122 1.383 . S
C123 C124 1.394 . S
C124 H114 0.929 . S
C124 C120 1.377 . S
C124 C123 1.394 . S
H125 C132 0.929 . S
H126 C135 0.930 . S
H127 C137 0.929 . S
H128 C129 0.969 . S
C129 H128 0.969 . S
C129 O130 1.550 . S
C129 H131 0.973 . S
O130 C129 1.550 . S
O130 C136 1.412 . S
H131 C129 0.973 . S
C132 H125 0.929 . S
C132 C133 1.400 . S
C132 C134 1.364 . S
C133 C132 1.400 . S
C133 C137 1.377 . S
C134 C132 1.364 . S
C134 C135 1.374 . S
C135 H126 0.930 . S
C135 C134 1.374 . S
C135 C136 1.383 . S
C136 O130 1.412 . S
C136 C135 1.383 . S
C136 C137 1.394 . S
C137 H127 0.929 . S
C137 C133 1.377 . S
C137 C136 1.394 . S
H138 C156 0.951 . S
H139 C158 0.951 . S
H140 C160 0.950 . S
H141 C161 0.950 . S
H142 C163 0.950 . S
H143 C166 0.950 . S
H144 C167 0.950 . S
H145 C169 0.950 . S
H146 C170 0.950 . S
H147 C171 0.951 . S
H148 C173 0.951 . S
H149 C175 0.950 . S
H150 C176 0.950 . S
H151 C178 0.950 . S
H152 C181 0.950 . S
H153 C182 0.950 . S
H154 C184 0.950 . S
H155 C185 0.950 . S
C156 H138 0.951 . S
C156 C157 1.366 . S
C156 C158 1.388 . S
C157 C156 1.366 . S
C157 C161 1.385 . S
C158 H139 0.951 . S
C158 C156 1.388 . S
C158 C159 1.366 . S
C159 C158 1.366 . S
C159 C160 1.414 . S
C159 C162 1.499 . S
C160 H140 0.950 . S
C160 C159 1.414 . S
C160 C161 1.374 . S
C161 H141 0.950 . S
C161 C157 1.385 . S
C161 C160 1.374 . S
C162 C159 1.499 . S
C162 C163 1.373 . S
C162 C164 1.389 . S
C163 H142 0.950 . S
C163 C162 1.373 . S
C163 C179 1.377 . S
C164 C162 1.389 . S
C164 C165 1.524 . S
C164 C178 1.377 . S
C165 C164 1.524 . S
C165 C166 1.397 . S
C165 C170 1.363 . S
C166 H143 0.950 . S
C166 C165 1.397 . S
C166 C167 1.334 . S
C167 H144 0.950 . S
C167 C166 1.334 . S
C167 C168 1.287 . S
C168 C167 1.287 . S
C168 C169 1.524 . S
C168 H187 0.913 . S
C169 H145 0.950 . S
C169 C168 1.524 . S
C169 C170 1.415 . S
C170 H146 0.950 . S
C170 C165 1.363 . S
C170 C169 1.415 . S
C171 H147 0.951 . S
C171 C172 1.366 . S
C171 C173 1.388 . S
C172 C171 1.366 . S
C172 C176 1.385 . S
C173 H148 0.951 . S
C173 C171 1.388 . S
C173 C174 1.366 . S
C174 C173 1.366 . S
C174 C175 1.414 . S
C174 C177 1.499 . S
C175 H149 0.950 . S
C175 C174 1.414 . S
C175 C176 1.374 . S
C176 H150 0.950 . S
C176 C172 1.385 . S
C176 C175 1.374 . S
C177 C174 1.499 . S
C177 C178 1.373 . S
C177 C179 1.389 . S
C178 H151 0.950 . S
C178 C164 1.377 . S
C178 C177 1.373 . S
C179 C163 1.377 . S
C179 C177 1.389 . S
C179 C180 1.524 . S
C180 C179 1.524 . S
C180 C181 1.397 . S
C180 C185 1.363 . S
C181 H152 0.950 . S
C181 C180 1.397 . S
C181 C182 1.334 . S
C182 H153 0.950 . S
C182 C181 1.334 . S
C182 C183 1.287 . S
C183 C182 1.287 . S
C183 C184 1.524 . S
C183 H186 0.999 . S
C184 H154 0.950 . S
C184 C183 1.524 . S
C184 C185 1.415 . S
C185 H155 0.950 . S
C185 C180 1.363 . S
C185 C184 1.415 . S
H186 C183 0.999 . S
H187 C168 0.913 . S
H188 C206 0.951 . S
H189 C208 0.951 . S
H190 C210 0.950 . S
H191 C211 0.950 . S
H192 C213 0.950 . S
H193 C216 0.950 . S
H194 C217 0.950 . S
H195 C219 0.950 . S
H196 C220 0.950 . S
H197 C221 0.951 . S
H198 C223 0.951 . S
H199 C225 0.950 . S
H200 C226 0.950 1_455 S
H201 C228 0.950 . S
H202 C231 0.950 . S
H203 C232 0.950 . S
H204 C234 0.950 . S
H205 C235 0.950 . S
C206 H188 0.951 . S
C206 C207 1.366 . S
C206 C208 1.388 . S
C207 C206 1.366 . S
C207 C211 1.385 . S
C208 H189 0.951 . S
C208 C206 1.388 . S
C208 C209 1.366 . S
C209 C208 1.366 . S
C209 C210 1.414 . S
C209 C212 1.499 . S
C210 H190 0.950 . S
C210 C209 1.414 . S
C210 C211 1.374 . S
C211 H191 0.950 . S
C211 C207 1.385 . S
C211 C210 1.374 . S
C212 C209 1.499 . S
C212 C213 1.373 . S
C212 C214 1.389 . S
C213 H192 0.950 . S
C213 C212 1.373 . S
C213 C229 1.377 . S
C214 C212 1.389 . S
C214 C215 1.524 . S
C214 C228 1.377 . S
C215 C214 1.524 . S
C215 C216 1.397 . S
C215 C220 1.363 . S
C216 H193 0.950 . S
C216 C215 1.397 . S
C216 C217 1.334 . S
C217 H194 0.950 . S
C217 C216 1.334 . S
C217 C218 1.287 . S
C218 C217 1.287 . S
C218 C219 1.524 . S
C218 H237 0.913 . S
C219 H195 0.950 . S
C219 C218 1.524 . S
C219 C220 1.415 . S
C220 H196 0.950 . S
C220 C215 1.363 . S
C220 C219 1.415 . S
C221 H197 0.951 . S
C221 C222 1.366 . S
C221 C223 1.388 . S
C222 C221 1.366 . S
C222 C226 1.385 . S
C223 H198 0.951 . S
C223 C221 1.388 . S
C223 C224 1.366 . S
C224 C223 1.366 . S
C224 C225 1.414 . S
C224 C227 1.499 . S
C225 H199 0.950 . S
C225 C224 1.414 . S
C225 C226 1.374 . S
C226 H200 0.950 1_655 S
C226 C222 1.385 . S
C226 C225 1.374 . S
C227 C224 1.499 . S
C227 C228 1.373 . S
C227 C229 1.389 . S
C228 H201 0.950 . S
C228 C214 1.377 . S
C228 C227 1.373 . S
C229 C213 1.377 . S
C229 C227 1.389 . S
C229 C230 1.524 . S
C230 C229 1.524 . S
C230 C231 1.397 . S
C230 C235 1.363 . S
C231 H202 0.950 . S
C231 C230 1.397 . S
C231 C232 1.334 . S
C232 H203 0.950 . S
C232 C231 1.334 . S
C232 C233 1.287 . S
C233 C232 1.287 . S
C233 C234 1.524 . S
C233 H236 0.999 . S
C234 H204 0.950 . S
C234 C233 1.524 . S
C234 C235 1.415 . S
C235 H205 0.950 . S
C235 C230 1.363 . S
C235 C234 1.415 . S
H236 C233 0.999 . S
H237 C218 0.913 . S
H238 C256 0.951 . S
H239 C258 0.951 . S
H240 C260 0.950 . S
H241 C261 0.950 . S
H242 C263 0.950 . S
H243 C266 0.950 . S
H244 C267 0.950 . S
H245 C269 0.950 . S
H246 C270 0.950 . S
H247 C271 0.951 . S
H248 C273 0.951 . S
H249 C275 0.950 . S
H250 C276 0.950 . S
H251 C278 0.950 . S
H252 C281 0.950 . S
H253 C282 0.950 1_545 S
H254 C284 0.950 . S
H255 C285 0.950 . S
C256 H238 0.951 . S
C256 C257 1.366 . S
C256 C258 1.388 . S
C257 C256 1.366 . S
C257 C261 1.385 . S
C258 H239 0.951 . S
C258 C256 1.388 . S
C258 C259 1.366 . S
C259 C258 1.366 . S
C259 C260 1.414 . S
C259 C262 1.499 . S
C260 H240 0.950 . S
C260 C259 1.414 . S
C260 C261 1.374 . S
C261 H241 0.950 . S
C261 C257 1.385 . S
C261 C260 1.374 . S
C262 C259 1.499 . S
C262 C263 1.373 . S
C262 C264 1.389 . S
C263 H242 0.950 . S
C263 C262 1.373 . S
C263 C279 1.377 . S
C264 C262 1.389 . S
C264 C265 1.524 . S
C264 C278 1.377 . S
C265 C264 1.524 . S
C265 C266 1.397 . S
C265 C270 1.363 . S
C266 H243 0.950 . S
C266 C265 1.397 . S
C266 C267 1.334 . S
C267 H244 0.950 . S
C267 C266 1.334 . S
C267 C268 1.287 . S
C268 C267 1.287 . S
C268 C269 1.524 . S
C268 H287 0.913 . S
C269 H245 0.950 . S
C269 C268 1.524 . S
C269 C270 1.415 . S
C270 H246 0.950 . S
C270 C265 1.363 . S
C270 C269 1.415 . S
C271 H247 0.951 . S
C271 C272 1.366 . S
C271 C273 1.388 1_545 S
C272 C271 1.366 . S
C272 C276 1.385 1_545 S
C273 H248 0.951 . S
C273 C271 1.388 1_565 S
C273 C274 1.366 . S
C274 C273 1.366 . S
C274 C275 1.414 . S
C274 C277 1.499 . S
C275 H249 0.950 . S
C275 C274 1.414 . S
C275 C276 1.374 . S
C276 H250 0.950 . S
C276 C272 1.385 1_565 S
C276 C275 1.374 . S
C277 C274 1.499 . S
C277 C278 1.373 . S
C277 C279 1.389 . S
C278 H251 0.950 . S
C278 C264 1.377 . S
C278 C277 1.373 . S
C279 C263 1.377 . S
C279 C277 1.389 . S
C279 C280 1.524 . S
C280 C279 1.524 . S
C280 C281 1.397 . S
C280 C285 1.363 . S
C281 H252 0.950 . S
C281 C280 1.397 . S
C281 C282 1.334 . S
C282 H253 0.950 1_565 S
C282 C281 1.334 . S
C282 C283 1.287 1_565 S
C283 C282 1.287 1_545 S
C283 C284 1.524 1_545 S
C283 H286 0.999 . S
C284 H254 0.950 . S
C284 C283 1.524 1_565 S
C284 C285 1.415 . S
C285 H255 0.950 . S
C285 C280 1.363 . S
C285 C284 1.415 . S
H286 C283 0.999 . S
H287 C268 0.913 . S
H288 C306 0.951 . S
H289 C308 0.951 . S
H290 C310 0.950 . S
H291 C311 0.950 . S
H292 C313 0.950 . S
H293 C316 0.950 . S
H294 C317 0.950 . S
H295 C319 0.950 . S
H296 C320 0.950 . S
H297 C321 0.951 . S
H298 C323 0.951 . S
H299 C325 0.950 . S
H300 C326 0.950 . S
H301 C328 0.950 . S
H302 C331 0.950 . S
H303 C332 0.950 . S
H304 C334 0.950 . S
H305 C335 0.950 . S
C306 H288 0.951 . S
C306 C307 1.366 . S
C306 C308 1.388 . S
C307 C306 1.366 . S
C307 C311 1.385 . S
C308 H289 0.951 . S
C308 C306 1.388 . S
C308 C309 1.366 . S
C309 C308 1.366 . S
C309 C310 1.414 . S
C309 C312 1.499 . S
C310 H290 0.950 . S
C310 C309 1.414 . S
C310 C311 1.374 . S
C311 H291 0.950 . S
C311 C307 1.385 . S
C311 C310 1.374 . S
C312 C309 1.499 . S
C312 C313 1.373 . S
C312 C314 1.389 . S
C313 H292 0.950 . S
C313 C312 1.373 . S
C313 C329 1.377 . S
C314 C312 1.389 . S
C314 C315 1.524 . S
C314 C328 1.377 . S
C315 C314 1.524 . S
C315 C316 1.397 . S
C315 C320 1.363 . S
C316 H293 0.950 . S
C316 C315 1.397 . S
C316 C317 1.334 . S
C317 H294 0.950 . S
C317 C316 1.334 . S
C317 C318 1.287 . S
C318 C317 1.287 . S
C318 C319 1.524 . S
C318 H337 0.913 . S
C319 H295 0.950 . S
C319 C318 1.524 . S
C319 C320 1.415 . S
C320 H296 0.950 . S
C320 C315 1.363 . S
C320 C319 1.415 . S
C321 H297 0.951 . S
C321 C322 1.366 . S
C321 C323 1.388 . S
C322 C321 1.366 . S
C322 C326 1.385 . S
C323 H298 0.951 . S
C323 C321 1.388 . S
C323 C324 1.366 . S
C324 C323 1.366 . S
C324 C325 1.414 . S
C324 C327 1.499 . S
C325 H299 0.950 . S
C325 C324 1.414 . S
C325 C326 1.374 . S
C326 H300 0.950 . S
C326 C322 1.385 . S
C326 C325 1.374 . S
C327 C324 1.499 . S
C327 C328 1.373 . S
C327 C329 1.389 . S
C328 H301 0.950 . S
C328 C314 1.377 . S
C328 C327 1.373 . S
C329 C313 1.377 . S
C329 C327 1.389 . S
C329 C330 1.524 . S
C330 C329 1.524 . S
C330 C331 1.397 . S
C330 C335 1.363 . S
C331 H302 0.950 . S
C331 C330 1.397 . S
C331 C332 1.334 . S
C332 H303 0.950 . S
C332 C331 1.334 . S
C332 C333 1.287 . S
C333 C332 1.287 . S
C333 C334 1.524 . S
C333 H336 0.999 . S
C334 H304 0.950 . S
C334 C333 1.524 . S
C334 C335 1.415 . S
C335 H305 0.950 . S
C335 C330 1.363 . S
C335 C334 1.415 . S
H336 C333 0.999 . S
H337 C318 0.913 . S
H338 C356 0.951 . S
H339 C358 0.951 . S
H340 C360 0.950 . S
H341 C361 0.950 . S
H342 C363 0.950 . S
H343 C366 0.950 . S
H344 C367 0.950 . S
H345 C369 0.950 . S
H346 C370 0.950 . S
H347 C371 0.951 . S
H348 C373 0.951 . S
H349 C375 0.950 . S
H350 C376 0.950 . S
H351 C378 0.950 . S
H352 C381 0.950 . S
H353 C382 0.950 . S
H354 C384 0.950 . S
H355 C385 0.950 . S
C356 H338 0.951 . S
C356 C357 1.366 . S
C356 C358 1.388 . S
C357 C356 1.366 . S
C357 C361 1.385 . S
C358 H339 0.951 . S
C358 C356 1.388 . S
C358 C359 1.366 . S
C359 C358 1.366 . S
C359 C360 1.414 . S
C359 C362 1.499 . S
C360 H340 0.950 . S
C360 C359 1.414 . S
C360 C361 1.374 . S
C361 H341 0.950 . S
C361 C357 1.385 . S
C361 C360 1.374 . S
C362 C359 1.499 . S
C362 C363 1.373 . S
C362 C364 1.389 . S
C363 H342 0.950 . S
C363 C362 1.373 . S
C363 C379 1.377 . S
C364 C362 1.389 . S
C364 C365 1.524 . S
C364 C378 1.377 . S
C365 C364 1.524 . S
C365 C366 1.397 . S
C365 C370 1.363 . S
C366 H343 0.950 . S
C366 C365 1.397 . S
C366 C367 1.334 . S
C367 H344 0.950 . S
C367 C366 1.334 . S
C367 C368 1.287 . S
C368 C367 1.287 . S
C368 C369 1.524 . S
C368 H387 0.913 . S
C369 H345 0.950 . S
C369 C368 1.524 . S
C369 C370 1.415 . S
C370 H346 0.950 . S
C370 C365 1.363 . S
C370 C369 1.415 . S
C371 H347 0.951 . S
C371 C372 1.366 . S
C371 C373 1.388 . S
C372 C371 1.366 . S
C372 C376 1.385 . S
C373 H348 0.951 . S
C373 C371 1.388 . S
C373 C374 1.366 . S
C374 C373 1.366 . S
C374 C375 1.414 . S
C374 C377 1.499 . S
C375 H349 0.950 . S
C375 C374 1.414 . S
C375 C376 1.374 . S
C376 H350 0.950 . S
C376 C372 1.385 . S
C376 C375 1.374 . S
C377 C374 1.499 . S
C377 C378 1.373 . S
C377 C379 1.389 . S
C378 H351 0.950 . S
C378 C364 1.377 . S
C378 C377 1.373 . S
C379 C363 1.377 . S
C379 C377 1.389 . S
C379 C380 1.524 . S
C380 C379 1.524 . S
C380 C381 1.397 . S
C380 C385 1.363 . S
C381 H352 0.950 . S
C381 C380 1.397 . S
C381 C382 1.334 . S
C382 H353 0.950 . S
C382 C381 1.334 . S
C382 C383 1.287 . S
C383 C382 1.287 . S
C383 C384 1.524 . S
C383 H386 0.999 . S
C384 H354 0.950 . S
C384 C383 1.524 . S
C384 C385 1.415 . S
C385 H355 0.950 . S
C385 C380 1.363 . S
C385 C384 1.415 . S
H386 C383 0.999 . S
H387 C368 0.913 . S
H388 C406 0.951 . S
H389 C408 0.951 . S
H390 C410 0.950 . S
H391 C411 0.950 . S
H392 C413 0.950 . S
H393 C416 0.950 . S
H394 C417 0.950 . S
H395 C419 0.950 . S
H396 C420 0.950 . S
H397 C421 0.951 . S
H398 C423 0.951 . S
H399 C425 0.950 . S
H400 C426 0.950 . S
H401 C428 0.950 . S
H402 C431 0.950 . S
H403 C432 0.950 . S
H404 C434 0.950 . S
H405 C435 0.950 . S
C406 H388 0.951 . S
C406 C407 1.366 . S
C406 C408 1.388 . S
C407 C406 1.366 . S
C407 C411 1.385 . S
C408 H389 0.951 . S
C408 C406 1.388 . S
C408 C409 1.366 . S
C409 C408 1.366 . S
C409 C410 1.414 . S
C409 C412 1.499 . S
C410 H390 0.950 . S
C410 C409 1.414 . S
C410 C411 1.374 . S
C411 H391 0.950 . S
C411 C407 1.385 . S
C411 C410 1.374 . S
C412 C409 1.499 . S
C412 C413 1.373 . S
C412 C414 1.389 . S
C413 H392 0.950 . S
C413 C412 1.373 . S
C413 C429 1.377 . S
C414 C412 1.389 . S
C414 C415 1.524 . S
C414 C428 1.377 . S
C415 C414 1.524 . S
C415 C416 1.397 . S
C415 C420 1.363 . S
C416 H393 0.950 . S
C416 C415 1.397 . S
C416 C417 1.334 . S
C417 H394 0.950 . S
C417 C416 1.334 . S
C417 C418 1.287 . S
C418 C417 1.287 . S
C418 C419 1.524 . S
C418 H437 0.913 . S
C419 H395 0.950 . S
C419 C418 1.524 . S
C419 C420 1.415 . S
C420 H396 0.950 . S
C420 C415 1.363 . S
C420 C419 1.415 . S
C421 H397 0.951 . S
C421 C422 1.366 . S
C421 C423 1.388 . S
C422 C421 1.366 . S
C422 C426 1.385 . S
C423 H398 0.951 . S
C423 C421 1.388 . S
C423 C424 1.366 . S
C424 C423 1.366 . S
C424 C425 1.414 . S
C424 C427 1.499 . S
C425 H399 0.950 . S
C425 C424 1.414 . S
C425 C426 1.374 . S
C426 H400 0.950 . S
C426 C422 1.385 . S
C426 C425 1.374 . S
C427 C424 1.499 . S
C427 C428 1.373 . S
C427 C429 1.389 . S
C428 H401 0.950 . S
C428 C414 1.377 . S
C428 C427 1.373 . S
C429 C413 1.377 . S
C429 C427 1.389 . S
C429 C430 1.524 . S
C430 C429 1.524 . S
C430 C431 1.397 . S
C430 C435 1.363 . S
C431 H402 0.950 . S
C431 C430 1.397 . S
C431 C432 1.334 . S
C432 H403 0.950 . S
C432 C431 1.334 . S
C432 C433 1.287 . S
C433 C432 1.287 . S
C433 C434 1.524 . S
C433 H436 0.999 . S
C434 H404 0.950 . S
C434 C433 1.524 . S
C434 C435 1.415 . S
C435 H405 0.950 . S
C435 C430 1.363 . S
C435 C434 1.415 . S
H436 C433 0.999 . S
H437 C418 0.913 . S
H438 C456 0.951 . S
H439 C458 0.951 . S
H440 C460 0.950 . S
H441 C461 0.950 . S
H442 C463 0.950 . S
H443 C466 0.950 . S
H444 C467 0.950 . S
H445 C469 0.950 . S
H446 C470 0.950 . S
H447 C471 0.951 . S
H448 C473 0.951 . S
H449 C475 0.950 . S
H450 C476 0.950 . S
H451 C478 0.950 . S
H452 C481 0.950 . S
H453 C482 0.950 . S
H454 C484 0.950 . S
H455 C485 0.950 . S
C456 H438 0.951 . S
C456 C457 1.366 . S
C456 C458 1.388 . S
C457 C456 1.366 . S
C457 C461 1.385 . S
C458 H439 0.951 . S
C458 C456 1.388 . S
C458 C459 1.366 . S
C459 C458 1.366 . S
C459 C460 1.414 . S
C459 C462 1.499 . S
C460 H440 0.950 . S
C460 C459 1.414 . S
C460 C461 1.374 . S
C461 H441 0.950 . S
C461 C457 1.385 . S
C461 C460 1.374 . S
C462 C459 1.499 . S
C462 C463 1.373 . S
C462 C464 1.389 . S
C463 H442 0.950 . S
C463 C462 1.373 . S
C463 C479 1.377 . S
C464 C462 1.389 . S
C464 C465 1.524 . S
C464 C478 1.377 . S
C465 C464 1.524 . S
C465 C466 1.397 . S
C465 C470 1.363 . S
C466 H443 0.950 . S
C466 C465 1.397 . S
C466 C467 1.334 . S
C467 H444 0.950 . S
C467 C466 1.334 . S
C467 C468 1.287 . S
C468 C467 1.287 . S
C468 C469 1.524 . S
C468 H487 0.913 . S
C469 H445 0.950 . S
C469 C468 1.524 . S
C469 C470 1.415 . S
C470 H446 0.950 . S
C470 C465 1.363 . S
C470 C469 1.415 . S
C471 H447 0.951 . S
C471 C472 1.366 . S
C471 C473 1.388 . S
C472 C471 1.366 . S
C472 C476 1.385 . S
C473 H448 0.951 . S
C473 C471 1.388 . S
C473 C474 1.366 . S
C474 C473 1.366 . S
C474 C475 1.414 . S
C474 C477 1.499 . S
C475 H449 0.950 . S
C475 C474 1.414 . S
C475 C476 1.374 . S
C476 H450 0.950 . S
C476 C472 1.385 . S
C476 C475 1.374 . S
C477 C474 1.499 . S
C477 C478 1.373 . S
C477 C479 1.389 . S
C478 H451 0.950 . S
C478 C464 1.377 . S
C478 C477 1.373 . S
C479 C463 1.377 . S
C479 C477 1.389 . S
C479 C480 1.524 . S
C480 C479 1.524 . S
C480 C481 1.397 . S
C480 C485 1.363 . S
C481 H452 0.950 . S
C481 C480 1.397 . S
C481 C482 1.334 . S
C482 H453 0.950 . S
C482 C481 1.334 . S
C482 C483 1.287 . S
C483 C482 1.287 . S
C483 C484 1.524 . S
C483 H486 0.999 . S
C484 H454 0.950 . S
C484 C483 1.524 . S
C484 C485 1.415 . S
C485 H455 0.950 . S
C485 C480 1.363 . S
C485 C484 1.415 . S
H486 C483 0.999 . S
H487 C468 0.913 . S
H488 C506 0.951 . S
H489 C508 0.951 . S
H490 C510 0.950 . S
H491 C511 0.950 . S
H492 C513 0.950 . S
H493 C516 0.950 . S
H494 C517 0.950 . S
H495 C519 0.950 . S
H496 C520 0.950 . S
H497 C521 0.951 . S
H498 C523 0.951 . S
H499 C525 0.950 . S
H500 C526 0.950 1_455 S
H501 C528 0.950 . S
H502 C531 0.950 . S
H503 C532 0.950 . S
H504 C534 0.950 . S
H505 C535 0.950 . S
C506 H488 0.951 . S
C506 C507 1.366 . S
C506 C508 1.388 . S
C507 C506 1.366 . S
C507 C511 1.385 . S
C508 H489 0.951 . S
C508 C506 1.388 . S
C508 C509 1.366 . S
C509 C508 1.366 . S
C509 C510 1.414 . S
C509 C512 1.499 . S
C510 H490 0.950 . S
C510 C509 1.414 . S
C510 C511 1.374 . S
C511 H491 0.950 . S
C511 C507 1.385 . S
C511 C510 1.374 . S
C512 C509 1.499 . S
C512 C513 1.373 . S
C512 C514 1.389 . S
C513 H492 0.950 . S
C513 C512 1.373 . S
C513 C529 1.377 . S
C514 C512 1.389 . S
C514 C515 1.524 . S
C514 C528 1.377 . S
C515 C514 1.524 . S
C515 C516 1.397 . S
C515 C520 1.363 . S
C516 H493 0.950 . S
C516 C515 1.397 . S
C516 C517 1.334 . S
C517 H494 0.950 . S
C517 C516 1.334 . S
C517 C518 1.287 . S
C518 C517 1.287 . S
C518 C519 1.524 . S
C518 H537 0.913 . S
C519 H495 0.950 . S
C519 C518 1.524 . S
C519 C520 1.415 . S
C520 H496 0.950 . S
C520 C515 1.363 . S
C520 C519 1.415 . S
C521 H497 0.951 . S
C521 C522 1.366 1_655 S
C521 C523 1.388 . S
C522 C521 1.366 1_455 S
C522 C526 1.385 1_455 S
C523 H498 0.951 . S
C523 C521 1.388 . S
C523 C524 1.366 . S
C524 C523 1.366 . S
C524 C525 1.414 . S
C524 C527 1.499 . S
C525 H499 0.950 . S
C525 C524 1.414 . S
C525 C526 1.374 . S
C526 H500 0.950 1_655 S
C526 C522 1.385 1_655 S
C526 C525 1.374 . S
C527 C524 1.499 . S
C527 C528 1.373 . S
C527 C529 1.389 . S
C528 H501 0.950 . S
C528 C514 1.377 . S
C528 C527 1.373 . S
C529 C513 1.377 . S
C529 C527 1.389 . S
C529 C530 1.524 . S
C530 C529 1.524 . S
C530 C531 1.397 . S
C530 C535 1.363 . S
C531 H502 0.950 . S
C531 C530 1.397 . S
C531 C532 1.334 . S
C532 H503 0.950 . S
C532 C531 1.334 . S
C532 C533 1.287 . S
C533 C532 1.287 . S
C533 C534 1.524 . S
C533 H536 0.999 . S
C534 H504 0.950 . S
C534 C533 1.524 . S
C534 C535 1.415 . S
C535 H505 0.950 . S
C535 C530 1.363 . S
C535 C534 1.415 . S
H536 C533 0.999 . S
H537 C518 0.913 . S
H538 C556 0.951 . S
H539 C558 0.951 . S
H540 C560 0.950 . S
H541 C561 0.950 . S
H542 C563 0.950 . S
H543 C566 0.950 . S
H544 C567 0.950 . S
H545 C569 0.950 . S
H546 C570 0.950 . S
H547 C571 0.951 . S
H548 C573 0.951 . S
H549 C575 0.950 . S
H550 C576 0.950 . S
H551 C578 0.950 . S
H552 C581 0.950 . S
H553 C582 0.950 . S
H554 C584 0.950 . S
H555 C585 0.950 . S
C556 H538 0.951 . S
C556 C557 1.366 . S
C556 C558 1.388 . S
C557 C556 1.366 . S
C557 C561 1.385 . S
C558 H539 0.951 . S
C558 C556 1.388 . S
C558 C559 1.366 . S
C559 C558 1.366 . S
C559 C560 1.414 . S
C559 C562 1.499 . S
C560 H540 0.950 . S
C560 C559 1.414 . S
C560 C561 1.374 . S
C561 H541 0.950 . S
C561 C557 1.385 . S
C561 C560 1.374 . S
C562 C559 1.499 . S
C562 C563 1.373 . S
C562 C564 1.389 . S
C563 H542 0.950 . S
C563 C562 1.373 . S
C563 C579 1.377 . S
C564 C562 1.389 . S
C564 C565 1.524 . S
C564 C578 1.377 . S
C565 C564 1.524 . S
C565 C566 1.397 . S
C565 C570 1.363 . S
C566 H543 0.950 . S
C566 C565 1.397 . S
C566 C567 1.334 . S
C567 H544 0.950 . S
C567 C566 1.334 . S
C567 C568 1.287 . S
C568 C567 1.287 . S
C568 C569 1.524 . S
C568 H587 0.913 . S
C569 H545 0.950 . S
C569 C568 1.524 . S
C569 C570 1.415 . S
C570 H546 0.950 . S
C570 C565 1.363 . S
C570 C569 1.415 . S
C571 H547 0.951 . S
C571 C572 1.366 . S
C571 C573 1.388 . S
C572 C571 1.366 . S
C572 C576 1.385 . S
C573 H548 0.951 . S
C573 C571 1.388 . S
C573 C574 1.366 . S
C574 C573 1.366 . S
C574 C575 1.414 . S
C574 C577 1.499 . S
C575 H549 0.950 . S
C575 C574 1.414 . S
C575 C576 1.374 . S
C576 H550 0.950 . S
C576 C572 1.385 . S
C576 C575 1.374 . S
C577 C574 1.499 . S
C577 C578 1.373 . S
C577 C579 1.389 . S
C578 H551 0.950 . S
C578 C564 1.377 . S
C578 C577 1.373 . S
C579 C563 1.377 . S
C579 C577 1.389 . S
C579 C580 1.524 . S
C580 C579 1.524 . S
C580 C581 1.397 . S
C580 C585 1.363 . S
C581 H552 0.950 . S
C581 C580 1.397 . S
C581 C582 1.334 . S
C582 H553 0.950 . S
C582 C581 1.334 . S
C582 C583 1.287 . S
C583 C582 1.287 . S
C583 C584 1.524 . S
C583 H586 0.999 . S
C584 H554 0.950 . S
C584 C583 1.524 . S
C584 C585 1.415 . S
C585 H555 0.950 . S
C585 C580 1.363 . S
C585 C584 1.415 . S
H586 C583 0.999 . S
H587 C568 0.913 . S
H588 C606 0.951 . S
H589 C608 0.951 . S
H590 C610 0.950 . S
H591 C611 0.950 . S
H592 C613 0.950 . S
H593 C616 0.950 . S
H594 C617 0.950 . S
H595 C619 0.950 . S
H596 C620 0.950 . S
H597 C621 0.951 . S
H598 C623 0.951 . S
H599 C625 0.950 . S
H600 C626 0.950 . S
H601 C628 0.950 . S
H602 C631 0.950 . S
H603 C632 0.950 . S
H604 C634 0.950 . S
H605 C635 0.950 . S
C606 H588 0.951 . S
C606 C607 1.366 . S
C606 C608 1.388 . S
C607 C606 1.366 . S
C607 C611 1.385 . S
C608 H589 0.951 . S
C608 C606 1.388 . S
C608 C609 1.366 . S
C609 C608 1.366 . S
C609 C610 1.414 . S
C609 C612 1.499 . S
C610 H590 0.950 . S
C610 C609 1.414 . S
C610 C611 1.374 . S
C611 H591 0.950 . S
C611 C607 1.385 . S
C611 C610 1.374 . S
C612 C609 1.499 . S
C612 C613 1.373 . S
C612 C614 1.389 . S
C613 H592 0.950 . S
C613 C612 1.373 . S
C613 C629 1.377 . S
C614 C612 1.389 . S
C614 C615 1.524 . S
C614 C628 1.377 . S
C615 C614 1.524 . S
C615 C616 1.397 . S
C615 C620 1.363 . S
C616 H593 0.950 . S
C616 C615 1.397 . S
C616 C617 1.334 . S
C617 H594 0.950 . S
C617 C616 1.334 . S
C617 C618 1.287 . S
C618 C617 1.287 . S
C618 C619 1.524 . S
C618 H637 0.913 . S
C619 H595 0.950 . S
C619 C618 1.524 . S
C619 C620 1.415 . S
C620 H596 0.950 . S
C620 C615 1.363 . S
C620 C619 1.415 . S
C621 H597 0.951 . S
C621 C622 1.366 . S
C621 C623 1.388 . S
C622 C621 1.366 . S
C622 C626 1.385 . S
C623 H598 0.951 . S
C623 C621 1.388 . S
C623 C624 1.366 . S
C624 C623 1.366 . S
C624 C625 1.414 . S
C624 C627 1.499 . S
C625 H599 0.950 . S
C625 C624 1.414 . S
C625 C626 1.374 . S
C626 H600 0.950 . S
C626 C622 1.385 . S
C626 C625 1.374 . S
C627 C624 1.499 . S
C627 C628 1.373 . S
C627 C629 1.389 . S
C628 H601 0.950 . S
C628 C614 1.377 . S
C628 C627 1.373 . S
C629 C613 1.377 . S
C629 C627 1.389 . S
C629 C630 1.524 . S
C630 C629 1.524 . S
C630 C631 1.397 . S
C630 C635 1.363 . S
C631 H602 0.950 . S
C631 C630 1.397 . S
C631 C632 1.334 . S
C632 H603 0.950 . S
C632 C631 1.334 . S
C632 C633 1.287 . S
C633 C632 1.287 . S
C633 C634 1.524 . S
C633 H636 0.999 . S
C634 H604 0.950 . S
C634 C633 1.524 . S
C634 C635 1.415 . S
C635 H605 0.950 . S
C635 C630 1.363 . S
C635 C634 1.415 . S
H636 C633 0.999 . S
H637 C618 0.913 . S
H638 C656 0.951 . S
H639 C658 0.951 . S
H640 C660 0.950 . S
H641 C661 0.950 . S
H642 C663 0.950 . S
H643 C666 0.950 . S
H644 C667 0.950 . S
H645 C669 0.950 . S
H646 C670 0.950 . S
H647 C671 0.951 . S
H648 C673 0.951 . S
H649 C675 0.950 . S
H650 C676 0.950 . S
H651 C678 0.950 . S
H652 C681 0.950 . S
H653 C682 0.950 . S
H654 C684 0.950 . S
H655 C685 0.950 . S
C656 H638 0.951 . S
C656 C657 1.366 . S
C656 C658 1.388 . S
C657 C656 1.366 . S
C657 C661 1.385 . S
C658 H639 0.951 . S
C658 C656 1.388 . S
C658 C659 1.366 . S
C659 C658 1.366 . S
C659 C660 1.414 . S
C659 C662 1.499 . S
C660 H640 0.950 . S
C660 C659 1.414 . S
C660 C661 1.374 . S
C661 H641 0.950 . S
C661 C657 1.385 . S
C661 C660 1.374 . S
C662 C659 1.499 . S
C662 C663 1.373 . S
C662 C664 1.389 . S
C663 H642 0.950 . S
C663 C662 1.373 . S
C663 C679 1.377 . S
C664 C662 1.389 . S
C664 C665 1.524 . S
C664 C678 1.377 . S
C665 C664 1.524 . S
C665 C666 1.397 . S
C665 C670 1.363 . S
C666 H643 0.950 . S
C666 C665 1.397 . S
C666 C667 1.334 . S
C667 H644 0.950 . S
C667 C666 1.334 . S
C667 C668 1.287 . S
C668 C667 1.287 . S
C668 C669 1.524 . S
C668 H687 0.913 . S
C669 H645 0.950 . S
C669 C668 1.524 . S
C669 C670 1.415 . S
C670 H646 0.950 . S
C670 C665 1.363 . S
C670 C669 1.415 . S
C671 H647 0.951 . S
C671 C672 1.366 . S
C671 C673 1.388 . S
C672 C671 1.366 . S
C672 C676 1.385 . S
C673 H648 0.951 . S
C673 C671 1.388 . S
C673 C674 1.366 . S
C674 C673 1.366 . S
C674 C675 1.414 . S
C674 C677 1.499 . S
C675 H649 0.950 . S
C675 C674 1.414 . S
C675 C676 1.374 . S
C676 H650 0.950 . S
C676 C672 1.385 . S
C676 C675 1.374 . S
C677 C674 1.499 . S
C677 C678 1.373 . S
C677 C679 1.389 . S
C678 H651 0.950 . S
C678 C664 1.377 . S
C678 C677 1.373 . S
C679 C663 1.377 . S
C679 C677 1.389 . S
C679 C680 1.524 . S
C680 C679 1.524 . S
C680 C681 1.397 . S
C680 C685 1.363 . S
C681 H652 0.950 . S
C681 C680 1.397 . S
C681 C682 1.334 . S
C682 H653 0.950 . S
C682 C681 1.334 . S
C682 C683 1.287 . S
C683 C682 1.287 . S
C683 C684 1.524 . S
C683 H686 0.999 . S
C684 H654 0.950 . S
C684 C683 1.524 . S
C684 C685 1.415 . S
C685 H655 0.950 . S
C685 C680 1.363 . S
C685 C684 1.415 . S
H686 C683 0.999 . S
H687 C668 0.913 . S
H688 C706 0.951 . S
H689 C708 0.951 . S
H690 C710 0.950 . S
H691 C711 0.950 . S
H692 C713 0.950 . S
H693 C716 0.950 . S
H694 C717 0.950 . S
H695 C719 0.950 . S
H696 C720 0.950 . S
H697 C721 0.951 . S
H698 C723 0.951 . S
H699 C725 0.950 . S
H700 C726 0.950 . S
H701 C728 0.950 . S
H702 C731 0.950 . S
H703 C732 0.950 . S
H704 C734 0.950 . S
H705 C735 0.950 . S
C706 H688 0.951 . S
C706 C707 1.366 . S
C706 C708 1.388 . S
C707 C706 1.366 . S
C707 C711 1.385 . S
C708 H689 0.951 . S
C708 C706 1.388 . S
C708 C709 1.366 . S
C709 C708 1.366 . S
C709 C710 1.414 . S
C709 C712 1.499 . S
C710 H690 0.950 . S
C710 C709 1.414 . S
C710 C711 1.374 . S
C711 H691 0.950 . S
C711 C707 1.385 . S
C711 C710 1.374 . S
C712 C709 1.499 . S
C712 C713 1.373 . S
C712 C714 1.389 . S
C713 H692 0.950 . S
C713 C712 1.373 . S
C713 C729 1.377 . S
C714 C712 1.389 . S
C714 C715 1.524 . S
C714 C728 1.377 . S
C715 C714 1.524 . S
C715 C716 1.397 . S
C715 C720 1.363 . S
C716 H693 0.950 . S
C716 C715 1.397 . S
C716 C717 1.334 . S
C717 H694 0.950 . S
C717 C716 1.334 . S
C717 C718 1.287 . S
C718 C717 1.287 . S
C718 C719 1.524 . S
C718 H737 0.913 . S
C719 H695 0.950 . S
C719 C718 1.524 . S
C719 C720 1.415 . S
C720 H696 0.950 . S
C720 C715 1.363 . S
C720 C719 1.415 . S
C721 H697 0.951 . S
C721 C722 1.366 . S
C721 C723 1.388 . S
C722 C721 1.366 . S
C722 C726 1.385 . S
C723 H698 0.951 . S
C723 C721 1.388 . S
C723 C724 1.366 . S
C724 C723 1.366 . S
C724 C725 1.414 . S
C724 C727 1.499 . S
C725 H699 0.950 . S
C725 C724 1.414 . S
C725 C726 1.374 . S
C726 H700 0.950 . S
C726 C722 1.385 . S
C726 C725 1.374 . S
C727 C724 1.499 . S
C727 C728 1.373 . S
C727 C729 1.389 . S
C728 H701 0.950 . S
C728 C714 1.377 . S
C728 C727 1.373 . S
C729 C713 1.377 . S
C729 C727 1.389 . S
C729 C730 1.524 . S
C730 C729 1.524 . S
C730 C731 1.397 . S
C730 C735 1.363 . S
C731 H702 0.950 . S
C731 C730 1.397 . S
C731 C732 1.334 . S
C732 H703 0.950 . S
C732 C731 1.334 . S
C732 C733 1.287 . S
C733 C732 1.287 . S
C733 C734 1.524 . S
C733 H736 0.999 . S
C734 H704 0.950 . S
C734 C733 1.524 . S
C734 C735 1.415 . S
C735 H705 0.950 . S
C735 C730 1.363 . S
C735 C734 1.415 . S
H736 C733 0.999 . S
H737 C718 0.913 . S
H738 C756 0.951 . S
H739 C758 0.951 . S
H740 C760 0.950 . S
H741 C761 0.950 . S
H742 C763 0.950 . S
H743 C766 0.950 . S
H744 C767 0.950 . S
H745 C769 0.950 . S
H746 C770 0.950 . S
H747 C771 0.951 . S
H748 C773 0.951 . S
H749 C775 0.950 . S
H750 C776 0.950 . S
H751 C778 0.950 1_556 S
H752 C781 0.950 . S
H753 C782 0.950 . S
H754 C784 0.960 . S
H755 C785 0.950 . S
C756 H738 0.951 . S
C756 C757 1.366 1_655 S
C756 C758 1.388 . S
C757 C756 1.366 1_455 S
C757 C761 1.385 . S
C758 H739 0.951 . S
C758 C756 1.388 . S
C758 C759 1.366 1_655 S
C759 C758 1.366 1_455 S
C759 C760 1.414 . S
C759 C762 1.499 . S
C760 H740 0.950 . S
C760 C759 1.414 . S
C760 C761 1.374 . S
C761 H741 0.950 . S
C761 C757 1.385 . S
C761 C760 1.374 . S
C762 C759 1.499 . S
C762 C763 1.373 . S
C762 C764 1.389 . S
C763 H742 0.950 . S
C763 C762 1.373 . S
C763 C779 1.377 . S
C764 C762 1.389 . S
C764 C765 1.524 . S
C764 C778 1.377 . S
C765 C764 1.524 . S
C765 C766 1.397 . S
C765 C770 1.363 1_455 S
C766 H743 0.950 . S
C766 C765 1.397 . S
C766 C767 1.334 . S
C767 H744 0.950 . S
C767 C766 1.334 . S
C767 C768 1.287 . S
C768 C767 1.287 . S
C768 C769 1.524 1_455 S
C768 H787 0.913 . S
C769 H745 0.950 . S
C769 C768 1.524 1_655 S
C769 C770 1.415 . S
C770 H746 0.950 . S
C770 C765 1.363 1_655 S
C770 C769 1.415 . S
C771 H747 0.951 . S
C771 C772 1.366 . S
C771 C773 1.388 . S
C772 C771 1.366 . S
C772 C776 1.385 . S
C773 H748 0.951 . S
C773 C771 1.388 . S
C773 C774 1.366 . S
C774 C773 1.366 . S
C774 C775 1.414 . S
C774 C777 1.499 . S
C775 H749 0.950 . S
C775 C774 1.414 . S
C775 C776 1.374 . S
C776 H750 0.950 . S
C776 C772 1.385 . S
C776 C775 1.374 . S
C777 C774 1.499 . S
C777 C778 1.373 1_556 S
C777 C779 1.389 1_556 S
C778 H751 0.950 1_554 S
C778 C764 1.377 . S
C778 C777 1.373 1_554 S
C779 C763 1.377 . S
C779 C777 1.389 1_554 S
C779 C780 1.524 1_554 S
C780 C779 1.524 1_556 S
C780 C781 1.397 . S
C780 C785 1.363 1_556 S
C781 H752 0.950 . S
C781 C780 1.397 . S
C781 C782 1.334 . S
C782 H753 0.950 . S
C782 C781 1.334 . S
C782 C783 1.287 . S
C783 C782 1.287 . S
C783 C784 1.524 . S
C783 H786 0.999 . S
C784 H754 0.960 . S
C784 C783 1.524 . S
C784 C785 1.415 1_556 S
C785 H755 0.950 . S
C785 C780 1.363 1_554 S
C785 C784 1.415 1_554 S
H786 C783 0.999 . S
H787 C768 0.913 . S
H788 C806 0.951 . S
H789 C808 0.951 . S
H790 C810 0.950 1_565 S
H791 C811 0.950 1_565 S
H792 C813 0.950 . S
H793 C816 0.950 . S
H794 C817 0.950 . S
H795 C819 0.950 . S
H796 C820 0.950 . S
H797 C821 0.951 . S
H798 C823 0.951 . S
H799 C825 0.950 . S
H800 C826 0.950 . S
H801 C828 0.950 . S
H802 C831 0.950 . S
H803 C832 0.950 . S
H804 C834 0.950 . S
H805 C835 0.950 . S
C806 H788 0.951 . S
C806 C807 1.366 . S
C806 C808 1.388 . S
C807 C806 1.366 . S
C807 C811 1.385 . S
C808 H789 0.951 . S
C808 C806 1.388 . S
C808 C809 1.366 . S
C809 C808 1.366 . S
C809 C810 1.414 . S
C809 C812 1.499 . S
C810 H790 0.950 1_545 S
C810 C809 1.414 . S
C810 C811 1.374 . S
C811 H791 0.950 1_545 S
C811 C807 1.385 . S
C811 C810 1.374 . S
C812 C809 1.499 . S
C812 C813 1.373 . S
C812 C814 1.389 . S
C813 H792 0.950 . S
C813 C812 1.373 . S
C813 C829 1.377 . S
C814 C812 1.389 . S
C814 C815 1.524 . S
C814 C828 1.377 . S
C815 C814 1.524 . S
C815 C816 1.397 . S
C815 C820 1.363 . S
C816 H793 0.950 . S
C816 C815 1.397 . S
C816 C817 1.334 . S
C817 H794 0.950 . S
C817 C816 1.334 . S
C817 C818 1.287 . S
C818 C817 1.287 . S
C818 C819 1.524 . S
C818 H837 0.913 . S
C819 H795 0.950 . S
C819 C818 1.524 . S
C819 C820 1.415 . S
C820 H796 0.950 . S
C820 C815 1.363 . S
C820 C819 1.415 . S
C821 H797 0.951 . S
C821 C822 1.366 1_565 S
C821 C823 1.388 . S
C822 C821 1.366 1_545 S
C822 C826 1.385 . S
C823 H798 0.951 . S
C823 C821 1.388 . S
C823 C824 1.366 1_565 S
C824 C823 1.366 1_545 S
C824 C825 1.414 . S
C824 C827 1.499 . S
C825 H799 0.950 . S
C825 C824 1.414 . S
C825 C826 1.374 . S
C826 H800 0.950 . S
C826 C822 1.385 . S
C826 C825 1.374 . S
C827 C824 1.499 . S
C827 C828 1.373 . S
C827 C829 1.389 . S
C828 H801 0.950 . S
C828 C814 1.377 . S
C828 C827 1.373 . S
C829 C813 1.377 . S
C829 C827 1.389 . S
C829 C830 1.524 1_545 S
C830 C829 1.524 1_565 S
C830 C831 1.397 1_565 S
C830 C835 1.363 . S
C831 H802 0.950 . S
C831 C830 1.397 1_545 S
C831 C832 1.334 . S
C832 H803 0.950 . S
C832 C831 1.334 . S
C832 C833 1.287 1_545 S
C833 C832 1.287 1_565 S
C833 C834 1.524 . S
C833 H836 0.999 . S
C834 H804 0.950 . S
C834 C833 1.524 . S
C834 C835 1.415 . S
C835 H805 0.950 . S
C835 C830 1.363 . S
C835 C834 1.415 . S
H836 C833 0.999 . S
H837 C818 0.913 . S
H838 C856 0.951 . S
H839 C858 0.951 . S
H840 C860 0.950 . S
H841 C861 0.950 . S
H842 C863 0.950 . S
H843 C866 0.950 . S
H844 C867 0.950 . S
H845 C869 0.950 . S
H846 C870 0.950 . S
H847 C871 0.951 . S
H848 C873 0.951 . S
H849 C875 0.950 . S
H850 C876 0.950 . S
H851 C878 0.950 . S
H852 C881 0.950 . S
H853 C882 0.950 . S
H854 C884 0.950 . S
H855 C885 0.950 . S
C856 H838 0.951 . S
C856 C857 1.366 . S
C856 C858 1.388 . S
C857 C856 1.366 . S
C857 C861 1.385 . S
C858 H839 0.951 . S
C858 C856 1.388 . S
C858 C859 1.366 . S
C859 C858 1.366 . S
C859 C860 1.414 . S
C859 C862 1.499 . S
C860 H840 0.950 . S
C860 C859 1.414 . S
C860 C861 1.374 . S
C861 H841 0.950 . S
C861 C857 1.385 . S
C861 C860 1.374 . S
C862 C859 1.499 . S
C862 C863 1.373 . S
C862 C864 1.389 . S
C863 H842 0.950 . S
C863 C862 1.373 . S
C863 C879 1.377 . S
C864 C862 1.389 . S
C864 C865 1.524 . S
C864 C878 1.377 . S
C865 C864 1.524 . S
C865 C866 1.397 . S
C865 C870 1.363 . S
C866 H843 0.950 . S
C866 C865 1.397 . S
C866 C867 1.334 . S
C867 H844 0.950 . S
C867 C866 1.334 . S
C867 C868 1.287 . S
C868 C867 1.287 . S
C868 C869 1.524 . S
C868 H887 0.913 . S
C869 H845 0.950 . S
C869 C868 1.524 . S
C869 C870 1.415 . S
C870 H846 0.950 . S
C870 C865 1.363 . S
C870 C869 1.415 . S
C871 H847 0.951 . S
C871 C872 1.366 . S
C871 C873 1.388 . S
C872 C871 1.366 . S
C872 C876 1.385 . S
C873 H848 0.951 . S
C873 C871 1.388 . S
C873 C874 1.366 . S
C874 C873 1.366 . S
C874 C875 1.414 . S
C874 C877 1.499 . S
C875 H849 0.950 . S
C875 C874 1.414 . S
C875 C876 1.374 . S
C876 H850 0.950 . S
C876 C872 1.385 . S
C876 C875 1.374 . S
C877 C874 1.499 . S
C877 C878 1.373 . S
C877 C879 1.389 . S
C878 H851 0.950 . S
C878 C864 1.377 . S
C878 C877 1.373 . S
C879 C863 1.377 . S
C879 C877 1.389 . S
C879 C880 1.524 . S
C880 C879 1.524 . S
C880 C881 1.397 . S
C880 C885 1.363 . S
C881 H852 0.950 . S
C881 C880 1.397 . S
C881 C882 1.334 . S
C882 H853 0.950 . S
C882 C881 1.334 . S
C882 C883 1.287 . S
C883 C882 1.287 . S
C883 C884 1.524 . S
C883 H886 0.999 . S
C884 H854 0.950 . S
C884 C883 1.524 . S
C884 C885 1.415 . S
C885 H855 0.950 . S
C885 C880 1.363 . S
C885 C884 1.415 . S
H886 C883 0.999 . S
H887 C868 0.913 . S
H888 C906 0.951 . S
H889 C908 0.951 . S
H890 C910 0.950 . S
H891 C911 0.950 . S
H892 C913 0.950 . S
H893 C916 0.950 . S
H894 C917 0.950 . S
H895 C919 0.950 . S
H896 C920 0.950 . S
H897 C921 0.951 . S
H898 C923 0.951 . S
H899 C925 0.950 . S
H900 C926 0.950 . S
H901 C928 0.950 . S
H902 C931 0.950 1_545 S
H903 C932 0.950 . S
H904 C934 0.950 . S
H905 C935 0.950 . S
C906 H888 0.951 . S
C906 C907 1.366 . S
C906 C908 1.388 . S
C907 C906 1.366 . S
C907 C911 1.385 . S
C908 H889 0.951 . S
C908 C906 1.388 . S
C908 C909 1.366 . S
C909 C908 1.366 . S
C909 C910 1.414 . S
C909 C912 1.499 . S
C910 H890 0.950 . S
C910 C909 1.414 . S
C910 C911 1.374 . S
C911 H891 0.950 . S
C911 C907 1.385 . S
C911 C910 1.374 . S
C912 C909 1.499 . S
C912 C913 1.373 . S
C912 C914 1.389 . S
C913 H892 0.950 . S
C913 C912 1.373 . S
C913 C929 1.377 . S
C914 C912 1.389 . S
C914 C915 1.524 . S
C914 C928 1.377 . S
C915 C914 1.524 . S
C915 C916 1.397 . S
C915 C920 1.363 . S
C916 H893 0.950 . S
C916 C915 1.397 . S
C916 C917 1.334 . S
C917 H894 0.950 . S
C917 C916 1.334 . S
C917 C918 1.287 . S
C918 C917 1.287 . S
C918 C919 1.524 . S
C918 H937 0.913 . S
C919 H895 0.950 . S
C919 C918 1.524 . S
C919 C920 1.415 . S
C920 H896 0.950 . S
C920 C915 1.363 . S
C920 C919 1.415 . S
C921 H897 0.951 . S
C921 C922 1.366 . S
C921 C923 1.388 . S
C922 C921 1.366 . S
C922 C926 1.385 . S
C923 H898 0.951 . S
C923 C921 1.388 . S
C923 C924 1.366 . S
C924 C923 1.366 . S
C924 C925 1.414 . S
C924 C927 1.499 . S
C925 H899 0.950 . S
C925 C924 1.414 . S
C925 C926 1.374 . S
C926 H900 0.950 . S
C926 C922 1.385 . S
C926 C925 1.374 . S
C927 C924 1.499 . S
C927 C928 1.373 . S
C927 C929 1.389 . S
C928 H901 0.950 . S
C928 C914 1.377 . S
C928 C927 1.373 . S
C929 C913 1.377 . S
C929 C927 1.389 . S
C929 C930 1.524 1_545 S
C930 C929 1.524 1_565 S
C930 C931 1.397 . S
C930 C935 1.363 . S
C931 H902 0.950 1_565 S
C931 C930 1.397 . S
C931 C932 1.334 . S
C932 H903 0.950 . S
C932 C931 1.334 . S
C932 C933 1.287 . S
C933 C932 1.287 . S
C933 C934 1.524 . S
C933 H936 0.999 . S
C934 H904 0.950 . S
C934 C933 1.524 . S
C934 C935 1.415 . S
C935 H905 0.950 . S
C935 C930 1.363 . S
C935 C934 1.415 . S
H936 C933 0.999 . S
H937 C918 0.913 . S
H938 C956 0.951 . S
H939 C958 0.951 . S
H940 C960 0.950 . S
H941 C961 0.950 . S
H942 C963 0.950 . S
H943 C966 0.950 . S
H944 C967 0.950 . S
H945 C969 0.950 . S
H946 C970 0.950 . S
H947 C971 0.951 . S
H948 C973 0.951 . S
H949 C975 0.950 . S
H950 C976 0.950 . S
H951 C978 0.950 . S
H952 C981 0.950 . S
H953 C982 0.950 . S
H954 C984 0.937 1_556 S
H955 C985 0.950 . S
C956 H938 0.951 . S
C956 C957 1.366 . S
C956 C958 1.388 . S
C957 C956 1.366 . S
C957 C961 1.385 . S
C958 H939 0.951 . S
C958 C956 1.388 . S
C958 C959 1.366 . S
C959 C958 1.366 . S
C959 C960 1.414 . S
C959 C962 1.499 . S
C960 H940 0.950 . S
C960 C959 1.414 . S
C960 C961 1.374 . S
C961 H941 0.950 . S
C961 C957 1.385 . S
C961 C960 1.374 . S
C962 C959 1.499 . S
C962 C963 1.373 . S
C962 C964 1.389 . S
C963 H942 0.950 . S
C963 C962 1.373 . S
C963 C979 1.377 . S
C964 C962 1.389 . S
C964 C965 1.524 . S
C964 C978 1.377 1_556 S
C965 C964 1.524 . S
C965 C966 1.397 . S
C965 C970 1.363 . S
C966 H943 0.950 . S
C966 C965 1.397 . S
C966 C967 1.334 . S
C967 H944 0.950 . S
C967 C966 1.334 . S
C967 C968 1.287 . S
C968 C967 1.287 . S
C968 C969 1.524 . S
C968 H987 0.913 . S
C969 H945 0.950 . S
C969 C968 1.524 . S
C969 C970 1.415 . S
C970 H946 0.950 . S
C970 C965 1.363 . S
C970 C969 1.415 . S
C971 H947 0.951 . S
C971 C972 1.366 . S
C971 C973 1.388 . S
C972 C971 1.366 . S
C972 C976 1.385 . S
C973 H948 0.951 . S
C973 C971 1.388 . S
C973 C974 1.366 . S
C974 C973 1.366 . S
C974 C975 1.414 . S
C974 C977 1.499 . S
C975 H949 0.950 . S
C975 C974 1.414 . S
C975 C976 1.374 . S
C976 H950 0.950 . S
C976 C972 1.385 . S
C976 C975 1.374 . S
C977 C974 1.499 . S
C977 C978 1.373 . S
C977 C979 1.389 1_554 S
C978 H951 0.950 . S
C978 C964 1.377 1_554 S
C978 C977 1.373 . S
C979 C963 1.377 . S
C979 C977 1.389 1_556 S
C979 C980 1.524 1_556 S
C980 C979 1.524 1_554 S
C980 C981 1.397 . S
C980 C985 1.363 1_554 S
C981 H952 0.950 . S
C981 C980 1.397 . S
C981 C982 1.334 . S
C982 H953 0.950 . S
C982 C981 1.334 . S
C982 C983 1.287 . S
C983 C982 1.287 . S
C983 C984 1.524 . S
C983 H986 0.999 . S
C984 H954 0.937 1_554 S
C984 C983 1.524 . S
C984 C985 1.415 1_554 S
C985 H955 0.950 . S
C985 C980 1.363 1_556 S
C985 C984 1.415 1_556 S
H986 C983 0.999 . S
H987 C968 0.913 . S
H988 C1006 0.951 . S
H989 C1008 0.951 . S
H990 C1010 0.950 . S
H991 C1011 0.950 . S
H992 C1013 0.950 . S
H993 C1016 0.950 . S
H994 C1017 0.950 . S
H995 C1019 0.950 . S
H996 C1020 0.950 . S
H997 C1021 0.951 . S
H998 C1023 0.951 . S
H999 C1025 0.950 . S
H1000 C1026 0.950 . S
H1001 C1028 0.950 . S
H1002 C1031 0.950 . S
H1003 C1032 0.950 . S
H1004 C1034 0.950 . S
H1005 C1035 0.950 . S
C1006 H988 0.951 . S
C1006 C1007 1.366 . S
C1006 C1008 1.388 . S
C1007 C1006 1.366 . S
C1007 C1011 1.385 1_455 S
C1008 H989 0.951 . S
C1008 C1006 1.388 . S
C1008 C1009 1.366 . S
C1009 C1008 1.366 . S
C1009 C1010 1.414 1_455 S
C1009 C1012 1.499 . S
C1010 H990 0.950 . S
C1010 C1009 1.414 1_655 S
C1010 C1011 1.374 . S
C1011 H991 0.950 . S
C1011 C1007 1.385 1_655 S
C1011 C1010 1.374 . S
C1012 C1009 1.499 . S
C1012 C1013 1.373 1_455 S
C1012 C1014 1.389 . S
C1013 H992 0.950 . S
C1013 C1012 1.373 1_655 S
C1013 C1029 1.377 . S
C1014 C1012 1.389 . S
C1014 C1015 1.524 . S
C1014 C1028 1.377 . S
C1015 C1014 1.524 . S
C1015 C1016 1.397 . S
C1015 C1020 1.363 . S
C1016 H993 0.950 . S
C1016 C1015 1.397 . S
C1016 C1017 1.334 . S
C1017 H994 0.950 . S
C1017 C1016 1.334 . S
C1017 C1018 1.287 . S
C1018 C1017 1.287 . S
C1018 C1019 1.524 . S
C1018 H1037 0.913 . S
C1019 H995 0.950 . S
C1019 C1018 1.524 . S
C1019 C1020 1.415 . S
C1020 H996 0.950 . S
C1020 C1015 1.363 . S
C1020 C1019 1.415 . S
C1021 H997 0.951 . S
C1021 C1022 1.366 1_655 S
C1021 C1023 1.388 . S
C1022 C1021 1.366 1_455 S
C1022 C1026 1.385 . S
C1023 H998 0.951 . S
C1023 C1021 1.388 . S
C1023 C1024 1.366 1_655 S
C1024 C1023 1.366 1_455 S
C1024 C1025 1.414 . S
C1024 C1027 1.499 . S
C1025 H999 0.950 . S
C1025 C1024 1.414 . S
C1025 C1026 1.374 . S
C1026 H1000 0.950 . S
C1026 C1022 1.385 . S
C1026 C1025 1.374 . S
C1027 C1024 1.499 . S
C1027 C1028 1.373 . S
C1027 C1029 1.389 1_455 S
C1028 H1001 0.950 . S
C1028 C1014 1.377 . S
C1028 C1027 1.373 . S
C1029 C1013 1.377 . S
C1029 C1027 1.389 1_655 S
C1029 C1030 1.524 . S
C1030 C1029 1.524 . S
C1030 C1031 1.397 . S
C1030 C1035 1.363 . S
C1031 H1002 0.950 . S
C1031 C1030 1.397 . S
C1031 C1032 1.334 . S
C1032 H1003 0.950 . S
C1032 C1031 1.334 . S
C1032 C1033 1.287 . S
C1033 C1032 1.287 . S
C1033 C1034 1.524 . S
C1033 H1036 0.999 . S
C1034 H1004 0.950 . S
C1034 C1033 1.524 . S
C1034 C1035 1.415 . S
C1035 H1005 0.950 . S
C1035 C1030 1.363 . S
C1035 C1034 1.415 . S
H1036 C1033 0.999 . S
H1037 C1018 0.913 . S
C157 C2 1.102 . S
C172 C129 1.038 . S
C207 C21 0.870 . S
C222 C107 0.869 . S
C257 C42 0.968 . S
C272 C120 0.962 . S
C307 C1 0.874 . S
C322 C133 0.875 . S
C372 C103 1.071 . S
C357 C22 1.132 . S
C422 C116 0.976 . S
C407 C41 1.021 . S
C457 C38 1.731 . S
C472 C81 1.717 . S
C507 C59 1.829 . S
C522 C94 1.801 . S
C557 C18 1.875 . S
C572 C64 1.742 . S
C622 C77 1.837 . S
C607 C39 1.995 . S
C672 C90 1.769 . S
C657 C58 1.894 . S
C707 C19 1.833 . S
C722 C68 1.806 . S
C772 C95 1.592 . S
C757 C9 1.549 . S
C807 C29 1.536 . S
C822 C69 1.567 . S
C857 C49 1.537 . S
C872 C82 1.625 . S
C922 C121 1.446 . S
C907 C28 1.404 . S
C972 C134 1.509 . S
C957 C48 1.489 . S
C1007 C8 1.446 . S
C1022 C108 1.480 . S
