# Generated by pormake.
# Topology nom, (4,4)-cn, num edge types: 1
# Building blocks:
#     Node 0, Type 0, BuildingBlock: NAHDIM_clean_linker_0, # of connection points: 4
#     Node 1, Type 0, BuildingBlock: NAHDIM_clean_linker_0, # of connection points: 4
#     Node 2, Type 0, BuildingBlock: NAHDIM_clean_linker_0, # of connection points: 4
#     Node 3, Type 0, BuildingBlock: NAHDIM_clean_linker_0, # of connection points: 4
#     Node 4, Type 0, BuildingBlock: NAHDIM_clean_linker_0, # of connection points: 4
#     Node 5, Type 0, BuildingBlock: NAHDIM_clean_linker_0, # of connection points: 4
#     Node 6, Type 1, BuildingBlock: CEKHIL_clean_sbu_0, # of connection points: 4
#     Node 7, Type 1, BuildingBlock: CEKHIL_clean_sbu_0, # of connection points: 4
#     Node 8, Type 1, BuildingBlock: CEKHIL_clean_sbu_0, # of connection points: 4
#     Node 9, Type 1, BuildingBlock: CEKHIL_clean_sbu_0, # of connection points: 4
#     Node 10, Type 1, BuildingBlock: CEKHIL_clean_sbu_0, # of connection points: 4
#     Node 11, Type 1, BuildingBlock: CEKHIL_clean_sbu_0, # of connection points: 4
#     Edge 12, Type (0, 1), BuildingBlock: EZIPEK_clean_linker_0, # of connection points: 2
#     Edge 13, Type (0, 1), BuildingBlock: EZIPEK_clean_linker_0, # of connection points: 2
#     Edge 14, Type (0, 1), BuildingBlock: EZIPEK_clean_linker_0, # of connection points: 2
#     Edge 15, Type (0, 1), BuildingBlock: EZIPEK_clean_linker_0, # of connection points: 2
#     Edge 16, Type (0, 1), BuildingBlock: EZIPEK_clean_linker_0, # of connection points: 2
#     Edge 17, Type (0, 1), BuildingBlock: EZIPEK_clean_linker_0, # of connection points: 2
#     Edge 18, Type (0, 1), BuildingBlock: EZIPEK_clean_linker_0, # of connection points: 2
#     Edge 19, Type (0, 1), BuildingBlock: EZIPEK_clean_linker_0, # of connection points: 2
#     Edge 20, Type (0, 1), BuildingBlock: EZIPEK_clean_linker_0, # of connection points: 2
#     Edge 21, Type (0, 1), BuildingBlock: EZIPEK_clean_linker_0, # of connection points: 2
#     Edge 22, Type (0, 1), BuildingBlock: EZIPEK_clean_linker_0, # of connection points: 2
#     Edge 23, Type (0, 1), BuildingBlock: EZIPEK_clean_linker_0, # of connection points: 2
#     Edge 24, Type (0, 1), BuildingBlock: EZIPEK_clean_linker_0, # of connection points: 2
#     Edge 25, Type (0, 1), BuildingBlock: EZIPEK_clean_linker_0, # of connection points: 2
#     Edge 26, Type (0, 1), BuildingBlock: EZIPEK_clean_linker_0, # of connection points: 2
#     Edge 27, Type (0, 1), BuildingBlock: EZIPEK_clean_linker_0, # of connection points: 2
#     Edge 28, Type (0, 1), BuildingBlock: EZIPEK_clean_linker_0, # of connection points: 2
#     Edge 29, Type (0, 1), BuildingBlock: EZIPEK_clean_linker_0, # of connection points: 2
#     Edge 30, Type (0, 1), BuildingBlock: EZIPEK_clean_linker_0, # of connection points: 2
#     Edge 31, Type (0, 1), BuildingBlock: EZIPEK_clean_linker_0, # of connection points: 2
#     Edge 32, Type (0, 1), BuildingBlock: EZIPEK_clean_linker_0, # of connection points: 2
#     Edge 33, Type (0, 1), BuildingBlock: EZIPEK_clean_linker_0, # of connection points: 2
#     Edge 34, Type (0, 1), BuildingBlock: EZIPEK_clean_linker_0, # of connection points: 2
#     Edge 35, Type (0, 1), BuildingBlock: EZIPEK_clean_linker_0, # of connection points: 2
# Relax obj value: 0.044
# Max RMSD: 0.130
# Mean RMSD: 0.097
data_MOF--net-nom--node1-CEKHIL_clean_sbu_0--node2-NAHDIM_clean_linker_0--edge1-EZIPEK_clean_linker_0
_symmetry_space_group_name_H-M    P1
_symmetry_Int_Tables_number       1
_symmetry_cell_setting            triclinic
loop_
_symmetry_equiv_pos_as_xyz
'x, y, z'
_cell_length_a     47.321451
_cell_length_b     46.701526
_cell_length_c     56.521207
_cell_angle_alpha  90.127314
_cell_angle_beta   90.105244
_cell_angle_gamma 121.31232
loop_
_atom_site_label
_atom_site_type_symbol
_atom_site_fract_x
_atom_site_fract_y
_atom_site_fract_z
_atom_type_partial_charge
C0 C 0.2233 0.70504 0.23189 0.0
C1 C 0.2191 0.67519 0.24608 0.0
C2 C 0.1676 0.64055 0.26781 0.0
C3 C 0.16246 0.60854 0.26373 0.0
C4 C 0.13126 0.57971 0.26752 0.0
C5 C 0.10486 0.58321 0.27545 0.0
C6 C 0.11028 0.61556 0.27991 0.0
C7 C 0.14181 0.64375 0.27644 0.0
C8 C 0.12651 0.54559 0.2632 0.0
C9 C 0.08272 0.62054 0.28805 0.0
C10 C 0.90186 0.45828 0.14625 0.0
C11 C 0.9272 0.48207 0.16335 0.0
C12 C 0.95941 0.48029 0.19671 0.0
C13 C 0.96754 0.51149 0.20627 0.0
C14 C 0.98637 0.52356 0.22709 0.0
C15 C 0.99768 0.50429 0.23834 0.0
C16 C 0.99 0.47316 0.22853 0.0
C17 C 0.97073 0.46148 0.20789 0.0
C18 C 0.99399 0.55679 0.23721 0.0
C19 C 0.00205 0.45222 0.23991 0.0
C20 C 0.85441 0.434 0.36176 0.0
C21 C 0.87226 0.46766 0.35484 0.0
C22 C 0.90658 0.4843 0.35146 0.0
C23 C 0.92322 0.46667 0.35485 0.0
C24 C 0.90525 0.43279 0.36212 0.0
C25 C 0.87107 0.41705 0.36582 0.0
C26 C 0.92508 0.52083 0.34458 0.0
C27 C 0.92213 0.41326 0.36604 0.0
C28 C 0.08209 0.59204 0.47891 0.0
C29 C 0.1065 0.58584 0.4651 0.0
C30 C 0.07249 0.54676 0.43321 0.0
C31 C 0.06655 0.5691 0.42063 0.0
C32 C 0.04708 0.55872 0.40003 0.0
C33 C 0.03419 0.52571 0.39142 0.0
C34 C 0.04041 0.50332 0.4039 0.0
C35 C 0.05928 0.51412 0.42474 0.0
C36 C 0.04032 0.58306 0.38745 0.0
C37 C 0.0271 0.46796 0.39524 0.0
C38 C 0.07123 0.55343 0.27853 0.0
C39 C 0.0513 0.54004 0.25843 0.0
C40 C 0.01747 0.51666 0.2604 0.0
C41 C 0.00282 0.50693 0.28302 0.0
C42 C 0.96845 0.48559 0.28571 0.0
C43 C 0.95419 0.4777 0.30809 0.0
C44 C 0.97381 0.4905 0.32859 0.0
C45 C 0.95951 0.48404 0.35136 0.0
C46 C 0.97982 0.49578 0.3714 0.0
C47 C 0.01424 0.51452 0.36936 0.0
C48 C 0.02898 0.5227 0.34672 0.0
C49 C 0.06348 0.54284 0.34398 0.0
C50 C 0.07747 0.55269 0.32163 0.0
C51 C 0.05757 0.54182 0.30119 0.0
C52 C 0.02305 0.51946 0.30348 0.0
C53 C 0.00862 0.51065 0.32628 0.0
C54 C 0.77817 0.38627 0.33789 0.0
C55 C 0.79764 0.41873 0.35234 0.0
O56 O 0.19725 0.66895 0.2643 0.0
O57 O 0.09037 0.55516 0.4536 0.0
O58 O 0.82145 0.41761 0.36592 0.0
O59 O 0.94034 0.46715 0.17705 0.0
H60 H 0.20794 0.65399 0.23334 0.0
H61 H 0.19899 0.69916 0.22465 0.0
H62 H 0.2332 0.72772 0.24327 0.0
H63 H 0.24044 0.71056 0.21683 0.0
H64 H 0.18283 0.606 0.25801 0.0
H65 H 0.14631 0.66864 0.27986 0.0
H66 H 0.10945 0.53345 0.24798 0.0
H67 H 0.15019 0.54698 0.25932 0.0
H68 H 0.11495 0.5294 0.2789 0.0
H69 H 0.08989 0.64726 0.28738 0.0
H70 H 0.06031 0.6056 0.27692 0.0
H71 H 0.07607 0.61175 0.30656 0.0
H72 H 0.94676 0.50637 0.15567 0.0
H73 H 0.91297 0.46792 0.12831 0.0
H74 H 0.90425 0.43553 0.14537 0.0
H75 H 0.85935 0.45586 0.1572 0.0
H76 H 0.95909 0.52641 0.19771 0.0
H77 H 0.96434 0.43746 0.20036 0.0
H78 H 0.98615 0.55371 0.256 0.0
H79 H 0.02109 0.57482 0.23674 0.0
H80 H 0.98148 0.56765 0.22727 0.0
H81 H 0.99558 0.42953 0.22931 0.0
H82 H 0.02933 0.4674 0.24222 0.0
H83 H 0.99095 0.44423 0.25775 0.0
H84 H 0.80968 0.43817 0.3386 0.0
H85 H 0.85963 0.48125 0.35272 0.0
H86 H 0.85704 0.39119 0.37161 0.0
H87 H 0.93437 0.52346 0.32622 0.0
H88 H 0.90923 0.53188 0.34546 0.0
H89 H 0.94683 0.53543 0.35636 0.0
H90 H 0.90413 0.38612 0.36873 0.0
H91 H 0.9381 0.41631 0.35071 0.0
H92 H 0.93826 0.42322 0.38193 0.0
H93 H 0.11808 0.60648 0.45202 0.0
H94 H 0.09588 0.61488 0.49009 0.0
H95 H 0.06635 0.59621 0.46656 0.0
H96 H 0.06528 0.57065 0.49032 0.0
H97 H 0.07674 0.59456 0.42673 0.0
H98 H 0.06395 0.49707 0.43455 0.0
H99 H 0.05385 0.59052 0.37041 0.0
H100 H 0.01353 0.57102 0.38339 0.0
H101 H 0.04824 0.60607 0.39808 0.0
H102 H 0.03664 0.45468 0.40578 0.0
H103 H -0.0003 0.45365 0.39638 0.0
H104 H 0.03378 0.46816 0.37639 0.0
H105 H 0.06198 0.54896 0.24106 0.0
H106 H 0.95212 0.4753 0.27055 0.0
H107 H 0.92756 0.46158 0.30912 0.0
H108 H 0.96867 0.49058 0.38884 0.0
H109 H 0.07999 0.55195 0.35909 0.0
H110 H 0.10408 0.56896 0.32051 0.0
H111 H 0.75965 0.38742 0.32647 0.0
H112 H 0.79534 0.38318 0.32628 0.0
H113 H 0.76505 0.36378 0.34926 0.0
C114 C 0.3359 0.80677 0.59145 0.0
C115 C 0.36183 0.81595 0.57213 0.0
C116 C 0.38898 0.86843 0.5496 0.0
C117 C 0.42005 0.87169 0.54704 0.0
C118 C 0.44748 0.90196 0.5393 0.0
C119 C 0.44359 0.92927 0.53385 0.0
C120 C 0.41199 0.92552 0.5355 0.0
C121 C 0.38504 0.89496 0.54314 0.0
C122 C 0.48069 0.90497 0.53722 0.0
C123 C 0.40682 0.95404 0.52977 0.0
C124 C 0.55769 0.05968 0.6629 0.0
C125 C 0.55707 0.08652 0.64756 0.0
C126 C 0.56119 0.07353 0.60638 0.0
C127 C 0.53293 0.07183 0.59689 0.0
C128 C 0.51839 0.05393 0.57597 0.0
C129 C 0.53268 0.03777 0.56417 0.0
C130 C 0.56206 0.04078 0.57309 0.0
C131 C 0.57614 0.05895 0.59405 0.0
C132 C 0.48745 0.05184 0.56666 0.0
C133 C 0.57815 0.02425 0.56072 0.0
C134 C 0.6046 0.17502 0.44375 0.0
C135 C 0.5707 0.1611 0.44769 0.0
C136 C 0.54923 0.12625 0.44871 0.0
C137 C 0.562 0.10501 0.44555 0.0
C138 C 0.59582 0.11896 0.44012 0.0
C139 C 0.61669 0.15393 0.43911 0.0
C140 C 0.51308 0.11213 0.45389 0.0
C141 C 0.6101 0.09699 0.43637 0.0
C142 C 0.38534 0.86819 0.36148 0.0
C143 C 0.42305 0.8902 0.35936 0.0
C144 C 0.44953 0.94618 0.3765 0.0
C145 C 0.43984 0.96807 0.38456 0.0
C146 C 0.45678 0.99053 0.40321 0.0
C147 C 0.48458 0.99155 0.41353 0.0
C148 C 0.49569 0.97085 0.40441 0.0
C149 C 0.47796 0.94829 0.38602 0.0
C150 C 0.44449 0.01252 0.4123 0.0
C151 C 0.52592 0.9721 0.41439 0.0
C152 C 0.47275 0.96249 0.528 0.0
C153 C 0.491 0.98342 0.54685 0.0
C154 C 0.51603 0.01665 0.54307 0.0
C155 C 0.52313 0.02959 0.51984 0.0
C156 C 0.54709 0.06333 0.5155 0.0
C157 C 0.55296 0.07612 0.49266 0.0
C158 C 0.53541 0.05555 0.47323 0.0
C159 C 0.54053 0.06857 0.45003 0.0
C160 C 0.52386 0.04721 0.43096 0.0
C161 C 0.50116 0.01308 0.43452 0.0
C162 C 0.49436 -5e-05 0.45776 0.0
C163 C 0.47026 0.9662 0.46216 0.0
C164 C 0.46329 0.95376 0.48513 0.0
C165 C 0.48038 0.97451 0.50455 0.0
C166 C 0.50534 0.00835 0.5005 0.0
C167 C 0.51187 0.02123 0.47713 0.0
C168 C 0.65843 0.25626 0.46911 0.0
C169 C 0.62439 0.2319 0.45829 0.0
O170 O 0.3621 0.8402 0.55799 0.0
O171 O 0.4311 0.92331 0.35952 0.0
O172 O 0.62635 0.20857 0.4443 0.0
O173 O 0.57475 0.08935 0.62723 0.0
H174 H 0.38564 0.82698 0.58183 0.0
H175 H 0.34199 0.82943 0.60195 0.0
H176 H 0.31088 0.79643 0.58357 0.0
H177 H 0.33543 0.7879 0.60365 0.0
H178 H 0.42299 0.85076 0.55097 0.0
H179 H 0.36081 0.89192 0.54477 0.0
H180 H 0.49789 0.92308 0.55065 0.0
H181 H 0.47904 0.88058 0.53992 0.0
H182 H 0.49147 0.91486 0.51952 0.0
H183 H 0.381 0.9475 0.53307 0.0
H184 H 0.42381 0.9764 0.54057 0.0
H185 H 0.41272 0.96102 0.51089 0.0
H186 H 0.53094 0.07773 0.64322 0.0
H187 H 0.54166 0.05309 0.67868 0.0
H188 H 0.54856 0.03631 0.65243 0.0
H189 H 0.58338 0.0685 0.66881 0.0
H190 H 0.52226 0.08462 0.60568 0.0
H191 H 0.59836 0.06102 0.60128 0.0
H192 H 0.46652 0.02547 0.5675 0.0
H193 H 0.48077 0.06777 0.57694 0.0
H194 H 0.4908 0.05964 0.54783 0.0
H195 H 0.60119 0.02932 0.56975 0.0
H196 H 0.56061 0.99673 0.55998 0.0
H197 H 0.58414 0.03336 0.54222 0.0
H198 H 0.60925 0.21883 0.47394 0.0
H199 H 0.561 0.17736 0.44996 0.0
H200 H 0.64284 0.165 0.43558 0.0
H201 H 0.50711 0.10024 0.47161 0.0
H202 H 0.50645 0.13173 0.45363 0.0
H203 H 0.49752 0.09243 0.44072 0.0
H204 H 0.63666 0.11167 0.43144 0.0
H205 H 0.60747 0.08289 0.45283 0.0
H206 H 0.59611 0.07834 0.42221 0.0
H207 H 0.43333 0.88533 0.37541 0.0
H208 H 0.37738 0.84134 0.36329 0.0
H209 H 0.37687 0.87556 0.37743 0.0
H210 H 0.37315 0.87122 0.34566 0.0
H211 H 0.41821 0.96665 0.37675 0.0
H212 H 0.48629 0.93228 0.37907 0.0
H213 H 0.43984 0.00876 0.43162 0.0
H214 H 0.46376 0.03925 0.40951 0.0
H215 H 0.42139 0.00732 0.40329 0.0
H216 H 0.53378 0.95772 0.40339 0.0
H217 H 0.54679 0.99848 0.41577 0.0
H218 H 0.52047 0.96141 0.43249 0.0
H219 H 0.48484 0.97405 0.56482 0.0
H220 H 0.56129 0.08033 0.52977 0.0
H221 H 0.57147 0.10239 0.49045 0.0
H222 H 0.5283 0.05733 0.41318 0.0
H223 H 0.45618 0.9491 0.44792 0.0
H224 H 0.44433 0.92767 0.48751 0.0
H225 H 0.65671 0.27394 0.48135 0.0
H226 H 0.6672 0.24207 0.47939 0.0
H227 H 0.6772 0.27104 0.45545 0.0
C228 C 0.53353 0.34111 0.74582 0.0
C229 C 0.56316 0.36101 0.72923 0.0
C230 C 0.54862 0.39573 0.70671 0.0
C231 C 0.57335 0.42851 0.71283 0.0
C232 C 0.56821 0.4553 0.70986 0.0
C233 C 0.5375 0.44892 0.70097 0.0
C234 C 0.51233 0.41569 0.69515 0.0
C235 C 0.51859 0.38964 0.6976 0.0
C236 C 0.59573 0.49043 0.71584 0.0
C237 C 0.4788 0.40759 0.68635 0.0
C238 C 0.45174 0.56088 0.83056 0.0
C239 C 0.45215 0.54019 0.81068 0.0
C240 C 0.48807 0.54485 0.7779 0.0
C241 C 0.4642 0.51533 0.76635 0.0
C242 C 0.47197 0.50464 0.74545 0.0
C243 C 0.50422 0.52375 0.73599 0.0
C244 C 0.52823 0.55352 0.74751 0.0
C245 C 0.51974 0.56373 0.76831 0.0
C246 C 0.44575 0.47286 0.73348 0.0
C247 C 0.56286 0.57441 0.73791 0.0
C248 C 0.44103 0.59696 0.61048 0.0
C249 C 0.42361 0.56301 0.61665 0.0
C250 C 0.44028 0.54581 0.62025 0.0
C251 C 0.47513 0.56314 0.61776 0.0
C252 C 0.49261 0.59723 0.61097 0.0
C253 C 0.47518 0.61358 0.60712 0.0
C254 C 0.42063 0.50911 0.62661 0.0
C255 C 0.52967 0.61641 0.60796 0.0
C256 C 0.49727 0.42896 0.4996 0.0
C257 C 0.52955 0.43581 0.51161 0.0
C258 C 0.53869 0.47729 0.54246 0.0
C259 C 0.51093 0.45592 0.55632 0.0
C260 C 0.50322 0.46795 0.57657 0.0
C261 C 0.52447 0.50167 0.58372 0.0
C262 C 0.55284 0.52303 0.57015 0.0
C263 C 0.55936 0.51059 0.54957 0.0
C264 C 0.47226 0.44455 0.59025 0.0
C265 C 0.57624 0.55902 0.57734 0.0
C266 C 0.53156 0.47681 0.69732 0.0
C267 C 0.52346 0.4893 0.71697 0.0
C268 C 0.51305 0.51217 0.71432 0.0
C269 C 0.50967 0.52221 0.69142 0.0
C270 C 0.49726 0.54349 0.68799 0.0
C271 C 0.49227 0.55159 0.66529 0.0
C272 C 0.49982 0.53899 0.6452 0.0
C273 C 0.49314 0.54546 0.62208 0.0
C274 C 0.50189 0.53341 0.60251 0.0
C275 C 0.51693 0.5146 0.60533 0.0
C276 C 0.52297 0.50706 0.62832 0.0
C277 C 0.53738 0.48759 0.63185 0.0
C278 C 0.54075 0.47808 0.65447 0.0
C279 C 0.53054 0.48834 0.67444 0.0
C280 C 0.51842 0.51016 0.67142 0.0
C281 C 0.51401 0.519 0.6483 0.0
C282 C 0.41056 0.64699 0.62982 0.0
C283 C 0.40002 0.61214 0.62011 0.0
O284 O 0.55342 0.36966 0.70871 0.0
O285 O 0.54638 0.46725 0.5221 0.0
O286 O 0.42556 0.61415 0.60683 0.0
O287 O 0.4816 0.55604 0.79818 0.0
H288 H 0.58009 0.38381 0.73967 0.0
H289 H 0.52432 0.35743 0.75195 0.0
H290 H 0.51263 0.31893 0.73708 0.0
H291 H 0.54121 0.3327 0.76165 0.0
H292 H 0.59692 0.43336 0.71939 0.0
H293 H 0.49978 0.36419 0.69284 0.0
H294 H 0.58821 0.50006 0.73104 0.0
H295 H 0.6191 0.49156 0.72053 0.0
H296 H 0.60043 0.50731 0.70061 0.0
H297 H 0.46035 0.38025 0.68682 0.0
H298 H 0.46942 0.42079 0.69716 0.0
H299 H 0.48093 0.4162 0.6678 0.0
H300 H 0.44421 0.51388 0.81543 0.0
H301 H 0.45032 0.54667 0.84702 0.0
H302 H 0.47808 0.58171 0.83366 0.0
H303 H 0.415 0.56974 0.82102 0.0
H304 H 0.4395 0.50053 0.77351 0.0
H305 H 0.53793 0.58651 0.77729 0.0
H306 H 0.44261 0.47818 0.71484 0.0
H307 H 0.45371 0.4543 0.73318 0.0
H308 H 0.42147 0.46151 0.74255 0.0
H309 H 0.57874 0.59682 0.74904 0.0
H310 H 0.57444 0.55898 0.73681 0.0
H311 H 0.56194 0.58278 0.7197 0.0
H312 H 0.39677 0.59741 0.63626 0.0
H313 H 0.397 0.54978 0.61812 0.0
H314 H 0.48824 0.6397 0.6019 0.0
H315 H 0.42628 0.50587 0.64513 0.0
H316 H 0.39355 0.4984 0.62502 0.0
H317 H 0.42771 0.49462 0.61501 0.0
H318 H 0.53989 0.64353 0.60483 0.0
H319 H 0.54168 0.61353 0.62393 0.0
H320 H 0.53618 0.60599 0.59268 0.0
H321 H 0.52151 0.41608 0.5253 0.0
H322 H 0.487 0.40631 0.48816 0.0
H323 H 0.47823 0.42415 0.51299 0.0
H324 H 0.50092 0.45038 0.48881 0.0
H325 H 0.4949 0.4299 0.55151 0.0
H326 H 0.58079 0.52689 0.53888 0.0
H327 H 0.47914 0.43773 0.60718 0.0
H328 H 0.45832 0.45702 0.59455 0.0
H329 H 0.45569 0.42109 0.58029 0.0
H330 H 0.59897 0.57128 0.56635 0.0
H331 H 0.56357 0.57331 0.57548 0.0
H332 H 0.58346 0.56038 0.5962 0.0
H333 H 0.52436 0.48038 0.73451 0.0
H334 H 0.49065 0.55357 0.70279 0.0
H335 H 0.48215 0.56764 0.66368 0.0
H336 H 0.49639 0.53824 0.58483 0.0
H337 H 0.5455 0.47879 0.61713 0.0
H338 H 0.55127 0.46239 0.65613 0.0
H339 H 0.39071 0.64558 0.64115 0.0
H340 H 0.43325 0.65657 0.64079 0.0
H341 H 0.41592 0.66524 0.61544 0.0
C342 C 0.20473 0.54634 0.92253 0.0
C343 C 0.2154 0.56897 0.90058 0.0
C344 C 0.16339 0.54734 0.87933 0.0
C345 C 0.157 0.57334 0.88192 0.0
C346 C 0.12496 0.56735 0.87852 0.0
C347 C 0.09894 0.5347 0.87251 0.0
C348 C 0.10535 0.5084 0.87017 0.0
C349 C 0.1377 0.51526 0.8732 0.0
C350 C 0.11902 0.59601 0.8807 0.0
C351 C 0.07815 0.47314 0.86408 0.0
C352 C 0.87185 0.42581 0.98159 0.0
C353 C 0.88897 0.43382 0.95823 0.0
C354 C 0.94046 0.47537 0.93923 0.0
C355 C 0.94055 0.45312 0.92244 0.0
C356 C 0.9643 0.46457 0.90449 0.0
C357 C 0.98735 0.49937 0.90224 0.0
C358 C 0.98734 0.52195 0.91899 0.0
C359 C 0.96424 0.50952 0.93755 0.0
C360 C 0.96436 0.4392 0.88786 0.0
C361 C 0.01133 0.5592 0.91708 0.0
C362 C 0.85842 0.4489 0.77847 0.0
C363 C 0.87132 0.42909 0.78533 0.0
C364 C 0.90555 0.44303 0.78746 0.0
C365 C 0.92723 0.47761 0.78298 0.0
C366 C 0.91433 0.49735 0.77522 0.0
C367 C 0.87999 0.48254 0.77278 0.0
C368 C 0.91848 0.42087 0.79487 0.0
C369 C 0.93676 0.5342 0.77014 0.0
C370 C 0.16536 0.57265 0.70828 0.0
C371 C 0.13548 0.56362 0.6923 0.0
C372 C 0.08548 0.52903 0.71627 0.0
C373 C 0.06612 0.4969 0.72572 0.0
C374 C 0.04334 0.49033 0.74388 0.0
C375 C 0.03953 0.51657 0.75251 0.0
C376 C 0.05789 0.54878 0.74236 0.0
C377 C 0.08074 0.55478 0.72442 0.0
C378 C 0.02394 0.4556 0.75425 0.0
C379 C 0.05375 0.57708 0.75082 0.0
C380 C 0.06541 0.52831 0.86722 0.0
C381 C 0.04352 0.521 0.88602 0.0
C382 C 0.01067 0.51179 0.88194 0.0
C383 C 0.99942 0.51027 0.85849 0.0
C384 C 0.96675 0.50169 0.85372 0.0
C385 C 0.95494 0.49682 0.83062 0.0
C386 C 0.97548 0.50075 0.81139 0.0
C387 C 0.96307 0.49335 0.78798 0.0
C388 C 0.98441 0.49877 0.76915 0.0
C389 C 0.01796 0.51099 0.77315 0.0
C390 C 0.03056 0.51733 0.79653 0.0
C391 C 0.06395 0.52859 0.80123 0.0
C392 C 0.07566 0.53309 0.82435 0.0
C393 C 0.05441 0.52636 0.84367 0.0
C394 C 0.02112 0.51662 0.83931 0.0
C395 C 0.00913 0.5119 0.81571 0.0
C396 C 0.77199 0.41564 0.79212 0.0
C397 C 0.80086 0.40989 0.78942 0.0
O398 O 0.19425 0.55263 0.88176 0.0
O399 O 0.10792 0.53369 0.69933 0.0
O400 O 0.82539 0.43622 0.77653 0.0
O401 O 0.91819 0.46478 0.95727 0.0
H402 H 0.21318 0.59038 0.90635 0.0
H403 H 0.18019 0.54113 0.92864 0.0
H404 H 0.20255 0.52194 0.91902 0.0
H405 H 0.22276 0.55918 0.93717 0.0
H406 H 0.17711 0.59849 0.88587 0.0
H407 H 0.14306 0.49549 0.87107 0.0
H408 H 0.10025 0.59025 0.8946 0.0
H409 H 0.14194 0.62004 0.88524 0.0
H410 H 0.10898 0.59911 0.86377 0.0
H411 H 0.08632 0.45484 0.86598 0.0
H412 H 0.05637 0.46529 0.87562 0.0
H413 H 0.07009 0.47229 0.8455 0.0
H414 H 0.87285 0.42951 0.94254 0.0
H415 H 0.87325 0.38419 0.99275 0.0
H416 H 0.88356 0.44996 0.99196 0.0
H417 H 0.848 0.42494 0.97812 0.0
H418 H 0.92242 0.42662 0.92325 0.0
H419 H 0.96415 0.52657 0.95055 0.0
H420 H 0.95134 0.43815 0.87124 0.0
H421 H 0.98998 0.44618 0.8833 0.0
H422 H 0.95142 0.41366 0.89563 0.0
H423 H 0.00602 0.57365 0.93009 0.0
H424 H 0.03688 0.56475 0.92017 0.0
H425 H 0.01042 0.56791 0.89898 0.0
H426 H 0.81025 0.41153 0.80767 0.0
H427 H 0.85483 0.40272 0.78878 0.0
H428 H 0.86973 0.49742 0.76705 0.0
H429 H 0.92781 0.42703 0.81333 0.0
H430 H 0.89903 0.39385 0.79403 0.0
H431 H 0.93943 0.42535 0.78342 0.0
H432 H 0.92274 0.54629 0.76494 0.0
H433 H 0.95191 0.54719 0.78605 0.0
H434 H 0.95402 0.5376 0.75564 0.0
H435 H 0.1321 0.5851 0.69485 0.0
H436 H 0.18829 0.59406 0.70074 0.0
H437 H 0.16141 0.58029 0.72601 0.0
H438 H 0.16904 0.55136 0.71108 0.0
H439 H 0.06952 0.47706 0.71918 0.0
H440 H 0.09431 0.5796 0.71699 0.0
H441 H 0.02987 0.45663 0.77337 0.0
H442 H 0.99704 0.44589 0.75274 0.0
H443 H 0.02935 0.43776 0.74533 0.0
H444 H 0.06804 0.60008 0.74 0.0
H445 H 0.0272 0.5692 0.75028 0.0
H446 H 0.06216 0.58324 0.76949 0.0
H447 H 0.05178 0.52112 0.90396 0.0
H448 H 0.94973 0.49794 0.86783 0.0
H449 H 0.92936 0.48951 0.82806 0.0
H450 H 0.97473 0.49305 0.75123 0.0
H451 H 0.08133 0.53353 0.78712 0.0
H452 H 0.1015 0.54139 0.82687 0.0
H453 H 0.75213 0.39557 0.8031 0.0
H454 H 0.78062 0.4401 0.801 0.0
H455 H 0.76156 0.41592 0.77455 0.0
C456 C 0.44782 0.80153 0.89823 0.0
C457 C 0.45864 0.80644 0.92433 0.0
C458 C 0.49114 0.8676 0.93116 0.0
C459 C 0.46451 0.87301 0.93123 0.0
C460 C 0.46983 0.905 0.93586 0.0
C461 C 0.50234 0.93205 0.94015 0.0
C462 C 0.52926 0.92693 0.93906 0.0
C463 C 0.5232 0.89467 0.93476 0.0
C464 C 0.44069 0.90982 0.93666 0.0
C465 C 0.56441 0.95539 0.9429 0.0
C466 C 0.50948 0.10504 0.82162 0.0
C467 C 0.53571 0.10315 0.83632 0.0
C468 C 0.52841 0.08529 0.87731 0.0
C469 C 0.55355 0.07851 0.88128 0.0
C470 C 0.55097 0.05714 0.89969 0.0
C471 C 0.52244 0.04209 0.9142 0.0
C472 C 0.49689 0.04877 0.90997 0.0
C473 C 0.50057 0.07088 0.89183 0.0
C474 C 0.57891 0.05103 0.90386 0.0
C475 C 0.46579 0.0327 0.92466 0.0
C476 C 0.58695 0.17119 0.03979 0.0
C477 C 0.60824 0.15985 0.03372 0.0
C478 C 0.59621 0.12555 0.03123 0.0
C479 C 0.56218 0.10219 0.03484 0.0
C480 C 0.54099 0.11343 0.04211 0.0
C481 C 0.5538 0.14791 0.04469 0.0
C482 C 0.61968 0.11431 0.02406 0.0
C483 C 0.50466 0.08909 0.04628 0.0
C484 C 0.53313 0.87746 0.11651 0.0
C485 C 0.51255 0.89423 0.11651 0.0
C486 C 0.53315 0.94861 0.09831 0.0
C487 C 0.56243 0.96946 0.08612 0.0
C488 C 0.56326 0.98986 0.06762 0.0
C489 C 0.53418 0.98984 0.06164 0.0
C490 C 0.50473 0.96956 0.07453 0.0
C491 C 0.50455 0.94909 0.09278 0.0
C492 C 0.59513 0.01126 0.05434 0.0
C493 C 0.47355 0.96959 0.06899 0.0
C494 C 0.50829 0.9654 0.94695 0.0
C495 C 0.51096 0.9872 0.929 0.0
C496 C 0.51968 0.0201 0.93414 0.0
C497 C 0.52621 0.03172 0.95783 0.0
C498 C 0.53638 0.06502 0.96355 0.0
C499 C 0.54317 0.07631 0.98683 0.0
C500 C 0.54035 0.05482 0.0053 0.0
C501 C 0.54841 0.06644 0.02889 0.0
C502 C 0.54533 0.04455 0.04688 0.0
C503 C 0.53475 0.0111 0.04192 0.0
C504 C 0.52687 0.99905 0.01837 0.0
C505 C 0.51664 0.96572 0.01266 0.0
C506 C 0.51005 0.95448 0.98934 0.0
C507 C 0.51351 0.97616 0.97081 0.0
C508 C 0.52292 0.00957 0.97622 0.0
C509 C 0.52979 0.02108 1e-05 0.0
C510 C 0.618 0.25929 0.02741 0.0
C511 C 0.62407 0.23026 0.02976 0.0
O512 O 0.48744 0.83703 0.92783 0.0
O513 O 0.53327 0.92876 0.1157 0.0
O514 O 0.59743 0.20424 0.04137 0.0
O515 O 0.531 0.10659 0.86008 0.0
H516 H 0.4379 0.80552 0.93405 0.0
H517 H 0.4418 0.82067 0.89301 0.0
H518 H 0.46724 0.80384 0.8861 0.0
H519 H 0.42524 0.77641 0.89568 0.0
H520 H 0.43956 0.85258 0.9279 0.0
H521 H 0.54357 0.89032 0.9344 0.0
H522 H 0.44362 0.92814 0.92293 0.0
H523 H 0.41679 0.88604 0.93365 0.0
H524 H 0.43986 0.92033 0.95411 0.0
H525 H 0.58273 0.94821 0.93831 0.0
H526 H 0.5695 0.9774 0.9321 0.0
H527 H 0.56795 0.96319 0.96176 0.0
H528 H 0.52989 0.07722 0.83305 0.0
H529 H 0.51249 0.10142 0.80255 0.0
H530 H 0.48439 0.08486 0.82714 0.0
H531 H 0.51099 0.12939 0.82386 0.0
H532 H 0.5755 0.09064 0.87038 0.0
H533 H 0.48145 0.07662 0.88862 0.0
H534 H 0.57022 0.02436 0.90007 0.0
H535 H 0.60064 0.06702 0.89249 0.0
H536 H 0.58682 0.05594 0.92269 0.0
H537 H 0.44643 0.03658 0.91694 0.0
H538 H 0.45566 0.00537 0.92636 0.0
H539 H 0.47167 0.04368 0.94273 0.0
H540 H 0.6237 0.22208 0.01132 0.0
H541 H 0.6342 0.17755 0.03099 0.0
H542 H 0.53772 0.15695 0.04981 0.0
H543 H 0.61355 0.10378 0.00587 0.0
H544 H 0.64591 0.13522 0.0244 0.0
H545 H 0.61688 0.09419 0.03604 0.0
H546 H 0.49165 0.1018 0.0525 0.0
H547 H 0.49282 0.07541 0.02961 0.0
H548 H 0.50147 0.07024 0.05963 0.0
H549 H 0.49884 0.88538 0.09958 0.0
H550 H 0.51651 0.84976 0.11644 0.0
H551 H 0.5486 0.88473 0.10031 0.0
H552 H 0.54983 0.88471 0.13202 0.0
H553 H 0.58448 0.96916 0.09084 0.0
H554 H 0.48235 0.93392 0.10301 0.0
H555 H 0.59104 0.00544 0.03514 0.0
H556 H 0.60336 0.03811 0.05663 0.0
H557 H 0.61519 0.00739 0.06054 0.0
H558 H 0.45293 0.95308 0.08105 0.0
H559 H 0.47842 0.9955 0.07041 0.0
H560 H 0.46574 0.96101 0.0505 0.0
H561 H 0.50679 0.97864 0.91075 0.0
H562 H 0.53943 0.08286 0.95009 0.0
H563 H 0.5509 0.10223 0.9901 0.0
H564 H 0.55201 0.05386 0.06488 0.0
H565 H 0.51384 0.948 0.02614 0.0
H566 H 0.50237 0.92859 0.98601 0.0
H567 H 0.63871 0.28049 0.01773 0.0
H568 H 0.59478 0.25094 0.01734 0.0
H569 H 0.6156 0.26826 0.04509 0.0
C570 C 0.66997 0.48078 0.05412 0.0
C571 C 0.65962 0.45998 0.07695 0.0
C572 C 0.63092 0.48104 0.10032 0.0
C573 C 0.59844 0.45328 0.10059 0.0
C574 C 0.57168 0.45721 0.10597 0.0
C575 C 0.57762 0.48958 0.11101 0.0
C576 C 0.61039 0.51756 0.11076 0.0
C577 C 0.63667 0.51275 0.10585 0.0
C578 C 0.53716 0.42678 0.10662 0.0
C579 C 0.61775 0.55259 0.11565 0.0
C580 C 0.37509 0.49607 0.01904 0.0
C581 C 0.41236 0.51744 0.02405 0.0
C582 C 0.44483 0.49883 0.0451 0.0
C583 C 0.4754 0.52811 0.04919 0.0
C584 C 0.49579 0.52994 0.06795 0.0
C585 C 0.48546 0.50159 0.08253 0.0
C586 C 0.45508 0.47161 0.07782 0.0
C587 C 0.4352 0.47059 0.05901 0.0
C588 C 0.52831 0.56206 0.07224 0.0
C589 C 0.44357 0.44073 0.09272 0.0
C590 C 0.4363 0.5881 0.20662 0.0
C591 C 0.46909 0.60661 0.19881 0.0
C592 C 0.48747 0.59114 0.19549 0.0
C593 C 0.47261 0.55644 0.20009 0.0
C594 C 0.43985 0.53798 0.20872 0.0
C595 C 0.42222 0.55423 0.21213 0.0
C596 C 0.52272 0.61184 0.18697 0.0
C597 C 0.42334 0.50102 0.21387 0.0
C598 C 0.64285 0.4954 0.27708 0.0
C599 C 0.60592 0.47862 0.28291 0.0
C600 C 0.57926 0.50736 0.26757 0.0
C601 C 0.59218 0.53927 0.25793 0.0
C602 C 0.57554 0.54486 0.23962 0.0
C603 C 0.54497 0.51791 0.23124 0.0
C604 C 0.53095 0.486 0.24194 0.0
C605 C 0.54832 0.48108 0.26002 0.0
C606 C 0.591 0.57924 0.22876 0.0
C607 C 0.4979 0.457 0.23396 0.0
C608 C 0.54981 0.49437 0.11697 0.0
C609 C 0.53063 0.49528 0.09848 0.0
C610 C 0.50628 0.50308 0.10272 0.0
C611 C 0.50173 0.51153 0.12586 0.0
C612 C 0.47925 0.52197 0.1305 0.0
C613 C 0.47578 0.53122 0.15324 0.0
C614 C 0.494 0.52949 0.17231 0.0
C615 C 0.49127 0.53955 0.19539 0.0
C616 C 0.50799 0.53539 0.21423 0.0
C617 C 0.5285 0.52253 0.2105 0.0
C618 C 0.53333 0.51453 0.18728 0.0
C619 C 0.55548 0.50365 0.18268 0.0
C620 C 0.56081 0.49686 0.15969 0.0
C621 C 0.54376 0.5001 0.14048 0.0
C622 C 0.5203 0.50964 0.14484 0.0
C623 C 0.51574 0.51772 0.16818 0.0
C624 C 0.38151 0.61378 0.18816 0.0
C625 C 0.41734 0.62593 0.19514 0.0
O626 O 0.65734 0.478 0.09556 0.0
O627 O 0.59694 0.50252 0.28427 0.0
O628 O 0.4178 0.60226 0.20961 0.0
O629 O 0.42485 0.49666 0.02714 0.0
H630 H 0.63487 0.43837 0.07239 0.0
H631 H 0.65025 0.48561 0.04869 0.0
H632 H 0.69313 0.50538 0.05617 0.0
H633 H 0.67327 0.46669 0.0396 0.0
H634 H 0.59393 0.42845 0.0972 0.0
H635 H 0.66189 0.53391 0.10585 0.0
H636 H 0.52205 0.42855 0.0923 0.0
H637 H 0.53698 0.40306 0.10429 0.0
H638 H 0.52517 0.42585 0.12371 0.0
H639 H 0.6437 0.57196 0.11132 0.0
H640 H 0.60086 0.55764 0.10526 0.0
H641 H 0.61358 0.55502 0.13467 0.0
H642 H 0.41321 0.52944 0.04117 0.0
H643 H 0.36466 0.51244 0.01689 0.0
H644 H 0.36946 0.48049 0.00288 0.0
H645 H 0.3624 0.47898 0.03416 0.0
H646 H 0.48356 0.54923 0.03746 0.0
H647 H 0.4118 0.44785 0.05526 0.0
H648 H 0.5489 0.55729 0.07062 0.0
H649 H 0.5325 0.58206 0.05958 0.0
H650 H 0.52898 0.57114 0.09052 0.0
H651 H 0.41972 0.41913 0.08636 0.0
H652 H 0.46254 0.43352 0.09259 0.0
H653 H 0.44052 0.44625 0.11134 0.0
H654 H 0.42905 0.62654 0.17808 0.0
H655 H 0.48047 0.63318 0.19571 0.0
H656 H 0.397 0.54036 0.21856 0.0
H657 H 0.5246 0.60334 0.169 0.0
H658 H 0.53155 0.63899 0.18622 0.0
H659 H 0.53935 0.60822 0.19882 0.0
H660 H 0.39729 0.48999 0.21968 0.0
H661 H 0.42375 0.4875 0.19781 0.0
H662 H 0.43727 0.49697 0.22796 0.0
H663 H 0.59404 0.4625 0.26724 0.0
H664 H 0.64973 0.47608 0.27531 0.0
H665 H 0.64801 0.50885 0.25996 0.0
H666 H 0.65899 0.51375 0.29071 0.0
H667 H 0.61587 0.55951 0.26427 0.0
H668 H 0.53778 0.45683 0.26834 0.0
H669 H 0.59498 0.57771 0.20955 0.0
H670 H 0.57395 0.58877 0.2306 0.0
H671 H 0.61506 0.59748 0.23714 0.0
H672 H 0.48909 0.43464 0.2454 0.0
H673 H 0.47913 0.46449 0.234 0.0
H674 H 0.49993 0.45 0.21553 0.0
H675 H 0.53489 0.49013 0.08053 0.0
H676 H 0.46456 0.52373 0.11652 0.0
H677 H 0.45848 0.53955 0.15572 0.0
H678 H 0.50532 0.54262 0.23196 0.0
H679 H 0.56938 0.50078 0.19674 0.0
H680 H 0.57841 0.48892 0.15716 0.0
H681 H 0.38077 0.63196 0.17591 0.0
H682 H 0.37042 0.5892 0.17894 0.0
H683 H 0.36606 0.61067 0.20381 0.0
Co684 Co 0.63052 0.38747 0.40485 0.0
O685 O 0.65975 0.38178 0.38468 0.0
O686 O 0.67489 0.42655 0.40709 0.0
C687 C 0.60835 0.33567 0.42043 0.0
O688 O 0.60802 0.40173 0.42894 0.0
Co689 Co 0.55576 0.34401 0.40011 0.0
O690 O 0.55386 0.36287 0.43096 0.0
C691 C 0.59269 0.39884 0.36622 0.0
C692 C 0.68309 0.41058 0.39244 0.0
C693 C 0.57941 0.38925 0.43858 0.0
O694 O 0.61934 0.40818 0.37802 0.0
O695 O 0.56485 0.37276 0.37133 0.0
O696 O 0.6352 0.36099 0.42892 0.0
O697 O 0.59565 0.34182 0.40221 0.0
Co698 Co 0.25602 0.62364 0.57057 0.0
O699 O 0.2871 0.62538 0.59318 0.0
O700 O 0.26103 0.58524 0.56636 0.0
C701 C 0.28892 0.67782 0.5597 0.0
O702 O 0.22322 0.61404 0.54391 0.0
Co703 Co 0.22642 0.66851 0.57665 0.0
O704 O 0.20384 0.64898 0.54618 0.0
C705 C 0.20048 0.60699 0.60526 0.0
C706 C 0.28316 0.59864 0.58308 0.0
C707 C 0.20536 0.62541 0.53616 0.0
O708 O 0.21826 0.59851 0.5935 0.0
O709 O 0.20339 0.63568 0.6029 0.0
O710 O 0.2925 0.65461 0.55022 0.0
O711 O 0.26707 0.66816 0.57625 0.0
Co712 Co 0.64697 0.2528 0.74477 0.0
O713 O 0.65025 0.28628 0.72321 0.0
O714 O 0.60807 0.25597 0.74727 0.0
C715 C 0.69867 0.28593 0.75891 0.0
O716 O 0.6342 0.21726 0.76994 0.0
Co717 Co 0.69067 0.22256 0.74304 0.0
O718 O 0.6706 0.20057 0.77355 0.0
C719 C 0.63435 0.19813 0.7099 0.0
C720 C 0.62226 0.28002 0.73192 0.0
C721 C 0.64448 0.19974 0.78003 0.0
O722 O 0.62569 0.21722 0.71973 0.0
O723 O 0.66039 0.19785 0.71561 0.0
O724 O 0.6741 0.28747 0.76743 0.0
O725 O 0.69184 0.2648 0.74176 0.0
Co726 Co 0.40448 0.62653 0.91422 0.0
O727 O 0.37897 0.63884 0.8947 0.0
O728 O 0.35835 0.5928 0.91646 0.0
C729 C 0.43594 0.67778 0.93128 0.0
O730 O 0.42102 0.6054 0.9375 0.0
Co731 Co 0.47907 0.65724 0.91014 0.0
O732 O 0.4764 0.63418 0.94014 0.0
C733 C 0.43531 0.60977 0.87378 0.0
C734 C 0.35318 0.61164 0.90246 0.0
C735 C 0.44807 0.6112 0.94716 0.0
O736 O 0.41012 0.60275 0.88655 0.0
O737 O 0.46486 0.63251 0.87922 0.0
O738 O 0.4065 0.65631 0.93897 0.0
O739 O 0.44468 0.66824 0.91256 0.0
Co740 Co 0.77796 0.3854 0.07011 0.0
O741 O 0.74413 0.38441 0.08947 0.0
O742 O 0.7733 0.42316 0.0626 0.0
C743 C 0.74674 0.33081 0.0601 0.0
O744 O 0.81324 0.39408 0.04562 0.0
Co745 Co 0.80895 0.34388 0.08168 0.0
O746 O 0.82959 0.35706 0.05018 0.0
C747 C 0.82782 0.40424 0.10982 0.0
C748 C 0.74942 0.41069 0.07796 0.0
C749 C 0.8296 0.38056 0.03892 0.0
O750 O 0.81175 0.41179 0.09538 0.0
O751 O 0.82833 0.37724 0.10821 0.0
O752 O 0.74473 0.35362 0.04853 0.0
O753 O 0.76673 0.34119 0.07807 0.0
Co754 Co 0.41106 0.77816 0.23564 0.0
O755 O 0.40805 0.74437 0.2147 0.0
O756 O 0.44853 0.77272 0.24064 0.0
C757 C 0.35797 0.74719 0.24758 0.0
O758 O 0.42193 0.81347 0.26106 0.0
Co759 Co 0.36953 0.81056 0.22819 0.0
O760 O 0.38441 0.82918 0.26042 0.0
C761 C 0.42637 0.82928 0.19718 0.0
C762 C 0.43455 0.74886 0.22496 0.0
C763 C 0.40867 0.82903 0.27005 0.0
O764 O 0.43542 0.81332 0.21069 0.0
O765 O 0.39957 0.82931 0.20007 0.0
O766 O 0.38067 0.7435 0.25735 0.0
O767 O 0.36735 0.76788 0.23001 0.0
C768 C 0.27066 0.67218 0.24101 0.0
C769 C 0.25314 0.68304 0.25501 0.0
C770 C 0.30575 0.73016 0.26981 0.0
C771 C 0.32253 0.72312 0.25218 0.0
N772 N 0.32215 0.68625 0.22204 0.0
N773 N 0.25498 0.71105 0.29152 0.0
C774 C 0.30541 0.69342 0.23837 0.0
C775 C 0.27091 0.7087 0.27217 0.0
N776 N 0.25416 0.64083 0.23123 0.0
N777 N 0.323 0.75794 0.28378 0.0
H778 H 0.23083 0.69289 0.29583 0.0
H779 H 0.26684 0.72792 0.30534 0.0
H780 H 0.3487 0.7725 0.28372 0.0
H781 H 0.31199 0.76739 0.29465 0.0
H782 H 0.26567 0.63018 0.22225 0.0
H783 H 0.22935 0.62368 0.23479 0.0
H784 H 0.31063 0.66763 0.2092 0.0
H785 H 0.3478 0.70008 0.22055 0.0
C786 C 0.6267 0.26741 0.42237 0.0
C787 C 0.6117 0.25134 0.44431 0.0
C788 C 0.58639 0.28592 0.44699 0.0
C789 C 0.60167 0.30168 0.42556 0.0
N790 N 0.6254 0.29873 0.38872 0.0
N791 N 0.56676 0.23743 0.47191 0.0
C792 C 0.61783 0.2892 0.4118 0.0
C793 C 0.58815 0.25798 0.45488 0.0
N794 N 0.65106 0.26411 0.41213 0.0
N795 N 0.57068 0.29811 0.46009 0.0
H796 H 0.56463 0.21517 0.47735 0.0
H797 H 0.5477 0.24006 0.47854 0.0
H798 H 0.56663 0.31664 0.45373 0.0
H799 H 0.56315 0.29096 0.4775 0.0
H800 H 0.66552 0.27919 0.39822 0.0
H801 H 0.65937 0.24885 0.41827 0.0
H802 H 0.63429 0.28784 0.37714 0.0
H803 H 0.61911 0.31454 0.3804 0.0
C804 C 0.36738 0.61259 0.58329 0.0
C805 C 0.36791 0.59818 0.60557 0.0
C806 C 0.30792 0.57387 0.60896 0.0
C807 C 0.308 0.58914 0.58746 0.0
N808 N 0.33417 0.61113 0.55003 0.0
N809 N 0.33518 0.55284 0.63313 0.0
C810 C 0.33647 0.60403 0.57313 0.0
C811 C 0.33706 0.57475 0.61633 0.0
N812 N 0.39585 0.63629 0.57246 0.0
N813 N 0.28023 0.5593 0.62266 0.0
H814 H 0.35491 0.55008 0.6377 0.0
H815 H 0.31283 0.53402 0.64016 0.0
H816 H 0.25805 0.55653 0.61683 0.0
H817 H 0.27987 0.55155 0.64 0.0
H818 H 0.39596 0.65037 0.55816 0.0
H819 H 0.41961 0.64436 0.57839 0.0
H820 H 0.35353 0.61914 0.53804 0.0
H821 H 0.31178 0.6053 0.54227 0.0
C822 C 0.77865 0.36981 0.75384 0.0
C823 C 0.78809 0.37523 0.77805 0.0
C824 C 0.74684 0.31626 0.78642 0.0
C825 C 0.73282 0.31362 0.76376 0.0
N826 N 0.73528 0.33762 0.72539 0.0
N827 N 0.79224 0.34946 0.81367 0.0
C828 C 0.7491 0.33999 0.74711 0.0
C829 C 0.77568 0.34699 0.79322 0.0
N830 N 0.79873 0.3921 0.73708 0.0
N831 N 0.73153 0.2899 0.80173 0.0
H832 H 0.81493 0.37069 0.81795 0.0
H833 H 0.78585 0.3295 0.82501 0.0
H834 H 0.71149 0.26662 0.79666 0.0
H835 H 0.73777 0.2912 0.81952 0.0
H836 H 0.79415 0.38814 0.71898 0.0
H837 H 0.82258 0.41167 0.74076 0.0
H838 H 0.74323 0.35798 0.71409 0.0
H839 H 0.71458 0.31586 0.71908 0.0
C840 C 0.48495 0.76987 0.92148 0.0
C841 C 0.46352 0.77828 0.93313 0.0
C842 C 0.43874 0.72531 0.95498 0.0
C843 C 0.45331 0.71392 0.93845 0.0
N844 N 0.50267 0.7305 0.91599 0.0
N845 N 0.43574 0.77246 0.97016 0.0
C846 C 0.48055 0.73793 0.92506 0.0
C847 C 0.44517 0.7586 0.95291 0.0
N848 N 0.5102 0.79171 0.90729 0.0
N849 N 0.41926 0.70448 0.97258 0.0
H850 H 0.44376 0.79791 0.97042 0.0
H851 H 0.42342 0.76009 0.98552 0.0
H852 H 0.41893 0.68254 0.97671 0.0
H853 H 0.40418 0.70912 0.98327 0.0
H854 H 0.51689 0.8165 0.90445 0.0
H855 H 0.51689 0.8165 0.90445 0.0
H856 H 0.52248 0.74712 0.90536 0.0
H857 H 0.50272 0.70913 0.92117 0.0
C858 C 0.71801 0.47051 0.08641 0.0
C859 C 0.68326 0.44784 0.08331 0.0
C860 C 0.69231 0.40124 0.07854 0.0
C861 C 0.72695 0.42365 0.08075 0.0
N862 N 0.77207 0.47753 0.09331 0.0
N863 N 0.63868 0.39081 0.08969 0.0
C864 C 0.73967 0.45777 0.08661 0.0
C865 C 0.67076 0.4129 0.08356 0.0
N866 N 0.73035 0.50402 0.08924 0.0
N867 N 0.67973 0.36918 0.07054 0.0
H868 H 0.62316 0.39861 0.09623 0.0
H869 H 0.62921 0.36521 0.09172 0.0
H870 H 0.69441 0.35966 0.06544 0.0
H871 H 0.65474 0.3532 0.06656 0.0
H872 H 0.75538 0.52216 0.08798 0.0
H873 H 0.71553 0.51402 0.09243 0.0
H874 H 0.78224 0.50164 0.10013 0.0
H875 H 0.7883 0.46873 0.09405 0.0
C876 C 0.32615 0.76904 0.54256 0.0
C877 C 0.35359 0.78407 0.55833 0.0
C878 C 0.34475 0.72867 0.56737 0.0
C879 C 0.31341 0.7138 0.55601 0.0
N880 N 0.27501 0.71885 0.53105 0.0
N881 N 0.39768 0.77935 0.57515 0.0
C882 C 0.30452 0.7337 0.54283 0.0
C883 C 0.36573 0.76416 0.56735 0.0
N884 N 0.32227 0.78816 0.52618 0.0
N885 N 0.35353 0.70907 0.57942 0.0
H886 H 0.41417 0.80504 0.57352 0.0
H887 H 0.40909 0.76644 0.58044 0.0
H888 H 0.33952 0.68298 0.5791 0.0
H889 H 0.37389 0.71851 0.59067 0.0
H890 H 0.30381 0.7784 0.5133 0.0
H891 H 0.34052 0.81293 0.52288 0.0
H892 H 0.26484 0.73202 0.52383 0.0
H893 H 0.26002 0.69296 0.52938 0.0
C894 C 0.56252 0.30812 0.71463 0.0
C895 C 0.58041 0.34172 0.72327 0.0
C896 C 0.62808 0.33645 0.73217 0.0
C897 C 0.60891 0.30175 0.72657 0.0
N898 N 0.55904 0.25443 0.71093 0.0
N899 N 0.63491 0.39096 0.72694 0.0
C900 C 0.57654 0.28762 0.71707 0.0
C901 C 0.61471 0.35692 0.72791 0.0
N902 N 0.53329 0.29663 0.70286 0.0
N903 N 0.65817 0.34967 0.7431 0.0
H904 H 0.62652 0.4065 0.72132 0.0
H905 H 0.66059 0.40326 0.72823 0.0
H906 H 0.66917 0.3359 0.74706 0.0
H907 H 0.67098 0.37378 0.75024 0.0
H908 H 0.5202 0.27346 0.69445 0.0
H909 H 0.52347 0.31159 0.69931 0.0
H910 H 0.53396 0.24119 0.70678 0.0
H911 H 0.56949 0.2395 0.71078 0.0
C912 C 0.27538 0.61573 0.89543 0.0
C913 C 0.25124 0.58107 0.8936 0.0
C914 C 0.29627 0.57002 0.88786 0.0
C915 C 0.31905 0.60265 0.89647 0.0
N916 N 0.32945 0.65644 0.91036 0.0
N917 N 0.2392 0.5252 0.88367 0.0
C918 C 0.30858 0.62572 0.90046 0.0
C919 C 0.2618 0.55818 0.88818 0.0
N920 N 0.26694 0.63919 0.89149 0.0
N921 N 0.30776 0.55083 0.87873 0.0
H922 H 0.21412 0.51587 0.88108 0.0
H923 H 0.24519 0.50668 0.88318 0.0
H924 H 0.33293 0.5593 0.87766 0.0
H925 H 0.29284 0.52809 0.87004 0.0
H926 H 0.28431 0.66483 0.89108 0.0
H927 H 0.24367 0.63288 0.88517 0.0
H928 H 0.3215 0.67245 0.91578 0.0
H929 H 0.35374 0.6647 0.91528 0.0
C930 C 0.66152 0.25423 0.06625 0.0
C931 C 0.65741 0.24273 0.04241 0.0
C932 C 0.71775 0.27748 0.03745 0.0
C933 C 0.71933 0.29569 0.05782 0.0
N934 N 0.69342 0.30044 0.09311 0.0
N935 N 0.68369 0.23771 0.00712 0.0
C936 C 0.69164 0.28338 0.07296 0.0
C937 C 0.68629 0.2521 0.02872 0.0
N938 N 0.63716 0.23732 0.08256 0.0
N939 N 0.74648 0.28451 0.02672 0.0
H940 H 0.66247 0.21591 0.00143 0.0
H941 H 0.70281 0.24722 0.99484 0.0
H942 H 0.76954 0.30246 0.03359 0.0
H943 H 0.7477 0.2707 0.01271 0.0
H944 H 0.64015 0.24364 0.10046 0.0
H945 H 0.61602 0.2142 0.07927 0.0
H946 H 0.67267 0.29557 0.1028 0.0
H947 H 0.71548 0.32051 0.09961 0.0
C948 C 0.42288 0.66469 0.2301 0.0
C949 C 0.43321 0.6606 0.20712 0.0
C950 C 0.45537 0.72034 0.19924 0.0
C951 C 0.44396 0.72358 0.22151 0.0
N952 N 0.4294 0.70338 0.26133 0.0
N953 N 0.47239 0.68924 0.1752 0.0
C954 C 0.43246 0.69737 0.2381 0.0
C955 C 0.45382 0.68994 0.19342 0.0
N956 N 0.40188 0.63775 0.24373 0.0
N957 N 0.46682 0.746 0.18338 0.0
H958 H 0.47459 0.66872 0.17133 0.0
H959 H 0.48932 0.71063 0.16594 0.0
H960 H 0.46998 0.76922 0.18779 0.0
H961 H 0.47154 0.74359 0.16571 0.0
H962 H 0.39046 0.63987 0.25882 0.0
H963 H 0.39327 0.61291 0.23954 0.0
H964 H 0.42409 0.68593 0.27467 0.0
H965 H 0.43591 0.72705 0.26761 0.0
C966 C 0.76554 0.44802 0.36113 0.0
C967 C 0.77416 0.42406 0.368 0.0
C968 C 0.73125 0.40431 0.39867 0.0
C969 C 0.71774 0.42137 0.38729 0.0
N970 N 0.72125 0.45944 0.35729 0.0
N971 N 0.76331 0.37816 0.39459 0.0
C972 C 0.73479 0.44348 0.36851 0.0
C973 C 0.75692 0.40222 0.38744 0.0
N974 N 0.78701 0.47579 0.34844 0.0
N975 N 0.71928 0.38985 0.42021 0.0
H976 H 0.78201 0.3751 0.38797 0.0
H977 H 0.7481 0.3591 0.40628 0.0
H978 H 0.70076 0.39155 0.42888 0.0
H979 H 0.73022 0.37978 0.43056 0.0
H980 H 0.78238 0.49473 0.34437 0.0
H981 H 0.81133 0.48261 0.3451 0.0
H982 H 0.73068 0.4727 0.34159 0.0
H983 H 0.69941 0.45762 0.36299 0.0
C984 C 0.12544 0.5702 0.50309 0.0
C985 C 0.1335 0.58769 0.48123 0.0
C986 C 0.19197 0.61986 0.49291 0.0
C987 C 0.18242 0.60802 0.5163 0.0
N988 N 0.1412 0.57006 0.54389 0.0
N989 N 0.17586 0.61461 0.45157 0.0
C990 C 0.14959 0.58212 0.52135 0.0
C991 C 0.16735 0.60818 0.47489 0.0
N992 N 0.09551 0.54134 0.5059 0.0
N993 N 0.22431 0.64305 0.48822 0.0
H994 H 0.15853 0.60338 0.43796 0.0
H995 H 0.20014 0.62755 0.44554 0.0
H996 H 0.24306 0.64993 0.5007 0.0
H997 H 0.23247 0.65609 0.47236 0.0
H998 H 0.08932 0.52599 0.52069 0.0
H999 H 0.0782 0.53053 0.4923 0.0
H1000 H 0.11688 0.55473 0.54952 0.0
H1001 H 0.15866 0.57673 0.55736 0.0
C1002 C 0.55971 0.12046 0.68404 0.0
C1003 C 0.57186 0.11998 0.66116 0.0
C1004 C 0.62048 0.17578 0.6684 0.0
C1005 C 0.61148 0.17298 0.69257 0.0
N1006 N 0.57281 0.14239 0.72397 0.0
N1007 N 0.6014 0.15655 0.62851 0.0
C1008 C 0.5808 0.14564 0.70047 0.0
C1009 C 0.59883 0.15036 0.65224 0.0
N1010 N 0.52754 0.09777 0.68962 0.0
N1011 N 0.64986 0.20244 0.66093 0.0
H1012 H 0.5824 0.14126 0.61678 0.0
H1013 H 0.6193 0.17915 0.62104 0.0
H1014 H 0.66544 0.22251 0.67197 0.0
H1015 H 0.6596 0.20366 0.64419 0.0
H1016 H 0.51632 0.09893 0.70513 0.0
H1017 H 0.51095 0.08005 0.67757 0.0
H1018 H 0.55286 0.12084 0.73115 0.0
H1019 H 0.58754 0.16007 0.73675 0.0
C1020 C 0.45079 0.59157 0.79856 0.0
C1021 C 0.42745 0.54507 0.80094 0.0
C1022 C 0.40052 0.54589 0.85088 0.0
C1023 C 0.43025 0.59101 0.85175 0.0
N1024 N 0.47321 0.64769 0.82627 0.0
N1025 N 0.37474 0.48858 0.82268 0.0
C1026 C 0.45406 0.61389 0.82572 0.0
C1027 C 0.39597 0.52197 0.82425 0.0
N1028 N 0.46714 0.6072 0.77864 0.0
N1029 N 0.38249 0.52989 0.87022 0.0
H1030 H 0.37457 0.47569 0.80752 0.0
H1031 H 0.35818 0.47528 0.83624 0.0
H1032 H 0.38544 0.54251 0.88609 0.0
H1033 H 0.36562 0.50415 0.86992 0.0
H1034 H 0.48133 0.63325 0.77763 0.0
H1035 H 0.46549 0.59309 0.76378 0.0
H1036 H 0.4869 0.66103 0.81155 0.0
H1037 H 0.47418 0.66138 0.84115 0.0
C1038 C 0.91766 0.423 0.99224 0.0
C1039 C 0.89377 0.40736 0.96409 0.0
C1040 C 0.82654 0.36921 0.98998 0.0
C1041 C 0.84814 0.39119 0.01679 0.0
N1042 N 0.90777 0.42996 0.03932 0.0
N1043 N 0.83443 0.3583 0.94271 0.0
C1044 C 0.89294 0.41672 0.01835 0.0
C1045 C 0.84928 0.37398 0.96312 0.0
N1046 N 0.95101 0.44141 0.99242 0.0
N1047 N 0.79333 0.34885 0.99027 0.0
H1048 H 0.84848 0.36349 0.92736 0.0
H1049 H 0.80912 0.34083 0.94194 0.0
H1050 H 0.77997 0.34684 0.00546 0.0
H1051 H 0.7803 0.33556 0.97523 0.0
H1052 H 0.96419 0.4515 0.00809 0.0
H1053 H 0.96404 0.44557 0.97667 0.0
H1054 H 0.93345 0.4444 0.04079 0.0
H1055 H 0.89367 0.42621 0.05445 0.0
C1056 C 0.45473 0.86037 0.13466 0.0
C1057 C 0.48932 0.88315 0.13805 0.0
C1058 C 0.48017 0.87595 0.18119 0.0
C1059 C 0.44784 0.84841 0.17704 0.0
N1060 N 0.40574 0.81108 0.14938 0.0
N1061 N 0.53499 0.913 0.16596 0.0
C1062 C 0.43547 0.83974 0.15367 0.0
C1063 C 0.50204 0.89132 0.16174 0.0
N1064 N 0.43959 0.85925 0.11376 0.0
N1065 N 0.48967 0.88816 0.20368 0.0
H1066 H 0.55214 0.92726 0.15303 0.0
H1067 H 0.54591 0.91559 0.18246 0.0
H1068 H 0.47428 0.8776 0.21832 0.0
H1069 H 0.51149 0.91057 0.20757 0.0
H1070 H 0.41402 0.84489 0.11143 0.0
H1071 H 0.45133 0.87598 0.09995 0.0
H1072 H 0.39741 0.80175 0.13238 0.0
H1073 H 0.39093 0.79487 0.16275 0.0
C1074 C 0.57962 0.42238 0.30463 0.0
C1075 C 0.59738 0.45811 0.30589 0.0
C1076 C 0.60602 0.45395 0.34855 0.0
C1077 C 0.59424 0.41934 0.34566 0.0
N1078 N 0.57575 0.37202 0.31941 0.0
N1079 N 0.6282 0.50814 0.33044 0.0
C1080 C 0.58269 0.40395 0.32328 0.0
C1081 C 0.61061 0.47399 0.32829 0.0
N1082 N 0.55839 0.40555 0.28633 0.0
N1083 N 0.61179 0.46759 0.37076 0.0
H1084 H 0.63034 0.52456 0.31722 0.0
H1085 H 0.64251 0.52058 0.34526 0.0
H1086 H 0.60923 0.45406 0.38605 0.0
H1087 H 0.6162 0.4915 0.37424 0.0
H1088 H 0.54322 0.37952 0.28593 0.0
H1089 H 0.55189 0.41703 0.27351 0.0
H1090 H 0.57058 0.36106 0.30264 0.0
H1091 H 0.57867 0.35785 0.33234 0.0
C1092 C 0.44252 0.89928 0.31578 0.0
C1093 C 0.43444 0.88021 0.33689 0.0
C1094 C 0.42048 0.83008 0.3136 0.0
C1095 C 0.42189 0.84756 0.29265 0.0
N1096 N 0.43689 0.89948 0.27315 0.0
N1097 N 0.43348 0.83323 0.35537 0.0
C1098 C 0.43394 0.88247 0.29354 0.0
C1099 C 0.42927 0.84744 0.33561 0.0
N1100 N 0.46183 0.93339 0.31689 0.0
N1101 N 0.40826 0.79635 0.31287 0.0
H1102 H 0.44178 0.8459 0.37143 0.0
H1103 H 0.43302 0.81071 0.35518 0.0
H1104 H 0.40185 0.78246 0.29727 0.0
H1105 H 0.40216 0.78145 0.32789 0.0
H1106 H 0.47027 0.94881 0.30208 0.0
H1107 H 0.47405 0.94583 0.33237 0.0
H1108 H 0.44097 0.92364 0.27289 0.0
H1109 H 0.43386 0.88885 0.25638 0.0
C1110 C 0.55814 0.44658 0.47122 0.0
C1111 C 0.55245 0.43239 0.49416 0.0
C1112 C 0.57717 0.39973 0.48187 0.0
C1113 C 0.57501 0.40778 0.45802 0.0
N1114 N 0.56347 0.43883 0.42953 0.0
N1115 N 0.57205 0.40947 0.52354 0.0
C1116 C 0.5661 0.43169 0.45257 0.0
C1117 C 0.56677 0.41313 0.50025 0.0
N1118 N 0.55754 0.47513 0.46755 0.0
N1119 N 0.58807 0.3784 0.48673 0.0
H1120 H 0.56772 0.42195 0.53707 0.0
H1121 H 0.58398 0.39736 0.52941 0.0
H1122 H 0.59794 0.37021 0.47375 0.0
H1123 H 0.58667 0.36812 0.50331 0.0
H1124 H 0.5642 0.48811 0.4516 0.0
H1125 H 0.55453 0.48817 0.48134 0.0
H1126 H 0.55334 0.45307 0.42449 0.0
H1127 H 0.56913 0.42841 0.41534 0.0
C1128 C 0.13152 0.57759 0.64923 0.0
C1129 C 0.14195 0.56221 0.6659 0.0
C1130 C 0.1782 0.5598 0.63615 0.0
C1131 C 0.17475 0.58325 0.62236 0.0
N1132 N 0.1351 0.59725 0.60894 0.0
N1133 N 0.15984 0.52221 0.66893 0.0
C1134 C 0.14712 0.58675 0.62675 0.0
C1135 C 0.16032 0.54806 0.65754 0.0
N1136 N 0.10706 0.58363 0.65503 0.0
N1137 N 0.19708 0.5473 0.62875 0.0
H1138 H 0.14447 0.50978 0.68328 0.0
H1139 H 0.14447 0.50978 0.68328 0.0
H1140 H 0.20602 0.55011 0.61162 0.0
H1141 H 0.20113 0.5314 0.63928 0.0
H1142 H 0.10144 0.59886 0.64522 0.0
H1143 H 0.09219 0.57308 0.66991 0.0
H1144 H 0.1138 0.59842 0.61024 0.0
H1145 H 0.14469 0.60142 0.59183 0.0
C1146 C 0.58334 0.16478 0.83025 0.0
C1147 C 0.57072 0.1296 0.82797 0.0
C1148 C 0.6107 0.14118 0.79642 0.0
C1149 C 0.62322 0.17601 0.79867 0.0
N1150 N 0.6292 0.22125 0.82288 0.0
N1151 N 0.58461 0.08822 0.8167 0.0
C1152 C 0.61211 0.18787 0.81737 0.0
C1153 C 0.58841 0.11904 0.81368 0.0
N1154 N 0.5674 0.17646 0.84364 0.0
N1155 N 0.61804 0.12862 0.7771 0.0
H1156 H 0.57108 0.07225 0.83052 0.0
H1157 H 0.59885 0.0807 0.80763 0.0
H1158 H 0.63308 0.14342 0.76331 0.0
H1159 H 0.60637 0.10299 0.77366 0.0
H1160 H 0.57312 0.20121 0.84298 0.0
H1161 H 0.54718 0.16156 0.85434 0.0
H1162 H 0.62427 0.23105 0.83781 0.0
H1163 H 0.65061 0.2386 0.81393 0.0
C1164 C 0.42882 0.53235 0.9802 0.0
C1165 C 0.43024 0.54313 0.00414 0.0
C1166 C 0.45058 0.60056 0.99023 0.0
C1167 C 0.4458 0.58896 0.96657 0.0
N1168 N 0.43105 0.54487 0.93824 0.0
N1169 N 0.45612 0.59041 0.03133 0.0
C1170 C 0.4357 0.55528 0.96135 0.0
C1171 C 0.44528 0.57812 0.00901 0.0
N1172 N 0.422 0.50064 0.97537 0.0
N1173 N 0.45821 0.63259 0.99486 0.0
H1174 H 0.4552 0.57589 0.04555 0.0
H1175 H 0.47019 0.6159 0.03525 0.0
H1176 H 0.46313 0.65011 0.98162 0.0
H1177 H 0.45722 0.64113 0.01169 0.0
H1178 H 0.42467 0.49273 0.95876 0.0
H1179 H 0.41612 0.48237 0.98806 0.0
H1180 H 0.41889 0.51989 0.93294 0.0
H1181 H 0.43798 0.56135 0.924 0.0
C1182 C 0.87359 0.43716 0.18166 0.0
C1183 C 0.90022 0.48222 0.17395 0.0
C1184 C 0.86614 0.47273 0.12506 0.0
C1185 C 0.84641 0.42741 0.12931 0.0
N1186 N 0.83086 0.37627 0.16119 0.0
N1187 N 0.90653 0.53512 0.14638 0.0
C1188 C 0.84883 0.40973 0.15758 0.0
C1189 C 0.89122 0.50154 0.14853 0.0
N1190 N 0.87541 0.42563 0.20313 0.0
N1191 N 0.86313 0.48521 0.10428 0.0
H1192 H 0.92225 0.55058 0.15982 0.0
H1193 H 0.90275 0.54611 0.13165 0.0
H1194 H 0.8504 0.46983 0.08995 0.0
H1195 H 0.87443 0.51096 0.1018 0.0
H1196 H 0.86141 0.40022 0.2072 0.0
H1197 H 0.89089 0.44241 0.21613 0.0
H1198 H 0.83214 0.36605 0.17723 0.0
H1199 H 0.81438 0.35982 0.14854 0.0
loop_
_geom_bond_atom_site_label_1
_geom_bond_atom_site_label_2
_geom_bond_distance
_geom_bond_site_symmetry_2
_ccdc_geom_bond_type
C0 C1 1.560 . S
C0 H61 0.959 . S
C0 H62 0.959 . S
C0 H63 0.960 . S
C1 C0 1.560 . S
C1 O56 1.426 . S
C1 H60 0.980 . S
C2 C3 1.407 . S
C2 C7 1.418 . S
C2 O56 1.334 . S
C3 C2 1.407 . S
C3 C4 1.360 . S
C3 H64 0.929 . S
C4 C3 1.360 . S
C4 C5 1.401 . S
C4 C8 1.527 . S
C5 C4 1.401 . S
C5 C6 1.405 . S
C5 C38 1.587 . S
C6 C5 1.405 . S
C6 C7 1.332 . S
C6 C9 1.496 . S
C7 C2 1.418 . S
C7 C6 1.332 . S
C7 H65 0.929 . S
C8 C4 1.527 . S
C8 H66 0.959 . S
C8 H67 0.961 . S
C8 H68 0.961 . S
C9 C6 1.496 . S
C9 H69 0.960 . S
C9 H70 0.960 . S
C9 H71 0.961 . S
C10 C11 1.517 . S
C10 H73 0.961 . S
C10 H74 0.960 . S
C10 H75 0.959 . S
C11 C10 1.517 . S
C11 O59 1.468 . S
C11 H72 0.980 . S
C12 C13 1.349 . S
C12 C17 1.367 . S
C12 O59 1.408 . S
C13 C12 1.349 . S
C13 C14 1.407 . S
C13 H76 0.930 . S
C14 C13 1.407 . S
C14 C15 1.449 . S
C14 C18 1.535 . S
C15 C14 1.449 . S
C15 C16 1.384 . S
C15 C40 1.553 1_655 S
C16 C15 1.384 . S
C16 C17 1.364 . S
C16 C19 1.450 . S
C17 C12 1.367 . S
C17 C16 1.364 . S
C17 H77 0.931 . S
C18 C14 1.535 . S
C18 H78 0.959 1_655 S
C18 H79 0.961 1_655 S
C18 H80 0.959 . S
C19 C16 1.450 . S
C19 H81 0.960 . S
C19 H82 0.960 1_655 S
C19 H83 0.960 . S
C20 C21 1.309 . S
C20 C25 1.304 . S
C20 O58 1.435 . S
C21 C20 1.309 . S
C21 C22 1.476 . S
C21 H85 0.930 . S
C22 C21 1.476 . S
C22 C23 1.400 . S
C22 C26 1.567 . S
C23 C22 1.400 . S
C23 C24 1.373 . S
C23 C45 1.432 . S
C24 C23 1.373 . S
C24 C25 1.339 . S
C24 C27 1.530 . S
C25 C20 1.304 . S
C25 C24 1.339 . S
C25 H86 0.930 . S
C26 C22 1.567 . S
C26 H87 0.961 . S
C26 H88 0.960 . S
C26 H89 0.958 . S
C27 C24 1.530 . S
C27 H90 0.961 . S
C27 H91 0.960 . S
C27 H92 0.960 . S
C28 C29 1.530 . S
C28 H94 0.961 . S
C28 H95 0.961 . S
C28 H96 0.959 . S
C29 C28 1.530 . S
C29 O57 1.412 . S
C29 H93 0.980 . S
C30 C31 1.288 . S
C30 C35 1.377 . S
C30 O57 1.393 . S
C31 C30 1.288 . S
C31 C32 1.369 . S
C31 H97 0.932 . S
C32 C31 1.369 . S
C32 C33 1.398 . S
C32 C36 1.527 . S
C33 C32 1.398 . S
C33 C34 1.380 . S
C33 C47 1.497 . S
C34 C33 1.380 . S
C34 C35 1.383 . S
C34 C37 1.603 . S
C35 C30 1.377 . S
C35 C34 1.383 . S
C35 H98 0.929 . S
C36 C32 1.527 . S
C36 H99 0.961 . S
C36 H100 0.959 . S
C36 H101 0.959 . S
C37 C34 1.603 . S
C37 H102 0.960 . S
C37 H103 0.962 . S
C37 H104 0.961 . S
C38 C5 1.587 . S
C38 C39 1.360 . S
C38 C51 1.412 . S
C39 C38 1.360 . S
C39 C40 1.365 . S
C39 H105 0.929 . S
C40 C15 1.553 1_455 S
C40 C39 1.365 . S
C40 C41 1.404 . S
C41 C40 1.404 . S
C41 C42 1.395 1_455 S
C41 C52 1.451 . S
C42 C41 1.395 1_655 S
C42 C43 1.322 . S
C42 H106 0.930 . S
C43 C42 1.322 . S
C43 C44 1.459 . S
C43 H107 0.929 . S
C44 C43 1.459 . S
C44 C45 1.445 . S
C44 C53 1.395 1_655 S
C45 C23 1.432 . S
C45 C44 1.445 . S
C45 C46 1.370 . S
C46 C45 1.370 . S
C46 C47 1.438 1_655 S
C46 H108 0.930 . S
C47 C33 1.497 . S
C47 C46 1.438 1_455 S
C47 C48 1.360 . S
C48 C47 1.360 . S
C48 C49 1.401 . S
C48 C53 1.446 . S
C49 C48 1.401 . S
C49 C50 1.347 . S
C49 H109 0.929 . S
C50 C49 1.347 . S
C50 C51 1.455 . S
C50 H110 0.930 . S
C51 C38 1.412 . S
C51 C50 1.455 . S
C51 C52 1.331 . S
C52 C41 1.451 . S
C52 C51 1.331 . S
C52 C53 1.497 . S
C53 C44 1.395 1_455 S
C53 C48 1.446 . S
C53 C52 1.497 . S
C54 C55 1.582 . S
C54 H111 0.962 . S
C54 H112 0.959 . S
C54 H113 0.958 . S
C55 C54 1.582 . S
C55 O58 1.458 . S
C55 H84 0.980 . S
O56 C1 1.426 . S
O56 C2 1.334 . S
O57 C29 1.412 . S
O57 C30 1.393 . S
O58 C20 1.435 . S
O58 C55 1.458 . S
O59 C11 1.468 . S
O59 C12 1.408 . S
H60 C1 0.980 . S
H61 C0 0.959 . S
H62 C0 0.959 . S
H63 C0 0.960 . S
H64 C3 0.929 . S
H65 C7 0.929 . S
H66 C8 0.959 . S
H67 C8 0.961 . S
H68 C8 0.961 . S
H69 C9 0.960 . S
H70 C9 0.960 . S
H71 C9 0.961 . S
H72 C11 0.980 . S
H73 C10 0.961 . S
H74 C10 0.960 . S
H75 C10 0.959 . S
H76 C13 0.930 . S
H77 C17 0.931 . S
H78 C18 0.959 1_455 S
H79 C18 0.961 1_455 S
H80 C18 0.959 . S
H81 C19 0.960 . S
H82 C19 0.960 1_455 S
H83 C19 0.960 . S
H84 C55 0.980 . S
H85 C21 0.930 . S
H86 C25 0.930 . S
H87 C26 0.961 . S
H88 C26 0.960 . S
H89 C26 0.958 . S
H90 C27 0.961 . S
H91 C27 0.960 . S
H92 C27 0.960 . S
H93 C29 0.980 . S
H94 C28 0.961 . S
H95 C28 0.961 . S
H96 C28 0.959 . S
H97 C31 0.932 . S
H98 C35 0.929 . S
H99 C36 0.961 . S
H100 C36 0.959 . S
H101 C36 0.959 . S
H102 C37 0.960 . S
H103 C37 0.962 . S
H104 C37 0.961 . S
H105 C39 0.929 . S
H106 C42 0.930 . S
H107 C43 0.929 . S
H108 C46 0.930 . S
H109 C49 0.929 . S
H110 C50 0.930 . S
H111 C54 0.962 . S
H112 C54 0.959 . S
H113 C54 0.958 . S
C114 C115 1.560 . S
C114 H175 0.959 . S
C114 H176 0.959 . S
C114 H177 0.960 . S
C115 C114 1.560 . S
C115 O170 1.426 . S
C115 H174 0.980 . S
C116 C117 1.407 . S
C116 C121 1.418 . S
C116 O170 1.334 . S
C117 C116 1.407 . S
C117 C118 1.360 . S
C117 H178 0.929 . S
C118 C117 1.360 . S
C118 C119 1.401 . S
C118 C122 1.527 . S
C119 C118 1.401 . S
C119 C120 1.405 . S
C119 C152 1.587 . S
C120 C119 1.405 . S
C120 C121 1.332 . S
C120 C123 1.496 . S
C121 C116 1.418 . S
C121 C120 1.332 . S
C121 H179 0.929 . S
C122 C118 1.527 . S
C122 H180 0.959 . S
C122 H181 0.961 . S
C122 H182 0.961 . S
C123 C120 1.496 . S
C123 H183 0.960 . S
C123 H184 0.960 . S
C123 H185 0.961 . S
C124 C125 1.517 . S
C124 H187 0.961 . S
C124 H188 0.960 . S
C124 H189 0.959 . S
C125 C124 1.517 . S
C125 O173 1.468 . S
C125 H186 0.980 . S
C126 C127 1.349 . S
C126 C131 1.367 . S
C126 O173 1.408 . S
C127 C126 1.349 . S
C127 C128 1.407 . S
C127 H190 0.930 . S
C128 C127 1.407 . S
C128 C129 1.449 . S
C128 C132 1.535 . S
C129 C128 1.449 . S
C129 C130 1.384 . S
C129 C154 1.553 . S
C130 C129 1.384 . S
C130 C131 1.364 . S
C130 C133 1.450 . S
C131 C126 1.367 . S
C131 C130 1.364 . S
C131 H191 0.931 . S
C132 C128 1.535 . S
C132 H192 0.959 . S
C132 H193 0.961 . S
C132 H194 0.959 . S
C133 C130 1.450 . S
C133 H195 0.960 . S
C133 H196 0.960 . S
C133 H197 0.960 . S
C134 C135 1.309 . S
C134 C139 1.304 . S
C134 O172 1.435 . S
C135 C134 1.309 . S
C135 C136 1.476 . S
C135 H199 0.930 . S
C136 C135 1.476 . S
C136 C137 1.400 . S
C136 C140 1.567 . S
C137 C136 1.400 . S
C137 C138 1.373 . S
C137 C159 1.432 . S
C138 C137 1.373 . S
C138 C139 1.339 . S
C138 C141 1.530 . S
C139 C134 1.304 . S
C139 C138 1.339 . S
C139 H200 0.930 . S
C140 C136 1.567 . S
C140 H201 0.961 . S
C140 H202 0.960 . S
C140 H203 0.958 . S
C141 C138 1.530 . S
C141 H204 0.961 . S
C141 H205 0.960 . S
C141 H206 0.960 . S
C142 C143 1.530 . S
C142 H208 0.961 . S
C142 H209 0.961 . S
C142 H210 0.959 . S
C143 C142 1.530 . S
C143 O171 1.412 . S
C143 H207 0.980 . S
C144 C145 1.288 . S
C144 C149 1.377 . S
C144 O171 1.393 . S
C145 C144 1.288 . S
C145 C146 1.369 . S
C145 H211 0.932 . S
C146 C145 1.369 . S
C146 C147 1.398 . S
C146 C150 1.527 1_565 S
C147 C146 1.398 . S
C147 C148 1.380 . S
C147 C161 1.497 1_565 S
C148 C147 1.380 . S
C148 C149 1.383 . S
C148 C151 1.603 . S
C149 C144 1.377 . S
C149 C148 1.383 . S
C149 H212 0.929 . S
C150 C146 1.527 1_545 S
C150 H213 0.961 . S
C150 H214 0.959 . S
C150 H215 0.959 1_545 S
C151 C148 1.603 . S
C151 H216 0.960 . S
C151 H217 0.962 . S
C151 H218 0.961 . S
C152 C119 1.587 . S
C152 C153 1.360 . S
C152 C165 1.412 . S
C153 C152 1.360 . S
C153 C154 1.365 1_565 S
C153 H219 0.929 . S
C154 C129 1.553 . S
C154 C153 1.365 1_545 S
C154 C155 1.404 . S
C155 C154 1.404 . S
C155 C156 1.395 . S
C155 C166 1.451 . S
C156 C155 1.395 . S
C156 C157 1.322 . S
C156 H220 0.930 . S
C157 C156 1.322 . S
C157 C158 1.459 . S
C157 H221 0.929 . S
C158 C157 1.459 . S
C158 C159 1.445 . S
C158 C167 1.395 . S
C159 C137 1.432 . S
C159 C158 1.445 . S
C159 C160 1.370 . S
C160 C159 1.370 . S
C160 C161 1.438 . S
C160 H222 0.930 . S
C161 C147 1.497 1_545 S
C161 C160 1.438 . S
C161 C162 1.360 1_545 S
C162 C161 1.360 1_565 S
C162 C163 1.401 . S
C162 C167 1.446 1_565 S
C163 C162 1.401 . S
C163 C164 1.347 . S
C163 H223 0.929 . S
C164 C163 1.347 . S
C164 C165 1.455 . S
C164 H224 0.930 . S
C165 C152 1.412 . S
C165 C164 1.455 . S
C165 C166 1.331 1_565 S
C166 C155 1.451 . S
C166 C165 1.331 1_545 S
C166 C167 1.497 . S
C167 C158 1.395 . S
C167 C162 1.446 1_545 S
C167 C166 1.497 . S
C168 C169 1.582 . S
C168 H225 0.962 . S
C168 H226 0.959 . S
C168 H227 0.958 . S
C169 C168 1.582 . S
C169 O172 1.458 . S
C169 H198 0.980 . S
O170 C115 1.426 . S
O170 C116 1.334 . S
O171 C143 1.412 . S
O171 C144 1.393 . S
O172 C134 1.435 . S
O172 C169 1.458 . S
O173 C125 1.468 . S
O173 C126 1.408 . S
H174 C115 0.980 . S
H175 C114 0.959 . S
H176 C114 0.959 . S
H177 C114 0.960 . S
H178 C117 0.929 . S
H179 C121 0.929 . S
H180 C122 0.959 . S
H181 C122 0.961 . S
H182 C122 0.961 . S
H183 C123 0.960 . S
H184 C123 0.960 . S
H185 C123 0.961 . S
H186 C125 0.980 . S
H187 C124 0.961 . S
H188 C124 0.960 . S
H189 C124 0.959 . S
H190 C127 0.930 . S
H191 C131 0.931 . S
H192 C132 0.959 . S
H193 C132 0.961 . S
H194 C132 0.959 . S
H195 C133 0.960 . S
H196 C133 0.960 . S
H197 C133 0.960 . S
H198 C169 0.980 . S
H199 C135 0.930 . S
H200 C139 0.930 . S
H201 C140 0.961 . S
H202 C140 0.960 . S
H203 C140 0.958 . S
H204 C141 0.961 . S
H205 C141 0.960 . S
H206 C141 0.960 . S
H207 C143 0.980 . S
H208 C142 0.961 . S
H209 C142 0.961 . S
H210 C142 0.959 . S
H211 C145 0.932 . S
H212 C149 0.929 . S
H213 C150 0.961 . S
H214 C150 0.959 . S
H215 C150 0.959 1_565 S
H216 C151 0.960 . S
H217 C151 0.962 . S
H218 C151 0.961 . S
H219 C153 0.929 . S
H220 C156 0.930 . S
H221 C157 0.929 . S
H222 C160 0.930 . S
H223 C163 0.929 . S
H224 C164 0.930 . S
H225 C168 0.962 . S
H226 C168 0.959 . S
H227 C168 0.958 . S
C228 C229 1.560 . S
C228 H289 0.959 . S
C228 H290 0.959 . S
C228 H291 0.960 . S
C229 C228 1.560 . S
C229 O284 1.426 . S
C229 H288 0.980 . S
C230 C231 1.407 . S
C230 C235 1.418 . S
C230 O284 1.334 . S
C231 C230 1.407 . S
C231 C232 1.360 . S
C231 H292 0.929 . S
C232 C231 1.360 . S
C232 C233 1.401 . S
C232 C236 1.527 . S
C233 C232 1.401 . S
C233 C234 1.405 . S
C233 C266 1.587 . S
C234 C233 1.405 . S
C234 C235 1.332 . S
C234 C237 1.496 . S
C235 C230 1.418 . S
C235 C234 1.332 . S
C235 H293 0.929 . S
C236 C232 1.527 . S
C236 H294 0.959 . S
C236 H295 0.961 . S
C236 H296 0.961 . S
C237 C234 1.496 . S
C237 H297 0.960 . S
C237 H298 0.960 . S
C237 H299 0.961 . S
C238 C239 1.517 . S
C238 H301 0.961 . S
C238 H302 0.960 . S
C238 H303 0.959 . S
C239 C238 1.517 . S
C239 O287 1.468 . S
C239 H300 0.980 . S
C240 C241 1.349 . S
C240 C245 1.367 . S
C240 O287 1.408 . S
C241 C240 1.349 . S
C241 C242 1.407 . S
C241 H304 0.930 . S
C242 C241 1.407 . S
C242 C243 1.449 . S
C242 C246 1.535 . S
C243 C242 1.449 . S
C243 C244 1.384 . S
C243 C268 1.553 . S
C244 C243 1.384 . S
C244 C245 1.364 . S
C244 C247 1.450 . S
C245 C240 1.367 . S
C245 C244 1.364 . S
C245 H305 0.931 . S
C246 C242 1.535 . S
C246 H306 0.959 . S
C246 H307 0.961 . S
C246 H308 0.959 . S
C247 C244 1.450 . S
C247 H309 0.960 . S
C247 H310 0.960 . S
C247 H311 0.960 . S
C248 C249 1.309 . S
C248 C253 1.304 . S
C248 O286 1.435 . S
C249 C248 1.309 . S
C249 C250 1.476 . S
C249 H313 0.930 . S
C250 C249 1.476 . S
C250 C251 1.400 . S
C250 C254 1.567 . S
C251 C250 1.400 . S
C251 C252 1.373 . S
C251 C273 1.432 . S
C252 C251 1.373 . S
C252 C253 1.339 . S
C252 C255 1.530 . S
C253 C248 1.304 . S
C253 C252 1.339 . S
C253 H314 0.930 . S
C254 C250 1.567 . S
C254 H315 0.961 . S
C254 H316 0.960 . S
C254 H317 0.958 . S
C255 C252 1.530 . S
C255 H318 0.961 . S
C255 H319 0.960 . S
C255 H320 0.960 . S
C256 C257 1.530 . S
C256 H322 0.961 . S
C256 H323 0.961 . S
C256 H324 0.959 . S
C257 C256 1.530 . S
C257 O285 1.412 . S
C257 H321 0.980 . S
C258 C259 1.288 . S
C258 C263 1.377 . S
C258 O285 1.393 . S
C259 C258 1.288 . S
C259 C260 1.369 . S
C259 H325 0.932 . S
C260 C259 1.369 . S
C260 C261 1.398 . S
C260 C264 1.527 . S
C261 C260 1.398 . S
C261 C262 1.380 . S
C261 C275 1.497 . S
C262 C261 1.380 . S
C262 C263 1.383 . S
C262 C265 1.603 . S
C263 C258 1.377 . S
C263 C262 1.383 . S
C263 H326 0.929 . S
C264 C260 1.527 . S
C264 H327 0.961 . S
C264 H328 0.959 . S
C264 H329 0.959 . S
C265 C262 1.603 . S
C265 H330 0.960 . S
C265 H331 0.962 . S
C265 H332 0.961 . S
C266 C233 1.587 . S
C266 C267 1.360 . S
C266 C279 1.412 . S
C267 C266 1.360 . S
C267 C268 1.365 . S
C267 H333 0.929 . S
C268 C243 1.553 . S
C268 C267 1.365 . S
C268 C269 1.404 . S
C269 C268 1.404 . S
C269 C270 1.395 . S
C269 C280 1.451 . S
C270 C269 1.395 . S
C270 C271 1.322 . S
C270 H334 0.930 . S
C271 C270 1.322 . S
C271 C272 1.459 . S
C271 H335 0.929 . S
C272 C271 1.459 . S
C272 C273 1.445 . S
C272 C281 1.395 . S
C273 C251 1.432 . S
C273 C272 1.445 . S
C273 C274 1.370 . S
C274 C273 1.370 . S
C274 C275 1.438 . S
C274 H336 0.930 . S
C275 C261 1.497 . S
C275 C274 1.438 . S
C275 C276 1.360 . S
C276 C275 1.360 . S
C276 C277 1.401 . S
C276 C281 1.446 . S
C277 C276 1.401 . S
C277 C278 1.347 . S
C277 H337 0.929 . S
C278 C277 1.347 . S
C278 C279 1.455 . S
C278 H338 0.930 . S
C279 C266 1.412 . S
C279 C278 1.455 . S
C279 C280 1.331 . S
C280 C269 1.451 . S
C280 C279 1.331 . S
C280 C281 1.497 . S
C281 C272 1.395 . S
C281 C276 1.446 . S
C281 C280 1.497 . S
C282 C283 1.582 . S
C282 H339 0.962 . S
C282 H340 0.959 . S
C282 H341 0.958 . S
C283 C282 1.582 . S
C283 O286 1.458 . S
C283 H312 0.980 . S
O284 C229 1.426 . S
O284 C230 1.334 . S
O285 C257 1.412 . S
O285 C258 1.393 . S
O286 C248 1.435 . S
O286 C283 1.458 . S
O287 C239 1.468 . S
O287 C240 1.408 . S
H288 C229 0.980 . S
H289 C228 0.959 . S
H290 C228 0.959 . S
H291 C228 0.960 . S
H292 C231 0.929 . S
H293 C235 0.929 . S
H294 C236 0.959 . S
H295 C236 0.961 . S
H296 C236 0.961 . S
H297 C237 0.960 . S
H298 C237 0.960 . S
H299 C237 0.961 . S
H300 C239 0.980 . S
H301 C238 0.961 . S
H302 C238 0.960 . S
H303 C238 0.959 . S
H304 C241 0.930 . S
H305 C245 0.931 . S
H306 C246 0.959 . S
H307 C246 0.961 . S
H308 C246 0.959 . S
H309 C247 0.960 . S
H310 C247 0.960 . S
H311 C247 0.960 . S
H312 C283 0.980 . S
H313 C249 0.930 . S
H314 C253 0.930 . S
H315 C254 0.961 . S
H316 C254 0.960 . S
H317 C254 0.958 . S
H318 C255 0.961 . S
H319 C255 0.960 . S
H320 C255 0.960 . S
H321 C257 0.980 . S
H322 C256 0.961 . S
H323 C256 0.961 . S
H324 C256 0.959 . S
H325 C259 0.932 . S
H326 C263 0.929 . S
H327 C264 0.961 . S
H328 C264 0.959 . S
H329 C264 0.959 . S
H330 C265 0.960 . S
H331 C265 0.962 . S
H332 C265 0.961 . S
H333 C267 0.929 . S
H334 C270 0.930 . S
H335 C271 0.929 . S
H336 C274 0.930 . S
H337 C277 0.929 . S
H338 C278 0.930 . S
H339 C282 0.962 . S
H340 C282 0.959 . S
H341 C282 0.958 . S
C342 C343 1.560 . S
C342 H403 0.959 . S
C342 H404 0.959 . S
C342 H405 0.960 . S
C343 C342 1.560 . S
C343 O398 1.426 . S
C343 H402 0.980 . S
C344 C345 1.407 . S
C344 C349 1.418 . S
C344 O398 1.334 . S
C345 C344 1.407 . S
C345 C346 1.360 . S
C345 H406 0.929 . S
C346 C345 1.360 . S
C346 C347 1.401 . S
C346 C350 1.527 . S
C347 C346 1.401 . S
C347 C348 1.405 . S
C347 C380 1.587 . S
C348 C347 1.405 . S
C348 C349 1.332 . S
C348 C351 1.496 . S
C349 C344 1.418 . S
C349 C348 1.332 . S
C349 H407 0.929 . S
C350 C346 1.527 . S
C350 H408 0.959 . S
C350 H409 0.961 . S
C350 H410 0.961 . S
C351 C348 1.496 . S
C351 H411 0.960 . S
C351 H412 0.960 . S
C351 H413 0.961 . S
C352 C353 1.517 . S
C352 H415 0.961 . S
C352 H416 0.960 . S
C352 H417 0.959 . S
C353 C352 1.517 . S
C353 O401 1.468 . S
C353 H414 0.980 . S
C354 C355 1.349 . S
C354 C359 1.367 . S
C354 O401 1.408 . S
C355 C354 1.349 . S
C355 C356 1.407 . S
C355 H418 0.930 . S
C356 C355 1.407 . S
C356 C357 1.449 . S
C356 C360 1.535 . S
C357 C356 1.449 . S
C357 C358 1.384 . S
C357 C382 1.553 1_655 S
C358 C357 1.384 . S
C358 C359 1.364 . S
C358 C361 1.450 . S
C359 C354 1.367 . S
C359 C358 1.364 . S
C359 H419 0.931 . S
C360 C356 1.535 . S
C360 H420 0.959 1_655 S
C360 H421 0.961 1_655 S
C360 H422 0.959 . S
C361 C358 1.450 . S
C361 H423 0.960 . S
C361 H424 0.960 1_655 S
C361 H425 0.960 . S
C362 C363 1.309 . S
C362 C367 1.304 . S
C362 O400 1.435 . S
C363 C362 1.309 . S
C363 C364 1.476 . S
C363 H427 0.930 . S
C364 C363 1.476 . S
C364 C365 1.400 . S
C364 C368 1.567 . S
C365 C364 1.400 . S
C365 C366 1.373 . S
C365 C387 1.432 . S
C366 C365 1.373 . S
C366 C367 1.339 . S
C366 C369 1.530 . S
C367 C362 1.304 . S
C367 C366 1.339 . S
C367 H428 0.930 . S
C368 C364 1.567 . S
C368 H429 0.961 . S
C368 H430 0.960 . S
C368 H431 0.958 . S
C369 C366 1.530 . S
C369 H432 0.961 . S
C369 H433 0.960 . S
C369 H434 0.960 . S
C370 C371 1.530 . S
C370 H436 0.961 . S
C370 H437 0.961 . S
C370 H438 0.959 . S
C371 C370 1.530 . S
C371 O399 1.412 . S
C371 H435 0.980 . S
C372 C373 1.288 . S
C372 C377 1.377 . S
C372 O399 1.393 . S
C373 C372 1.288 . S
C373 C374 1.369 . S
C373 H439 0.932 . S
C374 C373 1.369 . S
C374 C375 1.398 . S
C374 C378 1.527 . S
C375 C374 1.398 . S
C375 C376 1.380 . S
C375 C389 1.497 . S
C376 C375 1.380 . S
C376 C377 1.383 . S
C376 C379 1.603 . S
C377 C372 1.377 . S
C377 C376 1.383 . S
C377 H440 0.929 . S
C378 C374 1.527 . S
C378 H441 0.961 . S
C378 H442 0.959 1_455 S
C378 H443 0.959 . S
C379 C376 1.603 . S
C379 H444 0.960 . S
C379 H445 0.962 . S
C379 H446 0.961 . S
C380 C347 1.587 . S
C380 C381 1.360 . S
C380 C393 1.412 . S
C381 C380 1.360 . S
C381 C382 1.365 . S
C381 H447 0.929 . S
C382 C357 1.553 1_455 S
C382 C381 1.365 . S
C382 C383 1.404 . S
C383 C382 1.404 . S
C383 C384 1.395 1_455 S
C383 C394 1.451 . S
C384 C383 1.395 1_655 S
C384 C385 1.322 . S
C384 H448 0.930 . S
C385 C384 1.322 . S
C385 C386 1.459 . S
C385 H449 0.929 . S
C386 C385 1.459 . S
C386 C387 1.445 . S
C386 C395 1.395 1_655 S
C387 C365 1.432 . S
C387 C386 1.445 . S
C387 C388 1.370 . S
C388 C387 1.370 . S
C388 C389 1.438 1_655 S
C388 H450 0.930 . S
C389 C375 1.497 . S
C389 C388 1.438 1_455 S
C389 C390 1.360 . S
C390 C389 1.360 . S
C390 C391 1.401 . S
C390 C395 1.446 . S
C391 C390 1.401 . S
C391 C392 1.347 . S
C391 H451 0.929 . S
C392 C391 1.347 . S
C392 C393 1.455 . S
C392 H452 0.930 . S
C393 C380 1.412 . S
C393 C392 1.455 . S
C393 C394 1.331 . S
C394 C383 1.451 . S
C394 C393 1.331 . S
C394 C395 1.497 . S
C395 C386 1.395 1_455 S
C395 C390 1.446 . S
C395 C394 1.497 . S
C396 C397 1.582 . S
C396 H453 0.962 . S
C396 H454 0.959 . S
C396 H455 0.958 . S
C397 C396 1.582 . S
C397 O400 1.458 . S
C397 H426 0.980 . S
O398 C343 1.426 . S
O398 C344 1.334 . S
O399 C371 1.412 . S
O399 C372 1.393 . S
O400 C362 1.435 . S
O400 C397 1.458 . S
O401 C353 1.468 . S
O401 C354 1.408 . S
H402 C343 0.980 . S
H403 C342 0.959 . S
H404 C342 0.959 . S
H405 C342 0.960 . S
H406 C345 0.929 . S
H407 C349 0.929 . S
H408 C350 0.959 . S
H409 C350 0.961 . S
H410 C350 0.961 . S
H411 C351 0.960 . S
H412 C351 0.960 . S
H413 C351 0.961 . S
H414 C353 0.980 . S
H415 C352 0.961 . S
H416 C352 0.960 . S
H417 C352 0.959 . S
H418 C355 0.930 . S
H419 C359 0.931 . S
H420 C360 0.959 1_455 S
H421 C360 0.961 1_455 S
H422 C360 0.959 . S
H423 C361 0.960 . S
H424 C361 0.960 1_455 S
H425 C361 0.960 . S
H426 C397 0.980 . S
H427 C363 0.930 . S
H428 C367 0.930 . S
H429 C368 0.961 . S
H430 C368 0.960 . S
H431 C368 0.958 . S
H432 C369 0.961 . S
H433 C369 0.960 . S
H434 C369 0.960 . S
H435 C371 0.980 . S
H436 C370 0.961 . S
H437 C370 0.961 . S
H438 C370 0.959 . S
H439 C373 0.932 . S
H440 C377 0.929 . S
H441 C378 0.961 . S
H442 C378 0.959 1_655 S
H443 C378 0.959 . S
H444 C379 0.960 . S
H445 C379 0.962 . S
H446 C379 0.961 . S
H447 C381 0.929 . S
H448 C384 0.930 . S
H449 C385 0.929 . S
H450 C388 0.930 . S
H451 C391 0.929 . S
H452 C392 0.930 . S
H453 C396 0.962 . S
H454 C396 0.959 . S
H455 C396 0.958 . S
C456 C457 1.560 . S
C456 H517 0.959 . S
C456 H518 0.959 . S
C456 H519 0.960 . S
C457 C456 1.560 . S
C457 O512 1.426 . S
C457 H516 0.980 . S
C458 C459 1.407 . S
C458 C463 1.418 . S
C458 O512 1.334 . S
C459 C458 1.407 . S
C459 C460 1.360 . S
C459 H520 0.929 . S
C460 C459 1.360 . S
C460 C461 1.401 . S
C460 C464 1.527 . S
C461 C460 1.401 . S
C461 C462 1.405 . S
C461 C494 1.587 . S
C462 C461 1.405 . S
C462 C463 1.332 . S
C462 C465 1.496 . S
C463 C458 1.418 . S
C463 C462 1.332 . S
C463 H521 0.929 . S
C464 C460 1.527 . S
C464 H522 0.959 . S
C464 H523 0.961 . S
C464 H524 0.961 . S
C465 C462 1.496 . S
C465 H525 0.960 . S
C465 H526 0.960 . S
C465 H527 0.961 . S
C466 C467 1.517 . S
C466 H529 0.961 . S
C466 H530 0.960 . S
C466 H531 0.959 . S
C467 C466 1.517 . S
C467 O515 1.468 . S
C467 H528 0.980 . S
C468 C469 1.349 . S
C468 C473 1.367 . S
C468 O515 1.408 . S
C469 C468 1.349 . S
C469 C470 1.407 . S
C469 H532 0.930 . S
C470 C469 1.407 . S
C470 C471 1.449 . S
C470 C474 1.535 . S
C471 C470 1.449 . S
C471 C472 1.384 . S
C471 C496 1.553 . S
C472 C471 1.384 . S
C472 C473 1.364 . S
C472 C475 1.450 . S
C473 C468 1.367 . S
C473 C472 1.364 . S
C473 H533 0.931 . S
C474 C470 1.535 . S
C474 H534 0.959 . S
C474 H535 0.961 . S
C474 H536 0.959 . S
C475 C472 1.450 . S
C475 H537 0.960 . S
C475 H538 0.960 . S
C475 H539 0.960 . S
C476 C477 1.309 . S
C476 C481 1.304 . S
C476 O514 1.435 . S
C477 C476 1.309 . S
C477 C478 1.476 . S
C477 H541 0.930 . S
C478 C477 1.476 . S
C478 C479 1.400 . S
C478 C482 1.567 . S
C479 C478 1.400 . S
C479 C480 1.373 . S
C479 C501 1.432 . S
C480 C479 1.373 . S
C480 C481 1.339 . S
C480 C483 1.530 . S
C481 C476 1.304 . S
C481 C480 1.339 . S
C481 H542 0.930 . S
C482 C478 1.567 . S
C482 H543 0.961 . S
C482 H544 0.960 . S
C482 H545 0.958 . S
C483 C480 1.530 . S
C483 H546 0.961 . S
C483 H547 0.960 . S
C483 H548 0.960 . S
C484 C485 1.530 . S
C484 H550 0.961 . S
C484 H551 0.961 . S
C484 H552 0.959 . S
C485 C484 1.530 . S
C485 O513 1.412 . S
C485 H549 0.980 . S
C486 C487 1.288 . S
C486 C491 1.377 . S
C486 O513 1.393 . S
C487 C486 1.288 . S
C487 C488 1.369 . S
C487 H553 0.932 . S
C488 C487 1.369 . S
C488 C489 1.398 . S
C488 C492 1.527 1_565 S
C489 C488 1.398 . S
C489 C490 1.380 . S
C489 C503 1.497 1_565 S
C490 C489 1.380 . S
C490 C491 1.383 . S
C490 C493 1.603 . S
C491 C486 1.377 . S
C491 C490 1.383 . S
C491 H554 0.929 . S
C492 C488 1.527 1_545 S
C492 H555 0.961 1_545 S
C492 H556 0.959 . S
C492 H557 0.959 1_545 S
C493 C490 1.603 . S
C493 H558 0.960 . S
C493 H559 0.962 . S
C493 H560 0.961 . S
C494 C461 1.587 . S
C494 C495 1.360 . S
C494 C507 1.412 . S
C495 C494 1.360 . S
C495 C496 1.365 1_565 S
C495 H561 0.929 . S
C496 C471 1.553 . S
C496 C495 1.365 1_545 S
C496 C497 1.404 . S
C497 C496 1.404 . S
C497 C498 1.395 . S
C497 C508 1.451 1_545 S
C498 C497 1.395 . S
C498 C499 1.322 . S
C498 H562 0.930 . S
C499 C498 1.322 . S
C499 C500 1.459 1_556 S
C499 H563 0.929 . S
C500 C499 1.459 1_554 S
C500 C501 1.445 . S
C500 C509 1.395 1_554 S
C501 C479 1.432 . S
C501 C500 1.445 . S
C501 C502 1.370 . S
C502 C501 1.370 . S
C502 C503 1.438 . S
C502 H564 0.930 . S
C503 C489 1.497 1_545 S
C503 C502 1.438 . S
C503 C504 1.360 1_545 S
C504 C503 1.360 1_565 S
C504 C505 1.401 . S
C504 C509 1.446 1_564 S
C505 C504 1.401 . S
C505 C506 1.347 1_554 S
C505 H565 0.929 . S
C506 C505 1.347 1_556 S
C506 C507 1.455 . S
C506 H566 0.930 . S
C507 C494 1.412 . S
C507 C506 1.455 . S
C507 C508 1.331 . S
C508 C497 1.451 1_565 S
C508 C507 1.331 . S
C508 C509 1.497 1_565 S
C509 C500 1.395 1_556 S
C509 C504 1.446 1_546 S
C509 C508 1.497 1_545 S
C510 C511 1.582 . S
C510 H567 0.962 . S
C510 H568 0.959 . S
C510 H569 0.958 . S
C511 C510 1.582 . S
C511 O514 1.458 . S
C511 H540 0.980 . S
O512 C457 1.426 . S
O512 C458 1.334 . S
O513 C485 1.412 . S
O513 C486 1.393 . S
O514 C476 1.435 . S
O514 C511 1.458 . S
O515 C467 1.468 . S
O515 C468 1.408 . S
H516 C457 0.980 . S
H517 C456 0.959 . S
H518 C456 0.959 . S
H519 C456 0.960 . S
H520 C459 0.929 . S
H521 C463 0.929 . S
H522 C464 0.959 . S
H523 C464 0.961 . S
H524 C464 0.961 . S
H525 C465 0.960 . S
H526 C465 0.960 . S
H527 C465 0.961 . S
H528 C467 0.980 . S
H529 C466 0.961 . S
H530 C466 0.960 . S
H531 C466 0.959 . S
H532 C469 0.930 . S
H533 C473 0.931 . S
H534 C474 0.959 . S
H535 C474 0.961 . S
H536 C474 0.959 . S
H537 C475 0.960 . S
H538 C475 0.960 . S
H539 C475 0.960 . S
H540 C511 0.980 . S
H541 C477 0.930 . S
H542 C481 0.930 . S
H543 C482 0.961 . S
H544 C482 0.960 . S
H545 C482 0.958 . S
H546 C483 0.961 . S
H547 C483 0.960 . S
H548 C483 0.960 . S
H549 C485 0.980 . S
H550 C484 0.961 . S
H551 C484 0.961 . S
H552 C484 0.959 . S
H553 C487 0.932 . S
H554 C491 0.929 . S
H555 C492 0.961 1_565 S
H556 C492 0.959 . S
H557 C492 0.959 1_565 S
H558 C493 0.960 . S
H559 C493 0.962 . S
H560 C493 0.961 . S
H561 C495 0.929 . S
H562 C498 0.930 . S
H563 C499 0.929 . S
H564 C502 0.930 . S
H565 C505 0.929 . S
H566 C506 0.930 . S
H567 C510 0.962 . S
H568 C510 0.959 . S
H569 C510 0.958 . S
C570 C571 1.560 . S
C570 H631 0.959 . S
C570 H632 0.959 . S
C570 H633 0.960 . S
C571 C570 1.560 . S
C571 O626 1.426 . S
C571 H630 0.980 . S
C572 C573 1.407 . S
C572 C577 1.418 . S
C572 O626 1.334 . S
C573 C572 1.407 . S
C573 C574 1.360 . S
C573 H634 0.929 . S
C574 C573 1.360 . S
C574 C575 1.401 . S
C574 C578 1.527 . S
C575 C574 1.401 . S
C575 C576 1.405 . S
C575 C608 1.587 . S
C576 C575 1.405 . S
C576 C577 1.332 . S
C576 C579 1.496 . S
C577 C572 1.418 . S
C577 C576 1.332 . S
C577 H635 0.929 . S
C578 C574 1.527 . S
C578 H636 0.959 . S
C578 H637 0.961 . S
C578 H638 0.961 . S
C579 C576 1.496 . S
C579 H639 0.960 . S
C579 H640 0.960 . S
C579 H641 0.961 . S
C580 C581 1.517 1_556 S
C580 H643 0.961 . S
C580 H644 0.960 . S
C580 H645 0.967 . S
C581 C580 1.517 1_554 S
C581 O629 1.468 . S
C581 H642 0.980 . S
C582 C583 1.349 . S
C582 C587 1.367 . S
C582 O629 1.408 . S
C583 C582 1.349 . S
C583 C584 1.407 . S
C583 H646 0.930 . S
C584 C583 1.407 . S
C584 C585 1.449 . S
C584 C588 1.535 . S
C585 C584 1.449 . S
C585 C586 1.384 . S
C585 C610 1.553 . S
C586 C585 1.384 . S
C586 C587 1.364 . S
C586 C589 1.450 . S
C587 C582 1.367 . S
C587 C586 1.364 . S
C587 H647 0.931 . S
C588 C584 1.535 . S
C588 H648 0.959 . S
C588 H649 0.961 . S
C588 H650 0.959 . S
C589 C586 1.450 . S
C589 H651 0.960 . S
C589 H652 0.960 . S
C589 H653 0.960 . S
C590 C591 1.309 . S
C590 C595 1.304 . S
C590 O628 1.435 . S
C591 C590 1.309 . S
C591 C592 1.476 . S
C591 H655 0.930 . S
C592 C591 1.476 . S
C592 C593 1.400 . S
C592 C596 1.567 . S
C593 C592 1.400 . S
C593 C594 1.373 . S
C593 C615 1.432 . S
C594 C593 1.373 . S
C594 C595 1.339 . S
C594 C597 1.530 . S
C595 C590 1.304 . S
C595 C594 1.339 . S
C595 H656 0.930 . S
C596 C592 1.567 . S
C596 H657 0.961 . S
C596 H658 0.960 . S
C596 H659 0.958 . S
C597 C594 1.530 . S
C597 H660 0.961 . S
C597 H661 0.960 . S
C597 H662 0.960 . S
C598 C599 1.530 . S
C598 H664 0.961 . S
C598 H665 0.961 . S
C598 H666 0.959 . S
C599 C598 1.530 . S
C599 O627 1.412 . S
C599 H663 0.980 . S
C600 C601 1.288 . S
C600 C605 1.377 . S
C600 O627 1.393 . S
C601 C600 1.288 . S
C601 C602 1.369 . S
C601 H667 0.932 . S
C602 C601 1.369 . S
C602 C603 1.398 . S
C602 C606 1.527 . S
C603 C602 1.398 . S
C603 C604 1.380 . S
C603 C617 1.497 . S
C604 C603 1.380 . S
C604 C605 1.383 . S
C604 C607 1.603 . S
C605 C600 1.377 . S
C605 C604 1.383 . S
C605 H668 0.929 . S
C606 C602 1.527 . S
C606 H669 0.961 . S
C606 H670 0.959 . S
C606 H671 0.959 . S
C607 C604 1.603 . S
C607 H672 0.960 . S
C607 H673 0.962 . S
C607 H674 0.961 . S
C608 C575 1.587 . S
C608 C609 1.360 . S
C608 C621 1.412 . S
C609 C608 1.360 . S
C609 C610 1.365 . S
C609 H675 0.929 . S
C610 C585 1.553 . S
C610 C609 1.365 . S
C610 C611 1.404 . S
C611 C610 1.404 . S
C611 C612 1.395 . S
C611 C622 1.451 . S
C612 C611 1.395 . S
C612 C613 1.322 . S
C612 H676 0.930 . S
C613 C612 1.322 . S
C613 C614 1.459 . S
C613 H677 0.929 . S
C614 C613 1.459 . S
C614 C615 1.445 . S
C614 C623 1.395 . S
C615 C593 1.432 . S
C615 C614 1.445 . S
C615 C616 1.370 . S
C616 C615 1.370 . S
C616 C617 1.438 . S
C616 H678 0.930 . S
C617 C603 1.497 . S
C617 C616 1.438 . S
C617 C618 1.360 . S
C618 C617 1.360 . S
C618 C619 1.401 . S
C618 C623 1.446 . S
C619 C618 1.401 . S
C619 C620 1.347 . S
C619 H679 0.929 . S
C620 C619 1.347 . S
C620 C621 1.455 . S
C620 H680 0.930 . S
C621 C608 1.412 . S
C621 C620 1.455 . S
C621 C622 1.331 . S
C622 C611 1.451 . S
C622 C621 1.331 . S
C622 C623 1.497 . S
C623 C614 1.395 . S
C623 C618 1.446 . S
C623 C622 1.497 . S
C624 C625 1.582 . S
C624 H681 0.962 . S
C624 H682 0.959 . S
C624 H683 0.958 . S
C625 C624 1.582 . S
C625 O628 1.458 . S
C625 H654 0.980 . S
O626 C571 1.426 . S
O626 C572 1.334 . S
O627 C599 1.412 . S
O627 C600 1.393 . S
O628 C590 1.435 . S
O628 C625 1.458 . S
O629 C581 1.468 . S
O629 C582 1.408 . S
H630 C571 0.980 . S
H631 C570 0.959 . S
H632 C570 0.959 . S
H633 C570 0.960 . S
H634 C573 0.929 . S
H635 C577 0.929 . S
H636 C578 0.959 . S
H637 C578 0.961 . S
H638 C578 0.961 . S
H639 C579 0.960 . S
H640 C579 0.960 . S
H641 C579 0.961 . S
H642 C581 0.980 . S
H643 C580 0.961 . S
H644 C580 0.960 . S
H645 C580 0.967 . S
H646 C583 0.930 . S
H647 C587 0.931 . S
H648 C588 0.959 . S
H649 C588 0.961 . S
H650 C588 0.959 . S
H651 C589 0.960 . S
H652 C589 0.960 . S
H653 C589 0.960 . S
H654 C625 0.980 . S
H655 C591 0.930 . S
H656 C595 0.930 . S
H657 C596 0.961 . S
H658 C596 0.960 . S
H659 C596 0.958 . S
H660 C597 0.961 . S
H661 C597 0.960 . S
H662 C597 0.960 . S
H663 C599 0.980 . S
H664 C598 0.961 . S
H665 C598 0.961 . S
H666 C598 0.959 . S
H667 C601 0.932 . S
H668 C605 0.929 . S
H669 C606 0.961 . S
H670 C606 0.959 . S
H671 C606 0.959 . S
H672 C607 0.960 . S
H673 C607 0.962 . S
H674 C607 0.961 . S
H675 C609 0.929 . S
H676 C612 0.930 . S
H677 C613 0.929 . S
H678 C616 0.930 . S
H679 C619 0.929 . S
H680 C620 0.930 . S
H681 C624 0.962 . S
H682 C624 0.959 . S
H683 C624 0.958 . S
Co684 O685 2.216 . S
Co684 O686 2.091 . S
Co684 O688 2.004 . S
Co684 O694 2.021 . S
Co684 O696 2.137 . S
Co684 O697 2.244 . S
O685 Co684 2.216 . S
O685 C692 1.247 . S
O686 Co684 2.091 . S
O686 C692 1.261 . S
C687 O696 1.247 . S
C687 O697 1.272 . S
O688 Co684 2.004 . S
O688 C693 1.259 . S
Co689 O690 2.061 . S
Co689 O695 2.052 . S
Co689 O697 2.135 . S
O690 Co689 2.061 . S
O690 C693 1.235 . S
C691 O694 1.238 . S
C691 O695 1.241 . S
C692 O685 1.247 . S
C692 O686 1.261 . S
C693 O688 1.259 . S
C693 O690 1.235 . S
O694 Co684 2.021 . S
O694 C691 1.238 . S
O695 Co689 2.052 . S
O695 C691 1.241 . S
O696 Co684 2.137 . S
O696 C687 1.247 . S
O697 Co684 2.244 . S
O697 C687 1.272 . S
O697 Co689 2.135 . S
Co698 O699 2.216 . S
Co698 O700 2.091 . S
Co698 O702 2.004 . S
Co698 O708 2.021 . S
Co698 O710 2.137 . S
Co698 O711 2.244 . S
O699 Co698 2.216 . S
O699 C706 1.247 . S
O700 Co698 2.091 . S
O700 C706 1.261 . S
C701 O710 1.247 . S
C701 O711 1.272 . S
O702 Co698 2.004 . S
O702 C707 1.259 . S
Co703 O704 2.061 . S
Co703 O709 2.052 . S
Co703 O711 2.135 . S
O704 Co703 2.061 . S
O704 C707 1.235 . S
C705 O708 1.238 . S
C705 O709 1.241 . S
C706 O699 1.247 . S
C706 O700 1.261 . S
C707 O702 1.259 . S
C707 O704 1.235 . S
O708 Co698 2.021 . S
O708 C705 1.238 . S
O709 Co703 2.052 . S
O709 C705 1.241 . S
O710 Co698 2.137 . S
O710 C701 1.247 . S
O711 Co698 2.244 . S
O711 C701 1.272 . S
O711 Co703 2.135 . S
Co712 O713 2.216 . S
Co712 O714 2.091 . S
Co712 O716 2.004 . S
Co712 O722 2.021 . S
Co712 O724 2.137 . S
Co712 O725 2.244 . S
O713 Co712 2.216 . S
O713 C720 1.247 . S
O714 Co712 2.091 . S
O714 C720 1.261 . S
C715 O724 1.247 . S
C715 O725 1.272 . S
O716 Co712 2.004 . S
O716 C721 1.259 . S
Co717 O718 2.061 . S
Co717 O723 2.052 . S
Co717 O725 2.135 . S
O718 Co717 2.061 . S
O718 C721 1.235 . S
C719 O722 1.238 . S
C719 O723 1.241 . S
C720 O713 1.247 . S
C720 O714 1.261 . S
C721 O716 1.259 . S
C721 O718 1.235 . S
O722 Co712 2.021 . S
O722 C719 1.238 . S
O723 Co717 2.052 . S
O723 C719 1.241 . S
O724 Co712 2.137 . S
O724 C715 1.247 . S
O725 Co712 2.244 . S
O725 C715 1.272 . S
O725 Co717 2.135 . S
Co726 O727 2.216 . S
Co726 O728 2.091 . S
Co726 O730 2.004 . S
Co726 O736 2.021 . S
Co726 O738 2.137 . S
Co726 O739 2.244 . S
O727 Co726 2.216 . S
O727 C734 1.247 . S
O728 Co726 2.091 . S
O728 C734 1.261 . S
C729 O738 1.247 . S
C729 O739 1.272 . S
O730 Co726 2.004 . S
O730 C735 1.259 . S
Co731 O732 2.061 . S
Co731 O737 2.052 . S
Co731 O739 2.135 . S
O732 Co731 2.061 . S
O732 C735 1.235 . S
C733 O736 1.238 . S
C733 O737 1.241 . S
C734 O727 1.247 . S
C734 O728 1.261 . S
C735 O730 1.259 . S
C735 O732 1.235 . S
O736 Co726 2.021 . S
O736 C733 1.238 . S
O737 Co731 2.052 . S
O737 C733 1.241 . S
O738 Co726 2.137 . S
O738 C729 1.247 . S
O739 Co726 2.244 . S
O739 C729 1.272 . S
O739 Co731 2.135 . S
Co740 O741 2.216 . S
Co740 O742 2.091 . S
Co740 O744 2.004 . S
Co740 O750 2.021 . S
Co740 O752 2.137 . S
Co740 O753 2.244 . S
O741 Co740 2.216 . S
O741 C748 1.247 . S
O742 Co740 2.091 . S
O742 C748 1.261 . S
C743 O752 1.247 . S
C743 O753 1.272 . S
O744 Co740 2.004 . S
O744 C749 1.259 . S
Co745 O746 2.061 . S
Co745 O751 2.052 . S
Co745 O753 2.135 . S
O746 Co745 2.061 . S
O746 C749 1.235 . S
C747 O750 1.238 . S
C747 O751 1.241 . S
C748 O741 1.247 . S
C748 O742 1.261 . S
C749 O744 1.259 . S
C749 O746 1.235 . S
O750 Co740 2.021 . S
O750 C747 1.238 . S
O751 Co745 2.052 . S
O751 C747 1.241 . S
O752 Co740 2.137 . S
O752 C743 1.247 . S
O753 Co740 2.244 . S
O753 C743 1.272 . S
O753 Co745 2.135 . S
Co754 O755 2.216 . S
Co754 O756 2.091 . S
Co754 O758 2.004 . S
Co754 O764 2.021 . S
Co754 O766 2.137 . S
Co754 O767 2.244 . S
O755 Co754 2.216 . S
O755 C762 1.247 . S
O756 Co754 2.091 . S
O756 C762 1.261 . S
C757 O766 1.247 . S
C757 O767 1.272 . S
O758 Co754 2.004 . S
O758 C763 1.259 . S
Co759 O760 2.061 . S
Co759 O765 2.052 . S
Co759 O767 2.135 . S
O760 Co759 2.061 . S
O760 C763 1.235 . S
C761 O764 1.238 . S
C761 O765 1.241 . S
C762 O755 1.247 . S
C762 O756 1.261 . S
C763 O758 1.259 . S
C763 O760 1.235 . S
O764 Co754 2.021 . S
O764 C761 1.238 . S
O765 Co759 2.052 . S
O765 C761 1.241 . S
O766 Co754 2.137 . S
O766 C757 1.247 . S
O767 Co754 2.244 . S
O767 C757 1.272 . S
O767 Co759 2.135 . S
C768 C769 1.363 . S
C768 C774 1.379 . S
C768 N776 1.356 . S
C769 C768 1.363 . S
C769 C775 1.363 . S
C770 C771 1.363 . S
C770 C775 1.379 . S
C770 N777 1.356 . S
C771 C770 1.363 . S
C771 C774 1.363 . S
N772 C774 1.356 . S
N772 H784 0.984 . S
N772 H785 0.985 . S
N773 C775 1.356 . S
N773 H778 0.984 . S
N773 H779 0.985 . S
C774 C768 1.379 . S
C774 C771 1.363 . S
C774 N772 1.356 . S
C775 C769 1.363 . S
C775 C770 1.379 . S
C775 N773 1.356 . S
N776 C768 1.356 . S
N776 H782 0.984 . S
N776 H783 0.984 . S
N777 C770 1.356 . S
N777 H780 0.984 . S
N777 H781 0.985 . S
H778 N773 0.984 . S
H779 N773 0.985 . S
H780 N777 0.984 . S
H781 N777 0.985 . S
H782 N776 0.984 . S
H783 N776 0.984 . S
H784 N772 0.984 . S
H785 N772 0.985 . S
C786 C787 1.363 . S
C786 C792 1.379 . S
C786 N794 1.356 . S
C787 C786 1.363 . S
C787 C793 1.363 . S
C788 C789 1.363 . S
C788 C793 1.379 . S
C788 N795 1.356 . S
C789 C788 1.363 . S
C789 C792 1.363 . S
N790 C792 1.356 . S
N790 H802 0.984 . S
N790 H803 0.985 . S
N791 C793 1.356 . S
N791 H796 0.984 . S
N791 H797 0.985 . S
C792 C786 1.379 . S
C792 C789 1.363 . S
C792 N790 1.356 . S
C793 C787 1.363 . S
C793 C788 1.379 . S
C793 N791 1.356 . S
N794 C786 1.356 . S
N794 H800 0.984 . S
N794 H801 0.984 . S
N795 C788 1.356 . S
N795 H798 0.984 . S
N795 H799 0.985 . S
H796 N791 0.984 . S
H797 N791 0.985 . S
H798 N795 0.984 . S
H799 N795 0.985 . S
H800 N794 0.984 . S
H801 N794 0.984 . S
H802 N790 0.984 . S
H803 N790 0.985 . S
C804 C805 1.363 . S
C804 C810 1.379 . S
C804 N812 1.356 . S
C805 C804 1.363 . S
C805 C811 1.363 . S
C806 C807 1.363 . S
C806 C811 1.379 . S
C806 N813 1.356 . S
C807 C806 1.363 . S
C807 C810 1.363 . S
N808 C810 1.356 . S
N808 H820 0.984 . S
N808 H821 0.985 . S
N809 C811 1.356 . S
N809 H814 0.984 . S
N809 H815 0.985 . S
C810 C804 1.379 . S
C810 C807 1.363 . S
C810 N808 1.356 . S
C811 C805 1.363 . S
C811 C806 1.379 . S
C811 N809 1.356 . S
N812 C804 1.356 . S
N812 H818 0.984 . S
N812 H819 0.984 . S
N813 C806 1.356 . S
N813 H816 0.984 . S
N813 H817 0.985 . S
H814 N809 0.984 . S
H815 N809 0.985 . S
H816 N813 0.984 . S
H817 N813 0.985 . S
H818 N812 0.984 . S
H819 N812 0.984 . S
H820 N808 0.984 . S
H821 N808 0.985 . S
C822 C823 1.363 . S
C822 C828 1.379 . S
C822 N830 1.356 . S
C823 C822 1.363 . S
C823 C829 1.363 . S
C824 C825 1.363 . S
C824 C829 1.379 . S
C824 N831 1.356 . S
C825 C824 1.363 . S
C825 C828 1.363 . S
N826 C828 1.356 . S
N826 H838 0.984 . S
N826 H839 0.985 . S
N827 C829 1.356 . S
N827 H832 0.984 . S
N827 H833 0.985 . S
C828 C822 1.379 . S
C828 C825 1.363 . S
C828 N826 1.356 . S
C829 C823 1.363 . S
C829 C824 1.379 . S
C829 N827 1.356 . S
N830 C822 1.356 . S
N830 H836 0.984 . S
N830 H837 0.984 . S
N831 C824 1.356 . S
N831 H834 0.984 . S
N831 H835 0.985 . S
H832 N827 0.984 . S
H833 N827 0.985 . S
H834 N831 0.984 . S
H835 N831 0.985 . S
H836 N830 0.984 . S
H837 N830 0.984 . S
H838 N826 0.984 . S
H839 N826 0.985 . S
C840 C841 1.363 . S
C840 C846 1.379 . S
C840 N848 1.356 . S
C841 C840 1.363 . S
C841 C847 1.363 . S
C842 C843 1.363 . S
C842 C847 1.379 . S
C842 N849 1.356 . S
C843 C842 1.363 . S
C843 C846 1.363 . S
N844 C846 1.356 . S
N844 H856 0.984 . S
N844 H857 0.985 . S
N845 C847 1.356 . S
N845 H850 0.984 . S
N845 H851 0.985 . S
C846 C840 1.379 . S
C846 C843 1.363 . S
C846 N844 1.356 . S
C847 C841 1.363 . S
C847 C842 1.379 . S
C847 N845 1.356 . S
N848 C840 1.356 . S
N848 H854 0.984 . S
N848 H855 0.984 . S
N849 C842 1.356 . S
N849 H852 0.984 . S
N849 H853 0.985 . S
H850 N845 0.984 . S
H851 N845 0.985 . S
H852 N849 0.984 . S
H853 N849 0.985 . S
H854 N848 0.984 . S
H855 N848 0.984 . S
H856 N844 0.984 . S
H857 N844 0.985 . S
C858 C859 1.363 . S
C858 C864 1.379 . S
C858 N866 1.356 . S
C859 C858 1.363 . S
C859 C865 1.363 . S
C860 C861 1.363 . S
C860 C865 1.379 . S
C860 N867 1.356 . S
C861 C860 1.363 . S
C861 C864 1.363 . S
N862 C864 1.356 . S
N862 H874 0.984 . S
N862 H875 0.985 . S
N863 C865 1.356 . S
N863 H868 0.984 . S
N863 H869 0.985 . S
C864 C858 1.379 . S
C864 C861 1.363 . S
C864 N862 1.356 . S
C865 C859 1.363 . S
C865 C860 1.379 . S
C865 N863 1.356 . S
N866 C858 1.356 . S
N866 H872 0.984 . S
N866 H873 0.984 . S
N867 C860 1.356 . S
N867 H870 0.984 . S
N867 H871 0.985 . S
H868 N863 0.984 . S
H869 N863 0.985 . S
H870 N867 0.984 . S
H871 N867 0.985 . S
H872 N866 0.984 . S
H873 N866 0.984 . S
H874 N862 0.984 . S
H875 N862 0.985 . S
C876 C877 1.363 . S
C876 C882 1.379 . S
C876 N884 1.356 . S
C877 C876 1.363 . S
C877 C883 1.363 . S
C878 C879 1.363 . S
C878 C883 1.379 . S
C878 N885 1.356 . S
C879 C878 1.363 . S
C879 C882 1.363 . S
N880 C882 1.356 . S
N880 H892 0.984 . S
N880 H893 0.985 . S
N881 C883 1.356 . S
N881 H886 0.984 . S
N881 H887 0.985 . S
C882 C876 1.379 . S
C882 C879 1.363 . S
C882 N880 1.356 . S
C883 C877 1.363 . S
C883 C878 1.379 . S
C883 N881 1.356 . S
N884 C876 1.356 . S
N884 H890 0.984 . S
N884 H891 0.984 . S
N885 C878 1.356 . S
N885 H888 0.984 . S
N885 H889 0.985 . S
H886 N881 0.984 . S
H887 N881 0.985 . S
H888 N885 0.984 . S
H889 N885 0.985 . S
H890 N884 0.984 . S
H891 N884 0.984 . S
H892 N880 0.984 . S
H893 N880 0.985 . S
C894 C895 1.363 . S
C894 C900 1.379 . S
C894 N902 1.356 . S
C895 C894 1.363 . S
C895 C901 1.363 . S
C896 C897 1.363 . S
C896 C901 1.379 . S
C896 N903 1.356 . S
C897 C896 1.363 . S
C897 C900 1.363 . S
N898 C900 1.356 . S
N898 H910 0.984 . S
N898 H911 0.985 . S
N899 C901 1.356 . S
N899 H904 0.984 . S
N899 H905 0.985 . S
C900 C894 1.379 . S
C900 C897 1.363 . S
C900 N898 1.356 . S
C901 C895 1.363 . S
C901 C896 1.379 . S
C901 N899 1.356 . S
N902 C894 1.356 . S
N902 H908 0.984 . S
N902 H909 0.984 . S
N903 C896 1.356 . S
N903 H906 0.984 . S
N903 H907 0.985 . S
H904 N899 0.984 . S
H905 N899 0.985 . S
H906 N903 0.984 . S
H907 N903 0.985 . S
H908 N902 0.984 . S
H909 N902 0.984 . S
H910 N898 0.984 . S
H911 N898 0.985 . S
C912 C913 1.363 . S
C912 C918 1.379 . S
C912 N920 1.356 . S
C913 C912 1.363 . S
C913 C919 1.363 . S
C914 C915 1.363 . S
C914 C919 1.379 . S
C914 N921 1.356 . S
C915 C914 1.363 . S
C915 C918 1.363 . S
N916 C918 1.356 . S
N916 H928 0.984 . S
N916 H929 0.985 . S
N917 C919 1.356 . S
N917 H922 0.984 . S
N917 H923 0.985 . S
C918 C912 1.379 . S
C918 C915 1.363 . S
C918 N916 1.356 . S
C919 C913 1.363 . S
C919 C914 1.379 . S
C919 N917 1.356 . S
N920 C912 1.356 . S
N920 H926 0.984 . S
N920 H927 0.984 . S
N921 C914 1.356 . S
N921 H924 0.984 . S
N921 H925 0.985 . S
H922 N917 0.984 . S
H923 N917 0.985 . S
H924 N921 0.984 . S
H925 N921 0.985 . S
H926 N920 0.984 . S
H927 N920 0.984 . S
H928 N916 0.984 . S
H929 N916 0.985 . S
C930 C931 1.363 . S
C930 C936 1.379 . S
C930 N938 1.356 . S
C931 C930 1.363 . S
C931 C937 1.363 . S
C932 C933 1.363 . S
C932 C937 1.379 . S
C932 N939 1.356 . S
C933 C932 1.363 . S
C933 C936 1.363 . S
N934 C936 1.356 . S
N934 H946 0.984 . S
N934 H947 0.985 . S
N935 C937 1.356 . S
N935 H940 0.984 . S
N935 H941 1.026 . S
C936 C930 1.379 . S
C936 C933 1.363 . S
C936 N934 1.356 . S
C937 C931 1.363 . S
C937 C932 1.379 . S
C937 N935 1.356 . S
N938 C930 1.356 . S
N938 H944 0.984 . S
N938 H945 0.984 . S
N939 C932 1.356 . S
N939 H942 0.984 . S
N939 H943 0.985 . S
H940 N935 0.984 . S
H941 N935 1.026 . S
H942 N939 0.984 . S
H943 N939 0.985 . S
H944 N938 0.984 . S
H945 N938 0.984 . S
H946 N934 0.984 . S
H947 N934 0.985 . S
C948 C949 1.363 . S
C948 C954 1.379 . S
C948 N956 1.356 . S
C949 C948 1.363 . S
C949 C955 1.363 . S
C950 C951 1.363 . S
C950 C955 1.379 . S
C950 N957 1.356 . S
C951 C950 1.363 . S
C951 C954 1.363 . S
N952 C954 1.356 . S
N952 H964 0.984 . S
N952 H965 0.985 . S
N953 C955 1.356 . S
N953 H958 0.984 . S
N953 H959 0.985 . S
C954 C948 1.379 . S
C954 C951 1.363 . S
C954 N952 1.356 . S
C955 C949 1.363 . S
C955 C950 1.379 . S
C955 N953 1.356 . S
N956 C948 1.356 . S
N956 H962 0.984 . S
N956 H963 0.984 . S
N957 C950 1.356 . S
N957 H960 0.984 . S
N957 H961 0.985 . S
H958 N953 0.984 . S
H959 N953 0.985 . S
H960 N957 0.984 . S
H961 N957 0.985 . S
H962 N956 0.984 . S
H963 N956 0.984 . S
H964 N952 0.984 . S
H965 N952 0.985 . S
C966 C967 1.363 . S
C966 C972 1.379 . S
C966 N974 1.356 . S
C967 C966 1.363 . S
C967 C973 1.363 . S
C968 C969 1.363 . S
C968 C973 1.379 . S
C968 N975 1.356 . S
C969 C968 1.363 . S
C969 C972 1.363 . S
N970 C972 1.356 . S
N970 H982 0.984 . S
N970 H983 0.985 . S
N971 C973 1.356 . S
N971 H976 0.984 . S
N971 H977 0.985 . S
C972 C966 1.379 . S
C972 C969 1.363 . S
C972 N970 1.356 . S
C973 C967 1.363 . S
C973 C968 1.379 . S
C973 N971 1.356 . S
N974 C966 1.356 . S
N974 H980 0.984 . S
N974 H981 0.984 . S
N975 C968 1.356 . S
N975 H978 0.984 . S
N975 H979 0.985 . S
H976 N971 0.984 . S
H977 N971 0.985 . S
H978 N975 0.984 . S
H979 N975 0.985 . S
H980 N974 0.984 . S
H981 N974 0.984 . S
H982 N970 0.984 . S
H983 N970 0.985 . S
C984 C985 1.363 . S
C984 C990 1.379 . S
C984 N992 1.356 . S
C985 C984 1.363 . S
C985 C991 1.363 . S
C986 C987 1.363 . S
C986 C991 1.379 . S
C986 N993 1.356 . S
C987 C986 1.363 . S
C987 C990 1.363 . S
N988 C990 1.356 . S
N988 H1000 0.984 . S
N988 H1001 0.985 . S
N989 C991 1.356 . S
N989 H994 0.984 . S
N989 H995 0.985 . S
C990 C984 1.379 . S
C990 C987 1.363 . S
C990 N988 1.356 . S
C991 C985 1.363 . S
C991 C986 1.379 . S
C991 N989 1.356 . S
N992 C984 1.356 . S
N992 H998 0.984 . S
N992 H999 0.984 . S
N993 C986 1.356 . S
N993 H996 0.984 . S
N993 H997 0.985 . S
H994 N989 0.984 . S
H995 N989 0.985 . S
H996 N993 0.984 . S
H997 N993 0.985 . S
H998 N992 0.984 . S
H999 N992 0.984 . S
H1000 N988 0.984 . S
H1001 N988 0.985 . S
C1002 C1003 1.363 . S
C1002 C1008 1.379 . S
C1002 N1010 1.356 . S
C1003 C1002 1.363 . S
C1003 C1009 1.363 . S
C1004 C1005 1.363 . S
C1004 C1009 1.379 . S
C1004 N1011 1.356 . S
C1005 C1004 1.363 . S
C1005 C1008 1.363 . S
N1006 C1008 1.356 . S
N1006 H1018 0.984 . S
N1006 H1019 0.985 . S
N1007 C1009 1.356 . S
N1007 H1012 0.984 . S
N1007 H1013 0.985 . S
C1008 C1002 1.379 . S
C1008 C1005 1.363 . S
C1008 N1006 1.356 . S
C1009 C1003 1.363 . S
C1009 C1004 1.379 . S
C1009 N1007 1.356 . S
N1010 C1002 1.356 . S
N1010 H1016 0.984 . S
N1010 H1017 0.984 . S
N1011 C1004 1.356 . S
N1011 H1014 0.984 . S
N1011 H1015 0.985 . S
H1012 N1007 0.984 . S
H1013 N1007 0.985 . S
H1014 N1011 0.984 . S
H1015 N1011 0.985 . S
H1016 N1010 0.984 . S
H1017 N1010 0.984 . S
H1018 N1006 0.984 . S
H1019 N1006 0.985 . S
C1020 C1021 1.363 . S
C1020 C1026 1.379 . S
C1020 N1028 1.356 . S
C1021 C1020 1.363 . S
C1021 C1027 1.363 . S
C1022 C1023 1.363 . S
C1022 C1027 1.379 . S
C1022 N1029 1.356 . S
C1023 C1022 1.363 . S
C1023 C1026 1.363 . S
N1024 C1026 1.356 . S
N1024 H1036 0.984 . S
N1024 H1037 0.985 . S
N1025 C1027 1.356 . S
N1025 H1030 0.984 . S
N1025 H1031 0.985 . S
C1026 C1020 1.379 . S
C1026 C1023 1.363 . S
C1026 N1024 1.356 . S
C1027 C1021 1.363 . S
C1027 C1022 1.379 . S
C1027 N1025 1.356 . S
N1028 C1020 1.356 . S
N1028 H1034 0.984 . S
N1028 H1035 0.984 . S
N1029 C1022 1.356 . S
N1029 H1032 0.984 . S
N1029 H1033 0.985 . S
H1030 N1025 0.984 . S
H1031 N1025 0.985 . S
H1032 N1029 0.984 . S
H1033 N1029 0.985 . S
H1034 N1028 0.984 . S
H1035 N1028 0.984 . S
H1036 N1024 0.984 . S
H1037 N1024 0.985 . S
C1038 C1039 1.363 . S
C1038 C1044 1.379 1_556 S
C1038 N1046 1.356 . S
C1039 C1038 1.363 . S
C1039 C1045 1.363 . S
C1040 C1041 1.363 1_556 S
C1040 C1045 1.379 . S
C1040 N1047 1.356 1_556 S
C1041 C1040 1.363 1_554 S
C1041 C1044 1.363 . S
N1042 C1044 1.356 . S
N1042 H1054 0.984 . S
N1042 H1055 0.985 . S
N1043 C1045 1.356 . S
N1043 H1048 0.984 . S
N1043 H1049 0.985 . S
C1044 C1038 1.379 1_554 S
C1044 C1041 1.363 . S
C1044 N1042 1.356 . S
C1045 C1039 1.363 . S
C1045 C1040 1.379 . S
C1045 N1043 1.356 . S
N1046 C1038 1.356 . S
N1046 H1052 0.984 . S
N1046 H1053 0.984 . S
N1047 C1040 1.356 1_554 S
N1047 H1050 0.984 . S
N1047 H1051 0.985 1_554 S
H1048 N1043 0.984 . S
H1049 N1043 0.985 . S
H1050 N1047 0.984 . S
H1051 N1047 0.985 1_556 S
H1052 N1046 0.984 . S
H1053 N1046 0.984 . S
H1054 N1042 0.984 . S
H1055 N1042 0.985 . S
C1056 C1057 1.363 . S
C1056 C1062 1.379 . S
C1056 N1064 1.356 . S
C1057 C1056 1.363 . S
C1057 C1063 1.363 . S
C1058 C1059 1.363 . S
C1058 C1063 1.379 . S
C1058 N1065 1.356 . S
C1059 C1058 1.363 . S
C1059 C1062 1.363 . S
N1060 C1062 1.356 . S
N1060 H1072 0.984 . S
N1060 H1073 0.985 . S
N1061 C1063 1.356 . S
N1061 H1066 0.984 . S
N1061 H1067 0.985 . S
C1062 C1056 1.379 . S
C1062 C1059 1.363 . S
C1062 N1060 1.356 . S
C1063 C1057 1.363 . S
C1063 C1058 1.379 . S
C1063 N1061 1.356 . S
N1064 C1056 1.356 . S
N1064 H1070 0.984 . S
N1064 H1071 0.984 . S
N1065 C1058 1.356 . S
N1065 H1068 0.984 . S
N1065 H1069 0.985 . S
H1066 N1061 0.984 . S
H1067 N1061 0.985 . S
H1068 N1065 0.984 . S
H1069 N1065 0.985 . S
H1070 N1064 0.984 . S
H1071 N1064 0.984 . S
H1072 N1060 0.984 . S
H1073 N1060 0.985 . S
C1074 C1075 1.363 . S
C1074 C1080 1.379 . S
C1074 N1082 1.356 . S
C1075 C1074 1.363 . S
C1075 C1081 1.363 . S
C1076 C1077 1.363 . S
C1076 C1081 1.379 . S
C1076 N1083 1.356 . S
C1077 C1076 1.363 . S
C1077 C1080 1.363 . S
N1078 C1080 1.356 . S
N1078 H1090 0.984 . S
N1078 H1091 0.985 . S
N1079 C1081 1.356 . S
N1079 H1084 0.984 . S
N1079 H1085 0.985 . S
C1080 C1074 1.379 . S
C1080 C1077 1.363 . S
C1080 N1078 1.356 . S
C1081 C1075 1.363 . S
C1081 C1076 1.379 . S
C1081 N1079 1.356 . S
N1082 C1074 1.356 . S
N1082 H1088 0.984 . S
N1082 H1089 0.984 . S
N1083 C1076 1.356 . S
N1083 H1086 0.984 . S
N1083 H1087 0.985 . S
H1084 N1079 0.984 . S
H1085 N1079 0.985 . S
H1086 N1083 0.984 . S
H1087 N1083 0.985 . S
H1088 N1082 0.984 . S
H1089 N1082 0.984 . S
H1090 N1078 0.984 . S
H1091 N1078 0.985 . S
C1092 C1093 1.363 . S
C1092 C1098 1.379 . S
C1092 N1100 1.356 . S
C1093 C1092 1.363 . S
C1093 C1099 1.363 . S
C1094 C1095 1.363 . S
C1094 C1099 1.379 . S
C1094 N1101 1.356 . S
C1095 C1094 1.363 . S
C1095 C1098 1.363 . S
N1096 C1098 1.356 . S
N1096 H1108 0.984 . S
N1096 H1109 0.985 . S
N1097 C1099 1.356 . S
N1097 H1102 0.984 . S
N1097 H1103 0.985 . S
C1098 C1092 1.379 . S
C1098 C1095 1.363 . S
C1098 N1096 1.356 . S
C1099 C1093 1.363 . S
C1099 C1094 1.379 . S
C1099 N1097 1.356 . S
N1100 C1092 1.356 . S
N1100 H1106 0.984 . S
N1100 H1107 0.984 . S
N1101 C1094 1.356 . S
N1101 H1104 0.984 . S
N1101 H1105 0.985 . S
H1102 N1097 0.984 . S
H1103 N1097 0.985 . S
H1104 N1101 0.984 . S
H1105 N1101 0.985 . S
H1106 N1100 0.984 . S
H1107 N1100 0.984 . S
H1108 N1096 0.984 . S
H1109 N1096 0.985 . S
C1110 C1111 1.363 . S
C1110 C1116 1.379 . S
C1110 N1118 1.356 . S
C1111 C1110 1.363 . S
C1111 C1117 1.363 . S
C1112 C1113 1.363 . S
C1112 C1117 1.379 . S
C1112 N1119 1.356 . S
C1113 C1112 1.363 . S
C1113 C1116 1.363 . S
N1114 C1116 1.356 . S
N1114 H1126 0.984 . S
N1114 H1127 0.985 . S
N1115 C1117 1.356 . S
N1115 H1120 0.984 . S
N1115 H1121 0.985 . S
C1116 C1110 1.379 . S
C1116 C1113 1.363 . S
C1116 N1114 1.356 . S
C1117 C1111 1.363 . S
C1117 C1112 1.379 . S
C1117 N1115 1.356 . S
N1118 C1110 1.356 . S
N1118 H1124 0.984 . S
N1118 H1125 0.984 . S
N1119 C1112 1.356 . S
N1119 H1122 0.984 . S
N1119 H1123 0.985 . S
H1120 N1115 0.984 . S
H1121 N1115 0.985 . S
H1122 N1119 0.984 . S
H1123 N1119 0.985 . S
H1124 N1118 0.984 . S
H1125 N1118 0.984 . S
H1126 N1114 0.984 . S
H1127 N1114 0.985 . S
C1128 C1129 1.363 . S
C1128 C1134 1.379 . S
C1128 N1136 1.356 . S
C1129 C1128 1.363 . S
C1129 C1135 1.363 . S
C1130 C1131 1.363 . S
C1130 C1135 1.379 . S
C1130 N1137 1.356 . S
C1131 C1130 1.363 . S
C1131 C1134 1.363 . S
N1132 C1134 1.356 . S
N1132 H1144 0.984 . S
N1132 H1145 0.985 . S
N1133 C1135 1.356 . S
N1133 H1138 0.984 . S
N1133 H1139 0.985 . S
C1134 C1128 1.379 . S
C1134 C1131 1.363 . S
C1134 N1132 1.356 . S
C1135 C1129 1.363 . S
C1135 C1130 1.379 . S
C1135 N1133 1.356 . S
N1136 C1128 1.356 . S
N1136 H1142 0.984 . S
N1136 H1143 0.984 . S
N1137 C1130 1.356 . S
N1137 H1140 0.984 . S
N1137 H1141 0.985 . S
H1138 N1133 0.984 . S
H1139 N1133 0.985 . S
H1140 N1137 0.984 . S
H1141 N1137 0.985 . S
H1142 N1136 0.984 . S
H1143 N1136 0.984 . S
H1144 N1132 0.984 . S
H1145 N1132 0.985 . S
C1146 C1147 1.363 . S
C1146 C1152 1.379 . S
C1146 N1154 1.356 . S
C1147 C1146 1.363 . S
C1147 C1153 1.363 . S
C1148 C1149 1.363 . S
C1148 C1153 1.379 . S
C1148 N1155 1.356 . S
C1149 C1148 1.363 . S
C1149 C1152 1.363 . S
N1150 C1152 1.356 . S
N1150 H1162 0.984 . S
N1150 H1163 0.985 . S
N1151 C1153 1.356 . S
N1151 H1156 0.984 . S
N1151 H1157 0.985 . S
C1152 C1146 1.379 . S
C1152 C1149 1.363 . S
C1152 N1150 1.356 . S
C1153 C1147 1.363 . S
C1153 C1148 1.379 . S
C1153 N1151 1.356 . S
N1154 C1146 1.356 . S
N1154 H1160 0.984 . S
N1154 H1161 0.984 . S
N1155 C1148 1.356 . S
N1155 H1158 0.984 . S
N1155 H1159 0.985 . S
H1156 N1151 0.984 . S
H1157 N1151 0.985 . S
H1158 N1155 0.984 . S
H1159 N1155 0.985 . S
H1160 N1154 0.984 . S
H1161 N1154 0.984 . S
H1162 N1150 0.984 . S
H1163 N1150 0.985 . S
C1164 C1165 1.363 1_556 S
C1164 C1170 1.379 . S
C1164 N1172 1.356 . S
C1165 C1164 1.363 1_554 S
C1165 C1171 1.363 . S
C1166 C1167 1.363 . S
C1166 C1171 1.379 1_556 S
C1166 N1173 1.356 . S
C1167 C1166 1.363 . S
C1167 C1170 1.363 . S
N1168 C1170 1.356 . S
N1168 H1180 0.984 . S
N1168 H1181 0.985 . S
N1169 C1171 1.356 . S
N1169 H1174 0.984 . S
N1169 H1175 0.985 . S
C1170 C1164 1.379 . S
C1170 C1167 1.363 . S
C1170 N1168 1.356 . S
C1171 C1165 1.363 . S
C1171 C1166 1.379 1_554 S
C1171 N1169 1.356 . S
N1172 C1164 1.356 . S
N1172 H1178 0.984 . S
N1172 H1179 0.984 1_556 S
N1173 C1166 1.356 . S
N1173 H1176 0.984 . S
N1173 H1177 0.985 . S
H1174 N1169 0.984 . S
H1175 N1169 0.985 . S
H1176 N1173 0.984 . S
H1177 N1173 0.985 . S
H1178 N1172 0.984 . S
H1179 N1172 0.984 1_554 S
H1180 N1168 0.984 . S
H1181 N1168 0.985 . S
C1182 C1183 1.363 . S
C1182 C1188 1.379 . S
C1182 N1190 1.356 . S
C1183 C1182 1.363 . S
C1183 C1189 1.363 . S
C1184 C1185 1.363 . S
C1184 C1189 1.379 . S
C1184 N1191 1.356 . S
C1185 C1184 1.363 . S
C1185 C1188 1.363 . S
N1186 C1188 1.356 . S
N1186 H1198 0.984 . S
N1186 H1199 0.985 . S
N1187 C1189 1.356 . S
N1187 H1192 0.984 . S
N1187 H1193 0.985 . S
C1188 C1182 1.379 . S
C1188 C1185 1.363 . S
C1188 N1186 1.356 . S
C1189 C1183 1.363 . S
C1189 C1184 1.379 . S
C1189 N1187 1.356 . S
N1190 C1182 1.356 . S
N1190 H1196 0.984 . S
N1190 H1197 0.984 . S
N1191 C1184 1.356 . S
N1191 H1194 0.984 . S
N1191 H1195 0.985 . S
H1192 N1187 0.984 . S
H1193 N1187 0.985 . S
H1194 N1191 0.984 . S
H1195 N1191 0.985 . S
H1196 N1190 0.984 . S
H1197 N1190 0.984 . S
H1198 N1186 0.984 . S
H1199 N1186 0.985 . S
C771 C757 1.756 . S
C769 C1 1.358 . S
C787 C169 1.617 . S
C789 C687 1.848 . S
C805 C283 1.625 . S
C807 C706 1.856 . S
C823 C397 1.497 . S
C825 C715 1.736 . S
C843 C729 1.597 . S
C841 C457 1.230 . S
C859 C571 1.270 . S
C861 C748 1.689 . S
C877 C115 1.326 . S
C879 C701 1.726 . S
C895 C229 1.253 . S
C897 C720 1.645 . S
C913 C343 1.229 . S
C915 C734 1.621 . S
C933 C743 1.663 . S
C931 C511 1.416 . S
C951 C762 1.852 . S
C949 C625 1.619 . S
C969 C692 1.835 . S
C967 C55 1.605 . S
C985 C29 1.177 . S
C987 C707 1.461 . S
C1003 C125 0.903 . S
C1005 C719 1.525 . S
C1023 C733 1.468 . S
C1021 C239 0.910 . S
C1039 C353 0.909 . S
C1041 C749 1.469 . S
C1059 C761 1.399 . S
C1057 C485 1.125 . S
C1077 C691 1.458 . S
C1075 C599 1.140 . S
C1095 C763 1.472 . S
C1093 C143 1.185 . S
C1111 C257 1.154 . S
C1113 C693 1.497 . S
C1131 C705 1.412 . S
C1129 C371 1.105 . S
C1147 C467 0.903 . S
C1149 C721 1.470 . S
C1165 C581 0.937 . S
C1167 C735 1.493 . S
C1183 C11 0.939 . S
C1185 C747 1.529 . S
