# Generated by pormake.
# Topology anh, (6,3)-cn, num edge types: 1
# Building blocks:
#     Node 0, Type 0, BuildingBlock: VOLQOD_clean_sbu_1, # of connection points: 6
#     Node 1, Type 0, BuildingBlock: VOLQOD_clean_sbu_1, # of connection points: 6
#     Node 2, Type 0, BuildingBlock: VOLQOD_clean_sbu_1, # of connection points: 6
#     Node 3, Type 1, BuildingBlock: BETDIP_clean_linker_0, # of connection points: 3
#     Node 4, Type 1, BuildingBlock: BETDIP_clean_linker_0, # of connection points: 3
#     Node 5, Type 1, BuildingBlock: BETDIP_clean_linker_0, # of connection points: 3
#     Node 6, Type 1, BuildingBlock: BETDIP_clean_linker_0, # of connection points: 3
#     Node 7, Type 1, BuildingBlock: BETDIP_clean_linker_0, # of connection points: 3
#     Node 8, Type 1, BuildingBlock: BETDIP_clean_linker_0, # of connection points: 3
#     Edge 9, Type (0, 1), BuildingBlock: EZIPEK_clean_linker_0, # of connection points: 2
#     Edge 10, Type (0, 1), BuildingBlock: EZIPEK_clean_linker_0, # of connection points: 2
#     Edge 11, Type (0, 1), BuildingBlock: EZIPEK_clean_linker_0, # of connection points: 2
#     Edge 12, Type (0, 1), BuildingBlock: EZIPEK_clean_linker_0, # of connection points: 2
#     Edge 13, Type (0, 1), BuildingBlock: EZIPEK_clean_linker_0, # of connection points: 2
#     Edge 14, Type (0, 1), BuildingBlock: EZIPEK_clean_linker_0, # of connection points: 2
#     Edge 15, Type (0, 1), BuildingBlock: EZIPEK_clean_linker_0, # of connection points: 2
#     Edge 16, Type (0, 1), BuildingBlock: EZIPEK_clean_linker_0, # of connection points: 2
#     Edge 17, Type (0, 1), BuildingBlock: EZIPEK_clean_linker_0, # of connection points: 2
#     Edge 18, Type (0, 1), BuildingBlock: EZIPEK_clean_linker_0, # of connection points: 2
#     Edge 19, Type (0, 1), BuildingBlock: EZIPEK_clean_linker_0, # of connection points: 2
#     Edge 20, Type (0, 1), BuildingBlock: EZIPEK_clean_linker_0, # of connection points: 2
#     Edge 21, Type (0, 1), BuildingBlock: EZIPEK_clean_linker_0, # of connection points: 2
#     Edge 22, Type (0, 1), BuildingBlock: EZIPEK_clean_linker_0, # of connection points: 2
#     Edge 23, Type (0, 1), BuildingBlock: EZIPEK_clean_linker_0, # of connection points: 2
#     Edge 24, Type (0, 1), BuildingBlock: EZIPEK_clean_linker_0, # of connection points: 2
#     Edge 25, Type (0, 1), BuildingBlock: EZIPEK_clean_linker_0, # of connection points: 2
#     Edge 26, Type (0, 1), BuildingBlock: EZIPEK_clean_linker_0, # of connection points: 2
# Relax obj value: 0.174
# Max RMSD: 0.216
# Mean RMSD: 0.150
data_MOF--net-anh--node1-VOLQOD_clean_sbu_1--node2-BETDIP_clean_linker_0--edge1-EZIPEK_clean_linker_0
_symmetry_space_group_name_H-M    P1
_symmetry_Int_Tables_number       1
_symmetry_cell_setting            triclinic
loop_
_symmetry_equiv_pos_as_xyz
'x, y, z'
_cell_length_a     22.224952
_cell_length_b     22.255969
_cell_length_c     42.005475
_cell_angle_alpha  94.15223
_cell_angle_beta   89.674389
_cell_angle_gamma 120.76335
loop_
_atom_site_label
_atom_site_type_symbol
_atom_site_fract_x
_atom_site_fract_y
_atom_site_fract_z
_atom_type_partial_charge
O0 O 0.05987 0.64721 0.23317 0.0
Zn1 Zn 0.06212 0.66169 0.18626 0.0
O2 O 0.05843 0.58283 0.16117 0.0
Zn3 Zn 0.97 0.52382 0.13931 0.0
Zn4 Zn 0.07559 0.52599 0.18859 0.0
Zn5 Zn 0.12394 0.61815 0.12772 0.0
O6 O 0.97741 0.5 0.09267 0.0
O7 O 0.07853 0.59447 0.08367 0.0
O8 O 0.98011 0.67125 0.17423 0.0
O9 O 0.91894 0.57482 0.14124 0.0
O10 O 0.91293 0.43718 0.16139 0.0
O11 O -0.00764 0.4279 0.18895 0.0
O12 O 0.16068 0.5233 0.17523 0.0
O13 O 0.15143 0.75132 0.1785 0.0
O14 O 0.1864 0.57924 0.13057 0.0
O15 O 0.18754 0.72118 0.13444 0.0
C16 C 0.07366 0.60813 0.24855 0.0
C17 C 0.0214 0.54038 0.07333 0.0
C18 C 0.92927 0.40413 0.17955 0.0
C19 C 0.92748 0.631 0.15561 0.0
C20 C 0.19721 0.54538 0.15069 0.0
C21 C 0.19442 0.76741 0.15598 0.0
O22 O 0.08656 0.56357 0.23445 0.0
O23 O 0.44065 0.03823 0.4225 0.0
Zn24 Zn 0.42677 0.04556 0.46967 0.0
O25 O 0.49945 0.03985 0.49315 0.0
Zn26 Zn 0.5586 0.12448 0.52041 0.0
Zn27 Zn 0.55892 0.0232 0.46394 0.0
Zn28 Zn 0.45396 0.96455 0.52031 0.0
O29 O 0.55903 0.10778 0.56708 0.0
O30 O 0.46976 -0.00199 0.56617 0.0
O31 O 0.43177 0.13768 0.48189 0.0
O32 O 0.52041 0.18677 0.518 0.0
O33 O 0.65529 0.18027 0.5037 0.0
O34 O 0.65355 0.11066 0.46256 0.0
O35 O 0.56982 0.94275 0.47597 0.0
O36 O 0.32929 0.96466 0.4773 0.0
O37 O 0.49329 0.9031 0.51465 0.0
O38 O 0.35143 0.90671 0.51113 0.0
C39 C 0.47696 0.01858 0.40618 0.0
C40 C 0.51578 0.0545 0.58139 0.0
C41 C 0.68425 0.16839 0.47984 0.0
C42 C 0.47238 0.18761 0.50221 0.0
C43 C 0.53865 0.90009 0.49724 0.0
C44 C 0.30773 0.91328 0.49464 0.0
O45 O 0.52003 0.00528 0.41917 0.0
O46 O 0.4447 0.47556 0.75508 0.0
Zn47 Zn 0.41597 0.43603 0.79772 0.0
O48 O 0.48504 0.50047 0.82984 0.0
Zn49 Zn 0.44852 0.55041 0.85406 0.0
Zn50 Zn 0.57096 0.56538 0.80934 0.0
Zn51 Zn 0.50246 0.44702 0.85832 0.0
O52 O 0.46424 0.55143 0.90102 0.0
O53 O 0.48033 0.46104 0.90343 0.0
O54 O 0.31857 0.41804 0.80762 0.0
O55 O 0.34481 0.50183 0.84655 0.0
O56 O 0.49303 0.64874 0.84145 0.0
O57 O 0.58169 0.66179 0.81244 0.0
O58 O 0.65764 0.57039 0.82945 0.0
O59 O 0.41743 0.34544 0.79482 0.0
O60 O 0.60369 0.48064 0.8594 0.0
O61 O 0.45808 0.34634 0.8432 0.0
C62 C 0.50569 0.50685 0.74369 0.0
C63 C 0.47176 0.50903 0.91693 0.0
C64 C 0.54681 0.68711 0.82571 0.0
C65 C 0.30009 0.45002 0.82819 0.0
C66 C 0.65958 0.5291 0.84844 0.0
C67 C 0.43307 0.31623 0.81564 0.0
O68 O 0.56085 0.53536 0.76184 0.0
H69 H 0.51898 0.03098 0.17813 0.0
H70 H 0.60133 0.09252 0.27499 0.0
H71 H 0.38348 0.9397 0.25621 0.0
H72 H 0.66187 0.19913 0.25068 0.0
C73 C 0.67775 0.18306 0.22872 0.0
C74 C 0.51135 0.02612 0.20354 0.0
C75 C 0.44495 0.97961 0.21461 0.0
C76 C 0.56769 0.06723 0.22515 0.0
C77 C 0.55775 0.06145 0.25805 0.0
C78 C 0.49131 0.01577 0.26927 0.0
C79 C 0.435 0.97485 0.24752 0.0
N80 N 0.63347 0.11535 0.21329 0.0
H81 H 0.51041 0.49874 0.51245 0.0
H82 H 0.53149 0.61076 0.60344 0.0
H83 H 0.50439 0.40461 0.59904 0.0
H84 H 0.59858 0.70672 0.57444 0.0
C85 C 0.56719 0.68987 0.55233 0.0
C86 C 0.51322 0.50161 0.53833 0.0
C87 C 0.50518 0.44464 0.55378 0.0
C88 C 0.52636 0.56286 0.55594 0.0
C89 C 0.52621 0.56531 0.58953 0.0
C90 C 0.51841 0.50832 0.60538 0.0
C91 C 0.50993 0.4488 0.58719 0.0
N92 N 0.5368 0.61983 0.53893 0.0
H93 H 0.89221 0.4464 0.84703 0.0
H94 H 0.01034 0.43699 0.92542 0.0
H95 H 0.89348 0.54051 0.94059 0.0
H96 H 0.01187 0.35156 0.89012 0.0
C97 C 0.0281 0.38465 0.87028 0.0
C98 C 0.90947 0.45893 0.87196 0.0
C99 C 0.88582 0.49486 0.89249 0.0
C100 C 0.95606 0.43975 0.88327 0.0
C101 C 0.97577 0.4528 0.91599 0.0
C102 C 0.95315 0.48884 0.93677 0.0
C103 C 0.91039 0.51194 0.92461 0.0
N104 N -0.01298 0.41317 0.86098 0.0
H105 H 0.02165 0.60056 0.47706 0.0
H106 H 0.97035 0.49299 0.38305 0.0
H107 H 0.12801 0.7117 0.3957 0.0
H108 H 0.95872 0.40174 0.41564 0.0
C109 C 0.92547 0.40852 0.43279 0.0
C110 C 0.02953 0.60118 0.45157 0.0
C111 C 0.08064 0.66305 0.43883 0.0
C112 C -0.00823 0.53902 0.43187 0.0
C113 C 0.00126 0.54008 0.39874 0.0
C114 C 0.04922 0.60275 0.38561 0.0
C115 C 0.08959 0.66372 0.40577 0.0
N116 N 0.94356 0.47655 0.44585 0.0
H117 H 0.48119 0.04549 0.8103 0.0
H118 H 0.52247 0.96615 0.72117 0.0
H119 H 0.47901 0.133 0.72266 0.0
H120 H 0.4863 0.86983 0.74726 0.0
C121 C 0.50558 0.88887 0.77175 0.0
C122 C 0.48598 0.04586 0.78461 0.0
C123 C 0.47741 0.09388 0.76823 0.0
C124 C 0.5015 -0.00119 0.7679 0.0
C125 C 0.50891 0.00067 0.73458 0.0
C126 C 0.50048 0.04885 0.71832 0.0
C127 C 0.48507 0.09541 0.73524 0.0
N128 N 0.51192 0.9523 0.78534 0.0
H129 H 0.5034 0.56728 0.14718 0.0
H130 H 0.59183 0.56356 0.05601 0.0
H131 H 0.38157 0.52198 0.06015 0.0
H132 H 0.66791 0.55336 0.08392 0.0
C133 C 0.67291 0.57834 0.10769 0.0
C134 C 0.49826 0.55871 0.12135 0.0
C135 C 0.43604 0.54305 0.10564 0.0
C136 C 0.55471 0.56571 0.10385 0.0
C137 C 0.54825 0.55605 0.07029 0.0
C138 C 0.4856 0.53948 0.05458 0.0
C139 C 0.42957 0.53315 0.0723 0.0
N140 N 0.61808 0.58594 0.12067 0.0
C141 C 0.32569 0.60329 0.15026 0.0
C142 C 0.25995 0.54025 0.14701 0.0
C143 C 0.3156 0.47616 0.12615 0.0
C144 C 0.37843 0.5413 0.12375 0.0
N145 N 0.44326 0.66805 0.13135 0.0
N146 N 0.18984 0.41611 0.13235 0.0
C147 C 0.38405 0.60526 0.13573 0.0
C148 C 0.25419 0.47605 0.13563 0.0
N149 N 0.33189 0.66114 0.16721 0.0
N150 N 0.31507 0.41489 0.11933 0.0
H151 H 0.14416 0.41421 0.13994 0.0
H152 H 0.1811 0.36928 0.12071 0.0
H153 H 0.35963 0.41375 0.11231 0.0
H154 H 0.27257 0.36571 0.12322 0.0
H155 H 0.37989 0.70649 0.17316 0.0
H156 H 0.28956 0.66107 0.17815 0.0
H157 H 0.4467 0.7163 0.13617 0.0
H158 H 0.48748 0.67221 0.12058 0.0
C159 C 0.81483 0.24388 0.47634 0.0
C160 C 0.74671 0.22842 0.46747 0.0
C161 C 0.7958 0.3321 0.43679 0.0
C162 C 0.86402 0.34595 0.44445 0.0
N163 N 0.93985 0.31179 0.46775 0.0
N164 N 0.67068 0.2494 0.43525 0.0
C165 C 0.87395 0.30064 0.46303 0.0
C166 C 0.73671 0.27025 0.44659 0.0
N167 N 0.82277 0.20529 0.49803 0.0
N168 N 0.78745 0.37822 0.42021 0.0
H169 H 0.6257 0.20512 0.44226 0.0
H170 H 0.66035 0.27271 0.41712 0.0
H171 H 0.82894 0.42131 0.41042 0.0
H172 H 0.7399 0.37622 0.41757 0.0
H173 H 0.87085 0.21798 0.50818 0.0
H174 H 0.78028 0.16241 0.50749 0.0
H175 H 0.95017 0.27685 0.4782 0.0
H176 H -0.01546 0.35438 0.45943 0.0
C177 C 0.59814 0.79131 0.79178 0.0
C178 C 0.56084 0.75834 0.81888 0.0
C179 C 0.50282 0.82677 0.82006 0.0
C180 C 0.53012 0.85005 0.7898 0.0
N181 N 0.60726 0.85898 0.7473 0.0
N182 N 0.51236 0.77578 0.86747 0.0
C183 C 0.57944 0.83419 0.77592 0.0
C184 C 0.5242 0.7862 0.83586 0.0
N185 N 0.65475 0.78632 0.78291 0.0
N186 N 0.45197 0.83779 0.83252 0.0
H187 H 0.53253 0.75058 0.8799 0.0
H188 H 0.49103 0.79959 0.88201 0.0
H189 H 0.43189 0.86425 0.82119 0.0
H190 H 0.42486 0.81489 0.85271 0.0
H191 H 0.68683 0.81222 0.76442 0.0
H192 H 0.67598 0.76471 0.7971 0.0
H193 H 0.63588 0.84183 0.73383 0.0
H194 H 0.59912 0.89477 0.73617 0.0
C195 C 0.81342 0.61509 0.16971 0.0
C196 C 0.87218 0.64677 0.15043 0.0
C197 C 0.80208 0.65642 0.10897 0.0
C198 C 0.74108 0.61036 0.12499 0.0
N199 N 0.68728 0.54336 0.17048 0.0
N200 N 0.92676 0.7036 0.10329 0.0
C201 C 0.74607 0.5905 0.15581 0.0
C202 C 0.86808 0.67081 0.12078 0.0
N203 N 0.82232 0.60603 0.20078 0.0
N204 N 0.7965 0.68605 0.08259 0.0
H205 H 0.97623 0.71752 0.11241 0.0
H206 H 0.92618 0.71472 0.07968 0.0
H207 H 0.74851 0.67679 0.07365 0.0
H208 H 0.83946 0.72431 0.07129 0.0
H209 H 0.78232 0.58816 0.21702 0.0
H210 H 0.8718 0.62325 0.21099 0.0
H211 H 0.68866 0.52137 0.19131 0.0
H212 H 0.63679 0.5215 0.16067 0.0
C213 C 0.18343 0.8549 0.47082 0.0
C214 C 0.23337 0.85327 0.49112 0.0
C215 C 0.17254 0.72608 0.48315 0.0
C216 C 0.12696 0.72715 0.45997 0.0
N217 N 0.07373 0.78813 0.4394 0.0
N218 N 0.24349 0.78605 0.53108 0.0
C219 C 0.1274 0.79042 0.45625 0.0
C220 C 0.21738 0.78835 0.50218 0.0
N221 N 0.18914 0.9176 0.46606 0.0
N222 N 0.17705 0.66766 0.48574 0.0
H223 H 0.27032 0.83063 0.54698 0.0
H224 H 0.22961 0.73906 0.54085 0.0
H225 H 0.1485 0.62152 0.47103 0.0
H226 H 0.21473 0.66778 0.50047 0.0
H227 H 0.16064 0.92436 0.44857 0.0
H228 H 0.22207 0.96313 0.48053 0.0
H229 H 0.06817 0.83131 0.43722 0.0
H230 H 0.03121 0.74118 0.42951 0.0
C231 C 0.5116 0.27029 0.80155 0.0
C232 C 0.44222 0.25684 0.80512 0.0
C233 C 0.39472 0.13324 0.78709 0.0
C234 C 0.46421 0.14635 0.7852 0.0
N235 N 0.58806 0.22267 0.79658 0.0
N236 N 0.3181 0.17548 0.80582 0.0
C237 C 0.52239 0.2134 0.79454 0.0
C238 C 0.3837 0.18816 0.79925 0.0
N239 N 0.567 0.33788 0.80301 0.0
N240 N 0.33968 0.06897 0.77637 0.0
H241 H 0.30868 0.21514 0.81419 0.0
H242 H 0.27383 0.12546 0.80508 0.0
H243 H 0.34591 0.0269 0.76864 0.0
H244 H 0.28849 0.05817 0.77363 0.0
H245 H 0.61772 0.35115 0.79719 0.0
H246 H 0.56156 0.38162 0.80701 0.0
H247 H 0.63149 0.26851 0.80659 0.0
H248 H 0.59814 0.1823 0.79095 0.0
C249 C 0.49576 0.77506 0.50147 0.0
C250 C 0.55354 0.84442 0.50281 0.0
C251 C 0.62478 0.80744 0.52999 0.0
C252 C 0.56321 0.74204 0.53402 0.0
N253 N 0.43684 0.6686 0.52836 0.0
N254 N 0.67296 0.92928 0.52 0.0
C255 C 0.49779 0.7265 0.52065 0.0
C256 C 0.61857 0.86135 0.51708 0.0
N257 N 0.43833 0.75639 0.48236 0.0
N258 N 0.68908 0.81761 0.53791 0.0
H259 H 0.67108 0.97004 0.51023 0.0
H260 H 0.7184 0.94587 0.53378 0.0
H261 H 0.69574 0.77894 0.54703 0.0
H262 H 0.73599 0.86185 0.5326 0.0
H263 H 0.39682 0.70485 0.47838 0.0
H264 H 0.43601 0.79148 0.46791 0.0
H265 H 0.38747 0.65897 0.52155 0.0
H266 H 0.43475 0.6344 0.5446 0.0
C267 C 0.7287 0.51942 0.8918 0.0
C268 C 0.72663 0.53675 0.86018 0.0
C269 C 0.84042 0.54539 0.8527 0.0
C270 C 0.83223 0.51119 0.88115 0.0
N271 N 0.75278 0.44646 0.92204 0.0
N272 N 0.77965 0.55787 0.8084 0.0
C273 C 0.77213 0.49316 0.8993 0.0
C274 C 0.78256 0.54819 0.83993 0.0
N275 N 0.68863 0.52712 0.91463 0.0
N276 N 0.90338 0.57675 0.83832 0.0
H277 H 0.73803 0.55847 0.79756 0.0
H278 H 0.81623 0.55918 0.79238 0.0
H279 H 0.94779 0.57911 0.84791 0.0
H280 H 0.91314 0.60703 0.819 0.0
H281 H 0.69198 0.51835 0.93846 0.0
H282 H 0.65901 0.55026 0.91045 0.0
H283 H 0.70657 0.42908 0.93436 0.0
H284 H 0.7771 0.41774 0.92497 0.0
C285 C 0.2622 0.89397 0.17722 0.0
C286 C 0.26025 0.8373 0.15858 0.0
C287 C 0.38392 0.88384 0.17053 0.0
C288 C 0.38472 0.93654 0.19194 0.0
N289 N 0.33354 0.0067 0.20744 0.0
N290 N 0.32801 0.8064 0.12311 0.0
C291 C 0.32659 0.9467 0.19253 0.0
C292 C 0.32404 0.84136 0.15034 0.0
N293 N 0.20225 0.89629 0.1804 0.0
N294 N 0.43806 0.87135 0.17062 0.0
H295 H 0.28746 0.78229 0.10577 0.0
H296 H 0.3748 0.81101 0.11546 0.0
H297 H 0.48206 0.89915 0.18597 0.0
H298 H 0.43625 0.82905 0.15731 0.0
H299 H 0.19724 0.93104 0.19657 0.0
H300 H 0.15686 0.8621 0.16658 0.0
H301 H 0.29474 0.01965 0.20697 0.0
H302 H 0.38082 0.0467 0.21814 0.0
C303 C 0.52967 0.31528 0.49972 0.0
C304 C 0.46913 0.25192 0.5067 0.0
C305 C 0.42389 0.318 0.53627 0.0
C306 C 0.49065 0.37968 0.53493 0.0
N307 N 0.60948 0.43721 0.5169 0.0
N308 N 0.35777 0.19082 0.5316 0.0
C309 C 0.54401 0.37881 0.5166 0.0
C310 C 0.41519 0.25253 0.52449 0.0
N311 N 0.57354 0.31401 0.47711 0.0
N312 N 0.36901 0.32235 0.54849 0.0
H313 H 0.34891 0.14201 0.52247 0.0
H314 H 0.3209 0.18793 0.5478 0.0
H315 H 0.37364 0.36996 0.55672 0.0
H316 H 0.31771 0.28008 0.54762 0.0
H317 H 0.61577 0.35903 0.46899 0.0
H318 H 0.56289 0.26761 0.46413 0.0
H319 H 0.65228 0.43705 0.50676 0.0
H320 H 0.62274 0.48472 0.5295 0.0
C321 C 0.20656 0.47997 0.83207 0.0
C322 C 0.22519 0.42786 0.83167 0.0
C323 C 0.10659 0.34351 0.8475 0.0
C324 C 0.09332 0.39916 0.85392 0.0
N325 N 0.13917 0.52465 0.85828 0.0
N326 N 0.19452 0.31035 0.84241 0.0
C327 C 0.14501 0.46855 0.8474 0.0
C328 C 0.17538 0.35925 0.83986 0.0
N329 N 0.24819 0.54082 0.818 0.0
N330 N 0.05331 0.27553 0.84838 0.0
H331 H 0.24433 0.31943 0.83744 0.0
H332 H 0.16251 0.26248 0.85196 0.0
H333 H 0.00205 0.262 0.85341 0.0
H334 H 0.05843 0.23272 0.84095 0.0
H335 H 0.23382 0.57801 0.81517 0.0
H336 H 0.29318 0.55019 0.80607 0.0
H337 H 0.17914 0.57646 0.85666 0.0
H338 H 0.09883 0.52052 0.87237 0.0
C339 C 0.81847 0.28915 0.1705 0.0
C340 C 0.87176 0.34011 0.19213 0.0
C341 C 0.80378 0.27598 0.23674 0.0
C342 C 0.74555 0.23348 0.21541 0.0
N343 N 0.69396 0.212 0.16201 0.0
N344 N 0.90882 0.38902 0.24689 0.0
C345 C 0.75182 0.24254 0.18217 0.0
C346 C 0.86337 0.33525 0.22561 0.0
N347 N 0.83135 0.28577 0.13879 0.0
N348 N 0.80261 0.2596 0.26756 0.0
H349 H 0.95173 0.43533 0.24023 0.0
H350 H 0.8998 0.39061 0.27123 0.0
H351 H 0.76042 0.21566 0.27652 0.0
H352 H 0.84645 0.28541 0.28313 0.0
H353 H 0.79588 0.24564 0.12246 0.0
H354 H 0.88034 0.31862 0.12962 0.0
H355 H 0.69614 0.22258 0.13812 0.0
H356 H 0.64293 0.18357 0.16974 0.0
C357 C 0.05788 0.53926 0.01608 0.0
C358 C 0.00455 0.52581 0.03829 0.0
C359 C 0.91783 0.47467 0.994 0.0
C360 C 0.9718 0.50007 0.97168 0.0
N361 N 0.09574 0.5704 0.96256 0.0
N362 N 0.88523 0.49947 0.04578 0.0
C363 C 0.04277 0.53656 0.98299 0.0
C364 C 0.93478 0.49886 0.02659 0.0
N365 N 0.12169 0.55115 0.02611 0.0
N366 N 0.85079 0.42509 0.98446 0.0
H367 H 0.8964 0.52331 0.06898 0.0
H368 H 0.83525 0.48458 0.03707 0.0
H369 H 0.83821 0.4005 0.96141 0.0
H370 H 0.81065 0.40191 0.00049 0.0
H371 H 0.15979 0.55555 0.01028 0.0
H372 H 0.13334 0.54777 0.04967 0.0
H373 H 0.1479 0.60274 0.97041 0.0
H374 H 0.08686 0.57209 0.93838 0.0
C375 C 0.49064 0.07687 0.35562 0.0
C376 C 0.47292 0.01544 0.371 0.0
C377 C 0.4672 0.95343 0.31951 0.0
C378 C 0.48048 0.01343 0.30405 0.0
N379 N 0.48709 0.12531 0.30641 0.0
N380 N 0.42868 0.89098 0.36735 0.0
C381 C 0.48651 0.07298 0.32183 0.0
C382 C 0.45636 0.95228 0.35285 0.0
N383 N 0.51546 0.13987 0.37305 0.0
N384 N 0.4679 0.89888 0.30267 0.0
H385 H 0.41888 0.88813 0.39169 0.0
H386 H 0.40913 0.84212 0.35481 0.0
H387 H 0.47609 0.89789 0.27822 0.0
H388 H 0.46613 0.85728 0.3134 0.0
H389 H 0.53656 0.18741 0.36269 0.0
H390 H 0.52132 0.14599 0.39788 0.0
H391 H 0.48428 0.16653 0.31827 0.0
H392 H 0.48331 0.12389 0.28159 0.0
C393 C 0.46409 0.44735 0.68847 0.0
C394 C 0.51167 0.50775 0.70838 0.0
C395 C 0.57095 0.56493 0.6606 0.0
C396 C 0.51613 0.50928 0.64094 0.0
N397 N 0.39913 0.40711 0.63812 0.0
N398 N 0.60015 0.63156 0.71189 0.0
C399 C 0.45917 0.45327 0.65543 0.0
C400 C 0.56246 0.56888 0.69411 0.0
N401 N 0.42573 0.38346 0.70057 0.0
N402 N 0.63202 0.61263 0.64769 0.0
H403 H 0.59227 0.63856 0.73603 0.0
H404 H 0.63327 0.67839 0.70171 0.0
H405 H 0.64197 0.60956 0.62352 0.0
H406 H 0.67548 0.65041 0.66164 0.0
H407 H 0.39448 0.33741 0.68612 0.0
H408 H 0.43209 0.37497 0.72409 0.0
H409 H 0.35448 0.36882 0.64857 0.0
H410 H 0.39106 0.41252 0.61433 0.0
C411 C 0.45155 0.04221 0.63147 0.0
C412 C 0.515 0.05838 0.6166 0.0
C413 C 0.57156 0.07486 0.66896 0.0
C414 C 0.50573 0.05005 0.6832 0.0
N415 N 0.38026 -0.00287 0.67728 0.0
N416 N 0.63273 0.07938 0.62045 0.0
C417 C 0.44483 0.02994 0.66423 0.0
C418 C 0.57455 0.0721 0.63511 0.0
N419 N 0.39854 0.0411 0.61455 0.0
N420 N 0.63135 0.10296 0.68771 0.0
H421 H 0.63677 0.07704 0.5957 0.0
H422 H 0.67459 0.08177 0.63272 0.0
H423 H 0.63128 0.10613 0.7126 0.0
H424 H 0.68141 0.12857 0.67865 0.0
H425 H 0.35391 0.03642 0.62507 0.0
H426 H 0.40239 0.05244 0.5907 0.0
H427 H 0.3336 0.97494 0.66373 0.0
H428 H 0.37289 0.98588 0.70116 0.0
C429 C 0.52348 0.58213 0.96842 0.0
C430 C 0.47338 0.51731 0.9521 0.0
C431 C 0.43466 0.46528 0.00306 0.0
C432 C 0.47992 0.53192 0.01929 0.0
N433 N 0.55573 0.65708 0.01752 0.0
N434 N 0.37147 0.40147 0.95368 0.0
C435 C 0.52085 0.59145 0.002 0.0
C436 C 0.42607 0.45996 0.96935 0.0
N437 N 0.57577 0.63357 0.95217 0.0
N438 N 0.40177 0.40679 0.01969 0.0
H439 H 0.36242 0.39629 0.92902 0.0
H440 H 0.33135 0.3611 0.96542 0.0
H441 H 0.40719 0.40841 0.04443 0.0
H442 H 0.37415 0.35602 0.00869 0.0
H443 H 0.61779 0.67877 0.9635 0.0
H444 H 0.58129 0.6282 0.92763 0.0
H445 H 0.58049 0.70279 0.00562 0.0
H446 H 0.55417 0.66624 0.04214 0.0
C447 C 0.00391 0.59296 0.29752 0.0
C448 C 0.06861 0.60979 0.28369 0.0
C449 C 0.11848 0.6151 0.33642 0.0
C450 C 0.05613 0.60518 0.35049 0.0
N451 N 0.94515 0.59943 0.34516 0.0
N452 N 0.19139 0.64923 0.29029 0.0
C453 C 0.00045 0.59846 0.33125 0.0
C454 C 0.12712 0.62437 0.30324 0.0
N455 N 0.94482 0.56832 0.27857 0.0
N456 N 0.16836 0.61329 0.35453 0.0
H457 H 0.19982 0.65759 0.26614 0.0
H458 H 0.23739 0.66768 0.30392 0.0
H459 H 0.16356 0.60588 0.37886 0.0
H460 H 0.21147 0.6129 0.34492 0.0
H461 H 0.89493 0.54799 0.28762 0.0
H462 H 0.94427 0.56159 0.25372 0.0
H463 H 0.90691 0.60227 0.33224 0.0
H464 H 0.94089 0.60414 0.36984 0.0
loop_
_geom_bond_atom_site_label_1
_geom_bond_atom_site_label_2
_geom_bond_distance
_geom_bond_site_symmetry_2
_ccdc_geom_bond_type
O0 Zn1 1.953 . S
O0 C16 1.225 . S
Zn1 O0 1.953 . S
Zn1 O2 1.949 . S
Zn1 O8 1.919 1_455 S
Zn1 O13 1.924 . S
O2 Zn1 1.949 . S
O2 Zn3 1.923 1_455 S
O2 Zn4 1.950 . S
O2 Zn5 1.945 . S
Zn3 O2 1.923 1_655 S
Zn3 O6 1.933 1_655 S
Zn3 O9 1.941 . S
Zn3 O10 1.965 . S
Zn4 O2 1.950 . S
Zn4 O11 1.938 1_455 S
Zn4 O12 1.906 . S
Zn4 O22 1.953 . S
Zn5 O2 1.945 . S
Zn5 O7 1.932 . S
Zn5 O14 1.977 . S
Zn5 O15 1.910 . S
O6 Zn3 1.933 1_455 S
O6 C17 1.226 . S
O7 Zn5 1.932 . S
O7 C17 1.307 . S
O8 Zn1 1.919 1_655 S
O8 C19 1.253 . S
O9 Zn3 1.941 . S
O9 C19 1.283 . S
O10 Zn3 1.965 . S
O10 C18 1.303 . S
O11 Zn4 1.938 1_655 S
O11 C18 1.247 . S
O12 Zn4 1.906 . S
O12 C20 1.304 . S
O13 Zn1 1.924 . S
O13 C21 1.311 . S
O14 Zn5 1.977 . S
O14 C20 1.272 . S
O15 Zn5 1.910 . S
O15 C21 1.231 . S
C16 O0 1.225 . S
C16 O22 1.298 . S
C17 O6 1.226 . S
C17 O7 1.307 . S
C18 O10 1.303 . S
C18 O11 1.247 . S
C19 O8 1.253 . S
C19 O9 1.283 . S
C20 O12 1.304 . S
C20 O14 1.272 . S
C21 O13 1.311 . S
C21 O15 1.231 . S
O22 Zn4 1.953 . S
O22 C16 1.298 . S
O23 Zn24 1.953 . S
O23 C39 1.225 . S
Zn24 O23 1.953 . S
Zn24 O25 1.949 . S
Zn24 O31 1.919 . S
Zn24 O36 1.924 1_545 S
O25 Zn24 1.949 . S
O25 Zn26 1.923 . S
O25 Zn27 1.950 . S
O25 Zn28 1.945 1_545 S
Zn26 O25 1.923 . S
Zn26 O29 1.933 . S
Zn26 O32 1.941 . S
Zn26 O33 1.965 . S
Zn27 O25 1.950 . S
Zn27 O34 1.938 . S
Zn27 O35 1.906 1_545 S
Zn27 O45 1.953 . S
Zn28 O25 1.945 1_565 S
Zn28 O30 1.932 . S
Zn28 O37 1.977 . S
Zn28 O38 1.910 . S
O29 Zn26 1.933 . S
O29 C40 1.226 . S
O30 Zn28 1.932 . S
O30 C40 1.307 1_565 S
O31 Zn24 1.919 . S
O31 C42 1.253 . S
O32 Zn26 1.941 . S
O32 C42 1.283 . S
O33 Zn26 1.965 . S
O33 C41 1.303 . S
O34 Zn27 1.938 . S
O34 C41 1.247 . S
O35 Zn27 1.906 1_565 S
O35 C43 1.304 . S
O36 Zn24 1.924 1_565 S
O36 C44 1.311 . S
O37 Zn28 1.977 . S
O37 C43 1.272 . S
O38 Zn28 1.910 . S
O38 C44 1.231 . S
C39 O23 1.225 . S
C39 O45 1.298 . S
C40 O29 1.226 . S
C40 O30 1.307 1_545 S
C41 O33 1.303 . S
C41 O34 1.247 . S
C42 O31 1.253 . S
C42 O32 1.283 . S
C43 O35 1.304 . S
C43 O37 1.272 . S
C44 O36 1.311 . S
C44 O38 1.231 . S
O45 Zn27 1.953 . S
O45 C39 1.298 . S
O46 Zn47 1.953 . S
O46 C62 1.225 . S
Zn47 O46 1.953 . S
Zn47 O48 1.949 . S
Zn47 O54 1.919 . S
Zn47 O59 1.924 . S
O48 Zn47 1.949 . S
O48 Zn49 1.923 . S
O48 Zn50 1.950 . S
O48 Zn51 1.945 . S
Zn49 O48 1.923 . S
Zn49 O52 1.933 . S
Zn49 O55 1.941 . S
Zn49 O56 1.965 . S
Zn50 O48 1.950 . S
Zn50 O57 1.938 . S
Zn50 O58 1.906 . S
Zn50 O68 1.953 . S
Zn51 O48 1.945 . S
Zn51 O53 1.932 . S
Zn51 O60 1.977 . S
Zn51 O61 1.910 . S
O52 Zn49 1.933 . S
O52 C63 1.226 . S
O53 Zn51 1.932 . S
O53 C63 1.307 . S
O54 Zn47 1.919 . S
O54 C65 1.253 . S
O55 Zn49 1.941 . S
O55 C65 1.283 . S
O56 Zn49 1.965 . S
O56 C64 1.303 . S
O57 Zn50 1.938 . S
O57 C64 1.247 . S
O58 Zn50 1.906 . S
O58 C66 1.304 . S
O59 Zn47 1.924 . S
O59 C67 1.311 . S
O60 Zn51 1.977 . S
O60 C66 1.272 . S
O61 Zn51 1.910 . S
O61 C67 1.231 . S
C62 O46 1.225 . S
C62 O68 1.298 . S
C63 O52 1.226 . S
C63 O53 1.307 . S
C64 O56 1.303 . S
C64 O57 1.247 . S
C65 O54 1.253 . S
C65 O55 1.283 . S
C66 O58 1.304 . S
C66 O60 1.272 . S
C67 O59 1.311 . S
C67 O61 1.231 . S
O68 Zn50 1.953 . S
O68 C62 1.298 . S
H69 C74 0.930 . S
H70 C77 0.930 . S
H71 C79 0.930 . S
H72 C73 1.016 . S
C73 H72 1.016 . S
C73 N80 1.286 . S
C74 H69 0.930 . S
C74 C75 1.397 1_545 S
C74 C76 1.361 . S
C75 C74 1.397 1_565 S
C75 C79 1.390 . S
C76 C74 1.361 . S
C76 C77 1.393 . S
C76 N80 1.413 . S
C77 H70 0.930 . S
C77 C76 1.393 . S
C77 C78 1.399 . S
C78 C77 1.399 . S
C78 C79 1.381 1_545 S
C79 H71 0.930 . S
C79 C75 1.390 . S
C79 C78 1.381 1_565 S
N80 C73 1.286 . S
N80 C76 1.413 . S
H81 C86 0.930 . S
H82 C89 0.930 . S
H83 C91 0.930 . S
H84 C85 1.016 . S
C85 H84 1.016 . S
C85 N92 1.286 . S
C86 H81 0.930 . S
C86 C87 1.397 . S
C86 C88 1.361 . S
C87 C86 1.397 . S
C87 C91 1.390 . S
C88 C86 1.361 . S
C88 C89 1.393 . S
C88 N92 1.413 . S
C89 H82 0.930 . S
C89 C88 1.393 . S
C89 C90 1.399 . S
C90 C89 1.399 . S
C90 C91 1.381 . S
C91 H83 0.930 . S
C91 C87 1.390 . S
C91 C90 1.381 . S
N92 C85 1.286 . S
N92 C88 1.413 . S
H93 C98 0.930 . S
H94 C101 0.930 . S
H95 C103 0.930 . S
H96 C97 1.016 . S
C97 H96 1.016 . S
C97 N104 1.286 . S
C98 H93 0.930 . S
C98 C99 1.397 . S
C98 C100 1.361 1_655 S
C99 C98 1.397 . S
C99 C103 1.390 . S
C100 C98 1.361 1_455 S
C100 C101 1.393 . S
C100 N104 1.413 . S
C101 H94 0.930 . S
C101 C100 1.393 . S
C101 C102 1.399 . S
C102 C101 1.399 . S
C102 C103 1.381 1_455 S
C103 H95 0.930 . S
C103 C99 1.390 . S
C103 C102 1.381 1_655 S
N104 C97 1.286 . S
N104 C100 1.413 . S
H105 C110 0.930 . S
H106 C113 0.930 . S
H107 C115 0.930 . S
H108 C109 1.016 . S
C109 H108 1.016 . S
C109 N116 1.286 . S
C110 H105 0.930 . S
C110 C111 1.397 . S
C110 C112 1.361 . S
C111 C110 1.397 . S
C111 C115 1.390 . S
C112 C110 1.361 . S
C112 C113 1.393 1_455 S
C112 N116 1.413 1_455 S
C113 H106 0.930 . S
C113 C112 1.393 1_655 S
C113 C114 1.399 1_655 S
C114 C113 1.399 1_455 S
C114 C115 1.381 . S
C115 H107 0.930 . S
C115 C111 1.390 . S
C115 C114 1.381 . S
N116 C109 1.286 . S
N116 C112 1.413 1_655 S
H117 C122 0.930 . S
H118 C125 0.930 1_565 S
H119 C127 0.930 . S
H120 C121 1.016 . S
C121 H120 1.016 . S
C121 N128 1.286 . S
C122 H117 0.930 . S
C122 C123 1.397 . S
C122 C124 1.361 . S
C123 C122 1.397 . S
C123 C127 1.390 . S
C124 C122 1.361 . S
C124 C125 1.393 . S
C124 N128 1.413 1_545 S
C125 H118 0.930 1_545 S
C125 C124 1.393 . S
C125 C126 1.399 . S
C126 C125 1.399 . S
C126 C127 1.381 . S
C127 H119 0.930 . S
C127 C123 1.390 . S
C127 C126 1.381 . S
N128 C121 1.286 . S
N128 C124 1.413 1_565 S
H129 C134 0.930 . S
H130 C137 0.930 . S
H131 C139 0.930 . S
H132 C133 1.016 . S
C133 H132 1.016 . S
C133 N140 1.286 . S
C134 H129 0.930 . S
C134 C135 1.397 . S
C134 C136 1.361 . S
C135 C134 1.397 . S
C135 C139 1.390 . S
C136 C134 1.361 . S
C136 C137 1.393 . S
C136 N140 1.413 . S
C137 H130 0.930 . S
C137 C136 1.393 . S
C137 C138 1.399 . S
C138 C137 1.399 . S
C138 C139 1.381 . S
C139 H131 0.930 . S
C139 C135 1.390 . S
C139 C138 1.381 . S
N140 C133 1.286 . S
N140 C136 1.413 . S
C141 C142 1.363 . S
C141 C147 1.379 . S
C141 N149 1.356 . S
C142 C141 1.363 . S
C142 C148 1.363 . S
C143 C144 1.363 . S
C143 C148 1.379 . S
C143 N150 1.356 . S
C144 C143 1.363 . S
C144 C147 1.363 . S
N145 C147 1.356 . S
N145 H157 0.984 . S
N145 H158 0.985 . S
N146 C148 1.356 . S
N146 H151 0.984 . S
N146 H152 0.985 . S
C147 C141 1.379 . S
C147 C144 1.363 . S
C147 N145 1.356 . S
C148 C142 1.363 . S
C148 C143 1.379 . S
C148 N146 1.356 . S
N149 C141 1.356 . S
N149 H155 0.984 . S
N149 H156 0.984 . S
N150 C143 1.356 . S
N150 H153 0.984 . S
N150 H154 0.985 . S
H151 N146 0.984 . S
H152 N146 0.985 . S
H153 N150 0.984 . S
H154 N150 0.985 . S
H155 N149 0.984 . S
H156 N149 0.984 . S
H157 N145 0.984 . S
H158 N145 0.985 . S
C159 C160 1.363 . S
C159 C165 1.379 . S
C159 N167 1.356 . S
C160 C159 1.363 . S
C160 C166 1.363 . S
C161 C162 1.363 . S
C161 C166 1.379 . S
C161 N168 1.356 . S
C162 C161 1.363 . S
C162 C165 1.363 . S
N163 C165 1.356 . S
N163 H175 0.984 . S
N163 H176 0.985 . S
N164 C166 1.356 . S
N164 H169 0.984 . S
N164 H170 0.985 . S
C165 C159 1.379 . S
C165 C162 1.363 . S
C165 N163 1.356 . S
C166 C160 1.363 . S
C166 C161 1.379 . S
C166 N164 1.356 . S
N167 C159 1.356 . S
N167 H173 0.984 . S
N167 H174 0.984 . S
N168 C161 1.356 . S
N168 H171 0.984 . S
N168 H172 0.985 . S
H169 N164 0.984 . S
H170 N164 0.985 . S
H171 N168 0.984 . S
H172 N168 0.985 . S
H173 N167 0.984 . S
H174 N167 0.984 . S
H175 N163 0.984 . S
H176 N163 0.985 . S
C177 C178 1.363 . S
C177 C183 1.379 . S
C177 N185 1.356 . S
C178 C177 1.363 . S
C178 C184 1.363 . S
C179 C180 1.363 . S
C179 C184 1.379 . S
C179 N186 1.356 . S
C180 C179 1.363 . S
C180 C183 1.363 . S
N181 C183 1.356 . S
N181 H193 0.984 . S
N181 H194 0.985 . S
N182 C184 1.356 . S
N182 H187 0.984 . S
N182 H188 0.985 . S
C183 C177 1.379 . S
C183 C180 1.363 . S
C183 N181 1.356 . S
C184 C178 1.363 . S
C184 C179 1.379 . S
C184 N182 1.356 . S
N185 C177 1.356 . S
N185 H191 0.984 . S
N185 H192 0.984 . S
N186 C179 1.356 . S
N186 H189 0.984 . S
N186 H190 0.985 . S
H187 N182 0.984 . S
H188 N182 0.985 . S
H189 N186 0.984 . S
H190 N186 0.985 . S
H191 N185 0.984 . S
H192 N185 0.984 . S
H193 N181 0.984 . S
H194 N181 0.985 . S
C195 C196 1.363 . S
C195 C201 1.379 . S
C195 N203 1.356 . S
C196 C195 1.363 . S
C196 C202 1.363 . S
C197 C198 1.363 . S
C197 C202 1.379 . S
C197 N204 1.356 . S
C198 C197 1.363 . S
C198 C201 1.363 . S
N199 C201 1.356 . S
N199 H211 0.984 . S
N199 H212 0.985 . S
N200 C202 1.356 . S
N200 H205 0.984 . S
N200 H206 0.985 . S
C201 C195 1.379 . S
C201 C198 1.363 . S
C201 N199 1.356 . S
C202 C196 1.363 . S
C202 C197 1.379 . S
C202 N200 1.356 . S
N203 C195 1.356 . S
N203 H209 0.984 . S
N203 H210 0.984 . S
N204 C197 1.356 . S
N204 H207 0.984 . S
N204 H208 0.985 . S
H205 N200 0.984 . S
H206 N200 0.985 . S
H207 N204 0.984 . S
H208 N204 0.985 . S
H209 N203 0.984 . S
H210 N203 0.984 . S
H211 N199 0.984 . S
H212 N199 0.985 . S
C213 C214 1.363 . S
C213 C219 1.379 . S
C213 N221 1.356 . S
C214 C213 1.363 . S
C214 C220 1.363 . S
C215 C216 1.363 . S
C215 C220 1.379 . S
C215 N222 1.356 . S
C216 C215 1.363 . S
C216 C219 1.363 . S
N217 C219 1.356 . S
N217 H229 0.984 . S
N217 H230 0.985 . S
N218 C220 1.356 . S
N218 H223 0.984 . S
N218 H224 0.985 . S
C219 C213 1.379 . S
C219 C216 1.363 . S
C219 N217 1.356 . S
C220 C214 1.363 . S
C220 C215 1.379 . S
C220 N218 1.356 . S
N221 C213 1.356 . S
N221 H227 0.984 . S
N221 H228 0.984 . S
N222 C215 1.356 . S
N222 H225 0.984 . S
N222 H226 0.985 . S
H223 N218 0.984 . S
H224 N218 0.985 . S
H225 N222 0.984 . S
H226 N222 0.985 . S
H227 N221 0.984 . S
H228 N221 0.984 . S
H229 N217 0.984 . S
H230 N217 0.985 . S
C231 C232 1.363 . S
C231 C237 1.379 . S
C231 N239 1.356 . S
C232 C231 1.363 . S
C232 C238 1.363 . S
C233 C234 1.363 . S
C233 C238 1.379 . S
C233 N240 1.356 . S
C234 C233 1.363 . S
C234 C237 1.363 . S
N235 C237 1.356 . S
N235 H247 0.984 . S
N235 H248 0.985 . S
N236 C238 1.356 . S
N236 H241 0.984 . S
N236 H242 0.985 . S
C237 C231 1.379 . S
C237 C234 1.363 . S
C237 N235 1.356 . S
C238 C232 1.363 . S
C238 C233 1.379 . S
C238 N236 1.356 . S
N239 C231 1.356 . S
N239 H245 0.984 . S
N239 H246 0.984 . S
N240 C233 1.356 . S
N240 H243 0.984 . S
N240 H244 0.985 . S
H241 N236 0.984 . S
H242 N236 0.985 . S
H243 N240 0.984 . S
H244 N240 0.985 . S
H245 N239 0.984 . S
H246 N239 0.984 . S
H247 N235 0.984 . S
H248 N235 0.985 . S
C249 C250 1.363 . S
C249 C255 1.379 . S
C249 N257 1.356 . S
C250 C249 1.363 . S
C250 C256 1.363 . S
C251 C252 1.363 . S
C251 C256 1.379 . S
C251 N258 1.356 . S
C252 C251 1.363 . S
C252 C255 1.363 . S
N253 C255 1.356 . S
N253 H265 0.984 . S
N253 H266 0.985 . S
N254 C256 1.356 . S
N254 H259 0.984 . S
N254 H260 0.985 . S
C255 C249 1.379 . S
C255 C252 1.363 . S
C255 N253 1.356 . S
C256 C250 1.363 . S
C256 C251 1.379 . S
C256 N254 1.356 . S
N257 C249 1.356 . S
N257 H263 0.984 . S
N257 H264 0.984 . S
N258 C251 1.356 . S
N258 H261 0.984 . S
N258 H262 0.985 . S
H259 N254 0.984 . S
H260 N254 0.985 . S
H261 N258 0.984 . S
H262 N258 0.985 . S
H263 N257 0.984 . S
H264 N257 0.984 . S
H265 N253 0.984 . S
H266 N253 0.985 . S
C267 C268 1.363 . S
C267 C273 1.379 . S
C267 N275 1.356 . S
C268 C267 1.363 . S
C268 C274 1.363 . S
C269 C270 1.363 . S
C269 C274 1.379 . S
C269 N276 1.356 . S
C270 C269 1.363 . S
C270 C273 1.363 . S
N271 C273 1.356 . S
N271 H283 0.984 . S
N271 H284 0.985 . S
N272 C274 1.356 . S
N272 H277 0.984 . S
N272 H278 0.985 . S
C273 C267 1.379 . S
C273 C270 1.363 . S
C273 N271 1.356 . S
C274 C268 1.363 . S
C274 C269 1.379 . S
C274 N272 1.356 . S
N275 C267 1.356 . S
N275 H281 0.984 . S
N275 H282 0.984 . S
N276 C269 1.356 . S
N276 H279 0.984 . S
N276 H280 0.985 . S
H277 N272 0.984 . S
H278 N272 0.985 . S
H279 N276 0.984 . S
H280 N276 0.985 . S
H281 N275 0.984 . S
H282 N275 0.984 . S
H283 N271 0.984 . S
H284 N271 0.985 . S
C285 C286 1.363 . S
C285 C291 1.379 . S
C285 N293 1.356 . S
C286 C285 1.363 . S
C286 C292 1.363 . S
C287 C288 1.363 . S
C287 C292 1.379 . S
C287 N294 1.356 . S
C288 C287 1.363 . S
C288 C291 1.363 . S
N289 C291 1.356 . S
N289 H301 0.984 1_565 S
N289 H302 0.985 1_565 S
N290 C292 1.356 . S
N290 H295 0.984 . S
N290 H296 0.985 . S
C291 C285 1.379 . S
C291 C288 1.363 . S
C291 N289 1.356 . S
C292 C286 1.363 . S
C292 C287 1.379 . S
C292 N290 1.356 . S
N293 C285 1.356 . S
N293 H299 0.984 . S
N293 H300 0.984 . S
N294 C287 1.356 . S
N294 H297 0.984 . S
N294 H298 0.985 . S
H295 N290 0.984 . S
H296 N290 0.985 . S
H297 N294 0.984 . S
H298 N294 0.985 . S
H299 N293 0.984 . S
H300 N293 0.984 . S
H301 N289 0.984 1_545 S
H302 N289 0.985 1_545 S
C303 C304 1.363 . S
C303 C309 1.379 . S
C303 N311 1.356 . S
C304 C303 1.363 . S
C304 C310 1.363 . S
C305 C306 1.363 . S
C305 C310 1.379 . S
C305 N312 1.356 . S
C306 C305 1.363 . S
C306 C309 1.363 . S
N307 C309 1.356 . S
N307 H319 0.984 . S
N307 H320 0.985 . S
N308 C310 1.356 . S
N308 H313 0.984 . S
N308 H314 0.985 . S
C309 C303 1.379 . S
C309 C306 1.363 . S
C309 N307 1.356 . S
C310 C304 1.363 . S
C310 C305 1.379 . S
C310 N308 1.356 . S
N311 C303 1.356 . S
N311 H317 0.984 . S
N311 H318 0.984 . S
N312 C305 1.356 . S
N312 H315 0.984 . S
N312 H316 0.985 . S
H313 N308 0.984 . S
H314 N308 0.985 . S
H315 N312 0.984 . S
H316 N312 0.985 . S
H317 N311 0.984 . S
H318 N311 0.984 . S
H319 N307 0.984 . S
H320 N307 0.985 . S
C321 C322 1.363 . S
C321 C327 1.379 . S
C321 N329 1.356 . S
C322 C321 1.363 . S
C322 C328 1.363 . S
C323 C324 1.363 . S
C323 C328 1.379 . S
C323 N330 1.356 . S
C324 C323 1.363 . S
C324 C327 1.363 . S
N325 C327 1.356 . S
N325 H337 0.984 . S
N325 H338 0.985 . S
N326 C328 1.356 . S
N326 H331 0.984 . S
N326 H332 0.985 . S
C327 C321 1.379 . S
C327 C324 1.363 . S
C327 N325 1.356 . S
C328 C322 1.363 . S
C328 C323 1.379 . S
C328 N326 1.356 . S
N329 C321 1.356 . S
N329 H335 0.984 . S
N329 H336 0.984 . S
N330 C323 1.356 . S
N330 H333 0.984 . S
N330 H334 0.985 . S
H331 N326 0.984 . S
H332 N326 0.985 . S
H333 N330 0.984 . S
H334 N330 0.985 . S
H335 N329 0.984 . S
H336 N329 0.984 . S
H337 N325 0.984 . S
H338 N325 0.985 . S
C339 C340 1.363 . S
C339 C345 1.379 . S
C339 N347 1.356 . S
C340 C339 1.363 . S
C340 C346 1.363 . S
C341 C342 1.363 . S
C341 C346 1.379 . S
C341 N348 1.356 . S
C342 C341 1.363 . S
C342 C345 1.363 . S
N343 C345 1.356 . S
N343 H355 0.984 . S
N343 H356 0.985 . S
N344 C346 1.356 . S
N344 H349 0.984 . S
N344 H350 0.985 . S
C345 C339 1.379 . S
C345 C342 1.363 . S
C345 N343 1.356 . S
C346 C340 1.363 . S
C346 C341 1.379 . S
C346 N344 1.356 . S
N347 C339 1.356 . S
N347 H353 0.984 . S
N347 H354 0.984 . S
N348 C341 1.356 . S
N348 H351 0.984 . S
N348 H352 0.985 . S
H349 N344 0.984 . S
H350 N344 0.985 . S
H351 N348 0.984 . S
H352 N348 0.985 . S
H353 N347 0.984 . S
H354 N347 0.984 . S
H355 N343 0.984 . S
H356 N343 0.985 . S
C357 C358 1.363 . S
C357 C363 1.379 1_554 S
C357 N365 1.356 . S
C358 C357 1.363 . S
C358 C364 1.363 1_455 S
C359 C360 1.363 1_655 S
C359 C364 1.379 1_556 S
C359 N366 1.356 . S
C360 C359 1.363 1_455 S
C360 C363 1.363 . S
N361 C363 1.356 . S
N361 H373 0.984 . S
N361 H374 0.985 . S
N362 C364 1.356 . S
N362 H367 0.984 . S
N362 H368 0.985 . S
C363 C357 1.379 1_556 S
C363 C360 1.363 . S
C363 N361 1.356 . S
C364 C358 1.363 1_655 S
C364 C359 1.379 1_554 S
C364 N362 1.356 . S
N365 C357 1.356 . S
N365 H371 0.984 . S
N365 H372 0.984 . S
N366 C359 1.356 . S
N366 H369 0.984 . S
N366 H370 0.985 . S
H367 N362 0.984 . S
H368 N362 0.985 . S
H369 N366 0.984 . S
H370 N366 0.985 . S
H371 N365 0.984 . S
H372 N365 0.984 . S
H373 N361 0.984 . S
H374 N361 0.985 . S
C375 C376 1.363 . S
C375 C381 1.379 . S
C375 N383 1.356 . S
C376 C375 1.363 . S
C376 C382 1.363 1_545 S
C377 C378 1.363 1_565 S
C377 C382 1.379 . S
C377 N384 1.356 . S
C378 C377 1.363 1_545 S
C378 C381 1.363 . S
N379 C381 1.356 . S
N379 H391 0.984 . S
N379 H392 0.985 . S
N380 C382 1.356 . S
N380 H385 0.984 . S
N380 H386 0.985 . S
C381 C375 1.379 . S
C381 C378 1.363 . S
C381 N379 1.356 . S
C382 C376 1.363 1_565 S
C382 C377 1.379 . S
C382 N380 1.356 . S
N383 C375 1.356 . S
N383 H389 0.984 . S
N383 H390 0.984 . S
N384 C377 1.356 . S
N384 H387 0.984 . S
N384 H388 0.985 . S
H385 N380 0.984 . S
H386 N380 0.985 . S
H387 N384 0.984 . S
H388 N384 0.985 . S
H389 N383 0.984 . S
H390 N383 0.984 . S
H391 N379 0.984 . S
H392 N379 0.985 . S
C393 C394 1.363 . S
C393 C399 1.379 . S
C393 N401 1.356 . S
C394 C393 1.363 . S
C394 C400 1.363 . S
C395 C396 1.363 . S
C395 C400 1.379 . S
C395 N402 1.356 . S
C396 C395 1.363 . S
C396 C399 1.363 . S
N397 C399 1.356 . S
N397 H409 0.984 . S
N397 H410 0.985 . S
N398 C400 1.356 . S
N398 H403 0.984 . S
N398 H404 0.985 . S
C399 C393 1.379 . S
C399 C396 1.363 . S
C399 N397 1.356 . S
C400 C394 1.363 . S
C400 C395 1.379 . S
C400 N398 1.356 . S
N401 C393 1.356 . S
N401 H407 0.984 . S
N401 H408 0.984 . S
N402 C395 1.356 . S
N402 H405 0.984 . S
N402 H406 0.985 . S
H403 N398 0.984 . S
H404 N398 0.985 . S
H405 N402 0.984 . S
H406 N402 0.985 . S
H407 N401 0.984 . S
H408 N401 0.984 . S
H409 N397 0.984 . S
H410 N397 0.985 . S
C411 C412 1.364 . S
C411 C417 1.378 1_545 S
C411 N419 1.356 1_545 S
C412 C411 1.364 . S
C412 C418 1.363 . S
C413 C414 1.363 . S
C413 C418 1.379 . S
C413 N420 1.356 . S
C414 C413 1.363 . S
C414 C417 1.363 1_545 S
N415 C417 1.356 . S
N415 H427 0.984 . S
N415 H428 0.985 . S
N416 C418 1.356 . S
N416 H421 0.984 . S
N416 H422 0.985 . S
C417 C411 1.378 1_565 S
C417 C414 1.363 1_565 S
C417 N415 1.356 . S
C418 C412 1.363 . S
C418 C413 1.379 . S
C418 N416 1.356 . S
N419 C411 1.356 1_565 S
N419 H425 0.984 . S
N419 H426 0.984 . S
N420 C413 1.356 . S
N420 H423 0.984 . S
N420 H424 0.985 . S
H421 N416 0.984 . S
H422 N416 0.985 . S
H423 N420 0.984 . S
H424 N420 0.985 . S
H425 N419 0.984 . S
H426 N419 0.984 . S
H427 N415 0.984 . S
H428 N415 0.985 . S
C429 C430 1.363 . S
C429 C435 1.379 1_556 S
C429 N437 1.356 . S
C430 C429 1.363 . S
C430 C436 1.363 . S
C431 C432 1.363 . S
C431 C436 1.379 1_554 S
C431 N438 1.356 . S
C432 C431 1.363 . S
C432 C435 1.363 . S
N433 C435 1.356 . S
N433 H445 0.984 . S
N433 H446 0.985 . S
N434 C436 1.356 . S
N434 H439 0.984 . S
N434 H440 0.985 . S
C435 C429 1.379 1_554 S
C435 C432 1.363 . S
C435 N433 1.356 . S
C436 C430 1.363 . S
C436 C431 1.379 1_556 S
C436 N434 1.356 . S
N437 C429 1.356 . S
N437 H443 0.984 . S
N437 H444 0.984 . S
N438 C431 1.356 . S
N438 H441 0.984 . S
N438 H442 0.985 . S
H439 N434 0.984 . S
H440 N434 0.985 . S
H441 N438 0.984 . S
H442 N438 0.985 . S
H443 N437 0.984 . S
H444 N437 0.984 . S
H445 N433 0.984 . S
H446 N433 0.985 . S
C447 C448 1.363 1_655 S
C447 C453 1.379 . S
C447 N455 1.356 . S
C448 C447 1.363 1_455 S
C448 C454 1.363 . S
C449 C450 1.363 . S
C449 C454 1.379 . S
C449 N456 1.356 . S
C450 C449 1.363 . S
C450 C453 1.363 1_455 S
N451 C453 1.356 . S
N451 H463 0.984 . S
N451 H464 0.985 . S
N452 C454 1.356 . S
N452 H457 0.984 . S
N452 H458 0.985 . S
C453 C447 1.379 . S
C453 C450 1.363 1_655 S
C453 N451 1.356 . S
C454 C448 1.363 . S
C454 C449 1.379 . S
C454 N452 1.356 . S
N455 C447 1.356 . S
N455 H461 0.984 . S
N455 H462 0.984 . S
N456 C449 1.356 . S
N456 H459 0.984 . S
N456 H460 0.985 . S
H457 N452 0.984 . S
H458 N452 0.985 . S
H459 N456 0.984 . S
H460 N456 0.985 . S
H461 N455 0.984 . S
H462 N455 0.984 . S
H463 N451 0.984 . S
H464 N451 0.985 . S
C142 C20 1.523 . S
C144 C135 1.579 . S
C160 C41 1.399 . S
C162 C109 1.374 . S
C178 C64 1.422 . S
C180 C121 1.397 . S
C196 C19 1.195 . S
C198 C133 1.245 . S
C216 C111 1.435 . S
C214 C44 1.409 . S
C234 C123 1.387 . S
C232 C67 1.369 . S
C250 C43 1.348 . S
C252 C85 1.367 . S
C268 C66 1.522 . S
C270 C99 1.578 . S
C286 C21 1.386 . S
C288 C75 1.405 . S
C306 C87 1.450 . S
C304 C42 1.352 . S
C324 C97 1.246 . S
C322 C65 1.196 . S
C340 C18 1.407 . S
C342 C73 1.383 . S
C360 C102 1.538 . S
C358 C17 1.534 . S
C376 C39 1.541 . S
C378 C78 1.537 . S
C394 C62 1.539 . S
C396 C90 1.533 . S
C414 C126 1.527 . S
C412 C40 1.521 . S
C432 C138 1.538 . S
C430 C63 1.534 . S
C448 C16 1.521 . S
C450 C114 1.515 . S
