# Generated by pormake.
# Topology pts, (4,4)-cn, num edge types: 1
# Building blocks:
#     Node 0, Type 0, BuildingBlock: NAHDIM_clean_linker_0, # of connection points: 4
#     Node 1, Type 0, BuildingBlock: NAHDIM_clean_linker_0, # of connection points: 4
#     Node 2, Type 1, BuildingBlock: AZAVOO_clean_sbu_0, # of connection points: 4
#     Node 3, Type 1, BuildingBlock: AZAVOO_clean_sbu_0, # of connection points: 4
#     Edge 4, Type (0, 1), BuildingBlock: UVAHIK_clean_linker_0, # of connection points: 2
#     Edge 5, Type (0, 1), BuildingBlock: UVAHIK_clean_linker_0, # of connection points: 2
#     Edge 6, Type (0, 1), BuildingBlock: UVAHIK_clean_linker_0, # of connection points: 2
#     Edge 7, Type (0, 1), BuildingBlock: UVAHIK_clean_linker_0, # of connection points: 2
#     Edge 8, Type (0, 1), BuildingBlock: UVAHIK_clean_linker_0, # of connection points: 2
#     Edge 9, Type (0, 1), BuildingBlock: UVAHIK_clean_linker_0, # of connection points: 2
#     Edge 10, Type (0, 1), BuildingBlock: UVAHIK_clean_linker_0, # of connection points: 2
#     Edge 11, Type (0, 1), BuildingBlock: UVAHIK_clean_linker_0, # of connection points: 2
# Relax obj value: 0.016
# Max RMSD: 0.067
# Mean RMSD: 0.062
data_MOF--net-pts--node1-AZAVOO_clean_sbu_0--node2-NAHDIM_clean_linker_0--edge1-UVAHIK_clean_linker_0
_symmetry_space_group_name_H-M    P1
_symmetry_Int_Tables_number       1
_symmetry_cell_setting            triclinic
loop_
_symmetry_equiv_pos_as_xyz
'x, y, z'
_cell_length_a     38.474077
_cell_length_b     39.172976
_cell_length_c     64.084475
_cell_angle_alpha  90.396178
_cell_angle_beta   95.528458
_cell_angle_gamma 89.91308
loop_
_atom_site_label
_atom_site_type_symbol
_atom_site_fract_x
_atom_site_fract_y
_atom_site_fract_z
_atom_type_partial_charge
C0 C 0.6933 0.06619 0.13504 0.0
C1 C 0.70564 0.03647 0.12199 0.0
C2 C 0.67398 0.03771 0.08753 0.0
C3 C 0.6626 0.00395 0.08444 0.0
C4 C 0.63257 0.9964 0.07101 0.0
C5 C 0.6135 0.02329 0.06061 0.0
C6 C 0.62533 0.05737 0.06348 0.0
C7 C 0.65587 0.06407 0.07668 0.0
C8 C 0.62105 0.95974 0.06802 0.0
C9 C 0.60546 0.08671 0.05286 0.0
C10 C 0.34553 0.03168 0.10269 0.0
C11 C 0.36971 0.03348 0.08592 0.0
C12 C 0.42465 0.00829 0.07695 0.0
C13 C 0.4326 0.03482 0.06354 0.0
C14 C 0.46325 0.03403 0.05335 0.0
C15 C 0.48592 0.00553 0.05601 0.0
C16 C 0.47777 0.97854 0.06927 0.0
C17 C 0.44736 0.98047 0.07973 0.0
C18 C 0.47139 0.06391 0.03985 0.0
C19 C 0.50116 0.94768 0.07242 0.0
C20 C 0.41683 0.96479 0.9216 0.0
C21 C 0.42245 0.99827 0.92902 0.0
C22 C 0.45447 0.00765 0.93991 0.0
C23 C 0.48111 0.98282 0.94368 0.0
C24 C 0.47586 0.94936 0.9355 0.0
C25 C 0.44386 0.94094 0.92428 0.0
C26 C 0.45964 0.04395 0.94761 0.0
C27 C 0.50376 0.92234 0.93901 0.0
C28 C 0.74151 0.07531 0.94443 0.0
C29 C 0.72786 0.04715 0.92914 0.0
C30 C 0.66472 0.0421 0.92951 0.0
C31 C 0.6374 0.06464 0.93228 0.0
C32 C 0.60755 0.0537 0.94127 0.0
C33 C 0.60477 0.01911 0.94713 0.0
C34 C 0.63146 0.99572 0.9432 0.0
C35 C 0.66128 0.00749 0.93444 0.0
C36 C 0.57939 0.07927 0.94501 0.0
C37 C 0.62874 0.95848 0.94866 0.0
C38 C 0.58083 0.01569 0.04711 0.0
C39 C 0.54998 0.01226 0.05679 0.0
C40 C 0.51834 0.0045 0.04514 0.0
C41 C 0.51752 -0.00103 0.02326 0.0
C42 C 0.48671 0.98886 0.01126 0.0
C43 C 0.48566 0.98544 0.98958 0.0
C44 C 0.51521 0.99264 0.97904 0.0
C45 C 0.51383 0.99141 0.9569 0.0
C46 C 0.54358 -0.00067 0.94695 0.0
C47 C 0.57498 0.00811 0.95856 0.0
C48 C 0.57709 0.00861 0.98072 0.0
C49 C 0.6085 0.01648 0.9929 0.0
C50 C 0.61007 0.01783 0.01467 0.0
C51 C 0.58002 0.01249 0.02507 0.0
C52 C 0.54822 0.00409 0.01313 0.0
C53 C 0.54691 0.00152 0.99095 0.0
C54 C 0.34154 0.92873 0.929 0.0
C55 C 0.35338 0.96096 0.91837 0.0
O56 O 0.70229 0.04538 0.10099 0.0
O57 O 0.69365 0.05442 0.92163 0.0
O58 O 0.38591 0.95503 0.91139 0.0
O59 O 0.39573 0.00879 0.08763 0.0
H60 H 0.68883 0.01406 0.12463 0.0
H61 H 0.66546 0.07194 0.13007 0.0
H62 H 0.70902 0.08946 0.13288 0.0
H63 H 0.69563 0.05948 0.15193 0.0
H64 H 0.67731 0.98354 0.0925 0.0
H65 H 0.66516 0.09003 0.07911 0.0
H66 H 0.59547 0.95627 0.0744 0.0
H67 H 0.64012 0.94161 0.07599 0.0
H68 H 0.61745 0.95331 0.05105 0.0
H69 H 0.61668 0.11187 0.05795 0.0
H70 H 0.57773 0.08592 0.05629 0.0
H71 H 0.60586 0.08434 0.03562 0.0
H72 H 0.35686 0.03579 0.06963 0.0
H73 H 0.3546 0.07761 0.11928 0.0
H74 H 0.3496 0.00591 0.11025 0.0
H75 H 0.31938 0.02498 0.09425 0.0
H76 H 0.41524 0.05648 0.0611 0.0
H77 H 0.44107 0.96011 0.09009 0.0
H78 H 0.46657 0.05652 0.02308 0.0
H79 H 0.49926 0.07138 0.04291 0.0
H80 H 0.45489 0.0865 0.04259 0.0
H81 H 0.48887 0.92698 0.08091 0.0
H82 H 0.52592 0.95518 0.08162 0.0
H83 H 0.50781 0.9376 0.05705 0.0
H84 H 0.35469 0.98201 0.93018 0.0
H85 H 0.40195 0.01712 0.92615 0.0
H86 H 0.43937 0.91534 0.91809 0.0
H87 H 0.45965 0.04469 0.96493 0.0
H88 H 0.43869 0.0612 0.94074 0.0
H89 H 0.48527 0.0538 0.94372 0.0
H90 H 0.49495 0.89711 0.9325 0.0
H91 H 0.51158 0.91962 0.95606 0.0
H92 H 0.52727 0.93023 0.93149 0.0
H93 H 0.72948 0.02268 0.93789 0.0
H94 H 0.76898 0.07 0.95057 0.0
H95 H 0.72538 0.0764 0.9579 0.0
H96 H 0.74023 0.10057 0.93661 0.0
H97 H 0.64007 0.09115 0.92798 0.0
H98 H 0.68168 0.98961 0.93134 0.0
H99 H 0.57581 0.08048 0.96198 0.0
H100 H 0.55421 0.07098 0.9366 0.0
H101 H 0.5856 0.10528 0.93964 0.0
H102 H 0.65018 0.94302 0.94296 0.0
H103 H 0.60331 0.94805 0.94179 0.0
H104 H 0.62968 0.95581 0.96594 0.0
H105 H 0.5505 0.01631 0.07359 0.0
H106 H 0.46301 0.9836 0.0185 0.0
H107 H 0.46116 0.97771 0.98118 0.0
H108 H 0.54213 -0.00081 0.92995 0.0
H109 H 0.6323 0.02168 0.98576 0.0
H110 H 0.63498 0.02388 0.0232 0.0
H111 H 0.33949 0.9069 0.91777 0.0
H112 H 0.31576 0.93294 0.93507 0.0
H113 H 0.36075 0.92209 0.94243 0.0
C114 C 0.12969 0.42126 0.65075 0.0
C115 C 0.09797 0.41133 0.63571 0.0
C116 C 0.09489 0.4265 0.59912 0.0
C117 C 0.05927 0.4249 0.59238 0.0
C118 C 0.04497 0.4455 0.57589 0.0
C119 C 0.06673 0.46886 0.56646 0.0
C120 C 0.10298 0.46984 0.57304 0.0
C121 C 0.11672 0.44791 0.58899 0.0
C122 C 0.00642 0.44301 0.56903 0.0
C123 C 0.12701 0.49505 0.56399 0.0
C124 C 0.90503 0.64395 0.6216 0.0
C125 C 0.94135 0.64259 0.6138 0.0
C126 C 0.95758 0.61912 0.58101 0.0
C127 C 0.99407 0.61937 0.58462 0.0
C128 C 0.01439 0.59765 0.57321 0.0
C129 C 0.99768 0.57441 0.55845 0.0
C130 C 0.96073 0.5743 0.5548 0.0
C131 C 0.94126 0.59748 0.56573 0.0
C132 C 0.05366 0.59925 0.57723 0.0
C133 C 0.94157 0.54913 0.5399 0.0
C134 C 0.98937 0.63361 0.42606 0.0
C135 C 0.02459 0.63492 0.43417 0.0
C136 C 0.04038 0.60695 0.44489 0.0
C137 C 0.02054 0.57715 0.44743 0.0
C138 C 0.98573 0.57505 0.43812 0.0
C139 C 0.97068 0.60332 0.42738 0.0
C140 C 0.07787 0.60959 0.45412 0.0
C141 C 0.96404 0.54344 0.44026 0.0
C142 C 0.16149 0.33337 0.4449 0.0
C143 C 0.12827 0.34982 0.43432 0.0
C144 C 0.11708 0.41083 0.43702 0.0
C145 C 0.13546 0.44068 0.44275 0.0
C146 C 0.11884 0.46856 0.45144 0.0
C147 C 0.08279 0.46658 0.45404 0.0
C148 C 0.06362 0.43713 0.44716 0.0
C149 C 0.08098 0.40952 0.43871 0.0
C150 C 0.13992 0.49977 0.45836 0.0
C151 C 0.02493 0.43465 0.4491 0.0
C152 C 0.05098 0.49504 0.55177 0.0
C153 C 0.03271 0.52164 0.56041 0.0
C154 C 0.01857 0.54847 0.54811 0.0
C155 C 0.02341 0.54936 0.52654 0.0
C156 C 0.01117 0.57685 0.51391 0.0
C157 C 0.01499 0.57694 0.49255 0.0
C158 C 0.03157 0.54971 0.48303 0.0
C159 C 0.03511 0.54937 0.46127 0.0
C160 C 0.05196 0.5221 0.45231 0.0
C161 C 0.06538 0.49483 0.46455 0.0
C162 C 0.06192 0.49458 0.48635 0.0
C163 C 0.07489 0.46743 0.49912 0.0
C164 C 0.07114 0.46736 0.52053 0.0
C165 C 0.05456 0.49456 0.53001 0.0
C166 C 0.04099 0.52203 0.51739 0.0
C167 C 0.04489 0.52213 0.49558 0.0
C168 C 0.94411 0.71081 0.42852 0.0
C169 C 0.97842 0.69485 0.42302 0.0
O170 O 0.10855 0.4081 0.61571 0.0
O171 O 0.13493 0.38372 0.43013 0.0
O172 O 0.97252 0.66109 0.41711 0.0
O173 O 0.93748 0.63933 0.59217 0.0
H174 H 0.07828 0.43219 0.63624 0.0
H175 H 0.14116 0.44533 0.64545 0.0
H176 H 0.14992 0.40092 0.65119 0.0
H177 H 0.122 0.42549 0.66685 0.0
H178 H 0.04271 0.40772 0.60017 0.0
H179 H 0.14429 0.44863 0.59436 0.0
H180 H 0.99267 0.46482 0.57574 0.0
H181 H 0.99497 0.41899 0.57444 0.0
H182 H 0.00159 0.44432 0.55168 0.0
H183 H 0.15331 0.49564 0.57283 0.0
H184 H 0.1157 0.52115 0.56404 0.0
H185 H 0.13018 0.48802 0.54749 0.0
H186 H 0.95484 0.61961 0.62089 0.0
H187 H 0.90702 0.64514 0.639 0.0
H188 H 0.89014 0.62062 0.61643 0.0
H189 H 0.89039 0.66665 0.61519 0.0
H190 H 0.00665 0.63668 0.59624 0.0
H191 H 0.91301 0.59773 0.56307 0.0
H192 H 0.06594 0.59764 0.56226 0.0
H193 H 0.06306 0.57723 0.58702 0.0
H194 H 0.06252 0.62307 0.58561 0.0
H195 H 0.91333 0.54782 0.54213 0.0
H196 H 0.95295 0.52317 0.54199 0.0
H197 H 0.94401 0.55702 0.52351 0.0
H198 H 0.99664 0.69666 0.43759 0.0
H199 H 0.03968 0.65783 0.43231 0.0
H200 H 0.94373 0.60239 0.42069 0.0
H201 H 0.07894 0.60899 0.47149 0.0
H202 H 0.09055 0.63343 0.44943 0.0
H203 H 0.093 0.58735 0.44906 0.0
H204 H 0.93789 0.54529 0.43134 0.0
H205 H 0.96053 0.53927 0.45705 0.0
H206 H 0.97782 0.52077 0.4346 0.0
H207 H 0.10864 0.34772 0.44596 0.0
H208 H 0.15708 0.3058 0.44766 0.0
H209 H 0.16874 0.34595 0.46029 0.0
H210 H 0.18372 0.33618 0.4352 0.0
H211 H 0.1632 0.44161 0.44106 0.0
H212 H 0.06636 0.38694 0.43348 0.0
H213 H 0.13861 0.50423 0.4754 0.0
H214 H 0.12864 0.52256 0.45 0.0
H215 H 0.16775 0.4973 0.4553 0.0
H216 H 0.01336 0.41092 0.44183 0.0
H217 H 0.01127 0.457 0.44153 0.0
H218 H 0.0202 0.43516 0.46592 0.0
H219 H 0.0294 0.52144 0.57704 0.0
H220 H 0.99835 0.59856 0.52039 0.0
H221 H 0.00471 0.59868 0.48361 0.0
H222 H 0.05449 0.52201 0.43559 0.0
H223 H 0.08802 0.44586 0.49271 0.0
H224 H 0.08137 0.44571 0.52957 0.0
H225 H 0.92368 0.70905 0.41507 0.0
H226 H 0.94813 0.73807 0.43302 0.0
H227 H 0.93463 0.69713 0.44201 0.0
Mg228 Mg 0.10054 0.0124 0.27412 0.0
O229 O 0.05013 0.0076 0.25156 0.0
O230 O 0.00605 0.00093 0.27153 0.0
Mg231 Mg 0.02671 0.004 0.30595 0.0
C232 C 0.01774 0.003 0.25362 0.0
C233 C 0.14016 0.00554 0.2344 0.0
O234 O 0.12946 0.97406 0.23664 0.0
O235 O 0.08685 0.06772 0.28173 0.0
O236 O 0.04304 0.05964 0.30169 0.0
O237 O 0.10611 0.95536 0.27568 0.0
O238 O 0.07739 0.9859 0.29736 0.0
C239 C 0.06377 0.07931 0.293 0.0
C240 C 0.08685 0.95633 0.29114 0.0
O241 O 0.13147 0.02841 0.24709 0.0
Mg242 Mg 0.0021 0.01224 0.72983 0.0
O243 O 0.05499 0.0097 0.7499 0.0
O244 O 0.09655 0.00323 0.7281 0.0
Mg245 Mg 0.07092 0.0045 0.69448 0.0
C246 C 0.08701 0.00593 0.74658 0.0
C247 C 0.94421 0.01462 0.75822 0.0
O248 O 0.93253 0.99525 0.74225 0.0
O249 O 0.01256 0.06732 0.72131 0.0
O250 O 0.05463 0.06032 0.69981 0.0
O251 O 0.99877 0.95565 0.72966 0.0
O252 O 0.02232 0.98551 0.70549 0.0
C253 C 0.03419 0.07936 0.70937 0.0
C254 C 0.01502 0.95618 0.71289 0.0
O255 O 0.97446 0.02767 0.75829 0.0
C256 C 0.39582 0.049 0.12274 0.0
C257 C 0.37962 0.06431 0.09612 0.0
C258 C 0.36216 0.04127 0.13979 0.0
C259 C 0.26224 0.06973 0.14788 0.0
H260 H 0.27146 0.98996 0.18347 0.0
C261 C 0.17587 0.04698 0.2157 0.0
C262 C 0.16415 0.01346 0.21836 0.0
C263 C 0.20005 0.05389 0.20131 0.0
C264 C 0.26837 0.01222 0.17353 0.0
H265 H 0.32957 0.09808 0.07534 0.0
H266 H 0.27887 0.08638 0.10481 0.0
H267 H 0.315 0.00097 0.15915 0.0
H268 H 0.16819 0.96102 0.20769 0.0
H269 H 0.21011 0.97313 0.18259 0.0
H270 H 0.21525 0.08069 0.16207 0.0
C271 C 0.30551 0.07803 0.10857 0.0
C272 C 0.29358 0.01877 0.15977 0.0
C273 C 0.33727 0.08695 0.09049 0.0
C274 C 0.1767 0.98713 0.20608 0.0
C275 C 0.20094 0.99401 0.19179 0.0
C276 C 0.23705 0.06324 0.16169 0.0
C277 C 0.31759 0.05453 0.1324 0.0
C278 C 0.29076 0.04757 0.14681 0.0
C279 C 0.21312 0.0274 0.18936 0.0
C280 C 0.23981 0.03439 0.17465 0.0
H281 H 0.42195 0.03901 0.12624 0.0
H282 H 0.36894 0.02881 0.15462 0.0
H283 H 0.25955 0.09245 0.13836 0.0
H284 H 0.16675 0.06784 0.22493 0.0
H285 H 0.20914 0.07986 0.19993 0.0
C286 C 0.06278 0.37915 0.66034 0.0
C287 C 0.08208 0.3785 0.64278 0.0
C288 C 0.05094 0.34888 0.66861 0.0
C289 C 0.0295 0.25975 0.65705 0.0
H290 H 0.06595 0.2411 0.71445 0.0
C291 C 0.00409 0.13573 0.70379 0.0
C292 C 0.03505 0.11642 0.70566 0.0
C293 C 0.00471 0.17003 0.69784 0.0
C294 C 0.05513 0.24631 0.69855 0.0
H295 H 0.10351 0.34531 0.61991 0.0
H296 H 0.08172 0.2926 0.63397 0.0
H297 H 0.07481 0.29752 0.69943 0.0
H298 H 0.09099 0.11797 0.70385 0.0
H299 H 0.09217 0.17832 0.6943 0.0
H300 H 0.01036 0.20826 0.65613 0.0
C301 C 0.07588 0.31668 0.64129 0.0
C302 C 0.06013 0.27843 0.68998 0.0
C303 C 0.08837 0.34689 0.63327 0.0
C304 C 0.06677 0.1323 0.70245 0.0
C305 C 0.06749 0.16672 0.69707 0.0
C306 C 0.02385 0.22786 0.66578 0.0
C307 C 0.05765 0.31739 0.65924 0.0
C308 C 0.04813 0.28509 0.669 0.0
C309 C 0.03643 0.18559 0.69432 0.0
C310 C 0.03736 0.22073 0.68641 0.0
H311 H 0.05777 0.40313 0.66804 0.0
H312 H 0.03695 0.34999 0.68248 0.0
H313 H 0.02001 0.26439 0.64085 0.0
H314 H 0.97928 0.12394 0.70604 0.0
H315 H 0.98049 0.18427 0.6957 0.0
C316 C 0.77105 0.04678 0.12277 0.0
C317 C 0.74317 0.02764 0.12924 0.0
C318 C 0.80532 0.04066 0.13136 0.0
C319 C 0.86016 0.97866 0.16419 0.0
H320 H 0.91493 0.05885 0.18132 0.0
C321 C 0.96079 0.98306 0.23592 0.0
C322 C 0.99236 0.00063 0.23481 0.0
C323 C 0.93517 0.983 0.21899 0.0
C324 C 0.90029 0.03617 0.17628 0.0
H325 H 0.72925 0.98747 0.14991 0.0
H326 H 0.78864 0.97711 0.16515 0.0
H327 H 0.86049 0.06525 0.15887 0.0
H328 H 0.02227 0.03116 0.21486 0.0
H329 H 0.97673 0.03177 0.18523 0.0
H330 H 0.89911 0.94989 0.18269 0.0
C331 C 0.78443 0.99611 0.15297 0.0
C332 C 0.86907 0.03979 0.16338 0.0
C333 C 0.7503 0.00213 0.14433 0.0
C334 C 0.9982 0.01735 0.21612 0.0
C335 C 0.97217 0.01782 0.19924 0.0
C336 C 0.89117 0.97511 0.17725 0.0
C337 C 0.81237 0.01555 0.14681 0.0
C338 C 0.84807 0.01117 0.1577 0.0
C339 C 0.94026 0.00091 0.20064 0.0
C340 C 0.91101 0.00393 0.18391 0.0
H341 H 0.76625 0.06699 0.1114 0.0
H342 H 0.8262 0.05595 0.12615 0.0
H343 H 0.84511 0.95599 0.15972 0.0
H344 H 0.95562 0.96975 0.25006 0.0
H345 H 0.91071 0.97006 0.22061 0.0
C346 C 0.9642 0.7025 0.60773 0.0
C347 C 0.96188 0.67424 0.62092 0.0
C348 C 0.98043 0.73258 0.6154 0.0
C349 C 0.03283 0.77038 0.6625 0.0
H350 H 0.98445 0.85312 0.64367 0.0
C351 C 0.02063 0.89263 0.7119 0.0
C352 C 0.02314 0.92427 0.70198 0.0
C353 C 0.02312 0.86225 0.70059 0.0
C354 C 0.99868 0.83033 0.64883 0.0
H355 H 0.97482 0.65526 0.65233 0.0
H356 H 0.00147 0.70802 0.66604 0.0
H357 H 0.96937 0.79945 0.626 0.0
H358 H 0.03222 0.94898 0.6728 0.0
H359 H 0.03568 0.89577 0.65294 0.0
H360 H 0.06021 0.8015 0.6864 0.0
C361 C 0.99217 0.70679 0.64957 0.0
C362 C 0.99016 0.79945 0.63864 0.0
C363 C 0.97659 0.67656 0.64179 0.0
C364 C 0.03011 0.92496 0.68086 0.0
C365 C 0.03202 0.89458 0.66947 0.0
C366 C 0.04087 0.80125 0.67294 0.0
C367 C 0.99382 0.73546 0.63658 0.0
C368 C 0.00651 0.76887 0.64562 0.0
C369 C 0.02765 0.86301 0.67912 0.0
C370 C 0.02335 0.83135 0.66643 0.0
H371 H 0.95297 0.70166 0.59158 0.0
H372 H 0.98177 0.75382 0.60479 0.0
H373 H 0.04662 0.74758 0.66803 0.0
H374 H 0.01544 0.89133 0.72819 0.0
H375 H 0.01942 0.83822 0.70836 0.0
C376 C 0.33019 0.95852 0.87979 0.0
C377 C 0.32696 0.97047 0.90026 0.0
C378 C 0.30444 0.96582 0.86353 0.0
C379 C 0.21151 0.98404 0.85326 0.0
H380 H 0.23605 0.01608 0.79949 0.0
C381 C 0.10636 0.01372 0.78494 0.0
C382 C 0.11409 0.00445 0.76466 0.0
C383 C 0.13217 0.01234 0.80187 0.0
C384 C 0.22873 0.00674 0.81432 0.0
H385 H 0.29368 0.9983 0.91985 0.0
H386 H 0.24833 0.01068 0.89141 0.0
H387 H 0.28164 0.00829 0.82823 0.0
H388 H 0.15502 0.98611 0.74636 0.0
H389 H 0.19948 0.98273 0.77581 0.0
H390 H 0.15883 0.98129 0.83927 0.0
C391 C 0.27111 0.99619 0.88795 0.0
C392 C 0.25487 0.00244 0.83079 0.0
C393 C 0.2971 0.98932 0.90415 0.0
C394 C 0.14816 0.99369 0.76173 0.0
C395 C 0.17381 0.992 0.77865 0.0
C396 C 0.18538 0.98794 0.83671 0.0
C397 C 0.27454 0.9845 0.86748 0.0
C398 C 0.24656 0.99078 0.85036 0.0
C399 C 0.16623 0.00137 0.79894 0.0
C400 C 0.19369 -0.00099 0.81694 0.0
H401 H 0.3524 0.94319 0.87634 0.0
H402 H 0.30745 0.95603 0.84796 0.0
H403 H 0.20444 0.97469 0.86815 0.0
H404 H 0.08044 0.02234 0.78773 0.0
H405 H 0.12547 0.0202 0.81721 0.0
C406 C 0.13691 0.32655 0.39802 0.0
C407 C 0.1153 0.33112 0.41431 0.0
C408 C 0.12623 0.30577 0.38076 0.0
C409 C 0.06562 0.23412 0.36744 0.0
H410 H 0.09783 0.24277 0.3122 0.0
C411 C 0.03373 0.12996 0.30679 0.0
C412 C 0.06318 0.11607 0.29846 0.0
C413 C 0.0354 0.16198 0.31646 0.0
C414 C 0.08859 0.24014 0.32755 0.0
H415 H 0.06416 0.32057 0.4242 0.0
H416 H 0.04484 0.28563 0.39374 0.0
H417 H 0.10868 0.28904 0.33789 0.0
H418 H 0.11644 0.12628 0.29196 0.0
H419 H 0.1195 0.18226 0.30916 0.0
H420 H 0.04601 0.18524 0.35734 0.0
C421 C 0.07076 0.29662 0.39472 0.0
C422 C 0.0949 0.26653 0.3423 0.0
C423 C 0.0817 0.31685 0.41214 0.0
C424 C 0.09334 0.13625 0.29829 0.0
C425 C 0.09507 0.16836 0.30811 0.0
C426 C 0.05905 0.20805 0.35269 0.0
C427 C 0.09336 0.28972 0.37918 0.0
C428 C 0.08392 0.26361 0.36257 0.0
C429 C 0.06661 0.18079 0.31814 0.0
C430 C 0.07082 0.2105 0.33268 0.0
H431 H 0.16264 0.33794 0.39903 0.0
H432 H 0.14443 0.30109 0.36919 0.0
H433 H 0.05751 0.23036 0.38297 0.0
H434 H 0.00988 0.1153 0.30684 0.0
H435 H 0.01278 0.17126 0.32363 0.0
C436 C 0.74627 0.06813 0.8945 0.0
C437 C 0.75034 0.04472 0.91108 0.0
C438 C 0.76778 0.06637 0.87816 0.0
C439 C 0.85276 0.03342 0.86462 0.0
H440 H 0.81106 0.04253 0.80739 0.0
C441 C 0.93503 0.03957 0.79353 0.0
C442 C 0.9226 0.02017 0.77585 0.0
C443 C 0.91448 0.04403 0.81023 0.0
C444 C 0.82309 0.03981 0.82328 0.0
H445 H 0.78095 0.00206 0.92401 0.0
H446 H 0.81838 -0.00129 0.89534 0.0
H447 H 0.77436 0.04685 0.83624 0.0
H448 H 0.87886 0.99021 0.76185 0.0
H449 H 0.84333 0.99781 0.7909 0.0
H450 H 0.9014 0.02565 0.85159 0.0
C451 C 0.79851 0.01837 0.89495 0.0
C452 C 0.80212 0.04264 0.83982 0.0
C453 C 0.77691 0.02007 0.91125 0.0
C454 C 0.88921 0.00545 0.77518 0.0
C455 C 0.86871 0.00995 0.7918 0.0
C456 C 0.87378 0.03071 0.84806 0.0
C457 C 0.79411 0.04143 0.87818 0.0
C458 C 0.81666 0.03927 0.86067 0.0
C459 C 0.88107 0.02927 0.80952 0.0
C460 C 0.85913 0.03362 0.8272 0.0
H461 H 0.72651 0.08788 0.89422 0.0
H462 H 0.76411 0.08484 0.86564 0.0
H463 H 0.86479 0.03106 0.88053 0.0
H464 H 0.96064 0.05124 0.79452 0.0
H465 H 0.9246 0.0593 0.8236 0.0
C466 C 0.02321 0.73413 0.40953 0.0
C467 C 0.99292 0.71427 0.40549 0.0
C468 C 0.03482 0.75468 0.39388 0.0
C469 C 0.06089 0.78587 0.35455 0.0
H470 H 0.98924 0.84593 0.3286 0.0
C471 C 0.08731 0.89253 0.29507 0.0
C472 C 0.07529 0.92478 0.301 0.0
C473 C 0.07733 0.86299 0.30515 0.0
C474 C 0.00944 0.8291 0.33558 0.0
H475 H 0.95182 0.6992 0.38173 0.0
H476 H 0.97181 0.73563 0.3544 0.0
H477 H 0.97296 0.7998 0.35115 0.0
H478 H 0.04367 0.9511 0.32236 0.0
H479 H 0.0255 0.89982 0.33928 0.0
H480 H 0.09747 0.81599 0.33937 0.0
C481 C 0.98653 0.73526 0.36969 0.0
C482 C 1.00013 0.80258 0.34835 0.0
C483 C 0.97514 0.71444 0.38527 0.0
C484 C 0.05288 0.92679 0.31703 0.0
C485 C 0.04247 0.89735 0.3268 0.0
C486 C 0.07016 0.81218 0.34152 0.0
C487 C 0.01614 0.75602 0.37395 0.0
C488 C 0.02583 0.7812 0.35836 0.0
C489 C 0.0547 0.86522 0.32105 0.0
C490 C 0.04459 0.83453 0.33236 0.0
H491 H 0.0374 0.73447 0.42498 0.0
H492 H 0.05753 0.77067 0.39767 0.0
H493 H 0.08117 0.7696 0.36199 0.0
H494 H 0.1048 0.89014 0.28287 0.0
H495 H 0.08714 0.83844 0.30049 0.0
loop_
_geom_bond_atom_site_label_1
_geom_bond_atom_site_label_2
_geom_bond_distance
_geom_bond_site_symmetry_2
_ccdc_geom_bond_type
C0 C1 1.560 . S
C0 H61 0.959 . S
C0 H62 0.959 . S
C0 H63 0.960 . S
C1 C0 1.560 . S
C1 O56 1.426 . S
C1 H60 0.980 . S
C2 C3 1.407 1_545 S
C2 C7 1.418 . S
C2 O56 1.334 . S
C3 C2 1.407 1_565 S
C3 C4 1.360 . S
C3 H64 0.929 . S
C4 C3 1.360 . S
C4 C5 1.401 1_565 S
C4 C8 1.527 . S
C5 C4 1.401 1_545 S
C5 C6 1.405 . S
C5 C38 1.587 1_545 S
C6 C5 1.405 . S
C6 C7 1.332 . S
C6 C9 1.496 . S
C7 C2 1.418 . S
C7 C6 1.332 . S
C7 H65 0.929 . S
C8 C4 1.527 . S
C8 H66 0.959 . S
C8 H67 0.961 . S
C8 H68 0.961 . S
C9 C6 1.496 . S
C9 H69 0.960 . S
C9 H70 0.960 . S
C9 H71 0.961 . S
C10 C11 1.517 . S
C10 H73 0.961 1_565 S
C10 H74 0.960 . S
C10 H75 0.959 . S
C11 C10 1.517 . S
C11 O59 1.468 . S
C11 H72 0.980 1_565 S
C12 C13 1.349 1_565 S
C12 C17 1.367 . S
C12 O59 1.408 . S
C13 C12 1.349 1_545 S
C13 C14 1.407 . S
C13 H76 0.930 . S
C14 C13 1.407 . S
C14 C15 1.449 1_545 S
C14 C18 1.535 . S
C15 C14 1.449 1_565 S
C15 C16 1.384 . S
C15 C40 1.553 . S
C16 C15 1.384 . S
C16 C17 1.364 . S
C16 C19 1.450 . S
C17 C12 1.367 . S
C17 C16 1.364 . S
C17 H77 0.931 . S
C18 C14 1.535 . S
C18 H78 0.959 . S
C18 H79 0.961 . S
C18 H80 0.959 . S
C19 C16 1.450 . S
C19 H81 0.960 . S
C19 H82 0.960 . S
C19 H83 0.960 . S
C20 C21 1.309 1_565 S
C20 C25 1.304 . S
C20 O58 1.435 . S
C21 C20 1.309 1_545 S
C21 C22 1.476 . S
C21 H85 0.930 . S
C22 C21 1.476 . S
C22 C23 1.400 1_545 S
C22 C26 1.567 . S
C23 C22 1.400 1_565 S
C23 C24 1.373 . S
C23 C45 1.432 . S
C24 C23 1.373 . S
C24 C25 1.339 . S
C24 C27 1.530 . S
C25 C20 1.304 . S
C25 C24 1.339 . S
C25 H86 0.930 . S
C26 C22 1.567 . S
C26 H87 0.961 . S
C26 H88 0.960 . S
C26 H89 0.958 . S
C27 C24 1.530 . S
C27 H90 0.961 . S
C27 H91 0.960 . S
C27 H92 0.960 . S
C28 C29 1.530 . S
C28 H94 0.961 . S
C28 H95 0.961 . S
C28 H96 0.959 . S
C29 C28 1.530 . S
C29 O57 1.412 . S
C29 H93 0.980 . S
C30 C31 1.288 . S
C30 C35 1.377 1_545 S
C30 O57 1.393 . S
C31 C30 1.288 . S
C31 C32 1.369 . S
C31 H97 0.932 . S
C32 C31 1.369 . S
C32 C33 1.398 . S
C32 C36 1.527 . S
C33 C32 1.398 . S
C33 C34 1.380 1_545 S
C33 C47 1.497 . S
C34 C33 1.380 1_565 S
C34 C35 1.383 . S
C34 C37 1.603 . S
C35 C30 1.377 1_565 S
C35 C34 1.383 . S
C35 H98 0.929 . S
C36 C32 1.527 . S
C36 H99 0.961 . S
C36 H100 0.959 . S
C36 H101 0.959 . S
C37 C34 1.603 . S
C37 H102 0.960 . S
C37 H103 0.962 . S
C37 H104 0.961 . S
C38 C5 1.587 1_565 S
C38 C39 1.360 . S
C38 C51 1.412 . S
C39 C38 1.360 . S
C39 C40 1.365 . S
C39 H105 0.929 . S
C40 C15 1.553 . S
C40 C39 1.365 . S
C40 C41 1.404 . S
C41 C40 1.404 . S
C41 C42 1.395 . S
C41 C52 1.451 . S
C42 C41 1.395 . S
C42 C43 1.350 . S
C42 H106 0.930 . S
C43 C42 1.350 . S
C43 C44 1.441 1_554 S
C43 H107 0.919 1_554 S
C44 C43 1.441 1_556 S
C44 C45 1.445 . S
C44 C53 1.395 . S
C45 C23 1.432 . S
C45 C44 1.445 . S
C45 C46 1.370 . S
C46 C45 1.370 . S
C46 C47 1.438 1_565 S
C46 H108 0.931 . S
C47 C33 1.497 . S
C47 C46 1.438 1_545 S
C47 C48 1.359 1_545 S
C48 C47 1.359 1_565 S
C48 C49 1.421 1_565 S
C48 C53 1.448 . S
C49 C48 1.421 1_545 S
C49 C50 1.301 1_556 S
C49 H109 0.956 . S
C50 C49 1.301 1_554 S
C50 C51 1.455 1_545 S
C50 H110 0.930 . S
C51 C38 1.412 . S
C51 C50 1.455 1_565 S
C51 C52 1.331 . S
C52 C41 1.451 . S
C52 C51 1.331 . S
C52 C53 1.497 1_554 S
C53 C44 1.395 . S
C53 C48 1.448 . S
C53 C52 1.497 1_556 S
C54 C55 1.582 1_565 S
C54 H111 0.962 . S
C54 H112 0.959 . S
C54 H113 0.958 . S
C55 C54 1.582 1_545 S
C55 O58 1.458 1_545 S
C55 H84 0.980 . S
O56 C1 1.426 . S
O56 C2 1.334 . S
O57 C29 1.412 . S
O57 C30 1.393 . S
O58 C20 1.435 . S
O58 C55 1.458 1_565 S
O59 C11 1.468 . S
O59 C12 1.408 . S
H60 C1 0.980 . S
H61 C0 0.959 . S
H62 C0 0.959 . S
H63 C0 0.960 . S
H64 C3 0.929 . S
H65 C7 0.929 . S
H66 C8 0.959 . S
H67 C8 0.961 . S
H68 C8 0.961 . S
H69 C9 0.960 . S
H70 C9 0.960 . S
H71 C9 0.961 . S
H72 C11 0.980 1_545 S
H73 C10 0.961 1_545 S
H74 C10 0.960 . S
H75 C10 0.959 . S
H76 C13 0.930 . S
H77 C17 0.931 . S
H78 C18 0.959 . S
H79 C18 0.961 . S
H80 C18 0.959 . S
H81 C19 0.960 . S
H82 C19 0.960 . S
H83 C19 0.960 . S
H84 C55 0.980 . S
H85 C21 0.930 . S
H86 C25 0.930 . S
H87 C26 0.961 . S
H88 C26 0.960 . S
H89 C26 0.958 . S
H90 C27 0.961 . S
H91 C27 0.960 . S
H92 C27 0.960 . S
H93 C29 0.980 . S
H94 C28 0.961 . S
H95 C28 0.961 . S
H96 C28 0.959 . S
H97 C31 0.932 . S
H98 C35 0.929 . S
H99 C36 0.961 . S
H100 C36 0.959 . S
H101 C36 0.959 . S
H102 C37 0.960 . S
H103 C37 0.962 . S
H104 C37 0.961 . S
H105 C39 0.929 . S
H106 C42 0.930 . S
H107 C43 0.919 1_556 S
H108 C46 0.931 . S
H109 C49 0.956 . S
H110 C50 0.930 . S
H111 C54 0.962 . S
H112 C54 0.959 . S
H113 C54 0.958 . S
C114 C115 1.560 . S
C114 H175 0.959 . S
C114 H176 0.959 . S
C114 H177 0.960 . S
C115 C114 1.560 . S
C115 O170 1.426 . S
C115 H174 0.980 . S
C116 C117 1.407 . S
C116 C121 1.418 . S
C116 O170 1.334 . S
C117 C116 1.407 . S
C117 C118 1.360 . S
C117 H178 0.929 . S
C118 C117 1.360 . S
C118 C119 1.401 . S
C118 C122 1.527 1_455 S
C119 C118 1.401 . S
C119 C120 1.405 . S
C119 C152 1.587 . S
C120 C119 1.405 . S
C120 C121 1.332 . S
C120 C123 1.496 . S
C121 C116 1.418 . S
C121 C120 1.332 . S
C121 H179 0.929 . S
C122 C118 1.527 1_655 S
C122 H180 0.959 . S
C122 H181 0.961 . S
C122 H182 0.961 . S
C123 C120 1.496 . S
C123 H183 0.960 . S
C123 H184 0.960 . S
C123 H185 0.961 . S
C124 C125 1.517 . S
C124 H187 0.961 . S
C124 H188 0.960 1_455 S
C124 H189 0.963 . S
C125 C124 1.517 . S
C125 O173 1.468 1_455 S
C125 H186 0.980 . S
C126 C127 1.349 1_655 S
C126 C131 1.367 . S
C126 O173 1.408 . S
C127 C126 1.349 1_455 S
C127 C128 1.407 . S
C127 H190 0.930 . S
C128 C127 1.407 . S
C128 C129 1.449 . S
C128 C132 1.535 . S
C129 C128 1.449 . S
C129 C130 1.384 1_455 S
C129 C154 1.553 . S
C130 C129 1.384 1_655 S
C130 C131 1.364 . S
C130 C133 1.450 . S
C131 C126 1.367 . S
C131 C130 1.364 . S
C131 H191 0.931 . S
C132 C128 1.535 . S
C132 H192 0.959 . S
C132 H193 0.961 . S
C132 H194 0.959 . S
C133 C130 1.450 . S
C133 H195 0.960 . S
C133 H196 0.960 . S
C133 H197 0.960 . S
C134 C135 1.309 . S
C134 C139 1.321 . S
C134 O172 1.435 . S
C135 C134 1.309 . S
C135 C136 1.476 . S
C135 H199 0.930 . S
C136 C135 1.476 . S
C136 C137 1.400 . S
C136 C140 1.567 . S
C137 C136 1.400 . S
C137 C138 1.373 . S
C137 C159 1.432 . S
C138 C137 1.373 . S
C138 C139 1.339 . S
C138 C141 1.530 1_455 S
C139 C134 1.321 . S
C139 C138 1.339 . S
C139 H200 0.912 1_455 S
C140 C136 1.567 . S
C140 H201 0.961 . S
C140 H202 0.960 . S
C140 H203 0.958 . S
C141 C138 1.530 1_655 S
C141 H204 0.961 . S
C141 H205 0.960 . S
C141 H206 0.960 . S
C142 C143 1.530 . S
C142 H208 0.961 . S
C142 H209 0.961 . S
C142 H210 0.959 . S
C143 C142 1.530 . S
C143 O171 1.412 . S
C143 H207 0.980 . S
C144 C145 1.288 . S
C144 C149 1.377 . S
C144 O171 1.393 . S
C145 C144 1.288 . S
C145 C146 1.369 . S
C145 H211 0.932 . S
C146 C145 1.369 . S
C146 C147 1.398 . S
C146 C150 1.527 . S
C147 C146 1.398 . S
C147 C148 1.380 . S
C147 C161 1.497 . S
C148 C147 1.380 . S
C148 C149 1.383 . S
C148 C151 1.603 1_455 S
C149 C144 1.377 . S
C149 C148 1.383 . S
C149 H212 0.929 . S
C150 C146 1.527 . S
C150 H213 0.961 . S
C150 H214 0.959 . S
C150 H215 0.959 . S
C151 C148 1.603 1_655 S
C151 H216 0.960 . S
C151 H217 0.962 . S
C151 H218 0.961 . S
C152 C119 1.587 . S
C152 C153 1.360 . S
C152 C165 1.412 . S
C153 C152 1.360 . S
C153 C154 1.365 . S
C153 H219 0.929 . S
C154 C129 1.553 . S
C154 C153 1.365 . S
C154 C155 1.404 . S
C155 C154 1.404 . S
C155 C156 1.395 . S
C155 C166 1.451 . S
C156 C155 1.395 . S
C156 C157 1.322 . S
C156 H220 0.930 . S
C157 C156 1.322 . S
C157 C158 1.459 . S
C157 H221 0.929 . S
C158 C157 1.459 . S
C158 C159 1.445 . S
C158 C167 1.395 . S
C159 C137 1.432 . S
C159 C158 1.445 . S
C159 C160 1.370 . S
C160 C159 1.370 . S
C160 C161 1.438 . S
C160 H222 0.930 . S
C161 C147 1.497 . S
C161 C160 1.438 . S
C161 C162 1.360 . S
C162 C161 1.360 . S
C162 C163 1.401 . S
C162 C167 1.446 . S
C163 C162 1.401 . S
C163 C164 1.347 . S
C163 H223 0.929 . S
C164 C163 1.347 . S
C164 C165 1.455 . S
C164 H224 0.930 . S
C165 C152 1.412 . S
C165 C164 1.455 . S
C165 C166 1.331 . S
C166 C155 1.451 . S
C166 C165 1.331 . S
C166 C167 1.497 . S
C167 C158 1.395 . S
C167 C162 1.446 . S
C167 C166 1.497 . S
C168 C169 1.582 . S
C168 H225 0.962 . S
C168 H226 0.959 . S
C168 H227 0.958 . S
C169 C168 1.582 . S
C169 O172 1.458 . S
C169 H198 0.980 . S
O170 C115 1.426 . S
O170 C116 1.334 . S
O171 C143 1.412 . S
O171 C144 1.393 . S
O172 C134 1.435 . S
O172 C169 1.458 . S
O173 C125 1.468 1_655 S
O173 C126 1.408 . S
H174 C115 0.980 . S
H175 C114 0.959 . S
H176 C114 0.959 . S
H177 C114 0.960 . S
H178 C117 0.929 . S
H179 C121 0.929 . S
H180 C122 0.959 . S
H181 C122 0.961 . S
H182 C122 0.961 . S
H183 C123 0.960 . S
H184 C123 0.960 . S
H185 C123 0.961 . S
H186 C125 0.980 . S
H187 C124 0.961 . S
H188 C124 0.960 1_655 S
H189 C124 0.963 . S
H190 C127 0.930 . S
H191 C131 0.931 . S
H192 C132 0.959 . S
H193 C132 0.961 . S
H194 C132 0.959 . S
H195 C133 0.960 . S
H196 C133 0.960 . S
H197 C133 0.960 . S
H198 C169 0.980 . S
H199 C135 0.930 . S
H200 C139 0.912 1_655 S
H201 C140 0.961 . S
H202 C140 0.960 . S
H203 C140 0.958 . S
H204 C141 0.961 . S
H205 C141 0.960 . S
H206 C141 0.960 . S
H207 C143 0.980 . S
H208 C142 0.961 . S
H209 C142 0.961 . S
H210 C142 0.959 . S
H211 C145 0.932 . S
H212 C149 0.929 . S
H213 C150 0.961 . S
H214 C150 0.959 . S
H215 C150 0.959 . S
H216 C151 0.960 . S
H217 C151 0.962 . S
H218 C151 0.961 . S
H219 C153 0.929 . S
H220 C156 0.930 . S
H221 C157 0.929 . S
H222 C160 0.930 . S
H223 C163 0.929 . S
H224 C164 0.930 . S
H225 C168 0.962 . S
H226 C168 0.959 . S
H227 C168 0.958 . S
Mg228 O229 2.028 . S
Mg228 O235 1.986 . S
Mg228 O237 2.114 1_545 S
Mg228 O238 2.260 . S
Mg228 O241 2.010 . S
O229 Mg228 2.028 . S
O229 C232 1.250 . S
O230 Mg231 2.028 . S
O230 C232 1.248 . S
Mg231 O230 2.028 . S
Mg231 O236 2.032 . S
Mg231 O238 2.090 . S
C232 O229 1.250 . S
C232 O230 1.248 . S
C233 O234 1.264 . S
C233 O241 1.249 . S
O234 C233 1.264 . S
O235 Mg228 1.986 . S
O235 C239 1.246 . S
O236 Mg231 2.032 . S
O236 C239 1.259 . S
O237 Mg228 2.114 1_565 S
O237 C240 1.252 . S
O238 Mg228 2.260 . S
O238 Mg231 2.090 . S
O238 C240 1.256 1_545 S
C239 O235 1.246 . S
C239 O236 1.259 . S
C240 O237 1.252 . S
C240 O238 1.256 1_565 S
O241 Mg228 2.010 . S
O241 C233 1.249 . S
Mg242 O243 2.028 1_655 S
Mg242 O249 1.986 1_655 S
Mg242 O251 2.114 1_545 S
Mg242 O252 2.251 1_645 S
Mg242 O255 2.010 . S
O243 Mg242 2.028 1_455 S
O243 C246 1.250 . S
O244 Mg245 2.028 . S
O244 C246 1.248 . S
Mg245 O244 2.028 . S
Mg245 O250 2.032 . S
Mg245 O252 2.079 1_545 S
C246 O243 1.250 . S
C246 O244 1.248 . S
C247 O248 1.264 . S
C247 O255 1.249 . S
O248 C247 1.264 . S
O249 Mg242 1.986 1_455 S
O249 C253 1.246 . S
O250 Mg245 2.032 . S
O250 C253 1.259 . S
O251 Mg242 2.114 1_565 S
O251 C254 1.252 1_655 S
O252 Mg242 2.251 1_465 S
O252 Mg245 2.079 1_565 S
O252 C254 1.273 . S
C253 O249 1.246 . S
C253 O250 1.259 . S
C254 O251 1.252 1_455 S
C254 O252 1.273 . S
O255 Mg242 2.010 . S
O255 C247 1.249 . S
C256 C257 1.349 1_565 S
C256 C258 1.327 . S
C256 H281 0.950 . S
C257 C256 1.349 1_545 S
C257 C273 1.349 . S
C258 C256 1.327 . S
C258 C277 1.429 1_565 S
C258 H282 0.950 . S
C259 C276 1.574 . S
C259 C278 1.368 . S
C259 H283 0.949 . S
H260 C264 0.949 . S
C261 C262 1.349 . S
C261 C263 1.327 . S
C261 H284 0.950 . S
C262 C261 1.349 . S
C262 C274 1.349 . S
C263 C261 1.327 . S
C263 C279 1.429 . S
C263 H285 0.950 . S
C264 H260 0.949 . S
C264 C272 1.574 . S
C264 C280 1.368 1_565 S
H265 C273 0.950 . S
H266 C271 0.950 . S
H267 C272 0.949 . S
H268 C274 0.950 1_565 S
H269 C275 0.964 . S
H270 C276 0.949 . S
C271 H266 0.950 . S
C271 C273 1.327 . S
C271 C277 1.429 . S
C272 C264 1.574 . S
C272 H267 0.949 . S
C272 C278 1.368 1_565 S
C273 C257 1.349 . S
C273 H265 0.950 . S
C273 C271 1.327 . S
C274 C262 1.349 . S
C274 H268 0.950 1_545 S
C274 C275 1.326 1_545 S
C275 H269 0.964 . S
C275 C274 1.326 1_565 S
C275 C279 1.417 1_565 S
C276 C259 1.574 . S
C276 H270 0.949 . S
C276 C280 1.368 . S
C277 C258 1.429 1_545 S
C277 C271 1.429 . S
C277 C278 1.523 . S
C278 C259 1.368 . S
C278 C272 1.368 1_545 S
C278 C277 1.523 . S
C279 C263 1.429 . S
C279 C275 1.417 1_545 S
C279 C280 1.523 . S
C280 C264 1.368 1_545 S
C280 C276 1.368 . S
C280 C279 1.523 . S
H281 C256 0.950 . S
H282 C258 0.950 . S
H283 C259 0.949 . S
H284 C261 0.950 . S
H285 C263 0.950 . S
C286 C287 1.349 . S
C286 C288 1.327 . S
C286 H311 0.950 . S
C287 C286 1.349 . S
C287 C303 1.349 . S
C288 C286 1.327 . S
C288 C307 1.429 . S
C288 H312 0.950 . S
C289 C306 1.574 . S
C289 C308 1.368 . S
C289 H313 0.949 . S
H290 C294 0.949 . S
C291 C292 1.349 . S
C291 C293 1.327 . S
C291 H314 0.950 . S
C292 C291 1.349 . S
C292 C304 1.349 . S
C293 C291 1.327 . S
C293 C309 1.429 . S
C293 H315 0.950 . S
C294 H290 0.949 . S
C294 C302 1.574 . S
C294 C310 1.368 . S
H295 C303 0.950 . S
H296 C301 0.950 . S
H297 C302 0.949 . S
H298 C304 0.950 . S
H299 C305 0.950 . S
H300 C306 0.949 . S
C301 H296 0.950 . S
C301 C303 1.327 . S
C301 C307 1.429 . S
C302 C294 1.574 . S
C302 H297 0.949 . S
C302 C308 1.368 . S
C303 C287 1.349 . S
C303 H295 0.950 . S
C303 C301 1.327 . S
C304 C292 1.349 . S
C304 H298 0.950 . S
C304 C305 1.327 . S
C305 H299 0.950 . S
C305 C304 1.327 . S
C305 C309 1.429 . S
C306 C289 1.574 . S
C306 H300 0.949 . S
C306 C310 1.368 . S
C307 C288 1.429 . S
C307 C301 1.429 . S
C307 C308 1.523 . S
C308 C289 1.368 . S
C308 C302 1.368 . S
C308 C307 1.523 . S
C309 C293 1.429 . S
C309 C305 1.429 . S
C309 C310 1.523 . S
C310 C294 1.368 . S
C310 C306 1.368 . S
C310 C309 1.523 . S
H311 C286 0.950 . S
H312 C288 0.950 . S
H313 C289 0.949 . S
H314 C291 0.950 . S
H315 C293 0.950 . S
C316 C317 1.349 . S
C316 C318 1.327 . S
C316 H341 0.950 . S
C317 C316 1.349 . S
C317 C333 1.349 1_545 S
C318 C316 1.327 . S
C318 C337 1.429 . S
C318 H342 0.950 . S
C319 C336 1.574 . S
C319 C338 1.368 1_565 S
C319 H343 0.949 . S
H320 C324 0.949 . S
C321 C322 1.357 1_655 S
C321 C323 1.327 1_545 S
C321 H344 0.941 1_645 S
C322 C321 1.357 1_455 S
C322 C334 1.330 1_455 S
C323 C321 1.327 1_565 S
C323 C339 1.429 1_565 S
C323 H345 0.950 . S
C324 H320 0.949 . S
C324 C332 1.574 . S
C324 C340 1.368 . S
H325 C333 0.950 . S
H326 C331 0.950 . S
H327 C332 0.949 . S
H328 C334 0.950 . S
H329 C335 0.950 . S
H330 C336 0.949 . S
C331 H326 0.950 . S
C331 C333 1.327 . S
C331 C337 1.429 1_565 S
C332 C324 1.574 . S
C332 H327 0.949 . S
C332 C338 1.368 . S
C333 C317 1.349 1_565 S
C333 H325 0.950 . S
C333 C331 1.327 . S
C334 C322 1.330 1_655 S
C334 H328 0.950 . S
C334 C335 1.327 . S
C335 H329 0.950 . S
C335 C334 1.327 . S
C335 C339 1.429 . S
C336 C319 1.574 . S
C336 H330 0.949 . S
C336 C340 1.368 1_565 S
C337 C318 1.429 . S
C337 C331 1.429 1_545 S
C337 C338 1.523 . S
C338 C319 1.368 1_545 S
C338 C332 1.368 . S
C338 C337 1.523 . S
C339 C323 1.429 1_545 S
C339 C335 1.429 . S
C339 C340 1.523 . S
C340 C324 1.368 . S
C340 C336 1.368 1_545 S
C340 C339 1.523 . S
H341 C316 0.950 . S
H342 C318 0.950 . S
H343 C319 0.949 . S
H344 C321 0.941 1_465 S
H345 C323 0.950 . S
C346 C347 1.349 . S
C346 C348 1.327 . S
C346 H371 0.950 1_455 S
C347 C346 1.349 . S
C347 C363 1.349 . S
C348 C346 1.327 . S
C348 C367 1.429 . S
C348 H372 0.950 1_455 S
C349 C366 1.574 . S
C349 C368 1.368 . S
C349 H373 0.949 . S
H350 C354 0.945 1_655 S
C351 C352 1.349 . S
C351 C353 1.327 . S
C351 H374 0.950 . S
C352 C351 1.349 . S
C352 C364 1.349 1_455 S
C353 C351 1.327 . S
C353 C369 1.429 . S
C353 H375 0.950 . S
C354 H350 0.945 1_455 S
C354 C362 1.574 . S
C354 C370 1.373 . S
H355 C363 0.950 . S
H356 C361 0.950 . S
H357 C362 0.949 1_655 S
H358 C364 0.950 . S
H359 C365 0.950 . S
H360 C366 0.949 . S
C361 H356 0.950 . S
C361 C363 1.327 . S
C361 C367 1.429 . S
C362 C354 1.574 . S
C362 H357 0.949 1_455 S
C362 C368 1.368 . S
C363 C347 1.349 . S
C363 H355 0.950 . S
C363 C361 1.327 . S
C364 C352 1.349 1_655 S
C364 H358 0.950 . S
C364 C365 1.327 . S
C365 H359 0.950 . S
C365 C364 1.327 . S
C365 C369 1.429 1_655 S
C366 C349 1.574 . S
C366 H360 0.949 . S
C366 C370 1.368 . S
C367 C348 1.429 . S
C367 C361 1.429 . S
C367 C368 1.523 . S
C368 C349 1.368 . S
C368 C362 1.368 . S
C368 C367 1.523 . S
C369 C353 1.429 . S
C369 C365 1.429 1_455 S
C369 C370 1.523 . S
C370 C354 1.373 . S
C370 C366 1.368 . S
C370 C369 1.523 . S
H371 C346 0.950 1_655 S
H372 C348 0.950 1_655 S
H373 C349 0.949 . S
H374 C351 0.950 . S
H375 C353 0.950 . S
C376 C377 1.349 . S
C376 C378 1.327 . S
C376 H401 0.950 . S
C377 C376 1.349 . S
C377 C393 1.349 1_545 S
C378 C376 1.327 . S
C378 C397 1.429 . S
C378 H402 0.950 . S
C379 C396 1.574 . S
C379 C398 1.368 1_565 S
C379 H403 0.949 . S
H380 C384 0.949 . S
C381 C382 1.349 1_565 S
C381 C383 1.327 . S
C381 H404 0.950 . S
C382 C381 1.349 1_545 S
C382 C394 1.349 . S
C383 C381 1.327 . S
C383 C399 1.429 1_565 S
C383 H405 0.950 . S
C384 H380 0.949 . S
C384 C392 1.574 . S
C384 C400 1.368 . S
H385 C393 0.950 . S
H386 C391 0.950 . S
H387 C392 0.949 . S
H388 C394 0.950 . S
H389 C395 0.950 . S
H390 C396 0.949 . S
C391 H386 0.950 . S
C391 C393 1.327 . S
C391 C397 1.429 1_565 S
C392 C384 1.574 . S
C392 H387 0.949 . S
C392 C398 1.368 . S
C393 C377 1.349 1_565 S
C393 H385 0.950 . S
C393 C391 1.327 . S
C394 C382 1.349 . S
C394 H388 0.950 . S
C394 C395 1.327 . S
C395 H389 0.950 . S
C395 C394 1.327 . S
C395 C399 1.429 . S
C396 C379 1.574 . S
C396 H390 0.949 . S
C396 C400 1.368 1_565 S
C397 C378 1.429 . S
C397 C391 1.429 1_545 S
C397 C398 1.523 . S
C398 C379 1.368 1_545 S
C398 C392 1.368 . S
C398 C397 1.523 . S
C399 C383 1.429 1_545 S
C399 C395 1.429 . S
C399 C400 1.523 . S
C400 C384 1.368 . S
C400 C396 1.368 1_545 S
C400 C399 1.523 . S
H401 C376 0.950 . S
H402 C378 0.950 . S
H403 C379 0.949 . S
H404 C381 0.950 . S
H405 C383 0.950 . S
C406 C407 1.349 . S
C406 C408 1.327 . S
C406 H431 0.950 . S
C407 C406 1.349 . S
C407 C423 1.349 . S
C408 C406 1.327 . S
C408 C427 1.429 . S
C408 H432 0.950 . S
C409 C426 1.574 . S
C409 C428 1.368 . S
C409 H433 0.949 . S
H410 C414 0.949 . S
C411 C412 1.349 . S
C411 C413 1.327 . S
C411 H434 0.950 . S
C412 C411 1.349 . S
C412 C424 1.349 . S
C413 C411 1.327 . S
C413 C429 1.429 . S
C413 H435 0.950 . S
C414 H410 0.949 . S
C414 C422 1.574 . S
C414 C430 1.368 . S
H415 C423 0.950 . S
H416 C421 0.950 . S
H417 C422 0.949 . S
H418 C424 0.950 . S
H419 C425 0.950 . S
H420 C426 0.949 . S
C421 H416 0.950 . S
C421 C423 1.327 . S
C421 C427 1.429 . S
C422 C414 1.574 . S
C422 H417 0.949 . S
C422 C428 1.368 . S
C423 C407 1.349 . S
C423 H415 0.950 . S
C423 C421 1.327 . S
C424 C412 1.349 . S
C424 H418 0.950 . S
C424 C425 1.327 . S
C425 H419 0.950 . S
C425 C424 1.327 . S
C425 C429 1.429 . S
C426 C409 1.574 . S
C426 H420 0.949 . S
C426 C430 1.368 . S
C427 C408 1.429 . S
C427 C421 1.429 . S
C427 C428 1.523 . S
C428 C409 1.368 . S
C428 C422 1.368 . S
C428 C427 1.523 . S
C429 C413 1.429 . S
C429 C425 1.429 . S
C429 C430 1.523 . S
C430 C414 1.368 . S
C430 C426 1.368 . S
C430 C429 1.523 . S
H431 C406 0.950 . S
H432 C408 0.950 . S
H433 C409 0.949 . S
H434 C411 0.950 . S
H435 C413 0.950 . S
C436 C437 1.349 1_565 S
C436 C438 1.327 . S
C436 H461 0.950 . S
C437 C436 1.349 1_545 S
C437 C453 1.349 . S
C438 C436 1.327 . S
C438 C457 1.429 1_565 S
C438 H462 0.950 . S
C439 C456 1.574 . S
C439 C458 1.368 . S
C439 H463 0.949 . S
H440 C444 0.949 . S
C441 C442 1.349 . S
C441 C443 1.327 . S
C441 H464 0.950 . S
C442 C441 1.349 . S
C442 C454 1.349 1_545 S
C443 C441 1.327 . S
C443 C459 1.429 . S
C443 H465 0.950 . S
C444 H440 0.949 . S
C444 C452 1.574 . S
C444 C460 1.368 1_565 S
H445 C453 0.950 . S
H446 C451 0.950 . S
H447 C452 0.949 . S
H448 C454 0.950 . S
H449 C455 0.950 . S
H450 C456 0.949 . S
C451 H446 0.950 . S
C451 C453 1.327 . S
C451 C457 1.429 . S
C452 C444 1.574 . S
C452 H447 0.949 . S
C452 C458 1.368 1_565 S
C453 C437 1.349 . S
C453 H445 0.950 . S
C453 C451 1.327 . S
C454 C442 1.349 1_565 S
C454 H448 0.950 . S
C454 C455 1.327 . S
C455 H449 0.950 . S
C455 C454 1.327 . S
C455 C459 1.429 1_565 S
C456 C439 1.574 . S
C456 H450 0.949 . S
C456 C460 1.368 . S
C457 C438 1.429 1_545 S
C457 C451 1.429 . S
C457 C458 1.523 . S
C458 C439 1.368 . S
C458 C452 1.368 1_545 S
C458 C457 1.523 . S
C459 C443 1.429 . S
C459 C455 1.429 1_545 S
C459 C460 1.523 . S
C460 C444 1.368 1_545 S
C460 C456 1.368 . S
C460 C459 1.523 . S
H461 C436 0.950 . S
H462 C438 0.950 . S
H463 C439 0.949 . S
H464 C441 0.950 . S
H465 C443 0.950 . S
C466 C467 1.349 . S
C466 C468 1.327 . S
C466 H491 0.950 . S
C467 C466 1.349 . S
C467 C483 1.349 . S
C468 C466 1.327 . S
C468 C487 1.429 . S
C468 H492 0.950 . S
C469 C486 1.574 . S
C469 C488 1.368 . S
C469 H493 0.949 . S
H470 C474 0.949 . S
C471 C472 1.349 . S
C471 C473 1.327 . S
C471 H494 0.950 . S
C472 C471 1.349 . S
C472 C484 1.349 . S
C473 C471 1.327 . S
C473 C489 1.429 . S
C473 H495 0.950 . S
C474 H470 0.949 . S
C474 C482 1.574 . S
C474 C490 1.368 . S
H475 C483 0.950 . S
H476 C481 0.950 . S
H477 C482 0.949 . S
H478 C484 0.950 . S
H479 C485 0.950 . S
H480 C486 0.949 . S
C481 H476 0.950 . S
C481 C483 1.327 . S
C481 C487 1.429 . S
C482 C474 1.574 . S
C482 H477 0.949 . S
C482 C488 1.368 . S
C483 C467 1.349 . S
C483 H475 0.950 . S
C483 C481 1.327 . S
C484 C472 1.349 . S
C484 H478 0.950 . S
C484 C485 1.327 . S
C485 H479 0.950 . S
C485 C484 1.327 . S
C485 C489 1.429 . S
C486 C469 1.574 . S
C486 H480 0.949 . S
C486 C490 1.368 . S
C487 C468 1.429 . S
C487 C481 1.429 . S
C487 C488 1.523 . S
C488 C469 1.368 . S
C488 C482 1.368 . S
C488 C487 1.523 . S
C489 C473 1.429 . S
C489 C485 1.429 . S
C489 C490 1.523 . S
C490 C474 1.368 . S
C490 C486 1.368 . S
C490 C489 1.523 . S
H491 C466 0.950 . S
H492 C468 0.950 . S
H493 C469 0.949 . S
H494 C471 0.950 . S
H495 C473 0.950 . S
C262 C233 1.272 . S
C257 C11 0.931 1_545 S
C292 C253 1.284 . S
C287 C115 1.054 . S
C322 C232 1.311 . S
C317 C1 1.050 . S
C352 C254 1.494 . S
C347 C125 0.928 . S
C382 C246 1.559 . S
C377 C55 1.178 . S
C412 C239 1.377 . S
C407 C143 1.117 . S
C442 C247 1.190 . S
C437 C29 1.110 . S
C467 C169 1.154 . S
C472 C240 1.591 . S
