# Generated by pormake.
# Topology ctn, (3,4)-cn, num edge types: 1
# Building blocks:
#     Node 0, Type 0, BuildingBlock: PAMTOO_clean_linker_0, # of connection points: 3
#     Node 1, Type 0, BuildingBlock: PAMTOO_clean_linker_0, # of connection points: 3
#     Node 2, Type 0, BuildingBlock: PAMTOO_clean_linker_0, # of connection points: 3
#     Node 3, Type 0, BuildingBlock: PAMTOO_clean_linker_0, # of connection points: 3
#     Node 4, Type 0, BuildingBlock: PAMTOO_clean_linker_0, # of connection points: 3
#     Node 5, Type 0, BuildingBlock: PAMTOO_clean_linker_0, # of connection points: 3
#     Node 6, Type 0, BuildingBlock: PAMTOO_clean_linker_0, # of connection points: 3
#     Node 7, Type 0, BuildingBlock: PAMTOO_clean_linker_0, # of connection points: 3
#     Node 8, Type 0, BuildingBlock: PAMTOO_clean_linker_0, # of connection points: 3
#     Node 9, Type 0, BuildingBlock: PAMTOO_clean_linker_0, # of connection points: 3
#     Node 10, Type 0, BuildingBlock: PAMTOO_clean_linker_0, # of connection points: 3
#     Node 11, Type 0, BuildingBlock: PAMTOO_clean_linker_0, # of connection points: 3
#     Node 12, Type 0, BuildingBlock: PAMTOO_clean_linker_0, # of connection points: 3
#     Node 13, Type 0, BuildingBlock: PAMTOO_clean_linker_0, # of connection points: 3
#     Node 14, Type 0, BuildingBlock: PAMTOO_clean_linker_0, # of connection points: 3
#     Node 15, Type 0, BuildingBlock: PAMTOO_clean_linker_0, # of connection points: 3
#     Node 16, Type 1, BuildingBlock: NAHDIM_clean_sbu_0, # of connection points: 4
#     Node 17, Type 1, BuildingBlock: NAHDIM_clean_sbu_0, # of connection points: 4
#     Node 18, Type 1, BuildingBlock: NAHDIM_clean_sbu_0, # of connection points: 4
#     Node 19, Type 1, BuildingBlock: NAHDIM_clean_sbu_0, # of connection points: 4
#     Node 20, Type 1, BuildingBlock: NAHDIM_clean_sbu_0, # of connection points: 4
#     Node 21, Type 1, BuildingBlock: NAHDIM_clean_sbu_0, # of connection points: 4
#     Node 22, Type 1, BuildingBlock: NAHDIM_clean_sbu_0, # of connection points: 4
#     Node 23, Type 1, BuildingBlock: NAHDIM_clean_sbu_0, # of connection points: 4
#     Node 24, Type 1, BuildingBlock: NAHDIM_clean_sbu_0, # of connection points: 4
#     Node 25, Type 1, BuildingBlock: NAHDIM_clean_sbu_0, # of connection points: 4
#     Node 26, Type 1, BuildingBlock: NAHDIM_clean_sbu_0, # of connection points: 4
#     Node 27, Type 1, BuildingBlock: NAHDIM_clean_sbu_0, # of connection points: 4
#     Edge 28, Type (0, 1), BuildingBlock: TEMPAE_clean_linker_10, # of connection points: 2
#     Edge 29, Type (0, 1), BuildingBlock: TEMPAE_clean_linker_10, # of connection points: 2
#     Edge 30, Type (0, 1), BuildingBlock: TEMPAE_clean_linker_10, # of connection points: 2
#     Edge 31, Type (0, 1), BuildingBlock: TEMPAE_clean_linker_10, # of connection points: 2
#     Edge 32, Type (0, 1), BuildingBlock: TEMPAE_clean_linker_10, # of connection points: 2
#     Edge 33, Type (0, 1), BuildingBlock: TEMPAE_clean_linker_10, # of connection points: 2
#     Edge 34, Type (0, 1), BuildingBlock: TEMPAE_clean_linker_10, # of connection points: 2
#     Edge 35, Type (0, 1), BuildingBlock: TEMPAE_clean_linker_10, # of connection points: 2
#     Edge 36, Type (0, 1), BuildingBlock: TEMPAE_clean_linker_10, # of connection points: 2
#     Edge 37, Type (0, 1), BuildingBlock: TEMPAE_clean_linker_10, # of connection points: 2
#     Edge 38, Type (0, 1), BuildingBlock: TEMPAE_clean_linker_10, # of connection points: 2
#     Edge 39, Type (0, 1), BuildingBlock: TEMPAE_clean_linker_10, # of connection points: 2
#     Edge 40, Type (0, 1), BuildingBlock: TEMPAE_clean_linker_10, # of connection points: 2
#     Edge 41, Type (0, 1), BuildingBlock: TEMPAE_clean_linker_10, # of connection points: 2
#     Edge 42, Type (0, 1), BuildingBlock: TEMPAE_clean_linker_10, # of connection points: 2
#     Edge 43, Type (0, 1), BuildingBlock: TEMPAE_clean_linker_10, # of connection points: 2
#     Edge 44, Type (0, 1), BuildingBlock: TEMPAE_clean_linker_10, # of connection points: 2
#     Edge 45, Type (0, 1), BuildingBlock: TEMPAE_clean_linker_10, # of connection points: 2
#     Edge 46, Type (0, 1), BuildingBlock: TEMPAE_clean_linker_10, # of connection points: 2
#     Edge 47, Type (0, 1), BuildingBlock: TEMPAE_clean_linker_10, # of connection points: 2
#     Edge 48, Type (0, 1), BuildingBlock: TEMPAE_clean_linker_10, # of connection points: 2
#     Edge 49, Type (0, 1), BuildingBlock: TEMPAE_clean_linker_10, # of connection points: 2
#     Edge 50, Type (0, 1), BuildingBlock: TEMPAE_clean_linker_10, # of connection points: 2
#     Edge 51, Type (0, 1), BuildingBlock: TEMPAE_clean_linker_10, # of connection points: 2
#     Edge 52, Type (0, 1), BuildingBlock: TEMPAE_clean_linker_10, # of connection points: 2
#     Edge 53, Type (0, 1), BuildingBlock: TEMPAE_clean_linker_10, # of connection points: 2
#     Edge 54, Type (0, 1), BuildingBlock: TEMPAE_clean_linker_10, # of connection points: 2
#     Edge 55, Type (0, 1), BuildingBlock: TEMPAE_clean_linker_10, # of connection points: 2
#     Edge 56, Type (0, 1), BuildingBlock: TEMPAE_clean_linker_10, # of connection points: 2
#     Edge 57, Type (0, 1), BuildingBlock: TEMPAE_clean_linker_10, # of connection points: 2
#     Edge 58, Type (0, 1), BuildingBlock: TEMPAE_clean_linker_10, # of connection points: 2
#     Edge 59, Type (0, 1), BuildingBlock: TEMPAE_clean_linker_10, # of connection points: 2
#     Edge 60, Type (0, 1), BuildingBlock: TEMPAE_clean_linker_10, # of connection points: 2
#     Edge 61, Type (0, 1), BuildingBlock: TEMPAE_clean_linker_10, # of connection points: 2
#     Edge 62, Type (0, 1), BuildingBlock: TEMPAE_clean_linker_10, # of connection points: 2
#     Edge 63, Type (0, 1), BuildingBlock: TEMPAE_clean_linker_10, # of connection points: 2
#     Edge 64, Type (0, 1), BuildingBlock: TEMPAE_clean_linker_10, # of connection points: 2
#     Edge 65, Type (0, 1), BuildingBlock: TEMPAE_clean_linker_10, # of connection points: 2
#     Edge 66, Type (0, 1), BuildingBlock: TEMPAE_clean_linker_10, # of connection points: 2
#     Edge 67, Type (0, 1), BuildingBlock: TEMPAE_clean_linker_10, # of connection points: 2
#     Edge 68, Type (0, 1), BuildingBlock: TEMPAE_clean_linker_10, # of connection points: 2
#     Edge 69, Type (0, 1), BuildingBlock: TEMPAE_clean_linker_10, # of connection points: 2
#     Edge 70, Type (0, 1), BuildingBlock: TEMPAE_clean_linker_10, # of connection points: 2
#     Edge 71, Type (0, 1), BuildingBlock: TEMPAE_clean_linker_10, # of connection points: 2
#     Edge 72, Type (0, 1), BuildingBlock: TEMPAE_clean_linker_10, # of connection points: 2
#     Edge 73, Type (0, 1), BuildingBlock: TEMPAE_clean_linker_10, # of connection points: 2
#     Edge 74, Type (0, 1), BuildingBlock: TEMPAE_clean_linker_10, # of connection points: 2
#     Edge 75, Type (0, 1), BuildingBlock: TEMPAE_clean_linker_10, # of connection points: 2
# Relax obj value: 0.063
# Max RMSD: 0.181
# Mean RMSD: 0.112
data_MOF--net-ctn--node1-NAHDIM_clean_sbu_0--node2-PAMTOO_clean_linker_0--edge1-TEMPAE_clean_linker_10
_symmetry_space_group_name_H-M    P1
_symmetry_Int_Tables_number       1
_symmetry_cell_setting            triclinic
loop_
_symmetry_equiv_pos_as_xyz
'x, y, z'
_cell_length_a     54.208891
_cell_length_b     54.888938
_cell_length_c     55.18024
_cell_angle_alpha  85.957199
_cell_angle_beta   92.398817
_cell_angle_gamma 99.992531
loop_
_atom_site_label
_atom_site_type_symbol
_atom_site_fract_x
_atom_site_fract_y
_atom_site_fract_z
_atom_type_partial_charge
H0 H 0.00242 0.07786 0.04804 0.0
H1 H 0.03629 0.01378 0.06917 0.0
H2 H 0.05241 0.05297 0.00023 0.0
H3 H 0.04242 0.99842 0.00032 0.0
C4 C 0.05212 0.99405 0.01787 0.0
O5 O 0.06092 0.01555 0.02927 0.0
H6 H 0.03829 0.98163 0.02949 0.0
C7 C 0.01453 0.06493 0.04418 0.0
C8 C 0.02705 0.06796 0.02208 0.0
C9 C 0.01764 0.04545 0.06138 0.0
C10 C 0.03336 0.02879 0.05612 0.0
C11 C 0.04574 0.03155 0.0341 0.0
C12 C 0.04272 0.05113 0.01722 0.0
H13 H 0.30063 0.6915 0.26655 0.0
H14 H 0.26216 0.70119 0.19728 0.0
H15 H 0.32323 0.75631 0.21892 0.0
H16 H 0.27743 0.77444 0.20058 0.0
C17 C 0.27175 0.76142 0.18597 0.0
O18 O 0.28797 0.74463 0.18606 0.0
H19 H 0.25245 0.75146 0.18972 0.0
C20 C 0.29829 0.70203 0.24952 0.0
C21 C 0.31471 0.72449 0.24452 0.0
C22 C 0.27909 0.69314 0.2327 0.0
C23 C 0.2764 0.70748 0.21086 0.0
C24 C 0.29196 0.73032 0.20626 0.0
C25 C 0.31126 0.73861 0.22283 0.0
H26 H 0.9705 0.50824 0.10118 0.0
H27 H 0.95282 0.47982 0.03051 0.0
H28 H 0.00581 0.44953 0.07812 0.0
H29 H 0.01972 0.46108 0.02696 0.0
C30 C 0.00109 0.4549 0.01804 0.0
O31 O 0.98324 0.44768 0.0354 0.0
H32 H 0.99624 0.47088 0.00638 0.0
C33 C 0.97319 0.49575 0.08754 0.0
C34 C 0.98977 0.47881 0.09253 0.0
C35 C 0.95952 0.49617 0.0653 0.0
C36 C 0.96279 0.47954 0.04794 0.0
C37 C 0.97955 0.46293 0.05258 0.0
C38 C 0.99278 0.4624 0.07487 0.0
H39 H 0.69986 0.83543 0.25378 0.0
H40 H 0.67664 0.76388 0.22481 0.0
H41 H 0.74351 0.81067 0.19981 0.0
H42 H 0.70769 0.78799 0.1637 0.0
C43 C 0.70499 0.76863 0.17192 0.0
O44 O 0.71416 0.76819 0.19565 0.0
H45 H 0.68457 0.76108 0.17186 0.0
C46 C 0.70272 0.82161 0.24157 0.0
C47 C 0.72383 0.826 0.22687 0.0
C48 C 0.6856 0.79923 0.24111 0.0
C49 C 0.68978 0.78111 0.22572 0.0
C50 C 0.71062 0.78537 0.21092 0.0
C51 C 0.72765 0.8076 0.21164 0.0
H52 H 0.09282 0.98118 0.51703 0.0
H53 H 0.02412 0.95656 0.47694 0.0
H54 H 0.07323 0.02239 0.45178 0.0
H55 H 0.02129 0.02677 0.44722 0.0
C56 C 0.01256 0.00721 0.44458 0.0
O57 O 0.03098 0.99289 0.44349 0.0
H58 H 0.00049 0.00031 0.46031 0.0
C59 C 0.08004 0.98357 0.50175 0.0
C60 C 0.0859 0.00389 0.48477 0.0
C61 C 0.0578 0.96632 0.49921 0.0
C62 C 0.04128 0.96969 0.47942 0.0
C63 C 0.04696 0.98984 0.46244 0.0
C64 C 0.06925 0.00676 0.46499 0.0
H65 H 0.19552 0.77562 0.80019 0.0
H66 H 0.21251 0.71457 0.76259 0.0
H67 H 0.25963 0.74188 0.82238 0.0
H68 H 0.28761 0.72889 0.78283 0.0
C69 C 0.27306 0.71475 0.77459 0.0
O70 O 0.25246 0.70964 0.78909 0.0
H71 H 0.26772 0.72252 0.7563 0.0
C72 C 0.20726 0.76191 0.7979 0.0
C73 C 0.22814 0.76077 0.81369 0.0
C74 C 0.20133 0.74537 0.77933 0.0
C75 C 0.2168 0.72774 0.77654 0.0
C76 C 0.23775 0.72665 0.79199 0.0
C77 C 0.24329 0.74295 0.8106 0.0
H78 H 0.94418 0.56541 0.51728 0.0
H79 H 0.97381 0.52596 0.46357 0.0
H80 H 0.01947 0.58947 0.49298 0.0
H81 H 0.03015 0.5863 0.44214 0.0
C82 C 0.02086 0.56684 0.43992 0.0
O83 O 0.01757 0.5546 0.46259 0.0
H84 H 0.00233 0.56707 0.43044 0.0
C85 C 0.95924 0.56339 0.50566 0.0
C86 C 0.982 0.58005 0.50685 0.0
C87 C 0.95602 0.5437 0.49023 0.0
C88 C 0.97595 0.54081 0.47583 0.0
C89 C 0.9987 0.55733 0.47684 0.0
C90 C 0.00181 0.57673 0.49248 0.0
H91 H 0.77522 0.80936 0.85038 0.0
H92 H 0.82714 0.77159 0.81719 0.0
H93 H 0.79889 0.83106 0.77718 0.0
H94 H 0.80439 0.7915 0.74674 0.0
C95 C 0.81867 0.78298 0.75784 0.0
O96 O 0.82821 0.79818 0.77608 0.0
H97 H 0.80927 0.76466 0.76576 0.0
C98 C 0.78622 0.80713 0.83498 0.0
C99 C 0.78516 0.82272 0.81371 0.0
C100 C 0.80117 0.78849 0.83647 0.0
C101 C 0.81533 0.78567 0.81642 0.0
C102 C 0.8145 0.80109 0.79523 0.0
C103 C 0.79956 0.81956 0.7939 0.0
H104 H 0.27393 0.3069 0.35451 0.0
H105 H 0.32676 0.27055 0.32084 0.0
H106 H 0.29559 0.32801 0.28061 0.0
H107 H 0.30255 0.28687 0.25091 0.0
C108 C 0.31752 0.27981 0.26232 0.0
O109 O 0.32633 0.2965 0.27954 0.0
H110 H 0.3093 0.26155 0.27128 0.0
C111 C 0.2845 0.30454 0.33886 0.0
C112 C 0.28267 0.31977 0.31743 0.0
C113 C 0.30043 0.28673 0.34042 0.0
C114 C 0.31463 0.28435 0.32025 0.0
C115 C 0.31278 0.2992 0.29885 0.0
C116 C 0.29694 0.31685 0.29746 0.0
H117 H 0.47626 0.01094 0.59666 0.0
H118 H 0.44966 0.97854 0.52944 0.0
H119 H 0.5107 0.95352 0.5696 0.0
H120 H 0.51691 0.96539 0.51659 0.0
C121 C 0.49775 0.95689 0.51032 0.0
O122 O 0.48281 0.94931 0.53001 0.0
H123 H 0.4898 0.97126 0.49875 0.0
C124 C 0.47708 0.99763 0.58324 0.0
C125 C 0.49534 0.98217 0.58598 0.0
C126 C 0.46042 0.99662 0.56292 0.0
C127 C 0.46237 0.97994 0.54515 0.0
C128 C 0.48071 0.9648 0.5475 0.0
C129 C 0.49694 0.96574 0.5679 0.0
H130 H 0.20273 0.34084 0.75509 0.0
H131 H 0.18426 0.26428 0.73788 0.0
H132 H 0.24638 0.31149 0.70432 0.0
H133 H 0.20234 0.27807 0.67568 0.0
C134 C 0.20758 0.26111 0.6854 0.0
O135 O 0.22005 0.26699 0.70712 0.0
H136 H 0.19006 0.24779 0.68922 0.0
C137 C 0.20635 0.32549 0.74529 0.0
C138 C 0.22676 0.32907 0.72972 0.0
C139 C 0.19065 0.30227 0.74836 0.0
C140 C 0.19573 0.28248 0.7356 0.0
C141 C 0.21567 0.28598 0.7197 0.0
C142 C 0.23111 0.30913 0.71679 0.0
H143 H 0.81049 0.18616 0.76189 0.0
H144 H 0.76641 0.20093 0.69734 0.0
H145 H 0.82273 0.25828 0.72382 0.0
H146 H 0.77424 0.27352 0.70836 0.0
C147 C 0.76875 0.26089 0.6934 0.0
O148 O 0.78743 0.24717 0.69079 0.0
H149 H 0.75097 0.24835 0.69823 0.0
C150 C 0.80592 0.19865 0.74694 0.0
C151 C 0.81929 0.22303 0.74478 0.0
C152 C 0.78668 0.19033 0.73001 0.0
C153 C 0.78093 0.20686 0.71081 0.0
C154 C 0.79377 0.23128 0.70882 0.0
C155 C 0.81301 0.23927 0.72559 0.0
H156 H 0.50337 0.57984 0.55373 0.0
H157 H 0.54076 0.51764 0.57201 0.0
H158 H 0.56191 0.56563 0.5089 0.0
H159 H 0.5565 0.5114 0.5035 0.0
C160 C 0.56481 0.50597 0.52145 0.0
O161 O 0.57053 0.52637 0.53516 0.0
H162 H 0.55077 0.49161 0.53086 0.0
C163 C 0.51698 0.56854 0.54957 0.0
C164 C 0.53214 0.57538 0.5293 0.0
C165 C 0.51992 0.54779 0.56513 0.0
C166 C 0.53827 0.53376 0.56027 0.0
C167 C 0.55316 0.54015 0.53991 0.0
C168 C 0.55021 0.56094 0.52457 0.0
H169 H 0.59401 0.46605 0.00756 0.0
H170 H 0.52429 0.4554 0.96614 0.0
H171 H 0.57781 0.52179 0.95309 0.0
H172 H 0.52512 0.5299 0.95225 0.0
C173 C 0.51575 0.51138 0.94666 0.0
O174 O 0.53362 0.49783 0.94091 0.0
H175 H 0.50465 0.50183 0.96218 0.0
C176 C 0.58181 0.47238 0.99331 0.0
C177 C 0.58904 0.49561 0.98085 0.0
C178 C 0.55846 0.45771 0.98826 0.0
C179 C 0.54232 0.46646 0.97042 0.0
C180 C 0.54932 0.48956 0.95796 0.0
C181 C 0.5726 0.50404 0.96308 0.0
H182 H 0.68311 0.26005 0.30747 0.0
H183 H 0.70326 0.20438 0.26429 0.0
H184 H 0.74936 0.22847 0.32587 0.0
H185 H 0.77724 0.22184 0.28234 0.0
C186 C 0.76378 0.20641 0.27468 0.0
O187 O 0.74381 0.19948 0.2898 0.0
H188 H 0.75711 0.21315 0.25648 0.0
C189 C 0.69539 0.24714 0.304 0.0
C190 C 0.71658 0.24589 0.3193 0.0
C191 C 0.69034 0.2324 0.28393 0.0
C192 C 0.70689 0.21629 0.27934 0.0
C193 C 0.7282 0.21517 0.29429 0.0
C194 C 0.73301 0.22987 0.31421 0.0
H195 H 0.45455 0.06725 0.02412 0.0
H196 H 0.47398 0.02566 0.96647 0.0
H197 H 0.52454 0.09001 0.98802 0.0
H198 H 0.52292 0.08573 0.93575 0.0
C199 C 0.51543 0.06557 0.93517 0.0
O200 O 0.51686 0.05426 0.95818 0.0
H201 H 0.49554 0.06367 0.9285 0.0
C202 C 0.46759 0.06437 0.01066 0.0
C203 C 0.49027 0.08103 0.00802 0.0
C204 C 0.46144 0.04429 0.99579 0.0
C205 C 0.47848 0.04078 0.97839 0.0
C206 C 0.50107 0.05731 0.97559 0.0
C207 C 0.50698 0.07733 0.99039 0.0
C208 C 0.19823 0.90731 0.99241 0.0
O209 O 0.19409 0.88383 0.98755 0.0
O210 O 0.24349 0.87873 0.9638 0.0
Zn211 Zn 0.24913 0.89947 0.99294 0.0
O212 O 0.28178 0.92337 0.9904 0.0
C213 C 0.26609 0.86241 0.02613 0.0
O214 O 0.28192 0.86191 0.00887 0.0
O215 O 0.2207 0.91832 0.99524 0.0
C216 C 0.29395 0.93102 0.00937 0.0
O217 O 0.2847 0.92358 0.03079 0.0
C218 C 0.26148 0.87563 0.95093 0.0
O219 O 0.28435 0.88653 0.95651 0.0
O220 O 0.2502 0.87697 0.02321 0.0
C221 C 0.17296 0.45174 0.3024 0.0
O222 O 0.1764 0.46924 0.31783 0.0
O223 O 0.12031 0.48746 0.30839 0.0
Zn224 Zn 0.13926 0.48236 0.27862 0.0
O225 O 0.16411 0.51333 0.26997 0.0
C226 C 0.09272 0.48011 0.24957 0.0
O227 O 0.08375 0.48628 0.26958 0.0
O228 O 0.1577 0.45323 0.28442 0.0
C229 C 0.15823 0.53459 0.27156 0.0
O230 O 0.13592 0.53629 0.27898 0.0
C231 C 0.13032 0.50096 0.32522 0.0
O232 O 0.15412 0.51094 0.32409 0.0
O233 O 0.1154 0.47692 0.24956 0.0
C234 C 0.83917 0.61483 0.02122 0.0
O235 O 0.83651 0.62241 0.99829 0.0
O236 O 0.80483 0.66271 0.9971 0.0
Zn237 Zn 0.79626 0.6387 0.02624 0.0
O238 O 0.76623 0.61397 0.0164 0.0
C239 C 0.79127 0.68035 0.05453 0.0
O240 O 0.80416 0.69343 0.03699 0.0
O241 O 0.82446 0.62019 0.03661 0.0
C242 C 0.75131 0.60213 0.03199 0.0
O243 O 0.75607 0.60552 0.05516 0.0
C244 C 0.7865 0.67112 0.98643 0.0
O245 O 0.76399 0.664 0.99509 0.0
O246 O 0.78647 0.65687 0.05405 0.0
C247 C 0.84603 0.05598 0.26276 0.0
O248 O 0.83985 0.03633 0.27769 0.0
O249 O 0.90248 0.02617 0.27874 0.0
Zn250 Zn 0.88115 0.02694 0.24801 0.0
O251 O 0.85573 0.9955 0.24764 0.0
C252 C 0.92535 0.02896 0.21861 0.0
O253 O 0.93703 0.02574 0.23962 0.0
O254 O 0.86335 0.0562 0.24788 0.0
C255 C 0.84568 0.98769 0.2278 0.0
O256 O 0.85189 0.00056 0.20733 0.0
C257 C 0.90953 0.00634 0.28741 0.0
O258 O 0.90311 0.98599 0.27579 0.0
O259 O 0.90212 0.03017 0.21813 0.0
C260 C 0.32131 0.09813 0.54066 0.0
O261 O 0.29826 0.08609 0.53846 0.0
O262 O 0.30369 0.16698 0.50479 0.0
Zn263 Zn 0.29591 0.14004 0.53151 0.0
O264 O 0.26547 0.1164 0.52065 0.0
C265 C 0.2975 0.17532 0.56899 0.0
O266 O 0.31782 0.18682 0.5582 0.0
O267 O 0.32517 0.12172 0.53871 0.0
C268 C 0.24551 0.12454 0.51405 0.0
O269 O 0.24534 0.14845 0.514 0.0
C270 C 0.303 0.16119 0.48284 0.0
O271 O 0.29866 0.13763 0.47828 0.0
O272 O 0.28609 0.15504 0.56117 0.0
C273 C 0.34476 0.55817 0.7605 0.0
O274 O 0.33225 0.53638 0.7678 0.0
O275 O 0.4056 0.52595 0.77989 0.0
Zn276 Zn 0.38304 0.52952 0.75038 0.0
O277 O 0.35698 0.49862 0.7486 0.0
C278 C 0.41201 0.5159 0.71239 0.0
O279 O 0.40577 0.49367 0.72315 0.0
O280 O 0.3666 0.55959 0.75235 0.0
C281 C 0.34535 0.49268 0.72882 0.0
O282 O 0.35023 0.50719 0.70902 0.0
C283 C 0.39825 0.52719 0.80127 0.0
O284 O 0.37529 0.53085 0.80422 0.0
O285 O 0.40429 0.53411 0.72078 0.0
C286 C 0.72021 0.43123 0.5013 0.0
O287 O 0.74262 0.44476 0.5031 0.0
O288 O 0.74155 0.37002 0.46511 0.0
Zn289 Zn 0.74787 0.39124 0.49385 0.0
O290 O 0.77956 0.41601 0.48839 0.0
C291 C 0.7346 0.35872 0.53695 0.0
O292 O 0.71157 0.36076 0.52985 0.0
O293 O 0.71818 0.40841 0.49732 0.0
C294 C 0.79318 0.42399 0.50644 0.0
O295 O 0.78594 0.41635 0.52853 0.0
C296 C 0.74792 0.34876 0.46564 0.0
O297 O 0.75871 0.34029 0.48548 0.0
O298 O 0.75273 0.36997 0.52438 0.0
C299 C 0.67546 0.95484 0.79906 0.0
O300 O 0.67889 0.97267 0.81418 0.0
O301 O 0.62147 0.98881 0.80493 0.0
Zn302 Zn 0.64175 0.98496 0.77585 0.0
O303 O 0.66757 0.01594 0.77143 0.0
C304 C 0.61581 0.99908 0.73108 0.0
O305 O 0.62813 0.02125 0.73525 0.0
O306 O 0.65982 0.95577 0.78134 0.0
C307 C 0.68224 0.01981 0.75368 0.0
O308 O 0.68077 0.00299 0.73763 0.0
C309 C 0.60912 0.00659 0.8031 0.0
O310 O 0.60996 0.0206 0.78276 0.0
O311 O 0.6188 0.98081 0.74579 0.0
C312 C 0.00821 0.21571 0.90742 0.0
O313 O 0.00619 0.21398 0.88376 0.0
O314 O 0.97667 0.25879 0.87065 0.0
Zn315 Zn 0.00681 0.26662 0.8932 0.0
O316 O 0.00386 0.29548 0.91325 0.0
C317 C 0.0394 0.28568 0.85323 0.0
O318 O 0.02036 0.29631 0.84543 0.0
O319 O 0.00867 0.2367 0.91595 0.0
C320 C 0.01689 0.31702 0.91026 0.0
O321 O 0.03347 0.32143 0.89311 0.0
C322 C 0.962 0.27399 0.86433 0.0
O323 O 0.96622 0.29608 0.87296 0.0
O324 O 0.03798 0.2728 0.87335 0.0
C325 C 0.51203 0.73432 0.43272 0.0
O326 O 0.51173 0.75436 0.44431 0.0
O327 O 0.4734 0.75863 0.36887 0.0
Zn328 Zn 0.50509 0.76638 0.38936 0.0
O329 O 0.50258 0.79422 0.41082 0.0
C330 C 0.53388 0.76765 0.34638 0.0
O331 O 0.5132 0.75381 0.33865 0.0
O332 O 0.50951 0.73534 0.40968 0.0
C333 C 0.51237 0.81657 0.40521 0.0
O334 O 0.5245 0.82179 0.38486 0.0
C335 C 0.4615 0.77516 0.3595 0.0
O336 O 0.46974 0.79851 0.36356 0.0
O337 O 0.5348 0.77553 0.36758 0.0
C338 C 0.02229 0.81996 0.62168 0.0
O339 O 0.02508 0.82281 0.64513 0.0
O340 O 0.98272 0.76815 0.65836 0.0
Zn341 Zn 0.01207 0.76778 0.6372 0.0
O342 O 0.00703 0.73829 0.61656 0.0
C343 C 0.04692 0.74833 0.67084 0.0
O344 O 0.02999 0.72816 0.66975 0.0
O345 O 0.01664 0.79822 0.61432 0.0
C346 C 0.99443 0.71699 0.62204 0.0
O347 O 0.98303 0.7129 0.64285 0.0
C348 C 0.96015 0.76425 0.65037 0.0
O349 O 0.95549 0.75913 0.62755 0.0
O350 O 0.04332 0.76785 0.65838 0.0
C351 C 0.51065 0.29943 0.09275 0.0
O352 O 0.49709 0.27953 0.08411 0.0
O353 O 0.47874 0.27154 0.15617 0.0
Zn354 Zn 0.50895 0.26825 0.13739 0.0
O355 O 0.50241 0.23798 0.11773 0.0
C356 C 0.53946 0.24541 0.17305 0.0
O357 O 0.5219 0.22603 0.16996 0.0
O358 O 0.51784 0.29886 0.11498 0.0
C359 C 0.52083 0.22971 0.1098 0.0
O360 O 0.54371 0.24104 0.11471 0.0
C361 C 0.46126 0.25355 0.16143 0.0
O362 O 0.46244 0.23152 0.15411 0.0
O363 O 0.53782 0.26574 0.16107 0.0
C364 C 0.23257 0.80327 0.82906 0.0
C365 C 0.2339 0.77804 0.83351 0.0
C366 C 0.23734 0.81966 0.84776 0.0
C367 C 0.24356 0.8106 0.87148 0.0
C368 C 0.24514 0.7852 0.87605 0.0
C369 C 0.24032 0.76923 0.857 0.0
C370 C 0.2356 0.84665 0.84216 0.0
C371 C 0.25165 0.77484 0.90113 0.0
C372 C 0.27666 0.85598 0.9161 0.0
C373 C 0.25681 0.85938 0.93031 0.0
C374 C 0.2726 0.84027 0.8968 0.0
C375 C 0.24811 0.82763 0.89161 0.0
C376 C 0.22796 0.83109 0.90577 0.0
C377 C 0.23254 0.84694 0.92493 0.0
C378 C 0.29454 0.83707 0.88206 0.0
C379 C 0.20157 0.81791 0.90077 0.0
H380 H 0.22796 0.81023 0.81086 0.0
H381 H 0.24108 0.7497 0.8606 0.0
H382 H 0.22109 0.85193 0.85338 0.0
H383 H 0.25367 0.85846 0.84691 0.0
H384 H 0.23085 0.85079 0.8227 0.0
H385 H 0.25255 0.75475 0.90155 0.0
H386 H 0.27001 0.78489 0.90761 0.0
H387 H 0.23745 0.77762 0.91411 0.0
H388 H 0.29547 0.86553 0.92009 0.0
H389 H 0.21708 0.84944 0.9358 0.0
H390 H 0.29098 0.84227 0.8626 0.0
H391 H 0.29686 0.81733 0.88338 0.0
H392 H 0.31236 0.8485 0.88822 0.0
H393 H 0.19553 0.8227 0.88183 0.0
H394 H 0.18795 0.82276 0.91334 0.0
H395 H 0.20094 0.79755 0.90258 0.0
C396 C 0.03928 0.56334 0.39974 0.0
C397 C 0.03679 0.55474 0.42417 0.0
C398 C 0.05436 0.55337 0.38435 0.0
C399 C 0.06732 0.53427 0.39363 0.0
C400 C 0.06485 0.52539 0.41829 0.0
C401 C 0.04975 0.53583 0.43334 0.0
C402 C 0.05665 0.56351 0.35823 0.0
C403 C 0.07834 0.50501 0.42879 0.0
C404 C 0.08962 0.49639 0.34648 0.0
C405 C 0.11472 0.50784 0.34421 0.0
C406 C 0.07416 0.50424 0.3631 0.0
C407 C 0.08398 0.52417 0.3776 0.0
C408 C 0.10946 0.53536 0.37583 0.0
C409 C 0.12454 0.52698 0.35926 0.0
C410 C 0.04715 0.49166 0.36468 0.0
C411 C 0.12059 0.5568 0.39082 0.0
H412 H 0.02947 0.57808 0.39272 0.0
H413 H 0.04821 0.52918 0.45226 0.0
H414 H 0.07651 0.57139 0.35454 0.0
H415 H 0.05077 0.54835 0.34584 0.0
H416 H 0.0451 0.57816 0.35378 0.0
H417 H 0.07375 0.49955 0.44807 0.0
H418 H 0.07337 0.48843 0.41803 0.0
H419 H 0.09889 0.51117 0.42772 0.0
H420 H 0.0819 0.48152 0.33499 0.0
H421 H 0.14389 0.53599 0.35761 0.0
H422 H 0.03465 0.50499 0.35842 0.0
H423 H 0.04267 0.48552 0.38382 0.0
H424 H 0.04289 0.47534 0.35345 0.0
H425 H 0.11108 0.57287 0.38581 0.0
H426 H 0.14101 0.56267 0.38815 0.0
H427 H 0.11752 0.5517 0.41041 0.0
C428 C 0.79952 0.74599 0.85683 0.0
C429 C 0.80148 0.77161 0.85871 0.0
C430 C 0.79856 0.72966 0.87765 0.0
C431 C 0.79965 0.73918 0.90093 0.0
C432 C 0.80225 0.76507 0.90297 0.0
C433 C 0.80308 0.78098 0.88184 0.0
C434 C 0.79564 0.70215 0.87471 0.0
C435 C 0.80363 0.77594 0.92748 0.0
C436 C 0.7694 0.69653 0.95254 0.0
C437 C 0.79018 0.68868 0.9647 0.0
C438 C 0.77228 0.71298 0.93184 0.0
C439 C 0.79656 0.72193 0.92306 0.0
C440 C 0.81766 0.71421 0.93529 0.0
C441 C 0.81422 0.69762 0.95595 0.0
C442 C 0.74929 0.72071 0.91928 0.0
C443 C 0.84383 0.72344 0.92649 0.0
H444 H 0.798 0.73861 0.83901 0.0
H445 H 0.80496 0.80079 0.8834 0.0
H446 H 0.81055 0.6943 0.88537 0.0
H447 H 0.77739 0.69267 0.88189 0.0
H448 H 0.79646 0.69784 0.85541 0.0
H449 H 0.80704 0.79653 0.92598 0.0
H450 H 0.78581 0.76937 0.93695 0.0
H451 H 0.81882 0.76956 0.93901 0.0
H452 H 0.75075 0.68973 0.95913 0.0
H453 H 0.83037 0.69168 0.96526 0.0
H454 H 0.74788 0.71539 0.90017 0.0
H455 H 0.75083 0.74115 0.91879 0.0
H456 H 0.73175 0.71211 0.92844 0.0
H457 H 0.8453 0.71808 0.90766 0.0
H458 H 0.85829 0.71593 0.93821 0.0
H459 H 0.84798 0.74398 0.92605 0.0
C460 C 0.00903 0.01447 0.39915 0.0
C461 C 0.99731 0.00642 0.42114 0.0
C462 C 0.99515 0.0142 0.37709 0.0
C463 C 0.96891 0.00591 0.37713 0.0
C464 C 0.957 0.99779 0.39934 0.0
C465 C 0.97137 0.9981 0.4211 0.0
C466 C 0.00853 0.02287 0.35378 0.0
C467 C 0.92904 0.98899 0.40012 0.0
C468 C 0.92949 0.02726 0.32393 0.0
C469 C 0.92488 0.00625 0.31025 0.0
C470 C 0.94378 0.02739 0.34573 0.0
C471 C 0.95385 0.00605 0.35399 0.0
C472 C 0.94942 0.98484 0.34021 0.0
C473 C 0.93491 0.98516 0.31854 0.0
C474 C 0.94798 0.05032 0.36001 0.0
C475 C 0.96 0.9618 0.34836 0.0
H476 H 0.02909 0.02099 0.39929 0.0
H477 H 0.96231 0.99196 0.43813 0.0
H478 H 0.00502 0.00799 0.34083 0.0
H479 H 0.00112 0.03905 0.34504 0.0
H480 H 0.02909 0.02823 0.35683 0.0
H481 H 0.9227 0.98316 0.41885 0.0
H482 H 0.91903 0.00401 0.39271 0.0
H483 H 0.92351 0.97312 0.38852 0.0
H484 H 0.92176 0.04363 0.3177 0.0
H485 H 0.93151 0.96888 0.30806 0.0
H486 H 0.96835 0.05737 0.36219 0.0
H487 H 0.94053 0.04569 0.3785 0.0
H488 H 0.93882 0.06536 0.35111 0.0
H489 H 0.98071 0.96637 0.35031 0.0
H490 H 0.95508 0.94697 0.33542 0.0
H491 H 0.95284 0.95448 0.36645 0.0
C492 C 0.22241 0.25416 0.64424 0.0
C493 C 0.22356 0.24934 0.66949 0.0
C494 C 0.23569 0.24217 0.62883 0.0
C495 C 0.25042 0.22484 0.63894 0.0
C496 C 0.25175 0.21995 0.66447 0.0
C497 C 0.23805 0.23205 0.67943 0.0
C498 C 0.23351 0.24766 0.60169 0.0
C499 C 0.2673 0.20164 0.67591 0.0
C500 C 0.26267 0.17663 0.59697 0.0
C501 C 0.28651 0.18695 0.58846 0.0
C502 C 0.25098 0.18848 0.61384 0.0
C503 C 0.26351 0.21111 0.62262 0.0
C504 C 0.28793 0.22119 0.6148 0.0
C505 C 0.2991 0.20905 0.59773 0.0
C506 C 0.22487 0.17718 0.62162 0.0
C507 C 0.30197 0.24515 0.62396 0.0
H508 H 0.2108 0.26712 0.63649 0.0
H509 H 0.23851 0.22785 0.69892 0.0
H510 H 0.25237 0.25399 0.59417 0.0
H511 H 0.22512 0.23051 0.59281 0.0
H512 H 0.22179 0.26209 0.59679 0.0
H513 H 0.26749 0.20098 0.69609 0.0
H514 H 0.25977 0.18282 0.66999 0.0
H515 H 0.28688 0.20655 0.66979 0.0
H516 H 0.25276 0.15957 0.58994 0.0
H517 H 0.31757 0.2171 0.59135 0.0
H518 H 0.21162 0.18984 0.61557 0.0
H519 H 0.22432 0.17473 0.64173 0.0
H520 H 0.21818 0.15892 0.61399 0.0
H521 H 0.29199 0.2606 0.6178 0.0
H522 H 0.32144 0.24964 0.61742 0.0
H523 H 0.30264 0.24408 0.64413 0.0
C524 C 0.51482 0.53656 0.60961 0.0
C525 C 0.504 0.54116 0.5866 0.0
C526 C 0.50006 0.53166 0.63027 0.0
C527 C 0.47386 0.53106 0.62776 0.0
C528 C 0.46277 0.53506 0.60446 0.0
C529 C 0.47801 0.54022 0.58417 0.0
C530 C 0.51258 0.52774 0.65486 0.0
C531 C 0.43486 0.53424 0.601 0.0
C532 C 0.43254 0.49937 0.67876 0.0
C533 C 0.42785 0.51971 0.69078 0.0
C534 C 0.44743 0.50277 0.65817 0.0
C535 C 0.45811 0.52706 0.64959 0.0
C536 C 0.4536 0.54765 0.66175 0.0
C537 C 0.4384 0.54374 0.68211 0.0
C538 C 0.45158 0.48038 0.64549 0.0
C539 C 0.46487 0.57384 0.65329 0.0
H540 H 0.53494 0.5375 0.61153 0.0
H541 H 0.4696 0.54351 0.56633 0.0
H542 H 0.50964 0.54241 0.66674 0.0
H543 H 0.50403 0.50969 0.6638 0.0
H544 H 0.53305 0.52811 0.65362 0.0
H545 H 0.42907 0.5366 0.58154 0.0
H546 H 0.42462 0.51631 0.60875 0.0
H547 H 0.42904 0.54912 0.61087 0.0
H548 H 0.42436 0.48076 0.68529 0.0
H549 H 0.43497 0.55955 0.69136 0.0
H550 H 0.47191 0.47973 0.64526 0.0
H551 H 0.44473 0.48177 0.62629 0.0
H552 H 0.44185 0.46275 0.65438 0.0
H553 H 0.48558 0.5758 0.65311 0.0
H554 H 0.45994 0.58779 0.66504 0.0
H555 H 0.45825 0.57804 0.63441 0.0
C556 C 0.75917 0.26308 0.64833 0.0
C557 C 0.76433 0.27533 0.66987 0.0
C558 C 0.75436 0.27612 0.62632 0.0
C559 C 0.75437 0.30194 0.62599 0.0
C560 C 0.75934 0.31434 0.64778 0.0
C561 C 0.76426 0.30087 0.66948 0.0
C562 C 0.74924 0.26227 0.60345 0.0
C563 C 0.75935 0.34183 0.64818 0.0
C564 C 0.76414 0.34092 0.56643 0.0
C565 C 0.73954 0.34377 0.55948 0.0
C566 C 0.76919 0.32716 0.58791 0.0
C567 C 0.7492 0.31604 0.60286 0.0
C568 C 0.72432 0.3187 0.5959 0.0
C569 C 0.71978 0.3325 0.57427 0.0
C570 C 0.79596 0.32464 0.59467 0.0
C571 C 0.70252 0.30715 0.61142 0.0
H572 H 0.75892 0.24326 0.64876 0.0
H573 H 0.76795 0.31029 0.6862 0.0
H574 H 0.73038 0.2641 0.59572 0.0
H575 H 0.76304 0.27043 0.58956 0.0
H576 H 0.75019 0.24225 0.60676 0.0
H577 H 0.76348 0.34865 0.66664 0.0
H578 H 0.77354 0.35223 0.63566 0.0
H579 H 0.74083 0.34609 0.64166 0.0
H580 H 0.77953 0.34951 0.5551 0.0
H581 H 0.70073 0.3346 0.56905 0.0
H582 H 0.79773 0.30477 0.59687 0.0
H583 H 0.80146 0.33273 0.61238 0.0
H584 H 0.80932 0.33402 0.58083 0.0
H585 H 0.70185 0.28683 0.614 0.0
H586 H 0.68427 0.31072 0.60331 0.0
H587 H 0.705 0.31462 0.6297 0.0
C588 C 0.53834 0.98245 0.60487 0.0
C589 C 0.5129 0.98342 0.60751 0.0
C590 C 0.55518 0.98399 0.62495 0.0
C591 C 0.54643 0.98675 0.64825 0.0
C592 C 0.52075 0.98753 0.6511 0.0
C593 C 0.50429 0.98578 0.63073 0.0
C594 C 0.58243 0.98306 0.62117 0.0
C595 C 0.51072 0.99049 0.67565 0.0
C596 C 0.58594 0.97198 0.70423 0.0
C597 C 0.59821 0.99569 0.7098 0.0
C598 C 0.56909 0.96875 0.68419 0.0
C599 C 0.56432 0.98973 0.66947 0.0
C600 C 0.57664 0.01368 0.67502 0.0
C601 C 0.59347 0.01636 0.69505 0.0
C602 C 0.55639 0.94291 0.67875 0.0
C603 C 0.57197 0.03652 0.65984 0.0
H604 H 0.54523 0.98095 0.58697 0.0
H605 H 0.4846 0.98616 0.633 0.0
H606 H 0.59419 0.00081 0.62595 0.0
H607 H 0.58855 0.96814 0.63335 0.0
H608 H 0.58602 0.97976 0.6021 0.0
H609 H 0.49017 0.99027 0.67489 0.0
H610 H 0.51486 0.97538 0.6888 0.0
H611 H 0.52016 0.00825 0.68277 0.0
H612 H 0.58951 0.95591 0.7155 0.0
H613 H 0.6028 0.03476 0.69922 0.0
H614 H 0.56081 0.93888 0.66015 0.0
H615 H 0.53576 0.94151 0.67928 0.0
H616 H 0.56224 0.92853 0.69186 0.0
H617 H 0.57685 0.03516 0.64071 0.0
H618 H 0.58302 0.05382 0.66661 0.0
H619 H 0.55179 0.03789 0.65981 0.0
C620 C 0.83664 0.22573 0.78752 0.0
C621 C 0.8398 0.23147 0.76255 0.0
C622 C 0.85608 0.23308 0.80445 0.0
C623 C 0.87927 0.24641 0.79619 0.0
C624 C 0.88249 0.25247 0.77103 0.0
C625 C 0.86269 0.24497 0.75451 0.0
C626 C 0.85189 0.22641 0.83115 0.0
C627 C 0.90699 0.26654 0.76151 0.0
C628 C 0.9237 0.2831 0.84087 0.0
C629 C 0.94068 0.26691 0.84709 0.0
C630 C 0.90355 0.27664 0.8244 0.0
C631 C 0.90037 0.25349 0.81383 0.0
C632 C 0.91742 0.23706 0.82005 0.0
C633 C 0.93732 0.24395 0.83663 0.0
C634 C 0.88568 0.29459 0.81827 0.0
C635 C 0.91469 0.21224 0.80911 0.0
H636 H 0.81886 0.2156 0.79384 0.0
H637 H 0.8653 0.24923 0.73521 0.0
H638 H 0.86535 0.21444 0.83846 0.0
H639 H 0.85536 0.24341 0.8414 0.0
H640 H 0.83256 0.2165 0.83464 0.0
H641 H 0.90625 0.27032 0.74147 0.0
H642 H 0.91199 0.28445 0.77016 0.0
H643 H 0.92223 0.25578 0.76631 0.0
H644 H 0.92612 0.30086 0.84888 0.0
H645 H 0.95036 0.23132 0.84128 0.0
H646 H 0.86631 0.28565 0.82274 0.0
H647 H 0.88571 0.2998 0.79847 0.0
H648 H 0.89061 0.31175 0.82823 0.0
H649 H 0.89617 0.20098 0.81344 0.0
H650 H 0.92955 0.20161 0.81584 0.0
H651 H 0.91548 0.21492 0.78902 0.0
C652 C 0.51879 0.92159 0.50001 0.0
C653 C 0.49917 0.93506 0.49571 0.0
C654 C 0.52073 0.90164 0.48602 0.0
C655 C 0.50243 0.8949 0.4675 0.0
C656 C 0.48211 0.90798 0.46365 0.0
C657 C 0.48068 0.92787 0.47789 0.0
C658 C 0.54259 0.88808 0.49076 0.0
C659 C 0.46213 0.90124 0.44422 0.0
C660 C 0.52067 0.86116 0.41498 0.0
C661 C 0.50988 0.83652 0.42126 0.0
C662 C 0.5184 0.8803 0.42989 0.0
C663 C 0.50498 0.8747 0.45162 0.0
C664 C 0.49406 0.84987 0.4581 0.0
C665 C 0.49664 0.83108 0.44285 0.0
C666 C 0.53034 0.90654 0.42236 0.0
C667 C 0.4796 0.84318 0.48112 0.0
H668 H 0.53284 0.92694 0.5141 0.0
H669 H 0.46529 0.9381 0.4749 0.0
H670 H 0.53573 0.86797 0.49447 0.0
H671 H 0.55415 0.89018 0.47438 0.0
H672 H 0.55472 0.89508 0.50638 0.0
H673 H 0.44708 0.91264 0.44416 0.0
H674 H 0.47066 0.90384 0.42609 0.0
H675 H 0.45356 0.8814 0.44692 0.0
H676 H 0.53093 0.86557 0.39835 0.0
H677 H 0.48824 0.8121 0.44787 0.0
H678 H 0.544 0.91401 0.43667 0.0
H679 H 0.51584 0.91859 0.42033 0.0
H680 H 0.5402 0.9078 0.40495 0.0
H681 H 0.4918 0.84884 0.49711 0.0
H682 H 0.47228 0.82299 0.48358 0.0
H683 H 0.4636 0.85336 0.48083 0.0
C684 C 0.14595 0.28435 0.75788 0.0
C685 C 0.16883 0.2989 0.76457 0.0
C686 C 0.12503 0.28164 0.77262 0.0
C687 C 0.12686 0.2941 0.79439 0.0
C688 C 0.14987 0.3087 0.80135 0.0
C689 C 0.17062 0.31073 0.7865 0.0
C690 C 0.10088 0.26565 0.76474 0.0
C691 C 0.1525 0.32243 0.82435 0.0
C692 C 0.06635 0.3066 0.81952 0.0
C693 C 0.06202 0.28817 0.83852 0.0
C694 C 0.08755 0.30891 0.80519 0.0
C695 C 0.10457 0.29214 0.80973 0.0
C696 C 0.10025 0.27345 0.82884 0.0
C697 C 0.07914 0.27182 0.84314 0.0
C698 C 0.09173 0.32933 0.78522 0.0
C699 C 0.11777 0.25499 0.834 0.0
H700 H 0.14421 0.27542 0.74085 0.0
H701 H 0.1883 0.3216 0.79212 0.0
H702 H 0.09449 0.2513 0.77937 0.0
H703 H 0.086 0.27715 0.76147 0.0
H704 H 0.10287 0.25629 0.74789 0.0
H705 H 0.17165 0.33315 0.82709 0.0
H706 H 0.13887 0.3354 0.82374 0.0
H707 H 0.14814 0.30916 0.84032 0.0
H708 H 0.05326 0.31936 0.81593 0.0
H709 H 0.07581 0.25743 0.85769 0.0
H710 H 0.0919 0.32123 0.76738 0.0
H711 H 0.11027 0.34118 0.78804 0.0
H712 H 0.07705 0.34121 0.78441 0.0
H713 H 0.11885 0.24461 0.81764 0.0
H714 H 0.11168 0.24149 0.84945 0.0
H715 H 0.13696 0.26481 0.83822 0.0
C716 C 0.55058 0.61463 0.50581 0.0
C717 C 0.52937 0.59791 0.51356 0.0
C718 C 0.5482 0.63663 0.49201 0.0
C719 C 0.52403 0.64203 0.48584 0.0
C720 C 0.50254 0.62502 0.49323 0.0
C721 C 0.50547 0.60315 0.50697 0.0
C722 C 0.57156 0.65431 0.48444 0.0
C723 C 0.47645 0.63007 0.48691 0.0
C724 C 0.51702 0.70927 0.47177 0.0
C725 C 0.51525 0.71075 0.44629 0.0
C726 C 0.51995 0.68703 0.48486 0.0
C727 C 0.52119 0.66576 0.47216 0.0
C728 C 0.51951 0.66713 0.44645 0.0
C729 C 0.51653 0.68959 0.43383 0.0
C730 C 0.52161 0.68626 0.51228 0.0
C731 C 0.52081 0.64484 0.43229 0.0
H732 H 0.5691 0.61083 0.51108 0.0
H733 H 0.489 0.59012 0.51259 0.0
H734 H 0.57119 0.6582 0.46444 0.0
H735 H 0.57225 0.67223 0.49279 0.0
H736 H 0.58894 0.64694 0.48991 0.0
H737 H 0.46169 0.61469 0.49356 0.0
H738 H 0.4737 0.64733 0.49497 0.0
H739 H 0.47394 0.63299 0.46692 0.0
H740 H 0.51604 0.7255 0.48156 0.0
H741 H 0.51522 0.69055 0.41414 0.0
H742 H 0.5395 0.68061 0.51895 0.0
H743 H 0.50619 0.67221 0.51993 0.0
H744 H 0.52048 0.70446 0.5194 0.0
H745 H 0.5387 0.63808 0.43674 0.0
H746 H 0.51941 0.64903 0.41234 0.0
H747 H 0.5054 0.62952 0.43753 0.0
C748 C 0.85019 0.75812 0.74462 0.0
C749 C 0.83957 0.77971 0.74192 0.0
C750 C 0.86981 0.75499 0.72993 0.0
C751 C 0.8792 0.77408 0.71239 0.0
C752 C 0.86877 0.7961 0.70991 0.0
C753 C 0.84908 0.79866 0.72475 0.0
C754 C 0.88044 0.73126 0.73314 0.0
C755 C 0.87842 0.81696 0.69159 0.0
C756 C 0.94462 0.77611 0.68923 0.0
C757 C 0.93944 0.76619 0.66645 0.0
C758 C 0.9252 0.77876 0.70438 0.0
C759 C 0.89999 0.77106 0.69668 0.0
C760 C 0.89463 0.76073 0.67385 0.0
C761 C 0.91442 0.75853 0.65896 0.0
C762 C 0.93167 0.79005 0.7285 0.0
C763 C 0.86798 0.75208 0.66513 0.0
H764 H 0.84304 0.74362 0.75816 0.0
H765 H 0.84103 0.81548 0.72297 0.0
H766 H 0.87855 0.72195 0.71579 0.0
H767 H 0.90073 0.73544 0.738 0.0
H768 H 0.87093 0.71817 0.74749 0.0
H769 H 0.86841 0.83294 0.69208 0.0
H770 H 0.89871 0.82351 0.69512 0.0
H771 H 0.87629 0.81022 0.673 0.0
H772 H 0.9639 0.78217 0.69514 0.0
H773 H 0.91025 0.75075 0.64143 0.0
H774 H 0.92365 0.77692 0.7435 0.0
H775 H 0.92329 0.80705 0.7291 0.0
H776 H 0.95223 0.79495 0.73188 0.0
H777 H 0.85826 0.73797 0.67848 0.0
H778 H 0.86699 0.74396 0.64716 0.0
H779 H 0.85759 0.76787 0.66367 0.0
C780 C 0.02768 0.93786 0.52608 0.0
C781 C 0.05194 0.94485 0.5172 0.0
C782 C 0.02201 0.91775 0.54325 0.0
C783 C 0.04106 0.90432 0.55174 0.0
C784 C 0.06557 0.91126 0.54284 0.0
C785 C 0.07069 0.93141 0.52566 0.0
C786 C 0.99567 0.91089 0.55235 0.0
C787 C 0.08636 0.89732 0.55138 0.0
C788 C 0.03382 0.86568 0.61174 0.0
C789 C 0.02632 0.84169 0.60389 0.0
C790 C 0.0384 0.8863 0.59497 0.0
C791 C 0.03537 0.88282 0.56977 0.0
C792 C 0.02748 0.8587 0.56174 0.0
C793 C 0.02307 0.83843 0.57888 0.0
C794 C 0.0468 0.91176 0.6042 0.0
C795 C 0.02401 0.85426 0.53501 0.0
H796 H 0.01319 0.94836 0.51983 0.0
H797 H 0.08938 0.93649 0.51861 0.0
H798 H 0.98783 0.89148 0.54843 0.0
H799 H 0.99587 0.91197 0.57236 0.0
H800 H 0.98301 0.92319 0.5439 0.0
H801 H 0.10445 0.90526 0.54287 0.0
H802 H 0.08901 0.89762 0.57141 0.0
H803 H 0.08124 0.87762 0.54704 0.0
H804 H 0.03636 0.86838 0.63101 0.0
H805 H 0.01722 0.81998 0.57263 0.0
H806 H 0.03382 0.92436 0.59719 0.0
H807 H 0.06565 0.91973 0.59739 0.0
H808 H 0.04762 0.91141 0.62437 0.0
H809 H 0.01043 0.86544 0.52639 0.0
H810 H 0.01717 0.83444 0.53178 0.0
H811 H 0.04205 0.86031 0.52578 0.0
C812 C 0.17991 0.74342 0.73811 0.0
C813 C 0.17887 0.74635 0.76309 0.0
C814 C 0.15875 0.74399 0.72266 0.0
C815 C 0.13605 0.74776 0.73238 0.0
C816 C 0.13492 0.75095 0.75752 0.0
C817 C 0.15629 0.75009 0.77258 0.0
C818 C 0.16064 0.74044 0.69595 0.0
C819 C 0.11106 0.75506 0.76855 0.0
C820 C 0.0868 0.77029 0.68959 0.0
C821 C 0.06985 0.74826 0.6864 0.0
C822 C 0.10845 0.77041 0.70449 0.0
C823 C 0.11334 0.74795 0.71635 0.0
C824 C 0.0964 0.72563 0.71308 0.0
C825 C 0.07483 0.72607 0.69821 0.0
C826 C 0.12602 0.7946 0.70768 0.0
C827 C 0.10105 0.70128 0.72532 0.0
H828 H 0.19736 0.74087 0.73057 0.0
H829 H 0.1552 0.75197 0.7919 0.0
H830 H 0.14692 0.72408 0.69069 0.0
H831 H 0.15591 0.75679 0.68493 0.0
H832 H 0.17967 0.73774 0.69126 0.0
H833 H 0.1135 0.75795 0.78829 0.0
H834 H 0.10455 0.77148 0.75921 0.0
H835 H 0.09606 0.73885 0.76597 0.0
H836 H 0.08307 0.78753 0.68057 0.0
H837 H 0.06188 0.70894 0.69579 0.0
H838 H 0.14503 0.79321 0.70183 0.0
H839 H 0.12769 0.79859 0.72717 0.0
H840 H 0.11958 0.81044 0.69711 0.0
H841 H 0.11938 0.69734 0.71994 0.0
H842 H 0.08621 0.68553 0.72064 0.0
H843 H 0.10195 0.7024 0.74534 0.0
C844 C 0.00608 0.60597 0.53848 0.0
C845 C 0.98481 0.6008 0.52315 0.0
C846 C 0.0083 0.62487 0.55474 0.0
C847 C 0.98886 0.63901 0.55549 0.0
C848 C 0.96754 0.63413 0.53975 0.0
C849 C 0.96575 0.61505 0.52382 0.0
C850 C 0.03126 0.62947 0.57133 0.0
C851 C 0.94656 0.64898 0.5398 0.0
C852 C 0.98182 0.67261 0.61206 0.0
C853 C 0.99306 0.69695 0.60512 0.0
C854 C 0.98061 0.6535 0.59619 0.0
C855 C 0.99071 0.6589 0.57278 0.0
C856 C 0.00208 0.68341 0.56567 0.0
C857 C 0.00318 0.70211 0.58195 0.0
C858 C 0.96845 0.62754 0.60444 0.0
C859 C 0.01289 0.68993 0.54079 0.0
H860 H 0.02073 0.59485 0.53816 0.0
H861 H 0.94943 0.61131 0.51175 0.0
H862 H 0.04085 0.64897 0.56848 0.0
H863 H 0.02566 0.62664 0.59058 0.0
H864 H 0.0448 0.61703 0.56831 0.0
H865 H 0.93145 0.64307 0.52615 0.0
H866 H 0.93829 0.64697 0.55804 0.0
H867 H 0.95399 0.66896 0.53593 0.0
H868 H 0.97405 0.66844 0.62996 0.0
H869 H 0.01187 0.72087 0.5764 0.0
H870 H 0.98185 0.61455 0.6032 0.0
H871 H 0.95208 0.62123 0.59232 0.0
H872 H 0.96205 0.62629 0.62342 0.0
H873 H 0.02749 0.67861 0.53799 0.0
H874 H 0.02132 0.70984 0.53817 0.0
H875 H 0.998 0.68556 0.52657 0.0
C876 C 0.73277 0.87233 0.22773 0.0
C877 C 0.74166 0.84984 0.22723 0.0
C878 C 0.74937 0.89498 0.22796 0.0
C879 C 0.7755 0.89518 0.22757 0.0
C880 C 0.78461 0.87256 0.22705 0.0
C881 C 0.76759 0.85017 0.22693 0.0
C882 C 0.73895 0.91872 0.22852 0.0
C883 C 0.81235 0.87203 0.22663 0.0
C884 C 0.81773 0.95465 0.20575 0.0
C885 C 0.82749 0.96418 0.22776 0.0
C886 C 0.80077 0.93222 0.20543 0.0
C887 C 0.79332 0.91905 0.22765 0.0
C888 C 0.80298 0.92863 0.24992 0.0
C889 C 0.81998 0.95105 0.24972 0.0
C890 C 0.79091 0.92255 0.1813 0.0
C891 C 0.79538 0.91515 0.27399 0.0
H892 H 0.71276 0.87226 0.2276 0.0
H893 H 0.77461 0.83285 0.22686 0.0
H894 H 0.7467 0.92878 0.24465 0.0
H895 H 0.74472 0.93105 0.21219 0.0
H896 H 0.71817 0.91536 0.2291 0.0
H897 H 0.81637 0.85291 0.22608 0.0
H898 H 0.82057 0.88328 0.21052 0.0
H899 H 0.82193 0.88039 0.24297 0.0
H900 H 0.82344 0.96465 0.1887 0.0
H901 H 0.82739 0.95829 0.26681 0.0
H902 H 0.77016 0.92026 0.18035 0.0
H903 H 0.79593 0.90402 0.17951 0.0
H904 H 0.79848 0.93507 0.16566 0.0
H905 H 0.77475 0.91269 0.27559 0.0
H906 H 0.80443 0.92519 0.2897 0.0
H907 H 0.8005 0.89639 0.27501 0.0
C908 C 0.79704 0.18075 0.28711 0.0
C909 C 0.77636 0.18443 0.2721 0.0
C910 C 0.80844 0.15988 0.28539 0.0
C911 C 0.79867 0.14216 0.26845 0.0
C912 C 0.77757 0.14569 0.25345 0.0
C913 C 0.7666 0.16678 0.25554 0.0
C914 C 0.83086 0.15673 0.30174 0.0
C915 C 0.76653 0.12715 0.2353 0.0
C916 C 0.84133 0.09946 0.24903 0.0
C917 C 0.83351 0.07782 0.26375 0.0
C918 C 0.83006 0.1205 0.25027 0.0
C919 C 0.81045 0.11985 0.26658 0.0
C920 C 0.80228 0.098 0.2813 0.0
C921 C 0.81393 0.07726 0.27974 0.0
C922 C 0.8393 0.1435 0.23431 0.0
C923 C 0.78135 0.09658 0.29884 0.0
H924 H 0.80427 0.19424 0.30021 0.0
H925 H 0.75031 0.1695 0.24426 0.0
H926 H 0.82671 0.1392 0.31326 0.0
H927 H 0.8471 0.15541 0.29061 0.0
H928 H 0.83628 0.17232 0.31375 0.0
H929 H 0.75017 0.1327 0.22492 0.0
H930 H 0.78094 0.12503 0.22227 0.0
H931 H 0.7605 0.10871 0.24481 0.0
H932 H 0.85645 0.10008 0.23663 0.0
H933 H 0.80773 0.06061 0.29115 0.0
H934 H 0.84639 0.1592 0.24576 0.0
H935 H 0.82361 0.14881 0.22273 0.0
H936 H 0.85451 0.14089 0.22238 0.0
H937 H 0.7866 0.11074 0.31238 0.0
H938 H 0.7769 0.07806 0.30868 0.0
H939 H 0.76416 0.10072 0.28895 0.0
C940 C 0.41488 0.0373 0.99974 0.0
C941 C 0.43692 0.0275 0.99794 0.0
C942 C 0.39151 0.02174 0.00157 0.0
C943 C 0.39016 0.99575 0.00166 0.0
C944 C 0.41234 0.98573 0.99988 0.0
C945 C 0.43547 0.00174 0.99797 0.0
C946 C 0.36825 0.03313 0.00326 0.0
C947 C 0.41165 0.9581 1.00007 0.0
C948 C 0.33273 0.95467 0.02835 0.0
C949 C 0.31849 0.94768 0.00737 0.0
C950 C 0.35615 0.97021 0.02675 0.0
C951 C 0.3655 0.97906 0.00362 0.0
C952 C 0.35122 0.97213 0.98237 0.0
C953 C 0.32791 0.95648 0.9845 0.0
C954 C 0.37089 0.97715 0.04982 0.0
C955 C 0.36054 0.9813 0.95739 0.0
H956 H 0.41587 0.05722 0.99935 0.0
H957 H 0.45249 0.9941 0.9968 0.0
H958 H 0.35504 0.02774 0.98789 0.0
H959 H 0.3585 0.02602 0.02027 0.0
H960 H 0.37252 0.05369 0.00297 0.0
H961 H 0.43058 0.95329 0.99858 0.0
H962 H 0.40334 0.94892 0.01712 0.0
H963 H 0.39956 0.95039 0.98476 0.0
H964 H 0.32565 0.94791 0.0461 0.0
H965 H 0.31704 0.95118 0.96819 0.0
H966 H 0.37428 0.99758 0.05087 0.0
H967 H 0.38948 0.97131 0.04971 0.0
H968 H 0.3611 0.96851 0.06638 0.0
H969 H 0.36373 0.00186 0.95568 0.0
H970 H 0.34716 0.9742 0.94268 0.0
H971 H 0.37878 0.97547 0.95469 0.0
C972 C 0.27394 0.36227 0.30452 0.0
C973 C 0.26592 0.33868 0.31584 0.0
C974 C 0.25828 0.38021 0.30251 0.0
C975 C 0.23401 0.3745 0.31215 0.0
C976 C 0.22582 0.35079 0.32373 0.0
C977 C 0.24186 0.33315 0.3254 0.0
C978 C 0.26774 0.40531 0.29009 0.0
C979 C 0.20008 0.34403 0.33426 0.0
C980 C 0.20347 0.42909 0.3259 0.0
C981 C 0.18758 0.43118 0.30539 0.0
C982 C 0.2183 0.41043 0.32855 0.0
C983 C 0.21732 0.39348 0.31022 0.0
C984 C 0.20102 0.3952 0.28967 0.0
C985 C 0.1863 0.414 0.28752 0.0
C986 C 0.23533 0.40913 0.3508 0.0
C987 C 0.1995 0.3775 0.2697 0.0
H988 H 0.29263 0.36683 0.29742 0.0
H989 H 0.2354 0.31487 0.3339 0.0
H990 H 0.25503 0.40907 0.27451 0.0
H991 H 0.2678 0.42001 0.30291 0.0
H992 H 0.28698 0.40671 0.28332 0.0
H993 H 0.19664 0.32488 0.34287 0.0
H994 H 0.19781 0.35714 0.34808 0.0
H995 H 0.18554 0.34562 0.31976 0.0
H996 H 0.20453 0.44221 0.33985 0.0
H997 H 0.17409 0.41545 0.27162 0.0
H998 H 0.25515 0.41226 0.34532 0.0
H999 H 0.23137 0.3904 0.36024 0.0
H1000 H 0.23318 0.42307 0.36386 0.0
H1001 H 0.218 0.37952 0.26121 0.0
H1002 H 0.18526 0.38077 0.25533 0.0
H1003 H 0.19481 0.35809 0.27736 0.0
C1004 C 0.12433 0.031 0.46803 0.0
C1005 C 0.10927 0.02217 0.48792 0.0
C1006 C 0.14666 0.04796 0.47093 0.0
C1007 C 0.15407 0.05627 0.49427 0.0
C1008 C 0.13885 0.04758 0.51437 0.0
C1009 C 0.11663 0.03067 0.51094 0.0
C1010 C 0.16243 0.05682 0.44909 0.0
C1011 C 0.14608 0.05608 0.53953 0.0
C1012 C 0.22238 0.08154 0.50883 0.0
C1013 C 0.22245 0.10717 0.50765 0.0
C1014 C 0.20035 0.06478 0.50401 0.0
C1015 C 0.17787 0.07388 0.49784 0.0
C1016 C 0.17792 0.09974 0.49607 0.0
C1017 C 0.20022 0.11608 0.501 0.0
C1018 C 0.20102 0.03732 0.50606 0.0
C1019 C 0.15431 0.11012 0.48947 0.0
H1020 H 0.11886 0.0243 0.45024 0.0
H1021 H 0.10487 0.02422 0.52631 0.0
H1022 H 0.16527 0.07734 0.44664 0.0
H1023 H 0.18122 0.05151 0.45201 0.0
H1024 H 0.15378 0.04897 0.4321 0.0
H1025 H 0.1321 0.04765 0.5532 0.0
H1026 H 0.16453 0.05117 0.54535 0.0
H1027 H 0.14802 0.07655 0.53937 0.0
H1028 H 0.23948 0.07448 0.51388 0.0
H1029 H 0.20012 0.13586 0.49996 0.0
H1030 H 0.19374 0.02888 0.48894 0.0
H1031 H 0.1887 0.02816 0.52079 0.0
H1032 H 0.22023 0.03331 0.51002 0.0
H1033 H 0.14607 0.10316 0.47201 0.0
H1034 H 0.15774 0.13071 0.4878 0.0
H1035 H 0.14019 0.10376 0.50356 0.0
C1036 C 0.78441 0.14462 0.74017 0.0
C1037 C 0.7723 0.16463 0.73267 0.0
C1038 C 0.77088 0.12045 0.7435 0.0
C1039 C 0.74465 0.11612 0.73893 0.0
C1040 C 0.73237 0.13611 0.73095 0.0
C1041 C 0.74629 0.16013 0.72808 0.0
C1042 C 0.7846 0.09961 0.75219 0.0
C1043 C 0.70443 0.1322 0.72575 0.0
C1044 C 0.71075 0.05103 0.72793 0.0
C1045 C 0.69942 0.0438 0.75028 0.0
C1046 C 0.72581 0.07442 0.72405 0.0
C1047 C 0.72986 0.09079 0.74308 0.0
C1048 C 0.71903 0.08331 0.7659 0.0
C1049 C 0.70382 0.05997 0.76918 0.0
C1050 C 0.73685 0.08186 0.69939 0.0
C1051 C 0.72318 0.10013 0.78674 0.0
H1052 H 0.80453 0.14783 0.74338 0.0
H1053 H 0.73668 0.17547 0.72267 0.0
H1054 H 0.77703 0.09092 0.76972 0.0
H1055 H 0.78158 0.085 0.73895 0.0
H1056 H 0.80507 0.10603 0.75474 0.0
H1057 H 0.69791 0.14951 0.71863 0.0
H1058 H 0.69915 0.11797 0.71228 0.0
H1059 H 0.69434 0.12523 0.74261 0.0
H1060 H 0.70736 0.03867 0.71322 0.0
H1061 H 0.69525 0.05444 0.78656 0.0
H1062 H 0.75747 0.08742 0.70125 0.0
H1063 H 0.72927 0.09816 0.69115 0.0
H1064 H 0.73264 0.06667 0.68678 0.0
H1065 H 0.74354 0.10599 0.79046 0.0
H1066 H 0.71445 0.09105 0.80367 0.0
H1067 H 0.71517 0.11715 0.78182 0.0
C1068 C 0.42792 0.01736 0.58039 0.0
C1069 C 0.44107 0.01297 0.5602 0.0
C1070 C 0.40922 0.03224 0.57797 0.0
C1071 C 0.40332 0.04282 0.55476 0.0
C1072 C 0.41673 0.03874 0.53437 0.0
C1073 C 0.43549 0.02398 0.53735 0.0
C1074 C 0.39541 0.03622 0.60017 0.0
C1075 C 0.41094 0.04962 0.5093 0.0
C1076 C 0.33806 0.05833 0.54339 0.0
C1077 C 0.3424 0.08418 0.54469 0.0
C1078 C 0.35771 0.04471 0.54667 0.0
C1079 C 0.38234 0.05716 0.55158 0.0
C1080 C 0.38687 0.08321 0.55317 0.0
C1081 C 0.36685 0.09644 0.5496 0.0
C1082 C 0.35212 0.01698 0.54465 0.0
C1083 C 0.41285 0.0971 0.55859 0.0
H1084 H 0.43186 0.00872 0.59807 0.0
H1085 H 0.44585 0.0211 0.52172 0.0
H1086 H 0.39623 0.05633 0.60208 0.0
H1087 H 0.37536 0.02781 0.59812 0.0
H1088 H 0.40325 0.02796 0.61712 0.0
H1089 H 0.42351 0.04524 0.49543 0.0
H1090 H 0.39128 0.04232 0.50377 0.0
H1091 H 0.41276 0.07005 0.50943 0.0
H1092 H 0.31926 0.04868 0.53954 0.0
H1093 H 0.37037 0.11639 0.55071 0.0
H1094 H 0.35784 0.00737 0.56178 0.0
H1095 H 0.36312 0.01177 0.52991 0.0
H1096 H 0.33193 0.01009 0.54079 0.0
H1097 H 0.42028 0.08961 0.57608 0.0
H1098 H 0.41318 0.11729 0.55968 0.0
H1099 H 0.42571 0.09444 0.54426 0.0
C1100 C 0.59794 0.49518 0.49519 0.0
C1101 C 0.58814 0.49528 0.51828 0.0
C1102 C 0.61952 0.48494 0.49213 0.0
C1103 C 0.63162 0.47473 0.51268 0.0
C1104 C 0.62189 0.47501 0.53607 0.0
C1105 C 0.60021 0.48524 0.53857 0.0
C1106 C 0.62928 0.48493 0.4669 0.0
C1107 C 0.63434 0.46442 0.55842 0.0
C1108 C 0.6736 0.42778 0.50294 0.0
C1109 C 0.69754 0.44238 0.50409 0.0
C1110 C 0.652 0.43808 0.5057 0.0
C1111 C 0.65437 0.46359 0.50968 0.0
C1112 C 0.67845 0.47844 0.51083 0.0
C1113 C 0.69975 0.46766 0.50802 0.0
C1114 C 0.62662 0.42165 0.50436 0.0
C1115 C 0.68173 0.50571 0.51505 0.0
H1116 H 0.58862 0.503 0.47951 0.0
H1117 H 0.59258 0.48541 0.5564 0.0
H1118 H 0.64886 0.49501 0.46621 0.0
H1119 H 0.62952 0.46562 0.46229 0.0
H1120 H 0.61775 0.49369 0.45285 0.0
H1121 H 0.6246 0.46637 0.57531 0.0
H1122 H 0.63469 0.44448 0.55666 0.0
H1123 H 0.65408 0.47391 0.56021 0.0
H1124 H 0.6717 0.40823 0.49994 0.0
H1125 H 0.71815 0.47909 0.50893 0.0
H1126 H 0.6149 0.42893 0.48954 0.0
H1127 H 0.61678 0.42172 0.52158 0.0
H1128 H 0.62798 0.4022 0.50107 0.0
H1129 H 0.67162 0.51538 0.5005 0.0
H1130 H 0.70174 0.51469 0.51544 0.0
H1131 H 0.67345 0.50829 0.53255 0.0
C1132 C 0.7019 0.26231 0.35629 0.0
C1133 C 0.72137 0.26114 0.34069 0.0
C1134 C 0.7061 0.27653 0.37668 0.0
C1135 C 0.73031 0.29005 0.38146 0.0
C1136 C 0.75003 0.28904 0.36572 0.0
C1137 C 0.74534 0.27448 0.34556 0.0
C1138 C 0.68467 0.27695 0.39318 0.0
C1139 C 0.77603 0.3034 0.3701 0.0
C1140 C 0.73545 0.34413 0.42177 0.0
C1141 C 0.74342 0.33378 0.44409 0.0
C1142 C 0.73131 0.33017 0.40118 0.0
C1143 C 0.73501 0.3052 0.40302 0.0
C1144 C 0.74297 0.29461 0.4255 0.0
C1145 C 0.74719 0.30906 0.44574 0.0
C1146 C 0.72301 0.34215 0.37745 0.0
C1147 C 0.7469 0.26797 0.4282 0.0
H1148 H 0.68342 0.25178 0.35272 0.0
H1149 H 0.76036 0.27381 0.33339 0.0
H1150 H 0.6895 0.27017 0.4119 0.0
H1151 H 0.68134 0.29624 0.39411 0.0
H1152 H 0.667 0.26532 0.38695 0.0
H1153 H 0.78923 0.30078 0.35603 0.0
H1154 H 0.7753 0.32347 0.37029 0.0
H1155 H 0.78356 0.2975 0.38816 0.0
H1156 H 0.73259 0.36325 0.42031 0.0
H1157 H 0.75328 0.30089 0.46292 0.0
H1158 H 0.70458 0.33197 0.3713 0.0
H1159 H 0.73656 0.34117 0.36318 0.0
H1160 H 0.72138 0.36188 0.37896 0.0
H1161 H 0.72924 0.25548 0.42346 0.0
H1162 H 0.75305 0.2625 0.44696 0.0
H1163 H 0.76122 0.26502 0.41543 0.0
C1164 C 0.55505 0.06431 0.91333 0.0
C1165 C 0.5301 0.05394 0.918 0.0
C1166 C 0.56839 0.05462 0.89612 0.0
C1167 C 0.5565 0.03397 0.88346 0.0
C1168 C 0.53171 0.02265 0.8891 0.0
C1169 C 0.51882 0.03274 0.90641 0.0
C1170 C 0.59484 0.06712 0.89075 0.0
C1171 C 0.51843 0.00056 0.87611 0.0
C1172 C 0.57912 0.03018 0.81997 0.0
C1173 C 0.59478 0.01234 0.82362 0.0
C1174 C 0.56624 0.03698 0.83922 0.0
C1175 C 0.56915 0.02577 0.86282 0.0
C1176 C 0.58459 0.00741 0.86662 0.0
C1177 C 0.59719 0.00084 0.84693 0.0
C1178 C 0.54982 0.0565 0.83435 0.0
C1179 C 0.58817 0.99511 0.89155 0.0
H1180 H 0.56387 0.08044 0.92267 0.0
H1181 H 0.49965 0.0245 0.91043 0.0
H1182 H 0.60756 0.05326 0.89171 0.0
H1183 H 0.59542 0.07591 0.872 0.0
H1184 H 0.60209 0.0816 0.90357 0.0
H1185 H 0.50011 0.99255 0.88416 0.0
H1186 H 0.51511 0.0062 0.85671 0.0
H1187 H 0.53025 0.98592 0.87666 0.0
H1188 H 0.577 0.03905 0.802 0.0
H1189 H 0.60929 0.98707 0.8499 0.0
H1190 H 0.55707 0.07278 0.84499 0.0
H1191 H 0.5305 0.04912 0.84029 0.0
H1192 H 0.54893 0.06284 0.81481 0.0
H1193 H 0.59727 0.00917 0.90407 0.0
H1194 H 0.59988 0.98041 0.89128 0.0
H1195 H 0.56974 0.98678 0.89911 0.0
C1196 C 0.32503 0.26474 0.37177 0.0
C1197 C 0.30186 0.27018 0.36278 0.0
C1198 C 0.3265 0.24797 0.39199 0.0
C1199 C 0.30427 0.23635 0.4035 0.0
C1200 C 0.28088 0.2422 0.39488 0.0
C1201 C 0.27996 0.25904 0.37463 0.0
C1202 C 0.3518 0.24233 0.40073 0.0
C1203 C 0.25674 0.23017 0.40665 0.0
C1204 C 0.30308 0.17402 0.43842 0.0
C1205 C 0.30494 0.18064 0.46261 0.0
C1206 C 0.30323 0.19202 0.41904 0.0
C1207 C 0.3053 0.21729 0.42392 0.0
C1208 C 0.30771 0.22417 0.44827 0.0
C1209 C 0.30751 0.20577 0.46733 0.0
C1210 C 0.30069 0.18394 0.39331 0.0
C1211 C 0.31002 0.25093 0.45419 0.0
H1212 H 0.34206 0.27356 0.36292 0.0
H1213 H 0.26197 0.26294 0.36762 0.0
H1214 H 0.35489 0.24566 0.42031 0.0
H1215 H 0.35244 0.22247 0.39878 0.0
H1216 H 0.36739 0.25373 0.39046 0.0
H1217 H 0.24026 0.23758 0.39847 0.0
H1218 H 0.25368 0.20987 0.40474 0.0
H1219 H 0.25791 0.23309 0.42638 0.0
H1220 H 0.30112 0.15468 0.43458 0.0
H1221 H 0.30896 0.21107 0.48596 0.0
H1222 H 0.31668 0.19378 0.38256 0.0
H1223 H 0.28334 0.18892 0.38443 0.0
H1224 H 0.29997 0.16366 0.39256 0.0
H1225 H 0.32604 0.2624 0.44463 0.0
H1226 H 0.31274 0.25333 0.474 0.0
H1227 H 0.29288 0.25818 0.4477 0.0
C1228 C 0.48187 0.49295 0.91756 0.0
C1229 C 0.49831 0.51383 0.92505 0.0
C1230 C 0.46552 0.49472 0.89736 0.0
C1231 C 0.46565 0.51796 0.88442 0.0
C1232 C 0.48235 0.5391 0.89188 0.0
C1233 C 0.49859 0.53675 0.91207 0.0
C1234 C 0.44811 0.47174 0.88986 0.0
C1235 C 0.48301 0.56419 0.87856 0.0
C1236 C 0.43946 0.51932 0.81948 0.0
C1237 C 0.41544 0.52468 0.82255 0.0
C1238 C 0.45596 0.51698 0.83947 0.0
C1239 C 0.4483 0.52018 0.86308 0.0
C1240 C 0.42409 0.52558 0.86631 0.0
C1241 C 0.40793 0.52772 0.84601 0.0
C1242 C 0.4816 0.5111 0.83532 0.0
C1243 C 0.41529 0.5292 0.89121 0.0
H1244 H 0.48187 0.47523 0.92757 0.0
H1245 H 0.51146 0.55286 0.9178 0.0
H1246 H 0.42836 0.4745 0.89049 0.0
H1247 H 0.45155 0.46823 0.87084 0.0
H1248 H 0.45049 0.45506 0.90174 0.0
H1249 H 0.49705 0.57878 0.88673 0.0
H1250 H 0.48754 0.56327 0.85926 0.0
H1251 H 0.46429 0.56973 0.87874 0.0
H1252 H 0.44541 0.51689 0.80143 0.0
H1253 H 0.38943 0.5319 0.84856 0.0
H1254 H 0.48411 0.49371 0.84591 0.0
H1255 H 0.4963 0.52607 0.84186 0.0
H1256 H 0.4846 0.50896 0.81585 0.0
H1257 H 0.4159 0.51229 0.90333 0.0
H1258 H 0.39591 0.53331 0.89064 0.0
H1259 H 0.42803 0.54468 0.89947 0.0
C1260 C 0.74399 0.75279 0.16072 0.0
C1261 C 0.71843 0.75366 0.15662 0.0
C1262 C 0.75683 0.74017 0.14545 0.0
C1263 C 0.74398 0.72881 0.1252 0.0
C1264 C 0.71824 0.72987 0.12085 0.0
C1265 C 0.7058 0.74231 0.13661 0.0
C1266 C 0.78423 0.73932 0.15075 0.0
C1267 C 0.70396 0.71834 0.09923 0.0
C1268 C 0.78089 0.71857 0.07092 0.0
C1269 C 0.78069 0.69293 0.07354 0.0
C1270 C 0.76934 0.73053 0.08781 0.0
C1271 C 0.75757 0.71658 0.108 0.0
C1272 C 0.75795 0.69082 0.11116 0.0
C1273 C 0.76937 0.67927 0.09381 0.0
C1274 C 0.76912 0.75799 0.08365 0.0
C1275 C 0.74589 0.6754 0.13264 0.0
H1276 H 0.75402 0.76213 0.17579 0.0
H1277 H 0.68621 0.7435 0.13308 0.0
H1278 H 0.78743 0.71984 0.15196 0.0
H1279 H 0.79559 0.74927 0.13568 0.0
H1280 H 0.79112 0.74786 0.16797 0.0
H1281 H 0.68392 0.72042 0.09868 0.0
H1282 H 0.71258 0.72711 0.08217 0.0
H1283 H 0.70502 0.69831 0.09969 0.0
H1284 H 0.78952 0.72926 0.05528 0.0
H1285 H 0.76923 0.65946 0.09604 0.0
H1286 H 0.77729 0.7678 0.09978 0.0
H1287 H 0.74951 0.76125 0.08111 0.0
H1288 H 0.77976 0.7663 0.06745 0.0
H1289 H 0.75339 0.68358 0.14983 0.0
H1290 H 0.74908 0.65591 0.13323 0.0
H1291 H 0.72541 0.67537 0.13181 0.0
C1292 C 0.993 0.01924 0.09417 0.0
C1293 C 0.00457 0.04268 0.08482 0.0
C1294 C 0.98024 0.01647 0.11608 0.0
C1295 C 0.979 0.03764 0.12892 0.0
C1296 C 0.99078 0.06132 0.11967 0.0
C1297 C 0.00345 0.06354 0.09776 0.0
C1298 C 0.96788 0.99091 0.12537 0.0
C1299 C 0.98992 0.08433 0.13287 0.0
C1300 C 0.92664 0.03473 0.17322 0.0
C1301 C 0.93906 0.03105 0.19567 0.0
C1302 C 0.9394 0.03679 0.15136 0.0
C1303 C 0.96518 0.0351 0.15193 0.0
C1304 C 0.9778 0.03128 0.17449 0.0
C1305 C 0.96459 0.02932 0.19609 0.0
C1306 C 0.92531 0.0409 0.12764 0.0
C1307 C 0.00528 0.02934 0.17582 0.0
H1308 H 0.99356 0.00308 0.08412 0.0
H1309 H 0.01268 0.08166 0.09083 0.0
H1310 H 0.97525 0.98655 0.14394 0.0
H1311 H 0.94741 0.99032 0.12664 0.0
H1312 H 0.97098 0.97629 0.11346 0.0
H1313 H 1.00014 0.10135 0.12329 0.0
H1314 H 0.97018 0.08663 0.13479 0.0
H1315 H 0.99826 0.08246 0.15147 0.0
H1316 H 0.90691 0.03607 0.1727 0.0
H1317 H 0.97434 0.02643 0.21333 0.0
H1318 H 0.92647 0.02583 0.11557 0.0
H1319 H 0.934 0.05857 0.11809 0.0
H1320 H 0.90524 0.04155 0.1303 0.0
H1321 H 0.00858 0.01393 0.16507 0.0
H1322 H 0.01228 0.0261 0.19478 0.0
H1323 H 0.01647 0.04663 0.16773 0.0
C1324 C 0.25639 0.76577 0.14248 0.0
C1325 C 0.27186 0.77558 0.16165 0.0
C1326 C 0.25578 0.77906 0.11985 0.0
C1327 C 0.27116 0.8026 0.11635 0.0
C1328 C 0.2874 0.8122 0.13548 0.0
C1329 C 0.28765 0.79848 0.1579 0.0
C1330 C 0.23836 0.76814 0.09984 0.0
C1331 C 0.30415 0.83718 0.13241 0.0
C1332 C 0.2842 0.83018 0.0521 0.0
C1333 C 0.26713 0.84674 0.04901 0.0
C1334 C 0.28562 0.81554 0.07387 0.0
C1335 C 0.26964 0.81758 0.09299 0.0
C1336 C 0.25229 0.83417 0.08994 0.0
C1337 C 0.25122 0.84851 0.06798 0.0
C1338 C 0.30429 0.79799 0.07645 0.0
C1339 C 0.23497 0.83689 0.10995 0.0
H1340 H 0.24451 0.74784 0.14537 0.0
H1341 H 0.29991 0.8058 0.17267 0.0
H1342 H 0.22424 0.78021 0.09496 0.0
H1343 H 0.24903 0.76729 0.08328 0.0
H1344 H 0.22839 0.74921 0.10518 0.0
H1345 H 0.31628 0.8416 0.14879 0.0
H1346 H 0.31626 0.83772 0.1166 0.0
H1347 H 0.29254 0.85188 0.12867 0.0
H1348 H 0.29653 0.82866 0.03753 0.0
H1349 H 0.23798 0.86127 0.06577 0.0
H1350 H 0.29447 0.77878 0.08067 0.0
H1351 H 0.31765 0.80295 0.09183 0.0
H1352 H 0.3151 0.79832 0.05973 0.0
H1353 H 0.22325 0.81872 0.11497 0.0
H1354 H 0.22242 0.85048 0.1046 0.0
H1355 H 0.24612 0.84301 0.12642 0.0
C1356 C 0.00603 0.45585 0.12897 0.0
C1357 C 0.00418 0.47843 0.11603 0.0
C1358 C 0.01989 0.4552 0.15102 0.0
C1359 C 0.03236 0.47765 0.16024 0.0
C1360 C 0.0305 0.5005 0.14728 0.0
C1361 C 0.01635 0.50061 0.12538 0.0
C1362 C 0.02121 0.43049 0.16443 0.0
C1363 C 0.0437 0.52482 0.1564 0.0
C1364 C 0.05144 0.47978 0.22726 0.0
C1365 C 0.07701 0.47831 0.22688 0.0
C1366 C 0.03659 0.47917 0.20577 0.0
C1367 C 0.0476 0.47726 0.18331 0.0
C1368 C 0.07332 0.47549 0.18283 0.0
C1369 C 0.08768 0.47593 0.20462 0.0
C1370 C 0.00917 0.48087 0.20704 0.0
C1371 C 0.08578 0.47357 0.15923 0.0
H1372 H 0.99642 0.43867 0.12194 0.0
H1373 H 0.01521 0.51808 0.11529 0.0
H1374 H 0.04097 0.4276 0.16629 0.0
H1375 H 0.01418 0.43024 0.18305 0.0
H1376 H 0.01009 0.41476 0.15502 0.0
H1377 H 0.04024 0.54097 0.14425 0.0
H1378 H 0.03735 0.52709 0.17483 0.0
H1379 H 0.06419 0.52491 0.15792 0.0
H1380 H 0.04301 0.48153 0.24438 0.0
H1381 H 0.10743 0.47485 0.20412 0.0
H1382 H 0.9975 0.46478 0.1987 0.0
H1383 H 0.00528 0.49783 0.19651 0.0
H1384 H 0.00327 0.48138 0.22601 0.0
H1385 H 0.07599 0.4572 0.14989 0.0
H1386 H 0.10586 0.47193 0.162 0.0
H1387 H 0.08443 0.49019 0.14691 0.0
C1388 C 0.33166 0.73197 0.28686 0.0
C1389 C 0.33562 0.73306 0.26182 0.0
C1390 C 0.35149 0.73939 0.30338 0.0
C1391 C 0.37586 0.74798 0.29464 0.0
C1392 C 0.37991 0.74936 0.26936 0.0
C1393 C 0.35973 0.74192 0.25326 0.0
C1394 C 0.34643 0.73783 0.33019 0.0
C1395 C 0.40565 0.75827 0.25936 0.0
C1396 C 0.42502 0.78603 0.33418 0.0
C1397 C 0.43911 0.76815 0.34352 0.0
C1398 C 0.40415 0.77968 0.31851 0.0
C1399 C 0.39731 0.75488 0.31194 0.0
C1400 C 0.4113 0.73671 0.32148 0.0
C1401 C 0.43199 0.74354 0.33719 0.0
C1402 C 0.38958 0.79953 0.30878 0.0
C1403 C 0.40464 0.71009 0.31482 0.0
H1404 H 0.31299 0.72543 0.29352 0.0
H1405 H 0.36293 0.74253 0.23395 0.0
H1406 H 0.35747 0.72483 0.34005 0.0
H1407 H 0.35248 0.75624 0.33766 0.0
H1408 H 0.32629 0.73144 0.33396 0.0
H1409 H 0.40552 0.75881 0.23919 0.0
H1410 H 0.41321 0.77711 0.26521 0.0
H1411 H 0.41868 0.74585 0.26669 0.0
H1412 H 0.43034 0.80507 0.33902 0.0
H1413 H 0.44277 0.72959 0.34428 0.0
H1414 H 0.36955 0.79404 0.3133 0.0
H1415 H 0.39047 0.80169 0.28868 0.0
H1416 H 0.39686 0.81777 0.31624 0.0
H1417 H 0.38503 0.70244 0.31966 0.0
H1418 H 0.41717 0.69813 0.32412 0.0
H1419 H 0.40587 0.70915 0.29489 0.0
C1420 C 0.01963 0.41775 0.00848 0.0
C1421 C 0.00234 0.43363 0.00261 0.0
C1422 C 0.02144 0.39825 0.99386 0.0
C1423 C 0.00538 0.39444 0.97305 0.0
C1424 C 0.98734 0.40999 0.96751 0.0
C1425 C 0.98597 0.42937 0.98245 0.0
C1426 C 0.04081 0.38198 0.00045 0.0
C1427 C 0.96977 0.40642 0.9456 0.0
C1428 C 0.0272 0.36092 0.92213 0.0
C1429 C 0.01361 0.33688 0.92612 0.0
C1430 C 0.02455 0.37984 0.93717 0.0
C1431 C 0.00795 0.37461 0.95673 0.0
C1432 C 0.99407 0.35043 0.9608 0.0
C1433 C 0.99703 0.33186 0.94543 0.0
C1434 C 0.03961 0.40543 0.93219 0.0
C1435 C 0.97621 0.34413 0.98148 0.0
H1436 H 0.03198 0.42085 0.02434 0.0
H1437 H 0.97234 0.44146 0.97821 0.0
H1438 H 0.03168 0.36226 0.00245 0.0
H1439 H 0.05436 0.38368 0.98565 0.0
H1440 H 0.05133 0.38693 0.01763 0.0
H1441 H 0.95628 0.41959 0.94428 0.0
H1442 H 0.98072 0.40904 0.92879 0.0
H1443 H 0.95909 0.38723 0.94636 0.0
H1444 H 0.04 0.36501 0.90724 0.0
H1445 H 0.98644 0.31335 0.94866 0.0
H1446 H 0.05191 0.41078 0.94821 0.0
H1447 H 0.02687 0.41921 0.92914 0.0
H1448 H 0.05146 0.40655 0.91607 0.0
H1449 H 0.98654 0.34748 0.99905 0.0
H1450 H 0.96658 0.32451 0.98202 0.0
H1451 H 0.96183 0.35632 0.97981 0.0
C1452 C 0.64862 0.81344 0.25777 0.0
C1453 C 0.66332 0.79493 0.25659 0.0
C1454 C 0.62746 0.80965 0.27228 0.0
C1455 C 0.62098 0.78685 0.28608 0.0
C1456 C 0.63583 0.76813 0.28505 0.0
C1457 C 0.65676 0.77236 0.27022 0.0
C1458 C 0.61194 0.82994 0.2727 0.0
C1459 C 0.62964 0.74367 0.29967 0.0
C1460 C 0.57936 0.78453 0.34025 0.0
C1461 C 0.55605 0.77325 0.33083 0.0
C1462 C 0.60065 0.78912 0.32587 0.0
C1463 C 0.59853 0.78248 0.30144 0.0
C1464 C 0.57499 0.77143 0.29173 0.0
C1465 C 0.55407 0.76686 0.30656 0.0
C1466 C 0.62548 0.8008 0.33691 0.0
C1467 C 0.57193 0.76431 0.26569 0.0
H1468 H 0.65347 0.83081 0.24703 0.0
H1469 H 0.66824 0.75811 0.26955 0.0
H1470 H 0.59242 0.82301 0.26648 0.0
H1471 H 0.61116 0.83553 0.29154 0.0
H1472 H 0.61955 0.8466 0.26094 0.0
H1473 H 0.64326 0.73117 0.29708 0.0
H1474 H 0.62947 0.74688 0.31929 0.0
H1475 H 0.61063 0.73413 0.29438 0.0
H1476 H 0.58107 0.78948 0.35899 0.0
H1477 H 0.53611 0.75823 0.2991 0.0
H1478 H 0.63298 0.81825 0.3263 0.0
H1479 H 0.63931 0.78817 0.33613 0.0
H1480 H 0.62395 0.80501 0.35613 0.0
H1481 H 0.57817 0.78077 0.2532 0.0
H1482 H 0.55223 0.75643 0.26075 0.0
H1483 H 0.58393 0.75042 0.2627 0.0
C1484 C 0.04488 0.10321 0.99312 0.0
C1485 C 0.02395 0.08888 0.00429 0.0
C1486 C 0.04232 0.12356 0.97691 0.0
C1487 C 0.01824 0.12966 0.9717 0.0
C1488 C 0.997 0.11504 0.98264 0.0
C1489 C 1.00011 0.09484 0.99884 0.0
C1490 C 0.06543 0.13878 0.96567 0.0
C1491 C 0.97101 0.12087 0.9774 0.0
C1492 C 0.0141 0.1958 0.94901 0.0
C1493 C 0.0104 0.19362 0.92388 0.0
C1494 C 0.01663 0.17512 0.96477 0.0
C1495 C 0.01536 0.15166 0.95519 0.0
C1496 C 0.01146 0.14928 0.92989 0.0
C1497 C 0.00907 0.17029 0.91453 0.0
C1498 C 0.02081 0.17839 0.99167 0.0
C1499 C 0.00991 0.12454 0.91904 0.0
H1500 H 0.06336 0.09884 0.99749 0.0
H1501 H 0.98384 0.08361 0.00717 0.0
H1502 H 0.06334 0.13948 0.94556 0.0
H1503 H 0.06777 0.15813 0.97117 0.0
H1504 H 0.0827 0.13122 0.97116 0.0
H1505 H 0.95639 0.10734 0.98697 0.0
H1506 H 0.97009 0.13968 0.98308 0.0
H1507 H 0.96662 0.1209 0.95758 0.0
H1508 H 0.01517 0.21375 0.95641 0.0
H1509 H 0.00618 0.16842 0.89515 0.0
H1510 H 0.03878 0.17267 0.99797 0.0
H1511 H 0.00569 0.16631 0.00195 0.0
H1512 H 0.02126 0.19787 0.99621 0.0
H1513 H 0.0276 0.11726 0.92305 0.0
H1514 H 0.00651 0.12575 0.89903 0.0
H1515 H 0.99458 0.1109 0.92739 0.0
C1516 C 0.35941 0.26702 0.25819 0.0
C1517 C 0.33883 0.27612 0.24712 0.0
C1518 C 0.37945 0.26328 0.2444 0.0
C1519 C 0.37872 0.26858 0.21891 0.0
C1520 C 0.35787 0.27767 0.20764 0.0
C1521 C 0.33817 0.28138 0.22191 0.0
C1522 C 0.40141 0.2537 0.2571 0.0
C1523 C 0.35637 0.28343 0.1805 0.0
C1524 C 0.44 0.28039 0.1856 0.0
C1525 C 0.44003 0.2574 0.17596 0.0
C1526 C 0.4202 0.28426 0.19963 0.0
C1527 C 0.39983 0.26472 0.20404 0.0
C1528 C 0.39966 0.24151 0.1943 0.0
C1529 C 0.41979 0.2381 0.18043 0.0
C1530 C 0.42111 0.30924 0.20982 0.0
C1531 C 0.3782 0.22027 0.19853 0.0
H1532 H 0.35979 0.26288 0.2777 0.0
H1533 H 0.32219 0.28834 0.21334 0.0
H1534 H 0.40371 0.23596 0.24974 0.0
H1535 H 0.41894 0.26707 0.25362 0.0
H1536 H 0.39915 0.25063 0.27706 0.0
H1537 H 0.33877 0.29018 0.17455 0.0
H1538 H 0.37251 0.29775 0.17485 0.0
H1539 H 0.35747 0.2666 0.17086 0.0
H1540 H 0.45558 0.2954 0.1823 0.0
H1541 H 0.41962 0.22029 0.17304 0.0
H1542 H 0.42038 0.30707 0.22994 0.0
H1543 H 0.40454 0.31736 0.20311 0.0
H1544 H 0.43832 0.32248 0.20477 0.0
H1545 H 0.37627 0.21545 0.2183 0.0
H1546 H 0.3808 0.20346 0.18952 0.0
H1547 H 0.36037 0.22586 0.19156 0.0
C1548 C 0.52687 0.42765 0.01194 0.0
C1549 C 0.55078 0.43364 0.00216 0.0
C1550 C 0.5198 0.40551 0.02617 0.0
C1551 C 0.53703 0.38892 0.03056 0.0
C1552 C 0.56102 0.39463 0.02031 0.0
C1553 C 0.56764 0.41698 0.0063 0.0
C1554 C 0.49412 0.40012 0.03693 0.0
C1555 C 0.5798 0.37729 0.0244 0.0
C1556 C 0.52936 0.34434 0.08661 0.0
C1557 C 0.51742 0.32229 0.07681 0.0
C1558 C 0.53575 0.36617 0.07176 0.0
C1559 C 0.53022 0.36591 0.04647 0.0
C1560 C 0.51827 0.34371 0.03643 0.0
C1561 C 0.51192 0.32218 0.05174 0.0
C1562 C 0.54836 0.38955 0.08315 0.0
C1563 C 0.51224 0.34269 0.00952 0.0
H1564 H 0.51389 0.44062 0.009 0.0
H1565 H 0.58604 0.42144 0.99852 0.0
H1566 H 0.48392 0.38194 0.03145 0.0
H1567 H 0.49596 0.39893 0.05707 0.0
H1568 H 0.48268 0.41459 0.03118 0.0
H1569 H 0.5973 0.38405 0.01442 0.0
H1570 H 0.58467 0.37513 0.04407 0.0
H1571 H 0.57152 0.35864 0.01849 0.0
H1572 H 0.53362 0.34462 0.10597 0.0
H1573 H 0.50276 0.3052 0.044 0.0
H1574 H 0.53692 0.40438 0.07938 0.0
H1575 H 0.56687 0.39625 0.07502 0.0
H1576 H 0.55115 0.3867 0.10314 0.0
H1577 H 0.49968 0.3561 0.00369 0.0
H1578 H 0.50304 0.32393 0.00455 0.0
H1579 H 0.52967 0.34815 0.99917 0.0
C1580 C 0.64498 0.23615 0.27757 0.0
C1581 C 0.66792 0.23395 0.26777 0.0
C1582 C 0.6238 0.23805 0.26252 0.0
C1583 C 0.6255 0.23746 0.23705 0.0
C1584 C 0.64849 0.23501 0.22703 0.0
C1585 C 0.66944 0.23341 0.24249 0.0
C1586 C 0.59963 0.24076 0.27386 0.0
C1587 C 0.65098 0.23419 0.19995 0.0
C1588 C 0.5654 0.22017 0.19959 0.0
C1589 C 0.56124 0.24342 0.18971 0.0
C1590 C 0.58626 0.21795 0.215 0.0
C1591 C 0.60323 0.23952 0.22086 0.0
C1592 C 0.59902 0.26306 0.21114 0.0
C1593 C 0.57814 0.26472 0.19559 0.0
C1594 C 0.59028 0.19251 0.22484 0.0
C1595 C 0.61658 0.2865 0.21717 0.0
H1596 H 0.64351 0.23619 0.2971 0.0
H1597 H 0.68716 0.23209 0.23471 0.0
H1598 H 0.59345 0.25809 0.26638 0.0
H1599 H 0.58465 0.22513 0.26929 0.0
H1600 H 0.6015 0.2412 0.29396 0.0
H1601 H 0.67001 0.23163 0.19511 0.0
H1602 H 0.63709 0.2188 0.19295 0.0
H1603 H 0.64692 0.25165 0.19053 0.0
H1604 H 0.55249 0.20361 0.19505 0.0
H1605 H 0.57501 0.28276 0.18811 0.0
H1606 H 0.5908 0.19151 0.24499 0.0
H1607 H 0.60862 0.18895 0.21907 0.0
H1608 H 0.57534 0.17758 0.21853 0.0
H1609 H 0.61785 0.28809 0.23714 0.0
H1610 H 0.61043 0.30339 0.20843 0.0
H1611 H 0.63571 0.28582 0.21115 0.0
C1612 C 0.50383 0.12649 0.01243 0.0
C1613 C 0.49601 0.10265 0.02322 0.0
C1614 C 0.50815 0.14728 0.02643 0.0
C1615 C 0.50485 0.14408 0.05185 0.0
C1616 C 0.4974 0.11999 0.06289 0.0
C1617 C 0.49291 0.09957 0.04841 0.0
C1618 C 0.51582 0.17271 0.01397 0.0
C1619 C 0.49403 0.11579 0.08998 0.0
C1620 C 0.53665 0.19565 0.0907 0.0
C1621 C 0.51665 0.2077 0.09516 0.0
C1622 C 0.53304 0.1748 0.07681 0.0
C1623 C 0.50892 0.16598 0.06687 0.0
C1624 C 0.48866 0.17811 0.07123 0.0
C1625 C 0.49274 0.19873 0.08547 0.0
C1626 C 0.55503 0.16216 0.07281 0.0
C1627 C 0.46272 0.16941 0.06071 0.0
H1628 H 0.50596 0.12894 0.99292 0.0
H1629 H 0.48708 0.08111 0.05679 0.0
H1630 H 0.50169 0.18449 0.01703 0.0
H1631 H 0.53394 0.18185 0.02186 0.0
H1632 H 0.51775 0.172 0.99408 0.0
H1633 H 0.48885 0.09583 0.0958 0.0
H1634 H 0.5116 0.12352 0.09982 0.0
H1635 H 0.47918 0.12566 0.09553 0.0
H1636 H 0.55516 0.2024 0.09825 0.0
H1637 H 0.47722 0.20802 0.08875 0.0
H1638 H 0.55842 0.16254 0.05309 0.0
H1639 H 0.55081 0.14241 0.07958 0.0
H1640 H 0.57249 0.17108 0.08214 0.0
H1641 H 0.46329 0.16979 0.04061 0.0
H1642 H 0.44904 0.18103 0.0656 0.0
H1643 H 0.45588 0.14995 0.06732 0.0
C1644 C 0.2698 0.35459 0.72691 0.0
C1645 C 0.24376 0.35346 0.72744 0.0
C1646 C 0.28617 0.37741 0.72602 0.0
C1647 C 0.2763 0.39967 0.72589 0.0
C1648 C 0.25004 0.39872 0.72599 0.0
C1649 C 0.23409 0.37564 0.72663 0.0
C1650 C 0.31406 0.37769 0.72577 0.0
C1651 C 0.23882 0.42206 0.72591 0.0
C1652 C 0.31923 0.45568 0.74962 0.0
C1653 C 0.32714 0.46926 0.72801 0.0
C1654 C 0.30244 0.43317 0.74916 0.0
C1655 C 0.29351 0.42389 0.72655 0.0
C1656 C 0.30131 0.43755 0.70467 0.0
C1657 C 0.31795 0.46015 0.70566 0.0
C1658 C 0.29435 0.41925 0.77289 0.0
C1659 C 0.29234 0.42813 0.68022 0.0
H1660 H 0.27747 0.33756 0.72783 0.0
H1661 H 0.21399 0.37497 0.72659 0.0
H1662 H 0.32232 0.38976 0.71015 0.0
H1663 H 0.32314 0.38553 0.74257 0.0
H1664 H 0.31865 0.35886 0.72457 0.0
H1665 H 0.21801 0.41816 0.7254 0.0
H1666 H 0.24535 0.43203 0.74242 0.0
H1667 H 0.2452 0.43469 0.70997 0.0
H1668 H 0.32615 0.46265 0.76696 0.0
H1669 H 0.32404 0.47049 0.68888 0.0
H1670 H 0.30012 0.40076 0.774 0.0
H1671 H 0.27362 0.41613 0.77383 0.0
H1672 H 0.30252 0.4293 0.78892 0.0
H1673 H 0.29812 0.40995 0.67827 0.0
H1674 H 0.2999 0.44113 0.6649 0.0
H1675 H 0.27158 0.42514 0.67881 0.0
C1676 C 0.29882 0.68298 0.79098 0.0
C1677 C 0.28346 0.69137 0.77232 0.0
C1678 C 0.30854 0.66109 0.78929 0.0
C1679 C 0.30259 0.64724 0.76849 0.0
C1680 C 0.28669 0.65545 0.74977 0.0
C1681 C 0.27718 0.67737 0.752 0.0
C1682 C 0.32525 0.65283 0.8097 0.0
C1683 C 0.27987 0.64116 0.72735 0.0
C1684 C 0.34663 0.60403 0.7534 0.0
C1685 C 0.33379 0.5809 0.76224 0.0
C1686 C 0.33662 0.62573 0.7552 0.0
C1687 C 0.31323 0.62431 0.76618 0.0
C1688 C 0.30013 0.60103 0.77509 0.0
C1689 C 0.31054 0.5796 0.77297 0.0
C1690 C 0.35109 0.65022 0.7454 0.0
C1691 C 0.27518 0.59879 0.78698 0.0
H1692 H 0.30329 0.69368 0.80685 0.0
H1693 H 0.26493 0.6837 0.73777 0.0
H1694 H 0.31724 0.63391 0.81705 0.0
H1695 H 0.34396 0.65197 0.80273 0.0
H1696 H 0.32773 0.66549 0.8248 0.0
H1697 H 0.26713 0.64995 0.71457 0.0
H1698 H 0.2971 0.63984 0.71771 0.0
H1699 H 0.27064 0.62197 0.73258 0.0
H1700 H 0.36458 0.60522 0.74505 0.0
H1701 H 0.30049 0.56182 0.77988 0.0
H1702 H 0.35554 0.66305 0.76025 0.0
H1703 H 0.33951 0.65901 0.73148 0.0
H1704 H 0.36888 0.64813 0.73713 0.0
H1705 H 0.27727 0.61005 0.8031 0.0
H1706 H 0.26731 0.57931 0.79284 0.0
H1707 H 0.26152 0.60618 0.77419 0.0
C1708 C 0.90911 0.53477 0.48962 0.0
C1709 C 0.93195 0.52604 0.48968 0.0
C1710 C 0.88627 0.51829 0.49096 0.0
C1711 C 0.88627 0.49245 0.49233 0.0
C1712 C 0.9092 0.48351 0.49161 0.0
C1713 C 0.93179 0.50043 0.4903 0.0
C1714 C 0.8622 0.52853 0.49156 0.0
C1715 C 0.90993 0.45607 0.49301 0.0
C1716 C 0.83153 0.45067 0.52273 0.0
C1717 C 0.81691 0.44158 0.50269 0.0
C1718 C 0.85415 0.46718 0.51958 0.0
C1719 C 0.8624 0.4748 0.49579 0.0
C1720 C 0.84777 0.46572 0.47546 0.0
C1721 C 0.82517 0.44923 0.47915 0.0
C1722 C 0.86923 0.47653 0.54171 0.0
C1723 C 0.85599 0.47343 0.44984 0.0
H1724 H 0.90912 0.55456 0.48874 0.0
H1725 H 0.94939 0.49357 0.49056 0.0
H1726 H 0.84888 0.52085 0.47709 0.0
H1727 H 0.85316 0.52283 0.50922 0.0
H1728 H 0.86533 0.54909 0.48911 0.0
H1729 H 0.9291 0.45217 0.4907 0.0
H1730 H 0.90317 0.44758 0.51089 0.0
H1731 H 0.89723 0.44688 0.47883 0.0
H1732 H 0.82531 0.44488 0.54098 0.0
H1733 H 0.814 0.44228 0.46356 0.0
H1734 H 0.87159 0.49704 0.54126 0.0
H1735 H 0.88823 0.47161 0.54168 0.0
H1736 H 0.86025 0.46873 0.55896 0.0
H1737 H 0.85804 0.49386 0.44665 0.0
H1738 H 0.84253 0.46461 0.43599 0.0
H1739 H 0.87461 0.46839 0.44721 0.0
C1740 C 0.74465 0.83675 0.82155 0.0
C1741 C 0.76876 0.84196 0.81205 0.0
C1742 C 0.72894 0.85466 0.81999 0.0
C1743 C 0.73743 0.87833 0.80849 0.0
C1744 C 0.76171 0.88373 0.79884 0.0
C1745 C 0.7771 0.86553 0.8008 0.0
C1746 C 0.70319 0.84821 0.83056 0.0
C1747 C 0.77144 0.90875 0.78641 0.0
C1748 C 0.68943 0.91753 0.78402 0.0
C1749 C 0.69056 0.93466 0.80193 0.0
C1750 C 0.70445 0.89901 0.78601 0.0
C1751 C 0.7209 0.89746 0.80647 0.0
C1752 C 0.72184 0.91442 0.82479 0.0
C1753 C 0.70672 0.93286 0.82227 0.0
C1754 C 0.703 0.88132 0.76603 0.0
C1755 C 0.739 0.91325 0.84697 0.0
H1756 H 0.73787 0.81848 0.82992 0.0
H1757 H 0.7958 0.86985 0.79371 0.0
H1758 H 0.70105 0.86149 0.84427 0.0
H1759 H 0.68867 0.8498 0.81605 0.0
H1760 H 0.69959 0.82913 0.83933 0.0
H1761 H 0.79067 0.90993 0.77968 0.0
H1762 H 0.7588 0.91262 0.7708 0.0
H1763 H 0.77163 0.9235 0.79919 0.0
H1764 H 0.67705 0.91879 0.76822 0.0
H1765 H 0.70768 0.94595 0.83623 0.0
H1766 H 0.69805 0.86192 0.77366 0.0
H1767 H 0.72158 0.88315 0.75773 0.0
H1768 H 0.68895 0.88473 0.75152 0.0
H1769 H 0.73493 0.89462 0.85659 0.0
H1770 H 0.73704 0.92739 0.85988 0.0
H1771 H 0.75877 0.91615 0.84139 0.0
C1772 C 0.61496 0.53666 0.98961 0.0
C1773 C 0.61345 0.51121 0.98695 0.0
C1774 C 0.63767 0.55141 0.9964 0.0
C1775 C 0.65938 0.54045 0.00063 0.0
C1776 C 0.65807 0.51485 0.99763 0.0
C1777 C 0.63512 0.50055 0.99082 0.0
C1778 C 0.63833 0.57865 0.99944 0.0
C1779 C 0.68085 0.50253 0.00186 0.0
C1780 C 0.72267 0.58289 0.99916 0.0
C1781 C 0.72823 0.58564 0.02399 0.0
C1782 C 0.70043 0.56806 0.99129 0.0
C1783 C 0.68334 0.55569 0.00867 0.0
C1784 C 0.68897 0.55815 0.03376 0.0
C1785 C 0.71135 0.57309 0.04112 0.0
C1786 C 0.69508 0.56587 0.96438 0.0
C1787 C 0.67121 0.54519 0.05282 0.0
H1788 H 0.59822 0.54495 0.98695 0.0
H1789 H 0.63414 0.48096 0.98847 0.0
H1790 H 0.64363 0.58286 0.01852 0.0
H1791 H 0.65275 0.58995 0.98773 0.0
H1792 H 0.61998 0.58445 0.99477 0.0
H1793 H 0.6768 0.48255 0.99826 0.0
H1794 H 0.69612 0.51191 0.98997 0.0
H1795 H 0.68789 0.50431 0.02093 0.0
H1796 H 0.7356 0.59251 0.98579 0.0
H1797 H 0.71549 0.57509 0.06034 0.0
H1798 H 0.6776 0.57305 0.95898 0.0
H1799 H 0.69205 0.5461 0.96009 0.0
H1800 H 0.71054 0.57625 0.95323 0.0
H1801 H 0.65289 0.55158 0.05032 0.0
H1802 H 0.67854 0.54868 0.07159 0.0
H1803 H 0.66772 0.52491 0.05079 0.0
C1804 C 0.23661 0.66608 0.22961 0.0
C1805 C 0.26173 0.66921 0.23803 0.0
C1806 C 0.22012 0.6437 0.23434 0.0
C1807 C 0.22857 0.62425 0.24873 0.0
C1808 C 0.25371 0.62727 0.2576 0.0
C1809 C 0.27008 0.64947 0.25174 0.0
C1810 C 0.19361 0.64095 0.22401 0.0
C1811 C 0.26323 0.60717 0.27355 0.0
C1812 C 0.17798 0.5776 0.28012 0.0
C1813 C 0.17653 0.55721 0.26595 0.0
C1814 C 0.19535 0.59931 0.27512 0.0
C1815 C 0.21091 0.60091 0.25488 0.0
C1816 C 0.20928 0.5804 0.24033 0.0
C1817 C 0.19241 0.55857 0.24635 0.0
C1818 C 0.19713 0.62044 0.29157 0.0
C1819 C 0.22492 0.58172 0.21811 0.0
H1820 H 0.22959 0.6812 0.2195 0.0
H1821 H 0.2895 0.65124 0.25793 0.0
H1822 H 0.18911 0.62392 0.21384 0.0
H1823 H 0.18023 0.63898 0.23897 0.0
H1824 H 0.19055 0.65708 0.21162 0.0
H1825 H 0.28305 0.61278 0.27972 0.0
H1826 H 0.2515 0.60239 0.28978 0.0
H1827 H 0.26175 0.59011 0.26356 0.0
H1828 H 0.16582 0.57639 0.29544 0.0
H1829 H 0.1911 0.54279 0.2353 0.0
H1830 H 0.19189 0.63694 0.28122 0.0
H1831 H 0.21674 0.62573 0.29843 0.0
H1832 H 0.18475 0.61565 0.30735 0.0
H1833 H 0.22107 0.59722 0.2053 0.0
H1834 H 0.22109 0.56428 0.20849 0.0
H1835 H 0.24513 0.58556 0.22331 0.0
C1836 C 0.94935 0.53907 0.06502 0.0
C1837 C 0.94205 0.51409 0.06005 0.0
C1838 C 0.93327 0.55632 0.05944 0.0
C1839 C 0.90925 0.54835 0.0488 0.0
C1840 C 0.90166 0.52307 0.04406 0.0
C1841 C 0.91817 0.50628 0.04967 0.0
C1842 C 0.94211 0.58313 0.06458 0.0
C1843 C 0.87611 0.51379 0.03296 0.0
C1844 C 0.85816 0.58741 0.05229 0.0
C1845 C 0.85802 0.59893 0.02876 0.0
C1846 C 0.87496 0.57116 0.05918 0.0
C1847 C 0.89216 0.56645 0.0422 0.0
C1848 C 0.89251 0.57847 0.01862 0.0
C1849 C 0.87539 0.59448 0.01216 0.0
C1850 C 0.87393 0.55861 0.08445 0.0
C1851 C 0.91071 0.57409 1.00006 0.0
H1852 H 0.96788 0.54524 0.0728 0.0
H1853 H 0.91234 0.48693 0.04607 0.0
H1854 H 0.94244 0.59493 0.04739 0.0
H1855 H 0.92889 0.58937 0.07664 0.0
H1856 H 0.96113 0.58625 0.07333 0.0
H1857 H 0.87287 0.49348 0.03094 0.0
H1858 H 0.8613 0.51814 0.0444 0.0
H1859 H 0.87407 0.52335 0.01478 0.0
H1860 H 0.84479 0.59068 0.06524 0.0
H1861 H 0.8755 0.60337 0.99398 0.0
H1862 H 0.8926 0.56241 0.09376 0.0
H1863 H 0.86896 0.53823 0.08334 0.0
H1864 H 0.85999 0.56483 0.09574 0.0
H1865 H 0.93019 0.57819 0.00755 0.0
H1866 H 0.90932 0.58568 0.98289 0.0
H1867 H 0.90705 0.5543 0.99581 0.0
C1868 C 0.08342 0.96705 0.0326 0.0
C1869 C 0.07373 0.98118 0.01358 0.0
C1870 C 0.10386 0.95525 0.0291 0.0
C1871 C 0.11491 0.95781 0.00604 0.0
C1872 C 0.10537 0.97238 0.98685 0.0
C1873 C 0.08495 0.98404 0.99091 0.0
C1874 C 0.11362 0.94004 0.05005 0.0
C1875 C 0.11667 0.97558 0.96204 0.0
C1876 C 0.18127 0.94483 0.00276 0.0
C1877 C 0.17698 0.92051 0.99528 0.0
C1878 C 0.16125 0.95726 0.00622 0.0
C1879 C 0.13636 0.94511 0.00198 0.0
C1880 C 0.13191 0.92067 0.99416 0.0
C1881 C 0.15227 0.90865 0.99095 0.0
C1882 C 0.16673 0.98329 0.01464 0.0
C1883 C 0.10562 0.90716 0.98934 0.0
H1884 H 0.07491 0.96524 0.05022 0.0
H1885 H 0.07767 0.99533 0.97633 0.0
H1886 H 0.11232 0.92058 0.04518 0.0
H1887 H 0.13369 0.94731 0.05391 0.0
H1888 H 0.10308 0.94012 0.06688 0.0
H1889 H 0.10707 0.98756 0.94909 0.0
H1890 H 0.1368 0.98389 0.96352 0.0
H1891 H 0.11555 0.95723 0.95442 0.0
H1892 H 0.2003 0.95414 0.00618 0.0
H1893 H 0.14877 0.88989 0.98511 0.0
H1894 H 0.15787 0.98385 0.03231 0.0
H1895 H 0.15853 0.99608 0.00144 0.0
H1896 H 0.18715 0.99025 0.01682 0.0
H1897 H 0.09478 0.90525 0.00619 0.0
H1898 H 0.10537 0.8884 0.98289 0.0
H1899 H 0.09586 0.918 0.97547 0.0
loop_
_geom_bond_atom_site_label_1
_geom_bond_atom_site_label_2
_geom_bond_distance
_geom_bond_site_symmetry_2
_ccdc_geom_bond_type
H0 C7 0.929 1_655 S
H1 C10 0.930 . S
H2 C12 0.932 . S
H3 C4 0.969 1_565 S
C4 H3 0.969 1_545 S
C4 O5 1.550 . S
C4 H6 0.973 . S
O5 C4 1.550 . S
O5 C11 1.412 . S
H6 C4 0.973 . S
C7 H0 0.929 1_455 S
C7 C8 1.400 . S
C7 C9 1.364 . S
C8 C7 1.400 . S
C8 C12 1.377 . S
C9 C7 1.364 . S
C9 C10 1.374 . S
C10 H1 0.930 . S
C10 C9 1.374 . S
C10 C11 1.383 . S
C11 O5 1.412 . S
C11 C10 1.383 . S
C11 C12 1.394 . S
C12 H2 0.932 . S
C12 C8 1.377 . S
C12 C11 1.394 . S
H13 C20 0.929 . S
H14 C23 0.930 . S
H15 C25 0.929 . S
H16 C17 0.969 . S
C17 H16 0.969 . S
C17 O18 1.550 . S
C17 H19 0.973 . S
O18 C17 1.550 . S
O18 C24 1.412 . S
H19 C17 0.973 . S
C20 H13 0.929 . S
C20 C21 1.400 . S
C20 C22 1.364 . S
C21 C20 1.400 . S
C21 C25 1.377 . S
C22 C20 1.364 . S
C22 C23 1.374 . S
C23 H14 0.930 . S
C23 C22 1.374 . S
C23 C24 1.383 . S
C24 O18 1.412 . S
C24 C23 1.383 . S
C24 C25 1.394 . S
C25 H15 0.929 . S
C25 C21 1.377 . S
C25 C24 1.394 . S
H26 C33 0.929 . S
H27 C36 0.930 . S
H28 C38 0.929 1_455 S
H29 C30 0.969 . S
C30 H29 0.969 . S
C30 O31 1.550 . S
C30 H32 0.973 . S
O31 C30 1.550 . S
O31 C37 1.412 . S
H32 C30 0.973 . S
C33 H26 0.929 . S
C33 C34 1.400 . S
C33 C35 1.364 . S
C34 C33 1.400 . S
C34 C38 1.377 . S
C35 C33 1.364 . S
C35 C36 1.374 . S
C36 H27 0.930 . S
C36 C35 1.374 . S
C36 C37 1.383 . S
C37 O31 1.412 . S
C37 C36 1.383 . S
C37 C38 1.394 . S
C38 H28 0.929 1_655 S
C38 C34 1.377 . S
C38 C37 1.394 . S
H39 C46 0.929 . S
H40 C49 0.930 . S
H41 C51 0.929 . S
H42 C43 0.969 . S
C43 H42 0.969 . S
C43 O44 1.550 . S
C43 H45 0.973 . S
O44 C43 1.550 . S
O44 C50 1.412 . S
H45 C43 0.973 . S
C46 H39 0.929 . S
C46 C47 1.400 . S
C46 C48 1.364 . S
C47 C46 1.400 . S
C47 C51 1.377 . S
C48 C46 1.364 . S
C48 C49 1.374 . S
C49 H40 0.930 . S
C49 C48 1.374 . S
C49 C50 1.383 . S
C50 O44 1.412 . S
C50 C49 1.383 . S
C50 C51 1.394 . S
C51 H41 0.929 . S
C51 C47 1.377 . S
C51 C50 1.394 . S
H52 C59 0.929 . S
H53 C62 0.930 . S
H54 C64 0.929 . S
H55 C56 0.969 1_655 S
C56 H55 0.969 1_455 S
C56 O57 1.550 . S
C56 H58 0.973 . S
O57 C56 1.550 . S
O57 C63 1.412 . S
H58 C56 0.973 . S
C59 H52 0.929 . S
C59 C60 1.400 . S
C59 C61 1.364 . S
C60 C59 1.400 . S
C60 C64 1.377 1_565 S
C61 C59 1.364 . S
C61 C62 1.374 . S
C62 H53 0.930 . S
C62 C61 1.374 . S
C62 C63 1.383 . S
C63 O57 1.412 . S
C63 C62 1.383 . S
C63 C64 1.394 1_565 S
C64 H54 0.929 . S
C64 C60 1.377 1_545 S
C64 C63 1.394 1_545 S
H65 C72 0.929 . S
H66 C75 0.930 . S
H67 C77 0.929 . S
H68 C69 0.969 . S
C69 H68 0.969 . S
C69 O70 1.550 . S
C69 H71 0.973 . S
O70 C69 1.550 . S
O70 C76 1.412 . S
H71 C69 0.973 . S
C72 H65 0.929 . S
C72 C73 1.400 . S
C72 C74 1.364 . S
C73 C72 1.400 . S
C73 C77 1.377 . S
C74 C72 1.364 . S
C74 C75 1.374 . S
C75 H66 0.930 . S
C75 C74 1.374 . S
C75 C76 1.383 . S
C76 O70 1.412 . S
C76 C75 1.383 . S
C76 C77 1.394 . S
C77 H67 0.929 . S
C77 C73 1.377 . S
C77 C76 1.394 . S
H78 C85 0.929 . S
H79 C88 0.930 . S
H80 C90 0.929 1_455 S
H81 C82 0.969 . S
C82 H81 0.969 . S
C82 O83 1.550 . S
C82 H84 0.973 . S
O83 C82 1.550 . S
O83 C89 1.412 1_455 S
H84 C82 0.973 . S
C85 H78 0.929 . S
C85 C86 1.400 . S
C85 C87 1.364 . S
C86 C85 1.400 . S
C86 C90 1.377 . S
C87 C85 1.364 . S
C87 C88 1.374 . S
C88 H79 0.930 . S
C88 C87 1.374 . S
C88 C89 1.383 . S
C89 O83 1.412 1_655 S
C89 C88 1.383 . S
C89 C90 1.394 . S
C90 H80 0.929 1_655 S
C90 C86 1.377 . S
C90 C89 1.394 . S
H91 C98 0.929 . S
H92 C101 0.930 . S
H93 C103 0.929 . S
H94 C95 0.969 . S
C95 H94 0.969 . S
C95 O96 1.550 . S
C95 H97 0.973 . S
O96 C95 1.550 . S
O96 C102 1.412 . S
H97 C95 0.973 . S
C98 H91 0.929 . S
C98 C99 1.400 . S
C98 C100 1.364 . S
C99 C98 1.400 . S
C99 C103 1.377 . S
C100 C98 1.364 . S
C100 C101 1.374 . S
C101 H92 0.930 . S
C101 C100 1.374 . S
C101 C102 1.383 . S
C102 O96 1.412 . S
C102 C101 1.383 . S
C102 C103 1.394 . S
C103 H93 0.929 . S
C103 C99 1.377 . S
C103 C102 1.394 . S
H104 C111 0.929 . S
H105 C114 0.930 . S
H106 C116 0.929 . S
H107 C108 0.969 . S
C108 H107 0.969 . S
C108 O109 1.550 . S
C108 H110 0.973 . S
O109 C108 1.550 . S
O109 C115 1.412 . S
H110 C108 0.973 . S
C111 H104 0.929 . S
C111 C112 1.400 . S
C111 C113 1.364 . S
C112 C111 1.400 . S
C112 C116 1.377 . S
C113 C111 1.364 . S
C113 C114 1.374 . S
C114 H105 0.930 . S
C114 C113 1.374 . S
C114 C115 1.383 . S
C115 O109 1.412 . S
C115 C114 1.383 . S
C115 C116 1.394 . S
C116 H106 0.929 . S
C116 C112 1.377 . S
C116 C115 1.394 . S
H117 C124 0.929 . S
H118 C127 0.930 . S
H119 C129 0.929 . S
H120 C121 0.969 . S
C121 H120 0.969 . S
C121 O122 1.550 . S
C121 H123 0.973 . S
O122 C121 1.550 . S
O122 C128 1.412 . S
H123 C121 0.973 . S
C124 H117 0.929 . S
C124 C125 1.400 . S
C124 C126 1.364 . S
C125 C124 1.400 . S
C125 C129 1.377 . S
C126 C124 1.364 . S
C126 C127 1.374 . S
C127 H118 0.930 . S
C127 C126 1.374 . S
C127 C128 1.383 . S
C128 O122 1.412 . S
C128 C127 1.383 . S
C128 C129 1.394 . S
C129 H119 0.929 . S
C129 C125 1.377 . S
C129 C128 1.394 . S
H130 C137 0.929 . S
H131 C140 0.930 . S
H132 C142 0.929 . S
H133 C134 0.969 . S
C134 H133 0.969 . S
C134 O135 1.550 . S
C134 H136 0.973 . S
O135 C134 1.550 . S
O135 C141 1.412 . S
H136 C134 0.973 . S
C137 H130 0.929 . S
C137 C138 1.400 . S
C137 C139 1.364 . S
C138 C137 1.400 . S
C138 C142 1.377 . S
C139 C137 1.364 . S
C139 C140 1.374 . S
C140 H131 0.930 . S
C140 C139 1.374 . S
C140 C141 1.383 . S
C141 O135 1.412 . S
C141 C140 1.383 . S
C141 C142 1.394 . S
C142 H132 0.929 . S
C142 C138 1.377 . S
C142 C141 1.394 . S
H143 C150 0.929 . S
H144 C153 0.930 . S
H145 C155 0.929 . S
H146 C147 0.969 . S
C147 H146 0.969 . S
C147 O148 1.550 . S
C147 H149 0.973 . S
O148 C147 1.550 . S
O148 C154 1.412 . S
H149 C147 0.973 . S
C150 H143 0.929 . S
C150 C151 1.400 . S
C150 C152 1.364 . S
C151 C150 1.400 . S
C151 C155 1.377 . S
C152 C150 1.364 . S
C152 C153 1.374 . S
C153 H144 0.930 . S
C153 C152 1.374 . S
C153 C154 1.383 . S
C154 O148 1.412 . S
C154 C153 1.383 . S
C154 C155 1.394 . S
C155 H145 0.929 . S
C155 C151 1.377 . S
C155 C154 1.394 . S
H156 C163 0.929 . S
H157 C166 0.930 . S
H158 C168 0.929 . S
H159 C160 0.969 . S
C160 H159 0.969 . S
C160 O161 1.550 . S
C160 H162 0.973 . S
O161 C160 1.550 . S
O161 C167 1.412 . S
H162 C160 0.973 . S
C163 H156 0.929 . S
C163 C164 1.400 . S
C163 C165 1.364 . S
C164 C163 1.400 . S
C164 C168 1.377 . S
C165 C163 1.364 . S
C165 C166 1.374 . S
C166 H157 0.930 . S
C166 C165 1.374 . S
C166 C167 1.383 . S
C167 O161 1.412 . S
C167 C166 1.383 . S
C167 C168 1.394 . S
C168 H158 0.929 . S
C168 C164 1.377 . S
C168 C167 1.394 . S
H169 C176 0.929 . S
H170 C179 0.930 . S
H171 C181 0.929 . S
H172 C173 0.969 . S
C173 H172 0.969 . S
C173 O174 1.550 . S
C173 H175 0.973 . S
O174 C173 1.550 . S
O174 C180 1.412 . S
H175 C173 0.973 . S
C176 H169 0.929 . S
C176 C177 1.400 . S
C176 C178 1.364 . S
C177 C176 1.400 . S
C177 C181 1.377 . S
C178 C176 1.364 . S
C178 C179 1.374 . S
C179 H170 0.930 . S
C179 C178 1.374 . S
C179 C180 1.383 . S
C180 O174 1.412 . S
C180 C179 1.383 . S
C180 C181 1.394 . S
C181 H171 0.929 . S
C181 C177 1.377 . S
C181 C180 1.394 . S
H182 C189 0.929 . S
H183 C192 0.930 . S
H184 C194 0.929 . S
H185 C186 0.969 . S
C186 H185 0.969 . S
C186 O187 1.550 . S
C186 H188 0.973 . S
O187 C186 1.550 . S
O187 C193 1.412 . S
H188 C186 0.973 . S
C189 H182 0.929 . S
C189 C190 1.400 . S
C189 C191 1.364 . S
C190 C189 1.400 . S
C190 C194 1.377 . S
C191 C189 1.364 . S
C191 C192 1.374 . S
C192 H183 0.930 . S
C192 C191 1.374 . S
C192 C193 1.383 . S
C193 O187 1.412 . S
C193 C192 1.383 . S
C193 C194 1.394 . S
C194 H184 0.929 . S
C194 C190 1.377 . S
C194 C193 1.394 . S
H195 C202 0.929 . S
H196 C205 0.930 . S
H197 C207 0.929 . S
H198 C199 0.969 . S
C199 H198 0.969 . S
C199 O200 1.550 . S
C199 H201 0.973 . S
O200 C199 1.550 . S
O200 C206 1.412 . S
H201 C199 0.973 . S
C202 H195 0.929 . S
C202 C203 1.400 . S
C202 C204 1.364 1_554 S
C203 C202 1.400 . S
C203 C207 1.377 1_554 S
C204 C202 1.364 1_556 S
C204 C205 1.374 . S
C205 H196 0.930 . S
C205 C204 1.374 . S
C205 C206 1.383 . S
C206 O200 1.412 . S
C206 C205 1.383 . S
C206 C207 1.394 . S
C207 H197 0.929 . S
C207 C203 1.377 1_556 S
C207 C206 1.394 . S
C208 O209 1.183 . S
C208 O215 1.169 1_556 S
O209 C208 1.183 . S
O210 Zn211 1.899 1_556 S
O210 C218 1.284 . S
Zn211 O210 1.899 1_554 S
Zn211 O212 2.032 1_554 S
Zn211 O215 2.086 . S
Zn211 O220 1.977 . S
O212 Zn211 2.032 1_556 S
O212 C216 1.280 . S
C213 O214 1.203 . S
C213 O220 1.267 . S
O214 C213 1.203 . S
O215 C208 1.169 1_554 S
O215 Zn211 2.086 . S
C216 O212 1.280 . S
C216 O217 1.206 1_556 S
O217 C216 1.206 1_554 S
C218 O210 1.284 . S
C218 O219 1.273 . S
O219 C218 1.273 . S
O220 Zn211 1.977 . S
O220 C213 1.267 . S
C221 O222 1.160 . S
C221 O228 1.185 . S
O222 C221 1.160 . S
O223 Zn224 1.899 . S
O223 C231 1.284 . S
Zn224 O223 1.899 . S
Zn224 O225 2.032 . S
Zn224 O228 2.086 . S
Zn224 O233 1.977 . S
O225 Zn224 2.032 . S
O225 C229 1.278 . S
C226 O227 1.203 . S
C226 O233 1.267 . S
O227 C226 1.203 . S
O228 C221 1.185 . S
O228 Zn224 2.086 . S
C229 O225 1.278 . S
C229 O230 1.211 . S
O230 C229 1.211 . S
C231 O223 1.284 . S
C231 O232 1.273 . S
O232 C231 1.273 . S
O233 Zn224 1.977 . S
O233 C226 1.267 . S
C234 O235 1.160 . S
C234 O241 1.185 . S
O235 C234 1.160 . S
O236 Zn237 1.899 . S
O236 C244 1.284 1_554 S
Zn237 O236 1.899 . S
Zn237 O238 2.032 . S
Zn237 O241 2.086 . S
Zn237 O246 1.977 . S
O238 Zn237 2.032 . S
O238 C242 1.278 . S
C239 O240 1.203 . S
C239 O246 1.267 . S
O240 C239 1.203 . S
O241 C234 1.185 . S
O241 Zn237 2.086 . S
C242 O238 1.278 . S
C242 O243 1.211 . S
O243 C242 1.211 . S
C244 O236 1.284 1_556 S
C244 O245 1.273 . S
O245 C244 1.273 . S
O246 Zn237 1.977 . S
O246 C239 1.267 . S
C247 O248 1.160 . S
C247 O254 1.185 . S
O248 C247 1.160 . S
O249 Zn250 1.899 . S
O249 C257 1.284 . S
Zn250 O249 1.899 . S
Zn250 O251 2.032 . S
Zn250 O254 2.086 . S
Zn250 O259 1.977 . S
O251 Zn250 2.032 . S
O251 C255 1.278 1_545 S
C252 O253 1.203 . S
C252 O259 1.267 . S
O253 C252 1.203 . S
O254 C247 1.185 . S
O254 Zn250 2.086 . S
C255 O251 1.278 1_565 S
C255 O256 1.211 . S
O256 C255 1.211 . S
C257 O249 1.284 . S
C257 O258 1.273 1_545 S
O258 C257 1.273 1_565 S
O259 Zn250 1.977 . S
O259 C252 1.267 . S
C260 O261 1.160 . S
C260 O267 1.185 . S
O261 C260 1.160 . S
O262 Zn263 1.899 . S
O262 C270 1.284 . S
Zn263 O262 1.899 . S
Zn263 O264 2.032 . S
Zn263 O267 2.086 . S
Zn263 O272 1.977 . S
O264 Zn263 2.032 . S
O264 C268 1.278 . S
C265 O266 1.203 . S
C265 O272 1.267 . S
O266 C265 1.203 . S
O267 C260 1.185 . S
O267 Zn263 2.086 . S
C268 O264 1.278 . S
C268 O269 1.211 . S
O269 C268 1.211 . S
C270 O262 1.284 . S
C270 O271 1.273 . S
O271 C270 1.273 . S
O272 Zn263 1.977 . S
O272 C265 1.267 . S
C273 O274 1.160 . S
C273 O280 1.185 . S
O274 C273 1.160 . S
O275 Zn276 1.899 . S
O275 C283 1.284 . S
Zn276 O275 1.899 . S
Zn276 O277 2.032 . S
Zn276 O280 2.086 . S
Zn276 O285 1.977 . S
O277 Zn276 2.032 . S
O277 C281 1.278 . S
C278 O279 1.203 . S
C278 O285 1.267 . S
O279 C278 1.203 . S
O280 C273 1.185 . S
O280 Zn276 2.086 . S
C281 O277 1.278 . S
C281 O282 1.211 . S
O282 C281 1.211 . S
C283 O275 1.284 . S
C283 O284 1.273 . S
O284 C283 1.273 . S
O285 Zn276 1.977 . S
O285 C278 1.267 . S
C286 O287 1.160 . S
C286 O293 1.185 . S
O287 C286 1.160 . S
O288 Zn289 1.899 . S
O288 C296 1.284 . S
Zn289 O288 1.899 . S
Zn289 O290 2.032 . S
Zn289 O293 2.086 . S
Zn289 O298 1.977 . S
O290 Zn289 2.032 . S
O290 C294 1.278 . S
C291 O292 1.203 . S
C291 O298 1.267 . S
O292 C291 1.203 . S
O293 C286 1.185 . S
O293 Zn289 2.086 . S
C294 O290 1.278 . S
C294 O295 1.211 . S
O295 C294 1.211 . S
C296 O288 1.284 . S
C296 O297 1.273 . S
O297 C296 1.273 . S
O298 Zn289 1.977 . S
O298 C291 1.267 . S
C299 O300 1.160 . S
C299 O306 1.185 . S
O300 C299 1.160 . S
O301 Zn302 1.899 . S
O301 C309 1.284 1_565 S
Zn302 O301 1.899 . S
Zn302 O303 2.032 1_565 S
Zn302 O306 2.086 . S
Zn302 O311 1.977 . S
O303 Zn302 2.032 1_545 S
O303 C307 1.278 . S
C304 O305 1.203 1_565 S
C304 O311 1.267 . S
O305 C304 1.203 1_545 S
O306 C299 1.185 . S
O306 Zn302 2.086 . S
C307 O303 1.278 . S
C307 O308 1.211 . S
O308 C307 1.211 . S
C309 O301 1.284 1_545 S
C309 O310 1.273 . S
O310 C309 1.273 . S
O311 Zn302 1.977 . S
O311 C304 1.267 . S
C312 O313 1.160 . S
C312 O319 1.185 1_655 S
O313 C312 1.160 . S
O314 Zn315 1.899 1_655 S
O314 C322 1.284 . S
Zn315 O314 1.899 1_455 S
Zn315 O316 2.032 1_455 S
Zn315 O319 2.086 . S
Zn315 O324 1.977 . S
O316 Zn315 2.032 1_655 S
O316 C320 1.278 1_655 S
C317 O318 1.203 . S
C317 O324 1.267 . S
O318 C317 1.203 . S
O319 C312 1.185 1_455 S
O319 Zn315 2.086 . S
C320 O316 1.278 1_455 S
C320 O321 1.211 . S
O321 C320 1.211 . S
C322 O314 1.284 . S
C322 O323 1.273 . S
O323 C322 1.273 . S
O324 Zn315 1.977 . S
O324 C317 1.267 . S
C325 O326 1.160 . S
C325 O332 1.185 . S
O326 C325 1.160 . S
O327 Zn328 1.899 . S
O327 C335 1.284 . S
Zn328 O327 1.899 . S
Zn328 O329 2.032 . S
Zn328 O332 2.086 . S
Zn328 O337 1.977 . S
O329 Zn328 2.032 . S
O329 C333 1.278 . S
C330 O331 1.203 . S
C330 O337 1.267 . S
O331 C330 1.203 . S
O332 C325 1.185 . S
O332 Zn328 2.086 . S
C333 O329 1.278 . S
C333 O334 1.211 . S
O334 C333 1.211 . S
C335 O327 1.284 . S
C335 O336 1.273 . S
O336 C335 1.273 . S
O337 Zn328 1.977 . S
O337 C330 1.267 . S
C338 O339 1.160 . S
C338 O345 1.185 . S
O339 C338 1.160 . S
O340 Zn341 1.899 . S
O340 C348 1.284 1_455 S
Zn341 O340 1.899 . S
Zn341 O342 2.032 . S
Zn341 O345 2.086 . S
Zn341 O350 1.977 . S
O342 Zn341 2.032 . S
O342 C346 1.278 . S
C343 O344 1.203 . S
C343 O350 1.267 . S
O344 C343 1.203 . S
O345 C338 1.185 . S
O345 Zn341 2.086 . S
C346 O342 1.278 . S
C346 O347 1.211 . S
O347 C346 1.211 . S
C348 O340 1.284 1_655 S
C348 O349 1.273 . S
O349 C348 1.273 . S
O350 Zn341 1.977 . S
O350 C343 1.267 . S
C351 O352 1.160 . S
C351 O358 1.185 . S
O352 C351 1.160 . S
O353 Zn354 1.899 . S
O353 C361 1.284 . S
Zn354 O353 1.899 . S
Zn354 O355 2.032 . S
Zn354 O358 2.086 . S
Zn354 O363 1.977 . S
O355 Zn354 2.032 . S
O355 C359 1.278 . S
C356 O357 1.203 . S
C356 O363 1.267 . S
O357 C356 1.203 . S
O358 C351 1.185 . S
O358 Zn354 2.086 . S
C359 O355 1.278 . S
C359 O360 1.211 . S
O360 C359 1.211 . S
C361 O353 1.284 . S
C361 O362 1.273 . S
O362 C361 1.273 . S
O363 Zn354 1.977 . S
O363 C356 1.267 . S
C364 C365 1.391 . S
C364 C366 1.394 . S
C364 H380 0.931 . S
C365 C364 1.391 . S
C365 C369 1.376 . S
C366 C364 1.394 . S
C366 C367 1.369 . S
C366 C370 1.531 . S
C367 C366 1.369 . S
C367 C368 1.410 . S
C367 C375 1.503 . S
C368 C367 1.410 . S
C368 C369 1.392 . S
C368 C371 1.511 . S
C369 C365 1.376 . S
C369 C368 1.392 . S
C369 H381 0.929 . S
C370 C366 1.531 . S
C370 H382 0.960 . S
C370 H383 0.962 . S
C370 H384 0.960 . S
C371 C368 1.511 . S
C371 H385 0.961 . S
C371 H386 0.961 . S
C371 H387 0.961 . S
C372 C373 1.370 . S
C372 C374 1.363 . S
C372 H388 0.931 . S
C373 C372 1.370 . S
C373 C377 1.408 . S
C374 C372 1.363 . S
C374 C375 1.370 . S
C374 C378 1.524 . S
C375 C367 1.503 . S
C375 C374 1.370 . S
C375 C376 1.403 . S
C376 C375 1.403 . S
C376 C377 1.404 . S
C376 C379 1.539 . S
C377 C373 1.408 . S
C377 C376 1.404 . S
C377 H389 0.930 . S
C378 C374 1.524 . S
C378 H390 0.956 . S
C378 H391 0.961 . S
C378 H392 0.961 . S
C379 C376 1.539 . S
C379 H393 0.958 . S
C379 H394 0.961 . S
C379 H395 0.960 . S
H380 C364 0.931 . S
H381 C369 0.929 . S
H382 C370 0.960 . S
H383 C370 0.962 . S
H384 C370 0.960 . S
H385 C371 0.961 . S
H386 C371 0.961 . S
H387 C371 0.961 . S
H388 C372 0.931 . S
H389 C377 0.930 . S
H390 C378 0.956 . S
H391 C378 0.961 . S
H392 C378 0.961 . S
H393 C379 0.958 . S
H394 C379 0.961 . S
H395 C379 0.960 . S
C396 C397 1.391 . S
C396 C398 1.394 . S
C396 H412 0.931 . S
C397 C396 1.391 . S
C397 C401 1.376 . S
C398 C396 1.394 . S
C398 C399 1.369 . S
C398 C402 1.531 . S
C399 C398 1.369 . S
C399 C400 1.410 . S
C399 C407 1.503 . S
C400 C399 1.410 . S
C400 C401 1.392 . S
C400 C403 1.511 . S
C401 C397 1.376 . S
C401 C400 1.392 . S
C401 H413 0.929 . S
C402 C398 1.531 . S
C402 H414 0.960 . S
C402 H415 0.962 . S
C402 H416 0.960 . S
C403 C400 1.511 . S
C403 H417 0.961 . S
C403 H418 0.961 . S
C403 H419 0.961 . S
C404 C405 1.370 . S
C404 C406 1.363 . S
C404 H420 0.931 . S
C405 C404 1.370 . S
C405 C409 1.408 . S
C406 C404 1.363 . S
C406 C407 1.370 . S
C406 C410 1.524 . S
C407 C399 1.503 . S
C407 C406 1.370 . S
C407 C408 1.403 . S
C408 C407 1.403 . S
C408 C409 1.404 . S
C408 C411 1.539 . S
C409 C405 1.408 . S
C409 C408 1.404 . S
C409 H421 0.930 . S
C410 C406 1.524 . S
C410 H422 0.956 . S
C410 H423 0.961 . S
C410 H424 0.961 . S
C411 C408 1.539 . S
C411 H425 0.958 . S
C411 H426 0.961 . S
C411 H427 0.960 . S
H412 C396 0.931 . S
H413 C401 0.929 . S
H414 C402 0.960 . S
H415 C402 0.962 . S
H416 C402 0.960 . S
H417 C403 0.961 . S
H418 C403 0.961 . S
H419 C403 0.961 . S
H420 C404 0.931 . S
H421 C409 0.930 . S
H422 C410 0.956 . S
H423 C410 0.961 . S
H424 C410 0.961 . S
H425 C411 0.958 . S
H426 C411 0.961 . S
H427 C411 0.960 . S
C428 C429 1.391 . S
C428 C430 1.394 . S
C428 H444 0.931 . S
C429 C428 1.391 . S
C429 C433 1.376 . S
C430 C428 1.394 . S
C430 C431 1.369 . S
C430 C434 1.531 . S
C431 C430 1.369 . S
C431 C432 1.410 . S
C431 C439 1.503 . S
C432 C431 1.410 . S
C432 C433 1.392 . S
C432 C435 1.511 . S
C433 C429 1.376 . S
C433 C432 1.392 . S
C433 H445 0.929 . S
C434 C430 1.531 . S
C434 H446 0.960 . S
C434 H447 0.962 . S
C434 H448 0.960 . S
C435 C432 1.511 . S
C435 H449 0.961 . S
C435 H450 0.961 . S
C435 H451 0.961 . S
C436 C437 1.370 . S
C436 C438 1.363 . S
C436 H452 0.931 . S
C437 C436 1.370 . S
C437 C441 1.408 . S
C438 C436 1.363 . S
C438 C439 1.370 . S
C438 C442 1.524 . S
C439 C431 1.503 . S
C439 C438 1.370 . S
C439 C440 1.403 . S
C440 C439 1.403 . S
C440 C441 1.404 . S
C440 C443 1.539 . S
C441 C437 1.408 . S
C441 C440 1.404 . S
C441 H453 0.930 . S
C442 C438 1.524 . S
C442 H454 0.956 . S
C442 H455 0.961 . S
C442 H456 0.961 . S
C443 C440 1.539 . S
C443 H457 0.958 . S
C443 H458 0.961 . S
C443 H459 0.960 . S
H444 C428 0.931 . S
H445 C433 0.929 . S
H446 C434 0.960 . S
H447 C434 0.962 . S
H448 C434 0.960 . S
H449 C435 0.961 . S
H450 C435 0.961 . S
H451 C435 0.961 . S
H452 C436 0.931 . S
H453 C441 0.930 . S
H454 C442 0.956 . S
H455 C442 0.961 . S
H456 C442 0.961 . S
H457 C443 0.958 . S
H458 C443 0.961 . S
H459 C443 0.960 . S
C460 C461 1.391 1_445 S
C460 C462 1.394 1_455 S
C460 H476 0.931 . S
C461 C460 1.391 1_665 S
C461 C465 1.376 . S
C462 C460 1.394 1_655 S
C462 C463 1.369 1_545 S
C462 C466 1.531 1_655 S
C463 C462 1.369 1_565 S
C463 C464 1.410 . S
C463 C471 1.503 1_565 S
C464 C463 1.410 . S
C464 C465 1.392 . S
C464 C467 1.511 . S
C465 C461 1.376 . S
C465 C464 1.392 . S
C465 H477 0.929 . S
C466 C462 1.531 1_455 S
C466 H478 0.960 1_455 S
C466 H479 0.962 . S
C466 H480 0.960 . S
C467 C464 1.511 . S
C467 H481 0.961 . S
C467 H482 0.961 . S
C467 H483 0.961 . S
C468 C469 1.370 . S
C468 C470 1.363 . S
C468 H484 0.931 . S
C469 C468 1.370 . S
C469 C473 1.408 1_545 S
C470 C468 1.363 . S
C470 C471 1.370 . S
C470 C474 1.524 . S
C471 C463 1.503 1_545 S
C471 C470 1.370 . S
C471 C472 1.403 1_545 S
C472 C471 1.403 1_565 S
C472 C473 1.404 . S
C472 C475 1.539 . S
C473 C469 1.408 1_565 S
C473 C472 1.404 . S
C473 H485 0.930 . S
C474 C470 1.524 . S
C474 H486 0.956 . S
C474 H487 0.961 . S
C474 H488 0.961 . S
C475 C472 1.539 . S
C475 H489 0.958 . S
C475 H490 0.961 . S
C475 H491 0.960 . S
H476 C460 0.931 . S
H477 C465 0.929 . S
H478 C466 0.960 1_655 S
H479 C466 0.962 . S
H480 C466 0.960 . S
H481 C467 0.961 . S
H482 C467 0.961 . S
H483 C467 0.961 . S
H484 C468 0.931 . S
H485 C473 0.930 . S
H486 C474 0.956 . S
H487 C474 0.961 . S
H488 C474 0.961 . S
H489 C475 0.958 . S
H490 C475 0.961 . S
H491 C475 0.960 . S
C492 C493 1.391 . S
C492 C494 1.394 . S
C492 H508 0.931 . S
C493 C492 1.391 . S
C493 C497 1.376 . S
C494 C492 1.394 . S
C494 C495 1.369 . S
C494 C498 1.531 . S
C495 C494 1.369 . S
C495 C496 1.410 . S
C495 C503 1.503 . S
C496 C495 1.410 . S
C496 C497 1.392 . S
C496 C499 1.511 . S
C497 C493 1.376 . S
C497 C496 1.392 . S
C497 H509 0.929 . S
C498 C494 1.531 . S
C498 H510 0.960 . S
C498 H511 0.962 . S
C498 H512 0.960 . S
C499 C496 1.511 . S
C499 H513 0.961 . S
C499 H514 0.961 . S
C499 H515 0.961 . S
C500 C501 1.370 . S
C500 C502 1.363 . S
C500 H516 0.931 . S
C501 C500 1.370 . S
C501 C505 1.408 . S
C502 C500 1.363 . S
C502 C503 1.370 . S
C502 C506 1.524 . S
C503 C495 1.503 . S
C503 C502 1.370 . S
C503 C504 1.403 . S
C504 C503 1.403 . S
C504 C505 1.404 . S
C504 C507 1.539 . S
C505 C501 1.408 . S
C505 C504 1.404 . S
C505 H517 0.930 . S
C506 C502 1.524 . S
C506 H518 0.956 . S
C506 H519 0.961 . S
C506 H520 0.961 . S
C507 C504 1.539 . S
C507 H521 0.958 . S
C507 H522 0.961 . S
C507 H523 0.960 . S
H508 C492 0.931 . S
H509 C497 0.929 . S
H510 C498 0.960 . S
H511 C498 0.962 . S
H512 C498 0.960 . S
H513 C499 0.961 . S
H514 C499 0.961 . S
H515 C499 0.961 . S
H516 C500 0.931 . S
H517 C505 0.930 . S
H518 C506 0.956 . S
H519 C506 0.961 . S
H520 C506 0.961 . S
H521 C507 0.958 . S
H522 C507 0.961 . S
H523 C507 0.960 . S
C524 C525 1.391 . S
C524 C526 1.394 . S
C524 H540 0.931 . S
C525 C524 1.391 . S
C525 C529 1.376 . S
C526 C524 1.394 . S
C526 C527 1.369 . S
C526 C530 1.531 . S
C527 C526 1.369 . S
C527 C528 1.410 . S
C527 C535 1.503 . S
C528 C527 1.410 . S
C528 C529 1.392 . S
C528 C531 1.511 . S
C529 C525 1.376 . S
C529 C528 1.392 . S
C529 H541 0.929 . S
C530 C526 1.531 . S
C530 H542 0.960 . S
C530 H543 0.962 . S
C530 H544 0.960 . S
C531 C528 1.511 . S
C531 H545 0.961 . S
C531 H546 0.961 . S
C531 H547 0.961 . S
C532 C533 1.370 . S
C532 C534 1.363 . S
C532 H548 0.931 . S
C533 C532 1.370 . S
C533 C537 1.408 . S
C534 C532 1.363 . S
C534 C535 1.370 . S
C534 C538 1.524 . S
C535 C527 1.503 . S
C535 C534 1.370 . S
C535 C536 1.403 . S
C536 C535 1.403 . S
C536 C537 1.404 . S
C536 C539 1.539 . S
C537 C533 1.408 . S
C537 C536 1.404 . S
C537 H549 0.930 . S
C538 C534 1.524 . S
C538 H550 0.956 . S
C538 H551 0.961 . S
C538 H552 0.961 . S
C539 C536 1.539 . S
C539 H553 0.958 . S
C539 H554 0.961 . S
C539 H555 0.960 . S
H540 C524 0.931 . S
H541 C529 0.929 . S
H542 C530 0.960 . S
H543 C530 0.962 . S
H544 C530 0.960 . S
H545 C531 0.961 . S
H546 C531 0.961 . S
H547 C531 0.961 . S
H548 C532 0.931 . S
H549 C537 0.930 . S
H550 C538 0.956 . S
H551 C538 0.961 . S
H552 C538 0.961 . S
H553 C539 0.958 . S
H554 C539 0.961 . S
H555 C539 0.960 . S
C556 C557 1.391 . S
C556 C558 1.394 . S
C556 H572 0.931 . S
C557 C556 1.391 . S
C557 C561 1.376 . S
C558 C556 1.394 . S
C558 C559 1.369 . S
C558 C562 1.531 . S
C559 C558 1.369 . S
C559 C560 1.410 . S
C559 C567 1.503 . S
C560 C559 1.410 . S
C560 C561 1.392 . S
C560 C563 1.511 . S
C561 C557 1.376 . S
C561 C560 1.392 . S
C561 H573 0.929 . S
C562 C558 1.531 . S
C562 H574 0.960 . S
C562 H575 0.962 . S
C562 H576 0.960 . S
C563 C560 1.511 . S
C563 H577 0.961 . S
C563 H578 0.961 . S
C563 H579 0.961 . S
C564 C565 1.370 . S
C564 C566 1.363 . S
C564 H580 0.931 . S
C565 C564 1.370 . S
C565 C569 1.408 . S
C566 C564 1.363 . S
C566 C567 1.370 . S
C566 C570 1.524 . S
C567 C559 1.503 . S
C567 C566 1.370 . S
C567 C568 1.403 . S
C568 C567 1.403 . S
C568 C569 1.404 . S
C568 C571 1.539 . S
C569 C565 1.408 . S
C569 C568 1.404 . S
C569 H581 0.930 . S
C570 C566 1.524 . S
C570 H582 0.956 . S
C570 H583 0.961 . S
C570 H584 0.961 . S
C571 C568 1.539 . S
C571 H585 0.958 . S
C571 H586 0.961 . S
C571 H587 0.960 . S
H572 C556 0.931 . S
H573 C561 0.929 . S
H574 C562 0.960 . S
H575 C562 0.962 . S
H576 C562 0.960 . S
H577 C563 0.961 . S
H578 C563 0.961 . S
H579 C563 0.961 . S
H580 C564 0.931 . S
H581 C569 0.930 . S
H582 C570 0.956 . S
H583 C570 0.961 . S
H584 C570 0.961 . S
H585 C571 0.958 . S
H586 C571 0.961 . S
H587 C571 0.960 . S
C588 C589 1.391 . S
C588 C590 1.394 . S
C588 H604 0.931 . S
C589 C588 1.391 . S
C589 C593 1.376 . S
C590 C588 1.394 . S
C590 C591 1.369 . S
C590 C594 1.531 1_565 S
C591 C590 1.369 . S
C591 C592 1.410 . S
C591 C599 1.503 . S
C592 C591 1.410 . S
C592 C593 1.392 . S
C592 C595 1.511 . S
C593 C589 1.376 . S
C593 C592 1.392 . S
C593 H605 0.929 . S
C594 C590 1.531 1_545 S
C594 H606 0.960 . S
C594 H607 0.962 1_545 S
C594 H608 0.960 . S
C595 C592 1.511 . S
C595 H609 0.961 . S
C595 H610 0.961 . S
C595 H611 0.961 . S
C596 C597 1.370 . S
C596 C598 1.363 . S
C596 H612 0.931 . S
C597 C596 1.370 . S
C597 C601 1.408 1_565 S
C598 C596 1.363 . S
C598 C599 1.370 . S
C598 C602 1.524 . S
C599 C591 1.503 . S
C599 C598 1.370 . S
C599 C600 1.403 1_565 S
C600 C599 1.403 1_545 S
C600 C601 1.404 . S
C600 C603 1.539 . S
C601 C597 1.408 1_545 S
C601 C600 1.404 . S
C601 H613 0.930 . S
C602 C598 1.524 . S
C602 H614 0.956 . S
C602 H615 0.961 . S
C602 H616 0.961 . S
C603 C600 1.539 . S
C603 H617 0.958 . S
C603 H618 0.961 . S
C603 H619 0.960 . S
H604 C588 0.931 . S
H605 C593 0.929 . S
H606 C594 0.960 . S
H607 C594 0.962 1_565 S
H608 C594 0.960 . S
H609 C595 0.961 . S
H610 C595 0.961 . S
H611 C595 0.961 . S
H612 C596 0.931 . S
H613 C601 0.930 . S
H614 C602 0.956 . S
H615 C602 0.961 . S
H616 C602 0.961 . S
H617 C603 0.958 . S
H618 C603 0.961 . S
H619 C603 0.960 . S
C620 C621 1.391 . S
C620 C622 1.394 . S
C620 H636 0.931 . S
C621 C620 1.391 . S
C621 C625 1.376 . S
C622 C620 1.394 . S
C622 C623 1.369 . S
C622 C626 1.531 . S
C623 C622 1.369 . S
C623 C624 1.410 . S
C623 C631 1.503 . S
C624 C623 1.410 . S
C624 C625 1.392 . S
C624 C627 1.511 . S
C625 C621 1.376 . S
C625 C624 1.392 . S
C625 H637 0.929 . S
C626 C622 1.531 . S
C626 H638 0.960 . S
C626 H639 0.962 . S
C626 H640 0.960 . S
C627 C624 1.511 . S
C627 H641 0.961 . S
C627 H642 0.961 . S
C627 H643 0.961 . S
C628 C629 1.370 . S
C628 C630 1.363 . S
C628 H644 0.931 . S
C629 C628 1.370 . S
C629 C633 1.408 . S
C630 C628 1.363 . S
C630 C631 1.370 . S
C630 C634 1.524 . S
C631 C623 1.503 . S
C631 C630 1.370 . S
C631 C632 1.403 . S
C632 C631 1.403 . S
C632 C633 1.404 . S
C632 C635 1.539 . S
C633 C629 1.408 . S
C633 C632 1.404 . S
C633 H645 0.930 . S
C634 C630 1.524 . S
C634 H646 0.956 . S
C634 H647 0.961 . S
C634 H648 0.961 . S
C635 C632 1.539 . S
C635 H649 0.958 . S
C635 H650 0.961 . S
C635 H651 0.960 . S
H636 C620 0.931 . S
H637 C625 0.929 . S
H638 C626 0.960 . S
H639 C626 0.962 . S
H640 C626 0.960 . S
H641 C627 0.961 . S
H642 C627 0.961 . S
H643 C627 0.961 . S
H644 C628 0.931 . S
H645 C633 0.930 . S
H646 C634 0.956 . S
H647 C634 0.961 . S
H648 C634 0.961 . S
H649 C635 0.958 . S
H650 C635 0.961 . S
H651 C635 0.960 . S
C652 C653 1.391 . S
C652 C654 1.394 . S
C652 H668 0.931 . S
C653 C652 1.391 . S
C653 C657 1.376 . S
C654 C652 1.394 . S
C654 C655 1.369 . S
C654 C658 1.531 . S
C655 C654 1.369 . S
C655 C656 1.410 . S
C655 C663 1.503 . S
C656 C655 1.410 . S
C656 C657 1.392 . S
C656 C659 1.511 . S
C657 C653 1.376 . S
C657 C656 1.392 . S
C657 H669 0.929 . S
C658 C654 1.531 . S
C658 H670 0.960 . S
C658 H671 0.962 . S
C658 H672 0.960 . S
C659 C656 1.511 . S
C659 H673 0.961 . S
C659 H674 0.961 . S
C659 H675 0.961 . S
C660 C661 1.370 . S
C660 C662 1.363 . S
C660 H676 0.931 . S
C661 C660 1.370 . S
C661 C665 1.408 . S
C662 C660 1.363 . S
C662 C663 1.370 . S
C662 C666 1.524 . S
C663 C655 1.503 . S
C663 C662 1.370 . S
C663 C664 1.403 . S
C664 C663 1.403 . S
C664 C665 1.404 . S
C664 C667 1.539 . S
C665 C661 1.408 . S
C665 C664 1.404 . S
C665 H677 0.930 . S
C666 C662 1.524 . S
C666 H678 0.956 . S
C666 H679 0.961 . S
C666 H680 0.961 . S
C667 C664 1.539 . S
C667 H681 0.958 . S
C667 H682 0.961 . S
C667 H683 0.960 . S
H668 C652 0.931 . S
H669 C657 0.929 . S
H670 C658 0.960 . S
H671 C658 0.962 . S
H672 C658 0.960 . S
H673 C659 0.961 . S
H674 C659 0.961 . S
H675 C659 0.961 . S
H676 C660 0.931 . S
H677 C665 0.930 . S
H678 C666 0.956 . S
H679 C666 0.961 . S
H680 C666 0.961 . S
H681 C667 0.958 . S
H682 C667 0.961 . S
H683 C667 0.960 . S
C684 C685 1.391 . S
C684 C686 1.394 . S
C684 H700 0.931 . S
C685 C684 1.391 . S
C685 C689 1.376 . S
C686 C684 1.394 . S
C686 C687 1.369 . S
C686 C690 1.531 . S
C687 C686 1.369 . S
C687 C688 1.410 . S
C687 C695 1.503 . S
C688 C687 1.410 . S
C688 C689 1.392 . S
C688 C691 1.511 . S
C689 C685 1.376 . S
C689 C688 1.392 . S
C689 H701 0.929 . S
C690 C686 1.531 . S
C690 H702 0.960 . S
C690 H703 0.962 . S
C690 H704 0.960 . S
C691 C688 1.511 . S
C691 H705 0.961 . S
C691 H706 0.961 . S
C691 H707 0.961 . S
C692 C693 1.370 . S
C692 C694 1.363 . S
C692 H708 0.931 . S
C693 C692 1.370 . S
C693 C697 1.408 . S
C694 C692 1.363 . S
C694 C695 1.370 . S
C694 C698 1.524 . S
C695 C687 1.503 . S
C695 C694 1.370 . S
C695 C696 1.403 . S
C696 C695 1.403 . S
C696 C697 1.404 . S
C696 C699 1.539 . S
C697 C693 1.408 . S
C697 C696 1.404 . S
C697 H709 0.930 . S
C698 C694 1.524 . S
C698 H710 0.956 . S
C698 H711 0.961 . S
C698 H712 0.961 . S
C699 C696 1.539 . S
C699 H713 0.958 . S
C699 H714 0.961 . S
C699 H715 0.960 . S
H700 C684 0.931 . S
H701 C689 0.929 . S
H702 C690 0.960 . S
H703 C690 0.962 . S
H704 C690 0.960 . S
H705 C691 0.961 . S
H706 C691 0.961 . S
H707 C691 0.961 . S
H708 C692 0.931 . S
H709 C697 0.930 . S
H710 C698 0.956 . S
H711 C698 0.961 . S
H712 C698 0.961 . S
H713 C699 0.958 . S
H714 C699 0.961 . S
H715 C699 0.960 . S
C716 C717 1.391 . S
C716 C718 1.394 . S
C716 H732 0.931 . S
C717 C716 1.391 . S
C717 C721 1.376 . S
C718 C716 1.394 . S
C718 C719 1.369 . S
C718 C722 1.531 . S
C719 C718 1.369 . S
C719 C720 1.410 . S
C719 C727 1.503 . S
C720 C719 1.410 . S
C720 C721 1.392 . S
C720 C723 1.511 . S
C721 C717 1.376 . S
C721 C720 1.392 . S
C721 H733 0.929 . S
C722 C718 1.531 . S
C722 H734 0.960 . S
C722 H735 0.962 . S
C722 H736 0.960 . S
C723 C720 1.511 . S
C723 H737 0.961 . S
C723 H738 0.961 . S
C723 H739 0.961 . S
C724 C725 1.370 . S
C724 C726 1.363 . S
C724 H740 0.931 . S
C725 C724 1.370 . S
C725 C729 1.408 . S
C726 C724 1.363 . S
C726 C727 1.370 . S
C726 C730 1.524 . S
C727 C719 1.503 . S
C727 C726 1.370 . S
C727 C728 1.403 . S
C728 C727 1.403 . S
C728 C729 1.404 . S
C728 C731 1.539 . S
C729 C725 1.408 . S
C729 C728 1.404 . S
C729 H741 0.930 . S
C730 C726 1.524 . S
C730 H742 0.956 . S
C730 H743 0.961 . S
C730 H744 0.961 . S
C731 C728 1.539 . S
C731 H745 0.958 . S
C731 H746 0.961 . S
C731 H747 0.960 . S
H732 C716 0.931 . S
H733 C721 0.929 . S
H734 C722 0.960 . S
H735 C722 0.962 . S
H736 C722 0.960 . S
H737 C723 0.961 . S
H738 C723 0.961 . S
H739 C723 0.961 . S
H740 C724 0.931 . S
H741 C729 0.930 . S
H742 C730 0.956 . S
H743 C730 0.961 . S
H744 C730 0.961 . S
H745 C731 0.958 . S
H746 C731 0.961 . S
H747 C731 0.960 . S
C748 C749 1.391 . S
C748 C750 1.394 . S
C748 H764 0.931 . S
C749 C748 1.391 . S
C749 C753 1.376 . S
C750 C748 1.394 . S
C750 C751 1.369 . S
C750 C754 1.531 . S
C751 C750 1.369 . S
C751 C752 1.410 . S
C751 C759 1.503 . S
C752 C751 1.410 . S
C752 C753 1.392 . S
C752 C755 1.511 . S
C753 C749 1.376 . S
C753 C752 1.392 . S
C753 H765 0.929 . S
C754 C750 1.531 . S
C754 H766 0.960 . S
C754 H767 0.962 . S
C754 H768 0.960 . S
C755 C752 1.511 . S
C755 H769 0.961 . S
C755 H770 0.961 . S
C755 H771 0.961 . S
C756 C757 1.370 . S
C756 C758 1.363 . S
C756 H772 0.931 . S
C757 C756 1.370 . S
C757 C761 1.408 . S
C758 C756 1.363 . S
C758 C759 1.370 . S
C758 C762 1.524 . S
C759 C751 1.503 . S
C759 C758 1.370 . S
C759 C760 1.403 . S
C760 C759 1.403 . S
C760 C761 1.404 . S
C760 C763 1.539 . S
C761 C757 1.408 . S
C761 C760 1.404 . S
C761 H773 0.930 . S
C762 C758 1.524 . S
C762 H774 0.956 . S
C762 H775 0.961 . S
C762 H776 0.961 . S
C763 C760 1.539 . S
C763 H777 0.958 . S
C763 H778 0.961 . S
C763 H779 0.960 . S
H764 C748 0.931 . S
H765 C753 0.929 . S
H766 C754 0.960 . S
H767 C754 0.962 . S
H768 C754 0.960 . S
H769 C755 0.961 . S
H770 C755 0.961 . S
H771 C755 0.961 . S
H772 C756 0.931 . S
H773 C761 0.930 . S
H774 C762 0.956 . S
H775 C762 0.961 . S
H776 C762 0.961 . S
H777 C763 0.958 . S
H778 C763 0.961 . S
H779 C763 0.960 . S
C780 C781 1.391 . S
C780 C782 1.394 . S
C780 H796 0.931 . S
C781 C780 1.391 . S
C781 C785 1.376 . S
C782 C780 1.394 . S
C782 C783 1.369 . S
C782 C786 1.531 1_455 S
C783 C782 1.369 . S
C783 C784 1.410 . S
C783 C791 1.503 . S
C784 C783 1.410 . S
C784 C785 1.392 . S
C784 C787 1.511 . S
C785 C781 1.376 . S
C785 C784 1.392 . S
C785 H797 0.929 . S
C786 C782 1.531 1_655 S
C786 H798 0.960 1_655 S
C786 H799 0.962 . S
C786 H800 0.960 . S
C787 C784 1.511 . S
C787 H801 0.961 . S
C787 H802 0.961 . S
C787 H803 0.961 . S
C788 C789 1.370 . S
C788 C790 1.363 . S
C788 H804 0.931 . S
C789 C788 1.370 . S
C789 C793 1.408 . S
C790 C788 1.363 . S
C790 C791 1.370 . S
C790 C794 1.524 . S
C791 C783 1.503 . S
C791 C790 1.370 . S
C791 C792 1.403 . S
C792 C791 1.403 . S
C792 C793 1.404 . S
C792 C795 1.539 . S
C793 C789 1.408 . S
C793 C792 1.404 . S
C793 H805 0.930 . S
C794 C790 1.524 . S
C794 H806 0.956 . S
C794 H807 0.961 . S
C794 H808 0.961 . S
C795 C792 1.539 . S
C795 H809 0.958 . S
C795 H810 0.961 . S
C795 H811 0.960 . S
H796 C780 0.931 . S
H797 C785 0.929 . S
H798 C786 0.960 1_455 S
H799 C786 0.962 . S
H800 C786 0.960 . S
H801 C787 0.961 . S
H802 C787 0.961 . S
H803 C787 0.961 . S
H804 C788 0.931 . S
H805 C793 0.930 . S
H806 C794 0.956 . S
H807 C794 0.961 . S
H808 C794 0.961 . S
H809 C795 0.958 . S
H810 C795 0.961 . S
H811 C795 0.960 . S
C812 C813 1.391 . S
C812 C814 1.394 . S
C812 H828 0.931 . S
C813 C812 1.391 . S
C813 C817 1.376 . S
C814 C812 1.394 . S
C814 C815 1.369 . S
C814 C818 1.531 . S
C815 C814 1.369 . S
C815 C816 1.410 . S
C815 C823 1.503 . S
C816 C815 1.410 . S
C816 C817 1.392 . S
C816 C819 1.511 . S
C817 C813 1.376 . S
C817 C816 1.392 . S
C817 H829 0.929 . S
C818 C814 1.531 . S
C818 H830 0.960 . S
C818 H831 0.962 . S
C818 H832 0.960 . S
C819 C816 1.511 . S
C819 H833 0.961 . S
C819 H834 0.961 . S
C819 H835 0.961 . S
C820 C821 1.370 . S
C820 C822 1.363 . S
C820 H836 0.931 . S
C821 C820 1.370 . S
C821 C825 1.408 . S
C822 C820 1.363 . S
C822 C823 1.370 . S
C822 C826 1.524 . S
C823 C815 1.503 . S
C823 C822 1.370 . S
C823 C824 1.403 . S
C824 C823 1.403 . S
C824 C825 1.404 . S
C824 C827 1.539 . S
C825 C821 1.408 . S
C825 C824 1.404 . S
C825 H837 0.930 . S
C826 C822 1.524 . S
C826 H838 0.956 . S
C826 H839 0.961 . S
C826 H840 0.961 . S
C827 C824 1.539 . S
C827 H841 0.958 . S
C827 H842 0.961 . S
C827 H843 0.960 . S
H828 C812 0.931 . S
H829 C817 0.929 . S
H830 C818 0.960 . S
H831 C818 0.962 . S
H832 C818 0.960 . S
H833 C819 0.961 . S
H834 C819 0.961 . S
H835 C819 0.961 . S
H836 C820 0.931 . S
H837 C825 0.930 . S
H838 C826 0.956 . S
H839 C826 0.961 . S
H840 C826 0.961 . S
H841 C827 0.958 . S
H842 C827 0.961 . S
H843 C827 0.960 . S
C844 C845 1.380 1_455 S
C844 C846 1.394 . S
C844 H860 0.941 . S
C845 C844 1.380 1_655 S
C845 C849 1.376 . S
C846 C844 1.394 . S
C846 C847 1.369 1_455 S
C846 C850 1.531 . S
C847 C846 1.369 1_655 S
C847 C848 1.410 . S
C847 C855 1.504 1_655 S
C848 C847 1.410 . S
C848 C849 1.392 . S
C848 C851 1.511 . S
C849 C845 1.376 . S
C849 C848 1.392 . S
C849 H861 0.929 . S
C850 C846 1.531 . S
C850 H862 0.960 . S
C850 H863 0.962 . S
C850 H864 0.960 . S
C851 C848 1.511 . S
C851 H865 0.961 . S
C851 H866 0.961 . S
C851 H867 0.961 . S
C852 C853 1.370 1_655 S
C852 C854 1.363 . S
C852 H868 0.931 . S
C853 C852 1.370 1_455 S
C853 C857 1.408 . S
C854 C852 1.363 . S
C854 C855 1.364 1_655 S
C854 C858 1.524 . S
C855 C847 1.504 1_455 S
C855 C854 1.364 1_455 S
C855 C856 1.409 . S
C856 C855 1.409 . S
C856 C857 1.404 . S
C856 C859 1.539 . S
C857 C853 1.408 . S
C857 C856 1.404 . S
C857 H869 0.930 . S
C858 C854 1.524 . S
C858 H870 0.956 . S
C858 H871 0.961 . S
C858 H872 0.961 . S
C859 C856 1.539 . S
C859 H873 0.958 . S
C859 H874 0.961 . S
C859 H875 0.960 . S
H860 C844 0.941 . S
H861 C849 0.929 . S
H862 C850 0.960 . S
H863 C850 0.962 . S
H864 C850 0.960 . S
H865 C851 0.961 . S
H866 C851 0.961 . S
H867 C851 0.961 . S
H868 C852 0.931 . S
H869 C857 0.930 . S
H870 C858 0.956 . S
H871 C858 0.961 . S
H872 C858 0.961 . S
H873 C859 0.958 . S
H874 C859 0.961 . S
H875 C859 0.960 . S
C876 C877 1.391 . S
C876 C878 1.394 . S
C876 H892 0.931 . S
C877 C876 1.391 . S
C877 C881 1.376 . S
C878 C876 1.394 . S
C878 C879 1.369 . S
C878 C882 1.531 . S
C879 C878 1.369 . S
C879 C880 1.410 . S
C879 C887 1.503 . S
C880 C879 1.410 . S
C880 C881 1.392 . S
C880 C883 1.511 . S
C881 C877 1.376 . S
C881 C880 1.392 . S
C881 H893 0.929 . S
C882 C878 1.531 . S
C882 H894 0.960 . S
C882 H895 0.962 . S
C882 H896 0.960 . S
C883 C880 1.511 . S
C883 H897 0.961 . S
C883 H898 0.961 . S
C883 H899 0.961 . S
C884 C885 1.370 . S
C884 C886 1.363 . S
C884 H900 0.931 . S
C885 C884 1.370 . S
C885 C889 1.408 . S
C886 C884 1.363 . S
C886 C887 1.370 . S
C886 C890 1.524 . S
C887 C879 1.503 . S
C887 C886 1.370 . S
C887 C888 1.403 . S
C888 C887 1.403 . S
C888 C889 1.404 . S
C888 C891 1.539 . S
C889 C885 1.408 . S
C889 C888 1.404 . S
C889 H901 0.930 . S
C890 C886 1.524 . S
C890 H902 0.956 . S
C890 H903 0.961 . S
C890 H904 0.961 . S
C891 C888 1.539 . S
C891 H905 0.958 . S
C891 H906 0.961 . S
C891 H907 0.960 . S
H892 C876 0.931 . S
H893 C881 0.929 . S
H894 C882 0.960 . S
H895 C882 0.962 . S
H896 C882 0.960 . S
H897 C883 0.961 . S
H898 C883 0.961 . S
H899 C883 0.961 . S
H900 C884 0.931 . S
H901 C889 0.930 . S
H902 C890 0.956 . S
H903 C890 0.961 . S
H904 C890 0.961 . S
H905 C891 0.958 . S
H906 C891 0.961 . S
H907 C891 0.960 . S
C908 C909 1.391 . S
C908 C910 1.394 . S
C908 H924 0.931 . S
C909 C908 1.391 . S
C909 C913 1.376 . S
C910 C908 1.394 . S
C910 C911 1.369 . S
C910 C914 1.531 . S
C911 C910 1.369 . S
C911 C912 1.410 . S
C911 C919 1.503 . S
C912 C911 1.410 . S
C912 C913 1.392 . S
C912 C915 1.511 . S
C913 C909 1.376 . S
C913 C912 1.392 . S
C913 H925 0.929 . S
C914 C910 1.531 . S
C914 H926 0.960 . S
C914 H927 0.962 . S
C914 H928 0.960 . S
C915 C912 1.511 . S
C915 H929 0.961 . S
C915 H930 0.961 . S
C915 H931 0.961 . S
C916 C917 1.370 . S
C916 C918 1.363 . S
C916 H932 0.931 . S
C917 C916 1.370 . S
C917 C921 1.408 . S
C918 C916 1.363 . S
C918 C919 1.370 . S
C918 C922 1.524 . S
C919 C911 1.503 . S
C919 C918 1.370 . S
C919 C920 1.403 . S
C920 C919 1.403 . S
C920 C921 1.404 . S
C920 C923 1.539 . S
C921 C917 1.408 . S
C921 C920 1.404 . S
C921 H933 0.930 . S
C922 C918 1.524 . S
C922 H934 0.956 . S
C922 H935 0.961 . S
C922 H936 0.961 . S
C923 C920 1.539 . S
C923 H937 0.958 . S
C923 H938 0.961 . S
C923 H939 0.960 . S
H924 C908 0.931 . S
H925 C913 0.929 . S
H926 C914 0.960 . S
H927 C914 0.962 . S
H928 C914 0.960 . S
H929 C915 0.961 . S
H930 C915 0.961 . S
H931 C915 0.961 . S
H932 C916 0.931 . S
H933 C921 0.930 . S
H934 C922 0.956 . S
H935 C922 0.961 . S
H936 C922 0.961 . S
H937 C923 0.958 . S
H938 C923 0.961 . S
H939 C923 0.960 . S
C940 C941 1.391 . S
C940 C942 1.394 . S
C940 H956 0.931 . S
C941 C940 1.391 . S
C941 C945 1.376 . S
C942 C940 1.394 . S
C942 C943 1.369 1_545 S
C942 C946 1.531 . S
C943 C942 1.369 1_565 S
C943 C944 1.410 . S
C943 C951 1.503 . S
C944 C943 1.410 . S
C944 C945 1.392 1_565 S
C944 C947 1.511 . S
C945 C941 1.376 . S
C945 C944 1.392 1_545 S
C945 H957 0.929 1_545 S
C946 C942 1.531 . S
C946 H958 0.960 . S
C946 H959 0.962 . S
C946 H960 0.960 . S
C947 C944 1.511 . S
C947 H961 0.944 1_556 S
C947 H962 0.971 . S
C947 H963 0.961 . S
C948 C949 1.370 1_554 S
C948 C950 1.363 . S
C948 H964 0.931 . S
C949 C948 1.370 1_556 S
C949 C953 1.408 . S
C950 C948 1.363 . S
C950 C951 1.370 1_554 S
C950 C954 1.524 . S
C951 C943 1.503 . S
C951 C950 1.370 1_556 S
C951 C952 1.403 . S
C952 C951 1.403 . S
C952 C953 1.404 . S
C952 C955 1.539 . S
C953 C949 1.408 . S
C953 C952 1.404 . S
C953 H965 0.930 . S
C954 C950 1.524 . S
C954 H966 0.956 1_565 S
C954 H967 0.961 . S
C954 H968 0.961 . S
C955 C952 1.539 . S
C955 H969 0.958 . S
C955 H970 0.961 . S
C955 H971 0.960 . S
H956 C940 0.931 . S
H957 C945 0.929 1_565 S
H958 C946 0.960 . S
H959 C946 0.962 . S
H960 C946 0.960 . S
H961 C947 0.944 1_554 S
H962 C947 0.971 . S
H963 C947 0.961 . S
H964 C948 0.931 . S
H965 C953 0.930 . S
H966 C954 0.956 1_545 S
H967 C954 0.961 . S
H968 C954 0.961 . S
H969 C955 0.958 . S
H970 C955 0.961 . S
H971 C955 0.960 . S
C972 C973 1.391 . S
C972 C974 1.394 . S
C972 H988 0.931 . S
C973 C972 1.391 . S
C973 C977 1.376 . S
C974 C972 1.394 . S
C974 C975 1.369 . S
C974 C978 1.531 . S
C975 C974 1.369 . S
C975 C976 1.410 . S
C975 C983 1.503 . S
C976 C975 1.410 . S
C976 C977 1.392 . S
C976 C979 1.511 . S
C977 C973 1.376 . S
C977 C976 1.392 . S
C977 H989 0.929 . S
C978 C974 1.531 . S
C978 H990 0.960 . S
C978 H991 0.962 . S
C978 H992 0.960 . S
C979 C976 1.511 . S
C979 H993 0.961 . S
C979 H994 0.961 . S
C979 H995 0.961 . S
C980 C981 1.370 . S
C980 C982 1.363 . S
C980 H996 0.931 . S
C981 C980 1.370 . S
C981 C985 1.408 . S
C982 C980 1.363 . S
C982 C983 1.370 . S
C982 C986 1.524 . S
C983 C975 1.503 . S
C983 C982 1.370 . S
C983 C984 1.403 . S
C984 C983 1.403 . S
C984 C985 1.404 . S
C984 C987 1.539 . S
C985 C981 1.408 . S
C985 C984 1.404 . S
C985 H997 0.930 . S
C986 C982 1.524 . S
C986 H998 0.956 . S
C986 H999 0.961 . S
C986 H1000 0.961 . S
C987 C984 1.539 . S
C987 H1001 0.958 . S
C987 H1002 0.961 . S
C987 H1003 0.960 . S
H988 C972 0.931 . S
H989 C977 0.929 . S
H990 C978 0.960 . S
H991 C978 0.962 . S
H992 C978 0.960 . S
H993 C979 0.961 . S
H994 C979 0.961 . S
H995 C979 0.961 . S
H996 C980 0.931 . S
H997 C985 0.930 . S
H998 C986 0.956 . S
H999 C986 0.961 . S
H1000 C986 0.961 . S
H1001 C987 0.958 . S
H1002 C987 0.961 . S
H1003 C987 0.960 . S
C1004 C1005 1.391 . S
C1004 C1006 1.394 . S
C1004 H1020 0.931 . S
C1005 C1004 1.391 . S
C1005 C1009 1.376 . S
C1006 C1004 1.394 . S
C1006 C1007 1.369 . S
C1006 C1010 1.531 . S
C1007 C1006 1.369 . S
C1007 C1008 1.410 . S
C1007 C1015 1.503 . S
C1008 C1007 1.410 . S
C1008 C1009 1.392 . S
C1008 C1011 1.511 . S
C1009 C1005 1.376 . S
C1009 C1008 1.392 . S
C1009 H1021 0.929 . S
C1010 C1006 1.531 . S
C1010 H1022 0.960 . S
C1010 H1023 0.962 . S
C1010 H1024 0.960 . S
C1011 C1008 1.511 . S
C1011 H1025 0.961 . S
C1011 H1026 0.961 . S
C1011 H1027 0.961 . S
C1012 C1013 1.370 . S
C1012 C1014 1.363 . S
C1012 H1028 0.931 . S
C1013 C1012 1.370 . S
C1013 C1017 1.408 . S
C1014 C1012 1.363 . S
C1014 C1015 1.370 . S
C1014 C1018 1.524 . S
C1015 C1007 1.503 . S
C1015 C1014 1.370 . S
C1015 C1016 1.403 . S
C1016 C1015 1.403 . S
C1016 C1017 1.404 . S
C1016 C1019 1.539 . S
C1017 C1013 1.408 . S
C1017 C1016 1.404 . S
C1017 H1029 0.930 . S
C1018 C1014 1.524 . S
C1018 H1030 0.956 . S
C1018 H1031 0.961 . S
C1018 H1032 0.961 . S
C1019 C1016 1.539 . S
C1019 H1033 0.958 . S
C1019 H1034 0.961 . S
C1019 H1035 0.960 . S
H1020 C1004 0.931 . S
H1021 C1009 0.929 . S
H1022 C1010 0.960 . S
H1023 C1010 0.962 . S
H1024 C1010 0.960 . S
H1025 C1011 0.961 . S
H1026 C1011 0.961 . S
H1027 C1011 0.961 . S
H1028 C1012 0.931 . S
H1029 C1017 0.930 . S
H1030 C1018 0.956 . S
H1031 C1018 0.961 . S
H1032 C1018 0.961 . S
H1033 C1019 0.958 . S
H1034 C1019 0.961 . S
H1035 C1019 0.960 . S
C1036 C1037 1.391 . S
C1036 C1038 1.394 . S
C1036 H1052 0.931 . S
C1037 C1036 1.391 . S
C1037 C1041 1.376 . S
C1038 C1036 1.394 . S
C1038 C1039 1.369 . S
C1038 C1042 1.531 . S
C1039 C1038 1.369 . S
C1039 C1040 1.410 . S
C1039 C1047 1.503 . S
C1040 C1039 1.410 . S
C1040 C1041 1.392 . S
C1040 C1043 1.511 . S
C1041 C1037 1.376 . S
C1041 C1040 1.392 . S
C1041 H1053 0.929 . S
C1042 C1038 1.531 . S
C1042 H1054 0.960 . S
C1042 H1055 0.962 . S
C1042 H1056 0.960 . S
C1043 C1040 1.511 . S
C1043 H1057 0.961 . S
C1043 H1058 0.961 . S
C1043 H1059 0.961 . S
C1044 C1045 1.370 . S
C1044 C1046 1.363 . S
C1044 H1060 0.931 . S
C1045 C1044 1.370 . S
C1045 C1049 1.408 . S
C1046 C1044 1.363 . S
C1046 C1047 1.370 . S
C1046 C1050 1.524 . S
C1047 C1039 1.503 . S
C1047 C1046 1.370 . S
C1047 C1048 1.403 . S
C1048 C1047 1.403 . S
C1048 C1049 1.404 . S
C1048 C1051 1.539 . S
C1049 C1045 1.408 . S
C1049 C1048 1.404 . S
C1049 H1061 0.930 . S
C1050 C1046 1.524 . S
C1050 H1062 0.956 . S
C1050 H1063 0.961 . S
C1050 H1064 0.961 . S
C1051 C1048 1.539 . S
C1051 H1065 0.958 . S
C1051 H1066 0.961 . S
C1051 H1067 0.960 . S
H1052 C1036 0.931 . S
H1053 C1041 0.929 . S
H1054 C1042 0.960 . S
H1055 C1042 0.962 . S
H1056 C1042 0.960 . S
H1057 C1043 0.961 . S
H1058 C1043 0.961 . S
H1059 C1043 0.961 . S
H1060 C1044 0.931 . S
H1061 C1049 0.930 . S
H1062 C1050 0.956 . S
H1063 C1050 0.961 . S
H1064 C1050 0.961 . S
H1065 C1051 0.958 . S
H1066 C1051 0.961 . S
H1067 C1051 0.960 . S
C1068 C1069 1.384 . S
C1068 C1070 1.430 . S
C1068 H1084 0.903 1_545 S
C1069 C1068 1.384 . S
C1069 C1073 1.376 . S
C1070 C1068 1.430 . S
C1070 C1071 1.369 . S
C1070 C1074 1.531 . S
C1071 C1070 1.369 . S
C1071 C1072 1.410 . S
C1071 C1079 1.503 . S
C1072 C1071 1.410 . S
C1072 C1073 1.392 . S
C1072 C1075 1.511 . S
C1073 C1069 1.376 . S
C1073 C1072 1.392 . S
C1073 H1085 0.929 . S
C1074 C1070 1.531 . S
C1074 H1086 0.960 . S
C1074 H1087 0.962 . S
C1074 H1088 0.960 . S
C1075 C1072 1.511 . S
C1075 H1089 0.961 . S
C1075 H1090 0.961 . S
C1075 H1091 0.961 . S
C1076 C1077 1.370 . S
C1076 C1078 1.363 . S
C1076 H1092 0.931 . S
C1077 C1076 1.370 . S
C1077 C1081 1.408 . S
C1078 C1076 1.363 . S
C1078 C1079 1.370 . S
C1078 C1082 1.524 . S
C1079 C1071 1.503 . S
C1079 C1078 1.370 . S
C1079 C1080 1.403 . S
C1080 C1079 1.403 . S
C1080 C1081 1.404 . S
C1080 C1083 1.539 . S
C1081 C1077 1.408 . S
C1081 C1080 1.404 . S
C1081 H1093 0.930 . S
C1082 C1078 1.524 . S
C1082 H1094 0.956 . S
C1082 H1095 0.961 . S
C1082 H1096 0.961 . S
C1083 C1080 1.539 . S
C1083 H1097 0.958 . S
C1083 H1098 0.961 . S
C1083 H1099 0.960 . S
H1084 C1068 0.903 1_565 S
H1085 C1073 0.929 . S
H1086 C1074 0.960 . S
H1087 C1074 0.962 . S
H1088 C1074 0.960 . S
H1089 C1075 0.961 . S
H1090 C1075 0.961 . S
H1091 C1075 0.961 . S
H1092 C1076 0.931 . S
H1093 C1081 0.930 . S
H1094 C1082 0.956 . S
H1095 C1082 0.961 . S
H1096 C1082 0.961 . S
H1097 C1083 0.958 . S
H1098 C1083 0.961 . S
H1099 C1083 0.960 . S
C1100 C1101 1.391 . S
C1100 C1102 1.394 . S
C1100 H1116 0.931 . S
C1101 C1100 1.391 . S
C1101 C1105 1.376 . S
C1102 C1100 1.394 . S
C1102 C1103 1.369 . S
C1102 C1106 1.531 . S
C1103 C1102 1.369 . S
C1103 C1104 1.410 . S
C1103 C1111 1.503 . S
C1104 C1103 1.410 . S
C1104 C1105 1.392 . S
C1104 C1107 1.511 . S
C1105 C1101 1.376 . S
C1105 C1104 1.392 . S
C1105 H1117 0.929 . S
C1106 C1102 1.531 . S
C1106 H1118 0.960 . S
C1106 H1119 0.962 . S
C1106 H1120 0.960 . S
C1107 C1104 1.511 . S
C1107 H1121 0.961 . S
C1107 H1122 0.961 . S
C1107 H1123 0.961 . S
C1108 C1109 1.370 . S
C1108 C1110 1.363 . S
C1108 H1124 0.931 . S
C1109 C1108 1.370 . S
C1109 C1113 1.408 . S
C1110 C1108 1.363 . S
C1110 C1111 1.370 . S
C1110 C1114 1.524 . S
C1111 C1103 1.503 . S
C1111 C1110 1.370 . S
C1111 C1112 1.403 . S
C1112 C1111 1.403 . S
C1112 C1113 1.404 . S
C1112 C1115 1.539 . S
C1113 C1109 1.408 . S
C1113 C1112 1.404 . S
C1113 H1125 0.930 . S
C1114 C1110 1.524 . S
C1114 H1126 0.956 . S
C1114 H1127 0.961 . S
C1114 H1128 0.961 . S
C1115 C1112 1.539 . S
C1115 H1129 0.958 . S
C1115 H1130 0.961 . S
C1115 H1131 0.960 . S
H1116 C1100 0.931 . S
H1117 C1105 0.929 . S
H1118 C1106 0.960 . S
H1119 C1106 0.962 . S
H1120 C1106 0.960 . S
H1121 C1107 0.961 . S
H1122 C1107 0.961 . S
H1123 C1107 0.961 . S
H1124 C1108 0.931 . S
H1125 C1113 0.930 . S
H1126 C1114 0.956 . S
H1127 C1114 0.961 . S
H1128 C1114 0.961 . S
H1129 C1115 0.958 . S
H1130 C1115 0.961 . S
H1131 C1115 0.960 . S
C1132 C1133 1.391 . S
C1132 C1134 1.394 . S
C1132 H1148 0.931 . S
C1133 C1132 1.391 . S
C1133 C1137 1.376 . S
C1134 C1132 1.394 . S
C1134 C1135 1.369 . S
C1134 C1138 1.531 . S
C1135 C1134 1.369 . S
C1135 C1136 1.410 . S
C1135 C1143 1.503 . S
C1136 C1135 1.410 . S
C1136 C1137 1.392 . S
C1136 C1139 1.511 . S
C1137 C1133 1.376 . S
C1137 C1136 1.392 . S
C1137 H1149 0.929 . S
C1138 C1134 1.531 . S
C1138 H1150 0.960 . S
C1138 H1151 0.962 . S
C1138 H1152 0.960 . S
C1139 C1136 1.511 . S
C1139 H1153 0.961 . S
C1139 H1154 0.961 . S
C1139 H1155 0.961 . S
C1140 C1141 1.370 . S
C1140 C1142 1.363 . S
C1140 H1156 0.931 . S
C1141 C1140 1.370 . S
C1141 C1145 1.408 . S
C1142 C1140 1.363 . S
C1142 C1143 1.370 . S
C1142 C1146 1.524 . S
C1143 C1135 1.503 . S
C1143 C1142 1.370 . S
C1143 C1144 1.403 . S
C1144 C1143 1.403 . S
C1144 C1145 1.404 . S
C1144 C1147 1.539 . S
C1145 C1141 1.408 . S
C1145 C1144 1.404 . S
C1145 H1157 0.930 . S
C1146 C1142 1.524 . S
C1146 H1158 0.956 . S
C1146 H1159 0.961 . S
C1146 H1160 0.961 . S
C1147 C1144 1.539 . S
C1147 H1161 0.958 . S
C1147 H1162 0.961 . S
C1147 H1163 0.960 . S
H1148 C1132 0.931 . S
H1149 C1137 0.929 . S
H1150 C1138 0.960 . S
H1151 C1138 0.962 . S
H1152 C1138 0.960 . S
H1153 C1139 0.961 . S
H1154 C1139 0.961 . S
H1155 C1139 0.961 . S
H1156 C1140 0.931 . S
H1157 C1145 0.930 . S
H1158 C1146 0.956 . S
H1159 C1146 0.961 . S
H1160 C1146 0.961 . S
H1161 C1147 0.958 . S
H1162 C1147 0.961 . S
H1163 C1147 0.960 . S
C1164 C1165 1.391 . S
C1164 C1166 1.394 . S
C1164 H1180 0.931 . S
C1165 C1164 1.391 . S
C1165 C1169 1.376 . S
C1166 C1164 1.394 . S
C1166 C1167 1.369 . S
C1166 C1170 1.531 . S
C1167 C1166 1.369 . S
C1167 C1168 1.410 . S
C1167 C1175 1.503 . S
C1168 C1167 1.410 . S
C1168 C1169 1.392 . S
C1168 C1171 1.511 1_545 S
C1169 C1165 1.376 . S
C1169 C1168 1.392 . S
C1169 H1181 0.929 . S
C1170 C1166 1.531 . S
C1170 H1182 0.960 . S
C1170 H1183 0.962 . S
C1170 H1184 0.960 . S
C1171 C1168 1.511 1_565 S
C1171 H1185 0.961 . S
C1171 H1186 0.961 . S
C1171 H1187 0.961 . S
C1172 C1173 1.370 . S
C1172 C1174 1.363 . S
C1172 H1188 0.931 . S
C1173 C1172 1.370 . S
C1173 C1177 1.408 . S
C1174 C1172 1.363 . S
C1174 C1175 1.370 . S
C1174 C1178 1.524 . S
C1175 C1167 1.503 . S
C1175 C1174 1.370 . S
C1175 C1176 1.403 . S
C1176 C1175 1.403 . S
C1176 C1177 1.404 . S
C1176 C1179 1.539 . S
C1177 C1173 1.408 . S
C1177 C1176 1.404 . S
C1177 H1189 0.930 . S
C1178 C1174 1.524 . S
C1178 H1190 0.956 . S
C1178 H1191 0.961 . S
C1178 H1192 0.961 . S
C1179 C1176 1.539 . S
C1179 H1193 0.958 . S
C1179 H1194 0.961 . S
C1179 H1195 0.960 . S
H1180 C1164 0.931 . S
H1181 C1169 0.929 . S
H1182 C1170 0.960 . S
H1183 C1170 0.962 . S
H1184 C1170 0.960 . S
H1185 C1171 0.961 . S
H1186 C1171 0.961 . S
H1187 C1171 0.961 . S
H1188 C1172 0.931 . S
H1189 C1177 0.930 . S
H1190 C1178 0.956 . S
H1191 C1178 0.961 . S
H1192 C1178 0.961 . S
H1193 C1179 0.958 . S
H1194 C1179 0.961 . S
H1195 C1179 0.960 . S
C1196 C1197 1.391 . S
C1196 C1198 1.394 . S
C1196 H1212 0.931 . S
C1197 C1196 1.391 . S
C1197 C1201 1.376 . S
C1198 C1196 1.394 . S
C1198 C1199 1.369 . S
C1198 C1202 1.531 . S
C1199 C1198 1.369 . S
C1199 C1200 1.410 . S
C1199 C1207 1.503 . S
C1200 C1199 1.410 . S
C1200 C1201 1.392 . S
C1200 C1203 1.511 . S
C1201 C1197 1.376 . S
C1201 C1200 1.392 . S
C1201 H1213 0.929 . S
C1202 C1198 1.531 . S
C1202 H1214 0.960 . S
C1202 H1215 0.962 . S
C1202 H1216 0.960 . S
C1203 C1200 1.511 . S
C1203 H1217 0.961 . S
C1203 H1218 0.961 . S
C1203 H1219 0.961 . S
C1204 C1205 1.370 . S
C1204 C1206 1.363 . S
C1204 H1220 0.931 . S
C1205 C1204 1.370 . S
C1205 C1209 1.408 . S
C1206 C1204 1.363 . S
C1206 C1207 1.370 . S
C1206 C1210 1.524 . S
C1207 C1199 1.503 . S
C1207 C1206 1.370 . S
C1207 C1208 1.403 . S
C1208 C1207 1.403 . S
C1208 C1209 1.404 . S
C1208 C1211 1.539 . S
C1209 C1205 1.408 . S
C1209 C1208 1.404 . S
C1209 H1221 0.930 . S
C1210 C1206 1.524 . S
C1210 H1222 0.956 . S
C1210 H1223 0.961 . S
C1210 H1224 0.961 . S
C1211 C1208 1.539 . S
C1211 H1225 0.958 . S
C1211 H1226 0.961 . S
C1211 H1227 0.960 . S
H1212 C1196 0.931 . S
H1213 C1201 0.929 . S
H1214 C1202 0.960 . S
H1215 C1202 0.962 . S
H1216 C1202 0.960 . S
H1217 C1203 0.961 . S
H1218 C1203 0.961 . S
H1219 C1203 0.961 . S
H1220 C1204 0.931 . S
H1221 C1209 0.930 . S
H1222 C1210 0.956 . S
H1223 C1210 0.961 . S
H1224 C1210 0.961 . S
H1225 C1211 0.958 . S
H1226 C1211 0.961 . S
H1227 C1211 0.960 . S
C1228 C1229 1.391 . S
C1228 C1230 1.394 . S
C1228 H1244 0.931 . S
C1229 C1228 1.391 . S
C1229 C1233 1.376 . S
C1230 C1228 1.394 . S
C1230 C1231 1.369 . S
C1230 C1234 1.531 . S
C1231 C1230 1.369 . S
C1231 C1232 1.410 . S
C1231 C1239 1.503 . S
C1232 C1231 1.410 . S
C1232 C1233 1.392 . S
C1232 C1235 1.511 . S
C1233 C1229 1.376 . S
C1233 C1232 1.392 . S
C1233 H1245 0.929 . S
C1234 C1230 1.531 . S
C1234 H1246 0.960 . S
C1234 H1247 0.962 . S
C1234 H1248 0.960 . S
C1235 C1232 1.511 . S
C1235 H1249 0.961 . S
C1235 H1250 0.961 . S
C1235 H1251 0.961 . S
C1236 C1237 1.370 . S
C1236 C1238 1.363 . S
C1236 H1252 0.931 . S
C1237 C1236 1.370 . S
C1237 C1241 1.408 . S
C1238 C1236 1.363 . S
C1238 C1239 1.370 . S
C1238 C1242 1.524 . S
C1239 C1231 1.503 . S
C1239 C1238 1.370 . S
C1239 C1240 1.403 . S
C1240 C1239 1.403 . S
C1240 C1241 1.404 . S
C1240 C1243 1.539 . S
C1241 C1237 1.408 . S
C1241 C1240 1.404 . S
C1241 H1253 0.930 . S
C1242 C1238 1.524 . S
C1242 H1254 0.956 . S
C1242 H1255 0.961 . S
C1242 H1256 0.961 . S
C1243 C1240 1.539 . S
C1243 H1257 0.958 . S
C1243 H1258 0.961 . S
C1243 H1259 0.960 . S
H1244 C1228 0.931 . S
H1245 C1233 0.929 . S
H1246 C1234 0.960 . S
H1247 C1234 0.962 . S
H1248 C1234 0.960 . S
H1249 C1235 0.961 . S
H1250 C1235 0.961 . S
H1251 C1235 0.961 . S
H1252 C1236 0.931 . S
H1253 C1241 0.930 . S
H1254 C1242 0.956 . S
H1255 C1242 0.961 . S
H1256 C1242 0.961 . S
H1257 C1243 0.958 . S
H1258 C1243 0.961 . S
H1259 C1243 0.960 . S
C1260 C1261 1.391 . S
C1260 C1262 1.394 . S
C1260 H1276 0.931 . S
C1261 C1260 1.391 . S
C1261 C1265 1.376 . S
C1262 C1260 1.394 . S
C1262 C1263 1.369 . S
C1262 C1266 1.531 . S
C1263 C1262 1.369 . S
C1263 C1264 1.410 . S
C1263 C1271 1.503 . S
C1264 C1263 1.410 . S
C1264 C1265 1.392 . S
C1264 C1267 1.511 . S
C1265 C1261 1.376 . S
C1265 C1264 1.392 . S
C1265 H1277 0.929 . S
C1266 C1262 1.531 . S
C1266 H1278 0.960 . S
C1266 H1279 0.962 . S
C1266 H1280 0.960 . S
C1267 C1264 1.511 . S
C1267 H1281 0.961 . S
C1267 H1282 0.961 . S
C1267 H1283 0.961 . S
C1268 C1269 1.370 . S
C1268 C1270 1.363 . S
C1268 H1284 0.931 . S
C1269 C1268 1.370 . S
C1269 C1273 1.408 . S
C1270 C1268 1.363 . S
C1270 C1271 1.370 . S
C1270 C1274 1.524 . S
C1271 C1263 1.503 . S
C1271 C1270 1.370 . S
C1271 C1272 1.403 . S
C1272 C1271 1.403 . S
C1272 C1273 1.404 . S
C1272 C1275 1.539 . S
C1273 C1269 1.408 . S
C1273 C1272 1.404 . S
C1273 H1285 0.930 . S
C1274 C1270 1.524 . S
C1274 H1286 0.956 . S
C1274 H1287 0.961 . S
C1274 H1288 0.961 . S
C1275 C1272 1.539 . S
C1275 H1289 0.958 . S
C1275 H1290 0.961 . S
C1275 H1291 0.960 . S
H1276 C1260 0.931 . S
H1277 C1265 0.929 . S
H1278 C1266 0.960 . S
H1279 C1266 0.962 . S
H1280 C1266 0.960 . S
H1281 C1267 0.961 . S
H1282 C1267 0.961 . S
H1283 C1267 0.961 . S
H1284 C1268 0.931 . S
H1285 C1273 0.930 . S
H1286 C1274 0.956 . S
H1287 C1274 0.961 . S
H1288 C1274 0.961 . S
H1289 C1275 0.958 . S
H1290 C1275 0.961 . S
H1291 C1275 0.960 . S
C1292 C1293 1.391 . S
C1292 C1294 1.394 . S
C1292 H1308 0.931 . S
C1293 C1292 1.391 . S
C1293 C1297 1.376 1_655 S
C1294 C1292 1.394 . S
C1294 C1295 1.369 . S
C1294 C1298 1.531 1_545 S
C1295 C1294 1.369 . S
C1295 C1296 1.410 . S
C1295 C1303 1.503 . S
C1296 C1295 1.410 . S
C1296 C1297 1.392 1_655 S
C1296 C1299 1.511 . S
C1297 C1293 1.376 1_455 S
C1297 C1296 1.392 1_455 S
C1297 H1309 0.929 . S
C1298 C1294 1.531 1_565 S
C1298 H1310 0.960 . S
C1298 H1311 0.962 1_565 S
C1298 H1312 0.960 . S
C1299 C1296 1.511 . S
C1299 H1313 0.961 1_655 S
C1299 H1314 0.961 . S
C1299 H1315 0.961 1_655 S
C1300 C1301 1.370 . S
C1300 C1302 1.363 . S
C1300 H1316 0.931 . S
C1301 C1300 1.370 . S
C1301 C1305 1.408 . S
C1302 C1300 1.363 . S
C1302 C1303 1.370 . S
C1302 C1306 1.524 . S
C1303 C1295 1.503 . S
C1303 C1302 1.370 . S
C1303 C1304 1.403 . S
C1304 C1303 1.403 . S
C1304 C1305 1.404 . S
C1304 C1307 1.539 . S
C1305 C1301 1.408 . S
C1305 C1304 1.404 . S
C1305 H1317 0.930 . S
C1306 C1302 1.524 . S
C1306 H1318 0.956 . S
C1306 H1319 0.961 . S
C1306 H1320 0.961 . S
C1307 C1304 1.539 . S
C1307 H1321 0.958 1_545 S
C1307 H1322 0.961 . S
C1307 H1323 0.960 . S
H1308 C1292 0.931 . S
H1309 C1297 0.929 . S
H1310 C1298 0.960 . S
H1311 C1298 0.962 1_545 S
H1312 C1298 0.960 . S
H1313 C1299 0.961 1_455 S
H1314 C1299 0.961 . S
H1315 C1299 0.961 1_455 S
H1316 C1300 0.931 . S
H1317 C1305 0.930 . S
H1318 C1306 0.956 . S
H1319 C1306 0.961 . S
H1320 C1306 0.961 . S
H1321 C1307 0.958 1_565 S
H1322 C1307 0.961 . S
H1323 C1307 0.960 . S
C1324 C1325 1.391 . S
C1324 C1326 1.394 . S
C1324 H1340 0.931 . S
C1325 C1324 1.391 . S
C1325 C1329 1.376 . S
C1326 C1324 1.394 . S
C1326 C1327 1.369 . S
C1326 C1330 1.531 . S
C1327 C1326 1.369 . S
C1327 C1328 1.410 . S
C1327 C1335 1.503 . S
C1328 C1327 1.410 . S
C1328 C1329 1.392 . S
C1328 C1331 1.511 . S
C1329 C1325 1.376 . S
C1329 C1328 1.392 . S
C1329 H1341 0.929 . S
C1330 C1326 1.531 . S
C1330 H1342 0.960 . S
C1330 H1343 0.962 . S
C1330 H1344 0.960 . S
C1331 C1328 1.511 . S
C1331 H1345 0.961 . S
C1331 H1346 0.961 . S
C1331 H1347 0.961 . S
C1332 C1333 1.370 . S
C1332 C1334 1.363 . S
C1332 H1348 0.931 . S
C1333 C1332 1.370 . S
C1333 C1337 1.408 . S
C1334 C1332 1.363 . S
C1334 C1335 1.370 . S
C1334 C1338 1.524 . S
C1335 C1327 1.503 . S
C1335 C1334 1.370 . S
C1335 C1336 1.403 . S
C1336 C1335 1.403 . S
C1336 C1337 1.404 . S
C1336 C1339 1.539 . S
C1337 C1333 1.408 . S
C1337 C1336 1.404 . S
C1337 H1349 0.930 . S
C1338 C1334 1.524 . S
C1338 H1350 0.956 . S
C1338 H1351 0.961 . S
C1338 H1352 0.961 . S
C1339 C1336 1.539 . S
C1339 H1353 0.958 . S
C1339 H1354 0.961 . S
C1339 H1355 0.960 . S
H1340 C1324 0.931 . S
H1341 C1329 0.929 . S
H1342 C1330 0.960 . S
H1343 C1330 0.962 . S
H1344 C1330 0.960 . S
H1345 C1331 0.961 . S
H1346 C1331 0.961 . S
H1347 C1331 0.961 . S
H1348 C1332 0.931 . S
H1349 C1337 0.930 . S
H1350 C1338 0.956 . S
H1351 C1338 0.961 . S
H1352 C1338 0.961 . S
H1353 C1339 0.958 . S
H1354 C1339 0.961 . S
H1355 C1339 0.960 . S
C1356 C1357 1.391 . S
C1356 C1358 1.394 . S
C1356 H1372 0.931 1_455 S
C1357 C1356 1.391 . S
C1357 C1361 1.376 . S
C1358 C1356 1.394 . S
C1358 C1359 1.369 . S
C1358 C1362 1.531 . S
C1359 C1358 1.369 . S
C1359 C1360 1.410 . S
C1359 C1367 1.503 . S
C1360 C1359 1.410 . S
C1360 C1361 1.392 . S
C1360 C1363 1.511 . S
C1361 C1357 1.376 . S
C1361 C1360 1.392 . S
C1361 H1373 0.929 . S
C1362 C1358 1.531 . S
C1362 H1374 0.960 . S
C1362 H1375 0.962 . S
C1362 H1376 0.960 . S
C1363 C1360 1.511 . S
C1363 H1377 0.961 . S
C1363 H1378 0.961 . S
C1363 H1379 0.961 . S
C1364 C1365 1.370 . S
C1364 C1366 1.363 . S
C1364 H1380 0.931 . S
C1365 C1364 1.370 . S
C1365 C1369 1.408 . S
C1366 C1364 1.363 . S
C1366 C1367 1.370 . S
C1366 C1370 1.524 . S
C1367 C1359 1.503 . S
C1367 C1366 1.370 . S
C1367 C1368 1.403 . S
C1368 C1367 1.403 . S
C1368 C1369 1.404 . S
C1368 C1371 1.539 . S
C1369 C1365 1.408 . S
C1369 C1368 1.404 . S
C1369 H1381 0.930 . S
C1370 C1366 1.524 . S
C1370 H1382 0.956 . S
C1370 H1383 0.961 . S
C1370 H1384 0.961 . S
C1371 C1368 1.539 . S
C1371 H1385 0.958 . S
C1371 H1386 0.961 . S
C1371 H1387 0.960 . S
H1372 C1356 0.931 1_655 S
H1373 C1361 0.929 . S
H1374 C1362 0.960 . S
H1375 C1362 0.962 . S
H1376 C1362 0.960 . S
H1377 C1363 0.961 . S
H1378 C1363 0.961 . S
H1379 C1363 0.961 . S
H1380 C1364 0.931 . S
H1381 C1369 0.930 . S
H1382 C1370 0.956 . S
H1383 C1370 0.961 . S
H1384 C1370 0.961 . S
H1385 C1371 0.958 . S
H1386 C1371 0.961 . S
H1387 C1371 0.960 . S
C1388 C1389 1.391 . S
C1388 C1390 1.394 . S
C1388 H1404 0.931 . S
C1389 C1388 1.391 . S
C1389 C1393 1.376 . S
C1390 C1388 1.394 . S
C1390 C1391 1.369 . S
C1390 C1394 1.531 . S
C1391 C1390 1.369 . S
C1391 C1392 1.410 . S
C1391 C1399 1.503 . S
C1392 C1391 1.410 . S
C1392 C1393 1.392 . S
C1392 C1395 1.511 . S
C1393 C1389 1.376 . S
C1393 C1392 1.392 . S
C1393 H1405 0.929 . S
C1394 C1390 1.531 . S
C1394 H1406 0.960 . S
C1394 H1407 0.962 . S
C1394 H1408 0.960 . S
C1395 C1392 1.511 . S
C1395 H1409 0.961 . S
C1395 H1410 0.961 . S
C1395 H1411 0.961 . S
C1396 C1397 1.370 . S
C1396 C1398 1.363 . S
C1396 H1412 0.931 . S
C1397 C1396 1.370 . S
C1397 C1401 1.408 . S
C1398 C1396 1.363 . S
C1398 C1399 1.370 . S
C1398 C1402 1.524 . S
C1399 C1391 1.503 . S
C1399 C1398 1.370 . S
C1399 C1400 1.403 . S
C1400 C1399 1.403 . S
C1400 C1401 1.404 . S
C1400 C1403 1.539 . S
C1401 C1397 1.408 . S
C1401 C1400 1.404 . S
C1401 H1413 0.930 . S
C1402 C1398 1.524 . S
C1402 H1414 0.956 . S
C1402 H1415 0.961 . S
C1402 H1416 0.961 . S
C1403 C1400 1.539 . S
C1403 H1417 0.958 . S
C1403 H1418 0.961 . S
C1403 H1419 0.960 . S
H1404 C1388 0.931 . S
H1405 C1393 0.929 . S
H1406 C1394 0.960 . S
H1407 C1394 0.962 . S
H1408 C1394 0.960 . S
H1409 C1395 0.961 . S
H1410 C1395 0.961 . S
H1411 C1395 0.961 . S
H1412 C1396 0.931 . S
H1413 C1401 0.930 . S
H1414 C1402 0.956 . S
H1415 C1402 0.961 . S
H1416 C1402 0.961 . S
H1417 C1403 0.958 . S
H1418 C1403 0.961 . S
H1419 C1403 0.960 . S
C1420 C1421 1.402 1_455 S
C1420 C1422 1.373 1_554 S
C1420 H1436 0.941 . S
C1421 C1420 1.402 1_655 S
C1421 C1425 1.376 . S
C1422 C1420 1.373 1_556 S
C1422 C1423 1.369 1_455 S
C1422 C1426 1.531 . S
C1423 C1422 1.369 1_655 S
C1423 C1424 1.410 . S
C1423 C1431 1.503 . S
C1424 C1423 1.410 . S
C1424 C1425 1.392 1_556 S
C1424 C1427 1.511 . S
C1425 C1421 1.376 . S
C1425 C1424 1.392 1_554 S
C1425 H1437 0.929 . S
C1426 C1422 1.531 . S
C1426 H1438 0.960 . S
C1426 H1439 0.962 . S
C1426 H1440 0.960 . S
C1427 C1424 1.511 . S
C1427 H1441 0.961 . S
C1427 H1442 0.961 . S
C1427 H1443 0.961 . S
C1428 C1429 1.370 . S
C1428 C1430 1.363 . S
C1428 H1444 0.931 . S
C1429 C1428 1.370 . S
C1429 C1433 1.408 . S
C1430 C1428 1.363 . S
C1430 C1431 1.370 . S
C1430 C1434 1.524 . S
C1431 C1423 1.503 . S
C1431 C1430 1.370 . S
C1431 C1432 1.403 . S
C1432 C1431 1.403 . S
C1432 C1433 1.404 . S
C1432 C1435 1.539 . S
C1433 C1429 1.408 . S
C1433 C1432 1.404 . S
C1433 H1445 0.930 1_655 S
C1434 C1430 1.524 . S
C1434 H1446 0.956 . S
C1434 H1447 0.961 . S
C1434 H1448 0.961 . S
C1435 C1432 1.539 . S
C1435 H1449 0.958 1_656 S
C1435 H1450 0.961 . S
C1435 H1451 0.960 1_556 S
H1436 C1420 0.941 . S
H1437 C1425 0.929 . S
H1438 C1426 0.960 . S
H1439 C1426 0.962 . S
H1440 C1426 0.960 . S
H1441 C1427 0.961 . S
H1442 C1427 0.961 . S
H1443 C1427 0.961 . S
H1444 C1428 0.931 . S
H1445 C1433 0.930 1_455 S
H1446 C1434 0.956 . S
H1447 C1434 0.961 . S
H1448 C1434 0.961 . S
H1449 C1435 0.958 1_454 S
H1450 C1435 0.961 . S
H1451 C1435 0.960 1_554 S
C1452 C1453 1.391 . S
C1452 C1454 1.394 . S
C1452 H1468 0.931 . S
C1453 C1452 1.391 . S
C1453 C1457 1.376 . S
C1454 C1452 1.394 . S
C1454 C1455 1.369 . S
C1454 C1458 1.531 . S
C1455 C1454 1.369 . S
C1455 C1456 1.410 . S
C1455 C1463 1.503 . S
C1456 C1455 1.410 . S
C1456 C1457 1.392 . S
C1456 C1459 1.511 . S
C1457 C1453 1.376 . S
C1457 C1456 1.392 . S
C1457 H1469 0.929 . S
C1458 C1454 1.531 . S
C1458 H1470 0.960 . S
C1458 H1471 0.962 . S
C1458 H1472 0.960 . S
C1459 C1456 1.511 . S
C1459 H1473 0.961 . S
C1459 H1474 0.961 . S
C1459 H1475 0.961 . S
C1460 C1461 1.370 . S
C1460 C1462 1.363 . S
C1460 H1476 0.931 . S
C1461 C1460 1.370 . S
C1461 C1465 1.408 . S
C1462 C1460 1.363 . S
C1462 C1463 1.370 . S
C1462 C1466 1.524 . S
C1463 C1455 1.503 . S
C1463 C1462 1.370 . S
C1463 C1464 1.403 . S
C1464 C1463 1.403 . S
C1464 C1465 1.404 . S
C1464 C1467 1.539 . S
C1465 C1461 1.408 . S
C1465 C1464 1.404 . S
C1465 H1477 0.930 . S
C1466 C1462 1.524 . S
C1466 H1478 0.956 . S
C1466 H1479 0.961 . S
C1466 H1480 0.961 . S
C1467 C1464 1.539 . S
C1467 H1481 0.958 . S
C1467 H1482 0.961 . S
C1467 H1483 0.960 . S
H1468 C1452 0.931 . S
H1469 C1457 0.929 . S
H1470 C1458 0.960 . S
H1471 C1458 0.962 . S
H1472 C1458 0.960 . S
H1473 C1459 0.961 . S
H1474 C1459 0.961 . S
H1475 C1459 0.961 . S
H1476 C1460 0.931 . S
H1477 C1465 0.930 . S
H1478 C1466 0.956 . S
H1479 C1466 0.961 . S
H1480 C1466 0.961 . S
H1481 C1467 0.958 . S
H1482 C1467 0.961 . S
H1483 C1467 0.960 . S
C1484 C1485 1.391 1_556 S
C1484 C1486 1.394 . S
C1484 H1500 0.931 . S
C1485 C1484 1.391 1_554 S
C1485 C1489 1.376 1_455 S
C1486 C1484 1.394 . S
C1486 C1487 1.369 . S
C1486 C1490 1.531 . S
C1487 C1486 1.369 . S
C1487 C1488 1.410 1_455 S
C1487 C1495 1.503 . S
C1488 C1487 1.410 1_655 S
C1488 C1489 1.392 1_556 S
C1488 C1491 1.511 . S
C1489 C1485 1.376 1_655 S
C1489 C1488 1.392 1_554 S
C1489 H1501 0.929 . S
C1490 C1486 1.531 . S
C1490 H1502 0.960 . S
C1490 H1503 0.962 . S
C1490 H1504 0.960 . S
C1491 C1488 1.511 . S
C1491 H1505 0.961 1_556 S
C1491 H1506 0.961 . S
C1491 H1507 0.961 . S
C1492 C1493 1.370 . S
C1492 C1494 1.363 . S
C1492 H1508 0.931 . S
C1493 C1492 1.370 . S
C1493 C1497 1.408 1_455 S
C1494 C1492 1.363 . S
C1494 C1495 1.370 . S
C1494 C1498 1.524 . S
C1495 C1487 1.503 . S
C1495 C1494 1.370 . S
C1495 C1496 1.403 1_455 S
C1496 C1495 1.403 1_655 S
C1496 C1497 1.404 . S
C1496 C1499 1.539 . S
C1497 C1493 1.408 1_655 S
C1497 C1496 1.404 . S
C1497 H1509 0.930 . S
C1498 C1494 1.524 . S
C1498 H1510 0.956 . S
C1498 H1511 0.961 1_556 S
C1498 H1512 0.961 . S
C1499 C1496 1.539 . S
C1499 H1513 0.958 . S
C1499 H1514 0.961 . S
C1499 H1515 0.960 . S
H1500 C1484 0.931 . S
H1501 C1489 0.929 . S
H1502 C1490 0.960 . S
H1503 C1490 0.962 . S
H1504 C1490 0.960 . S
H1505 C1491 0.961 1_554 S
H1506 C1491 0.961 . S
H1507 C1491 0.961 . S
H1508 C1492 0.931 . S
H1509 C1497 0.930 . S
H1510 C1498 0.956 . S
H1511 C1498 0.961 1_554 S
H1512 C1498 0.961 . S
H1513 C1499 0.958 . S
H1514 C1499 0.961 . S
H1515 C1499 0.960 . S
C1516 C1517 1.391 . S
C1516 C1518 1.394 . S
C1516 H1532 0.931 . S
C1517 C1516 1.391 . S
C1517 C1521 1.376 . S
C1518 C1516 1.394 . S
C1518 C1519 1.369 . S
C1518 C1522 1.531 . S
C1519 C1518 1.369 . S
C1519 C1520 1.410 . S
C1519 C1527 1.503 . S
C1520 C1519 1.410 . S
C1520 C1521 1.392 . S
C1520 C1523 1.511 . S
C1521 C1517 1.376 . S
C1521 C1520 1.392 . S
C1521 H1533 0.929 . S
C1522 C1518 1.531 . S
C1522 H1534 0.960 . S
C1522 H1535 0.962 . S
C1522 H1536 0.960 . S
C1523 C1520 1.511 . S
C1523 H1537 0.961 . S
C1523 H1538 0.961 . S
C1523 H1539 0.961 . S
C1524 C1525 1.370 . S
C1524 C1526 1.363 . S
C1524 H1540 0.931 . S
C1525 C1524 1.370 . S
C1525 C1529 1.408 . S
C1526 C1524 1.363 . S
C1526 C1527 1.370 . S
C1526 C1530 1.524 . S
C1527 C1519 1.503 . S
C1527 C1526 1.370 . S
C1527 C1528 1.403 . S
C1528 C1527 1.403 . S
C1528 C1529 1.404 . S
C1528 C1531 1.539 . S
C1529 C1525 1.408 . S
C1529 C1528 1.404 . S
C1529 H1541 0.930 . S
C1530 C1526 1.524 . S
C1530 H1542 0.956 . S
C1530 H1543 0.961 . S
C1530 H1544 0.961 . S
C1531 C1528 1.539 . S
C1531 H1545 0.958 . S
C1531 H1546 0.961 . S
C1531 H1547 0.960 . S
H1532 C1516 0.931 . S
H1533 C1521 0.929 . S
H1534 C1522 0.960 . S
H1535 C1522 0.962 . S
H1536 C1522 0.960 . S
H1537 C1523 0.961 . S
H1538 C1523 0.961 . S
H1539 C1523 0.961 . S
H1540 C1524 0.931 . S
H1541 C1529 0.930 . S
H1542 C1530 0.956 . S
H1543 C1530 0.961 . S
H1544 C1530 0.961 . S
H1545 C1531 0.958 . S
H1546 C1531 0.961 . S
H1547 C1531 0.960 . S
C1548 C1549 1.391 1_554 S
C1548 C1550 1.394 . S
C1548 H1564 0.931 . S
C1549 C1548 1.391 1_556 S
C1549 C1553 1.376 . S
C1550 C1548 1.394 . S
C1550 C1551 1.369 . S
C1550 C1554 1.531 . S
C1551 C1550 1.369 . S
C1551 C1552 1.410 . S
C1551 C1559 1.503 . S
C1552 C1551 1.410 . S
C1552 C1553 1.392 1_554 S
C1552 C1555 1.511 . S
C1553 C1549 1.376 . S
C1553 C1552 1.392 1_556 S
C1553 H1565 0.929 . S
C1554 C1550 1.531 . S
C1554 H1566 0.960 . S
C1554 H1567 0.962 . S
C1554 H1568 0.960 . S
C1555 C1552 1.511 . S
C1555 H1569 0.961 . S
C1555 H1570 0.961 . S
C1555 H1571 0.961 1_554 S
C1556 C1557 1.370 . S
C1556 C1558 1.363 . S
C1556 H1572 0.931 . S
C1557 C1556 1.370 . S
C1557 C1561 1.408 . S
C1558 C1556 1.363 . S
C1558 C1559 1.370 . S
C1558 C1562 1.524 . S
C1559 C1551 1.503 . S
C1559 C1558 1.370 . S
C1559 C1560 1.403 . S
C1560 C1559 1.403 . S
C1560 C1561 1.404 . S
C1560 C1563 1.539 . S
C1561 C1557 1.408 . S
C1561 C1560 1.404 . S
C1561 H1573 0.930 . S
C1562 C1558 1.524 . S
C1562 H1574 0.956 . S
C1562 H1575 0.961 . S
C1562 H1576 0.961 . S
C1563 C1560 1.539 . S
C1563 H1577 0.958 . S
C1563 H1578 0.961 . S
C1563 H1579 0.960 . S
H1564 C1548 0.931 . S
H1565 C1553 0.929 . S
H1566 C1554 0.960 . S
H1567 C1554 0.962 . S
H1568 C1554 0.960 . S
H1569 C1555 0.961 . S
H1570 C1555 0.961 . S
H1571 C1555 0.961 1_556 S
H1572 C1556 0.931 . S
H1573 C1561 0.930 . S
H1574 C1562 0.956 . S
H1575 C1562 0.961 . S
H1576 C1562 0.961 . S
H1577 C1563 0.958 . S
H1578 C1563 0.961 . S
H1579 C1563 0.960 . S
C1580 C1581 1.391 . S
C1580 C1582 1.394 . S
C1580 H1596 0.931 . S
C1581 C1580 1.391 . S
C1581 C1585 1.376 . S
C1582 C1580 1.394 . S
C1582 C1583 1.369 . S
C1582 C1586 1.531 . S
C1583 C1582 1.369 . S
C1583 C1584 1.410 . S
C1583 C1591 1.503 . S
C1584 C1583 1.410 . S
C1584 C1585 1.392 . S
C1584 C1587 1.511 . S
C1585 C1581 1.376 . S
C1585 C1584 1.392 . S
C1585 H1597 0.929 . S
C1586 C1582 1.531 . S
C1586 H1598 0.960 . S
C1586 H1599 0.962 . S
C1586 H1600 0.960 . S
C1587 C1584 1.511 . S
C1587 H1601 0.961 . S
C1587 H1602 0.961 . S
C1587 H1603 0.961 . S
C1588 C1589 1.370 . S
C1588 C1590 1.363 . S
C1588 H1604 0.931 . S
C1589 C1588 1.370 . S
C1589 C1593 1.408 . S
C1590 C1588 1.363 . S
C1590 C1591 1.370 . S
C1590 C1594 1.524 . S
C1591 C1583 1.503 . S
C1591 C1590 1.370 . S
C1591 C1592 1.403 . S
C1592 C1591 1.403 . S
C1592 C1593 1.404 . S
C1592 C1595 1.539 . S
C1593 C1589 1.408 . S
C1593 C1592 1.404 . S
C1593 H1605 0.930 . S
C1594 C1590 1.524 . S
C1594 H1606 0.956 . S
C1594 H1607 0.961 . S
C1594 H1608 0.961 . S
C1595 C1592 1.539 . S
C1595 H1609 0.958 . S
C1595 H1610 0.961 . S
C1595 H1611 0.960 . S
H1596 C1580 0.931 . S
H1597 C1585 0.929 . S
H1598 C1586 0.960 . S
H1599 C1586 0.962 . S
H1600 C1586 0.960 . S
H1601 C1587 0.961 . S
H1602 C1587 0.961 . S
H1603 C1587 0.961 . S
H1604 C1588 0.931 . S
H1605 C1593 0.930 . S
H1606 C1594 0.956 . S
H1607 C1594 0.961 . S
H1608 C1594 0.961 . S
H1609 C1595 0.958 . S
H1610 C1595 0.961 . S
H1611 C1595 0.960 . S
C1612 C1613 1.391 . S
C1612 C1614 1.394 . S
C1612 H1628 0.931 . S
C1613 C1612 1.391 . S
C1613 C1617 1.376 . S
C1614 C1612 1.394 . S
C1614 C1615 1.369 . S
C1614 C1618 1.531 . S
C1615 C1614 1.369 . S
C1615 C1616 1.410 . S
C1615 C1623 1.503 . S
C1616 C1615 1.410 . S
C1616 C1617 1.392 . S
C1616 C1619 1.511 . S
C1617 C1613 1.376 . S
C1617 C1616 1.392 . S
C1617 H1629 0.929 . S
C1618 C1614 1.531 . S
C1618 H1630 0.960 . S
C1618 H1631 0.962 . S
C1618 H1632 0.960 . S
C1619 C1616 1.511 . S
C1619 H1633 0.961 . S
C1619 H1634 0.961 . S
C1619 H1635 0.961 . S
C1620 C1621 1.370 . S
C1620 C1622 1.363 . S
C1620 H1636 0.931 . S
C1621 C1620 1.370 . S
C1621 C1625 1.408 . S
C1622 C1620 1.363 . S
C1622 C1623 1.370 . S
C1622 C1626 1.524 . S
C1623 C1615 1.503 . S
C1623 C1622 1.370 . S
C1623 C1624 1.403 . S
C1624 C1623 1.403 . S
C1624 C1625 1.404 . S
C1624 C1627 1.539 . S
C1625 C1621 1.408 . S
C1625 C1624 1.404 . S
C1625 H1637 0.930 . S
C1626 C1622 1.524 . S
C1626 H1638 0.956 . S
C1626 H1639 0.961 . S
C1626 H1640 0.961 . S
C1627 C1624 1.539 . S
C1627 H1641 0.958 . S
C1627 H1642 0.961 . S
C1627 H1643 0.960 . S
H1628 C1612 0.931 . S
H1629 C1617 0.929 . S
H1630 C1618 0.960 . S
H1631 C1618 0.962 . S
H1632 C1618 0.960 . S
H1633 C1619 0.961 . S
H1634 C1619 0.961 . S
H1635 C1619 0.961 . S
H1636 C1620 0.931 . S
H1637 C1625 0.930 . S
H1638 C1626 0.956 . S
H1639 C1626 0.961 . S
H1640 C1626 0.961 . S
H1641 C1627 0.958 . S
H1642 C1627 0.961 . S
H1643 C1627 0.960 . S
C1644 C1645 1.391 . S
C1644 C1646 1.394 . S
C1644 H1660 0.931 . S
C1645 C1644 1.391 . S
C1645 C1649 1.376 . S
C1646 C1644 1.394 . S
C1646 C1647 1.369 . S
C1646 C1650 1.531 . S
C1647 C1646 1.369 . S
C1647 C1648 1.410 . S
C1647 C1655 1.503 . S
C1648 C1647 1.410 . S
C1648 C1649 1.392 . S
C1648 C1651 1.511 . S
C1649 C1645 1.376 . S
C1649 C1648 1.392 . S
C1649 H1661 0.929 . S
C1650 C1646 1.531 . S
C1650 H1662 0.960 . S
C1650 H1663 0.962 . S
C1650 H1664 0.960 . S
C1651 C1648 1.511 . S
C1651 H1665 0.961 . S
C1651 H1666 0.961 . S
C1651 H1667 0.961 . S
C1652 C1653 1.370 . S
C1652 C1654 1.363 . S
C1652 H1668 0.931 . S
C1653 C1652 1.370 . S
C1653 C1657 1.408 . S
C1654 C1652 1.363 . S
C1654 C1655 1.370 . S
C1654 C1658 1.524 . S
C1655 C1647 1.503 . S
C1655 C1654 1.370 . S
C1655 C1656 1.403 . S
C1656 C1655 1.403 . S
C1656 C1657 1.404 . S
C1656 C1659 1.539 . S
C1657 C1653 1.408 . S
C1657 C1656 1.404 . S
C1657 H1669 0.930 . S
C1658 C1654 1.524 . S
C1658 H1670 0.956 . S
C1658 H1671 0.961 . S
C1658 H1672 0.961 . S
C1659 C1656 1.539 . S
C1659 H1673 0.958 . S
C1659 H1674 0.961 . S
C1659 H1675 0.960 . S
H1660 C1644 0.931 . S
H1661 C1649 0.929 . S
H1662 C1650 0.960 . S
H1663 C1650 0.962 . S
H1664 C1650 0.960 . S
H1665 C1651 0.961 . S
H1666 C1651 0.961 . S
H1667 C1651 0.961 . S
H1668 C1652 0.931 . S
H1669 C1657 0.930 . S
H1670 C1658 0.956 . S
H1671 C1658 0.961 . S
H1672 C1658 0.961 . S
H1673 C1659 0.958 . S
H1674 C1659 0.961 . S
H1675 C1659 0.960 . S
C1676 C1677 1.391 . S
C1676 C1678 1.394 . S
C1676 H1692 0.931 . S
C1677 C1676 1.391 . S
C1677 C1681 1.376 . S
C1678 C1676 1.394 . S
C1678 C1679 1.369 . S
C1678 C1682 1.531 . S
C1679 C1678 1.369 . S
C1679 C1680 1.410 . S
C1679 C1687 1.503 . S
C1680 C1679 1.410 . S
C1680 C1681 1.392 . S
C1680 C1683 1.511 . S
C1681 C1677 1.376 . S
C1681 C1680 1.392 . S
C1681 H1693 0.929 . S
C1682 C1678 1.531 . S
C1682 H1694 0.960 . S
C1682 H1695 0.962 . S
C1682 H1696 0.960 . S
C1683 C1680 1.511 . S
C1683 H1697 0.961 . S
C1683 H1698 0.961 . S
C1683 H1699 0.961 . S
C1684 C1685 1.370 . S
C1684 C1686 1.363 . S
C1684 H1700 0.931 . S
C1685 C1684 1.370 . S
C1685 C1689 1.408 . S
C1686 C1684 1.363 . S
C1686 C1687 1.370 . S
C1686 C1690 1.524 . S
C1687 C1679 1.503 . S
C1687 C1686 1.370 . S
C1687 C1688 1.403 . S
C1688 C1687 1.403 . S
C1688 C1689 1.404 . S
C1688 C1691 1.539 . S
C1689 C1685 1.408 . S
C1689 C1688 1.404 . S
C1689 H1701 0.930 . S
C1690 C1686 1.524 . S
C1690 H1702 0.956 . S
C1690 H1703 0.961 . S
C1690 H1704 0.961 . S
C1691 C1688 1.539 . S
C1691 H1705 0.958 . S
C1691 H1706 0.961 . S
C1691 H1707 0.960 . S
H1692 C1676 0.931 . S
H1693 C1681 0.929 . S
H1694 C1682 0.960 . S
H1695 C1682 0.962 . S
H1696 C1682 0.960 . S
H1697 C1683 0.961 . S
H1698 C1683 0.961 . S
H1699 C1683 0.961 . S
H1700 C1684 0.931 . S
H1701 C1689 0.930 . S
H1702 C1690 0.956 . S
H1703 C1690 0.961 . S
H1704 C1690 0.961 . S
H1705 C1691 0.958 . S
H1706 C1691 0.961 . S
H1707 C1691 0.960 . S
C1708 C1709 1.391 . S
C1708 C1710 1.394 . S
C1708 H1724 0.931 . S
C1709 C1708 1.391 . S
C1709 C1713 1.376 . S
C1710 C1708 1.394 . S
C1710 C1711 1.369 . S
C1710 C1714 1.531 . S
C1711 C1710 1.369 . S
C1711 C1712 1.410 . S
C1711 C1719 1.503 . S
C1712 C1711 1.410 . S
C1712 C1713 1.392 . S
C1712 C1715 1.511 . S
C1713 C1709 1.376 . S
C1713 C1712 1.392 . S
C1713 H1725 0.929 . S
C1714 C1710 1.531 . S
C1714 H1726 0.960 . S
C1714 H1727 0.962 . S
C1714 H1728 0.960 . S
C1715 C1712 1.511 . S
C1715 H1729 0.961 . S
C1715 H1730 0.961 . S
C1715 H1731 0.961 . S
C1716 C1717 1.370 . S
C1716 C1718 1.363 . S
C1716 H1732 0.931 . S
C1717 C1716 1.370 . S
C1717 C1721 1.408 . S
C1718 C1716 1.363 . S
C1718 C1719 1.370 . S
C1718 C1722 1.524 . S
C1719 C1711 1.503 . S
C1719 C1718 1.370 . S
C1719 C1720 1.403 . S
C1720 C1719 1.403 . S
C1720 C1721 1.404 . S
C1720 C1723 1.539 . S
C1721 C1717 1.408 . S
C1721 C1720 1.404 . S
C1721 H1733 0.930 . S
C1722 C1718 1.524 . S
C1722 H1734 0.956 . S
C1722 H1735 0.961 . S
C1722 H1736 0.961 . S
C1723 C1720 1.539 . S
C1723 H1737 0.958 . S
C1723 H1738 0.961 . S
C1723 H1739 0.960 . S
H1724 C1708 0.931 . S
H1725 C1713 0.929 . S
H1726 C1714 0.960 . S
H1727 C1714 0.962 . S
H1728 C1714 0.960 . S
H1729 C1715 0.961 . S
H1730 C1715 0.961 . S
H1731 C1715 0.961 . S
H1732 C1716 0.931 . S
H1733 C1721 0.930 . S
H1734 C1722 0.956 . S
H1735 C1722 0.961 . S
H1736 C1722 0.961 . S
H1737 C1723 0.958 . S
H1738 C1723 0.961 . S
H1739 C1723 0.960 . S
C1740 C1741 1.391 . S
C1740 C1742 1.394 . S
C1740 H1756 0.931 . S
C1741 C1740 1.391 . S
C1741 C1745 1.376 . S
C1742 C1740 1.394 . S
C1742 C1743 1.369 . S
C1742 C1746 1.531 . S
C1743 C1742 1.369 . S
C1743 C1744 1.410 . S
C1743 C1751 1.503 . S
C1744 C1743 1.410 . S
C1744 C1745 1.392 . S
C1744 C1747 1.511 . S
C1745 C1741 1.376 . S
C1745 C1744 1.392 . S
C1745 H1757 0.929 . S
C1746 C1742 1.531 . S
C1746 H1758 0.960 . S
C1746 H1759 0.962 . S
C1746 H1760 0.960 . S
C1747 C1744 1.511 . S
C1747 H1761 0.961 . S
C1747 H1762 0.961 . S
C1747 H1763 0.961 . S
C1748 C1749 1.370 . S
C1748 C1750 1.363 . S
C1748 H1764 0.931 . S
C1749 C1748 1.370 . S
C1749 C1753 1.408 . S
C1750 C1748 1.363 . S
C1750 C1751 1.370 . S
C1750 C1754 1.524 . S
C1751 C1743 1.503 . S
C1751 C1750 1.370 . S
C1751 C1752 1.403 . S
C1752 C1751 1.403 . S
C1752 C1753 1.404 . S
C1752 C1755 1.539 . S
C1753 C1749 1.408 . S
C1753 C1752 1.404 . S
C1753 H1765 0.930 . S
C1754 C1750 1.524 . S
C1754 H1766 0.956 . S
C1754 H1767 0.961 . S
C1754 H1768 0.961 . S
C1755 C1752 1.539 . S
C1755 H1769 0.958 . S
C1755 H1770 0.961 . S
C1755 H1771 0.960 . S
H1756 C1740 0.931 . S
H1757 C1745 0.929 . S
H1758 C1746 0.960 . S
H1759 C1746 0.962 . S
H1760 C1746 0.960 . S
H1761 C1747 0.961 . S
H1762 C1747 0.961 . S
H1763 C1747 0.961 . S
H1764 C1748 0.931 . S
H1765 C1753 0.930 . S
H1766 C1754 0.956 . S
H1767 C1754 0.961 . S
H1768 C1754 0.961 . S
H1769 C1755 0.958 . S
H1770 C1755 0.961 . S
H1771 C1755 0.960 . S
C1772 C1773 1.391 . S
C1772 C1774 1.394 1_556 S
C1772 H1788 0.931 . S
C1773 C1772 1.391 . S
C1773 C1777 1.376 . S
C1774 C1772 1.394 1_554 S
C1774 C1775 1.369 1_554 S
C1774 C1778 1.531 . S
C1775 C1774 1.369 1_556 S
C1775 C1776 1.410 . S
C1775 C1783 1.503 1_556 S
C1776 C1775 1.410 . S
C1776 C1777 1.392 . S
C1776 C1779 1.511 . S
C1777 C1773 1.376 . S
C1777 C1776 1.392 . S
C1777 H1789 0.929 . S
C1778 C1774 1.531 . S
C1778 H1790 0.960 . S
C1778 H1791 0.962 . S
C1778 H1792 0.960 . S
C1779 C1776 1.511 . S
C1779 H1793 0.961 . S
C1779 H1794 0.961 . S
C1779 H1795 0.961 . S
C1780 C1781 1.370 1_556 S
C1780 C1782 1.363 . S
C1780 H1796 0.931 . S
C1781 C1780 1.370 1_554 S
C1781 C1785 1.408 . S
C1782 C1780 1.363 . S
C1782 C1783 1.370 1_556 S
C1782 C1786 1.524 . S
C1783 C1775 1.503 1_554 S
C1783 C1782 1.370 1_554 S
C1783 C1784 1.403 . S
C1784 C1783 1.403 . S
C1784 C1785 1.404 . S
C1784 C1787 1.539 . S
C1785 C1781 1.408 . S
C1785 C1784 1.404 . S
C1785 H1797 0.930 . S
C1786 C1782 1.524 . S
C1786 H1798 0.956 . S
C1786 H1799 0.961 . S
C1786 H1800 0.961 . S
C1787 C1784 1.539 . S
C1787 H1801 0.958 . S
C1787 H1802 0.961 . S
C1787 H1803 0.960 . S
H1788 C1772 0.931 . S
H1789 C1777 0.929 . S
H1790 C1778 0.960 . S
H1791 C1778 0.962 . S
H1792 C1778 0.960 . S
H1793 C1779 0.961 . S
H1794 C1779 0.961 . S
H1795 C1779 0.961 . S
H1796 C1780 0.931 . S
H1797 C1785 0.930 . S
H1798 C1786 0.956 . S
H1799 C1786 0.961 . S
H1800 C1786 0.961 . S
H1801 C1787 0.958 . S
H1802 C1787 0.961 . S
H1803 C1787 0.960 . S
C1804 C1805 1.391 . S
C1804 C1806 1.394 . S
C1804 H1820 0.931 . S
C1805 C1804 1.391 . S
C1805 C1809 1.376 . S
C1806 C1804 1.394 . S
C1806 C1807 1.369 . S
C1806 C1810 1.531 . S
C1807 C1806 1.369 . S
C1807 C1808 1.410 . S
C1807 C1815 1.503 . S
C1808 C1807 1.410 . S
C1808 C1809 1.392 . S
C1808 C1811 1.511 . S
C1809 C1805 1.376 . S
C1809 C1808 1.392 . S
C1809 H1821 0.929 . S
C1810 C1806 1.531 . S
C1810 H1822 0.960 . S
C1810 H1823 0.962 . S
C1810 H1824 0.960 . S
C1811 C1808 1.511 . S
C1811 H1825 0.961 . S
C1811 H1826 0.961 . S
C1811 H1827 0.961 . S
C1812 C1813 1.370 . S
C1812 C1814 1.363 . S
C1812 H1828 0.931 . S
C1813 C1812 1.370 . S
C1813 C1817 1.408 . S
C1814 C1812 1.363 . S
C1814 C1815 1.370 . S
C1814 C1818 1.524 . S
C1815 C1807 1.503 . S
C1815 C1814 1.370 . S
C1815 C1816 1.403 . S
C1816 C1815 1.403 . S
C1816 C1817 1.404 . S
C1816 C1819 1.539 . S
C1817 C1813 1.408 . S
C1817 C1816 1.404 . S
C1817 H1829 0.930 . S
C1818 C1814 1.524 . S
C1818 H1830 0.956 . S
C1818 H1831 0.961 . S
C1818 H1832 0.961 . S
C1819 C1816 1.539 . S
C1819 H1833 0.958 . S
C1819 H1834 0.961 . S
C1819 H1835 0.960 . S
H1820 C1804 0.931 . S
H1821 C1809 0.929 . S
H1822 C1810 0.960 . S
H1823 C1810 0.962 . S
H1824 C1810 0.960 . S
H1825 C1811 0.961 . S
H1826 C1811 0.961 . S
H1827 C1811 0.961 . S
H1828 C1812 0.931 . S
H1829 C1817 0.930 . S
H1830 C1818 0.956 . S
H1831 C1818 0.961 . S
H1832 C1818 0.961 . S
H1833 C1819 0.958 . S
H1834 C1819 0.961 . S
H1835 C1819 0.960 . S
C1836 C1837 1.391 . S
C1836 C1838 1.394 . S
C1836 H1852 0.931 . S
C1837 C1836 1.391 . S
C1837 C1841 1.376 . S
C1838 C1836 1.394 . S
C1838 C1839 1.369 . S
C1838 C1842 1.531 . S
C1839 C1838 1.369 . S
C1839 C1840 1.410 . S
C1839 C1847 1.503 . S
C1840 C1839 1.410 . S
C1840 C1841 1.392 . S
C1840 C1843 1.511 . S
C1841 C1837 1.376 . S
C1841 C1840 1.392 . S
C1841 H1853 0.929 . S
C1842 C1838 1.531 . S
C1842 H1854 0.960 . S
C1842 H1855 0.962 . S
C1842 H1856 0.960 . S
C1843 C1840 1.511 . S
C1843 H1857 0.961 . S
C1843 H1858 0.961 . S
C1843 H1859 0.961 . S
C1844 C1845 1.370 . S
C1844 C1846 1.363 . S
C1844 H1860 0.931 . S
C1845 C1844 1.370 . S
C1845 C1849 1.408 . S
C1846 C1844 1.363 . S
C1846 C1847 1.370 . S
C1846 C1850 1.524 . S
C1847 C1839 1.503 . S
C1847 C1846 1.370 . S
C1847 C1848 1.403 . S
C1848 C1847 1.403 . S
C1848 C1849 1.404 . S
C1848 C1851 1.539 . S
C1849 C1845 1.408 . S
C1849 C1848 1.404 . S
C1849 H1861 0.930 . S
C1850 C1846 1.524 . S
C1850 H1862 0.956 . S
C1850 H1863 0.961 . S
C1850 H1864 0.961 . S
C1851 C1848 1.539 . S
C1851 H1865 0.958 1_554 S
C1851 H1866 0.961 1_554 S
C1851 H1867 0.960 . S
H1852 C1836 0.931 . S
H1853 C1841 0.929 . S
H1854 C1842 0.960 . S
H1855 C1842 0.962 . S
H1856 C1842 0.960 . S
H1857 C1843 0.961 . S
H1858 C1843 0.961 . S
H1859 C1843 0.961 . S
H1860 C1844 0.931 . S
H1861 C1849 0.930 . S
H1862 C1850 0.956 . S
H1863 C1850 0.961 . S
H1864 C1850 0.961 . S
H1865 C1851 0.958 1_556 S
H1866 C1851 0.961 1_556 S
H1867 C1851 0.960 . S
C1868 C1869 1.391 . S
C1868 C1870 1.394 . S
C1868 H1884 0.931 . S
C1869 C1868 1.391 . S
C1869 C1873 1.376 1_565 S
C1870 C1868 1.394 . S
C1870 C1871 1.369 . S
C1870 C1874 1.531 . S
C1871 C1870 1.369 . S
C1871 C1872 1.423 . S
C1871 C1879 1.503 . S
C1872 C1871 1.423 . S
C1872 C1873 1.399 1_565 S
C1872 C1875 1.492 1_554 S
C1873 C1869 1.376 1_545 S
C1873 C1872 1.399 1_545 S
C1873 H1885 0.929 1_554 S
C1874 C1870 1.531 . S
C1874 H1886 0.960 . S
C1874 H1887 0.962 . S
C1874 H1888 0.960 . S
C1875 C1872 1.492 1_556 S
C1875 H1889 0.961 1_565 S
C1875 H1890 0.961 . S
C1875 H1891 0.961 . S
C1876 C1877 1.370 . S
C1876 C1878 1.363 . S
C1876 H1892 0.931 . S
C1877 C1876 1.370 . S
C1877 C1881 1.408 1_554 S
C1878 C1876 1.363 . S
C1878 C1879 1.370 . S
C1878 C1882 1.524 . S
C1879 C1871 1.503 . S
C1879 C1878 1.370 . S
C1879 C1880 1.403 . S
C1880 C1879 1.403 . S
C1880 C1881 1.404 1_554 S
C1880 C1883 1.539 1_554 S
C1881 C1877 1.408 1_556 S
C1881 C1880 1.404 1_556 S
C1881 H1893 0.930 . S
C1882 C1878 1.524 . S
C1882 H1894 0.956 . S
C1882 H1895 0.961 1_565 S
C1882 H1896 0.961 1_565 S
C1883 C1880 1.539 1_556 S
C1883 H1897 0.958 1_556 S
C1883 H1898 0.961 . S
C1883 H1899 0.960 . S
H1884 C1868 0.931 . S
H1885 C1873 0.929 1_556 S
H1886 C1874 0.960 . S
H1887 C1874 0.962 . S
H1888 C1874 0.960 . S
H1889 C1875 0.961 1_545 S
H1890 C1875 0.961 . S
H1891 C1875 0.961 . S
H1892 C1876 0.931 . S
H1893 C1881 0.930 . S
H1894 C1882 0.956 . S
H1895 C1882 0.961 1_545 S
H1896 C1882 0.961 1_545 S
H1897 C1883 0.958 1_554 S
H1898 C1883 0.961 . S
H1899 C1883 0.960 . S
C373 C218 1.662 . S
C365 C73 1.672 . S
C405 C231 1.349 . S
C397 C82 1.318 . S
C429 C100 1.813 . S
C437 C244 1.790 . S
C469 C257 1.340 . S
C461 C56 1.325 1_655 S
C501 C265 1.340 . S
C493 C134 1.382 . S
C533 C278 1.613 . S
C525 C165 1.610 . S
C557 C147 1.161 . S
C565 C291 1.211 . S
C597 C304 1.789 . S
C589 C125 1.826 . S
C621 C151 1.329 . S
C629 C322 1.332 . S
C661 C333 1.477 . S
C653 C121 1.470 . S
C685 C139 1.723 . S
C693 C317 1.708 . S
C725 C325 1.270 . S
C717 C164 1.297 . S
C749 C95 1.289 . S
C757 C348 1.383 . S
C781 C61 1.490 . S
C789 C338 1.484 . S
C813 C74 1.440 . S
C821 C343 1.409 . S
C845 C86 1.795 . S
C853 C346 1.760 . S
C877 C47 1.349 . S
C885 C255 1.327 . S
C909 C186 1.229 . S
C917 C247 1.244 . S
C949 C216 1.528 . S
C941 C204 1.566 . S
C981 C221 1.877 . S
C973 C112 1.880 . S
C1005 C60 1.416 1_545 S
C1013 C268 1.385 . S
C1045 C307 1.426 . S
C1037 C152 1.428 . S
C1077 C260 1.839 . S
C1069 C126 1.871 1_545 S
C1109 C286 1.254 . S
C1101 C160 1.270 . S
C1141 C296 1.655 . S
C1133 C190 1.673 . S
C1165 C199 1.352 . S
C1173 C309 1.362 . S
C1197 C113 1.810 . S
C1205 C270 1.788 . S
C1237 C283 1.348 . S
C1229 C173 1.292 . S
C1261 C43 1.361 . S
C1269 C239 1.353 . S
C1301 C252 1.595 . S
C1293 C9 1.634 1_655 S
C1333 C213 1.221 . S
C1325 C17 1.176 . S
C1365 C226 1.804 . S
C1357 C34 1.817 1_455 S
C1389 C21 1.330 . S
C1397 C335 1.330 . S
C1421 C30 1.470 . S
C1429 C320 1.478 1_655 S
C1453 C48 1.728 . S
C1461 C330 1.701 . S
C1485 C8 1.299 . S
C1493 C312 1.266 1_455 S
C1525 C361 1.383 . S
C1517 C108 1.290 . S
C1557 C351 1.477 . S
C1549 C178 1.499 . S
C1589 C356 1.423 . S
C1581 C191 1.434 . S
C1613 C203 1.793 . S
C1621 C359 1.771 . S
C1645 C138 1.338 . S
C1653 C281 1.315 . S
C1685 C273 1.245 . S
C1677 C69 1.227 . S
C1717 C294 1.520 . S
C1709 C87 1.568 . S
C1749 C299 1.868 . S
C1741 C99 1.887 . S
C1773 C177 1.412 . S
C1781 C242 1.397 . S
C1813 C229 1.419 . S
C1805 C22 1.443 . S
C1837 C35 1.886 . S
C1845 C234 1.838 . S
C1877 C208 1.229 1_554 S
C1869 C4 1.230 1_565 S
