# Generated by pormake.
# Topology zzz, (3,6)-cn, num edge types: 1
# Building blocks:
#     Node 0, Type 0, BuildingBlock: VETTIZ_charged_linker_0, # of connection points: 3
#     Node 1, Type 0, BuildingBlock: VETTIZ_charged_linker_0, # of connection points: 3
#     Node 2, Type 0, BuildingBlock: VETTIZ_charged_linker_0, # of connection points: 3
#     Node 3, Type 0, BuildingBlock: VETTIZ_charged_linker_0, # of connection points: 3
#     Node 4, Type 0, BuildingBlock: VETTIZ_charged_linker_0, # of connection points: 3
#     Node 5, Type 0, BuildingBlock: VETTIZ_charged_linker_0, # of connection points: 3
#     Node 6, Type 0, BuildingBlock: VETTIZ_charged_linker_0, # of connection points: 3
#     Node 7, Type 0, BuildingBlock: VETTIZ_charged_linker_0, # of connection points: 3
#     Node 8, Type 1, BuildingBlock: GEDQOX_clean_sbu_0, # of connection points: 6
#     Node 9, Type 1, BuildingBlock: GEDQOX_clean_sbu_0, # of connection points: 6
#     Node 10, Type 1, BuildingBlock: GEDQOX_clean_sbu_0, # of connection points: 6
#     Node 11, Type 1, BuildingBlock: GEDQOX_clean_sbu_0, # of connection points: 6
#     Edge 12, Type (0, 1), BuildingBlock: ZUJKAS_clean_linker_0, # of connection points: 2
#     Edge 13, Type (0, 1), BuildingBlock: ZUJKAS_clean_linker_0, # of connection points: 2
#     Edge 14, Type (0, 1), BuildingBlock: ZUJKAS_clean_linker_0, # of connection points: 2
#     Edge 15, Type (0, 1), BuildingBlock: ZUJKAS_clean_linker_0, # of connection points: 2
#     Edge 16, Type (0, 1), BuildingBlock: ZUJKAS_clean_linker_0, # of connection points: 2
#     Edge 17, Type (0, 1), BuildingBlock: ZUJKAS_clean_linker_0, # of connection points: 2
#     Edge 18, Type (0, 1), BuildingBlock: ZUJKAS_clean_linker_0, # of connection points: 2
#     Edge 19, Type (0, 1), BuildingBlock: ZUJKAS_clean_linker_0, # of connection points: 2
#     Edge 20, Type (0, 1), BuildingBlock: ZUJKAS_clean_linker_0, # of connection points: 2
#     Edge 21, Type (0, 1), BuildingBlock: ZUJKAS_clean_linker_0, # of connection points: 2
#     Edge 22, Type (0, 1), BuildingBlock: ZUJKAS_clean_linker_0, # of connection points: 2
#     Edge 23, Type (0, 1), BuildingBlock: ZUJKAS_clean_linker_0, # of connection points: 2
#     Edge 24, Type (0, 1), BuildingBlock: ZUJKAS_clean_linker_0, # of connection points: 2
#     Edge 25, Type (0, 1), BuildingBlock: ZUJKAS_clean_linker_0, # of connection points: 2
#     Edge 26, Type (0, 1), BuildingBlock: ZUJKAS_clean_linker_0, # of connection points: 2
#     Edge 27, Type (0, 1), BuildingBlock: ZUJKAS_clean_linker_0, # of connection points: 2
#     Edge 28, Type (0, 1), BuildingBlock: ZUJKAS_clean_linker_0, # of connection points: 2
#     Edge 29, Type (0, 1), BuildingBlock: ZUJKAS_clean_linker_0, # of connection points: 2
#     Edge 30, Type (0, 1), BuildingBlock: ZUJKAS_clean_linker_0, # of connection points: 2
#     Edge 31, Type (0, 1), BuildingBlock: ZUJKAS_clean_linker_0, # of connection points: 2
#     Edge 32, Type (0, 1), BuildingBlock: ZUJKAS_clean_linker_0, # of connection points: 2
#     Edge 33, Type (0, 1), BuildingBlock: ZUJKAS_clean_linker_0, # of connection points: 2
#     Edge 34, Type (0, 1), BuildingBlock: ZUJKAS_clean_linker_0, # of connection points: 2
#     Edge 35, Type (0, 1), BuildingBlock: ZUJKAS_clean_linker_0, # of connection points: 2
# Relax obj value: 0.309
# Max RMSD: 0.256
# Mean RMSD: 0.207
data_MOF--net-zzz--node1-GEDQOX_clean_sbu_0--node2-VETTIZ_charged_linker_0--edge1-ZUJKAS_clean_linker_0
_symmetry_space_group_name_H-M    P1
_symmetry_Int_Tables_number       1
_symmetry_cell_setting            triclinic
loop_
_symmetry_equiv_pos_as_xyz
'x, y, z'
_cell_length_a     76.816953
_cell_length_b     72.268853
_cell_length_c     26.447983
_cell_angle_alpha  83.766933
_cell_angle_beta   91.267244
_cell_angle_gamma 100.92636
loop_
_atom_site_label
_atom_site_type_symbol
_atom_site_fract_x
_atom_site_fract_y
_atom_site_fract_z
_atom_type_partial_charge
C0 C 0.78435 0.47264 0.26524 0.0
C1 C 0.80004 0.46824 0.28794 0.0
C2 C 0.80914 0.45621 0.26471 0.0
C3 C 0.78789 0.45426 0.19576 0.0
C4 C 0.77846 0.46536 0.21938 0.0
C5 C 0.76213 0.46853 0.18951 0.0
H6 H 0.71273 0.45772 0.97491 0.0
C7 C 0.77913 0.45013 0.14697 0.0
C8 C 0.76389 0.45824 0.14311 0.0
H9 H 0.70143 0.48365 0.10736 0.0
H10 H 0.72826 0.47669 0.14761 0.0
H11 H 0.75374 0.47622 0.97015 0.0
H12 H 0.7266 0.42154 0.03642 0.0
H13 H 0.74493 0.41845 0.0014 0.0
H14 H 0.72751 0.42858 0.96912 0.0
H15 H 0.74548 0.4574 0.93192 0.0
H16 H 0.76723 0.45986 0.9606 0.0
C17 C 0.76357 0.49011 0.17521 0.0
C18 C 0.7456 0.45901 0.22179 0.0
C19 C 0.81049 0.41932 0.02231 0.0
C20 C 0.80766 0.41664 0.97078 0.0
C21 C 0.79188 0.42045 0.94721 0.0
C22 C 0.77941 0.42741 0.97431 0.0
C23 C 0.7829 0.43091 0.02523 0.0
C24 C 0.79816 0.42663 0.04841 0.0
C25 C 0.80051 0.4325 0.10123 0.0
C26 C 0.7842 0.44115 0.10605 0.0
C27 C 0.77385 0.44008 0.06168 0.0
C28 C 0.81794 0.44742 0.10238 0.0
C29 C 0.80001 0.4144 0.1389 0.0
C30 C 0.7161 0.46203 0.01242 0.0
C31 C 0.70487 0.4712 0.03798 0.0
C32 C 0.70969 0.47634 0.08707 0.0
C33 C 0.72532 0.47235 0.11035 0.0
C34 C 0.73635 0.46313 0.08439 0.0
C35 C 0.73165 0.45809 0.0363 0.0
C36 C 0.745 0.44836 0.0145 0.0
C37 C 0.75818 0.4479 0.05803 0.0
C38 C 0.75316 0.45679 0.09867 0.0
C39 C 0.75329 0.46093 0.96658 0.0
C40 C 0.73561 0.42818 0.0044 0.0
H41 H 0.81091 0.44042 0.20301 0.0
H42 H 0.77693 0.48163 0.28254 0.0
H43 H 0.74828 0.44658 0.24734 0.0
H44 H 0.73421 0.4532 0.19828 0.0
H45 H 0.74153 0.46906 0.24606 0.0
H46 H 0.77723 0.49672 0.16217 0.0
H47 H 0.76058 0.49713 0.20845 0.0
H48 H 0.75477 0.49357 0.14352 0.0
H49 H 0.82269 0.41704 0.04116 0.0
H50 H 0.78943 0.41849 0.90747 0.0
H51 H 0.76778 0.43032 0.95415 0.0
H52 H 0.82033 0.45627 0.06516 0.0
H53 H 0.82958 0.44049 0.11054 0.0
H54 H 0.81769 0.45774 0.13006 0.0
H55 H 0.79096 0.40205 0.12508 0.0
H56 H 0.79472 0.41571 0.17663 0.0
H57 H 0.81337 0.41067 0.14369 0.0
H58 H 0.82135 0.45276 0.28093 0.0
C59 C 0.80314 0.44917 0.21905 0.0
C60 C 0.94164 0.76574 0.02587 0.0
C61 C 0.94044 0.78477 0.02897 0.0
C62 C 0.93578 0.79011 0.07584 0.0
C63 C 0.9379 0.75913 0.11721 0.0
C64 C 0.94045 0.7532 0.07052 0.0
C65 C 0.94351 0.73312 0.0754 0.0
H66 H 0.97026 0.66057 0.21817 0.0
C67 C 0.94133 0.74431 0.15703 0.0
C68 C 0.94453 0.72898 0.13307 0.0
H69 H 0.95238 0.66379 0.06171 0.0
H70 H 0.94478 0.69401 0.06896 0.0
H71 H 0.98924 0.70653 0.21777 0.0
H72 H 0.93583 0.67843 0.2615 0.0
H73 H 0.9463 0.69247 0.30844 0.0
H74 H 0.95499 0.6722 0.29437 0.0
H75 H 0.98516 0.68898 0.27191 0.0
H76 H 0.98315 0.71318 0.27619 0.0
C77 C 0.96135 0.73295 0.04934 0.0
C78 C 0.92721 0.72059 0.05243 0.0
C79 C 0.94908 0.76175 0.33669 0.0
C80 C 0.95673 0.75424 0.38086 0.0
C81 C 0.96279 0.73698 0.38029 0.0
C82 C 0.96102 0.72737 0.3361 0.0
C83 C 0.9535 0.73535 0.29178 0.0
C84 C 0.94788 0.7524 0.29295 0.0
C85 C 0.9421 0.76025 0.24204 0.0
C86 C 0.94443 0.74481 0.20992 0.0
C87 C 0.95092 0.73001 0.23886 0.0
C88 C 0.95483 0.77942 0.22609 0.0
C89 C 0.92232 0.76176 0.2457 0.0
C90 C 0.96474 0.66793 0.18565 0.0
C91 C 0.96196 0.65982 0.13915 0.0
C92 C 0.95453 0.66964 0.09787 0.0
C93 C 0.95018 0.68726 0.102 0.0
C94 C 0.95334 0.69543 0.14776 0.0
C95 C 0.95998 0.68568 0.18935 0.0
C96 C 0.96101 0.69649 0.23572 0.0
C97 C 0.95374 0.71407 0.21466 0.0
C98 C 0.94991 0.71343 0.16253 0.0
C99 C 0.98065 0.70154 0.25172 0.0
C100 C 0.94898 0.68429 0.27758 0.0
H101 H 0.93152 0.78249 0.1546 0.0
H102 H 0.94465 0.76109 0.99006 0.0
H103 H 0.91578 0.72801 0.04595 0.0
H104 H 0.92206 0.70767 0.07836 0.0
H105 H 0.93044 0.71633 0.01515 0.0
H106 H 0.97189 0.7444 0.0616 0.0
H107 H 0.96015 0.73525 0.0073 0.0
H108 H 0.96627 0.71963 0.05874 0.0
H109 H 0.94489 0.77531 0.33527 0.0
H110 H 0.96892 0.73101 0.4139 0.0
H111 H 0.96584 0.71432 0.33771 0.0
H112 H 0.96711 0.78134 0.24957 0.0
H113 H 0.94838 0.7917 0.23003 0.0
H114 H 0.95975 0.78042 0.18667 0.0
H115 H 0.91477 0.74914 0.26888 0.0
H116 H 0.91562 0.76213 0.20827 0.0
H117 H 0.92086 0.77452 0.26395 0.0
H118 H 0.93465 0.80461 0.07964 0.0
C119 C 0.93434 0.77733 0.1198 0.0
C120 C 0.80511 1.00029 0.0712 0.0
C121 C 0.81154 0.0053 0.02103 0.0
C122 C 0.80093 0.01364 0.98445 0.0
C123 C 0.7788 0.01344 0.04816 0.0
C124 C 0.78873 0.00455 0.08394 0.0
C125 C 0.77985 1.00072 0.13544 0.0
H126 H 0.7124 0.01332 0.2831 0.0
C127 C 0.76323 0.01731 0.07372 0.0
C128 C 0.76377 0.0101 0.12517 0.0
H129 H 0.75168 0.97886 0.32499 0.0
H130 H 0.76553 0.98805 0.24176 0.0
H131 H 0.73711 0.04843 0.22475 0.0
H132 H 0.70482 0.99825 0.17592 0.0
H133 H 0.70103 0.01746 0.13338 0.0
H134 H 0.69601 0.01695 0.19956 0.0
H135 H 0.71368 0.04655 0.21522 0.0
H136 H 0.72931 0.05547 0.16416 0.0
C137 C 0.79256 0.01054 0.17468 0.0
C138 C 0.77444 0.97899 0.14828 0.0
C139 C 0.71792 0.04898 0.97183 0.0
C140 C 0.70264 0.05522 0.9863 0.0
C141 C 0.69952 0.05565 0.03849 0.0
C142 C 0.71041 0.04843 0.07556 0.0
C143 C 0.72468 0.04073 0.06053 0.0
C144 C 0.72879 0.04195 0.00959 0.0
C145 C 0.74535 0.03436 0.00136 0.0
C146 C 0.74966 0.02721 0.0556 0.0
C147 C 0.73729 0.03067 0.08974 0.0
C148 C 0.75976 0.05108 0.97864 0.0
C149 C 0.7406 0.0179 0.96754 0.0
C150 C 0.72421 0.00804 0.27484 0.0
C151 C 0.73113 0.99562 0.31076 0.0
C152 C 0.74616 0.98853 0.29785 0.0
C153 C 0.75409 0.99381 0.24956 0.0
C154 C 0.74667 0.00596 0.21359 0.0
C155 C 0.73193 0.01277 0.22679 0.0
C156 C 0.72474 0.02418 0.18334 0.0
C157 C 0.73755 0.02318 0.14149 0.0
C158 C 0.75054 0.01269 0.15923 0.0
C159 C 0.72611 0.04471 0.19739 0.0
C160 C 0.70562 0.01388 0.1723 0.0
H161 H 0.7774 0.02424 0.96811 0.0
H162 H 0.81287 0.99376 0.10013 0.0
H163 H 0.77089 0.97184 0.11325 0.0
H164 H 0.76248 0.9749 0.17236 0.0
H165 H 0.78546 0.97294 0.16729 0.0
H166 H 0.79825 0.02536 0.15941 0.0
H167 H 0.80372 0.00294 0.18368 0.0
H168 H 0.78589 0.01148 0.21055 0.0
H169 H 0.72089 0.04866 0.93215 0.0
H170 H 0.68825 0.06102 0.05079 0.0
H171 H 0.70693 0.04856 0.11453 0.0
H172 H 0.75693 0.06504 0.98651 0.0
H173 H 0.76068 0.05134 0.93671 0.0
H174 H 0.773 0.05065 0.99566 0.0
H175 H 0.7278 0.00862 0.97982 0.0
H176 H 0.75043 0.00851 0.97 0.0
H177 H 0.73919 0.02339 0.92706 0.0
H178 H 0.80525 0.01712 0.94528 0.0
C179 C 0.7847 0.01776 0.99772 0.0
C180 C 0.56172 0.73046 0.40362 0.0
C181 C 0.56852 0.71382 0.4185 0.0
C182 C 0.58143 0.70907 0.38789 0.0
C183 C 0.57971 0.73612 0.32703 0.0
C184 C 0.56782 0.74165 0.35803 0.0
C185 C 0.56304 0.76034 0.33632 0.0
H186 H 0.57192 0.83077 0.1382 0.0
C187 C 0.5828 0.74981 0.28121 0.0
C188 C 0.57352 0.7645 0.28658 0.0
H189 H 0.54154 0.82802 0.27511 0.0
H190 H 0.55043 0.79817 0.30638 0.0
H191 H 0.60651 0.81639 0.19014 0.0
H192 H 0.55869 0.79174 0.118 0.0
H193 H 0.57326 0.77664 0.10746 0.0
H194 H 0.57837 0.80124 0.08184 0.0
H195 H 0.60168 0.82036 0.12354 0.0
H196 H 0.6122 0.80101 0.14859 0.0
C197 C 0.56966 0.77521 0.37356 0.0
C198 C 0.54284 0.7572 0.32685 0.0
C199 C 0.60922 0.73062 0.12584 0.0
C200 C 0.61047 0.73877 0.07496 0.0
C201 C 0.60905 0.75794 0.06405 0.0
C202 C 0.60458 0.76816 0.10233 0.0
C203 C 0.60121 0.75901 0.15182 0.0
C204 C 0.60438 0.74087 0.16347 0.0
C205 C 0.59975 0.73325 0.21773 0.0
C206 C 0.59186 0.74926 0.23533 0.0
C207 C 0.59274 0.7642 0.19655 0.0
C208 C 0.61715 0.73081 0.24649 0.0
C209 C 0.5858 0.71467 0.21739 0.0
C210 C 0.56747 0.82406 0.17552 0.0
C211 C 0.55635 0.83201 0.20462 0.0
C212 C 0.55024 0.82225 0.25202 0.0
C213 C 0.55547 0.80499 0.27017 0.0
C214 C 0.56676 0.79733 0.2403 0.0
C215 C 0.5724 0.80696 0.19371 0.0
C216 C 0.5833 0.79661 0.16479 0.0
C217 C 0.58407 0.77947 0.20238 0.0
C218 C 0.57437 0.77973 0.24686 0.0
C219 C 0.6019 0.8092 0.1558 0.0
C220 C 0.57305 0.79132 0.11535 0.0
H221 H 0.59667 0.71548 0.32083 0.0
H222 H 0.55201 0.73464 0.42692 0.0
H223 H 0.53836 0.74411 0.30787 0.0
H224 H 0.53883 0.76882 0.30153 0.0
H225 H 0.5355 0.75561 0.36328 0.0
H226 H 0.58319 0.77398 0.38762 0.0
H227 H 0.56076 0.77314 0.40707 0.0
H228 H 0.57077 0.78989 0.35565 0.0
H229 H 0.6102 0.7159 0.13546 0.0
H230 H 0.61026 0.76463 0.02527 0.0
H231 H 0.60295 0.78243 0.09122 0.0
H232 H 0.62915 0.73875 0.22552 0.0
H233 H 0.6185 0.71569 0.25232 0.0
H234 H 0.61797 0.73655 0.28389 0.0
H235 H 0.57527 0.71657 0.18877 0.0
H236 H 0.57887 0.71009 0.25389 0.0
H237 H 0.59202 0.70285 0.2076 0.0
H238 H 0.58683 0.69637 0.39828 0.0
C239 C 0.58707 0.72012 0.34263 0.0
C240 C 0.30959 0.53605 0.51657 0.0
C241 C 0.31701 0.5401 0.56428 0.0
C242 C 0.30767 0.54913 0.59653 0.0
C243 C 0.28436 0.5502 0.53363 0.0
C244 C 0.29331 0.54112 0.50221 0.0
C245 C 0.28338 0.53739 0.4535 0.0
H246 H 0.20921 0.54147 0.31246 0.0
C247 C 0.26803 0.55388 0.50715 0.0
C248 C 0.26741 0.5465 0.45994 0.0
H249 H 0.25214 0.51346 0.28173 0.0
H250 H 0.26835 0.52575 0.35461 0.0
H251 H 0.20797 0.52963 0.43308 0.0
H252 H 0.23227 0.5794 0.33822 0.0
H253 H 0.22825 0.58758 0.39626 0.0
H254 H 0.20983 0.5765 0.35944 0.0
H255 H 0.19611 0.54518 0.39457 0.0
H256 H 0.20299 0.54966 0.45789 0.0
C257 C 0.27809 0.51563 0.45269 0.0
C258 C 0.29511 0.54762 0.40826 0.0
C259 C 0.22335 0.58324 0.59577 0.0
C260 C 0.2073 0.5886 0.57918 0.0
C261 C 0.20256 0.5883 0.52747 0.0
C262 C 0.21292 0.58151 0.49359 0.0
C263 C 0.22814 0.57482 0.51149 0.0
C264 C 0.23369 0.57664 0.56104 0.0
C265 C 0.25103 0.57009 0.57165 0.0
C266 C 0.25429 0.563 0.52117 0.0
C267 C 0.24056 0.5654 0.48674 0.0
C268 C 0.24811 0.5538 0.61554 0.0
C269 C 0.26524 0.58747 0.58284 0.0
C270 C 0.22209 0.53794 0.32154 0.0
C271 C 0.22926 0.52619 0.29213 0.0
C272 C 0.2463 0.52239 0.30414 0.0
C273 C 0.25558 0.52939 0.34667 0.0
C274 C 0.24771 0.54027 0.37741 0.0
C275 C 0.2314 0.54469 0.36379 0.0
C276 C 0.22483 0.55621 0.40056 0.0
C277 C 0.23959 0.55746 0.43977 0.0
C278 C 0.25296 0.54809 0.42624 0.0
C279 C 0.207 0.54474 0.42276 0.0
C280 C 0.22359 0.57592 0.3724 0.0
H281 H 0.28507 0.56106 0.60772 0.0
H282 H 0.31637 0.52926 0.49052 0.0
H283 H 0.3019 0.56195 0.41692 0.0
H284 H 0.28741 0.55003 0.37323 0.0
H285 H 0.30548 0.53954 0.40008 0.0
H286 H 0.27526 0.50837 0.49175 0.0
H287 H 0.28891 0.50979 0.43676 0.0
H288 H 0.26577 0.51135 0.43121 0.0
H289 H 0.22747 0.58364 0.63514 0.0
H290 H 0.19024 0.59226 0.51373 0.0
H291 H 0.20825 0.58101 0.4552 0.0
H292 H 0.23533 0.54395 0.61046 0.0
H293 H 0.24767 0.5594 0.65287 0.0
H294 H 0.25836 0.54492 0.6172 0.0
H295 H 0.26216 0.60083 0.56279 0.0
H296 H 0.27854 0.58678 0.56888 0.0
H297 H 0.26602 0.5891 0.62415 0.0
H298 H 0.31274 0.55206 0.63392 0.0
C299 C 0.29149 0.55426 0.58139 0.0
C300 C 0.08448 0.24015 0.5736 0.0
C301 C 0.08575 0.22108 0.57142 0.0
C302 C 0.09048 0.21549 0.52492 0.0
C303 C 0.08786 0.2461 0.48207 0.0
C304 C 0.08542 0.25237 0.52839 0.0
C305 C 0.08198 0.27231 0.52248 0.0
H306 H 0.05188 0.34228 0.3781 0.0
C307 C 0.08384 0.26041 0.44163 0.0
C308 C 0.08047 0.27586 0.46477 0.0
H309 H 0.07193 0.34136 0.5324 0.0
H310 H 0.08032 0.31148 0.52609 0.0
H311 H 0.08641 0.32498 0.33234 0.0
H312 H 0.03406 0.29583 0.38335 0.0
H313 H 0.03961 0.2887 0.32496 0.0
H314 H 0.037 0.31281 0.32781 0.0
H315 H 0.06658 0.33032 0.30142 0.0
H316 H 0.07552 0.3102 0.2875 0.0
C317 C 0.0983 0.28537 0.54375 0.0
C318 C 0.06428 0.2724 0.54946 0.0
C319 C 0.07462 0.24079 0.26431 0.0
C320 C 0.06607 0.24743 0.22079 0.0
C321 C 0.05941 0.26434 0.22076 0.0
C322 C 0.06148 0.27452 0.26395 0.0
C323 C 0.06987 0.2674 0.30784 0.0
C324 C 0.07605 0.25063 0.30722 0.0
C325 C 0.0826 0.24356 0.35796 0.0
C326 C 0.08018 0.25922 0.3892 0.0
C327 C 0.07292 0.27343 0.35998 0.0
C328 C 0.10247 0.24267 0.35279 0.0
C329 C 0.07051 0.2242 0.37615 0.0
C330 C 0.05803 0.33549 0.41038 0.0
C331 C 0.06121 0.34418 0.45597 0.0
C332 C 0.06947 0.33509 0.49689 0.0
C333 C 0.07427 0.31765 0.49336 0.0
C334 C 0.07069 0.30888 0.44865 0.0
C335 C 0.06324 0.31791 0.40728 0.0
C336 C 0.06191 0.30655 0.36188 0.0
C337 C 0.06995 0.28951 0.38329 0.0
C338 C 0.07439 0.29087 0.43482 0.0
C339 C 0.07312 0.3186 0.31813 0.0
C340 C 0.04212 0.30068 0.3483 0.0
H341 H 0.0946 0.22264 0.44593 0.0
H342 H 0.08149 0.24502 0.60913 0.0
H343 H 0.05378 0.26069 0.53834 0.0
H344 H 0.05912 0.28556 0.53977 0.0
H345 H 0.06582 0.27046 0.59145 0.0
H346 H 0.10985 0.27818 0.55069 0.0
H347 H 0.0952 0.29012 0.58052 0.0
H348 H 0.10319 0.29801 0.51656 0.0
H349 H 0.07934 0.22751 0.26591 0.0
H350 H 0.05258 0.26958 0.18755 0.0
H351 H 0.05618 0.2873 0.262 0.0
H352 H 0.1095 0.25532 0.3286 0.0
H353 H 0.10409 0.22989 0.33489 0.0
H354 H 0.10954 0.24275 0.38964 0.0
H355 H 0.05816 0.2214 0.3532 0.0
H356 H 0.0657 0.22363 0.41555 0.0
H357 H 0.07743 0.21217 0.37352 0.0
H358 H 0.09172 0.20099 0.52178 0.0
C359 C 0.09173 0.22798 0.48041 0.0
C360 C 0.29459 0.01613 0.32054 0.0
C361 C 0.31247 0.0161 0.30962 0.0
C362 C 0.32359 0.01041 0.34891 0.0
C363 C 0.29941 0.00498 0.40891 0.0
C364 C 0.28839 0.0107 0.3707 0.0
C365 C 0.27006 0.01057 0.39059 0.0
H366 H 0.2142 0.99465 0.59372 0.0
C367 C 0.28914 1.00011 0.45651 0.0
C368 C 0.2719 0.00336 0.44646 0.0
H369 H 0.20297 0.01559 0.43937 0.0
H370 H 0.2325 0.01322 0.41368 0.0
H371 H 0.23312 0.96198 0.56431 0.0
H372 H 0.25345 0.01887 0.59938 0.0
H373 H 0.26641 0.00384 0.63224 0.0
H374 H 0.24308 1.00026 0.64572 0.0
H375 H 0.23444 0.96808 0.62843 0.0
H376 H 0.25283 0.9612 0.5986 0.0
C377 C 0.25655 0.99655 0.36244 0.0
C378 C 0.26676 0.03116 0.38381 0.0
C379 C 0.3195 0.97694 0.6165 0.0
C380 C 0.31376 0.97096 0.66664 0.0
C381 C 0.29586 0.97007 0.67893 0.0
C382 C 0.28398 0.9757 0.64184 0.0
C383 C 0.29008 0.98213 0.59199 0.0
C384 C 0.30752 0.98235 0.58003 0.0
C385 C 0.3117 0.98905 0.52519 0.0
C386 C 0.29393 0.99311 0.50603 0.0
C387 C 0.28138 0.98921 0.54526 0.0
C388 C 0.31706 0.97248 0.50021 0.0
C389 C 0.32613 0.00735 0.52302 0.0
C390 C 0.21794 0.99852 0.55419 0.0
C391 C 0.20615 0.00526 0.51859 0.0
C392 C 0.21183 0.01051 0.46774 0.0
C393 C 0.22896 0.00909 0.45287 0.0
C394 C 0.2406 0.00244 0.48924 0.0
C395 C 0.2349 0.9972 0.53886 0.0
C396 C 0.24885 0.99047 0.57277 0.0
C397 C 0.26402 0.99277 0.53567 0.0
C398 C 0.25922 0.9998 0.48661 0.0
C399 C 0.24204 0.96938 0.59254 0.0
C400 C 0.2532 0.0039 0.61508 0.0
H401 H 0.3264 1.00061 0.42608 0.0
H402 H 0.28579 0.02056 0.29103 0.0
H403 H 0.27907 0.04134 0.39162 0.0
H404 H 0.25686 0.03364 0.41064 0.0
H405 H 0.26249 0.03508 0.34432 0.0
H406 H 0.26175 0.9834 0.35874 0.0
H407 H 0.25388 0.00289 0.32354 0.0
H408 H 0.24386 0.99185 0.3829 0.0
H409 H 0.33313 0.97741 0.60578 0.0
H410 H 0.29119 0.96544 0.71742 0.0
H411 H 0.27057 0.97502 0.65355 0.0
H412 H 0.30975 0.95854 0.51762 0.0
H413 H 0.33145 0.97244 0.50505 0.0
H414 H 0.31366 0.9727 0.45937 0.0
H415 H 0.32474 0.01563 0.55533 0.0
H416 H 0.32511 0.01729 0.48873 0.0
H417 H 0.33966 0.00396 0.52508 0.0
H418 H 0.33732 0.01005 0.34126 0.0
C419 C 0.31718 0.00482 0.39821 0.0
C420 C 0.468 0.27349 0.1759 0.0
C421 C 0.4649 0.29226 0.16804 0.0
C422 C 0.45473 0.29864 0.20372 0.0
C423 C 0.45209 0.26874 0.2562 0.0
C424 C 0.46144 0.26193 0.22058 0.0
C425 C 0.4638 0.24182 0.23766 0.0
H426 H 0.44901 0.16705 0.42398 0.0
C427 C 0.44764 0.25397 0.29927 0.0
C428 C 0.45406 0.23783 0.28864 0.0
H429 H 0.47893 0.17026 0.28598 0.0
H430 H 0.47217 0.20151 0.25938 0.0
H431 H 0.4649 0.2032 0.45226 0.0
H432 H 0.41622 0.18689 0.37341 0.0
H433 H 0.41213 0.20189 0.41824 0.0
H434 H 0.41995 0.18032 0.43961 0.0
H435 H 0.44454 0.19482 0.48613 0.0
H436 H 0.45234 0.21968 0.46694 0.0
C437 C 0.48384 0.24187 0.24427 0.0
C438 C 0.45477 0.22875 0.19847 0.0
C439 C 0.42583 0.27171 0.46321 0.0
C440 C 0.42256 0.26161 0.51179 0.0
C441 C 0.42026 0.24166 0.51616 0.0
C442 C 0.42332 0.23227 0.47449 0.0
C443 C 0.4287 0.24291 0.42789 0.0
C444 C 0.42884 0.26212 0.42204 0.0
C445 C 0.4345 0.27108 0.36951 0.0
C446 C 0.4393 0.25434 0.34641 0.0
C447 C 0.43606 0.23801 0.38098 0.0
C448 C 0.4509 0.28704 0.37458 0.0
C449 C 0.4183 0.27788 0.34258 0.0
C450 C 0.45378 0.17416 0.38734 0.0
C451 C 0.46427 0.16598 0.35678 0.0
C452 C 0.47079 0.17624 0.31032 0.0
C453 C 0.46688 0.19437 0.29501 0.0
C454 C 0.45662 0.20246 0.32696 0.0
C455 C 0.45029 0.19219 0.37219 0.0
C456 C 0.44076 0.20301 0.40388 0.0
C457 C 0.44215 0.22153 0.37034 0.0
C458 C 0.4513 0.22132 0.3248 0.0
C459 C 0.45098 0.20528 0.45504 0.0
C460 C 0.42124 0.19251 0.40961 0.0
H461 H 0.44085 0.29295 0.27303 0.0
H462 H 0.47571 0.2682 0.14885 0.0
H463 H 0.44133 0.23171 0.18878 0.0
H464 H 0.45287 0.21361 0.21293 0.0
H465 H 0.46262 0.23107 0.16279 0.0
H466 H 0.49043 0.25436 0.26325 0.0
H467 H 0.49034 0.24255 0.20681 0.0
H468 H 0.48662 0.22939 0.26863 0.0
H469 H 0.42764 0.287 0.45784 0.0
H470 H 0.41709 0.23337 0.5525 0.0
H471 H 0.42231 0.2172 0.48093 0.0
H472 H 0.46026 0.2823 0.40368 0.0
H473 H 0.44692 0.29992 0.38638 0.0
H474 H 0.45873 0.29117 0.33939 0.0
H475 H 0.40556 0.27083 0.36125 0.0
H476 H 0.4168 0.2743 0.30279 0.0
H477 H 0.41924 0.2934 0.34281 0.0
H478 H 0.45191 0.31286 0.19803 0.0
C479 C 0.44824 0.28701 0.24727 0.0
Nd480 Nd 0.00236 0.99641 0.74671 0.0
Nd481 Nd 0.02253 0.01079 0.83794 0.0
C482 C 0.98176 0.97587 0.68324 0.0
C483 C 0.97936 0.95612 0.67048 0.0
C484 C 0.96408 0.9482 0.64472 0.0
C485 C 0.96222 0.92991 0.62968 0.0
C486 C 0.97562 0.91914 0.64023 0.0
C487 C 0.99072 0.92699 0.66731 0.0
C488 C 0.99259 0.94531 0.68204 0.0
C489 C 0.03741 0.01156 0.72767 0.0
C490 C 0.01776 0.96598 0.82843 0.0
C491 C 0.04435 0.02609 0.90704 0.0
C492 C 0.04613 0.04458 0.92763 0.0
C493 C 0.03951 0.05955 0.90019 0.0
C494 C 0.04086 0.07698 0.91983 0.0
C495 C 0.04874 0.07983 0.96759 0.0
C496 C 0.05529 0.06475 0.99507 0.0
C497 C 0.05401 0.04731 0.97522 0.0
C498 C 0.9865 0.00856 0.84454 0.0
C499 C 0.00788 0.04043 0.7557 0.0
O500 O 0.97657 0.97837 0.72835 0.0
O501 O 0.99696 0.98668 0.6704 0.0
O502 O 0.02455 0.01479 0.69731 0.0
O503 O 0.0316 1.00076 0.76693 0.0
O504 O 0.01134 0.96966 0.78266 0.0
O505 O 0.02239 0.97919 0.85947 0.0
O506 O 0.0487 0.02682 0.85911 0.0
O507 O 0.02972 0.01391 0.91886 0.0
O508 O 0.99818 0.02238 0.85895 0.0
O509 O 0.99396 0.99629 0.82806 0.0
O510 O 0.0215 0.03746 0.78441 0.0
O511 O 0.99606 0.02634 0.74071 0.0
H512 H 0.9537 0.95628 0.63551 0.0
H513 H 0.9503 0.92424 0.60959 0.0
H514 H 0.00139 0.91925 0.67567 0.0
H515 H 0.00459 0.95119 0.70136 0.0
H516 H 0.03319 0.05773 0.86361 0.0
H517 H 0.03543 0.08813 0.89796 0.0
H518 H 0.06159 0.0665 0.03173 0.0
H519 H 0.05914 0.03595 0.99709 0.0
Nd520 Nd 0.51896 0.98138 0.75053 0.0
Nd521 Nd 0.5012 0.01415 0.80336 0.0
C522 C 0.53911 0.95655 0.73752 0.0
C523 C 0.55499 0.95702 0.70702 0.0
C524 C 0.56457 0.94228 0.71495 0.0
C525 C 0.58031 0.94326 0.68826 0.0
C526 C 0.58677 0.95906 0.65323 0.0
C527 C 0.57694 0.97371 0.64511 0.0
C528 C 0.56123 0.97272 0.67186 0.0
C529 C 0.50834 0.00832 0.67964 0.0
C530 C 0.54283 0.02392 0.76784 0.0
C531 C 0.48089 0.03878 0.81659 0.0
C532 C 0.46502 0.03807 0.84748 0.0
C533 C 0.45988 0.05487 0.85772 0.0
C534 C 0.44481 0.05422 0.88719 0.0
C535 C 0.43459 0.03671 0.90679 0.0
C536 C 0.4398 0.0199 0.89616 0.0
C537 C 0.45491 0.02058 0.86697 0.0
C538 C 0.51157 0.98719 0.87443 0.0
C539 C 0.47767 0.97133 0.78893 0.0
O540 O 0.54149 0.96748 0.77453 0.0
O541 O 0.5243 0.95728 0.71213 0.0
O542 O 0.51486 0.99411 0.66686 0.0
O543 O 0.50754 0.00688 0.72727 0.0
O544 O 0.54215 0.00617 0.75796 0.0
O545 O 0.52906 0.03069 0.78249 0.0
O546 O 0.47867 0.02799 0.77922 0.0
O547 O 0.49575 0.03824 0.84183 0.0
O548 O 0.50498 1.00138 0.88695 0.0
O549 O 0.51264 0.98866 0.82679 0.0
O550 O 0.47819 0.98918 0.79737 0.0
O551 O 0.49134 0.96455 0.7738 0.0
H552 H 0.56002 0.93015 0.74238 0.0
H553 H 0.58763 0.93185 0.69595 0.0
H554 H 0.58134 0.98595 0.61793 0.0
H555 H 0.55405 0.98431 0.66551 0.0
H556 H 0.46751 0.0685 0.84293 0.0
H557 H 0.44107 0.06742 0.8943 0.0
H558 H 0.4324 0.00619 0.91123 0.0
H559 H 0.45873 0.00742 0.85976 0.0
Nd560 Nd 0.50161 0.50642 0.81854 0.0
Nd561 Nd 0.5217 0.49292 0.73875 0.0
C562 C 0.48328 0.52554 0.86941 0.0
C563 C 0.48876 0.54515 0.88291 0.0
C564 C 0.4908 0.56063 0.84493 0.0
C565 C 0.50112 0.57806 0.85404 0.0
C566 C 0.5094 0.58032 0.90141 0.0
C567 C 0.50563 0.56554 0.94102 0.0
C568 C 0.49536 0.54813 0.9319 0.0
C569 C 0.53555 0.50298 0.84664 0.0
C570 C 0.52387 0.53759 0.72952 0.0
C571 C 0.54085 0.47387 0.69019 0.0
C572 C 0.53809 0.4533 0.68557 0.0
C573 C 0.54015 0.44034 0.72799 0.0
C574 C 0.53349 0.42101 0.72701 0.0
C575 C 0.52465 0.41427 0.68369 0.0
C576 C 0.52397 0.42703 0.63989 0.0
C577 C 0.53071 0.44633 0.64077 0.0
C578 C 0.48785 0.49672 0.71074 0.0
C579 C 0.49937 0.46183 0.82731 0.0
O580 O 0.48061 0.52357 0.82105 0.0
O581 O 0.49235 0.51334 0.89165 0.0
O582 O 0.52216 0.49871 0.87737 0.0
O583 O 0.53107 0.50981 0.80352 0.0
O584 O 0.51067 0.53343 0.7626 0.0
O585 O 0.53256 0.52448 0.71827 0.0
O586 O 0.54505 0.47916 0.73538 0.0
O587 O 0.52896 0.48269 0.66756 0.0
O588 O 0.50127 0.50107 0.67998 0.0
O589 O 0.49227 0.48965 0.75369 0.0
O590 O 0.51287 0.46608 0.79531 0.0
O591 O 0.49034 0.47483 0.83721 0.0
H592 H 0.48556 0.55892 0.80704 0.0
H593 H 0.50366 0.58926 0.82291 0.0
H594 H 0.51144 0.56711 0.97838 0.0
H595 H 0.49374 0.53656 0.96215 0.0
H596 H 0.54595 0.44518 0.76304 0.0
H597 H 0.53457 0.41146 0.76097 0.0
H598 H 0.51721 0.42234 0.60587 0.0
H599 H 0.52906 0.45596 0.6074 0.0
Nd600 Nd 0.99971 0.51746 0.76314 0.0
Nd601 Nd 0.02133 0.48629 0.82958 0.0
C602 C 0.97779 0.54072 0.73648 0.0
C603 C 0.96169 0.53798 0.70506 0.0
C604 C 0.95271 0.55291 0.69088 0.0
C605 C 0.93755 0.55002 0.66007 0.0
C606 C 0.93125 0.53217 0.64293 0.0
C607 C 0.94024 0.51724 0.658 0.0
C608 C 0.95532 0.52013 0.68863 0.0
C609 C 0.00888 0.49095 0.70495 0.0
C610 C 0.97854 0.47471 0.81074 0.0
C611 C 0.04338 0.4631 0.85542 0.0
C612 C 0.05991 0.46595 0.88499 0.0
C613 C 0.06864 0.45088 0.89982 0.0
C614 C 0.08435 0.45391 0.92827 0.0
C615 C 0.09151 0.47208 0.94228 0.0
C616 C 0.08271 0.48713 0.9267 0.0
C617 C 0.06705 0.48408 0.89857 0.0
C618 C 0.01223 0.51284 0.88775 0.0
C619 C 0.04243 0.52913 0.78241 0.0
O620 O 0.97669 0.53004 0.78015 0.0
O621 O 0.99267 0.54136 0.71223 0.0
O622 O 0.0012 0.50471 0.68598 0.0
O623 O 0.01117 0.49237 0.75153 0.0
O624 O 0.97802 0.49254 0.79344 0.0
O625 O 0.99345 0.46841 0.82243 0.0
O626 O 0.04401 0.47344 0.81128 0.0
O627 O 0.02884 0.46277 0.88104 0.0
O628 O 0.01998 0.49911 0.90664 0.0
O629 O 0.0098 0.51135 0.84124 0.0
O630 O 0.04302 0.51129 0.7995 0.0
O631 O 0.02749 0.53537 0.77092 0.0
H632 H 0.95748 0.56678 0.70327 0.0
H633 H 0.93098 0.56183 0.64882 0.0
H634 H 0.93559 0.50324 0.64627 0.0
H635 H 0.96206 0.50841 0.6994 0.0
H636 H 0.06328 0.4368 0.88967 0.0
H637 H 0.09071 0.44199 0.94006 0.0
H638 H 0.08798 0.50135 0.93596 0.0
H639 H 0.06048 0.4959 0.88735 0.0
H640 H 0.18381 0.98062 0.5849 0.0
H641 H 0.15571 0.98496 0.61893 0.0
H642 H 0.15942 0.03794 0.52411 0.0
H643 H 0.18793 0.03405 0.49072 0.0
H644 H 0.15192 0.02293 0.66546 0.0
H645 H 0.10778 1.00112 0.50367 0.0
H646 H 0.12793 0.992 0.51707 0.0
H647 H 0.12915 0.01614 0.49093 0.0
C648 C 0.17873 0.99326 0.57133 0.0
C649 C 0.18823 0.00708 0.53534 0.0
C650 C 0.16264 0.99565 0.5907 0.0
C651 C 0.1556 0.01177 0.5741 0.0
C652 C 0.16469 0.02538 0.53722 0.0
H653 H 0.05194 0.03453 0.64512 0.0
H654 H 0.08157 0.03701 0.60978 0.0
C655 C 0.18089 0.02305 0.51795 0.0
C656 C 0.13891 0.01445 0.59653 0.0
H657 H 0.09438 0.00901 0.57531 0.0
C658 C 0.13932 0.02002 0.64577 0.0
C659 C 0.12261 0.01075 0.57046 0.0
C660 C 0.12164 0.00461 0.51761 0.0
C661 C 0.12373 0.02188 0.66993 0.0
C662 C 0.10726 0.01753 0.64458 0.0
C663 C 0.10697 0.01232 0.59481 0.0
C664 C 0.0901 0.01765 0.66927 0.0
C665 C 0.12511 0.02868 0.72208 0.0
C666 C 0.0851 0.00618 0.71495 0.0
C667 C 0.06823 0.00492 0.73553 0.0
C668 C 0.05597 0.01484 0.71025 0.0
C669 C 0.06113 0.0267 0.66534 0.0
C670 C 0.07804 0.02809 0.64506 0.0
H671 H 0.13846 0.03716 0.72865 0.0
H672 H 0.11501 0.03743 0.72748 0.0
H673 H 0.12296 0.01624 0.7513 0.0
H674 H 0.09398 0.99763 0.73374 0.0
H675 H 0.06455 0.99556 0.76999 0.0
H676 H 0.44243 0.13465 0.40241 0.0
H677 H 0.45101 0.10715 0.45095 0.0
H678 H 0.50526 0.12714 0.40324 0.0
H679 H 0.49684 0.15536 0.35643 0.0
H680 H 0.4654 0.0783 0.43243 0.0
H681 H 0.51116 0.12301 0.55515 0.0
H682 H 0.4964 0.13268 0.51016 0.0
H683 H 0.51683 0.12737 0.48892 0.0
C684 C 0.4562 0.13318 0.40197 0.0
C685 C 0.46901 0.14742 0.37631 0.0
C686 C 0.46108 0.11737 0.42965 0.0
C687 C 0.47888 0.11529 0.43215 0.0
C688 C 0.49152 0.1287 0.40326 0.0
H689 H 0.50889 0.01082 0.57652 0.0
H690 H 0.5022 0.03649 0.51569 0.0
C691 C 0.48665 0.14469 0.37577 0.0
C692 C 0.48405 0.09949 0.46678 0.0
H693 H 0.50976 0.08996 0.57003 0.0
C694 C 0.47515 0.08086 0.4624 0.0
C695 C 0.49649 0.10281 0.50672 0.0
C696 C 0.50565 0.12255 0.516 0.0
C697 C 0.47828 0.06553 0.49668 0.0
C698 C 0.4911 0.06878 0.53569 0.0
C699 C 0.50003 0.0874 0.54 0.0
C700 C 0.49529 0.05315 0.57283 0.0
C701 C 0.46732 0.04614 0.49172 0.0
C702 C 0.49431 0.05418 0.62549 0.0
C703 C 0.49847 0.03962 0.66044 0.0
C704 C 0.50355 0.02369 0.64342 0.0
C705 C 0.50473 0.02278 0.59082 0.0
C706 C 0.50078 0.0374 0.55593 0.0
H707 H 0.45471 0.04706 0.47108 0.0
H708 H 0.47489 0.0381 0.46972 0.0
H709 H 0.46413 0.03805 0.52956 0.0
H710 H 0.49033 0.06627 0.63961 0.0
H711 H 0.49795 0.04096 0.70065 0.0
H712 H 0.34334 0.55995 0.62005 0.0
H713 H 0.37159 0.5515 0.6471 0.0
H714 H 0.35907 0.50102 0.56992 0.0
H715 H 0.3302 0.50866 0.54558 0.0
H716 H 0.37353 0.4935 0.66017 0.0
H717 H 0.4147 0.55772 0.56034 0.0
H718 H 0.39972 0.56335 0.60479 0.0
H719 H 0.39111 0.55155 0.5504 0.0
C720 C 0.34642 0.5469 0.60932 0.0
C721 C 0.33441 0.53504 0.58036 0.0
C722 C 0.36276 0.54224 0.62419 0.0
C723 C 0.36766 0.52585 0.60957 0.0
C724 C 0.35566 0.51385 0.58127 0.0
H725 H 0.47578 0.50684 0.61648 0.0
H726 H 0.44621 0.51265 0.59276 0.0
C727 C 0.3392 0.51836 0.5669 0.0
C728 C 0.38522 0.52111 0.62421 0.0
H729 H 0.42972 0.53868 0.61863 0.0
C730 C 0.38583 0.50334 0.65086 0.0
C731 C 0.4013 0.53383 0.61142 0.0
C732 C 0.40172 0.55259 0.5797 0.0
C733 C 0.40203 0.49801 0.66553 0.0
C734 C 0.41806 0.51105 0.65456 0.0
C735 C 0.41744 0.52875 0.62753 0.0
C736 C 0.4357 0.50654 0.66932 0.0
C737 C 0.40177 0.47829 0.69142 0.0
C738 C 0.4397 0.50113 0.7203 0.0
C739 C 0.45655 0.49748 0.73379 0.0
C740 C 0.46979 0.49959 0.69669 0.0
C741 C 0.46582 0.50509 0.64585 0.0
C742 C 0.44893 0.50845 0.63228 0.0
H743 H 0.38933 0.46846 0.68308 0.0
H744 H 0.41318 0.47242 0.67938 0.0
H745 H 0.40255 0.47881 0.73319 0.0
H746 H 0.42991 0.50005 0.74981 0.0
H747 H 0.45931 0.49338 0.77333 0.0
H748 H 0.08161 0.37539 0.48965 0.0
H749 H 0.07141 0.40162 0.52329 0.0
H750 H 0.01814 0.38025 0.47438 0.0
H751 H 0.02832 0.35352 0.44172 0.0
H752 H 0.05484 0.43025 0.4875 0.0
H753 H 0.01191 0.37967 0.62687 0.0
H754 H 0.02785 0.37241 0.5879 0.0
H755 H 0.00694 0.37637 0.56142 0.0
C756 C 0.06778 0.3765 0.48515 0.0
C757 C 0.05572 0.36232 0.46353 0.0
C758 C 0.06195 0.39149 0.50446 0.0
C759 C 0.04392 0.39266 0.50266 0.0
C760 C 0.03205 0.37938 0.47736 0.0
H761 H 0.00607 0.48955 0.60302 0.0
H762 H 0.01408 0.46591 0.55302 0.0
C763 C 0.0379 0.36428 0.458 0.0
C764 C 0.03768 0.40711 0.53021 0.0
H765 H 0.01177 0.41213 0.62949 0.0
C766 C 0.04533 0.4263 0.51831 0.0
C767 C 0.02557 0.40193 0.57127 0.0
C768 C 0.01769 0.38148 0.58809 0.0
C769 C 0.04126 0.44041 0.54624 0.0
C770 C 0.02886 0.43528 0.58658 0.0
C771 C 0.02118 0.41609 0.59843 0.0
C772 C 0.0238 0.44955 0.61725 0.0
C773 C 0.05075 0.46061 0.5333 0.0
C774 C 0.02601 0.44794 0.67041 0.0
C775 C 0.02121 0.46137 0.69925 0.0
C776 C 0.01415 0.47665 0.67541 0.0
C777 C 0.0117 0.47806 0.6224 0.0
C778 C 0.01639 0.46462 0.59368 0.0
H779 H 0.06325 0.46132 0.51221 0.0
H780 H 0.04208 0.46844 0.50869 0.0
H781 H 0.05394 0.46791 0.56811 0.0
H782 H 0.03152 0.43633 0.68958 0.0
H783 H 0.02286 0.45969 0.7401 0.0
H784 H 0.82781 0.97474 0.04755 0.0
H785 H 0.8569 0.97041 0.01909 0.0
H786 H 0.86451 0.02545 0.93273 0.0
H787 H 0.83583 0.03001 0.96135 0.0
H788 H 0.87107 0.99478 0.87785 0.0
H789 H 0.9066 0.9991 0.06345 0.0
H790 H 0.88577 0.98281 0.06199 0.0
H791 H 0.8862 0.00783 0.05152 0.0
C792 C 0.83579 0.98598 0.02297 0.0
C793 C 0.82942 0.00264 0.00636 0.0
C794 C 0.85236 0.98346 0.00663 0.0
C795 C 0.8628 0.9976 0.97371 0.0
C796 C 0.85657 0.0143 0.95775 0.0
H797 H 0.97006 0.03284 0.88796 0.0
H798 H 0.93956 0.02738 0.91841 0.0
C799 C 0.84014 0.01684 0.97405 0.0
C800 C 0.88027 0.99531 0.95524 0.0
H801 H 0.92333 0.9967 0.99198 0.0
C802 C 0.88247 0.99489 0.90282 0.0
C803 C 0.89508 0.9956 0.98797 0.0
C804 C 0.89346 0.99646 0.04437 0.0
C805 C 0.89924 0.99538 0.88201 0.0
C806 C 0.91414 0.9962 0.91458 0.0
C807 C 0.91184 0.99598 0.9672 0.0
C808 C 0.93243 0.99924 0.89446 0.0
C809 C 0.90108 0.99598 0.82516 0.0
C810 C 0.93849 0.98526 0.87039 0.0
C811 C 0.95601 0.98836 0.85281 0.0
C812 C 0.96765 0.00546 0.85924 0.0
C813 C 0.96141 0.0195 0.88257 0.0
C814 C 0.944 0.01639 0.90015 0.0
H815 H 0.88865 0.99789 0.80471 0.0
H816 H 0.91194 0.0077 0.81084 0.0
H817 H 0.90454 0.9825 0.81592 0.0
H818 H 0.92979 0.97187 0.86598 0.0
H819 H 0.96051 0.97728 0.83511 0.0
H820 H 0.57745 0.8636 0.15825 0.0
H821 H 0.56829 0.89065 0.10928 0.0
H822 H 0.51396 0.86871 0.1535 0.0
H823 H 0.52305 0.84097 0.2012 0.0
H824 H 0.51647 0.8783 0.05298 0.0
H825 H 0.55438 0.93771 0.14767 0.0
H826 H 0.56872 0.92285 0.12871 0.0
H827 H 0.55177 0.91344 0.17562 0.0
C828 C 0.56356 0.86462 0.15815 0.0
C829 C 0.55096 0.85005 0.18342 0.0
C830 C 0.55835 0.88024 0.13047 0.0
C831 C 0.54045 0.88192 0.12804 0.0
C832 C 0.52787 0.86778 0.15496 0.0
H833 H 0.50976 0.98452 0.9772 0.0
H834 H 0.51555 0.95868 0.03885 0.0
C835 C 0.53309 0.85202 0.18262 0.0
C836 C 0.53488 0.89761 0.09404 0.0
H837 H 0.54453 0.94554 0.06231 0.0
C838 C 0.52244 0.89303 0.05545 0.0
C839 C 0.54248 0.91689 0.0974 0.0
C840 C 0.55493 0.92302 0.13995 0.0
C841 C 0.51783 0.90707 0.0193 0.0
C842 C 0.52627 0.92622 0.02081 0.0
C843 C 0.53827 0.93086 0.06041 0.0
C844 C 0.52259 0.94177 0.98255 0.0
C845 C 0.50379 0.90122 0.98033 0.0
C846 C 0.52475 0.94106 0.93012 0.0
C847 C 0.52124 0.95579 0.89465 0.0
C848 C 0.51587 0.97168 0.911 0.0
C849 C 0.51396 0.97249 0.9634 0.0
C850 C 0.51728 0.95772 0.99874 0.0
H851 H 0.49496 0.88761 0.99373 0.0
H852 H 0.49552 0.91219 0.97128 0.0
H853 H 0.51029 0.89917 0.94484 0.0
H854 H 0.52923 0.92915 0.91657 0.0
H855 H 0.52256 0.95466 0.85455 0.0
H856 H 0.67242 0.46723 0.08274 0.0
H857 H 0.64494 0.47418 0.04355 0.0
H858 H 0.67179 0.49128 0.89981 0.0
H859 H 0.69941 0.48444 0.93881 0.0
H860 H 0.63862 0.50876 0.9957 0.0
H861 H 0.62797 0.45313 0.86253 0.0
H862 H 0.64339 0.45295 0.91501 0.0
H863 H 0.6492 0.46875 0.85818 0.0
C864 C 0.67252 0.47257 0.04285 0.0
C865 C 0.68812 0.47527 0.01391 0.0
C866 C 0.65679 0.47644 0.02045 0.0
C867 C 0.65627 0.48302 0.96864 0.0
C868 C 0.6718 0.48584 0.93961 0.0
H869 H 0.56551 0.51122 0.78772 0.0
H870 H 0.5957 0.50772 0.81431 0.0
C871 C 0.68757 0.48193 0.96197 0.0
C872 C 0.6395 0.48734 0.9457 0.0
H873 H 0.60747 0.47383 0.8583 0.0
C874 C 0.63184 0.50116 0.96554 0.0
C875 C 0.63075 0.47751 0.9061 0.0
C876 C 0.63812 0.46214 0.88434 0.0
C877 C 0.61555 0.50525 0.94734 0.0
C878 C 0.60655 0.49505 0.90879 0.0
C879 C 0.61443 0.48162 0.88785 0.0
C880 C 0.58844 0.49726 0.89224 0.0
C881 C 0.60806 0.52044 0.9696 0.0
C882 C 0.57438 0.49227 0.92703 0.0
C883 C 0.55723 0.4942 0.91198 0.0
C884 C 0.55379 0.50111 0.86179 0.0
C885 C 0.56783 0.50594 0.82672 0.0
C886 C 0.58503 0.50394 0.84181 0.0
H887 H 0.61855 0.53037 0.98785 0.0
H888 H 0.60136 0.52869 0.93994 0.0
H889 H 0.59814 0.51369 0.99912 0.0
H890 H 0.57667 0.48675 0.96585 0.0
H891 H 0.54665 0.49022 0.93973 0.0
H892 H 0.94108 0.62933 0.10342 0.0
H893 H 0.95068 0.60266 0.07037 0.0
H894 H 0.00404 0.62259 0.12095 0.0
H895 H 0.99442 0.64966 0.15353 0.0
H896 H 0.00244 0.61669 0.01992 0.0
H897 H 0.96429 0.55378 0.13299 0.0
H898 H 0.9504 0.56971 0.10629 0.0
H899 H 0.967 0.57732 0.15263 0.0
C900 C 0.95475 0.62772 0.1088 0.0
C901 C 0.967 0.64151 0.13119 0.0
C902 C 0.96023 0.61242 0.09001 0.0
C903 C 0.97806 0.61049 0.09343 0.0
C904 C 0.99019 0.62374 0.1181 0.0
H905 H 0.01508 0.51416 0.98963 0.0
H906 H 0.00757 0.53807 0.03966 0.0
C907 C 0.98467 0.63908 0.13714 0.0
C908 C 0.98419 0.59581 0.06664 0.0
H909 H 0.97596 0.54842 0.05353 0.0
C910 C 0.9968 0.60173 0.02769 0.0
C911 C 0.97692 0.57627 0.07683 0.0
C912 C 0.96404 0.56885 0.11981 0.0
C913 C 0.00196 0.58875 0.99777 0.0
C914 C 0.99405 0.56933 0.00637 0.0
C915 C 0.98184 0.56333 0.04634 0.0
C916 C 0.99856 0.55492 0.97525 0.0
C917 C 0.01595 0.59596 0.95754 0.0
C918 C 0.99583 0.55627 0.92228 0.0
C919 C 1.00019 0.5426 0.89348 0.0
C920 C 0.00716 0.52725 0.91726 0.0
C921 C 0.0097 0.52583 0.97024 0.0
C922 C 0.00539 0.53948 0.99892 0.0
H923 H 0.02402 0.60987 0.96503 0.0
H924 H 0.02495 0.58574 0.95528 0.0
H925 H 0.00942 0.59789 0.92001 0.0
H926 H 0.99027 0.56786 0.90322 0.0
H927 H 0.99825 0.54412 0.85271 0.0
H928 H 0.0981 0.18861 0.60542 0.0
H929 H 0.08084 0.16043 0.65272 0.0
H930 H 0.04027 0.19194 0.68043 0.0
H931 H 0.05689 0.21985 0.63111 0.0
H932 H 0.06432 0.14937 0.74736 0.0
H933 H 0.01545 0.15248 0.58952 0.0
H934 H 0.03712 0.16743 0.58707 0.0
H935 H 0.01987 0.17278 0.62468 0.0
C936 C 0.08567 0.18966 0.62239 0.0
C937 C 0.07869 0.20635 0.61328 0.0
C938 C 0.07586 0.17357 0.64965 0.0
C939 C 0.05905 0.17402 0.66858 0.0
C940 C 0.05305 0.19124 0.66499 0.0
H941 H 0.00202 0.06598 0.81677 0.0
H942 H 0.0107 0.10043 0.7986 0.0
C943 C 0.06274 0.20728 0.6373 0.0
C944 C 0.04704 0.15603 0.68582 0.0
H945 H 0.00985 0.12613 0.65082 0.0
C946 C 0.05227 0.14434 0.72683 0.0
C947 C 0.03147 0.1495 0.65825 0.0
C948 C 0.02565 0.16108 0.61217 0.0
C949 C 0.04265 0.12599 0.74017 0.0
C950 C 0.02715 0.1194 0.71227 0.0
C951 C 0.02161 0.13134 0.67233 0.0
C952 C 0.01774 0.09947 0.72027 0.0
C953 C 0.04973 0.11354 0.78221 0.0
C954 C 0.01733 0.08776 0.68098 0.0
C955 C 0.01187 0.06815 0.69093 0.0
C956 C 0.00681 0.06017 0.74023 0.0
C957 C 0.00568 0.072 0.77827 0.0
C958 C 0.01088 0.09159 0.76816 0.0
H959 H 0.06372 0.1193 0.79187 0.0
H960 H 0.04165 0.1126 0.81696 0.0
H961 H 0.04896 0.09898 0.77141 0.0
H962 H 0.02251 0.09361 0.64366 0.0
H963 H 0.0132 0.05918 0.66151 0.0
H964 H 0.31133 0.93884 0.73371 0.0
H965 H 0.33518 0.9294 0.78856 0.0
H966 H 0.36929 0.98269 0.73925 0.0
H967 H 0.34565 0.99216 0.68586 0.0
H968 H 0.3663 0.92414 0.75411 0.0
H969 H 0.38073 0.97794 0.88803 0.0
H970 H 0.36005 0.97406 0.85332 0.0
H971 H 0.37931 0.98993 0.82566 0.0
C972 C 0.32379 0.94868 0.73596 0.0
C973 C 0.32676 0.96616 0.7055 0.0
C974 C 0.33737 0.94328 0.76708 0.0
C975 C 0.35393 0.95546 0.76866 0.0
C976 C 0.35652 0.97324 0.73984 0.0
H977 H 0.45576 0.95555 0.71748 0.0
H978 H 0.42393 0.94411 0.72749 0.0
C979 C 0.34307 0.97857 0.7088 0.0
C980 C 0.36944 0.94905 0.79409 0.0
H981 H 0.40701 0.96768 0.85526 0.0
C982 C 0.37501 0.93326 0.77776 0.0
C983 C 0.38059 0.96046 0.82642 0.0
C984 C 0.3747 0.97639 0.84977 0.0
C985 C 0.3923 0.93009 0.78742 0.0
C986 C 0.40438 0.94337 0.81268 0.0
C987 C 0.39801 0.95767 0.83469 0.0
C988 C 0.4239 0.94493 0.80931 0.0
C989 C 0.39764 0.91306 0.76836 0.0
C990 C 0.43468 0.94891 0.85185 0.0
C991 C 0.45281 0.95598 0.8457 0.0
C992 C 0.46047 0.9587 0.79717 0.0
C993 C 0.45012 0.9531 0.75535 0.0
C994 C 0.43191 0.94643 0.76127 0.0
H995 H 0.38649 0.90071 0.77256 0.0
H996 H 0.40078 0.91619 0.7272 0.0
H997 H 0.40936 0.9091 0.78903 0.0
H998 H 0.42887 0.94796 0.88922 0.0
H999 H 0.46063 0.96051 0.87829 0.0
H1000 H 0.43722 0.25106 0.60355 0.0
H1001 H 0.44983 0.27191 0.66619 0.0
H1002 H 0.42839 0.31755 0.5844 0.0
H1003 H 0.41416 0.29627 0.52456 0.0
H1004 H 0.47526 0.29781 0.63829 0.0
H1005 H 0.42757 0.3336 0.72088 0.0
H1006 H 0.42036 0.31235 0.69005 0.0
H1007 H 0.424 0.33539 0.65362 0.0
C1008 C 0.43423 0.26519 0.60026 0.0
C1009 C 0.42505 0.27209 0.55778 0.0
C1010 C 0.44167 0.27722 0.63613 0.0
C1011 C 0.44035 0.29644 0.62987 0.0
C1012 C 0.42952 0.30278 0.59079 0.0
H1013 H 0.52179 0.39029 0.60934 0.0
H1014 H 0.50195 0.35972 0.60815 0.0
C1015 C 0.42165 0.29061 0.55573 0.0
C1016 C 0.45308 0.31044 0.6561 0.0
H1017 H 0.45727 0.35344 0.70167 0.0
C1018 C 0.4712 0.30966 0.65359 0.0
C1019 C 0.44803 0.32582 0.67708 0.0
C1020 C 0.42889 0.32666 0.68604 0.0
C1021 C 0.48432 0.32454 0.66716 0.0
C1022 C 0.47925 0.34095 0.68193 0.0
C1023 C 0.46119 0.34105 0.68901 0.0
C1024 C 0.49227 0.35877 0.68491 0.0
C1025 C 0.50351 0.32272 0.66392 0.0
C1026 C 0.49323 0.36858 0.72811 0.0
C1027 C 0.50433 0.38628 0.72846 0.0
C1028 C 0.51464 0.39451 0.68555 0.0
C1029 C 0.51398 0.38439 0.64289 0.0
C1030 C 0.5028 0.36679 0.64244 0.0
H1031 H 0.50498 0.30768 0.67189 0.0
H1032 H 0.50843 0.32777 0.62476 0.0
H1033 H 0.51193 0.33119 0.69106 0.0
H1034 H 0.48509 0.36275 0.76109 0.0
H1035 H 0.50424 0.39388 0.7615 0.0
H1036 H 0.19635 0.567 0.66739 0.0
H1037 H 0.16924 0.56689 0.71398 0.0
H1038 H 0.16109 0.61714 0.61992 0.0
H1039 H 0.18813 0.61712 0.57238 0.0
H1040 H 0.15311 0.59125 0.76642 0.0
H1041 H 0.11969 0.57657 0.58187 0.0
H1042 H 0.14298 0.57658 0.59182 0.0
H1043 H 0.13513 0.59859 0.58171 0.0
C1044 C 0.18914 0.57843 0.6578 0.0
C1045 C 0.19417 0.5919 0.61578 0.0
C1046 C 0.17361 0.57832 0.68437 0.0
C1047 C 0.16293 0.59172 0.66951 0.0
C1048 C 0.16895 0.60642 0.63119 0.0
H1049 H 0.04869 0.565 0.73152 0.0
H1050 H 0.07759 0.58507 0.71023 0.0
C1051 C 0.1844 0.60643 0.60422 0.0
C1052 C 0.14456 0.58851 0.68904 0.0
H1053 H 0.10169 0.57359 0.65308 0.0
C1054 C 0.14181 0.58772 0.74159 0.0
C1055 C 0.12983 0.58389 0.65653 0.0
C1056 C 0.13195 0.58379 0.59991 0.0
C1057 C 0.1248 0.5817 0.76271 0.0
C1058 C 0.11025 0.57608 0.73045 0.0
C1059 C 0.11286 0.57797 0.6777 0.0
C1060 C 0.09281 0.56577 0.7504 0.0
C1061 C 0.12262 0.58095 0.81945 0.0
C1062 C 0.09179 0.54836 0.78037 0.0
C1063 C 0.07538 0.53685 0.79233 0.0
C1064 C 0.05959 0.54244 0.77427 0.0
C1065 C 0.06058 0.56026 0.74601 0.0
C1066 C 0.07708 0.57177 0.7339 0.0
H1067 H 0.13289 0.59169 0.8357 0.0
H1068 H 0.10931 0.58336 0.82937 0.0
H1069 H 0.12422 0.56678 0.83754 0.0
H1070 H 0.10372 0.54319 0.79246 0.0
H1071 H 0.07515 0.52328 0.81441 0.0
H1072 H 0.96929 0.78668 0.96879 0.0
H1073 H 0.98526 0.8148 0.91865 0.0
H1074 H 0.94409 0.84533 0.94777 0.0
H1075 H 0.92752 0.81696 0.99608 0.0
H1076 H 0.95973 0.85612 0.8517 0.0
H1077 H 0.00992 0.85547 0.00666 0.0
H1078 H 0.00567 0.8348 0.9729 0.0
H1079 H 0.98848 0.84005 0.01095 0.0
C1080 C 0.9632 0.79909 0.96282 0.0
C1081 C 0.94725 0.79968 0.98734 0.0
C1082 C 0.97251 0.81524 0.93466 0.0
C1083 C 0.96612 0.83225 0.93105 0.0
C1084 C 0.94935 0.83236 0.9508 0.0
H1085 H 0.01125 0.94846 0.92438 0.0
H1086 H 0.00157 0.91433 0.94676 0.0
C1087 C 0.93994 0.81617 0.9786 0.0
C1088 C 0.97766 0.85037 0.91244 0.0
H1089 H 0.01479 0.88126 0.94332 0.0
C1090 C 0.97191 0.86156 0.87117 0.0
C1091 C 0.99336 0.85747 0.93872 0.0
C1092 C 0.99971 0.84644 0.98503 0.0
C1093 C 0.98123 0.8799 0.85609 0.0
C1094 C 0.99691 0.887 0.88249 0.0
C1095 C 0.00289 0.87564 0.92295 0.0
C1096 C 0.00622 0.90685 0.87176 0.0
C1097 C 0.97369 0.89186 0.81385 0.0
C1098 C 0.01312 0.91372 0.82329 0.0
C1099 C 0.01856 0.93316 0.81047 0.0
C1100 C 0.0174 0.94593 0.84618 0.0
C1101 C 0.01234 0.93889 0.89627 0.0
C1102 C 0.0067 0.91943 0.90894 0.0
H1103 H 0.95982 0.88558 0.80433 0.0
H1104 H 0.97398 0.90637 0.82449 0.0
H1105 H 0.98183 0.89311 0.77912 0.0
H1106 H 0.01333 0.90417 0.79454 0.0
H1107 H 0.02268 0.93826 0.77175 0.0
H1108 H 0.66685 0.04541 0.99686 0.0
H1109 H 0.64418 0.04914 0.93321 0.0
H1110 H 0.68425 0.07651 0.82407 0.0
H1111 H 0.70739 0.07342 0.88868 0.0
H1112 H 0.64558 0.09141 0.84163 0.0
H1113 H 0.64563 0.01825 0.79542 0.0
H1114 H 0.64827 0.02179 0.8617 0.0
H1115 H 0.6652 0.03345 0.81718 0.0
C1116 C 0.67096 0.05277 0.95996 0.0
C1117 C 0.689 0.05924 0.9481 0.0
C1118 C 0.65794 0.05477 0.92351 0.0
C1119 C 0.6626 0.06312 0.87427 0.0
C1120 C 0.68048 0.07011 0.86215 0.0
H1121 H 0.56916 0.02455 0.70044 0.0
H1122 H 0.60017 0.04007 0.70696 0.0
C1123 C 0.69363 0.06819 0.89892 0.0
C1124 C 0.64853 0.06271 0.83546 0.0
H1125 H 0.61887 0.03 0.77953 0.0
C1126 C 0.63994 0.07822 0.82645 0.0
C1127 C 0.64147 0.04562 0.81509 0.0
C1128 C 0.65066 0.02882 0.82237 0.0
C1129 C 0.62351 0.07647 0.80118 0.0
C1130 C 0.61535 0.05859 0.78635 0.0
C1131 C 0.6249 0.0437 0.79113 0.0
C1132 C 0.59622 0.05391 0.77333 0.0
C1133 C 0.61486 0.0936 0.7923 0.0
C1134 C 0.58345 0.05721 0.80689 0.0
C1135 C 0.56564 0.04871 0.80239 0.0
C1136 C 0.56043 0.03632 0.76525 0.0
C1137 C 0.57292 0.03396 0.72968 0.0
C1138 C 0.59063 0.04285 0.73334 0.0
H1139 H 0.62502 0.10668 0.78383 0.0
H1140 H 0.6052 0.09244 0.76042 0.0
H1141 H 0.60787 0.09517 0.82742 0.0
H1142 H 0.58737 0.06514 0.83904 0.0
H1143 H 0.55627 0.0506 0.83054 0.0
H1144 H 0.5885 0.73861 0.99306 0.0
H1145 H 0.57818 0.71177 0.94507 0.0
H1146 H 0.61802 0.68294 0.01649 0.0
H1147 H 0.62843 0.70986 0.06536 0.0
H1148 H 0.58998 0.68617 0.88317 0.0
H1149 H 0.57046 0.65434 0.07993 0.0
H1150 H 0.57911 0.67927 0.06508 0.0
H1151 H 0.59379 0.66253 0.06943 0.0
C1152 C 0.59568 0.727 0.9969 0.0
C1153 C 0.60905 0.72616 0.03384 0.0
C1154 C 0.58969 0.7116 0.96943 0.0
C1155 C 0.59703 0.69522 0.97835 0.0
C1156 C 0.61199 0.69537 0.00989 0.0
H1157 H 0.54165 0.58071 0.94601 0.0
H1158 H 0.56477 0.60809 0.95805 0.0
C1159 C 0.61792 0.71074 0.03773 0.0
C1160 C 0.58681 0.67718 0.9633 0.0
H1161 H 0.56027 0.63632 0.0136 0.0
C1162 C 0.58366 0.67511 0.91154 0.0
C1163 C 0.57836 0.66296 1.00058 0.0
C1164 C 0.58042 0.66485 0.05687 0.0
C1165 C 0.5722 0.65913 0.89608 0.0
C1166 C 0.56352 0.64515 0.93348 0.0
C1167 C 0.56701 0.64706 0.98508 0.0
C1168 C 0.55026 0.62864 0.92076 0.0
C1169 C 0.56943 0.65737 0.84004 0.0
C1170 C 0.5344 0.63114 0.89587 0.0
C1171 C 0.52106 0.61547 0.88923 0.0
C1172 C 0.52332 0.59713 0.90805 0.0
C1173 C 0.53935 0.59471 0.93218 0.0
C1174 C 0.55266 0.6103 0.93854 0.0
H1175 H 0.58054 0.66615 0.81706 0.0
H1176 H 0.56807 0.6424 0.83196 0.0
H1177 H 0.55706 0.66235 0.82758 0.0
H1178 H 0.53211 0.64522 0.88297 0.0
H1179 H 0.50884 0.61774 0.87054 0.0
H1180 H 0.82073 0.43469 0.88001 0.0
H1181 H 0.84934 0.43393 0.84314 0.0
H1182 H 0.85692 0.38909 0.95832 0.0
H1183 H 0.82828 0.38999 0.99588 0.0
H1184 H 0.8828 0.41892 0.95962 0.0
H1185 H 0.87352 0.40275 0.76082 0.0
H1186 H 0.86159 0.42087 0.7727 0.0
H1187 H 0.85553 0.39749 0.80614 0.0
C1188 C 0.82813 0.42411 0.89622 0.0
C1189 C 0.82233 0.41248 0.94101 0.0
C1190 C 0.84451 0.42364 0.87498 0.0
C1191 C 0.85528 0.41135 0.89771 0.0
C1192 C 0.84883 0.39865 0.94005 0.0
H1193 H 0.97188 0.43854 0.86028 0.0
H1194 H 0.94278 0.41834 0.87885 0.0
C1195 C 0.83249 0.39919 0.96151 0.0
C1196 C 0.87423 0.41431 0.88312 0.0
H1197 H 0.90172 0.42285 0.78014 0.0
C1198 C 0.88701 0.41923 0.92061 0.0
C1199 C 0.87973 0.41475 0.83225 0.0
C1200 C 0.86684 0.40847 0.79086 0.0
C1201 C 0.90488 0.42603 0.90801 0.0
C1202 C 0.91016 0.4277 0.85658 0.0
C1203 C 0.89762 0.42161 0.81954 0.0
C1204 C 0.9279 0.43824 0.8399 0.0
C1205 C 0.9177 0.43272 0.94927 0.0
C1206 C 0.92916 0.45574 0.81033 0.0
C1207 C 0.94566 0.46724 0.79966 0.0
C1208 C 0.96131 0.46147 0.81827 0.0
C1209 C 0.96009 0.44347 0.84573 0.0
C1210 C 0.94349 0.43193 0.85647 0.0
H1211 H 0.91091 0.43292 0.98581 0.0
H1212 H 0.92737 0.42309 0.95599 0.0
H1213 H 0.92523 0.44719 0.93749 0.0
H1214 H 0.9173 0.46086 0.79713 0.0
H1215 H 0.94604 0.48088 0.77778 0.0
H1216 H 0.09136 0.23857 0.16277 0.0
H1217 H 0.08785 0.21266 0.10874 0.0
H1218 H 0.03134 0.2017 0.13376 0.0
H1219 H 0.03487 0.22809 0.18648 0.0
H1220 H 0.07676 0.17705 0.14371 0.0
H1221 H 0.03238 0.19464 0.98541 0.0
H1222 H 0.04316 0.21203 0.02572 0.0
H1223 H 0.02322 0.1958 0.04655 0.0
C1224 C 0.07814 0.23111 0.15491 0.0
C1225 C 0.06336 0.2355 0.17802 0.0
C1226 C 0.07613 0.21619 0.12443 0.0
C1227 C 0.05931 0.20518 0.11679 0.0
C1228 C 0.04441 0.21018 0.1379 0.0
H1229 H 0.04265 0.08612 0.0655 0.0
H1230 H 0.045 0.11651 0.10024 0.0
C1231 C 0.04641 0.2253 0.16799 0.0
C1232 C 0.05776 0.1873 0.0921 0.0
H1233 H 0.03617 0.16232 0.99912 0.0
C1234 C 0.06797 0.17395 0.1118 0.0
C1235 C 0.04641 0.18318 0.05022 0.0
C1236 C 0.03581 0.19725 0.02538 0.0
C1237 C 0.067 0.15661 0.09145 0.0
C1238 C 0.05511 0.15214 0.05098 0.0
C1239 C 0.04512 0.16561 0.03055 0.0
C1240 C 0.05299 0.13362 0.02929 0.0
C1241 C 0.079 0.14341 0.11307 0.0
C1242 C 0.0561 0.13302 0.9774 0.0
C1243 C 0.05465 0.11562 0.95732 0.0
C1244 C 0.05004 0.0984 0.98871 0.0
C1245 C 0.0466 0.09907 0.04046 0.0
C1246 C 0.04794 0.11646 0.0604 0.0
H1247 H 0.0907 0.1511 0.13259 0.0
H1248 H 0.07155 0.13254 0.14152 0.0
H1249 H 0.08377 0.13606 0.08287 0.0
H1250 H 0.05996 0.14604 0.95255 0.0
H1251 H 0.05748 0.11566 0.91737 0.0
H1252 H 0.30004 0.0022 0.2207 0.0
H1253 H 0.31596 0.0069 0.13917 0.0
H1254 H 0.35798 0.04646 0.20146 0.0
H1255 H 0.34216 0.0419 0.28241 0.0
H1256 H 0.34832 0.05687 0.09622 0.0
H1257 H 0.36156 0.9834 0.13343 0.0
H1258 H 0.33882 0.9863 0.13438 0.0
H1259 H 0.35387 0.99536 0.18259 0.0
C1260 C 0.31244 0.01226 0.21637 0.0
C1261 C 0.31996 0.02159 0.25781 0.0
C1262 C 0.32158 0.01481 0.17006 0.0
C1263 C 0.33827 0.02681 0.16463 0.0
C1264 C 0.34516 0.03709 0.20491 0.0
H1265 H 0.43142 0.0586 0.98294 0.0
H1266 H 0.40616 0.05642 0.03909 0.0
C1267 C 0.33613 0.03446 0.25111 0.0
C1268 C 0.34942 0.02761 0.11907 0.0
H1269 H 0.37558 0.00239 0.06306 0.0
C1270 C 0.3541 0.0449 0.08845 0.0
C1271 C 0.35694 0.01197 0.10908 0.0
C1272 C 0.3527 0.9932 0.14162 0.0
C1273 C 0.36642 0.04708 0.04872 0.0
C1274 C 0.37459 0.03169 0.04027 0.0
C1275 C 0.36935 0.01419 0.06961 0.0
C1276 C 0.38946 0.03374 0.00377 0.0
C1277 C 0.37061 0.06589 0.01641 0.0
C1278 C 0.3887 0.02142 0.96586 0.0
C1279 C 0.40322 0.02254 0.93387 0.0
C1280 C 0.41884 0.03597 0.93927 0.0
C1281 C 0.4195 0.04835 0.97708 0.0
C1282 C 0.40502 0.04716 0.00915 0.0
H1283 H 0.35937 0.07358 0.01588 0.0
H1284 H 0.38228 0.07486 0.03266 0.0
H1285 H 0.37374 0.06406 0.97668 0.0
H1286 H 0.37689 0.01085 0.96122 0.0
H1287 H 0.40223 0.01289 0.90487 0.0
H1288 H 0.48598 0.32653 0.17248 0.0
H1289 H 0.4927 0.35228 0.10399 0.0
H1290 H 0.46693 0.31519 0.99633 0.0
H1291 H 0.45983 0.28929 0.0657 0.0
H1292 H 0.51058 0.35812 0.01429 0.0
H1293 H 0.43886 0.35809 0.98052 0.0
H1294 H 0.44678 0.34455 0.03453 0.0
H1295 H 0.44595 0.33627 0.97272 0.0
C1296 C 0.48206 0.32376 0.134 0.0
C1297 C 0.47232 0.30596 0.12438 0.0
C1298 C 0.48588 0.3385 0.09486 0.0
C1299 C 0.47999 0.33586 0.0451 0.0
C1300 C 0.47128 0.3177 0.03462 0.0
H1301 H 0.51177 0.43045 0.80628 0.0
H1302 H 0.50671 0.39902 0.85398 0.0
C1303 C 0.46745 0.30284 0.07404 0.0
C1304 C 0.48221 0.35255 0.00575 0.0
H1305 H 0.45905 0.38166 0.93267 0.0
C1306 C 0.49933 0.36315 0.99597 0.0
C1307 C 0.4675 0.35933 0.98252 0.0
C1308 C 0.44871 0.34911 0.99325 0.0
C1309 C 0.50213 0.38046 0.96462 0.0
C1310 C 0.48742 0.38723 0.94133 0.0
C1311 C 0.47032 0.37645 0.95028 0.0
C1312 C 0.48944 0.40591 0.90973 0.0
C1313 C 0.52078 0.39174 0.95869 0.0
C1314 C 0.48081 0.4201 0.92369 0.0
C1315 C 0.48356 0.43811 0.89608 0.0
C1316 C 0.495 0.4423 0.85389 0.0
C1317 C 0.50307 0.42782 0.8389 0.0
C1318 C 0.50024 0.40982 0.86631 0.0
H1319 H 0.52973 0.38708 0.98903 0.0
H1320 H 0.52617 0.38969 0.92156 0.0
H1321 H 0.52099 0.4071 0.95958 0.0
H1322 H 0.47233 0.41742 0.95688 0.0
H1323 H 0.47711 0.44888 0.90872 0.0
H1324 H 0.23901 0.52402 0.19378 0.0
H1325 H 0.21961 0.51174 0.1248 0.0
H1326 H 0.17569 0.49634 0.22943 0.0
H1327 H 0.19489 0.50826 0.29806 0.0
H1328 H 0.1784 0.46845 0.16177 0.0
H1329 H 0.18093 0.54106 0.06279 0.0
H1330 H 0.20167 0.53343 0.07673 0.0
H1331 H 0.18817 0.53713 0.12781 0.0
C1332 C 0.22527 0.51776 0.20202 0.0
C1333 C 0.21837 0.51733 0.25102 0.0
C1334 C 0.21421 0.51086 0.16265 0.0
C1335 C 0.19618 0.50335 0.17199 0.0
C1336 C 0.18954 0.50214 0.2214 0.0
H1337 H 0.09822 0.49414 0.02066 0.0
H1338 H 0.12536 0.50066 0.07053 0.0
C1339 C 0.2005 0.50908 0.26046 0.0
C1340 C 0.18371 0.4977 0.13042 0.0
H1341 H 0.16078 0.51628 0.03169 0.0
C1342 C 0.17475 0.47879 0.13262 0.0
C1343 C 0.1789 0.51132 0.09291 0.0
C1344 C 0.18779 0.53192 0.08974 0.0
C1345 C 0.16063 0.47329 0.09947 0.0
C1346 C 0.15545 0.48705 0.06311 0.0
C1347 C 0.16486 0.50578 0.05957 0.0
C1348 C 0.13917 0.48279 0.03211 0.0
C1349 C 0.15071 0.45306 0.10535 0.0
C1350 C 0.13796 0.47056 0.99392 0.0
C1351 C 0.12243 0.46688 0.96495 0.0
C1352 C 0.10791 0.47543 0.97366 0.0
C1353 C 0.10922 0.48757 0.01228 0.0
C1354 C 0.1247 0.49126 0.041 0.0
H1355 H 0.15494 0.44475 0.13972 0.0
H1356 H 0.13622 0.45266 0.10775 0.0
H1357 H 0.1531 0.44607 0.07149 0.0
H1358 H 0.14907 0.46405 0.98615 0.0
H1359 H 0.12193 0.45764 0.93512 0.0
H1360 H 0.9875 0.76622 0.43198 0.0
H1361 H 0.99265 0.79103 0.49019 0.0
H1362 H 0.93702 0.79369 0.48407 0.0
H1363 H 0.93186 0.76887 0.42679 0.0
H1364 H 0.98678 0.82693 0.46222 0.0
H1365 H 0.9474 0.79669 0.6342 0.0
H1366 H 0.95328 0.78212 0.58836 0.0
H1367 H 0.93462 0.79381 0.57704 0.0
C1368 C 0.97631 0.77161 0.44469 0.0
C1369 C 0.95927 0.76556 0.42506 0.0
C1370 C 0.97927 0.7859 0.47757 0.0
C1371 C 0.96521 0.79418 0.49192 0.0
C1372 C 0.94804 0.78733 0.47454 0.0
H1373 H 0.96309 0.90839 0.5479 0.0
H1374 H 0.96159 0.87774 0.51551 0.0
C1375 C 0.9451 0.77317 0.4416 0.0
C1376 C 0.96862 0.81141 0.51963 0.0
H1377 H 0.9546 0.83082 0.62014 0.0
C1378 C 0.97995 0.82767 0.49718 0.0
C1379 C 0.95982 0.81243 0.56546 0.0
C1380 C 0.94824 0.79527 0.59296 0.0
C1381 C 0.98209 0.84506 0.51797 0.0
C1382 C 0.97246 0.84635 0.56206 0.0
C1383 C 0.96179 0.82991 0.58593 0.0
C1384 C 0.97289 0.86478 0.58285 0.0
C1385 C 0.99456 0.86196 0.49226 0.0
C1386 C 0.97926 0.86758 0.63214 0.0
C1387 C 0.98002 0.88512 0.65102 0.0
C1388 C 0.97422 0.90017 0.6212 0.0
C1389 C 0.9675 0.89713 0.57221 0.0
C1390 C 0.96682 0.87964 0.55335 0.0
H1391 H 0.00446 0.85757 0.46837 0.0
H1392 H 0.98682 0.87074 0.46714 0.0
H1393 H 0.0017 0.87089 0.52063 0.0
H1394 H 0.98389 0.85627 0.65576 0.0
H1395 H 0.9851 0.88686 0.68905 0.0
H1396 H 0.72005 0.95928 0.35437 0.0
H1397 H 0.69856 0.9489 0.42393 0.0
H1398 H 0.69834 0.00723 0.44456 0.0
H1399 H 0.71991 0.01762 0.37584 0.0
H1400 H 0.69655 0.98217 0.53761 0.0
H1401 H 0.64679 0.95572 0.39316 0.0
H1402 H 0.66691 0.94634 0.39662 0.0
H1403 H 0.66769 0.97096 0.3757 0.0
C1404 C 0.71582 0.96984 0.37485 0.0
C1405 C 0.72152 0.98925 0.35949 0.0
C1406 C 0.70342 0.96391 0.41417 0.0
C1407 C 0.69661 0.97731 0.43867 0.0
C1408 C 0.70334 0.99665 0.42597 0.0
H1409 H 0.61275 0.99046 0.6312 0.0
H1410 H 0.63995 0.99297 0.58293 0.0
C1411 C 0.71564 0.00258 0.38668 0.0
C1412 C 0.68136 0.97151 0.47409 0.0
H1413 H 0.63675 0.95433 0.47673 0.0
C1414 C 0.68351 0.97588 0.52454 0.0
C1415 C 0.66434 0.96334 0.45687 0.0
C1416 C 0.66114 0.9589 0.40258 0.0
C1417 C 0.66903 0.97254 0.55808 0.0
C1418 C 0.6519 0.96504 0.54029 0.0
C1419 C 0.64988 0.96009 0.49033 0.0
C1420 C 0.63572 0.96323 0.57166 0.0
C1421 C 0.67225 0.97711 0.6122 0.0
C1422 C 0.62398 0.94577 0.5803 0.0
C1423 C 0.6082 0.94435 0.60715 0.0
C1424 C 0.60376 0.9604 0.62565 0.0
C1425 C 0.61561 0.97784 0.61707 0.0
C1426 C 0.63134 0.97925 0.59014 0.0
H1427 H 0.68614 0.97665 0.62414 0.0
H1428 H 0.66998 0.99167 0.61516 0.0
H1429 H 0.66314 0.9671 0.63897 0.0
H1430 H 0.62698 0.93325 0.56589 0.0
H1431 H 0.59929 0.93075 0.61242 0.0
H1432 H 0.58822 0.69975 0.49493 0.0
H1433 H 0.5787 0.67193 0.55613 0.0
H1434 H 0.52471 0.66921 0.5047 0.0
H1435 H 0.53427 0.69704 0.44274 0.0
H1436 H 0.55327 0.66093 0.63576 0.0
H1437 H 0.53741 0.61874 0.47128 0.0
H1438 H 0.54977 0.64273 0.46443 0.0
H1439 H 0.52613 0.63833 0.47243 0.0
C1440 C 0.57424 0.6935 0.49759 0.0
C1441 C 0.562 0.70047 0.46384 0.0
C1442 C 0.56882 0.67759 0.53255 0.0
C1443 C 0.55106 0.66823 0.53431 0.0
C1444 C 0.53854 0.67604 0.50344 0.0
H1445 H 0.50897 0.56815 0.74409 0.0
H1446 H 0.51555 0.60006 0.69966 0.0
C1447 C 0.54397 0.69206 0.46848 0.0
C1448 C 0.54617 0.64943 0.5648 0.0
H1449 H 0.53286 0.6022 0.55294 0.0
C1450 C 0.54867 0.64809 0.61777 0.0
C1451 C 0.54052 0.63263 0.54115 0.0
C1452 C 0.53841 0.63303 0.48418 0.0
C1453 C 0.54561 0.63043 0.64769 0.0
C1454 C 0.53978 0.61366 0.62401 0.0
C1455 C 0.53729 0.61504 0.57108 0.0
C1456 C 0.53638 0.59448 0.65308 0.0
C1457 C 0.54913 0.62983 0.70416 0.0
C1458 C 0.54571 0.58053 0.6414 0.0
C1459 C 0.54192 0.56216 0.66677 0.0
C1460 C 0.52861 0.5573 0.70414 0.0
C1461 C 0.51938 0.57136 0.7159 0.0
C1462 C 0.52319 0.58971 0.69064 0.0
H1463 H 0.55769 0.64311 0.71429 0.0
H1464 H 0.53636 0.62803 0.72459 0.0
H1465 H 0.55558 0.61769 0.71787 0.0
H1466 H 0.55588 0.58384 0.61236 0.0
H1467 H 0.54928 0.55173 0.65655 0.0
H1468 H 0.80356 0.50524 0.30743 0.0
H1469 H 0.82142 0.52052 0.37473 0.0
H1470 H 0.83272 0.4664 0.43716 0.0
H1471 H 0.81446 0.451 0.37128 0.0
H1472 H 0.82816 0.48954 0.51184 0.0
H1473 H 0.87536 0.52764 0.36152 0.0
H1474 H 0.85302 0.53174 0.35551 0.0
H1475 H 0.8575 0.50862 0.34878 0.0
C1476 C 0.80943 0.49654 0.33638 0.0
C1477 C 0.80785 0.47696 0.33362 0.0
C1478 C 0.81978 0.50531 0.37447 0.0
C1479 C 0.82874 0.49465 0.41018 0.0
C1480 C 0.82605 0.47492 0.40974 0.0
H1481 H 0.92739 0.51264 0.55953 0.0
H1482 H 0.90129 0.50587 0.50559 0.0
C1483 C 0.81571 0.46616 0.37188 0.0
C1484 C 0.84221 0.50394 0.44503 0.0
H1485 H 0.88375 0.53109 0.44612 0.0
C1486 C 0.8402 0.49888 0.49765 0.0
C1487 C 0.85801 0.51593 0.42622 0.0
C1488 C 0.86126 0.52124 0.36995 0.0
C1489 C 0.85382 0.50496 0.53186 0.0
C1490 C 0.86974 0.51661 0.51287 0.0
C1491 C 0.87147 0.52225 0.46049 0.0
C1492 C 0.8855 0.52136 0.54572 0.0
C1493 C 0.85147 0.49805 0.58764 0.0
C1494 C 0.88537 0.53255 0.58587 0.0
C1495 C 0.90031 0.53635 0.61716 0.0
C1496 C 0.91559 0.52902 0.60872 0.0
C1497 C 0.91574 0.5182 0.56769 0.0
C1498 C 0.90087 0.51443 0.53656 0.0
H1499 H 0.83963 0.48661 0.59485 0.0
H1500 H 0.86335 0.49266 0.60297 0.0
H1501 H 0.84984 0.51002 0.60893 0.0
H1502 H 0.87373 0.53827 0.59309 0.0
H1503 H 0.89976 0.54469 0.64853 0.0
loop_
_geom_bond_atom_site_label_1
_geom_bond_atom_site_label_2
_geom_bond_distance
_geom_bond_site_symmetry_2
_ccdc_geom_bond_type
C0 C1 1.391 . S
C0 C4 1.391 . S
C0 H42 0.948 . S
C1 C0 1.391 . S
C1 C2 1.391 . S
C2 C1 1.391 . S
C2 H58 0.947 . S
C2 C59 1.392 . S
C3 C4 1.391 . S
C3 C7 1.397 . S
C3 C59 1.419 . S
C4 C0 1.391 . S
C4 C3 1.391 . S
C4 C5 1.399 . S
C5 C4 1.399 . S
C5 C8 1.396 . S
C5 C17 1.453 . S
C5 C18 1.684 . S
H6 C30 0.948 . S
C7 C3 1.397 . S
C7 C8 1.394 . S
C7 C26 1.723 . S
C8 C5 1.396 . S
C8 C7 1.394 . S
C8 C38 1.723 . S
H9 C32 0.947 . S
H10 C33 0.948 . S
H11 C39 0.982 . S
H12 C40 0.979 . S
H13 C40 0.980 . S
H14 C40 0.983 . S
H15 C39 0.979 . S
H16 C39 0.977 . S
C17 C5 1.453 . S
C17 H46 0.982 . S
C17 H47 0.979 . S
C17 H48 0.977 . S
C18 C5 1.684 . S
C18 H43 0.979 . S
C18 H44 0.980 . S
C18 H45 0.983 . S
C19 C20 1.391 . S
C19 C24 1.391 . S
C19 H49 0.948 . S
C20 C19 1.391 . S
C20 C21 1.391 . S
C21 C20 1.391 . S
C21 C22 1.392 . S
C21 H50 0.947 . S
C22 C21 1.392 . S
C22 C23 1.419 . S
C22 H51 0.948 . S
C23 C22 1.419 . S
C23 C24 1.391 . S
C23 C27 1.384 1_556 S
C24 C19 1.391 . S
C24 C23 1.391 . S
C24 C25 1.399 1_556 S
C25 C24 1.399 1_554 S
C25 C26 1.396 . S
C25 C28 1.453 . S
C25 C29 1.684 . S
C26 C7 1.723 . S
C26 C25 1.396 . S
C26 C27 1.406 . S
C27 C23 1.384 1_554 S
C27 C26 1.406 . S
C27 C37 1.722 1_554 S
C28 C25 1.453 . S
C28 H52 0.982 . S
C28 H53 0.979 . S
C28 H54 0.977 . S
C29 C25 1.684 . S
C29 H55 0.979 . S
C29 H56 0.980 . S
C29 H57 0.983 . S
C30 H6 0.948 . S
C30 C31 1.391 1_556 S
C30 C35 1.391 . S
C31 C30 1.391 1_554 S
C31 C32 1.391 . S
C32 H9 0.947 . S
C32 C31 1.391 . S
C32 C33 1.392 . S
C33 H10 0.948 . S
C33 C32 1.392 . S
C33 C34 1.419 . S
C34 C33 1.419 . S
C34 C35 1.391 1_554 S
C34 C38 1.397 . S
C35 C30 1.391 . S
C35 C34 1.391 1_556 S
C35 C36 1.399 . S
C36 C35 1.399 . S
C36 C37 1.396 . S
C36 C39 1.453 . S
C36 C40 1.684 . S
C37 C27 1.722 1_556 S
C37 C36 1.396 . S
C37 C38 1.394 1_556 S
C38 C8 1.723 . S
C38 C34 1.397 . S
C38 C37 1.394 1_554 S
C39 H11 0.982 . S
C39 H15 0.979 . S
C39 H16 0.977 . S
C39 C36 1.453 . S
C40 H12 0.979 . S
C40 H13 0.980 . S
C40 H14 0.983 . S
C40 C36 1.684 . S
H41 C59 0.948 . S
H42 C0 0.948 . S
H43 C18 0.979 . S
H44 C18 0.980 . S
H45 C18 0.983 . S
H46 C17 0.982 . S
H47 C17 0.979 . S
H48 C17 0.977 . S
H49 C19 0.948 . S
H50 C21 0.947 . S
H51 C22 0.948 . S
H52 C28 0.982 . S
H53 C28 0.979 . S
H54 C28 0.977 . S
H55 C29 0.979 . S
H56 C29 0.980 . S
H57 C29 0.983 . S
H58 C2 0.947 . S
C59 C2 1.392 . S
C59 C3 1.419 . S
C59 H41 0.948 . S
C60 C61 1.391 . S
C60 C64 1.391 . S
C60 H102 0.948 . S
C61 C60 1.391 . S
C61 C62 1.391 . S
C62 C61 1.391 . S
C62 H118 0.947 . S
C62 C119 1.392 . S
C63 C64 1.391 . S
C63 C67 1.397 1_556 S
C63 C119 1.419 . S
C64 C60 1.391 . S
C64 C63 1.391 . S
C64 C65 1.399 . S
C65 C64 1.399 . S
C65 C68 1.396 . S
C65 C77 1.453 . S
C65 C78 1.684 . S
H66 C90 0.948 . S
C67 C63 1.397 1_554 S
C67 C68 1.394 1_554 S
C67 C86 1.723 . S
C68 C65 1.396 . S
C68 C67 1.394 1_556 S
C68 C98 1.723 1_556 S
H69 C92 0.947 . S
H70 C93 0.948 . S
H71 C99 0.982 . S
H72 C100 0.979 . S
H73 C100 0.980 . S
H74 C100 0.983 . S
H75 C99 0.979 . S
H76 C99 0.977 . S
C77 C65 1.453 . S
C77 H106 0.982 . S
C77 H107 0.979 . S
C77 H108 0.977 . S
C78 C65 1.684 . S
C78 H103 0.979 . S
C78 H104 0.980 . S
C78 H105 0.983 . S
C79 C80 1.391 . S
C79 C84 1.391 . S
C79 H109 0.948 . S
C80 C79 1.391 . S
C80 C81 1.391 . S
C81 C80 1.391 . S
C81 C82 1.392 . S
C81 H110 0.947 . S
C82 C81 1.392 . S
C82 C83 1.419 . S
C82 H111 0.948 . S
C83 C82 1.419 . S
C83 C84 1.391 . S
C83 C87 1.397 . S
C84 C79 1.391 . S
C84 C83 1.391 . S
C84 C85 1.399 . S
C85 C84 1.399 . S
C85 C86 1.396 . S
C85 C88 1.453 . S
C85 C89 1.684 . S
C86 C67 1.723 . S
C86 C85 1.396 . S
C86 C87 1.394 . S
C87 C83 1.397 . S
C87 C86 1.394 . S
C87 C97 1.723 . S
C88 C85 1.453 . S
C88 H112 0.982 . S
C88 H113 0.979 . S
C88 H114 0.977 . S
C89 C85 1.684 . S
C89 H115 0.979 . S
C89 H116 0.980 . S
C89 H117 0.983 . S
C90 H66 0.948 . S
C90 C91 1.412 . S
C90 C95 1.391 . S
C91 C90 1.412 . S
C91 C92 1.375 1_554 S
C92 H69 0.947 . S
C92 C91 1.375 1_556 S
C92 C93 1.392 . S
C93 H70 0.948 . S
C93 C92 1.392 . S
C93 C94 1.419 1_556 S
C94 C93 1.419 1_554 S
C94 C95 1.391 . S
C94 C98 1.397 . S
C95 C90 1.391 . S
C95 C94 1.391 . S
C95 C96 1.399 . S
C96 C95 1.399 . S
C96 C97 1.396 . S
C96 C99 1.453 . S
C96 C100 1.684 . S
C97 C87 1.723 . S
C97 C96 1.396 . S
C97 C98 1.394 . S
C98 C68 1.723 1_554 S
C98 C94 1.397 . S
C98 C97 1.394 . S
C99 H71 0.982 . S
C99 H75 0.979 . S
C99 H76 0.977 . S
C99 C96 1.453 . S
C100 H72 0.979 . S
C100 H73 0.980 . S
C100 H74 0.983 . S
C100 C96 1.684 . S
H101 C119 0.948 1_554 S
H102 C60 0.948 . S
H103 C78 0.979 . S
H104 C78 0.980 . S
H105 C78 0.983 . S
H106 C77 0.982 . S
H107 C77 0.979 . S
H108 C77 0.977 . S
H109 C79 0.948 . S
H110 C81 0.947 . S
H111 C82 0.948 . S
H112 C88 0.982 . S
H113 C88 0.979 . S
H114 C88 0.977 . S
H115 C89 0.979 . S
H116 C89 0.980 . S
H117 C89 0.983 . S
H118 C62 0.947 . S
C119 C62 1.392 . S
C119 C63 1.419 . S
C119 H101 0.948 1_556 S
C120 C121 1.391 . S
C120 C124 1.391 1_556 S
C120 H162 0.948 1_556 S
C121 C120 1.391 . S
C121 C122 1.391 . S
C122 C121 1.391 . S
C122 H178 0.947 . S
C122 C179 1.392 . S
C123 C124 1.391 1_556 S
C123 C127 1.398 1_565 S
C123 C179 1.419 . S
C124 C120 1.391 1_554 S
C124 C123 1.391 1_554 S
C124 C125 1.399 . S
C125 C124 1.399 . S
C125 C128 1.380 1_565 S
C125 C137 1.453 1_565 S
C125 C138 1.684 . S
H126 C150 0.948 . S
C127 C123 1.398 1_545 S
C127 C128 1.387 1_556 S
C127 C146 1.717 . S
C128 C125 1.380 1_545 S
C128 C127 1.387 1_554 S
C128 C158 1.735 . S
H129 C152 0.947 . S
H130 C153 0.948 . S
H131 C159 0.982 . S
H132 C160 0.979 . S
H133 C160 0.980 . S
H134 C160 0.983 . S
H135 C159 0.979 . S
H136 C159 0.977 . S
C137 C125 1.453 1_545 S
C137 H166 0.982 . S
C137 H167 0.979 . S
C137 H168 0.977 . S
C138 C125 1.684 . S
C138 H163 0.979 . S
C138 H164 0.980 . S
C138 H165 0.983 . S
C139 C140 1.391 . S
C139 C144 1.391 . S
C139 H169 0.948 . S
C140 C139 1.391 . S
C140 C141 1.391 . S
C141 C140 1.391 . S
C141 C142 1.392 . S
C141 H170 0.947 . S
C142 C141 1.392 . S
C142 C143 1.419 . S
C142 H171 0.948 . S
C143 C142 1.419 . S
C143 C144 1.391 . S
C143 C147 1.397 1_565 S
C144 C139 1.391 . S
C144 C143 1.391 . S
C144 C145 1.399 . S
C145 C144 1.399 . S
C145 C146 1.385 1_565 S
C145 C148 1.453 1_565 S
C145 C149 1.684 . S
C146 C127 1.717 . S
C146 C145 1.385 1_545 S
C146 C147 1.406 . S
C147 C143 1.397 1_545 S
C147 C146 1.406 . S
C147 C157 1.713 1_556 S
C148 C145 1.453 1_545 S
C148 H172 0.982 . S
C148 H173 0.979 . S
C148 H174 0.977 . S
C149 C145 1.684 . S
C149 H175 0.979 . S
C149 H176 0.980 . S
C149 H177 0.983 . S
C150 H126 0.948 . S
C150 C151 1.391 . S
C150 C155 1.391 . S
C151 C150 1.391 . S
C151 C152 1.391 . S
C152 H129 0.947 . S
C152 C151 1.391 . S
C152 C153 1.392 . S
C153 H130 0.948 . S
C153 C152 1.392 . S
C153 C154 1.419 . S
C154 C153 1.419 . S
C154 C155 1.391 . S
C154 C158 1.396 1_565 S
C155 C150 1.391 . S
C155 C154 1.391 . S
C155 C156 1.399 . S
C156 C155 1.399 . S
C156 C157 1.400 1_565 S
C156 C159 1.453 1_565 S
C156 C160 1.684 . S
C157 C147 1.713 1_554 S
C157 C156 1.400 1_545 S
C157 C158 1.385 . S
C158 C128 1.735 . S
C158 C154 1.396 1_545 S
C158 C157 1.385 . S
C159 H131 0.982 . S
C159 H135 0.979 . S
C159 H136 0.977 . S
C159 C156 1.453 1_545 S
C160 H132 0.979 . S
C160 H133 0.980 . S
C160 H134 0.983 . S
C160 C156 1.684 . S
H161 C179 0.948 . S
H162 C120 0.948 1_554 S
H163 C138 0.979 . S
H164 C138 0.980 . S
H165 C138 0.983 . S
H166 C137 0.982 . S
H167 C137 0.979 . S
H168 C137 0.977 . S
H169 C139 0.948 . S
H170 C141 0.947 . S
H171 C142 0.948 . S
H172 C148 0.982 . S
H173 C148 0.979 . S
H174 C148 0.977 . S
H175 C149 0.979 . S
H176 C149 0.980 . S
H177 C149 0.983 . S
H178 C122 0.947 . S
C179 C122 1.392 . S
C179 C123 1.419 . S
C179 H161 0.948 . S
C180 C181 1.391 . S
C180 C184 1.391 . S
C180 H222 0.948 . S
C181 C180 1.391 . S
C181 C182 1.391 . S
C182 C181 1.391 . S
C182 H238 0.947 . S
C182 C239 1.392 . S
C183 C184 1.391 . S
C183 C187 1.397 . S
C183 C239 1.419 . S
C184 C180 1.391 . S
C184 C183 1.391 . S
C184 C185 1.399 . S
C185 C184 1.399 . S
C185 C188 1.396 . S
C185 C197 1.453 . S
C185 C198 1.684 . S
H186 C210 0.948 . S
C187 C183 1.397 . S
C187 C188 1.394 . S
C187 C206 1.723 . S
C188 C185 1.396 . S
C188 C187 1.394 . S
C188 C218 1.723 . S
H189 C212 0.947 . S
H190 C213 0.948 . S
H191 C219 0.982 . S
H192 C220 0.979 . S
H193 C220 0.980 . S
H194 C220 0.983 . S
H195 C219 0.979 . S
H196 C219 0.977 . S
C197 C185 1.453 . S
C197 H226 0.982 . S
C197 H227 0.979 . S
C197 H228 0.977 . S
C198 C185 1.684 . S
C198 H223 0.979 . S
C198 H224 0.980 . S
C198 H225 0.983 . S
C199 C200 1.391 . S
C199 C204 1.391 . S
C199 H229 0.948 . S
C200 C199 1.391 . S
C200 C201 1.391 . S
C201 C200 1.391 . S
C201 C202 1.392 . S
C201 H230 0.947 . S
C202 C201 1.392 . S
C202 C203 1.419 . S
C202 H231 0.948 . S
C203 C202 1.419 . S
C203 C204 1.391 . S
C203 C207 1.397 . S
C204 C199 1.391 . S
C204 C203 1.391 . S
C204 C205 1.399 . S
C205 C204 1.399 . S
C205 C206 1.396 . S
C205 C208 1.453 . S
C205 C209 1.684 . S
C206 C187 1.723 . S
C206 C205 1.396 . S
C206 C207 1.394 . S
C207 C203 1.397 . S
C207 C206 1.394 . S
C207 C217 1.723 . S
C208 C205 1.453 . S
C208 H232 0.982 . S
C208 H233 0.979 . S
C208 H234 0.977 . S
C209 C205 1.684 . S
C209 H235 0.979 . S
C209 H236 0.980 . S
C209 H237 0.983 . S
C210 H186 0.948 . S
C210 C211 1.391 . S
C210 C215 1.391 . S
C211 C210 1.391 . S
C211 C212 1.391 . S
C212 H189 0.947 . S
C212 C211 1.391 . S
C212 C213 1.392 . S
C213 H190 0.948 . S
C213 C212 1.392 . S
C213 C214 1.419 . S
C214 C213 1.419 . S
C214 C215 1.391 . S
C214 C218 1.397 . S
C215 C210 1.391 . S
C215 C214 1.391 . S
C215 C216 1.399 . S
C216 C215 1.399 . S
C216 C217 1.396 . S
C216 C219 1.453 . S
C216 C220 1.684 . S
C217 C207 1.723 . S
C217 C216 1.396 . S
C217 C218 1.394 . S
C218 C188 1.723 . S
C218 C214 1.397 . S
C218 C217 1.394 . S
C219 H191 0.982 . S
C219 H195 0.979 . S
C219 H196 0.977 . S
C219 C216 1.453 . S
C220 H192 0.979 . S
C220 H193 0.980 . S
C220 H194 0.983 . S
C220 C216 1.684 . S
H221 C239 0.948 . S
H222 C180 0.948 . S
H223 C198 0.979 . S
H224 C198 0.980 . S
H225 C198 0.983 . S
H226 C197 0.982 . S
H227 C197 0.979 . S
H228 C197 0.977 . S
H229 C199 0.948 . S
H230 C201 0.947 . S
H231 C202 0.948 . S
H232 C208 0.982 . S
H233 C208 0.979 . S
H234 C208 0.977 . S
H235 C209 0.979 . S
H236 C209 0.980 . S
H237 C209 0.983 . S
H238 C182 0.947 . S
C239 C182 1.392 . S
C239 C183 1.419 . S
C239 H221 0.948 . S
C240 C241 1.391 . S
C240 C244 1.391 . S
C240 H282 0.948 . S
C241 C240 1.391 . S
C241 C242 1.391 . S
C242 C241 1.391 . S
C242 H298 0.947 . S
C242 C299 1.392 . S
C243 C244 1.391 . S
C243 C247 1.397 . S
C243 C299 1.419 . S
C244 C240 1.391 . S
C244 C243 1.391 . S
C244 C245 1.399 . S
C245 C244 1.399 . S
C245 C248 1.396 . S
C245 C257 1.453 . S
C245 C258 1.684 . S
H246 C270 0.948 . S
C247 C243 1.397 . S
C247 C248 1.394 . S
C247 C266 1.723 . S
C248 C245 1.396 . S
C248 C247 1.394 . S
C248 C278 1.723 . S
H249 C272 0.947 . S
H250 C273 0.948 . S
H251 C279 0.982 . S
H252 C280 0.979 . S
H253 C280 0.980 . S
H254 C280 0.983 . S
H255 C279 0.979 . S
H256 C279 0.977 . S
C257 C245 1.453 . S
C257 H286 0.982 . S
C257 H287 0.979 . S
C257 H288 0.977 . S
C258 C245 1.684 . S
C258 H283 0.979 . S
C258 H284 0.980 . S
C258 H285 0.983 . S
C259 C260 1.391 . S
C259 C264 1.391 . S
C259 H289 0.948 . S
C260 C259 1.391 . S
C260 C261 1.391 . S
C261 C260 1.391 . S
C261 C262 1.392 . S
C261 H290 0.947 . S
C262 C261 1.392 . S
C262 C263 1.419 . S
C262 H291 0.948 . S
C263 C262 1.419 . S
C263 C264 1.391 . S
C263 C267 1.397 . S
C264 C259 1.391 . S
C264 C263 1.391 . S
C264 C265 1.399 . S
C265 C264 1.399 . S
C265 C266 1.396 . S
C265 C268 1.453 . S
C265 C269 1.684 . S
C266 C247 1.723 . S
C266 C265 1.396 . S
C266 C267 1.394 . S
C267 C263 1.397 . S
C267 C266 1.394 . S
C267 C277 1.723 . S
C268 C265 1.453 . S
C268 H292 0.982 . S
C268 H293 0.979 . S
C268 H294 0.977 . S
C269 C265 1.684 . S
C269 H295 0.979 . S
C269 H296 0.980 . S
C269 H297 0.983 . S
C270 H246 0.948 . S
C270 C271 1.391 . S
C270 C275 1.391 . S
C271 C270 1.391 . S
C271 C272 1.391 . S
C272 H249 0.947 . S
C272 C271 1.391 . S
C272 C273 1.392 . S
C273 H250 0.948 . S
C273 C272 1.392 . S
C273 C274 1.419 . S
C274 C273 1.419 . S
C274 C275 1.391 . S
C274 C278 1.397 . S
C275 C270 1.391 . S
C275 C274 1.391 . S
C275 C276 1.399 . S
C276 C275 1.399 . S
C276 C277 1.396 . S
C276 C279 1.453 . S
C276 C280 1.684 . S
C277 C267 1.723 . S
C277 C276 1.396 . S
C277 C278 1.394 . S
C278 C248 1.723 . S
C278 C274 1.397 . S
C278 C277 1.394 . S
C279 H251 0.982 . S
C279 H255 0.979 . S
C279 H256 0.977 . S
C279 C276 1.453 . S
C280 H252 0.979 . S
C280 H253 0.980 . S
C280 H254 0.983 . S
C280 C276 1.684 . S
H281 C299 0.948 . S
H282 C240 0.948 . S
H283 C258 0.979 . S
H284 C258 0.980 . S
H285 C258 0.983 . S
H286 C257 0.982 . S
H287 C257 0.979 . S
H288 C257 0.977 . S
H289 C259 0.948 . S
H290 C261 0.947 . S
H291 C262 0.948 . S
H292 C268 0.982 . S
H293 C268 0.979 . S
H294 C268 0.977 . S
H295 C269 0.979 . S
H296 C269 0.980 . S
H297 C269 0.983 . S
H298 C242 0.947 . S
C299 C242 1.392 . S
C299 C243 1.419 . S
C299 H281 0.948 . S
C300 C301 1.391 . S
C300 C304 1.391 . S
C300 H342 0.948 . S
C301 C300 1.391 . S
C301 C302 1.391 . S
C302 C301 1.391 . S
C302 H358 0.947 . S
C302 C359 1.392 . S
C303 C304 1.391 . S
C303 C307 1.397 . S
C303 C359 1.419 . S
C304 C300 1.391 . S
C304 C303 1.391 . S
C304 C305 1.399 . S
C305 C304 1.399 . S
C305 C308 1.396 . S
C305 C317 1.453 . S
C305 C318 1.684 . S
H306 C330 0.948 . S
C307 C303 1.397 . S
C307 C308 1.394 . S
C307 C326 1.723 . S
C308 C305 1.396 . S
C308 C307 1.394 . S
C308 C338 1.723 . S
H309 C332 0.947 . S
H310 C333 0.948 . S
H311 C339 0.982 . S
H312 C340 0.979 . S
H313 C340 0.980 . S
H314 C340 0.983 . S
H315 C339 0.979 . S
H316 C339 0.977 . S
C317 C305 1.453 . S
C317 H346 0.982 . S
C317 H347 0.979 . S
C317 H348 0.977 . S
C318 C305 1.684 . S
C318 H343 0.979 . S
C318 H344 0.980 . S
C318 H345 0.983 . S
C319 C320 1.391 . S
C319 C324 1.391 . S
C319 H349 0.948 . S
C320 C319 1.391 . S
C320 C321 1.391 . S
C321 C320 1.391 . S
C321 C322 1.392 . S
C321 H350 0.947 . S
C322 C321 1.392 . S
C322 C323 1.419 . S
C322 H351 0.948 . S
C323 C322 1.419 . S
C323 C324 1.391 . S
C323 C327 1.397 . S
C324 C319 1.391 . S
C324 C323 1.391 . S
C324 C325 1.399 . S
C325 C324 1.399 . S
C325 C326 1.396 . S
C325 C328 1.453 . S
C325 C329 1.684 . S
C326 C307 1.723 . S
C326 C325 1.396 . S
C326 C327 1.394 . S
C327 C323 1.397 . S
C327 C326 1.394 . S
C327 C337 1.723 . S
C328 C325 1.453 . S
C328 H352 0.982 . S
C328 H353 0.979 . S
C328 H354 0.977 . S
C329 C325 1.684 . S
C329 H355 0.979 . S
C329 H356 0.980 . S
C329 H357 0.983 . S
C330 H306 0.948 . S
C330 C331 1.391 . S
C330 C335 1.391 . S
C331 C330 1.391 . S
C331 C332 1.391 . S
C332 H309 0.947 . S
C332 C331 1.391 . S
C332 C333 1.392 . S
C333 H310 0.948 . S
C333 C332 1.392 . S
C333 C334 1.419 . S
C334 C333 1.419 . S
C334 C335 1.391 . S
C334 C338 1.397 . S
C335 C330 1.391 . S
C335 C334 1.391 . S
C335 C336 1.399 . S
C336 C335 1.399 . S
C336 C337 1.396 . S
C336 C339 1.453 . S
C336 C340 1.684 . S
C337 C327 1.723 . S
C337 C336 1.396 . S
C337 C338 1.394 . S
C338 C308 1.723 . S
C338 C334 1.397 . S
C338 C337 1.394 . S
C339 H311 0.982 . S
C339 H315 0.979 . S
C339 H316 0.977 . S
C339 C336 1.453 . S
C340 H312 0.979 . S
C340 H313 0.980 . S
C340 H314 0.983 . S
C340 C336 1.684 . S
H341 C359 0.948 . S
H342 C300 0.948 . S
H343 C318 0.979 . S
H344 C318 0.980 . S
H345 C318 0.983 . S
H346 C317 0.982 . S
H347 C317 0.979 . S
H348 C317 0.977 . S
H349 C319 0.948 . S
H350 C321 0.947 . S
H351 C322 0.948 . S
H352 C328 0.982 . S
H353 C328 0.979 . S
H354 C328 0.977 . S
H355 C329 0.979 . S
H356 C329 0.980 . S
H357 C329 0.983 . S
H358 C302 0.947 . S
C359 C302 1.392 . S
C359 C303 1.419 . S
C359 H341 0.948 . S
C360 C361 1.391 . S
C360 C364 1.391 . S
C360 H402 0.948 . S
C361 C360 1.391 . S
C361 C362 1.391 . S
C362 C361 1.391 . S
C362 H418 0.947 . S
C362 C419 1.392 . S
C363 C364 1.391 . S
C363 C367 1.396 1_545 S
C363 C419 1.419 . S
C364 C360 1.391 . S
C364 C363 1.391 . S
C364 C365 1.399 . S
C365 C364 1.399 . S
C365 C368 1.392 1_545 S
C365 C377 1.453 1_545 S
C365 C378 1.684 . S
H366 C390 0.948 . S
C367 C363 1.396 1_565 S
C367 C368 1.404 . S
C367 C386 1.721 . S
C368 C365 1.392 1_565 S
C368 C367 1.404 . S
C368 C398 1.711 . S
H369 C392 0.947 . S
H370 C393 0.948 . S
H371 C399 0.982 . S
H372 C400 0.979 . S
H373 C400 0.980 . S
H374 C400 0.983 . S
H375 C399 0.979 . S
H376 C399 0.977 . S
C377 C365 1.453 1_565 S
C377 H406 0.982 . S
C377 H407 0.979 . S
C377 H408 0.977 . S
C378 C365 1.684 . S
C378 H403 0.979 . S
C378 H404 0.980 . S
C378 H405 0.983 . S
C379 C380 1.391 . S
C379 C384 1.391 . S
C379 H409 0.948 . S
C380 C379 1.391 . S
C380 C381 1.391 . S
C381 C380 1.391 . S
C381 C382 1.392 . S
C381 H410 0.947 . S
C382 C381 1.392 . S
C382 C383 1.419 . S
C382 H411 0.948 . S
C383 C382 1.419 . S
C383 C384 1.391 . S
C383 C387 1.397 1_545 S
C384 C379 1.391 . S
C384 C383 1.391 . S
C384 C385 1.399 . S
C385 C384 1.399 . S
C385 C386 1.396 1_545 S
C385 C388 1.453 1_545 S
C385 C389 1.684 . S
C386 C367 1.721 . S
C386 C385 1.396 1_565 S
C386 C387 1.380 . S
C387 C383 1.397 1_565 S
C387 C386 1.380 . S
C387 C397 1.734 . S
C388 C385 1.453 1_565 S
C388 H412 0.982 . S
C388 H413 0.979 . S
C388 H414 0.977 . S
C389 C385 1.684 . S
C389 H415 0.979 . S
C389 H416 0.980 . S
C389 H417 0.983 . S
C390 H366 0.948 . S
C390 C391 1.391 . S
C390 C395 1.391 . S
C391 C390 1.391 . S
C391 C392 1.391 . S
C392 H369 0.947 . S
C392 C391 1.391 . S
C392 C393 1.392 . S
C393 H370 0.948 . S
C393 C392 1.392 . S
C393 C394 1.419 . S
C394 C393 1.419 . S
C394 C395 1.391 . S
C394 C398 1.398 1_545 S
C395 C390 1.391 . S
C395 C394 1.391 . S
C395 C396 1.399 . S
C396 C395 1.399 . S
C396 C397 1.376 1_545 S
C396 C399 1.453 1_545 S
C396 C400 1.684 . S
C397 C387 1.734 . S
C397 C396 1.376 1_565 S
C397 C398 1.395 . S
C398 C368 1.711 . S
C398 C394 1.398 1_565 S
C398 C397 1.395 . S
C399 H371 0.982 . S
C399 H375 0.979 . S
C399 H376 0.977 . S
C399 C396 1.453 1_565 S
C400 H372 0.979 . S
C400 H373 0.980 . S
C400 H374 0.983 . S
C400 C396 1.684 . S
H401 C419 0.948 . S
H402 C360 0.948 . S
H403 C378 0.979 . S
H404 C378 0.980 . S
H405 C378 0.983 . S
H406 C377 0.982 . S
H407 C377 0.979 . S
H408 C377 0.977 . S
H409 C379 0.948 . S
H410 C381 0.947 . S
H411 C382 0.948 . S
H412 C388 0.982 . S
H413 C388 0.979 . S
H414 C388 0.977 . S
H415 C389 0.979 . S
H416 C389 0.980 . S
H417 C389 0.983 . S
H418 C362 0.947 . S
C419 C362 1.392 . S
C419 C363 1.419 . S
C419 H401 0.948 . S
C420 C421 1.391 . S
C420 C424 1.391 . S
C420 H462 0.948 . S
C421 C420 1.391 . S
C421 C422 1.391 . S
C422 C421 1.391 . S
C422 H478 0.947 . S
C422 C479 1.392 . S
C423 C424 1.391 . S
C423 C427 1.397 . S
C423 C479 1.419 . S
C424 C420 1.391 . S
C424 C423 1.391 . S
C424 C425 1.399 . S
C425 C424 1.399 . S
C425 C428 1.396 . S
C425 C437 1.453 . S
C425 C438 1.684 . S
H426 C450 0.948 . S
C427 C423 1.397 . S
C427 C428 1.394 . S
C427 C446 1.723 . S
C428 C425 1.396 . S
C428 C427 1.394 . S
C428 C458 1.723 . S
H429 C452 0.947 . S
H430 C453 0.948 . S
H431 C459 0.982 . S
H432 C460 0.979 . S
H433 C460 0.980 . S
H434 C460 0.983 . S
H435 C459 0.979 . S
H436 C459 0.977 . S
C437 C425 1.453 . S
C437 H466 0.982 . S
C437 H467 0.979 . S
C437 H468 0.977 . S
C438 C425 1.684 . S
C438 H463 0.979 . S
C438 H464 0.980 . S
C438 H465 0.983 . S
C439 C440 1.391 . S
C439 C444 1.391 . S
C439 H469 0.948 . S
C440 C439 1.391 . S
C440 C441 1.391 . S
C441 C440 1.391 . S
C441 C442 1.392 . S
C441 H470 0.947 . S
C442 C441 1.392 . S
C442 C443 1.419 . S
C442 H471 0.948 . S
C443 C442 1.419 . S
C443 C444 1.391 . S
C443 C447 1.397 . S
C444 C439 1.391 . S
C444 C443 1.391 . S
C444 C445 1.399 . S
C445 C444 1.399 . S
C445 C446 1.396 . S
C445 C448 1.453 . S
C445 C449 1.684 . S
C446 C427 1.723 . S
C446 C445 1.396 . S
C446 C447 1.394 . S
C447 C443 1.397 . S
C447 C446 1.394 . S
C447 C457 1.723 . S
C448 C445 1.453 . S
C448 H472 0.982 . S
C448 H473 0.979 . S
C448 H474 0.977 . S
C449 C445 1.684 . S
C449 H475 0.979 . S
C449 H476 0.980 . S
C449 H477 0.983 . S
C450 H426 0.948 . S
C450 C451 1.391 . S
C450 C455 1.391 . S
C451 C450 1.391 . S
C451 C452 1.391 . S
C452 H429 0.947 . S
C452 C451 1.391 . S
C452 C453 1.392 . S
C453 H430 0.948 . S
C453 C452 1.392 . S
C453 C454 1.419 . S
C454 C453 1.419 . S
C454 C455 1.391 . S
C454 C458 1.397 . S
C455 C450 1.391 . S
C455 C454 1.391 . S
C455 C456 1.399 . S
C456 C455 1.399 . S
C456 C457 1.396 . S
C456 C459 1.453 . S
C456 C460 1.684 . S
C457 C447 1.723 . S
C457 C456 1.396 . S
C457 C458 1.394 . S
C458 C428 1.723 . S
C458 C454 1.397 . S
C458 C457 1.394 . S
C459 H431 0.982 . S
C459 H435 0.979 . S
C459 H436 0.977 . S
C459 C456 1.453 . S
C460 H432 0.979 . S
C460 H433 0.980 . S
C460 H434 0.983 . S
C460 C456 1.684 . S
H461 C479 0.948 . S
H462 C420 0.948 . S
H463 C438 0.979 . S
H464 C438 0.980 . S
H465 C438 0.983 . S
H466 C437 0.982 . S
H467 C437 0.979 . S
H468 C437 0.977 . S
H469 C439 0.948 . S
H470 C441 0.947 . S
H471 C442 0.948 . S
H472 C448 0.982 . S
H473 C448 0.979 . S
H474 C448 0.977 . S
H475 C449 0.979 . S
H476 C449 0.980 . S
H477 C449 0.983 . S
H478 C422 0.947 . S
C479 C422 1.392 . S
C479 C423 1.419 . S
C479 H461 0.948 . S
Nd480 C482 2.836 1_455 S
Nd480 O500 2.500 1_455 S
Nd480 O501 2.492 . S
Nd480 O502 2.487 . S
Nd480 O503 2.678 1_565 S
Nd480 O504 2.410 . S
Nd480 O509 2.426 1_455 S
Nd480 O511 2.424 1_565 S
Nd481 C491 2.836 . S
Nd481 O503 2.430 . S
Nd481 O505 2.424 1_545 S
Nd481 O506 2.500 . S
Nd481 O507 2.492 . S
Nd481 O508 2.487 1_455 S
Nd481 O509 2.679 1_445 S
Nd481 O510 2.410 . S
C482 Nd480 2.836 1_655 S
C482 C483 1.498 . S
C482 O500 1.258 . S
C482 O501 1.239 1_655 S
C483 C482 1.498 . S
C483 C484 1.366 . S
C483 C488 1.407 . S
C484 C483 1.366 . S
C484 C485 1.392 . S
C484 H512 0.930 . S
C485 C484 1.392 . S
C485 C486 1.398 . S
C485 H513 0.929 . S
C486 C485 1.398 . S
C486 C487 1.352 . S
C487 C486 1.352 . S
C487 C488 1.384 . S
C487 H514 0.930 . S
C488 C483 1.407 . S
C488 C487 1.384 . S
C488 H515 0.929 1_655 S
C489 O502 1.241 . S
C489 O503 1.249 1_565 S
C490 O504 1.251 . S
C490 O505 1.268 . S
C491 Nd481 2.836 . S
C491 C492 1.498 . S
C491 O506 1.258 . S
C491 O507 1.239 . S
C492 C491 1.498 . S
C492 C493 1.366 . S
C492 C497 1.407 . S
C493 C492 1.366 . S
C493 C494 1.392 . S
C493 H516 0.930 . S
C494 C493 1.392 . S
C494 C495 1.398 . S
C494 H517 0.929 . S
C495 C494 1.398 . S
C495 C496 1.352 1_556 S
C496 C495 1.352 1_554 S
C496 C497 1.384 1_554 S
C496 H518 0.930 . S
C497 C492 1.407 . S
C497 C496 1.384 1_556 S
C497 H519 0.929 . S
C498 O508 1.241 . S
C498 O509 1.256 1_545 S
C499 O510 1.251 . S
C499 O511 1.268 . S
O500 Nd480 2.500 1_655 S
O500 C482 1.258 . S
O501 Nd480 2.492 . S
O501 C482 1.239 1_455 S
O502 Nd480 2.487 . S
O502 C489 1.241 . S
O503 Nd480 2.678 1_545 S
O503 Nd481 2.430 . S
O503 C489 1.249 1_545 S
O504 Nd480 2.410 . S
O504 C490 1.251 . S
O505 Nd481 2.424 1_565 S
O505 C490 1.268 . S
O506 Nd481 2.500 . S
O506 C491 1.258 . S
O507 Nd481 2.492 . S
O507 C491 1.239 . S
O508 Nd481 2.487 1_655 S
O508 C498 1.241 . S
O509 Nd480 2.426 1_655 S
O509 Nd481 2.679 1_665 S
O509 C498 1.256 1_565 S
O510 Nd481 2.410 . S
O510 C499 1.251 . S
O511 Nd480 2.424 1_545 S
O511 C499 1.268 . S
H512 C484 0.930 . S
H513 C485 0.929 . S
H514 C487 0.930 . S
H515 C488 0.929 1_455 S
H516 C493 0.930 . S
H517 C494 0.929 . S
H518 C496 0.930 . S
H519 C497 0.929 . S
Nd520 C522 2.836 . S
Nd520 O540 2.500 . S
Nd520 O541 2.492 1_565 S
Nd520 O542 2.487 1_565 S
Nd520 O543 2.682 1_565 S
Nd520 O544 2.410 1_565 S
Nd520 O549 2.414 . S
Nd520 O551 2.424 . S
Nd521 C531 2.836 . S
Nd521 O543 2.414 . S
Nd521 O545 2.424 . S
Nd521 O546 2.500 . S
Nd521 O547 2.492 1_545 S
Nd521 O548 2.487 1_545 S
Nd521 O549 2.682 1_545 S
Nd521 O550 2.410 1_545 S
C522 Nd520 2.836 . S
C522 C523 1.498 . S
C522 O540 1.258 . S
C522 O541 1.232 1_565 S
C523 C522 1.498 . S
C523 C524 1.366 . S
C523 C528 1.407 . S
C524 C523 1.366 . S
C524 C525 1.392 . S
C524 H552 0.930 . S
C525 C524 1.392 . S
C525 C526 1.398 . S
C525 H553 0.929 . S
C526 C525 1.398 . S
C526 C527 1.352 . S
C527 C526 1.352 . S
C527 C528 1.384 . S
C527 H554 0.928 . S
C528 C523 1.407 . S
C528 C527 1.384 . S
C528 H555 0.929 1_565 S
C529 O542 1.241 . S
C529 O543 1.273 . S
C530 O544 1.251 . S
C530 O545 1.268 . S
C531 Nd521 2.836 . S
C531 C532 1.498 . S
C531 O546 1.258 . S
C531 O547 1.243 1_545 S
C532 C531 1.498 . S
C532 C533 1.366 . S
C532 C537 1.407 . S
C533 C532 1.366 . S
C533 C534 1.392 . S
C533 H556 0.930 . S
C534 C533 1.392 . S
C534 C535 1.398 . S
C534 H557 0.929 . S
C535 C534 1.398 . S
C535 C536 1.352 1_556 S
C536 C535 1.352 1_554 S
C536 C537 1.384 1_554 S
C536 H558 0.933 . S
C537 C532 1.407 . S
C537 C536 1.384 1_556 S
C537 H559 0.929 1_546 S
C538 O548 1.241 . S
C538 O549 1.273 . S
C539 O550 1.251 . S
C539 O551 1.268 . S
O540 Nd520 2.500 . S
O540 C522 1.258 . S
O541 Nd520 2.492 1_545 S
O541 C522 1.232 1_545 S
O542 Nd520 2.487 1_545 S
O542 C529 1.241 . S
O543 Nd520 2.682 1_545 S
O543 Nd521 2.414 . S
O543 C529 1.273 . S
O544 Nd520 2.410 1_545 S
O544 C530 1.251 . S
O545 Nd521 2.424 . S
O545 C530 1.268 . S
O546 Nd521 2.500 . S
O546 C531 1.258 . S
O547 Nd521 2.492 1_565 S
O547 C531 1.243 1_565 S
O548 Nd521 2.487 1_565 S
O548 C538 1.241 . S
O549 Nd520 2.414 . S
O549 Nd521 2.682 1_565 S
O549 C538 1.273 . S
O550 Nd521 2.410 1_565 S
O550 C539 1.251 . S
O551 Nd520 2.424 . S
O551 C539 1.268 . S
H552 C524 0.930 . S
H553 C525 0.929 . S
H554 C527 0.928 . S
H555 C528 0.929 1_545 S
H556 C533 0.930 . S
H557 C534 0.929 . S
H558 C536 0.933 . S
H559 C537 0.929 1_564 S
Nd560 C562 2.836 . S
Nd560 O580 2.500 . S
Nd560 O581 2.492 . S
Nd560 O582 2.487 . S
Nd560 O583 2.682 . S
Nd560 O584 2.410 . S
Nd560 O589 2.414 . S
Nd560 O591 2.424 . S
Nd561 C571 2.836 . S
Nd561 O583 2.414 . S
Nd561 O585 2.424 . S
Nd561 O586 2.500 . S
Nd561 O587 2.492 . S
Nd561 O588 2.487 . S
Nd561 O589 2.682 . S
Nd561 O590 2.410 . S
C562 Nd560 2.836 . S
C562 C563 1.498 . S
C562 O580 1.258 . S
C562 O581 1.239 . S
C563 C562 1.498 . S
C563 C564 1.366 . S
C563 C568 1.407 . S
C564 C563 1.366 . S
C564 C565 1.392 . S
C564 H592 0.930 . S
C565 C564 1.392 . S
C565 C566 1.398 . S
C565 H593 0.929 . S
C566 C565 1.398 . S
C566 C567 1.352 . S
C567 C566 1.352 . S
C567 C568 1.384 . S
C567 H594 0.930 . S
C568 C563 1.407 . S
C568 C567 1.384 . S
C568 H595 0.929 . S
C569 O582 1.241 . S
C569 O583 1.273 . S
C570 O584 1.251 . S
C570 O585 1.268 . S
C571 Nd561 2.836 . S
C571 C572 1.498 . S
C571 O586 1.258 . S
C571 O587 1.239 . S
C572 C571 1.498 . S
C572 C573 1.366 . S
C572 C577 1.407 . S
C573 C572 1.366 . S
C573 C574 1.392 . S
C573 H596 0.930 . S
C574 C573 1.392 . S
C574 C575 1.398 . S
C574 H597 0.929 . S
C575 C574 1.398 . S
C575 C576 1.352 . S
C576 C575 1.352 . S
C576 C577 1.384 . S
C576 H598 0.930 . S
C577 C572 1.407 . S
C577 C576 1.384 . S
C577 H599 0.929 . S
C578 O588 1.241 . S
C578 O589 1.273 . S
C579 O590 1.251 . S
C579 O591 1.268 . S
O580 Nd560 2.500 . S
O580 C562 1.258 . S
O581 Nd560 2.492 . S
O581 C562 1.239 . S
O582 Nd560 2.487 . S
O582 C569 1.241 . S
O583 Nd560 2.682 . S
O583 Nd561 2.414 . S
O583 C569 1.273 . S
O584 Nd560 2.410 . S
O584 C570 1.251 . S
O585 Nd561 2.424 . S
O585 C570 1.268 . S
O586 Nd561 2.500 . S
O586 C571 1.258 . S
O587 Nd561 2.492 . S
O587 C571 1.239 . S
O588 Nd561 2.487 . S
O588 C578 1.241 . S
O589 Nd560 2.414 . S
O589 Nd561 2.682 . S
O589 C578 1.273 . S
O590 Nd561 2.410 . S
O590 C579 1.251 . S
O591 Nd560 2.424 . S
O591 C579 1.268 . S
H592 C564 0.930 . S
H593 C565 0.929 . S
H594 C567 0.930 . S
H595 C568 0.929 . S
H596 C573 0.930 . S
H597 C574 0.929 . S
H598 C576 0.930 . S
H599 C577 0.929 . S
Nd600 C602 2.836 1_455 S
Nd600 O620 2.500 1_455 S
Nd600 O621 2.492 1_455 S
Nd600 O622 2.487 . S
Nd600 O623 2.682 . S
Nd600 O624 2.410 1_455 S
Nd600 O629 2.414 . S
Nd600 O631 2.424 . S
Nd601 C611 2.836 . S
Nd601 O623 2.414 . S
Nd601 O625 2.424 1_455 S
Nd601 O626 2.500 . S
Nd601 O627 2.492 . S
Nd601 O628 2.487 . S
Nd601 O629 2.682 . S
Nd601 O630 2.410 . S
C602 Nd600 2.836 1_655 S
C602 C603 1.498 . S
C602 O620 1.258 . S
C602 O621 1.239 . S
C603 C602 1.498 . S
C603 C604 1.366 . S
C603 C608 1.407 . S
C604 C603 1.366 . S
C604 C605 1.392 . S
C604 H632 0.930 . S
C605 C604 1.392 . S
C605 C606 1.398 . S
C605 H633 0.929 . S
C606 C605 1.398 . S
C606 C607 1.352 . S
C607 C606 1.352 . S
C607 C608 1.384 . S
C607 H634 0.930 . S
C608 C603 1.407 . S
C608 C607 1.384 . S
C608 H635 0.929 . S
C609 O622 1.241 . S
C609 O623 1.273 . S
C610 O624 1.251 . S
C610 O625 1.268 . S
C611 Nd601 2.836 . S
C611 C612 1.498 . S
C611 O626 1.258 . S
C611 O627 1.239 . S
C612 C611 1.498 . S
C612 C613 1.366 . S
C612 C617 1.407 . S
C613 C612 1.366 . S
C613 C614 1.392 . S
C613 H636 0.930 . S
C614 C613 1.392 . S
C614 C615 1.398 . S
C614 H637 0.929 . S
C615 C614 1.398 . S
C615 C616 1.352 1_556 S
C616 C615 1.352 1_554 S
C616 C617 1.384 1_554 S
C616 H638 0.930 . S
C617 C612 1.407 . S
C617 C616 1.384 1_556 S
C617 H639 0.929 . S
C618 O628 1.241 . S
C618 O629 1.273 . S
C619 O630 1.251 . S
C619 O631 1.268 . S
O620 Nd600 2.500 1_655 S
O620 C602 1.258 . S
O621 Nd600 2.492 1_655 S
O621 C602 1.239 . S
O622 Nd600 2.487 . S
O622 C609 1.241 . S
O623 Nd600 2.682 . S
O623 Nd601 2.414 . S
O623 C609 1.273 . S
O624 Nd600 2.410 1_655 S
O624 C610 1.251 . S
O625 Nd601 2.424 1_655 S
O625 C610 1.268 . S
O626 Nd601 2.500 . S
O626 C611 1.258 . S
O627 Nd601 2.492 . S
O627 C611 1.239 . S
O628 Nd601 2.487 . S
O628 C618 1.241 . S
O629 Nd600 2.414 . S
O629 Nd601 2.682 . S
O629 C618 1.273 . S
O630 Nd601 2.410 . S
O630 C619 1.251 . S
O631 Nd600 2.424 . S
O631 C619 1.268 . S
H632 C604 0.930 . S
H633 C605 0.929 . S
H634 C607 0.930 . S
H635 C608 0.929 . S
H636 C613 0.930 . S
H637 C614 0.929 . S
H638 C616 0.930 . S
H639 C617 0.929 . S
H640 C648 0.929 . S
H641 C650 0.930 . S
H642 C652 0.930 . S
H643 C655 0.929 . S
H644 C658 0.930 . S
H645 C660 0.960 . S
H646 C660 0.960 1_565 S
H647 C660 0.960 . S
C648 H640 0.929 . S
C648 C649 1.380 . S
C648 C650 1.384 . S
C649 C648 1.380 . S
C649 C655 1.387 1_565 S
C650 H641 0.930 . S
C650 C648 1.384 . S
C650 C651 1.372 . S
C651 C650 1.372 . S
C651 C652 1.400 1_565 S
C651 C656 1.490 . S
C652 H642 0.930 . S
C652 C651 1.400 1_545 S
C652 C655 1.386 . S
H653 C669 0.930 . S
H654 C670 0.931 . S
C655 H643 0.929 . S
C655 C649 1.387 1_545 S
C655 C652 1.386 . S
C656 C651 1.490 . S
C656 C658 1.395 . S
C656 C659 1.403 1_565 S
H657 C663 0.930 . S
C658 H644 0.930 . S
C658 C656 1.395 . S
C658 C661 1.403 . S
C659 C656 1.403 1_545 S
C659 C660 1.524 . S
C659 C663 1.400 . S
C660 H645 0.960 . S
C660 H646 0.960 1_545 S
C660 H647 0.960 . S
C660 C659 1.524 . S
C661 C658 1.403 . S
C661 C662 1.392 . S
C661 C665 1.495 . S
C662 C661 1.392 . S
C662 C663 1.385 1_565 S
C662 C664 1.478 . S
C663 H657 0.930 . S
C663 C659 1.400 . S
C663 C662 1.385 1_545 S
C664 C662 1.478 . S
C664 C666 1.381 . S
C664 C670 1.383 1_565 S
C665 C661 1.495 . S
C665 H671 0.959 . S
C665 H672 0.961 . S
C665 H673 0.960 . S
C666 C664 1.381 . S
C666 C667 1.394 . S
C666 H674 0.930 . S
C667 C666 1.394 . S
C667 C668 1.383 . S
C667 H675 0.929 . S
C668 C667 1.383 . S
C668 C669 1.377 1_565 S
C669 H653 0.930 . S
C669 C668 1.377 1_545 S
C669 C670 1.379 . S
C670 H654 0.931 . S
C670 C664 1.383 1_545 S
C670 C669 1.379 . S
H671 C665 0.959 . S
H672 C665 0.961 . S
H673 C665 0.960 . S
H674 C666 0.930 . S
H675 C667 0.929 . S
H676 C684 0.929 . S
H677 C686 0.930 . S
H678 C688 0.930 . S
H679 C691 0.929 . S
H680 C694 0.930 . S
H681 C696 0.960 . S
H682 C696 0.960 . S
H683 C696 0.960 . S
C684 H676 0.929 . S
C684 C685 1.377 . S
C684 C686 1.384 . S
C685 C684 1.377 . S
C685 C691 1.390 . S
C686 H677 0.930 . S
C686 C684 1.384 . S
C686 C687 1.372 . S
C687 C686 1.372 . S
C687 C688 1.400 . S
C687 C692 1.490 . S
C688 H678 0.930 . S
C688 C687 1.400 . S
C688 C691 1.386 . S
H689 C705 0.930 . S
H690 C706 0.931 . S
C691 H679 0.929 . S
C691 C685 1.390 . S
C691 C688 1.386 . S
C692 C687 1.490 . S
C692 C694 1.395 . S
C692 C695 1.403 . S
H693 C699 0.930 . S
C694 H680 0.930 . S
C694 C692 1.395 . S
C694 C697 1.403 . S
C695 C692 1.403 . S
C695 C696 1.524 . S
C695 C699 1.400 . S
C696 H681 0.960 . S
C696 H682 0.960 . S
C696 H683 0.960 . S
C696 C695 1.524 . S
C697 C694 1.403 . S
C697 C698 1.392 . S
C697 C701 1.495 . S
C698 C697 1.392 . S
C698 C699 1.385 . S
C698 C700 1.478 . S
C699 H693 0.930 . S
C699 C695 1.400 . S
C699 C698 1.385 . S
C700 C698 1.478 . S
C700 C702 1.381 . S
C700 C706 1.383 . S
C701 C697 1.495 . S
C701 H707 0.959 . S
C701 H708 0.961 . S
C701 H709 0.960 . S
C702 C700 1.381 . S
C702 C703 1.394 . S
C702 H710 0.930 . S
C703 C702 1.394 . S
C703 C704 1.383 . S
C703 H711 0.929 . S
C704 C703 1.383 . S
C704 C705 1.377 . S
C705 H689 0.930 . S
C705 C704 1.377 . S
C705 C706 1.379 . S
C706 H690 0.931 . S
C706 C700 1.383 . S
C706 C705 1.379 . S
H707 C701 0.959 . S
H708 C701 0.961 . S
H709 C701 0.960 . S
H710 C702 0.930 . S
H711 C703 0.929 . S
H712 C720 0.929 . S
H713 C722 0.930 . S
H714 C724 0.930 . S
H715 C727 0.929 . S
H716 C730 0.930 . S
H717 C732 0.960 . S
H718 C732 0.960 . S
H719 C732 0.960 . S
C720 H712 0.929 . S
C720 C721 1.377 . S
C720 C722 1.384 . S
C721 C720 1.377 . S
C721 C727 1.390 . S
C722 H713 0.930 . S
C722 C720 1.384 . S
C722 C723 1.372 . S
C723 C722 1.372 . S
C723 C724 1.400 . S
C723 C728 1.490 . S
C724 H714 0.930 . S
C724 C723 1.400 . S
C724 C727 1.386 . S
H725 C741 0.930 . S
H726 C742 0.931 . S
C727 H715 0.929 . S
C727 C721 1.390 . S
C727 C724 1.386 . S
C728 C723 1.490 . S
C728 C730 1.395 . S
C728 C731 1.403 . S
H729 C735 0.930 . S
C730 H716 0.930 . S
C730 C728 1.395 . S
C730 C733 1.403 . S
C731 C728 1.403 . S
C731 C732 1.524 . S
C731 C735 1.400 . S
C732 H717 0.960 . S
C732 H718 0.960 . S
C732 H719 0.960 . S
C732 C731 1.524 . S
C733 C730 1.403 . S
C733 C734 1.392 . S
C733 C737 1.495 . S
C734 C733 1.392 . S
C734 C735 1.385 . S
C734 C736 1.478 . S
C735 H729 0.930 . S
C735 C731 1.400 . S
C735 C734 1.385 . S
C736 C734 1.478 . S
C736 C738 1.381 . S
C736 C742 1.383 . S
C737 C733 1.495 . S
C737 H743 0.959 . S
C737 H744 0.961 . S
C737 H745 0.960 . S
C738 C736 1.381 . S
C738 C739 1.394 . S
C738 H746 0.930 . S
C739 C738 1.394 . S
C739 C740 1.383 . S
C739 H747 0.929 . S
C740 C739 1.383 . S
C740 C741 1.377 . S
C741 H725 0.930 . S
C741 C740 1.377 . S
C741 C742 1.379 . S
C742 H726 0.931 . S
C742 C736 1.383 . S
C742 C741 1.379 . S
H743 C737 0.959 . S
H744 C737 0.961 . S
H745 C737 0.960 . S
H746 C738 0.930 . S
H747 C739 0.929 . S
H748 C756 0.929 . S
H749 C758 0.930 . S
H750 C760 0.930 . S
H751 C763 0.929 . S
H752 C766 0.930 . S
H753 C768 0.960 . S
H754 C768 0.960 . S
H755 C768 0.960 . S
C756 H748 0.929 . S
C756 C757 1.377 . S
C756 C758 1.384 . S
C757 C756 1.377 . S
C757 C763 1.390 . S
C758 H749 0.930 . S
C758 C756 1.384 . S
C758 C759 1.372 . S
C759 C758 1.372 . S
C759 C760 1.400 . S
C759 C764 1.490 . S
C760 H750 0.930 . S
C760 C759 1.400 . S
C760 C763 1.386 . S
H761 C777 0.930 . S
H762 C778 0.931 . S
C763 H751 0.929 . S
C763 C757 1.390 . S
C763 C760 1.386 . S
C764 C759 1.490 . S
C764 C766 1.395 . S
C764 C767 1.403 . S
H765 C771 0.930 . S
C766 H752 0.930 . S
C766 C764 1.395 . S
C766 C769 1.403 . S
C767 C764 1.403 . S
C767 C768 1.524 . S
C767 C771 1.400 . S
C768 H753 0.960 . S
C768 H754 0.960 . S
C768 H755 0.960 . S
C768 C767 1.524 . S
C769 C766 1.403 . S
C769 C770 1.392 . S
C769 C773 1.495 . S
C770 C769 1.392 . S
C770 C771 1.385 . S
C770 C772 1.478 . S
C771 H765 0.930 . S
C771 C767 1.400 . S
C771 C770 1.385 . S
C772 C770 1.478 . S
C772 C774 1.381 . S
C772 C778 1.383 . S
C773 C769 1.495 . S
C773 H779 0.959 . S
C773 H780 0.961 . S
C773 H781 0.960 . S
C774 C772 1.381 . S
C774 C775 1.394 . S
C774 H782 0.930 . S
C775 C774 1.394 . S
C775 C776 1.383 . S
C775 H783 0.929 . S
C776 C775 1.383 . S
C776 C777 1.377 . S
C777 H761 0.930 . S
C777 C776 1.377 . S
C777 C778 1.379 . S
C778 H762 0.931 . S
C778 C772 1.383 . S
C778 C777 1.379 . S
H779 C773 0.959 . S
H780 C773 0.961 . S
H781 C773 0.960 . S
H782 C774 0.930 . S
H783 C775 0.929 . S
H784 C792 0.929 1_554 S
H785 C794 0.930 . S
H786 C796 0.930 . S
H787 C799 0.929 . S
H788 C802 0.930 . S
H789 C804 0.960 . S
H790 C804 0.960 . S
H791 C804 0.960 . S
C792 H784 0.929 1_556 S
C792 C793 1.374 1_565 S
C792 C794 1.384 . S
C793 C792 1.374 1_545 S
C793 C799 1.390 . S
C794 H785 0.930 . S
C794 C792 1.384 . S
C794 C795 1.371 1_565 S
C795 C794 1.371 1_545 S
C795 C796 1.416 . S
C795 C800 1.487 . S
C796 H786 0.930 . S
C796 C795 1.416 . S
C796 C799 1.386 . S
H797 C813 0.930 . S
H798 C814 0.931 . S
C799 H787 0.929 . S
C799 C793 1.390 . S
C799 C796 1.386 . S
C800 C795 1.487 . S
C800 C802 1.353 1_545 S
C800 C803 1.434 . S
H801 C807 0.930 . S
C802 H788 0.930 . S
C802 C800 1.353 1_565 S
C802 C805 1.403 . S
C803 C800 1.434 . S
C803 C804 1.524 . S
C803 C807 1.400 . S
C804 H789 0.960 . S
C804 H790 0.960 . S
C804 H791 0.960 . S
C804 C803 1.524 . S
C805 C802 1.403 . S
C805 C806 1.392 . S
C805 C809 1.495 . S
C806 C805 1.392 . S
C806 C807 1.385 1_565 S
C806 C808 1.466 . S
C807 H801 0.930 . S
C807 C803 1.400 . S
C807 C806 1.385 1_545 S
C808 C806 1.466 . S
C808 C810 1.391 . S
C808 C814 1.385 1_565 S
C809 C805 1.495 . S
C809 H815 0.959 . S
C809 H816 0.961 . S
C809 H817 0.960 . S
C810 C808 1.391 . S
C810 C811 1.393 . S
C810 H818 0.930 . S
C811 C810 1.393 . S
C811 C812 1.383 1_565 S
C811 H819 0.926 . S
C812 C811 1.383 1_545 S
C812 C813 1.377 . S
C813 H797 0.930 . S
C813 C812 1.377 . S
C813 C814 1.379 . S
C814 H798 0.931 . S
C814 C808 1.385 1_545 S
C814 C813 1.379 . S
H815 C809 0.959 . S
H816 C809 0.961 . S
H817 C809 0.960 . S
H818 C810 0.930 . S
H819 C811 0.926 . S
H820 C828 0.929 . S
H821 C830 0.930 . S
H822 C832 0.930 . S
H823 C835 0.929 . S
H824 C838 0.930 . S
H825 C840 0.960 . S
H826 C840 0.960 . S
H827 C840 0.960 . S
C828 H820 0.929 . S
C828 C829 1.377 . S
C828 C830 1.384 . S
C829 C828 1.377 . S
C829 C835 1.390 . S
C830 H821 0.930 . S
C830 C828 1.384 . S
C830 C831 1.372 . S
C831 C830 1.372 . S
C831 C832 1.400 . S
C831 C836 1.490 . S
C832 H822 0.930 . S
C832 C831 1.400 . S
C832 C835 1.386 . S
H833 C849 0.930 . S
H834 C850 0.931 . S
C835 H823 0.929 . S
C835 C829 1.390 . S
C835 C832 1.386 . S
C836 C831 1.490 . S
C836 C838 1.395 . S
C836 C839 1.403 . S
H837 C843 0.930 . S
C838 H824 0.930 . S
C838 C836 1.395 . S
C838 C841 1.403 1_554 S
C839 C836 1.403 . S
C839 C840 1.524 . S
C839 C843 1.400 . S
C840 H825 0.960 . S
C840 H826 0.960 . S
C840 H827 0.960 . S
C840 C839 1.524 . S
C841 C838 1.403 1_556 S
C841 C842 1.391 1_556 S
C841 C845 1.495 . S
C842 C841 1.391 1_554 S
C842 C843 1.391 . S
C842 C844 1.473 1_554 S
C843 H837 0.930 . S
C843 C839 1.400 . S
C843 C842 1.391 . S
C844 C842 1.473 1_556 S
C844 C846 1.381 . S
C844 C850 1.383 . S
C845 C841 1.495 . S
C845 H851 0.959 . S
C845 H852 0.961 . S
C845 H853 0.960 . S
C846 C844 1.381 . S
C846 C847 1.394 . S
C846 H854 0.930 . S
C847 C846 1.394 . S
C847 C848 1.383 . S
C847 H855 0.929 . S
C848 C847 1.383 . S
C848 C849 1.377 . S
C849 H833 0.930 . S
C849 C848 1.377 . S
C849 C850 1.379 . S
C850 H834 0.931 . S
C850 C844 1.383 . S
C850 C849 1.379 . S
H851 C845 0.959 . S
H852 C845 0.961 . S
H853 C845 0.960 . S
H854 C846 0.930 . S
H855 C847 0.929 . S
H856 C864 0.929 . S
H857 C866 0.930 . S
H858 C868 0.930 . S
H859 C871 0.929 . S
H860 C874 0.930 . S
H861 C876 0.960 . S
H862 C876 0.960 . S
H863 C876 0.960 . S
C864 H856 0.929 . S
C864 C865 1.377 . S
C864 C866 1.384 . S
C865 C864 1.377 . S
C865 C871 1.390 . S
C866 H857 0.930 . S
C866 C864 1.384 . S
C866 C867 1.372 . S
C867 C866 1.372 . S
C867 C868 1.400 . S
C867 C872 1.490 . S
C868 H858 0.930 . S
C868 C867 1.400 . S
C868 C871 1.386 . S
H869 C885 0.930 . S
H870 C886 0.931 . S
C871 H859 0.929 . S
C871 C865 1.390 . S
C871 C868 1.386 . S
C872 C867 1.490 . S
C872 C874 1.395 . S
C872 C875 1.403 . S
H873 C879 0.930 . S
C874 H860 0.930 . S
C874 C872 1.395 . S
C874 C877 1.403 . S
C875 C872 1.403 . S
C875 C876 1.524 . S
C875 C879 1.400 . S
C876 H861 0.960 . S
C876 H862 0.960 . S
C876 H863 0.960 . S
C876 C875 1.524 . S
C877 C874 1.403 . S
C877 C878 1.392 . S
C877 C881 1.495 . S
C878 C877 1.392 . S
C878 C879 1.385 . S
C878 C880 1.478 . S
C879 H873 0.930 . S
C879 C875 1.400 . S
C879 C878 1.385 . S
C880 C878 1.478 . S
C880 C882 1.381 . S
C880 C886 1.383 . S
C881 C877 1.495 . S
C881 H887 0.959 1_556 S
C881 H888 0.961 . S
C881 H889 0.960 . S
C882 C880 1.381 . S
C882 C883 1.394 . S
C882 H890 0.930 . S
C883 C882 1.394 . S
C883 C884 1.383 . S
C883 H891 0.929 . S
C884 C883 1.383 . S
C884 C885 1.377 . S
C885 H869 0.930 . S
C885 C884 1.377 . S
C885 C886 1.379 . S
C886 H870 0.931 . S
C886 C880 1.383 . S
C886 C885 1.379 . S
H887 C881 0.959 1_554 S
H888 C881 0.961 . S
H889 C881 0.960 . S
H890 C882 0.930 . S
H891 C883 0.929 . S
H892 C900 0.929 . S
H893 C902 0.930 . S
H894 C904 0.930 . S
H895 C907 0.929 . S
H896 C910 0.930 . S
H897 C912 0.960 . S
H898 C912 0.960 . S
H899 C912 0.960 . S
C900 H892 0.929 . S
C900 C901 1.377 . S
C900 C902 1.384 . S
C901 C900 1.377 . S
C901 C907 1.390 . S
C902 H893 0.930 . S
C902 C900 1.384 . S
C902 C903 1.372 . S
C903 C902 1.372 . S
C903 C904 1.400 . S
C903 C908 1.490 . S
C904 H894 0.930 . S
C904 C903 1.400 . S
C904 C907 1.386 . S
H905 C921 0.930 1_455 S
H906 C922 0.931 . S
C907 H895 0.929 . S
C907 C901 1.390 . S
C907 C904 1.386 . S
C908 C903 1.490 . S
C908 C910 1.395 . S
C908 C911 1.403 . S
H909 C915 0.930 . S
C910 H896 0.930 . S
C910 C908 1.395 . S
C910 C913 1.403 . S
C911 C908 1.403 . S
C911 C912 1.524 1_556 S
C911 C915 1.400 . S
C912 H897 0.960 . S
C912 H898 0.960 . S
C912 H899 0.960 . S
C912 C911 1.524 1_554 S
C913 C910 1.403 . S
C913 C914 1.392 . S
C913 C917 1.495 . S
C914 C913 1.392 . S
C914 C915 1.385 . S
C914 C916 1.478 . S
C915 H909 0.930 . S
C915 C911 1.400 . S
C915 C914 1.385 . S
C916 C914 1.478 . S
C916 C918 1.381 . S
C916 C922 1.383 . S
C917 C913 1.495 . S
C917 H923 0.959 . S
C917 H924 0.961 . S
C917 H925 0.960 . S
C918 C916 1.381 . S
C918 C919 1.394 . S
C918 H926 0.930 . S
C919 C918 1.394 . S
C919 C920 1.383 . S
C919 H927 0.929 . S
C920 C919 1.383 . S
C920 C921 1.377 . S
C921 H905 0.930 1_655 S
C921 C920 1.377 . S
C921 C922 1.379 . S
C922 H906 0.931 . S
C922 C916 1.383 . S
C922 C921 1.379 . S
H923 C917 0.959 . S
H924 C917 0.961 . S
H925 C917 0.960 . S
H926 C918 0.930 . S
H927 C919 0.929 . S
H928 C936 0.929 . S
H929 C938 0.930 . S
H930 C940 0.930 . S
H931 C943 0.929 . S
H932 C946 0.930 . S
H933 C948 0.960 . S
H934 C948 0.960 . S
H935 C948 0.960 . S
C936 H928 0.929 . S
C936 C937 1.377 . S
C936 C938 1.384 . S
C937 C936 1.377 . S
C937 C943 1.390 . S
C938 H929 0.930 . S
C938 C936 1.384 . S
C938 C939 1.372 . S
C939 C938 1.372 . S
C939 C940 1.400 . S
C939 C944 1.490 . S
C940 H930 0.930 . S
C940 C939 1.400 . S
C940 C943 1.386 . S
H941 C957 0.930 . S
H942 C958 0.931 . S
C943 H931 0.929 . S
C943 C937 1.390 . S
C943 C940 1.386 . S
C944 C939 1.490 . S
C944 C946 1.395 . S
C944 C947 1.403 . S
H945 C951 0.930 . S
C946 H932 0.930 . S
C946 C944 1.395 . S
C946 C949 1.403 . S
C947 C944 1.403 . S
C947 C948 1.524 . S
C947 C951 1.400 . S
C948 H933 0.960 . S
C948 H934 0.960 . S
C948 H935 0.960 . S
C948 C947 1.524 . S
C949 C946 1.403 . S
C949 C950 1.392 . S
C949 C953 1.495 . S
C950 C949 1.392 . S
C950 C951 1.385 . S
C950 C952 1.478 . S
C951 H945 0.930 . S
C951 C947 1.400 . S
C951 C950 1.385 . S
C952 C950 1.478 . S
C952 C954 1.381 . S
C952 C958 1.383 . S
C953 C949 1.495 . S
C953 H959 0.959 . S
C953 H960 0.961 . S
C953 H961 0.960 . S
C954 C952 1.381 . S
C954 C955 1.394 . S
C954 H962 0.930 . S
C955 C954 1.394 . S
C955 C956 1.383 . S
C955 H963 0.929 . S
C956 C955 1.383 . S
C956 C957 1.377 . S
C957 H941 0.930 . S
C957 C956 1.377 . S
C957 C958 1.379 . S
C958 H942 0.931 . S
C958 C952 1.383 . S
C958 C957 1.379 . S
H959 C953 0.959 . S
H960 C953 0.961 . S
H961 C953 0.960 . S
H962 C954 0.930 . S
H963 C955 0.929 . S
H964 C972 0.929 . S
H965 C974 0.930 . S
H966 C976 0.930 . S
H967 C979 0.929 . S
H968 C982 0.930 . S
H969 C984 0.960 . S
H970 C984 0.964 . S
H971 C984 0.960 . S
C972 H964 0.929 . S
C972 C973 1.361 1_565 S
C972 C974 1.384 . S
C973 C972 1.361 1_545 S
C973 C979 1.402 . S
C974 H965 0.930 . S
C974 C972 1.384 . S
C974 C975 1.372 . S
C975 C974 1.372 . S
C975 C976 1.400 1_565 S
C975 C980 1.490 . S
C976 H966 0.930 . S
C976 C975 1.400 1_545 S
C976 C979 1.386 . S
H977 C993 0.930 . S
H978 C994 0.931 . S
C979 H967 0.929 . S
C979 C973 1.402 . S
C979 C976 1.386 . S
C980 C975 1.490 . S
C980 C982 1.395 . S
C980 C983 1.397 1_565 S
H981 C987 0.930 1_545 S
C982 H968 0.930 . S
C982 C980 1.395 . S
C982 C985 1.403 . S
C983 C980 1.397 1_545 S
C983 C984 1.535 . S
C983 C987 1.394 1_545 S
C984 H969 0.960 . S
C984 H970 0.964 . S
C984 H971 0.960 . S
C984 C983 1.535 . S
C985 C982 1.403 . S
C985 C986 1.392 . S
C985 C989 1.495 . S
C986 C985 1.392 . S
C986 C987 1.385 . S
C986 C988 1.478 . S
C987 H981 0.930 1_565 S
C987 C983 1.394 1_565 S
C987 C986 1.385 . S
C988 C986 1.478 . S
C988 C990 1.381 . S
C988 C994 1.383 1_565 S
C989 C985 1.495 . S
C989 H995 0.959 . S
C989 H996 0.961 . S
C989 H997 0.960 . S
C990 C988 1.381 . S
C990 C991 1.394 . S
C990 H998 0.930 . S
C991 C990 1.394 . S
C991 C992 1.383 . S
C991 H999 0.929 . S
C992 C991 1.383 . S
C992 C993 1.377 1_565 S
C993 H977 0.930 . S
C993 C992 1.377 1_545 S
C993 C994 1.379 . S
C994 H978 0.931 . S
C994 C988 1.383 1_545 S
C994 C993 1.379 . S
H995 C989 0.959 . S
H996 C989 0.961 . S
H997 C989 0.960 . S
H998 C990 0.930 . S
H999 C991 0.929 . S
H1000 C1008 0.929 . S
H1001 C1010 0.930 . S
H1002 C1012 0.930 . S
H1003 C1015 0.929 . S
H1004 C1018 0.930 . S
H1005 C1020 0.960 . S
H1006 C1020 0.960 . S
H1007 C1020 0.960 . S
C1008 H1000 0.929 . S
C1008 C1009 1.377 . S
C1008 C1010 1.384 . S
C1009 C1008 1.377 . S
C1009 C1015 1.390 . S
C1010 H1001 0.930 . S
C1010 C1008 1.384 . S
C1010 C1011 1.372 . S
C1011 C1010 1.372 . S
C1011 C1012 1.400 . S
C1011 C1016 1.490 . S
C1012 H1002 0.930 . S
C1012 C1011 1.400 . S
C1012 C1015 1.386 . S
H1013 C1029 0.930 . S
H1014 C1030 0.931 . S
C1015 H1003 0.929 . S
C1015 C1009 1.390 . S
C1015 C1012 1.386 . S
C1016 C1011 1.490 . S
C1016 C1018 1.395 . S
C1016 C1019 1.403 . S
H1017 C1023 0.930 . S
C1018 H1004 0.930 . S
C1018 C1016 1.395 . S
C1018 C1021 1.403 . S
C1019 C1016 1.403 . S
C1019 C1020 1.524 . S
C1019 C1023 1.400 . S
C1020 H1005 0.960 . S
C1020 H1006 0.960 . S
C1020 H1007 0.960 . S
C1020 C1019 1.524 . S
C1021 C1018 1.403 . S
C1021 C1022 1.392 . S
C1021 C1025 1.495 . S
C1022 C1021 1.392 . S
C1022 C1023 1.385 . S
C1022 C1024 1.478 . S
C1023 H1017 0.930 . S
C1023 C1019 1.400 . S
C1023 C1022 1.385 . S
C1024 C1022 1.478 . S
C1024 C1026 1.381 . S
C1024 C1030 1.383 . S
C1025 C1021 1.495 . S
C1025 H1031 0.959 . S
C1025 H1032 0.961 . S
C1025 H1033 0.960 . S
C1026 C1024 1.381 . S
C1026 C1027 1.394 . S
C1026 H1034 0.930 . S
C1027 C1026 1.394 . S
C1027 C1028 1.383 . S
C1027 H1035 0.929 . S
C1028 C1027 1.383 . S
C1028 C1029 1.377 . S
C1029 H1013 0.930 . S
C1029 C1028 1.377 . S
C1029 C1030 1.379 . S
C1030 H1014 0.931 . S
C1030 C1024 1.383 . S
C1030 C1029 1.379 . S
H1031 C1025 0.959 . S
H1032 C1025 0.961 . S
H1033 C1025 0.960 . S
H1034 C1026 0.930 . S
H1035 C1027 0.929 . S
H1036 C1044 0.929 . S
H1037 C1046 0.930 . S
H1038 C1048 0.930 . S
H1039 C1051 0.929 . S
H1040 C1054 0.930 . S
H1041 C1056 0.960 . S
H1042 C1056 0.960 . S
H1043 C1056 0.960 . S
C1044 H1036 0.929 . S
C1044 C1045 1.377 . S
C1044 C1046 1.384 . S
C1045 C1044 1.377 . S
C1045 C1051 1.390 . S
C1046 H1037 0.930 . S
C1046 C1044 1.384 . S
C1046 C1047 1.372 . S
C1047 C1046 1.372 . S
C1047 C1048 1.400 . S
C1047 C1052 1.490 . S
C1048 H1038 0.930 . S
C1048 C1047 1.400 . S
C1048 C1051 1.386 . S
H1049 C1065 0.930 . S
H1050 C1066 0.931 . S
C1051 H1039 0.929 . S
C1051 C1045 1.390 . S
C1051 C1048 1.386 . S
C1052 C1047 1.490 . S
C1052 C1054 1.395 . S
C1052 C1055 1.403 . S
H1053 C1059 0.930 . S
C1054 H1040 0.930 . S
C1054 C1052 1.395 . S
C1054 C1057 1.403 . S
C1055 C1052 1.403 . S
C1055 C1056 1.524 . S
C1055 C1059 1.400 . S
C1056 H1041 0.960 . S
C1056 H1042 0.960 . S
C1056 H1043 0.960 . S
C1056 C1055 1.524 . S
C1057 C1054 1.403 . S
C1057 C1058 1.392 . S
C1057 C1061 1.495 . S
C1058 C1057 1.392 . S
C1058 C1059 1.385 . S
C1058 C1060 1.478 . S
C1059 H1053 0.930 . S
C1059 C1055 1.400 . S
C1059 C1058 1.385 . S
C1060 C1058 1.478 . S
C1060 C1062 1.381 . S
C1060 C1066 1.383 . S
C1061 C1057 1.495 . S
C1061 H1067 0.959 . S
C1061 H1068 0.961 . S
C1061 H1069 0.960 . S
C1062 C1060 1.381 . S
C1062 C1063 1.394 . S
C1062 H1070 0.930 . S
C1063 C1062 1.394 . S
C1063 C1064 1.383 . S
C1063 H1071 0.929 . S
C1064 C1063 1.383 . S
C1064 C1065 1.377 . S
C1065 H1049 0.930 . S
C1065 C1064 1.377 . S
C1065 C1066 1.379 . S
C1066 H1050 0.931 . S
C1066 C1060 1.383 . S
C1066 C1065 1.379 . S
H1067 C1061 0.959 . S
H1068 C1061 0.961 . S
H1069 C1061 0.960 . S
H1070 C1062 0.930 . S
H1071 C1063 0.929 . S
H1072 C1080 0.929 . S
H1073 C1082 0.930 . S
H1074 C1084 0.930 . S
H1075 C1087 0.929 . S
H1076 C1090 0.930 . S
H1077 C1092 0.960 . S
H1078 C1092 0.960 . S
H1079 C1092 0.960 . S
C1080 H1072 0.929 . S
C1080 C1081 1.377 . S
C1080 C1082 1.384 . S
C1081 C1080 1.377 . S
C1081 C1087 1.390 . S
C1082 H1073 0.930 . S
C1082 C1080 1.384 . S
C1082 C1083 1.372 . S
C1083 C1082 1.372 . S
C1083 C1084 1.400 . S
C1083 C1088 1.490 . S
C1084 H1074 0.930 . S
C1084 C1083 1.400 . S
C1084 C1087 1.386 . S
H1085 C1101 0.930 . S
H1086 C1102 0.931 . S
C1087 H1075 0.929 . S
C1087 C1081 1.390 . S
C1087 C1084 1.386 . S
C1088 C1083 1.490 . S
C1088 C1090 1.395 . S
C1088 C1091 1.403 . S
H1089 C1095 0.930 . S
C1090 H1076 0.930 . S
C1090 C1088 1.395 . S
C1090 C1093 1.403 . S
C1091 C1088 1.403 . S
C1091 C1092 1.524 . S
C1091 C1095 1.400 . S
C1092 H1077 0.960 . S
C1092 H1078 0.960 . S
C1092 H1079 0.960 . S
C1092 C1091 1.524 . S
C1093 C1090 1.403 . S
C1093 C1094 1.392 . S
C1093 C1097 1.495 . S
C1094 C1093 1.392 . S
C1094 C1095 1.385 . S
C1094 C1096 1.478 . S
C1095 H1089 0.930 . S
C1095 C1091 1.400 . S
C1095 C1094 1.385 . S
C1096 C1094 1.478 . S
C1096 C1098 1.381 . S
C1096 C1102 1.383 . S
C1097 C1093 1.495 . S
C1097 H1103 0.959 . S
C1097 H1104 0.961 . S
C1097 H1105 0.960 . S
C1098 C1096 1.381 . S
C1098 C1099 1.394 . S
C1098 H1106 0.930 . S
C1099 C1098 1.394 . S
C1099 C1100 1.383 . S
C1099 H1107 0.929 1_655 S
C1100 C1099 1.383 . S
C1100 C1101 1.377 . S
C1101 H1085 0.930 . S
C1101 C1100 1.377 . S
C1101 C1102 1.379 . S
C1102 H1086 0.931 . S
C1102 C1096 1.383 . S
C1102 C1101 1.379 . S
H1103 C1097 0.959 . S
H1104 C1097 0.961 . S
H1105 C1097 0.960 . S
H1106 C1098 0.930 . S
H1107 C1099 0.929 1_455 S
H1108 C1116 0.929 . S
H1109 C1118 0.930 . S
H1110 C1120 0.930 . S
H1111 C1123 0.929 . S
H1112 C1126 0.930 . S
H1113 C1128 0.960 . S
H1114 C1128 0.960 . S
H1115 C1128 0.960 . S
C1116 H1108 0.929 . S
C1116 C1117 1.386 . S
C1116 C1118 1.384 . S
C1117 C1116 1.386 . S
C1117 C1123 1.377 1_565 S
C1118 H1109 0.930 . S
C1118 C1116 1.384 . S
C1118 C1119 1.372 1_565 S
C1119 C1118 1.372 1_545 S
C1119 C1120 1.400 . S
C1119 C1124 1.490 . S
C1120 H1110 0.930 . S
C1120 C1119 1.400 . S
C1120 C1123 1.386 . S
H1121 C1137 0.930 . S
H1122 C1138 0.931 . S
C1123 H1111 0.929 . S
C1123 C1117 1.377 1_545 S
C1123 C1120 1.386 . S
C1124 C1119 1.490 . S
C1124 C1126 1.395 1_545 S
C1124 C1127 1.403 . S
H1125 C1131 0.930 . S
C1126 H1112 0.930 . S
C1126 C1124 1.395 1_565 S
C1126 C1129 1.403 . S
C1127 C1124 1.403 . S
C1127 C1128 1.524 . S
C1127 C1131 1.400 . S
C1128 H1113 0.960 . S
C1128 H1114 0.960 . S
C1128 H1115 0.960 . S
C1128 C1127 1.524 . S
C1129 C1126 1.403 . S
C1129 C1130 1.392 1_565 S
C1129 C1133 1.495 . S
C1130 C1129 1.392 1_545 S
C1130 C1131 1.385 . S
C1130 C1132 1.478 . S
C1131 H1125 0.930 . S
C1131 C1127 1.400 . S
C1131 C1130 1.385 . S
C1132 C1130 1.478 . S
C1132 C1134 1.381 1_545 S
C1132 C1138 1.383 . S
C1133 C1129 1.495 . S
C1133 H1139 0.959 . S
C1133 H1140 0.961 . S
C1133 H1141 0.960 . S
C1134 C1132 1.381 1_565 S
C1134 C1135 1.390 1_565 S
C1134 H1142 0.930 . S
C1135 C1134 1.390 1_545 S
C1135 C1136 1.394 . S
C1135 H1143 0.923 1_545 S
C1136 C1135 1.394 . S
C1136 C1137 1.377 . S
C1137 H1121 0.930 . S
C1137 C1136 1.377 . S
C1137 C1138 1.379 . S
C1138 H1122 0.931 . S
C1138 C1132 1.383 . S
C1138 C1137 1.379 . S
H1139 C1133 0.959 . S
H1140 C1133 0.961 . S
H1141 C1133 0.960 . S
H1142 C1134 0.930 . S
H1143 C1135 0.923 1_565 S
H1144 C1152 0.929 . S
H1145 C1154 0.930 . S
H1146 C1156 0.930 . S
H1147 C1159 0.929 . S
H1148 C1162 0.930 . S
H1149 C1164 0.960 . S
H1150 C1164 0.960 . S
H1151 C1164 0.960 . S
C1152 H1144 0.929 . S
C1152 C1153 1.377 . S
C1152 C1154 1.384 . S
C1153 C1152 1.377 . S
C1153 C1159 1.390 . S
C1154 H1145 0.930 . S
C1154 C1152 1.384 . S
C1154 C1155 1.372 . S
C1155 C1154 1.372 . S
C1155 C1156 1.400 . S
C1155 C1160 1.490 . S
C1156 H1146 0.930 . S
C1156 C1155 1.400 . S
C1156 C1159 1.386 . S
H1157 C1173 0.930 . S
H1158 C1174 0.931 . S
C1159 H1147 0.929 . S
C1159 C1153 1.390 . S
C1159 C1156 1.386 . S
C1160 C1155 1.490 . S
C1160 C1162 1.395 . S
C1160 C1163 1.403 . S
H1161 C1167 0.930 . S
C1162 H1148 0.930 . S
C1162 C1160 1.395 . S
C1162 C1165 1.403 1_554 S
C1163 C1160 1.403 . S
C1163 C1164 1.524 . S
C1163 C1167 1.400 . S
C1164 H1149 0.960 . S
C1164 H1150 0.960 . S
C1164 H1151 0.960 . S
C1164 C1163 1.524 . S
C1165 C1162 1.403 1_556 S
C1165 C1166 1.392 1_556 S
C1165 C1169 1.495 . S
C1166 C1165 1.392 1_554 S
C1166 C1167 1.385 . S
C1166 C1168 1.478 1_554 S
C1167 H1161 0.930 . S
C1167 C1163 1.400 . S
C1167 C1166 1.385 . S
C1168 C1166 1.478 1_556 S
C1168 C1170 1.381 . S
C1168 C1174 1.383 . S
C1169 C1165 1.495 . S
C1169 H1175 0.959 . S
C1169 H1176 0.961 . S
C1169 H1177 0.960 . S
C1170 C1168 1.381 . S
C1170 C1171 1.394 . S
C1170 H1178 0.930 1_556 S
C1171 C1170 1.394 . S
C1171 C1172 1.383 . S
C1171 H1179 0.929 . S
C1172 C1171 1.383 . S
C1172 C1173 1.377 . S
C1173 H1157 0.930 . S
C1173 C1172 1.377 . S
C1173 C1174 1.379 . S
C1174 H1158 0.931 . S
C1174 C1168 1.383 . S
C1174 C1173 1.379 . S
H1175 C1169 0.959 . S
H1176 C1169 0.961 . S
H1177 C1169 0.960 . S
H1178 C1170 0.930 1_554 S
H1179 C1171 0.929 . S
H1180 C1188 0.929 . S
H1181 C1190 0.930 . S
H1182 C1192 0.930 . S
H1183 C1195 0.929 . S
H1184 C1198 0.930 . S
H1185 C1200 0.960 . S
H1186 C1200 0.960 . S
H1187 C1200 0.960 . S
C1188 H1180 0.929 . S
C1188 C1189 1.377 . S
C1188 C1190 1.384 . S
C1189 C1188 1.377 . S
C1189 C1195 1.390 . S
C1190 H1181 0.930 . S
C1190 C1188 1.384 . S
C1190 C1191 1.372 . S
C1191 C1190 1.372 . S
C1191 C1192 1.400 . S
C1191 C1196 1.490 . S
C1192 H1182 0.930 . S
C1192 C1191 1.400 . S
C1192 C1195 1.386 . S
H1193 C1209 0.930 . S
H1194 C1210 0.931 . S
C1195 H1183 0.929 . S
C1195 C1189 1.390 . S
C1195 C1192 1.386 . S
C1196 C1191 1.490 . S
C1196 C1198 1.395 . S
C1196 C1199 1.403 . S
H1197 C1203 0.930 . S
C1198 H1184 0.930 . S
C1198 C1196 1.395 . S
C1198 C1201 1.403 . S
C1199 C1196 1.403 . S
C1199 C1200 1.524 . S
C1199 C1203 1.400 . S
C1200 H1185 0.960 . S
C1200 H1186 0.960 . S
C1200 H1187 0.960 . S
C1200 C1199 1.524 . S
C1201 C1198 1.403 . S
C1201 C1202 1.392 . S
C1201 C1205 1.495 . S
C1202 C1201 1.392 . S
C1202 C1203 1.385 . S
C1202 C1204 1.478 . S
C1203 H1197 0.930 . S
C1203 C1199 1.400 . S
C1203 C1202 1.385 . S
C1204 C1202 1.478 . S
C1204 C1206 1.381 . S
C1204 C1210 1.383 . S
C1205 C1201 1.495 . S
C1205 H1211 0.959 . S
C1205 H1212 0.961 . S
C1205 H1213 0.960 . S
C1206 C1204 1.381 . S
C1206 C1207 1.394 . S
C1206 H1214 0.930 . S
C1207 C1206 1.394 . S
C1207 C1208 1.383 . S
C1207 H1215 0.929 . S
C1208 C1207 1.383 . S
C1208 C1209 1.377 . S
C1209 H1193 0.930 . S
C1209 C1208 1.377 . S
C1209 C1210 1.379 . S
C1210 H1194 0.931 . S
C1210 C1204 1.383 . S
C1210 C1209 1.379 . S
H1211 C1205 0.959 . S
H1212 C1205 0.961 . S
H1213 C1205 0.960 . S
H1214 C1206 0.930 . S
H1215 C1207 0.929 . S
H1216 C1224 0.929 . S
H1217 C1226 0.930 . S
H1218 C1228 0.930 . S
H1219 C1231 0.929 . S
H1220 C1234 0.930 . S
H1221 C1236 0.960 . S
H1222 C1236 0.960 . S
H1223 C1236 0.960 . S
C1224 H1216 0.929 . S
C1224 C1225 1.377 . S
C1224 C1226 1.384 . S
C1225 C1224 1.377 . S
C1225 C1231 1.390 . S
C1226 H1217 0.930 . S
C1226 C1224 1.384 . S
C1226 C1227 1.372 . S
C1227 C1226 1.372 . S
C1227 C1228 1.400 . S
C1227 C1232 1.490 . S
C1228 H1218 0.930 . S
C1228 C1227 1.400 . S
C1228 C1231 1.386 . S
H1229 C1245 0.930 . S
H1230 C1246 0.931 . S
C1231 H1219 0.929 . S
C1231 C1225 1.390 . S
C1231 C1228 1.386 . S
C1232 C1227 1.490 . S
C1232 C1234 1.395 . S
C1232 C1235 1.403 . S
H1233 C1239 0.930 . S
C1234 H1220 0.930 . S
C1234 C1232 1.395 . S
C1234 C1237 1.403 . S
C1235 C1232 1.403 . S
C1235 C1236 1.524 . S
C1235 C1239 1.400 . S
C1236 H1221 0.960 . S
C1236 H1222 0.960 . S
C1236 H1223 0.960 . S
C1236 C1235 1.524 . S
C1237 C1234 1.403 . S
C1237 C1238 1.392 . S
C1237 C1241 1.495 . S
C1238 C1237 1.392 . S
C1238 C1239 1.385 . S
C1238 C1240 1.478 . S
C1239 H1233 0.930 . S
C1239 C1235 1.400 . S
C1239 C1238 1.385 . S
C1240 C1238 1.478 . S
C1240 C1242 1.381 . S
C1240 C1246 1.383 . S
C1241 C1237 1.495 . S
C1241 H1247 0.959 . S
C1241 H1248 0.961 . S
C1241 H1249 0.960 . S
C1242 C1240 1.381 . S
C1242 C1243 1.394 . S
C1242 H1250 0.930 . S
C1243 C1242 1.394 . S
C1243 C1244 1.383 . S
C1243 H1251 0.929 . S
C1244 C1243 1.383 . S
C1244 C1245 1.377 . S
C1245 H1229 0.930 . S
C1245 C1244 1.377 . S
C1245 C1246 1.379 . S
C1246 H1230 0.931 . S
C1246 C1240 1.383 . S
C1246 C1245 1.379 . S
H1247 C1241 0.959 . S
H1248 C1241 0.961 . S
H1249 C1241 0.960 . S
H1250 C1242 0.930 . S
H1251 C1243 0.929 . S
H1252 C1260 0.929 . S
H1253 C1262 0.930 . S
H1254 C1264 0.930 . S
H1255 C1267 0.929 . S
H1256 C1270 0.930 . S
H1257 C1272 0.960 . S
H1258 C1272 0.960 1_565 S
H1259 C1272 0.960 . S
C1260 H1252 0.929 . S
C1260 C1261 1.377 1_565 S
C1260 C1262 1.384 . S
C1261 C1260 1.377 1_545 S
C1261 C1267 1.390 . S
C1262 H1253 0.930 . S
C1262 C1260 1.384 . S
C1262 C1263 1.372 1_565 S
C1263 C1262 1.372 1_545 S
C1263 C1264 1.400 . S
C1263 C1268 1.490 . S
C1264 H1254 0.930 . S
C1264 C1263 1.400 . S
C1264 C1267 1.386 . S
H1265 C1281 0.930 . S
H1266 C1282 0.931 . S
C1267 H1255 0.929 . S
C1267 C1261 1.390 . S
C1267 C1264 1.386 . S
C1268 C1263 1.490 . S
C1268 C1270 1.395 . S
C1268 C1271 1.403 . S
H1269 C1275 0.930 . S
C1270 H1256 0.930 . S
C1270 C1268 1.395 . S
C1270 C1273 1.403 . S
C1271 C1268 1.403 . S
C1271 C1272 1.524 . S
C1271 C1275 1.400 . S
C1272 H1257 0.960 . S
C1272 H1258 0.960 1_545 S
C1272 H1259 0.960 . S
C1272 C1271 1.524 . S
C1273 C1270 1.403 . S
C1273 C1274 1.392 . S
C1273 C1277 1.495 . S
C1274 C1273 1.392 . S
C1274 C1275 1.385 . S
C1274 C1276 1.478 . S
C1275 H1269 0.930 . S
C1275 C1271 1.400 . S
C1275 C1274 1.385 . S
C1276 C1274 1.478 . S
C1276 C1278 1.421 . S
C1276 C1282 1.383 . S
C1277 C1273 1.495 . S
C1277 H1283 0.959 . S
C1277 H1284 0.961 . S
C1277 H1285 0.960 . S
C1278 C1276 1.421 . S
C1278 C1279 1.389 . S
C1278 H1286 0.897 1_545 S
C1279 C1278 1.389 . S
C1279 C1280 1.383 . S
C1279 H1287 0.929 1_545 S
C1280 C1279 1.383 . S
C1280 C1281 1.377 . S
C1281 H1265 0.930 . S
C1281 C1280 1.377 . S
C1281 C1282 1.379 . S
C1282 H1266 0.931 . S
C1282 C1276 1.383 . S
C1282 C1281 1.379 . S
H1283 C1277 0.959 . S
H1284 C1277 0.961 . S
H1285 C1277 0.960 . S
H1286 C1278 0.897 1_565 S
H1287 C1279 0.929 1_565 S
H1288 C1296 0.929 . S
H1289 C1298 0.930 . S
H1290 C1300 0.930 . S
H1291 C1303 0.929 . S
H1292 C1306 0.930 1_554 S
H1293 C1308 0.960 . S
H1294 C1308 0.960 . S
H1295 C1308 0.960 . S
C1296 H1288 0.929 . S
C1296 C1297 1.377 . S
C1296 C1298 1.384 . S
C1297 C1296 1.377 . S
C1297 C1303 1.390 1_554 S
C1298 H1289 0.930 . S
C1298 C1296 1.384 . S
C1298 C1299 1.372 1_554 S
C1299 C1298 1.372 1_556 S
C1299 C1300 1.400 . S
C1299 C1304 1.490 . S
C1300 H1290 0.930 . S
C1300 C1299 1.400 . S
C1300 C1303 1.386 . S
H1301 C1317 0.930 . S
H1302 C1318 0.931 . S
C1303 H1291 0.929 . S
C1303 C1297 1.390 1_556 S
C1303 C1300 1.386 . S
C1304 C1299 1.490 . S
C1304 C1306 1.395 . S
C1304 C1307 1.403 . S
H1305 C1311 0.930 . S
C1306 H1292 0.930 1_556 S
C1306 C1304 1.395 . S
C1306 C1309 1.403 . S
C1307 C1304 1.403 . S
C1307 C1308 1.524 . S
C1307 C1311 1.400 . S
C1308 H1293 0.960 . S
C1308 H1294 0.960 . S
C1308 H1295 0.960 . S
C1308 C1307 1.524 . S
C1309 C1306 1.403 . S
C1309 C1310 1.392 . S
C1309 C1313 1.504 . S
C1310 C1309 1.392 . S
C1310 C1311 1.385 . S
C1310 C1312 1.478 . S
C1311 H1305 0.930 . S
C1311 C1307 1.400 . S
C1311 C1310 1.385 . S
C1312 C1310 1.478 . S
C1312 C1314 1.381 . S
C1312 C1318 1.383 . S
C1313 C1309 1.504 . S
C1313 H1319 0.947 1_556 S
C1313 H1320 0.975 . S
C1313 H1321 0.949 1_556 S
C1314 C1312 1.381 . S
C1314 C1315 1.394 . S
C1314 H1322 0.930 . S
C1315 C1314 1.394 . S
C1315 C1316 1.383 . S
C1315 H1323 0.929 . S
C1316 C1315 1.383 . S
C1316 C1317 1.377 . S
C1317 H1301 0.930 . S
C1317 C1316 1.377 . S
C1317 C1318 1.379 . S
C1318 H1302 0.931 . S
C1318 C1312 1.383 . S
C1318 C1317 1.379 . S
H1319 C1313 0.947 1_554 S
H1320 C1313 0.975 . S
H1321 C1313 0.949 1_554 S
H1322 C1314 0.930 . S
H1323 C1315 0.929 . S
H1324 C1332 0.929 . S
H1325 C1334 0.930 . S
H1326 C1336 0.930 . S
H1327 C1339 0.929 . S
H1328 C1342 0.930 . S
H1329 C1344 0.960 . S
H1330 C1344 0.960 . S
H1331 C1344 0.960 . S
C1332 H1324 0.929 . S
C1332 C1333 1.377 . S
C1332 C1334 1.384 . S
C1333 C1332 1.377 . S
C1333 C1339 1.390 . S
C1334 H1325 0.930 . S
C1334 C1332 1.384 . S
C1334 C1335 1.372 . S
C1335 C1334 1.372 . S
C1335 C1336 1.400 . S
C1335 C1340 1.490 . S
C1336 H1326 0.930 . S
C1336 C1335 1.400 . S
C1336 C1339 1.386 . S
H1337 C1353 0.930 . S
H1338 C1354 0.931 . S
C1339 H1327 0.929 . S
C1339 C1333 1.390 . S
C1339 C1336 1.386 . S
C1340 C1335 1.490 . S
C1340 C1342 1.395 . S
C1340 C1343 1.403 . S
H1341 C1347 0.930 . S
C1342 H1328 0.930 . S
C1342 C1340 1.395 . S
C1342 C1345 1.403 . S
C1343 C1340 1.403 . S
C1343 C1344 1.524 . S
C1343 C1347 1.400 . S
C1344 H1329 0.960 . S
C1344 H1330 0.960 . S
C1344 H1331 0.960 . S
C1344 C1343 1.524 . S
C1345 C1342 1.403 . S
C1345 C1346 1.392 . S
C1345 C1349 1.495 . S
C1346 C1345 1.392 . S
C1346 C1347 1.385 . S
C1346 C1348 1.478 . S
C1347 H1341 0.930 . S
C1347 C1343 1.400 . S
C1347 C1346 1.385 . S
C1348 C1346 1.478 . S
C1348 C1350 1.381 . S
C1348 C1354 1.383 . S
C1349 C1345 1.495 . S
C1349 H1355 0.959 . S
C1349 H1356 0.961 . S
C1349 H1357 0.960 . S
C1350 C1348 1.381 . S
C1350 C1351 1.394 . S
C1350 H1358 0.930 . S
C1351 C1350 1.394 . S
C1351 C1352 1.383 . S
C1351 H1359 0.929 1_554 S
C1352 C1351 1.383 . S
C1352 C1353 1.377 . S
C1353 H1337 0.930 . S
C1353 C1352 1.377 . S
C1353 C1354 1.379 . S
C1354 H1338 0.931 . S
C1354 C1348 1.383 . S
C1354 C1353 1.379 . S
H1355 C1349 0.959 . S
H1356 C1349 0.961 . S
H1357 C1349 0.960 . S
H1358 C1350 0.930 . S
H1359 C1351 0.929 1_556 S
H1360 C1368 0.929 . S
H1361 C1370 0.930 . S
H1362 C1372 0.930 . S
H1363 C1375 0.929 . S
H1364 C1378 0.930 . S
H1365 C1380 0.960 . S
H1366 C1380 0.960 . S
H1367 C1380 0.960 . S
C1368 H1360 0.929 . S
C1368 C1369 1.377 . S
C1368 C1370 1.384 . S
C1369 C1368 1.377 . S
C1369 C1375 1.390 . S
C1370 H1361 0.930 . S
C1370 C1368 1.384 . S
C1370 C1371 1.372 . S
C1371 C1370 1.372 . S
C1371 C1372 1.400 . S
C1371 C1376 1.490 . S
C1372 H1362 0.930 . S
C1372 C1371 1.400 . S
C1372 C1375 1.386 . S
H1373 C1389 0.930 . S
H1374 C1390 0.931 . S
C1375 H1363 0.929 . S
C1375 C1369 1.390 . S
C1375 C1372 1.386 . S
C1376 C1371 1.490 . S
C1376 C1378 1.395 . S
C1376 C1379 1.403 . S
H1377 C1383 0.930 . S
C1378 H1364 0.930 . S
C1378 C1376 1.395 . S
C1378 C1381 1.403 . S
C1379 C1376 1.403 . S
C1379 C1380 1.524 . S
C1379 C1383 1.400 . S
C1380 H1365 0.960 . S
C1380 H1366 0.960 . S
C1380 H1367 0.960 . S
C1380 C1379 1.524 . S
C1381 C1378 1.403 . S
C1381 C1382 1.392 . S
C1381 C1385 1.495 . S
C1382 C1381 1.392 . S
C1382 C1383 1.385 . S
C1382 C1384 1.478 . S
C1383 H1377 0.930 . S
C1383 C1379 1.400 . S
C1383 C1382 1.385 . S
C1384 C1382 1.478 . S
C1384 C1386 1.381 . S
C1384 C1390 1.383 . S
C1385 C1381 1.495 . S
C1385 H1391 0.959 . S
C1385 H1392 0.961 . S
C1385 H1393 0.960 . S
C1386 C1384 1.381 . S
C1386 C1387 1.394 . S
C1386 H1394 0.930 . S
C1387 C1386 1.394 . S
C1387 C1388 1.383 . S
C1387 H1395 0.929 . S
C1388 C1387 1.383 . S
C1388 C1389 1.377 . S
C1389 H1373 0.930 . S
C1389 C1388 1.377 . S
C1389 C1390 1.379 . S
C1390 H1374 0.931 . S
C1390 C1384 1.383 . S
C1390 C1389 1.379 . S
H1391 C1385 0.959 . S
H1392 C1385 0.961 . S
H1393 C1385 0.960 . S
H1394 C1386 0.930 . S
H1395 C1387 0.929 . S
H1396 C1404 0.929 . S
H1397 C1406 0.930 . S
H1398 C1408 0.930 . S
H1399 C1411 0.929 . S
H1400 C1414 0.930 . S
H1401 C1416 0.935 1_545 S
H1402 C1416 1.005 . S
H1403 C1416 0.923 1_545 S
C1404 H1396 0.929 . S
C1404 C1405 1.377 . S
C1404 C1406 1.384 . S
C1405 C1404 1.377 . S
C1405 C1411 1.390 1_565 S
C1406 H1397 0.930 . S
C1406 C1404 1.384 . S
C1406 C1407 1.372 . S
C1407 C1406 1.372 . S
C1407 C1408 1.400 1_565 S
C1407 C1412 1.490 . S
C1408 H1398 0.930 . S
C1408 C1407 1.400 1_545 S
C1408 C1411 1.386 . S
H1409 C1425 0.904 1_545 S
H1410 C1426 0.931 . S
C1411 H1399 0.929 . S
C1411 C1405 1.390 1_545 S
C1411 C1408 1.386 . S
C1412 C1407 1.490 . S
C1412 C1414 1.395 . S
C1412 C1415 1.403 . S
H1413 C1419 0.930 . S
C1414 H1400 0.930 . S
C1414 C1412 1.395 . S
C1414 C1417 1.403 . S
C1415 C1412 1.403 . S
C1415 C1416 1.534 . S
C1415 C1419 1.400 . S
C1416 H1401 0.935 1_565 S
C1416 H1402 1.005 . S
C1416 H1403 0.923 1_565 S
C1416 C1415 1.534 . S
C1417 C1414 1.403 . S
C1417 C1418 1.392 . S
C1417 C1421 1.495 . S
C1418 C1417 1.392 . S
C1418 C1419 1.385 . S
C1418 C1420 1.478 . S
C1419 H1413 0.930 . S
C1419 C1415 1.400 . S
C1419 C1418 1.385 . S
C1420 C1418 1.478 . S
C1420 C1422 1.381 . S
C1420 C1426 1.383 1_565 S
C1421 C1417 1.495 . S
C1421 H1427 0.959 . S
C1421 H1428 0.961 . S
C1421 H1429 0.960 . S
C1422 C1420 1.381 . S
C1422 C1423 1.394 . S
C1422 H1430 0.930 . S
C1423 C1422 1.394 . S
C1423 C1424 1.383 . S
C1423 H1431 0.929 . S
C1424 C1423 1.383 . S
C1424 C1425 1.398 . S
C1425 H1409 0.904 1_565 S
C1425 C1424 1.398 . S
C1425 C1426 1.383 1_565 S
C1426 H1410 0.931 . S
C1426 C1420 1.383 1_545 S
C1426 C1425 1.383 1_545 S
H1427 C1421 0.959 . S
H1428 C1421 0.961 . S
H1429 C1421 0.960 . S
H1430 C1422 0.930 . S
H1431 C1423 0.929 . S
H1432 C1440 0.929 . S
H1433 C1442 0.930 . S
H1434 C1444 0.930 . S
H1435 C1447 0.929 . S
H1436 C1450 0.930 . S
H1437 C1452 0.960 . S
H1438 C1452 0.960 . S
H1439 C1452 0.960 . S
C1440 H1432 0.929 . S
C1440 C1441 1.377 . S
C1440 C1442 1.384 . S
C1441 C1440 1.377 . S
C1441 C1447 1.390 . S
C1442 H1433 0.930 . S
C1442 C1440 1.384 . S
C1442 C1443 1.372 . S
C1443 C1442 1.372 . S
C1443 C1444 1.400 . S
C1443 C1448 1.490 . S
C1444 H1434 0.930 . S
C1444 C1443 1.400 . S
C1444 C1447 1.386 . S
H1445 C1461 0.930 . S
H1446 C1462 0.931 . S
C1447 H1435 0.929 . S
C1447 C1441 1.390 . S
C1447 C1444 1.386 . S
C1448 C1443 1.490 . S
C1448 C1450 1.395 . S
C1448 C1451 1.403 . S
H1449 C1455 0.930 . S
C1450 H1436 0.930 . S
C1450 C1448 1.395 . S
C1450 C1453 1.403 . S
C1451 C1448 1.403 . S
C1451 C1452 1.524 . S
C1451 C1455 1.400 . S
C1452 H1437 0.960 . S
C1452 H1438 0.960 . S
C1452 H1439 0.960 . S
C1452 C1451 1.524 . S
C1453 C1450 1.403 . S
C1453 C1454 1.392 . S
C1453 C1457 1.495 . S
C1454 C1453 1.392 . S
C1454 C1455 1.385 . S
C1454 C1456 1.478 . S
C1455 H1449 0.930 . S
C1455 C1451 1.400 . S
C1455 C1454 1.385 . S
C1456 C1454 1.478 . S
C1456 C1458 1.381 . S
C1456 C1462 1.383 . S
C1457 C1453 1.495 . S
C1457 H1463 0.959 . S
C1457 H1464 0.961 . S
C1457 H1465 0.960 . S
C1458 C1456 1.381 . S
C1458 C1459 1.394 . S
C1458 H1466 0.930 . S
C1459 C1458 1.394 . S
C1459 C1460 1.383 . S
C1459 H1467 0.929 . S
C1460 C1459 1.383 . S
C1460 C1461 1.377 . S
C1461 H1445 0.930 . S
C1461 C1460 1.377 . S
C1461 C1462 1.379 . S
C1462 H1446 0.931 . S
C1462 C1456 1.383 . S
C1462 C1461 1.379 . S
H1463 C1457 0.959 . S
H1464 C1457 0.961 . S
H1465 C1457 0.960 . S
H1466 C1458 0.930 . S
H1467 C1459 0.929 . S
H1468 C1476 0.929 . S
H1469 C1478 0.930 . S
H1470 C1480 0.930 . S
H1471 C1483 0.929 . S
H1472 C1486 0.930 . S
H1473 C1488 0.960 . S
H1474 C1488 0.960 . S
H1475 C1488 0.960 . S
C1476 H1468 0.929 . S
C1476 C1477 1.377 . S
C1476 C1478 1.384 . S
C1477 C1476 1.377 . S
C1477 C1483 1.390 . S
C1478 H1469 0.930 . S
C1478 C1476 1.384 . S
C1478 C1479 1.372 . S
C1479 C1478 1.372 . S
C1479 C1480 1.400 . S
C1479 C1484 1.490 . S
C1480 H1470 0.930 . S
C1480 C1479 1.400 . S
C1480 C1483 1.386 . S
H1481 C1497 0.930 . S
H1482 C1498 0.931 . S
C1483 H1471 0.929 . S
C1483 C1477 1.390 . S
C1483 C1480 1.386 . S
C1484 C1479 1.490 . S
C1484 C1486 1.395 . S
C1484 C1487 1.403 . S
H1485 C1491 0.930 . S
C1486 H1472 0.930 . S
C1486 C1484 1.395 . S
C1486 C1489 1.403 . S
C1487 C1484 1.403 . S
C1487 C1488 1.524 . S
C1487 C1491 1.400 . S
C1488 H1473 0.960 . S
C1488 H1474 0.960 . S
C1488 H1475 0.960 . S
C1488 C1487 1.524 . S
C1489 C1486 1.403 . S
C1489 C1490 1.392 . S
C1489 C1493 1.495 . S
C1490 C1489 1.392 . S
C1490 C1491 1.385 . S
C1490 C1492 1.478 . S
C1491 H1485 0.930 . S
C1491 C1487 1.400 . S
C1491 C1490 1.385 . S
C1492 C1490 1.478 . S
C1492 C1494 1.381 . S
C1492 C1498 1.383 . S
C1493 C1489 1.495 . S
C1493 H1499 0.959 . S
C1493 H1500 0.961 . S
C1493 H1501 0.960 . S
C1494 C1492 1.381 . S
C1494 C1495 1.394 . S
C1494 H1502 0.930 . S
C1495 C1494 1.394 . S
C1495 C1496 1.383 . S
C1495 H1503 0.929 . S
C1496 C1495 1.383 . S
C1496 C1497 1.377 . S
C1497 H1481 0.930 . S
C1497 C1496 1.377 . S
C1497 C1498 1.379 . S
C1498 H1482 0.931 . S
C1498 C1492 1.383 . S
C1498 C1497 1.379 . S
H1499 C1493 0.959 . S
H1500 C1493 0.961 . S
H1501 C1493 0.960 . S
H1502 C1494 0.930 . S
H1503 C1495 0.929 . S
C649 C391 0.795 1_565 S
C668 C489 0.842 . S
C704 C529 1.727 . S
C685 C451 1.883 . S
C740 C578 1.657 . S
C721 C241 1.652 . S
C776 C609 2.089 . S
C757 C331 2.017 . S
C812 C498 0.780 . S
C793 C121 0.800 1_545 S
C829 C211 1.816 . S
C848 C538 1.786 . S
C865 C31 1.676 1_556 S
C884 C569 1.611 . S
C901 C91 2.121 1_556 S
C920 C618 2.130 1_655 S
C956 C499 1.060 . S
C937 C301 0.882 . S
C992 C539 0.435 . S
C973 C380 0.487 . S
C1028 C575 0.455 . S
C1009 C440 0.403 . S
C1045 C260 1.058 . S
C1064 C619 1.221 . S
C1081 C61 0.939 . S
C1100 C490 1.083 1_655 S
C1136 C530 0.391 . S
C1117 C140 0.689 . S
C1172 C566 0.458 . S
C1153 C200 0.491 . S
C1189 C20 1.188 . S
C1208 C610 1.220 . S
C1225 C320 2.135 . S
C1244 C495 2.216 1_554 S
C1261 C361 1.578 . S
C1280 C535 1.727 1_554 S
C1316 C579 2.760 . S
C1297 C421 2.373 . S
C1352 C615 1.792 1_554 S
C1333 C271 1.781 . S
C1369 C80 2.201 . S
C1388 C486 2.222 . S
C1424 C526 1.727 . S
C1405 C151 1.712 . S
C1460 C570 2.752 . S
C1441 C181 2.288 . S
C1477 C1 1.655 . S
C1496 C606 1.777 . S
