# Generated by pormake.
# Topology cml, (3,6)-cn, num edge types: 1
# Building blocks:
#     Node 0, Type 0, BuildingBlock: CUQRIR_clean_linker_1, # of connection points: 3
#     Node 1, Type 0, BuildingBlock: CUQRIR_clean_linker_1, # of connection points: 3
#     Node 2, Type 0, BuildingBlock: CUQRIR_clean_linker_1, # of connection points: 3
#     Node 3, Type 0, BuildingBlock: CUQRIR_clean_linker_1, # of connection points: 3
#     Node 4, Type 0, BuildingBlock: CUQRIR_clean_linker_1, # of connection points: 3
#     Node 5, Type 0, BuildingBlock: CUQRIR_clean_linker_1, # of connection points: 3
#     Node 6, Type 0, BuildingBlock: CUQRIR_clean_linker_1, # of connection points: 3
#     Node 7, Type 0, BuildingBlock: CUQRIR_clean_linker_1, # of connection points: 3
#     Node 8, Type 1, BuildingBlock: OJICUG_clean_sbu_0, # of connection points: 6
#     Node 9, Type 1, BuildingBlock: OJICUG_clean_sbu_0, # of connection points: 6
#     Node 10, Type 1, BuildingBlock: OJICUG_clean_sbu_0, # of connection points: 6
#     Node 11, Type 1, BuildingBlock: OJICUG_clean_sbu_0, # of connection points: 6
#     Edge 12, Type (0, 1), BuildingBlock: EZIPEK_clean_linker_0, # of connection points: 2
#     Edge 13, Type (0, 1), BuildingBlock: EZIPEK_clean_linker_0, # of connection points: 2
#     Edge 14, Type (0, 1), BuildingBlock: EZIPEK_clean_linker_0, # of connection points: 2
#     Edge 15, Type (0, 1), BuildingBlock: EZIPEK_clean_linker_0, # of connection points: 2
#     Edge 16, Type (0, 1), BuildingBlock: EZIPEK_clean_linker_0, # of connection points: 2
#     Edge 17, Type (0, 1), BuildingBlock: EZIPEK_clean_linker_0, # of connection points: 2
#     Edge 18, Type (0, 1), BuildingBlock: EZIPEK_clean_linker_0, # of connection points: 2
#     Edge 19, Type (0, 1), BuildingBlock: EZIPEK_clean_linker_0, # of connection points: 2
#     Edge 20, Type (0, 1), BuildingBlock: EZIPEK_clean_linker_0, # of connection points: 2
#     Edge 21, Type (0, 1), BuildingBlock: EZIPEK_clean_linker_0, # of connection points: 2
#     Edge 22, Type (0, 1), BuildingBlock: EZIPEK_clean_linker_0, # of connection points: 2
#     Edge 23, Type (0, 1), BuildingBlock: EZIPEK_clean_linker_0, # of connection points: 2
#     Edge 24, Type (0, 1), BuildingBlock: EZIPEK_clean_linker_0, # of connection points: 2
#     Edge 25, Type (0, 1), BuildingBlock: EZIPEK_clean_linker_0, # of connection points: 2
#     Edge 26, Type (0, 1), BuildingBlock: EZIPEK_clean_linker_0, # of connection points: 2
#     Edge 27, Type (0, 1), BuildingBlock: EZIPEK_clean_linker_0, # of connection points: 2
#     Edge 28, Type (0, 1), BuildingBlock: EZIPEK_clean_linker_0, # of connection points: 2
#     Edge 29, Type (0, 1), BuildingBlock: EZIPEK_clean_linker_0, # of connection points: 2
#     Edge 30, Type (0, 1), BuildingBlock: EZIPEK_clean_linker_0, # of connection points: 2
#     Edge 31, Type (0, 1), BuildingBlock: EZIPEK_clean_linker_0, # of connection points: 2
#     Edge 32, Type (0, 1), BuildingBlock: EZIPEK_clean_linker_0, # of connection points: 2
#     Edge 33, Type (0, 1), BuildingBlock: EZIPEK_clean_linker_0, # of connection points: 2
#     Edge 34, Type (0, 1), BuildingBlock: EZIPEK_clean_linker_0, # of connection points: 2
#     Edge 35, Type (0, 1), BuildingBlock: EZIPEK_clean_linker_0, # of connection points: 2
# Relax obj value: 0.002
# Max RMSD: 0.055
# Mean RMSD: 0.044
data_MOF--net-cml--node1-OJICUG_clean_sbu_0--node2-CUQRIR_clean_linker_1--edge1-EZIPEK_clean_linker_0
_symmetry_space_group_name_H-M    P1
_symmetry_Int_Tables_number       1
_symmetry_cell_setting            triclinic
loop_
_symmetry_equiv_pos_as_xyz
'x, y, z'
_cell_length_a     27.359029
_cell_length_b     26.681794
_cell_length_c     22.911271
_cell_angle_alpha  89.997313
_cell_angle_beta   89.995886
_cell_angle_gamma 90.004123
loop_
_atom_site_label
_atom_site_type_symbol
_atom_site_fract_x
_atom_site_fract_y
_atom_site_fract_z
_atom_type_partial_charge
C0 C 0.23371 0.34874 0.04347 0.0
N1 N 0.27487 0.37704 0.04558 0.0
N2 N 0.21619 0.3465 0.9884 0.0
C3 C 0.21054 0.3226 0.09458 0.0
C4 C 0.24702 0.37539 0.95704 0.0
N5 N 0.28225 0.39466 0.99184 0.0
C6 C 0.24345 0.38346 0.89226 0.0
H7 H 0.21827 0.28185 0.09185 0.0
H8 H 0.17026 0.32729 0.09273 0.0
H9 H 0.22444 0.33743 0.13665 0.0
H10 H 0.21818 0.41515 0.88381 0.0
H11 H 0.2284 0.34974 0.87036 0.0
H12 H 0.27966 0.39272 0.87331 0.0
C13 C 0.75882 0.64984 0.54352 0.0
N14 N 0.71766 0.62153 0.54564 0.0
N15 N 0.77644 0.65194 0.48848 0.0
C16 C 0.78189 0.67611 0.59459 0.0
C17 C 0.74566 0.62297 0.45716 0.0
N18 N 0.71038 0.60378 0.49194 0.0
C19 C 0.74931 0.61476 0.39241 0.0
H20 H 0.77416 0.71686 0.59168 0.0
H21 H 0.82217 0.67143 0.59286 0.0
H22 H 0.76791 0.6614 0.63669 0.0
H23 H 0.77427 0.58277 0.38411 0.0
H24 H 0.76473 0.64828 0.37045 0.0
H25 H 0.71305 0.60582 0.37338 0.0
C26 C 0.74721 0.33266 0.04938 0.0
N27 N 0.71289 0.36917 0.04921 0.0
N28 N 0.7777 0.33812 0.00345 0.0
C29 C 0.75008 0.29079 0.09308 0.0
C30 C 0.76097 0.37916 0.97533 0.0
N31 N 0.72053 0.39745 0.0021 0.0
C32 C 0.78416 0.40058 0.92133 0.0
H33 H 0.77533 0.30198 0.12865 0.0
H34 H 0.76474 0.25624 0.0726 0.0
H35 H 0.71366 0.28295 0.11236 0.0
H36 H 0.7757 0.3761 0.88351 0.0
H37 H 0.82449 0.40105 0.92647 0.0
H38 H 0.77096 0.43913 0.91237 0.0
C39 C 0.24547 0.66653 0.54908 0.0
N40 N 0.27972 0.62994 0.54896 0.0
N41 N 0.21492 0.66104 0.50322 0.0
C42 C 0.24268 0.70847 0.5927 0.0
C43 C 0.23156 0.61992 0.47518 0.0
N44 N 0.27199 0.60161 0.50193 0.0
C45 C 0.20828 0.59844 0.42127 0.0
H46 H 0.21706 0.69756 0.62802 0.0
H47 H 0.22847 0.74312 0.57199 0.0
H48 H 0.27902 0.71601 0.61233 0.0
H49 H 0.21677 0.62282 0.38337 0.0
H50 H 0.16794 0.59807 0.42647 0.0
H51 H 0.22139 0.55984 0.41241 0.0
C52 C 0.7519 0.83068 0.02516 0.0
N53 N 0.79615 0.85474 0.0223 0.0
N54 N 0.72604 0.8375 0.9757 0.0
C55 C 0.7277 0.8101 0.07929 0.0
C56 C 0.75271 0.86983 0.94428 0.0
N57 N 0.79471 0.88129 0.97249 0.0
C58 C 0.73696 0.89071 0.88611 0.0
H59 H 0.73012 0.76863 0.07966 0.0
H60 H 0.68812 0.81927 0.07867 0.0
H61 H 0.7433 0.82615 0.1198 0.0
H62 H 0.74837 0.9304 0.88138 0.0
H63 H 0.69675 0.88823 0.88068 0.0
H64 H 0.7543 0.8686 0.85073 0.0
C65 C 0.24022 0.16825 0.52504 0.0
N66 N 0.19599 0.14418 0.5222 0.0
N67 N 0.26609 0.16144 0.47558 0.0
C68 C 0.26443 0.18886 0.57916 0.0
C69 C 0.23943 0.12911 0.44417 0.0
N70 N 0.19743 0.11763 0.47239 0.0
C71 C 0.25519 0.10822 0.38601 0.0
H72 H 0.26196 0.23033 0.57953 0.0
H73 H 0.30401 0.17972 0.57853 0.0
H74 H 0.24884 0.17279 0.61968 0.0
H75 H 0.29539 0.11072 0.38055 0.0
H76 H 0.23782 0.1303 0.35062 0.0
H77 H 0.2438 0.06852 0.3813 0.0
C78 C 0.23738 0.82117 0.02749 0.0
N79 N 0.20263 0.85716 0.02955 0.0
N80 N 0.26838 0.8297 0.98285 0.0
C81 C 0.24122 0.77768 0.06892 0.0
C82 C 0.25132 0.87188 0.95736 0.0
N83 N 0.21031 0.88815 0.98477 0.0
C84 C 0.275 0.89667 0.9057 0.0
H85 H 0.26758 0.78733 0.10395 0.0
H86 H 0.25515 0.74396 0.04598 0.0
H87 H 0.20533 0.76911 0.08917 0.0
H88 H 0.26648 0.8749 0.86573 0.0
H89 H 0.31532 0.8965 0.91112 0.0
H90 H 0.26206 0.93578 0.9002 0.0
C91 C 0.75484 0.17755 0.52761 0.0
N92 N 0.7896 0.14157 0.52966 0.0
N93 N 0.72385 0.169 0.48297 0.0
C94 C 0.75099 0.22104 0.56903 0.0
C95 C 0.74092 0.12683 0.45748 0.0
N96 N 0.78194 0.11057 0.48489 0.0
C97 C 0.71725 0.10204 0.40583 0.0
H98 H 0.72464 0.21138 0.60408 0.0
H99 H 0.73703 0.25475 0.54608 0.0
H100 H 0.78688 0.22963 0.58925 0.0
H101 H 0.72578 0.12381 0.36585 0.0
H102 H 0.67694 0.1022 0.41124 0.0
H103 H 0.73021 0.06292 0.40033 0.0
Sc104 Sc -0.00218 0.80696 0.29914 0.0
Sc105 Sc 0.99139 0.9369 0.29237 0.0
Sc106 Sc 0.99311 0.87795 0.42746 0.0
O107 O 0.99407 0.87353 0.33981 0.0
C108 C 0.92528 0.78267 0.40129 0.0
C109 C 0.92253 0.87024 0.21967 0.0
C110 C 0.92201 0.96534 0.39994 0.0
C111 C 0.06267 0.86887 0.21527 0.0
C112 C 0.06805 0.79048 0.40946 0.0
C113 C 0.06772 0.96481 0.38827 0.0
O114 O 0.93697 0.77847 0.34785 0.0
O115 O 0.9271 0.91171 0.24669 0.0
O116 O 0.92881 0.92417 0.42619 0.0
O117 O 0.05889 0.8301 0.24704 0.0
O118 O 0.0558 0.83028 0.43609 0.0
O119 O 0.05587 0.96253 0.33488 0.0
O120 O 0.04829 0.77575 0.36218 0.0
O121 O 0.03677 0.90789 0.2226 0.0
O122 O 0.04263 0.9426 0.42771 0.0
O123 O 0.94831 0.83164 0.23124 0.0
O124 O 0.94475 0.81411 0.43607 0.0
O125 O 0.94693 0.97738 0.35522 0.0
Sc126 Sc 0.99448 0.19186 0.79919 0.0
Sc127 Sc 0.00085 0.06192 0.79241 0.0
Sc128 Sc -0.00084 0.12086 0.92751 0.0
O129 O -0.00181 0.12528 0.83985 0.0
C130 C 0.06708 0.21606 0.90129 0.0
C131 C 0.06969 0.12857 0.71966 0.0
C132 C 0.07024 0.03343 0.89994 0.0
C133 C 0.92955 0.13 0.71538 0.0
C134 C 0.92431 0.20842 0.90957 0.0
C135 C 0.9245 0.03405 0.88834 0.0
O136 O 0.05538 0.22028 0.84785 0.0
O137 O 0.06513 0.0871 0.74667 0.0
O138 O 0.06342 0.07458 0.92623 0.0
O139 O 0.93336 0.16877 0.74714 0.0
O140 O 0.93652 0.1686 0.93619 0.0
O141 O 0.93638 0.03629 0.83496 0.0
O142 O 0.94407 0.22313 0.86227 0.0
O143 O 0.95545 0.09096 0.72268 0.0
O144 O 0.94957 0.05627 0.92778 0.0
O145 O 0.04392 0.16717 0.73125 0.0
O146 O 0.04759 0.18465 0.93608 0.0
O147 O 0.04532 0.02142 0.85521 0.0
Sc148 Sc 0.49684 0.31835 0.29727 0.0
Sc149 Sc 0.49135 0.44858 0.30712 0.0
Sc150 Sc 0.4896 0.37676 0.43378 0.0
O151 O 0.49328 0.38098 0.34617 0.0
C152 C 0.4232 0.28433 0.39452 0.0
C153 C 0.42124 0.3875 0.22661 0.0
C154 C 0.41738 0.46477 0.41345 0.0
C155 C 0.56503 0.38734 0.22472 0.0
C156 C 0.56645 0.29321 0.40581 0.0
C157 C 0.56075 0.47069 0.41087 0.0
O158 O 0.43524 0.28548 0.34102 0.0
O159 O 0.42791 0.42638 0.25775 0.0
O160 O 0.4245 0.42179 0.43541 0.0
O161 O 0.55844 0.34549 0.24965 0.0
O162 O 0.55309 0.32981 0.43751 0.0
O163 O 0.55337 0.47331 0.35616 0.0
O164 O 0.54708 0.28239 0.35688 0.0
O165 O 0.54012 0.42636 0.23651 0.0
O166 O 0.53705 0.44162 0.44486 0.0
O167 O 0.44776 0.3484 0.23159 0.0
O168 O 0.44241 0.31204 0.43332 0.0
O169 O 0.44377 0.48164 0.37219 0.0
Sc170 Sc 0.49552 0.68045 0.79724 0.0
Sc171 Sc 0.50105 0.55023 0.80706 0.0
Sc172 Sc 0.50271 0.62201 0.93373 0.0
O173 O 0.49908 0.61781 0.84612 0.0
C174 C 0.56908 0.71449 0.89452 0.0
C175 C 0.57116 0.61133 0.72658 0.0
C176 C 0.57498 0.53405 0.91343 0.0
C177 C 0.4274 0.61147 0.72462 0.0
C178 C 0.42584 0.70552 0.90575 0.0
C179 C 0.43165 0.52803 0.91077 0.0
O180 O 0.5571 0.71332 0.841 0.0
O181 O 0.56452 0.57246 0.75775 0.0
O182 O 0.56785 0.57704 0.93536 0.0
O183 O 0.43394 0.6533 0.7496 0.0
O184 O 0.43918 0.6689 0.93743 0.0
O185 O 0.43901 0.52546 0.85606 0.0
O186 O 0.44525 0.71638 0.85685 0.0
O187 O 0.45232 0.57245 0.73641 0.0
O188 O 0.45533 0.55709 0.94477 0.0
O189 O 0.54462 0.65042 0.73154 0.0
O190 O 0.54984 0.68678 0.93331 0.0
O191 O 0.5486 0.51716 0.87217 0.0
C192 C 0.13028 0.33179 0.96173 0.0
C193 C 0.17864 0.31383 0.96656 0.0
C194 C 0.15339 0.2309 0.93218 0.0
C195 C 0.10534 0.24962 0.92418 0.0
N196 N 0.04804 0.31842 0.92507 0.0
N197 N 0.2389 0.25013 0.94928 0.0
C198 C 0.09373 0.30034 0.93712 0.0
C199 C 0.19093 0.26432 0.94994 0.0
N200 N 0.11958 0.37873 0.98181 0.0
N201 N 0.16294 0.18117 0.92314 0.0
H202 H 0.26708 0.27407 0.96187 0.0
H203 H 0.25132 0.21633 0.93218 0.0
H204 H 0.13687 0.15602 0.90745 0.0
H205 H 0.19575 0.16398 0.93439 0.0
H206 H 0.0843 0.393 0.98516 0.0
H207 H 0.1463 0.40263 0.99864 0.0
H208 H 0.03843 0.35604 0.92819 0.0
H209 H 0.01999 0.29609 0.90852 0.0
C210 C 0.80148 0.73407 0.44965 0.0
C211 C 0.81392 0.68469 0.46661 0.0
C212 C 0.89888 0.69844 0.43752 0.0
C213 C 0.8871 0.74904 0.42422 0.0
N214 N 0.82923 0.81723 0.4225 0.0
N215 N 0.87321 0.62011 0.48252 0.0
C216 C 0.83894 0.76758 0.43187 0.0
C217 C 0.86238 0.66693 0.46213 0.0
N218 N 0.75346 0.74806 0.44873 0.0
N219 N 0.94469 0.68052 0.4258 0.0
H220 H 0.84652 0.59616 0.49934 0.0
H221 H 0.90853 0.60602 0.48614 0.0
H222 H 0.97269 0.70291 0.40922 0.0
H223 H 0.95447 0.64296 0.42921 0.0
H224 H 0.74096 0.78174 0.43137 0.0
H225 H 0.72533 0.72408 0.46139 0.0
H226 H 0.7963 0.83433 0.43346 0.0
H227 H 0.85526 0.84244 0.40684 0.0
C228 C 0.80041 0.26575 0.94252 0.0
C229 C 0.81404 0.30348 0.98279 0.0
C230 C 0.89891 0.27485 0.98029 0.0
C231 C 0.88607 0.24012 0.93584 0.0
N232 N 0.82629 0.20424 0.87083 0.0
N233 N 0.8749 0.34751 0.03767 0.0
C234 C 0.8372 0.23598 0.91587 0.0
C235 C 0.86298 0.30888 1.00123 0.0
N236 N 0.75202 0.25785 0.93113 0.0
N237 N 0.94521 0.27473 0.00282 0.0
H238 H 0.84869 0.37195 0.05459 0.0
H239 H 0.91059 0.35726 0.04847 0.0
H240 H 0.97263 0.25083 0.98783 0.0
H241 H 0.95582 0.29583 0.03884 0.0
H242 H 0.73885 0.22806 0.9064 0.0
H243 H 0.72443 0.27903 0.95052 0.0
H244 H 0.79255 0.20333 0.84988 0.0
H245 H 0.85209 0.18053 0.85182 0.0
C246 C 0.12968 0.69042 0.50144 0.0
C247 C 0.17854 0.69565 0.48261 0.0
C248 C 0.15514 0.76279 0.41534 0.0
C249 C 0.10637 0.75885 0.43569 0.0
N250 N 0.04751 0.72469 0.50336 0.0
N251 N 0.24038 0.74096 0.43025 0.0
C252 C 0.0937 0.72439 0.4805 0.0
C253 C 0.19203 0.73315 0.44198 0.0
N254 N 0.11789 0.652 0.53823 0.0
N255 N 0.16589 0.79426 0.36998 0.0
H256 H 0.26802 0.71991 0.44971 0.0
H257 H 0.25347 0.7706 0.40521 0.0
H258 H 0.14004 0.81791 0.35096 0.0
H259 H 0.19953 0.79498 0.34878 0.0
H260 H 0.08223 0.64236 0.54937 0.0
H261 H 0.14414 0.6276 0.55514 0.0
H262 H 0.03706 0.70382 0.53963 0.0
H263 H 0.02002 0.7485 0.48834 0.0
C264 C 0.69688 0.75922 0.93092 0.0
C265 C 0.68641 0.80697 0.95484 0.0
C266 C 0.59976 0.79687 0.93148 0.0
C267 C 0.60964 0.74729 0.91245 0.0
N268 N 0.66596 0.67879 0.89833 0.0
N269 N 0.6293 0.87048 0.98327 0.0
C270 C 0.65781 0.72773 0.91328 0.0
C271 C 0.63812 0.82562 0.95661 0.0
N272 N 0.74442 0.74485 0.92351 0.0
N273 N 0.55405 0.81661 0.92421 0.0
H274 H 0.65731 0.8923 1.00094 0.0
H275 H 0.59447 0.88455 0.99127 0.0
H276 H 0.52544 0.79652 0.90526 0.0
H277 H 0.54527 0.85385 0.93268 0.0
H278 H 0.75492 0.71293 0.90062 0.0
H279 H 0.77391 0.76694 0.93652 0.0
H280 H 0.69919 0.66057 0.90457 0.0
H281 H 0.63852 0.65513 0.88279 0.0
C282 C 0.35404 0.17327 0.45661 0.0
C283 C 0.30575 0.19193 0.45473 0.0
C284 C 0.33444 0.27112 0.41312 0.0
C285 C 0.3826 0.25156 0.41241 0.0
N286 N 0.43815 0.18223 0.42435 0.0
N287 N 0.2478 0.25405 0.42326 0.0
C288 C 0.39244 0.20199 0.43152 0.0
C289 C 0.29534 0.23967 0.43074 0.0
N290 N 0.3628 0.12842 0.48332 0.0
N291 N 0.32632 0.32006 0.39808 0.0
H292 H 0.2183 0.23199 0.43628 0.0
H293 H 0.23734 0.28596 0.40032 0.0
H294 H 0.35379 0.34369 0.38255 0.0
H295 H 0.29309 0.33829 0.40421 0.0
H296 H 0.39762 0.11434 0.49139 0.0
H297 H 0.33476 0.10662 0.50095 0.0
H298 H 0.44691 0.14499 0.43289 0.0
H299 H 0.46679 0.20229 0.40543 0.0
C300 C 0.29889 0.76096 0.92123 0.0
C301 C 0.30794 0.79834 0.96373 0.0
C302 C 0.3942 0.7746 0.96888 0.0
C303 C 0.38515 0.73696 0.9264 0.0
N304 N 0.33 0.69091 0.86433 0.0
N305 N 0.3607 0.83955 0.03194 0.0
C306 C 0.33774 0.7293 0.90292 0.0
C307 C 0.35474 0.80483 0.98865 0.0
N308 N 0.25284 0.75617 0.89884 0.0
N309 N 0.44073 0.7819 0.98908 0.0
H310 H 0.33241 0.86299 0.04561 0.0
H311 H 0.39254 0.84413 0.0561 0.0
H312 H 0.47003 0.75912 0.9771 0.0
H313 H 0.45121 0.81137 0.01598 0.0
H314 H 0.24348 0.73287 0.86426 0.0
H315 H 0.22332 0.77678 0.91459 0.0
H316 H 0.29601 0.6805 0.84814 0.0
H317 H 0.35794 0.66755 0.84954 0.0
C318 C 0.69338 0.23774 0.42134 0.0
C319 C 0.6843 0.20037 0.46383 0.0
C320 C 0.59805 0.22415 0.46897 0.0
C321 C 0.60712 0.26176 0.42647 0.0
N322 N 0.66227 0.30773 0.3643 0.0
N323 N 0.63151 0.15916 0.53201 0.0
C324 C 0.65453 0.2694 0.40297 0.0
C325 C 0.63749 0.19389 0.48874 0.0
N326 N 0.73946 0.24257 0.39902 0.0
N327 N 0.55152 0.21689 0.4892 0.0
H328 H 0.65979 0.1357 0.54568 0.0
H329 H 0.59966 0.15456 0.55615 0.0
H330 H 0.52224 0.23969 0.47721 0.0
H331 H 0.54103 0.18745 0.51615 0.0
H332 H 0.74887 0.26592 0.36451 0.0
H333 H 0.76896 0.22196 0.41481 0.0
H334 H 0.69625 0.31807 0.348 0.0
H335 H 0.63435 0.3311 0.3495 0.0
C336 C 0.30758 0.47861 0.95764 0.0
C337 C 0.32022 0.42898 0.97401 0.0
C338 C 0.40673 0.44713 0.95694 0.0
C339 C 0.39367 0.49532 0.93596 0.0
N340 N 0.33226 0.55652 0.91145 0.0
N341 N 0.37934 0.36274 0.97881 0.0
C342 C 0.34418 0.51102 0.93501 0.0
C343 C 0.36924 0.4124 0.97118 0.0
N344 N 0.26063 0.49486 0.96514 0.0
N345 N 0.45491 0.43473 0.96336 0.0
H346 H 0.35199 0.33634 0.98644 0.0
H347 H 0.41372 0.34703 0.97219 0.0
H348 H 0.48334 0.45901 0.95231 0.0
H349 H 0.46669 0.40206 0.98383 0.0
H350 H 0.24968 0.53191 0.95975 0.0
H351 H 0.23297 0.47185 0.98133 0.0
H352 H 0.29659 0.56795 0.903 0.0
H353 H 0.35845 0.58217 0.89721 0.0
C354 C 0.68488 0.51984 0.45791 0.0
C355 C 0.67234 0.56954 0.4741 0.0
C356 C 0.58582 0.5516 0.45685 0.0
C357 C 0.59878 0.50333 0.43607 0.0
N358 N 0.66006 0.44189 0.41191 0.0
N359 N 0.61341 0.63597 0.47851 0.0
C360 C 0.64822 0.48748 0.43529 0.0
C361 C 0.62338 0.58626 0.47108 0.0
N362 N 0.73177 0.50347 0.46555 0.0
N363 N 0.53766 0.56417 0.46312 0.0
H364 H 0.64082 0.6623 0.48611 0.0
H365 H 0.57909 0.65176 0.47174 0.0
H366 H 0.50918 0.53994 0.45209 0.0
H367 H 0.52594 0.59692 0.48345 0.0
H368 H 0.74264 0.46638 0.4603 0.0
H369 H 0.75948 0.52645 0.48169 0.0
H370 H 0.69571 0.43032 0.4036 0.0
H371 H 0.63382 0.4163 0.39765 0.0
C372 C 0.66649 0.4279 0.92226 0.0
C373 C 0.68667 0.43406 0.97878 0.0
C374 C 0.63035 0.50338 0.99576 0.0
C375 C 0.61545 0.50192 0.93609 0.0
N376 N 0.6365 0.47289 0.8388 0.0
N377 N 0.69841 0.48875 0.06084 0.0
C378 C 0.63871 0.46729 0.89798 0.0
C379 C 0.67205 0.47547 0.0129 0.0
N380 N 0.67196 0.3841 0.89233 0.0
N381 N 0.60361 0.52805 0.03704 0.0
H382 H 0.73115 0.47087 0.07128 0.0
H383 H 0.69073 0.52079 0.08526 0.0
H384 H 0.56966 0.54414 0.02875 0.0
H385 H 0.61225 0.52641 0.08135 0.0
H386 H 0.65445 0.3774 0.85264 0.0
H387 H 0.68907 0.35279 0.91009 0.0
H388 H 0.65579 0.44968 0.81029 0.0
H389 H 0.62151 0.50446 0.81885 0.0
C390 C 0.32593 0.57095 0.42211 0.0
C391 C 0.30576 0.5649 0.47866 0.0
C392 C 0.362 0.49553 0.49573 0.0
C393 C 0.37691 0.49691 0.43606 0.0
N394 N 0.35586 0.52582 0.33872 0.0
N395 N 0.29395 0.51032 0.56081 0.0
C396 C 0.35367 0.5315 0.39789 0.0
C397 C 0.32033 0.52351 0.51284 0.0
N398 N 0.32051 0.61473 0.3921 0.0
N399 N 0.3887 0.47086 0.53706 0.0
H400 H 0.26124 0.52827 0.57122 0.0
H401 H 0.3016 0.4783 0.58528 0.0
H402 H 0.42262 0.4547 0.52878 0.0
H403 H 0.38006 0.47256 0.58136 0.0
H404 H 0.33802 0.62135 0.35239 0.0
H405 H 0.30347 0.64608 0.40982 0.0
H406 H 0.33659 0.549 0.31018 0.0
H407 H 0.37083 0.49421 0.31884 0.0
C408 C 0.82757 0.96766 0.98186 0.0
C409 C 0.82694 0.92072 0.95301 0.0
C410 C 0.87205 0.95686 0.87158 0.0
C411 C 0.88305 4e-05 0.90576 0.0
N412 N 0.86212 0.05118 0.98923 0.0
N413 N 0.85449 0.8683 0.87438 0.0
C414 C 0.85824 0.00674 0.96004 0.0
C415 C 0.8513 0.91471 0.89918 0.0
N416 N 0.79733 0.97523 0.02845 0.0
N417 N 0.87673 0.95703 0.81219 0.0
H418 H 0.83983 0.83643 0.89419 0.0
H419 H 0.87584 0.86104 0.83764 0.0
H420 H 0.88096 0.98966 0.78787 0.0
H421 H 0.86671 0.9266 0.78627 0.0
H422 H 0.79237 0.00974 0.04873 0.0
H423 H 0.77445 0.94725 0.04467 0.0
H424 H 0.85138 0.05613 0.03243 0.0
H425 H 0.87555 0.08362 0.96955 0.0
C426 C 0.16461 0.03124 0.48176 0.0
C427 C 0.16522 0.07819 0.45292 0.0
C428 C 0.12011 0.04205 0.3715 0.0
C429 C 0.10914 0.99885 0.40568 0.0
N430 N 0.13009 0.94772 0.48915 0.0
N431 N 0.13763 0.13061 0.37432 0.0
C432 C 0.13396 0.99215 0.45995 0.0
C433 C 0.14085 0.0842 0.39911 0.0
N434 N 0.19487 0.02368 0.52835 0.0
N435 N 0.11541 0.0419 0.31212 0.0
H436 H 0.15228 0.16249 0.39413 0.0
H437 H 0.11626 0.13787 0.33759 0.0
H438 H 0.11119 0.00927 0.28779 0.0
H439 H 0.1254 0.07233 0.2862 0.0
H440 H 0.19984 0.98917 0.54862 0.0
H441 H 0.21773 0.05167 0.54456 0.0
H442 H 0.14084 0.94277 0.53235 0.0
H443 H 0.11667 0.91527 0.46948 0.0
C444 C 0.15734 0.92256 0.90608 0.0
C445 C 0.17637 0.92572 0.96351 0.0
C446 C 0.12092 0.99541 0.98254 0.0
C447 C 0.10814 0.99769 0.92214 0.0
N448 N 0.13127 0.972 0.82416 0.0
N449 N 0.18693 0.97664 0.04905 0.0
C450 C 0.13136 0.96384 0.88299 0.0
C451 C 0.16152 0.96578 0.9996 0.0
N452 N 0.16259 0.87994 0.87392 0.0
N453 N 0.09322 0.01829 0.02432 0.0
H454 H 0.21941 0.9582 0.05914 0.0
H455 H 0.17899 0.00766 0.07509 0.0
H456 H 0.05961 0.03502 0.01574 0.0
H457 H 0.10048 0.01417 0.06877 0.0
H458 H 0.14603 0.87533 0.83325 0.0
H459 H 0.17843 0.84757 0.89073 0.0
H460 H 0.1506 0.94923 0.79521 0.0
H461 H 0.11827 0.00497 0.80535 0.0
C462 C 0.83077 0.03297 0.49969 0.0
C463 C 0.8159 0.07303 0.46361 0.0
C464 C 0.86088 0.03494 0.38306 0.0
C465 C 0.88411 0.00107 0.42218 0.0
N466 N 0.89907 0.98043 0.52434 0.0
N467 N 0.82965 0.11883 0.37402 0.0
C468 C 0.87136 0.00334 0.48259 0.0
C469 C 0.83491 0.0762 0.40617 0.0
N470 N 0.80538 0.0221 0.54916 0.0
N471 N 0.86096 0.0268 0.32422 0.0
H472 H 0.81382 0.1512 0.39087 0.0
H473 H 0.84618 0.12346 0.33335 0.0
H474 H 0.87396 0.99383 0.3054 0.0
H475 H 0.84163 0.04957 0.29528 0.0
H476 H 0.81333 0.99107 0.57518 0.0
H477 H 0.77291 0.04054 0.55929 0.0
H478 H 0.89183 0.98456 0.56879 0.0
H479 H 0.93267 0.96369 0.51573 0.0
C480 C 0.32875 0.33632 0.11913 0.0
C481 C 0.30922 0.38036 0.09359 0.0
C482 C 0.36625 0.43025 0.15147 0.0
C483 C 0.38063 0.38659 0.18303 0.0
N484 N 0.35854 0.30136 0.20899 0.0
N485 N 0.29888 0.46954 0.10073 0.0
C486 C 0.35675 0.34049 0.17065 0.0
C487 C 0.32464 0.42756 0.11461 0.0
N488 N 0.32233 0.29065 0.09357 0.0
N489 N 0.39329 0.47322 0.1532 0.0
H490 H 0.2661 0.46751 0.07767 0.0
H491 H 0.30701 0.50469 0.11815 0.0
H492 H 0.42688 0.47591 0.1743 0.0
H493 H 0.38522 0.50416 0.12709 0.0
H494 H 0.33935 0.25831 0.10911 0.0
H495 H 0.30486 0.28616 0.05359 0.0
H496 H 0.33875 0.26839 0.20254 0.0
H497 H 0.37376 0.30453 0.25053 0.0
C498 C 0.66367 0.66239 0.61898 0.0
C499 C 0.68324 0.6183 0.59359 0.0
C500 C 0.62616 0.56851 0.65152 0.0
C501 C 0.61175 0.61222 0.68297 0.0
N502 N 0.63378 0.69752 0.70871 0.0
N503 N 0.69359 0.52914 0.60099 0.0
C504 C 0.63562 0.65831 0.67048 0.0
C505 C 0.66781 0.57114 0.61471 0.0
N506 N 0.67011 0.70801 0.59331 0.0
N507 N 0.59911 0.52555 0.6533 0.0
H508 H 0.7264 0.53114 0.57798 0.0
H509 H 0.68545 0.49403 0.61848 0.0
H510 H 0.56549 0.5229 0.67434 0.0
H511 H 0.60722 0.49457 0.62728 0.0
H512 H 0.65306 0.74037 0.60873 0.0
H513 H 0.68765 0.71244 0.55335 0.0
H514 H 0.65355 0.73049 0.70218 0.0
H515 H 0.61852 0.69444 0.75024 0.0
C516 C 0.62589 0.36738 0.07853 0.0
C517 C 0.67535 0.37669 0.09272 0.0
C518 C 0.65225 0.39617 0.19375 0.0
C519 C 0.60249 0.38951 0.17841 0.0
N520 N 0.54062 0.37787 0.10475 0.0
N521 N 0.73606 0.40568 0.16078 0.0
C522 C 0.58889 0.37823 0.12014 0.0
C523 C 0.68866 0.39272 0.14962 0.0
N524 N 0.6148 0.3453 0.02646 0.0
N525 N 0.6646 0.4047 0.25074 0.0
H526 H 0.76353 0.40334 0.12934 0.0
H527 H 0.74766 0.42233 0.19944 0.0
H528 H 0.6386 0.41028 0.28342 0.0
H529 H 0.70031 0.40389 0.26636 0.0
H530 H 0.57987 0.33324 0.01515 0.0
H531 H 0.6417 0.33466 0.99672 0.0
H532 H 0.52861 0.37466 0.0618 0.0
H533 H 0.51256 0.38508 0.13443 0.0
C534 C 0.30381 0.6064 0.64942 0.0
C535 C 0.31721 0.62234 0.59251 0.0
C536 C 0.40365 0.62048 0.61999 0.0
C537 C 0.38997 0.60931 0.67826 0.0
N538 N 0.32777 0.59439 0.75056 0.0
N539 N 0.37792 0.6534 0.52622 0.0
C540 C 0.34018 0.60285 0.69358 0.0
C541 C 0.36671 0.63143 0.57833 0.0
N542 N 0.25636 0.59362 0.66056 0.0
N543 N 0.45193 0.62066 0.60463 0.0
H544 H 0.35107 0.66409 0.49645 0.0
H545 H 0.4129 0.6653 0.51491 0.0
H546 H 0.47994 0.61337 0.63435 0.0
H547 H 0.46399 0.62378 0.56169 0.0
H548 H 0.24468 0.57705 0.69923 0.0
H549 H 0.22892 0.59602 0.6291 0.0
H550 H 0.29206 0.59534 0.76616 0.0
H551 H 0.35373 0.5887 0.78325 0.0
C552 C 0.87795 0.88226 0.06412 0.0
C553 C 0.83642 0.85099 0.06488 0.0
C554 C 0.85812 0.82475 0.16343 0.0
C555 C 0.88987 0.86673 0.16828 0.0
N556 N 0.93209 0.93507 0.11891 0.0
N557 N 0.82351 0.76599 0.09484 0.0
C558 C 0.89962 0.89626 0.11777 0.0
C559 C 0.83675 0.81373 0.10862 0.0
N560 N 0.90573 0.88421 0.01496 0.0
N561 N 0.84729 0.79611 0.21108 0.0
H562 H 0.81418 0.75617 0.05211 0.0
H563 H 0.82739 0.73601 0.12367 0.0
H564 H 0.86071 0.80412 0.2527 0.0
H565 H 0.82131 0.76752 0.20982 0.0
H566 H 0.93942 0.90248 0.01307 0.0
H567 H 0.89833 0.86033 0.98 0.0
H568 H 0.93695 0.95855 0.0829 0.0
H569 H 0.95212 0.94525 0.15566 0.0
C570 C 0.15539 0.18514 0.60854 0.0
C571 C 0.15572 0.14789 0.5648 0.0
C572 C 0.09257 0.10258 0.61773 0.0
C573 C 0.10234 0.1321 0.66825 0.0
N574 N 0.1449 0.20273 0.71102 0.0
N575 N 0.08643 0.11462 0.51493 0.0
C576 C 0.13407 0.17409 0.66337 0.0
C577 C 0.11421 0.11659 0.56407 0.0
N578 N 0.16859 0.2329 0.59475 0.0
N579 N 0.06012 0.06376 0.6189 0.0
H580 H 0.0938 0.13852 0.47998 0.0
H581 H 0.05274 0.09635 0.51305 0.0
H582 H 0.04011 0.05357 0.65565 0.0
H583 H 0.05525 0.04028 0.58289 0.0
H584 H 0.16469 0.26287 0.6236 0.0
H585 H 0.1779 0.24273 0.55202 0.0
H586 H 0.17087 0.23133 0.70973 0.0
H587 H 0.13152 0.19471 0.75265 0.0
C588 C 0.11706 0.853 0.06382 0.0
C589 C 0.16684 0.86307 0.07532 0.0
C590 C 0.14861 0.8756 0.17925 0.0
C591 C 0.09835 0.86838 0.16695 0.0
N592 N 0.0331 0.85665 0.09737 0.0
N593 N 0.23036 0.88915 0.14135 0.0
C594 C 0.08203 0.85935 0.10902 0.0
C595 C 0.18271 0.87575 0.13246 0.0
N596 N 0.10397 0.83445 0.01053 0.0
N597 N 0.16366 0.88173 0.23576 0.0
H598 H 0.25619 0.88965 0.10791 0.0
H599 H 0.24371 0.90358 0.18039 0.0
H600 H 0.1394 0.88482 0.27071 0.0
H601 H 0.20008 0.88118 0.24878 0.0
H602 H 0.06902 0.82167 1.00051 0.0
H603 H 0.12943 0.82781 0.97758 0.0
H604 H 0.0187 0.8558 0.05532 0.0
H605 H 0.00645 0.85847 0.12981 0.0
C606 C 0.80953 0.12303 0.63259 0.0
C607 C 0.8254 0.13569 0.57543 0.0
C608 C 0.91019 0.1395 0.60913 0.0
C609 C 0.89388 0.1305 0.66706 0.0
N610 N 0.82857 0.11717 0.73589 0.0
N611 N 0.88825 0.16434 0.51062 0.0
C612 C 0.84362 0.12326 0.67937 0.0
C613 C 0.87516 0.1458 0.56392 0.0
N614 N 0.76189 0.10959 0.64148 0.0
N615 N 0.95913 0.14223 0.59747 0.0
H616 H 0.86278 0.17095 0.47767 0.0
H617 H 0.92319 0.17715 0.5006 0.0
H618 H 0.98577 0.14044 0.62992 0.0
H619 H 0.97352 0.14306 0.55542 0.0
H620 H 0.74855 0.09518 0.68054 0.0
H621 H 0.73606 0.10905 0.60805 0.0
H622 H 0.79214 0.1177 0.74891 0.0
H623 H 0.85282 0.11415 0.77085 0.0
loop_
_geom_bond_atom_site_label_1
_geom_bond_atom_site_label_2
_geom_bond_distance
_geom_bond_site_symmetry_2
_ccdc_geom_bond_type
C0 N1 1.317 . S
C0 N2 1.348 1_554 S
C0 C3 1.485 . S
N1 C0 1.317 . S
N1 N5 1.370 1_554 S
N2 C0 1.348 1_556 S
N2 C4 1.346 . S
C3 C0 1.485 . S
C3 H7 0.960 . S
C3 H8 0.961 . S
C3 H9 0.960 . S
C4 N2 1.346 . S
C4 N5 1.307 . S
C4 C6 1.486 . S
N5 N1 1.370 1_556 S
N5 C4 1.307 . S
C6 C4 1.486 . S
C6 H10 0.960 . S
C6 H11 0.960 . S
C6 H12 0.959 . S
H7 C3 0.960 . S
H8 C3 0.961 . S
H9 C3 0.960 . S
H10 C6 0.960 . S
H11 C6 0.960 . S
H12 C6 0.959 . S
C13 N14 1.317 . S
C13 N15 1.348 . S
C13 C16 1.485 . S
N14 C13 1.317 . S
N14 N18 1.370 . S
N15 C13 1.348 . S
N15 C17 1.346 . S
C16 C13 1.485 . S
C16 H20 0.960 . S
C16 H21 0.961 . S
C16 H22 0.960 . S
C17 N15 1.346 . S
C17 N18 1.307 . S
C17 C19 1.486 . S
N18 N14 1.370 . S
N18 C17 1.307 . S
C19 C17 1.486 . S
C19 H23 0.960 . S
C19 H24 0.960 . S
C19 H25 0.959 . S
H20 C16 0.960 . S
H21 C16 0.961 . S
H22 C16 0.960 . S
H23 C19 0.960 . S
H24 C19 0.960 . S
H25 C19 0.959 . S
C26 N27 1.317 . S
C26 N28 1.348 1_554 S
C26 C29 1.485 . S
N27 C26 1.317 . S
N27 N31 1.370 1_554 S
N28 C26 1.348 1_556 S
N28 C30 1.346 . S
C29 C26 1.485 . S
C29 H33 0.960 . S
C29 H34 0.961 . S
C29 H35 0.960 . S
C30 N28 1.346 . S
C30 N31 1.307 . S
C30 C32 1.486 . S
N31 N27 1.370 1_556 S
N31 C30 1.307 . S
C32 C30 1.486 . S
C32 H36 0.960 . S
C32 H37 0.960 . S
C32 H38 0.959 . S
H33 C29 0.960 . S
H34 C29 0.961 . S
H35 C29 0.960 . S
H36 C32 0.960 . S
H37 C32 0.960 . S
H38 C32 0.959 . S
C39 N40 1.317 . S
C39 N41 1.348 . S
C39 C42 1.485 . S
N40 C39 1.317 . S
N40 N44 1.370 . S
N41 C39 1.348 . S
N41 C43 1.346 . S
C42 C39 1.485 . S
C42 H46 0.960 . S
C42 H47 0.961 . S
C42 H48 0.960 . S
C43 N41 1.346 . S
C43 N44 1.307 . S
C43 C45 1.486 . S
N44 N40 1.370 . S
N44 C43 1.307 . S
C45 C43 1.486 . S
C45 H49 0.960 . S
C45 H50 0.960 . S
C45 H51 0.959 . S
H46 C42 0.960 . S
H47 C42 0.961 . S
H48 C42 0.960 . S
H49 C45 0.960 . S
H50 C45 0.960 . S
H51 C45 0.959 . S
C52 N53 1.317 . S
C52 N54 1.348 1_554 S
C52 C55 1.485 . S
N53 C52 1.317 . S
N53 N57 1.370 1_554 S
N54 C52 1.348 1_556 S
N54 C56 1.346 . S
C55 C52 1.485 . S
C55 H59 0.960 . S
C55 H60 0.961 . S
C55 H61 0.960 . S
C56 N54 1.346 . S
C56 N57 1.307 . S
C56 C58 1.486 . S
N57 N53 1.370 1_556 S
N57 C56 1.307 . S
C58 C56 1.486 . S
C58 H62 0.960 . S
C58 H63 0.960 . S
C58 H64 0.959 . S
H59 C55 0.960 . S
H60 C55 0.961 . S
H61 C55 0.960 . S
H62 C58 0.960 . S
H63 C58 0.960 . S
H64 C58 0.959 . S
C65 N66 1.317 . S
C65 N67 1.348 . S
C65 C68 1.485 . S
N66 C65 1.317 . S
N66 N70 1.370 . S
N67 C65 1.348 . S
N67 C69 1.346 . S
C68 C65 1.485 . S
C68 H72 0.960 . S
C68 H73 0.961 . S
C68 H74 0.960 . S
C69 N67 1.346 . S
C69 N70 1.307 . S
C69 C71 1.486 . S
N70 N66 1.370 . S
N70 C69 1.307 . S
C71 C69 1.486 . S
C71 H75 0.960 . S
C71 H76 0.960 . S
C71 H77 0.959 . S
H72 C68 0.960 . S
H73 C68 0.961 . S
H74 C68 0.960 . S
H75 C71 0.960 . S
H76 C71 0.960 . S
H77 C71 0.959 . S
C78 N79 1.317 . S
C78 N80 1.348 1_554 S
C78 C81 1.485 . S
N79 C78 1.317 . S
N79 N83 1.370 1_554 S
N80 C78 1.348 1_556 S
N80 C82 1.346 . S
C81 C78 1.485 . S
C81 H85 0.960 . S
C81 H86 0.961 . S
C81 H87 0.960 . S
C82 N80 1.346 . S
C82 N83 1.307 . S
C82 C84 1.486 . S
N83 N79 1.370 1_556 S
N83 C82 1.307 . S
C84 C82 1.486 . S
C84 H88 0.960 . S
C84 H89 0.960 . S
C84 H90 0.959 . S
H85 C81 0.960 . S
H86 C81 0.961 . S
H87 C81 0.960 . S
H88 C84 0.960 . S
H89 C84 0.960 . S
H90 C84 0.959 . S
C91 N92 1.317 . S
C91 N93 1.348 . S
C91 C94 1.485 . S
N92 C91 1.317 . S
N92 N96 1.370 . S
N93 C91 1.348 . S
N93 C95 1.346 . S
C94 C91 1.485 . S
C94 H98 0.960 . S
C94 H99 0.961 . S
C94 H100 0.960 . S
C95 N93 1.346 . S
C95 N96 1.307 . S
C95 C97 1.486 . S
N96 N92 1.370 . S
N96 C95 1.307 . S
C97 C95 1.486 . S
C97 H101 0.960 . S
C97 H102 0.960 . S
C97 H103 0.959 . S
H98 C94 0.960 . S
H99 C94 0.961 . S
H100 C94 0.960 . S
H101 C97 0.960 . S
H102 C97 0.960 . S
H103 C97 0.959 . S
Sc104 O107 2.025 . S
Sc104 O114 2.104 1_455 S
Sc104 O117 2.105 . S
Sc104 O120 2.105 . S
Sc104 O123 2.104 1_455 S
Sc105 O107 2.025 . S
Sc105 O115 2.104 1_455 S
Sc105 O119 2.105 . S
Sc105 O121 2.105 . S
Sc105 O125 2.104 1_455 S
Sc106 O107 2.025 . S
Sc106 O116 2.104 1_455 S
Sc106 O118 2.105 . S
Sc106 O122 2.105 . S
Sc106 O124 2.104 1_455 S
O107 Sc104 2.025 . S
O107 Sc105 2.025 . S
O107 Sc106 2.025 . S
C108 O114 1.268 . S
C108 O124 1.268 . S
C109 O115 1.268 . S
C109 O123 1.268 . S
C110 O116 1.268 . S
C110 O125 1.268 . S
C111 O117 1.268 . S
C111 O121 1.268 . S
C112 O118 1.268 . S
C112 O120 1.268 . S
C113 O119 1.268 . S
C113 O122 1.268 . S
O114 Sc104 2.104 1_655 S
O114 C108 1.268 . S
O115 Sc105 2.104 1_655 S
O115 C109 1.268 . S
O116 Sc106 2.104 1_655 S
O116 C110 1.268 . S
O117 Sc104 2.105 . S
O117 C111 1.268 . S
O118 Sc106 2.105 . S
O118 C112 1.268 . S
O119 Sc105 2.105 . S
O119 C113 1.268 . S
O120 Sc104 2.105 . S
O120 C112 1.268 . S
O121 Sc105 2.105 . S
O121 C111 1.268 . S
O122 Sc106 2.105 . S
O122 C113 1.268 . S
O123 Sc104 2.104 1_655 S
O123 C109 1.268 . S
O124 Sc106 2.104 1_655 S
O124 C108 1.268 . S
O125 Sc105 2.104 1_655 S
O125 C110 1.268 . S
Sc126 O129 2.025 . S
Sc126 O136 2.105 . S
Sc126 O139 2.104 1_455 S
Sc126 O142 2.104 1_455 S
Sc126 O145 2.105 . S
Sc127 O129 2.025 . S
Sc127 O137 2.105 . S
Sc127 O141 2.104 1_455 S
Sc127 O143 2.104 1_455 S
Sc127 O147 2.105 . S
Sc128 O129 2.025 . S
Sc128 O138 2.105 . S
Sc128 O140 2.104 1_455 S
Sc128 O144 2.104 1_455 S
Sc128 O146 2.105 . S
O129 Sc126 2.025 . S
O129 Sc127 2.025 . S
O129 Sc128 2.025 . S
C130 O136 1.268 . S
C130 O146 1.268 . S
C131 O137 1.268 . S
C131 O145 1.268 . S
C132 O138 1.268 . S
C132 O147 1.268 . S
C133 O139 1.268 . S
C133 O143 1.268 . S
C134 O140 1.268 . S
C134 O142 1.268 . S
C135 O141 1.268 . S
C135 O144 1.268 . S
O136 Sc126 2.105 . S
O136 C130 1.268 . S
O137 Sc127 2.105 . S
O137 C131 1.268 . S
O138 Sc128 2.105 . S
O138 C132 1.268 . S
O139 Sc126 2.104 1_655 S
O139 C133 1.268 . S
O140 Sc128 2.104 1_655 S
O140 C134 1.268 . S
O141 Sc127 2.104 1_655 S
O141 C135 1.268 . S
O142 Sc126 2.104 1_655 S
O142 C134 1.268 . S
O143 Sc127 2.104 1_655 S
O143 C133 1.268 . S
O144 Sc128 2.104 1_655 S
O144 C135 1.268 . S
O145 Sc126 2.105 . S
O145 C131 1.268 . S
O146 Sc128 2.105 . S
O146 C130 1.268 . S
O147 Sc127 2.105 . S
O147 C132 1.268 . S
Sc148 O151 2.025 . S
Sc148 O158 2.105 . S
Sc148 O161 2.105 . S
Sc148 O164 2.105 . S
Sc148 O167 2.105 . S
Sc149 O151 2.025 . S
Sc149 O159 2.105 . S
Sc149 O163 2.105 . S
Sc149 O165 2.105 . S
Sc149 O169 2.105 . S
Sc150 O151 2.025 . S
Sc150 O160 2.105 . S
Sc150 O162 2.105 . S
Sc150 O166 2.105 . S
Sc150 O168 2.105 . S
O151 Sc148 2.025 . S
O151 Sc149 2.025 . S
O151 Sc150 2.025 . S
C152 O158 1.268 . S
C152 O168 1.268 . S
C153 O159 1.268 . S
C153 O167 1.268 . S
C154 O160 1.268 . S
C154 O169 1.268 . S
C155 O161 1.268 . S
C155 O165 1.268 . S
C156 O162 1.268 . S
C156 O164 1.268 . S
C157 O163 1.268 . S
C157 O166 1.268 . S
O158 Sc148 2.105 . S
O158 C152 1.268 . S
O159 Sc149 2.105 . S
O159 C153 1.268 . S
O160 Sc150 2.105 . S
O160 C154 1.268 . S
O161 Sc148 2.105 . S
O161 C155 1.268 . S
O162 Sc150 2.105 . S
O162 C156 1.268 . S
O163 Sc149 2.105 . S
O163 C157 1.268 . S
O164 Sc148 2.105 . S
O164 C156 1.268 . S
O165 Sc149 2.105 . S
O165 C155 1.268 . S
O166 Sc150 2.105 . S
O166 C157 1.268 . S
O167 Sc148 2.105 . S
O167 C153 1.268 . S
O168 Sc150 2.105 . S
O168 C152 1.268 . S
O169 Sc149 2.105 . S
O169 C154 1.268 . S
Sc170 O173 2.025 . S
Sc170 O180 2.105 . S
Sc170 O183 2.105 . S
Sc170 O186 2.105 . S
Sc170 O189 2.105 . S
Sc171 O173 2.025 . S
Sc171 O181 2.105 . S
Sc171 O185 2.105 . S
Sc171 O187 2.105 . S
Sc171 O191 2.105 . S
Sc172 O173 2.025 . S
Sc172 O182 2.105 . S
Sc172 O184 2.105 . S
Sc172 O188 2.105 . S
Sc172 O190 2.105 . S
O173 Sc170 2.025 . S
O173 Sc171 2.025 . S
O173 Sc172 2.025 . S
C174 O180 1.268 . S
C174 O190 1.268 . S
C175 O181 1.268 . S
C175 O189 1.268 . S
C176 O182 1.268 . S
C176 O191 1.268 . S
C177 O183 1.268 . S
C177 O187 1.268 . S
C178 O184 1.268 . S
C178 O186 1.268 . S
C179 O185 1.268 . S
C179 O188 1.268 . S
O180 Sc170 2.105 . S
O180 C174 1.268 . S
O181 Sc171 2.105 . S
O181 C175 1.268 . S
O182 Sc172 2.105 . S
O182 C176 1.268 . S
O183 Sc170 2.105 . S
O183 C177 1.268 . S
O184 Sc172 2.105 . S
O184 C178 1.268 . S
O185 Sc171 2.105 . S
O185 C179 1.268 . S
O186 Sc170 2.105 . S
O186 C178 1.268 . S
O187 Sc171 2.105 . S
O187 C177 1.268 . S
O188 Sc172 2.105 . S
O188 C179 1.268 . S
O189 Sc170 2.105 . S
O189 C175 1.268 . S
O190 Sc172 2.105 . S
O190 C174 1.268 . S
O191 Sc171 2.105 . S
O191 C176 1.268 . S
C192 C193 1.363 . S
C192 C198 1.379 . S
C192 N200 1.356 . S
C193 C192 1.363 . S
C193 C199 1.363 . S
C194 C195 1.363 . S
C194 C199 1.379 . S
C194 N201 1.356 . S
C195 C194 1.363 . S
C195 C198 1.363 . S
N196 C198 1.356 . S
N196 H208 0.984 . S
N196 H209 0.985 . S
N197 C199 1.356 1_554 S
N197 H202 0.984 . S
N197 H203 0.985 . S
C198 C192 1.379 . S
C198 C195 1.363 . S
C198 N196 1.356 . S
C199 C193 1.363 . S
C199 C194 1.379 . S
C199 N197 1.356 1_556 S
N200 C192 1.356 . S
N200 H206 0.984 . S
N200 H207 0.984 . S
N201 C194 1.356 . S
N201 H204 0.984 . S
N201 H205 0.985 1_556 S
H202 N197 0.984 . S
H203 N197 0.985 . S
H204 N201 0.984 . S
H205 N201 0.985 1_554 S
H206 N200 0.984 . S
H207 N200 0.984 . S
H208 N196 0.984 . S
H209 N196 0.985 . S
C210 C211 1.363 . S
C210 C216 1.379 . S
C210 N218 1.356 . S
C211 C210 1.363 . S
C211 C217 1.363 . S
C212 C213 1.363 . S
C212 C217 1.379 . S
C212 N219 1.356 . S
C213 C212 1.363 . S
C213 C216 1.363 . S
N214 C216 1.356 . S
N214 H226 0.984 . S
N214 H227 0.985 . S
N215 C217 1.356 . S
N215 H220 0.984 . S
N215 H221 0.985 . S
C216 C210 1.379 . S
C216 C213 1.363 . S
C216 N214 1.356 . S
C217 C211 1.363 . S
C217 C212 1.379 . S
C217 N215 1.356 . S
N218 C210 1.356 . S
N218 H224 0.984 . S
N218 H225 0.984 . S
N219 C212 1.356 . S
N219 H222 0.984 . S
N219 H223 0.985 . S
H220 N215 0.984 . S
H221 N215 0.985 . S
H222 N219 0.984 . S
H223 N219 0.985 . S
H224 N218 0.984 . S
H225 N218 0.984 . S
H226 N214 0.984 . S
H227 N214 0.985 . S
C228 C229 1.363 . S
C228 C234 1.379 . S
C228 N236 1.356 . S
C229 C228 1.363 . S
C229 C235 1.363 . S
C230 C231 1.363 . S
C230 C235 1.379 . S
C230 N237 1.356 . S
C231 C230 1.363 . S
C231 C234 1.363 . S
N232 C234 1.356 . S
N232 H244 0.984 . S
N232 H245 0.985 . S
N233 C235 1.356 1_554 S
N233 H238 0.984 . S
N233 H239 0.985 . S
C234 C228 1.379 . S
C234 C231 1.363 . S
C234 N232 1.356 . S
C235 C229 1.363 . S
C235 C230 1.379 . S
C235 N233 1.356 1_556 S
N236 C228 1.356 . S
N236 H242 0.984 . S
N236 H243 0.984 . S
N237 C230 1.356 . S
N237 H240 0.984 . S
N237 H241 0.985 1_556 S
H238 N233 0.984 . S
H239 N233 0.985 . S
H240 N237 0.984 . S
H241 N237 0.985 1_554 S
H242 N236 0.984 . S
H243 N236 0.984 . S
H244 N232 0.984 . S
H245 N232 0.985 . S
C246 C247 1.363 . S
C246 C252 1.379 . S
C246 N254 1.356 . S
C247 C246 1.363 . S
C247 C253 1.363 . S
C248 C249 1.363 . S
C248 C253 1.379 . S
C248 N255 1.356 . S
C249 C248 1.363 . S
C249 C252 1.363 . S
N250 C252 1.356 . S
N250 H262 0.984 . S
N250 H263 0.985 . S
N251 C253 1.356 . S
N251 H256 0.984 . S
N251 H257 0.985 . S
C252 C246 1.379 . S
C252 C249 1.363 . S
C252 N250 1.356 . S
C253 C247 1.363 . S
C253 C248 1.379 . S
C253 N251 1.356 . S
N254 C246 1.356 . S
N254 H260 0.984 . S
N254 H261 0.984 . S
N255 C248 1.356 . S
N255 H258 0.984 . S
N255 H259 0.985 . S
H256 N251 0.984 . S
H257 N251 0.985 . S
H258 N255 0.984 . S
H259 N255 0.985 . S
H260 N254 0.984 . S
H261 N254 0.984 . S
H262 N250 0.984 . S
H263 N250 0.985 . S
C264 C265 1.363 . S
C264 C270 1.379 . S
C264 N272 1.356 1_556 S
C265 C264 1.363 . S
C265 C271 1.363 . S
C266 C267 1.363 . S
C266 C271 1.379 . S
C266 N273 1.356 . S
C267 C266 1.363 . S
C267 C270 1.363 . S
N268 C270 1.356 . S
N268 H280 0.984 1_556 S
N268 H281 0.985 . S
N269 C271 1.356 . S
N269 H274 0.984 . S
N269 H275 0.985 . S
C270 C264 1.379 . S
C270 C267 1.363 . S
C270 N268 1.356 . S
C271 C265 1.363 . S
C271 C266 1.379 . S
C271 N269 1.356 . S
N272 C264 1.356 1_554 S
N272 H278 0.984 . S
N272 H279 0.984 . S
N273 C266 1.356 . S
N273 H276 0.984 . S
N273 H277 0.985 . S
H274 N269 0.984 . S
H275 N269 0.985 . S
H276 N273 0.984 . S
H277 N273 0.985 . S
H278 N272 0.984 . S
H279 N272 0.984 . S
H280 N268 0.984 1_554 S
H281 N268 0.985 . S
C282 C283 1.363 . S
C282 C288 1.379 . S
C282 N290 1.356 . S
C283 C282 1.363 . S
C283 C289 1.363 . S
C284 C285 1.363 . S
C284 C289 1.379 . S
C284 N291 1.356 . S
C285 C284 1.363 . S
C285 C288 1.363 . S
N286 C288 1.356 . S
N286 H298 0.984 . S
N286 H299 0.985 . S
N287 C289 1.356 . S
N287 H292 0.984 . S
N287 H293 0.985 . S
C288 C282 1.379 . S
C288 C285 1.363 . S
C288 N286 1.356 . S
C289 C283 1.363 . S
C289 C284 1.379 . S
C289 N287 1.356 . S
N290 C282 1.356 . S
N290 H296 0.984 . S
N290 H297 0.984 . S
N291 C284 1.356 . S
N291 H294 0.984 . S
N291 H295 0.985 . S
H292 N287 0.984 . S
H293 N287 0.985 . S
H294 N291 0.984 . S
H295 N291 0.985 . S
H296 N290 0.984 . S
H297 N290 0.984 . S
H298 N286 0.984 . S
H299 N286 0.985 . S
C300 C301 1.363 . S
C300 C306 1.379 . S
C300 N308 1.356 . S
C301 C300 1.363 . S
C301 C307 1.363 . S
C302 C303 1.363 . S
C302 C307 1.379 . S
C302 N309 1.356 . S
C303 C302 1.363 . S
C303 C306 1.363 . S
N304 C306 1.356 . S
N304 H316 0.984 . S
N304 H317 0.985 . S
N305 C307 1.356 1_554 S
N305 H310 0.984 . S
N305 H311 0.985 . S
C306 C300 1.379 . S
C306 C303 1.363 . S
C306 N304 1.356 . S
C307 C301 1.363 . S
C307 C302 1.379 . S
C307 N305 1.356 1_556 S
N308 C300 1.356 . S
N308 H314 0.984 . S
N308 H315 0.984 . S
N309 C302 1.356 . S
N309 H312 0.984 . S
N309 H313 0.985 1_556 S
H310 N305 0.984 . S
H311 N305 0.985 . S
H312 N309 0.984 . S
H313 N309 0.985 1_554 S
H314 N308 0.984 . S
H315 N308 0.984 . S
H316 N304 0.984 . S
H317 N304 0.985 . S
C318 C319 1.363 . S
C318 C324 1.379 . S
C318 N326 1.356 . S
C319 C318 1.363 . S
C319 C325 1.363 . S
C320 C321 1.363 . S
C320 C325 1.379 . S
C320 N327 1.356 . S
C321 C320 1.363 . S
C321 C324 1.363 . S
N322 C324 1.356 . S
N322 H334 0.984 . S
N322 H335 0.985 . S
N323 C325 1.356 . S
N323 H328 0.984 . S
N323 H329 0.985 . S
C324 C318 1.379 . S
C324 C321 1.363 . S
C324 N322 1.356 . S
C325 C319 1.363 . S
C325 C320 1.379 . S
C325 N323 1.356 . S
N326 C318 1.356 . S
N326 H332 0.984 . S
N326 H333 0.984 . S
N327 C320 1.356 . S
N327 H330 0.984 . S
N327 H331 0.985 . S
H328 N323 0.984 . S
H329 N323 0.985 . S
H330 N327 0.984 . S
H331 N327 0.985 . S
H332 N326 0.984 . S
H333 N326 0.984 . S
H334 N322 0.984 . S
H335 N322 0.985 . S
C336 C337 1.363 . S
C336 C342 1.379 . S
C336 N344 1.356 1_556 S
C337 C336 1.363 . S
C337 C343 1.363 . S
C338 C339 1.363 . S
C338 C343 1.379 . S
C338 N345 1.356 . S
C339 C338 1.363 . S
C339 C342 1.363 . S
N340 C342 1.356 . S
N340 H352 0.981 1_556 S
N340 H353 0.985 . S
N341 C343 1.356 . S
N341 H346 0.984 . S
N341 H347 0.985 . S
C342 C336 1.379 . S
C342 C339 1.363 . S
C342 N340 1.356 . S
C343 C337 1.363 . S
C343 C338 1.379 . S
C343 N341 1.356 . S
N344 C336 1.356 1_554 S
N344 H350 0.984 . S
N344 H351 0.984 . S
N345 C338 1.356 . S
N345 H348 0.984 . S
N345 H349 0.985 . S
H346 N341 0.984 . S
H347 N341 0.985 . S
H348 N345 0.984 . S
H349 N345 0.985 . S
H350 N344 0.984 . S
H351 N344 0.984 . S
H352 N340 0.981 1_554 S
H353 N340 0.985 . S
C354 C355 1.363 . S
C354 C360 1.379 . S
C354 N362 1.356 . S
C355 C354 1.363 . S
C355 C361 1.363 . S
C356 C357 1.363 . S
C356 C361 1.379 . S
C356 N363 1.356 . S
C357 C356 1.363 . S
C357 C360 1.363 . S
N358 C360 1.356 . S
N358 H370 0.984 . S
N358 H371 0.985 . S
N359 C361 1.356 . S
N359 H364 0.984 . S
N359 H365 0.985 . S
C360 C354 1.379 . S
C360 C357 1.363 . S
C360 N358 1.356 . S
C361 C355 1.363 . S
C361 C356 1.379 . S
C361 N359 1.356 . S
N362 C354 1.356 . S
N362 H368 0.984 . S
N362 H369 0.984 . S
N363 C356 1.356 . S
N363 H366 0.984 . S
N363 H367 0.985 . S
H364 N359 0.984 . S
H365 N359 0.985 . S
H366 N363 0.984 . S
H367 N363 0.985 . S
H368 N362 0.984 . S
H369 N362 0.984 . S
H370 N358 0.984 . S
H371 N358 0.985 . S
C372 C373 1.363 . S
C372 C378 1.379 . S
C372 N380 1.356 . S
C373 C372 1.363 . S
C373 C379 1.363 . S
C374 C375 1.363 . S
C374 C379 1.379 . S
C374 N381 1.356 . S
C375 C374 1.363 . S
C375 C378 1.363 . S
N376 C378 1.356 . S
N376 H388 0.984 . S
N376 H389 0.985 . S
N377 C379 1.356 1_554 S
N377 H382 0.984 . S
N377 H383 0.985 . S
C378 C372 1.379 . S
C378 C375 1.363 . S
C378 N376 1.356 . S
C379 C373 1.363 . S
C379 C374 1.379 . S
C379 N377 1.356 1_556 S
N380 C372 1.356 . S
N380 H386 0.984 . S
N380 H387 0.984 . S
N381 C374 1.356 . S
N381 H384 0.984 . S
N381 H385 0.985 1_556 S
H382 N377 0.984 . S
H383 N377 0.985 . S
H384 N381 0.984 . S
H385 N381 0.985 1_554 S
H386 N380 0.984 . S
H387 N380 0.984 . S
H388 N376 0.984 . S
H389 N376 0.985 . S
C390 C391 1.363 . S
C390 C396 1.379 . S
C390 N398 1.356 . S
C391 C390 1.363 . S
C391 C397 1.363 . S
C392 C393 1.363 . S
C392 C397 1.379 . S
C392 N399 1.356 . S
C393 C392 1.363 . S
C393 C396 1.363 . S
N394 C396 1.356 . S
N394 H406 0.984 . S
N394 H407 0.985 . S
N395 C397 1.356 . S
N395 H400 0.984 . S
N395 H401 0.985 . S
C396 C390 1.379 . S
C396 C393 1.363 . S
C396 N394 1.356 . S
C397 C391 1.363 . S
C397 C392 1.379 . S
C397 N395 1.356 . S
N398 C390 1.356 . S
N398 H404 0.984 . S
N398 H405 0.984 . S
N399 C392 1.356 . S
N399 H402 0.984 . S
N399 H403 0.985 . S
H400 N395 0.984 . S
H401 N395 0.985 . S
H402 N399 0.984 . S
H403 N399 0.985 . S
H404 N398 0.984 . S
H405 N398 0.984 . S
H406 N394 0.984 . S
H407 N394 0.985 . S
C408 C409 1.367 . S
C408 C414 1.382 1_565 S
C408 N416 1.350 1_556 S
C409 C408 1.367 . S
C409 C415 1.363 . S
C410 C411 1.363 1_565 S
C410 C415 1.379 . S
C410 N417 1.356 . S
C411 C410 1.363 1_545 S
C411 C414 1.363 . S
N412 C414 1.356 . S
N412 H424 0.984 1_556 S
N412 H425 0.985 . S
N413 C415 1.356 . S
N413 H418 0.984 . S
N413 H419 0.985 . S
C414 C408 1.382 1_545 S
C414 C411 1.363 . S
C414 N412 1.356 . S
C415 C409 1.363 . S
C415 C410 1.379 . S
C415 N413 1.356 . S
N416 C408 1.350 1_554 S
N416 H422 0.984 . S
N416 H423 0.984 . S
N417 C410 1.356 . S
N417 H420 0.984 1_565 S
N417 H421 0.985 . S
H418 N413 0.984 . S
H419 N413 0.985 . S
H420 N417 0.984 1_545 S
H421 N417 0.985 . S
H422 N416 0.984 . S
H423 N416 0.984 . S
H424 N412 0.984 1_554 S
H425 N412 0.985 . S
C426 C427 1.363 . S
C426 C432 1.379 1_545 S
C426 N434 1.356 . S
C427 C426 1.363 . S
C427 C433 1.363 . S
C428 C429 1.363 1_545 S
C428 C433 1.379 . S
C428 N435 1.356 . S
C429 C428 1.363 1_565 S
C429 C432 1.363 . S
N430 C432 1.356 . S
N430 H442 0.984 . S
N430 H443 0.985 . S
N431 C433 1.356 . S
N431 H436 0.984 . S
N431 H437 0.985 . S
C432 C426 1.379 1_565 S
C432 C429 1.363 . S
C432 N430 1.356 . S
C433 C427 1.363 . S
C433 C428 1.379 . S
C433 N431 1.356 . S
N434 C426 1.356 . S
N434 H440 0.984 1_545 S
N434 H441 0.984 . S
N435 C428 1.356 . S
N435 H438 0.984 1_545 S
N435 H439 0.985 . S
H436 N431 0.984 . S
H437 N431 0.985 . S
H438 N435 0.984 1_565 S
H439 N435 0.985 . S
H440 N434 0.984 1_565 S
H441 N434 0.984 . S
H442 N430 0.984 . S
H443 N430 0.985 . S
C444 C445 1.363 . S
C444 C450 1.379 . S
C444 N452 1.356 . S
C445 C444 1.363 . S
C445 C451 1.355 1_556 S
C446 C447 1.363 . S
C446 C451 1.373 1_546 S
C446 N453 1.356 . S
C447 C446 1.363 . S
C447 C450 1.363 1_545 S
N448 C450 1.356 . S
N448 H460 0.984 . S
N448 H461 0.985 1_565 S
N449 C451 1.369 . S
N449 H454 0.984 . S
N449 H455 0.985 . S
C450 C444 1.379 . S
C450 C447 1.363 1_565 S
C450 N448 1.356 . S
C451 C445 1.355 1_554 S
C451 C446 1.373 1_564 S
C451 N449 1.369 . S
N452 C444 1.356 . S
N452 H458 0.984 . S
N452 H459 0.984 . S
N453 C446 1.356 . S
N453 H456 0.984 . S
N453 H457 0.985 1_556 S
H454 N449 0.984 . S
H455 N449 0.985 . S
H456 N453 0.984 . S
H457 N453 0.985 1_554 S
H458 N452 0.984 . S
H459 N452 0.984 . S
H460 N448 0.984 . S
H461 N448 0.985 1_545 S
C462 C463 1.363 . S
C462 C468 1.379 1_545 S
C462 N470 1.356 . S
C463 C462 1.363 . S
C463 C469 1.363 . S
C464 C465 1.363 1_545 S
C464 C469 1.379 . S
C464 N471 1.356 1_545 S
C465 C464 1.363 1_565 S
C465 C468 1.363 . S
N466 C468 1.356 . S
N466 H478 0.984 . S
N466 H479 0.985 . S
N467 C469 1.356 . S
N467 H472 0.984 . S
N467 H473 0.985 . S
C468 C462 1.379 1_565 S
C468 C465 1.363 . S
C468 N466 1.356 . S
C469 C463 1.363 . S
C469 C464 1.379 . S
C469 N467 1.356 . S
N470 C462 1.356 . S
N470 H476 0.984 . S
N470 H477 0.984 . S
N471 C464 1.356 1_565 S
N471 H474 0.984 . S
N471 H475 0.985 1_565 S
H472 N467 0.984 . S
H473 N467 0.985 . S
H474 N471 0.984 . S
H475 N471 0.985 1_545 S
H476 N470 0.984 . S
H477 N470 0.984 . S
H478 N466 0.984 . S
H479 N466 0.985 . S
C480 C481 1.363 . S
C480 C486 1.379 . S
C480 N488 1.356 . S
C481 C480 1.363 . S
C481 C487 1.363 . S
C482 C483 1.363 . S
C482 C487 1.379 . S
C482 N489 1.356 . S
C483 C482 1.363 . S
C483 C486 1.363 . S
N484 C486 1.356 . S
N484 H496 0.984 . S
N484 H497 0.985 . S
N485 C487 1.356 . S
N485 H490 0.984 . S
N485 H491 0.985 . S
C486 C480 1.379 . S
C486 C483 1.363 . S
C486 N484 1.356 . S
C487 C481 1.363 . S
C487 C482 1.379 . S
C487 N485 1.356 . S
N488 C480 1.356 . S
N488 H494 0.984 . S
N488 H495 0.984 . S
N489 C482 1.356 . S
N489 H492 0.984 . S
N489 H493 0.985 . S
H490 N485 0.984 . S
H491 N485 0.985 . S
H492 N489 0.984 . S
H493 N489 0.985 . S
H494 N488 0.984 . S
H495 N488 0.984 . S
H496 N484 0.984 . S
H497 N484 0.985 . S
C498 C499 1.363 . S
C498 C504 1.379 . S
C498 N506 1.356 . S
C499 C498 1.363 . S
C499 C505 1.363 . S
C500 C501 1.363 . S
C500 C505 1.379 . S
C500 N507 1.356 . S
C501 C500 1.363 . S
C501 C504 1.363 . S
N502 C504 1.356 . S
N502 H514 0.984 . S
N502 H515 0.985 . S
N503 C505 1.356 . S
N503 H508 0.984 . S
N503 H509 0.985 . S
C504 C498 1.379 . S
C504 C501 1.363 . S
C504 N502 1.356 . S
C505 C499 1.363 . S
C505 C500 1.379 . S
C505 N503 1.356 . S
N506 C498 1.356 . S
N506 H512 0.984 . S
N506 H513 0.984 . S
N507 C500 1.356 . S
N507 H510 0.984 . S
N507 H511 0.985 . S
H508 N503 0.984 . S
H509 N503 0.985 . S
H510 N507 0.984 . S
H511 N507 0.985 . S
H512 N506 0.984 . S
H513 N506 0.984 . S
H514 N502 0.984 . S
H515 N502 0.985 . S
C516 C517 1.363 . S
C516 C522 1.379 . S
C516 N524 1.356 . S
C517 C516 1.363 . S
C517 C523 1.363 . S
C518 C519 1.363 . S
C518 C523 1.379 . S
C518 N525 1.356 . S
C519 C518 1.363 . S
C519 C522 1.363 . S
N520 C522 1.356 . S
N520 H532 0.984 . S
N520 H533 0.985 . S
N521 C523 1.356 . S
N521 H526 0.984 . S
N521 H527 0.985 . S
C522 C516 1.379 . S
C522 C519 1.363 . S
C522 N520 1.356 . S
C523 C517 1.363 . S
C523 C518 1.379 . S
C523 N521 1.356 . S
N524 C516 1.356 . S
N524 H530 0.984 . S
N524 H531 0.984 . S
N525 C518 1.356 . S
N525 H528 0.984 . S
N525 H529 0.985 . S
H526 N521 0.984 . S
H527 N521 0.985 . S
H528 N525 0.984 . S
H529 N525 0.985 . S
H530 N524 0.984 . S
H531 N524 0.984 . S
H532 N520 0.984 . S
H533 N520 0.985 . S
C534 C535 1.363 . S
C534 C540 1.379 . S
C534 N542 1.356 . S
C535 C534 1.363 . S
C535 C541 1.363 . S
C536 C537 1.363 . S
C536 C541 1.379 . S
C536 N543 1.356 . S
C537 C536 1.363 . S
C537 C540 1.363 . S
N538 C540 1.356 . S
N538 H550 0.984 . S
N538 H551 0.985 . S
N539 C541 1.356 . S
N539 H544 0.984 . S
N539 H545 0.985 . S
C540 C534 1.379 . S
C540 C537 1.363 . S
C540 N538 1.356 . S
C541 C535 1.363 . S
C541 C536 1.379 . S
C541 N539 1.356 . S
N542 C534 1.356 . S
N542 H548 0.984 . S
N542 H549 0.984 . S
N543 C536 1.356 . S
N543 H546 0.984 . S
N543 H547 0.985 . S
H544 N539 0.984 . S
H545 N539 0.985 . S
H546 N543 0.984 . S
H547 N543 0.985 . S
H548 N542 0.984 . S
H549 N542 0.984 . S
H550 N538 0.984 . S
H551 N538 0.985 . S
C552 C553 1.363 . S
C552 C558 1.379 . S
C552 N560 1.356 . S
C553 C552 1.363 . S
C553 C559 1.363 . S
C554 C555 1.363 . S
C554 C559 1.379 . S
C554 N561 1.356 . S
C555 C554 1.363 . S
C555 C558 1.363 . S
N556 C558 1.356 . S
N556 H568 0.984 . S
N556 H569 0.985 . S
N557 C559 1.356 . S
N557 H562 0.984 . S
N557 H563 0.985 . S
C558 C552 1.379 . S
C558 C555 1.363 . S
C558 N556 1.356 . S
C559 C553 1.363 . S
C559 C554 1.379 . S
C559 N557 1.356 . S
N560 C552 1.356 . S
N560 H566 0.984 . S
N560 H567 0.984 . S
N561 C554 1.356 . S
N561 H564 0.984 . S
N561 H565 0.985 . S
H562 N557 0.984 . S
H563 N557 0.985 . S
H564 N561 0.984 . S
H565 N561 0.985 . S
H566 N560 0.984 . S
H567 N560 0.984 . S
H568 N556 0.984 . S
H569 N556 0.985 . S
C570 C571 1.363 . S
C570 C576 1.379 . S
C570 N578 1.356 . S
C571 C570 1.363 . S
C571 C577 1.363 . S
C572 C573 1.363 . S
C572 C577 1.379 . S
C572 N579 1.356 . S
C573 C572 1.363 . S
C573 C576 1.363 . S
N574 C576 1.356 . S
N574 H586 0.984 . S
N574 H587 0.985 . S
N575 C577 1.356 . S
N575 H580 0.984 . S
N575 H581 0.985 . S
C576 C570 1.379 . S
C576 C573 1.363 . S
C576 N574 1.356 . S
C577 C571 1.363 . S
C577 C572 1.379 . S
C577 N575 1.356 . S
N578 C570 1.356 . S
N578 H584 0.984 . S
N578 H585 0.984 . S
N579 C572 1.356 . S
N579 H582 0.984 . S
N579 H583 0.985 . S
H580 N575 0.984 . S
H581 N575 0.985 . S
H582 N579 0.984 . S
H583 N579 0.985 . S
H584 N578 0.984 . S
H585 N578 0.984 . S
H586 N574 0.984 . S
H587 N574 0.985 . S
C588 C589 1.363 . S
C588 C594 1.379 . S
C588 N596 1.356 . S
C589 C588 1.363 . S
C589 C595 1.363 . S
C590 C591 1.363 . S
C590 C595 1.379 . S
C590 N597 1.356 . S
C591 C590 1.363 . S
C591 C594 1.363 . S
N592 C594 1.356 . S
N592 H604 0.984 . S
N592 H605 0.985 . S
N593 C595 1.356 . S
N593 H598 0.984 . S
N593 H599 0.985 . S
C594 C588 1.379 . S
C594 C591 1.363 . S
C594 N592 1.356 . S
C595 C589 1.363 . S
C595 C590 1.379 . S
C595 N593 1.356 . S
N596 C588 1.356 . S
N596 H602 0.984 . S
N596 H603 0.984 . S
N597 C590 1.356 . S
N597 H600 0.984 . S
N597 H601 0.985 . S
H598 N593 0.984 . S
H599 N593 0.985 . S
H600 N597 0.984 . S
H601 N597 0.985 . S
H602 N596 0.984 . S
H603 N596 0.984 . S
H604 N592 0.984 . S
H605 N592 0.985 . S
C606 C607 1.363 . S
C606 C612 1.379 . S
C606 N614 1.356 . S
C607 C606 1.363 . S
C607 C613 1.363 . S
C608 C609 1.363 . S
C608 C613 1.379 . S
C608 N615 1.356 . S
C609 C608 1.363 . S
C609 C612 1.363 . S
N610 C612 1.356 . S
N610 H622 0.984 . S
N610 H623 0.985 . S
N611 C613 1.356 . S
N611 H616 0.984 . S
N611 H617 0.985 . S
C612 C606 1.379 . S
C612 C609 1.363 . S
C612 N610 1.356 . S
C613 C607 1.363 . S
C613 C608 1.379 . S
C613 N611 1.356 . S
N614 C606 1.356 . S
N614 H620 0.984 . S
N614 H621 0.984 . S
N615 C608 1.356 . S
N615 H618 0.984 . S
N615 H619 0.985 . S
H616 N611 0.984 . S
H617 N611 0.985 . S
H618 N615 0.984 . S
H619 N615 0.985 . S
H620 N614 0.984 . S
H621 N614 0.984 . S
H622 N610 0.984 . S
H623 N610 0.985 . S
C193 N2 1.529 . S
C195 C130 1.505 . S
C213 C108 1.505 . S
C211 N15 1.529 . S
C231 C134 1.505 . S
C229 N28 1.521 . S
C249 C112 1.505 . S
C247 N41 1.521 . S
C267 C174 1.505 . S
C265 N54 1.529 . S
C285 C152 1.505 . S
C283 N67 1.529 . S
C301 N80 1.521 . S
C303 C178 1.505 . S
C321 C156 1.505 . S
C319 N93 1.521 . S
C337 N5 1.505 . S
C339 C179 1.496 . S
C357 C157 1.496 . S
C355 N18 1.505 . S
C373 N31 1.503 . S
C375 C176 1.496 . S
C391 N44 1.503 . S
C393 C154 1.496 . S
C411 C135 1.496 . S
C409 N57 1.505 . S
C427 N70 1.505 . S
C429 C113 1.496 . S
C447 C132 1.496 . S
C445 N83 1.503 . S
C465 C110 1.496 . S
C463 N96 1.503 . S
C483 C153 1.494 . S
C481 N1 1.507 . S
C501 C175 1.494 . S
C499 N14 1.507 . S
C517 N27 1.492 . S
C519 C155 1.494 . S
C537 C177 1.494 . S
C535 N40 1.492 . S
C555 C109 1.494 . S
C553 N53 1.507 . S
C571 N66 1.507 . S
C573 C131 1.494 . S
C589 N79 1.492 . S
C591 C111 1.494 . S
C607 N92 1.492 . S
C609 C133 1.494 . S
