# Generated by pormake.
# Topology tbo, (3,4)-cn, num edge types: 1
# Building blocks:
#     Node 0, Type 0, BuildingBlock: BETDAH_clean_linker_0, # of connection points: 3
#     Node 1, Type 0, BuildingBlock: BETDAH_clean_linker_0, # of connection points: 3
#     Node 2, Type 0, BuildingBlock: BETDAH_clean_linker_0, # of connection points: 3
#     Node 3, Type 0, BuildingBlock: BETDAH_clean_linker_0, # of connection points: 3
#     Node 4, Type 0, BuildingBlock: BETDAH_clean_linker_0, # of connection points: 3
#     Node 5, Type 0, BuildingBlock: BETDAH_clean_linker_0, # of connection points: 3
#     Node 6, Type 0, BuildingBlock: BETDAH_clean_linker_0, # of connection points: 3
#     Node 7, Type 0, BuildingBlock: BETDAH_clean_linker_0, # of connection points: 3
#     Node 8, Type 0, BuildingBlock: BETDAH_clean_linker_0, # of connection points: 3
#     Node 9, Type 0, BuildingBlock: BETDAH_clean_linker_0, # of connection points: 3
#     Node 10, Type 0, BuildingBlock: BETDAH_clean_linker_0, # of connection points: 3
#     Node 11, Type 0, BuildingBlock: BETDAH_clean_linker_0, # of connection points: 3
#     Node 12, Type 0, BuildingBlock: BETDAH_clean_linker_0, # of connection points: 3
#     Node 13, Type 0, BuildingBlock: BETDAH_clean_linker_0, # of connection points: 3
#     Node 14, Type 0, BuildingBlock: BETDAH_clean_linker_0, # of connection points: 3
#     Node 15, Type 0, BuildingBlock: BETDAH_clean_linker_0, # of connection points: 3
#     Node 16, Type 0, BuildingBlock: BETDAH_clean_linker_0, # of connection points: 3
#     Node 17, Type 0, BuildingBlock: BETDAH_clean_linker_0, # of connection points: 3
#     Node 18, Type 0, BuildingBlock: BETDAH_clean_linker_0, # of connection points: 3
#     Node 19, Type 0, BuildingBlock: BETDAH_clean_linker_0, # of connection points: 3
#     Node 20, Type 0, BuildingBlock: BETDAH_clean_linker_0, # of connection points: 3
#     Node 21, Type 0, BuildingBlock: BETDAH_clean_linker_0, # of connection points: 3
#     Node 22, Type 0, BuildingBlock: BETDAH_clean_linker_0, # of connection points: 3
#     Node 23, Type 0, BuildingBlock: BETDAH_clean_linker_0, # of connection points: 3
#     Node 24, Type 0, BuildingBlock: BETDAH_clean_linker_0, # of connection points: 3
#     Node 25, Type 0, BuildingBlock: BETDAH_clean_linker_0, # of connection points: 3
#     Node 26, Type 0, BuildingBlock: BETDAH_clean_linker_0, # of connection points: 3
#     Node 27, Type 0, BuildingBlock: BETDAH_clean_linker_0, # of connection points: 3
#     Node 28, Type 0, BuildingBlock: BETDAH_clean_linker_0, # of connection points: 3
#     Node 29, Type 0, BuildingBlock: BETDAH_clean_linker_0, # of connection points: 3
#     Node 30, Type 0, BuildingBlock: BETDAH_clean_linker_0, # of connection points: 3
#     Node 31, Type 0, BuildingBlock: BETDAH_clean_linker_0, # of connection points: 3
#     Node 32, Type 1, BuildingBlock: ESEHIV_clean_sbu_0, # of connection points: 4
#     Node 33, Type 1, BuildingBlock: ESEHIV_clean_sbu_0, # of connection points: 4
#     Node 34, Type 1, BuildingBlock: ESEHIV_clean_sbu_0, # of connection points: 4
#     Node 35, Type 1, BuildingBlock: ESEHIV_clean_sbu_0, # of connection points: 4
#     Node 36, Type 1, BuildingBlock: ESEHIV_clean_sbu_0, # of connection points: 4
#     Node 37, Type 1, BuildingBlock: ESEHIV_clean_sbu_0, # of connection points: 4
#     Node 38, Type 1, BuildingBlock: ESEHIV_clean_sbu_0, # of connection points: 4
#     Node 39, Type 1, BuildingBlock: ESEHIV_clean_sbu_0, # of connection points: 4
#     Node 40, Type 1, BuildingBlock: ESEHIV_clean_sbu_0, # of connection points: 4
#     Node 41, Type 1, BuildingBlock: ESEHIV_clean_sbu_0, # of connection points: 4
#     Node 42, Type 1, BuildingBlock: ESEHIV_clean_sbu_0, # of connection points: 4
#     Node 43, Type 1, BuildingBlock: ESEHIV_clean_sbu_0, # of connection points: 4
#     Node 44, Type 1, BuildingBlock: ESEHIV_clean_sbu_0, # of connection points: 4
#     Node 45, Type 1, BuildingBlock: ESEHIV_clean_sbu_0, # of connection points: 4
#     Node 46, Type 1, BuildingBlock: ESEHIV_clean_sbu_0, # of connection points: 4
#     Node 47, Type 1, BuildingBlock: ESEHIV_clean_sbu_0, # of connection points: 4
#     Node 48, Type 1, BuildingBlock: ESEHIV_clean_sbu_0, # of connection points: 4
#     Node 49, Type 1, BuildingBlock: ESEHIV_clean_sbu_0, # of connection points: 4
#     Node 50, Type 1, BuildingBlock: ESEHIV_clean_sbu_0, # of connection points: 4
#     Node 51, Type 1, BuildingBlock: ESEHIV_clean_sbu_0, # of connection points: 4
#     Node 52, Type 1, BuildingBlock: ESEHIV_clean_sbu_0, # of connection points: 4
#     Node 53, Type 1, BuildingBlock: ESEHIV_clean_sbu_0, # of connection points: 4
#     Node 54, Type 1, BuildingBlock: ESEHIV_clean_sbu_0, # of connection points: 4
#     Node 55, Type 1, BuildingBlock: ESEHIV_clean_sbu_0, # of connection points: 4
#     Edge 56, Type (0, 1), BuildingBlock: KIFKEQ_clean_linker_1, # of connection points: 2
#     Edge 57, Type (0, 1), BuildingBlock: KIFKEQ_clean_linker_1, # of connection points: 2
#     Edge 58, Type (0, 1), BuildingBlock: KIFKEQ_clean_linker_1, # of connection points: 2
#     Edge 59, Type (0, 1), BuildingBlock: KIFKEQ_clean_linker_1, # of connection points: 2
#     Edge 60, Type (0, 1), BuildingBlock: KIFKEQ_clean_linker_1, # of connection points: 2
#     Edge 61, Type (0, 1), BuildingBlock: KIFKEQ_clean_linker_1, # of connection points: 2
#     Edge 62, Type (0, 1), BuildingBlock: KIFKEQ_clean_linker_1, # of connection points: 2
#     Edge 63, Type (0, 1), BuildingBlock: KIFKEQ_clean_linker_1, # of connection points: 2
#     Edge 64, Type (0, 1), BuildingBlock: KIFKEQ_clean_linker_1, # of connection points: 2
#     Edge 65, Type (0, 1), BuildingBlock: KIFKEQ_clean_linker_1, # of connection points: 2
#     Edge 66, Type (0, 1), BuildingBlock: KIFKEQ_clean_linker_1, # of connection points: 2
#     Edge 67, Type (0, 1), BuildingBlock: KIFKEQ_clean_linker_1, # of connection points: 2
#     Edge 68, Type (0, 1), BuildingBlock: KIFKEQ_clean_linker_1, # of connection points: 2
#     Edge 69, Type (0, 1), BuildingBlock: KIFKEQ_clean_linker_1, # of connection points: 2
#     Edge 70, Type (0, 1), BuildingBlock: KIFKEQ_clean_linker_1, # of connection points: 2
#     Edge 71, Type (0, 1), BuildingBlock: KIFKEQ_clean_linker_1, # of connection points: 2
#     Edge 72, Type (0, 1), BuildingBlock: KIFKEQ_clean_linker_1, # of connection points: 2
#     Edge 73, Type (0, 1), BuildingBlock: KIFKEQ_clean_linker_1, # of connection points: 2
#     Edge 74, Type (0, 1), BuildingBlock: KIFKEQ_clean_linker_1, # of connection points: 2
#     Edge 75, Type (0, 1), BuildingBlock: KIFKEQ_clean_linker_1, # of connection points: 2
#     Edge 76, Type (0, 1), BuildingBlock: KIFKEQ_clean_linker_1, # of connection points: 2
#     Edge 77, Type (0, 1), BuildingBlock: KIFKEQ_clean_linker_1, # of connection points: 2
#     Edge 78, Type (0, 1), BuildingBlock: KIFKEQ_clean_linker_1, # of connection points: 2
#     Edge 79, Type (0, 1), BuildingBlock: KIFKEQ_clean_linker_1, # of connection points: 2
#     Edge 80, Type (0, 1), BuildingBlock: KIFKEQ_clean_linker_1, # of connection points: 2
#     Edge 81, Type (0, 1), BuildingBlock: KIFKEQ_clean_linker_1, # of connection points: 2
#     Edge 82, Type (0, 1), BuildingBlock: KIFKEQ_clean_linker_1, # of connection points: 2
#     Edge 83, Type (0, 1), BuildingBlock: KIFKEQ_clean_linker_1, # of connection points: 2
#     Edge 84, Type (0, 1), BuildingBlock: KIFKEQ_clean_linker_1, # of connection points: 2
#     Edge 85, Type (0, 1), BuildingBlock: KIFKEQ_clean_linker_1, # of connection points: 2
#     Edge 86, Type (0, 1), BuildingBlock: KIFKEQ_clean_linker_1, # of connection points: 2
#     Edge 87, Type (0, 1), BuildingBlock: KIFKEQ_clean_linker_1, # of connection points: 2
#     Edge 88, Type (0, 1), BuildingBlock: KIFKEQ_clean_linker_1, # of connection points: 2
#     Edge 89, Type (0, 1), BuildingBlock: KIFKEQ_clean_linker_1, # of connection points: 2
#     Edge 90, Type (0, 1), BuildingBlock: KIFKEQ_clean_linker_1, # of connection points: 2
#     Edge 91, Type (0, 1), BuildingBlock: KIFKEQ_clean_linker_1, # of connection points: 2
#     Edge 92, Type (0, 1), BuildingBlock: KIFKEQ_clean_linker_1, # of connection points: 2
#     Edge 93, Type (0, 1), BuildingBlock: KIFKEQ_clean_linker_1, # of connection points: 2
#     Edge 94, Type (0, 1), BuildingBlock: KIFKEQ_clean_linker_1, # of connection points: 2
#     Edge 95, Type (0, 1), BuildingBlock: KIFKEQ_clean_linker_1, # of connection points: 2
#     Edge 96, Type (0, 1), BuildingBlock: KIFKEQ_clean_linker_1, # of connection points: 2
#     Edge 97, Type (0, 1), BuildingBlock: KIFKEQ_clean_linker_1, # of connection points: 2
#     Edge 98, Type (0, 1), BuildingBlock: KIFKEQ_clean_linker_1, # of connection points: 2
#     Edge 99, Type (0, 1), BuildingBlock: KIFKEQ_clean_linker_1, # of connection points: 2
#     Edge 100, Type (0, 1), BuildingBlock: KIFKEQ_clean_linker_1, # of connection points: 2
#     Edge 101, Type (0, 1), BuildingBlock: KIFKEQ_clean_linker_1, # of connection points: 2
#     Edge 102, Type (0, 1), BuildingBlock: KIFKEQ_clean_linker_1, # of connection points: 2
#     Edge 103, Type (0, 1), BuildingBlock: KIFKEQ_clean_linker_1, # of connection points: 2
#     Edge 104, Type (0, 1), BuildingBlock: KIFKEQ_clean_linker_1, # of connection points: 2
#     Edge 105, Type (0, 1), BuildingBlock: KIFKEQ_clean_linker_1, # of connection points: 2
#     Edge 106, Type (0, 1), BuildingBlock: KIFKEQ_clean_linker_1, # of connection points: 2
#     Edge 107, Type (0, 1), BuildingBlock: KIFKEQ_clean_linker_1, # of connection points: 2
#     Edge 108, Type (0, 1), BuildingBlock: KIFKEQ_clean_linker_1, # of connection points: 2
#     Edge 109, Type (0, 1), BuildingBlock: KIFKEQ_clean_linker_1, # of connection points: 2
#     Edge 110, Type (0, 1), BuildingBlock: KIFKEQ_clean_linker_1, # of connection points: 2
#     Edge 111, Type (0, 1), BuildingBlock: KIFKEQ_clean_linker_1, # of connection points: 2
#     Edge 112, Type (0, 1), BuildingBlock: KIFKEQ_clean_linker_1, # of connection points: 2
#     Edge 113, Type (0, 1), BuildingBlock: KIFKEQ_clean_linker_1, # of connection points: 2
#     Edge 114, Type (0, 1), BuildingBlock: KIFKEQ_clean_linker_1, # of connection points: 2
#     Edge 115, Type (0, 1), BuildingBlock: KIFKEQ_clean_linker_1, # of connection points: 2
#     Edge 116, Type (0, 1), BuildingBlock: KIFKEQ_clean_linker_1, # of connection points: 2
#     Edge 117, Type (0, 1), BuildingBlock: KIFKEQ_clean_linker_1, # of connection points: 2
#     Edge 118, Type (0, 1), BuildingBlock: KIFKEQ_clean_linker_1, # of connection points: 2
#     Edge 119, Type (0, 1), BuildingBlock: KIFKEQ_clean_linker_1, # of connection points: 2
#     Edge 120, Type (0, 1), BuildingBlock: KIFKEQ_clean_linker_1, # of connection points: 2
#     Edge 121, Type (0, 1), BuildingBlock: KIFKEQ_clean_linker_1, # of connection points: 2
#     Edge 122, Type (0, 1), BuildingBlock: KIFKEQ_clean_linker_1, # of connection points: 2
#     Edge 123, Type (0, 1), BuildingBlock: KIFKEQ_clean_linker_1, # of connection points: 2
#     Edge 124, Type (0, 1), BuildingBlock: KIFKEQ_clean_linker_1, # of connection points: 2
#     Edge 125, Type (0, 1), BuildingBlock: KIFKEQ_clean_linker_1, # of connection points: 2
#     Edge 126, Type (0, 1), BuildingBlock: KIFKEQ_clean_linker_1, # of connection points: 2
#     Edge 127, Type (0, 1), BuildingBlock: KIFKEQ_clean_linker_1, # of connection points: 2
#     Edge 128, Type (0, 1), BuildingBlock: KIFKEQ_clean_linker_1, # of connection points: 2
#     Edge 129, Type (0, 1), BuildingBlock: KIFKEQ_clean_linker_1, # of connection points: 2
#     Edge 130, Type (0, 1), BuildingBlock: KIFKEQ_clean_linker_1, # of connection points: 2
#     Edge 131, Type (0, 1), BuildingBlock: KIFKEQ_clean_linker_1, # of connection points: 2
#     Edge 132, Type (0, 1), BuildingBlock: KIFKEQ_clean_linker_1, # of connection points: 2
#     Edge 133, Type (0, 1), BuildingBlock: KIFKEQ_clean_linker_1, # of connection points: 2
#     Edge 134, Type (0, 1), BuildingBlock: KIFKEQ_clean_linker_1, # of connection points: 2
#     Edge 135, Type (0, 1), BuildingBlock: KIFKEQ_clean_linker_1, # of connection points: 2
#     Edge 136, Type (0, 1), BuildingBlock: KIFKEQ_clean_linker_1, # of connection points: 2
#     Edge 137, Type (0, 1), BuildingBlock: KIFKEQ_clean_linker_1, # of connection points: 2
#     Edge 138, Type (0, 1), BuildingBlock: KIFKEQ_clean_linker_1, # of connection points: 2
#     Edge 139, Type (0, 1), BuildingBlock: KIFKEQ_clean_linker_1, # of connection points: 2
#     Edge 140, Type (0, 1), BuildingBlock: KIFKEQ_clean_linker_1, # of connection points: 2
#     Edge 141, Type (0, 1), BuildingBlock: KIFKEQ_clean_linker_1, # of connection points: 2
#     Edge 142, Type (0, 1), BuildingBlock: KIFKEQ_clean_linker_1, # of connection points: 2
#     Edge 143, Type (0, 1), BuildingBlock: KIFKEQ_clean_linker_1, # of connection points: 2
#     Edge 144, Type (0, 1), BuildingBlock: KIFKEQ_clean_linker_1, # of connection points: 2
#     Edge 145, Type (0, 1), BuildingBlock: KIFKEQ_clean_linker_1, # of connection points: 2
#     Edge 146, Type (0, 1), BuildingBlock: KIFKEQ_clean_linker_1, # of connection points: 2
#     Edge 147, Type (0, 1), BuildingBlock: KIFKEQ_clean_linker_1, # of connection points: 2
#     Edge 148, Type (0, 1), BuildingBlock: KIFKEQ_clean_linker_1, # of connection points: 2
#     Edge 149, Type (0, 1), BuildingBlock: KIFKEQ_clean_linker_1, # of connection points: 2
#     Edge 150, Type (0, 1), BuildingBlock: KIFKEQ_clean_linker_1, # of connection points: 2
#     Edge 151, Type (0, 1), BuildingBlock: KIFKEQ_clean_linker_1, # of connection points: 2
# Relax obj value: 0.024
# Max RMSD: 0.143
# Mean RMSD: 0.107
data_MOF--net-tbo--node1-ESEHIV_clean_sbu_0--node2-BETDAH_clean_linker_0--edge1-KIFKEQ_clean_linker_1
_symmetry_space_group_name_H-M    P1
_symmetry_Int_Tables_number       1
_symmetry_cell_setting            triclinic
loop_
_symmetry_equiv_pos_as_xyz
'x, y, z'
_cell_length_a     71.012497
_cell_length_b     72.536357
_cell_length_c     77.069697
_cell_angle_alpha  90.331027
_cell_angle_beta   93.44635
_cell_angle_gamma 100.08756
loop_
_atom_site_label
_atom_site_type_symbol
_atom_site_fract_x
_atom_site_fract_y
_atom_site_fract_z
_atom_type_partial_charge
H0 H 0.22731 0.13411 0.18933 0.0
H1 H 0.17972 0.13894 0.22042 0.0
H2 H 0.19293 0.1763 0.17811 0.0
C3 C 0.21567 0.14118 0.19242 0.0
C4 C 0.21171 0.15607 0.18197 0.0
C5 C 0.20425 0.13476 0.20632 0.0
C6 C 0.18861 0.14365 0.20982 0.0
C7 C 0.18457 0.15868 0.19955 0.0
C8 C 0.19611 0.16463 0.18578 0.0
N9 N 0.16898 0.16822 0.2021 0.0
C10 C 0.15671 0.1666 0.21572 0.0
H11 H 0.8904 0.1613 0.19523 0.0
H12 H 0.88194 0.19953 0.15413 0.0
H13 H 0.83982 0.15021 0.16056 0.0
C14 C 0.88195 0.16507 0.18405 0.0
C15 C 0.86433 0.15371 0.17906 0.0
C16 C 0.88845 0.18163 0.17513 0.0
C17 C 0.87701 0.18683 0.16107 0.0
C18 C 0.8594 0.17539 0.15589 0.0
C19 C 0.85328 0.15899 0.16487 0.0
N20 N 0.84736 0.17973 0.1417 0.0
C21 C 0.85121 0.19551 0.13155 0.0
H22 H 0.89846 0.80446 0.16535 0.0
H23 H 0.88701 0.84188 0.20586 0.0
H24 H 0.85059 0.83316 0.1591 0.0
C25 C 0.88995 0.81403 0.17043 0.0
C26 C 0.87383 0.81756 0.16032 0.0
C27 C 0.89488 0.82248 0.1871 0.0
C28 C 0.88378 0.83539 0.19309 0.0
C29 C 0.86787 0.83929 0.18287 0.0
C30 C 0.86294 0.83014 0.16679 0.0
N31 N 0.85584 0.85169 0.18834 0.0
C32 C 0.85975 0.86502 0.20176 0.0
H33 H 0.18402 0.82684 0.19944 0.0
H34 H 0.24087 0.81989 0.18742 0.0
H35 H 0.19477 0.773 0.18308 0.0
C36 C 0.19375 0.81822 0.19481 0.0
C37 C 0.18694 0.7991 0.19115 0.0
C38 C 0.21319 0.82603 0.19351 0.0
C39 C 0.22583 0.8143 0.18864 0.0
C40 C 0.2192 0.79535 0.18475 0.0
C41 C 0.19976 0.78776 0.18589 0.0
N42 N 0.23246 0.78397 0.18023 0.0
C43 C 0.22978 0.77326 0.16505 0.0
H44 H 0.17438 0.89324 0.84795 0.0
H45 H 0.15019 0.85172 0.8837 0.0
H46 H 0.20613 0.88383 0.89566 0.0
C47 C 0.17568 0.88574 0.85996 0.0
C48 C 0.19219 0.89045 0.8713 0.0
C49 C 0.16046 0.87177 0.86428 0.0
C50 C 0.16173 0.86266 0.8802 0.0
C51 C 0.17811 0.86683 0.89142 0.0
C52 C 0.19341 0.88063 0.88693 0.0
N53 N 0.17855 0.85692 0.90719 0.0
C54 C 0.19523 0.85449 0.91654 0.0
H55 H 0.25665 0.17677 0.90104 0.0
H56 H 0.21573 0.21396 0.89193 0.0
H57 H 0.22222 0.17371 0.85299 0.0
C58 C 0.24585 0.18184 0.89282 0.0
C59 C 0.24117 0.17383 0.87602 0.0
C60 C 0.23673 0.19633 0.89898 0.0
C61 C 0.22263 0.20264 0.88785 0.0
C62 C 0.21744 0.19436 0.87131 0.0
C63 C 0.22664 0.18007 0.86567 0.0
N64 N 0.20293 0.19966 0.85979 0.0
C65 C 0.19307 0.21449 0.86176 0.0
H66 H 0.90897 0.16797 0.84126 0.0
H67 H 0.90821 0.20507 0.88473 0.0
H68 H 0.86567 0.15504 0.8782 0.0
C69 C 0.90282 0.17122 0.8532 0.0
C70 C 0.88657 0.15932 0.85868 0.0
C71 C 0.91066 0.18774 0.86248 0.0
C72 C 0.90209 0.19238 0.87749 0.0
C73 C 0.88583 0.18058 0.8832 0.0
C74 C 0.87819 0.1641 0.87376 0.0
N75 N 0.87677 0.18489 0.89829 0.0
C76 C 0.88179 0.20168 0.90763 0.0
H77 H 0.87333 0.82644 0.86966 0.0
H78 H 0.87817 0.86114 0.82462 0.0
H79 H 0.83851 0.86945 0.86259 0.0
C80 C 0.86913 0.83785 0.86223 0.0
C81 C 0.855 0.84741 0.86833 0.0
C82 C 0.87749 0.84248 0.84636 0.0
C83 C 0.87159 0.85702 0.83666 0.0
C84 C 0.85755 0.8667 0.84226 0.0
C85 C 0.84913 0.86181 0.85808 0.0
N86 N 0.85308 0.88152 0.83158 0.0
C87 C 0.83853 0.89205 0.83291 0.0
H88 H 0.23235 0.6645 0.6642 0.0
H89 H 0.20695 0.66278 0.71353 0.0
H90 H 0.19384 0.70239 0.67539 0.0
C91 C 0.22281 0.66948 0.67288 0.0
C92 C 0.21327 0.68428 0.66763 0.0
C93 C 0.22088 0.66169 0.68951 0.0
C94 C 0.20886 0.66871 0.70074 0.0
C95 C 0.19886 0.68308 0.69578 0.0
C96 C 0.20119 0.69103 0.67921 0.0
N97 N 0.18742 0.68936 0.7084 0.0
C98 C 0.17295 0.70005 0.70604 0.0
H99 H 0.90546 0.6881 0.70942 0.0
H100 H 0.88876 0.70946 0.66 0.0
H101 H 0.86168 0.65499 0.67569 0.0
C102 C 0.8966 0.68636 0.69738 0.0
C103 C 0.88321 0.6698 0.69427 0.0
C104 C 0.89878 0.70068 0.68504 0.0
C105 C 0.88721 0.69842 0.66947 0.0
C106 C 0.87368 0.68196 0.66621 0.0
C107 C 0.8719 0.66775 0.67853 0.0
N108 N 0.86169 0.67912 0.65066 0.0
C109 C 0.86032 0.69285 0.63838 0.0
H110 H 0.89916 0.32519 0.68014 0.0
H111 H 0.89148 0.37323 0.71045 0.0
H112 H 0.85564 0.3571 0.66422 0.0
C113 C 0.89193 0.33694 0.68202 0.0
C114 C 0.87673 0.33949 0.67018 0.0
C115 C 0.89769 0.34913 0.6965 0.0
C116 C 0.88729 0.36368 0.6995 0.0
C117 C 0.87189 0.36627 0.68791 0.0
C118 C 0.86704 0.3544 0.6733 0.0
N119 N 0.86106 0.38085 0.68993 0.0
C120 C 0.86168 0.3929 0.7042 0.0
H121 H 0.17503 0.35609 0.71863 0.0
H122 H 0.22495 0.36449 0.68884 0.0
H123 H 0.18538 0.31239 0.68412 0.0
C124 C 0.18381 0.35091 0.70932 0.0
C125 C 0.17822 0.33281 0.70199 0.0
C126 C 0.20038 0.36255 0.7043 0.0
C127 C 0.21179 0.35577 0.69243 0.0
C128 C 0.2065 0.33784 0.68509 0.0
C129 C 0.18946 0.3264 0.68961 0.0
N130 N 0.21919 0.33165 0.67379 0.0
C131 C 0.21393 0.31788 0.661 0.0
H132 H 0.16212 0.36433 0.34033 0.0
H133 H 0.15378 0.33038 0.38571 0.0
H134 H 0.20209 0.3752 0.38503 0.0
C135 C 0.16653 0.36112 0.35352 0.0
C136 C 0.18309 0.37182 0.36179 0.0
C137 C 0.15602 0.34593 0.36188 0.0
C138 C 0.16201 0.34178 0.37886 0.0
C139 C 0.17865 0.35203 0.38718 0.0
C140 C 0.18937 0.36699 0.37855 0.0
N141 N 0.18365 0.34718 0.40442 0.0
C142 C 0.20202 0.35074 0.41239 0.0
H143 H 0.25975 0.64052 0.37745 0.0
H144 H 0.21648 0.67556 0.37033 0.0
H145 H 0.22641 0.63915 0.32907 0.0
C146 C 0.24839 0.64527 0.36965 0.0
C147 C 0.244 0.6379 0.35269 0.0
C148 C 0.23876 0.65905 0.37632 0.0
C149 C 0.22433 0.66529 0.36551 0.0
C150 C 0.22004 0.65819 0.34839 0.0
C151 C 0.23 0.64471 0.34217 0.0
N152 N 0.20606 0.6642 0.33672 0.0
C153 C 0.1926 0.67534 0.34042 0.0
H154 H 0.87708 0.64594 0.31653 0.0
H155 H 0.89114 0.70474 0.32931 0.0
H156 H 0.84163 0.67137 0.34955 0.0
C157 C 0.87408 0.65808 0.32338 0.0
C158 C 0.85778 0.65648 0.33323 0.0
C159 C 0.88622 0.67542 0.32183 0.0
C160 C 0.88182 0.69128 0.33013 0.0
C161 C 0.86595 0.6899 0.34022 0.0
C162 C 0.85396 0.67248 0.34177 0.0
N163 N 0.86254 0.70633 0.34864 0.0
C164 C 0.85109 0.70616 0.36265 0.0
H165 H 0.87494 0.30821 0.3836 0.0
H166 H 0.86818 0.33952 0.33696 0.0
H167 H 0.82831 0.33877 0.37662 0.0
C168 C 0.86741 0.31748 0.37604 0.0
C169 C 0.85112 0.32312 0.38259 0.0
C170 C 0.87369 0.32303 0.35951 0.0
C171 C 0.86386 0.33525 0.34978 0.0
C172 C 0.84777 0.34126 0.35619 0.0
C173 C 0.84138 0.33493 0.37236 0.0
N174 N 0.83577 0.35068 0.34532 0.0
C175 C 0.84072 0.3689 0.33933 0.0
H176 H 0.73005 0.15751 0.66159 0.0
H177 H 0.68696 0.16029 0.69846 0.0
H178 H 0.68854 0.19336 0.65242 0.0
C179 C 0.71796 0.16323 0.66582 0.0
C180 C 0.71076 0.17664 0.65539 0.0
C181 C 0.70964 0.15712 0.68152 0.0
C182 C 0.69367 0.16471 0.68657 0.0
C183 C 0.68611 0.17778 0.67598 0.0
C184 C 0.6947 0.18353 0.66057 0.0
N185 N 0.66906 0.18456 0.67943 0.0
C186 C 0.66202 0.18722 0.69557 0.0
H187 H 0.38855 0.2095 0.72196 0.0
H188 H 0.37683 0.24824 0.68241 0.0
H189 H 0.3344 0.2001 0.69215 0.0
C190 C 0.3789 0.21368 0.7119 0.0
C191 C 0.36075 0.20265 0.70828 0.0
C192 C 0.38481 0.23007 0.70257 0.0
C193 C 0.37233 0.23557 0.68954 0.0
C194 C 0.35396 0.22484 0.68605 0.0
C195 C 0.3484 0.20846 0.69533 0.0
N196 N 0.34056 0.22995 0.67338 0.0
C197 C 0.34387 0.24548 0.66281 0.0
H198 H 0.39537 0.83746 0.6898 0.0
H199 H 0.38966 0.88337 0.7238 0.0
H200 H 0.35318 0.87185 0.67704 0.0
C201 C 0.38858 0.84927 0.69272 0.0
C202 C 0.37355 0.85322 0.68143 0.0
C203 C 0.39466 0.86005 0.70799 0.0
C204 C 0.38511 0.8749 0.71218 0.0
C205 C 0.37006 0.8791 0.70093 0.0
C206 C 0.36453 0.86826 0.68572 0.0
N207 N 0.36025 0.89428 0.70386 0.0
C208 C 0.36177 0.9061 0.71843 0.0
H209 H 0.67855 0.86199 0.69639 0.0
H210 H 0.72954 0.84463 0.6794 0.0
H211 H 0.68112 0.80342 0.69107 0.0
C212 C 0.68628 0.85098 0.69301 0.0
C213 C 0.67741 0.83219 0.69429 0.0
C214 C 0.70517 0.85574 0.68787 0.0
C215 C 0.71483 0.84135 0.68302 0.0
C216 C 0.70596 0.82255 0.68394 0.0
C217 C 0.68742 0.81802 0.68968 0.0
N218 N 0.71634 0.80806 0.68086 0.0
C219 C 0.71886 0.80234 0.66411 0.0
H220 H 0.66401 0.87446 0.35377 0.0
H221 H 0.64445 0.83723 0.39481 0.0
H222 H 0.70082 0.87054 0.39957 0.0
C223 C 0.66644 0.86852 0.36642 0.0
C224 C 0.68405 0.87418 0.37594 0.0
C225 C 0.65203 0.85513 0.37303 0.0
C226 C 0.65531 0.84772 0.38952 0.0
C227 C 0.67286 0.85298 0.39902 0.0
C228 C 0.6873 0.86615 0.39216 0.0
N229 N 0.67538 0.84478 0.41547 0.0
C230 C 0.69309 0.84411 0.42388 0.0
H231 H 0.74606 0.13765 0.3656 0.0
H232 H 0.69834 0.16743 0.36294 0.0
H233 H 0.70431 0.12818 0.32246 0.0
C234 C 0.73316 0.14077 0.35888 0.0
C235 C 0.72658 0.13147 0.34308 0.0
C236 C 0.72304 0.15357 0.36642 0.0
C237 C 0.70641 0.15779 0.35731 0.0
C238 C 0.69966 0.1485 0.34137 0.0
C239 C 0.70971 0.13534 0.33461 0.0
N240 N 0.68215 0.15055 0.33217 0.0
C241 C 0.67213 0.16546 0.33263 0.0
H242 H 0.40185 0.16249 0.33366 0.0
H243 H 0.38143 0.20045 0.36835 0.0
H244 H 0.34778 0.14626 0.35643 0.0
C245 C 0.39105 0.1657 0.342 0.0
C246 C 0.37473 0.15218 0.34426 0.0
C247 C 0.39366 0.18317 0.35071 0.0
C248 C 0.37972 0.18694 0.36183 0.0
C249 C 0.36311 0.17356 0.36377 0.0
C250 C 0.36074 0.15638 0.35497 0.0
N251 N 0.3481 0.17703 0.37393 0.0
C252 C 0.35026 0.19017 0.38735 0.0
H253 H 0.36239 0.80746 0.39136 0.0
H254 H 0.35741 0.83336 0.34172 0.0
H255 H 0.31869 0.84127 0.38059 0.0
C256 C 0.35524 0.81603 0.38261 0.0
C257 C 0.33945 0.82358 0.38816 0.0
C258 C 0.36209 0.81959 0.36596 0.0
C259 C 0.35292 0.83099 0.35484 0.0
C260 C 0.33768 0.83919 0.36011 0.0
C261 C 0.33101 0.8356 0.37684 0.0
N262 N 0.32838 0.84927 0.34742 0.0
C263 C 0.31949 0.86464 0.35015 0.0
H264 H 0.72686 0.67438 0.16939 0.0
H265 H 0.68363 0.65983 0.20621 0.0
H266 H 0.67622 0.6998 0.16703 0.0
C267 C 0.71377 0.67671 0.17484 0.0
C268 C 0.70297 0.68916 0.16657 0.0
C269 C 0.70728 0.66621 0.18938 0.0
C270 C 0.68936 0.66814 0.19548 0.0
C271 C 0.6782 0.68019 0.18737 0.0
C272 C 0.68517 0.69077 0.17318 0.0
N273 N 0.65844 0.67821 0.1906 0.0
C274 C 0.65067 0.6884 0.2029 0.0
H275 H 0.37142 0.68356 0.20999 0.0
H276 H 0.36397 0.72483 0.17142 0.0
H277 H 0.32132 0.67537 0.17458 0.0
C278 C 0.36303 0.68831 0.19926 0.0
C279 C 0.34554 0.67723 0.1933 0.0
C280 C 0.3698 0.70551 0.19143 0.0
C281 C 0.35895 0.71154 0.17739 0.0
C282 C 0.3413 0.70068 0.17156 0.0
C283 C 0.33476 0.68373 0.17954 0.0
N284 N 0.32944 0.70637 0.15791 0.0
C285 C 0.33528 0.72026 0.1461 0.0
H286 H 0.40145 0.30629 0.18057 0.0
H287 H 0.41979 0.34465 0.22332 0.0
H288 H 0.3719 0.35261 0.18923 0.0
C289 C 0.39971 0.31855 0.18798 0.0
C290 C 0.38507 0.32874 0.1828 0.0
C291 C 0.41243 0.32427 0.20247 0.0
C292 C 0.41011 0.3401 0.21209 0.0
C293 C 0.39544 0.35017 0.20767 0.0
C294 C 0.38287 0.34451 0.19298 0.0
N295 N 0.39457 0.36615 0.21825 0.0
C296 C 0.38057 0.37746 0.21791 0.0
H297 H 0.70156 0.37343 0.20384 0.0
H298 H 0.73515 0.3787 0.15907 0.0
H299 H 0.69153 0.33 0.16451 0.0
C300 C 0.70527 0.36765 0.19175 0.0
C301 C 0.69512 0.35033 0.18558 0.0
C302 C 0.71968 0.37794 0.18232 0.0
C303 C 0.72397 0.37078 0.16635 0.0
C304 C 0.71384 0.35339 0.1599 0.0
C305 C 0.69928 0.34339 0.16946 0.0
N306 N 0.71795 0.34555 0.14393 0.0
C307 C 0.73423 0.35205 0.13505 0.0
H308 H 0.7022 0.38631 0.84009 0.0
H309 H 0.67999 0.33375 0.86326 0.0
H310 H 0.73261 0.36671 0.88433 0.0
C311 C 0.70327 0.37597 0.85003 0.0
C312 C 0.71912 0.37849 0.86225 0.0
C313 C 0.68924 0.3597 0.85011 0.0
C314 C 0.69089 0.34622 0.86283 0.0
C315 C 0.70632 0.3486 0.8752 0.0
C316 C 0.72054 0.36473 0.87483 0.0
N317 N 0.707 0.33442 0.88773 0.0
C318 C 0.7215 0.33499 0.90071 0.0
H319 H 0.74925 0.65201 0.87796 0.0
H320 H 0.70384 0.68469 0.87346 0.0
H321 H 0.70804 0.64382 0.83416 0.0
C322 C 0.73654 0.65541 0.87114 0.0
C323 C 0.7298 0.64619 0.85523 0.0
C324 C 0.72747 0.66956 0.87785 0.0
C325 C 0.71126 0.67419 0.8684 0.0
C326 C 0.70428 0.66487 0.85264 0.0
C327 C 0.71358 0.65098 0.84628 0.0
N328 N 0.68778 0.66864 0.84283 0.0
C329 C 0.67844 0.68381 0.84495 0.0
H330 H 0.37969 0.65279 0.81233 0.0
H331 H 0.38421 0.7122 0.81997 0.0
H332 H 0.33759 0.67482 0.84044 0.0
C333 C 0.37427 0.66452 0.81771 0.0
C334 C 0.35725 0.66143 0.82662 0.0
C335 C 0.38414 0.68277 0.81525 0.0
C336 C 0.37666 0.69802 0.8215 0.0
C337 C 0.3601 0.69524 0.8307 0.0
C338 C 0.35044 0.67694 0.83332 0.0
N339 N 0.35363 0.71115 0.83731 0.0
C340 C 0.34293 0.71061 0.85183 0.0
H341 H 0.39968 0.3122 0.89256 0.0
H342 H 0.39176 0.35452 0.855 0.0
H343 H 0.35886 0.34827 0.90033 0.0
C344 C 0.39259 0.32358 0.88825 0.0
C345 C 0.37866 0.32901 0.89843 0.0
C346 C 0.39743 0.33256 0.87251 0.0
C347 C 0.38823 0.34753 0.86706 0.0
C348 C 0.37416 0.35309 0.8771 0.0
C349 C 0.36953 0.34375 0.89262 0.0
N350 N 0.36407 0.36783 0.87231 0.0
C351 C 0.36614 0.37926 0.85778 0.0
Cu352 Cu 0.30584 0.24835 0.04725 0.0
N353 N 0.3259 0.24966 0.0322 0.0
N354 N 0.34233 0.25946 1.00891 0.0
C355 C 0.33125 0.264 0.02142 0.0
C356 C 0.34429 0.2416 1.01224 0.0
C357 C 0.33408 0.23558 0.02647 0.0
O358 O 0.2829 0.24343 0.03131 0.0
C359 C 0.3037 0.2722 0.07661 0.0
O360 O 0.28842 0.25997 0.07982 0.0
H361 H 0.32624 0.27719 0.02225 0.0
H362 H 0.33161 0.22151 0.03145 0.0
N363 N 0.30452 0.22799 0.06251 0.0
N364 N 0.29338 0.20881 0.08387 0.0
C365 C 0.28904 0.22041 0.07109 0.0
C366 C 0.31915 0.22073 0.06992 0.0
C367 C 0.31235 0.20886 0.08298 0.0
C368 C 0.27976 0.25358 0.01835 0.0
O369 O 0.28894 0.27092 0.01802 0.0
H370 H 0.27505 0.22416 0.06854 0.0
H371 H 0.33395 0.22469 0.06681 0.0
O372 O 0.31135 0.27102 0.06216 0.0
H373 H 0.35142 0.23298 1.00424 0.0
H374 H 0.32101 0.20181 0.09185 0.0
Cu375 Cu 0.84874 0.32238 0.0202 0.0
N376 N 0.85027 0.34291 0.03516 0.0
N377 N 0.84023 0.35861 0.0568 0.0
C378 C 0.84086 0.34167 0.04983 0.0
C379 C 0.84975 0.37112 0.04608 0.0
C380 C 0.85603 0.36135 0.03272 0.0
O381 O 0.84658 0.30039 0.03447 0.0
C382 C 0.82675 0.33452 0.99344 0.0
O383 O 0.84207 0.34763 0.99339 0.0
H384 H 0.83311 0.32859 0.05443 0.0
H385 H 0.86309 0.36729 0.02147 0.0
N386 N 0.86957 0.32246 1.00662 0.0
N387 N 0.88536 0.31097 0.98605 0.0
C388 C 0.86813 0.31191 0.99206 0.0
C389 C 0.88845 0.32863 1.01 0.0
C390 C 0.89828 0.32146 0.99731 0.0
C391 C 0.86018 0.29968 0.04583 0.0
O392 O 0.87486 0.31355 0.04699 0.0
H393 H 0.85471 0.30381 0.98681 0.0
H394 H 0.89465 0.33672 0.02142 0.0
O395 O 0.82632 0.32156 1.00452 0.0
H396 H 0.85124 0.38618 0.04733 0.0
H397 H 0.91369 0.32314 0.99684 0.0
Cu398 Cu 0.78725 0.76303 0.01839 0.0
N399 N 0.79072 0.78487 1.0049 0.0
N400 N 0.79915 0.80356 0.98243 0.0
C401 C 0.79971 0.78677 0.98989 0.0
C402 C 0.78939 0.81253 0.99331 0.0
C403 C 0.7842 0.801 1.0071 0.0
O404 O 0.78189 0.74225 1.00121 0.0
C405 C 0.82129 0.77786 0.03931 0.0
O406 O 0.82136 0.7928 0.02977 0.0
H407 H 0.80607 0.77576 0.98434 0.0
H408 H 0.7761 0.80408 0.01786 0.0
N409 N 0.76634 0.76125 0.03265 0.0
N410 N 0.74825 0.75228 0.05505 0.0
C411 C 0.76551 0.75298 0.04834 0.0
C412 C 0.74905 0.76619 0.02949 0.0
C413 C 0.73782 0.76053 0.0432 0.0
C414 C 0.7677 0.74315 0.99041 0.0
O415 O 0.75813 0.75688 0.99237 0.0
H416 H 0.77713 0.747 0.05444 0.0
H417 H 0.74474 0.77316 0.01794 0.0
O418 O 0.80925 0.76302 0.03519 0.0
H419 H 0.78624 0.82649 0.99154 0.0
H420 H 0.72313 0.7623 0.04437 0.0
Cu421 Cu 0.27683 0.75098 1.00646 0.0
N422 N 0.25523 0.74396 0.01901 0.0
N423 N 0.23759 0.73907 0.04205 0.0
C424 C 0.25541 0.74185 0.03631 0.0
C425 C 0.22569 0.73937 0.02777 0.0
C426 C 0.23665 0.74227 1.0135 0.0
O427 O 0.29903 0.75327 0.02267 0.0
C428 C 0.26609 0.78623 0.99969 0.0
O429 O 0.25895 0.78426 1.01504 0.0
H430 H 0.26842 0.74352 0.04466 0.0
H431 H 0.23154 0.74394 1.00019 0.0
N432 N 0.27808 0.73242 0.99016 0.0
N433 N 0.28576 0.71879 0.96622 0.0
C434 C 0.28819 0.73466 0.97592 0.0
C435 C 0.2689 0.71454 0.98955 0.0
C436 C 0.27359 0.70606 0.97472 0.0
C437 C 0.30429 0.76721 0.03299 0.0
O438 O 0.29576 0.78183 0.03142 0.0
H439 H 0.29675 0.74786 0.97256 0.0
H440 H 0.25935 0.7082 0.99912 0.0
O441 O 0.27504 0.77389 0.99412 0.0
H442 H 0.21028 0.73821 0.02773 0.0
H443 H 0.2685 0.69168 0.97057 0.0
Cu444 Cu 1.01299 0.24401 0.2812 0.0
N445 N 0.02364 0.22205 0.2792 0.0
N446 N 0.04463 0.20369 0.27209 0.0
C447 C 0.04174 0.22142 0.275 0.0
C448 C 0.02756 0.1928 0.27475 0.0
C449 C 1.01471 0.20411 0.27904 0.0
O450 O 0.03369 0.26398 0.28885 0.0
C451 C 1.00434 0.24264 0.24451 0.0
O452 O 0.02036 0.23609 0.24353 0.0
H453 H 0.05235 0.23388 0.27357 0.0
H454 H 0.99969 0.19963 0.28113 0.0
N455 N 0.99419 0.24274 0.29759 0.0
N456 N 0.97146 0.25182 0.31309 0.0
C457 C 0.98345 0.25606 0.30011 0.0
C458 C 0.98882 0.22954 0.30935 0.0
C459 C 0.97486 0.23509 0.31891 0.0
C460 C 0.04114 0.26151 0.30391 0.0
O461 O 0.03427 0.24634 0.31231 0.0
H462 H 0.98476 0.26882 0.29273 0.0
H463 H 0.99475 0.21685 0.31098 0.0
O464 O 0.99998 0.24833 0.25913 0.0
H465 H 0.0242 0.17776 0.27294 0.0
H466 H 0.96769 0.22727 0.32927 0.0
Cu467 Cu 0.8006 0.99826 0.27726 0.0
N468 N 0.80428 0.01043 0.25497 0.0
N469 N 0.81288 0.03204 0.23519 0.0
C470 C 0.81414 0.02762 0.25216 0.0
C471 C 0.80187 0.017 0.2271 0.0
C472 C 0.79658 1.00366 0.23936 0.0
O473 O 0.78852 0.02008 0.28586 0.0
C474 C 0.82878 0.9763 0.26501 0.0
O475 O 0.84105 0.99199 0.26773 0.0
H476 H 0.82154 0.03687 0.26242 0.0
H477 H 0.7876 0.99009 0.23715 0.0
N478 N 0.79672 0.986 0.29947 0.0
N479 N 0.78269 0.96795 0.32003 0.0
C480 C 0.78113 0.97384 0.30348 0.0
C481 C 0.8087 0.98793 0.31379 0.0
C482 C 0.80006 0.97681 0.32654 0.0
C483 C 0.7969 0.03248 0.29686 0.0
O484 O 0.81442 0.0317 0.30295 0.0
H485 H 0.76905 0.96931 0.29431 0.0
H486 H 0.82264 0.99684 0.31487 0.0
O487 O 0.81132 0.97579 0.26828 0.0
H488 H 0.79789 0.01574 0.21331 0.0
H489 H 0.80605 0.97561 0.33964 0.0
Cu490 Cu 0.04034 0.74827 0.27175 0.0
N491 N 0.02669 0.76834 0.27119 0.0
N492 N 1.00475 0.78538 0.26166 0.0
C493 C 1.01061 0.76864 0.26098 0.0
C494 C 0.01762 0.79602 0.27283 0.0
C495 C 0.03106 0.78547 0.27875 0.0
O496 O 0.02066 0.72591 0.27131 0.0
C497 C 0.06606 0.7657 0.24941 0.0
O498 O 0.06564 0.77932 0.2606 0.0
H499 H 1.00381 0.75702 0.25263 0.0
H500 H 0.04353 0.79022 0.28743 0.0
N501 N 0.05793 0.74848 0.2911 0.0
N502 N 0.08238 0.74077 0.30776 0.0
C503 C 0.0721 0.73823 0.29229 0.0
C504 C 0.05927 0.75789 0.30635 0.0
C505 C 0.07434 0.75322 0.3166 0.0
C506 C 0.01744 0.71567 0.28455 0.0
O507 O 0.02953 0.71846 0.29826 0.0
H508 H 0.07478 0.72907 0.28193 0.0
H509 H 0.04978 0.76723 0.3099 0.0
O510 O 0.05541 0.74992 0.25145 0.0
H511 H 0.01746 0.81046 0.27634 0.0
H512 H 0.0787 0.75826 0.32973 0.0
Cu513 Cu 0.27207 0.99741 0.26824 0.0
N514 N 0.29696 0.01072 0.27113 0.0
N515 N 0.32114 0.033 0.28075 0.0
C516 C 0.30201 0.0271 0.27981 0.0
C517 C 0.32842 0.01991 0.27207 0.0
C518 C 0.31341 1.00609 0.26619 0.0
O519 O 0.25527 0.01637 0.26733 0.0
C520 C 0.27852 0.97979 0.30094 0.0
O521 O 0.28922 0.99595 0.30548 0.0
H522 H 0.29179 0.03436 0.28557 0.0
H523 H 0.31444 0.99338 0.25918 0.0
N524 N 0.26959 0.9842 0.24723 0.0
N525 N 0.26182 0.96027 0.22838 0.0
C526 C 0.2594 0.96691 0.24431 0.0
C527 C 0.27872 0.98874 0.23263 0.0
C528 C 0.27401 0.9739 0.22097 0.0
C529 C 0.24172 0.0165 0.25569 0.0
O530 O 0.23648 1.0018 0.24535 0.0
H531 H 0.25104 0.95905 0.25398 0.0
H532 H 0.28853 1.00168 0.23082 0.0
O533 O 0.26861 0.97839 0.28646 0.0
H534 H 0.3435 0.01999 0.27063 0.0
H535 H 0.27933 0.97309 0.20816 0.0
Cu536 Cu 0.02571 0.78119 0.76686 0.0
N537 N 0.03725 0.76035 0.76188 0.0
N538 N 0.05803 0.74349 0.75146 0.0
C539 C 0.05468 0.76082 0.75553 0.0
C540 C 0.04203 0.73174 0.75568 0.0
C541 C 0.0293 0.74212 0.76197 0.0
O542 O 0.04548 0.80113 0.77628 0.0
C543 C 1.01446 0.78253 0.73082 0.0
O544 O 0.03018 0.77607 0.72801 0.0
H545 H 0.06428 0.77375 0.75321 0.0
H546 H 1.01501 0.73677 0.76583 0.0
N547 N 1.00698 0.77645 0.78339 0.0
N548 N 0.98267 0.78118 0.79935 0.0
C549 C 0.99435 0.78778 0.78666 0.0
C550 C 1.00322 0.76213 0.79438 0.0
C551 C 0.98829 0.76499 0.8042 0.0
C552 C 0.05306 0.7974 0.79093 0.0
O553 O 0.04731 0.78091 0.79763 0.0
H554 H 0.99403 0.8008 0.77998 0.0
H555 H 1.01086 0.75048 0.79531 0.0
O556 O 1.01178 0.78779 0.7461 0.0
H557 H 0.03943 0.71667 0.75418 0.0
H558 H 0.98199 0.75569 0.81404 0.0
Cu559 Cu 0.30701 0.03963 0.80144 0.0
N560 N 0.31123 0.05385 0.78017 0.0
N561 N 0.31816 0.0774 0.76186 0.0
C562 C 0.31962 0.07185 0.77852 0.0
C563 C 0.30861 0.0623 0.75278 0.0
C564 C 0.30434 0.0478 0.76412 0.0
O565 O 0.29617 0.06135 0.81226 0.0
C566 C 0.33303 0.0176 0.78467 0.0
O567 O 0.34543 0.03336 0.78556 0.0
H568 H 0.32592 0.08086 0.78937 0.0
H569 H 0.29638 0.03394 0.761 0.0
N570 N 0.30194 0.02491 0.82223 0.0
N571 N 0.28774 1.00223 0.83894 0.0
C572 C 0.287 0.01094 0.82352 0.0
C573 C 0.31273 0.02515 0.83718 0.0
C574 C 0.30393 0.0112 0.84759 0.0
C575 C 0.30462 0.07185 0.82476 0.0
O576 O 0.32155 0.06925 0.83102 0.0
H577 H 0.27627 1.00687 0.81301 0.0
H578 H 0.3262 0.03446 0.84015 0.0
O579 O 0.31648 0.01722 0.79041 0.0
H580 H 0.30482 0.06183 0.73895 0.0
H581 H 0.30921 1.00788 0.86045 0.0
Cu582 Cu 0.04682 0.28894 0.78949 0.0
N583 N 0.03474 0.30935 0.7836 0.0
N584 N 1.01248 0.32476 0.77173 0.0
C585 C 0.01754 0.30789 0.77474 0.0
C586 C 0.02702 0.33735 0.77923 0.0
C587 C 0.04074 0.32781 0.7865 0.0
O588 O 0.0275 0.26968 0.79811 0.0
C589 C 0.05697 0.28606 0.75414 0.0
O590 O 0.04372 0.29608 0.74995 0.0
H591 H 1.00903 0.29462 0.77042 0.0
H592 H 0.05425 0.33393 0.79315 0.0
N593 N 0.06675 0.29403 0.80691 0.0
N594 N 0.09233 0.28884 0.82348 0.0
C595 C 0.08081 0.28376 0.80903 0.0
C596 C 0.06947 0.30615 0.8205 0.0
C597 C 0.08522 0.30295 0.83076 0.0
C598 C 0.01948 0.2743 0.8114 0.0
O599 O 0.02478 0.29129 0.81798 0.0
H600 H 0.08203 0.27222 0.80045 0.0
H601 H 0.06036 0.31621 0.82304 0.0
O602 O 0.05883 0.28051 0.76968 0.0
H603 H 0.02798 0.3524 0.77902 0.0
H604 H 0.09087 0.31033 0.84272 0.0
Cu605 Cu 0.78291 0.02313 0.75124 0.0
N606 N 0.80719 0.0366 0.75772 0.0
N607 N 0.82937 0.05626 0.77368 0.0
C608 C 0.81051 0.04964 0.77052 0.0
C609 C 0.8383 0.04699 0.76237 0.0
C610 C 0.82456 0.03474 0.75261 0.0
O611 O 0.76515 0.04122 0.74836 0.0
C612 C 0.78876 0.99086 0.76786 0.0
O613 O 0.80054 0.9918 0.75527 0.0
H614 H 0.79919 0.05406 0.77742 0.0
H615 H 0.82714 0.0248 0.74291 0.0
N616 N 0.78201 0.01062 0.72988 0.0
N617 N 0.77234 0.98753 0.71035 0.0
C618 C 0.7689 0.99536 0.72547 0.0
C619 C 0.79409 0.01279 0.71693 0.0
C620 C 0.78823 0.99839 0.70489 0.0
C621 C 0.77143 0.05599 0.73998 0.0
O622 O 0.7888 0.05805 0.73444 0.0
H623 H 0.75768 0.98948 0.73378 0.0
H624 H 0.80657 0.02367 0.7165 0.0
O625 O 0.77842 1.00356 0.76901 0.0
H626 H 0.85366 0.04848 0.7616 0.0
H627 H 0.79528 0.99589 0.69325 0.0
Cu628 Cu 0.29213 0.75451 0.53293 0.0
N629 N 0.31385 0.76136 0.54846 0.0
N630 N 0.33183 0.775 0.5716 0.0
C631 C 0.31495 0.77339 0.56207 0.0
C632 C 0.3417 0.76345 0.56356 0.0
C633 C 0.33059 0.75505 0.54937 0.0
O634 O 0.27053 0.74831 0.54824 0.0
C635 C 0.30763 0.7777 0.50763 0.0
O636 O 0.32173 0.76926 0.51313 0.0
H637 H 0.30329 0.7804 0.56513 0.0
H638 H 0.3344 0.74496 0.54043 0.0
N639 N 0.29277 0.73315 0.51907 0.0
N640 N 0.28606 0.71362 0.49598 0.0
C641 C 0.28449 0.73043 0.5028 0.0
C642 C 0.30005 0.71753 0.52257 0.0
C643 C 0.29579 0.70541 0.50841 0.0
C644 C 0.27285 0.73525 0.55885 0.0
O645 O 0.28836 0.72782 0.55806 0.0
H646 H 0.27703 0.74045 0.49623 0.0
H647 H 0.30778 0.715 0.53459 0.0
O648 O 0.292 0.77431 0.51545 0.0
H649 H 0.35598 0.7612 0.56753 0.0
H650 H 0.29964 0.69167 0.50728 0.0
Cu651 Cu 0.78098 0.75215 0.51268 0.0
N652 N 0.7786 0.73358 0.4956 0.0
N653 N 0.7852 0.71884 0.47183 0.0
C654 C 0.79066 0.73358 0.48285 0.0
C655 C 0.76898 0.70918 0.47791 0.0
C656 C 0.76497 0.71831 0.49266 0.0
O657 O 0.78306 0.77577 0.50068 0.0
C658 C 0.81025 0.76112 0.5402 0.0
O659 O 0.80394 0.77696 0.54194 0.0
H660 H 0.80293 0.74453 0.48145 0.0
H661 H 0.75289 0.71421 0.50056 0.0
N662 N 0.75918 0.74902 0.52539 0.0
N663 N 0.7411 0.75191 0.54763 0.0
C664 C 0.75895 0.75175 0.54264 0.0
C665 C 0.74081 0.74713 0.51921 0.0
C666 C 0.72959 0.74892 0.53292 0.0
C667 C 0.77655 0.78969 0.50651 0.0
O668 O 0.77095 0.7893 0.52246 0.0
H669 H 0.77178 0.75498 0.55116 0.0
H670 H 0.73608 0.74565 0.50559 0.0
O671 O 0.80295 0.74967 0.52805 0.0
H672 H 0.76065 0.69646 0.47214 0.0
H673 H 0.71429 0.74877 0.53202 0.0
Cu674 Cu 0.79724 0.2427 0.52172 0.0
N675 N 0.79577 0.22207 0.50643 0.0
N676 N 0.78622 0.20423 0.48246 0.0
C677 C 0.78441 0.21975 0.4916 0.0
C678 C 0.79933 0.19652 0.49207 0.0
C679 C 0.80521 0.20755 0.50677 0.0
O680 O 0.79862 0.26392 0.50562 0.0
C681 C 0.77827 0.22234 0.54669 0.0
O682 O 0.79257 0.21376 0.54357 0.0
H683 H 0.77531 0.22961 0.4875 0.0
H684 H 0.81567 0.20516 0.51691 0.0
N685 N 0.81924 0.24759 0.53721 0.0
N686 N 0.83746 0.26 0.56063 0.0
C687 C 0.82009 0.25789 0.55197 0.0
C688 C 0.83668 0.2428 0.53661 0.0
C689 C 0.84801 0.2506 0.55096 0.0
C690 C 0.81383 0.26555 0.4972 0.0
O691 O 0.8259 0.25417 0.50104 0.0
H692 H 0.80824 0.26404 0.55611 0.0
H693 H 0.84097 0.23442 0.5264 0.0
O694 O 0.77618 0.23657 0.53747 0.0
H695 H 0.80434 0.18374 0.48887 0.0
H696 H 0.86278 0.24931 0.55412 0.0
Cu697 Cu 0.29829 0.28761 0.52409 0.0
N698 N 0.27445 0.27947 0.53294 0.0
N699 N 0.25131 0.2736 0.55157 0.0
C700 C 0.27024 0.27914 0.54972 0.0
C701 C 0.24335 0.27013 0.53527 0.0
C702 C 0.25769 0.27369 0.52381 0.0
O703 O 0.3172 0.29538 0.54309 0.0
C704 C 0.28519 0.31851 0.5088 0.0
O705 O 0.27743 0.31941 0.52376 0.0
H706 H 0.28075 0.28362 0.56031 0.0
H707 H 0.25598 0.27263 0.50977 0.0
N708 N 0.30566 0.26706 0.51386 0.0
N709 N 0.31657 0.24837 0.49523 0.0
C710 C 0.31122 0.26515 0.49767 0.0
C711 C 0.30753 0.25108 0.52197 0.0
C712 C 0.31423 0.23951 0.51054 0.0
C713 C 0.31607 0.30704 0.5552 0.0
O714 O 0.30246 0.31719 0.55403 0.0
H715 H 0.31132 0.27586 0.48794 0.0
H716 H 0.30452 0.24823 0.53538 0.0
O717 O 0.29589 0.30643 0.50668 0.0
H718 H 0.22823 0.26567 0.53182 0.0
H719 H 0.31755 0.22582 0.51346 0.0
Cu720 Cu 0.82451 0.5251 0.79987 0.0
N721 N 0.84605 0.54278 0.7954 0.0
N722 N 0.86311 0.56618 0.78126 0.0
C723 C 0.84657 0.55379 0.78143 0.0
C724 C 0.87346 0.56277 0.79582 0.0
C725 C 0.86288 0.54825 0.80452 0.0
O726 O 0.80284 0.53871 0.80067 0.0
C727 C 0.83835 0.49746 0.78315 0.0
O728 O 0.85199 0.50373 0.79511 0.0
H729 H 0.83461 0.55311 0.77192 0.0
H730 H 0.867 0.54234 0.81673 0.0
N731 N 0.82615 0.51371 0.82139 0.0
N732 N 0.81647 0.49184 0.84077 0.0
C733 C 0.81822 0.49576 0.82382 0.0
C734 C 0.82972 0.52151 0.83741 0.0
C735 C 0.82368 0.508 0.84943 0.0
C736 C 0.80651 0.5545 0.80879 0.0
O737 O 0.82399 0.56056 0.81537 0.0
H738 H 0.81204 0.48627 0.81327 0.0
H739 H 0.83485 0.53624 0.84009 0.0
O740 O 0.82337 0.50505 0.7823 0.0
H741 H 0.88759 0.57025 0.79994 0.0
H742 H 0.82352 0.51017 0.86333 0.0
Cu743 Cu 0.2923 0.51476 0.76801 0.0
N744 N 0.31429 0.50381 0.77249 0.0
N745 N 0.33271 0.48372 0.78324 0.0
C746 C 0.31469 0.4874 0.78063 0.0
C747 C 0.34401 0.49843 0.77627 0.0
C748 C 0.33267 0.51075 0.76972 0.0
O749 O 0.2713 0.4946 0.76167 0.0
C750 C 0.29776 0.53061 0.80237 0.0
O751 O 0.309 0.51838 0.80587 0.0
H752 H 0.30199 0.47877 0.78517 0.0
H753 H 0.33754 0.52404 0.76373 0.0
N754 N 0.29421 0.53216 0.74982 0.0
N755 N 0.28707 0.5558 0.73329 0.0
C756 C 0.28269 0.54501 0.74729 0.0
C757 C 0.30638 0.53485 0.73698 0.0
C758 C 0.30202 0.54936 0.7268 0.0
C759 C 0.2734 0.48583 0.74778 0.0
O760 O 0.28882 0.49136 0.73926 0.0
H761 H 0.27115 0.5462 0.75553 0.0
H762 H 0.3176 0.52684 0.73513 0.0
O763 O 0.2878 0.52933 0.78799 0.0
H764 H 0.35944 0.50035 0.776 0.0
H765 H 0.30951 0.55484 0.71561 0.0
Cu766 Cu 0.29434 0.50565 0.26824 0.0
N767 N 0.2719 0.48807 0.2699 0.0
N768 N 0.25009 0.46679 0.28196 0.0
C769 C 0.26545 0.48055 0.28482 0.0
C770 C 0.24666 0.46577 0.26453 0.0
C771 C 0.26016 0.47886 0.25713 0.0
O772 O 0.31498 0.49147 0.26433 0.0
C773 C 0.28169 0.52916 0.29159 0.0
O774 O 0.26589 0.52305 0.282 0.0
H775 H 0.27227 0.48486 0.29747 0.0
H776 H 0.26168 0.48094 0.2434 0.0
N777 N 0.29262 0.52076 0.24894 0.0
N778 N 0.29761 0.54658 0.23302 0.0
C779 C 0.29907 0.53934 0.24901 0.0
C780 C 0.287 0.516 0.23228 0.0
C781 C 0.28991 0.53197 0.22243 0.0
C782 C 0.31542 0.47538 0.27081 0.0
O783 O 0.30392 0.46952 0.28311 0.0
H784 H 0.30505 0.54732 0.26057 0.0
H785 H 0.28193 0.50189 0.22747 0.0
O786 O 0.29695 0.52296 0.2884 0.0
H787 H 0.23573 0.45572 0.25753 0.0
H788 H 0.28738 0.53263 0.20848 0.0
Cu789 Cu 0.78705 0.52487 0.26753 0.0
N790 N 0.80843 0.51376 0.27423 0.0
N791 N 0.82392 0.4915 0.28525 0.0
C792 C 0.80711 0.49555 0.27849 0.0
C793 C 0.83638 0.50786 0.28504 0.0
C794 C 0.82679 0.52155 0.27837 0.0
O795 O 0.76945 0.50582 0.25445 0.0
C796 C 0.78402 0.53276 0.30324 0.0
O797 O 0.79342 0.51902 0.30671 0.0
H798 H 0.79378 0.48565 0.27723 0.0
H799 H 0.83258 0.5363 0.27753 0.0
N800 N 0.79179 0.54619 0.25358 0.0
N801 N 0.78481 0.57151 0.23965 0.0
C802 C 0.77779 0.5549 0.24675 0.0
C803 C 0.80831 0.55766 0.25064 0.0
C804 C 0.80404 0.57327 0.24206 0.0
C805 C 0.77469 0.5019 0.23957 0.0
O806 O 0.79046 0.51173 0.23401 0.0
H807 H 0.76269 0.5496 0.24786 0.0
H808 H 0.82241 0.55527 0.25498 0.0
O809 O 0.7767 0.53405 0.28792 0.0
H810 H 0.85112 0.51006 0.29024 0.0
H811 H 0.81431 0.58515 0.23821 0.0
Cu812 Cu 0.54024 0.27905 0.77795 0.0
N813 N 0.52707 0.27897 0.79834 0.0
N814 N 0.50559 0.28512 0.81679 0.0
C815 C 0.51155 0.28699 0.80044 0.0
C816 C 0.5179 0.27547 0.82523 0.0
C817 C 0.53111 0.27174 0.81385 0.0
O818 O 0.52195 0.28298 0.75927 0.0
C819 C 0.56368 0.31387 0.78808 0.0
O820 O 0.54833 0.31762 0.79507 0.0
H821 H 0.50479 0.29403 0.7901 0.0
H822 H 0.54296 0.26447 0.81672 0.0
N823 N 0.54882 0.25629 0.7746 0.0
N824 N 0.56663 0.23575 0.76577 0.0
C825 C 0.56528 0.25404 0.76764 0.0
C826 C 0.53946 0.23888 0.77735 0.0
C827 C 0.55037 0.22619 0.7719 0.0
C828 C 0.51944 0.27416 0.74478 0.0
O829 O 0.53145 0.26317 0.74077 0.0
H830 H 0.57571 0.26559 0.76342 0.0
H831 H 0.5255 0.23564 0.7826 0.0
O832 O 0.56266 0.29863 0.77955 0.0
H833 H 0.51769 0.27168 0.83879 0.0
H834 H 0.54655 0.2111 0.77233 0.0
Cu835 Cu 0.53733 0.77576 0.78333 0.0
N836 N 0.55588 0.77465 0.80161 0.0
N837 N 0.58012 0.76472 0.81672 0.0
C838 C 0.56772 0.76197 0.80254 0.0
C839 C 0.5759 0.7798 0.82502 0.0
C840 C 0.56106 0.78596 0.81562 0.0
O841 O 0.55138 0.7813 0.7627 0.0
C842 C 0.5147 0.74328 0.79461 0.0
O843 O 0.52257 0.74979 0.80978 0.0
H844 H 0.56715 0.7509 0.79295 0.0
H845 H 0.5548 0.79804 0.81866 0.0
N846 N 0.52167 0.79381 0.78631 0.0
N847 N 0.49903 0.81111 0.7794 0.0
C848 C 0.51108 0.80034 0.77339 0.0
C849 C 0.51607 0.80055 0.80108 0.0
C850 C 0.50226 0.81132 0.79687 0.0
C851 C 0.55952 0.79813 0.76061 0.0
O852 O 0.55703 0.81105 0.77185 0.0
H853 H 0.51191 0.79678 0.75984 0.0
H854 H 0.5209 0.7971 0.81403 0.0
O855 O 0.51996 0.75199 0.78095 0.0
H856 H 0.58334 0.78626 0.83678 0.0
H857 H 0.49453 0.81796 0.80606 0.0
Cu858 Cu 0.51079 0.76152 0.28464 0.0
N859 N 0.49251 0.75642 0.30153 0.0
N860 N 0.46848 0.76089 0.31795 0.0
C861 C 0.47968 0.76749 0.30493 0.0
C862 C 0.4746 0.74497 0.32289 0.0
C863 C 0.48936 0.74225 0.31277 0.0
O864 O 0.49599 0.76747 0.26407 0.0
C865 C 0.53794 0.77917 0.30837 0.0
O866 O 0.53248 0.76298 0.31573 0.0
H867 H 0.47889 0.78037 0.29814 0.0
H868 H 0.49731 0.73084 0.31366 0.0
N869 N 0.52341 0.7414 0.27979 0.0
N870 N 0.54537 0.72588 0.26957 0.0
C871 C 0.54091 0.74282 0.27337 0.0
C872 C 0.51652 0.72293 0.28013 0.0
C873 C 0.52999 0.71336 0.27392 0.0
C874 C 0.49624 0.76003 0.2491 0.0
O875 O 0.50982 0.75049 0.24603 0.0
H876 H 0.54997 0.75612 0.27116 0.0
H877 H 0.50242 0.71687 0.284 0.0
O878 O 0.53013 0.78215 0.29359 0.0
H879 H 0.46877 0.73579 0.333 0.0
H880 H 0.52816 0.69834 0.2721 0.0
Cu881 Cu 0.54808 0.26291 0.27991 0.0
N882 N 0.53776 0.26597 0.30113 0.0
N883 N 0.51551 0.26259 0.32065 0.0
C884 C 0.519 0.26151 0.30372 0.0
C885 C 0.53282 0.26805 0.3291 0.0
C886 C 0.54658 0.27026 0.31696 0.0
O887 O 0.52612 0.26024 0.26252 0.0
C888 C 0.56248 0.23095 0.294 0.0
O889 O 0.54802 0.22936 0.30406 0.0
H890 H 0.50825 0.25627 0.29348 0.0
H891 H 0.56194 0.27377 0.31955 0.0
N892 N 0.56522 0.28441 0.27512 0.0
N893 N 0.58892 0.30259 0.26238 0.0
C894 C 0.57969 0.28495 0.26458 0.0
C895 C 0.56536 0.30226 0.28002 0.0
C896 C 0.58007 0.31355 0.27219 0.0
C897 C 0.5266 0.26894 0.24815 0.0
O898 O 0.54326 0.27691 0.24284 0.0
H899 H 0.58308 0.27263 0.25836 0.0
H900 H 0.5552 0.30676 0.2883 0.0
O901 O 0.56356 0.24289 0.28182 0.0
H902 H 0.5354 0.26964 0.34306 0.0
H903 H 0.58351 0.32868 0.27314 0.0
H904 H 0.25089 0.16013 0.18019 0.0
H905 H 0.19967 0.16707 0.14968 0.0
H906 H 0.27027 0.17208 0.15622 0.0
H907 H 0.21899 0.179 0.12579 0.0
H908 H 0.26084 0.21937 0.09458 0.0
H909 H 0.24128 0.206 0.11776 0.0
H910 H 0.27843 0.16546 0.12709 0.0
H911 H 0.29806 0.17885 0.10383 0.0
C912 C 0.24371 0.164 0.16832 0.0
C913 C 0.22365 0.1627 0.16703 0.0
C914 C 0.25485 0.17087 0.15453 0.0
C915 C 0.24629 0.17666 0.13899 0.0
C916 C 0.2262 0.17507 0.13761 0.0
C917 C 0.21508 0.1682 0.15138 0.0
C918 C 0.26476 0.20744 0.10134 0.0
C919 C 0.28115 0.20025 0.09716 0.0
C920 C 0.25348 0.19974 0.11474 0.0
C921 C 0.25819 0.1846 0.12443 0.0
C922 C 0.27447 0.17729 0.12016 0.0
C923 C 0.28575 0.18498 0.10674 0.0
H924 H 0.82383 0.21493 0.1215 0.0
H925 H 0.88288 0.21062 0.11551 0.0
H926 H 0.82622 0.24029 0.10051 0.0
H927 H 0.88537 0.23581 0.09421 0.0
H928 H 0.88705 0.29445 0.07124 0.0
H929 H 0.88518 0.26946 0.09235 0.0
H930 H 0.82956 0.2444 0.0693 0.0
H931 H 0.83125 0.26962 0.04832 0.0
C932 C 0.83734 0.21956 0.11568 0.0
C933 C 0.85321 0.2111 0.12 0.0
C934 C 0.83868 0.23391 0.10358 0.0
C935 C 0.85595 0.23997 0.09562 0.0
C936 C 0.87193 0.23156 0.10023 0.0
C937 C 0.87054 0.21717 0.11234 0.0
C938 C 0.87443 0.28359 0.07063 0.0
C939 C 0.85926 0.28404 0.05813 0.0
C940 C 0.87342 0.26921 0.08268 0.0
C941 C 0.85721 0.25499 0.08253 0.0
C942 C 0.84213 0.25532 0.0699 0.0
C943 C 0.84315 0.26969 0.05782 0.0
H944 H 0.83811 0.80022 0.14829 0.0
H945 H 0.89633 0.81398 0.13309 0.0
H946 H 0.82767 0.78786 0.11913 0.0
H947 H 0.88591 0.80142 0.10379 0.0
H948 H 0.85207 0.80459 0.04959 0.0
H949 H 0.8664 0.81146 0.07898 0.0
H950 H 0.8295 0.76287 0.09764 0.0
H951 H 0.81509 0.75599 0.06815 0.0
C952 C 0.84872 0.80043 0.13874 0.0
C953 C 0.86804 0.80823 0.143 0.0
C954 C 0.84277 0.79318 0.12204 0.0
C955 C 0.85592 0.79365 0.10904 0.0
C956 C 0.87536 0.80095 0.11343 0.0
C957 C 0.88137 0.80803 0.13025 0.0
C958 C 0.84728 0.79512 0.05988 0.0
C959 C 0.83237 0.77976 0.05647 0.0
C960 C 0.85556 0.79904 0.07676 0.0
C961 C 0.84902 0.78782 0.09075 0.0
C962 C 0.83474 0.77193 0.08721 0.0
C963 C 0.8266 0.76787 0.07026 0.0
H964 H 0.19813 0.76022 0.14431 0.0
H965 H 0.2597 0.76622 0.14842 0.0
H966 H 0.19745 0.74756 0.11462 0.0
H967 H 0.25933 0.75422 0.11879 0.0
H968 H 0.25514 0.72362 0.06875 0.0
H969 H 0.25102 0.72787 0.09963 0.0
H970 H 0.20615 0.75969 0.0867 0.0
H971 H 0.21 0.7549 0.05586 0.0
C972 C 0.21145 0.75855 0.13885 0.0
C973 C 0.22895 0.76399 0.14843 0.0
C974 C 0.21112 0.75146 0.12188 0.0
C975 C 0.22833 0.74985 0.11429 0.0
C976 C 0.24577 0.75489 0.12428 0.0
C977 C 0.24605 0.76188 0.1412 0.0
C978 C 0.2442 0.73125 0.07258 0.0
C979 C 0.23302 0.73908 0.05997 0.0
C980 C 0.24187 0.73376 0.09023 0.0
C981 C 0.22847 0.74439 0.09567 0.0
C982 C 0.21649 0.75128 0.08301 0.0
C983 C 0.21869 0.74857 0.06532 0.0
H984 H 0.21233 0.8713 0.94613 0.0
H985 H 0.21242 0.8253 0.91052 0.0
H986 H 0.23476 0.85876 0.96634 0.0
H987 H 0.23431 0.81238 0.93069 0.0
H988 H 0.27758 0.79382 0.9668 0.0
H989 H 0.26519 0.81453 0.9459 0.0
H990 H 0.23053 0.83209 0.98495 0.0
H991 H 0.24329 0.81188 1.0059 0.0
C992 C 0.21754 0.85871 0.94254 0.0
C993 C 0.21085 0.84917 0.92693 0.0
C994 C 0.23022 0.85146 0.9541 0.0
C995 C 0.23623 0.83447 0.95022 0.0
C996 C 0.23024 0.8256 0.93403 0.0
C997 C 0.21763 0.83291 0.9225 0.0
C998 C 0.26762 0.8024 0.97102 0.0
C999 C 0.26119 0.80098 0.98794 0.0
C1000 C 0.26045 0.81421 0.95901 0.0
C1001 C 0.24666 0.82479 0.96365 0.0
C1002 C 0.24125 0.82429 0.98093 0.0
C1003 C 0.24847 0.81256 0.99294 0.0
H1004 H 0.21373 0.21122 0.92121 0.0
H1005 H 0.27169 0.201 0.918 0.0
H1006 H 0.22243 0.22525 0.95009 0.0
H1007 H 0.27965 0.21373 0.94736 0.0
H1008 H 0.27525 0.21678 1.00826 0.0
H1009 H 0.26414 0.20303 0.97959 0.0
H1010 H 0.25123 0.25614 0.96246 0.0
H1011 H 0.26299 0.2702 0.99103 0.0
C1012 C 0.22832 0.21196 0.92646 0.0
C1013 C 0.24193 0.20481 0.91694 0.0
C1014 C 0.23321 0.21989 0.94315 0.0
C1015 C 0.25166 0.22045 0.95099 0.0
C1016 C 0.26524 0.21326 0.94169 0.0
C1017 C 0.26054 0.20578 0.92484 0.0
C1018 C 0.26971 0.22549 0.99853 0.0
C1019 C 0.26992 0.24461 1.00201 0.0
C1020 C 0.26351 0.21762 0.98207 0.0
C1021 C 0.25689 0.22854 0.96881 0.0
C1022 C 0.25621 0.24741 0.97248 0.0
C1023 C 0.2629 0.25543 0.98883 0.0
H1024 H 0.89427 0.20609 0.94132 0.0
H1025 H 0.87853 0.23601 0.8961 0.0
H1026 H 0.89845 0.23493 0.95887 0.0
H1027 H 0.88295 0.26505 0.91348 0.0
H1028 H 0.86326 0.30153 0.95663 0.0
H1029 H 0.86534 0.27629 0.93625 0.0
H1030 H 0.91712 0.26649 0.96425 0.0
H1031 H 0.9147 0.29158 0.98494 0.0
C1032 C 0.89203 0.21898 0.93514 0.0
C1033 C 0.88602 0.21901 0.9175 0.0
C1034 C 0.89454 0.23551 0.94511 0.0
C1035 C 0.891 0.25231 0.93759 0.0
C1036 C 0.8856 0.25232 0.91971 0.0
C1037 C 0.88313 0.23578 0.90975 0.0
C1038 C 0.87522 0.29414 0.95828 0.0
C1039 C 0.8887 0.29841 0.97247 0.0
C1040 C 0.87652 0.27977 0.94652 0.0
C1041 C 0.89132 0.26925 0.94869 0.0
C1042 C 0.90541 0.27418 0.96235 0.0
C1043 C 0.90416 0.28868 0.97409 0.0
H1044 H 0.87363 0.83881 0.89864 0.0
H1045 H 0.81741 0.84423 0.87698 0.0
H1046 H 0.86012 0.8287 0.92599 0.0
H1047 H 0.80381 0.83403 0.90446 0.0
H1048 H 0.78857 0.8309 0.96175 0.0
H1049 H 0.80201 0.84231 0.93465 0.0
H1050 H 0.84061 0.80247 0.93845 0.0
H1051 H 0.82771 0.79157 0.96582 0.0
C1052 C 0.85833 0.83773 0.89965 0.0
C1053 C 0.84663 0.84221 0.88544 0.0
C1054 C 0.85055 0.83188 0.9154 0.0
C1055 C 0.83078 0.83031 0.91752 0.0
C1056 C 0.81911 0.8352 0.90344 0.0
C1057 C 0.82692 0.84108 0.88764 0.0
C1058 C 0.80004 0.82466 0.95695 0.0
C1059 C 0.80701 0.81027 0.96617 0.0
C1060 C 0.80763 0.8311 0.94122 0.0
C1061 C 0.82247 0.82339 0.93424 0.0
C1062 C 0.82939 0.80897 0.94345 0.0
C1063 C 0.82179 0.80253 0.95914 0.0
H1064 H 0.1214 0.14548 0.21771 0.0
H1065 H 0.15849 0.1949 0.23886 0.0
H1066 H 0.09467 0.15391 0.23292 0.0
H1067 H 0.13197 0.20335 0.25426 0.0
H1068 H 0.07502 0.22519 0.25751 0.0
H1069 H 0.10272 0.21498 0.24616 0.0
H1070 H 0.08109 0.15824 0.26079 0.0
H1071 H 0.05336 0.16842 0.27236 0.0
C1072 C 0.12393 0.15786 0.22604 0.0
C1073 C 0.14202 0.16941 0.22734 0.0
C1074 C 0.10862 0.16275 0.23474 0.0
C1075 C 0.11103 0.17944 0.24475 0.0
C1076 C 0.12944 0.19057 0.24649 0.0
C1077 C 0.14472 0.18562 0.23786 0.0
C1078 C 0.07615 0.21057 0.2586 0.0
C1079 C 0.06164 0.19772 0.26592 0.0
C1080 C 0.09218 0.20468 0.25205 0.0
C1081 C 0.09426 0.18574 0.25252 0.0
C1082 C 0.07991 0.17289 0.25998 0.0
C1083 C 0.06391 0.17879 0.26663 0.0
H1084 H 0.88492 0.12739 0.19147 0.0
H1085 H 0.82786 0.14076 0.18824 0.0
H1086 H 0.87283 0.09805 0.20574 0.0
H1087 H 0.81581 0.11138 0.20222 0.0
H1088 H 0.79826 0.0479 0.20695 0.0
H1089 H 0.81132 0.07762 0.19403 0.0
H1090 H 0.8582 0.0859 0.23325 0.0
H1091 H 0.84531 0.05587 0.246 0.0
C1092 C 0.86986 0.12417 0.19397 0.0
C1093 C 0.85732 0.13633 0.18857 0.0
C1094 C 0.86294 0.10737 0.20211 0.0
C1095 C 0.84335 0.10236 0.20493 0.0
C1096 C 0.83092 0.11471 0.19991 0.0
C1097 C 0.83782 0.13152 0.19188 0.0
C1098 C 0.81145 0.05595 0.21272 0.0
C1099 C 0.82076 0.04952 0.22748 0.0
C1100 C 0.81881 0.07308 0.20544 0.0
C1101 C 0.83573 0.08412 0.21269 0.0
C1102 C 0.84519 0.07763 0.22734 0.0
C1103 C 0.83772 0.06054 0.23472 0.0
H1104 H 0.92013 0.84471 0.21062 0.0
H1105 H 0.90668 0.7883 0.18947 0.0
H1106 H 0.94571 0.83585 0.22939 0.0
H1107 H 0.93318 0.77992 0.20707 0.0
H1108 H 0.97069 0.7637 0.2518 0.0
H1109 H 0.944 0.77284 0.23462 0.0
H1110 H 0.97642 0.82885 0.23091 0.0
H1111 H 1.00267 0.81974 0.24877 0.0
C1112 C 0.92259 0.83042 0.20987 0.0
C1113 C 0.91115 0.81731 0.19836 0.0
C1114 C 0.93756 0.82538 0.22052 0.0
C1115 C 0.94175 0.8071 0.21988 0.0
C1116 C 0.93037 0.79404 0.20828 0.0
C1117 C 0.91527 0.799 0.19784 0.0
C1118 C 0.97207 0.77796 0.2473 0.0
C1119 C 0.98882 0.79097 0.25167 0.0
C1120 C 0.95678 0.78324 0.23732 0.0
C1121 C 0.95789 0.80164 0.23112 0.0
C1122 C 0.97471 0.81466 0.2356 0.0
C1123 C 0.98988 0.80943 0.24583 0.0
H1124 H 0.19485 0.85581 0.18663 0.0
H1125 H 0.24771 0.84228 0.2097 0.0
H1126 H 0.20625 0.8888 0.19404 0.0
H1127 H 0.25929 0.87535 0.21628 0.0
H1128 H 0.27981 0.93869 0.20864 0.0
H1129 H 0.26783 0.90627 0.19902 0.0
H1130 H 0.21486 0.90766 0.22328 0.0
H1131 H 0.22691 0.94001 0.23298 0.0
C1132 C 0.20885 0.85979 0.1933 0.0
C1133 C 0.22031 0.84627 0.19757 0.0
C1134 C 0.2154 0.87871 0.19742 0.0
C1135 C 0.23366 0.88457 0.20564 0.0
C1136 C 0.24525 0.8712 0.20971 0.0
C1137 C 0.2386 0.85225 0.20585 0.0
C1138 C 0.26553 0.93212 0.21169 0.0
C1139 C 0.25428 0.94178 0.22157 0.0
C1140 C 0.25875 0.91358 0.20632 0.0
C1141 C 0.24046 0.90451 0.21046 0.0
C1142 C 0.22897 0.91438 0.21985 0.0
C1143 C 0.23588 0.93279 0.22548 0.0
H1144 H 0.1599 0.86491 0.82927 0.0
H1145 H 0.12279 0.86522 0.87163 0.0
H1146 H 0.13254 0.84992 0.81034 0.0
H1147 H 0.09554 0.85025 0.85276 0.0
H1148 H 0.06492 0.79591 0.82484 0.0
H1149 H 0.08962 0.81743 0.84128 0.0
H1150 H 0.09939 0.85172 0.79596 0.0
H1151 H 0.07433 0.8299 0.77924 0.0
C1152 C 0.14582 0.86224 0.8344 0.0
C1153 C 0.14352 0.86592 0.85201 0.0
C1154 C 0.13017 0.85367 0.82356 0.0
C1155 C 0.112 0.84867 0.83017 0.0
C1156 C 0.10948 0.85364 0.84742 0.0
C1157 C 0.12506 0.86218 0.85821 0.0
C1158 C 0.07221 0.80806 0.81832 0.0
C1159 C 0.06771 0.81118 0.80072 0.0
C1160 C 0.08627 0.8205 0.82782 0.0
C1161 C 0.09631 0.83635 0.81995 0.0
C1162 C 0.09183 0.8396 0.80233 0.0
C1163 C 0.0775 0.82718 0.79281 0.0
H1164 H 0.25437 0.14475 0.89339 0.0
H1165 H 0.25125 0.16926 0.84256 0.0
H1166 H 0.26979 0.12031 0.88134 0.0
H1167 H 0.26601 0.14459 0.83056 0.0
H1168 H 0.27308 0.08577 0.81184 0.0
H1169 H 0.25815 0.11019 0.82455 0.0
H1170 H 0.30016 0.11598 0.86797 0.0
H1171 H 0.31514 0.09163 0.85527 0.0
C1172 C 0.25705 0.14508 0.87971 0.0
C1173 C 0.2513 0.15904 0.86901 0.0
C1174 C 0.26585 0.13098 0.87277 0.0
C1175 C 0.26898 0.13032 0.85491 0.0
C1176 C 0.26348 0.14439 0.84429 0.0
C1177 C 0.25492 0.15856 0.85122 0.0
C1178 C 0.27914 0.09223 0.8241 0.0
C1179 C 0.29537 0.08671 0.83247 0.0
C1180 C 0.27063 0.10632 0.83136 0.0
C1181 C 0.27794 0.11511 0.84731 0.0
C1182 C 0.29404 0.10943 0.85577 0.0
C1183 C 0.3027 0.09553 0.8484 0.0
H1184 H 0.91593 0.22579 0.85982 0.0
H1185 H 0.94309 0.17815 0.85041 0.0
H1186 H 0.94265 0.24637 0.8477 0.0
H1187 H 0.96992 0.19875 0.83838 0.0
H1188 H 1.00271 0.23903 0.79994 0.0
H1189 H 0.97677 0.21797 0.81284 0.0
H1190 H 0.97633 0.25869 0.8539 0.0
H1191 H 1.00184 0.27982 0.84087 0.0
C1192 C 0.92775 0.21977 0.85539 0.0
C1193 C 0.92742 0.20037 0.85605 0.0
C1194 C 0.94306 0.23154 0.84843 0.0
C1195 C 0.95839 0.22418 0.84204 0.0
C1196 C 0.95818 0.20481 0.84293 0.0
C1197 C 0.94285 0.19303 0.84986 0.0
C1198 C 0.99709 0.24344 0.81174 0.0
C1199 C 1.00425 0.26112 0.81933 0.0
C1200 C 0.9823 0.23135 0.81918 0.0
C1201 C 0.97445 0.2367 0.83436 0.0
C1202 C 0.98185 0.25428 0.84205 0.0
C1203 C 0.99655 0.26635 0.83461 0.0
H1204 H 0.80423 0.88498 0.81482 0.0
H1205 H 0.84471 0.92903 0.84098 0.0
H1206 H 0.78683 0.90827 0.80175 0.0
H1207 H 0.82758 0.95247 0.82779 0.0
H1208 H 0.79081 0.99211 0.80375 0.0
H1209 H 0.79874 0.96732 0.82314 0.0
H1210 H 0.79579 0.93006 0.77876 0.0
H1211 H 0.78803 0.95461 0.75972 0.0
C1212 C 0.80901 0.89964 0.81823 0.0
C1213 C 0.82565 0.90522 0.82904 0.0
C1214 C 0.79918 0.91303 0.8106 0.0
C1215 C 0.80587 0.93235 0.81352 0.0
C1216 C 0.82184 0.93778 0.82534 0.0
C1217 C 0.83168 0.92435 0.83294 0.0
C1218 C 0.79121 0.97839 0.79831 0.0
C1219 C 0.78864 0.97523 0.78024 0.0
C1220 C 0.79599 0.96425 0.80936 0.0
C1221 C 0.79798 0.94662 0.80256 0.0
C1222 C 0.79417 0.94327 0.78459 0.0
C1223 C 0.78973 0.95739 0.77362 0.0
H1224 H 0.17908 0.10433 0.21715 0.0
H1225 H 0.23933 0.12796 0.2188 0.0
H1226 H 0.18662 0.07634 0.23164 0.0
H1227 H 0.2469 0.09991 0.23288 0.0
H1228 H 0.25502 0.0522 0.26861 0.0
H1229 H 0.2449 0.08127 0.25913 0.0
H1230 H 0.20121 0.04962 0.22401 0.0
H1231 H 0.21116 0.02066 0.2336 0.0
C1232 C 0.19391 0.10368 0.2208 0.0
C1233 C 0.20858 0.1184 0.21668 0.0
C1234 C 0.19826 0.08753 0.22896 0.0
C1235 C 0.2174 0.08573 0.23338 0.0
C1236 C 0.232 0.10078 0.22984 0.0
C1237 C 0.22766 0.11683 0.22158 0.0
C1238 C 0.24303 0.0514 0.2591 0.0
C1239 C 0.23397 0.03401 0.25186 0.0
C1240 C 0.23732 0.06812 0.25353 0.0
C1241 C 0.2223 0.06789 0.24067 0.0
C1242 C 0.21271 0.05042 0.23403 0.0
C1243 C 0.21849 0.03375 0.23949 0.0
H1244 H 0.20611 0.89934 0.83939 0.0
H1245 H 0.21367 0.91681 0.89349 0.0
H1246 H 0.22977 0.92631 0.83208 0.0
H1247 H 0.23785 0.94336 0.88613 0.0
H1248 H 0.29356 0.97808 0.86494 0.0
H1249 H 0.27134 0.95043 0.87327 0.0
H1250 H 0.22975 0.96177 0.83345 0.0
H1251 H 0.25144 0.98965 0.82545 0.0
C1252 C 0.2128 0.90888 0.84973 0.0
C1253 C 0.20781 0.90596 0.86702 0.0
C1254 C 0.22641 0.92427 0.84553 0.0
C1255 C 0.23552 0.93693 0.85854 0.0
C1256 C 0.23112 0.93371 0.87589 0.0
C1257 C 0.21731 0.91844 0.88008 0.0
C1258 C 0.27963 0.97489 0.85807 0.0
C1259 C 0.27448 0.98616 0.84437 0.0
C1260 C 0.26694 0.95898 0.86282 0.0
C1261 C 0.24896 0.95389 0.85386 0.0
C1262 C 0.2437 0.9652 0.84035 0.0
C1263 C 0.25622 0.98119 0.83575 0.0
H1264 H 0.16123 0.21758 0.8786 0.0
H1265 H 0.19688 0.24199 0.83843 0.0
H1266 H 0.1376 0.23746 0.87028 0.0
H1267 H 0.17349 0.26195 0.83011 0.0
H1268 H 0.11568 0.27191 0.80469 0.0
H1269 H 0.14127 0.25585 0.81562 0.0
H1270 H 0.13083 0.27 0.86826 0.0
H1271 H 0.10491 0.28587 0.85726 0.0
C1272 C 0.16421 0.22759 0.86831 0.0
C1273 C 0.18089 0.22847 0.85926 0.0
C1274 C 0.1507 0.23895 0.8635 0.0
C1275 C 0.15353 0.25121 0.8494 0.0
C1276 C 0.17069 0.25251 0.84086 0.0
C1277 C 0.18419 0.24125 0.84573 0.0
C1278 C 0.1188 0.27159 0.8186 0.0
C1279 C 0.10815 0.28015 0.83007 0.0
C1280 C 0.13364 0.26254 0.82488 0.0
C1281 C 0.13821 0.26165 0.84285 0.0
C1282 C 0.12765 0.27032 0.85436 0.0
C1283 C 0.1129 0.27957 0.84804 0.0
H1284 H 0.84875 0.1469 0.84912 0.0
H1285 H 0.90521 0.1338 0.84402 0.0
H1286 H 0.83515 0.12103 0.82927 0.0
H1287 H 0.89162 0.10784 0.82425 0.0
H1288 H 0.86338 0.07991 0.773 0.0
H1289 H 0.87733 0.10376 0.79475 0.0
H1290 H 0.8289 0.08722 0.82603 0.0
H1291 H 0.81496 0.0635 0.80428 0.0
C1292 C 0.8582 0.13827 0.84401 0.0
C1293 C 0.87805 0.14244 0.84806 0.0
C1294 C 0.85042 0.12345 0.83261 0.0
C1295 C 0.86232 0.11245 0.82506 0.0
C1296 C 0.8821 0.11627 0.82957 0.0
C1297 C 0.88988 0.13109 0.84093 0.0
C1298 C 0.85582 0.08125 0.78459 0.0
C1299 C 0.83799 0.0699 0.78681 0.0
C1300 C 0.86382 0.09489 0.79709 0.0
C1301 C 0.85419 0.09744 0.81212 0.0
C1302 C 0.83652 0.08586 0.81447 0.0
C1303 C 0.82852 0.07226 0.80197 0.0
H1304 H 0.90788 0.83125 0.86481 0.0
H1305 H 0.8811 0.83075 0.81299 0.0
H1306 H 0.93311 0.81633 0.8537 0.0
H1307 H 0.90611 0.81571 0.80191 0.0
H1308 H 0.96405 0.80735 0.78413 0.0
H1309 H 0.93899 0.82175 0.79581 0.0
H1310 H 0.94075 0.78822 0.8418 0.0
H1311 H 0.96646 0.77441 0.83046 0.0
C1312 C 0.90722 0.82776 0.85108 0.0
C1313 C 0.89245 0.83237 0.83982 0.0
C1314 C 0.92173 0.81917 0.84467 0.0
C1315 C 0.92187 0.81487 0.82682 0.0
C1316 C 0.90685 0.81915 0.81565 0.0
C1317 C 0.89241 0.82777 0.82204 0.0
C1318 C 0.95932 0.80313 0.79681 0.0
C1319 C 0.9675 0.78963 0.80627 0.0
C1320 C 0.94466 0.81127 0.80346 0.0
C1321 C 0.93764 0.80617 0.81979 0.0
C1322 C 0.94584 0.79271 0.82928 0.0
C1323 C 0.96051 0.78457 0.82263 0.0
H1324 H 0.87579 0.90121 0.19802 0.0
H1325 H 0.84177 0.86358 0.23171 0.0
H1326 H 0.86968 0.92804 0.21485 0.0
H1327 H 0.83584 0.89029 0.24886 0.0
H1328 H 0.80716 0.94163 0.2579 0.0
H1329 H 0.8169 0.91457 0.24454 0.0
H1330 H 0.8744 0.94559 0.24203 0.0
H1331 H 0.86454 0.97283 0.25515 0.0
C1332 C 0.86749 0.89872 0.20939 0.0
C1333 C 0.85943 0.88042 0.21375 0.0
C1334 C 0.86393 0.91407 0.21904 0.0
C1335 C 0.85211 0.91141 0.23318 0.0
C1336 C 0.84475 0.89292 0.23792 0.0
C1337 C 0.84834 0.8776 0.22826 0.0
C1338 C 0.82191 0.94269 0.25459 0.0
C1339 C 0.83502 0.95949 0.25757 0.0
C1340 C 0.82756 0.92707 0.24703 0.0
C1341 C 0.84649 0.92779 0.24219 0.0
C1342 C 0.85967 0.94454 0.2454 0.0
C1343 C 0.85402 0.96016 0.25301 0.0
H1344 H 0.1739 0.76707 0.2084 0.0
H1345 H 0.15458 0.81285 0.18117 0.0
H1346 H 0.14177 0.75682 0.21814 0.0
H1347 H 0.12231 0.80245 0.19068 0.0
H1348 H 0.08388 0.7989 0.23765 0.0
H1349 H 0.11074 0.80454 0.2193 0.0
H1350 H 0.10739 0.74488 0.21218 0.0
H1351 H 0.08038 0.73921 0.231 0.0
C1352 C 0.16263 0.7746 0.20405 0.0
C1353 C 0.16679 0.79092 0.19425 0.0
C1354 C 0.14418 0.7687 0.20959 0.0
C1355 C 0.12952 0.77897 0.20538 0.0
C1356 C 0.13338 0.79445 0.19444 0.0
C1357 C 0.15184 0.80041 0.18899 0.0
C1358 C 0.08864 0.78695 0.23196 0.0
C1359 C 0.08017 0.76861 0.23592 0.0
C1360 C 0.10396 0.79019 0.22127 0.0
C1361 C 0.11128 0.77516 0.21429 0.0
C1362 C 0.10218 0.75675 0.2175 0.0
C1363 C 0.08666 0.7535 0.22817 0.0
H1364 H 0.8964 0.21969 0.18038 0.0
H1365 H 0.92244 0.17019 0.18303 0.0
H1366 H 0.92611 0.23836 0.19324 0.0
H1367 H 0.95182 0.18862 0.19616 0.0
H1368 H 0.96859 0.25202 0.24305 0.0
H1369 H 0.94182 0.23998 0.22256 0.0
H1370 H 0.97927 0.21334 0.19251 0.0
H1371 H 1.00607 0.22512 0.21321 0.0
C1372 C 0.90858 0.21288 0.18343 0.0
C1373 C 0.90705 0.19345 0.18089 0.0
C1374 C 0.92553 0.22353 0.1909 0.0
C1375 C 0.94133 0.21498 0.19579 0.0
C1376 C 0.94005 0.19572 0.19238 0.0
C1377 C 0.92312 0.1851 0.18504 0.0
C1378 C 0.97126 0.24397 0.23186 0.0
C1379 C 0.98942 0.23924 0.22997 0.0
C1380 C 0.95588 0.23713 0.22003 0.0
C1381 C 0.95833 0.22542 0.20605 0.0
C1382 C 0.97684 0.22202 0.20335 0.0
C1383 C 0.99224 0.22888 0.21517 0.0
H1384 H 0.21047 0.66625 0.6362 0.0
H1385 H 0.22417 0.72143 0.65967 0.0
H1386 H 0.22046 0.67905 0.6084 0.0
H1387 H 0.23495 0.73434 0.63187 0.0
H1388 H 0.24767 0.75348 0.57598 0.0
H1389 H 0.22947 0.74189 0.60117 0.0
H1390 H 0.2506 0.68972 0.59774 0.0
H1391 H 0.268 0.70096 0.57286 0.0
C1392 C 0.2155 0.68119 0.63536 0.0
C1393 C 0.2167 0.69277 0.6502 0.0
C1394 C 0.22136 0.68857 0.61941 0.0
C1395 C 0.22897 0.70775 0.61783 0.0
C1396 C 0.22913 0.71954 0.63247 0.0
C1397 C 0.22299 0.71214 0.64845 0.0
C1398 C 0.24798 0.7394 0.58043 0.0
C1399 C 0.2593 0.72817 0.57236 0.0
C1400 C 0.23773 0.73281 0.59499 0.0
C1401 C 0.23843 0.71478 0.6016 0.0
C1402 C 0.24927 0.70349 0.59301 0.0
C1403 C 0.25947 0.71005 0.5787 0.0
H1404 H 0.83549 0.71682 0.63856 0.0
H1405 H 0.87823 0.69843 0.60853 0.0
H1406 H 0.82734 0.73657 0.61464 0.0
H1407 H 0.87047 0.71847 0.58458 0.0
H1408 H 0.82137 0.77728 0.57229 0.0
H1409 H 0.83746 0.76367 0.59667 0.0
H1410 H 0.84309 0.71664 0.56393 0.0
H1411 H 0.82743 0.73034 0.53959 0.0
C1412 C 0.84339 0.71738 0.62691 0.0
C1413 C 0.85738 0.70621 0.62519 0.0
C1414 C 0.83885 0.72876 0.61326 0.0
C1415 C 0.84822 0.72907 0.59765 0.0
C1416 C 0.86285 0.71839 0.59634 0.0
C1417 C 0.86736 0.70701 0.61002 0.0
C1418 C 0.82645 0.76426 0.5702 0.0
C1419 C 0.82293 0.7548 0.55404 0.0
C1420 C 0.83553 0.75639 0.58421 0.0
C1421 C 0.84137 0.73897 0.58231 0.0
C1422 C 0.83894 0.73014 0.56584 0.0
C1423 C 0.82982 0.73796 0.55189 0.0
H1424 H 0.89975 0.32185 0.65032 0.0
H1425 H 0.84072 0.32816 0.65408 0.0
H1426 H 0.8905 0.30156 0.62497 0.0
H1427 H 0.83181 0.30946 0.62784 0.0
H1428 H 0.81625 0.2625 0.58824 0.0
H1429 H 0.82591 0.28036 0.61513 0.0
H1430 H 0.88172 0.29999 0.59574 0.0
H1431 H 0.87216 0.28115 0.56933 0.0
C1432 C 0.88478 0.31896 0.64582 0.0
C1433 C 0.87107 0.32684 0.65447 0.0
C1434 C 0.87948 0.30751 0.63096 0.0
C1435 C 0.86033 0.30375 0.62404 0.0
C1436 C 0.84664 0.31162 0.63273 0.0
C1437 C 0.85188 0.32277 0.64775 0.0
C1438 C 0.83059 0.27062 0.5898 0.0
C1439 C 0.84342 0.27043 0.57666 0.0
C1440 C 0.83616 0.28103 0.60521 0.0
C1441 C 0.85465 0.29193 0.60781 0.0
C1442 C 0.8675 0.29161 0.59457 0.0
C1443 C 0.86202 0.28087 0.57931 0.0
H1444 H 0.20114 0.32578 0.62905 0.0
H1445 H 0.22392 0.2838 0.65899 0.0
H1446 H 0.20617 0.30992 0.60219 0.0
H1447 H 0.22854 0.26739 0.63212 0.0
H1448 H 0.26606 0.2696 0.58427 0.0
H1449 H 0.25203 0.27577 0.61116 0.0
H1450 H 0.20015 0.28377 0.58215 0.0
H1451 H 0.21463 0.27848 0.55511 0.0
C1452 C 0.20651 0.31269 0.6298 0.0
C1453 C 0.21213 0.30588 0.64588 0.0
C1454 C 0.20937 0.30354 0.61444 0.0
C1455 C 0.21797 0.28746 0.61497 0.0
C1456 C 0.22217 0.2799 0.63125 0.0
C1457 C 0.21936 0.28913 0.64662 0.0
C1458 C 0.25162 0.27256 0.5836 0.0
C1459 C 0.24166 0.27395 0.56748 0.0
C1460 C 0.24342 0.27581 0.59908 0.0
C1461 C 0.22498 0.28043 0.59884 0.0
C1462 C 0.21449 0.28052 0.58278 0.0
C1463 C 0.22274 0.27732 0.56726 0.0
H1464 H 0.21836 0.37718 0.43613 0.0
H1465 H 0.22409 0.3244 0.41298 0.0
H1466 H 0.24374 0.37399 0.45833 0.0
H1467 H 0.24892 0.32073 0.43528 0.0
H1468 H 0.29544 0.31752 0.47507 0.0
H1469 H 0.27999 0.32985 0.44962 0.0
H1470 H 0.24383 0.35429 0.48298 0.0
H1471 H 0.2596 0.34254 0.50829 0.0
C1472 C 0.22547 0.36515 0.43558 0.0
C1473 C 0.21951 0.35105 0.42295 0.0
C1474 C 0.23984 0.3632 0.44835 0.0
C1475 C 0.24827 0.34699 0.44876 0.0
C1476 C 0.243 0.33351 0.43531 0.0
C1477 C 0.22873 0.33553 0.42254 0.0
C1478 C 0.2845 0.32591 0.47698 0.0
C1479 C 0.27855 0.32879 0.49371 0.0
C1480 C 0.27556 0.33289 0.46238 0.0
C1481 C 0.26045 0.34285 0.46418 0.0
C1482 C 0.2555 0.34684 0.48102 0.0
C1483 C 0.26448 0.33995 0.4956 0.0
H1484 H 0.23863 0.69492 0.38874 0.0
H1485 H 0.25119 0.64131 0.40531 0.0
H1486 H 0.24833 0.7078 0.41768 0.0
H1487 H 0.26276 0.65464 0.43353 0.0
H1488 H 0.26952 0.67784 0.48825 0.0
H1489 H 0.25636 0.66481 0.46 0.0
H1490 H 0.27352 0.71899 0.43698 0.0
H1491 H 0.28544 0.73204 0.46559 0.0
C1492 C 0.24343 0.6858 0.39849 0.0
C1493 C 0.24415 0.66699 0.39439 0.0
C1494 C 0.24941 0.69335 0.41514 0.0
C1495 C 0.25663 0.68246 0.42821 0.0
C1496 C 0.25712 0.6636 0.42412 0.0
C1497 C 0.25078 0.65596 0.40763 0.0
C1498 C 0.27042 0.6869 0.4771 0.0
C1499 C 0.27853 0.70593 0.47912 0.0
C1500 C 0.26298 0.67943 0.46079 0.0
C1501 C 0.26387 0.69069 0.44587 0.0
C1502 C 0.27209 0.7098 0.44801 0.0
C1503 C 0.27911 0.71734 0.46443 0.0
H1504 H 0.82432 0.67914 0.37521 0.0
H1505 H 0.8547 0.73555 0.38438 0.0
H1506 H 0.80791 0.68085 0.40217 0.0
H1507 H 0.83822 0.73753 0.41108 0.0
H1508 H 0.82294 0.72783 0.46658 0.0
H1509 H 0.83846 0.72383 0.43987 0.0
H1510 H 0.78418 0.69712 0.4153 0.0
H1511 H 0.7686 0.70113 0.44219 0.0
C1512 C 0.82732 0.69192 0.38298 0.0
C1513 C 0.84066 0.70723 0.37794 0.0
C1514 C 0.81793 0.69295 0.39833 0.0
C1515 C 0.82188 0.70928 0.40882 0.0
C1516 C 0.83511 0.72464 0.40346 0.0
C1517 C 0.84443 0.7236 0.38816 0.0
C1518 C 0.81429 0.72116 0.45548 0.0
C1519 C 0.79449 0.71502 0.45643 0.0
C1520 C 0.82318 0.71887 0.44017 0.0
C1521 C 0.8125 0.7104 0.4254 0.0
C1522 C 0.79281 0.70362 0.4265 0.0
C1523 C 0.78389 0.7059 0.44189 0.0
H1524 H 0.8334 0.34111 0.40713 0.0
H1525 H 0.85158 0.28844 0.39685 0.0
H1526 H 0.82227 0.32928 0.43516 0.0
H1527 H 0.84139 0.27728 0.42506 0.0
H1528 H 0.84834 0.2771 0.48439 0.0
H1529 H 0.85549 0.29195 0.45687 0.0
H1530 H 0.79631 0.29766 0.44777 0.0
H1531 H 0.78881 0.28212 0.47562 0.0
C1532 C 0.83494 0.32701 0.41068 0.0
C1533 C 0.84376 0.31592 0.39964 0.0
C1534 C 0.82854 0.32028 0.42678 0.0
C1535 C 0.83105 0.30241 0.43231 0.0
C1536 C 0.83943 0.29119 0.42119 0.0
C1537 C 0.84552 0.29775 0.40506 0.0
C1538 C 0.83677 0.28167 0.47672 0.0
C1539 C 0.81791 0.27818 0.48218 0.0
C1540 C 0.84093 0.29017 0.4609 0.0
C1541 C 0.82644 0.2957 0.45006 0.0
C1542 C 0.80775 0.29347 0.45591 0.0
C1543 C 0.80348 0.28468 0.47186 0.0
H1544 H 0.17285 0.72741 0.7296 0.0
H1545 H 0.13693 0.69306 0.69054 0.0
H1546 H 0.14503 0.73904 0.73951 0.0
H1547 H 0.10894 0.7051 0.69992 0.0
H1548 H 0.06096 0.71026 0.73581 0.0
H1549 H 0.0887 0.7017 0.72325 0.0
H1550 H 0.12071 0.7571 0.73502 0.0
H1551 H 0.09318 0.76542 0.74849 0.0
C1552 C 0.15901 0.72283 0.72277 0.0
C1553 C 0.15704 0.70956 0.70917 0.0
C1554 C 0.14299 0.72948 0.72844 0.0
C1555 C 0.12451 0.72299 0.72067 0.0
C1556 C 0.12279 0.71023 0.7065 0.0
C1557 C 0.13886 0.70351 0.7009 0.0
C1558 C 0.07387 0.72067 0.73594 0.0
C1559 C 0.07459 0.73858 0.74344 0.0
C1560 C 0.08985 0.71579 0.7284 0.0
C1561 C 0.10714 0.72865 0.72797 0.0
C1562 C 0.10781 0.74666 0.73523 0.0
C1563 C 0.09183 0.75153 0.74286 0.0
H1564 H 0.85001 0.64806 0.70377 0.0
H1565 H 0.9114 0.65727 0.7146 0.0
H1566 H 0.84635 0.62286 0.72471 0.0
H1567 H 0.90762 0.63226 0.73587 0.0
H1568 H 0.88776 0.59937 0.78581 0.0
H1569 H 0.89349 0.6246 0.76482 0.0
H1570 H 0.85464 0.59099 0.72703 0.0
H1571 H 0.84917 0.56578 0.74773 0.0
C1572 C 0.86275 0.64464 0.71051 0.0
C1573 C 0.88101 0.65466 0.70738 0.0
C1574 C 0.86064 0.63023 0.72256 0.0
C1575 C 0.87671 0.62552 0.73187 0.0
C1576 C 0.89496 0.63568 0.72899 0.0
C1577 C 0.8971 0.65004 0.71683 0.0
C1578 C 0.88066 0.59725 0.77295 0.0
C1579 C 0.86779 0.5806 0.76858 0.0
C1580 C 0.88392 0.61173 0.76094 0.0
C1581 C 0.87431 0.60987 0.74436 0.0
C1582 C 0.86193 0.59301 0.73983 0.0
C1583 C 0.85878 0.57856 0.75175 0.0
H1584 H 0.90336 0.35379 0.73222 0.0
H1585 H 0.9312 0.33912 0.68707 0.0
H1586 H 0.93103 0.34848 0.75083 0.0
H1587 H 0.95841 0.33343 0.70564 0.0
H1588 H 0.99295 0.30383 0.74499 0.0
H1589 H 0.96517 0.31027 0.72751 0.0
H1590 H 0.9662 0.3609 0.75752 0.0
H1591 H 0.99398 0.35427 0.77527 0.0
C1592 C 0.91537 0.34957 0.72621 0.0
C1593 C 0.91481 0.34666 0.70808 0.0
C1594 C 0.93123 0.34649 0.73691 0.0
C1595 C 0.94687 0.34031 0.72976 0.0
C1596 C 0.94646 0.33779 0.71164 0.0
C1597 C 0.93076 0.34101 0.70097 0.0
C1598 C 0.98718 0.31624 0.74802 0.0
C1599 C 0.99575 0.32851 0.7616 0.0
C1600 C 0.97134 0.32004 0.73786 0.0
C1601 C 0.96347 0.33616 0.74103 0.0
C1602 C 0.97182 0.34831 0.75478 0.0
C1603 C 0.98784 0.3446 0.76485 0.0
H1604 H 0.20691 0.37402 0.7383 0.0
H1605 H 0.20691 0.3944 0.68584 0.0
H1606 H 0.22172 0.40535 0.74919 0.0
H1607 H 0.22097 0.42576 0.6966 0.0
H1608 H 0.27381 0.46631 0.71777 0.0
H1609 H 0.25289 0.43779 0.70786 0.0
H1610 H 0.22029 0.43876 0.75333 0.0
H1611 H 0.24179 0.46748 0.7636 0.0
C1612 C 0.20963 0.38536 0.7292 0.0
C1613 C 0.20611 0.38186 0.71126 0.0
C1614 C 0.21802 0.40329 0.73539 0.0
C1615 C 0.22284 0.41797 0.72372 0.0
C1616 C 0.2179 0.41465 0.70589 0.0
C1617 C 0.20978 0.39675 0.69972 0.0
C1618 C 0.26213 0.46059 0.72566 0.0
C1619 C 0.25952 0.46915 0.74151 0.0
C1620 C 0.24998 0.44427 0.71987 0.0
C1621 C 0.23479 0.43604 0.72972 0.0
C1622 C 0.23192 0.44472 0.74549 0.0
C1623 C 0.24416 0.46119 0.75132 0.0
H1624 H 0.14696 0.30785 0.36121 0.0
H1625 H 0.1271 0.35723 0.34169 0.0
H1626 H 0.11923 0.28818 0.34655 0.0
H1627 H 0.09917 0.33746 0.327 0.0
H1628 H 0.06162 0.29297 0.28967 0.0
H1629 H 0.08957 0.31395 0.30316 0.0
H1630 H 0.08502 0.28127 0.34989 0.0
H1631 H 0.0576 0.26032 0.33647 0.0
C1632 C 0.13656 0.31451 0.35391 0.0
C1633 C 0.13912 0.33409 0.35275 0.0
C1634 C 0.12068 0.30324 0.34549 0.0
C1635 C 0.10691 0.31128 0.33572 0.0
C1636 C 0.10961 0.33086 0.33429 0.0
C1637 C 0.12556 0.34216 0.34273 0.0
C1638 C 0.0666 0.29035 0.30283 0.0
C1639 C 0.05749 0.27491 0.31194 0.0
C1640 C 0.08254 0.30238 0.31057 0.0
C1641 C 0.08961 0.29914 0.32753 0.0
C1642 C 0.08019 0.28393 0.33669 0.0
C1643 C 0.06437 0.27197 0.329 0.0
H1644 H 0.25977 0.63572 0.32124 0.0
H1645 H 0.24968 0.6056 0.36886 0.0
H1646 H 0.27263 0.60953 0.30921 0.0
H1647 H 0.26247 0.57935 0.3568 0.0
H1648 H 0.25542 0.5295 0.31541 0.0
H1649 H 0.24953 0.5563 0.33224 0.0
H1650 H 0.29975 0.59022 0.3128 0.0
H1651 H 0.30584 0.56304 0.29613 0.0
C1652 C 0.26047 0.62358 0.3292 0.0
C1653 C 0.25359 0.62273 0.34598 0.0
C1654 C 0.26801 0.60863 0.32237 0.0
C1655 C 0.26858 0.59232 0.33203 0.0
C1656 C 0.26218 0.59168 0.34899 0.0
C1657 C 0.25494 0.60676 0.35593 0.0
C1658 C 0.26557 0.54252 0.3152 0.0
C1659 C 0.28123 0.54412 0.30466 0.0
C1660 C 0.26218 0.5579 0.32482 0.0
C1661 C 0.27411 0.57546 0.32383 0.0
C1662 C 0.29026 0.5769 0.31379 0.0
C1663 C 0.29389 0.56131 0.30443 0.0
H1664 H 0.90011 0.70274 0.29932 0.0
H1665 H 0.91247 0.65188 0.3227 0.0
H1666 H 0.93141 0.70813 0.28718 0.0
H1667 H 0.94363 0.65691 0.31001 0.0
H1668 H 0.98591 0.71238 0.26161 0.0
H1669 H 0.95304 0.69847 0.26721 0.0
H1670 H 0.9728 0.67918 0.31685 0.0
H1671 H 1.00558 0.69265 0.31112 0.0
C1672 C 0.90942 0.69255 0.30163 0.0
C1673 C 0.90393 0.67705 0.31219 0.0
C1674 C 0.92728 0.6955 0.29448 0.0
C1675 C 0.94011 0.683 0.2977 0.0
C1676 C 0.93418 0.66691 0.30745 0.0
C1677 C 0.91626 0.66395 0.31459 0.0
C1678 C 0.9833 0.70473 0.27351 0.0
C1679 C 0.99835 0.70388 0.28604 0.0
C1680 C 0.96443 0.69688 0.27677 0.0
C1681 C 0.96023 0.68798 0.2926 0.0
C1682 C 0.97548 0.68584 0.30448 0.0
C1683 C 0.99432 0.69368 0.30123 0.0
H1684 H 0.85928 0.38471 0.31169 0.0
H1685 H 0.82233 0.39502 0.35164 0.0
H1686 H 0.8561 0.4149 0.29854 0.0
H1687 H 0.81918 0.42514 0.33875 0.0
H1688 H 0.79783 0.46465 0.2993 0.0
H1689 H 0.80343 0.43562 0.31262 0.0
H1690 H 0.86337 0.44947 0.30258 0.0
H1691 H 0.85765 0.4785 0.28882 0.0
C1692 C 0.85079 0.39364 0.31782 0.0
C1693 C 0.84117 0.3877 0.33272 0.0
C1694 C 0.84894 0.41092 0.31031 0.0
C1695 C 0.83722 0.42245 0.31746 0.0
C1696 C 0.82806 0.41655 0.3327 0.0
C1697 C 0.83001 0.39939 0.34021 0.0
C1698 C 0.81218 0.46149 0.29971 0.0
C1699 C 0.82726 0.47402 0.29288 0.0
C1700 C 0.81546 0.44488 0.30759 0.0
C1701 C 0.8339 0.44018 0.30883 0.0
C1702 C 0.84897 0.45256 0.30181 0.0
C1703 C 0.84572 0.4693 0.29403 0.0
H1704 H 0.23913 0.65803 0.7214 0.0
H1705 H 0.22688 0.63073 0.67107 0.0
H1706 H 0.25523 0.6328 0.73161 0.0
H1707 H 0.24288 0.60526 0.68134 0.0
H1708 H 0.28798 0.57061 0.70078 0.0
H1709 H 0.27289 0.59635 0.69003 0.0
H1710 H 0.24917 0.60097 0.73984 0.0
H1711 H 0.26492 0.57586 0.75081 0.0
C1712 C 0.23972 0.64655 0.71252 0.0
C1713 C 0.23151 0.64644 0.69541 0.0
C1714 C 0.24897 0.63199 0.71841 0.0
C1715 C 0.2503 0.61675 0.70742 0.0
C1716 C 0.24238 0.61679 0.69019 0.0
C1717 C 0.23316 0.63143 0.68427 0.0
C1718 C 0.27972 0.57719 0.70954 0.0
C1719 C 0.27781 0.57098 0.72676 0.0
C1720 C 0.27083 0.59189 0.70327 0.0
C1721 C 0.25973 0.6009 0.714 0.0
C1722 C 0.25778 0.59465 0.73119 0.0
C1723 C 0.26667 0.57998 0.73746 0.0
H1724 H 0.22156 0.38014 0.35729 0.0
H1725 H 0.16826 0.3996 0.34538 0.0
H1726 H 0.23802 0.40444 0.33894 0.0
H1727 H 0.18465 0.42411 0.32739 0.0
H1728 H 0.21389 0.44709 0.2789 0.0
H1729 H 0.19826 0.42531 0.29962 0.0
H1730 H 0.24848 0.43762 0.33509 0.0
H1731 H 0.26447 0.45871 0.314 0.0
C1732 C 0.21348 0.38987 0.35102 0.0
C1733 C 0.19363 0.38789 0.35257 0.0
C1734 C 0.22287 0.4038 0.34052 0.0
C1735 C 0.21259 0.41608 0.3315 0.0
C1736 C 0.19291 0.41461 0.3338 0.0
C1737 C 0.18353 0.40064 0.34416 0.0
C1738 C 0.22166 0.4451 0.29105 0.0
C1739 C 0.24048 0.45466 0.29469 0.0
C1740 C 0.2126 0.43277 0.30306 0.0
C1741 C 0.22209 0.42975 0.31907 0.0
C1742 C 0.24082 0.43949 0.32283 0.0
C1743 C 0.24991 0.45179 0.31079 0.0
H1744 H 0.15514 0.66035 0.33931 0.0
H1745 H 0.19417 0.71293 0.3385 0.0
H1746 H 0.12807 0.67644 0.33269 0.0
H1747 H 0.16716 0.7292 0.33169 0.0
H1748 H 0.11141 0.75388 0.33178 0.0
H1749 H 0.13784 0.73836 0.34198 0.0
H1750 H 0.11589 0.69155 0.30731 0.0
H1751 H 0.08934 0.70683 0.29745 0.0
C1752 C 0.15784 0.67545 0.33808 0.0
C1753 C 0.17664 0.68547 0.33963 0.0
C1754 C 0.14238 0.68466 0.33406 0.0
C1755 C 0.14538 0.70414 0.33146 0.0
C1756 C 0.16424 0.71424 0.33373 0.0
C1757 C 0.17973 0.70496 0.33767 0.0
C1758 C 0.11213 0.74022 0.32643 0.0
C1759 C 0.09816 0.73167 0.31375 0.0
C1760 C 0.1274 0.73137 0.33219 0.0
C1761 C 0.12903 0.71363 0.32555 0.0
C1762 C 0.11502 0.70508 0.31292 0.0
C1763 C 0.09986 0.71397 0.30708 0.0
H1764 H 0.8185 0.65016 0.33205 0.0
H1765 H 0.86699 0.6215 0.33643 0.0
H1766 H 0.79679 0.62013 0.33086 0.0
H1767 H 0.8454 0.59154 0.33425 0.0
H1768 H 0.80592 0.53857 0.33396 0.0
H1769 H 0.82123 0.56889 0.34631 0.0
H1770 H 0.78831 0.59647 0.30889 0.0
H1771 H 0.7726 0.56634 0.29702 0.0
C1772 C 0.82454 0.63747 0.33301 0.0
C1773 C 0.84452 0.63825 0.33412 0.0
C1774 C 0.81208 0.62023 0.33217 0.0
C1775 C 0.81929 0.60337 0.33233 0.0
C1776 C 0.83926 0.60419 0.3343 0.0
C1777 C 0.8517 0.62141 0.33524 0.0
C1778 C 0.80146 0.55108 0.32877 0.0
C1779 C 0.78841 0.55003 0.31419 0.0
C1780 C 0.81039 0.56848 0.33574 0.0
C1781 C 0.80645 0.58515 0.32826 0.0
C1782 C 0.79177 0.58398 0.315 0.0
C1783 C 0.78277 0.56661 0.30811 0.0
H1784 H 0.87582 0.31037 0.32606 0.0
H1785 H 0.90732 0.31648 0.37605 0.0
H1786 H 0.89985 0.29407 0.3147 0.0
H1787 H 0.93129 0.30012 0.36472 0.0
H1788 H 0.95727 0.25079 0.34518 0.0
H1789 H 0.93446 0.26892 0.35585 0.0
H1790 H 0.93265 0.29682 0.3066 0.0
H1791 H 0.95504 0.2782 0.29572 0.0
C1792 C 0.88803 0.30857 0.33457 0.0
C1793 C 0.88948 0.31474 0.35204 0.0
C1794 C 0.90184 0.29913 0.32805 0.0
C1795 C 0.91751 0.29555 0.3388 0.0
C1796 C 0.91925 0.30222 0.35612 0.0
C1797 C 0.90548 0.31168 0.36263 0.0
C1798 C 0.95194 0.26066 0.33654 0.0
C1799 C 0.95808 0.2629 0.31952 0.0
C1800 C 0.93898 0.27128 0.34276 0.0
C1801 C 0.93166 0.28447 0.33216 0.0
C1802 C 0.9378 0.28672 0.31513 0.0
C1803 C 0.95084 0.27614 0.30893 0.0
H1804 H 0.82904 0.39484 0.71959 0.0
H1805 H 0.88738 0.42295 0.71636 0.0
H1806 H 0.82269 0.42007 0.73849 0.0
H1807 H 0.88115 0.44841 0.735 0.0
H1808 H 0.86953 0.48051 0.78278 0.0
H1809 H 0.87491 0.45501 0.76443 0.0
H1810 H 0.81913 0.45307 0.73817 0.0
H1811 H 0.81351 0.47876 0.75701 0.0
C1812 C 0.84056 0.40637 0.72314 0.0
C1813 C 0.85877 0.40688 0.71684 0.0
C1814 C 0.83687 0.42094 0.73377 0.0
C1815 C 0.85136 0.43637 0.73829 0.0
C1816 C 0.86968 0.43667 0.73202 0.0
C1817 C 0.87332 0.4221 0.72136 0.0
C1818 C 0.85831 0.47475 0.77311 0.0
C1819 C 0.84105 0.48182 0.7714 0.0
C1820 C 0.86151 0.46011 0.76246 0.0
C1821 C 0.84756 0.45197 0.74968 0.0
C1822 C 0.83016 0.4589 0.74797 0.0
C1823 C 0.82696 0.4737 0.75869 0.0
H1824 H 0.16925 0.3244 0.73503 0.0
H1825 H 0.14788 0.31416 0.68161 0.0
H1826 H 0.13918 0.30738 0.7448 0.0
H1827 H 0.1175 0.297 0.6914 0.0
H1828 H 0.08851 0.26957 0.76011 0.0
H1829 H 0.11807 0.27598 0.74505 0.0
H1830 H 0.0911 0.30814 0.70709 0.0
H1831 H 0.06142 0.30166 0.72203 0.0
C1832 C 0.15815 0.31826 0.72539 0.0
C1833 C 0.16075 0.32068 0.70761 0.0
C1834 C 0.14101 0.30835 0.73096 0.0
C1835 C 0.12601 0.3008 0.71885 0.0
C1836 C 0.12883 0.30269 0.701 0.0
C1837 C 0.14617 0.31242 0.69541 0.0
C1838 C 0.08866 0.27756 0.74827 0.0
C1839 C 0.07272 0.28549 0.74251 0.0
C1840 C 0.10564 0.28127 0.73969 0.0
C1841 C 0.10699 0.29288 0.72513 0.0
C1842 C 0.09048 0.29915 0.71829 0.0
C1843 C 0.07348 0.29549 0.72691 0.0
H1844 H 0.90666 0.72159 0.71495 0.0
H1845 H 0.92438 0.71813 0.66258 0.0
H1846 H 0.9337 0.74658 0.72181 0.0
H1847 H 0.95124 0.74372 0.66926 0.0
H1848 H 1.01083 0.76073 0.70133 0.0
H1849 H 0.9809 0.74517 0.68686 0.0
H1850 H 0.94966 0.77825 0.71745 0.0
H1851 H 0.97963 0.7935 0.73232 0.0
C1852 C 0.91619 0.72641 0.70482 0.0
C1853 C 0.91358 0.7177 0.68833 0.0
C1854 C 0.93156 0.74094 0.70866 0.0
C1855 C 0.94471 0.74716 0.69609 0.0
C1856 C 0.94147 0.73915 0.67927 0.0
C1857 C 0.92603 0.72458 0.67542 0.0
C1858 C 0.99766 0.76516 0.70459 0.0
C1859 C 0.99758 0.77799 0.71831 0.0
C1860 C 0.98044 0.75624 0.69623 0.0
C1861 C 0.96283 0.76011 0.70134 0.0
C1862 C 0.96296 0.77459 0.71357 0.0
C1863 C 0.98016 0.78343 0.722 0.0
H1864 H 0.71914 0.21272 0.64383 0.0
H1865 H 0.72223 0.15581 0.62947 0.0
H1866 H 0.73365 0.22378 0.61701 0.0
H1867 H 0.73617 0.16668 0.60244 0.0
H1868 H 0.78154 0.19266 0.56712 0.0
H1869 H 0.76482 0.18221 0.59249 0.0
H1870 H 0.73079 0.22586 0.58595 0.0
H1871 H 0.74842 0.23699 0.56042 0.0
C1872 C 0.72276 0.20253 0.63486 0.0
C1873 C 0.71967 0.18336 0.63892 0.0
C1874 C 0.73099 0.20888 0.61938 0.0
C1875 C 0.73626 0.19622 0.60743 0.0
C1876 C 0.73277 0.17699 0.6114 0.0
C1877 C 0.72474 0.17068 0.62695 0.0
C1878 C 0.77044 0.20012 0.5709 0.0
C1879 C 0.76639 0.21575 0.56157 0.0
C1880 C 0.76065 0.19393 0.58553 0.0
C1881 C 0.74622 0.20298 0.59138 0.0
C1882 C 0.74192 0.21857 0.58198 0.0
C1883 C 0.75191 0.2249 0.56723 0.0
H1884 H 0.31532 0.26392 0.65437 0.0
H1885 H 0.37305 0.25953 0.64298 0.0
H1886 H 0.31314 0.28451 0.62976 0.0
H1887 H 0.37131 0.28073 0.61846 0.0
H1888 H 0.34416 0.28637 0.56221 0.0
H1889 H 0.35476 0.27633 0.59052 0.0
H1890 H 0.32252 0.31333 0.6152 0.0
H1891 H 0.31132 0.32295 0.58668 0.0
C1892 C 0.32775 0.26791 0.64683 0.0
C1893 C 0.3443 0.26025 0.65037 0.0
C1894 C 0.3266 0.27982 0.63279 0.0
C1895 C 0.34204 0.28427 0.62201 0.0
C1896 C 0.35908 0.27741 0.62634 0.0
C1897 C 0.36016 0.2654 0.64039 0.0
C1898 C 0.33967 0.29274 0.57366 0.0
C1899 C 0.32653 0.30515 0.57215 0.0
C1900 C 0.34589 0.28705 0.58997 0.0
C1901 C 0.33921 0.29373 0.60519 0.0
C1902 C 0.32758 0.30757 0.60372 0.0
C1903 C 0.32128 0.31321 0.58736 0.0
H1904 H 0.33697 0.84155 0.66691 0.0
H1905 H 0.39608 0.83876 0.65888 0.0
H1906 H 0.32697 0.82289 0.64046 0.0
H1907 H 0.38606 0.82 0.63252 0.0
H1908 H 0.35961 0.77043 0.59642 0.0
H1909 H 0.36959 0.78926 0.62267 0.0
H1910 H 0.32777 0.82418 0.60904 0.0
H1911 H 0.31781 0.80542 0.58271 0.0
C1912 C 0.34788 0.83712 0.65945 0.0
C1913 C 0.36737 0.84173 0.66515 0.0
C1914 C 0.34212 0.82637 0.64424 0.0
C1915 C 0.35567 0.81987 0.63428 0.0
C1916 C 0.37516 0.82448 0.63996 0.0
C1917 C 0.38092 0.83526 0.65514 0.0
C1918 C 0.35261 0.7822 0.59885 0.0
C1919 C 0.33784 0.78628 0.58726 0.0
C1920 C 0.35837 0.79305 0.61399 0.0
C1921 C 0.34952 0.80831 0.61807 0.0
C1922 C 0.33474 0.81239 0.60651 0.0
C1923 C 0.32901 0.80157 0.59134 0.0
H1924 H 0.6911 0.7862 0.64076 0.0
H1925 H 0.7523 0.80246 0.64953 0.0
H1926 H 0.69546 0.77263 0.61238 0.0
H1927 H 0.75684 0.78928 0.62108 0.0
H1928 H 0.75934 0.74664 0.57853 0.0
H1929 H 0.75334 0.75868 0.60687 0.0
H1930 H 0.70597 0.78186 0.58355 0.0
H1931 H 0.71197 0.76978 0.5552 0.0
C1932 C 0.70546 0.78697 0.63645 0.0
C1933 C 0.7214 0.7953 0.64708 0.0
C1934 C 0.70798 0.77928 0.62025 0.0
C1935 C 0.7265 0.77978 0.61451 0.0
C1936 C 0.74241 0.78838 0.62524 0.0
C1937 C 0.73985 0.79606 0.64141 0.0
C1938 C 0.74763 0.75427 0.57946 0.0
C1939 C 0.73622 0.75734 0.56458 0.0
C1940 C 0.74422 0.76122 0.59568 0.0
C1941 C 0.72932 0.77142 0.59743 0.0
C1942 C 0.71748 0.77394 0.58267 0.0
C1943 C 0.72088 0.76696 0.56641 0.0
H1944 H 0.71116 0.81516 0.4196 0.0
H1945 H 0.71281 0.86547 0.45007 0.0
H1946 H 0.73644 0.80633 0.43891 0.0
H1947 H 0.73865 0.85705 0.46934 0.0
H1948 H 0.75525 0.81668 0.51272 0.0
H1949 H 0.73923 0.8338 0.49117 0.0
H1950 H 0.7689 0.81164 0.45068 0.0
H1951 H 0.78453 0.79397 0.47227 0.0
C1952 C 0.71741 0.82456 0.4302 0.0
C1953 C 0.7102 0.8409 0.43349 0.0
C1954 C 0.73199 0.81961 0.44123 0.0
C1955 C 0.73959 0.83094 0.45577 0.0
C1956 C 0.73297 0.8479 0.4584 0.0
C1957 C 0.71831 0.8528 0.44736 0.0
C1958 C 0.75875 0.81579 0.49929 0.0
C1959 C 0.77086 0.80363 0.49419 0.0
C1960 C 0.7496 0.82572 0.48689 0.0
C1961 C 0.75248 0.82383 0.46911 0.0
C1962 C 0.766 0.81305 0.46422 0.0
C1963 C 0.77506 0.80302 0.47662 0.0
H1964 H 0.7268 0.1901 0.37859 0.0
H1965 H 0.73453 0.13485 0.39458 0.0
H1966 H 0.74144 0.20295 0.40681 0.0
H1967 H 0.74911 0.14755 0.42243 0.0
H1968 H 0.79587 0.17861 0.46009 0.0
H1969 H 0.77937 0.16707 0.43264 0.0
H1970 H 0.73783 0.20308 0.4389 0.0
H1971 H 0.75417 0.21456 0.4666 0.0
C1972 C 0.73138 0.18067 0.38817 0.0
C1973 C 0.72979 0.16149 0.38415 0.0
C1974 C 0.7398 0.18802 0.40433 0.0
C1975 C 0.74683 0.17634 0.41681 0.0
C1976 C 0.74439 0.15707 0.41301 0.0
C1977 C 0.73597 0.14977 0.397 0.0
C1978 C 0.78315 0.18403 0.45584 0.0
C1979 C 0.77645 0.19753 0.46588 0.0
C1980 C 0.77364 0.17737 0.43997 0.0
C1981 C 0.75715 0.18403 0.43354 0.0
C1982 C 0.75057 0.19774 0.44336 0.0
C1983 C 0.76002 0.20434 0.45932 0.0
H1984 H 0.3354 0.22177 0.38924 0.0
H1985 H 0.36367 0.18362 0.4195 0.0
H1986 H 0.32943 0.23768 0.416 0.0
H1987 H 0.35794 0.19952 0.44629 0.0
H1988 H 0.31598 0.21205 0.48639 0.0
H1989 H 0.32756 0.20006 0.46037 0.0
H1990 H 0.34419 0.25649 0.44237 0.0
H1991 H 0.33286 0.26865 0.46868 0.0
C1992 C 0.34078 0.21719 0.40165 0.0
C1993 C 0.35 0.20165 0.40254 0.0
C1994 C 0.33739 0.22625 0.41692 0.0
C1995 C 0.34306 0.21971 0.43322 0.0
C1996 C 0.3532 0.2047 0.43391 0.0
C1997 C 0.35662 0.19571 0.41866 0.0
C1998 C 0.32237 0.22198 0.47709 0.0
C1999 C 0.3235 0.24135 0.47973 0.0
C2000 C 0.32904 0.21508 0.46215 0.0
C2001 C 0.33693 0.22735 0.44941 0.0
C2002 C 0.33808 0.24671 0.45195 0.0
C2003 C 0.3315 0.25365 0.46699 0.0
H2004 H 0.32459 0.8453 0.41185 0.0
H2005 H 0.33622 0.78943 0.40391 0.0
H2006 H 0.31405 0.83651 0.44097 0.0
H2007 H 0.32642 0.78114 0.43302 0.0
H2008 H 0.34099 0.79232 0.49378 0.0
H2009 H 0.3459 0.80464 0.46481 0.0
H2010 H 0.28491 0.80011 0.45479 0.0
H2011 H 0.27974 0.78725 0.4841 0.0
C2012 C 0.3247 0.83113 0.41613 0.0
C2013 C 0.33164 0.81822 0.4055 0.0
C2014 C 0.31864 0.82613 0.43281 0.0
C2015 C 0.3194 0.80814 0.43918 0.0
C2016 C 0.32569 0.7951 0.42841 0.0
C2017 C 0.33155 0.79999 0.41178 0.0
C2018 C 0.32853 0.79419 0.48561 0.0
C2019 C 0.30992 0.78864 0.49131 0.0
C2020 C 0.33141 0.80129 0.46899 0.0
C2021 C 0.31582 0.80328 0.45758 0.0
C2022 C 0.29718 0.7988 0.46344 0.0
C2023 C 0.29424 0.79151 0.48021 0.0
H2024 H 0.66139 0.2228 0.70441 0.0
H2025 H 0.63807 0.16586 0.71677 0.0
H2026 H 0.63925 0.23418 0.72309 0.0
H2027 H 0.61618 0.1771 0.73614 0.0
H2028 H 0.56323 0.20253 0.74843 0.0
H2029 H 0.58801 0.19026 0.73391 0.0
H2030 H 0.62925 0.23905 0.75095 0.0
H2031 H 0.6042 0.25149 0.7651 0.0
C2032 C 0.65187 0.21275 0.71162 0.0
C2033 C 0.65153 0.19351 0.70936 0.0
C2034 C 0.63915 0.21925 0.72238 0.0
C2035 C 0.62572 0.20662 0.73117 0.0
C2036 C 0.62603 0.18728 0.7294 0.0
C2037 C 0.63874 0.1808 0.71851 0.0
C2038 C 0.57762 0.21055 0.74926 0.0
C2039 C 0.58165 0.22807 0.75788 0.0
C2040 C 0.59194 0.20345 0.74096 0.0
C2041 C 0.61078 0.2136 0.74115 0.0
C2042 C 0.61489 0.23094 0.75018 0.0
C2043 C 0.60051 0.2381 0.75834 0.0
H2044 H 0.38268 0.17644 0.71827 0.0
H2045 H 0.32532 0.18859 0.71971 0.0
H2046 H 0.37251 0.14677 0.7326 0.0
H2047 H 0.31512 0.15866 0.73357 0.0
H2048 H 0.30079 0.09395 0.73565 0.0
H2049 H 0.31141 0.12487 0.72383 0.0
H2050 H 0.35999 0.1338 0.76126 0.0
H2051 H 0.34936 0.10264 0.77305 0.0
C2052 C 0.36798 0.17293 0.72183 0.0
C2053 C 0.35481 0.18491 0.71773 0.0
C2054 C 0.36216 0.1559 0.73 0.0
C2055 C 0.34301 0.15038 0.73411 0.0
C2056 C 0.32992 0.16246 0.73033 0.0
C2057 C 0.33576 0.17956 0.72232 0.0
C2058 C 0.31378 0.10246 0.7413 0.0
C2059 C 0.32431 0.09585 0.75521 0.0
C2060 C 0.31975 0.12024 0.73466 0.0
C2061 C 0.3365 0.13175 0.74165 0.0
C2062 C 0.34707 0.12518 0.75558 0.0
C2063 C 0.34093 0.10744 0.76239 0.0
H2064 H 0.39814 0.85755 0.74371 0.0
H2065 H 0.42852 0.85221 0.69761 0.0
H2066 H 0.4238 0.84669 0.76135 0.0
H2067 H 0.45407 0.84154 0.7151 0.0
H2068 H 0.48288 0.80053 0.74713 0.0
H2069 H 0.45848 0.81381 0.7306 0.0
H2070 H 0.45742 0.85353 0.77232 0.0
H2071 H 0.48202 0.84021 0.78896 0.0
C2072 C 0.41042 0.85435 0.73738 0.0
C2073 C 0.41112 0.85551 0.7192 0.0
C2074 C 0.42514 0.8481 0.74748 0.0
C2075 C 0.44093 0.84292 0.73965 0.0
C2076 C 0.44194 0.8449 0.72157 0.0
C2077 C 0.42729 0.85109 0.71152 0.0
C2078 C 0.47772 0.81224 0.75277 0.0
C2079 C 0.48464 0.81928 0.76944 0.0
C2080 C 0.46363 0.8199 0.74324 0.0
C2081 C 0.45598 0.83487 0.75003 0.0
C2082 C 0.46281 0.8419 0.76672 0.0
C2083 C 0.47696 0.83424 0.77628 0.0
H2084 H 0.72943 0.87539 0.66512 0.0
H2085 H 0.70389 0.8808 0.71395 0.0
H2086 H 0.7455 0.90821 0.66783 0.0
H2087 H 0.71968 0.91321 0.71659 0.0
H2088 H 0.73451 0.9745 0.71065 0.0
H2089 H 0.71794 0.94297 0.70284 0.0
H2090 H 0.77082 0.92888 0.68637 0.0
H2091 H 0.78734 0.96072 0.69401 0.0
C2092 C 0.72726 0.88355 0.6764 0.0
C2093 C 0.71513 0.87557 0.68917 0.0
C2094 C 0.73643 0.90232 0.67795 0.0
C2095 C 0.73361 0.9134 0.69228 0.0
C2096 C 0.72174 0.90525 0.70513 0.0
C2097 C 0.71266 0.88662 0.70361 0.0
C2098 C 0.74252 0.96472 0.70517 0.0
C2099 C 0.76224 0.96995 0.70316 0.0
C2100 C 0.73307 0.94666 0.70074 0.0
C2101 C 0.74315 0.9333 0.69431 0.0
C2102 C 0.76265 0.93886 0.69125 0.0
C2103 C 0.77211 0.95706 0.69561 0.0
H2104 H 0.64772 0.8458 0.33838 0.0
H2105 H 0.61552 0.84839 0.38386 0.0
H2106 H 0.61867 0.83038 0.32203 0.0
H2107 H 0.5865 0.83294 0.36753 0.0
H2108 H 0.55122 0.77908 0.34205 0.0
H2109 H 0.57745 0.80044 0.35679 0.0
H2110 H 0.58548 0.83252 0.30994 0.0
H2111 H 0.559 0.81082 0.29495 0.0
C2112 C 0.63436 0.84347 0.34477 0.0
C2113 C 0.63397 0.84809 0.36249 0.0
C2114 C 0.61771 0.83466 0.33539 0.0
C2115 C 0.60035 0.83026 0.34355 0.0
C2116 C 0.59975 0.83585 0.36098 0.0
C2117 C 0.61637 0.84466 0.37034 0.0
C2118 C 0.55844 0.79074 0.33486 0.0
C2119 C 0.5531 0.7932 0.31729 0.0
C2120 C 0.57339 0.80311 0.34338 0.0
C2121 C 0.58348 0.81823 0.33456 0.0
C2122 C 0.57798 0.82094 0.31704 0.0
C2123 C 0.56281 0.80858 0.3085 0.0
H2124 H 0.76529 0.13399 0.34035 0.0
H2125 H 0.71144 0.09674 0.32927 0.0
H2126 H 0.78229 0.1107 0.32868 0.0
H2127 H 0.72837 0.07323 0.31797 0.0
H2128 H 0.76244 0.04093 0.28439 0.0
H2129 H 0.74583 0.06513 0.29483 0.0
H2130 H 0.79155 0.08155 0.33442 0.0
H2131 H 0.80842 0.05781 0.32355 0.0
C2132 C 0.75709 0.12075 0.33554 0.0
C2133 C 0.73698 0.11728 0.33574 0.0
C2134 C 0.76684 0.10732 0.32887 0.0
C2135 C 0.75679 0.08994 0.32234 0.0
C2136 C 0.73665 0.08652 0.32254 0.0
C2137 C 0.7269 0.10001 0.32908 0.0
C2138 C 0.76898 0.04975 0.29529 0.0
C2139 C 0.7868 0.04738 0.3031 0.0
C2140 C 0.75938 0.06359 0.30138 0.0
C2141 C 0.76724 0.07539 0.31556 0.0
C2142 C 0.78512 0.07302 0.32331 0.0
C2143 C 0.79478 0.05927 0.31713 0.0
H2144 H 0.40825 0.19342 0.3197 0.0
H2145 H 0.41735 0.20546 0.37481 0.0
H2146 H 0.43702 0.21574 0.31444 0.0
H2147 H 0.44613 0.22831 0.3695 0.0
H2148 H 0.50945 0.24396 0.35075 0.0
H2149 H 0.47869 0.22722 0.35966 0.0
H2150 H 0.44986 0.24924 0.31557 0.0
H2151 H 0.48061 0.26575 0.30664 0.0
C2152 C 0.41639 0.20092 0.33069 0.0
C2153 C 0.41065 0.19758 0.34767 0.0
C2154 C 0.43275 0.2139 0.32767 0.0
C2155 C 0.4438 0.22388 0.34155 0.0
C2156 C 0.43793 0.22077 0.35855 0.0
C2157 C 0.42142 0.20781 0.36158 0.0
C2158 C 0.49648 0.24561 0.34327 0.0
C2159 C 0.4974 0.2559 0.32786 0.0
C2160 C 0.47886 0.23602 0.34835 0.0
C2161 C 0.46189 0.23664 0.33812 0.0
C2162 C 0.46273 0.24814 0.32348 0.0
C2163 C 0.4803 0.25762 0.3184 0.0
H2164 H 0.28266 0.86653 0.34038 0.0
H2165 H 0.33791 0.90041 0.35327 0.0
H2166 H 0.27013 0.89445 0.33078 0.0
H2167 H 0.32575 0.9283 0.34337 0.0
H2168 H 0.2976 0.97812 0.33269 0.0
H2169 H 0.30534 0.95054 0.34745 0.0
H2170 H 0.27322 0.91518 0.30666 0.0
H2171 H 0.2651 0.94279 0.29212 0.0
C2172 C 0.29197 0.88007 0.34155 0.0
C2173 C 0.31113 0.88143 0.34782 0.0
C2174 C 0.2849 0.89605 0.33582 0.0
C2175 C 0.2969 0.91375 0.33614 0.0
C2176 C 0.31593 0.91506 0.34312 0.0
C2177 C 0.32296 0.89908 0.34884 0.0
C2178 C 0.29191 0.96445 0.32699 0.0
C2179 C 0.28077 0.96276 0.31113 0.0
C2180 C 0.29649 0.94858 0.33541 0.0
C2181 C 0.29014 0.93051 0.32822 0.0
C2182 C 0.27826 0.92878 0.31275 0.0
C2183 C 0.27362 0.94467 0.30434 0.0
H2184 H 0.7473 0.15326 0.68738 0.0
H2185 H 0.69027 0.12806 0.70029 0.0
H2186 H 0.76031 0.129 0.7029 0.0
H2187 H 0.70353 0.10426 0.717 0.0
H2188 H 0.73346 0.05224 0.728 0.0
H2189 H 0.71758 0.0769 0.71526 0.0
H2190 H 0.76794 0.11799 0.72992 0.0
H2191 H 0.78386 0.09332 0.74162 0.0
C2192 C 0.73746 0.14259 0.69358 0.0
C2193 C 0.71763 0.14271 0.69233 0.0
C2194 C 0.74502 0.12872 0.70284 0.0
C2195 C 0.7331 0.11453 0.71148 0.0
C2196 C 0.71324 0.11476 0.71046 0.0
C2197 C 0.70563 0.12863 0.70103 0.0
C2198 C 0.7409 0.06663 0.72878 0.0
C2199 C 0.75993 0.07084 0.73575 0.0
C2200 C 0.73183 0.08082 0.72144 0.0
C2201 C 0.74155 0.09957 0.72111 0.0
C2202 C 0.76012 0.10376 0.72927 0.0
C2203 C 0.76922 0.08961 0.73624 0.0
H2204 H 0.67964 0.90788 0.36255 0.0
H2205 H 0.72197 0.87279 0.37347 0.0
H2206 H 0.70379 0.93124 0.35008 0.0
H2207 H 0.74613 0.89585 0.36047 0.0
H2208 H 0.78875 0.94817 0.34915 0.0
H2209 H 0.76511 0.92638 0.36381 0.0
H2210 H 0.72141 0.93552 0.32492 0.0
H2211 H 0.74464 0.9581 0.31096 0.0
C2212 C 0.69413 0.90515 0.36216 0.0
C2213 C 0.69895 0.88853 0.36887 0.0
C2214 C 0.70796 0.91848 0.35496 0.0
C2215 C 0.7269 0.91538 0.35411 0.0
C2216 C 0.73176 0.89883 0.3611 0.0
C2217 C 0.71794 0.88558 0.36848 0.0
C2218 C 0.77407 0.94577 0.34384 0.0
C2219 C 0.76872 0.95497 0.32879 0.0
C2220 C 0.76053 0.93305 0.35215 0.0
C2221 C 0.74133 0.92915 0.34556 0.0
C2222 C 0.73599 0.93836 0.33054 0.0
C2223 C 0.74946 0.95116 0.32233 0.0
H2224 H 0.64624 0.17683 0.35315 0.0
H2225 H 0.66667 0.18074 0.30159 0.0
H2226 H 0.62019 0.19336 0.34369 0.0
H2227 H 0.64043 0.19657 0.2918 0.0
H2228 H 0.59869 0.23721 0.28189 0.0
H2229 H 0.62624 0.22343 0.29205 0.0
H2230 H 0.59083 0.18837 0.32694 0.0
H2231 H 0.56354 0.20263 0.3172 0.0
C2232 C 0.64531 0.18155 0.33987 0.0
C2233 C 0.6586 0.17783 0.32816 0.0
C2234 C 0.63022 0.19076 0.33431 0.0
C2235 C 0.62793 0.19625 0.31685 0.0
C2236 C 0.6417 0.19289 0.30536 0.0
C2237 C 0.65681 0.1838 0.31095 0.0
C2238 C 0.59673 0.22643 0.2916 0.0
C2239 C 0.57881 0.22104 0.29866 0.0
C2240 C 0.61259 0.21848 0.29747 0.0
C2241 C 0.61099 0.2048 0.3105 0.0
C2242 C 0.59289 0.19914 0.31723 0.0
C2243 C 0.5771 0.20718 0.31145 0.0
H2244 H 0.3772 0.14493 0.3097 0.0
H2245 H 0.36533 0.11798 0.3586 0.0
H2246 H 0.36691 0.11484 0.29439 0.0
H2247 H 0.35545 0.08793 0.34346 0.0
H2248 H 0.31054 0.04853 0.30966 0.0
H2249 H 0.32682 0.07661 0.32503 0.0
H2250 H 0.37198 0.08218 0.28925 0.0
H2251 H 0.35516 0.05407 0.2734 0.0
C2252 C 0.37285 0.13247 0.31718 0.0
C2253 C 0.37173 0.13375 0.33526 0.0
C2254 C 0.36701 0.11526 0.30844 0.0
C2255 C 0.36006 0.09908 0.31771 0.0
C2256 C 0.3603 0.10023 0.33593 0.0
C2257 C 0.36599 0.11739 0.3446 0.0
C2258 C 0.32387 0.05577 0.30497 0.0
C2259 C 0.33146 0.04919 0.2902 0.0
C2260 C 0.33337 0.07173 0.31395 0.0
C2261 C 0.35077 0.08156 0.30843 0.0
C2262 C 0.35856 0.07492 0.29377 0.0
C2263 C 0.34902 0.05879 0.28478 0.0
H2264 H 0.36966 0.78398 0.37136 0.0
H2265 H 0.39163 0.83588 0.34659 0.0
H2266 H 0.39531 0.76982 0.36009 0.0
H2267 H 0.41724 0.82179 0.33538 0.0
H2268 H 0.44792 0.78524 0.30226 0.0
H2269 H 0.42276 0.7993 0.31429 0.0
H2270 H 0.42924 0.76969 0.36211 0.0
H2271 H 0.4544 0.75556 0.35005 0.0
C2272 C 0.38008 0.79247 0.3637 0.0
C2273 C 0.37841 0.8111 0.35986 0.0
C2274 C 0.39484 0.78432 0.3572 0.0
C2275 C 0.4084 0.79456 0.34667 0.0
C2276 C 0.4069 0.81328 0.34311 0.0
C2277 C 0.39217 0.82141 0.34959 0.0
C2278 C 0.44416 0.78181 0.3154 0.0
C2279 C 0.45338 0.76921 0.32512 0.0
C2280 C 0.42966 0.78993 0.32234 0.0
C2281 C 0.42388 0.78575 0.33926 0.0
C2282 C 0.43304 0.7731 0.34897 0.0
C2283 C 0.44755 0.76496 0.34201 0.0
H2284 H 0.38855 0.9319 0.73655 0.0
H2285 H 0.32781 0.91293 0.72728 0.0
H2286 H 0.38232 0.95816 0.7543 0.0
H2287 H 0.32138 0.93929 0.74429 0.0
H2288 H 0.31338 0.98148 0.78502 0.0
H2289 H 0.32129 0.95364 0.77141 0.0
H2290 H 0.37177 0.98716 0.75182 0.0
H2291 H 0.3642 0.01481 0.76604 0.0
C2292 C 0.37387 0.93325 0.73855 0.0
C2293 C 0.35865 0.92032 0.7308 0.0
C2294 C 0.37024 0.94841 0.74853 0.0
C2295 C 0.35129 0.95106 0.7508 0.0
C2296 C 0.33615 0.93771 0.74323 0.0
C2297 C 0.33981 0.92256 0.7334 0.0
C2298 C 0.32622 0.9829 0.77787 0.0
C2299 C 0.33808 1.00047 0.7766 0.0
C2300 C 0.33074 0.9669 0.76994 0.0
C2301 C 0.34717 0.96797 0.76031 0.0
C2302 C 0.35917 0.98555 0.75928 0.0
C2303 C 0.35473 1.00153 0.76735 0.0
H2304 H 0.64691 0.80492 0.6835 0.0
H2305 H 0.66523 0.84848 0.72244 0.0
H2306 H 0.61621 0.7967 0.69691 0.0
H2307 H 0.63486 0.84031 0.73575 0.0
H2308 H 0.57455 0.83283 0.74957 0.0
H2309 H 0.60123 0.84123 0.73109 0.0
H2310 H 0.60377 0.78265 0.72364 0.0
H2311 H 0.57664 0.77421 0.7418 0.0
C2312 C 0.64437 0.81274 0.69489 0.0
C2313 C 0.65844 0.82745 0.70182 0.0
C2314 C 0.62681 0.80804 0.70255 0.0
C2315 C 0.62301 0.81796 0.7173 0.0
C2316 C 0.63709 0.83268 0.72415 0.0
C2317 C 0.65455 0.83737 0.71652 0.0
C2318 C 0.5806 0.82172 0.74377 0.0
C2319 C 0.57366 0.80287 0.74731 0.0
C2320 C 0.59596 0.82654 0.73326 0.0
C2321 C 0.60487 0.81263 0.72616 0.0
C2322 C 0.59719 0.79371 0.72885 0.0
C2323 C 0.58168 0.78887 0.7393 0.0
H2324 H 0.40083 0.24272 0.73423 0.0
H2325 H 0.41241 0.24212 0.67992 0.0
H2326 H 0.43386 0.25761 0.74156 0.0
H2327 H 0.4457 0.25721 0.68723 0.0
H2328 H 0.49048 0.29325 0.75084 0.0
H2329 H 0.45771 0.28659 0.73817 0.0
H2330 H 0.47341 0.24587 0.70323 0.0
H2331 H 0.5063 0.25259 0.71577 0.0
C2332 C 0.41044 0.24604 0.72385 0.0
C2333 C 0.40416 0.24118 0.70655 0.0
C2334 C 0.4293 0.25472 0.728 0.0
C2335 C 0.44238 0.2586 0.71495 0.0
C2336 C 0.43594 0.25431 0.69754 0.0
C2337 C 0.41692 0.2458 0.69336 0.0
C2338 C 0.4871 0.28318 0.74018 0.0
C2339 C 0.50095 0.2732 0.73453 0.0
C2340 C 0.46829 0.27933 0.73298 0.0
C2341 C 0.46293 0.26549 0.71993 0.0
C2342 C 0.47712 0.25665 0.71325 0.0
C2343 C 0.49596 0.26046 0.72049 0.0
H2344 H 0.68137 0.70029 0.13862 0.0
H2345 H 0.74019 0.70161 0.15745 0.0
H2346 H 0.69222 0.71666 0.11294 0.0
H2347 H 0.751 0.71586 0.13074 0.0
H2348 H 0.76804 0.7547 0.08632 0.0
H2349 H 0.75716 0.74087 0.11353 0.0
H2350 H 0.70364 0.71515 0.08659 0.0
H2351 H 0.71422 0.73034 0.05995 0.0
C2352 C 0.69665 0.70401 0.13742 0.0
C2353 C 0.70976 0.69945 0.15048 0.0
C2354 C 0.70296 0.71313 0.12227 0.0
C2355 C 0.72264 0.71759 0.11929 0.0
C2356 C 0.73575 0.71305 0.13236 0.0
C2357 C 0.72946 0.7044 0.14774 0.0
C2358 C 0.75393 0.74613 0.08637 0.0
C2359 C 0.74194 0.74369 0.07107 0.0
C2360 C 0.74765 0.73799 0.10197 0.0
C2361 C 0.72935 0.72669 0.10262 0.0
C2362 C 0.71756 0.72408 0.08706 0.0
C2363 C 0.72366 0.73267 0.07162 0.0
H2364 H 0.36049 0.72036 0.12132 0.0
H2365 H 0.31537 0.74752 0.1384 0.0
H2366 H 0.35963 0.73656 0.09353 0.0
H2367 H 0.31401 0.76336 0.11066 0.0
H2368 H 0.31385 0.79163 0.06066 0.0
H2369 H 0.32783 0.78487 0.0891 0.0
H2370 H 0.33571 0.73092 0.06967 0.0
H2371 H 0.32225 0.73781 0.04128 0.0
C2372 C 0.35081 0.73026 0.11925 0.0
C2373 C 0.33803 0.73287 0.1318 0.0
C2374 C 0.35019 0.73941 0.10335 0.0
C2375 C 0.33662 0.75112 0.09978 0.0
C2376 C 0.32482 0.75467 0.113 0.0
C2377 C 0.3255 0.74557 0.12888 0.0
C2378 C 0.31906 0.77854 0.06234 0.0
C2379 C 0.31659 0.7651 0.04879 0.0
C2380 C 0.32698 0.77464 0.07867 0.0
C2381 C 0.3326 0.75724 0.08176 0.0
C2382 C 0.33167 0.74451 0.06777 0.0
C2383 C 0.32379 0.74842 0.05147 0.0
H2384 H 0.39552 0.31596 0.15181 0.0
H2385 H 0.34632 0.32875 0.17663 0.0
H2386 H 0.3753 0.30476 0.12605 0.0
H2387 H 0.32613 0.31838 0.15039 0.0
H2388 H 0.29313 0.27503 0.10997 0.0
H2389 H 0.31222 0.29049 0.13486 0.0
H2390 H 0.35711 0.31262 0.10132 0.0
H2391 H 0.33816 0.29658 0.07642 0.0
C2392 C 0.38037 0.31644 0.1518 0.0
C2393 C 0.37261 0.32306 0.16654 0.0
C2394 C 0.36875 0.31027 0.13682 0.0
C2395 C 0.34895 0.31059 0.13597 0.0
C2396 C 0.34124 0.31765 0.15055 0.0
C2397 C 0.35289 0.32381 0.16559 0.0
C2398 C 0.30695 0.28342 0.1078 0.0
C2399 C 0.31409 0.2844 0.0911 0.0
C2400 C 0.31794 0.2924 0.12216 0.0
C2401 C 0.33641 0.30273 0.12029 0.0
C2402 C 0.34315 0.30449 0.10342 0.0
C2403 C 0.33217 0.29544 0.08905 0.0
H2404 H 0.73572 0.36399 0.10206 0.0
H2405 H 0.77062 0.35153 0.14666 0.0
H2406 H 0.76395 0.36926 0.08479 0.0
H2407 H 0.79905 0.35705 0.12959 0.0
H2408 H 0.8338 0.33786 0.08537 0.0
H2409 H 0.80949 0.33963 0.10599 0.0
H2410 H 0.7953 0.38861 0.08024 0.0
H2411 H 0.81951 0.3865 0.05932 0.0
C2412 C 0.74957 0.36276 0.1082 0.0
C2413 C 0.75117 0.35733 0.12555 0.0
C2414 C 0.76575 0.36588 0.09839 0.0
C2415 C 0.78378 0.36352 0.10579 0.0
C2416 C 0.78536 0.35879 0.12345 0.0
C2417 C 0.76917 0.3557 0.13324 0.0
C2418 C 0.82568 0.34917 0.0843 0.0
C2419 C 0.82844 0.36193 0.07066 0.0
C2420 C 0.81184 0.35029 0.09619 0.0
C2421 C 0.80033 0.36419 0.0947 0.0
C2422 C 0.80379 0.3776 0.08161 0.0
C2423 C 0.81778 0.37654 0.06975 0.0
H2424 H 0.73973 0.36473 0.91971 0.0
H2425 H 0.73612 0.30525 0.91215 0.0
H2426 H 0.76472 0.36471 0.94307 0.0
H2427 H 0.76135 0.30511 0.93525 0.0
H2428 H 0.79336 0.30906 0.98884 0.0
H2429 H 0.76725 0.30933 0.96676 0.0
H2430 H 0.79798 0.36048 0.94627 0.0
H2431 H 0.82381 0.36042 0.96843 0.0
C2432 C 0.74441 0.35169 0.92309 0.0
C2433 C 0.73624 0.33501 0.91431 0.0
C2434 C 0.75871 0.35166 0.93636 0.0
C2435 C 0.76501 0.3349 0.941 0.0
C2436 C 0.75663 0.31818 0.93214 0.0
C2437 C 0.74234 0.31826 0.91888 0.0
C2438 C 0.79449 0.32039 0.97967 0.0
C2439 C 0.81066 0.33471 0.98039 0.0
C2440 C 0.77959 0.32049 0.96696 0.0
C2441 C 0.78056 0.33493 0.95476 0.0
C2442 C 0.79667 0.3493 0.95561 0.0
C2443 C 0.81154 0.34919 0.96827 0.0
H2444 H 0.73004 0.70688 0.88565 0.0
H2445 H 0.74224 0.65542 0.90794 0.0
H2446 H 0.74058 0.72326 0.91308 0.0
H2447 H 0.7531 0.67205 0.93549 0.0
H2448 H 0.7869 0.7163 0.97731 0.0
H2449 H 0.77834 0.69777 0.95019 0.0
H2450 H 0.72769 0.7227 0.94193 0.0
H2451 H 0.73607 0.74095 0.96851 0.0
C2452 C 0.73486 0.69899 0.89641 0.0
C2453 C 0.73496 0.6797 0.89454 0.0
C2454 C 0.74099 0.70843 0.91217 0.0
C2455 C 0.7475 0.69894 0.92659 0.0
C2456 C 0.74828 0.67981 0.92463 0.0
C2457 C 0.74203 0.67029 0.90881 0.0
C2458 C 0.77386 0.71764 0.96975 0.0
C2459 C 0.76231 0.73028 0.97506 0.0
C2460 C 0.76896 0.70704 0.95423 0.0
C2461 C 0.75249 0.709 0.9437 0.0
C2462 C 0.7407 0.72115 0.94943 0.0
C2463 C 0.74551 0.73157 0.96482 0.0
H2464 H 0.33876 0.74134 0.86946 0.0
H2465 H 0.32598 0.68101 0.86975 0.0
H2466 H 0.32435 0.74264 0.89738 0.0
H2467 H 0.31174 0.68213 0.89788 0.0
H2468 H 0.27098 0.69458 0.93985 0.0
H2469 H 0.28424 0.69193 0.91159 0.0
H2470 H 0.3325 0.73488 0.92747 0.0
H2471 H 0.31933 0.73748 0.9556 0.0
C2472 C 0.33272 0.72838 0.87554 0.0
C2473 C 0.33331 0.71111 0.86765 0.0
C2474 C 0.32463 0.72908 0.89153 0.0
C2475 C 0.31705 0.71247 0.89988 0.0
C2476 C 0.31733 0.69515 0.89169 0.0
C2477 C 0.32549 0.69448 0.87568 0.0
C2478 C 0.28452 0.70328 0.93737 0.0
C2479 C 0.294 0.71638 0.94991 0.0
C2480 C 0.2921 0.70178 0.92118 0.0
C2481 C 0.30929 0.71335 0.91725 0.0
C2482 C 0.319 0.72607 0.92997 0.0
C2483 C 0.31145 0.72756 0.9461 0.0
H2484 H 0.40283 0.31745 0.92373 0.0
H2485 H 0.34298 0.31828 0.91089 0.0
H2486 H 0.39458 0.30131 0.95063 0.0
H2487 H 0.33467 0.302 0.9377 0.0
H2488 H 0.32685 0.28816 0.99449 0.0
H2489 H 0.33611 0.30541 0.96853 0.0
H2490 H 0.37998 0.27203 0.96192 0.0
H2491 H 0.37127 0.2553 0.9884 0.0
C2492 C 0.38788 0.31406 0.92655 0.0
C2493 C 0.37359 0.31922 0.91505 0.0
C2494 C 0.38312 0.30475 0.94203 0.0
C2495 C 0.36392 0.30027 0.94647 0.0
C2496 C 0.34964 0.30546 0.93496 0.0
C2497 C 0.35441 0.31481 0.91952 0.0
C2498 C 0.33868 0.28464 0.98774 0.0
C2499 C 0.3483 0.27025 0.99374 0.0
C2500 C 0.34384 0.29442 0.97261 0.0
C2501 C 0.35877 0.29013 0.96293 0.0
C2502 C 0.36855 0.27592 0.96904 0.0
C2503 C 0.3634 0.26614 0.9842 0.0
H2504 H 0.64416 0.68011 0.2365 0.0
H2505 H 0.62898 0.71439 0.19428 0.0
H2506 H 0.62013 0.69054 0.25396 0.0
H2507 H 0.60462 0.72456 0.21138 0.0
H2508 H 0.56996 0.74934 0.25022 0.0
H2509 H 0.59737 0.74211 0.23567 0.0
H2510 H 0.58618 0.68575 0.25504 0.0
H2511 H 0.55933 0.6932 0.27016 0.0
C2512 C 0.63586 0.69015 0.2311 0.0
C2513 C 0.63854 0.69665 0.21417 0.0
C2514 C 0.62191 0.69597 0.24099 0.0
C2515 C 0.6102 0.70835 0.23412 0.0
C2516 C 0.61343 0.71525 0.21729 0.0
C2517 C 0.62739 0.70942 0.20743 0.0
C2518 C 0.57346 0.73548 0.25163 0.0
C2519 C 0.56219 0.72188 0.26141 0.0
C2520 C 0.58914 0.73125 0.24307 0.0
C2521 C 0.59411 0.71329 0.24404 0.0
C2522 C 0.58306 0.69981 0.25408 0.0
C2523 C 0.5674 0.70403 0.26263 0.0
H2524 H 0.30877 0.66183 0.20034 0.0
H2525 H 0.36663 0.65047 0.20353 0.0
H2526 H 0.29706 0.63034 0.21043 0.0
H2527 H 0.35488 0.61913 0.21404 0.0
H2528 H 0.32754 0.57086 0.24808 0.0
H2529 H 0.33908 0.60305 0.23965 0.0
H2530 H 0.29466 0.59763 0.19821 0.0
H2531 H 0.28295 0.56545 0.20681 0.0
C2532 C 0.31901 0.65264 0.20319 0.0
C2533 C 0.33865 0.65866 0.20097 0.0
C2534 C 0.31228 0.63462 0.20899 0.0
C2535 C 0.32504 0.62226 0.2129 0.0
C2536 C 0.34473 0.62843 0.21125 0.0
C2537 C 0.35146 0.64641 0.20529 0.0
C2538 C 0.32012 0.57659 0.23729 0.0
C2539 C 0.30429 0.56564 0.22813 0.0
C2540 C 0.32684 0.59496 0.23236 0.0
C2541 C 0.31777 0.60284 0.21829 0.0
C2542 C 0.30184 0.59196 0.20921 0.0
C2543 C 0.29523 0.57351 0.21402 0.0
H2544 H 0.41143 0.28653 0.20752 0.0
H2545 H 0.45009 0.33956 0.20886 0.0
H2546 H 0.43814 0.27083 0.21729 0.0
H2547 H 0.47661 0.32401 0.21844 0.0
H2548 H 0.48913 0.25896 0.25727 0.0
H2549 H 0.46091 0.27063 0.24484 0.0
H2550 H 0.49547 0.30106 0.20664 0.0
H2551 H 0.52346 0.28942 0.21882 0.0
C2552 C 0.42565 0.29478 0.20974 0.0
C2553 C 0.42864 0.3143 0.20744 0.0
C2554 C 0.4409 0.28583 0.21545 0.0
C2555 C 0.45955 0.29614 0.21862 0.0
C2556 C 0.46251 0.31559 0.21598 0.0
C2557 C 0.44728 0.32454 0.21058 0.0
C2558 C 0.49062 0.26783 0.246 0.0
C2559 C 0.50869 0.2733 0.23916 0.0
C2560 C 0.47443 0.27452 0.23887 0.0
C2561 C 0.47597 0.28699 0.22488 0.0
C2562 C 0.49382 0.29172 0.21758 0.0
C2563 C 0.50989 0.28493 0.22455 0.0
H2564 H 0.73462 0.38615 0.2153 0.0
H2565 H 0.72693 0.41119 0.16525 0.0
H2566 H 0.74693 0.41697 0.22816 0.0
H2567 H 0.73935 0.44222 0.17817 0.0
H2568 H 0.78177 0.49096 0.20707 0.0
H2569 H 0.76899 0.46123 0.19224 0.0
H2570 H 0.73301 0.44501 0.23478 0.0
H2571 H 0.74598 0.47465 0.24978 0.0
C2572 C 0.73567 0.39829 0.20704 0.0
C2573 C 0.72967 0.39634 0.18933 0.0
C2574 C 0.74259 0.41592 0.21442 0.0
C2575 C 0.74373 0.43201 0.20424 0.0
C2576 C 0.73859 0.43003 0.18633 0.0
C2577 C 0.7316 0.41231 0.17892 0.0
C2578 C 0.77097 0.48114 0.21318 0.0
C2579 C 0.765 0.48506 0.22967 0.0
C2580 C 0.76362 0.46415 0.20464 0.0
C2581 C 0.75021 0.45073 0.21246 0.0
C2582 C 0.74362 0.45499 0.2286 0.0
C2583 C 0.75091 0.47201 0.23712 0.0
H2584 H 0.66514 0.3838 0.83973 0.0
H2585 H 0.67628 0.32798 0.831 0.0
H2586 H 0.63568 0.37647 0.82084 0.0
H2587 H 0.64687 0.32048 0.81265 0.0
H2588 H 0.59782 0.31131 0.7745 0.0
H2589 H 0.62971 0.32597 0.78584 0.0
H2590 H 0.60457 0.35657 0.82392 0.0
H2591 H 0.57268 0.3423 0.81228 0.0
C2592 C 0.66144 0.37009 0.83354 0.0
C2593 C 0.67284 0.35638 0.83697 0.0
C2594 C 0.64453 0.36584 0.82285 0.0
C2595 C 0.63885 0.34786 0.81529 0.0
C2596 C 0.65087 0.33454 0.81805 0.0
C2597 C 0.66763 0.33875 0.82874 0.0
C2598 C 0.59908 0.32147 0.78505 0.0
C2599 C 0.58271 0.32539 0.79268 0.0
C2600 C 0.61737 0.32982 0.7916 0.0
C2601 C 0.61971 0.34217 0.806 0.0
C2602 C 0.60332 0.34719 0.81277 0.0
C2603 C 0.585 0.33892 0.80614 0.0
H2604 H 0.74203 0.61608 0.87104 0.0
H2605 H 0.74009 0.64398 0.82183 0.0
H2606 H 0.75798 0.59252 0.85784 0.0
H2607 H 0.75598 0.62057 0.80872 0.0
H2608 H 0.80926 0.59129 0.80241 0.0
H2609 H 0.78928 0.61266 0.81284 0.0
H2610 H 0.75176 0.56604 0.83402 0.0
H2611 H 0.77178 0.54448 0.82316 0.0
C2612 C 0.74504 0.61719 0.85744 0.0
C2613 C 0.73981 0.63192 0.8475 0.0
C2614 C 0.75396 0.60359 0.84983 0.0
C2615 C 0.75815 0.60461 0.83219 0.0
C2616 C 0.75297 0.61937 0.82232 0.0
C2617 C 0.74382 0.63276 0.82983 0.0
C2618 C 0.7964 0.58554 0.80882 0.0
C2619 C 0.79187 0.56622 0.81171 0.0
C2620 C 0.785 0.59779 0.81486 0.0
C2621 C 0.76899 0.59109 0.82436 0.0
C2622 C 0.76408 0.57163 0.82683 0.0
C2623 C 0.77533 0.55927 0.82041 0.0
H2624 H 0.3966 0.70897 0.79124 0.0
H2625 H 0.41422 0.66432 0.82149 0.0
H2626 H 0.42932 0.71871 0.78291 0.0
H2627 H 0.44694 0.67367 0.81267 0.0
H2628 H 0.50179 0.72038 0.8208 0.0
H2629 H 0.47039 0.70097 0.82198 0.0
H2630 H 0.45718 0.71283 0.76818 0.0
H2631 H 0.48866 0.73266 0.76708 0.0
C2632 C 0.40741 0.70097 0.79578 0.0
C2633 C 0.40293 0.6861 0.80727 0.0
C2634 C 0.42614 0.70641 0.79084 0.0
C2635 C 0.44081 0.69709 0.79728 0.0
C2636 C 0.436 0.68129 0.80768 0.0
C2637 C 0.41724 0.67583 0.81262 0.0
C2638 C 0.49237 0.71854 0.80909 0.0
C2639 C 0.49757 0.72834 0.79395 0.0
C2640 C 0.47438 0.70726 0.80972 0.0
C2641 C 0.46117 0.70552 0.79523 0.0
C2642 C 0.46695 0.71412 0.77964 0.0
C2643 C 0.48502 0.72539 0.77899 0.0
H2644 H 0.3455 0.37476 0.82684 0.0
H2645 H 0.3821 0.41581 0.85997 0.0
H2646 H 0.33845 0.39959 0.80733 0.0
H2647 H 0.37482 0.44076 0.84089 0.0
H2648 H 0.36834 0.48147 0.7976 0.0
H2649 H 0.37816 0.45561 0.81357 0.0
H2650 H 0.32047 0.42446 0.80676 0.0
H2651 H 0.31083 0.45 0.79009 0.0
C2652 C 0.35233 0.3891 0.82972 0.0
C2653 C 0.36457 0.39339 0.84471 0.0
C2654 C 0.3481 0.40339 0.8187 0.0
C2655 C 0.35592 0.42234 0.8225 0.0
C2656 C 0.36869 0.42642 0.8373 0.0
C2657 C 0.37291 0.41212 0.84828 0.0
C2658 C 0.35774 0.46906 0.79923 0.0
C2659 C 0.33869 0.46805 0.79246 0.0
C2660 C 0.36337 0.45421 0.80863 0.0
C2661 C 0.35016 0.43782 0.81162 0.0
C2662 C 0.33118 0.43669 0.80462 0.0
C2663 C 0.32555 0.45153 0.7952 0.0
H2664 H 0.69422 0.63161 0.20333 0.0
H2665 H 0.74657 0.66936 0.19365 0.0
H2666 H 0.71278 0.60942 0.216 0.0
H2667 H 0.76513 0.64652 0.20503 0.0
H2668 H 0.79477 0.6094 0.24092 0.0
H2669 H 0.77609 0.63228 0.22955 0.0
H2670 H 0.73153 0.58727 0.21 0.0
H2671 H 0.75003 0.56451 0.22204 0.0
C2672 C 0.70969 0.63529 0.20392 0.0
C2673 C 0.71875 0.65248 0.19741 0.0
C2674 C 0.72042 0.6223 0.21095 0.0
C2675 C 0.74062 0.62592 0.21154 0.0
C2676 C 0.74967 0.64315 0.20509 0.0
C2677 C 0.73894 0.65623 0.19826 0.0
C2678 C 0.78104 0.60441 0.2341 0.0
C2679 C 0.77393 0.58509 0.2324 0.0
C2680 C 0.77026 0.61757 0.22749 0.0
C2681 C 0.75213 0.61182 0.21874 0.0
C2682 C 0.74516 0.59242 0.21692 0.0
C2683 C 0.75583 0.57928 0.22376 0.0
H2684 H 0.75782 0.37956 0.86398 0.0
H2685 H 0.71506 0.41512 0.85888 0.0
H2686 H 0.78309 0.40688 0.86157 0.0
H2687 H 0.74033 0.44243 0.85636 0.0
H2688 H 0.79146 0.48961 0.86619 0.0
H2689 H 0.76865 0.46183 0.87372 0.0
H2690 H 0.79276 0.42873 0.83701 0.0
H2691 H 0.81549 0.45649 0.82954 0.0
C2692 C 0.75385 0.39325 0.86254 0.0
C2693 C 0.73446 0.39521 0.86156 0.0
C2694 C 0.7683 0.40885 0.86107 0.0
C2695 C 0.76368 0.42678 0.8588 0.0
C2696 C 0.74433 0.42882 0.85828 0.0
C2697 C 0.72986 0.41318 0.85954 0.0
C2698 C 0.79216 0.4763 0.86007 0.0
C2699 C 0.80521 0.47515 0.84728 0.0
C2700 C 0.77899 0.46046 0.86424 0.0
C2701 C 0.77885 0.44315 0.85587 0.0
C2702 C 0.79259 0.44184 0.84375 0.0
C2703 C 0.80554 0.4577 0.83943 0.0
H2704 H 0.64921 0.68849 0.8647 0.0
H2705 H 0.68027 0.71054 0.82086 0.0
H2706 H 0.62588 0.70927 0.85861 0.0
H2707 H 0.6572 0.73145 0.81476 0.0
H2708 H 0.59897 0.74535 0.79536 0.0
H2709 H 0.62381 0.72722 0.80355 0.0
H2710 H 0.62064 0.74211 0.85749 0.0
H2711 H 0.59538 0.75997 0.84928 0.0
C2712 C 0.65126 0.69814 0.85402 0.0
C2713 C 0.66655 0.69812 0.84333 0.0
C2714 C 0.63792 0.71003 0.8505 0.0
C2715 C 0.63953 0.72195 0.83608 0.0
C2716 C 0.65533 0.72228 0.8258 0.0
C2717 C 0.66867 0.71048 0.82939 0.0
C2718 C 0.60343 0.74469 0.80898 0.0
C2719 C 0.59506 0.75412 0.82164 0.0
C2720 C 0.61789 0.73445 0.81368 0.0
C2721 C 0.62435 0.73325 0.8312 0.0
C2722 C 0.61596 0.74264 0.84389 0.0
C2723 C 0.60158 0.75302 0.83917 0.0
H2724 H 0.37143 0.629 0.83242 0.0
H2725 H 0.31822 0.64996 0.82491 0.0
H2726 H 0.3538 0.59716 0.83122 0.0
H2727 H 0.30047 0.61815 0.8251 0.0
H2728 H 0.28261 0.56186 0.79448 0.0
H2729 H 0.29502 0.59343 0.80478 0.0
H2730 H 0.33265 0.57225 0.84295 0.0
H2731 H 0.32075 0.54049 0.83201 0.0
C2732 C 0.35595 0.62685 0.83075 0.0
C2733 C 0.34633 0.6421 0.82839 0.0
C2734 C 0.34576 0.60853 0.83041 0.0
C2735 C 0.32564 0.60498 0.82793 0.0
C2736 C 0.31596 0.6203 0.82672 0.0
C2737 C 0.32617 0.63862 0.82682 0.0
C2738 C 0.29318 0.56382 0.80537 0.0
C2739 C 0.30103 0.54866 0.81212 0.0
C2740 C 0.30028 0.58203 0.81138 0.0
C2741 C 0.31521 0.58551 0.82447 0.0
C2742 C 0.32156 0.57014 0.8325 0.0
C2743 C 0.31459 0.55189 0.82635 0.0
H2744 H 0.42752 0.35363 0.85661 0.0
H2745 H 0.40064 0.29648 0.86475 0.0
H2746 H 0.45335 0.3424 0.84229 0.0
H2747 H 0.42621 0.28528 0.85045 0.0
H2748 H 0.48581 0.27197 0.84456 0.0
H2749 H 0.45948 0.28392 0.85679 0.0
H2750 H 0.4621 0.32589 0.81709 0.0
H2751 H 0.489 0.31431 0.80517 0.0
C2752 C 0.42696 0.33869 0.85511 0.0
C2753 C 0.41212 0.32598 0.86205 0.0
C2754 C 0.44178 0.33223 0.8469 0.0
C2755 C 0.44208 0.3129 0.84542 0.0
C2756 C 0.42678 0.30025 0.85173 0.0
C2757 C 0.41205 0.30668 0.85991 0.0
C2758 C 0.48094 0.28383 0.83848 0.0
C2759 C 0.48966 0.29212 0.82384 0.0
C2760 C 0.46561 0.29058 0.84539 0.0
C2761 C 0.4585 0.30584 0.8379 0.0
C2762 C 0.46724 0.31421 0.82329 0.0
C2763 C 0.48257 0.3074 0.81632 0.0
H2764 H 0.39095 0.41475 0.21483 0.0
H2765 H 0.34576 0.3722 0.23152 0.0
H2766 H 0.37561 0.43907 0.22718 0.0
H2767 H 0.32996 0.39643 0.24354 0.0
H2768 H 0.32009 0.44077 0.28227 0.0
H2769 H 0.33481 0.41749 0.26787 0.0
H2770 H 0.34935 0.45583 0.22611 0.0
H2771 H 0.33494 0.47938 0.2408 0.0
C2772 C 0.37738 0.41068 0.2207 0.0
C2773 C 0.36936 0.39167 0.22203 0.0
C2774 C 0.36858 0.42461 0.22784 0.0
C2775 C 0.35158 0.41983 0.23658 0.0
C2776 C 0.34321 0.40071 0.23723 0.0
C2777 C 0.35207 0.3868 0.23012 0.0
C2778 C 0.32657 0.44436 0.27009 0.0
C2779 C 0.32631 0.46204 0.26276 0.0
C2780 C 0.33485 0.43086 0.26169 0.0
C2781 C 0.34308 0.43455 0.24563 0.0
C2782 C 0.34327 0.45243 0.23849 0.0
C2783 C 0.335 0.46599 0.24694 0.0
H2784 H 0.65853 0.33372 0.17485 0.0
H2785 H 0.69777 0.34394 0.22029 0.0
H2786 H 0.63261 0.32102 0.19334 0.0
H2787 H 0.67199 0.33137 0.23868 0.0
H2788 H 0.61704 0.33294 0.26649 0.0
H2789 H 0.64296 0.34277 0.24731 0.0
H2790 H 0.62143 0.29509 0.21348 0.0
H2791 H 0.59527 0.28553 0.23245 0.0
C2792 C 0.66168 0.3329 0.18872 0.0
C2793 C 0.68008 0.34002 0.19616 0.0
C2794 C 0.64686 0.3257 0.19931 0.0
C2795 C 0.65022 0.32553 0.21749 0.0
C2796 C 0.66887 0.33175 0.22477 0.0
C2797 C 0.68362 0.33886 0.21423 0.0
C2798 C 0.61779 0.32464 0.25492 0.0
C2799 C 0.60419 0.30842 0.25105 0.0
C2800 C 0.63272 0.33014 0.24402 0.0
C2801 C 0.63429 0.3196 0.22896 0.0
C2802 C 0.62056 0.30351 0.22497 0.0
C2803 C 0.6057 0.29794 0.23593 0.0
H2804 H 0.39965 0.72249 0.17293 0.0
H2805 H 0.38119 0.7148 0.22516 0.0
H2806 H 0.43058 0.74009 0.18448 0.0
H2807 H 0.41197 0.7321 0.23667 0.0
H2808 H 0.46313 0.77342 0.25369 0.0
H2809 H 0.43225 0.76365 0.2378 0.0
H2810 H 0.45861 0.73155 0.20193 0.0
H2811 H 0.48959 0.74143 0.21769 0.0
C2812 C 0.40214 0.72476 0.18685 0.0
C2813 C 0.38809 0.71717 0.19817 0.0
C2814 C 0.41984 0.73474 0.19345 0.0
C2815 C 0.42368 0.73754 0.21147 0.0
C2816 C 0.40937 0.73042 0.22271 0.0
C2817 C 0.39182 0.72032 0.21614 0.0
C2818 C 0.46249 0.76467 0.24216 0.0
C2819 C 0.47881 0.75795 0.23715 0.0
C2820 C 0.44474 0.75897 0.23313 0.0
C2821 C 0.44294 0.74654 0.21883 0.0
C2822 C 0.45954 0.74115 0.2129 0.0
C2823 C 0.4773 0.74679 0.22198 0.0
loop_
_geom_bond_atom_site_label_1
_geom_bond_atom_site_label_2
_geom_bond_distance
_geom_bond_site_symmetry_2
_ccdc_geom_bond_type
H0 C3 0.929 . S
H1 C6 0.929 . S
H2 C8 0.930 . S
C3 H0 0.929 . S
C3 C4 1.398 . S
C3 C5 1.396 . S
C4 C3 1.398 . S
C4 C8 1.407 . S
C5 C3 1.396 . S
C5 C6 1.394 . S
C6 H1 0.929 . S
C6 C5 1.394 . S
C6 C7 1.382 . S
C7 C6 1.382 . S
C7 C8 1.392 . S
C7 N9 1.420 . S
C8 H2 0.930 . S
C8 C4 1.407 . S
C8 C7 1.392 . S
N9 C7 1.420 . S
N9 C10 1.244 . S
C10 N9 1.244 . S
H11 C14 0.929 . S
H12 C17 0.929 . S
H13 C19 0.930 . S
C14 H11 0.929 . S
C14 C15 1.398 . S
C14 C16 1.396 . S
C15 C14 1.398 . S
C15 C19 1.407 . S
C16 C14 1.396 . S
C16 C17 1.394 . S
C17 H12 0.929 . S
C17 C16 1.394 . S
C17 C18 1.382 . S
C18 C17 1.382 . S
C18 C19 1.392 . S
C18 N20 1.420 . S
C19 H13 0.930 . S
C19 C15 1.407 . S
C19 C18 1.392 . S
N20 C18 1.420 . S
N20 C21 1.244 . S
C21 N20 1.244 . S
H22 C25 0.929 . S
H23 C28 0.929 . S
H24 C30 0.930 . S
C25 H22 0.929 . S
C25 C26 1.398 . S
C25 C27 1.396 . S
C26 C25 1.398 . S
C26 C30 1.407 . S
C27 C25 1.396 . S
C27 C28 1.394 . S
C28 H23 0.929 . S
C28 C27 1.394 . S
C28 C29 1.382 . S
C29 C28 1.382 . S
C29 C30 1.392 . S
C29 N31 1.420 . S
C30 H24 0.930 . S
C30 C26 1.407 . S
C30 C29 1.392 . S
N31 C29 1.420 . S
N31 C32 1.244 . S
C32 N31 1.244 . S
H33 C36 0.929 . S
H34 C39 0.929 . S
H35 C41 0.930 . S
C36 H33 0.929 . S
C36 C37 1.398 . S
C36 C38 1.396 . S
C37 C36 1.398 . S
C37 C41 1.407 . S
C38 C36 1.396 . S
C38 C39 1.394 . S
C39 H34 0.929 . S
C39 C38 1.394 . S
C39 C40 1.382 . S
C40 C39 1.382 . S
C40 C41 1.392 . S
C40 N42 1.420 . S
C41 H35 0.930 . S
C41 C37 1.407 . S
C41 C40 1.392 . S
N42 C40 1.420 . S
N42 C43 1.244 . S
C43 N42 1.244 . S
H44 C47 0.929 . S
H45 C50 0.929 . S
H46 C52 0.930 . S
C47 H44 0.929 . S
C47 C48 1.398 . S
C47 C49 1.396 . S
C48 C47 1.398 . S
C48 C52 1.407 . S
C49 C47 1.396 . S
C49 C50 1.394 . S
C50 H45 0.929 . S
C50 C49 1.394 . S
C50 C51 1.382 . S
C51 C50 1.382 . S
C51 C52 1.392 . S
C51 N53 1.420 . S
C52 H46 0.930 . S
C52 C48 1.407 . S
C52 C51 1.392 . S
N53 C51 1.420 . S
N53 C54 1.244 . S
C54 N53 1.244 . S
H55 C58 0.929 . S
H56 C61 0.929 . S
H57 C63 0.930 . S
C58 H55 0.929 . S
C58 C59 1.398 . S
C58 C60 1.396 . S
C59 C58 1.398 . S
C59 C63 1.407 . S
C60 C58 1.396 . S
C60 C61 1.394 . S
C61 H56 0.929 . S
C61 C60 1.394 . S
C61 C62 1.382 . S
C62 C61 1.382 . S
C62 C63 1.392 . S
C62 N64 1.420 . S
C63 H57 0.930 . S
C63 C59 1.407 . S
C63 C62 1.392 . S
N64 C62 1.420 . S
N64 C65 1.244 . S
C65 N64 1.244 . S
H66 C69 0.929 . S
H67 C72 0.929 . S
H68 C74 0.930 . S
C69 H66 0.929 . S
C69 C70 1.398 . S
C69 C71 1.396 . S
C70 C69 1.398 . S
C70 C74 1.407 . S
C71 C69 1.396 . S
C71 C72 1.394 . S
C72 H67 0.929 . S
C72 C71 1.394 . S
C72 C73 1.382 . S
C73 C72 1.382 . S
C73 C74 1.392 . S
C73 N75 1.420 . S
C74 H68 0.930 . S
C74 C70 1.407 . S
C74 C73 1.392 . S
N75 C73 1.420 . S
N75 C76 1.244 . S
C76 N75 1.244 . S
H77 C80 0.929 . S
H78 C83 0.929 . S
H79 C85 0.930 . S
C80 H77 0.929 . S
C80 C81 1.398 . S
C80 C82 1.396 . S
C81 C80 1.398 . S
C81 C85 1.407 . S
C82 C80 1.396 . S
C82 C83 1.394 . S
C83 H78 0.929 . S
C83 C82 1.394 . S
C83 C84 1.382 . S
C84 C83 1.382 . S
C84 C85 1.392 . S
C84 N86 1.420 . S
C85 H79 0.930 . S
C85 C81 1.407 . S
C85 C84 1.392 . S
N86 C84 1.420 . S
N86 C87 1.244 . S
C87 N86 1.244 . S
H88 C91 0.929 . S
H89 C94 0.929 . S
H90 C96 0.930 . S
C91 H88 0.929 . S
C91 C92 1.398 . S
C91 C93 1.396 . S
C92 C91 1.398 . S
C92 C96 1.407 . S
C93 C91 1.396 . S
C93 C94 1.394 . S
C94 H89 0.929 . S
C94 C93 1.394 . S
C94 C95 1.382 . S
C95 C94 1.382 . S
C95 C96 1.392 . S
C95 N97 1.420 . S
C96 H90 0.930 . S
C96 C92 1.407 . S
C96 C95 1.392 . S
N97 C95 1.420 . S
N97 C98 1.244 . S
C98 N97 1.244 . S
H99 C102 0.929 . S
H100 C105 0.929 . S
H101 C107 0.930 . S
C102 H99 0.929 . S
C102 C103 1.398 . S
C102 C104 1.396 . S
C103 C102 1.398 . S
C103 C107 1.407 . S
C104 C102 1.396 . S
C104 C105 1.394 . S
C105 H100 0.929 . S
C105 C104 1.394 . S
C105 C106 1.382 . S
C106 C105 1.382 . S
C106 C107 1.392 . S
C106 N108 1.420 . S
C107 H101 0.930 . S
C107 C103 1.407 . S
C107 C106 1.392 . S
N108 C106 1.420 . S
N108 C109 1.244 . S
C109 N108 1.244 . S
H110 C113 0.929 . S
H111 C116 0.929 . S
H112 C118 0.930 . S
C113 H110 0.929 . S
C113 C114 1.398 . S
C113 C115 1.396 . S
C114 C113 1.398 . S
C114 C118 1.407 . S
C115 C113 1.396 . S
C115 C116 1.394 . S
C116 H111 0.929 . S
C116 C115 1.394 . S
C116 C117 1.382 . S
C117 C116 1.382 . S
C117 C118 1.392 . S
C117 N119 1.420 . S
C118 H112 0.930 . S
C118 C114 1.407 . S
C118 C117 1.392 . S
N119 C117 1.420 . S
N119 C120 1.244 . S
C120 N119 1.244 . S
H121 C124 0.929 . S
H122 C127 0.929 . S
H123 C129 0.930 . S
C124 H121 0.929 . S
C124 C125 1.398 . S
C124 C126 1.396 . S
C125 C124 1.398 . S
C125 C129 1.407 . S
C126 C124 1.396 . S
C126 C127 1.394 . S
C127 H122 0.929 . S
C127 C126 1.394 . S
C127 C128 1.382 . S
C128 C127 1.382 . S
C128 C129 1.392 . S
C128 N130 1.420 . S
C129 H123 0.930 . S
C129 C125 1.407 . S
C129 C128 1.392 . S
N130 C128 1.420 . S
N130 C131 1.244 . S
C131 N130 1.244 . S
H132 C135 0.929 . S
H133 C138 0.929 . S
H134 C140 0.930 . S
C135 H132 0.929 . S
C135 C136 1.398 . S
C135 C137 1.396 . S
C136 C135 1.398 . S
C136 C140 1.407 . S
C137 C135 1.396 . S
C137 C138 1.394 . S
C138 H133 0.929 . S
C138 C137 1.394 . S
C138 C139 1.382 . S
C139 C138 1.382 . S
C139 C140 1.392 . S
C139 N141 1.420 . S
C140 H134 0.930 . S
C140 C136 1.407 . S
C140 C139 1.392 . S
N141 C139 1.420 . S
N141 C142 1.244 . S
C142 N141 1.244 . S
H143 C146 0.929 . S
H144 C149 0.929 . S
H145 C151 0.930 . S
C146 H143 0.929 . S
C146 C147 1.398 . S
C146 C148 1.396 . S
C147 C146 1.398 . S
C147 C151 1.407 . S
C148 C146 1.396 . S
C148 C149 1.394 . S
C149 H144 0.929 . S
C149 C148 1.394 . S
C149 C150 1.382 . S
C150 C149 1.382 . S
C150 C151 1.392 . S
C150 N152 1.420 . S
C151 H145 0.930 . S
C151 C147 1.407 . S
C151 C150 1.392 . S
N152 C150 1.420 . S
N152 C153 1.244 . S
C153 N152 1.244 . S
H154 C157 0.929 . S
H155 C160 0.929 . S
H156 C162 0.930 . S
C157 H154 0.929 . S
C157 C158 1.398 . S
C157 C159 1.396 . S
C158 C157 1.398 . S
C158 C162 1.407 . S
C159 C157 1.396 . S
C159 C160 1.394 . S
C160 H155 0.929 . S
C160 C159 1.394 . S
C160 C161 1.382 . S
C161 C160 1.382 . S
C161 C162 1.392 . S
C161 N163 1.420 . S
C162 H156 0.930 . S
C162 C158 1.407 . S
C162 C161 1.392 . S
N163 C161 1.420 . S
N163 C164 1.244 . S
C164 N163 1.244 . S
H165 C168 0.929 . S
H166 C171 0.929 . S
H167 C173 0.930 . S
C168 H165 0.929 . S
C168 C169 1.398 . S
C168 C170 1.396 . S
C169 C168 1.398 . S
C169 C173 1.407 . S
C170 C168 1.396 . S
C170 C171 1.394 . S
C171 H166 0.929 . S
C171 C170 1.394 . S
C171 C172 1.382 . S
C172 C171 1.382 . S
C172 C173 1.392 . S
C172 N174 1.420 . S
C173 H167 0.930 . S
C173 C169 1.407 . S
C173 C172 1.392 . S
N174 C172 1.420 . S
N174 C175 1.244 . S
C175 N174 1.244 . S
H176 C179 0.929 . S
H177 C182 0.929 . S
H178 C184 0.930 . S
C179 H176 0.929 . S
C179 C180 1.398 . S
C179 C181 1.396 . S
C180 C179 1.398 . S
C180 C184 1.407 . S
C181 C179 1.396 . S
C181 C182 1.394 . S
C182 H177 0.929 . S
C182 C181 1.394 . S
C182 C183 1.382 . S
C183 C182 1.382 . S
C183 C184 1.392 . S
C183 N185 1.420 . S
C184 H178 0.930 . S
C184 C180 1.407 . S
C184 C183 1.392 . S
N185 C183 1.420 . S
N185 C186 1.244 . S
C186 N185 1.244 . S
H187 C190 0.929 . S
H188 C193 0.929 . S
H189 C195 0.930 . S
C190 H187 0.929 . S
C190 C191 1.398 . S
C190 C192 1.396 . S
C191 C190 1.398 . S
C191 C195 1.407 . S
C192 C190 1.396 . S
C192 C193 1.394 . S
C193 H188 0.929 . S
C193 C192 1.394 . S
C193 C194 1.382 . S
C194 C193 1.382 . S
C194 C195 1.392 . S
C194 N196 1.420 . S
C195 H189 0.930 . S
C195 C191 1.407 . S
C195 C194 1.392 . S
N196 C194 1.420 . S
N196 C197 1.244 . S
C197 N196 1.244 . S
H198 C201 0.929 . S
H199 C204 0.929 . S
H200 C206 0.930 . S
C201 H198 0.929 . S
C201 C202 1.398 . S
C201 C203 1.396 . S
C202 C201 1.398 . S
C202 C206 1.407 . S
C203 C201 1.396 . S
C203 C204 1.394 . S
C204 H199 0.929 . S
C204 C203 1.394 . S
C204 C205 1.382 . S
C205 C204 1.382 . S
C205 C206 1.392 . S
C205 N207 1.420 . S
C206 H200 0.930 . S
C206 C202 1.407 . S
C206 C205 1.392 . S
N207 C205 1.420 . S
N207 C208 1.244 . S
C208 N207 1.244 . S
H209 C212 0.929 . S
H210 C215 0.929 . S
H211 C217 0.930 . S
C212 H209 0.929 . S
C212 C213 1.398 . S
C212 C214 1.396 . S
C213 C212 1.398 . S
C213 C217 1.407 . S
C214 C212 1.396 . S
C214 C215 1.394 . S
C215 H210 0.929 . S
C215 C214 1.394 . S
C215 C216 1.382 . S
C216 C215 1.382 . S
C216 C217 1.392 . S
C216 N218 1.420 . S
C217 H211 0.930 . S
C217 C213 1.407 . S
C217 C216 1.392 . S
N218 C216 1.420 . S
N218 C219 1.244 . S
C219 N218 1.244 . S
H220 C223 0.929 . S
H221 C226 0.929 . S
H222 C228 0.930 . S
C223 H220 0.929 . S
C223 C224 1.398 . S
C223 C225 1.396 . S
C224 C223 1.398 . S
C224 C228 1.407 . S
C225 C223 1.396 . S
C225 C226 1.394 . S
C226 H221 0.929 . S
C226 C225 1.394 . S
C226 C227 1.382 . S
C227 C226 1.382 . S
C227 C228 1.392 . S
C227 N229 1.420 . S
C228 H222 0.930 . S
C228 C224 1.407 . S
C228 C227 1.392 . S
N229 C227 1.420 . S
N229 C230 1.244 . S
C230 N229 1.244 . S
H231 C234 0.929 . S
H232 C237 0.929 . S
H233 C239 0.930 . S
C234 H231 0.929 . S
C234 C235 1.398 . S
C234 C236 1.396 . S
C235 C234 1.398 . S
C235 C239 1.407 . S
C236 C234 1.396 . S
C236 C237 1.394 . S
C237 H232 0.929 . S
C237 C236 1.394 . S
C237 C238 1.382 . S
C238 C237 1.382 . S
C238 C239 1.392 . S
C238 N240 1.420 . S
C239 H233 0.930 . S
C239 C235 1.407 . S
C239 C238 1.392 . S
N240 C238 1.420 . S
N240 C241 1.244 . S
C241 N240 1.244 . S
H242 C245 0.929 . S
H243 C248 0.929 . S
H244 C250 0.930 . S
C245 H242 0.929 . S
C245 C246 1.398 . S
C245 C247 1.396 . S
C246 C245 1.398 . S
C246 C250 1.407 . S
C247 C245 1.396 . S
C247 C248 1.394 . S
C248 H243 0.929 . S
C248 C247 1.394 . S
C248 C249 1.382 . S
C249 C248 1.382 . S
C249 C250 1.392 . S
C249 N251 1.420 . S
C250 H244 0.930 . S
C250 C246 1.407 . S
C250 C249 1.392 . S
N251 C249 1.420 . S
N251 C252 1.244 . S
C252 N251 1.244 . S
H253 C256 0.929 . S
H254 C259 0.929 . S
H255 C261 0.930 . S
C256 H253 0.929 . S
C256 C257 1.398 . S
C256 C258 1.396 . S
C257 C256 1.398 . S
C257 C261 1.407 . S
C258 C256 1.396 . S
C258 C259 1.394 . S
C259 H254 0.929 . S
C259 C258 1.394 . S
C259 C260 1.382 . S
C260 C259 1.382 . S
C260 C261 1.392 . S
C260 N262 1.420 . S
C261 H255 0.930 . S
C261 C257 1.407 . S
C261 C260 1.392 . S
N262 C260 1.420 . S
N262 C263 1.244 . S
C263 N262 1.244 . S
H264 C267 0.929 . S
H265 C270 0.929 . S
H266 C272 0.930 . S
C267 H264 0.929 . S
C267 C268 1.398 . S
C267 C269 1.396 . S
C268 C267 1.398 . S
C268 C272 1.407 . S
C269 C267 1.396 . S
C269 C270 1.394 . S
C270 H265 0.929 . S
C270 C269 1.394 . S
C270 C271 1.382 . S
C271 C270 1.382 . S
C271 C272 1.392 . S
C271 N273 1.420 . S
C272 H266 0.930 . S
C272 C268 1.407 . S
C272 C271 1.392 . S
N273 C271 1.420 . S
N273 C274 1.244 . S
C274 N273 1.244 . S
H275 C278 0.929 . S
H276 C281 0.929 . S
H277 C283 0.930 . S
C278 H275 0.929 . S
C278 C279 1.398 . S
C278 C280 1.396 . S
C279 C278 1.398 . S
C279 C283 1.407 . S
C280 C278 1.396 . S
C280 C281 1.394 . S
C281 H276 0.929 . S
C281 C280 1.394 . S
C281 C282 1.382 . S
C282 C281 1.382 . S
C282 C283 1.392 . S
C282 N284 1.420 . S
C283 H277 0.930 . S
C283 C279 1.407 . S
C283 C282 1.392 . S
N284 C282 1.420 . S
N284 C285 1.244 . S
C285 N284 1.244 . S
H286 C289 0.929 . S
H287 C292 0.929 . S
H288 C294 0.930 . S
C289 H286 0.929 . S
C289 C290 1.398 . S
C289 C291 1.396 . S
C290 C289 1.398 . S
C290 C294 1.407 . S
C291 C289 1.396 . S
C291 C292 1.394 . S
C292 H287 0.929 . S
C292 C291 1.394 . S
C292 C293 1.382 . S
C293 C292 1.382 . S
C293 C294 1.392 . S
C293 N295 1.420 . S
C294 H288 0.930 . S
C294 C290 1.407 . S
C294 C293 1.392 . S
N295 C293 1.420 . S
N295 C296 1.244 . S
C296 N295 1.244 . S
H297 C300 0.929 . S
H298 C303 0.929 . S
H299 C305 0.930 . S
C300 H297 0.929 . S
C300 C301 1.398 . S
C300 C302 1.396 . S
C301 C300 1.398 . S
C301 C305 1.407 . S
C302 C300 1.396 . S
C302 C303 1.394 . S
C303 H298 0.929 . S
C303 C302 1.394 . S
C303 C304 1.382 . S
C304 C303 1.382 . S
C304 C305 1.392 . S
C304 N306 1.420 . S
C305 H299 0.930 . S
C305 C301 1.407 . S
C305 C304 1.392 . S
N306 C304 1.420 . S
N306 C307 1.244 . S
C307 N306 1.244 . S
H308 C311 0.929 . S
H309 C314 0.929 . S
H310 C316 0.930 . S
C311 H308 0.929 . S
C311 C312 1.398 . S
C311 C313 1.396 . S
C312 C311 1.398 . S
C312 C316 1.407 . S
C313 C311 1.396 . S
C313 C314 1.394 . S
C314 H309 0.929 . S
C314 C313 1.394 . S
C314 C315 1.382 . S
C315 C314 1.382 . S
C315 C316 1.392 . S
C315 N317 1.420 . S
C316 H310 0.930 . S
C316 C312 1.407 . S
C316 C315 1.392 . S
N317 C315 1.420 . S
N317 C318 1.244 . S
C318 N317 1.244 . S
H319 C322 0.929 . S
H320 C325 0.929 . S
H321 C327 0.930 . S
C322 H319 0.929 . S
C322 C323 1.398 . S
C322 C324 1.396 . S
C323 C322 1.398 . S
C323 C327 1.407 . S
C324 C322 1.396 . S
C324 C325 1.394 . S
C325 H320 0.929 . S
C325 C324 1.394 . S
C325 C326 1.382 . S
C326 C325 1.382 . S
C326 C327 1.392 . S
C326 N328 1.420 . S
C327 H321 0.930 . S
C327 C323 1.407 . S
C327 C326 1.392 . S
N328 C326 1.420 . S
N328 C329 1.244 . S
C329 N328 1.244 . S
H330 C333 0.929 . S
H331 C336 0.929 . S
H332 C338 0.930 . S
C333 H330 0.929 . S
C333 C334 1.398 . S
C333 C335 1.396 . S
C334 C333 1.398 . S
C334 C338 1.407 . S
C335 C333 1.396 . S
C335 C336 1.394 . S
C336 H331 0.929 . S
C336 C335 1.394 . S
C336 C337 1.382 . S
C337 C336 1.382 . S
C337 C338 1.392 . S
C337 N339 1.420 . S
C338 H332 0.930 . S
C338 C334 1.407 . S
C338 C337 1.392 . S
N339 C337 1.420 . S
N339 C340 1.244 . S
C340 N339 1.244 . S
H341 C344 0.929 . S
H342 C347 0.929 . S
H343 C349 0.930 . S
C344 H341 0.929 . S
C344 C345 1.398 . S
C344 C346 1.396 . S
C345 C344 1.398 . S
C345 C349 1.407 . S
C346 C344 1.396 . S
C346 C347 1.394 . S
C347 H342 0.929 . S
C347 C346 1.394 . S
C347 C348 1.382 . S
C348 C347 1.382 . S
C348 C349 1.392 . S
C348 N350 1.420 . S
C349 H343 0.930 . S
C349 C345 1.407 . S
C349 C348 1.392 . S
N350 C348 1.420 . S
N350 C351 1.244 . S
C351 N350 1.244 . S
Cu352 N353 1.999 . S
Cu352 O358 1.974 1_554 S
Cu352 N363 1.985 . S
Cu352 O372 1.959 . S
N353 Cu352 1.999 . S
N353 C355 1.263 1_554 S
N353 C357 1.389 . S
N354 C355 1.358 . S
N354 C356 1.400 . S
C355 N353 1.263 1_556 S
C355 N354 1.358 . S
C355 H361 0.930 . S
C356 N354 1.400 . S
C356 C357 1.351 1_556 S
C356 H373 0.930 . S
C357 N353 1.389 . S
C357 C356 1.351 1_554 S
C357 H362 0.930 . S
O358 Cu352 1.974 1_556 S
O358 C368 1.282 . S
C359 O360 1.261 . S
C359 O372 1.251 . S
O360 C359 1.261 . S
H361 C355 0.930 . S
H362 C357 0.930 . S
N363 Cu352 1.985 . S
N363 C365 1.335 . S
N363 C366 1.390 . S
N364 C365 1.345 . S
N364 C367 1.336 . S
C365 N363 1.335 . S
C365 N364 1.345 . S
C365 H370 0.930 . S
C366 N363 1.390 . S
C366 C367 1.346 . S
C366 H371 0.930 . S
C367 N364 1.336 . S
C367 C366 1.346 . S
C367 H374 0.929 . S
C368 O358 1.282 . S
C368 O369 1.216 . S
O369 C368 1.216 . S
H370 C365 0.930 . S
H371 C366 0.930 . S
O372 Cu352 1.959 . S
O372 C359 1.251 . S
H373 C356 0.930 . S
H374 C367 0.929 . S
Cu375 N376 1.999 . S
Cu375 O381 1.974 . S
Cu375 N386 2.023 . S
Cu375 O395 1.959 1_554 S
N376 Cu375 1.999 . S
N376 C378 1.263 . S
N376 C380 1.389 . S
N377 C378 1.358 . S
N377 C379 1.400 . S
C378 N376 1.263 . S
C378 N377 1.358 . S
C378 H384 0.930 . S
C379 N377 1.400 . S
C379 C380 1.351 . S
C379 H396 0.930 . S
C380 N376 1.389 . S
C380 C379 1.351 . S
C380 H385 0.930 . S
O381 Cu375 1.974 . S
O381 C391 1.282 . S
C382 O383 1.265 . S
C382 O395 1.251 . S
O383 C382 1.265 . S
H384 C378 0.930 . S
H385 C380 0.930 . S
N386 Cu375 2.023 . S
N386 C388 1.276 1_554 S
N386 C389 1.404 . S
N387 C388 1.345 . S
N387 C390 1.336 . S
C388 N386 1.276 1_556 S
C388 N387 1.345 . S
C388 H393 0.930 . S
C389 N386 1.404 . S
C389 C390 1.346 1_554 S
C389 H394 0.930 . S
C390 N387 1.336 . S
C390 C389 1.346 1_556 S
C390 H397 0.929 . S
C391 O381 1.282 . S
C391 O392 1.216 . S
O392 C391 1.216 . S
H393 C388 0.930 . S
H394 C389 0.930 . S
O395 Cu375 1.959 1_556 S
O395 C382 1.251 . S
H396 C379 0.930 . S
H397 C390 0.929 . S
Cu398 N399 1.999 1_554 S
Cu398 O404 1.974 1_554 S
Cu398 N409 1.985 . S
Cu398 O418 1.959 . S
N399 Cu398 1.999 1_556 S
N399 C401 1.263 . S
N399 C403 1.389 . S
N400 C401 1.358 . S
N400 C402 1.400 . S
C401 N399 1.263 . S
C401 N400 1.358 . S
C401 H407 0.930 . S
C402 N400 1.400 . S
C402 C403 1.351 . S
C402 H419 0.930 . S
C403 N399 1.389 . S
C403 C402 1.351 . S
C403 H408 0.930 1_556 S
O404 Cu398 1.974 1_556 S
O404 C414 1.282 . S
C405 O406 1.261 . S
C405 O418 1.251 . S
O406 C405 1.261 . S
H407 C401 0.930 . S
H408 C403 0.930 1_554 S
N409 Cu398 1.985 . S
N409 C411 1.335 . S
N409 C412 1.390 . S
N410 C411 1.345 . S
N410 C413 1.336 . S
C411 N409 1.335 . S
C411 N410 1.345 . S
C411 H416 0.930 . S
C412 N409 1.390 . S
C412 C413 1.346 . S
C412 H417 0.930 . S
C413 N410 1.336 . S
C413 C412 1.346 . S
C413 H420 0.929 . S
C414 O404 1.282 . S
C414 O415 1.216 . S
O415 C414 1.216 . S
H416 C411 0.930 . S
H417 C412 0.930 . S
O418 Cu398 1.959 . S
O418 C405 1.251 . S
H419 C402 0.930 . S
H420 C413 0.929 . S
Cu421 N422 1.999 . S
Cu421 O427 1.974 . S
Cu421 N432 1.985 1_554 S
Cu421 O441 1.959 1_554 S
N422 Cu421 1.999 . S
N422 C424 1.263 . S
N422 C426 1.389 . S
N423 C424 1.358 . S
N423 C425 1.400 . S
C424 N422 1.263 . S
C424 N423 1.358 . S
C424 H430 0.930 . S
C425 N423 1.400 . S
C425 C426 1.351 . S
C425 H442 0.930 . S
C426 N422 1.389 . S
C426 C425 1.351 . S
C426 H431 0.930 . S
O427 Cu421 1.974 . S
O427 C437 1.282 . S
C428 O429 1.261 . S
C428 O441 1.251 . S
O429 C428 1.261 . S
H430 C424 0.930 . S
H431 C426 0.930 . S
N432 Cu421 1.985 1_556 S
N432 C434 1.335 . S
N432 C435 1.390 . S
N433 C434 1.345 . S
N433 C436 1.336 . S
C434 N432 1.335 . S
C434 N433 1.345 . S
C434 H439 0.930 . S
C435 N432 1.390 . S
C435 C436 1.346 . S
C435 H440 0.930 1_556 S
C436 N433 1.336 . S
C436 C435 1.346 . S
C436 H443 0.929 . S
C437 O427 1.282 . S
C437 O438 1.216 . S
O438 C437 1.216 . S
H439 C434 0.930 . S
H440 C435 0.930 1_554 S
O441 Cu421 1.959 1_556 S
O441 C428 1.251 . S
H442 C425 0.930 . S
H443 C436 0.929 . S
Cu444 N445 1.999 . S
Cu444 O450 1.974 . S
Cu444 N455 1.985 . S
Cu444 O464 1.959 1_455 S
N445 Cu444 1.999 . S
N445 C447 1.263 . S
N445 C449 1.389 . S
N446 C447 1.358 . S
N446 C448 1.400 . S
C447 N445 1.263 . S
C447 N446 1.358 . S
C447 H453 0.930 . S
C448 N446 1.400 . S
C448 C449 1.351 . S
C448 H465 0.930 . S
C449 N445 1.389 . S
C449 C448 1.351 . S
C449 H454 0.930 . S
O450 Cu444 1.974 . S
O450 C460 1.282 . S
C451 O452 1.261 . S
C451 O464 1.251 . S
O452 C451 1.261 . S
H453 C447 0.930 . S
H454 C449 0.930 . S
N455 Cu444 1.985 . S
N455 C457 1.335 1_455 S
N455 C458 1.390 . S
N456 C457 1.345 . S
N456 C459 1.336 . S
C457 N455 1.335 1_655 S
C457 N456 1.345 . S
C457 H462 0.930 . S
C458 N455 1.390 . S
C458 C459 1.346 1_455 S
C458 H463 0.930 . S
C459 N456 1.336 . S
C459 C458 1.346 1_655 S
C459 H466 0.929 . S
C460 O450 1.282 . S
C460 O461 1.216 . S
O461 C460 1.216 . S
H462 C457 0.930 . S
H463 C458 0.930 . S
O464 Cu444 1.959 1_655 S
O464 C451 1.251 . S
H465 C448 0.930 . S
H466 C459 0.929 . S
Cu467 N468 1.999 . S
Cu467 O473 1.974 . S
Cu467 N478 1.985 1_545 S
Cu467 O487 1.959 1_545 S
N468 Cu467 1.999 . S
N468 C470 1.263 . S
N468 C472 1.389 . S
N469 C470 1.358 . S
N469 C471 1.400 . S
C470 N468 1.263 . S
C470 N469 1.358 . S
C470 H476 0.930 . S
C471 N469 1.400 . S
C471 C472 1.351 . S
C471 H488 0.930 . S
C472 N468 1.389 . S
C472 C471 1.351 . S
C472 H477 0.930 . S
O473 Cu467 1.974 . S
O473 C483 1.282 . S
C474 O475 1.261 . S
C474 O487 1.251 . S
O475 C474 1.261 . S
H476 C470 0.930 . S
H477 C472 0.930 . S
N478 Cu467 1.985 1_565 S
N478 C480 1.335 . S
N478 C481 1.390 . S
N479 C480 1.345 . S
N479 C482 1.336 . S
C480 N478 1.335 . S
C480 N479 1.345 . S
C480 H485 0.930 . S
C481 N478 1.390 . S
C481 C482 1.346 . S
C481 H486 0.910 1_565 S
C482 N479 1.336 . S
C482 C481 1.346 . S
C482 H489 0.929 . S
C483 O473 1.282 . S
C483 O484 1.216 . S
O484 C483 1.216 . S
H485 C480 0.930 . S
H486 C481 0.910 1_545 S
O487 Cu467 1.959 1_565 S
O487 C474 1.251 . S
H488 C471 0.930 . S
H489 C482 0.929 . S
Cu490 N491 1.999 . S
Cu490 O496 1.974 . S
Cu490 N501 1.985 1_655 S
Cu490 O510 1.959 1_655 S
N491 Cu490 1.999 . S
N491 C493 1.263 . S
N491 C495 1.389 . S
N492 C493 1.358 . S
N492 C494 1.400 . S
C493 N491 1.263 . S
C493 N492 1.358 . S
C493 H499 0.930 . S
C494 N492 1.400 . S
C494 C495 1.351 . S
C494 H511 0.930 . S
C495 N491 1.389 . S
C495 C494 1.351 . S
C495 H500 0.930 . S
O496 Cu490 1.974 . S
O496 C506 1.282 . S
C497 O498 1.261 . S
C497 O510 1.251 . S
O498 C497 1.261 . S
H499 C493 0.930 . S
H500 C495 0.930 . S
N501 Cu490 1.985 1_455 S
N501 C503 1.335 . S
N501 C504 1.390 . S
N502 C503 1.345 . S
N502 C505 1.336 . S
C503 N501 1.335 . S
C503 N502 1.345 . S
C503 H508 0.930 . S
C504 N501 1.390 . S
C504 C505 1.346 . S
C504 H509 0.893 1_455 S
C505 N502 1.336 . S
C505 C504 1.346 . S
C505 H512 0.929 . S
C506 O496 1.282 . S
C506 O507 1.216 . S
O507 C506 1.216 . S
H508 C503 0.930 . S
H509 C504 0.893 1_655 S
O510 Cu490 1.959 1_455 S
O510 C497 1.251 . S
H511 C494 0.930 . S
H512 C505 0.929 . S
Cu513 N514 1.999 . S
Cu513 O519 1.974 . S
Cu513 N524 1.985 1_545 S
Cu513 O533 1.959 1_545 S
N514 Cu513 1.999 . S
N514 C516 1.263 . S
N514 C518 1.389 . S
N515 C516 1.358 . S
N515 C517 1.400 . S
C516 N514 1.263 . S
C516 N515 1.358 . S
C516 H522 0.930 . S
C517 N515 1.400 . S
C517 C518 1.351 . S
C517 H534 0.930 . S
C518 N514 1.389 . S
C518 C517 1.351 . S
C518 H523 0.930 . S
O519 Cu513 1.974 . S
O519 C529 1.282 . S
C520 O521 1.261 . S
C520 O533 1.251 . S
O521 C520 1.261 . S
H522 C516 0.930 . S
H523 C518 0.930 . S
N524 Cu513 1.985 1_565 S
N524 C526 1.335 . S
N524 C527 1.390 . S
N525 C526 1.345 . S
N525 C528 1.336 . S
C526 N524 1.335 . S
C526 N525 1.345 . S
C526 H531 0.930 . S
C527 N524 1.390 . S
C527 C528 1.346 . S
C527 H532 0.930 . S
C528 N525 1.336 . S
C528 C527 1.346 . S
C528 H535 0.929 . S
C529 O519 1.282 . S
C529 O530 1.216 . S
O530 C529 1.216 . S
H531 C526 0.930 . S
H532 C527 0.930 . S
O533 Cu513 1.959 1_565 S
O533 C520 1.251 . S
H534 C517 0.930 . S
H535 C528 0.929 . S
Cu536 N537 1.999 . S
Cu536 O542 1.974 . S
Cu536 N547 1.985 . S
Cu536 O556 1.959 1_455 S
N537 Cu536 1.999 . S
N537 C539 1.263 . S
N537 C541 1.389 . S
N538 C539 1.358 . S
N538 C540 1.400 . S
C539 N537 1.263 . S
C539 N538 1.358 . S
C539 H545 0.930 . S
C540 N538 1.400 . S
C540 C541 1.351 . S
C540 H557 0.930 . S
C541 N537 1.389 . S
C541 C540 1.351 . S
C541 H546 0.930 . S
O542 Cu536 1.974 . S
O542 C552 1.282 . S
C543 O544 1.261 . S
C543 O556 1.251 . S
O544 C543 1.261 . S
H545 C539 0.930 . S
H546 C541 0.930 . S
N547 Cu536 1.985 . S
N547 C549 1.335 1_455 S
N547 C550 1.390 . S
N548 C549 1.345 . S
N548 C551 1.336 . S
C549 N547 1.335 1_655 S
C549 N548 1.345 . S
C549 H554 0.930 . S
C550 N547 1.390 . S
C550 C551 1.346 1_455 S
C550 H555 0.930 . S
C551 N548 1.336 . S
C551 C550 1.346 1_655 S
C551 H558 0.929 . S
C552 O542 1.282 . S
C552 O553 1.216 . S
O553 C552 1.216 . S
H554 C549 0.930 . S
H555 C550 0.930 . S
O556 Cu536 1.959 1_655 S
O556 C543 1.251 . S
H557 C540 0.930 . S
H558 C551 0.929 . S
Cu559 N560 1.999 . S
Cu559 O565 1.974 . S
Cu559 N570 1.985 1_545 S
Cu559 O579 1.959 1_545 S
N560 Cu559 1.999 . S
N560 C562 1.263 . S
N560 C564 1.389 . S
N561 C562 1.358 . S
N561 C563 1.400 . S
C562 N560 1.263 . S
C562 N561 1.358 . S
C562 H568 0.930 . S
C563 N561 1.400 . S
C563 C564 1.351 . S
C563 H580 0.930 . S
C564 N560 1.389 . S
C564 C563 1.351 . S
C564 H569 0.930 . S
O565 Cu559 1.974 . S
O565 C575 1.282 . S
C566 O567 1.261 1_565 S
C566 O579 1.251 . S
O567 C566 1.261 1_545 S
H568 C562 0.930 . S
H569 C564 0.930 . S
N570 Cu559 1.985 1_565 S
N570 C572 1.335 . S
N570 C573 1.390 . S
N571 C572 1.345 . S
N571 C574 1.336 . S
C572 N570 1.335 . S
C572 N571 1.345 . S
C572 H577 0.930 . S
C573 N570 1.390 . S
C573 C574 1.346 . S
C573 H578 0.930 1_565 S
C574 N571 1.336 . S
C574 C573 1.346 . S
C574 H581 0.929 . S
C575 O565 1.282 . S
C575 O576 1.216 . S
O576 C575 1.216 . S
H577 C572 0.930 . S
H578 C573 0.930 1_545 S
O579 Cu559 1.959 1_565 S
O579 C566 1.251 . S
H580 C563 0.930 . S
H581 C574 0.929 . S
Cu582 N583 1.999 . S
Cu582 O588 1.974 . S
Cu582 N593 1.985 . S
Cu582 O602 1.959 . S
N583 Cu582 1.999 . S
N583 C585 1.263 1_455 S
N583 C587 1.389 . S
N584 C585 1.358 . S
N584 C586 1.419 . S
C585 N583 1.263 1_655 S
C585 N584 1.358 . S
C585 H591 0.930 . S
C586 N584 1.419 . S
C586 C587 1.326 1_655 S
C586 H603 0.936 . S
C587 N583 1.389 . S
C587 C586 1.326 1_455 S
C587 H592 0.930 . S
O588 Cu582 1.974 . S
O588 C598 1.276 1_455 S
C589 O590 1.261 . S
C589 O602 1.251 . S
O590 C589 1.261 . S
H591 C585 0.930 . S
H592 C587 0.930 . S
N593 Cu582 1.985 . S
N593 C595 1.335 . S
N593 C596 1.390 . S
N594 C595 1.345 . S
N594 C597 1.336 . S
C595 N593 1.335 . S
C595 N594 1.345 . S
C595 H600 0.930 . S
C596 N593 1.390 . S
C596 C597 1.346 . S
C596 H601 0.930 . S
C597 N594 1.336 . S
C597 C596 1.346 . S
C597 H604 0.929 . S
C598 O588 1.276 1_655 S
C598 O599 1.211 1_655 S
O599 C598 1.211 1_455 S
H600 C595 0.930 . S
H601 C596 0.930 . S
O602 Cu582 1.959 . S
O602 C589 1.251 . S
H603 C586 0.936 . S
H604 C597 0.929 . S
Cu605 N606 1.999 . S
Cu605 O611 1.974 . S
Cu605 N616 1.998 . S
Cu605 O625 1.959 . S
N606 Cu605 1.999 . S
N606 C608 1.263 . S
N606 C610 1.389 . S
N607 C608 1.358 . S
N607 C609 1.400 . S
C608 N606 1.263 . S
C608 N607 1.358 . S
C608 H614 0.930 . S
C609 N607 1.400 . S
C609 C610 1.351 . S
C609 H626 0.930 . S
C610 N606 1.389 . S
C610 C609 1.351 . S
C610 H615 0.930 . S
O611 Cu605 1.974 . S
O611 C621 1.282 . S
C612 O613 1.261 1_565 S
C612 O625 1.251 1_565 S
O613 C612 1.261 1_545 S
H614 C608 0.930 . S
H615 C610 0.930 . S
N616 Cu605 1.998 . S
N616 C618 1.314 1_545 S
N616 C619 1.388 . S
N617 C618 1.345 . S
N617 C620 1.336 . S
C618 N616 1.314 1_565 S
C618 N617 1.345 . S
C618 H623 0.930 . S
C619 N616 1.388 . S
C619 C620 1.321 1_545 S
C619 H624 0.958 . S
C620 N617 1.336 . S
C620 C619 1.321 1_565 S
C620 H627 0.929 . S
C621 O611 1.282 . S
C621 O622 1.216 . S
O622 C621 1.216 . S
H623 C618 0.930 . S
H624 C619 0.958 . S
O625 Cu605 1.959 . S
O625 C612 1.251 1_545 S
H626 C609 0.930 . S
H627 C620 0.929 . S
Cu628 N629 1.999 . S
Cu628 O634 1.974 . S
Cu628 N639 1.985 . S
Cu628 O648 1.959 . S
N629 Cu628 1.999 . S
N629 C631 1.263 . S
N629 C633 1.389 . S
N630 C631 1.358 . S
N630 C632 1.400 . S
C631 N629 1.263 . S
C631 N630 1.358 . S
C631 H637 0.930 . S
C632 N630 1.400 . S
C632 C633 1.351 . S
C632 H649 0.930 . S
C633 N629 1.389 . S
C633 C632 1.351 . S
C633 H638 0.930 . S
O634 Cu628 1.974 . S
O634 C644 1.282 . S
C635 O636 1.261 . S
C635 O648 1.251 . S
O636 C635 1.261 . S
H637 C631 0.930 . S
H638 C633 0.930 . S
N639 Cu628 1.985 . S
N639 C641 1.335 . S
N639 C642 1.390 . S
N640 C641 1.345 . S
N640 C643 1.336 . S
C641 N639 1.335 . S
C641 N640 1.345 . S
C641 H646 0.930 . S
C642 N639 1.390 . S
C642 C643 1.346 . S
C642 H647 0.930 . S
C643 N640 1.336 . S
C643 C642 1.346 . S
C643 H650 0.929 . S
C644 O634 1.282 . S
C644 O645 1.216 . S
O645 C644 1.216 . S
H646 C641 0.930 . S
H647 C642 0.930 . S
O648 Cu628 1.959 . S
O648 C635 1.251 . S
H649 C632 0.930 . S
H650 C643 0.929 . S
Cu651 N652 1.999 . S
Cu651 O657 1.974 . S
Cu651 N662 1.985 . S
Cu651 O671 1.959 . S
N652 Cu651 1.999 . S
N652 C654 1.263 . S
N652 C656 1.389 . S
N653 C654 1.358 . S
N653 C655 1.400 . S
C654 N652 1.263 . S
C654 N653 1.358 . S
C654 H660 0.930 . S
C655 N653 1.400 . S
C655 C656 1.351 . S
C655 H672 0.930 . S
C656 N652 1.389 . S
C656 C655 1.351 . S
C656 H661 0.930 . S
O657 Cu651 1.974 . S
O657 C667 1.282 . S
C658 O659 1.261 . S
C658 O671 1.251 . S
O659 C658 1.261 . S
H660 C654 0.930 . S
H661 C656 0.930 . S
N662 Cu651 1.985 . S
N662 C664 1.335 . S
N662 C665 1.390 . S
N663 C664 1.345 . S
N663 C666 1.336 . S
C664 N662 1.335 . S
C664 N663 1.345 . S
C664 H669 0.930 . S
C665 N662 1.390 . S
C665 C666 1.346 . S
C665 H670 0.930 . S
C666 N663 1.336 . S
C666 C665 1.346 . S
C666 H673 0.929 . S
C667 O657 1.282 . S
C667 O668 1.216 . S
O668 C667 1.216 . S
H669 C664 0.930 . S
H670 C665 0.930 . S
O671 Cu651 1.959 . S
O671 C658 1.251 . S
H672 C655 0.930 . S
H673 C666 0.929 . S
Cu674 N675 1.999 . S
Cu674 O680 1.974 . S
Cu674 N685 1.985 . S
Cu674 O694 1.959 . S
N675 Cu674 1.999 . S
N675 C677 1.263 . S
N675 C679 1.389 . S
N676 C677 1.358 . S
N676 C678 1.400 . S
C677 N675 1.263 . S
C677 N676 1.358 . S
C677 H683 0.930 . S
C678 N676 1.400 . S
C678 C679 1.351 . S
C678 H695 0.930 . S
C679 N675 1.389 . S
C679 C678 1.351 . S
C679 H684 0.930 . S
O680 Cu674 1.974 . S
O680 C690 1.282 . S
C681 O682 1.261 . S
C681 O694 1.251 . S
O682 C681 1.261 . S
H683 C677 0.930 . S
H684 C679 0.930 . S
N685 Cu674 1.985 . S
N685 C687 1.335 . S
N685 C688 1.390 . S
N686 C687 1.345 . S
N686 C689 1.336 . S
C687 N685 1.335 . S
C687 N686 1.345 . S
C687 H692 0.930 . S
C688 N685 1.390 . S
C688 C689 1.346 . S
C688 H693 0.930 . S
C689 N686 1.336 . S
C689 C688 1.346 . S
C689 H696 0.929 . S
C690 O680 1.282 . S
C690 O691 1.216 . S
O691 C690 1.216 . S
H692 C687 0.930 . S
H693 C688 0.930 . S
O694 Cu674 1.959 . S
O694 C681 1.251 . S
H695 C678 0.930 . S
H696 C689 0.929 . S
Cu697 N698 1.999 . S
Cu697 O703 1.974 . S
Cu697 N708 1.985 . S
Cu697 O717 1.959 . S
N698 Cu697 1.999 . S
N698 C700 1.263 . S
N698 C702 1.389 . S
N699 C700 1.358 . S
N699 C701 1.400 . S
C700 N698 1.263 . S
C700 N699 1.358 . S
C700 H706 0.930 . S
C701 N699 1.400 . S
C701 C702 1.351 . S
C701 H718 0.930 . S
C702 N698 1.389 . S
C702 C701 1.351 . S
C702 H707 0.930 . S
O703 Cu697 1.974 . S
O703 C713 1.282 . S
C704 O705 1.261 . S
C704 O717 1.251 . S
O705 C704 1.261 . S
H706 C700 0.930 . S
H707 C702 0.930 . S
N708 Cu697 1.985 . S
N708 C710 1.335 . S
N708 C711 1.390 . S
N709 C710 1.345 . S
N709 C712 1.336 . S
C710 N708 1.335 . S
C710 N709 1.345 . S
C710 H715 0.930 . S
C711 N708 1.390 . S
C711 C712 1.346 . S
C711 H716 0.930 . S
C712 N709 1.336 . S
C712 C711 1.346 . S
C712 H719 0.929 . S
C713 O703 1.282 . S
C713 O714 1.216 . S
O714 C713 1.216 . S
H715 C710 0.930 . S
H716 C711 0.930 . S
O717 Cu697 1.959 . S
O717 C704 1.251 . S
H718 C701 0.930 . S
H719 C712 0.929 . S
Cu720 N721 1.999 . S
Cu720 O726 1.974 . S
Cu720 N731 1.985 . S
Cu720 O740 1.959 . S
N721 Cu720 1.999 . S
N721 C723 1.263 . S
N721 C725 1.389 . S
N722 C723 1.358 . S
N722 C724 1.400 . S
C723 N721 1.263 . S
C723 N722 1.358 . S
C723 H729 0.930 . S
C724 N722 1.400 . S
C724 C725 1.351 . S
C724 H741 0.930 . S
C725 N721 1.389 . S
C725 C724 1.351 . S
C725 H730 0.930 . S
O726 Cu720 1.974 . S
O726 C736 1.282 . S
C727 O728 1.261 . S
C727 O740 1.251 . S
O728 C727 1.261 . S
H729 C723 0.930 . S
H730 C725 0.930 . S
N731 Cu720 1.985 . S
N731 C733 1.335 . S
N731 C734 1.390 . S
N732 C733 1.345 . S
N732 C735 1.336 . S
C733 N731 1.335 . S
C733 N732 1.345 . S
C733 H738 0.930 . S
C734 N731 1.390 . S
C734 C735 1.346 . S
C734 H739 0.930 . S
C735 N732 1.336 . S
C735 C734 1.346 . S
C735 H742 0.929 . S
C736 O726 1.282 . S
C736 O737 1.216 . S
O737 C736 1.216 . S
H738 C733 0.930 . S
H739 C734 0.930 . S
O740 Cu720 1.959 . S
O740 C727 1.251 . S
H741 C724 0.930 . S
H742 C735 0.929 . S
Cu743 N744 1.999 . S
Cu743 O749 1.974 . S
Cu743 N754 1.985 . S
Cu743 O763 1.959 . S
N744 Cu743 1.999 . S
N744 C746 1.263 . S
N744 C748 1.389 . S
N745 C746 1.358 . S
N745 C747 1.400 . S
C746 N744 1.263 . S
C746 N745 1.358 . S
C746 H752 0.930 . S
C747 N745 1.400 . S
C747 C748 1.351 . S
C747 H764 0.930 . S
C748 N744 1.389 . S
C748 C747 1.351 . S
C748 H753 0.930 . S
O749 Cu743 1.974 . S
O749 C759 1.282 . S
C750 O751 1.261 . S
C750 O763 1.251 . S
O751 C750 1.261 . S
H752 C746 0.930 . S
H753 C748 0.930 . S
N754 Cu743 1.985 . S
N754 C756 1.335 . S
N754 C757 1.390 . S
N755 C756 1.345 . S
N755 C758 1.336 . S
C756 N754 1.335 . S
C756 N755 1.345 . S
C756 H761 0.930 . S
C757 N754 1.390 . S
C757 C758 1.346 . S
C757 H762 0.930 . S
C758 N755 1.336 . S
C758 C757 1.346 . S
C758 H765 0.929 . S
C759 O749 1.282 . S
C759 O760 1.216 . S
O760 C759 1.216 . S
H761 C756 0.930 . S
H762 C757 0.930 . S
O763 Cu743 1.959 . S
O763 C750 1.251 . S
H764 C747 0.930 . S
H765 C758 0.929 . S
Cu766 N767 1.999 . S
Cu766 O772 1.974 . S
Cu766 N777 1.985 . S
Cu766 O786 1.959 . S
N767 Cu766 1.999 . S
N767 C769 1.263 . S
N767 C771 1.389 . S
N768 C769 1.358 . S
N768 C770 1.400 . S
C769 N767 1.263 . S
C769 N768 1.358 . S
C769 H775 0.930 . S
C770 N768 1.400 . S
C770 C771 1.351 . S
C770 H787 0.930 . S
C771 N767 1.389 . S
C771 C770 1.351 . S
C771 H776 0.930 . S
O772 Cu766 1.974 . S
O772 C782 1.282 . S
C773 O774 1.261 . S
C773 O786 1.251 . S
O774 C773 1.261 . S
H775 C769 0.930 . S
H776 C771 0.930 . S
N777 Cu766 1.985 . S
N777 C779 1.335 . S
N777 C780 1.390 . S
N778 C779 1.345 . S
N778 C781 1.336 . S
C779 N777 1.335 . S
C779 N778 1.345 . S
C779 H784 0.930 . S
C780 N777 1.390 . S
C780 C781 1.346 . S
C780 H785 0.930 . S
C781 N778 1.336 . S
C781 C780 1.346 . S
C781 H788 0.929 . S
C782 O772 1.282 . S
C782 O783 1.216 . S
O783 C782 1.216 . S
H784 C779 0.930 . S
H785 C780 0.930 . S
O786 Cu766 1.959 . S
O786 C773 1.251 . S
H787 C770 0.930 . S
H788 C781 0.929 . S
Cu789 N790 1.999 . S
Cu789 O795 1.974 . S
Cu789 N800 1.985 . S
Cu789 O809 1.959 . S
N790 Cu789 1.999 . S
N790 C792 1.263 . S
N790 C794 1.389 . S
N791 C792 1.358 . S
N791 C793 1.400 . S
C792 N790 1.263 . S
C792 N791 1.358 . S
C792 H798 0.930 . S
C793 N791 1.400 . S
C793 C794 1.351 . S
C793 H810 0.930 . S
C794 N790 1.389 . S
C794 C793 1.351 . S
C794 H799 0.930 . S
O795 Cu789 1.974 . S
O795 C805 1.282 . S
C796 O797 1.261 . S
C796 O809 1.251 . S
O797 C796 1.261 . S
H798 C792 0.930 . S
H799 C794 0.930 . S
N800 Cu789 1.985 . S
N800 C802 1.335 . S
N800 C803 1.390 . S
N801 C802 1.345 . S
N801 C804 1.336 . S
C802 N800 1.335 . S
C802 N801 1.345 . S
C802 H807 0.930 . S
C803 N800 1.390 . S
C803 C804 1.346 . S
C803 H808 0.930 . S
C804 N801 1.336 . S
C804 C803 1.346 . S
C804 H811 0.929 . S
C805 O795 1.282 . S
C805 O806 1.216 . S
O806 C805 1.216 . S
H807 C802 0.930 . S
H808 C803 0.930 . S
O809 Cu789 1.959 . S
O809 C796 1.251 . S
H810 C793 0.930 . S
H811 C804 0.929 . S
Cu812 N813 1.999 . S
Cu812 O818 1.974 . S
Cu812 N823 1.985 . S
Cu812 O832 1.959 . S
N813 Cu812 1.999 . S
N813 C815 1.263 . S
N813 C817 1.389 . S
N814 C815 1.358 . S
N814 C816 1.400 . S
C815 N813 1.263 . S
C815 N814 1.358 . S
C815 H821 0.930 . S
C816 N814 1.400 . S
C816 C817 1.351 . S
C816 H833 0.930 . S
C817 N813 1.389 . S
C817 C816 1.351 . S
C817 H822 0.930 . S
O818 Cu812 1.974 . S
O818 C828 1.282 . S
C819 O820 1.261 . S
C819 O832 1.251 . S
O820 C819 1.261 . S
H821 C815 0.930 . S
H822 C817 0.930 . S
N823 Cu812 1.985 . S
N823 C825 1.335 . S
N823 C826 1.390 . S
N824 C825 1.345 . S
N824 C827 1.336 . S
C825 N823 1.335 . S
C825 N824 1.345 . S
C825 H830 0.930 . S
C826 N823 1.390 . S
C826 C827 1.346 . S
C826 H831 0.930 . S
C827 N824 1.336 . S
C827 C826 1.346 . S
C827 H834 0.929 . S
C828 O818 1.282 . S
C828 O829 1.216 . S
O829 C828 1.216 . S
H830 C825 0.930 . S
H831 C826 0.930 . S
O832 Cu812 1.959 . S
O832 C819 1.251 . S
H833 C816 0.930 . S
H834 C827 0.929 . S
Cu835 N836 1.999 . S
Cu835 O841 1.974 . S
Cu835 N846 1.985 . S
Cu835 O855 1.959 . S
N836 Cu835 1.999 . S
N836 C838 1.263 . S
N836 C840 1.389 . S
N837 C838 1.358 . S
N837 C839 1.400 . S
C838 N836 1.263 . S
C838 N837 1.358 . S
C838 H844 0.930 . S
C839 N837 1.400 . S
C839 C840 1.351 . S
C839 H856 0.930 . S
C840 N836 1.389 . S
C840 C839 1.351 . S
C840 H845 0.930 . S
O841 Cu835 1.974 . S
O841 C851 1.282 . S
C842 O843 1.261 . S
C842 O855 1.251 . S
O843 C842 1.261 . S
H844 C838 0.930 . S
H845 C840 0.930 . S
N846 Cu835 1.985 . S
N846 C848 1.335 . S
N846 C849 1.390 . S
N847 C848 1.345 . S
N847 C850 1.336 . S
C848 N846 1.335 . S
C848 N847 1.345 . S
C848 H853 0.930 . S
C849 N846 1.390 . S
C849 C850 1.346 . S
C849 H854 0.930 . S
C850 N847 1.336 . S
C850 C849 1.346 . S
C850 H857 0.929 . S
C851 O841 1.282 . S
C851 O852 1.216 . S
O852 C851 1.216 . S
H853 C848 0.930 . S
H854 C849 0.930 . S
O855 Cu835 1.959 . S
O855 C842 1.251 . S
H856 C839 0.930 . S
H857 C850 0.929 . S
Cu858 N859 1.999 . S
Cu858 O864 1.974 . S
Cu858 N869 1.985 . S
Cu858 O878 1.959 . S
N859 Cu858 1.999 . S
N859 C861 1.263 . S
N859 C863 1.389 . S
N860 C861 1.358 . S
N860 C862 1.400 . S
C861 N859 1.263 . S
C861 N860 1.358 . S
C861 H867 0.930 . S
C862 N860 1.400 . S
C862 C863 1.351 . S
C862 H879 0.930 . S
C863 N859 1.389 . S
C863 C862 1.351 . S
C863 H868 0.930 . S
O864 Cu858 1.974 . S
O864 C874 1.282 . S
C865 O866 1.261 . S
C865 O878 1.251 . S
O866 C865 1.261 . S
H867 C861 0.930 . S
H868 C863 0.930 . S
N869 Cu858 1.985 . S
N869 C871 1.335 . S
N869 C872 1.390 . S
N870 C871 1.345 . S
N870 C873 1.336 . S
C871 N869 1.335 . S
C871 N870 1.345 . S
C871 H876 0.930 . S
C872 N869 1.390 . S
C872 C873 1.346 . S
C872 H877 0.930 . S
C873 N870 1.336 . S
C873 C872 1.346 . S
C873 H880 0.929 . S
C874 O864 1.282 . S
C874 O875 1.216 . S
O875 C874 1.216 . S
H876 C871 0.930 . S
H877 C872 0.930 . S
O878 Cu858 1.959 . S
O878 C865 1.251 . S
H879 C862 0.930 . S
H880 C873 0.929 . S
Cu881 N882 1.999 . S
Cu881 O887 1.974 . S
Cu881 N892 1.985 . S
Cu881 O901 1.959 . S
N882 Cu881 1.999 . S
N882 C884 1.263 . S
N882 C886 1.389 . S
N883 C884 1.358 . S
N883 C885 1.400 . S
C884 N882 1.263 . S
C884 N883 1.358 . S
C884 H890 0.930 . S
C885 N883 1.400 . S
C885 C886 1.351 . S
C885 H902 0.930 . S
C886 N882 1.389 . S
C886 C885 1.351 . S
C886 H891 0.930 . S
O887 Cu881 1.974 . S
O887 C897 1.282 . S
C888 O889 1.261 . S
C888 O901 1.251 . S
O889 C888 1.261 . S
H890 C884 0.930 . S
H891 C886 0.930 . S
N892 Cu881 1.985 . S
N892 C894 1.335 . S
N892 C895 1.390 . S
N893 C894 1.345 . S
N893 C896 1.336 . S
C894 N892 1.335 . S
C894 N893 1.345 . S
C894 H899 0.930 . S
C895 N892 1.390 . S
C895 C896 1.346 . S
C895 H900 0.930 . S
C896 N893 1.336 . S
C896 C895 1.346 . S
C896 H903 0.929 . S
C897 O887 1.282 . S
C897 O898 1.216 . S
O898 C897 1.216 . S
H899 C894 0.930 . S
H900 C895 0.930 . S
O901 Cu881 1.959 . S
O901 C888 1.251 . S
H902 C885 0.930 . S
H903 C896 0.929 . S
H904 C912 0.950 . S
H905 C917 0.950 . S
H906 C914 0.950 . S
H907 C916 0.950 . S
H908 C918 0.950 . S
H909 C920 0.950 . S
H910 C922 0.950 . S
H911 C923 0.950 . S
C912 H904 0.950 . S
C912 C913 1.386 . S
C912 C914 1.391 . S
C913 C912 1.386 . S
C913 C917 1.393 . S
C914 H906 0.950 . S
C914 C912 1.391 . S
C914 C915 1.400 . S
C915 C914 1.400 . S
C915 C916 1.398 . S
C915 C921 1.491 . S
C916 H907 0.950 . S
C916 C915 1.398 . S
C916 C917 1.391 . S
C917 H905 0.950 . S
C917 C913 1.393 . S
C917 C916 1.391 . S
C918 H908 0.950 . S
C918 C919 1.386 . S
C918 C920 1.391 . S
C919 C918 1.386 . S
C919 C923 1.393 . S
C920 H909 0.950 . S
C920 C918 1.391 . S
C920 C921 1.400 . S
C921 C915 1.491 . S
C921 C920 1.400 . S
C921 C922 1.398 . S
C922 H910 0.950 . S
C922 C921 1.398 . S
C922 C923 1.391 . S
C923 H911 0.950 . S
C923 C919 1.393 . S
C923 C922 1.391 . S
H924 C932 0.950 . S
H925 C937 0.950 . S
H926 C934 0.950 . S
H927 C936 0.950 . S
H928 C938 0.950 . S
H929 C940 0.950 . S
H930 C942 0.950 . S
H931 C943 0.950 . S
C932 H924 0.950 . S
C932 C933 1.386 . S
C932 C934 1.391 . S
C933 C932 1.386 . S
C933 C937 1.393 . S
C934 H926 0.950 . S
C934 C932 1.391 . S
C934 C935 1.400 . S
C935 C934 1.400 . S
C935 C936 1.398 . S
C935 C941 1.491 . S
C936 H927 0.950 . S
C936 C935 1.398 . S
C936 C937 1.391 . S
C937 H925 0.950 . S
C937 C933 1.393 . S
C937 C936 1.391 . S
C938 H928 0.950 . S
C938 C939 1.386 . S
C938 C940 1.391 . S
C939 C938 1.386 . S
C939 C943 1.393 . S
C940 H929 0.950 . S
C940 C938 1.391 . S
C940 C941 1.400 . S
C941 C935 1.491 . S
C941 C940 1.400 . S
C941 C942 1.398 . S
C942 H930 0.950 . S
C942 C941 1.398 . S
C942 C943 1.391 . S
C943 H931 0.950 . S
C943 C939 1.393 . S
C943 C942 1.391 . S
H944 C952 0.950 . S
H945 C957 0.950 . S
H946 C954 0.950 . S
H947 C956 0.950 . S
H948 C958 0.950 . S
H949 C960 0.950 . S
H950 C962 0.950 . S
H951 C963 0.950 . S
C952 H944 0.950 . S
C952 C953 1.386 . S
C952 C954 1.391 . S
C953 C952 1.386 . S
C953 C957 1.393 . S
C954 H946 0.950 . S
C954 C952 1.391 . S
C954 C955 1.400 . S
C955 C954 1.400 . S
C955 C956 1.398 . S
C955 C961 1.491 . S
C956 H947 0.950 . S
C956 C955 1.398 . S
C956 C957 1.391 . S
C957 H945 0.950 . S
C957 C953 1.393 . S
C957 C956 1.391 . S
C958 H948 0.950 . S
C958 C959 1.386 . S
C958 C960 1.391 . S
C959 C958 1.386 . S
C959 C963 1.393 . S
C960 H949 0.950 . S
C960 C958 1.391 . S
C960 C961 1.400 . S
C961 C955 1.491 . S
C961 C960 1.400 . S
C961 C962 1.398 . S
C962 H950 0.950 . S
C962 C961 1.398 . S
C962 C963 1.391 . S
C963 H951 0.950 . S
C963 C959 1.393 . S
C963 C962 1.391 . S
H964 C972 0.950 . S
H965 C977 0.950 . S
H966 C974 0.950 . S
H967 C976 0.950 . S
H968 C978 0.950 . S
H969 C980 0.950 . S
H970 C982 0.950 . S
H971 C983 0.950 . S
C972 H964 0.950 . S
C972 C973 1.386 . S
C972 C974 1.391 . S
C973 C972 1.386 . S
C973 C977 1.393 . S
C974 H966 0.950 . S
C974 C972 1.391 . S
C974 C975 1.400 . S
C975 C974 1.400 . S
C975 C976 1.398 . S
C975 C981 1.491 . S
C976 H967 0.950 . S
C976 C975 1.398 . S
C976 C977 1.391 . S
C977 H965 0.950 . S
C977 C973 1.393 . S
C977 C976 1.391 . S
C978 H968 0.950 . S
C978 C979 1.386 . S
C978 C980 1.391 . S
C979 C978 1.386 . S
C979 C983 1.393 . S
C980 H969 0.950 . S
C980 C978 1.391 . S
C980 C981 1.400 . S
C981 C975 1.491 . S
C981 C980 1.400 . S
C981 C982 1.398 . S
C982 H970 0.950 . S
C982 C981 1.398 . S
C982 C983 1.391 . S
C983 H971 0.950 . S
C983 C979 1.393 . S
C983 C982 1.391 . S
H984 C992 0.950 . S
H985 C997 0.950 . S
H986 C994 0.950 . S
H987 C996 0.950 . S
H988 C998 0.950 . S
H989 C1000 0.950 . S
H990 C1002 0.950 . S
H991 C1003 0.950 . S
C992 H984 0.950 . S
C992 C993 1.386 . S
C992 C994 1.391 . S
C993 C992 1.386 . S
C993 C997 1.393 . S
C994 H986 0.950 . S
C994 C992 1.391 . S
C994 C995 1.400 . S
C995 C994 1.400 . S
C995 C996 1.398 . S
C995 C1001 1.491 . S
C996 H987 0.950 . S
C996 C995 1.398 . S
C996 C997 1.391 . S
C997 H985 0.950 . S
C997 C993 1.393 . S
C997 C996 1.391 . S
C998 H988 0.950 . S
C998 C999 1.386 . S
C998 C1000 1.391 . S
C999 C998 1.386 . S
C999 C1003 1.393 . S
C1000 H989 0.950 . S
C1000 C998 1.391 . S
C1000 C1001 1.400 . S
C1001 C995 1.491 . S
C1001 C1000 1.400 . S
C1001 C1002 1.398 . S
C1002 H990 0.950 . S
C1002 C1001 1.398 . S
C1002 C1003 1.391 . S
C1003 H991 0.950 . S
C1003 C999 1.393 . S
C1003 C1002 1.391 . S
H1004 C1012 0.950 . S
H1005 C1017 0.950 . S
H1006 C1014 0.950 . S
H1007 C1016 0.950 . S
H1008 C1018 0.950 . S
H1009 C1020 0.950 . S
H1010 C1022 0.950 . S
H1011 C1023 0.950 . S
C1012 H1004 0.950 . S
C1012 C1013 1.386 . S
C1012 C1014 1.391 . S
C1013 C1012 1.386 . S
C1013 C1017 1.393 . S
C1014 H1006 0.950 . S
C1014 C1012 1.391 . S
C1014 C1015 1.400 . S
C1015 C1014 1.400 . S
C1015 C1016 1.398 . S
C1015 C1021 1.491 . S
C1016 H1007 0.950 . S
C1016 C1015 1.398 . S
C1016 C1017 1.391 . S
C1017 H1005 0.950 . S
C1017 C1013 1.393 . S
C1017 C1016 1.391 . S
C1018 H1008 0.950 . S
C1018 C1019 1.386 . S
C1018 C1020 1.391 . S
C1019 C1018 1.386 . S
C1019 C1023 1.393 . S
C1020 H1009 0.950 . S
C1020 C1018 1.391 . S
C1020 C1021 1.400 . S
C1021 C1015 1.491 . S
C1021 C1020 1.400 . S
C1021 C1022 1.398 . S
C1022 H1010 0.950 . S
C1022 C1021 1.398 . S
C1022 C1023 1.391 . S
C1023 H1011 0.950 . S
C1023 C1019 1.393 . S
C1023 C1022 1.391 . S
H1024 C1032 0.950 . S
H1025 C1037 0.950 . S
H1026 C1034 0.950 . S
H1027 C1036 0.950 . S
H1028 C1038 0.950 . S
H1029 C1040 0.950 . S
H1030 C1042 0.950 . S
H1031 C1043 0.950 . S
C1032 H1024 0.950 . S
C1032 C1033 1.386 . S
C1032 C1034 1.391 . S
C1033 C1032 1.386 . S
C1033 C1037 1.393 . S
C1034 H1026 0.950 . S
C1034 C1032 1.391 . S
C1034 C1035 1.400 . S
C1035 C1034 1.400 . S
C1035 C1036 1.398 . S
C1035 C1041 1.491 . S
C1036 H1027 0.950 . S
C1036 C1035 1.398 . S
C1036 C1037 1.391 . S
C1037 H1025 0.950 . S
C1037 C1033 1.393 . S
C1037 C1036 1.391 . S
C1038 H1028 0.950 . S
C1038 C1039 1.386 . S
C1038 C1040 1.391 . S
C1039 C1038 1.386 . S
C1039 C1043 1.393 . S
C1040 H1029 0.950 . S
C1040 C1038 1.391 . S
C1040 C1041 1.400 . S
C1041 C1035 1.491 . S
C1041 C1040 1.400 . S
C1041 C1042 1.398 . S
C1042 H1030 0.950 . S
C1042 C1041 1.398 . S
C1042 C1043 1.391 . S
C1043 H1031 0.950 . S
C1043 C1039 1.393 . S
C1043 C1042 1.391 . S
H1044 C1052 0.950 . S
H1045 C1057 0.950 . S
H1046 C1054 0.950 . S
H1047 C1056 0.950 . S
H1048 C1058 0.950 . S
H1049 C1060 0.950 . S
H1050 C1062 0.950 . S
H1051 C1063 0.950 . S
C1052 H1044 0.950 . S
C1052 C1053 1.386 . S
C1052 C1054 1.391 . S
C1053 C1052 1.386 . S
C1053 C1057 1.393 . S
C1054 H1046 0.950 . S
C1054 C1052 1.391 . S
C1054 C1055 1.400 . S
C1055 C1054 1.400 . S
C1055 C1056 1.398 . S
C1055 C1061 1.491 . S
C1056 H1047 0.950 . S
C1056 C1055 1.398 . S
C1056 C1057 1.391 . S
C1057 H1045 0.950 . S
C1057 C1053 1.393 . S
C1057 C1056 1.391 . S
C1058 H1048 0.950 . S
C1058 C1059 1.386 . S
C1058 C1060 1.391 . S
C1059 C1058 1.386 . S
C1059 C1063 1.393 . S
C1060 H1049 0.950 . S
C1060 C1058 1.391 . S
C1060 C1061 1.400 . S
C1061 C1055 1.491 . S
C1061 C1060 1.400 . S
C1061 C1062 1.398 . S
C1062 H1050 0.950 . S
C1062 C1061 1.398 . S
C1062 C1063 1.391 . S
C1063 H1051 0.950 . S
C1063 C1059 1.393 . S
C1063 C1062 1.391 . S
H1064 C1072 0.950 . S
H1065 C1077 0.950 . S
H1066 C1074 0.950 . S
H1067 C1076 0.950 . S
H1068 C1078 0.950 . S
H1069 C1080 0.950 . S
H1070 C1082 0.950 . S
H1071 C1083 0.950 . S
C1072 H1064 0.950 . S
C1072 C1073 1.386 . S
C1072 C1074 1.391 . S
C1073 C1072 1.386 . S
C1073 C1077 1.393 . S
C1074 H1066 0.950 . S
C1074 C1072 1.391 . S
C1074 C1075 1.400 . S
C1075 C1074 1.400 . S
C1075 C1076 1.398 . S
C1075 C1081 1.491 . S
C1076 H1067 0.950 . S
C1076 C1075 1.398 . S
C1076 C1077 1.391 . S
C1077 H1065 0.950 . S
C1077 C1073 1.393 . S
C1077 C1076 1.391 . S
C1078 H1068 0.950 . S
C1078 C1079 1.386 . S
C1078 C1080 1.391 . S
C1079 C1078 1.386 . S
C1079 C1083 1.393 . S
C1080 H1069 0.950 . S
C1080 C1078 1.391 . S
C1080 C1081 1.400 . S
C1081 C1075 1.491 . S
C1081 C1080 1.400 . S
C1081 C1082 1.398 . S
C1082 H1070 0.950 . S
C1082 C1081 1.398 . S
C1082 C1083 1.391 . S
C1083 H1071 0.950 . S
C1083 C1079 1.393 . S
C1083 C1082 1.391 . S
H1084 C1092 0.950 . S
H1085 C1097 0.950 . S
H1086 C1094 0.950 . S
H1087 C1096 0.950 . S
H1088 C1098 0.950 . S
H1089 C1100 0.950 . S
H1090 C1102 0.950 . S
H1091 C1103 0.950 . S
C1092 H1084 0.950 . S
C1092 C1093 1.386 . S
C1092 C1094 1.391 . S
C1093 C1092 1.386 . S
C1093 C1097 1.393 . S
C1094 H1086 0.950 . S
C1094 C1092 1.391 . S
C1094 C1095 1.400 . S
C1095 C1094 1.400 . S
C1095 C1096 1.398 . S
C1095 C1101 1.491 . S
C1096 H1087 0.950 . S
C1096 C1095 1.398 . S
C1096 C1097 1.391 . S
C1097 H1085 0.950 . S
C1097 C1093 1.393 . S
C1097 C1096 1.391 . S
C1098 H1088 0.950 . S
C1098 C1099 1.386 . S
C1098 C1100 1.391 . S
C1099 C1098 1.386 . S
C1099 C1103 1.393 . S
C1100 H1089 0.950 . S
C1100 C1098 1.391 . S
C1100 C1101 1.400 . S
C1101 C1095 1.491 . S
C1101 C1100 1.400 . S
C1101 C1102 1.398 . S
C1102 H1090 0.950 . S
C1102 C1101 1.398 . S
C1102 C1103 1.391 . S
C1103 H1091 0.950 . S
C1103 C1099 1.393 . S
C1103 C1102 1.391 . S
H1104 C1112 0.950 . S
H1105 C1117 0.950 . S
H1106 C1114 0.950 . S
H1107 C1116 0.950 . S
H1108 C1118 0.950 . S
H1109 C1120 0.950 . S
H1110 C1122 0.950 . S
H1111 C1123 0.950 . S
C1112 H1104 0.950 . S
C1112 C1113 1.386 . S
C1112 C1114 1.391 . S
C1113 C1112 1.386 . S
C1113 C1117 1.393 . S
C1114 H1106 0.950 . S
C1114 C1112 1.391 . S
C1114 C1115 1.400 . S
C1115 C1114 1.400 . S
C1115 C1116 1.398 . S
C1115 C1121 1.491 . S
C1116 H1107 0.950 . S
C1116 C1115 1.398 . S
C1116 C1117 1.391 . S
C1117 H1105 0.950 . S
C1117 C1113 1.393 . S
C1117 C1116 1.391 . S
C1118 H1108 0.950 . S
C1118 C1119 1.386 . S
C1118 C1120 1.391 . S
C1119 C1118 1.386 . S
C1119 C1123 1.393 . S
C1120 H1109 0.950 . S
C1120 C1118 1.391 . S
C1120 C1121 1.400 . S
C1121 C1115 1.491 . S
C1121 C1120 1.400 . S
C1121 C1122 1.398 . S
C1122 H1110 0.950 . S
C1122 C1121 1.398 . S
C1122 C1123 1.391 . S
C1123 H1111 0.950 . S
C1123 C1119 1.393 . S
C1123 C1122 1.391 . S
H1124 C1132 0.950 . S
H1125 C1137 0.950 . S
H1126 C1134 0.950 . S
H1127 C1136 0.950 . S
H1128 C1138 0.950 . S
H1129 C1140 0.950 . S
H1130 C1142 0.950 . S
H1131 C1143 0.950 . S
C1132 H1124 0.950 . S
C1132 C1133 1.386 . S
C1132 C1134 1.391 . S
C1133 C1132 1.386 . S
C1133 C1137 1.393 . S
C1134 H1126 0.950 . S
C1134 C1132 1.391 . S
C1134 C1135 1.400 . S
C1135 C1134 1.400 . S
C1135 C1136 1.398 . S
C1135 C1141 1.491 . S
C1136 H1127 0.950 . S
C1136 C1135 1.398 . S
C1136 C1137 1.391 . S
C1137 H1125 0.950 . S
C1137 C1133 1.393 . S
C1137 C1136 1.391 . S
C1138 H1128 0.950 . S
C1138 C1139 1.386 . S
C1138 C1140 1.391 . S
C1139 C1138 1.386 . S
C1139 C1143 1.393 . S
C1140 H1129 0.950 . S
C1140 C1138 1.391 . S
C1140 C1141 1.400 . S
C1141 C1135 1.491 . S
C1141 C1140 1.400 . S
C1141 C1142 1.398 . S
C1142 H1130 0.950 . S
C1142 C1141 1.398 . S
C1142 C1143 1.391 . S
C1143 H1131 0.950 . S
C1143 C1139 1.393 . S
C1143 C1142 1.391 . S
H1144 C1152 0.950 . S
H1145 C1157 0.950 . S
H1146 C1154 0.950 . S
H1147 C1156 0.950 . S
H1148 C1158 0.950 . S
H1149 C1160 0.950 . S
H1150 C1162 0.950 . S
H1151 C1163 0.950 . S
C1152 H1144 0.950 . S
C1152 C1153 1.386 . S
C1152 C1154 1.391 . S
C1153 C1152 1.386 . S
C1153 C1157 1.393 . S
C1154 H1146 0.950 . S
C1154 C1152 1.391 . S
C1154 C1155 1.400 . S
C1155 C1154 1.400 . S
C1155 C1156 1.398 . S
C1155 C1161 1.491 . S
C1156 H1147 0.950 . S
C1156 C1155 1.398 . S
C1156 C1157 1.391 . S
C1157 H1145 0.950 . S
C1157 C1153 1.393 . S
C1157 C1156 1.391 . S
C1158 H1148 0.950 . S
C1158 C1159 1.386 . S
C1158 C1160 1.391 . S
C1159 C1158 1.386 . S
C1159 C1163 1.393 . S
C1160 H1149 0.950 . S
C1160 C1158 1.391 . S
C1160 C1161 1.400 . S
C1161 C1155 1.491 . S
C1161 C1160 1.400 . S
C1161 C1162 1.398 . S
C1162 H1150 0.950 . S
C1162 C1161 1.398 . S
C1162 C1163 1.391 . S
C1163 H1151 0.950 . S
C1163 C1159 1.393 . S
C1163 C1162 1.391 . S
H1164 C1172 0.950 . S
H1165 C1177 0.950 . S
H1166 C1174 0.950 . S
H1167 C1176 0.950 . S
H1168 C1178 0.950 . S
H1169 C1180 0.950 . S
H1170 C1182 0.950 . S
H1171 C1183 0.950 . S
C1172 H1164 0.950 . S
C1172 C1173 1.386 . S
C1172 C1174 1.391 . S
C1173 C1172 1.386 . S
C1173 C1177 1.393 . S
C1174 H1166 0.950 . S
C1174 C1172 1.391 . S
C1174 C1175 1.400 . S
C1175 C1174 1.400 . S
C1175 C1176 1.398 . S
C1175 C1181 1.491 . S
C1176 H1167 0.950 . S
C1176 C1175 1.398 . S
C1176 C1177 1.391 . S
C1177 H1165 0.950 . S
C1177 C1173 1.393 . S
C1177 C1176 1.391 . S
C1178 H1168 0.950 . S
C1178 C1179 1.386 . S
C1178 C1180 1.391 . S
C1179 C1178 1.386 . S
C1179 C1183 1.393 . S
C1180 H1169 0.950 . S
C1180 C1178 1.391 . S
C1180 C1181 1.400 . S
C1181 C1175 1.491 . S
C1181 C1180 1.400 . S
C1181 C1182 1.398 . S
C1182 H1170 0.950 . S
C1182 C1181 1.398 . S
C1182 C1183 1.391 . S
C1183 H1171 0.950 . S
C1183 C1179 1.393 . S
C1183 C1182 1.391 . S
H1184 C1192 0.950 . S
H1185 C1197 0.950 . S
H1186 C1194 0.950 . S
H1187 C1196 0.950 . S
H1188 C1198 0.950 . S
H1189 C1200 0.950 . S
H1190 C1202 0.950 . S
H1191 C1203 0.950 . S
C1192 H1184 0.950 . S
C1192 C1193 1.386 . S
C1192 C1194 1.391 . S
C1193 C1192 1.386 . S
C1193 C1197 1.393 . S
C1194 H1186 0.950 . S
C1194 C1192 1.391 . S
C1194 C1195 1.400 . S
C1195 C1194 1.400 . S
C1195 C1196 1.398 . S
C1195 C1201 1.491 . S
C1196 H1187 0.950 . S
C1196 C1195 1.398 . S
C1196 C1197 1.391 . S
C1197 H1185 0.950 . S
C1197 C1193 1.393 . S
C1197 C1196 1.391 . S
C1198 H1188 0.950 . S
C1198 C1199 1.386 . S
C1198 C1200 1.391 . S
C1199 C1198 1.386 . S
C1199 C1203 1.393 . S
C1200 H1189 0.950 . S
C1200 C1198 1.391 . S
C1200 C1201 1.400 . S
C1201 C1195 1.491 . S
C1201 C1200 1.400 . S
C1201 C1202 1.398 . S
C1202 H1190 0.950 . S
C1202 C1201 1.398 . S
C1202 C1203 1.391 . S
C1203 H1191 0.950 . S
C1203 C1199 1.393 . S
C1203 C1202 1.391 . S
H1204 C1212 0.950 . S
H1205 C1217 0.950 . S
H1206 C1214 0.950 . S
H1207 C1216 0.950 . S
H1208 C1218 0.950 . S
H1209 C1220 0.950 . S
H1210 C1222 0.950 . S
H1211 C1223 0.950 . S
C1212 H1204 0.950 . S
C1212 C1213 1.386 . S
C1212 C1214 1.391 . S
C1213 C1212 1.386 . S
C1213 C1217 1.393 . S
C1214 H1206 0.950 . S
C1214 C1212 1.391 . S
C1214 C1215 1.400 . S
C1215 C1214 1.400 . S
C1215 C1216 1.398 . S
C1215 C1221 1.491 . S
C1216 H1207 0.950 . S
C1216 C1215 1.398 . S
C1216 C1217 1.391 . S
C1217 H1205 0.950 . S
C1217 C1213 1.393 . S
C1217 C1216 1.391 . S
C1218 H1208 0.950 . S
C1218 C1219 1.386 . S
C1218 C1220 1.391 . S
C1219 C1218 1.386 . S
C1219 C1223 1.393 . S
C1220 H1209 0.950 . S
C1220 C1218 1.391 . S
C1220 C1221 1.400 . S
C1221 C1215 1.491 . S
C1221 C1220 1.400 . S
C1221 C1222 1.398 . S
C1222 H1210 0.950 . S
C1222 C1221 1.398 . S
C1222 C1223 1.391 . S
C1223 H1211 0.950 . S
C1223 C1219 1.393 . S
C1223 C1222 1.391 . S
H1224 C1232 0.950 . S
H1225 C1237 0.950 . S
H1226 C1234 0.950 . S
H1227 C1236 0.950 . S
H1228 C1238 0.950 . S
H1229 C1240 0.950 . S
H1230 C1242 0.950 . S
H1231 C1243 0.950 . S
C1232 H1224 0.950 . S
C1232 C1233 1.386 . S
C1232 C1234 1.391 . S
C1233 C1232 1.386 . S
C1233 C1237 1.393 . S
C1234 H1226 0.950 . S
C1234 C1232 1.391 . S
C1234 C1235 1.400 . S
C1235 C1234 1.400 . S
C1235 C1236 1.398 . S
C1235 C1241 1.491 . S
C1236 H1227 0.950 . S
C1236 C1235 1.398 . S
C1236 C1237 1.391 . S
C1237 H1225 0.950 . S
C1237 C1233 1.393 . S
C1237 C1236 1.391 . S
C1238 H1228 0.950 . S
C1238 C1239 1.386 . S
C1238 C1240 1.391 . S
C1239 C1238 1.386 . S
C1239 C1243 1.393 . S
C1240 H1229 0.950 . S
C1240 C1238 1.391 . S
C1240 C1241 1.400 . S
C1241 C1235 1.491 . S
C1241 C1240 1.400 . S
C1241 C1242 1.398 . S
C1242 H1230 0.950 . S
C1242 C1241 1.398 . S
C1242 C1243 1.391 . S
C1243 H1231 0.950 . S
C1243 C1239 1.393 . S
C1243 C1242 1.391 . S
H1244 C1252 0.950 . S
H1245 C1257 0.950 . S
H1246 C1254 0.950 . S
H1247 C1256 0.950 . S
H1248 C1258 0.950 . S
H1249 C1260 0.950 . S
H1250 C1262 0.950 . S
H1251 C1263 0.950 . S
C1252 H1244 0.950 . S
C1252 C1253 1.386 . S
C1252 C1254 1.391 . S
C1253 C1252 1.386 . S
C1253 C1257 1.393 . S
C1254 H1246 0.950 . S
C1254 C1252 1.391 . S
C1254 C1255 1.400 . S
C1255 C1254 1.400 . S
C1255 C1256 1.398 . S
C1255 C1261 1.491 . S
C1256 H1247 0.950 . S
C1256 C1255 1.398 . S
C1256 C1257 1.391 . S
C1257 H1245 0.950 . S
C1257 C1253 1.393 . S
C1257 C1256 1.391 . S
C1258 H1248 0.950 . S
C1258 C1259 1.386 . S
C1258 C1260 1.391 . S
C1259 C1258 1.386 . S
C1259 C1263 1.393 . S
C1260 H1249 0.950 . S
C1260 C1258 1.391 . S
C1260 C1261 1.400 . S
C1261 C1255 1.491 . S
C1261 C1260 1.400 . S
C1261 C1262 1.398 . S
C1262 H1250 0.950 . S
C1262 C1261 1.398 . S
C1262 C1263 1.391 . S
C1263 H1251 0.950 . S
C1263 C1259 1.393 . S
C1263 C1262 1.391 . S
H1264 C1272 0.950 . S
H1265 C1277 0.950 . S
H1266 C1274 0.950 . S
H1267 C1276 0.950 . S
H1268 C1278 0.950 . S
H1269 C1280 0.950 . S
H1270 C1282 0.950 . S
H1271 C1283 0.950 . S
C1272 H1264 0.950 . S
C1272 C1273 1.386 . S
C1272 C1274 1.391 . S
C1273 C1272 1.386 . S
C1273 C1277 1.393 . S
C1274 H1266 0.950 . S
C1274 C1272 1.391 . S
C1274 C1275 1.400 . S
C1275 C1274 1.400 . S
C1275 C1276 1.398 . S
C1275 C1281 1.491 . S
C1276 H1267 0.950 . S
C1276 C1275 1.398 . S
C1276 C1277 1.391 . S
C1277 H1265 0.950 . S
C1277 C1273 1.393 . S
C1277 C1276 1.391 . S
C1278 H1268 0.950 . S
C1278 C1279 1.386 . S
C1278 C1280 1.391 . S
C1279 C1278 1.386 . S
C1279 C1283 1.393 . S
C1280 H1269 0.950 . S
C1280 C1278 1.391 . S
C1280 C1281 1.400 . S
C1281 C1275 1.491 . S
C1281 C1280 1.400 . S
C1281 C1282 1.398 . S
C1282 H1270 0.950 . S
C1282 C1281 1.398 . S
C1282 C1283 1.391 . S
C1283 H1271 0.950 . S
C1283 C1279 1.393 . S
C1283 C1282 1.391 . S
H1284 C1292 0.950 . S
H1285 C1297 0.950 . S
H1286 C1294 0.950 . S
H1287 C1296 0.950 . S
H1288 C1298 0.950 . S
H1289 C1300 0.950 . S
H1290 C1302 0.950 . S
H1291 C1303 0.950 . S
C1292 H1284 0.950 . S
C1292 C1293 1.386 . S
C1292 C1294 1.391 . S
C1293 C1292 1.386 . S
C1293 C1297 1.393 . S
C1294 H1286 0.950 . S
C1294 C1292 1.391 . S
C1294 C1295 1.400 . S
C1295 C1294 1.400 . S
C1295 C1296 1.398 . S
C1295 C1301 1.491 . S
C1296 H1287 0.950 . S
C1296 C1295 1.398 . S
C1296 C1297 1.391 . S
C1297 H1285 0.950 . S
C1297 C1293 1.393 . S
C1297 C1296 1.391 . S
C1298 H1288 0.950 . S
C1298 C1299 1.386 . S
C1298 C1300 1.391 . S
C1299 C1298 1.386 . S
C1299 C1303 1.393 . S
C1300 H1289 0.950 . S
C1300 C1298 1.391 . S
C1300 C1301 1.400 . S
C1301 C1295 1.491 . S
C1301 C1300 1.400 . S
C1301 C1302 1.398 . S
C1302 H1290 0.950 . S
C1302 C1301 1.398 . S
C1302 C1303 1.391 . S
C1303 H1291 0.950 . S
C1303 C1299 1.393 . S
C1303 C1302 1.391 . S
H1304 C1312 0.950 . S
H1305 C1317 0.950 . S
H1306 C1314 0.950 . S
H1307 C1316 0.950 . S
H1308 C1318 0.950 . S
H1309 C1320 0.950 . S
H1310 C1322 0.950 . S
H1311 C1323 0.950 . S
C1312 H1304 0.950 . S
C1312 C1313 1.386 . S
C1312 C1314 1.391 . S
C1313 C1312 1.386 . S
C1313 C1317 1.393 . S
C1314 H1306 0.950 . S
C1314 C1312 1.391 . S
C1314 C1315 1.400 . S
C1315 C1314 1.400 . S
C1315 C1316 1.398 . S
C1315 C1321 1.491 . S
C1316 H1307 0.950 . S
C1316 C1315 1.398 . S
C1316 C1317 1.391 . S
C1317 H1305 0.950 . S
C1317 C1313 1.393 . S
C1317 C1316 1.391 . S
C1318 H1308 0.950 . S
C1318 C1319 1.386 . S
C1318 C1320 1.391 . S
C1319 C1318 1.386 . S
C1319 C1323 1.393 . S
C1320 H1309 0.950 . S
C1320 C1318 1.391 . S
C1320 C1321 1.400 . S
C1321 C1315 1.491 . S
C1321 C1320 1.400 . S
C1321 C1322 1.398 . S
C1322 H1310 0.950 . S
C1322 C1321 1.398 . S
C1322 C1323 1.391 . S
C1323 H1311 0.950 . S
C1323 C1319 1.393 . S
C1323 C1322 1.391 . S
H1324 C1332 0.950 . S
H1325 C1337 0.950 . S
H1326 C1334 0.950 . S
H1327 C1336 0.950 . S
H1328 C1338 0.950 . S
H1329 C1340 0.950 . S
H1330 C1342 0.950 . S
H1331 C1343 0.950 . S
C1332 H1324 0.950 . S
C1332 C1333 1.386 . S
C1332 C1334 1.391 . S
C1333 C1332 1.386 . S
C1333 C1337 1.393 . S
C1334 H1326 0.950 . S
C1334 C1332 1.391 . S
C1334 C1335 1.400 . S
C1335 C1334 1.400 . S
C1335 C1336 1.398 . S
C1335 C1341 1.491 . S
C1336 H1327 0.950 . S
C1336 C1335 1.398 . S
C1336 C1337 1.391 . S
C1337 H1325 0.950 . S
C1337 C1333 1.393 . S
C1337 C1336 1.391 . S
C1338 H1328 0.950 . S
C1338 C1339 1.386 . S
C1338 C1340 1.391 . S
C1339 C1338 1.386 . S
C1339 C1343 1.393 . S
C1340 H1329 0.950 . S
C1340 C1338 1.391 . S
C1340 C1341 1.400 . S
C1341 C1335 1.491 . S
C1341 C1340 1.400 . S
C1341 C1342 1.398 . S
C1342 H1330 0.950 . S
C1342 C1341 1.398 . S
C1342 C1343 1.391 . S
C1343 H1331 0.950 . S
C1343 C1339 1.393 . S
C1343 C1342 1.391 . S
H1344 C1352 0.950 . S
H1345 C1357 0.950 . S
H1346 C1354 0.950 . S
H1347 C1356 0.950 . S
H1348 C1358 0.950 . S
H1349 C1360 0.950 . S
H1350 C1362 0.950 . S
H1351 C1363 0.950 . S
C1352 H1344 0.950 . S
C1352 C1353 1.386 . S
C1352 C1354 1.391 . S
C1353 C1352 1.386 . S
C1353 C1357 1.393 . S
C1354 H1346 0.950 . S
C1354 C1352 1.391 . S
C1354 C1355 1.400 . S
C1355 C1354 1.400 . S
C1355 C1356 1.398 . S
C1355 C1361 1.491 . S
C1356 H1347 0.950 . S
C1356 C1355 1.398 . S
C1356 C1357 1.391 . S
C1357 H1345 0.950 . S
C1357 C1353 1.393 . S
C1357 C1356 1.391 . S
C1358 H1348 0.950 . S
C1358 C1359 1.386 . S
C1358 C1360 1.391 . S
C1359 C1358 1.386 . S
C1359 C1363 1.393 . S
C1360 H1349 0.950 . S
C1360 C1358 1.391 . S
C1360 C1361 1.400 . S
C1361 C1355 1.491 . S
C1361 C1360 1.400 . S
C1361 C1362 1.398 . S
C1362 H1350 0.950 . S
C1362 C1361 1.398 . S
C1362 C1363 1.391 . S
C1363 H1351 0.950 . S
C1363 C1359 1.393 . S
C1363 C1362 1.391 . S
H1364 C1372 0.950 . S
H1365 C1377 0.950 . S
H1366 C1374 0.950 . S
H1367 C1376 0.950 . S
H1368 C1378 0.950 . S
H1369 C1380 0.950 . S
H1370 C1382 0.950 . S
H1371 C1383 0.950 . S
C1372 H1364 0.950 . S
C1372 C1373 1.386 . S
C1372 C1374 1.391 . S
C1373 C1372 1.386 . S
C1373 C1377 1.393 . S
C1374 H1366 0.950 . S
C1374 C1372 1.391 . S
C1374 C1375 1.400 . S
C1375 C1374 1.400 . S
C1375 C1376 1.398 . S
C1375 C1381 1.491 . S
C1376 H1367 0.950 . S
C1376 C1375 1.398 . S
C1376 C1377 1.391 . S
C1377 H1365 0.950 . S
C1377 C1373 1.393 . S
C1377 C1376 1.391 . S
C1378 H1368 0.950 . S
C1378 C1379 1.386 . S
C1378 C1380 1.391 . S
C1379 C1378 1.386 . S
C1379 C1383 1.393 . S
C1380 H1369 0.950 . S
C1380 C1378 1.391 . S
C1380 C1381 1.400 . S
C1381 C1375 1.491 . S
C1381 C1380 1.400 . S
C1381 C1382 1.398 . S
C1382 H1370 0.950 . S
C1382 C1381 1.398 . S
C1382 C1383 1.391 . S
C1383 H1371 0.950 . S
C1383 C1379 1.393 . S
C1383 C1382 1.391 . S
H1384 C1392 0.950 . S
H1385 C1397 0.950 . S
H1386 C1394 0.950 . S
H1387 C1396 0.950 . S
H1388 C1398 0.950 . S
H1389 C1400 0.950 . S
H1390 C1402 0.950 . S
H1391 C1403 0.950 . S
C1392 H1384 0.950 . S
C1392 C1393 1.386 . S
C1392 C1394 1.391 . S
C1393 C1392 1.386 . S
C1393 C1397 1.393 . S
C1394 H1386 0.950 . S
C1394 C1392 1.391 . S
C1394 C1395 1.400 . S
C1395 C1394 1.400 . S
C1395 C1396 1.398 . S
C1395 C1401 1.491 . S
C1396 H1387 0.950 . S
C1396 C1395 1.398 . S
C1396 C1397 1.391 . S
C1397 H1385 0.950 . S
C1397 C1393 1.393 . S
C1397 C1396 1.391 . S
C1398 H1388 0.950 . S
C1398 C1399 1.386 . S
C1398 C1400 1.391 . S
C1399 C1398 1.386 . S
C1399 C1403 1.393 . S
C1400 H1389 0.950 . S
C1400 C1398 1.391 . S
C1400 C1401 1.400 . S
C1401 C1395 1.491 . S
C1401 C1400 1.400 . S
C1401 C1402 1.398 . S
C1402 H1390 0.950 . S
C1402 C1401 1.398 . S
C1402 C1403 1.391 . S
C1403 H1391 0.950 . S
C1403 C1399 1.393 . S
C1403 C1402 1.391 . S
H1404 C1412 0.950 . S
H1405 C1417 0.950 . S
H1406 C1414 0.950 . S
H1407 C1416 0.950 . S
H1408 C1418 0.950 . S
H1409 C1420 0.950 . S
H1410 C1422 0.950 . S
H1411 C1423 0.950 . S
C1412 H1404 0.950 . S
C1412 C1413 1.386 . S
C1412 C1414 1.391 . S
C1413 C1412 1.386 . S
C1413 C1417 1.393 . S
C1414 H1406 0.950 . S
C1414 C1412 1.391 . S
C1414 C1415 1.400 . S
C1415 C1414 1.400 . S
C1415 C1416 1.398 . S
C1415 C1421 1.491 . S
C1416 H1407 0.950 . S
C1416 C1415 1.398 . S
C1416 C1417 1.391 . S
C1417 H1405 0.950 . S
C1417 C1413 1.393 . S
C1417 C1416 1.391 . S
C1418 H1408 0.950 . S
C1418 C1419 1.386 . S
C1418 C1420 1.391 . S
C1419 C1418 1.386 . S
C1419 C1423 1.393 . S
C1420 H1409 0.950 . S
C1420 C1418 1.391 . S
C1420 C1421 1.400 . S
C1421 C1415 1.491 . S
C1421 C1420 1.400 . S
C1421 C1422 1.398 . S
C1422 H1410 0.950 . S
C1422 C1421 1.398 . S
C1422 C1423 1.391 . S
C1423 H1411 0.950 . S
C1423 C1419 1.393 . S
C1423 C1422 1.391 . S
H1424 C1432 0.950 . S
H1425 C1437 0.950 . S
H1426 C1434 0.950 . S
H1427 C1436 0.950 . S
H1428 C1438 0.950 . S
H1429 C1440 0.950 . S
H1430 C1442 0.950 . S
H1431 C1443 0.950 . S
C1432 H1424 0.950 . S
C1432 C1433 1.386 . S
C1432 C1434 1.391 . S
C1433 C1432 1.386 . S
C1433 C1437 1.393 . S
C1434 H1426 0.950 . S
C1434 C1432 1.391 . S
C1434 C1435 1.400 . S
C1435 C1434 1.400 . S
C1435 C1436 1.398 . S
C1435 C1441 1.491 . S
C1436 H1427 0.950 . S
C1436 C1435 1.398 . S
C1436 C1437 1.391 . S
C1437 H1425 0.950 . S
C1437 C1433 1.393 . S
C1437 C1436 1.391 . S
C1438 H1428 0.950 . S
C1438 C1439 1.386 . S
C1438 C1440 1.391 . S
C1439 C1438 1.386 . S
C1439 C1443 1.393 . S
C1440 H1429 0.950 . S
C1440 C1438 1.391 . S
C1440 C1441 1.400 . S
C1441 C1435 1.491 . S
C1441 C1440 1.400 . S
C1441 C1442 1.398 . S
C1442 H1430 0.950 . S
C1442 C1441 1.398 . S
C1442 C1443 1.391 . S
C1443 H1431 0.950 . S
C1443 C1439 1.393 . S
C1443 C1442 1.391 . S
H1444 C1452 0.950 . S
H1445 C1457 0.950 . S
H1446 C1454 0.950 . S
H1447 C1456 0.950 . S
H1448 C1458 0.950 . S
H1449 C1460 0.950 . S
H1450 C1462 0.950 . S
H1451 C1463 0.950 . S
C1452 H1444 0.950 . S
C1452 C1453 1.386 . S
C1452 C1454 1.391 . S
C1453 C1452 1.386 . S
C1453 C1457 1.393 . S
C1454 H1446 0.950 . S
C1454 C1452 1.391 . S
C1454 C1455 1.400 . S
C1455 C1454 1.400 . S
C1455 C1456 1.398 . S
C1455 C1461 1.491 . S
C1456 H1447 0.950 . S
C1456 C1455 1.398 . S
C1456 C1457 1.391 . S
C1457 H1445 0.950 . S
C1457 C1453 1.393 . S
C1457 C1456 1.391 . S
C1458 H1448 0.950 . S
C1458 C1459 1.386 . S
C1458 C1460 1.391 . S
C1459 C1458 1.386 . S
C1459 C1463 1.393 . S
C1460 H1449 0.950 . S
C1460 C1458 1.391 . S
C1460 C1461 1.400 . S
C1461 C1455 1.491 . S
C1461 C1460 1.400 . S
C1461 C1462 1.398 . S
C1462 H1450 0.950 . S
C1462 C1461 1.398 . S
C1462 C1463 1.391 . S
C1463 H1451 0.950 . S
C1463 C1459 1.393 . S
C1463 C1462 1.391 . S
H1464 C1472 0.950 . S
H1465 C1477 0.950 . S
H1466 C1474 0.950 . S
H1467 C1476 0.950 . S
H1468 C1478 0.950 . S
H1469 C1480 0.950 . S
H1470 C1482 0.950 . S
H1471 C1483 0.950 . S
C1472 H1464 0.950 . S
C1472 C1473 1.386 . S
C1472 C1474 1.391 . S
C1473 C1472 1.386 . S
C1473 C1477 1.393 . S
C1474 H1466 0.950 . S
C1474 C1472 1.391 . S
C1474 C1475 1.400 . S
C1475 C1474 1.400 . S
C1475 C1476 1.398 . S
C1475 C1481 1.491 . S
C1476 H1467 0.950 . S
C1476 C1475 1.398 . S
C1476 C1477 1.391 . S
C1477 H1465 0.950 . S
C1477 C1473 1.393 . S
C1477 C1476 1.391 . S
C1478 H1468 0.950 . S
C1478 C1479 1.386 . S
C1478 C1480 1.391 . S
C1479 C1478 1.386 . S
C1479 C1483 1.393 . S
C1480 H1469 0.950 . S
C1480 C1478 1.391 . S
C1480 C1481 1.400 . S
C1481 C1475 1.491 . S
C1481 C1480 1.400 . S
C1481 C1482 1.398 . S
C1482 H1470 0.950 . S
C1482 C1481 1.398 . S
C1482 C1483 1.391 . S
C1483 H1471 0.950 . S
C1483 C1479 1.393 . S
C1483 C1482 1.391 . S
H1484 C1492 0.950 . S
H1485 C1497 0.950 . S
H1486 C1494 0.950 . S
H1487 C1496 0.950 . S
H1488 C1498 0.950 . S
H1489 C1500 0.950 . S
H1490 C1502 0.950 . S
H1491 C1503 0.950 . S
C1492 H1484 0.950 . S
C1492 C1493 1.386 . S
C1492 C1494 1.391 . S
C1493 C1492 1.386 . S
C1493 C1497 1.393 . S
C1494 H1486 0.950 . S
C1494 C1492 1.391 . S
C1494 C1495 1.400 . S
C1495 C1494 1.400 . S
C1495 C1496 1.398 . S
C1495 C1501 1.491 . S
C1496 H1487 0.950 . S
C1496 C1495 1.398 . S
C1496 C1497 1.391 . S
C1497 H1485 0.950 . S
C1497 C1493 1.393 . S
C1497 C1496 1.391 . S
C1498 H1488 0.950 . S
C1498 C1499 1.386 . S
C1498 C1500 1.391 . S
C1499 C1498 1.386 . S
C1499 C1503 1.393 . S
C1500 H1489 0.950 . S
C1500 C1498 1.391 . S
C1500 C1501 1.400 . S
C1501 C1495 1.491 . S
C1501 C1500 1.400 . S
C1501 C1502 1.398 . S
C1502 H1490 0.950 . S
C1502 C1501 1.398 . S
C1502 C1503 1.391 . S
C1503 H1491 0.950 . S
C1503 C1499 1.393 . S
C1503 C1502 1.391 . S
H1504 C1512 0.950 . S
H1505 C1517 0.950 . S
H1506 C1514 0.950 . S
H1507 C1516 0.950 . S
H1508 C1518 0.950 . S
H1509 C1520 0.950 . S
H1510 C1522 0.950 . S
H1511 C1523 0.950 . S
C1512 H1504 0.950 . S
C1512 C1513 1.386 . S
C1512 C1514 1.391 . S
C1513 C1512 1.386 . S
C1513 C1517 1.393 . S
C1514 H1506 0.950 . S
C1514 C1512 1.391 . S
C1514 C1515 1.400 . S
C1515 C1514 1.400 . S
C1515 C1516 1.398 . S
C1515 C1521 1.491 . S
C1516 H1507 0.950 . S
C1516 C1515 1.398 . S
C1516 C1517 1.391 . S
C1517 H1505 0.950 . S
C1517 C1513 1.393 . S
C1517 C1516 1.391 . S
C1518 H1508 0.950 . S
C1518 C1519 1.386 . S
C1518 C1520 1.391 . S
C1519 C1518 1.386 . S
C1519 C1523 1.393 . S
C1520 H1509 0.950 . S
C1520 C1518 1.391 . S
C1520 C1521 1.400 . S
C1521 C1515 1.491 . S
C1521 C1520 1.400 . S
C1521 C1522 1.398 . S
C1522 H1510 0.950 . S
C1522 C1521 1.398 . S
C1522 C1523 1.391 . S
C1523 H1511 0.950 . S
C1523 C1519 1.393 . S
C1523 C1522 1.391 . S
H1524 C1532 0.950 . S
H1525 C1537 0.950 . S
H1526 C1534 0.950 . S
H1527 C1536 0.950 . S
H1528 C1538 0.950 . S
H1529 C1540 0.950 . S
H1530 C1542 0.950 . S
H1531 C1543 0.950 . S
C1532 H1524 0.950 . S
C1532 C1533 1.386 . S
C1532 C1534 1.391 . S
C1533 C1532 1.386 . S
C1533 C1537 1.393 . S
C1534 H1526 0.950 . S
C1534 C1532 1.391 . S
C1534 C1535 1.400 . S
C1535 C1534 1.400 . S
C1535 C1536 1.398 . S
C1535 C1541 1.491 . S
C1536 H1527 0.950 . S
C1536 C1535 1.398 . S
C1536 C1537 1.391 . S
C1537 H1525 0.950 . S
C1537 C1533 1.393 . S
C1537 C1536 1.391 . S
C1538 H1528 0.950 . S
C1538 C1539 1.386 . S
C1538 C1540 1.391 . S
C1539 C1538 1.386 . S
C1539 C1543 1.393 . S
C1540 H1529 0.950 . S
C1540 C1538 1.391 . S
C1540 C1541 1.400 . S
C1541 C1535 1.491 . S
C1541 C1540 1.400 . S
C1541 C1542 1.398 . S
C1542 H1530 0.950 . S
C1542 C1541 1.398 . S
C1542 C1543 1.391 . S
C1543 H1531 0.950 . S
C1543 C1539 1.393 . S
C1543 C1542 1.391 . S
H1544 C1552 0.950 . S
H1545 C1557 0.950 . S
H1546 C1554 0.950 . S
H1547 C1556 0.950 . S
H1548 C1558 0.950 . S
H1549 C1560 0.950 . S
H1550 C1562 0.950 . S
H1551 C1563 0.950 . S
C1552 H1544 0.950 . S
C1552 C1553 1.386 . S
C1552 C1554 1.391 . S
C1553 C1552 1.386 . S
C1553 C1557 1.393 . S
C1554 H1546 0.950 . S
C1554 C1552 1.391 . S
C1554 C1555 1.400 . S
C1555 C1554 1.400 . S
C1555 C1556 1.398 . S
C1555 C1561 1.491 . S
C1556 H1547 0.950 . S
C1556 C1555 1.398 . S
C1556 C1557 1.391 . S
C1557 H1545 0.950 . S
C1557 C1553 1.393 . S
C1557 C1556 1.391 . S
C1558 H1548 0.950 . S
C1558 C1559 1.386 . S
C1558 C1560 1.391 . S
C1559 C1558 1.386 . S
C1559 C1563 1.393 . S
C1560 H1549 0.950 . S
C1560 C1558 1.391 . S
C1560 C1561 1.400 . S
C1561 C1555 1.491 . S
C1561 C1560 1.400 . S
C1561 C1562 1.398 . S
C1562 H1550 0.950 . S
C1562 C1561 1.398 . S
C1562 C1563 1.391 . S
C1563 H1551 0.950 . S
C1563 C1559 1.393 . S
C1563 C1562 1.391 . S
H1564 C1572 0.950 . S
H1565 C1577 0.950 . S
H1566 C1574 0.950 . S
H1567 C1576 0.950 . S
H1568 C1578 0.950 . S
H1569 C1580 0.950 . S
H1570 C1582 0.950 . S
H1571 C1583 0.950 . S
C1572 H1564 0.950 . S
C1572 C1573 1.386 . S
C1572 C1574 1.391 . S
C1573 C1572 1.386 . S
C1573 C1577 1.393 . S
C1574 H1566 0.950 . S
C1574 C1572 1.391 . S
C1574 C1575 1.400 . S
C1575 C1574 1.400 . S
C1575 C1576 1.398 . S
C1575 C1581 1.491 . S
C1576 H1567 0.950 . S
C1576 C1575 1.398 . S
C1576 C1577 1.391 . S
C1577 H1565 0.950 . S
C1577 C1573 1.393 . S
C1577 C1576 1.391 . S
C1578 H1568 0.950 . S
C1578 C1579 1.386 . S
C1578 C1580 1.391 . S
C1579 C1578 1.386 . S
C1579 C1583 1.393 . S
C1580 H1569 0.950 . S
C1580 C1578 1.391 . S
C1580 C1581 1.400 . S
C1581 C1575 1.491 . S
C1581 C1580 1.400 . S
C1581 C1582 1.398 . S
C1582 H1570 0.950 . S
C1582 C1581 1.398 . S
C1582 C1583 1.391 . S
C1583 H1571 0.950 . S
C1583 C1579 1.393 . S
C1583 C1582 1.391 . S
H1584 C1592 0.950 . S
H1585 C1597 0.950 . S
H1586 C1594 0.950 . S
H1587 C1596 0.950 . S
H1588 C1598 0.950 . S
H1589 C1600 0.950 . S
H1590 C1602 0.950 . S
H1591 C1603 0.950 . S
C1592 H1584 0.950 . S
C1592 C1593 1.386 . S
C1592 C1594 1.391 . S
C1593 C1592 1.386 . S
C1593 C1597 1.393 . S
C1594 H1586 0.950 . S
C1594 C1592 1.391 . S
C1594 C1595 1.400 . S
C1595 C1594 1.400 . S
C1595 C1596 1.398 . S
C1595 C1601 1.491 . S
C1596 H1587 0.950 . S
C1596 C1595 1.398 . S
C1596 C1597 1.391 . S
C1597 H1585 0.950 . S
C1597 C1593 1.393 . S
C1597 C1596 1.391 . S
C1598 H1588 0.950 . S
C1598 C1599 1.386 . S
C1598 C1600 1.391 . S
C1599 C1598 1.386 . S
C1599 C1603 1.393 . S
C1600 H1589 0.950 . S
C1600 C1598 1.391 . S
C1600 C1601 1.400 . S
C1601 C1595 1.491 . S
C1601 C1600 1.400 . S
C1601 C1602 1.398 . S
C1602 H1590 0.950 . S
C1602 C1601 1.398 . S
C1602 C1603 1.391 . S
C1603 H1591 0.950 . S
C1603 C1599 1.393 . S
C1603 C1602 1.391 . S
H1604 C1612 0.950 . S
H1605 C1617 0.950 . S
H1606 C1614 0.950 . S
H1607 C1616 0.950 . S
H1608 C1618 0.950 . S
H1609 C1620 0.950 . S
H1610 C1622 0.950 . S
H1611 C1623 0.950 . S
C1612 H1604 0.950 . S
C1612 C1613 1.386 . S
C1612 C1614 1.391 . S
C1613 C1612 1.386 . S
C1613 C1617 1.393 . S
C1614 H1606 0.950 . S
C1614 C1612 1.391 . S
C1614 C1615 1.400 . S
C1615 C1614 1.400 . S
C1615 C1616 1.398 . S
C1615 C1621 1.491 . S
C1616 H1607 0.950 . S
C1616 C1615 1.398 . S
C1616 C1617 1.391 . S
C1617 H1605 0.950 . S
C1617 C1613 1.393 . S
C1617 C1616 1.391 . S
C1618 H1608 0.950 . S
C1618 C1619 1.386 . S
C1618 C1620 1.391 . S
C1619 C1618 1.386 . S
C1619 C1623 1.393 . S
C1620 H1609 0.950 . S
C1620 C1618 1.391 . S
C1620 C1621 1.400 . S
C1621 C1615 1.491 . S
C1621 C1620 1.400 . S
C1621 C1622 1.398 . S
C1622 H1610 0.950 . S
C1622 C1621 1.398 . S
C1622 C1623 1.391 . S
C1623 H1611 0.950 . S
C1623 C1619 1.393 . S
C1623 C1622 1.391 . S
H1624 C1632 0.950 . S
H1625 C1637 0.950 . S
H1626 C1634 0.950 . S
H1627 C1636 0.950 . S
H1628 C1638 0.950 . S
H1629 C1640 0.950 . S
H1630 C1642 0.950 . S
H1631 C1643 0.950 . S
C1632 H1624 0.950 . S
C1632 C1633 1.386 . S
C1632 C1634 1.391 . S
C1633 C1632 1.386 . S
C1633 C1637 1.393 . S
C1634 H1626 0.950 . S
C1634 C1632 1.391 . S
C1634 C1635 1.400 . S
C1635 C1634 1.400 . S
C1635 C1636 1.398 . S
C1635 C1641 1.491 . S
C1636 H1627 0.950 . S
C1636 C1635 1.398 . S
C1636 C1637 1.391 . S
C1637 H1625 0.950 . S
C1637 C1633 1.393 . S
C1637 C1636 1.391 . S
C1638 H1628 0.950 . S
C1638 C1639 1.386 . S
C1638 C1640 1.391 . S
C1639 C1638 1.386 . S
C1639 C1643 1.393 . S
C1640 H1629 0.950 . S
C1640 C1638 1.391 . S
C1640 C1641 1.400 . S
C1641 C1635 1.491 . S
C1641 C1640 1.400 . S
C1641 C1642 1.398 . S
C1642 H1630 0.950 . S
C1642 C1641 1.398 . S
C1642 C1643 1.391 . S
C1643 H1631 0.950 . S
C1643 C1639 1.393 . S
C1643 C1642 1.391 . S
H1644 C1652 0.950 . S
H1645 C1657 0.950 . S
H1646 C1654 0.950 . S
H1647 C1656 0.950 . S
H1648 C1658 0.950 . S
H1649 C1660 0.950 . S
H1650 C1662 0.950 . S
H1651 C1663 0.950 . S
C1652 H1644 0.950 . S
C1652 C1653 1.386 . S
C1652 C1654 1.391 . S
C1653 C1652 1.386 . S
C1653 C1657 1.393 . S
C1654 H1646 0.950 . S
C1654 C1652 1.391 . S
C1654 C1655 1.400 . S
C1655 C1654 1.400 . S
C1655 C1656 1.398 . S
C1655 C1661 1.491 . S
C1656 H1647 0.950 . S
C1656 C1655 1.398 . S
C1656 C1657 1.391 . S
C1657 H1645 0.950 . S
C1657 C1653 1.393 . S
C1657 C1656 1.391 . S
C1658 H1648 0.950 . S
C1658 C1659 1.386 . S
C1658 C1660 1.391 . S
C1659 C1658 1.386 . S
C1659 C1663 1.393 . S
C1660 H1649 0.950 . S
C1660 C1658 1.391 . S
C1660 C1661 1.400 . S
C1661 C1655 1.491 . S
C1661 C1660 1.400 . S
C1661 C1662 1.398 . S
C1662 H1650 0.950 . S
C1662 C1661 1.398 . S
C1662 C1663 1.391 . S
C1663 H1651 0.950 . S
C1663 C1659 1.393 . S
C1663 C1662 1.391 . S
H1664 C1672 0.950 . S
H1665 C1677 0.950 . S
H1666 C1674 0.950 . S
H1667 C1676 0.950 . S
H1668 C1678 0.950 . S
H1669 C1680 0.950 . S
H1670 C1682 0.950 . S
H1671 C1683 0.950 . S
C1672 H1664 0.950 . S
C1672 C1673 1.386 . S
C1672 C1674 1.391 . S
C1673 C1672 1.386 . S
C1673 C1677 1.393 . S
C1674 H1666 0.950 . S
C1674 C1672 1.391 . S
C1674 C1675 1.400 . S
C1675 C1674 1.400 . S
C1675 C1676 1.398 . S
C1675 C1681 1.491 . S
C1676 H1667 0.950 . S
C1676 C1675 1.398 . S
C1676 C1677 1.391 . S
C1677 H1665 0.950 . S
C1677 C1673 1.393 . S
C1677 C1676 1.391 . S
C1678 H1668 0.950 . S
C1678 C1679 1.386 . S
C1678 C1680 1.391 . S
C1679 C1678 1.386 . S
C1679 C1683 1.393 . S
C1680 H1669 0.950 . S
C1680 C1678 1.391 . S
C1680 C1681 1.400 . S
C1681 C1675 1.491 . S
C1681 C1680 1.400 . S
C1681 C1682 1.398 . S
C1682 H1670 0.950 . S
C1682 C1681 1.398 . S
C1682 C1683 1.391 . S
C1683 H1671 0.950 . S
C1683 C1679 1.393 . S
C1683 C1682 1.391 . S
H1684 C1692 0.950 . S
H1685 C1697 0.950 . S
H1686 C1694 0.950 . S
H1687 C1696 0.950 . S
H1688 C1698 0.950 . S
H1689 C1700 0.950 . S
H1690 C1702 0.950 . S
H1691 C1703 0.950 . S
C1692 H1684 0.950 . S
C1692 C1693 1.386 . S
C1692 C1694 1.391 . S
C1693 C1692 1.386 . S
C1693 C1697 1.393 . S
C1694 H1686 0.950 . S
C1694 C1692 1.391 . S
C1694 C1695 1.400 . S
C1695 C1694 1.400 . S
C1695 C1696 1.398 . S
C1695 C1701 1.491 . S
C1696 H1687 0.950 . S
C1696 C1695 1.398 . S
C1696 C1697 1.391 . S
C1697 H1685 0.950 . S
C1697 C1693 1.393 . S
C1697 C1696 1.391 . S
C1698 H1688 0.950 . S
C1698 C1699 1.386 . S
C1698 C1700 1.391 . S
C1699 C1698 1.386 . S
C1699 C1703 1.393 . S
C1700 H1689 0.950 . S
C1700 C1698 1.391 . S
C1700 C1701 1.400 . S
C1701 C1695 1.491 . S
C1701 C1700 1.400 . S
C1701 C1702 1.398 . S
C1702 H1690 0.950 . S
C1702 C1701 1.398 . S
C1702 C1703 1.391 . S
C1703 H1691 0.950 . S
C1703 C1699 1.393 . S
C1703 C1702 1.391 . S
H1704 C1712 0.950 . S
H1705 C1717 0.950 . S
H1706 C1714 0.950 . S
H1707 C1716 0.950 . S
H1708 C1718 0.950 . S
H1709 C1720 0.950 . S
H1710 C1722 0.950 . S
H1711 C1723 0.950 . S
C1712 H1704 0.950 . S
C1712 C1713 1.386 . S
C1712 C1714 1.391 . S
C1713 C1712 1.386 . S
C1713 C1717 1.393 . S
C1714 H1706 0.950 . S
C1714 C1712 1.391 . S
C1714 C1715 1.400 . S
C1715 C1714 1.400 . S
C1715 C1716 1.398 . S
C1715 C1721 1.491 . S
C1716 H1707 0.950 . S
C1716 C1715 1.398 . S
C1716 C1717 1.391 . S
C1717 H1705 0.950 . S
C1717 C1713 1.393 . S
C1717 C1716 1.391 . S
C1718 H1708 0.950 . S
C1718 C1719 1.386 . S
C1718 C1720 1.391 . S
C1719 C1718 1.386 . S
C1719 C1723 1.393 . S
C1720 H1709 0.950 . S
C1720 C1718 1.391 . S
C1720 C1721 1.400 . S
C1721 C1715 1.491 . S
C1721 C1720 1.400 . S
C1721 C1722 1.398 . S
C1722 H1710 0.950 . S
C1722 C1721 1.398 . S
C1722 C1723 1.391 . S
C1723 H1711 0.950 . S
C1723 C1719 1.393 . S
C1723 C1722 1.391 . S
H1724 C1732 0.950 . S
H1725 C1737 0.950 . S
H1726 C1734 0.950 . S
H1727 C1736 0.950 . S
H1728 C1738 0.950 . S
H1729 C1740 0.950 . S
H1730 C1742 0.950 . S
H1731 C1743 0.950 . S
C1732 H1724 0.950 . S
C1732 C1733 1.386 . S
C1732 C1734 1.391 . S
C1733 C1732 1.386 . S
C1733 C1737 1.393 . S
C1734 H1726 0.950 . S
C1734 C1732 1.391 . S
C1734 C1735 1.400 . S
C1735 C1734 1.400 . S
C1735 C1736 1.398 . S
C1735 C1741 1.491 . S
C1736 H1727 0.950 . S
C1736 C1735 1.398 . S
C1736 C1737 1.391 . S
C1737 H1725 0.950 . S
C1737 C1733 1.393 . S
C1737 C1736 1.391 . S
C1738 H1728 0.950 . S
C1738 C1739 1.386 . S
C1738 C1740 1.391 . S
C1739 C1738 1.386 . S
C1739 C1743 1.393 . S
C1740 H1729 0.950 . S
C1740 C1738 1.391 . S
C1740 C1741 1.400 . S
C1741 C1735 1.491 . S
C1741 C1740 1.400 . S
C1741 C1742 1.398 . S
C1742 H1730 0.950 . S
C1742 C1741 1.398 . S
C1742 C1743 1.391 . S
C1743 H1731 0.950 . S
C1743 C1739 1.393 . S
C1743 C1742 1.391 . S
H1744 C1752 0.950 . S
H1745 C1757 0.950 . S
H1746 C1754 0.950 . S
H1747 C1756 0.950 . S
H1748 C1758 0.950 . S
H1749 C1760 0.950 . S
H1750 C1762 0.950 . S
H1751 C1763 0.950 . S
C1752 H1744 0.950 . S
C1752 C1753 1.386 . S
C1752 C1754 1.391 . S
C1753 C1752 1.386 . S
C1753 C1757 1.393 . S
C1754 H1746 0.950 . S
C1754 C1752 1.391 . S
C1754 C1755 1.400 . S
C1755 C1754 1.400 . S
C1755 C1756 1.398 . S
C1755 C1761 1.491 . S
C1756 H1747 0.950 . S
C1756 C1755 1.398 . S
C1756 C1757 1.391 . S
C1757 H1745 0.950 . S
C1757 C1753 1.393 . S
C1757 C1756 1.391 . S
C1758 H1748 0.950 . S
C1758 C1759 1.386 . S
C1758 C1760 1.391 . S
C1759 C1758 1.386 . S
C1759 C1763 1.393 . S
C1760 H1749 0.950 . S
C1760 C1758 1.391 . S
C1760 C1761 1.400 . S
C1761 C1755 1.491 . S
C1761 C1760 1.400 . S
C1761 C1762 1.398 . S
C1762 H1750 0.950 . S
C1762 C1761 1.398 . S
C1762 C1763 1.391 . S
C1763 H1751 0.950 . S
C1763 C1759 1.393 . S
C1763 C1762 1.391 . S
H1764 C1772 0.950 . S
H1765 C1777 0.950 . S
H1766 C1774 0.950 . S
H1767 C1776 0.950 . S
H1768 C1778 0.950 . S
H1769 C1780 0.950 . S
H1770 C1782 0.950 . S
H1771 C1783 0.950 . S
C1772 H1764 0.950 . S
C1772 C1773 1.386 . S
C1772 C1774 1.391 . S
C1773 C1772 1.386 . S
C1773 C1777 1.393 . S
C1774 H1766 0.950 . S
C1774 C1772 1.391 . S
C1774 C1775 1.400 . S
C1775 C1774 1.400 . S
C1775 C1776 1.398 . S
C1775 C1781 1.491 . S
C1776 H1767 0.950 . S
C1776 C1775 1.398 . S
C1776 C1777 1.391 . S
C1777 H1765 0.950 . S
C1777 C1773 1.393 . S
C1777 C1776 1.391 . S
C1778 H1768 0.950 . S
C1778 C1779 1.386 . S
C1778 C1780 1.391 . S
C1779 C1778 1.386 . S
C1779 C1783 1.393 . S
C1780 H1769 0.950 . S
C1780 C1778 1.391 . S
C1780 C1781 1.400 . S
C1781 C1775 1.491 . S
C1781 C1780 1.400 . S
C1781 C1782 1.398 . S
C1782 H1770 0.950 . S
C1782 C1781 1.398 . S
C1782 C1783 1.391 . S
C1783 H1771 0.950 . S
C1783 C1779 1.393 . S
C1783 C1782 1.391 . S
H1784 C1792 0.950 . S
H1785 C1797 0.950 . S
H1786 C1794 0.950 . S
H1787 C1796 0.950 . S
H1788 C1798 0.950 . S
H1789 C1800 0.950 . S
H1790 C1802 0.950 . S
H1791 C1803 0.950 . S
C1792 H1784 0.950 . S
C1792 C1793 1.386 . S
C1792 C1794 1.391 . S
C1793 C1792 1.386 . S
C1793 C1797 1.393 . S
C1794 H1786 0.950 . S
C1794 C1792 1.391 . S
C1794 C1795 1.400 . S
C1795 C1794 1.400 . S
C1795 C1796 1.398 . S
C1795 C1801 1.491 . S
C1796 H1787 0.950 . S
C1796 C1795 1.398 . S
C1796 C1797 1.391 . S
C1797 H1785 0.950 . S
C1797 C1793 1.393 . S
C1797 C1796 1.391 . S
C1798 H1788 0.950 . S
C1798 C1799 1.386 . S
C1798 C1800 1.391 . S
C1799 C1798 1.386 . S
C1799 C1803 1.393 . S
C1800 H1789 0.950 . S
C1800 C1798 1.391 . S
C1800 C1801 1.400 . S
C1801 C1795 1.491 . S
C1801 C1800 1.400 . S
C1801 C1802 1.398 . S
C1802 H1790 0.950 . S
C1802 C1801 1.398 . S
C1802 C1803 1.391 . S
C1803 H1791 0.950 . S
C1803 C1799 1.393 . S
C1803 C1802 1.391 . S
H1804 C1812 0.950 . S
H1805 C1817 0.950 . S
H1806 C1814 0.950 . S
H1807 C1816 0.950 . S
H1808 C1818 0.950 . S
H1809 C1820 0.950 . S
H1810 C1822 0.950 . S
H1811 C1823 0.950 . S
C1812 H1804 0.950 . S
C1812 C1813 1.386 . S
C1812 C1814 1.391 . S
C1813 C1812 1.386 . S
C1813 C1817 1.393 . S
C1814 H1806 0.950 . S
C1814 C1812 1.391 . S
C1814 C1815 1.400 . S
C1815 C1814 1.400 . S
C1815 C1816 1.398 . S
C1815 C1821 1.491 . S
C1816 H1807 0.950 . S
C1816 C1815 1.398 . S
C1816 C1817 1.391 . S
C1817 H1805 0.950 . S
C1817 C1813 1.393 . S
C1817 C1816 1.391 . S
C1818 H1808 0.950 . S
C1818 C1819 1.386 . S
C1818 C1820 1.391 . S
C1819 C1818 1.386 . S
C1819 C1823 1.393 . S
C1820 H1809 0.950 . S
C1820 C1818 1.391 . S
C1820 C1821 1.400 . S
C1821 C1815 1.491 . S
C1821 C1820 1.400 . S
C1821 C1822 1.398 . S
C1822 H1810 0.950 . S
C1822 C1821 1.398 . S
C1822 C1823 1.391 . S
C1823 H1811 0.950 . S
C1823 C1819 1.393 . S
C1823 C1822 1.391 . S
H1824 C1832 0.950 . S
H1825 C1837 0.950 . S
H1826 C1834 0.950 . S
H1827 C1836 0.950 . S
H1828 C1838 0.950 . S
H1829 C1840 0.950 . S
H1830 C1842 0.950 . S
H1831 C1843 0.950 . S
C1832 H1824 0.950 . S
C1832 C1833 1.386 . S
C1832 C1834 1.391 . S
C1833 C1832 1.386 . S
C1833 C1837 1.393 . S
C1834 H1826 0.950 . S
C1834 C1832 1.391 . S
C1834 C1835 1.400 . S
C1835 C1834 1.400 . S
C1835 C1836 1.398 . S
C1835 C1841 1.491 . S
C1836 H1827 0.950 . S
C1836 C1835 1.398 . S
C1836 C1837 1.391 . S
C1837 H1825 0.950 . S
C1837 C1833 1.393 . S
C1837 C1836 1.391 . S
C1838 H1828 0.950 . S
C1838 C1839 1.386 . S
C1838 C1840 1.391 . S
C1839 C1838 1.386 . S
C1839 C1843 1.393 . S
C1840 H1829 0.950 . S
C1840 C1838 1.391 . S
C1840 C1841 1.400 . S
C1841 C1835 1.491 . S
C1841 C1840 1.400 . S
C1841 C1842 1.398 . S
C1842 H1830 0.950 . S
C1842 C1841 1.398 . S
C1842 C1843 1.391 . S
C1843 H1831 0.950 . S
C1843 C1839 1.393 . S
C1843 C1842 1.391 . S
H1844 C1852 0.950 . S
H1845 C1857 0.950 . S
H1846 C1854 0.950 . S
H1847 C1856 0.950 . S
H1848 C1858 0.950 . S
H1849 C1860 0.950 . S
H1850 C1862 0.950 . S
H1851 C1863 0.950 . S
C1852 H1844 0.950 . S
C1852 C1853 1.386 . S
C1852 C1854 1.391 . S
C1853 C1852 1.386 . S
C1853 C1857 1.393 . S
C1854 H1846 0.950 . S
C1854 C1852 1.391 . S
C1854 C1855 1.400 . S
C1855 C1854 1.400 . S
C1855 C1856 1.398 . S
C1855 C1861 1.491 . S
C1856 H1847 0.950 . S
C1856 C1855 1.398 . S
C1856 C1857 1.391 . S
C1857 H1845 0.950 . S
C1857 C1853 1.393 . S
C1857 C1856 1.391 . S
C1858 H1848 0.950 . S
C1858 C1859 1.386 . S
C1858 C1860 1.391 . S
C1859 C1858 1.386 . S
C1859 C1863 1.393 . S
C1860 H1849 0.950 . S
C1860 C1858 1.391 . S
C1860 C1861 1.400 . S
C1861 C1855 1.491 . S
C1861 C1860 1.400 . S
C1861 C1862 1.398 . S
C1862 H1850 0.950 . S
C1862 C1861 1.398 . S
C1862 C1863 1.391 . S
C1863 H1851 0.950 . S
C1863 C1859 1.393 . S
C1863 C1862 1.391 . S
H1864 C1872 0.950 . S
H1865 C1877 0.950 . S
H1866 C1874 0.950 . S
H1867 C1876 0.950 . S
H1868 C1878 0.950 . S
H1869 C1880 0.950 . S
H1870 C1882 0.950 . S
H1871 C1883 0.950 . S
C1872 H1864 0.950 . S
C1872 C1873 1.386 . S
C1872 C1874 1.391 . S
C1873 C1872 1.386 . S
C1873 C1877 1.393 . S
C1874 H1866 0.950 . S
C1874 C1872 1.391 . S
C1874 C1875 1.400 . S
C1875 C1874 1.400 . S
C1875 C1876 1.398 . S
C1875 C1881 1.491 . S
C1876 H1867 0.950 . S
C1876 C1875 1.398 . S
C1876 C1877 1.391 . S
C1877 H1865 0.950 . S
C1877 C1873 1.393 . S
C1877 C1876 1.391 . S
C1878 H1868 0.950 . S
C1878 C1879 1.386 . S
C1878 C1880 1.391 . S
C1879 C1878 1.386 . S
C1879 C1883 1.393 . S
C1880 H1869 0.950 . S
C1880 C1878 1.391 . S
C1880 C1881 1.400 . S
C1881 C1875 1.491 . S
C1881 C1880 1.400 . S
C1881 C1882 1.398 . S
C1882 H1870 0.950 . S
C1882 C1881 1.398 . S
C1882 C1883 1.391 . S
C1883 H1871 0.950 . S
C1883 C1879 1.393 . S
C1883 C1882 1.391 . S
H1884 C1892 0.950 . S
H1885 C1897 0.950 . S
H1886 C1894 0.950 . S
H1887 C1896 0.950 . S
H1888 C1898 0.950 . S
H1889 C1900 0.950 . S
H1890 C1902 0.950 . S
H1891 C1903 0.950 . S
C1892 H1884 0.950 . S
C1892 C1893 1.386 . S
C1892 C1894 1.391 . S
C1893 C1892 1.386 . S
C1893 C1897 1.393 . S
C1894 H1886 0.950 . S
C1894 C1892 1.391 . S
C1894 C1895 1.400 . S
C1895 C1894 1.400 . S
C1895 C1896 1.398 . S
C1895 C1901 1.491 . S
C1896 H1887 0.950 . S
C1896 C1895 1.398 . S
C1896 C1897 1.391 . S
C1897 H1885 0.950 . S
C1897 C1893 1.393 . S
C1897 C1896 1.391 . S
C1898 H1888 0.950 . S
C1898 C1899 1.386 . S
C1898 C1900 1.391 . S
C1899 C1898 1.386 . S
C1899 C1903 1.393 . S
C1900 H1889 0.950 . S
C1900 C1898 1.391 . S
C1900 C1901 1.400 . S
C1901 C1895 1.491 . S
C1901 C1900 1.400 . S
C1901 C1902 1.398 . S
C1902 H1890 0.950 . S
C1902 C1901 1.398 . S
C1902 C1903 1.391 . S
C1903 H1891 0.950 . S
C1903 C1899 1.393 . S
C1903 C1902 1.391 . S
H1904 C1912 0.950 . S
H1905 C1917 0.950 . S
H1906 C1914 0.950 . S
H1907 C1916 0.950 . S
H1908 C1918 0.950 . S
H1909 C1920 0.950 . S
H1910 C1922 0.950 . S
H1911 C1923 0.950 . S
C1912 H1904 0.950 . S
C1912 C1913 1.386 . S
C1912 C1914 1.391 . S
C1913 C1912 1.386 . S
C1913 C1917 1.393 . S
C1914 H1906 0.950 . S
C1914 C1912 1.391 . S
C1914 C1915 1.400 . S
C1915 C1914 1.400 . S
C1915 C1916 1.398 . S
C1915 C1921 1.491 . S
C1916 H1907 0.950 . S
C1916 C1915 1.398 . S
C1916 C1917 1.391 . S
C1917 H1905 0.950 . S
C1917 C1913 1.393 . S
C1917 C1916 1.391 . S
C1918 H1908 0.950 . S
C1918 C1919 1.386 . S
C1918 C1920 1.391 . S
C1919 C1918 1.386 . S
C1919 C1923 1.393 . S
C1920 H1909 0.950 . S
C1920 C1918 1.391 . S
C1920 C1921 1.400 . S
C1921 C1915 1.491 . S
C1921 C1920 1.400 . S
C1921 C1922 1.398 . S
C1922 H1910 0.950 . S
C1922 C1921 1.398 . S
C1922 C1923 1.391 . S
C1923 H1911 0.950 . S
C1923 C1919 1.393 . S
C1923 C1922 1.391 . S
H1924 C1932 0.950 . S
H1925 C1937 0.950 . S
H1926 C1934 0.950 . S
H1927 C1936 0.950 . S
H1928 C1938 0.950 . S
H1929 C1940 0.950 . S
H1930 C1942 0.950 . S
H1931 C1943 0.950 . S
C1932 H1924 0.950 . S
C1932 C1933 1.386 . S
C1932 C1934 1.391 . S
C1933 C1932 1.386 . S
C1933 C1937 1.393 . S
C1934 H1926 0.950 . S
C1934 C1932 1.391 . S
C1934 C1935 1.400 . S
C1935 C1934 1.400 . S
C1935 C1936 1.398 . S
C1935 C1941 1.491 . S
C1936 H1927 0.950 . S
C1936 C1935 1.398 . S
C1936 C1937 1.391 . S
C1937 H1925 0.950 . S
C1937 C1933 1.393 . S
C1937 C1936 1.391 . S
C1938 H1928 0.950 . S
C1938 C1939 1.386 . S
C1938 C1940 1.391 . S
C1939 C1938 1.386 . S
C1939 C1943 1.393 . S
C1940 H1929 0.950 . S
C1940 C1938 1.391 . S
C1940 C1941 1.400 . S
C1941 C1935 1.491 . S
C1941 C1940 1.400 . S
C1941 C1942 1.398 . S
C1942 H1930 0.950 . S
C1942 C1941 1.398 . S
C1942 C1943 1.391 . S
C1943 H1931 0.950 . S
C1943 C1939 1.393 . S
C1943 C1942 1.391 . S
H1944 C1952 0.950 . S
H1945 C1957 0.950 . S
H1946 C1954 0.950 . S
H1947 C1956 0.950 . S
H1948 C1958 0.950 . S
H1949 C1960 0.950 . S
H1950 C1962 0.950 . S
H1951 C1963 0.950 . S
C1952 H1944 0.950 . S
C1952 C1953 1.386 . S
C1952 C1954 1.391 . S
C1953 C1952 1.386 . S
C1953 C1957 1.393 . S
C1954 H1946 0.950 . S
C1954 C1952 1.391 . S
C1954 C1955 1.400 . S
C1955 C1954 1.400 . S
C1955 C1956 1.398 . S
C1955 C1961 1.491 . S
C1956 H1947 0.950 . S
C1956 C1955 1.398 . S
C1956 C1957 1.391 . S
C1957 H1945 0.950 . S
C1957 C1953 1.393 . S
C1957 C1956 1.391 . S
C1958 H1948 0.950 . S
C1958 C1959 1.386 . S
C1958 C1960 1.391 . S
C1959 C1958 1.386 . S
C1959 C1963 1.393 . S
C1960 H1949 0.950 . S
C1960 C1958 1.391 . S
C1960 C1961 1.400 . S
C1961 C1955 1.491 . S
C1961 C1960 1.400 . S
C1961 C1962 1.398 . S
C1962 H1950 0.950 . S
C1962 C1961 1.398 . S
C1962 C1963 1.391 . S
C1963 H1951 0.950 . S
C1963 C1959 1.393 . S
C1963 C1962 1.391 . S
H1964 C1972 0.950 . S
H1965 C1977 0.950 . S
H1966 C1974 0.950 . S
H1967 C1976 0.950 . S
H1968 C1978 0.950 . S
H1969 C1980 0.950 . S
H1970 C1982 0.950 . S
H1971 C1983 0.950 . S
C1972 H1964 0.950 . S
C1972 C1973 1.386 . S
C1972 C1974 1.391 . S
C1973 C1972 1.386 . S
C1973 C1977 1.393 . S
C1974 H1966 0.950 . S
C1974 C1972 1.391 . S
C1974 C1975 1.400 . S
C1975 C1974 1.400 . S
C1975 C1976 1.398 . S
C1975 C1981 1.491 . S
C1976 H1967 0.950 . S
C1976 C1975 1.398 . S
C1976 C1977 1.391 . S
C1977 H1965 0.950 . S
C1977 C1973 1.393 . S
C1977 C1976 1.391 . S
C1978 H1968 0.950 . S
C1978 C1979 1.386 . S
C1978 C1980 1.391 . S
C1979 C1978 1.386 . S
C1979 C1983 1.393 . S
C1980 H1969 0.950 . S
C1980 C1978 1.391 . S
C1980 C1981 1.400 . S
C1981 C1975 1.491 . S
C1981 C1980 1.400 . S
C1981 C1982 1.398 . S
C1982 H1970 0.950 . S
C1982 C1981 1.398 . S
C1982 C1983 1.391 . S
C1983 H1971 0.950 . S
C1983 C1979 1.393 . S
C1983 C1982 1.391 . S
H1984 C1992 0.950 . S
H1985 C1997 0.950 . S
H1986 C1994 0.950 . S
H1987 C1996 0.950 . S
H1988 C1998 0.950 . S
H1989 C2000 0.950 . S
H1990 C2002 0.950 . S
H1991 C2003 0.950 . S
C1992 H1984 0.950 . S
C1992 C1993 1.386 . S
C1992 C1994 1.391 . S
C1993 C1992 1.386 . S
C1993 C1997 1.393 . S
C1994 H1986 0.950 . S
C1994 C1992 1.391 . S
C1994 C1995 1.400 . S
C1995 C1994 1.400 . S
C1995 C1996 1.398 . S
C1995 C2001 1.491 . S
C1996 H1987 0.950 . S
C1996 C1995 1.398 . S
C1996 C1997 1.391 . S
C1997 H1985 0.950 . S
C1997 C1993 1.393 . S
C1997 C1996 1.391 . S
C1998 H1988 0.950 . S
C1998 C1999 1.386 . S
C1998 C2000 1.391 . S
C1999 C1998 1.386 . S
C1999 C2003 1.393 . S
C2000 H1989 0.950 . S
C2000 C1998 1.391 . S
C2000 C2001 1.400 . S
C2001 C1995 1.491 . S
C2001 C2000 1.400 . S
C2001 C2002 1.398 . S
C2002 H1990 0.950 . S
C2002 C2001 1.398 . S
C2002 C2003 1.391 . S
C2003 H1991 0.950 . S
C2003 C1999 1.393 . S
C2003 C2002 1.391 . S
H2004 C2012 0.950 . S
H2005 C2017 0.950 . S
H2006 C2014 0.950 . S
H2007 C2016 0.950 . S
H2008 C2018 0.950 . S
H2009 C2020 0.950 . S
H2010 C2022 0.950 . S
H2011 C2023 0.950 . S
C2012 H2004 0.950 . S
C2012 C2013 1.386 . S
C2012 C2014 1.391 . S
C2013 C2012 1.386 . S
C2013 C2017 1.393 . S
C2014 H2006 0.950 . S
C2014 C2012 1.391 . S
C2014 C2015 1.400 . S
C2015 C2014 1.400 . S
C2015 C2016 1.398 . S
C2015 C2021 1.491 . S
C2016 H2007 0.950 . S
C2016 C2015 1.398 . S
C2016 C2017 1.391 . S
C2017 H2005 0.950 . S
C2017 C2013 1.393 . S
C2017 C2016 1.391 . S
C2018 H2008 0.950 . S
C2018 C2019 1.386 . S
C2018 C2020 1.391 . S
C2019 C2018 1.386 . S
C2019 C2023 1.393 . S
C2020 H2009 0.950 . S
C2020 C2018 1.391 . S
C2020 C2021 1.400 . S
C2021 C2015 1.491 . S
C2021 C2020 1.400 . S
C2021 C2022 1.398 . S
C2022 H2010 0.950 . S
C2022 C2021 1.398 . S
C2022 C2023 1.391 . S
C2023 H2011 0.950 . S
C2023 C2019 1.393 . S
C2023 C2022 1.391 . S
H2024 C2032 0.950 . S
H2025 C2037 0.950 . S
H2026 C2034 0.950 . S
H2027 C2036 0.950 . S
H2028 C2038 0.950 . S
H2029 C2040 0.950 . S
H2030 C2042 0.950 . S
H2031 C2043 0.950 . S
C2032 H2024 0.950 . S
C2032 C2033 1.386 . S
C2032 C2034 1.391 . S
C2033 C2032 1.386 . S
C2033 C2037 1.393 . S
C2034 H2026 0.950 . S
C2034 C2032 1.391 . S
C2034 C2035 1.400 . S
C2035 C2034 1.400 . S
C2035 C2036 1.398 . S
C2035 C2041 1.491 . S
C2036 H2027 0.950 . S
C2036 C2035 1.398 . S
C2036 C2037 1.391 . S
C2037 H2025 0.950 . S
C2037 C2033 1.393 . S
C2037 C2036 1.391 . S
C2038 H2028 0.950 . S
C2038 C2039 1.386 . S
C2038 C2040 1.391 . S
C2039 C2038 1.386 . S
C2039 C2043 1.393 . S
C2040 H2029 0.950 . S
C2040 C2038 1.391 . S
C2040 C2041 1.400 . S
C2041 C2035 1.491 . S
C2041 C2040 1.400 . S
C2041 C2042 1.398 . S
C2042 H2030 0.950 . S
C2042 C2041 1.398 . S
C2042 C2043 1.391 . S
C2043 H2031 0.950 . S
C2043 C2039 1.393 . S
C2043 C2042 1.391 . S
H2044 C2052 0.950 . S
H2045 C2057 0.950 . S
H2046 C2054 0.950 . S
H2047 C2056 0.950 . S
H2048 C2058 0.950 . S
H2049 C2060 0.950 . S
H2050 C2062 0.950 . S
H2051 C2063 0.950 . S
C2052 H2044 0.950 . S
C2052 C2053 1.386 . S
C2052 C2054 1.391 . S
C2053 C2052 1.386 . S
C2053 C2057 1.393 . S
C2054 H2046 0.950 . S
C2054 C2052 1.391 . S
C2054 C2055 1.400 . S
C2055 C2054 1.400 . S
C2055 C2056 1.398 . S
C2055 C2061 1.491 . S
C2056 H2047 0.950 . S
C2056 C2055 1.398 . S
C2056 C2057 1.391 . S
C2057 H2045 0.950 . S
C2057 C2053 1.393 . S
C2057 C2056 1.391 . S
C2058 H2048 0.950 . S
C2058 C2059 1.386 . S
C2058 C2060 1.391 . S
C2059 C2058 1.386 . S
C2059 C2063 1.393 . S
C2060 H2049 0.950 . S
C2060 C2058 1.391 . S
C2060 C2061 1.400 . S
C2061 C2055 1.491 . S
C2061 C2060 1.400 . S
C2061 C2062 1.398 . S
C2062 H2050 0.950 . S
C2062 C2061 1.398 . S
C2062 C2063 1.391 . S
C2063 H2051 0.950 . S
C2063 C2059 1.393 . S
C2063 C2062 1.391 . S
H2064 C2072 0.950 . S
H2065 C2077 0.950 . S
H2066 C2074 0.950 . S
H2067 C2076 0.950 . S
H2068 C2078 0.950 . S
H2069 C2080 0.950 . S
H2070 C2082 0.950 . S
H2071 C2083 0.950 . S
C2072 H2064 0.950 . S
C2072 C2073 1.386 . S
C2072 C2074 1.391 . S
C2073 C2072 1.386 . S
C2073 C2077 1.393 . S
C2074 H2066 0.950 . S
C2074 C2072 1.391 . S
C2074 C2075 1.400 . S
C2075 C2074 1.400 . S
C2075 C2076 1.398 . S
C2075 C2081 1.491 . S
C2076 H2067 0.950 . S
C2076 C2075 1.398 . S
C2076 C2077 1.391 . S
C2077 H2065 0.950 . S
C2077 C2073 1.393 . S
C2077 C2076 1.391 . S
C2078 H2068 0.950 . S
C2078 C2079 1.386 . S
C2078 C2080 1.391 . S
C2079 C2078 1.386 . S
C2079 C2083 1.393 . S
C2080 H2069 0.950 . S
C2080 C2078 1.391 . S
C2080 C2081 1.400 . S
C2081 C2075 1.491 . S
C2081 C2080 1.400 . S
C2081 C2082 1.398 . S
C2082 H2070 0.950 . S
C2082 C2081 1.398 . S
C2082 C2083 1.391 . S
C2083 H2071 0.950 . S
C2083 C2079 1.393 . S
C2083 C2082 1.391 . S
H2084 C2092 0.950 . S
H2085 C2097 0.950 . S
H2086 C2094 0.950 . S
H2087 C2096 0.950 . S
H2088 C2098 0.950 . S
H2089 C2100 0.950 . S
H2090 C2102 0.950 . S
H2091 C2103 0.950 . S
C2092 H2084 0.950 . S
C2092 C2093 1.386 . S
C2092 C2094 1.391 . S
C2093 C2092 1.386 . S
C2093 C2097 1.393 . S
C2094 H2086 0.950 . S
C2094 C2092 1.391 . S
C2094 C2095 1.400 . S
C2095 C2094 1.400 . S
C2095 C2096 1.398 . S
C2095 C2101 1.491 . S
C2096 H2087 0.950 . S
C2096 C2095 1.398 . S
C2096 C2097 1.391 . S
C2097 H2085 0.950 . S
C2097 C2093 1.393 . S
C2097 C2096 1.391 . S
C2098 H2088 0.950 . S
C2098 C2099 1.386 . S
C2098 C2100 1.391 . S
C2099 C2098 1.386 . S
C2099 C2103 1.393 . S
C2100 H2089 0.950 . S
C2100 C2098 1.391 . S
C2100 C2101 1.400 . S
C2101 C2095 1.491 . S
C2101 C2100 1.400 . S
C2101 C2102 1.398 . S
C2102 H2090 0.950 . S
C2102 C2101 1.398 . S
C2102 C2103 1.391 . S
C2103 H2091 0.950 . S
C2103 C2099 1.393 . S
C2103 C2102 1.391 . S
H2104 C2112 0.950 . S
H2105 C2117 0.950 . S
H2106 C2114 0.950 . S
H2107 C2116 0.950 . S
H2108 C2118 0.950 . S
H2109 C2120 0.950 . S
H2110 C2122 0.950 . S
H2111 C2123 0.950 . S
C2112 H2104 0.950 . S
C2112 C2113 1.386 . S
C2112 C2114 1.391 . S
C2113 C2112 1.386 . S
C2113 C2117 1.393 . S
C2114 H2106 0.950 . S
C2114 C2112 1.391 . S
C2114 C2115 1.400 . S
C2115 C2114 1.400 . S
C2115 C2116 1.398 . S
C2115 C2121 1.491 . S
C2116 H2107 0.950 . S
C2116 C2115 1.398 . S
C2116 C2117 1.391 . S
C2117 H2105 0.950 . S
C2117 C2113 1.393 . S
C2117 C2116 1.391 . S
C2118 H2108 0.950 . S
C2118 C2119 1.386 . S
C2118 C2120 1.391 . S
C2119 C2118 1.386 . S
C2119 C2123 1.393 . S
C2120 H2109 0.950 . S
C2120 C2118 1.391 . S
C2120 C2121 1.400 . S
C2121 C2115 1.491 . S
C2121 C2120 1.400 . S
C2121 C2122 1.398 . S
C2122 H2110 0.950 . S
C2122 C2121 1.398 . S
C2122 C2123 1.391 . S
C2123 H2111 0.950 . S
C2123 C2119 1.393 . S
C2123 C2122 1.391 . S
H2124 C2132 0.950 . S
H2125 C2137 0.950 . S
H2126 C2134 0.950 . S
H2127 C2136 0.950 . S
H2128 C2138 0.950 . S
H2129 C2140 0.950 . S
H2130 C2142 0.950 . S
H2131 C2143 0.950 . S
C2132 H2124 0.950 . S
C2132 C2133 1.386 . S
C2132 C2134 1.391 . S
C2133 C2132 1.386 . S
C2133 C2137 1.393 . S
C2134 H2126 0.950 . S
C2134 C2132 1.391 . S
C2134 C2135 1.400 . S
C2135 C2134 1.400 . S
C2135 C2136 1.398 . S
C2135 C2141 1.491 . S
C2136 H2127 0.950 . S
C2136 C2135 1.398 . S
C2136 C2137 1.391 . S
C2137 H2125 0.950 . S
C2137 C2133 1.393 . S
C2137 C2136 1.391 . S
C2138 H2128 0.950 . S
C2138 C2139 1.386 . S
C2138 C2140 1.391 . S
C2139 C2138 1.386 . S
C2139 C2143 1.393 . S
C2140 H2129 0.950 . S
C2140 C2138 1.391 . S
C2140 C2141 1.400 . S
C2141 C2135 1.491 . S
C2141 C2140 1.400 . S
C2141 C2142 1.398 . S
C2142 H2130 0.950 . S
C2142 C2141 1.398 . S
C2142 C2143 1.391 . S
C2143 H2131 0.950 . S
C2143 C2139 1.393 . S
C2143 C2142 1.391 . S
H2144 C2152 0.950 . S
H2145 C2157 0.950 . S
H2146 C2154 0.950 . S
H2147 C2156 0.950 . S
H2148 C2158 0.950 . S
H2149 C2160 0.950 . S
H2150 C2162 0.950 . S
H2151 C2163 0.950 . S
C2152 H2144 0.950 . S
C2152 C2153 1.386 . S
C2152 C2154 1.391 . S
C2153 C2152 1.386 . S
C2153 C2157 1.393 . S
C2154 H2146 0.950 . S
C2154 C2152 1.391 . S
C2154 C2155 1.400 . S
C2155 C2154 1.400 . S
C2155 C2156 1.398 . S
C2155 C2161 1.491 . S
C2156 H2147 0.950 . S
C2156 C2155 1.398 . S
C2156 C2157 1.391 . S
C2157 H2145 0.950 . S
C2157 C2153 1.393 . S
C2157 C2156 1.391 . S
C2158 H2148 0.950 . S
C2158 C2159 1.386 . S
C2158 C2160 1.391 . S
C2159 C2158 1.386 . S
C2159 C2163 1.393 . S
C2160 H2149 0.950 . S
C2160 C2158 1.391 . S
C2160 C2161 1.400 . S
C2161 C2155 1.491 . S
C2161 C2160 1.400 . S
C2161 C2162 1.398 . S
C2162 H2150 0.950 . S
C2162 C2161 1.398 . S
C2162 C2163 1.391 . S
C2163 H2151 0.950 . S
C2163 C2159 1.393 . S
C2163 C2162 1.391 . S
H2164 C2172 0.950 . S
H2165 C2177 0.950 . S
H2166 C2174 0.950 . S
H2167 C2176 0.950 . S
H2168 C2178 0.950 . S
H2169 C2180 0.950 . S
H2170 C2182 0.950 . S
H2171 C2183 0.950 . S
C2172 H2164 0.950 . S
C2172 C2173 1.386 . S
C2172 C2174 1.391 . S
C2173 C2172 1.386 . S
C2173 C2177 1.393 . S
C2174 H2166 0.950 . S
C2174 C2172 1.391 . S
C2174 C2175 1.400 . S
C2175 C2174 1.400 . S
C2175 C2176 1.398 . S
C2175 C2181 1.491 . S
C2176 H2167 0.950 . S
C2176 C2175 1.398 . S
C2176 C2177 1.391 . S
C2177 H2165 0.950 . S
C2177 C2173 1.393 . S
C2177 C2176 1.391 . S
C2178 H2168 0.950 . S
C2178 C2179 1.386 . S
C2178 C2180 1.391 . S
C2179 C2178 1.386 . S
C2179 C2183 1.393 . S
C2180 H2169 0.950 . S
C2180 C2178 1.391 . S
C2180 C2181 1.400 . S
C2181 C2175 1.491 . S
C2181 C2180 1.400 . S
C2181 C2182 1.398 . S
C2182 H2170 0.950 . S
C2182 C2181 1.398 . S
C2182 C2183 1.391 . S
C2183 H2171 0.950 . S
C2183 C2179 1.393 . S
C2183 C2182 1.391 . S
H2184 C2192 0.950 . S
H2185 C2197 0.950 . S
H2186 C2194 0.950 . S
H2187 C2196 0.950 . S
H2188 C2198 0.950 . S
H2189 C2200 0.950 . S
H2190 C2202 0.950 . S
H2191 C2203 0.950 . S
C2192 H2184 0.950 . S
C2192 C2193 1.386 . S
C2192 C2194 1.391 . S
C2193 C2192 1.386 . S
C2193 C2197 1.393 . S
C2194 H2186 0.950 . S
C2194 C2192 1.391 . S
C2194 C2195 1.400 . S
C2195 C2194 1.400 . S
C2195 C2196 1.398 . S
C2195 C2201 1.491 . S
C2196 H2187 0.950 . S
C2196 C2195 1.398 . S
C2196 C2197 1.391 . S
C2197 H2185 0.950 . S
C2197 C2193 1.393 . S
C2197 C2196 1.391 . S
C2198 H2188 0.950 . S
C2198 C2199 1.386 . S
C2198 C2200 1.391 . S
C2199 C2198 1.386 . S
C2199 C2203 1.393 . S
C2200 H2189 0.950 . S
C2200 C2198 1.391 . S
C2200 C2201 1.400 . S
C2201 C2195 1.491 . S
C2201 C2200 1.400 . S
C2201 C2202 1.398 . S
C2202 H2190 0.950 . S
C2202 C2201 1.398 . S
C2202 C2203 1.391 . S
C2203 H2191 0.950 . S
C2203 C2199 1.393 . S
C2203 C2202 1.391 . S
H2204 C2212 0.950 . S
H2205 C2217 0.950 . S
H2206 C2214 0.950 . S
H2207 C2216 0.950 . S
H2208 C2218 0.950 . S
H2209 C2220 0.950 . S
H2210 C2222 0.950 . S
H2211 C2223 0.950 . S
C2212 H2204 0.950 . S
C2212 C2213 1.386 . S
C2212 C2214 1.391 . S
C2213 C2212 1.386 . S
C2213 C2217 1.393 . S
C2214 H2206 0.950 . S
C2214 C2212 1.391 . S
C2214 C2215 1.400 . S
C2215 C2214 1.400 . S
C2215 C2216 1.398 . S
C2215 C2221 1.491 . S
C2216 H2207 0.950 . S
C2216 C2215 1.398 . S
C2216 C2217 1.391 . S
C2217 H2205 0.950 . S
C2217 C2213 1.393 . S
C2217 C2216 1.391 . S
C2218 H2208 0.950 . S
C2218 C2219 1.386 . S
C2218 C2220 1.391 . S
C2219 C2218 1.386 . S
C2219 C2223 1.393 . S
C2220 H2209 0.950 . S
C2220 C2218 1.391 . S
C2220 C2221 1.400 . S
C2221 C2215 1.491 . S
C2221 C2220 1.400 . S
C2221 C2222 1.398 . S
C2222 H2210 0.950 . S
C2222 C2221 1.398 . S
C2222 C2223 1.391 . S
C2223 H2211 0.950 . S
C2223 C2219 1.393 . S
C2223 C2222 1.391 . S
H2224 C2232 0.950 . S
H2225 C2237 0.950 . S
H2226 C2234 0.950 . S
H2227 C2236 0.950 . S
H2228 C2238 0.950 . S
H2229 C2240 0.950 . S
H2230 C2242 0.950 . S
H2231 C2243 0.950 . S
C2232 H2224 0.950 . S
C2232 C2233 1.386 . S
C2232 C2234 1.391 . S
C2233 C2232 1.386 . S
C2233 C2237 1.393 . S
C2234 H2226 0.950 . S
C2234 C2232 1.391 . S
C2234 C2235 1.400 . S
C2235 C2234 1.400 . S
C2235 C2236 1.398 . S
C2235 C2241 1.491 . S
C2236 H2227 0.950 . S
C2236 C2235 1.398 . S
C2236 C2237 1.391 . S
C2237 H2225 0.950 . S
C2237 C2233 1.393 . S
C2237 C2236 1.391 . S
C2238 H2228 0.950 . S
C2238 C2239 1.386 . S
C2238 C2240 1.391 . S
C2239 C2238 1.386 . S
C2239 C2243 1.393 . S
C2240 H2229 0.950 . S
C2240 C2238 1.391 . S
C2240 C2241 1.400 . S
C2241 C2235 1.491 . S
C2241 C2240 1.400 . S
C2241 C2242 1.398 . S
C2242 H2230 0.950 . S
C2242 C2241 1.398 . S
C2242 C2243 1.391 . S
C2243 H2231 0.950 . S
C2243 C2239 1.393 . S
C2243 C2242 1.391 . S
H2244 C2252 0.950 . S
H2245 C2257 0.950 . S
H2246 C2254 0.950 . S
H2247 C2256 0.950 . S
H2248 C2258 0.950 . S
H2249 C2260 0.950 . S
H2250 C2262 0.950 . S
H2251 C2263 0.950 . S
C2252 H2244 0.950 . S
C2252 C2253 1.386 . S
C2252 C2254 1.391 . S
C2253 C2252 1.386 . S
C2253 C2257 1.393 . S
C2254 H2246 0.950 . S
C2254 C2252 1.391 . S
C2254 C2255 1.400 . S
C2255 C2254 1.400 . S
C2255 C2256 1.398 . S
C2255 C2261 1.491 . S
C2256 H2247 0.950 . S
C2256 C2255 1.398 . S
C2256 C2257 1.391 . S
C2257 H2245 0.950 . S
C2257 C2253 1.393 . S
C2257 C2256 1.391 . S
C2258 H2248 0.950 . S
C2258 C2259 1.386 . S
C2258 C2260 1.391 . S
C2259 C2258 1.386 . S
C2259 C2263 1.393 . S
C2260 H2249 0.950 . S
C2260 C2258 1.391 . S
C2260 C2261 1.400 . S
C2261 C2255 1.491 . S
C2261 C2260 1.400 . S
C2261 C2262 1.398 . S
C2262 H2250 0.950 . S
C2262 C2261 1.398 . S
C2262 C2263 1.391 . S
C2263 H2251 0.950 . S
C2263 C2259 1.393 . S
C2263 C2262 1.391 . S
H2264 C2272 0.950 . S
H2265 C2277 0.950 . S
H2266 C2274 0.950 . S
H2267 C2276 0.950 . S
H2268 C2278 0.950 . S
H2269 C2280 0.950 . S
H2270 C2282 0.950 . S
H2271 C2283 0.950 . S
C2272 H2264 0.950 . S
C2272 C2273 1.386 . S
C2272 C2274 1.391 . S
C2273 C2272 1.386 . S
C2273 C2277 1.393 . S
C2274 H2266 0.950 . S
C2274 C2272 1.391 . S
C2274 C2275 1.400 . S
C2275 C2274 1.400 . S
C2275 C2276 1.398 . S
C2275 C2281 1.491 . S
C2276 H2267 0.950 . S
C2276 C2275 1.398 . S
C2276 C2277 1.391 . S
C2277 H2265 0.950 . S
C2277 C2273 1.393 . S
C2277 C2276 1.391 . S
C2278 H2268 0.950 . S
C2278 C2279 1.386 . S
C2278 C2280 1.391 . S
C2279 C2278 1.386 . S
C2279 C2283 1.393 . S
C2280 H2269 0.950 . S
C2280 C2278 1.391 . S
C2280 C2281 1.400 . S
C2281 C2275 1.491 . S
C2281 C2280 1.400 . S
C2281 C2282 1.398 . S
C2282 H2270 0.950 . S
C2282 C2281 1.398 . S
C2282 C2283 1.391 . S
C2283 H2271 0.950 . S
C2283 C2279 1.393 . S
C2283 C2282 1.391 . S
H2284 C2292 0.950 . S
H2285 C2297 0.950 . S
H2286 C2294 0.950 . S
H2287 C2296 0.950 . S
H2288 C2298 0.950 . S
H2289 C2300 0.950 . S
H2290 C2302 0.950 . S
H2291 C2303 0.950 . S
C2292 H2284 0.950 . S
C2292 C2293 1.386 . S
C2292 C2294 1.391 . S
C2293 C2292 1.386 . S
C2293 C2297 1.393 . S
C2294 H2286 0.950 . S
C2294 C2292 1.391 . S
C2294 C2295 1.400 . S
C2295 C2294 1.400 . S
C2295 C2296 1.398 . S
C2295 C2301 1.491 . S
C2296 H2287 0.950 . S
C2296 C2295 1.398 . S
C2296 C2297 1.391 . S
C2297 H2285 0.950 . S
C2297 C2293 1.393 . S
C2297 C2296 1.391 . S
C2298 H2288 0.950 . S
C2298 C2299 1.386 . S
C2298 C2300 1.391 . S
C2299 C2298 1.386 . S
C2299 C2303 1.393 . S
C2300 H2289 0.950 . S
C2300 C2298 1.391 . S
C2300 C2301 1.400 . S
C2301 C2295 1.491 . S
C2301 C2300 1.400 . S
C2301 C2302 1.398 . S
C2302 H2290 0.950 . S
C2302 C2301 1.398 . S
C2302 C2303 1.391 . S
C2303 H2291 0.950 . S
C2303 C2299 1.393 . S
C2303 C2302 1.391 . S
H2304 C2312 0.950 . S
H2305 C2317 0.950 . S
H2306 C2314 0.950 . S
H2307 C2316 0.950 . S
H2308 C2318 0.950 . S
H2309 C2320 0.950 . S
H2310 C2322 0.950 . S
H2311 C2323 0.950 . S
C2312 H2304 0.950 . S
C2312 C2313 1.386 . S
C2312 C2314 1.391 . S
C2313 C2312 1.386 . S
C2313 C2317 1.393 . S
C2314 H2306 0.950 . S
C2314 C2312 1.391 . S
C2314 C2315 1.400 . S
C2315 C2314 1.400 . S
C2315 C2316 1.398 . S
C2315 C2321 1.491 . S
C2316 H2307 0.950 . S
C2316 C2315 1.398 . S
C2316 C2317 1.391 . S
C2317 H2305 0.950 . S
C2317 C2313 1.393 . S
C2317 C2316 1.391 . S
C2318 H2308 0.950 . S
C2318 C2319 1.386 . S
C2318 C2320 1.391 . S
C2319 C2318 1.386 . S
C2319 C2323 1.393 . S
C2320 H2309 0.950 . S
C2320 C2318 1.391 . S
C2320 C2321 1.400 . S
C2321 C2315 1.491 . S
C2321 C2320 1.400 . S
C2321 C2322 1.398 . S
C2322 H2310 0.950 . S
C2322 C2321 1.398 . S
C2322 C2323 1.391 . S
C2323 H2311 0.950 . S
C2323 C2319 1.393 . S
C2323 C2322 1.391 . S
H2324 C2332 0.950 . S
H2325 C2337 0.950 . S
H2326 C2334 0.950 . S
H2327 C2336 0.950 . S
H2328 C2338 0.950 . S
H2329 C2340 0.950 . S
H2330 C2342 0.950 . S
H2331 C2343 0.950 . S
C2332 H2324 0.950 . S
C2332 C2333 1.386 . S
C2332 C2334 1.391 . S
C2333 C2332 1.386 . S
C2333 C2337 1.393 . S
C2334 H2326 0.950 . S
C2334 C2332 1.391 . S
C2334 C2335 1.400 . S
C2335 C2334 1.400 . S
C2335 C2336 1.398 . S
C2335 C2341 1.491 . S
C2336 H2327 0.950 . S
C2336 C2335 1.398 . S
C2336 C2337 1.391 . S
C2337 H2325 0.950 . S
C2337 C2333 1.393 . S
C2337 C2336 1.391 . S
C2338 H2328 0.950 . S
C2338 C2339 1.386 . S
C2338 C2340 1.391 . S
C2339 C2338 1.386 . S
C2339 C2343 1.393 . S
C2340 H2329 0.950 . S
C2340 C2338 1.391 . S
C2340 C2341 1.400 . S
C2341 C2335 1.491 . S
C2341 C2340 1.400 . S
C2341 C2342 1.398 . S
C2342 H2330 0.950 . S
C2342 C2341 1.398 . S
C2342 C2343 1.391 . S
C2343 H2331 0.950 . S
C2343 C2339 1.393 . S
C2343 C2342 1.391 . S
H2344 C2352 0.950 . S
H2345 C2357 0.950 . S
H2346 C2354 0.950 . S
H2347 C2356 0.950 . S
H2348 C2358 0.950 . S
H2349 C2360 0.950 . S
H2350 C2362 0.950 . S
H2351 C2363 0.950 . S
C2352 H2344 0.950 . S
C2352 C2353 1.386 . S
C2352 C2354 1.391 . S
C2353 C2352 1.386 . S
C2353 C2357 1.393 . S
C2354 H2346 0.950 . S
C2354 C2352 1.391 . S
C2354 C2355 1.400 . S
C2355 C2354 1.400 . S
C2355 C2356 1.398 . S
C2355 C2361 1.491 . S
C2356 H2347 0.950 . S
C2356 C2355 1.398 . S
C2356 C2357 1.391 . S
C2357 H2345 0.950 . S
C2357 C2353 1.393 . S
C2357 C2356 1.391 . S
C2358 H2348 0.950 . S
C2358 C2359 1.386 . S
C2358 C2360 1.391 . S
C2359 C2358 1.386 . S
C2359 C2363 1.393 . S
C2360 H2349 0.950 . S
C2360 C2358 1.391 . S
C2360 C2361 1.400 . S
C2361 C2355 1.491 . S
C2361 C2360 1.400 . S
C2361 C2362 1.398 . S
C2362 H2350 0.950 . S
C2362 C2361 1.398 . S
C2362 C2363 1.391 . S
C2363 H2351 0.950 . S
C2363 C2359 1.393 . S
C2363 C2362 1.391 . S
H2364 C2372 0.950 . S
H2365 C2377 0.950 . S
H2366 C2374 0.950 . S
H2367 C2376 0.950 . S
H2368 C2378 0.950 . S
H2369 C2380 0.950 . S
H2370 C2382 0.950 . S
H2371 C2383 0.950 . S
C2372 H2364 0.950 . S
C2372 C2373 1.386 . S
C2372 C2374 1.391 . S
C2373 C2372 1.386 . S
C2373 C2377 1.393 . S
C2374 H2366 0.950 . S
C2374 C2372 1.391 . S
C2374 C2375 1.400 . S
C2375 C2374 1.400 . S
C2375 C2376 1.398 . S
C2375 C2381 1.491 . S
C2376 H2367 0.950 . S
C2376 C2375 1.398 . S
C2376 C2377 1.391 . S
C2377 H2365 0.950 . S
C2377 C2373 1.393 . S
C2377 C2376 1.391 . S
C2378 H2368 0.950 . S
C2378 C2379 1.386 . S
C2378 C2380 1.391 . S
C2379 C2378 1.386 . S
C2379 C2383 1.393 . S
C2380 H2369 0.950 . S
C2380 C2378 1.391 . S
C2380 C2381 1.400 . S
C2381 C2375 1.491 . S
C2381 C2380 1.400 . S
C2381 C2382 1.398 . S
C2382 H2370 0.950 . S
C2382 C2381 1.398 . S
C2382 C2383 1.391 . S
C2383 H2371 0.950 . S
C2383 C2379 1.393 . S
C2383 C2382 1.391 . S
H2384 C2392 0.950 . S
H2385 C2397 0.950 . S
H2386 C2394 0.950 . S
H2387 C2396 0.950 . S
H2388 C2398 0.950 . S
H2389 C2400 0.950 . S
H2390 C2402 0.950 . S
H2391 C2403 0.950 . S
C2392 H2384 0.950 . S
C2392 C2393 1.386 . S
C2392 C2394 1.391 . S
C2393 C2392 1.386 . S
C2393 C2397 1.393 . S
C2394 H2386 0.950 . S
C2394 C2392 1.391 . S
C2394 C2395 1.400 . S
C2395 C2394 1.400 . S
C2395 C2396 1.398 . S
C2395 C2401 1.491 . S
C2396 H2387 0.950 . S
C2396 C2395 1.398 . S
C2396 C2397 1.391 . S
C2397 H2385 0.950 . S
C2397 C2393 1.393 . S
C2397 C2396 1.391 . S
C2398 H2388 0.950 . S
C2398 C2399 1.386 . S
C2398 C2400 1.391 . S
C2399 C2398 1.386 . S
C2399 C2403 1.393 . S
C2400 H2389 0.950 . S
C2400 C2398 1.391 . S
C2400 C2401 1.400 . S
C2401 C2395 1.491 . S
C2401 C2400 1.400 . S
C2401 C2402 1.398 . S
C2402 H2390 0.950 . S
C2402 C2401 1.398 . S
C2402 C2403 1.391 . S
C2403 H2391 0.950 . S
C2403 C2399 1.393 . S
C2403 C2402 1.391 . S
H2404 C2412 0.950 . S
H2405 C2417 0.950 . S
H2406 C2414 0.950 . S
H2407 C2416 0.950 . S
H2408 C2418 0.950 . S
H2409 C2420 0.950 . S
H2410 C2422 0.950 . S
H2411 C2423 0.950 . S
C2412 H2404 0.950 . S
C2412 C2413 1.386 . S
C2412 C2414 1.391 . S
C2413 C2412 1.386 . S
C2413 C2417 1.393 . S
C2414 H2406 0.950 . S
C2414 C2412 1.391 . S
C2414 C2415 1.400 . S
C2415 C2414 1.400 . S
C2415 C2416 1.398 . S
C2415 C2421 1.491 . S
C2416 H2407 0.950 . S
C2416 C2415 1.398 . S
C2416 C2417 1.391 . S
C2417 H2405 0.950 . S
C2417 C2413 1.393 . S
C2417 C2416 1.391 . S
C2418 H2408 0.950 . S
C2418 C2419 1.386 . S
C2418 C2420 1.391 . S
C2419 C2418 1.386 . S
C2419 C2423 1.393 . S
C2420 H2409 0.950 . S
C2420 C2418 1.391 . S
C2420 C2421 1.400 . S
C2421 C2415 1.491 . S
C2421 C2420 1.400 . S
C2421 C2422 1.398 . S
C2422 H2410 0.950 . S
C2422 C2421 1.398 . S
C2422 C2423 1.391 . S
C2423 H2411 0.950 . S
C2423 C2419 1.393 . S
C2423 C2422 1.391 . S
H2424 C2432 0.950 . S
H2425 C2437 0.950 . S
H2426 C2434 0.950 . S
H2427 C2436 0.950 . S
H2428 C2438 0.950 . S
H2429 C2440 0.950 . S
H2430 C2442 0.950 . S
H2431 C2443 0.950 . S
C2432 H2424 0.950 . S
C2432 C2433 1.386 . S
C2432 C2434 1.391 . S
C2433 C2432 1.386 . S
C2433 C2437 1.393 . S
C2434 H2426 0.950 . S
C2434 C2432 1.391 . S
C2434 C2435 1.400 . S
C2435 C2434 1.400 . S
C2435 C2436 1.398 . S
C2435 C2441 1.491 . S
C2436 H2427 0.950 . S
C2436 C2435 1.398 . S
C2436 C2437 1.391 . S
C2437 H2425 0.950 . S
C2437 C2433 1.393 . S
C2437 C2436 1.391 . S
C2438 H2428 0.950 . S
C2438 C2439 1.386 . S
C2438 C2440 1.391 . S
C2439 C2438 1.386 . S
C2439 C2443 1.393 . S
C2440 H2429 0.950 . S
C2440 C2438 1.391 . S
C2440 C2441 1.400 . S
C2441 C2435 1.491 . S
C2441 C2440 1.400 . S
C2441 C2442 1.398 . S
C2442 H2430 0.950 . S
C2442 C2441 1.398 . S
C2442 C2443 1.391 . S
C2443 H2431 0.950 . S
C2443 C2439 1.393 . S
C2443 C2442 1.391 . S
H2444 C2452 0.950 . S
H2445 C2457 0.950 . S
H2446 C2454 0.950 . S
H2447 C2456 0.950 . S
H2448 C2458 0.950 . S
H2449 C2460 0.950 . S
H2450 C2462 0.950 . S
H2451 C2463 0.950 . S
C2452 H2444 0.950 . S
C2452 C2453 1.386 . S
C2452 C2454 1.391 . S
C2453 C2452 1.386 . S
C2453 C2457 1.393 . S
C2454 H2446 0.950 . S
C2454 C2452 1.391 . S
C2454 C2455 1.400 . S
C2455 C2454 1.400 . S
C2455 C2456 1.398 . S
C2455 C2461 1.491 . S
C2456 H2447 0.950 . S
C2456 C2455 1.398 . S
C2456 C2457 1.391 . S
C2457 H2445 0.950 . S
C2457 C2453 1.393 . S
C2457 C2456 1.391 . S
C2458 H2448 0.950 . S
C2458 C2459 1.386 . S
C2458 C2460 1.391 . S
C2459 C2458 1.386 . S
C2459 C2463 1.393 . S
C2460 H2449 0.950 . S
C2460 C2458 1.391 . S
C2460 C2461 1.400 . S
C2461 C2455 1.491 . S
C2461 C2460 1.400 . S
C2461 C2462 1.398 . S
C2462 H2450 0.950 . S
C2462 C2461 1.398 . S
C2462 C2463 1.391 . S
C2463 H2451 0.950 . S
C2463 C2459 1.393 . S
C2463 C2462 1.391 . S
H2464 C2472 0.950 . S
H2465 C2477 0.950 . S
H2466 C2474 0.950 . S
H2467 C2476 0.950 . S
H2468 C2478 0.950 . S
H2469 C2480 0.950 . S
H2470 C2482 0.950 . S
H2471 C2483 0.950 . S
C2472 H2464 0.950 . S
C2472 C2473 1.386 . S
C2472 C2474 1.391 . S
C2473 C2472 1.386 . S
C2473 C2477 1.393 . S
C2474 H2466 0.950 . S
C2474 C2472 1.391 . S
C2474 C2475 1.400 . S
C2475 C2474 1.400 . S
C2475 C2476 1.398 . S
C2475 C2481 1.491 . S
C2476 H2467 0.950 . S
C2476 C2475 1.398 . S
C2476 C2477 1.391 . S
C2477 H2465 0.950 . S
C2477 C2473 1.393 . S
C2477 C2476 1.391 . S
C2478 H2468 0.950 . S
C2478 C2479 1.386 . S
C2478 C2480 1.391 . S
C2479 C2478 1.386 . S
C2479 C2483 1.393 . S
C2480 H2469 0.950 . S
C2480 C2478 1.391 . S
C2480 C2481 1.400 . S
C2481 C2475 1.491 . S
C2481 C2480 1.400 . S
C2481 C2482 1.398 . S
C2482 H2470 0.950 . S
C2482 C2481 1.398 . S
C2482 C2483 1.391 . S
C2483 H2471 0.950 . S
C2483 C2479 1.393 . S
C2483 C2482 1.391 . S
H2484 C2492 0.950 . S
H2485 C2497 0.950 . S
H2486 C2494 0.950 . S
H2487 C2496 0.950 . S
H2488 C2498 0.950 . S
H2489 C2500 0.950 . S
H2490 C2502 0.950 . S
H2491 C2503 0.950 . S
C2492 H2484 0.950 . S
C2492 C2493 1.386 . S
C2492 C2494 1.391 . S
C2493 C2492 1.386 . S
C2493 C2497 1.393 . S
C2494 H2486 0.950 . S
C2494 C2492 1.391 . S
C2494 C2495 1.400 . S
C2495 C2494 1.400 . S
C2495 C2496 1.398 . S
C2495 C2501 1.491 . S
C2496 H2487 0.950 . S
C2496 C2495 1.398 . S
C2496 C2497 1.391 . S
C2497 H2485 0.950 . S
C2497 C2493 1.393 . S
C2497 C2496 1.391 . S
C2498 H2488 0.950 . S
C2498 C2499 1.386 . S
C2498 C2500 1.391 . S
C2499 C2498 1.386 . S
C2499 C2503 1.393 . S
C2500 H2489 0.950 . S
C2500 C2498 1.391 . S
C2500 C2501 1.400 . S
C2501 C2495 1.491 . S
C2501 C2500 1.400 . S
C2501 C2502 1.398 . S
C2502 H2490 0.950 . S
C2502 C2501 1.398 . S
C2502 C2503 1.391 . S
C2503 H2491 0.950 . S
C2503 C2499 1.393 . S
C2503 C2502 1.391 . S
H2504 C2512 0.950 . S
H2505 C2517 0.950 . S
H2506 C2514 0.950 . S
H2507 C2516 0.950 . S
H2508 C2518 0.950 . S
H2509 C2520 0.950 . S
H2510 C2522 0.950 . S
H2511 C2523 0.950 . S
C2512 H2504 0.950 . S
C2512 C2513 1.386 . S
C2512 C2514 1.391 . S
C2513 C2512 1.386 . S
C2513 C2517 1.393 . S
C2514 H2506 0.950 . S
C2514 C2512 1.391 . S
C2514 C2515 1.400 . S
C2515 C2514 1.400 . S
C2515 C2516 1.398 . S
C2515 C2521 1.491 . S
C2516 H2507 0.950 . S
C2516 C2515 1.398 . S
C2516 C2517 1.391 . S
C2517 H2505 0.950 . S
C2517 C2513 1.393 . S
C2517 C2516 1.391 . S
C2518 H2508 0.950 . S
C2518 C2519 1.386 . S
C2518 C2520 1.391 . S
C2519 C2518 1.386 . S
C2519 C2523 1.393 . S
C2520 H2509 0.950 . S
C2520 C2518 1.391 . S
C2520 C2521 1.400 . S
C2521 C2515 1.491 . S
C2521 C2520 1.400 . S
C2521 C2522 1.398 . S
C2522 H2510 0.950 . S
C2522 C2521 1.398 . S
C2522 C2523 1.391 . S
C2523 H2511 0.950 . S
C2523 C2519 1.393 . S
C2523 C2522 1.391 . S
H2524 C2532 0.950 . S
H2525 C2537 0.950 . S
H2526 C2534 0.950 . S
H2527 C2536 0.950 . S
H2528 C2538 0.950 . S
H2529 C2540 0.950 . S
H2530 C2542 0.950 . S
H2531 C2543 0.950 . S
C2532 H2524 0.950 . S
C2532 C2533 1.386 . S
C2532 C2534 1.391 . S
C2533 C2532 1.386 . S
C2533 C2537 1.393 . S
C2534 H2526 0.950 . S
C2534 C2532 1.391 . S
C2534 C2535 1.400 . S
C2535 C2534 1.400 . S
C2535 C2536 1.398 . S
C2535 C2541 1.491 . S
C2536 H2527 0.950 . S
C2536 C2535 1.398 . S
C2536 C2537 1.391 . S
C2537 H2525 0.950 . S
C2537 C2533 1.393 . S
C2537 C2536 1.391 . S
C2538 H2528 0.950 . S
C2538 C2539 1.386 . S
C2538 C2540 1.391 . S
C2539 C2538 1.386 . S
C2539 C2543 1.393 . S
C2540 H2529 0.950 . S
C2540 C2538 1.391 . S
C2540 C2541 1.400 . S
C2541 C2535 1.491 . S
C2541 C2540 1.400 . S
C2541 C2542 1.398 . S
C2542 H2530 0.950 . S
C2542 C2541 1.398 . S
C2542 C2543 1.391 . S
C2543 H2531 0.950 . S
C2543 C2539 1.393 . S
C2543 C2542 1.391 . S
H2544 C2552 0.950 . S
H2545 C2557 0.950 . S
H2546 C2554 0.950 . S
H2547 C2556 0.950 . S
H2548 C2558 0.950 . S
H2549 C2560 0.950 . S
H2550 C2562 0.950 . S
H2551 C2563 0.950 . S
C2552 H2544 0.950 . S
C2552 C2553 1.386 . S
C2552 C2554 1.391 . S
C2553 C2552 1.386 . S
C2553 C2557 1.393 . S
C2554 H2546 0.950 . S
C2554 C2552 1.391 . S
C2554 C2555 1.400 . S
C2555 C2554 1.400 . S
C2555 C2556 1.398 . S
C2555 C2561 1.491 . S
C2556 H2547 0.950 . S
C2556 C2555 1.398 . S
C2556 C2557 1.391 . S
C2557 H2545 0.950 . S
C2557 C2553 1.393 . S
C2557 C2556 1.391 . S
C2558 H2548 0.950 . S
C2558 C2559 1.386 . S
C2558 C2560 1.391 . S
C2559 C2558 1.386 . S
C2559 C2563 1.393 . S
C2560 H2549 0.950 . S
C2560 C2558 1.391 . S
C2560 C2561 1.400 . S
C2561 C2555 1.491 . S
C2561 C2560 1.400 . S
C2561 C2562 1.398 . S
C2562 H2550 0.950 . S
C2562 C2561 1.398 . S
C2562 C2563 1.391 . S
C2563 H2551 0.950 . S
C2563 C2559 1.393 . S
C2563 C2562 1.391 . S
H2564 C2572 0.950 . S
H2565 C2577 0.950 . S
H2566 C2574 0.950 . S
H2567 C2576 0.950 . S
H2568 C2578 0.950 . S
H2569 C2580 0.950 . S
H2570 C2582 0.950 . S
H2571 C2583 0.950 . S
C2572 H2564 0.950 . S
C2572 C2573 1.386 . S
C2572 C2574 1.391 . S
C2573 C2572 1.386 . S
C2573 C2577 1.393 . S
C2574 H2566 0.950 . S
C2574 C2572 1.391 . S
C2574 C2575 1.400 . S
C2575 C2574 1.400 . S
C2575 C2576 1.398 . S
C2575 C2581 1.491 . S
C2576 H2567 0.950 . S
C2576 C2575 1.398 . S
C2576 C2577 1.391 . S
C2577 H2565 0.950 . S
C2577 C2573 1.393 . S
C2577 C2576 1.391 . S
C2578 H2568 0.950 . S
C2578 C2579 1.386 . S
C2578 C2580 1.391 . S
C2579 C2578 1.386 . S
C2579 C2583 1.393 . S
C2580 H2569 0.950 . S
C2580 C2578 1.391 . S
C2580 C2581 1.400 . S
C2581 C2575 1.491 . S
C2581 C2580 1.400 . S
C2581 C2582 1.398 . S
C2582 H2570 0.950 . S
C2582 C2581 1.398 . S
C2582 C2583 1.391 . S
C2583 H2571 0.950 . S
C2583 C2579 1.393 . S
C2583 C2582 1.391 . S
H2584 C2592 0.950 . S
H2585 C2597 0.950 . S
H2586 C2594 0.950 . S
H2587 C2596 0.950 . S
H2588 C2598 0.950 . S
H2589 C2600 0.950 . S
H2590 C2602 0.950 . S
H2591 C2603 0.950 . S
C2592 H2584 0.950 . S
C2592 C2593 1.386 . S
C2592 C2594 1.391 . S
C2593 C2592 1.386 . S
C2593 C2597 1.393 . S
C2594 H2586 0.950 . S
C2594 C2592 1.391 . S
C2594 C2595 1.400 . S
C2595 C2594 1.400 . S
C2595 C2596 1.398 . S
C2595 C2601 1.491 . S
C2596 H2587 0.950 . S
C2596 C2595 1.398 . S
C2596 C2597 1.391 . S
C2597 H2585 0.950 . S
C2597 C2593 1.393 . S
C2597 C2596 1.391 . S
C2598 H2588 0.950 . S
C2598 C2599 1.386 . S
C2598 C2600 1.391 . S
C2599 C2598 1.386 . S
C2599 C2603 1.393 . S
C2600 H2589 0.950 . S
C2600 C2598 1.391 . S
C2600 C2601 1.400 . S
C2601 C2595 1.491 . S
C2601 C2600 1.400 . S
C2601 C2602 1.398 . S
C2602 H2590 0.950 . S
C2602 C2601 1.398 . S
C2602 C2603 1.391 . S
C2603 H2591 0.950 . S
C2603 C2599 1.393 . S
C2603 C2602 1.391 . S
H2604 C2612 0.950 . S
H2605 C2617 0.950 . S
H2606 C2614 0.950 . S
H2607 C2616 0.950 . S
H2608 C2618 0.950 . S
H2609 C2620 0.950 . S
H2610 C2622 0.950 . S
H2611 C2623 0.950 . S
C2612 H2604 0.950 . S
C2612 C2613 1.386 . S
C2612 C2614 1.391 . S
C2613 C2612 1.386 . S
C2613 C2617 1.393 . S
C2614 H2606 0.950 . S
C2614 C2612 1.391 . S
C2614 C2615 1.400 . S
C2615 C2614 1.400 . S
C2615 C2616 1.398 . S
C2615 C2621 1.491 . S
C2616 H2607 0.950 . S
C2616 C2615 1.398 . S
C2616 C2617 1.391 . S
C2617 H2605 0.950 . S
C2617 C2613 1.393 . S
C2617 C2616 1.391 . S
C2618 H2608 0.950 . S
C2618 C2619 1.386 . S
C2618 C2620 1.391 . S
C2619 C2618 1.386 . S
C2619 C2623 1.393 . S
C2620 H2609 0.950 . S
C2620 C2618 1.391 . S
C2620 C2621 1.400 . S
C2621 C2615 1.491 . S
C2621 C2620 1.400 . S
C2621 C2622 1.398 . S
C2622 H2610 0.950 . S
C2622 C2621 1.398 . S
C2622 C2623 1.391 . S
C2623 H2611 0.950 . S
C2623 C2619 1.393 . S
C2623 C2622 1.391 . S
H2624 C2632 0.950 . S
H2625 C2637 0.950 . S
H2626 C2634 0.950 . S
H2627 C2636 0.950 . S
H2628 C2638 0.950 . S
H2629 C2640 0.950 . S
H2630 C2642 0.950 . S
H2631 C2643 0.950 . S
C2632 H2624 0.950 . S
C2632 C2633 1.386 . S
C2632 C2634 1.391 . S
C2633 C2632 1.386 . S
C2633 C2637 1.393 . S
C2634 H2626 0.950 . S
C2634 C2632 1.391 . S
C2634 C2635 1.400 . S
C2635 C2634 1.400 . S
C2635 C2636 1.398 . S
C2635 C2641 1.491 . S
C2636 H2627 0.950 . S
C2636 C2635 1.398 . S
C2636 C2637 1.391 . S
C2637 H2625 0.950 . S
C2637 C2633 1.393 . S
C2637 C2636 1.391 . S
C2638 H2628 0.950 . S
C2638 C2639 1.386 . S
C2638 C2640 1.391 . S
C2639 C2638 1.386 . S
C2639 C2643 1.393 . S
C2640 H2629 0.950 . S
C2640 C2638 1.391 . S
C2640 C2641 1.400 . S
C2641 C2635 1.491 . S
C2641 C2640 1.400 . S
C2641 C2642 1.398 . S
C2642 H2630 0.950 . S
C2642 C2641 1.398 . S
C2642 C2643 1.391 . S
C2643 H2631 0.950 . S
C2643 C2639 1.393 . S
C2643 C2642 1.391 . S
H2644 C2652 0.950 . S
H2645 C2657 0.950 . S
H2646 C2654 0.950 . S
H2647 C2656 0.950 . S
H2648 C2658 0.950 . S
H2649 C2660 0.950 . S
H2650 C2662 0.950 . S
H2651 C2663 0.950 . S
C2652 H2644 0.950 . S
C2652 C2653 1.386 . S
C2652 C2654 1.391 . S
C2653 C2652 1.386 . S
C2653 C2657 1.393 . S
C2654 H2646 0.950 . S
C2654 C2652 1.391 . S
C2654 C2655 1.400 . S
C2655 C2654 1.400 . S
C2655 C2656 1.398 . S
C2655 C2661 1.491 . S
C2656 H2647 0.950 . S
C2656 C2655 1.398 . S
C2656 C2657 1.391 . S
C2657 H2645 0.950 . S
C2657 C2653 1.393 . S
C2657 C2656 1.391 . S
C2658 H2648 0.950 . S
C2658 C2659 1.386 . S
C2658 C2660 1.391 . S
C2659 C2658 1.386 . S
C2659 C2663 1.393 . S
C2660 H2649 0.950 . S
C2660 C2658 1.391 . S
C2660 C2661 1.400 . S
C2661 C2655 1.491 . S
C2661 C2660 1.400 . S
C2661 C2662 1.398 . S
C2662 H2650 0.950 . S
C2662 C2661 1.398 . S
C2662 C2663 1.391 . S
C2663 H2651 0.950 . S
C2663 C2659 1.393 . S
C2663 C2662 1.391 . S
H2664 C2672 0.950 . S
H2665 C2677 0.950 . S
H2666 C2674 0.950 . S
H2667 C2676 0.950 . S
H2668 C2678 0.950 . S
H2669 C2680 0.950 . S
H2670 C2682 0.950 . S
H2671 C2683 0.950 . S
C2672 H2664 0.950 . S
C2672 C2673 1.386 . S
C2672 C2674 1.391 . S
C2673 C2672 1.386 . S
C2673 C2677 1.393 . S
C2674 H2666 0.950 . S
C2674 C2672 1.391 . S
C2674 C2675 1.400 . S
C2675 C2674 1.400 . S
C2675 C2676 1.398 . S
C2675 C2681 1.491 . S
C2676 H2667 0.950 . S
C2676 C2675 1.398 . S
C2676 C2677 1.391 . S
C2677 H2665 0.950 . S
C2677 C2673 1.393 . S
C2677 C2676 1.391 . S
C2678 H2668 0.950 . S
C2678 C2679 1.386 . S
C2678 C2680 1.391 . S
C2679 C2678 1.386 . S
C2679 C2683 1.393 . S
C2680 H2669 0.950 . S
C2680 C2678 1.391 . S
C2680 C2681 1.400 . S
C2681 C2675 1.491 . S
C2681 C2680 1.400 . S
C2681 C2682 1.398 . S
C2682 H2670 0.950 . S
C2682 C2681 1.398 . S
C2682 C2683 1.391 . S
C2683 H2671 0.950 . S
C2683 C2679 1.393 . S
C2683 C2682 1.391 . S
H2684 C2692 0.950 . S
H2685 C2697 0.950 . S
H2686 C2694 0.950 . S
H2687 C2696 0.950 . S
H2688 C2698 0.950 . S
H2689 C2700 0.950 . S
H2690 C2702 0.950 . S
H2691 C2703 0.950 . S
C2692 H2684 0.950 . S
C2692 C2693 1.386 . S
C2692 C2694 1.391 . S
C2693 C2692 1.386 . S
C2693 C2697 1.393 . S
C2694 H2686 0.950 . S
C2694 C2692 1.391 . S
C2694 C2695 1.400 . S
C2695 C2694 1.400 . S
C2695 C2696 1.398 . S
C2695 C2701 1.491 . S
C2696 H2687 0.950 . S
C2696 C2695 1.398 . S
C2696 C2697 1.391 . S
C2697 H2685 0.950 . S
C2697 C2693 1.393 . S
C2697 C2696 1.391 . S
C2698 H2688 0.950 . S
C2698 C2699 1.386 . S
C2698 C2700 1.391 . S
C2699 C2698 1.386 . S
C2699 C2703 1.393 . S
C2700 H2689 0.950 . S
C2700 C2698 1.391 . S
C2700 C2701 1.400 . S
C2701 C2695 1.491 . S
C2701 C2700 1.400 . S
C2701 C2702 1.398 . S
C2702 H2690 0.950 . S
C2702 C2701 1.398 . S
C2702 C2703 1.391 . S
C2703 H2691 0.950 . S
C2703 C2699 1.393 . S
C2703 C2702 1.391 . S
H2704 C2712 0.950 . S
H2705 C2717 0.950 . S
H2706 C2714 0.950 . S
H2707 C2716 0.950 . S
H2708 C2718 0.950 . S
H2709 C2720 0.950 . S
H2710 C2722 0.950 . S
H2711 C2723 0.950 . S
C2712 H2704 0.950 . S
C2712 C2713 1.386 . S
C2712 C2714 1.391 . S
C2713 C2712 1.386 . S
C2713 C2717 1.393 . S
C2714 H2706 0.950 . S
C2714 C2712 1.391 . S
C2714 C2715 1.400 . S
C2715 C2714 1.400 . S
C2715 C2716 1.398 . S
C2715 C2721 1.491 . S
C2716 H2707 0.950 . S
C2716 C2715 1.398 . S
C2716 C2717 1.391 . S
C2717 H2705 0.950 . S
C2717 C2713 1.393 . S
C2717 C2716 1.391 . S
C2718 H2708 0.950 . S
C2718 C2719 1.386 . S
C2718 C2720 1.391 . S
C2719 C2718 1.386 . S
C2719 C2723 1.393 . S
C2720 H2709 0.950 . S
C2720 C2718 1.391 . S
C2720 C2721 1.400 . S
C2721 C2715 1.491 . S
C2721 C2720 1.400 . S
C2721 C2722 1.398 . S
C2722 H2710 0.950 . S
C2722 C2721 1.398 . S
C2722 C2723 1.391 . S
C2723 H2711 0.950 . S
C2723 C2719 1.393 . S
C2723 C2722 1.391 . S
H2724 C2732 0.950 . S
H2725 C2737 0.950 . S
H2726 C2734 0.950 . S
H2727 C2736 0.950 . S
H2728 C2738 0.950 . S
H2729 C2740 0.950 . S
H2730 C2742 0.950 . S
H2731 C2743 0.950 . S
C2732 H2724 0.950 . S
C2732 C2733 1.386 . S
C2732 C2734 1.391 . S
C2733 C2732 1.386 . S
C2733 C2737 1.393 . S
C2734 H2726 0.950 . S
C2734 C2732 1.391 . S
C2734 C2735 1.400 . S
C2735 C2734 1.400 . S
C2735 C2736 1.398 . S
C2735 C2741 1.491 . S
C2736 H2727 0.950 . S
C2736 C2735 1.398 . S
C2736 C2737 1.391 . S
C2737 H2725 0.950 . S
C2737 C2733 1.393 . S
C2737 C2736 1.391 . S
C2738 H2728 0.950 . S
C2738 C2739 1.386 . S
C2738 C2740 1.391 . S
C2739 C2738 1.386 . S
C2739 C2743 1.393 . S
C2740 H2729 0.950 . S
C2740 C2738 1.391 . S
C2740 C2741 1.400 . S
C2741 C2735 1.491 . S
C2741 C2740 1.400 . S
C2741 C2742 1.398 . S
C2742 H2730 0.950 . S
C2742 C2741 1.398 . S
C2742 C2743 1.391 . S
C2743 H2731 0.950 . S
C2743 C2739 1.393 . S
C2743 C2742 1.391 . S
H2744 C2752 0.950 . S
H2745 C2757 0.950 . S
H2746 C2754 0.950 . S
H2747 C2756 0.950 . S
H2748 C2758 0.950 . S
H2749 C2760 0.950 . S
H2750 C2762 0.950 . S
H2751 C2763 0.950 . S
C2752 H2744 0.950 . S
C2752 C2753 1.386 . S
C2752 C2754 1.391 . S
C2753 C2752 1.386 . S
C2753 C2757 1.393 . S
C2754 H2746 0.950 . S
C2754 C2752 1.391 . S
C2754 C2755 1.400 . S
C2755 C2754 1.400 . S
C2755 C2756 1.398 . S
C2755 C2761 1.491 . S
C2756 H2747 0.950 . S
C2756 C2755 1.398 . S
C2756 C2757 1.391 . S
C2757 H2745 0.950 . S
C2757 C2753 1.393 . S
C2757 C2756 1.391 . S
C2758 H2748 0.950 . S
C2758 C2759 1.386 . S
C2758 C2760 1.391 . S
C2759 C2758 1.386 . S
C2759 C2763 1.393 . S
C2760 H2749 0.950 . S
C2760 C2758 1.391 . S
C2760 C2761 1.400 . S
C2761 C2755 1.491 . S
C2761 C2760 1.400 . S
C2761 C2762 1.398 . S
C2762 H2750 0.950 . S
C2762 C2761 1.398 . S
C2762 C2763 1.391 . S
C2763 H2751 0.950 . S
C2763 C2759 1.393 . S
C2763 C2762 1.391 . S
H2764 C2772 0.950 . S
H2765 C2777 0.950 . S
H2766 C2774 0.950 . S
H2767 C2776 0.950 . S
H2768 C2778 0.950 . S
H2769 C2780 0.950 . S
H2770 C2782 0.950 . S
H2771 C2783 0.950 . S
C2772 H2764 0.950 . S
C2772 C2773 1.386 . S
C2772 C2774 1.391 . S
C2773 C2772 1.386 . S
C2773 C2777 1.393 . S
C2774 H2766 0.950 . S
C2774 C2772 1.391 . S
C2774 C2775 1.400 . S
C2775 C2774 1.400 . S
C2775 C2776 1.398 . S
C2775 C2781 1.491 . S
C2776 H2767 0.950 . S
C2776 C2775 1.398 . S
C2776 C2777 1.391 . S
C2777 H2765 0.950 . S
C2777 C2773 1.393 . S
C2777 C2776 1.391 . S
C2778 H2768 0.950 . S
C2778 C2779 1.386 . S
C2778 C2780 1.391 . S
C2779 C2778 1.386 . S
C2779 C2783 1.393 . S
C2780 H2769 0.950 . S
C2780 C2778 1.391 . S
C2780 C2781 1.400 . S
C2781 C2775 1.491 . S
C2781 C2780 1.400 . S
C2781 C2782 1.398 . S
C2782 H2770 0.950 . S
C2782 C2781 1.398 . S
C2782 C2783 1.391 . S
C2783 H2771 0.950 . S
C2783 C2779 1.393 . S
C2783 C2782 1.391 . S
H2784 C2792 0.950 . S
H2785 C2797 0.950 . S
H2786 C2794 0.950 . S
H2787 C2796 0.950 . S
H2788 C2798 0.950 . S
H2789 C2800 0.950 . S
H2790 C2802 0.950 . S
H2791 C2803 0.950 . S
C2792 H2784 0.950 . S
C2792 C2793 1.386 . S
C2792 C2794 1.391 . S
C2793 C2792 1.386 . S
C2793 C2797 1.393 . S
C2794 H2786 0.950 . S
C2794 C2792 1.391 . S
C2794 C2795 1.400 . S
C2795 C2794 1.400 . S
C2795 C2796 1.398 . S
C2795 C2801 1.491 . S
C2796 H2787 0.950 . S
C2796 C2795 1.398 . S
C2796 C2797 1.391 . S
C2797 H2785 0.950 . S
C2797 C2793 1.393 . S
C2797 C2796 1.391 . S
C2798 H2788 0.950 . S
C2798 C2799 1.386 . S
C2798 C2800 1.391 . S
C2799 C2798 1.386 . S
C2799 C2803 1.393 . S
C2800 H2789 0.950 . S
C2800 C2798 1.391 . S
C2800 C2801 1.400 . S
C2801 C2795 1.491 . S
C2801 C2800 1.400 . S
C2801 C2802 1.398 . S
C2802 H2790 0.950 . S
C2802 C2801 1.398 . S
C2802 C2803 1.391 . S
C2803 H2791 0.950 . S
C2803 C2799 1.393 . S
C2803 C2802 1.391 . S
H2804 C2812 0.950 . S
H2805 C2817 0.950 . S
H2806 C2814 0.950 . S
H2807 C2816 0.950 . S
H2808 C2818 0.950 . S
H2809 C2820 0.950 . S
H2810 C2822 0.950 . S
H2811 C2823 0.950 . S
C2812 H2804 0.950 . S
C2812 C2813 1.386 . S
C2812 C2814 1.391 . S
C2813 C2812 1.386 . S
C2813 C2817 1.393 . S
C2814 H2806 0.950 . S
C2814 C2812 1.391 . S
C2814 C2815 1.400 . S
C2815 C2814 1.400 . S
C2815 C2816 1.398 . S
C2815 C2821 1.491 . S
C2816 H2807 0.950 . S
C2816 C2815 1.398 . S
C2816 C2817 1.391 . S
C2817 H2805 0.950 . S
C2817 C2813 1.393 . S
C2817 C2816 1.391 . S
C2818 H2808 0.950 . S
C2818 C2819 1.386 . S
C2818 C2820 1.391 . S
C2819 C2818 1.386 . S
C2819 C2823 1.393 . S
C2820 H2809 0.950 . S
C2820 C2818 1.391 . S
C2820 C2821 1.400 . S
C2821 C2815 1.491 . S
C2821 C2820 1.400 . S
C2821 C2822 1.398 . S
C2822 H2810 0.950 . S
C2822 C2821 1.398 . S
C2822 C2823 1.391 . S
C2823 H2811 0.950 . S
C2823 C2819 1.393 . S
C2823 C2822 1.391 . S
C919 N364 1.938 . S
C913 C4 1.998 . S
C939 C391 1.185 . S
C933 C21 1.176 . S
C953 C26 1.907 . S
C959 C405 1.901 . S
C979 N423 1.040 . S
C973 C43 1.062 . S
C993 C54 1.018 . S
C999 C428 1.020 . S
C1013 C60 1.908 . S
C1019 C368 1.875 . S
C1033 C76 1.016 . S
C1039 N387 1.019 . S
C1059 N400 2.062 . S
C1053 C81 2.060 . S
C1079 N446 1.658 . S
C1073 C10 1.727 . S
C1093 C15 1.344 . S
C1099 N469 1.307 . S
C1113 C27 1.730 . S
C1119 N492 1.691 . S
C1139 N525 1.344 . S
C1133 C38 1.402 . S
C1153 C49 1.358 . S
C1159 C552 1.356 . S
C1179 C575 1.809 . S
C1173 C59 1.807 . S
C1193 C71 1.238 . S
C1199 C598 1.253 . S
C1219 C612 1.761 . S
C1213 C87 1.756 . S
C1233 C5 1.780 . S
C1239 C529 1.776 . S
C1253 C48 1.344 . S
C1259 N571 1.330 . S
C1279 N594 1.627 . S
C1273 C65 1.676 . S
C1293 C70 1.318 . S
C1299 N607 1.303 . S
C1319 N548 1.734 . S
C1313 C82 1.764 . S
C1339 C474 1.873 . S
C1333 C32 1.864 . S
C1353 C37 1.292 . S
C1359 C497 1.295 . S
C1379 C451 1.381 . S
C1373 C16 1.369 . S
C1399 C644 2.029 . S
C1393 C92 2.018 . S
C1413 C109 1.117 . S
C1419 C658 1.116 . S
C1433 C114 1.859 . S
C1439 N686 1.823 . S
C1459 N699 0.951 . S
C1453 C131 0.984 . S
C1473 C142 1.072 . S
C1479 C704 1.074 . S
C1493 C148 1.834 . S
C1499 N640 1.814 . S
C1513 C164 1.108 . S
C1519 N653 1.110 . S
C1533 C169 1.960 . S
C1539 C690 1.975 . S
C1559 N538 1.712 . S
C1553 C98 1.755 . S
C1573 C103 1.289 . S
C1579 N722 1.268 . S
C1599 N584 1.659 . S
C1593 C115 1.677 . S
C1613 C126 1.375 . S
C1619 C759 1.370 . S
C1633 C137 1.507 . S
C1639 C460 1.507 . S
C1659 C773 1.886 . S
C1653 C147 1.875 . S
C1673 C159 1.341 . S
C1679 C506 1.343 . S
C1699 N791 1.676 . S
C1693 C175 1.729 . S
C1713 C93 1.755 . S
C1719 N755 1.725 . S
C1739 N768 1.305 . S
C1733 C136 1.331 . S
C1753 C153 1.679 . S
C1759 N502 1.647 . S
C1779 C796 1.205 . S
C1773 C158 1.203 . S
C1793 C170 1.753 . S
C1799 N456 1.732 . S
C1813 C120 1.760 . S
C1819 C727 1.773 . S
C1833 C125 1.345 . S
C1839 C589 1.346 . S
C1853 C104 1.340 . S
C1859 C543 1.371 . S
C1873 C180 2.039 . S
C1879 C681 2.037 . S
C1899 C713 1.107 . S
C1893 C197 1.097 . S
C1913 C202 1.856 . S
C1919 N630 1.776 . S
C1933 C219 1.022 . S
C1939 N663 1.004 . S
C1953 C230 1.051 . S
C1959 C667 1.044 . S
C1973 C236 1.967 . S
C1979 N676 1.886 . S
C1999 N709 0.975 . S
C1993 C252 0.995 . S
C2013 C257 2.098 . S
C2019 C635 2.085 . S
C2039 N824 1.728 . S
C2033 C186 1.779 . S
C2053 C191 1.266 . S
C2059 N561 1.224 . S
C2079 N847 1.574 . S
C2073 C203 1.612 . S
C2093 C214 1.412 . S
C2099 N617 1.376 . S
C2113 C225 1.387 . S
C2119 C865 1.385 . S
C2133 C235 1.900 . S
C2139 C483 1.903 . S
C2159 N883 1.229 . S
C2153 C247 1.255 . S
C2173 C263 1.786 . S
C2179 C520 1.793 . S
C2199 C621 1.817 . S
C2193 C181 1.818 . S
C2219 N479 1.341 . S
C2213 C224 1.368 . S
C2233 C241 1.781 . S
C2239 C888 1.782 . S
C2253 C246 1.240 . S
C2259 N515 1.224 . S
C2279 N860 1.734 . S
C2273 C258 1.776 . S
C2299 C566 1.772 . S
C2293 C208 1.757 . S
C2319 C851 1.342 . S
C2313 C213 1.341 . S
C2339 C828 1.351 . S
C2333 C192 1.315 . S
C2353 C268 1.966 . S
C2359 N410 1.900 . S
C2373 C285 1.096 . S
C2379 C437 1.079 . S
C2399 C359 1.905 . S
C2393 C290 1.917 . S
C2419 N377 0.917 . S
C2413 C307 0.950 . S
C2439 C382 1.142 . S
C2433 C318 1.151 . S
C2459 C414 1.817 . S
C2453 C324 1.849 . S
C2479 N433 1.125 . S
C2473 C340 1.158 . S
C2493 C345 2.030 . S
C2499 N354 2.030 . S
C2513 C274 1.683 . S
C2519 N870 1.644 . S
C2539 N778 1.238 . S
C2533 C279 1.249 . S
C2559 C897 1.834 . S
C2553 C291 1.818 . S
C2579 C805 1.185 . S
C2573 C302 1.186 . S
C2593 C313 1.503 . S
C2599 C819 1.513 . S
C2619 C736 1.827 . S
C2613 C323 1.828 . S
C2639 C842 1.427 . S
C2633 C335 1.430 . S
C2653 C351 1.758 . S
C2659 N745 1.706 . S
C2679 N801 1.685 . S
C2673 C269 1.695 . S
C2699 N732 1.270 . S
C2693 C312 1.289 . S
C2719 N837 1.577 . S
C2713 C329 1.625 . S
C2733 C334 1.280 . S
C2739 C750 1.275 . S
C2753 C346 1.766 . S
C2759 N814 1.732 . S
C2773 C296 1.890 . S
C2779 C782 1.892 . S
C2793 C301 1.303 . S
C2799 N893 1.269 . S
C2819 C874 1.345 . S
C2813 C280 1.332 . S
