# Generated by pormake.
# Topology zzz, (3,6)-cn, num edge types: 1
# Building blocks:
#     Node 0, Type 0, BuildingBlock: CUQRIR_clean_linker_1, # of connection points: 3
#     Node 1, Type 0, BuildingBlock: CUQRIR_clean_linker_1, # of connection points: 3
#     Node 2, Type 0, BuildingBlock: CUQRIR_clean_linker_1, # of connection points: 3
#     Node 3, Type 0, BuildingBlock: CUQRIR_clean_linker_1, # of connection points: 3
#     Node 4, Type 0, BuildingBlock: CUQRIR_clean_linker_1, # of connection points: 3
#     Node 5, Type 0, BuildingBlock: CUQRIR_clean_linker_1, # of connection points: 3
#     Node 6, Type 0, BuildingBlock: CUQRIR_clean_linker_1, # of connection points: 3
#     Node 7, Type 0, BuildingBlock: CUQRIR_clean_linker_1, # of connection points: 3
#     Node 8, Type 1, BuildingBlock: VOLQOD_clean_sbu_1, # of connection points: 6
#     Node 9, Type 1, BuildingBlock: VOLQOD_clean_sbu_1, # of connection points: 6
#     Node 10, Type 1, BuildingBlock: VOLQOD_clean_sbu_1, # of connection points: 6
#     Node 11, Type 1, BuildingBlock: VOLQOD_clean_sbu_1, # of connection points: 6
#     Edge 12, Type (0, 1), BuildingBlock: KIFKEQ_clean_linker_1, # of connection points: 2
#     Edge 13, Type (0, 1), BuildingBlock: KIFKEQ_clean_linker_1, # of connection points: 2
#     Edge 14, Type (0, 1), BuildingBlock: KIFKEQ_clean_linker_1, # of connection points: 2
#     Edge 15, Type (0, 1), BuildingBlock: KIFKEQ_clean_linker_1, # of connection points: 2
#     Edge 16, Type (0, 1), BuildingBlock: KIFKEQ_clean_linker_1, # of connection points: 2
#     Edge 17, Type (0, 1), BuildingBlock: KIFKEQ_clean_linker_1, # of connection points: 2
#     Edge 18, Type (0, 1), BuildingBlock: KIFKEQ_clean_linker_1, # of connection points: 2
#     Edge 19, Type (0, 1), BuildingBlock: KIFKEQ_clean_linker_1, # of connection points: 2
#     Edge 20, Type (0, 1), BuildingBlock: KIFKEQ_clean_linker_1, # of connection points: 2
#     Edge 21, Type (0, 1), BuildingBlock: KIFKEQ_clean_linker_1, # of connection points: 2
#     Edge 22, Type (0, 1), BuildingBlock: KIFKEQ_clean_linker_1, # of connection points: 2
#     Edge 23, Type (0, 1), BuildingBlock: KIFKEQ_clean_linker_1, # of connection points: 2
#     Edge 24, Type (0, 1), BuildingBlock: KIFKEQ_clean_linker_1, # of connection points: 2
#     Edge 25, Type (0, 1), BuildingBlock: KIFKEQ_clean_linker_1, # of connection points: 2
#     Edge 26, Type (0, 1), BuildingBlock: KIFKEQ_clean_linker_1, # of connection points: 2
#     Edge 27, Type (0, 1), BuildingBlock: KIFKEQ_clean_linker_1, # of connection points: 2
#     Edge 28, Type (0, 1), BuildingBlock: KIFKEQ_clean_linker_1, # of connection points: 2
#     Edge 29, Type (0, 1), BuildingBlock: KIFKEQ_clean_linker_1, # of connection points: 2
#     Edge 30, Type (0, 1), BuildingBlock: KIFKEQ_clean_linker_1, # of connection points: 2
#     Edge 31, Type (0, 1), BuildingBlock: KIFKEQ_clean_linker_1, # of connection points: 2
#     Edge 32, Type (0, 1), BuildingBlock: KIFKEQ_clean_linker_1, # of connection points: 2
#     Edge 33, Type (0, 1), BuildingBlock: KIFKEQ_clean_linker_1, # of connection points: 2
#     Edge 34, Type (0, 1), BuildingBlock: KIFKEQ_clean_linker_1, # of connection points: 2
#     Edge 35, Type (0, 1), BuildingBlock: KIFKEQ_clean_linker_1, # of connection points: 2
# Relax obj value: 0.216
# Max RMSD: 0.242
# Mean RMSD: 0.126
data_MOF--net-zzz--node1-VOLQOD_clean_sbu_1--node2-CUQRIR_clean_linker_1--edge1-KIFKEQ_clean_linker_1
_symmetry_space_group_name_H-M    P1
_symmetry_Int_Tables_number       1
_symmetry_cell_setting            triclinic
loop_
_symmetry_equiv_pos_as_xyz
'x, y, z'
_cell_length_a     49.088178
_cell_length_b     48.888204
_cell_length_c     15.941578
_cell_angle_alpha  90.219002
_cell_angle_beta   89.738965
_cell_angle_gamma 90.720426
loop_
_atom_site_label
_atom_site_type_symbol
_atom_site_fract_x
_atom_site_fract_y
_atom_site_fract_z
_atom_type_partial_charge
C0 C 0.75718 0.51141 0.15905 0.0
N1 N 0.78392 0.50484 0.15625 0.0
N2 N 0.74435 0.50235 0.08914 0.0
C3 C 0.74393 0.52788 0.22729 0.0
C4 C 0.76403 0.48998 0.04397 0.0
N5 N 0.78814 0.49151 0.08451 0.0
C6 C 0.75921 0.47547 0.96182 0.0
H7 H 0.73692 0.51383 0.27765 0.0
H8 H 0.72597 0.53888 0.20314 0.0
H9 H 0.75865 0.54277 0.25479 0.0
H10 H 0.76185 0.49031 0.90985 0.0
H11 H 0.73811 0.4671 0.95889 0.0
H12 H 0.77383 0.45858 0.95273 0.0
C13 C 0.00542 0.74343 0.19139 0.0
N14 N 0.01054 0.77065 0.19359 0.0
N15 N 0.01821 0.73185 0.12506 0.0
C16 C 0.98551 0.72879 0.24777 0.0
C17 C 0.03106 0.75303 0.08678 0.0
N18 N 0.02634 0.77672 0.12817 0.0
C19 C 0.04644 0.75068 0.00532 0.0
H20 H 0.98819 0.7357 0.31361 0.0
H21 H 0.98805 0.7063 0.24392 0.0
H22 H 0.96451 0.73392 0.22839 0.0
H23 H 0.03169 0.74987 0.9528 0.0
H24 H 0.05822 0.73147 0.00384 0.0
H25 H 0.06051 0.76837 0.99614 0.0
C26 C 0.75152 0.01529 0.16737 0.0
N27 N 0.72534 0.02178 0.18379 0.0
N28 N 0.7597 0.02627 0.09341 0.0
C29 C 0.76893 0.99799 0.22266 0.0
C30 C 0.73742 0.0394 0.06509 0.0
N31 N 0.71654 0.03679 0.12032 0.0
C32 C 0.73503 0.05191 0.97929 0.0
H33 H 0.79083 0.00318 0.2138 0.0
H34 H 0.7657 0.97616 0.20569 0.0
H35 H 0.76318 0.00072 0.28955 0.0
H36 H 0.75142 0.045 0.93637 0.0
H37 H 0.73639 0.0745 0.98546 0.0
H38 H 0.71501 0.04666 0.95109 0.0
C39 C 0.50924 0.74991 0.18949 0.0
N40 N 0.50176 0.72351 0.20105 0.0
N41 N 0.49776 0.75973 0.11889 0.0
C42 C 0.52744 0.76608 0.24719 0.0
C43 C 0.4832 0.73829 0.08777 0.0
N44 N 0.4855 0.71627 0.13815 0.0
C45 C 0.46901 0.73812 0.00425 0.0
H46 H 0.525 0.75898 0.31287 0.0
H47 H 0.52299 0.78824 0.24351 0.0
H48 H 0.54893 0.76297 0.228 0.0
H49 H 0.47743 0.75415 0.96211 0.0
H50 H 0.44704 0.74208 0.01459 0.0
H51 H 0.47089 0.71791 0.97301 0.0
C52 C 0.25234 0.5157 0.17347 0.0
N53 N 0.22605 0.52213 0.15949 0.0
N54 N 0.26052 0.52529 0.24946 0.0
C55 C 0.27007 0.50076 0.11194 0.0
C56 C 0.23806 0.53763 0.28107 0.0
N57 N 0.21724 0.53595 0.22594 0.0
C58 C 0.23539 0.54812 0.36971 0.0
H59 H 0.26767 0.47843 0.12224 0.0
H60 H 0.29182 0.50654 0.12035 0.0
H61 H 0.26382 0.50521 0.04663 0.0
H62 H 0.24075 0.57023 0.37088 0.0
H63 H 0.24924 0.53724 0.41263 0.0
H64 H 0.21422 0.54565 0.39337 0.0
C65 C 0.04745 0.25059 0.14192 0.0
N66 N 0.04441 0.22305 0.14218 0.0
N67 N 0.04842 0.26036 0.22154 0.0
C68 C 0.04565 0.2681 0.06508 0.0
C69 C 0.04593 0.23775 0.26973 0.0
N70 N 0.04307 0.21509 0.22172 0.0
C71 C 0.04626 0.23808 0.36414 0.0
H72 H 0.0538 0.25719 0.00939 0.0
H73 H 0.05695 0.28767 0.07417 0.0
H74 H 0.02394 0.27279 0.05342 0.0
H75 H 0.02543 0.24199 0.38825 0.0
H76 H 0.05983 0.25478 0.38721 0.0
H77 H 0.05324 0.21821 0.38908 0.0
C78 C 0.25717 0.00147 0.19767 0.0
N79 N 0.28354 0.99542 0.1817 0.0
N80 N 0.24902 0.99016 0.27141 0.0
C81 C 0.23918 0.01732 0.14017 0.0
C82 C 0.27135 0.97716 0.29954 0.0
N83 N 0.2922 0.98019 0.24475 0.0
C84 C 0.27332 0.96329 0.3834 0.0
H85 H 0.24095 0.03937 0.15632 0.0
H86 H 0.21755 0.01087 0.14776 0.0
H87 H 0.24559 0.01464 0.07384 0.0
H88 H 0.26925 0.94108 0.37497 0.0
H89 H 0.25818 0.97152 0.42846 0.0
H90 H 0.29403 0.96592 0.41007 0.0
C91 C 0.47221 0.25114 0.18168 0.0
N92 N 0.47986 0.27772 0.17482 0.0
N93 N 0.48107 0.24076 0.25521 0.0
C94 C 0.45692 0.23527 0.1159 0.0
C95 C 0.49455 0.26181 0.29225 0.0
N96 N 0.494 0.28421 0.24307 0.0
C97 C 0.50788 0.26051 0.37693 0.0
H98 H 0.43534 0.24174 0.1165 0.0
H99 H 0.45768 0.21293 0.12748 0.0
H100 H 0.46545 0.23994 0.05289 0.0
H101 H 0.52985 0.25622 0.36814 0.0
H102 H 0.4988 0.24401 0.41601 0.0
H103 H 0.50604 0.28033 0.41047 0.0
O104 O 0.06806 -0.00155 0.6579 0.0
Zn105 Zn 0.03403 0.00099 0.73242 0.0
O106 O 0.00032 0.99499 0.66625 0.0
Zn107 Zn 0.97751 0.02742 0.66641 0.0
Zn108 Zn 0.01032 0.98691 0.55165 0.0
Zn109 Zn 0.97867 0.9644 0.70855 0.0
O110 O 0.94 0.02014 0.71455 0.0
O111 O 0.94213 0.97655 0.75194 0.0
O112 O 0.03366 0.03898 0.78649 0.0
O113 O 0.9947 0.05577 0.73999 0.0
O114 O 0.97579 0.0452 0.55256 0.0
O115 O 0.00214 0.01802 0.47677 0.0
O116 O 0.99278 0.9528 0.50861 0.0
O117 O 0.03672 0.97178 0.82372 0.0
O118 O 0.97344 0.93428 0.62123 0.0
O119 O 0.99782 0.94854 0.80597 0.0
C120 C 0.07085 0.98934 0.58324 0.0
C121 C 0.92941 -0.00092 0.74919 0.0
C122 C 0.98814 0.03955 0.48441 0.0
C123 C 0.01643 0.0583 0.78262 0.0
C124 C 0.97972 0.9333 0.54357 0.0
C125 C 0.02003 0.95277 0.84503 0.0
O126 O 0.0503 0.98254 0.53938 0.0
O127 O 0.49175 0.06401 0.64234 0.0
Zn128 Zn 0.4944 0.0343 0.73072 0.0
O129 O 0.50465 -0.00077 0.67681 0.0
Zn130 Zn 0.47542 0.97264 0.69161 0.0
Zn131 Zn 0.51062 0.00389 0.55648 0.0
Zn132 Zn 0.53784 0.98482 0.72652 0.0
O133 O 0.48774 0.94009 0.75533 0.0
O134 O 0.53164 0.94766 0.78002 0.0
O135 O 0.45724 0.03119 0.78936 0.0
O136 O 0.44434 0.98896 0.75457 0.0
O137 O 0.46009 0.95961 0.58277 0.0
O138 O 0.48467 0.98135 0.4867 0.0
O139 O 0.54892 0.99492 0.5227 0.0
O140 O 0.52285 0.04607 0.81707 0.0
O141 O 0.56883 0.98313 0.64187 0.0
O142 O 0.55027 0.01006 0.81707 0.0
C143 C 0.4962 0.06416 0.56339 0.0
C144 C 0.51028 0.93273 0.78651 0.0
C145 C 0.46552 0.9648 0.50643 0.0
C146 C 0.43964 0.01174 0.79022 0.0
C147 C 0.56984 0.98748 0.56313 0.0
C148 C 0.54334 0.03332 0.84534 0.0
O149 O 0.50383 0.04273 0.52474 0.0
O150 O 0.432 0.49745 0.65559 0.0
Zn151 Zn 0.46209 0.49461 0.74238 0.0
O152 O 0.49808 0.50162 0.68879 0.0
Zn153 Zn 0.52237 0.4711 0.70715 0.0
Zn154 Zn 0.49416 0.50664 0.56802 0.0
Zn155 Zn 0.5151 0.53429 0.73611 0.0
O156 O 0.55545 0.48172 0.77496 0.0
O157 O 0.55116 0.52657 0.79 0.0
O158 O 0.46059 0.45642 0.79497 0.0
O159 O 0.50243 0.44168 0.76839 0.0
O160 O 0.53399 0.45341 0.59921 0.0
O161 O 0.51242 0.477 0.50214 0.0
O162 O 0.50867 0.54334 0.53052 0.0
O163 O 0.45422 0.52294 0.83316 0.0
O164 O 0.52032 0.56382 0.64987 0.0
O165 O 0.49141 0.54941 0.82577 0.0
C166 C 0.43243 0.50132 0.57648 0.0
C167 C 0.56423 0.50466 0.80253 0.0
C168 C 0.52772 0.45736 0.5229 0.0
C169 C 0.47868 0.43792 0.79866 0.0
C170 C 0.51752 0.56419 0.57056 0.0
C171 C 0.46839 0.5434 0.85795 0.0
O172 O 0.4547 0.50484 0.53656 0.0
O173 O 0.95974 0.53159 0.55401 0.0
Zn174 Zn 0.99652 0.53417 0.61371 0.0
O175 O 0.00751 0.49813 0.65858 0.0
Zn176 Zn 0.01122 0.49926 0.78034 0.0
Zn177 Zn 0.98028 0.47059 0.62996 0.0
Zn178 Zn 0.04233 0.48711 0.61199 0.0
O179 O 0.04866 0.48847 0.81969 0.0
O180 O 0.07163 0.48582 0.69979 0.0
O181 O 0.99475 0.56215 0.70835 0.0
O182 O 0.00648 0.5377 0.81943 0.0
O183 O 0.98178 0.47733 0.83828 0.0
O184 O 0.96089 0.45649 0.73245 0.0
O185 O 0.99603 0.43985 0.56221 0.0
O186 O 0.02433 0.54811 0.52832 0.0
O187 O 0.03997 0.45073 0.5525 0.0
O188 O 0.05443 0.51437 0.52745 0.0
C189 C 0.94469 0.51084 0.53696 0.0
C190 C 0.07097 0.48562 0.77961 0.0
C191 C 0.96307 0.46149 0.81059 0.0
C192 C -0.0002 0.56031 0.7866 0.0
C193 C 0.01999 0.43476 0.53616 0.0
C194 C 0.04607 0.53723 0.50082 0.0
O195 O 0.95107 0.487 0.56089 0.0
H196 H 0.22181 0.03428 0.3273 0.0
H197 H 0.2177 0.94652 0.30674 0.0
H198 H 0.17887 0.03392 0.40786 0.0
H199 H 0.17515 0.9458 0.38723 0.0
H200 H 0.08487 0.95965 0.44569 0.0
H201 H 0.12768 0.96062 0.36876 0.0
H202 H 0.16141 0.01739 0.54983 0.0
H203 H 0.1181 0.01661 0.62743 0.0
C204 C 0.21141 0.01502 0.33933 0.0
C205 C 0.22264 0.99044 0.31078 0.0
C206 C 0.18716 0.01472 0.38613 0.0
C207 C 0.17372 0.98981 0.40418 0.0
C208 C 0.18488 0.96532 0.3739 0.0
C209 C 0.20913 0.96566 0.32791 0.0
C210 C 0.10143 0.97221 0.46975 0.0
C211 C 0.09806 0.98806 0.54282 0.0
C212 C 0.12601 0.9727 0.42562 0.0
C213 C 0.14787 0.98916 0.45299 0.0
C214 C 0.14477 0.00473 0.52679 0.0
C215 C 0.12012 0.00405 0.57168 0.0
H216 H 0.44369 0.22107 0.3628 0.0
H217 H 0.51502 0.19996 0.22026 0.0
H218 H 0.44502 0.1768 0.43491 0.0
H219 H 0.51704 0.15588 0.29243 0.0
H220 H 0.50142 0.07077 0.39397 0.0
H221 H 0.49445 0.11198 0.31246 0.0
H222 H 0.47471 0.15624 0.53932 0.0
H223 H 0.48113 0.11477 0.62119 0.0
C224 C 0.45923 0.2065 0.34592 0.0
C225 C 0.47903 0.21333 0.28584 0.0
C226 C 0.46028 0.18143 0.38762 0.0
C227 C 0.48125 0.1629 0.36984 0.0
C228 C 0.50043 0.16951 0.30695 0.0
C229 C 0.49934 0.19459 0.2655 0.0
C230 C 0.49555 0.08925 0.42673 0.0
C231 C 0.49196 0.08945 0.51439 0.0
C232 C 0.49162 0.11291 0.37983 0.0
C233 C 0.48403 0.1374 0.4193 0.0
C234 C 0.48017 0.13759 0.50683 0.0
C235 C 0.48408 0.11388 0.55387 0.0
H236 H 0.28738 0.47768 0.26749 0.0
H237 H 0.29104 0.5637 0.32773 0.0
H238 H 0.32954 0.47057 0.34623 0.0
H239 H 0.3323 0.55635 0.41052 0.0
H240 H 0.3827 0.51806 0.63338 0.0
H241 H 0.34102 0.52355 0.55106 0.0
H242 H 0.38222 0.49261 0.33148 0.0
H243 H 0.42411 0.48783 0.41266 0.0
C244 C 0.2974 0.49507 0.29671 0.0
C245 C 0.28611 0.52127 0.29135 0.0
C246 C 0.32129 0.49097 0.34229 0.0
C247 C 0.33386 0.5129 0.38481 0.0
C248 C 0.32272 0.53911 0.37896 0.0
C249 C 0.29924 0.5433 0.33179 0.0
C250 C 0.38277 0.51224 0.56775 0.0
C251 C 0.40663 0.5026 0.52933 0.0
C252 C 0.35904 0.51552 0.52074 0.0
C253 C 0.3586 0.50854 0.43519 0.0
C254 C 0.38214 0.49806 0.39742 0.0
C255 C 0.40603 0.49542 0.44382 0.0
H256 H 0.00276 0.27812 0.29312 0.0
H257 H 0.08322 0.30352 0.21566 0.0
H258 H 0.99613 0.32173 0.36357 0.0
H259 H 0.07641 0.34836 0.28234 0.0
H260 H 0.06761 0.40773 0.50702 0.0
H261 H 0.07432 0.36734 0.41936 0.0
H262 H 0.9892 0.36839 0.35056 0.0
H263 H 0.98234 0.40768 0.4415 0.0
C264 C 0.01875 0.29355 0.2898 0.0
C265 C 0.04346 0.28774 0.24977 0.0
C266 C 0.01498 0.31862 0.32951 0.0
C267 C 0.03576 0.3387 0.32903 0.0
C268 C 0.06014 0.33324 0.28522 0.0
C269 C 0.06398 0.30785 0.24613 0.0
C270 C 0.05037 0.39922 0.47321 0.0
C271 C 0.02437 0.41057 0.48218 0.0
C272 C 0.05425 0.37624 0.42218 0.0
C273 C 0.03228 0.36443 0.37797 0.0
C274 C 0.00648 0.37646 0.38509 0.0
C275 C 0.00252 0.39905 0.43721 0.0
H276 H 0.77817 0.97797 0.03777 0.0
H277 H 0.7965 0.06422 0.04579 0.0
H278 H 0.81836 0.97036 0.94969 0.0
H279 H 0.83742 0.05696 0.9606 0.0
H280 H 0.8925 0.04048 0.73922 0.0
H281 H 0.85123 0.04631 0.82238 0.0
H282 H 0.86634 0.9698 0.94802 0.0
H283 H 0.90689 0.96348 0.86249 0.0
C284 C 0.79127 0.99516 0.0217 0.0
C285 C 0.78463 0.0216 0.04839 0.0
C286 C 0.81426 0.99091 0.97141 0.0
C287 C 0.83118 0.01306 0.94745 0.0
C288 C 0.82463 0.03948 0.97614 0.0
C289 C 0.80148 0.04369 0.02565 0.0
C290 C 0.88683 0.02476 0.78394 0.0
C291 C 0.90302 0.00152 0.79408 0.0
C292 C 0.86328 0.02822 0.83234 0.0
C293 C 0.8555 0.00869 0.89283 0.0
C294 C 0.87142 0.98514 0.90152 0.0
C295 C 0.89479 0.98154 0.85247 0.0
H296 H 0.54471 0.78248 0.06387 0.0
H297 H 0.45856 0.79581 0.08885 0.0
H298 H 0.54961 0.82502 0.98352 0.0
H299 H 0.46314 0.83867 0.01131 0.0
H300 H 0.4728 0.89136 0.78303 0.0
H301 H 0.47134 0.85039 0.86815 0.0
H302 H 0.54705 0.87468 0.98588 0.0
H303 H 0.54894 0.91564 0.89819 0.0
C304 C 0.527 0.79499 0.05347 0.0
C305 C 0.50127 0.78619 0.08167 0.0
C306 C 0.52972 0.81925 0.00772 0.0
C307 C 0.5067 0.83505 0.98994 0.0
C308 C 0.48118 0.82667 0.02204 0.0
C309 C 0.4785 0.80238 0.06698 0.0
C310 C 0.48924 0.88797 0.82674 0.0
C311 C 0.5109 0.90687 0.83423 0.0
C312 C 0.48828 0.86455 0.87614 0.0
C313 C 0.50881 0.85949 0.93504 0.0
C314 C 0.53095 0.87795 0.94096 0.0
C315 C 0.53202 0.90141 0.89081 0.0
H316 H 0.69903 0.47766 0.1483 0.0
H317 H 0.72874 0.53613 0.96772 0.0
H318 H 0.65332 0.47962 0.08591 0.0
H319 H 0.68336 0.53841 0.90494 0.0
H320 H 0.59298 0.55016 0.85249 0.0
H321 H 0.63507 0.55203 0.93331 0.0
H322 H 0.63524 0.46382 0.94551 0.0
H323 H 0.59314 0.46183 0.86493 0.0
C324 C 0.69542 0.4914 0.09653 0.0
C325 C 0.71693 0.50692 0.06269 0.0
C326 C 0.66952 0.49237 0.06036 0.0
C327 C 0.66484 0.50909 0.99033 0.0
C328 C 0.68626 0.52556 0.95929 0.0
C329 C 0.71213 0.52432 0.99491 0.0
C330 C 0.60193 0.53115 0.87256 0.0
C331 C 0.58976 0.50583 0.85175 0.0
C332 C 0.62604 0.53225 0.91878 0.0
C333 C 0.63836 0.50809 0.94595 0.0
C334 C 0.626 0.4828 0.92636 0.0
C335 C 0.60203 0.48167 0.87945 0.0
H336 H 0.97348 0.71729 0.03966 0.0
H337 H 0.05116 0.68859 0.12389 0.0
H338 H 0.96627 0.67466 0.96024 0.0
H339 H 0.04436 0.6459 0.04479 0.0
H340 H 0.98582 0.61272 0.74401 0.0
H341 H 0.988 0.65352 0.83299 0.0
H342 H 0.01451 0.60434 0.04095 0.0
H343 H 0.01254 0.56372 0.95277 0.0
C344 C 0.9887 0.70147 0.04199 0.0
C345 C 0.01268 0.70568 0.08785 0.0
C346 C 0.98478 0.67733 0.99623 0.0
C347 C 0.00478 0.65701 0.99619 0.0
C348 C 0.02846 0.66106 0.04439 0.0
C349 C 0.03242 0.68531 0.08954 0.0
C350 C 0.99191 0.61058 0.80884 0.0
C351 C 0.99917 0.58496 0.84092 0.0
C352 C 0.99302 0.63391 0.85989 0.0
C353 C 0.00157 0.63209 0.94376 0.0
C354 C 0.00818 0.60641 0.97629 0.0
C355 C 0.00692 0.58312 0.92562 0.0
H356 H 0.00087 0.20423 0.32514 0.0
H357 H 0.06354 0.16603 0.17736 0.0
H358 H 0.98523 0.15997 0.37383 0.0
H359 H 0.04546 0.12119 0.21468 0.0
H360 H 0.03289 0.04889 0.38966 0.0
H361 H 0.04467 0.0902 0.31607 0.0
H362 H 0.96294 0.12018 0.35743 0.0
H363 H 0.95232 0.07947 0.43964 0.0
C364 C 0.01127 0.18618 0.30306 0.0
C365 C 0.03386 0.18851 0.24941 0.0
C366 C 0.00176 0.16059 0.32877 0.0
C367 C 0.01389 0.1365 0.29855 0.0
C368 C 0.03588 0.139 0.24166 0.0
C369 C 0.04612 0.16472 0.219 0.0
C370 C 0.01722 0.06407 0.38154 0.0
C371 C 0.99177 0.06115 0.42117 0.0
C372 C 0.02396 0.08795 0.3386 0.0
C373 C 0.00506 0.10923 0.33165 0.0
C374 C 0.97855 0.10494 0.36423 0.0
C375 C 0.97218 0.08139 0.41019 0.0
H376 H 0.33605 0.01323 0.24621 0.0
H377 H 0.31038 0.92913 0.27206 0.0
H378 H 0.38246 0.00105 0.28178 0.0
H379 H 0.35712 0.91647 0.30871 0.0
H380 H 0.42254 0.92937 0.52545 0.0
H381 H 0.38279 0.92669 0.43611 0.0
H382 H 0.42421 0.97629 0.25027 0.0
H383 H 0.46397 0.9796 0.34087 0.0
C384 C 0.34068 0.99197 0.2574 0.0
C385 C 0.31991 0.9721 0.25721 0.0
C386 C 0.36725 0.98488 0.27723 0.0
C387 C 0.37351 0.95773 0.29792 0.0
C388 C 0.35287 0.93756 0.29348 0.0
C389 C 0.32623 0.94473 0.2731 0.0
C390 C 0.42357 0.93901 0.46442 0.0
C391 C 0.44603 0.95552 0.44159 0.0
C392 C 0.40077 0.93728 0.41274 0.0
C393 C 0.40011 0.95194 0.33718 0.0
C394 C 0.42395 0.96535 0.30924 0.0
C395 C 0.44677 0.96713 0.36106 0.0
H396 H 0.46541 0.33048 0.24888 0.0
H397 H 0.54575 0.29806 0.2829 0.0
H398 H 0.48146 0.37543 0.295 0.0
H399 H 0.5622 0.34316 0.33029 0.0
H400 H 0.51337 0.45578 0.35711 0.0
H401 H 0.51134 0.41513 0.26842 0.0
H402 H 0.55283 0.36924 0.45923 0.0
H403 H 0.55536 0.40982 0.5472 0.0
C404 C 0.48669 0.33329 0.26466 0.0
C405 C 0.50435 0.31104 0.26338 0.0
C406 C 0.49599 0.35899 0.29058 0.0
C407 C 0.52316 0.36286 0.31619 0.0
C408 C 0.54113 0.34073 0.31148 0.0
C409 C 0.53178 0.31501 0.28496 0.0
C410 C 0.52285 0.43727 0.3791 0.0
C411 C 0.53385 0.43585 0.46027 0.0
C412 C 0.52156 0.41395 0.32837 0.0
C413 C 0.53129 0.38885 0.3578 0.0
C414 C 0.5451 0.38825 0.43474 0.0
C415 C 0.54643 0.41156 0.48546 0.0
H416 H 0.17459 0.50116 0.22811 0.0
H417 H 0.19743 0.58567 0.2649 0.0
H418 H 0.12812 0.51102 0.27024 0.0
H419 H 0.15057 0.59587 0.30965 0.0
H420 H 0.08572 0.57474 0.52912 0.0
H421 H 0.12541 0.58165 0.43867 0.0
H422 H 0.08556 0.5353 0.2421 0.0
H423 H 0.04617 0.52796 0.33402 0.0
C424 C 0.1693 0.52207 0.24264 0.0
C425 C 0.18929 0.54273 0.24253 0.0
C426 C 0.14268 0.52782 0.26673 0.0
C427 C 0.13556 0.55434 0.29257 0.0
C428 C 0.15545 0.57529 0.28984 0.0
C429 C 0.18213 0.56951 0.26463 0.0
C430 C 0.08495 0.56737 0.46496 0.0
C431 C 0.06306 0.55097 0.43792 0.0
C432 C 0.10768 0.57124 0.4131 0.0
C433 C 0.1088 0.55852 0.33388 0.0
C434 C 0.0854 0.54497 0.30336 0.0
C435 C 0.06276 0.54102 0.35541 0.0
H436 H 0.05224 0.81881 0.20632 0.0
H437 H 0.00945 0.79599 0.98071 0.0
H438 H 0.05586 0.8665 0.15576 0.0
H439 H 0.01336 0.84298 0.93 0.0
H440 H 0.06932 0.92999 0.88184 0.0
H441 H 0.07581 0.88852 0.9663 0.0
H442 H 0.99145 0.89046 0.0422 0.0
H443 H 0.98482 0.93138 0.95805 0.0
C444 C 0.04418 0.82398 0.14539 0.0
C445 C 0.03101 0.80389 0.0964 0.0
C446 C 0.04629 0.85101 0.11662 0.0
C447 C 0.0351 0.85803 0.03891 0.0
C448 C 0.02238 0.83781 0.98971 0.0
C449 C 0.02031 0.81102 0.01827 0.0
C450 C 0.05254 0.92217 0.91948 0.0
C451 C 0.02651 0.93359 0.91293 0.0
C452 C 0.05626 0.89855 0.9676 0.0
C453 C 0.03407 0.88655 0.01017 0.0
C454 C 0.00882 0.89955 0.01005 0.0
C455 C 0.00505 0.92284 0.96174 0.0
H456 H 0.67648 -0.00066 0.11056 0.0
H457 H 0.69362 0.08552 0.08607 0.0
H458 H 0.62981 0.00633 0.06694 0.0
H459 H 0.64644 0.09293 0.04034 0.0
H460 H 0.58126 0.0733 0.82372 0.0
H461 H 0.62137 0.0801 0.91194 0.0
H462 H 0.58597 0.02613 0.09805 0.0
H463 H 0.54646 0.01868 0.00784 0.0
C464 C 0.66984 0.01996 0.09842 0.0
C465 C 0.68833 0.04195 0.10277 0.0
C466 C 0.64309 0.02407 0.07337 0.0
C467 C 0.63423 0.05029 0.05095 0.0
C468 C 0.65263 0.07251 0.05731 0.0
C469 C 0.67951 0.06835 0.08328 0.0
C470 C 0.58159 0.06401 0.88531 0.0
C471 C 0.56094 0.04558 0.90957 0.0
C472 C 0.60456 0.06782 0.93588 0.0
C473 C 0.60709 0.05318 0.01124 0.0
C474 C 0.58484 0.03726 0.03956 0.0
C475 C 0.56209 0.03322 0.98858 0.0
H476 H 0.51839 0.67336 0.12095 0.0
H477 H 0.43444 0.69738 0.10762 0.0
H478 H 0.50599 0.62729 0.07689 0.0
H479 H 0.4216 0.65091 0.06099 0.0
H480 H 0.43278 0.58458 0.83941 0.0
H481 H 0.43091 0.62515 0.92912 0.0
H482 H 0.48142 0.585 0.11138 0.0
H483 H 0.48383 0.54487 0.01995 0.0
C484 C 0.49711 0.6684 0.11095 0.0
C485 C 0.47731 0.68862 0.11857 0.0
C486 C 0.48991 0.64202 0.08571 0.0
C487 C 0.46271 0.6353 0.06634 0.0
C488 C 0.4427 0.65546 0.0757 0.0
C489 C 0.44996 0.68194 0.10201 0.0
C490 C 0.44228 0.58404 0.9006 0.0
C491 C 0.45831 0.56177 0.92345 0.0
C492 C 0.4413 0.60726 0.95197 0.0
C493 C 0.45649 0.60846 0.02655 0.0
C494 C 0.46991 0.58483 0.05356 0.0
C495 C 0.47105 0.56176 0.00189 0.0
H496 H 0.82388 0.45892 0.1648 0.0
H497 H 0.8107 0.50308 0.93526 0.0
H498 H 0.86819 0.44332 0.11038 0.0
H499 H 0.85381 0.48645 0.87936 0.0
H500 H 0.9163 0.43382 0.76911 0.0
H501 H 0.87344 0.4353 0.84617 0.0
H502 H 0.91417 0.47356 0.05585 0.0
H503 H 0.95729 0.47253 0.97878 0.0
C504 C 0.83045 0.46509 0.10269 0.0
C505 C 0.81394 0.48195 0.05358 0.0
C506 C 0.85554 0.45606 0.07157 0.0
C507 C 0.86397 0.46328 0.99025 0.0
C508 C 0.8474 0.4801 0.94152 0.0
C509 C 0.8228 0.48957 0.97324 0.0
C510 C 0.91647 0.4417 0.8327 0.0
C511 C 0.94014 0.45376 0.86682 0.0
C512 C 0.89186 0.44254 0.87667 0.0
C513 C 0.89059 0.45497 0.95599 0.0
C514 C 0.91474 0.4639 0.99459 0.0
C515 C 0.93939 0.46334 0.95024 0.0
H516 H 0.08193 0.20459 0.03401 0.0
H517 H 0.99671 0.20042 0.09709 0.0
H518 H 0.07611 0.16577 0.93704 0.0
H519 H 0.99054 0.16155 0.00168 0.0
H520 H 0.05977 0.07291 0.88318 0.0
H521 H 0.06673 0.11618 0.9581 0.0
H522 H 0.99172 0.14657 0.85555 0.0
H523 H 0.98448 0.10353 0.78221 0.0
C524 C 0.06181 0.19581 0.02459 0.0
C525 C 0.03967 0.20535 0.07156 0.0
C526 C 0.05851 0.17341 0.97052 0.0
C527 C 0.03292 0.16041 0.96236 0.0
C528 C 0.01046 0.17122 0.00586 0.0
C529 C 0.01385 0.19349 0.06003 0.0
C530 C 0.04482 0.08885 0.87649 0.0
C531 C 0.02147 0.08458 0.82717 0.0
C532 C 0.04892 0.11373 0.9188 0.0
C533 C 0.02975 0.1348 0.9127 0.0
C534 C 0.0067 0.13066 0.8623 0.0
C535 C 0.00261 0.10591 0.82012 0.0
H536 H 0.30388 0.95865 0.07572 0.0
H537 H 0.30038 0.04504 0.12597 0.0
H538 H 0.3392 0.96647 0.97057 0.0
H539 H 0.33576 0.05347 0.0187 0.0
H540 H 0.42706 0.04549 0.92323 0.0
H541 H 0.38492 0.04491 0.00634 0.0
H542 H 0.35015 0.98504 0.83645 0.0
H543 H 0.39228 0.98493 0.75597 0.0
C544 C 0.31018 0.97945 0.06167 0.0
C545 C 0.29944 0.00126 0.10773 0.0
C546 C 0.3304 0.98404 0.00155 0.0
C547 C 0.34041 0.01066 0.98598 0.0
C548 C 0.32866 0.03272 0.02958 0.0
C549 C 0.30821 0.02803 0.08986 0.0
C550 C 0.41022 0.03254 0.90319 0.0
C551 C 0.41317 0.01487 0.8341 0.0
C552 C 0.38602 0.0323 0.95047 0.0
C553 C 0.36426 0.01459 0.92885 0.0
C554 C 0.36669 -0.00158 0.85621 0.0
C555 C 0.39086 -0.0016 0.8099 0.0
H556 H 0.51945 0.29977 0.08115 0.0
H557 H 0.43245 0.29688 0.11478 0.0
H558 H 0.515 0.33642 0.97907 0.0
H559 H 0.42749 0.33365 0.01091 0.0
H560 H 0.44232 0.42624 0.92604 0.0
H561 H 0.43913 0.38356 0.00623 0.0
H562 H 0.49834 0.34695 0.84041 0.0
H563 H 0.50203 0.38944 0.76254 0.0
C564 C 0.49931 0.30664 0.06446 0.0
C565 C 0.4763 0.29559 0.10453 0.0
C566 C 0.49665 0.32755 0.00609 0.0
C567 C 0.47084 0.33794 0.98662 0.0
C568 C 0.44763 0.32616 0.02488 0.0
C569 C 0.45036 0.30499 0.08323 0.0
C570 C 0.45423 0.40887 0.9061 0.0
C571 C 0.47283 0.41132 0.83923 0.0
C572 C 0.45235 0.38441 0.95169 0.0
C573 C 0.46887 0.36203 0.93048 0.0
C574 C 0.48584 0.364 0.85961 0.0
C575 C 0.48792 0.38836 0.81492 0.0
H576 H 0.21146 0.47079 0.11641 0.0
H577 H 0.20182 0.55539 0.0503 0.0
H578 H 0.17564 0.45762 0.01578 0.0
H579 H 0.16676 0.54237 0.9476 0.0
H580 H 0.12136 0.50114 0.72352 0.0
H581 H 0.16278 0.50733 0.8066 0.0
H582 H 0.12083 0.47578 0.02462 0.0
H583 H 0.07902 0.47025 0.94248 0.0
C584 C 0.20227 0.48635 0.07796 0.0
C585 C 0.20931 0.514 0.08977 0.0
C586 C 0.18176 0.47892 0.02129 0.0
C587 C 0.16863 0.49903 0.97419 0.0
C588 C 0.17682 0.52652 0.98277 0.0
C589 C 0.1968 0.53397 0.04092 0.0
C590 C 0.12107 0.49501 0.78876 0.0
C591 C 0.09689 0.48528 0.82661 0.0
C592 C 0.14474 0.49866 0.83613 0.0
C593 C 0.14486 0.49196 0.92157 0.0
C594 C 0.1212 0.48086 0.95851 0.0
C595 C 0.09732 0.4778 0.91165 0.0
H596 H 0.02131 0.77776 0.35679 0.0
H597 H 0.97297 0.80784 0.15332 0.0
H598 H 0.00618 0.81562 0.44595 0.0
H599 H 0.95735 0.84572 0.2418 0.0
H600 H 0.9805 0.92805 0.37373 0.0
H601 H 0.98149 0.88603 0.2926 0.0
H602 H 0.96881 0.83911 0.51891 0.0
H603 H 0.96828 0.88151 0.60103 0.0
C604 C 0.00684 0.79221 0.33236 0.0
C605 C 0.99834 0.7903 0.24886 0.0
C606 C 0.99807 0.81377 0.3831 0.0
C607 C 0.98066 0.83378 0.35079 0.0
C608 C 0.971 0.83083 0.26822 0.0
C609 C 0.9798 0.80925 0.2177 0.0
C610 C 0.97738 0.90883 0.40621 0.0
C611 C 0.97465 0.90811 0.49399 0.0
C612 C 0.97775 0.88469 0.35949 0.0
C613 C 0.97543 0.85918 0.39936 0.0
C614 C 0.97097 0.85847 0.48659 0.0
C615 C 0.97045 0.88274 0.5335 0.0
H616 H 0.71039 0.97029 0.2246 0.0
H617 H 0.70216 0.05469 0.29717 0.0
H618 H 0.67511 0.9571 0.32767 0.0
H619 H 0.66769 0.04162 0.40228 0.0
H620 H 0.62046 1e-05 0.6236 0.0
H621 H 0.66274 0.0052 0.54199 0.0
H622 H 0.6208 0.97732 0.31982 0.0
H623 H 0.57837 0.973 0.40025 0.0
C624 C 0.70167 0.98578 0.26496 0.0
C625 C 0.70887 0.01341 0.25415 0.0
C626 C 0.68151 0.97833 0.32322 0.0
C627 C 0.66894 -0.00162 0.3729 0.0
C628 C 0.67738 0.0258 0.36535 0.0
C629 C 0.69697 0.03328 0.30564 0.0
C630 C 0.62044 0.99444 0.55777 0.0
C631 C 0.59616 0.98618 0.51807 0.0
C632 C 0.64455 0.99748 0.51127 0.0
C633 C 0.64489 0.99152 0.42506 0.0
C634 C 0.62103 0.98175 0.38648 0.0
C635 C 0.5968 0.97941 0.43234 0.0
H636 H 0.46763 0.70379 0.31728 0.0
H637 H 0.55115 0.70296 0.23411 0.0
H638 H 0.47715 0.66746 0.41853 0.0
H639 H 0.56067 0.66568 0.33317 0.0
H640 H 0.53042 0.57063 0.40498 0.0
H641 H 0.53185 0.61346 0.3258 0.0
H642 H 0.51511 0.65874 0.55253 0.0
H643 H 0.51444 0.6161 0.63262 0.0
C644 C 0.48816 0.69617 0.32267 0.0
C645 C 0.50876 0.706 0.26937 0.0
C646 C 0.49362 0.67551 0.38003 0.0
C647 C 0.51962 0.66399 0.38327 0.0
C648 C 0.54054 0.67448 0.33185 0.0
C649 C 0.53521 0.69574 0.27596 0.0
C650 C 0.52767 0.58977 0.43822 0.0
C651 C 0.52221 0.59004 0.52483 0.0
C652 C 0.52866 0.6142 0.39308 0.0
C653 C 0.52368 0.63918 0.43356 0.0
C654 C 0.51919 0.63964 0.52046 0.0
C655 C 0.51883 0.61527 0.56601 0.0
H656 H 0.78321 0.4911 0.31922 0.0
H657 H 0.8309 0.53286 0.13078 0.0
H658 H 0.82039 0.49693 0.41974 0.0
H659 H 0.86871 0.53795 0.22975 0.0
H660 H 0.92691 0.5556 0.44843 0.0
H661 H 0.88575 0.55845 0.36229 0.0
H662 H 0.86441 0.47527 0.42838 0.0
H663 H 0.90476 0.47253 0.51436 0.0
C664 C 0.80157 0.50192 0.30009 0.0
C665 C 0.80445 0.51134 0.21764 0.0
C666 C 0.82294 0.50506 0.35705 0.0
C667 C 0.84767 0.51761 0.33243 0.0
C668 C 0.84992 0.52835 0.25093 0.0
C669 C 0.82846 0.52526 0.1941 0.0
C670 C 0.91324 0.53807 0.4451 0.0
C671 C 0.91924 0.51381 0.48805 0.0
C672 C 0.88976 0.53965 0.39552 0.0
C673 C 0.87173 0.51712 0.38877 0.0
C674 C 0.87754 0.49317 0.43322 0.0
C675 C 0.90092 0.49154 0.48204 0.0
loop_
_geom_bond_atom_site_label_1
_geom_bond_atom_site_label_2
_geom_bond_distance
_geom_bond_site_symmetry_2
_ccdc_geom_bond_type
C0 N1 1.317 . S
C0 N2 1.348 1_554 S
C0 C3 1.485 . S
N1 C0 1.317 . S
N1 N5 1.370 1_554 S
N2 C0 1.348 1_556 S
N2 C4 1.346 . S
C3 C0 1.485 . S
C3 H7 0.960 . S
C3 H8 0.961 . S
C3 H9 0.960 . S
C4 N2 1.346 . S
C4 N5 1.307 . S
C4 C6 1.486 . S
N5 N1 1.370 1_556 S
N5 C4 1.307 . S
C6 C4 1.486 . S
C6 H10 0.960 . S
C6 H11 0.960 . S
C6 H12 0.959 . S
H7 C3 0.960 . S
H8 C3 0.961 . S
H9 C3 0.960 . S
H10 C6 0.960 . S
H11 C6 0.960 . S
H12 C6 0.959 . S
C13 N14 1.317 . S
C13 N15 1.348 . S
C13 C16 1.485 . S
N14 C13 1.317 . S
N14 N18 1.371 1_655 S
N15 C13 1.348 . S
N15 C17 1.346 . S
C16 C13 1.485 . S
C16 H20 0.960 1_655 S
C16 H21 0.961 . S
C16 H22 0.960 . S
C17 N15 1.346 . S
C17 N18 1.307 1_655 S
C17 C19 1.486 1_654 S
N18 N14 1.371 1_455 S
N18 C17 1.307 1_455 S
C19 C17 1.486 1_456 S
C19 H23 0.934 1_455 S
C19 H24 0.981 . S
C19 H25 0.965 . S
H20 C16 0.960 1_455 S
H21 C16 0.961 . S
H22 C16 0.960 . S
H23 C19 0.934 1_655 S
H24 C19 0.981 . S
H25 C19 0.965 . S
C26 N27 1.317 . S
C26 N28 1.348 . S
C26 C29 1.485 . S
N27 C26 1.317 . S
N27 N31 1.371 . S
N28 C26 1.348 . S
N28 C30 1.346 1_564 S
C29 C26 1.485 . S
C29 H33 0.960 1_565 S
C29 H34 0.961 . S
C29 H35 0.960 . S
C30 N28 1.346 1_546 S
C30 N31 1.307 1_546 S
C30 C32 1.485 . S
N31 N27 1.371 . S
N31 C30 1.307 1_564 S
C32 C30 1.485 . S
C32 H36 0.928 1_545 S
C32 H37 0.986 . S
C32 H38 0.967 . S
H33 C29 0.960 1_545 S
H34 C29 0.961 . S
H35 C29 0.960 . S
H36 C32 0.928 1_565 S
H37 C32 0.986 . S
H38 C32 0.967 . S
C39 N40 1.317 . S
C39 N41 1.348 . S
C39 C42 1.485 . S
N40 C39 1.317 . S
N40 N44 1.370 . S
N41 C39 1.348 . S
N41 C43 1.346 1_554 S
C42 C39 1.485 . S
C42 H46 0.960 . S
C42 H47 0.961 . S
C42 H48 0.960 . S
C43 N41 1.346 1_556 S
C43 N44 1.307 1_556 S
C43 C45 1.486 . S
N44 N40 1.370 . S
N44 C43 1.307 1_554 S
C45 C43 1.486 . S
C45 H49 0.960 . S
C45 H50 0.960 . S
C45 H51 0.959 . S
H46 C42 0.960 . S
H47 C42 0.961 . S
H48 C42 0.960 . S
H49 C45 0.960 . S
H50 C45 0.960 . S
H51 C45 0.959 . S
C52 N53 1.317 . S
C52 N54 1.348 . S
C52 C55 1.485 . S
N53 C52 1.317 . S
N53 N57 1.370 . S
N54 C52 1.348 . S
N54 C56 1.346 . S
C55 C52 1.485 . S
C55 H59 0.960 . S
C55 H60 0.961 . S
C55 H61 0.960 . S
C56 N54 1.346 . S
C56 N57 1.307 . S
C56 C58 1.486 . S
N57 N53 1.370 . S
N57 C56 1.307 . S
C58 C56 1.486 . S
C58 H62 0.960 . S
C58 H63 0.960 . S
C58 H64 0.959 . S
H59 C55 0.960 . S
H60 C55 0.961 . S
H61 C55 0.960 . S
H62 C58 0.960 . S
H63 C58 0.960 . S
H64 C58 0.959 . S
C65 N66 1.317 . S
C65 N67 1.348 . S
C65 C68 1.485 . S
N66 C65 1.317 . S
N66 N70 1.370 . S
N67 C65 1.348 . S
N67 C69 1.346 . S
C68 C65 1.485 . S
C68 H72 0.960 . S
C68 H73 0.961 . S
C68 H74 0.960 . S
C69 N67 1.346 . S
C69 N70 1.307 . S
C69 C71 1.486 . S
N70 N66 1.370 . S
N70 C69 1.307 . S
C71 C69 1.486 . S
C71 H75 0.960 . S
C71 H76 0.960 . S
C71 H77 0.959 . S
H72 C68 0.960 . S
H73 C68 0.961 . S
H74 C68 0.960 . S
H75 C71 0.960 . S
H76 C71 0.960 . S
H77 C71 0.959 . S
C78 N79 1.317 . S
C78 N80 1.348 . S
C78 C81 1.485 . S
N79 C78 1.317 . S
N79 N83 1.370 . S
N80 C78 1.348 . S
N80 C82 1.346 . S
C81 C78 1.485 . S
C81 H85 0.960 . S
C81 H86 0.961 1_545 S
C81 H87 0.960 1_545 S
C82 N80 1.346 . S
C82 N83 1.307 . S
C82 C84 1.486 . S
N83 N79 1.370 . S
N83 C82 1.307 . S
C84 C82 1.486 . S
C84 H88 0.960 1_545 S
C84 H89 0.960 . S
C84 H90 0.959 . S
H85 C81 0.960 . S
H86 C81 0.961 1_565 S
H87 C81 0.960 1_565 S
H88 C84 0.960 1_565 S
H89 C84 0.960 . S
H90 C84 0.959 . S
C91 N92 1.317 . S
C91 N93 1.348 . S
C91 C94 1.485 . S
N92 C91 1.317 . S
N92 N96 1.370 . S
N93 C91 1.348 . S
N93 C95 1.346 . S
C94 C91 1.485 . S
C94 H98 0.960 . S
C94 H99 0.961 . S
C94 H100 0.960 . S
C95 N93 1.346 . S
C95 N96 1.307 . S
C95 C97 1.486 . S
N96 N92 1.370 . S
N96 C95 1.307 . S
C97 C95 1.486 . S
C97 H101 0.960 . S
C97 H102 0.960 . S
C97 H103 0.959 . S
H98 C94 0.960 . S
H99 C94 0.961 . S
H100 C94 0.960 . S
H101 C97 0.960 . S
H102 C97 0.960 . S
H103 C97 0.959 . S
O104 Zn105 1.953 . S
O104 C120 1.225 1_545 S
Zn105 O104 1.953 . S
Zn105 O106 1.948 1_545 S
Zn105 O112 1.919 . S
Zn105 O117 1.924 1_545 S
O106 Zn105 1.948 1_565 S
O106 Zn107 1.901 1_465 S
O106 Zn108 1.952 . S
O106 Zn109 1.966 1_455 S
Zn107 O106 1.901 1_645 S
Zn107 O110 1.933 . S
Zn107 O113 1.941 1_655 S
Zn107 O114 1.965 . S
Zn108 O106 1.952 . S
Zn108 O115 1.938 1_565 S
Zn108 O116 1.906 . S
Zn108 O126 1.953 . S
Zn109 O106 1.966 1_655 S
Zn109 O111 1.932 . S
Zn109 O118 1.977 . S
Zn109 O119 1.910 1_655 S
O110 Zn107 1.933 . S
O110 C121 1.226 . S
O111 Zn109 1.932 . S
O111 C121 1.307 1_565 S
O112 Zn105 1.919 . S
O112 C123 1.253 . S
O113 Zn107 1.941 1_455 S
O113 C123 1.283 . S
O114 Zn107 1.965 . S
O114 C122 1.303 1_655 S
O115 Zn108 1.938 1_545 S
O115 C122 1.247 . S
O116 Zn108 1.906 . S
O116 C124 1.304 1_455 S
O117 Zn105 1.924 1_565 S
O117 C125 1.311 . S
O118 Zn109 1.977 . S
O118 C124 1.272 . S
O119 Zn109 1.910 1_455 S
O119 C125 1.231 . S
C120 O104 1.225 1_565 S
C120 O126 1.298 . S
C121 O110 1.226 . S
C121 O111 1.307 1_545 S
C122 O114 1.303 1_455 S
C122 O115 1.247 . S
C123 O112 1.253 . S
C123 O113 1.283 . S
C124 O116 1.304 1_655 S
C124 O118 1.272 . S
C125 O117 1.311 . S
C125 O119 1.231 . S
O126 Zn108 1.953 . S
O126 C120 1.298 . S
O127 Zn128 1.953 . S
O127 C143 1.225 . S
Zn128 O127 1.953 . S
Zn128 O129 1.949 . S
Zn128 O135 1.919 . S
Zn128 O140 1.924 . S
O129 Zn128 1.949 . S
O129 Zn130 1.923 1_545 S
O129 Zn131 1.950 . S
O129 Zn132 1.945 1_545 S
Zn130 O129 1.923 1_565 S
Zn130 O133 1.933 . S
Zn130 O136 1.941 . S
Zn130 O137 1.965 . S
Zn131 O129 1.950 . S
Zn131 O138 1.938 . S
Zn131 O139 1.906 . S
Zn131 O149 1.953 . S
Zn132 O129 1.945 1_565 S
Zn132 O134 1.932 . S
Zn132 O141 1.977 . S
Zn132 O142 1.910 1_565 S
O133 Zn130 1.933 . S
O133 C144 1.226 . S
O134 Zn132 1.932 . S
O134 C144 1.307 . S
O135 Zn128 1.919 . S
O135 C146 1.253 . S
O136 Zn130 1.941 . S
O136 C146 1.283 1_565 S
O137 Zn130 1.965 . S
O137 C145 1.303 1_565 S
O138 Zn131 1.938 . S
O138 C145 1.247 . S
O139 Zn131 1.906 . S
O139 C147 1.304 1_545 S
O140 Zn128 1.924 . S
O140 C148 1.311 . S
O141 Zn132 1.977 . S
O141 C147 1.272 . S
O142 Zn132 1.910 1_545 S
O142 C148 1.231 . S
C143 O127 1.225 . S
C143 O149 1.298 . S
C144 O133 1.226 . S
C144 O134 1.307 . S
C145 O137 1.303 1_545 S
C145 O138 1.247 . S
C146 O135 1.253 . S
C146 O136 1.283 1_545 S
C147 O139 1.304 1_565 S
C147 O141 1.272 . S
C148 O140 1.311 . S
C148 O142 1.231 . S
O149 Zn131 1.953 . S
O149 C143 1.298 . S
O150 Zn151 1.953 . S
O150 C166 1.225 . S
Zn151 O150 1.953 . S
Zn151 O152 1.949 . S
Zn151 O158 1.919 . S
Zn151 O163 1.924 . S
O152 Zn151 1.949 . S
O152 Zn153 1.923 . S
O152 Zn154 1.950 . S
O152 Zn155 1.945 . S
Zn153 O152 1.923 . S
Zn153 O156 1.933 . S
Zn153 O159 1.941 . S
Zn153 O160 1.965 . S
Zn154 O152 1.950 . S
Zn154 O161 1.938 . S
Zn154 O162 1.906 . S
Zn154 O172 1.953 . S
Zn155 O152 1.945 . S
Zn155 O157 1.932 . S
Zn155 O164 1.977 . S
Zn155 O165 1.910 . S
O156 Zn153 1.933 . S
O156 C167 1.226 . S
O157 Zn155 1.932 . S
O157 C167 1.307 . S
O158 Zn151 1.919 . S
O158 C169 1.253 . S
O159 Zn153 1.941 . S
O159 C169 1.283 . S
O160 Zn153 1.965 . S
O160 C168 1.303 . S
O161 Zn154 1.938 . S
O161 C168 1.247 . S
O162 Zn154 1.906 . S
O162 C170 1.304 . S
O163 Zn151 1.924 . S
O163 C171 1.311 . S
O164 Zn155 1.977 . S
O164 C170 1.272 . S
O165 Zn155 1.910 . S
O165 C171 1.231 . S
C166 O150 1.225 . S
C166 O172 1.298 . S
C167 O156 1.226 . S
C167 O157 1.307 . S
C168 O160 1.303 . S
C168 O161 1.247 . S
C169 O158 1.253 . S
C169 O159 1.283 . S
C170 O162 1.304 . S
C170 O164 1.272 . S
C171 O163 1.311 . S
C171 O165 1.231 . S
O172 Zn154 1.953 . S
O172 C166 1.298 . S
O173 Zn174 1.927 1_655 S
O173 C189 1.225 . S
Zn174 O173 1.927 1_455 S
Zn174 O175 1.949 . S
Zn174 O181 1.919 . S
Zn174 O186 1.952 . S
O175 Zn174 1.949 . S
O175 Zn176 1.918 1_455 S
O175 Zn177 1.928 1_455 S
O175 Zn178 1.973 . S
Zn176 O175 1.918 1_655 S
Zn176 O179 1.933 1_655 S
Zn176 O182 1.941 . S
Zn176 O183 1.965 . S
Zn177 O175 1.928 1_655 S
Zn177 O184 1.938 . S
Zn177 O185 1.906 . S
Zn177 O195 1.953 . S
Zn178 O175 1.973 . S
Zn178 O180 1.932 . S
Zn178 O187 1.977 . S
Zn178 O188 1.910 . S
O179 Zn176 1.933 1_455 S
O179 C190 1.226 . S
O180 Zn178 1.932 . S
O180 C190 1.307 . S
O181 Zn174 1.919 . S
O181 C192 1.253 . S
O182 Zn176 1.941 . S
O182 C192 1.282 1_655 S
O183 Zn176 1.965 . S
O183 C191 1.303 . S
O184 Zn177 1.938 . S
O184 C191 1.247 . S
O185 Zn177 1.906 . S
O185 C193 1.304 1_655 S
O186 Zn174 1.952 . S
O186 C194 1.311 . S
O187 Zn178 1.977 . S
O187 C193 1.272 . S
O188 Zn178 1.910 . S
O188 C194 1.231 . S
C189 O173 1.225 . S
C189 O195 1.298 . S
C190 O179 1.226 . S
C190 O180 1.307 . S
C191 O183 1.303 . S
C191 O184 1.247 . S
C192 O181 1.253 . S
C192 O182 1.282 1_455 S
C193 O185 1.304 1_455 S
C193 O187 1.272 . S
C194 O186 1.311 . S
C194 O188 1.231 . S
O195 Zn177 1.953 . S
O195 C189 1.298 . S
H196 C204 0.950 . S
H197 C209 0.950 . S
H198 C206 0.950 . S
H199 C208 0.950 . S
H200 C210 0.950 . S
H201 C212 0.950 . S
H202 C214 0.950 . S
H203 C215 0.950 . S
C204 H196 0.950 . S
C204 C205 1.386 . S
C204 C206 1.391 . S
C205 C204 1.386 . S
C205 C209 1.393 1_545 S
C206 H198 0.950 . S
C206 C204 1.391 . S
C206 C207 1.400 . S
C207 C206 1.400 . S
C207 C208 1.398 1_545 S
C207 C213 1.491 . S
C208 H199 0.950 . S
C208 C207 1.398 1_565 S
C208 C209 1.391 . S
C209 H197 0.950 . S
C209 C205 1.393 1_565 S
C209 C208 1.391 . S
C210 H200 0.950 . S
C210 C211 1.386 . S
C210 C212 1.391 . S
C211 C210 1.386 . S
C211 C215 1.393 1_565 S
C212 H201 0.950 . S
C212 C210 1.391 . S
C212 C213 1.400 1_565 S
C213 C207 1.491 . S
C213 C212 1.400 1_545 S
C213 C214 1.398 . S
C214 H202 0.950 . S
C214 C213 1.398 . S
C214 C215 1.391 . S
C215 H203 0.950 . S
C215 C211 1.393 1_545 S
C215 C214 1.391 . S
H216 C224 0.950 . S
H217 C229 0.950 . S
H218 C226 0.950 . S
H219 C228 0.950 . S
H220 C230 0.950 . S
H221 C232 0.950 . S
H222 C234 0.950 . S
H223 C235 0.950 . S
C224 H216 0.950 . S
C224 C225 1.386 . S
C224 C226 1.391 . S
C225 C224 1.386 . S
C225 C229 1.393 . S
C226 H218 0.950 . S
C226 C224 1.391 . S
C226 C227 1.400 . S
C227 C226 1.400 . S
C227 C228 1.398 . S
C227 C233 1.491 . S
C228 H219 0.950 . S
C228 C227 1.398 . S
C228 C229 1.391 . S
C229 H217 0.950 . S
C229 C225 1.393 . S
C229 C228 1.391 . S
C230 H220 0.950 . S
C230 C231 1.386 . S
C230 C232 1.391 . S
C231 C230 1.386 . S
C231 C235 1.393 . S
C232 H221 0.950 . S
C232 C230 1.391 . S
C232 C233 1.400 . S
C233 C227 1.491 . S
C233 C232 1.400 . S
C233 C234 1.398 . S
C234 H222 0.950 . S
C234 C233 1.398 . S
C234 C235 1.391 . S
C235 H223 0.950 . S
C235 C231 1.393 . S
C235 C234 1.391 . S
H236 C244 0.950 . S
H237 C249 0.950 . S
H238 C246 0.950 . S
H239 C248 0.950 . S
H240 C250 0.950 . S
H241 C252 0.950 . S
H242 C254 0.950 . S
H243 C255 0.950 . S
C244 H236 0.950 . S
C244 C245 1.386 . S
C244 C246 1.391 . S
C245 C244 1.386 . S
C245 C249 1.393 . S
C246 H238 0.950 . S
C246 C244 1.391 . S
C246 C247 1.400 . S
C247 C246 1.400 . S
C247 C248 1.398 . S
C247 C253 1.491 . S
C248 H239 0.950 . S
C248 C247 1.398 . S
C248 C249 1.391 . S
C249 H237 0.950 . S
C249 C245 1.393 . S
C249 C248 1.391 . S
C250 H240 0.950 . S
C250 C251 1.386 . S
C250 C252 1.391 . S
C251 C250 1.386 . S
C251 C255 1.393 . S
C252 H241 0.950 . S
C252 C250 1.391 . S
C252 C253 1.400 . S
C253 C247 1.491 . S
C253 C252 1.400 . S
C253 C254 1.398 . S
C254 H242 0.950 . S
C254 C253 1.398 . S
C254 C255 1.391 . S
C255 H243 0.950 . S
C255 C251 1.393 . S
C255 C254 1.391 . S
H256 C264 0.950 . S
H257 C269 0.950 . S
H258 C266 0.951 . S
H259 C268 0.950 . S
H260 C270 0.950 . S
H261 C272 0.950 . S
H262 C274 0.950 1_655 S
H263 C275 0.944 1_655 S
C264 H256 0.950 . S
C264 C265 1.386 . S
C264 C266 1.391 . S
C265 C264 1.386 . S
C265 C269 1.393 . S
C266 H258 0.951 . S
C266 C264 1.391 . S
C266 C267 1.400 . S
C267 C266 1.400 . S
C267 C268 1.398 . S
C267 C273 1.491 . S
C268 H259 0.950 . S
C268 C267 1.398 . S
C268 C269 1.391 . S
C269 H257 0.950 . S
C269 C265 1.393 . S
C269 C268 1.391 . S
C270 H260 0.950 . S
C270 C271 1.386 . S
C270 C272 1.391 . S
C271 C270 1.386 . S
C271 C275 1.397 . S
C272 H261 0.950 . S
C272 C270 1.391 . S
C272 C273 1.400 . S
C273 C267 1.491 . S
C273 C272 1.400 . S
C273 C274 1.398 . S
C274 H262 0.950 1_455 S
C274 C273 1.398 . S
C274 C275 1.392 . S
C275 H263 0.944 1_455 S
C275 C271 1.397 . S
C275 C274 1.392 . S
H276 C284 0.950 . S
H277 C289 0.950 . S
H278 C286 0.950 . S
H279 C288 0.950 . S
H280 C290 0.950 . S
H281 C292 0.950 . S
H282 C294 0.950 . S
H283 C295 0.950 . S
C284 H276 0.950 . S
C284 C285 1.403 . S
C284 C286 1.391 . S
C285 C284 1.403 . S
C285 C289 1.376 1_564 S
C286 H278 0.950 . S
C286 C284 1.391 . S
C286 C287 1.398 1_564 S
C287 C286 1.398 1_546 S
C287 C288 1.400 . S
C287 C293 1.491 . S
C288 H279 0.950 . S
C288 C287 1.400 . S
C288 C289 1.391 . S
C289 H277 0.950 . S
C289 C285 1.376 1_546 S
C289 C288 1.391 . S
C290 H280 0.950 . S
C290 C291 1.386 . S
C290 C292 1.391 . S
C291 C290 1.386 . S
C291 C295 1.393 1_545 S
C292 H281 0.950 . S
C292 C290 1.391 . S
C292 C293 1.400 . S
C293 C287 1.491 . S
C293 C292 1.400 . S
C293 C294 1.398 1_545 S
C294 H282 0.950 . S
C294 C293 1.398 1_565 S
C294 C295 1.391 . S
C295 H283 0.950 . S
C295 C291 1.393 1_565 S
C295 C294 1.391 . S
H296 C304 0.950 1_554 S
H297 C309 0.950 . S
H298 C306 0.950 . S
H299 C308 0.950 . S
H300 C310 0.950 . S
H301 C312 0.950 . S
H302 C314 0.950 . S
H303 C315 0.950 . S
C304 H296 0.950 1_556 S
C304 C305 1.386 . S
C304 C306 1.391 . S
C305 C304 1.386 . S
C305 C309 1.393 . S
C306 H298 0.950 . S
C306 C304 1.391 . S
C306 C307 1.400 . S
C307 C306 1.400 . S
C307 C308 1.398 . S
C307 C313 1.491 . S
C308 H299 0.950 . S
C308 C307 1.398 . S
C308 C309 1.391 . S
C309 H297 0.950 . S
C309 C305 1.393 . S
C309 C308 1.391 . S
C310 H300 0.950 . S
C310 C311 1.386 . S
C310 C312 1.391 . S
C311 C310 1.386 . S
C311 C315 1.393 . S
C312 H301 0.950 . S
C312 C310 1.391 . S
C312 C313 1.400 . S
C313 C307 1.491 . S
C313 C312 1.400 . S
C313 C314 1.398 . S
C314 H302 0.950 . S
C314 C313 1.398 . S
C314 C315 1.391 . S
C315 H303 0.950 . S
C315 C311 1.393 . S
C315 C314 1.391 . S
H316 C324 0.950 . S
H317 C329 0.950 1_554 S
H318 C326 0.950 . S
H319 C328 0.950 . S
H320 C330 0.950 . S
H321 C332 0.950 . S
H322 C334 0.950 . S
H323 C335 0.950 . S
C324 H316 0.950 . S
C324 C325 1.386 . S
C324 C326 1.391 . S
C325 C324 1.386 . S
C325 C329 1.393 . S
C326 H318 0.950 . S
C326 C324 1.391 . S
C326 C327 1.400 . S
C327 C326 1.400 . S
C327 C328 1.398 . S
C327 C333 1.491 . S
C328 H319 0.950 . S
C328 C327 1.398 . S
C328 C329 1.391 . S
C329 H317 0.950 1_556 S
C329 C325 1.393 . S
C329 C328 1.391 . S
C330 H320 0.950 . S
C330 C331 1.386 . S
C330 C332 1.391 . S
C331 C330 1.386 . S
C331 C335 1.393 . S
C332 H321 0.950 . S
C332 C330 1.391 . S
C332 C333 1.400 . S
C333 C327 1.491 . S
C333 C332 1.400 . S
C333 C334 1.398 . S
C334 H322 0.950 . S
C334 C333 1.398 . S
C334 C335 1.391 . S
C335 H323 0.950 . S
C335 C331 1.393 . S
C335 C334 1.391 . S
H336 C344 0.950 . S
H337 C349 0.950 . S
H338 C346 0.950 . S
H339 C348 0.950 . S
H340 C350 0.950 . S
H341 C352 0.950 . S
H342 C354 0.950 . S
H343 C355 0.950 . S
C344 H336 0.950 . S
C344 C345 1.413 . S
C344 C346 1.391 1_554 S
C345 C344 1.413 . S
C345 C349 1.365 1_654 S
C346 H338 0.950 . S
C346 C344 1.391 1_556 S
C346 C347 1.400 1_655 S
C347 C346 1.400 1_455 S
C347 C348 1.398 . S
C347 C353 1.491 . S
C348 H339 0.950 . S
C348 C347 1.398 . S
C348 C349 1.391 . S
C349 H337 0.950 . S
C349 C345 1.365 1_456 S
C349 C348 1.391 . S
C350 H340 0.950 . S
C350 C351 1.386 . S
C350 C352 1.391 . S
C351 C350 1.386 . S
C351 C355 1.393 1_455 S
C352 H341 0.950 . S
C352 C350 1.391 . S
C352 C353 1.400 . S
C353 C347 1.491 . S
C353 C352 1.400 . S
C353 C354 1.398 1_455 S
C354 H342 0.950 . S
C354 C353 1.398 1_655 S
C354 C355 1.391 . S
C355 H343 0.950 . S
C355 C351 1.393 1_655 S
C355 C354 1.391 . S
H356 C364 0.950 . S
H357 C369 0.950 . S
H358 C366 0.950 . S
H359 C368 0.950 . S
H360 C370 0.950 . S
H361 C372 0.950 . S
H362 C374 0.950 1_655 S
H363 C375 0.950 1_655 S
C364 H356 0.950 . S
C364 C365 1.386 . S
C364 C366 1.391 . S
C365 C364 1.386 . S
C365 C369 1.393 . S
C366 H358 0.950 . S
C366 C364 1.391 . S
C366 C367 1.400 . S
C367 C366 1.400 . S
C367 C368 1.398 . S
C367 C373 1.491 . S
C368 H359 0.950 . S
C368 C367 1.398 . S
C368 C369 1.391 . S
C369 H357 0.950 . S
C369 C365 1.393 . S
C369 C368 1.391 . S
C370 H360 0.950 . S
C370 C371 1.386 . S
C370 C372 1.391 . S
C371 C370 1.386 . S
C371 C375 1.393 . S
C372 H361 0.950 . S
C372 C370 1.391 . S
C372 C373 1.400 . S
C373 C367 1.491 . S
C373 C372 1.400 . S
C373 C374 1.398 . S
C374 H362 0.950 1_455 S
C374 C373 1.398 . S
C374 C375 1.391 . S
C375 H363 0.950 1_455 S
C375 C371 1.393 . S
C375 C374 1.391 . S
H376 C384 0.950 . S
H377 C389 0.950 . S
H378 C386 0.950 . S
H379 C388 0.950 . S
H380 C390 0.950 . S
H381 C392 0.950 . S
H382 C394 0.950 . S
H383 C395 0.950 . S
C384 H376 0.950 . S
C384 C385 1.386 . S
C384 C386 1.391 . S
C385 C384 1.386 . S
C385 C389 1.393 1_545 S
C386 H378 0.950 . S
C386 C384 1.391 . S
C386 C387 1.400 . S
C387 C386 1.400 . S
C387 C388 1.398 1_545 S
C387 C393 1.491 . S
C388 H379 0.950 . S
C388 C387 1.398 1_565 S
C388 C389 1.391 . S
C389 H377 0.950 . S
C389 C385 1.393 1_565 S
C389 C388 1.391 . S
C390 H380 0.950 . S
C390 C391 1.386 1_565 S
C390 C392 1.391 . S
C391 C390 1.386 1_545 S
C391 C395 1.393 . S
C392 H381 0.950 . S
C392 C390 1.391 . S
C392 C393 1.400 1_565 S
C393 C387 1.491 . S
C393 C392 1.400 1_545 S
C393 C394 1.398 . S
C394 H382 0.950 . S
C394 C393 1.398 . S
C394 C395 1.391 . S
C395 H383 0.950 . S
C395 C391 1.393 . S
C395 C394 1.391 . S
H396 C404 0.950 . S
H397 C409 0.950 . S
H398 C406 0.950 . S
H399 C408 0.950 . S
H400 C410 0.950 . S
H401 C412 0.950 . S
H402 C414 0.950 . S
H403 C415 0.950 . S
C404 H396 0.950 . S
C404 C405 1.386 . S
C404 C406 1.391 . S
C405 C404 1.386 . S
C405 C409 1.393 . S
C406 H398 0.950 . S
C406 C404 1.391 . S
C406 C407 1.400 . S
C407 C406 1.400 . S
C407 C408 1.398 . S
C407 C413 1.491 . S
C408 H399 0.950 . S
C408 C407 1.398 . S
C408 C409 1.391 . S
C409 H397 0.950 . S
C409 C405 1.393 . S
C409 C408 1.391 . S
C410 H400 0.950 . S
C410 C411 1.386 . S
C410 C412 1.391 . S
C411 C410 1.386 . S
C411 C415 1.393 . S
C412 H401 0.950 . S
C412 C410 1.391 . S
C412 C413 1.400 . S
C413 C407 1.491 . S
C413 C412 1.400 . S
C413 C414 1.398 . S
C414 H402 0.950 . S
C414 C413 1.398 . S
C414 C415 1.391 . S
C415 H403 0.950 . S
C415 C411 1.393 . S
C415 C414 1.391 . S
H416 C424 0.950 . S
H417 C429 0.950 . S
H418 C426 0.950 . S
H419 C428 0.950 . S
H420 C430 0.950 . S
H421 C432 0.950 . S
H422 C434 0.950 . S
H423 C435 0.950 . S
C424 H416 0.950 . S
C424 C425 1.386 . S
C424 C426 1.391 . S
C425 C424 1.386 . S
C425 C429 1.393 . S
C426 H418 0.950 . S
C426 C424 1.391 . S
C426 C427 1.400 . S
C427 C426 1.400 . S
C427 C428 1.398 . S
C427 C433 1.491 . S
C428 H419 0.950 . S
C428 C427 1.398 . S
C428 C429 1.391 . S
C429 H417 0.950 . S
C429 C425 1.393 . S
C429 C428 1.391 . S
C430 H420 0.950 . S
C430 C431 1.386 . S
C430 C432 1.391 . S
C431 C430 1.386 . S
C431 C435 1.393 . S
C432 H421 0.950 . S
C432 C430 1.391 . S
C432 C433 1.400 . S
C433 C427 1.491 . S
C433 C432 1.400 . S
C433 C434 1.398 . S
C434 H422 0.950 . S
C434 C433 1.398 . S
C434 C435 1.391 . S
C435 H423 0.950 . S
C435 C431 1.393 . S
C435 C434 1.391 . S
H436 C444 0.950 . S
H437 C449 0.950 1_655 S
H438 C446 0.950 . S
H439 C448 0.950 . S
H440 C450 0.950 . S
H441 C452 0.950 . S
H442 C454 0.950 1_554 S
H443 C455 0.950 . S
C444 H436 0.950 . S
C444 C445 1.386 . S
C444 C446 1.391 . S
C445 C444 1.386 . S
C445 C449 1.393 1_554 S
C446 H438 0.950 . S
C446 C444 1.391 . S
C446 C447 1.400 1_554 S
C447 C446 1.400 1_556 S
C447 C448 1.398 . S
C447 C453 1.491 . S
C448 H439 0.950 . S
C448 C447 1.398 . S
C448 C449 1.391 . S
C449 H437 0.950 1_455 S
C449 C445 1.393 1_556 S
C449 C448 1.391 . S
C450 H440 0.950 . S
C450 C451 1.386 . S
C450 C452 1.391 . S
C451 C450 1.386 . S
C451 C455 1.393 . S
C452 H441 0.950 . S
C452 C450 1.391 . S
C452 C453 1.400 . S
C453 C447 1.491 . S
C453 C452 1.400 . S
C453 C454 1.398 . S
C454 H442 0.950 1_556 S
C454 C453 1.398 . S
C454 C455 1.391 . S
C455 H443 0.950 . S
C455 C451 1.393 . S
C455 C454 1.391 . S
H456 C464 0.950 . S
H457 C469 0.950 . S
H458 C466 0.950 1_554 S
H459 C468 0.950 . S
H460 C470 0.950 . S
H461 C472 0.950 . S
H462 C474 0.950 1_565 S
H463 C475 0.950 . S
C464 H456 0.950 . S
C464 C465 1.374 1_565 S
C464 C466 1.391 1_554 S
C465 C464 1.374 1_545 S
C465 C469 1.411 1_554 S
C466 H458 0.950 1_556 S
C466 C464 1.391 1_556 S
C466 C467 1.400 1_565 S
C467 C466 1.400 1_545 S
C467 C468 1.398 . S
C467 C473 1.491 . S
C468 H459 0.950 . S
C468 C467 1.398 . S
C468 C469 1.391 . S
C469 H457 0.950 . S
C469 C465 1.411 1_556 S
C469 C468 1.391 . S
C470 H460 0.950 . S
C470 C471 1.386 . S
C470 C472 1.391 . S
C471 C470 1.386 . S
C471 C475 1.393 . S
C472 H461 0.950 . S
C472 C470 1.391 . S
C472 C473 1.400 . S
C473 C467 1.491 . S
C473 C472 1.400 . S
C473 C474 1.398 . S
C474 H462 0.950 1_545 S
C474 C473 1.398 . S
C474 C475 1.391 . S
C475 H463 0.950 . S
C475 C471 1.393 . S
C475 C474 1.391 . S
H476 C484 0.950 . S
H477 C489 0.950 . S
H478 C486 0.950 1_554 S
H479 C488 0.950 . S
H480 C490 0.950 . S
H481 C492 0.950 . S
H482 C494 0.950 . S
H483 C495 0.950 . S
C484 H476 0.950 . S
C484 C485 1.386 1_554 S
C484 C486 1.391 1_554 S
C485 C484 1.386 1_556 S
C485 C489 1.393 . S
C486 H478 0.950 1_556 S
C486 C484 1.391 1_556 S
C486 C487 1.400 . S
C487 C486 1.400 . S
C487 C488 1.398 . S
C487 C493 1.491 . S
C488 H479 0.950 . S
C488 C487 1.398 . S
C488 C489 1.391 . S
C489 H477 0.950 . S
C489 C485 1.393 . S
C489 C488 1.391 . S
C490 H480 0.950 . S
C490 C491 1.386 . S
C490 C492 1.391 . S
C491 C490 1.386 . S
C491 C495 1.393 . S
C492 H481 0.950 . S
C492 C490 1.391 . S
C492 C493 1.400 . S
C493 C487 1.491 . S
C493 C492 1.400 . S
C493 C494 1.398 . S
C494 H482 0.950 . S
C494 C493 1.398 . S
C494 C495 1.391 . S
C495 H483 0.950 . S
C495 C491 1.393 . S
C495 C494 1.391 . S
H496 C504 0.950 1_554 S
H497 C509 0.950 . S
H498 C506 0.950 . S
H499 C508 0.950 . S
H500 C510 0.950 . S
H501 C512 0.950 . S
H502 C514 0.950 . S
H503 C515 0.950 . S
C504 H496 0.950 1_556 S
C504 C505 1.386 . S
C504 C506 1.391 . S
C505 C504 1.386 . S
C505 C509 1.393 . S
C506 H498 0.950 . S
C506 C504 1.391 . S
C506 C507 1.400 . S
C507 C506 1.400 . S
C507 C508 1.398 . S
C507 C513 1.491 . S
C508 H499 0.950 . S
C508 C507 1.398 . S
C508 C509 1.391 . S
C509 H497 0.950 . S
C509 C505 1.393 . S
C509 C508 1.391 . S
C510 H500 0.950 . S
C510 C511 1.386 . S
C510 C512 1.391 . S
C511 C510 1.386 . S
C511 C515 1.393 . S
C512 H501 0.950 . S
C512 C510 1.391 . S
C512 C513 1.400 . S
C513 C507 1.491 . S
C513 C512 1.400 . S
C513 C514 1.398 . S
C514 H502 0.950 . S
C514 C513 1.398 . S
C514 C515 1.391 . S
C515 H503 0.950 . S
C515 C511 1.393 . S
C515 C514 1.391 . S
H516 C524 0.950 . S
H517 C529 0.950 . S
H518 C526 0.950 . S
H519 C528 0.950 . S
H520 C530 0.950 1_655 S
H521 C532 0.950 . S
H522 C534 0.950 . S
H523 C535 0.950 . S
C524 H516 0.950 . S
C524 C525 1.386 . S
C524 C526 1.391 . S
C525 C524 1.386 . S
C525 C529 1.393 . S
C526 H518 0.950 . S
C526 C524 1.391 . S
C526 C527 1.400 . S
C527 C526 1.400 . S
C527 C528 1.398 . S
C527 C533 1.491 . S
C528 H519 0.950 . S
C528 C527 1.398 . S
C528 C529 1.391 . S
C529 H517 0.950 . S
C529 C525 1.393 . S
C529 C528 1.391 . S
C530 H520 0.950 1_455 S
C530 C531 1.386 1_554 S
C530 C532 1.391 . S
C531 C530 1.386 1_556 S
C531 C535 1.393 . S
C532 H521 0.950 . S
C532 C530 1.391 . S
C532 C533 1.400 . S
C533 C527 1.491 . S
C533 C532 1.400 . S
C533 C534 1.398 1_554 S
C534 H522 0.950 . S
C534 C533 1.398 1_556 S
C534 C535 1.391 . S
C535 H523 0.950 . S
C535 C531 1.393 . S
C535 C534 1.391 . S
H536 C544 0.948 . S
H537 C549 0.950 . S
H538 C546 0.950 1_556 S
H539 C548 0.950 . S
H540 C550 0.950 1_554 S
H541 C552 0.950 . S
H542 C554 0.950 . S
H543 C555 0.950 . S
C544 H536 0.948 . S
C544 C545 1.387 1_565 S
C544 C546 1.391 . S
C545 C544 1.387 1_545 S
C545 C549 1.393 . S
C546 H538 0.950 1_554 S
C546 C544 1.391 . S
C546 C547 1.400 1_565 S
C547 C546 1.400 1_545 S
C547 C548 1.398 . S
C547 C553 1.491 . S
C548 H539 0.950 . S
C548 C547 1.398 . S
C548 C549 1.391 . S
C549 H537 0.950 . S
C549 C545 1.393 . S
C549 C548 1.391 . S
C550 H540 0.950 1_556 S
C550 C551 1.386 . S
C550 C552 1.391 1_556 S
C551 C550 1.386 . S
C551 C555 1.393 1_545 S
C552 H541 0.950 . S
C552 C550 1.391 1_554 S
C552 C553 1.400 . S
C553 C547 1.491 . S
C553 C552 1.400 . S
C553 C554 1.398 1_544 S
C554 H542 0.950 . S
C554 C553 1.398 1_566 S
C554 C555 1.391 . S
C555 H543 0.950 . S
C555 C551 1.393 1_565 S
C555 C554 1.391 . S
H556 C564 0.950 . S
H557 C569 0.950 . S
H558 C566 0.950 1_556 S
H559 C568 0.950 . S
H560 C570 0.950 . S
H561 C572 0.950 . S
H562 C574 0.950 . S
H563 C575 0.950 . S
C564 H556 0.950 . S
C564 C565 1.386 . S
C564 C566 1.391 . S
C565 C564 1.386 . S
C565 C569 1.393 . S
C566 H558 0.950 1_554 S
C566 C564 1.391 . S
C566 C567 1.400 . S
C567 C566 1.400 . S
C567 C568 1.398 . S
C567 C573 1.491 1_554 S
C568 H559 0.950 . S
C568 C567 1.398 . S
C568 C569 1.391 . S
C569 H557 0.950 . S
C569 C565 1.393 . S
C569 C568 1.391 . S
C570 H560 0.950 . S
C570 C571 1.386 . S
C570 C572 1.391 1_556 S
C571 C570 1.386 . S
C571 C575 1.393 . S
C572 H561 0.950 . S
C572 C570 1.391 1_554 S
C572 C573 1.400 1_554 S
C573 C567 1.491 1_556 S
C573 C572 1.400 1_556 S
C573 C574 1.398 . S
C574 H562 0.950 . S
C574 C573 1.398 . S
C574 C575 1.391 . S
C575 H563 0.950 . S
C575 C571 1.393 . S
C575 C574 1.391 . S
H576 C584 0.950 . S
H577 C589 0.950 . S
H578 C586 0.950 . S
H579 C588 0.950 . S
H580 C590 0.950 . S
H581 C592 0.950 . S
H582 C594 0.950 . S
H583 C595 0.950 . S
C584 H576 0.950 . S
C584 C585 1.386 . S
C584 C586 1.391 . S
C585 C584 1.386 . S
C585 C589 1.393 . S
C586 H578 0.950 . S
C586 C584 1.391 . S
C586 C587 1.400 . S
C587 C586 1.400 . S
C587 C588 1.398 . S
C587 C593 1.491 1_554 S
C588 H579 0.950 . S
C588 C587 1.398 . S
C588 C589 1.391 . S
C589 H577 0.950 . S
C589 C585 1.393 . S
C589 C588 1.391 . S
C590 H580 0.950 . S
C590 C591 1.386 . S
C590 C592 1.391 . S
C591 C590 1.386 . S
C591 C595 1.393 . S
C592 H581 0.950 . S
C592 C590 1.391 . S
C592 C593 1.400 . S
C593 C587 1.491 1_556 S
C593 C592 1.400 . S
C593 C594 1.398 . S
C594 H582 0.950 . S
C594 C593 1.398 . S
C594 C595 1.391 . S
C595 H583 0.950 . S
C595 C591 1.393 . S
C595 C594 1.391 . S
H596 C604 0.953 . S
H597 C609 0.950 . S
H598 C606 0.950 . S
H599 C608 0.950 . S
H600 C610 0.950 . S
H601 C612 0.950 . S
H602 C614 0.950 . S
H603 C615 0.950 . S
C604 H596 0.953 . S
C604 C605 1.384 1_455 S
C604 C606 1.389 1_455 S
C605 C604 1.384 1_655 S
C605 C609 1.398 . S
C606 H598 0.950 . S
C606 C604 1.389 1_655 S
C606 C607 1.400 . S
C607 C606 1.400 . S
C607 C608 1.398 . S
C607 C613 1.491 . S
C608 H599 0.950 . S
C608 C607 1.398 . S
C608 C609 1.391 . S
C609 H597 0.950 . S
C609 C605 1.398 . S
C609 C608 1.391 . S
C610 H600 0.950 . S
C610 C611 1.386 . S
C610 C612 1.391 . S
C611 C610 1.386 . S
C611 C615 1.393 . S
C612 H601 0.950 . S
C612 C610 1.391 . S
C612 C613 1.400 . S
C613 C607 1.491 . S
C613 C612 1.400 . S
C613 C614 1.398 . S
C614 H602 0.950 . S
C614 C613 1.398 . S
C614 C615 1.391 . S
C615 H603 0.950 . S
C615 C611 1.393 . S
C615 C614 1.391 . S
H616 C624 0.950 . S
H617 C629 0.950 . S
H618 C626 0.950 . S
H619 C628 0.950 . S
H620 C630 0.950 . S
H621 C632 0.950 . S
H622 C634 0.950 . S
H623 C635 0.950 . S
C624 H616 0.950 . S
C624 C625 1.386 . S
C624 C626 1.391 . S
C625 C624 1.386 . S
C625 C629 1.393 1_565 S
C626 H618 0.950 . S
C626 C624 1.391 . S
C626 C627 1.400 . S
C627 C626 1.400 . S
C627 C628 1.398 1_565 S
C627 C633 1.491 . S
C628 H619 0.950 . S
C628 C627 1.398 1_545 S
C628 C629 1.391 . S
C629 H617 0.950 . S
C629 C625 1.393 1_545 S
C629 C628 1.391 . S
C630 H620 0.950 . S
C630 C631 1.386 1_545 S
C630 C632 1.391 . S
C631 C630 1.386 1_565 S
C631 C635 1.393 . S
C632 H621 0.950 . S
C632 C630 1.391 . S
C632 C633 1.400 1_545 S
C633 C627 1.491 . S
C633 C632 1.400 1_565 S
C633 C634 1.398 . S
C634 H622 0.950 . S
C634 C633 1.398 . S
C634 C635 1.391 . S
C635 H623 0.950 . S
C635 C631 1.393 . S
C635 C634 1.391 . S
H636 C644 0.950 . S
H637 C649 0.950 . S
H638 C646 0.950 . S
H639 C648 0.950 . S
H640 C650 0.950 . S
H641 C652 0.950 . S
H642 C654 0.950 . S
H643 C655 0.950 . S
C644 H636 0.950 . S
C644 C645 1.386 . S
C644 C646 1.391 . S
C645 C644 1.386 . S
C645 C649 1.393 . S
C646 H638 0.950 . S
C646 C644 1.391 . S
C646 C647 1.400 . S
C647 C646 1.400 . S
C647 C648 1.398 . S
C647 C653 1.491 . S
C648 H639 0.950 . S
C648 C647 1.398 . S
C648 C649 1.391 . S
C649 H637 0.950 . S
C649 C645 1.393 . S
C649 C648 1.391 . S
C650 H640 0.950 . S
C650 C651 1.386 . S
C650 C652 1.391 . S
C651 C650 1.386 . S
C651 C655 1.393 . S
C652 H641 0.950 . S
C652 C650 1.391 . S
C652 C653 1.400 . S
C653 C647 1.491 . S
C653 C652 1.400 . S
C653 C654 1.398 . S
C654 H642 0.950 . S
C654 C653 1.398 . S
C654 C655 1.391 . S
C655 H643 0.950 . S
C655 C651 1.393 . S
C655 C654 1.391 . S
H656 C664 0.950 . S
H657 C669 0.950 . S
H658 C666 0.950 . S
H659 C668 0.950 . S
H660 C670 0.950 . S
H661 C672 0.950 . S
H662 C674 0.950 . S
H663 C675 0.950 . S
C664 H656 0.950 . S
C664 C665 1.386 . S
C664 C666 1.391 . S
C665 C664 1.386 . S
C665 C669 1.393 . S
C666 H658 0.950 . S
C666 C664 1.391 . S
C666 C667 1.400 . S
C667 C666 1.400 . S
C667 C668 1.398 . S
C667 C673 1.491 . S
C668 H659 0.950 . S
C668 C667 1.398 . S
C668 C669 1.391 . S
C669 H657 0.950 . S
C669 C665 1.393 . S
C669 C668 1.391 . S
C670 H660 0.950 . S
C670 C671 1.386 . S
C670 C672 1.391 . S
C671 C670 1.386 . S
C671 C675 1.393 . S
C672 H661 0.950 . S
C672 C670 1.391 . S
C672 C673 1.400 . S
C673 C667 1.491 . S
C673 C672 1.400 . S
C673 C674 1.398 . S
C674 H662 0.950 . S
C674 C673 1.398 . S
C674 C675 1.391 . S
C675 H663 0.950 . S
C675 C671 1.393 . S
C675 C674 1.391 . S
C205 N80 1.603 . S
C211 C120 1.604 . S
C231 C143 1.632 . S
C225 N93 1.629 . S
C251 C166 1.642 . S
C245 N54 1.638 . S
C271 C193 1.505 . S
C265 N67 1.575 . S
C291 C121 1.571 . S
C285 N28 1.563 . S
C305 N41 1.502 1_556 S
C311 C144 1.510 . S
C325 N2 1.509 . S
C331 C167 1.510 . S
C345 N15 1.599 . S
C351 C192 1.591 . S
C371 C122 0.394 . S
C365 N70 0.416 . S
C391 C145 0.412 . S
C385 N83 0.405 . S
C411 C168 0.460 . S
C405 N96 0.428 . S
C425 N57 0.571 . S
C431 C194 0.648 . S
C445 N18 0.665 . S
C451 C125 0.663 . S
C471 C148 0.661 . S
C465 N31 0.651 1_545 S
C491 C171 0.619 . S
C485 N44 0.596 1_556 S
C505 N5 0.385 . S
C511 C191 0.400 . S
C525 N66 1.598 . S
C531 C123 1.551 . S
C545 N79 1.572 . S
C551 C146 1.535 . S
C571 C169 1.540 . S
C565 N92 1.580 . S
C591 C190 1.388 . S
C585 N53 1.387 . S
C605 N14 1.655 . S
C611 C124 1.557 . S
C631 C147 1.503 . S
C625 N27 1.604 . S
C651 C170 1.477 . S
C645 N40 1.581 . S
C665 N1 1.721 . S
C671 C189 1.721 . S
