# Generated by pormake.
# Topology tsx, (6,3)-cn, num edge types: 1
# Building blocks:
#     Node 0, Type 0, BuildingBlock: LEVNOQ01_clean_sbu_1, # of connection points: 6
#     Node 1, Type 0, BuildingBlock: LEVNOQ01_clean_sbu_1, # of connection points: 6
#     Node 2, Type 1, BuildingBlock: ESEHIV_clean_linker_0, # of connection points: 3
#     Node 3, Type 1, BuildingBlock: ESEHIV_clean_linker_0, # of connection points: 3
#     Node 4, Type 1, BuildingBlock: ESEHIV_clean_linker_0, # of connection points: 3
#     Node 5, Type 1, BuildingBlock: ESEHIV_clean_linker_0, # of connection points: 3
#     Edge 6, Type (0, 1), BuildingBlock: ZUJKAS_clean_linker_0, # of connection points: 2
#     Edge 7, Type (0, 1), BuildingBlock: ZUJKAS_clean_linker_0, # of connection points: 2
#     Edge 8, Type (0, 1), BuildingBlock: ZUJKAS_clean_linker_0, # of connection points: 2
#     Edge 9, Type (0, 1), BuildingBlock: ZUJKAS_clean_linker_0, # of connection points: 2
#     Edge 10, Type (0, 1), BuildingBlock: ZUJKAS_clean_linker_0, # of connection points: 2
#     Edge 11, Type (0, 1), BuildingBlock: ZUJKAS_clean_linker_0, # of connection points: 2
#     Edge 12, Type (0, 1), BuildingBlock: ZUJKAS_clean_linker_0, # of connection points: 2
#     Edge 13, Type (0, 1), BuildingBlock: ZUJKAS_clean_linker_0, # of connection points: 2
#     Edge 14, Type (0, 1), BuildingBlock: ZUJKAS_clean_linker_0, # of connection points: 2
#     Edge 15, Type (0, 1), BuildingBlock: ZUJKAS_clean_linker_0, # of connection points: 2
#     Edge 16, Type (0, 1), BuildingBlock: ZUJKAS_clean_linker_0, # of connection points: 2
#     Edge 17, Type (0, 1), BuildingBlock: ZUJKAS_clean_linker_0, # of connection points: 2
# Relax obj value: 0.130
# Max RMSD: 0.158
# Mean RMSD: 0.120
data_MOF--net-tsx--node1-LEVNOQ01_clean_sbu_1--node2-ESEHIV_clean_linker_0--edge1-ZUJKAS_clean_linker_0
_symmetry_space_group_name_H-M    P1
_symmetry_Int_Tables_number       1
_symmetry_cell_setting            triclinic
loop_
_symmetry_equiv_pos_as_xyz
'x, y, z'
_cell_length_a     22.645589
_cell_length_b     27.389105
_cell_length_c     45.369606
_cell_angle_alpha  97.534653
_cell_angle_beta   90.270084
_cell_angle_gamma 91.120213
loop_
_atom_site_label
_atom_site_type_symbol
_atom_site_fract_x
_atom_site_fract_y
_atom_site_fract_z
_atom_type_partial_charge
O0 O 0.15862 0.03522 0.0772 0.0
Mg1 Mg 0.20039 0.03757 0.03568 0.0
O2 O 0.06736 0.02828 0.05898 0.0
Mg3 Mg 0.07273 0.02931 0.00775 0.0
O4 O 0.15499 0.08088 0.01064 0.0
O5 O 0.24718 0.09852 0.02647 0.0
O6 O 0.07733 0.02965 0.95703 0.0
O7 O 0.02691 0.10871 0.0141 0.0
Mg8 Mg 0.96721 0.03936 0.99539 0.0
O9 O 0.99079 0.97146 0.00412 0.0
O10 O 0.99268 0.06666 0.95527 0.0
O11 O 0.94247 0.08948 0.03228 0.0
O12 O 0.90304 0.98881 0.98481 0.0
C13 C 0.17813 0.94004 0.00153 0.0
C14 C 0.10336 0.03032 0.08088 0.0
C15 C 0.20113 0.11001 0.0122 0.0
C16 C 0.04034 0.05222 0.9429 0.0
C17 C 0.97903 0.12241 0.0271 0.0
C18 C 0.93749 0.95796 0.99499 0.0
O19 O 0.21927 0.96984 0.01124 0.0
O20 O 0.12454 0.95402 0.00105 0.0
O21 O 0.63139 0.50449 0.56594 0.0
Mg22 Mg 0.65807 0.52986 0.526 0.0
O23 O 0.53865 0.51584 0.5549 0.0
Mg24 Mg 0.55018 0.52358 0.50439 0.0
O25 O 0.61996 0.59068 0.5128 0.0
O26 O 0.70764 0.59091 0.53644 0.0
O27 O 0.56242 0.53198 0.45368 0.0
O28 O 0.48252 0.58671 0.51037 0.0
Mg29 Mg 0.43303 0.49259 0.46468 0.0
O30 O 0.47893 0.4635 0.49625 0.0
O31 O 0.48696 0.49545 0.42743 0.0
O32 O 0.39997 0.56004 0.48607 0.0
O33 O 0.39964 0.42587 0.47423 0.0
C34 C 0.66491 0.44615 0.48991 0.0
C35 C 0.57767 0.50571 0.5734 0.0
C36 C 0.66792 0.61375 0.52346 0.0
C37 C 0.53703 0.51707 0.4288 0.0
C38 C 0.429 0.59292 0.50289 0.0
C39 C 0.44094 0.42737 0.49401 0.0
O40 O 0.7012 0.48176 0.49412 0.0
O41 O 0.61089 0.45368 0.49639 0.0
H42 H 0.95773 0.03684 0.392 0.0
H43 H 0.09581 0.93026 0.38621 0.0
H44 H 0.03598 -0.00216 0.47173 0.0
C45 C 0.98835 0.01447 0.40256 0.0
C46 C 0.99216 0.02002 0.43362 0.0
C47 C 0.02525 0.98197 0.38514 0.0
C48 C 0.06679 0.95537 0.39937 0.0
C49 C 0.07058 0.96063 0.43061 0.0
C50 C 0.03255 0.99267 0.44766 0.0
H51 H 0.92982 0.02108 0.62276 0.0
H52 H 0.04854 0.14608 0.63608 0.0
H53 H 0.99272 0.08715 0.54751 0.0
C54 C 0.95571 0.04937 0.61382 0.0
C55 C 0.95719 0.05017 0.58294 0.0
C56 C 0.98806 0.08414 0.63318 0.0
C57 C 0.02102 0.12067 0.62137 0.0
C58 C 0.0229 0.12225 0.59058 0.0
C59 C 0.99042 0.08701 0.57137 0.0
H60 H 0.46696 0.54038 0.89379 0.0
H61 H 0.59945 0.42936 0.88429 0.0
H62 H 0.53698 0.48725 0.97144 0.0
C63 C 0.49601 0.51581 0.90359 0.0
C64 C 0.49799 0.51725 0.93457 0.0
C65 C 0.5319 0.4838 0.88524 0.0
C66 C 0.57072 0.45338 0.89836 0.0
C67 C 0.57321 0.45428 0.92948 0.0
C68 C 0.53592 0.48608 0.94746 0.0
H69 H 0.41187 0.53379 0.11842 0.0
H70 H 0.56063 0.63418 0.12808 0.0
H71 H 0.49496 0.57784 0.04068 0.0
C72 C 0.44467 0.55587 0.10852 0.0
C73 C 0.44719 0.55398 0.07742 0.0
C74 C 0.48578 0.58455 0.12686 0.0
C75 C 0.52883 0.61211 0.11388 0.0
C76 C 0.53311 0.6096 0.08283 0.0
C77 C 0.49174 0.58066 0.06468 0.0
H78 H 0.29319 0.15049 0.98608 0.0
H79 H 0.30811 0.23768 0.98213 0.0
H80 H 0.12738 0.26486 0.00789 0.0
H81 H 0.11253 0.17706 0.01232 0.0
H82 H 0.25936 0.31919 0.95788 0.0
H83 H 0.22667 0.32622 0.08017 0.0
H84 H 0.23173 0.26875 0.05607 0.0
H85 H 0.16545 0.30386 0.05654 0.0
C86 C 0.25596 0.17474 0.98984 0.0
C87 C 0.20207 0.15736 6e-05 0.0
C88 C 0.26446 0.22458 0.98743 0.0
C89 C 0.21936 0.25793 0.99546 0.0
C90 C 0.16305 0.23973 0.00202 0.0
H91 H 0.32704 0.55054 0.07971 0.0
H92 H 0.2606 0.48722 0.05371 0.0
C93 C 0.15443 0.18952 0.00434 0.0
C94 C 0.23584 0.3108 0.00292 0.0
H95 H 0.26854 0.39515 0.06325 0.0
C96 C 0.26014 0.33642 0.98082 0.0
C97 C 0.23739 0.33303 0.03292 0.0
C98 C 0.21435 0.30666 0.05791 0.0
C99 C 0.28782 0.38293 0.98811 0.0
C100 C 0.29222 0.40373 0.0183 0.0
C101 C 0.265 0.3793 0.0401 0.0
C102 C 0.32987 0.44774 0.0286 0.0
C103 C 0.31292 0.40896 0.96353 0.0
C104 C 0.39071 0.44739 0.02259 0.0
C105 C 0.42848 0.48389 0.03713 0.0
C106 C 0.40623 0.52067 0.05843 0.0
C107 C 0.34516 0.52234 0.06347 0.0
C108 C 0.30727 0.48635 0.04856 0.0
H109 H 0.28982 0.39697 0.94207 0.0
H110 H 0.30946 0.44953 0.96892 0.0
H111 H 0.36023 0.39989 0.96052 0.0
H112 H 0.40965 0.41733 0.00804 0.0
H113 H 0.47553 0.48159 0.03308 0.0
H114 H 0.11167 0.85665 0.0077 0.0
H115 H 0.14905 0.77214 0.00504 0.0
H116 H 0.31793 0.82244 0.97595 0.0
H117 H 0.28144 0.90595 0.97855 0.0
H118 H 0.21524 0.70804 0.95446 0.0
H119 H 0.3458 0.76349 0.05743 0.0
H120 H 0.28131 0.79615 0.0478 0.0
H121 H 0.35121 0.80647 0.03079 0.0
C122 C 0.1562 0.84922 -2e-05 0.0
C123 C 0.19389 0.88787 0.99359 0.0
C124 C 0.17758 0.80116 -0.00129 0.0
C125 C 0.23663 0.79154 0.991 0.0
C126 C 0.27259 0.8294 0.98252 0.0
H127 H 0.50905 0.61626 0.94007 0.0
H128 H 0.43839 0.67651 0.96237 0.0
C129 C 0.25156 0.87703 0.98387 0.0
C130 C 0.2631 0.74302 0.99279 0.0
H131 H 0.38069 0.69341 0.02477 0.0
C132 C 0.25002 0.70395 0.97041 0.0
C133 C 0.30834 0.73793 0.01373 0.0
C134 C 0.32225 0.77807 0.039 0.0
C135 C 0.28476 0.66162 0.96684 0.0
C136 C 0.33334 0.65855 0.9862 0.0
C137 C 0.34335 0.69588 0.01001 0.0
C138 C 0.38016 0.62234 0.97836 0.0
C139 C 0.27268 0.6223 0.94086 0.0
C140 C 0.37188 0.57218 0.98114 0.0
C141 C 0.41268 0.53775 0.96857 0.0
C142 C 0.46157 0.55325 0.95302 0.0
C143 C 0.47151 0.60366 0.95195 0.0
C144 C 0.43131 0.63795 0.96469 0.0
H145 H 0.23342 0.63037 0.92769 0.0
H146 H 0.31163 0.61887 0.926 0.0
H147 H 0.2653 0.58622 0.94902 0.0
H148 H 0.33274 0.55953 0.99175 0.0
H149 H 0.40439 0.49893 0.96945 0.0
H150 H 0.84527 0.91078 0.96451 0.0
H151 H 0.79107 0.8384 0.97657 0.0
H152 H 0.9194 0.82078 0.04473 0.0
H153 H 0.97407 0.89407 0.03291 0.0
H154 H 0.81623 0.73849 0.98158 0.0
H155 H 0.76209 0.84932 0.08959 0.0
H156 H 0.79534 0.87635 0.05934 0.0
H157 H 0.83936 0.84154 0.08182 0.0
C158 C 0.86267 0.89103 0.98173 0.0
C159 C 0.91323 0.90859 0.99821 0.0
C160 C 0.83177 0.84952 0.98846 0.0
C161 C 0.85063 0.82493 0.01188 0.0
C162 C 0.90378 0.83985 0.02683 0.0
H163 H 0.64842 0.61551 0.10089 0.0
H164 H 0.72879 0.66343 0.08233 0.0
C165 C 0.93508 0.88147 0.01997 0.0
C166 C 0.81068 0.78776 0.02253 0.0
H167 H 0.71798 0.77063 0.07954 0.0
C168 C 0.79519 0.74514 0.00312 0.0
C169 C 0.78265 0.79713 0.05045 0.0
C170 C 0.79514 0.84369 0.07149 0.0
C171 C 0.75209 0.71166 0.01093 0.0
C172 C 0.72379 0.72144 0.03867 0.0
C173 C 0.74008 0.76343 0.05829 0.0
C174 C 0.67627 0.6891 0.04779 0.0
C175 C 0.73676 0.66622 0.98956 0.0
C176 C 0.62022 0.68768 0.03432 0.0
C177 C 0.57373 0.66092 0.04518 0.0
C178 C 0.58276 0.63539 0.06972 0.0
C179 C 0.63963 0.63573 0.08242 0.0
C180 C 0.68577 0.66266 0.0717 0.0
H181 H 0.76962 0.65957 0.97144 0.0
H182 H 0.734 0.63334 0.00148 0.0
H183 H 0.69284 0.67069 0.9794 0.0
H184 H 0.61203 0.70849 0.01604 0.0
H185 H 0.5304 0.66157 0.03503 0.0
H186 H 0.0013 0.18204 0.98483 0.0
H187 H 0.93835 0.24806 0.97291 0.0
H188 H 0.84065 0.2407 0.0537 0.0
H189 H 0.90171 0.17266 0.06485 0.0
H190 H 0.76913 0.22924 0.00838 0.0
H191 H 0.91318 0.39074 0.99627 0.0
H192 H 0.93761 0.33637 0.9737 0.0
H193 H 0.93879 0.33931 0.01361 0.0
C194 C 0.96807 0.19593 0.00071 0.0
C195 C 0.95636 0.17225 0.0258 0.0
C196 C 0.93193 0.23381 0.99384 0.0
C197 C 0.88461 0.24962 0.01241 0.0
C198 C 0.87664 0.22905 0.03894 0.0
H199 H 0.64278 0.4805 0.97874 0.0
H200 H 0.71629 0.43075 7e-05 0.0
C201 C 0.91188 0.19048 0.04547 0.0
C202 C 0.83863 0.28189 0.00224 0.0
H203 H 0.81684 0.38958 0.97368 0.0
C204 C 0.77964 0.26463 0.0012 0.0
C205 C 0.85203 0.32802 0.99272 0.0
C206 C 0.91379 0.34989 0.9944 0.0
C207 C 0.73401 0.29175 0.99064 0.0
C208 C 0.74777 0.33694 0.98013 0.0
C209 C 0.80646 0.3547 0.98156 0.0
C210 C 0.70186 0.36637 0.96758 0.0
C211 C 0.6714 0.27191 0.99112 0.0
C212 C 0.66935 0.34668 0.94222 0.0
C213 C 0.62686 0.37483 0.93016 0.0
C214 C 0.61637 0.42342 0.94308 0.0
C215 C 0.64903 0.44297 0.96852 0.0
C216 C 0.69145 0.41476 0.98058 0.0
H217 H 0.66636 0.24476 0.00716 0.0
H218 H 0.63983 0.30207 0.99707 0.0
H219 H 0.65937 0.25298 0.9687 0.0
H220 H 0.6773 0.30969 0.93153 0.0
H221 H 0.60222 0.35853 0.91069 0.0
H222 H 0.72793 0.67925 0.56245 0.0
H223 H 0.76274 0.76152 0.55529 0.0
H224 H 0.67081 0.74919 0.47112 0.0
H225 H 0.63461 0.66592 0.4784 0.0
H226 H 0.82603 0.77075 0.48927 0.0
H227 H 0.64637 0.89552 0.53256 0.0
H228 H 0.6566 0.84057 0.54984 0.0
H229 H 0.63185 0.83531 0.51193 0.0
C230 C 0.71414 0.69428 0.54263 0.0
C231 C 0.67906 0.66617 0.52084 0.0
C232 C 0.73403 0.74125 0.5386 0.0
C233 C 0.71964 0.761 0.51262 0.0
C234 C 0.6822 0.73428 0.49132 0.0
H235 H 0.87881 0.05806 0.53769 0.0
H236 H 0.82088 0.99061 0.5091 0.0
C237 C 0.66145 0.68705 0.49555 0.0
C238 C 0.74887 0.80777 0.50765 0.0
H239 H 0.74402 0.9299 0.53391 0.0
C240 C 0.8076 0.80596 0.49796 0.0
C241 C 0.72451 0.85343 0.51878 0.0
C242 C 0.6612 0.85679 0.52876 0.0
C243 C 0.84439 0.8481 0.50193 0.0
C244 C 0.82189 0.8927 0.51642 0.0
C245 C 0.7614 0.89559 0.52303 0.0
C246 C 0.8617 0.93308 0.53002 0.0
C247 C 0.908 0.84363 0.49237 0.0
C248 C 0.90355 0.92297 0.55119 0.0
C249 C 0.93598 0.96105 0.56748 0.0
C250 C 0.92703 0.01014 0.5631 0.0
C251 C 0.88666 0.02038 0.54123 0.0
C252 C 0.85368 0.98204 0.52498 0.0
H253 H 0.91222 0.81598 0.4723 0.0
H254 H 0.92688 0.87944 0.48754 0.0
H255 H 0.93446 0.83075 0.5104 0.0
H256 H 0.90935 0.88571 0.55612 0.0
H257 H 0.96706 0.95221 0.58414 0.0
H258 H 0.60684 0.35941 0.49616 0.0
H259 H 0.6512 0.27811 0.49485 0.0
H260 H 0.81734 0.33789 0.4684 0.0
H261 H 0.77389 0.41893 0.46979 0.0
H262 H 0.71518 0.21763 0.44814 0.0
H263 H 0.85396 0.28064 0.54723 0.0
H264 H 0.78962 0.31329 0.53748 0.0
H265 H 0.85866 0.32071 0.51898 0.0
C266 C 0.65253 0.35498 0.48954 0.0
C267 C 0.68722 0.39567 0.4835 0.0
C268 C 0.67779 0.30867 0.48899 0.0
C269 C 0.73784 0.30265 0.48241 0.0
C270 C 0.77127 0.34232 0.47433 0.0
H271 H 0.01356 0.11776 0.44105 0.0
H272 H 0.94562 0.18212 0.46095 0.0
C273 C 0.74627 0.38847 0.47493 0.0
C274 C 0.76677 0.25539 0.48433 0.0
H275 H 0.88518 0.20748 0.51642 0.0
C276 C 0.75142 0.21475 0.46349 0.0
C277 C 0.81354 0.25197 0.50468 0.0
C278 C 0.82962 0.29384 0.52857 0.0
C279 C 0.7851 0.17197 0.46073 0.0
C280 C 0.83457 0.16991 0.4797 0.0
C281 C 0.84723 0.20929 0.50195 0.0
C282 C 0.87879 0.13117 0.47342 0.0
C283 C 0.7703 0.13087 0.43611 0.0
C284 C 0.86453 0.08149 0.47502 0.0
C285 C 0.90345 0.04476 0.46371 0.0
C286 C 0.95672 0.05767 0.45086 0.0
C287 C 0.97258 0.10738 0.45104 0.0
C288 C 0.93396 0.14395 0.4624 0.0
H289 H 0.73484 0.14094 0.42114 0.0
H290 H 0.81007 0.12084 0.42259 0.0
H291 H 0.75517 0.09779 0.44591 0.0
H292 H 0.82233 0.07113 0.48373 0.0
H293 H 0.89072 0.0064 0.46352 0.0
H294 H 0.42204 0.44629 0.55301 0.0
H295 H 0.36457 0.39022 0.58011 0.0
H296 H 0.39027 0.27242 0.50871 0.0
H297 H 0.44623 0.32864 0.4814 0.0
H298 H 0.26309 0.35603 0.54116 0.0
H299 H 0.37479 0.20205 0.58573 0.0
H300 H 0.41084 0.26105 0.58372 0.0
H301 H 0.40176 0.21745 0.55078 0.0
C302 C 0.41878 0.40763 0.54411 0.0
C303 C 0.43802 0.39154 0.51519 0.0
C304 C 0.38558 0.37572 0.55949 0.0
C305 C 0.37286 0.32736 0.54625 0.0
C306 C 0.40008 0.30944 0.51942 0.0
H307 H 0.10323 0.10242 0.54622 0.0
H308 H 0.18597 0.15555 0.53479 0.0
C309 C 0.43225 0.34152 0.50385 0.0
C310 C 0.31977 0.30104 0.55521 0.0
H311 H 0.27128 0.19239 0.57635 0.0
C312 C 0.26471 0.32064 0.54942 0.0
C313 C 0.32237 0.25453 0.56521 0.0
C314 C 0.38056 0.23247 0.57196 0.0
C315 C 0.21203 0.29415 0.55241 0.0
C316 C 0.21452 0.24735 0.5622 0.0
C317 C 0.26958 0.2282 0.56865 0.0
C318 C 0.16052 0.21779 0.56625 0.0
C319 C 0.1545 0.3156 0.54381 0.0
C320 C 0.11786 0.23588 0.58695 0.0
C321 C 0.07024 0.20593 0.59319 0.0
C322 C 0.06488 0.15716 0.57908 0.0
C323 C 0.10587 0.14001 0.55718 0.0
C324 C 0.15349 0.17008 0.5509 0.0
H325 H 0.16164 0.34442 0.52901 0.0
H326 H 0.12445 0.28656 0.53235 0.0
H327 H 0.13222 0.3329 0.56417 0.0
H328 H 0.12277 0.27238 0.59928 0.0
H329 H 0.03909 0.22008 0.61009 0.0
H330 H 0.31237 0.60992 0.51151 0.0
H331 H 0.26372 0.68877 0.51177 0.0
H332 H 0.43334 0.76291 0.51154 0.0
H333 H 0.48269 0.68393 0.51176 0.0
H334 H 0.29473 0.80548 0.54678 0.0
H335 H 0.3283 0.75023 0.42522 0.0
H336 H 0.31921 0.70375 0.44964 0.0
H337 H 0.3852 0.74124 0.45183 0.0
C338 C 0.33934 0.64323 0.51257 0.0
C339 C 0.40118 0.64089 0.51111 0.0
C340 C 0.31151 0.68821 0.51295 0.0
C341 C 0.3451 0.7313 0.51155 0.0
C342 C 0.40692 0.72988 0.51288 0.0
H343 H 0.1884 0.95692 0.41945 0.0
H344 H 0.2625 0.91054 0.44301 0.0
C345 C 0.43494 0.68481 0.51293 0.0
C346 C 0.31562 0.77417 0.50215 0.0
H347 H 0.26521 0.81551 0.43929 0.0
C348 C 0.28898 0.80848 0.52334 0.0
C349 C 0.30867 0.77774 0.47157 0.0
C350 C 0.33674 0.74146 0.44807 0.0
C351 C 0.25374 0.84579 0.51454 0.0
C352 C 0.24384 0.84749 0.48383 0.0
C353 C 0.27273 0.81425 0.4628 0.0
C354 C 0.20068 0.88075 0.47263 0.0
C355 C 0.22733 0.88269 0.53817 0.0
C356 C 0.14137 0.87953 0.4815 0.0
C357 C 0.09921 0.90634 0.46826 0.0
C358 C 0.11547 0.93384 0.44546 0.0
C359 C 0.1748 0.93549 0.43678 0.0
C360 C 0.2171 0.90934 0.45035 0.0
H361 H 0.25522 0.8878 0.5586 0.0
H362 H 0.22192 0.91902 0.53024 0.0
H363 H 0.18329 0.86886 0.54432 0.0
H364 H 0.1272 0.85648 0.4979 0.0
H365 H 0.05356 0.90427 0.47513 0.0
H366 H 0.98952 0.03792 0.10216 0.0
H367 H 0.95618 0.02746 0.15264 0.0
H368 H 0.13444 -0.00338 0.17706 0.0
H369 H 0.16808 0.00717 0.1274 0.0
H370 H 0.9902 0.93399 0.18855 0.0
H371 H 0.06466 0.12317 0.23546 0.0
H372 H 0.03957 0.10786 0.19741 0.0
H373 H 0.11166 0.09024 0.20811 0.0
C374 C 0.02146 0.02881 0.11832 0.0
C375 C 0.08159 0.02402 0.1109 0.0
C376 C 0.00232 0.02268 0.14701 0.0
C377 C 0.04306 0.01143 0.1684 0.0
C378 C 0.10255 0.00557 0.16081 0.0
H379 H 0.11721 0.98071 0.34627 0.0
H380 H 0.11208 0.98474 0.29278 0.0
C381 C 0.12168 0.01195 0.13244 0.0
C382 C 0.02552 0.00772 0.19933 0.0
H383 H 0.04923 0.0657 0.26968 0.0
C384 C 0.00164 0.96306 0.20637 0.0
C385 C 0.04085 0.04575 0.22233 0.0
C386 C 0.06528 0.09471 0.21563 0.0
C387 C 0.9959 0.95455 0.23615 0.0
C388 C 0.01459 0.99168 0.2591 0.0
C389 C 0.03551 0.03717 0.25196 0.0
C390 C 0.0166 0.98339 0.29063 0.0
C391 C 0.97303 0.9052 0.24295 0.0
C392 C 0.96454 0.98045 0.30692 0.0
C393 C 0.96733 0.97795 0.33748 0.0
C394 C 0.02226 0.97853 0.35223 0.0
C395 C 0.07428 0.97967 0.33555 0.0
C396 C 0.07142 0.98229 0.30505 0.0
H397 H 0.96632 0.87849 0.22251 0.0
H398 H 0.0043 0.88953 0.25796 0.0
H399 H 0.93018 0.90999 0.25463 0.0
H400 H 0.92184 0.98169 0.29621 0.0
H401 H 0.92649 0.97661 0.3497 0.0
H402 H 0.09973 0.99249 0.90051 0.0
H403 H 0.1003 -0.00236 0.84678 0.0
H404 H 0.00228 0.1319 0.86145 0.0
H405 H 0.00085 0.12677 0.91488 0.0
H406 H 0.95687 0.03104 0.81913 0.0
H407 H 0.17351 0.1193 0.79724 0.0
H408 H 0.16746 0.07636 0.82416 0.0
H409 H 0.13581 0.13601 0.83201 0.0
C410 C 0.07963 0.02368 0.89228 0.0
C411 C 0.04984 0.05905 0.91165 0.0
C412 C 0.0799 0.0265 0.86171 0.0
C413 C 0.0513 0.06513 0.85043 0.0
C414 C 0.02451 0.10188 0.86992 0.0
H415 H 0.98685 0.15854 0.67981 0.0
H416 H 0.00249 0.15186 0.73258 0.0
C417 C 0.02363 0.09882 0.90032 0.0
C418 C 0.04338 0.06472 0.81821 0.0
H419 H 0.1066 0.10288 0.75691 0.0
C420 C 0.98969 0.04628 0.80537 0.0
C421 C 0.08629 0.08506 0.80072 0.0
C422 C 0.14422 0.10543 0.81401 0.0
C423 C 0.9774 0.04822 0.77527 0.0
C424 C 0.02014 0.06889 0.75774 0.0
C425 C 0.07407 0.08703 0.77055 0.0
C426 C 0.00919 0.07253 0.72607 0.0
C427 C 0.91833 0.02939 0.76253 0.0
C428 C 0.00751 0.03003 0.7052 0.0
C429 C 0.99899 0.03369 0.67509 0.0
C430 C 0.99197 0.07998 0.6654 0.0
C431 C 0.99267 0.12243 0.68655 0.0
C432 C 0.0015 0.11871 0.71664 0.0
H433 H 0.88669 0.02199 0.78014 0.0
H434 H 0.89875 0.05641 0.74927 0.0
H435 H 0.92452 0.99459 0.74745 0.0
H436 H 0.01396 0.99414 0.71215 0.0
H437 H -0.00019 0.0004 0.65933 0.0
H438 H 0.65327 0.48798 0.61732 0.0
H439 H 0.63119 0.48185 0.66913 0.0
H440 H 0.44609 0.49998 0.65211 0.0
H441 H 0.46771 0.50658 0.59959 0.0
H442 H 0.54774 0.56719 0.70671 0.0
H443 H 0.48965 0.36721 0.70006 0.0
H444 H 0.54267 0.38856 0.67477 0.0
H445 H 0.46631 0.40286 0.67141 0.0
C446 C 0.60764 0.49033 0.62432 0.0
C447 C 0.56224 0.49812 0.60424 0.0
C448 C 0.59523 0.4868 0.65401 0.0
C449 C 0.5372 0.49057 0.66432 0.0
C450 C 0.49123 0.497 0.6444 0.0
H451 H 0.43393 0.48156 0.84964 0.0
H452 H 0.43009 0.48426 0.79582 0.0
C453 C 0.50365 0.50074 0.61448 0.0
C454 C 0.52625 0.48995 0.69634 0.0
H455 H 0.50108 0.41194 0.74798 0.0
C456 C 0.53661 0.53349 0.71579 0.0
C457 C 0.51234 0.44577 0.70791 0.0
C458 C 0.50197 0.3982 0.68762 0.0
C459 C 0.53473 0.53369 0.74672 0.0
C460 C 0.52262 0.48918 0.75833 0.0
C461 C 0.51041 0.44594 0.73888 0.0
C462 C 0.52488 0.48665 0.79066 0.0
C463 C 0.54676 0.58115 0.76691 0.0
C464 C 0.57953 0.4866 0.80535 0.0
C465 C 0.58191 0.48482 0.836 0.0
C466 C 0.52961 0.4834 0.85248 0.0
C467 C 0.47493 0.48305 0.83756 0.0
C468 C 0.47262 0.48441 0.80687 0.0
H469 H 0.54729 0.61361 0.75456 0.0
H470 H 0.5128 0.58645 0.78456 0.0
H471 H 0.59034 0.5793 0.77797 0.0
H472 H 0.62031 0.48821 0.7931 0.0
H473 H 0.62464 0.48563 0.84691 0.0
H474 H 0.55334 0.60797 0.41231 0.0
H475 H 0.55575 0.62575 0.36064 0.0
H476 H 0.57427 0.47095 0.33017 0.0
H477 H 0.56964 0.45307 0.3816 0.0
H478 H 0.62635 0.60352 0.30703 0.0
H479 H 0.40887 0.5054 0.30099 0.0
H480 H 0.44715 0.5243 0.3357 0.0
H481 H 0.46886 0.4698 0.31206 0.0
C482 C 0.56063 0.57815 0.39461 0.0
C483 C 0.56141 0.52921 0.4007 0.0
C484 C 0.56158 0.58825 0.36513 0.0
C485 C 0.5637 0.54948 0.34163 0.0
C486 C 0.57152 0.50124 0.34801 0.0
H487 H 0.48894 0.5022 0.15429 0.0
H488 H 0.50742 0.49735 0.20698 0.0
C489 C 0.56951 0.49109 0.37734 0.0
C490 C 0.549 0.55805 0.3109 0.0
H491 H 0.44601 0.52803 0.25599 0.0
C492 C 0.5869 0.58724 0.29581 0.0
C493 C 0.49695 0.5373 0.29656 0.0
C494 C 0.45276 0.50784 0.3122 0.0
C495 C 0.57541 0.59443 0.26619 0.0
C496 C 0.52401 0.57258 0.25162 0.0
C497 C 0.48551 0.54448 0.26708 0.0
C498 C 0.51038 0.57633 0.21995 0.0
C499 C 0.61942 0.62392 0.25052 0.0
C500 C 0.50401 0.62229 0.20986 0.0
C501 C 0.49383 0.62508 0.17969 0.0
C502 C 0.48858 0.58194 0.15925 0.0
C503 C 0.49213 0.53599 0.16962 0.0
C504 C 0.5031 0.53323 0.19967 0.0
H505 H 0.66304 0.62717 0.262 0.0
H506 H 0.62574 0.60699 0.22717 0.0
H507 H 0.60271 0.66167 0.25023 0.0
H508 H 0.50752 0.65599 0.22523 0.0
H509 H 0.49082 0.66095 0.17223 0.0
loop_
_geom_bond_atom_site_label_1
_geom_bond_atom_site_label_2
_geom_bond_distance
_geom_bond_site_symmetry_2
_ccdc_geom_bond_type
O0 Mg1 1.990 . S
O0 C14 1.253 . S
Mg1 O0 1.990 . S
Mg1 O4 2.180 . S
Mg1 O5 2.117 . S
Mg1 O19 2.030 1_545 S
O2 Mg3 2.072 . S
O2 C14 1.260 . S
Mg3 O2 2.072 . S
Mg3 O4 2.099 . S
Mg3 O6 2.079 1_554 S
Mg3 O7 2.072 . S
Mg3 O9 2.099 1_444 S
Mg3 O20 2.079 1_544 S
O4 Mg1 2.180 . S
O4 Mg3 2.099 . S
O4 C15 1.279 . S
O5 Mg1 2.117 . S
O5 C15 1.250 . S
O6 Mg3 2.079 1_556 S
O6 C16 1.264 . S
O7 Mg3 2.072 . S
O7 C17 1.260 1_455 S
Mg8 O9 2.180 1_545 S
Mg8 O10 2.030 . S
Mg8 O11 1.990 . S
Mg8 O12 2.117 1_545 S
O9 Mg3 2.099 1_666 S
O9 Mg8 2.180 1_565 S
O9 C18 1.279 1_556 S
O10 Mg8 2.030 . S
O10 C16 1.248 1_655 S
O11 Mg8 1.990 . S
O11 C17 1.253 1_556 S
O12 Mg8 2.117 1_565 S
O12 C18 1.250 1_556 S
C13 O19 1.248 . S
C13 O20 1.245 1_554 S
C14 O0 1.253 . S
C14 O2 1.260 . S
C15 O4 1.279 . S
C15 O5 1.250 . S
C16 O6 1.264 . S
C16 O10 1.248 1_455 S
C17 O7 1.260 1_655 S
C17 O11 1.253 1_554 S
C18 O9 1.279 1_554 S
C18 O12 1.250 1_554 S
O19 Mg1 2.030 1_565 S
O19 C13 1.248 . S
O20 Mg3 2.079 1_566 S
O20 C13 1.245 1_556 S
O21 Mg22 1.990 . S
O21 C35 1.253 . S
Mg22 O21 1.990 . S
Mg22 O25 2.180 . S
Mg22 O26 2.117 . S
Mg22 O40 2.030 . S
O23 Mg24 2.072 . S
O23 C35 1.260 . S
Mg24 O23 2.072 . S
Mg24 O25 2.099 . S
Mg24 O27 2.079 . S
Mg24 O28 2.072 . S
Mg24 O30 2.099 . S
Mg24 O41 2.079 . S
O25 Mg22 2.180 . S
O25 Mg24 2.099 . S
O25 C36 1.279 . S
O26 Mg22 2.117 . S
O26 C36 1.250 . S
O27 Mg24 2.079 . S
O27 C37 1.264 . S
O28 Mg24 2.072 . S
O28 C38 1.260 . S
Mg29 O30 2.180 . S
Mg29 O31 2.030 . S
Mg29 O32 1.990 . S
Mg29 O33 2.117 . S
O30 Mg24 2.099 . S
O30 Mg29 2.180 . S
O30 C39 1.279 . S
O31 Mg29 2.030 . S
O31 C37 1.248 . S
O32 Mg29 1.990 . S
O32 C38 1.253 . S
O33 Mg29 2.117 . S
O33 C39 1.250 . S
C34 O40 1.248 . S
C34 O41 1.264 . S
C35 O21 1.253 . S
C35 O23 1.260 . S
C36 O25 1.279 . S
C36 O26 1.250 . S
C37 O27 1.264 . S
C37 O31 1.248 . S
C38 O28 1.260 . S
C38 O32 1.253 . S
C39 O30 1.279 . S
C39 O33 1.250 . S
O40 Mg22 2.030 . S
O40 C34 1.248 . S
O41 Mg24 2.079 . S
O41 C34 1.264 . S
H42 C45 0.931 1_655 S
H43 C48 0.928 . S
H44 C50 0.930 . S
C45 H42 0.931 1_455 S
C45 C46 1.413 . S
C45 C47 1.368 . S
C46 C45 1.413 . S
C46 C50 1.429 . S
C47 C45 1.368 . S
C47 C48 1.362 1_545 S
C48 H43 0.928 . S
C48 C47 1.362 1_565 S
C48 C49 1.404 . S
C49 C48 1.404 . S
C49 C50 1.391 1_565 S
C50 H44 0.930 . S
C50 C46 1.429 . S
C50 C49 1.391 1_545 S
H51 C54 0.931 . S
H52 C57 0.928 . S
H53 C59 0.930 . S
C54 H51 0.931 . S
C54 C55 1.413 . S
C54 C56 1.360 1_655 S
C55 C54 1.413 . S
C55 C59 1.437 . S
C56 C54 1.360 1_455 S
C56 C57 1.372 . S
C57 H52 0.928 . S
C57 C56 1.372 . S
C57 C58 1.404 . S
C58 C57 1.404 . S
C58 C59 1.382 1_455 S
C59 H53 0.930 . S
C59 C55 1.437 . S
C59 C58 1.382 1_655 S
H60 C63 0.931 . S
H61 C66 0.928 . S
H62 C68 0.930 . S
C63 H60 0.931 . S
C63 C64 1.413 . S
C63 C65 1.360 . S
C64 C63 1.413 . S
C64 C68 1.429 . S
C65 C63 1.360 . S
C65 C66 1.372 . S
C66 H61 0.928 . S
C66 C65 1.372 . S
C66 C67 1.404 . S
C67 C66 1.404 . S
C67 C68 1.391 . S
C68 H62 0.930 . S
C68 C64 1.429 . S
C68 C67 1.391 . S
H69 C72 0.931 . S
H70 C75 0.928 . S
H71 C77 0.930 . S
C72 H69 0.931 . S
C72 C73 1.413 . S
C72 C74 1.360 . S
C73 C72 1.413 . S
C73 C77 1.429 . S
C74 C72 1.360 . S
C74 C75 1.372 . S
C75 H70 0.928 . S
C75 C74 1.372 . S
C75 C76 1.404 . S
C76 C75 1.404 . S
C76 C77 1.391 . S
C77 H71 0.930 . S
C77 C73 1.429 . S
C77 C76 1.391 . S
H78 C86 0.929 . S
H79 C88 0.930 . S
H80 C90 0.930 . S
H81 C93 0.929 . S
H82 C96 0.930 1_556 S
H83 C98 0.960 . S
H84 C98 0.960 . S
H85 C98 0.960 . S
C86 H78 0.929 . S
C86 C87 1.377 . S
C86 C88 1.384 . S
C87 C86 1.377 . S
C87 C93 1.390 . S
C88 H79 0.930 . S
C88 C86 1.384 . S
C88 C89 1.372 . S
C89 C88 1.372 . S
C89 C90 1.400 . S
C89 C94 1.490 . S
C90 H80 0.930 . S
C90 C89 1.400 . S
C90 C93 1.386 . S
H91 C107 0.930 . S
H92 C108 0.931 . S
C93 H81 0.929 . S
C93 C87 1.390 . S
C93 C90 1.386 . S
C94 C89 1.490 . S
C94 C96 1.395 . S
C94 C97 1.403 . S
H95 C101 0.930 . S
C96 H82 0.930 1_554 S
C96 C94 1.395 . S
C96 C99 1.403 . S
C97 C94 1.403 . S
C97 C98 1.524 . S
C97 C101 1.400 . S
C98 H83 0.960 . S
C98 H84 0.960 . S
C98 H85 0.960 . S
C98 C97 1.524 . S
C99 C96 1.403 . S
C99 C100 1.392 . S
C99 C103 1.495 1_554 S
C100 C99 1.392 . S
C100 C101 1.385 . S
C100 C102 1.478 . S
C101 H95 0.930 . S
C101 C97 1.400 . S
C101 C100 1.385 . S
C102 C100 1.478 . S
C102 C104 1.381 . S
C102 C108 1.383 . S
C103 C99 1.495 1_556 S
C103 H109 0.959 . S
C103 H110 0.961 . S
C103 H111 0.961 1_556 S
C104 C102 1.381 . S
C104 C105 1.394 . S
C104 H112 0.930 . S
C105 C104 1.394 . S
C105 C106 1.383 . S
C105 H113 0.929 . S
C106 C105 1.383 . S
C106 C107 1.377 . S
C107 H91 0.930 . S
C107 C106 1.377 . S
C107 C108 1.379 . S
C108 H92 0.931 . S
C108 C102 1.383 . S
C108 C107 1.379 . S
H109 C103 0.959 . S
H110 C103 0.961 . S
H111 C103 0.961 1_554 S
H112 C104 0.930 . S
H113 C105 0.929 . S
H114 C122 0.929 . S
H115 C124 0.925 . S
H116 C126 0.930 . S
H117 C129 0.929 . S
H118 C132 0.930 . S
H119 C134 0.960 . S
H120 C134 0.960 . S
H121 C134 0.960 . S
C122 H114 0.929 . S
C122 C123 1.377 . S
C122 C124 1.384 . S
C123 C122 1.377 . S
C123 C129 1.390 1_554 S
C124 H115 0.925 . S
C124 C122 1.384 . S
C124 C125 1.371 1_554 S
C125 C124 1.371 1_556 S
C125 C126 1.400 . S
C125 C130 1.490 . S
C126 H116 0.930 . S
C126 C125 1.400 . S
C126 C129 1.386 . S
H127 C143 0.930 . S
H128 C144 0.931 . S
C129 H117 0.929 . S
C129 C123 1.390 1_556 S
C129 C126 1.386 . S
C130 C125 1.490 . S
C130 C132 1.395 . S
C130 C133 1.403 . S
H131 C137 0.930 . S
C132 H118 0.930 . S
C132 C130 1.395 . S
C132 C135 1.403 . S
C133 C130 1.403 . S
C133 C134 1.524 1_556 S
C133 C137 1.400 . S
C134 H119 0.960 . S
C134 H120 0.960 . S
C134 H121 0.960 . S
C134 C133 1.524 1_554 S
C135 C132 1.403 . S
C135 C136 1.392 . S
C135 C139 1.495 . S
C136 C135 1.392 . S
C136 C137 1.385 . S
C136 C138 1.478 . S
C137 H131 0.930 . S
C137 C133 1.400 . S
C137 C136 1.385 . S
C138 C136 1.478 . S
C138 C140 1.381 . S
C138 C144 1.383 . S
C139 C135 1.495 . S
C139 H145 0.959 . S
C139 H146 0.961 . S
C139 H147 0.960 . S
C140 C138 1.381 . S
C140 C141 1.394 . S
C140 H148 0.930 . S
C141 C140 1.394 . S
C141 C142 1.383 . S
C141 H149 0.929 . S
C142 C141 1.383 . S
C142 C143 1.377 . S
C143 H127 0.930 . S
C143 C142 1.377 . S
C143 C144 1.379 . S
C144 H128 0.931 . S
C144 C138 1.383 . S
C144 C143 1.379 . S
H145 C139 0.959 . S
H146 C139 0.961 . S
H147 C139 0.960 . S
H148 C140 0.930 . S
H149 C141 0.929 . S
H150 C158 0.929 1_556 S
H151 C160 0.930 1_556 S
H152 C162 0.930 . S
H153 C165 0.929 . S
H154 C168 0.930 1_556 S
H155 C170 0.960 . S
H156 C170 0.960 . S
H157 C170 0.960 . S
C158 H150 0.929 1_554 S
C158 C159 1.377 . S
C158 C160 1.384 . S
C159 C158 1.377 . S
C159 C165 1.390 . S
C160 H151 0.930 1_554 S
C160 C158 1.384 . S
C160 C161 1.372 . S
C161 C160 1.372 . S
C161 C162 1.400 . S
C161 C166 1.490 . S
C162 H152 0.930 . S
C162 C161 1.400 . S
C162 C165 1.386 . S
H163 C179 0.930 . S
H164 C180 0.931 . S
C165 H153 0.929 . S
C165 C159 1.390 . S
C165 C162 1.386 . S
C166 C161 1.490 . S
C166 C168 1.395 . S
C166 C169 1.403 . S
H167 C173 0.930 . S
C168 H154 0.930 1_554 S
C168 C166 1.395 . S
C168 C171 1.403 . S
C169 C166 1.403 . S
C169 C170 1.524 . S
C169 C173 1.400 . S
C170 H155 0.960 . S
C170 H156 0.960 . S
C170 H157 0.960 . S
C170 C169 1.524 . S
C171 C168 1.403 . S
C171 C172 1.392 . S
C171 C175 1.495 1_554 S
C172 C171 1.392 . S
C172 C173 1.385 . S
C172 C174 1.478 . S
C173 H167 0.930 . S
C173 C169 1.400 . S
C173 C172 1.385 . S
C174 C172 1.478 . S
C174 C176 1.381 . S
C174 C180 1.383 . S
C175 C171 1.495 1_556 S
C175 H181 0.959 . S
C175 H182 0.961 1_556 S
C175 H183 0.960 . S
C176 C174 1.381 . S
C176 C177 1.394 . S
C176 H184 0.930 . S
C177 C176 1.394 . S
C177 C178 1.383 . S
C177 H185 0.929 . S
C178 C177 1.383 . S
C178 C179 1.377 . S
C179 H163 0.930 . S
C179 C178 1.377 . S
C179 C180 1.379 . S
C180 H164 0.931 . S
C180 C174 1.383 . S
C180 C179 1.379 . S
H181 C175 0.959 . S
H182 C175 0.961 1_554 S
H183 C175 0.960 . S
H184 C176 0.930 . S
H185 C177 0.929 . S
H186 C194 0.929 . S
H187 C196 0.930 . S
H188 C198 0.930 . S
H189 C201 0.929 . S
H190 C204 0.930 . S
H191 C206 0.960 . S
H192 C206 0.960 . S
H193 C206 0.960 . S
C194 H186 0.929 . S
C194 C195 1.377 1_556 S
C194 C196 1.384 . S
C195 C194 1.377 1_554 S
C195 C201 1.390 . S
C196 H187 0.930 . S
C196 C194 1.384 . S
C196 C197 1.372 . S
C197 C196 1.372 . S
C197 C198 1.400 1_556 S
C197 C202 1.490 . S
C198 H188 0.930 . S
C198 C197 1.400 1_554 S
C198 C201 1.386 . S
H199 C215 0.930 . S
H200 C216 0.931 . S
C201 H189 0.929 . S
C201 C195 1.390 . S
C201 C198 1.386 . S
C202 C197 1.490 . S
C202 C204 1.395 . S
C202 C205 1.403 . S
H203 C209 0.930 . S
C204 H190 0.930 . S
C204 C202 1.395 . S
C204 C207 1.403 . S
C205 C202 1.403 . S
C205 C206 1.524 . S
C205 C209 1.400 . S
C206 H191 0.960 . S
C206 H192 0.960 . S
C206 H193 0.960 . S
C206 C205 1.524 . S
C207 C204 1.403 . S
C207 C208 1.392 . S
C207 C211 1.495 . S
C208 C207 1.392 . S
C208 C209 1.385 . S
C208 C210 1.478 . S
C209 H203 0.930 . S
C209 C205 1.400 . S
C209 C208 1.385 . S
C210 C208 1.478 . S
C210 C212 1.381 . S
C210 C216 1.383 . S
C211 C207 1.495 . S
C211 H217 0.959 . S
C211 H218 0.961 . S
C211 H219 0.960 . S
C212 C210 1.381 . S
C212 C213 1.394 . S
C212 H220 0.930 . S
C213 C212 1.394 . S
C213 C214 1.383 . S
C213 H221 0.929 . S
C214 C213 1.383 . S
C214 C215 1.377 . S
C215 H199 0.930 . S
C215 C214 1.377 . S
C215 C216 1.379 . S
C216 H200 0.931 . S
C216 C210 1.383 . S
C216 C215 1.379 . S
H217 C211 0.959 . S
H218 C211 0.961 . S
H219 C211 0.960 . S
H220 C212 0.930 . S
H221 C213 0.929 . S
H222 C230 0.929 . S
H223 C232 0.930 . S
H224 C234 0.930 . S
H225 C237 0.929 . S
H226 C240 0.930 . S
H227 C242 0.960 . S
H228 C242 0.960 . S
H229 C242 0.960 . S
C230 H222 0.929 . S
C230 C231 1.377 . S
C230 C232 1.384 . S
C231 C230 1.377 . S
C231 C237 1.390 . S
C232 H223 0.930 . S
C232 C230 1.384 . S
C232 C233 1.372 . S
C233 C232 1.372 . S
C233 C234 1.400 . S
C233 C238 1.490 . S
C234 H224 0.930 . S
C234 C233 1.400 . S
C234 C237 1.386 . S
H235 C251 0.930 1_545 S
H236 C252 0.931 . S
C237 H225 0.929 . S
C237 C231 1.390 . S
C237 C234 1.386 . S
C238 C233 1.490 . S
C238 C240 1.395 . S
C238 C241 1.403 . S
H239 C245 0.930 . S
C240 H226 0.930 . S
C240 C238 1.395 . S
C240 C243 1.403 . S
C241 C238 1.403 . S
C241 C242 1.524 . S
C241 C245 1.400 . S
C242 H227 0.960 . S
C242 H228 0.960 . S
C242 H229 0.960 . S
C242 C241 1.524 . S
C243 C240 1.403 . S
C243 C244 1.392 . S
C243 C247 1.495 . S
C244 C243 1.392 . S
C244 C245 1.385 . S
C244 C246 1.478 . S
C245 H239 0.930 . S
C245 C241 1.400 . S
C245 C244 1.385 . S
C246 C244 1.478 . S
C246 C248 1.381 . S
C246 C252 1.383 . S
C247 C243 1.495 . S
C247 H253 0.959 . S
C247 H254 0.961 . S
C247 H255 0.960 . S
C248 C246 1.381 . S
C248 C249 1.394 . S
C248 H256 0.930 . S
C249 C248 1.394 . S
C249 C250 1.383 1_565 S
C249 H257 0.929 . S
C250 C249 1.383 1_545 S
C250 C251 1.377 1_545 S
C251 H235 0.930 1_565 S
C251 C250 1.377 1_565 S
C251 C252 1.379 . S
C252 H236 0.931 . S
C252 C246 1.383 . S
C252 C251 1.379 . S
H253 C247 0.959 . S
H254 C247 0.961 . S
H255 C247 0.960 . S
H256 C248 0.930 . S
H257 C249 0.929 . S
H258 C266 0.929 . S
H259 C268 0.930 . S
H260 C270 0.930 . S
H261 C273 0.929 . S
H262 C276 0.930 . S
H263 C278 0.960 . S
H264 C278 0.960 . S
H265 C278 0.960 . S
C266 H258 0.929 . S
C266 C267 1.377 . S
C266 C268 1.384 . S
C267 C266 1.377 . S
C267 C273 1.390 . S
C268 H259 0.930 . S
C268 C266 1.384 . S
C268 C269 1.372 . S
C269 C268 1.372 . S
C269 C270 1.400 . S
C269 C274 1.490 . S
C270 H260 0.930 . S
C270 C269 1.400 . S
C270 C273 1.386 . S
H271 C287 0.930 1_455 S
H272 C288 0.931 . S
C273 H261 0.929 . S
C273 C267 1.390 . S
C273 C270 1.386 . S
C274 C269 1.490 . S
C274 C276 1.395 . S
C274 C277 1.403 . S
H275 C281 0.930 . S
C276 H262 0.930 . S
C276 C274 1.395 . S
C276 C279 1.403 . S
C277 C274 1.403 . S
C277 C278 1.524 . S
C277 C281 1.400 . S
C278 H263 0.960 . S
C278 H264 0.960 . S
C278 H265 0.960 . S
C278 C277 1.524 . S
C279 C276 1.403 . S
C279 C280 1.392 . S
C279 C283 1.495 . S
C280 C279 1.392 . S
C280 C281 1.385 . S
C280 C282 1.478 . S
C281 H275 0.930 . S
C281 C277 1.400 . S
C281 C280 1.385 . S
C282 C280 1.478 . S
C282 C284 1.381 . S
C282 C288 1.383 . S
C283 C279 1.495 . S
C283 H289 0.959 . S
C283 H290 0.961 . S
C283 H291 0.960 . S
C284 C282 1.381 . S
C284 C285 1.394 . S
C284 H292 0.930 . S
C285 C284 1.394 . S
C285 C286 1.383 . S
C285 H293 0.929 . S
C286 C285 1.383 . S
C286 C287 1.377 . S
C287 H271 0.930 1_655 S
C287 C286 1.377 . S
C287 C288 1.379 . S
C288 H272 0.931 . S
C288 C282 1.383 . S
C288 C287 1.379 . S
H289 C283 0.959 . S
H290 C283 0.961 . S
H291 C283 0.960 . S
H292 C284 0.930 . S
H293 C285 0.929 . S
H294 C302 0.929 . S
H295 C304 0.930 . S
H296 C306 0.930 . S
H297 C309 0.929 . S
H298 C312 0.930 . S
H299 C314 0.960 . S
H300 C314 0.960 . S
H301 C314 0.960 . S
C302 H294 0.929 . S
C302 C303 1.377 . S
C302 C304 1.384 . S
C303 C302 1.377 . S
C303 C309 1.390 . S
C304 H295 0.930 . S
C304 C302 1.384 . S
C304 C305 1.372 . S
C305 C304 1.372 . S
C305 C306 1.400 . S
C305 C310 1.490 . S
C306 H296 0.930 . S
C306 C305 1.400 . S
C306 C309 1.386 . S
H307 C323 0.930 . S
H308 C324 0.931 . S
C309 H297 0.929 . S
C309 C303 1.390 . S
C309 C306 1.386 . S
C310 C305 1.490 . S
C310 C312 1.395 . S
C310 C313 1.403 . S
H311 C317 0.930 . S
C312 H298 0.930 . S
C312 C310 1.395 . S
C312 C315 1.403 . S
C313 C310 1.403 . S
C313 C314 1.524 . S
C313 C317 1.400 . S
C314 H299 0.960 . S
C314 H300 0.960 . S
C314 H301 0.960 . S
C314 C313 1.524 . S
C315 C312 1.403 . S
C315 C316 1.392 . S
C315 C319 1.495 . S
C316 C315 1.392 . S
C316 C317 1.385 . S
C316 C318 1.478 . S
C317 H311 0.930 . S
C317 C313 1.400 . S
C317 C316 1.385 . S
C318 C316 1.478 . S
C318 C320 1.381 . S
C318 C324 1.383 . S
C319 C315 1.495 . S
C319 H325 0.959 . S
C319 H326 0.961 . S
C319 H327 0.960 . S
C320 C318 1.381 . S
C320 C321 1.394 . S
C320 H328 0.930 . S
C321 C320 1.394 . S
C321 C322 1.383 . S
C321 H329 0.929 . S
C322 C321 1.383 . S
C322 C323 1.377 . S
C323 H307 0.930 . S
C323 C322 1.377 . S
C323 C324 1.379 . S
C324 H308 0.931 . S
C324 C318 1.383 . S
C324 C323 1.379 . S
H325 C319 0.959 . S
H326 C319 0.961 . S
H327 C319 0.960 . S
H328 C320 0.930 . S
H329 C321 0.929 . S
H330 C338 0.929 . S
H331 C340 0.930 . S
H332 C342 0.930 . S
H333 C345 0.929 . S
H334 C348 0.930 . S
H335 C350 0.960 . S
H336 C350 0.960 . S
H337 C350 0.960 . S
C338 H330 0.929 . S
C338 C339 1.377 . S
C338 C340 1.384 . S
C339 C338 1.377 . S
C339 C345 1.390 . S
C340 H331 0.930 . S
C340 C338 1.384 . S
C340 C341 1.372 . S
C341 C340 1.372 . S
C341 C342 1.400 . S
C341 C346 1.490 . S
C342 H332 0.930 . S
C342 C341 1.400 . S
C342 C345 1.386 . S
H343 C359 0.930 . S
H344 C360 0.931 . S
C345 H333 0.929 . S
C345 C339 1.390 . S
C345 C342 1.386 . S
C346 C341 1.490 . S
C346 C348 1.395 . S
C346 C349 1.403 . S
H347 C353 0.930 . S
C348 H334 0.930 . S
C348 C346 1.395 . S
C348 C351 1.403 . S
C349 C346 1.403 . S
C349 C350 1.524 . S
C349 C353 1.400 . S
C350 H335 0.960 . S
C350 H336 0.960 . S
C350 H337 0.960 . S
C350 C349 1.524 . S
C351 C348 1.403 . S
C351 C352 1.392 . S
C351 C355 1.495 . S
C352 C351 1.392 . S
C352 C353 1.385 . S
C352 C354 1.478 . S
C353 H347 0.930 . S
C353 C349 1.400 . S
C353 C352 1.385 . S
C354 C352 1.478 . S
C354 C356 1.381 . S
C354 C360 1.383 . S
C355 C351 1.495 . S
C355 H361 0.959 . S
C355 H362 0.961 . S
C355 H363 0.960 . S
C356 C354 1.381 . S
C356 C357 1.394 . S
C356 H364 0.930 . S
C357 C356 1.394 . S
C357 C358 1.383 . S
C357 H365 0.929 . S
C358 C357 1.383 . S
C358 C359 1.377 . S
C359 H343 0.930 . S
C359 C358 1.377 . S
C359 C360 1.379 . S
C360 H344 0.931 . S
C360 C354 1.383 . S
C360 C359 1.379 . S
H361 C355 0.959 . S
H362 C355 0.961 . S
H363 C355 0.960 . S
H364 C356 0.930 . S
H365 C357 0.929 . S
H366 C374 0.926 1_655 S
H367 C376 0.930 . S
H368 C378 0.930 . S
H369 C381 0.929 . S
H370 C384 0.930 . S
H371 C386 0.960 . S
H372 C386 0.960 . S
H373 C386 0.960 . S
C374 H366 0.926 1_455 S
C374 C375 1.380 . S
C374 C376 1.384 1_455 S
C375 C374 1.380 . S
C375 C381 1.390 . S
C376 H367 0.930 . S
C376 C374 1.384 1_655 S
C376 C377 1.372 1_655 S
C377 C376 1.372 1_455 S
C377 C378 1.400 . S
C377 C382 1.490 . S
C378 H368 0.930 . S
C378 C377 1.400 . S
C378 C381 1.386 . S
H379 C395 0.930 . S
H380 C396 0.931 . S
C381 H369 0.929 . S
C381 C375 1.390 . S
C381 C378 1.386 . S
C382 C377 1.490 . S
C382 C384 1.395 1_545 S
C382 C385 1.403 . S
H383 C389 0.930 . S
C384 H370 0.930 . S
C384 C382 1.395 1_565 S
C384 C387 1.403 . S
C385 C382 1.403 . S
C385 C386 1.524 . S
C385 C389 1.400 . S
C386 H371 0.960 . S
C386 H372 0.960 . S
C386 H373 0.960 . S
C386 C385 1.524 . S
C387 C384 1.403 . S
C387 C388 1.399 . S
C387 C391 1.495 1_455 S
C388 C387 1.399 . S
C388 C389 1.376 1_565 S
C388 C390 1.480 . S
C389 H383 0.930 . S
C389 C385 1.400 . S
C389 C388 1.376 1_545 S
C390 C388 1.480 . S
C390 C392 1.381 1_465 S
C390 C396 1.383 . S
C391 C387 1.495 1_655 S
C391 H397 0.959 . S
C391 H398 0.961 1_655 S
C391 H399 0.960 . S
C392 C390 1.381 1_645 S
C392 C393 1.394 . S
C392 H400 0.930 . S
C393 C392 1.394 . S
C393 C394 1.383 1_645 S
C393 H401 0.929 . S
C394 C393 1.383 1_465 S
C394 C395 1.377 . S
C395 H379 0.930 . S
C395 C394 1.377 . S
C395 C396 1.379 . S
C396 H380 0.931 . S
C396 C390 1.383 . S
C396 C395 1.379 . S
H397 C391 0.959 . S
H398 C391 0.961 1_455 S
H399 C391 0.960 . S
H400 C392 0.930 . S
H401 C393 0.929 . S
H402 C410 0.929 1_565 S
H403 C412 0.930 1_565 S
H404 C414 0.930 . S
H405 C417 0.929 . S
H406 C420 0.930 . S
H407 C422 0.960 . S
H408 C422 0.960 . S
H409 C422 0.960 . S
C410 H402 0.929 1_545 S
C410 C411 1.377 . S
C410 C412 1.384 . S
C411 C410 1.377 . S
C411 C417 1.390 . S
C412 H403 0.930 1_545 S
C412 C410 1.384 . S
C412 C413 1.372 . S
C413 C412 1.372 . S
C413 C414 1.400 . S
C413 C418 1.490 . S
C414 H404 0.930 . S
C414 C413 1.400 . S
C414 C417 1.386 . S
H415 C431 0.930 . S
H416 C432 0.931 . S
C417 H405 0.929 . S
C417 C411 1.390 . S
C417 C414 1.386 . S
C418 C413 1.490 . S
C418 C420 1.395 1_455 S
C418 C421 1.403 . S
H419 C425 0.930 . S
C420 H406 0.930 . S
C420 C418 1.395 1_655 S
C420 C423 1.403 . S
C421 C418 1.403 . S
C421 C422 1.524 . S
C421 C425 1.400 . S
C422 H407 0.960 . S
C422 H408 0.960 . S
C422 H409 0.960 . S
C422 C421 1.524 . S
C423 C420 1.403 . S
C423 C424 1.392 1_655 S
C423 C427 1.495 . S
C424 C423 1.392 1_455 S
C424 C425 1.385 . S
C424 C426 1.478 . S
C425 H419 0.930 . S
C425 C421 1.400 . S
C425 C424 1.385 . S
C426 C424 1.478 . S
C426 C428 1.381 1_455 S
C426 C432 1.383 . S
C427 C423 1.495 . S
C427 H433 0.959 . S
C427 H434 0.961 . S
C427 H435 0.960 . S
C428 C426 1.381 1_655 S
C428 C429 1.394 . S
C428 H436 0.930 1_545 S
C429 C428 1.394 . S
C429 C430 1.383 1_655 S
C429 H437 0.929 . S
C430 C429 1.383 1_455 S
C430 C431 1.378 . S
C431 H415 0.930 . S
C431 C430 1.378 . S
C431 C432 1.379 . S
C432 H416 0.931 . S
C432 C426 1.383 . S
C432 C431 1.379 . S
H433 C427 0.959 . S
H434 C427 0.961 . S
H435 C427 0.960 . S
H436 C428 0.930 1_565 S
H437 C429 0.929 . S
H438 C446 0.929 . S
H439 C448 0.930 . S
H440 C450 0.930 . S
H441 C453 0.929 . S
H442 C456 0.930 . S
H443 C458 0.960 . S
H444 C458 0.960 . S
H445 C458 0.960 . S
C446 H438 0.929 . S
C446 C447 1.377 . S
C446 C448 1.384 . S
C447 C446 1.377 . S
C447 C453 1.390 . S
C448 H439 0.930 . S
C448 C446 1.384 . S
C448 C449 1.372 . S
C449 C448 1.372 . S
C449 C450 1.400 . S
C449 C454 1.490 . S
C450 H440 0.930 . S
C450 C449 1.400 . S
C450 C453 1.386 . S
H451 C467 0.930 . S
H452 C468 0.931 . S
C453 H441 0.929 . S
C453 C447 1.390 . S
C453 C450 1.386 . S
C454 C449 1.490 . S
C454 C456 1.395 . S
C454 C457 1.403 . S
H455 C461 0.930 . S
C456 H442 0.930 . S
C456 C454 1.395 . S
C456 C459 1.403 . S
C457 C454 1.403 . S
C457 C458 1.524 . S
C457 C461 1.400 . S
C458 H443 0.960 . S
C458 H444 0.960 . S
C458 H445 0.960 . S
C458 C457 1.524 . S
C459 C456 1.403 . S
C459 C460 1.392 . S
C459 C463 1.495 . S
C460 C459 1.392 . S
C460 C461 1.385 . S
C460 C462 1.478 . S
C461 H455 0.930 . S
C461 C457 1.400 . S
C461 C460 1.385 . S
C462 C460 1.478 . S
C462 C464 1.381 . S
C462 C468 1.383 . S
C463 C459 1.495 . S
C463 H469 0.959 . S
C463 H470 0.961 . S
C463 H471 0.960 . S
C464 C462 1.381 . S
C464 C465 1.394 . S
C464 H472 0.930 . S
C465 C464 1.394 . S
C465 C466 1.383 . S
C465 H473 0.929 . S
C466 C465 1.383 . S
C466 C467 1.377 . S
C467 H451 0.930 . S
C467 C466 1.377 . S
C467 C468 1.379 . S
C468 H452 0.931 . S
C468 C462 1.383 . S
C468 C467 1.379 . S
H469 C463 0.959 . S
H470 C463 0.961 . S
H471 C463 0.960 . S
H472 C464 0.930 . S
H473 C465 0.929 . S
H474 C482 0.929 . S
H475 C484 0.930 . S
H476 C486 0.930 . S
H477 C489 0.929 . S
H478 C492 0.930 . S
H479 C494 0.960 . S
H480 C494 0.960 . S
H481 C494 0.960 . S
C482 H474 0.929 . S
C482 C483 1.377 . S
C482 C484 1.384 . S
C483 C482 1.377 . S
C483 C489 1.390 . S
C484 H475 0.930 . S
C484 C482 1.384 . S
C484 C485 1.372 . S
C485 C484 1.372 . S
C485 C486 1.400 . S
C485 C490 1.490 . S
C486 H476 0.930 . S
C486 C485 1.400 . S
C486 C489 1.386 . S
H487 C503 0.930 . S
H488 C504 0.931 . S
C489 H477 0.929 . S
C489 C483 1.390 . S
C489 C486 1.386 . S
C490 C485 1.490 . S
C490 C492 1.395 . S
C490 C493 1.403 . S
H491 C497 0.930 . S
C492 H478 0.930 . S
C492 C490 1.395 . S
C492 C495 1.403 . S
C493 C490 1.403 . S
C493 C494 1.524 . S
C493 C497 1.400 . S
C494 H479 0.960 . S
C494 H480 0.960 . S
C494 H481 0.960 . S
C494 C493 1.524 . S
C495 C492 1.403 . S
C495 C496 1.392 . S
C495 C499 1.495 . S
C496 C495 1.392 . S
C496 C497 1.385 . S
C496 C498 1.478 . S
C497 H491 0.930 . S
C497 C493 1.400 . S
C497 C496 1.385 . S
C498 C496 1.478 . S
C498 C500 1.381 . S
C498 C504 1.383 . S
C499 C495 1.495 . S
C499 H505 0.959 . S
C499 H506 0.961 . S
C499 H507 0.960 . S
C500 C498 1.381 . S
C500 C501 1.394 . S
C500 H508 0.930 . S
C501 C500 1.394 . S
C501 C502 1.383 . S
C501 H509 0.929 . S
C502 C501 1.383 . S
C502 C503 1.377 . S
C503 H487 0.930 . S
C503 C502 1.377 . S
C503 C504 1.379 . S
C504 H488 0.931 . S
C504 C498 1.383 . S
C504 C503 1.379 . S
H505 C499 0.959 . S
H506 C499 0.961 . S
H507 C499 0.960 . S
H508 C500 0.930 . S
H509 C501 0.929 . S
C106 C73 1.320 . S
C87 C15 1.111 . S
C123 C13 1.367 . S
C142 C64 1.354 . S
C159 C18 1.224 . S
C178 C76 1.387 . S
C195 C17 1.240 . S
C214 C67 1.301 . S
C231 C36 1.117 . S
C250 C55 1.302 . S
C267 C34 1.367 . S
C286 C46 1.355 1_655 S
C322 C58 1.388 . S
C303 C39 1.239 . S
C358 C49 1.310 . S
C339 C38 1.235 . S
C375 C14 1.501 . S
C394 C47 1.553 1_565 S
C411 C16 1.362 . S
C430 C56 1.407 . S
C466 C65 1.548 . S
C447 C35 1.499 . S
C483 C37 1.353 . S
C502 C74 1.409 . S
