# Generated by pormake.
# Topology ftw, (4,12)-cn, num edge types: 1
# Building blocks:
#     Node 0, Type 0, BuildingBlock: MIFKUJ_clean_linker_1, # of connection points: 4
#     Node 1, Type 0, BuildingBlock: MIFKUJ_clean_linker_1, # of connection points: 4
#     Node 2, Type 0, BuildingBlock: MIFKUJ_clean_linker_1, # of connection points: 4
#     Node 3, Type 1, BuildingBlock: QEWDON_clean_sbu_0, # of connection points: 12
#     Edge 4, Type (0, 1), BuildingBlock: FUNLAD_clean_linker_0, # of connection points: 2
#     Edge 5, Type (0, 1), BuildingBlock: FUNLAD_clean_linker_0, # of connection points: 2
#     Edge 6, Type (0, 1), BuildingBlock: FUNLAD_clean_linker_0, # of connection points: 2
#     Edge 7, Type (0, 1), BuildingBlock: FUNLAD_clean_linker_0, # of connection points: 2
#     Edge 8, Type (0, 1), BuildingBlock: FUNLAD_clean_linker_0, # of connection points: 2
#     Edge 9, Type (0, 1), BuildingBlock: FUNLAD_clean_linker_0, # of connection points: 2
#     Edge 10, Type (0, 1), BuildingBlock: FUNLAD_clean_linker_0, # of connection points: 2
#     Edge 11, Type (0, 1), BuildingBlock: FUNLAD_clean_linker_0, # of connection points: 2
#     Edge 12, Type (0, 1), BuildingBlock: FUNLAD_clean_linker_0, # of connection points: 2
#     Edge 13, Type (0, 1), BuildingBlock: FUNLAD_clean_linker_0, # of connection points: 2
#     Edge 14, Type (0, 1), BuildingBlock: FUNLAD_clean_linker_0, # of connection points: 2
#     Edge 15, Type (0, 1), BuildingBlock: FUNLAD_clean_linker_0, # of connection points: 2
# Relax obj value: 0.070
# Max RMSD: 0.196
# Mean RMSD: 0.143
data_MOF--net-ftw--node1-QEWDON_clean_sbu_0--node2-MIFKUJ_clean_linker_1--edge1-FUNLAD_clean_linker_0
_symmetry_space_group_name_H-M    P1
_symmetry_Int_Tables_number       1
_symmetry_cell_setting            triclinic
loop_
_symmetry_equiv_pos_as_xyz
'x, y, z'
_cell_length_a     30.218959
_cell_length_b     33.433259
_cell_length_c     32.273667
_cell_angle_alpha  90.507824
_cell_angle_beta   90.829125
_cell_angle_gamma 89.808866
loop_
_atom_site_label
_atom_site_type_symbol
_atom_site_fract_x
_atom_site_fract_y
_atom_site_fract_z
_atom_type_partial_charge
H0 H 0.06446 0.53347 0.60536 0.0
H1 H 0.0662 0.58973 0.6541 0.0
H2 H 0.94521 0.6357 0.59944 0.0
H3 H 0.94367 0.57921 0.55062 0.0
H4 H 0.00472 0.47653 0.59872 0.0
H5 H 0.05945 0.57835 0.50741 0.0
H6 H 0.06003 0.64096 0.46869 0.0
H7 H 0.93723 0.60734 0.40775 0.0
H8 H 0.9361 0.54563 0.44753 0.0
H9 H 0.93716 0.43087 0.43361 0.0
H10 H 0.93591 0.37413 0.38536 0.0
H11 H 0.04513 0.3201 0.45204 0.0
H12 H 0.04785 0.37782 0.49929 0.0
H13 H -0.00785 0.485 0.44589 0.0
H14 H 0.93322 0.3864 0.5389 0.0
H15 H 0.92616 0.32756 0.583 0.0
H16 H 0.05149 0.35587 0.64222 0.0
H17 H 0.05878 0.41388 0.59748 0.0
C18 C 0.00413 0.55214 0.57405 0.0
C19 C 0.03837 0.55574 0.60372 0.0
C20 C 0.03919 0.58784 0.63175 0.0
C21 C 0.00568 0.61714 0.63092 0.0
C22 C 0.97178 0.6139 0.60069 0.0
C23 C 0.9709 0.58163 0.57268 0.0
C24 C 0.00191 0.51613 0.54658 0.0
C25 C 0.00264 0.47831 0.56518 0.0
C26 C -0.00243 0.51854 0.50294 0.0
C27 C -0.00249 0.55736 0.4807 0.0
C28 C 0.03231 0.58476 0.48618 0.0
C29 C 0.03284 0.62038 0.46367 0.0
C30 C -0.00134 0.62927 0.43506 0.0
C31 C 0.96375 0.60184 0.42991 0.0
C32 C 0.96325 0.56631 0.45241 0.0
C33 C -0.00767 0.40877 0.4706 0.0
C34 C 0.96105 0.40698 0.43792 0.0
C35 C 0.96033 0.37454 0.41026 0.0
C36 C -0.00951 0.34278 0.41489 0.0
C37 C 0.02128 0.34405 0.44794 0.0
C38 C 0.02257 0.37694 0.47519 0.0
C39 C -0.00527 0.44503 0.498 0.0
C40 C -0.00583 0.48301 0.47939 0.0
C41 C -0.00125 0.44279 0.54175 0.0
C42 C -0.00337 0.4045 0.56472 0.0
C43 C 0.9596 0.37941 0.56076 0.0
C44 C 0.9554 0.34602 0.58632 0.0
C45 C -0.01185 0.33709 0.61635 0.0
C46 C 0.02587 0.36154 0.61919 0.0
C47 C 0.02997 0.3949 0.59376 0.0
H48 H 0.39921 0.05659 0.48123 0.0
H49 H 0.34873 0.05692 0.4215 0.0
H50 H 0.4068 0.94651 0.37742 0.0
H51 H 0.45666 0.94587 0.43798 0.0
H52 H 0.40347 0.00337 0.54199 0.0
H53 H 0.50914 0.05354 0.44179 0.0
H54 H 0.56033 0.05697 0.38363 0.0
H55 H 0.61213 0.94049 0.41579 0.0
H56 H 0.56165 0.93762 0.47399 0.0
H57 H 0.57086 0.9397 0.60211 0.0
H58 H 0.61976 0.94202 0.66328 0.0
H59 H 0.56152 0.05486 0.69974 0.0
H60 H 0.5128 0.05245 0.6384 0.0
H61 H 0.56692 0.99177 0.53796 0.0
H62 H 0.46142 0.93562 0.63048 0.0
H63 H 0.41519 0.9281 0.69179 0.0
H64 H 0.36439 0.04777 0.67455 0.0
H65 H 0.41015 0.05491 0.61289 0.0
C66 C 0.4321 0.00143 0.46403 0.0
C67 C 0.4013 0.03255 0.4586 0.0
C68 C 0.37257 0.0328 0.42425 0.0
C69 C 0.37369 0.00176 0.39453 0.0
C70 C 0.40478 0.9707 0.39985 0.0
C71 C 0.4337 0.97056 0.43423 0.0
C72 C 0.46018 8e-05 0.50231 0.0
C73 C 0.43929 0.00151 0.54093 0.0
C74 C 0.50677 0.9959 0.50134 0.0
C75 C 0.5318 0.99539 0.46226 0.0
C76 C 0.53089 0.02842 0.43567 0.0
C77 C 0.56014 0.03034 0.40249 0.0
C78 C 0.59077 -0.00071 0.39558 0.0
C79 C 0.58965 0.9653 0.42088 0.0
C80 C 0.56063 0.96347 0.45397 0.0
C81 C 0.53792 0.99574 0.61576 0.0
C82 C 0.56841 0.9648 0.62342 0.0
C83 C 0.5962 0.96609 0.6585 0.0
C84 C 0.59455 -0.00134 0.68636 0.0
C85 C 0.56382 0.02952 0.67872 0.0
C86 C 0.53569 0.02799 0.64388 0.0
C87 C 0.51019 0.99547 0.57726 0.0
C88 C 0.53109 0.99373 0.53878 0.0
C89 C 0.46363 -0.00131 0.57822 0.0
C90 C 0.43919 0.99586 0.61738 0.0
C91 C 0.44075 0.96039 0.64028 0.0
C92 C 0.41427 0.95605 0.67506 0.0
C93 C 0.38636 0.98737 0.68775 0.0
C94 C 0.38595 0.02334 0.66555 0.0
C95 C 0.41186 0.0274 0.63035 0.0
H96 H 0.56871 0.54608 0.96276 0.0
H97 H 0.63219 0.58961 0.95103 0.0
H98 H 0.61558 0.64243 0.07253 0.0
H99 H 0.55247 0.59837 0.08429 0.0
H100 H 0.56128 0.48993 0.02578 0.0
H101 H 0.48703 0.61408 0.98287 0.0
H102 H 0.46279 0.68391 0.98762 0.0
H103 H 0.41129 0.66162 0.10954 0.0
H104 H 0.43709 0.59266 0.10519 0.0
H105 H 0.38671 0.47726 0.10132 0.0
H106 H 0.32449 0.43039 0.1 0.0
H107 H 0.36622 0.38618 0.98039 0.0
H108 H 0.42852 0.43218 0.98247 0.0
H109 H 0.40802 0.5373 0.04996 0.0
H110 H 0.47467 0.42108 0.09937 0.0
H111 H 0.49734 0.35131 0.10671 0.0
H112 H 0.56542 0.35742 0.9901 0.0
H113 H 0.54127 0.42683 0.98222 0.0
C114 C 0.55584 0.56921 0.02428 0.0
C115 C 0.57872 0.56716 0.98679 0.0
C116 C 0.61475 0.59215 0.98003 0.0
C117 C 0.62884 0.61933 1.01089 0.0
C118 C 0.6057 0.62147 0.04837 0.0
C119 C 0.56947 0.59661 0.055 0.0
C120 C 0.51882 0.54148 0.03157 0.0
C121 C 0.52763 0.50024 0.03048 0.0
C122 C 0.47556 0.5551 0.04035 0.0
C123 C 0.4641 0.59819 0.04379 0.0
C124 C 0.47141 0.62454 1.01096 0.0
C125 C 0.45716 0.66436 1.01358 0.0
C126 C 0.43508 0.67847 0.04898 0.0
C127 C 0.42883 0.65212 0.08212 0.0
C128 C 0.44316 0.61248 0.07952 0.0
C129 C 0.41248 0.45775 0.04227 0.0
C130 C 0.38234 0.45735 0.07492 0.0
C131 C 0.34675 0.43071 0.07401 0.0
C132 C 0.34056 0.40432 0.04022 0.0
C133 C 0.37054 0.40539 1.00732 0.0
C134 C 0.40612 0.43177 1.00838 0.0
C135 C 0.45023 0.48583 0.04265 0.0
C136 C 0.44169 0.52699 0.04535 0.0
C137 C 0.49405 0.47221 0.03692 0.0
C138 C 0.50601 0.42918 0.04008 0.0
C139 C 0.49375 0.40719 0.07497 0.0
C140 C 0.5071 0.36739 0.07934 0.0
C141 C 0.53324 0.34879 0.04903 0.0
C142 C 0.5448 0.37065 1.01375 0.0
C143 C 0.5314 0.41048 1.00938 0.0
Zn144 Zn 0.03861 0.07263 0.98717 0.0
Zn145 Zn 0.02341 0.075 0.08673 0.0
O146 O 0.02292 0.03938 0.03646 0.0
H147 H 0.02539 0.0106 0.03542 0.0
C148 C 0.91696 0.10908 0.91032 0.0
O149 O 0.94792 0.08328 0.92091 0.0
Zn150 Zn 0.93896 0.92448 0.10749 0.0
Zn151 Zn 0.93811 0.9515 1.01365 0.0
O152 O 0.96319 0.96758 0.07161 0.0
H153 H 0.96801 0.99455 0.08158 0.0
Zn154 Zn 0.86522 0.07412 0.98067 0.0
O155 O 0.90821 0.06836 0.02933 0.0
Zn156 Zn 0.87154 0.05644 0.07928 0.0
H157 H 0.93946 0.06313 0.02648 0.0
Zn158 Zn 0.0523 0.90634 0.99749 0.0
O159 O 0.01926 0.91033 0.05204 0.0
H160 H 0.03155 0.90735 0.02474 0.0
Zn161 Zn 0.06235 0.93056 0.09505 0.0
C162 C 0.04314 0.8698 0.91449 0.0
O163 O 0.06865 0.9002 0.90555 0.0
O164 O 0.05397 0.13075 1.00305 0.0
O165 O 0.04634 0.13005 0.07151 0.0
O166 O 0.92317 0.89155 1.00687 0.0
O167 O 0.91842 0.87695 0.07358 0.0
O168 O 0.80074 0.07898 0.99971 0.0
O169 O 0.80655 0.06979 0.06783 0.0
C170 C 0.07422 0.01383 0.13059 0.0
O171 O 0.11992 0.90868 1.00723 0.0
O172 O 0.1255 0.92085 0.07514 0.0
O173 O 0.89102 0.9857 0.98134 0.0
C174 C 0.05631 0.14817 0.0383 0.0
O175 O 0.0817 0.04515 0.94668 0.0
C176 C 0.86851 0.98082 0.12624 0.0
O177 O 0.88123 0.11037 0.93067 0.0
C178 C 0.91479 0.86692 0.03552 0.0
O179 O 0.03035 0.86586 0.95162 0.0
C180 C 0.93478 0.09521 0.13248 0.0
O181 O 0.06518 0.051 0.12933 0.0
O182 O 0.05358 0.98986 0.1063 0.0
C183 C 0.78338 0.07752 0.03541 0.0
O184 O 0.88627 0.94783 0.13678 0.0
O185 O 0.88244 -0.00112 0.09453 0.0
C186 C 0.01795 0.89112 0.16643 0.0
O187 O 0.89337 0.08968 0.12802 0.0
O188 O 0.95997 0.07937 0.10556 0.0
C189 C 0.14328 0.9135 0.04013 0.0
O190 O 0.05316 0.89994 0.14733 0.0
O191 O 0.97976 0.90048 0.15201 0.0
C192 C 0.89809 0.99364 0.94353 0.0
O193 O 0.93679 0.98447 0.92795 0.0
C194 C 0.11505 0.02687 0.96186 0.0
O195 O 0.12012 0.02535 1.00232 0.0
C196 C -0.01097 0.3154 0.34215 0.0
C197 C -0.01027 0.30859 0.38509 0.0
C198 C -0.01371 0.28337 0.31398 0.0
C199 C 0.98361 0.24379 0.3282 0.0
C200 C 0.98454 0.23703 0.37113 0.0
C201 C -0.01185 0.26903 0.39928 0.0
C202 C 0.97565 0.20956 0.29923 0.0
C203 C -0.00907 0.20807 0.26016 0.0
C204 C 0.9781 0.17605 0.22992 0.0
C205 C 0.00733 0.16466 0.19839 0.0
C206 C -0.00567 0.13696 0.16765 0.0
C207 C 0.95131 0.12113 0.16702 0.0
H208 H 0.91185 0.16762 0.25337 0.0
C209 C 0.92245 0.13204 0.19909 0.0
C210 C 0.93566 0.15899 0.23017 0.0
H211 H 0.8891 0.1203 0.19983 0.0
H212 H -0.00971 0.34561 0.33036 0.0
H213 H 0.9846 0.2898 0.28118 0.0
H214 H 0.98202 0.2069 0.38293 0.0
H215 H -0.01172 0.26293 0.4322 0.0
H216 H 0.9566 0.1846 0.31074 0.0
H217 H 0.01358 0.23098 0.24984 0.0
H218 H 0.04018 0.17746 0.19735 0.0
H219 H 0.01753 0.12886 0.1439 0.0
C220 C 0.61696 0.01849 0.3246 0.0
C221 C 0.62601 0.00325 0.3643 0.0
C222 C 0.65062 0.02111 0.2953 0.0
C223 C 0.69408 0.00876 0.30541 0.0
C224 C 0.70297 0.99433 0.34538 0.0
C225 C 0.66953 0.9917 0.37444 0.0
C226 C 0.73098 0.00816 0.27538 0.0
C227 C 0.73039 0.02537 0.23773 0.0
C228 C 0.76771 0.02009 0.2086 0.0
C229 C 0.75894 0.01806 0.16576 0.0
C230 C 0.79248 0.00731 0.13826 0.0
C231 C 0.83524 -0.00107 0.15329 0.0
H232 H 0.82007 0.01769 0.25556 0.0
C233 C 0.84477 0.00353 0.19565 0.0
C234 C 0.81151 0.01456 0.22302 0.0
H235 H 0.87776 0.99754 0.20772 0.0
H236 H 0.58367 0.02749 0.31588 0.0
H237 H 0.64199 0.03191 0.26477 0.0
H238 H 0.73605 0.98472 0.35422 0.0
H239 H 0.67788 0.98069 0.40505 0.0
H240 H 0.7601 0.99121 0.28479 0.0
H241 H 0.70123 0.04119 0.22666 0.0
H242 H 0.72565 0.02263 0.15378 0.0
H243 H 0.78438 0.00321 0.10571 0.0
C244 C 0.0396 0.67983 0.39276 0.0
C245 C -0.00022 0.66637 0.40977 0.0
C246 C 0.04018 0.71339 0.36708 0.0
C247 C 0.00075 0.73428 0.35759 0.0
C248 C 0.96128 0.72146 0.3757 0.0
C249 C 0.96074 0.68797 0.40133 0.0
C250 C -0.00134 0.76899 0.32873 0.0
C251 C 0.03092 0.77876 0.30211 0.0
C252 C 0.0265 0.81084 0.27039 0.0
C253 C 0.06501 0.82603 0.25245 0.0
C254 C 0.06238 0.85334 0.21986 0.0
C255 C 0.02103 0.8659 0.20409 0.0
H256 H 0.95449 0.8128 0.26732 0.0
C257 C 0.98247 0.85162 0.22282 0.0
C258 C 0.98511 0.82434 0.25539 0.0
H259 H 0.95003 0.86042 0.2114 0.0
H260 H 0.0703 0.66386 0.39846 0.0
H261 H 0.07165 0.7225 0.35492 0.0
H262 H 0.93043 0.73704 0.36945 0.0
H263 H 0.92959 0.67896 0.4145 0.0
H264 H 0.96822 0.78628 0.32862 0.0
H265 H 0.06181 0.76223 0.30241 0.0
H266 H 0.09735 0.81615 0.26316 0.0
H267 H 0.0928 0.86373 0.20633 0.0
C268 C 0.32079 0.96652 0.34516 0.0
C269 C 0.34208 0.00184 0.35855 0.0
C270 C 0.28968 0.96721 0.31244 0.0
C271 C 0.27917 0.00334 0.29235 0.0
C272 C 0.3013 0.03832 0.3052 0.0
C273 C 0.33215 0.03765 0.33788 0.0
C274 C 0.24612 0.00632 0.25761 0.0
C275 C 0.21458 0.97886 0.24856 0.0
C276 C 0.1801 0.98495 0.21549 0.0
C277 C 0.1387 0.96612 0.21884 0.0
C278 C 0.10442 0.97404 0.19024 0.0
C279 C 0.11119 0.00045 0.15745 0.0
H280 H 0.21898 0.0238 0.17645 0.0
C281 C 0.15297 0.01789 0.15296 0.0
C282 C 0.18721 0.00993 0.18131 0.0
H283 H 0.15892 0.03833 0.12778 0.0
H284 H 0.32754 0.93842 0.36047 0.0
H285 H 0.27434 0.93935 0.30301 0.0
H286 H 0.2944 0.06654 0.29014 0.0
H287 H 0.34843 0.06528 0.34682 0.0
H288 H 0.24629 0.03402 0.24032 0.0
H289 H 0.21155 0.95258 0.26777 0.0
H290 H 0.13226 0.94651 0.24461 0.0
H291 H 0.0721 0.96119 0.19502 0.0
C292 C 0.01732 0.6432 0.70364 0.0
C293 C 0.00588 0.65046 0.66195 0.0
C294 C 0.01864 0.67447 0.73273 0.0
C295 C 0.00833 0.7139 0.72091 0.0
C296 C -0.00315 0.72112 0.67927 0.0
C297 C -0.00465 0.68978 0.65019 0.0
C298 C 0.01179 0.74842 0.75043 0.0
C299 C 0.00913 0.7449 0.79198 0.0
C300 C 0.01554 0.77883 0.82184 0.0
C301 C -0.00046 0.77519 0.86232 0.0
C302 C 0.00745 0.80509 0.89214 0.0
C303 C 0.032 0.83928 0.88229 0.0
H304 H 0.05357 0.81706 0.78147 0.0
C305 C 0.04754 0.84323 0.84167 0.0
C306 C 0.03955 0.81338 0.81183 0.0
H307 H 0.06675 0.86906 0.83302 0.0
H308 H 0.02528 0.61323 0.71387 0.0
H309 H 0.02886 0.66761 0.76414 0.0
H310 H -0.0108 0.75119 0.66911 0.0
H311 H -0.0131 0.69653 0.61828 0.0
H312 H 0.01569 0.77784 0.73705 0.0
H313 H 0.00112 0.71605 0.80503 0.0
H314 H 0.98121 0.74886 0.87108 0.0
H315 H -0.005 0.80102 0.92312 0.0
C316 C 0.3531 0.01073 0.75428 0.0
C317 C 0.35579 0.98187 0.72257 0.0
C318 C 0.32183 0.00699 0.78545 0.0
C319 C 0.29232 0.97449 0.78515 0.0
C320 C 0.29535 0.94549 0.75364 0.0
C321 C 0.32717 0.94886 0.72288 0.0
C322 C 0.25546 0.97247 0.81481 0.0
C323 C 0.25874 0.98676 0.85381 0.0
C324 C 0.22002 0.99133 0.88113 0.0
C325 C 0.22639 0.9908 0.92427 0.0
C326 C 0.19159 0.00034 0.95071 0.0
C327 C 0.15 0.01145 0.93437 0.0
H328 H 0.17187 0.00208 0.83176 0.0
C329 C 0.14318 0.01051 0.89123 0.0
C330 C 0.17779 0.00051 0.86486 0.0
H331 H 0.11147 0.01879 0.87771 0.0
H332 H 0.37478 0.03648 0.75457 0.0
H333 H 0.31961 0.03045 0.80867 0.0
H334 H 0.27263 0.92049 0.75248 0.0
H335 H 0.32828 0.92647 0.69844 0.0
H336 H 0.22458 0.95923 0.8039 0.0
H337 H 0.29076 0.99632 0.86598 0.0
H338 H 0.25865 0.98394 0.93754 0.0
H339 H 0.19785 0.00059 0.98384 0.0
C340 C 0.94069 0.29775 0.66463 0.0
C341 C 0.98203 0.30396 0.64633 0.0
C342 C 0.93559 0.2687 0.69512 0.0
C343 C 0.97187 0.24521 0.70826 0.0
C344 C 0.01273 0.2504 0.68886 0.0
C345 C 0.01787 0.27956 0.65845 0.0
C346 C 0.96828 0.2149 0.74169 0.0
C347 C 0.93839 0.21758 0.77231 0.0
C348 C 0.93416 0.1885 0.80689 0.0
C349 C 0.89625 0.19077 0.83151 0.0
C350 C 0.89067 0.16497 0.86483 0.0
C351 C 0.92309 0.13623 0.87472 0.0
H352 H -0.00304 0.15718 0.79945 0.0
C353 C 0.96119 0.13387 0.85031 0.0
C354 C 0.96676 0.1597 0.8168 0.0
H355 H -0.01312 0.11214 0.85714 0.0
H356 H 0.9124 0.31607 0.65617 0.0
H357 H 0.90312 0.26476 0.70811 0.0
H358 H 0.04109 0.23238 0.69785 0.0
H359 H 0.05 0.2831 0.64454 0.0
H360 H -0.0079 0.19059 0.74141 0.0
H361 H 0.91553 0.2427 0.77251 0.0
H362 H 0.87064 0.21268 0.82494 0.0
H363 H 0.86092 0.16774 0.88296 0.0
C364 C 0.6482 0.03628 0.73258 0.0
C365 C 0.62545 0.00071 0.72271 0.0
C366 C 0.67864 0.03768 0.76574 0.0
C367 C 0.68681 0.00354 0.78996 0.0
C368 C 0.66308 0.96842 0.78079 0.0
C369 C 0.63308 0.96687 0.74737 0.0
C370 C 0.71958 0.00333 0.82496 0.0
C371 C 0.75621 0.02631 0.82612 0.0
C372 C 0.79169 0.02176 0.85829 0.0
C373 C 0.83593 0.02741 0.84708 0.0
C374 C 0.87044 0.01962 0.87525 0.0
C375 C 0.86146 0.00698 0.9157 0.0
H376 H 0.74872 0.00755 0.90939 0.0
C377 C 0.81707 0.00385 0.9278 0.0
C378 C 0.78252 0.01096 0.89934 0.0
H379 H 0.80897 0.99445 0.95881 0.0
H380 H 0.64309 0.06285 0.71414 0.0
H381 H 0.69543 0.06559 0.77245 0.0
H382 H 0.66835 0.94178 0.79911 0.0
H383 H 0.61567 0.93919 0.74093 0.0
H384 H 0.71538 0.98081 0.84864 0.0
H385 H 0.76285 0.04603 0.80039 0.0
H386 H 0.84394 0.03626 0.81586 0.0
H387 H 0.90422 0.02267 0.865 0.0
C388 C 0.26082 0.38707 0.05252 0.0
C389 C 0.30311 0.37568 0.03894 0.0
C390 C 0.22534 0.36036 0.04956 0.0
C391 C 0.2316 0.32177 0.03291 0.0
C392 C 0.27382 0.31041 0.01964 0.0
C393 C 0.30924 0.33688 0.02291 0.0
C394 C 0.19495 0.29283 0.02744 0.0
C395 C 0.15883 0.29204 0.05135 0.0
C396 C 0.1262 0.25923 0.04711 0.0
C397 C 0.10826 0.24239 0.08276 0.0
C398 C 0.0833 0.2073 0.07985 0.0
C399 C 0.07554 0.18877 0.04109 0.0
H400 H 0.12742 0.25583 0.97995 0.0
C401 C 0.09032 0.20774 1.00516 0.0
C402 C 0.11535 0.24262 1.00813 0.0
H403 H 0.08426 0.19475 0.97475 0.0
H404 H 0.25484 0.41696 0.06442 0.0
H405 H 0.19299 0.37041 0.05924 0.0
H406 H 0.27953 0.28082 1.00677 0.0
H407 H 0.3415 0.32684 1.01287 0.0
H408 H 0.1997 0.26915 1.0046 0.0
H409 H 0.15567 0.31283 0.07719 0.0
H410 H 0.11568 0.25504 0.11309 0.0
H411 H 0.0719 0.19376 0.10813 0.0
C412 C 0.39339 0.73494 1.01536 0.0
C413 C 0.41537 0.71933 0.05038 0.0
C414 C 0.36911 0.77051 0.01817 0.0
C415 C 0.36635 0.79139 0.05615 0.0
C416 C 0.39004 0.7768 0.09058 0.0
C417 C 0.41453 0.74136 0.0877 0.0
C418 C 0.3343 0.8247 0.06237 0.0
C419 C 0.31855 0.84774 0.03136 0.0
C420 C 0.2777 0.87258 0.03473 0.0
C421 C 0.25401 0.88138 0.99817 0.0
C422 C 0.21134 0.89741 0.99983 0.0
C423 C 0.19145 0.90523 0.0382 0.0
H424 H 0.27741 0.87983 0.10187 0.0
C425 C 0.21681 0.90035 0.07467 0.0
C426 C 0.25957 0.88425 0.073 0.0
H427 H 0.20286 0.90689 0.10472 0.0
H428 H 0.39267 0.7185 0.9863 0.0
H429 H 0.35037 0.77995 0.99116 0.0
H430 H 0.38838 0.79214 0.12024 0.0
H431 H 0.43166 0.73056 0.11512 0.0
H432 H 0.32087 0.82769 0.09321 0.0
H433 H 0.33296 0.84482 1.00085 0.0
H434 H 0.26738 0.87352 0.9682 0.0
H435 H 0.19314 0.90163 0.97103 0.0
C436 C 0.55328 0.28039 0.02203 0.0
C437 C 0.55073 0.30763 0.05532 0.0
C438 C 0.5738 0.24316 0.02713 0.0
C439 C 0.59213 0.23228 0.06584 0.0
C440 C 0.58816 0.25902 0.09938 0.0
C441 C 0.56761 0.29617 0.09427 0.0
C442 C 0.62025 0.19602 0.07136 0.0
C443 C 0.62067 0.16462 0.04485 0.0
C444 C 0.65716 0.13471 0.0449 0.0
C445 C 0.67092 0.11894 1.00677 0.0
C446 C 0.71052 0.09751 1.00409 0.0
C447 C 0.73693 0.09102 0.03966 0.0
H448 H 0.67051 0.13492 0.11127 0.0
C449 C 0.7207 0.10298 0.07848 0.0
C450 C 0.68116 0.1247 0.0811 0.0
H451 H 0.73984 0.09787 0.10658 0.0
H452 H 0.54024 0.2882 0.99171 0.0
H453 H 0.57688 0.22408 1.00011 0.0
H454 H 0.60232 0.2517 0.12942 0.0
H455 H 0.56674 0.3166 0.12048 0.0
H456 H 0.64414 0.19704 0.0968 0.0
H457 H 0.59713 0.16337 0.01918 0.0
H458 H 0.65266 0.12558 0.97851 0.0
H459 H 0.72165 0.08805 0.97377 0.0
C460 C 0.7001 0.6495 0.03589 0.0
C461 C 0.66805 0.64485 1.00432 0.0
C462 C 0.73666 0.67413 0.03023 0.0
C463 C 0.74203 0.69462 0.99271 0.0
C464 C 0.71002 0.68988 0.96113 0.0
C465 C 0.67355 0.66498 0.96671 0.0
C466 C 0.77813 0.72404 0.98731 0.0
C467 C 0.81691 0.72216 1.00831 0.0
C468 C 0.84794 0.75636 1.01118 0.0
C469 C 0.8717 0.76213 0.04837 0.0
C470 C 0.89545 0.79728 0.05542 0.0
C471 C 0.89654 0.8271 0.02506 0.0
H472 H 0.83509 0.78056 0.94988 0.0
C473 C 0.87601 0.81981 0.98637 0.0
C474 C 0.85174 0.78476 0.97951 0.0
H475 H 0.8767 0.84206 0.96219 0.0
H476 H 0.69684 0.63416 0.06511 0.0
H477 H 0.75967 0.67802 0.05592 0.0
H478 H 0.71299 0.70581 0.93221 0.0
H479 H 0.64909 0.66226 0.94198 0.0
H480 H 0.77103 0.7493 0.96734 0.0
H481 H 0.82391 0.69669 0.02803 0.0
H482 H 0.8698 0.74046 0.07306 0.0
H483 H 0.91152 0.80174 0.08532 0.0
loop_
_geom_bond_atom_site_label_1
_geom_bond_atom_site_label_2
_geom_bond_distance
_geom_bond_site_symmetry_2
_ccdc_geom_bond_type
H0 C19 0.949 . S
H1 C20 0.950 . S
H2 C22 0.950 . S
H3 C23 0.950 . S
H4 C25 0.950 . S
H5 C28 0.950 . S
H6 C29 0.950 . S
H7 C31 0.951 . S
H8 C32 0.949 . S
H9 C34 0.949 . S
H10 C35 0.950 . S
H11 C37 0.950 . S
H12 C38 0.950 . S
H13 C40 0.950 . S
H14 C43 0.950 . S
H15 C44 0.950 . S
H16 C46 0.951 . S
H17 C47 0.949 . S
C18 C19 1.376 . S
C18 C23 1.386 1_455 S
C18 C24 1.483 . S
C19 H0 0.949 . S
C19 C18 1.376 . S
C19 C20 1.397 . S
C20 H1 0.950 . S
C20 C19 1.397 . S
C20 C21 1.391 . S
C21 C20 1.391 . S
C21 C22 1.405 1_455 S
C22 H2 0.950 . S
C22 C21 1.405 1_655 S
C22 C23 1.367 . S
C23 H3 0.950 . S
C23 C18 1.386 1_655 S
C23 C22 1.367 . S
C24 C18 1.483 . S
C24 C25 1.382 . S
C24 C26 1.403 1_455 S
C25 H4 0.950 . S
C25 C24 1.382 . S
C25 C41 1.411 . S
C26 C24 1.403 1_655 S
C26 C27 1.489 . S
C26 C40 1.411 . S
C27 C26 1.489 . S
C27 C28 1.383 1_655 S
C27 C32 1.382 . S
C28 H5 0.950 . S
C28 C27 1.383 1_455 S
C28 C29 1.395 . S
C29 H6 0.950 . S
C29 C28 1.395 . S
C29 C30 1.288 1_455 S
C30 C29 1.288 1_655 S
C30 C31 1.392 . S
C31 H7 0.951 . S
C31 C30 1.392 . S
C31 C32 1.392 . S
C32 H8 0.949 . S
C32 C27 1.382 . S
C32 C31 1.392 . S
C33 C34 1.376 . S
C33 C38 1.386 1_655 S
C33 C39 1.483 . S
C34 H9 0.949 . S
C34 C33 1.376 . S
C34 C35 1.397 . S
C35 H10 0.950 . S
C35 C34 1.397 . S
C35 C36 1.391 . S
C36 C35 1.391 . S
C36 C37 1.405 1_655 S
C37 H11 0.950 . S
C37 C36 1.405 1_455 S
C37 C38 1.367 . S
C38 H12 0.950 . S
C38 C33 1.386 1_455 S
C38 C37 1.367 . S
C39 C33 1.483 . S
C39 C40 1.382 . S
C39 C41 1.403 1_655 S
C40 H13 0.950 . S
C40 C26 1.411 . S
C40 C39 1.382 . S
C41 C25 1.411 . S
C41 C39 1.403 1_455 S
C41 C42 1.489 . S
C42 C41 1.489 . S
C42 C43 1.383 1_455 S
C42 C47 1.382 . S
C43 H14 0.950 . S
C43 C42 1.383 1_655 S
C43 C44 1.395 . S
C44 H15 0.950 . S
C44 C43 1.395 . S
C44 C45 1.288 1_655 S
C45 C44 1.288 1_455 S
C45 C46 1.392 . S
C46 H16 0.951 . S
C46 C45 1.392 . S
C46 C47 1.392 . S
C47 H17 0.949 . S
C47 C42 1.382 . S
C47 C46 1.392 . S
H48 C67 0.949 . S
H49 C68 0.950 . S
H50 C70 0.950 . S
H51 C71 0.950 . S
H52 C73 0.950 . S
H53 C76 0.950 . S
H54 C77 0.950 . S
H55 C79 0.951 . S
H56 C80 0.949 . S
H57 C82 0.949 . S
H58 C83 0.950 . S
H59 C85 0.950 . S
H60 C86 0.950 . S
H61 C88 0.950 . S
H62 C91 0.950 . S
H63 C92 0.950 . S
H64 C94 0.951 . S
H65 C95 0.949 . S
C66 C67 1.376 . S
C66 C71 1.386 1_545 S
C66 C72 1.483 . S
C67 H48 0.949 . S
C67 C66 1.376 . S
C67 C68 1.397 . S
C68 H49 0.950 . S
C68 C67 1.397 . S
C68 C69 1.391 . S
C69 C68 1.391 . S
C69 C70 1.405 1_545 S
C70 H50 0.950 . S
C70 C69 1.405 1_565 S
C70 C71 1.367 . S
C71 H51 0.950 . S
C71 C66 1.386 1_565 S
C71 C70 1.367 . S
C72 C66 1.483 . S
C72 C73 1.382 . S
C72 C74 1.403 1_545 S
C73 H52 0.950 . S
C73 C72 1.382 . S
C73 C89 1.411 . S
C74 C72 1.403 1_565 S
C74 C75 1.489 . S
C74 C88 1.411 . S
C75 C74 1.489 . S
C75 C76 1.383 1_565 S
C75 C80 1.382 . S
C76 H53 0.950 . S
C76 C75 1.383 1_545 S
C76 C77 1.395 . S
C77 H54 0.950 . S
C77 C76 1.395 . S
C77 C78 1.288 1_545 S
C78 C77 1.288 1_565 S
C78 C79 1.392 . S
C79 H55 0.951 . S
C79 C78 1.392 . S
C79 C80 1.392 . S
C80 H56 0.949 . S
C80 C75 1.382 . S
C80 C79 1.392 . S
C81 C82 1.376 . S
C81 C86 1.386 1_565 S
C81 C87 1.483 . S
C82 H57 0.949 . S
C82 C81 1.376 . S
C82 C83 1.397 . S
C83 H58 0.950 . S
C83 C82 1.397 . S
C83 C84 1.391 . S
C84 C83 1.391 . S
C84 C85 1.405 1_565 S
C85 H59 0.950 . S
C85 C84 1.405 1_545 S
C85 C86 1.367 . S
C86 H60 0.950 . S
C86 C81 1.386 1_545 S
C86 C85 1.367 . S
C87 C81 1.483 . S
C87 C88 1.382 . S
C87 C89 1.403 1_565 S
C88 H61 0.950 . S
C88 C74 1.411 . S
C88 C87 1.382 . S
C89 C73 1.411 . S
C89 C87 1.403 1_545 S
C89 C90 1.489 . S
C90 C89 1.489 . S
C90 C91 1.383 1_545 S
C90 C95 1.382 . S
C91 H62 0.950 . S
C91 C90 1.383 1_565 S
C91 C92 1.395 . S
C92 H63 0.950 . S
C92 C91 1.395 . S
C92 C93 1.288 1_565 S
C93 C92 1.288 1_545 S
C93 C94 1.392 . S
C94 H64 0.951 . S
C94 C93 1.392 . S
C94 C95 1.392 . S
C95 H65 0.949 . S
C95 C90 1.382 . S
C95 C94 1.392 . S
H96 C115 0.949 . S
H97 C116 0.950 . S
H98 C118 0.950 . S
H99 C119 0.950 . S
H100 C121 0.950 . S
H101 C124 0.950 . S
H102 C125 0.947 1_556 S
H103 C127 0.951 . S
H104 C128 0.949 . S
H105 C130 0.949 . S
H106 C131 0.950 . S
H107 C133 0.950 . S
H108 C134 0.950 . S
H109 C136 0.950 . S
H110 C139 0.950 . S
H111 C140 0.950 . S
H112 C142 0.951 . S
H113 C143 0.949 . S
C114 C115 1.376 1_554 S
C114 C119 1.386 . S
C114 C120 1.483 . S
C115 H96 0.949 . S
C115 C114 1.376 1_556 S
C115 C116 1.397 . S
C116 H97 0.950 . S
C116 C115 1.397 . S
C116 C117 1.391 1_556 S
C117 C116 1.391 1_554 S
C117 C118 1.405 . S
C118 H98 0.950 . S
C118 C117 1.405 . S
C118 C119 1.367 . S
C119 H99 0.950 . S
C119 C114 1.386 . S
C119 C118 1.367 . S
C120 C114 1.483 . S
C120 C121 1.382 . S
C120 C122 1.403 . S
C121 H100 0.950 . S
C121 C120 1.382 . S
C121 C137 1.411 . S
C122 C120 1.403 . S
C122 C123 1.489 . S
C122 C136 1.411 . S
C123 C122 1.489 . S
C123 C124 1.383 1_554 S
C123 C128 1.382 . S
C124 H101 0.950 . S
C124 C123 1.383 1_556 S
C124 C125 1.395 1_556 S
C125 H102 0.947 1_554 S
C125 C124 1.395 1_554 S
C125 C126 1.291 . S
C126 C125 1.291 . S
C126 C127 1.392 . S
C127 H103 0.951 . S
C127 C126 1.392 . S
C127 C128 1.392 . S
C128 H104 0.949 . S
C128 C123 1.382 . S
C128 C127 1.392 . S
C129 C130 1.376 . S
C129 C134 1.386 1_554 S
C129 C135 1.483 . S
C130 H105 0.949 . S
C130 C129 1.376 . S
C130 C131 1.397 . S
C131 H106 0.950 . S
C131 C130 1.397 . S
C131 C132 1.391 . S
C132 C131 1.391 . S
C132 C133 1.405 1_554 S
C133 H107 0.950 . S
C133 C132 1.405 1_556 S
C133 C134 1.367 . S
C134 H108 0.950 . S
C134 C129 1.386 1_556 S
C134 C133 1.367 . S
C135 C129 1.483 . S
C135 C136 1.382 . S
C135 C137 1.403 . S
C136 H109 0.950 . S
C136 C122 1.411 . S
C136 C135 1.382 . S
C137 C121 1.411 . S
C137 C135 1.403 . S
C137 C138 1.489 . S
C138 C137 1.489 . S
C138 C139 1.383 . S
C138 C143 1.382 1_554 S
C139 H110 0.950 . S
C139 C138 1.383 . S
C139 C140 1.395 . S
C140 H111 0.950 . S
C140 C139 1.395 . S
C140 C141 1.288 . S
C141 C140 1.288 . S
C141 C142 1.392 1_554 S
C142 H112 0.951 . S
C142 C141 1.392 1_556 S
C142 C143 1.392 . S
C143 H113 0.949 . S
C143 C138 1.382 1_556 S
C143 C142 1.392 . S
Zn144 O146 1.933 1_556 S
Zn144 O164 1.985 . S
Zn144 O175 1.955 . S
Zn145 O146 1.911 . S
Zn145 O165 1.970 . S
Zn145 O181 1.945 . S
Zn145 O188 1.981 . S
O146 Zn144 1.933 1_554 S
O146 Zn145 1.911 . S
O146 H147 0.841 . S
H147 O146 0.841 . S
C148 O149 1.246 . S
C148 O177 1.276 1_455 S
O149 C148 1.246 . S
Zn150 O152 1.911 . S
Zn150 O167 1.970 . S
Zn150 O184 1.945 . S
Zn150 O191 1.981 . S
Zn151 O152 1.933 1_556 S
Zn151 O166 1.985 . S
Zn151 O173 1.955 . S
O152 Zn150 1.911 . S
O152 Zn151 1.933 1_554 S
O152 H153 0.841 . S
H153 O152 0.841 . S
Zn154 O155 1.933 1_556 S
Zn154 O168 1.985 . S
Zn154 O177 1.955 . S
O155 Zn154 1.933 1_554 S
O155 Zn156 1.911 . S
O155 H157 0.841 . S
Zn156 O155 1.911 . S
Zn156 O169 1.970 . S
Zn156 O185 1.981 . S
Zn156 O187 1.945 . S
H157 O155 0.841 . S
Zn158 O159 1.933 1_556 S
Zn158 O171 1.985 . S
Zn158 O179 1.955 . S
O159 Zn158 1.933 1_554 S
O159 H160 0.841 . S
O159 Zn161 1.911 . S
H160 O159 0.841 . S
Zn161 O159 1.911 . S
Zn161 O172 1.970 . S
Zn161 O182 1.981 . S
Zn161 O190 1.945 . S
C162 O163 1.246 . S
C162 O179 1.276 1_655 S
O163 C162 1.246 . S
O164 Zn144 1.985 . S
O164 C174 1.245 1_556 S
O165 Zn145 1.970 . S
O165 C174 1.263 . S
O166 Zn151 1.985 . S
O166 C178 1.245 1_556 S
O167 Zn150 1.970 . S
O167 C178 1.263 . S
O168 Zn154 1.985 . S
O168 C183 1.245 1_556 S
O169 Zn156 1.970 . S
O169 C183 1.263 . S
C170 O181 1.264 . S
C170 O182 1.244 1_545 S
O171 Zn158 1.985 . S
O171 C189 1.245 1_556 S
O172 Zn161 1.970 . S
O172 C189 1.263 . S
O173 Zn151 1.955 . S
O173 C192 1.276 1_565 S
C174 O164 1.245 1_554 S
C174 O165 1.263 . S
O175 Zn144 1.955 . S
O175 C194 1.276 1_545 S
C176 O184 1.261 1_545 S
C176 O185 1.245 . S
O177 C148 1.276 1_655 S
O177 Zn154 1.955 . S
C178 O166 1.245 1_554 S
C178 O167 1.263 . S
O179 Zn158 1.955 . S
O179 C162 1.276 1_455 S
C180 O187 1.261 1_455 S
C180 O188 1.245 . S
O181 Zn145 1.945 . S
O181 C170 1.264 . S
O182 Zn161 1.981 . S
O182 C170 1.244 1_565 S
C183 O168 1.245 1_554 S
C183 O169 1.263 . S
O184 Zn150 1.945 . S
O184 C176 1.261 1_565 S
O185 Zn156 1.981 . S
O185 C176 1.245 . S
C186 O190 1.262 . S
C186 O191 1.245 1_455 S
O187 Zn156 1.945 . S
O187 C180 1.261 1_655 S
O188 Zn145 1.981 . S
O188 C180 1.245 . S
C189 O171 1.245 1_554 S
C189 O172 1.263 . S
O190 Zn161 1.945 . S
O190 C186 1.262 . S
O191 Zn150 1.981 . S
O191 C186 1.245 1_655 S
C192 O173 1.276 1_545 S
C192 O193 1.246 . S
O193 C192 1.246 . S
C194 O175 1.276 1_565 S
C194 O195 1.246 . S
O195 C194 1.246 . S
C196 C197 1.386 . S
C196 C198 1.383 . S
C196 H212 0.951 . S
C197 C196 1.386 . S
C197 C201 1.383 1_455 S
C198 C196 1.383 . S
C198 C199 1.402 . S
C198 H213 0.951 . S
C199 C198 1.402 . S
C199 C200 1.375 1_455 S
C199 C202 1.481 . S
C200 C199 1.375 1_655 S
C200 C201 1.367 . S
C200 H214 0.951 . S
C201 C197 1.383 1_655 S
C201 C200 1.367 . S
C201 H215 0.950 . S
C202 C199 1.481 . S
C202 C203 1.297 . S
C202 H216 0.957 . S
C203 C202 1.297 . S
C203 C204 1.479 . S
C203 H217 0.950 . S
C204 C203 1.479 . S
C204 C205 1.375 . S
C204 C210 1.404 . S
C205 C204 1.375 . S
C205 C206 1.369 . S
C205 H218 0.950 . S
C206 C205 1.369 . S
C206 C207 1.392 . S
C206 H219 0.951 . S
C207 C206 1.392 . S
C207 C209 1.384 . S
H208 C210 0.949 . S
C209 C207 1.384 . S
C209 C210 1.385 . S
C209 H211 0.950 . S
C210 C204 1.404 . S
C210 H208 0.949 . S
C210 C209 1.385 . S
H211 C209 0.950 . S
H212 C196 0.951 . S
H213 C198 0.951 . S
H214 C200 0.951 . S
H215 C201 0.950 . S
H216 C202 0.957 . S
H217 C203 0.950 . S
H218 C205 0.950 . S
H219 C206 0.951 . S
C220 C221 1.383 1_545 S
C220 C222 1.383 . S
C220 H236 0.951 . S
C221 C220 1.383 1_565 S
C221 C225 1.385 . S
C222 C220 1.383 . S
C222 C223 1.402 1_545 S
C222 H237 0.951 . S
C223 C222 1.402 1_565 S
C223 C224 1.375 . S
C223 C226 1.481 . S
C224 C223 1.375 . S
C224 C225 1.367 . S
C224 H238 0.951 . S
C225 C221 1.385 . S
C225 C224 1.367 . S
C225 H239 0.950 . S
C226 C223 1.481 . S
C226 C227 1.297 1_565 S
C226 H240 0.950 . S
C227 C226 1.297 1_545 S
C227 C228 1.479 . S
C227 H241 0.950 . S
C228 C227 1.479 . S
C228 C229 1.375 . S
C228 C234 1.404 1_545 S
C229 C228 1.375 . S
C229 C230 1.369 . S
C229 H242 0.950 . S
C230 C229 1.369 . S
C230 C231 1.392 . S
C230 H243 0.951 . S
C231 C230 1.392 . S
C231 C233 1.384 1_545 S
H232 C234 0.949 . S
C233 C231 1.384 1_565 S
C233 C234 1.385 . S
C233 H235 0.950 . S
C234 C228 1.404 1_565 S
C234 H232 0.949 . S
C234 C233 1.385 . S
H235 C233 0.950 . S
H236 C220 0.951 . S
H237 C222 0.951 . S
H238 C224 0.951 . S
H239 C225 0.950 . S
H240 C226 0.950 . S
H241 C227 0.950 . S
H242 C229 0.950 . S
H243 C230 0.951 . S
C244 C245 1.386 1_455 S
C244 C246 1.383 . S
C244 H260 0.951 . S
C245 C244 1.386 1_655 S
C245 C249 1.383 . S
C246 C244 1.383 . S
C246 C247 1.402 1_455 S
C246 H261 0.951 . S
C247 C246 1.402 1_655 S
C247 C248 1.375 . S
C247 C250 1.481 . S
C248 C247 1.375 . S
C248 C249 1.367 . S
C248 H262 0.951 . S
C249 C245 1.383 . S
C249 C248 1.367 . S
C249 H263 0.950 . S
C250 C247 1.481 . S
C250 C251 1.297 . S
C250 H264 0.950 . S
C251 C250 1.297 . S
C251 C252 1.479 . S
C251 H265 0.950 1_655 S
C252 C251 1.479 . S
C252 C253 1.375 1_655 S
C252 C258 1.404 . S
C253 C252 1.375 1_455 S
C253 C254 1.369 . S
C253 H266 0.950 . S
C254 C253 1.369 . S
C254 C255 1.392 1_455 S
C254 H267 0.951 . S
C255 C254 1.392 1_655 S
C255 C257 1.384 . S
H256 C258 0.949 . S
C257 C255 1.384 . S
C257 C258 1.385 . S
C257 H259 0.950 . S
C258 C252 1.404 . S
C258 H256 0.949 . S
C258 C257 1.385 . S
H259 C257 0.950 . S
H260 C244 0.951 . S
H261 C246 0.951 . S
H262 C248 0.951 . S
H263 C249 0.950 . S
H264 C250 0.950 . S
H265 C251 0.950 1_455 S
H266 C253 0.950 . S
H267 C254 0.951 . S
C268 C269 1.386 1_565 S
C268 C270 1.383 . S
C268 H284 0.951 . S
C269 C268 1.386 1_545 S
C269 C273 1.383 . S
C270 C268 1.383 . S
C270 C271 1.402 1_565 S
C270 H285 0.951 . S
C271 C270 1.402 1_545 S
C271 C272 1.375 . S
C271 C274 1.481 . S
C272 C271 1.375 . S
C272 C273 1.367 . S
C272 H286 0.951 . S
C273 C269 1.383 . S
C273 C272 1.367 . S
C273 H287 0.950 . S
C274 C271 1.481 . S
C274 C275 1.297 1_545 S
C274 H288 0.950 . S
C275 C274 1.297 1_565 S
C275 C276 1.479 . S
C275 H289 0.950 . S
C276 C275 1.479 . S
C276 C277 1.375 . S
C276 C282 1.404 1_565 S
C277 C276 1.375 . S
C277 C278 1.369 . S
C277 H290 0.950 . S
C278 C277 1.369 . S
C278 C279 1.392 . S
C278 H291 0.951 . S
C279 C278 1.392 . S
C279 C281 1.384 1_565 S
H280 C282 0.949 . S
C281 C279 1.384 1_545 S
C281 C282 1.385 . S
C281 H283 0.950 . S
C282 C276 1.404 1_545 S
C282 H280 0.949 . S
C282 C281 1.385 . S
H283 C281 0.950 . S
H284 C268 0.951 . S
H285 C270 0.951 . S
H286 C272 0.951 . S
H287 C273 0.950 . S
H288 C274 0.950 . S
H289 C275 0.950 . S
H290 C277 0.950 . S
H291 C278 0.951 . S
C292 C293 1.386 1_455 S
C292 C294 1.383 . S
C292 H308 0.951 . S
C293 C292 1.386 1_655 S
C293 C297 1.383 . S
C294 C292 1.383 . S
C294 C295 1.402 1_455 S
C294 H309 0.951 . S
C295 C294 1.402 1_655 S
C295 C296 1.375 . S
C295 C298 1.481 . S
C296 C295 1.375 . S
C296 C297 1.367 . S
C296 H310 0.951 . S
C297 C293 1.383 . S
C297 C296 1.367 . S
C297 H311 0.950 . S
C298 C295 1.481 . S
C298 C299 1.297 1_655 S
C298 H312 0.950 . S
C299 C298 1.297 1_455 S
C299 C300 1.479 . S
C299 H313 0.950 . S
C300 C299 1.479 . S
C300 C301 1.375 . S
C300 C306 1.404 1_455 S
C301 C300 1.375 . S
C301 C302 1.369 . S
C301 H314 0.950 . S
C302 C301 1.369 . S
C302 C303 1.392 1_455 S
C302 H315 0.951 . S
C303 C302 1.392 1_655 S
C303 C305 1.384 . S
H304 C306 0.949 . S
C305 C303 1.384 . S
C305 C306 1.385 . S
C305 H307 0.950 . S
C306 C300 1.404 1_655 S
C306 H304 0.949 . S
C306 C305 1.385 . S
H307 C305 0.950 . S
H308 C292 0.951 . S
H309 C294 0.951 . S
H310 C296 0.951 . S
H311 C297 0.950 . S
H312 C298 0.950 . S
H313 C299 0.950 . S
H314 C301 0.950 . S
H315 C302 0.951 . S
C316 C317 1.386 1_545 S
C316 C318 1.383 . S
C316 H332 0.951 . S
C317 C316 1.386 1_565 S
C317 C321 1.383 . S
C318 C316 1.383 . S
C318 C319 1.402 1_545 S
C318 H333 0.951 . S
C319 C318 1.402 1_565 S
C319 C320 1.375 . S
C319 C322 1.481 . S
C320 C319 1.375 . S
C320 C321 1.367 . S
C320 H334 0.951 . S
C321 C317 1.383 . S
C321 C320 1.367 . S
C321 H335 0.950 . S
C322 C319 1.481 . S
C322 C323 1.297 1_565 S
C322 H336 0.950 . S
C323 C322 1.297 1_545 S
C323 C324 1.479 . S
C323 H337 0.950 . S
C324 C323 1.479 . S
C324 C325 1.375 . S
C324 C330 1.404 1_545 S
C325 C324 1.375 . S
C325 C326 1.369 . S
C325 H338 0.950 . S
C326 C325 1.369 . S
C326 C327 1.392 1_545 S
C326 H339 0.951 . S
C327 C326 1.392 1_565 S
C327 C329 1.384 . S
H328 C330 0.949 . S
C329 C327 1.384 . S
C329 C330 1.385 . S
C329 H331 0.950 . S
C330 C324 1.404 1_565 S
C330 H328 0.949 . S
C330 C329 1.385 . S
H331 C329 0.950 . S
H332 C316 0.951 . S
H333 C318 0.951 . S
H334 C320 0.951 . S
H335 C321 0.950 . S
H336 C322 0.950 . S
H337 C323 0.950 . S
H338 C325 0.950 . S
H339 C326 0.951 . S
C340 C341 1.386 1_655 S
C340 C342 1.383 . S
C340 H356 0.951 . S
C341 C340 1.386 1_455 S
C341 C345 1.383 . S
C342 C340 1.383 . S
C342 C343 1.402 1_655 S
C342 H357 0.951 . S
C343 C342 1.402 1_455 S
C343 C344 1.375 . S
C343 C346 1.481 . S
C344 C343 1.375 . S
C344 C345 1.367 . S
C344 H358 0.951 . S
C345 C341 1.383 . S
C345 C344 1.367 . S
C345 H359 0.950 . S
C346 C343 1.481 . S
C346 C347 1.297 1_455 S
C346 H360 0.950 . S
C347 C346 1.297 1_655 S
C347 C348 1.479 1_655 S
C347 H361 0.950 . S
C348 C347 1.479 1_455 S
C348 C349 1.375 1_455 S
C348 C354 1.404 . S
C349 C348 1.375 1_655 S
C349 C350 1.369 . S
C349 H362 0.950 . S
C350 C349 1.369 . S
C350 C351 1.392 1_655 S
C350 H363 0.951 . S
C351 C350 1.392 1_455 S
C351 C353 1.384 . S
H352 C354 0.949 . S
C353 C351 1.384 . S
C353 C354 1.385 . S
C353 H355 0.950 . S
C354 C348 1.404 . S
C354 H352 0.949 . S
C354 C353 1.385 . S
H355 C353 0.950 . S
H356 C340 0.951 . S
H357 C342 0.951 . S
H358 C344 0.951 . S
H359 C345 0.950 . S
H360 C346 0.950 . S
H361 C347 0.950 . S
H362 C349 0.950 . S
H363 C350 0.951 . S
C364 C365 1.379 1_545 S
C364 C366 1.383 . S
C364 H380 0.951 . S
C365 C364 1.379 1_565 S
C365 C369 1.390 . S
C366 C364 1.383 . S
C366 C367 1.402 1_545 S
C366 H381 0.951 . S
C367 C366 1.402 1_565 S
C367 C368 1.375 . S
C367 C370 1.481 . S
C368 C367 1.375 . S
C368 C369 1.367 . S
C368 H382 0.951 . S
C369 C365 1.390 . S
C369 C368 1.367 . S
C369 H383 0.950 . S
C370 C367 1.481 . S
C370 C371 1.297 1_565 S
C370 H384 0.950 . S
C371 C370 1.297 1_545 S
C371 C372 1.479 . S
C371 H385 0.950 . S
C372 C371 1.479 . S
C372 C373 1.375 . S
C372 C378 1.404 1_545 S
C373 C372 1.375 . S
C373 C374 1.369 . S
C373 H386 0.950 . S
C374 C373 1.369 . S
C374 C375 1.392 . S
C374 H387 0.951 . S
C375 C374 1.392 . S
C375 C377 1.384 1_545 S
H376 C378 0.949 . S
C377 C375 1.384 1_565 S
C377 C378 1.385 . S
C377 H379 0.950 . S
C378 C372 1.404 1_565 S
C378 H376 0.949 . S
C378 C377 1.385 . S
H379 C377 0.950 . S
H380 C364 0.951 . S
H381 C366 0.951 . S
H382 C368 0.951 . S
H383 C369 0.950 . S
H384 C370 0.950 . S
H385 C371 0.950 . S
H386 C373 0.950 . S
H387 C374 0.951 . S
C388 C389 1.386 . S
C388 C390 1.383 . S
C388 H404 0.951 . S
C389 C388 1.386 . S
C389 C393 1.383 1_554 S
C390 C388 1.383 . S
C390 C391 1.402 . S
C390 H405 0.951 . S
C391 C390 1.402 . S
C391 C392 1.375 1_554 S
C391 C394 1.477 1_554 S
C392 C391 1.375 1_556 S
C392 C393 1.367 . S
C392 H406 0.951 . S
C393 C389 1.383 1_556 S
C393 C392 1.367 . S
C393 H407 0.950 . S
C394 C391 1.477 1_556 S
C394 C395 1.286 1_556 S
C394 H408 0.966 . S
C395 C394 1.286 1_554 S
C395 C396 1.479 . S
C395 H409 0.950 . S
C396 C395 1.479 . S
C396 C397 1.375 . S
C396 C402 1.404 1_554 S
C397 C396 1.375 . S
C397 C398 1.369 . S
C397 H410 0.950 . S
C398 C397 1.369 . S
C398 C399 1.392 . S
C398 H411 0.951 . S
C399 C398 1.392 . S
C399 C401 1.384 1_554 S
H400 C402 0.949 . S
C401 C399 1.384 1_556 S
C401 C402 1.385 . S
C401 H403 0.950 . S
C402 C396 1.404 1_556 S
C402 H400 0.949 . S
C402 C401 1.385 . S
H403 C401 0.950 . S
H404 C388 0.951 . S
H405 C390 0.951 . S
H406 C392 0.951 . S
H407 C393 0.950 . S
H408 C394 0.966 . S
H409 C395 0.950 . S
H410 C397 0.950 . S
H411 C398 0.951 . S
C412 C413 1.396 . S
C412 C414 1.385 . S
C412 H428 0.939 1_554 S
C413 C412 1.396 . S
C413 C417 1.383 . S
C414 C412 1.385 . S
C414 C415 1.402 . S
C414 H429 0.951 1_554 S
C415 C414 1.402 . S
C415 C416 1.375 . S
C415 C418 1.481 . S
C416 C415 1.375 . S
C416 C417 1.367 . S
C416 H430 0.951 . S
C417 C413 1.383 . S
C417 C416 1.367 . S
C417 H431 0.950 . S
C418 C415 1.481 . S
C418 C419 1.297 . S
C418 H432 0.950 . S
C419 C418 1.297 . S
C419 C420 1.479 . S
C419 H433 0.950 . S
C420 C419 1.479 . S
C420 C421 1.375 1_554 S
C420 C426 1.404 . S
C421 C420 1.375 1_556 S
C421 C422 1.369 . S
C421 H434 0.950 . S
C422 C421 1.369 . S
C422 C423 1.392 1_556 S
C422 H435 0.951 . S
C423 C422 1.392 1_554 S
C423 C425 1.384 . S
H424 C426 0.949 . S
C425 C423 1.384 . S
C425 C426 1.385 . S
C425 H427 0.950 . S
C426 C420 1.404 . S
C426 H424 0.949 . S
C426 C425 1.385 . S
H427 C425 0.950 . S
H428 C412 0.939 1_556 S
H429 C414 0.951 1_556 S
H430 C416 0.951 . S
H431 C417 0.950 . S
H432 C418 0.950 . S
H433 C419 0.950 . S
H434 C421 0.950 . S
H435 C422 0.951 . S
C436 C437 1.386 1_556 S
C436 C438 1.383 . S
C436 H452 0.951 . S
C437 C436 1.386 1_554 S
C437 C441 1.383 . S
C438 C436 1.383 . S
C438 C439 1.402 1_556 S
C438 H453 0.951 . S
C439 C438 1.402 1_554 S
C439 C440 1.375 . S
C439 C442 1.481 . S
C440 C439 1.375 . S
C440 C441 1.367 . S
C440 H454 0.951 . S
C441 C437 1.383 . S
C441 C440 1.367 . S
C441 H455 0.950 . S
C442 C439 1.481 . S
C442 C443 1.297 . S
C442 H456 0.950 . S
C443 C442 1.297 . S
C443 C444 1.479 . S
C443 H457 0.950 1_554 S
C444 C443 1.479 . S
C444 C445 1.375 1_554 S
C444 C450 1.404 . S
C445 C444 1.375 1_556 S
C445 C446 1.369 . S
C445 H458 0.950 . S
C446 C445 1.369 . S
C446 C447 1.392 1_556 S
C446 H459 0.951 . S
C447 C446 1.392 1_554 S
C447 C449 1.384 . S
H448 C450 0.949 . S
C449 C447 1.384 . S
C449 C450 1.385 . S
C449 H451 0.950 . S
C450 C444 1.404 . S
C450 H448 0.949 . S
C450 C449 1.385 . S
H451 C449 0.950 . S
H452 C436 0.951 . S
H453 C438 0.951 . S
H454 C440 0.951 . S
H455 C441 0.950 . S
H456 C442 0.950 . S
H457 C443 0.950 1_556 S
H458 C445 0.950 . S
H459 C446 0.951 . S
C460 C461 1.386 . S
C460 C462 1.383 . S
C460 H476 0.951 . S
C461 C460 1.386 . S
C461 C465 1.383 1_554 S
C462 C460 1.383 . S
C462 C463 1.402 . S
C462 H477 0.951 . S
C463 C462 1.402 . S
C463 C464 1.375 1_554 S
C463 C466 1.481 . S
C464 C463 1.375 1_556 S
C464 C465 1.367 . S
C464 H478 0.951 . S
C465 C461 1.383 1_556 S
C465 C464 1.367 . S
C465 H479 0.950 . S
C466 C463 1.481 . S
C466 C467 1.297 . S
C466 H480 0.950 1_554 S
C467 C466 1.297 . S
C467 C468 1.479 . S
C467 H481 0.950 . S
C468 C467 1.479 . S
C468 C469 1.375 . S
C468 C474 1.404 1_554 S
C469 C468 1.375 . S
C469 C470 1.369 . S
C469 H482 0.950 . S
C470 C469 1.369 . S
C470 C471 1.392 . S
C470 H483 0.951 . S
C471 C470 1.392 . S
C471 C473 1.384 1_554 S
H472 C474 0.949 . S
C473 C471 1.384 1_556 S
C473 C474 1.385 . S
C473 H475 0.950 . S
C474 C468 1.404 1_556 S
C474 H472 0.949 . S
C474 C473 1.385 . S
H475 C473 0.950 . S
H476 C460 0.951 . S
H477 C462 0.951 . S
H478 C464 0.951 . S
H479 C465 0.950 . S
H480 C466 0.950 1_556 S
H481 C467 0.950 . S
H482 C469 0.950 . S
H483 C470 0.951 . S
C207 C180 2.039 . S
C197 C36 2.100 1_455 S
C231 C176 1.380 . S
C221 C78 1.371 . S
C255 C186 1.983 1_655 S
C245 C30 2.060 . S
C279 C170 1.345 1_565 S
C269 C69 1.391 . S
C293 C21 2.230 1_655 S
C303 C162 2.098 . S
C327 C194 1.413 . S
C317 C93 1.499 1_565 S
C341 C45 2.201 . S
C351 C148 2.132 . S
C365 C84 1.534 . S
C375 C192 1.409 . S
C389 C132 0.983 . S
C399 C174 1.017 . S
C413 C126 0.973 . S
C423 C189 0.910 . S
C447 C183 0.903 . S
C437 C141 0.993 . S
C471 C178 1.023 . S
C461 C117 0.969 . S
