# Generated by pormake.
# Topology rtl, (3,6)-cn, num edge types: 1
# Building blocks:
#     Node 0, Type 0, BuildingBlock: ESEHIV_clean_linker_0, # of connection points: 3
#     Node 1, Type 0, BuildingBlock: ESEHIV_clean_linker_0, # of connection points: 3
#     Node 2, Type 0, BuildingBlock: ESEHIV_clean_linker_0, # of connection points: 3
#     Node 3, Type 0, BuildingBlock: ESEHIV_clean_linker_0, # of connection points: 3
#     Node 4, Type 1, BuildingBlock: LEVNOQ01_clean_sbu_1, # of connection points: 6
#     Node 5, Type 1, BuildingBlock: LEVNOQ01_clean_sbu_1, # of connection points: 6
#     Edge 6, Type (0, 1), BuildingBlock: EZIPEK_clean_linker_0, # of connection points: 2
#     Edge 7, Type (0, 1), BuildingBlock: EZIPEK_clean_linker_0, # of connection points: 2
#     Edge 8, Type (0, 1), BuildingBlock: EZIPEK_clean_linker_0, # of connection points: 2
#     Edge 9, Type (0, 1), BuildingBlock: EZIPEK_clean_linker_0, # of connection points: 2
#     Edge 10, Type (0, 1), BuildingBlock: EZIPEK_clean_linker_0, # of connection points: 2
#     Edge 11, Type (0, 1), BuildingBlock: EZIPEK_clean_linker_0, # of connection points: 2
#     Edge 12, Type (0, 1), BuildingBlock: EZIPEK_clean_linker_0, # of connection points: 2
#     Edge 13, Type (0, 1), BuildingBlock: EZIPEK_clean_linker_0, # of connection points: 2
#     Edge 14, Type (0, 1), BuildingBlock: EZIPEK_clean_linker_0, # of connection points: 2
#     Edge 15, Type (0, 1), BuildingBlock: EZIPEK_clean_linker_0, # of connection points: 2
#     Edge 16, Type (0, 1), BuildingBlock: EZIPEK_clean_linker_0, # of connection points: 2
#     Edge 17, Type (0, 1), BuildingBlock: EZIPEK_clean_linker_0, # of connection points: 2
# Relax obj value: 0.026
# Max RMSD: 0.059
# Mean RMSD: 0.044
data_MOF--net-rtl--node1-LEVNOQ01_clean_sbu_1--node2-ESEHIV_clean_linker_0--edge1-EZIPEK_clean_linker_0
_symmetry_space_group_name_H-M    P1
_symmetry_Int_Tables_number       1
_symmetry_cell_setting            triclinic
loop_
_symmetry_equiv_pos_as_xyz
'x, y, z'
_cell_length_a     20.657231
_cell_length_b     23.458976
_cell_length_c     16.469907
_cell_angle_alpha  90.055885
_cell_angle_beta   99.083434
_cell_angle_gamma 90.035559
loop_
_atom_site_label
_atom_site_type_symbol
_atom_site_fract_x
_atom_site_fract_y
_atom_site_fract_z
_atom_type_partial_charge
H0 H 0.17828 0.95713 0.06937 0.0
H1 H 0.3108 0.86055 0.24442 0.0
H2 H 0.31555 0.84227 0.98525 0.0
C3 C 0.2191 0.92775 0.08259 0.0
C4 C 0.24674 0.90391 0.01787 0.0
C5 C 0.24194 0.91194 0.16399 0.0
C6 C 0.29381 0.87321 0.18135 0.0
C7 C 0.31797 0.84565 0.11699 0.0
C8 C 0.29602 0.86262 0.03535 0.0
H9 H 0.66333 0.58156 0.56231 0.0
H10 H 0.81032 0.68155 0.47053 0.0
H11 H 0.81024 0.66876 0.73155 0.0
C12 C 0.70661 0.60839 0.57347 0.0
C13 C 0.73329 0.62348 0.65403 0.0
C14 C 0.73525 0.62816 0.50718 0.0
C15 C 0.78917 0.66508 0.52199 0.0
C16 C 0.81585 0.68073 0.60295 0.0
C17 C 0.78958 0.65746 0.66894 0.0
H18 H 0.82693 0.05455 0.03235 0.0
H19 H 0.69541 0.17882 0.10734 0.0
H20 H 0.70765 0.15755 0.85099 0.0
C21 C 0.78811 0.08556 0.0166 0.0
C22 C 0.76954 0.10238 0.93439 0.0
C23 C 0.76008 0.1122 0.07903 0.0
C24 C 0.71446 0.15613 0.05879 0.0
C25 C 0.69585 0.17283 0.97659 0.0
C26 C 0.72074 0.14365 0.91427 0.0
H27 H 0.33791 0.44577 0.50025 0.0
H28 H 0.19789 0.33815 0.59296 0.0
H29 H 0.20115 0.34718 0.33245 0.0
C30 C 0.29651 0.41678 0.48933 0.0
C31 C 0.27226 0.39914 0.40908 0.0
C32 C 0.26878 0.39596 0.5558 0.0
C33 C 0.21787 0.35591 0.54141 0.0
C34 C 0.19432 0.3372 0.46099 0.0
C35 C 0.21923 0.36134 0.3946 0.0
O36 O -0.00362 0.0645 0.7256 0.0
Mg37 Mg 0.06583 0.07473 0.64436 0.0
O38 O 0.92347 0.03612 0.62226 0.0
Mg39 Mg 0.00237 0.00783 0.54563 0.0
O40 O 0.0395 0.10206 0.5275 0.0
O41 O 0.08222 0.1584 0.63362 0.0
O42 O 0.08221 0.98124 0.46892 0.0
O43 O 0.92869 0.04167 0.42815 0.0
Mg44 Mg 0.94327 0.93771 0.44218 0.0
O45 O 0.96871 0.91282 0.56245 0.0
O46 O 0.01317 0.9492 0.3638 0.0
O47 O 0.85273 0.97706 0.40671 0.0
O48 O 0.93664 0.85316 0.45695 0.0
C49 C 0.13145 0.98769 0.69644 0.0
C50 C 0.93753 0.05275 0.69638 0.0
C51 C 0.0629 0.15083 0.55612 0.0
C52 C 0.0705 0.96374 0.39503 0.0
C53 C 0.87085 0.02729 0.39485 0.0
C54 C 0.95504 0.86164 0.53448 0.0
O55 O 0.15587 0.03079 0.66746 0.0
O56 O 0.07234 0.97459 0.6675 0.0
O57 O 0.65452 0.49876 0.15781 0.0
Mg58 Mg 0.56974 0.44844 0.12646 0.0
O59 O 0.56472 0.54677 0.15789 0.0
Mg60 Mg 0.50291 0.51137 0.03149 0.0
O61 O 0.54862 0.41963 0.00964 0.0
O62 O 0.5977 0.36778 0.1175 0.0
O63 O 0.44003 0.47732 0.90506 0.0
O64 O 0.58168 0.54735 0.96205 0.0
Mg65 Mg 0.43613 0.57737 0.9346 0.0
O66 O 0.45806 0.60269 0.05297 0.0
O67 O 0.35131 0.52744 0.90335 0.0
O68 O 0.50963 0.57753 0.85838 0.0
O69 O 0.41173 0.65873 0.94825 0.0
C70 C 0.43839 0.45609 0.17399 0.0
C71 C 0.62484 0.5386 0.1874 0.0
C72 C 0.57678 0.373 0.04003 0.0
C73 C 0.38024 0.48668 0.87473 0.0
C74 C 0.56828 0.56696 0.88952 0.0
C75 C 0.43226 0.65087 0.02537 0.0
O76 O 0.49744 0.44664 0.20453 0.0
O77 O 0.42417 0.47524 0.10127 0.0
C78 C 0.08435 0.29551 0.4704 0.0
C79 C 0.14788 0.28858 0.44949 0.0
C80 C 0.14379 0.18623 0.47271 0.0
C81 C 0.0828 0.19369 0.50032 0.0
N82 N 0.98665 0.24988 0.50603 0.0
N83 N 0.22536 0.22562 0.39908 0.0
C84 C 0.04988 0.24665 0.49169 0.0
C85 C 0.17297 0.23328 0.43912 0.0
N86 N 0.05901 0.34908 0.47353 0.0
N87 N 0.17688 0.13571 0.48564 0.0
H88 H 0.24791 0.25879 0.37267 0.0
H89 H 0.24147 0.1856 0.38341 0.0
H90 H 0.1572 0.09951 0.50919 0.0
H91 H 0.22556 0.13052 0.47768 0.0
H92 H 0.01609 0.35831 0.49652 0.0
H93 H 0.08248 0.38487 0.45414 0.0
H94 H 0.95788 0.28637 0.49625 0.0
H95 H 0.96138 0.21404 0.52192 0.0
C96 C 0.42459 0.79741 0.1096 0.0
C97 C 0.36116 0.79498 0.13191 0.0
C98 C 0.35714 0.69198 0.11244 0.0
C99 C 0.41734 0.6952 0.08214 0.0
N100 N 0.51743 0.74494 0.07274 0.0
N101 N 0.28126 0.73811 0.18841 0.0
C102 C 0.45457 0.74606 0.08881 0.0
C103 C 0.33245 0.74156 0.14546 0.0
N104 N 0.45392 0.84917 0.10438 0.0
N105 N 0.32088 0.64293 0.10321 0.0
H106 H 0.26338 0.7731 0.21635 0.0
H107 H 0.26214 0.69962 0.20542 0.0
H108 H 0.33765 0.60537 0.07975 0.0
H109 H 0.2726 0.64037 0.11393 0.0
H110 H 0.49706 0.85518 0.08031 0.0
H111 H 0.43357 0.88673 0.12327 0.0
H112 H 0.54912 0.77969 0.0809 0.0
H113 H 0.53938 0.70725 0.05708 0.0
C114 C 0.9277 0.7111 0.58113 0.0
C115 C 0.87071 0.7223 0.61668 0.0
C116 C 0.91248 0.81794 0.65158 0.0
C117 C 0.9522 0.81275 0.59038 0.0
N118 N 0.01375 0.75192 0.51413 0.0
N119 N 0.80956 0.78931 0.6887 0.0
C120 C 0.96621 0.7579 0.5623 0.0
C121 C 0.86406 0.77594 0.65538 0.0
N122 N 0.94351 0.65631 0.56428 0.0
N123 N 0.92035 0.86291 0.70449 0.0
H124 H 0.77028 0.76178 0.68903 0.0
H125 H 0.80113 0.83014 0.70983 0.0
H126 H 0.95795 0.89258 0.70391 0.0
H127 H 0.89553 0.86585 0.75476 0.0
H128 H 0.9864 0.64509 0.5425 0.0
H129 H 0.91605 0.62161 0.57937 0.0
H130 H 0.02206 0.71443 0.48352 0.0
H131 H 0.04412 0.78599 0.50429 0.0
C132 C 0.68706 0.27727 0.94526 0.0
C133 C 0.65561 0.22493 0.95848 0.0
C134 C 0.55713 0.27657 0.98109 0.0
C135 C 0.59408 0.32747 0.98644 0.0
N136 N 0.69113 0.3794 0.96846 0.0
N137 N 0.55815 0.17295 0.97488 0.0
C138 C 0.65736 0.32901 0.96408 0.0
C139 C 0.58908 0.22409 0.97029 0.0
N140 N 0.74595 0.27755 0.9174 0.0
N141 N 0.49241 0.27902 0.98924 0.0
H142 H 0.58006 0.13431 0.96329 0.0
H143 H 0.51171 0.16837 0.9909 0.0
H144 H 0.46923 0.3177 0.99736 0.0
H145 H 0.46083 0.2442 0.98243 0.0
H146 H 0.76786 0.31423 0.89882 0.0
H147 H 0.77077 0.24074 0.9057 0.0
H148 H 0.74066 0.38283 0.964 0.0
H149 H 0.66991 0.41819 0.98063 0.0
C150 C 0.20347 0.98215 0.26182 0.0
C151 C 0.20267 0.9263 0.22866 0.0
C152 C 0.13069 0.89438 0.32319 0.0
C153 C 0.12359 0.95147 0.34785 0.0
N154 N 0.14551 0.0515 0.33276 0.0
N155 N 0.15133 0.8334 0.21257 0.0
C156 C 0.1584 -0.00394 0.31578 0.0
C157 C 0.16263 0.88334 0.25535 0.0
N158 N 0.24693 0.02157 0.24167 0.0
N159 N 0.1066 0.85072 0.36452 0.0
H160 H 0.17001 0.82504 0.15853 0.0
H161 H 0.11751 0.80307 0.22549 0.0
H162 H 0.08373 0.85751 0.41585 0.0
H163 H 0.11557 0.80794 0.3532 0.0
H164 H 0.25381 0.06136 0.26984 0.0
H165 H 0.27975 0.01263 0.20123 0.0
H166 H 0.1646 0.08605 0.30463 0.0
H167 H 0.11149 0.06284 0.37045 0.0
C168 C 0.69939 0.55301 0.75355 0.0
C169 C 0.69747 0.60926 0.72196 0.0
C170 C 0.62662 0.63906 0.81942 0.0
C171 C 0.62028 0.58141 0.84181 0.0
N172 N 0.64446 0.48191 0.82494 0.0
N173 N 0.65 0.70366 0.71395 0.0
C174 C 0.65563 0.5378 0.80836 0.0
C175 C 0.65902 0.65197 0.75235 0.0
N176 N 0.74285 0.51443 0.7311 0.0
N177 N 0.60162 0.68138 0.86245 0.0
H178 H 0.67013 0.71394 0.66164 0.0
H179 H 0.61711 0.73415 0.72873 0.0
H180 H 0.57798 0.67312 0.91275 0.0
H181 H 0.61019 0.72453 0.85362 0.0
H182 H 0.75082 0.4744 0.75811 0.0
H183 H 0.7749 0.52429 0.6901 0.0
H184 H 0.66356 0.448 0.79545 0.0
H185 H 0.612 0.46932 0.86401 0.0
C186 C 0.74697 0.05725 0.20616 0.0
C187 C 0.78247 0.09772 0.16678 0.0
C188 C 0.86003 0.11049 0.29481 0.0
C189 C 0.83167 0.06264 0.32845 0.0
N190 N 0.72988 0.01431 0.33497 0.0
N191 N 0.87132 0.16519 0.17288 0.0
C192 C 0.76936 0.04301 0.28974 0.0
C193 C 0.83821 0.12555 0.21124 0.0
N194 N 0.69342 0.03076 0.16275 0.0
N195 N 0.90354 0.14415 0.34448 0.0
H196 H 0.85501 0.17935 0.11317 0.0
H197 H 0.91683 0.18166 0.19834 0.0
H198 H 0.91256 0.13901 0.40812 0.0
H199 H 0.92302 0.18182 0.32527 0.0
H200 H 0.67025 -0.00401 0.185 0.0
H201 H 0.67459 0.04112 0.10201 0.0
H202 H 0.68182 0.00246 0.31245 0.0
H203 H 0.74235 0.00932 0.39848 0.0
C204 C 0.28764 0.47564 0.65721 0.0
C205 C 0.29365 0.41694 0.64019 0.0
C206 C 0.35002 0.40191 0.78143 0.0
C207 C 0.3511 0.46175 0.7943 0.0
N208 N 0.33827 0.55592 0.73312 0.0
N209 N 0.34072 0.32518 0.68148 0.0
C210 C 0.32457 0.49884 0.72919 0.0
C211 C 0.32754 0.38011 0.70109 0.0
N212 N 0.24604 0.50933 0.60511 0.0
N213 N 0.36882 0.36593 0.84601 0.0
H214 H 0.32618 0.30795 0.62306 0.0
H215 H 0.37103 0.29831 0.72098 0.0
H216 H 0.38473 0.38048 0.90569 0.0
H217 H 0.3631 0.32185 0.84182 0.0
H218 H 0.23549 0.55133 0.61914 0.0
H219 H 0.21687 0.49365 0.55229 0.0
H220 H 0.32477 0.58342 0.68367 0.0
H221 H 0.37013 0.57468 0.78108 0.0
C222 C 0.71597 0.54871 0.40564 0.0
C223 C 0.71015 0.60742 0.42284 0.0
C224 C 0.65447 0.62303 0.28146 0.0
C225 C 0.65356 0.56322 0.26813 0.0
N226 N 0.66626 0.46871 0.32812 0.0
N227 N 0.66506 0.69976 0.38169 0.0
C228 C 0.67968 0.52583 0.33303 0.0
C229 C 0.67705 0.6446 0.36194 0.0
N230 N 0.75695 0.51474 0.45812 0.0
N231 N 0.63545 0.65916 0.21711 0.0
H232 H 0.68046 0.71685 0.44002 0.0
H233 H 0.63527 0.72711 0.3424 0.0
H234 H 0.61922 0.64474 0.15744 0.0
H235 H 0.641 0.70324 0.22141 0.0
H236 H 0.76759 0.47279 0.444 0.0
H237 H 0.78559 0.53011 0.51154 0.0
H238 H 0.67922 0.44094 0.37736 0.0
H239 H 0.63523 0.45007 0.2793 0.0
C240 C 0.86041 0.12655 0.85828 0.0
C241 C 0.81083 0.08759 0.87192 0.0
C242 C 0.83831 0.02592 0.762 0.0
C243 C 0.88626 0.06645 0.74688 0.0
N244 N 0.92454 0.16372 0.76002 0.0
N245 N 0.74407 0.00551 0.82927 0.0
C246 C 0.89163 0.11937 0.78882 0.0
C247 C 0.79697 0.03884 0.82124 0.0
N248 N 0.87896 0.16979 0.91274 0.0
N249 N 0.83363 0.97467 0.72221 0.0
H250 H 0.7145 0.013 0.87402 0.0
H251 H 0.72691 0.9729 0.7886 0.0
H252 H 0.86099 0.96452 0.67633 0.0
H253 H 0.80481 0.94107 0.73719 0.0
H254 H 0.91965 0.19555 0.90985 0.0
H255 H 0.85764 0.17669 0.96517 0.0
H256 H 0.92476 0.20487 0.78397 0.0
H257 H 0.94479 0.1611 0.70594 0.0
C258 C 0.30526 0.46885 0.3077 0.0
C259 C 0.30916 0.41338 0.34206 0.0
C260 C 0.38336 0.38394 0.24844 0.0
C261 C 0.38711 0.44118 0.22276 0.0
N262 N 0.35909 0.54025 0.23562 0.0
N263 N 0.36288 0.32161 0.3579 0.0
C264 C 0.34951 0.48434 0.25363 0.0
C265 C 0.35086 0.3716 0.31561 0.0
N266 N 0.25952 0.5065 0.32684 0.0
N267 N 0.41083 0.34139 0.20844 0.0
H268 H 0.34315 0.3122 0.41082 0.0
H269 H 0.39792 0.29221 0.34577 0.0
H270 H 0.43446 0.34906 0.15796 0.0
H271 H 0.40425 0.29827 0.21994 0.0
H272 H 0.25028 0.54568 0.29762 0.0
H273 H 0.22706 0.49647 0.36727 0.0
H274 H 0.33817 0.57399 0.26338 0.0
H275 H 0.39231 0.55313 0.19772 0.0
C276 C 0.18842 0.88455 0.87291 0.0
C277 C 0.22271 0.92254 0.93206 0.0
C278 C 0.19056 0.00259 0.84039 0.0
C279 C 0.16354 0.96432 0.77674 0.0
N280 N 0.14681 0.86737 0.72875 0.0
N281 N 0.27125 0.01528 0.96195 0.0
C282 C 0.16551 0.90471 0.79181 0.0
C283 C 0.22885 0.9807 0.9122 0.0
N284 N 0.1749 0.83022 0.89492 0.0
N285 N 0.17551 0.05938 0.83607 0.0
H286 H 0.3013 0.00047 0.01462 0.0
H287 H 0.28147 0.05693 0.94584 0.0
H288 H 0.14147 0.07716 0.78965 0.0
H289 H 0.18991 0.08749 0.88465 0.0
H290 H 0.14427 0.80278 0.85663 0.0
H291 H 0.18935 0.81422 0.95402 0.0
H292 H 0.15305 0.82342 0.73479 0.0
H293 H 0.13077 0.88058 0.66848 0.0
loop_
_geom_bond_atom_site_label_1
_geom_bond_atom_site_label_2
_geom_bond_distance
_geom_bond_site_symmetry_2
_ccdc_geom_bond_type
H0 C3 0.931 . S
H1 C6 0.928 . S
H2 C8 0.930 1_556 S
C3 H0 0.931 . S
C3 C4 1.413 . S
C3 C5 1.360 . S
C4 C3 1.413 . S
C4 C8 1.429 . S
C5 C3 1.360 . S
C5 C6 1.372 . S
C6 H1 0.928 . S
C6 C5 1.372 . S
C6 C7 1.404 . S
C7 C6 1.404 . S
C7 C8 1.391 . S
C8 H2 0.930 1_554 S
C8 C4 1.429 . S
C8 C7 1.391 . S
H9 C12 0.931 . S
H10 C15 0.928 . S
H11 C17 0.930 . S
C12 H9 0.931 . S
C12 C13 1.413 . S
C12 C14 1.360 . S
C13 C12 1.413 . S
C13 C17 1.429 . S
C14 C12 1.360 . S
C14 C15 1.372 . S
C15 H10 0.928 . S
C15 C14 1.372 . S
C15 C16 1.404 . S
C16 C15 1.404 . S
C16 C17 1.391 . S
C17 H11 0.930 . S
C17 C13 1.429 . S
C17 C16 1.391 . S
H18 C21 0.931 . S
H19 C24 0.928 . S
H20 C26 0.930 . S
C21 H18 0.931 . S
C21 C22 1.413 1_554 S
C21 C23 1.360 . S
C22 C21 1.413 1_556 S
C22 C26 1.429 . S
C23 C21 1.360 . S
C23 C24 1.372 . S
C24 H19 0.928 . S
C24 C23 1.372 . S
C24 C25 1.404 1_554 S
C25 C24 1.404 1_556 S
C25 C26 1.391 . S
C26 H20 0.930 . S
C26 C22 1.429 . S
C26 C25 1.391 . S
H27 C30 0.931 . S
H28 C33 0.928 . S
H29 C35 0.930 . S
C30 H27 0.931 . S
C30 C31 1.413 . S
C30 C32 1.360 . S
C31 C30 1.413 . S
C31 C35 1.429 . S
C32 C30 1.360 . S
C32 C33 1.372 . S
C33 H28 0.928 . S
C33 C32 1.372 . S
C33 C34 1.404 . S
C34 C33 1.404 . S
C34 C35 1.391 . S
C35 H29 0.930 . S
C35 C31 1.429 . S
C35 C34 1.391 . S
O36 Mg37 1.990 1_655 S
O36 C50 1.253 . S
Mg37 O36 1.990 1_455 S
Mg37 O40 2.180 . S
Mg37 O41 2.117 . S
Mg37 O55 2.030 . S
O38 Mg39 2.072 1_655 S
O38 C50 1.260 . S
Mg39 O38 2.072 1_455 S
Mg39 O40 2.099 . S
Mg39 O42 2.079 1_545 S
Mg39 O43 2.072 1_455 S
Mg39 O45 2.099 1_445 S
Mg39 O56 2.079 1_545 S
O40 Mg37 2.180 . S
O40 Mg39 2.099 . S
O40 C51 1.279 . S
O41 Mg37 2.117 . S
O41 C51 1.250 . S
O42 Mg39 2.079 1_565 S
O42 C52 1.264 . S
O43 Mg39 2.072 1_655 S
O43 C53 1.260 . S
Mg44 O45 2.180 . S
Mg44 O46 2.030 1_655 S
Mg44 O47 1.990 . S
Mg44 O48 2.117 . S
O45 Mg39 2.099 1_665 S
O45 Mg44 2.180 . S
O45 C54 1.279 . S
O46 Mg44 2.030 1_455 S
O46 C52 1.248 . S
O47 Mg44 1.990 . S
O47 C53 1.253 1_565 S
O48 Mg44 2.117 . S
O48 C54 1.250 . S
C49 O55 1.248 1_565 S
C49 O56 1.264 . S
C50 O36 1.253 . S
C50 O38 1.260 . S
C51 O40 1.279 . S
C51 O41 1.250 . S
C52 O42 1.264 . S
C52 O46 1.248 . S
C53 O43 1.260 . S
C53 O47 1.253 1_545 S
C54 O45 1.279 . S
C54 O48 1.250 . S
O55 Mg37 2.030 . S
O55 C49 1.248 1_545 S
O56 Mg39 2.079 1_565 S
O56 C49 1.264 . S
O57 Mg58 1.990 . S
O57 C71 1.253 . S
Mg58 O57 1.990 . S
Mg58 O61 2.180 . S
Mg58 O62 2.117 . S
Mg58 O76 2.030 . S
O59 Mg60 2.072 . S
O59 C71 1.260 . S
Mg60 O59 2.072 . S
Mg60 O61 2.099 . S
Mg60 O63 2.079 1_554 S
Mg60 O64 2.072 1_554 S
Mg60 O66 2.099 . S
Mg60 O77 2.079 . S
O61 Mg58 2.180 . S
O61 Mg60 2.099 . S
O61 C72 1.279 . S
O62 Mg58 2.117 . S
O62 C72 1.250 . S
O63 Mg60 2.079 1_556 S
O63 C73 1.264 . S
O64 Mg60 2.072 1_556 S
O64 C74 1.260 . S
Mg65 O66 2.180 1_556 S
Mg65 O67 2.030 . S
Mg65 O68 1.990 . S
Mg65 O69 2.117 . S
O66 Mg60 2.099 . S
O66 Mg65 2.180 1_554 S
O66 C75 1.279 . S
O67 Mg65 2.030 . S
O67 C73 1.248 . S
O68 Mg65 1.990 . S
O68 C74 1.253 . S
O69 Mg65 2.117 . S
O69 C75 1.250 1_556 S
C70 O76 1.248 . S
C70 O77 1.264 . S
C71 O57 1.253 . S
C71 O59 1.260 . S
C72 O61 1.279 . S
C72 O62 1.250 . S
C73 O63 1.264 . S
C73 O67 1.248 . S
C74 O64 1.260 . S
C74 O68 1.253 . S
C75 O66 1.279 . S
C75 O69 1.250 1_554 S
O76 Mg58 2.030 . S
O76 C70 1.248 . S
O77 Mg60 2.079 . S
O77 C70 1.264 . S
C78 C79 1.363 . S
C78 C84 1.379 . S
C78 N86 1.356 . S
C79 C78 1.363 . S
C79 C85 1.363 . S
C80 C81 1.363 . S
C80 C85 1.379 . S
C80 N87 1.356 . S
C81 C80 1.363 . S
C81 C84 1.363 . S
N82 C84 1.356 . S
N82 H94 0.990 . S
N82 H95 0.985 . S
N83 C85 1.356 . S
N83 H88 0.984 . S
N83 H89 0.985 . S
C84 C78 1.379 . S
C84 C81 1.363 . S
C84 N82 1.356 . S
C85 C79 1.363 . S
C85 C80 1.379 . S
C85 N83 1.356 . S
N86 C78 1.356 . S
N86 H92 0.984 . S
N86 H93 0.984 . S
N87 C80 1.356 . S
N87 H90 0.984 . S
N87 H91 0.985 . S
H88 N83 0.984 . S
H89 N83 0.985 . S
H90 N87 0.984 . S
H91 N87 0.985 . S
H92 N86 0.984 . S
H93 N86 0.984 . S
H94 N82 0.990 . S
H95 N82 0.985 . S
C96 C97 1.363 . S
C96 C102 1.379 . S
C96 N104 1.356 . S
C97 C96 1.363 . S
C97 C103 1.363 . S
C98 C99 1.363 . S
C98 C103 1.379 . S
C98 N105 1.356 1_554 S
C99 C98 1.363 . S
C99 C102 1.363 . S
N100 C102 1.356 . S
N100 H112 0.984 . S
N100 H113 0.985 . S
N101 C103 1.356 1_556 S
N101 H106 0.984 . S
N101 H107 0.985 . S
C102 C96 1.379 . S
C102 C99 1.363 . S
C102 N100 1.356 . S
C103 C97 1.363 . S
C103 C98 1.379 . S
C103 N101 1.356 1_554 S
N104 C96 1.356 . S
N104 H110 0.984 . S
N104 H111 0.984 . S
N105 C98 1.356 1_556 S
N105 H108 0.984 . S
N105 H109 0.985 . S
H106 N101 0.984 . S
H107 N101 0.985 . S
H108 N105 0.984 . S
H109 N105 0.985 . S
H110 N104 0.984 . S
H111 N104 0.984 . S
H112 N100 0.984 . S
H113 N100 0.985 . S
C114 C115 1.363 . S
C114 C120 1.379 . S
C114 N122 1.356 . S
C115 C114 1.363 . S
C115 C121 1.363 . S
C116 C117 1.363 . S
C116 C121 1.379 . S
C116 N123 1.356 . S
C117 C116 1.363 . S
C117 C120 1.363 . S
N118 C120 1.356 . S
N118 H130 0.984 . S
N118 H131 0.985 . S
N119 C121 1.356 . S
N119 H124 0.984 . S
N119 H125 0.985 . S
C120 C114 1.379 . S
C120 C117 1.363 . S
C120 N118 1.356 . S
C121 C115 1.363 . S
C121 C116 1.379 . S
C121 N119 1.356 . S
N122 C114 1.356 . S
N122 H128 0.984 . S
N122 H129 0.984 . S
N123 C116 1.356 . S
N123 H126 0.984 . S
N123 H127 0.985 . S
H124 N119 0.984 . S
H125 N119 0.985 . S
H126 N123 0.984 . S
H127 N123 0.985 . S
H128 N122 0.984 . S
H129 N122 0.984 . S
H130 N118 0.984 . S
H131 N118 0.985 . S
C132 C133 1.363 . S
C132 C138 1.379 . S
C132 N140 1.356 . S
C133 C132 1.363 . S
C133 C139 1.363 1_556 S
C134 C135 1.363 . S
C134 C139 1.379 . S
C134 N141 1.356 . S
C135 C134 1.363 . S
C135 C138 1.363 1_554 S
N136 C138 1.356 . S
N136 H148 0.984 . S
N136 H149 0.985 . S
N137 C139 1.356 . S
N137 H142 0.984 . S
N137 H143 0.985 . S
C138 C132 1.379 . S
C138 C135 1.363 1_556 S
C138 N136 1.356 . S
C139 C133 1.363 1_554 S
C139 C134 1.379 . S
C139 N137 1.356 . S
N140 C132 1.356 . S
N140 H146 0.984 . S
N140 H147 0.984 . S
N141 C134 1.356 . S
N141 H144 0.984 . S
N141 H145 0.985 . S
H142 N137 0.984 . S
H143 N137 0.985 . S
H144 N141 0.984 . S
H145 N141 0.985 . S
H146 N140 0.984 . S
H147 N140 0.984 . S
H148 N136 0.984 . S
H149 N136 0.985 . S
C150 C151 1.363 . S
C150 C156 1.379 . S
C150 N158 1.356 . S
C151 C150 1.363 . S
C151 C157 1.363 . S
C152 C153 1.363 . S
C152 C157 1.379 . S
C152 N159 1.356 . S
C153 C152 1.363 . S
C153 C156 1.363 . S
N154 C156 1.356 1_545 S
N154 H166 0.984 . S
N154 H167 0.985 . S
N155 C157 1.356 . S
N155 H160 0.984 . S
N155 H161 0.985 . S
C156 C150 1.379 . S
C156 C153 1.363 . S
C156 N154 1.356 1_565 S
C157 C151 1.363 . S
C157 C152 1.379 . S
C157 N155 1.356 . S
N158 C150 1.356 . S
N158 H164 0.984 . S
N158 H165 0.984 . S
N159 C152 1.356 . S
N159 H162 0.984 . S
N159 H163 0.985 . S
H160 N155 0.984 . S
H161 N155 0.985 . S
H162 N159 0.984 . S
H163 N159 0.985 . S
H164 N158 0.984 . S
H165 N158 0.984 . S
H166 N154 0.984 . S
H167 N154 0.985 . S
C168 C169 1.363 . S
C168 C174 1.379 . S
C168 N176 1.356 . S
C169 C168 1.363 . S
C169 C175 1.363 . S
C170 C171 1.363 . S
C170 C175 1.379 . S
C170 N177 1.356 . S
C171 C170 1.363 . S
C171 C174 1.363 . S
N172 C174 1.356 . S
N172 H184 0.984 . S
N172 H185 0.985 . S
N173 C175 1.356 . S
N173 H178 0.984 . S
N173 H179 0.985 . S
C174 C168 1.379 . S
C174 C171 1.363 . S
C174 N172 1.356 . S
C175 C169 1.363 . S
C175 C170 1.379 . S
C175 N173 1.356 . S
N176 C168 1.356 . S
N176 H182 0.984 . S
N176 H183 0.984 . S
N177 C170 1.356 . S
N177 H180 0.984 . S
N177 H181 0.985 . S
H178 N173 0.984 . S
H179 N173 0.985 . S
H180 N177 0.984 . S
H181 N177 0.985 . S
H182 N176 0.984 . S
H183 N176 0.984 . S
H184 N172 0.984 . S
H185 N172 0.985 . S
C186 C187 1.363 . S
C186 C192 1.379 . S
C186 N194 1.356 . S
C187 C186 1.363 . S
C187 C193 1.363 . S
C188 C189 1.363 . S
C188 C193 1.379 . S
C188 N195 1.356 . S
C189 C188 1.363 . S
C189 C192 1.363 . S
N190 C192 1.356 1_565 S
N190 H202 0.984 . S
N190 H203 0.985 . S
N191 C193 1.356 . S
N191 H196 0.984 . S
N191 H197 0.985 . S
C192 C186 1.379 . S
C192 C189 1.363 . S
C192 N190 1.356 1_545 S
C193 C187 1.363 . S
C193 C188 1.379 . S
C193 N191 1.356 . S
N194 C186 1.356 . S
N194 H200 0.984 1_545 S
N194 H201 0.984 . S
N195 C188 1.356 . S
N195 H198 0.984 . S
N195 H199 0.985 . S
H196 N191 0.984 . S
H197 N191 0.985 . S
H198 N195 0.984 . S
H199 N195 0.985 . S
H200 N194 0.984 1_565 S
H201 N194 0.984 . S
H202 N190 0.984 . S
H203 N190 0.985 . S
C204 C205 1.363 . S
C204 C210 1.379 . S
C204 N212 1.356 . S
C205 C204 1.363 . S
C205 C211 1.363 . S
C206 C207 1.363 . S
C206 C211 1.379 . S
C206 N213 1.356 . S
C207 C206 1.363 . S
C207 C210 1.363 . S
N208 C210 1.356 . S
N208 H220 0.984 . S
N208 H221 0.985 . S
N209 C211 1.356 . S
N209 H214 0.984 . S
N209 H215 0.985 . S
C210 C204 1.379 . S
C210 C207 1.363 . S
C210 N208 1.356 . S
C211 C205 1.363 . S
C211 C206 1.379 . S
C211 N209 1.356 . S
N212 C204 1.356 . S
N212 H218 0.984 . S
N212 H219 0.984 . S
N213 C206 1.356 . S
N213 H216 0.984 . S
N213 H217 0.985 . S
H214 N209 0.984 . S
H215 N209 0.985 . S
H216 N213 0.984 . S
H217 N213 0.985 . S
H218 N212 0.984 . S
H219 N212 0.984 . S
H220 N208 0.984 . S
H221 N208 0.985 . S
C222 C223 1.363 . S
C222 C228 1.379 . S
C222 N230 1.356 . S
C223 C222 1.363 . S
C223 C229 1.363 . S
C224 C225 1.363 . S
C224 C229 1.379 . S
C224 N231 1.356 . S
C225 C224 1.363 . S
C225 C228 1.363 . S
N226 C228 1.356 . S
N226 H238 0.984 . S
N226 H239 0.985 . S
N227 C229 1.356 . S
N227 H232 0.984 . S
N227 H233 0.985 . S
C228 C222 1.379 . S
C228 C225 1.363 . S
C228 N226 1.356 . S
C229 C223 1.363 . S
C229 C224 1.379 . S
C229 N227 1.356 . S
N230 C222 1.356 . S
N230 H236 0.984 . S
N230 H237 0.984 . S
N231 C224 1.356 . S
N231 H234 0.984 . S
N231 H235 0.985 . S
H232 N227 0.984 . S
H233 N227 0.985 . S
H234 N231 0.984 . S
H235 N231 0.985 . S
H236 N230 0.984 . S
H237 N230 0.984 . S
H238 N226 0.984 . S
H239 N226 0.985 . S
C240 C241 1.363 . S
C240 C246 1.379 . S
C240 N248 1.356 . S
C241 C240 1.363 . S
C241 C247 1.363 . S
C242 C243 1.363 . S
C242 C247 1.379 . S
C242 N249 1.356 1_545 S
C243 C242 1.363 . S
C243 C246 1.363 . S
N244 C246 1.356 . S
N244 H256 0.984 . S
N244 H257 0.985 . S
N245 C247 1.356 . S
N245 H250 0.984 . S
N245 H251 0.985 . S
C246 C240 1.379 . S
C246 C243 1.363 . S
C246 N244 1.356 . S
C247 C241 1.363 . S
C247 C242 1.379 . S
C247 N245 1.356 . S
N248 C240 1.356 . S
N248 H254 0.984 . S
N248 H255 0.984 . S
N249 C242 1.356 1_565 S
N249 H252 0.984 . S
N249 H253 0.985 . S
H250 N245 0.984 . S
H251 N245 0.985 . S
H252 N249 0.984 . S
H253 N249 0.985 . S
H254 N248 0.984 . S
H255 N248 0.984 . S
H256 N244 0.984 . S
H257 N244 0.985 . S
C258 C259 1.363 . S
C258 C264 1.379 . S
C258 N266 1.356 . S
C259 C258 1.363 . S
C259 C265 1.363 . S
C260 C261 1.363 . S
C260 C265 1.379 . S
C260 N267 1.356 . S
C261 C260 1.363 . S
C261 C264 1.363 . S
N262 C264 1.356 . S
N262 H274 0.984 . S
N262 H275 0.985 . S
N263 C265 1.356 . S
N263 H268 0.984 . S
N263 H269 0.985 . S
C264 C258 1.379 . S
C264 C261 1.363 . S
C264 N262 1.356 . S
C265 C259 1.363 . S
C265 C260 1.379 . S
C265 N263 1.356 . S
N266 C258 1.356 . S
N266 H272 0.984 . S
N266 H273 0.984 . S
N267 C260 1.356 . S
N267 H270 0.984 . S
N267 H271 0.985 . S
H268 N263 0.984 . S
H269 N263 0.985 . S
H270 N267 0.984 . S
H271 N267 0.985 . S
H272 N266 0.984 . S
H273 N266 0.984 . S
H274 N262 0.984 . S
H275 N262 0.985 . S
C276 C277 1.363 . S
C276 C282 1.379 . S
C276 N284 1.356 . S
C277 C276 1.363 . S
C277 C283 1.363 . S
C278 C279 1.363 . S
C278 C283 1.379 . S
C278 N285 1.356 1_565 S
C279 C278 1.363 . S
C279 C282 1.363 . S
N280 C282 1.356 . S
N280 H292 0.984 . S
N280 H293 0.985 . S
N281 C283 1.348 1_554 S
N281 H286 0.990 . S
N281 H287 0.987 1_565 S
C282 C276 1.379 . S
C282 C279 1.363 . S
C282 N280 1.356 . S
C283 C277 1.363 . S
C283 C278 1.379 . S
C283 N281 1.348 1_556 S
N284 C276 1.356 . S
N284 H290 0.984 . S
N284 H291 0.984 . S
N285 C278 1.356 1_545 S
N285 H288 0.984 . S
N285 H289 0.985 . S
H286 N281 0.990 . S
H287 N281 0.987 1_545 S
H288 N285 0.984 . S
H289 N285 0.985 . S
H290 N284 0.984 . S
H291 N284 0.984 . S
H292 N280 0.984 . S
H293 N280 0.985 . S
C81 C51 1.283 . S
C79 C34 1.463 . S
C97 C7 1.470 . S
C99 C75 1.284 . S
C115 C16 1.569 . S
C117 C54 1.363 . S
C133 C25 1.569 . S
C135 C72 1.363 . S
C153 C52 1.485 . S
C151 C5 1.502 . S
C171 C74 1.497 . S
C169 C13 1.551 . S
C187 C23 1.545 . S
C189 C53 1.475 . S
C205 C32 1.497 . S
C207 C73 1.437 . S
C225 C71 1.474 . S
C223 C14 1.544 . S
C243 C50 1.496 . S
C241 C22 1.549 . S
C261 C70 1.483 . S
C259 C31 1.496 . S
C277 C4 1.501 1_556 S
C279 C49 1.436 . S
