# Generated by pormake.
# Topology ptr, (4,4)-cn, num edge types: 1
# Building blocks:
#     Node 0, Type 0, BuildingBlock: KUFVIS_clean_sbu_0, # of connection points: 4
#     Node 1, Type 0, BuildingBlock: KUFVIS_clean_sbu_0, # of connection points: 4
#     Node 2, Type 0, BuildingBlock: KUFVIS_clean_sbu_0, # of connection points: 4
#     Node 3, Type 0, BuildingBlock: KUFVIS_clean_sbu_0, # of connection points: 4
#     Node 4, Type 0, BuildingBlock: KUFVIS_clean_sbu_0, # of connection points: 4
#     Node 5, Type 0, BuildingBlock: KUFVIS_clean_sbu_0, # of connection points: 4
#     Node 6, Type 0, BuildingBlock: KUFVIS_clean_sbu_0, # of connection points: 4
#     Node 7, Type 0, BuildingBlock: KUFVIS_clean_sbu_0, # of connection points: 4
#     Node 8, Type 0, BuildingBlock: KUFVIS_clean_sbu_0, # of connection points: 4
#     Node 9, Type 0, BuildingBlock: KUFVIS_clean_sbu_0, # of connection points: 4
#     Node 10, Type 0, BuildingBlock: KUFVIS_clean_sbu_0, # of connection points: 4
#     Node 11, Type 0, BuildingBlock: KUFVIS_clean_sbu_0, # of connection points: 4
#     Node 12, Type 0, BuildingBlock: KUFVIS_clean_sbu_0, # of connection points: 4
#     Node 13, Type 0, BuildingBlock: KUFVIS_clean_sbu_0, # of connection points: 4
#     Node 14, Type 0, BuildingBlock: KUFVIS_clean_sbu_0, # of connection points: 4
#     Node 15, Type 0, BuildingBlock: KUFVIS_clean_sbu_0, # of connection points: 4
#     Node 16, Type 0, BuildingBlock: KUFVIS_clean_sbu_0, # of connection points: 4
#     Node 17, Type 0, BuildingBlock: KUFVIS_clean_sbu_0, # of connection points: 4
#     Node 18, Type 1, BuildingBlock: KUFVIS_clean_linker_0, # of connection points: 4
#     Node 19, Type 1, BuildingBlock: KUFVIS_clean_linker_0, # of connection points: 4
#     Node 20, Type 1, BuildingBlock: KUFVIS_clean_linker_0, # of connection points: 4
#     Node 21, Type 1, BuildingBlock: KUFVIS_clean_linker_0, # of connection points: 4
#     Node 22, Type 1, BuildingBlock: KUFVIS_clean_linker_0, # of connection points: 4
#     Node 23, Type 1, BuildingBlock: KUFVIS_clean_linker_0, # of connection points: 4
#     Node 24, Type 1, BuildingBlock: KUFVIS_clean_linker_0, # of connection points: 4
#     Node 25, Type 1, BuildingBlock: KUFVIS_clean_linker_0, # of connection points: 4
#     Node 26, Type 1, BuildingBlock: KUFVIS_clean_linker_0, # of connection points: 4
#     Node 27, Type 1, BuildingBlock: KUFVIS_clean_linker_0, # of connection points: 4
#     Node 28, Type 1, BuildingBlock: KUFVIS_clean_linker_0, # of connection points: 4
#     Node 29, Type 1, BuildingBlock: KUFVIS_clean_linker_0, # of connection points: 4
#     Node 30, Type 1, BuildingBlock: KUFVIS_clean_linker_0, # of connection points: 4
#     Node 31, Type 1, BuildingBlock: KUFVIS_clean_linker_0, # of connection points: 4
#     Node 32, Type 1, BuildingBlock: KUFVIS_clean_linker_0, # of connection points: 4
#     Node 33, Type 1, BuildingBlock: KUFVIS_clean_linker_0, # of connection points: 4
#     Node 34, Type 1, BuildingBlock: KUFVIS_clean_linker_0, # of connection points: 4
#     Node 35, Type 1, BuildingBlock: KUFVIS_clean_linker_0, # of connection points: 4
#     Edge 36, Type (0, 1), BuildingBlock: TEMPAE_clean_linker_10, # of connection points: 2
#     Edge 37, Type (0, 1), BuildingBlock: TEMPAE_clean_linker_10, # of connection points: 2
#     Edge 38, Type (0, 1), BuildingBlock: TEMPAE_clean_linker_10, # of connection points: 2
#     Edge 39, Type (0, 1), BuildingBlock: TEMPAE_clean_linker_10, # of connection points: 2
#     Edge 40, Type (0, 1), BuildingBlock: TEMPAE_clean_linker_10, # of connection points: 2
#     Edge 41, Type (0, 1), BuildingBlock: TEMPAE_clean_linker_10, # of connection points: 2
#     Edge 42, Type (0, 1), BuildingBlock: TEMPAE_clean_linker_10, # of connection points: 2
#     Edge 43, Type (0, 1), BuildingBlock: TEMPAE_clean_linker_10, # of connection points: 2
#     Edge 44, Type (0, 1), BuildingBlock: TEMPAE_clean_linker_10, # of connection points: 2
#     Edge 45, Type (0, 1), BuildingBlock: TEMPAE_clean_linker_10, # of connection points: 2
#     Edge 46, Type (0, 1), BuildingBlock: TEMPAE_clean_linker_10, # of connection points: 2
#     Edge 47, Type (0, 1), BuildingBlock: TEMPAE_clean_linker_10, # of connection points: 2
#     Edge 48, Type (0, 1), BuildingBlock: TEMPAE_clean_linker_10, # of connection points: 2
#     Edge 49, Type (0, 1), BuildingBlock: TEMPAE_clean_linker_10, # of connection points: 2
#     Edge 50, Type (0, 1), BuildingBlock: TEMPAE_clean_linker_10, # of connection points: 2
#     Edge 51, Type (0, 1), BuildingBlock: TEMPAE_clean_linker_10, # of connection points: 2
#     Edge 52, Type (0, 1), BuildingBlock: TEMPAE_clean_linker_10, # of connection points: 2
#     Edge 53, Type (0, 1), BuildingBlock: TEMPAE_clean_linker_10, # of connection points: 2
#     Edge 54, Type (0, 1), BuildingBlock: TEMPAE_clean_linker_10, # of connection points: 2
#     Edge 55, Type (0, 1), BuildingBlock: TEMPAE_clean_linker_10, # of connection points: 2
#     Edge 56, Type (0, 1), BuildingBlock: TEMPAE_clean_linker_10, # of connection points: 2
#     Edge 57, Type (0, 1), BuildingBlock: TEMPAE_clean_linker_10, # of connection points: 2
#     Edge 58, Type (0, 1), BuildingBlock: TEMPAE_clean_linker_10, # of connection points: 2
#     Edge 59, Type (0, 1), BuildingBlock: TEMPAE_clean_linker_10, # of connection points: 2
#     Edge 60, Type (0, 1), BuildingBlock: TEMPAE_clean_linker_10, # of connection points: 2
#     Edge 61, Type (0, 1), BuildingBlock: TEMPAE_clean_linker_10, # of connection points: 2
#     Edge 62, Type (0, 1), BuildingBlock: TEMPAE_clean_linker_10, # of connection points: 2
#     Edge 63, Type (0, 1), BuildingBlock: TEMPAE_clean_linker_10, # of connection points: 2
#     Edge 64, Type (0, 1), BuildingBlock: TEMPAE_clean_linker_10, # of connection points: 2
#     Edge 65, Type (0, 1), BuildingBlock: TEMPAE_clean_linker_10, # of connection points: 2
#     Edge 66, Type (0, 1), BuildingBlock: TEMPAE_clean_linker_10, # of connection points: 2
#     Edge 67, Type (0, 1), BuildingBlock: TEMPAE_clean_linker_10, # of connection points: 2
#     Edge 68, Type (0, 1), BuildingBlock: TEMPAE_clean_linker_10, # of connection points: 2
#     Edge 69, Type (0, 1), BuildingBlock: TEMPAE_clean_linker_10, # of connection points: 2
#     Edge 70, Type (0, 1), BuildingBlock: TEMPAE_clean_linker_10, # of connection points: 2
#     Edge 71, Type (0, 1), BuildingBlock: TEMPAE_clean_linker_10, # of connection points: 2
#     Edge 72, Type (0, 1), BuildingBlock: TEMPAE_clean_linker_10, # of connection points: 2
#     Edge 73, Type (0, 1), BuildingBlock: TEMPAE_clean_linker_10, # of connection points: 2
#     Edge 74, Type (0, 1), BuildingBlock: TEMPAE_clean_linker_10, # of connection points: 2
#     Edge 75, Type (0, 1), BuildingBlock: TEMPAE_clean_linker_10, # of connection points: 2
#     Edge 76, Type (0, 1), BuildingBlock: TEMPAE_clean_linker_10, # of connection points: 2
#     Edge 77, Type (0, 1), BuildingBlock: TEMPAE_clean_linker_10, # of connection points: 2
#     Edge 78, Type (0, 1), BuildingBlock: TEMPAE_clean_linker_10, # of connection points: 2
#     Edge 79, Type (0, 1), BuildingBlock: TEMPAE_clean_linker_10, # of connection points: 2
#     Edge 80, Type (0, 1), BuildingBlock: TEMPAE_clean_linker_10, # of connection points: 2
#     Edge 81, Type (0, 1), BuildingBlock: TEMPAE_clean_linker_10, # of connection points: 2
#     Edge 82, Type (0, 1), BuildingBlock: TEMPAE_clean_linker_10, # of connection points: 2
#     Edge 83, Type (0, 1), BuildingBlock: TEMPAE_clean_linker_10, # of connection points: 2
#     Edge 84, Type (0, 1), BuildingBlock: TEMPAE_clean_linker_10, # of connection points: 2
#     Edge 85, Type (0, 1), BuildingBlock: TEMPAE_clean_linker_10, # of connection points: 2
#     Edge 86, Type (0, 1), BuildingBlock: TEMPAE_clean_linker_10, # of connection points: 2
#     Edge 87, Type (0, 1), BuildingBlock: TEMPAE_clean_linker_10, # of connection points: 2
#     Edge 88, Type (0, 1), BuildingBlock: TEMPAE_clean_linker_10, # of connection points: 2
#     Edge 89, Type (0, 1), BuildingBlock: TEMPAE_clean_linker_10, # of connection points: 2
#     Edge 90, Type (0, 1), BuildingBlock: TEMPAE_clean_linker_10, # of connection points: 2
#     Edge 91, Type (0, 1), BuildingBlock: TEMPAE_clean_linker_10, # of connection points: 2
#     Edge 92, Type (0, 1), BuildingBlock: TEMPAE_clean_linker_10, # of connection points: 2
#     Edge 93, Type (0, 1), BuildingBlock: TEMPAE_clean_linker_10, # of connection points: 2
#     Edge 94, Type (0, 1), BuildingBlock: TEMPAE_clean_linker_10, # of connection points: 2
#     Edge 95, Type (0, 1), BuildingBlock: TEMPAE_clean_linker_10, # of connection points: 2
#     Edge 96, Type (0, 1), BuildingBlock: TEMPAE_clean_linker_10, # of connection points: 2
#     Edge 97, Type (0, 1), BuildingBlock: TEMPAE_clean_linker_10, # of connection points: 2
#     Edge 98, Type (0, 1), BuildingBlock: TEMPAE_clean_linker_10, # of connection points: 2
#     Edge 99, Type (0, 1), BuildingBlock: TEMPAE_clean_linker_10, # of connection points: 2
#     Edge 100, Type (0, 1), BuildingBlock: TEMPAE_clean_linker_10, # of connection points: 2
#     Edge 101, Type (0, 1), BuildingBlock: TEMPAE_clean_linker_10, # of connection points: 2
#     Edge 102, Type (0, 1), BuildingBlock: TEMPAE_clean_linker_10, # of connection points: 2
#     Edge 103, Type (0, 1), BuildingBlock: TEMPAE_clean_linker_10, # of connection points: 2
#     Edge 104, Type (0, 1), BuildingBlock: TEMPAE_clean_linker_10, # of connection points: 2
#     Edge 105, Type (0, 1), BuildingBlock: TEMPAE_clean_linker_10, # of connection points: 2
#     Edge 106, Type (0, 1), BuildingBlock: TEMPAE_clean_linker_10, # of connection points: 2
#     Edge 107, Type (0, 1), BuildingBlock: TEMPAE_clean_linker_10, # of connection points: 2
# Relax obj value: 0.050
# Max RMSD: 0.134
# Mean RMSD: 0.089
data_MOF--net-ptr--node1-KUFVIS_clean_sbu_0--node2-KUFVIS_clean_linker_0--edge1-TEMPAE_clean_linker_10
_symmetry_space_group_name_H-M    P1
_symmetry_Int_Tables_number       1
_symmetry_cell_setting            triclinic
loop_
_symmetry_equiv_pos_as_xyz
'x, y, z'
_cell_length_a     78.788246
_cell_length_b     78.405473
_cell_length_c     49.821648
_cell_angle_alpha  89.801056
_cell_angle_beta   90.651225
_cell_angle_gamma 119.541
loop_
_atom_site_label
_atom_site_type_symbol
_atom_site_fract_x
_atom_site_fract_y
_atom_site_fract_z
_atom_type_partial_charge
Mn0 Mn 0.0148 0.3728 -0.00181 0.0
Mn1 Mn 0.05923 0.40971 0.98053 0.0
C2 C 0.01722 0.39679 0.96858 0.0
C3 C 0.98847 0.34102 0.99208 0.0
C4 C 0.03985 0.40883 0.03327 0.0
O5 O 0.03314 0.3628 0.01058 0.0
O6 O 0.06153 0.3873 0.99504 0.0
C7 C 0.0664 0.38965 0.93542 0.0
N8 N 0.06542 0.40533 0.94517 0.0
C9 C 0.07639 0.42255 0.90333 0.0
C10 C 0.07775 0.40668 0.89291 0.0
C11 C 0.07257 0.39009 0.90896 0.0
C12 C 0.0699 0.42115 0.9297 0.0
H13 H 0.06247 0.37692 0.94773 0.0
C14 C 0.05141 0.37063 0.00627 0.0
O15 O 0.99187 0.35 0.015 0.0
O16 O 1.00079 0.35022 0.97307 0.0
N17 N 0.05984 0.43257 0.96583 0.0
C18 C 0.05659 0.4461 0.97837 0.0
C19 C 0.06095 0.46357 0.96507 0.0
C20 C 0.06882 0.46706 0.93919 0.0
C21 C 0.07172 0.45278 0.92648 0.0
C22 C 0.06722 0.43572 0.9408 0.0
H23 H 0.05087 0.44366 -0.00156 0.0
O24 O 1.0012 0.38596 0.98142 0.0
O25 O 0.03129 0.39287 0.97262 0.0
O26 O 0.02419 0.39263 0.02912 0.0
O27 O 0.05406 0.41606 0.01688 0.0
C28 C 0.07895 0.45484 0.90022 0.0
C29 C 0.08109 0.43964 0.88856 0.0
H30 H 0.0826 0.40701 0.87256 0.0
H31 H 0.07344 0.37771 0.90101 0.0
H32 H 0.05851 0.47445 0.97489 0.0
H33 H 0.07257 0.48075 0.92926 0.0
H34 H 0.08268 0.46793 0.88869 0.0
H35 H 0.0863 0.44123 0.86818 0.0
Mn36 Mn 0.64978 0.64934 0.01288 0.0
Mn37 Mn 0.65452 0.60961 0.02698 0.0
C38 C 0.62891 0.62612 0.04317 0.0
C39 C 0.65783 0.68199 0.01972 0.0
C40 C 0.63451 0.61329 0.97676 0.0
O41 O 0.67673 0.65684 -0.00215 0.0
O42 O 0.67921 0.63091 0.01237 0.0
C43 C 0.68335 0.62683 0.07145 0.0
N44 N 0.66604 0.61225 0.06173 0.0
C45 C 0.6601 0.59378 0.10254 0.0
C46 C 0.67803 0.60844 0.11285 0.0
C47 C 0.68962 0.62513 0.09732 0.0
C48 C 0.65453 0.59643 0.07678 0.0
H49 H 0.69224 0.63967 0.05957 0.0
C50 C 0.6863 0.64774 0.00127 0.0
O51 O 0.65063 0.67311 -0.00293 0.0
O52 O 0.66123 0.67217 0.03803 0.0
N53 N 0.63204 0.58757 0.04161 0.0
C54 C 0.61467 0.57536 0.02933 0.0
C55 C 0.60124 0.55806 0.04228 0.0
C56 C 0.60594 0.55334 0.06747 0.0
C57 C 0.6238 0.56622 0.07987 0.0
C58 C 0.63662 0.58321 0.06596 0.0
H59 H 0.61116 0.57866 0.00967 0.0
O60 O 0.62441 0.63832 0.0319 0.0
O61 O 0.64595 0.62834 0.03735 0.0
O62 O 0.63612 0.62983 0.98247 0.0
O63 O 0.64191 0.60497 0.99101 0.0
C64 C 0.62944 0.56285 0.10541 0.0
C65 C 0.64748 0.57673 0.11687 0.0
H66 H 0.68295 0.60713 0.13275 0.0
H67 H 0.70338 0.63661 0.10523 0.0
H68 H 0.58742 0.54823 0.03267 0.0
H69 H 0.59571 0.53976 0.0771 0.0
H70 H 0.61992 0.54975 0.11657 0.0
H71 H 0.65146 0.57417 0.13675 0.0
Mn72 Mn 0.36694 0.99808 0.00038 0.0
Mn73 Mn 0.40689 0.04331 0.00472 0.0
C74 C 0.39314 1.00323 0.02763 0.0
C75 C 0.33548 0.974 0.01304 0.0
C76 C 0.39978 0.01538 0.95887 0.0
O77 O 0.357 0.01589 0.98492 0.0
O78 O 0.38448 0.04505 0.98944 0.0
C79 C 0.39196 0.05937 0.04621 0.0
N80 N 0.40598 0.0554 0.03748 0.0
C81 C 0.42619 0.07104 0.07622 0.0
C82 C 0.41201 0.07537 0.08559 0.0
C83 C 0.39478 0.06941 0.07059 0.0
C84 C 0.42243 0.06075 0.05199 0.0
H85 H 0.37877 0.05494 0.03463 0.0
C86 C 0.36655 0.03454 0.98271 0.0
O87 O 0.3424 0.97401 0.98956 0.0
O88 O 0.34662 0.98841 0.02899 0.0
N89 N 0.43007 0.04462 0.01921 0.0
C90 C 0.44211 0.03897 0.0076 0.0
C91 C 0.46015 0.04412 0.01978 0.0
C92 C 0.46578 0.05529 0.04348 0.0
C93 C 0.4531 0.06078 0.05521 0.0
C94 C 0.43536 0.05535 0.04206 0.0
H95 H 0.43808 0.03079 0.98901 0.0
O96 O 0.38054 0.98575 0.01943 0.0
O97 O 0.38976 0.0173 0.02052 0.0
O98 O 0.38352 1.00156 0.96718 0.0
O99 O 0.40947 0.03186 0.9708 0.0
C100 C 0.45743 0.0716 0.07928 0.0
C101 C 0.44389 0.07654 0.08994 0.0
H102 H 0.4142 0.08323 0.10429 0.0
H103 H 0.38375 0.07265 0.07771 0.0
H104 H 0.46985 0.03977 0.01068 0.0
H105 H 0.47994 0.05968 0.05239 0.0
H106 H 0.47106 0.07609 0.08988 0.0
H107 H 0.44726 0.08462 0.10864 0.0
Mn108 Mn 1.00669 0.64701 0.99601 0.0
Mn109 Mn 0.04861 0.64815 0.97846 0.0
C110 C 1.00565 0.62323 0.96721 0.0
C111 C 0.98283 0.65626 0.98945 0.0
C112 C 0.02842 0.63194 0.03155 0.0
O113 O 0.02763 0.6746 0.00765 0.0
O114 O 0.05415 0.67412 0.99232 0.0
C115 C 0.05876 0.67554 0.93264 0.0
N116 N 0.05572 0.65816 0.94291 0.0
C117 C 0.0658 0.64993 0.90185 0.0
C118 C 0.06921 0.66783 0.89086 0.0
C119 C 0.06552 0.68061 0.90625 0.0
C120 C 0.05872 0.64554 0.92805 0.0
H121 H 0.05606 0.68544 0.94451 0.0
C122 C 0.04595 0.68286 0.00333 0.0
O123 O 0.98553 0.65034 0.01265 0.0
O124 O 0.99462 0.65771 0.97047 0.0
N125 N 0.04631 0.62443 0.96448 0.0
C126 C 0.04138 0.60737 0.97763 0.0
C127 C 0.04463 0.59317 0.96537 0.0
C128 C 0.05302 0.59672 0.93983 0.0
C129 C 0.05737 0.61408 0.92628 0.0
C130 C 0.0541 0.62782 0.93969 0.0
H131 H 0.03531 0.60475 -0.0025 0.0
O132 O 0.99032 0.62041 0.98019 0.0
O133 O 0.02119 0.6403 0.97056 0.0
O134 O 0.01409 0.63493 0.0274 0.0
O135 O 0.04237 0.63702 0.01501 0.0
C136 C 0.06504 0.61841 0.90016 0.0
C137 C 0.06905 0.63623 0.88784 0.0
H138 H 0.07458 0.67186 0.87059 0.0
H139 H 0.06803 0.69441 0.89787 0.0
H140 H 0.04099 0.57968 0.97578 0.0
H141 H 0.05605 0.58597 0.93081 0.0
H142 H 0.06769 0.60804 0.88926 0.0
H143 H 0.07464 0.63926 0.86759 0.0
Mn144 Mn 0.37381 0.36953 0.02402 0.0
Mn145 Mn 0.41448 0.36794 0.04255 0.0
C146 C 0.39679 0.39366 0.0523 0.0
C147 C 0.34098 0.36078 0.03069 0.0
C148 C 0.40991 0.38352 0.98866 0.0
O149 O 0.36716 0.34164 0.0132 0.0
O150 O 0.39418 0.34195 0.02897 0.0
C151 C 0.39783 0.34113 0.08883 0.0
N152 N 0.41186 0.35837 0.07842 0.0
C153 C 0.42995 0.36718 0.12006 0.0
C154 C 0.41575 0.34946 0.13123 0.0
C155 C 0.39955 0.33645 0.11559 0.0
C156 C 0.42726 0.37119 0.09345 0.0
H157 H 0.38547 0.33104 0.07676 0.0
C158 C 0.3773 0.33326 0.01779 0.0
O159 O 0.34907 0.36624 0.00735 0.0
O160 O 0.35167 0.35949 0.04971 0.0
N161 N 0.4358 0.39167 0.05623 0.0
C162 C 0.44784 0.40839 0.04266 0.0
C163 C 0.46505 0.4227 0.05511 0.0
C164 C 0.46979 0.41959 0.08124 0.0
C165 C 0.45694 0.40253 0.09509 0.0
C166 C 0.44015 0.38866 0.08151 0.0
H167 H 0.44453 0.41065 0.02232 0.0
O168 O 0.38413 0.39645 0.03902 0.0
O169 O 0.39525 0.37641 0.04959 0.0
O170 O 0.39278 0.38092 0.99245 0.0
O171 O 0.41889 0.37854 0.00573 0.0
C172 C 0.46025 0.39861 0.12168 0.0
C173 C 0.44665 0.38104 0.13426 0.0
H174 H 0.41711 0.34573 0.1518 0.0
H175 H 0.3885 0.32277 0.12409 0.0
H176 H 0.47482 0.43594 0.04441 0.0
H177 H 0.48337 0.43041 0.09043 0.0
H178 H 0.4731 0.40909 0.13272 0.0
H179 H 0.4492 0.37831 0.15484 0.0
Mn180 Mn 0.65562 0.01568 0.00054 0.0
Mn181 Mn 0.61636 0.97292 0.98159 0.0
C182 C 0.63209 0.01603 0.97242 0.0
C183 C 0.68803 0.04001 0.99395 0.0
C184 C 0.62023 0.99196 0.03605 0.0
O185 O 0.66349 0.9953 0.01099 0.0
O186 O 0.63786 0.96834 0.99348 0.0
C187 C 0.63315 0.96466 0.93376 0.0
N188 N 0.61871 0.96679 0.94525 0.0
C189 C 0.59944 0.95669 0.90464 0.0
C190 C 0.61403 0.95421 0.89239 0.0
C191 C 0.63103 0.95838 0.90695 0.0
C192 C 0.60255 0.96333 0.93122 0.0
H193 H 0.64614 0.96771 0.94501 0.0
C194 C 0.65462 0.97712 0.00494 0.0
O195 O 0.67994 0.03723 0.01731 0.0
O196 O 0.6775 0.02825 0.97481 0.0
N197 N 0.59408 0.97443 0.9693 0.0
C198 C 0.5819 0.97851 0.98367 0.0
C199 C 0.56409 0.97493 0.9722 0.0
C200 C 0.55892 0.967 0.94623 0.0
C201 C 0.5719 0.96339 0.93154 0.0
C202 C 0.58935 0.96708 0.94412 0.0
H203 H 0.58556 0.98412 0.0039 0.0
O204 O 0.64424 0.03156 0.98572 0.0
O205 O 0.63449 1.00082 0.97505 0.0
O206 O 0.63666 1.00729 0.03205 0.0
O207 O 0.61205 0.97799 0.01902 0.0
C208 C 0.56813 0.95607 0.90505 0.0
C209 C 0.58199 0.95293 0.89151 0.0
H210 H 0.61237 0.94922 0.87178 0.0
H211 H 0.6424 0.95661 0.89761 0.0
H212 H 0.55422 0.97794 0.98353 0.0
H213 H 0.54493 0.96377 0.93776 0.0
H214 H 0.55472 0.95301 0.89481 0.0
H215 H 0.5791 0.94763 0.87099 0.0
Mn216 Mn 0.68405 0.70769 0.33124 0.0
Mn217 Mn 0.72693 0.74664 0.31264 0.0
C218 C 0.68432 0.73119 0.3025 0.0
C219 C 0.65868 0.67535 0.32507 0.0
C220 C 0.70803 0.74404 0.36636 0.0
O221 O 0.70397 0.69925 0.34207 0.0
O222 O 0.73111 0.72526 0.32633 0.0
C223 C 0.73492 0.72795 0.26658 0.0
N224 N 0.73305 0.74299 0.27689 0.0
C225 C 0.74294 0.76075 0.23532 0.0
C226 C 0.7452 0.74556 0.22431 0.0
C227 C 0.74101 0.72901 0.23994 0.0
C228 C 0.73652 0.75871 0.26182 0.0
H229 H 0.73178 0.71527 0.27859 0.0
C230 C 0.72225 0.70836 0.33729 0.0
O231 O 0.66216 0.684 0.34826 0.0
O232 O 0.67052 0.68516 0.30587 0.0
N233 N 0.72576 0.76877 0.29866 0.0
C234 C 0.72186 0.78162 0.31188 0.0
C235 C 0.72531 0.79901 0.29913 0.0
C236 C 0.733 0.80313 0.27313 0.0
C237 C 0.73657 0.78954 0.25973 0.0
C238 C 0.73296 0.77252 0.27351 0.0
H239 H 0.71642 0.77876 0.33212 0.0
O240 O 0.6688 0.7196 0.31585 0.0
O241 O 0.69917 0.72838 0.30558 0.0
O242 O 0.69302 0.72725 0.36253 0.0
O243 O 0.72177 0.75221 0.34938 0.0
C244 C 0.74372 0.79227 0.23335 0.0
C245 C 0.74669 0.77778 0.22104 0.0
H246 H 0.75002 0.74639 0.20383 0.0
H247 H 0.74259 0.71717 0.23153 0.0
H248 H 0.72238 0.80937 0.3095 0.0
H249 H 0.73608 0.81679 0.26364 0.0
H250 H 0.74679 0.80535 0.22222 0.0
H251 H 0.75183 0.77986 0.20057 0.0
Mn252 Mn 0.31828 0.98501 0.34466 0.0
Mn253 Mn 0.32086 0.944 0.35837 0.0
C254 C 0.29654 0.96195 0.3745 0.0
C255 C 0.32735 0.01795 0.35201 0.0
C256 C 0.30194 0.9491 0.308 0.0
O257 O 0.34518 0.99162 0.33013 0.0
O258 O 0.34594 0.96464 0.34401 0.0
C259 C 0.34967 0.96003 0.40304 0.0
N260 N 0.33213 0.94597 0.39314 0.0
C261 C 0.32551 0.92695 0.43353 0.0
C262 C 0.34364 0.94107 0.44404 0.0
C263 C 0.35568 0.95778 0.42882 0.0
C264 C 0.32019 0.93017 0.40792 0.0
H265 H 0.35893 0.97286 0.39136 0.0
C266 C 0.35391 0.98165 0.33333 0.0
O267 O 0.32027 0.0094 0.32914 0.0
O268 O 0.33012 1.00765 0.37024 0.0
N269 N 0.29788 0.92241 0.37273 0.0
C270 C 0.28045 0.91073 0.36021 0.0
C271 C 0.26666 0.8934 0.37273 0.0
C272 C 0.27106 0.8881 0.39771 0.0
C273 C 0.28896 0.90048 0.4104 0.0
C274 C 0.30215 0.91752 0.39692 0.0
H275 H 0.2772 0.91444 0.34066 0.0
O276 O 0.29276 0.97466 0.36323 0.0
O277 O 0.31334 0.96351 0.3689 0.0
O278 O 0.30438 0.96597 0.31379 0.0
O279 O 0.30848 0.94005 0.32238 0.0
C280 C 0.29433 0.89652 0.43577 0.0
C281 C 0.31248 0.90987 0.44748 0.0
H282 H 0.34838 0.93932 0.46385 0.0
H283 H 0.36961 0.96883 0.43688 0.0
H284 H 0.25281 0.88396 0.36291 0.0
H285 H 0.26056 0.87447 0.40697 0.0
H286 H 0.28452 0.88336 0.44661 0.0
H287 H 0.31626 0.90687 0.46723 0.0
Mn288 Mn 0.03324 0.33494 0.34015 0.0
Mn289 Mn 0.07226 0.37867 0.35663 0.0
C290 C 0.05732 0.33599 0.3687 0.0
C291 C 1.00095 0.31034 0.34829 0.0
C292 C 0.06833 0.35782 0.3036 0.0
O293 O 0.02486 0.35473 0.32794 0.0
O294 O 0.05036 0.38245 0.34404 0.0
C295 C 0.05564 0.38813 0.40356 0.0
N296 N 0.07014 0.3859 0.39246 0.0
C297 C 0.08972 0.39748 0.43269 0.0
C298 C 0.07508 0.40007 0.44453 0.0
C299 C 0.05789 0.39522 0.42997 0.0
C300 C 0.08649 0.39004 0.40651 0.0
H301 H 0.04251 0.38455 0.39232 0.0
C302 C 0.03355 0.37312 0.3328 0.0
O303 O 1.00878 0.31241 0.32484 0.0
O304 O 1.01161 0.32299 0.36652 0.0
N305 N 0.0949 0.378 0.36936 0.0
C306 C 0.10714 0.37373 0.35547 0.0
C307 C 0.12513 0.37793 0.36698 0.0
C308 C 0.13042 0.38667 0.39249 0.0
C309 C 0.11739 0.39047 0.40671 0.0
C310 C 0.09976 0.38616 0.39409 0.0
H311 H 0.10338 0.36747 0.33559 0.0
O312 O 0.04515 0.31994 0.35642 0.0
O313 O 0.0546 0.35092 0.3649 0.0
O314 O 0.05203 0.34246 0.30833 0.0
O315 O 0.07633 0.37241 0.31971 0.0
C316 C 0.12126 0.39856 0.43277 0.0
C317 C 0.10735 0.40188 0.44586 0.0
H318 H 0.07683 0.40567 0.46481 0.0
H319 H 0.04648 0.39708 0.43901 0.0
H320 H 0.13505 0.37478 0.35602 0.0
H321 H 0.14455 0.3904 0.40094 0.0
H322 H 0.13479 0.40207 0.44304 0.0
H323 H 0.11034 0.40777 0.46607 0.0
Mn324 Mn 0.67176 0.97884 0.33112 0.0
Mn325 Mn 0.71325 0.97862 0.31521 0.0
C326 C 0.67035 0.95486 0.30235 0.0
C327 C 0.64952 0.99002 0.32326 0.0
C328 C 0.69194 0.96273 0.36782 0.0
O329 O 0.69313 1.00593 0.34347 0.0
O330 O 0.71947 1.00502 0.32828 0.0
C331 C 0.72483 1.00569 0.26884 0.0
N332 N 0.72109 0.98822 0.27964 0.0
C333 C 0.73131 0.97913 0.23942 0.0
C334 C 0.7355 0.99713 0.22793 0.0
C335 C 0.73207 0.01039 0.24263 0.0
C336 C 0.72382 0.97515 0.26543 0.0
H337 H 0.72229 0.01592 0.28016 0.0
C338 C 0.71141 0.01395 0.33916 0.0
O339 O 0.65106 0.98351 0.34664 0.0
O340 O 0.6613 0.99062 0.30484 0.0
N341 N 0.71022 0.95442 0.30197 0.0
C342 C 0.70428 0.93724 0.31536 0.0
C343 C 0.70685 0.92244 0.30364 0.0
C344 C 0.71562 0.92551 0.2784 0.0
C345 C 0.72106 0.94305 0.26462 0.0
C346 C 0.71835 0.95735 0.27745 0.0
H347 H 0.69789 0.93495 0.33499 0.0
O348 O 0.65492 0.95252 0.31462 0.0
O349 O 0.68618 0.97157 0.30643 0.0
O350 O 0.67778 0.9659 0.36294 0.0
O351 O 0.70624 0.96783 0.35189 0.0
C352 C 0.72922 0.94698 0.23877 0.0
C353 C 0.73415 0.96493 0.22606 0.0
H354 H 0.74121 1.00086 0.20779 0.0
H355 H 0.73513 0.02425 0.23384 0.0
H356 H 0.70237 0.90882 0.31422 0.0
H357 H 0.71804 0.91424 0.26977 0.0
H358 H 0.73152 0.93621 0.22834 0.0
H359 H 0.74006 0.96764 0.20599 0.0
Mn360 Mn 0.04172 0.70421 0.35542 0.0
Mn361 Mn 0.08383 0.70417 0.36924 0.0
C362 C 0.06481 0.72817 0.38359 0.0
C363 C 1.00869 0.69313 0.36407 0.0
C364 C 0.07626 0.71979 0.31739 0.0
O365 O 0.03628 0.67718 0.34228 0.0
O366 O 0.06359 0.67766 0.35724 0.0
C367 C 0.07075 0.67782 0.41637 0.0
N368 N 0.08361 0.6952 0.40497 0.0
C369 C 0.10382 0.70531 0.44474 0.0
C370 C 0.09088 0.68745 0.45689 0.0
C371 C 0.07419 0.6737 0.4427 0.0
C372 C 0.09946 0.7087 0.41863 0.0
H373 H 0.058 0.66719 0.40543 0.0
C374 C 0.0466 0.66893 0.34638 0.0
O375 O 0.01614 0.69978 0.34068 0.0
O376 O 0.02024 0.6922 0.38208 0.0
N377 N 0.10507 0.72859 0.38126 0.0
C378 C 0.11559 0.74544 0.36708 0.0
C379 C 0.13281 0.76066 0.37829 0.0
C380 C 0.13917 0.7583 0.40376 0.0
C381 C 0.12795 0.74099 0.41818 0.0
C382 C 0.11099 0.72628 0.4059 0.0
H383 H 0.11105 0.74714 0.3472 0.0
O384 O 0.05111 0.7304 0.37235 0.0
O385 O 0.06411 0.71145 0.37912 0.0
O386 O 0.05963 0.71759 0.32356 0.0
O387 O 0.08591 0.71416 0.33216 0.0
C388 C 0.13298 0.73768 0.44416 0.0
C389 C 0.12082 0.71993 0.45753 0.0
H390 H 0.09355 0.68418 0.47712 0.0
H391 H 0.06409 0.65992 0.45197 0.0
H392 H 0.14135 0.77405 0.36714 0.0
H393 H 0.15274 0.76989 0.41201 0.0
H394 H 0.14606 0.74875 0.45415 0.0
H395 H 0.12466 0.71769 0.47767 0.0
Mn396 Mn 0.32371 0.35355 0.34019 0.0
Mn397 Mn 0.28382 0.30877 0.33153 0.0
C398 C 0.29852 0.34994 0.31204 0.0
C399 C 0.35566 0.37741 0.33016 0.0
C400 C 0.29004 0.33451 0.37987 0.0
O401 O 0.33278 0.33498 0.35492 0.0
O402 O 0.30587 0.30606 0.34598 0.0
C403 C 0.29911 0.29455 0.28811 0.0
N404 N 0.28507 0.29821 0.2976 0.0
C405 C 0.26506 0.28405 0.25824 0.0
C406 C 0.27926 0.28004 0.24805 0.0
C407 C 0.29641 0.28544 0.26299 0.0
C408 C 0.26872 0.29346 0.28317 0.0
H409 H 0.31221 0.2985 0.29966 0.0
C410 C 0.32342 0.31629 0.35445 0.0
O411 O 0.34807 0.37672 0.35337 0.0
O412 O 0.34481 0.36392 0.31285 0.0
N413 N 0.261 0.30845 0.31749 0.0
C414 C 0.24903 0.31386 0.32984 0.0
C415 C 0.23109 0.30927 0.31777 0.0
C416 C 0.22551 0.29888 0.29341 0.0
C417 C 0.23816 0.29369 0.28089 0.0
C418 C 0.2558 0.29857 0.29392 0.0
H419 H 0.253 0.32137 0.34893 0.0
O420 O 0.31105 0.36701 0.32165 0.0
O421 O 0.30147 0.33545 0.31824 0.0
O422 O 0.30625 0.34886 0.37253 0.0
O423 O 0.28081 0.31849 0.36672 0.0
C424 C 0.23388 0.28367 0.25614 0.0
C425 C 0.24743 0.27906 0.24467 0.0
H426 H 0.27715 0.27287 0.22879 0.0
H427 H 0.30745 0.28243 0.25525 0.0
H428 H 0.22143 0.31341 0.32747 0.0
H429 H 0.21143 0.29491 0.28456 0.0
H430 H 0.22029 0.27956 0.24564 0.0
H431 H 0.24411 0.27163 0.22544 0.0
Mn432 Mn 0.35015 0.04281 0.665 0.0
Mn433 Mn 0.39283 0.08232 0.64719 0.0
C434 C 0.3502 0.06643 0.6367 0.0
C435 C 0.32515 0.0104 0.65818 0.0
C436 C 0.37362 0.07875 0.70097 0.0
O437 O 0.3703 0.03459 0.67548 0.0
O438 O 0.39729 0.06094 0.66001 0.0
C439 C 0.40124 0.06461 0.60034 0.0
N440 N 0.39924 0.0794 0.61128 0.0
C441 C 0.40957 0.09809 0.57049 0.0
C442 C 0.41205 0.0832 0.55887 0.0
C443 C 0.40768 0.0663 0.57379 0.0
C444 C 0.40281 0.09542 0.59685 0.0
H445 H 0.39792 0.05165 0.61179 0.0
C446 C 0.38856 0.04389 0.67057 0.0
O447 O 0.3284 0.01878 0.68155 0.0
O448 O 0.33699 0.02055 0.63915 0.0
N449 N 0.39137 0.10447 0.63397 0.0
C450 C 0.38703 0.11686 0.64759 0.0
C451 C 0.39042 0.13444 0.6355 0.0
C452 C 0.3985 0.13923 0.60974 0.0
C453 C 0.40251 0.1261 0.59591 0.0
C454 C 0.3989 0.10885 0.60902 0.0
H455 H 0.38131 0.1135 0.66767 0.0
O456 O 0.33469 0.05459 0.64988 0.0
O457 O 0.36518 0.06384 0.63978 0.0
O458 O 0.35872 0.06196 0.69672 0.0
O459 O 0.38744 0.08722 0.68417 0.0
C460 C 0.41011 0.1295 0.56974 0.0
C461 C 0.41341 0.1154 0.55691 0.0
H462 H 0.41714 0.08452 0.53846 0.0
H463 H 0.40938 0.05467 0.56489 0.0
H464 H 0.38714 0.14444 0.64618 0.0
H465 H 0.4015 0.15302 0.60076 0.0
H466 H 0.41325 0.14281 0.55915 0.0
H467 H 0.41884 0.11799 0.53658 0.0
Mn468 Mn 0.98072 0.31392 0.6801 0.0
Mn469 Mn 0.98643 0.27465 0.6933 0.0
C470 C 0.96014 0.29002 0.70981 0.0
C471 C 0.98731 0.3461 0.68755 0.0
C472 C 0.96538 0.27738 0.64393 0.0
O473 O 1.00816 0.32297 0.66634 0.0
O474 O 1.00959 0.29545 0.67469 0.0
C475 C 0.01852 0.29437 0.73316 0.0
N476 N 1.00057 0.2793 0.72638 0.0
C477 C 0.99778 0.26349 0.76886 0.0
C478 C 0.01627 0.2788 0.77628 0.0
C479 C 0.02664 0.29436 0.75841 0.0
C480 C 0.99033 0.26446 0.74361 0.0
H481 H 0.02659 0.30628 0.71941 0.0
C482 C 0.01687 0.31293 0.66573 0.0
O483 O 0.98074 0.33741 0.66461 0.0
O484 O 0.99071 0.33633 0.70591 0.0
N485 N 0.9656 0.25298 0.71124 0.0
C486 C 0.94782 0.23954 0.70118 0.0
C487 C 0.93584 0.22274 0.71617 0.0
C488 C 0.94238 0.21981 0.74118 0.0
C489 C 0.96057 0.23398 0.75137 0.0
C490 C 0.97197 0.25031 0.73536 0.0
H491 H 0.94288 0.24153 0.68173 0.0
O492 O 0.95494 0.30156 0.6981 0.0
O493 O 0.97755 0.29302 0.70442 0.0
O494 O 0.96861 0.29475 0.64847 0.0
O495 O 0.97129 0.26837 0.65949 0.0
C496 C 0.96793 0.23246 0.77663 0.0
C497 C 0.98644 0.24731 0.78549 0.0
H498 H 0.02264 0.27877 0.79566 0.0
H499 H 0.0409 0.30625 0.76401 0.0
H500 H 0.92174 0.21192 0.7083 0.0
H501 H 0.93333 0.20654 0.75232 0.0
H502 H 0.95941 0.22002 0.78951 0.0
H503 H 0.99184 0.24611 0.80509 0.0
Mn504 Mn 0.6968 0.66329 0.67074 0.0
Mn505 Mn 0.73778 0.70755 0.67713 0.0
C506 C 0.72233 0.66659 0.69806 0.0
C507 C 0.66491 0.63975 0.68253 0.0
C508 C 0.7302 0.68045 0.6301 0.0
O509 O 0.68808 0.68227 0.65589 0.0
O510 O 0.71616 0.71068 0.66177 0.0
C511 C 0.72325 0.72348 0.71935 0.0
N512 N 0.73695 0.71912 0.71041 0.0
C513 C 0.75695 0.73341 0.74976 0.0
C514 C 0.7431 0.73812 0.75937 0.0
C515 C 0.72613 0.73303 0.74416 0.0
C516 C 0.75313 0.7236 0.72512 0.0
H517 H 0.71027 0.71973 0.7076 0.0
C518 C 0.69828 0.70092 0.6544 0.0
O519 O 0.67186 0.64003 0.65897 0.0
O520 O 0.67624 0.65369 0.69899 0.0
N521 N 0.76036 0.70763 0.69164 0.0
C522 C 0.77216 0.70184 0.67962 0.0
C523 C 0.79007 0.7064 0.69174 0.0
C524 C 0.79578 0.7171 0.71584 0.0
C525 C 0.78329 0.72262 0.72808 0.0
C526 C 0.76573 0.71787 0.7149 0.0
H527 H 0.76809 0.69408 0.66071 0.0
O528 O 0.70923 0.64956 0.68909 0.0
O529 O 0.71978 0.68135 0.69175 0.0
O530 O 0.71358 0.66687 0.63773 0.0
O531 O 0.74024 0.69655 0.64277 0.0
C532 C 0.78767 0.73287 0.75264 0.0
C533 C 0.77441 0.73807 0.76363 0.0
H534 H 0.74534 0.74562 0.7784 0.0
H535 H 0.71535 0.73658 0.75146 0.0
H536 H 0.79961 0.70201 0.68227 0.0
H537 H 0.80989 0.72112 0.72465 0.0
H538 H 0.80113 0.7367 0.76335 0.0
H539 H 0.77782 0.74573 0.78268 0.0
Mn540 Mn 0.3361 0.31044 0.66793 0.0
Mn541 Mn 0.37896 0.31242 0.65428 0.0
C542 C 0.3366 0.28812 0.63785 0.0
C543 C 0.31302 0.32056 0.66085 0.0
C544 C 0.35598 0.29457 0.70498 0.0
O545 O 0.3566 0.33726 0.68282 0.0
O546 O 0.3839 0.33839 0.66734 0.0
C547 C 0.39142 0.33995 0.6084 0.0
N548 N 0.38769 0.32246 0.61912 0.0
C549 C 0.39932 0.31412 0.5796 0.0
C550 C 0.40351 0.33215 0.56823 0.0
C551 C 0.39938 0.34505 0.5826 0.0
C552 C 0.39113 0.30974 0.6052 0.0
H553 H 0.38834 0.3499 0.61948 0.0
C554 C 0.37498 0.34625 0.67875 0.0
O555 O 0.31445 0.31321 0.68356 0.0
O556 O 0.32559 0.32281 0.64255 0.0
N557 N 0.3769 0.28858 0.64118 0.0
C558 C 0.37085 0.2713 0.65434 0.0
C559 C 0.37372 0.25667 0.64263 0.0
C560 C 0.383 0.26007 0.61773 0.0
C561 C 0.38878 0.27781 0.60432 0.0
C562 C 0.38562 0.29187 0.61703 0.0
H563 H 0.36418 0.26879 0.67381 0.0
O564 O 0.3205 0.28484 0.64912 0.0
O565 O 0.35197 0.30488 0.6436 0.0
O566 O 0.34125 0.29633 0.69862 0.0
O567 O 0.37139 0.30134 0.69089 0.0
C568 C 0.39766 0.28217 0.57893 0.0
C569 C 0.40276 0.30024 0.56648 0.0
H570 H 0.40975 0.33618 0.54839 0.0
H571 H 0.40245 0.35893 0.57389 0.0
H572 H 0.36909 0.24295 0.65298 0.0
H573 H 0.38558 0.24891 0.60909 0.0
H574 H 0.40041 0.27164 0.56866 0.0
H575 H 0.40922 0.30327 0.54674 0.0
Mn576 Mn 0.70996 0.03708 0.68569 0.0
Mn577 Mn 0.75093 0.03602 0.70374 0.0
C578 C 0.73256 0.06102 0.7145 0.0
C579 C 0.67692 0.02721 0.69272 0.0
C580 C 0.74601 0.05183 0.65013 0.0
O581 O 0.70386 0.00954 0.67423 0.0
O582 O 0.73082 0.00984 0.69028 0.0
C583 C 0.73494 0.00909 0.75003 0.0
N584 N 0.74871 0.02644 0.73955 0.0
C585 C 0.76705 0.03548 0.78098 0.0
C586 C 0.75316 0.01762 0.7922 0.0
C587 C 0.73695 1.00444 0.77671 0.0
C588 C 0.7641 0.03942 0.75446 0.0
H589 H 0.72255 0.9989 0.7381 0.0
C590 C 0.71399 1.00118 0.67895 0.0
O591 O 0.68489 0.03323 0.6694 0.0
O592 O 0.68793 0.02621 0.7115 0.0
N593 N 0.77199 0.05997 0.71737 0.0
C594 C 0.78352 0.07693 0.70396 0.0
C595 C 0.8005 0.0916 0.71645 0.0
C596 C 0.80555 0.08859 0.74245 0.0
C597 C 0.79323 0.07122 0.75612 0.0
C598 C 0.77661 0.05705 0.74254 0.0
H599 H 0.77995 0.07915 0.68375 0.0
O600 O 0.71976 0.06372 0.70144 0.0
O601 O 0.73139 0.04398 0.71114 0.0
O602 O 0.72888 0.04918 0.65416 0.0
O603 O 0.75501 0.04667 0.66692 0.0
C604 C 0.79685 0.06734 0.78258 0.0
C605 C 0.78367 0.04956 0.7951 0.0
H606 H 0.75473 0.01393 0.8127 0.0
H607 H 0.72611 0.99068 0.78525 0.0
H608 H 0.80985 0.10506 0.70589 0.0
H609 H 0.81893 0.09974 0.75171 0.0
H610 H 0.80961 0.07801 0.79359 0.0
H611 H 0.78642 0.04688 0.8156 0.0
Mn612 Mn 0.99365 0.68751 0.6714 0.0
Mn613 Mn 0.95235 0.6445 0.65978 0.0
C614 C 0.96944 0.68687 0.64372 0.0
C615 C 0.02618 0.7101 0.66216 0.0
C616 C 0.95997 0.66848 0.71056 0.0
O617 O 1.00061 0.66696 0.68488 0.0
O618 O 0.9737 0.63952 0.67108 0.0
C619 C 0.96526 0.63128 0.61247 0.0
N620 N 0.95209 0.63524 0.6243 0.0
C621 C 0.93055 0.62307 0.58597 0.0
C622 C 0.94379 0.61869 0.57343 0.0
C623 C 0.9613 0.62297 0.58666 0.0
C624 C 0.93547 0.63167 0.61148 0.0
H625 H 0.97864 0.63444 0.6227 0.0
C626 C 0.99093 0.64846 0.68108 0.0
O627 O 0.01876 0.7092 0.68558 0.0
O628 O 0.01486 0.6974 0.64433 0.0
N629 N 0.9301 0.64641 0.64842 0.0
C630 C 0.91933 0.65236 0.66281 0.0
C631 C 0.90127 0.649 0.65257 0.0
C632 C 0.89435 0.63932 0.62788 0.0
C633 C 0.90585 0.63368 0.61315 0.0
C634 C 0.92366 0.63731 0.62445 0.0
H635 H 0.92428 0.65927 0.68219 0.0
O636 O 0.98284 0.70318 0.6542 0.0
O637 O 0.97109 0.67141 0.64859 0.0
O638 O 0.97617 0.68296 0.70354 0.0
O639 O 0.95063 0.65281 0.69671 0.0
C640 C 0.90025 0.6244 0.58788 0.0
C641 C 0.91269 0.61931 0.57415 0.0
H642 H 0.94071 0.61213 0.55361 0.0
H643 H 0.97165 0.61973 0.57706 0.0
H644 H 0.89253 0.65352 0.66393 0.0
H645 H 0.88017 0.63629 0.62043 0.0
H646 H 0.88649 0.62127 0.57868 0.0
H647 H 0.90839 0.61252 0.55452 0.0
H648 H 0.24693 0.35998 0.13397 0.0
H649 H 0.20123 0.3574 0.08406 0.0
H650 H 0.1944 0.35052 0.17057 0.0
H651 H 0.17396 0.36049 0.1672 0.0
H652 H 0.12216 0.34581 0.12222 0.0
H653 H 0.17002 0.34625 0.08227 0.0
C654 C 0.23259 0.35866 0.1321 0.0
C655 C 0.22171 0.35621 0.15508 0.0
C656 C 0.22507 0.35861 0.10661 0.0
C657 C 0.20636 0.35672 0.104 0.0
C658 C 0.19485 0.35429 0.1271 0.0
C659 C 0.20276 0.35341 0.15246 0.0
C660 C 0.17476 0.35252 0.12532 0.0
C661 C 0.16603 0.35551 0.14844 0.0
C662 C 0.14705 0.35293 0.14755 0.0
C663 C 0.13679 0.34777 0.12325 0.0
C664 C 0.14531 0.34603 0.09981 0.0
C665 C 0.16409 0.34812 0.10074 0.0
H666 H 0.65489 0.89093 0.12493 0.0
H667 H 0.66371 0.84981 0.07915 0.0
H668 H 0.64978 0.84019 0.16388 0.0
H669 H 0.66666 0.82569 0.16351 0.0
H670 H 0.65959 0.77455 0.12372 0.0
H671 H 0.65282 0.81743 0.07831 0.0
C672 C 0.65505 0.87718 0.1239 0.0
C673 C 0.65259 0.86641 0.14723 0.0
C674 C 0.65859 0.87098 0.09937 0.0
C675 C 0.66016 0.85388 0.09813 0.0
C676 C 0.65723 0.84236 0.12142 0.0
C677 C 0.65292 0.84875 0.14572 0.0
C678 C 0.65885 0.82398 0.12109 0.0
C679 C 0.66309 0.81718 0.14523 0.0
C680 C 0.66251 0.79908 0.14644 0.0
C681 C 0.65931 0.78826 0.12299 0.0
C682 C 0.65648 0.79514 0.0984 0.0
C683 C 0.65589 0.81281 0.09737 0.0
H684 H 0.24202 0.89233 0.12746 0.0
H685 H 0.19726 0.84383 0.08452 0.0
H686 H 0.18987 0.85325 0.1686 0.0
H687 H 0.17032 0.82308 0.17142 0.0
H688 H 0.12416 0.77449 0.1303 0.0
H689 H 0.16678 0.8219 0.08418 0.0
C690 C 0.22756 0.87955 0.12739 0.0
C691 C 0.2168 0.87366 0.15099 0.0
C692 C 0.2202 0.86927 0.10345 0.0
C693 C 0.20203 0.85189 0.10316 0.0
C694 C 0.19072 0.84504 0.12692 0.0
C695 C 0.19826 0.85679 0.15045 0.0
C696 C 0.17161 0.82566 0.12767 0.0
C697 C 0.16334 0.81652 0.1526 0.0
C698 C 0.14579 0.79852 0.15377 0.0
C699 C 0.13708 0.78887 0.12979 0.0
C700 C 0.14472 0.79715 0.10494 0.0
C701 C 0.1616 0.8157 0.10376 0.0
H702 H 0.35457 0.12018 0.88289 0.0
H703 H 0.34194 0.15849 0.92939 0.0
H704 H 0.36527 0.17474 0.84911 0.0
H705 H 0.34442 0.18668 0.84827 0.0
H706 H 0.3544 0.2385 0.89019 0.0
H707 H 0.35837 0.19319 0.93326 0.0
C708 C 0.35441 0.13389 0.88473 0.0
C709 C 0.36058 0.14698 0.86329 0.0
C710 C 0.34786 0.13794 0.90853 0.0
C711 C 0.34728 0.15557 0.91102 0.0
C712 C 0.35307 0.169 0.8893 0.0
C713 C 0.35999 0.16451 0.86568 0.0
C714 C 0.35189 0.18758 0.89052 0.0
C715 C 0.34811 0.19511 0.86668 0.0
C716 C 0.34908 0.2135 0.86622 0.0
C717 C 0.35304 0.22404 0.89022 0.0
C718 C 0.35585 0.21665 0.9144 0.0
C719 C 0.35535 0.19842 0.91466 0.0
H720 H 0.7784 0.13074 0.89078 0.0
H721 H 0.82644 0.17408 0.93688 0.0
H722 H 0.82461 0.17857 0.84999 0.0
H723 H 0.85517 0.19545 0.852 0.0
H724 H 0.89795 0.24707 0.8917 0.0
H725 H 0.84874 0.2052 0.93623 0.0
C726 C 0.79217 0.1444 0.8915 0.0
C727 C 0.80107 0.15365 0.86767 0.0
C728 C 0.8011 0.152 0.91632 0.0
C729 C 0.81955 0.16904 0.91745 0.0
C730 C 0.82879 0.17915 0.89356 0.0
C731 C 0.81888 0.17125 0.86882 0.0
C732 C 0.84854 0.19767 0.89391 0.0
C733 C 0.85971 0.20415 0.87011 0.0
C734 C 0.87696 0.22225 0.86898 0.0
C735 C 0.88421 0.23339 0.89228 0.0
C736 C 0.8744 0.22696 0.91655 0.0
C737 C 0.85642 0.20935 0.91741 0.0
H738 H 0.77763 0.66019 0.87149 0.0
H739 H 0.82557 0.67029 0.92295 0.0
H740 H 0.82773 0.6618 0.83714 0.0
H741 H 0.85889 0.67901 0.84265 0.0
H742 H 0.89987 0.6698 0.88856 0.0
H743 H 0.84741 0.66026 0.92577 0.0
C744 C 0.792 0.66166 0.87397 0.0
C745 C 0.80208 0.66117 0.85146 0.0
C746 C 0.80022 0.6645 0.89965 0.0
C747 C 0.81928 0.6675 0.90296 0.0
C748 C 0.82983 0.66667 0.88052 0.0
C749 C 0.82072 0.66326 0.85481 0.0
C750 C 0.84995 0.66889 0.88357 0.0
C751 C 0.86268 0.67456 0.86129 0.0
C752 C 0.88055 0.67464 0.86268 0.0
C753 C 0.88634 0.67024 0.88712 0.0
C754 C 0.87483 0.66584 0.9099 0.0
C755 C 0.85649 0.66474 0.90817 0.0
H756 H 0.91594 0.69584 0.47082 0.0
H757 H 0.86549 0.6787 0.42073 0.0
H758 H 0.86454 0.69165 0.50509 0.0
H759 H 0.83346 0.66962 0.50126 0.0
H760 H 0.78881 0.6734 0.45617 0.0
H761 H 0.84294 0.6891 0.41845 0.0
C762 C 0.90113 0.69321 0.46846 0.0
C763 C 0.89105 0.69394 0.49088 0.0
C764 C 0.89216 0.68813 0.44315 0.0
C765 C 0.87247 0.6833 0.44023 0.0
C766 C 0.86201 0.6844 0.46257 0.0
C767 C 0.87176 0.69008 0.4877 0.0
C768 C 0.84112 0.67987 0.46012 0.0
C769 C 0.82861 0.67308 0.48267 0.0
C770 C 0.80978 0.67089 0.48165 0.0
C771 C 0.80301 0.67435 0.45732 0.0
C772 C 0.81465 0.6803 0.43455 0.0
C773 C 0.83377 0.68338 0.43591 0.0
H774 H 0.33184 0.23094 0.45875 0.0
H775 H 0.33868 0.18867 0.41244 0.0
H776 H 0.31929 0.17679 0.49507 0.0
H777 H 0.33583 0.16179 0.49621 0.0
H778 H 0.32842 0.11058 0.45627 0.0
H779 H 0.32544 0.15545 0.41021 0.0
C780 C 0.33073 0.21661 0.45719 0.0
C781 C 0.32557 0.20455 0.47965 0.0
C782 C 0.33515 0.21081 0.43296 0.0
C783 C 0.33456 0.1926 0.43109 0.0
C784 C 0.3293 0.18002 0.45367 0.0
C785 C 0.32422 0.18613 0.47758 0.0
C786 C 0.32979 0.16104 0.45334 0.0
C787 C 0.33267 0.15351 0.47777 0.0
C788 C 0.3314 0.1351 0.47905 0.0
C789 C 0.32867 0.12454 0.45546 0.0
C790 C 0.32711 0.13205 0.43064 0.0
C791 C 0.32737 0.15017 0.42946 0.0
H792 H 0.90734 0.22678 0.45512 0.0
H793 H 0.86294 0.17692 0.41352 0.0
H794 H 0.86083 0.18234 0.50016 0.0
H795 H 0.84193 0.15205 0.50141 0.0
H796 H 0.79171 0.10638 0.46251 0.0
H797 H 0.83276 0.15428 0.41542 0.0
C798 C 0.89389 0.21282 0.45576 0.0
C799 C 0.88539 0.20499 0.48042 0.0
C800 C 0.88571 0.20288 0.43181 0.0
C801 C 0.86838 0.18462 0.43233 0.0
C802 C 0.85871 0.17652 0.45702 0.0
C803 C 0.86748 0.18741 0.48086 0.0
C804 C 0.84002 0.15679 0.45833 0.0
C805 C 0.83345 0.14662 0.48317 0.0
C806 C 0.81599 0.12863 0.48488 0.0
C807 C 0.80523 0.12025 0.4615 0.0
C808 C 0.81164 0.12913 0.43659 0.0
C809 C 0.82862 0.14757 0.43496 0.0
H810 H 0.02785 0.45778 0.21457 0.0
H811 H 0.01721 0.49793 0.25929 0.0
H812 H 0.03565 0.5099 0.1762 0.0
H813 H 0.0208 0.52664 0.17511 0.0
H814 H 0.02409 0.57484 0.21913 0.0
H815 H 0.02918 0.53012 0.26169 0.0
C816 C 0.02748 0.47143 0.21534 0.0
C817 C 0.03189 0.48311 0.19248 0.0
C818 C 0.02278 0.477 0.23944 0.0
C819 C 0.02143 0.49424 0.24057 0.0
C820 C 0.02564 0.50646 0.21762 0.0
C821 C 0.03122 0.50067 0.19378 0.0
C822 C 0.02466 0.52528 0.21838 0.0
C823 C 0.02254 0.5338 0.19422 0.0
C824 C 0.02322 0.55206 0.19426 0.0
C825 C 0.02426 0.56108 0.21878 0.0
C826 C 0.02627 0.5532 0.24293 0.0
C827 C 0.02667 0.53544 0.24285 0.0
H828 H 0.44629 0.46671 0.22392 0.0
H829 H 0.49486 0.50966 0.26959 0.0
H830 H 0.49242 0.51422 0.1827 0.0
H831 H 0.52278 0.53135 0.18414 0.0
H832 H 0.56679 0.5821 0.22393 0.0
H833 H 0.51794 0.54037 0.26916 0.0
C834 C 0.46014 0.4803 0.22452 0.0
C835 C 0.46888 0.48951 0.20064 0.0
C836 C 0.4693 0.48779 0.24923 0.0
C837 C 0.48782 0.50473 0.25022 0.0
C838 C 0.49697 0.51483 0.22627 0.0
C839 C 0.48681 0.50699 0.20161 0.0
C840 C 0.51687 0.53321 0.22648 0.0
C841 C 0.52769 0.53981 0.20242 0.0
C842 C 0.5451 0.55773 0.20121 0.0
C843 C 0.5529 0.56857 0.22462 0.0
C844 C 0.54347 0.56203 0.24912 0.0
C845 C 0.5253 0.5446 0.25012 0.0
H846 H 0.44736 0.99806 0.20458 0.0
H847 H 0.49087 0.99683 0.25527 0.0
H848 H 0.49957 1.0055 0.16916 0.0
H849 H 0.51779 0.99275 0.17324 0.0
H850 H 0.56743 1.00191 0.21967 0.0
H851 H 0.52206 1.00721 0.25809 0.0
C852 C 0.46143 0.99878 0.20675 0.0
C853 C 0.47243 1.00093 0.18401 0.0
C854 C 0.46826 0.99779 0.23231 0.0
C855 C 0.48642 0.99858 0.23533 0.0
C856 C 0.49814 1.00091 0.2126 0.0
C857 C 0.49101 1.00281 0.18705 0.0
C858 C 0.51735 1.0009 0.21502 0.0
C859 C 0.52553 0.99692 0.19222 0.0
C860 C 0.54364 0.99751 0.19363 0.0
C861 C 0.55343 1.00141 0.21826 0.0
C862 C 0.54537 1.00425 0.24144 0.0
C863 C 0.52759 1.00438 0.2399 0.0
H864 H 0.58395 0.03122 0.79701 0.0
H865 H 0.53363 0.01407 0.74649 0.0
H866 H 0.53215 0.02601 0.8311 0.0
H867 H 0.50138 1.00372 0.82725 0.0
H868 H 0.45639 1.00752 0.78316 0.0
H869 H 0.51039 0.02375 0.74468 0.0
C870 C 0.56912 0.02849 0.7945 0.0
C871 C 0.55876 0.02868 0.81693 0.0
C872 C 0.56031 0.02363 0.76906 0.0
C873 C 0.54053 0.01855 0.76606 0.0
C874 C 0.52985 0.01921 0.78846 0.0
C875 C 0.53949 0.02475 0.81364 0.0
C876 C 0.50884 0.01431 0.78618 0.0
C877 C 0.49642 1.00727 0.80883 0.0
C878 C 0.47757 1.00505 0.8082 0.0
C879 C 0.47061 1.00849 0.78403 0.0
C880 C 0.48212 0.01458 0.76113 0.0
C881 C 0.50131 0.01784 0.76218 0.0
H882 H 0.99031 0.55834 0.79243 0.0
H883 H 1.0 0.51809 0.74582 0.0
H884 H 0.98561 0.50738 0.8303 0.0
H885 H 1.00375 0.49388 0.82933 0.0
H886 H 0.99569 0.4424 0.78928 0.0
H887 H 0.98771 0.48493 0.74481 0.0
C888 C 0.99058 0.54466 0.79107 0.0
C889 C 0.98799 0.53359 0.81413 0.0
C890 C 0.99457 0.53895 0.76647 0.0
C891 C 0.99619 0.52188 0.76482 0.0
C892 C 0.99317 0.51009 0.78789 0.0
C893 C 0.98863 0.5161 0.8123 0.0
C894 C 0.995 0.49185 0.78725 0.0
C895 C 0.99985 0.48525 0.81111 0.0
C896 C 0.99932 0.46715 0.81212 0.0
C897 C 0.99554 0.45618 0.7887 0.0
C898 C 0.99198 0.46281 0.76437 0.0
C899 C 0.99136 0.48047 0.76357 0.0
H900 H 0.57337 0.55611 0.79633 0.0
H901 H 0.52804 0.50762 0.75376 0.0
H902 H 0.5224 0.5155 0.83883 0.0
H903 H 0.50607 0.48394 0.84043 0.0
H904 H 0.45506 0.43891 0.80163 0.0
H905 H 0.4964 0.48707 0.75492 0.0
C906 C 0.55903 0.54314 0.79653 0.0
C907 C 0.54885 0.53677 0.82056 0.0
C908 C 0.55127 0.53312 0.7725 0.0
C909 C 0.53327 0.51555 0.77246 0.0
C910 C 0.52262 0.50828 0.79664 0.0
C911 C 0.53049 0.51966 0.82035 0.0
C912 C 0.50373 0.48888 0.79768 0.0
C913 C 0.49729 0.47859 0.82236 0.0
C914 C 0.47972 0.46071 0.82397 0.0
C915 C 0.46867 0.4527 0.80066 0.0
C916 C 0.47494 0.46184 0.77586 0.0
C917 C 0.49218 0.48008 0.77431 0.0
H918 H 0.68965 0.78725 0.54647 0.0
H919 H 0.67651 0.82539 0.59233 0.0
H920 H 0.70107 0.84199 0.51264 0.0
H921 H 0.68336 0.85656 0.51066 0.0
H922 H 0.68633 0.90424 0.55594 0.0
H923 H 0.69186 0.85915 0.59706 0.0
C924 C 0.68949 0.80097 0.54823 0.0
C925 C 0.69592 0.81413 0.52687 0.0
C926 C 0.68273 0.80497 0.57184 0.0
C927 C 0.68213 0.82261 0.57412 0.0
C928 C 0.68825 0.83619 0.5525 0.0
C929 C 0.69544 0.83172 0.52912 0.0
C930 C 0.68717 0.85488 0.55381 0.0
C931 C 0.68497 0.86358 0.52989 0.0
C932 C 0.68546 0.88176 0.53038 0.0
C933 C 0.68656 0.89052 0.55517 0.0
C934 C 0.68888 0.88253 0.57906 0.0
C935 C 0.68927 0.86476 0.57851 0.0
H936 H 0.11602 0.79918 0.55618 0.0
H937 H 0.16401 0.84348 0.60119 0.0
H938 H 0.16004 0.84822 0.51454 0.0
H939 H 0.19024 0.86653 0.51521 0.0
H940 H 0.23368 0.91764 0.55505 0.0
H941 H 0.18617 0.87443 0.60076 0.0
C942 C 0.1295 0.81313 0.55662 0.0
C943 C 0.13758 0.82275 0.53266 0.0
C944 C 0.13881 0.82084 0.58117 0.0
C945 C 0.15685 0.83836 0.58193 0.0
C946 C 0.16535 0.84879 0.55791 0.0
C947 C 0.15501 0.84074 0.53344 0.0
C948 C 0.18477 0.86773 0.55787 0.0
C949 C 0.19516 0.87488 0.53357 0.0
C950 C 0.21223 0.89313 0.53227 0.0
C951 C 0.22003 0.90387 0.55577 0.0
C952 C 0.21097 0.89688 0.58041 0.0
C953 C 0.19321 0.87905 0.58155 0.0
H954 H 0.1115 0.33097 0.54226 0.0
H955 H 0.16022 0.34255 0.5935 0.0
H956 H 0.15903 0.32641 0.51 0.0
H957 H 0.19073 0.34619 0.51386 0.0
H958 H 0.2321 0.3374 0.55965 0.0
H959 H 0.18006 0.32888 0.59742 0.0
C960 C 0.12556 0.3318 0.54518 0.0
C961 C 0.13448 0.32843 0.52343 0.0
C962 C 0.1347 0.33686 0.57041 0.0
C963 C 0.15311 0.33824 0.57404 0.0
C964 C 0.16247 0.33481 0.55223 0.0
C965 C 0.15269 0.32964 0.52706 0.0
C966 C 0.18242 0.33684 0.5551 0.0
C967 C 0.19484 0.34208 0.53256 0.0
C968 C 0.21268 0.34209 0.53378 0.0
C969 C 0.21863 0.33796 0.5583 0.0
C970 C 0.2073 0.3339 0.58126 0.0
C971 C 0.18906 0.333 0.57972 0.0
C972 C 0.05559 0.44049 0.05914 0.0
C973 C 0.04097 0.42072 0.05714 0.0
C974 C 0.0557 0.45248 0.08011 0.0
C975 C 0.04106 0.44447 0.09987 0.0
C976 C 0.0266 0.42442 0.09843 0.0
C977 C 0.02666 0.41283 0.07703 0.0
C978 C 0.07127 0.47381 0.08083 0.0
C979 C 1.01093 0.41523 0.11939 0.0
C980 C 0.04902 0.46796 0.16865 0.0
C981 C 0.03684 0.47632 0.1674 0.0
C982 C 0.05106 0.45814 0.14654 0.0
C983 C 0.04093 0.45689 0.12235 0.0
C984 C 0.02967 0.46645 0.12035 0.0
C985 C 0.02771 0.47602 0.14296 0.0
C986 C 0.06321 0.44818 0.14956 0.0
C987 C 0.01891 0.46572 0.09475 0.0
H988 H 0.06672 0.44681 0.04392 0.0
H989 H 0.01534 0.3976 0.07579 0.0
H990 H 0.0644 0.48321 0.0799 0.0
H991 H 0.07962 0.47721 0.1 0.0
H992 H 0.08164 0.47779 0.06395 0.0
H993 H 1.00098 0.39936 0.11569 0.0
H994 H 0.01769 0.41706 0.1396 0.0
H995 H 1.00214 0.42276 0.11969 0.0
H996 H 0.05642 0.46847 0.18736 0.0
H997 H 0.01823 0.48238 0.14189 0.0
H998 H 0.07387 0.45254 0.13306 0.0
H999 H 0.0536 0.43205 0.14825 0.0
H1000 H 0.07126 0.45171 0.16903 0.0
H1001 H 0.02885 0.46995 0.07737 0.0
H1002 H 1.0125 0.47556 0.09553 0.0
H1003 H 1.00696 0.45052 0.09115 0.0
C1004 C 0.5959 0.60219 0.05948 0.0
C1005 C 0.61611 0.61261 0.06387 0.0
C1006 C 0.58317 0.59119 0.08011 0.0
C1007 C 0.59089 0.59071 0.10573 0.0
C1008 C 0.61136 0.60081 0.10998 0.0
C1009 C 0.62371 0.61199 0.08912 0.0
C1010 C 0.56145 0.58092 0.07486 0.0
C1011 C 0.62019 0.60045 0.13687 0.0
C1012 C 0.56184 0.58505 0.16849 0.0
C1013 C 0.55536 0.56548 0.1755 0.0
C1014 C 0.57285 0.59321 0.14533 0.0
C1015 C 0.57763 0.58153 0.12886 0.0
C1016 C 0.57044 0.56154 0.13531 0.0
C1017 C 0.5594 0.55374 0.15861 0.0
C1018 C 0.57973 0.61445 0.13884 0.0
C1019 C 0.57509 0.54855 0.1184 0.0
H1020 H 0.59005 0.60303 0.04001 0.0
H1021 H 0.63928 0.6207 0.09276 0.0
H1022 H 0.55456 0.56541 0.08141 0.0
H1023 H 0.55485 0.58809 0.08671 0.0
H1024 H 0.55787 0.5813 0.05331 0.0
H1025 H 0.63637 0.60787 0.13631 0.0
H1026 H 0.61592 0.60785 0.15215 0.0
H1027 H 0.61454 0.58507 0.1435 0.0
H1028 H 0.55843 0.59407 0.18133 0.0
H1029 H 0.5545 0.53864 0.16409 0.0
H1030 H 0.57551 0.61582 0.11796 0.0
H1031 H 0.59588 0.62302 0.14025 0.0
H1032 H 0.57362 0.62109 0.15266 0.0
H1033 H 0.57327 0.55067 0.09677 0.0
H1034 H 0.56577 0.53279 0.12334 0.0
H1035 H 0.59051 0.5526 0.12208 0.0
C1036 C 0.41069 0.01556 0.07127 0.0
C1037 C 0.40851 1.00576 0.04699 0.0
C1038 C 0.4237 0.01615 0.09123 0.0
C1039 C 0.43431 1.00614 0.0871 0.0
C1040 C 0.43244 0.99656 0.0623 0.0
C1041 C 0.41943 0.99636 0.04261 0.0
C1042 C 0.42538 0.02671 0.11724 0.0
C1043 C 0.44339 0.98565 0.05708 0.0
C1044 C 0.47427 0.0158 0.13865 0.0
C1045 C 0.46391 1.00092 0.15727 0.0
C1046 C 0.46514 0.01724 0.115 0.0
C1047 C 0.44521 1.00355 0.11 0.0
C1048 C 0.43508 0.98785 0.12807 0.0
C1049 C 0.44456 0.98671 0.1514 0.0
C1050 C 0.47658 0.034 0.09619 0.0
C1051 C 0.41394 0.97267 0.1234 0.0
H1052 H 0.40176 0.02228 0.07496 0.0
H1053 H 0.41749 0.98852 0.02392 0.0
H1054 H 0.41923 0.01592 0.13381 0.0
H1055 H 0.44094 0.03687 0.12222 0.0
H1056 H 0.41752 0.03521 0.11635 0.0
H1057 H 0.44225 0.98111 0.03574 0.0
H1058 H 0.45903 0.99484 0.06256 0.0
H1059 H 0.43738 0.97232 0.06979 0.0
H1060 H 0.48921 0.02683 0.14314 0.0
H1061 H 0.43663 0.97495 0.16556 0.0
H1062 H 0.47373 0.02889 0.07505 0.0
H1063 H 0.49253 0.04117 0.10025 0.0
H1064 H 0.47189 0.04508 0.09877 0.0
H1065 H 0.40474 0.97973 0.12458 0.0
H1066 H 0.40862 0.96064 0.13836 0.0
H1067 H 0.41189 0.96624 0.10303 0.0
C1068 C 0.41847 0.02521 0.91612 0.0
C1069 C 0.40924 0.0113 0.93631 0.0
C1070 C 0.42903 0.02215 0.89597 0.0
C1071 C 0.43108 1.00516 0.89675 0.0
C1072 C 0.42188 0.99115 0.9173 0.0
C1073 C 0.41078 0.99423 0.93657 0.0
C1074 C 0.43809 0.03715 0.87394 0.0
C1075 C 0.42432 0.97326 0.91949 0.0
C1076 C 0.44522 0.99096 0.83138 0.0
C1077 C 0.46572 1.00146 0.83297 0.0
C1078 C 0.43373 0.99157 0.85227 0.0
C1079 C 0.44287 1.00218 0.87596 0.0
C1080 C 0.46342 0.01115 0.87884 0.0
C1081 C 0.47462 0.01093 0.85719 0.0
C1082 C 0.41192 0.98203 0.84813 0.0
C1083 C 0.47368 0.02194 0.90422 0.0
H1084 H 0.41739 0.03847 0.9161 0.0
H1085 H 0.40401 0.9837 0.95262 0.0
H1086 H 0.45421 0.04404 0.87503 0.0
H1087 H 0.43336 0.02993 0.85402 0.0
H1088 H 0.43411 0.04889 0.87527 0.0
H1089 H 0.41608 0.96369 0.93654 0.0
H1090 H 0.41934 0.96454 0.9007 0.0
H1091 H 0.44 0.97788 0.92225 0.0
H1092 H 0.43812 0.98307 0.81312 0.0
H1093 H 0.49039 0.01913 0.85879 0.0
H1094 H 0.40759 0.99353 0.84731 0.0
H1095 H 0.40414 0.97229 0.86521 0.0
H1096 H 0.40695 0.97333 0.82928 0.0
H1097 H 0.47332 0.03588 0.90546 0.0
H1098 H 0.48916 0.02542 0.90493 0.0
H1099 H 0.46614 0.01312 0.92215 0.0
C1100 C 0.02401 0.40984 0.92199 0.0
C1101 C 0.01762 0.41042 0.94786 0.0
C1102 C 0.02255 0.42126 0.90129 0.0
C1103 C 0.01371 0.43286 0.9064 0.0
C1104 C 1.0073 0.43353 0.93262 0.0
C1105 C 1.00932 0.42226 0.95305 0.0
C1106 C 0.02983 0.42036 0.87373 0.0
C1107 C 0.99744 0.44538 0.93877 0.0
C1108 C 0.01892 0.47031 0.85355 0.0
C1109 C 1.0023 0.45924 0.83765 0.0
C1110 C 0.02261 0.46216 0.8765 0.0
C1111 C 1.00932 0.44253 0.88369 0.0
C1112 C 0.99205 0.43164 0.86829 0.0
C1113 C 0.98882 0.44008 0.84536 0.0
C1114 C 0.04121 0.47428 0.89213 0.0
C1115 C 0.97716 0.41088 0.87567 0.0
H1116 H 0.02966 0.40004 0.91776 0.0
H1117 H 1.00402 0.42236 0.97301 0.0
H1118 H 0.01739 0.41352 0.85936 0.0
H1119 H 0.03986 0.4354 0.86644 0.0
H1120 H 0.0376 0.41178 0.87356 0.0
H1121 H 1.00654 0.46072 0.93193 0.0
H1122 H 0.98333 0.43915 0.9277 0.0
H1123 H 0.9946 0.44549 0.96054 0.0
H1124 H 0.02938 0.4851 0.84748 0.0
H1125 H 0.97581 0.43162 0.8332 0.0
H1126 H 0.05164 0.46919 0.88711 0.0
H1127 H 0.03855 0.47246 0.91402 0.0
H1128 H 0.04804 0.49012 0.88716 0.0
H1129 H 0.9836 0.40118 0.8735 0.0
H1130 H 0.96382 0.40501 0.86285 0.0
H1131 H 0.97289 0.41021 0.89696 0.0
C1132 C 0.62636 0.59186 0.93614 0.0
C1133 C 0.62133 0.60209 0.95441 0.0
C1134 C 0.61348 0.58091 0.91521 0.0
C1135 C 0.59488 0.57958 0.9133 0.0
C1136 C 0.58956 0.58942 0.93231 0.0
C1137 C 0.60299 0.60085 0.95235 0.0
C1138 C 0.61991 0.57111 0.89485 0.0
C1139 C 0.56964 0.5878 0.93158 0.0
C1140 C 0.56989 0.56837 0.84505 0.0
C1141 C 0.55821 0.54785 0.84576 0.0
C1142 C 0.58179 0.57883 0.8669 0.0
C1143 C 0.5814 0.5687 0.89063 0.0
C1144 C 0.56855 0.54823 0.89232 0.0
C1145 C 0.55729 0.53799 0.86973 0.0
C1146 C 0.59545 0.60061 0.8641 0.0
C1147 C 0.56717 0.53703 0.91767 0.0
H1148 H 0.64051 0.59277 0.93792 0.0
H1149 H 0.59895 0.60843 0.96692 0.0
H1150 H 0.60975 0.55507 0.89471 0.0
H1151 H 0.61949 0.57663 0.87445 0.0
H1152 H 0.63491 0.57376 0.89899 0.0
H1153 H 0.56732 0.59524 0.94895 0.0
H1154 H 0.56779 0.59441 0.91285 0.0
H1155 H 0.55812 0.57215 0.93156 0.0
H1156 H 0.57026 0.57625 0.82695 0.0
H1157 H 0.54839 0.52217 0.87055 0.0
H1158 H 0.61077 0.60387 0.86681 0.0
H1159 H 0.59256 0.60873 0.87992 0.0
H1160 H 0.59403 0.60627 0.8442 0.0
H1161 H 0.58093 0.53665 0.92089 0.0
H1162 H 0.55489 0.52171 0.91681 0.0
H1163 H 0.56522 0.54448 0.93531 0.0
C1164 C 1.01127 0.61423 0.92146 0.0
C1165 C 1.00387 0.60851 0.94731 0.0
C1166 C 1.00817 0.60022 0.9017 0.0
C1167 C 0.99649 0.57999 0.90756 0.0
C1168 C 0.98866 0.57416 0.93357 0.0
C1169 C 0.99254 0.58851 0.95317 0.0
C1170 C 0.0172 0.60706 0.87444 0.0
C1171 C 0.97584 0.55281 0.94046 0.0
C1172 C 0.97471 0.54952 0.8445 0.0
C1173 C 0.98725 0.54189 0.84046 0.0
C1174 C 0.9767 0.56085 0.86734 0.0
C1175 C 0.99195 0.5651 0.88608 0.0
C1176 C 1.00378 0.55631 0.88282 0.0
C1177 C 1.00122 0.54475 0.86013 0.0
C1178 C 0.96304 0.569 0.87074 0.0
C1179 C 0.02039 0.56039 0.9017 0.0
H1180 H 0.01917 0.62968 0.91654 0.0
H1181 H 0.98641 0.5841 0.97303 0.0
H1182 H 0.02602 0.60005 0.86936 0.0
H1183 H 1.00561 0.60258 0.85886 0.0
H1184 H 0.02666 0.62323 0.87354 0.0
H1185 H 0.97062 0.55071 0.96147 0.0
H1186 H 0.963 0.54613 0.9267 0.0
H1187 H 0.98399 0.54477 0.93764 0.0
H1188 H 0.96379 0.54717 0.82933 0.0
H1189 H 1.01111 0.53907 0.85687 0.0
H1190 H 0.97099 0.58502 0.867 0.0
H1191 H 0.95756 0.56672 0.89161 0.0
H1192 H 0.95037 0.56211 0.85668 0.0
H1193 H 0.02333 0.54792 0.90227 0.0
H1194 H 0.01762 0.56343 0.9224 0.0
H1195 H 0.03365 0.57337 0.89408 0.0
C1196 C 0.44066 0.40023 0.96187 0.0
C1197 C 0.4207 0.39416 0.96423 0.0
C1198 C 0.45154 0.41157 0.94006 0.0
C1199 C 0.44226 0.4168 0.91979 0.0
C1200 C 0.42208 0.4105 0.92173 0.0
C1201 C 0.41157 0.39935 0.94398 0.0
C1202 C 0.47304 0.4181 0.93883 0.0
C1203 C 0.4116 0.41556 0.90031 0.0
C1204 C 0.47193 0.45969 0.87298 0.0
C1205 C 0.47249 0.44996 0.84974 0.0
C1206 C 0.46257 0.44914 0.89623 0.0
C1207 C 0.45351 0.42839 0.89613 0.0
C1208 C 0.45475 0.41859 0.87309 0.0
C1209 C 0.46435 0.42949 0.85031 0.0
C1210 C 0.4618 0.46013 0.92057 0.0
C1211 C 0.44536 0.39652 0.87213 0.0
H1212 H 0.44797 0.39642 0.97736 0.0
H1213 H 0.3962 0.39478 0.94552 0.0
H1214 H 0.47613 0.41225 0.92041 0.0
H1215 H 0.48165 0.43432 0.93773 0.0
H1216 H 0.47816 0.41315 0.95651 0.0
H1217 H 0.39587 0.4095 0.90473 0.0
H1218 H 0.41846 0.43171 0.89835 0.0
H1219 H 0.4129 0.40976 0.88061 0.0
H1220 H 0.47811 0.47548 0.87263 0.0
H1221 H 0.46505 0.4219 0.83257 0.0
H1222 H 0.46708 0.45575 0.93863 0.0
H1223 H 0.44648 0.45633 0.92431 0.0
H1224 H 0.47071 0.47627 0.91811 0.0
H1225 H 0.45085 0.39121 0.88896 0.0
H1226 H 0.44819 0.3912 0.85296 0.0
H1227 H 0.42935 0.38985 0.87453 0.0
C1228 C 0.60927 0.02792 0.9587 0.0
C1229 C 0.6188 0.01736 0.95255 0.0
C1230 C 0.59836 0.03135 0.93908 0.0
C1231 C 0.59685 0.02387 0.91282 0.0
C1232 C 0.60633 0.01302 0.90667 0.0
C1233 C 0.61762 0.01036 0.92645 0.0
C1234 C 0.58884 0.04334 0.94623 0.0
C1235 C 0.6048 1.00446 0.87905 0.0
C1236 C 0.5568 0.01633 0.86347 0.0
C1237 C 0.56741 0.03045 0.84405 0.0
C1238 C 0.56584 0.01488 0.88704 0.0
C1239 C 0.58601 0.02786 0.8913 0.0
C1240 C 0.59633 0.04335 0.87296 0.0
C1241 C 0.58694 0.04435 0.84937 0.0
C1242 C 0.55395 0.99823 0.9058 0.0
C1243 C 0.61758 0.05818 0.87743 0.0
H1244 H 0.61064 0.03378 0.97878 0.0
H1245 H 0.62586 1.00314 0.92137 0.0
H1246 H 0.59445 0.05643 0.93308 0.0
H1247 H 0.57286 0.03463 0.94273 0.0
H1248 H 0.59157 0.04828 0.9675 0.0
H1249 H 0.61231 0.99566 0.87791 0.0
H1250 H 0.58921 0.995 0.8734 0.0
H1251 H 0.61133 0.01637 0.864 0.0
H1252 H 0.54171 1.00546 0.85942 0.0
H1253 H 0.5951 0.05552 0.83456 0.0
H1254 H 0.55971 1.00134 0.92664 0.0
H1255 H 0.55418 0.98504 0.89839 0.0
H1256 H 0.53849 0.99482 0.90591 0.0
H1257 H 0.62023 0.06343 0.89853 0.0
H1258 H 0.62252 0.07099 0.86386 0.0
H1259 H 0.62664 0.05121 0.87371 0.0
C1260 C 0.61716 1.00574 0.08009 0.0
C1261 C 0.60907 0.99097 0.06045 0.0
C1262 C 0.606 1.00594 0.10176 0.0
C1263 C 0.58621 0.99111 0.10376 0.0
C1264 C 0.57807 0.97594 0.08438 0.0
C1265 C 0.58961 0.97598 0.06311 0.0
C1266 C 0.61528 0.02221 0.12228 0.0
C1267 C 0.55701 0.95992 0.08574 0.0
C1268 C 0.56226 0.9831 0.1718 0.0
C1269 C 0.5527 0.99417 0.16959 0.0
C1270 C 0.57302 0.98181 0.15046 0.0
C1271 C 0.57401 0.99154 0.12608 0.0
C1272 C 0.56369 1.00201 0.12326 0.0
C1273 C 0.5532 1.00325 0.14509 0.0
C1274 C 0.58379 0.97049 0.1543 0.0
C1275 C 0.56421 0.01237 0.09743 0.0
H1276 H 0.63216 0.01737 0.07833 0.0
H1277 H 0.58311 0.96448 0.04811 0.0
H1278 H 0.60761 0.03088 0.12222 0.0
H1279 H 0.61382 0.01595 0.14269 0.0
H1280 H 0.63099 0.03226 0.11837 0.0
H1281 H 0.55299 0.94898 0.06934 0.0
H1282 H 0.55419 0.9522 0.10526 0.0
H1283 H 0.54731 0.96642 0.08441 0.0
H1284 H 0.56162 0.97571 0.1905 0.0
H1285 H 0.54597 0.01193 0.14328 0.0
H1286 H 0.5997 0.9805 0.15215 0.0
H1287 H 0.57929 0.95903 0.13859 0.0
H1288 H 0.58114 0.96337 0.1743 0.0
H1289 H 0.57934 0.02421 0.09362 0.0
H1290 H 0.55452 0.01891 0.09794 0.0
H1291 H 0.55973 1.00199 0.08029 0.0
C1292 C 0.04075 0.6127 0.05743 0.0
C1293 C 0.02813 0.62054 0.05561 0.0
C1294 C 0.03961 0.60049 0.0788 0.0
C1295 C 0.02585 0.59636 0.0993 0.0
C1296 C 0.01327 0.60445 0.0979 0.0
C1297 C 0.01445 0.6163 0.07598 0.0
C1298 C 0.05315 0.59199 0.07941 0.0
C1299 C 0.9987 0.60074 0.11971 0.0
C1300 C 1.01233 0.55334 0.14673 0.0
C1301 C 0.0243 0.56281 0.16903 0.0
C1302 C 0.01284 0.564 0.12365 0.0
C1303 C 0.02545 0.58459 0.12305 0.0
C1304 C 0.0378 0.59411 0.14529 0.0
C1305 C 0.03726 0.5831 0.16775 0.0
C1306 C 0.99973 0.55331 0.10005 0.0
C1307 C 0.05141 0.61602 0.14557 0.0
H1308 H 0.05137 0.61579 0.04186 0.0
H1309 H 1.00464 0.62227 0.07483 0.0
H1310 H 0.06299 0.59762 0.09718 0.0
H1311 H 0.04459 0.5758 0.08131 0.0
H1312 H 0.06221 0.59566 0.06111 0.0
H1313 H 0.98979 0.60788 0.11546 0.0
H1314 H 0.98877 0.58476 0.12204 0.0
H1315 H 1.00646 0.60635 0.13917 0.0
H1316 H 1.00229 0.5377 0.14753 0.0
H1317 H 0.04699 0.59049 0.18456 0.0
H1318 H 1.00851 0.55642 0.08158 0.0
H1319 H 0.9892 0.55864 0.09656 0.0
H1320 H 0.99145 0.5372 0.10316 0.0
H1321 H 0.06184 0.62027 0.12878 0.0
H1322 H 0.05984 0.6212 0.16467 0.0
H1323 H 0.04295 0.62376 0.14261 0.0
C1324 C 0.41185 0.40376 0.09804 0.0
C1325 C 0.41007 0.40878 0.07159 0.0
C1326 C 0.42289 0.41828 0.11721 0.0
C1327 C 0.43157 0.43836 0.11007 0.0
C1328 C 0.42963 0.44348 0.08338 0.0
C1329 C 0.41894 0.42862 0.06447 0.0
C1330 C 0.42495 0.41215 0.14526 0.0
C1331 C 0.43835 0.46465 0.07502 0.0
C1332 C 0.44002 0.47191 0.16968 0.0
C1333 C 0.46 0.47951 0.17483 0.0
C1334 C 0.4308 0.45935 0.14775 0.0
C1335 C 0.44174 0.4539 0.13094 0.0
C1336 C 0.46213 0.46243 0.13531 0.0
C1337 C 0.47101 0.47518 0.15712 0.0
C1338 C 0.4092 0.45132 0.14321 0.0
C1339 C 0.47449 0.45701 0.11849 0.0
H1340 H 0.40424 0.38847 0.10387 0.0
H1341 H 0.41718 0.43252 0.04413 0.0
H1342 H 0.44062 0.41905 0.15095 0.0
H1343 H 0.41789 0.41731 0.15979 0.0
H1344 H 0.41826 0.39599 0.14717 0.0
H1345 H 0.4357 0.46619 0.05343 0.0
H1346 H 0.43203 0.47195 0.08716 0.0
H1347 H 0.45432 0.47252 0.07892 0.0
H1348 H 0.43149 0.47535 0.18332 0.0
H1349 H 0.4864 0.48079 0.16127 0.0
H1350 H 0.40124 0.43541 0.14771 0.0
H1351 H 0.40619 0.4531 0.12187 0.0
H1352 H 0.4033 0.45869 0.15607 0.0
H1353 H 0.47332 0.44333 0.12672 0.0
H1354 H 0.49011 0.46853 0.11924 0.0
H1355 H 0.46953 0.45446 0.09725 0.0
C1356 C 0.72347 0.77517 0.39339 0.0
C1357 C 0.70887 0.75544 0.39063 0.0
C1358 C 0.72337 0.78672 0.4148 0.0
C1359 C 0.70843 0.77835 0.43409 0.0
C1360 C 0.69397 0.75835 0.43187 0.0
C1361 C 0.69433 0.74716 0.41017 0.0
C1362 C 0.73904 0.80799 0.41647 0.0
C1363 C 0.6779 0.74882 0.45224 0.0
C1364 C 0.7143 0.80014 0.50366 0.0
C1365 C 0.70218 0.80854 0.50195 0.0
C1366 C 0.71718 0.79102 0.48139 0.0
C1367 C 0.70782 0.7904 0.45672 0.0
C1368 C 0.69667 0.80004 0.45436 0.0
C1369 C 0.69397 0.80901 0.47706 0.0
C1370 C 0.72927 0.78102 0.48475 0.0
C1371 C 0.68663 0.79988 0.42831 0.0
H1372 H 0.73477 0.7818 0.37844 0.0
H1373 H 0.683 0.73196 0.40834 0.0
H1374 H 0.73229 0.8175 0.41522 0.0
H1375 H 0.7468 0.81101 0.43609 0.0
H1376 H 0.74988 0.81218 0.40018 0.0
H1377 H 0.66797 0.73302 0.44794 0.0
H1378 H 0.68426 0.75024 0.47264 0.0
H1379 H 0.66915 0.75638 0.45248 0.0
H1380 H 0.72088 0.79997 0.52283 0.0
H1381 H 0.6845 0.81538 0.47569 0.0
H1382 H 0.74017 0.78548 0.46854 0.0
H1383 H 0.71967 0.76491 0.4832 0.0
H1384 H 0.73703 0.78442 0.50444 0.0
H1385 H 0.69703 0.80441 0.41144 0.0
H1386 H 0.68025 0.80973 0.42897 0.0
H1387 H 0.67474 0.78476 0.42396 0.0
C1388 C 0.26313 0.93902 0.3907 0.0
C1389 C 0.28334 0.94866 0.3951 0.0
C1390 C 0.25017 0.92812 0.4112 0.0
C1391 C 0.25767 0.92696 0.43669 0.0
C1392 C 0.27813 0.93635 0.44096 0.0
C1393 C 0.29071 0.94742 0.42025 0.0
C1394 C 0.22849 0.91858 0.40593 0.0
C1395 C 0.28672 0.93524 0.46771 0.0
C1396 C 0.22901 0.9209 0.50003 0.0
C1397 C 0.22226 0.90116 0.50645 0.0
C1398 C 0.23994 0.92925 0.47686 0.0
C1399 C 0.24428 0.9176 0.45967 0.0
C1400 C 0.23668 0.89744 0.46541 0.0
C1401 C 0.22585 0.88948 0.48881 0.0
C1402 C 0.24727 0.95069 0.47116 0.0
C1403 C 0.24074 0.88441 0.44769 0.0
H1404 H 0.25747 0.94032 0.37132 0.0
H1405 H 0.30631 0.95556 0.42393 0.0
H1406 H 0.22119 0.9029 0.41172 0.0
H1407 H 0.22223 0.92577 0.41841 0.0
H1408 H 0.22503 0.91963 0.38451 0.0
H1409 H 0.30288 0.94226 0.46721 0.0
H1410 H 0.28271 0.94263 0.48334 0.0
H1411 H 0.28064 0.9197 0.47381 0.0
H1412 H 0.22592 0.9299 0.51338 0.0
H1413 H 0.22079 0.87426 0.49377 0.0
H1414 H 0.24316 0.95256 0.45044 0.0
H1415 H 0.26344 0.95893 0.47259 0.0
H1416 H 0.2414 0.95731 0.48541 0.0
H1417 H 0.23947 0.88738 0.42621 0.0
H1418 H 0.23069 0.86862 0.45166 0.0
H1419 H 0.25584 0.88752 0.45171 0.0
C1420 C 0.07291 0.3434 0.41417 0.0
C1421 C 0.07126 0.33564 0.38844 0.0
C1422 C 0.08483 0.34162 0.43388 0.0
C1423 C 0.09452 0.3309 0.4281 0.0
C1424 C 0.09257 0.32269 0.40223 0.0
C1425 C 0.08103 0.32524 0.38266 0.0
C1426 C 0.0868 0.35095 0.46103 0.0
C1427 C 0.10221 0.31074 0.39549 0.0
C1428 C 0.13568 0.33957 0.47642 0.0
C1429 C 0.12546 0.32592 0.49648 0.0
C1430 C 0.1261 0.34063 0.45312 0.0
C1431 C 0.10583 0.32758 0.44971 0.0
C1432 C 0.09591 0.31252 0.46879 0.0
C1433 C 0.10578 0.31205 0.49219 0.0
C1434 C 0.13751 0.35699 0.43373 0.0
C1435 C 0.07459 0.29757 0.46528 0.0
H1436 H 0.06454 0.35052 0.41907 0.0
H1437 H 0.07932 0.31879 0.36291 0.0
H1438 H 0.08064 0.33948 0.47673 0.0
H1439 H 0.10246 0.36067 0.46605 0.0
H1440 H 0.07917 0.35965 0.46183 0.0
H1441 H 0.09923 0.3053 0.37446 0.0
H1442 H 0.11823 0.31968 0.39851 0.0
H1443 H 0.09693 0.29799 0.40922 0.0
H1444 H 0.15087 0.35042 0.47984 0.0
H1445 H 0.09792 0.30137 0.50768 0.0
H1446 H 0.13153 0.35331 0.41302 0.0
H1447 H 0.15308 0.36078 0.43346 0.0
H1448 H 0.13695 0.37013 0.44059 0.0
H1449 H 0.06558 0.30459 0.46895 0.0
H1450 H 0.06995 0.28509 0.4794 0.0
H1451 H 0.07153 0.29181 0.44443 0.0
C1452 C 0.09887 0.37375 0.27629 0.0
C1453 C 0.07969 0.35827 0.27961 0.0
C1454 C 0.11068 0.3736 0.25551 0.0
C1455 C 0.10313 0.35774 0.23719 0.0
C1456 C 0.08366 0.34229 0.23993 0.0
C1457 C 0.07221 0.34269 0.26115 0.0
C1458 C 0.13137 0.39032 0.25342 0.0
C1459 C 0.07498 0.32525 0.22054 0.0
C1460 C 0.1268 0.36567 0.16887 0.0
C1461 C 0.13762 0.35588 0.17156 0.0
C1462 C 0.11563 0.36644 0.19006 0.0
C1463 C 0.11549 0.35753 0.21484 0.0
C1464 C 0.12705 0.34837 0.21814 0.0
C1465 C 0.13795 0.34761 0.19642 0.0
C1466 C 0.10358 0.37639 0.18565 0.0
C1467 C 0.12751 0.33896 0.24441 0.0
H1468 H 0.10494 0.38589 0.29036 0.0
H1469 H 0.05747 0.33064 0.26345 0.0
H1470 H 0.14173 0.3846 0.25481 0.0
H1471 H 0.13355 0.39759 0.23363 0.0
H1472 H 0.13511 0.40149 0.26941 0.0
H1473 H 0.05954 0.31455 0.22514 0.0
H1474 H 0.07567 0.33067 0.19975 0.0
H1475 H 0.08358 0.31753 0.22112 0.0
H1476 H 0.12678 0.37246 0.14989 0.0
H1477 H 0.14618 0.33995 0.19863 0.0
H1478 H 0.10771 0.38828 0.2006 0.0
H1479 H 0.08791 0.3657 0.18857 0.0
H1480 H 0.10541 0.38274 0.16521 0.0
H1481 H 0.13162 0.34969 0.26107 0.0
H1482 H 0.13796 0.33331 0.24418 0.0
H1483 H 0.11276 0.32661 0.24879 0.0
C1484 C 0.67382 0.75488 0.28752 0.0
C1485 C 0.68334 0.74423 0.28199 0.0
C1486 C 0.67076 0.76562 0.26729 0.0
C1487 C 0.67742 0.76566 0.241 0.0
C1488 C 0.68739 0.7552 0.23553 0.0
C1489 C 0.68982 0.74423 0.25599 0.0
C1490 C 0.65972 0.77625 0.27377 0.0
C1491 C 0.69498 0.75511 0.20787 0.0
C1492 C 0.65235 0.77188 0.17948 0.0
C1493 C 0.66535 0.79128 0.17215 0.0
C1494 C 0.65565 0.76368 0.20262 0.0
C1495 C 0.67249 0.77509 0.21859 0.0
C1496 C 0.68513 0.79498 0.21191 0.0
C1497 C 0.68142 0.80284 0.18871 0.0
C1498 C 0.6414 0.74262 0.20951 0.0
C1499 C 0.70321 0.80773 0.22818 0.0
H1500 H 0.66845 0.75449 0.30758 0.0
H1501 H 0.69639 0.73527 0.25149 0.0
H1502 H 0.66822 0.79183 0.26762 0.0
H1503 H 0.64576 0.76959 0.26228 0.0
H1504 H 0.65645 0.77565 0.2955 0.0
H1505 H 0.70348 0.74727 0.20738 0.0
H1506 H 0.68262 0.74791 0.19342 0.0
H1507 H 0.7044 0.77039 0.20092 0.0
H1508 H 0.63971 0.76304 0.16686 0.0
H1509 H 0.69153 0.81782 0.18297 0.0
H1510 H 0.63695 0.74146 0.23079 0.0
H1511 H 0.64849 0.73352 0.20707 0.0
H1512 H 0.62811 0.73641 0.19655 0.0
H1513 H 0.70056 0.80484 0.24994 0.0
H1514 H 0.70865 0.82357 0.2245 0.0
H1515 H 0.71474 0.80438 0.22224 0.0
C1516 C 0.2934 0.92772 0.26731 0.0
C1517 C 0.28882 0.93848 0.2853 0.0
C1518 C 0.28051 0.9171 0.24623 0.0
C1519 C 0.26231 0.91662 0.24388 0.0
C1520 C 0.25745 0.92705 0.26254 0.0
C1521 C 0.27093 0.93815 0.28274 0.0
C1522 C 0.28647 0.90665 0.22625 0.0
C1523 C 0.23794 0.92633 0.26135 0.0
C1524 C 0.23793 0.90538 0.1752 0.0
C1525 C 0.22582 0.88492 0.17619 0.0
C1526 C 0.2497 0.91586 0.19714 0.0
C1527 C 0.24874 0.90585 0.22123 0.0
C1528 C 0.23539 0.88549 0.22319 0.0
C1529 C 0.22428 0.87521 0.20053 0.0
C1530 C 0.26391 0.9375 0.19403 0.0
C1531 C 0.2334 0.87444 0.24889 0.0
H1532 H 0.3072 0.92792 0.26947 0.0
H1533 H 0.26723 0.94613 0.29709 0.0
H1534 H 0.27592 0.89071 0.22644 0.0
H1535 H 0.28625 0.91204 0.20569 0.0
H1536 H 0.30129 0.90885 0.23055 0.0
H1537 H 0.236 0.93435 0.2783 0.0
H1538 H 0.23644 0.93281 0.24227 0.0
H1539 H 0.22598 0.91087 0.26175 0.0
H1540 H 0.23879 0.91316 0.15679 0.0
H1541 H 0.21504 0.85944 0.20158 0.0
H1542 H 0.27905 0.94024 0.1968 0.0
H1543 H 0.26141 0.94602 0.20966 0.0
H1544 H 0.26272 0.94313 0.17401 0.0
H1545 H 0.24679 0.87342 0.2525 0.0
H1546 H 0.2207 0.85935 0.24823 0.0
H1547 H 0.23177 0.88236 0.26621 0.0
C1548 C 0.67652 0.94634 0.25663 0.0
C1549 C 0.66846 0.9403 0.28211 0.0
C1550 C 0.67339 0.93259 0.23646 0.0
C1551 C 0.66104 0.91233 0.24149 0.0
C1552 C 0.65253 0.90619 0.26708 0.0
C1553 C 0.65643 0.92026 0.28713 0.0
C1554 C 0.68309 0.93975 0.20965 0.0
C1555 C 0.63896 0.88482 0.27306 0.0
C1556 C 0.6399 0.88314 0.17725 0.0
C1557 C 0.65201 0.87496 0.17347 0.0
C1558 C 0.64183 0.8943 0.20026 0.0
C1559 C 0.65656 0.89777 0.21954 0.0
C1560 C 0.66797 0.8885 0.21648 0.0
C1561 C 0.66551 0.87717 0.19354 0.0
C1562 C 0.62864 0.90303 0.20337 0.0
C1563 C 0.68397 0.89172 0.23602 0.0
H1564 H 0.68496 0.96186 0.25231 0.0
H1565 H 0.64978 0.91563 0.30667 0.0
H1566 H 0.6719 0.93582 0.19361 0.0
H1567 H 0.69291 0.95588 0.20935 0.0
H1568 H 0.6917 0.93246 0.20474 0.0
H1569 H 0.63331 0.88247 0.29386 0.0
H1570 H 0.62641 0.87882 0.25879 0.0
H1571 H 0.64665 0.87633 0.27024 0.0
H1572 H 0.6293 0.88128 0.16181 0.0
H1573 H 0.67506 0.87107 0.19053 0.0
H1574 H 0.63712 0.91912 0.20033 0.0
H1575 H 0.62265 0.90046 0.22396 0.0
H1576 H 0.61632 0.8968 0.18869 0.0
H1577 H 0.6975 0.90496 0.22966 0.0
H1578 H 0.68684 0.87919 0.23595 0.0
H1579 H 0.68056 0.89396 0.25677 0.0
C1580 C 0.09377 0.72452 0.27419 0.0
C1581 C 0.08604 0.73156 0.29356 0.0
C1582 C 0.10394 0.73617 0.25213 0.0
C1583 C 0.10714 0.75558 0.25012 0.0
C1584 C 0.09977 0.76289 0.27015 0.0
C1585 C 0.08899 0.75064 0.29138 0.0
C1586 C 0.11098 0.7276 0.23075 0.0
C1587 C 0.10344 0.78369 0.2693 0.0
C1588 C 0.14719 0.78953 0.20232 0.0
C1589 C 0.13625 0.78922 0.17969 0.0
C1590 C 0.13792 0.77921 0.22579 0.0
C1591 C 0.11728 0.76786 0.22635 0.0
C1592 C 0.1062 0.76788 0.20386 0.0
C1593 C 0.11577 0.77888 0.18117 0.0
C1594 C 0.15022 0.78012 0.24977 0.0
C1595 C 0.08419 0.75575 0.20336 0.0
H1596 H 0.09159 0.70979 0.27613 0.0
H1597 H 0.08336 0.75619 0.3068 0.0
H1598 H 0.10457 0.72809 0.21099 0.0
H1599 H 0.12706 0.73645 0.22897 0.0
H1600 H 0.10702 0.71217 0.23506 0.0
H1601 H 0.09785 0.78751 0.28737 0.0
H1602 H 0.11932 0.79408 0.26774 0.0
H1603 H 0.0963 0.78581 0.25129 0.0
H1604 H 0.16297 0.79735 0.20151 0.0
H1605 H 0.1071 0.77903 0.16422 0.0
H1606 H 0.14905 0.76558 0.25301 0.0
H1607 H 0.14484 0.78377 0.26816 0.0
H1608 H 0.16585 0.79116 0.24717 0.0
H1609 H 0.07966 0.74008 0.20672 0.0
H1610 H 0.07775 0.75703 0.18403 0.0
H1611 H 0.07797 0.76038 0.21981 0.0
C1612 C 0.27324 0.35815 0.29683 0.0
C1613 C 0.28381 0.34842 0.29226 0.0
C1614 C 0.26091 0.35892 0.27686 0.0
C1615 C 0.25931 0.34988 0.25169 0.0
C1616 C 0.26961 0.33959 0.24732 0.0
C1617 C 0.28203 0.3393 0.26751 0.0
C1618 C 0.25033 0.37018 0.28225 0.0
C1619 C 0.26812 0.32953 0.22091 0.0
C1620 C 0.21978 0.34111 0.20016 0.0
C1621 C 0.2303 0.35604 0.18167 0.0
C1622 C 0.22871 0.33946 0.22382 0.0
C1623 C 0.24866 0.35292 0.22893 0.0
C1624 C 0.25901 0.36868 0.21101 0.0
C1625 C 0.2497 0.37005 0.18764 0.0
C1626 C 0.21701 0.32263 0.24241 0.0
C1627 C 0.28018 0.38365 0.21593 0.0
H1628 H 0.27493 0.3655 0.31589 0.0
H1629 H 0.29078 0.33241 0.26369 0.0
H1630 H 0.25652 0.38354 0.26959 0.0
H1631 H 0.23466 0.36123 0.27681 0.0
H1632 H 0.25158 0.37469 0.30363 0.0
H1633 H 0.27588 0.32093 0.22146 0.0
H1634 H 0.25258 0.31955 0.21559 0.0
H1635 H 0.27447 0.34062 0.20474 0.0
H1636 H 0.20482 0.33018 0.19557 0.0
H1637 H 0.25778 0.38186 0.1736 0.0
H1638 H 0.2203 0.32738 0.26366 0.0
H1639 H 0.221 0.31112 0.23892 0.0
H1640 H 0.20107 0.31613 0.2388 0.0
H1641 H 0.28223 0.3898 0.23649 0.0
H1642 H 0.28562 0.3959 0.20129 0.0
H1643 H 0.28927 0.3765 0.21441 0.0
C1644 C 0.27036 0.32234 0.42156 0.0
C1645 C 0.28025 0.33739 0.403 0.0
C1646 C 0.25988 0.32461 0.44255 0.0
C1647 C 0.25865 0.34202 0.44426 0.0
C1648 C 0.26848 0.35717 0.42533 0.0
C1649 C 0.27945 0.3548 0.40518 0.0
C1650 C 0.2501 0.30837 0.46286 0.0
C1651 C 0.26695 0.37562 0.42588 0.0
C1652 C 0.2157 0.33671 0.48467 0.0
C1653 C 0.22466 0.34494 0.50942 0.0
C1654 C 0.22674 0.33658 0.4628 0.0
C1655 C 0.24713 0.34433 0.46598 0.0
C1656 C 0.25636 0.35342 0.49045 0.0
C1657 C 0.24509 0.35401 0.51161 0.0
C1658 C 0.21646 0.32739 0.43665 0.0
C1659 C 0.27801 0.36158 0.49484 0.0
H1660 H 0.27094 0.30886 0.41973 0.0
H1661 H 0.28678 0.36627 0.39041 0.0
H1662 H 0.25496 0.31426 0.48345 0.0
H1663 H 0.23407 0.30225 0.46183 0.0
H1664 H 0.25335 0.29627 0.45953 0.0
H1665 H 0.27536 0.38593 0.40954 0.0
H1666 H 0.25143 0.37179 0.42382 0.0
H1667 H 0.27236 0.38326 0.4454 0.0
H1668 H 0.19996 0.32956 0.48267 0.0
H1669 H 0.25228 0.36099 0.53031 0.0
H1670 H 0.21641 0.31337 0.4335 0.0
H1671 H 0.22429 0.33712 0.41955 0.0
H1672 H 0.20112 0.32437 0.43631 0.0
H1673 H 0.28157 0.34958 0.49317 0.0
H1674 H 0.28303 0.36864 0.51484 0.0
H1675 H 0.28636 0.37251 0.47915 0.0
C1676 C 0.67694 0.94657 0.41171 0.0
C1677 C 0.69109 0.95109 0.39195 0.0
C1678 C 0.67539 0.93458 0.43369 0.0
C1679 C 0.68807 0.92663 0.43576 0.0
C1680 C 0.70228 0.93102 0.41583 0.0
C1681 C 0.70377 0.94335 0.39442 0.0
C1682 C 0.66033 0.9306 0.45487 0.0
C1683 C 0.71595 0.92269 0.41711 0.0
C1684 C 0.69892 0.91311 0.50449 0.0
C1685 C 0.68634 0.89273 0.50537 0.0
C1686 C 0.69938 0.92424 0.48219 0.0
C1687 C 0.68737 0.91478 0.45964 0.0
C1688 C 0.67507 0.89413 0.45988 0.0
C1689 C 0.67462 0.88334 0.48282 0.0
C1690 C 0.71267 0.94621 0.48288 0.0
C1691 C 0.66234 0.88349 0.43597 0.0
H1692 H 0.66706 0.95244 0.41007 0.0
H1693 H 0.71474 0.94662 0.37932 0.0
H1694 H 0.65052 0.91458 0.457 0.0
H1695 H 0.66767 0.9362 0.47459 0.0
H1696 H 0.65135 0.93758 0.45011 0.0
H1697 H 0.72535 0.9265 0.39913 0.0
H1698 H 0.72548 0.92835 0.43518 0.0
H1699 H 0.70749 0.90649 0.41889 0.0
H1700 H 0.7085 0.92049 0.52143 0.0
H1701 H 0.66485 0.86764 0.48327 0.0
H1702 H 0.70406 0.95374 0.47933 0.0
H1703 H 0.72354 0.95072 0.46662 0.0
H1704 H 0.7206 0.95138 0.50235 0.0
H1705 H 0.65184 0.88879 0.43201 0.0
H1706 H 0.65403 0.86736 0.43899 0.0
H1707 H 0.67142 0.88665 0.4178 0.0
C1708 C 0.08639 0.76311 0.39618 0.0
C1709 C 0.07845 0.74322 0.40263 0.0
C1710 C 0.09718 0.77783 0.41521 0.0
C1711 C 0.10019 0.77251 0.4413 0.0
C1712 C 0.0925 0.75241 0.44768 0.0
C1713 C 0.08133 0.73801 0.42845 0.0
C1714 C 0.10472 0.79901 0.40773 0.0
C1715 C 0.09568 0.74611 0.47507 0.0
C1716 C 0.13963 0.8096 0.48804 0.0
C1717 C 0.12848 0.81285 0.50688 0.0
C1718 C 0.13076 0.79716 0.46595 0.0
C1719 C 0.11023 0.7878 0.4625 0.0
C1720 C 0.09907 0.79213 0.48051 0.0
C1721 C 0.1083 0.80444 0.50265 0.0
C1722 C 0.14333 0.793 0.44762 0.0
C1723 C 0.07726 0.78317 0.47703 0.0
H1724 H 0.08374 0.76712 0.37636 0.0
H1725 H 0.07442 0.72264 0.43383 0.0
H1726 H 0.09782 0.80537 0.42057 0.0
H1727 H 0.12069 0.80763 0.41138 0.0
H1728 H 0.10168 0.80074 0.38636 0.0
H1729 H 0.08971 0.73001 0.47634 0.0
H1730 H 0.11152 0.75356 0.47994 0.0
H1731 H 0.08858 0.7505 0.49056 0.0
H1732 H 0.1552 0.81589 0.49144 0.0
H1733 H 0.09967 0.80707 0.51713 0.0
H1734 H 0.13828 0.79152 0.42647 0.0
H1735 H 0.1424 0.779 0.4539 0.0
H1736 H 0.15888 0.80465 0.44881 0.0
H1737 H 0.07359 0.78511 0.45608 0.0
H1738 H 0.07109 0.78972 0.49088 0.0
H1739 H 0.07009 0.76718 0.48094 0.0
C1740 C 0.35954 0.08116 0.74485 0.0
C1741 C 0.37421 0.08979 0.72553 0.0
C1742 C 0.35894 0.09201 0.76683 0.0
C1743 C 0.37329 0.11202 0.76957 0.0
C1744 C 0.38834 0.12074 0.75048 0.0
C1745 C 0.38867 0.10952 0.72878 0.0
C1746 C 0.34274 0.08211 0.78695 0.0
C1747 C 0.4039 0.14202 0.7527 0.0
C1748 C 0.35851 0.14207 0.81339 0.0
C1749 C 0.36671 0.14141 0.83821 0.0
C1750 C 0.36127 0.13333 0.79048 0.0
C1751 C 0.37246 0.1237 0.79254 0.0
C1752 C 0.38174 0.12407 0.81718 0.0
C1753 C 0.37881 0.13298 0.83966 0.0
C1754 C 0.35131 0.13342 0.76447 0.0
C1755 C 0.39386 0.11409 0.82024 0.0
H1756 H 0.3483 0.06596 0.74263 0.0
H1757 H 0.40007 0.11642 0.714 0.0
H1758 H 0.34899 0.08328 0.80737 0.0
H1759 H 0.33392 0.0896 0.78742 0.0
H1760 H 0.33291 0.06637 0.78222 0.0
H1761 H 0.41483 0.14651 0.73648 0.0
H1762 H 0.39706 0.15146 0.75178 0.0
H1763 H 0.41158 0.1448 0.77236 0.0
H1764 H 0.34906 0.14846 0.8122 0.0
H1765 H 0.38539 0.13267 0.85876 0.0
H1766 H 0.33952 0.11833 0.75977 0.0
H1767 H 0.36179 0.13825 0.74769 0.0
H1768 H 0.34482 0.14317 0.76544 0.0
H1769 H 0.38433 0.098 0.81814 0.0
H1770 H 0.40144 0.11716 0.84004 0.0
H1771 H 0.40492 0.11888 0.8042 0.0
C1772 C 0.95576 0.27673 0.75625 0.0
C1773 C 0.94776 0.27668 0.73102 0.0
C1774 C 0.9438 0.26572 0.77753 0.0
C1775 C 0.9233 0.25497 0.77368 0.0
C1776 C 0.9152 0.25468 0.74804 0.0
C1777 C 0.92755 0.26563 0.72704 0.0
C1778 C 0.95305 0.2662 0.80442 0.0
C1779 C 0.89344 0.24352 0.74313 0.0
C1780 C 0.89243 0.21838 0.82746 0.0
C1781 C 0.88757 0.22994 0.84348 0.0
C1782 C 0.90373 0.22615 0.80436 0.0
C1783 C 0.91029 0.24592 0.79712 0.0
C1784 C 0.90484 0.25742 0.81284 0.0
C1785 C 0.89361 0.24931 0.83584 0.0
C1786 C 0.90928 0.21341 0.78846 0.0
C1787 C 0.91114 0.27843 0.80562 0.0
H1788 H 0.97134 0.28583 0.75954 0.0
H1789 H 0.92138 0.26588 0.70757 0.0
H1790 H 0.94873 0.27378 0.81934 0.0
H1791 H 0.94779 0.25105 0.81175 0.0
H1792 H 0.96923 0.27389 0.80349 0.0
H1793 H 0.88958 0.24352 0.72161 0.0
H1794 H 0.88727 0.22812 0.7499 0.0
H1795 H 0.88639 0.25023 0.75499 0.0
H1796 H 0.88792 0.20346 0.83348 0.0
H1797 H 0.88963 0.25819 0.84806 0.0
H1798 H 0.92479 0.21806 0.7928 0.0
H1799 H 0.90765 0.21509 0.76663 0.0
H1800 H 0.90034 0.19766 0.79376 0.0
H1801 H 0.92728 0.28737 0.80664 0.0
H1802 H 0.90489 0.28505 0.81921 0.0
H1803 H 0.90659 0.27924 0.7847 0.0
C1804 C 0.74719 0.65732 0.7117 0.0
C1805 C 0.73746 0.66782 0.71697 0.0
C1806 C 0.75976 0.6561 0.7309 0.0
C1807 C 0.76252 0.6655 0.75608 0.0
C1808 C 0.75308 0.67656 0.76117 0.0
C1809 C 0.74038 0.67728 0.74173 0.0
C1810 C 0.76943 0.6441 0.72469 0.0
C1811 C 0.75586 0.68709 0.78753 0.0
C1812 C 0.77348 0.64595 0.81985 0.0
C1813 C 0.79318 0.65968 0.82453 0.0
C1814 C 0.76363 0.64704 0.79682 0.0
C1815 C 0.77369 0.6623 0.77807 0.0
C1816 C 0.79395 0.67527 0.78178 0.0
C1817 C 0.80345 0.67381 0.80498 0.0
C1818 C 0.74218 0.63251 0.79338 0.0
C1819 C 0.80538 0.69169 0.7625 0.0
H1820 H 0.74464 0.64971 0.69267 0.0
H1821 H 0.7323 0.68479 0.74616 0.0
H1822 H 0.76356 0.63111 0.73805 0.0
H1823 H 0.767 0.63897 0.70351 0.0
H1824 H 0.78536 0.6528 0.72864 0.0
H1825 H 0.74868 0.69623 0.78756 0.0
H1826 H 0.7497 0.67625 0.80403 0.0
H1827 H 0.77164 0.69663 0.79189 0.0
H1828 H 0.76555 0.63485 0.83483 0.0
H1829 H 0.81864 0.68455 0.80863 0.0
H1830 H 0.73913 0.62616 0.77285 0.0
H1831 H 0.73358 0.64011 0.79592 0.0
H1832 H 0.73703 0.62037 0.80817 0.0
H1833 H 0.80069 0.68702 0.74148 0.0
H1834 H 0.82131 0.69713 0.76429 0.0
H1835 H 0.80277 0.704 0.76727 0.0
C1836 C 0.74141 0.65939 0.60826 0.0
C1837 C 0.7397 0.67636 0.60768 0.0
C1838 C 0.75277 0.6564 0.58933 0.0
C1839 C 0.76208 0.67042 0.56881 0.0
C1840 C 0.75984 0.68729 0.56769 0.0
C1841 C 0.74902 0.69027 0.58752 0.0
C1842 C 0.75541 0.63865 0.59189 0.0
C1843 C 0.76901 0.70229 0.54567 0.0
C1844 C 0.80624 0.67668 0.53045 0.0
C1845 C 0.79765 0.66717 0.50614 0.0
C1846 C 0.79472 0.67675 0.55178 0.0
C1847 C 0.77419 0.66758 0.54845 0.0
C1848 C 0.76539 0.65692 0.52467 0.0
C1849 C 0.77718 0.65647 0.50412 0.0
C1850 C 0.80463 0.68761 0.57728 0.0
C1851 C 0.7436 0.64715 0.52007 0.0
H1852 H 0.73459 0.6489 0.62434 0.0
H1853 H 0.74782 0.70347 0.58731 0.0
H1854 H 0.75079 0.62995 0.57307 0.0
H1855 H 0.77108 0.64344 0.59516 0.0
H1856 H 0.74697 0.62902 0.60879 0.0
H1857 H 0.76483 0.71389 0.54666 0.0
H1858 H 0.78514 0.70935 0.54715 0.0
H1859 H 0.76458 0.69502 0.52574 0.0
H1860 H 0.82199 0.68503 0.53235 0.0
H1861 H 0.77034 0.64855 0.48577 0.0
H1862 H 0.79696 0.67876 0.59512 0.0
H1863 H 0.80409 0.70146 0.57829 0.0
H1864 H 0.82016 0.69126 0.57838 0.0
H1865 H 0.73571 0.6374 0.53709 0.0
H1866 H 0.73892 0.6384 0.50124 0.0
H1867 H 0.73911 0.65852 0.51891 0.0
C1868 C 0.35607 0.07961 0.59029 0.0
C1869 C 0.34906 0.07928 0.61604 0.0
C1870 C 0.35371 0.09049 0.56968 0.0
C1871 C 0.34322 0.1005 0.57469 0.0
C1872 C 0.3359 0.10004 0.60067 0.0
C1873 C 0.33896 0.08943 0.6211 0.0
C1874 C 0.362 0.09089 0.54237 0.0
C1875 C 0.32431 0.11017 0.60661 0.0
C1876 C 0.34865 0.13831 0.52268 0.0
C1877 C 0.33329 0.12689 0.50497 0.0
C1878 C 0.3515 0.13022 0.54626 0.0
C1879 C 0.3388 0.1102 0.55212 0.0
C1880 C 0.32262 0.0989 0.53499 0.0
C1881 C 0.32012 0.10737 0.51152 0.0
C1882 C 0.36884 0.14294 0.56381 0.0
C1883 C 0.30828 0.07771 0.541 0.0
H1884 H 0.36304 0.07097 0.5861 0.0
H1885 H 0.33316 0.08876 0.64095 0.0
H1886 H 0.35003 0.08383 0.52733 0.0
H1887 H 0.3715 0.10629 0.53595 0.0
H1888 H 0.37064 0.08317 0.54219 0.0
H1889 H 0.3202 0.10896 0.62807 0.0
H1890 H 0.33283 0.12592 0.60127 0.0
H1891 H 0.3108 0.10364 0.59412 0.0
H1892 H 0.35892 0.15338 0.51759 0.0
H1893 H 0.30799 0.09864 0.49806 0.0
H1894 H 0.38105 0.14059 0.55795 0.0
H1895 H 0.3657 0.13918 0.58531 0.0
H1896 H 0.37363 0.15874 0.56116 0.0
H1897 H 0.31553 0.06874 0.53889 0.0
H1898 H 0.29538 0.07166 0.52732 0.0
H1899 H 0.30319 0.07615 0.56201 0.0
C1900 C 0.94889 0.27655 0.60012 0.0
C1901 C 0.95328 0.26667 0.62019 0.0
C1902 C 0.93702 0.2664 0.57798 0.0
C1903 C 0.92913 0.24585 0.57602 0.0
C1904 C 0.93328 0.23575 0.59635 0.0
C1905 C 0.94543 0.24629 0.61802 0.0
C1906 C 0.93321 0.27772 0.55642 0.0
C1907 C 0.925 0.21381 0.59511 0.0
C1908 C 0.88658 0.21717 0.52765 0.0
C1909 C 0.89615 0.2149 0.50553 0.0
C1910 C 0.89708 0.2271 0.55089 0.0
C1911 C 0.91761 0.23507 0.55186 0.0
C1912 C 0.92727 0.23264 0.5297 0.0
C1913 C 0.91643 0.22243 0.50702 0.0
C1914 C 0.88627 0.22919 0.57433 0.0
C1915 C 0.94913 0.24094 0.52986 0.0
H1916 H 0.95487 0.29228 0.60156 0.0
H1917 H 0.94861 0.23845 0.63341 0.0
H1918 H 0.93914 0.27617 0.53705 0.0
H1919 H 0.91728 0.27166 0.5535 0.0
H1920 H 0.93993 0.29357 0.56131 0.0
H1921 H 0.9286 0.20801 0.61338 0.0
H1922 H 0.90891 0.20634 0.59268 0.0
H1923 H 0.93084 0.20994 0.5774 0.0
H1924 H 0.87096 0.2115 0.52663 0.0
H1925 H 0.9239 0.22031 0.49032 0.0
H1926 H 0.89153 0.24493 0.57835 0.0
H1927 H 0.88923 0.22298 0.59269 0.0
H1928 H 0.87025 0.22169 0.57072 0.0
H1929 H 0.95659 0.257 0.53341 0.0
H1930 H 0.95445 0.23817 0.5107 0.0
H1931 H 0.95347 0.23439 0.54647 0.0
C1932 C 0.34481 0.28134 0.59228 0.0
C1933 C 0.33594 0.27439 0.61711 0.0
C1934 C 0.34266 0.26831 0.57152 0.0
C1935 C 0.33044 0.24787 0.57522 0.0
C1936 C 0.32108 0.24081 0.60013 0.0
C1937 C 0.32407 0.25416 0.62084 0.0
C1938 C 0.35324 0.27644 0.54548 0.0
C1939 C 0.30748 0.21922 0.60463 0.0
C1940 C 0.31189 0.22061 0.50902 0.0
C1941 C 0.32406 0.21245 0.5059 0.0
C1942 C 0.31291 0.23108 0.53239 0.0
C1943 C 0.32693 0.23405 0.55259 0.0
C1944 C 0.33851 0.22492 0.54999 0.0
C1945 C 0.33684 0.21414 0.52676 0.0
C1946 C 0.29947 0.23957 0.53498 0.0
C1947 C 0.35385 0.22772 0.57049 0.0
H1948 H 0.35308 0.297 0.58887 0.0
H1949 H 0.31676 0.24881 0.63985 0.0
H1950 H 0.36226 0.26956 0.54078 0.0
H1951 H 0.3426 0.27283 0.52876 0.0
H1952 H 0.36281 0.2926 0.54621 0.0
H1953 H 0.30109 0.21613 0.62503 0.0
H1954 H 0.29543 0.21362 0.58956 0.0
H1955 H 0.31538 0.21094 0.60186 0.0
H1956 H 0.30194 0.21921 0.49287 0.0
H1957 H 0.34645 0.20805 0.52417 0.0
H1958 H 0.3079 0.25572 0.53269 0.0
H1959 H 0.2928 0.23645 0.55518 0.0
H1960 H 0.28763 0.2336 0.51956 0.0
H1961 H 0.35713 0.21547 0.56998 0.0
H1962 H 0.34949 0.229 0.59112 0.0
H1963 H 0.36743 0.24141 0.56562 0.0
C1964 C 0.74753 0.06766 0.60543 0.0
C1965 C 0.75677 0.06268 0.62576 0.0
C1966 C 0.75797 0.07883 0.58313 0.0
C1967 C 0.77821 0.0854 0.58122 0.0
C1968 C 0.78763 0.08045 0.60165 0.0
C1969 C 0.7768 0.06906 0.62348 0.0
C1970 C 0.74734 0.08357 0.56155 0.0
C1971 C 0.80919 0.08727 0.60051 0.0
C1972 C 0.80057 0.09763 0.51181 0.0
C1973 C 0.80859 0.11808 0.5108 0.0
C1974 C 0.79085 0.0869 0.53464 0.0
C1975 C 0.78938 0.09684 0.55738 0.0
C1976 C 0.7983 0.11758 0.55705 0.0
C1977 C 0.80776 0.12797 0.53372 0.0
C1978 C 0.78162 0.06483 0.53409 0.0
C1979 C 0.79733 0.12874 0.58106 0.0
H1980 H 0.73211 0.06287 0.60691 0.0
H1981 H 0.78422 0.06543 0.63903 0.0
H1982 H 0.75407 0.09968 0.55929 0.0
H1983 H 0.74866 0.07762 0.54199 0.0
H1984 H 0.73161 0.07743 0.56601 0.0
H1985 H 0.81446 0.08269 0.61844 0.0
H1986 H 0.81238 0.08125 0.58235 0.0
H1987 H 0.81761 0.10348 0.59899 0.0
H1988 H 0.80148 0.08991 0.49435 0.0
H1989 H 0.81383 0.14373 0.53307 0.0
H1990 H 0.76561 0.05806 0.53662 0.0
H1991 H 0.78726 0.05977 0.55103 0.0
H1992 H 0.78442 0.05937 0.51504 0.0
H1993 H 0.78195 0.12478 0.58466 0.0
H1994 H 0.80607 0.14486 0.57829 0.0
H1995 H 0.80269 0.12465 0.59932 0.0
C1996 C 0.95201 0.6783 0.59963 0.0
C1997 C 0.95508 0.68718 0.62482 0.0
C1998 C 0.93979 0.68007 0.58045 0.0
C1999 C 0.93117 0.6918 0.58621 0.0
C2000 C 0.93438 0.70096 0.61163 0.0
C2001 C 0.9463 0.69851 0.63067 0.0
C2002 C 0.93649 0.66978 0.55376 0.0
C2003 C 0.92578 0.71385 0.61835 0.0
C2004 C 0.92 0.71036 0.52191 0.0
C2005 C 0.90022 0.69663 0.51786 0.0
C2006 C 0.92995 0.70994 0.54522 0.0
C2007 C 0.9199 0.69534 0.56482 0.0
C2008 C 0.89952 0.68275 0.56194 0.0
C2009 C 0.88994 0.68348 0.53846 0.0
C2010 C 0.9515 0.72428 0.548 0.0
C2011 C 0.88793 0.66721 0.58228 0.0
H2012 H 0.95955 0.67033 0.59469 0.0
H2013 H 0.94907 0.70575 0.65002 0.0
H2014 H 0.9206 0.66058 0.54972 0.0
H2015 H 0.94264 0.68073 0.53741 0.0
H2016 H 0.94333 0.66034 0.55304 0.0
H2017 H 0.92905 0.71931 0.63937 0.0
H2018 H 0.93169 0.72663 0.60461 0.0
H2019 H 0.90972 0.70568 0.61535 0.0
H2020 H 0.92792 0.72086 0.50625 0.0
H2021 H 0.87467 0.67278 0.53546 0.0
H2022 H 0.95988 0.71655 0.54465 0.0
H2023 H 0.95505 0.73056 0.56856 0.0
H2024 H 0.95643 0.73646 0.5333 0.0
H2025 H 0.87244 0.66373 0.5823 0.0
H2026 H 0.89404 0.67163 0.60283 0.0
H2027 H 0.88819 0.65369 0.57669 0.0
C2028 C 0.93997 0.65594 0.752 0.0
C2029 C 0.95003 0.67113 0.73369 0.0
C2030 C 0.92915 0.658 0.77272 0.0
C2031 C 0.92773 0.67531 0.77434 0.0
C2032 C 0.93772 0.69058 0.75564 0.0
C2033 C 0.94903 0.68844 0.73582 0.0
C2034 C 0.91921 0.64164 0.79281 0.0
C2035 C 0.93597 0.70892 0.75605 0.0
C2036 C 0.88417 0.66961 0.81364 0.0
C2037 C 0.89282 0.67783 0.83853 0.0
C2038 C 0.8955 0.66958 0.79207 0.0
C2039 C 0.91587 0.67742 0.79574 0.0
C2040 C 0.92479 0.68654 0.82034 0.0
C2041 C 0.91324 0.68705 0.84115 0.0
C2042 C 0.88556 0.66041 0.76575 0.0
C2043 C 0.9464 0.6948 0.82525 0.0
H2044 H 0.94066 0.64252 0.75015 0.0
H2045 H 0.95644 0.7 0.72119 0.0
H2046 H 0.92374 0.64744 0.8135 0.0
H2047 H 0.90317 0.63538 0.79134 0.0
H2048 H 0.92266 0.62966 0.78964 0.0
H2049 H 0.94452 0.71933 0.73988 0.0
H2050 H 0.92044 0.70496 0.75361 0.0
H2051 H 0.94109 0.7165 0.77566 0.0
H2052 H 0.86844 0.66239 0.81131 0.0
H2053 H 0.92018 0.69402 0.85997 0.0
H2054 H 0.88561 0.64643 0.76276 0.0
H2055 H 0.89356 0.67018 0.74877 0.0
H2056 H 0.8702 0.65732 0.76501 0.0
H2057 H 0.95008 0.68287 0.82372 0.0
H2058 H 0.95115 0.70177 0.84534 0.0
H2059 H 0.9549 0.70583 0.80974 0.0
C2060 C 0.36976 0.28778 0.74651 0.0
C2061 C 0.35427 0.28221 0.72827 0.0
C2062 C 0.36815 0.27572 0.76838 0.0
C2063 C 0.35095 0.25733 0.77133 0.0
C2064 C 0.3355 0.25145 0.75244 0.0
C2065 C 0.33722 0.26412 0.73141 0.0
C2066 C 0.38469 0.28277 0.78855 0.0
C2067 C 0.31726 0.23169 0.75429 0.0
C2068 C 0.35559 0.22073 0.81688 0.0
C2069 C 0.34728 0.22259 0.84071 0.0
C2070 C 0.3562 0.23136 0.79377 0.0
C2071 C 0.34885 0.24459 0.79473 0.0
C2072 C 0.33988 0.24605 0.81837 0.0
C2073 C 0.33882 0.23473 0.8408 0.0
C2074 C 0.36524 0.22887 0.76858 0.0
C2075 C 0.33209 0.26016 0.8204 0.0
H2076 H 0.38295 0.30175 0.74394 0.0
H2077 H 0.3254 0.25965 0.71691 0.0
H2078 H 0.37929 0.2832 0.80888 0.0
H2079 H 0.39046 0.27242 0.78936 0.0
H2080 H 0.39686 0.2976 0.78368 0.0
H2081 H 0.30709 0.22889 0.73711 0.0
H2082 H 0.32117 0.21989 0.75488 0.0
H2083 H 0.30949 0.23072 0.77314 0.0
H2084 H 0.36229 0.21154 0.8165 0.0
H2085 H 0.3318 0.23585 0.85876 0.0
H2086 H 0.37918 0.24247 0.76464 0.0
H2087 H 0.35548 0.22633 0.75103 0.0
H2088 H 0.36825 0.21647 0.77015 0.0
H2089 H 0.34406 0.27535 0.81691 0.0
H2090 H 0.32564 0.25961 0.84031 0.0
H2091 H 0.3208 0.25686 0.80469 0.0
C2092 C 0.74683 0.06998 0.76075 0.0
C2093 C 0.7453 0.07571 0.73462 0.0
C2094 C 0.75728 0.084 0.78078 0.0
C2095 C 0.76558 0.10423 0.77482 0.0
C2096 C 0.76386 0.11006 0.74846 0.0
C2097 C 0.75378 0.09572 0.72867 0.0
C2098 C 0.7591 0.07713 0.80845 0.0
C2099 C 0.77214 0.13142 0.74138 0.0
C2100 C 0.77249 0.13578 0.83626 0.0
C2101 C 0.79248 0.14373 0.8417 0.0
C2102 C 0.76374 0.12373 0.81373 0.0
C2103 C 0.77519 0.11916 0.79657 0.0
C2104 C 0.79555 0.12799 0.80132 0.0
C2105 C 0.80395 0.1402 0.82375 0.0
C2106 C 0.74213 0.11534 0.80883 0.0
C2107 C 0.80841 0.12352 0.78406 0.0
H2108 H 0.73946 0.05453 0.7657 0.0
H2109 H 0.75217 0.10014 0.70858 0.0
H2110 H 0.77471 0.08412 0.81451 0.0
H2111 H 0.75166 0.08164 0.82327 0.0
H2112 H 0.75266 0.06096 0.80946 0.0
H2113 H 0.76973 0.13354 0.7199 0.0
H2114 H 0.76527 0.13797 0.75393 0.0
H2115 H 0.78803 0.13957 0.74576 0.0
H2116 H 0.76361 0.13863 0.85003 0.0
H2117 H 0.81936 0.1461 0.82809 0.0
H2118 H 0.73445 0.09929 0.81232 0.0
H2119 H 0.7393 0.11772 0.78765 0.0
H2120 H 0.73577 0.122 0.8222 0.0
H2121 H 0.80712 0.10947 0.79093 0.0
H2122 H 0.82399 0.13502 0.78585 0.0
H2123 H 0.80395 0.12199 0.76264 0.0
C2124 C 0.06505 0.35952 0.04316 0.0
C2125 C 0.06213 0.36075 0.01566 0.0
C2126 C 0.07874 0.35428 0.05248 0.0
C2127 C 0.0894 0.34973 0.03377 0.0
C2128 C 0.0854 0.34959 0.00598 0.0
C2129 C 0.07206 0.35547 -0.00277 0.0
C2130 C 0.08272 0.35487 0.0823 0.0
C2131 C 0.0959 0.3442 0.98544 0.0
C2132 C 0.13903 0.36226 0.06176 0.0
C2133 C 0.13477 0.3447 0.07453 0.0
C2134 C 0.12475 0.36374 0.04644 0.0
C2135 C 0.10594 0.3471 0.04344 0.0
C2136 C 0.10246 0.32874 0.05346 0.0
C2137 C 0.11687 0.3278 0.06926 0.0
C2138 C 0.12912 0.38365 0.03628 0.0
C2139 C 0.08291 0.3105 0.04984 0.0
H2140 H 0.05755 0.3639 0.05731 0.0
H2141 H 0.06978 0.35646 0.97593 0.0
H2142 H 0.08119 0.34069 0.08906 0.0
H2143 H 0.09795 0.3664 0.08675 0.0
H2144 H 0.07271 0.35798 0.09419 0.0
H2145 H 0.0887 0.34136 0.96538 0.0
H2146 H 0.11111 0.35638 0.98348 0.0
H2147 H 0.09662 0.331 0.99186 0.0
H2148 H 0.15273 0.37539 0.06633 0.0
H2149 H 0.11349 0.31429 0.07952 0.0
H2150 H 0.1211 0.38912 0.0485 0.0
H2151 H 0.12413 0.3827 0.01517 0.0
H2152 H 0.14494 0.39452 0.03749 0.0
H2153 H 0.07243 0.31071 0.06435 0.0
H2154 H 0.08388 0.297 0.05341 0.0
H2155 H 0.07695 0.30984 0.02935 0.0
C2156 C 0.66541 0.70977 0.0511 0.0
C2157 C 0.66008 0.70159 0.02533 0.0
C2158 C 0.6651 0.72701 0.05775 0.0
C2159 C 0.6594 0.7364 0.03813 0.0
C2160 C 0.65492 0.72876 0.01171 0.0
C2161 C 0.65525 0.71141 0.00564 0.0
C2162 C 0.67008 0.73469 0.08618 0.0
C2163 C 0.64899 0.73843 0.99016 0.0
C2164 C 0.63822 0.76483 0.07162 0.0
C2165 C 0.65482 0.78332 0.0745 0.0
C2166 C 0.639 0.74977 0.05751 0.0
C2167 C 0.65687 0.75333 0.04615 0.0
C2168 C 0.67305 0.7726 0.04651 0.0
C2169 C 0.67184 0.7874 0.06081 0.0
C2170 C 0.62132 0.72954 0.05744 0.0
C2171 C 0.69227 0.77714 0.03435 0.0
H2172 H 0.66919 0.70233 0.06642 0.0
H2173 H 0.65115 0.70523 0.98562 0.0
H2174 H 0.68167 0.75031 0.08618 0.0
H2175 H 0.65706 0.73392 0.09572 0.0
H2176 H 0.67513 0.72626 0.09869 0.0
H2177 H 0.64836 0.73217 0.96996 0.0
H2178 H 0.63438 0.73644 0.99472 0.0
H2179 H 0.65934 0.75443 0.98965 0.0
H2180 H 0.62519 0.76161 0.08266 0.0
H2181 H 0.6848 0.80159 0.06351 0.0
H2182 H 0.62379 0.72008 0.07177 0.0
H2183 H 0.61888 0.72271 0.03728 0.0
H2184 H 0.60792 0.72981 0.06343 0.0
H2185 H 0.69984 0.7717 0.04787 0.0
H2186 H 0.70193 0.79315 0.03152 0.0
H2187 H 0.68999 0.76965 0.01471 0.0
C2188 C 0.30497 0.94196 0.00413 0.0
C2189 C 0.31632 0.95759 0.0217 0.0
C2190 C 0.28754 0.92559 0.01263 0.0
C2191 C 0.2813 0.92475 0.03937 0.0
C2192 C 0.29245 0.9407 0.05699 0.0
C2193 C 0.30978 0.9569 0.04794 0.0
C2194 C 0.27607 0.90899 0.99318 0.0
C2195 C 0.28632 0.94046 0.08567 0.0
C2196 C 0.2298 0.89166 0.06439 0.0
C2197 C 0.23233 0.87791 0.07938 0.0
C2198 C 0.24521 0.90618 0.04938 0.0
C2199 C 0.26358 0.90697 0.04954 0.0
C2200 C 0.26555 0.89193 0.06257 0.0
C2201 C 0.2499 0.87761 0.07741 0.0
C2202 C 0.24235 0.92175 0.03558 0.0
C2203 C 0.28476 0.89204 0.06314 0.0
H2204 H 0.30987 0.94234 0.98379 0.0
H2205 H 0.31842 0.96886 0.06166 0.0
H2206 H 0.2761 0.89557 0.00027 0.0
H2207 H 0.26064 0.90559 0.99225 0.0
H2208 H 0.28216 0.91242 0.97262 0.0
H2209 H 0.29623 0.95424 0.09657 0.0
H2210 H 0.2713 0.93828 0.08614 0.0
H2211 H 0.28614 0.92801 0.09657 0.0
H2212 H 0.21638 0.8922 0.06644 0.0
H2213 H 0.25202 0.86727 0.08952 0.0
H2214 H 0.24908 0.92507 0.01543 0.0
H2215 H 0.24964 0.93547 0.04758 0.0
H2216 H 0.22666 0.9173 0.03338 0.0
H2217 H 0.29119 0.89482 0.04282 0.0
H2218 H 0.28317 0.87799 0.07072 0.0
H2219 H 0.29521 0.90406 0.07645 0.0
C2220 C 0.34393 0.04784 0.98942 0.0
C2221 C 0.35683 0.04535 0.97288 0.0
C2222 C 0.33844 0.06205 0.9834 0.0
C2223 C 0.34599 0.07391 0.96025 0.0
C2224 C 0.3582 0.07061 0.9428 0.0
C2225 C 0.36365 0.05657 0.94954 0.0
C2226 C 0.32559 0.06518 0.00267 0.0
C2227 C 0.36632 0.08259 0.91762 0.0
C2228 C 0.32706 0.10411 0.92506 0.0
C2229 C 0.34241 0.12315 0.93011 0.0
C2230 C 0.32684 0.08774 0.93702 0.0
C2231 C 0.34226 0.09054 0.95456 0.0
C2232 C 0.3563 0.10986 0.96244 0.0
C2233 C 0.35626 0.12598 0.94998 0.0
C2234 C 0.31146 0.0675 0.92818 0.0
C2235 C 0.37273 0.11355 0.98161 0.0
H2236 H 0.3391 0.03952 0.00789 0.0
H2237 H 0.37392 0.05486 0.93707 0.0
H2238 H 0.33458 0.07889 0.01419 0.0
H2239 H 0.31419 0.06688 0.9917 0.0
H2240 H 0.31842 0.05288 0.01712 0.0
H2241 H 0.37442 0.07726 0.90528 0.0
H2242 H 0.35436 0.08219 0.90517 0.0
H2243 H 0.37638 0.09814 0.92305 0.0
H2244 H 0.31647 0.10189 0.90943 0.0
H2245 H 0.36828 0.14065 0.95364 0.0
H2246 H 0.30657 0.05713 0.94529 0.0
H2247 H 0.31775 0.06193 0.91299 0.0
H2248 H 0.29858 0.06759 0.91904 0.0
H2249 H 0.36726 0.10326 -0.0012 0.0
H2250 H 0.38017 0.12883 0.98942 0.0
H2251 H 0.38365 0.11107 0.97104 0.0
C2252 C 0.95643 0.31288 0.00705 0.0
C2253 C 0.9706 0.32185 0.98711 0.0
C2254 C 0.93867 0.29567 0.00161 0.0
C2255 C 0.93496 0.28728 0.97559 0.0
C2256 C 0.94948 0.29596 0.95567 0.0
C2257 C 0.96708 0.31308 0.96168 0.0
C2258 C 0.92365 0.28681 0.02341 0.0
C2259 C 0.94622 0.2875 0.92765 0.0
C2260 C 0.89737 0.23564 0.955 0.0
C2261 C 0.88418 0.23924 0.94037 0.0
C2262 C 0.9131 0.25085 0.96909 0.0
C2263 C 0.91566 0.27005 0.96831 0.0
C2264 C 0.90106 0.27314 0.9561 0.0
C2265 C 0.88551 0.25768 0.94219 0.0
C2266 C 0.92812 0.24679 0.98213 0.0
C2267 C 0.90304 0.29328 0.95496 0.0
H2268 H 0.95902 0.31955 0.02678 0.0
H2269 H 0.97792 0.31986 0.94616 0.0
H2270 H 0.91084 0.28851 0.01817 0.0
H2271 H 0.91839 0.27087 0.02517 0.0
H2272 H 0.92948 0.29385 0.04323 0.0
H2273 H 0.95921 0.2956 0.91477 0.0
H2274 H 0.94255 0.27191 0.92851 0.0
H2275 H 0.93369 0.28796 0.91799 0.0
H2276 H 0.89657 0.22148 0.95314 0.0
H2277 H 0.87551 0.26054 0.93044 0.0
H2278 H 0.93337 0.25479 0.00145 0.0
H2279 H 0.94088 0.25196 0.96875 0.0
H2280 H 0.92222 0.23088 0.98581 0.0
H2281 H 0.90778 0.30075 0.97469 0.0
H2282 H 0.88912 0.29264 0.94889 0.0
H2283 H 0.91433 0.30234 0.9401 0.0
C2284 C 0.72014 0.65332 0.00614 0.0
C2285 C 0.70652 0.65627 0.99139 0.0
C2286 C 0.73817 0.65771 0.99523 0.0
C2287 C 0.74248 0.66468 0.96859 0.0
C2288 C 0.72936 0.66898 0.95426 0.0
C2289 C 0.71157 0.6649 0.96598 0.0
C2290 C 0.7519 0.65341 0.01151 0.0
C2291 C 0.73334 0.67631 0.92572 0.0
C2292 C 0.79187 0.68077 0.93641 0.0
C2293 C 0.7879 0.66374 0.92233 0.0
C2294 C 0.77752 0.68118 0.95262 0.0
C2295 C 0.75882 0.66427 0.95431 0.0
C2296 C 0.75526 0.64676 0.94129 0.0
C2297 C 0.76987 0.64671 0.92563 0.0
C2298 C 0.78203 0.69998 0.96668 0.0
C2299 C 0.7356 0.62834 0.94255 0.0
H2300 H 0.71639 0.64681 0.02592 0.0
H2301 H 0.70104 0.66711 0.9545 0.0
H2302 H 0.7511 0.63971 0.00406 0.0
H2303 H 0.7672 0.66537 0.00933 0.0
H2304 H 0.74818 0.65152 0.03316 0.0
H2305 H 0.72298 0.68111 0.9185 0.0
H2306 H 0.74843 0.68873 0.92393 0.0
H2307 H 0.73204 0.6644 0.91237 0.0
H2308 H 0.80571 0.69402 0.93349 0.0
H2309 H 0.7668 0.63361 0.91449 0.0
H2310 H 0.77673 0.69703 0.98764 0.0
H2311 H 0.77436 0.70678 0.95619 0.0
H2312 H 0.79791 0.71067 0.96694 0.0
H2313 H 0.7315 0.62403 0.96373 0.0
H2314 H 0.73542 0.61584 0.93185 0.0
H2315 H 0.72428 0.6311 0.9334 0.0
C2316 C 0.95187 0.65532 0.00385 0.0
C2317 C 0.96594 0.65935 0.98409 0.0
C2318 C 0.93474 0.65612 -0.00203 0.0
C2319 C 0.93158 0.661 0.9717 0.0
C2320 C 0.94606 0.66574 0.95196 0.0
C2321 C 0.96302 0.66486 0.9584 0.0
C2322 C 0.91977 0.65111 0.0196 0.0
C2323 C 0.94339 0.67115 0.92369 0.0
C2324 C 0.88286 0.64445 0.9374 0.0
C2325 C 0.88301 0.66231 0.93478 0.0
C2326 C 0.89764 0.64328 0.95194 0.0
C2327 C 0.91291 0.66041 0.96402 0.0
C2328 C 0.91171 0.67786 0.96416 0.0
C2329 C 0.89676 0.67861 0.94943 0.0
C2330 C 0.89815 0.62429 0.9515 0.0
C2331 C 0.92746 0.6964 0.97707 0.0
H2332 H 0.95398 0.65101 0.02376 0.0
H2333 H 0.97378 0.66803 0.94301 0.0
H2334 H 0.9153 0.66247 0.02073 0.0
H2335 H 0.90651 0.63702 0.01461 0.0
H2336 H 0.92529 0.64971 0.03963 0.0
H2337 H 0.95629 0.67507 0.91098 0.0
H2338 H 0.93045 0.65867 0.91414 0.0
H2339 H 0.94069 0.68376 0.92406 0.0
H2340 H 0.87247 0.63196 0.92562 0.0
H2341 H 0.89711 0.69253 0.94697 0.0
H2342 H 0.90247 0.62125 0.97144 0.0
H2343 H 0.90918 0.62548 0.93683 0.0
H2344 H 0.8838 0.61169 0.94559 0.0
H2345 H 0.93219 0.69323 0.99661 0.0
H2346 H 0.92249 0.70725 0.9803 0.0
H2347 H 0.94035 0.70313 0.96381 0.0
C2348 C 0.35973 0.30603 0.98429 0.0
C2349 C 0.37026 0.31284 0.00842 0.0
C2350 C 0.35636 0.28822 0.97277 0.0
C2351 C 0.36334 0.27676 0.98598 0.0
C2352 C 0.37267 0.2829 0.01133 0.0
C2353 C 0.37622 0.30093 0.02206 0.0
C2354 C 0.34647 0.28232 0.9456 0.0
C2355 C 0.37988 0.27096 0.02647 0.0
C2356 C 0.34498 0.22571 0.95624 0.0
C2357 C 0.36001 0.22925 0.93844 0.0
C2358 C 0.34629 0.2407 0.97318 0.0
C2359 C 0.36287 0.2597 0.97184 0.0
C2360 C 0.37863 0.26286 0.95522 0.0
C2361 C 0.37703 0.24759 0.93885 0.0
C2362 C 0.32936 0.23655 0.99105 0.0
C2363 C 0.39659 0.28282 0.95304 0.0
H2364 H 0.35519 0.31519 0.97356 0.0
H2365 H 0.38423 0.30601 0.04086 0.0
H2366 H 0.35706 0.28303 0.93053 0.0
H2367 H 0.33432 0.26697 0.94606 0.0
H2368 H 0.34062 0.29196 0.93889 0.0
H2369 H 0.38415 0.27615 0.04748 0.0
H2370 H 0.36849 0.25526 0.02676 0.0
H2371 H 0.39277 0.27198 0.01621 0.0
H2372 H 0.33163 0.21168 0.95552 0.0
H2373 H 0.38847 0.25043 0.92469 0.0
H2374 H 0.32107 0.24331 0.9823 0.0
H2375 H 0.33462 0.24308 0.01125 0.0
H2376 H 0.31924 0.22056 0.99328 0.0
H2377 H 0.39255 0.29328 0.94392 0.0
H2378 H 0.40804 0.28253 0.94057 0.0
H2379 H 0.40283 0.28852 0.97324 0.0
C2380 C 0.71471 0.06059 0.96225 0.0
C2381 C 0.70777 0.05674 0.98861 0.0
C2382 C 0.73231 0.07745 0.95602 0.0
C2383 C 0.74347 0.09079 0.9767 0.0
C2384 C 0.73704 0.08655 0.00358 0.0
C2385 C 0.71917 0.06963 0.00921 0.0
C2386 C 0.73854 0.08137 0.92703 0.0
C2387 C 0.74867 0.10021 0.02622 0.0
C2388 C 0.79371 0.1263 0.95067 0.0
C2389 C 0.79044 0.14108 0.94037 0.0
C2390 C 0.77919 0.11065 0.96538 0.0
C2391 C 0.76098 0.10974 0.96939 0.0
C2392 C 0.75852 0.12577 0.96147 0.0
C2393 C 0.77332 0.14126 0.94704 0.0
C2394 C 0.78261 0.09412 0.974 0.0
C2395 C 0.73941 0.1255 0.96529 0.0
H2396 H 0.70604 0.05072 0.9462 0.0
H2397 H 0.71396 0.06673 0.02966 0.0
H2398 H 0.73894 0.09506 0.92022 0.0
H2399 H 0.75347 0.08352 0.92494 0.0
H2400 H 0.72855 0.06924 0.91348 0.0
H2401 H 0.74324 0.09351 0.0462 0.0
H2402 H 0.7643 0.10444 0.02475 0.0
H2403 H 0.74774 0.11385 0.02481 0.0
H2404 H 0.80683 0.12601 0.9451 0.0
H2405 H 0.77071 0.15256 0.93866 0.0
H2406 H 0.77544 0.08187 0.95939 0.0
H2407 H 0.77617 0.08843 0.99397 0.0
H2408 H 0.79841 0.09881 0.97485 0.0
H2409 H 0.72844 0.11503 0.95081 0.0
H2410 H 0.74085 0.14017 0.96193 0.0
H2411 H 0.73375 0.12049 0.98577 0.0
C2412 C 0.66832 0.96469 0.0402 0.0
C2413 C 0.6629 0.96468 0.01337 0.0
C2414 C 0.67089 0.94935 0.05028 0.0
C2415 C 0.66847 0.93401 0.03285 0.0
C2416 C 0.66516 0.93519 0.00513 0.0
C2417 C 0.66203 0.95033 0.99579 0.0
C2418 C 0.67426 0.94858 0.08004 0.0
C2419 C 0.66327 0.91962 0.9857 0.0
C2420 C 0.67925 0.8967 0.06643 0.0
C2421 C 0.66069 0.88319 0.07573 0.0
C2422 C 0.68197 0.91272 0.05054 0.0
C2423 C 0.66578 0.91531 0.04445 0.0
C2424 C 0.64681 0.90076 0.05209 0.0
C2425 C 0.64452 0.88483 0.06752 0.0
C2426 C 0.70233 0.92757 0.0421 0.0
C2427 C 0.62908 0.90286 0.04608 0.0
H2428 H 0.66883 0.97571 0.0538 0.0
H2429 H 0.65795 0.95041 0.97496 0.0
H2430 H 0.66091 0.93655 0.08918 0.0
H2431 H 0.6863 0.94538 0.0838 0.0
H2432 H 0.67781 0.96252 0.09032 0.0
H2433 H 0.66495 0.92475 0.96458 0.0
H2434 H 0.67432 0.9151 0.99018 0.0
H2435 H 0.64865 0.90646 0.98767 0.0
H2436 H 0.69178 0.89556 0.07319 0.0
H2437 H 0.63022 0.87446 0.07511 0.0
H2438 H 0.70822 0.94035 0.0559 0.0
H2439 H 0.70227 0.93299 0.02151 0.0
H2440 H 0.7123 0.92135 0.04279 0.0
H2441 H 0.63034 0.91575 0.05701 0.0
H2442 H 0.6153 0.8897 0.05209 0.0
H2443 H 0.62816 0.90542 0.02434 0.0
C2444 C 0.07564 0.7156 -0.00238 0.0
C2445 C 0.05902 0.70325 0.01254 0.0
C2446 C 0.09014 0.73366 0.00797 0.0
C2447 C 0.0883 0.73928 0.03426 0.0
C2448 C 0.07101 0.72738 0.04882 0.0
C2449 C 0.05645 0.70961 0.03763 0.0
C2450 C 0.10796 0.74614 0.99138 0.0
C2451 C 0.06854 0.73267 0.07705 0.0
C2452 C 0.13348 0.76696 0.07805 0.0
C2453 C 0.13453 0.78522 0.08093 0.0
C2454 C 0.11903 0.75221 0.06194 0.0
C2455 C 0.10542 0.7559 0.04796 0.0
C2456 C 0.10749 0.77492 0.04893 0.0
C2457 C 0.12194 0.78935 0.06569 0.0
C2458 C 0.11742 0.7322 0.06166 0.0
C2459 C 0.09367 0.77965 0.03372 0.0
H2460 H 0.07765 0.71083 0.9781 0.0
H2461 H 0.0437 0.70006 0.04928 0.0
H2462 H 0.11197 0.76181 0.99261 0.0
H2463 H 0.1205 0.74486 -0.00066 0.0
H2464 H 0.10567 0.74157 0.96996 0.0
H2465 H 0.05367 0.72283 0.08481 0.0
H2466 H 0.0793 0.73168 0.09058 0.0
H2467 H 0.07141 0.748 0.07787 0.0
H2468 H 0.14306 0.76371 0.09018 0.0
H2469 H 0.12252 0.80335 0.06829 0.0
H2470 H 0.11706 0.72725 0.04074 0.0
H2471 H 0.10358 0.7214 0.07124 0.0
H2472 H 0.12973 0.73203 0.07253 0.0
H2473 H 0.09105 0.77353 0.01307 0.0
H2474 H 0.09932 0.79571 0.03251 0.0
H2475 H 0.07941 0.77286 0.04401 0.0
C2476 C 0.31368 0.35351 0.06222 0.0
C2477 C 0.32123 0.35804 0.03619 0.0
C2478 C 0.29616 0.35309 0.06874 0.0
C2479 C 0.28575 0.35722 0.04873 0.0
C2480 C 0.29286 0.36101 0.02213 0.0
C2481 C 0.31053 0.36143 0.01619 0.0
C2482 C 0.28916 0.34891 0.09737 0.0
C2483 C 0.28217 0.36531 0.00017 0.0
C2484 C 0.23432 0.34251 0.07118 0.0
C2485 C 0.23737 0.35983 0.08356 0.0
C2486 C 0.24953 0.34178 0.05753 0.0
C2487 C 0.26822 0.35875 0.05646 0.0
C2488 C 0.27073 0.37671 0.0667 0.0
C2489 C 0.25529 0.37701 0.08017 0.0
C2490 C 0.24607 0.32238 0.04664 0.0
C2491 C 0.29029 0.39522 0.06594 0.0
H2492 H 0.32177 0.35084 0.07783 0.0
H2493 H 0.31621 0.36495 0.996 0.0
H2494 H 0.28921 0.36195 0.10605 0.0
H2495 H 0.27394 0.3366 0.09797 0.0
H2496 H 0.29843 0.34514 0.11028 0.0
H2497 H 0.28836 0.36585 0.98006 0.0
H2498 H 0.26649 0.35403 -0.00011 0.0
H2499 H 0.28305 0.37965 0.00411 0.0
H2500 H 0.22062 0.32912 0.07427 0.0
H2501 H 0.25779 0.39032 0.09019 0.0
H2502 H 0.25258 0.31609 0.06063 0.0
H2503 H 0.25317 0.32432 0.0269 0.0
H2504 H 0.23025 0.31171 0.04437 0.0
H2505 H 0.30038 0.394 0.08055 0.0
H2506 H 0.28916 0.4084 0.07114 0.0
H2507 H 0.29685 0.39734 0.04578 0.0
C2508 C 0.73163 0.69022 0.37031 0.0
C2509 C 0.73459 0.6999 0.3457 0.0
C2510 C 0.74568 0.68583 0.3808 0.0
C2511 C 0.76282 0.69088 0.36601 0.0
C2512 C 0.76505 0.69922 0.34021 0.0
C2513 C 0.75104 0.70385 0.33053 0.0
C2514 C 0.74282 0.67702 0.4085 0.0
C2515 C 0.78278 0.70432 0.32349 0.0
C2516 C 0.807 0.70294 0.40972 0.0
C2517 C 0.8065 0.68487 0.41062 0.0
C2518 C 0.79347 0.70541 0.39406 0.0
C2519 C 0.77923 0.68941 0.3788 0.0
C2520 C 0.77983 0.67166 0.37781 0.0
C2521 C 0.79337 0.66953 0.39403 0.0
C2522 C 0.79335 0.72458 0.39575 0.0
C2523 C 0.76524 0.65444 0.36131 0.0
H2524 H 0.71901 0.68727 0.38213 0.0
H2525 H 0.75333 0.71121 0.31137 0.0
H2526 H 0.74477 0.66394 0.40818 0.0
H2527 H 0.75401 0.68783 0.42246 0.0
H2528 H 0.72815 0.67267 0.41656 0.0
H2529 H 0.78091 0.70789 0.30245 0.0
H2530 H 0.79569 0.7172 0.33238 0.0
H2531 H 0.78594 0.692 0.32333 0.0
H2532 H 0.81686 0.71459 0.42313 0.0
H2533 H 0.79272 0.65541 0.3953 0.0
H2534 H 0.77997 0.72221 0.40614 0.0
H2535 H 0.79307 0.73016 0.37537 0.0
H2536 H 0.80625 0.73599 0.40687 0.0
H2537 H 0.75087 0.64754 0.37133 0.0
H2538 H 0.76976 0.64317 0.35892 0.0
H2539 H 0.76326 0.65928 0.34112 0.0
C2540 C 0.33474 0.04541 0.384 0.0
C2541 C 0.33005 0.03773 0.3579 0.0
C2542 C 0.33477 0.06281 0.39078 0.0
C2543 C 0.33009 0.07291 0.37095 0.0
C2544 C 0.32626 0.06574 0.34426 0.0
C2545 C 0.32621 0.04821 0.33807 0.0
C2546 C 0.339 0.06993 0.41951 0.0
C2547 C 0.32144 0.07615 0.32248 0.0
C2548 C 0.30912 0.10214 0.40294 0.0
C2549 C 0.32593 0.12036 0.40676 0.0
C2550 C 0.30989 0.08696 0.3891 0.0
C2551 C 0.32793 0.0901 0.37893 0.0
C2552 C 0.34445 0.10914 0.38026 0.0
C2553 C 0.34326 0.12406 0.39428 0.0
C2554 C 0.29185 0.06698 0.38802 0.0
C2555 C 0.36389 0.11326 0.36936 0.0
H2556 H 0.33773 0.03745 0.39945 0.0
H2557 H 0.3226 0.04243 0.31781 0.0
H2558 H 0.35092 0.0854 0.42028 0.0
H2559 H 0.32588 0.06943 0.42827 0.0
H2560 H 0.34327 0.06096 0.43222 0.0
H2561 H 0.32114 0.0701 0.30224 0.0
H2562 H 0.30693 0.07467 0.32629 0.0
H2563 H 0.33224 0.09205 0.32259 0.0
H2564 H 0.29583 0.09917 0.41307 0.0
H2565 H 0.35637 0.13802 0.39772 0.0
H2566 H 0.29354 0.05709 0.40245 0.0
H2567 H 0.28984 0.06042 0.36775 0.0
H2568 H 0.2785 0.06762 0.39324 0.0
H2569 H 0.37066 0.10721 0.38332 0.0
H2570 H 0.37405 0.12924 0.36719 0.0
H2571 H 0.36207 0.10606 0.34958 0.0
C2572 C 0.97469 0.29078 0.38127 0.0
C2573 C 0.98139 0.29355 0.35478 0.0
C2574 C 0.95711 0.27422 0.3886 0.0
C2575 C 0.94568 0.26 0.36893 0.0
C2576 C 0.95202 0.26298 0.34195 0.0
C2577 C 0.96985 0.27966 0.33521 0.0
C2578 C 0.95102 0.27169 0.41765 0.0
C2579 C 0.94019 0.24835 0.32034 0.0
C2580 C 0.91358 0.21095 0.40202 0.0
C2581 C 0.89675 0.21216 0.40711 0.0
C2582 C 0.92904 0.22557 0.38724 0.0
C2583 C 0.92762 0.24179 0.37732 0.0
C2584 C 0.90976 0.24189 0.37991 0.0
C2585 C 0.89458 0.22712 0.39498 0.0
C2586 C 0.94772 0.22475 0.38501 0.0
C2587 C 0.9074 0.25866 0.36932 0.0
H2588 H 0.98346 0.30137 0.39658 0.0
H2589 H 0.97487 0.28167 0.31468 0.0
H2590 H 0.93631 0.27017 0.41931 0.0
H2591 H 0.95013 0.25807 0.42577 0.0
H2592 H 0.96135 0.28421 0.4304 0.0
H2593 H 0.94619 0.25358 0.30001 0.0
H2594 H 0.93996 0.23429 0.3242 0.0
H2595 H 0.92485 0.24526 0.32064 0.0
H2596 H 0.91546 0.19964 0.41192 0.0
H2597 H 0.88176 0.22833 0.3994 0.0
H2598 H 0.95869 0.23536 0.39936 0.0
H2599 H 0.95383 0.22894 0.36457 0.0
H2600 H 0.94549 0.20992 0.38966 0.0
H2601 H 0.91511 0.27146 0.38295 0.0
H2602 H 0.89181 0.25476 0.36808 0.0
H2603 H 0.91395 0.2632 0.34916 0.0
C2604 C 0.02121 0.38595 0.29616 0.0
C2605 C 0.02486 0.38507 0.32353 0.0
C2606 C 0.01789 0.40086 0.28607 0.0
C2607 C 0.01771 0.41485 0.30394 0.0
C2608 C 0.01962 0.41283 0.33189 0.0
C2609 C 0.02358 0.39821 0.34129 0.0
C2610 C 0.01626 0.40262 0.25608 0.0
C2611 C 0.01878 0.42689 0.35173 0.0
C2612 C 0.03785 0.46529 0.273 0.0
C2613 C 0.0209 0.46479 0.26312 0.0
C2614 C 0.03692 0.44956 0.28764 0.0
C2615 C 0.01851 0.43301 0.29301 0.0
C2616 C 1.00126 0.43329 0.28533 0.0
C2617 C 1.00266 0.4491 0.27006 0.0
C2618 C 0.05573 0.44992 0.29512 0.0
C2619 C 0.98137 0.41631 0.29146 0.0
H2620 H 0.02248 0.37596 0.28241 0.0
H2621 H 0.02641 0.39753 0.3625 0.0
H2622 H 1.00328 0.40402 0.25098 0.0
H2623 H 0.02928 0.41607 0.24888 0.0
H2624 H 0.01521 0.38981 0.24511 0.0
H2625 H 0.01666 0.42114 0.37256 0.0
H2626 H 0.03264 0.44105 0.35118 0.0
H2627 H 1.00677 0.42987 0.34644 0.0
H2628 H 0.05193 0.47726 0.2671 0.0
H2629 H 0.98955 0.44851 0.26194 0.0
H2630 H 0.0569 0.43847 0.28357 0.0
H2631 H 0.05589 0.44657 0.31673 0.0
H2632 H 0.06877 0.46433 0.29092 0.0
H2633 H 0.97792 0.40412 0.27729 0.0
H2634 H 0.96982 0.42046 0.28942 0.0
H2635 H 0.98102 0.41076 0.31209 0.0
C2636 C 0.62704 0.64658 0.34003 0.0
C2637 C 0.641 0.65603 0.31995 0.0
C2638 C 0.60927 0.6294 0.33441 0.0
C2639 C 0.60533 0.62151 0.30808 0.0
C2640 C 0.61968 0.63062 0.28803 0.0
C2641 C 0.63728 0.6477 0.29421 0.0
C2642 C 0.59446 0.62008 0.35639 0.0
C2643 C 0.61618 0.6227 0.25968 0.0
C2644 C 0.56724 0.5702 0.28652 0.0
C2645 C 0.55382 0.57404 0.27295 0.0
C2646 C 0.58327 0.58518 0.30048 0.0
C2647 C 0.58592 0.60442 0.30067 0.0
C2648 C 0.5712 0.60776 0.28946 0.0
C2649 C 0.55534 0.59252 0.27566 0.0
C2650 C 0.59842 0.58084 0.31243 0.0
C2651 C 0.57326 0.62794 0.28933 0.0
H2652 H 0.62976 0.6529 0.35999 0.0
H2653 H 0.64795 0.65483 0.27857 0.0
H2654 H 0.58164 0.62194 0.35192 0.0
H2655 H 0.58917 0.6041 0.35736 0.0
H2656 H 0.60051 0.62668 0.37636 0.0
H2657 H 0.62908 0.63102 0.24671 0.0
H2658 H 0.61246 0.60709 0.2598 0.0
H2659 H 0.6036 0.62339 0.25059 0.0
H2660 H 0.56631 0.55603 0.28394 0.0
H2661 H 0.54519 0.5956 0.26469 0.0
H2662 H 0.60392 0.58847 0.33195 0.0
H2663 H 0.61101 0.58626 0.29868 0.0
H2664 H 0.59254 0.56487 0.31544 0.0
H2665 H 0.57818 0.63504 0.30927 0.0
H2666 H 0.55934 0.62749 0.28382 0.0
H2667 H 0.58446 0.63725 0.27452 0.0
C2668 C 0.38018 0.99904 0.29921 0.0
C2669 C 0.37412 0.98924 0.32377 0.0
C2670 C 0.39779 1.00238 0.2876 0.0
C2671 C 0.40967 0.99605 0.30114 0.0
C2672 C 0.40435 0.98768 0.32696 0.0
C2673 C 0.38658 0.9842 0.3378 0.0
C2674 C 0.40294 0.01134 0.25998 0.0
C2675 C 0.41671 0.9811 0.34237 0.0
C2676 C 0.43685 0.97907 0.25585 0.0
C2677 C 0.45547 0.99561 0.2551 0.0
C2678 C 0.42206 0.97885 0.27146 0.0
C2679 C 0.42599 0.9956 0.28683 0.0
C2680 C 0.44517 0.01187 0.28757 0.0
C2681 C 0.45971 0.01173 0.27153 0.0
C2682 C 0.40189 0.96111 0.27017 0.0
C2683 C 0.45005 0.02986 0.30403 0.0
H2684 H 0.37058 1.00287 0.28825 0.0
H2685 H 0.38207 0.97676 0.35693 0.0
H2686 H 0.41837 0.02321 0.25953 0.0
H2687 H 0.4013 0.99999 0.24529 0.0
H2688 H 0.39346 0.0174 0.25342 0.0
H2689 H 0.41222 0.97779 0.36367 0.0
H2690 H 0.41531 0.96766 0.33294 0.0
H2691 H 0.43233 0.99249 0.34178 0.0
H2692 H 0.43353 0.96675 0.24277 0.0
H2693 H 0.47401 0.02468 0.27048 0.0
H2694 H 0.39151 0.96525 0.26108 0.0
H2695 H 0.39669 0.95559 0.29067 0.0
H2696 H 0.40146 0.94901 0.25812 0.0
H2697 H 0.44317 0.03785 0.29465 0.0
H2698 H 0.46604 0.03998 0.30548 0.0
H2699 H 0.44414 0.02569 0.32459 0.0
C2700 C 0.62901 0.99606 0.2903 0.0
C2701 C 0.63407 0.99511 0.3171 0.0
C2702 C 0.61334 0.9991 0.28372 0.0
C2703 C 0.60266 1.00174 0.30446 0.0
C2704 C 0.60818 1.00159 0.33158 0.0
C2705 C 0.62367 0.998 0.33761 0.0
C2706 C 0.60786 0.99887 0.25448 0.0
C2707 C 0.59752 1.00484 0.35421 0.0
C2708 C 0.57287 0.02256 0.27332 0.0
C2709 C 0.55561 1.00529 0.26692 0.0
C2710 C 0.58765 0.02199 0.28872 0.0
C2711 C 0.58522 1.00365 0.29719 0.0
C2712 C 0.56689 0.98651 0.29341 0.0
C2713 C 0.55223 0.98759 0.27845 0.0
C2714 C 0.60668 0.04071 0.29309 0.0
C2715 C 0.56359 0.96661 0.30188 0.0
H2716 H 0.6369 0.99375 0.27433 0.0
H2717 H 0.62757 0.99738 0.35838 0.0
H2718 H 0.59263 0.98702 0.25089 0.0
H2719 H 0.60855 0.01294 0.24911 0.0
H2720 H 0.61758 0.99653 0.24083 0.0
H2721 H 0.60514 1.00684 0.37382 0.0
H2722 H 0.59593 0.01791 0.35017 0.0
H2723 H 0.58262 0.99206 0.35576 0.0
H2724 H 0.57561 0.03621 0.26405 0.0
H2725 H 0.53903 0.97418 0.27304 0.0
H2726 H 0.61734 0.04175 0.27789 0.0
H2727 H 0.61294 0.0409 0.31322 0.0
H2728 H 0.60482 0.05381 0.29106 0.0
H2729 H 0.5712 0.96178 0.28778 0.0
H2730 H 0.54784 0.95545 0.30174 0.0
H2731 H 0.56968 0.96722 0.32224 0.0
C2732 C 0.04463 0.63627 0.3512 0.0
C2733 C 0.03948 0.64856 0.33696 0.0
C2734 C 0.04087 0.61813 0.34064 0.0
C2735 C 0.03227 0.61237 0.3148 0.0
C2736 C 0.02614 0.62427 0.30091 0.0
C2737 C 0.02959 0.64212 0.31233 0.0
C2738 C 0.04707 0.60565 0.35651 0.0
C2739 C 0.01715 0.61883 0.27317 0.0
C2740 C 0.04688 0.58331 0.26906 0.0
C2741 C 0.0296 0.56527 0.26727 0.0
C2742 C 0.04823 0.59842 0.28549 0.0
C2743 C 0.03193 0.59534 0.30086 0.0
C2744 C 0.01501 0.57655 0.30091 0.0
C2745 C 0.01395 0.56175 0.28382 0.0
C2746 C 0.06654 0.6182 0.2846 0.0
C2747 C 0.99753 0.57246 0.31754 0.0
H2748 H 0.05214 0.6411 0.37038 0.0
H2749 H 0.0257 0.65162 0.30118 0.0
H2750 H 0.03542 0.59005 0.35608 0.0
H2751 H 0.06022 0.60649 0.34735 0.0
H2752 H 0.05056 0.61053 0.37775 0.0
H2753 H 1.01193 0.62886 0.26585 0.0
H2754 H 0.02811 0.61935 0.25889 0.0
H2755 H 1.0047 0.60363 0.273 0.0
H2756 H 0.05882 0.58612 0.25581 0.0
H2757 H 1.00043 0.54795 0.282 0.0
H2758 H 0.0721 0.62343 0.3052 0.0
H2759 H 0.06316 0.62906 0.27523 0.0
H2760 H 0.07829 0.61783 0.27294 0.0
H2761 H 1.00212 0.57874 0.33799 0.0
H2762 H 0.98716 0.55649 0.31923 0.0
H2763 H 0.98973 0.5795 0.30806 0.0
C2764 C 0.38762 0.40654 0.34328 0.0
C2765 C 0.37532 0.39361 0.32331 0.0
C2766 C 0.40555 0.423 0.33672 0.0
C2767 C 0.41115 0.4268 0.30952 0.0
C2768 C 0.39906 0.41344 0.28938 0.0
C2769 C 0.38138 0.39695 0.29655 0.0
C2770 C 0.41819 0.43665 0.35879 0.0
C2771 C 0.40442 0.41698 0.26007 0.0
C2772 C 0.44195 0.47744 0.28051 0.0
C2773 C 0.45874 0.47679 0.27325 0.0
C2774 C 0.42691 0.46189 0.29453 0.0
C2775 C 0.4288 0.44537 0.30151 0.0
C2776 C 0.44668 0.4457 0.29683 0.0
C2777 C 0.46144 0.46141 0.28251 0.0
C2778 C 0.40816 0.46222 0.29909 0.0
C2779 C 0.44948 0.42861 0.30446 0.0
H2780 H 0.3831 0.40398 0.36405 0.0
H2781 H 0.37196 0.38705 0.28102 0.0
H2782 H 0.4335 0.43991 0.35669 0.0
H2783 H 0.4182 0.45077 0.35724 0.0
H2784 H 0.41297 0.43043 0.37906 0.0
H2785 H 0.39377 0.40488 0.247 0.0
H2786 H 0.40508 0.43084 0.25348 0.0
H2787 H 0.41908 0.41864 0.25704 0.0
H2788 H 0.43976 0.48918 0.27284 0.0
H2789 H 0.47427 0.46075 0.27641 0.0
H2790 H 0.40277 0.45731 0.3197 0.0
H2791 H 0.3968 0.45191 0.28487 0.0
H2792 H 0.40996 0.47705 0.29595 0.0
H2793 H 0.44333 0.42289 0.32455 0.0
H2794 H 0.46514 0.43272 0.30458 0.0
H2795 H 0.44166 0.41656 0.28974 0.0
C2796 C 0.3424 0.29941 0.34568 0.0
C2797 C 0.33283 0.30522 0.36394 0.0
C2798 C 0.34691 0.28464 0.35234 0.0
C2799 C 0.34143 0.2754 0.37771 0.0
C2800 C 0.33275 0.28211 0.39672 0.0
C2801 C 0.32846 0.29689 0.3895 0.0
C2802 C 0.35631 0.27808 0.33162 0.0
C2803 C 0.32678 0.27279 0.42409 0.0
C2804 C 0.3254 0.22245 0.39271 0.0
C2805 C 0.34026 0.2246 0.41034 0.0
C2806 C 0.32654 0.23879 0.37938 0.0
C2807 C 0.34294 0.2576 0.38394 0.0
C2808 C 0.35904 0.2593 0.39899 0.0
C2809 C 0.35747 0.24273 0.41216 0.0
C2810 C 0.30915 0.23625 0.36315 0.0
C2811 C 0.37696 0.27894 0.4039 0.0
H2812 H 0.34536 0.30564 0.32567 0.0
H2813 H 0.32069 0.30118 0.40332 0.0
H2814 H 0.36762 0.27538 0.34096 0.0
H2815 H 0.34508 0.2641 0.32247 0.0
H2816 H 0.36308 0.28906 0.31536 0.0
H2817 H 0.3214 0.28057 0.43708 0.0
H2818 H 0.31502 0.25732 0.42186 0.0
H2819 H 0.33928 0.27267 0.43439 0.0
H2820 H 0.312 0.20848 0.39165 0.0
H2821 H 0.36886 0.24438 0.4261 0.0
H2822 H 0.31388 0.24491 0.34437 0.0
H2823 H 0.30094 0.24171 0.37497 0.0
H2824 H 0.29911 0.22064 0.35794 0.0
H2825 H 0.38109 0.28804 0.38547 0.0
H2826 H 0.38955 0.27732 0.41078 0.0
H2827 H 0.37381 0.28693 0.41967 0.0
C2828 C 0.72286 0.04039 0.37387 0.0
C2829 C 0.72448 0.03436 0.34807 0.0
C2830 C 0.73743 0.05841 0.38436 0.0
C2831 C 0.75364 0.07093 0.3683 0.0
C2832 C 0.75439 0.06558 0.34143 0.0
C2833 C 0.74002 0.04719 0.33182 0.0
C2834 C 0.73622 0.06334 0.41329 0.0
C2835 C 0.77095 0.07877 0.32329 0.0
C2836 C 0.78681 0.12099 0.3999 0.0
C2837 C 0.80069 0.11751 0.4128 0.0
C2838 C 0.77207 0.10645 0.38359 0.0
C2839 C 0.77101 0.08793 0.3809 0.0
C2840 C 0.78585 0.08497 0.39248 0.0
C2841 C 0.80059 0.09987 0.40803 0.0
C2842 C 0.75695 0.11045 0.37079 0.0
C2843 C 0.78529 0.06547 0.39045 0.0
H2844 H 0.71093 0.03043 0.38649 0.0
H2845 H 0.74122 0.04263 0.31176 0.0
H2846 H 0.74816 0.06314 0.42509 0.0
H2847 H 0.73819 0.07831 0.4149 0.0
H2848 H 0.72208 0.05281 0.42246 0.0
H2849 H 0.76755 0.0743 0.30189 0.0
H2850 H 0.7743 0.09422 0.32531 0.0
H2851 H 0.78427 0.07819 0.32915 0.0
H2852 H 0.7867 0.13451 0.40397 0.0
H2853 H 0.81119 0.09713 0.41839 0.0
H2854 H 0.74335 0.10318 0.3826 0.0
H2855 H 0.75336 0.10439 0.35011 0.0
H2856 H 0.76196 0.12639 0.37005 0.0
H2857 H 0.77219 0.05405 0.40084 0.0
H2858 H 0.79842 0.06589 0.39957 0.0
H2859 H 0.78416 0.06093 0.36916 0.0
C2860 C 0.9823 0.68519 0.39744 0.0
C2861 C 0.98854 0.68863 0.37073 0.0
C2862 C 0.96434 0.68344 0.40477 0.0
C2863 C 0.95211 0.68491 0.38488 0.0
C2864 C 0.95782 0.68729 0.35766 0.0
C2865 C 0.97603 0.68926 0.35092 0.0
C2866 C 0.95892 0.681 0.43408 0.0
C2867 C 0.94509 0.68856 0.33579 0.0
C2868 C 0.90146 0.66953 0.41149 0.0
C2869 C 0.9041 0.68753 0.42078 0.0
C2870 C 0.91643 0.66851 0.39759 0.0
C2871 C 0.93443 0.68588 0.39326 0.0
C2872 C 0.93638 0.70422 0.40056 0.0
C2873 C 0.92118 0.7048 0.41418 0.0
C2874 C 0.91356 0.64871 0.38967 0.0
C2875 C 0.95523 0.72313 0.3964 0.0
H2876 H 0.99182 0.68466 0.41289 0.0
H2877 H 0.98066 0.6918 0.33019 0.0
H2878 H 0.95838 0.69411 0.44126 0.0
H2879 H 0.9442 0.66813 0.43682 0.0
H2880 H 0.96948 0.67905 0.44686 0.0
H2881 H 0.9502 0.68761 0.31545 0.0
H2882 H 0.92977 0.67667 0.338 0.0
H2883 H 0.94515 0.7027 0.33748 0.0
H2884 H 0.88838 0.65614 0.41696 0.0
H2885 H 0.92329 0.71869 0.42168 0.0
H2886 H 0.92139 0.64423 0.40423 0.0
H2887 H 0.9197 0.6493 0.36953 0.0
H2888 H 0.8979 0.63731 0.38951 0.0
H2889 H 0.9666 0.72363 0.41024 0.0
H2890 H 0.95363 0.73621 0.40028 0.0
H2891 H 0.96049 0.72399 0.37563 0.0
C2892 C 0.39864 0.0257 0.70247 0.0
C2893 C 0.40099 0.03534 0.67796 0.0
C2894 C 0.41284 0.02115 0.71186 0.0
C2895 C 0.42947 0.02597 0.696 0.0
C2896 C 0.43105 0.03427 0.67031 0.0
C2897 C 0.41694 0.03911 0.66178 0.0
C2898 C 0.41071 0.0124 0.7395 0.0
C2899 C 0.44819 0.03909 0.65247 0.0
C2900 C 0.47469 0.03757 0.73695 0.0
C2901 C 0.47382 0.01933 0.73755 0.0
C2902 C 0.46091 0.04024 0.72222 0.0
C2903 C 0.44609 0.02428 0.70755 0.0
C2904 C 0.44634 1.00638 0.70607 0.0
C2905 C 0.46012 1.00403 0.72141 0.0
C2906 C 0.46117 0.05958 0.7244 0.0
C2907 C 0.43114 0.98921 0.69009 0.0
H2908 H 0.3864 0.0229 0.71507 0.0
H2909 H 0.41876 0.04646 0.6427 0.0
H2910 H 0.41237 0.99917 0.73864 0.0
H2911 H 0.42243 0.02315 0.75293 0.0
H2912 H 0.39637 1.00833 0.74851 0.0
H2913 H 0.44575 0.04264 0.63167 0.0
H2914 H 0.46145 0.05192 0.66077 0.0
H2915 H 0.45114 0.02665 0.65175 0.0
H2916 H 0.485 0.04919 0.75003 0.0
H2917 H 0.45921 0.98979 0.72245 0.0
H2918 H 0.44821 0.05746 0.73569 0.0
H2919 H 0.46035 0.06511 0.7042 0.0
H2920 H 0.47448 0.07091 0.73488 0.0
H2921 H 0.4171 0.98246 0.70095 0.0
H2922 H 0.43541 0.97781 0.68701 0.0
H2923 H 0.42863 0.99406 0.67022 0.0
C2924 C 0.99485 0.37393 0.71883 0.0
C2925 C 0.98939 0.36565 0.69313 0.0
C2926 C 0.99511 0.3915 0.7252 0.0
C2927 C 0.98987 0.40113 0.70536 0.0
C2928 C 0.985 0.39322 0.67911 0.0
C2929 C 0.98477 0.37555 0.67331 0.0
C2930 C 1.00047 0.39944 0.75348 0.0
C2931 C 0.97947 0.4031 0.65737 0.0
C2932 C 0.97183 0.43254 0.73828 0.0
C2933 C 0.98917 0.45048 0.74058 0.0
C2934 C 0.97133 0.41671 0.72449 0.0
C2935 C 0.98864 0.41891 0.71288 0.0
C2936 C 1.00558 0.43767 0.71262 0.0
C2937 C 1.00566 0.45325 0.7266 0.0
C2938 C 0.95289 0.39707 0.72509 0.0
C2939 C 0.02427 0.44078 0.7002 0.0
H2940 H 0.99846 0.36642 0.73425 0.0
H2941 H 0.98056 0.36927 0.65336 0.0
H2942 H 1.01271 0.41476 0.75315 0.0
H2943 H 0.98788 0.39966 0.76288 0.0
H2944 H 1.00481 0.39057 0.76629 0.0
H2945 H 0.97785 0.39613 0.63743 0.0
H2946 H 0.96545 0.40236 0.66243 0.0
H2947 H 0.99063 0.41883 0.65599 0.0
H2948 H 0.95921 0.43031 0.74958 0.0
H2949 H 0.01918 0.46701 0.72887 0.0
H2950 H 0.95469 0.38744 0.73988 0.0
H2951 H 0.94992 0.38974 0.70523 0.0
H2952 H 0.94005 0.39845 0.7309 0.0
H2953 H 0.0313 0.43476 0.71375 0.0
H2954 H 0.03472 0.45659 0.69699 0.0
H2955 H 0.02134 0.43297 0.68072 0.0
C2956 C 0.63931 0.62211 0.71735 0.0
C2957 C 0.64565 0.62334 0.69086 0.0
C2958 C 0.62207 0.6057 0.72619 0.0
C2959 C 0.6108 0.59011 0.70812 0.0
C2960 C 0.61677 0.59157 0.68112 0.0
C2961 C 0.63412 0.60813 0.67283 0.0
C2962 C 0.61624 0.60481 0.75516 0.0
C2963 C 0.60514 0.57538 0.66118 0.0
C2964 C 0.58045 0.54215 0.74492 0.0
C2965 C 0.56283 0.54219 0.74812 0.0
C2966 C 0.59574 0.55684 0.73 0.0
C2967 C 0.59335 0.57199 0.71811 0.0
C2968 C 0.57489 0.57095 0.71911 0.0
C2969 C 0.55985 0.55607 0.7342 0.0
C2970 C 0.61507 0.55722 0.72934 0.0
C2971 C 0.57158 0.58661 0.70652 0.0
H2972 H 0.64809 0.63375 0.73143 0.0
H2973 H 0.63886 0.60893 0.65231 0.0
H2974 H 0.60116 0.60241 0.7563 0.0
H2975 H 0.61636 0.59224 0.76528 0.0
H2976 H 0.62616 0.61842 0.7664 0.0
H2977 H 0.61083 0.57941 0.64047 0.0
H2978 H 0.60558 0.56196 0.66712 0.0
H2979 H 0.58961 0.5717 0.66115 0.0
H2980 H 0.58292 0.5317 0.7562 0.0
H2981 H 0.5464 0.55641 0.7372 0.0
H2982 H 0.62565 0.56905 0.74276 0.0
H2983 H 0.62114 0.56043 0.7088 0.0
H2984 H 0.61378 0.54311 0.73609 0.0
H2985 H 0.57883 0.60008 0.71903 0.0
H2986 H 0.55581 0.58195 0.7049 0.0
H2987 H 0.57806 0.59045 0.68624 0.0
C2988 C 0.67647 0.71555 0.65857 0.0
C2989 C 0.68968 0.71254 0.6435 0.0
C2990 C 0.67158 0.72998 0.65105 0.0
C2991 C 0.68006 0.74153 0.62788 0.0
C2992 C 0.69275 0.73782 0.61203 0.0
C2993 C 0.69757 0.72357 0.62023 0.0
C2994 C 0.65819 0.73355 0.66866 0.0
C2995 C 0.70189 0.74946 0.5869 0.0
C2996 C 0.66214 0.77099 0.58831 0.0
C2997 C 0.67712 0.79019 0.59353 0.0
C2998 C 0.66169 0.75487 0.60141 0.0
C2999 C 0.67654 0.75804 0.6203 0.0
C3000 C 0.69023 0.77753 0.628 0.0
C3001 C 0.69042 0.79341 0.6144 0.0
C3002 C 0.64672 0.73445 0.59262 0.0
C3003 C 0.70606 0.78165 0.64847 0.0
H3004 H 0.67078 0.70735 0.67697 0.0
H3005 H 0.70804 0.72144 0.60887 0.0
H3006 H 0.66677 0.74771 0.67939 0.0
H3007 H 0.64694 0.73466 0.65638 0.0
H3008 H 0.65081 0.72177 0.68378 0.0
H3009 H 0.71048 0.74397 0.576 0.0
H3010 H 0.69044 0.74886 0.57313 0.0
H3011 H 0.71172 0.76508 0.59219 0.0
H3012 H 0.65198 0.76846 0.57191 0.0
H3013 H 0.70217 0.80819 0.61822 0.0
H3014 H 0.64118 0.72439 0.61004 0.0
H3015 H 0.65363 0.72866 0.57878 0.0
H3016 H 0.63419 0.7343 0.58195 0.0
H3017 H 0.70008 0.77165 0.66589 0.0
H3018 H 0.71319 0.79705 0.65576 0.0
H3019 H 0.71736 0.77907 0.63924 0.0
C3020 C 0.29376 0.98111 0.67266 0.0
C3021 C 0.30771 0.99098 0.65272 0.0
C3022 C 0.27618 0.96381 0.66674 0.0
C3023 C 0.27243 0.95623 0.64025 0.0
C3024 C 0.28679 0.96576 0.62032 0.0
C3025 C 0.30421 0.98295 0.6268 0.0
C3026 C 0.26135 0.95404 0.68859 0.0
C3027 C 0.28348 0.95818 0.5918 0.0
C3028 C 0.2349 0.905 0.61762 0.0
C3029 C 0.22135 0.90878 0.60429 0.0
C3030 C 0.25079 0.91994 0.63184 0.0
C3031 C 0.25317 0.93907 0.63252 0.0
C3032 C 0.23832 0.94231 0.62153 0.0
C3033 C 0.22261 0.92712 0.60747 0.0
C3034 C 0.26608 0.91572 0.64354 0.0
C3035 C 0.2401 0.96237 0.62193 0.0
H3036 H 0.29632 0.98719 0.69276 0.0
H3037 H 0.31488 0.99041 0.61126 0.0
H3038 H 0.24841 0.95572 0.6843 0.0
H3039 H 0.25628 0.93809 0.68915 0.0
H3040 H 0.2673 0.96042 0.70869 0.0
H3041 H 0.29639 0.9668 0.57897 0.0
H3042 H 0.27998 0.94264 0.59155 0.0
H3043 H 0.27083 0.95877 0.5828 0.0
H3044 H 0.23415 0.89095 0.6147 0.0
H3045 H 0.21235 0.93014 0.5967 0.0
H3046 H 0.27147 0.92314 0.66321 0.0
H3047 H 0.27872 0.92146 0.62983 0.0
H3048 H 0.26039 0.89974 0.64617 0.0
H3049 H 0.24488 0.96923 0.64204 0.0
H3050 H 0.22611 0.96179 0.61649 0.0
H3051 H 0.25131 0.97197 0.60732 0.0
C3052 C 0.03847 0.31218 0.63078 0.0
C3053 C 0.03624 0.32126 0.6535 0.0
C3054 C 0.05701 0.31792 0.62053 0.0
C3055 C 0.07381 0.33276 0.63383 0.0
C3056 C 0.07159 0.34215 0.65673 0.0
C3057 C 0.05274 0.33635 0.66623 0.0
C3058 C 0.05861 0.3078 0.5957 0.0
C3059 C 0.0891 0.35774 0.67172 0.0
C3060 C 0.11757 0.32792 0.61441 0.0
C3061 C 0.12422 0.34046 0.59225 0.0
C3062 C 0.1023 0.32671 0.63019 0.0
C3063 C 0.09348 0.33816 0.62333 0.0
C3064 C 0.10167 0.35236 0.6028 0.0
C3065 C 0.11702 0.35341 0.58761 0.0
C3066 C 0.09434 0.31175 0.6524 0.0
C3067 C 0.09281 0.36489 0.59473 0.0
H3068 H 0.02564 0.30035 0.62122 0.0
H3069 H 0.05092 0.34301 0.6842 0.0
H3070 H 0.06704 0.3188 0.5801 0.0
H3071 H 0.06658 0.29981 0.60062 0.0
H3072 H 0.0441 0.29719 0.58713 0.0
H3073 H 0.08491 0.36467 0.68782 0.0
H3074 H 0.09739 0.35113 0.68094 0.0
H3075 H 0.09908 0.3693 0.65774 0.0
H3076 H 0.12308 0.31787 0.61798 0.0
H3077 H 0.12227 0.36319 0.5705 0.0
H3078 H 0.08069 0.29874 0.64537 0.0
H3079 H 0.09073 0.31778 0.67018 0.0
H3080 H 0.10485 0.30685 0.65858 0.0
H3081 H 0.07906 0.35578 0.58333 0.0
H3082 H 0.10275 0.37736 0.58183 0.0
H3083 H 0.08914 0.37074 0.61263 0.0
C3084 C 0.29411 0.33015 0.62957 0.0
C3085 C 0.29669 0.32443 0.65529 0.0
C3086 C 0.27754 0.33171 0.62309 0.0
C3087 C 0.26319 0.32754 0.64284 0.0
C3088 C 0.26607 0.32252 0.66914 0.0
C3089 C 0.28276 0.32096 0.67504 0.0
C3090 C 0.27509 0.3372 0.59477 0.0
C3091 C 0.25124 0.31816 0.69079 0.0
C3092 C 0.22957 0.3465 0.6204 0.0
C3093 C 0.21542 0.33028 0.60606 0.0
C3094 C 0.24429 0.34534 0.63509 0.0
C3095 C 0.24484 0.32755 0.63515 0.0
C3096 C 0.2292 0.31055 0.62338 0.0
C3097 C 0.21464 0.31214 0.60892 0.0
C3098 C 0.26045 0.36373 0.64774 0.0
C3099 C 0.22906 0.29124 0.62315 0.0
H3100 H 0.30478 0.33286 0.61421 0.0
H3101 H 0.28465 0.31656 0.695 0.0
H3102 H 0.26191 0.32495 0.5853 0.0
H3103 H 0.27294 0.35015 0.59501 0.0
H3104 H 0.28787 0.34062 0.58205 0.0
H3105 H 0.25664 0.31663 0.71086 0.0
H3106 H 0.24733 0.32993 0.69177 0.0
H3107 H 0.23769 0.3043 0.68595 0.0
H3108 H 0.23037 0.36062 0.61774 0.0
H3109 H 0.2039 0.2997 0.59737 0.0
H3110 H 0.27329 0.37004 0.63436 0.0
H3111 H 0.2651 0.36048 0.6673 0.0
H3112 H 0.25595 0.37495 0.65088 0.0
H3113 H 0.23993 0.292 0.60851 0.0
H3114 H 0.21453 0.27888 0.61732 0.0
H3115 H 0.23322 0.2881 0.64314 0.0
C3116 C 0.7113 0.96824 0.68482 0.0
C3117 C 0.70671 0.9807 0.66991 0.0
C3118 C 0.70695 0.94974 0.67493 0.0
C3119 C 0.69842 0.94378 0.64909 0.0
C3120 C 0.69304 0.95598 0.63442 0.0
C3121 C 0.697 0.97417 0.64519 0.0
C3122 C 0.71231 0.93697 0.69165 0.0
C3123 C 0.68421 0.95037 0.60659 0.0
C3124 C 0.71085 0.91213 0.60515 0.0
C3125 C 0.69293 0.89472 0.60343 0.0
C3126 C 0.71312 0.92785 0.62108 0.0
C3127 C 0.69712 0.92601 0.63607 0.0
C3128 C 0.67953 0.90777 0.63635 0.0
C3129 C 0.67753 0.89239 0.61968 0.0
C3130 C 0.73209 0.94701 0.61987 0.0
C3131 C 0.66233 0.90496 0.65267 0.0
H3132 H 0.71868 0.97315 0.70406 0.0
H3133 H 0.69355 0.98379 0.63352 0.0
H3134 H 0.70015 0.9216 0.6917 0.0
H3135 H 0.72514 0.9369 0.68283 0.0
H3136 H 0.71597 0.94224 0.71272 0.0
H3137 H 0.67993 0.96092 0.59839 0.0
H3138 H 0.6949 0.9498 0.59282 0.0
H3139 H 0.67115 0.93556 0.60678 0.0
H3140 H 0.72258 0.91407 0.59207 0.0
H3141 H 0.66353 0.8791 0.61789 0.0
H3142 H 0.73766 0.9525 0.64038 0.0
H3143 H 0.72958 0.9582 0.60969 0.0
H3144 H 0.74351 0.94562 0.60879 0.0
H3145 H 0.66713 0.91151 0.67295 0.0
H3146 H 0.65132 0.88921 0.6548 0.0
H3147 H 0.65522 0.9125 0.64265 0.0
C3148 C 0.05861 0.73852 0.67556 0.0
C3149 C 0.04603 0.72602 0.65546 0.0
C3150 C 0.07657 0.75498 0.66907 0.0
C3151 C 0.08189 0.75922 0.64182 0.0
C3152 C 0.06956 0.74622 0.62153 0.0
C3153 C 0.05188 0.72972 0.62863 0.0
C3154 C 0.08948 0.76821 0.69128 0.0
C3155 C 0.07461 0.75022 0.59217 0.0
C3156 C 0.11217 0.81021 0.6137 0.0
C3157 C 0.12878 0.80963 0.60534 0.0
C3158 C 0.09742 0.79452 0.6279 0.0
C3159 C 0.09943 0.77793 0.63394 0.0
C3160 C 0.1172 0.77833 0.62819 0.0
C3161 C 0.13165 0.79416 0.61369 0.0
C3162 C 0.07876 0.79478 0.63358 0.0
C3163 C 0.12016 0.76119 0.63483 0.0
H3164 H 0.05425 0.73568 0.69639 0.0
H3165 H 0.04225 0.72016 0.61298 0.0
H3166 H 0.10481 0.77174 0.68839 0.0
H3167 H 0.08926 0.78225 0.69082 0.0
H3168 H 0.08464 0.7615 0.7114 0.0
H3169 H 0.06383 0.73833 0.57897 0.0
H3170 H 0.07522 0.76417 0.58627 0.0
H3171 H 0.08923 0.75192 0.58855 0.0
H3172 H 0.10983 0.82202 0.60673 0.0
H3173 H 0.14434 0.79356 0.60674 0.0
H3174 H 0.07374 0.78962 0.65425 0.0
H3175 H 0.06715 0.78465 0.6195 0.0
H3176 H 0.08051 0.80965 0.63112 0.0
H3177 H 0.11429 0.75518 0.65493 0.0
H3178 H 0.13583 0.76535 0.63437 0.0
H3179 H 0.11219 0.74933 0.61989 0.0
C3180 C 1.0015 0.63344 0.7168 0.0
C3181 C 0.99915 0.63599 0.6895 0.0
C3182 C 1.00388 0.61768 0.72561 0.0
C3183 C 1.00422 0.60444 0.70654 0.0
C3184 C 1.00365 0.60811 0.67882 0.0
C3185 C 1.0008 0.62368 0.67064 0.0
C3186 C 1.00429 0.61424 0.75539 0.0
C3187 C 1.00457 0.59477 0.65783 0.0
C3188 C 0.01613 0.56717 0.73762 0.0
C3189 C 0.99738 0.5519 0.74341 0.0
C3190 C 0.01873 0.5839 0.72361 0.0
C3191 C 1.00217 0.5854 0.71579 0.0
C3192 C 0.98325 0.56922 0.71965 0.0
C3193 C 0.98111 0.55265 0.73336 0.0
C3194 C 0.03915 0.60057 0.71925 0.0
C3195 C 0.96515 0.57012 0.71166 0.0
H3196 H 0.99992 0.64281 0.73134 0.0
H3197 H 0.99896 0.62568 0.64948 0.0
H3198 H 0.99062 0.60087 0.76113 0.0
H3199 H 0.01661 0.61174 0.76062 0.0
H3200 H 1.00567 0.62675 0.76748 0.0
H3201 H 1.00775 0.60164 0.63763 0.0
H3202 H 0.0159 0.59081 0.66316 0.0
H3203 H 0.99035 0.58099 0.65675 0.0
H3204 H 0.0287 0.56675 0.74593 0.0
H3205 H 0.96663 0.54097 0.73838 0.0
H3206 H 0.0426 0.61216 0.73445 0.0
H3207 H 0.04044 0.6072 0.69914 0.0
H3208 H 0.05015 0.59567 0.72119 0.0
H3209 H 0.96399 0.58112 0.72429 0.0
H3210 H 0.95165 0.55577 0.71407 0.0
H3211 H 0.96603 0.57483 0.69047 0.0
C3212 C 0.38665 0.37136 0.71533 0.0
C3213 C 0.38722 0.36661 0.68843 0.0
C3214 C 0.40105 0.3894 0.72605 0.0
C3215 C 0.41599 0.40319 0.70924 0.0
C3216 C 0.41559 0.39902 0.68156 0.0
C3217 C 0.40144 0.38064 0.67161 0.0
C3218 C 0.40109 0.39308 0.75578 0.0
C3219 C 0.43076 0.4135 0.66273 0.0
C3220 C 0.44817 0.45301 0.74211 0.0
C3221 C 0.46355 0.4506 0.75209 0.0
C3222 C 0.43315 0.43825 0.72639 0.0
C3223 C 0.43332 0.42055 0.72133 0.0
C3224 C 0.44955 0.41872 0.72996 0.0
C3225 C 0.46451 0.43383 0.74502 0.0
C3226 C 0.41647 0.44108 0.71682 0.0
C3227 C 0.45035 0.4001 0.72533 0.0
H3228 H 0.37579 0.36044 0.72839 0.0
H3229 H 0.40186 0.37702 0.65075 0.0
H3230 H 0.41404 0.39341 0.76539 0.0
H3231 H 0.4022 0.40754 0.75939 0.0
H3232 H 0.38777 0.38159 0.76573 0.0
H3233 H 0.4265 0.40957 0.64135 0.0
H3234 H 0.43319 0.4285 0.66639 0.0
H3235 H 0.44485 0.41385 0.66636 0.0
H3236 H 0.44721 0.46578 0.74809 0.0
H3237 H 0.47621 0.43183 0.7533 0.0
H3238 H 0.4036 0.43246 0.72966 0.0
H3239 H 0.4122 0.43572 0.69591 0.0
H3240 H 0.42025 0.45672 0.71777 0.0
H3241 H 0.43839 0.38785 0.73643 0.0
H3242 H 0.46445 0.40143 0.73208 0.0
H3243 H 0.44819 0.39612 0.70374 0.0
C3244 C 0.65001 0.01969 0.72496 0.0
C3245 C 0.65684 0.02337 0.69852 0.0
C3246 C 0.63211 0.01832 0.73168 0.0
C3247 C 0.62051 0.02046 0.71143 0.0
C3248 C 0.62682 0.02317 0.68445 0.0
C3249 C 0.64497 0.02473 0.67833 0.0
C3250 C 0.62607 0.0155 0.76076 0.0
C3251 C 0.61477 0.02518 0.66221 0.0
C3252 C 0.56961 1.00536 0.73674 0.0
C3253 C 0.57242 0.02327 0.74671 0.0
C3254 C 0.58461 1.00436 0.7229 0.0
C3255 C 0.60283 0.02163 0.71929 0.0
C3256 C 0.60496 0.03994 0.72719 0.0
C3257 C 0.58973 0.04052 0.74075 0.0
C3258 C 0.58154 0.98459 0.71434 0.0
C3259 C 0.62402 0.05876 0.72382 0.0
H3260 H 0.659 0.01857 0.74072 0.0
H3261 H 0.65006 0.02749 0.65781 0.0
H3262 H 0.62558 0.0286 0.76809 0.0
H3263 H 0.61121 1.00273 0.76282 0.0
H3264 H 0.63624 0.01316 0.77387 0.0
H3265 H 0.62026 0.02446 0.64203 0.0
H3266 H 0.5993 0.01349 0.66369 0.0
H3267 H 0.61514 0.03945 0.66415 0.0
H3268 H 0.55635 0.99198 0.74166 0.0
H3269 H 0.59197 0.05434 0.74873 0.0
H3270 H 0.58893 0.97962 0.72891 0.0
H3271 H 0.58799 0.98548 0.69435 0.0
H3272 H 0.5658 0.97341 0.71354 0.0
H3273 H 0.63505 0.05889 0.73801 0.0
H3274 H 0.62255 0.0719 0.72782 0.0
H3275 H 0.62966 0.05984 0.70323 0.0
loop_
_geom_bond_atom_site_label_1
_geom_bond_atom_site_label_2
_geom_bond_distance
_geom_bond_site_symmetry_2
_ccdc_geom_bond_type
Mn0 O5 2.095 1_655 S
Mn0 O15 2.162 . S
Mn0 O16 2.297 1_554 S
Mn0 O24 2.385 1_554 S
Mn0 O25 2.209 1_654 S
Mn0 O26 2.094 . S
Mn1 O6 2.121 . S
Mn1 N8 2.257 1_554 S
Mn1 N17 2.282 1_554 S
Mn1 O25 2.215 1_554 S
Mn1 O27 2.117 . S
C2 O24 1.234 1_455 S
C2 O25 1.283 . S
C3 O15 1.281 1_556 S
C3 O16 1.236 . S
C4 O26 1.230 1_455 S
C4 O27 1.291 . S
O5 Mn0 2.095 1_455 S
O5 C14 1.250 . S
O6 Mn1 2.121 . S
O6 C14 1.258 . S
C7 N8 1.326 . S
C7 C11 1.460 . S
C7 H13 0.929 . S
N8 Mn1 2.257 1_556 S
N8 C7 1.326 . S
N8 C12 1.362 . S
C9 C10 1.258 . S
C9 C12 1.431 . S
C9 C29 1.449 . S
C10 C9 1.258 . S
C10 C11 1.477 . S
C10 H30 0.931 . S
C11 C7 1.460 . S
C11 C10 1.477 . S
C11 H31 0.930 . S
C12 N8 1.362 . S
C12 C9 1.431 . S
C12 C22 1.476 . S
H13 C7 0.929 . S
C14 O5 1.250 . S
C14 O6 1.258 . S
O15 Mn0 2.162 . S
O15 C3 1.281 1_554 S
O16 Mn0 2.297 1_556 S
O16 C3 1.236 . S
N17 Mn1 2.282 1_556 S
N17 C18 1.328 1_556 S
N17 C22 1.318 . S
C18 N17 1.328 1_554 S
C18 C19 1.457 1_554 S
C18 H23 0.929 . S
C19 C18 1.457 1_556 S
C19 C20 1.291 . S
C19 H32 0.931 . S
C20 C19 1.291 . S
C20 C21 1.373 . S
C20 H33 0.929 . S
C21 C20 1.373 . S
C21 C22 1.396 . S
C21 C28 1.403 . S
C22 C12 1.476 . S
C22 N17 1.318 . S
C22 C21 1.396 . S
H23 C18 0.929 . S
O24 Mn0 2.385 1_556 S
O24 C2 1.234 1_655 S
O25 Mn0 2.209 1_456 S
O25 Mn1 2.215 1_556 S
O25 C2 1.283 . S
O26 Mn0 2.094 . S
O26 C4 1.230 1_655 S
O27 Mn1 2.117 . S
O27 C4 1.291 . S
C28 C21 1.403 . S
C28 C29 1.399 . S
C28 H34 0.929 . S
C29 C9 1.449 . S
C29 C28 1.399 . S
C29 H35 0.930 . S
H30 C10 0.931 . S
H31 C11 0.930 . S
H32 C19 0.931 . S
H33 C20 0.929 . S
H34 C28 0.929 . S
H35 C29 0.930 . S
Mn36 O41 2.095 1_554 S
Mn36 O51 2.162 . S
Mn36 O52 2.297 . S
Mn36 O60 2.385 . S
Mn36 O61 2.209 . S
Mn36 O62 2.094 1_554 S
Mn37 O42 2.128 . S
Mn37 N44 2.231 1_556 S
Mn37 N53 2.267 1_556 S
Mn37 O61 2.187 1_556 S
Mn37 O63 2.143 . S
C38 O60 1.234 . S
C38 O61 1.283 . S
C39 O51 1.281 . S
C39 O52 1.236 . S
C40 O62 1.240 . S
C40 O63 1.264 . S
O41 Mn36 2.095 1_556 S
O41 C50 1.250 . S
O42 Mn37 2.128 . S
O42 C50 1.258 . S
C43 N44 1.326 . S
C43 C47 1.460 . S
C43 H49 0.929 . S
N44 Mn37 2.231 1_554 S
N44 C43 1.326 . S
N44 C48 1.362 . S
C45 C46 1.258 . S
C45 C48 1.431 . S
C45 C65 1.449 . S
C46 C45 1.258 . S
C46 C47 1.477 . S
C46 H66 0.931 . S
C47 C43 1.460 . S
C47 C46 1.477 . S
C47 H67 0.930 . S
C48 N44 1.362 . S
C48 C45 1.431 . S
C48 C58 1.476 . S
H49 C43 0.929 . S
C50 O41 1.250 . S
C50 O42 1.258 . S
O51 Mn36 2.162 . S
O51 C39 1.281 . S
O52 Mn36 2.297 . S
O52 C39 1.236 . S
N53 Mn37 2.267 1_554 S
N53 C54 1.328 . S
N53 C58 1.318 . S
C54 N53 1.328 . S
C54 C55 1.457 . S
C54 H59 0.929 1_554 S
C55 C54 1.457 . S
C55 C56 1.291 . S
C55 H68 0.931 . S
C56 C55 1.291 . S
C56 C57 1.373 . S
C56 H69 0.929 . S
C57 C56 1.373 . S
C57 C58 1.396 . S
C57 C64 1.403 . S
C58 C48 1.476 . S
C58 N53 1.318 . S
C58 C57 1.396 . S
H59 C54 0.929 1_556 S
O60 Mn36 2.385 . S
O60 C38 1.234 . S
O61 Mn36 2.209 . S
O61 Mn37 2.187 1_554 S
O61 C38 1.283 . S
O62 Mn36 2.094 1_556 S
O62 C40 1.240 . S
O63 Mn37 2.143 . S
O63 C40 1.264 . S
C64 C57 1.403 . S
C64 C65 1.399 . S
C64 H70 0.929 . S
C65 C45 1.449 . S
C65 C64 1.399 . S
C65 H71 0.930 . S
H66 C46 0.931 . S
H67 C47 0.930 . S
H68 C55 0.931 . S
H69 C56 0.929 . S
H70 C64 0.929 . S
H71 C65 0.930 . S
Mn72 O77 2.095 1_564 S
Mn72 O87 2.162 . S
Mn72 O88 2.297 . S
Mn72 O96 2.385 . S
Mn72 O97 2.209 1_565 S
Mn72 O98 2.094 1_554 S
Mn73 O78 2.121 1_554 S
Mn73 N80 2.257 . S
Mn73 N89 2.282 . S
Mn73 O97 2.215 . S
Mn73 O99 2.117 1_554 S
C74 O96 1.197 1_545 S
C74 O97 1.322 . S
C75 O87 1.281 . S
C75 O88 1.236 . S
C76 O98 1.253 . S
C76 O99 1.235 1_565 S
O77 Mn72 2.095 1_546 S
O77 C86 1.250 . S
O78 Mn73 2.121 1_556 S
O78 C86 1.258 . S
C79 N80 1.326 . S
C79 C83 1.460 . S
C79 H85 0.929 . S
N80 Mn73 2.257 . S
N80 C79 1.326 . S
N80 C84 1.362 . S
C81 C82 1.258 . S
C81 C84 1.431 . S
C81 C101 1.449 . S
C82 C81 1.258 . S
C82 C83 1.477 . S
C82 H102 0.931 . S
C83 C79 1.460 . S
C83 C82 1.477 . S
C83 H103 0.930 . S
C84 N80 1.362 . S
C84 C81 1.431 . S
C84 C94 1.476 . S
H85 C79 0.929 . S
C86 O77 1.250 . S
C86 O78 1.258 . S
O87 Mn72 2.162 . S
O87 C75 1.281 . S
O88 Mn72 2.297 . S
O88 C75 1.236 . S
N89 Mn73 2.282 . S
N89 C90 1.328 . S
N89 C94 1.318 . S
C90 N89 1.328 . S
C90 C91 1.457 . S
C90 H95 0.929 . S
C91 C90 1.457 . S
C91 C92 1.291 . S
C91 H104 0.931 . S
C92 C91 1.291 . S
C92 C93 1.373 . S
C92 H105 0.929 . S
C93 C92 1.373 . S
C93 C94 1.396 . S
C93 C100 1.403 . S
C94 C84 1.476 . S
C94 N89 1.318 . S
C94 C93 1.396 . S
H95 C90 0.929 . S
O96 Mn72 2.385 . S
O96 C74 1.197 1_565 S
O97 Mn72 2.209 1_545 S
O97 Mn73 2.215 . S
O97 C74 1.322 . S
O98 Mn72 2.094 1_556 S
O98 C76 1.253 . S
O99 Mn73 2.117 1_556 S
O99 C76 1.235 1_545 S
C100 C93 1.403 . S
C100 C101 1.399 . S
C100 H106 0.929 . S
C101 C81 1.449 . S
C101 C100 1.399 . S
C101 H107 0.930 . S
H102 C82 0.931 . S
H103 C83 0.930 . S
H104 C91 0.931 . S
H105 C92 0.929 . S
H106 C100 0.929 . S
H107 C101 0.930 . S
Mn108 O113 2.095 1_655 S
Mn108 O123 2.162 . S
Mn108 O124 2.297 1_554 S
Mn108 O132 2.385 1_554 S
Mn108 O133 2.209 1_654 S
Mn108 O134 2.094 . S
Mn109 O114 2.121 . S
Mn109 N116 2.257 1_554 S
Mn109 N125 2.282 1_554 S
Mn109 O133 2.215 1_554 S
Mn109 O135 2.117 . S
C110 O132 1.234 1_455 S
C110 O133 1.283 . S
C111 O123 1.281 1_556 S
C111 O124 1.236 . S
C112 O134 1.244 1_455 S
C112 O135 1.261 . S
O113 Mn108 2.095 1_455 S
O113 C122 1.250 . S
O114 Mn109 2.121 . S
O114 C122 1.258 . S
C115 N116 1.326 . S
C115 C119 1.460 . S
C115 H121 0.929 . S
N116 Mn109 2.257 1_556 S
N116 C115 1.326 . S
N116 C120 1.362 . S
C117 C118 1.258 . S
C117 C120 1.431 . S
C117 C137 1.449 . S
C118 C117 1.258 . S
C118 C119 1.477 . S
C118 H138 0.931 . S
C119 C115 1.460 . S
C119 C118 1.477 . S
C119 H139 0.930 . S
C120 N116 1.362 . S
C120 C117 1.431 . S
C120 C130 1.476 . S
H121 C115 0.929 . S
C122 O113 1.250 . S
C122 O114 1.258 . S
O123 Mn108 2.162 . S
O123 C111 1.281 1_554 S
O124 Mn108 2.297 1_556 S
O124 C111 1.236 . S
N125 Mn109 2.282 1_556 S
N125 C126 1.328 1_556 S
N125 C130 1.318 . S
C126 N125 1.328 1_554 S
C126 C127 1.457 1_554 S
C126 H131 0.929 . S
C127 C126 1.457 1_556 S
C127 C128 1.291 . S
C127 H140 0.931 . S
C128 C127 1.291 . S
C128 C129 1.373 . S
C128 H141 0.929 . S
C129 C128 1.373 . S
C129 C130 1.396 . S
C129 C136 1.403 . S
C130 C120 1.476 . S
C130 N125 1.318 . S
C130 C129 1.396 . S
H131 C126 0.929 . S
O132 Mn108 2.385 1_556 S
O132 C110 1.234 1_655 S
O133 Mn108 2.209 1_456 S
O133 Mn109 2.215 1_556 S
O133 C110 1.283 . S
O134 Mn108 2.094 . S
O134 C112 1.244 1_655 S
O135 Mn109 2.117 . S
O135 C112 1.261 . S
C136 C129 1.403 . S
C136 C137 1.399 . S
C136 H142 0.929 . S
C137 C117 1.449 . S
C137 C136 1.399 . S
C137 H143 0.930 . S
H138 C118 0.931 . S
H139 C119 0.930 . S
H140 C127 0.931 . S
H141 C128 0.929 . S
H142 C136 0.929 . S
H143 C137 0.930 . S
Mn144 O149 2.095 1_554 S
Mn144 O159 2.162 . S
Mn144 O160 2.297 . S
Mn144 O168 2.385 . S
Mn144 O169 2.209 . S
Mn144 O170 2.094 1_554 S
Mn145 O150 2.121 1_554 S
Mn145 N152 2.257 . S
Mn145 N161 2.282 . S
Mn145 O169 2.215 . S
Mn145 O171 2.117 1_554 S
C146 O168 1.234 . S
C146 O169 1.283 . S
C147 O159 1.281 . S
C147 O160 1.236 . S
C148 O170 1.240 . S
C148 O171 1.264 . S
O149 Mn144 2.095 1_556 S
O149 C158 1.250 . S
O150 Mn145 2.121 1_556 S
O150 C158 1.258 . S
C151 N152 1.326 . S
C151 C155 1.460 . S
C151 H157 0.929 . S
N152 Mn145 2.257 . S
N152 C151 1.326 . S
N152 C156 1.362 . S
C153 C154 1.258 . S
C153 C156 1.431 . S
C153 C173 1.449 . S
C154 C153 1.258 . S
C154 C155 1.477 . S
C154 H174 0.931 . S
C155 C151 1.460 . S
C155 C154 1.477 . S
C155 H175 0.930 . S
C156 N152 1.362 . S
C156 C153 1.431 . S
C156 C166 1.476 . S
H157 C151 0.929 . S
C158 O149 1.250 . S
C158 O150 1.258 . S
O159 Mn144 2.162 . S
O159 C147 1.281 . S
O160 Mn144 2.297 . S
O160 C147 1.236 . S
N161 Mn145 2.282 . S
N161 C162 1.328 . S
N161 C166 1.318 . S
C162 N161 1.328 . S
C162 C163 1.457 . S
C162 H167 0.929 1_554 S
C163 C162 1.457 . S
C163 C164 1.291 . S
C163 H176 0.931 . S
C164 C163 1.291 . S
C164 C165 1.373 . S
C164 H177 0.929 . S
C165 C164 1.373 . S
C165 C166 1.396 . S
C165 C172 1.403 . S
C166 C156 1.476 . S
C166 N161 1.318 . S
C166 C165 1.396 . S
H167 C162 0.929 1_556 S
O168 Mn144 2.385 . S
O168 C146 1.234 . S
O169 Mn144 2.209 . S
O169 Mn145 2.215 . S
O169 C146 1.283 . S
O170 Mn144 2.094 1_556 S
O170 C148 1.240 . S
O171 Mn145 2.117 1_556 S
O171 C148 1.264 . S
C172 C165 1.403 . S
C172 C173 1.399 . S
C172 H178 0.929 . S
C173 C153 1.449 . S
C173 C172 1.399 . S
C173 H179 0.930 . S
H174 C154 0.931 . S
H175 C155 0.930 . S
H176 C163 0.931 . S
H177 C164 0.929 . S
H178 C172 0.929 . S
H179 C173 0.930 . S
Mn180 O185 2.095 1_545 S
Mn180 O195 2.162 . S
Mn180 O196 2.297 1_554 S
Mn180 O204 2.385 1_554 S
Mn180 O205 2.209 1_544 S
Mn180 O206 2.094 . S
Mn181 O186 2.121 . S
Mn181 N188 2.257 1_554 S
Mn181 N197 2.282 1_554 S
Mn181 O205 2.215 1_554 S
Mn181 O207 2.117 . S
C182 O204 1.285 . S
C182 O205 1.232 1_545 S
C183 O195 1.281 1_556 S
C183 O196 1.236 . S
C184 O206 1.240 . S
C184 O207 1.264 1_545 S
O185 Mn180 2.095 1_565 S
O185 C194 1.250 . S
O186 Mn181 2.121 . S
O186 C194 1.258 . S
C187 N188 1.326 . S
C187 C191 1.460 . S
C187 H193 0.929 . S
N188 Mn181 2.257 1_556 S
N188 C187 1.326 . S
N188 C192 1.362 . S
C189 C190 1.258 . S
C189 C192 1.431 . S
C189 C209 1.449 . S
C190 C189 1.258 . S
C190 C191 1.477 . S
C190 H210 0.931 . S
C191 C187 1.460 . S
C191 C190 1.477 . S
C191 H211 0.930 . S
C192 N188 1.362 . S
C192 C189 1.431 . S
C192 C202 1.476 . S
H193 C187 0.929 . S
C194 O185 1.250 . S
C194 O186 1.258 . S
O195 Mn180 2.162 . S
O195 C183 1.281 1_554 S
O196 Mn180 2.297 1_556 S
O196 C183 1.236 . S
N197 Mn181 2.282 1_556 S
N197 C198 1.328 1_556 S
N197 C202 1.318 . S
C198 N197 1.328 1_554 S
C198 C199 1.457 1_554 S
C198 H203 0.929 . S
C199 C198 1.457 1_556 S
C199 C200 1.291 . S
C199 H212 0.931 . S
C200 C199 1.291 . S
C200 C201 1.373 . S
C200 H213 0.929 . S
C201 C200 1.373 . S
C201 C202 1.396 . S
C201 C208 1.403 . S
C202 C192 1.476 . S
C202 N197 1.318 . S
C202 C201 1.396 . S
H203 C198 0.929 . S
O204 Mn180 2.385 1_556 S
O204 C182 1.285 . S
O205 Mn180 2.209 1_566 S
O205 Mn181 2.215 1_556 S
O205 C182 1.232 1_565 S
O206 Mn180 2.094 . S
O206 C184 1.240 . S
O207 Mn181 2.117 . S
O207 C184 1.264 1_565 S
C208 C201 1.403 . S
C208 C209 1.399 . S
C208 H214 0.929 . S
C209 C189 1.449 . S
C209 C208 1.399 . S
C209 H215 0.930 . S
H210 C190 0.931 . S
H211 C191 0.930 . S
H212 C199 0.931 . S
H213 C200 0.929 . S
H214 C208 0.929 . S
H215 C209 0.930 . S
Mn216 O221 2.095 . S
Mn216 O231 2.162 . S
Mn216 O232 2.297 . S
Mn216 O240 2.385 . S
Mn216 O241 2.209 . S
Mn216 O242 2.094 . S
Mn217 O222 2.121 . S
Mn217 N224 2.257 . S
Mn217 N233 2.282 . S
Mn217 O241 2.215 . S
Mn217 O243 2.117 . S
C218 O240 1.234 . S
C218 O241 1.283 . S
C219 O231 1.281 . S
C219 O232 1.236 . S
C220 O242 1.240 . S
C220 O243 1.264 . S
O221 Mn216 2.095 . S
O221 C230 1.250 . S
O222 Mn217 2.121 . S
O222 C230 1.258 . S
C223 N224 1.326 . S
C223 C227 1.460 . S
C223 H229 0.929 . S
N224 Mn217 2.257 . S
N224 C223 1.326 . S
N224 C228 1.362 . S
C225 C226 1.258 . S
C225 C228 1.431 . S
C225 C245 1.449 . S
C226 C225 1.258 . S
C226 C227 1.477 . S
C226 H246 0.931 . S
C227 C223 1.460 . S
C227 C226 1.477 . S
C227 H247 0.930 . S
C228 N224 1.362 . S
C228 C225 1.431 . S
C228 C238 1.476 . S
H229 C223 0.929 . S
C230 O221 1.250 . S
C230 O222 1.258 . S
O231 Mn216 2.162 . S
O231 C219 1.281 . S
O232 Mn216 2.297 . S
O232 C219 1.236 . S
N233 Mn217 2.282 . S
N233 C234 1.328 . S
N233 C238 1.318 . S
C234 N233 1.328 . S
C234 C235 1.457 . S
C234 H239 0.929 . S
C235 C234 1.457 . S
C235 C236 1.291 . S
C235 H248 0.931 . S
C236 C235 1.291 . S
C236 C237 1.373 . S
C236 H249 0.929 . S
C237 C236 1.373 . S
C237 C238 1.396 . S
C237 C244 1.403 . S
C238 C228 1.476 . S
C238 N233 1.318 . S
C238 C237 1.396 . S
H239 C234 0.929 . S
O240 Mn216 2.385 . S
O240 C218 1.234 . S
O241 Mn216 2.209 . S
O241 Mn217 2.215 . S
O241 C218 1.283 . S
O242 Mn216 2.094 . S
O242 C220 1.240 . S
O243 Mn217 2.117 . S
O243 C220 1.264 . S
C244 C237 1.403 . S
C244 C245 1.399 . S
C244 H250 0.929 . S
C245 C225 1.449 . S
C245 C244 1.399 . S
C245 H251 0.930 . S
H246 C226 0.931 . S
H247 C227 0.930 . S
H248 C235 0.931 . S
H249 C236 0.929 . S
H250 C244 0.929 . S
H251 C245 0.930 . S
Mn252 O257 2.095 . S
Mn252 O267 2.162 1_565 S
Mn252 O268 2.297 1_565 S
Mn252 O276 2.385 . S
Mn252 O277 2.209 . S
Mn252 O278 2.094 . S
Mn253 O258 2.121 . S
Mn253 N260 2.257 . S
Mn253 N269 2.282 . S
Mn253 O277 2.215 . S
Mn253 O279 2.117 . S
C254 O276 1.234 . S
C254 O277 1.283 . S
C255 O267 1.281 . S
C255 O268 1.236 . S
C256 O278 1.240 . S
C256 O279 1.264 . S
O257 Mn252 2.095 . S
O257 C266 1.250 . S
O258 Mn253 2.121 . S
O258 C266 1.258 . S
C259 N260 1.326 . S
C259 C263 1.460 . S
C259 H265 0.929 . S
N260 Mn253 2.257 . S
N260 C259 1.326 . S
N260 C264 1.362 . S
C261 C262 1.258 . S
C261 C264 1.431 . S
C261 C281 1.449 . S
C262 C261 1.258 . S
C262 C263 1.477 . S
C262 H282 0.931 . S
C263 C259 1.460 . S
C263 C262 1.477 . S
C263 H283 0.930 . S
C264 N260 1.362 . S
C264 C261 1.431 . S
C264 C274 1.476 . S
H265 C259 0.929 . S
C266 O257 1.250 . S
C266 O258 1.258 . S
O267 Mn252 2.162 1_545 S
O267 C255 1.281 . S
O268 Mn252 2.297 1_545 S
O268 C255 1.236 . S
N269 Mn253 2.282 . S
N269 C270 1.328 . S
N269 C274 1.318 . S
C270 N269 1.328 . S
C270 C271 1.457 . S
C270 H275 0.929 . S
C271 C270 1.457 . S
C271 C272 1.291 . S
C271 H284 0.931 . S
C272 C271 1.291 . S
C272 C273 1.373 . S
C272 H285 0.929 . S
C273 C272 1.373 . S
C273 C274 1.396 . S
C273 C280 1.403 . S
C274 C264 1.476 . S
C274 N269 1.318 . S
C274 C273 1.396 . S
H275 C270 0.929 . S
O276 Mn252 2.385 . S
O276 C254 1.234 . S
O277 Mn252 2.209 . S
O277 Mn253 2.215 . S
O277 C254 1.283 . S
O278 Mn252 2.094 . S
O278 C256 1.240 . S
O279 Mn253 2.117 . S
O279 C256 1.264 . S
C280 C273 1.403 . S
C280 C281 1.399 . S
C280 H286 0.929 . S
C281 C261 1.449 . S
C281 C280 1.399 . S
C281 H287 0.930 . S
H282 C262 0.931 . S
H283 C263 0.930 . S
H284 C271 0.931 . S
H285 C272 0.929 . S
H286 C280 0.929 . S
H287 C281 0.930 . S
Mn288 O293 2.095 . S
Mn288 O303 2.162 1_455 S
Mn288 O304 2.297 1_455 S
Mn288 O312 2.385 . S
Mn288 O313 2.209 . S
Mn288 O314 2.094 . S
Mn289 O294 2.121 . S
Mn289 N296 2.257 . S
Mn289 N305 2.282 . S
Mn289 O313 2.215 . S
Mn289 O315 2.117 . S
C290 O312 1.234 . S
C290 O313 1.283 . S
C291 O303 1.281 . S
C291 O304 1.236 . S
C292 O314 1.240 . S
C292 O315 1.264 . S
O293 Mn288 2.095 . S
O293 C302 1.250 . S
O294 Mn289 2.121 . S
O294 C302 1.258 . S
C295 N296 1.326 . S
C295 C299 1.460 . S
C295 H301 0.929 . S
N296 Mn289 2.257 . S
N296 C295 1.326 . S
N296 C300 1.362 . S
C297 C298 1.258 . S
C297 C300 1.431 . S
C297 C317 1.449 . S
C298 C297 1.258 . S
C298 C299 1.477 . S
C298 H318 0.931 . S
C299 C295 1.460 . S
C299 C298 1.477 . S
C299 H319 0.930 . S
C300 N296 1.362 . S
C300 C297 1.431 . S
C300 C310 1.476 . S
H301 C295 0.929 . S
C302 O293 1.250 . S
C302 O294 1.258 . S
O303 Mn288 2.162 1_655 S
O303 C291 1.281 . S
O304 Mn288 2.297 1_655 S
O304 C291 1.236 . S
N305 Mn289 2.282 . S
N305 C306 1.328 . S
N305 C310 1.318 . S
C306 N305 1.328 . S
C306 C307 1.457 . S
C306 H311 0.929 . S
C307 C306 1.457 . S
C307 C308 1.291 . S
C307 H320 0.931 . S
C308 C307 1.291 . S
C308 C309 1.373 . S
C308 H321 0.929 . S
C309 C308 1.373 . S
C309 C310 1.396 . S
C309 C316 1.403 . S
C310 C300 1.476 . S
C310 N305 1.318 . S
C310 C309 1.396 . S
H311 C306 0.929 . S
O312 Mn288 2.385 . S
O312 C290 1.234 . S
O313 Mn288 2.209 . S
O313 Mn289 2.215 . S
O313 C290 1.283 . S
O314 Mn288 2.094 . S
O314 C292 1.240 . S
O315 Mn289 2.117 . S
O315 C292 1.264 . S
C316 C309 1.403 . S
C316 C317 1.399 . S
C316 H322 0.929 . S
C317 C297 1.449 . S
C317 C316 1.399 . S
C317 H323 0.930 . S
H318 C298 0.931 . S
H319 C299 0.930 . S
H320 C307 0.931 . S
H321 C308 0.929 . S
H322 C316 0.929 . S
H323 C317 0.930 . S
Mn324 O329 2.095 1_565 S
Mn324 O339 2.162 . S
Mn324 O340 2.297 . S
Mn324 O348 2.385 . S
Mn324 O349 2.209 . S
Mn324 O350 2.094 . S
Mn325 O330 2.121 1_565 S
Mn325 N332 2.257 . S
Mn325 N341 2.282 . S
Mn325 O349 2.215 . S
Mn325 O351 2.117 . S
C326 O348 1.234 . S
C326 O349 1.283 . S
C327 O339 1.281 . S
C327 O340 1.236 . S
C328 O350 1.240 . S
C328 O351 1.264 . S
O329 Mn324 2.095 1_545 S
O329 C338 1.250 . S
O330 Mn325 2.121 1_545 S
O330 C338 1.258 . S
C331 N332 1.326 1_545 S
C331 C335 1.460 . S
C331 H337 0.929 . S
N332 Mn325 2.257 . S
N332 C331 1.326 1_565 S
N332 C336 1.362 . S
C333 C334 1.258 . S
C333 C336 1.431 . S
C333 C353 1.449 . S
C334 C333 1.258 . S
C334 C335 1.477 1_565 S
C334 H354 0.945 1_565 S
C335 C331 1.460 . S
C335 C334 1.477 1_545 S
C335 H355 0.930 . S
C336 N332 1.362 . S
C336 C333 1.431 . S
C336 C346 1.476 . S
H337 C331 0.929 . S
C338 O329 1.250 . S
C338 O330 1.258 . S
O339 Mn324 2.162 . S
O339 C327 1.281 . S
O340 Mn324 2.297 . S
O340 C327 1.236 . S
N341 Mn325 2.282 . S
N341 C342 1.328 . S
N341 C346 1.318 . S
C342 N341 1.328 . S
C342 C343 1.457 . S
C342 H347 0.929 . S
C343 C342 1.457 . S
C343 C344 1.291 . S
C343 H356 0.931 . S
C344 C343 1.291 . S
C344 C345 1.373 . S
C344 H357 0.929 . S
C345 C344 1.373 . S
C345 C346 1.396 . S
C345 C352 1.403 . S
C346 C336 1.476 . S
C346 N341 1.318 . S
C346 C345 1.396 . S
H347 C342 0.929 . S
O348 Mn324 2.385 . S
O348 C326 1.234 . S
O349 Mn324 2.209 . S
O349 Mn325 2.215 . S
O349 C326 1.283 . S
O350 Mn324 2.094 . S
O350 C328 1.240 . S
O351 Mn325 2.117 . S
O351 C328 1.264 . S
C352 C345 1.403 . S
C352 C353 1.399 . S
C352 H358 0.929 . S
C353 C333 1.449 . S
C353 C352 1.399 . S
C353 H359 0.930 . S
H354 C334 0.945 1_545 S
H355 C335 0.930 . S
H356 C343 0.931 . S
H357 C344 0.929 . S
H358 C352 0.929 . S
H359 C353 0.930 . S
Mn360 O365 2.095 . S
Mn360 O375 2.162 1_455 S
Mn360 O376 2.297 1_455 S
Mn360 O384 2.385 . S
Mn360 O385 2.209 . S
Mn360 O386 2.094 . S
Mn361 O366 2.121 . S
Mn361 N368 2.257 . S
Mn361 N377 2.282 . S
Mn361 O385 2.215 . S
Mn361 O387 2.117 . S
C362 O384 1.234 . S
C362 O385 1.283 . S
C363 O375 1.281 . S
C363 O376 1.236 . S
C364 O386 1.240 . S
C364 O387 1.264 . S
O365 Mn360 2.095 . S
O365 C374 1.250 . S
O366 Mn361 2.121 . S
O366 C374 1.258 . S
C367 N368 1.326 . S
C367 C371 1.460 . S
C367 H373 0.929 . S
N368 Mn361 2.257 . S
N368 C367 1.326 . S
N368 C372 1.362 . S
C369 C370 1.258 . S
C369 C372 1.431 . S
C369 C389 1.449 . S
C370 C369 1.258 . S
C370 C371 1.477 . S
C370 H390 0.931 . S
C371 C367 1.460 . S
C371 C370 1.477 . S
C371 H391 0.930 . S
C372 N368 1.362 . S
C372 C369 1.431 . S
C372 C382 1.476 . S
H373 C367 0.929 . S
C374 O365 1.250 . S
C374 O366 1.258 . S
O375 Mn360 2.162 1_655 S
O375 C363 1.281 . S
O376 Mn360 2.297 1_655 S
O376 C363 1.236 . S
N377 Mn361 2.282 . S
N377 C378 1.328 . S
N377 C382 1.318 . S
C378 N377 1.328 . S
C378 C379 1.457 . S
C378 H383 0.929 . S
C379 C378 1.457 . S
C379 C380 1.291 . S
C379 H392 0.931 . S
C380 C379 1.291 . S
C380 C381 1.373 . S
C380 H393 0.929 . S
C381 C380 1.373 . S
C381 C382 1.396 . S
C381 C388 1.403 . S
C382 C372 1.476 . S
C382 N377 1.318 . S
C382 C381 1.396 . S
H383 C378 0.929 . S
O384 Mn360 2.385 . S
O384 C362 1.234 . S
O385 Mn360 2.209 . S
O385 Mn361 2.215 . S
O385 C362 1.283 . S
O386 Mn360 2.094 . S
O386 C364 1.240 . S
O387 Mn361 2.117 . S
O387 C364 1.264 . S
C388 C381 1.403 . S
C388 C389 1.399 . S
C388 H394 0.929 . S
C389 C369 1.449 . S
C389 C388 1.399 . S
C389 H395 0.930 . S
H390 C370 0.931 . S
H391 C371 0.930 . S
H392 C379 0.931 . S
H393 C380 0.929 . S
H394 C388 0.929 . S
H395 C389 0.930 . S
Mn396 O401 2.095 . S
Mn396 O411 2.162 . S
Mn396 O412 2.297 . S
Mn396 O420 2.385 . S
Mn396 O421 2.209 . S
Mn396 O422 2.094 . S
Mn397 O402 2.121 . S
Mn397 N404 2.257 . S
Mn397 N413 2.282 . S
Mn397 O421 2.215 . S
Mn397 O423 2.117 . S
C398 O420 1.234 . S
C398 O421 1.283 . S
C399 O411 1.281 . S
C399 O412 1.236 . S
C400 O422 1.240 . S
C400 O423 1.264 . S
O401 Mn396 2.095 . S
O401 C410 1.250 . S
O402 Mn397 2.121 . S
O402 C410 1.258 . S
C403 N404 1.326 . S
C403 C407 1.460 . S
C403 H409 0.929 . S
N404 Mn397 2.257 . S
N404 C403 1.326 . S
N404 C408 1.362 . S
C405 C406 1.258 . S
C405 C408 1.431 . S
C405 C425 1.449 . S
C406 C405 1.258 . S
C406 C407 1.477 . S
C406 H426 0.931 . S
C407 C403 1.460 . S
C407 C406 1.477 . S
C407 H427 0.930 . S
C408 N404 1.362 . S
C408 C405 1.431 . S
C408 C418 1.476 . S
H409 C403 0.929 . S
C410 O401 1.250 . S
C410 O402 1.258 . S
O411 Mn396 2.162 . S
O411 C399 1.281 . S
O412 Mn396 2.297 . S
O412 C399 1.236 . S
N413 Mn397 2.282 . S
N413 C414 1.328 . S
N413 C418 1.318 . S
C414 N413 1.328 . S
C414 C415 1.457 . S
C414 H419 0.929 . S
C415 C414 1.457 . S
C415 C416 1.291 . S
C415 H428 0.931 . S
C416 C415 1.291 . S
C416 C417 1.373 . S
C416 H429 0.929 . S
C417 C416 1.373 . S
C417 C418 1.396 . S
C417 C424 1.403 . S
C418 C408 1.476 . S
C418 N413 1.318 . S
C418 C417 1.396 . S
H419 C414 0.929 . S
O420 Mn396 2.385 . S
O420 C398 1.234 . S
O421 Mn396 2.209 . S
O421 Mn397 2.215 . S
O421 C398 1.283 . S
O422 Mn396 2.094 . S
O422 C400 1.240 . S
O423 Mn397 2.117 . S
O423 C400 1.264 . S
C424 C417 1.403 . S
C424 C425 1.399 . S
C424 H430 0.929 . S
C425 C405 1.449 . S
C425 C424 1.399 . S
C425 H431 0.930 . S
H426 C406 0.931 . S
H427 C407 0.930 . S
H428 C415 0.931 . S
H429 C416 0.929 . S
H430 C424 0.929 . S
H431 C425 0.930 . S
Mn432 O437 2.095 . S
Mn432 O447 2.162 1_545 S
Mn432 O448 2.297 1_545 S
Mn432 O456 2.385 . S
Mn432 O457 2.209 . S
Mn432 O458 2.094 . S
Mn433 O438 2.121 . S
Mn433 N440 2.257 . S
Mn433 N449 2.282 . S
Mn433 O457 2.215 . S
Mn433 O459 2.117 . S
C434 O456 1.234 . S
C434 O457 1.283 . S
C435 O447 1.281 . S
C435 O448 1.236 . S
C436 O458 1.240 . S
C436 O459 1.264 . S
O437 Mn432 2.095 . S
O437 C446 1.250 . S
O438 Mn433 2.121 . S
O438 C446 1.258 . S
C439 N440 1.326 . S
C439 C443 1.460 . S
C439 H445 0.929 . S
N440 Mn433 2.257 . S
N440 C439 1.326 . S
N440 C444 1.362 . S
C441 C442 1.258 . S
C441 C444 1.431 . S
C441 C461 1.449 . S
C442 C441 1.258 . S
C442 C443 1.477 . S
C442 H462 0.931 . S
C443 C439 1.460 . S
C443 C442 1.477 . S
C443 H463 0.930 . S
C444 N440 1.362 . S
C444 C441 1.431 . S
C444 C454 1.476 . S
H445 C439 0.929 . S
C446 O437 1.250 . S
C446 O438 1.258 . S
O447 Mn432 2.162 1_565 S
O447 C435 1.281 . S
O448 Mn432 2.297 1_565 S
O448 C435 1.236 . S
N449 Mn433 2.282 . S
N449 C450 1.328 . S
N449 C454 1.318 . S
C450 N449 1.328 . S
C450 C451 1.457 . S
C450 H455 0.929 . S
C451 C450 1.457 . S
C451 C452 1.291 . S
C451 H464 0.931 . S
C452 C451 1.291 . S
C452 C453 1.373 . S
C452 H465 0.929 . S
C453 C452 1.373 . S
C453 C454 1.396 . S
C453 C460 1.403 . S
C454 C444 1.476 . S
C454 N449 1.318 . S
C454 C453 1.396 . S
H455 C450 0.929 . S
O456 Mn432 2.385 . S
O456 C434 1.234 . S
O457 Mn432 2.209 . S
O457 Mn433 2.215 . S
O457 C434 1.283 . S
O458 Mn432 2.094 . S
O458 C436 1.240 . S
O459 Mn433 2.117 . S
O459 C436 1.264 . S
C460 C453 1.403 . S
C460 C461 1.399 . S
C460 H466 0.929 . S
C461 C441 1.449 . S
C461 C460 1.399 . S
C461 H467 0.930 . S
H462 C442 0.931 . S
H463 C443 0.930 . S
H464 C451 0.931 . S
H465 C452 0.929 . S
H466 C460 0.929 . S
H467 C461 0.930 . S
Mn468 O473 2.125 . S
Mn468 O483 2.162 . S
Mn468 O484 2.297 . S
Mn468 O492 2.385 . S
Mn468 O493 2.209 . S
Mn468 O494 2.094 . S
Mn469 O474 2.121 1_655 S
Mn469 N476 2.257 . S
Mn469 N485 2.282 . S
Mn469 O493 2.215 . S
Mn469 O495 2.117 . S
C470 O492 1.234 . S
C470 O493 1.283 . S
C471 O483 1.281 . S
C471 O484 1.236 . S
C472 O494 1.240 . S
C472 O495 1.264 . S
O473 Mn468 2.125 . S
O473 C482 1.216 1_655 S
O474 Mn469 2.121 1_455 S
O474 C482 1.258 . S
C475 N476 1.326 1_455 S
C475 C479 1.460 . S
C475 H481 0.929 . S
N476 Mn469 2.257 . S
N476 C475 1.326 1_655 S
N476 C480 1.362 . S
C477 C478 1.258 . S
C477 C480 1.431 . S
C477 C497 1.449 . S
C478 C477 1.258 . S
C478 C479 1.477 1_655 S
C478 H498 0.908 1_655 S
C479 C475 1.460 . S
C479 C478 1.477 1_455 S
C479 H499 0.930 . S
C480 N476 1.362 . S
C480 C477 1.431 . S
C480 C490 1.476 . S
H481 C475 0.929 . S
C482 O473 1.216 1_455 S
C482 O474 1.258 . S
O483 Mn468 2.162 . S
O483 C471 1.281 . S
O484 Mn468 2.297 . S
O484 C471 1.236 . S
N485 Mn469 2.282 . S
N485 C486 1.328 . S
N485 C490 1.318 . S
C486 N485 1.328 . S
C486 C487 1.457 . S
C486 H491 0.929 . S
C487 C486 1.457 . S
C487 C488 1.291 . S
C487 H500 0.931 . S
C488 C487 1.291 . S
C488 C489 1.373 . S
C488 H501 0.929 . S
C489 C488 1.373 . S
C489 C490 1.396 . S
C489 C496 1.403 . S
C490 C480 1.476 . S
C490 N485 1.318 . S
C490 C489 1.396 . S
H491 C486 0.929 . S
O492 Mn468 2.385 . S
O492 C470 1.234 . S
O493 Mn468 2.209 . S
O493 Mn469 2.215 . S
O493 C470 1.283 . S
O494 Mn468 2.094 . S
O494 C472 1.240 . S
O495 Mn469 2.117 . S
O495 C472 1.264 . S
C496 C489 1.403 . S
C496 C497 1.399 . S
C496 H502 0.929 . S
C497 C477 1.449 . S
C497 C496 1.399 . S
C497 H503 0.930 . S
H498 C478 0.908 1_455 S
H499 C479 0.930 . S
H500 C487 0.931 . S
H501 C488 0.929 . S
H502 C496 0.929 . S
H503 C497 0.930 . S
Mn504 O509 2.095 . S
Mn504 O519 2.162 . S
Mn504 O520 2.297 . S
Mn504 O528 2.385 . S
Mn504 O529 2.209 . S
Mn504 O530 2.094 . S
Mn505 O510 2.121 . S
Mn505 N512 2.257 . S
Mn505 N521 2.282 . S
Mn505 O529 2.215 . S
Mn505 O531 2.117 . S
C506 O528 1.234 . S
C506 O529 1.283 . S
C507 O519 1.281 . S
C507 O520 1.236 . S
C508 O530 1.240 . S
C508 O531 1.264 . S
O509 Mn504 2.095 . S
O509 C518 1.250 . S
O510 Mn505 2.121 . S
O510 C518 1.258 . S
C511 N512 1.326 . S
C511 C515 1.460 . S
C511 H517 0.929 . S
N512 Mn505 2.257 . S
N512 C511 1.326 . S
N512 C516 1.362 . S
C513 C514 1.258 . S
C513 C516 1.431 . S
C513 C533 1.449 . S
C514 C513 1.258 . S
C514 C515 1.477 . S
C514 H534 0.931 . S
C515 C511 1.460 . S
C515 C514 1.477 . S
C515 H535 0.930 . S
C516 N512 1.362 . S
C516 C513 1.431 . S
C516 C526 1.476 . S
H517 C511 0.929 . S
C518 O509 1.250 . S
C518 O510 1.258 . S
O519 Mn504 2.162 . S
O519 C507 1.281 . S
O520 Mn504 2.297 . S
O520 C507 1.236 . S
N521 Mn505 2.282 . S
N521 C522 1.328 . S
N521 C526 1.318 . S
C522 N521 1.328 . S
C522 C523 1.457 . S
C522 H527 0.929 . S
C523 C522 1.457 . S
C523 C524 1.291 . S
C523 H536 0.931 . S
C524 C523 1.291 . S
C524 C525 1.373 . S
C524 H537 0.929 . S
C525 C524 1.373 . S
C525 C526 1.396 . S
C525 C532 1.403 . S
C526 C516 1.476 . S
C526 N521 1.318 . S
C526 C525 1.396 . S
H527 C522 0.929 . S
O528 Mn504 2.385 . S
O528 C506 1.234 . S
O529 Mn504 2.209 . S
O529 Mn505 2.215 . S
O529 C506 1.283 . S
O530 Mn504 2.094 . S
O530 C508 1.240 . S
O531 Mn505 2.117 . S
O531 C508 1.264 . S
C532 C525 1.403 . S
C532 C533 1.399 . S
C532 H538 0.929 . S
C533 C513 1.449 . S
C533 C532 1.399 . S
C533 H539 0.930 . S
H534 C514 0.931 . S
H535 C515 0.930 . S
H536 C523 0.931 . S
H537 C524 0.929 . S
H538 C532 0.929 . S
H539 C533 0.930 . S
Mn540 O545 2.095 . S
Mn540 O555 2.162 . S
Mn540 O556 2.297 . S
Mn540 O564 2.385 . S
Mn540 O565 2.209 . S
Mn540 O566 2.094 . S
Mn541 O546 2.121 . S
Mn541 N548 2.257 . S
Mn541 N557 2.282 . S
Mn541 O565 2.215 . S
Mn541 O567 2.117 . S
C542 O564 1.234 . S
C542 O565 1.283 . S
C543 O555 1.281 . S
C543 O556 1.236 . S
C544 O566 1.240 . S
C544 O567 1.264 . S
O545 Mn540 2.095 . S
O545 C554 1.250 . S
O546 Mn541 2.121 . S
O546 C554 1.258 . S
C547 N548 1.326 . S
C547 C551 1.460 . S
C547 H553 0.929 . S
N548 Mn541 2.257 . S
N548 C547 1.326 . S
N548 C552 1.362 . S
C549 C550 1.258 . S
C549 C552 1.431 . S
C549 C569 1.449 . S
C550 C549 1.258 . S
C550 C551 1.477 . S
C550 H570 0.931 . S
C551 C547 1.460 . S
C551 C550 1.477 . S
C551 H571 0.930 . S
C552 N548 1.362 . S
C552 C549 1.431 . S
C552 C562 1.476 . S
H553 C547 0.929 . S
C554 O545 1.250 . S
C554 O546 1.258 . S
O555 Mn540 2.162 . S
O555 C543 1.281 . S
O556 Mn540 2.297 . S
O556 C543 1.236 . S
N557 Mn541 2.282 . S
N557 C558 1.328 . S
N557 C562 1.318 . S
C558 N557 1.328 . S
C558 C559 1.457 . S
C558 H563 0.929 . S
C559 C558 1.457 . S
C559 C560 1.291 . S
C559 H572 0.931 . S
C560 C559 1.291 . S
C560 C561 1.373 . S
C560 H573 0.929 . S
C561 C560 1.373 . S
C561 C562 1.396 . S
C561 C568 1.403 . S
C562 C552 1.476 . S
C562 N557 1.318 . S
C562 C561 1.396 . S
H563 C558 0.929 . S
O564 Mn540 2.385 . S
O564 C542 1.234 . S
O565 Mn540 2.209 . S
O565 Mn541 2.215 . S
O565 C542 1.283 . S
O566 Mn540 2.094 . S
O566 C544 1.240 . S
O567 Mn541 2.117 . S
O567 C544 1.264 . S
C568 C561 1.403 . S
C568 C569 1.399 . S
C568 H574 0.929 . S
C569 C549 1.449 . S
C569 C568 1.399 . S
C569 H575 0.930 . S
H570 C550 0.931 . S
H571 C551 0.930 . S
H572 C559 0.931 . S
H573 C560 0.929 . S
H574 C568 0.929 . S
H575 C569 0.930 . S
Mn576 O581 2.095 1_545 S
Mn576 O591 2.162 . S
Mn576 O592 2.297 . S
Mn576 O600 2.385 . S
Mn576 O601 2.209 . S
Mn576 O602 2.094 . S
Mn577 O582 2.121 1_545 S
Mn577 N584 2.257 . S
Mn577 N593 2.282 . S
Mn577 O601 2.215 . S
Mn577 O603 2.117 . S
C578 O600 1.234 . S
C578 O601 1.283 . S
C579 O591 1.281 . S
C579 O592 1.236 . S
C580 O602 1.240 . S
C580 O603 1.264 . S
O581 Mn576 2.095 1_565 S
O581 C590 1.250 . S
O582 Mn577 2.121 1_565 S
O582 C590 1.258 . S
C583 N584 1.326 1_565 S
C583 C587 1.460 . S
C583 H589 0.929 . S
N584 Mn577 2.257 . S
N584 C583 1.326 1_545 S
N584 C588 1.362 . S
C585 C586 1.258 . S
C585 C588 1.431 . S
C585 C605 1.449 . S
C586 C585 1.258 . S
C586 C587 1.477 1_545 S
C586 H606 0.931 1_545 S
C587 C583 1.460 . S
C587 C586 1.477 1_565 S
C587 H607 0.930 . S
C588 N584 1.362 . S
C588 C585 1.431 . S
C588 C598 1.476 . S
H589 C583 0.929 . S
C590 O581 1.250 . S
C590 O582 1.258 . S
O591 Mn576 2.162 . S
O591 C579 1.281 . S
O592 Mn576 2.297 . S
O592 C579 1.236 . S
N593 Mn577 2.282 . S
N593 C594 1.328 . S
N593 C598 1.318 . S
C594 N593 1.328 . S
C594 C595 1.457 . S
C594 H599 0.929 . S
C595 C594 1.457 . S
C595 C596 1.291 . S
C595 H608 0.931 . S
C596 C595 1.291 . S
C596 C597 1.373 . S
C596 H609 0.929 . S
C597 C596 1.373 . S
C597 C598 1.396 . S
C597 C604 1.403 . S
C598 C588 1.476 . S
C598 N593 1.318 . S
C598 C597 1.396 . S
H599 C594 0.929 . S
O600 Mn576 2.385 . S
O600 C578 1.234 . S
O601 Mn576 2.209 . S
O601 Mn577 2.215 . S
O601 C578 1.283 . S
O602 Mn576 2.094 . S
O602 C580 1.240 . S
O603 Mn577 2.117 . S
O603 C580 1.264 . S
C604 C597 1.403 . S
C604 C605 1.399 . S
C604 H610 0.929 . S
C605 C585 1.449 . S
C605 C604 1.399 . S
C605 H611 0.930 . S
H606 C586 0.931 1_565 S
H607 C587 0.930 . S
H608 C595 0.931 . S
H609 C596 0.929 . S
H610 C604 0.929 . S
H611 C605 0.930 . S
Mn612 O617 2.095 . S
Mn612 O627 2.162 1_655 S
Mn612 O628 2.297 1_655 S
Mn612 O636 2.385 . S
Mn612 O637 2.209 . S
Mn612 O638 2.094 . S
Mn613 O618 2.121 . S
Mn613 N620 2.257 . S
Mn613 N629 2.282 . S
Mn613 O637 2.215 . S
Mn613 O639 2.117 . S
C614 O636 1.234 . S
C614 O637 1.283 . S
C615 O627 1.281 . S
C615 O628 1.236 . S
C616 O638 1.240 . S
C616 O639 1.264 . S
O617 Mn612 2.095 . S
O617 C626 1.250 . S
O618 Mn613 2.121 . S
O618 C626 1.258 . S
C619 N620 1.326 . S
C619 C623 1.460 . S
C619 H625 0.929 . S
N620 Mn613 2.257 . S
N620 C619 1.326 . S
N620 C624 1.362 . S
C621 C622 1.258 . S
C621 C624 1.431 . S
C621 C641 1.449 . S
C622 C621 1.258 . S
C622 C623 1.477 . S
C622 H642 0.931 . S
C623 C619 1.460 . S
C623 C622 1.477 . S
C623 H643 0.930 . S
C624 N620 1.362 . S
C624 C621 1.431 . S
C624 C634 1.476 . S
H625 C619 0.929 . S
C626 O617 1.250 . S
C626 O618 1.258 . S
O627 Mn612 2.162 1_455 S
O627 C615 1.281 . S
O628 Mn612 2.297 1_455 S
O628 C615 1.236 . S
N629 Mn613 2.282 . S
N629 C630 1.328 . S
N629 C634 1.318 . S
C630 N629 1.328 . S
C630 C631 1.457 . S
C630 H635 0.929 . S
C631 C630 1.457 . S
C631 C632 1.291 . S
C631 H644 0.931 . S
C632 C631 1.291 . S
C632 C633 1.373 . S
C632 H645 0.929 . S
C633 C632 1.373 . S
C633 C634 1.396 . S
C633 C640 1.403 . S
C634 C624 1.476 . S
C634 N629 1.318 . S
C634 C633 1.396 . S
H635 C630 0.929 . S
O636 Mn612 2.385 . S
O636 C614 1.234 . S
O637 Mn612 2.209 . S
O637 Mn613 2.215 . S
O637 C614 1.283 . S
O638 Mn612 2.094 . S
O638 C616 1.240 . S
O639 Mn613 2.117 . S
O639 C616 1.264 . S
C640 C633 1.403 . S
C640 C641 1.399 . S
C640 H646 0.929 . S
C641 C621 1.449 . S
C641 C640 1.399 . S
C641 H647 0.930 . S
H642 C622 0.931 . S
H643 C623 0.930 . S
H644 C631 0.931 . S
H645 C632 0.929 . S
H646 C640 0.929 . S
H647 C641 0.930 . S
H648 C654 0.930 . S
H649 C657 0.931 . S
H650 C659 0.931 . S
H651 C661 0.930 . S
H652 C663 0.930 . S
H653 C665 0.931 . S
C654 H648 0.930 . S
C654 C655 1.380 . S
C654 C656 1.394 . S
C655 C654 1.380 . S
C655 C659 1.382 . S
C656 C654 1.394 . S
C656 C657 1.400 . S
C657 H649 0.931 . S
C657 C656 1.400 . S
C657 C658 1.375 . S
C658 C657 1.375 . S
C658 C659 1.415 . S
C658 C660 1.501 . S
C659 H650 0.931 . S
C659 C655 1.382 . S
C659 C658 1.415 . S
C660 C658 1.501 . S
C660 C661 1.384 . S
C660 C665 1.408 . S
C661 H651 0.930 . S
C661 C660 1.384 . S
C661 C662 1.389 . S
C662 C661 1.389 . S
C662 C663 1.405 . S
C663 H652 0.930 . S
C663 C662 1.405 . S
C663 C664 1.364 . S
C664 C663 1.364 . S
C664 C665 1.400 . S
C665 H653 0.931 . S
C665 C660 1.408 . S
C665 C664 1.400 . S
H666 C672 0.930 . S
H667 C675 0.931 . S
H668 C677 0.931 . S
H669 C679 0.930 . S
H670 C681 0.930 . S
H671 C683 0.931 . S
C672 H666 0.930 . S
C672 C673 1.380 . S
C672 C674 1.394 . S
C673 C672 1.380 . S
C673 C677 1.382 . S
C674 C672 1.394 . S
C674 C675 1.400 . S
C675 H667 0.931 . S
C675 C674 1.400 . S
C675 C676 1.375 . S
C676 C675 1.375 . S
C676 C677 1.415 . S
C676 C678 1.501 . S
C677 H668 0.931 . S
C677 C673 1.382 . S
C677 C676 1.415 . S
C678 C676 1.501 . S
C678 C679 1.384 . S
C678 C683 1.408 . S
C679 H669 0.930 . S
C679 C678 1.384 . S
C679 C680 1.389 . S
C680 C679 1.389 . S
C680 C681 1.405 . S
C681 H670 0.930 . S
C681 C680 1.405 . S
C681 C682 1.364 . S
C682 C681 1.364 . S
C682 C683 1.400 . S
C683 H671 0.931 . S
C683 C678 1.408 . S
C683 C682 1.400 . S
H684 C690 0.930 . S
H685 C693 0.931 . S
H686 C695 0.931 . S
H687 C697 0.930 . S
H688 C699 0.930 . S
H689 C701 0.931 . S
C690 H684 0.930 . S
C690 C691 1.380 . S
C690 C692 1.394 . S
C691 C690 1.380 . S
C691 C695 1.382 . S
C692 C690 1.394 . S
C692 C693 1.400 . S
C693 H685 0.931 . S
C693 C692 1.400 . S
C693 C694 1.375 . S
C694 C693 1.375 . S
C694 C695 1.415 . S
C694 C696 1.501 . S
C695 H686 0.931 . S
C695 C691 1.382 . S
C695 C694 1.415 . S
C696 C694 1.501 . S
C696 C697 1.384 . S
C696 C701 1.408 . S
C697 H687 0.930 . S
C697 C696 1.384 . S
C697 C698 1.389 . S
C698 C697 1.389 . S
C698 C699 1.405 . S
C699 H688 0.930 . S
C699 C698 1.405 . S
C699 C700 1.364 . S
C700 C699 1.364 . S
C700 C701 1.400 . S
C701 H689 0.931 . S
C701 C696 1.408 . S
C701 C700 1.400 . S
H702 C708 0.930 . S
H703 C711 0.931 . S
H704 C713 0.931 . S
H705 C715 0.930 . S
H706 C717 0.930 . S
H707 C719 0.931 . S
C708 H702 0.930 . S
C708 C709 1.380 . S
C708 C710 1.394 . S
C709 C708 1.380 . S
C709 C713 1.382 . S
C710 C708 1.394 . S
C710 C711 1.400 . S
C711 H703 0.931 . S
C711 C710 1.400 . S
C711 C712 1.375 . S
C712 C711 1.375 . S
C712 C713 1.415 . S
C712 C714 1.501 . S
C713 H704 0.931 . S
C713 C709 1.382 . S
C713 C712 1.415 . S
C714 C712 1.501 . S
C714 C715 1.384 . S
C714 C719 1.408 . S
C715 H705 0.930 . S
C715 C714 1.384 . S
C715 C716 1.389 . S
C716 C715 1.389 . S
C716 C717 1.405 . S
C717 H706 0.930 . S
C717 C716 1.405 . S
C717 C718 1.364 . S
C718 C717 1.364 . S
C718 C719 1.400 . S
C719 H707 0.931 . S
C719 C714 1.408 . S
C719 C718 1.400 . S
H720 C726 0.930 . S
H721 C729 0.931 . S
H722 C731 0.931 . S
H723 C733 0.930 . S
H724 C735 0.930 . S
H725 C737 0.931 . S
C726 H720 0.930 . S
C726 C727 1.380 . S
C726 C728 1.394 . S
C727 C726 1.380 . S
C727 C731 1.382 . S
C728 C726 1.394 . S
C728 C729 1.400 . S
C729 H721 0.931 . S
C729 C728 1.400 . S
C729 C730 1.375 . S
C730 C729 1.375 . S
C730 C731 1.415 . S
C730 C732 1.501 . S
C731 H722 0.931 . S
C731 C727 1.382 . S
C731 C730 1.415 . S
C732 C730 1.501 . S
C732 C733 1.384 . S
C732 C737 1.408 . S
C733 H723 0.930 . S
C733 C732 1.384 . S
C733 C734 1.389 . S
C734 C733 1.389 . S
C734 C735 1.405 . S
C735 H724 0.930 . S
C735 C734 1.405 . S
C735 C736 1.364 . S
C736 C735 1.364 . S
C736 C737 1.400 . S
C737 H725 0.931 . S
C737 C732 1.408 . S
C737 C736 1.400 . S
H738 C744 0.930 . S
H739 C747 0.931 . S
H740 C749 0.931 . S
H741 C751 0.930 . S
H742 C753 0.930 . S
H743 C755 0.931 . S
C744 H738 0.930 . S
C744 C745 1.380 . S
C744 C746 1.394 . S
C745 C744 1.380 . S
C745 C749 1.382 . S
C746 C744 1.394 . S
C746 C747 1.400 . S
C747 H739 0.931 . S
C747 C746 1.400 . S
C747 C748 1.375 . S
C748 C747 1.375 . S
C748 C749 1.415 . S
C748 C750 1.501 . S
C749 H740 0.931 . S
C749 C745 1.382 . S
C749 C748 1.415 . S
C750 C748 1.501 . S
C750 C751 1.384 . S
C750 C755 1.408 . S
C751 H741 0.930 . S
C751 C750 1.384 . S
C751 C752 1.389 . S
C752 C751 1.389 . S
C752 C753 1.405 . S
C753 H742 0.930 . S
C753 C752 1.405 . S
C753 C754 1.364 . S
C754 C753 1.364 . S
C754 C755 1.400 . S
C755 H743 0.931 . S
C755 C750 1.408 . S
C755 C754 1.400 . S
H756 C762 0.930 . S
H757 C765 0.931 . S
H758 C767 0.931 . S
H759 C769 0.930 . S
H760 C771 0.930 . S
H761 C773 0.931 . S
C762 H756 0.930 . S
C762 C763 1.380 . S
C762 C764 1.394 . S
C763 C762 1.380 . S
C763 C767 1.382 . S
C764 C762 1.394 . S
C764 C765 1.400 . S
C765 H757 0.931 . S
C765 C764 1.400 . S
C765 C766 1.375 . S
C766 C765 1.375 . S
C766 C767 1.415 . S
C766 C768 1.501 . S
C767 H758 0.931 . S
C767 C763 1.382 . S
C767 C766 1.415 . S
C768 C766 1.501 . S
C768 C769 1.384 . S
C768 C773 1.408 . S
C769 H759 0.930 . S
C769 C768 1.384 . S
C769 C770 1.389 . S
C770 C769 1.389 . S
C770 C771 1.405 . S
C771 H760 0.930 . S
C771 C770 1.405 . S
C771 C772 1.364 . S
C772 C771 1.364 . S
C772 C773 1.400 . S
C773 H761 0.931 . S
C773 C768 1.408 . S
C773 C772 1.400 . S
H774 C780 0.930 . S
H775 C783 0.931 . S
H776 C785 0.931 . S
H777 C787 0.930 . S
H778 C789 0.930 . S
H779 C791 0.931 . S
C780 H774 0.930 . S
C780 C781 1.380 . S
C780 C782 1.394 . S
C781 C780 1.380 . S
C781 C785 1.382 . S
C782 C780 1.394 . S
C782 C783 1.400 . S
C783 H775 0.931 . S
C783 C782 1.400 . S
C783 C784 1.375 . S
C784 C783 1.375 . S
C784 C785 1.415 . S
C784 C786 1.501 . S
C785 H776 0.931 . S
C785 C781 1.382 . S
C785 C784 1.415 . S
C786 C784 1.501 . S
C786 C787 1.384 . S
C786 C791 1.408 . S
C787 H777 0.930 . S
C787 C786 1.384 . S
C787 C788 1.389 . S
C788 C787 1.389 . S
C788 C789 1.405 . S
C789 H778 0.930 . S
C789 C788 1.405 . S
C789 C790 1.364 . S
C790 C789 1.364 . S
C790 C791 1.400 . S
C791 H779 0.931 . S
C791 C786 1.408 . S
C791 C790 1.400 . S
H792 C798 0.930 . S
H793 C801 0.931 . S
H794 C803 0.931 . S
H795 C805 0.930 . S
H796 C807 0.930 . S
H797 C809 0.931 . S
C798 H792 0.930 . S
C798 C799 1.380 . S
C798 C800 1.394 . S
C799 C798 1.380 . S
C799 C803 1.382 . S
C800 C798 1.394 . S
C800 C801 1.400 . S
C801 H793 0.931 . S
C801 C800 1.400 . S
C801 C802 1.375 . S
C802 C801 1.375 . S
C802 C803 1.415 . S
C802 C804 1.501 . S
C803 H794 0.931 . S
C803 C799 1.382 . S
C803 C802 1.415 . S
C804 C802 1.501 . S
C804 C805 1.384 . S
C804 C809 1.408 . S
C805 H795 0.930 . S
C805 C804 1.384 . S
C805 C806 1.389 . S
C806 C805 1.389 . S
C806 C807 1.405 . S
C807 H796 0.930 . S
C807 C806 1.405 . S
C807 C808 1.364 . S
C808 C807 1.364 . S
C808 C809 1.400 . S
C809 H797 0.931 . S
C809 C804 1.408 . S
C809 C808 1.400 . S
H810 C816 0.916 . S
H811 C819 0.931 . S
H812 C821 0.931 . S
H813 C823 0.930 . S
H814 C825 0.930 . S
H815 C827 0.940 1_655 S
C816 H810 0.916 . S
C816 C817 1.392 . S
C816 C818 1.397 1_655 S
C817 C816 1.392 . S
C817 C821 1.382 . S
C818 C816 1.397 1_455 S
C818 C819 1.400 . S
C819 H811 0.931 . S
C819 C818 1.400 . S
C819 C820 1.375 . S
C820 C819 1.375 . S
C820 C821 1.415 1_455 S
C820 C822 1.501 . S
C821 H812 0.931 . S
C821 C817 1.382 . S
C821 C820 1.415 1_655 S
C822 C820 1.501 . S
C822 C823 1.384 . S
C822 C827 1.420 . S
C823 H813 0.930 . S
C823 C822 1.384 . S
C823 C824 1.389 . S
C824 C823 1.389 . S
C824 C825 1.405 . S
C825 H814 0.930 . S
C825 C824 1.405 . S
C825 C826 1.359 . S
C826 C825 1.359 . S
C826 C827 1.396 . S
C827 H815 0.940 1_455 S
C827 C822 1.420 . S
C827 C826 1.396 . S
H828 C834 0.930 . S
H829 C837 0.931 . S
H830 C839 0.931 . S
H831 C841 0.930 . S
H832 C843 0.930 . S
H833 C845 0.931 . S
C834 H828 0.930 . S
C834 C835 1.380 . S
C834 C836 1.394 . S
C835 C834 1.380 . S
C835 C839 1.382 . S
C836 C834 1.394 . S
C836 C837 1.400 . S
C837 H829 0.931 . S
C837 C836 1.400 . S
C837 C838 1.375 . S
C838 C837 1.375 . S
C838 C839 1.415 . S
C838 C840 1.501 . S
C839 H830 0.931 . S
C839 C835 1.382 . S
C839 C838 1.415 . S
C840 C838 1.501 . S
C840 C841 1.384 . S
C840 C845 1.408 . S
C841 H831 0.930 . S
C841 C840 1.384 . S
C841 C842 1.389 . S
C842 C841 1.389 . S
C842 C843 1.405 . S
C843 H832 0.930 . S
C843 C842 1.405 . S
C843 C844 1.364 . S
C844 C843 1.364 . S
C844 C845 1.400 . S
C845 H833 0.931 . S
C845 C840 1.408 . S
C845 C844 1.400 . S
H846 C852 0.941 . S
H847 C855 0.931 . S
H848 C857 0.931 . S
H849 C859 0.930 . S
H850 C861 0.930 . S
H851 C863 0.921 1_545 S
C852 H846 0.941 . S
C852 C853 1.377 . S
C852 C854 1.386 1_545 S
C853 C852 1.377 . S
C853 C857 1.382 . S
C854 C852 1.386 1_565 S
C854 C855 1.400 . S
C855 H847 0.931 . S
C855 C854 1.400 . S
C855 C856 1.375 . S
C856 C855 1.375 . S
C856 C857 1.415 1_565 S
C856 C858 1.501 . S
C857 H848 0.931 . S
C857 C853 1.382 . S
C857 C856 1.415 1_545 S
C858 C856 1.501 . S
C858 C859 1.384 . S
C858 C863 1.400 . S
C859 H849 0.930 . S
C859 C858 1.384 . S
C859 C860 1.389 . S
C860 C859 1.389 . S
C860 C861 1.405 . S
C861 H850 0.930 . S
C861 C860 1.405 . S
C861 C862 1.373 . S
C862 C861 1.373 . S
C862 C863 1.407 . S
C863 H851 0.921 1_565 S
C863 C858 1.400 . S
C863 C862 1.407 . S
H864 C870 0.912 . S
H865 C873 0.931 . S
H866 C875 0.928 1_545 S
H867 C877 0.930 . S
H868 C879 0.930 . S
H869 C881 0.931 . S
C870 H864 0.912 . S
C870 C871 1.383 . S
C870 C872 1.414 1_545 S
C871 C870 1.383 . S
C871 C875 1.402 1_545 S
C872 C870 1.414 1_565 S
C872 C873 1.379 . S
C873 H865 0.931 . S
C873 C872 1.379 . S
C873 C874 1.375 . S
C874 C873 1.375 . S
C874 C875 1.413 . S
C874 C876 1.501 . S
C875 H866 0.928 1_565 S
C875 C871 1.402 1_565 S
C875 C874 1.413 . S
C876 C874 1.501 . S
C876 C877 1.384 . S
C876 C881 1.408 1_565 S
C877 H867 0.930 . S
C877 C876 1.384 . S
C877 C878 1.389 . S
C878 C877 1.389 . S
C878 C879 1.405 . S
C879 H868 0.930 . S
C879 C878 1.405 . S
C879 C880 1.364 1_565 S
C880 C879 1.364 1_545 S
C880 C881 1.400 . S
C881 H869 0.931 . S
C881 C876 1.408 1_545 S
C881 C880 1.400 . S
H882 C888 0.947 . S
H883 C891 0.931 . S
H884 C893 0.936 . S
H885 C895 0.930 . S
H886 C897 0.967 . S
H887 C899 0.931 . S
C888 H882 0.947 . S
C888 C889 1.376 . S
C888 C890 1.371 1_655 S
C889 C888 1.376 . S
C889 C893 1.364 1_655 S
C890 C888 1.371 1_455 S
C890 C891 1.431 . S
C891 H883 0.931 . S
C891 C890 1.431 . S
C891 C892 1.375 . S
C892 C891 1.375 . S
C892 C893 1.422 . S
C892 C894 1.501 . S
C893 H884 0.936 . S
C893 C889 1.364 1_455 S
C893 C892 1.422 . S
C894 C892 1.501 . S
C894 C895 1.384 . S
C894 C899 1.408 1_455 S
C895 H885 0.930 . S
C895 C894 1.384 . S
C895 C896 1.389 . S
C896 C895 1.389 . S
C896 C897 1.398 . S
C897 H886 0.967 . S
C897 C896 1.398 . S
C897 C898 1.339 1_455 S
C898 C897 1.339 1_655 S
C898 C899 1.400 . S
C899 H887 0.931 . S
C899 C894 1.408 1_655 S
C899 C898 1.400 . S
H900 C906 0.930 . S
H901 C909 0.931 . S
H902 C911 0.931 . S
H903 C913 0.930 . S
H904 C915 0.930 . S
H905 C917 0.931 . S
C906 H900 0.930 . S
C906 C907 1.380 . S
C906 C908 1.394 . S
C907 C906 1.380 . S
C907 C911 1.382 . S
C908 C906 1.394 . S
C908 C909 1.400 . S
C909 H901 0.931 . S
C909 C908 1.400 . S
C909 C910 1.375 . S
C910 C909 1.375 . S
C910 C911 1.415 . S
C910 C912 1.501 . S
C911 H902 0.931 . S
C911 C907 1.382 . S
C911 C910 1.415 . S
C912 C910 1.501 . S
C912 C913 1.384 . S
C912 C917 1.408 . S
C913 H903 0.930 . S
C913 C912 1.384 . S
C913 C914 1.389 . S
C914 C913 1.389 . S
C914 C915 1.405 . S
C915 H904 0.930 . S
C915 C914 1.405 . S
C915 C916 1.364 . S
C916 C915 1.364 . S
C916 C917 1.400 . S
C917 H905 0.931 . S
C917 C912 1.408 . S
C917 C916 1.400 . S
H918 C924 0.930 . S
H919 C927 0.931 . S
H920 C929 0.931 . S
H921 C931 0.930 . S
H922 C933 0.930 . S
H923 C935 0.931 . S
C924 H918 0.930 . S
C924 C925 1.380 . S
C924 C926 1.394 . S
C925 C924 1.380 . S
C925 C929 1.382 . S
C926 C924 1.394 . S
C926 C927 1.400 . S
C927 H919 0.931 . S
C927 C926 1.400 . S
C927 C928 1.375 . S
C928 C927 1.375 . S
C928 C929 1.415 . S
C928 C930 1.501 . S
C929 H920 0.931 . S
C929 C925 1.382 . S
C929 C928 1.415 . S
C930 C928 1.501 . S
C930 C931 1.384 . S
C930 C935 1.408 . S
C931 H921 0.930 . S
C931 C930 1.384 . S
C931 C932 1.389 . S
C932 C931 1.389 . S
C932 C933 1.405 . S
C933 H922 0.930 . S
C933 C932 1.405 . S
C933 C934 1.364 . S
C934 C933 1.364 . S
C934 C935 1.400 . S
C935 H923 0.931 . S
C935 C930 1.408 . S
C935 C934 1.400 . S
H936 C942 0.930 . S
H937 C945 0.931 . S
H938 C947 0.931 . S
H939 C949 0.930 . S
H940 C951 0.930 . S
H941 C953 0.931 . S
C942 H936 0.930 . S
C942 C943 1.380 . S
C942 C944 1.394 . S
C943 C942 1.380 . S
C943 C947 1.382 . S
C944 C942 1.394 . S
C944 C945 1.400 . S
C945 H937 0.931 . S
C945 C944 1.400 . S
C945 C946 1.375 . S
C946 C945 1.375 . S
C946 C947 1.415 . S
C946 C948 1.501 . S
C947 H938 0.931 . S
C947 C943 1.382 . S
C947 C946 1.415 . S
C948 C946 1.501 . S
C948 C949 1.384 . S
C948 C953 1.408 . S
C949 H939 0.930 . S
C949 C948 1.384 . S
C949 C950 1.389 . S
C950 C949 1.389 . S
C950 C951 1.405 . S
C951 H940 0.930 . S
C951 C950 1.405 . S
C951 C952 1.364 . S
C952 C951 1.364 . S
C952 C953 1.400 . S
C953 H941 0.931 . S
C953 C948 1.408 . S
C953 C952 1.400 . S
H954 C960 0.930 . S
H955 C963 0.931 . S
H956 C965 0.931 . S
H957 C967 0.930 . S
H958 C969 0.930 . S
H959 C971 0.931 . S
C960 H954 0.930 . S
C960 C961 1.380 . S
C960 C962 1.394 . S
C961 C960 1.380 . S
C961 C965 1.382 . S
C962 C960 1.394 . S
C962 C963 1.400 . S
C963 H955 0.931 . S
C963 C962 1.400 . S
C963 C964 1.375 . S
C964 C963 1.375 . S
C964 C965 1.415 . S
C964 C966 1.501 . S
C965 H956 0.931 . S
C965 C961 1.382 . S
C965 C964 1.415 . S
C966 C964 1.501 . S
C966 C967 1.384 . S
C966 C971 1.408 . S
C967 H957 0.930 . S
C967 C966 1.384 . S
C967 C968 1.389 . S
C968 C967 1.389 . S
C968 C969 1.405 . S
C969 H958 0.930 . S
C969 C968 1.405 . S
C969 C970 1.364 . S
C970 C969 1.364 . S
C970 C971 1.400 . S
C971 H959 0.931 . S
C971 C966 1.408 . S
C971 C970 1.400 . S
C972 C973 1.391 1_455 S
C972 C974 1.394 . S
C972 H988 0.931 . S
C973 C972 1.391 1_655 S
C973 C977 1.376 . S
C974 C972 1.394 . S
C974 C975 1.369 1_455 S
C974 C978 1.531 . S
C975 C974 1.369 1_655 S
C975 C976 1.410 . S
C975 C983 1.503 . S
C976 C975 1.410 . S
C976 C977 1.392 . S
C976 C979 1.511 . S
C977 C973 1.376 . S
C977 C976 1.392 . S
C977 H989 0.929 . S
C978 C974 1.531 . S
C978 H990 0.960 . S
C978 H991 0.962 . S
C978 H992 0.960 . S
C979 C976 1.511 . S
C979 H993 0.961 . S
C979 H994 0.961 . S
C979 H995 0.961 . S
C980 C981 1.370 . S
C980 C982 1.363 . S
C980 H996 0.941 . S
C981 C980 1.370 . S
C981 C985 1.408 . S
C982 C980 1.363 . S
C982 C983 1.370 . S
C982 C986 1.521 . S
C983 C975 1.503 . S
C983 C982 1.370 . S
C983 C984 1.403 . S
C984 C983 1.403 . S
C984 C985 1.404 . S
C984 C987 1.539 . S
C985 C981 1.408 . S
C985 C984 1.404 . S
C985 H997 0.930 . S
C986 C982 1.521 . S
C986 H998 0.961 1_655 S
C986 H999 0.958 . S
C986 H1000 0.961 . S
C987 C984 1.539 . S
C987 H1001 0.958 1_655 S
C987 H1002 0.961 . S
C987 H1003 0.960 . S
H988 C972 0.931 . S
H989 C977 0.929 . S
H990 C978 0.960 . S
H991 C978 0.962 . S
H992 C978 0.960 . S
H993 C979 0.961 . S
H994 C979 0.961 . S
H995 C979 0.961 . S
H996 C980 0.941 . S
H997 C985 0.930 . S
H998 C986 0.961 1_455 S
H999 C986 0.958 . S
H1000 C986 0.961 . S
H1001 C987 0.958 1_455 S
H1002 C987 0.961 . S
H1003 C987 0.960 . S
C1004 C1005 1.391 . S
C1004 C1006 1.394 . S
C1004 H1020 0.931 . S
C1005 C1004 1.391 . S
C1005 C1009 1.376 . S
C1006 C1004 1.394 . S
C1006 C1007 1.369 . S
C1006 C1010 1.531 . S
C1007 C1006 1.369 . S
C1007 C1008 1.410 . S
C1007 C1015 1.503 . S
C1008 C1007 1.410 . S
C1008 C1009 1.392 . S
C1008 C1011 1.511 . S
C1009 C1005 1.376 . S
C1009 C1008 1.392 . S
C1009 H1021 0.929 . S
C1010 C1006 1.531 . S
C1010 H1022 0.960 . S
C1010 H1023 0.962 . S
C1010 H1024 0.960 . S
C1011 C1008 1.511 . S
C1011 H1025 0.961 . S
C1011 H1026 0.961 . S
C1011 H1027 0.961 . S
C1012 C1013 1.370 . S
C1012 C1014 1.363 . S
C1012 H1028 0.931 . S
C1013 C1012 1.370 . S
C1013 C1017 1.408 . S
C1014 C1012 1.363 . S
C1014 C1015 1.370 . S
C1014 C1018 1.524 . S
C1015 C1007 1.503 . S
C1015 C1014 1.370 . S
C1015 C1016 1.403 . S
C1016 C1015 1.403 . S
C1016 C1017 1.404 . S
C1016 C1019 1.539 . S
C1017 C1013 1.408 . S
C1017 C1016 1.404 . S
C1017 H1029 0.930 . S
C1018 C1014 1.524 . S
C1018 H1030 0.956 . S
C1018 H1031 0.961 . S
C1018 H1032 0.961 . S
C1019 C1016 1.539 . S
C1019 H1033 0.958 . S
C1019 H1034 0.961 . S
C1019 H1035 0.960 . S
H1020 C1004 0.931 . S
H1021 C1009 0.929 . S
H1022 C1010 0.960 . S
H1023 C1010 0.962 . S
H1024 C1010 0.960 . S
H1025 C1011 0.961 . S
H1026 C1011 0.961 . S
H1027 C1011 0.961 . S
H1028 C1012 0.931 . S
H1029 C1017 0.930 . S
H1030 C1018 0.956 . S
H1031 C1018 0.961 . S
H1032 C1018 0.961 . S
H1033 C1019 0.958 . S
H1034 C1019 0.961 . S
H1035 C1019 0.960 . S
C1036 C1037 1.391 . S
C1036 C1038 1.394 . S
C1036 H1052 0.931 . S
C1037 C1036 1.391 . S
C1037 C1041 1.376 1_545 S
C1038 C1036 1.394 . S
C1038 C1039 1.369 . S
C1038 C1042 1.531 . S
C1039 C1038 1.369 . S
C1039 C1040 1.410 1_545 S
C1039 C1047 1.503 . S
C1040 C1039 1.410 1_565 S
C1040 C1041 1.392 . S
C1040 C1043 1.511 . S
C1041 C1037 1.376 1_565 S
C1041 C1040 1.392 . S
C1041 H1053 0.929 . S
C1042 C1038 1.531 . S
C1042 H1054 0.960 . S
C1042 H1055 0.962 . S
C1042 H1056 0.960 . S
C1043 C1040 1.511 . S
C1043 H1057 0.961 . S
C1043 H1058 0.961 . S
C1043 H1059 0.961 . S
C1044 C1045 1.370 1_565 S
C1044 C1046 1.363 . S
C1044 H1060 0.931 . S
C1045 C1044 1.370 1_545 S
C1045 C1049 1.408 . S
C1046 C1044 1.363 . S
C1046 C1047 1.370 1_565 S
C1046 C1050 1.524 . S
C1047 C1039 1.503 . S
C1047 C1046 1.370 1_545 S
C1047 C1048 1.403 . S
C1048 C1047 1.403 . S
C1048 C1049 1.404 . S
C1048 C1051 1.539 . S
C1049 C1045 1.408 . S
C1049 C1048 1.404 . S
C1049 H1061 0.930 . S
C1050 C1046 1.524 . S
C1050 H1062 0.956 . S
C1050 H1063 0.961 . S
C1050 H1064 0.961 . S
C1051 C1048 1.539 . S
C1051 H1065 0.958 . S
C1051 H1066 0.961 . S
C1051 H1067 0.960 . S
H1052 C1036 0.931 . S
H1053 C1041 0.929 . S
H1054 C1042 0.960 . S
H1055 C1042 0.962 . S
H1056 C1042 0.960 . S
H1057 C1043 0.961 . S
H1058 C1043 0.961 . S
H1059 C1043 0.961 . S
H1060 C1044 0.931 . S
H1061 C1049 0.930 . S
H1062 C1050 0.956 . S
H1063 C1050 0.961 . S
H1064 C1050 0.961 . S
H1065 C1051 0.958 . S
H1066 C1051 0.961 . S
H1067 C1051 0.960 . S
C1068 C1069 1.391 . S
C1068 C1070 1.394 . S
C1068 H1084 0.931 . S
C1069 C1068 1.391 . S
C1069 C1073 1.376 1_565 S
C1070 C1068 1.394 . S
C1070 C1071 1.391 1_565 S
C1070 C1074 1.531 . S
C1071 C1070 1.391 1_545 S
C1071 C1072 1.412 . S
C1071 C1079 1.458 1_545 S
C1072 C1071 1.412 . S
C1072 C1073 1.392 . S
C1072 C1075 1.511 . S
C1073 C1069 1.376 1_545 S
C1073 C1072 1.392 . S
C1073 H1085 0.929 . S
C1074 C1070 1.531 . S
C1074 H1086 0.960 1_565 S
C1074 H1087 0.962 . S
C1074 H1088 0.960 1_565 S
C1075 C1072 1.511 . S
C1075 H1089 0.961 . S
C1075 H1090 0.943 1_545 S
C1075 H1091 0.961 . S
C1076 C1077 1.370 . S
C1076 C1078 1.363 . S
C1076 H1092 0.931 . S
C1077 C1076 1.370 . S
C1077 C1081 1.408 1_565 S
C1078 C1076 1.363 . S
C1078 C1079 1.416 . S
C1078 C1082 1.524 . S
C1079 C1071 1.458 1_565 S
C1079 C1078 1.416 . S
C1079 C1080 1.378 1_565 S
C1080 C1079 1.378 1_545 S
C1080 C1081 1.404 . S
C1080 C1083 1.539 . S
C1081 C1077 1.408 1_545 S
C1081 C1080 1.404 . S
C1081 H1093 0.930 . S
C1082 C1078 1.524 . S
C1082 H1094 0.956 . S
C1082 H1095 0.961 . S
C1082 H1096 0.961 . S
C1083 C1080 1.539 . S
C1083 H1097 0.958 . S
C1083 H1098 0.961 . S
C1083 H1099 0.960 . S
H1084 C1068 0.931 . S
H1085 C1073 0.929 . S
H1086 C1074 0.960 1_545 S
H1087 C1074 0.962 . S
H1088 C1074 0.960 1_545 S
H1089 C1075 0.961 . S
H1090 C1075 0.943 1_565 S
H1091 C1075 0.961 . S
H1092 C1076 0.931 . S
H1093 C1081 0.930 . S
H1094 C1082 0.956 . S
H1095 C1082 0.961 . S
H1096 C1082 0.961 . S
H1097 C1083 0.958 . S
H1098 C1083 0.961 . S
H1099 C1083 0.960 . S
C1100 C1101 1.391 1_655 S
C1100 C1102 1.394 . S
C1100 H1116 0.931 . S
C1101 C1100 1.391 1_455 S
C1101 C1105 1.376 . S
C1102 C1100 1.394 . S
C1102 C1103 1.369 1_655 S
C1102 C1106 1.531 . S
C1103 C1102 1.369 1_455 S
C1103 C1104 1.410 . S
C1103 C1111 1.503 . S
C1104 C1103 1.410 . S
C1104 C1105 1.392 . S
C1104 C1107 1.511 . S
C1105 C1101 1.376 . S
C1105 C1104 1.392 . S
C1105 H1117 0.929 . S
C1106 C1102 1.531 . S
C1106 H1118 0.960 . S
C1106 H1119 0.962 . S
C1106 H1120 0.960 . S
C1107 C1104 1.511 . S
C1107 H1121 0.961 . S
C1107 H1122 0.961 . S
C1107 H1123 0.961 . S
C1108 C1109 1.370 . S
C1108 C1110 1.363 . S
C1108 H1124 0.931 . S
C1109 C1108 1.370 . S
C1109 C1113 1.408 1_455 S
C1110 C1108 1.363 . S
C1110 C1111 1.370 . S
C1110 C1114 1.524 . S
C1111 C1103 1.503 . S
C1111 C1110 1.370 . S
C1111 C1112 1.403 1_455 S
C1112 C1111 1.403 1_655 S
C1112 C1113 1.404 . S
C1112 C1115 1.539 . S
C1113 C1109 1.408 1_655 S
C1113 C1112 1.404 . S
C1113 H1125 0.930 . S
C1114 C1110 1.524 . S
C1114 H1126 0.956 . S
C1114 H1127 0.961 . S
C1114 H1128 0.961 . S
C1115 C1112 1.539 . S
C1115 H1129 0.958 . S
C1115 H1130 0.961 . S
C1115 H1131 0.960 . S
H1116 C1100 0.931 . S
H1117 C1105 0.929 . S
H1118 C1106 0.960 . S
H1119 C1106 0.962 . S
H1120 C1106 0.960 . S
H1121 C1107 0.961 . S
H1122 C1107 0.961 . S
H1123 C1107 0.961 . S
H1124 C1108 0.931 . S
H1125 C1113 0.930 . S
H1126 C1114 0.956 . S
H1127 C1114 0.961 . S
H1128 C1114 0.961 . S
H1129 C1115 0.958 . S
H1130 C1115 0.961 . S
H1131 C1115 0.960 . S
C1132 C1133 1.391 . S
C1132 C1134 1.394 . S
C1132 H1148 0.931 . S
C1133 C1132 1.391 . S
C1133 C1137 1.376 . S
C1134 C1132 1.394 . S
C1134 C1135 1.369 . S
C1134 C1138 1.531 . S
C1135 C1134 1.369 . S
C1135 C1136 1.410 . S
C1135 C1143 1.503 . S
C1136 C1135 1.410 . S
C1136 C1137 1.392 . S
C1136 C1139 1.511 . S
C1137 C1133 1.376 . S
C1137 C1136 1.392 . S
C1137 H1149 0.929 . S
C1138 C1134 1.531 . S
C1138 H1150 0.960 . S
C1138 H1151 0.962 . S
C1138 H1152 0.960 . S
C1139 C1136 1.511 . S
C1139 H1153 0.961 . S
C1139 H1154 0.961 . S
C1139 H1155 0.961 . S
C1140 C1141 1.370 . S
C1140 C1142 1.363 . S
C1140 H1156 0.931 . S
C1141 C1140 1.370 . S
C1141 C1145 1.408 . S
C1142 C1140 1.363 . S
C1142 C1143 1.370 . S
C1142 C1146 1.524 . S
C1143 C1135 1.503 . S
C1143 C1142 1.370 . S
C1143 C1144 1.403 . S
C1144 C1143 1.403 . S
C1144 C1145 1.404 . S
C1144 C1147 1.539 . S
C1145 C1141 1.408 . S
C1145 C1144 1.404 . S
C1145 H1157 0.930 . S
C1146 C1142 1.524 . S
C1146 H1158 0.956 . S
C1146 H1159 0.961 . S
C1146 H1160 0.961 . S
C1147 C1144 1.539 . S
C1147 H1161 0.958 . S
C1147 H1162 0.961 . S
C1147 H1163 0.960 . S
H1148 C1132 0.931 . S
H1149 C1137 0.929 . S
H1150 C1138 0.960 . S
H1151 C1138 0.962 . S
H1152 C1138 0.960 . S
H1153 C1139 0.961 . S
H1154 C1139 0.961 . S
H1155 C1139 0.961 . S
H1156 C1140 0.931 . S
H1157 C1145 0.930 . S
H1158 C1146 0.956 . S
H1159 C1146 0.961 . S
H1160 C1146 0.961 . S
H1161 C1147 0.958 . S
H1162 C1147 0.961 . S
H1163 C1147 0.960 . S
C1164 C1165 1.409 . S
C1164 C1166 1.421 . S
C1164 H1180 0.890 1_455 S
C1165 C1164 1.409 . S
C1165 C1169 1.376 . S
C1166 C1164 1.421 . S
C1166 C1167 1.369 . S
C1166 C1170 1.531 1_455 S
C1167 C1166 1.369 . S
C1167 C1168 1.410 . S
C1167 C1175 1.503 . S
C1168 C1167 1.410 . S
C1168 C1169 1.392 . S
C1168 C1171 1.511 . S
C1169 C1165 1.376 . S
C1169 C1168 1.392 . S
C1169 H1181 0.929 . S
C1170 C1166 1.531 1_655 S
C1170 H1182 0.960 1_655 S
C1170 H1183 0.962 . S
C1170 H1184 0.952 . S
C1171 C1168 1.511 . S
C1171 H1185 0.961 . S
C1171 H1186 0.961 . S
C1171 H1187 0.961 . S
C1172 C1173 1.319 1_655 S
C1172 C1174 1.363 . S
C1172 H1188 0.931 . S
C1173 C1172 1.319 1_455 S
C1173 C1177 1.442 . S
C1174 C1172 1.363 . S
C1174 C1175 1.370 1_655 S
C1174 C1178 1.524 . S
C1175 C1167 1.503 . S
C1175 C1174 1.370 1_455 S
C1175 C1176 1.403 . S
C1176 C1175 1.403 . S
C1176 C1177 1.404 . S
C1176 C1179 1.539 . S
C1177 C1173 1.442 . S
C1177 C1176 1.404 . S
C1177 H1189 0.930 . S
C1178 C1174 1.524 . S
C1178 H1190 0.956 . S
C1178 H1191 0.961 . S
C1178 H1192 0.961 . S
C1179 C1176 1.539 . S
C1179 H1193 0.958 . S
C1179 H1194 0.961 . S
C1179 H1195 0.960 . S
H1180 C1164 0.890 1_655 S
H1181 C1169 0.929 . S
H1182 C1170 0.960 1_455 S
H1183 C1170 0.962 . S
H1184 C1170 0.952 . S
H1185 C1171 0.961 . S
H1186 C1171 0.961 . S
H1187 C1171 0.961 . S
H1188 C1172 0.931 . S
H1189 C1177 0.930 . S
H1190 C1178 0.956 . S
H1191 C1178 0.961 . S
H1192 C1178 0.961 . S
H1193 C1179 0.958 . S
H1194 C1179 0.961 . S
H1195 C1179 0.960 . S
C1196 C1197 1.391 . S
C1196 C1198 1.394 . S
C1196 H1212 0.931 . S
C1197 C1196 1.391 . S
C1197 C1201 1.376 . S
C1198 C1196 1.394 . S
C1198 C1199 1.369 . S
C1198 C1202 1.531 . S
C1199 C1198 1.369 . S
C1199 C1200 1.410 . S
C1199 C1207 1.503 . S
C1200 C1199 1.410 . S
C1200 C1201 1.392 . S
C1200 C1203 1.511 . S
C1201 C1197 1.376 . S
C1201 C1200 1.392 . S
C1201 H1213 0.929 . S
C1202 C1198 1.531 . S
C1202 H1214 0.960 . S
C1202 H1215 0.962 . S
C1202 H1216 0.960 . S
C1203 C1200 1.511 . S
C1203 H1217 0.961 . S
C1203 H1218 0.961 . S
C1203 H1219 0.961 . S
C1204 C1205 1.370 . S
C1204 C1206 1.363 . S
C1204 H1220 0.931 . S
C1205 C1204 1.370 . S
C1205 C1209 1.408 . S
C1206 C1204 1.363 . S
C1206 C1207 1.370 . S
C1206 C1210 1.524 . S
C1207 C1199 1.503 . S
C1207 C1206 1.370 . S
C1207 C1208 1.403 . S
C1208 C1207 1.403 . S
C1208 C1209 1.404 . S
C1208 C1211 1.539 . S
C1209 C1205 1.408 . S
C1209 C1208 1.404 . S
C1209 H1221 0.930 . S
C1210 C1206 1.524 . S
C1210 H1222 0.956 . S
C1210 H1223 0.961 . S
C1210 H1224 0.961 . S
C1211 C1208 1.539 . S
C1211 H1225 0.958 . S
C1211 H1226 0.961 . S
C1211 H1227 0.960 . S
H1212 C1196 0.931 . S
H1213 C1201 0.929 . S
H1214 C1202 0.960 . S
H1215 C1202 0.962 . S
H1216 C1202 0.960 . S
H1217 C1203 0.961 . S
H1218 C1203 0.961 . S
H1219 C1203 0.961 . S
H1220 C1204 0.931 . S
H1221 C1209 0.930 . S
H1222 C1210 0.956 . S
H1223 C1210 0.961 . S
H1224 C1210 0.961 . S
H1225 C1211 0.958 . S
H1226 C1211 0.961 . S
H1227 C1211 0.960 . S
C1228 C1229 1.390 . S
C1228 C1230 1.394 . S
C1228 H1244 0.931 . S
C1229 C1228 1.390 . S
C1229 C1233 1.358 1_565 S
C1230 C1228 1.394 . S
C1230 C1231 1.369 1_565 S
C1230 C1234 1.531 . S
C1231 C1230 1.369 1_545 S
C1231 C1232 1.410 . S
C1231 C1239 1.503 . S
C1232 C1231 1.410 . S
C1232 C1233 1.392 . S
C1232 C1235 1.511 . S
C1233 C1229 1.358 1_545 S
C1233 C1232 1.392 . S
C1233 H1245 0.929 . S
C1234 C1230 1.531 . S
C1234 H1246 0.960 . S
C1234 H1247 0.962 . S
C1234 H1248 0.960 . S
C1235 C1232 1.511 . S
C1235 H1249 0.961 . S
C1235 H1250 0.961 . S
C1235 H1251 0.961 . S
C1236 C1237 1.370 1_565 S
C1236 C1238 1.363 . S
C1236 H1252 0.931 . S
C1237 C1236 1.370 1_545 S
C1237 C1241 1.408 . S
C1238 C1236 1.363 . S
C1238 C1239 1.370 1_565 S
C1238 C1242 1.524 . S
C1239 C1231 1.503 . S
C1239 C1238 1.370 1_545 S
C1239 C1240 1.403 . S
C1240 C1239 1.403 . S
C1240 C1241 1.404 . S
C1240 C1243 1.539 . S
C1241 C1237 1.408 . S
C1241 C1240 1.404 . S
C1241 H1253 0.930 . S
C1242 C1238 1.524 . S
C1242 H1254 0.956 . S
C1242 H1255 0.961 . S
C1242 H1256 0.961 . S
C1243 C1240 1.539 . S
C1243 H1257 0.958 . S
C1243 H1258 0.961 . S
C1243 H1259 0.960 . S
H1244 C1228 0.931 . S
H1245 C1233 0.929 . S
H1246 C1234 0.960 . S
H1247 C1234 0.962 . S
H1248 C1234 0.960 . S
H1249 C1235 0.961 . S
H1250 C1235 0.961 . S
H1251 C1235 0.961 . S
H1252 C1236 0.931 . S
H1253 C1241 0.930 . S
H1254 C1242 0.956 . S
H1255 C1242 0.961 . S
H1256 C1242 0.961 . S
H1257 C1243 0.958 . S
H1258 C1243 0.961 . S
H1259 C1243 0.960 . S
C1260 C1261 1.391 . S
C1260 C1262 1.394 . S
C1260 H1276 0.931 . S
C1261 C1260 1.391 . S
C1261 C1265 1.376 1_545 S
C1262 C1260 1.394 . S
C1262 C1263 1.369 . S
C1262 C1266 1.531 . S
C1263 C1262 1.369 . S
C1263 C1264 1.410 1_545 S
C1263 C1271 1.503 . S
C1264 C1263 1.410 1_565 S
C1264 C1265 1.392 . S
C1264 C1267 1.511 . S
C1265 C1261 1.376 1_565 S
C1265 C1264 1.392 . S
C1265 H1277 0.929 . S
C1266 C1262 1.531 . S
C1266 H1278 0.960 . S
C1266 H1279 0.962 . S
C1266 H1280 0.960 . S
C1267 C1264 1.511 . S
C1267 H1281 0.961 . S
C1267 H1282 0.961 . S
C1267 H1283 0.961 . S
C1268 C1269 1.333 1_565 S
C1268 C1270 1.363 . S
C1268 H1284 0.931 . S
C1269 C1268 1.333 1_545 S
C1269 C1273 1.436 . S
C1270 C1268 1.363 . S
C1270 C1271 1.370 1_565 S
C1270 C1274 1.524 . S
C1271 C1263 1.503 . S
C1271 C1270 1.370 1_545 S
C1271 C1272 1.403 . S
C1272 C1271 1.403 . S
C1272 C1273 1.404 . S
C1272 C1275 1.539 . S
C1273 C1269 1.436 . S
C1273 C1272 1.404 . S
C1273 H1285 0.930 . S
C1274 C1270 1.524 . S
C1274 H1286 0.956 . S
C1274 H1287 0.961 . S
C1274 H1288 0.961 . S
C1275 C1272 1.539 . S
C1275 H1289 0.958 . S
C1275 H1290 0.961 . S
C1275 H1291 0.960 . S
H1276 C1260 0.931 . S
H1277 C1265 0.929 . S
H1278 C1266 0.960 . S
H1279 C1266 0.962 . S
H1280 C1266 0.960 . S
H1281 C1267 0.961 . S
H1282 C1267 0.961 . S
H1283 C1267 0.961 . S
H1284 C1268 0.931 . S
H1285 C1273 0.930 . S
H1286 C1274 0.956 . S
H1287 C1274 0.961 . S
H1288 C1274 0.961 . S
H1289 C1275 0.958 . S
H1290 C1275 0.961 . S
H1291 C1275 0.960 . S
C1292 C1293 1.353 1_455 S
C1292 C1294 1.394 . S
C1292 H1308 0.931 . S
C1293 C1292 1.353 1_655 S
C1293 C1297 1.397 . S
C1294 C1292 1.394 . S
C1294 C1295 1.369 . S
C1294 C1298 1.531 . S
C1295 C1294 1.369 . S
C1295 C1296 1.410 1_455 S
C1295 C1303 1.503 . S
C1296 C1295 1.410 1_655 S
C1296 C1297 1.392 . S
C1296 C1299 1.511 . S
C1297 C1293 1.397 . S
C1297 C1296 1.392 . S
C1297 H1309 0.929 . S
C1298 C1294 1.531 . S
C1298 H1310 0.960 . S
C1298 H1311 0.962 . S
C1298 H1312 0.960 . S
C1299 C1296 1.511 . S
C1299 H1313 0.961 . S
C1299 H1314 0.961 . S
C1299 H1315 0.961 . S
C1300 C1301 1.370 1_655 S
C1300 C1302 1.363 . S
C1300 H1316 0.931 . S
C1301 C1300 1.370 1_455 S
C1301 C1305 1.408 . S
C1302 C1300 1.363 . S
C1302 C1303 1.370 1_655 S
C1302 C1306 1.524 . S
C1303 C1295 1.503 . S
C1303 C1302 1.370 1_455 S
C1303 C1304 1.403 . S
C1304 C1303 1.403 . S
C1304 C1305 1.404 . S
C1304 C1307 1.539 . S
C1305 C1301 1.408 . S
C1305 C1304 1.404 . S
C1305 H1317 0.930 . S
C1306 C1302 1.524 . S
C1306 H1318 0.956 . S
C1306 H1319 0.961 . S
C1306 H1320 0.961 . S
C1307 C1304 1.539 . S
C1307 H1321 0.958 . S
C1307 H1322 0.961 . S
C1307 H1323 0.960 . S
H1308 C1292 0.931 . S
H1309 C1297 0.929 . S
H1310 C1298 0.960 . S
H1311 C1298 0.962 . S
H1312 C1298 0.960 . S
H1313 C1299 0.961 . S
H1314 C1299 0.961 . S
H1315 C1299 0.961 . S
H1316 C1300 0.931 . S
H1317 C1305 0.930 . S
H1318 C1306 0.956 . S
H1319 C1306 0.961 . S
H1320 C1306 0.961 . S
H1321 C1307 0.958 . S
H1322 C1307 0.961 . S
H1323 C1307 0.960 . S
C1324 C1325 1.391 . S
C1324 C1326 1.394 . S
C1324 H1340 0.931 . S
C1325 C1324 1.391 . S
C1325 C1329 1.376 . S
C1326 C1324 1.394 . S
C1326 C1327 1.369 . S
C1326 C1330 1.531 . S
C1327 C1326 1.369 . S
C1327 C1328 1.410 . S
C1327 C1335 1.503 . S
C1328 C1327 1.410 . S
C1328 C1329 1.392 . S
C1328 C1331 1.511 . S
C1329 C1325 1.376 . S
C1329 C1328 1.392 . S
C1329 H1341 0.929 . S
C1330 C1326 1.531 . S
C1330 H1342 0.960 . S
C1330 H1343 0.962 . S
C1330 H1344 0.960 . S
C1331 C1328 1.511 . S
C1331 H1345 0.961 . S
C1331 H1346 0.961 . S
C1331 H1347 0.961 . S
C1332 C1333 1.370 . S
C1332 C1334 1.363 . S
C1332 H1348 0.931 . S
C1333 C1332 1.370 . S
C1333 C1337 1.408 . S
C1334 C1332 1.363 . S
C1334 C1335 1.370 . S
C1334 C1338 1.524 . S
C1335 C1327 1.503 . S
C1335 C1334 1.370 . S
C1335 C1336 1.403 . S
C1336 C1335 1.403 . S
C1336 C1337 1.404 . S
C1336 C1339 1.539 . S
C1337 C1333 1.408 . S
C1337 C1336 1.404 . S
C1337 H1349 0.930 . S
C1338 C1334 1.524 . S
C1338 H1350 0.956 . S
C1338 H1351 0.961 . S
C1338 H1352 0.961 . S
C1339 C1336 1.539 . S
C1339 H1353 0.958 . S
C1339 H1354 0.961 . S
C1339 H1355 0.960 . S
H1340 C1324 0.931 . S
H1341 C1329 0.929 . S
H1342 C1330 0.960 . S
H1343 C1330 0.962 . S
H1344 C1330 0.960 . S
H1345 C1331 0.961 . S
H1346 C1331 0.961 . S
H1347 C1331 0.961 . S
H1348 C1332 0.931 . S
H1349 C1337 0.930 . S
H1350 C1338 0.956 . S
H1351 C1338 0.961 . S
H1352 C1338 0.961 . S
H1353 C1339 0.958 . S
H1354 C1339 0.961 . S
H1355 C1339 0.960 . S
C1356 C1357 1.391 . S
C1356 C1358 1.394 . S
C1356 H1372 0.931 . S
C1357 C1356 1.391 . S
C1357 C1361 1.376 . S
C1358 C1356 1.394 . S
C1358 C1359 1.369 . S
C1358 C1362 1.531 . S
C1359 C1358 1.369 . S
C1359 C1360 1.410 . S
C1359 C1367 1.503 . S
C1360 C1359 1.410 . S
C1360 C1361 1.392 . S
C1360 C1363 1.511 . S
C1361 C1357 1.376 . S
C1361 C1360 1.392 . S
C1361 H1373 0.929 . S
C1362 C1358 1.531 . S
C1362 H1374 0.960 . S
C1362 H1375 0.962 . S
C1362 H1376 0.960 . S
C1363 C1360 1.511 . S
C1363 H1377 0.961 . S
C1363 H1378 0.961 . S
C1363 H1379 0.961 . S
C1364 C1365 1.370 . S
C1364 C1366 1.363 . S
C1364 H1380 0.931 . S
C1365 C1364 1.370 . S
C1365 C1369 1.408 . S
C1366 C1364 1.363 . S
C1366 C1367 1.370 . S
C1366 C1370 1.524 . S
C1367 C1359 1.503 . S
C1367 C1366 1.370 . S
C1367 C1368 1.403 . S
C1368 C1367 1.403 . S
C1368 C1369 1.404 . S
C1368 C1371 1.539 . S
C1369 C1365 1.408 . S
C1369 C1368 1.404 . S
C1369 H1381 0.930 . S
C1370 C1366 1.524 . S
C1370 H1382 0.956 . S
C1370 H1383 0.961 . S
C1370 H1384 0.961 . S
C1371 C1368 1.539 . S
C1371 H1385 0.958 . S
C1371 H1386 0.961 . S
C1371 H1387 0.960 . S
H1372 C1356 0.931 . S
H1373 C1361 0.929 . S
H1374 C1362 0.960 . S
H1375 C1362 0.962 . S
H1376 C1362 0.960 . S
H1377 C1363 0.961 . S
H1378 C1363 0.961 . S
H1379 C1363 0.961 . S
H1380 C1364 0.931 . S
H1381 C1369 0.930 . S
H1382 C1370 0.956 . S
H1383 C1370 0.961 . S
H1384 C1370 0.961 . S
H1385 C1371 0.958 . S
H1386 C1371 0.961 . S
H1387 C1371 0.960 . S
C1388 C1389 1.391 . S
C1388 C1390 1.394 . S
C1388 H1404 0.931 . S
C1389 C1388 1.391 . S
C1389 C1393 1.376 . S
C1390 C1388 1.394 . S
C1390 C1391 1.369 . S
C1390 C1394 1.531 . S
C1391 C1390 1.369 . S
C1391 C1392 1.410 . S
C1391 C1399 1.503 . S
C1392 C1391 1.410 . S
C1392 C1393 1.392 . S
C1392 C1395 1.511 . S
C1393 C1389 1.376 . S
C1393 C1392 1.392 . S
C1393 H1405 0.929 . S
C1394 C1390 1.531 . S
C1394 H1406 0.960 . S
C1394 H1407 0.962 . S
C1394 H1408 0.960 . S
C1395 C1392 1.511 . S
C1395 H1409 0.961 . S
C1395 H1410 0.961 . S
C1395 H1411 0.961 . S
C1396 C1397 1.370 . S
C1396 C1398 1.363 . S
C1396 H1412 0.931 . S
C1397 C1396 1.370 . S
C1397 C1401 1.408 . S
C1398 C1396 1.363 . S
C1398 C1399 1.370 . S
C1398 C1402 1.524 . S
C1399 C1391 1.503 . S
C1399 C1398 1.370 . S
C1399 C1400 1.403 . S
C1400 C1399 1.403 . S
C1400 C1401 1.404 . S
C1400 C1403 1.539 . S
C1401 C1397 1.408 . S
C1401 C1400 1.404 . S
C1401 H1413 0.930 . S
C1402 C1398 1.524 . S
C1402 H1414 0.956 . S
C1402 H1415 0.961 . S
C1402 H1416 0.961 . S
C1403 C1400 1.539 . S
C1403 H1417 0.958 . S
C1403 H1418 0.961 . S
C1403 H1419 0.960 . S
H1404 C1388 0.931 . S
H1405 C1393 0.929 . S
H1406 C1394 0.960 . S
H1407 C1394 0.962 . S
H1408 C1394 0.960 . S
H1409 C1395 0.961 . S
H1410 C1395 0.961 . S
H1411 C1395 0.961 . S
H1412 C1396 0.931 . S
H1413 C1401 0.930 . S
H1414 C1402 0.956 . S
H1415 C1402 0.961 . S
H1416 C1402 0.961 . S
H1417 C1403 0.958 . S
H1418 C1403 0.961 . S
H1419 C1403 0.960 . S
C1420 C1421 1.391 . S
C1420 C1422 1.394 . S
C1420 H1436 0.931 . S
C1421 C1420 1.391 . S
C1421 C1425 1.376 . S
C1422 C1420 1.394 . S
C1422 C1423 1.369 . S
C1422 C1426 1.531 . S
C1423 C1422 1.369 . S
C1423 C1424 1.410 . S
C1423 C1431 1.503 . S
C1424 C1423 1.410 . S
C1424 C1425 1.392 . S
C1424 C1427 1.511 . S
C1425 C1421 1.376 . S
C1425 C1424 1.392 . S
C1425 H1437 0.929 . S
C1426 C1422 1.531 . S
C1426 H1438 0.960 . S
C1426 H1439 0.962 . S
C1426 H1440 0.960 . S
C1427 C1424 1.511 . S
C1427 H1441 0.961 . S
C1427 H1442 0.961 . S
C1427 H1443 0.961 . S
C1428 C1429 1.370 . S
C1428 C1430 1.363 . S
C1428 H1444 0.931 . S
C1429 C1428 1.370 . S
C1429 C1433 1.408 . S
C1430 C1428 1.363 . S
C1430 C1431 1.370 . S
C1430 C1434 1.524 . S
C1431 C1423 1.503 . S
C1431 C1430 1.370 . S
C1431 C1432 1.403 . S
C1432 C1431 1.403 . S
C1432 C1433 1.404 . S
C1432 C1435 1.539 . S
C1433 C1429 1.408 . S
C1433 C1432 1.404 . S
C1433 H1445 0.930 . S
C1434 C1430 1.524 . S
C1434 H1446 0.956 . S
C1434 H1447 0.961 . S
C1434 H1448 0.961 . S
C1435 C1432 1.539 . S
C1435 H1449 0.958 . S
C1435 H1450 0.961 . S
C1435 H1451 0.960 . S
H1436 C1420 0.931 . S
H1437 C1425 0.929 . S
H1438 C1426 0.960 . S
H1439 C1426 0.962 . S
H1440 C1426 0.960 . S
H1441 C1427 0.961 . S
H1442 C1427 0.961 . S
H1443 C1427 0.961 . S
H1444 C1428 0.931 . S
H1445 C1433 0.930 . S
H1446 C1434 0.956 . S
H1447 C1434 0.961 . S
H1448 C1434 0.961 . S
H1449 C1435 0.958 . S
H1450 C1435 0.961 . S
H1451 C1435 0.960 . S
C1452 C1453 1.391 . S
C1452 C1454 1.394 . S
C1452 H1468 0.931 . S
C1453 C1452 1.391 . S
C1453 C1457 1.376 . S
C1454 C1452 1.394 . S
C1454 C1455 1.369 . S
C1454 C1458 1.531 . S
C1455 C1454 1.369 . S
C1455 C1456 1.410 . S
C1455 C1463 1.503 . S
C1456 C1455 1.410 . S
C1456 C1457 1.392 . S
C1456 C1459 1.511 . S
C1457 C1453 1.376 . S
C1457 C1456 1.392 . S
C1457 H1469 0.929 . S
C1458 C1454 1.531 . S
C1458 H1470 0.960 . S
C1458 H1471 0.962 . S
C1458 H1472 0.960 . S
C1459 C1456 1.511 . S
C1459 H1473 0.961 . S
C1459 H1474 0.961 . S
C1459 H1475 0.961 . S
C1460 C1461 1.370 . S
C1460 C1462 1.363 . S
C1460 H1476 0.931 . S
C1461 C1460 1.370 . S
C1461 C1465 1.408 . S
C1462 C1460 1.363 . S
C1462 C1463 1.370 . S
C1462 C1466 1.524 . S
C1463 C1455 1.503 . S
C1463 C1462 1.370 . S
C1463 C1464 1.403 . S
C1464 C1463 1.403 . S
C1464 C1465 1.404 . S
C1464 C1467 1.539 . S
C1465 C1461 1.408 . S
C1465 C1464 1.404 . S
C1465 H1477 0.930 . S
C1466 C1462 1.524 . S
C1466 H1478 0.956 . S
C1466 H1479 0.961 . S
C1466 H1480 0.961 . S
C1467 C1464 1.539 . S
C1467 H1481 0.958 . S
C1467 H1482 0.961 . S
C1467 H1483 0.960 . S
H1468 C1452 0.931 . S
H1469 C1457 0.929 . S
H1470 C1458 0.960 . S
H1471 C1458 0.962 . S
H1472 C1458 0.960 . S
H1473 C1459 0.961 . S
H1474 C1459 0.961 . S
H1475 C1459 0.961 . S
H1476 C1460 0.931 . S
H1477 C1465 0.930 . S
H1478 C1466 0.956 . S
H1479 C1466 0.961 . S
H1480 C1466 0.961 . S
H1481 C1467 0.958 . S
H1482 C1467 0.961 . S
H1483 C1467 0.960 . S
C1484 C1485 1.391 . S
C1484 C1486 1.394 . S
C1484 H1500 0.931 . S
C1485 C1484 1.391 . S
C1485 C1489 1.376 . S
C1486 C1484 1.394 . S
C1486 C1487 1.369 . S
C1486 C1490 1.531 . S
C1487 C1486 1.369 . S
C1487 C1488 1.410 . S
C1487 C1495 1.503 . S
C1488 C1487 1.410 . S
C1488 C1489 1.392 . S
C1488 C1491 1.511 . S
C1489 C1485 1.376 . S
C1489 C1488 1.392 . S
C1489 H1501 0.929 . S
C1490 C1486 1.531 . S
C1490 H1502 0.960 . S
C1490 H1503 0.962 . S
C1490 H1504 0.960 . S
C1491 C1488 1.511 . S
C1491 H1505 0.961 . S
C1491 H1506 0.961 . S
C1491 H1507 0.961 . S
C1492 C1493 1.370 . S
C1492 C1494 1.363 . S
C1492 H1508 0.931 . S
C1493 C1492 1.370 . S
C1493 C1497 1.408 . S
C1494 C1492 1.363 . S
C1494 C1495 1.370 . S
C1494 C1498 1.524 . S
C1495 C1487 1.503 . S
C1495 C1494 1.370 . S
C1495 C1496 1.403 . S
C1496 C1495 1.403 . S
C1496 C1497 1.404 . S
C1496 C1499 1.539 . S
C1497 C1493 1.408 . S
C1497 C1496 1.404 . S
C1497 H1509 0.930 . S
C1498 C1494 1.524 . S
C1498 H1510 0.956 . S
C1498 H1511 0.961 . S
C1498 H1512 0.961 . S
C1499 C1496 1.539 . S
C1499 H1513 0.958 . S
C1499 H1514 0.961 . S
C1499 H1515 0.960 . S
H1500 C1484 0.931 . S
H1501 C1489 0.929 . S
H1502 C1490 0.960 . S
H1503 C1490 0.962 . S
H1504 C1490 0.960 . S
H1505 C1491 0.961 . S
H1506 C1491 0.961 . S
H1507 C1491 0.961 . S
H1508 C1492 0.931 . S
H1509 C1497 0.930 . S
H1510 C1498 0.956 . S
H1511 C1498 0.961 . S
H1512 C1498 0.961 . S
H1513 C1499 0.958 . S
H1514 C1499 0.961 . S
H1515 C1499 0.960 . S
C1516 C1517 1.391 . S
C1516 C1518 1.394 . S
C1516 H1532 0.931 . S
C1517 C1516 1.391 . S
C1517 C1521 1.376 . S
C1518 C1516 1.394 . S
C1518 C1519 1.369 . S
C1518 C1522 1.531 . S
C1519 C1518 1.369 . S
C1519 C1520 1.410 . S
C1519 C1527 1.503 . S
C1520 C1519 1.410 . S
C1520 C1521 1.392 . S
C1520 C1523 1.511 . S
C1521 C1517 1.376 . S
C1521 C1520 1.392 . S
C1521 H1533 0.929 . S
C1522 C1518 1.531 . S
C1522 H1534 0.960 . S
C1522 H1535 0.962 . S
C1522 H1536 0.960 . S
C1523 C1520 1.511 . S
C1523 H1537 0.961 . S
C1523 H1538 0.961 . S
C1523 H1539 0.961 . S
C1524 C1525 1.370 . S
C1524 C1526 1.363 . S
C1524 H1540 0.931 . S
C1525 C1524 1.370 . S
C1525 C1529 1.408 . S
C1526 C1524 1.363 . S
C1526 C1527 1.370 . S
C1526 C1530 1.524 . S
C1527 C1519 1.503 . S
C1527 C1526 1.370 . S
C1527 C1528 1.403 . S
C1528 C1527 1.403 . S
C1528 C1529 1.404 . S
C1528 C1531 1.539 . S
C1529 C1525 1.408 . S
C1529 C1528 1.404 . S
C1529 H1541 0.930 . S
C1530 C1526 1.524 . S
C1530 H1542 0.956 . S
C1530 H1543 0.961 . S
C1530 H1544 0.961 . S
C1531 C1528 1.539 . S
C1531 H1545 0.958 . S
C1531 H1546 0.961 . S
C1531 H1547 0.960 . S
H1532 C1516 0.931 . S
H1533 C1521 0.929 . S
H1534 C1522 0.960 . S
H1535 C1522 0.962 . S
H1536 C1522 0.960 . S
H1537 C1523 0.961 . S
H1538 C1523 0.961 . S
H1539 C1523 0.961 . S
H1540 C1524 0.931 . S
H1541 C1529 0.930 . S
H1542 C1530 0.956 . S
H1543 C1530 0.961 . S
H1544 C1530 0.961 . S
H1545 C1531 0.958 . S
H1546 C1531 0.961 . S
H1547 C1531 0.960 . S
C1548 C1549 1.391 . S
C1548 C1550 1.394 . S
C1548 H1564 0.931 . S
C1549 C1548 1.391 . S
C1549 C1553 1.376 . S
C1550 C1548 1.394 . S
C1550 C1551 1.369 . S
C1550 C1554 1.531 . S
C1551 C1550 1.369 . S
C1551 C1552 1.410 . S
C1551 C1559 1.503 . S
C1552 C1551 1.410 . S
C1552 C1553 1.392 . S
C1552 C1555 1.511 . S
C1553 C1549 1.376 . S
C1553 C1552 1.392 . S
C1553 H1565 0.929 . S
C1554 C1550 1.531 . S
C1554 H1566 0.960 . S
C1554 H1567 0.962 . S
C1554 H1568 0.960 . S
C1555 C1552 1.511 . S
C1555 H1569 0.961 . S
C1555 H1570 0.961 . S
C1555 H1571 0.961 . S
C1556 C1557 1.370 . S
C1556 C1558 1.363 . S
C1556 H1572 0.931 . S
C1557 C1556 1.370 . S
C1557 C1561 1.408 . S
C1558 C1556 1.363 . S
C1558 C1559 1.370 . S
C1558 C1562 1.524 . S
C1559 C1551 1.503 . S
C1559 C1558 1.370 . S
C1559 C1560 1.403 . S
C1560 C1559 1.403 . S
C1560 C1561 1.404 . S
C1560 C1563 1.539 . S
C1561 C1557 1.408 . S
C1561 C1560 1.404 . S
C1561 H1573 0.930 . S
C1562 C1558 1.524 . S
C1562 H1574 0.956 . S
C1562 H1575 0.961 . S
C1562 H1576 0.961 . S
C1563 C1560 1.539 . S
C1563 H1577 0.958 . S
C1563 H1578 0.961 . S
C1563 H1579 0.960 . S
H1564 C1548 0.931 . S
H1565 C1553 0.929 . S
H1566 C1554 0.960 . S
H1567 C1554 0.962 . S
H1568 C1554 0.960 . S
H1569 C1555 0.961 . S
H1570 C1555 0.961 . S
H1571 C1555 0.961 . S
H1572 C1556 0.931 . S
H1573 C1561 0.930 . S
H1574 C1562 0.956 . S
H1575 C1562 0.961 . S
H1576 C1562 0.961 . S
H1577 C1563 0.958 . S
H1578 C1563 0.961 . S
H1579 C1563 0.960 . S
C1580 C1581 1.391 . S
C1580 C1582 1.394 . S
C1580 H1596 0.931 . S
C1581 C1580 1.391 . S
C1581 C1585 1.376 . S
C1582 C1580 1.394 . S
C1582 C1583 1.369 . S
C1582 C1586 1.531 . S
C1583 C1582 1.369 . S
C1583 C1584 1.410 . S
C1583 C1591 1.503 . S
C1584 C1583 1.410 . S
C1584 C1585 1.392 . S
C1584 C1587 1.511 . S
C1585 C1581 1.376 . S
C1585 C1584 1.392 . S
C1585 H1597 0.929 . S
C1586 C1582 1.531 . S
C1586 H1598 0.960 . S
C1586 H1599 0.962 . S
C1586 H1600 0.960 . S
C1587 C1584 1.511 . S
C1587 H1601 0.961 . S
C1587 H1602 0.961 . S
C1587 H1603 0.961 . S
C1588 C1589 1.370 . S
C1588 C1590 1.363 . S
C1588 H1604 0.931 . S
C1589 C1588 1.370 . S
C1589 C1593 1.408 . S
C1590 C1588 1.363 . S
C1590 C1591 1.370 . S
C1590 C1594 1.524 . S
C1591 C1583 1.503 . S
C1591 C1590 1.370 . S
C1591 C1592 1.403 . S
C1592 C1591 1.403 . S
C1592 C1593 1.404 . S
C1592 C1595 1.539 . S
C1593 C1589 1.408 . S
C1593 C1592 1.404 . S
C1593 H1605 0.930 . S
C1594 C1590 1.524 . S
C1594 H1606 0.956 . S
C1594 H1607 0.961 . S
C1594 H1608 0.961 . S
C1595 C1592 1.539 . S
C1595 H1609 0.958 . S
C1595 H1610 0.961 . S
C1595 H1611 0.960 . S
H1596 C1580 0.931 . S
H1597 C1585 0.929 . S
H1598 C1586 0.960 . S
H1599 C1586 0.962 . S
H1600 C1586 0.960 . S
H1601 C1587 0.961 . S
H1602 C1587 0.961 . S
H1603 C1587 0.961 . S
H1604 C1588 0.931 . S
H1605 C1593 0.930 . S
H1606 C1594 0.956 . S
H1607 C1594 0.961 . S
H1608 C1594 0.961 . S
H1609 C1595 0.958 . S
H1610 C1595 0.961 . S
H1611 C1595 0.960 . S
C1612 C1613 1.391 . S
C1612 C1614 1.394 . S
C1612 H1628 0.931 . S
C1613 C1612 1.391 . S
C1613 C1617 1.376 . S
C1614 C1612 1.394 . S
C1614 C1615 1.369 . S
C1614 C1618 1.531 . S
C1615 C1614 1.369 . S
C1615 C1616 1.410 . S
C1615 C1623 1.503 . S
C1616 C1615 1.410 . S
C1616 C1617 1.392 . S
C1616 C1619 1.511 . S
C1617 C1613 1.376 . S
C1617 C1616 1.392 . S
C1617 H1629 0.929 . S
C1618 C1614 1.531 . S
C1618 H1630 0.960 . S
C1618 H1631 0.962 . S
C1618 H1632 0.960 . S
C1619 C1616 1.511 . S
C1619 H1633 0.961 . S
C1619 H1634 0.961 . S
C1619 H1635 0.961 . S
C1620 C1621 1.370 . S
C1620 C1622 1.363 . S
C1620 H1636 0.931 . S
C1621 C1620 1.370 . S
C1621 C1625 1.408 . S
C1622 C1620 1.363 . S
C1622 C1623 1.370 . S
C1622 C1626 1.524 . S
C1623 C1615 1.503 . S
C1623 C1622 1.370 . S
C1623 C1624 1.403 . S
C1624 C1623 1.403 . S
C1624 C1625 1.404 . S
C1624 C1627 1.539 . S
C1625 C1621 1.408 . S
C1625 C1624 1.404 . S
C1625 H1637 0.930 . S
C1626 C1622 1.524 . S
C1626 H1638 0.956 . S
C1626 H1639 0.961 . S
C1626 H1640 0.961 . S
C1627 C1624 1.539 . S
C1627 H1641 0.958 . S
C1627 H1642 0.961 . S
C1627 H1643 0.960 . S
H1628 C1612 0.931 . S
H1629 C1617 0.929 . S
H1630 C1618 0.960 . S
H1631 C1618 0.962 . S
H1632 C1618 0.960 . S
H1633 C1619 0.961 . S
H1634 C1619 0.961 . S
H1635 C1619 0.961 . S
H1636 C1620 0.931 . S
H1637 C1625 0.930 . S
H1638 C1626 0.956 . S
H1639 C1626 0.961 . S
H1640 C1626 0.961 . S
H1641 C1627 0.958 . S
H1642 C1627 0.961 . S
H1643 C1627 0.960 . S
C1644 C1645 1.391 . S
C1644 C1646 1.394 . S
C1644 H1660 0.931 . S
C1645 C1644 1.391 . S
C1645 C1649 1.376 . S
C1646 C1644 1.394 . S
C1646 C1647 1.369 . S
C1646 C1650 1.531 . S
C1647 C1646 1.369 . S
C1647 C1648 1.410 . S
C1647 C1655 1.503 . S
C1648 C1647 1.410 . S
C1648 C1649 1.392 . S
C1648 C1651 1.511 . S
C1649 C1645 1.376 . S
C1649 C1648 1.392 . S
C1649 H1661 0.929 . S
C1650 C1646 1.531 . S
C1650 H1662 0.960 . S
C1650 H1663 0.962 . S
C1650 H1664 0.960 . S
C1651 C1648 1.511 . S
C1651 H1665 0.961 . S
C1651 H1666 0.961 . S
C1651 H1667 0.961 . S
C1652 C1653 1.370 . S
C1652 C1654 1.363 . S
C1652 H1668 0.931 . S
C1653 C1652 1.370 . S
C1653 C1657 1.408 . S
C1654 C1652 1.363 . S
C1654 C1655 1.370 . S
C1654 C1658 1.524 . S
C1655 C1647 1.503 . S
C1655 C1654 1.370 . S
C1655 C1656 1.403 . S
C1656 C1655 1.403 . S
C1656 C1657 1.404 . S
C1656 C1659 1.539 . S
C1657 C1653 1.408 . S
C1657 C1656 1.404 . S
C1657 H1669 0.930 . S
C1658 C1654 1.524 . S
C1658 H1670 0.956 . S
C1658 H1671 0.961 . S
C1658 H1672 0.961 . S
C1659 C1656 1.539 . S
C1659 H1673 0.958 . S
C1659 H1674 0.961 . S
C1659 H1675 0.960 . S
H1660 C1644 0.931 . S
H1661 C1649 0.929 . S
H1662 C1650 0.960 . S
H1663 C1650 0.962 . S
H1664 C1650 0.960 . S
H1665 C1651 0.961 . S
H1666 C1651 0.961 . S
H1667 C1651 0.961 . S
H1668 C1652 0.931 . S
H1669 C1657 0.930 . S
H1670 C1658 0.956 . S
H1671 C1658 0.961 . S
H1672 C1658 0.961 . S
H1673 C1659 0.958 . S
H1674 C1659 0.961 . S
H1675 C1659 0.960 . S
C1676 C1677 1.391 . S
C1676 C1678 1.394 . S
C1676 H1692 0.931 . S
C1677 C1676 1.391 . S
C1677 C1681 1.376 . S
C1678 C1676 1.394 . S
C1678 C1679 1.369 . S
C1678 C1682 1.531 . S
C1679 C1678 1.369 . S
C1679 C1680 1.410 . S
C1679 C1687 1.503 . S
C1680 C1679 1.410 . S
C1680 C1681 1.392 . S
C1680 C1683 1.511 . S
C1681 C1677 1.376 . S
C1681 C1680 1.392 . S
C1681 H1693 0.929 . S
C1682 C1678 1.531 . S
C1682 H1694 0.960 . S
C1682 H1695 0.962 . S
C1682 H1696 0.960 . S
C1683 C1680 1.511 . S
C1683 H1697 0.961 . S
C1683 H1698 0.961 . S
C1683 H1699 0.961 . S
C1684 C1685 1.370 . S
C1684 C1686 1.363 . S
C1684 H1700 0.931 . S
C1685 C1684 1.370 . S
C1685 C1689 1.408 . S
C1686 C1684 1.363 . S
C1686 C1687 1.370 . S
C1686 C1690 1.524 . S
C1687 C1679 1.503 . S
C1687 C1686 1.370 . S
C1687 C1688 1.403 . S
C1688 C1687 1.403 . S
C1688 C1689 1.404 . S
C1688 C1691 1.539 . S
C1689 C1685 1.408 . S
C1689 C1688 1.404 . S
C1689 H1701 0.930 . S
C1690 C1686 1.524 . S
C1690 H1702 0.956 . S
C1690 H1703 0.961 . S
C1690 H1704 0.961 . S
C1691 C1688 1.539 . S
C1691 H1705 0.958 . S
C1691 H1706 0.961 . S
C1691 H1707 0.960 . S
H1692 C1676 0.931 . S
H1693 C1681 0.929 . S
H1694 C1682 0.960 . S
H1695 C1682 0.962 . S
H1696 C1682 0.960 . S
H1697 C1683 0.961 . S
H1698 C1683 0.961 . S
H1699 C1683 0.961 . S
H1700 C1684 0.931 . S
H1701 C1689 0.930 . S
H1702 C1690 0.956 . S
H1703 C1690 0.961 . S
H1704 C1690 0.961 . S
H1705 C1691 0.958 . S
H1706 C1691 0.961 . S
H1707 C1691 0.960 . S
C1708 C1709 1.391 . S
C1708 C1710 1.394 . S
C1708 H1724 0.931 . S
C1709 C1708 1.391 . S
C1709 C1713 1.376 . S
C1710 C1708 1.394 . S
C1710 C1711 1.369 . S
C1710 C1714 1.531 . S
C1711 C1710 1.369 . S
C1711 C1712 1.410 . S
C1711 C1719 1.503 . S
C1712 C1711 1.410 . S
C1712 C1713 1.392 . S
C1712 C1715 1.511 . S
C1713 C1709 1.376 . S
C1713 C1712 1.392 . S
C1713 H1725 0.929 . S
C1714 C1710 1.531 . S
C1714 H1726 0.960 . S
C1714 H1727 0.962 . S
C1714 H1728 0.960 . S
C1715 C1712 1.511 . S
C1715 H1729 0.961 . S
C1715 H1730 0.961 . S
C1715 H1731 0.961 . S
C1716 C1717 1.370 . S
C1716 C1718 1.363 . S
C1716 H1732 0.931 . S
C1717 C1716 1.370 . S
C1717 C1721 1.408 . S
C1718 C1716 1.363 . S
C1718 C1719 1.370 . S
C1718 C1722 1.524 . S
C1719 C1711 1.503 . S
C1719 C1718 1.370 . S
C1719 C1720 1.403 . S
C1720 C1719 1.403 . S
C1720 C1721 1.404 . S
C1720 C1723 1.539 . S
C1721 C1717 1.408 . S
C1721 C1720 1.404 . S
C1721 H1733 0.930 . S
C1722 C1718 1.524 . S
C1722 H1734 0.956 . S
C1722 H1735 0.961 . S
C1722 H1736 0.961 . S
C1723 C1720 1.539 . S
C1723 H1737 0.958 . S
C1723 H1738 0.961 . S
C1723 H1739 0.960 . S
H1724 C1708 0.931 . S
H1725 C1713 0.929 . S
H1726 C1714 0.960 . S
H1727 C1714 0.962 . S
H1728 C1714 0.960 . S
H1729 C1715 0.961 . S
H1730 C1715 0.961 . S
H1731 C1715 0.961 . S
H1732 C1716 0.931 . S
H1733 C1721 0.930 . S
H1734 C1722 0.956 . S
H1735 C1722 0.961 . S
H1736 C1722 0.961 . S
H1737 C1723 0.958 . S
H1738 C1723 0.961 . S
H1739 C1723 0.960 . S
C1740 C1741 1.391 . S
C1740 C1742 1.394 . S
C1740 H1756 0.931 . S
C1741 C1740 1.391 . S
C1741 C1745 1.376 . S
C1742 C1740 1.394 . S
C1742 C1743 1.369 . S
C1742 C1746 1.531 . S
C1743 C1742 1.369 . S
C1743 C1744 1.410 . S
C1743 C1751 1.503 . S
C1744 C1743 1.410 . S
C1744 C1745 1.392 . S
C1744 C1747 1.511 . S
C1745 C1741 1.376 . S
C1745 C1744 1.392 . S
C1745 H1757 0.929 . S
C1746 C1742 1.531 . S
C1746 H1758 0.960 . S
C1746 H1759 0.962 . S
C1746 H1760 0.960 . S
C1747 C1744 1.511 . S
C1747 H1761 0.961 . S
C1747 H1762 0.961 . S
C1747 H1763 0.961 . S
C1748 C1749 1.370 . S
C1748 C1750 1.363 . S
C1748 H1764 0.931 . S
C1749 C1748 1.370 . S
C1749 C1753 1.408 . S
C1750 C1748 1.363 . S
C1750 C1751 1.370 . S
C1750 C1754 1.524 . S
C1751 C1743 1.503 . S
C1751 C1750 1.370 . S
C1751 C1752 1.403 . S
C1752 C1751 1.403 . S
C1752 C1753 1.404 . S
C1752 C1755 1.539 . S
C1753 C1749 1.408 . S
C1753 C1752 1.404 . S
C1753 H1765 0.930 . S
C1754 C1750 1.524 . S
C1754 H1766 0.956 . S
C1754 H1767 0.961 . S
C1754 H1768 0.961 . S
C1755 C1752 1.539 . S
C1755 H1769 0.958 . S
C1755 H1770 0.961 . S
C1755 H1771 0.960 . S
H1756 C1740 0.931 . S
H1757 C1745 0.929 . S
H1758 C1746 0.960 . S
H1759 C1746 0.962 . S
H1760 C1746 0.960 . S
H1761 C1747 0.961 . S
H1762 C1747 0.961 . S
H1763 C1747 0.961 . S
H1764 C1748 0.931 . S
H1765 C1753 0.930 . S
H1766 C1754 0.956 . S
H1767 C1754 0.961 . S
H1768 C1754 0.961 . S
H1769 C1755 0.958 . S
H1770 C1755 0.961 . S
H1771 C1755 0.960 . S
C1772 C1773 1.391 . S
C1772 C1774 1.394 . S
C1772 H1788 0.931 . S
C1773 C1772 1.391 . S
C1773 C1777 1.376 . S
C1774 C1772 1.394 . S
C1774 C1775 1.369 . S
C1774 C1778 1.531 . S
C1775 C1774 1.369 . S
C1775 C1776 1.410 . S
C1775 C1783 1.503 . S
C1776 C1775 1.410 . S
C1776 C1777 1.392 . S
C1776 C1779 1.511 . S
C1777 C1773 1.376 . S
C1777 C1776 1.392 . S
C1777 H1789 0.929 . S
C1778 C1774 1.531 . S
C1778 H1790 0.960 . S
C1778 H1791 0.962 . S
C1778 H1792 0.960 . S
C1779 C1776 1.511 . S
C1779 H1793 0.961 . S
C1779 H1794 0.961 . S
C1779 H1795 0.961 . S
C1780 C1781 1.370 . S
C1780 C1782 1.363 . S
C1780 H1796 0.931 . S
C1781 C1780 1.370 . S
C1781 C1785 1.408 . S
C1782 C1780 1.363 . S
C1782 C1783 1.370 . S
C1782 C1786 1.524 . S
C1783 C1775 1.503 . S
C1783 C1782 1.370 . S
C1783 C1784 1.403 . S
C1784 C1783 1.403 . S
C1784 C1785 1.404 . S
C1784 C1787 1.539 . S
C1785 C1781 1.408 . S
C1785 C1784 1.404 . S
C1785 H1797 0.930 . S
C1786 C1782 1.524 . S
C1786 H1798 0.956 . S
C1786 H1799 0.961 . S
C1786 H1800 0.961 . S
C1787 C1784 1.539 . S
C1787 H1801 0.958 . S
C1787 H1802 0.961 . S
C1787 H1803 0.960 . S
H1788 C1772 0.931 . S
H1789 C1777 0.929 . S
H1790 C1778 0.960 . S
H1791 C1778 0.962 . S
H1792 C1778 0.960 . S
H1793 C1779 0.961 . S
H1794 C1779 0.961 . S
H1795 C1779 0.961 . S
H1796 C1780 0.931 . S
H1797 C1785 0.930 . S
H1798 C1786 0.956 . S
H1799 C1786 0.961 . S
H1800 C1786 0.961 . S
H1801 C1787 0.958 . S
H1802 C1787 0.961 . S
H1803 C1787 0.960 . S
C1804 C1805 1.391 . S
C1804 C1806 1.394 . S
C1804 H1820 0.931 . S
C1805 C1804 1.391 . S
C1805 C1809 1.376 . S
C1806 C1804 1.394 . S
C1806 C1807 1.369 . S
C1806 C1810 1.531 . S
C1807 C1806 1.369 . S
C1807 C1808 1.410 . S
C1807 C1815 1.503 . S
C1808 C1807 1.410 . S
C1808 C1809 1.392 . S
C1808 C1811 1.511 . S
C1809 C1805 1.376 . S
C1809 C1808 1.392 . S
C1809 H1821 0.929 . S
C1810 C1806 1.531 . S
C1810 H1822 0.960 . S
C1810 H1823 0.962 . S
C1810 H1824 0.960 . S
C1811 C1808 1.511 . S
C1811 H1825 0.961 . S
C1811 H1826 0.961 . S
C1811 H1827 0.961 . S
C1812 C1813 1.370 . S
C1812 C1814 1.363 . S
C1812 H1828 0.931 . S
C1813 C1812 1.370 . S
C1813 C1817 1.408 . S
C1814 C1812 1.363 . S
C1814 C1815 1.370 . S
C1814 C1818 1.524 . S
C1815 C1807 1.503 . S
C1815 C1814 1.370 . S
C1815 C1816 1.403 . S
C1816 C1815 1.403 . S
C1816 C1817 1.404 . S
C1816 C1819 1.539 . S
C1817 C1813 1.408 . S
C1817 C1816 1.404 . S
C1817 H1829 0.930 . S
C1818 C1814 1.524 . S
C1818 H1830 0.956 . S
C1818 H1831 0.961 . S
C1818 H1832 0.961 . S
C1819 C1816 1.539 . S
C1819 H1833 0.958 . S
C1819 H1834 0.961 . S
C1819 H1835 0.960 . S
H1820 C1804 0.931 . S
H1821 C1809 0.929 . S
H1822 C1810 0.960 . S
H1823 C1810 0.962 . S
H1824 C1810 0.960 . S
H1825 C1811 0.961 . S
H1826 C1811 0.961 . S
H1827 C1811 0.961 . S
H1828 C1812 0.931 . S
H1829 C1817 0.930 . S
H1830 C1818 0.956 . S
H1831 C1818 0.961 . S
H1832 C1818 0.961 . S
H1833 C1819 0.958 . S
H1834 C1819 0.961 . S
H1835 C1819 0.960 . S
C1836 C1837 1.391 . S
C1836 C1838 1.394 . S
C1836 H1852 0.931 . S
C1837 C1836 1.391 . S
C1837 C1841 1.376 . S
C1838 C1836 1.394 . S
C1838 C1839 1.369 . S
C1838 C1842 1.531 . S
C1839 C1838 1.369 . S
C1839 C1840 1.410 . S
C1839 C1847 1.503 . S
C1840 C1839 1.410 . S
C1840 C1841 1.392 . S
C1840 C1843 1.511 . S
C1841 C1837 1.376 . S
C1841 C1840 1.392 . S
C1841 H1853 0.929 . S
C1842 C1838 1.531 . S
C1842 H1854 0.960 . S
C1842 H1855 0.962 . S
C1842 H1856 0.960 . S
C1843 C1840 1.511 . S
C1843 H1857 0.961 . S
C1843 H1858 0.961 . S
C1843 H1859 0.961 . S
C1844 C1845 1.370 . S
C1844 C1846 1.363 . S
C1844 H1860 0.931 . S
C1845 C1844 1.370 . S
C1845 C1849 1.408 . S
C1846 C1844 1.363 . S
C1846 C1847 1.370 . S
C1846 C1850 1.524 . S
C1847 C1839 1.503 . S
C1847 C1846 1.370 . S
C1847 C1848 1.403 . S
C1848 C1847 1.403 . S
C1848 C1849 1.404 . S
C1848 C1851 1.539 . S
C1849 C1845 1.408 . S
C1849 C1848 1.404 . S
C1849 H1861 0.930 . S
C1850 C1846 1.524 . S
C1850 H1862 0.956 . S
C1850 H1863 0.961 . S
C1850 H1864 0.961 . S
C1851 C1848 1.539 . S
C1851 H1865 0.958 . S
C1851 H1866 0.961 . S
C1851 H1867 0.960 . S
H1852 C1836 0.931 . S
H1853 C1841 0.929 . S
H1854 C1842 0.960 . S
H1855 C1842 0.962 . S
H1856 C1842 0.960 . S
H1857 C1843 0.961 . S
H1858 C1843 0.961 . S
H1859 C1843 0.961 . S
H1860 C1844 0.931 . S
H1861 C1849 0.930 . S
H1862 C1850 0.956 . S
H1863 C1850 0.961 . S
H1864 C1850 0.961 . S
H1865 C1851 0.958 . S
H1866 C1851 0.961 . S
H1867 C1851 0.960 . S
C1868 C1869 1.391 . S
C1868 C1870 1.394 . S
C1868 H1884 0.931 . S
C1869 C1868 1.391 . S
C1869 C1873 1.376 . S
C1870 C1868 1.394 . S
C1870 C1871 1.369 . S
C1870 C1874 1.531 . S
C1871 C1870 1.369 . S
C1871 C1872 1.410 . S
C1871 C1879 1.503 . S
C1872 C1871 1.410 . S
C1872 C1873 1.392 . S
C1872 C1875 1.511 . S
C1873 C1869 1.376 . S
C1873 C1872 1.392 . S
C1873 H1885 0.929 . S
C1874 C1870 1.531 . S
C1874 H1886 0.960 . S
C1874 H1887 0.962 . S
C1874 H1888 0.960 . S
C1875 C1872 1.511 . S
C1875 H1889 0.961 . S
C1875 H1890 0.961 . S
C1875 H1891 0.961 . S
C1876 C1877 1.370 . S
C1876 C1878 1.363 . S
C1876 H1892 0.931 . S
C1877 C1876 1.370 . S
C1877 C1881 1.408 . S
C1878 C1876 1.363 . S
C1878 C1879 1.370 . S
C1878 C1882 1.524 . S
C1879 C1871 1.503 . S
C1879 C1878 1.370 . S
C1879 C1880 1.403 . S
C1880 C1879 1.403 . S
C1880 C1881 1.404 . S
C1880 C1883 1.539 . S
C1881 C1877 1.408 . S
C1881 C1880 1.404 . S
C1881 H1893 0.930 . S
C1882 C1878 1.524 . S
C1882 H1894 0.956 . S
C1882 H1895 0.961 . S
C1882 H1896 0.961 . S
C1883 C1880 1.539 . S
C1883 H1897 0.958 . S
C1883 H1898 0.961 . S
C1883 H1899 0.960 . S
H1884 C1868 0.931 . S
H1885 C1873 0.929 . S
H1886 C1874 0.960 . S
H1887 C1874 0.962 . S
H1888 C1874 0.960 . S
H1889 C1875 0.961 . S
H1890 C1875 0.961 . S
H1891 C1875 0.961 . S
H1892 C1876 0.931 . S
H1893 C1881 0.930 . S
H1894 C1882 0.956 . S
H1895 C1882 0.961 . S
H1896 C1882 0.961 . S
H1897 C1883 0.958 . S
H1898 C1883 0.961 . S
H1899 C1883 0.960 . S
C1900 C1901 1.391 . S
C1900 C1902 1.394 . S
C1900 H1916 0.931 . S
C1901 C1900 1.391 . S
C1901 C1905 1.376 . S
C1902 C1900 1.394 . S
C1902 C1903 1.369 . S
C1902 C1906 1.531 . S
C1903 C1902 1.369 . S
C1903 C1904 1.410 . S
C1903 C1911 1.503 . S
C1904 C1903 1.410 . S
C1904 C1905 1.392 . S
C1904 C1907 1.511 . S
C1905 C1901 1.376 . S
C1905 C1904 1.392 . S
C1905 H1917 0.929 . S
C1906 C1902 1.531 . S
C1906 H1918 0.960 . S
C1906 H1919 0.962 . S
C1906 H1920 0.960 . S
C1907 C1904 1.511 . S
C1907 H1921 0.961 . S
C1907 H1922 0.961 . S
C1907 H1923 0.961 . S
C1908 C1909 1.370 . S
C1908 C1910 1.363 . S
C1908 H1924 0.931 . S
C1909 C1908 1.370 . S
C1909 C1913 1.408 . S
C1910 C1908 1.363 . S
C1910 C1911 1.370 . S
C1910 C1914 1.524 . S
C1911 C1903 1.503 . S
C1911 C1910 1.370 . S
C1911 C1912 1.403 . S
C1912 C1911 1.403 . S
C1912 C1913 1.404 . S
C1912 C1915 1.539 . S
C1913 C1909 1.408 . S
C1913 C1912 1.404 . S
C1913 H1925 0.930 . S
C1914 C1910 1.524 . S
C1914 H1926 0.956 . S
C1914 H1927 0.961 . S
C1914 H1928 0.961 . S
C1915 C1912 1.539 . S
C1915 H1929 0.958 . S
C1915 H1930 0.961 . S
C1915 H1931 0.960 . S
H1916 C1900 0.931 . S
H1917 C1905 0.929 . S
H1918 C1906 0.960 . S
H1919 C1906 0.962 . S
H1920 C1906 0.960 . S
H1921 C1907 0.961 . S
H1922 C1907 0.961 . S
H1923 C1907 0.961 . S
H1924 C1908 0.931 . S
H1925 C1913 0.930 . S
H1926 C1914 0.956 . S
H1927 C1914 0.961 . S
H1928 C1914 0.961 . S
H1929 C1915 0.958 . S
H1930 C1915 0.961 . S
H1931 C1915 0.960 . S
C1932 C1933 1.391 . S
C1932 C1934 1.394 . S
C1932 H1948 0.931 . S
C1933 C1932 1.391 . S
C1933 C1937 1.376 . S
C1934 C1932 1.394 . S
C1934 C1935 1.369 . S
C1934 C1938 1.531 . S
C1935 C1934 1.369 . S
C1935 C1936 1.410 . S
C1935 C1943 1.503 . S
C1936 C1935 1.410 . S
C1936 C1937 1.392 . S
C1936 C1939 1.511 . S
C1937 C1933 1.376 . S
C1937 C1936 1.392 . S
C1937 H1949 0.929 . S
C1938 C1934 1.531 . S
C1938 H1950 0.960 . S
C1938 H1951 0.962 . S
C1938 H1952 0.960 . S
C1939 C1936 1.511 . S
C1939 H1953 0.961 . S
C1939 H1954 0.961 . S
C1939 H1955 0.961 . S
C1940 C1941 1.370 . S
C1940 C1942 1.363 . S
C1940 H1956 0.931 . S
C1941 C1940 1.370 . S
C1941 C1945 1.408 . S
C1942 C1940 1.363 . S
C1942 C1943 1.370 . S
C1942 C1946 1.524 . S
C1943 C1935 1.503 . S
C1943 C1942 1.370 . S
C1943 C1944 1.403 . S
C1944 C1943 1.403 . S
C1944 C1945 1.404 . S
C1944 C1947 1.539 . S
C1945 C1941 1.408 . S
C1945 C1944 1.404 . S
C1945 H1957 0.930 . S
C1946 C1942 1.524 . S
C1946 H1958 0.956 . S
C1946 H1959 0.961 . S
C1946 H1960 0.961 . S
C1947 C1944 1.539 . S
C1947 H1961 0.958 . S
C1947 H1962 0.961 . S
C1947 H1963 0.960 . S
H1948 C1932 0.931 . S
H1949 C1937 0.929 . S
H1950 C1938 0.960 . S
H1951 C1938 0.962 . S
H1952 C1938 0.960 . S
H1953 C1939 0.961 . S
H1954 C1939 0.961 . S
H1955 C1939 0.961 . S
H1956 C1940 0.931 . S
H1957 C1945 0.930 . S
H1958 C1946 0.956 . S
H1959 C1946 0.961 . S
H1960 C1946 0.961 . S
H1961 C1947 0.958 . S
H1962 C1947 0.961 . S
H1963 C1947 0.960 . S
C1964 C1965 1.391 . S
C1964 C1966 1.394 . S
C1964 H1980 0.931 . S
C1965 C1964 1.391 . S
C1965 C1969 1.376 . S
C1966 C1964 1.394 . S
C1966 C1967 1.369 . S
C1966 C1970 1.531 . S
C1967 C1966 1.369 . S
C1967 C1968 1.410 . S
C1967 C1975 1.503 . S
C1968 C1967 1.410 . S
C1968 C1969 1.392 . S
C1968 C1971 1.511 . S
C1969 C1965 1.376 . S
C1969 C1968 1.392 . S
C1969 H1981 0.929 . S
C1970 C1966 1.531 . S
C1970 H1982 0.960 . S
C1970 H1983 0.962 . S
C1970 H1984 0.960 . S
C1971 C1968 1.511 . S
C1971 H1985 0.961 . S
C1971 H1986 0.961 . S
C1971 H1987 0.961 . S
C1972 C1973 1.370 . S
C1972 C1974 1.363 . S
C1972 H1988 0.931 . S
C1973 C1972 1.370 . S
C1973 C1977 1.408 . S
C1974 C1972 1.363 . S
C1974 C1975 1.370 . S
C1974 C1978 1.524 . S
C1975 C1967 1.503 . S
C1975 C1974 1.370 . S
C1975 C1976 1.403 . S
C1976 C1975 1.403 . S
C1976 C1977 1.404 . S
C1976 C1979 1.539 . S
C1977 C1973 1.408 . S
C1977 C1976 1.404 . S
C1977 H1989 0.930 . S
C1978 C1974 1.524 . S
C1978 H1990 0.956 . S
C1978 H1991 0.961 . S
C1978 H1992 0.961 . S
C1979 C1976 1.539 . S
C1979 H1993 0.958 . S
C1979 H1994 0.961 . S
C1979 H1995 0.960 . S
H1980 C1964 0.931 . S
H1981 C1969 0.929 . S
H1982 C1970 0.960 . S
H1983 C1970 0.962 . S
H1984 C1970 0.960 . S
H1985 C1971 0.961 . S
H1986 C1971 0.961 . S
H1987 C1971 0.961 . S
H1988 C1972 0.931 . S
H1989 C1977 0.930 . S
H1990 C1978 0.956 . S
H1991 C1978 0.961 . S
H1992 C1978 0.961 . S
H1993 C1979 0.958 . S
H1994 C1979 0.961 . S
H1995 C1979 0.960 . S
C1996 C1997 1.391 . S
C1996 C1998 1.394 . S
C1996 H2012 0.931 . S
C1997 C1996 1.391 . S
C1997 C2001 1.376 . S
C1998 C1996 1.394 . S
C1998 C1999 1.369 . S
C1998 C2002 1.531 . S
C1999 C1998 1.369 . S
C1999 C2000 1.410 . S
C1999 C2007 1.503 . S
C2000 C1999 1.410 . S
C2000 C2001 1.392 . S
C2000 C2003 1.511 . S
C2001 C1997 1.376 . S
C2001 C2000 1.392 . S
C2001 H2013 0.929 . S
C2002 C1998 1.531 . S
C2002 H2014 0.960 . S
C2002 H2015 0.962 . S
C2002 H2016 0.960 . S
C2003 C2000 1.511 . S
C2003 H2017 0.961 . S
C2003 H2018 0.961 . S
C2003 H2019 0.961 . S
C2004 C2005 1.370 . S
C2004 C2006 1.363 . S
C2004 H2020 0.931 . S
C2005 C2004 1.370 . S
C2005 C2009 1.408 . S
C2006 C2004 1.363 . S
C2006 C2007 1.370 . S
C2006 C2010 1.524 . S
C2007 C1999 1.503 . S
C2007 C2006 1.370 . S
C2007 C2008 1.403 . S
C2008 C2007 1.403 . S
C2008 C2009 1.404 . S
C2008 C2011 1.539 . S
C2009 C2005 1.408 . S
C2009 C2008 1.404 . S
C2009 H2021 0.930 . S
C2010 C2006 1.524 . S
C2010 H2022 0.956 . S
C2010 H2023 0.961 . S
C2010 H2024 0.961 . S
C2011 C2008 1.539 . S
C2011 H2025 0.958 . S
C2011 H2026 0.961 . S
C2011 H2027 0.960 . S
H2012 C1996 0.931 . S
H2013 C2001 0.929 . S
H2014 C2002 0.960 . S
H2015 C2002 0.962 . S
H2016 C2002 0.960 . S
H2017 C2003 0.961 . S
H2018 C2003 0.961 . S
H2019 C2003 0.961 . S
H2020 C2004 0.931 . S
H2021 C2009 0.930 . S
H2022 C2010 0.956 . S
H2023 C2010 0.961 . S
H2024 C2010 0.961 . S
H2025 C2011 0.958 . S
H2026 C2011 0.961 . S
H2027 C2011 0.960 . S
C2028 C2029 1.391 . S
C2028 C2030 1.394 . S
C2028 H2044 0.931 . S
C2029 C2028 1.391 . S
C2029 C2033 1.376 . S
C2030 C2028 1.394 . S
C2030 C2031 1.369 . S
C2030 C2034 1.531 . S
C2031 C2030 1.369 . S
C2031 C2032 1.410 . S
C2031 C2039 1.503 . S
C2032 C2031 1.410 . S
C2032 C2033 1.392 . S
C2032 C2035 1.511 . S
C2033 C2029 1.376 . S
C2033 C2032 1.392 . S
C2033 H2045 0.929 . S
C2034 C2030 1.531 . S
C2034 H2046 0.960 . S
C2034 H2047 0.962 . S
C2034 H2048 0.960 . S
C2035 C2032 1.511 . S
C2035 H2049 0.961 . S
C2035 H2050 0.961 . S
C2035 H2051 0.961 . S
C2036 C2037 1.370 . S
C2036 C2038 1.363 . S
C2036 H2052 0.931 . S
C2037 C2036 1.370 . S
C2037 C2041 1.408 . S
C2038 C2036 1.363 . S
C2038 C2039 1.370 . S
C2038 C2042 1.524 . S
C2039 C2031 1.503 . S
C2039 C2038 1.370 . S
C2039 C2040 1.403 . S
C2040 C2039 1.403 . S
C2040 C2041 1.404 . S
C2040 C2043 1.539 . S
C2041 C2037 1.408 . S
C2041 C2040 1.404 . S
C2041 H2053 0.930 . S
C2042 C2038 1.524 . S
C2042 H2054 0.956 . S
C2042 H2055 0.961 . S
C2042 H2056 0.961 . S
C2043 C2040 1.539 . S
C2043 H2057 0.958 . S
C2043 H2058 0.961 . S
C2043 H2059 0.960 . S
H2044 C2028 0.931 . S
H2045 C2033 0.929 . S
H2046 C2034 0.960 . S
H2047 C2034 0.962 . S
H2048 C2034 0.960 . S
H2049 C2035 0.961 . S
H2050 C2035 0.961 . S
H2051 C2035 0.961 . S
H2052 C2036 0.931 . S
H2053 C2041 0.930 . S
H2054 C2042 0.956 . S
H2055 C2042 0.961 . S
H2056 C2042 0.961 . S
H2057 C2043 0.958 . S
H2058 C2043 0.961 . S
H2059 C2043 0.960 . S
C2060 C2061 1.391 . S
C2060 C2062 1.394 . S
C2060 H2076 0.931 . S
C2061 C2060 1.391 . S
C2061 C2065 1.376 . S
C2062 C2060 1.394 . S
C2062 C2063 1.369 . S
C2062 C2066 1.531 . S
C2063 C2062 1.369 . S
C2063 C2064 1.410 . S
C2063 C2071 1.503 . S
C2064 C2063 1.410 . S
C2064 C2065 1.392 . S
C2064 C2067 1.511 . S
C2065 C2061 1.376 . S
C2065 C2064 1.392 . S
C2065 H2077 0.929 . S
C2066 C2062 1.531 . S
C2066 H2078 0.960 . S
C2066 H2079 0.962 . S
C2066 H2080 0.960 . S
C2067 C2064 1.511 . S
C2067 H2081 0.961 . S
C2067 H2082 0.961 . S
C2067 H2083 0.961 . S
C2068 C2069 1.370 . S
C2068 C2070 1.363 . S
C2068 H2084 0.931 . S
C2069 C2068 1.370 . S
C2069 C2073 1.408 . S
C2070 C2068 1.363 . S
C2070 C2071 1.370 . S
C2070 C2074 1.524 . S
C2071 C2063 1.503 . S
C2071 C2070 1.370 . S
C2071 C2072 1.403 . S
C2072 C2071 1.403 . S
C2072 C2073 1.404 . S
C2072 C2075 1.539 . S
C2073 C2069 1.408 . S
C2073 C2072 1.404 . S
C2073 H2085 0.930 . S
C2074 C2070 1.524 . S
C2074 H2086 0.956 . S
C2074 H2087 0.961 . S
C2074 H2088 0.961 . S
C2075 C2072 1.539 . S
C2075 H2089 0.958 . S
C2075 H2090 0.961 . S
C2075 H2091 0.960 . S
H2076 C2060 0.931 . S
H2077 C2065 0.929 . S
H2078 C2066 0.960 . S
H2079 C2066 0.962 . S
H2080 C2066 0.960 . S
H2081 C2067 0.961 . S
H2082 C2067 0.961 . S
H2083 C2067 0.961 . S
H2084 C2068 0.931 . S
H2085 C2073 0.930 . S
H2086 C2074 0.956 . S
H2087 C2074 0.961 . S
H2088 C2074 0.961 . S
H2089 C2075 0.958 . S
H2090 C2075 0.961 . S
H2091 C2075 0.960 . S
C2092 C2093 1.391 . S
C2092 C2094 1.394 . S
C2092 H2108 0.931 . S
C2093 C2092 1.391 . S
C2093 C2097 1.376 . S
C2094 C2092 1.394 . S
C2094 C2095 1.369 . S
C2094 C2098 1.531 . S
C2095 C2094 1.369 . S
C2095 C2096 1.410 . S
C2095 C2103 1.503 . S
C2096 C2095 1.410 . S
C2096 C2097 1.392 . S
C2096 C2099 1.511 . S
C2097 C2093 1.376 . S
C2097 C2096 1.392 . S
C2097 H2109 0.929 . S
C2098 C2094 1.531 . S
C2098 H2110 0.960 . S
C2098 H2111 0.962 . S
C2098 H2112 0.960 . S
C2099 C2096 1.511 . S
C2099 H2113 0.961 . S
C2099 H2114 0.961 . S
C2099 H2115 0.961 . S
C2100 C2101 1.370 . S
C2100 C2102 1.363 . S
C2100 H2116 0.931 . S
C2101 C2100 1.370 . S
C2101 C2105 1.408 . S
C2102 C2100 1.363 . S
C2102 C2103 1.370 . S
C2102 C2106 1.524 . S
C2103 C2095 1.503 . S
C2103 C2102 1.370 . S
C2103 C2104 1.403 . S
C2104 C2103 1.403 . S
C2104 C2105 1.404 . S
C2104 C2107 1.539 . S
C2105 C2101 1.408 . S
C2105 C2104 1.404 . S
C2105 H2117 0.930 . S
C2106 C2102 1.524 . S
C2106 H2118 0.956 . S
C2106 H2119 0.961 . S
C2106 H2120 0.961 . S
C2107 C2104 1.539 . S
C2107 H2121 0.958 . S
C2107 H2122 0.961 . S
C2107 H2123 0.960 . S
H2108 C2092 0.931 . S
H2109 C2097 0.929 . S
H2110 C2098 0.960 . S
H2111 C2098 0.962 . S
H2112 C2098 0.960 . S
H2113 C2099 0.961 . S
H2114 C2099 0.961 . S
H2115 C2099 0.961 . S
H2116 C2100 0.931 . S
H2117 C2105 0.930 . S
H2118 C2106 0.956 . S
H2119 C2106 0.961 . S
H2120 C2106 0.961 . S
H2121 C2107 0.958 . S
H2122 C2107 0.961 . S
H2123 C2107 0.960 . S
C2124 C2125 1.391 . S
C2124 C2126 1.394 . S
C2124 H2140 0.931 . S
C2125 C2124 1.391 . S
C2125 C2129 1.376 . S
C2126 C2124 1.394 . S
C2126 C2127 1.369 . S
C2126 C2130 1.531 . S
C2127 C2126 1.369 . S
C2127 C2128 1.410 . S
C2127 C2135 1.503 . S
C2128 C2127 1.410 . S
C2128 C2129 1.392 . S
C2128 C2131 1.511 . S
C2129 C2125 1.376 . S
C2129 C2128 1.392 . S
C2129 H2141 0.929 . S
C2130 C2126 1.531 . S
C2130 H2142 0.960 . S
C2130 H2143 0.962 . S
C2130 H2144 0.960 . S
C2131 C2128 1.511 . S
C2131 H2145 0.961 1_554 S
C2131 H2146 0.961 . S
C2131 H2147 0.961 . S
C2132 C2133 1.370 . S
C2132 C2134 1.363 . S
C2132 H2148 0.931 . S
C2133 C2132 1.370 . S
C2133 C2137 1.408 . S
C2134 C2132 1.363 . S
C2134 C2135 1.370 . S
C2134 C2138 1.524 . S
C2135 C2127 1.503 . S
C2135 C2134 1.370 . S
C2135 C2136 1.403 . S
C2136 C2135 1.403 . S
C2136 C2137 1.404 . S
C2136 C2139 1.539 . S
C2137 C2133 1.408 . S
C2137 C2136 1.404 . S
C2137 H2149 0.930 . S
C2138 C2134 1.524 . S
C2138 H2150 0.956 . S
C2138 H2151 0.961 . S
C2138 H2152 0.961 . S
C2139 C2136 1.539 . S
C2139 H2153 0.958 . S
C2139 H2154 0.961 . S
C2139 H2155 0.960 . S
H2140 C2124 0.931 . S
H2141 C2129 0.929 . S
H2142 C2130 0.960 . S
H2143 C2130 0.962 . S
H2144 C2130 0.960 . S
H2145 C2131 0.961 1_556 S
H2146 C2131 0.961 . S
H2147 C2131 0.961 . S
H2148 C2132 0.931 . S
H2149 C2137 0.930 . S
H2150 C2138 0.956 . S
H2151 C2138 0.961 . S
H2152 C2138 0.961 . S
H2153 C2139 0.958 . S
H2154 C2139 0.961 . S
H2155 C2139 0.960 . S
C2156 C2157 1.391 . S
C2156 C2158 1.394 . S
C2156 H2172 0.931 . S
C2157 C2156 1.391 . S
C2157 C2161 1.376 . S
C2158 C2156 1.394 . S
C2158 C2159 1.369 . S
C2158 C2162 1.531 . S
C2159 C2158 1.369 . S
C2159 C2160 1.410 . S
C2159 C2167 1.503 . S
C2160 C2159 1.410 . S
C2160 C2161 1.392 . S
C2160 C2163 1.511 . S
C2161 C2157 1.376 . S
C2161 C2160 1.392 . S
C2161 H2173 0.929 . S
C2162 C2158 1.531 . S
C2162 H2174 0.960 . S
C2162 H2175 0.962 . S
C2162 H2176 0.960 . S
C2163 C2160 1.511 . S
C2163 H2177 0.961 . S
C2163 H2178 0.961 . S
C2163 H2179 0.961 . S
C2164 C2165 1.370 . S
C2164 C2166 1.363 . S
C2164 H2180 0.931 . S
C2165 C2164 1.370 . S
C2165 C2169 1.408 . S
C2166 C2164 1.363 . S
C2166 C2167 1.370 . S
C2166 C2170 1.524 . S
C2167 C2159 1.503 . S
C2167 C2166 1.370 . S
C2167 C2168 1.403 . S
C2168 C2167 1.403 . S
C2168 C2169 1.404 . S
C2168 C2171 1.539 . S
C2169 C2165 1.408 . S
C2169 C2168 1.404 . S
C2169 H2181 0.930 . S
C2170 C2166 1.524 . S
C2170 H2182 0.956 . S
C2170 H2183 0.961 . S
C2170 H2184 0.961 . S
C2171 C2168 1.539 . S
C2171 H2185 0.958 . S
C2171 H2186 0.961 . S
C2171 H2187 0.960 . S
H2172 C2156 0.931 . S
H2173 C2161 0.929 . S
H2174 C2162 0.960 . S
H2175 C2162 0.962 . S
H2176 C2162 0.960 . S
H2177 C2163 0.961 . S
H2178 C2163 0.961 . S
H2179 C2163 0.961 . S
H2180 C2164 0.931 . S
H2181 C2169 0.930 . S
H2182 C2170 0.956 . S
H2183 C2170 0.961 . S
H2184 C2170 0.961 . S
H2185 C2171 0.958 . S
H2186 C2171 0.961 . S
H2187 C2171 0.960 . S
C2188 C2189 1.391 . S
C2188 C2190 1.394 . S
C2188 H2204 0.931 . S
C2189 C2188 1.391 . S
C2189 C2193 1.376 . S
C2190 C2188 1.394 . S
C2190 C2191 1.369 . S
C2190 C2194 1.531 . S
C2191 C2190 1.369 . S
C2191 C2192 1.410 . S
C2191 C2199 1.503 . S
C2192 C2191 1.410 . S
C2192 C2193 1.392 . S
C2192 C2195 1.511 . S
C2193 C2189 1.376 . S
C2193 C2192 1.392 . S
C2193 H2205 0.929 . S
C2194 C2190 1.531 . S
C2194 H2206 0.960 . S
C2194 H2207 0.962 . S
C2194 H2208 0.960 . S
C2195 C2192 1.511 . S
C2195 H2209 0.961 . S
C2195 H2210 0.961 . S
C2195 H2211 0.961 . S
C2196 C2197 1.370 . S
C2196 C2198 1.363 . S
C2196 H2212 0.931 . S
C2197 C2196 1.370 . S
C2197 C2201 1.408 . S
C2198 C2196 1.363 . S
C2198 C2199 1.370 . S
C2198 C2202 1.524 . S
C2199 C2191 1.503 . S
C2199 C2198 1.370 . S
C2199 C2200 1.403 . S
C2200 C2199 1.403 . S
C2200 C2201 1.404 . S
C2200 C2203 1.539 . S
C2201 C2197 1.408 . S
C2201 C2200 1.404 . S
C2201 H2213 0.930 . S
C2202 C2198 1.524 . S
C2202 H2214 0.956 . S
C2202 H2215 0.961 . S
C2202 H2216 0.961 . S
C2203 C2200 1.539 . S
C2203 H2217 0.958 . S
C2203 H2218 0.961 . S
C2203 H2219 0.960 . S
H2204 C2188 0.931 . S
H2205 C2193 0.929 . S
H2206 C2194 0.960 . S
H2207 C2194 0.962 . S
H2208 C2194 0.960 . S
H2209 C2195 0.961 . S
H2210 C2195 0.961 . S
H2211 C2195 0.961 . S
H2212 C2196 0.931 . S
H2213 C2201 0.930 . S
H2214 C2202 0.956 . S
H2215 C2202 0.961 . S
H2216 C2202 0.961 . S
H2217 C2203 0.958 . S
H2218 C2203 0.961 . S
H2219 C2203 0.960 . S
C2220 C2221 1.391 . S
C2220 C2222 1.394 . S
C2220 H2236 0.931 1_556 S
C2221 C2220 1.391 . S
C2221 C2225 1.376 . S
C2222 C2220 1.394 . S
C2222 C2223 1.369 . S
C2222 C2226 1.531 . S
C2223 C2222 1.369 . S
C2223 C2224 1.410 . S
C2223 C2231 1.503 . S
C2224 C2223 1.410 . S
C2224 C2225 1.392 . S
C2224 C2227 1.511 . S
C2225 C2221 1.376 . S
C2225 C2224 1.392 . S
C2225 H2237 0.929 . S
C2226 C2222 1.531 . S
C2226 H2238 0.960 . S
C2226 H2239 0.962 . S
C2226 H2240 0.960 1_556 S
C2227 C2224 1.511 . S
C2227 H2241 0.961 . S
C2227 H2242 0.961 . S
C2227 H2243 0.961 . S
C2228 C2229 1.370 . S
C2228 C2230 1.363 . S
C2228 H2244 0.931 . S
C2229 C2228 1.370 . S
C2229 C2233 1.408 . S
C2230 C2228 1.363 . S
C2230 C2231 1.370 . S
C2230 C2234 1.524 . S
C2231 C2223 1.503 . S
C2231 C2230 1.370 . S
C2231 C2232 1.403 . S
C2232 C2231 1.403 . S
C2232 C2233 1.404 . S
C2232 C2235 1.539 . S
C2233 C2229 1.408 . S
C2233 C2232 1.404 . S
C2233 H2245 0.930 . S
C2234 C2230 1.524 . S
C2234 H2246 0.956 . S
C2234 H2247 0.961 . S
C2234 H2248 0.961 . S
C2235 C2232 1.539 . S
C2235 H2249 0.958 1_556 S
C2235 H2250 0.961 . S
C2235 H2251 0.960 . S
H2236 C2220 0.931 1_554 S
H2237 C2225 0.929 . S
H2238 C2226 0.960 . S
H2239 C2226 0.962 . S
H2240 C2226 0.960 1_554 S
H2241 C2227 0.961 . S
H2242 C2227 0.961 . S
H2243 C2227 0.961 . S
H2244 C2228 0.931 . S
H2245 C2233 0.930 . S
H2246 C2234 0.956 . S
H2247 C2234 0.961 . S
H2248 C2234 0.961 . S
H2249 C2235 0.958 1_554 S
H2250 C2235 0.961 . S
H2251 C2235 0.960 . S
C2252 C2253 1.391 . S
C2252 C2254 1.394 . S
C2252 H2268 0.931 1_556 S
C2253 C2252 1.391 . S
C2253 C2257 1.376 . S
C2254 C2252 1.394 . S
C2254 C2255 1.369 . S
C2254 C2258 1.531 . S
C2255 C2254 1.369 . S
C2255 C2256 1.410 . S
C2255 C2263 1.503 . S
C2256 C2255 1.410 . S
C2256 C2257 1.392 . S
C2256 C2259 1.511 . S
C2257 C2253 1.376 . S
C2257 C2256 1.392 . S
C2257 H2269 0.929 . S
C2258 C2254 1.531 . S
C2258 H2270 0.960 . S
C2258 H2271 0.962 . S
C2258 H2272 0.960 1_556 S
C2259 C2256 1.511 . S
C2259 H2273 0.961 . S
C2259 H2274 0.961 . S
C2259 H2275 0.961 . S
C2260 C2261 1.370 . S
C2260 C2262 1.363 . S
C2260 H2276 0.931 . S
C2261 C2260 1.370 . S
C2261 C2265 1.408 . S
C2262 C2260 1.363 . S
C2262 C2263 1.370 . S
C2262 C2266 1.524 . S
C2263 C2255 1.503 . S
C2263 C2262 1.370 . S
C2263 C2264 1.403 . S
C2264 C2263 1.403 . S
C2264 C2265 1.404 . S
C2264 C2267 1.539 . S
C2265 C2261 1.408 . S
C2265 C2264 1.404 . S
C2265 H2277 0.930 . S
C2266 C2262 1.524 . S
C2266 H2278 0.956 . S
C2266 H2279 0.961 . S
C2266 H2280 0.961 . S
C2267 C2264 1.539 . S
C2267 H2281 0.958 . S
C2267 H2282 0.961 . S
C2267 H2283 0.960 . S
H2268 C2252 0.931 1_554 S
H2269 C2257 0.929 . S
H2270 C2258 0.960 . S
H2271 C2258 0.962 . S
H2272 C2258 0.960 1_554 S
H2273 C2259 0.961 . S
H2274 C2259 0.961 . S
H2275 C2259 0.961 . S
H2276 C2260 0.931 . S
H2277 C2265 0.930 . S
H2278 C2266 0.956 . S
H2279 C2266 0.961 . S
H2280 C2266 0.961 . S
H2281 C2267 0.958 . S
H2282 C2267 0.961 . S
H2283 C2267 0.960 . S
C2284 C2285 1.391 . S
C2284 C2286 1.394 . S
C2284 H2300 0.931 . S
C2285 C2284 1.391 . S
C2285 C2289 1.376 . S
C2286 C2284 1.394 . S
C2286 C2287 1.369 . S
C2286 C2290 1.531 . S
C2287 C2286 1.369 . S
C2287 C2288 1.410 . S
C2287 C2295 1.503 . S
C2288 C2287 1.410 . S
C2288 C2289 1.392 . S
C2288 C2291 1.511 . S
C2289 C2285 1.376 . S
C2289 C2288 1.392 . S
C2289 H2301 0.929 . S
C2290 C2286 1.531 . S
C2290 H2302 0.960 . S
C2290 H2303 0.962 . S
C2290 H2304 0.960 . S
C2291 C2288 1.511 . S
C2291 H2305 0.961 . S
C2291 H2306 0.961 . S
C2291 H2307 0.961 . S
C2292 C2293 1.370 . S
C2292 C2294 1.363 . S
C2292 H2308 0.931 . S
C2293 C2292 1.370 . S
C2293 C2297 1.408 . S
C2294 C2292 1.363 . S
C2294 C2295 1.370 . S
C2294 C2298 1.524 . S
C2295 C2287 1.503 . S
C2295 C2294 1.370 . S
C2295 C2296 1.403 . S
C2296 C2295 1.403 . S
C2296 C2297 1.404 . S
C2296 C2299 1.539 . S
C2297 C2293 1.408 . S
C2297 C2296 1.404 . S
C2297 H2309 0.930 . S
C2298 C2294 1.524 . S
C2298 H2310 0.956 . S
C2298 H2311 0.961 . S
C2298 H2312 0.961 . S
C2299 C2296 1.539 . S
C2299 H2313 0.958 . S
C2299 H2314 0.961 . S
C2299 H2315 0.960 . S
H2300 C2284 0.931 . S
H2301 C2289 0.929 . S
H2302 C2290 0.960 . S
H2303 C2290 0.962 . S
H2304 C2290 0.960 . S
H2305 C2291 0.961 . S
H2306 C2291 0.961 . S
H2307 C2291 0.961 . S
H2308 C2292 0.931 . S
H2309 C2297 0.930 . S
H2310 C2298 0.956 . S
H2311 C2298 0.961 . S
H2312 C2298 0.961 . S
H2313 C2299 0.958 . S
H2314 C2299 0.961 . S
H2315 C2299 0.960 . S
C2316 C2317 1.391 . S
C2316 C2318 1.394 . S
C2316 H2332 0.931 1_556 S
C2317 C2316 1.391 . S
C2317 C2321 1.376 . S
C2318 C2316 1.394 . S
C2318 C2319 1.369 . S
C2318 C2322 1.531 1_556 S
C2319 C2318 1.369 . S
C2319 C2320 1.410 . S
C2319 C2327 1.503 . S
C2320 C2319 1.410 . S
C2320 C2321 1.392 . S
C2320 C2323 1.511 . S
C2321 C2317 1.376 . S
C2321 C2320 1.392 . S
C2321 H2333 0.929 . S
C2322 C2318 1.531 1_554 S
C2322 H2334 0.960 1_554 S
C2322 H2335 0.962 . S
C2322 H2336 0.960 . S
C2323 C2320 1.511 . S
C2323 H2337 0.961 . S
C2323 H2338 0.961 . S
C2323 H2339 0.961 . S
C2324 C2325 1.370 . S
C2324 C2326 1.363 . S
C2324 H2340 0.931 . S
C2325 C2324 1.370 . S
C2325 C2329 1.408 . S
C2326 C2324 1.363 . S
C2326 C2327 1.370 . S
C2326 C2330 1.524 . S
C2327 C2319 1.503 . S
C2327 C2326 1.370 . S
C2327 C2328 1.403 . S
C2328 C2327 1.403 . S
C2328 C2329 1.404 . S
C2328 C2331 1.539 . S
C2329 C2325 1.408 . S
C2329 C2328 1.404 . S
C2329 H2341 0.930 . S
C2330 C2326 1.524 . S
C2330 H2342 0.956 . S
C2330 H2343 0.961 . S
C2330 H2344 0.961 . S
C2331 C2328 1.539 . S
C2331 H2345 0.958 . S
C2331 H2346 0.961 . S
C2331 H2347 0.960 . S
H2332 C2316 0.931 1_554 S
H2333 C2321 0.929 . S
H2334 C2322 0.960 1_556 S
H2335 C2322 0.962 . S
H2336 C2322 0.960 . S
H2337 C2323 0.961 . S
H2338 C2323 0.961 . S
H2339 C2323 0.961 . S
H2340 C2324 0.931 . S
H2341 C2329 0.930 . S
H2342 C2330 0.956 . S
H2343 C2330 0.961 . S
H2344 C2330 0.961 . S
H2345 C2331 0.958 . S
H2346 C2331 0.961 . S
H2347 C2331 0.960 . S
C2348 C2349 1.391 . S
C2348 C2350 1.394 . S
C2348 H2364 0.931 . S
C2349 C2348 1.391 . S
C2349 C2353 1.376 . S
C2350 C2348 1.394 . S
C2350 C2351 1.369 . S
C2350 C2354 1.531 . S
C2351 C2350 1.369 . S
C2351 C2352 1.410 . S
C2351 C2359 1.503 . S
C2352 C2351 1.410 . S
C2352 C2353 1.392 . S
C2352 C2355 1.511 . S
C2353 C2349 1.376 . S
C2353 C2352 1.392 . S
C2353 H2365 0.929 . S
C2354 C2350 1.531 . S
C2354 H2366 0.960 . S
C2354 H2367 0.962 . S
C2354 H2368 0.960 . S
C2355 C2352 1.511 . S
C2355 H2369 0.961 . S
C2355 H2370 0.961 . S
C2355 H2371 0.961 . S
C2356 C2357 1.370 . S
C2356 C2358 1.363 . S
C2356 H2372 0.931 . S
C2357 C2356 1.370 . S
C2357 C2361 1.408 . S
C2358 C2356 1.363 . S
C2358 C2359 1.370 . S
C2358 C2362 1.524 . S
C2359 C2351 1.503 . S
C2359 C2358 1.370 . S
C2359 C2360 1.403 . S
C2360 C2359 1.403 . S
C2360 C2361 1.404 . S
C2360 C2363 1.539 . S
C2361 C2357 1.408 . S
C2361 C2360 1.404 . S
C2361 H2373 0.930 . S
C2362 C2358 1.524 . S
C2362 H2374 0.956 . S
C2362 H2375 0.979 . S
C2362 H2376 0.948 1_556 S
C2363 C2360 1.539 . S
C2363 H2377 0.958 . S
C2363 H2378 0.961 . S
C2363 H2379 0.960 . S
H2364 C2348 0.931 . S
H2365 C2353 0.929 . S
H2366 C2354 0.960 . S
H2367 C2354 0.962 . S
H2368 C2354 0.960 . S
H2369 C2355 0.961 . S
H2370 C2355 0.961 . S
H2371 C2355 0.961 . S
H2372 C2356 0.931 . S
H2373 C2361 0.930 . S
H2374 C2362 0.956 . S
H2375 C2362 0.979 . S
H2376 C2362 0.948 1_554 S
H2377 C2363 0.958 . S
H2378 C2363 0.961 . S
H2379 C2363 0.960 . S
C2380 C2381 1.391 . S
C2380 C2382 1.394 . S
C2380 H2396 0.931 . S
C2381 C2380 1.391 . S
C2381 C2385 1.376 . S
C2382 C2380 1.394 . S
C2382 C2383 1.369 . S
C2382 C2386 1.531 . S
C2383 C2382 1.369 . S
C2383 C2384 1.410 . S
C2383 C2391 1.503 . S
C2384 C2383 1.410 . S
C2384 C2385 1.392 . S
C2384 C2387 1.511 . S
C2385 C2381 1.376 . S
C2385 C2384 1.392 . S
C2385 H2397 0.929 1_556 S
C2386 C2382 1.531 . S
C2386 H2398 0.960 . S
C2386 H2399 0.962 . S
C2386 H2400 0.960 . S
C2387 C2384 1.511 . S
C2387 H2401 0.955 1_556 S
C2387 H2402 0.961 . S
C2387 H2403 0.961 1_556 S
C2388 C2389 1.370 . S
C2388 C2390 1.363 . S
C2388 H2404 0.931 . S
C2389 C2388 1.370 . S
C2389 C2393 1.408 . S
C2390 C2388 1.363 . S
C2390 C2391 1.370 . S
C2390 C2394 1.524 . S
C2391 C2383 1.503 . S
C2391 C2390 1.370 . S
C2391 C2392 1.403 . S
C2392 C2391 1.403 . S
C2392 C2393 1.404 . S
C2392 C2395 1.539 . S
C2393 C2389 1.408 . S
C2393 C2392 1.404 . S
C2393 H2405 0.930 . S
C2394 C2390 1.524 . S
C2394 H2406 0.956 . S
C2394 H2407 0.961 . S
C2394 H2408 0.961 . S
C2395 C2392 1.539 . S
C2395 H2409 0.958 . S
C2395 H2410 0.961 . S
C2395 H2411 0.960 . S
H2396 C2380 0.931 . S
H2397 C2385 0.929 1_554 S
H2398 C2386 0.960 . S
H2399 C2386 0.962 . S
H2400 C2386 0.960 . S
H2401 C2387 0.955 1_554 S
H2402 C2387 0.961 . S
H2403 C2387 0.961 1_554 S
H2404 C2388 0.931 . S
H2405 C2393 0.930 . S
H2406 C2394 0.956 . S
H2407 C2394 0.961 . S
H2408 C2394 0.961 . S
H2409 C2395 0.958 . S
H2410 C2395 0.961 . S
H2411 C2395 0.960 . S
C2412 C2413 1.391 . S
C2412 C2414 1.394 . S
C2412 H2428 0.931 . S
C2413 C2412 1.391 . S
C2413 C2417 1.376 . S
C2414 C2412 1.394 . S
C2414 C2415 1.369 . S
C2414 C2418 1.531 . S
C2415 C2414 1.369 . S
C2415 C2416 1.410 . S
C2415 C2423 1.503 . S
C2416 C2415 1.410 . S
C2416 C2417 1.392 . S
C2416 C2419 1.511 . S
C2417 C2413 1.376 . S
C2417 C2416 1.392 . S
C2417 H2429 0.929 . S
C2418 C2414 1.531 . S
C2418 H2430 0.960 . S
C2418 H2431 0.962 . S
C2418 H2432 0.960 . S
C2419 C2416 1.511 . S
C2419 H2433 0.961 . S
C2419 H2434 0.961 . S
C2419 H2435 0.961 . S
C2420 C2421 1.370 . S
C2420 C2422 1.363 . S
C2420 H2436 0.931 . S
C2421 C2420 1.370 . S
C2421 C2425 1.408 . S
C2422 C2420 1.363 . S
C2422 C2423 1.370 . S
C2422 C2426 1.524 . S
C2423 C2415 1.503 . S
C2423 C2422 1.370 . S
C2423 C2424 1.403 . S
C2424 C2423 1.403 . S
C2424 C2425 1.404 . S
C2424 C2427 1.539 . S
C2425 C2421 1.408 . S
C2425 C2424 1.404 . S
C2425 H2437 0.930 . S
C2426 C2422 1.524 . S
C2426 H2438 0.956 . S
C2426 H2439 0.961 . S
C2426 H2440 0.961 . S
C2427 C2424 1.539 . S
C2427 H2441 0.958 . S
C2427 H2442 0.961 . S
C2427 H2443 0.960 . S
H2428 C2412 0.931 . S
H2429 C2417 0.929 . S
H2430 C2418 0.960 . S
H2431 C2418 0.962 . S
H2432 C2418 0.960 . S
H2433 C2419 0.961 . S
H2434 C2419 0.961 . S
H2435 C2419 0.961 . S
H2436 C2420 0.931 . S
H2437 C2425 0.930 . S
H2438 C2426 0.956 . S
H2439 C2426 0.961 . S
H2440 C2426 0.961 . S
H2441 C2427 0.958 . S
H2442 C2427 0.961 . S
H2443 C2427 0.960 . S
C2444 C2445 1.391 . S
C2444 C2446 1.394 . S
C2444 H2460 0.936 . S
C2445 C2444 1.391 . S
C2445 C2449 1.376 . S
C2446 C2444 1.394 . S
C2446 C2447 1.369 . S
C2446 C2450 1.531 . S
C2447 C2446 1.369 . S
C2447 C2448 1.410 . S
C2447 C2455 1.503 . S
C2448 C2447 1.410 . S
C2448 C2449 1.392 . S
C2448 C2451 1.511 . S
C2449 C2445 1.376 . S
C2449 C2448 1.392 . S
C2449 H2461 0.929 . S
C2450 C2446 1.531 . S
C2450 H2462 0.960 . S
C2450 H2463 0.962 . S
C2450 H2464 0.960 1_554 S
C2451 C2448 1.511 . S
C2451 H2465 0.961 . S
C2451 H2466 0.961 . S
C2451 H2467 0.961 . S
C2452 C2453 1.370 . S
C2452 C2454 1.363 . S
C2452 H2468 0.931 . S
C2453 C2452 1.370 . S
C2453 C2457 1.408 . S
C2454 C2452 1.363 . S
C2454 C2455 1.370 . S
C2454 C2458 1.524 . S
C2455 C2447 1.503 . S
C2455 C2454 1.370 . S
C2455 C2456 1.403 . S
C2456 C2455 1.403 . S
C2456 C2457 1.404 . S
C2456 C2459 1.539 . S
C2457 C2453 1.408 . S
C2457 C2456 1.404 . S
C2457 H2469 0.930 . S
C2458 C2454 1.524 . S
C2458 H2470 0.956 . S
C2458 H2471 0.961 . S
C2458 H2472 0.961 . S
C2459 C2456 1.539 . S
C2459 H2473 0.958 . S
C2459 H2474 0.961 . S
C2459 H2475 0.960 . S
H2460 C2444 0.936 . S
H2461 C2449 0.929 . S
H2462 C2450 0.960 . S
H2463 C2450 0.962 . S
H2464 C2450 0.960 1_556 S
H2465 C2451 0.961 . S
H2466 C2451 0.961 . S
H2467 C2451 0.961 . S
H2468 C2452 0.931 . S
H2469 C2457 0.930 . S
H2470 C2458 0.956 . S
H2471 C2458 0.961 . S
H2472 C2458 0.961 . S
H2473 C2459 0.958 . S
H2474 C2459 0.961 . S
H2475 C2459 0.960 . S
C2476 C2477 1.391 . S
C2476 C2478 1.394 . S
C2476 H2492 0.931 . S
C2477 C2476 1.391 . S
C2477 C2481 1.376 . S
C2478 C2476 1.394 . S
C2478 C2479 1.369 . S
C2478 C2482 1.531 . S
C2479 C2478 1.369 . S
C2479 C2480 1.410 . S
C2479 C2487 1.503 . S
C2480 C2479 1.410 . S
C2480 C2481 1.392 . S
C2480 C2483 1.511 . S
C2481 C2477 1.376 . S
C2481 C2480 1.392 . S
C2481 H2493 0.929 . S
C2482 C2478 1.531 . S
C2482 H2494 0.960 . S
C2482 H2495 0.962 . S
C2482 H2496 0.960 . S
C2483 C2480 1.511 . S
C2483 H2497 0.961 . S
C2483 H2498 0.961 . S
C2483 H2499 0.961 . S
C2484 C2485 1.370 . S
C2484 C2486 1.363 . S
C2484 H2500 0.931 . S
C2485 C2484 1.370 . S
C2485 C2489 1.408 . S
C2486 C2484 1.363 . S
C2486 C2487 1.370 . S
C2486 C2490 1.524 . S
C2487 C2479 1.503 . S
C2487 C2486 1.370 . S
C2487 C2488 1.403 . S
C2488 C2487 1.403 . S
C2488 C2489 1.404 . S
C2488 C2491 1.539 . S
C2489 C2485 1.408 . S
C2489 C2488 1.404 . S
C2489 H2501 0.930 . S
C2490 C2486 1.524 . S
C2490 H2502 0.956 . S
C2490 H2503 0.961 . S
C2490 H2504 0.961 . S
C2491 C2488 1.539 . S
C2491 H2505 0.958 . S
C2491 H2506 0.961 . S
C2491 H2507 0.960 . S
H2492 C2476 0.931 . S
H2493 C2481 0.929 . S
H2494 C2482 0.960 . S
H2495 C2482 0.962 . S
H2496 C2482 0.960 . S
H2497 C2483 0.961 . S
H2498 C2483 0.961 . S
H2499 C2483 0.961 . S
H2500 C2484 0.931 . S
H2501 C2489 0.930 . S
H2502 C2490 0.956 . S
H2503 C2490 0.961 . S
H2504 C2490 0.961 . S
H2505 C2491 0.958 . S
H2506 C2491 0.961 . S
H2507 C2491 0.960 . S
C2508 C2509 1.391 . S
C2508 C2510 1.394 . S
C2508 H2524 0.931 . S
C2509 C2508 1.391 . S
C2509 C2513 1.376 . S
C2510 C2508 1.394 . S
C2510 C2511 1.369 . S
C2510 C2514 1.531 . S
C2511 C2510 1.369 . S
C2511 C2512 1.410 . S
C2511 C2519 1.503 . S
C2512 C2511 1.410 . S
C2512 C2513 1.392 . S
C2512 C2515 1.511 . S
C2513 C2509 1.376 . S
C2513 C2512 1.392 . S
C2513 H2525 0.929 . S
C2514 C2510 1.531 . S
C2514 H2526 0.960 . S
C2514 H2527 0.962 . S
C2514 H2528 0.960 . S
C2515 C2512 1.511 . S
C2515 H2529 0.961 . S
C2515 H2530 0.961 . S
C2515 H2531 0.961 . S
C2516 C2517 1.370 . S
C2516 C2518 1.363 . S
C2516 H2532 0.931 . S
C2517 C2516 1.370 . S
C2517 C2521 1.408 . S
C2518 C2516 1.363 . S
C2518 C2519 1.370 . S
C2518 C2522 1.524 . S
C2519 C2511 1.503 . S
C2519 C2518 1.370 . S
C2519 C2520 1.403 . S
C2520 C2519 1.403 . S
C2520 C2521 1.404 . S
C2520 C2523 1.539 . S
C2521 C2517 1.408 . S
C2521 C2520 1.404 . S
C2521 H2533 0.930 . S
C2522 C2518 1.524 . S
C2522 H2534 0.956 . S
C2522 H2535 0.961 . S
C2522 H2536 0.961 . S
C2523 C2520 1.539 . S
C2523 H2537 0.958 . S
C2523 H2538 0.961 . S
C2523 H2539 0.960 . S
H2524 C2508 0.931 . S
H2525 C2513 0.929 . S
H2526 C2514 0.960 . S
H2527 C2514 0.962 . S
H2528 C2514 0.960 . S
H2529 C2515 0.961 . S
H2530 C2515 0.961 . S
H2531 C2515 0.961 . S
H2532 C2516 0.931 . S
H2533 C2521 0.930 . S
H2534 C2522 0.956 . S
H2535 C2522 0.961 . S
H2536 C2522 0.961 . S
H2537 C2523 0.958 . S
H2538 C2523 0.961 . S
H2539 C2523 0.960 . S
C2540 C2541 1.391 . S
C2540 C2542 1.394 . S
C2540 H2556 0.931 . S
C2541 C2540 1.391 . S
C2541 C2545 1.376 . S
C2542 C2540 1.394 . S
C2542 C2543 1.369 . S
C2542 C2546 1.531 . S
C2543 C2542 1.369 . S
C2543 C2544 1.410 . S
C2543 C2551 1.503 . S
C2544 C2543 1.410 . S
C2544 C2545 1.392 . S
C2544 C2547 1.511 . S
C2545 C2541 1.376 . S
C2545 C2544 1.392 . S
C2545 H2557 0.929 . S
C2546 C2542 1.531 . S
C2546 H2558 0.960 . S
C2546 H2559 0.962 . S
C2546 H2560 0.960 . S
C2547 C2544 1.511 . S
C2547 H2561 0.961 . S
C2547 H2562 0.961 . S
C2547 H2563 0.961 . S
C2548 C2549 1.370 . S
C2548 C2550 1.363 . S
C2548 H2564 0.931 . S
C2549 C2548 1.370 . S
C2549 C2553 1.408 . S
C2550 C2548 1.363 . S
C2550 C2551 1.370 . S
C2550 C2554 1.524 . S
C2551 C2543 1.503 . S
C2551 C2550 1.370 . S
C2551 C2552 1.403 . S
C2552 C2551 1.403 . S
C2552 C2553 1.404 . S
C2552 C2555 1.539 . S
C2553 C2549 1.408 . S
C2553 C2552 1.404 . S
C2553 H2565 0.930 . S
C2554 C2550 1.524 . S
C2554 H2566 0.956 . S
C2554 H2567 0.961 . S
C2554 H2568 0.961 . S
C2555 C2552 1.539 . S
C2555 H2569 0.958 . S
C2555 H2570 0.961 . S
C2555 H2571 0.960 . S
H2556 C2540 0.931 . S
H2557 C2545 0.929 . S
H2558 C2546 0.960 . S
H2559 C2546 0.962 . S
H2560 C2546 0.960 . S
H2561 C2547 0.961 . S
H2562 C2547 0.961 . S
H2563 C2547 0.961 . S
H2564 C2548 0.931 . S
H2565 C2553 0.930 . S
H2566 C2554 0.956 . S
H2567 C2554 0.961 . S
H2568 C2554 0.961 . S
H2569 C2555 0.958 . S
H2570 C2555 0.961 . S
H2571 C2555 0.960 . S
C2572 C2573 1.391 . S
C2572 C2574 1.394 . S
C2572 H2588 0.931 . S
C2573 C2572 1.391 . S
C2573 C2577 1.376 . S
C2574 C2572 1.394 . S
C2574 C2575 1.369 . S
C2574 C2578 1.531 . S
C2575 C2574 1.369 . S
C2575 C2576 1.410 . S
C2575 C2583 1.503 . S
C2576 C2575 1.410 . S
C2576 C2577 1.392 . S
C2576 C2579 1.511 . S
C2577 C2573 1.376 . S
C2577 C2576 1.392 . S
C2577 H2589 0.929 . S
C2578 C2574 1.531 . S
C2578 H2590 0.960 . S
C2578 H2591 0.962 . S
C2578 H2592 0.960 . S
C2579 C2576 1.511 . S
C2579 H2593 0.961 . S
C2579 H2594 0.961 . S
C2579 H2595 0.961 . S
C2580 C2581 1.370 . S
C2580 C2582 1.363 . S
C2580 H2596 0.931 . S
C2581 C2580 1.370 . S
C2581 C2585 1.408 . S
C2582 C2580 1.363 . S
C2582 C2583 1.370 . S
C2582 C2586 1.524 . S
C2583 C2575 1.503 . S
C2583 C2582 1.370 . S
C2583 C2584 1.403 . S
C2584 C2583 1.403 . S
C2584 C2585 1.404 . S
C2584 C2587 1.539 . S
C2585 C2581 1.408 . S
C2585 C2584 1.404 . S
C2585 H2597 0.930 . S
C2586 C2582 1.524 . S
C2586 H2598 0.956 . S
C2586 H2599 0.961 . S
C2586 H2600 0.961 . S
C2587 C2584 1.539 . S
C2587 H2601 0.958 . S
C2587 H2602 0.961 . S
C2587 H2603 0.960 . S
H2588 C2572 0.931 . S
H2589 C2577 0.929 . S
H2590 C2578 0.960 . S
H2591 C2578 0.962 . S
H2592 C2578 0.960 . S
H2593 C2579 0.961 . S
H2594 C2579 0.961 . S
H2595 C2579 0.961 . S
H2596 C2580 0.931 . S
H2597 C2585 0.930 . S
H2598 C2586 0.956 . S
H2599 C2586 0.961 . S
H2600 C2586 0.961 . S
H2601 C2587 0.958 . S
H2602 C2587 0.961 . S
H2603 C2587 0.960 . S
C2604 C2605 1.391 1_655 S
C2604 C2606 1.394 . S
C2604 H2620 0.931 . S
C2605 C2604 1.391 1_455 S
C2605 C2609 1.376 . S
C2606 C2604 1.394 . S
C2606 C2607 1.369 1_655 S
C2606 C2610 1.531 . S
C2607 C2606 1.369 1_455 S
C2607 C2608 1.410 . S
C2607 C2615 1.503 . S
C2608 C2607 1.410 . S
C2608 C2609 1.392 . S
C2608 C2611 1.511 . S
C2609 C2605 1.376 . S
C2609 C2608 1.392 . S
C2609 H2621 0.929 . S
C2610 C2606 1.531 . S
C2610 H2622 0.960 . S
C2610 H2623 0.962 . S
C2610 H2624 0.960 . S
C2611 C2608 1.511 . S
C2611 H2625 0.961 . S
C2611 H2626 0.961 . S
C2611 H2627 0.961 . S
C2612 C2613 1.370 . S
C2612 C2614 1.363 . S
C2612 H2628 0.931 . S
C2613 C2612 1.370 . S
C2613 C2617 1.408 1_455 S
C2614 C2612 1.363 . S
C2614 C2615 1.370 . S
C2614 C2618 1.524 . S
C2615 C2607 1.503 . S
C2615 C2614 1.370 . S
C2615 C2616 1.403 1_455 S
C2616 C2615 1.403 1_655 S
C2616 C2617 1.404 . S
C2616 C2619 1.539 . S
C2617 C2613 1.408 1_655 S
C2617 C2616 1.404 . S
C2617 H2629 0.930 . S
C2618 C2614 1.524 . S
C2618 H2630 0.956 . S
C2618 H2631 0.961 . S
C2618 H2632 0.961 . S
C2619 C2616 1.539 . S
C2619 H2633 0.958 . S
C2619 H2634 0.961 . S
C2619 H2635 0.960 . S
H2620 C2604 0.931 . S
H2621 C2609 0.929 . S
H2622 C2610 0.960 . S
H2623 C2610 0.962 . S
H2624 C2610 0.960 . S
H2625 C2611 0.961 . S
H2626 C2611 0.961 . S
H2627 C2611 0.961 . S
H2628 C2612 0.931 . S
H2629 C2617 0.930 . S
H2630 C2618 0.956 . S
H2631 C2618 0.961 . S
H2632 C2618 0.961 . S
H2633 C2619 0.958 . S
H2634 C2619 0.961 . S
H2635 C2619 0.960 . S
C2636 C2637 1.391 . S
C2636 C2638 1.394 . S
C2636 H2652 0.931 . S
C2637 C2636 1.391 . S
C2637 C2641 1.376 . S
C2638 C2636 1.394 . S
C2638 C2639 1.369 . S
C2638 C2642 1.531 . S
C2639 C2638 1.369 . S
C2639 C2640 1.410 . S
C2639 C2647 1.503 . S
C2640 C2639 1.410 . S
C2640 C2641 1.392 . S
C2640 C2643 1.511 . S
C2641 C2637 1.376 . S
C2641 C2640 1.392 . S
C2641 H2653 0.929 . S
C2642 C2638 1.531 . S
C2642 H2654 0.960 . S
C2642 H2655 0.962 . S
C2642 H2656 0.960 . S
C2643 C2640 1.511 . S
C2643 H2657 0.961 . S
C2643 H2658 0.961 . S
C2643 H2659 0.961 . S
C2644 C2645 1.370 . S
C2644 C2646 1.363 . S
C2644 H2660 0.931 . S
C2645 C2644 1.370 . S
C2645 C2649 1.408 . S
C2646 C2644 1.363 . S
C2646 C2647 1.370 . S
C2646 C2650 1.524 . S
C2647 C2639 1.503 . S
C2647 C2646 1.370 . S
C2647 C2648 1.403 . S
C2648 C2647 1.403 . S
C2648 C2649 1.404 . S
C2648 C2651 1.539 . S
C2649 C2645 1.408 . S
C2649 C2648 1.404 . S
C2649 H2661 0.930 . S
C2650 C2646 1.524 . S
C2650 H2662 0.956 . S
C2650 H2663 0.961 . S
C2650 H2664 0.961 . S
C2651 C2648 1.539 . S
C2651 H2665 0.958 . S
C2651 H2666 0.961 . S
C2651 H2667 0.960 . S
H2652 C2636 0.931 . S
H2653 C2641 0.929 . S
H2654 C2642 0.960 . S
H2655 C2642 0.962 . S
H2656 C2642 0.960 . S
H2657 C2643 0.961 . S
H2658 C2643 0.961 . S
H2659 C2643 0.961 . S
H2660 C2644 0.931 . S
H2661 C2649 0.930 . S
H2662 C2650 0.956 . S
H2663 C2650 0.961 . S
H2664 C2650 0.961 . S
H2665 C2651 0.958 . S
H2666 C2651 0.961 . S
H2667 C2651 0.960 . S
C2668 C2669 1.391 1_545 S
C2668 C2670 1.394 . S
C2668 H2684 0.931 . S
C2669 C2668 1.391 1_565 S
C2669 C2673 1.376 . S
C2670 C2668 1.394 . S
C2670 C2671 1.369 1_545 S
C2670 C2674 1.531 . S
C2671 C2670 1.369 1_565 S
C2671 C2672 1.410 . S
C2671 C2679 1.503 . S
C2672 C2671 1.410 . S
C2672 C2673 1.392 . S
C2672 C2675 1.511 . S
C2673 C2669 1.376 . S
C2673 C2672 1.392 . S
C2673 H2685 0.929 . S
C2674 C2670 1.531 . S
C2674 H2686 0.960 . S
C2674 H2687 0.962 . S
C2674 H2688 0.960 . S
C2675 C2672 1.511 . S
C2675 H2689 0.961 . S
C2675 H2690 0.961 . S
C2675 H2691 0.961 . S
C2676 C2677 1.370 . S
C2676 C2678 1.363 . S
C2676 H2692 0.931 . S
C2677 C2676 1.370 . S
C2677 C2681 1.408 1_565 S
C2678 C2676 1.363 . S
C2678 C2679 1.370 . S
C2678 C2682 1.524 . S
C2679 C2671 1.503 . S
C2679 C2678 1.370 . S
C2679 C2680 1.403 1_565 S
C2680 C2679 1.403 1_545 S
C2680 C2681 1.404 . S
C2680 C2683 1.539 . S
C2681 C2677 1.408 1_545 S
C2681 C2680 1.404 . S
C2681 H2693 0.930 . S
C2682 C2678 1.524 . S
C2682 H2694 0.956 . S
C2682 H2695 0.961 . S
C2682 H2696 0.961 . S
C2683 C2680 1.539 . S
C2683 H2697 0.958 . S
C2683 H2698 0.961 . S
C2683 H2699 0.960 . S
H2684 C2668 0.931 . S
H2685 C2673 0.929 . S
H2686 C2674 0.960 . S
H2687 C2674 0.962 . S
H2688 C2674 0.960 . S
H2689 C2675 0.961 . S
H2690 C2675 0.961 . S
H2691 C2675 0.961 . S
H2692 C2676 0.931 . S
H2693 C2681 0.930 . S
H2694 C2682 0.956 . S
H2695 C2682 0.961 . S
H2696 C2682 0.961 . S
H2697 C2683 0.958 . S
H2698 C2683 0.961 . S
H2699 C2683 0.960 . S
C2700 C2701 1.391 . S
C2700 C2702 1.394 . S
C2700 H2716 0.931 . S
C2701 C2700 1.391 . S
C2701 C2705 1.376 . S
C2702 C2700 1.394 . S
C2702 C2703 1.369 . S
C2702 C2706 1.531 . S
C2703 C2702 1.369 . S
C2703 C2704 1.410 . S
C2703 C2711 1.503 . S
C2704 C2703 1.410 . S
C2704 C2705 1.392 . S
C2704 C2707 1.511 1_565 S
C2705 C2701 1.376 . S
C2705 C2704 1.392 . S
C2705 H2717 0.941 . S
C2706 C2702 1.531 . S
C2706 H2718 0.960 . S
C2706 H2719 0.962 . S
C2706 H2720 0.960 . S
C2707 C2704 1.511 1_545 S
C2707 H2721 0.961 . S
C2707 H2722 0.961 . S
C2707 H2723 0.961 1_545 S
C2708 C2709 1.354 1_545 S
C2708 C2710 1.363 . S
C2708 H2724 0.931 . S
C2709 C2708 1.354 1_565 S
C2709 C2713 1.464 . S
C2710 C2708 1.363 . S
C2710 C2711 1.370 1_545 S
C2710 C2714 1.524 . S
C2711 C2703 1.503 . S
C2711 C2710 1.370 1_565 S
C2711 C2712 1.403 . S
C2712 C2711 1.403 . S
C2712 C2713 1.404 . S
C2712 C2715 1.539 . S
C2713 C2709 1.464 . S
C2713 C2712 1.404 . S
C2713 H2725 0.930 . S
C2714 C2710 1.524 . S
C2714 H2726 0.956 . S
C2714 H2727 0.961 . S
C2714 H2728 0.961 . S
C2715 C2712 1.539 . S
C2715 H2729 0.958 . S
C2715 H2730 0.961 . S
C2715 H2731 0.960 . S
H2716 C2700 0.931 . S
H2717 C2705 0.941 . S
H2718 C2706 0.960 . S
H2719 C2706 0.962 . S
H2720 C2706 0.960 . S
H2721 C2707 0.961 . S
H2722 C2707 0.961 . S
H2723 C2707 0.961 1_565 S
H2724 C2708 0.931 . S
H2725 C2713 0.930 . S
H2726 C2714 0.956 . S
H2727 C2714 0.961 . S
H2728 C2714 0.961 . S
H2729 C2715 0.958 . S
H2730 C2715 0.961 . S
H2731 C2715 0.960 . S
C2732 C2733 1.391 . S
C2732 C2734 1.394 . S
C2732 H2748 0.931 . S
C2733 C2732 1.391 . S
C2733 C2737 1.376 1_455 S
C2734 C2732 1.394 . S
C2734 C2735 1.369 . S
C2734 C2738 1.531 . S
C2735 C2734 1.369 . S
C2735 C2736 1.410 1_455 S
C2735 C2743 1.503 . S
C2736 C2735 1.410 1_655 S
C2736 C2737 1.392 . S
C2736 C2739 1.511 . S
C2737 C2733 1.376 1_655 S
C2737 C2736 1.392 . S
C2737 H2749 0.929 . S
C2738 C2734 1.531 . S
C2738 H2750 0.960 . S
C2738 H2751 0.962 . S
C2738 H2752 0.960 . S
C2739 C2736 1.511 . S
C2739 H2753 0.961 . S
C2739 H2754 0.961 . S
C2739 H2755 0.961 . S
C2740 C2741 1.371 1_455 S
C2740 C2742 1.363 . S
C2740 H2756 0.931 . S
C2741 C2740 1.371 1_655 S
C2741 C2745 1.407 . S
C2742 C2740 1.363 . S
C2742 C2743 1.370 . S
C2742 C2746 1.524 . S
C2743 C2735 1.503 . S
C2743 C2742 1.370 . S
C2743 C2744 1.403 1_455 S
C2744 C2743 1.403 1_655 S
C2744 C2745 1.404 . S
C2744 C2747 1.539 . S
C2745 C2741 1.407 . S
C2745 C2744 1.404 . S
C2745 H2757 0.930 . S
C2746 C2742 1.524 . S
C2746 H2758 0.956 . S
C2746 H2759 0.961 . S
C2746 H2760 0.961 . S
C2747 C2744 1.539 . S
C2747 H2761 0.958 . S
C2747 H2762 0.961 . S
C2747 H2763 0.960 . S
H2748 C2732 0.931 . S
H2749 C2737 0.929 . S
H2750 C2738 0.960 . S
H2751 C2738 0.962 . S
H2752 C2738 0.960 . S
H2753 C2739 0.961 . S
H2754 C2739 0.961 . S
H2755 C2739 0.961 . S
H2756 C2740 0.931 . S
H2757 C2745 0.930 . S
H2758 C2746 0.956 . S
H2759 C2746 0.961 . S
H2760 C2746 0.961 . S
H2761 C2747 0.958 . S
H2762 C2747 0.961 . S
H2763 C2747 0.960 . S
C2764 C2765 1.391 . S
C2764 C2766 1.394 . S
C2764 H2780 0.931 . S
C2765 C2764 1.391 . S
C2765 C2769 1.376 . S
C2766 C2764 1.394 . S
C2766 C2767 1.369 . S
C2766 C2770 1.531 . S
C2767 C2766 1.369 . S
C2767 C2768 1.410 . S
C2767 C2775 1.503 . S
C2768 C2767 1.410 . S
C2768 C2769 1.392 . S
C2768 C2771 1.511 . S
C2769 C2765 1.376 . S
C2769 C2768 1.392 . S
C2769 H2781 0.929 . S
C2770 C2766 1.531 . S
C2770 H2782 0.960 . S
C2770 H2783 0.962 . S
C2770 H2784 0.960 . S
C2771 C2768 1.511 . S
C2771 H2785 0.961 . S
C2771 H2786 0.961 . S
C2771 H2787 0.961 . S
C2772 C2773 1.370 . S
C2772 C2774 1.363 . S
C2772 H2788 0.931 . S
C2773 C2772 1.370 . S
C2773 C2777 1.408 . S
C2774 C2772 1.363 . S
C2774 C2775 1.370 . S
C2774 C2778 1.524 . S
C2775 C2767 1.503 . S
C2775 C2774 1.370 . S
C2775 C2776 1.403 . S
C2776 C2775 1.403 . S
C2776 C2777 1.404 . S
C2776 C2779 1.539 . S
C2777 C2773 1.408 . S
C2777 C2776 1.404 . S
C2777 H2789 0.930 . S
C2778 C2774 1.524 . S
C2778 H2790 0.956 . S
C2778 H2791 0.961 . S
C2778 H2792 0.961 . S
C2779 C2776 1.539 . S
C2779 H2793 0.958 . S
C2779 H2794 0.961 . S
C2779 H2795 0.960 . S
H2780 C2764 0.931 . S
H2781 C2769 0.929 . S
H2782 C2770 0.960 . S
H2783 C2770 0.962 . S
H2784 C2770 0.960 . S
H2785 C2771 0.961 . S
H2786 C2771 0.961 . S
H2787 C2771 0.961 . S
H2788 C2772 0.931 . S
H2789 C2777 0.930 . S
H2790 C2778 0.956 . S
H2791 C2778 0.961 . S
H2792 C2778 0.961 . S
H2793 C2779 0.958 . S
H2794 C2779 0.961 . S
H2795 C2779 0.960 . S
C2796 C2797 1.391 . S
C2796 C2798 1.394 . S
C2796 H2812 0.931 . S
C2797 C2796 1.391 . S
C2797 C2801 1.376 . S
C2798 C2796 1.394 . S
C2798 C2799 1.369 . S
C2798 C2802 1.531 . S
C2799 C2798 1.369 . S
C2799 C2800 1.410 . S
C2799 C2807 1.503 . S
C2800 C2799 1.410 . S
C2800 C2801 1.392 . S
C2800 C2803 1.511 . S
C2801 C2797 1.376 . S
C2801 C2800 1.392 . S
C2801 H2813 0.929 . S
C2802 C2798 1.531 . S
C2802 H2814 0.960 . S
C2802 H2815 0.962 . S
C2802 H2816 0.960 . S
C2803 C2800 1.511 . S
C2803 H2817 0.961 . S
C2803 H2818 0.961 . S
C2803 H2819 0.961 . S
C2804 C2805 1.370 . S
C2804 C2806 1.363 . S
C2804 H2820 0.931 . S
C2805 C2804 1.370 . S
C2805 C2809 1.408 . S
C2806 C2804 1.363 . S
C2806 C2807 1.370 . S
C2806 C2810 1.524 . S
C2807 C2799 1.503 . S
C2807 C2806 1.370 . S
C2807 C2808 1.403 . S
C2808 C2807 1.403 . S
C2808 C2809 1.404 . S
C2808 C2811 1.539 . S
C2809 C2805 1.408 . S
C2809 C2808 1.404 . S
C2809 H2821 0.930 . S
C2810 C2806 1.524 . S
C2810 H2822 0.956 . S
C2810 H2823 0.961 . S
C2810 H2824 0.961 . S
C2811 C2808 1.539 . S
C2811 H2825 0.958 . S
C2811 H2826 0.961 . S
C2811 H2827 0.960 . S
H2812 C2796 0.931 . S
H2813 C2801 0.929 . S
H2814 C2802 0.960 . S
H2815 C2802 0.962 . S
H2816 C2802 0.960 . S
H2817 C2803 0.961 . S
H2818 C2803 0.961 . S
H2819 C2803 0.961 . S
H2820 C2804 0.931 . S
H2821 C2809 0.930 . S
H2822 C2810 0.956 . S
H2823 C2810 0.961 . S
H2824 C2810 0.961 . S
H2825 C2811 0.958 . S
H2826 C2811 0.961 . S
H2827 C2811 0.960 . S
C2828 C2829 1.391 . S
C2828 C2830 1.394 . S
C2828 H2844 0.931 . S
C2829 C2828 1.391 . S
C2829 C2833 1.376 . S
C2830 C2828 1.394 . S
C2830 C2831 1.369 . S
C2830 C2834 1.531 . S
C2831 C2830 1.369 . S
C2831 C2832 1.410 . S
C2831 C2839 1.503 . S
C2832 C2831 1.410 . S
C2832 C2833 1.392 . S
C2832 C2835 1.511 . S
C2833 C2829 1.376 . S
C2833 C2832 1.392 . S
C2833 H2845 0.929 . S
C2834 C2830 1.531 . S
C2834 H2846 0.960 . S
C2834 H2847 0.962 . S
C2834 H2848 0.960 . S
C2835 C2832 1.511 . S
C2835 H2849 0.961 . S
C2835 H2850 0.961 . S
C2835 H2851 0.961 . S
C2836 C2837 1.370 . S
C2836 C2838 1.363 . S
C2836 H2852 0.931 . S
C2837 C2836 1.370 . S
C2837 C2841 1.408 . S
C2838 C2836 1.363 . S
C2838 C2839 1.370 . S
C2838 C2842 1.524 . S
C2839 C2831 1.503 . S
C2839 C2838 1.370 . S
C2839 C2840 1.403 . S
C2840 C2839 1.403 . S
C2840 C2841 1.404 . S
C2840 C2843 1.539 . S
C2841 C2837 1.408 . S
C2841 C2840 1.404 . S
C2841 H2853 0.930 . S
C2842 C2838 1.524 . S
C2842 H2854 0.956 . S
C2842 H2855 0.961 . S
C2842 H2856 0.961 . S
C2843 C2840 1.539 . S
C2843 H2857 0.958 . S
C2843 H2858 0.961 . S
C2843 H2859 0.960 . S
H2844 C2828 0.931 . S
H2845 C2833 0.929 . S
H2846 C2834 0.960 . S
H2847 C2834 0.962 . S
H2848 C2834 0.960 . S
H2849 C2835 0.961 . S
H2850 C2835 0.961 . S
H2851 C2835 0.961 . S
H2852 C2836 0.931 . S
H2853 C2841 0.930 . S
H2854 C2842 0.956 . S
H2855 C2842 0.961 . S
H2856 C2842 0.961 . S
H2857 C2843 0.958 . S
H2858 C2843 0.961 . S
H2859 C2843 0.960 . S
C2860 C2861 1.391 . S
C2860 C2862 1.394 . S
C2860 H2876 0.931 . S
C2861 C2860 1.391 . S
C2861 C2865 1.376 . S
C2862 C2860 1.394 . S
C2862 C2863 1.369 . S
C2862 C2866 1.531 . S
C2863 C2862 1.369 . S
C2863 C2864 1.410 . S
C2863 C2871 1.503 . S
C2864 C2863 1.410 . S
C2864 C2865 1.392 . S
C2864 C2867 1.511 . S
C2865 C2861 1.376 . S
C2865 C2864 1.392 . S
C2865 H2877 0.929 . S
C2866 C2862 1.531 . S
C2866 H2878 0.960 . S
C2866 H2879 0.962 . S
C2866 H2880 0.960 . S
C2867 C2864 1.511 . S
C2867 H2881 0.961 . S
C2867 H2882 0.961 . S
C2867 H2883 0.961 . S
C2868 C2869 1.370 . S
C2868 C2870 1.363 . S
C2868 H2884 0.931 . S
C2869 C2868 1.370 . S
C2869 C2873 1.408 . S
C2870 C2868 1.363 . S
C2870 C2871 1.370 . S
C2870 C2874 1.524 . S
C2871 C2863 1.503 . S
C2871 C2870 1.370 . S
C2871 C2872 1.403 . S
C2872 C2871 1.403 . S
C2872 C2873 1.404 . S
C2872 C2875 1.539 . S
C2873 C2869 1.408 . S
C2873 C2872 1.404 . S
C2873 H2885 0.930 . S
C2874 C2870 1.524 . S
C2874 H2886 0.956 . S
C2874 H2887 0.961 . S
C2874 H2888 0.961 . S
C2875 C2872 1.539 . S
C2875 H2889 0.958 . S
C2875 H2890 0.961 . S
C2875 H2891 0.960 . S
H2876 C2860 0.931 . S
H2877 C2865 0.929 . S
H2878 C2866 0.960 . S
H2879 C2866 0.962 . S
H2880 C2866 0.960 . S
H2881 C2867 0.961 . S
H2882 C2867 0.961 . S
H2883 C2867 0.961 . S
H2884 C2868 0.931 . S
H2885 C2873 0.930 . S
H2886 C2874 0.956 . S
H2887 C2874 0.961 . S
H2888 C2874 0.961 . S
H2889 C2875 0.958 . S
H2890 C2875 0.961 . S
H2891 C2875 0.960 . S
C2892 C2893 1.391 . S
C2892 C2894 1.394 . S
C2892 H2908 0.931 . S
C2893 C2892 1.391 . S
C2893 C2897 1.376 . S
C2894 C2892 1.394 . S
C2894 C2895 1.369 . S
C2894 C2898 1.531 . S
C2895 C2894 1.369 . S
C2895 C2896 1.410 . S
C2895 C2903 1.503 . S
C2896 C2895 1.410 . S
C2896 C2897 1.392 . S
C2896 C2899 1.511 . S
C2897 C2893 1.376 . S
C2897 C2896 1.392 . S
C2897 H2909 0.929 . S
C2898 C2894 1.531 . S
C2898 H2910 0.960 1_545 S
C2898 H2911 0.962 . S
C2898 H2912 0.959 . S
C2899 C2896 1.511 . S
C2899 H2913 0.961 . S
C2899 H2914 0.961 . S
C2899 H2915 0.961 1_545 S
C2900 C2901 1.370 . S
C2900 C2902 1.363 . S
C2900 H2916 0.931 . S
C2901 C2900 1.370 . S
C2901 C2905 1.408 1_545 S
C2902 C2900 1.363 . S
C2902 C2903 1.370 . S
C2902 C2906 1.524 . S
C2903 C2895 1.503 . S
C2903 C2902 1.370 . S
C2903 C2904 1.403 1_545 S
C2904 C2903 1.403 1_565 S
C2904 C2905 1.404 . S
C2904 C2907 1.539 . S
C2905 C2901 1.408 1_565 S
C2905 C2904 1.404 . S
C2905 H2917 0.930 . S
C2906 C2902 1.524 . S
C2906 H2918 0.956 . S
C2906 H2919 0.961 . S
C2906 H2920 0.961 . S
C2907 C2904 1.539 . S
C2907 H2921 0.958 . S
C2907 H2922 0.961 . S
C2907 H2923 0.960 . S
H2908 C2892 0.931 . S
H2909 C2897 0.929 . S
H2910 C2898 0.960 1_565 S
H2911 C2898 0.962 . S
H2912 C2898 0.959 . S
H2913 C2899 0.961 . S
H2914 C2899 0.961 . S
H2915 C2899 0.961 1_565 S
H2916 C2900 0.931 . S
H2917 C2905 0.930 . S
H2918 C2906 0.956 . S
H2919 C2906 0.961 . S
H2920 C2906 0.961 . S
H2921 C2907 0.958 . S
H2922 C2907 0.961 . S
H2923 C2907 0.960 . S
C2924 C2925 1.391 . S
C2924 C2926 1.394 . S
C2924 H2940 0.931 . S
C2925 C2924 1.391 . S
C2925 C2929 1.376 1_655 S
C2926 C2924 1.394 . S
C2926 C2927 1.369 . S
C2926 C2930 1.531 . S
C2927 C2926 1.369 . S
C2927 C2928 1.410 1_655 S
C2927 C2935 1.503 . S
C2928 C2927 1.410 1_455 S
C2928 C2929 1.392 . S
C2928 C2931 1.511 . S
C2929 C2925 1.376 1_455 S
C2929 C2928 1.392 . S
C2929 H2941 0.929 . S
C2930 C2926 1.531 . S
C2930 H2942 0.960 . S
C2930 H2943 0.962 . S
C2930 H2944 0.960 . S
C2931 C2928 1.511 . S
C2931 H2945 0.961 . S
C2931 H2946 0.961 . S
C2931 H2947 0.961 . S
C2932 C2933 1.370 . S
C2932 C2934 1.363 . S
C2932 H2948 0.931 . S
C2933 C2932 1.370 . S
C2933 C2937 1.408 1_655 S
C2934 C2932 1.363 . S
C2934 C2935 1.370 . S
C2934 C2938 1.524 . S
C2935 C2927 1.503 . S
C2935 C2934 1.370 . S
C2935 C2936 1.403 1_655 S
C2936 C2935 1.403 1_455 S
C2936 C2937 1.404 . S
C2936 C2939 1.539 . S
C2937 C2933 1.408 1_455 S
C2937 C2936 1.404 . S
C2937 H2949 0.930 . S
C2938 C2934 1.524 . S
C2938 H2950 0.956 . S
C2938 H2951 0.961 . S
C2938 H2952 0.961 . S
C2939 C2936 1.539 . S
C2939 H2953 0.958 . S
C2939 H2954 0.961 . S
C2939 H2955 0.960 . S
H2940 C2924 0.931 . S
H2941 C2929 0.929 . S
H2942 C2930 0.960 . S
H2943 C2930 0.962 . S
H2944 C2930 0.960 . S
H2945 C2931 0.961 . S
H2946 C2931 0.961 . S
H2947 C2931 0.961 . S
H2948 C2932 0.931 . S
H2949 C2937 0.930 . S
H2950 C2938 0.956 . S
H2951 C2938 0.961 . S
H2952 C2938 0.961 . S
H2953 C2939 0.958 . S
H2954 C2939 0.961 . S
H2955 C2939 0.960 . S
C2956 C2957 1.391 . S
C2956 C2958 1.394 . S
C2956 H2972 0.931 . S
C2957 C2956 1.391 . S
C2957 C2961 1.376 . S
C2958 C2956 1.394 . S
C2958 C2959 1.369 . S
C2958 C2962 1.531 . S
C2959 C2958 1.369 . S
C2959 C2960 1.410 . S
C2959 C2967 1.503 . S
C2960 C2959 1.410 . S
C2960 C2961 1.392 . S
C2960 C2963 1.511 . S
C2961 C2957 1.376 . S
C2961 C2960 1.392 . S
C2961 H2973 0.929 . S
C2962 C2958 1.531 . S
C2962 H2974 0.960 . S
C2962 H2975 0.962 . S
C2962 H2976 0.960 . S
C2963 C2960 1.511 . S
C2963 H2977 0.961 . S
C2963 H2978 0.961 . S
C2963 H2979 0.961 . S
C2964 C2965 1.370 . S
C2964 C2966 1.363 . S
C2964 H2980 0.931 . S
C2965 C2964 1.370 . S
C2965 C2969 1.408 . S
C2966 C2964 1.363 . S
C2966 C2967 1.370 . S
C2966 C2970 1.524 . S
C2967 C2959 1.503 . S
C2967 C2966 1.370 . S
C2967 C2968 1.403 . S
C2968 C2967 1.403 . S
C2968 C2969 1.404 . S
C2968 C2971 1.539 . S
C2969 C2965 1.408 . S
C2969 C2968 1.404 . S
C2969 H2981 0.930 . S
C2970 C2966 1.524 . S
C2970 H2982 0.956 . S
C2970 H2983 0.961 . S
C2970 H2984 0.961 . S
C2971 C2968 1.539 . S
C2971 H2985 0.958 . S
C2971 H2986 0.961 . S
C2971 H2987 0.960 . S
H2972 C2956 0.931 . S
H2973 C2961 0.929 . S
H2974 C2962 0.960 . S
H2975 C2962 0.962 . S
H2976 C2962 0.960 . S
H2977 C2963 0.961 . S
H2978 C2963 0.961 . S
H2979 C2963 0.961 . S
H2980 C2964 0.931 . S
H2981 C2969 0.930 . S
H2982 C2970 0.956 . S
H2983 C2970 0.961 . S
H2984 C2970 0.961 . S
H2985 C2971 0.958 . S
H2986 C2971 0.961 . S
H2987 C2971 0.960 . S
C2988 C2989 1.391 . S
C2988 C2990 1.394 . S
C2988 H3004 0.931 . S
C2989 C2988 1.391 . S
C2989 C2993 1.376 . S
C2990 C2988 1.394 . S
C2990 C2991 1.369 . S
C2990 C2994 1.531 . S
C2991 C2990 1.369 . S
C2991 C2992 1.410 . S
C2991 C2999 1.503 . S
C2992 C2991 1.410 . S
C2992 C2993 1.392 . S
C2992 C2995 1.511 . S
C2993 C2989 1.376 . S
C2993 C2992 1.392 . S
C2993 H3005 0.929 . S
C2994 C2990 1.531 . S
C2994 H3006 0.960 . S
C2994 H3007 0.962 . S
C2994 H3008 0.960 . S
C2995 C2992 1.511 . S
C2995 H3009 0.961 . S
C2995 H3010 0.961 . S
C2995 H3011 0.961 . S
C2996 C2997 1.370 . S
C2996 C2998 1.363 . S
C2996 H3012 0.931 . S
C2997 C2996 1.370 . S
C2997 C3001 1.408 . S
C2998 C2996 1.363 . S
C2998 C2999 1.370 . S
C2998 C3002 1.524 . S
C2999 C2991 1.503 . S
C2999 C2998 1.370 . S
C2999 C3000 1.403 . S
C3000 C2999 1.403 . S
C3000 C3001 1.404 . S
C3000 C3003 1.539 . S
C3001 C2997 1.408 . S
C3001 C3000 1.404 . S
C3001 H3013 0.930 . S
C3002 C2998 1.524 . S
C3002 H3014 0.956 . S
C3002 H3015 0.961 . S
C3002 H3016 0.961 . S
C3003 C3000 1.539 . S
C3003 H3017 0.958 . S
C3003 H3018 0.961 . S
C3003 H3019 0.960 . S
H3004 C2988 0.931 . S
H3005 C2993 0.929 . S
H3006 C2994 0.960 . S
H3007 C2994 0.962 . S
H3008 C2994 0.960 . S
H3009 C2995 0.961 . S
H3010 C2995 0.961 . S
H3011 C2995 0.961 . S
H3012 C2996 0.931 . S
H3013 C3001 0.930 . S
H3014 C3002 0.956 . S
H3015 C3002 0.961 . S
H3016 C3002 0.961 . S
H3017 C3003 0.958 . S
H3018 C3003 0.961 . S
H3019 C3003 0.960 . S
C3020 C3021 1.391 . S
C3020 C3022 1.394 . S
C3020 H3036 0.931 . S
C3021 C3020 1.391 . S
C3021 C3025 1.376 . S
C3022 C3020 1.394 . S
C3022 C3023 1.369 . S
C3022 C3026 1.531 . S
C3023 C3022 1.369 . S
C3023 C3024 1.410 . S
C3023 C3031 1.503 . S
C3024 C3023 1.410 . S
C3024 C3025 1.392 . S
C3024 C3027 1.511 . S
C3025 C3021 1.376 . S
C3025 C3024 1.392 . S
C3025 H3037 0.929 . S
C3026 C3022 1.531 . S
C3026 H3038 0.960 . S
C3026 H3039 0.962 . S
C3026 H3040 0.960 . S
C3027 C3024 1.511 . S
C3027 H3041 0.961 . S
C3027 H3042 0.961 . S
C3027 H3043 0.961 . S
C3028 C3029 1.370 . S
C3028 C3030 1.363 . S
C3028 H3044 0.931 . S
C3029 C3028 1.370 . S
C3029 C3033 1.408 . S
C3030 C3028 1.363 . S
C3030 C3031 1.370 . S
C3030 C3034 1.524 . S
C3031 C3023 1.503 . S
C3031 C3030 1.370 . S
C3031 C3032 1.403 . S
C3032 C3031 1.403 . S
C3032 C3033 1.404 . S
C3032 C3035 1.539 . S
C3033 C3029 1.408 . S
C3033 C3032 1.404 . S
C3033 H3045 0.930 . S
C3034 C3030 1.524 . S
C3034 H3046 0.956 . S
C3034 H3047 0.961 . S
C3034 H3048 0.961 . S
C3035 C3032 1.539 . S
C3035 H3049 0.958 . S
C3035 H3050 0.961 . S
C3035 H3051 0.960 . S
H3036 C3020 0.931 . S
H3037 C3025 0.929 . S
H3038 C3026 0.960 . S
H3039 C3026 0.962 . S
H3040 C3026 0.960 . S
H3041 C3027 0.961 . S
H3042 C3027 0.961 . S
H3043 C3027 0.961 . S
H3044 C3028 0.931 . S
H3045 C3033 0.930 . S
H3046 C3034 0.956 . S
H3047 C3034 0.961 . S
H3048 C3034 0.961 . S
H3049 C3035 0.958 . S
H3050 C3035 0.961 . S
H3051 C3035 0.960 . S
C3052 C3053 1.391 . S
C3052 C3054 1.394 . S
C3052 H3068 0.931 . S
C3053 C3052 1.391 . S
C3053 C3057 1.376 . S
C3054 C3052 1.394 . S
C3054 C3055 1.369 . S
C3054 C3058 1.531 . S
C3055 C3054 1.369 . S
C3055 C3056 1.410 . S
C3055 C3063 1.503 . S
C3056 C3055 1.410 . S
C3056 C3057 1.392 . S
C3056 C3059 1.511 . S
C3057 C3053 1.376 . S
C3057 C3056 1.392 . S
C3057 H3069 0.929 . S
C3058 C3054 1.531 . S
C3058 H3070 0.960 . S
C3058 H3071 0.962 . S
C3058 H3072 0.960 . S
C3059 C3056 1.511 . S
C3059 H3073 0.961 . S
C3059 H3074 0.961 . S
C3059 H3075 0.961 . S
C3060 C3061 1.370 . S
C3060 C3062 1.363 . S
C3060 H3076 0.931 . S
C3061 C3060 1.370 . S
C3061 C3065 1.408 . S
C3062 C3060 1.363 . S
C3062 C3063 1.370 . S
C3062 C3066 1.524 . S
C3063 C3055 1.503 . S
C3063 C3062 1.370 . S
C3063 C3064 1.403 . S
C3064 C3063 1.403 . S
C3064 C3065 1.404 . S
C3064 C3067 1.539 . S
C3065 C3061 1.408 . S
C3065 C3064 1.404 . S
C3065 H3077 0.930 . S
C3066 C3062 1.524 . S
C3066 H3078 0.956 . S
C3066 H3079 0.961 . S
C3066 H3080 0.961 . S
C3067 C3064 1.539 . S
C3067 H3081 0.958 . S
C3067 H3082 0.961 . S
C3067 H3083 0.960 . S
H3068 C3052 0.931 . S
H3069 C3057 0.929 . S
H3070 C3058 0.960 . S
H3071 C3058 0.962 . S
H3072 C3058 0.960 . S
H3073 C3059 0.961 . S
H3074 C3059 0.961 . S
H3075 C3059 0.961 . S
H3076 C3060 0.931 . S
H3077 C3065 0.930 . S
H3078 C3066 0.956 . S
H3079 C3066 0.961 . S
H3080 C3066 0.961 . S
H3081 C3067 0.958 . S
H3082 C3067 0.961 . S
H3083 C3067 0.960 . S
C3084 C3085 1.391 . S
C3084 C3086 1.394 . S
C3084 H3100 0.931 . S
C3085 C3084 1.391 . S
C3085 C3089 1.376 . S
C3086 C3084 1.394 . S
C3086 C3087 1.369 . S
C3086 C3090 1.531 . S
C3087 C3086 1.369 . S
C3087 C3088 1.410 . S
C3087 C3095 1.503 . S
C3088 C3087 1.410 . S
C3088 C3089 1.392 . S
C3088 C3091 1.511 . S
C3089 C3085 1.376 . S
C3089 C3088 1.392 . S
C3089 H3101 0.929 . S
C3090 C3086 1.531 . S
C3090 H3102 0.960 . S
C3090 H3103 0.962 . S
C3090 H3104 0.960 . S
C3091 C3088 1.511 . S
C3091 H3105 0.961 . S
C3091 H3106 0.961 . S
C3091 H3107 0.961 . S
C3092 C3093 1.370 . S
C3092 C3094 1.363 . S
C3092 H3108 0.931 . S
C3093 C3092 1.370 . S
C3093 C3097 1.408 . S
C3094 C3092 1.363 . S
C3094 C3095 1.370 . S
C3094 C3098 1.524 . S
C3095 C3087 1.503 . S
C3095 C3094 1.370 . S
C3095 C3096 1.403 . S
C3096 C3095 1.403 . S
C3096 C3097 1.404 . S
C3096 C3099 1.539 . S
C3097 C3093 1.408 . S
C3097 C3096 1.404 . S
C3097 H3109 0.930 . S
C3098 C3094 1.524 . S
C3098 H3110 0.956 . S
C3098 H3111 0.961 . S
C3098 H3112 0.961 . S
C3099 C3096 1.539 . S
C3099 H3113 0.958 . S
C3099 H3114 0.961 . S
C3099 H3115 0.960 . S
H3100 C3084 0.931 . S
H3101 C3089 0.929 . S
H3102 C3090 0.960 . S
H3103 C3090 0.962 . S
H3104 C3090 0.960 . S
H3105 C3091 0.961 . S
H3106 C3091 0.961 . S
H3107 C3091 0.961 . S
H3108 C3092 0.931 . S
H3109 C3097 0.930 . S
H3110 C3098 0.956 . S
H3111 C3098 0.961 . S
H3112 C3098 0.961 . S
H3113 C3099 0.958 . S
H3114 C3099 0.961 . S
H3115 C3099 0.960 . S
C3116 C3117 1.391 . S
C3116 C3118 1.394 . S
C3116 H3132 0.931 . S
C3117 C3116 1.391 . S
C3117 C3121 1.376 . S
C3118 C3116 1.394 . S
C3118 C3119 1.369 . S
C3118 C3122 1.531 . S
C3119 C3118 1.369 . S
C3119 C3120 1.410 . S
C3119 C3127 1.503 . S
C3120 C3119 1.410 . S
C3120 C3121 1.392 . S
C3120 C3123 1.511 . S
C3121 C3117 1.376 . S
C3121 C3120 1.392 . S
C3121 H3133 0.929 . S
C3122 C3118 1.531 . S
C3122 H3134 0.960 . S
C3122 H3135 0.962 . S
C3122 H3136 0.960 . S
C3123 C3120 1.511 . S
C3123 H3137 0.961 . S
C3123 H3138 0.961 . S
C3123 H3139 0.961 . S
C3124 C3125 1.370 . S
C3124 C3126 1.363 . S
C3124 H3140 0.931 . S
C3125 C3124 1.370 . S
C3125 C3129 1.408 . S
C3126 C3124 1.363 . S
C3126 C3127 1.370 . S
C3126 C3130 1.524 . S
C3127 C3119 1.503 . S
C3127 C3126 1.370 . S
C3127 C3128 1.403 . S
C3128 C3127 1.403 . S
C3128 C3129 1.404 . S
C3128 C3131 1.539 . S
C3129 C3125 1.408 . S
C3129 C3128 1.404 . S
C3129 H3141 0.930 . S
C3130 C3126 1.524 . S
C3130 H3142 0.956 . S
C3130 H3143 0.961 . S
C3130 H3144 0.961 . S
C3131 C3128 1.539 . S
C3131 H3145 0.958 . S
C3131 H3146 0.961 . S
C3131 H3147 0.960 . S
H3132 C3116 0.931 . S
H3133 C3121 0.929 . S
H3134 C3122 0.960 . S
H3135 C3122 0.962 . S
H3136 C3122 0.960 . S
H3137 C3123 0.961 . S
H3138 C3123 0.961 . S
H3139 C3123 0.961 . S
H3140 C3124 0.931 . S
H3141 C3129 0.930 . S
H3142 C3130 0.956 . S
H3143 C3130 0.961 . S
H3144 C3130 0.961 . S
H3145 C3131 0.958 . S
H3146 C3131 0.961 . S
H3147 C3131 0.960 . S
C3148 C3149 1.391 . S
C3148 C3150 1.394 . S
C3148 H3164 0.931 . S
C3149 C3148 1.391 . S
C3149 C3153 1.376 . S
C3150 C3148 1.394 . S
C3150 C3151 1.369 . S
C3150 C3154 1.531 . S
C3151 C3150 1.369 . S
C3151 C3152 1.410 . S
C3151 C3159 1.503 . S
C3152 C3151 1.410 . S
C3152 C3153 1.392 . S
C3152 C3155 1.511 . S
C3153 C3149 1.376 . S
C3153 C3152 1.392 . S
C3153 H3165 0.929 . S
C3154 C3150 1.531 . S
C3154 H3166 0.960 . S
C3154 H3167 0.962 . S
C3154 H3168 0.960 . S
C3155 C3152 1.511 . S
C3155 H3169 0.961 . S
C3155 H3170 0.961 . S
C3155 H3171 0.961 . S
C3156 C3157 1.370 . S
C3156 C3158 1.363 . S
C3156 H3172 0.931 . S
C3157 C3156 1.370 . S
C3157 C3161 1.408 . S
C3158 C3156 1.363 . S
C3158 C3159 1.370 . S
C3158 C3162 1.524 . S
C3159 C3151 1.503 . S
C3159 C3158 1.370 . S
C3159 C3160 1.403 . S
C3160 C3159 1.403 . S
C3160 C3161 1.404 . S
C3160 C3163 1.539 . S
C3161 C3157 1.408 . S
C3161 C3160 1.404 . S
C3161 H3173 0.930 . S
C3162 C3158 1.524 . S
C3162 H3174 0.956 . S
C3162 H3175 0.961 . S
C3162 H3176 0.961 . S
C3163 C3160 1.539 . S
C3163 H3177 0.958 . S
C3163 H3178 0.961 . S
C3163 H3179 0.960 . S
H3164 C3148 0.931 . S
H3165 C3153 0.929 . S
H3166 C3154 0.960 . S
H3167 C3154 0.962 . S
H3168 C3154 0.960 . S
H3169 C3155 0.961 . S
H3170 C3155 0.961 . S
H3171 C3155 0.961 . S
H3172 C3156 0.931 . S
H3173 C3161 0.930 . S
H3174 C3162 0.956 . S
H3175 C3162 0.961 . S
H3176 C3162 0.961 . S
H3177 C3163 0.958 . S
H3178 C3163 0.961 . S
H3179 C3163 0.960 . S
C3180 C3181 1.391 . S
C3180 C3182 1.394 . S
C3180 H3196 0.931 . S
C3181 C3180 1.391 . S
C3181 C3185 1.376 . S
C3182 C3180 1.394 . S
C3182 C3183 1.369 . S
C3182 C3186 1.531 . S
C3183 C3182 1.369 . S
C3183 C3184 1.410 . S
C3183 C3191 1.503 . S
C3184 C3183 1.410 . S
C3184 C3185 1.392 . S
C3184 C3187 1.511 . S
C3185 C3181 1.376 . S
C3185 C3184 1.392 . S
C3185 H3197 0.929 . S
C3186 C3182 1.531 . S
C3186 H3198 0.960 . S
C3186 H3199 0.962 1_655 S
C3186 H3200 0.960 . S
C3187 C3184 1.511 . S
C3187 H3201 0.961 . S
C3187 H3202 0.961 . S
C3187 H3203 0.961 . S
C3188 C3189 1.370 1_455 S
C3188 C3190 1.363 . S
C3188 H3204 0.931 . S
C3189 C3188 1.370 1_655 S
C3189 C3193 1.408 . S
C3190 C3188 1.363 . S
C3190 C3191 1.370 1_455 S
C3190 C3194 1.524 . S
C3191 C3183 1.503 . S
C3191 C3190 1.370 1_655 S
C3191 C3192 1.403 . S
C3192 C3191 1.403 . S
C3192 C3193 1.404 . S
C3192 C3195 1.539 . S
C3193 C3189 1.408 . S
C3193 C3192 1.404 . S
C3193 H3205 0.930 . S
C3194 C3190 1.524 . S
C3194 H3206 0.956 . S
C3194 H3207 0.961 . S
C3194 H3208 0.961 . S
C3195 C3192 1.539 . S
C3195 H3209 0.958 . S
C3195 H3210 0.961 . S
C3195 H3211 0.960 . S
H3196 C3180 0.931 . S
H3197 C3185 0.929 . S
H3198 C3186 0.960 . S
H3199 C3186 0.962 1_455 S
H3200 C3186 0.960 . S
H3201 C3187 0.961 . S
H3202 C3187 0.961 . S
H3203 C3187 0.961 . S
H3204 C3188 0.931 . S
H3205 C3193 0.930 . S
H3206 C3194 0.956 . S
H3207 C3194 0.961 . S
H3208 C3194 0.961 . S
H3209 C3195 0.958 . S
H3210 C3195 0.961 . S
H3211 C3195 0.960 . S
C3212 C3213 1.391 . S
C3212 C3214 1.394 . S
C3212 H3228 0.931 . S
C3213 C3212 1.391 . S
C3213 C3217 1.376 . S
C3214 C3212 1.394 . S
C3214 C3215 1.369 . S
C3214 C3218 1.531 . S
C3215 C3214 1.369 . S
C3215 C3216 1.410 . S
C3215 C3223 1.503 . S
C3216 C3215 1.410 . S
C3216 C3217 1.392 . S
C3216 C3219 1.511 . S
C3217 C3213 1.376 . S
C3217 C3216 1.392 . S
C3217 H3229 0.929 . S
C3218 C3214 1.531 . S
C3218 H3230 0.960 . S
C3218 H3231 0.962 . S
C3218 H3232 0.960 . S
C3219 C3216 1.511 . S
C3219 H3233 0.961 . S
C3219 H3234 0.961 . S
C3219 H3235 0.961 . S
C3220 C3221 1.370 . S
C3220 C3222 1.363 . S
C3220 H3236 0.931 . S
C3221 C3220 1.370 . S
C3221 C3225 1.408 . S
C3222 C3220 1.363 . S
C3222 C3223 1.370 . S
C3222 C3226 1.524 . S
C3223 C3215 1.503 . S
C3223 C3222 1.370 . S
C3223 C3224 1.403 . S
C3224 C3223 1.403 . S
C3224 C3225 1.404 . S
C3224 C3227 1.539 . S
C3225 C3221 1.408 . S
C3225 C3224 1.404 . S
C3225 H3237 0.930 . S
C3226 C3222 1.524 . S
C3226 H3238 0.956 . S
C3226 H3239 0.961 . S
C3226 H3240 0.961 . S
C3227 C3224 1.539 . S
C3227 H3241 0.958 . S
C3227 H3242 0.961 . S
C3227 H3243 0.960 . S
H3228 C3212 0.931 . S
H3229 C3217 0.929 . S
H3230 C3218 0.960 . S
H3231 C3218 0.962 . S
H3232 C3218 0.960 . S
H3233 C3219 0.961 . S
H3234 C3219 0.961 . S
H3235 C3219 0.961 . S
H3236 C3220 0.931 . S
H3237 C3225 0.930 . S
H3238 C3226 0.956 . S
H3239 C3226 0.961 . S
H3240 C3226 0.961 . S
H3241 C3227 0.958 . S
H3242 C3227 0.961 . S
H3243 C3227 0.960 . S
C3244 C3245 1.391 . S
C3244 C3246 1.394 . S
C3244 H3260 0.931 . S
C3245 C3244 1.391 . S
C3245 C3249 1.376 . S
C3246 C3244 1.394 . S
C3246 C3247 1.369 . S
C3246 C3250 1.531 . S
C3247 C3246 1.369 . S
C3247 C3248 1.410 . S
C3247 C3255 1.503 . S
C3248 C3247 1.410 . S
C3248 C3249 1.392 . S
C3248 C3251 1.511 . S
C3249 C3245 1.376 . S
C3249 C3248 1.392 . S
C3249 H3261 0.929 . S
C3250 C3246 1.531 . S
C3250 H3262 0.960 . S
C3250 H3263 0.962 . S
C3250 H3264 0.960 . S
C3251 C3248 1.511 . S
C3251 H3265 0.961 . S
C3251 H3266 0.968 . S
C3251 H3267 0.961 . S
C3252 C3253 1.304 1_565 S
C3252 C3254 1.363 . S
C3252 H3268 0.931 . S
C3253 C3252 1.304 1_545 S
C3253 C3257 1.455 . S
C3254 C3252 1.363 . S
C3254 C3255 1.370 1_565 S
C3254 C3258 1.524 . S
C3255 C3247 1.503 . S
C3255 C3254 1.370 1_545 S
C3255 C3256 1.403 . S
C3256 C3255 1.403 . S
C3256 C3257 1.404 . S
C3256 C3259 1.539 . S
C3257 C3253 1.455 . S
C3257 C3256 1.404 . S
C3257 H3269 0.930 . S
C3258 C3254 1.524 . S
C3258 H3270 0.956 . S
C3258 H3271 0.961 . S
C3258 H3272 0.961 . S
C3259 C3256 1.539 . S
C3259 H3273 0.958 . S
C3259 H3274 0.961 . S
C3259 H3275 0.960 . S
H3260 C3244 0.931 . S
H3261 C3249 0.929 . S
H3262 C3250 0.960 . S
H3263 C3250 0.962 . S
H3264 C3250 0.960 . S
H3265 C3251 0.961 . S
H3266 C3251 0.968 . S
H3267 C3251 0.961 . S
H3268 C3252 0.931 . S
H3269 C3257 0.930 . S
H3270 C3258 0.956 . S
H3271 C3258 0.961 . S
H3272 C3258 0.961 . S
H3273 C3259 0.958 . S
H3274 C3259 0.961 . S
H3275 C3259 0.960 . S
C973 C4 1.461 1_655 S
C981 C817 1.500 . S
C1005 C38 1.668 . S
C1013 C842 1.671 . S
C1045 C853 1.505 . S
C1037 C74 1.524 . S
C1069 C76 1.491 . S
C1077 C878 1.484 . S
C1101 C2 1.573 . S
C1109 C896 1.613 . S
C1133 C40 1.502 . S
C1141 C907 1.506 . S
C1165 C110 1.579 . S
C1173 C889 1.585 1_455 S
C1205 C914 1.470 . S
C1197 C148 1.499 . S
C1237 C871 1.559 . S
C1229 C182 1.557 1_565 S
C1261 C184 1.525 . S
C1269 C860 1.546 1_545 S
C1301 C824 1.462 . S
C1293 C112 1.477 1_655 S
C1325 C146 1.581 . S
C1333 C835 1.595 . S
C1357 C220 1.570 . S
C1365 C925 1.570 . S
C1389 C254 1.711 . S
C1397 C950 1.708 . S
C1429 C961 1.573 . S
C1421 C290 1.616 . S
C1453 C292 1.528 . S
C1461 C662 1.531 . S
C1485 C218 1.654 . S
C1493 C680 1.663 . S
C1517 C256 1.524 . S
C1525 C691 1.506 . S
C1549 C326 1.590 . S
C1557 C673 1.616 . S
C1581 C364 1.531 . S
C1589 C698 1.505 . S
C1621 C655 1.604 . S
C1613 C398 1.607 . S
C1653 C968 1.581 . S
C1645 C400 1.601 . S
C1685 C932 1.481 . S
C1677 C328 1.463 . S
C1717 C943 1.616 . S
C1709 C362 1.636 . S
C1741 C436 1.557 . S
C1749 C709 1.517 . S
C1773 C470 1.710 . S
C1781 C734 1.679 . S
C1805 C506 1.616 . S
C1813 C745 1.581 . S
C1837 C508 1.577 . S
C1845 C770 1.555 . S
C1877 C788 1.645 . S
C1869 C434 1.670 . S
C1909 C799 1.520 . S
C1901 C472 1.561 . S
C1941 C781 1.654 . S
C1933 C542 1.667 . S
C1973 C806 1.519 . S
C1965 C580 1.504 . S
C1997 C614 1.613 . S
C2005 C763 1.600 . S
C2037 C752 1.534 . S
C2029 C616 1.562 . S
C2061 C544 1.488 . S
C2069 C716 1.486 . S
C2101 C727 1.609 . S
C2093 C578 1.608 . S
C2133 C664 1.452 . S
C2125 C14 1.497 . S
C2157 C39 1.472 . S
C2165 C682 1.394 . S
C2197 C692 1.365 . S
C2189 C75 1.459 . S
C2229 C710 1.341 . S
C2221 C86 1.334 . S
C2261 C736 1.446 . S
C2253 C3 1.496 . S
C2293 C746 1.395 . S
C2285 C50 1.419 . S
C2317 C111 1.518 . S
C2325 C754 1.437 . S
C2349 C158 1.402 . S
C2357 C718 1.344 . S
C2381 C183 1.592 . S
C2389 C728 1.525 . S
C2413 C194 1.510 . S
C2421 C674 1.487 . S
C2453 C700 1.375 . S
C2445 C122 1.451 . S
C2477 C147 1.446 . S
C2485 C656 1.355 . S
C2517 C772 1.448 . S
C2509 C230 1.477 . S
C2541 C255 1.534 . S
C2549 C790 1.486 . S
C2573 C291 1.479 . S
C2581 C800 1.417 . S
C2613 C818 1.321 . S
C2605 C302 1.336 . S
C2637 C219 1.490 . S
C2645 C844 1.445 . S
C2669 C266 1.421 . S
C2677 C854 1.406 . S
C2701 C327 1.398 . S
C2709 C862 1.317 . S
C2733 C374 1.404 . S
C2741 C826 1.350 1_655 S
C2773 C836 1.492 . S
C2765 C399 1.578 . S
C2797 C410 1.509 . S
C2805 C782 1.455 . S
C2829 C338 1.448 . S
C2837 C808 1.410 . S
C2869 C764 1.436 . S
C2861 C363 1.500 . S
C2901 C880 1.386 . S
C2893 C446 1.422 . S
C2925 C471 1.451 . S
C2933 C898 1.368 . S
C2957 C507 1.436 . S
C2965 C908 1.376 . S
C2997 C926 1.342 . S
C2989 C518 1.345 . S
C3029 C952 1.464 . S
C3021 C435 1.548 . S
C3053 C482 1.493 . S
C3061 C962 1.461 . S
C3085 C543 1.495 . S
C3093 C970 1.375 . S
C3117 C590 1.504 . S
C3125 C934 1.432 . S
C3157 C944 1.549 . S
C3149 C615 1.610 . S
C3189 C890 1.377 1_655 S
C3181 C626 1.364 . S
C3221 C916 1.380 . S
C3213 C554 1.424 . S
C3245 C579 1.398 . S
C3253 C872 1.385 1_545 S
