# Generated by pormake.
# Topology pyr, (3,6)-cn, num edge types: 1
# Building blocks:
#     Node 0, Type 0, BuildingBlock: BETDAH_clean_linker_0, # of connection points: 3
#     Node 1, Type 0, BuildingBlock: BETDAH_clean_linker_0, # of connection points: 3
#     Node 2, Type 0, BuildingBlock: BETDAH_clean_linker_0, # of connection points: 3
#     Node 3, Type 0, BuildingBlock: BETDAH_clean_linker_0, # of connection points: 3
#     Node 4, Type 0, BuildingBlock: BETDAH_clean_linker_0, # of connection points: 3
#     Node 5, Type 0, BuildingBlock: BETDAH_clean_linker_0, # of connection points: 3
#     Node 6, Type 0, BuildingBlock: BETDAH_clean_linker_0, # of connection points: 3
#     Node 7, Type 0, BuildingBlock: BETDAH_clean_linker_0, # of connection points: 3
#     Node 8, Type 1, BuildingBlock: PAMTOO_clean_sbu_0, # of connection points: 6
#     Node 9, Type 1, BuildingBlock: PAMTOO_clean_sbu_0, # of connection points: 6
#     Node 10, Type 1, BuildingBlock: PAMTOO_clean_sbu_0, # of connection points: 6
#     Node 11, Type 1, BuildingBlock: PAMTOO_clean_sbu_0, # of connection points: 6
#     Edge 12, Type (0, 1), BuildingBlock: OJICUG_clean_linker_0, # of connection points: 2
#     Edge 13, Type (0, 1), BuildingBlock: OJICUG_clean_linker_0, # of connection points: 2
#     Edge 14, Type (0, 1), BuildingBlock: OJICUG_clean_linker_0, # of connection points: 2
#     Edge 15, Type (0, 1), BuildingBlock: OJICUG_clean_linker_0, # of connection points: 2
#     Edge 16, Type (0, 1), BuildingBlock: OJICUG_clean_linker_0, # of connection points: 2
#     Edge 17, Type (0, 1), BuildingBlock: OJICUG_clean_linker_0, # of connection points: 2
#     Edge 18, Type (0, 1), BuildingBlock: OJICUG_clean_linker_0, # of connection points: 2
#     Edge 19, Type (0, 1), BuildingBlock: OJICUG_clean_linker_0, # of connection points: 2
#     Edge 20, Type (0, 1), BuildingBlock: OJICUG_clean_linker_0, # of connection points: 2
#     Edge 21, Type (0, 1), BuildingBlock: OJICUG_clean_linker_0, # of connection points: 2
#     Edge 22, Type (0, 1), BuildingBlock: OJICUG_clean_linker_0, # of connection points: 2
#     Edge 23, Type (0, 1), BuildingBlock: OJICUG_clean_linker_0, # of connection points: 2
#     Edge 24, Type (0, 1), BuildingBlock: OJICUG_clean_linker_0, # of connection points: 2
#     Edge 25, Type (0, 1), BuildingBlock: OJICUG_clean_linker_0, # of connection points: 2
#     Edge 26, Type (0, 1), BuildingBlock: OJICUG_clean_linker_0, # of connection points: 2
#     Edge 27, Type (0, 1), BuildingBlock: OJICUG_clean_linker_0, # of connection points: 2
#     Edge 28, Type (0, 1), BuildingBlock: OJICUG_clean_linker_0, # of connection points: 2
#     Edge 29, Type (0, 1), BuildingBlock: OJICUG_clean_linker_0, # of connection points: 2
#     Edge 30, Type (0, 1), BuildingBlock: OJICUG_clean_linker_0, # of connection points: 2
#     Edge 31, Type (0, 1), BuildingBlock: OJICUG_clean_linker_0, # of connection points: 2
#     Edge 32, Type (0, 1), BuildingBlock: OJICUG_clean_linker_0, # of connection points: 2
#     Edge 33, Type (0, 1), BuildingBlock: OJICUG_clean_linker_0, # of connection points: 2
#     Edge 34, Type (0, 1), BuildingBlock: OJICUG_clean_linker_0, # of connection points: 2
#     Edge 35, Type (0, 1), BuildingBlock: OJICUG_clean_linker_0, # of connection points: 2
# Relax obj value: 0.194
# Max RMSD: 0.222
# Mean RMSD: 0.129
data_MOF--net-pyr--node1-PAMTOO_clean_sbu_0--node2-BETDAH_clean_linker_0--edge1-OJICUG_clean_linker_0
_symmetry_space_group_name_H-M    P1
_symmetry_Int_Tables_number       1
_symmetry_cell_setting            triclinic
loop_
_symmetry_equiv_pos_as_xyz
'x, y, z'
_cell_length_a     26.481547
_cell_length_b     29.332294
_cell_length_c     29.13373
_cell_angle_alpha  90.633644
_cell_angle_beta   90.832093
_cell_angle_gamma 111.32639
loop_
_atom_site_label
_atom_site_type_symbol
_atom_site_fract_x
_atom_site_fract_y
_atom_site_fract_z
_atom_type_partial_charge
H0 H 0.44321 0.25027 0.31615 0.0
H1 H 0.47044 0.32633 0.18825 0.0
H2 H 0.38648 0.36877 0.29594 0.0
C3 C 0.44084 0.2799 0.29535 0.0
C4 C 0.41469 0.31034 0.31228 0.0
C5 C 0.46057 0.28504 0.25059 0.0
C6 C 0.45647 0.32269 0.2233 0.0
C7 C 0.42905 0.35233 0.2392 0.0
C8 C 0.40814 0.34613 0.28374 0.0
N9 N 0.41924 0.38549 0.20863 0.0
C10 C 0.36889 0.38995 0.20569 0.0
H11 H 0.25189 0.79891 0.8158 0.0
H12 H 0.09489 0.80873 0.79567 0.0
H13 H 0.16904 0.7595 0.68517 0.0
C14 C 0.21611 0.79318 0.79455 0.0
C15 C 0.21525 0.7768 0.74904 0.0
C16 C 0.17296 0.80471 0.81205 0.0
C17 C 0.1283 0.79944 0.78312 0.0
C18 C 0.12695 0.78346 0.73738 0.0
C19 C 0.16967 0.77074 0.7208 0.0
N20 N 0.08537 0.7846 0.70677 0.0
C21 C 0.07007 0.82522 0.70619 0.0
H22 H 0.7319 0.36263 0.99254 0.0
H23 H 0.71959 0.47989 0.91147 0.0
H24 H 0.58818 0.33996 0.91091 0.0
C25 C 0.70835 0.37625 0.96954 0.0
C26 C 0.65636 0.34507 0.95524 0.0
C27 C 0.73043 0.42543 0.95656 0.0
C28 C 0.70314 0.44215 0.92215 0.0
C29 C 0.65222 0.41046 0.90424 0.0
C30 C 0.62875 0.36277 0.92222 0.0
N31 N 0.61943 0.42643 0.87345 0.0
C32 C 0.63486 0.45951 0.83706 0.0
H33 H 0.83506 0.77748 0.50182 0.0
H34 H 0.97079 0.80815 0.41295 0.0
H35 H 0.83658 0.67028 0.3998 0.0
C36 C 0.8553 0.7665 0.47415 0.0
C37 C 0.82954 0.7201 0.45313 0.0
C38 C 0.9062 0.79887 0.46045 0.0
C39 C 0.93119 0.78414 0.42384 0.0
C40 C 0.90662 0.73837 0.4012 0.0
C41 C 0.85563 0.70582 0.41632 0.0
N42 N 0.93697 0.72738 0.36516 0.0
C43 C 0.92204 0.69053 0.33098 0.0
H44 H 0.75386 0.80385 0.87702 0.0
H45 H 0.66582 0.75778 1.0014 0.0
H46 H 0.59728 0.8149 0.89177 0.0
C47 C 0.71743 0.7974 0.89652 0.0
C48 C 0.67531 0.81041 0.87817 0.0
C49 C 0.71465 0.77854 0.94081 0.0
C50 C 0.66804 0.77119 0.96669 0.0
C51 C 0.62631 0.78532 0.94934 0.0
C52 C 0.62978 0.80427 0.90496 0.0
N53 N 0.58339 0.78444 0.9782 0.0
C54 C 0.56831 0.82505 0.98166 0.0
H55 H 0.94628 0.25233 0.38927 0.0
H56 H 0.97717 0.33131 0.51812 0.0
H57 H 0.89459 0.37417 0.40831 0.0
C58 C 0.94515 0.28281 0.41011 0.0
C59 C 0.92017 0.31391 0.39263 0.0
C60 C 0.96532 0.28846 0.45536 0.0
C61 C 0.96281 0.32722 0.48272 0.0
C62 C 0.93661 0.35765 0.46619 0.0
C63 C 0.91533 0.35097 0.42106 0.0
N64 N 0.9284 0.39218 0.49661 0.0
C65 C 0.87982 0.40012 0.49657 0.0
H66 H 0.33305 0.77566 0.1992 0.0
H67 H 0.33867 0.67278 0.30185 0.0
H68 H 0.47217 0.81032 0.28919 0.0
C69 C 0.35451 0.76585 0.22702 0.0
C70 C 0.40585 0.79885 0.24098 0.0
C71 C 0.32971 0.72038 0.24819 0.0
C72 C 0.3572 0.70758 0.28518 0.0
C73 C 0.40866 0.74076 0.30054 0.0
C74 C 0.4323 0.7857 0.27793 0.0
N75 N 0.43972 0.73139 0.33745 0.0
C76 C 0.42581 0.69405 0.36987 0.0
H77 H 0.23587 0.36211 0.7085 0.0
H78 H 0.23021 0.49075 0.77748 0.0
H79 H 0.10336 0.3509 0.79661 0.0
C80 C 0.21653 0.37895 0.73228 0.0
C81 C 0.16772 0.34974 0.75217 0.0
C82 C 0.23942 0.4298 0.74022 0.0
C83 C 0.21429 0.45145 0.77197 0.0
C84 C 0.16567 0.42289 0.79355 0.0
C85 C 0.14225 0.37233 0.78243 0.0
N86 N 0.13304 0.44575 0.81606 0.0
C87 C 0.14101 0.46775 0.86007 0.0
Dy88 Dy 0.09596 0.08768 0.58574 0.0
Dy89 Dy 0.97407 0.0638 0.62632 0.0
C90 C 0.07638 0.15678 0.66418 0.0
O91 O 0.0857 0.02549 0.63164 0.0
O92 O 1.00766 1.01859 0.67044 0.0
O93 O 0.18325 0.10953 0.59211 0.0
O94 O 0.14286 0.09123 0.52545 0.0
O95 O 0.9677 0.99357 0.59234 0.0
O96 O 0.03797 0.02485 0.54272 0.0
O97 O 0.9788 0.09871 0.55795 0.0
O98 O 0.06825 0.14641 0.56152 0.0
O99 O 0.88794 0.04226 0.61363 0.0
O100 O 0.92283 0.06981 0.68098 0.0
C101 C 0.04991 1.00587 0.66332 0.0
O102 O 0.1097 0.13643 0.64849 0.0
O103 O 0.02455 0.13893 0.65305 0.0
C104 C 0.23001 0.15094 0.52739 0.0
C105 C 0.30082 0.22468 0.47309 0.0
C106 C 0.31341 0.1837 0.48542 0.0
C107 C 0.27821 0.14714 0.5123 0.0
C108 C 0.21875 0.1931 0.51781 0.0
C109 C 0.25397 0.22978 0.49082 0.0
C110 C 0.18912 0.10826 0.54781 0.0
C111 C 0.99445 0.9887 0.55625 0.0
C112 C 0.01902 0.13832 0.54645 0.0
C113 C 0.83386 1.01191 0.67893 0.0
C114 C 0.75578 0.93877 0.72904 0.0
C115 C 0.77221 0.92765 0.68592 0.0
C116 C 0.81123 0.96386 0.66118 0.0
C117 C 0.81535 0.02365 0.72052 0.0
C118 C 0.77705 0.98751 0.74548 0.0
C119 C 0.87844 0.05008 0.6563 0.0
H120 H 0.34863 0.17815 0.47183 0.0
H121 H 0.28725 0.11466 0.51923 0.0
H122 H 0.18152 0.1965 0.5293 0.0
H123 H 0.24344 0.26111 0.4823 0.0
H124 H 0.75615 0.8907 0.67189 0.0
H125 H 0.82465 0.95392 0.62893 0.0
H126 H 0.83219 0.06056 0.73469 0.0
H127 H 0.76648 0.99755 0.77885 0.0
Dy128 Dy 0.4678 0.05829 0.07511 0.0
Dy129 Dy 0.59029 0.08291 0.12031 0.0
C130 C 0.4895 0.98534 0.14575 0.0
O131 O 0.47372 0.09652 0.14293 0.0
O132 O 0.56395 0.14237 0.14512 0.0
O133 O 0.382 0.03523 0.0876 0.0
O134 O 0.41371 0.06293 1.021 0.0
O135 O 0.60479 0.14187 0.06845 0.0
O136 O 0.51779 0.12939 1.04285 0.0
O137 O 0.58166 0.02443 0.06823 0.0
O138 O 0.49914 1.01125 1.03181 0.0
O139 O 0.6767 0.09998 0.11591 0.0
O140 O 0.63737 0.08709 0.18196 0.0
C141 C 0.51441 0.1355 0.15692 0.0
O142 O 0.46412 0.98867 0.10766 0.0
O143 O 0.53117 0.02278 0.16179 0.0
C144 C 0.32561 1.00383 1.02165 0.0
C145 C 0.24782 0.92959 0.96874 0.0
C146 C 0.26651 0.91875 1.01122 0.0
C147 C 0.30544 0.95553 1.03734 0.0
C148 C 0.30462 1.01524 0.98089 0.0
C149 C 0.26649 0.97858 0.95454 0.0
C150 C 0.37047 0.04263 1.04528 0.0
C151 C 0.57024 0.1546 1.04369 0.0
C152 C 0.54402 1.00212 1.03718 0.0
C153 C 0.72573 0.14452 0.18034 0.0
C154 C 0.80032 0.22162 0.23228 0.0
C155 C 0.81071 0.17871 0.2228 0.0
C156 C 0.7736 0.14045 0.19709 0.0
C157 C 0.71664 0.18835 0.18704 0.0
C158 C 0.75371 0.22669 0.21292 0.0
C159 C 0.68326 0.10124 0.16045 0.0
H160 H 0.25245 0.88162 1.02359 0.0
H161 H 0.32084 0.94586 0.06895 0.0
H162 H 0.31958 0.05235 0.96832 0.0
H163 H 0.2542 0.98854 0.92172 0.0
H164 H 0.84573 0.17327 0.23775 0.0
H165 H 0.78101 0.10674 0.19227 0.0
H166 H 0.67975 0.192 0.17409 0.0
H167 H 0.74487 0.25943 0.21934 0.0
Dy168 Dy 0.52776 0.52277 0.57045 0.0
Dy169 Dy 0.54415 0.62524 0.62467 0.0
C170 C 0.58705 0.54649 0.67154 0.0
O171 O 0.44509 0.51131 0.59881 0.0
O172 O 0.47231 0.56952 0.65633 0.0
O173 O 0.5056 0.44408 0.56901 0.0
O174 O 0.53459 0.48552 0.50774 0.0
O175 O 0.48191 0.61833 0.56842 0.0
O176 O 0.50433 0.56825 0.51881 0.0
O177 O 0.60899 0.64418 0.57172 0.0
O178 O 0.61575 0.56931 0.56176 0.0
O179 O 0.55987 0.70287 0.62238 0.0
O180 O 0.54342 0.66575 0.68709 0.0
C181 C 0.43582 0.53035 0.6376 0.0
O182 O 0.55718 0.51384 0.64126 0.0
O183 O 0.59577 0.59352 0.66693 0.0
C184 C 0.57073 0.42614 0.52539 0.0
C185 C 0.66942 0.41153 0.51442 0.0
C186 C 0.65653 0.42713 0.55694 0.0
C187 C 0.60792 0.43462 0.56228 0.0
C188 C 0.58201 0.40809 0.48354 0.0
C189 C 0.63097 0.40066 0.4781 0.0
C190 C 0.52585 0.44431 0.52841 0.0
C191 C 0.4819 0.60077 0.52659 0.0
C192 C 0.63412 0.61668 0.5548 0.0
C193 C 0.50137 0.72217 0.67286 0.0
C194 C 0.40883 0.74469 0.69263 0.0
C195 C 0.41178 0.72094 0.65117 0.0
C196 C 0.45741 0.70963 0.64151 0.0
C197 C 0.49928 0.74687 0.71379 0.0
C198 C 0.45345 0.75809 0.72361 0.0
C199 C 0.54637 0.70491 0.66497 0.0
H200 H 0.68475 0.43488 0.58585 0.0
H201 H 0.60066 0.44925 0.59475 0.0
H202 H 0.55424 0.40207 0.45446 0.0
H203 H 0.63984 0.38877 0.44487 0.0
H204 H 0.37862 0.71071 0.62625 0.0
H205 H 0.45777 0.69008 0.6099 0.0
H206 H 0.53239 0.75624 0.73873 0.0
H207 H 0.4523 0.77584 0.75616 0.0
Dy208 Dy 0.03974 0.62368 0.0751 0.0
Dy209 Dy 0.02346 0.52151 0.12638 0.0
C210 C 0.97871 0.59974 0.17186 0.0
O211 O 0.10496 0.64274 0.1296 0.0
O212 O 0.1116 0.56778 0.13789 0.0
O213 O 0.05506 0.70123 0.07916 0.0
O214 O 0.03947 0.66387 1.01328 0.0
O215 O 0.0516 0.51246 1.05561 0.0
O216 O 0.09288 0.59247 1.03493 0.0
O217 O 0.94062 0.51191 0.09733 0.0
O218 O 0.9684 0.56764 1.03993 0.0
O219 O 0.99973 0.44269 0.12486 0.0
O220 O 0.0309 0.48357 0.18778 0.0
C221 C 0.13026 0.6152 0.14609 0.0
O222 O 0.97865 0.61761 0.13054 0.0
O223 O 1.00085 0.56691 0.17907 0.0
C224 C 0.99722 0.72021 1.02681 0.0
C225 C 0.9054 0.74322 1.00387 0.0
C226 C 0.90653 0.71744 1.04398 0.0
C227 C 0.95184 0.70588 1.05521 0.0
C228 C 0.99687 0.74681 0.98727 0.0
C229 C 0.95138 0.75828 0.97588 0.0
C230 C 0.04215 0.70311 1.03608 0.0
C231 C 0.08313 0.54539 1.02794 0.0
C232 C 0.93133 0.52981 0.05811 0.0
C233 C 0.06361 0.42212 0.16885 0.0
C234 C 0.15831 0.40053 0.18103 0.0
C235 C 0.14865 0.42087 0.1399 0.0
C236 C 0.10196 0.43173 0.13397 0.0
C237 C 0.07192 0.40011 0.20929 0.0
C238 C 0.11896 0.38937 0.21537 0.0
C239 C 0.02023 0.44216 0.16576 0.0
H240 H 0.87224 0.70588 0.06663 0.0
H241 H 0.95089 0.68485 0.08568 0.0
H242 H 0.03115 0.75756 0.96458 0.0
H243 H 0.95163 0.77761 0.94438 0.0
H244 H 0.17845 0.43068 0.1131 0.0
H245 H 0.09711 0.44974 0.10286 0.0
H246 H 0.04315 0.39305 0.23684 0.0
H247 H 0.12509 0.37332 0.24727 0.0
C248 C 0.3333 0.292 0.36123 0.0
C249 C 0.38862 0.29988 0.3575 0.0
H250 H 0.26194 0.26169 0.40088 0.0
C251 C 0.41667 0.29071 0.39541 0.0
H252 H 0.31066 0.29848 0.33238 0.0
C253 C 0.38891 0.27001 0.4349 0.0
C254 C 0.3325 0.25771 0.43701 0.0
H255 H 0.45956 0.29718 0.39354 0.0
H256 H 0.41109 0.26118 0.46278 0.0
C257 C 0.30544 0.27099 0.40061 0.0
C258 C 0.20777 0.81607 0.8936 0.0
C259 C 0.1787 0.82843 0.85818 0.0
H260 H 0.25339 0.8387 0.95604 0.0
C261 C 0.16228 0.86847 0.86503 0.0
H262 H 0.2194 0.78442 0.89023 0.0
C263 C 0.17981 0.89855 0.90395 0.0
C264 C 0.21538 0.89008 0.93614 0.0
H265 H 0.13956 0.87912 0.8388 0.0
H266 H 0.16868 0.9305 0.90701 0.0
C267 C 0.22652 0.84688 0.93192 0.0
C268 C 0.63493 0.53409 0.79484 0.0
C269 C 0.63302 0.48543 0.79443 0.0
H270 H 0.62304 0.59212 0.75655 0.0
C271 C 0.62046 0.45902 0.75267 0.0
H272 H 0.64352 0.55518 0.82667 0.0
C273 C 0.6081 0.47979 0.71277 0.0
C274 C 0.60798 0.5279 0.71308 0.0
H275 H 0.61779 0.42128 0.75126 0.0
H276 H 0.5969 0.45731 0.68183 0.0
C277 C 0.62302 0.55523 0.75457 0.0
C278 C 0.94233 0.62167 0.29512 0.0
C279 C 0.92569 0.66174 0.29045 0.0
H280 H 0.97136 0.57051 0.26191 0.0
C281 C 0.92268 0.67906 0.24602 0.0
H282 H 0.94619 0.60812 0.32893 0.0
C283 C 0.93754 0.65778 0.20732 0.0
C284 C 0.95632 0.61877 0.21201 0.0
H285 H 0.91114 0.71058 0.24136 0.0
H286 H 0.93631 0.67323 0.17393 0.0
C287 C 0.95721 0.60038 0.25652 0.0
C288 C 0.52618 0.2589 0.2061 0.0
C289 C 0.47764 0.24672 0.23016 0.0
H290 H 0.57656 0.23274 0.16471 0.0
C291 C 0.44291 0.19746 0.23213 0.0
H292 H 0.55345 0.29668 0.20408 0.0
C293 C 0.45556 0.16113 0.20921 0.0
C294 C 0.5036 0.17327 0.18448 0.0
H295 H 0.40489 0.18723 0.25 0.0
H296 H 0.42729 0.12363 0.2103 0.0
C297 C 0.53939 0.22234 0.18384 0.0
C298 C 0.10977 0.91437 0.70187 0.0
C299 C 0.06344 0.8718 0.7038 0.0
H300 H 0.14159 0.99112 0.68857 0.0
C301 C 0.01196 0.8749 0.69975 0.0
H302 H 0.14984 0.91257 0.70514 0.0
C303 C 1.00708 0.9201 0.69104 0.0
C304 C 0.05372 0.96231 0.68573 0.0
H305 H 0.97575 0.84221 0.70117 0.0
H306 H 0.9671 0.92126 0.685 0.0
C307 C 0.10501 0.95924 0.69271 0.0
C308 C 0.82506 0.49109 0.96065 0.0
C309 C 0.78004 0.45791 0.98264 0.0
H310 H 0.90817 0.53964 0.96715 0.0
C311 C 0.78423 0.45181 1.03045 0.0
H312 H 0.82343 0.49673 0.92407 0.0
C313 C 0.83288 0.47524 1.0549 0.0
C314 C 0.87864 0.50663 1.03264 0.0
H315 H 0.74998 0.42755 1.04898 0.0
H316 H 0.83468 0.46842 0.09124 0.0
C317 C 0.87374 0.51532 0.98543 0.0
C318 C 0.76584 0.64135 0.48841 0.0
C319 C 0.77553 0.68861 0.4716 0.0
H320 H 0.71385 0.58134 0.5281 0.0
C321 C 0.7364 0.70969 0.47981 0.0
H322 H 0.79531 0.6242 0.48318 0.0
C323 C 0.69102 0.68607 0.50639 0.0
C324 C 0.68237 0.63997 0.52525 0.0
H325 H 0.74214 0.74579 0.46713 0.0
H326 H 0.66289 0.70448 0.51257 0.0
C327 C 0.71953 0.61713 0.51472 0.0
C328 C 0.28671 0.37561 0.15884 0.0
C329 C 0.31526 0.39104 0.20044 0.0
H330 H 0.21382 0.36537 0.12038 0.0
C331 C 0.2913 0.40695 0.23667 0.0
H332 H 0.3046 0.36271 0.1307 0.0
C333 C 0.23944 0.40859 0.23091 0.0
C334 C 0.21095 0.39428 0.18879 0.0
H335 H 0.3129 0.4187 0.26914 0.0
H336 H 0.2224 0.4225 0.25892 0.0
C337 C 0.23494 0.37719 0.15302 0.0
C338 C 0.59384 0.2546 0.95422 0.0
C339 C 0.63144 0.29571 0.97748 0.0
H340 H 0.54447 0.17774 0.95686 0.0
C341 C 0.6464 0.28924 1.02305 0.0
H342 H 0.58097 0.25755 0.91932 0.0
C343 C 0.62742 0.24336 1.0435 0.0
C344 C 0.59083 0.20245 1.02009 0.0
H345 H 0.67281 0.31978 1.04362 0.0
H346 H 0.64048 0.24015 0.07835 0.0
C347 C 0.57321 0.20865 0.97556 0.0
C348 C 0.96377 0.89021 0.46153 0.0
C349 C 0.93248 0.84762 0.48494 0.0
H350 H 1.0082 0.96805 0.46539 0.0
C351 C 0.92472 0.85226 0.5323 0.0
H352 H 0.9706 0.88856 0.42511 0.0
C353 C 0.94502 0.89785 0.5549 0.0
C354 C 0.975 0.94045 0.53135 0.0
H355 H 0.90272 0.82054 0.55228 0.0
H356 H 0.93738 0.89962 0.59119 0.0
C357 C 0.98513 0.93598 0.48455 0.0
C358 C 0.26011 0.72695 0.70681 0.0
C359 C 0.26414 0.76984 0.73093 0.0
H360 H 0.30263 0.68479 0.67668 0.0
C361 C 0.3158 0.80551 0.74001 0.0
H362 H 0.22083 0.6988 0.69957 0.0
C363 C 0.36254 0.79778 0.72678 0.0
C364 C 0.35884 0.75413 0.70414 0.0
H365 H 0.3201 0.8394 0.75778 0.0
H366 H 0.40162 0.82601 0.73445 0.0
C367 C 0.30701 0.71907 0.6937 0.0
C368 C 0.66904 0.87766 0.82876 0.0
C369 C 0.68293 0.83603 0.83367 0.0
H370 H 0.679 0.9418 0.79028 0.0
C371 C 0.71129 0.82347 0.79832 0.0
H372 H 0.64699 0.88843 0.85512 0.0
C373 C 0.73141 0.85509 0.76197 0.0
C374 C 0.72256 0.89947 0.75971 0.0
H375 H 0.72118 0.79081 0.80035 0.0
H376 H 0.75743 0.84637 0.73786 0.0
C377 C 0.68818 0.90876 0.79185 0.0
C378 C 0.83805 0.29603 0.34224 0.0
C379 C 0.89311 0.30267 0.34693 0.0
H380 H 0.76526 0.26488 0.30192 0.0
C381 C 0.91951 0.29085 0.30975 0.0
H382 H 0.81666 0.30457 0.37051 0.0
C383 C 0.89017 0.26834 0.27027 0.0
C384 C 0.83388 0.25703 0.26746 0.0
H385 H 0.9622 0.29635 0.31236 0.0
H386 H 0.9109 0.2571 0.24313 0.0
C387 C 0.80863 0.27331 0.30284 0.0
C388 C 0.4468 0.625 0.40331 0.0
C389 C 0.4294 0.66451 0.40919 0.0
H390 H 0.47627 0.57367 0.43524 0.0
C391 C 0.42526 0.68052 0.45418 0.0
H392 H 0.45147 0.61245 0.36907 0.0
C393 C 0.43987 0.65856 0.49239 0.0
C394 C 0.4595 0.62018 0.48663 0.0
H395 H 0.41301 0.71156 0.4598 0.0
H396 H 0.43776 0.67303 0.52634 0.0
C397 C 0.46143 0.60301 0.44144 0.0
C398 C 0.11327 0.45894 0.9419 0.0
C399 C 0.13478 0.48927 0.90456 0.0
H400 H 0.08098 0.45255 1.00961 0.0
C401 C 0.14278 0.53932 0.90908 0.0
H402 H 0.10585 0.42014 0.93937 0.0
C403 C 0.12834 0.55827 0.94961 0.0
C404 C 0.10491 0.52751 0.98657 0.0
H405 H 0.15848 0.56357 0.88063 0.0
H406 H 0.13366 0.59665 0.95124 0.0
C407 C 0.09867 0.47769 0.98221 0.0
C408 C 0.607 0.91355 0.9952 0.0
C409 C 0.56114 0.8711 0.98795 0.0
H410 H 0.63745 0.98915 1.01554 0.0
C411 C 0.50933 0.87347 0.99041 0.0
H412 H 0.64732 0.91229 0.99321 0.0
C413 C 0.50351 0.91766 1.00261 0.0
C414 C 0.54951 0.95964 1.01298 0.0
H415 H 0.47349 0.84085 0.98487 0.0
H416 H 0.46311 0.91804 1.00698 0.0
C417 C 0.60129 0.95745 1.00776 0.0
C418 C 0.03074 0.26185 0.50064 0.0
C419 C 0.98176 0.24995 0.47577 0.0
H420 H 0.0816 0.2354 0.54177 0.0
C421 C 0.94649 0.20081 0.47231 0.0
H422 H 0.05847 0.29951 0.50375 0.0
C423 C 0.95921 0.16431 0.4944 0.0
C424 C 1.00781 0.17617 0.51984 0.0
H425 H 0.90814 0.1908 0.45374 0.0
H426 H 0.93061 0.12692 0.49208 0.0
C427 C 0.04396 0.22515 0.52211 0.0
C428 C 0.23516 0.70908 0.22294 0.0
C429 C 0.27488 0.68835 0.23001 0.0
H430 H 0.15992 0.70303 0.19087 0.0
C431 C 0.26473 0.64095 0.21214 0.0
H432 H 0.24143 0.74536 0.23641 0.0
C433 C 0.21721 0.6162 0.18573 0.0
C434 C 0.17939 0.6387 0.17625 0.0
H435 H 0.29472 0.62416 0.21651 0.0
H436 H 0.21117 0.58036 0.17132 0.0
C437 C 0.18853 0.68491 0.1963 0.0
C438 C 0.29228 0.44636 0.6665 0.0
C439 C 0.28787 0.45915 0.71283 0.0
H440 H 0.34177 0.45783 0.60683 0.0
C441 C 0.33144 0.49778 0.73293 0.0
H442 H 0.25908 0.41782 0.64913 0.0
C443 C 0.37874 0.52135 0.70813 0.0
C444 C 0.38399 0.50686 0.66255 0.0
H445 H 0.32981 0.50871 0.76833 0.0
H446 H 0.41185 0.5502 0.72528 0.0
C447 C 0.33973 0.46949 0.64193 0.0
C448 C 0.81456 0.8065 0.95604 0.0
C449 C 0.76263 0.77042 0.96048 0.0
H450 H 0.89999 0.82663 0.96689 0.0
C451 C 0.75755 0.72627 0.98161 0.0
H452 H 0.8196 0.84132 0.94068 0.0
C453 C 0.80382 0.71765 0.99637 0.0
C454 C 0.85598 0.75322 0.99059 0.0
H455 H 0.71803 0.69781 0.98526 0.0
H456 H 0.79875 0.68252 1.011 0.0
C457 C 0.86065 0.79803 0.97092 0.0
C458 C 0.46208 0.89029 0.24033 0.0
C459 C 0.43077 0.84672 0.21661 0.0
H460 H 0.50532 0.96808 0.23687 0.0
C461 C 0.42144 0.84954 0.16912 0.0
H462 H 0.47001 0.89001 0.27686 0.0
C463 C 0.44048 0.89436 0.14659 0.0
C464 C 0.47061 0.93793 0.17044 0.0
H465 H 0.3992 0.81697 0.14899 0.0
H466 H 0.43182 0.89474 0.11017 0.0
C467 C 0.48207 0.93524 0.21746 0.0
C468 C 0.17431 0.26869 0.7288 0.0
C469 C 0.14205 0.29705 0.73674 0.0
H470 H 0.17949 0.20299 0.69987 0.0
C471 C 0.08672 0.27657 0.72424 0.0
H472 H 0.2169 0.28273 0.73856 0.0
C473 C 0.06509 0.23039 0.70226 0.0
C474 C 0.09816 0.20337 0.69199 0.0
H475 H 0.06064 0.29725 0.72926 0.0
H476 H 0.02273 0.21675 0.69176 0.0
C477 C 0.15281 0.22275 0.70658 0.0
C478 C 0.78188 0.36769 0.47888 0.0
C479 C 0.82751 0.40445 0.49837 0.0
H480 H 0.69551 0.34082 0.46894 0.0
C481 C 0.82165 0.44406 0.52172 0.0
H482 H 0.78595 0.33672 0.46086 0.0
C483 C 0.77032 0.44657 0.52629 0.0
C484 C 0.72397 0.4093 0.50775 0.0
H485 H 0.85663 0.47273 0.53692 0.0
H486 H 0.76692 0.47775 0.54438 0.0
C487 C 0.73037 0.37013 0.48342 0.0
loop_
_geom_bond_atom_site_label_1
_geom_bond_atom_site_label_2
_geom_bond_distance
_geom_bond_site_symmetry_2
_ccdc_geom_bond_type
H0 C3 0.929 . S
H1 C6 0.929 . S
H2 C8 0.930 . S
C3 H0 0.929 . S
C3 C4 1.398 . S
C3 C5 1.396 . S
C4 C3 1.398 . S
C4 C8 1.407 . S
C5 C3 1.396 . S
C5 C6 1.394 . S
C6 H1 0.929 . S
C6 C5 1.394 . S
C6 C7 1.382 . S
C7 C6 1.382 . S
C7 C8 1.392 . S
C7 N9 1.420 . S
C8 H2 0.930 . S
C8 C4 1.407 . S
C8 C7 1.392 . S
N9 C7 1.420 . S
N9 C10 1.244 . S
C10 N9 1.244 . S
H11 C14 0.929 . S
H12 C17 0.929 . S
H13 C19 0.930 . S
C14 H11 0.929 . S
C14 C15 1.398 . S
C14 C16 1.396 . S
C15 C14 1.398 . S
C15 C19 1.407 . S
C16 C14 1.396 . S
C16 C17 1.394 . S
C17 H12 0.929 . S
C17 C16 1.394 . S
C17 C18 1.382 . S
C18 C17 1.382 . S
C18 C19 1.392 . S
C18 N20 1.420 . S
C19 H13 0.930 . S
C19 C15 1.407 . S
C19 C18 1.392 . S
N20 C18 1.420 . S
N20 C21 1.244 . S
C21 N20 1.244 . S
H22 C25 0.929 . S
H23 C28 0.929 . S
H24 C30 0.930 . S
C25 H22 0.929 . S
C25 C26 1.398 . S
C25 C27 1.396 . S
C26 C25 1.398 . S
C26 C30 1.407 . S
C27 C25 1.396 . S
C27 C28 1.394 . S
C28 H23 0.929 . S
C28 C27 1.394 . S
C28 C29 1.382 . S
C29 C28 1.382 . S
C29 C30 1.392 . S
C29 N31 1.420 . S
C30 H24 0.930 . S
C30 C26 1.407 . S
C30 C29 1.392 . S
N31 C29 1.420 . S
N31 C32 1.244 . S
C32 N31 1.244 . S
H33 C36 0.929 . S
H34 C39 0.929 . S
H35 C41 0.930 . S
C36 H33 0.929 . S
C36 C37 1.398 . S
C36 C38 1.396 . S
C37 C36 1.398 . S
C37 C41 1.407 . S
C38 C36 1.396 . S
C38 C39 1.394 . S
C39 H34 0.929 . S
C39 C38 1.394 . S
C39 C40 1.382 . S
C40 C39 1.382 . S
C40 C41 1.392 . S
C40 N42 1.420 . S
C41 H35 0.930 . S
C41 C37 1.407 . S
C41 C40 1.392 . S
N42 C40 1.420 . S
N42 C43 1.244 . S
C43 N42 1.244 . S
H44 C47 0.929 . S
H45 C50 0.929 . S
H46 C52 0.930 . S
C47 H44 0.929 . S
C47 C48 1.398 . S
C47 C49 1.396 . S
C48 C47 1.398 . S
C48 C52 1.407 . S
C49 C47 1.396 . S
C49 C50 1.394 . S
C50 H45 0.929 . S
C50 C49 1.394 . S
C50 C51 1.382 . S
C51 C50 1.382 . S
C51 C52 1.392 . S
C51 N53 1.420 . S
C52 H46 0.930 . S
C52 C48 1.407 . S
C52 C51 1.392 . S
N53 C51 1.420 . S
N53 C54 1.244 . S
C54 N53 1.244 . S
H55 C58 0.929 . S
H56 C61 0.929 . S
H57 C63 0.930 . S
C58 H55 0.929 . S
C58 C59 1.398 . S
C58 C60 1.396 . S
C59 C58 1.398 . S
C59 C63 1.407 . S
C60 C58 1.396 . S
C60 C61 1.394 . S
C61 H56 0.929 . S
C61 C60 1.394 . S
C61 C62 1.382 . S
C62 C61 1.382 . S
C62 C63 1.392 . S
C62 N64 1.420 . S
C63 H57 0.930 . S
C63 C59 1.407 . S
C63 C62 1.392 . S
N64 C62 1.420 . S
N64 C65 1.244 . S
C65 N64 1.244 . S
H66 C69 0.929 . S
H67 C72 0.929 . S
H68 C74 0.930 . S
C69 H66 0.929 . S
C69 C70 1.398 . S
C69 C71 1.396 . S
C70 C69 1.398 . S
C70 C74 1.407 . S
C71 C69 1.396 . S
C71 C72 1.394 . S
C72 H67 0.929 . S
C72 C71 1.394 . S
C72 C73 1.382 . S
C73 C72 1.382 . S
C73 C74 1.392 . S
C73 N75 1.420 . S
C74 H68 0.930 . S
C74 C70 1.407 . S
C74 C73 1.392 . S
N75 C73 1.420 . S
N75 C76 1.244 . S
C76 N75 1.244 . S
H77 C80 0.929 . S
H78 C83 0.929 . S
H79 C85 0.930 . S
C80 H77 0.929 . S
C80 C81 1.398 . S
C80 C82 1.396 . S
C81 C80 1.398 . S
C81 C85 1.407 . S
C82 C80 1.396 . S
C82 C83 1.394 . S
C83 H78 0.929 . S
C83 C82 1.394 . S
C83 C84 1.382 . S
C84 C83 1.382 . S
C84 C85 1.392 . S
C84 N86 1.420 . S
C85 H79 0.930 . S
C85 C81 1.407 . S
C85 C84 1.392 . S
N86 C84 1.420 . S
N86 C87 1.244 . S
C87 N86 1.244 . S
Dy88 O91 2.307 1_545 S
Dy88 O93 2.395 . S
Dy88 O94 2.379 . S
Dy88 O96 2.339 1_545 S
Dy88 O98 2.298 . S
Dy88 O102 2.275 . S
Dy88 C110 2.738 . S
Dy89 O92 2.298 1_645 S
Dy89 O95 2.275 1_545 S
Dy89 O97 2.307 . S
Dy89 O99 2.395 1_545 S
Dy89 O100 2.379 1_545 S
Dy89 O103 2.339 1_655 S
Dy89 C119 2.738 1_545 S
C90 O102 1.254 . S
C90 O103 1.257 . S
O91 Dy88 2.307 1_565 S
O91 C101 1.266 . S
O92 Dy89 2.298 1_465 S
O92 C101 1.236 . S
O93 Dy88 2.395 . S
O93 C110 1.255 . S
O94 Dy88 2.379 . S
O94 C110 1.249 . S
O95 Dy89 2.275 1_565 S
O95 C111 1.254 . S
O96 Dy88 2.339 1_565 S
O96 C111 1.257 1_455 S
O97 Dy89 2.307 . S
O97 C112 1.266 . S
O98 Dy88 2.298 . S
O98 C112 1.236 1_455 S
O99 Dy89 2.395 1_565 S
O99 C119 1.255 . S
O100 Dy89 2.379 1_565 S
O100 C119 1.249 . S
C101 O91 1.266 . S
C101 O92 1.236 . S
O102 Dy88 2.275 . S
O102 C90 1.254 . S
O103 Dy89 2.339 1_455 S
O103 C90 1.257 . S
C104 C107 1.344 . S
C104 C108 1.328 . S
C104 C110 1.516 . S
C105 C106 1.304 . S
C105 C109 1.323 . S
C106 C105 1.304 . S
C106 C107 1.371 . S
C106 H120 0.930 . S
C107 C104 1.344 . S
C107 C106 1.371 . S
C107 H121 0.931 . S
C108 C104 1.328 . S
C108 C109 1.433 . S
C108 H122 0.931 . S
C109 C105 1.323 . S
C109 C108 1.433 . S
C109 H123 0.933 . S
C110 Dy88 2.738 . S
C110 O93 1.255 . S
C110 O94 1.249 . S
C110 C104 1.516 . S
C111 O95 1.254 . S
C111 O96 1.257 1_655 S
C112 O97 1.266 . S
C112 O98 1.236 1_655 S
C113 C116 1.344 . S
C113 C117 1.328 . S
C113 C119 1.516 . S
C114 C115 1.304 . S
C114 C118 1.323 . S
C115 C114 1.304 . S
C115 C116 1.371 . S
C115 H124 0.930 . S
C116 C113 1.344 . S
C116 C115 1.371 . S
C116 H125 0.931 . S
C117 C113 1.328 . S
C117 C118 1.433 . S
C117 H126 0.931 . S
C118 C114 1.323 . S
C118 C117 1.433 . S
C118 H127 0.933 . S
C119 Dy89 2.738 1_565 S
C119 O99 1.255 . S
C119 O100 1.249 . S
C119 C113 1.516 . S
H120 C106 0.930 . S
H121 C107 0.931 . S
H122 C108 0.931 . S
H123 C109 0.933 . S
H124 C115 0.930 . S
H125 C116 0.931 . S
H126 C117 0.931 . S
H127 C118 0.933 . S
Dy128 O131 2.307 . S
Dy128 O133 2.395 1_544 S
Dy128 O134 2.379 1_544 S
Dy128 O136 2.339 1_554 S
Dy128 O138 2.298 1_544 S
Dy128 O142 2.275 1_545 S
Dy128 C150 2.738 1_544 S
Dy129 O132 2.298 . S
Dy129 O135 2.275 . S
Dy129 O137 2.307 1_545 S
Dy129 O139 2.395 . S
Dy129 O140 2.379 . S
Dy129 O143 2.339 1_545 S
Dy129 C159 2.738 . S
C130 O142 1.254 . S
C130 O143 1.257 . S
O131 Dy128 2.307 . S
O131 C141 1.266 . S
O132 Dy129 2.298 . S
O132 C141 1.236 . S
O133 Dy128 2.395 1_566 S
O133 C150 1.255 . S
O134 Dy128 2.379 1_566 S
O134 C150 1.249 . S
O135 Dy129 2.275 . S
O135 C151 1.254 . S
O136 Dy128 2.339 1_556 S
O136 C151 1.257 1_556 S
O137 Dy129 2.307 1_565 S
O137 C152 1.266 . S
O138 Dy128 2.298 1_566 S
O138 C152 1.236 1_556 S
O139 Dy129 2.395 . S
O139 C159 1.255 . S
O140 Dy129 2.379 . S
O140 C159 1.249 . S
C141 O131 1.266 . S
C141 O132 1.236 . S
O142 Dy128 2.275 1_565 S
O142 C130 1.254 . S
O143 Dy129 2.339 1_565 S
O143 C130 1.257 . S
C144 C147 1.344 . S
C144 C148 1.328 . S
C144 C150 1.516 . S
C145 C146 1.304 . S
C145 C149 1.323 . S
C146 C145 1.304 . S
C146 C147 1.371 . S
C146 H160 0.930 . S
C147 C144 1.344 . S
C147 C146 1.371 . S
C147 H161 0.931 . S
C148 C144 1.328 . S
C148 C149 1.433 . S
C148 H162 0.931 . S
C149 C145 1.323 . S
C149 C148 1.433 . S
C149 H163 0.933 . S
C150 Dy128 2.738 1_566 S
C150 O133 1.255 . S
C150 O134 1.249 . S
C150 C144 1.516 . S
C151 O135 1.254 . S
C151 O136 1.257 1_554 S
C152 O137 1.266 . S
C152 O138 1.236 1_554 S
C153 C156 1.344 . S
C153 C157 1.328 . S
C153 C159 1.516 . S
C154 C155 1.304 . S
C154 C158 1.323 . S
C155 C154 1.304 . S
C155 C156 1.371 . S
C155 H164 0.930 . S
C156 C153 1.344 . S
C156 C155 1.371 . S
C156 H165 0.931 . S
C157 C153 1.328 . S
C157 C158 1.433 . S
C157 H166 0.931 . S
C158 C154 1.323 . S
C158 C157 1.433 . S
C158 H167 0.933 . S
C159 Dy129 2.738 . S
C159 O139 1.255 . S
C159 O140 1.249 . S
C159 C153 1.516 . S
H160 C146 0.930 . S
H161 C147 0.931 . S
H162 C148 0.931 . S
H163 C149 0.933 . S
H164 C155 0.930 . S
H165 C156 0.931 . S
H166 C157 0.931 . S
H167 C158 0.933 . S
Dy168 O171 2.307 . S
Dy168 O173 2.395 . S
Dy168 O174 2.379 . S
Dy168 O176 2.339 . S
Dy168 O178 2.298 . S
Dy168 O182 2.275 . S
Dy168 C190 2.738 . S
Dy169 O172 2.298 . S
Dy169 O175 2.275 . S
Dy169 O177 2.307 . S
Dy169 O179 2.395 . S
Dy169 O180 2.379 . S
Dy169 O183 2.339 . S
Dy169 C199 2.738 . S
C170 O182 1.254 . S
C170 O183 1.257 . S
O171 Dy168 2.307 . S
O171 C181 1.266 . S
O172 Dy169 2.298 . S
O172 C181 1.236 . S
O173 Dy168 2.395 . S
O173 C190 1.255 . S
O174 Dy168 2.379 . S
O174 C190 1.249 . S
O175 Dy169 2.275 . S
O175 C191 1.254 . S
O176 Dy168 2.339 . S
O176 C191 1.257 . S
O177 Dy169 2.307 . S
O177 C192 1.266 . S
O178 Dy168 2.298 . S
O178 C192 1.236 . S
O179 Dy169 2.395 . S
O179 C199 1.255 . S
O180 Dy169 2.379 . S
O180 C199 1.249 . S
C181 O171 1.266 . S
C181 O172 1.236 . S
O182 Dy168 2.275 . S
O182 C170 1.254 . S
O183 Dy169 2.339 . S
O183 C170 1.257 . S
C184 C187 1.344 . S
C184 C188 1.328 . S
C184 C190 1.516 . S
C185 C186 1.304 . S
C185 C189 1.323 . S
C186 C185 1.304 . S
C186 C187 1.371 . S
C186 H200 0.930 . S
C187 C184 1.344 . S
C187 C186 1.371 . S
C187 H201 0.931 . S
C188 C184 1.328 . S
C188 C189 1.433 . S
C188 H202 0.931 . S
C189 C185 1.323 . S
C189 C188 1.433 . S
C189 H203 0.933 . S
C190 Dy168 2.738 . S
C190 O173 1.255 . S
C190 O174 1.249 . S
C190 C184 1.516 . S
C191 O175 1.254 . S
C191 O176 1.257 . S
C192 O177 1.266 . S
C192 O178 1.236 . S
C193 C196 1.344 . S
C193 C197 1.328 . S
C193 C199 1.516 . S
C194 C195 1.304 . S
C194 C198 1.323 . S
C195 C194 1.304 . S
C195 C196 1.371 . S
C195 H204 0.930 . S
C196 C193 1.344 . S
C196 C195 1.371 . S
C196 H205 0.931 . S
C197 C193 1.328 . S
C197 C198 1.433 . S
C197 H206 0.931 . S
C198 C194 1.323 . S
C198 C197 1.433 . S
C198 H207 0.933 . S
C199 Dy169 2.738 . S
C199 O179 1.255 . S
C199 O180 1.249 . S
C199 C193 1.516 . S
H200 C186 0.930 . S
H201 C187 0.931 . S
H202 C188 0.931 . S
H203 C189 0.933 . S
H204 C195 0.930 . S
H205 C196 0.931 . S
H206 C197 0.931 . S
H207 C198 0.933 . S
Dy208 O211 2.307 1_556 S
Dy208 O213 2.395 1_455 S
Dy208 O214 2.379 . S
Dy208 O216 2.339 . S
Dy208 O218 2.298 1_455 S
Dy208 O222 2.275 1_556 S
Dy208 C230 2.738 1_455 S
Dy209 O212 2.298 . S
Dy209 O215 2.275 1_554 S
Dy209 O217 2.307 1_455 S
Dy209 O219 2.395 . S
Dy209 O220 2.379 . S
Dy209 O223 2.339 . S
Dy209 C239 2.738 . S
C210 O222 1.258 . S
C210 O223 1.265 . S
O211 Dy208 2.307 1_554 S
O211 C221 1.266 . S
O212 Dy209 2.298 . S
O212 C221 1.236 . S
O213 Dy208 2.395 1_655 S
O213 C230 1.255 . S
O214 Dy208 2.379 . S
O214 C230 1.249 1_455 S
O215 Dy209 2.275 1_556 S
O215 C231 1.254 . S
O216 Dy208 2.339 . S
O216 C231 1.257 . S
O217 Dy209 2.307 1_655 S
O217 C232 1.266 1_554 S
O218 Dy208 2.298 1_655 S
O218 C232 1.236 . S
O219 Dy209 2.395 . S
O219 C239 1.255 . S
O220 Dy209 2.379 . S
O220 C239 1.249 . S
C221 O211 1.266 . S
C221 O212 1.236 . S
O222 Dy208 2.275 1_554 S
O222 C210 1.258 . S
O223 Dy209 2.339 . S
O223 C210 1.265 . S
C224 C227 1.344 . S
C224 C228 1.328 . S
C224 C230 1.516 . S
C225 C226 1.304 . S
C225 C229 1.323 . S
C226 C225 1.304 . S
C226 C227 1.371 . S
C226 H240 0.930 . S
C227 C224 1.344 . S
C227 C226 1.371 . S
C227 H241 0.931 . S
C228 C224 1.328 . S
C228 C229 1.433 . S
C228 H242 0.931 . S
C229 C225 1.323 . S
C229 C228 1.433 . S
C229 H243 0.933 . S
C230 Dy208 2.738 1_655 S
C230 O213 1.255 . S
C230 O214 1.249 1_655 S
C230 C224 1.516 . S
C231 O215 1.254 . S
C231 O216 1.257 . S
C232 O217 1.266 1_556 S
C232 O218 1.236 . S
C233 C236 1.344 . S
C233 C237 1.328 . S
C233 C239 1.516 . S
C234 C235 1.304 . S
C234 C238 1.323 . S
C235 C234 1.304 . S
C235 C236 1.371 . S
C235 H244 0.930 . S
C236 C233 1.344 . S
C236 C235 1.371 . S
C236 H245 0.931 . S
C237 C233 1.328 . S
C237 C238 1.433 . S
C237 H246 0.931 . S
C238 C234 1.323 . S
C238 C237 1.433 . S
C238 H247 0.933 . S
C239 Dy209 2.738 . S
C239 O219 1.255 . S
C239 O220 1.249 . S
C239 C233 1.516 . S
H240 C226 0.930 . S
H241 C227 0.931 . S
H242 C228 0.931 . S
H243 C229 0.933 . S
H244 C235 0.930 . S
H245 C236 0.931 . S
H246 C237 0.931 . S
H247 C238 0.933 . S
C248 C249 1.387 . S
C248 H252 0.950 . S
C248 C257 1.390 . S
C249 C248 1.387 . S
C249 C251 1.387 . S
H250 C257 0.950 . S
C251 C249 1.387 . S
C251 C253 1.390 . S
C251 H255 0.950 . S
H252 C248 0.950 . S
C253 C251 1.390 . S
C253 C254 1.387 . S
C253 H256 0.950 . S
C254 C253 1.387 . S
C254 C257 1.387 . S
H255 C251 0.950 . S
H256 C253 0.950 . S
C257 C248 1.390 . S
C257 H250 0.950 . S
C257 C254 1.387 . S
C258 C259 1.387 . S
C258 H262 0.950 . S
C258 C267 1.390 . S
C259 C258 1.387 . S
C259 C261 1.387 . S
H260 C267 0.950 . S
C261 C259 1.387 . S
C261 C263 1.390 . S
C261 H265 0.950 . S
H262 C258 0.950 . S
C263 C261 1.390 . S
C263 C264 1.387 . S
C263 H266 0.950 . S
C264 C263 1.387 . S
C264 C267 1.387 . S
H265 C261 0.950 . S
H266 C263 0.950 . S
C267 C258 1.390 . S
C267 H260 0.950 . S
C267 C264 1.387 . S
C268 C269 1.387 . S
C268 H272 0.950 . S
C268 C277 1.390 . S
C269 C268 1.387 . S
C269 C271 1.387 . S
H270 C277 0.950 . S
C271 C269 1.387 . S
C271 C273 1.390 . S
C271 H275 0.950 . S
H272 C268 0.950 . S
C273 C271 1.390 . S
C273 C274 1.387 . S
C273 H276 0.950 . S
C274 C273 1.387 . S
C274 C277 1.387 . S
H275 C271 0.950 . S
H276 C273 0.950 . S
C277 C268 1.390 . S
C277 H270 0.950 . S
C277 C274 1.387 . S
C278 C279 1.387 . S
C278 H282 0.950 . S
C278 C287 1.390 . S
C279 C278 1.387 . S
C279 C281 1.387 . S
H280 C287 0.950 . S
C281 C279 1.387 . S
C281 C283 1.390 . S
C281 H285 0.950 . S
H282 C278 0.950 . S
C283 C281 1.390 . S
C283 C284 1.387 . S
C283 H286 0.950 1_655 S
C284 C283 1.387 . S
C284 C287 1.387 . S
H285 C281 0.950 . S
H286 C283 0.950 1_455 S
C287 C278 1.390 . S
C287 H280 0.950 . S
C287 C284 1.387 . S
C288 C289 1.387 . S
C288 H292 0.950 . S
C288 C297 1.390 . S
C289 C288 1.387 . S
C289 C291 1.387 . S
H290 C297 0.950 . S
C291 C289 1.387 . S
C291 C293 1.390 . S
C291 H295 0.950 . S
H292 C288 0.950 . S
C293 C291 1.390 . S
C293 C294 1.387 . S
C293 H296 0.950 . S
C294 C293 1.387 . S
C294 C297 1.387 . S
H295 C291 0.950 . S
H296 C293 0.950 . S
C297 C288 1.390 . S
C297 H290 0.950 . S
C297 C294 1.387 . S
C298 C299 1.387 . S
C298 H302 0.950 . S
C298 C307 1.390 . S
C299 C298 1.387 . S
C299 C301 1.387 1_455 S
H300 C307 0.950 . S
C301 C299 1.387 1_655 S
C301 C303 1.390 . S
C301 H305 0.950 . S
H302 C298 0.950 . S
C303 C301 1.390 . S
C303 C304 1.387 1_655 S
C303 H306 0.950 . S
C304 C303 1.387 1_455 S
C304 C307 1.387 . S
H305 C301 0.950 . S
H306 C303 0.950 . S
C307 C298 1.390 . S
C307 H300 0.950 . S
C307 C304 1.387 . S
C308 C309 1.387 . S
C308 H312 0.950 . S
C308 C317 1.390 . S
C309 C308 1.387 . S
C309 C311 1.387 . S
H310 C317 0.950 . S
C311 C309 1.387 . S
C311 C313 1.390 . S
C311 H315 0.950 . S
H312 C308 0.950 . S
C313 C311 1.390 . S
C313 C314 1.387 . S
C313 H316 0.950 1_556 S
C314 C313 1.387 . S
C314 C317 1.387 . S
H315 C311 0.950 . S
H316 C313 0.950 1_554 S
C317 C308 1.390 . S
C317 H310 0.950 . S
C317 C314 1.387 . S
C318 C319 1.387 . S
C318 H322 0.950 . S
C318 C327 1.390 . S
C319 C318 1.387 . S
C319 C321 1.387 . S
H320 C327 0.950 . S
C321 C319 1.387 . S
C321 C323 1.390 . S
C321 H325 0.950 . S
H322 C318 0.950 . S
C323 C321 1.390 . S
C323 C324 1.387 . S
C323 H326 0.950 . S
C324 C323 1.387 . S
C324 C327 1.387 . S
H325 C321 0.950 . S
H326 C323 0.950 . S
C327 C318 1.390 . S
C327 H320 0.950 . S
C327 C324 1.387 . S
C328 C329 1.387 . S
C328 H332 0.950 . S
C328 C337 1.390 . S
C329 C328 1.387 . S
C329 C331 1.387 . S
H330 C337 0.950 . S
C331 C329 1.387 . S
C331 C333 1.390 . S
C331 H335 0.950 . S
H332 C328 0.950 . S
C333 C331 1.390 . S
C333 C334 1.387 . S
C333 H336 0.950 . S
C334 C333 1.387 . S
C334 C337 1.387 . S
H335 C331 0.950 . S
H336 C333 0.950 . S
C337 C328 1.390 . S
C337 H330 0.950 . S
C337 C334 1.387 . S
C338 C339 1.387 . S
C338 H342 0.950 . S
C338 C347 1.390 . S
C339 C338 1.387 . S
C339 C341 1.387 . S
H340 C347 0.950 . S
C341 C339 1.387 . S
C341 C343 1.390 1_556 S
C341 H345 0.950 . S
H342 C338 0.950 . S
C343 C341 1.390 1_554 S
C343 C344 1.387 1_554 S
C343 H346 0.950 . S
C344 C343 1.387 1_556 S
C344 C347 1.387 . S
H345 C341 0.950 . S
H346 C343 0.950 . S
C347 C338 1.390 . S
C347 H340 0.950 . S
C347 C344 1.387 . S
C348 C349 1.387 . S
C348 H352 0.950 . S
C348 C357 1.390 . S
C349 C348 1.387 . S
C349 C351 1.387 . S
H350 C357 0.950 . S
C351 C349 1.387 . S
C351 C353 1.390 . S
C351 H355 0.950 . S
H352 C348 0.950 . S
C353 C351 1.390 . S
C353 C354 1.387 . S
C353 H356 0.950 . S
C354 C353 1.387 . S
C354 C357 1.387 . S
H355 C351 0.950 . S
H356 C353 0.950 . S
C357 C348 1.390 . S
C357 H350 0.950 . S
C357 C354 1.387 . S
C358 C359 1.387 . S
C358 H362 0.950 . S
C358 C367 1.390 . S
C359 C358 1.387 . S
C359 C361 1.387 . S
H360 C367 0.950 . S
C361 C359 1.387 . S
C361 C363 1.390 . S
C361 H365 0.950 . S
H362 C358 0.950 . S
C363 C361 1.390 . S
C363 C364 1.387 . S
C363 H366 0.950 . S
C364 C363 1.387 . S
C364 C367 1.387 . S
H365 C361 0.950 . S
H366 C363 0.950 . S
C367 C358 1.390 . S
C367 H360 0.950 . S
C367 C364 1.387 . S
C368 C369 1.387 . S
C368 H372 0.950 . S
C368 C377 1.390 . S
C369 C368 1.387 . S
C369 C371 1.387 . S
H370 C377 0.950 . S
C371 C369 1.387 . S
C371 C373 1.390 . S
C371 H375 0.950 . S
H372 C368 0.950 . S
C373 C371 1.390 . S
C373 C374 1.387 . S
C373 H376 0.950 . S
C374 C373 1.387 . S
C374 C377 1.387 . S
H375 C371 0.950 . S
H376 C373 0.950 . S
C377 C368 1.390 . S
C377 H370 0.950 . S
C377 C374 1.387 . S
C378 C379 1.387 . S
C378 H382 0.950 . S
C378 C387 1.390 . S
C379 C378 1.387 . S
C379 C381 1.387 . S
H380 C387 0.950 . S
C381 C379 1.387 . S
C381 C383 1.390 . S
C381 H385 0.950 . S
H382 C378 0.950 . S
C383 C381 1.390 . S
C383 C384 1.387 . S
C383 H386 0.950 . S
C384 C383 1.387 . S
C384 C387 1.387 . S
H385 C381 0.950 . S
H386 C383 0.950 . S
C387 C378 1.390 . S
C387 H380 0.950 . S
C387 C384 1.387 . S
C388 C389 1.387 . S
C388 H392 0.950 . S
C388 C397 1.390 . S
C389 C388 1.387 . S
C389 C391 1.387 . S
H390 C397 0.950 . S
C391 C389 1.387 . S
C391 C393 1.390 . S
C391 H395 0.950 . S
H392 C388 0.950 . S
C393 C391 1.390 . S
C393 C394 1.387 . S
C393 H396 0.950 . S
C394 C393 1.387 . S
C394 C397 1.387 . S
H395 C391 0.950 . S
H396 C393 0.950 . S
C397 C388 1.390 . S
C397 H390 0.950 . S
C397 C394 1.387 . S
C398 C399 1.387 . S
C398 H402 0.950 . S
C398 C407 1.390 . S
C399 C398 1.387 . S
C399 C401 1.387 . S
H400 C407 0.950 . S
C401 C399 1.387 . S
C401 C403 1.390 . S
C401 H405 0.950 . S
H402 C398 0.950 . S
C403 C401 1.390 . S
C403 C404 1.387 . S
C403 H406 0.950 . S
C404 C403 1.387 . S
C404 C407 1.387 . S
H405 C401 0.950 . S
H406 C403 0.950 . S
C407 C398 1.390 . S
C407 H400 0.950 . S
C407 C404 1.387 . S
C408 C409 1.387 . S
C408 H412 0.950 . S
C408 C417 1.390 . S
C409 C408 1.387 . S
C409 C411 1.387 . S
H410 C417 0.950 . S
C411 C409 1.387 . S
C411 C413 1.390 . S
C411 H415 0.950 . S
H412 C408 0.950 . S
C413 C411 1.390 . S
C413 C414 1.387 . S
C413 H416 0.950 . S
C414 C413 1.387 . S
C414 C417 1.387 . S
H415 C411 0.950 . S
H416 C413 0.950 . S
C417 C408 1.390 . S
C417 H410 0.950 . S
C417 C414 1.387 . S
C418 C419 1.387 1_455 S
C418 H422 0.950 . S
C418 C427 1.390 . S
C419 C418 1.387 1_655 S
C419 C421 1.387 . S
H420 C427 0.950 . S
C421 C419 1.387 . S
C421 C423 1.390 . S
C421 H425 0.950 . S
H422 C418 0.950 . S
C423 C421 1.390 . S
C423 C424 1.387 . S
C423 H426 0.950 . S
C424 C423 1.387 . S
C424 C427 1.387 1_655 S
H425 C421 0.950 . S
H426 C423 0.950 . S
C427 C418 1.390 . S
C427 H420 0.950 . S
C427 C424 1.387 1_455 S
C428 C429 1.387 . S
C428 H432 0.950 . S
C428 C437 1.390 . S
C429 C428 1.387 . S
C429 C431 1.387 . S
H430 C437 0.950 . S
C431 C429 1.387 . S
C431 C433 1.390 . S
C431 H435 0.950 . S
H432 C428 0.950 . S
C433 C431 1.390 . S
C433 C434 1.387 . S
C433 H436 0.950 . S
C434 C433 1.387 . S
C434 C437 1.387 . S
H435 C431 0.950 . S
H436 C433 0.950 . S
C437 C428 1.390 . S
C437 H430 0.950 . S
C437 C434 1.387 . S
C438 C439 1.387 . S
C438 H442 0.950 . S
C438 C447 1.390 . S
C439 C438 1.387 . S
C439 C441 1.387 . S
H440 C447 0.950 . S
C441 C439 1.387 . S
C441 C443 1.390 . S
C441 H445 0.950 . S
H442 C438 0.950 . S
C443 C441 1.390 . S
C443 C444 1.387 . S
C443 H446 0.950 . S
C444 C443 1.387 . S
C444 C447 1.387 . S
H445 C441 0.950 . S
H446 C443 0.950 . S
C447 C438 1.390 . S
C447 H440 0.950 . S
C447 C444 1.387 . S
C448 C449 1.387 . S
C448 H452 0.950 . S
C448 C457 1.390 . S
C449 C448 1.387 . S
C449 C451 1.387 . S
H450 C457 0.950 . S
C451 C449 1.387 . S
C451 C453 1.390 . S
C451 H455 0.950 . S
H452 C448 0.950 . S
C453 C451 1.390 . S
C453 C454 1.387 . S
C453 H456 0.950 . S
C454 C453 1.387 . S
C454 C457 1.387 . S
H455 C451 0.950 . S
H456 C453 0.950 . S
C457 C448 1.390 . S
C457 H450 0.950 . S
C457 C454 1.387 . S
C458 C459 1.387 . S
C458 H462 0.950 . S
C458 C467 1.390 . S
C459 C458 1.387 . S
C459 C461 1.387 . S
H460 C467 0.950 . S
C461 C459 1.387 . S
C461 C463 1.390 . S
C461 H465 0.950 . S
H462 C458 0.950 . S
C463 C461 1.390 . S
C463 C464 1.387 . S
C463 H466 0.950 . S
C464 C463 1.387 . S
C464 C467 1.387 . S
H465 C461 0.950 . S
H466 C463 0.950 . S
C467 C458 1.390 . S
C467 H460 0.950 . S
C467 C464 1.387 . S
C468 C469 1.387 . S
C468 H472 0.950 . S
C468 C477 1.390 . S
C469 C468 1.387 . S
C469 C471 1.387 . S
H470 C477 0.950 . S
C471 C469 1.387 . S
C471 C473 1.390 . S
C471 H475 0.950 . S
H472 C468 0.950 . S
C473 C471 1.390 . S
C473 C474 1.387 . S
C473 H476 0.950 . S
C474 C473 1.387 . S
C474 C477 1.387 . S
H475 C471 0.950 . S
H476 C473 0.950 . S
C477 C468 1.390 . S
C477 H470 0.950 . S
C477 C474 1.387 . S
C478 C479 1.387 . S
C478 H482 0.950 . S
C478 C487 1.390 . S
C479 C478 1.387 . S
C479 C481 1.387 . S
H480 C487 0.950 . S
C481 C479 1.387 . S
C481 C483 1.390 . S
C481 H485 0.950 . S
H482 C478 0.950 . S
C483 C481 1.390 . S
C483 C484 1.387 . S
C483 H486 0.950 . S
C484 C483 1.387 . S
C484 C487 1.387 . S
H485 C481 0.950 . S
H486 C483 0.950 . S
C487 C478 1.390 . S
C487 H480 0.950 . S
C487 C484 1.387 . S
C249 C4 1.086 . S
C254 C105 1.133 . S
C259 C16 1.175 . S
C264 C145 1.238 . S
C274 C170 2.190 . S
C269 C32 2.208 . S
C279 C43 2.438 . S
C284 C210 2.369 1_655 S
C294 C141 2.077 . S
C289 C5 1.949 . S
C304 C101 1.562 . S
C299 C21 1.419 . S
C314 C232 1.775 . S
C309 C27 1.793 . S
C324 C192 1.755 . S
C319 C37 1.822 . S
C329 C10 1.325 . S
C334 C234 1.341 . S
C344 C151 2.397 1_556 S
C339 C26 2.442 . S
C349 C38 1.996 . S
C354 C111 1.969 . S
C359 C15 1.685 . S
C364 C194 1.725 . S
C374 C114 1.196 . S
C369 C48 1.159 . S
C379 C59 1.068 . S
C384 C154 1.100 . S
C389 C76 2.451 . S
C394 C191 2.386 . S
C399 C87 2.280 . S
C404 C231 2.263 . S
C409 C54 1.478 . S
C414 C152 1.604 1_556 S
C424 C112 2.048 . S
C419 C60 1.934 . S
C434 C221 1.765 . S
C429 C71 1.779 . S
C444 C181 1.776 . S
C439 C82 1.790 . S
C449 C49 1.707 . S
C454 C225 1.794 . S
C464 C130 1.907 . S
C459 C70 1.955 . S
C474 C90 2.368 . S
C469 C81 2.422 . S
C479 C65 1.336 . S
C484 C185 1.370 . S
