# Generated by pormake.
# Topology pyr, (3,6)-cn, num edge types: 1
# Building blocks:
#     Node 0, Type 0, BuildingBlock: BETDIP_clean_linker_0, # of connection points: 3
#     Node 1, Type 0, BuildingBlock: BETDIP_clean_linker_0, # of connection points: 3
#     Node 2, Type 0, BuildingBlock: BETDIP_clean_linker_0, # of connection points: 3
#     Node 3, Type 0, BuildingBlock: BETDIP_clean_linker_0, # of connection points: 3
#     Node 4, Type 0, BuildingBlock: BETDIP_clean_linker_0, # of connection points: 3
#     Node 5, Type 0, BuildingBlock: BETDIP_clean_linker_0, # of connection points: 3
#     Node 6, Type 0, BuildingBlock: BETDIP_clean_linker_0, # of connection points: 3
#     Node 7, Type 0, BuildingBlock: BETDIP_clean_linker_0, # of connection points: 3
#     Node 8, Type 1, BuildingBlock: PAMTUU_clean_sbu_0, # of connection points: 6
#     Node 9, Type 1, BuildingBlock: PAMTUU_clean_sbu_0, # of connection points: 6
#     Node 10, Type 1, BuildingBlock: PAMTUU_clean_sbu_0, # of connection points: 6
#     Node 11, Type 1, BuildingBlock: PAMTUU_clean_sbu_0, # of connection points: 6
#     Edge 12, Type (0, 1), BuildingBlock: XUDNAN_clean_linker_2, # of connection points: 2
#     Edge 13, Type (0, 1), BuildingBlock: XUDNAN_clean_linker_2, # of connection points: 2
#     Edge 14, Type (0, 1), BuildingBlock: XUDNAN_clean_linker_2, # of connection points: 2
#     Edge 15, Type (0, 1), BuildingBlock: XUDNAN_clean_linker_2, # of connection points: 2
#     Edge 16, Type (0, 1), BuildingBlock: XUDNAN_clean_linker_2, # of connection points: 2
#     Edge 17, Type (0, 1), BuildingBlock: XUDNAN_clean_linker_2, # of connection points: 2
#     Edge 18, Type (0, 1), BuildingBlock: XUDNAN_clean_linker_2, # of connection points: 2
#     Edge 19, Type (0, 1), BuildingBlock: XUDNAN_clean_linker_2, # of connection points: 2
#     Edge 20, Type (0, 1), BuildingBlock: XUDNAN_clean_linker_2, # of connection points: 2
#     Edge 21, Type (0, 1), BuildingBlock: XUDNAN_clean_linker_2, # of connection points: 2
#     Edge 22, Type (0, 1), BuildingBlock: XUDNAN_clean_linker_2, # of connection points: 2
#     Edge 23, Type (0, 1), BuildingBlock: XUDNAN_clean_linker_2, # of connection points: 2
#     Edge 24, Type (0, 1), BuildingBlock: XUDNAN_clean_linker_2, # of connection points: 2
#     Edge 25, Type (0, 1), BuildingBlock: XUDNAN_clean_linker_2, # of connection points: 2
#     Edge 26, Type (0, 1), BuildingBlock: XUDNAN_clean_linker_2, # of connection points: 2
#     Edge 27, Type (0, 1), BuildingBlock: XUDNAN_clean_linker_2, # of connection points: 2
#     Edge 28, Type (0, 1), BuildingBlock: XUDNAN_clean_linker_2, # of connection points: 2
#     Edge 29, Type (0, 1), BuildingBlock: XUDNAN_clean_linker_2, # of connection points: 2
#     Edge 30, Type (0, 1), BuildingBlock: XUDNAN_clean_linker_2, # of connection points: 2
#     Edge 31, Type (0, 1), BuildingBlock: XUDNAN_clean_linker_2, # of connection points: 2
#     Edge 32, Type (0, 1), BuildingBlock: XUDNAN_clean_linker_2, # of connection points: 2
#     Edge 33, Type (0, 1), BuildingBlock: XUDNAN_clean_linker_2, # of connection points: 2
#     Edge 34, Type (0, 1), BuildingBlock: XUDNAN_clean_linker_2, # of connection points: 2
#     Edge 35, Type (0, 1), BuildingBlock: XUDNAN_clean_linker_2, # of connection points: 2
# Relax obj value: 0.124
# Max RMSD: 0.160
# Mean RMSD: 0.131
data_MOF--net-pyr--node1-PAMTUU_clean_sbu_0--node2-BETDIP_clean_linker_0--edge1-XUDNAN_clean_linker_2
_symmetry_space_group_name_H-M    P1
_symmetry_Int_Tables_number       1
_symmetry_cell_setting            triclinic
loop_
_symmetry_equiv_pos_as_xyz
'x, y, z'
_cell_length_a     37.648925
_cell_length_b     38.549365
_cell_length_c     38.211103
_cell_angle_alpha  90.959915
_cell_angle_beta   88.334562
_cell_angle_gamma 106.63668
loop_
_atom_site_label
_atom_site_type_symbol
_atom_site_fract_x
_atom_site_fract_y
_atom_site_fract_z
_atom_type_partial_charge
H0 H 0.32295 0.31783 0.2078 0.0
H1 H 0.37083 0.25787 0.13474 0.0
H2 H 0.35647 0.22692 0.24311 0.0
H3 H 0.32593 0.27192 0.0996 0.0
C4 C 0.32146 0.29671 0.11017 0.0
C5 C 0.3353 0.296 0.20292 0.0
C6 C 0.33665 0.27203 0.22974 0.0
C7 C 0.34656 0.29033 0.16873 0.0
C8 C 0.36264 0.26225 0.16144 0.0
C9 C 0.36761 0.23973 0.18849 0.0
C10 C 0.35423 0.24488 0.22248 0.0
N11 N 0.33809 0.31152 0.14201 0.0
H12 H 0.18734 0.81426 0.74767 0.0
H13 H 0.16577 0.73761 0.66222 0.0
H14 H 0.25496 0.74233 0.73066 0.0
H15 H 0.11149 0.74884 0.66033 0.0
C16 C 0.11687 0.77676 0.66908 0.0
C17 C 0.19318 0.7916 0.73396 0.0
C18 C 0.22407 0.78026 0.74275 0.0
C19 C 0.17109 0.77564 0.70576 0.0
C20 C 0.18061 0.74846 0.68559 0.0
C21 C 0.21094 0.73641 0.69448 0.0
C22 C 0.23133 0.75138 0.72393 0.0
N23 N 0.14245 0.79062 0.69601 0.0
H24 H 0.70954 0.41908 0.85078 0.0
H25 H 0.61988 0.32099 0.86406 0.0
H26 H 0.71096 0.34637 0.93459 0.0
H27 H 0.65974 0.43853 0.82746 0.0
C28 C 0.64682 0.41521 0.8112 0.0
C29 C 0.6966 0.39451 0.86508 0.0
C30 C 0.71487 0.38543 0.89398 0.0
C31 C 0.66229 0.37134 0.85387 0.0
C32 C 0.64631 0.33865 0.87218 0.0
C33 C 0.66331 0.32969 0.90192 0.0
C34 C 0.69775 0.35308 0.91188 0.0
N35 N 0.64383 0.37959 0.82394 0.0
H36 H 0.81328 0.63807 0.36609 0.0
H37 H 0.91634 0.72206 0.35299 0.0
H38 H 0.8399 0.73045 0.43563 0.0
H39 H 0.91734 0.69828 0.29999 0.0
C40 C 0.90217 0.66977 0.30106 0.0
C41 C 0.83217 0.66335 0.37483 0.0
C42 C 0.82205 0.68255 0.40321 0.0
C43 C 0.86593 0.67728 0.35633 0.0
C44 C 0.89009 0.71092 0.36664 0.0
C45 C 0.88061 0.73037 0.39516 0.0
C46 C 0.84709 0.7155 0.41362 0.0
N47 N 0.87429 0.65672 0.32751 0.0
H48 H 0.64679 0.75913 0.94969 0.0
H49 H 0.73671 0.74922 0.88228 0.0
H50 H 0.71783 0.85307 0.89824 0.0
H51 H 0.66547 0.66655 0.88803 0.0
C52 C 0.68788 0.6855 0.9017 0.0
C53 C 0.67071 0.77161 0.93306 0.0
C54 C 0.67962 0.80875 0.92559 0.0
C55 C 0.69119 0.7499 0.91783 0.0
C56 C 0.72154 0.76578 0.89541 0.0
C57 C 0.73183 0.8031 0.88876 0.0
C58 C 0.71077 0.82445 0.90407 0.0
N59 N 0.67881 0.71194 0.92375 0.0
H60 H 0.87698 0.2698 0.34825 0.0
H61 H 0.859 0.3418 0.4295 0.0
H62 H 0.80818 0.33896 0.32979 0.0
H63 H 0.93422 0.27988 0.37931 0.0
C64 C 0.9194 0.27365 0.40431 0.0
C65 C 0.86606 0.29176 0.35669 0.0
C66 C 0.84233 0.30307 0.33473 0.0
C67 C 0.87271 0.30619 0.39075 0.0
C68 C 0.85532 0.33195 0.40273 0.0
C69 C 0.83259 0.34438 0.38057 0.0
C70 C 0.82683 0.33033 0.34647 0.0
N71 N 0.89305 0.29208 0.4147 0.0
H72 H 0.30861 0.64196 0.24032 0.0
H73 H 0.41441 0.72452 0.23627 0.0
H74 H 0.32997 0.72548 0.1631 0.0
H75 H 0.42053 0.70335 0.2928 0.0
C76 C 0.40349 0.67542 0.29426 0.0
C77 C 0.327 0.66608 0.22854 0.0
C78 C 0.31457 0.68226 0.20036 0.0
C79 C 0.36262 0.6813 0.24252 0.0
C80 C 0.38662 0.71306 0.22689 0.0
C81 C 0.375 0.72883 0.1976 0.0
C82 C 0.33899 0.71332 0.18531 0.0
N83 N 0.37308 0.66266 0.27107 0.0
H84 H 0.11165 0.3202 0.71736 0.0
H85 H 0.19923 0.41879 0.73273 0.0
H86 H 0.20966 0.34483 0.65065 0.0
H87 H 0.14385 0.43693 0.74981 0.0
C88 C 0.13384 0.41487 0.76822 0.0
C89 C 0.13873 0.33776 0.70991 0.0
C90 C 0.15858 0.3286 0.68108 0.0
C91 C 0.15298 0.3705 0.72834 0.0
C92 C 0.18782 0.39386 0.71829 0.0
C93 C 0.20852 0.38457 0.69032 0.0
C94 C 0.19379 0.35185 0.67232 0.0
N95 N 0.13239 0.37891 0.75752 0.0
Tb96 Tb 0.05787 0.03915 0.50409 0.0
Tb97 Tb 0.99449 1.01825 0.56769 0.0
C98 C 0.98784 0.97209 0.49817 0.0
C99 C 0.13354 0.08992 0.44432 0.0
C100 C 0.18061 0.15404 0.41566 0.0
C101 C 0.18836 0.12071 0.41018 0.0
C102 C 0.165 0.08895 0.42441 0.0
C103 C 0.12621 0.12318 0.45091 0.0
C104 C 0.14957 0.15503 0.43663 0.0
C105 C 0.10818 0.05596 0.45723 0.0
O106 O 0.02839 0.07974 0.50163 0.0
O107 O 0.97382 0.04877 0.52974 0.0
O108 O 0.02619 0.07413 0.57731 0.0
O109 O 0.08028 0.0732 0.54872 0.0
O110 O 0.93923 0.99508 0.58481 0.0
O111 O 0.98198 1.02091 0.62118 0.0
O112 O 0.03946 0.99636 0.58136 0.0
O113 O 0.06003 0.98824 0.52581 0.0
O114 O 1.00948 1.00067 0.48231 0.0
O115 O 0.98304 0.97123 0.53246 0.0
C116 C 0.99325 0.07537 0.50977 0.0
O117 O 0.11368 0.04701 0.48894 0.0
O118 O 0.07311 0.05118 0.45155 0.0
C119 C 0.06166 0.08849 0.57057 0.0
C120 C 0.93203 0.97273 0.64307 0.0
C121 C 0.8981 0.92419 0.6969 0.0
C122 C 0.93597 0.94321 0.69806 0.0
C123 C 0.95278 0.96727 0.67143 0.0
C124 C 0.89465 0.95254 0.64114 0.0
C125 C 0.87791 0.92839 0.66766 0.0
C126 C 0.94752 1.00194 0.61762 0.0
C127 C 0.05589 0.97948 0.55896 0.0
H128 H 0.21161 0.11885 0.39363 0.0
H129 H 0.17101 0.06347 0.41915 0.0
H130 H 0.10203 0.12436 0.46642 0.0
H131 H 0.143 0.18029 0.44146 0.0
H132 H 0.95225 0.94085 0.72033 0.0
H133 H 0.98164 0.98253 0.67382 0.0
H134 H 0.878 0.95631 0.61967 0.0
H135 H 0.84886 0.91363 0.66565 0.0
Tb136 Tb 0.56214 0.03473 0.08016 0.0
Tb137 Tb 0.49302 0.02545 1.02704 0.0
C138 C 0.55218 0.98424 1.013 0.0
C139 C 0.64584 0.07447 0.13415 0.0
C140 C 0.70026 0.132 0.16447 0.0
C141 C 0.70563 0.09748 0.16106 0.0
C142 C 0.67861 0.06897 0.14603 0.0
C143 C 0.64027 0.10884 0.13725 0.0
C144 C 0.66726 0.13742 0.15247 0.0
C145 C 0.61883 0.04438 0.11711 0.0
O146 O 0.56906 0.08782 0.05701 0.0
O147 O 0.53936 0.06928 1.00572 0.0
O148 O 0.4908 0.06818 0.0637 0.0
O149 O 0.51977 0.05196 0.11005 0.0
O150 O 0.47411 0.02676 0.97629 0.0
O151 O 0.43606 1.01836 1.02094 0.0
O152 O 0.47409 0.9803 0.06419 0.0
O153 O 0.52847 0.97949 0.09034 0.0
O154 O 0.57517 1.00858 1.03231 0.0
O155 O 0.51724 0.98311 1.01101 0.0
C156 C 0.56201 0.09448 1.02466 0.0
O157 O 0.58497 0.03554 0.12985 0.0
O158 O 0.61971 0.04518 0.08308 0.0
C159 C 0.49797 0.06941 0.09706 0.0
C160 C 0.41465 0.98784 0.96847 0.0
C161 C 0.37314 0.93212 0.92538 0.0
C162 C 0.36411 0.96498 0.92864 0.0
C163 C 0.38491 0.99277 0.94997 0.0
C164 C 0.42227 0.95431 0.96699 0.0
C165 C 0.40172 0.92666 0.94548 0.0
C166 C 0.43946 1.0185 0.98686 0.0
C167 C 0.49309 0.96482 0.08432 0.0
H168 H 0.73045 0.09233 0.17056 0.0
H169 H 0.68335 0.04259 0.1436 0.0
H170 H 0.61522 0.11356 0.12775 0.0
H171 H 0.66251 0.1638 0.15458 0.0
H172 H 0.3424 0.96992 0.91319 0.0
H173 H 0.37874 1.01856 0.95093 0.0
H174 H 0.44505 0.95004 0.98134 0.0
H175 H 0.40899 0.90144 0.9436 0.0
Tb176 Tb 0.51434 0.49539 0.52754 0.0
Tb177 Tb 0.51836 0.56896 0.57137 0.0
C178 C 0.48538 0.55606 0.49479 0.0
C179 C 0.55061 0.42938 0.48128 0.0
C180 C 0.61948 0.42101 0.45814 0.0
C181 C 0.59263 0.42262 0.43391 0.0
C182 C 0.55844 0.42659 0.4454 0.0
C183 C 0.57697 0.42646 0.50558 0.0
C184 C 0.61099 0.42208 0.49409 0.0
C185 C 0.51764 0.44049 0.49259 0.0
O186 O 0.56387 0.53666 0.50856 0.0
O187 O 0.57522 0.57521 0.55597 0.0
O188 O 0.53171 0.53174 0.60916 0.0
O189 O 0.55166 0.49541 0.56999 0.0
O190 O 0.53175 0.62569 0.5754 0.0
O191 O 0.5039 0.59159 0.61802 0.0
O192 O 0.46072 0.53933 0.56735 0.0
O193 O 0.46633 0.48216 0.56398 0.0
O194 O 0.47872 0.52103 0.49978 0.0
O195 O 0.50624 0.57949 0.51678 0.0
C196 C 0.58562 0.56383 0.52601 0.0
O197 O 0.50982 0.43973 0.52611 0.0
O198 O 0.51528 0.47025 0.4785 0.0
C199 C 0.54832 0.50639 0.60232 0.0
C200 C 0.48117 0.63954 0.60409 0.0
C201 C 0.4134 0.65687 0.60743 0.0
C202 C 0.43705 0.66385 0.6362 0.0
C203 C 0.47067 0.65518 0.63454 0.0
C204 C 0.45823 0.63372 0.57491 0.0
C205 C 0.42474 0.64249 0.5765 0.0
C206 C 0.51237 0.62385 0.60456 0.0
C207 C 0.44709 0.50468 0.57285 0.0
H208 H 0.59831 0.42132 0.40603 0.0
H209 H 0.53868 0.42899 0.42619 0.0
H210 H 0.572 0.42896 0.53344 0.0
H211 H 0.63126 0.42104 0.5133 0.0
H212 H 0.42923 0.67539 0.66023 0.0
H213 H 0.48774 0.65935 0.65745 0.0
H214 H 0.46539 0.62093 0.55136 0.0
H215 H 0.40699 0.63653 0.55406 0.0
Tb216 Tb 0.02263 0.57349 1.02153 0.0
Tb217 Tb 1.0159 0.49572 0.0579 0.0
C218 C 0.05271 0.51391 0.98603 0.0
C219 C 0.99449 0.63943 0.96967 0.0
C220 C 0.93304 0.65197 0.93709 0.0
C221 C 0.93844 0.61731 0.93627 0.0
C222 C 0.96884 0.61112 0.95239 0.0
C223 C 0.99002 0.67429 0.96958 0.0
C224 C 0.9596 0.68056 0.95334 0.0
C225 C 0.02238 0.63153 0.99192 0.0
O226 O 0.96509 0.54293 1.0158 0.0
O227 O 0.9695 0.48517 1.02114 0.0
O228 O 0.97763 0.5182 0.08749 0.0
O229 O 1.00883 0.57753 0.07714 0.0
O230 O 1.00807 0.44018 0.04928 0.0
O231 O 1.01775 0.46336 0.10118 0.0
O232 O 0.06272 0.53468 0.08378 0.0
O233 O 0.07676 0.58152 0.04415 0.0
O234 O 0.03226 0.53576 0.98111 0.0
O235 O 0.05901 0.5059 1.01783 0.0
C236 C 0.95148 0.50791 1.01099 0.0
O237 O 1.01099 0.62354 1.02402 0.0
O238 O 0.03984 0.60922 0.97917 0.0
C239 C 0.98501 0.55264 0.09588 0.0
C240 C 0.04618 0.41812 0.08452 0.0
C241 C 0.10447 0.38562 0.08252 0.0
C242 C 0.11207 0.42346 0.0851 0.0
C243 C 0.08319 0.43958 0.08587 0.0
C244 C 0.03841 0.38036 0.08266 0.0
C245 C 0.0673 0.36421 0.08165 0.0
C246 C 1.01604 0.43503 0.08137 0.0
C247 C 0.08459 0.5658 0.0721 0.0
H248 H 0.91827 0.59451 0.92458 0.0
H249 H 0.97144 0.58385 0.95265 0.0
H250 H 1.00932 0.69637 0.98314 0.0
H251 H 0.95647 0.70763 0.95413 0.0
H252 H 0.14039 0.4407 0.08539 0.0
H253 H 0.08983 0.46885 0.08664 0.0
H254 H 1.01003 0.36342 0.0812 0.0
H255 H 0.06058 0.33498 0.08002 0.0
H256 H 0.35051 0.25047 0.29572 0.0
H257 H 0.27167 0.29064 0.23963 0.0
H258 H 0.22945 0.27839 0.29042 0.0
H259 H 0.28738 0.17561 0.32245 0.0
H260 H 0.30605 0.17217 0.36475 0.0
H261 H 0.33607 0.19555 0.33005 0.0
H262 H 0.35672 0.2531 0.36905 0.0
H263 H 0.32675 0.22972 0.40414 0.0
H264 H 0.32231 0.27215 0.38866 0.0
H265 H 0.18944 0.24912 0.33957 0.0
H266 H 0.15477 0.20319 0.38145 0.0
H267 H 0.25611 0.17699 0.40493 0.0
C268 C 0.32479 0.25752 0.29423 0.0
C269 C 0.31501 0.27183 0.26325 0.0
C270 C 0.28093 0.28076 0.263 0.0
C271 C 0.25635 0.27368 0.29191 0.0
C272 C 0.26586 0.25742 0.32103 0.0
C273 C 0.29938 0.24955 0.32251 0.0
C274 C 0.29994 0.22585 0.35363 0.0
C275 C 0.30779 0.1902 0.342 0.0
C276 C 0.3281 0.24645 0.38047 0.0
C277 C 0.26057 0.2194 0.36769 0.0
C278 C 0.24186 0.239 0.34934 0.0
C279 C 0.20403 0.2344 0.35482 0.0
C280 C 0.18453 0.20824 0.37876 0.0
C281 C 0.20278 0.1866 0.39655 0.0
C282 C 0.24152 0.19329 0.39181 0.0
H283 H 0.2113 0.81387 0.80486 0.0
H284 H 0.29962 0.79536 0.73783 0.0
H285 H 0.34556 0.82756 0.77984 0.0
H286 H 0.26212 0.90532 0.827 0.0
H287 H 0.24384 0.90315 0.87129 0.0
H288 H 0.21675 0.87555 0.83755 0.0
H289 H 0.21096 0.81817 0.87423 0.0
H290 H 0.23823 0.84559 0.90801 0.0
H291 H 0.25235 0.80857 0.88853 0.0
H292 H 0.38241 0.86148 0.82777 0.0
H293 H 0.40916 0.9017 0.87693 0.0
H294 H 0.29891 0.90375 0.91148 0.0
C295 C 0.24026 0.81653 0.79902 0.0
C296 C 0.25145 0.80076 0.76845 0.0
C297 C 0.28985 0.80549 0.76171 0.0
C298 C 0.31639 0.82412 0.78529 0.0
C299 C 0.3044 0.8387 0.81527 0.0
C300 C 0.26743 0.83578 0.82205 0.0
C301 C 0.26265 0.85638 0.8552 0.0
C302 C 0.24532 0.88692 0.84727 0.0
C303 C 0.23968 0.83063 0.88314 0.0
C304 C 0.30276 0.87137 0.86566 0.0
C305 C 0.32619 0.86025 0.84245 0.0
C306 C 0.36444 0.87037 0.84625 0.0
C307 C 0.37933 0.893 0.87434 0.0
C308 C 0.35605 0.90554 0.89803 0.0
C309 C 0.31725 0.89445 0.89371 0.0
H310 H 0.63208 0.47769 0.78997 0.0
H311 H 0.62288 0.36765 0.75611 0.0
H312 H 0.59717 0.37943 0.70007 0.0
H313 H 0.54575 0.4824 0.75158 0.0
H314 H 0.56388 0.52927 0.73943 0.0
H315 H 0.5819 0.51244 0.77669 0.0
H316 H 0.64824 0.53521 0.74977 0.0
H317 H 0.63042 0.55201 0.71238 0.0
H318 H 0.65758 0.52063 0.70626 0.0
H319 H 0.57533 0.40424 0.64612 0.0
H320 H 0.55429 0.43772 0.6006 0.0
H321 H 0.57289 0.53137 0.66965 0.0
C322 C 0.6245 0.45602 0.77077 0.0
C323 C 0.62965 0.42162 0.77764 0.0
C324 C 0.6192 0.39408 0.75178 0.0
C325 C 0.60463 0.40063 0.71972 0.0
C326 C 0.60007 0.43481 0.71377 0.0
C327 C 0.60926 0.46196 0.73876 0.0
C328 C 0.60079 0.49604 0.72597 0.0
C329 C 0.57133 0.5056 0.74984 0.0
C330 C 0.63638 0.52785 0.72345 0.0
C331 C 0.58569 0.48399 0.68973 0.0
C332 C 0.58595 0.44863 0.68322 0.0
C333 C 0.57477 0.43178 0.65119 0.0
C334 C 0.56295 0.45124 0.6253 0.0
C335 C 0.56165 0.48735 0.6312 0.0
C336 C 0.5731 0.50378 0.66419 0.0
H337 H 0.95068 0.68821 0.24556 0.0
H338 H 0.86945 0.59646 0.29281 0.0
H339 H 0.88152 0.55673 0.24529 0.0
H340 H 0.92904 0.66286 0.15579 0.0
H341 H 0.97656 0.67833 0.14024 0.0
H342 H 0.96163 0.6995 0.17804 0.0
H343 H 1.01308 0.68601 0.21446 0.0
H344 H 0.02819 0.66484 0.17675 0.0
H345 H 1.0157 0.64015 0.21705 0.0
H346 H 0.90277 0.5269 0.19256 0.0
H347 H 0.93146 0.50922 0.13883 0.0
H348 H 0.99865 0.62059 0.12566 0.0
C349 C 0.93546 0.65973 0.24585 0.0
C350 C 0.90913 0.64544 0.27283 0.0
C351 C 0.88973 0.60806 0.27241 0.0
C352 C 0.8964 0.58526 0.24551 0.0
C353 C 0.92252 0.60024 0.21923 0.0
C354 C 0.94175 0.63663 0.21919 0.0
C355 C 0.96838 0.64594 0.18793 0.0
C356 C 0.95828 0.67327 0.16409 0.0
C357 C 1.00872 0.66006 0.19977 0.0
C358 C 0.96113 0.60912 0.17036 0.0
C359 C 0.93461 0.58312 0.18884 0.0
C360 C 0.92353 0.54705 0.17787 0.0
C361 C 0.94003 0.53728 0.14728 0.0
C362 C 0.96732 0.56346 0.12788 0.0
C363 C 0.9778 0.59988 0.13971 0.0
H364 H 0.42234 0.23809 0.13894 0.0
H365 H 0.35266 0.17284 0.2205 0.0
H366 H 0.38409 0.12582 0.21056 0.0
H367 H 0.41519 0.16279 0.08092 0.0
H368 H 0.46162 0.18037 0.06304 0.0
H369 H 0.43674 0.21098 0.07949 0.0
H370 H 0.49071 0.2401 0.12096 0.0
H371 H 0.51551 0.20917 0.10494 0.0
H372 H 0.50557 0.21194 0.15116 0.0
H373 H 0.4234 0.0852 0.19185 0.0
H374 H 0.45998 0.05044 0.15903 0.0
H375 H 0.49733 0.13833 0.08521 0.0
C376 C 0.41332 0.21395 0.1547 0.0
C377 C 0.38547 0.21014 0.18127 0.0
C378 C 0.37491 0.17768 0.20103 0.0
C379 C 0.39245 0.15044 0.19541 0.0
C380 C 0.41998 0.15541 0.16937 0.0
C381 C 0.42975 0.18599 0.1488 0.0
C382 C 0.45762 0.18319 0.1203 0.0
C383 C 0.44184 0.18439 0.08378 0.0
C384 C 0.49454 0.21287 0.12462 0.0
C385 C 0.46172 0.14614 0.12794 0.0
C386 C 0.44051 0.1309 0.15689 0.0
C387 C 0.44004 0.09681 0.16907 0.0
C388 C 0.461 0.07738 0.15051 0.0
C389 C 0.48124 0.09187 0.1198 0.0
C390 C 0.48197 0.1268 0.10871 0.0
H391 H 0.11217 0.84449 0.68815 0.0
H392 H 0.0893 0.76497 0.60392 0.0
H393 H 0.07064 0.80826 0.56658 0.0
H394 H 0.03413 0.88099 0.671 0.0
H395 H 0.05995 0.92658 0.68252 0.0
H396 H 0.06998 0.88875 0.70292 0.0
H397 H 0.13884 0.9134 0.6827 0.0
H398 H 0.12897 0.95106 0.66191 0.0
H399 H 0.15009 0.92184 0.63686 0.0
H400 H 0.06004 0.86164 0.53702 0.0
H401 H 0.05115 0.91963 0.51885 0.0
H402 H 0.0771 0.96345 0.62345 0.0
C403 C 0.10287 0.8361 0.66197 0.0
C404 C 0.10232 0.80156 0.64865 0.0
C405 C 0.08978 0.79136 0.61445 0.0
C406 C 0.07929 0.81576 0.59309 0.0
C407 C 0.0809 0.84993 0.60668 0.0
C408 C 0.09167 0.8599 0.64053 0.0
C409 C 0.09077 0.89824 0.64874 0.0
C410 C 0.06199 0.89865 0.67803 0.0
C411 C 0.12947 0.92256 0.65809 0.0
C412 C 0.07874 0.90858 0.61391 0.0
C413 C 0.07341 0.88035 0.58999 0.0
C414 C 0.06381 0.88383 0.55559 0.0
C415 C 0.05916 0.91696 0.54546 0.0
C416 C 0.06367 0.94596 0.56976 0.0
C417 C 0.07343 0.94162 0.60444 0.0
H418 H 0.77492 0.36716 0.92123 0.0
H419 H 0.73645 0.45998 0.89765 0.0
H420 H 0.79268 0.50038 0.92382 0.0
H421 H 0.81152 0.39884 1.00487 0.0
H422 H 0.85089 0.38119 1.00038 0.0
H423 H 0.80885 0.35945 0.97784 0.0
H424 H 0.84557 0.36664 0.91879 0.0
H425 H 0.88778 0.38823 0.94117 0.0
H426 H 0.87365 0.41091 0.90554 0.0
H427 H 0.85123 0.53066 0.95558 0.0
H428 H 0.90908 0.5493 0.98783 0.0
H429 H 0.91109 0.4373 0.99195 0.0
C430 C 0.77821 0.39599 0.92147 0.0
C431 C 0.7508 0.41016 0.90713 0.0
C432 C 0.75691 0.44822 0.90778 0.0
C433 C 0.78876 0.47145 0.92293 0.0
C434 C 0.81462 0.45647 0.93738 0.0
C435 C 0.80989 0.41963 0.93657 0.0
C436 C 0.84172 0.41053 0.95451 0.0
C437 C 0.82738 0.38605 0.98629 0.0
C438 C 0.86347 0.39304 0.92844 0.0
C439 C 0.86495 0.448 0.96588 0.0
C440 C 0.84865 0.47401 0.95565 0.0
C441 C 0.86427 0.51049 0.96349 0.0
C442 C 0.89739 0.5208 0.98197 0.0
C443 C 0.91524 0.49494 0.99257 0.0
C444 C 0.89845 0.45788 0.98436 0.0
H445 H 0.7792 0.61193 0.41731 0.0
H446 H 0.77897 0.7244 0.42812 0.0
H447 H 0.72017 0.70544 0.4613 0.0
H448 H 0.67874 0.57771 0.4035 0.0
H449 H 0.6738 0.53624 0.42679 0.0
H450 H 0.71688 0.55819 0.40425 0.0
H451 H 0.752 0.55978 0.46175 0.0
H452 H 0.70897 0.53805 0.48445 0.0
H453 H 0.73816 0.58071 0.50032 0.0
H454 H 0.66472 0.67619 0.49672 0.0
H455 H 0.6093 0.6366 0.52628 0.0
H456 H 0.63905 0.54184 0.48765 0.0
C457 C 0.76664 0.63256 0.42628 0.0
C458 C 0.78473 0.66988 0.42093 0.0
C459 C 0.76689 0.69581 0.43305 0.0
C460 C 0.73313 0.68532 0.45168 0.0
C461 C 0.7167 0.64866 0.45727 0.0
C462 C 0.7322 0.62249 0.44434 0.0
C463 C 0.70754 0.5848 0.45334 0.0
C464 C 0.6934 0.56296 0.41998 0.0
C465 C 0.7279 0.56466 0.47634 0.0
C466 C 0.67623 0.5942 0.47374 0.0
C467 C 0.68259 0.63129 0.47594 0.0
C468 C 0.65907 0.64708 0.49485 0.0
C469 C 0.62784 0.62439 0.51174 0.0
C470 C 0.61999 0.58631 0.50913 0.0
C471 C 0.64438 0.57093 0.48974 0.0
H472 H 0.29541 0.35246 0.13516 0.0
H473 H 0.27621 0.26695 0.05662 0.0
H474 H 0.21942 0.28174 0.03909 0.0
H475 H 0.20258 0.33672 0.16265 0.0
H476 H 0.20534 0.38377 0.16966 0.0
H477 H 0.24609 0.36874 0.1737 0.0
H478 H 0.28109 0.41576 0.12766 0.0
H479 H 0.24051 0.43117 0.12369 0.0
H480 H 0.26125 0.41624 0.08536 0.0
H481 H 0.16226 0.30302 1.03349 0.0
H482 H 0.11084 0.33101 0.03811 0.0
H483 H 0.16765 0.40194 0.12097 0.0
C484 C 0.27969 0.3372 0.11384 0.0
C485 C 0.29023 0.30858 0.09707 0.0
C486 C 0.26865 0.28912 0.06957 0.0
C487 C 0.23637 0.29728 0.05955 0.0
C488 C 0.22623 0.32507 0.07724 0.0
C489 C 0.24745 0.34493 0.1036 0.0
C490 C 0.22973 0.37235 0.11956 0.0
C491 C 0.22038 0.36493 0.1587 0.0
C492 C 0.25463 0.41118 0.1137 0.0
C493 C 0.19498 0.36458 0.09835 0.0
C494 C 0.19344 0.33725 0.07404 0.0
C495 C 0.16331 0.3246 0.05226 0.0
C496 C 0.13412 0.34046 0.05527 0.0
C497 C 0.13526 0.36867 0.07987 0.0
C498 C 0.16621 0.38078 0.10159 0.0
H499 H 0.62809 0.25727 0.88325 0.0
H500 H 0.65684 0.32942 0.97302 0.0
H501 H 0.63402 0.27779 1.0126 0.0
H502 H 0.54236 0.1969 0.92418 0.0
H503 H 0.54903 0.15636 0.90443 0.0
H504 H 0.56637 0.19911 0.88239 0.0
H505 H 0.63205 0.19045 0.87932 0.0
H506 H 0.61497 0.14783 0.90158 0.0
H507 H 0.65321 0.18276 0.91907 0.0
H508 H 0.61271 0.21885 0.0431 0.0
H509 H 0.58883 0.15601 0.06314 0.0
H510 H 0.56969 0.11925 0.95541 0.0
C511 C 0.62901 0.26221 0.91123 0.0
C512 C 0.64496 0.2977 0.92482 0.0
C513 C 0.64562 0.30269 0.96172 0.0
C514 C 0.63253 0.27344 0.98456 0.0
C515 C 0.61816 0.23888 0.97049 0.0
C516 C 0.61571 0.23298 0.93474 0.0
C517 C 0.59902 0.19263 0.92704 0.0
C518 C 0.56199 0.18585 0.9084 0.0
C519 C 0.62645 0.17754 0.90547 0.0
C520 C 0.5931 0.17701 0.96396 0.0
C521 C 0.60457 0.2044 0.98846 0.0
C522 C 0.60334 0.1972 1.02416 0.0
C523 C 0.58985 0.16119 0.0353 0.0
C524 C 0.57726 0.13231 1.01104 0.0
C525 C 0.57886 0.14056 0.97474 0.0
H526 H 0.89884 0.76037 0.46065 0.0
H527 H 0.91281 0.78528 0.34985 0.0
H528 H 0.94255 0.8495 0.36434 0.0
H529 H 0.87402 0.8378 0.48744 0.0
H530 H 0.89856 0.84448 0.52795 0.0
H531 H 0.88198 0.79972 0.50931 0.0
H532 H 0.94839 0.79264 0.50947 0.0
H533 H 0.96511 0.83721 0.5286 0.0
H534 H 0.98597 0.82633 0.48844 0.0
H535 H 0.96571 0.91157 0.39062 0.0
H536 H 0.98574 0.96684 0.42682 0.0
H537 H 0.95608 0.90217 0.52094 0.0
C538 C 0.90861 0.77925 0.43942 0.0
C539 C 0.90354 0.7677 0.40404 0.0
C540 C 0.91688 0.79329 0.37708 0.0
C541 C 0.93353 0.8299 0.38507 0.0
C542 C 0.93689 0.84053 0.42016 0.0
C543 C 0.92533 0.81591 0.44694 0.0
C544 C 0.9312 0.83463 0.48245 0.0
C545 C 0.89423 0.82881 0.50299 0.0
C546 C 0.95934 0.82194 0.50347 0.0
C547 C 0.94698 0.87374 0.47142 0.0
C548 C 0.95017 0.87645 0.43537 0.0
C549 C 0.96361 0.90974 0.41887 0.0
C550 C 0.97479 0.94103 0.43973 0.0
C551 C 0.9724 0.93898 0.47679 0.0
C552 C 0.95796 0.90477 0.49272 0.0
H553 H 0.23819 0.68051 0.71144 0.0
H554 H 0.22106 0.74294 0.62352 0.0
H555 H 0.26428 0.71938 0.58728 0.0
H556 H 0.32898 0.70388 0.70297 0.0
H557 H 0.33681 0.66175 0.71518 0.0
H558 H 0.29586 0.67261 0.73089 0.0
H559 H 0.2541 0.61316 0.70431 0.0
H560 H 0.29504 0.6014 0.68923 0.0
H561 H 0.25986 0.60274 0.6587 0.0
H562 H 0.31991 0.70186 0.56557 0.0
H563 H 0.38018 0.68845 0.55919 0.0
H564 H 0.36334 0.6398 0.66211 0.0
C565 C 0.24229 0.68787 0.68408 0.0
C566 C 0.22617 0.71341 0.67028 0.0
C567 C 0.23248 0.72286 0.63451 0.0
C568 C 0.25726 0.70977 0.61375 0.0
C569 C 0.27515 0.68702 0.62907 0.0
C570 C 0.2674 0.67554 0.6633 0.0
C571 C 0.29447 0.65612 0.67548 0.0
C572 C 0.31524 0.67473 0.70803 0.0
C573 C 0.27468 0.61597 0.68232 0.0
C574 C 0.3201 0.6606 0.64366 0.0
C575 C 0.30803 0.67764 0.61681 0.0
C576 C 0.32909 0.68762 0.58604 0.0
C577 C 0.36333 0.68004 0.58269 0.0
C578 C 0.3764 0.66318 0.6102 0.0
C579 C 0.35412 0.65289 0.64074 0.0
H580 H 0.73368 0.85149 0.83666 0.0
H581 H 0.79988 0.79018 0.88395 0.0
H582 H 0.85004 0.81418 0.8399 0.0
H583 H 0.75895 0.83891 0.74855 0.0
H584 H 0.76009 0.88381 0.73508 0.0
H585 H 0.73003 0.8627 0.77095 0.0
H586 H 0.76022 0.91724 0.81138 0.0
H587 H 0.79009 0.93873 0.77552 0.0
H588 H 0.80982 0.93112 0.8161 0.0
H589 H 0.89236 0.84415 0.78938 0.0
H590 H 0.92367 0.87846 0.73751 0.0
H591 H 0.82967 0.92084 0.72521 0.0
C592 C 0.75897 0.84359 0.8382 0.0
C593 C 0.76294 0.81909 0.86381 0.0
C594 C 0.79617 0.80876 0.86437 0.0
C595 C 0.82483 0.82232 0.83956 0.0
C596 C 0.8198 0.84618 0.81444 0.0
C597 C 0.78775 0.85683 0.81374 0.0
C598 C 0.78884 0.88229 0.78382 0.0
C599 C 0.75763 0.86593 0.75809 0.0
C600 C 0.78716 0.91955 0.79753 0.0
C601 C 0.82645 0.88423 0.76763 0.0
C602 C 0.84396 0.86327 0.78559 0.0
C603 C 0.87896 0.86077 0.77521 0.0
C604 C 0.89656 0.88042 0.7458 0.0
C605 C 0.87907 0.9022 0.72716 0.0
C606 C 0.84355 0.90395 0.73842 0.0
H607 H 0.77121 0.27912 0.31285 0.0
H608 H 0.88361 0.27961 0.2838 0.0
H609 H 0.85982 0.24011 0.2328 0.0
H610 H 0.72991 0.18905 0.29485 0.0
H611 H 0.68774 0.19507 0.27831 0.0
H612 H 0.71405 0.2269 0.3095 0.0
H613 H 0.71826 0.2796 0.26685 0.0
H614 H 0.69171 0.2479 0.2355 0.0
H615 H 0.73649 0.27759 0.22295 0.0
H616 H 0.82281 0.19594 0.18857 0.0
H617 H 0.77587 0.15049 0.15506 0.0
H618 H 0.68822 0.17967 0.21389 0.0
C619 C 0.79104 0.27199 0.29513 0.0
C620 C 0.82934 0.28286 0.30195 0.0
C621 C 0.85417 0.27167 0.27892 0.0
C622 C 0.84093 0.24943 0.24985 0.0
C623 C 0.80286 0.23881 0.24423 0.0
C624 C 0.77833 0.24991 0.26618 0.0
C625 C 0.73853 0.23248 0.25632 0.0
C626 C 0.71628 0.20951 0.28654 0.0
C627 C 0.72018 0.26111 0.2447 0.0
C628 C 0.74433 0.20905 0.22586 0.0
C629 C 0.7816 0.2133 0.21901 0.0
C630 C 0.79359 0.19273 0.19344 0.0
C631 C 0.76676 0.16686 0.17471 0.0
C632 C 0.72844 0.1617 0.18182 0.0
C633 C 0.71728 0.18354 0.20736 0.0
H634 H 0.45206 0.69446 0.34924 0.0
H635 H 0.37126 0.60224 0.30384 0.0
H636 H 0.38317 0.56303 0.34986 0.0
H637 H 0.51716 0.6469 0.37486 0.0
H638 H 0.52874 0.67145 0.41548 0.0
H639 H 0.51404 0.6926 0.37908 0.0
H640 H 0.46174 0.70542 0.418 0.0
H641 H 0.47628 0.68429 0.45452 0.0
H642 H 0.42904 0.66852 0.44042 0.0
H643 H 0.40465 0.53304 0.40032 0.0
H644 H 0.43266 0.51471 0.45167 0.0
H645 H 0.49914 0.62592 0.46711 0.0
C646 C 0.43686 0.66599 0.34903 0.0
C647 C 0.41062 0.6516 0.32261 0.0
C648 C 0.39135 0.61417 0.32352 0.0
C649 C 0.398 0.59158 0.34969 0.0
C650 C 0.42392 0.60656 0.37525 0.0
C651 C 0.44297 0.64297 0.37529 0.0
C652 C 0.46916 0.65211 0.40611 0.0
C653 C 0.50968 0.66663 0.3931 0.0
C654 C 0.45841 0.6792 0.43125 0.0
C655 C 0.46211 0.61514 0.42318 0.0
C656 C 0.43591 0.58932 0.40479 0.0
C657 C 0.42508 0.55314 0.4149 0.0
C658 C 0.44132 0.54295 0.4443 0.0
C659 C 0.46828 0.56865 0.46393 0.0
C660 C 0.47856 0.60543 0.45305 0.0
H661 H 0.11484 0.47546 0.78936 0.0
H662 H 0.12245 0.3722 0.82657 0.0
H663 H 0.10274 0.38687 0.88588 0.0
H664 H 0.14754 0.52793 0.8662 0.0
H665 H 0.11561 0.55485 0.86431 0.0
H666 H 0.13026 0.53644 0.82465 0.0
H667 H 0.06173 0.50514 0.80993 0.0
H668 H 0.04686 0.5236 0.84948 0.0
H669 H 0.03205 0.47543 0.84151 0.0
H670 H 0.0859 0.41399 0.94151 0.0
H671 H 0.06716 0.44902 0.98932 0.0
H672 H 0.06576 0.53362 0.9162 0.0
C673 C 0.11213 0.45592 0.81004 0.0
C674 C 0.12016 0.42269 0.80343 0.0
C675 C 0.11625 0.3977 0.83099 0.0
C676 C 0.10521 0.40587 0.86479 0.0
C677 C 0.09768 0.43894 0.8705 0.0
C678 C 0.10045 0.46339 0.84384 0.0
C679 C 0.08996 0.49667 0.85699 0.0
C680 C 0.12281 0.531 0.85278 0.0
C681 C 0.0556 0.50042 0.83837 0.0
C682 C 0.08125 0.48728 0.89532 0.0
C683 C 0.0863 0.45398 0.90248 0.0
C684 C 0.08151 0.43991 0.93614 0.0
C685 C 0.07102 0.46019 0.96319 0.0
C686 C 0.06487 0.49408 0.95654 0.0
C687 C 0.06995 0.5077 0.92203 0.0
H688 H 0.69814 0.87696 0.95552 0.0
H689 H 0.60433 0.78946 0.92158 0.0
H690 H 0.56208 0.82586 0.93814 0.0
H691 H 0.65154 0.90378 1.03059 0.0
H692 H 0.67429 0.95144 1.02541 0.0
H693 H 0.69723 0.91864 1.01049 0.0
H694 H 0.70537 0.94653 0.94849 0.0
H695 H 0.68218 0.97925 0.96318 0.0
H696 H 0.66522 0.95038 0.92607 0.0
H697 H 0.53017 0.87186 0.95703 0.0
H698 H 0.50976 0.92263 0.98166 0.0
H699 H 0.62393 0.98024 1.00484 0.0
C700 C 0.6687 0.86553 0.95161 0.0
C701 C 0.65446 0.83031 0.93742 0.0
C702 C 0.61576 0.81616 0.93288 0.0
C703 C 0.59159 0.83674 0.94192 0.0
C704 C 0.6065 0.8714 0.95562 0.0
C705 C 0.64408 0.88561 0.9608 0.0
C706 C 0.65269 0.92327 0.97685 0.0
C707 C 0.66995 0.92432 1.01298 0.0
C708 C 0.67785 0.95152 0.95217 0.0
C709 C 0.61406 0.9279 0.97993 0.0
C710 C 0.58792 0.89778 0.96718 0.0
C711 C 0.55036 0.89559 0.96714 0.0
C712 C 0.53907 0.9247 0.98108 0.0
C713 C 0.56521 0.95553 0.99519 0.0
C714 C 0.60325 0.95714 0.99423 0.0
H715 H 0.9743 0.24098 0.39623 0.0
H716 H 0.87743 0.24036 0.46084 0.0
H717 H 0.88543 0.18896 0.49426 0.0
H718 H 0.95902 0.14539 0.39153 0.0
H719 H 1.00729 0.14747 0.39438 0.0
H720 H 0.99437 0.18457 0.37571 0.0
H721 H 0.03511 0.22895 0.42021 0.0
H722 H 0.04836 0.19199 0.4388 0.0
H723 H 0.02789 0.21985 0.46641 0.0
H724 H 0.90216 0.13586 0.51872 0.0
H725 H 0.92967 0.08799 0.53606 0.0
H726 H 1.01727 0.12479 0.45717 0.0
C727 C 0.955 0.23014 0.41761 0.0
C728 C 0.92534 0.24458 0.42603 0.0
C729 C 0.90051 0.22982 0.4541 0.0
C730 C 0.90473 0.20053 0.47313 0.0
C731 C 0.93408 0.18664 0.46395 0.0
C732 C 0.95909 0.20122 0.43716 0.0
C733 C 0.98849 0.18152 0.43291 0.0
C734 C 0.98719 0.16368 0.39647 0.0
C735 C 0.02725 0.2071 0.44002 0.0
C736 C 0.97591 0.15342 0.46131 0.0
C737 C 0.94432 0.15666 0.47872 0.0
C738 C 0.92704 0.1332 0.50546 0.0
C739 C 0.94278 0.10598 0.51498 0.0
C740 C 0.97565 0.1027 0.49802 0.0
C741 C 0.99224 0.12673 0.47076 0.0
H742 H 0.27397 0.61127 0.18232 0.0
H743 H 0.26775 0.72199 0.1861 0.0
H744 H 0.20852 0.70321 0.15578 0.0
H745 H 0.2368 0.58892 0.09782 0.0
H746 H 0.20952 0.54341 0.10791 0.0
H747 H 0.25066 0.56431 0.13208 0.0
H748 H 0.21239 0.55246 0.19022 0.0
H749 H 0.17117 0.53125 0.1662 0.0
H750 H 0.17203 0.56851 0.19563 0.0
H751 H 0.15409 0.67513 0.11996 0.0
H752 H 0.10275 0.63746 0.08554 0.0
H753 H 0.13848 0.54252 0.1066 0.0
C754 C 0.25968 0.63133 0.17742 0.0
C755 C 0.27602 0.66836 0.1864 0.0
C756 C 0.25638 0.6937 0.17912 0.0
C757 C 0.22254 0.68326 0.16193 0.0
C758 C 0.20788 0.64707 0.15237 0.0
C759 C 0.22528 0.62122 0.16028 0.0
C760 C 0.20311 0.58421 0.14623 0.0
C761 C 0.22642 0.56935 0.11942 0.0
C762 C 0.18883 0.55753 0.17637 0.0
C763 C 0.17116 0.59367 0.12868 0.0
C764 C 0.17489 0.63024 0.13256 0.0
C765 C 0.15057 0.64636 0.11718 0.0
C766 C 0.12155 0.62471 0.09743 0.0
C767 C 0.11636 0.58701 0.09336 0.0
C768 C 0.14143 0.57119 0.10956 0.0
H769 H 0.27189 0.3673 0.66867 0.0
H770 H 0.22624 0.45818 0.68304 0.0
H771 H 0.28291 0.49853 0.65563 0.0
H772 H 0.36902 0.41723 0.68305 0.0
H773 H 0.3862 0.39201 0.64979 0.0
H774 H 0.34354 0.37101 0.67343 0.0
H775 H 0.30955 0.35565 0.6147 0.0
H776 H 0.35196 0.37699 0.59089 0.0
H777 H 0.31118 0.3915 0.58445 0.0
H778 H 0.34171 0.52784 0.62279 0.0
H779 H 0.40117 0.54586 0.5903 0.0
H780 H 0.40905 0.43575 0.59569 0.0
C781 C 0.2739 0.39576 0.66632 0.0
C782 C 0.24453 0.40957 0.67806 0.0
C783 C 0.2485 0.44704 0.67477 0.0
C784 C 0.28047 0.47011 0.65895 0.0
C785 C 0.30825 0.45532 0.64666 0.0
C786 C 0.30553 0.41911 0.65046 0.0
C787 C 0.33889 0.4099 0.63393 0.0
C788 C 0.36071 0.39677 0.66171 0.0
C789 C 0.32718 0.38185 0.60423 0.0
C790 C 0.36063 0.44656 0.61978 0.0
C791 C 0.34236 0.4723 0.62752 0.0
C792 C 0.35639 0.508 0.61682 0.0
C793 C 0.39026 0.51788 0.59819 0.0
C794 C 0.40998 0.49221 0.59034 0.0
C795 C 0.39469 0.45597 0.60114 0.0
H796 H 0.74666 0.71197 0.94604 0.0
H797 H 0.7126 0.64545 0.85348 0.0
H798 H 0.77374 0.63357 0.84955 0.0
H799 H 0.84413 0.75079 0.91859 0.0
H800 H 0.86093 0.74952 0.96211 0.0
H801 H 0.81553 0.75502 0.95614 0.0
H802 H 0.78637 0.699 0.99496 0.0
H803 H 0.83161 0.69341 1.0011 0.0
H804 H 0.79511 0.65648 0.98389 0.0
H805 H 0.83709 0.62673 0.85706 0.0
H806 H 0.89763 0.62303 0.87701 0.0
H807 H 0.89 0.69261 0.96576 0.0
C808 C 0.7523 0.69531 0.92472 0.0
C809 C 0.72515 0.67982 0.89979 0.0
C810 C 0.73322 0.65763 0.87267 0.0
C811 C 0.76786 0.65089 0.87015 0.0
C812 C 0.79408 0.66649 0.89508 0.0
C813 C 0.78674 0.68815 0.92191 0.0
C814 C 0.81907 0.69993 0.94637 0.0
C815 C 0.83591 0.74127 0.94576 0.0
C816 C 0.80733 0.68638 0.98378 0.0
C817 C 0.84532 0.6808 0.92954 0.0
C818 C 0.83054 0.66207 0.89973 0.0
C819 C 0.84904 0.64138 0.8803 0.0
C820 C 0.88331 0.63927 0.89197 0.0
C821 C 0.89864 0.65747 0.92298 0.0
C822 C 0.87946 0.67891 0.94162 0.0
H823 H 0.41329 0.79919 0.2198 0.0
H824 H 0.39079 0.72932 0.12807 0.0
H825 H 0.41854 0.78161 0.09016 0.0
H826 H 0.39386 0.87485 0.18323 0.0
H827 H 0.4311 0.90903 0.2031 0.0
H828 H 0.41213 0.86598 0.22417 0.0
H829 H 0.47729 0.85624 0.22483 0.0
H830 H 0.49659 0.89957 0.20427 0.0
H831 H 0.50407 0.85936 0.18452 0.0
H832 H 0.44056 0.8419 0.06122 0.0
H833 H 0.46598 0.90582 0.04341 0.0
H834 H 0.48078 0.93839 0.15237 0.0
C835 C 0.41534 0.79481 0.19185 0.0
C836 C 0.39969 0.75988 0.177 0.0
C837 C 0.40241 0.75562 0.14014 0.0
C838 C 0.41803 0.78527 0.11829 0.0
C839 C 0.43168 0.81944 0.13343 0.0
C840 C 0.43153 0.82441 0.16937 0.0
C841 C 0.44808 0.86445 0.17836 0.0
C842 C 0.41959 0.87945 0.19841 0.0
C843 C 0.48363 0.87025 0.19923 0.0
C844 C 0.4567 0.88102 0.14195 0.0
C845 C 0.44649 0.85442 0.11649 0.0
C846 C 0.44929 0.86288 0.08093 0.0
C847 C 0.46349 0.8993 0.07101 0.0
C848 C 0.47545 0.92704 0.09637 0.0
C849 C 0.47209 0.91769 0.13238 0.0
H850 H 0.11546 0.2599 0.70125 0.0
H851 H 0.16517 0.32298 0.60988 0.0
H852 H 0.14731 0.26826 0.57327 0.0
H853 H 0.13827 0.17928 0.67919 0.0
H854 H 0.09459 0.14868 0.69339 0.0
H855 H 0.11095 0.19281 0.71346 0.0
H856 H 0.05013 0.20707 0.69796 0.0
H857 H 0.03335 0.16277 0.67827 0.0
H858 H 0.03542 0.20254 0.65321 0.0
H859 H 0.13038 0.20677 0.54737 0.0
H860 H 0.10456 0.14249 0.531 0.0
H861 H 0.0581 0.11886 0.63609 0.0
C862 C 0.12207 0.26234 0.67348 0.0
C863 C 0.14296 0.29578 0.65885 0.0
C864 C 0.15068 0.29759 0.62221 0.0
C865 C 0.14037 0.26665 0.601 0.0
C866 C 0.12126 0.23403 0.61641 0.0
C867 C 0.11115 0.23166 0.65153 0.0
C868 C 0.08939 0.19309 0.66084 0.0
C869 C 0.10951 0.17756 0.68835 0.0
C870 C 0.04971 0.19127 0.6733 0.0
C871 C 0.08962 0.17428 0.62559 0.0
C872 C 0.10873 0.19849 0.60056 0.0
C873 C 0.11482 0.18759 0.56654 0.0
C874 C 0.10036 0.15102 0.55757 0.0
C875 C 0.0794 0.12592 0.58227 0.0
C876 C 0.07388 0.13768 0.61673 0.0
H877 H 0.78577 0.33322 0.43746 0.0
H878 H 0.82765 0.40704 0.35169 0.0
H879 H 0.78128 0.43953 0.36682 0.0
H880 H 0.69435 0.32214 0.42334 0.0
H881 H 0.67896 0.31954 0.46858 0.0
H882 H 0.71982 0.30668 0.45597 0.0
H883 H 0.75848 0.3528 0.50032 0.0
H884 H 0.71752 0.36548 0.51356 0.0
H885 H 0.75861 0.39955 0.49875 0.0
H886 H 0.72515 0.45794 0.38555 0.0
H887 H 0.66431 0.46238 0.40783 0.0
H888 H 0.65811 0.37566 0.48071 0.0
C889 C 0.78616 0.35721 0.42291 0.0
C890 C 0.81056 0.36817 0.39385 0.0
C891 C 0.80938 0.39866 0.37433 0.0
C892 C 0.7832 0.41721 0.38275 0.0
C893 C 0.75849 0.40487 0.41076 0.0
C894 C 0.75996 0.37577 0.43079 0.0
C895 C 0.7277 0.36536 0.45688 0.0
C896 C 0.70381 0.32612 0.4508 0.0
C897 C 0.74141 0.37116 0.49462 0.0
C898 C 0.70719 0.3923 0.44759 0.0
C899 C 0.72563 0.41513 0.42122 0.0
C900 C 0.71074 0.44058 0.40655 0.0
C901 C 0.67606 0.44266 0.4191 0.0
C902 C 0.65661 0.41932 0.44592 0.0
C903 C 0.67267 0.39418 0.46056 0.0
loop_
_geom_bond_atom_site_label_1
_geom_bond_atom_site_label_2
_geom_bond_distance
_geom_bond_site_symmetry_2
_ccdc_geom_bond_type
H0 C5 0.930 . S
H1 C8 0.930 . S
H2 C10 0.930 . S
H3 C4 1.016 . S
C4 H3 1.016 . S
C4 N11 1.286 . S
C5 H0 0.930 . S
C5 C6 1.397 . S
C5 C7 1.361 . S
C6 C5 1.397 . S
C6 C10 1.390 . S
C7 C5 1.361 . S
C7 C8 1.393 . S
C7 N11 1.413 . S
C8 H1 0.930 . S
C8 C7 1.393 . S
C8 C9 1.399 . S
C9 C8 1.399 . S
C9 C10 1.381 . S
C10 H2 0.930 . S
C10 C6 1.390 . S
C10 C9 1.381 . S
N11 C4 1.286 . S
N11 C7 1.413 . S
H12 C17 0.930 . S
H13 C20 0.930 . S
H14 C22 0.930 . S
H15 C16 1.016 . S
C16 H15 1.016 . S
C16 N23 1.286 . S
C17 H12 0.930 . S
C17 C18 1.397 . S
C17 C19 1.361 . S
C18 C17 1.397 . S
C18 C22 1.390 . S
C19 C17 1.361 . S
C19 C20 1.393 . S
C19 N23 1.413 . S
C20 H13 0.930 . S
C20 C19 1.393 . S
C20 C21 1.399 . S
C21 C20 1.399 . S
C21 C22 1.381 . S
C22 H14 0.930 . S
C22 C18 1.390 . S
C22 C21 1.381 . S
N23 C16 1.286 . S
N23 C19 1.413 . S
H24 C29 0.930 . S
H25 C32 0.930 . S
H26 C34 0.930 . S
H27 C28 1.016 . S
C28 H27 1.016 . S
C28 N35 1.286 . S
C29 H24 0.930 . S
C29 C30 1.397 . S
C29 C31 1.361 . S
C30 C29 1.397 . S
C30 C34 1.390 . S
C31 C29 1.361 . S
C31 C32 1.393 . S
C31 N35 1.413 . S
C32 H25 0.930 . S
C32 C31 1.393 . S
C32 C33 1.399 . S
C33 C32 1.399 . S
C33 C34 1.381 . S
C34 H26 0.930 . S
C34 C30 1.390 . S
C34 C33 1.381 . S
N35 C28 1.286 . S
N35 C31 1.413 . S
H36 C41 0.930 . S
H37 C44 0.930 . S
H38 C46 0.930 . S
H39 C40 1.016 . S
C40 H39 1.016 . S
C40 N47 1.286 . S
C41 H36 0.930 . S
C41 C42 1.397 . S
C41 C43 1.361 . S
C42 C41 1.397 . S
C42 C46 1.390 . S
C43 C41 1.361 . S
C43 C44 1.393 . S
C43 N47 1.413 . S
C44 H37 0.930 . S
C44 C43 1.393 . S
C44 C45 1.399 . S
C45 C44 1.399 . S
C45 C46 1.381 . S
C46 H38 0.930 . S
C46 C42 1.390 . S
C46 C45 1.381 . S
N47 C40 1.286 . S
N47 C43 1.413 . S
H48 C53 0.930 . S
H49 C56 0.930 . S
H50 C58 0.930 . S
H51 C52 1.016 . S
C52 H51 1.016 . S
C52 N59 1.286 . S
C53 H48 0.930 . S
C53 C54 1.397 . S
C53 C55 1.361 . S
C54 C53 1.397 . S
C54 C58 1.390 . S
C55 C53 1.361 . S
C55 C56 1.393 . S
C55 N59 1.413 . S
C56 H49 0.930 . S
C56 C55 1.393 . S
C56 C57 1.399 . S
C57 C56 1.399 . S
C57 C58 1.381 . S
C58 H50 0.930 . S
C58 C54 1.390 . S
C58 C57 1.381 . S
N59 C52 1.286 . S
N59 C55 1.413 . S
H60 C65 0.930 . S
H61 C68 0.930 . S
H62 C70 0.930 . S
H63 C64 1.016 . S
C64 H63 1.016 . S
C64 N71 1.286 . S
C65 H60 0.930 . S
C65 C66 1.397 . S
C65 C67 1.361 . S
C66 C65 1.397 . S
C66 C70 1.390 . S
C67 C65 1.361 . S
C67 C68 1.393 . S
C67 N71 1.413 . S
C68 H61 0.930 . S
C68 C67 1.393 . S
C68 C69 1.399 . S
C69 C68 1.399 . S
C69 C70 1.381 . S
C70 H62 0.930 . S
C70 C66 1.390 . S
C70 C69 1.381 . S
N71 C64 1.286 . S
N71 C67 1.413 . S
H72 C77 0.930 . S
H73 C80 0.930 . S
H74 C82 0.930 . S
H75 C76 1.016 . S
C76 H75 1.016 . S
C76 N83 1.286 . S
C77 H72 0.930 . S
C77 C78 1.397 . S
C77 C79 1.361 . S
C78 C77 1.397 . S
C78 C82 1.390 . S
C79 C77 1.361 . S
C79 C80 1.393 . S
C79 N83 1.413 . S
C80 H73 0.930 . S
C80 C79 1.393 . S
C80 C81 1.399 . S
C81 C80 1.399 . S
C81 C82 1.381 . S
C82 H74 0.930 . S
C82 C78 1.390 . S
C82 C81 1.381 . S
N83 C76 1.286 . S
N83 C79 1.413 . S
H84 C89 0.930 . S
H85 C92 0.930 . S
H86 C94 0.930 . S
H87 C88 1.016 . S
C88 H87 1.016 . S
C88 N95 1.286 . S
C89 H84 0.930 . S
C89 C90 1.397 . S
C89 C91 1.361 . S
C90 C89 1.397 . S
C90 C94 1.390 . S
C91 C89 1.361 . S
C91 C92 1.393 . S
C91 N95 1.413 . S
C92 H85 0.930 . S
C92 C91 1.393 . S
C92 C93 1.399 . S
C93 C92 1.399 . S
C93 C94 1.381 . S
C94 H86 0.930 . S
C94 C90 1.390 . S
C94 C93 1.381 . S
N95 C88 1.286 . S
N95 C91 1.413 . S
Tb96 C105 2.764 . S
Tb96 O106 2.326 1_455 S
Tb96 O109 2.303 . S
Tb96 O113 2.322 1_545 S
Tb96 O114 2.349 1_545 S
Tb96 O117 2.415 . S
Tb96 O118 2.399 . S
Tb97 O107 2.308 1_565 S
Tb97 O108 2.335 1_565 S
Tb97 O110 2.431 . S
Tb97 O111 2.402 . S
Tb97 O112 2.338 1_655 S
Tb97 O115 2.315 . S
Tb97 C126 2.775 . S
C98 O114 1.261 1_655 S
C98 O115 1.257 . S
C99 C102 1.358 . S
C99 C103 1.332 . S
C99 C105 1.504 . S
C100 C101 1.373 . S
C100 C104 1.308 . S
C101 C100 1.373 . S
C101 C102 1.429 . S
C101 H128 0.932 . S
C102 C99 1.358 . S
C102 C101 1.429 . S
C102 H129 0.930 . S
C103 C99 1.332 . S
C103 C104 1.394 . S
C103 H130 0.932 . S
C104 C100 1.308 . S
C104 C103 1.394 . S
C104 H131 0.929 . S
C105 Tb96 2.764 . S
C105 C99 1.504 . S
C105 O117 1.239 . S
C105 O118 1.263 . S
O106 Tb96 2.326 1_655 S
O106 C116 1.235 . S
O107 Tb97 2.308 1_545 S
O107 C116 1.257 . S
O108 Tb97 2.335 1_545 S
O108 C119 1.261 1_655 S
O109 Tb96 2.303 . S
O109 C119 1.257 . S
O110 Tb97 2.431 . S
O110 C126 1.239 . S
O111 Tb97 2.402 . S
O111 C126 1.263 . S
O112 Tb97 2.338 1_455 S
O112 C127 1.236 . S
O113 Tb96 2.322 1_565 S
O113 C127 1.257 . S
O114 Tb96 2.349 1_565 S
O114 C98 1.261 1_455 S
O115 Tb97 2.315 . S
O115 C98 1.257 . S
C116 O106 1.235 . S
C116 O107 1.257 . S
O117 Tb96 2.415 . S
O117 C105 1.239 . S
O118 Tb96 2.399 . S
O118 C105 1.263 . S
C119 O108 1.261 1_455 S
C119 O109 1.257 . S
C120 C123 1.358 . S
C120 C124 1.332 . S
C120 C126 1.504 . S
C121 C122 1.373 . S
C121 C125 1.308 . S
C122 C121 1.373 . S
C122 C123 1.429 . S
C122 H132 0.932 . S
C123 C120 1.358 . S
C123 C122 1.429 . S
C123 H133 0.930 . S
C124 C120 1.332 . S
C124 C125 1.394 . S
C124 H134 0.932 . S
C125 C121 1.308 . S
C125 C124 1.394 . S
C125 H135 0.929 . S
C126 Tb97 2.775 . S
C126 O110 1.239 . S
C126 O111 1.263 . S
C126 C120 1.504 . S
C127 O112 1.236 . S
C127 O113 1.257 . S
H128 C101 0.932 . S
H129 C102 0.930 . S
H130 C103 0.932 . S
H131 C104 0.929 . S
H132 C122 0.932 . S
H133 C123 0.930 . S
H134 C124 0.932 . S
H135 C125 0.929 . S
Tb136 C145 2.764 . S
Tb136 O146 2.325 . S
Tb136 O149 2.303 . S
Tb136 O153 2.322 1_545 S
Tb136 O154 2.349 1_545 S
Tb136 O157 2.415 . S
Tb136 O158 2.399 . S
Tb137 O147 2.322 . S
Tb137 O148 2.349 1_556 S
Tb137 O150 2.415 1_545 S
Tb137 O151 2.399 1_545 S
Tb137 O152 2.325 1_546 S
Tb137 O155 2.303 1_545 S
Tb137 C166 2.764 1_545 S
C138 O154 1.261 1_556 S
C138 O155 1.257 . S
C139 C142 1.358 . S
C139 C143 1.332 . S
C139 C145 1.504 . S
C140 C141 1.373 . S
C140 C144 1.308 . S
C141 C140 1.373 . S
C141 C142 1.429 . S
C141 H168 0.932 . S
C142 C139 1.358 . S
C142 C141 1.429 . S
C142 H169 0.930 . S
C143 C139 1.332 . S
C143 C144 1.394 . S
C143 H170 0.932 . S
C144 C140 1.308 . S
C144 C143 1.394 . S
C144 H171 0.929 . S
C145 Tb136 2.764 . S
C145 C139 1.504 . S
C145 O157 1.239 . S
C145 O158 1.263 . S
O146 Tb136 2.325 . S
O146 C156 1.236 1_554 S
O147 Tb137 2.322 . S
O147 C156 1.257 . S
O148 Tb137 2.349 1_554 S
O148 C159 1.261 . S
O149 Tb136 2.303 . S
O149 C159 1.257 . S
O150 Tb137 2.415 1_565 S
O150 C166 1.239 . S
O151 Tb137 2.399 1_565 S
O151 C166 1.263 . S
O152 Tb137 2.325 1_564 S
O152 C167 1.236 . S
O153 Tb136 2.322 1_565 S
O153 C167 1.257 . S
O154 Tb136 2.349 1_565 S
O154 C138 1.261 1_554 S
O155 Tb137 2.303 1_565 S
O155 C138 1.257 . S
C156 O146 1.236 1_556 S
C156 O147 1.257 . S
O157 Tb136 2.415 . S
O157 C145 1.239 . S
O158 Tb136 2.399 . S
O158 C145 1.263 . S
C159 O148 1.261 . S
C159 O149 1.257 . S
C160 C163 1.358 . S
C160 C164 1.332 . S
C160 C166 1.504 . S
C161 C162 1.373 . S
C161 C165 1.308 . S
C162 C161 1.373 . S
C162 C163 1.429 . S
C162 H172 0.932 . S
C163 C160 1.358 . S
C163 C162 1.429 . S
C163 H173 0.930 . S
C164 C160 1.332 . S
C164 C165 1.394 . S
C164 H174 0.932 . S
C165 C161 1.308 . S
C165 C164 1.394 . S
C165 H175 0.929 . S
C166 Tb137 2.764 1_565 S
C166 O150 1.239 . S
C166 O151 1.263 . S
C166 C160 1.504 . S
C167 O152 1.236 . S
C167 O153 1.257 . S
H168 C141 0.932 . S
H169 C142 0.930 . S
H170 C143 0.932 . S
H171 C144 0.929 . S
H172 C162 0.932 . S
H173 C163 0.930 . S
H174 C164 0.932 . S
H175 C165 0.929 . S
Tb176 C185 2.764 . S
Tb176 O186 2.325 . S
Tb176 O189 2.303 . S
Tb176 O193 2.322 . S
Tb176 O194 2.349 . S
Tb176 O197 2.415 . S
Tb176 O198 2.399 . S
Tb177 O187 2.322 . S
Tb177 O188 2.349 . S
Tb177 O190 2.415 . S
Tb177 O191 2.399 . S
Tb177 O192 2.325 . S
Tb177 O195 2.303 . S
Tb177 C206 2.764 . S
C178 O194 1.261 . S
C178 O195 1.257 . S
C179 C182 1.358 . S
C179 C183 1.332 . S
C179 C185 1.504 . S
C180 C181 1.373 . S
C180 C184 1.308 . S
C181 C180 1.373 . S
C181 C182 1.429 . S
C181 H208 0.932 . S
C182 C179 1.358 . S
C182 C181 1.429 . S
C182 H209 0.930 . S
C183 C179 1.332 . S
C183 C184 1.394 . S
C183 H210 0.932 . S
C184 C180 1.308 . S
C184 C183 1.394 . S
C184 H211 0.929 . S
C185 Tb176 2.764 . S
C185 C179 1.504 . S
C185 O197 1.239 . S
C185 O198 1.263 . S
O186 Tb176 2.325 . S
O186 C196 1.236 . S
O187 Tb177 2.322 . S
O187 C196 1.257 . S
O188 Tb177 2.349 . S
O188 C199 1.261 . S
O189 Tb176 2.303 . S
O189 C199 1.257 . S
O190 Tb177 2.415 . S
O190 C206 1.239 . S
O191 Tb177 2.399 . S
O191 C206 1.263 . S
O192 Tb177 2.325 . S
O192 C207 1.236 . S
O193 Tb176 2.322 . S
O193 C207 1.257 . S
O194 Tb176 2.349 . S
O194 C178 1.261 . S
O195 Tb177 2.303 . S
O195 C178 1.257 . S
C196 O186 1.236 . S
C196 O187 1.257 . S
O197 Tb176 2.415 . S
O197 C185 1.239 . S
O198 Tb176 2.399 . S
O198 C185 1.263 . S
C199 O188 1.261 . S
C199 O189 1.257 . S
C200 C203 1.358 . S
C200 C204 1.332 . S
C200 C206 1.504 . S
C201 C202 1.373 . S
C201 C205 1.308 . S
C202 C201 1.373 . S
C202 C203 1.429 . S
C202 H212 0.932 . S
C203 C200 1.358 . S
C203 C202 1.429 . S
C203 H213 0.930 . S
C204 C200 1.332 . S
C204 C205 1.394 . S
C204 H214 0.932 . S
C205 C201 1.308 . S
C205 C204 1.394 . S
C205 H215 0.929 . S
C206 Tb177 2.764 . S
C206 O190 1.239 . S
C206 O191 1.263 . S
C206 C200 1.504 . S
C207 O192 1.236 . S
C207 O193 1.257 . S
H208 C181 0.932 . S
H209 C182 0.930 . S
H210 C183 0.932 . S
H211 C184 0.929 . S
H212 C202 0.932 . S
H213 C203 0.930 . S
H214 C204 0.932 . S
H215 C205 0.929 . S
Tb216 C225 2.764 1_455 S
Tb216 O226 2.325 1_455 S
Tb216 O229 2.303 1_456 S
Tb216 O233 2.322 1_556 S
Tb216 O234 2.349 . S
Tb216 O237 2.415 1_455 S
Tb216 O238 2.399 1_455 S
Tb217 O227 2.322 1_455 S
Tb217 O228 2.349 1_455 S
Tb217 O230 2.415 . S
Tb217 O231 2.399 . S
Tb217 O232 2.325 . S
Tb217 O235 2.303 1_554 S
Tb217 C246 2.764 . S
C218 O234 1.261 . S
C218 O235 1.257 . S
C219 C222 1.358 . S
C219 C223 1.332 . S
C219 C225 1.504 . S
C220 C221 1.373 . S
C220 C224 1.308 . S
C221 C220 1.373 . S
C221 C222 1.429 . S
C221 H248 0.932 . S
C222 C219 1.358 . S
C222 C221 1.429 . S
C222 H249 0.930 . S
C223 C219 1.332 . S
C223 C224 1.394 . S
C223 H250 0.932 . S
C224 C220 1.308 . S
C224 C223 1.394 . S
C224 H251 0.929 . S
C225 Tb216 2.764 1_655 S
C225 C219 1.504 . S
C225 O237 1.239 . S
C225 O238 1.263 . S
O226 Tb216 2.325 1_655 S
O226 C236 1.236 . S
O227 Tb217 2.322 1_655 S
O227 C236 1.257 1_554 S
O228 Tb217 2.349 1_655 S
O228 C239 1.261 . S
O229 Tb216 2.303 1_654 S
O229 C239 1.257 . S
O230 Tb217 2.415 . S
O230 C246 1.239 . S
O231 Tb217 2.399 . S
O231 C246 1.263 . S
O232 Tb217 2.325 . S
O232 C247 1.236 . S
O233 Tb216 2.322 1_554 S
O233 C247 1.257 . S
O234 Tb216 2.349 . S
O234 C218 1.261 . S
O235 Tb217 2.303 1_556 S
O235 C218 1.257 . S
C236 O226 1.236 . S
C236 O227 1.257 1_556 S
O237 Tb216 2.415 1_655 S
O237 C225 1.239 . S
O238 Tb216 2.399 1_655 S
O238 C225 1.263 . S
C239 O228 1.261 . S
C239 O229 1.257 . S
C240 C243 1.358 . S
C240 C244 1.332 . S
C240 C246 1.504 . S
C241 C242 1.373 . S
C241 C245 1.308 . S
C242 C241 1.373 . S
C242 C243 1.429 . S
C242 H252 0.932 . S
C243 C240 1.358 . S
C243 C242 1.429 . S
C243 H253 0.930 . S
C244 C240 1.332 . S
C244 C245 1.394 . S
C244 H254 0.932 . S
C245 C241 1.308 . S
C245 C244 1.394 . S
C245 H255 0.929 . S
C246 Tb217 2.764 . S
C246 O230 1.239 . S
C246 O231 1.263 . S
C246 C240 1.504 . S
C247 O232 1.236 . S
C247 O233 1.257 . S
H248 C221 0.932 . S
H249 C222 0.930 . S
H250 C223 0.932 . S
H251 C224 0.929 . S
H252 C242 0.932 . S
H253 C243 0.930 . S
H254 C244 0.932 . S
H255 C245 0.929 . S
H256 C268 0.930 . S
H257 C270 0.930 . S
H258 C271 0.930 . S
H259 C275 0.959 . S
H260 C275 0.959 . S
H261 C275 0.961 . S
H262 C276 0.960 . S
H263 C276 0.961 . S
H264 C276 0.959 . S
H265 C279 0.929 . S
H266 C280 0.931 . S
H267 C282 0.930 . S
C268 H256 0.930 . S
C268 C269 1.399 . S
C268 C273 1.399 . S
C269 C268 1.399 . S
C269 C270 1.376 . S
C270 H257 0.930 . S
C270 C269 1.376 . S
C270 C271 1.388 . S
C271 H258 0.930 . S
C271 C270 1.388 . S
C271 C272 1.390 . S
C272 C271 1.390 . S
C272 C273 1.394 . S
C272 C278 1.465 . S
C273 C268 1.399 . S
C273 C272 1.394 . S
C273 C274 1.516 . S
C274 C273 1.516 . S
C274 C275 1.502 . S
C274 C276 1.561 . S
C274 C277 1.526 . S
C275 H259 0.959 . S
C275 H260 0.959 . S
C275 H261 0.961 . S
C275 C274 1.502 . S
C276 H262 0.960 . S
C276 H263 0.961 . S
C276 H264 0.959 . S
C276 C274 1.561 . S
C277 C274 1.526 . S
C277 C278 1.396 . S
C277 C282 1.390 . S
C278 C272 1.465 . S
C278 C277 1.396 . S
C278 C279 1.399 . S
C279 H265 0.929 . S
C279 C278 1.399 . S
C279 C280 1.385 . S
C280 H266 0.931 . S
C280 C279 1.385 . S
C280 C281 1.389 . S
C281 C280 1.389 . S
C281 C282 1.387 . S
C282 H267 0.930 . S
C282 C277 1.390 . S
C282 C281 1.387 . S
H283 C295 0.930 . S
H284 C297 0.930 . S
H285 C298 0.930 . S
H286 C302 0.959 . S
H287 C302 0.959 . S
H288 C302 0.961 . S
H289 C303 0.960 . S
H290 C303 0.961 . S
H291 C303 0.959 . S
H292 C306 0.929 . S
H293 C307 0.931 . S
H294 C309 0.930 . S
C295 H283 0.930 . S
C295 C296 1.399 . S
C295 C300 1.399 . S
C296 C295 1.399 . S
C296 C297 1.376 . S
C297 H284 0.930 . S
C297 C296 1.376 . S
C297 C298 1.388 . S
C298 H285 0.930 . S
C298 C297 1.388 . S
C298 C299 1.390 . S
C299 C298 1.390 . S
C299 C300 1.394 . S
C299 C305 1.465 . S
C300 C295 1.399 . S
C300 C299 1.394 . S
C300 C301 1.516 . S
C301 C300 1.516 . S
C301 C302 1.502 . S
C301 C303 1.561 . S
C301 C304 1.526 . S
C302 H286 0.959 . S
C302 H287 0.959 . S
C302 H288 0.961 . S
C302 C301 1.502 . S
C303 H289 0.960 . S
C303 H290 0.961 . S
C303 H291 0.959 . S
C303 C301 1.561 . S
C304 C301 1.526 . S
C304 C305 1.396 . S
C304 C309 1.390 . S
C305 C299 1.465 . S
C305 C304 1.396 . S
C305 C306 1.399 . S
C306 H292 0.929 . S
C306 C305 1.399 . S
C306 C307 1.385 . S
C307 H293 0.931 . S
C307 C306 1.385 . S
C307 C308 1.389 . S
C308 C307 1.389 . S
C308 C309 1.387 . S
C309 H294 0.930 . S
C309 C304 1.390 . S
C309 C308 1.387 . S
H310 C322 0.930 . S
H311 C324 0.930 . S
H312 C325 0.930 . S
H313 C329 0.959 . S
H314 C329 0.959 . S
H315 C329 0.961 . S
H316 C330 0.960 . S
H317 C330 0.961 . S
H318 C330 0.959 . S
H319 C333 0.929 . S
H320 C334 0.931 . S
H321 C336 0.930 . S
C322 H310 0.930 . S
C322 C323 1.399 . S
C322 C327 1.399 . S
C323 C322 1.399 . S
C323 C324 1.376 . S
C324 H311 0.930 . S
C324 C323 1.376 . S
C324 C325 1.388 . S
C325 H312 0.930 . S
C325 C324 1.388 . S
C325 C326 1.390 . S
C326 C325 1.390 . S
C326 C327 1.394 . S
C326 C332 1.465 . S
C327 C322 1.399 . S
C327 C326 1.394 . S
C327 C328 1.516 . S
C328 C327 1.516 . S
C328 C329 1.502 . S
C328 C330 1.561 . S
C328 C331 1.526 . S
C329 H313 0.959 . S
C329 H314 0.959 . S
C329 H315 0.961 . S
C329 C328 1.502 . S
C330 H316 0.960 . S
C330 H317 0.961 . S
C330 H318 0.959 . S
C330 C328 1.561 . S
C331 C328 1.526 . S
C331 C332 1.396 . S
C331 C336 1.390 . S
C332 C326 1.465 . S
C332 C331 1.396 . S
C332 C333 1.399 . S
C333 H319 0.929 . S
C333 C332 1.399 . S
C333 C334 1.385 . S
C334 H320 0.931 . S
C334 C333 1.385 . S
C334 C335 1.389 . S
C335 C334 1.389 . S
C335 C336 1.387 . S
C336 H321 0.930 . S
C336 C331 1.390 . S
C336 C335 1.387 . S
H337 C349 0.930 . S
H338 C351 0.930 . S
H339 C352 0.930 . S
H340 C356 0.959 . S
H341 C356 0.959 . S
H342 C356 0.961 . S
H343 C357 0.960 . S
H344 C357 0.961 . S
H345 C357 0.959 . S
H346 C360 0.929 . S
H347 C361 0.931 . S
H348 C363 0.930 . S
C349 H337 0.930 . S
C349 C350 1.399 . S
C349 C354 1.399 . S
C350 C349 1.399 . S
C350 C351 1.376 . S
C351 H338 0.930 . S
C351 C350 1.376 . S
C351 C352 1.388 . S
C352 H339 0.930 . S
C352 C351 1.388 . S
C352 C353 1.390 . S
C353 C352 1.390 . S
C353 C354 1.394 . S
C353 C359 1.465 . S
C354 C349 1.399 . S
C354 C353 1.394 . S
C354 C355 1.516 . S
C355 C354 1.516 . S
C355 C356 1.502 . S
C355 C357 1.561 . S
C355 C358 1.526 . S
C356 H340 0.959 . S
C356 H341 0.959 . S
C356 H342 0.961 . S
C356 C355 1.502 . S
C357 H343 0.960 . S
C357 H344 0.961 . S
C357 H345 0.959 . S
C357 C355 1.561 . S
C358 C355 1.526 . S
C358 C359 1.396 . S
C358 C363 1.390 . S
C359 C353 1.465 . S
C359 C358 1.396 . S
C359 C360 1.399 . S
C360 H346 0.929 . S
C360 C359 1.399 . S
C360 C361 1.385 . S
C361 H347 0.931 . S
C361 C360 1.385 . S
C361 C362 1.389 . S
C362 C361 1.389 . S
C362 C363 1.387 . S
C363 H348 0.930 . S
C363 C358 1.390 . S
C363 C362 1.387 . S
H364 C376 0.930 . S
H365 C378 0.930 . S
H366 C379 0.930 . S
H367 C383 0.959 . S
H368 C383 0.959 . S
H369 C383 0.961 . S
H370 C384 0.960 . S
H371 C384 0.961 . S
H372 C384 0.959 . S
H373 C387 0.929 . S
H374 C388 0.931 . S
H375 C390 0.930 . S
C376 H364 0.930 . S
C376 C377 1.399 . S
C376 C381 1.399 . S
C377 C376 1.399 . S
C377 C378 1.376 . S
C378 H365 0.930 . S
C378 C377 1.376 . S
C378 C379 1.388 . S
C379 H366 0.930 . S
C379 C378 1.388 . S
C379 C380 1.390 . S
C380 C379 1.390 . S
C380 C381 1.394 . S
C380 C386 1.465 . S
C381 C376 1.399 . S
C381 C380 1.394 . S
C381 C382 1.516 . S
C382 C381 1.516 . S
C382 C383 1.502 . S
C382 C384 1.561 . S
C382 C385 1.526 . S
C383 H367 0.959 . S
C383 H368 0.959 . S
C383 H369 0.961 . S
C383 C382 1.502 . S
C384 H370 0.960 . S
C384 H371 0.961 . S
C384 H372 0.959 . S
C384 C382 1.561 . S
C385 C382 1.526 . S
C385 C386 1.396 . S
C385 C390 1.390 . S
C386 C380 1.465 . S
C386 C385 1.396 . S
C386 C387 1.399 . S
C387 H373 0.929 . S
C387 C386 1.399 . S
C387 C388 1.385 . S
C388 H374 0.931 . S
C388 C387 1.385 . S
C388 C389 1.389 . S
C389 C388 1.389 . S
C389 C390 1.387 . S
C390 H375 0.930 . S
C390 C385 1.390 . S
C390 C389 1.387 . S
H391 C403 0.930 . S
H392 C405 0.930 . S
H393 C406 0.930 . S
H394 C410 0.959 . S
H395 C410 0.959 . S
H396 C410 0.961 . S
H397 C411 0.960 . S
H398 C411 0.961 . S
H399 C411 0.959 . S
H400 C414 0.929 . S
H401 C415 0.931 . S
H402 C417 0.930 . S
C403 H391 0.930 . S
C403 C404 1.399 . S
C403 C408 1.399 . S
C404 C403 1.399 . S
C404 C405 1.376 . S
C405 H392 0.930 . S
C405 C404 1.376 . S
C405 C406 1.388 . S
C406 H393 0.930 . S
C406 C405 1.388 . S
C406 C407 1.390 . S
C407 C406 1.390 . S
C407 C408 1.394 . S
C407 C413 1.465 . S
C408 C403 1.399 . S
C408 C407 1.394 . S
C408 C409 1.516 . S
C409 C408 1.516 . S
C409 C410 1.502 1_455 S
C409 C411 1.561 . S
C409 C412 1.526 . S
C410 H394 0.959 . S
C410 H395 0.959 . S
C410 H396 0.961 . S
C410 C409 1.502 1_655 S
C411 H397 0.960 . S
C411 H398 0.961 . S
C411 H399 0.959 . S
C411 C409 1.561 . S
C412 C409 1.526 . S
C412 C413 1.396 . S
C412 C417 1.390 . S
C413 C407 1.465 . S
C413 C412 1.396 . S
C413 C414 1.399 . S
C414 H400 0.929 . S
C414 C413 1.399 . S
C414 C415 1.385 . S
C415 H401 0.931 . S
C415 C414 1.385 . S
C415 C416 1.389 . S
C416 C415 1.389 . S
C416 C417 1.387 . S
C417 H402 0.930 . S
C417 C412 1.390 . S
C417 C416 1.387 . S
H418 C430 0.930 . S
H419 C432 0.930 . S
H420 C433 0.930 . S
H421 C437 0.959 . S
H422 C437 0.959 1_554 S
H423 C437 0.961 . S
H424 C438 0.960 . S
H425 C438 0.944 1_554 S
H426 C438 0.959 . S
H427 C441 0.929 . S
H428 C442 0.931 . S
H429 C444 0.917 1_554 S
C430 H418 0.930 . S
C430 C431 1.399 . S
C430 C435 1.399 . S
C431 C430 1.399 . S
C431 C432 1.376 . S
C432 H419 0.930 . S
C432 C431 1.376 . S
C432 C433 1.388 . S
C433 H420 0.930 . S
C433 C432 1.388 . S
C433 C434 1.390 . S
C434 C433 1.390 . S
C434 C435 1.394 . S
C434 C440 1.465 . S
C435 C430 1.399 . S
C435 C434 1.394 . S
C435 C436 1.516 . S
C436 C435 1.516 . S
C436 C437 1.502 . S
C436 C438 1.561 . S
C436 C439 1.526 . S
C437 H421 0.959 . S
C437 H422 0.959 1_556 S
C437 H423 0.961 . S
C437 C436 1.502 . S
C438 H424 0.960 . S
C438 H425 0.944 1_556 S
C438 H426 0.959 . S
C438 C436 1.561 . S
C439 C436 1.526 . S
C439 C440 1.396 . S
C439 C444 1.390 . S
C440 C434 1.465 . S
C440 C439 1.396 . S
C440 C441 1.399 . S
C441 H427 0.929 . S
C441 C440 1.399 . S
C441 C442 1.385 . S
C442 H428 0.931 . S
C442 C441 1.385 . S
C442 C443 1.389 . S
C443 C442 1.389 . S
C443 C444 1.387 . S
C444 H429 0.917 1_556 S
C444 C439 1.390 . S
C444 C443 1.387 . S
H445 C457 0.930 . S
H446 C459 0.930 . S
H447 C460 0.930 . S
H448 C464 0.959 . S
H449 C464 0.959 . S
H450 C464 0.961 . S
H451 C465 0.960 . S
H452 C465 0.961 . S
H453 C465 0.959 . S
H454 C468 0.929 . S
H455 C469 0.931 . S
H456 C471 0.930 . S
C457 H445 0.930 . S
C457 C458 1.399 . S
C457 C462 1.399 . S
C458 C457 1.399 . S
C458 C459 1.376 . S
C459 H446 0.930 . S
C459 C458 1.376 . S
C459 C460 1.388 . S
C460 H447 0.930 . S
C460 C459 1.388 . S
C460 C461 1.390 . S
C461 C460 1.390 . S
C461 C462 1.394 . S
C461 C467 1.465 . S
C462 C457 1.399 . S
C462 C461 1.394 . S
C462 C463 1.516 . S
C463 C462 1.516 . S
C463 C464 1.502 . S
C463 C465 1.561 . S
C463 C466 1.526 . S
C464 H448 0.959 . S
C464 H449 0.959 . S
C464 H450 0.961 . S
C464 C463 1.502 . S
C465 H451 0.960 . S
C465 H452 0.961 . S
C465 H453 0.959 . S
C465 C463 1.561 . S
C466 C463 1.526 . S
C466 C467 1.396 . S
C466 C471 1.390 . S
C467 C461 1.465 . S
C467 C466 1.396 . S
C467 C468 1.399 . S
C468 H454 0.929 . S
C468 C467 1.399 . S
C468 C469 1.385 . S
C469 H455 0.931 . S
C469 C468 1.385 . S
C469 C470 1.389 . S
C470 C469 1.389 . S
C470 C471 1.387 . S
C471 H456 0.930 . S
C471 C466 1.390 . S
C471 C470 1.387 . S
H472 C484 0.930 . S
H473 C486 0.930 . S
H474 C487 0.930 . S
H475 C491 0.959 . S
H476 C491 0.959 . S
H477 C491 0.961 . S
H478 C492 0.960 . S
H479 C492 0.961 . S
H480 C492 0.959 . S
H481 C495 0.929 . S
H482 C496 0.931 . S
H483 C498 0.930 . S
C484 H472 0.930 . S
C484 C485 1.399 . S
C484 C489 1.399 . S
C485 C484 1.399 . S
C485 C486 1.376 . S
C486 H473 0.930 . S
C486 C485 1.376 . S
C486 C487 1.388 . S
C487 H474 0.930 . S
C487 C486 1.388 . S
C487 C488 1.390 . S
C488 C487 1.390 . S
C488 C489 1.394 . S
C488 C494 1.465 . S
C489 C484 1.399 . S
C489 C488 1.394 . S
C489 C490 1.516 . S
C490 C489 1.516 . S
C490 C491 1.502 . S
C490 C492 1.561 . S
C490 C493 1.526 . S
C491 H475 0.959 . S
C491 H476 0.959 . S
C491 H477 0.961 . S
C491 C490 1.502 . S
C492 H478 0.960 . S
C492 H479 0.961 . S
C492 H480 0.959 . S
C492 C490 1.561 . S
C493 C490 1.526 . S
C493 C494 1.396 . S
C493 C498 1.390 . S
C494 C488 1.465 . S
C494 C493 1.396 . S
C494 C495 1.399 . S
C495 H481 0.929 . S
C495 C494 1.399 . S
C495 C496 1.385 . S
C496 H482 0.931 . S
C496 C495 1.385 . S
C496 C497 1.389 . S
C497 C496 1.389 . S
C497 C498 1.387 . S
C498 H483 0.930 . S
C498 C493 1.390 . S
C498 C497 1.387 . S
H499 C511 0.930 . S
H500 C513 0.930 . S
H501 C514 0.930 . S
H502 C518 0.959 . S
H503 C518 0.959 . S
H504 C518 0.961 . S
H505 C519 0.960 . S
H506 C519 0.961 . S
H507 C519 0.959 . S
H508 C522 0.929 . S
H509 C523 0.931 1_554 S
H510 C525 0.930 . S
C511 H499 0.930 . S
C511 C512 1.399 . S
C511 C516 1.399 . S
C512 C511 1.399 . S
C512 C513 1.376 . S
C513 H500 0.930 . S
C513 C512 1.376 . S
C513 C514 1.388 . S
C514 H501 0.930 . S
C514 C513 1.388 . S
C514 C515 1.390 . S
C515 C514 1.390 . S
C515 C516 1.394 . S
C515 C521 1.465 . S
C516 C511 1.399 . S
C516 C515 1.394 . S
C516 C517 1.516 . S
C517 C516 1.516 . S
C517 C518 1.502 . S
C517 C519 1.561 . S
C517 C520 1.526 . S
C518 H502 0.959 . S
C518 H503 0.959 . S
C518 H504 0.961 . S
C518 C517 1.502 . S
C519 H505 0.960 . S
C519 H506 0.961 . S
C519 H507 0.959 . S
C519 C517 1.561 . S
C520 C517 1.526 . S
C520 C521 1.396 . S
C520 C525 1.390 . S
C521 C515 1.465 . S
C521 C520 1.396 . S
C521 C522 1.399 . S
C522 H508 0.929 . S
C522 C521 1.399 . S
C522 C523 1.385 . S
C523 H509 0.931 1_556 S
C523 C522 1.385 . S
C523 C524 1.389 . S
C524 C523 1.389 . S
C524 C525 1.387 . S
C525 H510 0.930 . S
C525 C520 1.390 . S
C525 C524 1.387 . S
H526 C538 0.930 . S
H527 C540 0.930 . S
H528 C541 0.930 . S
H529 C545 0.959 . S
H530 C545 0.959 . S
H531 C545 0.961 . S
H532 C546 0.960 . S
H533 C546 0.961 . S
H534 C546 0.959 . S
H535 C549 0.929 . S
H536 C550 0.931 . S
H537 C552 0.930 . S
C538 H526 0.930 . S
C538 C539 1.399 . S
C538 C543 1.399 . S
C539 C538 1.399 . S
C539 C540 1.376 . S
C540 H527 0.930 . S
C540 C539 1.376 . S
C540 C541 1.388 . S
C541 H528 0.930 . S
C541 C540 1.388 . S
C541 C542 1.390 . S
C542 C541 1.390 . S
C542 C543 1.394 . S
C542 C548 1.465 . S
C543 C538 1.399 . S
C543 C542 1.394 . S
C543 C544 1.516 . S
C544 C543 1.516 . S
C544 C545 1.502 . S
C544 C546 1.561 . S
C544 C547 1.526 . S
C545 H529 0.959 . S
C545 H530 0.959 . S
C545 H531 0.961 . S
C545 C544 1.502 . S
C546 H532 0.960 . S
C546 H533 0.961 . S
C546 H534 0.959 . S
C546 C544 1.561 . S
C547 C544 1.526 . S
C547 C548 1.396 . S
C547 C552 1.390 . S
C548 C542 1.465 . S
C548 C547 1.396 . S
C548 C549 1.399 . S
C549 H535 0.929 . S
C549 C548 1.399 . S
C549 C550 1.385 . S
C550 H536 0.931 . S
C550 C549 1.385 . S
C550 C551 1.389 . S
C551 C550 1.389 . S
C551 C552 1.387 . S
C552 H537 0.930 . S
C552 C547 1.390 . S
C552 C551 1.387 . S
H553 C565 0.930 . S
H554 C567 0.930 . S
H555 C568 0.930 . S
H556 C572 0.959 . S
H557 C572 0.959 . S
H558 C572 0.961 . S
H559 C573 0.960 . S
H560 C573 0.961 . S
H561 C573 0.959 . S
H562 C576 0.929 . S
H563 C577 0.931 . S
H564 C579 0.930 . S
C565 H553 0.930 . S
C565 C566 1.399 . S
C565 C570 1.399 . S
C566 C565 1.399 . S
C566 C567 1.376 . S
C567 H554 0.930 . S
C567 C566 1.376 . S
C567 C568 1.388 . S
C568 H555 0.930 . S
C568 C567 1.388 . S
C568 C569 1.390 . S
C569 C568 1.390 . S
C569 C570 1.394 . S
C569 C575 1.465 . S
C570 C565 1.399 . S
C570 C569 1.394 . S
C570 C571 1.516 . S
C571 C570 1.516 . S
C571 C572 1.502 . S
C571 C573 1.561 . S
C571 C574 1.526 . S
C572 H556 0.959 . S
C572 H557 0.959 . S
C572 H558 0.961 . S
C572 C571 1.502 . S
C573 H559 0.960 . S
C573 H560 0.961 . S
C573 H561 0.959 . S
C573 C571 1.561 . S
C574 C571 1.526 . S
C574 C575 1.396 . S
C574 C579 1.390 . S
C575 C569 1.465 . S
C575 C574 1.396 . S
C575 C576 1.399 . S
C576 H562 0.929 . S
C576 C575 1.399 . S
C576 C577 1.385 . S
C577 H563 0.931 . S
C577 C576 1.385 . S
C577 C578 1.389 . S
C578 C577 1.389 . S
C578 C579 1.387 . S
C579 H564 0.930 . S
C579 C574 1.390 . S
C579 C578 1.387 . S
H580 C592 0.930 . S
H581 C594 0.930 . S
H582 C595 0.930 . S
H583 C599 0.959 . S
H584 C599 0.959 . S
H585 C599 0.961 . S
H586 C600 0.960 . S
H587 C600 0.961 . S
H588 C600 0.959 . S
H589 C603 0.929 . S
H590 C604 0.931 . S
H591 C606 0.930 . S
C592 H580 0.930 . S
C592 C593 1.399 . S
C592 C597 1.399 . S
C593 C592 1.399 . S
C593 C594 1.376 . S
C594 H581 0.930 . S
C594 C593 1.376 . S
C594 C595 1.388 . S
C595 H582 0.930 . S
C595 C594 1.388 . S
C595 C596 1.390 . S
C596 C595 1.390 . S
C596 C597 1.394 . S
C596 C602 1.465 . S
C597 C592 1.399 . S
C597 C596 1.394 . S
C597 C598 1.516 . S
C598 C597 1.516 . S
C598 C599 1.502 . S
C598 C600 1.561 . S
C598 C601 1.526 . S
C599 H583 0.959 . S
C599 H584 0.959 . S
C599 H585 0.961 . S
C599 C598 1.502 . S
C600 H586 0.960 . S
C600 H587 0.961 . S
C600 H588 0.959 . S
C600 C598 1.561 . S
C601 C598 1.526 . S
C601 C602 1.396 . S
C601 C606 1.390 . S
C602 C596 1.465 . S
C602 C601 1.396 . S
C602 C603 1.399 . S
C603 H589 0.929 . S
C603 C602 1.399 . S
C603 C604 1.385 . S
C604 H590 0.931 . S
C604 C603 1.385 . S
C604 C605 1.389 . S
C605 C604 1.389 . S
C605 C606 1.387 . S
C606 H591 0.930 . S
C606 C601 1.390 . S
C606 C605 1.387 . S
H607 C619 0.930 . S
H608 C621 0.930 . S
H609 C622 0.930 . S
H610 C626 0.959 . S
H611 C626 0.959 . S
H612 C626 0.961 . S
H613 C627 0.960 . S
H614 C627 0.961 . S
H615 C627 0.959 . S
H616 C630 0.929 . S
H617 C631 0.931 . S
H618 C633 0.930 . S
C619 H607 0.930 . S
C619 C620 1.399 . S
C619 C624 1.399 . S
C620 C619 1.399 . S
C620 C621 1.376 . S
C621 H608 0.930 . S
C621 C620 1.376 . S
C621 C622 1.388 . S
C622 H609 0.930 . S
C622 C621 1.388 . S
C622 C623 1.390 . S
C623 C622 1.390 . S
C623 C624 1.394 . S
C623 C629 1.465 . S
C624 C619 1.399 . S
C624 C623 1.394 . S
C624 C625 1.516 . S
C625 C624 1.516 . S
C625 C626 1.502 . S
C625 C627 1.561 . S
C625 C628 1.526 . S
C626 H610 0.959 . S
C626 H611 0.959 . S
C626 H612 0.961 . S
C626 C625 1.502 . S
C627 H613 0.960 . S
C627 H614 0.961 . S
C627 H615 0.959 . S
C627 C625 1.561 . S
C628 C625 1.526 . S
C628 C629 1.396 . S
C628 C633 1.390 . S
C629 C623 1.465 . S
C629 C628 1.396 . S
C629 C630 1.399 . S
C630 H616 0.929 . S
C630 C629 1.399 . S
C630 C631 1.385 . S
C631 H617 0.931 . S
C631 C630 1.385 . S
C631 C632 1.389 . S
C632 C631 1.389 . S
C632 C633 1.387 . S
C633 H618 0.930 . S
C633 C628 1.390 . S
C633 C632 1.387 . S
H634 C646 0.930 . S
H635 C648 0.930 . S
H636 C649 0.930 . S
H637 C653 0.959 . S
H638 C653 0.959 . S
H639 C653 0.961 . S
H640 C654 0.960 . S
H641 C654 0.961 . S
H642 C654 0.959 . S
H643 C657 0.929 . S
H644 C658 0.931 . S
H645 C660 0.930 . S
C646 H634 0.930 . S
C646 C647 1.399 . S
C646 C651 1.399 . S
C647 C646 1.399 . S
C647 C648 1.376 . S
C648 H635 0.930 . S
C648 C647 1.376 . S
C648 C649 1.388 . S
C649 H636 0.930 . S
C649 C648 1.388 . S
C649 C650 1.390 . S
C650 C649 1.390 . S
C650 C651 1.394 . S
C650 C656 1.465 . S
C651 C646 1.399 . S
C651 C650 1.394 . S
C651 C652 1.516 . S
C652 C651 1.516 . S
C652 C653 1.502 . S
C652 C654 1.561 . S
C652 C655 1.526 . S
C653 H637 0.959 . S
C653 H638 0.959 . S
C653 H639 0.961 . S
C653 C652 1.502 . S
C654 H640 0.960 . S
C654 H641 0.961 . S
C654 H642 0.959 . S
C654 C652 1.561 . S
C655 C652 1.526 . S
C655 C656 1.396 . S
C655 C660 1.390 . S
C656 C650 1.465 . S
C656 C655 1.396 . S
C656 C657 1.399 . S
C657 H643 0.929 . S
C657 C656 1.399 . S
C657 C658 1.385 . S
C658 H644 0.931 . S
C658 C657 1.385 . S
C658 C659 1.389 . S
C659 C658 1.389 . S
C659 C660 1.387 . S
C660 H645 0.930 . S
C660 C655 1.390 . S
C660 C659 1.387 . S
H661 C673 0.930 . S
H662 C675 0.930 . S
H663 C676 0.930 . S
H664 C680 0.959 . S
H665 C680 0.959 . S
H666 C680 0.961 . S
H667 C681 0.960 . S
H668 C681 0.961 . S
H669 C681 0.959 . S
H670 C684 0.929 . S
H671 C685 0.931 . S
H672 C687 0.930 . S
C673 H661 0.930 . S
C673 C674 1.399 . S
C673 C678 1.399 . S
C674 C673 1.399 . S
C674 C675 1.376 . S
C675 H662 0.930 . S
C675 C674 1.376 . S
C675 C676 1.388 . S
C676 H663 0.930 . S
C676 C675 1.388 . S
C676 C677 1.390 . S
C677 C676 1.390 . S
C677 C678 1.394 . S
C677 C683 1.465 . S
C678 C673 1.399 . S
C678 C677 1.394 . S
C678 C679 1.516 . S
C679 C678 1.516 . S
C679 C680 1.502 . S
C679 C681 1.561 . S
C679 C682 1.526 . S
C680 H664 0.959 . S
C680 H665 0.959 . S
C680 H666 0.961 . S
C680 C679 1.502 . S
C681 H667 0.960 . S
C681 H668 0.961 . S
C681 H669 0.959 . S
C681 C679 1.561 . S
C682 C679 1.526 . S
C682 C683 1.396 . S
C682 C687 1.390 . S
C683 C677 1.465 . S
C683 C682 1.396 . S
C683 C684 1.399 . S
C684 H670 0.929 . S
C684 C683 1.399 . S
C684 C685 1.385 . S
C685 H671 0.931 . S
C685 C684 1.385 . S
C685 C686 1.389 . S
C686 C685 1.389 . S
C686 C687 1.387 . S
C687 H672 0.930 . S
C687 C682 1.390 . S
C687 C686 1.387 . S
H688 C700 0.930 . S
H689 C702 0.930 . S
H690 C703 0.930 . S
H691 C707 0.959 . S
H692 C707 0.959 . S
H693 C707 0.961 . S
H694 C708 0.960 . S
H695 C708 0.961 . S
H696 C708 0.959 . S
H697 C711 0.929 . S
H698 C712 0.931 . S
H699 C714 0.930 . S
C700 H688 0.930 . S
C700 C701 1.399 . S
C700 C705 1.399 . S
C701 C700 1.399 . S
C701 C702 1.376 . S
C702 H689 0.930 . S
C702 C701 1.376 . S
C702 C703 1.388 . S
C703 H690 0.930 . S
C703 C702 1.388 . S
C703 C704 1.390 . S
C704 C703 1.390 . S
C704 C705 1.394 . S
C704 C710 1.465 . S
C705 C700 1.399 . S
C705 C704 1.394 . S
C705 C706 1.516 . S
C706 C705 1.516 . S
C706 C707 1.502 . S
C706 C708 1.561 . S
C706 C709 1.526 . S
C707 H691 0.959 . S
C707 H692 0.959 . S
C707 H693 0.961 . S
C707 C706 1.502 . S
C708 H694 0.960 . S
C708 H695 0.961 . S
C708 H696 0.959 . S
C708 C706 1.561 . S
C709 C706 1.526 . S
C709 C710 1.396 . S
C709 C714 1.390 . S
C710 C704 1.465 . S
C710 C709 1.396 . S
C710 C711 1.399 . S
C711 H697 0.929 . S
C711 C710 1.399 . S
C711 C712 1.385 . S
C712 H698 0.931 . S
C712 C711 1.385 . S
C712 C713 1.389 . S
C713 C712 1.389 . S
C713 C714 1.387 . S
C714 H699 0.930 . S
C714 C709 1.390 . S
C714 C713 1.387 . S
H715 C727 0.930 . S
H716 C729 0.930 . S
H717 C730 0.930 . S
H718 C734 0.959 . S
H719 C734 0.959 . S
H720 C734 0.961 . S
H721 C735 0.960 1_455 S
H722 C735 0.961 1_455 S
H723 C735 0.959 . S
H724 C738 0.929 . S
H725 C739 0.931 . S
H726 C741 0.930 1_455 S
C727 H715 0.930 . S
C727 C728 1.399 . S
C727 C732 1.399 . S
C728 C727 1.399 . S
C728 C729 1.376 . S
C729 H716 0.930 . S
C729 C728 1.376 . S
C729 C730 1.388 . S
C730 H717 0.930 . S
C730 C729 1.388 . S
C730 C731 1.390 . S
C731 C730 1.390 . S
C731 C732 1.394 . S
C731 C737 1.465 . S
C732 C727 1.399 . S
C732 C731 1.394 . S
C732 C733 1.516 . S
C733 C732 1.516 . S
C733 C734 1.502 1_655 S
C733 C735 1.561 . S
C733 C736 1.526 . S
C734 H718 0.959 . S
C734 H719 0.959 . S
C734 H720 0.961 . S
C734 C733 1.502 1_455 S
C735 H721 0.960 1_655 S
C735 H722 0.961 1_655 S
C735 H723 0.959 . S
C735 C733 1.561 . S
C736 C733 1.526 . S
C736 C737 1.396 . S
C736 C741 1.390 . S
C737 C731 1.465 . S
C737 C736 1.396 . S
C737 C738 1.399 . S
C738 H724 0.929 . S
C738 C737 1.399 . S
C738 C739 1.385 . S
C739 H725 0.931 . S
C739 C738 1.385 . S
C739 C740 1.389 . S
C740 C739 1.389 . S
C740 C741 1.387 . S
C741 H726 0.930 1_655 S
C741 C736 1.390 . S
C741 C740 1.387 . S
H742 C754 0.930 . S
H743 C756 0.930 . S
H744 C757 0.930 . S
H745 C761 0.959 . S
H746 C761 0.959 . S
H747 C761 0.961 . S
H748 C762 0.960 . S
H749 C762 0.961 . S
H750 C762 0.959 . S
H751 C765 0.929 . S
H752 C766 0.931 . S
H753 C768 0.930 . S
C754 H742 0.930 . S
C754 C755 1.399 . S
C754 C759 1.399 . S
C755 C754 1.399 . S
C755 C756 1.376 . S
C756 H743 0.930 . S
C756 C755 1.376 . S
C756 C757 1.388 . S
C757 H744 0.930 . S
C757 C756 1.388 . S
C757 C758 1.390 . S
C758 C757 1.390 . S
C758 C759 1.394 . S
C758 C764 1.465 . S
C759 C754 1.399 . S
C759 C758 1.394 . S
C759 C760 1.516 . S
C760 C759 1.516 . S
C760 C761 1.502 . S
C760 C762 1.561 . S
C760 C763 1.526 . S
C761 H745 0.959 . S
C761 H746 0.959 . S
C761 H747 0.961 . S
C761 C760 1.502 . S
C762 H748 0.960 . S
C762 H749 0.961 . S
C762 H750 0.959 . S
C762 C760 1.561 . S
C763 C760 1.526 . S
C763 C764 1.396 . S
C763 C768 1.390 . S
C764 C758 1.465 . S
C764 C763 1.396 . S
C764 C765 1.399 . S
C765 H751 0.929 . S
C765 C764 1.399 . S
C765 C766 1.385 . S
C766 H752 0.931 . S
C766 C765 1.385 . S
C766 C767 1.389 . S
C767 C766 1.389 . S
C767 C768 1.387 . S
C768 H753 0.930 . S
C768 C763 1.390 . S
C768 C767 1.387 . S
H769 C781 0.930 . S
H770 C783 0.930 . S
H771 C784 0.930 . S
H772 C788 0.959 . S
H773 C788 0.959 . S
H774 C788 0.961 . S
H775 C789 0.960 . S
H776 C789 0.961 . S
H777 C789 0.959 . S
H778 C792 0.929 . S
H779 C793 0.931 . S
H780 C795 0.930 . S
C781 H769 0.930 . S
C781 C782 1.399 . S
C781 C786 1.399 . S
C782 C781 1.399 . S
C782 C783 1.376 . S
C783 H770 0.930 . S
C783 C782 1.376 . S
C783 C784 1.388 . S
C784 H771 0.930 . S
C784 C783 1.388 . S
C784 C785 1.390 . S
C785 C784 1.390 . S
C785 C786 1.394 . S
C785 C791 1.465 . S
C786 C781 1.399 . S
C786 C785 1.394 . S
C786 C787 1.516 . S
C787 C786 1.516 . S
C787 C788 1.502 . S
C787 C789 1.561 . S
C787 C790 1.526 . S
C788 H772 0.959 . S
C788 H773 0.959 . S
C788 H774 0.961 . S
C788 C787 1.502 . S
C789 H775 0.960 . S
C789 H776 0.961 . S
C789 H777 0.959 . S
C789 C787 1.561 . S
C790 C787 1.526 . S
C790 C791 1.396 . S
C790 C795 1.390 . S
C791 C785 1.465 . S
C791 C790 1.396 . S
C791 C792 1.399 . S
C792 H778 0.929 . S
C792 C791 1.399 . S
C792 C793 1.385 . S
C793 H779 0.931 . S
C793 C792 1.385 . S
C793 C794 1.389 . S
C794 C793 1.389 . S
C794 C795 1.387 . S
C795 H780 0.930 . S
C795 C790 1.390 . S
C795 C794 1.387 . S
H796 C808 0.930 . S
H797 C810 0.930 . S
H798 C811 0.930 . S
H799 C815 0.959 . S
H800 C815 0.959 . S
H801 C815 0.961 . S
H802 C816 0.960 . S
H803 C816 0.961 . S
H804 C816 0.959 . S
H805 C819 0.929 . S
H806 C820 0.931 . S
H807 C822 0.930 . S
C808 H796 0.930 . S
C808 C809 1.399 . S
C808 C813 1.399 . S
C809 C808 1.399 . S
C809 C810 1.376 . S
C810 H797 0.930 . S
C810 C809 1.376 . S
C810 C811 1.388 . S
C811 H798 0.930 . S
C811 C810 1.388 . S
C811 C812 1.390 . S
C812 C811 1.390 . S
C812 C813 1.394 . S
C812 C818 1.465 . S
C813 C808 1.399 . S
C813 C812 1.394 . S
C813 C814 1.516 . S
C814 C813 1.516 . S
C814 C815 1.502 . S
C814 C816 1.561 . S
C814 C817 1.526 . S
C815 H799 0.959 . S
C815 H800 0.959 . S
C815 H801 0.961 . S
C815 C814 1.502 . S
C816 H802 0.960 . S
C816 H803 0.961 . S
C816 H804 0.959 . S
C816 C814 1.561 . S
C817 C814 1.526 . S
C817 C818 1.396 . S
C817 C822 1.390 . S
C818 C812 1.465 . S
C818 C817 1.396 . S
C818 C819 1.399 . S
C819 H805 0.929 . S
C819 C818 1.399 . S
C819 C820 1.385 . S
C820 H806 0.931 . S
C820 C819 1.385 . S
C820 C821 1.389 . S
C821 C820 1.389 . S
C821 C822 1.387 . S
C822 H807 0.930 . S
C822 C817 1.390 . S
C822 C821 1.387 . S
H823 C835 0.930 . S
H824 C837 0.930 . S
H825 C838 0.930 . S
H826 C842 0.959 . S
H827 C842 0.959 . S
H828 C842 0.961 . S
H829 C843 0.960 . S
H830 C843 0.961 . S
H831 C843 0.959 . S
H832 C846 0.929 . S
H833 C847 0.931 . S
H834 C849 0.930 . S
C835 H823 0.930 . S
C835 C836 1.399 . S
C835 C840 1.399 . S
C836 C835 1.399 . S
C836 C837 1.376 . S
C837 H824 0.930 . S
C837 C836 1.376 . S
C837 C838 1.388 . S
C838 H825 0.930 . S
C838 C837 1.388 . S
C838 C839 1.390 . S
C839 C838 1.390 . S
C839 C840 1.394 . S
C839 C845 1.465 . S
C840 C835 1.399 . S
C840 C839 1.394 . S
C840 C841 1.516 . S
C841 C840 1.516 . S
C841 C842 1.502 . S
C841 C843 1.561 . S
C841 C844 1.526 . S
C842 H826 0.959 . S
C842 H827 0.959 . S
C842 H828 0.961 . S
C842 C841 1.502 . S
C843 H829 0.960 . S
C843 H830 0.961 . S
C843 H831 0.959 . S
C843 C841 1.561 . S
C844 C841 1.526 . S
C844 C845 1.396 . S
C844 C849 1.390 . S
C845 C839 1.465 . S
C845 C844 1.396 . S
C845 C846 1.399 . S
C846 H832 0.929 . S
C846 C845 1.399 . S
C846 C847 1.385 . S
C847 H833 0.931 . S
C847 C846 1.385 . S
C847 C848 1.389 . S
C848 C847 1.389 . S
C848 C849 1.387 . S
C849 H834 0.930 . S
C849 C844 1.390 . S
C849 C848 1.387 . S
H850 C862 0.930 . S
H851 C864 0.930 . S
H852 C865 0.930 . S
H853 C869 0.959 . S
H854 C869 0.959 . S
H855 C869 0.961 . S
H856 C870 0.960 . S
H857 C870 0.961 . S
H858 C870 0.959 . S
H859 C873 0.929 . S
H860 C874 0.931 . S
H861 C876 0.930 . S
C862 H850 0.930 . S
C862 C863 1.399 . S
C862 C867 1.399 . S
C863 C862 1.399 . S
C863 C864 1.376 . S
C864 H851 0.930 . S
C864 C863 1.376 . S
C864 C865 1.388 . S
C865 H852 0.930 . S
C865 C864 1.388 . S
C865 C866 1.390 . S
C866 C865 1.390 . S
C866 C867 1.394 . S
C866 C872 1.465 . S
C867 C862 1.399 . S
C867 C866 1.394 . S
C867 C868 1.516 . S
C868 C867 1.516 . S
C868 C869 1.502 . S
C868 C870 1.561 . S
C868 C871 1.526 . S
C869 H853 0.959 . S
C869 H854 0.959 . S
C869 H855 0.961 . S
C869 C868 1.502 . S
C870 H856 0.960 . S
C870 H857 0.961 . S
C870 H858 0.959 . S
C870 C868 1.561 . S
C871 C868 1.526 . S
C871 C872 1.396 . S
C871 C876 1.390 . S
C872 C866 1.465 . S
C872 C871 1.396 . S
C872 C873 1.399 . S
C873 H859 0.929 . S
C873 C872 1.399 . S
C873 C874 1.385 . S
C874 H860 0.931 . S
C874 C873 1.385 . S
C874 C875 1.389 . S
C875 C874 1.389 . S
C875 C876 1.387 . S
C876 H861 0.930 . S
C876 C871 1.390 . S
C876 C875 1.387 . S
H877 C889 0.930 . S
H878 C891 0.930 . S
H879 C892 0.930 . S
H880 C896 0.959 . S
H881 C896 0.959 . S
H882 C896 0.961 . S
H883 C897 0.960 . S
H884 C897 0.961 . S
H885 C897 0.959 . S
H886 C900 0.929 . S
H887 C901 0.931 . S
H888 C903 0.930 . S
C889 H877 0.930 . S
C889 C890 1.399 . S
C889 C894 1.399 . S
C890 C889 1.399 . S
C890 C891 1.376 . S
C891 H878 0.930 . S
C891 C890 1.376 . S
C891 C892 1.388 . S
C892 H879 0.930 . S
C892 C891 1.388 . S
C892 C893 1.390 . S
C893 C892 1.390 . S
C893 C894 1.394 . S
C893 C899 1.465 . S
C894 C889 1.399 . S
C894 C893 1.394 . S
C894 C895 1.516 . S
C895 C894 1.516 . S
C895 C896 1.502 . S
C895 C897 1.561 . S
C895 C898 1.526 . S
C896 H880 0.959 . S
C896 H881 0.959 . S
C896 H882 0.961 . S
C896 C895 1.502 . S
C897 H883 0.960 . S
C897 H884 0.961 . S
C897 H885 0.959 . S
C897 C895 1.561 . S
C898 C895 1.526 . S
C898 C899 1.396 . S
C898 C903 1.390 . S
C899 C893 1.465 . S
C899 C898 1.396 . S
C899 C900 1.399 . S
C900 H886 0.929 . S
C900 C899 1.399 . S
C900 C901 1.385 . S
C901 H887 0.931 . S
C901 C900 1.385 . S
C901 C902 1.389 . S
C902 C901 1.389 . S
C902 C903 1.387 . S
C903 H888 0.930 . S
C903 C898 1.390 . S
C903 C902 1.387 . S
C269 C6 0.853 . S
C281 C100 0.919 . S
C296 C18 1.271 . S
C308 C161 1.300 . S
C335 C199 2.635 . S
C323 C28 2.657 . S
C350 C40 1.761 . S
C362 C239 1.692 . S
C389 C159 1.437 . S
C377 C9 1.384 . S
C416 C127 1.916 . S
C404 C16 1.784 . S
C443 C236 1.752 . S
C431 C30 1.786 . S
C470 C196 1.529 . S
C458 C42 1.533 . S
C485 C4 1.060 . S
C497 C241 0.972 . S
C524 C156 2.594 . S
C512 C33 2.567 . S
C539 C45 1.918 . S
C551 C98 1.858 . S
C566 C21 1.473 . S
C578 C201 1.546 . S
C605 C121 0.940 . S
C593 C57 0.898 . S
C620 C66 1.311 . S
C632 C140 1.317 . S
C647 C76 2.721 . S
C659 C178 2.658 . S
C674 C88 1.684 . S
C686 C218 1.665 . S
C701 C54 1.420 . S
C713 C138 1.404 . S
C740 C116 2.000 . S
C728 C64 1.905 . S
C767 C247 1.649 . S
C755 C78 1.649 . S
C794 C207 1.588 . S
C782 C93 1.596 . S
C809 C52 0.947 . S
C821 C220 1.080 . S
C848 C167 2.584 . S
C836 C81 2.575 . S
C875 C119 1.878 . S
C863 C90 1.891 . S
C890 C69 1.500 . S
C902 C180 1.540 . S
