# Generated by pormake.
# Topology zzz, (3,6)-cn, num edge types: 1
# Building blocks:
#     Node 0, Type 0, BuildingBlock: MIDCAF_clean_linker_0, # of connection points: 3
#     Node 1, Type 0, BuildingBlock: MIDCAF_clean_linker_0, # of connection points: 3
#     Node 2, Type 0, BuildingBlock: MIDCAF_clean_linker_0, # of connection points: 3
#     Node 3, Type 0, BuildingBlock: MIDCAF_clean_linker_0, # of connection points: 3
#     Node 4, Type 0, BuildingBlock: MIDCAF_clean_linker_0, # of connection points: 3
#     Node 5, Type 0, BuildingBlock: MIDCAF_clean_linker_0, # of connection points: 3
#     Node 6, Type 0, BuildingBlock: MIDCAF_clean_linker_0, # of connection points: 3
#     Node 7, Type 0, BuildingBlock: MIDCAF_clean_linker_0, # of connection points: 3
#     Node 8, Type 1, BuildingBlock: CUKXOW_clean_sbu_0, # of connection points: 6
#     Node 9, Type 1, BuildingBlock: CUKXOW_clean_sbu_0, # of connection points: 6
#     Node 10, Type 1, BuildingBlock: CUKXOW_clean_sbu_0, # of connection points: 6
#     Node 11, Type 1, BuildingBlock: CUKXOW_clean_sbu_0, # of connection points: 6
#     Edge 12, Type (0, 1), BuildingBlock: UVAHIK_clean_linker_0, # of connection points: 2
#     Edge 13, Type (0, 1), BuildingBlock: UVAHIK_clean_linker_0, # of connection points: 2
#     Edge 14, Type (0, 1), BuildingBlock: UVAHIK_clean_linker_0, # of connection points: 2
#     Edge 15, Type (0, 1), BuildingBlock: UVAHIK_clean_linker_0, # of connection points: 2
#     Edge 16, Type (0, 1), BuildingBlock: UVAHIK_clean_linker_0, # of connection points: 2
#     Edge 17, Type (0, 1), BuildingBlock: UVAHIK_clean_linker_0, # of connection points: 2
#     Edge 18, Type (0, 1), BuildingBlock: UVAHIK_clean_linker_0, # of connection points: 2
#     Edge 19, Type (0, 1), BuildingBlock: UVAHIK_clean_linker_0, # of connection points: 2
#     Edge 20, Type (0, 1), BuildingBlock: UVAHIK_clean_linker_0, # of connection points: 2
#     Edge 21, Type (0, 1), BuildingBlock: UVAHIK_clean_linker_0, # of connection points: 2
#     Edge 22, Type (0, 1), BuildingBlock: UVAHIK_clean_linker_0, # of connection points: 2
#     Edge 23, Type (0, 1), BuildingBlock: UVAHIK_clean_linker_0, # of connection points: 2
#     Edge 24, Type (0, 1), BuildingBlock: UVAHIK_clean_linker_0, # of connection points: 2
#     Edge 25, Type (0, 1), BuildingBlock: UVAHIK_clean_linker_0, # of connection points: 2
#     Edge 26, Type (0, 1), BuildingBlock: UVAHIK_clean_linker_0, # of connection points: 2
#     Edge 27, Type (0, 1), BuildingBlock: UVAHIK_clean_linker_0, # of connection points: 2
#     Edge 28, Type (0, 1), BuildingBlock: UVAHIK_clean_linker_0, # of connection points: 2
#     Edge 29, Type (0, 1), BuildingBlock: UVAHIK_clean_linker_0, # of connection points: 2
#     Edge 30, Type (0, 1), BuildingBlock: UVAHIK_clean_linker_0, # of connection points: 2
#     Edge 31, Type (0, 1), BuildingBlock: UVAHIK_clean_linker_0, # of connection points: 2
#     Edge 32, Type (0, 1), BuildingBlock: UVAHIK_clean_linker_0, # of connection points: 2
#     Edge 33, Type (0, 1), BuildingBlock: UVAHIK_clean_linker_0, # of connection points: 2
#     Edge 34, Type (0, 1), BuildingBlock: UVAHIK_clean_linker_0, # of connection points: 2
#     Edge 35, Type (0, 1), BuildingBlock: UVAHIK_clean_linker_0, # of connection points: 2
# Relax obj value: 0.219
# Max RMSD: 0.233
# Mean RMSD: 0.189
data_MOF--net-zzz--node1-CUKXOW_clean_sbu_0--node2-MIDCAF_clean_linker_0--edge1-UVAHIK_clean_linker_0
_symmetry_space_group_name_H-M    P1
_symmetry_Int_Tables_number       1
_symmetry_cell_setting            triclinic
loop_
_symmetry_equiv_pos_as_xyz
'x, y, z'
_cell_length_a     72.153748
_cell_length_b     69.997981
_cell_length_c     25.154683
_cell_angle_alpha  92.156037
_cell_angle_beta   88.504886
_cell_angle_gamma 95.397877
loop_
_atom_site_label
_atom_site_type_symbol
_atom_site_fract_x
_atom_site_fract_y
_atom_site_fract_z
_atom_type_partial_charge
C0 C 0.79314 0.43011 0.28808 0.0
C1 C 0.78864 0.44681 0.31631 0.0
C2 C 0.77436 0.45699 0.29749 0.0
C3 C 0.7655 0.45113 0.24985 0.0
H4 H 0.7201 0.45807 0.14252 0.0
H5 H 0.69102 0.4674 0.10726 0.0
H6 H 0.69591 0.42736 0.97401 0.0
H7 H 0.72478 0.41811 0.00866 0.0
H8 H 0.77076 0.42073 0.96806 0.0
H9 H 0.79644 0.41693 0.9047 0.0
H10 H 0.83143 0.4046 0.03352 0.0
H11 H 0.80583 0.40794 0.09645 0.0
H12 H 0.78894 0.41198 0.21847 0.0
H13 H 0.80419 0.42203 0.30104 0.0
H14 H 0.77051 0.46984 0.31863 0.0
H15 H 0.75517 0.45972 0.23495 0.0
N16 N 0.7479 0.43569 0.14875 0.0
N17 N 0.75519 0.42508 0.0615 0.0
N18 N 0.77661 0.42356 0.12889 0.0
C19 C 0.74296 0.43242 0.09701 0.0
C20 C 0.77208 0.42066 0.07711 0.0
C21 C 0.76469 0.43098 0.16494 0.0
C22 C 0.72479 0.4374 0.0783 0.0
C23 C 0.71486 0.45115 0.10597 0.0
C24 C 0.6983 0.45658 0.0857 0.0
C25 C 0.69122 0.44807 0.03797 0.0
C26 C 0.70093 0.43401 0.01113 0.0
C27 C 0.71755 0.42882 0.03087 0.0
C28 C 0.78631 0.41497 0.03754 0.0
C29 C 0.7838 0.41677 0.98274 0.0
C30 C 0.79854 0.4147 0.94641 0.0
C31 C 0.81605 0.4107 0.9641 0.0
C32 C 0.81811 0.40754 0.01838 0.0
C33 C 0.80343 0.40964 0.05464 0.0
C34 C 0.771 0.43518 0.21995 0.0
C35 C 0.78449 0.42442 0.24043 0.0
C36 C 0.88135 0.80139 0.25043 0.0
C37 C 0.8975 0.79909 0.27877 0.0
C38 C 0.90864 0.78443 0.26175 0.0
C39 C 0.90445 0.77335 0.21535 0.0
H40 H 0.91681 0.72436 0.11046 0.0
H41 H 0.92829 0.6944 0.07741 0.0
H42 H 0.88739 0.69006 0.95365 0.0
H43 H 0.87692 0.72063 0.98478 0.0
H44 H 0.8851 0.76846 0.93069 0.0
H45 H 0.89115 0.79296 0.86453 0.0
H46 H 0.88618 0.83709 0.98776 0.0
H47 H 0.87925 0.81284 0.05261 0.0
H48 H 0.86547 0.79352 0.18101 0.0
H49 H 0.8721 0.81208 0.26318 0.0
H50 H 0.92124 0.78228 0.28225 0.0
H51 H 0.91387 0.76297 0.2014 0.0
N52 N 0.89155 0.75075 0.1169 0.0
N53 N 0.88673 0.75619 0.02676 0.0
N54 N 0.88312 0.78056 0.09123 0.0
C55 C 0.89084 0.74421 0.06525 0.0
C56 C 0.88297 0.77447 0.03943 0.0
C57 C 0.88726 0.76885 0.13009 0.0
C58 C 0.89611 0.72487 0.04983 0.0
C59 C 0.9102 0.71685 0.07651 0.0
C60 C 0.91671 0.69959 0.0576 0.0
C61 C 0.90899 0.68978 0.01224 0.0
C62 C 0.89414 0.69741 0.98756 0.0
C63 C 0.88798 0.71486 0.00567 0.0
C64 C 0.88215 0.78865 0.99733 0.0
C65 C 0.88477 0.78339 0.94333 0.0
C66 C 0.8884 0.79747 0.9054 0.0
C67 C 0.88964 0.8171 0.92075 0.0
C68 C 0.88528 0.82221 0.97393 0.0
C69 C 0.88145 0.80818 0.01157 0.0
C70 C 0.88924 0.77695 0.1848 0.0
C71 C 0.87741 0.79063 0.20363 0.0
C72 C 0.70663 0.97942 0.34592 0.0
C73 C 0.71198 0.99758 0.36936 0.0
C74 C 0.72641 0.00936 0.34505 0.0
C75 C 0.7344 0.00362 0.2963 0.0
H76 H 0.78559 0.99408 0.18755 0.0
H77 H 0.81671 0.99724 0.14568 0.0
H78 H 0.79289 0.97948 0.99399 0.0
H79 H 0.76213 0.9761 0.03514 0.0
H80 H 0.71987 0.97162 0.01939 0.0
H81 H 0.69313 0.97122 0.96204 0.0
H82 H 0.65648 0.97156 0.10064 0.0
H83 H 0.68299 0.97144 0.15781 0.0
H84 H 0.70898 0.9604 0.27803 0.0
H85 H 0.69543 0.97009 0.3632 0.0
H86 H 0.73083 0.0234 0.36237 0.0
H87 H 0.74462 0.01344 0.27658 0.0
N88 N 0.74938 0.98516 0.19279 0.0
N89 N 0.73746 0.97751 0.10771 0.0
N90 N 0.71727 0.97749 0.18171 0.0
C91 C 0.75229 0.98237 0.13937 0.0
C92 C 0.71991 0.9751 0.1285 0.0
C93 C 0.73182 0.98246 0.21402 0.0
C94 C 0.77129 0.98474 0.11492 0.0
C95 C 0.78701 0.99083 0.14529 0.0
C96 C 0.80482 0.99274 0.12131 0.0
C97 C 0.80726 0.98844 0.06663 0.0
C98 C 0.79153 0.98256 0.03637 0.0
C99 C 0.77383 0.98074 0.0601 0.0
C100 C 0.70366 0.97188 0.09333 0.0
C101 C 0.70609 0.97126 0.03766 0.0
C102 C 0.69076 0.97112 0.00473 0.0
C103 C 0.67269 0.97161 0.02675 0.0
C104 C 0.67017 0.97102 0.08226 0.0
C105 C 0.68546 0.97111 0.11514 0.0
C106 C 0.72778 0.9862 0.27092 0.0
C107 C 0.71434 0.97388 0.29702 0.0
C108 C 0.62998 0.68191 0.01107 0.0
C109 C 0.61748 0.68174 0.96895 0.0
C110 C 0.6099 0.69894 0.95788 0.0
C111 C 0.61357 0.71537 0.99045 0.0
H112 H 0.61756 0.77475 0.00081 0.0
H113 H 0.60916 0.80511 0.97159 0.0
H114 H 0.59992 0.82399 0.13479 0.0
H115 H 0.60805 0.79295 0.16473 0.0
H116 H 0.59488 0.74245 0.23973 0.0
H117 H 0.58937 0.72278 0.31774 0.0
H118 H 0.64451 0.70378 0.2969 0.0
H119 H 0.64938 0.72257 0.2173 0.0
H120 H 0.6421 0.69756 0.0784 0.0
H121 H 0.63659 0.66917 0.01987 0.0
H122 H 0.60007 0.69948 0.92631 0.0
H123 H 0.6066 0.72799 0.98255 0.0
N124 N 0.62067 0.7483 0.06356 0.0
N125 N 0.61891 0.75777 0.15404 0.0
N126 N 0.62615 0.72663 0.12832 0.0
C127 C 0.61803 0.7621 0.10176 0.0
C128 C 0.62327 0.74004 0.16723 0.0
C129 C 0.62475 0.73059 0.07643 0.0
C130 C 0.61348 0.78127 0.08533 0.0
C131 C 0.61382 0.78527 0.0309 0.0
C132 C 0.60916 0.80286 0.01396 0.0
C133 C 0.60406 0.81712 0.0508 0.0
C134 C 0.60374 0.81327 0.10538 0.0
C135 C 0.60848 0.79553 0.12252 0.0
C136 C 0.62251 0.73392 0.22265 0.0
C137 C 0.60602 0.7346 0.25316 0.0
C138 C 0.60288 0.72325 0.29783 0.0
C139 C 0.61631 0.71124 0.31299 0.0
C140 C 0.6336 0.71232 0.28549 0.0
C141 C 0.63654 0.72331 0.24034 0.0
C142 C 0.62458 0.71489 0.03549 0.0
C143 C 0.6333 0.69823 0.04441 0.0
C144 C 0.21666 0.57365 0.07822 0.0
C145 C 0.2204 0.55641 0.05141 0.0
C146 C 0.23418 0.54578 0.07124 0.0
C147 C 0.24311 0.55165 0.11879 0.0
H148 H 0.29643 0.56162 0.21911 0.0
H149 H 0.3258 0.55422 0.25679 0.0
H150 H 0.30079 0.55667 0.41455 0.0
H151 H 0.27197 0.56446 0.37764 0.0
H152 H 0.23576 0.58257 0.39992 0.0
H153 H 0.20979 0.58674 0.46184 0.0
H154 H 0.17497 0.5965 0.33026 0.0
H155 H 0.20087 0.59274 0.26852 0.0
H156 H 0.22138 0.59217 0.1469 0.0
H157 H 0.20602 0.58211 0.06451 0.0
H158 H 0.23749 0.53253 0.05118 0.0
H159 H 0.25288 0.54265 0.13476 0.0
N160 N 0.26026 0.56691 0.22131 0.0
N161 N 0.25143 0.5764 0.30825 0.0
N162 N 0.23137 0.57913 0.23827 0.0
C163 C 0.2642 0.56933 0.27401 0.0
C164 C 0.235 0.58135 0.29078 0.0
C165 C 0.24382 0.57198 0.20329 0.0
C166 C 0.28188 0.56387 0.29529 0.0
C167 C 0.29725 0.56054 0.2618 0.0
C168 C 0.31405 0.55624 0.28338 0.0
C169 C 0.31575 0.55513 0.3388 0.0
C170 C 0.30018 0.55794 0.37186 0.0
C171 C 0.28355 0.56232 0.3505 0.0
C172 C 0.22034 0.58698 0.32905 0.0
C173 C 0.22268 0.58598 0.3842 0.0
C174 C 0.20778 0.58829 0.41976 0.0
C175 C 0.19026 0.59173 0.40095 0.0
C176 C 0.1883 0.59401 0.34617 0.0
C177 C 0.20316 0.59168 0.31065 0.0
C178 C 0.23818 0.56809 0.14755 0.0
C179 C 0.22539 0.57937 0.12575 0.0
C180 C 0.12662 0.20639 0.11047 0.0
C181 C 0.11199 0.21105 0.07911 0.0
C182 C 0.10292 0.22751 0.09307 0.0
C183 C 0.10748 0.23827 0.13973 0.0
H184 H 0.10416 0.29097 0.23179 0.0
H185 H 0.09405 0.3222 0.26003 0.0
H186 H 0.10999 0.31315 0.42079 0.0
H187 H 0.12026 0.2822 0.39284 0.0
H188 H 0.11294 0.23704 0.42552 0.0
H189 H 0.10442 0.21108 0.486 0.0
H190 H 0.12186 0.17003 0.36674 0.0
H191 H 0.13085 0.19583 0.30715 0.0
H192 H 0.14145 0.2122 0.18268 0.0
H193 H 0.13378 0.19373 0.10092 0.0
H194 H 0.09167 0.23147 0.06932 0.0
H195 H 0.09947 0.25015 0.15133 0.0
N196 N 0.11849 0.25841 0.2424 0.0
N197 N 0.1198 0.2516 0.33296 0.0
N198 N 0.12443 0.22772 0.26786 0.0
C199 C 0.11768 0.26435 0.29456 0.0
C200 C 0.12318 0.23324 0.31992 0.0
C201 C 0.12218 0.24012 0.22894 0.0
C202 C 0.11293 0.28399 0.31008 0.0
C203 C 0.10572 0.29574 0.27303 0.0
C204 C 0.09982 0.31358 0.28922 0.0
C205 C 0.10119 0.32012 0.34265 0.0
C206 C 0.10894 0.30864 0.37923 0.0
C207 C 0.1147 0.29079 0.3632 0.0
C208 C 0.12219 0.2185 0.36095 0.0
C209 C 0.11544 0.22254 0.41272 0.0
C210 C 0.11042 0.20764 0.4473 0.0
C211 C 0.11209 0.18844 0.43084 0.0
C212 C 0.12041 0.18463 0.38091 0.0
C213 C 0.12545 0.19948 0.34644 0.0
C214 C 0.12094 0.23249 0.17353 0.0
C215 C 0.13096 0.21693 0.1574 0.0
C216 C 0.31413 0.98607 0.06314 0.0
C217 C 0.30495 0.9879 0.0153 0.0
C218 C 0.28734 0.9951 0.01734 0.0
C219 C 0.2795 0.00107 0.06619 0.0
H220 H 0.23225 0.98881 0.20399 0.0
H221 H 0.20127 0.98452 0.24677 0.0
H222 H 0.21307 0.03777 0.33699 0.0
H223 H 0.24395 0.04194 0.29506 0.0
H224 H 0.28901 0.03315 0.35236 0.0
H225 H 0.31468 0.03935 0.41402 0.0
H226 H 0.35399 0.04029 0.28134 0.0
H227 H 0.32856 0.03455 0.22011 0.0
H228 H 0.31431 0.9912 0.14718 0.0
H229 H 0.32781 0.98089 0.0632 0.0
H230 H 0.2799 0.99662 0.98112 0.0
H231 H 0.26628 0.00725 0.06668 0.0
N232 N 0.26496 0.00894 0.17908 0.0
N233 N 0.27361 0.0253 0.25953 0.0
N234 N 0.29644 0.01764 0.19691 0.0
C235 C 0.26011 0.01704 0.22703 0.0
C236 C 0.29183 0.02573 0.24454 0.0
C237 C 0.28323 0.0093 0.16395 0.0
C238 C 0.24053 0.01567 0.24639 0.0
C239 C 0.22806 0.99975 0.23221 0.0
C240 C 0.21042 0.99723 0.2569 0.0
C241 C 0.20483 0.01079 0.29524 0.0
C242 C 0.21696 0.02716 0.30731 0.0
C243 C 0.23467 0.0295 0.28348 0.0
C244 C 0.30675 0.033 0.28137 0.0
C245 C 0.30311 0.03517 0.33633 0.0
C246 C 0.31781 0.03862 0.37168 0.0
C247 C 0.33638 0.0401 0.35265 0.0
C248 C 0.33988 0.03939 0.29745 0.0
C249 C 0.32525 0.03588 0.26226 0.0
C250 C 0.28934 0.00022 0.11336 0.0
C251 C 0.30646 0.99218 0.11139 0.0
C252 C 0.39188 0.32886 0.33253 0.0
C253 C 0.39559 0.32548 0.3858 0.0
C254 C 0.39458 0.3064 0.40211 0.0
C255 C 0.39146 0.2911 0.3651 0.0
H256 H 0.3958 0.23455 0.34765 0.0
H257 H 0.4039 0.20412 0.37756 0.0
H258 H 0.41238 0.18457 0.21453 0.0
H259 H 0.4047 0.21561 0.18407 0.0
H260 H 0.41704 0.25763 0.10129 0.0
H261 H 0.42467 0.27336 0.0169 0.0
H262 H 0.38103 0.3107 0.04913 0.0
H263 H 0.37351 0.29511 0.13272 0.0
H264 H 0.3868 0.31687 0.25453 0.0
H265 H 0.39268 0.34332 0.31822 0.0
H266 H 0.39698 0.30329 0.44309 0.0
H267 H 0.39172 0.27661 0.37855 0.0
N268 N 0.3927 0.26086 0.28376 0.0
N269 N 0.39618 0.25136 0.19369 0.0
N270 N 0.38983 0.28287 0.21775 0.0
C271 C 0.39575 0.24697 0.24613 0.0
C272 C 0.39295 0.26932 0.17942 0.0
C273 C 0.38975 0.27884 0.26998 0.0
C274 C 0.39965 0.22768 0.26327 0.0
C275 C 0.39928 0.22383 0.31781 0.0
C276 C 0.40378 0.2062 0.33513 0.0
C277 C 0.4087 0.19178 0.29853 0.0
C278 C 0.40881 0.19543 0.24384 0.0
C279 C 0.40431 0.21319 0.22637 0.0
C280 C 0.39477 0.27525 0.12362 0.0
C281 C 0.40873 0.26878 0.08937 0.0
C282 C 0.4132 0.2779 0.04138 0.0
C283 C 0.40355 0.29338 0.02657 0.0
C284 C 0.38864 0.29875 0.05905 0.0
C285 C 0.38439 0.28986 0.10712 0.0
C286 C 0.38922 0.29456 0.31102 0.0
C287 C 0.38865 0.3136 0.29569 0.0
Tb288 Tb 0.99964 0.98367 0.65327 0.0
C289 C 0.04278 0.99349 0.6427 0.0
Tb290 Tb 0.01914 0.01249 0.73728 0.0
O291 O 0.00541 0.0036 0.5884 0.0
O292 O 0.00381 0.0137 0.66728 0.0
O293 O 0.02848 0.98079 0.63075 0.0
C294 C 0.03513 0.0438 0.7875 0.0
O295 O 0.04179 0.00755 0.67964 0.0
C296 C 0.01071 0.97722 0.76796 0.0
C297 C 0.97594 0.0021 0.74756 0.0
O298 O 0.01987 0.04289 0.76107 0.0
O299 O 0.04141 0.02695 0.78636 0.0
O300 O 0.01249 0.99207 0.8007 0.0
O301 O 0.01555 0.98264 0.72217 0.0
O302 O 0.99007 0.015 0.75913 0.0
O303 O 0.97719 0.98797 0.71121 0.0
C304 C 0.98151 0.95309 0.60541 0.0
O305 O 0.9776 0.97072 0.60147 0.0
O306 O 0.99572 0.95274 0.63578 0.0
C307 C 0.0083 0.01852 0.62046 0.0
Tb308 Tb 0.50171 0.02465 0.65336 0.0
C309 C 0.54225 0.01249 0.64358 0.0
Tb310 Tb 0.5101 0.98649 0.70415 0.0
O311 O 0.51932 0.04177 0.71084 0.0
O312 O 0.50647 0.01504 0.72961 0.0
O313 O 0.52984 0.0226 0.62219 0.0
C314 C 0.52424 0.96062 0.76281 0.0
O315 O 0.53772 0.99952 0.68016 0.0
C316 C 0.4935 0.98289 0.6119 0.0
C317 C 0.46955 0.99856 0.71387 0.0
O318 O 0.52678 0.96221 0.71182 0.0
O319 O 0.51336 0.97327 0.78052 0.0
O320 O 0.49227 0.96953 0.64679 0.0
O321 O 0.50528 0.99608 0.628 0.0
O322 O 0.48197 0.98848 0.73538 0.0
O323 O 0.47409 0.01163 0.67752 0.0
C324 C 0.48795 0.05013 0.59248 0.0
O325 O 0.48442 0.04835 0.64304 0.0
O326 O 0.49955 0.03793 0.57669 0.0
C327 C 0.51811 0.02836 0.7456 0.0
Tb328 Tb 0.51972 0.51846 0.64173 0.0
C329 C 0.47679 0.51195 0.62149 0.0
Tb330 Tb 0.49596 0.48676 0.70406 0.0
O331 O 0.51438 0.50193 0.5671 0.0
O332 O 0.51491 0.48824 0.6387 0.0
O333 O 0.49199 0.52423 0.61896 0.0
C334 C 0.47576 0.45481 0.73385 0.0
O335 O 0.47582 0.49593 0.64876 0.0
C336 C 0.50414 0.51947 0.7563 0.0
C337 C 0.53857 0.49396 0.72625 0.0
O338 O 0.48909 0.45565 0.69825 0.0
O339 O 0.47371 0.47204 0.75271 0.0
O340 O 0.50097 0.50308 0.7791 0.0
O341 O 0.50089 0.51698 0.70747 0.0
O342 O 0.52377 0.48113 0.72619 0.0
O343 O 0.53924 0.51031 0.70054 0.0
C344 C 0.54067 0.54946 0.60849 0.0
O345 O 0.54382 0.53177 0.59726 0.0
O346 O 0.52579 0.54963 0.6385 0.0
C347 C 0.51151 0.48558 0.59009 0.0
Tb348 Tb 0.98658 0.5004 0.65006 0.0
C349 C 0.01885 0.4752 0.61854 0.0
Tb350 Tb 0.02079 0.50328 0.72234 0.0
O351 O 0.00351 0.51331 0.58508 0.0
O352 O 0.01005 0.52012 0.66456 0.0
O353 O 0.00081 0.47706 0.61387 0.0
C354 C 0.05503 0.50849 0.7617 0.0
O355 O 0.02939 0.48541 0.6541 0.0
C356 C 0.99179 0.48127 0.75492 0.0
C357 C 0.9887 0.52896 0.75275 0.0
O358 O 0.04343 0.49334 0.76744 0.0
O359 O 0.04731 0.52075 0.73415 0.0
O360 O 0.00371 0.49028 0.78713 0.0
O361 O 0.99738 0.48358 0.70763 0.0
O362 O 0.0066 0.52667 0.75872 0.0
O363 O 0.97816 0.51888 0.71701 0.0
C364 C 0.95231 0.49515 0.61102 0.0
O365 O 0.96408 0.51007 0.60394 0.0
O366 O 0.95988 0.48312 0.63972 0.0
C367 C 0.01549 0.52234 0.61707 0.0
C368 C 0.18249 0.98991 0.35055 0.0
C369 C 0.18702 0.00739 0.32558 0.0
C370 C 0.1668 0.98745 0.38428 0.0
C371 C 0.13434 0.01593 0.46409 0.0
H372 H 0.10582 0.9665 0.47678 0.0
C373 C 0.06024 0.9819 0.56233 0.0
C374 C 0.06018 0.99285 0.61035 0.0
C375 C 0.07602 0.98277 0.52884 0.0
C376 C 0.11351 0.98046 0.47348 0.0
H377 H 0.1783 0.03568 0.31411 0.0
H378 H 0.15051 0.0312 0.37122 0.0
H379 H 0.13153 0.97003 0.41242 0.0
H380 H 0.07695 0.01271 0.66181 0.0
H381 H 0.1047 0.01369 0.60437 0.0
H382 H 0.11583 0.02659 0.52332 0.0
C383 C 0.15937 0.01957 0.36642 0.0
C384 C 0.12846 0.98243 0.43695 0.0
C385 C 0.17519 0.02211 0.33331 0.0
C386 C 0.07649 0.00417 0.62497 0.0
C387 C 0.09237 0.00486 0.59174 0.0
C388 C 0.11928 0.01401 0.50014 0.0
C389 C 0.15516 0.00235 0.39327 0.0
C390 C 0.13907 0.00021 0.4317 0.0
C391 C 0.09224 0.99443 0.54275 0.0
C392 C 0.10865 0.99626 0.50537 0.0
H393 H 0.19153 0.97842 0.3458 0.0
H394 H 0.16421 0.97409 0.4047 0.0
H395 H 0.14236 0.02976 0.46202 0.0
H396 H 0.04788 0.97314 0.54952 0.0
H397 H 0.07524 0.97476 0.49118 0.0
C398 C 0.40553 0.16509 0.36319 0.0
C399 C 0.41446 0.17347 0.31822 0.0
C400 C 0.41239 0.14939 0.38615 0.0
C401 C 0.45623 0.12645 0.39528 0.0
H402 H 0.42466 0.08826 0.47175 0.0
C403 C 0.48543 0.06486 0.5045 0.0
C404 C 0.47909 0.06283 0.5574 0.0
C405 C 0.4769 0.07667 0.47083 0.0
C406 C 0.43363 0.09888 0.45063 0.0
H407 H 0.43705 0.17113 0.26045 0.0
H408 H 0.44858 0.14327 0.29927 0.0
H409 H 0.41052 0.11112 0.41804 0.0
H410 H 0.45862 0.07101 0.61638 0.0
H411 H 0.44356 0.09157 0.5573 0.0
H412 H 0.47931 0.11412 0.42788 0.0
C413 C 0.43656 0.1492 0.31772 0.0
C414 C 0.42555 0.11201 0.41994 0.0
C415 C 0.42978 0.16503 0.29496 0.0
C416 C 0.46387 0.0725 0.57586 0.0
C417 C 0.45517 0.0841 0.54196 0.0
C418 C 0.46428 0.1132 0.42546 0.0
C419 C 0.42825 0.14149 0.36445 0.0
C420 C 0.43675 0.12621 0.39261 0.0
C421 C 0.46169 0.08641 0.48923 0.0
C422 C 0.45307 0.0995 0.45417 0.0
H423 H 0.39348 0.17097 0.38159 0.0
H424 H 0.40565 0.144 0.42226 0.0
H425 H 0.46533 0.13734 0.37567 0.0
H426 H 0.49704 0.0574 0.48919 0.0
H427 H 0.48212 0.07809 0.43026 0.0
C428 C 0.34468 0.5375 0.33981 0.0
C429 C 0.33358 0.55122 0.36289 0.0
C430 C 0.36069 0.53298 0.36516 0.0
C431 C 0.38039 0.53325 0.49803 0.0
H432 H 0.4278 0.52929 0.42418 0.0
C433 C 0.44324 0.50491 0.59739 0.0
C434 C 0.46038 0.516 0.59101 0.0
C435 C 0.42789 0.50853 0.56782 0.0
C436 C 0.41463 0.53037 0.44527 0.0
H437 H 0.33129 0.57176 0.42907 0.0
H438 H 0.3589 0.56361 0.47344 0.0
H439 H 0.4009 0.53728 0.37478 0.0
H440 H 0.47488 0.53939 0.54769 0.0
H441 H 0.44809 0.54564 0.49613 0.0
H442 H 0.39406 0.52648 0.56851 0.0
C443 C 0.35506 0.55612 0.43628 0.0
C444 C 0.39924 0.53479 0.41695 0.0
C445 C 0.33921 0.56075 0.41085 0.0
C446 C 0.46186 0.53066 0.55395 0.0
C447 C 0.44656 0.53414 0.52401 0.0
C448 C 0.39569 0.52863 0.52616 0.0
C449 C 0.36581 0.542 0.41418 0.0
C450 C 0.38202 0.53649 0.44322 0.0
C451 C 0.4294 0.52317 0.53078 0.0
C452 C 0.41301 0.52731 0.50021 0.0
H453 H 0.34069 0.52982 0.30309 0.0
H454 H 0.36873 0.52199 0.3473 0.0
H455 H 0.36723 0.53428 0.5192 0.0
H456 H 0.44162 0.49343 0.62533 0.0
H457 H 0.41486 0.49975 0.57355 0.0
C458 C 0.10351 0.35083 0.39795 0.0
C459 C 0.09372 0.33835 0.36116 0.0
C460 C 0.09569 0.36704 0.41925 0.0
C461 C 0.05019 0.38492 0.44789 0.0
H462 H 0.07933 0.43354 0.47552 0.0
C463 C 0.01725 0.45027 0.54397 0.0
C464 C 0.02758 0.46092 0.58349 0.0
C465 C 0.02537 0.4364 0.51204 0.0
C466 C 0.07103 0.42001 0.46846 0.0
H467 H 0.06823 0.33336 0.3169 0.0
H468 H 0.05465 0.36182 0.35368 0.0
H469 H 0.0936 0.40754 0.4274 0.0
H470 H 0.05468 0.46544 0.61985 0.0
H471 H 0.06868 0.44109 0.56487 0.0
H472 H 0.02776 0.39716 0.4899 0.0
C473 C 0.06832 0.35895 0.36635 0.0
C474 C 0.07921 0.40514 0.4408 0.0
C475 C 0.07618 0.34278 0.34485 0.0
C476 C 0.04629 0.45755 0.58978 0.0
C477 C 0.05438 0.44365 0.55795 0.0
C478 C 0.04204 0.39976 0.47568 0.0
C479 C 0.07787 0.3711 0.4044 0.0
C480 C 0.06892 0.38737 0.43064 0.0
C481 C 0.04399 0.43281 0.51892 0.0
C482 C 0.05241 0.41743 0.48677 0.0
H483 H 0.11713 0.3479 0.41091 0.0
H484 H 0.10336 0.37603 0.44875 0.0
H485 H 0.04197 0.37131 0.44145 0.0
H486 H 0.00284 0.45256 0.53775 0.0
H487 H 0.01704 0.42851 0.48184 0.0
C488 C 0.83082 0.9756 0.00344 0.0
C489 C 0.82602 0.98991 0.04059 0.0
C490 C 0.84788 0.97742 0.97587 0.0
C491 C 0.88479 0.01364 0.932 0.0
H492 H 0.9116 0.96899 0.89958 0.0
C493 C 0.95613 0.01712 0.81821 0.0
C494 C 0.95849 0.00233 0.7799 0.0
C495 C 0.94037 0.01632 0.85196 0.0
C496 C 0.90419 0.98156 0.90791 0.0
H497 H 0.83559 0.01719 0.07884 0.0
H498 H 0.86565 0.02029 0.031 0.0
H499 H 0.88399 0.96605 0.95753 0.0
H500 H 0.94589 0.97525 0.74656 0.0
H501 H 0.91847 0.97399 0.80493 0.0
H502 H 0.90501 0.0291 0.88193 0.0
C503 C 0.85604 0.00775 0.02284 0.0
C504 C 0.88838 0.97989 0.94119 0.0
C505 C 0.83893 0.00588 0.05063 0.0
C506 C 0.94454 0.98695 0.7754 0.0
C507 C 0.92888 0.98611 0.80928 0.0
C508 C 0.90067 0.01532 0.89872 0.0
C509 C 0.86063 0.9936 0.98479 0.0
C510 C 0.87832 0.99583 0.95302 0.0
C511 C 0.92671 0.00066 0.84837 0.0
C512 C 0.91038 0.99923 0.88568 0.0
H513 H 0.82127 0.963 0.99528 0.0
H514 H 0.85085 0.96635 0.94648 0.0
H515 H 0.87725 0.02615 0.93982 0.0
H516 H 0.96661 0.02916 0.82289 0.0
H517 H 0.93915 0.0277 0.88188 0.0
C518 C 0.60804 0.84401 0.98721 0.0
C519 C 0.59852 0.8355 0.03111 0.0
C520 C 0.60122 0.8594 0.96281 0.0
C521 C 0.57054 0.89812 0.97619 0.0
H522 H 0.56328 0.88795 0.82518 0.0
C523 C 0.52789 0.9451 0.84936 0.0
C524 C 0.53335 0.94746 0.79588 0.0
C525 C 0.53657 0.93256 0.88056 0.0
C526 C 0.5655 0.89129 0.86704 0.0
H527 H 0.57504 0.83745 0.08603 0.0
H528 H 0.56333 0.86479 0.04381 0.0
H529 H 0.57779 0.86504 0.87676 0.0
H530 H 0.55262 0.93933 0.73353 0.0
H531 H 0.56822 0.91802 0.78807 0.0
H532 H 0.5586 0.92461 0.96631 0.0
C533 C 0.57601 0.8593 0.02822 0.0
C534 C 0.57375 0.87806 0.89664 0.0
C535 C 0.58274 0.8437 0.05243 0.0
C536 C 0.54793 0.9375 0.77445 0.0
C537 C 0.5568 0.92521 0.80575 0.0
C538 C 0.56252 0.91157 0.94632 0.0
C539 C 0.58486 0.86686 0.98214 0.0
C540 C 0.57635 0.88131 0.95146 0.0
C541 C 0.55108 0.92233 0.85905 0.0
C542 C 0.55986 0.90831 0.89128 0.0
H543 H 0.6205 0.83837 0.97059 0.0
H544 H 0.6085 0.8652 0.92789 0.0
H545 H 0.57246 0.90097 0.0184 0.0
H546 H 0.51673 0.95275 0.86689 0.0
H547 H 0.53161 0.93061 0.92115 0.0
C548 C 0.672 0.47371 0.00898 0.0
C549 C 0.67413 0.45415 0.01477 0.0
C550 C 0.65676 0.47931 0.98209 0.0
C551 C 0.60959 0.46245 0.93702 0.0
H552 H 0.62012 0.49877 0.82502 0.0
C553 C 0.5562 0.47175 0.77676 0.0
C554 C 0.55455 0.49027 0.75885 0.0
C555 C 0.57061 0.46838 0.81011 0.0
C556 C 0.61686 0.48885 0.85666 0.0
H557 H 0.66164 0.42517 0.99915 0.0
H558 H 0.635 0.43493 0.95259 0.0
H559 H 0.64511 0.4914 0.88223 0.0
H560 H 0.56672 0.51982 0.7621 0.0
H561 H 0.59176 0.51398 0.82104 0.0
H562 H 0.58138 0.45986 0.91175 0.0
C563 C 0.64509 0.44594 0.96864 0.0
C564 C 0.63119 0.48462 0.88942 0.0
C565 C 0.6604 0.44034 0.99495 0.0
C566 C 0.56775 0.50533 0.77467 0.0
C567 C 0.58211 0.50198 0.80846 0.0
C568 C 0.59524 0.46677 0.90457 0.0
C569 C 0.64327 0.46546 0.96113 0.0
C570 C 0.62776 0.47117 0.92942 0.0
C571 C 0.58365 0.48347 0.82689 0.0
C572 C 0.59874 0.47979 0.86338 0.0
H573 H 0.68244 0.48464 0.02356 0.0
H574 H 0.65563 0.49446 0.97725 0.0
H575 H 0.60648 0.45223 0.96802 0.0
H576 H 0.54633 0.45981 0.76507 0.0
H577 H 0.57158 0.45386 0.82251 0.0
C578 C 0.92469 0.65929 0.02144 0.0
C579 C 0.91696 0.6723 0.989 0.0
C580 C 0.93292 0.64345 0.99895 0.0
C581 C 0.9515 0.62491 0.86881 0.0
H582 H 0.94858 0.5765 0.94012 0.0
C583 C 0.96496 0.55254 0.76533 0.0
C584 C 0.9803 0.54419 0.78472 0.0
C585 C 0.95766 0.56781 0.79333 0.0
C586 C 0.94955 0.59001 0.92012 0.0
H587 H 0.91194 0.67857 0.9069 0.0
H588 H 0.92491 0.65053 0.86845 0.0
H589 H 0.93454 0.60386 0.98259 0.0
H590 H 0.99962 0.54483 0.84953 0.0
H591 H 0.98632 0.57133 0.89955 0.0
H592 H 0.9657 0.61061 0.80527 0.0
C593 C 0.92526 0.65281 0.91122 0.0
C594 C 0.94163 0.60573 0.94443 0.0
C595 C 0.91739 0.66879 0.93355 0.0
C596 C 0.98784 0.55105 0.83357 0.0
C597 C 0.98023 0.5661 0.86223 0.0
C598 C 0.95903 0.60911 0.84418 0.0
C599 C 0.93338 0.64004 0.94344 0.0
C600 C 0.94236 0.62338 0.91887 0.0
C601 C 0.96529 0.57476 0.8418 0.0
C602 C 0.95803 0.59155 0.86949 0.0
H603 H 0.92443 0.66128 0.06432 0.0
H604 H 0.93916 0.63408 0.02517 0.0
H605 H 0.95288 0.63833 0.84842 0.0
H606 H 0.9589 0.54765 0.72769 0.0
H607 H 0.9461 0.57431 0.777 0.0
C608 C 0.08524 0.17357 0.48487 0.0
C609 C 0.10311 0.17233 0.46203 0.0
C610 C 0.07537 0.1575 0.50667 0.0
C611 C 0.07984 0.10851 0.55272 0.0
H612 H 0.02778 0.10011 0.51557 0.0
C613 C 0.03119 0.04694 0.63843 0.0
C614 C 0.01831 0.03686 0.6046 0.0
C615 C 0.04136 0.06377 0.62266 0.0
C616 C 0.04232 0.10217 0.52593 0.0
H617 H 0.12505 0.15352 0.44729 0.0
H618 H 0.10767 0.12536 0.48439 0.0
H619 H 0.04634 0.12901 0.48747 0.0
H620 H 0.00643 0.03601 0.52635 0.0
H621 H 0.02441 0.06546 0.49784 0.0
H622 H 0.07597 0.08139 0.58978 0.0
C623 C 0.10132 0.13879 0.48567 0.0
C624 C 0.0529 0.11887 0.51051 0.0
C625 C 0.11124 0.15489 0.464 0.0
C626 C 0.01605 0.04373 0.55371 0.0
C627 C 0.02627 0.06061 0.53757 0.0
C628 C 0.06926 0.0918 0.56806 0.0
C629 C 0.08308 0.13979 0.50598 0.0
C630 C 0.07178 0.12225 0.52377 0.0
C631 C 0.0391 0.07079 0.57193 0.0
C632 C 0.05037 0.08845 0.55491 0.0
H633 H 0.07845 0.18669 0.48359 0.0
H634 H 0.06149 0.15885 0.52294 0.0
H635 H 0.09431 0.11071 0.56382 0.0
H636 H 0.03414 0.04142 0.67609 0.0
H637 H 0.05108 0.0712 0.65023 0.0
C638 C 0.36934 0.05017 0.37893 0.0
C639 C 0.3521 0.03972 0.38944 0.0
C640 C 0.38513 0.04665 0.40667 0.0
C641 C 0.40156 0.02208 0.52231 0.0
H642 H 0.443 0.01187 0.4274 0.0
C643 C 0.4599 0.97899 0.5897 0.0
C644 C 0.47817 0.98643 0.57727 0.0
C645 C 0.44487 0.98624 0.56596 0.0
C646 C 0.43167 0.01488 0.45459 0.0
H647 H 0.33772 0.01829 0.43977 0.0
H648 H 0.36514 0.01233 0.48831 0.0
H649 H 0.41629 0.02582 0.39284 0.0
H650 H 0.49531 0.00534 0.52623 0.0
H651 H 0.46909 0.01832 0.48509 0.0
H652 H 0.41688 0.01097 0.584 0.0
C653 C 0.36647 0.02329 0.45884 0.0
C654 C 0.41639 0.02297 0.43485 0.0
C655 C 0.35071 0.02676 0.43105 0.0
C656 C 0.48126 0.99983 0.53727 0.0
C657 C 0.46626 0.00712 0.51355 0.0
C658 C 0.41687 0.01406 0.54212 0.0
C659 C 0.38396 0.03267 0.44558 0.0
C660 C 0.40105 0.02636 0.4683 0.0
C661 C 0.44788 0.00088 0.52904 0.0
C662 C 0.43195 0.01004 0.50825 0.0
H663 H 0.37078 0.06049 0.34773 0.0
H664 H 0.39838 0.05437 0.39637 0.0
H665 H 0.39003 0.02475 0.54915 0.0
H666 H 0.45716 0.96856 0.62034 0.0
H667 H 0.43088 0.98076 0.5777 0.0
C668 C 0.41789 0.33963 0.45473 0.0
C669 C 0.40281 0.34172 0.42169 0.0
C670 C 0.4272 0.35563 0.4804 0.0
C671 C 0.43929 0.40571 0.45592 0.0
H672 H 0.45868 0.40874 0.59859 0.0
C673 C 0.48519 0.47215 0.53404 0.0
C674 C 0.49948 0.46916 0.56862 0.0
C675 C 0.47221 0.45698 0.51906 0.0
C676 C 0.45357 0.40801 0.5584 0.0
H677 H 0.38464 0.36208 0.39398 0.0
H678 H 0.40126 0.39009 0.43783 0.0
H679 H 0.43682 0.38154 0.57143 0.0
H680 H 0.51225 0.44805 0.61232 0.0
H681 H 0.49006 0.42123 0.58445 0.0
H682 H 0.45654 0.43155 0.44164 0.0
C683 C 0.40591 0.37604 0.44328 0.0
C684 C 0.44093 0.39252 0.54311 0.0
C685 C 0.39646 0.36001 0.4181 0.0
C686 C 0.50117 0.45065 0.58601 0.0
C687 C 0.48835 0.43538 0.57049 0.0
C688 C 0.45209 0.42103 0.4709 0.0
C689 C 0.42174 0.37406 0.47318 0.0
C690 C 0.43376 0.3912 0.49162 0.0
C691 C 0.47351 0.43842 0.53749 0.0
C692 C 0.45951 0.42232 0.52219 0.0
H693 H 0.42334 0.32584 0.45802 0.0
H694 H 0.43943 0.35372 0.50297 0.0
H695 H 0.43425 0.40485 0.41563 0.0
H696 H 0.48355 0.48638 0.5204 0.0
H697 H 0.46087 0.45995 0.4942 0.0
C698 C 0.17075 0.576 0.47359 0.0
C699 C 0.17359 0.59072 0.43693 0.0
C700 C 0.15377 0.57284 0.50117 0.0
C701 C 0.11783 0.57186 0.56669 0.0
H702 H 0.07549 0.5712 0.47454 0.0
C703 C 0.04276 0.54609 0.63606 0.0
C704 C 0.03287 0.53337 0.6002 0.0
C705 C 0.05959 0.55605 0.62027 0.0
C706 C 0.08717 0.57133 0.5008 0.0
H707 H 0.16136 0.61461 0.40362 0.0
H708 H 0.13165 0.60911 0.45199 0.0
H709 H 0.10613 0.58399 0.44263 0.0
H710 H 0.03236 0.52137 0.51959 0.0
H711 H 0.06173 0.5387 0.49184 0.0
H712 H 0.09893 0.55832 0.62391 0.0
C713 C 0.14247 0.5998 0.4586 0.0
C714 C 0.1047 0.5789 0.4828 0.0
C715 C 0.15947 0.60296 0.43096 0.0
C716 C 0.03976 0.53112 0.54796 0.0
C717 C 0.05651 0.54111 0.53207 0.0
C718 C 0.10027 0.56429 0.58473 0.0
C719 C 0.13924 0.58433 0.49275 0.0
C720 C 0.12031 0.57886 0.51506 0.0
C721 C 0.06667 0.55361 0.56812 0.0
C722 C 0.08485 0.56353 0.55145 0.0
H723 H 0.18122 0.56613 0.47862 0.0
H724 H 0.15168 0.56065 0.52664 0.0
H725 H 0.12956 0.5718 0.59267 0.0
H726 H 0.03746 0.54841 0.67621 0.0
H727 H 0.06698 0.56575 0.64871 0.0
C728 C 0.89291 0.85101 0.88906 0.0
C729 C 0.89797 0.83208 0.88431 0.0
C730 C 0.90372 0.86596 0.86458 0.0
C731 C 0.95243 0.87675 0.81711 0.0
H732 H 0.93487 0.92557 0.78462 0.0
C733 C 0.00097 0.94257 0.74916 0.0
C734 C 0.99851 0.95965 0.77828 0.0
C735 C 0.98822 0.92643 0.75501 0.0
C736 C 0.93992 0.91197 0.79352 0.0
H737 H 0.91738 0.81391 0.84503 0.0
H738 H 0.93531 0.83966 0.79968 0.0
H739 H 0.91236 0.898 0.80107 0.0
H740 H 0.98123 0.97332 0.83731 0.0
H741 H 0.95877 0.94517 0.84714 0.0
H742 H 0.97998 0.8908 0.80909 0.0
C743 C 0.92353 0.84313 0.82454 0.0
C744 C 0.92706 0.89619 0.80314 0.0
C745 C 0.91296 0.82824 0.84987 0.0
C746 C 0.98341 0.96027 0.81442 0.0
C747 C 0.97048 0.94427 0.81959 0.0
C748 C 0.96525 0.89242 0.8066 0.0
C749 C 0.91964 0.86231 0.83375 0.0
C750 C 0.93313 0.87846 0.81629 0.0
C751 C 0.97272 0.92725 0.7897 0.0
C752 C 0.95911 0.91027 0.7959 0.0
H753 H 0.88115 0.85448 0.91399 0.0
H754 H 0.90017 0.88048 0.87271 0.0
H755 H 0.95774 0.86353 0.82816 0.0
H756 H 0.01267 0.94178 0.72152 0.0
H757 H 0.99027 0.91344 0.73169 0.0
C758 C 0.65919 0.9882 0.95242 0.0
C759 C 0.65679 0.9748 0.99284 0.0
C760 C 0.64391 0.99333 0.92524 0.0
C761 C 0.59429 0.97966 0.89678 0.0
H762 H 0.59361 0.03442 0.87892 0.0
C763 C 0.52958 0.01228 0.82305 0.0
C764 C 0.53299 0.02538 0.78235 0.0
C765 C 0.54433 0.0064 0.85128 0.0
C766 C 0.59365 0.01908 0.88323 0.0
H767 H 0.63655 0.95542 0.03412 0.0
H768 H 0.60976 0.96465 0.98716 0.0
H769 H 0.62021 0.02237 0.91975 0.0
H770 H 0.55419 0.0436 0.74111 0.0
H771 H 0.57999 0.03357 0.79075 0.0
H772 H 0.56765 0.97644 0.86014 0.0
C773 C 0.6235 0.97114 0.97645 0.0
C774 C 0.60892 0.01216 0.90644 0.0
C775 C 0.63883 0.96597 0.00366 0.0
C776 C 0.5512 0.03356 0.77263 0.0
C777 C 0.56596 0.02774 0.80091 0.0
C778 C 0.57898 0.9866 0.87352 0.0
C779 C 0.62584 0.98525 0.93793 0.0
C780 C 0.60949 0.99237 0.91314 0.0
C781 C 0.56272 0.01374 0.83961 0.0
C782 C 0.57856 0.0064 0.86628 0.0
H783 H 0.67278 0.99543 0.94335 0.0
H784 H 0.6462 0.00399 0.89505 0.0
H785 H 0.59437 0.96433 0.90106 0.0
H786 H 0.51554 0.00617 0.83191 0.0
H787 H 0.54137 0.99589 0.88163 0.0
C788 C 0.60441 0.663 0.88845 0.0
C789 C 0.61046 0.66336 0.94127 0.0
C790 C 0.59464 0.64655 0.86621 0.0
C791 C 0.56601 0.60304 0.91052 0.0
H792 H 0.5657 0.58914 0.75985 0.0
C793 C 0.52664 0.53377 0.82341 0.0
C794 C 0.51553 0.53607 0.77957 0.0
C795 C 0.53884 0.54901 0.84241 0.0
C796 C 0.56563 0.59296 0.802 0.0
H797 H 0.61202 0.64591 0.01048 0.0
H798 H 0.59631 0.61711 0.97059 0.0
H799 H 0.58764 0.6154 0.7928 0.0
H800 H 0.50738 0.55623 0.7235 0.0
H801 H 0.52925 0.58287 0.75561 0.0
H802 H 0.54426 0.58033 0.91964 0.0
C803 C 0.59835 0.62981 0.94705 0.0
C804 C 0.57814 0.60801 0.82091 0.0
C805 C 0.60777 0.64633 0.96964 0.0
C806 C 0.51631 0.554 0.75618 0.0
C807 C 0.52872 0.56919 0.77465 0.0
C808 C 0.55375 0.58785 0.89172 0.0
C809 C 0.59098 0.62992 0.8959 0.0
C810 C 0.57843 0.61331 0.87546 0.0
C811 C 0.54017 0.56676 0.81771 0.0
C812 C 0.55336 0.58275 0.83732 0.0
H813 H 0.6066 0.67565 0.86478 0.0
H814 H 0.58922 0.64723 0.82667 0.0
H815 H 0.5654 0.60697 0.95252 0.0
H816 H 0.52633 0.52003 0.84205 0.0
H817 H 0.54757 0.54678 0.87561 0.0
C818 C 0.84676 0.39969 0.93246 0.0
C819 C 0.83268 0.41208 0.92788 0.0
C820 C 0.86384 0.40325 0.90546 0.0
C821 C 0.90164 0.42474 0.88479 0.0
H822 H 0.90813 0.44636 0.74508 0.0
C823 C 0.96714 0.4726 0.82319 0.0
C824 C 0.97431 0.47029 0.77125 0.0
C825 C 0.95023 0.46273 0.83836 0.0
C826 C 0.90657 0.44013 0.78389 0.0
H827 H 0.82518 0.43731 0.88895 0.0
H828 H 0.85484 0.44342 0.8418 0.0
H829 H 0.87729 0.43281 0.77469 0.0
H830 H 0.97007 0.4552 0.69517 0.0
H831 H 0.94024 0.43817 0.7213 0.0
H832 H 0.93081 0.43232 0.89441 0.0
C833 C 0.85267 0.43086 0.86587 0.0
C834 C 0.8889 0.4325 0.80098 0.0
C835 C 0.83561 0.42733 0.89291 0.0
C836 C 0.96454 0.45761 0.73504 0.0
C837 C 0.94754 0.44781 0.75006 0.0
C838 C 0.91925 0.43242 0.86782 0.0
C839 C 0.86718 0.41924 0.87324 0.0
C840 C 0.88619 0.42504 0.85201 0.0
C841 C 0.94018 0.45034 0.80184 0.0
C842 C 0.92184 0.44054 0.81764 0.0
H843 H 0.84482 0.38762 0.95839 0.0
H844 H 0.87466 0.39383 0.91116 0.0
H845 H 0.9 0.41931 0.92455 0.0
H846 H 0.97444 0.48231 0.85184 0.0
H847 H 0.94481 0.46515 0.87836 0.0
C848 C 0.08553 0.19093 0.03733 0.0
C849 C 0.10459 0.19718 0.03711 0.0
C850 C 0.07873 0.17563 0.00394 0.0
C851 C 0.06554 0.14714 0.91734 0.0
H852 H 0.09637 0.10494 0.89589 0.0
C853 C 0.03961 0.0794 0.79465 0.0
C854 C 0.04433 0.06162 0.81136 0.0
C855 C 0.048 0.09649 0.81706 0.0
C856 C 0.08748 0.11649 0.90191 0.0
H857 H 0.13137 0.193 -0.0001 0.0
H858 H 0.11943 0.16672 0.93978 0.0
H859 H 0.10861 0.13403 0.9436 0.0
H860 H 0.06155 0.0476 0.86405 0.0
H861 H 0.07564 0.07745 0.90545 0.0
H862 H 0.044 0.12923 0.87887 0.0
C863 C 0.10977 0.17323 0.96696 0.0
C864 C 0.09464 0.13338 0.92851 0.0
C865 C 0.11661 0.1884 0.00099 0.0
C866 C 0.05772 0.06118 0.85056 0.0
C867 C 0.06587 0.07831 0.87387 0.0
C868 C 0.05829 0.13017 0.89154 0.0
C869 C 0.0908 0.16633 0.96892 0.0
C870 C 0.08371 0.14889 0.93703 0.0
C871 C 0.06104 0.09623 0.85761 0.0
C872 C 0.0691 0.11454 0.88369 0.0
H873 H 0.07598 0.19717 0.06548 0.0
H874 H 0.06412 0.17058 0.00751 0.0
H875 H 0.05677 0.15884 0.92227 0.0
H876 H 0.02952 0.08011 0.76378 0.0
H877 H 0.04426 0.10991 0.80234 0.0
C878 C 0.3157 0.99776 0.92381 0.0
C879 C 0.31499 0.9843 0.96405 0.0
C880 C 0.32874 0.997 0.88176 0.0
C881 C 0.36575 0.96795 0.82158 0.0
H882 H 0.39172 0.01825 0.80048 0.0
C883 C 0.44391 0.98068 0.76651 0.0
C884 C 0.44968 0.99501 0.73037 0.0
C885 C 0.42528 0.97783 0.78341 0.0
C886 C 0.38447 0.00412 0.80511 0.0
H887 H 0.3259 0.95825 0.98845 0.0
H888 H 0.34894 0.95728 0.9167 0.0
H889 H 0.36205 0.0156 0.84863 0.0
H890 H 0.44015 0.01706 0.68195 0.0
H891 H 0.40772 0.01222 0.71219 0.0
H892 H 0.38893 0.95655 0.78052 0.0
C893 C 0.33947 0.9684 0.91695 0.0
C894 C 0.36735 0.00257 0.83256 0.0
C895 C 0.32635 0.96906 0.9586 0.0
C896 C 0.43627 0.00605 0.71036 0.0
C897 C 0.41767 0.00329 0.7276 0.0
C898 C 0.383 0.96951 0.79462 0.0
C899 C 0.34141 0.98285 0.87928 0.0
C900 C 0.35796 0.98444 0.84236 0.0
C901 C 0.41202 0.98931 0.76479 0.0
C902 C 0.39273 0.9876 0.78721 0.0
H903 H 0.30715 0.00968 0.92673 0.0
H904 H 0.32949 0.00808 0.85269 0.0
H905 H 0.35877 0.95378 0.82741 0.0
H906 H 0.45381 0.97182 0.78244 0.0
H907 H 0.42136 0.96707 0.81251 0.0
C908 C 0.42922 0.31181 0.97581 0.0
C909 C 0.41022 0.3055 0.98137 0.0
C910 C 0.43524 0.32587 0.93956 0.0
C911 C 0.44601 0.3519 0.84787 0.0
H912 H 0.41498 0.3941 0.84349 0.0
C913 C 0.46867 0.41919 0.72773 0.0
C914 C 0.46578 0.43692 0.75302 0.0
C915 C 0.46041 0.40207 0.74834 0.0
C916 C 0.42386 0.38248 0.84437 0.0
H917 H 0.38281 0.30801 0.95065 0.0
H918 H 0.39335 0.33227 0.88653 0.0
H919 H 0.404 0.36563 0.89181 0.0
H920 H 0.45168 0.45079 0.8187 0.0
H921 H 0.43756 0.42097 0.85548 0.0
H922 H 0.46628 0.36918 0.80278 0.0
C923 C 0.40355 0.32674 0.91118 0.0
C924 C 0.41743 0.36598 0.87148 0.0
C925 C 0.39752 0.31276 0.94769 0.0
C926 C 0.45408 0.4373 0.79837 0.0
C927 C 0.44591 0.42018 0.81921 0.0
C928 C 0.45247 0.36844 0.82096 0.0
C929 C 0.42242 0.33389 0.90774 0.0
C930 C 0.42854 0.35058 0.87432 0.0
C931 C 0.44917 0.40232 0.7949 0.0
C932 C 0.44161 0.38408 0.81959 0.0
H933 H 0.43933 0.30673 0.00169 0.0
H934 H 0.44984 0.33115 0.9386 0.0
H935 H 0.45485 0.34024 0.84861 0.0
H936 H 0.47755 0.41853 0.69243 0.0
H937 H 0.46296 0.38862 0.728 0.0
C938 C 0.20201 0.5609 0.96995 0.0
C939 C 0.20821 0.54863 0.00736 0.0
C940 C 0.18769 0.55443 0.93544 0.0
C941 C 0.14692 0.51903 0.93229 0.0
H942 H 0.14213 0.53596 0.78871 0.0
C943 C 0.08091 0.49697 0.81224 0.0
C944 C 0.07391 0.5114 0.78348 0.0
C945 C 0.09859 0.49992 0.83421 0.0
C946 C 0.14321 0.53121 0.82891 0.0
H947 H 0.20499 0.51954 0.03535 0.0
H948 H 0.18033 0.50815 0.97436 0.0
H949 H 0.17148 0.5435 0.8347 0.0
H950 H 0.07996 0.54006 0.75405 0.0
H951 H 0.11072 0.5454 0.79323 0.0
H952 H 0.11859 0.50721 0.92734 0.0
C953 C 0.18632 0.52289 0.97238 0.0
C954 C 0.16005 0.5355 0.85518 0.0
C955 C 0.20065 0.52936 0.00687 0.0
C956 C 0.08503 0.52871 0.77619 0.0
C957 C 0.10271 0.53169 0.79828 0.0
C958 C 0.13011 0.5148 0.90614 0.0
C959 C 0.17923 0.53553 0.93757 0.0
C960 C 0.16203 0.52961 0.90741 0.0
C961 C 0.10964 0.51739 0.82801 0.0
C962 C 0.12796 0.521 0.85433 0.0
H963 H 0.2077 0.57577 0.96892 0.0
H964 H 0.18256 0.56457 0.90924 0.0
H965 H 0.14781 0.51461 0.97287 0.0
H966 H 0.07266 0.48343 0.81809 0.0
H967 H 0.10359 0.48848 0.85612 0.0
C968 C 0.90089 0.83269 0.318 0.0
C969 C 0.90362 0.81316 0.32226 0.0
C970 C 0.90767 0.8463 0.35631 0.0
C971 C 0.9446 0.85582 0.45197 0.0
H972 H 0.91583 0.89737 0.50139 0.0
C973 C 0.97556 0.91757 0.59154 0.0
C974 C 0.9714 0.9361 0.57968 0.0
C975 C 0.96617 0.90144 0.56649 0.0
C976 C 0.92411 0.88595 0.48768 0.0
H977 H 0.91536 0.79269 0.37137 0.0
H978 H 0.92763 0.8167 0.43786 0.0
H979 H 0.90115 0.87093 0.44683 0.0
H980 H 0.95413 0.95244 0.53297 0.0
H981 H 0.93803 0.9244 0.48816 0.0
H982 H 0.96776 0.87114 0.49101 0.0
C983 C 0.92015 0.82133 0.40458 0.0
C984 C 0.91566 0.87077 0.45664 0.0
C985 C 0.91317 0.80761 0.36642 0.0
C986 C 0.95757 0.93828 0.54284 0.0
C987 C 0.94825 0.92219 0.51753 0.0
C988 C 0.9531 0.87109 0.48272 0.0
C989 C 0.91755 0.84083 0.39967 0.0
C990 C 0.92591 0.85572 0.43767 0.0
C991 C 0.95248 0.90356 0.52886 0.0
C992 C 0.94305 0.88652 0.50013 0.0
H993 H 0.89409 0.83769 0.28398 0.0
H994 H 0.90576 0.86127 0.35088 0.0
H995 H 0.9529 0.84453 0.43741 0.0
H996 H 0.98609 0.91552 0.62021 0.0
H997 H 0.96959 0.88732 0.57674 0.0
C998 C 0.69335 0.02292 0.41029 0.0
C999 C 0.70043 0.00499 0.41386 0.0
C1000 C 0.67895 0.02805 0.44461 0.0
C1001 C 0.65115 0.01498 0.56642 0.0
H1002 H 0.60985 0.02889 0.48505 0.0
C1003 C 0.57493 0.0031 0.64124 0.0
C1004 C 0.56201 0.01553 0.6257 0.0
C1005 C 0.59332 0.00517 0.62197 0.0
C1006 C 0.62129 0.02545 0.50887 0.0
H1007 H 0.69921 0.97918 0.45922 0.0
H1008 H 0.67408 0.98813 0.51924 0.0
H1009 H 0.64019 0.02734 0.44205 0.0
H1010 H 0.55858 0.04055 0.57991 0.0
H1011 H 0.59075 0.04445 0.54725 0.0
H1012 H 0.63212 0.01279 0.63312 0.0
C1013 C 0.6796 0.99821 0.48987 0.0
C1014 C 0.63874 0.02455 0.48409 0.0
C1015 C 0.69392 0.99303 0.45533 0.0
C1016 C 0.56809 0.03055 0.59209 0.0
C1017 C 0.58655 0.03274 0.57319 0.0
C1018 C 0.6337 0.01605 0.59141 0.0
C1019 C 0.67143 0.01541 0.4834 0.0
C1020 C 0.65377 0.01891 0.51224 0.0
C1021 C 0.59933 0.01986 0.58707 0.0
C1022 C 0.61842 0.02087 0.56261 0.0
H1023 H 0.69797 0.0324 0.37854 0.0
H1024 H 0.67308 0.04151 0.43915 0.0
H1025 H 0.66253 0.01076 0.58923 0.0
H1026 H 0.57077 0.99138 0.66721 0.0
H1027 H 0.60263 0.9948 0.63302 0.0
C1028 C 0.61772 0.67758 0.34265 0.0
C1029 C 0.61149 0.6959 0.35203 0.0
C1030 C 0.6118 0.66243 0.37535 0.0
C1031 C 0.58884 0.64994 0.50488 0.0
H1032 H 0.57603 0.60114 0.43047 0.0
C1033 C 0.54609 0.58504 0.6008 0.0
C1034 C 0.55115 0.56661 0.58654 0.0
C1035 C 0.55489 0.60122 0.57642 0.0
C1036 C 0.57979 0.61457 0.45204 0.0
H1037 H 0.59458 0.71266 0.40499 0.0
H1038 H 0.5838 0.68598 0.4614 0.0
H1039 H 0.58851 0.62868 0.38062 0.0
H1040 H 0.56984 0.55064 0.53741 0.0
H1041 H 0.58532 0.57886 0.49499 0.0
H1042 H 0.57972 0.63572 0.57632 0.0
C1043 C 0.5935 0.68347 0.42887 0.0
C1044 C 0.58697 0.6304 0.42343 0.0
C1045 C 0.59954 0.69873 0.39618 0.0
C1046 C 0.56561 0.56468 0.54891 0.0
C1047 C 0.57438 0.58083 0.52443 0.0
C1048 C 0.58158 0.63405 0.53359 0.0
C1049 C 0.59928 0.66504 0.41814 0.0
C1050 C 0.59166 0.64829 0.44941 0.0
C1051 C 0.56889 0.59926 0.53716 0.0
C1052 C 0.57702 0.61616 0.50746 0.0
H1053 H 0.62665 0.67461 0.30865 0.0
H1054 H 0.61681 0.64854 0.36642 0.0
H1055 H 0.59245 0.66345 0.52621 0.0
H1056 H 0.535 0.58692 0.62986 0.0
H1057 H 0.55025 0.61517 0.5869 0.0
C1058 C 0.80677 0.4421 0.39798 0.0
C1059 C 0.80042 0.45452 0.36123 0.0
C1060 C 0.82076 0.44866 0.43346 0.0
C1061 C 0.86077 0.48469 0.43957 0.0
H1062 H 0.86527 0.46724 0.58272 0.0
C1063 C 0.92645 0.50668 0.56062 0.0
C1064 C 0.93342 0.49224 0.58937 0.0
C1065 C 0.90878 0.50374 0.53862 0.0
C1066 C 0.86427 0.47213 0.54265 0.0
H1067 H 0.80293 0.48388 0.33535 0.0
H1068 H 0.8271 0.49538 0.3979 0.0
H1069 H 0.83615 0.4595 0.5357 0.0
H1070 H 0.92738 0.46359 0.61882 0.0
H1071 H 0.89667 0.45821 0.57934 0.0
H1072 H 0.88897 0.49676 0.44547 0.0
C1073 C 0.82145 0.4805 0.3987 0.0
C1074 C 0.84757 0.46775 0.51582 0.0
C1075 C 0.80743 0.47396 0.36331 0.0
C1076 C 0.92231 0.47494 0.59667 0.0
C1077 C 0.90466 0.47195 0.57443 0.0
C1078 C 0.87746 0.48899 0.46622 0.0
C1079 C 0.82872 0.46777 0.43288 0.0
C1080 C 0.84569 0.47383 0.46376 0.0
C1081 C 0.89774 0.48624 0.54464 0.0
C1082 C 0.87951 0.4826 0.51789 0.0
H1083 H 0.80149 0.42709 0.39772 0.0
H1084 H 0.82606 0.43846 0.45915 0.0
H1085 H 0.85995 0.48927 0.39911 0.0
H1086 H 0.93469 0.52023 0.55483 0.0
H1087 H 0.90378 0.51519 0.51675 0.0
loop_
_geom_bond_atom_site_label_1
_geom_bond_atom_site_label_2
_geom_bond_distance
_geom_bond_site_symmetry_2
_ccdc_geom_bond_type
C0 C1 1.384 . S
C0 H13 0.947 . S
C0 C35 1.382 . S
C1 C0 1.384 . S
C1 C2 1.378 . S
C2 C1 1.378 . S
C2 C3 1.378 . S
C2 H14 0.952 . S
C3 C2 1.378 . S
C3 H15 0.950 . S
C3 C34 1.383 . S
H4 C23 0.947 . S
H5 C24 0.946 . S
H6 C26 0.953 . S
H7 C27 0.945 . S
H8 C29 0.952 . S
H9 C30 0.949 . S
H10 C32 0.950 . S
H11 C33 0.948 1_554 S
H12 C35 0.951 . S
H13 C0 0.947 . S
H14 C2 0.952 . S
H15 C3 0.950 . S
N16 C19 1.382 . S
N16 C21 1.363 . S
N17 C19 1.371 . S
N17 C20 1.372 . S
N18 C20 1.361 . S
N18 C21 1.377 . S
C19 N16 1.382 . S
C19 N17 1.371 . S
C19 C22 1.480 . S
C20 N17 1.372 . S
C20 N18 1.361 . S
C20 C28 1.457 1_554 S
C21 N16 1.363 . S
C21 N18 1.377 . S
C21 C34 1.479 . S
C22 C19 1.480 . S
C22 C23 1.383 . S
C22 C27 1.385 1_554 S
C23 H4 0.947 . S
C23 C22 1.383 . S
C23 C24 1.388 . S
C24 H5 0.946 . S
C24 C23 1.388 . S
C24 C25 1.384 . S
C25 C24 1.384 . S
C25 C26 1.377 1_554 S
C26 H6 0.953 . S
C26 C25 1.377 1_556 S
C26 C27 1.369 . S
C27 H7 0.945 . S
C27 C22 1.385 1_556 S
C27 C26 1.369 . S
C28 C20 1.457 1_556 S
C28 C29 1.372 . S
C28 C33 1.364 . S
C29 H8 0.952 . S
C29 C28 1.372 . S
C29 C30 1.389 . S
C30 H9 0.949 . S
C30 C29 1.389 . S
C30 C31 1.387 . S
C31 C30 1.387 . S
C31 C32 1.372 . S
C32 H10 0.950 . S
C32 C31 1.372 . S
C32 C33 1.379 . S
C33 H11 0.948 1_556 S
C33 C28 1.364 . S
C33 C32 1.379 . S
C34 C3 1.383 . S
C34 C21 1.479 . S
C34 C35 1.398 . S
C35 C0 1.382 . S
C35 H12 0.951 . S
C35 C34 1.398 . S
C36 C37 1.384 . S
C36 H49 0.947 . S
C36 C71 1.382 . S
C37 C36 1.384 . S
C37 C38 1.378 . S
C38 C37 1.378 . S
C38 C39 1.378 . S
C38 H50 0.952 . S
C39 C38 1.378 . S
C39 H51 0.950 . S
C39 C70 1.383 . S
H40 C59 0.947 . S
H41 C60 0.946 . S
H42 C62 0.953 . S
H43 C63 0.945 . S
H44 C65 0.952 . S
H45 C66 0.949 . S
H46 C68 0.950 . S
H47 C69 0.948 1_554 S
H48 C71 0.951 . S
H49 C36 0.947 . S
H50 C38 0.952 . S
H51 C39 0.950 . S
N52 C55 1.382 . S
N52 C57 1.363 . S
N53 C55 1.371 1_556 S
N53 C56 1.372 . S
N54 C56 1.361 1_554 S
N54 C57 1.377 . S
C55 N52 1.382 . S
C55 N53 1.371 1_554 S
C55 C58 1.483 . S
C56 N53 1.372 . S
C56 N54 1.361 1_556 S
C56 C64 1.457 . S
C57 N52 1.363 . S
C57 N54 1.377 . S
C57 C70 1.479 . S
C58 C55 1.483 . S
C58 C59 1.394 . S
C58 C63 1.371 1_554 S
C59 H40 0.947 . S
C59 C58 1.394 . S
C59 C60 1.388 . S
C60 H41 0.946 . S
C60 C59 1.388 . S
C60 C61 1.384 1_554 S
C61 C60 1.384 1_556 S
C61 C62 1.377 . S
C62 H42 0.953 . S
C62 C61 1.377 . S
C62 C63 1.369 . S
C63 H43 0.945 . S
C63 C58 1.371 1_556 S
C63 C62 1.369 . S
C64 C56 1.457 . S
C64 C65 1.372 . S
C64 C69 1.364 . S
C65 H44 0.952 . S
C65 C64 1.372 . S
C65 C66 1.389 . S
C66 H45 0.949 . S
C66 C65 1.389 . S
C66 C67 1.387 . S
C67 C66 1.387 . S
C67 C68 1.372 . S
C68 H46 0.950 . S
C68 C67 1.372 . S
C68 C69 1.379 . S
C69 H47 0.948 1_556 S
C69 C64 1.364 . S
C69 C68 1.379 . S
C70 C39 1.383 . S
C70 C57 1.479 . S
C70 C71 1.398 . S
C71 C36 1.382 . S
C71 H48 0.951 . S
C71 C70 1.398 . S
C72 C73 1.384 1_565 S
C72 H85 0.947 . S
C72 C107 1.382 1_565 S
C73 C72 1.384 1_545 S
C73 C74 1.378 . S
C74 C73 1.378 . S
C74 C75 1.378 . S
C74 H86 0.952 . S
C75 C74 1.378 . S
C75 H87 0.950 . S
C75 C106 1.383 . S
H76 C95 0.947 . S
H77 C96 0.954 . S
H78 C98 0.953 1_556 S
H79 C99 0.945 1_556 S
H80 C101 0.948 1_565 S
H81 C102 0.956 . S
H82 C104 0.951 . S
H83 C105 0.948 . S
H84 C107 0.951 1_565 S
H85 C72 0.947 . S
H86 C74 0.952 . S
H87 C75 0.950 . S
N88 C91 1.382 . S
N88 C93 1.363 . S
N89 C91 1.371 . S
N89 C92 1.372 . S
N90 C92 1.361 . S
N90 C93 1.377 . S
C91 N88 1.382 . S
C91 N89 1.371 . S
C91 C94 1.480 . S
C92 N89 1.372 . S
C92 N90 1.361 . S
C92 C100 1.457 . S
C93 N88 1.363 . S
C93 N90 1.377 . S
C93 C106 1.479 . S
C94 C91 1.480 . S
C94 C95 1.383 . S
C94 C99 1.385 . S
C95 H76 0.947 . S
C95 C94 1.383 . S
C95 C96 1.383 1_545 S
C96 H77 0.954 . S
C96 C95 1.383 1_565 S
C96 C97 1.381 1_565 S
C97 C96 1.381 1_545 S
C97 C98 1.377 . S
C98 H78 0.953 1_554 S
C98 C97 1.377 . S
C98 C99 1.369 . S
C99 H79 0.945 1_554 S
C99 C94 1.385 . S
C99 C98 1.369 . S
C100 C92 1.457 . S
C100 C101 1.376 1_554 S
C100 C105 1.364 . S
C101 H80 0.948 1_545 S
C101 C100 1.376 1_556 S
C101 C102 1.392 1_545 S
C102 H81 0.956 . S
C102 C101 1.392 1_565 S
C102 C103 1.379 1_565 S
C103 C102 1.379 1_545 S
C103 C104 1.372 . S
C104 H82 0.951 . S
C104 C103 1.372 . S
C104 C105 1.379 1_556 S
C105 H83 0.948 . S
C105 C100 1.364 . S
C105 C104 1.379 1_554 S
C106 C75 1.383 . S
C106 C93 1.479 . S
C106 C107 1.398 . S
C107 C72 1.382 1_545 S
C107 H84 0.951 1_545 S
C107 C106 1.398 . S
C108 C109 1.384 . S
C108 H121 0.947 . S
C108 C143 1.382 1_556 S
C109 C108 1.384 . S
C109 C110 1.378 . S
C110 C109 1.378 . S
C110 C111 1.378 . S
C110 H122 0.952 . S
C111 C110 1.378 . S
C111 H123 0.950 . S
C111 C142 1.367 1_556 S
H112 C131 0.947 1_556 S
H113 C132 0.938 1_556 S
H114 C134 0.953 . S
H115 C135 0.945 . S
H116 C137 0.952 . S
H117 C138 0.949 . S
H118 C140 0.950 . S
H119 C141 0.948 . S
H120 C143 0.951 . S
H121 C108 0.947 . S
H122 C110 0.952 . S
H123 C111 0.950 . S
N124 C127 1.382 . S
N124 C129 1.363 . S
N125 C127 1.371 . S
N125 C128 1.372 . S
N126 C128 1.361 . S
N126 C129 1.377 . S
C127 N124 1.382 . S
C127 N125 1.371 . S
C127 C130 1.480 . S
C128 N125 1.372 . S
C128 N126 1.361 . S
C128 C136 1.457 . S
C129 N124 1.363 . S
C129 N126 1.377 . S
C129 C142 1.492 . S
C130 C127 1.480 . S
C130 C131 1.383 . S
C130 C135 1.385 . S
C131 H112 0.947 1_554 S
C131 C130 1.383 . S
C131 C132 1.390 . S
C132 H113 0.938 1_554 S
C132 C131 1.390 . S
C132 C133 1.389 . S
C133 C132 1.389 . S
C133 C134 1.377 . S
C134 H114 0.953 . S
C134 C133 1.377 . S
C134 C135 1.369 . S
C135 H115 0.945 . S
C135 C130 1.385 . S
C135 C134 1.369 . S
C136 C128 1.457 . S
C136 C137 1.372 . S
C136 C141 1.364 . S
C137 H116 0.952 . S
C137 C136 1.372 . S
C137 C138 1.389 . S
C138 H117 0.949 . S
C138 C137 1.389 . S
C138 C139 1.387 . S
C139 C138 1.387 . S
C139 C140 1.372 . S
C140 H118 0.950 . S
C140 C139 1.372 . S
C140 C141 1.379 . S
C141 H119 0.948 . S
C141 C136 1.364 . S
C141 C140 1.379 . S
C142 C111 1.367 1_554 S
C142 C129 1.492 . S
C142 C143 1.403 . S
C143 C108 1.382 1_554 S
C143 H120 0.951 . S
C143 C142 1.403 . S
C144 C145 1.384 . S
C144 H157 0.947 . S
C144 C179 1.382 . S
C145 C144 1.384 . S
C145 C146 1.378 . S
C146 C145 1.378 . S
C146 C147 1.378 . S
C146 H158 0.952 . S
C147 C146 1.378 . S
C147 H159 0.950 . S
C147 C178 1.383 . S
H148 C167 0.947 . S
H149 C168 0.946 . S
H150 C170 0.953 . S
H151 C171 0.945 . S
H152 C173 0.952 . S
H153 C174 0.949 . S
H154 C176 0.950 . S
H155 C177 0.948 . S
H156 C179 0.951 . S
H157 C144 0.947 . S
H158 C146 0.952 . S
H159 C147 0.950 . S
N160 C163 1.382 . S
N160 C165 1.363 . S
N161 C163 1.371 . S
N161 C164 1.372 . S
N162 C164 1.361 . S
N162 C165 1.377 . S
C163 N160 1.382 . S
C163 N161 1.371 . S
C163 C166 1.480 . S
C164 N161 1.372 . S
C164 N162 1.361 . S
C164 C172 1.457 . S
C165 N160 1.363 . S
C165 N162 1.377 . S
C165 C178 1.479 . S
C166 C163 1.480 . S
C166 C167 1.383 . S
C166 C171 1.385 . S
C167 H148 0.947 . S
C167 C166 1.383 . S
C167 C168 1.388 . S
C168 H149 0.946 . S
C168 C167 1.388 . S
C168 C169 1.384 . S
C169 C168 1.384 . S
C169 C170 1.377 . S
C170 H150 0.953 . S
C170 C169 1.377 . S
C170 C171 1.369 . S
C171 H151 0.945 . S
C171 C166 1.385 . S
C171 C170 1.369 . S
C172 C164 1.457 . S
C172 C173 1.372 . S
C172 C177 1.364 . S
C173 H152 0.952 . S
C173 C172 1.372 . S
C173 C174 1.389 . S
C174 H153 0.949 . S
C174 C173 1.389 . S
C174 C175 1.387 . S
C175 C174 1.387 . S
C175 C176 1.372 . S
C176 H154 0.950 . S
C176 C175 1.372 . S
C176 C177 1.379 . S
C177 H155 0.948 . S
C177 C172 1.364 . S
C177 C176 1.379 . S
C178 C147 1.383 . S
C178 C165 1.479 . S
C178 C179 1.398 . S
C179 C144 1.382 . S
C179 H156 0.951 . S
C179 C178 1.398 . S
C180 C181 1.384 . S
C180 H193 0.947 . S
C180 C215 1.382 . S
C181 C180 1.384 . S
C181 C182 1.378 . S
C182 C181 1.378 . S
C182 C183 1.378 . S
C182 H194 0.952 . S
C183 C182 1.378 . S
C183 H195 0.950 . S
C183 C214 1.383 . S
H184 C203 0.947 . S
H185 C204 0.946 . S
H186 C206 0.953 . S
H187 C207 0.945 . S
H188 C209 0.952 . S
H189 C210 0.949 . S
H190 C212 0.950 . S
H191 C213 0.948 . S
H192 C215 0.951 . S
H193 C180 0.947 . S
H194 C182 0.952 . S
H195 C183 0.950 . S
N196 C199 1.382 . S
N196 C201 1.363 . S
N197 C199 1.371 . S
N197 C200 1.372 . S
N198 C200 1.361 . S
N198 C201 1.377 . S
C199 N196 1.382 . S
C199 N197 1.371 . S
C199 C202 1.480 . S
C200 N197 1.372 . S
C200 N198 1.361 . S
C200 C208 1.457 . S
C201 N196 1.363 . S
C201 N198 1.377 . S
C201 C214 1.479 . S
C202 C199 1.480 . S
C202 C203 1.383 . S
C202 C207 1.385 . S
C203 H184 0.947 . S
C203 C202 1.383 . S
C203 C204 1.388 . S
C204 H185 0.946 . S
C204 C203 1.388 . S
C204 C205 1.384 . S
C205 C204 1.384 . S
C205 C206 1.377 . S
C206 H186 0.953 . S
C206 C205 1.377 . S
C206 C207 1.369 . S
C207 H187 0.945 . S
C207 C202 1.385 . S
C207 C206 1.369 . S
C208 C200 1.457 . S
C208 C209 1.372 . S
C208 C213 1.364 . S
C209 H188 0.952 . S
C209 C208 1.372 . S
C209 C210 1.389 . S
C210 H189 0.949 . S
C210 C209 1.389 . S
C210 C211 1.387 . S
C211 C210 1.387 . S
C211 C212 1.372 . S
C212 H190 0.950 . S
C212 C211 1.372 . S
C212 C213 1.379 . S
C213 H191 0.948 . S
C213 C208 1.364 . S
C213 C212 1.379 . S
C214 C183 1.383 . S
C214 C201 1.479 . S
C214 C215 1.398 . S
C215 C180 1.382 . S
C215 H192 0.951 . S
C215 C214 1.398 . S
C216 C217 1.384 . S
C216 H229 0.947 . S
C216 C251 1.382 . S
C217 C216 1.384 . S
C217 C218 1.378 . S
C218 C217 1.378 . S
C218 C219 1.378 . S
C218 H230 0.952 . S
C219 C218 1.378 . S
C219 H231 0.950 . S
C219 C250 1.383 . S
H220 C239 0.947 . S
H221 C240 0.953 . S
H222 C242 0.953 . S
H223 C243 0.945 . S
H224 C245 0.952 . S
H225 C246 0.949 . S
H226 C248 0.950 . S
H227 C249 0.948 . S
H228 C251 0.951 . S
H229 C216 0.947 . S
H230 C218 0.952 . S
H231 C219 0.950 . S
N232 C235 1.382 . S
N232 C237 1.363 . S
N233 C235 1.371 . S
N233 C236 1.372 . S
N234 C236 1.361 . S
N234 C237 1.377 . S
C235 N232 1.382 . S
C235 N233 1.371 . S
C235 C238 1.480 . S
C236 N233 1.372 . S
C236 N234 1.361 . S
C236 C244 1.457 . S
C237 N232 1.363 . S
C237 N234 1.377 . S
C237 C250 1.479 . S
C238 C235 1.480 . S
C238 C239 1.383 . S
C238 C243 1.385 . S
C239 H220 0.947 . S
C239 C238 1.383 . S
C239 C240 1.388 . S
C240 H221 0.953 . S
C240 C239 1.388 . S
C240 C241 1.384 . S
C241 C240 1.384 . S
C241 C242 1.377 . S
C242 H222 0.953 . S
C242 C241 1.377 . S
C242 C243 1.369 . S
C243 H223 0.945 . S
C243 C238 1.385 . S
C243 C242 1.369 . S
C244 C236 1.457 . S
C244 C245 1.372 . S
C244 C249 1.364 . S
C245 H224 0.952 . S
C245 C244 1.372 . S
C245 C246 1.389 . S
C246 H225 0.949 . S
C246 C245 1.389 . S
C246 C247 1.387 . S
C247 C246 1.387 . S
C247 C248 1.372 . S
C248 H226 0.950 . S
C248 C247 1.372 . S
C248 C249 1.379 . S
C249 H227 0.948 . S
C249 C244 1.364 . S
C249 C248 1.379 . S
C250 C219 1.383 . S
C250 C237 1.479 . S
C250 C251 1.398 . S
C251 C216 1.382 . S
C251 H228 0.951 . S
C251 C250 1.398 . S
C252 C253 1.384 . S
C252 H265 0.947 . S
C252 C287 1.382 . S
C253 C252 1.384 . S
C253 C254 1.378 . S
C254 C253 1.378 . S
C254 C255 1.378 . S
C254 H266 0.952 . S
C255 C254 1.378 . S
C255 H267 0.950 . S
C255 C286 1.383 . S
H256 C275 0.947 . S
H257 C276 0.946 . S
H258 C278 0.953 . S
H259 C279 0.945 . S
H260 C281 0.952 . S
H261 C282 0.949 . S
H262 C284 0.950 . S
H263 C285 0.948 . S
H264 C287 0.951 . S
H265 C252 0.947 . S
H266 C254 0.952 . S
H267 C255 0.950 . S
N268 C271 1.382 . S
N268 C273 1.363 . S
N269 C271 1.371 . S
N269 C272 1.372 . S
N270 C272 1.361 . S
N270 C273 1.377 . S
C271 N268 1.382 . S
C271 N269 1.371 . S
C271 C274 1.480 . S
C272 N269 1.372 . S
C272 N270 1.361 . S
C272 C280 1.457 . S
C273 N268 1.363 . S
C273 N270 1.377 . S
C273 C286 1.479 . S
C274 C271 1.480 . S
C274 C275 1.383 . S
C274 C279 1.385 . S
C275 H256 0.947 . S
C275 C274 1.383 . S
C275 C276 1.388 . S
C276 H257 0.946 . S
C276 C275 1.388 . S
C276 C277 1.384 . S
C277 C276 1.384 . S
C277 C278 1.377 . S
C278 H258 0.953 . S
C278 C277 1.377 . S
C278 C279 1.369 . S
C279 H259 0.945 . S
C279 C274 1.385 . S
C279 C278 1.369 . S
C280 C272 1.457 . S
C280 C281 1.372 . S
C280 C285 1.364 . S
C281 H260 0.952 . S
C281 C280 1.372 . S
C281 C282 1.389 . S
C282 H261 0.949 . S
C282 C281 1.389 . S
C282 C283 1.387 . S
C283 C282 1.387 . S
C283 C284 1.372 . S
C284 H262 0.950 . S
C284 C283 1.372 . S
C284 C285 1.379 . S
C285 H263 0.948 . S
C285 C280 1.364 . S
C285 C284 1.379 . S
C286 C255 1.383 . S
C286 C273 1.479 . S
C286 C287 1.398 . S
C287 C252 1.382 . S
C287 H264 0.951 . S
C287 C286 1.398 . S
Tb288 O291 2.453 1_665 S
Tb288 O292 2.596 1_665 S
Tb288 O293 2.374 1_655 S
Tb288 O301 2.343 . S
Tb288 O303 2.353 1_565 S
Tb288 O305 2.427 . S
Tb288 O306 2.513 . S
C289 O293 1.251 . S
C289 O295 1.263 . S
Tb290 O292 2.343 . S
Tb290 O295 2.353 1_545 S
Tb290 O298 2.427 . S
Tb290 O299 2.513 . S
Tb290 O300 2.453 1_545 S
Tb290 O301 2.596 1_445 S
Tb290 O302 2.374 1_455 S
O291 Tb288 2.453 1_445 S
O291 C307 1.245 . S
O292 Tb288 2.596 1_445 S
O292 Tb290 2.343 . S
O292 C307 1.259 . S
O293 Tb288 2.374 1_455 S
O293 C289 1.251 . S
C294 O298 1.275 . S
C294 O299 1.246 . S
O295 C289 1.263 . S
O295 Tb290 2.353 1_565 S
C296 O300 1.245 1_655 S
C296 O301 1.259 . S
C297 O302 1.250 . S
C297 O303 1.263 . S
O298 Tb290 2.427 . S
O298 C294 1.275 . S
O299 Tb290 2.513 . S
O299 C294 1.246 . S
O300 Tb290 2.453 1_565 S
O300 C296 1.245 1_455 S
O301 Tb288 2.343 . S
O301 Tb290 2.596 1_665 S
O301 C296 1.259 . S
O302 Tb290 2.374 1_655 S
O302 C297 1.250 . S
O303 Tb288 2.353 1_545 S
O303 C297 1.263 . S
C304 O305 1.275 . S
C304 O306 1.246 . S
O305 Tb288 2.427 . S
O305 C304 1.275 . S
O306 Tb288 2.513 . S
O306 C304 1.246 . S
C307 O291 1.245 . S
C307 O292 1.259 . S
Tb308 O311 2.453 . S
Tb308 O312 2.596 1_545 S
Tb308 O313 2.374 . S
Tb308 O321 2.343 . S
Tb308 O323 2.353 . S
Tb308 O325 2.427 . S
Tb308 O326 2.513 . S
C309 O313 1.251 . S
C309 O315 1.263 1_545 S
Tb310 O312 2.343 . S
Tb310 O315 2.353 . S
Tb310 O318 2.427 . S
Tb310 O319 2.513 . S
Tb310 O320 2.453 . S
Tb310 O321 2.596 1_565 S
Tb310 O322 2.374 . S
O311 Tb308 2.453 . S
O311 C327 1.245 . S
O312 Tb308 2.596 1_565 S
O312 Tb310 2.343 . S
O312 C327 1.259 1_565 S
O313 Tb308 2.374 . S
O313 C309 1.251 . S
C314 O318 1.275 . S
C314 O319 1.246 . S
O315 C309 1.263 1_565 S
O315 Tb310 2.353 . S
C316 O320 1.245 . S
C316 O321 1.259 1_565 S
C317 O322 1.250 1_545 S
C317 O323 1.263 . S
O318 Tb310 2.427 . S
O318 C314 1.275 . S
O319 Tb310 2.513 . S
O319 C314 1.246 . S
O320 Tb310 2.453 . S
O320 C316 1.245 . S
O321 Tb308 2.343 . S
O321 Tb310 2.596 1_545 S
O321 C316 1.259 1_545 S
O322 Tb310 2.374 . S
O322 C317 1.250 1_565 S
O323 Tb308 2.353 . S
O323 C317 1.263 . S
C324 O325 1.275 . S
C324 O326 1.246 . S
O325 Tb308 2.427 . S
O325 C324 1.275 . S
O326 Tb308 2.513 . S
O326 C324 1.246 . S
C327 O311 1.245 . S
C327 O312 1.259 1_545 S
Tb328 O331 2.453 . S
Tb328 O332 2.596 . S
Tb328 O333 2.374 . S
Tb328 O341 2.343 . S
Tb328 O343 2.353 . S
Tb328 O345 2.427 . S
Tb328 O346 2.513 . S
C329 O333 1.251 . S
C329 O335 1.263 . S
Tb330 O332 2.343 . S
Tb330 O335 2.353 . S
Tb330 O338 2.427 . S
Tb330 O339 2.513 . S
Tb330 O340 2.453 . S
Tb330 O341 2.596 . S
Tb330 O342 2.374 . S
O331 Tb328 2.453 . S
O331 C347 1.245 . S
O332 Tb328 2.596 . S
O332 Tb330 2.343 . S
O332 C347 1.259 . S
O333 Tb328 2.374 . S
O333 C329 1.251 . S
C334 O338 1.275 . S
C334 O339 1.246 . S
O335 C329 1.263 . S
O335 Tb330 2.353 . S
C336 O340 1.245 . S
C336 O341 1.259 . S
C337 O342 1.250 . S
C337 O343 1.263 . S
O338 Tb330 2.427 . S
O338 C334 1.275 . S
O339 Tb330 2.513 . S
O339 C334 1.246 . S
O340 Tb330 2.453 . S
O340 C336 1.245 . S
O341 Tb328 2.343 . S
O341 Tb330 2.596 . S
O341 C336 1.259 . S
O342 Tb330 2.374 . S
O342 C337 1.250 . S
O343 Tb328 2.353 . S
O343 C337 1.263 . S
C344 O345 1.275 . S
C344 O346 1.246 . S
O345 Tb328 2.427 . S
O345 C344 1.275 . S
O346 Tb328 2.513 . S
O346 C344 1.246 . S
C347 O331 1.245 . S
C347 O332 1.259 . S
Tb348 O351 2.453 1_655 S
Tb348 O352 2.596 1_655 S
Tb348 O353 2.374 1_655 S
Tb348 O361 2.343 . S
Tb348 O363 2.353 . S
Tb348 O365 2.427 . S
Tb348 O366 2.513 . S
C349 O353 1.251 . S
C349 O355 1.263 . S
Tb350 O352 2.343 . S
Tb350 O355 2.353 . S
Tb350 O358 2.427 . S
Tb350 O359 2.513 . S
Tb350 O360 2.453 1_455 S
Tb350 O361 2.596 1_455 S
Tb350 O362 2.374 . S
O351 Tb348 2.453 1_455 S
O351 C367 1.245 . S
O352 Tb348 2.596 1_455 S
O352 Tb350 2.343 . S
O352 C367 1.259 . S
O353 Tb348 2.374 1_455 S
O353 C349 1.251 . S
C354 O358 1.275 . S
C354 O359 1.246 . S
O355 C349 1.263 . S
O355 Tb350 2.353 . S
C356 O360 1.245 . S
C356 O361 1.259 . S
C357 O362 1.250 1_655 S
C357 O363 1.263 . S
O358 Tb350 2.427 . S
O358 C354 1.275 . S
O359 Tb350 2.513 . S
O359 C354 1.246 . S
O360 Tb350 2.453 1_655 S
O360 C356 1.245 . S
O361 Tb348 2.343 . S
O361 Tb350 2.596 1_655 S
O361 C356 1.259 . S
O362 Tb350 2.374 . S
O362 C357 1.250 1_455 S
O363 Tb348 2.353 . S
O363 C357 1.263 . S
C364 O365 1.275 . S
C364 O366 1.246 . S
O365 Tb348 2.427 . S
O365 C364 1.275 . S
O366 Tb348 2.513 . S
O366 C364 1.246 . S
C367 O351 1.245 . S
C367 O352 1.259 . S
C368 C369 1.349 1_565 S
C368 C370 1.327 . S
C368 H393 0.950 . S
C369 C368 1.349 1_545 S
C369 C385 1.349 . S
C370 C368 1.327 . S
C370 C389 1.429 1_565 S
C370 H394 0.950 . S
C371 C388 1.574 . S
C371 C390 1.368 . S
C371 H395 0.949 . S
H372 C376 0.949 . S
C373 C374 1.349 1_545 S
C373 C375 1.327 . S
C373 H396 0.950 . S
C374 C373 1.349 1_565 S
C374 C386 1.349 . S
C375 C373 1.327 . S
C375 C391 1.427 1_545 S
C375 H397 0.950 . S
C376 H372 0.949 . S
C376 C384 1.574 . S
C376 C392 1.343 1_565 S
H377 C385 0.950 . S
H378 C383 0.950 . S
H379 C384 0.949 . S
H380 C386 0.950 . S
H381 C387 0.950 . S
H382 C388 0.949 . S
C383 H378 0.950 . S
C383 C385 1.327 . S
C383 C389 1.429 . S
C384 C376 1.574 . S
C384 H379 0.949 . S
C384 C390 1.368 1_565 S
C385 C369 1.349 . S
C385 H377 0.950 . S
C385 C383 1.327 . S
C386 C374 1.349 . S
C386 H380 0.950 . S
C386 C387 1.327 . S
C387 H381 0.950 . S
C387 C386 1.327 . S
C387 C391 1.430 . S
C388 C371 1.574 . S
C388 H382 0.949 . S
C388 C392 1.393 . S
C389 C370 1.429 1_545 S
C389 C383 1.429 . S
C389 C390 1.523 . S
C390 C371 1.368 . S
C390 C384 1.368 1_545 S
C390 C389 1.523 . S
C391 C375 1.427 1_565 S
C391 C387 1.430 . S
C391 C392 1.524 1_565 S
C392 C376 1.343 1_545 S
C392 C388 1.393 . S
C392 C391 1.524 1_545 S
H393 C368 0.950 . S
H394 C370 0.950 . S
H395 C371 0.949 . S
H396 C373 0.950 . S
H397 C375 0.950 . S
C398 C399 1.349 . S
C398 C400 1.327 . S
C398 H423 0.950 . S
C399 C398 1.349 . S
C399 C415 1.349 . S
C400 C398 1.327 . S
C400 C419 1.429 . S
C400 H424 0.950 . S
C401 C418 1.574 . S
C401 C420 1.368 . S
C401 H425 0.949 . S
H402 C406 0.949 . S
C403 C404 1.349 . S
C403 C405 1.327 . S
C403 H426 0.950 . S
C404 C403 1.349 . S
C404 C416 1.349 . S
C405 C403 1.327 . S
C405 C421 1.429 . S
C405 H427 0.950 . S
C406 H402 0.949 . S
C406 C414 1.574 . S
C406 C422 1.368 . S
H407 C415 0.950 . S
H408 C413 0.950 . S
H409 C414 0.949 . S
H410 C416 0.950 . S
H411 C417 0.950 . S
H412 C418 0.949 . S
C413 H408 0.950 . S
C413 C415 1.327 . S
C413 C419 1.429 . S
C414 C406 1.574 . S
C414 H409 0.949 . S
C414 C420 1.368 . S
C415 C399 1.349 . S
C415 H407 0.950 . S
C415 C413 1.327 . S
C416 C404 1.349 . S
C416 H410 0.950 . S
C416 C417 1.327 . S
C417 H411 0.950 . S
C417 C416 1.327 . S
C417 C421 1.429 . S
C418 C401 1.574 . S
C418 H412 0.949 . S
C418 C422 1.368 . S
C419 C400 1.429 . S
C419 C413 1.429 . S
C419 C420 1.523 . S
C420 C401 1.368 . S
C420 C414 1.368 . S
C420 C419 1.523 . S
C421 C405 1.429 . S
C421 C417 1.429 . S
C421 C422 1.523 . S
C422 C406 1.368 . S
C422 C418 1.368 . S
C422 C421 1.523 . S
H423 C398 0.950 . S
H424 C400 0.950 . S
H425 C401 0.949 . S
H426 C403 0.950 . S
H427 C405 0.950 . S
C428 C429 1.349 . S
C428 C430 1.327 . S
C428 H453 0.950 . S
C429 C428 1.349 . S
C429 C445 1.349 . S
C430 C428 1.327 . S
C430 C449 1.429 . S
C430 H454 0.950 . S
C431 C448 1.574 . S
C431 C450 1.368 . S
C431 H455 0.949 . S
H432 C436 0.949 . S
C433 C434 1.349 . S
C433 C435 1.327 . S
C433 H456 0.950 . S
C434 C433 1.349 . S
C434 C446 1.349 . S
C435 C433 1.327 . S
C435 C451 1.429 . S
C435 H457 0.950 . S
C436 H432 0.949 . S
C436 C444 1.574 . S
C436 C452 1.368 . S
H437 C445 0.950 . S
H438 C443 0.950 . S
H439 C444 0.949 . S
H440 C446 0.950 . S
H441 C447 0.950 . S
H442 C448 0.949 . S
C443 H438 0.950 . S
C443 C445 1.327 . S
C443 C449 1.429 . S
C444 C436 1.574 . S
C444 H439 0.949 . S
C444 C450 1.368 . S
C445 C429 1.349 . S
C445 H437 0.950 . S
C445 C443 1.327 . S
C446 C434 1.349 . S
C446 H440 0.950 . S
C446 C447 1.327 . S
C447 H441 0.950 . S
C447 C446 1.327 . S
C447 C451 1.429 . S
C448 C431 1.574 . S
C448 H442 0.949 . S
C448 C452 1.368 . S
C449 C430 1.429 . S
C449 C443 1.429 . S
C449 C450 1.523 . S
C450 C431 1.368 . S
C450 C444 1.368 . S
C450 C449 1.523 . S
C451 C435 1.429 . S
C451 C447 1.429 . S
C451 C452 1.523 . S
C452 C436 1.368 . S
C452 C448 1.368 . S
C452 C451 1.523 . S
H453 C428 0.950 . S
H454 C430 0.950 . S
H455 C431 0.949 . S
H456 C433 0.950 . S
H457 C435 0.950 . S
C458 C459 1.349 . S
C458 C460 1.327 . S
C458 H483 0.950 . S
C459 C458 1.349 . S
C459 C475 1.349 . S
C460 C458 1.327 . S
C460 C479 1.429 . S
C460 H484 0.950 . S
C461 C478 1.574 . S
C461 C480 1.368 . S
C461 H485 0.949 . S
H462 C466 0.949 . S
C463 C464 1.349 . S
C463 C465 1.327 . S
C463 H486 0.950 . S
C464 C463 1.349 . S
C464 C476 1.349 . S
C465 C463 1.327 . S
C465 C481 1.429 . S
C465 H487 0.950 . S
C466 H462 0.949 . S
C466 C474 1.574 . S
C466 C482 1.368 . S
H467 C475 0.950 . S
H468 C473 0.950 . S
H469 C474 0.949 . S
H470 C476 0.950 . S
H471 C477 0.950 . S
H472 C478 0.949 . S
C473 H468 0.950 . S
C473 C475 1.327 . S
C473 C479 1.429 . S
C474 C466 1.574 . S
C474 H469 0.949 . S
C474 C480 1.368 . S
C475 C459 1.349 . S
C475 H467 0.950 . S
C475 C473 1.327 . S
C476 C464 1.349 . S
C476 H470 0.950 . S
C476 C477 1.327 . S
C477 H471 0.950 . S
C477 C476 1.327 . S
C477 C481 1.429 . S
C478 C461 1.574 . S
C478 H472 0.949 . S
C478 C482 1.368 . S
C479 C460 1.429 . S
C479 C473 1.429 . S
C479 C480 1.523 . S
C480 C461 1.368 . S
C480 C474 1.368 . S
C480 C479 1.523 . S
C481 C465 1.429 . S
C481 C477 1.429 . S
C481 C482 1.523 . S
C482 C466 1.368 . S
C482 C478 1.368 . S
C482 C481 1.523 . S
H483 C458 0.950 . S
H484 C460 0.950 . S
H485 C461 0.949 . S
H486 C463 0.950 . S
H487 C465 0.950 . S
C488 C489 1.338 1_566 S
C488 C490 1.327 . S
C488 H513 0.950 . S
C489 C488 1.338 1_544 S
C489 C505 1.360 . S
C490 C488 1.327 . S
C490 C509 1.429 1_565 S
C490 H514 0.950 . S
C491 C508 1.574 . S
C491 C510 1.368 . S
C491 H515 0.949 . S
H492 C496 0.949 . S
C493 C494 1.349 . S
C493 C495 1.327 . S
C493 H516 0.950 . S
C494 C493 1.349 . S
C494 C506 1.349 1_545 S
C495 C493 1.327 . S
C495 C511 1.429 . S
C495 H517 0.950 . S
C496 H492 0.949 . S
C496 C504 1.574 . S
C496 C512 1.368 1_565 S
H497 C505 0.950 . S
H498 C503 0.949 1_554 S
H499 C504 0.949 . S
H500 C506 0.950 . S
H501 C507 0.950 . S
H502 C508 0.949 . S
C503 H498 0.949 1_556 S
C503 C505 1.327 1_556 S
C503 C509 1.429 . S
C504 C496 1.574 . S
C504 H499 0.949 . S
C504 C510 1.368 1_565 S
C505 C489 1.360 . S
C505 H497 0.950 . S
C505 C503 1.327 1_554 S
C506 C494 1.349 1_565 S
C506 H500 0.950 . S
C506 C507 1.327 . S
C507 H501 0.950 . S
C507 C506 1.327 . S
C507 C511 1.429 1_565 S
C508 C491 1.574 . S
C508 H502 0.949 . S
C508 C512 1.368 . S
C509 C490 1.429 1_545 S
C509 C503 1.429 . S
C509 C510 1.523 . S
C510 C491 1.368 . S
C510 C504 1.368 1_545 S
C510 C509 1.523 . S
C511 C495 1.429 . S
C511 C507 1.429 1_545 S
C511 C512 1.523 . S
C512 C496 1.368 1_545 S
C512 C508 1.368 . S
C512 C511 1.523 . S
H513 C488 0.950 . S
H514 C490 0.950 . S
H515 C491 0.949 . S
H516 C493 0.950 . S
H517 C495 0.950 . S
C518 C519 1.349 1_556 S
C518 C520 1.327 . S
C518 H543 0.950 . S
C519 C518 1.349 1_554 S
C519 C535 1.349 . S
C520 C518 1.327 . S
C520 C539 1.429 . S
C520 H544 0.950 . S
C521 C538 1.574 . S
C521 C540 1.368 . S
C521 H545 0.949 . S
H522 C526 0.949 . S
C523 C524 1.349 . S
C523 C525 1.327 . S
C523 H546 0.950 . S
C524 C523 1.349 . S
C524 C536 1.349 . S
C525 C523 1.327 . S
C525 C541 1.429 . S
C525 H547 0.950 . S
C526 H522 0.949 . S
C526 C534 1.574 . S
C526 C542 1.368 . S
H527 C535 0.950 . S
H528 C533 0.950 . S
H529 C534 0.949 . S
H530 C536 0.950 . S
H531 C537 0.950 . S
H532 C538 0.949 . S
C533 H528 0.950 . S
C533 C535 1.327 . S
C533 C539 1.429 1_554 S
C534 C526 1.574 . S
C534 H529 0.949 . S
C534 C540 1.368 . S
C535 C519 1.349 . S
C535 H527 0.950 . S
C535 C533 1.327 . S
C536 C524 1.349 . S
C536 H530 0.950 . S
C536 C537 1.327 . S
C537 H531 0.950 . S
C537 C536 1.327 . S
C537 C541 1.429 . S
C538 C521 1.574 . S
C538 H532 0.949 . S
C538 C542 1.368 . S
C539 C520 1.429 . S
C539 C533 1.429 1_556 S
C539 C540 1.523 . S
C540 C521 1.368 . S
C540 C534 1.368 . S
C540 C539 1.523 . S
C541 C525 1.429 . S
C541 C537 1.429 . S
C541 C542 1.523 . S
C542 C526 1.368 . S
C542 C538 1.368 . S
C542 C541 1.523 . S
H543 C518 0.950 . S
H544 C520 0.950 . S
H545 C521 0.949 . S
H546 C523 0.950 . S
H547 C525 0.950 . S
C548 C549 1.349 . S
C548 C550 1.327 . S
C548 H573 0.950 . S
C549 C548 1.349 . S
C549 C565 1.349 . S
C550 C548 1.327 . S
C550 C569 1.429 . S
C550 H574 0.950 . S
C551 C568 1.574 . S
C551 C570 1.368 . S
C551 H575 0.949 . S
H552 C556 0.949 . S
C553 C554 1.349 . S
C553 C555 1.327 . S
C553 H576 0.950 . S
C554 C553 1.349 . S
C554 C566 1.349 . S
C555 C553 1.327 . S
C555 C571 1.429 . S
C555 H577 0.950 . S
C556 H552 0.949 . S
C556 C564 1.574 . S
C556 C572 1.368 . S
H557 C565 0.950 . S
H558 C563 0.950 . S
H559 C564 0.949 . S
H560 C566 0.950 . S
H561 C567 0.950 . S
H562 C568 0.949 . S
C563 H558 0.950 . S
C563 C565 1.327 . S
C563 C569 1.429 . S
C564 C556 1.574 . S
C564 H559 0.949 . S
C564 C570 1.368 . S
C565 C549 1.349 . S
C565 H557 0.950 . S
C565 C563 1.327 . S
C566 C554 1.349 . S
C566 H560 0.950 . S
C566 C567 1.327 . S
C567 H561 0.950 . S
C567 C566 1.327 . S
C567 C571 1.429 . S
C568 C551 1.574 . S
C568 H562 0.949 . S
C568 C572 1.368 . S
C569 C550 1.429 . S
C569 C563 1.429 . S
C569 C570 1.523 . S
C570 C551 1.368 . S
C570 C564 1.368 . S
C570 C569 1.523 . S
C571 C555 1.429 . S
C571 C567 1.429 . S
C571 C572 1.523 . S
C572 C556 1.368 . S
C572 C568 1.368 . S
C572 C571 1.523 . S
H573 C548 0.950 . S
H574 C550 0.950 . S
H575 C551 0.949 . S
H576 C553 0.950 . S
H577 C555 0.950 . S
C578 C579 1.349 . S
C578 C580 1.327 . S
C578 H603 0.950 1_556 S
C579 C578 1.349 . S
C579 C595 1.349 . S
C580 C578 1.327 . S
C580 C599 1.429 . S
C580 H604 0.950 . S
C581 C598 1.574 . S
C581 C600 1.368 . S
C581 H605 0.949 . S
H582 C586 0.949 . S
C583 C584 1.349 . S
C583 C585 1.327 . S
C583 H606 0.950 . S
C584 C583 1.349 . S
C584 C596 1.349 . S
C585 C583 1.327 . S
C585 C601 1.429 . S
C585 H607 0.950 . S
C586 H582 0.949 . S
C586 C594 1.574 . S
C586 C602 1.368 . S
H587 C595 0.950 . S
H588 C593 0.950 . S
H589 C594 0.949 . S
H590 C596 0.950 . S
H591 C597 0.950 . S
H592 C598 0.949 . S
C593 H588 0.950 . S
C593 C595 1.327 . S
C593 C599 1.429 . S
C594 C586 1.574 . S
C594 H589 0.949 . S
C594 C600 1.368 . S
C595 C579 1.349 . S
C595 H587 0.950 . S
C595 C593 1.327 . S
C596 C584 1.349 . S
C596 H590 0.950 . S
C596 C597 1.327 . S
C597 H591 0.950 . S
C597 C596 1.327 . S
C597 C601 1.429 . S
C598 C581 1.574 . S
C598 H592 0.949 . S
C598 C602 1.368 . S
C599 C580 1.429 . S
C599 C593 1.429 . S
C599 C600 1.523 . S
C600 C581 1.368 . S
C600 C594 1.368 . S
C600 C599 1.523 . S
C601 C585 1.429 . S
C601 C597 1.429 . S
C601 C602 1.523 . S
C602 C586 1.368 . S
C602 C598 1.368 . S
C602 C601 1.523 . S
H603 C578 0.950 1_554 S
H604 C580 0.950 . S
H605 C581 0.949 . S
H606 C583 0.950 . S
H607 C585 0.950 . S
C608 C609 1.349 . S
C608 C610 1.327 . S
C608 H633 0.950 . S
C609 C608 1.349 . S
C609 C625 1.349 . S
C610 C608 1.327 . S
C610 C629 1.429 . S
C610 H634 0.950 . S
C611 C628 1.574 . S
C611 C630 1.368 . S
C611 H635 0.949 . S
H612 C616 0.949 . S
C613 C614 1.349 . S
C613 C615 1.327 . S
C613 H636 0.950 . S
C614 C613 1.349 . S
C614 C626 1.349 . S
C615 C613 1.327 . S
C615 C631 1.429 . S
C615 H637 0.950 . S
C616 H612 0.949 . S
C616 C624 1.574 . S
C616 C632 1.368 . S
H617 C625 0.950 . S
H618 C623 0.950 . S
H619 C624 0.949 . S
H620 C626 0.950 . S
H621 C627 0.950 . S
H622 C628 0.949 . S
C623 H618 0.950 . S
C623 C625 1.327 . S
C623 C629 1.429 . S
C624 C616 1.574 . S
C624 H619 0.949 . S
C624 C630 1.368 . S
C625 C609 1.349 . S
C625 H617 0.950 . S
C625 C623 1.327 . S
C626 C614 1.349 . S
C626 H620 0.950 . S
C626 C627 1.327 . S
C627 H621 0.950 . S
C627 C626 1.327 . S
C627 C631 1.429 . S
C628 C611 1.574 . S
C628 H622 0.949 . S
C628 C632 1.368 . S
C629 C610 1.429 . S
C629 C623 1.429 . S
C629 C630 1.523 . S
C630 C611 1.368 . S
C630 C624 1.368 . S
C630 C629 1.523 . S
C631 C615 1.429 . S
C631 C627 1.429 . S
C631 C632 1.523 . S
C632 C616 1.368 . S
C632 C628 1.368 . S
C632 C631 1.523 . S
H633 C608 0.950 . S
H634 C610 0.950 . S
H635 C611 0.949 . S
H636 C613 0.950 . S
H637 C615 0.950 . S
C638 C639 1.349 . S
C638 C640 1.327 . S
C638 H663 0.950 . S
C639 C638 1.349 . S
C639 C655 1.349 1_545 S
C640 C638 1.327 . S
C640 C659 1.429 . S
C640 H664 0.950 . S
C641 C658 1.574 . S
C641 C660 1.368 1_565 S
C641 H665 0.949 . S
H642 C646 0.949 . S
C643 C644 1.347 . S
C643 C645 1.327 . S
C643 H666 0.950 . S
C644 C643 1.347 . S
C644 C656 1.351 1_565 S
C645 C643 1.327 . S
C645 C661 1.375 1_565 S
C645 H667 0.950 . S
C646 H642 0.949 . S
C646 C654 1.574 . S
C646 C662 1.368 . S
H647 C655 0.950 . S
H648 C653 0.950 . S
H649 C654 0.949 . S
H650 C656 0.950 . S
H651 C657 0.950 . S
H652 C658 0.949 . S
C653 H648 0.950 . S
C653 C655 1.327 . S
C653 C659 1.429 1_565 S
C654 C646 1.574 . S
C654 H649 0.949 . S
C654 C660 1.368 . S
C655 C639 1.349 1_565 S
C655 H647 0.950 . S
C655 C653 1.327 . S
C656 C644 1.351 1_545 S
C656 H650 0.950 . S
C656 C657 1.327 . S
C657 H651 0.950 . S
C657 C656 1.327 . S
C657 C661 1.474 . S
C658 C641 1.574 . S
C658 H652 0.949 . S
C658 C662 1.368 1_565 S
C659 C640 1.429 . S
C659 C653 1.429 1_545 S
C659 C660 1.523 . S
C660 C641 1.368 1_545 S
C660 C654 1.368 . S
C660 C659 1.523 . S
C661 C645 1.375 1_545 S
C661 C657 1.474 . S
C661 C662 1.532 . S
C662 C646 1.368 . S
C662 C658 1.368 1_545 S
C662 C661 1.532 . S
H663 C638 0.950 . S
H664 C640 0.950 . S
H665 C641 0.949 . S
H666 C643 0.950 . S
H667 C645 0.950 . S
C668 C669 1.349 . S
C668 C670 1.327 . S
C668 H693 0.950 . S
C669 C668 1.349 . S
C669 C685 1.349 . S
C670 C668 1.327 . S
C670 C689 1.429 . S
C670 H694 0.950 . S
C671 C688 1.574 . S
C671 C690 1.368 . S
C671 H695 0.949 . S
H672 C676 0.949 . S
C673 C674 1.349 . S
C673 C675 1.327 . S
C673 H696 0.950 . S
C674 C673 1.349 . S
C674 C686 1.349 . S
C675 C673 1.327 . S
C675 C691 1.429 . S
C675 H697 0.950 . S
C676 H672 0.949 . S
C676 C684 1.574 . S
C676 C692 1.368 . S
H677 C685 0.950 . S
H678 C683 0.950 . S
H679 C684 0.949 . S
H680 C686 0.950 . S
H681 C687 0.950 . S
H682 C688 0.949 . S
C683 H678 0.950 . S
C683 C685 1.327 . S
C683 C689 1.429 . S
C684 C676 1.574 . S
C684 H679 0.949 . S
C684 C690 1.368 . S
C685 C669 1.349 . S
C685 H677 0.950 . S
C685 C683 1.327 . S
C686 C674 1.349 . S
C686 H680 0.950 . S
C686 C687 1.327 . S
C687 H681 0.950 . S
C687 C686 1.327 . S
C687 C691 1.429 . S
C688 C671 1.574 . S
C688 H682 0.949 . S
C688 C692 1.368 . S
C689 C670 1.429 . S
C689 C683 1.429 . S
C689 C690 1.523 . S
C690 C671 1.368 . S
C690 C684 1.368 . S
C690 C689 1.523 . S
C691 C675 1.429 . S
C691 C687 1.429 . S
C691 C692 1.523 . S
C692 C676 1.368 . S
C692 C688 1.368 . S
C692 C691 1.523 . S
H693 C668 0.950 . S
H694 C670 0.950 . S
H695 C671 0.949 . S
H696 C673 0.950 . S
H697 C675 0.950 . S
C698 C699 1.349 . S
C698 C700 1.327 . S
C698 H723 0.950 . S
C699 C698 1.349 . S
C699 C715 1.349 . S
C700 C698 1.327 . S
C700 C719 1.429 . S
C700 H724 0.950 . S
C701 C718 1.574 . S
C701 C720 1.368 . S
C701 H725 0.949 . S
H702 C706 0.949 . S
C703 C704 1.349 . S
C703 C705 1.327 . S
C703 H726 0.950 . S
C704 C703 1.349 . S
C704 C716 1.349 . S
C705 C703 1.327 . S
C705 C721 1.429 . S
C705 H727 0.950 . S
C706 H702 0.949 . S
C706 C714 1.574 . S
C706 C722 1.368 . S
H707 C715 0.950 . S
H708 C713 0.950 . S
H709 C714 0.949 . S
H710 C716 0.950 . S
H711 C717 0.950 . S
H712 C718 0.949 . S
C713 H708 0.950 . S
C713 C715 1.327 . S
C713 C719 1.429 . S
C714 C706 1.574 . S
C714 H709 0.949 . S
C714 C720 1.368 . S
C715 C699 1.349 . S
C715 H707 0.950 . S
C715 C713 1.327 . S
C716 C704 1.349 . S
C716 H710 0.950 . S
C716 C717 1.327 . S
C717 H711 0.950 . S
C717 C716 1.327 . S
C717 C721 1.429 . S
C718 C701 1.574 . S
C718 H712 0.949 . S
C718 C722 1.368 . S
C719 C700 1.429 . S
C719 C713 1.429 . S
C719 C720 1.523 . S
C720 C701 1.368 . S
C720 C714 1.368 . S
C720 C719 1.523 . S
C721 C705 1.429 . S
C721 C717 1.429 . S
C721 C722 1.523 . S
C722 C706 1.368 . S
C722 C718 1.368 . S
C722 C721 1.523 . S
H723 C698 0.950 . S
H724 C700 0.950 . S
H725 C701 0.949 . S
H726 C703 0.950 . S
H727 C705 0.950 . S
C728 C729 1.349 . S
C728 C730 1.327 . S
C728 H753 0.950 . S
C729 C728 1.349 . S
C729 C745 1.349 . S
C730 C728 1.327 . S
C730 C749 1.429 . S
C730 H754 0.950 . S
C731 C748 1.574 . S
C731 C750 1.368 . S
C731 H755 0.949 . S
H732 C736 0.949 . S
C733 C734 1.349 . S
C733 C735 1.327 . S
C733 H756 0.950 1_655 S
C734 C733 1.349 . S
C734 C746 1.349 . S
C735 C733 1.327 . S
C735 C751 1.429 . S
C735 H757 0.950 . S
C736 H732 0.949 . S
C736 C744 1.574 . S
C736 C752 1.368 . S
H737 C745 0.950 . S
H738 C743 0.950 . S
H739 C744 0.949 . S
H740 C746 0.950 . S
H741 C747 0.950 . S
H742 C748 0.949 . S
C743 H738 0.950 . S
C743 C745 1.327 . S
C743 C749 1.429 . S
C744 C736 1.574 . S
C744 H739 0.949 . S
C744 C750 1.368 . S
C745 C729 1.349 . S
C745 H737 0.950 . S
C745 C743 1.327 . S
C746 C734 1.349 . S
C746 H740 0.950 . S
C746 C747 1.327 . S
C747 H741 0.950 . S
C747 C746 1.327 . S
C747 C751 1.429 . S
C748 C731 1.574 . S
C748 H742 0.949 . S
C748 C752 1.368 . S
C749 C730 1.429 . S
C749 C743 1.429 . S
C749 C750 1.523 . S
C750 C731 1.368 . S
C750 C744 1.368 . S
C750 C749 1.523 . S
C751 C735 1.429 . S
C751 C747 1.429 . S
C751 C752 1.523 . S
C752 C736 1.368 . S
C752 C748 1.368 . S
C752 C751 1.523 . S
H753 C728 0.950 . S
H754 C730 0.950 . S
H755 C731 0.949 . S
H756 C733 0.950 1_455 S
H757 C735 0.950 . S
C758 C759 1.346 1_545 S
C758 C760 1.327 . S
C758 H783 0.950 . S
C759 C758 1.346 1_565 S
C759 C775 1.351 . S
C760 C758 1.327 . S
C760 C779 1.469 . S
C760 H784 0.950 . S
C761 C778 1.574 . S
C761 C780 1.368 1_565 S
C761 H785 0.949 . S
H762 C766 0.949 . S
C763 C764 1.349 1_565 S
C763 C765 1.327 . S
C763 H786 0.950 . S
C764 C763 1.349 1_545 S
C764 C776 1.349 . S
C765 C763 1.327 . S
C765 C781 1.429 1_565 S
C765 H787 0.950 . S
C766 H762 0.949 . S
C766 C774 1.574 . S
C766 C782 1.368 . S
H767 C775 0.950 . S
H768 C773 0.950 . S
H769 C774 0.949 . S
H770 C776 0.950 . S
H771 C777 0.950 . S
H772 C778 0.949 . S
C773 H768 0.950 . S
C773 C775 1.327 . S
C773 C779 1.381 1_565 S
C774 C766 1.574 . S
C774 H769 0.949 . S
C774 C780 1.368 . S
C775 C759 1.351 . S
C775 H767 0.950 . S
C775 C773 1.327 . S
C776 C764 1.349 . S
C776 H770 0.950 . S
C776 C777 1.327 . S
C777 H771 0.950 . S
C777 C776 1.327 . S
C777 C781 1.429 . S
C778 C761 1.574 . S
C778 H772 0.949 . S
C778 C782 1.368 1_565 S
C779 C760 1.469 . S
C779 C773 1.381 1_545 S
C779 C780 1.531 . S
C780 C761 1.368 1_545 S
C780 C774 1.368 . S
C780 C779 1.531 . S
C781 C765 1.429 1_545 S
C781 C777 1.429 . S
C781 C782 1.523 . S
C782 C766 1.368 . S
C782 C778 1.368 1_545 S
C782 C781 1.523 . S
H783 C758 0.950 . S
H784 C760 0.950 . S
H785 C761 0.949 . S
H786 C763 0.950 . S
H787 C765 0.950 . S
C788 C789 1.349 . S
C788 C790 1.327 . S
C788 H813 0.950 . S
C789 C788 1.349 . S
C789 C805 1.349 . S
C790 C788 1.327 . S
C790 C809 1.429 . S
C790 H814 0.950 . S
C791 C808 1.574 . S
C791 C810 1.368 . S
C791 H815 0.949 . S
H792 C796 0.949 . S
C793 C794 1.349 . S
C793 C795 1.327 . S
C793 H816 0.950 . S
C794 C793 1.349 . S
C794 C806 1.349 . S
C795 C793 1.327 . S
C795 C811 1.429 . S
C795 H817 0.950 . S
C796 H792 0.949 . S
C796 C804 1.574 . S
C796 C812 1.368 . S
H797 C805 0.950 . S
H798 C803 0.950 . S
H799 C804 0.949 . S
H800 C806 0.950 . S
H801 C807 0.950 . S
H802 C808 0.949 . S
C803 H798 0.950 . S
C803 C805 1.327 . S
C803 C809 1.429 . S
C804 C796 1.574 . S
C804 H799 0.949 . S
C804 C810 1.368 . S
C805 C789 1.349 . S
C805 H797 0.950 . S
C805 C803 1.327 . S
C806 C794 1.349 . S
C806 H800 0.950 . S
C806 C807 1.327 . S
C807 H801 0.950 . S
C807 C806 1.327 . S
C807 C811 1.429 . S
C808 C791 1.574 . S
C808 H802 0.949 . S
C808 C812 1.368 . S
C809 C790 1.429 . S
C809 C803 1.429 . S
C809 C810 1.523 . S
C810 C791 1.368 . S
C810 C804 1.368 . S
C810 C809 1.523 . S
C811 C795 1.429 . S
C811 C807 1.429 . S
C811 C812 1.523 . S
C812 C796 1.368 . S
C812 C808 1.368 . S
C812 C811 1.523 . S
H813 C788 0.950 . S
H814 C790 0.950 . S
H815 C791 0.949 . S
H816 C793 0.950 . S
H817 C795 0.950 . S
C818 C819 1.349 . S
C818 C820 1.327 . S
C818 H843 0.950 . S
C819 C818 1.349 . S
C819 C835 1.349 . S
C820 C818 1.327 . S
C820 C839 1.429 . S
C820 H844 0.950 . S
C821 C838 1.574 . S
C821 C840 1.368 . S
C821 H845 0.949 . S
H822 C826 0.949 . S
C823 C824 1.349 . S
C823 C825 1.327 . S
C823 H846 0.950 . S
C824 C823 1.349 . S
C824 C836 1.349 . S
C825 C823 1.327 . S
C825 C841 1.429 . S
C825 H847 0.950 . S
C826 H822 0.949 . S
C826 C834 1.574 . S
C826 C842 1.368 . S
H827 C835 0.950 . S
H828 C833 0.950 . S
H829 C834 0.949 . S
H830 C836 0.950 . S
H831 C837 0.950 . S
H832 C838 0.949 . S
C833 H828 0.950 . S
C833 C835 1.327 . S
C833 C839 1.429 . S
C834 C826 1.574 . S
C834 H829 0.949 . S
C834 C840 1.368 . S
C835 C819 1.349 . S
C835 H827 0.950 . S
C835 C833 1.327 . S
C836 C824 1.349 . S
C836 H830 0.950 . S
C836 C837 1.327 . S
C837 H831 0.950 . S
C837 C836 1.327 . S
C837 C841 1.429 . S
C838 C821 1.574 . S
C838 H832 0.949 . S
C838 C842 1.368 . S
C839 C820 1.429 . S
C839 C833 1.429 . S
C839 C840 1.523 . S
C840 C821 1.368 . S
C840 C834 1.368 . S
C840 C839 1.523 . S
C841 C825 1.429 . S
C841 C837 1.429 . S
C841 C842 1.523 . S
C842 C826 1.368 . S
C842 C838 1.368 . S
C842 C841 1.523 . S
H843 C818 0.950 . S
H844 C820 0.950 . S
H845 C821 0.949 . S
H846 C823 0.950 . S
H847 C825 0.950 . S
C848 C849 1.349 . S
C848 C850 1.327 . S
C848 H873 0.950 . S
C849 C848 1.349 . S
C849 C865 1.349 . S
C850 C848 1.327 . S
C850 C869 1.429 . S
C850 H874 0.950 . S
C851 C868 1.574 . S
C851 C870 1.368 . S
C851 H875 0.949 . S
H852 C856 0.949 . S
C853 C854 1.349 . S
C853 C855 1.327 . S
C853 H876 0.950 . S
C854 C853 1.349 . S
C854 C866 1.349 . S
C855 C853 1.327 . S
C855 C871 1.429 . S
C855 H877 0.950 . S
C856 H852 0.949 . S
C856 C864 1.574 . S
C856 C872 1.368 . S
H857 C865 0.950 . S
H858 C863 0.950 . S
H859 C864 0.949 1_554 S
H860 C866 0.950 . S
H861 C867 0.950 . S
H862 C868 0.949 . S
C863 H858 0.950 . S
C863 C865 1.327 1_556 S
C863 C869 1.429 1_556 S
C864 C856 1.574 . S
C864 H859 0.949 1_556 S
C864 C870 1.368 . S
C865 C849 1.349 . S
C865 H857 0.950 . S
C865 C863 1.327 1_554 S
C866 C854 1.349 . S
C866 H860 0.950 . S
C866 C867 1.327 . S
C867 H861 0.950 . S
C867 C866 1.327 . S
C867 C871 1.429 . S
C868 C851 1.574 . S
C868 H862 0.949 . S
C868 C872 1.368 . S
C869 C850 1.429 . S
C869 C863 1.429 1_554 S
C869 C870 1.523 1_554 S
C870 C851 1.368 . S
C870 C864 1.368 . S
C870 C869 1.523 1_556 S
C871 C855 1.429 . S
C871 C867 1.429 . S
C871 C872 1.523 . S
C872 C856 1.368 . S
C872 C868 1.368 . S
C872 C871 1.523 . S
H873 C848 0.950 . S
H874 C850 0.950 . S
H875 C851 0.949 . S
H876 C853 0.950 . S
H877 C855 0.950 . S
C878 C879 1.349 . S
C878 C880 1.327 1_554 S
C878 H903 0.950 . S
C879 C878 1.349 . S
C879 C895 1.349 1_544 S
C880 C878 1.327 1_556 S
C880 C899 1.429 . S
C880 H904 0.950 . S
C881 C898 1.574 . S
C881 C900 1.368 1_565 S
C881 H905 0.949 . S
H882 C886 0.949 . S
C883 C884 1.349 1_565 S
C883 C885 1.327 . S
C883 H906 0.950 . S
C884 C883 1.349 1_545 S
C884 C896 1.349 . S
C885 C883 1.327 . S
C885 C901 1.429 1_565 S
C885 H907 0.950 . S
C886 H882 0.949 . S
C886 C894 1.574 . S
C886 C902 1.368 . S
H887 C895 0.950 . S
H888 C893 0.950 . S
H889 C894 0.949 . S
H890 C896 0.950 . S
H891 C897 0.950 . S
H892 C898 0.949 . S
C893 H888 0.950 . S
C893 C895 1.327 . S
C893 C899 1.429 1_565 S
C894 C886 1.574 . S
C894 H889 0.949 . S
C894 C900 1.368 . S
C895 C879 1.349 1_566 S
C895 H887 0.950 . S
C895 C893 1.327 . S
C896 C884 1.349 . S
C896 H890 0.950 . S
C896 C897 1.327 . S
C897 H891 0.950 . S
C897 C896 1.327 . S
C897 C901 1.429 . S
C898 C881 1.574 . S
C898 H892 0.949 . S
C898 C902 1.368 1_565 S
C899 C880 1.429 . S
C899 C893 1.429 1_545 S
C899 C900 1.523 . S
C900 C881 1.368 1_545 S
C900 C894 1.368 . S
C900 C899 1.523 . S
C901 C885 1.429 1_545 S
C901 C897 1.429 . S
C901 C902 1.523 . S
C902 C886 1.368 . S
C902 C898 1.368 1_545 S
C902 C901 1.523 . S
H903 C878 0.950 . S
H904 C880 0.950 . S
H905 C881 0.949 . S
H906 C883 0.950 . S
H907 C885 0.950 . S
C908 C909 1.349 . S
C908 C910 1.327 . S
C908 H933 0.950 . S
C909 C908 1.349 . S
C909 C925 1.349 1_554 S
C910 C908 1.327 . S
C910 C929 1.429 1_554 S
C910 H934 0.950 . S
C911 C928 1.574 . S
C911 C930 1.368 . S
C911 H935 0.949 . S
H912 C916 0.949 . S
C913 C914 1.349 . S
C913 C915 1.327 . S
C913 H936 0.950 . S
C914 C913 1.349 . S
C914 C926 1.349 . S
C915 C913 1.327 . S
C915 C931 1.429 . S
C915 H937 0.950 . S
C916 H912 0.949 . S
C916 C924 1.574 . S
C916 C932 1.368 . S
H917 C925 0.950 . S
H918 C923 0.950 . S
H919 C924 0.949 . S
H920 C926 0.950 . S
H921 C927 0.950 . S
H922 C928 0.949 . S
C923 H918 0.950 . S
C923 C925 1.327 . S
C923 C929 1.429 . S
C924 C916 1.574 . S
C924 H919 0.949 . S
C924 C930 1.368 . S
C925 C909 1.349 1_556 S
C925 H917 0.950 . S
C925 C923 1.327 . S
C926 C914 1.349 . S
C926 H920 0.950 . S
C926 C927 1.327 . S
C927 H921 0.950 . S
C927 C926 1.327 . S
C927 C931 1.429 . S
C928 C911 1.574 . S
C928 H922 0.949 . S
C928 C932 1.368 . S
C929 C910 1.429 1_556 S
C929 C923 1.429 . S
C929 C930 1.523 . S
C930 C911 1.368 . S
C930 C924 1.368 . S
C930 C929 1.523 . S
C931 C915 1.429 . S
C931 C927 1.429 . S
C931 C932 1.523 . S
C932 C916 1.368 . S
C932 C928 1.368 . S
C932 C931 1.523 . S
H933 C908 0.950 . S
H934 C910 0.950 . S
H935 C911 0.949 . S
H936 C913 0.950 . S
H937 C915 0.950 . S
C938 C939 1.349 . S
C938 C940 1.327 1_554 S
C938 H963 0.950 . S
C939 C938 1.349 . S
C939 C955 1.349 . S
C940 C938 1.327 1_556 S
C940 C959 1.429 . S
C940 H964 0.950 . S
C941 C958 1.574 . S
C941 C960 1.368 . S
C941 H965 0.949 . S
H942 C946 0.949 . S
C943 C944 1.349 . S
C943 C945 1.327 . S
C943 H966 0.950 . S
C944 C943 1.349 . S
C944 C956 1.349 . S
C945 C943 1.327 . S
C945 C961 1.429 . S
C945 H967 0.950 . S
C946 H942 0.949 . S
C946 C954 1.574 . S
C946 C962 1.368 . S
H947 C955 0.950 . S
H948 C953 0.950 . S
H949 C954 0.949 . S
H950 C956 0.950 . S
H951 C957 0.950 . S
H952 C958 0.949 . S
C953 H948 0.950 . S
C953 C955 1.327 . S
C953 C959 1.429 1_554 S
C954 C946 1.574 . S
C954 H949 0.949 . S
C954 C960 1.368 . S
C955 C939 1.349 . S
C955 H947 0.950 . S
C955 C953 1.327 . S
C956 C944 1.349 . S
C956 H950 0.950 . S
C956 C957 1.327 . S
C957 H951 0.950 . S
C957 C956 1.327 . S
C957 C961 1.429 . S
C958 C941 1.574 . S
C958 H952 0.949 . S
C958 C962 1.368 . S
C959 C940 1.429 . S
C959 C953 1.429 1_556 S
C959 C960 1.523 . S
C960 C941 1.368 . S
C960 C954 1.368 . S
C960 C959 1.523 . S
C961 C945 1.429 . S
C961 C957 1.429 . S
C961 C962 1.523 . S
C962 C946 1.368 . S
C962 C958 1.368 . S
C962 C961 1.523 . S
H963 C938 0.950 . S
H964 C940 0.950 . S
H965 C941 0.949 . S
H966 C943 0.950 . S
H967 C945 0.950 . S
C968 C969 1.349 . S
C968 C970 1.327 . S
C968 H993 0.950 . S
C969 C968 1.349 . S
C969 C985 1.349 . S
C970 C968 1.327 . S
C970 C989 1.429 . S
C970 H994 0.950 . S
C971 C988 1.574 . S
C971 C990 1.368 . S
C971 H995 0.949 . S
H972 C976 0.949 . S
C973 C974 1.349 . S
C973 C975 1.327 . S
C973 H996 0.950 . S
C974 C973 1.349 . S
C974 C986 1.349 . S
C975 C973 1.327 . S
C975 C991 1.429 . S
C975 H997 0.950 . S
C976 H972 0.949 . S
C976 C984 1.574 . S
C976 C992 1.368 . S
H977 C985 0.950 . S
H978 C983 0.950 . S
H979 C984 0.949 . S
H980 C986 0.950 . S
H981 C987 0.950 . S
H982 C988 0.949 . S
C983 H978 0.950 . S
C983 C985 1.327 . S
C983 C989 1.429 . S
C984 C976 1.574 . S
C984 H979 0.949 . S
C984 C990 1.368 . S
C985 C969 1.349 . S
C985 H977 0.950 . S
C985 C983 1.327 . S
C986 C974 1.349 . S
C986 H980 0.950 . S
C986 C987 1.327 . S
C987 H981 0.950 . S
C987 C986 1.327 . S
C987 C991 1.429 . S
C988 C971 1.574 . S
C988 H982 0.949 . S
C988 C992 1.368 . S
C989 C970 1.429 . S
C989 C983 1.429 . S
C989 C990 1.523 . S
C990 C971 1.368 . S
C990 C984 1.368 . S
C990 C989 1.523 . S
C991 C975 1.429 . S
C991 C987 1.429 . S
C991 C992 1.523 . S
C992 C976 1.368 . S
C992 C988 1.368 . S
C992 C991 1.523 . S
H993 C968 0.950 . S
H994 C970 0.950 . S
H995 C971 0.949 . S
H996 C973 0.950 . S
H997 C975 0.950 . S
C998 C999 1.345 . S
C998 C1000 1.327 . S
C998 H1023 0.950 . S
C999 C998 1.345 . S
C999 C1015 1.352 1_545 S
C1000 C998 1.327 . S
C1000 C1019 1.430 . S
C1000 H1024 0.950 . S
C1001 C1018 1.574 . S
C1001 C1020 1.364 1_565 S
C1001 H1025 0.949 . S
H1002 C1006 0.949 . S
C1003 C1004 1.331 1_565 S
C1003 C1005 1.327 . S
C1003 H1026 0.950 . S
C1004 C1003 1.331 1_545 S
C1004 C1016 1.365 . S
C1005 C1003 1.327 . S
C1005 C1021 1.418 1_565 S
C1005 H1027 0.950 . S
C1006 H1002 0.949 . S
C1006 C1014 1.574 . S
C1006 C1022 1.378 . S
H1007 C1015 0.950 . S
H1008 C1013 0.950 . S
H1009 C1014 0.949 . S
H1010 C1016 0.950 . S
H1011 C1017 0.950 . S
H1012 C1018 0.949 . S
C1013 H1008 0.950 . S
C1013 C1015 1.327 . S
C1013 C1019 1.427 1_565 S
C1014 C1006 1.574 . S
C1014 H1009 0.949 . S
C1014 C1020 1.373 . S
C1015 C999 1.352 1_565 S
C1015 H1007 0.950 . S
C1015 C1013 1.327 . S
C1016 C1004 1.365 . S
C1016 H1010 0.950 . S
C1016 C1017 1.327 . S
C1017 H1011 0.950 . S
C1017 C1016 1.327 . S
C1017 C1021 1.441 . S
C1018 C1001 1.574 . S
C1018 H1012 0.949 . S
C1018 C1022 1.358 1_565 S
C1019 C1000 1.430 . S
C1019 C1013 1.427 1_545 S
C1019 C1020 1.523 . S
C1020 C1001 1.364 1_545 S
C1020 C1014 1.373 . S
C1020 C1019 1.523 . S
C1021 C1005 1.418 1_545 S
C1021 C1017 1.441 . S
C1021 C1022 1.523 . S
C1022 C1006 1.378 . S
C1022 C1018 1.358 1_545 S
C1022 C1021 1.523 . S
H1023 C998 0.950 . S
H1024 C1000 0.950 . S
H1025 C1001 0.949 . S
H1026 C1003 0.950 . S
H1027 C1005 0.950 . S
C1028 C1029 1.349 . S
C1028 C1030 1.327 . S
C1028 H1053 0.950 . S
C1029 C1028 1.349 . S
C1029 C1045 1.349 . S
C1030 C1028 1.327 . S
C1030 C1049 1.429 . S
C1030 H1054 0.950 . S
C1031 C1048 1.574 . S
C1031 C1050 1.368 . S
C1031 H1055 0.949 . S
H1032 C1036 0.949 . S
C1033 C1034 1.349 . S
C1033 C1035 1.327 . S
C1033 H1056 0.950 . S
C1034 C1033 1.349 . S
C1034 C1046 1.349 . S
C1035 C1033 1.327 . S
C1035 C1051 1.429 . S
C1035 H1057 0.950 . S
C1036 H1032 0.949 . S
C1036 C1044 1.574 . S
C1036 C1052 1.368 . S
H1037 C1045 0.950 . S
H1038 C1043 0.950 . S
H1039 C1044 0.949 . S
H1040 C1046 0.950 . S
H1041 C1047 0.950 . S
H1042 C1048 0.949 . S
C1043 H1038 0.950 . S
C1043 C1045 1.327 . S
C1043 C1049 1.429 . S
C1044 C1036 1.574 . S
C1044 H1039 0.949 . S
C1044 C1050 1.368 . S
C1045 C1029 1.349 . S
C1045 H1037 0.950 . S
C1045 C1043 1.327 . S
C1046 C1034 1.349 . S
C1046 H1040 0.950 . S
C1046 C1047 1.327 . S
C1047 H1041 0.950 . S
C1047 C1046 1.327 . S
C1047 C1051 1.429 . S
C1048 C1031 1.574 . S
C1048 H1042 0.949 . S
C1048 C1052 1.368 . S
C1049 C1030 1.429 . S
C1049 C1043 1.429 . S
C1049 C1050 1.523 . S
C1050 C1031 1.368 . S
C1050 C1044 1.368 . S
C1050 C1049 1.523 . S
C1051 C1035 1.429 . S
C1051 C1047 1.429 . S
C1051 C1052 1.523 . S
C1052 C1036 1.368 . S
C1052 C1048 1.368 . S
C1052 C1051 1.523 . S
H1053 C1028 0.950 . S
H1054 C1030 0.950 . S
H1055 C1031 0.949 . S
H1056 C1033 0.950 . S
H1057 C1035 0.950 . S
C1058 C1059 1.349 . S
C1058 C1060 1.327 . S
C1058 H1083 0.950 . S
C1059 C1058 1.349 . S
C1059 C1075 1.349 . S
C1060 C1058 1.327 . S
C1060 C1079 1.429 . S
C1060 H1084 0.950 . S
C1061 C1078 1.574 . S
C1061 C1080 1.368 . S
C1061 H1085 0.949 . S
H1062 C1066 0.949 . S
C1063 C1064 1.349 . S
C1063 C1065 1.327 . S
C1063 H1086 0.950 . S
C1064 C1063 1.349 . S
C1064 C1076 1.349 . S
C1065 C1063 1.327 . S
C1065 C1081 1.429 . S
C1065 H1087 0.950 . S
C1066 H1062 0.949 . S
C1066 C1074 1.574 . S
C1066 C1082 1.368 . S
H1067 C1075 0.950 . S
H1068 C1073 0.950 . S
H1069 C1074 0.949 . S
H1070 C1076 0.950 . S
H1071 C1077 0.950 . S
H1072 C1078 0.949 . S
C1073 H1068 0.950 . S
C1073 C1075 1.327 . S
C1073 C1079 1.429 . S
C1074 C1066 1.574 . S
C1074 H1069 0.949 . S
C1074 C1080 1.368 . S
C1075 C1059 1.349 . S
C1075 H1067 0.950 . S
C1075 C1073 1.327 . S
C1076 C1064 1.349 . S
C1076 H1070 0.950 . S
C1076 C1077 1.327 . S
C1077 H1071 0.950 . S
C1077 C1076 1.327 . S
C1077 C1081 1.429 . S
C1078 C1061 1.574 . S
C1078 H1072 0.949 . S
C1078 C1082 1.368 . S
C1079 C1060 1.429 . S
C1079 C1073 1.429 . S
C1079 C1080 1.523 . S
C1080 C1061 1.368 . S
C1080 C1074 1.368 . S
C1080 C1079 1.523 . S
C1081 C1065 1.429 . S
C1081 C1077 1.429 . S
C1081 C1082 1.523 . S
C1082 C1066 1.368 . S
C1082 C1078 1.368 . S
C1082 C1081 1.523 . S
H1083 C1058 0.950 . S
H1084 C1060 0.950 . S
H1085 C1061 0.949 . S
H1086 C1063 0.950 . S
H1087 C1065 0.950 . S
C369 C241 1.443 . S
C374 C289 1.472 . S
C404 C324 2.224 . S
C399 C277 2.073 . S
C434 C329 1.335 . S
C429 C169 1.299 . S
C464 C349 1.863 . S
C459 C205 1.799 . S
C494 C297 1.474 . S
C489 C97 1.442 . S
C519 C133 2.154 . S
C524 C314 2.225 . S
C549 C25 1.322 1_556 S
C554 C337 1.334 . S
C579 C61 1.727 . S
C584 C357 1.864 . S
C614 C307 1.164 . S
C609 C211 1.117 . S
C644 C316 0.439 . S
C639 C247 0.444 . S
C674 C347 1.362 . S
C669 C253 1.262 . S
C699 C175 0.678 . S
C704 C367 0.672 . S
C729 C67 1.066 . S
C734 C296 1.163 . S
C764 C327 0.441 . S
C759 C103 0.447 1_565 S
C794 C336 1.362 . S
C789 C109 1.314 . S
C819 C31 0.673 . S
C824 C356 0.674 . S
C849 C181 2.119 . S
C854 C294 2.202 . S
C879 C217 1.617 . S
C884 C317 1.722 . S
C914 C334 2.329 . S
C909 C283 2.107 . S
C944 C354 2.016 . S
C939 C145 1.910 . S
C969 C37 2.069 . S
C974 C304 2.202 . S
C1004 C309 1.726 . S
C999 C73 1.618 . S
C1034 C344 2.328 . S
C1029 C139 2.179 . S
C1059 C1 1.933 . S
C1064 C364 2.015 . S
