# Generated by pormake.
# Topology ctn, (3,4)-cn, num edge types: 1
# Building blocks:
#     Node 0, Type 0, BuildingBlock: BETDIP_clean_linker_0, # of connection points: 3
#     Node 1, Type 0, BuildingBlock: BETDIP_clean_linker_0, # of connection points: 3
#     Node 2, Type 0, BuildingBlock: BETDIP_clean_linker_0, # of connection points: 3
#     Node 3, Type 0, BuildingBlock: BETDIP_clean_linker_0, # of connection points: 3
#     Node 4, Type 0, BuildingBlock: BETDIP_clean_linker_0, # of connection points: 3
#     Node 5, Type 0, BuildingBlock: BETDIP_clean_linker_0, # of connection points: 3
#     Node 6, Type 0, BuildingBlock: BETDIP_clean_linker_0, # of connection points: 3
#     Node 7, Type 0, BuildingBlock: BETDIP_clean_linker_0, # of connection points: 3
#     Node 8, Type 0, BuildingBlock: BETDIP_clean_linker_0, # of connection points: 3
#     Node 9, Type 0, BuildingBlock: BETDIP_clean_linker_0, # of connection points: 3
#     Node 10, Type 0, BuildingBlock: BETDIP_clean_linker_0, # of connection points: 3
#     Node 11, Type 0, BuildingBlock: BETDIP_clean_linker_0, # of connection points: 3
#     Node 12, Type 0, BuildingBlock: BETDIP_clean_linker_0, # of connection points: 3
#     Node 13, Type 0, BuildingBlock: BETDIP_clean_linker_0, # of connection points: 3
#     Node 14, Type 0, BuildingBlock: BETDIP_clean_linker_0, # of connection points: 3
#     Node 15, Type 0, BuildingBlock: BETDIP_clean_linker_0, # of connection points: 3
#     Node 16, Type 1, BuildingBlock: TATPOV_clean_sbu_0, # of connection points: 4
#     Node 17, Type 1, BuildingBlock: TATPOV_clean_sbu_0, # of connection points: 4
#     Node 18, Type 1, BuildingBlock: TATPOV_clean_sbu_0, # of connection points: 4
#     Node 19, Type 1, BuildingBlock: TATPOV_clean_sbu_0, # of connection points: 4
#     Node 20, Type 1, BuildingBlock: TATPOV_clean_sbu_0, # of connection points: 4
#     Node 21, Type 1, BuildingBlock: TATPOV_clean_sbu_0, # of connection points: 4
#     Node 22, Type 1, BuildingBlock: TATPOV_clean_sbu_0, # of connection points: 4
#     Node 23, Type 1, BuildingBlock: TATPOV_clean_sbu_0, # of connection points: 4
#     Node 24, Type 1, BuildingBlock: TATPOV_clean_sbu_0, # of connection points: 4
#     Node 25, Type 1, BuildingBlock: TATPOV_clean_sbu_0, # of connection points: 4
#     Node 26, Type 1, BuildingBlock: TATPOV_clean_sbu_0, # of connection points: 4
#     Node 27, Type 1, BuildingBlock: TATPOV_clean_sbu_0, # of connection points: 4
#     Edge 28, Type (0, 1), BuildingBlock: ZUJKAS_clean_linker_0, # of connection points: 2
#     Edge 29, Type (0, 1), BuildingBlock: ZUJKAS_clean_linker_0, # of connection points: 2
#     Edge 30, Type (0, 1), BuildingBlock: ZUJKAS_clean_linker_0, # of connection points: 2
#     Edge 31, Type (0, 1), BuildingBlock: ZUJKAS_clean_linker_0, # of connection points: 2
#     Edge 32, Type (0, 1), BuildingBlock: ZUJKAS_clean_linker_0, # of connection points: 2
#     Edge 33, Type (0, 1), BuildingBlock: ZUJKAS_clean_linker_0, # of connection points: 2
#     Edge 34, Type (0, 1), BuildingBlock: ZUJKAS_clean_linker_0, # of connection points: 2
#     Edge 35, Type (0, 1), BuildingBlock: ZUJKAS_clean_linker_0, # of connection points: 2
#     Edge 36, Type (0, 1), BuildingBlock: ZUJKAS_clean_linker_0, # of connection points: 2
#     Edge 37, Type (0, 1), BuildingBlock: ZUJKAS_clean_linker_0, # of connection points: 2
#     Edge 38, Type (0, 1), BuildingBlock: ZUJKAS_clean_linker_0, # of connection points: 2
#     Edge 39, Type (0, 1), BuildingBlock: ZUJKAS_clean_linker_0, # of connection points: 2
#     Edge 40, Type (0, 1), BuildingBlock: ZUJKAS_clean_linker_0, # of connection points: 2
#     Edge 41, Type (0, 1), BuildingBlock: ZUJKAS_clean_linker_0, # of connection points: 2
#     Edge 42, Type (0, 1), BuildingBlock: ZUJKAS_clean_linker_0, # of connection points: 2
#     Edge 43, Type (0, 1), BuildingBlock: ZUJKAS_clean_linker_0, # of connection points: 2
#     Edge 44, Type (0, 1), BuildingBlock: ZUJKAS_clean_linker_0, # of connection points: 2
#     Edge 45, Type (0, 1), BuildingBlock: ZUJKAS_clean_linker_0, # of connection points: 2
#     Edge 46, Type (0, 1), BuildingBlock: ZUJKAS_clean_linker_0, # of connection points: 2
#     Edge 47, Type (0, 1), BuildingBlock: ZUJKAS_clean_linker_0, # of connection points: 2
#     Edge 48, Type (0, 1), BuildingBlock: ZUJKAS_clean_linker_0, # of connection points: 2
#     Edge 49, Type (0, 1), BuildingBlock: ZUJKAS_clean_linker_0, # of connection points: 2
#     Edge 50, Type (0, 1), BuildingBlock: ZUJKAS_clean_linker_0, # of connection points: 2
#     Edge 51, Type (0, 1), BuildingBlock: ZUJKAS_clean_linker_0, # of connection points: 2
#     Edge 52, Type (0, 1), BuildingBlock: ZUJKAS_clean_linker_0, # of connection points: 2
#     Edge 53, Type (0, 1), BuildingBlock: ZUJKAS_clean_linker_0, # of connection points: 2
#     Edge 54, Type (0, 1), BuildingBlock: ZUJKAS_clean_linker_0, # of connection points: 2
#     Edge 55, Type (0, 1), BuildingBlock: ZUJKAS_clean_linker_0, # of connection points: 2
#     Edge 56, Type (0, 1), BuildingBlock: ZUJKAS_clean_linker_0, # of connection points: 2
#     Edge 57, Type (0, 1), BuildingBlock: ZUJKAS_clean_linker_0, # of connection points: 2
#     Edge 58, Type (0, 1), BuildingBlock: ZUJKAS_clean_linker_0, # of connection points: 2
#     Edge 59, Type (0, 1), BuildingBlock: ZUJKAS_clean_linker_0, # of connection points: 2
#     Edge 60, Type (0, 1), BuildingBlock: ZUJKAS_clean_linker_0, # of connection points: 2
#     Edge 61, Type (0, 1), BuildingBlock: ZUJKAS_clean_linker_0, # of connection points: 2
#     Edge 62, Type (0, 1), BuildingBlock: ZUJKAS_clean_linker_0, # of connection points: 2
#     Edge 63, Type (0, 1), BuildingBlock: ZUJKAS_clean_linker_0, # of connection points: 2
#     Edge 64, Type (0, 1), BuildingBlock: ZUJKAS_clean_linker_0, # of connection points: 2
#     Edge 65, Type (0, 1), BuildingBlock: ZUJKAS_clean_linker_0, # of connection points: 2
#     Edge 66, Type (0, 1), BuildingBlock: ZUJKAS_clean_linker_0, # of connection points: 2
#     Edge 67, Type (0, 1), BuildingBlock: ZUJKAS_clean_linker_0, # of connection points: 2
#     Edge 68, Type (0, 1), BuildingBlock: ZUJKAS_clean_linker_0, # of connection points: 2
#     Edge 69, Type (0, 1), BuildingBlock: ZUJKAS_clean_linker_0, # of connection points: 2
#     Edge 70, Type (0, 1), BuildingBlock: ZUJKAS_clean_linker_0, # of connection points: 2
#     Edge 71, Type (0, 1), BuildingBlock: ZUJKAS_clean_linker_0, # of connection points: 2
#     Edge 72, Type (0, 1), BuildingBlock: ZUJKAS_clean_linker_0, # of connection points: 2
#     Edge 73, Type (0, 1), BuildingBlock: ZUJKAS_clean_linker_0, # of connection points: 2
#     Edge 74, Type (0, 1), BuildingBlock: ZUJKAS_clean_linker_0, # of connection points: 2
#     Edge 75, Type (0, 1), BuildingBlock: ZUJKAS_clean_linker_0, # of connection points: 2
# Relax obj value: 0.066
# Max RMSD: 0.196
# Mean RMSD: 0.113
data_MOF--net-ctn--node1-TATPOV_clean_sbu_0--node2-BETDIP_clean_linker_0--edge1-ZUJKAS_clean_linker_0
_symmetry_space_group_name_H-M    P1
_symmetry_Int_Tables_number       1
_symmetry_cell_setting            triclinic
loop_
_symmetry_equiv_pos_as_xyz
'x, y, z'
_cell_length_a     68.180695
_cell_length_b     68.495867
_cell_length_c     74.908723
_cell_angle_alpha  94.535016
_cell_angle_beta   94.61538
_cell_angle_gamma 94.050124
loop_
_atom_site_label
_atom_site_type_symbol
_atom_site_fract_x
_atom_site_fract_y
_atom_site_fract_z
_atom_type_partial_charge
H0 H 0.03155 0.04974 0.05467 0.0
H1 H 0.07731 0.02854 0.02382 0.0
H2 H 0.06453 0.00225 0.07213 0.0
H3 H 0.07763 0.05763 0.01308 0.0
C4 C 0.06283 0.06247 0.01323 0.0
C5 C 0.04311 0.03987 0.05295 0.0
C6 C 0.04661 0.02585 0.06537 0.0
C7 C 0.05429 0.04128 0.03813 0.0
C8 C 0.06886 0.02802 0.0354 0.0
C9 C 0.07267 0.0139 0.04762 0.0
C10 C 0.06156 0.01303 0.06262 0.0
N11 N 0.05015 0.0559 0.02611 0.0
H12 H 0.2518 0.69213 0.21259 0.0
H13 H 0.31005 0.72158 0.22161 0.0
H14 H 0.29382 0.67437 0.25311 0.0
H15 H 0.2949 0.74651 0.21026 0.0
C16 C 0.28389 0.73965 0.19996 0.0
C17 C 0.26633 0.69375 0.21982 0.0
C18 C 0.27104 0.68138 0.2334 0.0
C19 C 0.28003 0.70861 0.21574 0.0
C20 C 0.29901 0.71064 0.22494 0.0
C21 C 0.30389 0.69847 0.23859 0.0
C22 C 0.28983 0.684 0.24282 0.0
N23 N 0.27437 0.72092 0.20208 0.0
H24 H 0.94141 0.45281 0.03108 0.0
H25 H 0.98696 0.42843 0.06337 0.0
H26 H 0.96484 0.48299 0.08179 0.0
H27 H 0.99682 0.42227 0.03416 0.0
C28 C 0.98284 0.41516 0.0281 0.0
C29 C 0.95119 0.45354 0.04331 0.0
C30 C 0.95154 0.46967 0.0562 0.0
C31 C 0.96433 0.43895 0.04557 0.0
C32 C 0.97705 0.4399 0.06137 0.0
C33 C 0.97732 0.45571 0.0745 0.0
C34 C 0.96469 0.47069 0.07172 0.0
N35 N 0.965 0.42371 0.03168 0.0
H36 H 0.73729 0.7488 0.2042 0.0
H37 H 0.75379 0.80324 0.23614 0.0
H38 H 0.77735 0.79226 0.18512 0.0
H39 H 0.74667 0.78424 0.25921 0.0
C40 C 0.73371 0.77513 0.25333 0.0
C41 C 0.74576 0.76292 0.20607 0.0
C42 C 0.7574 0.76907 0.19261 0.0
C43 C 0.74475 0.77486 0.22197 0.0
C44 C 0.75517 0.79351 0.22428 0.0
C45 C 0.76672 0.80004 0.21085 0.0
C46 C 0.7679 0.78761 0.1952 0.0
N47 N 0.73231 0.76804 0.23488 0.0
H48 H 0.06207 0.93589 0.42299 0.0
H49 H 0.10178 0.96781 0.46454 0.0
H50 H 0.08649 0.99413 0.41577 0.0
H51 H 0.10771 0.93741 0.4718 0.0
C52 C 0.093 0.92996 0.47015 0.0
C53 C 0.07151 0.94893 0.42785 0.0
C54 C 0.07335 0.96478 0.41711 0.0
C55 C 0.08203 0.94968 0.44481 0.0
C56 C 0.09399 0.96677 0.45129 0.0
C57 C 0.09588 0.98274 0.44077 0.0
C58 C 0.08557 0.98158 0.42371 0.0
N59 N 0.07963 0.93345 0.45537 0.0
H60 H 0.22868 0.74422 0.79112 0.0
H61 H 0.25892 0.70817 0.75453 0.0
H62 H 0.28434 0.72295 0.80866 0.0
H63 H 0.23222 0.70674 0.7366 0.0
C64 C 0.22263 0.71784 0.7409 0.0
C65 C 0.24117 0.73581 0.78847 0.0
C66 C 0.25634 0.73463 0.8021 0.0
C67 C 0.24187 0.72635 0.77132 0.0
C68 C 0.25818 0.71568 0.76764 0.0
C69 C 0.27363 0.71435 0.78102 0.0
C70 C 0.27258 0.72394 0.79822 0.0
N71 N 0.22588 0.72811 0.75826 0.0
H72 H 0.97255 0.58249 0.45392 0.0
H73 H 0.93486 0.53005 0.43774 0.0
H74 H 0.92437 0.56639 0.48487 0.0
H75 H 0.94655 0.53338 0.41081 0.0
C76 C 0.96167 0.53951 0.41397 0.0
C77 C 0.95994 0.57265 0.45603 0.0
C78 C 0.94901 0.57649 0.47082 0.0
C79 C 0.9547 0.55629 0.44376 0.0
C80 C 0.93849 0.54331 0.44656 0.0
C81 C 0.92751 0.54684 0.46143 0.0
C82 C 0.93275 0.56359 0.47336 0.0
N83 N 0.96678 0.55281 0.42943 0.0
H84 H 0.83351 0.84387 0.79462 0.0
H85 H 0.85745 0.80559 0.83197 0.0
H86 H 0.80674 0.83661 0.84392 0.0
H87 H 0.88444 0.80833 0.81677 0.0
C88 C 0.87919 0.81098 0.80318 0.0
C89 C 0.83321 0.83751 0.8074 0.0
C90 C 0.81835 0.84172 0.81868 0.0
C91 C 0.84769 0.82502 0.8123 0.0
C92 C 0.8471 0.81626 0.82862 0.0
C93 C 0.83234 0.82034 0.8402 0.0
C94 C 0.81825 0.83341 0.83521 0.0
N95 N 0.86171 0.8207 0.79981 0.0
H96 H 0.34622 0.35328 0.30093 0.0
H97 H 0.37103 0.31135 0.33418 0.0
H98 H 0.31899 0.33871 0.34844 0.0
H99 H 0.39724 0.31513 0.31836 0.0
C100 C 0.39172 0.31926 0.3053 0.0
C101 C 0.34599 0.34532 0.31286 0.0
C102 C 0.33108 0.34787 0.32449 0.0
C103 C 0.36059 0.33244 0.31631 0.0
C104 C 0.36016 0.32175 0.33158 0.0
C105 C 0.34527 0.32407 0.34338 0.0
C106 C 0.33094 0.33735 0.33982 0.0
N107 N 0.37454 0.32977 0.3034 0.0
H108 H 0.447 0.97395 0.51917 0.0
H109 H 0.49215 0.95144 0.55324 0.0
H110 H 0.46309 0.0015 0.57265 0.0
H111 H 0.50448 0.94648 0.52512 0.0
C112 C 0.49113 0.93904 0.51807 0.0
C113 C 0.45568 0.97466 0.53201 0.0
C114 C 0.45327 0.98951 0.54558 0.0
C115 C 0.46996 0.9612 0.53454 0.0
C116 C 0.48135 0.96206 0.55107 0.0
C117 C 0.47901 0.97658 0.56484 0.0
C118 C 0.46506 0.99037 0.56197 0.0
N119 N 0.47265 0.94687 0.52035 0.0
H120 H 0.23739 0.25144 0.7048 0.0
H121 H 0.25256 0.3065 0.73628 0.0
H122 H 0.27592 0.29586 0.68523 0.0
H123 H 0.24116 0.29135 0.75866 0.0
C124 C 0.23078 0.27925 0.75309 0.0
C125 C 0.24546 0.26577 0.70657 0.0
C126 C 0.25667 0.27225 0.69294 0.0
C127 C 0.24414 0.27775 0.72241 0.0
C128 C 0.25402 0.29669 0.72453 0.0
C129 C 0.26535 0.3034 0.71102 0.0
C130 C 0.26671 0.291 0.69541 0.0
N131 N 0.23198 0.2705 0.73539 0.0
H132 H 0.75128 0.1954 0.70947 0.0
H133 H 0.80828 0.22568 0.72416 0.0
H134 H 0.79148 0.17322 0.7489 0.0
H135 H 0.79003 0.25258 0.7171 0.0
C136 C 0.78191 0.24613 0.70471 0.0
C137 C 0.76529 0.19658 0.71756 0.0
C138 C 0.76965 0.18229 0.72943 0.0
C139 C 0.77888 0.2125 0.71594 0.0
C140 C 0.79737 0.21388 0.72594 0.0
C141 C 0.80218 0.19949 0.73761 0.0
C142 C 0.78813 0.18391 0.73941 0.0
N143 N 0.77384 0.22633 0.7035 0.0
H144 H 0.53654 0.55657 0.55189 0.0
H145 H 0.58142 0.53213 0.52188 0.0
H146 H 0.56732 0.5085 0.57112 0.0
H147 H 0.5651 0.54426 0.4988 0.0
C148 C 0.55956 0.55776 0.50423 0.0
C149 C 0.54755 0.54603 0.55042 0.0
C150 C 0.55062 0.53261 0.56347 0.0
C151 C 0.55813 0.54566 0.53513 0.0
C152 C 0.57245 0.53199 0.53313 0.0
C153 C 0.57587 0.5185 0.54605 0.0
C154 C 0.56482 0.51887 0.56114 0.0
N155 N 0.55429 0.55951 0.52227 0.0
H156 H 0.5653 0.44632 0.91976 0.0
H157 H 0.61237 0.4713 0.95828 0.0
H158 H 0.59901 0.49932 0.90998 0.0
H159 H 0.61228 0.44004 0.96625 0.0
C160 C 0.59659 0.43567 0.96538 0.0
C161 C 0.57727 0.45747 0.92372 0.0
C162 C 0.5809 0.47286 0.9128 0.0
C163 C 0.58867 0.45662 0.94003 0.0
C164 C 0.60375 0.47148 0.94553 0.0
C165 C 0.60765 0.48685 0.93468 0.0
C166 C 0.5962 0.48738 0.91833 0.0
N167 N 0.58383 0.44133 0.95106 0.0
H168 H 0.72115 0.24102 0.29621 0.0
H169 H 0.74884 0.20368 0.25871 0.0
H170 H 0.77594 0.21731 0.31252 0.0
H171 H 0.72991 0.21695 0.23801 0.0
C172 C 0.71683 0.22115 0.24423 0.0
C173 C 0.73322 0.23215 0.29324 0.0
C174 C 0.74843 0.23017 0.3066 0.0
C175 C 0.73346 0.22312 0.27587 0.0
C176 C 0.74901 0.21156 0.27181 0.0
C177 C 0.76449 0.20937 0.28495 0.0
C178 C 0.76412 0.21888 0.30229 0.0
N179 N 0.71741 0.22558 0.26313 0.0
H180 H 0.47543 0.07953 0.95595 0.0
H181 H 0.43591 0.02847 0.94012 0.0
H182 H 0.42429 0.06781 0.98483 0.0
H183 H 0.44836 0.03072 0.91328 0.0
C184 C 0.46361 0.03639 0.91656 0.0
C185 C 0.46199 0.07076 0.95775 0.0
C186 C 0.45054 0.07592 0.97193 0.0
C187 C 0.45652 0.05412 0.94588 0.0
C188 C 0.43967 0.04199 0.94854 0.0
C189 C 0.42819 0.04671 0.96281 0.0
C190 C 0.43352 0.06386 0.9742 0.0
N191 N 0.46896 0.04957 0.93206 0.0
Zn192 Zn 0.29318 0.8481 0.00903 0.0
Zn193 Zn 0.25886 0.86387 0.00899 0.0
O194 O 0.26121 0.84976 0.03279 0.0
O195 O 0.29034 0.83782 0.03289 0.0
O196 O 0.23344 0.87751 0.0105 0.0
O197 O 0.30779 0.87421 0.00754 0.0
O198 O 0.27925 0.88737 0.00689 0.0
C199 C 0.27463 0.84036 0.04038 0.0
C200 C 0.26616 0.83316 0.97865 0.0
O201 O 0.25476 0.84515 0.98553 0.0
O202 O 0.28311 0.83154 0.98637 0.0
C203 C 0.23166 0.88855 0.02468 0.0
O204 O 0.24601 0.89016 0.03765 0.0
C205 C 0.29796 0.88913 0.00651 0.0
Zn206 Zn 0.11224 0.43797 0.27 0.0
Zn207 Zn 0.13028 0.47412 0.26701 0.0
O208 O 0.11199 0.48013 0.28675 0.0
O209 O 0.09745 0.45092 0.28964 0.0
O210 O 0.14393 0.50021 0.26307 0.0
O211 O 0.13899 0.42802 0.27603 0.0
O212 O 0.15316 0.45761 0.27421 0.0
C213 C 0.09977 0.46921 0.29425 0.0
C214 C 0.10438 0.45163 0.23522 0.0
O215 O 0.11536 0.46643 0.24243 0.0
O216 O 0.10081 0.43701 0.24411 0.0
C217 C 0.15393 0.51128 0.27545 0.0
O218 O 0.15536 0.5058 0.29189 0.0
C219 C 0.15441 0.43966 0.27718 0.0
Zn220 Zn 0.8158 0.63268 0.96408 0.0
Zn221 Zn 0.80632 0.6515 0.99461 0.0
O222 O 0.82812 0.63413 0.00323 0.0
O223 O 0.83675 0.61958 0.97807 0.0
O224 O 0.79958 0.66599 0.01747 0.0
O225 O 0.82263 0.65833 0.95416 0.0
O226 O 0.814 0.67388 0.97883 0.0
C227 C 0.83878 0.6224 0.99504 0.0
C228 C 0.77554 0.62348 0.97186 0.0
O229 O 0.78054 0.63531 0.98572 0.0
O230 O 0.78784 0.62004 0.96041 0.0
C231 C 0.79485 0.65656 0.03063 0.0
O232 O 0.79457 0.6373 0.02912 0.0
C233 C 0.82027 0.67422 0.96325 0.0
Zn234 Zn 0.89027 0.01601 0.27687 0.0
Zn235 Zn 0.90876 0.01901 0.24745 0.0
O236 O 0.89641 0.04601 0.25155 0.0
O237 O 0.88249 0.04345 0.27687 0.0
O238 O 0.92365 0.02205 0.22524 0.0
O239 O 0.91508 0.01056 0.29097 0.0
O240 O 0.93086 0.01313 0.26666 0.0
C241 C 0.88675 0.05342 0.26402 0.0
C242 C 0.87488 0.98705 0.24871 0.0
O243 O 0.88847 0.99504 0.2403 0.0
O244 O 0.87232 0.9937 0.26453 0.0
C245 C 0.93125 0.0075 0.21759 0.0
O246 O 0.92903 0.99029 0.22408 0.0
C247 C 0.93089 0.01008 0.28326 0.0
Zn248 Zn 0.28775 0.13348 0.45737 0.0
Zn249 Zn 0.28512 0.15386 0.48912 0.0
O250 O 0.30666 0.13529 0.49509 0.0
O251 O 0.30851 0.11804 0.46929 0.0
O252 O 0.28253 0.16901 0.51284 0.0
O253 O 0.29582 0.15852 0.44675 0.0
O254 O 0.29301 0.17534 0.47258 0.0
C255 C 0.31417 0.12179 0.48581 0.0
C256 C 0.2493 0.12863 0.46996 0.0
O257 O 0.25748 0.13971 0.48335 0.0
O258 O 0.259 0.1241 0.45672 0.0
C259 C 0.27924 0.15978 0.5265 0.0
O260 O 0.27788 0.14048 0.52486 0.0
C261 C 0.2969 0.1748 0.45618 0.0
Zn262 Zn 0.39297 0.51818 0.77348 0.0
Zn263 Zn 0.41129 0.51986 0.74393 0.0
O264 O 0.40022 0.54759 0.7475 0.0
O265 O 0.38648 0.54597 0.773 0.0
O266 O 0.42586 0.52062 0.7213 0.0
O267 O 0.41748 0.51183 0.7875 0.0
O268 O 0.43326 0.51376 0.76314 0.0
C269 C 0.391 0.5556 0.76 0.0
C270 C 0.37613 0.48932 0.74618 0.0
O271 O 0.38997 0.49656 0.7376 0.0
O272 O 0.37387 0.49645 0.76192 0.0
C273 C 0.43671 0.53556 0.71796 0.0
O274 O 0.43827 0.55133 0.72933 0.0
C275 C 0.43323 0.51081 0.77976 0.0
Zn276 Zn 0.79349 0.34742 0.51079 0.0
Zn277 Zn 0.75977 0.36465 0.5113 0.0
O278 O 0.76294 0.35226 0.53587 0.0
O279 O 0.79096 0.33824 0.53517 0.0
O280 O 0.73477 0.37897 0.51289 0.0
O281 O 0.80847 0.37311 0.50782 0.0
O282 O 0.78044 0.3872 0.50753 0.0
C283 C 0.77601 0.34231 0.54328 0.0
C284 C 0.76499 0.33207 0.48177 0.0
O285 O 0.75431 0.34475 0.48868 0.0
O286 O 0.78214 0.33024 0.48895 0.0
C287 C 0.7333 0.39048 0.52683 0.0
O288 O 0.74778 0.39228 0.53969 0.0
C289 C 0.79905 0.38827 0.50645 0.0
Zn290 Zn 0.60428 0.94211 0.76098 0.0
Zn291 Zn 0.62536 0.97739 0.76139 0.0
O292 O 0.60811 0.98243 0.78212 0.0
O293 O 0.5913 0.95378 0.78243 0.0
O294 O 0.64215 0.0026 0.7607 0.0
O295 O 0.62964 0.92877 0.76479 0.0
O296 O 0.64614 0.95767 0.76569 0.0
C297 C 0.59528 0.97144 0.78884 0.0
C298 C 0.5974 0.96133 0.72849 0.0
O299 O 0.60971 0.97447 0.73677 0.0
O300 O 0.59272 0.9458 0.7358 0.0
C301 C 0.6349 0.0185 0.75688 0.0
O302 O 0.61567 0.01877 0.75385 0.0
C303 C 0.6459 0.93917 0.76661 0.0
Zn304 Zn 0.01943 0.26843 0.84783 0.0
Zn305 Zn 0.0238 0.23666 0.86544 0.0
O306 O 0.05039 0.24116 0.85369 0.0
O307 O 0.04682 0.26834 0.84035 0.0
O308 O 0.02814 0.21325 0.87993 0.0
O309 O 0.01418 0.28431 0.8703 0.0
O310 O 0.01786 0.25805 0.885 0.0
C311 C 0.05725 0.25453 0.84442 0.0
C312 C 0.99083 0.23653 0.83498 0.0
O313 O 0.99942 0.22781 0.8475 0.0
O314 O 0.99694 0.25382 0.83218 0.0
C315 C 0.01572 0.20784 0.89072 0.0
O316 O 0.99964 0.2172 0.89185 0.0
C317 C 0.0143 0.27607 0.88483 0.0
Zn318 Zn 0.52329 0.77438 0.3479 0.0
Zn319 Zn 0.52658 0.74431 0.36728 0.0
O320 O 0.55263 0.7454 0.35437 0.0
O321 O 0.54778 0.76865 0.3362 0.0
O322 O 0.52926 0.72232 0.38377 0.0
O323 O 0.52481 0.79356 0.36955 0.0
O324 O 0.52372 0.76808 0.38566 0.0
C325 C 0.55838 0.75568 0.34198 0.0
C326 C 0.49067 0.74565 0.34007 0.0
O327 O 0.50089 0.73587 0.3507 0.0
O328 O 0.49678 0.76288 0.33715 0.0
C329 C 0.53568 0.7058 0.37931 0.0
O330 O 0.54087 0.70223 0.36293 0.0
C331 C 0.52384 0.78659 0.38461 0.0
Zn332 Zn 0.98036 0.78638 0.60696 0.0
Zn333 Zn 0.01485 0.77555 0.62225 0.0
O334 O 0.02352 0.79868 0.60813 0.0
O335 O 0.99562 0.80843 0.59633 0.0
O336 O 0.04024 0.76863 0.63499 0.0
O337 O 0.97008 0.79053 0.63136 0.0
O338 O 0.99808 0.78134 0.64342 0.0
C339 C 0.0143 0.81024 0.59856 0.0
C340 C 0.9894 0.74685 0.59519 0.0
O341 O 0.00493 0.75097 0.60583 0.0
O342 O 0.97666 0.75933 0.59344 0.0
C343 C 0.05245 0.75792 0.62781 0.0
O344 O 0.04868 0.75074 0.611 0.0
C345 C 0.98087 0.78701 0.64511 0.0
Zn346 Zn 0.47963 0.29097 0.10257 0.0
Zn347 Zn 0.51527 0.28163 0.11649 0.0
O348 O 0.52262 0.30495 0.10213 0.0
O349 O 0.49379 0.31256 0.09036 0.0
O350 O 0.5413 0.27462 0.12788 0.0
O351 O 0.47097 0.29602 0.12753 0.0
O352 O 0.49965 0.2873 0.1385 0.0
C353 C 0.51244 0.3155 0.09224 0.0
C354 C 0.48904 0.25186 0.09078 0.0
O355 O 0.50523 0.25694 0.10023 0.0
O356 O 0.47544 0.26352 0.08996 0.0
C357 C 0.54142 0.26034 0.13773 0.0
O358 O 0.52463 0.25049 0.13986 0.0
C359 C 0.48255 0.29287 0.1409 0.0
H360 H 0.28565 0.75595 0.82408 0.0
H361 H 0.28324 0.77213 0.8541 0.0
H362 H 0.22155 0.75227 0.85119 0.0
H363 H 0.22394 0.73561 0.82142 0.0
H364 H 0.25826 0.80171 0.86435 0.0
H365 H 0.2442 0.73399 0.89917 0.0
H366 H 0.2536 0.73355 0.8773 0.0
H367 H 0.22788 0.73628 0.87951 0.0
C368 C 0.27163 0.75483 0.82992 0.0
C369 C 0.25501 0.74443 0.82037 0.0
C370 C 0.27024 0.7642 0.847 0.0
C371 C 0.25226 0.76324 0.85492 0.0
C372 C 0.23562 0.75298 0.84542 0.0
H373 H 0.23572 0.8383 0.95332 0.0
H374 H 0.22931 0.82119 0.92307 0.0
C375 C 0.23698 0.74363 0.82833 0.0
C376 C 0.25098 0.77311 0.8731 0.0
H377 H 0.24368 0.76427 0.9164 0.0
C378 C 0.25493 0.79357 0.87573 0.0
C379 C 0.24671 0.76241 0.88789 0.0
C380 C 0.243 0.74033 0.88596 0.0
C381 C 0.25507 0.8036 0.89285 0.0
C382 C 0.2509 0.79288 0.90766 0.0
C383 C 0.24661 0.77246 0.90497 0.0
C384 C 0.25321 0.80224 0.92633 0.0
C385 C 0.26047 0.82546 0.89509 0.0
C386 C 0.26827 0.79677 0.93833 0.0
C387 C 0.27191 0.8064 0.9555 0.0
C388 C 0.26049 0.8217 0.96113 0.0
C389 C 0.24479 0.82661 0.94938 0.0
C390 C 0.2412 0.81695 0.93207 0.0
H391 H 0.26644 0.83095 0.88289 0.0
H392 H 0.24714 0.83323 0.89776 0.0
H393 H 0.27162 0.82928 0.90671 0.0
H394 H 0.27766 0.78541 0.93421 0.0
H395 H 0.28402 0.80211 0.96423 0.0
H396 H 0.95626 0.51533 0.38328 0.0
H397 H 0.98131 0.50524 0.36342 0.0
H398 H 0.02602 0.54163 0.39721 0.0
H399 H 0.00117 0.55164 0.41715 0.0
H400 H 0.00755 0.52897 0.34454 0.0
H401 H 0.04726 0.48641 0.3943 0.0
H402 H 0.0227 0.49389 0.39686 0.0
H403 H 0.04371 0.51136 0.40192 0.0
C404 C 0.97144 0.52119 0.38642 0.0
C405 C 0.97678 0.53416 0.40176 0.0
C406 C 0.98569 0.51545 0.37508 0.0
C407 C 0.00551 0.52252 0.379 0.0
C408 C 0.01083 0.53579 0.39413 0.0
H409 H 0.09804 0.50815 0.30537 0.0
H410 H 0.07608 0.52225 0.32643 0.0
C411 C 0.99659 0.54155 0.40546 0.0
C412 C 0.02063 0.51582 0.36732 0.0
H413 H 0.06114 0.48928 0.36665 0.0
C414 C 0.01933 0.52036 0.34935 0.0
C415 C 0.03584 0.50446 0.37367 0.0
C416 C 0.03746 0.49856 0.3927 0.0
C417 C 0.03285 0.51377 0.3375 0.0
C418 C 0.04815 0.50254 0.34389 0.0
C419 C 0.04948 0.49806 0.36188 0.0
C420 C 0.06214 0.49422 0.33182 0.0
C421 C 0.03034 0.51837 0.31811 0.0
C422 C 0.06192 0.4738 0.32832 0.0
C423 C 0.07443 0.46569 0.31639 0.0
C424 C 0.08751 0.47788 0.30778 0.0
C425 C 0.08809 0.49835 0.31172 0.0
C426 C 0.0755 0.50646 0.32366 0.0
H427 H 0.01569 0.52383 0.31458 0.0
H428 H 0.04188 0.52989 0.31571 0.0
H429 H 0.03211 0.50514 0.30898 0.0
H430 H 0.05176 0.46412 0.33457 0.0
H431 H 0.07364 0.44988 0.31374 0.0
H432 H 0.79866 0.80592 0.85385 0.0
H433 H 0.79595 0.78655 0.87952 0.0
H434 H 0.8594 0.78987 0.88882 0.0
H435 H 0.86226 0.81042 0.86382 0.0
H436 H 0.80836 0.75152 0.88103 0.0
H437 H 0.84472 0.79842 0.93953 0.0
H438 H 0.83763 0.80809 0.91842 0.0
H439 H 0.86037 0.7964 0.92145 0.0
C440 C 0.81207 0.80316 0.86169 0.0
C441 C 0.83071 0.80982 0.85673 0.0
C442 C 0.81047 0.79192 0.87632 0.0
C443 C 0.82745 0.78694 0.88627 0.0
C444 C 0.84607 0.7939 0.88164 0.0
H445 H 0.84145 0.68057 0.93479 0.0
H446 H 0.84315 0.70969 0.91812 0.0
C447 C 0.84769 0.80537 0.86712 0.0
C448 C 0.82568 0.77256 0.89996 0.0
H449 H 0.84124 0.76355 0.94286 0.0
C450 C 0.81531 0.75433 0.89462 0.0
C451 C 0.83455 0.77623 0.91778 0.0
C452 C 0.84476 0.79594 0.9247 0.0
C453 C 0.81425 0.73942 0.90632 0.0
C454 C 0.82422 0.74262 0.9237 0.0
C455 C 0.83386 0.76109 0.92941 0.0
C456 C 0.82553 0.72643 0.93555 0.0
C457 C 0.80265 0.72021 0.89986 0.0
C458 C 0.81585 0.72663 0.9514 0.0
C459 C 0.81495 0.70996 0.96111 0.0
C460 C 0.82365 0.69293 0.95499 0.0
C461 C 0.83434 0.69334 0.93972 0.0
C462 C 0.83534 0.70996 0.93016 0.0
H463 H 0.79166 0.72194 0.88842 0.0
H464 H 0.81293 0.70941 0.89522 0.0
H465 H 0.7948 0.71411 0.91086 0.0
H466 H 0.80827 0.7393 0.95579 0.0
H467 H 0.80665 0.71008 0.97285 0.0
H468 H 0.08655 0.97611 0.38575 0.0
H469 H 0.06656 0.98124 0.35811 0.0
H470 H 0.01439 0.95844 0.38081 0.0
H471 H 0.03428 0.95332 0.40853 0.0
H472 H 0.01659 0.94694 0.34254 0.0
H473 H 0.03013 0.02747 0.36102 0.0
H474 H 0.05155 0.01375 0.35953 0.0
H475 H 0.03536 0.00955 0.37681 0.0
C476 C 0.07085 0.97195 0.38475 0.0
C477 C 0.06191 0.96458 0.39939 0.0
C478 C 0.05949 0.97486 0.36896 0.0
C479 C 0.039 0.97051 0.36757 0.0
C480 C 0.03021 0.9619 0.38166 0.0
H481 H 0.93728 0.01134 0.31956 0.0
H482 H 0.96591 0.00162 0.33729 0.0
C483 C 0.04158 0.95894 0.39746 0.0
C484 C 0.02643 0.97669 0.35232 0.0
H485 H 0.00854 0.01744 0.33548 0.0
C486 C 0.01505 0.96234 0.34076 0.0
C487 C 0.02441 0.99682 0.35017 0.0
C488 C 0.03587 0.01286 0.36257 0.0
C489 C 0.00123 0.96762 0.32739 0.0
C490 C 0.99881 0.98772 0.32565 0.0
C491 C 0.01066 0.00206 0.33679 0.0
C492 C 0.98207 0.99411 0.31437 0.0
C493 C 0.98853 0.95179 0.31584 0.0
C494 C 0.98188 0.99338 0.29557 0.0
C495 C 0.96548 0.9991 0.2853 0.0
C496 C 0.94905 0.00543 0.29374 0.0
C497 C 0.9496 0.00643 0.3126 0.0
C498 C 0.96596 0.0009 0.32278 0.0
H499 H 0.99181 0.93681 0.31928 0.0
H500 H 0.9727 0.95369 0.31742 0.0
H501 H 0.99092 0.9531 0.30149 0.0
H502 H 0.99431 0.98827 0.2889 0.0
H503 H 0.96545 0.99813 0.27079 0.0
H504 H 0.26064 0.23255 0.68894 0.0
H505 H 0.26401 0.21229 0.66103 0.0
H506 H 0.25913 0.26312 0.63098 0.0
H507 H 0.25534 0.28338 0.65864 0.0
H508 H 0.23726 0.2074 0.62757 0.0
H509 H 0.31235 0.24028 0.61865 0.0
H510 H 0.30165 0.24219 0.63996 0.0
H511 H 0.29416 0.25752 0.62267 0.0
C512 C 0.26005 0.23937 0.67637 0.0
C513 C 0.25791 0.25963 0.67604 0.0
C514 C 0.26207 0.22779 0.66047 0.0
C515 C 0.26212 0.23631 0.64405 0.0
C516 C 0.2595 0.25638 0.6436 0.0
H517 H 0.27811 0.19944 0.53377 0.0
H518 H 0.27345 0.2172 0.56254 0.0
C519 C 0.2574 0.26793 0.65943 0.0
C520 C 0.26502 0.22432 0.62731 0.0
H521 H 0.29657 0.21907 0.59444 0.0
C522 C 0.25026 0.2098 0.62035 0.0
C523 C 0.282 0.2276 0.61798 0.0
C524 C 0.29856 0.24263 0.62521 0.0
C525 C 0.25177 0.1988 0.60395 0.0
C526 C 0.26872 0.20217 0.59453 0.0
C527 C 0.28358 0.21655 0.60165 0.0
C528 C 0.27124 0.19119 0.57711 0.0
C529 C 0.23494 0.18414 0.59658 0.0
C530 C 0.27178 0.17069 0.5758 0.0
C531 C 0.27435 0.16047 0.55935 0.0
C532 C 0.27666 0.17061 0.54395 0.0
C533 C 0.27637 0.19118 0.54537 0.0
C534 C 0.27371 0.20136 0.5618 0.0
H535 H 0.22109 0.18704 0.60285 0.0
H536 H 0.23216 0.18439 0.58179 0.0
H537 H 0.23877 0.16917 0.59948 0.0
H538 H 0.27038 0.16259 0.58754 0.0
H539 H 0.27464 0.14464 0.55875 0.0
H540 H 0.53292 0.50121 0.57815 0.0
H541 H 0.51313 0.50168 0.60403 0.0
H542 H 0.52223 0.56487 0.61092 0.0
H543 H 0.54183 0.5645 0.58494 0.0
H544 H 0.52253 0.51469 0.63894 0.0
H545 H 0.46302 0.55719 0.61054 0.0
H546 H 0.48112 0.54693 0.59701 0.0
H547 H 0.4871 0.56964 0.61079 0.0
C548 C 0.53076 0.5152 0.58521 0.0
C549 C 0.53886 0.53283 0.57941 0.0
C550 C 0.51938 0.51546 0.59997 0.0
C551 C 0.51584 0.53333 0.60924 0.0
C552 C 0.52425 0.55093 0.60369 0.0
H553 H 0.45834 0.56591 0.70533 0.0
H554 H 0.47742 0.56492 0.67899 0.0
C555 C 0.53551 0.5507 0.58887 0.0
C556 C 0.50372 0.5335 0.62493 0.0
H557 H 0.46312 0.55231 0.64167 0.0
C558 C 0.50947 0.52281 0.63947 0.0
C559 C 0.48662 0.54408 0.62564 0.0
C560 C 0.47897 0.55495 0.61009 0.0
C561 C 0.49886 0.52273 0.65481 0.0
C562 C 0.48195 0.53349 0.65558 0.0
C563 C 0.47614 0.54413 0.64106 0.0
C564 C 0.47016 0.53398 0.67143 0.0
C565 C 0.50604 0.51147 0.67025 0.0
C566 C 0.45951 0.51695 0.67576 0.0
C567 C 0.44848 0.51748 0.69076 0.0
C568 C 0.44793 0.53505 0.70174 0.0
C569 C 0.45848 0.55212 0.69722 0.0
C570 C 0.46938 0.5516 0.68216 0.0
H571 H 0.52136 0.50728 0.66911 0.0
H572 H 0.50548 0.52029 0.68328 0.0
H573 H 0.49627 0.49783 0.6704 0.0
H574 H 0.45969 0.50326 0.66751 0.0
H575 H 0.44051 0.50407 0.69381 0.0
H576 H 0.78838 0.28575 0.70555 0.0
H577 H 0.78308 0.30658 0.68071 0.0
H578 H 0.7627 0.25521 0.64518 0.0
H579 H 0.76722 0.23456 0.67005 0.0
H580 H 0.80059 0.30725 0.65137 0.0
H581 H 0.72119 0.29061 0.63142 0.0
H582 H 0.73271 0.28347 0.6522 0.0
H583 H 0.73349 0.26835 0.63148 0.0
C584 C 0.78249 0.279 0.69247 0.0
C585 C 0.77808 0.2586 0.68975 0.0
C586 C 0.77945 0.29089 0.6783 0.0
C587 C 0.77207 0.28256 0.66111 0.0
C588 C 0.76774 0.26212 0.65841 0.0
H589 H 0.79845 0.31658 0.5597 0.0
H590 H 0.79614 0.30491 0.58928 0.0
C591 C 0.77052 0.25028 0.67262 0.0
C592 C 0.77056 0.29489 0.64566 0.0
H593 H 0.74081 0.30295 0.60845 0.0
C594 C 0.78737 0.30656 0.64219 0.0
C595 C 0.75321 0.29445 0.63382 0.0
C596 C 0.73409 0.28371 0.63755 0.0
C597 C 0.78771 0.31675 0.62669 0.0
C598 C 0.771 0.31476 0.61401 0.0
C599 C 0.75375 0.30418 0.61801 0.0
C600 C 0.77184 0.32203 0.59592 0.0
C601 C 0.80614 0.32931 0.62394 0.0
C602 C 0.75838 0.33498 0.58944 0.0
C603 C 0.7595 0.34158 0.57225 0.0
C604 C 0.77406 0.33526 0.56132 0.0
C605 C 0.7872 0.32199 0.5678 0.0
C606 C 0.786 0.31537 0.58481 0.0
H607 H 0.81427 0.33488 0.63701 0.0
H608 H 0.81611 0.3203 0.61635 0.0
H609 H 0.80266 0.34203 0.61626 0.0
H610 H 0.74718 0.34012 0.59773 0.0
H611 H 0.74912 0.35174 0.56762 0.0
H612 H 0.49907 0.0087 0.58379 0.0
H613 H 0.52162 0.00914 0.61111 0.0
H614 H 0.5093 0.94659 0.61194 0.0
H615 H 0.48687 0.94605 0.58475 0.0
H616 H 0.51515 0.99716 0.64527 0.0
H617 H 0.56953 0.95285 0.61297 0.0
H618 H 0.55045 0.96414 0.60021 0.0
H619 H 0.54491 0.94128 0.60974 0.0
C620 C 0.50106 0.9951 0.58993 0.0
C621 C 0.49142 0.9773 0.58207 0.0
C622 C 0.51399 0.99536 0.60544 0.0
C623 C 0.51746 0.97782 0.61324 0.0
C624 C 0.50724 0.96019 0.60581 0.0
H625 H 0.57329 0.93516 0.70583 0.0
H626 H 0.55549 0.94119 0.67743 0.0
C627 C 0.49441 0.95991 0.59033 0.0
C628 C 0.5316 0.97778 0.62925 0.0
H629 H 0.57211 0.95585 0.64519 0.0
C630 C 0.5278 0.98839 0.64523 0.0
C631 C 0.54815 0.96643 0.62906 0.0
C632 C 0.55365 0.95569 0.61203 0.0
C633 C 0.53953 0.98709 0.66131 0.0
C634 C 0.5555 0.97501 0.66125 0.0
C635 C 0.55975 0.965 0.64514 0.0
C636 C 0.5671 0.97147 0.67801 0.0
C637 C 0.5343 0.99792 0.67839 0.0
C638 C 0.57979 0.98644 0.68749 0.0
C639 C 0.59007 0.98302 0.70372 0.0
C640 C 0.58774 0.9646 0.7107 0.0
C641 C 0.57535 0.94953 0.70088 0.0
C642 C 0.56519 0.95293 0.68465 0.0
H643 H 0.5199 0.00447 0.6766 0.0
H644 H 0.5337 0.98786 0.68929 0.0
H645 H 0.54589 0.00992 0.68279 0.0
H646 H 0.58159 0.00077 0.68242 0.0
H647 H 0.59952 0.99494 0.71095 0.0
H648 H 0.82584 0.16944 0.74274 0.0
H649 H 0.85798 0.17089 0.76009 0.0
H650 H 0.85556 0.2332 0.77241 0.0
H651 H 0.82319 0.2318 0.75544 0.0
H652 H 0.89282 0.19306 0.75468 0.0
H653 H 0.86788 0.21266 0.82198 0.0
H654 H 0.85104 0.20307 0.80295 0.0
H655 H 0.85996 0.22857 0.80532 0.0
C656 C 0.83205 0.18342 0.74932 0.0
C657 C 0.8219 0.2005 0.74783 0.0
C658 C 0.85045 0.18423 0.75914 0.0
C659 C 0.85899 0.20208 0.76777 0.0
C660 C 0.84904 0.2192 0.76613 0.0
H661 H 0.97507 0.24719 0.80305 0.0
H662 H 0.94371 0.23507 0.78673 0.0
C663 C 0.83066 0.21842 0.75626 0.0
C664 C 0.87859 0.20296 0.77803 0.0
H665 H 0.90262 0.21692 0.8193 0.0
C666 C 0.89495 0.19805 0.76886 0.0
C667 C 0.88127 0.2091 0.7966 0.0
C668 C 0.86408 0.21347 0.80736 0.0
C669 C 0.91409 0.20012 0.77757 0.0
C670 C 0.91691 0.20746 0.79585 0.0
C671 C 0.90044 0.21139 0.80525 0.0
C672 C 0.93684 0.21308 0.80495 0.0
C673 C 0.93118 0.19473 0.76706 0.0
C674 C 0.94342 0.20474 0.82068 0.0
C675 C 0.96149 0.21166 0.83012 0.0
C676 C 0.97302 0.22726 0.8241 0.0
C677 C 0.96654 0.23518 0.80809 0.0
C678 C 0.94866 0.22817 0.79864 0.0
H679 H 0.92629 0.1839 0.75545 0.0
H680 H 0.9378 0.20811 0.76174 0.0
H681 H 0.94277 0.18853 0.77571 0.0
H682 H 0.9344 0.19316 0.82583 0.0
H683 H 0.96602 0.20535 0.84246 0.0
H684 H 0.52489 0.92525 0.50777 0.0
H685 H 0.52872 0.89687 0.48673 0.0
H686 H 0.46546 0.88481 0.47972 0.0
H687 H 0.46154 0.9136 0.50036 0.0
H688 H 0.51804 0.85803 0.48757 0.0
H689 H 0.47919 0.88719 0.42842 0.0
H690 H 0.48626 0.90217 0.44914 0.0
H691 H 0.46474 0.88512 0.44727 0.0
C692 C 0.51181 0.91658 0.50165 0.0
C693 C 0.49295 0.92173 0.50547 0.0
C694 C 0.51401 0.90034 0.48972 0.0
C695 C 0.49738 0.88889 0.48147 0.0
C696 C 0.47848 0.89371 0.48563 0.0
H697 H 0.50953 0.77788 0.41653 0.0
H698 H 0.50249 0.80133 0.44126 0.0
C699 C 0.47626 0.91011 0.49745 0.0
C700 C 0.50002 0.87218 0.46828 0.0
H701 H 0.49034 0.85555 0.4241 0.0
C702 C 0.51192 0.8574 0.47369 0.0
C703 C 0.49212 0.87151 0.45018 0.0
C704 C 0.48001 0.88741 0.44331 0.0
C705 C 0.51652 0.84221 0.46139 0.0
C706 C 0.50864 0.84158 0.44329 0.0
C707 C 0.49632 0.85606 0.43801 0.0
C708 C 0.51403 0.82698 0.4292 0.0
C709 C 0.53039 0.82746 0.4677 0.0
C710 C 0.52282 0.8336 0.41427 0.0
C711 C 0.52659 0.82034 0.40011 0.0
C712 C 0.52175 0.80011 0.40061 0.0
C713 C 0.51357 0.79336 0.41585 0.0
C714 C 0.50959 0.80673 0.43 0.0
H715 H 0.53863 0.8326 0.48082 0.0
H716 H 0.52175 0.81347 0.46937 0.0
H717 H 0.54118 0.82438 0.45769 0.0
H718 H 0.52645 0.84914 0.41341 0.0
H719 H 0.533 0.826 0.38861 0.0
H720 H 0.22202 0.29575 0.78528 0.0
H721 H 0.19449 0.28618 0.80262 0.0
H722 H 0.17665 0.23746 0.76322 0.0
H723 H 0.20381 0.24729 0.74561 0.0
H724 H 0.14647 0.25815 0.77007 0.0
H725 H 0.18442 0.24303 0.83495 0.0
H726 H 0.19219 0.2669 0.82869 0.0
H727 H 0.19729 0.24535 0.81499 0.0
C728 C 0.21235 0.28285 0.78046 0.0
C729 C 0.21501 0.27234 0.76409 0.0
C730 C 0.19674 0.27727 0.79047 0.0
C731 C 0.18368 0.26087 0.78441 0.0
C732 C 0.18661 0.25008 0.76823 0.0
H733 H 0.08196 0.22426 0.84396 0.0
H734 H 0.11331 0.22322 0.82983 0.0
C735 C 0.20212 0.25575 0.75816 0.0
C736 C 0.16585 0.25624 0.79395 0.0
H737 H 0.15004 0.24961 0.83539 0.0
C738 C 0.14731 0.25595 0.78428 0.0
C739 C 0.16686 0.2531 0.81246 0.0
C740 C 0.18628 0.25189 0.82332 0.0
C741 C 0.12982 0.25364 0.79278 0.0
C742 C 0.13086 0.25194 0.81151 0.0
C743 C 0.14931 0.25116 0.82105 0.0
C744 C 0.11297 0.25272 0.82146 0.0
C745 C 0.11032 0.25349 0.78167 0.0
C746 C 0.10285 0.26982 0.82189 0.0
C747 C 0.08511 0.27045 0.82984 0.0
C748 C 0.07708 0.254 0.83766 0.0
C749 C 0.08772 0.23713 0.83799 0.0
C750 C 0.10559 0.23651 0.82993 0.0
H751 H 0.11175 0.24927 0.76723 0.0
H752 H 0.09902 0.24317 0.78652 0.0
H753 H 0.10499 0.26844 0.78279 0.0
H754 H 0.10851 0.28261 0.81573 0.0
H755 H 0.0775 0.28379 0.82954 0.0
H756 H 0.54509 0.59388 0.51165 0.0
H757 H 0.5399 0.61931 0.49082 0.0
H758 H 0.56197 0.58268 0.44862 0.0
H759 H 0.56696 0.55717 0.46928 0.0
H760 H 0.56748 0.6393 0.47154 0.0
H761 H 0.50927 0.59707 0.42519 0.0
H762 H 0.5165 0.58978 0.44726 0.0
H763 H 0.53123 0.58442 0.42887 0.0
C764 C 0.54874 0.59121 0.49792 0.0
C765 C 0.55631 0.57347 0.49203 0.0
C766 C 0.54579 0.60577 0.48604 0.0
C767 C 0.55023 0.60277 0.46808 0.0
C768 C 0.55802 0.58516 0.46229 0.0
H769 H 0.54904 0.66912 0.37436 0.0
H770 H 0.55247 0.64475 0.39637 0.0
C771 C 0.56097 0.57064 0.47413 0.0
C772 C 0.54719 0.61819 0.45545 0.0
H773 H 0.52338 0.62663 0.4152 0.0
C774 C 0.55772 0.63661 0.4593 0.0
C775 C 0.53446 0.61464 0.43946 0.0
C776 C 0.52207 0.59547 0.43499 0.0
C777 C 0.5563 0.65137 0.44734 0.0
C778 C 0.54375 0.64773 0.43124 0.0
C779 C 0.53305 0.62938 0.4275 0.0
C780 C 0.54164 0.66266 0.41799 0.0
C781 C 0.56869 0.67054 0.45179 0.0
C782 C 0.53417 0.68075 0.42275 0.0
C783 C 0.5322 0.69474 0.4102 0.0
C784 C 0.53756 0.69087 0.39258 0.0
C785 C 0.54482 0.67263 0.3878 0.0
C786 C 0.54678 0.65866 0.40037 0.0
H787 H 0.58101 0.66921 0.46216 0.0
H788 H 0.57493 0.67575 0.43961 0.0
H789 H 0.5593 0.68185 0.45711 0.0
H790 H 0.52973 0.68402 0.43616 0.0
H791 H 0.52646 0.70858 0.41433 0.0
H792 H 0.86995 0.81345 0.76723 0.0
H793 H 0.89028 0.80579 0.7427 0.0
H794 H 0.93606 0.78926 0.78044 0.0
H795 H 0.91565 0.79705 0.80531 0.0
H796 H 0.9491 0.81558 0.75511 0.0
H797 H 0.90303 0.75117 0.72156 0.0
H798 H 0.88914 0.77199 0.7263 0.0
H799 H 0.90084 0.76029 0.74455 0.0
C800 C 0.88429 0.80811 0.77038 0.0
C801 C 0.89127 0.80586 0.78821 0.0
C802 C 0.89584 0.80361 0.7563 0.0
C803 C 0.91453 0.7967 0.75975 0.0
C804 C 0.92159 0.79445 0.77753 0.0
H805 H 0.99886 0.77885 0.67752 0.0
H806 H 0.98477 0.77995 0.70664 0.0
C807 C 0.90996 0.79888 0.79167 0.0
C808 C 0.92685 0.79278 0.74469 0.0
H809 H 0.92587 0.76721 0.70362 0.0
C810 C 0.94429 0.80476 0.74398 0.0
C811 C 0.92051 0.77859 0.73026 0.0
C812 C 0.90245 0.76464 0.73074 0.0
C813 C 0.9549 0.80377 0.72866 0.0
C814 C 0.94795 0.79028 0.71386 0.0
C815 C 0.93106 0.77764 0.71496 0.0
C816 C 0.95698 0.79008 0.69655 0.0
C817 C 0.97284 0.81783 0.72801 0.0
C818 C 0.94597 0.7953 0.68129 0.0
C819 C 0.9539 0.79466 0.66469 0.0
C820 C 0.97303 0.78868 0.66299 0.0
C821 C 0.98414 0.78361 0.67838 0.0
C822 C 0.97614 0.78427 0.69503 0.0
H823 H 0.97443 0.82938 0.73942 0.0
H824 H 0.98627 0.80956 0.72859 0.0
H825 H 0.97206 0.82501 0.71522 0.0
H826 H 0.93114 0.79982 0.68221 0.0
H827 H 0.94492 0.79865 0.65314 0.0
H828 H 0.11377 0.92457 0.50142 0.0
H829 H 0.10372 0.90428 0.52519 0.0
H830 H 0.04885 0.88592 0.49368 0.0
H831 H 0.05873 0.90622 0.46994 0.0
H832 H 0.06716 0.90778 0.54349 0.0
H833 H 0.07319 0.83403 0.50857 0.0
H834 H 0.0859 0.85608 0.50209 0.0
H835 H 0.05999 0.85083 0.49576 0.0
C836 C 0.09963 0.91608 0.49955 0.0
C837 C 0.08704 0.91693 0.48388 0.0
C838 C 0.09392 0.90456 0.5131 0.0
C839 C 0.07564 0.89354 0.51108 0.0
C840 C 0.06312 0.89419 0.49536 0.0
H841 H -0.0002 0.84065 0.58154 0.0
H842 H 0.01695 0.86197 0.5622 0.0
C843 C 0.06875 0.90583 0.48186 0.0
C844 C 0.06929 0.8819 0.52568 0.0
H845 H 0.05706 0.83505 0.53556 0.0
C846 C 0.06511 0.89187 0.54185 0.0
C847 C 0.06687 0.86117 0.52351 0.0
C848 C 0.07186 0.8498 0.50661 0.0
C849 C 0.0578 0.88162 0.55573 0.0
C850 C 0.0546 0.86094 0.55326 0.0
C851 C 0.05949 0.85093 0.53735 0.0
C852 C 0.04502 0.84947 0.56651 0.0
C853 C 0.05339 0.89294 0.57284 0.0
C854 C 0.05521 0.83548 0.57543 0.0
C855 C 0.04548 0.82331 0.58659 0.0
C856 C 0.02531 0.82474 0.58875 0.0
C857 C 0.01533 0.83916 0.58016 0.0
C858 C 0.02511 0.85142 0.56916 0.0
H859 H 0.06098 0.90795 0.57439 0.0
H860 H 0.03725 0.89436 0.5726 0.0
H861 H 0.05791 0.88509 0.58474 0.0
H862 H 0.07058 0.83372 0.57344 0.0
H863 H 0.05356 0.81229 0.59295 0.0
H864 H 0.19394 0.74323 0.74681 0.0
H865 H 0.16574 0.74897 0.72614 0.0
H866 H 0.18467 0.70706 0.68629 0.0
H867 H 0.21283 0.70099 0.70707 0.0
H868 H 0.16586 0.76256 0.69215 0.0
H869 H 0.12682 0.68818 0.68899 0.0
H870 H 0.14656 0.69654 0.70597 0.0
H871 H 0.15203 0.68855 0.68361 0.0
C872 C 0.19208 0.73516 0.73368 0.0
C873 C 0.20553 0.72157 0.72854 0.0
C874 C 0.17596 0.73848 0.72189 0.0
C875 C 0.17296 0.72824 0.70479 0.0
C876 C 0.18648 0.71482 0.69956 0.0
H877 H 0.0807 0.73379 0.6176 0.0
H878 H 0.11069 0.72668 0.63545 0.0
C879 C 0.2026 0.71145 0.71138 0.0
C880 C 0.1559 0.73204 0.69235 0.0
H881 H 0.11334 0.71054 0.66976 0.0
C882 C 0.15437 0.75119 0.68725 0.0
C883 C 0.141 0.71715 0.68593 0.0
C884 C 0.14151 0.69648 0.6915 0.0
C885 C 0.1383 0.75587 0.67591 0.0
C886 C 0.12326 0.74106 0.66972 0.0
C887 C 0.12494 0.72183 0.67454 0.0
C888 C 0.10526 0.74545 0.65885 0.0
C889 C 0.13761 0.77661 0.67055 0.0
C890 C 0.0922 0.75815 0.66621 0.0
C891 C 0.07508 0.76221 0.6561 0.0
C892 C 0.07066 0.75358 0.63843 0.0
C893 C 0.08372 0.74073 0.63113 0.0
C894 C 0.10083 0.73663 0.6413 0.0
H895 H 0.15241 0.78474 0.67246 0.0
H896 H 0.13178 0.7767 0.65628 0.0
H897 H 0.12764 0.78459 0.67903 0.0
H898 H 0.09518 0.76483 0.67984 0.0
H899 H 0.06532 0.7721 0.66218 0.0
H900 H 0.92503 0.60286 0.48488 0.0
H901 H 0.93435 0.63073 0.50715 0.0
H902 H 0.99509 0.61656 0.50882 0.0
H903 H 0.98589 0.58878 0.48637 0.0
H904 H 0.95138 0.6303 0.54156 0.0
H905 H 0.99967 0.67468 0.50113 0.0
H906 H 0.98334 0.6541 0.49126 0.0
H907 H 0.00643 0.65005 0.50321 0.0
C908 C 0.94038 0.60572 0.48998 0.0
C909 C 0.95476 0.59372 0.48387 0.0
C910 C 0.94568 0.62164 0.50266 0.0
C911 C 0.96544 0.62584 0.50946 0.0
C912 C 0.97984 0.61384 0.50344 0.0
H913 H 0.0163 0.71948 0.58998 0.0
H914 H 0.01152 0.68877 0.57039 0.0
C915 C 0.97456 0.59798 0.49065 0.0
C916 C 0.97075 0.64249 0.52323 0.0
H917 H 0.99782 0.68663 0.5314 0.0
C918 C 0.96157 0.64259 0.53935 0.0
C919 C 0.98412 0.65845 0.52033 0.0
C920 C 0.99385 0.65948 0.503 0.0
C921 C 0.96521 0.65837 0.55258 0.0
C922 C 0.97826 0.67446 0.54952 0.0
C923 C 0.98788 0.67416 0.53366 0.0
C924 C 0.98099 0.69238 0.56203 0.0
C925 C 0.95498 0.65784 0.56968 0.0
C926 C 0.96538 0.70447 0.56369 0.0
C927 C 0.96806 0.722 0.57471 0.0
C928 C 0.98641 0.72774 0.58431 0.0
C929 C 0.00196 0.71542 0.58282 0.0
C930 C 0.9993 0.69792 0.57164 0.0
H931 H 0.94913 0.64272 0.57179 0.0
H932 H 0.96522 0.66362 0.58149 0.0
H933 H 0.94241 0.66727 0.56891 0.0
H934 H 0.95121 0.70051 0.55619 0.0
H935 H 0.95578 0.73114 0.57556 0.0
H936 H 0.7697 0.82644 0.18548 0.0
H937 H 0.7885 0.85845 0.18839 0.0
H938 H 0.80622 0.85088 0.24383 0.0
H939 H 0.7879 0.81855 0.24089 0.0
H940 H 0.78435 0.89136 0.21132 0.0
H941 H 0.8588 0.86463 0.22304 0.0
H942 H 0.83741 0.84854 0.21453 0.0
H943 H 0.84165 0.85599 0.23817 0.0
C944 C 0.77778 0.83149 0.19825 0.0
C945 C 0.77747 0.81986 0.21292 0.0
C946 C 0.78841 0.84982 0.1999 0.0
C947 C 0.79904 0.85687 0.21622 0.0
C948 C 0.79845 0.84552 0.231 0.0
H949 H 0.84105 0.97134 0.26051 0.0
H950 H 0.8225 0.94042 0.24978 0.0
C951 C 0.78778 0.82716 0.22937 0.0
C952 C 0.81034 0.87632 0.21788 0.0
H953 H 0.85635 0.8991 0.2291 0.0
C954 C 0.80013 0.89305 0.21504 0.0
C955 C 0.83098 0.87846 0.22237 0.0
C956 C 0.84292 0.86094 0.22453 0.0
C957 C 0.80986 0.91194 0.21737 0.0
C958 C 0.83028 0.91415 0.2229 0.0
C959 C 0.84067 0.89738 0.22495 0.0
C960 C 0.84077 0.9337 0.22815 0.0
C961 C 0.79817 0.92939 0.21407 0.0
C962 C 0.85734 0.94018 0.21959 0.0
C963 C 0.86809 0.95798 0.22573 0.0
C964 C 0.86257 0.96936 0.2407 0.0
C965 C 0.84573 0.96294 0.24895 0.0
C966 C 0.83499 0.94531 0.24276 0.0
H967 H 0.78475 0.92515 0.20477 0.0
H968 H 0.79334 0.93554 0.22701 0.0
H969 H 0.80722 0.9411 0.20836 0.0
H970 H 0.86211 0.93132 0.20835 0.0
H971 H 0.88105 0.96246 0.21916 0.0
H972 H 0.78344 0.20605 0.25396 0.0
H973 H 0.8086 0.18365 0.24647 0.0
H974 H 0.80739 0.16165 0.29875 0.0
H975 H 0.78198 0.18362 0.30623 0.0
H976 H 0.84684 0.17131 0.28651 0.0
H977 H 0.79656 0.12259 0.23686 0.0
H978 H 0.79802 0.14858 0.23447 0.0
H979 H 0.78729 0.13928 0.25349 0.0
C980 C 0.78844 0.19637 0.26383 0.0
C981 C 0.78059 0.19659 0.28068 0.0
C982 C 0.80286 0.18364 0.25954 0.0
C983 C 0.80971 0.17091 0.27201 0.0
C984 C 0.8023 0.17141 0.28896 0.0
H985 H 0.87507 0.07587 0.29206 0.0
H986 H 0.8597 0.10675 0.29152 0.0
C987 C 0.78784 0.18406 0.29324 0.0
C988 C 0.82423 0.15662 0.26741 0.0
H989 H 0.82831 0.11266 0.24368 0.0
C990 C 0.84292 0.15862 0.27695 0.0
C991 C 0.81914 0.14023 0.25478 0.0
C992 C 0.79915 0.13735 0.24431 0.0
C993 C 0.85638 0.14421 0.27474 0.0
C994 C 0.85081 0.12717 0.26299 0.0
C995 C 0.83257 0.12573 0.25267 0.0
C996 C 0.86226 0.10954 0.26321 0.0
C997 C 0.87628 0.14716 0.28536 0.0
C998 C 0.86876 0.10065 0.2474 0.0
C999 C 0.87761 0.08277 0.24764 0.0
C1000 C 0.87973 0.07338 0.26365 0.0
C1001 C 0.87363 0.08264 0.27948 0.0
C1002 C 0.86498 0.10045 0.27925 0.0
H1003 H 0.88099 0.16303 0.28827 0.0
H1004 H 0.87529 0.14071 0.29842 0.0
H1005 H 0.88774 0.13994 0.27808 0.0
H1006 H 0.8666 0.10735 0.23484 0.0
H1007 H 0.88206 0.07594 0.23523 0.0
H1008 H 0.41942 0.03461 0.99523 0.0
H1009 H 0.39311 0.01059 0.00129 0.0
H1010 H 0.37249 0.00413 0.94501 0.0
H1011 H 0.39901 0.0281 0.9388 0.0
H1012 H 0.3523 0.00864 0.99567 0.0
H1013 H 0.38347 0.94832 0.95548 0.0
H1014 H 0.39685 0.9719 0.96138 0.0
H1015 H 0.37745 0.96905 0.94343 0.0
C1016 C 0.40912 0.02828 0.98416 0.0
C1017 C 0.41134 0.03314 0.96651 0.0
C1018 C 0.39411 0.01454 0.98765 0.0
C1019 C 0.38102 0.00539 0.97357 0.0
C1020 C 0.38269 0.01075 0.95602 0.0
H1021 H 0.28225 0.92195 0.99422 0.0
H1022 H 0.30053 0.95159 0.98592 0.0
C1023 C 0.39782 0.02442 0.95249 0.0
C1024 C 0.3664 0.98951 0.97732 0.0
H1025 H 0.35477 0.94015 0.96949 0.0
C1026 C 0.35268 0.99368 0.98985 0.0
C1027 C 0.36711 0.96999 0.96981 0.0
C1028 C 0.38209 0.96443 0.95689 0.0
C1029 C 0.33994 0.97873 0.9954 0.0
C1030 C 0.34081 0.95921 0.988 0.0
C1031 C 0.35413 0.95517 0.9751 0.0
C1032 C 0.32929 0.94238 0.9944 0.0
C1033 C 0.32627 0.98378 0.00965 0.0
C1034 C 0.33939 0.92749 0.002 0.0
C1035 C 0.32907 0.91058 0.00656 0.0
C1036 C 0.30838 0.90818 0.00366 0.0
C1037 C 0.29817 0.92344 0.99671 0.0
C1038 C 0.30858 0.94039 0.992 0.0
H1039 H 0.33013 0.99873 0.01645 0.0
H1040 H 0.31093 0.98326 0.00334 0.0
H1041 H 0.32664 0.97297 0.01994 0.0
H1042 H 0.35536 0.92878 0.00403 0.0
H1043 H 0.33738 0.89917 0.012 0.0
H1044 H 0.30984 0.34871 0.2922 0.0
H1045 H 0.2819 0.36804 0.28518 0.0
H1046 H 0.28778 0.39481 0.33964 0.0
H1047 H 0.3156 0.37516 0.34683 0.0
H1048 H 0.25057 0.38203 0.32942 0.0
H1049 H 0.27939 0.42495 0.27639 0.0
H1050 H 0.28078 0.3991 0.27128 0.0
H1051 H 0.29505 0.41146 0.29072 0.0
C1052 C 0.3054 0.35898 0.30258 0.0
C1053 C 0.31494 0.36053 0.32003 0.0
C1054 C 0.28948 0.37008 0.29854 0.0
C1055 C 0.28299 0.38318 0.31178 0.0
C1056 C 0.29263 0.38489 0.32919 0.0
H1057 H 0.18997 0.46104 0.28551 0.0
H1058 H 0.22169 0.4487 0.29501 0.0
C1059 C 0.30846 0.37365 0.33329 0.0
C1060 C 0.26524 0.39391 0.30778 0.0
H1061 H 0.24414 0.42291 0.27777 0.0
C1062 C 0.24927 0.39118 0.31826 0.0
C1063 C 0.26364 0.4061 0.29341 0.0
C1064 C 0.28072 0.41075 0.28244 0.0
C1065 C 0.23146 0.39964 0.31432 0.0
C1066 C 0.22942 0.41071 0.29921 0.0
C1067 C 0.24565 0.41416 0.28919 0.0
C1068 C 0.21034 0.41823 0.29326 0.0
C1069 C 0.21503 0.3966 0.32641 0.0
C1070 C 0.19359 0.40515 0.28876 0.0
C1071 C 0.17548 0.41213 0.28346 0.0
C1072 C 0.17381 0.43234 0.28229 0.0
C1073 C 0.19075 0.4454 0.28632 0.0
C1074 C 0.20887 0.43838 0.29175 0.0
H1075 H 0.22083 0.39342 0.34007 0.0
H1076 H 0.20637 0.40971 0.32763 0.0
H1077 H 0.20493 0.38384 0.32066 0.0
H1078 H 0.19452 0.38949 0.28935 0.0
H1079 H 0.16279 0.40164 0.28026 0.0
H1080 H 0.12149 0.00386 0.42223 0.0
H1081 H 0.14222 0.03364 0.43297 0.0
H1082 H 0.12002 0.03211 0.48518 0.0
H1083 H 0.09892 0.00229 0.47445 0.0
H1084 H 0.12989 0.07079 0.44877 0.0
H1085 H 0.18144 0.03409 0.49463 0.0
H1086 H 0.16537 0.02028 0.47701 0.0
H1087 H 0.15534 0.03053 0.49676 0.0
C1088 C 0.12085 0.00993 0.43596 0.0
C1089 C 0.10858 0.00072 0.4475 0.0
C1090 C 0.13273 0.02691 0.44207 0.0
C1091 C 0.13266 0.03498 0.45985 0.0
C1092 C 0.12039 0.02595 0.47145 0.0
H1093 H 0.22752 0.12558 0.49899 0.0
H1094 H 0.19566 0.10668 0.49964 0.0
C1095 C 0.10844 0.00891 0.46533 0.0
C1096 C 0.14592 0.05261 0.46604 0.0
H1097 H 0.19051 0.06652 0.48911 0.0
C1098 C 0.14295 0.07003 0.45789 0.0
C1099 C 0.16278 0.0516 0.47811 0.0
C1100 C 0.16661 0.03315 0.48714 0.0
C1101 C 0.15709 0.0861 0.4606 0.0
C1102 C 0.17473 0.08449 0.47146 0.0
C1103 C 0.17697 0.06766 0.48075 0.0
C1104 C 0.19223 0.09842 0.47101 0.0
C1105 C 0.15337 0.10435 0.45123 0.0
C1106 C 0.2007 0.10014 0.4547 0.0
C1107 C 0.21884 0.11072 0.4543 0.0
C1108 C 0.22893 0.1198 0.47023 0.0
C1109 C 0.22004 0.11881 0.48649 0.0
C1110 C 0.20188 0.10803 0.48689 0.0
H1111 H 0.13731 0.10615 0.44905 0.0
H1112 H 0.16071 0.1177 0.45906 0.0
H1113 H 0.15932 0.10307 0.43786 0.0
H1114 H 0.19372 0.09249 0.44236 0.0
H1115 H 0.22527 0.11124 0.44157 0.0
H1116 H 0.7762 0.14369 0.7328 0.0
H1117 H 0.75213 0.11685 0.73763 0.0
H1118 H 0.7057 0.15639 0.73553 0.0
H1119 H 0.72971 0.18348 0.73108 0.0
H1120 H 0.72633 0.1166 0.76692 0.0
H1121 H 0.68537 0.10838 0.69909 0.0
H1122 H 0.70989 0.12053 0.70328 0.0
H1123 H 0.68899 0.13286 0.71005 0.0
C1124 C 0.76089 0.14673 0.73345 0.0
C1125 C 0.7549 0.16576 0.73158 0.0
C1126 C 0.74716 0.13135 0.73611 0.0
C1127 C 0.72716 0.13464 0.73677 0.0
C1128 C 0.72104 0.15352 0.73477 0.0
H1129 H 0.62452 0.05527 0.75002 0.0
H1130 H 0.64655 0.08416 0.74613 0.0
C1131 C 0.73478 0.16895 0.73218 0.0
C1132 C 0.71284 0.1184 0.74018 0.0
H1133 H 0.67322 0.08874 0.72089 0.0
C1134 C 0.7147 0.11048 0.75688 0.0
C1135 C 0.69764 0.11062 0.72708 0.0
C1136 C 0.69533 0.11838 0.7088 0.0
C1137 C 0.70169 0.09495 0.76088 0.0
C1138 C 0.68673 0.08684 0.74764 0.0
C1139 C 0.68471 0.09497 0.73101 0.0
C1140 C 0.67342 0.06954 0.75055 0.0
C1141 C 0.70393 0.08757 0.77934 0.0
C1142 C 0.68122 0.05172 0.75419 0.0
C1143 C 0.66871 0.03525 0.75653 0.0
C1144 C 0.64811 0.0362 0.75505 0.0
C1145 C 0.64031 0.05406 0.7513 0.0
C1146 C 0.65287 0.07057 0.74905 0.0
H1147 H 0.71179 0.09888 0.78936 0.0
H1148 H 0.68936 0.08317 0.78403 0.0
H1149 H 0.71274 0.07456 0.77883 0.0
H1150 H 0.697 0.05045 0.75497 0.0
H1151 H 0.67521 0.02169 0.75924 0.0
H1152 H 0.45839 0.02913 0.55455 0.0
H1153 H 0.43501 0.0538 0.54853 0.0
H1154 H 0.39258 0.00842 0.52293 0.0
H1155 H 0.41563 0.98359 0.52939 0.0
H1156 H 0.4197 0.06215 0.51514 0.0
H1157 H 0.35956 0.03966 0.5565 0.0
H1158 H 0.384 0.03118 0.55953 0.0
H1159 H 0.36654 0.01983 0.54181 0.0
C1160 C 0.44393 0.02435 0.54796 0.0
C1161 C 0.43883 0.00439 0.54249 0.0
C1162 C 0.43065 0.03848 0.54445 0.0
C1163 C 0.41198 0.0329 0.53553 0.0
C1164 C 0.40677 0.01299 0.53017 0.0
H1165 H 0.33473 0.09393 0.46921 0.0
H1166 H 0.35923 0.07419 0.48291 0.0
C1167 C 0.42005 0.99885 0.53365 0.0
C1168 C 0.39847 0.04801 0.53068 0.0
H1169 H 0.35147 0.06132 0.5338 0.0
C1170 C 0.40487 0.06213 0.5194 0.0
C1171 C 0.37923 0.04812 0.53647 0.0
C1172 C 0.37196 0.03401 0.54939 0.0
C1173 C 0.39222 0.07582 0.51309 0.0
C1174 C 0.37261 0.07515 0.51799 0.0
C1175 C 0.36648 0.06165 0.52994 0.0
C1176 C 0.35793 0.0875 0.50991 0.0
C1177 C 0.39988 0.09073 0.50104 0.0
C1178 C 0.34879 0.10127 0.52065 0.0
C1179 C 0.33468 0.11263 0.51285 0.0
C1180 C 0.32937 0.1102 0.49422 0.0
C1181 C 0.33851 0.09626 0.48358 0.0
C1182 C 0.35261 0.08501 0.49137 0.0
H1183 H 0.41625 0.09299 0.50273 0.0
H1184 H 0.39547 0.0854 0.48681 0.0
H1185 H 0.39362 0.10509 0.5038 0.0
H1186 H 0.35264 0.10327 0.53503 0.0
H1187 H 0.32785 0.12317 0.52142 0.0
H1188 H 0.60357 0.50829 0.57153 0.0
H1189 H 0.6293 0.48551 0.56751 0.0
H1190 H 0.60833 0.47341 0.51159 0.0
H1191 H 0.5827 0.49626 0.51548 0.0
H1192 H 0.6269 0.44622 0.55682 0.0
H1193 H 0.66643 0.48795 0.50829 0.0
H1194 H 0.64776 0.49826 0.52109 0.0
H1195 H 0.64079 0.48178 0.50134 0.0
C1196 C 0.60438 0.50069 0.5584 0.0
C1197 C 0.59117 0.5042 0.5438 0.0
C1198 C 0.61914 0.48773 0.5561 0.0
C1199 C 0.62101 0.47802 0.53917 0.0
C1200 C 0.60754 0.48113 0.52467 0.0
H1201 H 0.70274 0.39411 0.50136 0.0
H1202 H 0.67474 0.41443 0.50419 0.0
C1203 C 0.59286 0.49416 0.52693 0.0
C1204 C 0.63693 0.4645 0.53676 0.0
H1205 H 0.67695 0.45639 0.51322 0.0
C1206 C 0.63787 0.44848 0.54732 0.0
C1207 C 0.65125 0.46743 0.52433 0.0
C1208 C 0.65168 0.48488 0.51323 0.0
C1209 C 0.6526 0.43525 0.5457 0.0
C1210 C 0.66691 0.43821 0.53332 0.0
C1211 C 0.66589 0.4541 0.52264 0.0
C1212 C 0.68351 0.42543 0.53175 0.0
C1213 C 0.65264 0.41807 0.55712 0.0
C1214 C 0.69779 0.425 0.54625 0.0
C1215 C 0.71381 0.4135 0.54466 0.0
C1216 C 0.71591 0.40218 0.52851 0.0
C1217 C 0.70153 0.40258 0.514 0.0
C1218 C 0.68554 0.4142 0.51558 0.0
H1219 H 0.63813 0.41509 0.56254 0.0
H1220 H 0.65639 0.40459 0.5493 0.0
H1221 H 0.66395 0.42139 0.56867 0.0
H1222 H 0.69669 0.4338 0.55874 0.0
H1223 H 0.72461 0.41361 0.55609 0.0
H1224 H 0.77877 0.25031 0.32824 0.0
H1225 H 0.77739 0.26684 0.35827 0.0
H1226 H 0.71521 0.24926 0.3563 0.0
H1227 H 0.71656 0.23224 0.3265 0.0
H1228 H 0.75374 0.29756 0.36834 0.0
H1229 H 0.73756 0.23117 0.40444 0.0
H1230 H 0.74666 0.22986 0.38243 0.0
H1231 H 0.72119 0.23368 0.38486 0.0
C1232 C 0.76486 0.24973 0.3343 0.0
C1233 C 0.74779 0.23991 0.32499 0.0
C1234 C 0.76406 0.2593 0.35139 0.0
C1235 C 0.74624 0.25913 0.35956 0.0
C1236 C 0.72917 0.24937 0.35033 0.0
H1237 H 0.73419 0.33752 0.45696 0.0
H1238 H 0.7264 0.31963 0.42717 0.0
C1239 C 0.72994 0.23981 0.33324 0.0
C1240 C 0.74552 0.26944 0.37763 0.0
H1241 H 0.73836 0.26189 0.42124 0.0
C1242 C 0.75024 0.28981 0.3799 0.0
C1243 C 0.74101 0.25924 0.39267 0.0
C1244 C 0.73646 0.23726 0.39111 0.0
C1245 C 0.75094 0.30023 0.39689 0.0
C1246 C 0.74654 0.29002 0.41195 0.0
C1247 C 0.74147 0.2697 0.40962 0.0
C1248 C 0.74945 0.29972 0.43048 0.0
C1249 C 0.75719 0.32193 0.39872 0.0
C1250 C 0.76443 0.29395 0.44239 0.0
C1251 C 0.76884 0.30403 0.4593 0.0
C1252 C 0.75829 0.32008 0.46474 0.0
C1253 C 0.7426 0.32526 0.45314 0.0
C1254 C 0.73823 0.31515 0.4361 0.0
H1255 H 0.76322 0.32689 0.38635 0.0
H1256 H 0.74424 0.33031 0.4014 0.0
H1257 H 0.76855 0.32557 0.4102 0.0
H1258 H 0.77321 0.28204 0.43836 0.0
H1259 H 0.78091 0.29951 0.46794 0.0
H1260 H 0.50347 0.04679 0.92027 0.0
H1261 H 0.52774 0.03799 0.89928 0.0
H1262 H 0.48176 0.00557 0.8637 0.0
H1263 H 0.45731 0.01441 0.88464 0.0
H1264 H 0.53655 0.99954 0.88695 0.0
H1265 H 0.5103 0.04232 0.831 0.0
H1266 H 0.50336 0.04688 0.85364 0.0
H1267 H 0.49141 0.02659 0.83918 0.0
C1268 C 0.49848 0.03788 0.90794 0.0
C1269 C 0.47847 0.03134 0.90399 0.0
C1270 C 0.51238 0.03286 0.89599 0.0
C1271 C 0.50648 0.02138 0.87986 0.0
C1272 C 0.48653 0.01475 0.87594 0.0
H1273 H 0.56976 0.9512 0.80827 0.0
H1274 H 0.54999 0.9645 0.83142 0.0
C1275 C 0.47263 0.01971 0.88792 0.0
C1276 C 0.52128 0.01577 0.8674 0.0
H1277 H 0.53369 0.01909 0.82446 0.0
C1278 C 0.53605 0.00393 0.87333 0.0
C1279 C 0.52071 0.02177 0.84975 0.0
C1280 C 0.50572 0.03524 0.84301 0.0
C1281 C 0.54988 0.99732 0.8618 0.0
C1282 C 0.54874 0.00258 0.8439 0.0
C1283 C 0.53442 0.015 0.83818 0.0
C1284 C 0.56165 0.99459 0.83063 0.0
C1285 C 0.56555 0.98472 0.86884 0.0
C1286 C 0.57462 0.00717 0.82242 0.0
C1287 C 0.58598 0.99963 0.80914 0.0
C1288 C 0.58433 0.97939 0.80371 0.0
C1289 C 0.57142 0.96685 0.81213 0.0
C1290 C 0.56018 0.97439 0.82544 0.0
H1291 H 0.56769 0.98635 0.88376 0.0
H1292 H 0.56098 0.96907 0.86455 0.0
H1293 H 0.57987 0.98849 0.86337 0.0
H1294 H 0.57584 0.02284 0.8262 0.0
H1295 H 0.59572 0.00969 0.80287 0.0
H1296 H 0.33646 0.33498 0.37767 0.0
H1297 H 0.33116 0.31361 0.40189 0.0
H1298 H 0.34472 0.26369 0.36756 0.0
H1299 H 0.34988 0.2848 0.34336 0.0
H1300 H 0.30331 0.28203 0.40062 0.0
H1301 H 0.37824 0.25751 0.41395 0.0
H1302 H 0.37358 0.27861 0.40168 0.0
H1303 H 0.3699 0.25421 0.3905 0.0
C1304 C 0.33846 0.31946 0.37535 0.0
C1305 C 0.34371 0.3116 0.35863 0.0
C1306 C 0.3355 0.30732 0.38921 0.0
C1307 C 0.33788 0.28714 0.38662 0.0
C1308 C 0.34334 0.27931 0.37002 0.0
H1309 H 0.30866 0.17767 0.42255 0.0
H1310 H 0.31905 0.20723 0.40872 0.0
C1311 C 0.34629 0.29141 0.35619 0.0
C1312 C 0.33325 0.27387 0.40063 0.0
H1313 H 0.35141 0.23672 0.42313 0.0
C1314 C 0.31392 0.27241 0.4059 0.0
C1315 C 0.34717 0.26144 0.40756 0.0
C1316 C 0.36844 0.26315 0.40328 0.0
C1317 C 0.30779 0.25788 0.41691 0.0
C1318 C 0.32141 0.24468 0.42287 0.0
C1319 C 0.341 0.24685 0.41845 0.0
C1320 C 0.31509 0.22711 0.43181 0.0
C1321 C 0.28654 0.25595 0.42122 0.0
C1322 C 0.30945 0.22855 0.44944 0.0
C1323 C 0.30347 0.21158 0.4575 0.0
C1324 C 0.30304 0.19298 0.44797 0.0
C1325 C 0.30874 0.19173 0.4303 0.0
C1326 C 0.31476 0.2086 0.42235 0.0
H1327 H 0.27741 0.26626 0.41416 0.0
H1328 H 0.28008 0.2407 0.41742 0.0
H1329 H 0.28581 0.25902 0.43591 0.0
H1330 H 0.30977 0.24276 0.45698 0.0
H1331 H 0.29921 0.21303 0.47112 0.0
H1332 H 0.56894 0.44383 0.88602 0.0
H1333 H 0.54811 0.44677 0.85819 0.0
H1334 H 0.54329 0.50802 0.87424 0.0
H1335 H 0.5642 0.50524 0.90174 0.0
H1336 H 0.51098 0.45568 0.85416 0.0
H1337 H 0.55631 0.51144 0.82326 0.0
H1338 H 0.56604 0.49859 0.84175 0.0
H1339 H 0.55261 0.52002 0.84587 0.0
C1340 C 0.56348 0.45792 0.88351 0.0
C1341 C 0.56831 0.47435 0.89595 0.0
C1342 C 0.55171 0.45961 0.86759 0.0
C1343 C 0.54458 0.47775 0.86389 0.0
C1344 C 0.54921 0.49407 0.87644 0.0
H1345 H 0.43837 0.50839 0.81582 0.0
H1346 H 0.46677 0.49801 0.83325 0.0
C1347 C 0.56105 0.49243 0.89223 0.0
C1348 C 0.53092 0.47945 0.84774 0.0
H1349 H 0.52092 0.50964 0.81454 0.0
C1350 C 0.51337 0.4672 0.84525 0.0
C1351 C 0.53418 0.49415 0.8358 0.0
C1352 C 0.55343 0.50662 0.83669 0.0
C1353 C 0.49835 0.4703 0.83211 0.0
C1354 C 0.50077 0.48636 0.8215 0.0
C1355 C 0.51893 0.49758 0.82294 0.0
C1356 C 0.48391 0.493 0.81047 0.0
C1357 C 0.47976 0.45671 0.83011 0.0
C1358 C 0.48445 0.49449 0.79191 0.0
C1359 C 0.46815 0.50067 0.78181 0.0
C1360 C 0.45118 0.50552 0.79018 0.0
C1361 C 0.45107 0.50455 0.80886 0.0
C1362 C 0.46726 0.49847 0.81887 0.0
H1363 H 0.48277 0.4419 0.83422 0.0
H1364 H 0.46896 0.46274 0.83898 0.0
H1365 H 0.47295 0.45518 0.81605 0.0
H1366 H 0.49731 0.49059 0.78524 0.0
H1367 H 0.46871 0.50132 0.76745 0.0
H1368 H 0.75744 0.77979 0.15818 0.0
H1369 H 0.76187 0.7591 0.13097 0.0
H1370 H 0.7643 0.70853 0.16169 0.0
H1371 H 0.76069 0.72931 0.18917 0.0
H1372 H 0.79426 0.71156 0.13975 0.0
H1373 H 0.72302 0.71975 0.10106 0.0
H1374 H 0.73614 0.7429 0.10877 0.0
H1375 H 0.72736 0.72692 0.12484 0.0
C1376 C 0.75895 0.76427 0.15918 0.0
C1377 C 0.75877 0.75622 0.17588 0.0
C1378 C 0.76121 0.75241 0.14356 0.0
C1379 C 0.76308 0.73221 0.14425 0.0
C1380 C 0.76271 0.72406 0.16084 0.0
H1381 H 0.78657 0.64108 0.06199 0.0
H1382 H 0.7784 0.65868 0.08982 0.0
C1383 C 0.76051 0.73594 0.17651 0.0
C1384 C 0.76661 0.71987 0.12782 0.0
H1385 H 0.74824 0.70632 0.0845 0.0
C1386 C 0.7841 0.71022 0.12773 0.0
C1387 C 0.75332 0.71816 0.11216 0.0
C1388 C 0.73382 0.72732 0.11172 0.0
C1389 C 0.78896 0.69941 0.11222 0.0
C1390 C 0.77589 0.69808 0.09647 0.0
C1391 C 0.75826 0.70746 0.09661 0.0
C1392 C 0.78048 0.68734 0.07958 0.0
C1393 C 0.80831 0.68997 0.11261 0.0
C1394 C 0.784 0.69762 0.06455 0.0
C1395 C 0.78869 0.68763 0.04864 0.0
C1396 C 0.78977 0.66714 0.04745 0.0
C1397 C 0.78594 0.65686 0.06248 0.0
C1398 C 0.78133 0.66688 0.07841 0.0
H1399 H 0.81839 0.69555 0.1246 0.0
H1400 H 0.80545 0.67386 0.11294 0.0
H1401 H 0.81587 0.69263 0.10034 0.0
H1402 H 0.78333 0.71341 0.0652 0.0
H1403 H 0.79147 0.69599 0.03729 0.0
H1404 H 0.03215 0.99267 0.07981 0.0
H1405 H 0.01271 0.99061 0.10575 0.0
H1406 H 0.01414 0.05378 0.11252 0.0
H1407 H 0.03392 0.05605 0.08681 0.0
H1408 H 0.02292 0.00757 0.14189 0.0
H1409 H 0.95469 0.03563 0.11108 0.0
H1410 H 0.97379 0.02684 0.09787 0.0
H1411 H 0.97711 0.05076 0.10987 0.0
C1412 C 0.0285 0.00616 0.08688 0.0
C1413 C 0.03462 0.02454 0.08114 0.0
C1414 C 0.01727 0.00494 0.10165 0.0
C1415 C 0.01175 0.02202 0.11092 0.0
C1416 C 0.0179 0.04039 0.10534 0.0
H1417 H 0.94148 0.04152 0.20232 0.0
H1418 H 0.96145 0.04535 0.17687 0.0
C1419 C 0.02919 0.04164 0.09061 0.0
C1420 C -9e-05 0.02058 0.12665 0.0
H1421 H 0.95526 0.0299 0.14182 0.0
C1422 C 0.00811 0.01241 0.14188 0.0
C1423 C 0.98065 0.02703 0.12664 0.0
C1424 C 0.9709 0.03543 0.11046 0.0
C1425 C 0.99765 0.01067 0.15717 0.0
C1426 C 0.97824 0.01682 0.15708 0.0
C1427 C 0.97011 0.02516 0.14189 0.0
C1428 C 0.96602 0.01445 0.17249 0.0
C1429 C 0.00768 0.00263 0.17342 0.0
C1430 C 0.96163 0.99578 0.17832 0.0
C1431 C 0.9503 0.99355 0.1929 0.0
C1432 C 0.9429 0.00993 0.20187 0.0
C1433 C 0.94697 0.02859 0.19576 0.0
C1434 C 0.95839 0.03081 0.18121 0.0
H1435 H 0.02401 0.00415 0.17336 0.0
H1436 H 0.00356 0.0102 0.18608 0.0
H1437 H 0.00306 0.98675 0.17332 0.0
H1438 H 0.9669 0.98287 0.17154 0.0
H1439 H 0.94733 0.97895 0.19711 0.0
H1440 H 0.25539 0.72914 0.17199 0.0
H1441 H 0.24836 0.74686 0.14533 0.0
H1442 H 0.29395 0.79195 0.1653 0.0
H1443 H 0.30077 0.77451 0.19215 0.0
H1444 H 0.25997 0.8071 0.15049 0.0
H1445 H 0.2847 0.74755 0.10469 0.0
H1446 H 0.2652 0.74018 0.11806 0.0
H1447 H 0.28923 0.74831 0.1288 0.0
C1448 C 0.26386 0.74287 0.17074 0.0
C1449 C 0.27877 0.7504 0.18406 0.0
C1450 C 0.25985 0.75295 0.15547 0.0
C1451 C 0.27082 0.77058 0.15321 0.0
C1452 C 0.28532 0.77836 0.16676 0.0
H1453 H 0.30275 0.82492 0.06156 0.0
H1454 H 0.29894 0.80872 0.08891 0.0
C1455 C 0.28926 0.76836 0.18204 0.0
C1456 C 0.26795 0.78058 0.13643 0.0
H1457 H 0.27379 0.77528 0.09152 0.0
C1458 C 0.26279 0.80012 0.13755 0.0
C1459 C 0.27178 0.77144 0.11959 0.0
C1460 C 0.2782 0.75078 0.11763 0.0
C1461 C 0.26186 0.81093 0.12234 0.0
C1462 C 0.26597 0.80185 0.10558 0.0
C1463 C 0.27052 0.78215 0.10438 0.0
C1464 C 0.26787 0.81297 0.08953 0.0
C1465 C 0.2574 0.8322 0.12444 0.0
C1466 C 0.25165 0.82102 0.08085 0.0
C1467 C 0.25379 0.83047 0.06508 0.0
C1468 C 0.27214 0.83182 0.05772 0.0
C1469 C 0.28835 0.82405 0.06673 0.0
C1470 C 0.28622 0.81475 0.08241 0.0
H1471 H 0.25763 0.83784 0.13878 0.0
H1472 H 0.26823 0.84145 0.11784 0.0
H1473 H 0.24252 0.83379 0.1178 0.0
H1474 H 0.23728 0.81959 0.08602 0.0
H1475 H 0.24101 0.83625 0.05843 0.0
H1476 H 0.98459 0.4262 0.09591 0.0
H1477 H 0.0084 0.42724 0.12225 0.0
H1478 H 0.02529 0.4881 0.11624 0.0
H1479 H 0.00139 0.48719 0.08988 0.0
H1480 H 0.04908 0.43582 0.12395 0.0
H1481 H 0.0138 0.48877 0.16899 0.0
H1482 H 0.00108 0.47671 0.14858 0.0
H1483 H 0.01883 0.49718 0.14758 0.0
C1484 C 0.99337 0.43981 0.10022 0.0
C1485 C 0.99113 0.45663 0.09089 0.0
C1486 C 0.00693 0.44038 0.11525 0.0
C1487 C 0.01844 0.45779 0.12126 0.0
C1488 C 0.01625 0.47463 0.11201 0.0
H1489 H 0.10518 0.48229 0.21391 0.0
H1490 H 0.08632 0.48409 0.18497 0.0
C1491 C 0.00261 0.4741 0.09699 0.0
C1492 C 0.03303 0.45803 0.137 0.0
H1493 H 0.04442 0.47834 0.17998 0.0
C1494 C 0.04811 0.44514 0.1362 0.0
C1495 C 0.03172 0.47029 0.15289 0.0
C1496 C 0.01541 0.48391 0.15471 0.0
C1497 C 0.06187 0.44405 0.15096 0.0
C1498 C 0.06033 0.45601 0.16695 0.0
C1499 C 0.04555 0.46924 0.16763 0.0
C1500 C 0.07316 0.45428 0.18351 0.0
C1501 C 0.07796 0.43015 0.14935 0.0
C1502 C 0.07206 0.43686 0.19214 0.0
C1503 C 0.08274 0.43576 0.20868 0.0
C1504 C 0.09467 0.45213 0.2169 0.0
C1505 C 0.09616 0.46939 0.20793 0.0
C1506 C 0.08539 0.47049 0.19142 0.0
H1507 H 0.08034 0.42605 0.13507 0.0
H1508 H 0.0921 0.43674 0.15643 0.0
H1509 H 0.07369 0.41649 0.1556 0.0
H1510 H 0.06243 0.4243 0.18637 0.0
H1511 H 0.08124 0.42227 0.21522 0.0
H1512 H 0.31243 0.70392 0.2748 0.0
H1513 H 0.34506 0.70872 0.29143 0.0
H1514 H 0.37241 0.70183 0.24154 0.0
H1515 H 0.33973 0.69798 0.22485 0.0
H1516 H 0.37513 0.68681 0.29526 0.0
H1517 H 0.39932 0.75296 0.26219 0.0
H1518 H 0.3743 0.74215 0.25905 0.0
H1519 H 0.39317 0.73176 0.24662 0.0
C1520 C 0.32545 0.7035 0.26743 0.0
C1521 C 0.32365 0.70085 0.24858 0.0
C1522 C 0.34407 0.70617 0.27692 0.0
C1523 C 0.36124 0.70601 0.26774 0.0
C1524 C 0.35942 0.70262 0.2489 0.0
H1525 H 0.4789 0.70741 0.32757 0.0
H1526 H 0.44783 0.69566 0.30973 0.0
C1527 C 0.34078 0.70035 0.23938 0.0
C1528 C 0.38093 0.70983 0.27796 0.0
H1529 H 0.42305 0.74042 0.28195 0.0
C1530 C 0.38563 0.69854 0.29237 0.0
C1531 C 0.39457 0.72524 0.27427 0.0
C1532 C 0.39004 0.73884 0.25982 0.0
C1533 C 0.40337 0.7025 0.30342 0.0
C1534 C 0.41707 0.71777 0.29958 0.0
C1535 C 0.41258 0.72867 0.28487 0.0
C1536 C 0.43543 0.72396 0.31134 0.0
C1537 C 0.40684 0.69082 0.31948 0.0
C1538 C 0.43888 0.74372 0.31806 0.0
C1539 C 0.45667 0.75046 0.32775 0.0
C1540 C 0.47135 0.73756 0.33124 0.0
C1541 C 0.46772 0.7176 0.32518 0.0
C1542 C 0.44995 0.71088 0.31507 0.0
H1543 H 0.3929 0.68336 0.32315 0.0
H1544 H 0.41701 0.67935 0.31625 0.0
H1545 H 0.41366 0.70038 0.33134 0.0
H1546 H 0.4279 0.75408 0.3155 0.0
H1547 H 0.45901 0.76591 0.33239 0.0
H1548 H 0.95165 0.39022 0.01239 0.0
H1549 H 0.95333 0.36157 0.99086 0.0
H1550 H 0.01654 0.37321 0.99265 0.0
H1551 H 0.01498 0.40126 0.01455 0.0
H1552 H 0.96462 0.35972 0.95829 0.0
H1553 H 0.01342 0.31576 0.99825 0.0
H1554 H 0.00214 0.33655 0.00823 0.0
H1555 H 0.0249 0.34002 0.99774 0.0
C1556 C 0.96589 0.38652 0.00827 0.0
C1557 C 0.98322 0.39788 0.01511 0.0
C1558 C 0.96685 0.37014 0.99603 0.0
C1559 C 0.98512 0.36493 0.99046 0.0
C1560 C 0.00236 0.37647 0.9972 0.0
H1561 H 0.01442 0.31575 0.89055 0.0
H1562 H 0.00516 0.33485 0.91691 0.0
C1563 C 0.00143 0.39264 0.00955 0.0
C1564 C 0.98623 0.34844 0.97657 0.0
H1565 H 0.01329 0.30981 0.96574 0.0
C1566 C 0.97498 0.34857 0.96006 0.0
C1567 C 0.99935 0.33353 0.97895 0.0
C1568 C 0.01044 0.33133 0.99685 0.0
C1569 C 0.97754 0.33511 0.94549 0.0
C1570 C 0.99219 0.32158 0.94732 0.0
C1571 C 0.00239 0.32048 0.9642 0.0
C1572 C 0.99819 0.30963 0.93159 0.0
C1573 C 0.96471 0.33577 0.9282 0.0
C1574 C 0.99836 0.28912 0.93143 0.0
C1575 C 0.00405 0.2781 0.91641 0.0
C1576 C 0.00962 0.28747 0.90135 0.0
C1577 C 0.00995 0.30804 0.90182 0.0
C1578 C 0.00448 0.31899 0.91683 0.0
H1579 H 0.95018 0.34129 0.93083 0.0
H1580 H 0.97204 0.34601 0.9196 0.0
H1581 H 0.96216 0.32105 0.92068 0.0
H1582 H 0.99382 0.28162 0.9428 0.0
H1583 H 0.00368 0.26226 0.91644 0.0
H1584 H 0.73402 0.78315 0.28942 0.0
H1585 H 0.7076 0.77534 0.30869 0.0
H1586 H 0.67145 0.74743 0.26251 0.0
H1587 H 0.69788 0.75471 0.24338 0.0
H1588 H 0.67206 0.78842 0.30699 0.0
H1589 H 0.66304 0.70742 0.29812 0.0
H1590 H 0.68431 0.72127 0.29134 0.0
H1591 H 0.66174 0.71768 0.27681 0.0
C1592 C 0.72052 0.77508 0.28347 0.0
C1593 C 0.71804 0.76949 0.26494 0.0
C1594 C 0.70547 0.77061 0.29448 0.0
C1595 C 0.68766 0.76045 0.28713 0.0
C1596 C 0.68525 0.75473 0.26861 0.0
H1597 H 0.57141 0.7715 0.31258 0.0
H1598 H 0.60404 0.77107 0.30177 0.0
C1599 C 0.70033 0.75908 0.25764 0.0
C1600 C 0.67087 0.75755 0.29838 0.0
H1601 H 0.63473 0.72368 0.30785 0.0
C1602 C 0.66416 0.77418 0.30745 0.0
C1603 C 0.66067 0.73894 0.29928 0.0
C1604 C 0.66796 0.7203 0.29102 0.0
C1605 C 0.64688 0.77292 0.31638 0.0
C1606 C 0.63579 0.75462 0.31595 0.0
C1607 C 0.64312 0.73774 0.30793 0.0
C1608 C 0.61568 0.7533 0.32213 0.0
C1609 C 0.64032 0.79133 0.32579 0.0
C1610 C 0.61113 0.7427 0.33677 0.0
C1611 C 0.59226 0.74282 0.34303 0.0
C1612 C 0.57775 0.7535 0.33466 0.0
C1613 C 0.58225 0.76333 0.31953 0.0
C1614 C 0.60095 0.76316 0.31333 0.0
H1615 H 0.65295 0.80244 0.32959 0.0
H1616 H 0.62954 0.7979 0.31659 0.0
H1617 H 0.63306 0.78805 0.33808 0.0
H1618 H 0.6223 0.73483 0.34363 0.0
H1619 H 0.58923 0.73506 0.35468 0.0
H1620 H 0.08451 0.0777 0.98822 0.0
H1621 H 0.07545 0.10197 0.9673 0.0
H1622 H 0.01866 0.10421 0.98859 0.0
H1623 H 0.02771 0.08006 0.00967 0.0
H1624 H 0.04369 0.09968 0.94069 0.0
H1625 H 0.03945 0.16227 0.99177 0.0
H1626 H 0.05116 0.14032 0.99692 0.0
H1627 H 0.02472 0.14031 0.99522 0.0
C1628 C 0.07011 0.08342 0.98847 0.0
C1629 C 0.05688 0.07707 0.00063 0.0
C1630 C 0.06495 0.09726 0.9765 0.0
C1631 C 0.04649 0.10511 0.97653 0.0
C1632 C 0.03313 0.09863 0.98855 0.0
H1633 H 0.9921 0.19282 0.91498 0.0
H1634 H 0.99908 0.16728 0.9351 0.0
C1635 C 0.03828 0.08475 0.00053 0.0
C1636 C 0.0412 0.11985 0.96378 0.0
H1637 H 0.02955 0.16736 0.96162 0.0
C1638 C 0.04062 0.11449 0.94525 0.0
C1639 C 0.03717 0.13916 0.96976 0.0
C1640 C 0.0383 0.14599 0.98949 0.0
C1641 C 0.03591 0.12784 0.93253 0.0
C1642 C 0.03205 0.14721 0.9385 0.0
C1643 C 0.0325 0.15252 0.95704 0.0
C1644 C 0.02766 0.16226 0.92578 0.0
C1645 C 0.03474 0.12095 0.91281 0.0
C1646 C 0.04145 0.16803 0.91388 0.0
C1647 C 0.03748 0.18261 0.90229 0.0
C1648 C 0.0197 0.19184 0.90247 0.0
C1649 C 0.00593 0.18601 0.91443 0.0
C1650 C 0.0099 0.17142 0.92598 0.0
H1651 H 0.03261 0.10468 0.91057 0.0
H1652 H 0.02246 0.12735 0.90519 0.0
H1653 H 0.04875 0.12571 0.90727 0.0
H1654 H 0.05545 0.16149 0.91375 0.0
H1655 H 0.04848 0.18682 0.89337 0.0
H1656 H 0.38137 0.32521 0.27017 0.0
H1657 H 0.39977 0.3177 0.24423 0.0
H1658 H 0.44553 0.29563 0.27848 0.0
H1659 H 0.42707 0.30317 0.30476 0.0
H1660 H 0.45874 0.32299 0.25314 0.0
H1661 H 0.40708 0.26198 0.22062 0.0
H1662 H 0.39523 0.28368 0.22725 0.0
H1663 H 0.40734 0.27037 0.24413 0.0
C1664 C 0.39533 0.31874 0.27226 0.0
C1665 C 0.40283 0.31476 0.28952 0.0
C1666 C 0.40576 0.31435 0.25738 0.0
C1667 C 0.42385 0.30589 0.25944 0.0
C1668 C 0.43152 0.30206 0.27665 0.0
H1669 H 0.50185 0.28429 0.1726 0.0
H1670 H 0.48949 0.28625 0.20249 0.0
C1671 C 0.42099 0.30635 0.29159 0.0
C1672 C 0.43481 0.30162 0.24351 0.0
H1673 H 0.42996 0.27654 0.20202 0.0
C1674 C 0.45269 0.3126 0.24205 0.0
C1675 C 0.42684 0.28801 0.22916 0.0
C1676 C 0.40815 0.27518 0.23038 0.0
C1677 C 0.46223 0.31116 0.22611 0.0
C1678 C 0.45375 0.29819 0.21145 0.0
C1679 C 0.43635 0.28656 0.21326 0.0
C1680 C 0.46178 0.29746 0.19365 0.0
C1681 C 0.48072 0.32421 0.22473 0.0
C1682 C 0.45021 0.30294 0.17881 0.0
C1683 C 0.45714 0.30176 0.16178 0.0
C1684 C 0.47579 0.295 0.1592 0.0
C1685 C 0.48747 0.28967 0.17415 0.0
C1686 C 0.48047 0.29083 0.19124 0.0
H1687 H 0.48334 0.33586 0.23604 0.0
H1688 H 0.49361 0.31518 0.22495 0.0
H1689 H 0.47987 0.33128 0.21188 0.0
H1690 H 0.43573 0.30808 0.18041 0.0
H1691 H 0.44775 0.30599 0.15059 0.0
H1692 H 0.55811 0.42287 0.96882 0.0
H1693 H 0.54573 0.40339 0.99209 0.0
H1694 H 0.6052 0.40117 0.01591 0.0
H1695 H 0.61766 0.42103 0.9928 0.0
H1696 H 0.55437 0.36617 -9e-05 0.0
H1697 H 0.57628 0.41992 0.05887 0.0
H1698 H 0.57611 0.42659 0.03602 0.0
H1699 H 0.59606 0.41384 0.04551 0.0
C1700 C 0.56856 0.41827 0.97902 0.0
C1701 C 0.58887 0.42348 0.97906 0.0
C1702 C 0.56146 0.40716 0.99231 0.0
C1703 C 0.57451 0.4011 0.00589 0.0
C1704 C 0.59483 0.40606 0.0058 0.0
H1705 H 0.55219 0.32469 0.09135 0.0
H1706 H 0.5682 0.346 0.0711 0.0
C1707 C 0.60194 0.41725 0.99254 0.0
C1708 C 0.56679 0.38911 0.01977 0.0
H1709 H 0.56285 0.38849 0.06493 0.0
C1710 C 0.55622 0.37106 0.01412 0.0
C1711 C 0.5693 0.39551 0.03831 0.0
C1712 C 0.5799 0.4151 0.04509 0.0
C1713 C 0.54803 0.35925 0.0265 0.0
C1714 C 0.55031 0.36577 0.04498 0.0
C1715 C 0.56117 0.38361 0.05072 0.0
C1716 C 0.54084 0.35443 0.05837 0.0
C1717 C 0.53702 0.33984 0.01975 0.0
C1718 C 0.52023 0.35267 0.05822 0.0
C1719 C 0.51105 0.34062 0.06976 0.0
C1720 C 0.52234 0.33007 0.08167 0.0
C1721 C 0.54306 0.33256 0.08232 0.0
C1722 C 0.55224 0.3447 0.07077 0.0
H1723 H 0.5402 0.33506 0.00583 0.0
H1724 H 0.5409 0.32824 0.02867 0.0
H1725 H 0.52091 0.34132 0.01978 0.0
H1726 H 0.51122 0.36028 0.04887 0.0
H1727 H 0.49507 0.33916 0.06895 0.0
H1728 H 0.68089 0.23119 0.25453 0.0
H1729 H 0.65163 0.23659 0.23509 0.0
H1730 H 0.68287 0.22352 0.18828 0.0
H1731 H 0.71225 0.21777 0.20774 0.0
H1732 H 0.64803 0.26406 0.2103 0.0
H1733 H 0.6315 0.18848 0.17744 0.0
H1734 H 0.64829 0.1939 0.19739 0.0
H1735 H 0.6562 0.19875 0.17575 0.0
C1736 C 0.68154 0.22935 0.2401 0.0
C1737 C 0.69886 0.22405 0.23261 0.0
C1738 C 0.66479 0.23245 0.22901 0.0
C1739 C 0.665 0.23024 0.21025 0.0
C1740 C 0.68227 0.22493 0.20272 0.0
H1741 H 0.5787 0.27748 0.13615 0.0
H1742 H 0.60913 0.26998 0.15295 0.0
C1743 C 0.69905 0.22177 0.21383 0.0
C1744 C 0.64732 0.23423 0.19867 0.0
H1745 H 0.61246 0.21323 0.16621 0.0
C1746 C 0.64025 0.25296 0.20064 0.0
C1747 C 0.63711 0.21964 0.18623 0.0
C1748 C 0.64351 0.199 0.18413 0.0
C1749 C 0.62326 0.25755 0.19049 0.0
C1750 C 0.61328 0.2431 0.17778 0.0
C1751 C 0.62028 0.22433 0.17584 0.0
C1752 C 0.5951 0.247 0.16685 0.0
C1753 C 0.61585 0.27766 0.19379 0.0
C1754 C 0.57725 0.23615 0.16868 0.0
C1755 C 0.55986 0.2403 0.15902 0.0
C1756 C 0.56002 0.25536 0.1473 0.0
C1757 C 0.57804 0.26588 0.14516 0.0
C1758 C 0.59543 0.26168 0.15481 0.0
H1759 H 0.62229 0.28523 0.20684 0.0
H1760 H 0.62009 0.28684 0.18295 0.0
H1761 H 0.59952 0.2767 0.19369 0.0
H1762 H 0.57671 0.2247 0.17786 0.0
H1763 H 0.54626 0.23187 0.16094 0.0
H1764 H 0.46729 0.11152 0.96404 0.0
H1765 H 0.47719 0.14051 0.98467 0.0
H1766 H 0.45565 0.11031 0.02846 0.0
H1767 H 0.44718 0.08076 0.00827 0.0
H1768 H 0.45564 0.16297 0.00276 0.0
H1769 H 0.50784 0.13253 0.05154 0.0
H1770 H 0.49872 0.11922 0.03043 0.0
H1771 H 0.48427 0.11884 0.04953 0.0
C1772 C 0.4651 0.11083 0.97814 0.0
C1773 C 0.45649 0.0937 0.98446 0.0
C1774 C 0.47061 0.12751 0.9899 0.0
C1775 C 0.4675 0.12751 0.0082 0.0
C1776 C 0.45873 0.11053 0.01452 0.0
H1777 H 0.4544 0.23194 0.07713 0.0
H1778 H 0.44996 0.2015 0.05747 0.0
C1779 C 0.45351 0.09373 0.00284 0.0
C1780 C 0.47231 0.14563 0.02041 0.0
H1781 H 0.49538 0.16322 0.06124 0.0
C1782 C 0.46451 0.16304 0.01546 0.0
C1783 C 0.48419 0.14587 0.03684 0.0
C1784 C 0.49441 0.12815 0.04229 0.0
C1785 C 0.4678 0.18053 0.02667 0.0
C1786 C 0.47852 0.18043 0.04365 0.0
C1787 C 0.48684 0.16319 0.04838 0.0
C1788 C 0.48122 0.19808 0.05666 0.0
C1789 C 0.45998 0.19898 0.02002 0.0
C1790 C 0.50022 0.20564 0.06359 0.0
C1791 C 0.50278 0.2228 0.07522 0.0
C1792 C 0.48636 0.23275 0.07996 0.0
C1793 C 0.46734 0.22475 0.07349 0.0
C1794 C 0.46479 0.20745 0.06214 0.0
H1795 H 0.45812 0.19808 0.0051 0.0
H1796 H 0.44528 0.20089 0.02499 0.0
H1797 H 0.46996 0.21217 0.02488 0.0
H1798 H 0.51311 0.19855 0.05967 0.0
H1799 H 0.51762 0.22861 0.08001 0.0
H1800 H 0.26757 0.32987 0.68564 0.0
H1801 H 0.28636 0.36188 0.68827 0.0
H1802 H 0.30498 0.35442 0.74354 0.0
H1803 H 0.28666 0.3221 0.74088 0.0
H1804 H 0.28305 0.39507 0.7113 0.0
H1805 H 0.35717 0.36718 0.72165 0.0
H1806 H 0.33543 0.35139 0.71354 0.0
H1807 H 0.34025 0.35889 0.73713 0.0
C1808 C 0.2758 0.33497 0.69833 0.0
C1809 C 0.2758 0.32336 0.71301 0.0
C1810 C 0.28643 0.3533 0.69982 0.0
C1811 C 0.29735 0.36035 0.71599 0.0
C1812 C 0.29697 0.34906 0.73083 0.0
H1813 H 0.34218 0.47476 0.75867 0.0
H1814 H 0.32275 0.44416 0.74854 0.0
C1815 C 0.28632 0.33071 0.72935 0.0
C1816 C 0.3089 0.37965 0.7174 0.0
H1817 H 0.35536 0.40175 0.72752 0.0
C1818 C 0.29889 0.39653 0.71469 0.0
C1819 C 0.32961 0.38148 0.72144 0.0
C1820 C 0.34131 0.36376 0.72343 0.0
C1821 C 0.30893 0.41529 0.71671 0.0
C1822 C 0.32945 0.41719 0.72179 0.0
C1823 C 0.3396 0.40026 0.72372 0.0
C1824 C 0.34038 0.43661 0.72662 0.0
C1825 C 0.29745 0.43291 0.71352 0.0
C1826 C 0.35687 0.44252 0.7177 0.0
C1827 C 0.36814 0.46012 0.72351 0.0
C1828 C 0.36322 0.47188 0.7385 0.0
C1829 C 0.34642 0.46606 0.74709 0.0
C1830 C 0.33516 0.44861 0.74124 0.0
H1831 H 0.2838 0.4288 0.70449 0.0
H1832 H 0.29302 0.43927 0.72654 0.0
H1833 H 0.30651 0.44441 0.70755 0.0
H1834 H 0.3612 0.43336 0.70646 0.0
H1835 H 0.38104 0.46414 0.71667 0.0
H1836 H 0.29196 0.68963 0.80284 0.0
H1837 H 0.31776 0.66806 0.79569 0.0
H1838 H 0.31857 0.68928 0.74307 0.0
H1839 H 0.29308 0.71139 0.75027 0.0
H1840 H 0.31403 0.64756 0.74342 0.0
H1841 H 0.37722 0.68005 0.78992 0.0
H1842 H 0.35473 0.67666 0.80063 0.0
H1843 H 0.35632 0.69359 0.78354 0.0
C1844 C 0.29794 0.69013 0.78991 0.0
C1845 C 0.29039 0.70228 0.77714 0.0
C1846 C 0.31269 0.67775 0.78583 0.0
C1847 C 0.32023 0.67724 0.76892 0.0
C1848 C 0.313 0.68952 0.75622 0.0
H1849 H 0.38984 0.57919 0.73168 0.0
H1850 H 0.37586 0.61134 0.73101 0.0
C1851 C 0.29833 0.70203 0.76033 0.0
C1852 C 0.33447 0.6627 0.76417 0.0
H1853 H 0.37853 0.64628 0.77882 0.0
C1854 C 0.32835 0.64745 0.75084 0.0
C1855 C 0.35315 0.66272 0.77382 0.0
C1856 C 0.36087 0.67924 0.78766 0.0
C1857 C 0.33975 0.63138 0.74789 0.0
C1858 C 0.35792 0.6308 0.75833 0.0
C1859 C 0.36461 0.64673 0.77082 0.0
C1860 C 0.36849 0.6126 0.75864 0.0
C1861 C 0.33159 0.61451 0.73456 0.0
C1862 C 0.36967 0.60309 0.77453 0.0
C1863 C 0.37765 0.58497 0.77497 0.0
C1864 C 0.38471 0.57585 0.75951 0.0
C1865 C 0.38442 0.58578 0.74377 0.0
C1866 C 0.37634 0.60407 0.74334 0.0
H1867 H 0.31607 0.61607 0.72948 0.0
H1868 H 0.34065 0.61387 0.7229 0.0
H1869 H 0.33226 0.60035 0.74078 0.0
H1870 H 0.36377 0.60939 0.78651 0.0
H1871 H 0.37782 0.5779 0.7874 0.0
H1872 H 0.89795 0.52866 0.43762 0.0
H1873 H 0.87162 0.50446 0.44381 0.0
H1874 H 0.89444 0.50835 0.49949 0.0
H1875 H 0.92055 0.53254 0.49345 0.0
H1876 H 0.87534 0.46887 0.45556 0.0
H1877 H 0.83646 0.51305 0.50442 0.0
H1878 H 0.85402 0.524 0.49062 0.0
H1879 H 0.86237 0.51382 0.51109 0.0
C1880 C 0.89724 0.5244 0.45119 0.0
C1881 C 0.91121 0.53259 0.46508 0.0
C1882 C 0.88217 0.51068 0.45473 0.0
C1883 C 0.8808 0.50494 0.4722 0.0
C1884 C 0.89479 0.51304 0.48604 0.0
H1885 H 0.83883 0.39628 0.5073 0.0
H1886 H 0.85658 0.42541 0.49809 0.0
C1887 C 0.90977 0.5268 0.48255 0.0
C1888 C 0.86578 0.48934 0.4758 0.0
H1889 H 0.83132 0.47779 0.50473 0.0
C1890 C 0.86549 0.47092 0.46611 0.0
C1891 C 0.85267 0.49209 0.48936 0.0
C1892 C 0.85123 0.51188 0.49932 0.0
C1893 C 0.85327 0.4549 0.47029 0.0
C1894 C 0.84134 0.45727 0.48481 0.0
C1895 C 0.84075 0.47593 0.49382 0.0
C1896 C 0.83034 0.44026 0.49141 0.0
C1897 C 0.85343 0.43551 0.45926 0.0
C1898 C 0.80972 0.43936 0.49153 0.0
C1899 C 0.79946 0.42273 0.49699 0.0
C1900 C 0.80971 0.40678 0.50244 0.0
C1901 C 0.83044 0.40817 0.50298 0.0
C1902 C 0.84062 0.42477 0.49762 0.0
H1903 H 0.85821 0.43759 0.44565 0.0
H1904 H 0.86401 0.42633 0.46605 0.0
H1905 H 0.83861 0.42741 0.45778 0.0
H1906 H 0.80154 0.4513 0.48697 0.0
H1907 H 0.7835 0.42213 0.49646 0.0
H1908 H 0.80231 0.87127 0.83804 0.0
H1909 H 0.77407 0.88933 0.82848 0.0
H1910 H 0.76945 0.85695 0.77635 0.0
H1911 H 0.79768 0.83894 0.78575 0.0
H1912 H 0.76514 0.89669 0.77443 0.0
H1913 H 0.71719 0.86512 0.82313 0.0
H1914 H 0.74003 0.87735 0.83321 0.0
H1915 H 0.74032 0.85549 0.81831 0.0
C1916 C 0.79526 0.86803 0.82455 0.0
C1917 C 0.80214 0.85365 0.81267 0.0
C1918 C 0.77914 0.87832 0.81912 0.0
C1919 C 0.7695 0.87423 0.80181 0.0
C1920 C 0.77668 0.86029 0.78977 0.0
H1921 H 0.65099 0.89998 0.76698 0.0
H1922 H 0.68153 0.88468 0.7745 0.0
C1923 C 0.79284 0.85008 0.79514 0.0
C1924 C 0.75164 0.8841 0.79633 0.0
H1925 H 0.70438 0.88996 0.8064 0.0
C1926 C 0.75184 0.89525 0.7814 0.0
C1927 C 0.73423 0.88189 0.80529 0.0
C1928 C 0.73278 0.86917 0.82077 0.0
C1929 C 0.7351 0.90444 0.77528 0.0
C1930 C 0.71788 0.90267 0.78456 0.0
C1931 C 0.71766 0.8914 0.7994 0.0
C1932 C 0.69975 0.91208 0.77898 0.0
C1933 C 0.73586 0.91555 0.75871 0.0
C1934 C 0.6999 0.93257 0.77898 0.0
C1935 C 0.68247 0.94139 0.7746 0.0
C1936 C 0.66455 0.92985 0.77034 0.0
C1937 C 0.66452 0.90931 0.77023 0.0
C1938 C 0.68195 0.90052 0.77452 0.0
H1939 H 0.74799 0.91116 0.75056 0.0
H1940 H 0.7217 0.91313 0.75014 0.0
H1941 H 0.73851 0.9315 0.76283 0.0
H1942 H 0.7134 0.94178 0.78275 0.0
H1943 H 0.68299 0.95725 0.77491 0.0
H1944 H 0.61574 0.50673 0.96796 0.0
H1945 H 0.64138 0.53341 0.977 0.0
H1946 H 0.66072 0.52906 0.9235 0.0
H1947 H 0.63526 0.50246 0.9144 0.0
H1948 H 0.68198 0.53312 0.97649 0.0
H1949 H 0.65325 0.58749 0.93226 0.0
H1950 H 0.63856 0.56581 0.93695 0.0
H1951 H 0.65596 0.56432 0.92014 0.0
C1952 C 0.62554 0.51142 0.95817 0.0
C1953 C 0.62343 0.50261 0.94044 0.0
C1954 C 0.64006 0.52672 0.96332 0.0
C1955 C 0.65262 0.53348 0.9508 0.0
C1956 C 0.65079 0.52444 0.93322 0.0
H1957 H 0.75883 0.60071 0.94229 0.0
H1958 H 0.72736 0.58094 0.93913 0.0
C1959 C 0.63629 0.50921 0.92806 0.0
C1960 C 0.66824 0.54943 0.95616 0.0
H1961 H 0.68734 0.59326 0.9438 0.0
C1962 C 0.683 0.54646 0.96961 0.0
C1963 C 0.66939 0.56686 0.94722 0.0
C1964 C 0.65332 0.57143 0.93347 0.0
C1965 C 0.69956 0.55991 0.97358 0.0
C1966 C 0.70121 0.57679 0.96394 0.0
C1967 C 0.68601 0.58023 0.95109 0.0
C1968 C 0.71945 0.59 0.96575 0.0
C1969 C 0.71567 0.55551 0.98736 0.0
C1970 C 0.72516 0.60195 0.98166 0.0
C1971 C 0.74316 0.61335 0.98351 0.0
C1972 C 0.75572 0.61288 0.96948 0.0
C1973 C 0.74959 0.60133 0.95338 0.0
C1974 C 0.73159 0.59006 0.95153 0.0
H1975 H 0.71327 0.54056 0.99195 0.0
H1976 H 0.73025 0.55683 0.98175 0.0
H1977 H 0.7162 0.56637 0.99923 0.0
H1978 H 0.71583 0.60222 0.9927 0.0
H1979 H 0.74746 0.62213 0.99607 0.0
H1980 H 0.24678 0.65616 0.20975 0.0
H1981 H 0.22446 0.62873 0.21669 0.0
H1982 H 0.24109 0.64256 0.27329 0.0
H1983 H 0.26288 0.67038 0.26652 0.0
H1984 H 0.23537 0.59667 0.23409 0.0
H1985 H 0.18118 0.63604 0.27171 0.0
H1986 H 0.19802 0.64833 0.25806 0.0
H1987 H 0.20633 0.64252 0.28029 0.0
C1988 C 0.24536 0.65362 0.22369 0.0
C1989 C 0.2566 0.66546 0.23758 0.0
C1990 C 0.2327 0.63787 0.22762 0.0
C1991 C 0.23094 0.63376 0.24551 0.0
C1992 C 0.24193 0.64569 0.25941 0.0
H1993 H 0.17664 0.53854 0.29847 0.0
H1994 H 0.19492 0.56842 0.29088 0.0
C1995 C 0.25457 0.66144 0.2555 0.0
C1996 C 0.2186 0.61624 0.24959 0.0
H1997 H 0.18038 0.60135 0.27338 0.0
C1998 C 0.22323 0.59769 0.24254 0.0
C1999 C 0.20284 0.61764 0.26069 0.0
C2000 C 0.19664 0.63721 0.268 0.0
C2001 C 0.21279 0.58045 0.24662 0.0
C2002 C 0.19715 0.58184 0.25784 0.0
C2003 C 0.19243 0.60037 0.26482 0.0
C2004 C 0.18554 0.56415 0.26248 0.0
C2005 C 0.21889 0.56086 0.23924 0.0
C2006 C 0.17396 0.55209 0.24905 0.0
C2007 C 0.16352 0.53505 0.25332 0.0
C2008 C 0.16441 0.52977 0.27113 0.0
C2009 C 0.1757 0.54213 0.28462 0.0
C2010 C 0.18612 0.55922 0.28033 0.0
H2011 H 0.23387 0.56213 0.23439 0.0
H2012 H 0.21872 0.55013 0.24961 0.0
H2013 H 0.2083 0.55493 0.22775 0.0
H2014 H 0.17307 0.55583 0.23524 0.0
H2015 H 0.15488 0.52593 0.24261 0.0
H2016 H 0.96291 0.50868 0.05816 0.0
H2017 H 0.94252 0.53558 0.05154 0.0
H2018 H 0.89121 0.49437 0.04102 0.0
H2019 H 0.91182 0.46729 0.04697 0.0
H2020 H 0.89264 0.51744 0.01554 0.0
H2021 H 0.90476 0.5643 0.07946 0.0
H2022 H 0.92782 0.55966 0.07067 0.0
H2023 H 0.91229 0.53956 0.07731 0.0
C2024 C 0.94722 0.50543 0.05467 0.0
C2025 C 0.93888 0.48596 0.0531 0.0
C2026 C 0.93555 0.52083 0.05104 0.0
C2027 C 0.91522 0.5171 0.04619 0.0
C2028 C 0.90683 0.49763 0.04486 0.0
H2029 H 0.83585 0.61055 0.02883 0.0
H2030 H 0.85428 0.5853 0.04267 0.0
C2031 C 0.91858 0.48218 0.0482 0.0
C2032 C 0.90314 0.53325 0.04092 0.0
H2033 H 0.89269 0.58019 0.05349 0.0
C2034 C 0.89247 0.53104 0.02398 0.0
C2035 C 0.90258 0.55092 0.05201 0.0
C2036 C 0.9123 0.55366 0.07095 0.0
C2037 C 0.8819 0.54621 0.01753 0.0
C2038 C 0.88262 0.5644 0.02803 0.0
C2039 C 0.89255 0.56639 0.0453 0.0
C2040 C 0.87328 0.58149 0.02106 0.0
C2041 C 0.86999 0.54249 0.99955 0.0
C2042 C 0.87855 0.58838 0.00483 0.0
C2043 C 0.86794 0.60252 0.99683 0.0
C2044 C 0.85216 0.61039 0.00514 0.0
C2045 C 0.84796 0.60472 0.02214 0.0
C2046 C 0.85841 0.59027 0.03003 0.0
H2047 H 0.86593 0.52656 0.99611 0.0
H2048 H 0.85624 0.55029 0.99937 0.0
H2049 H 0.87893 0.54782 0.98892 0.0
H2050 H 0.89041 0.58225 0.99798 0.0
H2051 H 0.87166 0.60683 0.98383 0.0
H2052 H 0.1008 0.00322 0.07244 0.0
H2053 H 0.1268 0.98098 0.06751 0.0
H2054 H 0.10572 0.97093 0.01146 0.0
H2055 H 0.0798 0.99325 0.01627 0.0
H2056 H 0.12445 0.94202 0.05558 0.0
H2057 H 0.1638 0.98593 0.00841 0.0
H2058 H 0.14513 0.99567 0.02157 0.0
H2059 H 0.13816 0.97983 0.00141 0.0
C2060 C 0.10166 0.99621 0.05907 0.0
C2061 C 0.0883 0.00011 0.04472 0.0
C2062 C 0.11657 0.98355 0.05626 0.0
C2063 C 0.11846 0.97454 0.03904 0.0
C2064 C 0.10491 0.97811 0.02476 0.0
H2065 H 0.20127 0.89266 0.99915 0.0
H2066 H 0.17299 0.91257 0.00231 0.0
C2067 C 0.09006 0.99084 0.02754 0.0
C2068 C 0.13443 0.96118 0.03615 0.0
H2069 H 0.17459 0.9543 0.01248 0.0
C2070 C 0.13543 0.94474 0.04618 0.0
C2071 C 0.14875 0.96469 0.02385 0.0
C2072 C 0.14908 0.98258 0.01331 0.0
C2073 C 0.15026 0.93169 0.04418 0.0
C2074 C 0.16461 0.93526 0.03196 0.0
C2075 C 0.16351 0.95154 0.02177 0.0
C2076 C 0.18139 0.92274 0.03013 0.0
C2077 C 0.15037 0.91406 0.05504 0.0
C2078 C 0.19555 0.92199 0.04467 0.0
C2079 C 0.21171 0.91073 0.0429 0.0
C2080 C 0.21409 0.89996 0.02652 0.0
C2081 C 0.19984 0.90069 0.01197 0.0
C2082 C 0.1837 0.91208 0.01373 0.0
H2083 H 0.13581 0.91067 0.06023 0.0
H2084 H 0.15434 0.9009 0.04688 0.0
H2085 H 0.16154 0.91711 0.06673 0.0
H2086 H 0.19424 0.93035 0.05735 0.0
H2087 H 0.22241 0.91057 0.05438 0.0
loop_
_geom_bond_atom_site_label_1
_geom_bond_atom_site_label_2
_geom_bond_distance
_geom_bond_site_symmetry_2
_ccdc_geom_bond_type
H0 C5 0.930 . S
H1 C8 0.930 . S
H2 C10 0.930 . S
H3 C4 1.016 . S
C4 H3 1.016 . S
C4 N11 1.286 . S
C5 H0 0.930 . S
C5 C6 1.397 . S
C5 C7 1.361 . S
C6 C5 1.397 . S
C6 C10 1.390 . S
C7 C5 1.361 . S
C7 C8 1.393 . S
C7 N11 1.413 . S
C8 H1 0.930 . S
C8 C7 1.393 . S
C8 C9 1.399 . S
C9 C8 1.399 . S
C9 C10 1.381 . S
C10 H2 0.930 . S
C10 C6 1.390 . S
C10 C9 1.381 . S
N11 C4 1.286 . S
N11 C7 1.413 . S
H12 C17 0.930 . S
H13 C20 0.930 . S
H14 C22 0.930 . S
H15 C16 1.016 . S
C16 H15 1.016 . S
C16 N23 1.286 . S
C17 H12 0.930 . S
C17 C18 1.397 . S
C17 C19 1.361 . S
C18 C17 1.397 . S
C18 C22 1.390 . S
C19 C17 1.361 . S
C19 C20 1.393 . S
C19 N23 1.413 . S
C20 H13 0.930 . S
C20 C19 1.393 . S
C20 C21 1.399 . S
C21 C20 1.399 . S
C21 C22 1.381 . S
C22 H14 0.930 . S
C22 C18 1.390 . S
C22 C21 1.381 . S
N23 C16 1.286 . S
N23 C19 1.413 . S
H24 C29 0.930 . S
H25 C32 0.930 . S
H26 C34 0.930 . S
H27 C28 1.016 . S
C28 H27 1.016 . S
C28 N35 1.286 . S
C29 H24 0.930 . S
C29 C30 1.397 . S
C29 C31 1.361 . S
C30 C29 1.397 . S
C30 C34 1.390 . S
C31 C29 1.361 . S
C31 C32 1.393 . S
C31 N35 1.413 . S
C32 H25 0.930 . S
C32 C31 1.393 . S
C32 C33 1.399 . S
C33 C32 1.399 . S
C33 C34 1.381 . S
C34 H26 0.930 . S
C34 C30 1.390 . S
C34 C33 1.381 . S
N35 C28 1.286 . S
N35 C31 1.413 . S
H36 C41 0.930 . S
H37 C44 0.930 . S
H38 C46 0.930 . S
H39 C40 1.016 . S
C40 H39 1.016 . S
C40 N47 1.286 . S
C41 H36 0.930 . S
C41 C42 1.397 . S
C41 C43 1.361 . S
C42 C41 1.397 . S
C42 C46 1.390 . S
C43 C41 1.361 . S
C43 C44 1.393 . S
C43 N47 1.413 . S
C44 H37 0.930 . S
C44 C43 1.393 . S
C44 C45 1.399 . S
C45 C44 1.399 . S
C45 C46 1.381 . S
C46 H38 0.930 . S
C46 C42 1.390 . S
C46 C45 1.381 . S
N47 C40 1.286 . S
N47 C43 1.413 . S
H48 C53 0.930 . S
H49 C56 0.930 . S
H50 C58 0.930 . S
H51 C52 1.016 . S
C52 H51 1.016 . S
C52 N59 1.286 . S
C53 H48 0.930 . S
C53 C54 1.397 . S
C53 C55 1.361 . S
C54 C53 1.397 . S
C54 C58 1.390 . S
C55 C53 1.361 . S
C55 C56 1.393 . S
C55 N59 1.413 . S
C56 H49 0.930 . S
C56 C55 1.393 . S
C56 C57 1.399 . S
C57 C56 1.399 . S
C57 C58 1.381 . S
C58 H50 0.930 . S
C58 C54 1.390 . S
C58 C57 1.381 . S
N59 C52 1.286 . S
N59 C55 1.413 . S
H60 C65 0.930 . S
H61 C68 0.930 . S
H62 C70 0.930 . S
H63 C64 1.016 . S
C64 H63 1.016 . S
C64 N71 1.286 . S
C65 H60 0.930 . S
C65 C66 1.397 . S
C65 C67 1.361 . S
C66 C65 1.397 . S
C66 C70 1.390 . S
C67 C65 1.361 . S
C67 C68 1.393 . S
C67 N71 1.413 . S
C68 H61 0.930 . S
C68 C67 1.393 . S
C68 C69 1.399 . S
C69 C68 1.399 . S
C69 C70 1.381 . S
C70 H62 0.930 . S
C70 C66 1.390 . S
C70 C69 1.381 . S
N71 C64 1.286 . S
N71 C67 1.413 . S
H72 C77 0.930 . S
H73 C80 0.930 . S
H74 C82 0.930 . S
H75 C76 1.016 . S
C76 H75 1.016 . S
C76 N83 1.286 . S
C77 H72 0.930 . S
C77 C78 1.397 . S
C77 C79 1.361 . S
C78 C77 1.397 . S
C78 C82 1.390 . S
C79 C77 1.361 . S
C79 C80 1.393 . S
C79 N83 1.413 . S
C80 H73 0.930 . S
C80 C79 1.393 . S
C80 C81 1.399 . S
C81 C80 1.399 . S
C81 C82 1.381 . S
C82 H74 0.930 . S
C82 C78 1.390 . S
C82 C81 1.381 . S
N83 C76 1.286 . S
N83 C79 1.413 . S
H84 C89 0.930 . S
H85 C92 0.930 . S
H86 C94 0.930 . S
H87 C88 1.016 . S
C88 H87 1.016 . S
C88 N95 1.286 . S
C89 H84 0.930 . S
C89 C90 1.397 . S
C89 C91 1.361 . S
C90 C89 1.397 . S
C90 C94 1.390 . S
C91 C89 1.361 . S
C91 C92 1.393 . S
C91 N95 1.413 . S
C92 H85 0.930 . S
C92 C91 1.393 . S
C92 C93 1.399 . S
C93 C92 1.399 . S
C93 C94 1.381 . S
C94 H86 0.930 . S
C94 C90 1.390 . S
C94 C93 1.381 . S
N95 C88 1.286 . S
N95 C91 1.413 . S
H96 C101 0.930 . S
H97 C104 0.930 . S
H98 C106 0.930 . S
H99 C100 1.016 . S
C100 H99 1.016 . S
C100 N107 1.286 . S
C101 H96 0.930 . S
C101 C102 1.397 . S
C101 C103 1.361 . S
C102 C101 1.397 . S
C102 C106 1.390 . S
C103 C101 1.361 . S
C103 C104 1.393 . S
C103 N107 1.413 . S
C104 H97 0.930 . S
C104 C103 1.393 . S
C104 C105 1.399 . S
C105 C104 1.399 . S
C105 C106 1.381 . S
C106 H98 0.930 . S
C106 C102 1.390 . S
C106 C105 1.381 . S
N107 C100 1.286 . S
N107 C103 1.413 . S
H108 C113 0.930 . S
H109 C116 0.930 . S
H110 C118 0.930 . S
H111 C112 1.016 . S
C112 H111 1.016 . S
C112 N119 1.286 . S
C113 H108 0.930 . S
C113 C114 1.397 . S
C113 C115 1.361 . S
C114 C113 1.397 . S
C114 C118 1.390 . S
C115 C113 1.361 . S
C115 C116 1.393 . S
C115 N119 1.413 . S
C116 H109 0.930 . S
C116 C115 1.393 . S
C116 C117 1.399 . S
C117 C116 1.399 . S
C117 C118 1.381 . S
C118 H110 0.930 . S
C118 C114 1.390 . S
C118 C117 1.381 . S
N119 C112 1.286 . S
N119 C115 1.413 . S
H120 C125 0.930 . S
H121 C128 0.930 . S
H122 C130 0.930 . S
H123 C124 1.016 . S
C124 H123 1.016 . S
C124 N131 1.286 . S
C125 H120 0.930 . S
C125 C126 1.397 . S
C125 C127 1.361 . S
C126 C125 1.397 . S
C126 C130 1.390 . S
C127 C125 1.361 . S
C127 C128 1.393 . S
C127 N131 1.413 . S
C128 H121 0.930 . S
C128 C127 1.393 . S
C128 C129 1.399 . S
C129 C128 1.399 . S
C129 C130 1.381 . S
C130 H122 0.930 . S
C130 C126 1.390 . S
C130 C129 1.381 . S
N131 C124 1.286 . S
N131 C127 1.413 . S
H132 C137 0.930 . S
H133 C140 0.930 . S
H134 C142 0.930 . S
H135 C136 1.016 . S
C136 H135 1.016 . S
C136 N143 1.286 . S
C137 H132 0.930 . S
C137 C138 1.397 . S
C137 C139 1.361 . S
C138 C137 1.397 . S
C138 C142 1.390 . S
C139 C137 1.361 . S
C139 C140 1.393 . S
C139 N143 1.413 . S
C140 H133 0.930 . S
C140 C139 1.393 . S
C140 C141 1.399 . S
C141 C140 1.399 . S
C141 C142 1.381 . S
C142 H134 0.930 . S
C142 C138 1.390 . S
C142 C141 1.381 . S
N143 C136 1.286 . S
N143 C139 1.413 . S
H144 C149 0.930 . S
H145 C152 0.930 . S
H146 C154 0.930 . S
H147 C148 1.016 . S
C148 H147 1.016 . S
C148 N155 1.286 . S
C149 H144 0.930 . S
C149 C150 1.397 . S
C149 C151 1.361 . S
C150 C149 1.397 . S
C150 C154 1.390 . S
C151 C149 1.361 . S
C151 C152 1.393 . S
C151 N155 1.413 . S
C152 H145 0.930 . S
C152 C151 1.393 . S
C152 C153 1.399 . S
C153 C152 1.399 . S
C153 C154 1.381 . S
C154 H146 0.930 . S
C154 C150 1.390 . S
C154 C153 1.381 . S
N155 C148 1.286 . S
N155 C151 1.413 . S
H156 C161 0.930 . S
H157 C164 0.930 . S
H158 C166 0.930 . S
H159 C160 1.016 . S
C160 H159 1.016 . S
C160 N167 1.286 . S
C161 H156 0.930 . S
C161 C162 1.397 . S
C161 C163 1.361 . S
C162 C161 1.397 . S
C162 C166 1.390 . S
C163 C161 1.361 . S
C163 C164 1.393 . S
C163 N167 1.413 . S
C164 H157 0.930 . S
C164 C163 1.393 . S
C164 C165 1.399 . S
C165 C164 1.399 . S
C165 C166 1.381 . S
C166 H158 0.930 . S
C166 C162 1.390 . S
C166 C165 1.381 . S
N167 C160 1.286 . S
N167 C163 1.413 . S
H168 C173 0.930 . S
H169 C176 0.930 . S
H170 C178 0.930 . S
H171 C172 1.016 . S
C172 H171 1.016 . S
C172 N179 1.286 . S
C173 H168 0.930 . S
C173 C174 1.397 . S
C173 C175 1.361 . S
C174 C173 1.397 . S
C174 C178 1.390 . S
C175 C173 1.361 . S
C175 C176 1.393 . S
C175 N179 1.413 . S
C176 H169 0.930 . S
C176 C175 1.393 . S
C176 C177 1.399 . S
C177 C176 1.399 . S
C177 C178 1.381 . S
C178 H170 0.930 . S
C178 C174 1.390 . S
C178 C177 1.381 . S
N179 C172 1.286 . S
N179 C175 1.413 . S
H180 C185 0.930 . S
H181 C188 0.930 . S
H182 C190 0.930 . S
H183 C184 1.016 . S
C184 H183 1.016 . S
C184 N191 1.286 . S
C185 H180 0.930 . S
C185 C186 1.397 . S
C185 C187 1.361 . S
C186 C185 1.397 . S
C186 C190 1.390 . S
C187 C185 1.361 . S
C187 C188 1.393 . S
C187 N191 1.413 . S
C188 H181 0.930 . S
C188 C187 1.393 . S
C188 C189 1.399 . S
C189 C188 1.399 . S
C189 C190 1.381 . S
C190 H182 0.930 . S
C190 C186 1.390 . S
C190 C189 1.381 . S
N191 C184 1.286 . S
N191 C187 1.413 . S
Zn192 O195 2.031 . S
Zn192 O197 2.049 . S
Zn192 O202 2.067 1_554 S
Zn193 O194 1.962 . S
Zn193 O196 1.986 . S
Zn193 O198 1.996 . S
Zn193 O201 1.943 1_554 S
O194 Zn193 1.962 . S
O194 C199 1.254 . S
O195 Zn192 2.031 . S
O195 C199 1.269 . S
O196 Zn193 1.986 . S
O196 C203 1.262 . S
O197 Zn192 2.049 . S
O197 C205 1.260 . S
O198 Zn193 1.996 . S
O198 C205 1.257 . S
C199 O194 1.254 . S
C199 O195 1.269 . S
C200 O201 1.249 . S
C200 O202 1.270 . S
O201 Zn193 1.943 1_556 S
O201 C200 1.249 . S
O202 Zn192 2.067 1_556 S
O202 C200 1.270 . S
C203 O196 1.262 . S
C203 O204 1.232 . S
O204 C203 1.232 . S
C205 O197 1.260 . S
C205 O198 1.257 . S
Zn206 O209 2.031 . S
Zn206 O211 2.049 . S
Zn206 O216 2.067 . S
Zn207 O208 1.962 . S
Zn207 O210 1.986 . S
Zn207 O212 1.996 . S
Zn207 O215 1.943 . S
O208 Zn207 1.962 . S
O208 C213 1.254 . S
O209 Zn206 2.031 . S
O209 C213 1.269 . S
O210 Zn207 1.986 . S
O210 C217 1.262 . S
O211 Zn206 2.049 . S
O211 C219 1.260 . S
O212 Zn207 1.996 . S
O212 C219 1.257 . S
C213 O208 1.254 . S
C213 O209 1.269 . S
C214 O215 1.249 . S
C214 O216 1.270 . S
O215 Zn207 1.943 . S
O215 C214 1.249 . S
O216 Zn206 2.067 . S
O216 C214 1.270 . S
C217 O210 1.262 . S
C217 O218 1.232 . S
O218 C217 1.232 . S
C219 O211 1.260 . S
C219 O212 1.257 . S
Zn220 O223 2.031 . S
Zn220 O225 2.049 . S
Zn220 O230 2.067 . S
Zn221 O222 1.962 . S
Zn221 O224 1.986 . S
Zn221 O226 1.996 1_554 S
Zn221 O229 1.943 . S
O222 Zn221 1.962 . S
O222 C227 1.254 . S
O223 Zn220 2.031 . S
O223 C227 1.269 1_556 S
O224 Zn221 1.986 . S
O224 C231 1.262 . S
O225 Zn220 2.049 . S
O225 C233 1.260 . S
O226 Zn221 1.996 1_556 S
O226 C233 1.257 . S
C227 O222 1.254 . S
C227 O223 1.269 1_554 S
C228 O229 1.249 1_556 S
C228 O230 1.270 . S
O229 Zn221 1.943 . S
O229 C228 1.249 1_554 S
O230 Zn220 2.067 . S
O230 C228 1.270 . S
C231 O224 1.262 . S
C231 O232 1.232 . S
O232 C231 1.232 . S
C233 O225 1.260 . S
C233 O226 1.257 . S
Zn234 O237 2.031 . S
Zn234 O239 2.049 . S
Zn234 O244 2.067 1_545 S
Zn235 O236 1.962 . S
Zn235 O238 1.986 . S
Zn235 O240 1.996 . S
Zn235 O243 1.941 1_545 S
O236 Zn235 1.962 . S
O236 C241 1.254 . S
O237 Zn234 2.031 . S
O237 C241 1.269 . S
O238 Zn235 1.986 . S
O238 C245 1.262 . S
O239 Zn234 2.049 . S
O239 C247 1.260 . S
O240 Zn235 1.996 . S
O240 C247 1.257 . S
C241 O236 1.254 . S
C241 O237 1.269 . S
C242 O243 1.250 . S
C242 O244 1.270 . S
O243 Zn235 1.941 1_565 S
O243 C242 1.250 . S
O244 Zn234 2.067 1_565 S
O244 C242 1.270 . S
C245 O238 1.262 . S
C245 O246 1.232 . S
O246 C245 1.232 . S
C247 O239 1.260 . S
C247 O240 1.257 . S
Zn248 O251 2.031 . S
Zn248 O253 2.049 . S
Zn248 O258 2.067 . S
Zn249 O250 1.962 . S
Zn249 O252 1.986 . S
Zn249 O254 1.996 . S
Zn249 O257 1.943 . S
O250 Zn249 1.962 . S
O250 C255 1.254 . S
O251 Zn248 2.031 . S
O251 C255 1.269 . S
O252 Zn249 1.986 . S
O252 C259 1.262 . S
O253 Zn248 2.049 . S
O253 C261 1.260 . S
O254 Zn249 1.996 . S
O254 C261 1.257 . S
C255 O250 1.254 . S
C255 O251 1.269 . S
C256 O257 1.249 . S
C256 O258 1.270 . S
O257 Zn249 1.943 . S
O257 C256 1.249 . S
O258 Zn248 2.067 . S
O258 C256 1.270 . S
C259 O252 1.262 . S
C259 O260 1.232 . S
O260 C259 1.232 . S
C261 O253 1.260 . S
C261 O254 1.257 . S
Zn262 O265 2.031 . S
Zn262 O267 2.049 . S
Zn262 O272 2.067 . S
Zn263 O264 1.962 . S
Zn263 O266 1.986 . S
Zn263 O268 1.996 . S
Zn263 O271 1.943 . S
O264 Zn263 1.962 . S
O264 C269 1.254 . S
O265 Zn262 2.031 . S
O265 C269 1.269 . S
O266 Zn263 1.986 . S
O266 C273 1.262 . S
O267 Zn262 2.049 . S
O267 C275 1.260 . S
O268 Zn263 1.996 . S
O268 C275 1.257 . S
C269 O264 1.254 . S
C269 O265 1.269 . S
C270 O271 1.249 . S
C270 O272 1.270 . S
O271 Zn263 1.943 . S
O271 C270 1.249 . S
O272 Zn262 2.067 . S
O272 C270 1.270 . S
C273 O266 1.262 . S
C273 O274 1.232 . S
O274 C273 1.232 . S
C275 O267 1.260 . S
C275 O268 1.257 . S
Zn276 O279 2.031 . S
Zn276 O281 2.049 . S
Zn276 O286 2.067 . S
Zn277 O278 1.962 . S
Zn277 O280 1.986 . S
Zn277 O282 1.996 . S
Zn277 O285 1.943 . S
O278 Zn277 1.962 . S
O278 C283 1.254 . S
O279 Zn276 2.031 . S
O279 C283 1.269 . S
O280 Zn277 1.986 . S
O280 C287 1.262 . S
O281 Zn276 2.049 . S
O281 C289 1.260 . S
O282 Zn277 1.996 . S
O282 C289 1.257 . S
C283 O278 1.254 . S
C283 O279 1.269 . S
C284 O285 1.249 . S
C284 O286 1.270 . S
O285 Zn277 1.943 . S
O285 C284 1.249 . S
O286 Zn276 2.067 . S
O286 C284 1.270 . S
C287 O280 1.262 . S
C287 O288 1.232 . S
O288 C287 1.232 . S
C289 O281 1.260 . S
C289 O282 1.257 . S
Zn290 O293 2.031 . S
Zn290 O295 2.049 . S
Zn290 O300 2.067 . S
Zn291 O292 1.962 . S
Zn291 O294 1.986 . S
Zn291 O296 1.996 1_545 S
Zn291 O299 1.943 . S
O292 Zn291 1.962 . S
O292 C297 1.254 . S
O293 Zn290 2.031 . S
O293 C297 1.269 1_565 S
O294 Zn291 1.986 . S
O294 C301 1.262 . S
O295 Zn290 2.049 . S
O295 C303 1.260 . S
O296 Zn291 1.996 1_565 S
O296 C303 1.257 . S
C297 O292 1.254 . S
C297 O293 1.269 1_545 S
C298 O299 1.249 1_565 S
C298 O300 1.270 . S
O299 Zn291 1.943 . S
O299 C298 1.249 1_545 S
O300 Zn290 2.067 . S
O300 C298 1.270 . S
C301 O294 1.262 . S
C301 O302 1.232 . S
O302 C301 1.232 . S
C303 O295 1.260 . S
C303 O296 1.257 . S
Zn304 O307 2.031 . S
Zn304 O309 2.049 1_455 S
Zn304 O314 2.067 1_455 S
Zn305 O306 1.962 . S
Zn305 O308 1.986 . S
Zn305 O310 1.996 . S
Zn305 O313 1.943 1_455 S
O306 Zn305 1.962 . S
O306 C311 1.254 . S
O307 Zn304 2.031 . S
O307 C311 1.269 . S
O308 Zn305 1.986 . S
O308 C315 1.262 . S
O309 Zn304 2.049 1_655 S
O309 C317 1.260 1_655 S
O310 Zn305 1.996 . S
O310 C317 1.257 . S
C311 O306 1.254 . S
C311 O307 1.269 . S
C312 O313 1.249 . S
C312 O314 1.270 . S
O313 Zn305 1.943 1_655 S
O313 C312 1.249 . S
O314 Zn304 2.067 1_655 S
O314 C312 1.270 . S
C315 O308 1.262 . S
C315 O316 1.232 . S
O316 C315 1.232 . S
C317 O309 1.260 1_455 S
C317 O310 1.257 . S
Zn318 O321 2.031 . S
Zn318 O323 2.049 . S
Zn318 O328 2.067 . S
Zn319 O320 1.962 . S
Zn319 O322 1.986 . S
Zn319 O324 1.996 . S
Zn319 O327 1.943 . S
O320 Zn319 1.962 . S
O320 C325 1.254 . S
O321 Zn318 2.031 . S
O321 C325 1.269 . S
O322 Zn319 1.986 . S
O322 C329 1.262 . S
O323 Zn318 2.049 . S
O323 C331 1.260 . S
O324 Zn319 1.996 . S
O324 C331 1.257 . S
C325 O320 1.254 . S
C325 O321 1.269 . S
C326 O327 1.249 . S
C326 O328 1.270 . S
O327 Zn319 1.943 . S
O327 C326 1.249 . S
O328 Zn318 2.067 . S
O328 C326 1.270 . S
C329 O322 1.262 . S
C329 O330 1.232 . S
O330 C329 1.232 . S
C331 O323 1.260 . S
C331 O324 1.257 . S
Zn332 O335 2.031 1_655 S
Zn332 O337 2.049 . S
Zn332 O342 2.067 . S
Zn333 O334 1.962 . S
Zn333 O336 1.986 . S
Zn333 O338 1.996 1_455 S
Zn333 O341 1.943 . S
O334 Zn333 1.962 . S
O334 C339 1.254 . S
O335 Zn332 2.031 1_455 S
O335 C339 1.269 . S
O336 Zn333 1.986 . S
O336 C343 1.262 . S
O337 Zn332 2.049 . S
O337 C345 1.260 . S
O338 Zn333 1.996 1_655 S
O338 C345 1.257 . S
C339 O334 1.254 . S
C339 O335 1.269 . S
C340 O341 1.249 . S
C340 O342 1.270 1_455 S
O341 Zn333 1.943 . S
O341 C340 1.249 . S
O342 Zn332 2.067 . S
O342 C340 1.270 1_655 S
C343 O336 1.262 . S
C343 O344 1.232 . S
O344 C343 1.232 . S
C345 O337 1.260 . S
C345 O338 1.257 . S
Zn346 O349 2.031 . S
Zn346 O351 2.049 . S
Zn346 O356 2.067 . S
Zn347 O348 1.962 . S
Zn347 O350 1.986 . S
Zn347 O352 1.996 . S
Zn347 O355 1.943 . S
O348 Zn347 1.962 . S
O348 C353 1.254 . S
O349 Zn346 2.031 . S
O349 C353 1.269 . S
O350 Zn347 1.986 . S
O350 C357 1.262 . S
O351 Zn346 2.049 . S
O351 C359 1.260 . S
O352 Zn347 1.996 . S
O352 C359 1.257 . S
C353 O348 1.254 . S
C353 O349 1.269 . S
C354 O355 1.249 . S
C354 O356 1.270 . S
O355 Zn347 1.943 . S
O355 C354 1.249 . S
O356 Zn346 2.067 . S
O356 C354 1.270 . S
C357 O350 1.262 . S
C357 O358 1.232 . S
O358 C357 1.232 . S
C359 O351 1.260 . S
C359 O352 1.257 . S
H360 C368 0.929 . S
H361 C370 0.930 . S
H362 C372 0.930 . S
H363 C375 0.929 . S
H364 C378 0.930 . S
H365 C380 0.960 . S
H366 C380 0.960 . S
H367 C380 0.960 . S
C368 H360 0.929 . S
C368 C369 1.377 . S
C368 C370 1.384 . S
C369 C368 1.377 . S
C369 C375 1.390 . S
C370 H361 0.930 . S
C370 C368 1.384 . S
C370 C371 1.372 . S
C371 C370 1.372 . S
C371 C372 1.400 . S
C371 C376 1.490 . S
C372 H362 0.930 . S
C372 C371 1.400 . S
C372 C375 1.386 . S
H373 C389 0.930 . S
H374 C390 0.931 . S
C375 H363 0.929 . S
C375 C369 1.390 . S
C375 C372 1.386 . S
C376 C371 1.490 . S
C376 C378 1.395 . S
C376 C379 1.403 . S
H377 C383 0.930 . S
C378 H364 0.930 . S
C378 C376 1.395 . S
C378 C381 1.403 . S
C379 C376 1.403 . S
C379 C380 1.524 . S
C379 C383 1.400 . S
C380 H365 0.960 . S
C380 H366 0.960 . S
C380 H367 0.960 . S
C380 C379 1.524 . S
C381 C378 1.403 . S
C381 C382 1.392 . S
C381 C385 1.495 . S
C382 C381 1.392 . S
C382 C383 1.385 . S
C382 C384 1.478 . S
C383 H377 0.930 . S
C383 C379 1.400 . S
C383 C382 1.385 . S
C384 C382 1.478 . S
C384 C386 1.381 . S
C384 C390 1.383 . S
C385 C381 1.495 . S
C385 H391 0.959 . S
C385 H392 0.961 . S
C385 H393 0.960 . S
C386 C384 1.381 . S
C386 C387 1.394 . S
C386 H394 0.930 . S
C387 C386 1.394 . S
C387 C388 1.383 . S
C387 H395 0.929 . S
C388 C387 1.383 . S
C388 C389 1.377 . S
C389 H373 0.930 . S
C389 C388 1.377 . S
C389 C390 1.379 . S
C390 H374 0.931 . S
C390 C384 1.383 . S
C390 C389 1.379 . S
H391 C385 0.959 . S
H392 C385 0.961 . S
H393 C385 0.960 . S
H394 C386 0.930 . S
H395 C387 0.929 . S
H396 C404 0.929 1_655 S
H397 C406 0.930 . S
H398 C408 0.930 . S
H399 C411 0.929 . S
H400 C414 0.930 . S
H401 C416 0.960 . S
H402 C416 0.960 . S
H403 C416 0.960 . S
C404 H396 0.929 1_455 S
C404 C405 1.377 . S
C404 C406 1.384 . S
C405 C404 1.377 . S
C405 C411 1.390 . S
C406 H397 0.930 . S
C406 C404 1.384 . S
C406 C407 1.372 . S
C407 C406 1.372 . S
C407 C408 1.400 . S
C407 C412 1.490 . S
C408 H398 0.930 . S
C408 C407 1.400 . S
C408 C411 1.386 . S
H409 C425 0.930 . S
H410 C426 0.931 . S
C411 H399 0.929 . S
C411 C405 1.390 . S
C411 C408 1.386 . S
C412 C407 1.490 . S
C412 C414 1.395 . S
C412 C415 1.403 . S
H413 C419 0.930 . S
C414 H400 0.930 . S
C414 C412 1.395 . S
C414 C417 1.403 . S
C415 C412 1.403 . S
C415 C416 1.524 . S
C415 C419 1.400 . S
C416 H401 0.960 . S
C416 H402 0.960 . S
C416 H403 0.960 . S
C416 C415 1.524 . S
C417 C414 1.403 . S
C417 C418 1.392 . S
C417 C421 1.495 . S
C418 C417 1.392 . S
C418 C419 1.385 . S
C418 C420 1.478 . S
C419 H413 0.930 . S
C419 C415 1.400 . S
C419 C418 1.385 . S
C420 C418 1.478 . S
C420 C422 1.381 . S
C420 C426 1.383 . S
C421 C417 1.495 . S
C421 H427 0.959 . S
C421 H428 0.961 . S
C421 H429 0.960 . S
C422 C420 1.381 . S
C422 C423 1.394 . S
C422 H430 0.930 . S
C423 C422 1.394 . S
C423 C424 1.383 . S
C423 H431 0.929 . S
C424 C423 1.383 . S
C424 C425 1.377 . S
C425 H409 0.930 . S
C425 C424 1.377 . S
C425 C426 1.379 . S
C426 H410 0.931 . S
C426 C420 1.383 . S
C426 C425 1.379 . S
H427 C421 0.959 . S
H428 C421 0.961 . S
H429 C421 0.960 . S
H430 C422 0.930 . S
H431 C423 0.929 . S
H432 C440 0.929 . S
H433 C442 0.930 . S
H434 C444 0.930 . S
H435 C447 0.929 . S
H436 C450 0.930 . S
H437 C452 0.960 . S
H438 C452 0.960 . S
H439 C452 0.960 . S
C440 H432 0.929 . S
C440 C441 1.377 . S
C440 C442 1.384 . S
C441 C440 1.377 . S
C441 C447 1.390 . S
C442 H433 0.930 . S
C442 C440 1.384 . S
C442 C443 1.372 . S
C443 C442 1.372 . S
C443 C444 1.400 . S
C443 C448 1.490 . S
C444 H434 0.930 . S
C444 C443 1.400 . S
C444 C447 1.386 . S
H445 C461 0.930 . S
H446 C462 0.931 . S
C447 H435 0.929 . S
C447 C441 1.390 . S
C447 C444 1.386 . S
C448 C443 1.490 . S
C448 C450 1.395 . S
C448 C451 1.403 . S
H449 C455 0.930 . S
C450 H436 0.930 . S
C450 C448 1.395 . S
C450 C453 1.403 . S
C451 C448 1.403 . S
C451 C452 1.524 . S
C451 C455 1.400 . S
C452 H437 0.960 . S
C452 H438 0.960 . S
C452 H439 0.960 . S
C452 C451 1.524 . S
C453 C450 1.403 . S
C453 C454 1.392 . S
C453 C457 1.495 . S
C454 C453 1.392 . S
C454 C455 1.385 . S
C454 C456 1.478 . S
C455 H449 0.930 . S
C455 C451 1.400 . S
C455 C454 1.385 . S
C456 C454 1.478 . S
C456 C458 1.381 . S
C456 C462 1.383 . S
C457 C453 1.495 . S
C457 H463 0.959 . S
C457 H464 0.961 . S
C457 H465 0.960 . S
C458 C456 1.381 . S
C458 C459 1.394 . S
C458 H466 0.930 . S
C459 C458 1.394 . S
C459 C460 1.383 . S
C459 H467 0.929 . S
C460 C459 1.383 . S
C460 C461 1.377 . S
C461 H445 0.930 . S
C461 C460 1.377 . S
C461 C462 1.379 . S
C462 H446 0.931 . S
C462 C456 1.383 . S
C462 C461 1.379 . S
H463 C457 0.959 . S
H464 C457 0.961 . S
H465 C457 0.960 . S
H466 C458 0.930 . S
H467 C459 0.929 . S
H468 C476 0.929 . S
H469 C478 0.930 . S
H470 C480 0.930 . S
H471 C483 0.929 . S
H472 C486 0.930 . S
H473 C488 0.960 . S
H474 C488 0.960 . S
H475 C488 0.960 . S
C476 H468 0.929 . S
C476 C477 1.377 . S
C476 C478 1.384 . S
C477 C476 1.377 . S
C477 C483 1.390 . S
C478 H469 0.930 . S
C478 C476 1.384 . S
C478 C479 1.372 . S
C479 C478 1.372 . S
C479 C480 1.400 . S
C479 C484 1.490 . S
C480 H470 0.930 . S
C480 C479 1.400 . S
C480 C483 1.386 . S
H481 C497 0.930 . S
H482 C498 0.931 . S
C483 H471 0.929 . S
C483 C477 1.390 . S
C483 C480 1.386 . S
C484 C479 1.490 . S
C484 C486 1.395 . S
C484 C487 1.403 . S
H485 C491 0.930 1_655 S
C486 H472 0.930 . S
C486 C484 1.395 . S
C486 C489 1.403 . S
C487 C484 1.403 . S
C487 C488 1.524 1_565 S
C487 C491 1.400 1_565 S
C488 H473 0.960 . S
C488 H474 0.960 . S
C488 H475 0.960 . S
C488 C487 1.524 1_545 S
C489 C486 1.403 . S
C489 C490 1.392 . S
C489 C493 1.495 . S
C490 C489 1.392 . S
C490 C491 1.385 1_565 S
C490 C492 1.478 1_455 S
C491 H485 0.930 1_455 S
C491 C487 1.400 1_545 S
C491 C490 1.385 1_545 S
C492 C490 1.478 1_655 S
C492 C494 1.376 1_665 S
C492 C498 1.383 . S
C493 C489 1.495 . S
C493 H499 0.959 . S
C493 H500 0.961 . S
C493 H501 0.960 . S
C494 C492 1.376 1_445 S
C494 C495 1.400 1_455 S
C494 H502 0.932 . S
C495 C494 1.400 1_655 S
C495 C496 1.383 . S
C495 H503 0.929 . S
C496 C495 1.383 . S
C496 C497 1.377 1_545 S
C497 H481 0.930 . S
C497 C496 1.377 1_565 S
C497 C498 1.379 . S
C498 H482 0.931 . S
C498 C492 1.383 . S
C498 C497 1.379 . S
H499 C493 0.959 . S
H500 C493 0.961 . S
H501 C493 0.960 . S
H502 C494 0.932 . S
H503 C495 0.929 . S
H504 C512 0.929 . S
H505 C514 0.930 . S
H506 C516 0.930 . S
H507 C519 0.929 . S
H508 C522 0.930 . S
H509 C524 0.960 . S
H510 C524 0.960 . S
H511 C524 0.960 . S
C512 H504 0.929 . S
C512 C513 1.377 . S
C512 C514 1.384 . S
C513 C512 1.377 . S
C513 C519 1.390 . S
C514 H505 0.930 . S
C514 C512 1.384 . S
C514 C515 1.372 . S
C515 C514 1.372 . S
C515 C516 1.400 . S
C515 C520 1.490 . S
C516 H506 0.930 . S
C516 C515 1.400 . S
C516 C519 1.386 . S
H517 C533 0.930 . S
H518 C534 0.931 . S
C519 H507 0.929 . S
C519 C513 1.390 . S
C519 C516 1.386 . S
C520 C515 1.490 . S
C520 C522 1.395 . S
C520 C523 1.403 . S
H521 C527 0.930 . S
C522 H508 0.930 . S
C522 C520 1.395 . S
C522 C525 1.403 . S
C523 C520 1.403 . S
C523 C524 1.524 . S
C523 C527 1.400 . S
C524 H509 0.960 . S
C524 H510 0.960 . S
C524 H511 0.960 . S
C524 C523 1.524 . S
C525 C522 1.403 . S
C525 C526 1.392 . S
C525 C529 1.495 . S
C526 C525 1.392 . S
C526 C527 1.385 . S
C526 C528 1.478 . S
C527 H521 0.930 . S
C527 C523 1.400 . S
C527 C526 1.385 . S
C528 C526 1.478 . S
C528 C530 1.381 . S
C528 C534 1.383 . S
C529 C525 1.495 . S
C529 H535 0.959 . S
C529 H536 0.961 . S
C529 H537 0.960 . S
C530 C528 1.381 . S
C530 C531 1.394 . S
C530 H538 0.930 . S
C531 C530 1.394 . S
C531 C532 1.383 . S
C531 H539 0.929 . S
C532 C531 1.383 . S
C532 C533 1.377 . S
C533 H517 0.930 . S
C533 C532 1.377 . S
C533 C534 1.379 . S
C534 H518 0.931 . S
C534 C528 1.383 . S
C534 C533 1.379 . S
H535 C529 0.959 . S
H536 C529 0.961 . S
H537 C529 0.960 . S
H538 C530 0.930 . S
H539 C531 0.929 . S
H540 C548 0.929 . S
H541 C550 0.930 . S
H542 C552 0.930 . S
H543 C555 0.929 . S
H544 C558 0.930 . S
H545 C560 0.960 . S
H546 C560 0.960 . S
H547 C560 0.960 . S
C548 H540 0.929 . S
C548 C549 1.377 . S
C548 C550 1.384 . S
C549 C548 1.377 . S
C549 C555 1.390 . S
C550 H541 0.930 . S
C550 C548 1.384 . S
C550 C551 1.372 . S
C551 C550 1.372 . S
C551 C552 1.400 . S
C551 C556 1.490 . S
C552 H542 0.930 . S
C552 C551 1.400 . S
C552 C555 1.386 . S
H553 C569 0.930 . S
H554 C570 0.931 . S
C555 H543 0.929 . S
C555 C549 1.390 . S
C555 C552 1.386 . S
C556 C551 1.490 . S
C556 C558 1.395 . S
C556 C559 1.403 . S
H557 C563 0.930 . S
C558 H544 0.930 . S
C558 C556 1.395 . S
C558 C561 1.403 . S
C559 C556 1.403 . S
C559 C560 1.524 . S
C559 C563 1.400 . S
C560 H545 0.960 . S
C560 H546 0.960 . S
C560 H547 0.960 . S
C560 C559 1.524 . S
C561 C558 1.403 . S
C561 C562 1.392 . S
C561 C565 1.495 . S
C562 C561 1.392 . S
C562 C563 1.385 . S
C562 C564 1.478 . S
C563 H557 0.930 . S
C563 C559 1.400 . S
C563 C562 1.385 . S
C564 C562 1.478 . S
C564 C566 1.381 . S
C564 C570 1.383 . S
C565 C561 1.495 . S
C565 H571 0.959 . S
C565 H572 0.961 . S
C565 H573 0.960 . S
C566 C564 1.381 . S
C566 C567 1.394 . S
C566 H574 0.930 . S
C567 C566 1.394 . S
C567 C568 1.383 . S
C567 H575 0.929 . S
C568 C567 1.383 . S
C568 C569 1.377 . S
C569 H553 0.930 . S
C569 C568 1.377 . S
C569 C570 1.379 . S
C570 H554 0.931 . S
C570 C564 1.383 . S
C570 C569 1.379 . S
H571 C565 0.959 . S
H572 C565 0.961 . S
H573 C565 0.960 . S
H574 C566 0.930 . S
H575 C567 0.929 . S
H576 C584 0.929 . S
H577 C586 0.930 . S
H578 C588 0.930 . S
H579 C591 0.929 . S
H580 C594 0.930 . S
H581 C596 0.960 . S
H582 C596 0.960 . S
H583 C596 0.960 . S
C584 H576 0.929 . S
C584 C585 1.377 . S
C584 C586 1.384 . S
C585 C584 1.377 . S
C585 C591 1.390 . S
C586 H577 0.930 . S
C586 C584 1.384 . S
C586 C587 1.372 . S
C587 C586 1.372 . S
C587 C588 1.400 . S
C587 C592 1.490 . S
C588 H578 0.930 . S
C588 C587 1.400 . S
C588 C591 1.386 . S
H589 C605 0.930 . S
H590 C606 0.931 . S
C591 H579 0.929 . S
C591 C585 1.390 . S
C591 C588 1.386 . S
C592 C587 1.490 . S
C592 C594 1.395 . S
C592 C595 1.403 . S
H593 C599 0.930 . S
C594 H580 0.930 . S
C594 C592 1.395 . S
C594 C597 1.403 . S
C595 C592 1.403 . S
C595 C596 1.524 . S
C595 C599 1.400 . S
C596 H581 0.960 . S
C596 H582 0.960 . S
C596 H583 0.960 . S
C596 C595 1.524 . S
C597 C594 1.403 . S
C597 C598 1.392 . S
C597 C601 1.495 . S
C598 C597 1.392 . S
C598 C599 1.385 . S
C598 C600 1.478 . S
C599 H593 0.930 . S
C599 C595 1.400 . S
C599 C598 1.385 . S
C600 C598 1.478 . S
C600 C602 1.381 . S
C600 C606 1.383 . S
C601 C597 1.495 . S
C601 H607 0.959 . S
C601 H608 0.961 . S
C601 H609 0.960 . S
C602 C600 1.381 . S
C602 C603 1.394 . S
C602 H610 0.930 . S
C603 C602 1.394 . S
C603 C604 1.383 . S
C603 H611 0.929 . S
C604 C603 1.383 . S
C604 C605 1.377 . S
C605 H589 0.930 . S
C605 C604 1.377 . S
C605 C606 1.379 . S
C606 H590 0.931 . S
C606 C600 1.383 . S
C606 C605 1.379 . S
H607 C601 0.959 . S
H608 C601 0.961 . S
H609 C601 0.960 . S
H610 C602 0.930 . S
H611 C603 0.929 . S
H612 C620 0.970 . S
H613 C622 0.930 1_545 S
H614 C624 0.930 . S
H615 C627 0.929 . S
H616 C630 0.930 . S
H617 C632 0.960 . S
H618 C632 0.960 . S
H619 C632 0.960 . S
C620 H612 0.970 . S
C620 C621 1.377 . S
C620 C622 1.384 . S
C621 C620 1.377 . S
C621 C627 1.390 . S
C622 H613 0.930 1_565 S
C622 C620 1.384 . S
C622 C623 1.372 . S
C623 C622 1.372 . S
C623 C624 1.400 . S
C623 C628 1.490 . S
C624 H614 0.930 . S
C624 C623 1.400 . S
C624 C627 1.386 . S
H625 C641 0.930 . S
H626 C642 0.931 . S
C627 H615 0.929 . S
C627 C621 1.390 . S
C627 C624 1.386 . S
C628 C623 1.490 . S
C628 C630 1.395 . S
C628 C631 1.403 . S
H629 C635 0.930 . S
C630 H616 0.930 . S
C630 C628 1.395 . S
C630 C633 1.403 . S
C631 C628 1.403 . S
C631 C632 1.524 . S
C631 C635 1.400 . S
C632 H617 0.960 . S
C632 H618 0.960 . S
C632 H619 0.960 . S
C632 C631 1.524 . S
C633 C630 1.403 . S
C633 C634 1.392 . S
C633 C637 1.495 . S
C634 C633 1.392 . S
C634 C635 1.385 . S
C634 C636 1.478 . S
C635 H629 0.930 . S
C635 C631 1.400 . S
C635 C634 1.385 . S
C636 C634 1.478 . S
C636 C638 1.381 1_565 S
C636 C642 1.383 . S
C637 C633 1.495 . S
C637 H643 0.968 . S
C637 H644 0.961 . S
C637 H645 0.960 1_565 S
C638 C636 1.381 1_545 S
C638 C639 1.394 . S
C638 H646 0.930 . S
C639 C638 1.394 . S
C639 C640 1.383 1_545 S
C639 H647 0.929 . S
C640 C639 1.383 1_565 S
C640 C641 1.377 . S
C641 H625 0.930 . S
C641 C640 1.377 . S
C641 C642 1.379 . S
C642 H626 0.931 . S
C642 C636 1.383 . S
C642 C641 1.379 . S
H643 C637 0.968 . S
H644 C637 0.961 . S
H645 C637 0.960 1_545 S
H646 C638 0.930 . S
H647 C639 0.929 . S
H648 C656 0.929 . S
H649 C658 0.930 . S
H650 C660 0.930 . S
H651 C663 0.929 . S
H652 C666 0.930 . S
H653 C668 0.960 . S
H654 C668 0.960 . S
H655 C668 0.960 . S
C656 H648 0.929 . S
C656 C657 1.377 . S
C656 C658 1.384 . S
C657 C656 1.377 . S
C657 C663 1.390 . S
C658 H649 0.930 . S
C658 C656 1.384 . S
C658 C659 1.372 . S
C659 C658 1.372 . S
C659 C660 1.400 . S
C659 C664 1.490 . S
C660 H650 0.930 . S
C660 C659 1.400 . S
C660 C663 1.386 . S
H661 C677 0.930 . S
H662 C678 0.931 . S
C663 H651 0.929 . S
C663 C657 1.390 . S
C663 C660 1.386 . S
C664 C659 1.490 . S
C664 C666 1.395 . S
C664 C667 1.403 . S
H665 C671 0.930 . S
C666 H652 0.930 . S
C666 C664 1.395 . S
C666 C669 1.403 . S
C667 C664 1.403 . S
C667 C668 1.524 . S
C667 C671 1.400 . S
C668 H653 0.960 . S
C668 H654 0.960 . S
C668 H655 0.960 . S
C668 C667 1.524 . S
C669 C666 1.403 . S
C669 C670 1.392 . S
C669 C673 1.495 . S
C670 C669 1.392 . S
C670 C671 1.385 . S
C670 C672 1.478 . S
C671 H665 0.930 . S
C671 C667 1.400 . S
C671 C670 1.385 . S
C672 C670 1.478 . S
C672 C674 1.381 . S
C672 C678 1.383 . S
C673 C669 1.495 . S
C673 H679 0.959 . S
C673 H680 0.961 . S
C673 H681 0.960 . S
C674 C672 1.381 . S
C674 C675 1.394 . S
C674 H682 0.930 . S
C675 C674 1.394 . S
C675 C676 1.383 . S
C675 H683 0.929 . S
C676 C675 1.383 . S
C676 C677 1.377 . S
C677 H661 0.930 . S
C677 C676 1.377 . S
C677 C678 1.379 . S
C678 H662 0.931 . S
C678 C672 1.383 . S
C678 C677 1.379 . S
H679 C673 0.959 . S
H680 C673 0.961 . S
H681 C673 0.960 . S
H682 C674 0.930 . S
H683 C675 0.929 . S
H684 C692 0.929 . S
H685 C694 0.930 . S
H686 C696 0.930 . S
H687 C699 0.929 . S
H688 C702 0.930 . S
H689 C704 0.960 . S
H690 C704 0.960 . S
H691 C704 0.960 . S
C692 H684 0.929 . S
C692 C693 1.377 . S
C692 C694 1.384 . S
C693 C692 1.377 . S
C693 C699 1.390 . S
C694 H685 0.930 . S
C694 C692 1.384 . S
C694 C695 1.372 . S
C695 C694 1.372 . S
C695 C696 1.400 . S
C695 C700 1.490 . S
C696 H686 0.930 . S
C696 C695 1.400 . S
C696 C699 1.386 . S
H697 C713 0.930 . S
H698 C714 0.931 . S
C699 H687 0.929 . S
C699 C693 1.390 . S
C699 C696 1.386 . S
C700 C695 1.490 . S
C700 C702 1.395 . S
C700 C703 1.403 . S
H701 C707 0.930 . S
C702 H688 0.930 . S
C702 C700 1.395 . S
C702 C705 1.403 . S
C703 C700 1.403 . S
C703 C704 1.524 . S
C703 C707 1.400 . S
C704 H689 0.960 . S
C704 H690 0.960 . S
C704 H691 0.960 . S
C704 C703 1.524 . S
C705 C702 1.403 . S
C705 C706 1.392 . S
C705 C709 1.495 . S
C706 C705 1.392 . S
C706 C707 1.385 . S
C706 C708 1.478 . S
C707 H701 0.930 . S
C707 C703 1.400 . S
C707 C706 1.385 . S
C708 C706 1.478 . S
C708 C710 1.381 . S
C708 C714 1.383 . S
C709 C705 1.495 . S
C709 H715 0.959 . S
C709 H716 0.961 . S
C709 H717 0.960 . S
C710 C708 1.381 . S
C710 C711 1.394 . S
C710 H718 0.930 . S
C711 C710 1.394 . S
C711 C712 1.383 . S
C711 H719 0.929 . S
C712 C711 1.383 . S
C712 C713 1.377 . S
C713 H697 0.930 . S
C713 C712 1.377 . S
C713 C714 1.379 . S
C714 H698 0.931 . S
C714 C708 1.383 . S
C714 C713 1.379 . S
H715 C709 0.959 . S
H716 C709 0.961 . S
H717 C709 0.960 . S
H718 C710 0.930 . S
H719 C711 0.929 . S
H720 C728 0.929 . S
H721 C730 0.930 . S
H722 C732 0.930 . S
H723 C735 0.929 . S
H724 C738 0.930 . S
H725 C740 0.960 . S
H726 C740 0.960 . S
H727 C740 0.960 . S
C728 H720 0.929 . S
C728 C729 1.377 . S
C728 C730 1.384 . S
C729 C728 1.377 . S
C729 C735 1.390 . S
C730 H721 0.930 . S
C730 C728 1.384 . S
C730 C731 1.372 . S
C731 C730 1.372 . S
C731 C732 1.400 . S
C731 C736 1.490 . S
C732 H722 0.930 . S
C732 C731 1.400 . S
C732 C735 1.386 . S
H733 C749 0.930 . S
H734 C750 0.931 . S
C735 H723 0.929 . S
C735 C729 1.390 . S
C735 C732 1.386 . S
C736 C731 1.490 . S
C736 C738 1.395 . S
C736 C739 1.403 . S
H737 C743 0.930 . S
C738 H724 0.930 . S
C738 C736 1.395 . S
C738 C741 1.403 . S
C739 C736 1.403 . S
C739 C740 1.524 . S
C739 C743 1.400 . S
C740 H725 0.960 . S
C740 H726 0.960 . S
C740 H727 0.960 . S
C740 C739 1.524 . S
C741 C738 1.403 . S
C741 C742 1.392 . S
C741 C745 1.495 . S
C742 C741 1.392 . S
C742 C743 1.385 . S
C742 C744 1.478 . S
C743 H737 0.930 . S
C743 C739 1.400 . S
C743 C742 1.385 . S
C744 C742 1.478 . S
C744 C746 1.381 . S
C744 C750 1.383 . S
C745 C741 1.495 . S
C745 H751 0.959 . S
C745 H752 0.961 . S
C745 H753 0.960 . S
C746 C744 1.381 . S
C746 C747 1.394 . S
C746 H754 0.930 . S
C747 C746 1.394 . S
C747 C748 1.383 . S
C747 H755 0.929 . S
C748 C747 1.383 . S
C748 C749 1.377 . S
C749 H733 0.930 . S
C749 C748 1.377 . S
C749 C750 1.379 . S
C750 H734 0.931 . S
C750 C744 1.383 . S
C750 C749 1.379 . S
H751 C745 0.959 . S
H752 C745 0.961 . S
H753 C745 0.960 . S
H754 C746 0.930 . S
H755 C747 0.929 . S
H756 C764 0.929 . S
H757 C766 0.930 . S
H758 C768 0.930 . S
H759 C771 0.929 . S
H760 C774 0.930 . S
H761 C776 0.960 . S
H762 C776 0.960 . S
H763 C776 0.960 . S
C764 H756 0.929 . S
C764 C765 1.377 . S
C764 C766 1.384 . S
C765 C764 1.377 . S
C765 C771 1.390 . S
C766 H757 0.930 . S
C766 C764 1.384 . S
C766 C767 1.372 . S
C767 C766 1.372 . S
C767 C768 1.400 . S
C767 C772 1.490 . S
C768 H758 0.930 . S
C768 C767 1.400 . S
C768 C771 1.386 . S
H769 C785 0.930 . S
H770 C786 0.931 . S
C771 H759 0.929 . S
C771 C765 1.390 . S
C771 C768 1.386 . S
C772 C767 1.490 . S
C772 C774 1.395 . S
C772 C775 1.403 . S
H773 C779 0.930 . S
C774 H760 0.930 . S
C774 C772 1.395 . S
C774 C777 1.403 . S
C775 C772 1.403 . S
C775 C776 1.524 . S
C775 C779 1.400 . S
C776 H761 0.960 . S
C776 H762 0.960 . S
C776 H763 0.960 . S
C776 C775 1.524 . S
C777 C774 1.403 . S
C777 C778 1.392 . S
C777 C781 1.495 . S
C778 C777 1.392 . S
C778 C779 1.385 . S
C778 C780 1.478 . S
C779 H773 0.930 . S
C779 C775 1.400 . S
C779 C778 1.385 . S
C780 C778 1.478 . S
C780 C782 1.381 . S
C780 C786 1.383 . S
C781 C777 1.495 . S
C781 H787 0.959 . S
C781 H788 0.961 . S
C781 H789 0.960 . S
C782 C780 1.381 . S
C782 C783 1.394 . S
C782 H790 0.930 . S
C783 C782 1.394 . S
C783 C784 1.383 . S
C783 H791 0.929 . S
C784 C783 1.383 . S
C784 C785 1.377 . S
C785 H769 0.930 . S
C785 C784 1.377 . S
C785 C786 1.379 . S
C786 H770 0.931 . S
C786 C780 1.383 . S
C786 C785 1.379 . S
H787 C781 0.959 . S
H788 C781 0.961 . S
H789 C781 0.960 . S
H790 C782 0.930 . S
H791 C783 0.929 . S
H792 C800 0.929 . S
H793 C802 0.930 . S
H794 C804 0.930 . S
H795 C807 0.929 . S
H796 C810 0.930 . S
H797 C812 0.960 . S
H798 C812 0.960 . S
H799 C812 0.960 . S
C800 H792 0.929 . S
C800 C801 1.377 . S
C800 C802 1.384 . S
C801 C800 1.377 . S
C801 C807 1.390 . S
C802 H793 0.930 . S
C802 C800 1.384 . S
C802 C803 1.372 . S
C803 C802 1.372 . S
C803 C804 1.400 . S
C803 C808 1.490 . S
C804 H794 0.930 . S
C804 C803 1.400 . S
C804 C807 1.386 . S
H805 C821 0.930 . S
H806 C822 0.931 . S
C807 H795 0.929 . S
C807 C801 1.390 . S
C807 C804 1.386 . S
C808 C803 1.490 . S
C808 C810 1.395 . S
C808 C811 1.403 . S
H809 C815 0.930 . S
C810 H796 0.930 . S
C810 C808 1.395 . S
C810 C813 1.403 . S
C811 C808 1.403 . S
C811 C812 1.524 . S
C811 C815 1.400 . S
C812 H797 0.960 . S
C812 H798 0.960 . S
C812 H799 0.960 . S
C812 C811 1.524 . S
C813 C810 1.403 . S
C813 C814 1.392 . S
C813 C817 1.495 . S
C814 C813 1.392 . S
C814 C815 1.385 . S
C814 C816 1.478 . S
C815 H809 0.930 . S
C815 C811 1.400 . S
C815 C814 1.385 . S
C816 C814 1.478 . S
C816 C818 1.381 . S
C816 C822 1.383 . S
C817 C813 1.495 . S
C817 H823 0.959 . S
C817 H824 0.961 . S
C817 H825 0.960 . S
C818 C816 1.381 . S
C818 C819 1.394 . S
C818 H826 0.930 . S
C819 C818 1.394 . S
C819 C820 1.383 . S
C819 H827 0.929 . S
C820 C819 1.383 . S
C820 C821 1.377 . S
C821 H805 0.930 . S
C821 C820 1.377 . S
C821 C822 1.379 . S
C822 H806 0.931 . S
C822 C816 1.383 . S
C822 C821 1.379 . S
H823 C817 0.959 . S
H824 C817 0.961 . S
H825 C817 0.960 . S
H826 C818 0.930 . S
H827 C819 0.929 . S
H828 C836 0.929 . S
H829 C838 0.930 . S
H830 C840 0.930 . S
H831 C843 0.929 . S
H832 C846 0.930 . S
H833 C848 0.960 . S
H834 C848 0.960 . S
H835 C848 0.960 . S
C836 H828 0.929 . S
C836 C837 1.377 . S
C836 C838 1.384 . S
C837 C836 1.377 . S
C837 C843 1.390 . S
C838 H829 0.930 . S
C838 C836 1.384 . S
C838 C839 1.372 . S
C839 C838 1.372 . S
C839 C840 1.400 . S
C839 C844 1.490 . S
C840 H830 0.930 . S
C840 C839 1.400 . S
C840 C843 1.386 . S
H841 C857 0.930 . S
H842 C858 0.931 . S
C843 H831 0.929 . S
C843 C837 1.390 . S
C843 C840 1.386 . S
C844 C839 1.490 . S
C844 C846 1.395 . S
C844 C847 1.403 . S
H845 C851 0.930 . S
C846 H832 0.930 . S
C846 C844 1.395 . S
C846 C849 1.403 . S
C847 C844 1.403 . S
C847 C848 1.524 . S
C847 C851 1.400 . S
C848 H833 0.960 . S
C848 H834 0.960 . S
C848 H835 0.960 . S
C848 C847 1.524 . S
C849 C846 1.403 . S
C849 C850 1.392 . S
C849 C853 1.495 . S
C850 C849 1.392 . S
C850 C851 1.385 . S
C850 C852 1.478 . S
C851 H845 0.930 . S
C851 C847 1.400 . S
C851 C850 1.385 . S
C852 C850 1.478 . S
C852 C854 1.381 . S
C852 C858 1.383 . S
C853 C849 1.495 . S
C853 H859 0.959 . S
C853 H860 0.961 . S
C853 H861 0.960 . S
C854 C852 1.381 . S
C854 C855 1.394 . S
C854 H862 0.930 . S
C855 C854 1.394 . S
C855 C856 1.383 . S
C855 H863 0.929 . S
C856 C855 1.383 . S
C856 C857 1.377 . S
C857 H841 0.930 . S
C857 C856 1.377 . S
C857 C858 1.379 . S
C858 H842 0.931 . S
C858 C852 1.383 . S
C858 C857 1.379 . S
H859 C853 0.959 . S
H860 C853 0.961 . S
H861 C853 0.960 . S
H862 C854 0.930 . S
H863 C855 0.929 . S
H864 C872 0.929 . S
H865 C874 0.930 . S
H866 C876 0.930 . S
H867 C879 0.929 . S
H868 C882 0.930 . S
H869 C884 0.960 . S
H870 C884 0.960 . S
H871 C884 0.960 . S
C872 H864 0.929 . S
C872 C873 1.377 . S
C872 C874 1.384 . S
C873 C872 1.377 . S
C873 C879 1.390 . S
C874 H865 0.930 . S
C874 C872 1.384 . S
C874 C875 1.372 . S
C875 C874 1.372 . S
C875 C876 1.400 . S
C875 C880 1.490 . S
C876 H866 0.930 . S
C876 C875 1.400 . S
C876 C879 1.386 . S
H877 C893 0.930 . S
H878 C894 0.931 . S
C879 H867 0.929 . S
C879 C873 1.390 . S
C879 C876 1.386 . S
C880 C875 1.490 . S
C880 C882 1.395 . S
C880 C883 1.403 . S
H881 C887 0.930 . S
C882 H868 0.930 . S
C882 C880 1.395 . S
C882 C885 1.403 . S
C883 C880 1.403 . S
C883 C884 1.524 . S
C883 C887 1.400 . S
C884 H869 0.960 . S
C884 H870 0.960 . S
C884 H871 0.960 . S
C884 C883 1.524 . S
C885 C882 1.403 . S
C885 C886 1.392 . S
C885 C889 1.495 . S
C886 C885 1.392 . S
C886 C887 1.385 . S
C886 C888 1.478 . S
C887 H881 0.930 . S
C887 C883 1.400 . S
C887 C886 1.385 . S
C888 C886 1.478 . S
C888 C890 1.381 . S
C888 C894 1.383 . S
C889 C885 1.495 . S
C889 H895 0.959 . S
C889 H896 0.961 . S
C889 H897 0.960 . S
C890 C888 1.381 . S
C890 C891 1.394 . S
C890 H898 0.930 . S
C891 C890 1.394 . S
C891 C892 1.383 . S
C891 H899 0.929 . S
C892 C891 1.383 . S
C892 C893 1.377 . S
C893 H877 0.930 . S
C893 C892 1.377 . S
C893 C894 1.379 . S
C894 H878 0.931 . S
C894 C888 1.383 . S
C894 C893 1.379 . S
H895 C889 0.959 . S
H896 C889 0.961 . S
H897 C889 0.960 . S
H898 C890 0.930 . S
H899 C891 0.929 . S
H900 C908 0.929 . S
H901 C910 0.930 . S
H902 C912 0.930 1_455 S
H903 C915 0.929 1_455 S
H904 C918 0.930 . S
H905 C920 0.960 . S
H906 C920 0.960 1_655 S
H907 C920 0.960 . S
C908 H900 0.929 . S
C908 C909 1.377 . S
C908 C910 1.384 . S
C909 C908 1.377 . S
C909 C915 1.390 . S
C910 H901 0.930 . S
C910 C908 1.384 . S
C910 C911 1.372 . S
C911 C910 1.372 . S
C911 C912 1.400 . S
C911 C916 1.490 . S
C912 H902 0.930 1_655 S
C912 C911 1.400 . S
C912 C915 1.386 . S
H913 C929 0.930 . S
H914 C930 0.931 . S
C915 H903 0.929 1_655 S
C915 C909 1.390 . S
C915 C912 1.386 . S
C916 C911 1.490 . S
C916 C918 1.395 . S
C916 C919 1.403 . S
H917 C923 0.930 . S
C918 H904 0.930 . S
C918 C916 1.395 . S
C918 C921 1.403 . S
C919 C916 1.403 . S
C919 C920 1.524 1_655 S
C919 C923 1.400 1_655 S
C920 H905 0.960 . S
C920 H906 0.960 1_455 S
C920 H907 0.960 . S
C920 C919 1.524 1_455 S
C921 C918 1.403 . S
C921 C922 1.392 . S
C921 C925 1.495 . S
C922 C921 1.392 . S
C922 C923 1.385 1_655 S
C922 C924 1.478 . S
C923 H917 0.930 . S
C923 C919 1.400 1_455 S
C923 C922 1.385 1_455 S
C924 C922 1.478 . S
C924 C926 1.381 . S
C924 C930 1.383 1_655 S
C925 C921 1.495 . S
C925 H931 0.959 . S
C925 H932 0.961 . S
C925 H933 0.960 . S
C926 C924 1.381 . S
C926 C927 1.394 . S
C926 H934 0.930 . S
C927 C926 1.394 . S
C927 C928 1.383 1_655 S
C927 H935 0.929 . S
C928 C927 1.383 1_455 S
C928 C929 1.377 . S
C929 H913 0.930 . S
C929 C928 1.377 . S
C929 C930 1.379 . S
C930 H914 0.931 . S
C930 C924 1.383 1_455 S
C930 C929 1.379 . S
H931 C925 0.959 . S
H932 C925 0.961 . S
H933 C925 0.960 . S
H934 C926 0.930 . S
H935 C927 0.929 . S
H936 C944 0.929 . S
H937 C946 0.930 . S
H938 C948 0.930 . S
H939 C951 0.929 . S
H940 C954 0.930 . S
H941 C956 0.960 . S
H942 C956 0.960 . S
H943 C956 0.960 . S
C944 H936 0.929 . S
C944 C945 1.377 . S
C944 C946 1.384 . S
C945 C944 1.377 . S
C945 C951 1.390 . S
C946 H937 0.930 . S
C946 C944 1.384 . S
C946 C947 1.372 . S
C947 C946 1.372 . S
C947 C948 1.400 . S
C947 C952 1.490 . S
C948 H938 0.930 . S
C948 C947 1.400 . S
C948 C951 1.386 . S
H949 C965 0.930 . S
H950 C966 0.931 . S
C951 H939 0.929 . S
C951 C945 1.390 . S
C951 C948 1.386 . S
C952 C947 1.490 . S
C952 C954 1.395 . S
C952 C955 1.403 . S
H953 C959 0.930 . S
C954 H940 0.930 . S
C954 C952 1.395 . S
C954 C957 1.403 . S
C955 C952 1.403 . S
C955 C956 1.524 . S
C955 C959 1.400 . S
C956 H941 0.960 . S
C956 H942 0.960 . S
C956 H943 0.960 . S
C956 C955 1.524 . S
C957 C954 1.403 . S
C957 C958 1.392 . S
C957 C961 1.495 . S
C958 C957 1.392 . S
C958 C959 1.385 . S
C958 C960 1.478 . S
C959 H953 0.930 . S
C959 C955 1.400 . S
C959 C958 1.385 . S
C960 C958 1.478 . S
C960 C962 1.381 . S
C960 C966 1.383 . S
C961 C957 1.495 . S
C961 H967 0.959 . S
C961 H968 0.961 . S
C961 H969 0.960 . S
C962 C960 1.381 . S
C962 C963 1.394 . S
C962 H970 0.930 . S
C963 C962 1.394 . S
C963 C964 1.383 . S
C963 H971 0.929 . S
C964 C963 1.383 . S
C964 C965 1.377 . S
C965 H949 0.930 . S
C965 C964 1.377 . S
C965 C966 1.379 . S
C966 H950 0.931 . S
C966 C960 1.383 . S
C966 C965 1.379 . S
H967 C961 0.959 . S
H968 C961 0.961 . S
H969 C961 0.960 . S
H970 C962 0.930 . S
H971 C963 0.929 . S
H972 C980 0.929 . S
H973 C982 0.930 . S
H974 C984 0.930 . S
H975 C987 0.929 . S
H976 C990 0.930 . S
H977 C992 0.960 . S
H978 C992 0.960 . S
H979 C992 0.960 . S
C980 H972 0.929 . S
C980 C981 1.377 . S
C980 C982 1.384 . S
C981 C980 1.377 . S
C981 C987 1.390 . S
C982 H973 0.930 . S
C982 C980 1.384 . S
C982 C983 1.372 . S
C983 C982 1.372 . S
C983 C984 1.400 . S
C983 C988 1.490 . S
C984 H974 0.930 . S
C984 C983 1.400 . S
C984 C987 1.386 . S
H985 C1001 0.930 . S
H986 C1002 0.931 . S
C987 H975 0.929 . S
C987 C981 1.390 . S
C987 C984 1.386 . S
C988 C983 1.490 . S
C988 C990 1.395 . S
C988 C991 1.403 . S
H989 C995 0.930 . S
C990 H976 0.930 . S
C990 C988 1.395 . S
C990 C993 1.403 . S
C991 C988 1.403 . S
C991 C992 1.524 . S
C991 C995 1.400 . S
C992 H977 0.960 . S
C992 H978 0.960 . S
C992 H979 0.960 . S
C992 C991 1.524 . S
C993 C990 1.403 . S
C993 C994 1.392 . S
C993 C997 1.495 . S
C994 C993 1.392 . S
C994 C995 1.385 . S
C994 C996 1.478 . S
C995 H989 0.930 . S
C995 C991 1.400 . S
C995 C994 1.385 . S
C996 C994 1.478 . S
C996 C998 1.381 . S
C996 C1002 1.383 . S
C997 C993 1.495 . S
C997 H1003 0.959 . S
C997 H1004 0.961 . S
C997 H1005 0.960 . S
C998 C996 1.381 . S
C998 C999 1.394 . S
C998 H1006 0.930 . S
C999 C998 1.394 . S
C999 C1000 1.383 . S
C999 H1007 0.929 . S
C1000 C999 1.383 . S
C1000 C1001 1.377 . S
C1001 H985 0.930 . S
C1001 C1000 1.377 . S
C1001 C1002 1.379 . S
C1002 H986 0.931 . S
C1002 C996 1.383 . S
C1002 C1001 1.379 . S
H1003 C997 0.959 . S
H1004 C997 0.961 . S
H1005 C997 0.960 . S
H1006 C998 0.930 . S
H1007 C999 0.929 . S
H1008 C1016 0.929 . S
H1009 C1018 0.930 1_565 S
H1010 C1020 0.930 . S
H1011 C1023 0.929 . S
H1012 C1026 0.921 1_545 S
H1013 C1028 0.960 . S
H1014 C1028 0.960 . S
H1015 C1028 0.960 . S
C1016 H1008 0.929 . S
C1016 C1017 1.377 . S
C1016 C1018 1.384 . S
C1017 C1016 1.377 . S
C1017 C1023 1.390 . S
C1018 H1009 0.930 1_545 S
C1018 C1016 1.384 . S
C1018 C1019 1.372 . S
C1019 C1018 1.372 . S
C1019 C1020 1.426 . S
C1019 C1024 1.466 1_545 S
C1020 H1010 0.930 . S
C1020 C1019 1.426 . S
C1020 C1023 1.386 . S
H1021 C1037 0.930 . S
H1022 C1038 0.931 . S
C1023 H1011 0.929 . S
C1023 C1017 1.390 . S
C1023 C1020 1.386 . S
C1024 C1019 1.466 1_565 S
C1024 C1026 1.395 . S
C1024 C1027 1.403 . S
H1025 C1031 0.930 . S
C1026 H1012 0.921 1_565 S
C1026 C1024 1.395 . S
C1026 C1029 1.434 . S
C1027 C1024 1.403 . S
C1027 C1028 1.524 . S
C1027 C1031 1.400 . S
C1028 H1013 0.960 . S
C1028 H1014 0.960 . S
C1028 H1015 0.960 . S
C1028 C1027 1.524 . S
C1029 C1026 1.434 . S
C1029 C1030 1.422 . S
C1029 C1033 1.438 1_556 S
C1030 C1029 1.422 . S
C1030 C1031 1.385 . S
C1030 C1032 1.478 . S
C1031 H1025 0.930 . S
C1031 C1027 1.400 . S
C1031 C1030 1.385 . S
C1032 C1030 1.478 . S
C1032 C1034 1.381 1_556 S
C1032 C1038 1.383 . S
C1033 C1029 1.438 1_554 S
C1033 H1039 0.959 . S
C1033 H1040 0.961 . S
C1033 H1041 0.960 . S
C1034 C1032 1.381 1_554 S
C1034 C1035 1.394 . S
C1034 H1042 0.930 . S
C1035 C1034 1.394 . S
C1035 C1036 1.383 . S
C1035 H1043 0.929 . S
C1036 C1035 1.383 . S
C1036 C1037 1.377 1_554 S
C1037 H1021 0.930 . S
C1037 C1036 1.377 1_556 S
C1037 C1038 1.379 . S
C1038 H1022 0.931 . S
C1038 C1032 1.383 . S
C1038 C1037 1.379 . S
H1039 C1033 0.959 . S
H1040 C1033 0.961 . S
H1041 C1033 0.960 . S
H1042 C1034 0.930 . S
H1043 C1035 0.929 . S
H1044 C1052 0.929 . S
H1045 C1054 0.930 . S
H1046 C1056 0.930 . S
H1047 C1059 0.929 . S
H1048 C1062 0.930 . S
H1049 C1064 0.960 . S
H1050 C1064 0.960 . S
H1051 C1064 0.960 . S
C1052 H1044 0.929 . S
C1052 C1053 1.377 . S
C1052 C1054 1.384 . S
C1053 C1052 1.377 . S
C1053 C1059 1.390 . S
C1054 H1045 0.930 . S
C1054 C1052 1.384 . S
C1054 C1055 1.372 . S
C1055 C1054 1.372 . S
C1055 C1056 1.400 . S
C1055 C1060 1.490 . S
C1056 H1046 0.930 . S
C1056 C1055 1.400 . S
C1056 C1059 1.386 . S
H1057 C1073 0.930 . S
H1058 C1074 0.931 . S
C1059 H1047 0.929 . S
C1059 C1053 1.390 . S
C1059 C1056 1.386 . S
C1060 C1055 1.490 . S
C1060 C1062 1.395 . S
C1060 C1063 1.403 . S
H1061 C1067 0.930 . S
C1062 H1048 0.930 . S
C1062 C1060 1.395 . S
C1062 C1065 1.403 . S
C1063 C1060 1.403 . S
C1063 C1064 1.524 . S
C1063 C1067 1.400 . S
C1064 H1049 0.960 . S
C1064 H1050 0.960 . S
C1064 H1051 0.960 . S
C1064 C1063 1.524 . S
C1065 C1062 1.403 . S
C1065 C1066 1.392 . S
C1065 C1069 1.495 . S
C1066 C1065 1.392 . S
C1066 C1067 1.385 . S
C1066 C1068 1.478 . S
C1067 H1061 0.930 . S
C1067 C1063 1.400 . S
C1067 C1066 1.385 . S
C1068 C1066 1.478 . S
C1068 C1070 1.381 . S
C1068 C1074 1.383 . S
C1069 C1065 1.495 . S
C1069 H1075 0.959 . S
C1069 H1076 0.961 . S
C1069 H1077 0.960 . S
C1070 C1068 1.381 . S
C1070 C1071 1.394 . S
C1070 H1078 0.930 . S
C1071 C1070 1.394 . S
C1071 C1072 1.383 . S
C1071 H1079 0.929 . S
C1072 C1071 1.383 . S
C1072 C1073 1.377 . S
C1073 H1057 0.930 . S
C1073 C1072 1.377 . S
C1073 C1074 1.379 . S
C1074 H1058 0.931 . S
C1074 C1068 1.383 . S
C1074 C1073 1.379 . S
H1075 C1069 0.959 . S
H1076 C1069 0.961 . S
H1077 C1069 0.960 . S
H1078 C1070 0.930 . S
H1079 C1071 0.929 . S
H1080 C1088 0.929 1_565 S
H1081 C1090 0.930 . S
H1082 C1092 0.930 . S
H1083 C1095 0.929 . S
H1084 C1098 0.930 . S
H1085 C1100 0.960 . S
H1086 C1100 0.960 . S
H1087 C1100 0.960 . S
C1088 H1080 0.929 1_545 S
C1088 C1089 1.377 1_545 S
C1088 C1090 1.384 . S
C1089 C1088 1.377 1_565 S
C1089 C1095 1.390 . S
C1090 H1081 0.930 . S
C1090 C1088 1.384 . S
C1090 C1091 1.372 . S
C1091 C1090 1.372 . S
C1091 C1092 1.400 . S
C1091 C1096 1.490 . S
C1092 H1082 0.930 . S
C1092 C1091 1.400 . S
C1092 C1095 1.386 1_545 S
H1093 C1109 0.930 . S
H1094 C1110 0.931 . S
C1095 H1083 0.929 . S
C1095 C1089 1.390 . S
C1095 C1092 1.386 1_565 S
C1096 C1091 1.490 . S
C1096 C1098 1.395 . S
C1096 C1099 1.403 . S
H1097 C1103 0.930 . S
C1098 H1084 0.930 . S
C1098 C1096 1.395 . S
C1098 C1101 1.403 . S
C1099 C1096 1.403 . S
C1099 C1100 1.524 . S
C1099 C1103 1.400 . S
C1100 H1085 0.960 . S
C1100 H1086 0.960 . S
C1100 H1087 0.960 . S
C1100 C1099 1.524 . S
C1101 C1098 1.403 . S
C1101 C1102 1.392 . S
C1101 C1105 1.495 . S
C1102 C1101 1.392 . S
C1102 C1103 1.385 . S
C1102 C1104 1.478 . S
C1103 H1097 0.930 . S
C1103 C1099 1.400 . S
C1103 C1102 1.385 . S
C1104 C1102 1.478 . S
C1104 C1106 1.381 . S
C1104 C1110 1.383 . S
C1105 C1101 1.495 . S
C1105 H1111 0.959 . S
C1105 H1112 0.961 . S
C1105 H1113 0.960 . S
C1106 C1104 1.381 . S
C1106 C1107 1.394 . S
C1106 H1114 0.930 . S
C1107 C1106 1.394 . S
C1107 C1108 1.383 . S
C1107 H1115 0.929 . S
C1108 C1107 1.383 . S
C1108 C1109 1.377 . S
C1109 H1093 0.930 . S
C1109 C1108 1.377 . S
C1109 C1110 1.379 . S
C1110 H1094 0.931 . S
C1110 C1104 1.383 . S
C1110 C1109 1.379 . S
H1111 C1105 0.959 . S
H1112 C1105 0.961 . S
H1113 C1105 0.960 . S
H1114 C1106 0.930 . S
H1115 C1107 0.929 . S
H1116 C1124 0.929 . S
H1117 C1126 0.930 . S
H1118 C1128 0.930 . S
H1119 C1131 0.929 . S
H1120 C1134 0.930 . S
H1121 C1136 0.960 . S
H1122 C1136 0.960 . S
H1123 C1136 0.960 . S
C1124 H1116 0.929 . S
C1124 C1125 1.377 . S
C1124 C1126 1.384 . S
C1125 C1124 1.377 . S
C1125 C1131 1.390 . S
C1126 H1117 0.930 . S
C1126 C1124 1.384 . S
C1126 C1127 1.372 . S
C1127 C1126 1.372 . S
C1127 C1128 1.400 . S
C1127 C1132 1.490 . S
C1128 H1118 0.930 . S
C1128 C1127 1.400 . S
C1128 C1131 1.386 . S
H1129 C1145 0.930 . S
H1130 C1146 0.931 . S
C1131 H1119 0.929 . S
C1131 C1125 1.390 . S
C1131 C1128 1.386 . S
C1132 C1127 1.490 . S
C1132 C1134 1.395 . S
C1132 C1135 1.403 . S
H1133 C1139 0.930 . S
C1134 H1120 0.930 . S
C1134 C1132 1.395 . S
C1134 C1137 1.403 . S
C1135 C1132 1.403 . S
C1135 C1136 1.524 . S
C1135 C1139 1.400 . S
C1136 H1121 0.960 . S
C1136 H1122 0.960 . S
C1136 H1123 0.960 . S
C1136 C1135 1.524 . S
C1137 C1134 1.403 . S
C1137 C1138 1.392 . S
C1137 C1141 1.495 . S
C1138 C1137 1.392 . S
C1138 C1139 1.385 . S
C1138 C1140 1.478 . S
C1139 H1133 0.930 . S
C1139 C1135 1.400 . S
C1139 C1138 1.385 . S
C1140 C1138 1.478 . S
C1140 C1142 1.381 . S
C1140 C1146 1.383 . S
C1141 C1137 1.495 . S
C1141 H1147 0.959 . S
C1141 H1148 0.961 . S
C1141 H1149 0.960 . S
C1142 C1140 1.381 . S
C1142 C1143 1.394 . S
C1142 H1150 0.930 . S
C1143 C1142 1.394 . S
C1143 C1144 1.383 . S
C1143 H1151 0.929 . S
C1144 C1143 1.383 . S
C1144 C1145 1.377 . S
C1145 H1129 0.930 . S
C1145 C1144 1.377 . S
C1145 C1146 1.379 . S
C1146 H1130 0.931 . S
C1146 C1140 1.383 . S
C1146 C1145 1.379 . S
H1147 C1141 0.959 . S
H1148 C1141 0.961 . S
H1149 C1141 0.960 . S
H1150 C1142 0.930 . S
H1151 C1143 0.929 . S
H1152 C1160 0.929 . S
H1153 C1162 0.930 . S
H1154 C1164 0.930 . S
H1155 C1167 0.929 . S
H1156 C1170 0.930 . S
H1157 C1172 0.960 . S
H1158 C1172 0.960 . S
H1159 C1172 0.960 . S
C1160 H1152 0.929 . S
C1160 C1161 1.349 1_545 S
C1160 C1162 1.384 . S
C1161 C1160 1.349 1_565 S
C1161 C1167 1.393 . S
C1162 H1153 0.930 . S
C1162 C1160 1.384 . S
C1162 C1163 1.372 . S
C1163 C1162 1.372 . S
C1163 C1164 1.400 . S
C1163 C1168 1.490 . S
C1164 H1154 0.930 . S
C1164 C1163 1.400 . S
C1164 C1167 1.386 1_545 S
H1165 C1181 0.930 . S
H1166 C1182 0.931 . S
C1167 H1155 0.929 . S
C1167 C1161 1.393 . S
C1167 C1164 1.386 1_565 S
C1168 C1163 1.490 . S
C1168 C1170 1.395 . S
C1168 C1171 1.403 . S
H1169 C1175 0.930 . S
C1170 H1156 0.930 . S
C1170 C1168 1.395 . S
C1170 C1173 1.403 . S
C1171 C1168 1.403 . S
C1171 C1172 1.524 . S
C1171 C1175 1.400 . S
C1172 H1157 0.960 . S
C1172 H1158 0.960 . S
C1172 H1159 0.960 . S
C1172 C1171 1.524 . S
C1173 C1170 1.403 . S
C1173 C1174 1.392 . S
C1173 C1177 1.495 . S
C1174 C1173 1.392 . S
C1174 C1175 1.385 . S
C1174 C1176 1.478 . S
C1175 H1169 0.930 . S
C1175 C1171 1.400 . S
C1175 C1174 1.385 . S
C1176 C1174 1.478 . S
C1176 C1178 1.381 . S
C1176 C1182 1.383 . S
C1177 C1173 1.495 . S
C1177 H1183 0.959 . S
C1177 H1184 0.961 . S
C1177 H1185 0.960 . S
C1178 C1176 1.381 . S
C1178 C1179 1.394 . S
C1178 H1186 0.930 . S
C1179 C1178 1.394 . S
C1179 C1180 1.383 . S
C1179 H1187 0.929 . S
C1180 C1179 1.383 . S
C1180 C1181 1.377 . S
C1181 H1165 0.930 . S
C1181 C1180 1.377 . S
C1181 C1182 1.379 . S
C1182 H1166 0.931 . S
C1182 C1176 1.383 . S
C1182 C1181 1.379 . S
H1183 C1177 0.959 . S
H1184 C1177 0.961 . S
H1185 C1177 0.960 . S
H1186 C1178 0.930 . S
H1187 C1179 0.929 . S
H1188 C1196 0.929 . S
H1189 C1198 0.930 . S
H1190 C1200 0.930 . S
H1191 C1203 0.929 . S
H1192 C1206 0.930 . S
H1193 C1208 0.960 . S
H1194 C1208 0.960 . S
H1195 C1208 0.960 . S
C1196 H1188 0.929 . S
C1196 C1197 1.377 . S
C1196 C1198 1.384 . S
C1197 C1196 1.377 . S
C1197 C1203 1.390 . S
C1198 H1189 0.930 . S
C1198 C1196 1.384 . S
C1198 C1199 1.372 . S
C1199 C1198 1.372 . S
C1199 C1200 1.400 . S
C1199 C1204 1.490 . S
C1200 H1190 0.930 . S
C1200 C1199 1.400 . S
C1200 C1203 1.386 . S
H1201 C1217 0.930 . S
H1202 C1218 0.931 . S
C1203 H1191 0.929 . S
C1203 C1197 1.390 . S
C1203 C1200 1.386 . S
C1204 C1199 1.490 . S
C1204 C1206 1.395 . S
C1204 C1207 1.403 . S
H1205 C1211 0.930 . S
C1206 H1192 0.930 . S
C1206 C1204 1.395 . S
C1206 C1209 1.403 . S
C1207 C1204 1.403 . S
C1207 C1208 1.524 . S
C1207 C1211 1.400 . S
C1208 H1193 0.960 . S
C1208 H1194 0.960 . S
C1208 H1195 0.960 . S
C1208 C1207 1.524 . S
C1209 C1206 1.403 . S
C1209 C1210 1.392 . S
C1209 C1213 1.495 . S
C1210 C1209 1.392 . S
C1210 C1211 1.385 . S
C1210 C1212 1.478 . S
C1211 H1205 0.930 . S
C1211 C1207 1.400 . S
C1211 C1210 1.385 . S
C1212 C1210 1.478 . S
C1212 C1214 1.381 . S
C1212 C1218 1.383 . S
C1213 C1209 1.495 . S
C1213 H1219 0.959 . S
C1213 H1220 0.961 . S
C1213 H1221 0.960 . S
C1214 C1212 1.381 . S
C1214 C1215 1.394 . S
C1214 H1222 0.930 . S
C1215 C1214 1.394 . S
C1215 C1216 1.383 . S
C1215 H1223 0.929 . S
C1216 C1215 1.383 . S
C1216 C1217 1.377 . S
C1217 H1201 0.930 . S
C1217 C1216 1.377 . S
C1217 C1218 1.379 . S
C1218 H1202 0.931 . S
C1218 C1212 1.383 . S
C1218 C1217 1.379 . S
H1219 C1213 0.959 . S
H1220 C1213 0.961 . S
H1221 C1213 0.960 . S
H1222 C1214 0.930 . S
H1223 C1215 0.929 . S
H1224 C1232 0.929 . S
H1225 C1234 0.930 . S
H1226 C1236 0.930 . S
H1227 C1239 0.929 . S
H1228 C1242 0.930 . S
H1229 C1244 0.960 . S
H1230 C1244 0.960 . S
H1231 C1244 0.960 . S
C1232 H1224 0.929 . S
C1232 C1233 1.377 . S
C1232 C1234 1.384 . S
C1233 C1232 1.377 . S
C1233 C1239 1.390 . S
C1234 H1225 0.930 . S
C1234 C1232 1.384 . S
C1234 C1235 1.372 . S
C1235 C1234 1.372 . S
C1235 C1236 1.400 . S
C1235 C1240 1.490 . S
C1236 H1226 0.930 . S
C1236 C1235 1.400 . S
C1236 C1239 1.386 . S
H1237 C1253 0.930 . S
H1238 C1254 0.931 . S
C1239 H1227 0.929 . S
C1239 C1233 1.390 . S
C1239 C1236 1.386 . S
C1240 C1235 1.490 . S
C1240 C1242 1.395 . S
C1240 C1243 1.403 . S
H1241 C1247 0.930 . S
C1242 H1228 0.930 . S
C1242 C1240 1.395 . S
C1242 C1245 1.403 . S
C1243 C1240 1.403 . S
C1243 C1244 1.524 . S
C1243 C1247 1.400 . S
C1244 H1229 0.960 . S
C1244 H1230 0.960 . S
C1244 H1231 0.960 . S
C1244 C1243 1.524 . S
C1245 C1242 1.403 . S
C1245 C1246 1.392 . S
C1245 C1249 1.495 . S
C1246 C1245 1.392 . S
C1246 C1247 1.385 . S
C1246 C1248 1.478 . S
C1247 H1241 0.930 . S
C1247 C1243 1.400 . S
C1247 C1246 1.385 . S
C1248 C1246 1.478 . S
C1248 C1250 1.381 . S
C1248 C1254 1.383 . S
C1249 C1245 1.495 . S
C1249 H1255 0.959 . S
C1249 H1256 0.961 . S
C1249 H1257 0.960 . S
C1250 C1248 1.381 . S
C1250 C1251 1.394 . S
C1250 H1258 0.930 . S
C1251 C1250 1.394 . S
C1251 C1252 1.383 . S
C1251 H1259 0.929 . S
C1252 C1251 1.383 . S
C1252 C1253 1.377 . S
C1253 H1237 0.930 . S
C1253 C1252 1.377 . S
C1253 C1254 1.379 . S
C1254 H1238 0.931 . S
C1254 C1248 1.383 . S
C1254 C1253 1.379 . S
H1255 C1249 0.959 . S
H1256 C1249 0.961 . S
H1257 C1249 0.960 . S
H1258 C1250 0.930 . S
H1259 C1251 0.929 . S
H1260 C1268 0.929 . S
H1261 C1270 0.930 . S
H1262 C1272 0.930 . S
H1263 C1275 0.929 . S
H1264 C1278 0.930 . S
H1265 C1280 0.960 . S
H1266 C1280 0.960 . S
H1267 C1280 0.960 . S
C1268 H1260 0.929 . S
C1268 C1269 1.377 . S
C1268 C1270 1.384 . S
C1269 C1268 1.377 . S
C1269 C1275 1.390 . S
C1270 H1261 0.930 . S
C1270 C1268 1.384 . S
C1270 C1271 1.372 . S
C1271 C1270 1.372 . S
C1271 C1272 1.400 . S
C1271 C1276 1.490 . S
C1272 H1262 0.930 . S
C1272 C1271 1.400 . S
C1272 C1275 1.386 . S
H1273 C1289 0.941 . S
H1274 C1290 0.931 1_565 S
C1275 H1263 0.929 . S
C1275 C1269 1.390 . S
C1275 C1272 1.386 . S
C1276 C1271 1.490 . S
C1276 C1278 1.395 . S
C1276 C1279 1.403 . S
H1277 C1283 0.930 . S
C1278 H1264 0.930 . S
C1278 C1276 1.395 . S
C1278 C1281 1.403 . S
C1279 C1276 1.403 . S
C1279 C1280 1.524 . S
C1279 C1283 1.400 . S
C1280 H1265 0.960 . S
C1280 H1266 0.960 . S
C1280 H1267 0.960 . S
C1280 C1279 1.524 . S
C1281 C1278 1.403 . S
C1281 C1282 1.392 . S
C1281 C1285 1.495 . S
C1282 C1281 1.392 . S
C1282 C1283 1.385 . S
C1282 C1284 1.478 . S
C1283 H1277 0.930 . S
C1283 C1279 1.400 . S
C1283 C1282 1.385 . S
C1284 C1282 1.478 . S
C1284 C1286 1.381 . S
C1284 C1290 1.383 . S
C1285 C1281 1.495 . S
C1285 H1291 0.959 . S
C1285 H1292 0.961 1_545 S
C1285 H1293 0.960 . S
C1286 C1284 1.381 . S
C1286 C1287 1.394 . S
C1286 H1294 0.930 . S
C1287 C1286 1.394 . S
C1287 C1288 1.383 . S
C1287 H1295 0.929 . S
C1288 C1287 1.383 . S
C1288 C1289 1.368 1_545 S
C1289 H1273 0.941 . S
C1289 C1288 1.368 1_565 S
C1289 C1290 1.377 1_565 S
C1290 H1274 0.931 1_545 S
C1290 C1284 1.383 . S
C1290 C1289 1.377 1_545 S
H1291 C1285 0.959 . S
H1292 C1285 0.961 1_565 S
H1293 C1285 0.960 . S
H1294 C1286 0.930 . S
H1295 C1287 0.929 . S
H1296 C1304 0.929 . S
H1297 C1306 0.930 . S
H1298 C1308 0.930 . S
H1299 C1311 0.929 . S
H1300 C1314 0.930 . S
H1301 C1316 0.960 . S
H1302 C1316 0.960 . S
H1303 C1316 0.960 . S
C1304 H1296 0.929 . S
C1304 C1305 1.377 . S
C1304 C1306 1.384 . S
C1305 C1304 1.377 . S
C1305 C1311 1.390 . S
C1306 H1297 0.930 . S
C1306 C1304 1.384 . S
C1306 C1307 1.372 . S
C1307 C1306 1.372 . S
C1307 C1308 1.400 . S
C1307 C1312 1.490 . S
C1308 H1298 0.930 . S
C1308 C1307 1.400 . S
C1308 C1311 1.386 . S
H1309 C1325 0.930 . S
H1310 C1326 0.931 . S
C1311 H1299 0.929 . S
C1311 C1305 1.390 . S
C1311 C1308 1.386 . S
C1312 C1307 1.490 . S
C1312 C1314 1.395 . S
C1312 C1315 1.403 . S
H1313 C1319 0.930 . S
C1314 H1300 0.930 . S
C1314 C1312 1.395 . S
C1314 C1317 1.403 . S
C1315 C1312 1.403 . S
C1315 C1316 1.524 . S
C1315 C1319 1.400 . S
C1316 H1301 0.960 . S
C1316 H1302 0.960 . S
C1316 H1303 0.960 . S
C1316 C1315 1.524 . S
C1317 C1314 1.403 . S
C1317 C1318 1.392 . S
C1317 C1321 1.495 . S
C1318 C1317 1.392 . S
C1318 C1319 1.385 . S
C1318 C1320 1.478 . S
C1319 H1313 0.930 . S
C1319 C1315 1.400 . S
C1319 C1318 1.385 . S
C1320 C1318 1.478 . S
C1320 C1322 1.381 . S
C1320 C1326 1.383 . S
C1321 C1317 1.495 . S
C1321 H1327 0.959 . S
C1321 H1328 0.961 . S
C1321 H1329 0.960 . S
C1322 C1320 1.381 . S
C1322 C1323 1.394 . S
C1322 H1330 0.930 . S
C1323 C1322 1.394 . S
C1323 C1324 1.383 . S
C1323 H1331 0.929 . S
C1324 C1323 1.383 . S
C1324 C1325 1.377 . S
C1325 H1309 0.930 . S
C1325 C1324 1.377 . S
C1325 C1326 1.379 . S
C1326 H1310 0.931 . S
C1326 C1320 1.383 . S
C1326 C1325 1.379 . S
H1327 C1321 0.959 . S
H1328 C1321 0.961 . S
H1329 C1321 0.960 . S
H1330 C1322 0.930 . S
H1331 C1323 0.929 . S
H1332 C1340 0.929 . S
H1333 C1342 0.930 . S
H1334 C1344 0.930 . S
H1335 C1347 0.929 . S
H1336 C1350 0.930 . S
H1337 C1352 0.960 . S
H1338 C1352 0.960 . S
H1339 C1352 0.960 . S
C1340 H1332 0.929 . S
C1340 C1341 1.377 . S
C1340 C1342 1.384 . S
C1341 C1340 1.377 . S
C1341 C1347 1.390 . S
C1342 H1333 0.930 . S
C1342 C1340 1.384 . S
C1342 C1343 1.372 . S
C1343 C1342 1.372 . S
C1343 C1344 1.400 . S
C1343 C1348 1.490 . S
C1344 H1334 0.930 . S
C1344 C1343 1.400 . S
C1344 C1347 1.386 . S
H1345 C1361 0.930 . S
H1346 C1362 0.931 . S
C1347 H1335 0.929 . S
C1347 C1341 1.390 . S
C1347 C1344 1.386 . S
C1348 C1343 1.490 . S
C1348 C1350 1.395 . S
C1348 C1351 1.403 . S
H1349 C1355 0.930 . S
C1350 H1336 0.930 . S
C1350 C1348 1.395 . S
C1350 C1353 1.403 . S
C1351 C1348 1.403 . S
C1351 C1352 1.524 . S
C1351 C1355 1.400 . S
C1352 H1337 0.960 . S
C1352 H1338 0.960 . S
C1352 H1339 0.960 . S
C1352 C1351 1.524 . S
C1353 C1350 1.403 . S
C1353 C1354 1.392 . S
C1353 C1357 1.495 . S
C1354 C1353 1.392 . S
C1354 C1355 1.385 . S
C1354 C1356 1.478 . S
C1355 H1349 0.930 . S
C1355 C1351 1.400 . S
C1355 C1354 1.385 . S
C1356 C1354 1.478 . S
C1356 C1358 1.381 . S
C1356 C1362 1.383 . S
C1357 C1353 1.495 . S
C1357 H1363 0.959 . S
C1357 H1364 0.961 . S
C1357 H1365 0.960 . S
C1358 C1356 1.381 . S
C1358 C1359 1.394 . S
C1358 H1366 0.930 . S
C1359 C1358 1.394 . S
C1359 C1360 1.383 . S
C1359 H1367 0.929 . S
C1360 C1359 1.383 . S
C1360 C1361 1.377 . S
C1361 H1345 0.930 . S
C1361 C1360 1.377 . S
C1361 C1362 1.379 . S
C1362 H1346 0.931 . S
C1362 C1356 1.383 . S
C1362 C1361 1.379 . S
H1363 C1357 0.959 . S
H1364 C1357 0.961 . S
H1365 C1357 0.960 . S
H1366 C1358 0.930 . S
H1367 C1359 0.929 . S
H1368 C1376 0.929 . S
H1369 C1378 0.930 . S
H1370 C1380 0.930 . S
H1371 C1383 0.929 . S
H1372 C1386 0.930 . S
H1373 C1388 0.960 . S
H1374 C1388 0.960 . S
H1375 C1388 0.960 . S
C1376 H1368 0.929 . S
C1376 C1377 1.377 . S
C1376 C1378 1.384 . S
C1377 C1376 1.377 . S
C1377 C1383 1.390 . S
C1378 H1369 0.930 . S
C1378 C1376 1.384 . S
C1378 C1379 1.372 . S
C1379 C1378 1.372 . S
C1379 C1380 1.400 . S
C1379 C1384 1.490 . S
C1380 H1370 0.930 . S
C1380 C1379 1.400 . S
C1380 C1383 1.386 . S
H1381 C1397 0.930 . S
H1382 C1398 0.931 . S
C1383 H1371 0.929 . S
C1383 C1377 1.390 . S
C1383 C1380 1.386 . S
C1384 C1379 1.490 . S
C1384 C1386 1.395 . S
C1384 C1387 1.403 . S
H1385 C1391 0.930 . S
C1386 H1372 0.930 . S
C1386 C1384 1.395 . S
C1386 C1389 1.403 . S
C1387 C1384 1.403 . S
C1387 C1388 1.524 . S
C1387 C1391 1.400 . S
C1388 H1373 0.960 . S
C1388 H1374 0.960 . S
C1388 H1375 0.960 . S
C1388 C1387 1.524 . S
C1389 C1386 1.403 . S
C1389 C1390 1.392 . S
C1389 C1393 1.495 . S
C1390 C1389 1.392 . S
C1390 C1391 1.385 . S
C1390 C1392 1.478 . S
C1391 H1385 0.930 . S
C1391 C1387 1.400 . S
C1391 C1390 1.385 . S
C1392 C1390 1.478 . S
C1392 C1394 1.381 . S
C1392 C1398 1.383 . S
C1393 C1389 1.495 . S
C1393 H1399 0.959 . S
C1393 H1400 0.961 . S
C1393 H1401 0.960 . S
C1394 C1392 1.381 . S
C1394 C1395 1.394 . S
C1394 H1402 0.930 . S
C1395 C1394 1.394 . S
C1395 C1396 1.383 . S
C1395 H1403 0.929 . S
C1396 C1395 1.383 . S
C1396 C1397 1.377 . S
C1397 H1381 0.930 . S
C1397 C1396 1.377 . S
C1397 C1398 1.379 . S
C1398 H1382 0.931 . S
C1398 C1392 1.383 . S
C1398 C1397 1.379 . S
H1399 C1393 0.959 . S
H1400 C1393 0.961 . S
H1401 C1393 0.960 . S
H1402 C1394 0.930 . S
H1403 C1395 0.929 . S
H1404 C1412 0.929 . S
H1405 C1414 0.930 . S
H1406 C1416 0.930 . S
H1407 C1419 0.929 . S
H1408 C1422 0.930 . S
H1409 C1424 0.960 . S
H1410 C1424 0.960 . S
H1411 C1424 0.960 1_455 S
C1412 H1404 0.929 . S
C1412 C1413 1.377 . S
C1412 C1414 1.384 . S
C1413 C1412 1.377 . S
C1413 C1419 1.390 . S
C1414 H1405 0.930 . S
C1414 C1412 1.384 . S
C1414 C1415 1.372 . S
C1415 C1414 1.372 . S
C1415 C1416 1.400 . S
C1415 C1420 1.490 . S
C1416 H1406 0.930 . S
C1416 C1415 1.400 . S
C1416 C1419 1.386 . S
H1417 C1433 0.930 . S
H1418 C1434 0.930 1_455 S
C1419 H1407 0.929 . S
C1419 C1413 1.390 . S
C1419 C1416 1.386 . S
C1420 C1415 1.490 . S
C1420 C1422 1.395 . S
C1420 C1423 1.376 1_455 S
H1421 C1427 0.930 . S
C1422 H1408 0.930 . S
C1422 C1420 1.395 . S
C1422 C1425 1.403 . S
C1423 C1420 1.376 1_655 S
C1423 C1424 1.537 . S
C1423 C1427 1.415 . S
C1424 H1409 0.960 . S
C1424 H1410 0.960 . S
C1424 H1411 0.960 1_655 S
C1424 C1423 1.537 . S
C1425 C1422 1.403 . S
C1425 C1426 1.392 1_455 S
C1425 C1429 1.461 1_545 S
C1426 C1425 1.392 1_655 S
C1426 C1427 1.385 . S
C1426 C1428 1.478 . S
C1427 H1421 0.930 . S
C1427 C1423 1.415 . S
C1427 C1426 1.385 . S
C1428 C1426 1.478 . S
C1428 C1430 1.381 . S
C1428 C1434 1.383 . S
C1429 C1425 1.461 1_565 S
C1429 H1435 0.983 . S
C1429 H1436 0.946 1_565 S
C1429 H1437 0.988 . S
C1430 C1428 1.381 . S
C1430 C1431 1.394 . S
C1430 H1438 0.886 1_545 S
C1431 C1430 1.394 . S
C1431 C1432 1.383 . S
C1431 H1439 0.893 1_545 S
C1432 C1431 1.383 . S
C1432 C1433 1.377 . S
C1433 H1417 0.930 . S
C1433 C1432 1.377 . S
C1433 C1434 1.379 . S
C1434 H1418 0.930 1_655 S
C1434 C1428 1.383 . S
C1434 C1433 1.379 . S
H1435 C1429 0.983 . S
H1436 C1429 0.946 1_545 S
H1437 C1429 0.988 . S
H1438 C1430 0.886 1_565 S
H1439 C1431 0.893 1_565 S
H1440 C1448 0.929 . S
H1441 C1450 0.930 . S
H1442 C1452 0.930 . S
H1443 C1455 0.929 . S
H1444 C1458 0.930 . S
H1445 C1460 0.960 . S
H1446 C1460 0.960 . S
H1447 C1460 0.960 . S
C1448 H1440 0.929 . S
C1448 C1449 1.377 . S
C1448 C1450 1.384 . S
C1449 C1448 1.377 . S
C1449 C1455 1.390 . S
C1450 H1441 0.930 . S
C1450 C1448 1.384 . S
C1450 C1451 1.372 . S
C1451 C1450 1.372 . S
C1451 C1452 1.400 . S
C1451 C1456 1.490 . S
C1452 H1442 0.930 . S
C1452 C1451 1.400 . S
C1452 C1455 1.386 . S
H1453 C1469 0.930 . S
H1454 C1470 0.931 . S
C1455 H1443 0.929 . S
C1455 C1449 1.390 . S
C1455 C1452 1.386 . S
C1456 C1451 1.490 . S
C1456 C1458 1.395 . S
C1456 C1459 1.403 . S
H1457 C1463 0.930 . S
C1458 H1444 0.930 . S
C1458 C1456 1.395 . S
C1458 C1461 1.403 . S
C1459 C1456 1.403 . S
C1459 C1460 1.524 . S
C1459 C1463 1.400 . S
C1460 H1445 0.960 . S
C1460 H1446 0.960 . S
C1460 H1447 0.960 . S
C1460 C1459 1.524 . S
C1461 C1458 1.403 . S
C1461 C1462 1.392 . S
C1461 C1465 1.495 . S
C1462 C1461 1.392 . S
C1462 C1463 1.385 . S
C1462 C1464 1.478 . S
C1463 H1457 0.930 . S
C1463 C1459 1.400 . S
C1463 C1462 1.385 . S
C1464 C1462 1.478 . S
C1464 C1466 1.381 . S
C1464 C1470 1.383 . S
C1465 C1461 1.495 . S
C1465 H1471 0.959 . S
C1465 H1472 0.961 . S
C1465 H1473 0.960 . S
C1466 C1464 1.381 . S
C1466 C1467 1.394 . S
C1466 H1474 0.930 . S
C1467 C1466 1.394 . S
C1467 C1468 1.383 . S
C1467 H1475 0.929 . S
C1468 C1467 1.383 . S
C1468 C1469 1.377 . S
C1469 H1453 0.930 . S
C1469 C1468 1.377 . S
C1469 C1470 1.379 . S
C1470 H1454 0.931 . S
C1470 C1464 1.383 . S
C1470 C1469 1.379 . S
H1471 C1465 0.959 . S
H1472 C1465 0.961 . S
H1473 C1465 0.960 . S
H1474 C1466 0.930 . S
H1475 C1467 0.929 . S
H1476 C1484 0.929 . S
H1477 C1486 0.930 . S
H1478 C1488 0.930 . S
H1479 C1491 0.932 . S
H1480 C1494 0.930 . S
H1481 C1496 0.960 . S
H1482 C1496 0.908 1_655 S
H1483 C1496 0.960 . S
C1484 H1476 0.929 . S
C1484 C1485 1.377 . S
C1484 C1486 1.384 1_655 S
C1485 C1484 1.377 . S
C1485 C1491 1.407 . S
C1486 H1477 0.930 . S
C1486 C1484 1.384 1_455 S
C1486 C1487 1.372 . S
C1487 C1486 1.372 . S
C1487 C1488 1.400 . S
C1487 C1492 1.490 . S
C1488 H1478 0.930 . S
C1488 C1487 1.400 . S
C1488 C1491 1.366 1_455 S
H1489 C1505 0.930 . S
H1490 C1506 0.931 . S
C1491 H1479 0.932 . S
C1491 C1485 1.407 . S
C1491 C1488 1.366 1_655 S
C1492 C1487 1.490 . S
C1492 C1494 1.395 . S
C1492 C1495 1.403 . S
H1493 C1499 0.930 . S
C1494 H1480 0.930 . S
C1494 C1492 1.395 . S
C1494 C1497 1.403 . S
C1495 C1492 1.403 . S
C1495 C1496 1.524 . S
C1495 C1499 1.400 . S
C1496 H1481 0.960 . S
C1496 H1482 0.908 1_455 S
C1496 H1483 0.960 . S
C1496 C1495 1.524 . S
C1497 C1494 1.403 . S
C1497 C1498 1.392 . S
C1497 C1501 1.495 . S
C1498 C1497 1.392 . S
C1498 C1499 1.385 . S
C1498 C1500 1.478 . S
C1499 H1493 0.930 . S
C1499 C1495 1.400 . S
C1499 C1498 1.385 . S
C1500 C1498 1.478 . S
C1500 C1502 1.381 . S
C1500 C1506 1.383 . S
C1501 C1497 1.495 . S
C1501 H1507 0.959 . S
C1501 H1508 0.961 . S
C1501 H1509 0.960 . S
C1502 C1500 1.381 . S
C1502 C1503 1.394 . S
C1502 H1510 0.930 . S
C1503 C1502 1.394 . S
C1503 C1504 1.383 . S
C1503 H1511 0.929 . S
C1504 C1503 1.383 . S
C1504 C1505 1.377 . S
C1505 H1489 0.930 . S
C1505 C1504 1.377 . S
C1505 C1506 1.379 . S
C1506 H1490 0.931 . S
C1506 C1500 1.383 . S
C1506 C1505 1.379 . S
H1507 C1501 0.959 . S
H1508 C1501 0.961 . S
H1509 C1501 0.960 . S
H1510 C1502 0.930 . S
H1511 C1503 0.929 . S
H1512 C1520 0.929 . S
H1513 C1522 0.930 . S
H1514 C1524 0.930 . S
H1515 C1527 0.929 . S
H1516 C1530 0.930 . S
H1517 C1532 0.960 . S
H1518 C1532 0.960 . S
H1519 C1532 0.960 . S
C1520 H1512 0.929 . S
C1520 C1521 1.377 . S
C1520 C1522 1.384 . S
C1521 C1520 1.377 . S
C1521 C1527 1.390 . S
C1522 H1513 0.930 . S
C1522 C1520 1.384 . S
C1522 C1523 1.372 . S
C1523 C1522 1.372 . S
C1523 C1524 1.400 . S
C1523 C1528 1.490 . S
C1524 H1514 0.930 . S
C1524 C1523 1.400 . S
C1524 C1527 1.386 . S
H1525 C1541 0.930 . S
H1526 C1542 0.931 . S
C1527 H1515 0.929 . S
C1527 C1521 1.390 . S
C1527 C1524 1.386 . S
C1528 C1523 1.490 . S
C1528 C1530 1.395 . S
C1528 C1531 1.403 . S
H1529 C1535 0.930 . S
C1530 H1516 0.930 . S
C1530 C1528 1.395 . S
C1530 C1533 1.403 . S
C1531 C1528 1.403 . S
C1531 C1532 1.524 . S
C1531 C1535 1.400 . S
C1532 H1517 0.960 . S
C1532 H1518 0.960 . S
C1532 H1519 0.960 . S
C1532 C1531 1.524 . S
C1533 C1530 1.403 . S
C1533 C1534 1.392 . S
C1533 C1537 1.495 . S
C1534 C1533 1.392 . S
C1534 C1535 1.385 . S
C1534 C1536 1.478 . S
C1535 H1529 0.930 . S
C1535 C1531 1.400 . S
C1535 C1534 1.385 . S
C1536 C1534 1.478 . S
C1536 C1538 1.381 . S
C1536 C1542 1.383 . S
C1537 C1533 1.495 . S
C1537 H1543 0.959 . S
C1537 H1544 0.961 . S
C1537 H1545 0.960 . S
C1538 C1536 1.381 . S
C1538 C1539 1.394 . S
C1538 H1546 0.930 . S
C1539 C1538 1.394 . S
C1539 C1540 1.383 . S
C1539 H1547 0.929 . S
C1540 C1539 1.383 . S
C1540 C1541 1.377 . S
C1541 H1525 0.930 . S
C1541 C1540 1.377 . S
C1541 C1542 1.379 . S
C1542 H1526 0.931 . S
C1542 C1536 1.383 . S
C1542 C1541 1.379 . S
H1543 C1537 0.959 . S
H1544 C1537 0.961 . S
H1545 C1537 0.960 . S
H1546 C1538 0.930 . S
H1547 C1539 0.929 . S
H1548 C1556 0.929 . S
H1549 C1558 0.949 . S
H1550 C1560 0.930 . S
H1551 C1563 0.929 . S
H1552 C1566 0.930 . S
H1553 C1568 0.960 . S
H1554 C1568 0.960 . S
H1555 C1568 0.960 . S
C1556 H1548 0.929 . S
C1556 C1557 1.377 . S
C1556 C1558 1.426 . S
C1557 C1556 1.377 . S
C1557 C1563 1.390 1_554 S
C1558 H1549 0.949 . S
C1558 C1556 1.426 . S
C1558 C1559 1.314 1_554 S
C1559 C1558 1.314 1_556 S
C1559 C1560 1.400 . S
C1559 C1564 1.490 . S
C1560 H1550 0.930 . S
C1560 C1559 1.400 . S
C1560 C1563 1.386 . S
H1561 C1577 0.916 1_455 S
H1562 C1578 0.931 . S
C1563 H1551 0.929 . S
C1563 C1557 1.390 1_556 S
C1563 C1560 1.386 . S
C1564 C1559 1.490 . S
C1564 C1566 1.395 . S
C1564 C1567 1.403 . S
H1565 C1571 0.904 1_455 S
C1566 H1552 0.930 . S
C1566 C1564 1.395 . S
C1566 C1569 1.403 . S
C1567 C1564 1.403 . S
C1567 C1568 1.524 1_655 S
C1567 C1571 1.406 . S
C1568 H1553 0.960 . S
C1568 H1554 0.960 . S
C1568 H1555 0.960 . S
C1568 C1567 1.524 1_455 S
C1569 C1566 1.403 . S
C1569 C1570 1.392 . S
C1569 C1573 1.495 . S
C1570 C1569 1.392 . S
C1570 C1571 1.405 . S
C1570 C1572 1.478 . S
C1571 H1565 0.904 1_655 S
C1571 C1567 1.406 . S
C1571 C1570 1.405 . S
C1572 C1570 1.478 . S
C1572 C1574 1.381 . S
C1572 C1578 1.383 . S
C1573 C1569 1.495 . S
C1573 H1579 0.959 . S
C1573 H1580 0.961 . S
C1573 H1581 0.960 . S
C1574 C1572 1.381 . S
C1574 C1575 1.394 . S
C1574 H1582 0.930 . S
C1575 C1574 1.394 . S
C1575 C1576 1.383 . S
C1575 H1583 0.929 . S
C1576 C1575 1.383 . S
C1576 C1577 1.379 . S
C1577 H1561 0.916 1_655 S
C1577 C1576 1.379 . S
C1577 C1578 1.392 . S
C1578 H1562 0.931 . S
C1578 C1572 1.383 . S
C1578 C1577 1.392 . S
H1579 C1573 0.959 . S
H1580 C1573 0.961 . S
H1581 C1573 0.960 . S
H1582 C1574 0.930 . S
H1583 C1575 0.929 . S
H1584 C1592 0.929 . S
H1585 C1594 0.930 . S
H1586 C1596 0.930 . S
H1587 C1599 0.929 . S
H1588 C1602 0.930 . S
H1589 C1604 0.960 . S
H1590 C1604 0.960 . S
H1591 C1604 0.960 . S
C1592 H1584 0.929 . S
C1592 C1593 1.377 . S
C1592 C1594 1.384 . S
C1593 C1592 1.377 . S
C1593 C1599 1.390 . S
C1594 H1585 0.930 . S
C1594 C1592 1.384 . S
C1594 C1595 1.372 . S
C1595 C1594 1.372 . S
C1595 C1596 1.400 . S
C1595 C1600 1.490 . S
C1596 H1586 0.930 . S
C1596 C1595 1.400 . S
C1596 C1599 1.386 . S
H1597 C1613 0.930 . S
H1598 C1614 0.931 . S
C1599 H1587 0.929 . S
C1599 C1593 1.390 . S
C1599 C1596 1.386 . S
C1600 C1595 1.490 . S
C1600 C1602 1.395 . S
C1600 C1603 1.403 . S
H1601 C1607 0.930 . S
C1602 H1588 0.930 . S
C1602 C1600 1.395 . S
C1602 C1605 1.403 . S
C1603 C1600 1.403 . S
C1603 C1604 1.524 . S
C1603 C1607 1.400 . S
C1604 H1589 0.960 . S
C1604 H1590 0.960 . S
C1604 H1591 0.960 . S
C1604 C1603 1.524 . S
C1605 C1602 1.403 . S
C1605 C1606 1.392 . S
C1605 C1609 1.495 . S
C1606 C1605 1.392 . S
C1606 C1607 1.385 . S
C1606 C1608 1.478 . S
C1607 H1601 0.930 . S
C1607 C1603 1.400 . S
C1607 C1606 1.385 . S
C1608 C1606 1.478 . S
C1608 C1610 1.381 . S
C1608 C1614 1.383 . S
C1609 C1605 1.495 . S
C1609 H1615 0.959 . S
C1609 H1616 0.961 . S
C1609 H1617 0.960 . S
C1610 C1608 1.381 . S
C1610 C1611 1.394 . S
C1610 H1618 0.930 . S
C1611 C1610 1.394 . S
C1611 C1612 1.383 . S
C1611 H1619 0.929 . S
C1612 C1611 1.383 . S
C1612 C1613 1.377 . S
C1613 H1597 0.930 . S
C1613 C1612 1.377 . S
C1613 C1614 1.379 . S
C1614 H1598 0.931 . S
C1614 C1608 1.383 . S
C1614 C1613 1.379 . S
H1615 C1609 0.959 . S
H1616 C1609 0.961 . S
H1617 C1609 0.960 . S
H1618 C1610 0.930 . S
H1619 C1611 0.929 . S
H1620 C1628 0.929 . S
H1621 C1630 0.944 . S
H1622 C1632 0.930 . S
H1623 C1635 0.929 . S
H1624 C1638 0.930 . S
H1625 C1640 0.960 1_655 S
H1626 C1640 0.960 . S
H1627 C1640 0.960 . S
C1628 H1620 0.929 . S
C1628 C1629 1.377 . S
C1628 C1630 1.384 1_554 S
C1629 C1628 1.377 . S
C1629 C1635 1.390 1_554 S
C1630 H1621 0.944 . S
C1630 C1628 1.384 1_556 S
C1630 C1631 1.372 . S
C1631 C1630 1.372 . S
C1631 C1632 1.400 . S
C1631 C1636 1.490 . S
C1632 H1622 0.930 . S
C1632 C1631 1.400 . S
C1632 C1635 1.386 . S
H1633 C1649 0.930 . S
H1634 C1650 0.931 . S
C1635 H1623 0.929 . S
C1635 C1629 1.390 1_556 S
C1635 C1632 1.386 . S
C1636 C1631 1.490 . S
C1636 C1638 1.395 . S
C1636 C1639 1.403 . S
H1637 C1643 0.930 . S
C1638 H1624 0.930 . S
C1638 C1636 1.395 . S
C1638 C1641 1.403 . S
C1639 C1636 1.403 . S
C1639 C1640 1.524 . S
C1639 C1643 1.400 . S
C1640 H1625 0.960 1_455 S
C1640 H1626 0.960 . S
C1640 H1627 0.960 . S
C1640 C1639 1.524 . S
C1641 C1638 1.403 . S
C1641 C1642 1.392 . S
C1641 C1645 1.495 . S
C1642 C1641 1.392 . S
C1642 C1643 1.385 . S
C1642 C1644 1.478 . S
C1643 H1637 0.930 . S
C1643 C1639 1.400 . S
C1643 C1642 1.385 . S
C1644 C1642 1.478 . S
C1644 C1646 1.381 . S
C1644 C1650 1.383 . S
C1645 C1641 1.495 . S
C1645 H1651 0.959 . S
C1645 H1652 0.961 . S
C1645 H1653 0.960 . S
C1646 C1644 1.381 . S
C1646 C1647 1.394 . S
C1646 H1654 0.930 . S
C1647 C1646 1.394 . S
C1647 C1648 1.383 . S
C1647 H1655 0.929 . S
C1648 C1647 1.383 . S
C1648 C1649 1.377 . S
C1649 H1633 0.930 . S
C1649 C1648 1.377 . S
C1649 C1650 1.379 . S
C1650 H1634 0.931 . S
C1650 C1644 1.383 . S
C1650 C1649 1.379 . S
H1651 C1645 0.959 . S
H1652 C1645 0.961 . S
H1653 C1645 0.960 . S
H1654 C1646 0.930 . S
H1655 C1647 0.929 . S
H1656 C1664 0.929 . S
H1657 C1666 0.930 . S
H1658 C1668 0.930 . S
H1659 C1671 0.929 . S
H1660 C1674 0.930 . S
H1661 C1676 0.960 . S
H1662 C1676 0.960 . S
H1663 C1676 0.960 . S
C1664 H1656 0.929 . S
C1664 C1665 1.377 . S
C1664 C1666 1.384 . S
C1665 C1664 1.377 . S
C1665 C1671 1.390 . S
C1666 H1657 0.930 . S
C1666 C1664 1.384 . S
C1666 C1667 1.372 . S
C1667 C1666 1.372 . S
C1667 C1668 1.400 . S
C1667 C1672 1.490 . S
C1668 H1658 0.930 . S
C1668 C1667 1.400 . S
C1668 C1671 1.386 . S
H1669 C1685 0.930 . S
H1670 C1686 0.931 . S
C1671 H1659 0.929 . S
C1671 C1665 1.390 . S
C1671 C1668 1.386 . S
C1672 C1667 1.490 . S
C1672 C1674 1.395 . S
C1672 C1675 1.403 . S
H1673 C1679 0.930 . S
C1674 H1660 0.930 . S
C1674 C1672 1.395 . S
C1674 C1677 1.403 . S
C1675 C1672 1.403 . S
C1675 C1676 1.524 . S
C1675 C1679 1.400 . S
C1676 H1661 0.960 . S
C1676 H1662 0.960 . S
C1676 H1663 0.960 . S
C1676 C1675 1.524 . S
C1677 C1674 1.403 . S
C1677 C1678 1.392 . S
C1677 C1681 1.495 . S
C1678 C1677 1.392 . S
C1678 C1679 1.385 . S
C1678 C1680 1.478 . S
C1679 H1673 0.930 . S
C1679 C1675 1.400 . S
C1679 C1678 1.385 . S
C1680 C1678 1.478 . S
C1680 C1682 1.381 . S
C1680 C1686 1.383 . S
C1681 C1677 1.495 . S
C1681 H1687 0.959 . S
C1681 H1688 0.961 . S
C1681 H1689 0.960 . S
C1682 C1680 1.381 . S
C1682 C1683 1.394 . S
C1682 H1690 0.930 . S
C1683 C1682 1.394 . S
C1683 C1684 1.383 . S
C1683 H1691 0.929 . S
C1684 C1683 1.383 . S
C1684 C1685 1.377 . S
C1685 H1669 0.930 . S
C1685 C1684 1.377 . S
C1685 C1686 1.379 . S
C1686 H1670 0.931 . S
C1686 C1680 1.383 . S
C1686 C1685 1.379 . S
H1687 C1681 0.959 . S
H1688 C1681 0.961 . S
H1689 C1681 0.960 . S
H1690 C1682 0.930 . S
H1691 C1683 0.929 . S
H1692 C1700 0.903 1_556 S
H1693 C1702 0.930 . S
H1694 C1704 0.930 . S
H1695 C1707 0.929 . S
H1696 C1710 0.930 . S
H1697 C1712 0.960 . S
H1698 C1712 0.960 . S
H1699 C1712 0.960 . S
C1700 H1692 0.903 1_554 S
C1700 C1701 1.375 . S
C1700 C1702 1.414 . S
C1701 C1700 1.375 . S
C1701 C1707 1.390 . S
C1702 H1693 0.930 . S
C1702 C1700 1.414 . S
C1702 C1703 1.372 . S
C1703 C1702 1.372 . S
C1703 C1704 1.400 . S
C1703 C1708 1.490 . S
C1704 H1694 0.930 . S
C1704 C1703 1.400 . S
C1704 C1707 1.386 . S
H1705 C1721 0.930 . S
H1706 C1722 0.931 . S
C1707 H1695 0.929 . S
C1707 C1701 1.390 . S
C1707 C1704 1.386 . S
C1708 C1703 1.490 . S
C1708 C1710 1.395 . S
C1708 C1711 1.403 . S
H1709 C1715 0.930 . S
C1710 H1696 0.930 . S
C1710 C1708 1.395 . S
C1710 C1713 1.403 . S
C1711 C1708 1.403 . S
C1711 C1712 1.524 . S
C1711 C1715 1.400 . S
C1712 H1697 0.960 . S
C1712 H1698 0.960 . S
C1712 H1699 0.960 . S
C1712 C1711 1.524 . S
C1713 C1710 1.403 . S
C1713 C1714 1.392 . S
C1713 C1717 1.495 . S
C1714 C1713 1.392 . S
C1714 C1715 1.385 . S
C1714 C1716 1.478 . S
C1715 H1709 0.930 . S
C1715 C1711 1.400 . S
C1715 C1714 1.385 . S
C1716 C1714 1.478 . S
C1716 C1718 1.381 . S
C1716 C1722 1.383 . S
C1717 C1713 1.495 . S
C1717 H1723 0.959 . S
C1717 H1724 0.961 . S
C1717 H1725 0.960 . S
C1718 C1716 1.381 . S
C1718 C1719 1.394 . S
C1718 H1726 0.930 . S
C1719 C1718 1.394 . S
C1719 C1720 1.383 . S
C1719 H1727 0.929 . S
C1720 C1719 1.383 . S
C1720 C1721 1.377 . S
C1721 H1705 0.930 . S
C1721 C1720 1.377 . S
C1721 C1722 1.379 . S
C1722 H1706 0.931 . S
C1722 C1716 1.383 . S
C1722 C1721 1.379 . S
H1723 C1717 0.959 . S
H1724 C1717 0.961 . S
H1725 C1717 0.960 . S
H1726 C1718 0.930 . S
H1727 C1719 0.929 . S
H1728 C1736 0.929 . S
H1729 C1738 0.930 . S
H1730 C1740 0.930 . S
H1731 C1743 0.929 . S
H1732 C1746 0.930 . S
H1733 C1748 0.960 . S
H1734 C1748 0.960 . S
H1735 C1748 0.960 . S
C1736 H1728 0.929 . S
C1736 C1737 1.377 . S
C1736 C1738 1.384 . S
C1737 C1736 1.377 . S
C1737 C1743 1.390 . S
C1738 H1729 0.930 . S
C1738 C1736 1.384 . S
C1738 C1739 1.372 . S
C1739 C1738 1.372 . S
C1739 C1740 1.400 . S
C1739 C1744 1.490 . S
C1740 H1730 0.930 . S
C1740 C1739 1.400 . S
C1740 C1743 1.386 . S
H1741 C1757 0.930 . S
H1742 C1758 0.931 . S
C1743 H1731 0.929 . S
C1743 C1737 1.390 . S
C1743 C1740 1.386 . S
C1744 C1739 1.490 . S
C1744 C1746 1.395 . S
C1744 C1747 1.403 . S
H1745 C1751 0.930 . S
C1746 H1732 0.930 . S
C1746 C1744 1.395 . S
C1746 C1749 1.403 . S
C1747 C1744 1.403 . S
C1747 C1748 1.524 . S
C1747 C1751 1.400 . S
C1748 H1733 0.960 . S
C1748 H1734 0.960 . S
C1748 H1735 0.960 . S
C1748 C1747 1.524 . S
C1749 C1746 1.403 . S
C1749 C1750 1.392 . S
C1749 C1753 1.495 . S
C1750 C1749 1.392 . S
C1750 C1751 1.385 . S
C1750 C1752 1.478 . S
C1751 H1745 0.930 . S
C1751 C1747 1.400 . S
C1751 C1750 1.385 . S
C1752 C1750 1.478 . S
C1752 C1754 1.381 . S
C1752 C1758 1.383 . S
C1753 C1749 1.495 . S
C1753 H1759 0.959 . S
C1753 H1760 0.961 . S
C1753 H1761 0.960 . S
C1754 C1752 1.381 . S
C1754 C1755 1.394 . S
C1754 H1762 0.930 . S
C1755 C1754 1.394 . S
C1755 C1756 1.383 . S
C1755 H1763 0.929 . S
C1756 C1755 1.383 . S
C1756 C1757 1.377 . S
C1757 H1741 0.930 . S
C1757 C1756 1.377 . S
C1757 C1758 1.379 . S
C1758 H1742 0.931 . S
C1758 C1752 1.383 . S
C1758 C1757 1.379 . S
H1759 C1753 0.959 . S
H1760 C1753 0.961 . S
H1761 C1753 0.960 . S
H1762 C1754 0.930 . S
H1763 C1755 0.929 . S
H1764 C1772 0.929 . S
H1765 C1774 0.930 . S
H1766 C1776 0.930 . S
H1767 C1779 0.929 . S
H1768 C1782 0.930 . S
H1769 C1784 0.960 . S
H1770 C1784 0.960 . S
H1771 C1784 0.960 . S
C1772 H1764 0.929 . S
C1772 C1773 1.377 . S
C1772 C1774 1.384 . S
C1773 C1772 1.377 . S
C1773 C1779 1.390 . S
C1774 H1765 0.930 . S
C1774 C1772 1.384 . S
C1774 C1775 1.372 1_556 S
C1775 C1774 1.372 1_554 S
C1775 C1776 1.400 . S
C1775 C1780 1.490 . S
C1776 H1766 0.930 . S
C1776 C1775 1.400 . S
C1776 C1779 1.386 1_554 S
H1777 C1793 0.930 . S
H1778 C1794 0.931 . S
C1779 H1767 0.929 . S
C1779 C1773 1.390 . S
C1779 C1776 1.386 1_556 S
C1780 C1775 1.490 . S
C1780 C1782 1.395 . S
C1780 C1783 1.403 . S
H1781 C1787 0.930 . S
C1782 H1768 0.930 . S
C1782 C1780 1.395 . S
C1782 C1785 1.403 . S
C1783 C1780 1.403 . S
C1783 C1784 1.524 . S
C1783 C1787 1.400 . S
C1784 H1769 0.960 . S
C1784 H1770 0.960 . S
C1784 H1771 0.960 . S
C1784 C1783 1.524 . S
C1785 C1782 1.403 . S
C1785 C1786 1.392 . S
C1785 C1789 1.495 . S
C1786 C1785 1.392 . S
C1786 C1787 1.385 . S
C1786 C1788 1.478 . S
C1787 H1781 0.930 . S
C1787 C1783 1.400 . S
C1787 C1786 1.385 . S
C1788 C1786 1.478 . S
C1788 C1790 1.381 . S
C1788 C1794 1.383 . S
C1789 C1785 1.495 . S
C1789 H1795 0.959 . S
C1789 H1796 0.961 . S
C1789 H1797 0.960 . S
C1790 C1788 1.381 . S
C1790 C1791 1.394 . S
C1790 H1798 0.930 . S
C1791 C1790 1.394 . S
C1791 C1792 1.383 . S
C1791 H1799 0.929 . S
C1792 C1791 1.383 . S
C1792 C1793 1.377 . S
C1793 H1777 0.930 . S
C1793 C1792 1.377 . S
C1793 C1794 1.379 . S
C1794 H1778 0.931 . S
C1794 C1788 1.383 . S
C1794 C1793 1.379 . S
H1795 C1789 0.959 . S
H1796 C1789 0.961 . S
H1797 C1789 0.960 . S
H1798 C1790 0.930 . S
H1799 C1791 0.929 . S
H1800 C1808 0.929 . S
H1801 C1810 0.930 . S
H1802 C1812 0.930 . S
H1803 C1815 0.929 . S
H1804 C1818 0.930 . S
H1805 C1820 0.960 . S
H1806 C1820 0.960 . S
H1807 C1820 0.960 . S
C1808 H1800 0.929 . S
C1808 C1809 1.377 . S
C1808 C1810 1.384 . S
C1809 C1808 1.377 . S
C1809 C1815 1.390 . S
C1810 H1801 0.930 . S
C1810 C1808 1.384 . S
C1810 C1811 1.372 . S
C1811 C1810 1.372 . S
C1811 C1812 1.400 . S
C1811 C1816 1.490 . S
C1812 H1802 0.930 . S
C1812 C1811 1.400 . S
C1812 C1815 1.386 . S
H1813 C1829 0.930 . S
H1814 C1830 0.931 . S
C1815 H1803 0.929 . S
C1815 C1809 1.390 . S
C1815 C1812 1.386 . S
C1816 C1811 1.490 . S
C1816 C1818 1.395 . S
C1816 C1819 1.403 . S
H1817 C1823 0.930 . S
C1818 H1804 0.930 . S
C1818 C1816 1.395 . S
C1818 C1821 1.403 . S
C1819 C1816 1.403 . S
C1819 C1820 1.524 . S
C1819 C1823 1.400 . S
C1820 H1805 0.960 . S
C1820 H1806 0.960 . S
C1820 H1807 0.960 . S
C1820 C1819 1.524 . S
C1821 C1818 1.403 . S
C1821 C1822 1.392 . S
C1821 C1825 1.495 . S
C1822 C1821 1.392 . S
C1822 C1823 1.385 . S
C1822 C1824 1.478 . S
C1823 H1817 0.930 . S
C1823 C1819 1.400 . S
C1823 C1822 1.385 . S
C1824 C1822 1.478 . S
C1824 C1826 1.381 . S
C1824 C1830 1.383 . S
C1825 C1821 1.495 . S
C1825 H1831 0.959 . S
C1825 H1832 0.961 . S
C1825 H1833 0.960 . S
C1826 C1824 1.381 . S
C1826 C1827 1.394 . S
C1826 H1834 0.930 . S
C1827 C1826 1.394 . S
C1827 C1828 1.383 . S
C1827 H1835 0.929 . S
C1828 C1827 1.383 . S
C1828 C1829 1.377 . S
C1829 H1813 0.930 . S
C1829 C1828 1.377 . S
C1829 C1830 1.379 . S
C1830 H1814 0.931 . S
C1830 C1824 1.383 . S
C1830 C1829 1.379 . S
H1831 C1825 0.959 . S
H1832 C1825 0.961 . S
H1833 C1825 0.960 . S
H1834 C1826 0.930 . S
H1835 C1827 0.929 . S
H1836 C1844 0.929 . S
H1837 C1846 0.930 . S
H1838 C1848 0.930 . S
H1839 C1851 0.929 . S
H1840 C1854 0.930 . S
H1841 C1856 0.960 . S
H1842 C1856 0.960 . S
H1843 C1856 0.960 . S
C1844 H1836 0.929 . S
C1844 C1845 1.377 . S
C1844 C1846 1.384 . S
C1845 C1844 1.377 . S
C1845 C1851 1.390 . S
C1846 H1837 0.930 . S
C1846 C1844 1.384 . S
C1846 C1847 1.372 . S
C1847 C1846 1.372 . S
C1847 C1848 1.400 . S
C1847 C1852 1.490 . S
C1848 H1838 0.930 . S
C1848 C1847 1.400 . S
C1848 C1851 1.386 . S
H1849 C1865 0.930 . S
H1850 C1866 0.931 . S
C1851 H1839 0.929 . S
C1851 C1845 1.390 . S
C1851 C1848 1.386 . S
C1852 C1847 1.490 . S
C1852 C1854 1.395 . S
C1852 C1855 1.403 . S
H1853 C1859 0.930 . S
C1854 H1840 0.930 . S
C1854 C1852 1.395 . S
C1854 C1857 1.403 . S
C1855 C1852 1.403 . S
C1855 C1856 1.524 . S
C1855 C1859 1.400 . S
C1856 H1841 0.960 . S
C1856 H1842 0.960 . S
C1856 H1843 0.960 . S
C1856 C1855 1.524 . S
C1857 C1854 1.403 . S
C1857 C1858 1.392 . S
C1857 C1861 1.495 . S
C1858 C1857 1.392 . S
C1858 C1859 1.385 . S
C1858 C1860 1.478 . S
C1859 H1853 0.930 . S
C1859 C1855 1.400 . S
C1859 C1858 1.385 . S
C1860 C1858 1.478 . S
C1860 C1862 1.381 . S
C1860 C1866 1.383 . S
C1861 C1857 1.495 . S
C1861 H1867 0.959 . S
C1861 H1868 0.961 . S
C1861 H1869 0.960 . S
C1862 C1860 1.381 . S
C1862 C1863 1.394 . S
C1862 H1870 0.930 . S
C1863 C1862 1.394 . S
C1863 C1864 1.383 . S
C1863 H1871 0.929 . S
C1864 C1863 1.383 . S
C1864 C1865 1.377 . S
C1865 H1849 0.930 . S
C1865 C1864 1.377 . S
C1865 C1866 1.379 . S
C1866 H1850 0.931 . S
C1866 C1860 1.383 . S
C1866 C1865 1.379 . S
H1867 C1861 0.959 . S
H1868 C1861 0.961 . S
H1869 C1861 0.960 . S
H1870 C1862 0.930 . S
H1871 C1863 0.929 . S
H1872 C1880 0.929 . S
H1873 C1882 0.930 . S
H1874 C1884 0.930 . S
H1875 C1887 0.929 . S
H1876 C1890 0.930 . S
H1877 C1892 0.960 . S
H1878 C1892 0.960 . S
H1879 C1892 0.960 . S
C1880 H1872 0.929 . S
C1880 C1881 1.377 . S
C1880 C1882 1.384 . S
C1881 C1880 1.377 . S
C1881 C1887 1.390 . S
C1882 H1873 0.930 . S
C1882 C1880 1.384 . S
C1882 C1883 1.372 . S
C1883 C1882 1.372 . S
C1883 C1884 1.400 . S
C1883 C1888 1.490 . S
C1884 H1874 0.930 . S
C1884 C1883 1.400 . S
C1884 C1887 1.386 . S
H1885 C1901 0.930 . S
H1886 C1902 0.931 . S
C1887 H1875 0.929 . S
C1887 C1881 1.390 . S
C1887 C1884 1.386 . S
C1888 C1883 1.490 . S
C1888 C1890 1.395 . S
C1888 C1891 1.403 . S
H1889 C1895 0.930 . S
C1890 H1876 0.930 . S
C1890 C1888 1.395 . S
C1890 C1893 1.403 . S
C1891 C1888 1.403 . S
C1891 C1892 1.524 . S
C1891 C1895 1.400 . S
C1892 H1877 0.960 . S
C1892 H1878 0.960 . S
C1892 H1879 0.960 . S
C1892 C1891 1.524 . S
C1893 C1890 1.403 . S
C1893 C1894 1.392 . S
C1893 C1897 1.495 . S
C1894 C1893 1.392 . S
C1894 C1895 1.385 . S
C1894 C1896 1.478 . S
C1895 H1889 0.930 . S
C1895 C1891 1.400 . S
C1895 C1894 1.385 . S
C1896 C1894 1.478 . S
C1896 C1898 1.381 . S
C1896 C1902 1.383 . S
C1897 C1893 1.495 . S
C1897 H1903 0.959 . S
C1897 H1904 0.961 . S
C1897 H1905 0.960 . S
C1898 C1896 1.381 . S
C1898 C1899 1.394 . S
C1898 H1906 0.930 . S
C1899 C1898 1.394 . S
C1899 C1900 1.383 . S
C1899 H1907 0.929 . S
C1900 C1899 1.383 . S
C1900 C1901 1.377 . S
C1901 H1885 0.930 . S
C1901 C1900 1.377 . S
C1901 C1902 1.379 . S
C1902 H1886 0.931 . S
C1902 C1896 1.383 . S
C1902 C1901 1.379 . S
H1903 C1897 0.959 . S
H1904 C1897 0.961 . S
H1905 C1897 0.960 . S
H1906 C1898 0.930 . S
H1907 C1899 0.929 . S
H1908 C1916 0.929 . S
H1909 C1918 0.930 . S
H1910 C1920 0.930 . S
H1911 C1923 0.929 . S
H1912 C1926 0.930 . S
H1913 C1928 0.960 . S
H1914 C1928 0.960 . S
H1915 C1928 0.960 . S
C1916 H1908 0.929 . S
C1916 C1917 1.377 . S
C1916 C1918 1.384 . S
C1917 C1916 1.377 . S
C1917 C1923 1.390 . S
C1918 H1909 0.930 . S
C1918 C1916 1.384 . S
C1918 C1919 1.372 . S
C1919 C1918 1.372 . S
C1919 C1920 1.400 . S
C1919 C1924 1.490 . S
C1920 H1910 0.930 . S
C1920 C1919 1.400 . S
C1920 C1923 1.386 . S
H1921 C1937 0.930 . S
H1922 C1938 0.931 . S
C1923 H1911 0.929 . S
C1923 C1917 1.390 . S
C1923 C1920 1.386 . S
C1924 C1919 1.490 . S
C1924 C1926 1.395 . S
C1924 C1927 1.403 . S
H1925 C1931 0.930 . S
C1926 H1912 0.930 . S
C1926 C1924 1.395 . S
C1926 C1929 1.403 . S
C1927 C1924 1.403 . S
C1927 C1928 1.524 . S
C1927 C1931 1.400 . S
C1928 H1913 0.960 . S
C1928 H1914 0.960 . S
C1928 H1915 0.960 . S
C1928 C1927 1.524 . S
C1929 C1926 1.403 . S
C1929 C1930 1.392 . S
C1929 C1933 1.495 . S
C1930 C1929 1.392 . S
C1930 C1931 1.385 . S
C1930 C1932 1.478 . S
C1931 H1925 0.930 . S
C1931 C1927 1.400 . S
C1931 C1930 1.385 . S
C1932 C1930 1.478 . S
C1932 C1934 1.381 . S
C1932 C1938 1.383 . S
C1933 C1929 1.495 . S
C1933 H1939 0.959 . S
C1933 H1940 0.961 . S
C1933 H1941 0.960 . S
C1934 C1932 1.381 . S
C1934 C1935 1.394 . S
C1934 H1942 0.930 . S
C1935 C1934 1.394 . S
C1935 C1936 1.383 . S
C1935 H1943 0.929 . S
C1936 C1935 1.383 . S
C1936 C1937 1.377 . S
C1937 H1921 0.930 . S
C1937 C1936 1.377 . S
C1937 C1938 1.379 . S
C1938 H1922 0.931 . S
C1938 C1932 1.383 . S
C1938 C1937 1.379 . S
H1939 C1933 0.959 . S
H1940 C1933 0.961 . S
H1941 C1933 0.960 . S
H1942 C1934 0.930 . S
H1943 C1935 0.929 . S
H1944 C1952 0.929 . S
H1945 C1954 0.904 1_554 S
H1946 C1956 0.930 . S
H1947 C1959 0.929 . S
H1948 C1962 0.930 1_554 S
H1949 C1964 0.960 . S
H1950 C1964 0.960 . S
H1951 C1964 0.960 . S
C1952 H1944 0.929 . S
C1952 C1953 1.377 . S
C1952 C1954 1.384 . S
C1953 C1952 1.377 . S
C1953 C1959 1.390 . S
C1954 H1945 0.904 1_556 S
C1954 C1952 1.384 . S
C1954 C1955 1.372 . S
C1955 C1954 1.372 . S
C1955 C1956 1.400 . S
C1955 C1960 1.490 . S
C1956 H1946 0.930 . S
C1956 C1955 1.400 . S
C1956 C1959 1.386 . S
H1957 C1973 0.930 . S
H1958 C1974 0.931 . S
C1959 H1947 0.929 . S
C1959 C1953 1.390 . S
C1959 C1956 1.386 . S
C1960 C1955 1.490 . S
C1960 C1962 1.395 . S
C1960 C1963 1.403 . S
H1961 C1967 0.930 . S
C1962 H1948 0.930 1_556 S
C1962 C1960 1.395 . S
C1962 C1965 1.403 . S
C1963 C1960 1.403 . S
C1963 C1964 1.524 . S
C1963 C1967 1.400 . S
C1964 H1949 0.960 . S
C1964 H1950 0.960 . S
C1964 H1951 0.960 . S
C1964 C1963 1.524 . S
C1965 C1962 1.403 . S
C1965 C1966 1.392 . S
C1965 C1969 1.495 1_556 S
C1966 C1965 1.392 . S
C1966 C1967 1.385 . S
C1966 C1968 1.478 . S
C1967 H1961 0.930 . S
C1967 C1963 1.400 . S
C1967 C1966 1.385 . S
C1968 C1966 1.478 . S
C1968 C1970 1.381 1_556 S
C1968 C1974 1.383 . S
C1969 C1965 1.495 1_554 S
C1969 H1975 0.959 . S
C1969 H1976 0.961 . S
C1969 H1977 0.960 . S
C1970 C1968 1.381 1_554 S
C1970 C1971 1.394 . S
C1970 H1978 0.930 . S
C1971 C1970 1.394 . S
C1971 C1972 1.383 1_554 S
C1971 H1979 0.929 . S
C1972 C1971 1.383 1_556 S
C1972 C1973 1.377 . S
C1973 H1957 0.930 . S
C1973 C1972 1.377 . S
C1973 C1974 1.379 . S
C1974 H1958 0.931 . S
C1974 C1968 1.383 . S
C1974 C1973 1.379 . S
H1975 C1969 0.959 . S
H1976 C1969 0.961 . S
H1977 C1969 0.960 . S
H1978 C1970 0.930 . S
H1979 C1971 0.929 . S
H1980 C1988 0.929 . S
H1981 C1990 0.930 . S
H1982 C1992 0.930 . S
H1983 C1995 0.929 . S
H1984 C1998 0.930 . S
H1985 C2000 0.960 . S
H1986 C2000 0.960 . S
H1987 C2000 0.960 . S
C1988 H1980 0.929 . S
C1988 C1989 1.377 . S
C1988 C1990 1.384 . S
C1989 C1988 1.377 . S
C1989 C1995 1.390 . S
C1990 H1981 0.930 . S
C1990 C1988 1.384 . S
C1990 C1991 1.372 . S
C1991 C1990 1.372 . S
C1991 C1992 1.400 . S
C1991 C1996 1.490 . S
C1992 H1982 0.930 . S
C1992 C1991 1.400 . S
C1992 C1995 1.386 . S
H1993 C2009 0.930 . S
H1994 C2010 0.931 . S
C1995 H1983 0.929 . S
C1995 C1989 1.390 . S
C1995 C1992 1.386 . S
C1996 C1991 1.490 . S
C1996 C1998 1.395 . S
C1996 C1999 1.403 . S
H1997 C2003 0.930 . S
C1998 H1984 0.930 . S
C1998 C1996 1.395 . S
C1998 C2001 1.403 . S
C1999 C1996 1.403 . S
C1999 C2000 1.524 . S
C1999 C2003 1.400 . S
C2000 H1985 0.960 . S
C2000 H1986 0.960 . S
C2000 H1987 0.960 . S
C2000 C1999 1.524 . S
C2001 C1998 1.403 . S
C2001 C2002 1.392 . S
C2001 C2005 1.495 . S
C2002 C2001 1.392 . S
C2002 C2003 1.385 . S
C2002 C2004 1.478 . S
C2003 H1997 0.930 . S
C2003 C1999 1.400 . S
C2003 C2002 1.385 . S
C2004 C2002 1.478 . S
C2004 C2006 1.381 . S
C2004 C2010 1.383 . S
C2005 C2001 1.495 . S
C2005 H2011 0.959 . S
C2005 H2012 0.961 . S
C2005 H2013 0.960 . S
C2006 C2004 1.381 . S
C2006 C2007 1.394 . S
C2006 H2014 0.930 . S
C2007 C2006 1.394 . S
C2007 C2008 1.383 . S
C2007 H2015 0.929 . S
C2008 C2007 1.383 . S
C2008 C2009 1.377 . S
C2009 H1993 0.930 . S
C2009 C2008 1.377 . S
C2009 C2010 1.379 . S
C2010 H1994 0.931 . S
C2010 C2004 1.383 . S
C2010 C2009 1.379 . S
H2011 C2005 0.959 . S
H2012 C2005 0.961 . S
H2013 C2005 0.960 . S
H2014 C2006 0.930 . S
H2015 C2007 0.929 . S
H2016 C2024 0.929 . S
H2017 C2026 0.930 . S
H2018 C2028 0.930 . S
H2019 C2031 0.929 . S
H2020 C2034 0.930 . S
H2021 C2036 0.960 . S
H2022 C2036 0.960 . S
H2023 C2036 0.960 . S
C2024 H2016 0.929 . S
C2024 C2025 1.377 . S
C2024 C2026 1.384 . S
C2025 C2024 1.377 . S
C2025 C2031 1.390 . S
C2026 H2017 0.930 . S
C2026 C2024 1.384 . S
C2026 C2027 1.372 . S
C2027 C2026 1.372 . S
C2027 C2028 1.400 . S
C2027 C2032 1.490 . S
C2028 H2018 0.930 . S
C2028 C2027 1.400 . S
C2028 C2031 1.386 . S
H2029 C2045 0.930 . S
H2030 C2046 0.931 . S
C2031 H2019 0.929 . S
C2031 C2025 1.390 . S
C2031 C2028 1.386 . S
C2032 C2027 1.490 . S
C2032 C2034 1.395 . S
C2032 C2035 1.403 . S
H2033 C2039 0.930 . S
C2034 H2020 0.930 . S
C2034 C2032 1.395 . S
C2034 C2037 1.403 . S
C2035 C2032 1.403 . S
C2035 C2036 1.524 . S
C2035 C2039 1.400 . S
C2036 H2021 0.960 . S
C2036 H2022 0.960 . S
C2036 H2023 0.960 . S
C2036 C2035 1.524 . S
C2037 C2034 1.403 . S
C2037 C2038 1.392 . S
C2037 C2041 1.495 1_554 S
C2038 C2037 1.392 . S
C2038 C2039 1.385 . S
C2038 C2040 1.478 . S
C2039 H2033 0.930 . S
C2039 C2035 1.400 . S
C2039 C2038 1.385 . S
C2040 C2038 1.478 . S
C2040 C2042 1.381 . S
C2040 C2046 1.383 . S
C2041 C2037 1.495 1_556 S
C2041 H2047 0.959 . S
C2041 H2048 0.961 . S
C2041 H2049 0.960 . S
C2042 C2040 1.381 . S
C2042 C2043 1.394 . S
C2042 H2050 0.930 . S
C2043 C2042 1.394 . S
C2043 C2044 1.383 . S
C2043 H2051 0.929 . S
C2044 C2043 1.383 . S
C2044 C2045 1.377 . S
C2045 H2029 0.930 . S
C2045 C2044 1.377 . S
C2045 C2046 1.379 . S
C2046 H2030 0.931 . S
C2046 C2040 1.383 . S
C2046 C2045 1.379 . S
H2047 C2041 0.959 . S
H2048 C2041 0.961 . S
H2049 C2041 0.960 . S
H2050 C2042 0.930 . S
H2051 C2043 0.929 . S
H2052 C2060 0.929 . S
H2053 C2062 0.923 1_565 S
H2054 C2064 0.930 . S
H2055 C2067 0.929 . S
H2056 C2070 0.930 . S
H2057 C2072 0.960 . S
H2058 C2072 0.960 . S
H2059 C2072 0.960 . S
C2060 H2052 0.929 . S
C2060 C2061 1.377 . S
C2060 C2062 1.399 . S
C2061 C2060 1.377 . S
C2061 C2067 1.390 . S
C2062 H2053 0.923 1_545 S
C2062 C2060 1.399 . S
C2062 C2063 1.364 1_545 S
C2063 C2062 1.364 1_565 S
C2063 C2064 1.400 . S
C2063 C2068 1.490 . S
C2064 H2054 0.930 . S
C2064 C2063 1.400 . S
C2064 C2067 1.386 1_565 S
H2065 C2081 0.930 1_556 S
H2066 C2082 0.931 . S
C2067 H2055 0.929 . S
C2067 C2061 1.390 . S
C2067 C2064 1.386 1_545 S
C2068 C2063 1.490 . S
C2068 C2070 1.395 . S
C2068 C2071 1.403 . S
H2069 C2075 0.930 . S
C2070 H2056 0.930 . S
C2070 C2068 1.395 . S
C2070 C2073 1.403 . S
C2071 C2068 1.403 . S
C2071 C2072 1.524 1_565 S
C2071 C2075 1.400 . S
C2072 H2057 0.960 . S
C2072 H2058 0.960 . S
C2072 H2059 0.960 . S
C2072 C2071 1.524 1_545 S
C2073 C2070 1.403 . S
C2073 C2074 1.392 . S
C2073 C2077 1.495 . S
C2074 C2073 1.392 . S
C2074 C2075 1.385 . S
C2074 C2076 1.478 . S
C2075 H2069 0.930 . S
C2075 C2071 1.400 . S
C2075 C2074 1.385 . S
C2076 C2074 1.478 . S
C2076 C2078 1.381 . S
C2076 C2082 1.383 . S
C2077 C2073 1.495 . S
C2077 H2083 0.959 . S
C2077 H2084 0.961 . S
C2077 H2085 0.960 . S
C2078 C2076 1.381 . S
C2078 C2079 1.394 . S
C2078 H2086 0.930 . S
C2079 C2078 1.394 . S
C2079 C2080 1.383 . S
C2079 H2087 0.929 . S
C2080 C2079 1.383 . S
C2080 C2081 1.377 . S
C2081 H2065 0.930 1_554 S
C2081 C2080 1.377 . S
C2081 C2082 1.379 . S
C2082 H2066 0.931 . S
C2082 C2076 1.383 . S
C2082 C2081 1.379 . S
H2083 C2077 0.959 . S
H2084 C2077 0.961 . S
H2085 C2077 0.960 . S
H2086 C2078 0.930 . S
H2087 C2079 0.929 . S
C388 C200 1.744 . S
C369 C66 1.806 . S
C424 C213 1.022 . S
C405 C76 1.025 1_455 S
C441 C93 2.030 . S
C460 C233 1.844 . S
C496 C247 1.311 . S
C477 C54 1.396 . S
C532 C259 1.518 . S
C513 C126 1.543 . S
C568 C273 1.778 . S
C549 C150 1.783 . S
C585 C136 1.031 . S
C604 C283 1.020 . S
C640 C298 1.827 . S
C621 C117 1.848 . S
C657 C141 1.227 . S
C676 C312 1.216 . S
C712 C331 1.189 . S
C693 C112 1.233 . S
C729 C124 1.559 . S
C748 C311 1.539 . S
C784 C329 1.154 . S
C765 C148 1.163 . S
C801 C88 1.420 . S
C820 C345 1.370 . S
C837 C52 1.625 . S
C856 C339 1.622 . S
C873 C64 1.242 . S
C892 C343 1.227 . S
C909 C78 1.164 . S
C928 C340 1.132 . S
C945 C45 1.775 . S
C964 C242 1.750 . S
C981 C177 1.883 . S
C1000 C241 1.873 . S
C1036 C205 1.238 . S
C1017 C189 1.279 . S
C1072 C219 1.631 . S
C1053 C102 1.779 . S
C1089 C57 1.779 . S
C1108 C256 1.760 . S
C1144 C301 1.479 . S
C1125 C138 1.483 . S
C1180 C255 1.774 . S
C1161 C114 1.821 . S
C1216 C287 1.658 . S
C1197 C153 1.669 . S
C1252 C284 1.732 . S
C1233 C174 1.806 . S
C1269 C184 1.032 . S
C1288 C297 1.019 . S
C1305 C105 2.031 . S
C1324 C261 1.890 . S
C1360 C275 1.258 . S
C1341 C162 1.398 . S
C1377 C42 1.541 . S
C1396 C231 1.517 . S
C1432 C245 1.777 . S
C1413 C6 1.782 . S
C1468 C199 1.045 . S
C1449 C16 1.036 . S
C1504 C214 1.808 . S
C1485 C33 1.848 . S
C1521 C21 1.229 . S
C1540 C326 1.224 . S
C1557 C28 1.230 . S
C1576 C317 1.185 1_655 S
C1593 C40 1.560 . S
C1612 C325 1.534 . S
C1629 C4 1.162 . S
C1648 C315 1.151 . S
C1684 C359 1.375 . S
C1665 C100 1.420 . S
C1720 C353 1.616 . S
C1701 C160 1.625 1_554 S
C1756 C357 1.244 . S
C1737 C172 1.239 . S
C1773 C186 1.164 . S
C1792 C354 1.119 . S
C1809 C129 1.775 . S
C1828 C270 1.743 . S
C1864 C269 1.853 . S
C1845 C69 1.881 . S
C1900 C289 1.185 . S
C1881 C81 1.280 . S
C1936 C303 1.690 . S
C1917 C90 1.779 . S
C1953 C165 1.777 . S
C1972 C228 1.768 . S
C2008 C217 1.484 . S
C1989 C18 1.483 . S
C2025 C30 1.796 . S
C2044 C227 1.768 . S
C2080 C203 1.658 . S
C2061 C9 1.669 . S
