# Generated by pormake.
# Topology rtl, (3,6)-cn, num edge types: 1
# Building blocks:
#     Node 0, Type 0, BuildingBlock: VETTIZ_charged_linker_0, # of connection points: 3
#     Node 1, Type 0, BuildingBlock: VETTIZ_charged_linker_0, # of connection points: 3
#     Node 2, Type 0, BuildingBlock: VETTIZ_charged_linker_0, # of connection points: 3
#     Node 3, Type 0, BuildingBlock: VETTIZ_charged_linker_0, # of connection points: 3
#     Node 4, Type 1, BuildingBlock: FUNLAD_clean_sbu_0, # of connection points: 6
#     Node 5, Type 1, BuildingBlock: FUNLAD_clean_sbu_0, # of connection points: 6
#     Edge 6, Type (0, 1), BuildingBlock: EZIPEK_clean_linker_0, # of connection points: 2
#     Edge 7, Type (0, 1), BuildingBlock: EZIPEK_clean_linker_0, # of connection points: 2
#     Edge 8, Type (0, 1), BuildingBlock: EZIPEK_clean_linker_0, # of connection points: 2
#     Edge 9, Type (0, 1), BuildingBlock: EZIPEK_clean_linker_0, # of connection points: 2
#     Edge 10, Type (0, 1), BuildingBlock: EZIPEK_clean_linker_0, # of connection points: 2
#     Edge 11, Type (0, 1), BuildingBlock: EZIPEK_clean_linker_0, # of connection points: 2
#     Edge 12, Type (0, 1), BuildingBlock: EZIPEK_clean_linker_0, # of connection points: 2
#     Edge 13, Type (0, 1), BuildingBlock: EZIPEK_clean_linker_0, # of connection points: 2
#     Edge 14, Type (0, 1), BuildingBlock: EZIPEK_clean_linker_0, # of connection points: 2
#     Edge 15, Type (0, 1), BuildingBlock: EZIPEK_clean_linker_0, # of connection points: 2
#     Edge 16, Type (0, 1), BuildingBlock: EZIPEK_clean_linker_0, # of connection points: 2
#     Edge 17, Type (0, 1), BuildingBlock: EZIPEK_clean_linker_0, # of connection points: 2
# Relax obj value: 0.027
# Max RMSD: 0.109
# Mean RMSD: 0.090
data_MOF--net-rtl--node1-FUNLAD_clean_sbu_0--node2-VETTIZ_charged_linker_0--edge1-EZIPEK_clean_linker_0
_symmetry_space_group_name_H-M    P1
_symmetry_Int_Tables_number       1
_symmetry_cell_setting            triclinic
loop_
_symmetry_equiv_pos_as_xyz
'x, y, z'
_cell_length_a     39.198312
_cell_length_b     31.364602
_cell_length_c     21.976777
_cell_angle_alpha  89.842617
_cell_angle_beta   90.823979
_cell_angle_gamma 90.484639
loop_
_atom_site_label
_atom_site_type_symbol
_atom_site_fract_x
_atom_site_fract_y
_atom_site_fract_z
_atom_type_partial_charge
C0 C 0.08905 0.81669 0.8035 0.0
C1 C 0.0651 0.84974 0.79801 0.0
C2 C 0.05135 0.86756 0.85085 0.0
C3 C 0.08614 0.82129 0.91355 0.0
C4 C 0.09978 0.80366 0.86181 0.0
C5 C 0.12806 0.77292 0.87691 0.0
H6 H 0.22539 0.67381 0.0917 0.0
C7 C 0.10347 0.80244 0.96692 0.0
C8 C 0.12827 0.77429 0.94618 0.0
H9 H 0.23722 0.67271 0.89663 0.0
H10 H 0.18705 0.71636 0.88406 0.0
H11 H 0.21582 0.77146 0.09653 0.0
H12 H 0.139 0.67214 0.09588 0.0
H13 H 0.13004 0.70931 0.15356 0.0
H14 H 0.16923 0.6798 0.15719 0.0
H15 H 0.20712 0.74034 0.16324 0.0
H16 H 0.18325 0.78774 0.14491 0.0
C17 C 0.16173 0.79073 0.85003 0.0
C18 C 0.11752 0.72843 0.85264 0.0
C19 C 0.06939 0.85081 0.17623 0.0
C20 C 0.0824 0.84287 0.23471 0.0
C21 C 0.10814 0.81226 0.24309 0.0
C22 C 0.12136 0.7905 0.19291 0.0
C23 C 0.10902 0.80016 0.13399 0.0
C24 C 0.08324 0.82964 0.1268 0.0
C25 C 0.07439 0.83808 0.06141 0.0
C26 C 0.09897 0.80868 0.03006 0.0
C27 C 0.11919 0.78642 0.07248 0.0
C28 C 0.08213 0.88585 0.0477 0.0
C29 C 0.03673 0.82425 0.05054 0.0
C30 C 0.21678 0.68264 0.04636 0.0
C31 C 0.235 0.66974 0.99501 0.0
C32 C 0.22345 0.68226 0.93669 0.0
C33 C 0.19451 0.70778 0.92956 0.0
C34 C 0.1774 0.72192 0.98138 0.0
C35 C 0.18864 0.70947 0.03862 0.0
C36 C 0.16945 0.7311 0.08855 0.0
C37 C 0.14447 0.7579 0.05181 0.0
C38 C 0.14905 0.75203 0.98902 0.0
C39 C 0.19504 0.75897 0.12579 0.0
C40 C 0.15101 0.69646 0.12631 0.0
H41 H 0.04986 0.86821 0.94657 0.0
H42 H 0.10015 0.80273 0.76341 0.0
H43 H 0.09068 0.72089 0.86484 0.0
H44 H 0.13309 0.70251 0.8722 0.0
H45 H 0.11932 0.72729 0.80227 0.0
H46 H 0.16076 0.8259 0.84351 0.0
H47 H 0.16698 0.77633 0.80504 0.0
H48 H 0.18397 0.78575 0.88073 0.0
H49 H 0.04985 0.87461 0.16889 0.0
H50 H 0.11844 0.806 0.2882 0.0
H51 H 0.14118 0.7678 0.20167 0.0
H52 H 0.10173 0.89921 0.07962 0.0
H53 H 0.05888 0.90558 0.05183 0.0
H54 H 0.09315 0.8909 0.00214 0.0
H55 H 0.0308 0.79449 0.07613 0.0
H56 H 0.03079 0.81659 0.00253 0.0
H57 H 0.01896 0.84924 0.0661 0.0
H58 H 0.0329 0.89304 0.84748 0.0
C59 C 0.06139 0.8532 0.90839 0.0
C60 C 0.58204 0.69849 0.71255 0.0
C61 C 0.55321 0.6711 0.71814 0.0
C62 C 0.53937 0.65384 0.66333 0.0
C63 C 0.57808 0.69542 0.60235 0.0
C64 C 0.59345 0.71071 0.65472 0.0
C65 C 0.62316 0.73996 0.64101 0.0
H66 H 0.73332 0.81808 0.43262 0.0
C67 C 0.59655 0.7127 0.54975 0.0
C68 C 0.6231 0.73888 0.57177 0.0
H69 H 0.73203 0.84458 0.62525 0.0
H70 H 0.68021 0.80249 0.63544 0.0
H71 H 0.70983 0.71999 0.43706 0.0
H72 H 0.6531 0.83606 0.41392 0.0
H73 H 0.63395 0.79786 0.36592 0.0
H74 H 0.67767 0.81389 0.35365 0.0
H75 H 0.71209 0.75234 0.36967 0.0
H76 H 0.67962 0.7119 0.3782 0.0
C77 C 0.65587 0.72006 0.66881 0.0
C78 C 0.61504 0.78497 0.66554 0.0
C79 C 0.56129 0.66507 0.33803 0.0
C80 C 0.57598 0.67067 0.28084 0.0
C81 C 0.60434 0.69804 0.27457 0.0
C82 C 0.61864 0.71862 0.32562 0.0
C83 C 0.6046 0.71116 0.38334 0.0
C84 C 0.57615 0.68515 0.38853 0.0
C85 C 0.56583 0.67855 0.45333 0.0
C86 C 0.5923 0.70573 0.48639 0.0
C87 C 0.61501 0.72458 0.44537 0.0
C88 C 0.56944 0.63036 0.46884 0.0
C89 C 0.52937 0.69637 0.46047 0.0
C90 C 0.72175 0.81473 0.47688 0.0
C91 C 0.73685 0.8338 0.52843 0.0
C92 C 0.72088 0.82961 0.58521 0.0
C93 C 0.69092 0.80524 0.59094 0.0
C94 C 0.67655 0.78547 0.53917 0.0
C95 C 0.69142 0.79147 0.48308 0.0
C96 C 0.67131 0.77074 0.43238 0.0
C97 C 0.64243 0.75025 0.46744 0.0
C98 C 0.64599 0.75821 0.53016 0.0
C99 C 0.69425 0.73709 0.40216 0.0
C100 C 0.65841 0.80618 0.38868 0.0
H101 H 0.53856 0.65233 0.56749 0.0
H102 H 0.59669 0.70988 0.75085 0.0
H103 H 0.58709 0.79087 0.66493 0.0
H104 H 0.62588 0.81072 0.63708 0.0
H105 H 0.62434 0.78887 0.7132 0.0
H106 H 0.65669 0.68532 0.65888 0.0
H107 H 0.65668 0.72402 0.71903 0.0
H108 H 0.67953 0.73365 0.65011 0.0
H109 H 0.5398 0.64352 0.34376 0.0
H110 H 0.61602 0.70227 0.23057 0.0
H111 H 0.64068 0.73843 0.31846 0.0
H112 H 0.58757 0.61423 0.43812 0.0
H113 H 0.54455 0.61336 0.46452 0.0
H114 H 0.58022 0.62486 0.515 0.0
H115 H 0.52654 0.72696 0.43519 0.0
H116 H 0.52316 0.70391 0.50806 0.0
H117 H 0.50993 0.67367 0.44211 0.0
H118 H 0.51978 0.62939 0.66357 0.0
C119 C 0.55097 0.66641 0.60633 0.0
C120 C 0.92408 0.20197 0.2063 0.0
C121 C 0.95109 0.17286 0.20965 0.0
C122 C 0.97004 0.16406 0.15748 0.0
C123 C 0.93176 0.2076 0.09726 0.0
C124 C 0.91487 0.21912 0.14942 0.0
C125 C 0.88536 0.24833 0.13564 0.0
H126 H 0.76888 0.31794 0.93002 0.0
C127 C 0.91259 0.22442 0.04448 0.0
C128 C 0.8855 0.24863 0.06631 0.0
H129 H 0.77999 0.35525 0.11837 0.0
H130 H 0.8321 0.31441 0.12744 0.0
H131 H 0.84991 0.33513 0.90093 0.0
H132 H 0.79258 0.22115 0.94302 0.0
H133 H 0.82139 0.20848 0.88548 0.0
H134 H 0.78877 0.24754 0.87069 0.0
H135 H 0.81927 0.31208 0.84888 0.0
H136 H 0.86291 0.29442 0.85169 0.0
C137 C 0.8937 0.29293 0.16265 0.0
C138 C 0.8524 0.22778 0.16081 0.0
C139 C 0.9404 0.16752 0.83597 0.0
C140 C 0.92249 0.16729 0.78039 0.0
C141 C 0.89219 0.19083 0.77428 0.0
C142 C 0.87955 0.21378 0.82376 0.0
C143 C 0.89715 0.21245 0.88001 0.0
C144 C 0.92705 0.18957 0.8852 0.0
C145 C 0.94081 0.18822 0.94918 0.0
C146 C 0.91461 0.21485 0.98163 0.0
C147 C 0.8893 0.22935 0.94097 0.0
C148 C 0.97631 0.21026 0.95012 0.0
C149 C 0.94096 0.1409 0.97092 0.0
C150 C 0.78263 0.3172 0.97313 0.0
C151 C 0.7702 0.33896 0.02394 0.0
C152 C 0.78902 0.33817 0.07904 0.0
C153 C 0.8191 0.31454 0.08422 0.0
C154 C 0.83064 0.29188 0.03362 0.0
C155 C 0.81321 0.29467 0.97867 0.0
C156 C 0.83116 0.27165 0.92856 0.0
C157 C 0.8621 0.25448 0.96271 0.0
C158 C 0.86097 0.2653 0.02465 0.0
C159 C 0.84127 0.30474 0.87946 0.0
C160 C 0.80735 0.23541 0.90508 0.0
H161 H 0.97538 0.17264 0.06275 0.0
H162 H 0.90956 0.20935 0.24642 0.0
H163 H 0.84989 0.19414 0.14534 0.0
H164 H 0.82905 0.24422 0.14555 0.0
H165 H 0.85278 0.22786 0.21136 0.0
H166 H 0.92138 0.29698 0.17325 0.0
H167 H 0.87974 0.29836 0.20554 0.0
H168 H 0.88762 0.31896 0.13011 0.0
H169 H 0.96348 0.14907 0.84178 0.0
H170 H 0.87806 0.19072 0.73155 0.0
H171 H 0.85616 0.23074 0.81675 0.0
H172 H 0.97612 0.2394 0.92112 0.0
H173 H 0.99615 0.18866 0.93243 0.0
H174 H 0.98414 0.2213 0.99599 0.0
H175 H 0.92488 0.11994 0.94123 0.0
H176 H 0.92998 0.13679 0.0167 0.0
H177 H 0.96713 0.12759 0.97116 0.0
H178 H 0.99112 0.14196 0.15985 0.0
C179 C 0.96065 0.18154 0.10129 0.0
C180 C 0.42297 0.31447 0.3048 0.0
C181 C 0.4515 0.3418 0.30224 0.0
C182 C 0.47132 0.34919 0.35502 0.0
C183 C 0.43144 0.30752 0.41395 0.0
C184 C 0.41347 0.29746 0.36125 0.0
C185 C 0.38285 0.26952 0.37381 0.0
H186 H 0.26967 0.19534 0.57887 0.0
C187 C 0.41239 0.29032 0.46597 0.0
C188 C 0.38404 0.26765 0.44304 0.0
H189 H 0.27286 0.16671 0.38694 0.0
H190 H 0.32559 0.20727 0.37806 0.0
H191 H 0.35009 0.17426 0.60035 0.0
H192 H 0.29527 0.2915 0.57437 0.0
H193 H 0.32688 0.30107 0.6302 0.0
H194 H 0.29387 0.262 0.64439 0.0
H195 H 0.32267 0.1958 0.65707 0.0
H196 H 0.36686 0.21166 0.65239 0.0
C197 C 0.38871 0.22518 0.34488 0.0
C198 C 0.35051 0.29231 0.34963 0.0
C199 C 0.44853 0.33363 0.67936 0.0
C200 C 0.43538 0.32626 0.73818 0.0
C201 C 0.40288 0.30592 0.74082 0.0
C202 C 0.3868 0.28899 0.68869 0.0
C203 C 0.40224 0.29379 0.63193 0.0
C204 C 0.43233 0.31643 0.62801 0.0
C205 C 0.44394 0.32167 0.56358 0.0
C206 C 0.41628 0.29713 0.52947 0.0
C207 C 0.3918 0.28112 0.56963 0.0
C208 C 0.47924 0.30019 0.55788 0.0
C209 C 0.44362 0.37 0.54804 0.0
C210 C 0.28178 0.19796 0.53498 0.0
C211 C 0.26703 0.17867 0.48329 0.0
C212 C 0.28373 0.18188 0.42707 0.0
C213 C 0.31422 0.20527 0.42207 0.0
C214 C 0.32836 0.22499 0.47403 0.0
C215 C 0.31271 0.22004 0.52959 0.0
C216 C 0.33303 0.23978 0.58083 0.0
C217 C 0.36326 0.25784 0.54674 0.0
C218 C 0.35991 0.25013 0.48397 0.0
C219 C 0.34367 0.2038 0.62551 0.0
C220 C 0.31127 0.2753 0.60955 0.0
H221 H 0.47691 0.34019 0.44992 0.0
H222 H 0.40764 0.30826 0.26436 0.0
H223 H 0.35019 0.32593 0.36563 0.0
H224 H 0.32665 0.27738 0.36535 0.0
H225 H 0.34976 0.29265 0.29909 0.0
H226 H 0.41626 0.21918 0.33724 0.0
H227 H 0.37535 0.22229 0.30014 0.0
H228 H 0.38034 0.19877 0.3749 0.0
H229 H 0.47047 0.35376 0.6716 0.0
H230 H 0.38856 0.30403 0.7822 0.0
H231 H 0.36252 0.27355 0.69453 0.0
H232 H 0.48116 0.27174 0.58807 0.0
H233 H 0.50024 0.32247 0.57098 0.0
H234 H 0.48384 0.28783 0.51167 0.0
H235 H 0.42292 0.38657 0.57252 0.0
H236 H 0.43825 0.37664 0.49955 0.0
H237 H 0.46814 0.38562 0.56134 0.0
H238 H 0.49346 0.37008 0.3534 0.0
C239 C 0.46148 0.33211 0.41089 0.0
C240 C 0.02636 0.95326 0.41681 0.0
N241 N 0.07384 0.05129 0.51603 0.0
C242 C 0.10223 0.02729 0.50813 0.0
C243 C 0.13426 0.04672 0.50404 0.0
C244 C 0.13721 0.09107 0.51019 0.0
C245 C 0.10784 0.11488 0.52137 0.0
C246 C 0.07616 0.09433 0.52312 0.0
Zn247 Zn 0.02667 0.02297 0.50975 0.0
C248 C 0.9837 0.06482 0.41546 0.0
N249 N 0.92942 0.96223 0.49262 0.0
C250 C 0.92686 0.91957 0.48206 0.0
C251 C 0.90128 0.9859 0.50421 0.0
C252 C 0.8693 0.96637 0.50862 0.0
C253 C 0.86612 0.92234 0.49916 0.0
C254 C 0.89519 0.89898 0.48426 0.0
Zn255 Zn 0.97654 0.99061 0.49846 0.0
O256 O 0.0456 0.9789 0.44615 0.0
C257 C 0.02014 0.94839 0.59168 0.0
O258 O 0.99455 0.95248 0.42681 0.0
H259 H 0.90372 0.01982 0.51184 0.0
H260 H 0.10005 0.99312 0.50322 0.0
H261 H 0.94951 0.90121 0.47358 0.0
O262 O 0.03898 0.98077 0.58143 0.0
O263 O 0.99269 0.94335 0.56105 0.0
H264 H 0.05336 0.113 0.52849 0.0
O265 O 0.95914 0.02888 0.57099 0.0
O266 O 0.00666 0.0664 0.57361 0.0
O267 O 0.96165 0.03829 0.43505 0.0
O268 O 0.01383 0.0644 0.43742 0.0
C269 C 0.97669 0.05956 0.5927 0.0
H270 H 0.15647 0.02744 0.49548 0.0
H271 H 0.10931 0.1492 0.52638 0.0
H272 H 0.84732 0.98529 0.5201 0.0
H273 H 0.89353 0.86491 0.47664 0.0
C274 C 0.48037 0.44443 0.91984 0.0
N275 N 0.57627 0.46327 0.00145 0.0
C276 C 0.5787 0.42016 0.99604 0.0
C277 C 0.61051 0.40059 -0.00273 0.0
C278 C 0.64006 0.42543 0.00607 0.0
C279 C 0.63699 0.46977 0.0116 0.0
C280 C 0.60467 0.48822 0.00832 0.0
Zn281 Zn 0.52868 0.48991 0.0026 0.0
C282 C 0.51967 0.55967 0.91378 0.0
N283 N 0.42815 0.54308 0.00778 0.0
C284 C 0.40025 0.51865 0.02065 0.0
C285 C 0.42507 0.58551 0.99575 0.0
C286 C 0.39308 0.6046 0.99462 0.0
C287 C 0.36399 0.58028 0.00829 0.0
C288 C 0.36783 0.53688 0.02228 0.0
Zn289 Zn 0.47591 0.51645 0.006 0.0
O290 O 0.51094 0.44531 0.93944 0.0
C291 C 0.48479 0.44777 0.09593 0.0
O292 O 0.45917 0.47174 0.93862 0.0
H293 H 0.44744 0.60479 0.9869 0.0
H294 H 0.55591 0.40071 0.99164 0.0
H295 H 0.40303 0.48496 0.0297 0.0
O296 O 0.5148 0.44797 0.07471 0.0
O297 O 0.46263 0.47322 0.0746 0.0
H298 H 0.60229 0.52241 0.01222 0.0
O299 O 0.49348 0.56031 0.07344 0.0
O300 O 0.54539 0.53485 0.06642 0.0
O301 O 0.49049 0.55935 0.93796 0.0
O302 O 0.54186 0.53255 0.93065 0.0
C303 C 0.52474 0.56083 0.08975 0.0
H304 H 0.61203 0.36626 0.99303 0.0
H305 H 0.65934 0.48981 0.01857 0.0
H306 H 0.39106 0.63824 0.98395 0.0
H307 H 0.34591 0.51725 0.03338 0.0
C308 C 0.2051 0.1686 0.45428 0.0
C309 C 0.2341 0.15514 0.4884 0.0
C310 C 0.19868 0.10272 0.54162 0.0
C311 C 0.17077 0.11276 0.50245 0.0
N312 N 0.15056 0.14776 0.41078 0.0
N313 N 0.26007 0.10222 0.55393 0.0
C314 C 0.17488 0.14349 0.45551 0.0
C315 C 0.23139 0.12 0.52896 0.0
N316 N 0.20577 0.20622 0.42278 0.0
N317 N 0.19381 0.07814 0.59224 0.0
H318 H 0.28463 0.11294 0.54399 0.0
H319 H 0.25959 0.07409 0.57928 0.0
H320 H 0.16999 0.06612 0.60445 0.0
H321 H 0.21275 0.0734 0.62528 0.0
H322 H 0.18412 0.21926 0.40217 0.0
H323 H 0.22692 0.22659 0.42257 0.0
H324 H 0.15398 0.16695 0.37252 0.0
H325 H 0.12863 0.12873 0.40841 0.0
C326 C 0.29507 0.66202 0.03637 0.0
C327 C 0.26717 0.64505 0.00199 0.0
C328 C 0.30322 0.58629 0.96884 0.0
C329 C 0.32981 0.60079 0.00846 0.0
N330 N 0.34676 0.64589 0.09274 0.0
N331 N 0.2424 0.58491 0.94846 0.0
C332 C 0.32438 0.63661 0.04633 0.0
C333 C 0.27051 0.60522 0.97224 0.0
N334 N 0.29458 0.70312 0.05679 0.0
N335 N 0.30946 0.5561 0.92579 0.0
H336 H 0.21783 0.5971 0.95191 0.0
H337 H 0.2431 0.55401 0.93124 0.0
H338 H 0.3334 0.54271 0.91966 0.0
H339 H 0.2917 0.54765 0.8921 0.0
H340 H 0.31575 0.71794 0.07703 0.0
H341 H 0.27455 0.72393 0.04763 0.0
H342 H 0.34221 0.66947 0.1249 0.0
H343 H 0.36788 0.62703 0.10304 0.0
C344 C 0.79916 0.84345 0.55484 0.0
C345 C 0.76965 0.85758 0.52276 0.0
C346 C 0.80419 0.91134 0.47031 0.0
C347 C 0.83271 0.90041 0.50751 0.0
N348 N 0.85449 0.86318 0.59618 0.0
N349 N 0.74264 0.91155 0.46049 0.0
C350 C 0.82938 0.86855 0.55311 0.0
C351 C 0.77171 0.89354 0.48357 0.0
N352 N 0.79894 0.80521 0.58478 0.0
N353 N 0.80826 0.93735 0.42091 0.0
H354 H 0.71828 0.90028 0.47077 0.0
H355 H 0.74262 0.94021 0.43639 0.0
H356 H 0.83185 0.94998 0.40843 0.0
H357 H 0.78888 0.94287 0.38897 0.0
H358 H 0.82087 0.7917 0.60368 0.0
H359 H 0.77776 0.78488 0.58532 0.0
H360 H 0.85172 0.84316 0.63374 0.0
H361 H 0.87654 0.88201 0.59808 0.0
C362 C 0.7329 0.39616 0.97814 0.0
C363 C 0.73716 0.36194 0.01991 0.0
C364 C 0.67997 0.3746 0.05891 0.0
C365 C 0.67396 0.40459 0.01156 0.0
N366 N 0.69284 0.43769 0.91837 0.0
N367 N 0.71153 0.31239 0.09066 0.0
C368 C 0.69992 0.41373 0.96894 0.0
C369 C 0.70979 0.34937 0.05775 0.0
N370 N 0.76044 0.41289 0.94873 0.0
N371 N 0.65781 0.3711 0.10615 0.0
H372 H 0.73233 0.29193 0.08927 0.0
H373 H 0.69085 0.29984 0.11421 0.0
H374 H 0.63626 0.39015 0.10998 0.0
H375 H 0.6628 0.35257 0.14464 0.0
H376 H 0.7592 0.4405 0.92235 0.0
H377 H 0.78521 0.40178 0.95564 0.0
H378 H 0.70996 0.44164 0.88291 0.0
H379 H 0.66875 0.45012 0.9089 0.0
C380 C 0.04873 0.85258 0.33036 0.0
C381 C 0.07064 0.86973 0.28555 0.0
C382 C 0.06102 0.94178 0.32376 0.0
C383 C 0.04129 0.92441 0.37153 0.0
N384 N 0.02275 0.86266 0.42854 0.0
N385 N 0.10403 0.929 0.24824 0.0
C386 C 0.03691 0.87958 0.37726 0.0
C387 C 0.07881 0.91388 0.28506 0.0
N388 N 0.03826 0.81097 0.32696 0.0
N389 N 0.06142 0.9848 0.31337 0.0
H390 H 0.11801 0.90932 0.21982 0.0
H391 H 0.11335 0.96017 0.25037 0.0
H392 H 0.04771 0.00635 0.33932 0.0
H393 H 0.07252 0.9987 0.27529 0.0
H394 H 0.01927 0.79811 0.35433 0.0
H395 H 0.04663 0.7901 0.29357 0.0
H396 H 0.02209 0.83007 0.43778 0.0
H397 H 0.01466 0.88126 0.46475 0.0
C398 C 0.50732 0.63413 0.77964 0.0
C399 C 0.53907 0.6558 0.77863 0.0
C400 C 0.55449 0.62204 0.87567 0.0
C401 C 0.52708 0.59247 0.86711 0.0
N402 N 0.4778 0.56952 0.8075 0.0
N403 N 0.574 0.69323 0.85172 0.0
C404 C 0.5032 0.59868 0.81873 0.0
C405 C 0.5583 0.65636 0.83369 0.0
N406 N 0.48048 0.64956 0.74637 0.0
N407 N 0.57624 0.61844 0.92449 0.0
H408 H 0.56873 0.72203 0.82976 0.0
H409 H 0.58648 0.69691 0.89358 0.0
H410 H 0.5727 0.59656 0.95965 0.0
H411 H 0.59878 0.63617 0.9284 0.0
H412 H 0.45576 0.63727 0.74946 0.0
H413 H 0.48266 0.67773 0.72117 0.0
H414 H 0.46181 0.57118 0.76925 0.0
H415 H 0.47497 0.54142 0.83247 0.0
C416 C 0.94573 0.10428 0.26602 0.0
C417 C 0.95723 0.1472 0.26525 0.0
C418 C 0.98356 0.13785 0.36607 0.0
C419 C 0.97507 0.09358 0.36384 0.0
N420 N 0.95638 0.03318 0.30328 0.0
N421 N 0.99059 0.20408 0.30994 0.0
C422 C 0.95826 0.07635 0.31165 0.0
C423 C 0.97707 0.16387 0.31408 0.0
N424 N 0.92265 0.09019 0.22322 0.0
N425 N 0.99689 0.15541 0.41814 0.0
H426 H 0.98554 0.22436 0.27325 0.0
H427 H 0.00866 0.21625 0.34059 0.0
H428 H 0.00299 0.13773 0.45678 0.0
H429 H 0.99962 0.18813 0.42473 0.0
H430 H 0.91075 0.0604 0.22552 0.0
H431 H 0.91287 0.10972 0.18875 0.0
H432 H 0.94739 0.01923 0.26312 0.0
H433 H 0.96753 0.01126 0.33306 0.0
C434 C 0.48459 0.36727 0.78871 0.0
C435 C 0.45326 0.34502 0.79405 0.0
C436 C 0.44456 0.38016 0.89193 0.0
C437 C 0.47019 0.41059 0.87647 0.0
N438 N 0.51434 0.43341 0.80712 0.0
N439 N 0.42389 0.30835 0.87395 0.0
C440 C 0.49042 0.40401 0.82434 0.0
C441 C 0.43829 0.345 0.85237 0.0
N442 N 0.51039 0.35009 0.75614 0.0
N443 N 0.42672 0.38409 0.94452 0.0
H444 H 0.42547 0.27978 0.84988 0.0
H445 H 0.41525 0.30475 0.91829 0.0
H446 H 0.4323 0.40708 0.97742 0.0
H447 H 0.40524 0.36555 0.95396 0.0
H448 H 0.5349 0.36328 0.7554 0.0
H449 H 0.50799 0.31989 0.73648 0.0
H450 H 0.52756 0.43088 0.76645 0.0
H451 H 0.51844 0.46215 0.82999 0.0
C452 C 0.54474 0.66129 0.18079 0.0
C453 C 0.56399 0.6436 0.22966 0.0
C454 C 0.55354 0.57182 0.19033 0.0
C455 C 0.53708 0.58962 0.13839 0.0
N456 N 0.52231 0.65152 0.07833 0.0
N457 N 0.59319 0.5833 0.274 0.0
C458 C 0.53403 0.63448 0.13192 0.0
C459 C 0.57035 0.59921 0.23231 0.0
N460 N 0.5359 0.70333 0.18191 0.0
N461 N 0.55189 0.52887 0.20104 0.0
H462 H 0.60653 0.60244 0.30513 0.0
H463 H 0.60142 0.55181 0.27374 0.0
H464 H 0.53901 0.50757 0.17232 0.0
H465 H 0.56028 0.51487 0.24155 0.0
H466 H 0.51879 0.71691 0.15092 0.0
H467 H 0.54362 0.72397 0.21671 0.0
H468 H 0.52291 0.68406 0.0688 0.0
H469 H 0.51473 0.63294 0.04116 0.0
C470 C 0.94721 0.15828 0.67618 0.0
C471 C 0.93453 0.13981 0.73039 0.0
C472 C 0.95214 0.06916 0.69627 0.0
C473 C 0.96203 0.08713 0.63992 0.0
N474 N 0.96089 0.14677 0.57055 0.0
N475 N 0.91761 0.07668 0.7859 0.0
C476 C 0.95732 0.13119 0.62819 0.0
C477 C 0.93477 0.09488 0.7386 0.0
N478 N 0.95065 0.20153 0.67116 0.0
N479 N 0.96054 0.02806 0.71045 0.0
H480 H 0.90383 0.09441 0.81709 0.0
H481 H 0.91418 0.04387 0.7906 0.0
H482 H 0.97415 0.00859 0.68124 0.0
H483 H 0.957 0.01471 0.75338 0.0
H484 H 0.96309 0.21632 0.63512 0.0
H485 H 0.94377 0.2225 0.70554 0.0
H486 H 0.95477 0.17789 0.55813 0.0
H487 H 0.96625 0.12714 0.53383 0.0
C488 C 0.47355 0.34918 0.19551 0.0
C489 C 0.45823 0.36762 0.2471 0.0
C490 C 0.46328 0.43855 0.20154 0.0
C491 C 0.47601 0.4199 0.14778 0.0
N492 N 0.48727 0.3569 0.08873 0.0
N493 N 0.43113 0.42801 0.29346 0.0
C494 C 0.47954 0.37499 0.14331 0.0
C495 C 0.45081 0.41177 0.24829 0.0
N496 N 0.48318 0.30742 0.19702 0.0
N497 N 0.46459 0.4818 0.20937 0.0
H498 H 0.42108 0.40932 0.32833 0.0
H499 H 0.42196 0.45909 0.29297 0.0
H500 H 0.47442 0.50278 0.17707 0.0
H501 H 0.45915 0.49658 0.25046 0.0
H502 H 0.49782 0.29342 0.16345 0.0
H503 H 0.47865 0.2875 0.23419 0.0
H504 H 0.48676 0.32413 0.08122 0.0
H505 H 0.49121 0.3747 0.04926 0.0
C506 C 0.01896 0.8684 0.72321 0.0
C507 C 0.05426 0.86723 0.73791 0.0
C508 C 0.066 0.90653 0.64438 0.0
C509 C 0.03085 0.91661 0.6383 0.0
N510 N 0.97375 0.91061 0.6795 0.0
N511 N 0.11165 0.89135 0.71559 0.0
C512 C 0.00706 0.89807 0.67916 0.0
C513 C 0.07803 0.8876 0.6991 0.0
N514 N 0.9968 0.84135 0.75167 0.0
N515 N 0.08776 0.91396 0.59745 0.0
H516 H 0.12162 0.8798 0.75655 0.0
H517 H 0.12897 0.90974 0.69102 0.0
H518 H 0.07937 0.92483 0.55494 0.0
H519 H 0.1131 0.90413 0.5984 0.0
H520 H 0.97117 0.83845 0.73887 0.0
H521 H 0.00496 0.8186 0.78332 0.0
H522 H 0.95674 0.90082 0.71288 0.0
H523 H 0.96374 0.93408 0.65109 0.0
loop_
_geom_bond_atom_site_label_1
_geom_bond_atom_site_label_2
_geom_bond_distance
_geom_bond_site_symmetry_2
_ccdc_geom_bond_type
C0 C1 1.391 . S
C0 C4 1.391 . S
C0 H42 0.948 . S
C1 C0 1.391 . S
C1 C2 1.391 . S
C2 C1 1.391 . S
C2 H58 0.947 . S
C2 C59 1.392 . S
C3 C4 1.391 . S
C3 C7 1.397 . S
C3 C59 1.419 . S
C4 C0 1.391 . S
C4 C3 1.391 . S
C4 C5 1.399 . S
C5 C4 1.399 . S
C5 C8 1.396 . S
C5 C17 1.453 . S
C5 C18 1.684 . S
H6 C30 0.948 . S
C7 C3 1.397 . S
C7 C8 1.394 . S
C7 C26 1.723 1_556 S
C8 C5 1.396 . S
C8 C7 1.394 . S
C8 C38 1.723 1_556 S
H9 C32 0.947 . S
H10 C33 0.948 . S
H11 C39 0.982 . S
H12 C40 0.979 . S
H13 C40 0.980 . S
H14 C40 0.983 . S
H15 C39 0.979 . S
H16 C39 0.977 . S
C17 C5 1.453 . S
C17 H46 0.982 . S
C17 H47 0.979 . S
C17 H48 0.977 . S
C18 C5 1.684 . S
C18 H43 0.979 . S
C18 H44 0.980 . S
C18 H45 0.983 . S
C19 C20 1.391 . S
C19 C24 1.391 . S
C19 H49 0.948 . S
C20 C19 1.391 . S
C20 C21 1.391 . S
C21 C20 1.391 . S
C21 C22 1.392 . S
C21 H50 0.947 . S
C22 C21 1.392 . S
C22 C23 1.419 . S
C22 H51 0.948 . S
C23 C22 1.419 . S
C23 C24 1.391 . S
C23 C27 1.397 . S
C24 C19 1.391 . S
C24 C23 1.391 . S
C24 C25 1.399 . S
C25 C24 1.399 . S
C25 C26 1.396 . S
C25 C28 1.453 . S
C25 C29 1.684 . S
C26 C7 1.723 1_554 S
C26 C25 1.396 . S
C26 C27 1.394 . S
C27 C23 1.397 . S
C27 C26 1.394 . S
C27 C37 1.723 . S
C28 C25 1.453 . S
C28 H52 0.982 . S
C28 H53 0.979 . S
C28 H54 0.977 . S
C29 C25 1.684 . S
C29 H55 0.979 . S
C29 H56 0.984 . S
C29 H57 0.973 1_455 S
C30 H6 0.948 . S
C30 C31 1.391 . S
C30 C35 1.391 . S
C31 C30 1.391 . S
C31 C32 1.391 1_554 S
C32 H9 0.947 . S
C32 C31 1.391 1_556 S
C32 C33 1.392 . S
C33 H10 0.948 . S
C33 C32 1.392 . S
C33 C34 1.419 . S
C34 C33 1.419 . S
C34 C35 1.391 1_556 S
C34 C38 1.397 1_556 S
C35 C30 1.391 . S
C35 C34 1.391 1_554 S
C35 C36 1.399 . S
C36 C35 1.399 . S
C36 C37 1.396 . S
C36 C39 1.453 . S
C36 C40 1.684 . S
C37 C27 1.723 . S
C37 C36 1.396 . S
C37 C38 1.394 . S
C38 C8 1.723 1_554 S
C38 C34 1.397 1_554 S
C38 C37 1.394 . S
C39 H11 0.982 . S
C39 H15 0.979 . S
C39 H16 0.977 . S
C39 C36 1.453 . S
C40 H12 0.979 . S
C40 H13 0.980 . S
C40 H14 0.983 . S
C40 C36 1.684 . S
H41 C59 0.948 . S
H42 C0 0.948 . S
H43 C18 0.979 . S
H44 C18 0.980 . S
H45 C18 0.983 . S
H46 C17 0.982 . S
H47 C17 0.979 . S
H48 C17 0.977 . S
H49 C19 0.948 . S
H50 C21 0.947 . S
H51 C22 0.948 . S
H52 C28 0.982 . S
H53 C28 0.979 . S
H54 C28 0.977 . S
H55 C29 0.979 . S
H56 C29 0.984 . S
H57 C29 0.973 1_655 S
H58 C2 0.947 . S
C59 C2 1.392 . S
C59 C3 1.419 . S
C59 H41 0.948 . S
C60 C61 1.391 . S
C60 C64 1.391 . S
C60 H102 0.948 . S
C61 C60 1.391 . S
C61 C62 1.391 . S
C62 C61 1.391 . S
C62 H118 0.947 . S
C62 C119 1.392 . S
C63 C64 1.391 . S
C63 C67 1.397 . S
C63 C119 1.419 . S
C64 C60 1.391 . S
C64 C63 1.391 . S
C64 C65 1.399 . S
C65 C64 1.399 . S
C65 C68 1.396 . S
C65 C77 1.453 . S
C65 C78 1.684 . S
H66 C90 0.948 . S
C67 C63 1.397 . S
C67 C68 1.394 . S
C67 C86 1.723 . S
C68 C65 1.396 . S
C68 C67 1.394 . S
C68 C98 1.723 . S
H69 C92 0.947 . S
H70 C93 0.948 . S
H71 C99 0.982 . S
H72 C100 0.979 . S
H73 C100 0.980 . S
H74 C100 0.983 . S
H75 C99 0.979 . S
H76 C99 0.977 . S
C77 C65 1.453 . S
C77 H106 0.982 . S
C77 H107 0.979 . S
C77 H108 0.977 . S
C78 C65 1.684 . S
C78 H103 0.979 . S
C78 H104 0.980 . S
C78 H105 0.983 . S
C79 C80 1.391 . S
C79 C84 1.391 . S
C79 H109 0.948 . S
C80 C79 1.391 . S
C80 C81 1.391 . S
C81 C80 1.391 . S
C81 C82 1.392 . S
C81 H110 0.947 . S
C82 C81 1.392 . S
C82 C83 1.419 . S
C82 H111 0.948 . S
C83 C82 1.419 . S
C83 C84 1.391 . S
C83 C87 1.397 . S
C84 C79 1.391 . S
C84 C83 1.391 . S
C84 C85 1.399 . S
C85 C84 1.399 . S
C85 C86 1.396 . S
C85 C88 1.453 . S
C85 C89 1.684 . S
C86 C67 1.723 . S
C86 C85 1.396 . S
C86 C87 1.394 . S
C87 C83 1.397 . S
C87 C86 1.394 . S
C87 C97 1.723 . S
C88 C85 1.453 . S
C88 H112 0.982 . S
C88 H113 0.979 . S
C88 H114 0.977 . S
C89 C85 1.684 . S
C89 H115 0.979 . S
C89 H116 0.980 . S
C89 H117 0.983 . S
C90 H66 0.948 . S
C90 C91 1.391 . S
C90 C95 1.391 . S
C91 C90 1.391 . S
C91 C92 1.391 . S
C92 H69 0.947 . S
C92 C91 1.391 . S
C92 C93 1.392 . S
C93 H70 0.948 . S
C93 C92 1.392 . S
C93 C94 1.419 . S
C94 C93 1.419 . S
C94 C95 1.391 . S
C94 C98 1.397 . S
C95 C90 1.391 . S
C95 C94 1.391 . S
C95 C96 1.399 . S
C96 C95 1.399 . S
C96 C97 1.396 . S
C96 C99 1.453 . S
C96 C100 1.684 . S
C97 C87 1.723 . S
C97 C96 1.396 . S
C97 C98 1.394 . S
C98 C68 1.723 . S
C98 C94 1.397 . S
C98 C97 1.394 . S
C99 H71 0.982 . S
C99 H75 0.979 . S
C99 H76 0.977 . S
C99 C96 1.453 . S
C100 H72 0.979 . S
C100 H73 0.980 . S
C100 H74 0.983 . S
C100 C96 1.684 . S
H101 C119 0.948 . S
H102 C60 0.948 . S
H103 C78 0.979 . S
H104 C78 0.980 . S
H105 C78 0.983 . S
H106 C77 0.982 . S
H107 C77 0.979 . S
H108 C77 0.977 . S
H109 C79 0.948 . S
H110 C81 0.947 . S
H111 C82 0.948 . S
H112 C88 0.982 . S
H113 C88 0.979 . S
H114 C88 0.977 . S
H115 C89 0.979 . S
H116 C89 0.980 . S
H117 C89 0.983 . S
H118 C62 0.947 . S
C119 C62 1.392 . S
C119 C63 1.419 . S
C119 H101 0.948 . S
C120 C121 1.391 . S
C120 C124 1.391 . S
C120 H162 0.948 . S
C121 C120 1.391 . S
C121 C122 1.391 . S
C122 C121 1.391 . S
C122 H178 0.947 . S
C122 C179 1.392 . S
C123 C124 1.391 . S
C123 C127 1.397 . S
C123 C179 1.419 . S
C124 C120 1.391 . S
C124 C123 1.391 . S
C124 C125 1.399 . S
C125 C124 1.399 . S
C125 C128 1.396 . S
C125 C137 1.453 . S
C125 C138 1.684 . S
H126 C150 0.948 . S
C127 C123 1.397 . S
C127 C128 1.394 . S
C127 C146 1.723 1_554 S
C128 C125 1.396 . S
C128 C127 1.394 . S
C128 C158 1.723 . S
H129 C152 0.947 . S
H130 C153 0.948 . S
H131 C159 0.982 . S
H132 C160 0.979 . S
H133 C160 0.980 . S
H134 C160 0.983 . S
H135 C159 0.979 . S
H136 C159 0.977 . S
C137 C125 1.453 . S
C137 H166 0.982 . S
C137 H167 0.979 . S
C137 H168 0.977 . S
C138 C125 1.684 . S
C138 H163 0.979 . S
C138 H164 0.980 . S
C138 H165 0.983 . S
C139 C140 1.391 . S
C139 C144 1.391 . S
C139 H169 0.948 . S
C140 C139 1.391 . S
C140 C141 1.391 . S
C141 C140 1.391 . S
C141 C142 1.392 . S
C141 H170 0.947 . S
C142 C141 1.392 . S
C142 C143 1.419 . S
C142 H171 0.948 . S
C143 C142 1.419 . S
C143 C144 1.391 . S
C143 C147 1.397 . S
C144 C139 1.391 . S
C144 C143 1.391 . S
C144 C145 1.399 . S
C145 C144 1.399 . S
C145 C146 1.396 . S
C145 C148 1.453 . S
C145 C149 1.684 . S
C146 C127 1.723 1_556 S
C146 C145 1.396 . S
C146 C147 1.394 . S
C147 C143 1.397 . S
C147 C146 1.394 . S
C147 C157 1.723 . S
C148 C145 1.453 . S
C148 H172 0.982 . S
C148 H173 0.996 . S
C148 H174 0.977 1_556 S
C149 C145 1.684 . S
C149 H175 0.979 . S
C149 H176 0.980 1_556 S
C149 H177 0.983 . S
C150 H126 0.948 . S
C150 C151 1.391 1_556 S
C150 C155 1.391 . S
C151 C150 1.391 1_554 S
C151 C152 1.391 . S
C152 H129 0.947 . S
C152 C151 1.391 . S
C152 C153 1.392 . S
C153 H130 0.948 . S
C153 C152 1.392 . S
C153 C154 1.419 . S
C154 C153 1.419 . S
C154 C155 1.391 1_554 S
C154 C158 1.397 . S
C155 C150 1.391 . S
C155 C154 1.391 1_556 S
C155 C156 1.399 . S
C156 C155 1.399 . S
C156 C157 1.396 . S
C156 C159 1.453 . S
C156 C160 1.684 . S
C157 C147 1.723 . S
C157 C156 1.396 . S
C157 C158 1.394 1_556 S
C158 C128 1.723 . S
C158 C154 1.397 . S
C158 C157 1.394 1_554 S
C159 H131 0.982 . S
C159 H135 0.979 . S
C159 H136 0.977 . S
C159 C156 1.453 . S
C160 H132 0.979 . S
C160 H133 0.980 . S
C160 H134 0.983 . S
C160 C156 1.684 . S
H161 C179 0.948 . S
H162 C120 0.948 . S
H163 C138 0.979 . S
H164 C138 0.980 . S
H165 C138 0.983 . S
H166 C137 0.982 . S
H167 C137 0.979 . S
H168 C137 0.977 . S
H169 C139 0.948 . S
H170 C141 0.947 . S
H171 C142 0.948 . S
H172 C148 0.982 . S
H173 C148 0.996 . S
H174 C148 0.977 1_554 S
H175 C149 0.979 . S
H176 C149 0.980 1_554 S
H177 C149 0.983 . S
H178 C122 0.947 . S
C179 C122 1.392 . S
C179 C123 1.419 . S
C179 H161 0.948 . S
C180 C181 1.391 . S
C180 C184 1.391 . S
C180 H222 0.948 . S
C181 C180 1.391 . S
C181 C182 1.391 . S
C182 C181 1.391 . S
C182 H238 0.947 . S
C182 C239 1.392 . S
C183 C184 1.391 . S
C183 C187 1.397 . S
C183 C239 1.419 . S
C184 C180 1.391 . S
C184 C183 1.391 . S
C184 C185 1.399 . S
C185 C184 1.399 . S
C185 C188 1.396 . S
C185 C197 1.453 . S
C185 C198 1.684 . S
H186 C210 0.948 . S
C187 C183 1.397 . S
C187 C188 1.394 . S
C187 C206 1.723 . S
C188 C185 1.396 . S
C188 C187 1.394 . S
C188 C218 1.723 . S
H189 C212 0.947 . S
H190 C213 0.948 . S
H191 C219 0.982 . S
H192 C220 0.979 . S
H193 C220 0.980 . S
H194 C220 0.983 . S
H195 C219 0.979 . S
H196 C219 0.977 . S
C197 C185 1.453 . S
C197 H226 0.982 . S
C197 H227 0.979 . S
C197 H228 0.977 . S
C198 C185 1.684 . S
C198 H223 0.979 . S
C198 H224 0.980 . S
C198 H225 0.983 . S
C199 C200 1.391 . S
C199 C204 1.391 . S
C199 H229 0.948 . S
C200 C199 1.391 . S
C200 C201 1.391 . S
C201 C200 1.391 . S
C201 C202 1.392 . S
C201 H230 0.947 . S
C202 C201 1.392 . S
C202 C203 1.419 . S
C202 H231 0.948 . S
C203 C202 1.419 . S
C203 C204 1.391 . S
C203 C207 1.397 . S
C204 C199 1.391 . S
C204 C203 1.391 . S
C204 C205 1.399 . S
C205 C204 1.399 . S
C205 C206 1.396 . S
C205 C208 1.453 . S
C205 C209 1.684 . S
C206 C187 1.723 . S
C206 C205 1.396 . S
C206 C207 1.394 . S
C207 C203 1.397 . S
C207 C206 1.394 . S
C207 C217 1.723 . S
C208 C205 1.453 . S
C208 H232 0.982 . S
C208 H233 0.979 . S
C208 H234 0.977 . S
C209 C205 1.684 . S
C209 H235 0.979 . S
C209 H236 0.980 . S
C209 H237 0.983 . S
C210 H186 0.948 . S
C210 C211 1.391 . S
C210 C215 1.391 . S
C211 C210 1.391 . S
C211 C212 1.391 . S
C212 H189 0.947 . S
C212 C211 1.391 . S
C212 C213 1.392 . S
C213 H190 0.948 . S
C213 C212 1.392 . S
C213 C214 1.419 . S
C214 C213 1.419 . S
C214 C215 1.391 . S
C214 C218 1.397 . S
C215 C210 1.391 . S
C215 C214 1.391 . S
C215 C216 1.399 . S
C216 C215 1.399 . S
C216 C217 1.396 . S
C216 C219 1.453 . S
C216 C220 1.684 . S
C217 C207 1.723 . S
C217 C216 1.396 . S
C217 C218 1.394 . S
C218 C188 1.723 . S
C218 C214 1.397 . S
C218 C217 1.394 . S
C219 H191 0.982 . S
C219 H195 0.979 . S
C219 H196 0.977 . S
C219 C216 1.453 . S
C220 H192 0.979 . S
C220 H193 0.980 . S
C220 H194 0.983 . S
C220 C216 1.684 . S
H221 C239 0.948 . S
H222 C180 0.948 . S
H223 C198 0.979 . S
H224 C198 0.980 . S
H225 C198 0.983 . S
H226 C197 0.982 . S
H227 C197 0.979 . S
H228 C197 0.977 . S
H229 C199 0.948 . S
H230 C201 0.947 . S
H231 C202 0.948 . S
H232 C208 0.982 . S
H233 C208 0.979 . S
H234 C208 0.977 . S
H235 C209 0.979 . S
H236 C209 0.980 . S
H237 C209 0.983 . S
H238 C182 0.947 . S
C239 C182 1.392 . S
C239 C183 1.419 . S
C239 H221 0.948 . S
C240 O256 1.251 . S
C240 O258 1.254 1_455 S
N241 C242 1.333 . S
N241 C246 1.307 . S
N241 Zn247 2.020 . S
C242 N241 1.333 . S
C242 C243 1.379 . S
C242 H260 0.952 . S
C243 C242 1.379 . S
C243 C244 1.390 . S
C243 H270 0.949 . S
C244 C243 1.390 . S
C244 C245 1.357 . S
C245 C244 1.357 . S
C245 C246 1.370 . S
C245 H271 0.950 . S
C246 N241 1.307 . S
C246 C245 1.370 . S
C246 H264 0.948 . S
Zn247 N241 2.020 . S
Zn247 O256 2.039 1_545 S
Zn247 O262 2.034 1_545 S
Zn247 O266 2.025 . S
Zn247 O268 2.024 . S
C248 O267 1.246 . S
C248 O268 1.249 1_655 S
N249 C250 1.307 . S
N249 C251 1.333 . S
N249 Zn255 2.020 . S
C250 N249 1.307 . S
C250 C254 1.370 . S
C250 H261 0.948 . S
C251 N249 1.333 . S
C251 C252 1.379 . S
C251 H259 0.952 1_565 S
C252 C251 1.379 . S
C252 C253 1.390 . S
C252 H272 0.949 . S
C253 C252 1.390 . S
C253 C254 1.357 . S
C254 C250 1.370 . S
C254 C253 1.357 . S
C254 H273 0.950 . S
Zn255 N249 2.020 . S
Zn255 O258 2.025 . S
Zn255 O263 2.024 . S
Zn255 O265 2.039 1_565 S
Zn255 O267 2.034 1_565 S
O256 C240 1.251 . S
O256 Zn247 2.039 1_565 S
C257 O262 1.246 . S
C257 O263 1.249 1_455 S
O258 C240 1.254 1_655 S
O258 Zn255 2.025 . S
H259 C251 0.952 1_545 S
H260 C242 0.952 . S
H261 C250 0.948 . S
O262 Zn247 2.034 1_565 S
O262 C257 1.246 . S
O263 Zn255 2.024 . S
O263 C257 1.249 1_655 S
H264 C246 0.948 . S
O265 Zn255 2.039 1_545 S
O265 C269 1.251 . S
O266 Zn247 2.025 . S
O266 C269 1.254 1_455 S
O267 C248 1.246 . S
O267 Zn255 2.034 1_545 S
O268 Zn247 2.024 . S
O268 C248 1.249 1_455 S
C269 O265 1.251 . S
C269 O266 1.254 1_655 S
H270 C243 0.949 . S
H271 C245 0.950 . S
H272 C252 0.949 . S
H273 C254 0.950 . S
C274 O290 1.251 . S
C274 O292 1.254 . S
N275 C276 1.333 1_554 S
N275 C280 1.307 . S
N275 Zn281 2.020 . S
C276 N275 1.333 1_556 S
C276 C277 1.379 . S
C276 H294 0.952 . S
C277 C276 1.379 . S
C277 C278 1.390 1_556 S
C277 H304 0.949 . S
C278 C277 1.390 1_554 S
C278 C279 1.357 . S
C279 C278 1.357 . S
C279 C280 1.370 . S
C279 H305 0.950 . S
C280 N275 1.307 . S
C280 C279 1.370 . S
C280 H298 0.948 . S
Zn281 N275 2.020 . S
Zn281 O290 2.039 1_554 S
Zn281 O296 2.034 . S
Zn281 O300 2.025 . S
Zn281 O302 2.024 1_554 S
C282 O301 1.246 . S
C282 O302 1.249 . S
N283 C284 1.307 1_554 S
N283 C285 1.333 . S
N283 Zn289 2.020 . S
C284 N283 1.307 1_556 S
C284 C288 1.370 . S
C284 H295 0.948 . S
C285 N283 1.333 . S
C285 C286 1.379 . S
C285 H293 0.952 . S
C286 C285 1.379 . S
C286 C287 1.390 . S
C286 H306 0.949 . S
C287 C286 1.390 . S
C287 C288 1.357 1_554 S
C288 C284 1.370 . S
C288 C287 1.357 1_556 S
C288 H307 0.950 . S
Zn289 N283 2.020 . S
Zn289 O292 2.025 1_554 S
Zn289 O297 2.024 . S
Zn289 O299 2.039 . S
Zn289 O301 2.034 1_554 S
O290 C274 1.251 . S
O290 Zn281 2.039 1_556 S
C291 O296 1.246 . S
C291 O297 1.249 . S
O292 C274 1.254 . S
O292 Zn289 2.025 1_556 S
H293 C285 0.952 . S
H294 C276 0.952 . S
H295 C284 0.948 . S
O296 Zn281 2.034 . S
O296 C291 1.246 . S
O297 Zn289 2.024 . S
O297 C291 1.249 . S
H298 C280 0.948 . S
O299 Zn289 2.039 . S
O299 C303 1.251 . S
O300 Zn281 2.025 . S
O300 C303 1.254 . S
O301 C282 1.246 . S
O301 Zn289 2.034 1_556 S
O302 Zn281 2.024 1_556 S
O302 C282 1.249 . S
C303 O299 1.251 . S
C303 O300 1.254 . S
H304 C277 0.949 . S
H305 C279 0.950 . S
H306 C286 0.949 . S
H307 C288 0.950 . S
C308 C309 1.363 . S
C308 C314 1.379 . S
C308 N316 1.356 . S
C309 C308 1.363 . S
C309 C315 1.363 . S
C310 C311 1.363 . S
C310 C315 1.379 . S
C310 N317 1.356 . S
C311 C310 1.363 . S
C311 C314 1.363 . S
N312 C314 1.356 . S
N312 H324 0.984 . S
N312 H325 0.985 . S
N313 C315 1.356 . S
N313 H318 0.984 . S
N313 H319 0.985 . S
C314 C308 1.379 . S
C314 C311 1.363 . S
C314 N312 1.356 . S
C315 C309 1.363 . S
C315 C310 1.379 . S
C315 N313 1.356 . S
N316 C308 1.356 . S
N316 H322 0.984 . S
N316 H323 0.984 . S
N317 C310 1.356 . S
N317 H320 0.984 . S
N317 H321 0.985 . S
H318 N313 0.984 . S
H319 N313 0.985 . S
H320 N317 0.984 . S
H321 N317 0.985 . S
H322 N316 0.984 . S
H323 N316 0.984 . S
H324 N312 0.984 . S
H325 N312 0.985 . S
C326 C327 1.363 . S
C326 C332 1.379 . S
C326 N334 1.356 . S
C327 C326 1.363 . S
C327 C333 1.363 1_554 S
C328 C329 1.363 1_556 S
C328 C333 1.379 . S
C328 N335 1.356 . S
C329 C328 1.363 1_554 S
C329 C332 1.363 . S
N330 C332 1.356 . S
N330 H342 0.984 . S
N330 H343 0.985 . S
N331 C333 1.356 . S
N331 H336 0.984 . S
N331 H337 0.985 . S
C332 C326 1.379 . S
C332 C329 1.363 . S
C332 N330 1.356 . S
C333 C327 1.363 1_556 S
C333 C328 1.379 . S
C333 N331 1.356 . S
N334 C326 1.356 . S
N334 H340 0.984 . S
N334 H341 0.984 . S
N335 C328 1.356 . S
N335 H338 0.984 . S
N335 H339 0.985 . S
H336 N331 0.984 . S
H337 N331 0.985 . S
H338 N335 0.984 . S
H339 N335 0.985 . S
H340 N334 0.984 . S
H341 N334 0.984 . S
H342 N330 0.984 . S
H343 N330 0.985 . S
C344 C345 1.363 . S
C344 C350 1.379 . S
C344 N352 1.356 . S
C345 C344 1.363 . S
C345 C351 1.363 . S
C346 C347 1.363 . S
C346 C351 1.379 . S
C346 N353 1.356 . S
C347 C346 1.363 . S
C347 C350 1.363 . S
N348 C350 1.356 . S
N348 H360 0.984 . S
N348 H361 0.985 . S
N349 C351 1.356 . S
N349 H354 0.984 . S
N349 H355 0.985 . S
C350 C344 1.379 . S
C350 C347 1.363 . S
C350 N348 1.356 . S
C351 C345 1.363 . S
C351 C346 1.379 . S
C351 N349 1.356 . S
N352 C344 1.356 . S
N352 H358 0.984 . S
N352 H359 0.984 . S
N353 C346 1.356 . S
N353 H356 0.984 . S
N353 H357 0.985 . S
H354 N349 0.984 . S
H355 N349 0.985 . S
H356 N353 0.984 . S
H357 N353 0.985 . S
H358 N352 0.984 . S
H359 N352 0.984 . S
H360 N348 0.984 . S
H361 N348 0.985 . S
C362 C363 1.363 1_556 S
C362 C368 1.379 . S
C362 N370 1.356 . S
C363 C362 1.363 1_554 S
C363 C369 1.363 . S
C364 C365 1.363 . S
C364 C369 1.379 . S
C364 N371 1.356 . S
C365 C364 1.363 . S
C365 C368 1.363 1_554 S
N366 C368 1.356 . S
N366 H378 0.984 . S
N366 H379 0.985 . S
N367 C369 1.356 . S
N367 H372 0.984 . S
N367 H373 0.985 . S
C368 C362 1.379 . S
C368 C365 1.363 1_556 S
C368 N366 1.356 . S
C369 C363 1.363 . S
C369 C364 1.379 . S
C369 N367 1.356 . S
N370 C362 1.356 . S
N370 H376 0.984 . S
N370 H377 0.984 . S
N371 C364 1.356 . S
N371 H374 0.984 . S
N371 H375 0.985 . S
H372 N367 0.984 . S
H373 N367 0.985 . S
H374 N371 0.984 . S
H375 N371 0.985 . S
H376 N370 0.984 . S
H377 N370 0.984 . S
H378 N366 0.984 . S
H379 N366 0.985 . S
C380 C381 1.363 . S
C380 C386 1.379 . S
C380 N388 1.356 . S
C381 C380 1.363 . S
C381 C387 1.363 . S
C382 C383 1.363 . S
C382 C387 1.379 . S
C382 N389 1.356 . S
C383 C382 1.363 . S
C383 C386 1.363 . S
N384 C386 1.356 . S
N384 H396 0.984 . S
N384 H397 0.985 . S
N385 C387 1.356 . S
N385 H390 0.984 . S
N385 H391 0.985 . S
C386 C380 1.379 . S
C386 C383 1.363 . S
C386 N384 1.356 . S
C387 C381 1.363 . S
C387 C382 1.379 . S
C387 N385 1.356 . S
N388 C380 1.356 . S
N388 H394 0.984 . S
N388 H395 0.984 . S
N389 C382 1.356 . S
N389 H392 0.984 . S
N389 H393 0.985 . S
H390 N385 0.984 . S
H391 N385 0.985 . S
H392 N389 0.984 . S
H393 N389 0.985 . S
H394 N388 0.984 . S
H395 N388 0.984 . S
H396 N384 0.984 . S
H397 N384 0.985 . S
C398 C399 1.363 . S
C398 C404 1.379 . S
C398 N406 1.356 . S
C399 C398 1.363 . S
C399 C405 1.363 . S
C400 C401 1.363 . S
C400 C405 1.379 . S
C400 N407 1.356 . S
C401 C400 1.363 . S
C401 C404 1.363 . S
N402 C404 1.356 . S
N402 H414 0.984 . S
N402 H415 0.985 . S
N403 C405 1.356 . S
N403 H408 0.984 . S
N403 H409 0.985 . S
C404 C398 1.379 . S
C404 C401 1.363 . S
C404 N402 1.356 . S
C405 C399 1.363 . S
C405 C400 1.379 . S
C405 N403 1.356 . S
N406 C398 1.356 . S
N406 H412 0.984 . S
N406 H413 0.984 . S
N407 C400 1.356 . S
N407 H410 0.984 . S
N407 H411 0.985 . S
H408 N403 0.984 . S
H409 N403 0.985 . S
H410 N407 0.984 . S
H411 N407 0.985 . S
H412 N406 0.984 . S
H413 N406 0.984 . S
H414 N402 0.984 . S
H415 N402 0.985 . S
C416 C417 1.363 . S
C416 C422 1.379 . S
C416 N424 1.356 . S
C417 C416 1.363 . S
C417 C423 1.363 . S
C418 C419 1.363 . S
C418 C423 1.379 . S
C418 N425 1.356 1_655 S
C419 C418 1.363 . S
C419 C422 1.363 . S
N420 C422 1.356 . S
N420 H432 0.984 . S
N420 H433 0.985 . S
N421 C423 1.356 . S
N421 H426 0.984 . S
N421 H427 0.985 1_655 S
C422 C416 1.379 . S
C422 C419 1.363 . S
C422 N420 1.356 . S
C423 C417 1.363 . S
C423 C418 1.379 . S
C423 N421 1.356 . S
N424 C416 1.356 . S
N424 H430 0.984 . S
N424 H431 0.984 . S
N425 C418 1.356 1_455 S
N425 H428 0.984 . S
N425 H429 0.985 . S
H426 N421 0.984 . S
H427 N421 0.985 1_455 S
H428 N425 0.984 . S
H429 N425 0.985 . S
H430 N424 0.984 . S
H431 N424 0.984 . S
H432 N420 0.984 . S
H433 N420 0.985 . S
C434 C435 1.363 . S
C434 C440 1.379 . S
C434 N442 1.356 . S
C435 C434 1.363 . S
C435 C441 1.363 . S
C436 C437 1.363 . S
C436 C441 1.379 . S
C436 N443 1.356 . S
C437 C436 1.363 . S
C437 C440 1.363 . S
N438 C440 1.356 . S
N438 H450 0.984 . S
N438 H451 0.985 . S
N439 C441 1.356 . S
N439 H444 0.984 . S
N439 H445 0.985 . S
C440 C434 1.379 . S
C440 C437 1.363 . S
C440 N438 1.356 . S
C441 C435 1.363 . S
C441 C436 1.379 . S
C441 N439 1.356 . S
N442 C434 1.356 . S
N442 H448 0.984 . S
N442 H449 0.984 . S
N443 C436 1.356 . S
N443 H446 0.984 . S
N443 H447 0.985 . S
H444 N439 0.984 . S
H445 N439 0.985 . S
H446 N443 0.984 . S
H447 N443 0.985 . S
H448 N442 0.984 . S
H449 N442 0.984 . S
H450 N438 0.984 . S
H451 N438 0.985 . S
C452 C453 1.363 . S
C452 C458 1.379 . S
C452 N460 1.356 . S
C453 C452 1.363 . S
C453 C459 1.363 . S
C454 C455 1.363 . S
C454 C459 1.379 . S
C454 N461 1.356 . S
C455 C454 1.363 . S
C455 C458 1.363 . S
N456 C458 1.356 . S
N456 H468 0.984 . S
N456 H469 0.985 . S
N457 C459 1.356 . S
N457 H462 0.984 . S
N457 H463 0.985 . S
C458 C452 1.379 . S
C458 C455 1.363 . S
C458 N456 1.356 . S
C459 C453 1.363 . S
C459 C454 1.379 . S
C459 N457 1.356 . S
N460 C452 1.356 . S
N460 H466 0.984 . S
N460 H467 0.984 . S
N461 C454 1.356 . S
N461 H464 0.984 . S
N461 H465 0.985 . S
H462 N457 0.984 . S
H463 N457 0.985 . S
H464 N461 0.984 . S
H465 N461 0.985 . S
H466 N460 0.984 . S
H467 N460 0.984 . S
H468 N456 0.984 . S
H469 N456 0.985 . S
C470 C471 1.363 . S
C470 C476 1.379 . S
C470 N478 1.356 . S
C471 C470 1.363 . S
C471 C477 1.363 . S
C472 C473 1.363 . S
C472 C477 1.379 . S
C472 N479 1.356 . S
C473 C472 1.363 . S
C473 C476 1.363 . S
N474 C476 1.356 . S
N474 H486 0.984 . S
N474 H487 0.985 . S
N475 C477 1.356 . S
N475 H480 0.984 . S
N475 H481 0.985 . S
C476 C470 1.379 . S
C476 C473 1.363 . S
C476 N474 1.356 . S
C477 C471 1.363 . S
C477 C472 1.379 . S
C477 N475 1.356 . S
N478 C470 1.356 . S
N478 H484 0.984 . S
N478 H485 0.984 . S
N479 C472 1.356 . S
N479 H482 0.984 . S
N479 H483 0.985 . S
H480 N475 0.984 . S
H481 N475 0.985 . S
H482 N479 0.984 . S
H483 N479 0.985 . S
H484 N478 0.984 . S
H485 N478 0.984 . S
H486 N474 0.984 . S
H487 N474 0.985 . S
C488 C489 1.363 . S
C488 C494 1.379 . S
C488 N496 1.356 . S
C489 C488 1.363 . S
C489 C495 1.363 . S
C490 C491 1.363 . S
C490 C495 1.379 . S
C490 N497 1.356 . S
C491 C490 1.363 . S
C491 C494 1.363 . S
N492 C494 1.356 . S
N492 H504 0.984 . S
N492 H505 0.985 . S
N493 C495 1.356 . S
N493 H498 0.984 . S
N493 H499 0.985 . S
C494 C488 1.379 . S
C494 C491 1.363 . S
C494 N492 1.356 . S
C495 C489 1.363 . S
C495 C490 1.379 . S
C495 N493 1.356 . S
N496 C488 1.356 . S
N496 H502 0.984 . S
N496 H503 0.984 . S
N497 C490 1.356 . S
N497 H500 0.984 . S
N497 H501 0.985 . S
H498 N493 0.984 . S
H499 N493 0.985 . S
H500 N497 0.984 . S
H501 N497 0.985 . S
H502 N496 0.984 . S
H503 N496 0.984 . S
H504 N492 0.984 . S
H505 N492 0.985 . S
C506 C507 1.363 . S
C506 C512 1.379 . S
C506 N514 1.356 . S
C507 C506 1.363 . S
C507 C513 1.363 . S
C508 C509 1.363 . S
C508 C513 1.379 . S
C508 N515 1.356 . S
C509 C508 1.363 . S
C509 C512 1.363 . S
N510 C512 1.356 1_655 S
N510 H522 0.984 . S
N510 H523 0.984 1_655 S
N511 C513 1.356 . S
N511 H516 0.984 . S
N511 H517 0.985 . S
C512 C506 1.379 . S
C512 C509 1.363 . S
C512 N510 1.356 1_455 S
C513 C507 1.363 . S
C513 C508 1.379 . S
C513 N511 1.356 . S
N514 C506 1.356 . S
N514 H520 0.984 1_455 S
N514 H521 0.984 . S
N515 C508 1.356 . S
N515 H518 0.984 . S
N515 H519 0.985 . S
H516 N511 0.984 . S
H517 N511 0.985 . S
H518 N515 0.984 . S
H519 N515 0.985 . S
H520 N514 0.984 1_655 S
H521 N514 0.984 . S
H522 N510 0.984 . S
H523 N510 0.984 1_455 S
C311 C244 1.680 . S
C309 C211 1.574 . S
C327 C31 1.584 . S
C329 C287 1.595 . S
C345 C91 1.653 . S
C347 C253 1.679 . S
C363 C151 1.519 . S
C365 C278 1.595 . S
C383 C240 1.689 . S
C381 C20 1.682 . S
C401 C282 1.791 . S
C399 C61 1.726 . S
C417 C121 1.544 . S
C419 C248 1.669 . S
C435 C200 1.662 . S
C437 C274 1.785 . S
C455 C303 1.785 . S
C453 C80 1.760 . S
C473 C269 1.689 . S
C471 C140 1.602 . S
C491 C291 1.791 . S
C489 C181 1.624 . S
C507 C1 1.626 . S
C509 C257 1.669 . S
