# Generated by pormake.
# Topology bpr, (3,3)-cn, num edge types: 1
# Building blocks:
#     Node 0, Type 0, BuildingBlock: OLANEW_clean_sbu_2, # of connection points: 3
#     Node 1, Type 0, BuildingBlock: OLANEW_clean_sbu_2, # of connection points: 3
#     Node 2, Type 0, BuildingBlock: OLANEW_clean_sbu_2, # of connection points: 3
#     Node 3, Type 0, BuildingBlock: OLANEW_clean_sbu_2, # of connection points: 3
#     Node 4, Type 0, BuildingBlock: OLANEW_clean_sbu_2, # of connection points: 3
#     Node 5, Type 0, BuildingBlock: OLANEW_clean_sbu_2, # of connection points: 3
#     Node 6, Type 0, BuildingBlock: OLANEW_clean_sbu_2, # of connection points: 3
#     Node 7, Type 0, BuildingBlock: OLANEW_clean_sbu_2, # of connection points: 3
#     Node 8, Type 0, BuildingBlock: OLANEW_clean_sbu_2, # of connection points: 3
#     Node 9, Type 0, BuildingBlock: OLANEW_clean_sbu_2, # of connection points: 3
#     Node 10, Type 0, BuildingBlock: OLANEW_clean_sbu_2, # of connection points: 3
#     Node 11, Type 0, BuildingBlock: OLANEW_clean_sbu_2, # of connection points: 3
#     Node 12, Type 0, BuildingBlock: OLANEW_clean_sbu_2, # of connection points: 3
#     Node 13, Type 0, BuildingBlock: OLANEW_clean_sbu_2, # of connection points: 3
#     Node 14, Type 0, BuildingBlock: OLANEW_clean_sbu_2, # of connection points: 3
#     Node 15, Type 0, BuildingBlock: OLANEW_clean_sbu_2, # of connection points: 3
#     Node 16, Type 0, BuildingBlock: OLANEW_clean_sbu_2, # of connection points: 3
#     Node 17, Type 0, BuildingBlock: OLANEW_clean_sbu_2, # of connection points: 3
#     Node 18, Type 0, BuildingBlock: OLANEW_clean_sbu_2, # of connection points: 3
#     Node 19, Type 0, BuildingBlock: OLANEW_clean_sbu_2, # of connection points: 3
#     Node 20, Type 0, BuildingBlock: OLANEW_clean_sbu_2, # of connection points: 3
#     Node 21, Type 0, BuildingBlock: OLANEW_clean_sbu_2, # of connection points: 3
#     Node 22, Type 0, BuildingBlock: OLANEW_clean_sbu_2, # of connection points: 3
#     Node 23, Type 0, BuildingBlock: OLANEW_clean_sbu_2, # of connection points: 3
#     Node 24, Type 0, BuildingBlock: OLANEW_clean_sbu_2, # of connection points: 3
#     Node 25, Type 0, BuildingBlock: OLANEW_clean_sbu_2, # of connection points: 3
#     Node 26, Type 0, BuildingBlock: OLANEW_clean_sbu_2, # of connection points: 3
#     Node 27, Type 0, BuildingBlock: OLANEW_clean_sbu_2, # of connection points: 3
#     Node 28, Type 0, BuildingBlock: OLANEW_clean_sbu_2, # of connection points: 3
#     Node 29, Type 0, BuildingBlock: OLANEW_clean_sbu_2, # of connection points: 3
#     Node 30, Type 0, BuildingBlock: OLANEW_clean_sbu_2, # of connection points: 3
#     Node 31, Type 0, BuildingBlock: OLANEW_clean_sbu_2, # of connection points: 3
#     Node 32, Type 0, BuildingBlock: OLANEW_clean_sbu_2, # of connection points: 3
#     Node 33, Type 0, BuildingBlock: OLANEW_clean_sbu_2, # of connection points: 3
#     Node 34, Type 0, BuildingBlock: OLANEW_clean_sbu_2, # of connection points: 3
#     Node 35, Type 0, BuildingBlock: OLANEW_clean_sbu_2, # of connection points: 3
#     Node 36, Type 0, BuildingBlock: OLANEW_clean_sbu_2, # of connection points: 3
#     Node 37, Type 0, BuildingBlock: OLANEW_clean_sbu_2, # of connection points: 3
#     Node 38, Type 0, BuildingBlock: OLANEW_clean_sbu_2, # of connection points: 3
#     Node 39, Type 0, BuildingBlock: OLANEW_clean_sbu_2, # of connection points: 3
#     Node 40, Type 0, BuildingBlock: OLANEW_clean_sbu_2, # of connection points: 3
#     Node 41, Type 0, BuildingBlock: OLANEW_clean_sbu_2, # of connection points: 3
#     Node 42, Type 0, BuildingBlock: OLANEW_clean_sbu_2, # of connection points: 3
#     Node 43, Type 0, BuildingBlock: OLANEW_clean_sbu_2, # of connection points: 3
#     Node 44, Type 0, BuildingBlock: OLANEW_clean_sbu_2, # of connection points: 3
#     Node 45, Type 0, BuildingBlock: OLANEW_clean_sbu_2, # of connection points: 3
#     Node 46, Type 0, BuildingBlock: OLANEW_clean_sbu_2, # of connection points: 3
#     Node 47, Type 0, BuildingBlock: OLANEW_clean_sbu_2, # of connection points: 3
#     Node 48, Type 1, BuildingBlock: VETTIZ_charged_linker_0, # of connection points: 3
#     Node 49, Type 1, BuildingBlock: VETTIZ_charged_linker_0, # of connection points: 3
#     Node 50, Type 1, BuildingBlock: VETTIZ_charged_linker_0, # of connection points: 3
#     Node 51, Type 1, BuildingBlock: VETTIZ_charged_linker_0, # of connection points: 3
#     Node 52, Type 1, BuildingBlock: VETTIZ_charged_linker_0, # of connection points: 3
#     Node 53, Type 1, BuildingBlock: VETTIZ_charged_linker_0, # of connection points: 3
#     Node 54, Type 1, BuildingBlock: VETTIZ_charged_linker_0, # of connection points: 3
#     Node 55, Type 1, BuildingBlock: VETTIZ_charged_linker_0, # of connection points: 3
#     Node 56, Type 1, BuildingBlock: VETTIZ_charged_linker_0, # of connection points: 3
#     Node 57, Type 1, BuildingBlock: VETTIZ_charged_linker_0, # of connection points: 3
#     Node 58, Type 1, BuildingBlock: VETTIZ_charged_linker_0, # of connection points: 3
#     Node 59, Type 1, BuildingBlock: VETTIZ_charged_linker_0, # of connection points: 3
#     Node 60, Type 1, BuildingBlock: VETTIZ_charged_linker_0, # of connection points: 3
#     Node 61, Type 1, BuildingBlock: VETTIZ_charged_linker_0, # of connection points: 3
#     Node 62, Type 1, BuildingBlock: VETTIZ_charged_linker_0, # of connection points: 3
#     Node 63, Type 1, BuildingBlock: VETTIZ_charged_linker_0, # of connection points: 3
#     Node 64, Type 1, BuildingBlock: VETTIZ_charged_linker_0, # of connection points: 3
#     Node 65, Type 1, BuildingBlock: VETTIZ_charged_linker_0, # of connection points: 3
#     Node 66, Type 1, BuildingBlock: VETTIZ_charged_linker_0, # of connection points: 3
#     Node 67, Type 1, BuildingBlock: VETTIZ_charged_linker_0, # of connection points: 3
#     Node 68, Type 1, BuildingBlock: VETTIZ_charged_linker_0, # of connection points: 3
#     Node 69, Type 1, BuildingBlock: VETTIZ_charged_linker_0, # of connection points: 3
#     Node 70, Type 1, BuildingBlock: VETTIZ_charged_linker_0, # of connection points: 3
#     Node 71, Type 1, BuildingBlock: VETTIZ_charged_linker_0, # of connection points: 3
#     Node 72, Type 1, BuildingBlock: VETTIZ_charged_linker_0, # of connection points: 3
#     Node 73, Type 1, BuildingBlock: VETTIZ_charged_linker_0, # of connection points: 3
#     Node 74, Type 1, BuildingBlock: VETTIZ_charged_linker_0, # of connection points: 3
#     Node 75, Type 1, BuildingBlock: VETTIZ_charged_linker_0, # of connection points: 3
#     Node 76, Type 1, BuildingBlock: VETTIZ_charged_linker_0, # of connection points: 3
#     Node 77, Type 1, BuildingBlock: VETTIZ_charged_linker_0, # of connection points: 3
#     Node 78, Type 1, BuildingBlock: VETTIZ_charged_linker_0, # of connection points: 3
#     Node 79, Type 1, BuildingBlock: VETTIZ_charged_linker_0, # of connection points: 3
#     Node 80, Type 1, BuildingBlock: VETTIZ_charged_linker_0, # of connection points: 3
#     Node 81, Type 1, BuildingBlock: VETTIZ_charged_linker_0, # of connection points: 3
#     Node 82, Type 1, BuildingBlock: VETTIZ_charged_linker_0, # of connection points: 3
#     Node 83, Type 1, BuildingBlock: VETTIZ_charged_linker_0, # of connection points: 3
#     Node 84, Type 1, BuildingBlock: VETTIZ_charged_linker_0, # of connection points: 3
#     Node 85, Type 1, BuildingBlock: VETTIZ_charged_linker_0, # of connection points: 3
#     Node 86, Type 1, BuildingBlock: VETTIZ_charged_linker_0, # of connection points: 3
#     Node 87, Type 1, BuildingBlock: VETTIZ_charged_linker_0, # of connection points: 3
#     Node 88, Type 1, BuildingBlock: VETTIZ_charged_linker_0, # of connection points: 3
#     Node 89, Type 1, BuildingBlock: VETTIZ_charged_linker_0, # of connection points: 3
#     Node 90, Type 1, BuildingBlock: VETTIZ_charged_linker_0, # of connection points: 3
#     Node 91, Type 1, BuildingBlock: VETTIZ_charged_linker_0, # of connection points: 3
#     Node 92, Type 1, BuildingBlock: VETTIZ_charged_linker_0, # of connection points: 3
#     Node 93, Type 1, BuildingBlock: VETTIZ_charged_linker_0, # of connection points: 3
#     Node 94, Type 1, BuildingBlock: VETTIZ_charged_linker_0, # of connection points: 3
#     Node 95, Type 1, BuildingBlock: VETTIZ_charged_linker_0, # of connection points: 3
#     Edge 96, Type (0, 1), BuildingBlock: UVAHIK_clean_linker_0, # of connection points: 2
#     Edge 97, Type (0, 1), BuildingBlock: UVAHIK_clean_linker_0, # of connection points: 2
#     Edge 98, Type (0, 1), BuildingBlock: UVAHIK_clean_linker_0, # of connection points: 2
#     Edge 99, Type (0, 1), BuildingBlock: UVAHIK_clean_linker_0, # of connection points: 2
#     Edge 100, Type (0, 1), BuildingBlock: UVAHIK_clean_linker_0, # of connection points: 2
#     Edge 101, Type (0, 1), BuildingBlock: UVAHIK_clean_linker_0, # of connection points: 2
#     Edge 102, Type (0, 1), BuildingBlock: UVAHIK_clean_linker_0, # of connection points: 2
#     Edge 103, Type (0, 1), BuildingBlock: UVAHIK_clean_linker_0, # of connection points: 2
#     Edge 104, Type (0, 1), BuildingBlock: UVAHIK_clean_linker_0, # of connection points: 2
#     Edge 105, Type (0, 1), BuildingBlock: UVAHIK_clean_linker_0, # of connection points: 2
#     Edge 106, Type (0, 1), BuildingBlock: UVAHIK_clean_linker_0, # of connection points: 2
#     Edge 107, Type (0, 1), BuildingBlock: UVAHIK_clean_linker_0, # of connection points: 2
#     Edge 108, Type (0, 1), BuildingBlock: UVAHIK_clean_linker_0, # of connection points: 2
#     Edge 109, Type (0, 1), BuildingBlock: UVAHIK_clean_linker_0, # of connection points: 2
#     Edge 110, Type (0, 1), BuildingBlock: UVAHIK_clean_linker_0, # of connection points: 2
#     Edge 111, Type (0, 1), BuildingBlock: UVAHIK_clean_linker_0, # of connection points: 2
#     Edge 112, Type (0, 1), BuildingBlock: UVAHIK_clean_linker_0, # of connection points: 2
#     Edge 113, Type (0, 1), BuildingBlock: UVAHIK_clean_linker_0, # of connection points: 2
#     Edge 114, Type (0, 1), BuildingBlock: UVAHIK_clean_linker_0, # of connection points: 2
#     Edge 115, Type (0, 1), BuildingBlock: UVAHIK_clean_linker_0, # of connection points: 2
#     Edge 116, Type (0, 1), BuildingBlock: UVAHIK_clean_linker_0, # of connection points: 2
#     Edge 117, Type (0, 1), BuildingBlock: UVAHIK_clean_linker_0, # of connection points: 2
#     Edge 118, Type (0, 1), BuildingBlock: UVAHIK_clean_linker_0, # of connection points: 2
#     Edge 119, Type (0, 1), BuildingBlock: UVAHIK_clean_linker_0, # of connection points: 2
#     Edge 120, Type (0, 1), BuildingBlock: UVAHIK_clean_linker_0, # of connection points: 2
#     Edge 121, Type (0, 1), BuildingBlock: UVAHIK_clean_linker_0, # of connection points: 2
#     Edge 122, Type (0, 1), BuildingBlock: UVAHIK_clean_linker_0, # of connection points: 2
#     Edge 123, Type (0, 1), BuildingBlock: UVAHIK_clean_linker_0, # of connection points: 2
#     Edge 124, Type (0, 1), BuildingBlock: UVAHIK_clean_linker_0, # of connection points: 2
#     Edge 125, Type (0, 1), BuildingBlock: UVAHIK_clean_linker_0, # of connection points: 2
#     Edge 126, Type (0, 1), BuildingBlock: UVAHIK_clean_linker_0, # of connection points: 2
#     Edge 127, Type (0, 1), BuildingBlock: UVAHIK_clean_linker_0, # of connection points: 2
#     Edge 128, Type (0, 1), BuildingBlock: UVAHIK_clean_linker_0, # of connection points: 2
#     Edge 129, Type (0, 1), BuildingBlock: UVAHIK_clean_linker_0, # of connection points: 2
#     Edge 130, Type (0, 1), BuildingBlock: UVAHIK_clean_linker_0, # of connection points: 2
#     Edge 131, Type (0, 1), BuildingBlock: UVAHIK_clean_linker_0, # of connection points: 2
#     Edge 132, Type (0, 1), BuildingBlock: UVAHIK_clean_linker_0, # of connection points: 2
#     Edge 133, Type (0, 1), BuildingBlock: UVAHIK_clean_linker_0, # of connection points: 2
#     Edge 134, Type (0, 1), BuildingBlock: UVAHIK_clean_linker_0, # of connection points: 2
#     Edge 135, Type (0, 1), BuildingBlock: UVAHIK_clean_linker_0, # of connection points: 2
#     Edge 136, Type (0, 1), BuildingBlock: UVAHIK_clean_linker_0, # of connection points: 2
#     Edge 137, Type (0, 1), BuildingBlock: UVAHIK_clean_linker_0, # of connection points: 2
#     Edge 138, Type (0, 1), BuildingBlock: UVAHIK_clean_linker_0, # of connection points: 2
#     Edge 139, Type (0, 1), BuildingBlock: UVAHIK_clean_linker_0, # of connection points: 2
#     Edge 140, Type (0, 1), BuildingBlock: UVAHIK_clean_linker_0, # of connection points: 2
#     Edge 141, Type (0, 1), BuildingBlock: UVAHIK_clean_linker_0, # of connection points: 2
#     Edge 142, Type (0, 1), BuildingBlock: UVAHIK_clean_linker_0, # of connection points: 2
#     Edge 143, Type (0, 1), BuildingBlock: UVAHIK_clean_linker_0, # of connection points: 2
#     Edge 144, Type (0, 1), BuildingBlock: UVAHIK_clean_linker_0, # of connection points: 2
#     Edge 145, Type (0, 1), BuildingBlock: UVAHIK_clean_linker_0, # of connection points: 2
#     Edge 146, Type (0, 1), BuildingBlock: UVAHIK_clean_linker_0, # of connection points: 2
#     Edge 147, Type (0, 1), BuildingBlock: UVAHIK_clean_linker_0, # of connection points: 2
#     Edge 148, Type (0, 1), BuildingBlock: UVAHIK_clean_linker_0, # of connection points: 2
#     Edge 149, Type (0, 1), BuildingBlock: UVAHIK_clean_linker_0, # of connection points: 2
#     Edge 150, Type (0, 1), BuildingBlock: UVAHIK_clean_linker_0, # of connection points: 2
#     Edge 151, Type (0, 1), BuildingBlock: UVAHIK_clean_linker_0, # of connection points: 2
#     Edge 152, Type (0, 1), BuildingBlock: UVAHIK_clean_linker_0, # of connection points: 2
#     Edge 153, Type (0, 1), BuildingBlock: UVAHIK_clean_linker_0, # of connection points: 2
#     Edge 154, Type (0, 1), BuildingBlock: UVAHIK_clean_linker_0, # of connection points: 2
#     Edge 155, Type (0, 1), BuildingBlock: UVAHIK_clean_linker_0, # of connection points: 2
#     Edge 156, Type (0, 1), BuildingBlock: UVAHIK_clean_linker_0, # of connection points: 2
#     Edge 157, Type (0, 1), BuildingBlock: UVAHIK_clean_linker_0, # of connection points: 2
#     Edge 158, Type (0, 1), BuildingBlock: UVAHIK_clean_linker_0, # of connection points: 2
#     Edge 159, Type (0, 1), BuildingBlock: UVAHIK_clean_linker_0, # of connection points: 2
#     Edge 160, Type (0, 1), BuildingBlock: UVAHIK_clean_linker_0, # of connection points: 2
#     Edge 161, Type (0, 1), BuildingBlock: UVAHIK_clean_linker_0, # of connection points: 2
#     Edge 162, Type (0, 1), BuildingBlock: UVAHIK_clean_linker_0, # of connection points: 2
#     Edge 163, Type (0, 1), BuildingBlock: UVAHIK_clean_linker_0, # of connection points: 2
#     Edge 164, Type (0, 1), BuildingBlock: UVAHIK_clean_linker_0, # of connection points: 2
#     Edge 165, Type (0, 1), BuildingBlock: UVAHIK_clean_linker_0, # of connection points: 2
#     Edge 166, Type (0, 1), BuildingBlock: UVAHIK_clean_linker_0, # of connection points: 2
#     Edge 167, Type (0, 1), BuildingBlock: UVAHIK_clean_linker_0, # of connection points: 2
#     Edge 168, Type (0, 1), BuildingBlock: UVAHIK_clean_linker_0, # of connection points: 2
#     Edge 169, Type (0, 1), BuildingBlock: UVAHIK_clean_linker_0, # of connection points: 2
#     Edge 170, Type (0, 1), BuildingBlock: UVAHIK_clean_linker_0, # of connection points: 2
#     Edge 171, Type (0, 1), BuildingBlock: UVAHIK_clean_linker_0, # of connection points: 2
#     Edge 172, Type (0, 1), BuildingBlock: UVAHIK_clean_linker_0, # of connection points: 2
#     Edge 173, Type (0, 1), BuildingBlock: UVAHIK_clean_linker_0, # of connection points: 2
#     Edge 174, Type (0, 1), BuildingBlock: UVAHIK_clean_linker_0, # of connection points: 2
#     Edge 175, Type (0, 1), BuildingBlock: UVAHIK_clean_linker_0, # of connection points: 2
#     Edge 176, Type (0, 1), BuildingBlock: UVAHIK_clean_linker_0, # of connection points: 2
#     Edge 177, Type (0, 1), BuildingBlock: UVAHIK_clean_linker_0, # of connection points: 2
#     Edge 178, Type (0, 1), BuildingBlock: UVAHIK_clean_linker_0, # of connection points: 2
#     Edge 179, Type (0, 1), BuildingBlock: UVAHIK_clean_linker_0, # of connection points: 2
#     Edge 180, Type (0, 1), BuildingBlock: UVAHIK_clean_linker_0, # of connection points: 2
#     Edge 181, Type (0, 1), BuildingBlock: UVAHIK_clean_linker_0, # of connection points: 2
#     Edge 182, Type (0, 1), BuildingBlock: UVAHIK_clean_linker_0, # of connection points: 2
#     Edge 183, Type (0, 1), BuildingBlock: UVAHIK_clean_linker_0, # of connection points: 2
#     Edge 184, Type (0, 1), BuildingBlock: UVAHIK_clean_linker_0, # of connection points: 2
#     Edge 185, Type (0, 1), BuildingBlock: UVAHIK_clean_linker_0, # of connection points: 2
#     Edge 186, Type (0, 1), BuildingBlock: UVAHIK_clean_linker_0, # of connection points: 2
#     Edge 187, Type (0, 1), BuildingBlock: UVAHIK_clean_linker_0, # of connection points: 2
#     Edge 188, Type (0, 1), BuildingBlock: UVAHIK_clean_linker_0, # of connection points: 2
#     Edge 189, Type (0, 1), BuildingBlock: UVAHIK_clean_linker_0, # of connection points: 2
#     Edge 190, Type (0, 1), BuildingBlock: UVAHIK_clean_linker_0, # of connection points: 2
#     Edge 191, Type (0, 1), BuildingBlock: UVAHIK_clean_linker_0, # of connection points: 2
#     Edge 192, Type (0, 1), BuildingBlock: UVAHIK_clean_linker_0, # of connection points: 2
#     Edge 193, Type (0, 1), BuildingBlock: UVAHIK_clean_linker_0, # of connection points: 2
#     Edge 194, Type (0, 1), BuildingBlock: UVAHIK_clean_linker_0, # of connection points: 2
#     Edge 195, Type (0, 1), BuildingBlock: UVAHIK_clean_linker_0, # of connection points: 2
#     Edge 196, Type (0, 1), BuildingBlock: UVAHIK_clean_linker_0, # of connection points: 2
#     Edge 197, Type (0, 1), BuildingBlock: UVAHIK_clean_linker_0, # of connection points: 2
#     Edge 198, Type (0, 1), BuildingBlock: UVAHIK_clean_linker_0, # of connection points: 2
#     Edge 199, Type (0, 1), BuildingBlock: UVAHIK_clean_linker_0, # of connection points: 2
#     Edge 200, Type (0, 1), BuildingBlock: UVAHIK_clean_linker_0, # of connection points: 2
#     Edge 201, Type (0, 1), BuildingBlock: UVAHIK_clean_linker_0, # of connection points: 2
#     Edge 202, Type (0, 1), BuildingBlock: UVAHIK_clean_linker_0, # of connection points: 2
#     Edge 203, Type (0, 1), BuildingBlock: UVAHIK_clean_linker_0, # of connection points: 2
#     Edge 204, Type (0, 1), BuildingBlock: UVAHIK_clean_linker_0, # of connection points: 2
#     Edge 205, Type (0, 1), BuildingBlock: UVAHIK_clean_linker_0, # of connection points: 2
#     Edge 206, Type (0, 1), BuildingBlock: UVAHIK_clean_linker_0, # of connection points: 2
#     Edge 207, Type (0, 1), BuildingBlock: UVAHIK_clean_linker_0, # of connection points: 2
#     Edge 208, Type (0, 1), BuildingBlock: UVAHIK_clean_linker_0, # of connection points: 2
#     Edge 209, Type (0, 1), BuildingBlock: UVAHIK_clean_linker_0, # of connection points: 2
#     Edge 210, Type (0, 1), BuildingBlock: UVAHIK_clean_linker_0, # of connection points: 2
#     Edge 211, Type (0, 1), BuildingBlock: UVAHIK_clean_linker_0, # of connection points: 2
#     Edge 212, Type (0, 1), BuildingBlock: UVAHIK_clean_linker_0, # of connection points: 2
#     Edge 213, Type (0, 1), BuildingBlock: UVAHIK_clean_linker_0, # of connection points: 2
#     Edge 214, Type (0, 1), BuildingBlock: UVAHIK_clean_linker_0, # of connection points: 2
#     Edge 215, Type (0, 1), BuildingBlock: UVAHIK_clean_linker_0, # of connection points: 2
#     Edge 216, Type (0, 1), BuildingBlock: UVAHIK_clean_linker_0, # of connection points: 2
#     Edge 217, Type (0, 1), BuildingBlock: UVAHIK_clean_linker_0, # of connection points: 2
#     Edge 218, Type (0, 1), BuildingBlock: UVAHIK_clean_linker_0, # of connection points: 2
#     Edge 219, Type (0, 1), BuildingBlock: UVAHIK_clean_linker_0, # of connection points: 2
#     Edge 220, Type (0, 1), BuildingBlock: UVAHIK_clean_linker_0, # of connection points: 2
#     Edge 221, Type (0, 1), BuildingBlock: UVAHIK_clean_linker_0, # of connection points: 2
#     Edge 222, Type (0, 1), BuildingBlock: UVAHIK_clean_linker_0, # of connection points: 2
#     Edge 223, Type (0, 1), BuildingBlock: UVAHIK_clean_linker_0, # of connection points: 2
#     Edge 224, Type (0, 1), BuildingBlock: UVAHIK_clean_linker_0, # of connection points: 2
#     Edge 225, Type (0, 1), BuildingBlock: UVAHIK_clean_linker_0, # of connection points: 2
#     Edge 226, Type (0, 1), BuildingBlock: UVAHIK_clean_linker_0, # of connection points: 2
#     Edge 227, Type (0, 1), BuildingBlock: UVAHIK_clean_linker_0, # of connection points: 2
#     Edge 228, Type (0, 1), BuildingBlock: UVAHIK_clean_linker_0, # of connection points: 2
#     Edge 229, Type (0, 1), BuildingBlock: UVAHIK_clean_linker_0, # of connection points: 2
#     Edge 230, Type (0, 1), BuildingBlock: UVAHIK_clean_linker_0, # of connection points: 2
#     Edge 231, Type (0, 1), BuildingBlock: UVAHIK_clean_linker_0, # of connection points: 2
#     Edge 232, Type (0, 1), BuildingBlock: UVAHIK_clean_linker_0, # of connection points: 2
#     Edge 233, Type (0, 1), BuildingBlock: UVAHIK_clean_linker_0, # of connection points: 2
#     Edge 234, Type (0, 1), BuildingBlock: UVAHIK_clean_linker_0, # of connection points: 2
#     Edge 235, Type (0, 1), BuildingBlock: UVAHIK_clean_linker_0, # of connection points: 2
#     Edge 236, Type (0, 1), BuildingBlock: UVAHIK_clean_linker_0, # of connection points: 2
#     Edge 237, Type (0, 1), BuildingBlock: UVAHIK_clean_linker_0, # of connection points: 2
#     Edge 238, Type (0, 1), BuildingBlock: UVAHIK_clean_linker_0, # of connection points: 2
#     Edge 239, Type (0, 1), BuildingBlock: UVAHIK_clean_linker_0, # of connection points: 2
# Relax obj value: 0.038
# Max RMSD: 0.089
# Mean RMSD: 0.047
data_MOF--net-bpr--node1-OLANEW_clean_sbu_2--node2-VETTIZ_charged_linker_0--edge1-UVAHIK_clean_linker_0
_symmetry_space_group_name_H-M    P1
_symmetry_Int_Tables_number       1
_symmetry_cell_setting            triclinic
loop_
_symmetry_equiv_pos_as_xyz
'x, y, z'
_cell_length_a     123.71685
_cell_length_b     139.0664
_cell_length_c     132.0056
_cell_angle_alpha  90.034485
_cell_angle_beta   90.216277
_cell_angle_gamma 89.952262
loop_
_atom_site_label
_atom_site_type_symbol
_atom_site_fract_x
_atom_site_fract_y
_atom_site_fract_z
_atom_type_partial_charge
O0 O 0.03643 0.38114 0.25572 0.0
Cd1 Cd 0.01925 0.3813 0.2465 0.0
O2 O 0.03547 0.36554 0.25829 0.0
Cd3 Cd 0.01812 0.36537 0.25522 0.0
O4 O 0.00178 0.36691 0.26124 0.0
C5 C -0.00062 0.37485 0.26544 0.0
O6 O 0.0065 0.38186 0.26533 0.0
C7 C 0.04079 0.37336 0.25875 0.0
C8 C 0.02357 0.37878 0.22594 0.0
O9 O 0.02264 0.38721 0.22978 0.0
O10 O 0.02219 0.37154 0.23179 0.0
O11 O 0.84985 0.77327 0.52451 0.0
Cd12 Cd 0.85145 0.76191 0.51046 0.0
O13 O 0.86672 0.77126 0.52932 0.0
Cd14 Cd 0.86759 0.75755 0.52132 0.0
O15 O 0.86412 0.74254 0.52497 0.0
C16 C 0.8605 0.74163 0.53392 0.0
O17 O 0.85927 0.7494 0.53947 0.0
C18 C 0.85781 0.77576 0.53004 0.0
C19 C 0.85623 0.7723 0.49295 0.0
O20 O 0.84643 0.77052 0.49544 0.0
O21 O 0.86379 0.76897 0.49862 0.0
O22 O 0.46556 0.63173 0.75909 0.0
Cd23 Cd 0.48062 0.62879 0.74757 0.0
O24 O 0.45425 0.6224 0.75078 0.0
Cd25 Cd 0.46501 0.61963 0.73806 0.0
O26 O 0.46707 0.61778 0.72177 0.0
C27 C 0.46402 0.62474 0.71622 0.0
O28 O 0.46069 0.63269 0.7206 0.0
C29 C 0.45629 0.62786 0.75827 0.0
C30 C 0.49975 0.62818 0.75879 0.0
O31 O 0.49631 0.63608 0.75497 0.0
O32 O 0.49426 0.62052 0.75712 0.0
O33 O 0.62768 0.23161 0.02907 0.0
Cd34 Cd 0.62178 0.23929 0.01334 0.0
O35 O 0.6392 0.22198 0.02148 0.0
Cd36 Cd 0.6335 0.22523 0.00621 0.0
O37 O 0.62687 0.21847 0.99262 0.0
C38 C 0.62199 0.21061 0.99439 0.0
O39 O 0.62106 0.20776 0.00383 0.0
C40 C 0.63502 0.22522 0.02957 0.0
C41 C 0.61708 0.25855 0.01723 0.0
O42 O 0.60968 0.25211 0.01762 0.0
O43 O 0.62665 0.25589 0.01479 0.0
O44 O 0.03593 0.61939 0.23158 0.0
Cd45 Cd 0.01872 0.6151 0.23943 0.0
O46 O 0.03001 0.63371 0.22714 0.0
Cd47 Cd 0.01345 0.63086 0.23184 0.0
O48 O -0.00297 0.62744 0.22704 0.0
C49 C -0.00484 0.61911 0.22347 0.0
O50 O 0.00293 0.61266 0.22367 0.0
C51 C 0.0376 0.62754 0.22751 0.0
C52 C 0.02053 0.61377 0.2604 0.0
O53 O 0.02167 0.60633 0.25477 0.0
O54 O 0.01849 0.62184 0.2561 0.0
O55 O 0.62261 0.75718 0.45101 0.0
Cd56 Cd 0.61921 0.74961 0.46742 0.0
O57 O 0.63402 0.76756 0.45762 0.0
Cd58 Cd 0.62988 0.76435 0.47331 0.0
O59 O 0.62357 0.77055 0.48728 0.0
C60 C 0.61667 0.7772 0.48586 0.0
O61 O 0.61369 0.77919 0.47652 0.0
C62 C 0.62939 0.76395 0.44989 0.0
C63 C 0.62013 0.72968 0.46527 0.0
O64 O 0.61112 0.7342 0.46465 0.0
O65 O 0.62869 0.73458 0.46711 0.0
O66 O 0.45835 0.37707 0.72759 0.0
Cd67 Cd 0.47304 0.38169 0.73902 0.0
O68 O 0.46265 0.36174 0.7273 0.0
Cd69 Cd 0.47869 0.36487 0.73341 0.0
O70 O 0.49545 0.36844 0.72984 0.0
C71 C 0.49725 0.37638 0.7254 0.0
O72 O 0.48914 0.38232 0.72386 0.0
C73 C 0.45619 0.36849 0.72493 0.0
C74 C 0.46545 0.38169 0.75887 0.0
O75 O 0.4643 0.38906 0.75315 0.0
O76 O 0.47039 0.37434 0.75527 0.0
O77 O 0.85105 0.23308 0.94508 0.0
Cd78 Cd 0.85944 0.24124 0.9595 0.0
O79 O 0.83942 0.22483 0.95413 0.0
Cd80 Cd 0.84678 0.22877 0.96859 0.0
O81 O 0.85478 0.223 0.98204 0.0
C82 C 0.85883 0.2147 0.98067 0.0
O83 O 0.85813 0.21082 0.97161 0.0
C84 C 0.84317 0.22725 0.94555 0.0
C85 C 0.86144 0.26069 0.95485 0.0
O86 O 0.86861 0.25458 0.95208 0.0
O87 O 0.85342 0.25764 0.96005 0.0
O88 O 0.27649 0.02838 0.36676 0.0
Cd89 Cd 0.26157 0.01721 0.36966 0.0
O90 O 0.27706 0.03267 0.38278 0.0
Cd91 Cd 0.26077 0.02733 0.38559 0.0
O92 O 0.24438 0.03314 0.38607 0.0
C93 C 0.23681 0.03059 0.38012 0.0
O94 O 0.23845 0.02348 0.37375 0.0
C95 C 0.28111 0.0329 0.37394 0.0
C96 C 0.27013 -0.00095 0.37375 0.0
O97 O 0.26774 0.00159 0.36468 0.0
O98 O 0.26826 0.00503 0.38092 0.0
O99 O 0.20678 0.00481 0.60681 0.0
Cd100 Cd 0.21494 0.98936 0.60252 0.0
O101 O 0.22224 0.01178 0.60385 0.0
Cd102 Cd 0.23453 0.02287 0.60179 0.0
O103 O 0.2495 0.0311 0.60153 0.0
C104 C 0.2539 0.03341 0.60989 0.0
O105 O 0.24909 0.03106 0.61839 0.0
C106 C 0.21238 0.01245 0.60648 0.0
C107 C 0.19876 0.97577 0.59949 0.0
O108 O 0.20281 0.97724 0.60831 0.0
O109 O 0.20251 0.98063 0.59205 0.0
O110 O 0.22294 0.96681 0.87927 0.0
Cd111 Cd 0.23528 0.98028 0.88216 0.0
O112 O 0.22018 0.97073 0.86333 0.0
Cd113 Cd 0.22706 0.98503 0.86554 0.0
O114 O 0.22532 0.00031 0.869 0.0
C115 C 0.22161 0.00268 0.87761 0.0
O116 O 0.21966 -0.0041 0.88429 0.0
C117 C 0.21885 0.9649 0.87064 0.0
C118 C 0.25654 0.97404 0.87962 0.0
O119 O 0.25212 0.97408 0.88839 0.0
O120 O 0.25097 0.97711 0.87208 0.0
O121 O 0.25675 0.97435 0.12164 0.0
Cd122 Cd 0.24191 0.98588 0.11991 0.0
O123 O 0.25809 0.97204 0.10521 0.0
Cd124 Cd 0.24265 0.97913 0.1023 0.0
O125 O 0.22507 0.97837 0.10097 0.0
C126 C 0.22148 0.9716 0.09543 0.0
O127 O 0.22844 0.96615 0.09059 0.0
C128 C 0.26161 0.97058 0.11415 0.0
C129 C 0.25043 0.00432 0.1177 0.0
O130 O 0.24821 0.00092 0.12647 0.0
O131 O 0.24842 -0.00094 0.10994 0.0
O132 O 0.34055 0.27483 0.01418 0.0
Cd133 Cd 0.3448 0.26471 -0.00042 0.0
O134 O 0.3343 0.26317 0.02381 0.0
Cd135 Cd 0.33746 0.25092 0.01393 0.0
O136 O 0.34024 0.23572 0.01717 0.0
C137 C 0.34462 0.23445 0.0258 0.0
O138 O 0.34729 0.24206 0.03116 0.0
C139 C 0.33642 0.27202 0.02246 0.0
C140 C 0.35121 0.27645 0.98353 0.0
O141 O 0.34128 0.27413 0.98473 0.0
O142 O 0.35816 0.27305 0.98981 0.0
O143 O 0.95793 0.86957 0.23451 0.0
Cd144 Cd 0.97297 0.87247 0.24618 0.0
O145 O 0.96322 0.85481 0.2312 0.0
Cd146 Cd 0.97941 0.85769 0.23709 0.0
O147 O -0.00427 0.86269 0.23365 0.0
C148 C -0.00298 0.87147 0.23125 0.0
O149 O 0.98868 0.8773 0.23168 0.0
C150 C 0.95621 0.86146 0.23036 0.0
C151 C 0.96524 0.87357 0.26596 0.0
O152 O 0.9665 0.88117 0.2606 0.0
O153 O 0.9678 0.86546 0.26201 0.0
O154 O 0.12828 0.73096 0.52653 0.0
Cd155 Cd 0.11789 0.73707 0.51213 0.0
O156 O 0.13813 0.72077 0.51779 0.0
Cd157 Cd 0.12892 0.72304 0.50389 0.0
O158 O 0.11864 0.71675 0.49218 0.0
C159 C 0.11326 0.70947 0.49505 0.0
O160 O 0.11398 0.7068 0.50458 0.0
C161 C 0.13578 0.72472 0.52618 0.0
C162 C 0.1107 0.75544 0.51713 0.0
O163 O 0.1053 0.74795 0.51964 0.0
O164 O 0.11935 0.75426 0.51196 0.0
O165 O 0.98601 0.6028 0.70275 0.0
Cd166 Cd 0.00178 0.6005 0.71369 0.0
O167 O 0.98047 0.61341 0.7138 0.0
Cd168 Cd 0.96903 0.62287 0.72151 0.0
O169 O 0.95971 0.62975 0.73349 0.0
C170 C 0.95984 0.6255 0.74201 0.0
O171 O 0.96535 0.61746 0.7429 0.0
C172 C 0.97888 0.60877 0.70562 0.0
C173 C 0.0213 0.6044 0.7041 0.0
O174 O 0.01716 0.59595 0.70386 0.0
O175 O 0.01614 0.61102 0.70881 0.0
O176 O 0.09464 0.21543 0.48521 0.0
Cd177 Cd 0.08948 0.22396 0.50065 0.0
O178 O 0.10449 0.22754 0.47999 0.0
Cd179 Cd 0.11367 0.23559 0.46869 0.0
O180 O 0.12006 0.24547 0.45735 0.0
C181 C 0.11334 0.24944 0.45136 0.0
O182 O 0.10304 0.24728 0.45217 0.0
C183 C 0.10074 0.21914 0.47855 0.0
C184 C 0.09591 0.21413 0.51804 0.0
O185 O 0.08726 0.21181 0.51327 0.0
O186 O 0.10156 0.22111 0.51461 0.0
O187 O 0.50363 0.38173 0.22112 0.0
Cd188 Cd 0.49291 0.38223 0.23661 0.0
O189 O 0.48966 0.37855 0.21132 0.0
Cd190 Cd 0.4771 0.37828 0.22288 0.0
O191 O 0.46002 0.37443 0.22361 0.0
C192 C 0.4578 0.36642 0.21946 0.0
O193 O 0.46582 0.3611 0.21611 0.0
C194 C 0.49973 0.38004 0.21238 0.0
C195 C 0.50652 0.38091 0.25346 0.0
O196 O 0.50262 0.37336 0.24925 0.0
O197 O 0.50385 0.38911 0.24978 0.0
O198 O 0.38025 0.77828 0.95958 0.0
Cd199 Cd 0.37479 0.76523 0.97081 0.0
O200 O 0.38358 0.78839 0.97202 0.0
Cd201 Cd 0.3788 0.77894 0.9844 0.0
O202 O 0.37281 0.77874 -8e-05 0.0
C203 C 0.36514 0.78459 0.00161 0.0
O204 O 0.36114 0.78951 0.99396 0.0
C205 C 0.38329 0.78653 0.9626 0.0
C206 C 0.36712 0.74989 0.95924 0.0
O207 O 0.36072 0.75652 0.96231 0.0
O208 O 0.37711 0.75045 0.96178 0.0
O209 O 0.97451 0.35897 0.77007 0.0
Cd210 Cd 0.98573 0.35454 0.75565 0.0
O211 O 0.97484 0.3743 0.76595 0.0
Cd212 Cd 0.98948 0.37248 0.7569 0.0
O213 O 0.00715 0.37254 0.75613 0.0
C214 C 0.01262 0.36482 0.7556 0.0
O215 O 0.00752 0.35658 0.75472 0.0
C216 C 0.97107 0.3675 0.77132 0.0
C217 C 0.97334 0.35546 0.73796 0.0
O218 O 0.97418 0.34759 0.74297 0.0
O219 O 0.97851 0.36282 0.74123 0.0
O220 O 0.3879 0.21803 0.5119 0.0
Cd221 Cd 0.38528 0.23204 0.50101 0.0
O222 O 0.40536 0.21675 0.50912 0.0
Cd223 Cd 0.40386 0.22633 0.49611 0.0
O224 O 0.3979 0.22627 0.48054 0.0
C225 C 0.39011 0.22047 0.47907 0.0
O226 O 0.38625 0.21573 0.48687 0.0
C227 C 0.39694 0.21406 0.51383 0.0
C228 C 0.37979 0.24771 0.5131 0.0
O229 O 0.37247 0.24233 0.50919 0.0
O230 O 0.38969 0.24579 0.51111 0.0
O231 O 0.51981 0.61872 0.27562 0.0
Cd232 Cd 0.50875 0.6218 0.26062 0.0
O233 O 0.51721 0.60309 0.27525 0.0
Cd234 Cd 0.50322 0.60478 0.26531 0.0
O235 O 0.48575 0.60703 0.26516 0.0
C236 C 0.48004 0.60043 0.26908 0.0
O237 O 0.48483 0.5925 0.27212 0.0
C238 C 0.52202 0.61037 0.27897 0.0
C239 C 0.52259 0.62284 0.24402 0.0
O240 O 0.52023 0.63036 0.24919 0.0
O241 O 0.51815 0.61487 0.24654 0.0
O242 O 0.09245 0.77467 0.02379 0.0
Cd243 Cd 0.09576 0.76098 0.01265 0.0
O244 O 0.08416 0.78353 0.01234 0.0
Cd245 Cd 0.08691 0.77403 -0.00055 0.0
O246 O 0.09036 0.77585 0.98336 0.0
C247 C 0.09591 0.78334 0.98159 0.0
O248 O 0.09932 0.78848 0.98932 0.0
C249 C 0.08751 0.78235 0.02137 0.0
C250 C 0.10278 0.74558 0.02451 0.0
O251 O 0.10955 0.75146 0.02059 0.0
O252 O 0.09271 0.74686 0.02262 0.0
O253 O 0.69604 0.99411 0.56505 0.0
Cd254 Cd 0.70965 0.00645 0.56195 0.0
O255 O 0.70611 0.98901 0.5776 0.0
Cd256 Cd 0.71165 0.97903 0.58933 0.0
O257 O 0.72118 0.9695 0.59901 0.0
C258 C 0.73047 0.96722 0.59573 0.0
O259 O 0.73358 0.97063 0.58692 0.0
C260 C 0.69759 0.9882 0.57224 0.0
C261 C 0.70279 0.02454 0.56833 0.0
O262 O 0.70088 0.02157 0.55931 0.0
O263 O 0.70796 0.01894 0.57435 0.0
O264 O 0.77372 0.99256 0.40292 0.0
Cd265 Cd 0.76105 0.00604 0.40313 0.0
O266 O 0.76395 0.98638 0.3907 0.0
Cd267 Cd 0.75842 0.97494 0.38057 0.0
O268 O 0.7497 0.96322 0.37321 0.0
C269 C 0.74493 0.95731 0.379 0.0
O270 O 0.74575 0.95847 0.38885 0.0
C271 C 0.77204 0.98579 0.39664 0.0
C272 C 0.7696 0.02236 0.39396 0.0
O273 O 0.77081 0.02086 0.40348 0.0
O274 O 0.76434 0.01612 0.38877 0.0
O275 O 0.78201 0.00068 0.06775 0.0
Cd276 Cd 0.76873 0.98775 0.06635 0.0
O277 O 0.77187 0.00721 0.07944 0.0
Cd278 Cd 0.76646 0.0187 0.08954 0.0
O279 O 0.75803 0.02984 0.0981 0.0
C280 C 0.74871 0.02792 0.10157 0.0
O281 O 0.74467 0.01929 0.10008 0.0
C282 C 0.78035 0.00745 0.07402 0.0
C283 C 0.77647 0.9704 0.07405 0.0
O284 O 0.77793 0.97269 0.06475 0.0
O285 O 0.77136 0.97633 0.07972 0.0
O286 O 0.70361 0.99169 0.91789 0.0
Cd287 Cd 0.71709 0.97916 0.92093 0.0
O288 O 0.7144 -0.0024 0.90638 0.0
Cd289 Cd 0.72047 0.00834 0.89571 0.0
O290 O 0.72989 0.01879 0.88712 0.0
C291 C 0.73507 0.02511 0.89212 0.0
O292 O 0.73426 0.02517 0.90204 0.0
C293 C 0.70556 -0.00194 0.91125 0.0
C294 C 0.71088 0.96146 0.9129 0.0
O295 O 0.70846 0.9638 0.92201 0.0
O296 O 0.71622 0.96751 0.90758 0.0
O297 O 0.59966 0.71428 0.98799 0.0
Cd298 Cd 0.59849 0.72529 0.00237 0.0
O299 O 0.61128 0.72407 0.98094 0.0
Cd300 Cd 0.6208 0.72937 0.96821 0.0
O301 O 0.62686 0.73668 0.95478 0.0
C302 C 0.62053 0.73745 0.94722 0.0
O303 O 0.61086 0.73357 0.94775 0.0
C304 C 0.60584 0.71632 0.98063 0.0
C305 C 0.60366 0.716 0.02044 0.0
O306 O 0.59393 0.71615 0.01708 0.0
O307 O 0.61095 0.7203 0.01527 0.0
O308 O 0.01334 0.12503 0.77734 0.0
Cd309 Cd 0.00153 0.12641 0.76255 0.0
O310 O 0.01133 0.10937 0.77856 0.0
Cd311 Cd -0.00337 0.10978 0.76938 0.0
O312 O 0.97914 0.11138 0.77089 0.0
C313 C 0.97637 0.11489 0.77938 0.0
O314 O 0.98399 0.11733 0.78585 0.0
C315 C 0.01605 0.11706 0.78134 0.0
C316 C 0.01466 0.12676 0.74541 0.0
O317 O 0.01196 0.13456 0.74992 0.0
O318 O 0.0109 0.11882 0.74884 0.0
O319 O 0.87729 0.26536 0.45633 0.0
Cd320 Cd 0.87555 0.24902 0.46279 0.0
O321 O 0.88476 0.26974 0.47067 0.0
Cd322 Cd 0.89033 0.28039 0.48164 0.0
O323 O 0.89145 0.28997 0.49466 0.0
C324 C 0.88939 0.29888 0.49377 0.0
O325 O 0.887 0.30235 0.48477 0.0
C326 C 0.88147 0.27187 0.46182 0.0
C327 C 0.86928 0.23657 0.44734 0.0
O328 O 0.86222 0.24086 0.4528 0.0
O329 O 0.87929 0.23811 0.44926 0.0
O330 O 0.53205 0.87397 0.7524 0.0
Cd331 Cd 0.51543 0.87832 0.74345 0.0
O332 O 0.53006 0.85835 0.75061 0.0
Cd333 Cd 0.5131 0.86073 0.74677 0.0
O334 O 0.49814 0.86683 0.75273 0.0
C335 C 0.49955 0.87132 0.76103 0.0
O336 O 0.50938 0.87183 0.7648 0.0
C337 C 0.53578 0.86548 0.75337 0.0
C338 C 0.51977 0.87812 0.72276 0.0
O339 O 0.52155 0.88563 0.72815 0.0
O340 O 0.51563 0.87076 0.7271 0.0
O341 O 0.97534 0.12511 0.25046 0.0
Cd342 Cd 0.99175 0.12321 0.2404 0.0
O343 O 0.96524 0.11665 0.24001 0.0
Cd344 Cd 0.97737 0.11471 0.22826 0.0
O345 O 0.97881 0.11352 0.21185 0.0
C346 C 0.97607 0.12087 0.20674 0.0
O347 O 0.97362 0.12883 0.2116 0.0
C348 C 0.96627 0.1214 0.24818 0.0
C349 C 0.00983 0.12465 0.25299 0.0
O350 O 0.00584 0.1321 0.24865 0.0
O351 O 0.00537 0.1165 0.25125 0.0
O352 O 0.53675 0.12867 0.73249 0.0
Cd353 Cd 0.52093 0.12139 0.74043 0.0
O354 O 0.5278 0.1405 0.72525 0.0
Cd355 Cd 0.51224 0.13421 0.72916 0.0
O356 O 0.49929 0.12582 0.72228 0.0
C357 C 0.50252 0.11972 0.71578 0.0
O358 O 0.51298 0.11864 0.71446 0.0
C359 C 0.5367 0.1363 0.72719 0.0
C360 C 0.52545 0.11796 0.76079 0.0
O361 O 0.52795 0.11181 0.75395 0.0
O362 O 0.52059 0.12567 0.75801 0.0
O363 O 0.11747 0.26136 0.95643 0.0
Cd364 Cd 0.1152 0.25325 0.97273 0.0
O365 O 0.13484 0.26382 0.95887 0.0
Cd366 Cd 0.13322 0.26083 0.97502 0.0
O367 O 0.12783 0.26679 0.98947 0.0
C368 C 0.12206 0.2743 0.9885 0.0
O369 O 0.11979 0.27737 0.97932 0.0
C370 C 0.12658 0.26418 0.95311 0.0
C371 C 0.11677 0.23342 0.96985 0.0
O372 O 0.10758 0.23767 0.96972 0.0
O373 O 0.12521 0.23852 0.97154 0.0
O374 O 0.35655 0.73221 0.44976 0.0
Cd375 Cd 0.35992 0.74327 0.46384 0.0
O376 O 0.34894 0.72157 0.45978 0.0
Cd377 Cd 0.35231 0.7287 0.47418 0.0
O378 O 0.3555 0.72616 0.49022 0.0
C379 C 0.36502 0.72395 0.49303 0.0
O380 O 0.37284 0.72415 0.48632 0.0
C381 C 0.35174 0.72422 0.45095 0.0
C382 C 0.36021 0.76231 0.45718 0.0
O383 O 0.36893 0.75733 0.45767 0.0
O384 O 0.35137 0.75829 0.45991 0.0
O385 O 0.76498 0.52475 0.87024 0.0
Cd386 Cd 0.75203 0.51169 0.87271 0.0
O387 O 0.76492 0.52895 0.8863 0.0
Cd388 Cd 0.74994 0.52109 0.88887 0.0
O389 O 0.73248 0.52299 0.88751 0.0
C390 C 0.72904 0.5258 0.87892 0.0
O391 O 0.73594 0.52659 0.87143 0.0
C392 C 0.7688 0.52981 0.87744 0.0
C393 C 0.76327 0.49454 0.8757 0.0
O394 O 0.76042 0.49725 0.8668 0.0
O395 O 0.76063 0.49987 0.88322 0.0
O396 O 0.72083 0.50651 0.11772 0.0
Cd397 Cd 0.72939 0.491 0.11448 0.0
O398 O 0.73265 0.51234 0.10713 0.0
Cd399 Cd 0.74215 0.52356 0.09985 0.0
O400 O 0.75718 0.53121 0.09699 0.0
C401 C 0.76261 0.5335 0.10481 0.0
O402 O 0.75859 0.53157 0.11378 0.0
C403 C 0.72476 0.5137 0.1131 0.0
C404 C 0.71421 0.4769 0.1099 0.0
O405 O 0.71728 0.4784 0.11905 0.0
O406 O 0.71836 0.48207 0.10288 0.0
O407 O 0.73235 0.46304 0.39229 0.0
Cd408 Cd 0.74415 0.47697 0.39464 0.0
O409 O 0.7303 0.46589 0.37601 0.0
Cd410 Cd 0.7369 0.48038 0.37733 0.0
O411 O 0.73462 0.49582 0.37943 0.0
C412 C 0.73073 0.49875 0.38778 0.0
O413 O 0.72897 0.49248 0.39503 0.0
C414 C 0.72871 0.46052 0.38366 0.0
C415 C 0.76562 0.47152 0.39182 0.0
O416 O 0.76139 0.47159 0.40067 0.0
O417 O 0.75973 0.47418 0.38432 0.0
O418 O 0.75634 0.48109 0.62303 0.0
Cd419 Cd 0.7415 0.4926 0.62115 0.0
O420 O 0.75938 0.48041 0.60664 0.0
Cd421 Cd 0.7438 0.48709 0.60329 0.0
O422 O 0.7263 0.48569 0.6018 0.0
C423 C 0.72311 0.47884 0.59617 0.0
O424 O 0.73038 0.4737 0.59135 0.0
C425 C 0.76207 0.47818 0.61565 0.0
C426 C 0.75013 0.51104 0.61911 0.0
O427 O 0.74774 0.50763 0.62784 0.0
O428 O 0.74823 0.5058 0.61132 0.0
O429 O 0.47662 0.11395 0.21089 0.0
Cd430 Cd 0.48992 0.11515 0.22456 0.0
O431 O 0.47326 0.12948 0.2107 0.0
Cd432 Cd 0.48258 0.13239 0.22443 0.0
O433 O 0.48301 0.13628 0.24044 0.0
C434 C 0.48205 0.12973 0.24709 0.0
O435 O 0.4817 0.12071 0.24416 0.0
C436 C 0.47173 0.12113 0.20705 0.0
C437 C 0.51081 0.11634 0.21681 0.0
O438 O 0.50642 0.10818 0.21864 0.0
O439 O 0.50533 0.12395 0.21872 0.0
O440 O 0.98832 0.86187 0.71837 0.0
Cd441 Cd 0.97928 0.86009 0.73472 0.0
O442 O 0.99157 0.87727 0.72067 0.0
Cd443 Cd 0.97882 0.8778 0.73201 0.0
O444 O 0.96145 0.8758 0.73392 0.0
C445 C 0.9552 0.88256 0.73111 0.0
O446 O 0.95948 0.89072 0.72813 0.0
C447 C 0.99292 0.8696 0.71557 0.0
C448 C -0.00529 0.86052 0.75024 0.0
O449 O 0.99189 0.85257 0.74609 0.0
O450 O 0.99009 0.86825 0.74717 0.0
O451 O 0.47407 0.86105 0.26539 0.0
Cd452 Cd 0.48661 0.85706 0.25182 0.0
O453 O 0.47392 0.87641 0.26138 0.0
Cd454 Cd 0.48929 0.87511 0.25332 0.0
O455 O 0.50698 0.87551 0.25415 0.0
C456 C 0.5128 0.86804 0.25309 0.0
O457 O 0.50816 0.85987 0.25065 0.0
C458 C 0.4701 0.86943 0.26646 0.0
C459 C 0.47522 0.85592 0.23357 0.0
O460 O 0.47658 0.84848 0.23917 0.0
O461 O 0.47943 0.86386 0.23652 0.0
O462 O 0.89719 0.72161 0.01229 0.0
Cd463 Cd 0.89254 0.73552 0.00188 0.0
O464 O 0.90573 0.71385 0.0002 0.0
Cd465 Cd 0.90095 0.724 0.98841 0.0
O466 O 0.89234 0.72556 0.97406 0.0
C467 C 0.88359 0.72081 0.97349 0.0
O468 O 0.88029 0.71614 0.98156 0.0
C469 C 0.90265 0.71439 0.00936 0.0
C470 C 0.88591 0.75052 0.01444 0.0
O471 O 0.87908 0.74448 0.01087 0.0
O472 O 0.89585 0.74957 0.01192 0.0
O473 O 0.60108 0.28108 0.51297 0.0
Cd474 Cd 0.60176 0.26684 0.50223 0.0
O475 O 0.58345 0.28267 0.51166 0.0
Cd476 Cd 0.58292 0.27363 0.49811 0.0
O477 O 0.58328 0.27395 0.48155 0.0
C478 C 0.59179 0.27186 0.47665 0.0
O479 O 0.60027 0.26862 0.48161 0.0
C480 C 0.59237 0.28516 0.5157 0.0
C481 C 0.60606 0.25101 0.51453 0.0
O482 O 0.61375 0.25575 0.51041 0.0
O483 O 0.59632 0.25362 0.51263 0.0
O484 O 0.19794 0.48878 0.06186 0.0
Cd485 Cd 0.21109 0.50116 0.05744 0.0
O486 O 0.20822 0.48535 0.07488 0.0
Cd487 Cd 0.21434 0.47686 0.08761 0.0
O488 O 0.22427 0.46857 0.09816 0.0
C489 C 0.23389 0.46684 0.09537 0.0
O490 O 0.23712 0.4701 0.08654 0.0
C491 C 0.19976 0.48367 0.06966 0.0
C492 C 0.20544 0.51916 0.06502 0.0
O493 O 0.20239 0.51647 0.05617 0.0
O494 O 0.21115 0.51331 0.0703 0.0
O495 O 0.27214 0.49535 0.90444 0.0
Cd496 Cd 0.25805 0.50757 0.90607 0.0
O497 O 0.26099 0.48712 0.89488 0.0
Cd498 Cd 0.25557 0.47439 0.88656 0.0
O499 O 0.24762 0.46186 0.87992 0.0
C500 C 0.2386 0.46301 0.87544 0.0
O501 O 0.23453 0.47172 0.87477 0.0
C502 C 0.27021 0.48796 0.89909 0.0
C503 C 0.265 0.52532 0.89878 0.0
O504 O 0.26628 0.52301 0.90812 0.0
O505 O 0.26039 0.51923 0.8929 0.0
O506 O 0.28836 0.50143 0.55495 0.0
Cd507 Cd 0.27591 0.48814 0.55175 0.0
O508 O 0.27805 0.50554 0.56768 0.0
Cd509 Cd 0.2722 0.51539 0.57935 0.0
O510 O 0.26403 0.52639 0.58829 0.0
C511 C 0.25898 0.53286 0.5834 0.0
O512 O 0.25912 0.53261 0.57345 0.0
C513 C 0.28634 0.50709 0.56226 0.0
C514 C 0.28263 0.47111 0.56094 0.0
O515 O 0.28551 0.47322 0.55189 0.0
O516 O 0.27659 0.4771 0.56567 0.0
O517 O 0.21017 0.51365 0.39023 0.0
Cd518 Cd 0.22594 0.50323 0.38828 0.0
O519 O 0.20764 0.51031 0.40633 0.0
Cd520 Cd 0.21873 0.49812 0.40552 0.0
O521 O 0.22198 0.48297 0.40241 0.0
C522 C 0.21855 0.47678 0.4087 0.0
O523 O 0.21393 0.47978 0.41707 0.0
C524 C 0.20515 0.51514 0.39848 0.0
C525 C 0.24346 0.51443 0.38223 0.0
O526 O 0.23728 0.5104 0.37568 0.0
O527 O 0.24149 0.513 0.39163 0.0
C528 C 0.09872 0.34376 0.07507 0.0
C529 C 0.10486 0.34362 0.06613 0.0
C530 C 0.11135 0.35161 0.06373 0.0
C531 C 0.10559 0.35969 0.07904 0.0
C532 C 0.09913 0.3519 0.08135 0.0
C533 C 0.09276 0.35348 0.09091 0.0
H534 H 0.08035 0.38243 0.13055 0.0
C535 C 0.10418 0.367 0.08705 0.0
C536 C 0.0966 0.36345 0.094 0.0
H537 H 0.06708 0.35442 0.12359 0.0
H538 H 0.07843 0.35337 0.10876 0.0
H539 H 0.10466 0.37719 0.12563 0.0
H540 H 0.07961 0.39046 0.10777 0.0
H541 H 0.09162 0.39676 0.10535 0.0
H542 H 0.08626 0.39654 0.11804 0.0
H543 H 0.10045 0.3894 0.12762 0.0
H544 H 0.11083 0.38636 0.1186 0.0
C545 C 0.09617 0.34573 0.0987 0.0
C546 C 0.08057 0.35338 0.08815 0.0
C547 C 0.1262 0.39783 0.08601 0.0
C548 C 0.12677 0.4059 0.09243 0.0
C549 C 0.12007 0.40624 0.10104 0.0
C550 C 0.11298 0.39868 0.10325 0.0
C551 C 0.11255 0.39065 0.09679 0.0
C552 C 0.11908 0.39033 0.08833 0.0
C553 C 0.1175 0.38126 0.0823 0.0
C554 C 0.10903 0.37613 0.08861 0.0
C555 C 0.10616 0.38167 0.09707 0.0
C556 C 0.12838 0.37573 0.0822 0.0
C557 C 0.11313 0.38403 0.07167 0.0
C558 C 0.07976 0.37611 0.12578 0.0
C559 C 0.07274 0.36852 0.12823 0.0
C560 C 0.07246 0.36034 0.12192 0.0
C561 C 0.07902 0.35977 0.11327 0.0
C562 C 0.08595 0.36746 0.11091 0.0
C563 C 0.08622 0.37544 0.11714 0.0
C564 C 0.09408 0.38292 0.11353 0.0
C565 C 0.09841 0.37816 0.10404 0.0
C566 C 0.09364 0.3691 0.10253 0.0
C567 C 0.10296 0.38414 0.12175 0.0
C568 C 0.08765 0.39221 0.11109 0.0
H569 H 0.1169 0.36545 0.06789 0.0
H570 H 0.09355 0.33776 0.07702 0.0
H571 H 0.07917 0.35654 0.08051 0.0
H572 H 0.07563 0.35781 0.09331 0.0
H573 H 0.07735 0.34593 0.08804 0.0
H574 H 0.10505 0.34445 0.09838 0.0
H575 H 0.09208 0.33878 0.09712 0.0
H576 H 0.09454 0.34785 0.1066 0.0
H577 H 0.13112 0.39739 0.07925 0.0
H578 H 0.12043 0.41231 0.10618 0.0
H579 H 0.10815 0.39937 0.10994 0.0
H580 H 0.13244 0.37619 0.08972 0.0
H581 H 0.13397 0.37879 0.07648 0.0
H582 H 0.12743 0.36796 0.08074 0.0
H583 H 0.10824 0.39075 0.07198 0.0
H584 H 0.10756 0.37859 0.06849 0.0
H585 H 0.11983 0.38527 0.06625 0.0
H586 H 0.11619 0.35162 0.05691 0.0
C587 C 0.11177 0.35962 0.07014 0.0
C588 C 0.86893 0.85059 0.41547 0.0
C589 C 0.87578 0.84251 0.41519 0.0
C590 C 0.88403 0.84214 0.40785 0.0
C591 C 0.87837 0.85761 0.40118 0.0
C592 C 0.87037 0.85801 0.40845 0.0
C593 C 0.86375 0.86706 0.40773 0.0
H594 H 0.85275 0.90889 0.38364 0.0
C595 C 0.87758 0.86643 0.39495 0.0
C596 C 0.86903 0.872 0.39878 0.0
H597 H 0.837 0.89712 0.41008 0.0
H598 H 0.84892 0.8834 0.40969 0.0
H599 H 0.8769 0.90418 0.39115 0.0
H600 H 0.85465 0.88936 0.37152 0.0
H601 H 0.86749 0.88816 0.36607 0.0
H602 H 0.86173 0.89999 0.36764 0.0
H603 H 0.87388 0.90825 0.37855 0.0
H604 H 0.88449 0.89963 0.381 0.0
C605 C 0.86531 0.87282 0.41768 0.0
C606 C 0.8519 0.86419 0.40543 0.0
C607 C 0.903 0.87143 0.36518 0.0
C608 C 0.90391 0.87876 0.35788 0.0
C609 C 0.89684 0.88671 0.35842 0.0
C610 C 0.88903 0.88735 0.36602 0.0
C611 C 0.88818 0.87995 0.37321 0.0
C612 C 0.8951 0.87216 0.37273 0.0
C613 C 0.89289 0.86494 0.38095 0.0
C614 C 0.88351 0.86969 0.38642 0.0
C615 C 0.8808 0.87848 0.38184 0.0
C616 C 0.90307 0.86421 0.38777 0.0
C617 C 0.88952 0.85535 0.37586 0.0
C618 C 0.85192 0.90342 0.38942 0.0
C619 C 0.84387 0.90412 0.39688 0.0
C620 C 0.84301 0.89672 0.40415 0.0
C621 C 0.84999 0.88877 0.40395 0.0
C622 C 0.85795 0.88818 0.3964 0.0
C623 C 0.85884 0.89545 0.38934 0.0
C624 C 0.86781 0.89366 0.38192 0.0
C625 C 0.87217 0.88411 0.3857 0.0
C626 C 0.86635 0.8809 0.39415 0.0
C627 C 0.87622 0.90185 0.3831 0.0
C628 C 0.86276 0.8928 0.37119 0.0
H629 H 0.89174 0.84891 0.39543 0.0
H630 H 0.86263 0.85118 0.42111 0.0
H631 H 0.85159 0.85798 0.4001 0.0
H632 H 0.84725 0.86993 0.40163 0.0
H633 H 0.84761 0.86205 0.41245 0.0
H634 H 0.87363 0.87186 0.42076 0.0
H635 H 0.85955 0.87042 0.42359 0.0
H636 H 0.86446 0.88067 0.4166 0.0
H637 H 0.90834 0.86525 0.36505 0.0
H638 H 0.89719 0.89238 0.35281 0.0
H639 H 0.88389 0.89356 0.36595 0.0
H640 H 0.90699 0.87136 0.38865 0.0
H641 H 0.90913 0.85923 0.38446 0.0
H642 H 0.90122 0.86189 0.39557 0.0
H643 H 0.88457 0.85671 0.36895 0.0
H644 H 0.88435 0.85084 0.38072 0.0
H645 H 0.89671 0.85112 0.37354 0.0
H646 H 0.88935 0.83598 0.40741 0.0
C647 C 0.88536 0.84964 0.40086 0.0
C648 C 0.3756 0.64672 0.5692 0.0
C649 C 0.38227 0.65481 0.57055 0.0
C650 C 0.39081 0.65435 0.57762 0.0
C651 C 0.38588 0.63798 0.5819 0.0
C652 C 0.37758 0.63841 0.57489 0.0
C653 C 0.37143 0.62911 0.57416 0.0
H654 H 0.36358 0.5836 0.59068 0.0
C655 C 0.38575 0.6283 0.58652 0.0
C656 C 0.37734 0.62305 0.58197 0.0
H657 H 0.34631 0.59871 0.56698 0.0
H658 H 0.35746 0.61268 0.56962 0.0
H659 H 0.38715 0.59042 0.58377 0.0
H660 H 0.36503 0.6013 0.6061 0.0
H661 H 0.37804 0.60175 0.61145 0.0
H662 H 0.37241 0.5903 0.6078 0.0
H663 H 0.38486 0.58439 0.59558 0.0
H664 H 0.39489 0.59373 0.59438 0.0
C665 C 0.37278 0.62507 0.56329 0.0
C666 C 0.35957 0.6311 0.57726 0.0
C667 C 0.41204 0.6202 0.61494 0.0
C668 C 0.4135 0.61198 0.62101 0.0
C669 C 0.40717 0.60376 0.61904 0.0
C670 C 0.39937 0.60378 0.61132 0.0
C671 C 0.39782 0.61212 0.6055 0.0
C672 C 0.40418 0.62012 0.60728 0.0
C673 C 0.40134 0.62836 0.60039 0.0
C674 C 0.39216 0.62403 0.59425 0.0
C675 C 0.39012 0.61452 0.59729 0.0
C676 C 0.41132 0.6306 0.59373 0.0
C677 C 0.39748 0.63688 0.60704 0.0
C678 C 0.36226 0.58988 0.58598 0.0
C679 C 0.35399 0.59002 0.57863 0.0
C680 C 0.35248 0.59843 0.57281 0.0
C681 C 0.35903 0.60653 0.57431 0.0
C682 C 0.36722 0.60627 0.5817 0.0
C683 C 0.36875 0.59802 0.58736 0.0
C684 C 0.3779 0.59901 0.59482 0.0
C685 C 0.38164 0.6092 0.59268 0.0
C686 C 0.37531 0.61343 0.58503 0.0
C687 C 0.38667 0.59148 0.59211 0.0
C688 C 0.3732 0.59798 0.60563 0.0
H689 H 0.39924 0.64611 0.5886 0.0
H690 H 0.36909 0.64679 0.56369 0.0
H691 H 0.35924 0.63622 0.58374 0.0
H692 H 0.35531 0.62461 0.57993 0.0
H693 H 0.35492 0.63432 0.57089 0.0
H694 H 0.38078 0.62705 0.56009 0.0
H695 H 0.36647 0.62794 0.55811 0.0
H696 H 0.37262 0.61713 0.56303 0.0
H697 H 0.41668 0.62667 0.61632 0.0
H698 H 0.40823 0.59729 0.62351 0.0
H699 H 0.39477 0.59732 0.61027 0.0
H700 H 0.41597 0.62395 0.59204 0.0
H701 H 0.41688 0.63569 0.59761 0.0
H702 H 0.40911 0.63353 0.58622 0.0
H703 H 0.39253 0.63425 0.61349 0.0
H704 H 0.39218 0.64195 0.60293 0.0
H705 H 0.40446 0.6409 0.61023 0.0
H706 H 0.39603 0.66051 0.57881 0.0
C707 C 0.39264 0.646 0.58331 0.0
C708 C 0.60013 0.13606 0.91248 0.0
C709 C 0.60632 0.13626 0.92143 0.0
C710 C 0.61263 0.12817 0.92401 0.0
C711 C 0.60667 0.11996 0.9088 0.0
C712 C 0.60036 0.12784 0.90635 0.0
C713 C 0.59402 0.12632 0.89674 0.0
H714 H 0.5804 0.09738 0.85751 0.0
C715 C 0.60511 0.11262 0.90083 0.0
C716 C 0.59763 0.11626 0.89379 0.0
H717 H 0.56955 0.12645 0.86345 0.0
H718 H 0.58031 0.12691 0.87865 0.0
H719 H 0.60468 0.1018 0.8619 0.0
H720 H 0.58001 0.08964 0.88084 0.0
H721 H 0.59185 0.08278 0.88245 0.0
H722 H 0.58563 0.0835 0.87011 0.0
H723 H 0.60063 0.08947 0.86075 0.0
H724 H 0.61112 0.09316 0.86947 0.0
C725 C 0.59769 0.13395 0.88892 0.0
C726 C 0.58183 0.12669 0.89937 0.0
C727 C 0.62696 0.08165 0.90181 0.0
C728 C 0.62758 0.07367 0.89528 0.0
C729 C 0.62065 0.0733 0.88678 0.0
C730 C 0.61337 0.08079 0.88474 0.0
C731 C 0.61301 0.08879 0.89123 0.0
C732 C 0.61969 0.0891 0.89964 0.0
C733 C 0.61825 0.0982 0.90566 0.0
C734 C 0.60976 0.10338 0.89936 0.0
C735 C 0.60671 0.09782 0.89094 0.0
C736 C 0.62917 0.10365 0.90574 0.0
C737 C 0.61397 0.09548 0.9163 0.0
C738 C 0.58036 0.10388 0.86203 0.0
C739 C 0.574 0.11186 0.85923 0.0
C740 C 0.57416 0.12011 0.86548 0.0
C741 C 0.58051 0.1204 0.87428 0.0
C742 C 0.58688 0.11241 0.87689 0.0
C743 C 0.58676 0.10434 0.87078 0.0
C744 C 0.5944 0.09668 0.87448 0.0
C745 C 0.59899 0.10142 0.88392 0.0
C746 C 0.59452 0.11061 0.88531 0.0
C747 C 0.60315 0.09509 0.86625 0.0
C748 C 0.58771 0.08761 0.87707 0.0
H749 H 0.61787 0.11415 0.9201 0.0
H750 H 0.59508 0.14211 0.91038 0.0
H751 H 0.5803 0.12333 0.90688 0.0
H752 H 0.57675 0.12259 0.89401 0.0
H753 H 0.57888 0.13422 0.89971 0.0
H754 H 0.60646 0.13555 0.88978 0.0
H755 H 0.59321 0.14081 0.88993 0.0
H756 H 0.59678 0.13151 0.881 0.0
H757 H 0.63203 0.08212 0.9085 0.0
H758 H 0.62101 0.06731 0.88154 0.0
H759 H 0.60838 0.0801 0.87812 0.0
H760 H 0.63312 0.10321 0.8982 0.0
H761 H 0.63482 0.10051 0.91141 0.0
H762 H 0.6283 0.11141 0.90728 0.0
H763 H 0.60891 0.08887 0.91597 0.0
H764 H 0.60858 0.10103 0.91952 0.0
H765 H 0.62072 0.09408 0.92167 0.0
H766 H 0.61752 0.12819 0.93084 0.0
C767 C 0.61286 0.12005 0.91774 0.0
C768 C 0.07608 0.63469 0.41882 0.0
C769 C 0.0829 0.63535 0.42733 0.0
C770 C 0.09017 0.62779 0.4294 0.0
C771 C 0.08426 0.61941 0.41429 0.0
C772 C 0.07684 0.62665 0.41246 0.0
C773 C 0.07023 0.6248 0.40308 0.0
H774 H 0.06166 0.59815 0.36096 0.0
C775 C 0.08339 0.61232 0.40599 0.0
C776 C 0.07508 0.61537 0.39946 0.0
H777 H 0.04419 0.62345 0.37071 0.0
H778 H 0.05489 0.62405 0.38603 0.0
H779 H 0.08467 0.6054 0.36712 0.0
H780 H 0.06174 0.58769 0.38286 0.0
H781 H 0.07458 0.5828 0.3853 0.0
H782 H 0.06959 0.58329 0.37244 0.0
H783 H 0.08206 0.59315 0.36361 0.0
H784 H 0.09207 0.5962 0.37302 0.0
C785 C 0.07232 0.63311 0.39553 0.0
C786 C 0.05824 0.62364 0.40623 0.0
C787 C 0.1107 0.58506 0.40354 0.0
C788 C 0.11243 0.57784 0.39626 0.0
C789 C 0.10512 0.57697 0.38809 0.0
C790 C 0.09641 0.58333 0.38703 0.0
C791 C 0.09499 0.59071 0.39418 0.0
C792 C 0.10198 0.59141 0.40234 0.0
C793 C 0.09924 0.59974 0.40914 0.0
C794 C 0.08953 0.60399 0.40363 0.0
C795 C 0.08714 0.59869 0.39486 0.0
C796 C 0.10901 0.60671 0.40921 0.0
C797 C 0.09616 0.59573 0.41969 0.0
C798 C 0.05998 0.60372 0.36646 0.0
C799 C 0.05207 0.61078 0.36458 0.0
C800 C 0.05033 0.61801 0.3719 0.0
C801 C 0.05653 0.61832 0.38081 0.0
C802 C 0.0646 0.61136 0.38243 0.0
C803 C 0.06609 0.60414 0.37538 0.0
C804 C 0.07502 0.59736 0.37832 0.0
C805 C 0.07867 0.6017 0.3883 0.0
C806 C 0.07261 0.60994 0.39063 0.0
C807 C 0.08393 0.59795 0.37011 0.0
C808 C 0.07008 0.58721 0.37976 0.0
H809 H 0.09669 0.61439 0.42485 0.0
H810 H 0.0703 0.64033 0.41712 0.0
H811 H 0.05758 0.62047 0.41394 0.0
H812 H 0.05376 0.61861 0.40127 0.0
H813 H 0.05401 0.63069 0.40633 0.0
H814 H 0.08103 0.63509 0.3955 0.0
H815 H 0.06764 0.63962 0.39764 0.0
H816 H 0.07039 0.63121 0.38762 0.0
H817 H 0.1162 0.58596 0.40987 0.0
H818 H 0.10615 0.57137 0.38248 0.0
H819 H 0.09121 0.58233 0.3806 0.0
H820 H 0.11249 0.60739 0.40149 0.0
H821 H 0.1155 0.60405 0.41433 0.0
H822 H 0.10687 0.6141 0.41146 0.0
H823 H 0.09242 0.58848 0.41905 0.0
H824 H 0.08999 0.60016 0.42355 0.0
H825 H 0.10338 0.59505 0.42467 0.0
H826 H 0.09555 0.62817 0.43589 0.0
C827 C 0.09088 0.61983 0.42294 0.0
C828 C 0.59469 0.84913 0.57075 0.0
C829 C 0.60024 0.84944 0.56149 0.0
C830 C 0.60612 0.85775 0.55892 0.0
C831 C 0.60091 0.86528 0.5747 0.0
C832 C 0.59502 0.85716 0.57717 0.0
C833 C 0.58913 0.85832 0.58706 0.0
H834 H 0.5758 0.88683 0.62673 0.0
C835 C 0.59951 0.8724 0.58288 0.0
C836 C 0.59251 0.86843 0.5901 0.0
H837 H 0.56603 0.85737 0.62135 0.0
H838 H 0.57638 0.85711 0.6059 0.0
H839 H 0.60005 0.88301 0.62209 0.0
H840 H 0.57442 0.89444 0.6036 0.0
H841 H 0.58595 0.90164 0.60174 0.0
H842 H 0.58017 0.90073 0.61421 0.0
H843 H 0.59579 0.89529 0.62313 0.0
H844 H 0.60608 0.89163 0.61426 0.0
C845 C 0.59347 0.85066 0.59456 0.0
C846 C 0.57685 0.85763 0.5849 0.0
C847 C 0.6204 0.90383 0.58183 0.0
C848 C 0.62098 0.91175 0.58845 0.0
C849 C 0.61429 0.9119 0.59707 0.0
C850 C 0.6073 0.90423 0.59916 0.0
C851 C 0.607 0.89628 0.59259 0.0
C852 C 0.61341 0.89621 0.58405 0.0
C853 C 0.61198 0.88719 0.5779 0.0
C854 C 0.6039 0.88173 0.58434 0.0
C855 C 0.601 0.8871 0.59291 0.0
C856 C 0.62304 0.88197 0.57742 0.0
C857 C 0.6072 0.88999 0.56743 0.0
C858 C 0.57592 0.88026 0.62232 0.0
C859 C 0.57 0.87212 0.62533 0.0
C860 C 0.57033 0.86382 0.61917 0.0
C861 C 0.57642 0.86365 0.61022 0.0
C862 C 0.58233 0.87185 0.6074 0.0
C863 C 0.58208 0.87993 0.61347 0.0
C864 C 0.58929 0.8878 0.60963 0.0
C865 C 0.59372 0.88321 0.6001 0.0
C866 C 0.58957 0.87389 0.59876 0.0
C867 C 0.59825 0.88963 0.61767 0.0
C868 C 0.58217 0.89668 0.60721 0.0
H869 H 0.61116 0.87174 0.5631 0.0
H870 H 0.59001 0.84286 0.57284 0.0
H871 H 0.57476 0.8613 0.57766 0.0
H872 H 0.57188 0.86125 0.59068 0.0
H873 H 0.57423 0.85002 0.58425 0.0
H874 H 0.60228 0.84945 0.59345 0.0
H875 H 0.58932 0.84366 0.59345 0.0
H876 H 0.5927 0.85287 0.60256 0.0
H877 H 0.62529 0.90355 0.57504 0.0
H878 H 0.61463 0.91786 0.60235 0.0
H879 H 0.60249 0.90476 0.60588 0.0
H880 H 0.62715 0.88218 0.58493 0.0
H881 H 0.62846 0.88546 0.57183 0.0
H882 H 0.62234 0.87427 0.57551 0.0
H883 H 0.60247 0.89679 0.56786 0.0
H884 H 0.60137 0.88461 0.56452 0.0
H885 H 0.61368 0.89107 0.56174 0.0
H886 H 0.6105 0.8581 0.55183 0.0
C887 C 0.60651 0.86565 0.56548 0.0
C888 C 0.40134 0.38564 0.85578 0.0
C889 C 0.40783 0.37769 0.85318 0.0
C890 C 0.40748 0.36943 0.85939 0.0
C891 C 0.39426 0.37705 0.87032 0.0
C892 C 0.39459 0.38512 0.86424 0.0
C893 C 0.38673 0.39273 0.86756 0.0
H894 H 0.34738 0.40721 0.89955 0.0
C895 C 0.38623 0.37881 0.87839 0.0
C896 C 0.38174 0.38797 0.87675 0.0
H897 H 0.35964 0.42198 0.87318 0.0
H898 H 0.37244 0.40918 0.87034 0.0
H899 H 0.34668 0.38657 0.88954 0.0
H900 H 0.37069 0.40036 0.90816 0.0
H901 H 0.37018 0.38829 0.912 0.0
H902 H 0.35832 0.39576 0.91327 0.0
H903 H 0.34484 0.38859 0.90285 0.0
H904 H 0.35144 0.37793 0.89816 0.0
C905 C 0.37836 0.39427 0.85891 0.0
C906 C 0.39322 0.40184 0.87048 0.0
C907 C 0.37949 0.35352 0.90553 0.0
C908 C 0.37263 0.35326 0.91401 0.0
C909 C 0.36599 0.36128 0.91604 0.0
C910 C 0.36615 0.36938 0.90976 0.0
C911 C 0.37299 0.36952 0.9013 0.0
C912 C 0.37956 0.36171 0.89932 0.0
C913 C 0.38636 0.3632 0.89001 0.0
C914 C 0.38276 0.37318 0.88675 0.0
C915 C 0.37489 0.37681 0.89338 0.0
C916 C 0.38323 0.35543 0.88211 0.0
C917 C 0.3984 0.36301 0.89325 0.0
C918 C 0.35291 0.40773 0.89324 0.0
C919 C 0.35249 0.4156 0.88657 0.0
C920 C 0.35973 0.41594 0.87835 0.0
C921 C 0.36717 0.4085 0.87673 0.0
C922 C 0.36734 0.40057 0.88333 0.0
C923 C 0.36033 0.4003 0.89145 0.0
C924 C 0.36149 0.39121 0.89752 0.0
C925 C 0.37026 0.38602 0.89164 0.0
C926 C 0.37368 0.39156 0.88337 0.0
C927 C 0.35057 0.38576 0.89711 0.0
C928 C 0.36529 0.39397 0.90834 0.0
H929 H 0.40085 0.36258 0.87231 0.0
H930 H 0.40145 0.39217 0.85133 0.0
H931 H 0.40072 0.39986 0.87468 0.0
H932 H 0.38876 0.40668 0.87561 0.0
H933 H 0.39565 0.40593 0.86363 0.0
H934 H 0.37726 0.38762 0.85433 0.0
H935 H 0.38096 0.40006 0.85368 0.0
H936 H 0.37017 0.39593 0.86176 0.0
H937 H 0.38477 0.34753 0.9038 0.0
H938 H 0.36052 0.36123 0.92242 0.0
H939 H 0.36085 0.3752 0.91171 0.0
H940 H 0.37448 0.35364 0.8826 0.0
H941 H 0.38786 0.34868 0.88336 0.0
H942 H 0.3844 0.35784 0.87422 0.0
H943 H 0.39955 0.36684 0.90058 0.0
H944 H 0.40375 0.36673 0.88786 0.0
H945 H 0.4013 0.35551 0.89427 0.0
H946 H 0.41221 0.36312 0.85754 0.0
C947 C 0.40079 0.36909 0.86795 0.0
C948 C 0.87973 0.14025 0.05889 0.0
C949 C 0.88632 0.14847 0.05934 0.0
C950 C 0.89419 0.14919 0.06705 0.0
C951 C 0.88899 0.13354 0.07351 0.0
C952 C 0.88116 0.13293 0.06605 0.0
C953 C 0.87467 0.12382 0.06675 0.0
H954 H 0.86444 0.08178 0.09068 0.0
C955 C 0.88841 0.12468 0.07967 0.0
C956 C 0.87999 0.11899 0.07579 0.0
H957 H 0.84787 0.09391 0.06477 0.0
H958 H 0.85987 0.10756 0.065 0.0
H959 H 0.88817 0.08659 0.08296 0.0
H960 H 0.86688 0.10173 0.10318 0.0
H961 H 0.87992 0.10198 0.10851 0.0
H962 H 0.87331 0.09059 0.1065 0.0
H963 H 0.88592 0.08266 0.09573 0.0
H964 H 0.89624 0.09135 0.0927 0.0
C965 C 0.87637 0.11802 0.05686 0.0
C966 C 0.86276 0.12659 0.06891 0.0
C967 C 0.91512 0.11951 0.10848 0.0
C968 C 0.91661 0.11203 0.11553 0.0
C969 C 0.90972 0.10396 0.11509 0.0
C970 C 0.90147 0.10338 0.10781 0.0
C971 C 0.90004 0.11094 0.10088 0.0
C972 C 0.90683 0.11881 0.10127 0.0
C973 C 0.90411 0.12618 0.09332 0.0
C974 C 0.89461 0.12139 0.08805 0.0
C975 C 0.89225 0.11247 0.09252 0.0
C976 C 0.91398 0.12719 0.08622 0.0
C977 C 0.90075 0.13561 0.09874 0.0
C978 C 0.86335 0.08742 0.08511 0.0
C979 C 0.85518 0.08677 0.07771 0.0
C980 C 0.85416 0.09419 0.07049 0.0
C981 C 0.8611 0.10214 0.07068 0.0
C982 C 0.8692 0.10271 0.07815 0.0
C983 C 0.87026 0.0954 0.08517 0.0
C984 C 0.87946 0.09715 0.09243 0.0
C985 C 0.88362 0.10678 0.08871 0.0
C986 C 0.87756 0.11001 0.08036 0.0
C987 C 0.8879 0.08902 0.091 0.0
C988 C 0.87474 0.09785 0.10326 0.0
H989 H 0.90176 0.14269 0.07975 0.0
H990 H 0.8735 0.13957 0.05314 0.0
H991 H 0.8623 0.13309 0.0738 0.0
H992 H 0.85834 0.121 0.07314 0.0
H993 H 0.85832 0.1282 0.06178 0.0
H994 H 0.88481 0.1188 0.05409 0.0
H995 H 0.87087 0.12058 0.05075 0.0
H996 H 0.87524 0.11021 0.05788 0.0
H997 H 0.92032 0.12577 0.10853 0.0
H998 H 0.91057 0.09817 0.12051 0.0
H999 H 0.89646 0.09708 0.10793 0.0
H1000 H 0.91774 0.12006 0.08476 0.0
H1001 H 0.92026 0.1319 0.08965 0.0
H1002 H 0.91185 0.13001 0.07866 0.0
H1003 H 0.89673 0.13408 0.10609 0.0
H1004 H 0.89472 0.1398 0.09439 0.0
H1005 H 0.90788 0.14022 0.10034 0.0
H1006 H 0.89938 0.15544 0.06752 0.0
C1007 C 0.89558 0.14176 0.07412 0.0
C1008 C 0.11392 0.15503 0.38629 0.0
C1009 C 0.12065 0.1556 0.39488 0.0
C1010 C 0.12898 0.14878 0.39613 0.0
C1011 C 0.12365 0.14089 0.38051 0.0
C1012 C 0.1156 0.14768 0.37921 0.0
C1013 C 0.10928 0.14612 0.36959 0.0
H1014 H 0.10009 0.11959 0.3274 0.0
C1015 C 0.12315 0.13416 0.37185 0.0
C1016 C 0.11481 0.13723 0.36538 0.0
H1017 H 0.08327 0.14517 0.33734 0.0
H1018 H 0.09499 0.14629 0.35191 0.0
H1019 H 0.12378 0.12708 0.33238 0.0
H1020 H 0.10171 0.10977 0.3497 0.0
H1021 H 0.11463 0.10457 0.35072 0.0
H1022 H 0.10826 0.10548 0.33846 0.0
H1023 H 0.1214 0.11465 0.32947 0.0
H1024 H 0.13152 0.11827 0.33859 0.0
C1025 C 0.11092 0.15501 0.36268 0.0
C1026 C 0.09736 0.14412 0.37248 0.0
C1027 C 0.14857 0.10548 0.37069 0.0
C1028 C 0.15027 0.0981 0.36356 0.0
C1029 C 0.14387 0.09796 0.35469 0.0
C1030 C 0.13594 0.10499 0.35297 0.0
C1031 C 0.13438 0.11231 0.36017 0.0
C1032 C 0.1407 0.1125 0.36881 0.0
C1033 C 0.13818 0.12098 0.37548 0.0
C1034 C 0.12919 0.12578 0.36947 0.0
C1035 C 0.12695 0.12064 0.36055 0.0
C1036 C 0.14842 0.12738 0.37618 0.0
C1037 C 0.13413 0.11711 0.38579 0.0
C1038 C 0.09888 0.12539 0.33276 0.0
C1039 C 0.09073 0.1323 0.3312 0.0
C1040 C 0.08957 0.13983 0.33828 0.0
C1041 C 0.09634 0.14043 0.34679 0.0
C1042 C 0.10438 0.13342 0.34828 0.0
C1043 C 0.10558 0.12609 0.3413 0.0
C1044 C 0.11459 0.11931 0.34412 0.0
C1045 C 0.11855 0.12376 0.35396 0.0
C1046 C 0.11253 0.13202 0.35636 0.0
C1047 C 0.12329 0.11974 0.33571 0.0
C1048 C 0.10964 0.10921 0.34579 0.0
H1049 H 0.13691 0.13641 0.39044 0.0
H1050 H 0.10754 0.16024 0.38507 0.0
H1051 H 0.09691 0.13972 0.3795 0.0
H1052 H 0.09297 0.1399 0.3667 0.0
H1053 H 0.09292 0.15093 0.37389 0.0
H1054 H 0.11917 0.15805 0.36365 0.0
H1055 H 0.10502 0.16078 0.36451 0.0
H1056 H 0.11032 0.15327 0.35453 0.0
H1057 H 0.15322 0.1058 0.37764 0.0
H1058 H 0.1451 0.0925 0.34895 0.0
H1059 H 0.13138 0.10449 0.34606 0.0
H1060 H 0.15337 0.12682 0.36918 0.0
H1061 H 0.15363 0.12523 0.38266 0.0
H1062 H 0.14648 0.13512 0.37682 0.0
H1063 H 0.12869 0.11083 0.38466 0.0
H1064 H 0.12927 0.1224 0.39004 0.0
H1065 H 0.141 0.11474 0.39062 0.0
H1066 H 0.13421 0.14903 0.40272 0.0
C1067 C 0.1305 0.14143 0.38901 0.0
C1068 C 0.10977 0.90197 0.58516 0.0
C1069 C 0.10942 0.91007 0.59154 0.0
C1070 C 0.10071 0.91109 0.59832 0.0
C1071 C 0.09354 0.8957 0.59303 0.0
C1072 C 0.10177 0.89489 0.58603 0.0
C1073 C 0.10118 0.8856 0.58021 0.0
H1074 H 0.07713 0.84241 0.57295 0.0
C1075 C 0.08706 0.8868 0.59263 0.0
C1076 C 0.09142 0.88087 0.58507 0.0
H1077 H 0.1049 0.8541 0.55735 0.0
H1078 H 0.10334 0.86877 0.56691 0.0
H1079 H 0.08508 0.84803 0.59397 0.0
H1080 H 0.06264 0.86244 0.57419 0.0
H1081 H 0.05712 0.8621 0.5865 0.0
H1082 H 0.06012 0.85101 0.58006 0.0
H1083 H 0.07112 0.8446 0.59339 0.0
H1084 H 0.07586 0.85384 0.60195 0.0
C1085 C 0.11173 0.87987 0.58224 0.0
C1086 C 0.09913 0.88803 0.56892 0.0
C1087 C 0.05801 0.88121 0.61901 0.0
C1088 C 0.05174 0.87313 0.62159 0.0
C1089 C 0.05215 0.86495 0.61525 0.0
C1090 C 0.05887 0.86474 0.60672 0.0
C1091 C 0.06541 0.87272 0.60455 0.0
C1092 C 0.06486 0.88079 0.61061 0.0
C1093 C 0.07283 0.88838 0.60753 0.0
C1094 C 0.07834 0.88349 0.59866 0.0
C1095 C 0.07391 0.87436 0.5969 0.0
C1096 C 0.0807 0.89005 0.61655 0.0
C1097 C 0.06644 0.89743 0.60416 0.0
C1098 C 0.08293 0.84808 0.57159 0.0
C1099 C 0.09115 0.84701 0.56432 0.0
C1100 C 0.09837 0.85472 0.56275 0.0
C1101 C 0.09752 0.86323 0.56839 0.0
C1102 C 0.08945 0.86405 0.5758 0.0
C1103 C 0.08231 0.85655 0.57728 0.0
C1104 C 0.07461 0.85846 0.58583 0.0
C1105 C 0.07812 0.86844 0.58908 0.0
C1106 C 0.08682 0.87169 0.58319 0.0
C1107 C 0.07666 0.85084 0.59422 0.0
C1108 C 0.06297 0.85846 0.5815 0.0
H1109 H 0.08646 0.90513 0.60448 0.0
H1110 H 0.11636 0.90096 0.57988 0.0
H1111 H 0.09367 0.89436 0.56817 0.0
H1112 H 0.09499 0.88219 0.56477 0.0
H1113 H 0.10681 0.88979 0.565 0.0
H1114 H 0.1145 0.88088 0.5902 0.0
H1115 H 0.11834 0.8823 0.57718 0.0
H1116 H 0.1107 0.87203 0.58139 0.0
H1117 H 0.05781 0.88769 0.62355 0.0
H1118 H 0.04756 0.85856 0.61705 0.0
H1119 H 0.0589 0.85827 0.6023 0.0
H1120 H 0.08231 0.88321 0.62066 0.0
H1121 H 0.07726 0.89523 0.62208 0.0
H1122 H 0.08875 0.89259 0.61421 0.0
H1123 H 0.0587 0.89539 0.60042 0.0
H1124 H 0.07078 0.90173 0.59843 0.0
H1125 H 0.06446 0.90208 0.61074 0.0
H1126 H 0.10012 0.91737 0.60316 0.0
C1127 C 0.09276 0.90398 0.59907 0.0
C1128 C 0.41019 0.89928 0.83403 0.0
C1129 C 0.41897 0.89295 0.83286 0.0
C1130 C 0.4209 0.88586 0.84025 0.0
C1131 C 0.40538 0.89131 0.84976 0.0
C1132 C 0.40358 0.8984 0.8426 0.0
C1133 C 0.39419 0.90477 0.84538 0.0
H1134 H 0.35326 0.91493 0.87769 0.0
C1135 C 0.39711 0.89229 0.85771 0.0
C1136 C 0.39059 0.90023 0.85528 0.0
H1137 H 0.36223 0.93037 0.85056 0.0
H1138 H 0.37697 0.91929 0.84779 0.0
H1139 H 0.35654 0.89391 0.86857 0.0
H1140 H 0.37733 0.91231 0.88616 0.0
H1141 H 0.37921 0.90056 0.89071 0.0
H1142 H 0.36605 0.90612 0.89163 0.0
H1143 H 0.35429 0.8963 0.88175 0.0
H1144 H 0.36299 0.88667 0.87765 0.0
C1145 C 0.38548 0.90381 0.83699 0.0
C1146 C 0.39849 0.91513 0.84694 0.0
C1147 C 0.3953 0.86749 0.88589 0.0
C1148 C 0.38847 0.86637 0.89429 0.0
C1149 C 0.38043 0.87334 0.89612 0.0
C1150 C 0.37907 0.88119 0.88959 0.0
C1151 C 0.38585 0.88212 0.88112 0.0
C1152 C 0.39388 0.87539 0.87946 0.0
C1153 C 0.40047 0.87765 0.87022 0.0
C1154 C 0.39491 0.88671 0.86647 0.0
C1155 C 0.38633 0.88927 0.87285 0.0
C1156 C 0.39917 0.8692 0.86266 0.0
C1157 C 0.41229 0.87959 0.87364 0.0
C1158 C 0.35848 0.91603 0.87122 0.0
C1159 C 0.35656 0.92358 0.86435 0.0
C1160 C 0.36344 0.92458 0.85592 0.0
C1161 C 0.37204 0.91816 0.85435 0.0
C1162 C 0.3738 0.91064 0.86128 0.0
C1163 C 0.36709 0.90971 0.86956 0.0
C1164 C 0.37011 0.90131 0.87614 0.0
C1165 C 0.37979 0.89736 0.87049 0.0
C1166 C 0.38191 0.90282 0.86176 0.0
C1167 C 0.36051 0.89415 0.87614 0.0
C1168 C 0.37328 0.90519 0.88676 0.0
H1169 H 0.41601 0.8794 0.85398 0.0
H1170 H 0.40863 0.90487 0.82851 0.0
H1171 H 0.40682 0.91505 0.85015 0.0
H1172 H 0.39369 0.91929 0.85245 0.0
H1173 H 0.39877 0.91911 0.83965 0.0
H1174 H 0.38472 0.8962 0.83448 0.0
H1175 H 0.38761 0.9082 0.83026 0.0
H1176 H 0.37733 0.90588 0.83957 0.0
H1177 H 0.40167 0.86234 0.88438 0.0
H1178 H 0.37502 0.8726 0.90251 0.0
H1179 H 0.37274 0.88619 0.89134 0.0
H1180 H 0.39063 0.86671 0.86241 0.0
H1181 H 0.40427 0.86298 0.86494 0.0
H1182 H 0.40114 0.87116 0.85479 0.0
H1183 H 0.41266 0.88222 0.8816 0.0
H1184 H 0.4162 0.88534 0.86917 0.0
H1185 H 0.41728 0.87295 0.87321 0.0
H1186 H 0.42759 0.88089 0.83944 0.0
C1187 C 0.41414 0.88499 0.84866 0.0
C1188 C 0.34383 0.13992 0.08376 0.0
C1189 C 0.35183 0.14708 0.08298 0.0
C1190 C 0.3613 0.14625 0.08889 0.0
C1191 C 0.35454 0.13166 0.09655 0.0
C1192 C 0.34536 0.13229 0.09058 0.0
C1193 C 0.33768 0.12408 0.09251 0.0
H1194 H 0.32558 0.08386 0.11922 0.0
C1195 C 0.35354 0.12309 0.10306 0.0
C1196 C 0.3437 0.11858 0.10074 0.0
H1197 H 0.30704 0.09683 0.09499 0.0
H1198 H 0.32057 0.10927 0.09321 0.0
H1199 H 0.3485 0.086 0.10857 0.0
H1200 H 0.33191 0.10361 0.13039 0.0
H1201 H 0.34558 0.10329 0.13398 0.0
H1202 H 0.3379 0.09227 0.13368 0.0
H1203 H 0.34687 0.08245 0.12155 0.0
H1204 H 0.35812 0.08975 0.11757 0.0
C1205 C 0.33661 0.11815 0.08262 0.0
C1206 C 0.3269 0.12832 0.09642 0.0
C1207 C 0.3829 0.11592 0.12896 0.0
C1208 C 0.38406 0.10884 0.13648 0.0
C1209 C 0.37598 0.10176 0.13747 0.0
C1210 C 0.36688 0.10176 0.1311 0.0
C1211 C 0.3658 0.10895 0.12368 0.0
C1212 C 0.37374 0.11586 0.12271 0.0
C1213 C 0.37115 0.12308 0.11459 0.0
C1214 C 0.36036 0.11934 0.11078 0.0
C1215 C 0.35726 0.11107 0.11611 0.0
C1216 C 0.38004 0.12243 0.10636 0.0
C1217 C 0.37007 0.13309 0.11968 0.0
C1218 C 0.32436 0.08944 0.11361 0.0
C1219 C 0.3152 0.0894 0.10729 0.0
C1220 C 0.31406 0.09668 0.09992 0.0
C1221 C 0.32191 0.1039 0.09892 0.0
C1222 C 0.33103 0.10383 0.10532 0.0
C1223 C 0.33214 0.09665 0.11248 0.0
C1224 C 0.34242 0.09755 0.1185 0.0
C1225 C 0.34734 0.10645 0.11375 0.0
C1226 C 0.34062 0.11014 0.10608 0.0
C1227 C 0.34937 0.08846 0.11655 0.0
C1228 C 0.33939 0.09921 0.12975 0.0
H1229 H 0.37005 0.13846 0.09995 0.0
H1230 H 0.33646 0.14033 0.07933 0.0
H1231 H 0.32845 0.13429 0.10186 0.0
H1232 H 0.32199 0.12306 0.10063 0.0
H1233 H 0.32198 0.13125 0.09008 0.0
H1234 H 0.34433 0.11813 0.07833 0.0
H1235 H 0.33026 0.12119 0.07758 0.0
H1236 H 0.33485 0.11048 0.08403 0.0
H1237 H 0.38887 0.12156 0.12811 0.0
H1238 H 0.37673 0.09618 0.14316 0.0
H1239 H 0.36102 0.09619 0.13224 0.0
H1240 H 0.3831 0.11494 0.1056 0.0
H1241 H 0.38704 0.12709 0.10827 0.0
H1242 H 0.37704 0.1243 0.09872 0.0
H1243 H 0.36645 0.13245 0.12736 0.0
H1244 H 0.36459 0.138 0.11555 0.0
H1245 H 0.37808 0.13659 0.12056 0.0
H1246 H 0.36771 0.15151 0.08827 0.0
C1247 C 0.36269 0.13861 0.09565 0.0
C1248 C 0.08625 0.86433 0.09777 0.0
C1249 C 0.09045 0.86407 0.08789 0.0
C1250 C 0.09628 0.87207 0.08428 0.0
C1251 C 0.09412 0.88012 0.10044 0.0
C1252 C 0.08815 0.87239 0.10386 0.0
C1253 C 0.08428 0.87378 0.11454 0.0
H1254 H 0.08251 0.90086 0.15708 0.0
C1255 C 0.09495 0.88716 0.10881 0.0
C1256 C 0.08914 0.88351 0.11706 0.0
H1257 H 0.06686 0.87362 0.15112 0.0
H1258 H 0.07457 0.8732 0.13445 0.0
H1259 H 0.10497 0.89516 0.14729 0.0
H1260 H 0.07771 0.91037 0.1347 0.0
H1261 H 0.08963 0.91658 0.13148 0.0
H1262 H 0.08611 0.91516 0.14462 0.0
H1263 H 0.10246 0.90757 0.15018 0.0
H1264 H 0.11019 0.90402 0.13922 0.0
C1265 C 0.08918 0.86565 0.12116 0.0
C1266 C 0.07174 0.87408 0.11437 0.0
C1267 C 0.11853 0.91672 0.10474 0.0
C1268 C 0.12195 0.92396 0.11149 0.0
C1269 C 0.11747 0.9242 0.12131 0.0
C1270 C 0.11 0.91722 0.12442 0.0
C1271 C 0.10702 0.90984 0.11769 0.0
C1272 C 0.11123 0.90972 0.10801 0.0
C1273 C 0.10758 0.90111 0.10203 0.0
C1274 C 0.10056 0.89602 0.10974 0.0
C1275 C 0.10019 0.90119 0.11888 0.0
C1276 C 0.11773 0.89512 0.09923 0.0
C1277 C 0.10091 0.9047 0.09282 0.0
C1278 C 0.08072 0.89484 0.15215 0.0
C1279 C 0.0741 0.88724 0.15545 0.0
C1280 C 0.07207 0.87948 0.14884 0.0
C1281 C 0.07649 0.87929 0.1391 0.0
C1282 C 0.08305 0.88692 0.13589 0.0
C1283 C 0.08512 0.89451 0.14237 0.0
C1284 C 0.09243 0.9019 0.13764 0.0
C1285 C 0.09415 0.89758 0.12718 0.0
C1286 C 0.08866 0.8888 0.12625 0.0
C1287 C 0.10306 0.90229 0.14389 0.0
C1288 C 0.08624 0.91156 0.1371 0.0
H1289 H 0.10273 0.88588 0.08734 0.0
H1290 H 0.08158 0.85837 0.1007 0.0
H1291 H 0.06866 0.87714 0.10712 0.0
H1292 H 0.06834 0.87881 0.12028 0.0
H1293 H 0.06826 0.86676 0.11517 0.0
H1294 H 0.09759 0.86398 0.11875 0.0
H1295 H 0.08437 0.85894 0.12049 0.0
H1296 H 0.08989 0.86762 0.12923 0.0
H1297 H 0.12164 0.91637 0.09709 0.0
H1298 H 0.12001 0.92958 0.12674 0.0
H1299 H 0.10702 0.91772 0.13202 0.0
H1300 H 0.1238 0.89529 0.10547 0.0
H1301 H 0.12167 0.898 0.09232 0.0
H1302 H 0.11598 0.88742 0.09808 0.0
H1303 H 0.09614 0.91121 0.09482 0.0
H1304 H 0.09485 0.8994 0.09021 0.0
H1305 H 0.10626 0.90662 0.08639 0.0
H1306 H 0.09963 0.87202 0.07671 0.0
C1307 C 0.09813 0.88008 0.09049 0.0
C1308 C 0.35965 0.86045 0.40531 0.0
C1309 C 0.36624 0.85221 0.40477 0.0
C1310 C 0.37393 0.85153 0.39694 0.0
C1311 C 0.36839 0.86704 0.39041 0.0
C1312 C 0.36087 0.86776 0.39808 0.0
C1313 C 0.3545 0.87698 0.39746 0.0
H1314 H 0.34367 0.91852 0.3725 0.0
C1315 C 0.36762 0.87578 0.38411 0.0
C1316 C 0.35953 0.88168 0.38822 0.0
H1317 H 0.32779 0.90734 0.39912 0.0
H1318 H 0.33999 0.89376 0.39934 0.0
H1319 H 0.36745 0.91422 0.37974 0.0
H1320 H 0.34572 0.89802 0.36076 0.0
H1321 H 0.35848 0.89831 0.35492 0.0
H1322 H 0.35141 0.90939 0.35718 0.0
H1323 H 0.36537 0.91723 0.36666 0.0
H1324 H 0.37547 0.90857 0.37054 0.0
C1325 C 0.35665 0.88285 0.40724 0.0
C1326 C 0.34247 0.87437 0.39568 0.0
C1327 C 0.39149 0.87909 0.35311 0.0
C1328 C 0.39306 0.8865 0.34599 0.0
C1329 C 0.38708 0.8951 0.34708 0.0
C1330 C 0.3796 0.89621 0.35495 0.0
C1331 C 0.37807 0.88868 0.36189 0.0
C1332 C 0.38412 0.88038 0.361 0.0
C1333 C 0.38186 0.87334 0.36936 0.0
C1334 C 0.3733 0.87871 0.37532 0.0
C1335 C 0.371 0.88763 0.37083 0.0
C1336 C 0.39242 0.87193 0.37559 0.0
C1337 C 0.37732 0.86402 0.36452 0.0
C1338 C 0.34276 0.91311 0.37833 0.0
C1339 C 0.33468 0.91396 0.38574 0.0
C1340 C 0.33397 0.90687 0.39335 0.0
C1341 C 0.34101 0.89896 0.39341 0.0
C1342 C 0.34887 0.8981 0.3858 0.0
C1343 C 0.34971 0.90517 0.37849 0.0
C1344 C 0.35856 0.90315 0.37102 0.0
C1345 C 0.36277 0.89358 0.37491 0.0
C1346 C 0.35707 0.89064 0.38356 0.0
C1347 C 0.36717 0.91121 0.37193 0.0
C1348 C 0.35337 0.90221 0.36037 0.0
H1349 H 0.381 0.85787 0.384 0.0
H1350 H 0.3537 0.86124 0.41126 0.0
H1351 H 0.34173 0.86799 0.39063 0.0
H1352 H 0.33789 0.88009 0.39178 0.0
H1353 H 0.33839 0.87261 0.40293 0.0
H1354 H 0.36523 0.88211 0.40968 0.0
H1355 H 0.35148 0.8803 0.41355 0.0
H1356 H 0.3554 0.89065 0.40619 0.0
H1357 H 0.39581 0.87234 0.35253 0.0
H1358 H 0.38825 0.90104 0.34191 0.0
H1359 H 0.37529 0.9029 0.35532 0.0
H1360 H 0.39757 0.87848 0.37537 0.0
H1361 H 0.39729 0.86587 0.37257 0.0
H1362 H 0.39089 0.87073 0.38373 0.0
H1363 H 0.37176 0.86575 0.35813 0.0
H1364 H 0.37244 0.8597 0.3698 0.0
H1365 H 0.38394 0.85946 0.36148 0.0
H1366 H 0.37898 0.8452 0.39621 0.0
C1367 C 0.37505 0.85888 0.38979 0.0
C1368 C 0.41954 0.09502 0.63498 0.0
C1369 C 0.42918 0.10035 0.63522 0.0
C1370 C 0.43155 0.10664 0.62717 0.0
C1371 C 0.41451 0.10269 0.61912 0.0
C1372 C 0.4124 0.09622 0.62681 0.0
C1373 C 0.40189 0.091 0.62522 0.0
H1374 H 0.35574 0.08561 0.59814 0.0
C1375 C 0.40528 0.10253 0.61201 0.0
C1376 C 0.39793 0.09558 0.61544 0.0
H1377 H 0.36596 0.06968 0.62463 0.0
H1378 H 0.3827 0.07857 0.62509 0.0
H1379 H 0.36347 0.10585 0.60591 0.0
H1380 H 0.37871 0.08488 0.58674 0.0
H1381 H 0.3816 0.09621 0.58155 0.0
H1382 H 0.36773 0.09229 0.58246 0.0
H1383 H 0.35934 0.1039 0.59303 0.0
H1384 H 0.36995 0.11225 0.59625 0.0
C1385 C 0.39439 0.09335 0.63426 0.0
C1386 C 0.40438 0.08015 0.62386 0.0
C1387 C 0.40288 0.12741 0.58387 0.0
C1388 C 0.39487 0.12949 0.5766 0.0
C1389 C 0.38582 0.12336 0.57579 0.0
C1390 C 0.38457 0.11553 0.58233 0.0
C1391 C 0.39242 0.11378 0.58982 0.0
C1392 C 0.40148 0.11957 0.59039 0.0
C1393 C 0.40898 0.11658 0.59883 0.0
C1394 C 0.40277 0.10821 0.60337 0.0
C1395 C 0.39307 0.10665 0.59808 0.0
C1396 C 0.40998 0.12511 0.60633 0.0
C1397 C 0.41984 0.11331 0.59411 0.0
C1398 C 0.36165 0.08392 0.60396 0.0
C1399 C 0.3595 0.07692 0.61136 0.0
C1400 C 0.36735 0.07511 0.61891 0.0
C1401 C 0.37709 0.08025 0.61913 0.0
C1402 C 0.37903 0.08732 0.61175 0.0
C1403 C 0.3714 0.08899 0.60429 0.0
C1404 C 0.37475 0.09681 0.59711 0.0
C1405 C 0.38571 0.09951 0.60144 0.0
C1406 C 0.38815 0.09398 0.61004 0.0
C1407 C 0.36646 0.10515 0.59801 0.0
C1408 C 0.3757 0.09241 0.58636 0.0
H1409 H 0.42645 0.11285 0.61331 0.0
H1410 H 0.41762 0.09003 0.641 0.0
H1411 H 0.4124 0.07904 0.62024 0.0
H1412 H 0.39859 0.07651 0.61875 0.0
H1413 H 0.40452 0.07637 0.63127 0.0
H1414 H 0.39505 0.10107 0.63637 0.0
H1415 H 0.39661 0.08902 0.64102 0.0
H1416 H 0.38575 0.0922 0.63254 0.0
H1417 H 0.40991 0.13199 0.58472 0.0
H1418 H 0.37965 0.12467 0.57011 0.0
H1419 H 0.37745 0.11123 0.58139 0.0
H1420 H 0.40194 0.12843 0.60769 0.0
H1421 H 0.41539 0.13077 0.60326 0.0
H1422 H 0.413 0.12298 0.61386 0.0
H1423 H 0.41866 0.11051 0.58628 0.0
H1424 H 0.42358 0.10727 0.59829 0.0
H1425 H 0.42567 0.11936 0.59368 0.0
H1426 H 0.43894 0.11082 0.62724 0.0
C1427 C 0.42427 0.10784 0.61913 0.0
C1428 C 0.15535 0.09269 0.8965 0.0
C1429 C 0.15676 0.08612 0.8885 0.0
C1430 C 0.1491 0.08586 0.88059 0.0
C1431 C 0.13889 0.09861 0.88857 0.0
C1432 C 0.14641 0.09892 0.89633 0.0
C1433 C 0.14386 0.10668 0.90394 0.0
H1434 H 0.11151 0.14367 0.91815 0.0
C1435 C 0.13064 0.10605 0.89053 0.0
C1436 C 0.13351 0.11085 0.89951 0.0
H1437 H 0.14075 0.1338 0.93288 0.0
H1438 H 0.14249 0.12107 0.92047 0.0
H1439 H 0.12008 0.14219 0.89612 0.0
H1440 H 0.10147 0.1224 0.914 0.0
H1441 H 0.09609 0.1221 0.90168 0.0
H1442 H 0.0958 0.1332 0.90876 0.0
H1443 H 0.10602 0.14407 0.89878 0.0
H1444 H 0.11038 0.13714 0.88799 0.0
C1445 C 0.15324 0.11405 0.90387 0.0
C1446 C 0.14191 0.10186 0.91433 0.0
C1447 C 0.09939 0.1103 0.86582 0.0
C1448 C 0.09063 0.11674 0.86544 0.0
C1449 C 0.08935 0.12347 0.87334 0.0
C1450 C 0.09672 0.12386 0.88141 0.0
C1451 C 0.10553 0.11747 0.8816 0.0
C1452 C 0.10671 0.1108 0.87392 0.0
C1453 C 0.11661 0.10466 0.87532 0.0
C1454 C 0.12118 0.10875 0.88511 0.0
C1455 C 0.11467 0.11625 0.88873 0.0
C1456 C 0.12424 0.10641 0.8662 0.0
C1457 C 0.11288 0.0941 0.8766 0.0
C1458 C 0.11819 0.13868 0.91883 0.0
C1459 C 0.12597 0.13973 0.92654 0.0
C1460 C 0.13468 0.13318 0.92697 0.0
C1461 C 0.13567 0.1258 0.91977 0.0
C1462 C 0.12792 0.12498 0.91199 0.0
C1463 C 0.11932 0.13133 0.91169 0.0
C1464 C 0.11196 0.12957 0.90281 0.0
C1465 C 0.11758 0.12118 0.89775 0.0
C1466 C 0.12693 0.11849 0.90314 0.0
C1467 C 0.11199 0.1387 0.89606 0.0
C1468 C 0.10069 0.12673 0.90694 0.0
H1469 H 0.13464 0.09144 0.87435 0.0
H1470 H 0.16117 0.09309 0.90264 0.0
H1471 H 0.13718 0.09511 0.9134 0.0
H1472 H 0.13712 0.10637 0.91952 0.0
H1473 H 0.14969 0.09997 0.91807 0.0
H1474 H 0.15663 0.11487 0.89612 0.0
H1475 H 0.15993 0.11173 0.90895 0.0
H1476 H 0.15065 0.12136 0.90604 0.0
H1477 H 0.10068 0.10511 0.85982 0.0
H1478 H 0.08259 0.12843 0.8733 0.0
H1479 H 0.09531 0.12917 0.88715 0.0
H1480 H 0.12334 0.11385 0.8632 0.0
H1481 H 0.12245 0.10137 0.85989 0.0
H1482 H 0.13288 0.10584 0.86825 0.0
H1483 H 0.10533 0.09372 0.88114 0.0
H1484 H 0.11877 0.08962 0.88078 0.0
H1485 H 0.1112 0.09071 0.86914 0.0
H1486 H 0.14996 0.08078 0.87442 0.0
C1487 C 0.14017 0.09203 0.88059 0.0
C1488 C 0.86097 0.36161 0.91003 0.0
C1489 C 0.86839 0.35396 0.9105 0.0
C1490 C 0.87753 0.35408 0.90416 0.0
C1491 C 0.8715 0.36904 0.89666 0.0
C1492 C 0.86276 0.36912 0.90315 0.0
C1493 C 0.85585 0.37795 0.90176 0.0
H1494 H 0.84516 0.41877 0.87556 0.0
C1495 C 0.87084 0.37767 0.8902 0.0
C1496 C 0.86179 0.38303 0.89325 0.0
H1497 H 0.8275 0.40705 0.90092 0.0
H1498 H 0.84039 0.39405 0.9023 0.0
H1499 H 0.86839 0.41576 0.88465 0.0
H1500 H 0.84948 0.39811 0.86448 0.0
H1501 H 0.86268 0.39885 0.85966 0.0
H1502 H 0.85481 0.40964 0.86099 0.0
H1503 H 0.86709 0.41853 0.87143 0.0
H1504 H 0.87749 0.41053 0.87609 0.0
C1505 C 0.85612 0.38382 0.91174 0.0
C1506 C 0.84441 0.37465 0.89846 0.0
C1507 C 0.89657 0.38127 0.86057 0.0
C1508 C 0.89795 0.38842 0.85313 0.0
C1509 C 0.89156 0.39682 0.85369 0.0
C1510 C 0.88372 0.39791 0.86124 0.0
C1511 C 0.88223 0.39056 0.86839 0.0
C1512 C 0.8888 0.38253 0.86814 0.0
C1513 C 0.88648 0.37568 0.87666 0.0
C1514 C 0.87714 0.38076 0.88185 0.0
C1515 C 0.8746 0.3894 0.87689 0.0
C1516 C 0.89664 0.3751 0.88357 0.0
C1517 C 0.88298 0.36594 0.87199 0.0
C1518 C 0.84401 0.41336 0.88136 0.0
C1519 C 0.83525 0.4139 0.88809 0.0
C1520 C 0.83421 0.40683 0.89568 0.0
C1521 C 0.84168 0.39926 0.89643 0.0
C1522 C 0.85028 0.39873 0.88952 0.0
C1523 C 0.85138 0.40577 0.88221 0.0
C1524 C 0.86103 0.40411 0.87554 0.0
C1525 C 0.86554 0.3949 0.88004 0.0
C1526 C 0.85918 0.39175 0.88819 0.0
C1527 C 0.86892 0.41267 0.87689 0.0
C1528 C 0.85688 0.40265 0.86456 0.0
H1529 H 0.8861 0.36114 0.8925 0.0
H1530 H 0.85396 0.36174 0.91491 0.0
H1531 H 0.84494 0.36865 0.8929 0.0
H1532 H 0.83975 0.38033 0.89457 0.0
H1533 H 0.83969 0.37206 0.90505 0.0
H1534 H 0.86406 0.38303 0.91565 0.0
H1535 H 0.84976 0.38136 0.91706 0.0
H1536 H 0.85524 0.39163 0.91048 0.0
H1537 H 0.90125 0.37469 0.86044 0.0
H1538 H 0.89261 0.40259 0.84828 0.0
H1539 H 0.87906 0.40442 0.86117 0.0
H1540 H 0.90178 0.38162 0.88286 0.0
H1541 H 0.90174 0.36879 0.88161 0.0
H1542 H 0.89456 0.37478 0.89171 0.0
H1543 H 0.87719 0.36711 0.86564 0.0
H1544 H 0.87876 0.36122 0.87739 0.0
H1545 H 0.89006 0.36198 0.86894 0.0
H1546 H 0.8833 0.34822 0.90437 0.0
C1547 C 0.8791 0.36156 0.89724 0.0
C1548 C 0.91841 0.60133 0.13641 0.0
C1549 C 0.92545 0.60892 0.13883 0.0
C1550 C 0.92748 0.61608 0.13153 0.0
C1551 C 0.91521 0.60829 0.11979 0.0
C1552 C 0.91333 0.6012 0.1269 0.0
C1553 C 0.90508 0.59401 0.12332 0.0
H1554 H 0.86621 0.58218 0.0896 0.0
C1555 C 0.90831 0.60631 0.11088 0.0
C1556 C 0.90236 0.59794 0.11288 0.0
H1557 H 0.87488 0.56751 0.11737 0.0
H1558 H 0.89007 0.57813 0.11961 0.0
H1559 H 0.87018 0.60356 0.09712 0.0
H1560 H 0.89083 0.58359 0.08149 0.0
H1561 H 0.89424 0.59507 0.07702 0.0
H1562 H 0.88076 0.59047 0.0749 0.0
H1563 H 0.86781 0.59953 0.08438 0.0
H1564 H 0.87644 0.60961 0.08699 0.0
C1565 C 0.89531 0.59451 0.13063 0.0
C1566 C 0.91057 0.58401 0.12272 0.0
C1567 C 0.90799 0.62972 0.08138 0.0
C1568 C 0.90212 0.63008 0.07224 0.0
C1569 C 0.89498 0.62248 0.06989 0.0
C1570 C 0.89351 0.61481 0.07663 0.0
C1571 C 0.8992 0.61472 0.08586 0.0
C1572 C 0.90644 0.622 0.08801 0.0
C1573 C 0.91188 0.62067 0.09812 0.0
C1574 C 0.90671 0.61138 0.10167 0.0
C1575 C 0.8992 0.60799 0.09452 0.0
C1576 C 0.9088 0.62933 0.10495 0.0
C1577 C 0.92417 0.61947 0.0963 0.0
C1578 C 0.87147 0.58114 0.09608 0.0
C1579 C 0.86916 0.57411 0.10343 0.0
C1580 C 0.87627 0.57303 0.11174 0.0
C1581 C 0.88511 0.5792 0.11303 0.0
C1582 C 0.88688 0.58657 0.10597 0.0
C1583 C 0.88035 0.58724 0.09748 0.0
C1584 C 0.88369 0.59533 0.09062 0.0
C1585 C 0.89299 0.59966 0.09662 0.0
C1586 C 0.89472 0.59456 0.10567 0.0
C1587 C 0.87406 0.6024 0.08963 0.0
C1588 C 0.88752 0.59097 0.08043 0.0
H1589 H 0.9243 0.62147 0.11683 0.0
H1590 H 0.91662 0.59578 0.14191 0.0
H1591 H 0.91926 0.58468 0.12069 0.0
H1592 H 0.90707 0.5794 0.11673 0.0
H1593 H 0.91014 0.58019 0.1301 0.0
H1594 H 0.8936 0.60209 0.13283 0.0
H1595 H 0.89694 0.59039 0.13768 0.0
H1596 H 0.88771 0.59189 0.12724 0.0
H1597 H 0.91344 0.63547 0.08351 0.0
H1598 H 0.8905 0.62246 0.06282 0.0
H1599 H 0.88789 0.60931 0.07446 0.0
H1600 H 0.90049 0.63193 0.1032 0.0
H1601 H 0.91442 0.63545 0.10383 0.0
H1602 H 0.90856 0.62748 0.11308 0.0
H1603 H 0.92571 0.61534 0.08923 0.0
H1604 H 0.92825 0.61533 0.10234 0.0
H1605 H 0.9282 0.62657 0.09552 0.0
H1606 H 0.933 0.62193 0.1332 0.0
C1607 C 0.92246 0.61578 0.12202 0.0
C1608 C 0.65869 0.58621 0.39823 0.0
C1609 C 0.66035 0.57897 0.39095 0.0
C1610 C 0.65256 0.57758 0.38328 0.0
C1611 C 0.64178 0.5906 0.39003 0.0
C1612 C 0.6494 0.59198 0.39758 0.0
C1613 C 0.64658 0.60033 0.40435 0.0
H1614 H 0.61333 0.63791 0.41428 0.0
C1615 C 0.6332 0.59787 0.39131 0.0
C1616 C 0.63595 0.60362 0.39969 0.0
H1617 H 0.64296 0.63035 0.4298 0.0
H1618 H 0.64462 0.61606 0.41942 0.0
H1619 H 0.62168 0.63369 0.39231 0.0
H1620 H 0.60365 0.61648 0.41336 0.0
H1621 H 0.59837 0.61391 0.4013 0.0
H1622 H 0.5975 0.62601 0.40622 0.0
H1623 H 0.60779 0.63602 0.39534 0.0
H1624 H 0.6115 0.62784 0.38535 0.0
C1625 C 0.65556 0.60801 0.40329 0.0
C1626 C 0.64505 0.59649 0.41525 0.0
C1627 C 0.60179 0.59898 0.36638 0.0
C1628 C 0.59277 0.60508 0.36544 0.0
C1629 C 0.59113 0.61231 0.37278 0.0
C1630 C 0.59845 0.61357 0.38078 0.0
C1631 C 0.60758 0.60758 0.38147 0.0
C1632 C 0.60905 0.60035 0.37442 0.0
C1633 C 0.61919 0.59467 0.37638 0.0
C1634 C 0.62359 0.59973 0.38573 0.0
C1635 C 0.61679 0.6073 0.38862 0.0
C1636 C 0.62674 0.59587 0.36711 0.0
C1637 C 0.6159 0.58414 0.37868 0.0
C1638 C 0.62019 0.63319 0.41543 0.0
C1639 C 0.6281 0.63532 0.42276 0.0
C1640 C 0.63676 0.62886 0.42419 0.0
C1641 C 0.63775 0.62062 0.4181 0.0
C1642 C 0.63001 0.61883 0.41049 0.0
C1643 C 0.62131 0.62499 0.40941 0.0
C1644 C 0.61385 0.62206 0.40097 0.0
C1645 C 0.61961 0.61322 0.39697 0.0
C1646 C 0.62909 0.61136 0.40254 0.0
C1647 C 0.61357 0.6303 0.39306 0.0
C1648 C 0.60272 0.61953 0.40561 0.0
H1649 H 0.63768 0.58187 0.37678 0.0
H1650 H 0.6646 0.58747 0.40416 0.0
H1651 H 0.64087 0.58941 0.41515 0.0
H1652 H 0.6399 0.6012 0.41993 0.0
H1653 H 0.65297 0.5955 0.41911 0.0
H1654 H 0.65859 0.60833 0.39537 0.0
H1655 H 0.66255 0.60635 0.4083 0.0
H1656 H 0.65271 0.61537 0.40492 0.0
H1657 H 0.60323 0.59328 0.36095 0.0
H1658 H 0.58433 0.61718 0.37219 0.0
H1659 H 0.59681 0.61927 0.38602 0.0
H1660 H 0.62571 0.60308 0.36358 0.0
H1661 H 0.62497 0.5904 0.3612 0.0
H1662 H 0.6354 0.59552 0.36913 0.0
H1663 H 0.60827 0.58391 0.38312 0.0
H1664 H 0.62188 0.5803 0.3834 0.0
H1665 H 0.61454 0.58003 0.37157 0.0
H1666 H 0.65362 0.57197 0.37767 0.0
C1667 C 0.64328 0.58331 0.38281 0.0
C1668 C 0.91299 0.38912 0.34546 0.0
C1669 C 0.92006 0.38136 0.34374 0.0
C1670 C 0.92078 0.37398 0.35103 0.0
C1671 C 0.90737 0.38198 0.36139 0.0
C1672 C 0.90672 0.38926 0.35429 0.0
C1673 C 0.89856 0.39681 0.35717 0.0
H1674 H 0.86005 0.41219 0.38976 0.0
C1675 C 0.89963 0.38415 0.36957 0.0
C1676 C 0.89442 0.39283 0.36715 0.0
H1677 H 0.87051 0.42593 0.36211 0.0
H1678 H 0.88368 0.41331 0.35949 0.0
H1679 H 0.85949 0.39157 0.3814 0.0
H1680 H 0.88429 0.40663 0.39787 0.0
H1681 H 0.8835 0.39497 0.40295 0.0
H1682 H 0.87186 0.40276 0.40353 0.0
H1683 H 0.85878 0.39331 0.39485 0.0
H1684 H 0.86553 0.38303 0.38939 0.0
C1685 C 0.88963 0.39702 0.34892 0.0
C1686 C 0.90459 0.40647 0.35863 0.0
C1687 C 0.89522 0.36078 0.39892 0.0
C1688 C 0.88806 0.36052 0.40716 0.0
C1689 C 0.88078 0.36819 0.40859 0.0
C1690 C 0.88053 0.37596 0.40185 0.0
C1691 C 0.88756 0.37604 0.39352 0.0
C1692 C 0.89476 0.36855 0.39217 0.0
C1693 C 0.90129 0.36968 0.38264 0.0
C1694 C 0.89685 0.3791 0.37854 0.0
C1695 C 0.88886 0.3828 0.38498 0.0
C1696 C 0.89868 0.36108 0.37555 0.0
C1697 C 0.91335 0.37053 0.38568 0.0
C1698 C 0.86529 0.41259 0.38323 0.0
C1699 C 0.86426 0.4201 0.37617 0.0
C1700 C 0.87109 0.42018 0.36763 0.0
C1701 C 0.87875 0.41286 0.36614 0.0
C1702 C 0.87956 0.40534 0.37322 0.0
C1703 C 0.87293 0.40535 0.38162 0.0
C1704 C 0.87475 0.39675 0.38829 0.0
C1705 C 0.88359 0.39157 0.38255 0.0
C1706 C 0.88638 0.3966 0.37371 0.0
C1707 C 0.86411 0.39085 0.38861 0.0
C1708 C 0.87874 0.40039 0.39876 0.0
H1709 H 0.91543 0.36842 0.36507 0.0
H1710 H 0.91219 0.39486 0.33997 0.0
H1711 H 0.91265 0.40529 0.36219 0.0
H1712 H 0.90035 0.41144 0.36378 0.0
H1713 H 0.90591 0.41011 0.35125 0.0
H1714 H 0.88789 0.38965 0.34608 0.0
H1715 H 0.89213 0.40146 0.34234 0.0
H1716 H 0.88181 0.39971 0.35175 0.0
H1717 H 0.90079 0.35491 0.39756 0.0
H1718 H 0.87524 0.36814 0.41493 0.0
H1719 H 0.87476 0.38154 0.40334 0.0
H1720 H 0.89019 0.35861 0.37655 0.0
H1721 H 0.90406 0.35486 0.37714 0.0
H1722 H 0.89923 0.36294 0.36743 0.0
H1723 H 0.91427 0.3749 0.3927 0.0
H1724 H 0.91827 0.37427 0.37995 0.0
H1725 H 0.91693 0.36334 0.38718 0.0
H1726 H 0.92628 0.36801 0.34997 0.0
C1727 C 0.9145 0.37426 0.35984 0.0
C1728 C 0.60735 0.64752 0.89089 0.0
C1729 C 0.61417 0.64759 0.89943 0.0
C1730 C 0.62197 0.64027 0.90053 0.0
C1731 C 0.61595 0.63291 0.88484 0.0
C1732 C 0.60841 0.64017 0.8837 0.0
C1733 C 0.60193 0.63912 0.8741 0.0
H1734 H 0.59061 0.61389 0.83148 0.0
C1735 C 0.61487 0.62632 0.8761 0.0
C1736 C 0.60672 0.62995 0.86975 0.0
H1737 H 0.57607 0.64043 0.84181 0.0
H1738 H 0.58769 0.64045 0.85648 0.0
H1739 H 0.61506 0.6197 0.83691 0.0
H1740 H 0.59113 0.60364 0.85339 0.0
H1741 H 0.60357 0.59771 0.85495 0.0
H1742 H 0.59782 0.59889 0.84243 0.0
H1743 H 0.61114 0.60774 0.83336 0.0
H1744 H 0.62166 0.60989 0.84259 0.0
C1745 C 0.60422 0.64796 0.8673 0.0
C1746 C 0.5899 0.63782 0.87703 0.0
C1747 C 0.63842 0.59646 0.87414 0.0
C1748 C 0.63933 0.58898 0.86701 0.0
C1749 C 0.63253 0.58908 0.8584 0.0
C1750 C 0.62504 0.59653 0.8569 0.0
C1751 C 0.6243 0.60398 0.86406 0.0
C1752 C 0.63092 0.60385 0.87251 0.0
C1753 C 0.62909 0.61237 0.87931 0.0
C1754 C 0.62026 0.61764 0.87356 0.0
C1755 C 0.61747 0.61269 0.86464 0.0
C1756 C 0.63971 0.61827 0.87981 0.0
C1757 C 0.62509 0.6086 0.88968 0.0
C1758 C 0.58989 0.61967 0.83694 0.0
C1759 C 0.58241 0.62718 0.83545 0.0
C1760 C 0.58185 0.63463 0.84269 0.0
C1761 C 0.58857 0.6346 0.85125 0.0
C1762 C 0.59596 0.62704 0.85264 0.0
C1763 C 0.59656 0.61976 0.84554 0.0
C1764 C 0.60495 0.61235 0.84826 0.0
C1765 C 0.60928 0.6164 0.85816 0.0
C1766 C 0.60396 0.62499 0.8607 0.0
C1767 C 0.61366 0.61231 0.83985 0.0
C1768 C 0.59916 0.60259 0.84979 0.0
H1769 H 0.62892 0.62753 0.89462 0.0
H1770 H 0.60138 0.65313 0.88976 0.0
H1771 H 0.58915 0.63329 0.88394 0.0
H1772 H 0.58512 0.63405 0.87118 0.0
H1773 H 0.58604 0.64487 0.87866 0.0
H1774 H 0.61263 0.65059 0.86838 0.0
H1775 H 0.59867 0.65401 0.8691 0.0
H1776 H 0.60363 0.64631 0.85912 0.0
H1777 H 0.6434 0.59657 0.8809 0.0
H1778 H 0.63314 0.58348 0.85273 0.0
H1779 H 0.62015 0.59621 0.85017 0.0
H1780 H 0.64422 0.6178 0.87255 0.0
H1781 H 0.64513 0.61558 0.88591 0.0
H1782 H 0.63829 0.62604 0.88093 0.0
H1783 H 0.61952 0.6024 0.88865 0.0
H1784 H 0.62036 0.61397 0.89394 0.0
H1785 H 0.63196 0.60614 0.89446 0.0
H1786 H 0.62726 0.64013 0.90709 0.0
C1787 C 0.62288 0.63293 0.8933 0.0
C1788 C 0.83566 0.61962 0.8622 0.0
C1789 C 0.83691 0.61116 0.85646 0.0
C1790 C 0.84474 0.61096 0.84872 0.0
C1791 C 0.84999 0.62732 0.85267 0.0
C1792 C 0.84227 0.62757 0.8602 0.0
C1793 C 0.84219 0.63702 0.86577 0.0
H1794 H 0.86686 0.67927 0.87571 0.0
C1795 C 0.85569 0.63665 0.8527 0.0
C1796 C 0.85116 0.64238 0.86034 0.0
H1797 H 0.8382 0.6675 0.88977 0.0
H1798 H 0.83834 0.65429 0.87801 0.0
H1799 H 0.87987 0.65957 0.87189 0.0
H1800 H 0.85794 0.67585 0.85318 0.0
H1801 H 0.86727 0.67047 0.84494 0.0
H1802 H 0.87193 0.67904 0.85428 0.0
H1803 H 0.88269 0.67142 0.86716 0.0
H1804 H 0.88549 0.66091 0.8597 0.0
C1805 C 0.84505 0.63499 0.877 0.0
C1806 C 0.83102 0.64185 0.86413 0.0
C1807 C 0.8865 0.64216 0.82816 0.0
C1808 C 0.89335 0.65001 0.82631 0.0
C1809 C 0.89214 0.65845 0.8321 0.0
C1810 C 0.8843 0.659 0.83975 0.0
C1811 C 0.87757 0.65104 0.84156 0.0
C1812 C 0.87867 0.64285 0.83572 0.0
C1813 C 0.87063 0.6352 0.83846 0.0
C1814 C 0.86445 0.64016 0.84687 0.0
C1815 C 0.86862 0.64938 0.84875 0.0
C1816 C 0.87698 0.62632 0.84236 0.0
C1817 C 0.86338 0.63326 0.82908 0.0
C1818 C 0.8605 0.67395 0.87621 0.0
C1819 C 0.85268 0.67436 0.88394 0.0
C1820 C 0.84456 0.66723 0.88418 0.0
C1821 C 0.84462 0.65956 0.8773 0.0
C1822 C 0.85283 0.65899 0.87002 0.0
C1823 C 0.86036 0.66628 0.86932 0.0
C1824 C 0.86806 0.66476 0.86066 0.0
C1825 C 0.86422 0.65511 0.85663 0.0
C1826 C 0.8554 0.65171 0.86225 0.0
C1827 C 0.87968 0.66417 0.865 0.0
C1828 C 0.86632 0.67296 0.85285 0.0
H1829 H 0.85708 0.61832 0.84084 0.0
H1830 H 0.82963 0.62008 0.8681 0.0
H1831 H 0.82738 0.6397 0.85675 0.0
H1832 H 0.83156 0.64978 0.86375 0.0
H1833 H 0.82525 0.63979 0.87019 0.0
H1834 H 0.85184 0.62976 0.87754 0.0
H1835 H 0.83803 0.63187 0.88106 0.0
H1836 H 0.84782 0.6414 0.88116 0.0
H1837 H 0.88712 0.63564 0.8237 0.0
H1838 H 0.89736 0.66458 0.8308 0.0
H1839 H 0.88383 0.66557 0.84399 0.0
H1840 H 0.88441 0.62854 0.84653 0.0
H1841 H 0.87953 0.62163 0.83598 0.0
H1842 H 0.87239 0.62199 0.84787 0.0
H1843 H 0.86195 0.63998 0.82471 0.0
H1844 H 0.85522 0.63068 0.83109 0.0
H1845 H 0.86722 0.62798 0.82388 0.0
H1846 H 0.846 0.60451 0.84427 0.0
C1847 C 0.85124 0.61898 0.84679 0.0
C1848 C 0.14852 0.10152 0.63604 0.0
C1849 C 0.15611 0.10075 0.62817 0.0
C1850 C 0.1572 0.10839 0.62125 0.0
C1851 C 0.14277 0.11707 0.62963 0.0
C1852 C 0.14203 0.10976 0.63667 0.0
C1853 C 0.13358 0.11176 0.64456 0.0
H1854 H 0.09245 0.1396 0.66128 0.0
C1855 C 0.13455 0.12439 0.63215 0.0
C1856 C 0.12925 0.12141 0.64099 0.0
H1857 H 0.10502 0.11343 0.67458 0.0
H1858 H 0.11879 0.11265 0.66176 0.0
H1859 H 0.11541 0.14933 0.65735 0.0
H1860 H 0.09458 0.13268 0.6379 0.0
H1861 H 0.099 0.14284 0.63115 0.0
H1862 H 0.09115 0.14447 0.64245 0.0
H1863 H 0.10356 0.15444 0.65161 0.0
H1864 H 0.11642 0.15429 0.64516 0.0
C1865 C 0.13927 0.11253 0.65501 0.0
C1866 C 0.12491 0.10375 0.64386 0.0
C1867 C 0.12712 0.15164 0.60751 0.0
C1868 C 0.11979 0.15935 0.60759 0.0
C1869 C 0.11334 0.16089 0.6162 0.0
C1870 C 0.11383 0.15456 0.62446 0.0
C1871 C 0.12087 0.14663 0.6241 0.0
C1872 C 0.1276 0.14544 0.61585 0.0
C1873 C 0.13492 0.13688 0.61697 0.0
C1874 C 0.13119 0.13289 0.62708 0.0
C1875 C 0.12286 0.13855 0.63115 0.0
C1876 C 0.14678 0.14049 0.61744 0.0
C1877 C 0.13252 0.12987 0.60812 0.0
C1878 C 0.09824 0.13375 0.6615 0.0
C1879 C 0.09755 0.12652 0.66893 0.0
C1880 C 0.10522 0.119 0.66885 0.0
C1881 C 0.11326 0.11858 0.66142 0.0
C1882 C 0.11367 0.12573 0.65392 0.0
C1883 C 0.10632 0.13321 0.65411 0.0
C1884 C 0.10801 0.14017 0.64554 0.0
C1885 C 0.11755 0.1356 0.64015 0.0
C1886 C 0.12077 0.1271 0.64506 0.0
C1887 C 0.11093 0.15012 0.65008 0.0
C1888 C 0.09766 0.14014 0.63889 0.0
H1889 H 0.15164 0.12202 0.61632 0.0
H1890 H 0.14764 0.09581 0.64155 0.0
H1891 H 0.12321 0.10188 0.63582 0.0
H1892 H 0.11704 0.10589 0.64703 0.0
H1893 H 0.12769 0.0971 0.64775 0.0
H1894 H 0.14761 0.11542 0.65424 0.0
H1895 H 0.13988 0.10539 0.65874 0.0
H1896 H 0.13519 0.11762 0.66018 0.0
H1897 H 0.1323 0.15041 0.60104 0.0
H1898 H 0.10765 0.16682 0.6164 0.0
H1899 H 0.10856 0.15599 0.63072 0.0
H1900 H 0.14725 0.14802 0.62025 0.0
H1901 H 0.1506 0.1403 0.60984 0.0
H1902 H 0.15178 0.13631 0.62283 0.0
H1903 H 0.12364 0.12913 0.60694 0.0
H1904 H 0.13551 0.12252 0.60948 0.0
H1905 H 0.13608 0.13254 0.60094 0.0
H1906 H 0.16296 0.10792 0.61511 0.0
C1907 C 0.15057 0.11653 0.62193 0.0
C1908 C 0.64298 0.38541 0.36525 0.0
C1909 C 0.65111 0.38419 0.37263 0.0
C1910 C 0.65072 0.37605 0.37899 0.0
C1911 C 0.63415 0.37078 0.37089 0.0
C1912 C 0.63463 0.37863 0.3645 0.0
C1913 C 0.62535 0.37885 0.35709 0.0
H1914 H 0.5788 0.35904 0.3398 0.0
C1915 C 0.62432 0.36525 0.36831 0.0
C1916 C 0.61915 0.36991 0.3602 0.0
H1917 H 0.5955 0.38405 0.32827 0.0
H1918 H 0.60933 0.38216 0.34102 0.0
H1919 H 0.60015 0.34604 0.34267 0.0
H1920 H 0.58213 0.3639 0.36323 0.0
H1921 H 0.58592 0.35352 0.36992 0.0
H1922 H 0.57722 0.35244 0.35898 0.0
H1923 H 0.58703 0.34276 0.34729 0.0
H1924 H 0.59918 0.33983 0.35422 0.0
C1925 C 0.63001 0.37795 0.34625 0.0
C1926 C 0.61876 0.38815 0.35899 0.0
C1927 C 0.61433 0.33599 0.38926 0.0
C1928 C 0.60542 0.32971 0.38914 0.0
C1929 C 0.59742 0.3309 0.3816 0.0
C1930 C 0.59819 0.33831 0.37444 0.0
C1931 C 0.60704 0.34465 0.37481 0.0
C1932 C 0.61494 0.34339 0.38211 0.0
C1933 C 0.62367 0.35087 0.38149 0.0
C1934 C 0.61968 0.35688 0.37263 0.0
C1935 C 0.60995 0.3532 0.36875 0.0
C1936 C 0.63449 0.34574 0.37908 0.0
C1937 C 0.62368 0.35664 0.39155 0.0
C1938 C 0.58548 0.36406 0.33995 0.0
C1939 C 0.58602 0.37171 0.33299 0.0
C1940 C 0.59479 0.37817 0.3336 0.0
C1941 C 0.60287 0.37702 0.34098 0.0
C1942 C 0.60223 0.36932 0.34784 0.0
C1943 C 0.59364 0.363 0.34724 0.0
C1944 C 0.59429 0.35522 0.35513 0.0
C1945 C 0.60475 0.35785 0.36049 0.0
C1946 C 0.60934 0.36615 0.35623 0.0
C1947 C 0.59514 0.34541 0.34962 0.0
C1948 C 0.58437 0.35621 0.36219 0.0
H1949 H 0.64248 0.36336 0.38326 0.0
H1950 H 0.64296 0.39159 0.36027 0.0
H1951 H 0.61817 0.38967 0.36725 0.0
H1952 H 0.61032 0.38765 0.35632 0.0
H1953 H 0.62266 0.39445 0.35535 0.0
H1954 H 0.63741 0.3734 0.3462 0.0
H1955 H 0.63224 0.38511 0.34316 0.0
H1956 H 0.62442 0.37435 0.34093 0.0
H1957 H 0.62071 0.33521 0.39484 0.0
H1958 H 0.59041 0.32624 0.38138 0.0
H1959 H 0.59179 0.3389 0.36896 0.0
H1960 H 0.63313 0.33933 0.37418 0.0
H1961 H 0.63856 0.34324 0.38611 0.0
H1962 H 0.64012 0.3503 0.37473 0.0
H1963 H 0.61529 0.35765 0.39438 0.0
H1964 H 0.62691 0.36399 0.39074 0.0
H1965 H 0.62833 0.35281 0.39753 0.0
H1966 H 0.65698 0.37482 0.3846 0.0
C1967 C 0.64231 0.36936 0.37816 0.0
C1968 C 0.33924 0.88791 0.12086 0.0
C1969 C 0.34069 0.89587 0.1273 0.0
C1970 C 0.34912 0.89564 0.13453 0.0
C1971 C 0.35459 0.87985 0.12863 0.0
C1972 C 0.34625 0.88004 0.12164 0.0
C1973 C 0.3459 0.87111 0.11522 0.0
H1974 H 0.36962 0.82981 0.10017 0.0
C1975 C 0.36057 0.87073 0.12725 0.0
C1976 C 0.35552 0.86559 0.1194 0.0
H1977 H 0.33957 0.8423 0.08952 0.0
H1978 H 0.34121 0.85497 0.10179 0.0
H1979 H 0.38293 0.84935 0.10358 0.0
H1980 H 0.36346 0.83222 0.12359 0.0
H1981 H 0.37417 0.83674 0.13091 0.0
H1982 H 0.37701 0.82884 0.12038 0.0
H1983 H 0.38678 0.83756 0.10783 0.0
H1984 H 0.3899 0.84813 0.11517 0.0
C1985 C 0.3476 0.87413 0.10405 0.0
C1986 C 0.33507 0.86584 0.11726 0.0
C1987 C 0.39325 0.86332 0.14936 0.0
C1988 C 0.40048 0.85552 0.14977 0.0
C1989 C 0.3993 0.84797 0.1427 0.0
C1990 C 0.391 0.84815 0.13544 0.0
C1991 C 0.38377 0.85594 0.13522 0.0
C1992 C 0.38499 0.86338 0.14207 0.0
C1993 C 0.37656 0.87107 0.14071 0.0
C1994 C 0.36993 0.86692 0.13205 0.0
C1995 C 0.37422 0.85808 0.12885 0.0
C1996 C 0.38237 0.8805 0.13764 0.0
C1997 C 0.36992 0.8718 0.1506 0.0
C1998 C 0.3633 0.83519 0.10052 0.0
C1999 C 0.35457 0.8351 0.09363 0.0
C2000 C 0.34658 0.84231 0.09446 0.0
C2001 C 0.34749 0.84966 0.10166 0.0
C2002 C 0.35646 0.84983 0.10821 0.0
C2003 C 0.36402 0.84254 0.10776 0.0
C2004 C 0.37265 0.84362 0.11575 0.0
C2005 C 0.36919 0.85293 0.12082 0.0
C2006 C 0.35978 0.85659 0.11626 0.0
C2007 C 0.3837 0.84467 0.11038 0.0
C2008 C 0.37191 0.8349 0.12304 0.0
H2009 H 0.36235 0.88798 0.14084 0.0
H2010 H 0.33274 0.88776 0.11535 0.0
H2011 H 0.33198 0.86743 0.12499 0.0
H2012 H 0.33592 0.85792 0.11706 0.0
H2013 H 0.32873 0.86807 0.11175 0.0
H2014 H 0.35409 0.87965 0.10349 0.0
H2015 H 0.34009 0.87728 0.10081 0.0
H2016 H 0.35024 0.86817 0.09914 0.0
H2017 H 0.39384 0.86919 0.15473 0.0
H2018 H 0.40485 0.84194 0.14275 0.0
H2019 H 0.39054 0.8422 0.13029 0.0
H2020 H 0.3896 0.87896 0.13291 0.0
H2021 H 0.38515 0.88455 0.14442 0.0
H2022 H 0.3773 0.88524 0.13289 0.0
H2023 H 0.36858 0.86455 0.15392 0.0
H2024 H 0.36174 0.87478 0.1494 0.0
H2025 H 0.37419 0.87623 0.15636 0.0
H2026 H 0.35047 0.9017 0.13953 0.0
C2027 C 0.35606 0.88769 0.13523 0.0
C2028 C 0.84588 0.39997 0.61844 0.0
C2029 C 0.84477 0.40622 0.62675 0.0
C2030 C 0.85125 0.40467 0.63542 0.0
C2031 C 0.85982 0.391 0.62733 0.0
C2032 C 0.85342 0.39249 0.61887 0.0
C2033 C 0.85576 0.3854 0.61055 0.0
H2034 H 0.88592 0.3486 0.59268 0.0
C2035 C 0.86696 0.3827 0.62523 0.0
C2036 C 0.86461 0.3794 0.61541 0.0
H2037 H 0.86004 0.36386 0.57749 0.0
H2038 H 0.85718 0.37354 0.59238 0.0
H2039 H 0.89671 0.36697 0.60329 0.0
H2040 H 0.87345 0.34628 0.61373 0.0
H2041 H 0.88174 0.34902 0.62414 0.0
H2042 H 0.88759 0.34353 0.61303 0.0
H2043 H 0.90008 0.35466 0.60593 0.0
H2044 H 0.90033 0.36369 0.61571 0.0
C2045 C 0.85991 0.39109 0.60124 0.0
C2046 C 0.84539 0.37944 0.60857 0.0
C2047 C 0.89432 0.37176 0.65167 0.0
C2048 C 0.90206 0.36432 0.65185 0.0
C2049 C 0.90288 0.35817 0.64339 0.0
C2050 C 0.89625 0.35946 0.63487 0.0
C2051 C 0.88867 0.36699 0.63476 0.0
C2052 C 0.88773 0.37293 0.64311 0.0
C2053 C 0.87914 0.38048 0.64168 0.0
C2054 C 0.87511 0.3781 0.63109 0.0
C2055 C 0.88078 0.37023 0.62706 0.0
C2056 C 0.88462 0.39049 0.64215 0.0
C2057 C 0.87029 0.37886 0.64978 0.0
C2058 C 0.87956 0.35396 0.59259 0.0
C2059 C 0.87326 0.35551 0.58384 0.0
C2060 C 0.86514 0.36263 0.58405 0.0
C2061 C 0.86346 0.36822 0.59273 0.0
C2062 C 0.86995 0.36671 0.60134 0.0
C2063 C 0.87776 0.3596 0.60121 0.0
C2064 C 0.88382 0.35896 0.61108 0.0
C2065 C 0.87848 0.36696 0.6171 0.0
C2066 C 0.8704 0.37148 0.61133 0.0
C2067 C 0.8959 0.36111 0.60897 0.0
C2068 C 0.88166 0.34892 0.61577 0.0
H2069 H 0.86347 0.39635 0.64254 0.0
H2070 H 0.84093 0.40084 0.61171 0.0
H2071 H 0.8409 0.37817 0.61573 0.0
H2072 H 0.84711 0.37217 0.60558 0.0
H2073 H 0.83985 0.38322 0.60326 0.0
H2074 H 0.86486 0.39737 0.60366 0.0
H2075 H 0.85307 0.39386 0.59661 0.0
H2076 H 0.86532 0.38683 0.59636 0.0
H2077 H 0.89352 0.37668 0.65798 0.0
H2078 H 0.90861 0.35228 0.64338 0.0
H2079 H 0.89731 0.35455 0.62869 0.0
H2080 H 0.89278 0.39026 0.63863 0.0
H2081 H 0.88563 0.39293 0.6501 0.0
H2082 H 0.88018 0.39604 0.63784 0.0
H2083 H 0.86903 0.37105 0.65116 0.0
H2084 H 0.86229 0.3816 0.64743 0.0
H2085 H 0.8726 0.38222 0.65711 0.0
H2086 H 0.85066 0.40942 0.6419 0.0
C2087 C 0.85874 0.3971 0.63576 0.0
C2088 C 0.35745 0.11578 0.36315 0.0
C2089 C 0.359 0.10746 0.35727 0.0
C2090 C 0.36767 0.10717 0.35038 0.0
C2091 C 0.37331 0.12311 0.35564 0.0
C2092 C 0.36469 0.12347 0.36224 0.0
C2093 C 0.36437 0.1327 0.36817 0.0
H2094 H 0.38927 0.17378 0.38237 0.0
C2095 C 0.37957 0.13209 0.35686 0.0
C2096 C 0.37438 0.13774 0.36419 0.0
H2097 H 0.35825 0.16291 0.39223 0.0
H2098 H 0.35976 0.14967 0.38059 0.0
H2099 H 0.40166 0.15385 0.38079 0.0
H2100 H 0.38408 0.17035 0.35859 0.0
H2101 H 0.39525 0.16535 0.35236 0.0
H2102 H 0.3974 0.17367 0.36269 0.0
H2103 H 0.40647 0.16509 0.37585 0.0
H2104 H 0.40923 0.15387 0.36953 0.0
C2105 C 0.36543 0.13017 0.37956 0.0
C2106 C 0.35386 0.13818 0.36535 0.0
C2107 C 0.41371 0.13718 0.33633 0.0
C2108 C 0.42144 0.14459 0.33603 0.0
C2109 C 0.42031 0.15248 0.34268 0.0
C2110 C 0.41158 0.15301 0.34941 0.0
C2111 C 0.40389 0.14558 0.34953 0.0
C2112 C 0.40507 0.13781 0.3431 0.0
C2113 C 0.39619 0.13053 0.34434 0.0
C2114 C 0.38934 0.13532 0.3524 0.0
C2115 C 0.39389 0.14412 0.35543 0.0
C2116 C 0.40134 0.12102 0.34815 0.0
C2117 C 0.39005 0.12966 0.33413 0.0
C2118 C 0.38271 0.16865 0.38196 0.0
C2119 C 0.37372 0.16936 0.38843 0.0
C2120 C 0.36542 0.16244 0.38758 0.0
C2121 C 0.36628 0.15476 0.38076 0.0
C2122 C 0.3755 0.15396 0.37465 0.0
C2123 C 0.38338 0.16098 0.37511 0.0
C2124 C 0.39235 0.15919 0.36768 0.0
C2125 C 0.3887 0.1498 0.36291 0.0
C2126 C 0.3789 0.14671 0.36712 0.0
C2127 C 0.40304 0.15799 0.37369 0.0
C2128 C 0.3924 0.16757 0.35993 0.0
H2129 H 0.38131 0.11424 0.34421 0.0
H2130 H 0.35076 0.11631 0.36839 0.0
H2131 H 0.35117 0.13642 0.35751 0.0
H2132 H 0.35496 0.14607 0.36533 0.0
H2133 H 0.34715 0.13629 0.37054 0.0
H2134 H 0.37169 0.12452 0.38073 0.0
H2135 H 0.35767 0.12739 0.38258 0.0
H2136 H 0.36804 0.13629 0.38429 0.0
H2137 H 0.41423 0.13108 0.33125 0.0
H2138 H 0.4262 0.15823 0.34271 0.0
H2139 H 0.41118 0.15918 0.35426 0.0
H2140 H 0.40854 0.12245 0.353 0.0
H2141 H 0.40404 0.11647 0.34171 0.0
H2142 H 0.39587 0.1168 0.35301 0.0
H2143 H 0.38925 0.13682 0.33043 0.0
H2144 H 0.38168 0.12705 0.33501 0.0
H2145 H 0.3944 0.12484 0.32881 0.0
H2146 H 0.3691 0.10083 0.34581 0.0
C2147 C 0.37481 0.11495 0.34952 0.0
C2148 C 0.66009 0.60292 0.13652 0.0
C2149 C 0.66804 0.60279 0.1289 0.0
C2150 C 0.66898 0.61086 0.12247 0.0
C2151 C 0.65372 0.61848 0.13066 0.0
C2152 C 0.65312 0.61084 0.13731 0.0
C2153 C 0.64428 0.61215 0.14499 0.0
H2154 H 0.60119 0.63771 0.16156 0.0
C2155 C 0.64496 0.62529 0.13316 0.0
C2156 C 0.63949 0.6217 0.14165 0.0
H2157 H 0.61476 0.61179 0.17448 0.0
H2158 H 0.62889 0.61185 0.16192 0.0
H2159 H 0.62367 0.64843 0.15801 0.0
H2160 H 0.6037 0.63117 0.13841 0.0
H2161 H 0.6083 0.64095 0.13124 0.0
H2162 H 0.60002 0.64312 0.14221 0.0
H2163 H 0.61126 0.65285 0.15269 0.0
H2164 H 0.62392 0.65386 0.14601 0.0
C2165 C 0.64954 0.6128 0.15565 0.0
C2166 C 0.63613 0.60378 0.14373 0.0
C2167 C 0.63683 0.6531 0.10938 0.0
C2168 C 0.62865 0.66013 0.1092 0.0
C2169 C 0.62143 0.66072 0.11742 0.0
C2170 C 0.62208 0.65418 0.12548 0.0
C2171 C 0.63 0.64693 0.12532 0.0
C2172 C 0.63735 0.6466 0.11747 0.0
C2173 C 0.64524 0.63844 0.11859 0.0
C2174 C 0.64124 0.63377 0.12827 0.0
C2175 C 0.63228 0.63874 0.13214 0.0
C2176 C 0.65674 0.64271 0.11987 0.0
C2177 C 0.6439 0.63174 0.10928 0.0
C2178 C 0.60717 0.63201 0.16164 0.0
C2179 C 0.60682 0.62471 0.16899 0.0
C2180 C 0.61489 0.61754 0.16895 0.0
C2181 C 0.62306 0.61756 0.16162 0.0
C2182 C 0.6232 0.62483 0.15423 0.0
C2183 C 0.6154 0.63195 0.1544 0.0
C2184 C 0.61684 0.63915 0.14602 0.0
C2185 C 0.62683 0.63521 0.14082 0.0
C2186 C 0.63046 0.62678 0.14559 0.0
C2187 C 0.61896 0.64914 0.15085 0.0
C2188 C 0.6067 0.63868 0.1391 0.0
H2189 H 0.66295 0.6245 0.1181 0.0
H2190 H 0.65908 0.5969 0.14161 0.0
H2191 H 0.63461 0.60228 0.13557 0.0
H2192 H 0.62812 0.60537 0.14697 0.0
H2193 H 0.63928 0.59708 0.14725 0.0
H2194 H 0.65777 0.61599 0.15525 0.0
H2195 H 0.65033 0.60558 0.15916 0.0
H2196 H 0.64504 0.61759 0.16083 0.0
H2197 H 0.64262 0.65257 0.10327 0.0
H2198 H 0.61501 0.66602 0.11745 0.0
H2199 H 0.61622 0.6549 0.1314 0.0
H2200 H 0.65647 0.65003 0.12329 0.0
H2201 H 0.66092 0.64332 0.11247 0.0
H2202 H 0.66182 0.63846 0.12515 0.0
H2203 H 0.63519 0.63064 0.10751 0.0
H2204 H 0.64723 0.62448 0.11047 0.0
H2205 H 0.64777 0.6349 0.10248 0.0
H2206 H 0.67521 0.61115 0.11674 0.0
C2207 C 0.66188 0.61867 0.12331 0.0
C2208 C 0.13696 0.88499 0.85321 0.0
C2209 C 0.14529 0.8851 0.86052 0.0
C2210 C 0.14602 0.87743 0.86747 0.0
C2211 C 0.1299 0.87019 0.86035 0.0
C2212 C 0.12941 0.87747 0.85324 0.0
C2213 C 0.12001 0.87623 0.84607 0.0
H2214 H 0.07507 0.85139 0.83251 0.0
C2215 C 0.12058 0.86375 0.85869 0.0
C2216 C 0.11479 0.86717 0.85027 0.0
H2217 H 0.08911 0.87604 0.81756 0.0
H2218 H 0.10344 0.87651 0.83002 0.0
H2219 H 0.09776 0.84019 0.8367 0.0
H2220 H 0.07824 0.85918 0.8548 0.0
H2221 H 0.08335 0.85034 0.86299 0.0
H2222 H 0.07456 0.84686 0.85267 0.0
H2223 H 0.08478 0.83683 0.8416 0.0
H2224 H 0.09695 0.83532 0.84898 0.0
C2225 C 0.12454 0.87465 0.83527 0.0
C2226 C 0.11252 0.8851 0.84712 0.0
C2227 C 0.11305 0.83723 0.88404 0.0
C2228 C 0.10441 0.83077 0.88529 0.0
C2229 C 0.0963 0.83036 0.87776 0.0
C2230 C 0.0966 0.83651 0.86934 0.0
C2231 C 0.10507 0.84321 0.86845 0.0
C2232 C 0.11316 0.84339 0.87568 0.0
C2233 C 0.12133 0.85116 0.87374 0.0
C2234 C 0.11675 0.85569 0.8642 0.0
C2235 C 0.10725 0.851 0.86111 0.0
C2236 C 0.13244 0.84633 0.87183 0.0
C2237 C 0.12112 0.85819 0.88286 0.0
C2238 C 0.0813 0.85683 0.83185 0.0
C2239 C 0.08095 0.86367 0.82401 0.0
C2240 C 0.08911 0.87074 0.82357 0.0
C2241 C 0.09747 0.87096 0.83078 0.0
C2242 C 0.09769 0.86406 0.83855 0.0
C2243 C 0.08969 0.85714 0.83898 0.0
C2244 C 0.09115 0.85044 0.84781 0.0
C2245 C 0.10148 0.85433 0.85248 0.0
C2246 C 0.10525 0.86235 0.84707 0.0
C2247 C 0.09268 0.84012 0.84364 0.0
C2248 C 0.08132 0.85166 0.85495 0.0
H2249 H 0.13937 0.86445 0.87299 0.0
H2250 H 0.13614 0.89074 0.84773 0.0
H2251 H 0.11175 0.88724 0.85521 0.0
H2252 H 0.10419 0.88373 0.84451 0.0
H2253 H 0.11581 0.89135 0.8429 0.0
H2254 H 0.13242 0.87079 0.83552 0.0
H2255 H 0.12588 0.88162 0.83135 0.0
H2256 H 0.11928 0.87006 0.83053 0.0
H2257 H 0.11952 0.83763 0.88957 0.0
H2258 H 0.0895 0.82552 0.87854 0.0
H2259 H 0.09011 0.83597 0.86397 0.0
H2260 H 0.13145 0.8391 0.86831 0.0
H2261 H 0.13701 0.84536 0.87901 0.0
H2262 H 0.13747 0.85038 0.8664 0.0
H2263 H 0.11271 0.85927 0.8856 0.0
H2264 H 0.12402 0.86547 0.88099 0.0
H2265 H 0.12597 0.85536 0.8893 0.0
H2266 H 0.15251 0.87715 0.87299 0.0
C2267 C 0.1384 0.87 0.86742 0.0
C2268 C 0.85086 0.87146 0.6753 0.0
C2269 C 0.85933 0.86492 0.67715 0.0
C2270 C 0.86104 0.85733 0.67024 0.0
C2271 C 0.84661 0.86333 0.65949 0.0
C2272 C 0.84464 0.87053 0.66647 0.0
C2273 C 0.83565 0.87712 0.66314 0.0
H2274 H 0.8015 0.89174 0.62607 0.0
C2275 C 0.83927 0.8648 0.65077 0.0
C2276 C 0.83277 0.87284 0.6529 0.0
H2277 H 0.80541 0.90395 0.65596 0.0
H2278 H 0.81818 0.89139 0.66033 0.0
H2279 H 0.82613 0.8877 0.62205 0.0
H2280 H 0.80062 0.86983 0.63346 0.0
H2281 H 0.80857 0.86243 0.62571 0.0
H2282 H 0.8018 0.87272 0.62027 0.0
H2283 H 0.81555 0.88302 0.61412 0.0
H2284 H 0.8278 0.87635 0.61647 0.0
C2285 C 0.84033 0.88741 0.66216 0.0
C2286 C 0.82624 0.87621 0.67078 0.0
C2287 C 0.84292 0.84385 0.6193 0.0
C2288 C 0.83781 0.84408 0.60976 0.0
C2289 C 0.82957 0.8509 0.60799 0.0
C2290 C 0.82658 0.85746 0.61551 0.0
C2291 C 0.83192 0.8573 0.62492 0.0
C2292 C 0.83988 0.85053 0.62673 0.0
C2293 C 0.84477 0.85158 0.63713 0.0
C2294 C 0.83838 0.86006 0.64126 0.0
C2295 C 0.83091 0.86337 0.63404 0.0
C2296 C 0.85692 0.854 0.63586 0.0
C2297 C 0.84253 0.84224 0.64315 0.0
C2298 C 0.80514 0.89172 0.63355 0.0
C2299 C 0.80258 0.89889 0.64064 0.0
C2300 C 0.80728 0.89849 0.65038 0.0
C2301 C 0.81473 0.89123 0.65287 0.0
C2302 C 0.81748 0.8843 0.64555 0.0
C2303 C 0.81253 0.88452 0.63616 0.0
C2304 C 0.81621 0.8765 0.62938 0.0
C2305 C 0.82433 0.87147 0.63618 0.0
C2306 C 0.82514 0.87611 0.64561 0.0
C2307 C 0.82166 0.88104 0.61995 0.0
C2308 C 0.80633 0.87003 0.62697 0.0
H2309 H 0.85656 0.85067 0.65641 0.0
H2310 H 0.84923 0.87728 0.68053 0.0
H2311 H 0.82582 0.86882 0.67398 0.0
H2312 H 0.81824 0.87739 0.66724 0.0
H2313 H 0.82727 0.88129 0.67722 0.0
H2314 H 0.84846 0.88721 0.65861 0.0
H2315 H 0.84119 0.89086 0.66972 0.0
H2316 H 0.83543 0.89215 0.65727 0.0
H2317 H 0.84933 0.83874 0.62086 0.0
H2318 H 0.8254 0.85112 0.60077 0.0
H2319 H 0.8203 0.86247 0.61365 0.0
H2320 H 0.85818 0.85882 0.62924 0.0
H2321 H 0.86176 0.84739 0.63458 0.0
H2322 H 0.86035 0.85797 0.64235 0.0
H2323 H 0.83449 0.8392 0.64111 0.0
H2324 H 0.84217 0.84343 0.65141 0.0
H2325 H 0.84871 0.83666 0.64149 0.0
H2326 H 0.86755 0.85224 0.67142 0.0
C2327 C 0.85471 0.85649 0.66146 0.0
C2328 C 0.81727 0.11527 0.35355 0.0
C2329 C 0.81743 0.1063 0.34863 0.0
C2330 C 0.82363 0.10525 0.33975 0.0
C2331 C 0.83001 0.12166 0.34136 0.0
C2332 C 0.82359 0.1228 0.34981 0.0
C2333 C 0.8248 0.1326 0.3545 0.0
H2334 H 0.85194 0.17462 0.3571 0.0
C2335 C 0.83616 0.13065 0.33988 0.0
C2336 C 0.83305 0.13713 0.3475 0.0
H2337 H 0.82696 0.16413 0.37708 0.0
H2338 H 0.82414 0.15044 0.3662 0.0
H2339 H 0.86363 0.1546 0.35446 0.0
H2340 H 0.83991 0.16912 0.33609 0.0
H2341 H 0.8486 0.16315 0.32768 0.0
H2342 H 0.85392 0.17243 0.33588 0.0
H2343 H 0.86647 0.16533 0.34741 0.0
H2344 H 0.8677 0.15362 0.34177 0.0
C2345 C 0.82926 0.13127 0.36541 0.0
C2346 C 0.81373 0.13779 0.35389 0.0
C2347 C 0.86589 0.13206 0.31346 0.0
C2348 C 0.87337 0.13923 0.31079 0.0
C2349 C 0.87252 0.1484 0.31529 0.0
C2350 C 0.86466 0.15026 0.32264 0.0
C2351 C 0.85761 0.14288 0.3256 0.0
C2352 C 0.85809 0.13405 0.32083 0.0
C2353 C 0.84976 0.12714 0.3248 0.0
C2354 C 0.8444 0.13322 0.33292 0.0
C2355 C 0.84914 0.14238 0.33344 0.0
C2356 C 0.85578 0.11836 0.32934 0.0
C2357 C 0.84184 0.12466 0.31606 0.0
C2358 C 0.84584 0.16938 0.35912 0.0
C2359 C 0.83976 0.17043 0.36804 0.0
C2360 C 0.83173 0.16355 0.37025 0.0
C2361 C 0.83018 0.15553 0.36397 0.0
C2362 C 0.8368 0.1543 0.35544 0.0
C2363 C 0.84428 0.16128 0.353 0.0
C2364 C 0.85072 0.15871 0.34374 0.0
C2365 C 0.84602 0.14893 0.34115 0.0
C2366 C 0.83793 0.14635 0.34807 0.0
C2367 C 0.86278 0.15807 0.3469 0.0
C2368 C 0.84828 0.16624 0.33539 0.0
H2369 H 0.83459 0.11157 0.32941 0.0
H2370 H 0.81246 0.11638 0.36029 0.0
H2371 H 0.80935 0.13583 0.34681 0.0
H2372 H 0.81451 0.1457 0.35359 0.0
H2373 H 0.8085 0.13579 0.36038 0.0
H2374 H 0.83506 0.12516 0.36575 0.0
H2375 H 0.82264 0.12972 0.37083 0.0
H2376 H 0.83391 0.13751 0.36817 0.0
H2377 H 0.86621 0.12501 0.31 0.0
H2378 H 0.87819 0.15404 0.31338 0.0
H2379 H 0.86458 0.15731 0.32594 0.0
H2380 H 0.86309 0.12072 0.33361 0.0
H2381 H 0.85846 0.11337 0.32328 0.0
H2382 H 0.85093 0.1143 0.33485 0.0
H2383 H 0.84095 0.1308 0.31071 0.0
H2384 H 0.83354 0.12324 0.31876 0.0
H2385 H 0.84474 0.11837 0.31164 0.0
H2386 H 0.82395 0.09841 0.33584 0.0
C2387 C 0.82988 0.11288 0.33607 0.0
C2388 C 0.67275 0.10543 0.14152 0.0
C2389 C 0.6816 0.10581 0.13485 0.0
C2390 C 0.68317 0.11418 0.12901 0.0
C2391 C 0.66697 0.1213 0.13604 0.0
C2392 C 0.66556 0.11321 0.14197 0.0
C2393 C 0.65552 0.11382 0.14834 0.0
H2394 H 0.60925 0.13726 0.16004 0.0
C2395 C 0.65776 0.12783 0.13786 0.0
C2396 C 0.65102 0.12351 0.14508 0.0
H2397 H 0.62139 0.11069 0.17278 0.0
H2398 H 0.63742 0.11193 0.16253 0.0
H2399 H 0.63224 0.14853 0.16124 0.0
H2400 H 0.61583 0.1331 0.13746 0.0
H2401 H 0.62172 0.14328 0.13189 0.0
H2402 H 0.61159 0.14482 0.14156 0.0
H2403 H 0.62048 0.15319 0.15492 0.0
H2404 H 0.63389 0.15515 0.15002 0.0
C2405 C 0.65894 0.11379 0.15964 0.0
C2406 C 0.64796 0.10543 0.14525 0.0
C2407 C 0.65425 0.15854 0.11728 0.0
C2408 C 0.6461 0.16558 0.11651 0.0
C2409 C 0.63707 0.16495 0.12298 0.0
C2410 C 0.63607 0.15737 0.12991 0.0
C2411 C 0.64413 0.15027 0.13036 0.0
C2412 C 0.65306 0.15096 0.12416 0.0
C2413 C 0.66064 0.14258 0.12541 0.0
C2414 C 0.65481 0.13676 0.13344 0.0
C2415 C 0.64516 0.1413 0.13631 0.0
C2416 C 0.67162 0.14646 0.12933 0.0
C2417 C 0.66124 0.13718 0.11514 0.0
C2418 C 0.61541 0.13176 0.16074 0.0
C2419 C 0.61398 0.12384 0.16721 0.0
C2420 C 0.62218 0.11679 0.16774 0.0
C2421 C 0.63152 0.11754 0.16182 0.0
C2422 C 0.63272 0.12543 0.15526 0.0
C2423 C 0.6248 0.13243 0.1549 0.0
C2424 C 0.6275 0.14036 0.1476 0.0
C2425 C 0.63834 0.13695 0.14362 0.0
C2426 C 0.64131 0.12816 0.14806 0.0
C2427 C 0.62853 0.14985 0.15367 0.0
C2428 C 0.61871 0.14051 0.13919 0.0
H2429 H 0.67754 0.12801 0.12486 0.0
H2430 H 0.67138 0.09918 0.14622 0.0
H2431 H 0.64805 0.10436 0.1369 0.0
H2432 H 0.63941 0.10673 0.14716 0.0
H2433 H 0.65059 0.09858 0.14884 0.0
H2434 H 0.66692 0.11736 0.16071 0.0
H2435 H 0.65966 0.10634 0.16259 0.0
H2436 H 0.65334 0.11791 0.16449 0.0
H2437 H 0.66137 0.15882 0.11255 0.0
H2438 H 0.63058 0.17016 0.12248 0.0
H2439 H 0.62893 0.15725 0.1345 0.0
H2440 H 0.67038 0.15247 0.13478 0.0
H2441 H 0.67662 0.14922 0.123 0.0
H2442 H 0.67631 0.14103 0.13359 0.0
H2443 H 0.65341 0.13761 0.11099 0.0
H2444 H 0.66275 0.12939 0.116 0.0
H2445 H 0.66755 0.14031 0.11018 0.0
H2446 H 0.68982 0.11465 0.12372 0.0
C2447 C 0.67595 0.12192 0.1296 0.0
C2448 C 0.65122 0.8146 0.87326 0.0
C2449 C 0.64504 0.80668 0.86998 0.0
C2450 C 0.64036 0.80693 0.86022 0.0
C2451 C 0.64734 0.823 0.85755 0.0
C2452 C 0.65229 0.82262 0.86693 0.0
C2453 C 0.65838 0.8317 0.86935 0.0
H2454 H 0.67055 0.87765 0.85725 0.0
C2455 C 0.64959 0.83252 0.85308 0.0
C2456 C 0.6562 0.83761 0.85989 0.0
H2457 H 0.68017 0.86172 0.88393 0.0
H2458 H 0.67156 0.84747 0.8773 0.0
H2459 H 0.67613 0.86116 0.84127 0.0
H2460 H 0.64641 0.86909 0.85596 0.0
H2461 H 0.64376 0.86744 0.84297 0.0
H2462 H 0.65315 0.87657 0.84687 0.0
H2463 H 0.6682 0.8712 0.83703 0.0
H2464 H 0.66574 0.85916 0.83242 0.0
C2465 C 0.67052 0.82916 0.87051 0.0
C2466 C 0.65322 0.83626 0.8789 0.0
C2467 C 0.63008 0.84278 0.82094 0.0
C2468 C 0.63008 0.85135 0.81527 0.0
C2469 C 0.63755 0.85863 0.81786 0.0
C2470 C 0.6444 0.85762 0.82627 0.0
C2471 C 0.64382 0.84926 0.83219 0.0
C2472 C 0.63703 0.84187 0.82928 0.0
C2473 C 0.63782 0.83335 0.83626 0.0
C2474 C 0.6459 0.837 0.84405 0.0
C2475 C 0.64925 0.84638 0.84171 0.0
C2476 C 0.64231 0.8247 0.83016 0.0
C2477 C 0.62652 0.83163 0.84095 0.0
C2478 C 0.67095 0.87106 0.86159 0.0
C2479 C 0.67598 0.87084 0.87116 0.0
C2480 C 0.67619 0.86212 0.87661 0.0
C2481 C 0.67122 0.85385 0.87274 0.0
C2482 C 0.66588 0.85427 0.86333 0.0
C2483 C 0.66596 0.86274 0.85785 0.0
C2484 C 0.65982 0.86189 0.84804 0.0
C2485 C 0.65597 0.85153 0.84857 0.0
C2486 C 0.65947 0.84714 0.85758 0.0
C2487 C 0.6678 0.86349 0.83918 0.0
C2488 C 0.6503 0.86913 0.84837 0.0
H2489 H 0.6376 0.81482 0.84673 0.0
H2490 H 0.65487 0.81472 0.88073 0.0
H2491 H 0.64428 0.83543 0.87875 0.0
H2492 H 0.65458 0.84408 0.87948 0.0
H2493 H 0.65627 0.83277 0.88592 0.0
H2494 H 0.67281 0.82315 0.86537 0.0
H2495 H 0.67245 0.82689 0.87838 0.0
H2496 H 0.6759 0.83515 0.86834 0.0
H2497 H 0.62449 0.83702 0.81921 0.0
H2498 H 0.63799 0.86519 0.81347 0.0
H2499 H 0.64973 0.8635 0.82796 0.0
H2500 H 0.64732 0.82712 0.82366 0.0
H2501 H 0.63568 0.82019 0.82706 0.0
H2502 H 0.64781 0.82014 0.83473 0.0
H2503 H 0.62279 0.83857 0.84327 0.0
H2504 H 0.62676 0.8272 0.84787 0.0
H2505 H 0.621 0.82813 0.83541 0.0
H2506 H 0.63577 0.80087 0.85738 0.0
C2507 C 0.64149 0.81503 0.854 0.0
C2508 C 0.86135 0.11915 0.82052 0.0
C2509 C 0.8693 0.12619 0.81879 0.0
C2510 C 0.86795 0.1354 0.82309 0.0
C2511 C 0.85125 0.13035 0.83099 0.0
C2512 C 0.85242 0.12138 0.8266 0.0
C2513 C 0.84337 0.11468 0.82941 0.0
H2514 H 0.79861 0.10628 0.85741 0.0
C2515 C 0.84129 0.13026 0.83712 0.0
C2516 C 0.83655 0.12113 0.83614 0.0
H2517 H 0.81535 0.08641 0.83775 0.0
H2518 H 0.82756 0.09906 0.8326 0.0
H2519 H 0.82007 0.11612 0.86665 0.0
H2520 H 0.79838 0.12378 0.84246 0.0
H2521 H 0.80288 0.1347 0.84764 0.0
H2522 H 0.79526 0.12645 0.85541 0.0
H2523 H 0.80624 0.1196 0.8685 0.0
H2524 H 0.81685 0.12838 0.8679 0.0
C2525 C 0.84829 0.10611 0.83534 0.0
C2526 C 0.83727 0.1118 0.8196 0.0
C2527 C 0.83204 0.15898 0.85938 0.0
C2528 C 0.82341 0.16088 0.86602 0.0
C2529 C 0.81478 0.15426 0.86649 0.0
C2530 C 0.81502 0.14571 0.86091 0.0
C2531 C 0.82396 0.14369 0.85475 0.0
C2532 C 0.8321 0.1504 0.85378 0.0
C2533 C 0.84069 0.14719 0.84647 0.0
C2534 C 0.83652 0.1373 0.8435 0.0
C2535 C 0.82682 0.13524 0.84852 0.0
C2536 C 0.85156 0.14659 0.8523 0.0
C2537 C 0.84074 0.15424 0.83737 0.0
C2538 C 0.80494 0.10464 0.85202 0.0
C2539 C 0.80611 0.09531 0.84809 0.0
C2540 C 0.81427 0.09354 0.84089 0.0
C2541 C 0.8214 0.10088 0.83797 0.0
C2542 C 0.82039 0.11008 0.84232 0.0
C2543 C 0.81212 0.11186 0.84908 0.0
C2544 C 0.81223 0.122 0.85298 0.0
C2545 C 0.82205 0.12601 0.8476 0.0
C2546 C 0.82685 0.11899 0.8414 0.0
C2547 C 0.81387 0.12159 0.86462 0.0
C2548 C 0.80164 0.12703 0.84954 0.0
H2549 H 0.85852 0.14461 0.83229 0.0
H2550 H 0.86207 0.11203 0.81726 0.0
H2551 H 0.83688 0.11794 0.81421 0.0
H2552 H 0.82876 0.10982 0.82098 0.0
H2553 H 0.8414 0.10575 0.8157 0.0
H2554 H 0.85496 0.10858 0.84039 0.0
H2555 H 0.85169 0.10065 0.83009 0.0
H2556 H 0.84247 0.10258 0.84043 0.0
H2557 H 0.8388 0.16388 0.85877 0.0
H2558 H 0.80786 0.15564 0.87127 0.0
H2559 H 0.8083 0.14091 0.86175 0.0
H2560 H 0.85037 0.14329 0.85989 0.0
H2561 H 0.85508 0.15386 0.85346 0.0
H2562 H 0.85762 0.14203 0.84851 0.0
H2563 H 0.83264 0.15754 0.83617 0.0
H2564 H 0.84256 0.15061 0.83011 0.0
H2565 H 0.84659 0.16019 0.83859 0.0
H2566 H 0.874 0.14093 0.82201 0.0
C2567 C 0.85898 0.13752 0.82914 0.0
C2568 C 0.63412 0.17119 0.58865 0.0
C2569 C 0.62777 0.17934 0.59074 0.0
C2570 C 0.62329 0.1804 0.60049 0.0
C2571 C 0.6311 0.16516 0.60567 0.0
C2572 C 0.63566 0.16423 0.59618 0.0
C2573 C 0.64196 0.15505 0.59507 0.0
H2574 H 0.65686 0.11196 0.61421 0.0
C2575 C 0.63396 0.1565 0.6116 0.0
C2576 C 0.64036 0.15057 0.60543 0.0
H2577 H 0.66465 0.12405 0.58495 0.0
H2578 H 0.65536 0.13868 0.58932 0.0
H2579 H 0.66211 0.13133 0.62691 0.0
H2580 H 0.63265 0.11932 0.61498 0.0
H2581 H 0.62981 0.12369 0.62716 0.0
H2582 H 0.63967 0.11425 0.62564 0.0
H2583 H 0.65554 0.12124 0.6327 0.0
H2584 H 0.65202 0.13346 0.63596 0.0
C2585 C 0.65396 0.15766 0.59314 0.0
C2586 C 0.63659 0.14903 0.58654 0.0
C2587 C 0.61865 0.1519 0.64696 0.0
C2588 C 0.61925 0.14429 0.65394 0.0
C2589 C 0.62582 0.13628 0.65169 0.0
C2590 C 0.63146 0.13574 0.64253 0.0
C2591 C 0.63049 0.14326 0.63548 0.0
C2592 C 0.62428 0.15122 0.6378 0.0
C2593 C 0.62406 0.15843 0.6293 0.0
C2594 C 0.63114 0.15346 0.62151 0.0
C2595 C 0.63483 0.14456 0.62516 0.0
C2596 C 0.62923 0.16789 0.6332 0.0
C2597 C 0.61221 0.15948 0.6256 0.0
C2598 C 0.65669 0.1178 0.60879 0.0
C2599 C 0.66142 0.11678 0.59917 0.0
C2600 C 0.6609 0.12456 0.59233 0.0
C2601 C 0.65554 0.13308 0.5949 0.0
C2602 C 0.65058 0.13388 0.60442 0.0
C2603 C 0.65136 0.12638 0.61125 0.0
C2604 C 0.64566 0.12854 0.62104 0.0
C2605 C 0.64127 0.13854 0.61892 0.0
C2606 C 0.6441 0.14159 0.60915 0.0
C2607 C 0.65419 0.1286 0.62967 0.0
C2608 C 0.6365 0.12106 0.62239 0.0
H2609 H 0.62121 0.17455 0.61518 0.0
H2610 H 0.63784 0.17022 0.5813 0.0
H2611 H 0.62764 0.1497 0.58683 0.0
H2612 H 0.63818 0.14125 0.58722 0.0
H2613 H 0.63926 0.1515 0.57895 0.0
H2614 H 0.65621 0.16445 0.59707 0.0
H2615 H 0.65554 0.15867 0.58493 0.0
H2616 H 0.65964 0.15223 0.59619 0.0
H2617 H 0.61358 0.1581 0.64841 0.0
H2618 H 0.62652 0.13038 0.65701 0.0
H2619 H 0.63622 0.12941 0.64124 0.0
H2620 H 0.63604 0.16635 0.63849 0.0
H2621 H 0.62323 0.17234 0.63734 0.0
H2622 H 0.63284 0.17223 0.62709 0.0
H2623 H 0.60794 0.15245 0.6259 0.0
H2624 H 0.61156 0.16176 0.61762 0.0
H2625 H 0.60766 0.16462 0.63041 0.0
H2626 H 0.61829 0.18656 0.60228 0.0
C2627 C 0.62493 0.17337 0.60795 0.0
C2628 C 0.66948 0.87997 0.33771 0.0
C2629 C 0.67747 0.87935 0.3453 0.0
C2630 C 0.67851 0.87074 0.35085 0.0
C2631 C 0.6631 0.86399 0.34204 0.0
C2632 C 0.66239 0.87223 0.33622 0.0
C2633 C 0.65311 0.8718 0.32882 0.0
H2634 H 0.60802 0.84913 0.31212 0.0
C2635 C 0.65402 0.85763 0.33924 0.0
C2636 C 0.64816 0.86212 0.33145 0.0
H2637 H 0.62225 0.87535 0.30069 0.0
H2638 H 0.63692 0.87386 0.31266 0.0
H2639 H 0.63101 0.8372 0.31402 0.0
H2640 H 0.61187 0.85349 0.33517 0.0
H2641 H 0.617 0.8435 0.34173 0.0
H2642 H 0.60801 0.84166 0.33111 0.0
H2643 H 0.61801 0.83329 0.31839 0.0
H2644 H 0.63017 0.83065 0.3254 0.0
C2645 C 0.65779 0.87193 0.31794 0.0
C2646 C 0.64533 0.88024 0.33119 0.0
C2647 C 0.64734 0.82751 0.35989 0.0
C2648 C 0.63877 0.82088 0.36028 0.0
C2649 C 0.63041 0.8216 0.35301 0.0
C2650 C 0.63044 0.82895 0.34571 0.0
C2651 C 0.63888 0.83573 0.34571 0.0
C2652 C 0.64715 0.83489 0.3527 0.0
C2653 C 0.65514 0.84298 0.35202 0.0
C2654 C 0.65034 0.84883 0.34342 0.0
C2655 C 0.64085 0.84454 0.3397 0.0
C2656 C 0.66629 0.83869 0.34915 0.0
C2657 C 0.65497 0.84852 0.36223 0.0
C2658 C 0.61437 0.85448 0.31209 0.0
C2659 C 0.61392 0.86239 0.30545 0.0
C2660 C 0.6223 0.86927 0.30581 0.0
C2661 C 0.63085 0.86836 0.31273 0.0
C2662 C 0.63106 0.86051 0.31943 0.0
C2663 C 0.62298 0.85368 0.31896 0.0
C2664 C 0.62455 0.8458 0.32664 0.0
C2665 C 0.63498 0.84899 0.33171 0.0
C2666 C 0.63869 0.85767 0.32753 0.0
C2667 C 0.62595 0.83618 0.32089 0.0
C2668 C 0.61486 0.84602 0.33404 0.0
H2669 H 0.67253 0.85679 0.35385 0.0
H2670 H 0.66848 0.88648 0.33331 0.0
H2671 H 0.64429 0.88106 0.33952 0.0
H2672 H 0.63711 0.87916 0.32814 0.0
H2673 H 0.64854 0.88713 0.32821 0.0
H2674 H 0.66595 0.86858 0.31771 0.0
H2675 H 0.65857 0.8794 0.31506 0.0
H2676 H 0.6529 0.86766 0.31255 0.0
H2677 H 0.65401 0.82713 0.36521 0.0
H2678 H 0.62363 0.81668 0.35315 0.0
H2679 H 0.62378 0.82919 0.3405 0.0
H2680 H 0.66533 0.83249 0.34389 0.0
H2681 H 0.67068 0.83608 0.35597 0.0
H2682 H 0.67146 0.84384 0.34504 0.0
H2683 H 0.64678 0.84837 0.36568 0.0
H2684 H 0.6568 0.85625 0.36142 0.0
H2685 H 0.66069 0.8453 0.36778 0.0
H2686 H 0.68476 0.86998 0.35657 0.0
C2687 C 0.67141 0.86307 0.34924 0.0
C2688 C 0.82567 0.8749 0.10545 0.0
C2689 C 0.82411 0.88297 0.11172 0.0
C2690 C 0.82894 0.88306 0.12142 0.0
C2691 C 0.83729 0.8676 0.11815 0.0
C2692 C 0.83229 0.86737 0.10878 0.0
C2693 C 0.83524 0.85854 0.1028 0.0
H2694 H 0.86598 0.81861 0.09791 0.0
C2695 C 0.8442 0.85896 0.11901 0.0
C2696 C 0.84301 0.85361 0.11005 0.0
H2697 H 0.84216 0.82986 0.07696 0.0
H2698 H 0.83792 0.84262 0.08864 0.0
H2699 H 0.87606 0.83841 0.10411 0.0
H2700 H 0.85105 0.82167 0.11826 0.0
H2701 H 0.85962 0.82601 0.12788 0.0
H2702 H 0.865 0.8181 0.11831 0.0
H2703 H 0.87899 0.82771 0.1112 0.0
H2704 H 0.87804 0.83931 0.11724 0.0
C2705 C 0.84091 0.86184 0.09295 0.0
C2706 C 0.82483 0.85255 0.10108 0.0
C2707 C 0.86832 0.85465 0.1499 0.0
C2708 C 0.87649 0.84798 0.15238 0.0
C2709 C 0.8784 0.84022 0.14572 0.0
C2710 C 0.87246 0.83922 0.13672 0.0
C2711 C 0.86457 0.84611 0.13423 0.0
C2712 C 0.86258 0.85363 0.1408 0.0
C2713 C 0.85426 0.86051 0.13672 0.0
C2714 C 0.85152 0.85584 0.12664 0.0
C2715 C 0.85757 0.84739 0.12523 0.0
C2716 C 0.85972 0.87047 0.13537 0.0
C2717 C 0.84447 0.8605 0.144 0.0
C2718 C 0.85976 0.82375 0.09589 0.0
C2719 C 0.85447 0.82325 0.08644 0.0
C2720 C 0.8465 0.83017 0.0841 0.0
C2721 C 0.84401 0.83755 0.09092 0.0
C2722 C 0.84955 0.83809 0.10021 0.0
C2723 C 0.85717 0.83118 0.10263 0.0
C2724 C 0.8622 0.83289 0.11287 0.0
C2725 C 0.85636 0.84197 0.11617 0.0
C2726 C 0.84903 0.84501 0.10869 0.0
C2727 C 0.87448 0.83461 0.11138 0.0
C2728 C 0.85943 0.82422 0.11974 0.0
H2729 H 0.83905 0.876 0.13206 0.0
H2730 H 0.82194 0.87451 0.09802 0.0
H2731 H 0.81914 0.85337 0.10753 0.0
H2732 H 0.82644 0.84473 0.10067 0.0
H2733 H 0.82052 0.85486 0.0941 0.0
H2734 H 0.84626 0.86811 0.09445 0.0
H2735 H 0.83491 0.86404 0.08712 0.0
H2736 H 0.84627 0.85631 0.08969 0.0
H2737 H 0.8665 0.86064 0.15484 0.0
H2738 H 0.88473 0.83505 0.1473 0.0
H2739 H 0.87442 0.83323 0.13193 0.0
H2740 H 0.86842 0.86967 0.13344 0.0
H2741 H 0.85923 0.8748 0.14242 0.0
H2742 H 0.85628 0.87466 0.12903 0.0
H2743 H 0.84284 0.85312 0.14684 0.0
H2744 H 0.83688 0.86279 0.14028 0.0
H2745 H 0.846 0.86519 0.15067 0.0
H2746 H 0.82796 0.8892 0.12638 0.0
C2747 C 0.83547 0.87542 0.12467 0.0
C2748 C 0.14152 0.66572 0.09474 0.0
C2749 C 0.13477 0.67353 0.09715 0.0
C2750 C 0.13011 0.67396 0.10688 0.0
C2751 C 0.13829 0.65866 0.11128 0.0
C2752 C 0.14313 0.65839 0.10186 0.0
C2753 C 0.14961 0.64938 0.10027 0.0
H2754 H 0.16388 0.60501 0.11632 0.0
C2755 C 0.14106 0.64964 0.11663 0.0
C2756 C 0.14773 0.64419 0.11022 0.0
H2757 H 0.17285 0.61922 0.08846 0.0
H2758 H 0.16351 0.63357 0.09377 0.0
H2759 H 0.1684 0.62379 0.13099 0.0
H2760 H 0.14007 0.61194 0.1167 0.0
H2761 H 0.13609 0.61595 0.12872 0.0
H2762 H 0.14612 0.60658 0.12771 0.0
H2763 H 0.16216 0.61285 0.13518 0.0
H2764 H 0.15782 0.62444 0.13981 0.0
C2765 C 0.16163 0.65224 0.09892 0.0
C2766 C 0.14464 0.64388 0.09116 0.0
C2767 C 0.12415 0.64233 0.1508 0.0
C2768 C 0.12417 0.63407 0.15694 0.0
C2769 C 0.1307 0.62619 0.15423 0.0
C2770 C 0.13695 0.62643 0.14541 0.0
C2771 C 0.13654 0.63458 0.13913 0.0
C2772 C 0.1303 0.64239 0.14191 0.0
C2773 C 0.13044 0.65024 0.13407 0.0
C2774 C 0.13784 0.64586 0.12614 0.0
C2775 C 0.14137 0.6367 0.12916 0.0
C2776 C 0.13546 0.65933 0.13894 0.0
C2777 C 0.11875 0.65161 0.13004 0.0
C2778 C 0.16398 0.61126 0.11143 0.0
C2779 C 0.16904 0.61094 0.10191 0.0
C2780 C 0.16885 0.61922 0.09575 0.0
C2781 C 0.16345 0.62756 0.09886 0.0
C2782 C 0.1581 0.62765 0.10823 0.0
C2783 C 0.15859 0.61965 0.11442 0.0
C2784 C 0.15242 0.62105 0.12411 0.0
C2785 C 0.1481 0.63118 0.12268 0.0
C2786 C 0.15137 0.63497 0.11333 0.0
C2787 C 0.16054 0.62045 0.13305 0.0
C2788 C 0.14322 0.61348 0.12444 0.0
H2789 H 0.12795 0.66727 0.12116 0.0
H2790 H 0.14539 0.66523 0.08741 0.0
H2791 H 0.13567 0.64442 0.09122 0.0
H2792 H 0.14635 0.6361 0.09128 0.0
H2793 H 0.14751 0.6469 0.08386 0.0
H2794 H 0.16363 0.65877 0.10343 0.0
H2795 H 0.16347 0.65383 0.09087 0.0
H2796 H 0.16728 0.64667 0.10173 0.0
H2797 H 0.11904 0.64842 0.15262 0.0
H2798 H 0.13085 0.61978 0.15889 0.0
H2799 H 0.14166 0.62016 0.1437 0.0
H2800 H 0.14225 0.65737 0.14409 0.0
H2801 H 0.12937 0.66332 0.14348 0.0
H2802 H 0.13903 0.66426 0.13332 0.0
H2803 H 0.11431 0.64465 0.12991 0.0
H2804 H 0.11843 0.65416 0.12213 0.0
H2805 H 0.11412 0.65666 0.1349 0.0
H2806 H 0.12481 0.67985 0.10893 0.0
C2807 C 0.13186 0.6666 0.11395 0.0
C2808 C 0.16702 0.38054 0.83974 0.0
C2809 C 0.1741 0.38082 0.84811 0.0
C2810 C 0.17407 0.3731 0.85503 0.0
C2811 C 0.15978 0.36527 0.8455 0.0
C2812 C 0.15996 0.37275 0.83861 0.0
C2813 C 0.15167 0.37151 0.83035 0.0
H2814 H 0.10863 0.34732 0.81169 0.0
C2815 C 0.15121 0.35849 0.84235 0.0
C2816 C 0.14646 0.36208 0.83344 0.0
H2817 H 0.12368 0.37295 0.79966 0.0
H2818 H 0.13741 0.37216 0.81263 0.0
H2819 H 0.13093 0.33588 0.81518 0.0
H2820 H 0.11097 0.3527 0.83512 0.0
H2821 H 0.11469 0.34209 0.8415 0.0
H2822 H 0.1069 0.34129 0.83 0.0
H2823 H 0.11872 0.33116 0.8205 0.0
H2824 H 0.13151 0.33029 0.82709 0.0
C2825 C 0.15767 0.37063 0.8201 0.0
C2826 C 0.14366 0.38006 0.83097 0.0
C2827 C 0.1427 0.32946 0.86427 0.0
C2828 C 0.13503 0.32202 0.86349 0.0
C2829 C 0.12811 0.3218 0.85497 0.0
C2830 C 0.12868 0.32893 0.84749 0.0
C2831 C 0.13624 0.33641 0.8485 0.0
C2832 C 0.14319 0.33651 0.85671 0.0
C2833 C 0.1508 0.34494 0.85648 0.0
C2834 C 0.14725 0.34989 0.84678 0.0
C2835 C 0.13865 0.34492 0.84219 0.0
C2836 C 0.1625 0.34102 0.85574 0.0
C2837 C 0.1486 0.35121 0.86596 0.0
C2838 C 0.11497 0.35269 0.81173 0.0
C2839 C 0.11496 0.36028 0.80467 0.0
C2840 C 0.12334 0.36714 0.80511 0.0
C2841 C 0.13134 0.36665 0.81264 0.0
C2842 C 0.13099 0.35924 0.81985 0.0
C2843 C 0.12303 0.3523 0.81919 0.0
C2844 C 0.12405 0.34485 0.82741 0.0
C2845 C 0.13378 0.34859 0.83323 0.0
C2846 C 0.13775 0.35706 0.82882 0.0
C2847 C 0.12635 0.33499 0.82236 0.0
C2848 C 0.11361 0.34515 0.83386 0.0
H2849 H 0.16727 0.35975 0.85936 0.0
H2850 H 0.16693 0.38628 0.8342 0.0
H2851 H 0.14192 0.38192 0.83901 0.0
H2852 H 0.13569 0.37848 0.82759 0.0
H2853 H 0.14704 0.38657 0.82728 0.0
H2854 H 0.16564 0.36704 0.82108 0.0
H2855 H 0.15916 0.37782 0.81672 0.0
H2856 H 0.15329 0.3661 0.81456 0.0
H2857 H 0.14807 0.32995 0.87074 0.0
H2858 H 0.12226 0.31608 0.85406 0.0
H2859 H 0.12314 0.32839 0.84124 0.0
H2860 H 0.16277 0.33431 0.85114 0.0
H2861 H 0.16583 0.33932 0.86335 0.0
H2862 H 0.16803 0.34602 0.85184 0.0
H2863 H 0.13981 0.35136 0.86775 0.0
H2864 H 0.15084 0.35883 0.86491 0.0
H2865 H 0.15291 0.34835 0.87271 0.0
H2866 H 0.17934 0.37317 0.8616 0.0
C2867 C 0.16698 0.36534 0.85376 0.0
C2868 C 0.32598 0.37597 0.59981 0.0
C2869 C 0.32477 0.38444 0.60552 0.0
C2870 C 0.3295 0.38492 0.61525 0.0
C2871 C 0.33716 0.369 0.61305 0.0
C2872 C 0.3322 0.3684 0.60368 0.0
C2873 C 0.33474 0.35912 0.59833 0.0
H2874 H 0.36383 0.31803 0.59607 0.0
C2875 C 0.34368 0.3602 0.61451 0.0
C2876 C 0.34226 0.35437 0.60592 0.0
H2877 H 0.34047 0.3288 0.57441 0.0
H2878 H 0.33657 0.34222 0.58535 0.0
H2879 H 0.37468 0.33813 0.60099 0.0
H2880 H 0.3493 0.3226 0.61606 0.0
H2881 H 0.35781 0.32742 0.62546 0.0
H2882 H 0.36318 0.31886 0.61653 0.0
H2883 H 0.37729 0.32761 0.60848 0.0
H2884 H 0.37682 0.33944 0.61406 0.0
C2885 C 0.34058 0.3616 0.58829 0.0
C2886 C 0.32406 0.35342 0.59697 0.0
C2887 C 0.36793 0.3571 0.64547 0.0
C2888 C 0.37586 0.35035 0.64836 0.0
C2889 C 0.37735 0.34209 0.64229 0.0
C2890 C 0.37126 0.3407 0.63344 0.0
C2891 C 0.36365 0.34768 0.6305 0.0
C2892 C 0.36204 0.35567 0.63653 0.0
C2893 C 0.35395 0.36254 0.63202 0.0
C2894 C 0.35092 0.35732 0.62232 0.0
C2895 C 0.35662 0.34862 0.62146 0.0
C2896 C 0.35979 0.3722 0.62992 0.0
C2897 C 0.34424 0.36332 0.63935 0.0
C2898 C 0.35791 0.3233 0.59368 0.0
C2899 C 0.3525 0.32237 0.58434 0.0
C2900 C 0.3447 0.3293 0.5816 0.0
C2901 C 0.34249 0.33714 0.58793 0.0
C2902 C 0.34816 0.3381 0.59712 0.0
C2903 C 0.3556 0.33117 0.59994 0.0
C2904 C 0.36072 0.33332 0.61004 0.0
C2905 C 0.35518 0.34271 0.61278 0.0
C2906 C 0.34793 0.34552 0.60513 0.0
C2907 C 0.37303 0.33464 0.60841 0.0
C2908 C 0.35771 0.32513 0.61746 0.0
H2909 H 0.33918 0.37812 0.62642 0.0
H2910 H 0.3223 0.37528 0.59238 0.0
H2911 H 0.31832 0.35496 0.60323 0.0
H2912 H 0.32529 0.34555 0.59726 0.0
H2913 H 0.31997 0.35534 0.58974 0.0
H2914 H 0.34633 0.36766 0.58943 0.0
H2915 H 0.3347 0.36379 0.58234 0.0
H2916 H 0.34556 0.35565 0.58535 0.0
H2917 H 0.36643 0.36347 0.64997 0.0
H2918 H 0.38347 0.33683 0.6442 0.0
H2919 H 0.37289 0.33434 0.6291 0.0
H2920 H 0.36839 0.37098 0.62783 0.0
H2921 H 0.35971 0.37691 0.63672 0.0
H2922 H 0.35635 0.37617 0.62343 0.0
H2923 H 0.34241 0.35621 0.64281 0.0
H2924 H 0.33668 0.3655 0.6355 0.0
H2925 H 0.34598 0.36844 0.6456 0.0
H2926 H 0.32876 0.39137 0.61979 0.0
C2927 C 0.33564 0.37725 0.61905 0.0
C2928 C 0.18475 0.60656 0.63301 0.0
C2929 C 0.19385 0.60756 0.62673 0.0
C2930 C 0.19578 0.6165 0.62205 0.0
C2931 C 0.17927 0.62293 0.62918 0.0
C2932 C 0.1776 0.6143 0.63412 0.0
C2933 C 0.16729 0.61431 0.64013 0.0
H2934 H 0.12021 0.63622 0.65208 0.0
C2935 C 0.16994 0.62925 0.63128 0.0
C2936 C 0.16293 0.62428 0.63777 0.0
H2937 H 0.13207 0.60864 0.66245 0.0
H2938 H 0.14869 0.61108 0.65333 0.0
H2939 H 0.1429 0.64764 0.6555 0.0
H2940 H 0.12817 0.63419 0.62953 0.0
H2941 H 0.13397 0.64499 0.62536 0.0
H2942 H 0.12335 0.64534 0.63467 0.0
H2943 H 0.1315 0.65278 0.64903 0.0
H2944 H 0.14518 0.65519 0.64506 0.0
C2945 C 0.17023 0.61317 0.65149 0.0
C2946 C 0.15989 0.60627 0.63586 0.0
C2947 C 0.1664 0.66106 0.6127 0.0
C2948 C 0.15812 0.66799 0.61219 0.0
C2949 C 0.14909 0.66701 0.61861 0.0
C2950 C 0.14815 0.65912 0.62513 0.0
C2951 C 0.15627 0.65204 0.62522 0.0
C2952 C 0.16528 0.65317 0.61919 0.0
C2953 C 0.17297 0.64483 0.62006 0.0
C2954 C 0.16705 0.63848 0.62755 0.0
C2955 C 0.15725 0.64272 0.63051 0.0
C2956 C 0.1838 0.6486 0.62446 0.0
C2957 C 0.1739 0.64007 0.60947 0.0
C2958 C 0.12644 0.63076 0.65251 0.0
C2959 C 0.12477 0.6222 0.65795 0.0
C2960 C 0.13306 0.61523 0.65818 0.0
C2961 C 0.14274 0.61667 0.65291 0.0
C2962 C 0.14416 0.62516 0.6473 0.0
C2963 C 0.13615 0.63208 0.64728 0.0
C2964 C 0.13908 0.64065 0.64091 0.0
C2965 C 0.15018 0.63772 0.63712 0.0
C2966 C 0.15306 0.6286 0.64081 0.0
C2967 C 0.13964 0.64959 0.64791 0.0
C2968 C 0.13072 0.64144 0.63218 0.0
H2969 H 0.1904 0.63073 0.61933 0.0
H2970 H 0.18312 0.59984 0.63685 0.0
H2971 H 0.16037 0.60601 0.62744 0.0
H2972 H 0.15126 0.60741 0.63752 0.0
H2973 H 0.16234 0.59911 0.6388 0.0
H2974 H 0.17819 0.61652 0.65323 0.0
H2975 H 0.17073 0.60547 0.65367 0.0
H2976 H 0.16446 0.61689 0.65654 0.0
H2977 H 0.17352 0.66164 0.608 0.0
H2978 H 0.14253 0.67216 0.61831 0.0
H2979 H 0.14099 0.6587 0.62967 0.0
H2980 H 0.1824 0.65458 0.62991 0.0
H2981 H 0.18913 0.65137 0.61838 0.0
H2982 H 0.18821 0.64309 0.62888 0.0
H2983 H 0.16599 0.64021 0.60544 0.0
H2984 H 0.17612 0.63239 0.60979 0.0
H2985 H 0.17985 0.64392 0.60467 0.0
H2986 H 0.20266 0.61746 0.6171 0.0
C2987 C 0.18858 0.62418 0.62327 0.0
C2988 C 0.34969 0.36195 0.16807 0.0
C2989 C 0.35619 0.3537 0.16932 0.0
C2990 C 0.35393 0.34552 0.16332 0.0
C2991 C 0.34025 0.35435 0.15405 0.0
C2992 C 0.34172 0.36207 0.16049 0.0
C2993 C 0.33411 0.37023 0.1581 0.0
H2994 H 0.29881 0.39058 0.12523 0.0
C2995 C 0.33219 0.35711 0.14631 0.0
C2996 C 0.32839 0.36634 0.14875 0.0
H2997 H 0.30909 0.40168 0.15427 0.0
H2998 H 0.31961 0.3872 0.15727 0.0
H2999 H 0.32142 0.38222 0.11853 0.0
H3000 H 0.294 0.36934 0.13307 0.0
H3001 H 0.29891 0.36079 0.12444 0.0
H3002 H 0.29408 0.37224 0.11983 0.0
H3003 H 0.30918 0.3794 0.11183 0.0
H3004 H 0.31995 0.37075 0.1132 0.0
C3005 C 0.34091 0.37928 0.15566 0.0
C3006 C 0.32627 0.37152 0.16713 0.0
C3007 C 0.32749 0.33637 0.11481 0.0
C3008 C 0.32171 0.33774 0.10573 0.0
C3009 C 0.31495 0.34585 0.10476 0.0
C3010 C 0.31415 0.3526 0.11258 0.0
C3011 C 0.32027 0.35132 0.12147 0.0
C3012 C 0.3267 0.34325 0.12254 0.0
C3013 C 0.33276 0.3432 0.13245 0.0
C3014 C 0.32896 0.35262 0.13711 0.0
C3015 C 0.32169 0.35733 0.1306 0.0
C3016 C 0.345 0.34332 0.13003 0.0
C3017 C 0.32904 0.33437 0.1387 0.0
C3018 C 0.30336 0.38989 0.13222 0.0
C3019 C 0.30328 0.39727 0.13947 0.0
C3020 C 0.30909 0.39606 0.14858 0.0
C3021 C 0.31518 0.38767 0.15029 0.0
C3022 C 0.31536 0.38043 0.14284 0.0
C3023 C 0.30934 0.38155 0.13409 0.0
C3024 C 0.31015 0.37303 0.12715 0.0
C3025 C 0.31763 0.36655 0.13318 0.0
C3026 C 0.32082 0.37098 0.14228 0.0
C3027 C 0.31537 0.37645 0.1171 0.0
C3028 C 0.29871 0.3686 0.12595 0.0
H3029 H 0.34491 0.33946 0.15123 0.0
H3030 H 0.35103 0.36834 0.17258 0.0
H3031 H 0.3253 0.36472 0.17147 0.0
H3032 H 0.31798 0.37341 0.16465 0.0
H3033 H 0.32925 0.37709 0.1725 0.0
H3034 H 0.34759 0.37744 0.15038 0.0
H3035 H 0.34456 0.38233 0.16266 0.0
H3036 H 0.3362 0.38499 0.1519 0.0
H3037 H 0.33279 0.33023 0.11576 0.0
H3038 H 0.31029 0.34699 0.09789 0.0
H3039 H 0.30894 0.35865 0.11132 0.0
H3040 H 0.34678 0.34876 0.12409 0.0
H3041 H 0.34771 0.3362 0.12719 0.0
H3042 H 0.3501 0.34528 0.13656 0.0
H3043 H 0.32071 0.33212 0.13658 0.0
H3044 H 0.3286 0.33595 0.14691 0.0
H3045 H 0.33446 0.32811 0.13748 0.0
H3046 H 0.35841 0.33891 0.16436 0.0
C3047 C 0.34604 0.34582 0.1557 0.0
C3048 C 0.62707 0.4021 0.08867 0.0
C3049 C 0.62794 0.40933 0.09609 0.0
C3050 C 0.61988 0.41007 0.10356 0.0
C3051 C 0.61085 0.39605 0.09676 0.0
C3052 C 0.61848 0.39554 0.08917 0.0
C3053 C 0.61658 0.38712 0.08221 0.0
H3054 H 0.58997 0.34564 0.07251 0.0
C3055 C 0.60346 0.38779 0.0956 0.0
C3056 C 0.6067 0.38255 0.08705 0.0
H3057 H 0.6156 0.35875 0.0551 0.0
H3058 H 0.61565 0.3724 0.06634 0.0
H3059 H 0.59916 0.35095 0.09443 0.0
H3060 H 0.57617 0.3654 0.07511 0.0
H3061 H 0.57146 0.3664 0.0876 0.0
H3062 H 0.57279 0.35465 0.08191 0.0
H3063 H 0.58595 0.34621 0.0918 0.0
H3064 H 0.5882 0.35467 0.10192 0.0
C3065 C 0.62662 0.38047 0.08281 0.0
C3066 C 0.61409 0.39103 0.07146 0.0
C3067 C 0.57502 0.3818 0.12241 0.0
C3068 C 0.56739 0.37447 0.1239 0.0
C3069 C 0.56648 0.36709 0.11661 0.0
C3070 C 0.57324 0.36692 0.1081 0.0
C3071 C 0.581 0.37421 0.10685 0.0
C3072 C 0.58169 0.38153 0.11389 0.0
C3073 C 0.59037 0.38868 0.1114 0.0
C3074 C 0.59481 0.38444 0.10168 0.0
C3075 C 0.58936 0.37594 0.09907 0.0
C3076 C 0.59881 0.3885 0.12012 0.0
C3077 C 0.58495 0.39859 0.10959 0.0
C3078 C 0.5955 0.3515 0.07102 0.0
C3079 C 0.60289 0.35102 0.06294 0.0
C3080 C 0.60999 0.35881 0.06137 0.0
C3081 C 0.60997 0.36677 0.06788 0.0
C3082 C 0.6028 0.36697 0.0761 0.0
C3083 C 0.59557 0.35952 0.07744 0.0
C3084 C 0.58838 0.36108 0.08646 0.0
C3085 C 0.5926 0.37063 0.0904 0.0
C3086 C 0.60113 0.37399 0.08436 0.0
C3087 C 0.59041 0.3528 0.09408 0.0
C3088 C 0.57655 0.36186 0.08266 0.0
H3089 H 0.60557 0.4044 0.10989 0.0
H3090 H 0.63314 0.40134 0.08284 0.0
H3091 H 0.61005 0.39818 0.07183 0.0
H3092 H 0.60836 0.38643 0.06722 0.0
H3093 H 0.6216 0.39191 0.06698 0.0
H3094 H 0.6295 0.3798 0.09077 0.0
H3095 H 0.63338 0.38339 0.07823 0.0
H3096 H 0.62498 0.37304 0.08032 0.0
H3097 H 0.5758 0.38767 0.12777 0.0
H3098 H 0.56069 0.36134 0.11761 0.0
H3099 H 0.57225 0.36106 0.10289 0.0
H3100 H 0.59984 0.38108 0.12315 0.0
H3101 H 0.59625 0.39317 0.1265 0.0
H3102 H 0.60699 0.39064 0.1177 0.0
H3103 H 0.57672 0.39775 0.10628 0.0
H3104 H 0.58936 0.40306 0.10405 0.0
H3105 H 0.58411 0.40266 0.11679 0.0
H3106 H 0.62024 0.4157 0.10923 0.0
C3107 C 0.61134 0.40351 0.10392 0.0
C3108 C 0.8452 0.64668 0.58957 0.0
C3109 C 0.85247 0.65444 0.58989 0.0
C3110 C 0.86088 0.65441 0.59711 0.0
C3111 C 0.85468 0.63912 0.60362 0.0
C3112 C 0.84639 0.63916 0.59657 0.0
C3113 C 0.83904 0.6306 0.59772 0.0
H3114 H 0.82608 0.58995 0.62326 0.0
C3115 C 0.85356 0.6304 0.60991 0.0
C3116 C 0.84436 0.6254 0.60655 0.0
H3117 H 0.80903 0.60274 0.59799 0.0
H3118 H 0.82242 0.61537 0.59707 0.0
H3119 H 0.84933 0.59239 0.61407 0.0
H3120 H 0.83132 0.6098 0.63502 0.0
H3121 H 0.84464 0.60897 0.63961 0.0
H3122 H 0.8367 0.59819 0.63822 0.0
H3123 H 0.84794 0.58914 0.62715 0.0
H3124 H 0.85873 0.59686 0.62286 0.0
C3125 C 0.83954 0.62463 0.58783 0.0
C3126 C 0.8276 0.63433 0.60043 0.0
C3127 C 0.88149 0.6232 0.63723 0.0
C3128 C 0.88278 0.61553 0.64408 0.0
C3129 C 0.87498 0.60815 0.64422 0.0
C3130 C 0.8661 0.60835 0.63761 0.0
C3131 C 0.86498 0.616 0.63073 0.0
C3132 C 0.87259 0.62326 0.63064 0.0
C3133 C 0.87015 0.63076 0.62274 0.0
C3134 C 0.85988 0.62673 0.61804 0.0
C3135 C 0.85688 0.61812 0.62278 0.0
C3136 C 0.87963 0.6309 0.6151 0.0
C3137 C 0.86812 0.64046 0.62821 0.0
C3138 C 0.82516 0.59554 0.6176 0.0
C3139 C 0.81643 0.59541 0.61076 0.0
C3140 C 0.8157 0.60267 0.60333 0.0
C3141 C 0.82345 0.61002 0.60285 0.0
C3142 C 0.83206 0.6101 0.60984 0.0
C3143 C 0.83283 0.60289 0.617 0.0
C3144 C 0.84261 0.60396 0.62369 0.0
C3145 C 0.84749 0.61313 0.61951 0.0
C3146 C 0.84128 0.61672 0.61142 0.0
C3147 C 0.85006 0.59513 0.62197 0.0
C3148 C 0.83871 0.60524 0.63475 0.0
H3149 H 0.86862 0.6472 0.60924 0.0
H3150 H 0.83858 0.6466 0.58418 0.0
H3151 H 0.8281 0.64078 0.6054 0.0
H3152 H 0.82282 0.62908 0.60479 0.0
H3153 H 0.82302 0.6364 0.59351 0.0
H3154 H 0.84791 0.62448 0.58478 0.0
H3155 H 0.8342 0.62775 0.5819 0.0
H3156 H 0.83737 0.61701 0.58896 0.0
H3157 H 0.8874 0.62893 0.63686 0.0
H3158 H 0.87571 0.60222 0.6495 0.0
H3159 H 0.86046 0.60251 0.6381 0.0
H3160 H 0.88256 0.62347 0.61356 0.0
H3161 H 0.88656 0.63512 0.61811 0.0
H3162 H 0.87733 0.63379 0.60762 0.0
H3163 H 0.86463 0.63932 0.63588 0.0
H3164 H 0.86212 0.64502 0.62425 0.0
H3165 H 0.87575 0.64457 0.62918 0.0
H3166 H 0.86659 0.66031 0.59744 0.0
C3167 C 0.86205 0.64679 0.60394 0.0
C3168 C 0.5933 0.36645 0.59253 0.0
C3169 C 0.59841 0.36651 0.58304 0.0
C3170 C 0.60469 0.37454 0.58027 0.0
C3171 C 0.60098 0.38209 0.59643 0.0
C3172 C 0.59473 0.37427 0.59909 0.0
C3173 C 0.5902 0.37519 0.6096 0.0
H3174 H 0.58516 0.40083 0.65295 0.0
C3175 C 0.60111 0.38883 0.60509 0.0
C3176 C 0.59483 0.38483 0.61284 0.0
H3177 H 0.57146 0.37308 0.64563 0.0
H3178 H 0.57994 0.37345 0.62926 0.0
H3179 H 0.60836 0.39615 0.64426 0.0
H3180 H 0.58136 0.41079 0.63047 0.0
H3181 H 0.59322 0.41748 0.62824 0.0
H3182 H 0.58881 0.41554 0.64105 0.0
H3183 H 0.60514 0.40838 0.64732 0.0
H3184 H 0.6137 0.40537 0.63674 0.0
C3185 C 0.59471 0.3668 0.61611 0.0
C3186 C 0.57771 0.37548 0.60874 0.0
C3187 C 0.62353 0.41927 0.60305 0.0
C3188 C 0.62622 0.42646 0.61013 0.0
C3189 C 0.62121 0.42628 0.61972 0.0
C3190 C 0.61392 0.41895 0.62229 0.0
C3191 C 0.61167 0.41163 0.61524 0.0
C3192 C 0.61642 0.41192 0.60579 0.0
C3193 C 0.61356 0.40333 0.59941 0.0
C3194 C 0.60634 0.3978 0.6066 0.0
C3195 C 0.60518 0.40272 0.61583 0.0
C3196 C 0.62413 0.39778 0.59699 0.0
C3197 C 0.60726 0.40692 0.58997 0.0
C3198 C 0.58397 0.39487 0.64777 0.0
C3199 C 0.57764 0.38691 0.65056 0.0
C3200 C 0.57639 0.37924 0.64368 0.0
C3201 C 0.58127 0.3795 0.63415 0.0
C3202 C 0.58755 0.38749 0.63143 0.0
C3203 C 0.58889 0.39498 0.63821 0.0
C3204 C 0.59618 0.40271 0.6341 0.0
C3205 C 0.59875 0.39871 0.62366 0.0
C3206 C 0.59363 0.38981 0.62216 0.0
C3207 C 0.60637 0.40329 0.64095 0.0
C3208 C 0.58964 0.41218 0.63346 0.0
H3209 H 0.61086 0.3882 0.58434 0.0
H3210 H 0.58852 0.36034 0.59492 0.0
H3211 H 0.57513 0.37961 0.60192 0.0
H3212 H 0.57382 0.37919 0.61516 0.0
H3213 H 0.57431 0.36812 0.60805 0.0
H3214 H 0.60297 0.36471 0.61362 0.0
H3215 H 0.58949 0.36032 0.61549 0.0
H3216 H 0.59569 0.36872 0.62418 0.0
H3217 H 0.62704 0.41921 0.59555 0.0
H3218 H 0.62318 0.43164 0.62539 0.0
H3219 H 0.6105 0.41915 0.62974 0.0
H3220 H 0.63013 0.39854 0.60323 0.0
H3221 H 0.62794 0.40053 0.58996 0.0
H3222 H 0.62289 0.38994 0.59627 0.0
H3223 H 0.60174 0.41293 0.59201 0.0
H3224 H 0.60197 0.40136 0.58663 0.0
H3225 H 0.61287 0.40959 0.58406 0.0
H3226 H 0.6086 0.37479 0.57294 0.0
C3227 C 0.60596 0.38233 0.58689 0.0
C3228 C 0.3142 0.62127 0.86983 0.0
C3229 C 0.31427 0.61275 0.86408 0.0
C3230 C 0.32104 0.61218 0.85553 0.0
C3231 C 0.32794 0.62817 0.85896 0.0
C3232 C 0.32107 0.62884 0.86715 0.0
C3233 C 0.3223 0.63821 0.87273 0.0
H3234 H 0.34976 0.67973 0.87956 0.0
C3235 C 0.33443 0.63708 0.85856 0.0
C3236 C 0.33112 0.64302 0.86658 0.0
H3237 H 0.32312 0.66868 0.89719 0.0
H3238 H 0.32145 0.65518 0.88581 0.0
H3239 H 0.3616 0.65974 0.8763 0.0
H3240 H 0.33894 0.67533 0.85771 0.0
H3241 H 0.34831 0.67002 0.84946 0.0
H3242 H 0.35289 0.67876 0.85865 0.0
H3243 H 0.36496 0.67075 0.86994 0.0
H3244 H 0.36626 0.65927 0.86375 0.0
C3245 C 0.32606 0.63593 0.88369 0.0
C3246 C 0.31145 0.64375 0.87202 0.0
C3247 C 0.36451 0.64026 0.83268 0.0
C3248 C 0.3722 0.64748 0.83074 0.0
C3249 C 0.37181 0.65607 0.83643 0.0
C3250 C 0.36409 0.65734 0.84406 0.0
C3251 C 0.35667 0.64995 0.84608 0.0
C3252 C 0.35685 0.64166 0.84032 0.0
C3253 C 0.34828 0.63461 0.84347 0.0
C3254 C 0.343 0.64001 0.85214 0.0
C3255 C 0.34801 0.64895 0.85369 0.0
C3256 C 0.35398 0.6253 0.84713 0.0
C3257 C 0.34041 0.63316 0.83444 0.0
C3258 C 0.34345 0.67448 0.88089 0.0
C3259 C 0.33662 0.67525 0.88935 0.0
C3260 C 0.32861 0.66818 0.89084 0.0
C3261 C 0.32763 0.66036 0.8842 0.0
C3262 C 0.33478 0.65952 0.87599 0.0
C3263 C 0.3424 0.6666 0.87435 0.0
C3264 C 0.34931 0.66453 0.86526 0.0
C3265 C 0.34468 0.65496 0.8618 0.0
C3266 C 0.33622 0.65204 0.86815 0.0
C3267 C 0.36119 0.66357 0.8689 0.0
C3268 C 0.34738 0.67257 0.85734 0.0
H3269 H 0.33292 0.61888 0.84644 0.0
H3270 H 0.30899 0.62201 0.87636 0.0
H3271 H 0.30738 0.64238 0.86463 0.0
H3272 H 0.31251 0.65163 0.87232 0.0
H3273 H 0.30583 0.6415 0.87811 0.0
H3274 H 0.33179 0.62976 0.88377 0.0
H3275 H 0.3191 0.63401 0.88857 0.0
H3276 H 0.33056 0.64188 0.88727 0.0
H3277 H 0.36462 0.63354 0.82854 0.0
H3278 H 0.37748 0.66183 0.83498 0.0
H3279 H 0.36428 0.664 0.84816 0.0
H3280 H 0.36152 0.62704 0.85138 0.0
H3281 H 0.35624 0.62066 0.84062 0.0
H3282 H 0.34908 0.62106 0.85247 0.0
H3283 H 0.33954 0.6399 0.82996 0.0
H3284 H 0.33211 0.63139 0.83687 0.0
H3285 H 0.34337 0.62747 0.82923 0.0
H3286 H 0.32133 0.60567 0.85102 0.0
C3287 C 0.32784 0.61983 0.85293 0.0
C3288 C 0.14975 0.33193 0.38432 0.0
C3289 C 0.14223 0.32474 0.38172 0.0
C3290 C 0.13677 0.32539 0.37234 0.0
C3291 C 0.14594 0.34034 0.36859 0.0
C3292 C 0.15148 0.33962 0.37766 0.0
C3293 C 0.15905 0.34796 0.37931 0.0
H3294 H 0.17836 0.39093 0.36347 0.0
C3295 C 0.14936 0.3493 0.36354 0.0
C3296 C 0.15711 0.35377 0.36973 0.0
H3297 H 0.18654 0.37551 0.3909 0.0
H3298 H 0.17487 0.36244 0.38586 0.0
H3299 H 0.1794 0.37251 0.34855 0.0
H3300 H 0.15318 0.38644 0.36412 0.0
H3301 H 0.14878 0.38386 0.35175 0.0
H3302 H 0.16007 0.39184 0.35362 0.0
H3303 H 0.17394 0.38381 0.3444 0.0
H3304 H 0.16826 0.3725 0.34026 0.0
C3305 C 0.17074 0.34399 0.37987 0.0
C3306 C 0.15535 0.35342 0.38893 0.0
C3307 C 0.1311 0.35949 0.33075 0.0
C3308 C 0.13227 0.36753 0.32437 0.0
C3309 C 0.14035 0.37436 0.32667 0.0
C3310 C 0.14692 0.37333 0.33528 0.0
C3311 C 0.14543 0.36539 0.34171 0.0
C3312 C 0.13775 0.35855 0.33929 0.0
C3313 C 0.13739 0.35051 0.34687 0.0
C3314 C 0.14601 0.35372 0.35435 0.0
C3315 C 0.15063 0.36247 0.35134 0.0
C3316 C 0.14056 0.34104 0.34141 0.0
C3317 C 0.12599 0.35042 0.3517 0.0
C3318 C 0.17778 0.38467 0.36832 0.0
C3319 C 0.18338 0.38427 0.37761 0.0
C3320 C 0.18222 0.37605 0.38376 0.0
C3321 C 0.17546 0.36845 0.38081 0.0
C3322 C 0.16971 0.36908 0.37163 0.0
C3323 C 0.17102 0.37705 0.36551 0.0
C3324 C 0.16416 0.37656 0.35609 0.0
C3325 C 0.15849 0.367 0.35758 0.0
C3326 C 0.16174 0.36266 0.36671 0.0
C3327 C 0.17176 0.3764 0.34679 0.0
C3328 C 0.15614 0.38513 0.35629 0.0
H3329 H 0.13411 0.3332 0.35881 0.0
H3330 H 0.15404 0.33171 0.39149 0.0
H3331 H 0.14637 0.35355 0.38944 0.0
H3332 H 0.15777 0.36106 0.38896 0.0
H3333 H 0.1585 0.34992 0.3959 0.0
H3334 H 0.17179 0.33781 0.3746 0.0
H3335 H 0.17273 0.34144 0.38763 0.0
H3336 H 0.17686 0.34929 0.37748 0.0
H3337 H 0.12493 0.35414 0.32931 0.0
H3338 H 0.14158 0.38053 0.32181 0.0
H3339 H 0.15284 0.37882 0.33665 0.0
H3340 H 0.1462 0.34244 0.33503 0.0
H3341 H 0.13334 0.33737 0.33822 0.0
H3342 H 0.14499 0.336 0.34639 0.0
H3343 H 0.12306 0.35788 0.35302 0.0
H3344 H 0.1258 0.34696 0.35921 0.0
H3345 H 0.12005 0.34677 0.34667 0.0
H3346 H 0.13109 0.31987 0.37004 0.0
C3347 C 0.13858 0.33312 0.36578 0.0
C3348 C 0.37424 0.61172 0.32371 0.0
C3349 C 0.38211 0.61879 0.32185 0.0
C3350 C 0.38173 0.62747 0.32739 0.0
C3351 C 0.36604 0.62182 0.33658 0.0
C3352 C 0.36634 0.61337 0.33108 0.0
C3353 C 0.35756 0.60649 0.33414 0.0
H3354 H 0.31558 0.59584 0.36487 0.0
C3355 C 0.35694 0.62118 0.34378 0.0
C3356 C 0.35192 0.61222 0.34236 0.0
H3357 H 0.32968 0.57809 0.34146 0.0
H3358 H 0.34217 0.59079 0.33729 0.0
H3359 H 0.33843 0.60407 0.37365 0.0
H3360 H 0.31504 0.61493 0.35235 0.0
H3361 H 0.32014 0.62499 0.35882 0.0
H3362 H 0.31299 0.6158 0.36576 0.0
H3363 H 0.32508 0.60786 0.37715 0.0
H3364 H 0.3361 0.61626 0.37649 0.0
C3365 C 0.363 0.59728 0.33838 0.0
C3366 C 0.35012 0.60477 0.32485 0.0
C3367 C 0.34999 0.6484 0.36871 0.0
C3368 C 0.34213 0.64982 0.37626 0.0
C3369 C 0.33397 0.64283 0.37749 0.0
C3370 C 0.33382 0.63448 0.37156 0.0
C3371 C 0.34189 0.63305 0.36427 0.0
C3372 C 0.34968 0.64002 0.3628 0.0
C3373 C 0.35739 0.63739 0.35446 0.0
C3374 C 0.35303 0.62763 0.35128 0.0
C3375 C 0.34403 0.62509 0.35714 0.0
C3376 C 0.36889 0.63663 0.35909 0.0
C3377 C 0.35626 0.64495 0.3459 0.0
C3378 C 0.32142 0.59465 0.3589 0.0
C3379 C 0.32168 0.58592 0.35353 0.0
C3380 C 0.32926 0.58477 0.34567 0.0
C3381 C 0.33655 0.59214 0.3433 0.0
C3382 C 0.3363 0.60077 0.34885 0.0
C3383 C 0.32876 0.60194 0.35645 0.0
C3384 C 0.32961 0.61161 0.36149 0.0
C3385 C 0.33899 0.61601 0.35576 0.0
C3386 C 0.3429 0.60962 0.34839 0.0
C3387 C 0.33238 0.60995 0.37281 0.0
C3388 C 0.3189 0.61715 0.35961 0.0
H3389 H 0.37396 0.63573 0.33873 0.0
H3390 H 0.3742 0.60502 0.31953 0.0
H3391 H 0.34923 0.61146 0.32029 0.0
H3392 H 0.34179 0.6028 0.32698 0.0
H3393 H 0.35347 0.59912 0.31981 0.0
H3394 H 0.37053 0.59908 0.34262 0.0
H3395 H 0.36523 0.59227 0.33218 0.0
H3396 H 0.35793 0.59344 0.34391 0.0
H3397 H 0.3564 0.65358 0.36756 0.0
H3398 H 0.32764 0.64382 0.38304 0.0
H3399 H 0.32745 0.62943 0.37295 0.0
H3400 H 0.36861 0.63326 0.36672 0.0
H3401 H 0.37262 0.64385 0.35994 0.0
H3402 H 0.37436 0.63202 0.35463 0.0
H3403 H 0.3478 0.64764 0.34534 0.0
H3404 H 0.358 0.64197 0.33832 0.0
H3405 H 0.36157 0.65125 0.34731 0.0
H3406 H 0.38776 0.63299 0.32622 0.0
C3407 C 0.37374 0.62902 0.33472 0.0
C3408 C 0.19102 0.47268 0.08228 0.0
C3409 C 0.19238 0.47568 0.07221 0.0
C3410 C 0.18401 0.46511 0.08459 0.0
C3411 C 0.17023 0.44421 0.073 0.0
H3412 H 0.15191 0.44575 0.09672 0.0
C3413 C 0.14489 0.41196 0.08681 0.0
C3414 C 0.13435 0.41389 0.0902 0.0
C3415 C 0.15204 0.41948 0.08473 0.0
C3416 C 0.15692 0.44523 0.09003 0.0
H3417 H 0.18725 0.4733 0.0567 0.0
H3418 H 0.17492 0.46019 0.06072 0.0
H3419 H 0.1641 0.45899 0.09279 0.0
H3420 H 0.12301 0.42524 0.09391 0.0
H3421 H 0.13547 0.43836 0.09026 0.0
H3422 H 0.16288 0.43056 0.07011 0.0
C3423 C 0.17944 0.46353 0.06682 0.0
C3424 C 0.164 0.45277 0.08785 0.0
C3425 C 0.18643 0.47109 0.06452 0.0
C3426 C 0.13112 0.42351 0.09146 0.0
C3427 C 0.13827 0.43103 0.08937 0.0
C3428 C 0.16315 0.43667 0.07519 0.0
C3429 C 0.17817 0.46042 0.07688 0.0
C3430 C 0.17073 0.45236 0.07929 0.0
C3431 C 0.14881 0.4291 0.08598 0.0
C3432 C 0.1564 0.4371 0.08371 0.0
H3433 H 0.19517 0.4763 0.08842 0.0
H3434 H 0.18323 0.46289 0.09242 0.0
H3435 H 0.17538 0.44361 0.06642 0.0
H3436 H 0.14769 0.40463 0.08591 0.0
H3437 H 0.16016 0.41774 0.08229 0.0
C3438 C 0.78128 0.97224 0.38761 0.0
C3439 C 0.77918 0.97726 0.39662 0.0
C3440 C 0.78815 0.96425 0.38764 0.0
C3441 C 0.79985 0.94579 0.40447 0.0
H3442 H 0.82105 0.94293 0.3831 0.0
C3443 C 0.82538 0.91127 0.39929 0.0
C3444 C 0.8364 0.9125 0.39706 0.0
C3445 C 0.81833 0.91913 0.39929 0.0
C3446 C 0.81521 0.94365 0.38915 0.0
H3447 H 0.78276 0.97801 0.41268 0.0
H3448 H 0.79479 0.96407 0.41274 0.0
H3449 H 0.80889 0.95676 0.38302 0.0
H3450 H 0.84867 0.92304 0.39331 0.0
H3451 H 0.83635 0.93673 0.39323 0.0
H3452 H 0.80625 0.93273 0.41066 0.0
C3453 C 0.791 0.9662 0.40568 0.0
C3454 C 0.80817 0.95152 0.38904 0.0
C3455 C 0.78418 0.97422 0.40564 0.0
C3456 C 0.8402 0.9218 0.39488 0.0
C3457 C 0.83314 0.92965 0.39484 0.0
C3458 C 0.80684 0.93789 0.40454 0.0
C3459 C 0.79307 0.96113 0.39668 0.0
C3460 C 0.80044 0.95269 0.39671 0.0
C3461 C 0.82213 0.9284 0.39702 0.0
C3462 C 0.81462 0.93675 0.3969 0.0
H3463 H 0.77783 0.9746 0.38049 0.0
H3464 H 0.78957 0.96048 0.38058 0.0
H3465 H 0.79391 0.94644 0.41044 0.0
H3466 H 0.82214 0.90419 0.40084 0.0
H3467 H 0.80985 0.91792 0.40088 0.0
C3468 C 0.29828 0.52021 0.55589 0.0
C3469 C 0.29328 0.51556 0.56406 0.0
C3470 C 0.30479 0.52828 0.55752 0.0
C3471 C 0.3211 0.54047 0.57701 0.0
H3472 H 0.31811 0.56267 0.55944 0.0
C3473 C 0.35135 0.57213 0.57743 0.0
C3474 C 0.34698 0.58146 0.57702 0.0
C3475 C 0.34477 0.56408 0.57594 0.0
C3476 C 0.319 0.55655 0.56444 0.0
H3477 H 0.29166 0.51536 0.5804 0.0
H3478 H 0.30288 0.52955 0.58326 0.0
H3479 H 0.3066 0.54864 0.55674 0.0
H3480 H 0.33219 0.58962 0.57488 0.0
H3481 H 0.32074 0.57558 0.57216 0.0
H3482 H 0.33345 0.54841 0.58476 0.0
C3483 C 0.30168 0.52702 0.57558 0.0
C3484 C 0.31249 0.54848 0.56284 0.0
C3485 C 0.29512 0.51899 0.57393 0.0
C3486 C 0.33586 0.58255 0.57507 0.0
C3487 C 0.32929 0.57451 0.57354 0.0
C3488 C 0.32767 0.54852 0.57858 0.0
C3489 C 0.30654 0.53179 0.56738 0.0
C3490 C 0.31346 0.54036 0.56911 0.0
C3491 C 0.33367 0.56519 0.57396 0.0
C3492 C 0.32669 0.55664 0.57231 0.0
H3493 H 0.29706 0.51768 0.54821 0.0
H3494 H 0.30855 0.53171 0.55107 0.0
H3495 H 0.32211 0.53429 0.58192 0.0
H3496 H 0.35991 0.57102 0.57874 0.0
H3497 H 0.3484 0.557 0.57618 0.0
C3498 C 0.6913 0.00923 0.91758 0.0
C3499 C 0.6978 0.00599 0.90957 0.0
C3500 C 0.68383 0.01663 0.91607 0.0
C3501 C 0.66787 0.02867 0.89622 0.0
H3502 H 0.66507 0.04899 0.91618 0.0
C3503 C 0.63286 0.05619 0.89539 0.0
C3504 C 0.63557 0.06587 0.89717 0.0
C3505 C 0.64047 0.0489 0.89693 0.0
C3506 C 0.66579 0.04339 0.91051 0.0
H3507 H 0.70119 0.00764 0.89358 0.0
H3508 H 0.68829 0.02071 0.89096 0.0
H3509 H 0.67852 0.03635 0.91868 0.0
H3510 H 0.64849 0.07544 0.9019 0.0
H3511 H 0.6617 0.06271 0.90471 0.0
H3512 H 0.6552 0.03576 0.88802 0.0
C3513 C 0.68903 0.01757 0.89843 0.0
C3514 C 0.67343 0.03611 0.91199 0.0
C3515 C 0.69656 0.01019 0.89997 0.0
C3516 C 0.64606 0.06806 0.90062 0.0
C3517 C 0.65365 0.06076 0.90221 0.0
C3518 C 0.66019 0.03592 0.89478 0.0
C3519 C 0.6826 0.02088 0.90647 0.0
C3520 C 0.67455 0.02867 0.90486 0.0
C3521 C 0.65095 0.05111 0.90034 0.0
C3522 C 0.65907 0.04337 0.9019 0.0
H3523 H 0.69203 0.00607 0.92505 0.0
H3524 H 0.67888 0.01893 0.92238 0.0
H3525 H 0.66848 0.02299 0.89064 0.0
H3526 H 0.62481 0.05423 0.89289 0.0
H3527 H 0.6381 0.04151 0.89558 0.0
C3528 C 0.19293 0.52701 0.38994 0.0
C3529 C 0.19614 0.52216 0.39879 0.0
C3530 C 0.18403 0.53319 0.39004 0.0
C3531 C 0.16645 0.54749 0.40677 0.0
H3532 H 0.14612 0.54538 0.38445 0.0
C3533 C 0.1253 0.56748 0.40622 0.0
C3534 C 0.12202 0.57145 0.39692 0.0
C3535 C 0.13436 0.56146 0.40675 0.0
C3536 C 0.15177 0.54615 0.39068 0.0
H3537 H 0.19267 0.52019 0.41476 0.0
H3538 H 0.1771 0.53099 0.4149 0.0
H3539 H 0.16205 0.53511 0.38483 0.0
H3540 H 0.12586 0.57247 0.38094 0.0
H3541 H 0.14164 0.56205 0.38186 0.0
H3542 H 0.15618 0.55859 0.41258 0.0
C3543 C 0.18151 0.53003 0.40791 0.0
C3544 C 0.1609 0.54026 0.3909 0.0
C3545 C 0.1904 0.52381 0.40781 0.0
C3546 C 0.12804 0.56936 0.38818 0.0
C3547 C 0.13709 0.56339 0.38871 0.0
C3548 C 0.15732 0.55343 0.40654 0.0
C3549 C 0.17815 0.53469 0.39899 0.0
C3550 C 0.16838 0.5409 0.39891 0.0
C3551 C 0.14034 0.55932 0.39799 0.0
C3552 C 0.1499 0.55286 0.39845 0.0
H3553 H 0.19719 0.52595 0.38288 0.0
H3554 H 0.18174 0.5368 0.38308 0.0
H3555 H 0.17212 0.5482 0.413 0.0
H3556 H 0.12077 0.5689 0.41307 0.0
H3557 H 0.13657 0.55836 0.414 0.0
C3558 C 0.68812 0.97658 0.58371 0.0
C3559 C 0.68978 0.98034 0.57397 0.0
C3560 C 0.68064 0.96919 0.58525 0.0
C3561 C 0.66591 0.94994 0.57175 0.0
H3562 H 0.64722 0.95052 0.59526 0.0
C3563 C 0.63924 0.9177 0.58313 0.0
C3564 C 0.62872 0.9197 0.58652 0.0
C3565 C 0.64662 0.92514 0.58152 0.0
C3566 C 0.65233 0.95029 0.58862 0.0
H3567 H 0.68472 0.97951 0.55825 0.0
H3568 H 0.6716 0.96668 0.56095 0.0
H3569 H 0.66015 0.9635 0.59259 0.0
H3570 H 0.61764 0.93111 0.59071 0.0
H3571 H 0.63053 0.94411 0.58791 0.0
H3572 H 0.65797 0.93682 0.56769 0.0
C3573 C 0.67622 0.9693 0.56737 0.0
C3574 C 0.65982 0.95767 0.58715 0.0
C3575 C 0.68368 0.97669 0.56584 0.0
C3576 C 0.62573 0.92932 0.58823 0.0
C3577 C 0.63312 0.93676 0.58663 0.0
C3578 C 0.65843 0.94256 0.57323 0.0
C3579 C 0.67463 0.96544 0.57709 0.0
C3580 C 0.6667 0.95758 0.5787 0.0
C3581 C 0.64365 0.93476 0.58328 0.0
C3582 C 0.65155 0.94265 0.58168 0.0
H3583 H 0.6924 0.97947 0.59018 0.0
H3584 H 0.67962 0.96637 0.59283 0.0
H3585 H 0.67116 0.94962 0.56521 0.0
H3586 H 0.64186 0.91036 0.5819 0.0
H3587 H 0.65472 0.92334 0.57909 0.0
C3588 C 0.27967 0.47544 0.88878 0.0
C3589 C 0.27853 0.48043 0.89796 0.0
C3590 C 0.28777 0.46852 0.88764 0.0
C3591 C 0.30535 0.45217 0.90198 0.0
H3592 H 0.32304 0.45245 0.8778 0.0
C3593 C 0.3424 0.42723 0.89759 0.0
C3594 C 0.34432 0.42328 0.88797 0.0
C3595 C 0.33456 0.43436 0.8989 0.0
C3596 C 0.31809 0.45217 0.88454 0.0
H3597 H 0.28502 0.48221 0.91312 0.0
H3598 H 0.29914 0.47002 0.91117 0.0
H3599 H 0.30882 0.46442 0.87987 0.0
H3600 H 0.33941 0.42359 0.8722 0.0
H3601 H 0.32559 0.43587 0.87448 0.0
H3602 H 0.31442 0.43982 0.90658 0.0
C3603 C 0.29371 0.47141 0.90488 0.0
C3604 C 0.30996 0.45906 0.88573 0.0
C3605 C 0.28568 0.47841 0.90598 0.0
C3606 C 0.33823 0.4266 0.87968 0.0
C3607 C 0.33032 0.43367 0.88099 0.0
C3608 C 0.31341 0.44522 0.90075 0.0
C3609 C 0.29486 0.46642 0.89569 0.0
C3610 C 0.3035 0.45912 0.89446 0.0
C3611 C 0.32838 0.43765 0.89062 0.0
C3612 C 0.31989 0.44512 0.89201 0.0
H3613 H 0.27448 0.47705 0.88238 0.0
H3614 H 0.28846 0.46477 0.88048 0.0
H3615 H 0.30041 0.45199 0.90874 0.0
H3616 H 0.34706 0.42487 0.9041 0.0
H3617 H 0.33343 0.43737 0.90639 0.0
C3618 C 0.78988 0.02037 0.08383 0.0
C3619 C 0.78797 0.0156 0.07462 0.0
C3620 C 0.79718 0.02804 0.08433 0.0
C3621 C 0.81031 0.04635 0.06848 0.0
H3622 H 0.83106 0.04791 0.0905 0.0
C3623 C 0.84498 0.07399 0.06829 0.0
C3624 C 0.84769 0.07844 0.07751 0.0
C3625 C 0.83777 0.06626 0.06807 0.0
C3626 C 0.82523 0.04766 0.08437 0.0
H3627 H 0.79232 0.01496 0.05875 0.0
H3628 H 0.80505 0.02836 0.05959 0.0
H3629 H 0.81821 0.03462 0.08994 0.0
H3630 H 0.84493 0.07833 0.09371 0.0
H3631 H 0.83223 0.06492 0.09332 0.0
H3632 H 0.81721 0.05941 0.06295 0.0
C3633 C 0.80081 0.02626 0.06641 0.0
C3634 C 0.81788 0.04003 0.08405 0.0
C3635 C 0.79359 0.01856 0.06594 0.0
C3636 C 0.84309 0.07497 0.08651 0.0
C3637 C 0.83583 0.06727 0.08628 0.0
C3638 C 0.81761 0.054 0.06883 0.0
C3639 C 0.80268 0.03109 0.0756 0.0
C3640 C 0.81037 0.03927 0.07607 0.0
C3641 C 0.83305 0.06284 0.07705 0.0
C3642 C 0.8252 0.05473 0.07676 0.0
H3643 H 0.78593 0.01805 0.09071 0.0
H3644 H 0.79844 0.03162 0.09152 0.0
H3645 H 0.80451 0.04604 0.06232 0.0
H3646 H 0.84852 0.07641 0.06125 0.0
H3647 H 0.83599 0.0629 0.06085 0.0
C3648 C 0.0951 0.20772 0.46498 0.0
C3649 C 0.10302 0.21378 0.46914 0.0
C3650 C 0.09726 0.20235 0.45627 0.0
C3651 C 0.11936 0.19119 0.44238 0.0
H3652 H 0.09852 0.18957 0.42043 0.0
C3653 C 0.12762 0.16834 0.40669 0.0
C3654 C 0.11887 0.16315 0.40264 0.0
C3655 C 0.12595 0.17525 0.41422 0.0
C3656 C 0.10438 0.18985 0.42654 0.0
H3657 H 0.11953 0.21876 0.46769 0.0
H3658 H 0.12333 0.20934 0.45243 0.0
H3659 H 0.09509 0.20029 0.43469 0.0
H3660 H 0.10154 0.16109 0.40333 0.0
H3661 H 0.09862 0.17295 0.41662 0.0
H3662 H 0.12848 0.18052 0.43448 0.0
C3663 C 0.1154 0.20886 0.45584 0.0
C3664 C 0.10243 0.19603 0.43468 0.0
C3665 C 0.11319 0.21433 0.46448 0.0
C3666 C 0.10841 0.16506 0.40622 0.0
C3667 C 0.10675 0.1719 0.41382 0.0
C3668 C 0.12126 0.18493 0.4343 0.0
C3669 C 0.10745 0.2028 0.45165 0.0
C3670 C 0.10985 0.1967 0.44272 0.0
C3671 C 0.1155 0.17706 0.41795 0.0
C3672 C 0.11375 0.1841 0.42631 0.0
H3673 H 0.0872 0.20713 0.46845 0.0
H3674 H 0.09102 0.19765 0.45329 0.0
H3675 H 0.12516 0.19148 0.44854 0.0
H3676 H 0.13575 0.16709 0.40397 0.0
H3677 H 0.13286 0.1792 0.41708 0.0
C3678 C 0.00685 0.87712 0.70436 0.0
C3679 C -0.00066 0.86976 0.70615 0.0
C3680 C 0.01261 0.87742 0.69527 0.0
C3681 C 0.01962 0.86252 0.67263 0.0
H3682 H 0.0267 0.88736 0.66109 0.0
C3683 C 0.03548 0.86795 0.63172 0.0
C3684 C 0.04529 0.87306 0.63111 0.0
C3685 C 0.02973 0.86757 0.64081 0.0
C3686 C 0.02478 0.88039 0.66426 0.0
H3687 H 0.9919 0.85698 0.69981 0.0
H3688 H 0.00154 0.85772 0.68384 0.0
H3689 H 0.01697 0.88659 0.67709 0.0
H3690 H 0.05669 0.8817 0.63977 0.0
H3691 H 0.04637 0.88138 0.65542 0.0
H3692 H 0.02715 0.85639 0.65952 0.0
C3693 C 0.00332 0.86309 0.68954 0.0
C3694 C 0.01928 0.87992 0.67347 0.0
C3695 C -0.00228 0.86269 0.69869 0.0
C3696 C 0.04907 0.8779 0.63981 0.0
C3697 C 0.04321 0.87766 0.64882 0.0
C3698 C 0.02493 0.86301 0.66332 0.0
C3699 C 0.01084 0.87047 0.68768 0.0
C3700 C 0.01668 0.87097 0.67783 0.0
C3701 C 0.03355 0.87243 0.64942 0.0
C3702 C 0.0276 0.87194 0.65909 0.0
H3703 H 0.00832 0.88262 0.71001 0.0
H3704 H 0.01849 0.88309 0.69425 0.0
H3705 H 0.01797 0.8555 0.6758 0.0
H3706 H 0.03219 0.86428 0.62517 0.0
H3707 H 0.02224 0.86355 0.64109 0.0
C3708 C 0.38766 0.80365 0.95849 0.0
C3709 C 0.38593 0.79416 0.95519 0.0
C3710 C 0.38933 0.81103 0.95152 0.0
C3711 C 0.38418 0.81719 0.92473 0.0
H3712 H 0.40276 0.83888 0.93094 0.0
C3713 C 0.39069 0.84863 0.89681 0.0
C3714 C 0.38956 0.85787 0.90098 0.0
C3715 C 0.39131 0.84056 0.90309 0.0
C3716 C 0.39752 0.83288 0.92913 0.0
H3717 H 0.38501 0.78493 0.94196 0.0
H3718 H 0.38818 0.7978 0.92978 0.0
H3719 H 0.40231 0.82512 0.94239 0.0
H3720 H 0.38845 0.86595 0.91498 0.0
H3721 H 0.38954 0.85184 0.92597 0.0
H3722 H 0.3794 0.82499 0.91146 0.0
C3723 C 0.388 0.79957 0.93777 0.0
C3724 C 0.39723 0.82501 0.93569 0.0
C3725 C 0.38625 0.79218 0.94475 0.0
C3726 C 0.38924 0.85891 0.91156 0.0
C3727 C 0.38996 0.85085 0.91784 0.0
C3728 C 0.38454 0.82503 0.91813 0.0
C3729 C 0.3894 0.80911 0.94106 0.0
C3730 C 0.39042 0.81713 0.93366 0.0
C3731 C 0.3909 0.84159 0.91367 0.0
C3732 C 0.39109 0.83301 0.92034 0.0
H3733 H 0.38743 0.80545 0.96647 0.0
H3734 H 0.39021 0.8183 0.95434 0.0
H3735 H 0.37871 0.81134 0.923 0.0
H3736 H 0.39088 0.84761 0.88867 0.0
H3737 H 0.39209 0.83351 0.89967 0.0
C3738 C 0.4573 0.12743 0.19547 0.0
C3739 C 0.46375 0.11972 0.19878 0.0
C3740 C 0.44911 0.12597 0.18833 0.0
C3741 C 0.43936 0.10948 0.16847 0.0
H3742 H 0.41148 0.12092 0.17439 0.0
C3743 C 0.40392 0.11091 0.13969 0.0
C3744 C 0.39351 0.10904 0.14343 0.0
C3745 C 0.41273 0.11166 0.14631 0.0
C3746 C 0.41919 0.11762 0.17267 0.0
H3747 H 0.4669 0.10446 0.1969 0.0
H3748 H 0.4526 0.10193 0.18438 0.0
H3749 H 0.4266 0.12346 0.18598 0.0
H3750 H 0.38417 0.1064 0.15701 0.0
H3751 H 0.39957 0.10767 0.16857 0.0
H3752 H 0.43189 0.10361 0.15516 0.0
C3753 C 0.45391 0.10911 0.18733 0.0
C3754 C 0.42788 0.11917 0.17924 0.0
C3755 C 0.46207 0.11056 0.19453 0.0
C3756 C 0.39211 0.10777 0.1539 0.0
C3757 C 0.4009 0.10859 0.16052 0.0
C3758 C 0.43067 0.10799 0.16184 0.0
C3759 C 0.44722 0.11677 0.18429 0.0
C3760 C 0.43806 0.11513 0.17722 0.0
C3761 C 0.41128 0.11063 0.1568 0.0
C3762 C 0.42049 0.11204 0.16388 0.0
H3763 H 0.45839 0.13458 0.19856 0.0
H3764 H 0.44419 0.13203 0.18601 0.0
H3765 H 0.44712 0.10631 0.16669 0.0
H3766 H 0.40526 0.11184 0.13165 0.0
H3767 H 0.42062 0.1133 0.14323 0.0
C3768 C 0.08238 0.79925 0.0258 0.0
C3769 C 0.08618 0.79018 0.02887 0.0
C3770 C 0.08189 0.80688 0.03267 0.0
C3771 C 0.0938 0.81502 0.0569 0.0
H3772 H 0.07119 0.83432 0.05545 0.0
C3773 C 0.0907 0.84619 0.08562 0.0
C3774 C 0.08902 0.85539 0.0815 0.0
C3775 C 0.08969 0.838 0.07956 0.0
C3776 C 0.07759 0.82901 0.0559 0.0
H3777 H 0.09208 0.78191 0.04169 0.0
H3778 H 0.091 0.79517 0.05374 0.0
H3779 H 0.07032 0.82024 0.04442 0.0
H3780 H 0.08475 0.86322 0.06786 0.0
H3781 H 0.08301 0.84889 0.05725 0.0
H3782 H 0.10104 0.8238 0.06839 0.0
C3783 C 0.08863 0.79645 0.04595 0.0
C3784 C 0.07711 0.82095 0.04958 0.0
C3785 C 0.08918 0.78883 0.03905 0.0
C3786 C 0.08617 0.85623 0.07122 0.0
C3787 C 0.08507 0.84802 0.06518 0.0
C3788 C 0.09424 0.82304 0.06326 0.0
C3789 C 0.08513 0.80561 0.04281 0.0
C3790 C 0.08527 0.8139 0.04993 0.0
C3791 C 0.08691 0.83883 0.06927 0.0
C3792 C 0.08619 0.83016 0.06277 0.0
H3793 H 0.08004 0.80056 0.01801 0.0
H3794 H 0.0793 0.81385 0.02994 0.0
H3795 H 0.10033 0.80984 0.05726 0.0
H3796 H 0.093 0.84533 0.09349 0.0
H3797 H 0.09107 0.83101 0.08293 0.0
C3798 C 0.45473 0.87925 0.27321 0.0
C3799 C 0.46142 0.87112 0.27391 0.0
C3800 C 0.44676 0.88096 0.28048 0.0
C3801 C 0.43204 0.86902 0.30179 0.0
H3802 H 0.42579 0.89532 0.30964 0.0
C3803 C 0.41028 0.8797 0.33877 0.0
C3804 C 0.40082 0.88522 0.33747 0.0
C3805 C 0.41729 0.8781 0.33068 0.0
C3806 C 0.42743 0.88795 0.30745 0.0
H3807 H 0.46508 0.85842 0.28281 0.0
H3808 H 0.4516 0.86158 0.2957 0.0
H3809 H 0.43877 0.8922 0.29615 0.0
H3810 H 0.39151 0.89348 0.32651 0.0
H3811 H 0.40411 0.89105 0.31254 0.0
H3812 H 0.42105 0.86484 0.31351 0.0
C3813 C 0.45216 0.8665 0.28938 0.0
C3814 C 0.4348 0.88614 0.29968 0.0
C3815 C 0.45997 0.86471 0.282 0.0
C3816 C 0.39877 0.88933 0.32789 0.0
C3817 C 0.40592 0.88789 0.31986 0.0
C3818 C 0.42485 0.87084 0.3097 0.0
C3819 C 0.44543 0.87465 0.28874 0.0
C3820 C 0.43726 0.87664 0.29676 0.0
C3821 C 0.41516 0.88217 0.32117 0.0
C3822 C 0.42253 0.88031 0.31261 0.0
H3823 H 0.45562 0.88429 0.26701 0.0
H3824 H 0.44161 0.8872 0.27959 0.0
H3825 H 0.43346 0.86162 0.29963 0.0
H3826 H 0.41233 0.87662 0.34606 0.0
H3827 H 0.42445 0.87375 0.33187 0.0
C3828 C 0.38811 0.20293 0.52616 0.0
C3829 C 0.39748 0.20596 0.5211 0.0
C3830 C 0.38834 0.19482 0.53238 0.0
C3831 C 0.40639 0.17848 0.54656 0.0
H3832 H 0.3824 0.16074 0.54371 0.0
C3833 C 0.40555 0.141 0.56586 0.0
C3834 C 0.39565 0.1382 0.57016 0.0
C3835 C 0.40618 0.14927 0.55986 0.0
C3836 C 0.38911 0.16566 0.54468 0.0
H3837 H 0.41454 0.20302 0.51889 0.0
H3838 H 0.41491 0.18881 0.52975 0.0
H3839 H 0.38279 0.17532 0.53355 0.0
H3840 H 0.37875 0.14207 0.57178 0.0
H3841 H 0.37985 0.15643 0.56134 0.0
H3842 H 0.41268 0.16879 0.55774 0.0
C3843 C 0.4074 0.19275 0.52892 0.0
C3844 C 0.38933 0.17403 0.53886 0.0
C3845 C 0.40718 0.20088 0.52267 0.0
C3846 C 0.38645 0.1439 0.5684 0.0
C3847 C 0.38708 0.15214 0.56242 0.0
C3848 C 0.40617 0.1701 0.55241 0.0
C3849 C 0.39793 0.18955 0.5337 0.0
C3850 C 0.39792 0.18058 0.53979 0.0
C3851 C 0.39693 0.15491 0.55804 0.0
C3852 C 0.39747 0.16364 0.55159 0.0
H3853 H 0.38052 0.20671 0.52519 0.0
H3854 H 0.38095 0.19264 0.53612 0.0
H3855 H 0.41308 0.18343 0.5475 0.0
H3856 H 0.41276 0.13672 0.56702 0.0
H3857 H 0.41387 0.15116 0.55651 0.0
C3858 C 0.02744 0.10804 0.79392 0.0
C3859 C 0.02432 0.11681 0.78947 0.0
C3860 C 0.03485 0.10788 0.80194 0.0
C3861 C 0.04565 0.12319 0.82231 0.0
H3862 H 0.06854 0.10417 0.82374 0.0
C3863 C 0.07951 0.12523 0.85229 0.0
C3864 C 0.08299 0.11659 0.85675 0.0
C3865 C 0.07242 0.12513 0.84404 0.0
C3866 C 0.06211 0.10946 0.82352 0.0
H3867 H 0.02674 0.13227 0.78984 0.0
H3868 H 0.03968 0.13196 0.80379 0.0
H3869 H 0.05617 0.10421 0.80928 0.0
H3870 H 0.08165 0.10106 0.85612 0.0
H3871 H 0.06918 0.10087 0.84175 0.0
H3872 H 0.0515 0.12841 0.83655 0.0
C3873 C 0.03629 0.12523 0.80115 0.0
C3874 C 0.05504 0.10948 0.81523 0.0
C3875 C 0.02892 0.12539 0.79311 0.0
C3876 C 0.07921 0.10783 0.85277 0.0
C3877 C 0.07209 0.10773 0.84453 0.0
C3878 C 0.05269 0.12315 0.83061 0.0
C3879 C 0.03926 0.11648 0.80571 0.0
C3880 C 0.04676 0.11638 0.81452 0.0
C3881 C 0.06861 0.11638 0.84006 0.0
C3882 C 0.06103 0.1163 0.83129 0.0
H3883 H 0.02405 0.1013 0.7913 0.0
H3884 H 0.03692 0.10104 0.80535 0.0
H3885 H 0.03924 0.12849 0.82207 0.0
H3886 H 0.08243 0.13209 0.85507 0.0
H3887 H 0.07007 0.13192 0.84067 0.0
C3888 C 0.96216 0.36351 0.78773 0.0
C3889 C 0.96306 0.36959 0.7793 0.0
C3890 C 0.95503 0.36572 0.79557 0.0
C3891 C 0.93878 0.38604 0.8061 0.0
H3892 H 0.92557 0.36555 0.82165 0.0
C3893 C 0.90353 0.39052 0.83491 0.0
C3894 C 0.90578 0.38697 0.84469 0.0
C3895 C 0.91061 0.38877 0.82689 0.0
C3896 C 0.92925 0.37132 0.81737 0.0
H3897 H 0.95699 0.3826 0.77228 0.0
H3898 H 0.94411 0.38622 0.78567 0.0
H3899 H 0.93719 0.36156 0.80738 0.0
H3900 H 0.91758 0.37906 0.85366 0.0
H3901 H 0.92959 0.37561 0.83951 0.0
H3902 H 0.93035 0.39576 0.81595 0.0
C3903 C 0.9492 0.37993 0.78648 0.0
C3904 C 0.93597 0.36907 0.80923 0.0
C3905 C 0.95652 0.37782 0.77874 0.0
C3906 C 0.91539 0.38171 0.84622 0.0
C3907 C 0.92233 0.37979 0.83815 0.0
C3908 C 0.93185 0.38828 0.81411 0.0
C3909 C 0.94843 0.37397 0.79507 0.0
C3910 C 0.94093 0.37639 0.80353 0.0
C3911 C 0.91997 0.38327 0.82843 0.0
C3912 C 0.92713 0.38094 0.81985 0.0
H3913 H 0.96719 0.35716 0.78842 0.0
H3914 H 0.95489 0.36105 0.80212 0.0
H3915 H 0.94257 0.3919 0.80206 0.0
H3916 H 0.89614 0.39443 0.83334 0.0
H3917 H 0.90861 0.39146 0.81941 0.0
C3918 C 0.90885 0.69753 0.01274 0.0
C3919 C 0.90469 0.70628 0.01638 0.0
C3920 C 0.90966 0.68953 0.0191 0.0
C3921 C 0.89759 0.67972 0.04239 0.0
H3922 H 0.92047 0.66078 0.0401 0.0
C3923 C 0.89388 0.64241 0.06068 0.0
C3924 C 0.90309 0.63854 0.06543 0.0
C3925 C 0.89464 0.65067 0.05472 0.0
C3926 C 0.91407 0.66604 0.0409 0.0
H3927 H 0.89865 0.71362 0.02971 0.0
H3928 H 0.90029 0.69975 0.04087 0.0
H3929 H 0.92139 0.67556 0.0302 0.0
H3930 H 0.92041 0.6402 0.06737 0.0
H3931 H 0.9217 0.65477 0.0572 0.0
H3932 H 0.89037 0.67033 0.05323 0.0
C3933 C 0.90267 0.69899 0.03302 0.0
C3934 C 0.91454 0.67447 0.03514 0.0
C3935 C 0.9018 0.70697 0.02664 0.0
C3936 C 0.91313 0.64305 0.06393 0.0
C3937 C 0.91389 0.65135 0.058 0.0
C3938 C 0.89714 0.67133 0.04816 0.0
C3939 C 0.90638 0.69011 0.02927 0.0
C3940 C 0.90626 0.68138 0.03577 0.0
C3941 C 0.90463 0.65531 0.05341 0.0
C3942 C 0.90532 0.66434 0.04742 0.0
H3943 H 0.91114 0.69674 0.00487 0.0
H3944 H 0.91245 0.68279 0.01593 0.0
H3945 H 0.89099 0.68481 0.04297 0.0
H3946 H 0.88599 0.63919 0.06175 0.0
H3947 H 0.88738 0.65343 0.05116 0.0
C3948 C 0.53465 0.6173 0.29191 0.0
C3949 C 0.5298 0.6092 0.28742 0.0
C3950 C 0.54152 0.61627 0.30025 0.0
C3951 C 0.55855 0.59886 0.31404 0.0
H3952 H 0.55507 0.61685 0.33626 0.0
C3953 C 0.58939 0.60264 0.34686 0.0
C3954 C 0.58531 0.60422 0.35664 0.0
C3955 C 0.58246 0.6025 0.33848 0.0
C3956 C 0.55608 0.61171 0.33016 0.0
H3957 H 0.52859 0.59364 0.28806 0.0
H3958 H 0.54059 0.59188 0.30266 0.0
H3959 H 0.5434 0.61812 0.32142 0.0
H3960 H 0.57069 0.60645 0.36535 0.0
H3961 H 0.55859 0.60624 0.35072 0.0
H3962 H 0.5712 0.59242 0.32285 0.0
C3963 C 0.5391 0.59901 0.29968 0.0
C3964 C 0.54948 0.61252 0.32161 0.0
C3965 C 0.53219 0.60003 0.29134 0.0
C3966 C 0.57411 0.60539 0.35789 0.0
C3967 C 0.56718 0.60527 0.34951 0.0
C3968 C 0.56519 0.59808 0.32259 0.0
C3969 C 0.54373 0.60713 0.30429 0.0
C3970 C 0.55068 0.60614 0.31342 0.0
C3971 C 0.5713 0.60395 0.3397 0.0
C3972 C 0.56404 0.60452 0.33074 0.0
H3973 H 0.53304 0.62446 0.28906 0.0
H3974 H 0.54511 0.62266 0.30354 0.0
H3975 H 0.5597 0.59388 0.30783 0.0
H3976 H 0.59799 0.60184 0.34562 0.0
H3977 H 0.58589 0.60158 0.331 0.0
C3978 C 0.87402 0.28546 0.45167 0.0
C3979 C 0.88222 0.28179 0.45795 0.0
C3980 C 0.87492 0.29466 0.44752 0.0
C3981 C 0.89455 0.31166 0.4385 0.0
H3982 H 0.87129 0.33029 0.44006 0.0
C3983 C 0.89736 0.34848 0.41833 0.0
C3984 C 0.88781 0.3521 0.414 0.0
C3985 C 0.89705 0.34045 0.42471 0.0
C3986 C 0.87782 0.32514 0.43942 0.0
H3987 H 0.89789 0.28473 0.46465 0.0
H3988 H 0.89955 0.30081 0.4572 0.0
H3989 H 0.86993 0.31521 0.44937 0.0
H3990 H 0.8705 0.35012 0.41275 0.0
H3991 H 0.86995 0.33595 0.42352 0.0
H3992 H 0.90223 0.32126 0.42816 0.0
C3993 C 0.89235 0.29661 0.45568 0.0
C3994 C 0.87705 0.31654 0.44483 0.0
C3995 C 0.89135 0.28747 0.46001 0.0
C3996 C 0.87796 0.34755 0.41612 0.0
C3997 C 0.87766 0.33945 0.42235 0.0
C3998 C 0.89525 0.32019 0.43294 0.0
C3999 C 0.88415 0.30026 0.44938 0.0
C4000 C 0.88536 0.30969 0.44434 0.0
C4001 C 0.88719 0.33579 0.42676 0.0
C4002 C 0.88682 0.327 0.43322 0.0
H4003 H 0.86692 0.2812 0.44995 0.0
H4004 H 0.86853 0.29728 0.4426 0.0
H4005 H 0.90102 0.30643 0.43793 0.0
H4006 H 0.90505 0.35192 0.41686 0.0
H4007 H 0.90453 0.33796 0.42808 0.0
C4008 C 0.61623 0.70845 0.96666 0.0
C4009 C 0.60643 0.70984 0.97179 0.0
C4010 C 0.61683 0.70207 0.9585 0.0
C4011 C 0.60257 0.68124 0.94706 0.0
H4012 H 0.6209 0.68681 0.92403 0.0
C4013 C 0.60285 0.6578 0.91091 0.0
C4014 C 0.61309 0.65519 0.90725 0.0
C4015 C 0.60185 0.66473 0.91851 0.0
C4016 C 0.6158 0.68514 0.93044 0.0
H4017 H 0.5896 0.70565 0.97247 0.0
H4018 H 0.59054 0.69467 0.95807 0.0
H4019 H 0.61936 0.69852 0.93772 0.0
H4020 H 0.63029 0.65795 0.90849 0.0
H4021 H 0.62853 0.67011 0.92177 0.0
H4022 H 0.59893 0.6679 0.93968 0.0
C4023 C 0.59782 0.69838 0.96042 0.0
C4024 C 0.61493 0.69183 0.93831 0.0
C4025 C 0.59725 0.70471 0.96863 0.0
C4026 C 0.6223 0.65976 0.91123 0.0
C4027 C 0.62129 0.66678 0.91876 0.0
C4028 C 0.60336 0.6746 0.93914 0.0
C4029 C 0.60764 0.69693 0.95528 0.0
C4030 C 0.60835 0.68994 0.94675 0.0
C4031 C 0.61106 0.66928 0.92253 0.0
C4032 C 0.61002 0.67646 0.93078 0.0
H4033 H 0.62351 0.71206 0.96915 0.0
H4034 H 0.62458 0.70098 0.95489 0.0
H4035 H 0.59759 0.67944 0.95351 0.0
H4036 H 0.59562 0.65434 0.90803 0.0
H4037 H 0.59386 0.66657 0.92123 0.0
C4038 C 0.78137 0.54285 0.88326 0.0
C4039 C 0.77718 0.53714 0.87538 0.0
C4040 C 0.78854 0.55035 0.88118 0.0
C4041 C 0.79599 0.56682 0.86068 0.0
H4042 H 0.82082 0.57252 0.87764 0.0
C4043 C 0.82625 0.59681 0.85061 0.0
C4044 C 0.83022 0.60253 0.85859 0.0
C4045 C 0.82014 0.58859 0.85262 0.0
C4046 C 0.81385 0.57109 0.8729 0.0
H4047 H 0.77757 0.53463 0.85915 0.0
H4048 H 0.79011 0.54769 0.85554 0.0
H4049 H 0.80981 0.55838 0.88123 0.0
H4050 H 0.83091 0.60403 0.87494 0.0
H4051 H 0.81999 0.58985 0.87842 0.0
H4052 H 0.79988 0.57958 0.85244 0.0
C4053 C 0.78773 0.54643 0.86332 0.0
C4054 C 0.80756 0.56297 0.87494 0.0
C4055 C 0.7806 0.53891 0.8654 0.0
C4056 C 0.82788 0.59985 0.86861 0.0
C4057 C 0.82174 0.59164 0.87061 0.0
C4058 C 0.80224 0.57495 0.85866 0.0
C4059 C 0.79164 0.55233 0.87116 0.0
C4060 C 0.79855 0.56076 0.86886 0.0
C4061 C 0.81781 0.58591 0.86264 0.0
C4062 C 0.81124 0.57719 0.86475 0.0
H4063 H 0.77892 0.54169 0.89103 0.0
H4064 H 0.79136 0.55481 0.88738 0.0
H4065 H 0.78899 0.56541 0.85596 0.0
H4066 H 0.8278 0.59872 0.8428 0.0
H4067 H 0.81734 0.58429 0.84629 0.0
C4068 C 0.21328 0.02992 0.61167 0.0
C4069 C 0.2072 0.0218 0.60889 0.0
C4070 C 0.20816 0.03867 0.61384 0.0
C4071 C 0.18177 0.05129 0.61052 0.0
H4072 H 0.19303 0.06819 0.63142 0.0
C4073 C 0.15726 0.08285 0.62684 0.0
C4074 C 0.16248 0.09182 0.62684 0.0
C4075 C 0.16307 0.07445 0.62487 0.0
C4076 C 0.18985 0.06355 0.62553 0.0
H4077 H 0.19091 0.01642 0.60667 0.0
H4078 H 0.18201 0.03143 0.61084 0.0
H4079 H 0.20248 0.0532 0.62755 0.0
H4080 H 0.17788 0.09903 0.62511 0.0
H4081 H 0.18811 0.08424 0.62184 0.0
H4082 H 0.16896 0.06153 0.60876 0.0
C4083 C 0.19076 0.03123 0.61094 0.0
C4084 C 0.19528 0.05498 0.62326 0.0
C4085 C 0.19588 0.02255 0.60865 0.0
C4086 C 0.17367 0.0922 0.6251 0.0
C4087 C 0.17952 0.08376 0.62329 0.0
C4088 C 0.17627 0.05976 0.6129 0.0
C4089 C 0.19682 0.03944 0.61347 0.0
C4090 C 0.19128 0.04871 0.61575 0.0
C4091 C 0.17423 0.07483 0.623 0.0
C4092 C 0.18023 0.06594 0.62045 0.0
H4093 H 0.22196 0.02954 0.61239 0.0
H4094 H 0.21313 0.04482 0.61574 0.0
H4095 H 0.17857 0.0468 0.60452 0.0
H4096 H 0.14863 0.08237 0.62808 0.0
H4097 H 0.15883 0.06764 0.62476 0.0
C4098 C 0.71903 0.4464 0.39118 0.0
C4099 C 0.72214 0.45167 0.38259 0.0
C4100 C 0.71211 0.4385 0.39024 0.0
C4101 C 0.70118 0.42087 0.37192 0.0
H4102 H 0.67701 0.41973 0.39049 0.0
C4103 C 0.66454 0.39585 0.36532 0.0
C4104 C 0.65987 0.39144 0.37383 0.0
C4105 C 0.67262 0.40279 0.3665 0.0
C4106 C 0.68379 0.41984 0.38533 0.0
H4107 H 0.72071 0.45256 0.36622 0.0
H4108 H 0.70866 0.43879 0.36459 0.0
H4109 H 0.69051 0.43233 0.39243 0.0
H4110 H 0.66004 0.39092 0.39026 0.0
H4111 H 0.67433 0.40278 0.39229 0.0
H4112 H 0.69446 0.40839 0.36481 0.0
C4113 C 0.7116 0.44075 0.37206 0.0
C4114 C 0.69153 0.42707 0.38645 0.0
C4115 C 0.71846 0.44867 0.373 0.0
C4116 C 0.66354 0.39408 0.38353 0.0
C4117 C 0.67164 0.40098 0.3847 0.0
C4118 C 0.69346 0.4136 0.37083 0.0
C4119 C 0.70821 0.43567 0.38068 0.0
C4120 C 0.70028 0.4277 0.37972 0.0
C4121 C 0.67624 0.40546 0.37621 0.0
C4122 C 0.68463 0.41303 0.37749 0.0
H4123 H 0.72173 0.44849 0.39868 0.0
H4124 H 0.70975 0.43465 0.397 0.0
H4125 H 0.70791 0.42111 0.36669 0.0
H4126 H 0.66199 0.39391 0.35773 0.0
H4127 H 0.67589 0.40617 0.35979 0.0
C4128 C 0.27617 0.95968 0.10763 0.0
C4129 C 0.27097 0.96412 0.11585 0.0
C4130 C 0.28453 0.95309 0.10926 0.0
C4131 C 0.29501 0.93642 0.12857 0.0
H4132 H 0.32003 0.93525 0.11101 0.0
C4133 C 0.32959 0.90911 0.13504 0.0
C4134 C 0.33351 0.90439 0.12638 0.0
C4135 C 0.3226 0.91697 0.13413 0.0
C4136 C 0.31305 0.93544 0.11593 0.0
H4137 H 0.27073 0.96531 0.13224 0.0
H4138 H 0.28537 0.95387 0.13507 0.0
H4139 H 0.30677 0.94807 0.10874 0.0
H4140 H 0.33338 0.90442 0.10994 0.0
H4141 H 0.32104 0.91799 0.10834 0.0
H4142 H 0.30119 0.92371 0.13566 0.0
C4143 C 0.28287 0.95539 0.12736 0.0
C4144 C 0.30546 0.94279 0.11463 0.0
C4145 C 0.27452 0.962 0.12573 0.0
C4146 C 0.3304 0.90781 0.11677 0.0
C4147 C 0.32344 0.91567 0.11586 0.0
C4148 C 0.3026 0.92907 0.12986 0.0
C4149 C 0.28789 0.95078 0.11915 0.0
C4150 C 0.29629 0.94331 0.12088 0.0
C4151 C 0.3194 0.92031 0.12452 0.0
C4152 C 0.31166 0.92844 0.12349 0.0
H4153 H 0.27364 0.96114 0.09991 0.0
H4154 H 0.28814 0.94959 0.10277 0.0
H4155 H 0.28796 0.93652 0.13341 0.0
H4156 H 0.33177 0.90661 0.14255 0.0
H4157 H 0.31972 0.92044 0.14095 0.0
C4158 C 0.77825 0.46907 0.60945 0.0
C4159 C 0.77152 0.47186 0.61749 0.0
C4160 C 0.78678 0.46266 0.61107 0.0
C4161 C 0.79541 0.4433 0.62812 0.0
H4162 H 0.82332 0.44683 0.6154 0.0
C4163 C 0.83075 0.41685 0.63483 0.0
C4164 C 0.83696 0.41435 0.62632 0.0
C4165 C 0.82324 0.42435 0.6343 0.0
C4166 C 0.81554 0.44569 0.61893 0.0
H4167 H 0.76864 0.47024 0.63361 0.0
H4168 H 0.78354 0.45903 0.63643 0.0
H4169 H 0.8094 0.45913 0.61345 0.0
H4170 H 0.84033 0.41799 0.61066 0.0
H4171 H 0.82703 0.43084 0.60965 0.0
H4172 H 0.80142 0.42978 0.63341 0.0
C4173 C 0.78215 0.46177 0.62885 0.0
C4174 C 0.80758 0.45275 0.61782 0.0
C4175 C 0.77365 0.46823 0.62724 0.0
C4176 C 0.83557 0.41962 0.61732 0.0
C4177 C 0.82804 0.42709 0.61678 0.0
C4178 C 0.80335 0.43622 0.62918 0.0
C4179 C 0.78874 0.45885 0.62077 0.0
C4180 C 0.7974 0.4516 0.62234 0.0
C4181 C 0.82175 0.42953 0.62525 0.0
C4182 C 0.81349 0.43729 0.62453 0.0
H4183 H 0.77684 0.47173 0.60184 0.0
H4184 H 0.79166 0.46048 0.60467 0.0
H4185 H 0.78759 0.44215 0.63158 0.0
H4186 H 0.83155 0.41289 0.64186 0.0
H4187 H 0.81862 0.42611 0.641 0.0
C4188 C 0.29571 0.04407 0.37984 0.0
C4189 C 0.2907 0.03897 0.37192 0.0
C4190 C 0.30409 0.0505 0.37784 0.0
C4191 C 0.31454 0.06577 0.35745 0.0
H4192 H 0.33905 0.06889 0.37554 0.0
C4193 C 0.34822 0.09372 0.35007 0.0
C4194 C 0.35177 0.09902 0.35852 0.0
C4195 C 0.34144 0.08577 0.35131 0.0
C4196 C 0.33221 0.06815 0.37045 0.0
H4197 H 0.29085 0.03637 0.35571 0.0
H4198 H 0.30554 0.04758 0.35223 0.0
H4199 H 0.32625 0.05585 0.3784 0.0
H4200 H 0.35114 0.10001 0.37491 0.0
H4201 H 0.33915 0.0863 0.37704 0.0
H4202 H 0.32037 0.07818 0.3496 0.0
C4203 C 0.30287 0.04668 0.35997 0.0
C4204 C 0.32489 0.06067 0.37209 0.0
C4205 C 0.2945 0.04021 0.36198 0.0
C4206 C 0.34844 0.09616 0.36823 0.0
C4207 C 0.34168 0.08821 0.36946 0.0
C4208 C 0.32185 0.07326 0.35582 0.0
C4209 C 0.30765 0.05201 0.36786 0.0
C4210 C 0.3159 0.05947 0.36568 0.0
C4211 C 0.33809 0.08293 0.36102 0.0
C4212 C 0.3307 0.07461 0.36238 0.0
H4213 H 0.29299 0.04328 0.38759 0.0
H4214 H 0.30752 0.05456 0.38407 0.0
H4215 H 0.30761 0.06513 0.35245 0.0
H4216 H 0.35057 0.09578 0.34248 0.0
H4217 H 0.33888 0.0818 0.34465 0.0
C4218 C 0.71992 0.53019 0.10701 0.0
C4219 C 0.72033 0.52341 0.11488 0.0
C4220 C 0.71509 0.53916 0.10855 0.0
C4221 C 0.70728 0.55659 0.12804 0.0
H4222 H 0.68531 0.56444 0.10873 0.0
C4223 C 0.67854 0.5886 0.13567 0.0
C4224 C 0.67505 0.59419 0.1274 0.0
C4225 C 0.68466 0.58027 0.13415 0.0
C4226 C 0.69156 0.56249 0.11411 0.0
H4227 H 0.71618 0.52071 0.13055 0.0
H4228 H 0.70789 0.53647 0.1333 0.0
H4229 H 0.69523 0.54956 0.106 0.0
H4230 H 0.67544 0.59532 0.11099 0.0
H4231 H 0.68655 0.58119 0.10841 0.0
H4232 H 0.70379 0.56957 0.13609 0.0
C4233 C 0.71131 0.53484 0.12596 0.0
C4234 C 0.69721 0.55392 0.11255 0.0
C4235 C 0.71599 0.52582 0.12437 0.0
C4236 C 0.67807 0.59132 0.11758 0.0
C4237 C 0.68432 0.58307 0.11608 0.0
C4238 C 0.70174 0.56524 0.12955 0.0
C4239 C 0.7107 0.54156 0.11803 0.0
C4240 C 0.70507 0.55086 0.11953 0.0
C4241 C 0.68758 0.57736 0.12432 0.0
C4242 C 0.69374 0.56828 0.12263 0.0
H4243 H 0.72298 0.52845 0.09956 0.0
H4244 H 0.71473 0.54422 0.10232 0.0
H4245 H 0.71338 0.55442 0.1335 0.0
H4246 H 0.67653 0.59064 0.14336 0.0
H4247 H 0.68691 0.57602 0.1407 0.0
C4248 C 0.20907 0.95061 0.87762 0.0
C4249 C 0.21213 0.95618 0.86924 0.0
C4250 C 0.20212 0.94277 0.8764 0.0
C4251 C 0.19151 0.92549 0.85775 0.0
H4252 H 0.16746 0.92354 0.87638 0.0
C4253 C 0.15704 0.89771 0.85237 0.0
C4254 C 0.15303 0.89328 0.86116 0.0
C4255 C 0.16431 0.9054 0.85309 0.0
C4256 C 0.1742 0.92389 0.87119 0.0
H4257 H 0.21055 0.95771 0.85294 0.0
H4258 H 0.19848 0.94398 0.85082 0.0
H4259 H 0.18037 0.93663 0.87823 0.0
H4260 H 0.15338 0.89361 0.8776 0.0
H4261 H 0.16627 0.90669 0.87884 0.0
H4262 H 0.18544 0.91267 0.85079 0.0
C4263 C 0.20146 0.94569 0.85833 0.0
C4264 C 0.18159 0.93141 0.87225 0.0
C4265 C 0.20833 0.95358 0.85956 0.0
C4266 C 0.15643 0.89673 0.87066 0.0
C4267 C 0.16371 0.90435 0.87138 0.0
C4268 C 0.18415 0.91791 0.85673 0.0
C4269 C 0.19815 0.94029 0.86676 0.0
C4270 C 0.19034 0.93227 0.86557 0.0
C4271 C 0.16773 0.90881 0.86261 0.0
C4272 C 0.17543 0.91699 0.86348 0.0
H4273 H 0.21185 0.9524 0.88518 0.0
H4274 H 0.19982 0.93866 0.88302 0.0
H4275 H 0.19823 0.92595 0.85253 0.0
H4276 H 0.15467 0.89519 0.84493 0.0
H4277 H 0.16714 0.90872 0.84618 0.0
C4278 C 0.86534 0.78652 0.5436 0.0
C4279 C 0.85653 0.78352 0.53763 0.0
C4280 C 0.86396 0.79346 0.55116 0.0
C4281 C 0.84516 0.81251 0.55991 0.0
H4282 H 0.85969 0.80882 0.5857 0.0
C4283 C 0.84243 0.84076 0.59165 0.0
C4284 C 0.84106 0.83737 0.60159 0.0
C4285 C 0.84503 0.83443 0.58382 0.0
C4286 C 0.85552 0.80993 0.57857 0.0
H4287 H 0.83938 0.78555 0.53487 0.0
H4288 H 0.83694 0.7975 0.54812 0.0
H4289 H 0.86265 0.79738 0.572 0.0
H4290 H 0.84146 0.82472 0.61115 0.0
H4291 H 0.84585 0.8136 0.59743 0.0
H4292 H 0.83772 0.82485 0.56657 0.0
C4293 C 0.84496 0.79462 0.54687 0.0
C4294 C 0.85733 0.80343 0.57066 0.0
C4295 C 0.84635 0.78772 0.53929 0.0
C4296 C 0.84256 0.82754 0.60357 0.0
C4297 C 0.84509 0.82118 0.59571 0.0
C4298 C 0.84332 0.81898 0.56782 0.0
C4299 C 0.85373 0.79753 0.55295 0.0
C4300 C 0.85213 0.80462 0.56125 0.0
C4301 C 0.84626 0.82454 0.58572 0.0
C4302 C 0.84845 0.81775 0.57726 0.0
H4303 H 0.8733 0.78346 0.5425 0.0
H4304 H 0.87092 0.79564 0.5556 0.0
H4305 H 0.84112 0.81372 0.55273 0.0
H4306 H 0.84152 0.84833 0.58993 0.0
H4307 H 0.8461 0.8373 0.57626 0.0
C4308 C 0.94648 0.11972 0.25166 0.0
C4309 C 0.95677 0.12285 0.25481 0.0
C4310 C 0.93741 0.12138 0.25767 0.0
C4311 C 0.92895 0.12642 0.28376 0.0
H4312 H 0.9027 0.1358 0.27098 0.0
C4313 C 0.88833 0.12848 0.30492 0.0
C4314 C 0.88239 0.13704 0.3038 0.0
C4315 C 0.89729 0.12666 0.2988 0.0
C4316 C 0.90998 0.13322 0.27466 0.0
H4317 H 0.96559 0.13008 0.26683 0.0
H4318 H 0.94971 0.13295 0.27736 0.0
H4319 H 0.91876 0.1329 0.26071 0.0
H4320 H 0.88101 0.15028 0.29523 0.0
H4321 H 0.8967 0.14709 0.28452 0.0
H4322 H 0.9202 0.1268 0.29772 0.0
C4323 C 0.94871 0.12918 0.27023 0.0
C4324 C 0.91914 0.13148 0.26877 0.0
C4325 C 0.95779 0.12757 0.26418 0.0
C4326 C 0.88548 0.14365 0.2963 0.0
C4327 C 0.8944 0.14179 0.29013 0.0
C4328 C 0.91977 0.12809 0.28964 0.0
C4329 C 0.93842 0.12617 0.26699 0.0
C4330 C 0.92872 0.12806 0.27327 0.0
C4331 C 0.90047 0.13332 0.2914 0.0
C4332 C 0.91019 0.13151 0.28514 0.0
H4333 H 0.94539 0.11605 0.24449 0.0
H4334 H 0.92961 0.11887 0.25504 0.0
H4335 H 0.9362 0.12372 0.28742 0.0
H4336 H 0.88622 0.1233 0.3107 0.0
H4337 H 0.90174 0.12003 0.29988 0.0
C4338 C 0.64495 0.21297 0.0399 0.0
C4339 C 0.63819 0.22108 0.03948 0.0
C4340 C 0.64713 0.20844 0.04912 0.0
C4341 C 0.63553 0.20546 0.07461 0.0
H4342 H 0.66258 0.19218 0.07973 0.0
C4343 C 0.64284 0.18258 0.11059 0.0
C4344 C 0.64674 0.17324 0.10866 0.0
C4345 C 0.64284 0.18956 0.10297 0.0
C4346 C 0.65499 0.19586 0.0784 0.0
H4347 H 0.62882 0.23108 0.04852 0.0
H4348 H 0.63282 0.22329 0.06466 0.0
H4349 H 0.66089 0.20267 0.06499 0.0
H4350 H 0.65376 0.16401 0.09714 0.0
H4351 H 0.65398 0.17624 0.08399 0.0
H4352 H 0.62962 0.19856 0.08799 0.0
C4353 C 0.63624 0.2203 0.05781 0.0
C4354 C 0.654 0.20185 0.06995 0.0
C4355 C 0.634 0.2248 0.04856 0.0
C4356 C 0.65089 0.17116 0.099 0.0
C4357 C 0.651 0.17816 0.09143 0.0
C4358 C 0.63655 0.19954 0.08312 0.0
C4359 C 0.64267 0.21195 0.05818 0.0
C4360 C 0.64417 0.20654 0.06781 0.0
C4361 C 0.64685 0.18739 0.0933 0.0
C4362 C 0.64621 0.19452 0.08497 0.0
H4363 H 0.6483 0.20989 0.03305 0.0
H4364 H 0.65197 0.20195 0.04906 0.0
H4365 H 0.62779 0.20883 0.07315 0.0
H4366 H 0.63975 0.18449 0.11799 0.0
H4367 H 0.63969 0.19665 0.10464 0.0
C4368 C 0.55218 0.87186 0.76223 0.0
C4369 C 0.5465 0.864 0.75816 0.0
C4370 C 0.56189 0.87048 0.76743 0.0
C4371 C 0.58448 0.85376 0.77156 0.0
H4372 H 0.58652 0.86653 0.79761 0.0
C4373 C 0.61808 0.84538 0.8011 0.0
C4374 C 0.6218 0.85299 0.80722 0.0
C4375 C 0.6095 0.84677 0.79432 0.0
C4376 C 0.58621 0.86304 0.79028 0.0
H4377 H 0.54681 0.84852 0.75603 0.0
H4378 H 0.56388 0.84612 0.76513 0.0
H4379 H 0.57055 0.86885 0.78714 0.0
H4380 H 0.61954 0.86812 0.81072 0.0
H4381 H 0.60503 0.87062 0.79863 0.0
H4382 H 0.60022 0.848 0.77468 0.0
C4383 C 0.56076 0.85336 0.76426 0.0
C4384 C 0.57701 0.86435 0.7843 0.0
C4385 C 0.55097 0.85473 0.75911 0.0
C4386 C 0.61702 0.8621 0.80608 0.0
C4387 C 0.60853 0.8635 0.79924 0.0
C4388 C 0.59376 0.85251 0.77752 0.0
C4389 C 0.5662 0.8612 0.76863 0.0
C4390 C 0.57605 0.85974 0.77487 0.0
C4391 C 0.60448 0.85581 0.79346 0.0
C4392 C 0.59474 0.85715 0.78696 0.0
H4393 H 0.54901 0.8791 0.7616 0.0
H4394 H 0.56599 0.87667 0.7706 0.0
H4395 H 0.58397 0.85017 0.76429 0.0
H4396 H 0.62168 0.8383 0.80165 0.0
H4397 H 0.60657 0.84066 0.79002 0.0
C4398 C 0.83153 0.21506 0.93682 0.0
C4399 C 0.83892 0.2227 0.9362 0.0
C4400 C 0.82846 0.21 0.92813 0.0
C4401 C 0.83852 0.2042 0.90261 0.0
H4402 H 0.81039 0.19219 0.89982 0.0
C4403 C 0.82812 0.1782 0.86969 0.0
C4404 C 0.82365 0.1694 0.87286 0.0
C4405 C 0.82891 0.18596 0.87641 0.0
C4406 C 0.81828 0.19552 0.9005 0.0
H4407 H 0.84845 0.23135 0.92588 0.0
H4408 H 0.84292 0.22264 0.91069 0.0
H4409 H 0.81349 0.20385 0.91335 0.0
H4410 H 0.81653 0.16194 0.88566 0.0
H4411 H 0.8177 0.17549 0.89721 0.0
H4412 H 0.84332 0.19575 0.88982 0.0
C4413 C 0.83968 0.22042 0.91793 0.0
C4414 C 0.82007 0.20217 0.90826 0.0
C4415 C 0.8428 0.22545 0.92663 0.0
C4416 C 0.81979 0.16864 0.88284 0.0
C4417 C 0.82048 0.17641 0.8895 0.0
C4418 C 0.8367 0.19761 0.89479 0.0
C4419 C 0.83266 0.21249 0.9186 0.0
C4420 C 0.8303 0.20641 0.90957 0.0
C4421 C 0.82516 0.18511 0.8864 0.0
C4422 C 0.82664 0.19302 0.89382 0.0
H4423 H 0.82839 0.21273 0.94406 0.0
H4424 H 0.82316 0.20387 0.92898 0.0
H4425 H 0.84655 0.20721 0.90346 0.0
H4426 H 0.83102 0.17911 0.86203 0.0
H4427 H 0.83249 0.19262 0.87381 0.0
C4428 C 0.54638 0.14586 0.71399 0.0
C4429 C 0.54681 0.13964 0.72237 0.0
C4430 C 0.55568 0.14775 0.70836 0.0
C4431 C 0.58188 0.13638 0.70254 0.0
H4432 H 0.58578 0.15946 0.68651 0.0
C4433 C 0.60671 0.13618 0.66602 0.0
C4434 C 0.61257 0.1444 0.66325 0.0
C4435 C 0.59998 0.13633 0.67447 0.0
C4436 C 0.58495 0.15301 0.69104 0.0
H4437 H 0.55746 0.13117 0.73191 0.0
H4438 H 0.57376 0.13474 0.72231 0.0
H4439 H 0.57203 0.15913 0.69965 0.0
H4440 H 0.61619 0.15916 0.66727 0.0
H4441 H 0.60454 0.15939 0.6822 0.0
H4442 H 0.59488 0.13031 0.69406 0.0
C4443 C 0.56618 0.13789 0.71986 0.0
C4444 C 0.57695 0.15278 0.6985 0.0
C4445 C 0.55685 0.13589 0.72541 0.0
C4446 C 0.61168 0.15274 0.6692 0.0
C4447 C 0.60499 0.15287 0.67772 0.0
C4448 C 0.58994 0.13665 0.69517 0.0
C4449 C 0.56565 0.14357 0.71105 0.0
C4450 C 0.57512 0.14437 0.70416 0.0
C4451 C 0.59899 0.14468 0.68043 0.0
C4452 C 0.59137 0.14487 0.68912 0.0
H4453 H 0.53876 0.14885 0.71143 0.0
H4454 H 0.55488 0.15207 0.70157 0.0
H4455 H 0.58068 0.12973 0.70664 0.0
H4456 H 0.60707 0.1297 0.66148 0.0
H4457 H 0.5953 0.12995 0.67615 0.0
C4458 C 0.6267 0.76407 0.43099 0.0
C4459 C 0.63153 0.76802 0.43971 0.0
C4460 C 0.62823 0.76835 0.4215 0.0
C4461 C 0.6455 0.78615 0.40801 0.0
H4462 H 0.62043 0.78918 0.39056 0.0
C4463 C 0.64203 0.81603 0.37835 0.0
C4464 C 0.63834 0.81362 0.36857 0.0
C4465 C 0.64175 0.80931 0.38618 0.0
C4466 C 0.62753 0.78826 0.39528 0.0
H4467 H 0.64189 0.77947 0.44526 0.0
H4468 H 0.64434 0.787 0.42887 0.0
H4469 H 0.61908 0.77939 0.40586 0.0
H4470 H 0.63136 0.80218 0.35946 0.0
H4471 H 0.63055 0.79052 0.37333 0.0
H4472 H 0.65378 0.79538 0.39765 0.0
C4473 C 0.63956 0.78049 0.42926 0.0
C4474 C 0.62678 0.78264 0.40404 0.0
C4475 C 0.63808 0.7762 0.4387 0.0
C4476 C 0.63418 0.80433 0.3669 0.0
C4477 C 0.63376 0.79763 0.37481 0.0
C4478 C 0.6462 0.79183 0.39933 0.0
C4479 C 0.63459 0.77668 0.42054 0.0
C4480 C 0.63569 0.78169 0.41064 0.0
C4481 C 0.63762 0.80005 0.3845 0.0
C4482 C 0.63717 0.79311 0.393 0.0
H4483 H 0.62164 0.75774 0.4315 0.0
H4484 H 0.62439 0.76515 0.41493 0.0
H4485 H 0.65259 0.78539 0.41277 0.0
H4486 H 0.64499 0.82317 0.38004 0.0
H4487 H 0.64457 0.81144 0.39363 0.0
C4488 C 0.94011 0.86784 0.22095 0.0
C4489 C 0.94647 0.85996 0.224 0.0
C4490 C 0.93157 0.86658 0.21412 0.0
C4491 C 0.91299 0.84884 0.20302 0.0
H4492 H 0.91347 0.86563 0.1796 0.0
C4493 C 0.88728 0.84148 0.16712 0.0
C4494 C 0.88335 0.84939 0.16157 0.0
C4495 C 0.89425 0.84284 0.17536 0.0
C4496 C 0.91305 0.86099 0.18616 0.0
H4497 H 0.94851 0.84451 0.22264 0.0
H4498 H 0.93348 0.84232 0.2108 0.0
H4499 H 0.92659 0.86794 0.19313 0.0
H4500 H 0.88364 0.86498 0.16053 0.0
H4501 H 0.89525 0.86735 0.17514 0.0
H4502 H 0.89937 0.84194 0.19613 0.0
C4503 C 0.93516 0.84946 0.21367 0.0
C4504 C 0.92061 0.8623 0.1939 0.0
C4505 C 0.9438 0.85073 0.22041 0.0
C4506 C 0.88635 0.8587 0.16467 0.0
C4507 C 0.89319 0.86006 0.17298 0.0
C4508 C 0.90531 0.84759 0.19532 0.0
C4509 C 0.92912 0.8574 0.2103 0.0
C4510 C 0.92071 0.85621 0.20237 0.0
C4511 C 0.89738 0.85215 0.17834 0.0
C4512 C 0.90528 0.85362 0.18675 0.0
H4513 H 0.94194 0.87503 0.22358 0.0
H4514 H 0.92697 0.8728 0.21172 0.0
H4515 H 0.91285 0.84408 0.20951 0.0
H4516 H 0.88502 0.83422 0.16507 0.0
H4517 H 0.89737 0.83656 0.17923 0.0
C4518 C 0.04856 0.63706 0.21524 0.0
C4519 C 0.04793 0.62951 0.22229 0.0
C4520 C 0.05772 0.63816 0.2092 0.0
C4521 C 0.08629 0.63289 0.20623 0.0
H4522 H 0.07975 0.63148 0.17748 0.0
C4523 C 0.11614 0.64076 0.17289 0.0
C4524 C 0.11671 0.63338 0.16564 0.0
C4525 C 0.10852 0.64034 0.18069 0.0
C4526 C 0.08168 0.6319 0.18548 0.0
H4527 H 0.05668 0.61756 0.22898 0.0
H4528 H 0.07284 0.61965 0.21853 0.0
H4529 H 0.06503 0.63124 0.18978 0.0
H4530 H 0.10987 0.61978 0.16084 0.0
H4531 H 0.09637 0.61916 0.17432 0.0
H4532 H 0.10299 0.6337 0.20183 0.0
C4533 C 0.06616 0.62463 0.21765 0.0
C4534 C 0.07328 0.63182 0.1925 0.0
C4535 C 0.05691 0.62342 0.22359 0.0
C4536 C 0.10966 0.62551 0.16639 0.0
C4537 C 0.10192 0.62518 0.17405 0.0
C4538 C 0.09471 0.63318 0.19917 0.0
C4539 C 0.0665 0.63183 0.21022 0.0
C4540 C 0.07551 0.63225 0.20292 0.0
C4541 C 0.10123 0.63263 0.1812 0.0
C4542 C 0.09245 0.63259 0.18875 0.0
H4543 H 0.0418 0.64189 0.21404 0.0
H4544 H 0.05784 0.6438 0.20355 0.0
H4545 H 0.08818 0.63324 0.21424 0.0
H4546 H 0.12152 0.64689 0.17246 0.0
H4547 H 0.10808 0.64618 0.18611 0.0
C4548 C 0.13747 0.2714 0.93905 0.0
C4549 C 0.12742 0.26841 0.94284 0.0
C4550 C 0.13814 0.2761 0.92971 0.0
C4551 C 0.12184 0.29105 0.91266 0.0
H4552 H 0.14481 0.28629 0.8934 0.0
C4553 C 0.12382 0.31149 0.87479 0.0
C4554 C 0.13404 0.31472 0.87167 0.0
C4555 C 0.12284 0.30502 0.88283 0.0
C4556 C 0.1384 0.28776 0.89874 0.0
H4557 H 0.11022 0.26772 0.93962 0.0
H4558 H 0.11141 0.27592 0.92334 0.0
H4559 H 0.14346 0.27636 0.90859 0.0
H4560 H 0.15129 0.31339 0.87438 0.0
H4561 H 0.14957 0.30236 0.88859 0.0
H4562 H 0.11691 0.30259 0.90302 0.0
C4563 C 0.11876 0.27471 0.92764 0.0
C4564 C 0.13762 0.28206 0.90743 0.0
C4565 C 0.11809 0.26996 0.93695 0.0
C4566 C 0.14328 0.31117 0.87667 0.0
C4567 C 0.1423 0.30473 0.88474 0.0
C4568 C 0.12265 0.29678 0.90402 0.0
C4569 C 0.12876 0.27795 0.92399 0.0
C4570 C 0.12936 0.28367 0.91451 0.0
C4571 C 0.13206 0.30165 0.88799 0.0
C4572 C 0.13097 0.29525 0.89697 0.0
H4573 H 0.14482 0.27031 0.94338 0.0
H4574 H 0.14596 0.27858 0.92714 0.0
H4575 H 0.11549 0.29258 0.91806 0.0
H4576 H 0.11652 0.31414 0.8712 0.0
H4577 H 0.11483 0.3027 0.88503 0.0
C4578 C 0.44364 0.35701 0.7161 0.0
C4579 C 0.44659 0.3665 0.71853 0.0
C4580 C 0.43512 0.3552 0.70936 0.0
C4581 C 0.42134 0.36622 0.68786 0.0
H4582 H 0.39915 0.34701 0.69224 0.0
C4583 C 0.38646 0.36158 0.65952 0.0
C4584 C 0.38296 0.35219 0.6573 0.0
C4585 C 0.39354 0.36331 0.66757 0.0
C4586 C 0.40537 0.35232 0.69084 0.0
H4587 H 0.44265 0.38153 0.71604 0.0
H4588 H 0.42789 0.37836 0.70423 0.0
H4589 H 0.41275 0.34996 0.70537 0.0
H4590 H 0.38398 0.33728 0.66207 0.0
H4591 H 0.39671 0.34024 0.67583 0.0
H4592 H 0.41429 0.36843 0.67327 0.0
C4593 C 0.4322 0.37233 0.70751 0.0
C4594 C 0.41312 0.35403 0.69838 0.0
C4595 C 0.44063 0.37413 0.71432 0.0
C4596 C 0.38662 0.34459 0.66345 0.0
C4597 C 0.39381 0.34631 0.67145 0.0
C4598 C 0.4137 0.36445 0.6803 0.0
C4599 C 0.42947 0.36286 0.70485 0.0
C4600 C 0.42115 0.36103 0.69697 0.0
C4601 C 0.39745 0.35568 0.67355 0.0
C4602 C 0.40557 0.35752 0.68169 0.0
H4603 H 0.44805 0.35096 0.71924 0.0
H4604 H 0.43322 0.34783 0.7074 0.0
H4605 H 0.42757 0.37154 0.68649 0.0
H4606 H 0.38396 0.36761 0.65489 0.0
H4607 H 0.39599 0.37065 0.66906 0.0
C4608 C 0.13846 0.72572 0.545 0.0
C4609 C 0.14105 0.72143 0.53566 0.0
C4610 C 0.14231 0.7218 0.55407 0.0
C4611 C 0.1617 0.70395 0.56485 0.0
H4612 H 0.13965 0.70099 0.58542 0.0
C4613 C 0.16224 0.67382 0.59464 0.0
C4614 C 0.15849 0.67578 0.60448 0.0
C4615 C 0.16176 0.68083 0.5871 0.0
C4616 C 0.14598 0.7019 0.57986 0.0
H4617 H 0.15018 0.70997 0.52853 0.0
H4618 H 0.15671 0.70305 0.54431 0.0
H4619 H 0.13597 0.71084 0.5706 0.0
H4620 H 0.15174 0.68684 0.61418 0.0
H4621 H 0.15076 0.69907 0.60093 0.0
H4622 H 0.17153 0.69465 0.57398 0.0
C4623 C 0.15183 0.70951 0.54465 0.0
C4624 C 0.14388 0.70757 0.57135 0.0
C4625 C 0.14802 0.71345 0.53558 0.0
C4626 C 0.15454 0.68504 0.60665 0.0
C4627 C 0.154 0.69205 0.59907 0.0
C4628 C 0.16378 0.69824 0.57336 0.0
C4629 C 0.1488 0.71349 0.55402 0.0
C4630 C 0.15162 0.70849 0.56363 0.0
C4631 C 0.15746 0.68997 0.58918 0.0
C4632 C 0.15585 0.69699 0.58084 0.0
H4633 H 0.13319 0.73193 0.54533 0.0
H4634 H 0.13999 0.72515 0.56114 0.0
H4635 H 0.16791 0.70464 0.55914 0.0
H4636 H 0.16516 0.66672 0.59263 0.0
H4637 H 0.16432 0.67895 0.57952 0.0
C4638 C 0.33565 0.28889 0.02927 0.0
C4639 C 0.33439 0.27895 0.03077 0.0
C4640 C 0.33407 0.29534 0.03727 0.0
C4641 C 0.33451 0.29665 0.06504 0.0
H4642 H 0.31764 0.3199 0.06136 0.0
C4643 C 0.32287 0.32099 0.09872 0.0
C4644 C 0.323 0.33097 0.09714 0.0
C4645 C 0.32414 0.31466 0.09058 0.0
C4646 C 0.32249 0.31351 0.06249 0.0
H4647 H 0.3304 0.268 0.04187 0.0
H4648 H 0.32769 0.27923 0.05578 0.0
H4649 H 0.32018 0.30895 0.04713 0.0
H4650 H 0.32479 0.34216 0.08584 0.0
H4651 H 0.32718 0.33115 0.07168 0.0
H4652 H 0.33699 0.30124 0.08033 0.0
C4653 C 0.32995 0.28203 0.04843 0.0
C4654 C 0.32393 0.30723 0.05433 0.0
C4655 C 0.33144 0.27561 0.04043 0.0
C4656 C 0.32448 0.3345 0.08727 0.0
C4657 C 0.32582 0.32818 0.07914 0.0
C4658 C 0.33315 0.30296 0.07317 0.0
C4659 C 0.3313 0.29196 0.04695 0.0
C4660 C 0.32991 0.29872 0.05554 0.0
C4661 C 0.32565 0.31818 0.08069 0.0
C4662 C 0.3271 0.31146 0.07202 0.0
H4663 H 0.33792 0.2917 0.02193 0.0
H4664 H 0.33522 0.30295 0.03593 0.0
H4665 H 0.33929 0.29021 0.06615 0.0
H4666 H 0.32165 0.31808 0.10624 0.0
H4667 H 0.32379 0.307 0.09203 0.0
C4668 C 0.50253 0.37734 0.19382 0.0
C4669 C 0.50686 0.37958 0.2034 0.0
C4670 C 0.5092 0.37665 0.18535 0.0
C4671 C 0.53566 0.38415 0.17545 0.0
H4672 H 0.53114 0.36327 0.1564 0.0
C4673 C 0.56507 0.37686 0.14259 0.0
C4674 C 0.56054 0.37452 0.13312 0.0
C4675 C 0.55863 0.37725 0.15124 0.0
C4676 C 0.53243 0.3692 0.16159 0.0
H4677 H 0.52165 0.38295 0.21153 0.0
H4678 H 0.53333 0.38172 0.19672 0.0
H4679 H 0.51976 0.36449 0.17139 0.0
H4680 H 0.54572 0.37069 0.12531 0.0
H4681 H 0.53442 0.37141 0.14043 0.0
H4682 H 0.54828 0.3889 0.16563 0.0
C4683 C 0.52473 0.38056 0.19578 0.0
C4684 C 0.52592 0.3699 0.17018 0.0
C4685 C 0.51805 0.38122 0.20428 0.0
C4686 C 0.54945 0.37242 0.13252 0.0
C4687 C 0.54299 0.37283 0.14118 0.0
C4688 C 0.54216 0.38347 0.16685 0.0
C4689 C 0.52038 0.37822 0.18623 0.0
C4690 C 0.52744 0.37739 0.1772 0.0
C4691 C 0.5475 0.37531 0.15063 0.0
C4692 C 0.54062 0.37599 0.15981 0.0
H4693 H 0.49394 0.37606 0.19285 0.0
H4694 H 0.50558 0.37498 0.17808 0.0
H4695 H 0.53694 0.39008 0.18064 0.0
H4696 H 0.57363 0.37834 0.14333 0.0
H4697 H 0.5624 0.37899 0.15842 0.0
C4698 C 0.96471 0.60203 0.69415 0.0
C4699 C 0.96873 0.60983 0.69977 0.0
C4700 C 0.95514 0.6029 0.6886 0.0
C4701 C 0.9374 0.62066 0.67636 0.0
H4702 H 0.91639 0.59999 0.67698 0.0
C4703 C 0.89602 0.6234 0.65595 0.0
C4704 C 0.89233 0.61511 0.65092 0.0
C4705 C 0.90508 0.62299 0.66231 0.0
C4706 C 0.92222 0.60578 0.67664 0.0
H4707 H 0.96616 0.62482 0.70357 0.0
H4708 H 0.94931 0.62632 0.69398 0.0
H4709 H 0.93271 0.59887 0.68731 0.0
H4710 H 0.89538 0.59994 0.64845 0.0
H4711 H 0.91121 0.59922 0.65944 0.0
H4712 H 0.927 0.62751 0.66556 0.0
C4713 C 0.95353 0.6195 0.69395 0.0
C4714 C 0.93156 0.60514 0.68257 0.0
C4715 C 0.96309 0.61859 0.69957 0.0
C4716 C 0.89791 0.60641 0.65236 0.0
C4717 C 0.90698 0.60601 0.65868 0.0
C4718 C 0.92807 0.62128 0.67038 0.0
C4719 C 0.94942 0.61164 0.68844 0.0
C4720 C 0.9393 0.61254 0.68244 0.0
C4721 C 0.91068 0.61428 0.66374 0.0
C4722 C 0.92041 0.61381 0.67038 0.0
H4723 H 0.96893 0.59519 0.69412 0.0
H4724 H 0.95228 0.59676 0.6843 0.0
H4725 H 0.94327 0.62642 0.67601 0.0
H4726 H 0.89182 0.63019 0.65508 0.0
H4727 H 0.90761 0.62947 0.6662 0.0
C4728 C 0.60266 0.29686 0.52644 0.0
C4729 C 0.5927 0.29305 0.52323 0.0
C4730 C 0.60302 0.30467 0.53308 0.0
C4731 C 0.58745 0.31785 0.55218 0.0
H4732 H 0.60657 0.33895 0.54536 0.0
C4733 C 0.58742 0.35369 0.57445 0.0
C4734 C 0.59747 0.35812 0.57615 0.0
C4735 C 0.5866 0.34575 0.56799 0.0
C4736 C 0.60129 0.33307 0.54747 0.0
H4737 H 0.57529 0.29432 0.52469 0.0
H4738 H 0.57595 0.30795 0.53638 0.0
H4739 H 0.60567 0.32491 0.53436 0.0
H4740 H 0.61455 0.35759 0.57265 0.0
H4741 H 0.61318 0.34365 0.56155 0.0
H4742 H 0.5832 0.32592 0.56539 0.0
C4743 C 0.58346 0.30487 0.53373 0.0
C4744 C 0.60076 0.32504 0.54114 0.0
C4745 C 0.5831 0.29709 0.527 0.0
C4746 C 0.60668 0.35442 0.57134 0.0
C4747 C 0.60587 0.34644 0.56496 0.0
C4748 C 0.58805 0.32586 0.55857 0.0
C4749 C 0.59343 0.3088 0.53672 0.0
C4750 C 0.59387 0.31734 0.54344 0.0
C4751 C 0.59582 0.34202 0.56317 0.0
C4752 C 0.59501 0.33356 0.55631 0.0
H4753 H 0.61021 0.29391 0.5237 0.0
H4754 H 0.61082 0.30748 0.53536 0.0
H4755 H 0.58213 0.31197 0.55418 0.0
H4756 H 0.58017 0.35646 0.57799 0.0
H4757 H 0.57871 0.34262 0.56668 0.0
C4758 C 0.45007 0.63531 0.77457 0.0
C4759 C 0.4478 0.62982 0.76587 0.0
C4760 C 0.44196 0.63729 0.78162 0.0
C4761 C 0.41498 0.62901 0.79005 0.0
H4762 H 0.41336 0.65432 0.8023 0.0
C4763 C 0.37845 0.64118 0.81389 0.0
C4764 C 0.38077 0.64595 0.82304 0.0
C4765 C 0.38662 0.63938 0.80686 0.0
C4766 C 0.41377 0.6472 0.79901 0.0
H4767 H 0.43519 0.62213 0.75777 0.0
H4768 H 0.42105 0.6257 0.76996 0.0
H4769 H 0.42771 0.65076 0.79024 0.0
H4770 H 0.39355 0.65255 0.83195 0.0
H4771 H 0.40775 0.64951 0.81961 0.0
H4772 H 0.40097 0.62549 0.79876 0.0
C4773 C 0.42914 0.62834 0.77144 0.0
C4774 C 0.422 0.64514 0.79211 0.0
C4775 C 0.43724 0.62634 0.76441 0.0
C4776 C 0.39143 0.649 0.82491 0.0
C4777 C 0.39958 0.64724 0.81785 0.0
C4778 C 0.40672 0.63108 0.7969 0.0
C4779 C 0.43139 0.63385 0.78013 0.0
C4780 C 0.42271 0.63602 0.78755 0.0
C4781 C 0.39728 0.64235 0.80879 0.0
C4782 C 0.40602 0.6402 0.80145 0.0
H4783 H 0.45813 0.63808 0.77595 0.0
H4784 H 0.44402 0.64143 0.78831 0.0
H4785 H 0.41538 0.62186 0.78682 0.0
H4786 H 0.3703 0.63887 0.81213 0.0
H4787 H 0.38457 0.63572 0.79987 0.0
C4788 C 0.05678 0.3822 0.26582 0.0
C4789 C 0.05173 0.37345 0.26332 0.0
C4790 C 0.06667 0.38226 0.27097 0.0
C4791 C 0.09037 0.36739 0.27769 0.0
H4792 H 0.09136 0.38325 0.30184 0.0
C4793 C 0.1211 0.36105 0.30994 0.0
C4794 C 0.12478 0.36895 0.31565 0.0
C4795 C 0.11327 0.36225 0.3024 0.0
C4796 C 0.09135 0.37892 0.29502 0.0
H4797 H 0.05336 0.35792 0.26387 0.0
H4798 H 0.07065 0.35806 0.27281 0.0
H4799 H 0.07582 0.38423 0.29055 0.0
H4800 H 0.12332 0.38439 0.31759 0.0
H4801 H 0.11 0.38655 0.30419 0.0
H4802 H 0.10589 0.36203 0.28217 0.0
C4803 C 0.06695 0.36486 0.27078 0.0
C4804 C 0.08241 0.37948 0.28856 0.0
C4805 C 0.05701 0.36479 0.26572 0.0
C4806 C 0.12075 0.37815 0.31332 0.0
C4807 C 0.11298 0.37937 0.30571 0.0
C4808 C 0.09938 0.3669 0.2841 0.0
C4809 C 0.07178 0.37359 0.27363 0.0
C4810 C 0.08175 0.37361 0.27992 0.0
C4811 C 0.10897 0.37141 0.3003 0.0
C4812 C 0.0999 0.37254 0.29295 0.0
H4813 H 0.05295 0.38901 0.26407 0.0
H4814 H 0.07027 0.3891 0.27299 0.0
H4815 H 0.09013 0.36287 0.27101 0.0
H4816 H 0.12415 0.35388 0.31141 0.0
H4817 H 0.11032 0.35594 0.29847 0.0
C4818 C 0.35291 0.72026 0.43237 0.0
C4819 C 0.34968 0.71776 0.44222 0.0
C4820 C 0.35134 0.71387 0.42429 0.0
C4821 C 0.33593 0.69197 0.41695 0.0
H4822 H 0.35937 0.68789 0.398 0.0
C4823 C 0.3398 0.65755 0.39331 0.0
C4824 C 0.34252 0.6584 0.38301 0.0
C4825 C 0.3401 0.66554 0.3997 0.0
C4826 C 0.3527 0.68905 0.40315 0.0
H4827 H 0.34215 0.70659 0.45126 0.0
H4828 H 0.3396 0.69548 0.43731 0.0
H4829 H 0.36079 0.70066 0.41066 0.0
H4830 H 0.34769 0.66842 0.37139 0.0
H4831 H 0.34844 0.68236 0.38268 0.0
H4832 H 0.32801 0.68016 0.40966 0.0
C4833 C 0.34317 0.70243 0.43574 0.0
C4834 C 0.35349 0.69637 0.41039 0.0
C4835 C 0.34471 0.70879 0.44378 0.0
C4836 C 0.34566 0.66747 0.3793 0.0
C4837 C 0.34606 0.67546 0.38574 0.0
C4838 C 0.33518 0.68463 0.40978 0.0
C4839 C 0.3465 0.70485 0.4259 0.0
C4840 C 0.34521 0.69779 0.41751 0.0
C4841 C 0.34322 0.67458 0.39599 0.0
C4842 C 0.34364 0.68296 0.40293 0.0
H4843 H 0.35675 0.72712 0.4309 0.0
H4844 H 0.35391 0.716 0.41678 0.0
H4845 H 0.32929 0.693 0.42217 0.0
H4846 H 0.3376 0.65066 0.39651 0.0
H4847 H 0.33807 0.6646 0.40761 0.0
C4848 C 0.11317 0.28874 -0.00396 0.0
C4849 C 0.11849 0.27991 -0.00257 0.0
C4850 C 0.11028 0.29438 0.00434 0.0
C4851 C 0.11728 0.29861 0.03118 0.0
H4852 H 0.09179 0.31484 0.03005 0.0
C4853 C 0.10628 0.32589 0.06284 0.0
C4854 C 0.10451 0.33525 0.0592 0.0
C4855 C 0.10676 0.31811 0.05612 0.0
C4856 C 0.09892 0.31033 0.03048 0.0
H4857 H 0.12465 0.26993 0.00867 0.0
H4858 H 0.11941 0.27972 0.02323 0.0
H4859 H 0.09474 0.30281 0.01689 0.0
H4860 H 0.10141 0.3438 0.04579 0.0
H4861 H 0.1021 0.33022 0.03406 0.0
H4862 H 0.12146 0.30623 0.04477 0.0
C4863 C 0.11766 0.28237 0.01569 0.0
C4864 C 0.10065 0.30347 0.02292 0.0
C4865 C 0.12061 0.27672 0.00735 0.0
C4866 C 0.10286 0.33665 0.04877 0.0
C4867 C 0.10317 0.32888 0.04209 0.0
C4868 C 0.11549 0.30542 0.0388 0.0
C4869 C 0.11254 0.29132 0.01428 0.0
C4870 C 0.11001 0.29771 0.02302 0.0
C4871 C 0.10527 0.31955 0.04567 0.0
C4872 C 0.10643 0.31151 0.03838 0.0
H4873 H 0.11144 0.29144 0.98851 0.0
H4874 H 0.10656 0.3013 0.00292 0.0
H4875 H 0.12463 0.29439 0.03146 0.0
H4876 H 0.10762 0.32463 0.07085 0.0
H4877 H 0.10836 0.31098 0.05907 0.0
C4878 C 0.959 0.88305 0.28097 0.0
C4879 C 0.9606 0.87411 0.27626 0.0
C4880 C 0.95407 0.88361 0.29046 0.0
C4881 C 0.94605 0.86892 0.31281 0.0
H4882 H 0.92535 0.88953 0.31675 0.0
C4883 C 0.9139 0.86926 0.34465 0.0
C4884 C 0.91193 0.87808 0.34954 0.0
C4885 C 0.92084 0.86878 0.33633 0.0
C4886 C 0.93121 0.8838 0.31582 0.0
H4887 H 0.95845 0.85871 0.27788 0.0
H4888 H 0.9496 0.85968 0.29429 0.0
H4889 H 0.93557 0.88871 0.30106 0.0
H4890 H 0.91621 0.89321 0.34982 0.0
H4891 H 0.92818 0.89238 0.33522 0.0
H4892 H 0.94138 0.86389 0.32751 0.0
C4893 C 0.95234 0.86627 0.29078 0.0
C4894 C 0.93709 0.88334 0.30683 0.0
C4895 C 0.95737 0.86572 0.28133 0.0
C4896 C 0.91734 0.88634 0.3461 0.0
C4897 C 0.92422 0.88587 0.33775 0.0
C4898 C 0.94008 0.86935 0.32178 0.0
C4899 C 0.95052 0.87524 0.29542 0.0
C4900 C 0.94457 0.87588 0.30518 0.0
C4901 C 0.92593 0.87712 0.33269 0.0
C4902 C 0.93258 0.87678 0.32336 0.0
H4903 H 0.96149 0.88965 0.2773 0.0
H4904 H 0.95299 0.89062 0.29389 0.0
H4905 H 0.95185 0.86316 0.31187 0.0
H4906 H 0.90978 0.86277 0.34702 0.0
H4907 H 0.92192 0.86195 0.33252 0.0
C4908 C 0.37729 0.71651 0.50599 0.0
C4909 C 0.36691 0.71966 0.50315 0.0
C4910 C 0.3788 0.71113 0.51482 0.0
C4911 C 0.36388 0.69426 0.53061 0.0
H4912 H 0.38884 0.69589 0.54838 0.0
C4913 C 0.3699 0.66721 0.56305 0.0
C4914 C 0.38041 0.6636 0.56443 0.0
C4915 C 0.36806 0.67517 0.55683 0.0
C4916 C 0.38186 0.6953 0.54344 0.0
H4917 H 0.35009 0.72016 0.50773 0.0
H4918 H 0.35275 0.71079 0.52315 0.0
H4919 H 0.38602 0.70815 0.53537 0.0
H4920 H 0.39726 0.66557 0.56051 0.0
H4921 H 0.39405 0.67934 0.54947 0.0
H4922 H 0.35989 0.68127 0.53834 0.0
C4923 C 0.35969 0.71238 0.51846 0.0
C4924 C 0.38024 0.70234 0.53602 0.0
C4925 C 0.35818 0.71779 0.50965 0.0
C4926 C 0.38908 0.66826 0.55966 0.0
C4927 C 0.38723 0.67617 0.55335 0.0
C4928 C 0.36554 0.6872 0.53796 0.0
C4929 C 0.36996 0.70876 0.52099 0.0
C4930 C 0.37128 0.70184 0.52946 0.0
C4931 C 0.37668 0.67965 0.55176 0.0
C4932 C 0.3746 0.68757 0.54441 0.0
H4933 H 0.3842 0.71786 0.50117 0.0
H4934 H 0.38681 0.70841 0.51654 0.0
H4935 H 0.35701 0.69357 0.52555 0.0
H4936 H 0.36309 0.66386 0.56677 0.0
H4937 H 0.35986 0.67777 0.55594 0.0
C4938 C 0.52425 0.12224 0.77919 0.0
C4939 C 0.52852 0.1164 0.77149 0.0
C4940 C 0.52769 0.12113 0.78922 0.0
C4941 C 0.54307 0.10459 0.80635 0.0
H4942 H 0.5476 0.12786 0.82201 0.0
C4943 C 0.57146 0.107 0.84102 0.0
C4944 C 0.56752 0.11172 0.84969 0.0
C4945 C 0.56554 0.10705 0.83199 0.0
C4946 C 0.54625 0.1213 0.81776 0.0
H4947 H 0.53961 0.10472 0.76828 0.0
H4948 H 0.5459 0.103 0.78564 0.0
H4949 H 0.53934 0.12889 0.80526 0.0
H4950 H 0.55408 0.12001 0.85564 0.0
H4951 H 0.54397 0.12038 0.83973 0.0
H4952 H 0.55048 0.0971 0.81874 0.0
C4953 C 0.53968 0.10828 0.78405 0.0
C4954 C 0.54147 0.12187 0.80817 0.0
C4955 C 0.53613 0.1093 0.77406 0.0
C4956 C 0.55748 0.11645 0.84909 0.0
C4957 C 0.55164 0.11662 0.84 0.0
C4958 C 0.54799 0.10405 0.81587 0.0
C4959 C 0.53559 0.11424 0.79176 0.0
C4960 C 0.53993 0.11353 0.80228 0.0
C4961 C 0.55563 0.11193 0.83137 0.0
C4962 C 0.54972 0.11241 0.82162 0.0
H4963 H 0.51831 0.12772 0.77746 0.0
H4964 H 0.5242 0.12572 0.79497 0.0
H4965 H 0.5418 0.098 0.80214 0.0
H4966 H 0.57925 0.10345 0.84109 0.0
H4967 H 0.56887 0.10349 0.82539 0.0
C4968 C 0.1064 0.70617 0.47746 0.0
C4969 C 0.10718 0.70351 0.4877 0.0
C4970 C 0.10149 0.70003 0.47041 0.0
C4971 C 0.08448 0.67792 0.46822 0.0
H4972 H 0.09998 0.67449 0.44301 0.0
C4973 C 0.0831 0.64323 0.4444 0.0
C4974 C 0.08285 0.64406 0.4338 0.0
C4975 C 0.08404 0.65141 0.45049 0.0
C4976 C 0.09544 0.67547 0.44993 0.0
H4977 H 0.10306 0.69247 0.49864 0.0
H4978 H 0.09479 0.68173 0.48639 0.0
H4979 H 0.10531 0.6873 0.45455 0.0
H4980 H 0.08312 0.6541 0.42125 0.0
H4981 H 0.08485 0.66842 0.4319 0.0
H4982 H 0.07496 0.66575 0.46376 0.0
C4983 C 0.09777 0.68861 0.48377 0.0
C4984 C 0.09847 0.68284 0.45655 0.0
C4985 C 0.1026 0.69475 0.49081 0.0
C4986 C 0.08323 0.65326 0.42941 0.0
C4987 C 0.08429 0.66143 0.43549 0.0
C4988 C 0.08152 0.6705 0.46164 0.0
C4989 C 0.0973 0.69109 0.47345 0.0
C4990 C 0.09318 0.68404 0.46588 0.0
C4991 C 0.08487 0.66058 0.44608 0.0
C4992 C 0.08711 0.66909 0.45252 0.0
H4993 H 0.10978 0.7129 0.47484 0.0
H4994 H 0.10112 0.70224 0.46255 0.0
H4995 H 0.08007 0.67875 0.47525 0.0
H4996 H 0.08274 0.63623 0.44799 0.0
H4997 H 0.08456 0.65052 0.45863 0.0
C4998 C 0.53 0.88478 0.7081 0.0
C4999 C 0.52294 0.87782 0.71198 0.0
C5000 C 0.53372 0.88414 0.69815 0.0
C5001 C 0.53714 0.86659 0.67718 0.0
H5002 H 0.54469 0.88963 0.66226 0.0
C5003 C 0.55378 0.86738 0.63577 0.0
C5004 C 0.56368 0.87231 0.63493 0.0
C5005 C 0.54779 0.86782 0.64474 0.0
C5006 C 0.54258 0.88314 0.66635 0.0
H5007 H 0.5139 0.86491 0.70839 0.0
H5008 H 0.52005 0.86398 0.69087 0.0
H5009 H 0.53546 0.89106 0.67847 0.0
H5010 H 0.57519 0.88124 0.64313 0.0
H5011 H 0.56451 0.88231 0.65851 0.0
H5012 H 0.54416 0.85872 0.66485 0.0
C5013 C 0.52299 0.86979 0.69559 0.0
C5014 C 0.53737 0.88395 0.67567 0.0
C5015 C 0.5194 0.87035 0.70561 0.0
C5016 C 0.56748 0.87758 0.64333 0.0
C5017 C 0.5614 0.87816 0.65219 0.0
C5018 C 0.54218 0.86579 0.66775 0.0
C5019 C 0.53033 0.8766 0.69177 0.0
C5020 C 0.53481 0.87569 0.68134 0.0
C5021 C 0.55151 0.87332 0.65296 0.0
C5022 C 0.54516 0.87407 0.66238 0.0
H5023 H 0.53295 0.89058 0.71284 0.0
H5024 H 0.53953 0.88942 0.69559 0.0
H5025 H 0.53544 0.86007 0.68135 0.0
H5026 H 0.55052 0.86335 0.62945 0.0
H5027 H 0.54016 0.86404 0.64518 0.0
C5028 C 0.36539 0.28582 0.97425 0.0
C5029 C 0.3545 0.28314 0.97537 0.0
C5030 C 0.36838 0.2926 0.96696 0.0
C5031 C 0.35878 0.30499 0.94368 0.0
H5032 H 0.37897 0.32481 0.95202 0.0
C5033 C 0.37211 0.33534 0.91654 0.0
C5034 C 0.37221 0.34466 0.92068 0.0
C5035 C 0.37103 0.3273 0.92281 0.0
C5036 C 0.37331 0.31934 0.94958 0.0
H5037 H 0.33826 0.28533 0.96956 0.0
H5038 H 0.34345 0.29722 0.95696 0.0
H5039 H 0.37478 0.31168 0.96356 0.0
H5040 H 0.37169 0.3528 0.93468 0.0
H5041 H 0.36961 0.33882 0.94558 0.0
H5042 H 0.35699 0.31286 0.92985 0.0
C5043 C 0.34971 0.294 0.96161 0.0
C5044 C 0.371 0.31174 0.95615 0.0
C5045 C 0.34672 0.28722 0.96889 0.0
C5046 C 0.3715 0.34573 0.93124 0.0
C5047 C 0.37043 0.3377 0.9375 0.0
C5048 C 0.36109 0.31259 0.93711 0.0
C5049 C 0.36056 0.29686 0.96063 0.0
C5050 C 0.36359 0.30454 0.95334 0.0
C5051 C 0.37007 0.32839 0.93336 0.0
C5052 C 0.36826 0.31993 0.94003 0.0
H5053 H 0.37159 0.28278 0.9791 0.0
H5054 H 0.37682 0.29454 0.96632 0.0
H5055 H 0.35314 0.2995 0.94123 0.0
H5056 H 0.37257 0.33428 0.90842 0.0
H5057 H 0.37089 0.32022 0.91939 0.0
C5058 C 0.9749 0.11117 0.19074 0.0
C5059 C 0.97385 0.12005 0.19574 0.0
C5060 C 0.97116 0.11006 0.1808 0.0
C5061 C 0.96112 0.12344 0.15819 0.0
H5062 H 0.94301 0.10095 0.15451 0.0
C5063 C 0.92701 0.12152 0.12847 0.0
C5064 C 0.92512 0.11275 0.12347 0.0
C5065 C 0.93468 0.12212 0.13623 0.0
C5066 C 0.94819 0.10719 0.15532 0.0
H5067 H 0.96871 0.13488 0.19399 0.0
H5068 H 0.96209 0.13291 0.17677 0.0
H5069 H 0.95385 0.10254 0.16983 0.0
H5070 H 0.93009 0.09782 0.12246 0.0
H5071 H 0.94344 0.09887 0.13609 0.0
H5072 H 0.95514 0.12822 0.1438 0.0
C5073 C 0.96586 0.12681 0.18046 0.0
C5074 C 0.95443 0.10809 0.1641 0.0
C5075 C 0.9696 0.12793 0.19038 0.0
C5076 C 0.93123 0.10464 0.12628 0.0
C5077 C 0.93889 0.10524 0.13407 0.0
C5078 C 0.95486 0.12254 0.14941 0.0
C5079 C 0.9663 0.1178 0.17566 0.0
C5080 C 0.96081 0.11632 0.16574 0.0
C5081 C 0.94063 0.11397 0.13919 0.0
C5082 C 0.94816 0.11449 0.14797 0.0
H5083 H 0.97821 0.10497 0.19463 0.0
H5084 H 0.97179 0.10306 0.17725 0.0
H5085 H 0.96608 0.1298 0.15915 0.0
H5086 H 0.92234 0.12786 0.1266 0.0
H5087 H 0.93569 0.12891 0.14015 0.0
C5088 C 0.02376 0.13449 0.26213 0.0
C5089 C 0.01911 0.12548 0.26006 0.0
C5090 C 0.03217 0.13535 0.26918 0.0
C5091 C 0.05303 0.12133 0.28296 0.0
H5092 H 0.05164 0.14242 0.30214 0.0
C5093 C 0.0791 0.12264 0.31934 0.0
C5094 C 0.08331 0.13159 0.32234 0.0
C5095 C 0.07183 0.122 0.31124 0.0
C5096 C 0.05224 0.13657 0.29676 0.0
H5097 H 0.01977 0.11027 0.26365 0.0
H5098 H 0.03435 0.11177 0.27601 0.0
H5099 H 0.03801 0.14112 0.28886 0.0
H5100 H 0.08344 0.14685 0.31898 0.0
H5101 H 0.07074 0.14574 0.30485 0.0
H5102 H 0.06721 0.11673 0.29094 0.0
C5103 C 0.03159 0.11817 0.2721 0.0
C5104 C 0.04442 0.13582 0.28914 0.0
C5105 C 0.02318 0.11732 0.26506 0.0
C5106 C 0.0802 0.13987 0.31697 0.0
C5107 C 0.07293 0.13923 0.30887 0.0
C5108 C 0.06085 0.12208 0.29059 0.0
C5109 C 0.03611 0.12721 0.27432 0.0
C5110 C 0.04468 0.12817 0.28218 0.0
C5111 C 0.06859 0.1303 0.30595 0.0
C5112 C 0.06051 0.12967 0.29761 0.0
H5113 H 0.02085 0.14092 0.25838 0.0
H5114 H 0.03558 0.14239 0.2706 0.0
H5115 H 0.05355 0.11543 0.27763 0.0
H5116 H 0.08122 0.11614 0.32341 0.0
H5117 H 0.06852 0.11503 0.30929 0.0
C5118 C 0.1001 0.76602 0.52872 0.0
C5119 C 0.10741 0.76509 0.52066 0.0
C5120 C 0.0978 0.77505 0.53281 0.0
C5121 C 0.09748 0.80077 0.52805 0.0
H5122 H 0.10283 0.80318 0.5569 0.0
C5123 C 0.09618 0.83756 0.54869 0.0
C5124 C 0.09246 0.83775 0.55875 0.0
C5125 C 0.09777 0.82881 0.54366 0.0
C5126 C 0.10109 0.80264 0.54888 0.0
H5127 H 0.11768 0.77292 0.51025 0.0
H5128 H 0.11342 0.78879 0.51728 0.0
H5129 H 0.10545 0.78774 0.54862 0.0
H5130 H 0.08751 0.82875 0.57136 0.0
H5131 H 0.08959 0.81368 0.56245 0.0
H5132 H 0.09279 0.81558 0.52831 0.0
C5133 C 0.10958 0.78249 0.52047 0.0
C5134 C 0.10266 0.79378 0.54414 0.0
C5135 C 0.11203 0.77342 0.51648 0.0
C5136 C 0.0902 0.82896 0.56357 0.0
C5137 C 0.09161 0.82025 0.5585 0.0
C5138 C 0.09571 0.80962 0.53283 0.0
C5139 C 0.10263 0.78334 0.5288 0.0
C5140 C 0.10087 0.79277 0.5337 0.0
C5141 C 0.09555 0.82003 0.54852 0.0
C5142 C 0.09747 0.81067 0.54332 0.0
H5143 H 0.09642 0.75974 0.53212 0.0
H5144 H 0.09236 0.77555 0.5392 0.0
H5145 H 0.09601 0.80014 0.51998 0.0
H5146 H 0.09787 0.84416 0.54466 0.0
H5147 H 0.10092 0.82896 0.53602 0.0
C5148 C 0.49218 0.87989 0.77611 0.0
C5149 C 0.49037 0.87558 0.76663 0.0
C5150 C 0.48358 0.88355 0.78172 0.0
C5151 C 0.45419 0.88105 0.78497 0.0
H5152 H 0.45839 0.90298 0.80273 0.0
C5153 C 0.422 0.89314 0.8141 0.0
C5154 C 0.42619 0.89362 0.82399 0.0
C5155 C 0.42899 0.89261 0.8058 0.0
C5156 C 0.45708 0.89688 0.79777 0.0
H5157 H 0.47812 0.87197 0.75546 0.0
H5158 H 0.46306 0.87852 0.76525 0.0
H5159 H 0.47217 0.89898 0.79024 0.0
H5160 H 0.44083 0.8944 0.833 0.0
H5161 H 0.45302 0.89365 0.81852 0.0
H5162 H 0.43916 0.87889 0.79266 0.0
C5163 C 0.47114 0.87892 0.76839 0.0
C5164 C 0.46499 0.89455 0.79065 0.0
C5165 C 0.47977 0.87521 0.76277 0.0
C5166 C 0.43743 0.89401 0.82543 0.0
C5167 C 0.44438 0.89364 0.81715 0.0
C5168 C 0.44623 0.88344 0.79203 0.0
C5169 C 0.47294 0.88307 0.77798 0.0
C5170 C 0.46381 0.88641 0.78439 0.0
C5171 C 0.44025 0.89273 0.80727 0.0
C5172 C 0.44777 0.8912 0.79871 0.0
H5173 H 0.50023 0.88028 0.77933 0.0
H5174 H 0.48528 0.88651 0.78915 0.0
H5175 H 0.45305 0.87469 0.78035 0.0
H5176 H 0.41336 0.89278 0.81283 0.0
H5177 H 0.42561 0.89194 0.79825 0.0
C5178 C 0.35108 0.22366 0.03964 0.0
C5179 C 0.34605 0.22472 0.03014 0.0
C5180 C 0.35196 0.21463 0.04415 0.0
C5181 C 0.33962 0.19061 0.04449 0.0
H5182 H 0.36539 0.18433 0.05994 0.0
C5183 C 0.34607 0.15451 0.06638 0.0
C5184 C 0.3504 0.15552 0.07619 0.0
C5185 C 0.34543 0.16245 0.05987 0.0
C5186 C 0.35812 0.186 0.05569 0.0
H5187 H 0.33813 0.21708 0.01786 0.0
H5188 H 0.33975 0.20121 0.02577 0.0
H5189 H 0.36493 0.19896 0.04984 0.0
H5190 H 0.35683 0.16577 0.08705 0.0
H5191 H 0.35582 0.1795 0.07571 0.0
H5192 H 0.33282 0.17762 0.05048 0.0
C5193 C 0.34292 0.20742 0.02973 0.0
C5194 C 0.35785 0.19438 0.0499 0.0
C5195 C 0.34206 0.2165 0.02518 0.0
C5196 C 0.35373 0.16468 0.07945 0.0
C5197 C 0.35314 0.17256 0.07296 0.0
C5198 C 0.33991 0.18217 0.05027 0.0
C5199 C 0.34785 0.20641 0.03929 0.0
C5200 C 0.34851 0.19692 0.04443 0.0
C5201 C 0.34915 0.17151 0.06305 0.0
C5202 C 0.34908 0.17991 0.05612 0.0
H5203 H 0.35422 0.22983 0.04369 0.0
H5204 H 0.35564 0.21415 0.05159 0.0
H5205 H 0.33227 0.19239 0.04042 0.0
H5206 H 0.34348 0.14754 0.06362 0.0
H5207 H 0.34232 0.16144 0.05226 0.0
C5208 C 0.01546 0.86813 0.22425 0.0
C5209 C 0.00726 0.87475 0.22663 0.0
C5210 C 0.0244 0.87098 0.21855 0.0
C5211 C 0.03148 0.889 0.19942 0.0
H5212 H 0.06005 0.87775 0.20188 0.0
C5213 C 0.06392 0.89581 0.16919 0.0
C5214 C 0.06898 0.88742 0.1656 0.0
C5215 C 0.05795 0.89562 0.17816 0.0
C5216 C 0.05211 0.88095 0.2011 0.0
H5217 H 0.00241 0.88971 0.22551 0.0
H5218 H 0.01808 0.8947 0.21571 0.0
H5219 H 0.04669 0.87497 0.21514 0.0
H5220 H 0.07236 0.87246 0.16895 0.0
H5221 H 0.06183 0.87208 0.18448 0.0
H5222 H 0.03673 0.89472 0.18525 0.0
C5223 C 0.01748 0.88726 0.21805 0.0
C5224 C 0.04446 0.87936 0.20869 0.0
C5225 C 0.00852 0.8844 0.22371 0.0
C5226 C 0.06842 0.879 0.17145 0.0
C5227 C 0.06249 0.87881 0.18042 0.0
C5228 C 0.03912 0.8906 0.19185 0.0
C5229 C 0.02536 0.88052 0.21514 0.0
C5230 C 0.03397 0.88319 0.20782 0.0
C5231 C 0.05696 0.88705 0.18375 0.0
C5232 C 0.04944 0.88642 0.19248 0.0
H5233 H 0.01475 0.86064 0.22639 0.0
H5234 H 0.03026 0.86558 0.21638 0.0
H5235 H 0.02344 0.89194 0.19841 0.0
H5236 H 0.06418 0.9024 0.16483 0.0
H5237 H 0.05389 0.90211 0.1806 0.0
C5238 C 0.35063 0.77743 0.45199 0.0
C5239 C 0.36034 0.77232 0.45337 0.0
C5240 C 0.35072 0.78674 0.44799 0.0
C5241 C 0.36842 0.80769 0.44341 0.0
H5242 H 0.3481 0.81342 0.42181 0.0
C5243 C 0.3742 0.83934 0.41584 0.0
C5244 C 0.36504 0.84419 0.41212 0.0
C5245 C 0.3731 0.83127 0.42203 0.0
C5246 C 0.3537 0.81202 0.42796 0.0
H5247 H 0.37777 0.77306 0.45183 0.0
H5248 H 0.37792 0.78928 0.44483 0.0
H5249 H 0.34715 0.798 0.43049 0.0
H5250 H 0.34751 0.84454 0.4123 0.0
H5251 H 0.34559 0.83057 0.42332 0.0
H5252 H 0.37506 0.82168 0.44081 0.0
C5253 C 0.37024 0.78612 0.44691 0.0
C5254 C 0.35317 0.80316 0.43292 0.0
C5255 C 0.37015 0.77679 0.45086 0.0
C5256 C 0.35474 0.841 0.41507 0.0
C5257 C 0.35364 0.83292 0.42129 0.0
C5258 C 0.36893 0.81657 0.43848 0.0
C5259 C 0.36052 0.79116 0.44534 0.0
C5260 C 0.36062 0.80084 0.4406 0.0
C5261 C 0.3628 0.82786 0.42471 0.0
C5262 C 0.36168 0.81879 0.43058 0.0
H5263 H 0.34293 0.7742 0.45388 0.0
H5264 H 0.34311 0.79048 0.44697 0.0
H5265 H 0.37417 0.80617 0.44941 0.0
H5266 H 0.38226 0.8417 0.41384 0.0
H5267 H 0.38034 0.82751 0.42444 0.0
C5268 C 0.49866 0.10965 0.70052 0.0
C5269 C 0.4948 0.11495 0.70883 0.0
C5270 C 0.49153 0.10622 0.69314 0.0
C5271 C 0.46316 0.10079 0.68717 0.0
H5272 H 0.47096 0.10887 0.66007 0.0
C5273 C 0.43269 0.10109 0.65386 0.0
C5274 C 0.4366 0.09969 0.644 0.0
C5275 C 0.43984 0.10149 0.66208 0.0
C5276 C 0.46873 0.10634 0.66752 0.0
H5277 H 0.48036 0.12025 0.71626 0.0
H5278 H 0.46788 0.11416 0.70335 0.0
H5279 H 0.4833 0.11186 0.67405 0.0
H5280 H 0.45088 0.09705 0.635 0.0
H5281 H 0.46335 0.09735 0.64935 0.0
H5282 H 0.4486 0.0952 0.68064 0.0
C5283 C 0.47644 0.11272 0.70256 0.0
C5284 C 0.4758 0.10811 0.67555 0.0
C5285 C 0.48359 0.11624 0.70992 0.0
C5286 C 0.4477 0.09826 0.64254 0.0
C5287 C 0.45483 0.0985 0.65076 0.0
C5288 C 0.45612 0.09889 0.67909 0.0
C5289 C 0.48039 0.10792 0.69397 0.0
C5290 C 0.47306 0.10543 0.68547 0.0
C5291 C 0.45104 0.10037 0.66061 0.0
C5292 C 0.45877 0.10174 0.66917 0.0
H5293 H 0.50724 0.10847 0.69948 0.0
H5294 H 0.49477 0.10244 0.68665 0.0
H5295 H 0.46089 0.0986 0.69475 0.0
H5296 H 0.42415 0.10229 0.65516 0.0
H5297 H 0.43661 0.10308 0.6695 0.0
C5298 C 0.10831 0.21734 0.96663 0.0
C5299 C 0.11765 0.223 0.96767 0.0
C5300 C 0.10908 0.20767 0.96386 0.0
C5301 C 0.1284 0.18724 0.96125 0.0
H5302 H 0.10764 0.17848 0.94121 0.0
C5303 C 0.13438 0.15349 0.93606 0.0
C5304 C 0.12521 0.14796 0.93368 0.0
C5305 C 0.1334 0.16197 0.94169 0.0
C5306 C 0.1134 0.18075 0.94693 0.0
H5307 H 0.13516 0.22287 0.96689 0.0
H5308 H 0.1365 0.20606 0.96184 0.0
H5309 H 0.106 0.19457 0.94823 0.0
H5310 H 0.10793 0.14663 0.93598 0.0
H5311 H 0.1062 0.16142 0.94578 0.0
H5312 H 0.13597 0.17344 0.95967 0.0
C5313 C 0.12858 0.20903 0.96333 0.0
C5314 C 0.11246 0.18999 0.95097 0.0
C5315 C 0.1278 0.2187 0.96617 0.0
C5316 C 0.11512 0.15084 0.93751 0.0
C5317 C 0.11413 0.1593 0.94312 0.0
C5318 C 0.12938 0.178 0.95716 0.0
C5319 C 0.11921 0.20343 0.96199 0.0
C5320 C 0.11997 0.19339 0.95814 0.0
C5321 C 0.12321 0.1651 0.94506 0.0
C5322 C 0.12192 0.17467 0.94991 0.0
H5323 H 0.10036 0.22041 0.96782 0.0
H5324 H 0.10172 0.20352 0.96309 0.0
H5325 H 0.13425 0.18958 0.96686 0.0
H5326 H 0.14226 0.15153 0.93314 0.0
H5327 H 0.14053 0.16631 0.94299 0.0
C5328 C 0.2582 0.01747 0.10697 0.0
C5329 C 0.25554 0.01389 0.1166 0.0
C5330 C 0.26365 0.02623 0.10599 0.0
C5331 C 0.28171 0.04231 0.12027 0.0
H5332 H 0.27496 0.06068 0.09907 0.0
C5333 C 0.30367 0.07862 0.11795 0.0
C5334 C 0.30701 0.08167 0.10831 0.0
C5335 C 0.29656 0.0709 0.11899 0.0
C5336 C 0.277 0.05558 0.10498 0.0
H5337 H 0.25622 0.01683 0.13273 0.0
H5338 H 0.26566 0.03212 0.13101 0.0
H5339 H 0.264 0.04617 0.10083 0.0
H5340 H 0.30533 0.07912 0.09218 0.0
H5341 H 0.29298 0.06554 0.09398 0.0
H5342 H 0.29479 0.05158 0.12433 0.0
C5343 C 0.26366 0.0281 0.12423 0.0
C5344 C 0.27072 0.04728 0.10599 0.0
C5345 C 0.2582 0.01936 0.12521 0.0
C5346 C 0.30283 0.07699 0.0997 0.0
C5347 C 0.29574 0.06922 0.10074 0.0
C5348 C 0.288 0.05058 0.11924 0.0
C5349 C 0.26657 0.03158 0.11462 0.0
C5350 C 0.27302 0.04054 0.11364 0.0
C5351 C 0.29265 0.06599 0.11041 0.0
C5352 C 0.28574 0.05732 0.11158 0.0
H5353 H 0.25627 0.01343 0.10019 0.0
H5354 H 0.26586 0.02867 0.09849 0.0
H5355 H 0.28382 0.03718 0.12612 0.0
H5356 H 0.30661 0.0822 0.12471 0.0
H5357 H 0.29417 0.06874 0.12653 0.0
C5358 C 0.77299 0.48016 0.86883 0.0
C5359 C 0.76974 0.48569 0.87719 0.0
C5360 C 0.77959 0.4721 0.87016 0.0
C5361 C 0.78905 0.45448 0.88919 0.0
H5362 H 0.813 0.45127 0.87063 0.0
C5363 C 0.82325 0.4266 0.89564 0.0
C5364 C 0.82718 0.42175 0.88707 0.0
C5365 C 0.8159 0.4342 0.89459 0.0
C5366 C 0.80627 0.45198 0.87581 0.0
H5367 H 0.77068 0.48697 0.89355 0.0
H5368 H 0.78224 0.4729 0.89587 0.0
H5369 H 0.80069 0.46478 0.86849 0.0
H5370 H 0.82617 0.42082 0.87069 0.0
H5371 H 0.81334 0.43399 0.86885 0.0
H5372 H 0.79466 0.44166 0.89651 0.0
C5373 C 0.77962 0.47477 0.88829 0.0
C5374 C 0.79922 0.45973 0.87458 0.0
C5375 C 0.77304 0.48286 0.88695 0.0
C5376 C 0.82345 0.42454 0.87744 0.0
C5377 C 0.8161 0.43209 0.87638 0.0
C5378 C 0.79611 0.4467 0.89041 0.0
C5379 C 0.78307 0.46936 0.8799 0.0
C5380 C 0.79051 0.46106 0.88124 0.0
C5381 C 0.81231 0.43708 0.88493 0.0
C5382 C 0.80479 0.44535 0.88372 0.0
H5383 H 0.77056 0.48212 0.86121 0.0
H5384 H 0.78197 0.46799 0.86356 0.0
H5385 H 0.78234 0.45525 0.89438 0.0
H5386 H 0.82605 0.42469 0.90316 0.0
H5387 H 0.81324 0.43795 0.90132 0.0
C5388 C 0.77947 0.54008 0.11264 0.0
C5389 C 0.77361 0.53758 0.1039 0.0
C5390 C 0.79007 0.54339 0.11191 0.0
C5391 C 0.8097 0.55413 0.09429 0.0
H5392 H 0.83046 0.54525 0.1143 0.0
C5393 C 0.85481 0.56528 0.09352 0.0
C5394 C 0.85898 0.56846 0.10287 0.0
C5395 C 0.84478 0.56065 0.09303 0.0
C5396 C 0.82475 0.54782 0.10868 0.0
H5397 H 0.77423 0.53675 0.0875 0.0
H5398 H 0.79283 0.54249 0.08623 0.0
H5399 H 0.81205 0.53906 0.11456 0.0
H5400 H 0.85582 0.56925 0.11902 0.0
H5401 H 0.83852 0.56107 0.11817 0.0
H5402 H 0.82243 0.56297 0.08849 0.0
C5403 C 0.78917 0.54195 0.09365 0.0
C5404 C 0.81419 0.5443 0.10884 0.0
C5405 C 0.77852 0.53864 0.09438 0.0
C5406 C 0.853 0.56671 0.11172 0.0
C5407 C 0.84304 0.56204 0.11123 0.0
C5408 C 0.82029 0.55764 0.09411 0.0
C5409 C 0.7951 0.54426 0.10243 0.0
C5410 C 0.80649 0.54755 0.10177 0.0
C5411 C 0.83877 0.55905 0.10188 0.0
C5412 C 0.82786 0.55465 0.10142 0.0
H5413 H 0.7759 0.53941 0.12009 0.0
H5414 H 0.79434 0.54531 0.11881 0.0
H5415 H 0.80394 0.55683 0.08878 0.0
H5416 H 0.85926 0.5664 0.08658 0.0
H5417 H 0.84173 0.55832 0.08573 0.0
C5418 C 0.72189 0.51182 0.39786 0.0
C5419 C 0.7268 0.50876 0.38882 0.0
C5420 C 0.71681 0.52079 0.3984 0.0
C5421 C 0.70291 0.53769 0.38174 0.0
H5422 H 0.70241 0.55424 0.40539 0.0
C5423 C 0.67604 0.5712 0.38235 0.0
C5424 C 0.6701 0.5728 0.39123 0.0
C5425 C 0.68456 0.56463 0.38227 0.0
C5426 C 0.70241 0.54966 0.39875 0.0
H5427 H 0.73085 0.513 0.37348 0.0
H5428 H 0.72202 0.52865 0.37445 0.0
H5429 H 0.71474 0.54049 0.40491 0.0
H5430 H 0.66864 0.5691 0.40709 0.0
H5431 H 0.68338 0.55739 0.40693 0.0
H5432 H 0.69036 0.54653 0.37569 0.0
C5433 C 0.72196 0.52405 0.38106 0.0
C5434 C 0.7095 0.54181 0.39847 0.0
C5435 C 0.72706 0.51509 0.38053 0.0
C5436 C 0.67313 0.56801 0.40015 0.0
C5437 C 0.6816 0.56133 0.40005 0.0
C5438 C 0.6958 0.54547 0.38204 0.0
C5439 C 0.71652 0.52688 0.38991 0.0
C5440 C 0.70975 0.5357 0.38999 0.0
C5441 C 0.68726 0.55941 0.39104 0.0
C5442 C 0.69539 0.55152 0.39058 0.0
H5443 H 0.72158 0.50714 0.4044 0.0
H5444 H 0.71264 0.52273 0.40531 0.0
H5445 H 0.70273 0.53301 0.37518 0.0
H5446 H 0.67397 0.57494 0.3754 0.0
H5447 H 0.68891 0.56351 0.37526 0.0
C5448 C 0.20235 0.97445 0.10105 0.0
C5449 C 0.20982 0.96918 0.09528 0.0
C5450 C 0.19156 0.97149 0.10167 0.0
C5451 C 0.17139 0.95483 0.08998 0.0
H5452 H 0.15918 0.95435 0.11699 0.0
C5453 C 0.13926 0.92766 0.10241 0.0
C5454 C 0.13064 0.9308 0.10851 0.0
C5455 C 0.14768 0.93387 0.09992 0.0
C5456 C 0.16239 0.95458 0.10937 0.0
H5457 H 0.21173 0.95689 0.08531 0.0
H5458 H 0.19309 0.95164 0.08654 0.0
H5459 H 0.17624 0.96265 0.11407 0.0
H5460 H 0.1241 0.9431 0.11657 0.0
H5461 H 0.13906 0.95388 0.11244 0.0
H5462 H 0.15778 0.94634 0.08542 0.0
C5463 C 0.19545 0.95815 0.09048 0.0
C5464 C 0.17216 0.95936 0.10768 0.0
C5465 C 0.20619 0.96112 0.08983 0.0
C5466 C 0.13066 0.94038 0.11198 0.0
C5467 C 0.13919 0.94657 0.10958 0.0
C5468 C 0.16169 0.94999 0.09169 0.0
C5469 C 0.18803 0.96318 0.09654 0.0
C5470 C 0.17693 0.95933 0.09802 0.0
C5471 C 0.1478 0.94336 0.10355 0.0
C5472 C 0.15723 0.94961 0.10145 0.0
H5473 H 0.20488 0.98073 0.1053 0.0
H5474 H 0.18603 0.97561 0.1063 0.0
H5475 H 0.1747 0.95485 0.0824 0.0
H5476 H 0.13971 0.92029 0.09979 0.0
H5477 H 0.15431 0.93114 0.09541 0.0
C5478 C 0.18494 0.96448 0.60644 0.0
C5479 C 0.18981 0.96886 0.59803 0.0
C5480 C 0.17615 0.95831 0.60515 0.0
C5481 C 0.16238 0.94277 0.58671 0.0
H5482 H 0.13796 0.94588 0.60474 0.0
C5483 C 0.12299 0.92047 0.58256 0.0
C5484 C 0.11837 0.91716 0.59163 0.0
C5485 C 0.13152 0.92707 0.58279 0.0
C5486 C 0.14475 0.94485 0.59971 0.0
H5487 H 0.18941 0.97007 0.58165 0.0
H5488 H 0.17405 0.95921 0.5794 0.0
H5489 H 0.15337 0.95667 0.60623 0.0
H5490 H 0.11928 0.91794 0.60802 0.0
H5491 H 0.13413 0.92935 0.60843 0.0
H5492 H 0.15383 0.93083 0.58031 0.0
C5493 C 0.17707 0.96056 0.58698 0.0
C5494 C 0.15357 0.95104 0.60056 0.0
C5495 C 0.18582 0.9668 0.58828 0.0
C5496 C 0.1225 0.92052 0.6009 0.0
C5497 C 0.13102 0.92707 0.60113 0.0
C5498 C 0.15356 0.93653 0.58589 0.0
C5499 C 0.17207 0.95634 0.59542 0.0
C5500 C 0.16254 0.95 0.59415 0.0
C5501 C 0.13561 0.93046 0.59209 0.0
C5502 C 0.1447 0.93743 0.59247 0.0
H5503 H 0.18782 0.9659 0.61405 0.0
H5504 H 0.17255 0.95505 0.61178 0.0
H5505 H 0.16922 0.94177 0.58171 0.0
H5506 H 0.11992 0.91804 0.5753 0.0
H5507 H 0.13481 0.92962 0.5757 0.0
C5508 C 0.78079 0.46649 0.38046 0.0
C5509 C 0.77683 0.46811 0.39027 0.0
C5510 C 0.7911 0.4626 0.37902 0.0
C5511 C 0.81161 0.44806 0.39247 0.0
H5512 H 0.82982 0.45506 0.36979 0.0
C5513 C 0.85356 0.43118 0.3873 0.0
C5514 C 0.85577 0.42754 0.37759 0.0
C5515 C 0.84477 0.4373 0.38888 0.0
C5516 C 0.82479 0.45301 0.37613 0.0
H5517 H 0.78075 0.46731 0.40628 0.0
H5518 H 0.7988 0.46074 0.40378 0.0
H5519 H 0.81288 0.46369 0.37262 0.0
H5520 H 0.85072 0.42781 0.36184 0.0
H5521 H 0.8354 0.43856 0.36459 0.0
H5522 H 0.82345 0.43735 0.39596 0.0
C5523 C 0.79386 0.46224 0.39718 0.0
C5524 C 0.81508 0.45794 0.37775 0.0
C5525 C 0.78353 0.46607 0.39862 0.0
C5526 C 0.8493 0.43055 0.3694 0.0
C5527 C 0.84051 0.4367 0.37098 0.0
C5528 C 0.82132 0.44318 0.39089 0.0
C5529 C 0.79771 0.4603 0.38737 0.0
C5530 C 0.80832 0.45547 0.38589 0.0
C5531 C 0.83801 0.43995 0.38078 0.0
C5532 C 0.82799 0.44555 0.38267 0.0
H5533 H 0.77582 0.46797 0.37387 0.0
H5534 H 0.79374 0.4611 0.37137 0.0
H5535 H 0.80652 0.44581 0.39869 0.0
H5536 H 0.85852 0.42915 0.39374 0.0
H5537 H 0.84317 0.43983 0.39649 0.0
C5538 C 0.71437 0.53306 0.86831 0.0
C5539 C 0.71788 0.52951 0.87773 0.0
C5540 C 0.70447 0.53783 0.86743 0.0
C5541 C 0.68616 0.55231 0.88286 0.0
H5542 H 0.668 0.55161 0.85886 0.0
C5543 C 0.65779 0.58341 0.87228 0.0
C5544 C 0.64745 0.58122 0.86849 0.0
C5545 C 0.66543 0.57616 0.87379 0.0
C5546 C 0.67291 0.55181 0.86566 0.0
H5547 H 0.71343 0.52765 0.89349 0.0
H5548 H 0.6961 0.53593 0.89193 0.0
H5549 H 0.68259 0.5399 0.86082 0.0
H5550 H 0.63703 0.56965 0.86337 0.0
H5551 H 0.65046 0.55697 0.86593 0.0
H5552 H 0.67657 0.56427 0.88767 0.0
C5553 C 0.7011 0.53515 0.88526 0.0
C5554 C 0.68132 0.54516 0.86675 0.0
C5555 C 0.711 0.53035 0.88614 0.0
C5556 C 0.64496 0.5716 0.86618 0.0
C5557 C 0.65264 0.56433 0.86767 0.0
C5558 C 0.67778 0.55897 0.88177 0.0
C5559 C 0.69786 0.53916 0.87595 0.0
C5560 C 0.68815 0.54544 0.87528 0.0
C5561 C 0.66295 0.56654 0.87153 0.0
C5562 C 0.6712 0.55891 0.87307 0.0
H5563 H 0.71945 0.5325 0.86167 0.0
H5564 H 0.70227 0.54089 0.86017 0.0
H5565 H 0.69133 0.5528 0.88948 0.0
H5566 H 0.66006 0.59077 0.87394 0.0
H5567 H 0.67338 0.57813 0.87658 0.0
C5568 C 0.88162 0.72409 0.95485 0.0
C5569 C 0.878 0.71944 0.96366 0.0
C5570 C 0.87713 0.72181 0.9454 0.0
C5571 C 0.85451 0.70818 0.93305 0.0
H5572 H 0.87559 0.70403 0.91182 0.0
C5573 C 0.85056 0.67945 0.90209 0.0
C5574 C 0.85338 0.68179 0.89207 0.0
C5575 C 0.85198 0.68609 0.90991 0.0
C5576 C 0.86957 0.70532 0.9176 0.0
H5577 H 0.86648 0.7091 0.96951 0.0
H5578 H 0.85892 0.70494 0.95315 0.0
H5579 H 0.881 0.7122 0.92735 0.0
H5580 H 0.85951 0.69322 0.88245 0.0
H5581 H 0.86243 0.70464 0.89627 0.0
H5582 H 0.84329 0.70068 0.92348 0.0
C5583 C 0.86506 0.71049 0.95346 0.0
C5584 C 0.87264 0.71004 0.92651 0.0
C5585 C 0.86947 0.71282 0.96289 0.0
C5586 C 0.85744 0.69106 0.89008 0.0
C5587 C 0.85904 0.69765 0.89796 0.0
C5588 C 0.85148 0.70335 0.9242 0.0
C5589 C 0.86898 0.71479 0.94456 0.0
C5590 C 0.86524 0.71127 0.93448 0.0
C5591 C 0.85641 0.69517 0.90796 0.0
C5592 C 0.85906 0.70165 0.91652 0.0
H5593 H 0.88812 0.72928 0.95521 0.0
H5594 H 0.88022 0.72539 0.93873 0.0
H5595 H 0.84851 0.7092 0.93891 0.0
H5596 H 0.84765 0.67235 0.90402 0.0
H5597 H 0.85006 0.68393 0.91759 0.0
C5598 C 0.02531 0.11827 0.73198 0.0
C5599 C 0.02228 0.12688 0.73678 0.0
C5600 C 0.03304 0.1183 0.72429 0.0
C5601 C 0.04708 0.13417 0.70601 0.0
H5602 H 0.06878 0.11403 0.70646 0.0
C5603 C 0.0855 0.13533 0.68113 0.0
C5604 C 0.08876 0.12666 0.67658 0.0
C5605 C 0.0772 0.13543 0.6883 0.0
C5606 C 0.06271 0.11964 0.70615 0.0
H5607 H 0.02485 0.14231 0.73711 0.0
H5608 H 0.0384 0.14235 0.72376 0.0
H5609 H 0.05448 0.11404 0.71908 0.0
H5610 H 0.08565 0.11133 0.67583 0.0
H5611 H 0.07123 0.11149 0.68833 0.0
H5612 H 0.0554 0.13979 0.69311 0.0
C5613 C 0.03472 0.13558 0.72586 0.0
C5614 C 0.0545 0.11965 0.71338 0.0
C5615 C 0.02698 0.13555 0.73355 0.0
C5616 C 0.08349 0.11811 0.67933 0.0
C5617 C 0.07521 0.1182 0.68649 0.0
C5618 C 0.05532 0.13417 0.69878 0.0
C5619 C 0.03794 0.12694 0.72122 0.0
C5620 C 0.04657 0.1269 0.7134 0.0
C5621 C 0.07197 0.12685 0.69107 0.0
C5622 C 0.06322 0.1269 0.69876 0.0
H5623 H 0.02182 0.11147 0.73426 0.0
H5624 H 0.0352 0.11154 0.72075 0.0
H5625 H 0.04103 0.1398 0.70574 0.0
H5626 H 0.08948 0.14204 0.67928 0.0
H5627 H 0.075 0.1422 0.69179 0.0
C5628 C 0.60258 0.27341 0.46071 0.0
C5629 C 0.59274 0.27461 0.46585 0.0
C5630 C 0.60405 0.2774 0.4511 0.0
C5631 C 0.58989 0.28907 0.4294 0.0
H5632 H 0.61643 0.30376 0.42744 0.0
C5633 C 0.60032 0.31299 0.39469 0.0
C5634 C 0.60431 0.32219 0.39707 0.0
C5635 C 0.59922 0.306 0.40224 0.0
C5636 C 0.60899 0.29968 0.42786 0.0
H5637 H 0.57648 0.28036 0.46462 0.0
H5638 H 0.57908 0.28741 0.44794 0.0
H5639 H 0.61366 0.29317 0.44186 0.0
H5640 H 0.61003 0.3313 0.40931 0.0
H5641 H 0.60823 0.31913 0.4224 0.0
H5642 H 0.58506 0.29594 0.41558 0.0
C5643 C 0.58565 0.28334 0.45129 0.0
C5644 C 0.60745 0.29351 0.43606 0.0
C5645 C 0.58418 0.27934 0.4609 0.0
C5646 C 0.60716 0.32423 0.40716 0.0
C5647 C 0.60612 0.31725 0.41467 0.0
C5648 C 0.59145 0.29523 0.42116 0.0
C5649 C 0.59571 0.28268 0.44642 0.0
C5650 C 0.5978 0.28827 0.43704 0.0
C5651 C 0.60215 0.30806 0.41231 0.0
C5652 C 0.60092 0.30077 0.42044 0.0
H5653 H 0.60931 0.26972 0.46427 0.0
H5654 H 0.61183 0.27662 0.44747 0.0
H5655 H 0.58241 0.28506 0.42989 0.0
H5656 H 0.59816 0.31114 0.38697 0.0
H5657 H 0.59621 0.29895 0.40019 0.0
C5658 C 0.46385 0.84673 0.22116 0.0
C5659 C 0.46867 0.85542 0.22418 0.0
C5660 C 0.45717 0.84637 0.21261 0.0
C5661 C 0.44988 0.85955 0.18917 0.0
H5662 H 0.42304 0.84534 0.1914 0.0
C5663 C 0.41484 0.86349 0.16035 0.0
C5664 C 0.40908 0.85516 0.15766 0.0
C5665 C 0.42264 0.86322 0.16804 0.0
C5666 C 0.43056 0.84923 0.19059 0.0
H5667 H 0.47043 0.87053 0.22045 0.0
H5668 H 0.4587 0.86992 0.20558 0.0
H5669 H 0.43576 0.84537 0.20551 0.0
H5670 H 0.40704 0.83998 0.16093 0.0
H5671 H 0.42078 0.83947 0.1742 0.0
H5672 H 0.4446 0.86348 0.17426 0.0
C5673 C 0.46017 0.86335 0.20976 0.0
C5674 C 0.43787 0.84925 0.19869 0.0
C5675 C 0.46685 0.86371 0.21832 0.0
C5676 C 0.4114 0.84651 0.16274 0.0
C5677 C 0.41919 0.84624 0.17043 0.0
C5678 C 0.44257 0.85953 0.18106 0.0
C5679 C 0.45516 0.8547 0.20687 0.0
C5680 C 0.44759 0.85444 0.19809 0.0
C5681 C 0.42484 0.85461 0.17323 0.0
C5682 C 0.4328 0.85441 0.1817 0.0
H5683 H 0.46512 0.8402 0.22548 0.0
H5684 H 0.45356 0.83956 0.2105 0.0
H5685 H 0.45736 0.86351 0.18841 0.0
H5686 H 0.41333 0.87024 0.15651 0.0
H5687 H 0.42677 0.86981 0.17006 0.0
C5688 C 0.89041 0.30116 0.51257 0.0
C5689 C 0.88892 0.3051 0.50286 0.0
C5690 C 0.8893 0.30689 0.5212 0.0
C5691 C 0.87657 0.3294 0.52992 0.0
H5692 H 0.89514 0.32583 0.55336 0.0
C5693 C 0.87486 0.35429 0.56492 0.0
C5694 C 0.87526 0.34984 0.57447 0.0
C5695 C 0.87682 0.34901 0.55611 0.0
C5696 C 0.88983 0.32685 0.5469 0.0
H5697 H 0.88541 0.31822 0.49459 0.0
H5698 H 0.88365 0.32825 0.50966 0.0
H5699 H 0.89837 0.31646 0.53804 0.0
H5700 H 0.8779 0.33629 0.58223 0.0
H5701 H 0.88139 0.32708 0.56685 0.0
H5702 H 0.86804 0.3398 0.5388 0.0
C5703 C 0.88548 0.32069 0.51061 0.0
C5704 C 0.89168 0.32148 0.53812 0.0
C5705 C 0.88655 0.31495 0.50196 0.0
C5706 C 0.87768 0.33997 0.57501 0.0
C5707 C 0.87968 0.33469 0.5662 0.0
C5708 C 0.87475 0.33479 0.53869 0.0
C5709 C 0.88672 0.3167 0.52033 0.0
C5710 C 0.88503 0.32266 0.52954 0.0
C5711 C 0.87926 0.33915 0.55665 0.0
C5712 C 0.88132 0.33354 0.54729 0.0
H5713 H 0.89221 0.29359 0.51353 0.0
H5714 H 0.89019 0.30355 0.52857 0.0
H5715 H 0.87118 0.33037 0.52352 0.0
H5716 H 0.87321 0.36192 0.56424 0.0
H5717 H 0.87658 0.35268 0.54888 0.0
C5718 C 0.47769 0.12507 0.26493 0.0
C5719 C 0.47964 0.1323 0.25774 0.0
C5720 C 0.47383 0.12742 0.27456 0.0
C5721 C 0.45748 0.14596 0.28668 0.0
H5722 H 0.46458 0.13219 0.31136 0.0
C5723 C 0.4336 0.15252 0.32332 0.0
C5724 C 0.43042 0.14421 0.32859 0.0
C5725 C 0.4414 0.15199 0.31571 0.0
C5726 C 0.46248 0.13607 0.30452 0.0
H5727 H 0.47976 0.14773 0.25524 0.0
H5728 H 0.47305 0.15182 0.27205 0.0
H5729 H 0.47539 0.12959 0.29614 0.0
H5730 H 0.4334 0.12892 0.33034 0.0
H5731 H 0.44672 0.12795 0.31688 0.0
H5732 H 0.44434 0.15216 0.29485 0.0
C5733 C 0.47436 0.14432 0.27019 0.0
C5734 C 0.46869 0.1346 0.29582 0.0
C5735 C 0.47826 0.14197 0.26057 0.0
C5736 C 0.43552 0.13543 0.32632 0.0
C5737 C 0.44329 0.1349 0.31869 0.0
C5738 C 0.45126 0.1474 0.29535 0.0
C5739 C 0.47181 0.13706 0.27718 0.0
C5740 C 0.46613 0.1394 0.28676 0.0
C5741 C 0.44618 0.14314 0.31316 0.0
C5742 C 0.45355 0.14235 0.30432 0.0
H5743 H 0.47871 0.11755 0.26301 0.0
H5744 H 0.47188 0.12165 0.27974 0.0
H5745 H 0.45518 0.14965 0.27978 0.0
H5746 H 0.42979 0.15939 0.32482 0.0
H5747 H 0.44355 0.15851 0.31171 0.0
C5748 C 0.61702 0.71107 0.0338 0.0
C5749 C 0.60642 0.71087 0.02992 0.0
C5750 C 0.61967 0.70598 0.0426 0.0
C5751 C 0.61081 0.68538 0.05784 0.0
H5752 H 0.62921 0.69637 0.07869 0.0
C5753 C 0.62458 0.67619 0.10131 0.0
C5754 C 0.6272 0.66641 0.10021 0.0
C5755 C 0.62254 0.6819 0.09279 0.0
C5756 C 0.62403 0.69323 0.07295 0.0
H5757 H 0.59026 0.70529 0.03233 0.0
H5758 H 0.59489 0.69644 0.04768 0.0
H5759 H 0.62437 0.70597 0.06383 0.0
H5760 H 0.62982 0.65497 0.08931 0.0
H5761 H 0.6264 0.66495 0.07447 0.0
H5762 H 0.61037 0.67269 0.06697 0.0
C5763 C 0.60117 0.70045 0.04386 0.0
C5764 C 0.62133 0.69869 0.06441 0.0
C5765 C 0.59851 0.70557 0.0351 0.0
C5766 C 0.62793 0.66251 0.09041 0.0
C5767 C 0.62585 0.66819 0.08192 0.0
C5768 C 0.61355 0.67992 0.06634 0.0
C5769 C 0.61179 0.70055 0.04768 0.0
C5770 C 0.61468 0.69482 0.05677 0.0
C5771 C 0.623 0.67792 0.08301 0.0
C5772 C 0.62019 0.68377 0.07398 0.0
H5773 H 0.6233 0.71509 0.02999 0.0
H5774 H 0.62794 0.70613 0.04531 0.0
H5775 H 0.60576 0.68216 0.05204 0.0
H5776 H 0.62404 0.67942 0.10876 0.0
H5777 H 0.62031 0.68936 0.09388 0.0
C5778 C 0.00829 0.85232 0.76143 0.0
C5779 C 0.00321 0.86082 0.75816 0.0
C5780 C 0.01657 0.85265 0.76865 0.0
C5781 C 0.02848 0.86806 0.78866 0.0
H5782 H 0.05367 0.85187 0.78484 0.0
C5783 C 0.06713 0.87197 0.81307 0.0
C5784 C 0.07212 0.86343 0.81635 0.0
C5785 C 0.05872 0.8717 0.80598 0.0
C5786 C 0.04664 0.85636 0.78608 0.0
H5787 H 0.00281 0.87633 0.75996 0.0
H5788 H 0.01733 0.8769 0.77248 0.0
H5789 H 0.0389 0.85126 0.77259 0.0
H5790 H 0.0723 0.84792 0.81461 0.0
H5791 H 0.05752 0.84744 0.80236 0.0
H5792 H 0.03625 0.87318 0.80214 0.0
C5793 C 0.01482 0.86997 0.76956 0.0
C5794 C 0.03817 0.85601 0.77906 0.0
C5795 C 0.00653 0.86964 0.76234 0.0
C5796 C 0.06855 0.85462 0.81232 0.0
C5797 C 0.06016 0.85435 0.80522 0.0
C5798 C 0.03696 0.86843 0.79567 0.0
C5799 C 0.01998 0.86148 0.77276 0.0
C5800 C 0.02897 0.86184 0.78027 0.0
C5801 C 0.05512 0.86288 0.80198 0.0
C5802 C 0.04614 0.86257 0.79447 0.0
H5803 H 0.0059 0.84541 0.75838 0.0
H5804 H 0.02027 0.84596 0.77106 0.0
H5805 H 0.02145 0.87256 0.78989 0.0
H5806 H 0.06963 0.87886 0.8161 0.0
H5807 H 0.05508 0.87841 0.80357 0.0
C5808 C 0.93679 0.88799 0.72566 0.0
C5809 C 0.94352 0.88073 0.72958 0.0
C5810 C 0.9262 0.88591 0.72268 0.0
C5811 C 0.9105 0.86563 0.713 0.0
H5812 H 0.88662 0.88365 0.71441 0.0
C5813 C 0.87083 0.85853 0.69139 0.0
C5814 C 0.86687 0.86639 0.6858 0.0
C5815 C 0.8788 0.85985 0.6988 0.0
C5816 C 0.89322 0.87854 0.71394 0.0
H5817 H 0.94414 0.86574 0.7341 0.0
H5818 H 0.92562 0.86213 0.72894 0.0
H5819 H 0.90315 0.88681 0.72403 0.0
H5820 H 0.868 0.88183 0.68379 0.0
H5821 H 0.8819 0.88414 0.69662 0.0
H5822 H 0.90081 0.85755 0.70262 0.0
C5823 C 0.92861 0.8694 0.72803 0.0
C5824 C 0.90267 0.88035 0.71946 0.0
C5825 C 0.9392 0.87149 0.73104 0.0
C5826 C 0.87076 0.87564 0.68805 0.0
C5827 C 0.87873 0.87696 0.69544 0.0
C5828 C 0.90108 0.86384 0.70747 0.0
C5829 C 0.92209 0.87652 0.72355 0.0
C5830 C 0.91152 0.87402 0.71887 0.0
C5831 C 0.88301 0.86907 0.70076 0.0
C5832 C 0.89241 0.87038 0.70768 0.0
H5833 H 0.93984 0.8952 0.72448 0.0
H5834 H 0.92144 0.89155 0.71919 0.0
H5835 H 0.91721 0.86067 0.71224 0.0
H5836 H 0.86788 0.85133 0.68993 0.0
H5837 H 0.88179 0.85364 0.70288 0.0
C5838 C 0.87381 0.22543 0.43307 0.0
C5839 C 0.86598 0.23006 0.43902 0.0
C5840 C 0.87073 0.21929 0.42521 0.0
C5841 C 0.84791 0.21324 0.40828 0.0
H5842 H 0.86357 0.18931 0.40485 0.0
C5843 C 0.83424 0.18294 0.38082 0.0
C5844 C 0.84241 0.17814 0.37542 0.0
C5845 C 0.83689 0.18965 0.38832 0.0
C5846 C 0.85919 0.19602 0.40562 0.0
H5847 H 0.84875 0.2319 0.44134 0.0
H5848 H 0.84337 0.22109 0.42766 0.0
H5849 H 0.8686 0.2002 0.4185 0.0
H5850 H 0.85977 0.17674 0.37363 0.0
H5851 H 0.86435 0.18858 0.38648 0.0
H5852 H 0.83848 0.20901 0.39538 0.0
C5853 C 0.8519 0.2223 0.42902 0.0
C5854 C 0.86208 0.20226 0.41345 0.0
C5855 C 0.85498 0.22844 0.4369 0.0
C5856 C 0.85327 0.18038 0.37754 0.0
C5857 C 0.8559 0.18707 0.38501 0.0
C5858 C 0.84501 0.20699 0.40043 0.0
C5859 C 0.85974 0.21763 0.42311 0.0
C5860 C 0.85651 0.21096 0.41485 0.0
C5861 C 0.84776 0.19168 0.3906 0.0
C5862 C 0.85067 0.19833 0.39898 0.0
H5863 H 0.88235 0.22656 0.43448 0.0
H5864 H 0.87697 0.21591 0.42071 0.0
H5865 H 0.84353 0.21995 0.4091 0.0
H5866 H 0.82579 0.18143 0.37931 0.0
H5867 H 0.83043 0.19305 0.39253 0.0
C5868 C 0.52684 0.1259 0.21112 0.0
C5869 C 0.5218 0.11694 0.21246 0.0
C5870 C 0.53711 0.12647 0.20678 0.0
C5871 C 0.55553 0.11323 0.19004 0.0
H5872 H 0.57741 0.13027 0.20106 0.0
C5873 C 0.59893 0.11379 0.17433 0.0
C5874 C 0.60388 0.12283 0.1732 0.0
C5875 C 0.58921 0.1129 0.1796 0.0
C5876 C 0.57135 0.12556 0.19782 0.0
H5877 H 0.52363 0.10154 0.21041 0.0
H5878 H 0.54154 0.10255 0.20283 0.0
H5879 H 0.55985 0.12911 0.20933 0.0
H5880 H 0.6026 0.13797 0.17699 0.0
H5881 H 0.5855 0.13645 0.18591 0.0
H5882 H 0.56691 0.10979 0.17844 0.0
C5883 C 0.53752 0.10914 0.20507 0.0
C5884 C 0.5613 0.12488 0.20257 0.0
C5885 C 0.52728 0.10856 0.20946 0.0
C5886 C 0.59894 0.13092 0.1776 0.0
C5887 C 0.5892 0.13003 0.18284 0.0
C5888 C 0.56555 0.11394 0.18526 0.0
C5889 C 0.54253 0.1181 0.20365 0.0
C5890 C 0.55328 0.11872 0.19872 0.0
C5891 C 0.58417 0.12102 0.18384 0.0
C5892 C 0.57359 0.12013 0.18908 0.0
H5893 H 0.52283 0.13249 0.21335 0.0
H5894 H 0.54073 0.13348 0.20569 0.0
H5895 H 0.54945 0.10853 0.18681 0.0
H5896 H 0.60244 0.10742 0.17096 0.0
H5897 H 0.58565 0.10583 0.18034 0.0
C5898 C 0.61614 0.74499 0.9305 0.0
C5899 C 0.62365 0.74324 0.93829 0.0
C5900 C 0.61877 0.75104 0.92243 0.0
C5901 C 0.6415 0.76227 0.90885 0.0
H5902 H 0.62019 0.78166 0.90189 0.0
C5903 C 0.65119 0.79508 0.88348 0.0
C5904 C 0.64306 0.79841 0.87688 0.0
C5905 C 0.64905 0.78773 0.8904 0.0
C5906 C 0.62618 0.77621 0.9036 0.0
H5907 H 0.63996 0.74618 0.94354 0.0
H5908 H 0.64453 0.75675 0.92944 0.0
H5909 H 0.61608 0.76981 0.91485 0.0
H5910 H 0.62632 0.79647 0.87232 0.0
H5911 H 0.62273 0.78346 0.8841 0.0
H5912 H 0.6516 0.76868 0.89758 0.0
C5913 C 0.63662 0.75342 0.92956 0.0
C5914 C 0.62382 0.76942 0.91105 0.0
C5915 C 0.63398 0.7474 0.93767 0.0
C5916 C 0.63282 0.79403 0.8772 0.0
C5917 C 0.63071 0.78665 0.88407 0.0
C5918 C 0.64385 0.76904 0.90134 0.0
C5919 C 0.62898 0.75542 0.92195 0.0
C5920 C 0.63146 0.7624 0.91378 0.0
C5921 C 0.63874 0.78351 0.89087 0.0
C5922 C 0.63622 0.77611 0.89865 0.0
H5923 H 0.60813 0.74186 0.93071 0.0
H5924 H 0.61276 0.75234 0.9166 0.0
H5925 H 0.64751 0.75689 0.91074 0.0
H5926 H 0.6592 0.7982 0.88335 0.0
H5927 H 0.6554 0.78554 0.89558 0.0
C5928 C 0.95651 0.11298 0.77564 0.0
C5929 C 0.96485 0.11579 0.78228 0.0
C5930 C 0.94569 0.1135 0.77869 0.0
C5931 C 0.92901 0.11406 0.80178 0.0
H5932 H 0.90661 0.12441 0.78428 0.0
C5933 C 0.88464 0.1151 0.8145 0.0
C5934 C 0.87923 0.12388 0.81297 0.0
C5935 C 0.89451 0.11328 0.80976 0.0
C5936 C 0.91278 0.1215 0.78925 0.0
H5937 H 0.96834 0.12153 0.79723 0.0
H5938 H 0.94958 0.12247 0.80248 0.0
H5939 H 0.92515 0.12309 0.77803 0.0
H5940 H 0.87969 0.13741 0.80483 0.0
H5941 H 0.89702 0.13431 0.79671 0.0
H5942 H 0.9168 0.11273 0.8131 0.0
C5943 C 0.95137 0.11974 0.79499 0.0
C5944 C 0.92337 0.12067 0.78564 0.0
C5945 C 0.96214 0.11926 0.79194 0.0
C5946 C 0.88372 0.13063 0.80628 0.0
C5947 C 0.89359 0.12881 0.80153 0.0
C5948 C 0.91845 0.11486 0.80537 0.0
C5949 C 0.94303 0.11678 0.78845 0.0
C5950 C 0.93163 0.11708 0.79194 0.0
C5951 C 0.89921 0.12019 0.80337 0.0
C5952 C 0.91023 0.1187 0.7992 0.0
H5953 H 0.95834 0.11028 0.76814 0.0
H5954 H 0.93943 0.11113 0.7735 0.0
H5955 H 0.93516 0.11114 0.80677 0.0
H5956 H 0.88145 0.10977 0.81966 0.0
H5957 H 0.89856 0.10652 0.81124 0.0
C5958 C 0.61908 0.24045 0.52394 0.0
C5959 C 0.60836 0.24302 0.52162 0.0
C5960 C 0.62127 0.23329 0.53109 0.0
C5961 C 0.60898 0.21276 0.5446 0.0
H5962 H 0.63199 0.21733 0.56404 0.0
C5963 C 0.62579 0.19647 0.58495 0.0
C5964 C 0.62565 0.18659 0.58271 0.0
C5965 C 0.62376 0.20325 0.57736 0.0
C5966 C 0.62549 0.21597 0.55871 0.0
H5967 H 0.59153 0.23997 0.52487 0.0
H5968 H 0.59536 0.22754 0.5374 0.0
H5969 H 0.62822 0.22926 0.55097 0.0
H5970 H 0.62312 0.17609 0.57077 0.0
H5971 H 0.61978 0.18792 0.55752 0.0
H5972 H 0.6061 0.19957 0.55247 0.0
C5973 C 0.60207 0.23099 0.53362 0.0
C5974 C 0.62342 0.22275 0.55114 0.0
C5975 C 0.59988 0.23814 0.52647 0.0
C5976 C 0.62341 0.18365 0.57272 0.0
C5977 C 0.62137 0.19043 0.56515 0.0
C5978 C 0.61106 0.20597 0.55216 0.0
C5979 C 0.6128 0.22855 0.53608 0.0
C5980 C 0.61512 0.22123 0.544 0.0
C5981 C 0.62152 0.20031 0.56738 0.0
C5982 C 0.61933 0.20751 0.55931 0.0
H5983 H 0.6258 0.24404 0.52032 0.0
H5984 H 0.62962 0.23148 0.53271 0.0
H5985 H 0.60259 0.21133 0.53916 0.0
H5986 H 0.62757 0.19897 0.59254 0.0
H5987 H 0.62382 0.21081 0.57935 0.0
C5988 C 0.53051 0.85977 0.25621 0.0
C5989 C 0.52439 0.86829 0.25594 0.0
C5990 C 0.54103 0.85979 0.2601 0.0
C5991 C 0.55792 0.87338 0.27802 0.0
H5992 H 0.581 0.85725 0.26774 0.0
C5993 C 0.59994 0.87272 0.29693 0.0
C5994 C 0.60462 0.86361 0.29841 0.0
C5995 C 0.59084 0.87381 0.29073 0.0
C5996 C 0.57461 0.86175 0.27073 0.0
H5997 H 0.52477 0.88362 0.25901 0.0
H5998 H 0.54316 0.88366 0.26568 0.0
H5999 H 0.56394 0.85834 0.25842 0.0
H6000 H 0.60361 0.84855 0.29424 0.0
H6001 H 0.58759 0.85041 0.2836 0.0
H6002 H 0.56845 0.87665 0.29042 0.0
C6003 C 0.53974 0.87693 0.26307 0.0
C6004 C 0.56484 0.86238 0.26539 0.0
C6005 C 0.52922 0.87691 0.25918 0.0
C6006 C 0.60012 0.85565 0.29336 0.0
C6007 C 0.59102 0.85673 0.28716 0.0
C6008 C 0.56766 0.87275 0.28335 0.0
C6009 C 0.54568 0.86832 0.2638 0.0
C6010 C 0.55635 0.86814 0.26902 0.0
C6011 C 0.5862 0.86581 0.28586 0.0
C6012 C 0.57609 0.86686 0.27983 0.0
H6013 H 0.52704 0.85301 0.25376 0.0
H6014 H 0.54534 0.85302 0.26063 0.0
H6015 H 0.55148 0.87774 0.28114 0.0
H6016 H 0.60313 0.87899 0.30077 0.0
H6017 H 0.5874 0.88092 0.2898 0.0
C6018 C 0.87161 0.75909 0.02437 0.0
C6019 C 0.88248 0.75824 0.02146 0.0
C6020 C 0.86843 0.76618 0.03126 0.0
C6021 C 0.877 0.78935 0.04239 0.0
H6022 H 0.8565 0.78282 0.06344 0.0
C6023 C 0.85941 0.80621 0.08206 0.0
C6024 C 0.85741 0.81572 0.07896 0.0
C6025 C 0.86232 0.79918 0.075 0.0
C6026 C 0.86229 0.78474 0.05765 0.0
H6027 H 0.89855 0.76419 0.02347 0.0
H6028 H 0.89303 0.7765 0.03555 0.0
H6029 H 0.86199 0.77061 0.05122 0.0
H6030 H 0.85701 0.82531 0.066 0.0
H6031 H 0.86187 0.81302 0.05368 0.0
H6032 H 0.87747 0.80342 0.04893 0.0
C6033 C 0.88693 0.77176 0.03242 0.0
C6034 C 0.86534 0.77777 0.05057 0.0
C6035 C 0.8901 0.76468 0.02553 0.0
C6036 C 0.85837 0.81803 0.06863 0.0
C6037 C 0.86129 0.81101 0.06158 0.0
C6038 C 0.87394 0.79631 0.04945 0.0
C6039 C 0.87607 0.77257 0.0354 0.0
C6040 C 0.87274 0.78 0.04287 0.0
C6041 C 0.86332 0.80151 0.06468 0.0
C6042 C 0.86656 0.79409 0.05717 0.0
H6043 H 0.86553 0.75426 0.02136 0.0
H6044 H 0.85998 0.76669 0.0333 0.0
H6045 H 0.88264 0.79132 0.03649 0.0
H6046 H 0.85865 0.80418 0.08995 0.0
H6047 H 0.86393 0.79195 0.07765 0.0
C6048 C 0.71009 0.94961 0.8986 0.0
C6049 C 0.70763 0.95203 0.90867 0.0
C6050 C 0.707 0.9407 0.89461 0.0
C6051 C 0.68778 0.92077 0.89863 0.0
H6052 H 0.70726 0.90658 0.88117 0.0
C6053 C 0.67868 0.88199 0.88589 0.0
C6054 C 0.68051 0.87978 0.87565 0.0
C6055 C 0.68237 0.89065 0.89001 0.0
C6056 C 0.7017 0.9105 0.88596 0.0
H6057 H 0.70005 0.94698 0.92247 0.0
H6058 H 0.69477 0.93142 0.91555 0.0
H6059 H 0.7129 0.92204 0.88817 0.0
H6060 H 0.6879 0.88481 0.86176 0.0
H6061 H 0.69424 0.9 0.86892 0.0
H6062 H 0.67657 0.90925 0.89642 0.0
C6063 C 0.69895 0.93645 0.91069 0.0
C6064 C 0.70492 0.91936 0.88997 0.0
C6065 C 0.70204 0.94535 0.91467 0.0
C6066 C 0.68629 0.88635 0.86966 0.0
C6067 C 0.69 0.895 0.87378 0.0
C6068 C 0.68456 0.91191 0.89464 0.0
C6069 C 0.70138 0.93403 0.90061 0.0
C6070 C 0.69799 0.9246 0.89635 0.0
C6071 C 0.68798 0.89729 0.88398 0.0
C6072 C 0.69148 0.90667 0.88827 0.0
H6073 H 0.71437 0.9546 0.89377 0.0
H6074 H 0.70888 0.93911 0.88678 0.0
H6075 H 0.68217 0.92469 0.90337 0.0
H6076 H 0.67416 0.87714 0.89069 0.0
H6077 H 0.6808 0.89215 0.89792 0.0
C6078 C 0.19664 0.53526 0.06293 0.0
C6079 C 0.20247 0.52875 0.06899 0.0
C6080 C 0.19383 0.54432 0.06666 0.0
C6081 C 0.18957 0.55766 0.09039 0.0
H6082 H 0.19187 0.58004 0.07301 0.0
C6083 C 0.18014 0.59603 0.10476 0.0
C6084 C 0.17404 0.60189 0.09822 0.0
C6085 C 0.18442 0.5873 0.10134 0.0
C6086 C 0.1911 0.57385 0.07793 0.0
H6087 H 0.20994 0.52666 0.08373 0.0
H6088 H 0.20505 0.54251 0.09022 0.0
H6089 H 0.19773 0.56438 0.06678 0.0
H6090 H 0.16757 0.60315 0.08298 0.0
H6091 H 0.17499 0.58796 0.07704 0.0
H6092 H 0.18279 0.5671 0.10149 0.0
C6093 C 0.20259 0.54056 0.08261 0.0
C6094 C 0.19446 0.56488 0.07436 0.0
C6095 C 0.20543 0.53151 0.07887 0.0
C6096 C 0.1724 0.59889 0.08816 0.0
C6097 C 0.17666 0.59017 0.08475 0.0
C6098 C 0.18619 0.56663 0.09395 0.0
C6099 C 0.19677 0.54708 0.07654 0.0
C6100 C 0.19364 0.55667 0.08051 0.0
C6101 C 0.18267 0.58425 0.09131 0.0
C6102 C 0.18682 0.57481 0.08773 0.0
H6103 H 0.19422 0.53336 0.0553 0.0
H6104 H 0.18922 0.54913 0.06185 0.0
H6105 H 0.18872 0.55145 0.09526 0.0
H6106 H 0.18165 0.5982 0.11252 0.0
H6107 H 0.18914 0.58297 0.10655 0.0
C6108 C 0.23663 0.44526 0.87253 0.0
C6109 C 0.2325 0.45464 0.87151 0.0
C6110 C 0.23061 0.43734 0.86925 0.0
C6111 C 0.20256 0.42997 0.86407 0.0
H6112 H 0.21591 0.40829 0.85051 0.0
C6113 C 0.17726 0.39865 0.84816 0.0
C6114 C 0.1812 0.3893 0.84983 0.0
C6115 C 0.18373 0.40665 0.8502 0.0
C6116 C 0.21209 0.41425 0.85437 0.0
H6117 H 0.21892 0.46304 0.86601 0.0
H6118 H 0.20846 0.44924 0.86024 0.0
H6119 H 0.22688 0.42223 0.85512 0.0
H6120 H 0.19515 0.38102 0.85471 0.0
H6121 H 0.20637 0.395 0.85847 0.0
H6122 H 0.18781 0.422 0.86343 0.0
C6123 C 0.21629 0.448 0.8637 0.0
C6124 C 0.21836 0.42224 0.85701 0.0
C6125 C 0.22232 0.45592 0.86696 0.0
C6126 C 0.19183 0.38813 0.85344 0.0
C6127 C 0.1983 0.39614 0.85549 0.0
C6128 C 0.19629 0.422 0.86145 0.0
C6129 C 0.22032 0.43861 0.8649 0.0
C6130 C 0.21367 0.43018 0.8619 0.0
C6131 C 0.19429 0.4055 0.85397 0.0
C6132 C 0.20098 0.41403 0.85658 0.0
H6133 H 0.24446 0.44402 0.87601 0.0
H6134 H 0.2339 0.4302 0.87038 0.0
H6135 H 0.19873 0.4359 0.86799 0.0
H6136 H 0.16908 0.39981 0.84549 0.0
H6137 H 0.18044 0.41375 0.84883 0.0
C6138 C 0.29254 0.45542 0.56037 0.0
C6139 C 0.28616 0.46203 0.56576 0.0
C6140 C 0.29586 0.44683 0.56489 0.0
C6141 C 0.3004 0.43546 0.58973 0.0
H6142 H 0.30026 0.41188 0.57403 0.0
C6143 C 0.31237 0.39872 0.60706 0.0
C6144 C 0.31916 0.39292 0.60112 0.0
C6145 C 0.3075 0.40692 0.60294 0.0
C6146 C 0.30042 0.41842 0.57849 0.0
H6147 H 0.27826 0.46479 0.58012 0.0
H6148 H 0.28404 0.44975 0.58799 0.0
H6149 H 0.29341 0.42669 0.56648 0.0
H6150 H 0.32625 0.39126 0.5862 0.0
H6151 H 0.31776 0.4055 0.57904 0.0
H6152 H 0.30755 0.42721 0.6017 0.0
C6153 C 0.28654 0.45126 0.5803 0.0
C6154 C 0.2965 0.4269 0.57416 0.0
C6155 C 0.28319 0.45986 0.57577 0.0
C6156 C 0.32089 0.39546 0.59094 0.0
C6157 C 0.31603 0.40364 0.58683 0.0
C6158 C 0.30433 0.42697 0.59406 0.0
C6159 C 0.2929 0.44465 0.5749 0.0
C6160 C 0.29657 0.43554 0.57969 0.0
C6161 C 0.30932 0.40949 0.59279 0.0
C6162 C 0.3045 0.41838 0.58844 0.0
H6163 H 0.295 0.45688 0.55266 0.0
H6164 H 0.3009 0.44195 0.56058 0.0
H6165 H 0.30067 0.44202 0.59415 0.0
H6166 H 0.31078 0.3969 0.61489 0.0
H6167 H 0.30226 0.41123 0.6077 0.0
C6168 C 0.74804 0.03889 0.8926 0.0
C6169 C 0.74225 0.03204 0.88694 0.0
C6170 C 0.75512 0.04523 0.88782 0.0
C6171 C 0.7617 0.0561 0.86312 0.0
H6172 H 0.78904 0.06164 0.87635 0.0
C6173 C 0.79457 0.08063 0.8453 0.0
C6174 C 0.79918 0.08741 0.85192 0.0
C6175 C 0.78789 0.07333 0.84904 0.0
C6176 C 0.78141 0.06021 0.87259 0.0
H6177 H 0.73926 0.02657 0.87179 0.0
H6178 H 0.75171 0.03764 0.86345 0.0
H6179 H 0.77674 0.05001 0.88386 0.0
H6180 H 0.80065 0.0917 0.86766 0.0
H6181 H 0.78897 0.0791 0.87415 0.0
H6182 H 0.76638 0.0664 0.85189 0.0
C6183 C 0.75069 0.03813 0.87158 0.0
C6184 C 0.77435 0.05356 0.8769 0.0
C6185 C 0.74359 0.03177 0.87637 0.0
C6186 C 0.79711 0.08666 0.86235 0.0
C6187 C 0.79051 0.07937 0.86608 0.0
C6188 C 0.76878 0.06277 0.85879 0.0
C6189 C 0.7566 0.04488 0.87728 0.0
C6190 C 0.76434 0.05154 0.87231 0.0
C6191 C 0.7858 0.07262 0.85948 0.0
C6192 C 0.77864 0.065 0.86357 0.0
H6193 H 0.74716 0.03933 0.90074 0.0
H6194 H 0.7594 0.05046 0.89241 0.0
H6195 H 0.75401 0.05476 0.85944 0.0
H6196 H 0.79599 0.08105 0.83722 0.0
H6197 H 0.78443 0.06819 0.84378 0.0
C6198 C 0.77973 0.03791 0.39494 0.0
C6199 C 0.77417 0.03104 0.38911 0.0
C6200 C 0.78413 0.04608 0.39038 0.0
C6201 C 0.7823 0.06125 0.36747 0.0
H6202 H 0.8107 0.06985 0.37607 0.0
C6203 C 0.80618 0.09132 0.34691 0.0
C6204 C 0.81172 0.09793 0.35308 0.0
C6205 C 0.80127 0.08321 0.35114 0.0
C6206 C 0.80271 0.0676 0.37366 0.0
H6207 H 0.76883 0.02737 0.37393 0.0
H6208 H 0.77661 0.04158 0.36595 0.0
H6209 H 0.80282 0.05558 0.38373 0.0
H6210 H 0.81645 0.10121 0.36855 0.0
H6211 H 0.80774 0.0872 0.37593 0.0
H6212 H 0.78224 0.0733 0.35736 0.0
C6213 C 0.77745 0.04071 0.37407 0.0
C6214 C 0.79819 0.05942 0.37805 0.0
C6215 C 0.77305 0.03254 0.37863 0.0
C6216 C 0.81213 0.09632 0.36359 0.0
C6217 C 0.80726 0.08822 0.36781 0.0
C6218 C 0.78683 0.06944 0.36305 0.0
C6219 C 0.78308 0.04755 0.37989 0.0
C6220 C 0.78791 0.05618 0.37505 0.0
C6221 C 0.80186 0.08153 0.36164 0.0
C6222 C 0.79706 0.07274 0.36615 0.0
H6223 H 0.7807 0.037 0.40304 0.0
H6224 H 0.78827 0.05128 0.39511 0.0
H6225 H 0.77431 0.059 0.36507 0.0
H6226 H 0.80565 0.0924 0.3388 0.0
H6227 H 0.79722 0.07815 0.34618 0.0
C6228 C 0.24667 0.54713 0.58322 0.0
C6229 C 0.25272 0.54036 0.58876 0.0
C6230 C 0.24047 0.55404 0.58821 0.0
C6231 C 0.23724 0.5667 0.6125 0.0
H6232 H 0.20854 0.57204 0.60199 0.0
C6233 C 0.21212 0.60024 0.62353 0.0
C6234 C 0.20086 0.59917 0.62444 0.0
C6235 C 0.21854 0.59256 0.6203 0.0
C6236 C 0.21648 0.57056 0.6051 0.0
H6237 H 0.25713 0.53564 0.60389 0.0
H6238 H 0.24623 0.54774 0.6126 0.0
H6239 H 0.21954 0.55964 0.59407 0.0
H6240 H 0.18759 0.58907 0.62297 0.0
H6241 H 0.19881 0.57564 0.61754 0.0
H6242 H 0.23412 0.57765 0.62356 0.0
C6243 C 0.24636 0.5477 0.6044 0.0
C6244 C 0.22284 0.56354 0.60048 0.0
C6245 C 0.25255 0.54075 0.5994 0.0
C6246 C 0.19624 0.59013 0.62243 0.0
C6247 C 0.20265 0.58246 0.6192 0.0
C6248 C 0.23088 0.57377 0.61711 0.0
C6249 C 0.24017 0.55436 0.59884 0.0
C6250 C 0.23332 0.56159 0.60406 0.0
C6251 C 0.21384 0.58365 0.61789 0.0
C6252 C 0.22045 0.57581 0.61342 0.0
H6253 H 0.24666 0.54706 0.57502 0.0
H6254 H 0.23593 0.55917 0.58372 0.0
H6255 H 0.2453 0.56539 0.6154 0.0
H6256 H 0.21594 0.60708 0.62513 0.0
H6257 H 0.22713 0.59373 0.61932 0.0
C6258 C 0.25164 0.45868 0.09821 0.0
C6259 C 0.24132 0.4611 0.10178 0.0
C6260 C 0.25861 0.45305 0.10406 0.0
C6261 C 0.25865 0.43533 0.12479 0.0
H6262 H 0.28964 0.43936 0.12353 0.0
C6263 C 0.28937 0.40964 0.14408 0.0
C6264 C 0.29723 0.40621 0.13733 0.0
C6265 C 0.28288 0.41751 0.14143 0.0
C6266 C 0.281 0.43818 0.12398 0.0
H6267 H 0.23028 0.45968 0.11442 0.0
H6268 H 0.24254 0.44994 0.12473 0.0
H6269 H 0.27745 0.45107 0.11579 0.0
H6270 H 0.30487 0.40852 0.1228 0.0
H6271 H 0.29368 0.42231 0.11823 0.0
H6272 H 0.26227 0.42234 0.13285 0.0
C6273 C 0.24518 0.45228 0.11732 0.0
C6274 C 0.27402 0.44485 0.11951 0.0
C6275 C 0.23817 0.4579 0.11143 0.0
C6276 C 0.29882 0.41102 0.12811 0.0
C6277 C 0.29247 0.41894 0.12553 0.0
C6278 C 0.26565 0.42869 0.12933 0.0
C6279 C 0.25547 0.44975 0.11367 0.0
C6280 C 0.26277 0.44336 0.11959 0.0
C6281 C 0.28431 0.42216 0.13208 0.0
C6282 C 0.2769 0.42992 0.12871 0.0
H6283 H 0.25432 0.461 0.0908 0.0
H6284 H 0.26638 0.4511 0.10091 0.0
H6285 H 0.25005 0.43391 0.12492 0.0
H6286 H 0.28797 0.40601 0.15122 0.0
H6287 H 0.27666 0.41988 0.14662 0.0
C6288 C 0.60664 0.79152 0.4923 0.0
C6289 C 0.61298 0.78335 0.49432 0.0
C6290 C 0.6041 0.79799 0.50001 0.0
C6291 C 0.60216 0.80144 0.52748 0.0
H6292 H 0.60903 0.82793 0.52102 0.0
C6293 C 0.60286 0.83195 0.55757 0.0
C6294 C 0.59992 0.84122 0.55438 0.0
C6295 C 0.60356 0.82442 0.55056 0.0
C6296 C 0.60686 0.82061 0.52293 0.0
H6297 H 0.62114 0.7753 0.50616 0.0
H6298 H 0.61658 0.78662 0.51972 0.0
H6299 H 0.61157 0.81552 0.50831 0.0
H6300 H 0.59477 0.84982 0.54158 0.0
H6301 H 0.59557 0.83667 0.52941 0.0
H6302 H 0.59729 0.80656 0.54208 0.0
C6303 C 0.61364 0.788 0.51211 0.0
C6304 C 0.60837 0.81349 0.51563 0.0
C6305 C 0.61628 0.78155 0.50435 0.0
C6306 C 0.59721 0.84275 0.54418 0.0
C6307 C 0.59775 0.83523 0.53722 0.0
C6308 C 0.6005 0.8086 0.53477 0.0
C6309 C 0.60775 0.7964 0.50995 0.0
C6310 C 0.60602 0.80384 0.51781 0.0
C6311 C 0.6012 0.82602 0.54025 0.0
C6312 C 0.60281 0.8183 0.53257 0.0
H6313 H 0.6039 0.79311 0.48468 0.0
H6314 H 0.59942 0.80434 0.49817 0.0
H6315 H 0.60025 0.79404 0.52933 0.0
H6316 H 0.60502 0.83063 0.56541 0.0
H6317 H 0.60633 0.81746 0.55316 0.0
C6318 C 0.46402 0.37451 0.77624 0.0
C6319 C 0.46088 0.38157 0.76921 0.0
C6320 C 0.45936 0.37423 0.78588 0.0
C6321 C 0.4425 0.38881 0.80368 0.0
H6322 H 0.43641 0.36396 0.81569 0.0
C6323 C 0.41118 0.38301 0.83524 0.0
C6324 C 0.41469 0.37799 0.84391 0.0
C6325 C 0.41765 0.3835 0.82662 0.0
C6326 C 0.43817 0.37094 0.81246 0.0
H6327 H 0.45038 0.39384 0.76673 0.0
H6328 H 0.44197 0.39314 0.7833 0.0
H6329 H 0.44615 0.36478 0.79967 0.0
H6330 H 0.42785 0.36948 0.85017 0.0
H6331 H 0.43893 0.37002 0.83487 0.0
H6332 H 0.43401 0.39489 0.81627 0.0
C6333 C 0.44827 0.38799 0.78157 0.0
C6334 C 0.44379 0.37143 0.8033 0.0
C6335 C 0.45305 0.38836 0.77202 0.0
C6336 C 0.42479 0.3733 0.84362 0.0
C6337 C 0.43117 0.37365 0.8349 0.0
C6338 C 0.43671 0.38829 0.81272 0.0
C6339 C 0.45134 0.38091 0.78865 0.0
C6340 C 0.44594 0.38038 0.79872 0.0
C6341 C 0.42769 0.37883 0.82637 0.0
C6342 C 0.43441 0.37936 0.81714 0.0
H6343 H 0.47009 0.36921 0.77431 0.0
H6344 H 0.46209 0.36878 0.79116 0.0
H6345 H 0.44422 0.39584 0.80055 0.0
H6346 H 0.40335 0.38649 0.83503 0.0
H6347 H 0.41471 0.38742 0.82007 0.0
C6348 C 0.86719 0.1997 0.98752 0.0
C6349 C 0.86357 0.20915 0.98916 0.0
C6350 C 0.87105 0.19415 -0.00445 0.0
C6351 C 0.8695 0.19196 0.02332 0.0
H6352 H 0.89226 0.1732 0.01906 0.0
C6353 C 0.88452 0.16591 0.05472 0.0
C6354 C 0.88503 0.15622 0.05173 0.0
C6355 C 0.88298 0.17316 0.04752 0.0
C6356 C 0.88589 0.1784 0.02035 0.0
H6357 H 0.86147 0.22029 0.00049 0.0
H6358 H 0.86842 0.21061 0.01454 0.0
H6359 H 0.88794 0.18472 0.00573 0.0
H6360 H 0.88462 0.14652 0.03888 0.0
H6361 H 0.88198 0.15917 0.0263 0.0
H6362 H 0.86745 0.18555 0.03795 0.0
C6363 C 0.86808 0.20745 0.00705 0.0
C6364 C 0.88338 0.18499 0.01272 0.0
C6365 C 0.86416 0.21302 -0.00101 0.0
C6366 C 0.88417 0.15393 0.0414 0.0
C6367 C 0.88276 0.16117 0.0342 0.0
C6368 C 0.87208 0.18541 0.031 0.0
C6369 C 0.87148 0.19791 0.00543 0.0
C6370 C 0.87498 0.1917 0.01401 0.0
C6371 C 0.88209 0.17085 0.03718 0.0
C6372 C 0.88013 0.17843 0.0295 0.0
H6373 H 0.86682 0.19648 0.98006 0.0
H6374 H 0.87341 0.18679 0.99404 0.0
H6375 H 0.86291 0.19695 0.02454 0.0
H6376 H 0.88511 0.16786 0.06265 0.0
H6377 H 0.88253 0.18057 0.05001 0.0
C6378 C 0.02272 0.6041 0.27627 0.0
C6379 C 0.02176 0.6131 0.27152 0.0
C6380 C 0.02432 0.60348 0.28673 0.0
C6381 C 0.02286 0.61767 0.31062 0.0
H6382 H 0.04381 0.59892 0.32004 0.0
C6383 C 0.04429 0.61952 0.34958 0.0
C6384 C 0.04612 0.61083 0.35477 0.0
C6385 C 0.03974 0.61949 0.33988 0.0
C6386 C 0.03782 0.6041 0.31756 0.0
H6387 H 0.02156 0.62851 0.27404 0.0
H6388 H 0.02464 0.62745 0.29224 0.0
H6389 H 0.03895 0.59943 0.30219 0.0
H6390 H 0.04399 0.59536 0.35406 0.0
H6391 H 0.03618 0.59532 0.33706 0.0
H6392 H 0.02205 0.62252 0.32602 0.0
C6393 C 0.02393 0.62085 0.28793 0.0
C6394 C 0.03501 0.60438 0.30732 0.0
C6395 C 0.02224 0.62147 0.27748 0.0
C6396 C 0.04289 0.60216 0.3502 0.0
C6397 C 0.0384 0.60213 0.34047 0.0
C6398 C 0.02573 0.61742 0.32088 0.0
C6399 C 0.02509 0.61186 0.29268 0.0
C6400 C 0.02757 0.61123 0.30369 0.0
C6401 C 0.03697 0.61078 0.33514 0.0
C6402 C 0.03331 0.61068 0.32443 0.0
H6403 H 0.02229 0.59752 0.2719 0.0
H6404 H 0.02499 0.59643 0.29015 0.0
H6405 H 0.01696 0.62293 0.30813 0.0
H6406 H 0.0468 0.62632 0.35283 0.0
H6407 H 0.03884 0.62626 0.33591 0.0
C6408 C 0.61946 0.20705 0.97585 0.0
C6409 C 0.61823 0.20433 0.98603 0.0
C6410 C 0.61661 0.20071 0.96804 0.0
C6411 C 0.60151 0.178 0.96286 0.0
H6412 H 0.62173 0.17538 0.94065 0.0
C6413 C 0.60502 0.14377 0.93862 0.0
C6414 C 0.6062 0.14483 0.9281 0.0
C6415 C 0.6052 0.1518 0.94496 0.0
C6416 C 0.61592 0.17613 0.94672 0.0
H6417 H 0.61276 0.19293 -0.00401 0.0
H6418 H 0.60803 0.18188 0.98248 0.0
H6419 H 0.62425 0.18821 0.95304 0.0
H6420 H 0.60844 0.15511 0.91595 0.0
H6421 H 0.60887 0.16919 0.9271 0.0
H6422 H 0.59347 0.16565 0.95673 0.0
C6423 C 0.61101 0.18894 0.98046 0.0
C6424 C 0.61734 0.1835 0.95381 0.0
C6425 C 0.61381 0.19527 0.98823 0.0
C6426 C 0.60745 0.1541 0.92404 0.0
C6427 C 0.60777 0.16214 0.9304 0.0
C6428 C 0.60016 0.17059 0.95582 0.0
C6429 C 0.61248 0.19152 0.97026 0.0
C6430 C 0.61027 0.1844 0.96209 0.0
C6431 C 0.60667 0.16106 0.94093 0.0
C6432 C 0.60747 0.16947 0.94779 0.0
H6433 H 0.6228 0.214 0.9739 0.0
H6434 H 0.61772 0.20298 0.96027 0.0
H6435 H 0.59578 0.17862 0.969 0.0
H6436 H 0.60394 0.13671 0.94194 0.0
H6437 H 0.60444 0.15075 0.95306 0.0
C6438 C 0.02946 0.36834 0.21149 0.0
C6439 C 0.02664 0.37748 0.2152 0.0
C6440 C 0.03322 0.36724 0.20158 0.0
C6441 C 0.04607 0.38125 0.18113 0.0
H6442 H 0.03971 0.35874 0.16481 0.0
C6443 C 0.06096 0.37793 0.14009 0.0
C6444 C 0.06587 0.36917 0.13743 0.0
C6445 C 0.05518 0.3788 0.14911 0.0
C6446 C 0.0416 0.36504 0.16931 0.0
H6447 H 0.02512 0.39256 0.21128 0.0
H6448 H 0.03143 0.39062 0.19395 0.0
H6449 H 0.03121 0.36061 0.18138 0.0
H6450 H 0.06829 0.35436 0.14207 0.0
H6451 H 0.05812 0.35586 0.15781 0.0
H6452 H 0.05647 0.38567 0.1691 0.0
C6453 C 0.031 0.38433 0.19876 0.0
C6454 C 0.03675 0.36611 0.1788 0.0
C6455 C 0.02731 0.38544 0.20868 0.0
C6456 C 0.06453 0.36119 0.14384 0.0
C6457 C 0.05871 0.36205 0.15287 0.0
C6458 C 0.05086 0.3802 0.17163 0.0
C6459 C 0.03419 0.37525 0.19513 0.0
C6460 C 0.03897 0.37421 0.18485 0.0
C6461 C 0.05413 0.37091 0.15568 0.0
C6462 C 0.04872 0.37207 0.16563 0.0
H6463 H 0.02906 0.36207 0.21633 0.0
H6464 H 0.03571 0.36016 0.19909 0.0
H6465 H 0.04817 0.38748 0.18565 0.0
H6466 H 0.06163 0.38417 0.13522 0.0
H6467 H 0.05158 0.38567 0.15098 0.0
C6468 C 0.85034 0.78233 0.47815 0.0
C6469 C 0.85873 0.77836 0.48403 0.0
C6470 C 0.85266 0.78853 0.47012 0.0
C6471 C 0.87383 0.80496 0.46093 0.0
H6472 H 0.85704 0.80447 0.43607 0.0
C6473 C 0.8832 0.83008 0.42717 0.0
C6474 C 0.87426 0.83449 0.42249 0.0
C6475 C 0.88172 0.82269 0.43422 0.0
C6476 C 0.86175 0.80474 0.443 0.0
H6477 H 0.87613 0.77759 0.4859 0.0
H6478 H 0.88017 0.78832 0.4718 0.0
H6479 H 0.85374 0.79241 0.44911 0.0
H6480 H 0.85677 0.83445 0.42137 0.0
H6481 H 0.85418 0.8217 0.43377 0.0
H6482 H 0.88175 0.81735 0.45486 0.0
C6483 C 0.8718 0.78675 0.4735 0.0
C6484 C 0.85986 0.79783 0.45047 0.0
C6485 C 0.86948 0.78055 0.48154 0.0
C6486 C 0.86382 0.83128 0.42493 0.0
C6487 C 0.86234 0.82388 0.43194 0.0
C6488 C 0.87572 0.81186 0.45345 0.0
C6489 C 0.86341 0.7909 0.46776 0.0
C6490 C 0.86581 0.79791 0.45957 0.0
C6491 C 0.87127 0.81953 0.43672 0.0
C6492 C 0.86963 0.8119 0.44444 0.0
H6493 H 0.84197 0.78081 0.47988 0.0
H6494 H 0.84599 0.79168 0.46594 0.0
H6495 H 0.87845 0.80532 0.4679 0.0
H6496 H 0.89135 0.83244 0.42552 0.0
H6497 H 0.88877 0.81943 0.4377 0.0
C6498 C 0.45786 0.63073 0.6993 0.0
C6499 C 0.46269 0.62345 0.70515 0.0
C6500 C 0.45515 0.62909 0.68918 0.0
C6501 C 0.44809 0.60905 0.6723 0.0
H6502 H 0.44695 0.62928 0.65213 0.0
C6503 C 0.41813 0.60827 0.63907 0.0
C6504 C 0.42117 0.61216 0.62968 0.0
C6505 C 0.42501 0.60892 0.64744 0.0
C6506 C 0.44736 0.62349 0.6576 0.0
H6507 H 0.46914 0.60895 0.70475 0.0
H6508 H 0.46458 0.60613 0.68699 0.0
H6509 H 0.45657 0.63201 0.66801 0.0
H6510 H 0.43399 0.61949 0.62164 0.0
H6511 H 0.44607 0.62059 0.63628 0.0
H6512 H 0.43888 0.60053 0.66191 0.0
C6513 C 0.46266 0.61304 0.69031 0.0
C6514 C 0.45277 0.62509 0.66676 0.0
C6515 C 0.46534 0.61468 0.70048 0.0
C6516 C 0.43136 0.61654 0.62881 0.0
C6517 C 0.43828 0.61717 0.63719 0.0
C6518 C 0.44273 0.60743 0.66313 0.0
C6519 C 0.45726 0.62014 0.68462 0.0
C6520 C 0.45295 0.61799 0.67433 0.0
C6521 C 0.43513 0.61345 0.64664 0.0
C6522 C 0.44204 0.61472 0.65578 0.0
H6523 H 0.45573 0.63758 0.70266 0.0
H6524 H 0.4509 0.63468 0.68508 0.0
H6525 H 0.44798 0.60343 0.67797 0.0
H6526 H 0.41026 0.605 0.64005 0.0
H6527 H 0.42222 0.60615 0.65464 0.0
C6528 C 0.51529 0.63646 0.76733 0.0
C6529 C 0.50952 0.62797 0.7653 0.0
C6530 C 0.52405 0.6364 0.77405 0.0
C6531 C 0.54361 0.62037 0.78707 0.0
H6532 H 0.54482 0.64106 0.80675 0.0
C6533 C 0.57001 0.6187 0.82328 0.0
C6534 C 0.5751 0.62721 0.8265 0.0
C6535 C 0.56273 0.61883 0.81515 0.0
C6536 C 0.54471 0.6353 0.80122 0.0
H6537 H 0.50861 0.6127 0.76853 0.0
H6538 H 0.52382 0.61261 0.78032 0.0
H6539 H 0.53093 0.64123 0.79365 0.0
H6540 H 0.57686 0.64245 0.82346 0.0
H6541 H 0.56418 0.64267 0.80928 0.0
H6542 H 0.55733 0.61439 0.79476 0.0
C6543 C 0.52165 0.6193 0.77664 0.0
C6544 C 0.53674 0.6354 0.7937 0.0
C6545 C 0.51289 0.61936 0.76992 0.0
C6546 C 0.57292 0.63581 0.82128 0.0
C6547 C 0.56566 0.63593 0.81315 0.0
C6548 C 0.55159 0.62027 0.7946 0.0
C6549 C 0.52724 0.62785 0.77889 0.0
C6550 C 0.53605 0.62791 0.78658 0.0
C6551 C 0.56039 0.62747 0.81006 0.0
C6552 C 0.55219 0.62771 0.8018 0.0
H6553 H 0.51294 0.6432 0.76386 0.0
H6554 H 0.52829 0.64307 0.77549 0.0
H6555 H 0.54338 0.61455 0.78162 0.0
H6556 H 0.57141 0.61198 0.82722 0.0
H6557 H 0.5587 0.61221 0.81306 0.0
C6558 C 0.60416 0.27163 0.02212 0.0
C6559 C 0.61476 0.26866 0.01995 0.0
C6560 C 0.60208 0.28102 0.02537 0.0
C6561 C 0.61428 0.30543 0.02725 0.0
H6562 H 0.59429 0.30836 0.0496 0.0
C6563 C 0.6136 0.33869 0.05334 0.0
C6564 C 0.60351 0.34227 0.05647 0.0
C6565 C 0.61428 0.33019 0.04775 0.0
C6566 C 0.59977 0.30769 0.04326 0.0
H6567 H 0.63148 0.2733 0.01928 0.0
H6568 H 0.62791 0.28958 0.02514 0.0
H6569 H 0.59673 0.29263 0.04185 0.0
H6570 H 0.58619 0.33985 0.05583 0.0
H6571 H 0.58742 0.3249 0.04619 0.0
H6572 H 0.61754 0.32048 0.02891 0.0
C6573 C 0.62115 0.28472 0.02417 0.0
C6574 C 0.60116 0.29867 0.03879 0.0
C6575 C 0.62321 0.27536 0.02086 0.0
C6576 C 0.59411 0.33722 0.0537 0.0
C6577 C 0.5948 0.32867 0.04815 0.0
C6578 C 0.61293 0.31444 0.03176 0.0
C6579 C 0.61058 0.28764 0.02658 0.0
C6580 C 0.60853 0.29739 0.03081 0.0
C6581 C 0.6049 0.32503 0.0452 0.0
C6582 C 0.60575 0.31565 0.03989 0.0
H6583 H 0.59745 0.26666 0.02143 0.0
H6584 H 0.59382 0.28306 0.027 0.0
H6585 H 0.61987 0.30475 0.021 0.0
H6586 H 0.62102 0.34229 0.05549 0.0
H6587 H 0.6222 0.32749 0.04571 0.0
C6588 C 0.98691 0.38457 0.27629 0.0
C6589 C 0.98935 0.37584 0.27145 0.0
C6590 C 0.97813 0.38524 0.28289 0.0
C6591 C 0.96192 0.37008 0.29967 0.0
H6592 H 0.94369 0.39268 0.30187 0.0
C6593 C 0.92781 0.37219 0.32911 0.0
C6594 C 0.9267 0.3809 0.33441 0.0
C6595 C 0.93444 0.3716 0.32059 0.0
C6596 C 0.94877 0.38635 0.3014 0.0
H6597 H 0.98415 0.36107 0.26936 0.0
H6598 H 0.9688 0.36226 0.28084 0.0
H6599 H 0.95692 0.39161 0.28822 0.0
H6600 H 0.93156 0.39586 0.33484 0.0
H6601 H 0.94326 0.39482 0.32003 0.0
H6602 H 0.95402 0.36491 0.31296 0.0
C6603 C 0.97378 0.36855 0.27964 0.0
C6604 C 0.95633 0.38573 0.29357 0.0
C6605 C 0.98254 0.36789 0.27301 0.0
C6606 C 0.93218 0.38907 0.33086 0.0
C6607 C 0.93886 0.38847 0.32236 0.0
C6608 C 0.95441 0.37072 0.30751 0.0
C6609 C 0.97161 0.37718 0.28481 0.0
C6610 C 0.96304 0.37762 0.29266 0.0
C6611 C 0.94017 0.37969 0.31718 0.0
C6612 C 0.94779 0.37889 0.30853 0.0
H6613 H 0.99197 0.39084 0.27524 0.0
H6614 H 0.97674 0.39197 0.28681 0.0
H6615 H 0.96711 0.36382 0.2993 0.0
H6616 H 0.92353 0.36581 0.33155 0.0
H6617 H 0.93508 0.36477 0.31668 0.0
C6618 C 0.85503 0.73133 0.54849 0.0
C6619 C 0.85801 0.73207 0.53826 0.0
C6620 C 0.85292 0.7224 0.55282 0.0
C6621 C 0.85844 0.69649 0.54969 0.0
H6622 H 0.837 0.69446 0.57094 0.0
C6623 C 0.85051 0.66136 0.57242 0.0
C6624 C 0.85122 0.66272 0.58295 0.0
C6625 C 0.85001 0.66929 0.56591 0.0
C6626 C 0.84299 0.69492 0.565 0.0
H6627 H 0.86096 0.72397 0.5245 0.0
H6628 H 0.8571 0.70829 0.53207 0.0
H6629 H 0.8384 0.70929 0.5612 0.0
H6630 H 0.85157 0.67333 0.59497 0.0
H6631 H 0.85051 0.68716 0.58362 0.0
H6632 H 0.86303 0.68208 0.5536 0.0
C6633 C 0.85655 0.71465 0.53676 0.0
C6634 C 0.84384 0.70342 0.55944 0.0
C6635 C 0.85871 0.72364 0.53242 0.0
C6636 C 0.8511 0.6721 0.58687 0.0
C6637 C 0.85041 0.68 0.58039 0.0
C6638 C 0.8575 0.68793 0.55518 0.0
C6639 C 0.85365 0.71393 0.54704 0.0
C6640 C 0.8518 0.70443 0.55193 0.0
C6641 C 0.84998 0.67868 0.56985 0.0
C6642 C 0.84997 0.68717 0.56308 0.0
H6643 H 0.85446 0.73767 0.55324 0.0
H6644 H 0.85096 0.72213 0.56081 0.0
H6645 H 0.86472 0.69703 0.54402 0.0
H6646 H 0.85063 0.65418 0.56924 0.0
H6647 H 0.84966 0.6681 0.5578 0.0
C6648 C 0.51596 0.3712 0.72057 0.0
C6649 C 0.50788 0.37832 0.72071 0.0
C6650 C 0.52536 0.37252 0.71489 0.0
C6651 C 0.54169 0.39056 0.70096 0.0
H6652 H 0.54788 0.3691 0.68314 0.0
C6653 C 0.56589 0.39442 0.66381 0.0
C6654 C 0.57209 0.38659 0.66048 0.0
C6655 C 0.55963 0.39368 0.67258 0.0
C6656 C 0.54646 0.37511 0.68818 0.0
H6657 H 0.50367 0.39265 0.71554 0.0
H6658 H 0.52002 0.39492 0.70562 0.0
H6659 H 0.53431 0.36736 0.69624 0.0
H6660 H 0.57723 0.37208 0.66405 0.0
H6661 H 0.56654 0.37084 0.67947 0.0
H6662 H 0.55374 0.39836 0.69275 0.0
C6663 C 0.51912 0.38834 0.70991 0.0
C6664 C 0.53865 0.3741 0.69571 0.0
C6665 C 0.5097 0.387 0.71555 0.0
C6666 C 0.57237 0.37818 0.66636 0.0
C6667 C 0.56622 0.37746 0.67517 0.0
C6668 C 0.54957 0.39155 0.69345 0.0
C6669 C 0.5269 0.381 0.70928 0.0
C6670 C 0.53605 0.38185 0.70208 0.0
C6671 C 0.55954 0.38511 0.67825 0.0
C6672 C 0.55192 0.38388 0.68686 0.0
H6673 H 0.51485 0.36445 0.72451 0.0
H6674 H 0.5313 0.3668 0.71467 0.0
H6675 H 0.53994 0.39663 0.70583 0.0
H6676 H 0.56547 0.40097 0.65938 0.0
H6677 H 0.5545 0.39968 0.67465 0.0
C6678 C 0.85597 0.27799 0.95653 0.0
C6679 C 0.86215 0.27086 0.95169 0.0
C6680 C 0.85625 0.28751 0.95313 0.0
C6681 C 0.85982 0.30142 0.93035 0.0
H6682 H 0.86732 0.32307 0.94754 0.0
C6683 C 0.85661 0.34058 0.91653 0.0
C6684 C 0.86644 0.34558 0.91713 0.0
C6685 C 0.85526 0.33193 0.92177 0.0
C6686 C 0.86514 0.31708 0.9427 0.0
H6687 H 0.87351 0.26812 0.93954 0.0
H6688 H 0.87375 0.2847 0.93345 0.0
H6689 H 0.86679 0.30677 0.95472 0.0
H6690 H 0.88234 0.34582 0.92405 0.0
H6691 H 0.87988 0.33078 0.93341 0.0
H6692 H 0.85814 0.31166 0.91833 0.0
C6693 C 0.86879 0.28292 0.93993 0.0
C6694 C 0.86482 0.3078 0.9468 0.0
C6695 C 0.86869 0.27345 0.94345 0.0
C6696 C 0.8747 0.34206 0.92345 0.0
C6697 C 0.87328 0.33351 0.92883 0.0
C6698 C 0.85993 0.31069 0.92631 0.0
C6699 C 0.86253 0.29 0.94469 0.0
C6700 C 0.86231 0.29989 0.9406 0.0
C6701 C 0.86364 0.32825 0.92783 0.0
C6702 C 0.86272 0.31858 0.93241 0.0
H6703 H 0.85088 0.27619 0.96291 0.0
H6704 H 0.85133 0.29287 0.95689 0.0
H6705 H 0.85781 0.29542 0.92545 0.0
H6706 H 0.85015 0.34312 0.91165 0.0
H6707 H 0.84775 0.32801 0.92091 0.0
C6708 C 0.97768 0.62471 0.21588 0.0
C6709 C 0.98517 0.61727 0.2176 0.0
C6710 C 0.96926 0.62349 0.20892 0.0
C6711 C 0.95432 0.6057 0.19333 0.0
H6712 H 0.95335 0.62646 0.17376 0.0
C6713 C 0.93557 0.60152 0.15336 0.0
C6714 C 0.9305 0.60955 0.14899 0.0
C6715 C 0.94082 0.60231 0.16272 0.0
C6716 C 0.95332 0.62067 0.17924 0.0
H6717 H 0.98918 0.60248 0.21396 0.0
H6718 H 0.97451 0.60038 0.20179 0.0
H6719 H 0.96454 0.62804 0.1888 0.0
H6720 H 0.92641 0.62456 0.15119 0.0
H6721 H 0.93535 0.62592 0.1676 0.0
H6722 H 0.94317 0.59827 0.18365 0.0
C6723 C 0.97515 0.60715 0.20582 0.0
C6724 C 0.95975 0.62158 0.18788 0.0
C6725 C 0.98359 0.60837 0.21276 0.0
C6726 C 0.93044 0.6183 0.1543 0.0
C6727 C 0.93558 0.61907 0.16369 0.0
C6728 C 0.9478 0.6048 0.18469 0.0
C6729 C 0.96812 0.6148 0.20357 0.0
C6730 C 0.96043 0.61407 0.19496 0.0
C6731 C 0.94101 0.61114 0.16794 0.0
C6732 C 0.94733 0.61224 0.17748 0.0
H6733 H 0.97859 0.63163 0.21955 0.0
H6734 H 0.96385 0.62946 0.20746 0.0
H6735 H 0.95463 0.59982 0.1987 0.0
H6736 H 0.93577 0.5947 0.14938 0.0
H6737 H 0.94503 0.59609 0.16569 0.0
C6738 C 0.61122 0.71377 0.46233 0.0
C6739 C 0.62071 0.71921 0.46339 0.0
C6740 C 0.61173 0.70406 0.45962 0.0
C6741 C 0.6305 0.68324 0.45669 0.0
H6742 H 0.60976 0.67556 0.43615 0.0
C6743 C 0.62483 0.65303 0.4233 0.0
C6744 C 0.62749 0.64451 0.42845 0.0
C6745 C 0.62385 0.66169 0.42853 0.0
C6746 C 0.61564 0.67759 0.44186 0.0
H6747 H 0.63822 0.71865 0.46283 0.0
H6748 H 0.63912 0.7018 0.45787 0.0
H6749 H 0.60837 0.69138 0.44379 0.0
H6750 H 0.63144 0.63841 0.4431 0.0
H6751 H 0.62967 0.65363 0.45233 0.0
H6752 H 0.63804 0.66953 0.45437 0.0
C6753 C 0.63127 0.70496 0.45929 0.0
C6754 C 0.61475 0.68663 0.44636 0.0
C6755 C 0.63075 0.71465 0.46207 0.0
C6756 C 0.62941 0.64488 0.43894 0.0
C6757 C 0.6284 0.65358 0.44421 0.0
C6758 C 0.63142 0.67417 0.45215 0.0
C6759 C 0.62175 0.6996 0.45783 0.0
C6760 C 0.62225 0.68963 0.45373 0.0
C6761 C 0.62548 0.66206 0.43907 0.0
C6762 C 0.6241 0.67133 0.44454 0.0
H6763 H 0.60336 0.71705 0.4634 0.0
H6764 H 0.60425 0.7001 0.45877 0.0
H6765 H 0.63633 0.68527 0.46244 0.0
H6766 H 0.62355 0.65302 0.41518 0.0
H6767 H 0.62189 0.66812 0.42429 0.0
C6768 C 0.75778 0.52607 0.62675 0.0
C6769 C 0.75537 0.52056 0.61811 0.0
C6770 C 0.7634 0.53473 0.62589 0.0
C6771 C 0.7716 0.55364 0.60772 0.0
H6772 H 0.79488 0.55777 0.62699 0.0
C6773 C 0.80447 0.58296 0.60265 0.0
C6774 C 0.80819 0.58768 0.61141 0.0
C6775 C 0.79726 0.57524 0.60339 0.0
C6776 C 0.78831 0.55681 0.62163 0.0
H6777 H 0.75671 0.51997 0.60174 0.0
H6778 H 0.7666 0.53507 0.60024 0.0
H6779 H 0.78359 0.54354 0.62846 0.0
H6780 H 0.80684 0.58834 0.62776 0.0
H6781 H 0.79423 0.57497 0.62907 0.0
H6782 H 0.77642 0.56691 0.60086 0.0
C6783 C 0.76406 0.53272 0.60768 0.0
C6784 C 0.78184 0.54864 0.62248 0.0
C6785 C 0.75844 0.52404 0.60855 0.0
C6786 C 0.80428 0.58473 0.62089 0.0
C6787 C 0.79707 0.57706 0.62164 0.0
C6788 C 0.77809 0.56184 0.60688 0.0
C6789 C 0.76675 0.53809 0.61636 0.0
C6790 C 0.77341 0.54695 0.61553 0.0
C6791 C 0.7936 0.57211 0.61292 0.0
C6792 C 0.78653 0.56351 0.61383 0.0
H6793 H 0.75548 0.52361 0.63423 0.0
H6794 H 0.7652 0.53878 0.6327 0.0
H6795 H 0.76511 0.55258 0.60231 0.0
H6796 H 0.80741 0.58502 0.59524 0.0
H6797 H 0.79484 0.57153 0.59654 0.0
C6798 C 0.27832 0.98704 0.38571 0.0
C6799 C 0.27527 0.98962 0.37581 0.0
C6800 C 0.28374 0.97838 0.38755 0.0
C6801 C 0.28993 0.95463 0.37612 0.0
H6802 H 0.31479 0.95521 0.39409 0.0
C6803 C 0.32249 0.92506 0.37605 0.0
C6804 C 0.32693 0.92212 0.38536 0.0
C6805 C 0.3154 0.93286 0.37557 0.0
C6806 C 0.30777 0.95489 0.38917 0.0
H6807 H 0.27536 0.98505 0.36009 0.0
H6808 H 0.28488 0.97002 0.36327 0.0
H6809 H 0.30372 0.9696 0.39202 0.0
H6810 H 0.32734 0.92502 0.40149 0.0
H6811 H 0.31485 0.93865 0.40067 0.0
H6812 H 0.2941 0.93996 0.37313 0.0
C6813 C 0.28298 0.97462 0.36965 0.0
C6814 C 0.30142 0.96313 0.38799 0.0
C6815 C 0.27757 0.98327 0.36782 0.0
C6816 C 0.324 0.92709 0.39422 0.0
C6817 C 0.31693 0.93493 0.39373 0.0
C6818 C 0.29628 0.94639 0.37729 0.0
C6819 C 0.28623 0.97211 0.37952 0.0
C6820 C 0.29251 0.96314 0.38134 0.0
C6821 C 0.31258 0.93793 0.38438 0.0
C6822 C 0.30537 0.94646 0.38373 0.0
H6823 H 0.27665 0.99176 0.39204 0.0
H6824 H 0.28601 0.9766 0.39525 0.0
H6825 H 0.283 0.95433 0.37108 0.0
H6826 H 0.32447 0.9213 0.36911 0.0
H6827 H 0.3123 0.93504 0.36824 0.0
C6828 C 0.26945 0.04075 0.61932 0.0
C6829 C 0.26458 0.0382 0.61007 0.0
C6830 C 0.27972 0.04492 0.61951 0.0
C6831 C 0.29945 0.05774 0.60346 0.0
H6832 H 0.32005 0.0494 0.62387 0.0
C6833 C 0.34429 0.06874 0.60216 0.0
C6834 C 0.34901 0.07175 0.61133 0.0
C6835 C 0.33411 0.06441 0.60205 0.0
C6836 C 0.31436 0.05186 0.61818 0.0
H6837 H 0.26663 0.03811 0.59375 0.0
H6838 H 0.28459 0.04527 0.5941 0.0
H6839 H 0.30191 0.04252 0.6236 0.0
H6840 H 0.34676 0.07248 0.6276 0.0
H6841 H 0.32901 0.06486 0.62742 0.0
H6842 H 0.31191 0.06705 0.59803 0.0
C6843 C 0.28042 0.04417 0.6012 0.0
C6844 C 0.30396 0.04794 0.61803 0.0
C6845 C 0.27014 0.04002 0.60101 0.0
C6846 C 0.34342 0.07013 0.62042 0.0
C6847 C 0.33324 0.06578 0.62032 0.0
C6848 C 0.30985 0.06164 0.6036 0.0
C6849 C 0.28536 0.04662 0.61046 0.0
C6850 C 0.29639 0.05083 0.61067 0.0
C6851 C 0.32843 0.06297 0.61112 0.0
C6852 C 0.31742 0.05874 0.61095 0.0
H6853 H 0.26536 0.03949 0.62643 0.0
H6854 H 0.28323 0.04686 0.62676 0.0
H6855 H 0.29376 0.06024 0.59779 0.0
H6856 H 0.34847 0.06974 0.59504 0.0
H6857 H 0.3307 0.06217 0.59486 0.0
C6858 C 0.21335 0.01515 0.8889 0.0
C6859 C 0.21815 0.0127 0.87961 0.0
C6860 C 0.20879 0.02426 0.89034 0.0
C6861 C 0.1962 0.04339 0.87546 0.0
H6862 H 0.19662 0.05762 0.90074 0.0
C6863 C 0.17209 0.07833 0.87937 0.0
C6864 C 0.16609 0.07944 0.88829 0.0
C6865 C 0.18008 0.07127 0.87869 0.0
C6866 C 0.19637 0.0537 0.89365 0.0
H6867 H 0.22252 0.0181 0.86476 0.0
H6868 H 0.21461 0.03399 0.86729 0.0
H6869 H 0.20789 0.04327 0.89888 0.0
H6870 H 0.16399 0.07434 0.90365 0.0
H6871 H 0.1778 0.06181 0.90243 0.0
H6872 H 0.18446 0.05352 0.8703 0.0
C6873 C 0.21423 0.02881 0.87341 0.0
C6874 C 0.20285 0.0455 0.89258 0.0
C6875 C 0.2188 0.01972 0.87198 0.0
C6876 C 0.16855 0.07365 0.8967 0.0
C6877 C 0.17648 0.0665 0.89599 0.0
C6878 C 0.18971 0.05153 0.87654 0.0
C6879 C 0.20892 0.03109 0.8825 0.0
C6880 C 0.20276 0.04022 0.88349 0.0
C6881 C 0.18216 0.06507 0.88689 0.0
C6882 C 0.18964 0.05676 0.88566 0.0
H6883 H 0.21275 0.00993 0.89495 0.0
H6884 H 0.20471 0.02576 0.89741 0.0
H6885 H 0.19577 0.03938 0.86843 0.0
H6886 H 0.17047 0.08282 0.87283 0.0
H6887 H 0.18448 0.07055 0.87165 0.0
C6888 C 0.70382 0.48078 0.60175 0.0
C6889 C 0.7116 0.47593 0.59591 0.0
C6890 C 0.6932 0.47734 0.60227 0.0
C6891 C 0.67404 0.46004 0.59017 0.0
H6892 H 0.66174 0.45848 0.6171 0.0
C6893 C 0.64369 0.43108 0.60183 0.0
C6894 C 0.63467 0.43372 0.60768 0.0
C6895 C 0.65177 0.43773 0.59965 0.0
C6896 C 0.66497 0.45901 0.60951 0.0
H6897 H 0.71421 0.4639 0.58574 0.0
H6898 H 0.69588 0.45784 0.58679 0.0
H6899 H 0.6783 0.46764 0.61444 0.0
H6900 H 0.62713 0.44556 0.61575 0.0
H6901 H 0.64154 0.45711 0.61219 0.0
H6902 H 0.66099 0.45098 0.58538 0.0
C6903 C 0.69786 0.46437 0.59086 0.0
C6904 C 0.67445 0.46428 0.60796 0.0
C6905 C 0.70843 0.46781 0.59031 0.0
C6906 C 0.634 0.44322 0.61133 0.0
C6907 C 0.64221 0.44986 0.60925 0.0
C6908 C 0.66463 0.45471 0.59174 0.0
C6909 C 0.69015 0.46899 0.59697 0.0
C6910 C 0.67926 0.46463 0.59832 0.0
C6911 C 0.65116 0.44717 0.60338 0.0
C6912 C 0.66017 0.45394 0.60147 0.0
H6913 H 0.70599 0.48709 0.60612 0.0
H6914 H 0.68743 0.48115 0.60694 0.0
H6915 H 0.67737 0.46034 0.5826 0.0
H6916 H 0.64468 0.42379 0.59912 0.0
H6917 H 0.65869 0.4354 0.59528 0.0
C6918 C 0.70249 0.46799 0.09753 0.0
C6919 C 0.70607 0.46944 0.10753 0.0
C6920 C 0.69468 0.46101 0.09536 0.0
C6921 C 0.68213 0.43907 0.10583 0.0
H6922 H 0.65812 0.4455 0.0881 0.0
C6923 C 0.64258 0.41769 0.10574 0.0
C6924 C 0.63747 0.41578 0.09644 0.0
C6925 C 0.65152 0.42376 0.10623 0.0
C6926 C 0.66486 0.44354 0.09294 0.0
H6927 H 0.7043 0.4647 0.12309 0.0
H6928 H 0.69064 0.45263 0.11933 0.0
H6929 H 0.67277 0.45704 0.09057 0.0
H6930 H 0.63776 0.41869 0.08031 0.0
H6931 H 0.65351 0.42935 0.08115 0.0
H6932 H 0.67414 0.42565 0.10836 0.0
C6933 C 0.69396 0.45678 0.11314 0.0
C6934 C 0.67325 0.45015 0.09436 0.0
C6935 C 0.70174 0.46375 0.1153 0.0
C6936 C 0.64157 0.42002 0.08758 0.0
C6937 C 0.65051 0.42616 0.08808 0.0
C6938 C 0.67376 0.43248 0.10442 0.0
C6939 C 0.69033 0.45533 0.10315 0.0
C6940 C 0.68187 0.44805 0.10097 0.0
C6941 C 0.65558 0.42808 0.09741 0.0
C6942 C 0.66493 0.43472 0.09811 0.0
H6943 H 0.70568 0.47225 0.09137 0.0
H6944 H 0.6921 0.46001 0.08758 0.0
H6945 H 0.68877 0.43715 0.1108 0.0
H6946 H 0.6397 0.41442 0.11268 0.0
H6947 H 0.65515 0.42519 0.11355 0.0
C6948 C 0.27399 0.96766 0.8866 0.0
C6949 C 0.26762 0.97026 0.8782 0.0
C6950 C 0.28421 0.96359 0.88524 0.0
C6951 C 0.30588 0.95977 0.86616 0.0
H6952 H 0.31361 0.93846 0.8837 0.0
C6953 C 0.34084 0.9332 0.85769 0.0
C6954 C 0.34727 0.93021 0.86592 0.0
C6955 C 0.33168 0.93891 0.85928 0.0
C6956 C 0.31164 0.94448 0.87882 0.0
H6957 H 0.26707 0.97075 0.86178 0.0
H6958 H 0.28479 0.96346 0.85941 0.0
H6959 H 0.29661 0.94689 0.88632 0.0
H6960 H 0.34939 0.93127 0.8822 0.0
H6961 H 0.33336 0.94112 0.88496 0.0
H6962 H 0.32086 0.95715 0.85852 0.0
C6963 C 0.28199 0.96473 0.86706 0.0
C6964 C 0.30189 0.94933 0.88034 0.0
C6965 C 0.27179 0.96886 0.86841 0.0
C6966 C 0.34449 0.93328 0.87572 0.0
C6967 C 0.33532 0.93893 0.87731 0.0
C6968 C 0.31562 0.95486 0.86461 0.0
C6969 C 0.28829 0.96194 0.87546 0.0
C6970 C 0.29886 0.95702 0.87401 0.0
C6971 C 0.32873 0.94171 0.86913 0.0
C6972 C 0.31858 0.94715 0.87091 0.0
H6973 H 0.27105 0.96871 0.89424 0.0
H6974 H 0.28892 0.9617 0.89189 0.0
H6975 H 0.30389 0.96574 0.86124 0.0
H6976 H 0.34266 0.93088 0.85006 0.0
H6977 H 0.3267 0.94085 0.85283 0.0
C6978 C 0.22628 0.04535 0.38456 0.0
C6979 C 0.22685 0.03649 0.37946 0.0
C6980 C 0.21751 0.0515 0.38304 0.0
C6981 C 0.18936 0.0531 0.37482 0.0
H6982 H 0.19698 0.07921 0.3674 0.0
C6983 C 0.15722 0.08109 0.36229 0.0
C6984 C 0.15879 0.09069 0.36531 0.0
C6985 C 0.16528 0.07418 0.36392 0.0
C6986 C 0.19467 0.072 0.36962 0.0
H6987 H 0.21837 0.02692 0.36916 0.0
H6988 H 0.20289 0.03767 0.36666 0.0
H6989 H 0.21118 0.06757 0.37093 0.0
H6990 H 0.17019 0.10053 0.37236 0.0
H6991 H 0.18391 0.08847 0.37564 0.0
H6992 H 0.17284 0.05758 0.37378 0.0
C6993 C 0.20932 0.03984 0.37176 0.0
C6994 C 0.20283 0.06533 0.37159 0.0
C6995 C 0.21819 0.03371 0.37317 0.0
C6996 C 0.16859 0.09319 0.37005 0.0
C6997 C 0.17657 0.08628 0.37179 0.0
C6998 C 0.18116 0.05983 0.37298 0.0
C6999 C 0.20904 0.04889 0.37649 0.0
C7000 C 0.20026 0.05583 0.37426 0.0
C7001 C 0.17506 0.07669 0.36869 0.0
C7002 C 0.18372 0.0694 0.37041 0.0
H7003 H 0.23278 0.04772 0.38947 0.0
H7004 H 0.21742 0.05839 0.38688 0.0
H7005 H 0.18718 0.04583 0.3769 0.0
H7006 H 0.14973 0.07886 0.35874 0.0
H7007 H 0.16386 0.0669 0.36132 0.0
C7008 C 0.3784 0.21103 0.46729 0.0
C7009 C 0.38624 0.21821 0.46872 0.0
C7010 C 0.37555 0.20802 0.45756 0.0
C7011 C 0.38678 0.2068 0.43184 0.0
H7012 H 0.35847 0.1963 0.4257 0.0
C7013 C 0.37763 0.18616 0.39469 0.0
C7014 C 0.37326 0.17696 0.39639 0.0
C7015 C 0.37799 0.19297 0.40249 0.0
C7016 C 0.36639 0.19925 0.4273 0.0
H7017 H 0.39678 0.22827 0.46103 0.0
H7018 H 0.39163 0.22313 0.44398 0.0
H7019 H 0.36116 0.20554 0.44123 0.0
H7020 H 0.36569 0.16783 0.40767 0.0
H7021 H 0.36604 0.17977 0.42109 0.0
H7022 H 0.39201 0.20035 0.41796 0.0
C7023 C 0.38787 0.21968 0.45041 0.0
C7024 C 0.36796 0.20451 0.4362 0.0
C7025 C 0.39077 0.22266 0.46018 0.0
C7026 C 0.36891 0.17488 0.40597 0.0
C7027 C 0.36914 0.18172 0.41371 0.0
C7028 C 0.38517 0.20163 0.42288 0.0
C7029 C 0.38039 0.21217 0.44899 0.0
C7030 C 0.37826 0.20806 0.43876 0.0
C7031 C 0.37383 0.19077 0.4121 0.0
C7032 C 0.37505 0.19755 0.42069 0.0
H7033 H 0.37473 0.20745 0.47369 0.0
H7034 H 0.36989 0.20212 0.45681 0.0
H7035 H 0.39485 0.20932 0.4336 0.0
H7036 H 0.38087 0.1881 0.38736 0.0
H7037 H 0.38159 0.19993 0.40105 0.0
C7038 C 0.53286 0.61505 0.22988 0.0
C7039 C 0.53054 0.62327 0.23568 0.0
C7040 C 0.54081 0.61533 0.22239 0.0
C7041 C 0.56534 0.62851 0.21514 0.0
H7042 H 0.56109 0.61614 0.18909 0.0
C7043 C 0.60021 0.62249 0.1868 0.0
C7044 C 0.59799 0.62451 0.17658 0.0
C7045 C 0.59188 0.62238 0.19393 0.0
C7046 C 0.56238 0.61967 0.19631 0.0
H7047 H 0.53461 0.63828 0.23804 0.0
H7048 H 0.54847 0.63876 0.22495 0.0
H7049 H 0.54649 0.6161 0.2015 0.0
H7050 H 0.58528 0.62785 0.16578 0.0
H7051 H 0.57076 0.62774 0.17823 0.0
H7052 H 0.58119 0.63214 0.20994 0.0
C7053 C 0.54421 0.63208 0.22626 0.0
C7054 C 0.55405 0.61957 0.20345 0.0
C7055 C 0.53622 0.63182 0.23371 0.0
C7056 C 0.58726 0.62636 0.17362 0.0
C7057 C 0.57893 0.62621 0.18073 0.0
C7058 C 0.57368 0.62856 0.20804 0.0
C7059 C 0.54666 0.62382 0.22057 0.0
C7060 C 0.55544 0.624 0.21294 0.0
C7061 C 0.58115 0.62424 0.19097 0.0
C7062 C 0.57229 0.62415 0.19854 0.0
H7063 H 0.52864 0.60835 0.23121 0.0
H7064 H 0.54258 0.60883 0.21819 0.0
H7065 H 0.5667 0.6319 0.22243 0.0
H7066 H 0.6084 0.6211 0.18932 0.0
H7067 H 0.59383 0.62076 0.20175 0.0
C7068 C 0.10271 0.79575 0.96957 0.0
C7069 C 0.09754 0.78688 0.97113 0.0
C7070 C 0.10336 0.79969 0.95988 0.0
C7071 C 0.10227 0.79455 0.93272 0.0
H7072 H 0.09382 0.82136 0.93089 0.0
C7073 C 0.0997 0.81547 0.89455 0.0
C7074 C 0.10354 0.82499 0.89473 0.0
C7075 C 0.09865 0.81023 0.90356 0.0
C7076 C 0.09632 0.8139 0.93127 0.0
H7077 H 0.08945 0.77497 0.96367 0.0
H7078 H 0.09071 0.78189 0.94663 0.0
H7079 H 0.09296 0.81314 0.94711 0.0
H7080 H 0.10917 0.83648 0.90457 0.0
H7081 H 0.10771 0.82731 0.9201 0.0
H7082 H 0.10586 0.7954 0.91686 0.0
C7083 C 0.09419 0.78577 0.95297 0.0
C7084 C 0.0958 0.80919 0.94056 0.0
C7085 C 0.09345 0.78184 0.96271 0.0
C7086 C 0.10635 0.82912 0.9041 0.0
C7087 C 0.10535 0.8239 0.91305 0.0
C7088 C 0.10288 0.7993 0.92338 0.0
C7089 C 0.09893 0.79484 0.95151 0.0
C7090 C 0.09893 0.79952 0.94143 0.0
C7091 C 0.10139 0.81443 0.91292 0.0
C7092 C 0.10008 0.80909 0.9226 0.0
H7093 H 0.10602 0.7998 0.97586 0.0
H7094 H 0.10723 0.80662 0.95895 0.0
H7095 H 0.10474 0.78709 0.9332 0.0
H7096 H 0.09755 0.81205 0.88746 0.0
H7097 H 0.09553 0.80297 0.90321 0.0
C7098 C 0.96114 0.34789 0.725 0.0
C7099 C 0.96637 0.3561 0.72885 0.0
C7100 C 0.95427 0.34859 0.7166 0.0
C7101 C 0.94513 0.3515 0.69529 0.0
H7102 H 0.9248 0.37273 0.69411 0.0
C7103 C 0.92027 0.36062 0.6594 0.0
C7104 C 0.90933 0.36306 0.66075 0.0
C7105 C 0.92715 0.35953 0.66774 0.0
C7106 C 0.93038 0.36673 0.69436 0.0
H7107 H 0.96857 0.37146 0.72682 0.0
H7108 H 0.95659 0.37265 0.71216 0.0
H7109 H 0.93701 0.37124 0.70859 0.0
H7110 H 0.89703 0.3661 0.67199 0.0
H7111 H 0.90909 0.36431 0.68653 0.0
H7112 H 0.93844 0.34695 0.68108 0.0
C7113 C 0.95774 0.3657 0.71569 0.0
C7114 C 0.93745 0.36593 0.7026 0.0
C7115 C 0.96465 0.365 0.72405 0.0
C7116 C 0.90545 0.36437 0.67066 0.0
C7117 C 0.91235 0.36333 0.679 0.0
C7118 C 0.93811 0.35233 0.68702 0.0
C7119 C 0.95243 0.35751 0.7119 0.0
C7120 C 0.94491 0.35832 0.70315 0.0
C7121 C 0.92328 0.36091 0.67762 0.0
C7122 C 0.93066 0.35995 0.68646 0.0
H7123 H 0.96229 0.34094 0.72853 0.0
H7124 H 0.95023 0.34217 0.7139 0.0
H7125 H 0.95084 0.34559 0.69547 0.0
H7126 H 0.92359 0.35972 0.65188 0.0
H7127 H 0.93557 0.3578 0.66643 0.0
C7128 C 0.36643 0.78214 0.02044 0.0
C7129 C 0.36175 0.78686 0.01209 0.0
C7130 C 0.36415 0.78517 0.03032 0.0
C7131 C 0.34585 0.80119 0.04529 0.0
H7132 H 0.3709 0.80391 0.06281 0.0
C7133 C 0.34986 0.83035 0.07579 0.0
C7134 C 0.35397 0.8278 0.08537 0.0
C7135 C 0.34961 0.82368 0.06789 0.0
C7136 C 0.36379 0.80304 0.05808 0.0
H7137 H 0.3506 0.79814 0.00758 0.0
H7138 H 0.34686 0.80354 0.02465 0.0
H7139 H 0.37248 0.79497 0.04699 0.0
H7140 H 0.36085 0.81605 0.09414 0.0
H7141 H 0.36079 0.80452 0.08014 0.0
H7142 H 0.33738 0.80979 0.05615 0.0
C7143 C 0.35214 0.7974 0.02367 0.0
C7144 C 0.36467 0.79789 0.04902 0.0
C7145 C 0.35437 0.79435 0.01384 0.0
C7146 C 0.35779 0.81835 0.08684 0.0
C7147 C 0.35769 0.81171 0.07886 0.0
C7148 C 0.34502 0.80644 0.05428 0.0
C7149 C 0.35717 0.793 0.03204 0.0
C7150 C 0.35579 0.79713 0.04237 0.0
C7151 C 0.35362 0.81434 0.06931 0.0
C7152 C 0.35405 0.80762 0.06062 0.0
H7153 H 0.3721 0.7763 0.01935 0.0
H7154 H 0.36803 0.78151 0.03659 0.0
H7155 H 0.33877 0.80056 0.04049 0.0
H7156 H 0.34711 0.83759 0.07425 0.0
H7157 H 0.34661 0.82595 0.06055 0.0
C7158 C 0.95367 0.62434 0.75997 0.0
C7159 C 0.95391 0.62945 0.7508 0.0
C7160 C 0.94804 0.62794 0.76829 0.0
C7161 C 0.92603 0.64457 0.77513 0.0
H7162 H 0.93719 0.64048 0.80229 0.0
C7163 C 0.90278 0.65657 0.811 0.0
C7164 C 0.90167 0.6493 0.81831 0.0
C7165 C 0.91004 0.65545 0.80298 0.0
C7166 C 0.93398 0.64167 0.79475 0.0
H7167 H 0.94851 0.64243 0.7432 0.0
H7168 H 0.93875 0.64879 0.7578 0.0
H7169 H 0.94824 0.63616 0.78772 0.0
H7170 H 0.90758 0.63539 0.82324 0.0
H7171 H 0.92025 0.63345 0.80929 0.0
H7172 H 0.91171 0.64998 0.78221 0.0
C7173 C 0.94282 0.64193 0.75851 0.0
C7174 C 0.94028 0.63917 0.7864 0.0
C7175 C 0.94844 0.6383 0.75015 0.0
C7176 C 0.90821 0.64107 0.81766 0.0
C7177 C 0.91553 0.64 0.80973 0.0
C7178 C 0.91975 0.64713 0.78349 0.0
C7179 C 0.94254 0.63677 0.76767 0.0
C7180 C 0.93629 0.64038 0.77649 0.0
C7181 C 0.91642 0.64711 0.80222 0.0
C7182 C 0.92357 0.6455 0.79339 0.0
H7183 H 0.95776 0.61748 0.76072 0.0
H7184 H 0.94783 0.62369 0.77515 0.0
H7185 H 0.92266 0.64551 0.76761 0.0
H7186 H 0.89779 0.66296 0.8113 0.0
H7187 H 0.91061 0.66107 0.79732 0.0
C7188 C 0.09561 0.19942 0.5289 0.0
C7189 C 0.09926 0.20886 0.52724 0.0
C7190 C 0.09878 0.1944 0.53758 0.0
C7191 C 0.10589 0.19712 0.56371 0.0
H7192 H 0.12052 0.17257 0.56123 0.0
C7193 C 0.11902 0.17546 0.59909 0.0
C7194 C 0.11844 0.1654 0.59847 0.0
C7195 C 0.11757 0.1811 0.59041 0.0
C7196 C 0.11629 0.17934 0.56209 0.0
H7197 H 0.10894 0.22048 0.5334 0.0
H7198 H 0.11416 0.21174 0.54881 0.0
H7199 H 0.116 0.18171 0.54604 0.0
H7200 H 0.11568 0.15333 0.58844 0.0
H7201 H 0.11263 0.16309 0.57343 0.0
H7202 H 0.10559 0.19461 0.57966 0.0
C7203 C 0.109 0.20824 0.54328 0.0
C7204 C 0.11379 0.18459 0.55338 0.0
C7205 C 0.10605 0.2132 0.53448 0.0
C7206 C 0.11631 0.16108 0.58907 0.0
C7207 C 0.11465 0.1667 0.58046 0.0
C7208 C 0.10817 0.19177 0.57243 0.0
C7209 C 0.10543 0.19879 0.54486 0.0
C7210 C 0.10853 0.19349 0.55412 0.0
C7211 C 0.11528 0.1768 0.58097 0.0
C7212 C 0.11333 0.18276 0.57174 0.0
H7213 H 0.0904 0.19589 0.52344 0.0
H7214 H 0.09589 0.18712 0.53868 0.0
H7215 H 0.10175 0.20395 0.56442 0.0
H7216 H 0.12071 0.17894 0.60627 0.0
H7217 H 0.11831 0.18883 0.59112 0.0
C7218 C 0.5175 0.37114 0.26568 0.0
C7219 C 0.51407 0.38018 0.26215 0.0
C7220 C 0.52492 0.37044 0.27365 0.0
C7221 C 0.546 0.38435 0.28709 0.0
H7222 H 0.5431 0.36431 0.30731 0.0
C7223 C 0.57367 0.38207 0.32245 0.0
C7224 C 0.57753 0.37288 0.32508 0.0
C7225 C 0.5657 0.38315 0.315 0.0
C7226 C 0.54407 0.36989 0.30167 0.0
H7227 H 0.51561 0.39558 0.26436 0.0
H7228 H 0.52843 0.39435 0.27838 0.0
H7229 H 0.52947 0.36589 0.29402 0.0
H7230 H 0.57612 0.35764 0.3218 0.0
H7231 H 0.56218 0.35953 0.30887 0.0
H7232 H 0.56061 0.38834 0.29476 0.0
C7233 C 0.52552 0.3878 0.27487 0.0
C7234 C 0.53627 0.3708 0.29405 0.0
C7235 C 0.51812 0.3885 0.26687 0.0
C7236 C 0.57321 0.36481 0.32009 0.0
C7237 C 0.56522 0.36589 0.31267 0.0
C7238 C 0.55379 0.38346 0.29474 0.0
C7239 C 0.52906 0.37876 0.27832 0.0
C7240 C 0.53717 0.378 0.28663 0.0
C7241 C 0.56138 0.37507 0.31003 0.0
C7242 C 0.55294 0.37618 0.30208 0.0
H7243 H 0.51457 0.36459 0.26219 0.0
H7244 H 0.52758 0.36337 0.27602 0.0
H7245 H 0.54705 0.38988 0.28141 0.0
H7246 H 0.5767 0.38843 0.32625 0.0
H7247 H 0.56281 0.39031 0.31322 0.0
C7248 C 0.43782 0.36976 0.21974 0.0
C7249 C 0.44651 0.36382 0.21692 0.0
C7250 C 0.42739 0.36795 0.21604 0.0
C7251 C 0.41477 0.35825 0.19357 0.0
H7252 H 0.38801 0.35741 0.20874 0.0
C7253 C 0.37524 0.34884 0.17353 0.0
C7254 C 0.36578 0.35382 0.17623 0.0
C7255 C 0.38456 0.3495 0.17944 0.0
C7256 C 0.3954 0.35775 0.20438 0.0
H7257 H 0.45093 0.35097 0.20854 0.0
H7258 H 0.43283 0.34794 0.20202 0.0
H7259 H 0.40523 0.35964 0.2177 0.0
H7260 H 0.35871 0.36314 0.18764 0.0
H7261 H 0.37519 0.36473 0.19765 0.0
H7262 H 0.40516 0.35675 0.18025 0.0
C7263 C 0.43409 0.35401 0.20704 0.0
C7264 C 0.40523 0.35898 0.20953 0.0
C7265 C 0.44445 0.35574 0.2108 0.0
C7266 C 0.36587 0.35933 0.18519 0.0
C7267 C 0.3753 0.36013 0.19103 0.0
C7268 C 0.40499 0.35717 0.18844 0.0
C7269 C 0.42553 0.36023 0.20939 0.0
C7270 C 0.41501 0.35911 0.20416 0.0
C7271 C 0.38483 0.35536 0.18812 0.0
C7272 C 0.39517 0.35676 0.19376 0.0
H7273 H 0.43913 0.37601 0.22448 0.0
H7274 H 0.4209 0.37286 0.21795 0.0
H7275 H 0.42218 0.35854 0.18923 0.0
H7276 H 0.37563 0.34464 0.16663 0.0
H7277 H 0.39164 0.34552 0.17707 0.0
C7278 C 0.37029 0.73476 0.94938 0.0
C7279 C 0.36317 0.74196 0.95272 0.0
C7280 C 0.36667 0.72746 0.94293 0.0
C7281 C 0.34527 0.72186 0.92437 0.0
H7282 H 0.35534 0.69567 0.92801 0.0
C7283 C 0.34065 0.69249 0.89364 0.0
C7284 C 0.33819 0.6831 0.89683 0.0
C7285 C 0.34284 0.69971 0.90072 0.0
C7286 C 0.35236 0.70293 0.92694 0.0
H7287 H 0.34661 0.74709 0.952 0.0
H7288 H 0.34028 0.7343 0.94079 0.0
H7289 H 0.36072 0.70803 0.94011 0.0
H7290 H 0.33599 0.67399 0.90999 0.0
H7291 H 0.33961 0.68663 0.92234 0.0
H7292 H 0.33685 0.71673 0.91124 0.0
C7293 C 0.34869 0.73436 0.94308 0.0
C7294 C 0.35555 0.71003 0.93381 0.0
C7295 C 0.35231 0.74165 0.94955 0.0
C7296 C 0.33774 0.68116 0.90727 0.0
C7297 C 0.33995 0.68838 0.91435 0.0
C7298 C 0.3421 0.71476 0.91749 0.0
C7299 C 0.35584 0.72721 0.93966 0.0
C7300 C 0.3521 0.71959 0.93257 0.0
C7301 C 0.34265 0.69771 0.91115 0.0
C7302 C 0.34566 0.70522 0.91866 0.0
H7303 H 0.37871 0.7348 0.95166 0.0
H7304 H 0.37241 0.72213 0.94034 0.0
H7305 H 0.34256 0.72918 0.92315 0.0
H7306 H 0.34095 0.69424 0.88565 0.0
H7307 H 0.34498 0.70681 0.898 0.0
C7308 C 0.03741 0.59906 0.69413 0.0
C7309 C 0.03183 0.60639 0.69925 0.0
C7310 C 0.04747 0.60086 0.68976 0.0
C7311 C 0.065 0.62052 0.68066 0.0
H7312 H 0.08769 0.60142 0.68338 0.0
C7313 C 0.10901 0.62784 0.66835 0.0
C7314 C 0.11432 0.62041 0.66312 0.0
C7315 C 0.09903 0.6262 0.67296 0.0
C7316 C 0.08141 0.60679 0.68247 0.0
H7317 H 0.0324 0.62139 0.70373 0.0
H7318 H 0.05 0.62452 0.69618 0.0
H7319 H 0.07005 0.59845 0.69091 0.0
H7320 H 0.11322 0.60546 0.65854 0.0
H7321 H 0.09584 0.6026 0.6666 0.0
H7322 H 0.07638 0.62885 0.67221 0.0
C7323 C 0.04655 0.6174 0.69545 0.0
C7324 C 0.0713 0.60508 0.68677 0.0
C7325 C 0.03648 0.61559 0.69982 0.0
C7326 C 0.10944 0.61129 0.66266 0.0
C7327 C 0.09947 0.60965 0.66727 0.0
C7328 C 0.07513 0.62223 0.67636 0.0
C7329 C 0.05218 0.61004 0.69041 0.0
C7330 C 0.06296 0.61191 0.68589 0.0
C7331 C 0.09413 0.6171 0.67244 0.0
C7332 C 0.08343 0.61537 0.67719 0.0
H7333 H 0.03404 0.59189 0.69352 0.0
H7334 H 0.05153 0.59508 0.6858 0.0
H7335 H 0.05871 0.62587 0.67972 0.0
H7336 H 0.11262 0.63491 0.66896 0.0
H7337 H 0.09519 0.63205 0.67701 0.0
C7338 C 0.10941 0.26113 0.43742 0.0
C7339 C 0.11697 0.25659 0.4438 0.0
C7340 C 0.11273 0.26808 0.43046 0.0
C7341 C 0.13477 0.2852 0.42526 0.0
H7342 H 0.12153 0.28623 0.39861 0.0
C7343 C 0.14821 0.31218 0.39428 0.0
C7344 C 0.13987 0.3167 0.38878 0.0
C7345 C 0.14592 0.30456 0.40085 0.0
C7346 C 0.12525 0.28608 0.40605 0.0
H7347 H 0.13397 0.25573 0.44778 0.0
H7348 H 0.13977 0.26781 0.43555 0.0
H7349 H 0.11669 0.27333 0.41022 0.0
H7350 H 0.12256 0.3169 0.3861 0.0
H7351 H 0.11859 0.30361 0.39747 0.0
H7352 H 0.14327 0.298 0.42108 0.0
C7353 C 0.13126 0.26607 0.43603 0.0
C7354 C 0.12247 0.27869 0.41271 0.0
C7355 C 0.12794 0.2591 0.443 0.0
C7356 C 0.1292 0.31346 0.39005 0.0
C7357 C 0.12692 0.30584 0.39658 0.0
C7358 C 0.13756 0.29259 0.41859 0.0
C7359 C 0.12368 0.27066 0.4297 0.0
C7360 C 0.1271 0.27822 0.42244 0.0
C7361 C 0.13525 0.30128 0.40203 0.0
C7362 C 0.13273 0.29317 0.40895 0.0
H7363 H 0.10089 0.25939 0.43786 0.0
H7364 H 0.10665 0.27157 0.42581 0.0
H7365 H 0.13839 0.28511 0.43274 0.0
H7366 H 0.15653 0.31443 0.39339 0.0
H7367 H 0.15252 0.30114 0.40487 0.0
C7368 C 0.46369 0.61112 0.26968 0.0
C7369 C 0.46851 0.60212 0.27149 0.0
C7370 C 0.45325 0.61307 0.27316 0.0
C7371 C 0.42846 0.60163 0.28355 0.0
H7372 H 0.42535 0.6258 0.29791 0.0
C7373 C 0.39588 0.60793 0.31387 0.0
C7374 C 0.3909 0.61701 0.31443 0.0
C7375 C 0.40443 0.60632 0.30719 0.0
C7376 C 0.426 0.61909 0.29378 0.0
H7377 H 0.46593 0.58796 0.27792 0.0
H7378 H 0.44784 0.59138 0.28407 0.0
H7379 H 0.44181 0.62258 0.28844 0.0
H7380 H 0.39081 0.63143 0.30818 0.0
H7381 H 0.40582 0.62862 0.29657 0.0
H7382 H 0.41275 0.59804 0.28915 0.0
C7383 C 0.45205 0.59692 0.27989 0.0
C7384 C 0.43544 0.61724 0.28834 0.0
C7385 C 0.46247 0.59498 0.27642 0.0
C7386 C 0.39458 0.6244 0.30805 0.0
C7387 C 0.40316 0.62279 0.30138 0.0
C7388 C 0.41903 0.60347 0.28901 0.0
C7389 C 0.4474 0.60606 0.27852 0.0
C7390 C 0.43687 0.60842 0.28331 0.0
C7391 C 0.40823 0.61375 0.30094 0.0
C7392 C 0.41777 0.61215 0.29434 0.0
H7393 H 0.4681 0.61677 0.26585 0.0
H7394 H 0.44983 0.62013 0.27184 0.0
H7395 H 0.42923 0.59482 0.27962 0.0
H7396 H 0.39338 0.60212 0.31879 0.0
H7397 H 0.40828 0.59932 0.30717 0.0
C7398 C 0.09888 0.7317 0.03601 0.0
C7399 C 0.10644 0.73775 0.0313 0.0
C7400 C 0.10228 0.72461 0.04281 0.0
C7401 C 0.12508 0.71812 0.0596 0.0
H7402 H 0.11112 0.69318 0.05995 0.0
C7403 C 0.13027 0.67827 0.07929 0.0
C7404 C 0.13222 0.68096 0.0894 0.0
C7405 C 0.12751 0.68515 0.07203 0.0
C7406 C 0.11518 0.70007 0.0599 0.0
H7407 H 0.12352 0.74099 0.02991 0.0
H7408 H 0.12946 0.72853 0.04168 0.0
H7409 H 0.10574 0.70504 0.04734 0.0
H7410 H 0.13298 0.69305 0.09976 0.0
H7411 H 0.12794 0.70506 0.08712 0.0
H7412 H 0.13465 0.71309 0.07207 0.0
C7413 C 0.12089 0.72936 0.04023 0.0
C7414 C 0.112 0.70692 0.05274 0.0
C7415 C 0.11749 0.73646 0.03343 0.0
C7416 C 0.13143 0.69072 0.09206 0.0
C7417 C 0.12866 0.69762 0.08479 0.0
C7418 C 0.12827 0.71127 0.06676 0.0
C7419 C 0.11332 0.7234 0.04506 0.0
C7420 C 0.11689 0.71604 0.05252 0.0
C7421 C 0.1266 0.6949 0.0747 0.0
C7422 C 0.12333 0.70217 0.06702 0.0
H7423 H 0.09031 0.73252 0.03456 0.0
H7424 H 0.09623 0.72022 0.04648 0.0
H7425 H 0.12894 0.72511 0.05971 0.0
H7426 H 0.13066 0.6708 0.077 0.0
H7427 H 0.1261 0.68283 0.0643 0.0
C7428 C 0.02976 0.37374 0.75939 0.0
C7429 C 0.02443 0.365 0.75747 0.0
C7430 C 0.04055 0.37382 0.76256 0.0
C7431 C 0.06532 0.35889 0.76515 0.0
H7432 H 0.07043 0.37493 0.78872 0.0
C7433 C 0.10124 0.35319 0.79267 0.0
C7434 C 0.10594 0.36131 0.79726 0.0
C7435 C 0.09216 0.35413 0.78641 0.0
C7436 C 0.06924 0.37054 0.78203 0.0
H7437 H 0.02647 0.34951 0.75678 0.0
H7438 H 0.04525 0.34965 0.76239 0.0
H7439 H 0.05315 0.37579 0.77998 0.0
H7440 H 0.1049 0.37684 0.79861 0.0
H7441 H 0.08932 0.3785 0.78747 0.0
H7442 H 0.08139 0.35352 0.76735 0.0
C7443 C 0.04111 0.35645 0.7614 0.0
C7444 C 0.05931 0.37103 0.77701 0.0
C7445 C 0.03032 0.35637 0.75823 0.0
C7446 C 0.10157 0.37043 0.79514 0.0
C7447 C 0.09253 0.37138 0.78885 0.0
C7448 C 0.07529 0.35841 0.77016 0.0
C7449 C 0.04625 0.36516 0.76387 0.0
C7450 C 0.05718 0.36514 0.76858 0.0
C7451 C 0.08759 0.36323 0.78457 0.0
C7452 C 0.07732 0.36416 0.77874 0.0
H7453 H 0.0255 0.38052 0.75879 0.0
H7454 H 0.04434 0.38065 0.76423 0.0
H7455 H 0.06396 0.35433 0.75861 0.0
H7456 H 0.10449 0.34607 0.79403 0.0
H7457 H 0.08852 0.34769 0.7833 0.0
C7458 C 0.36603 0.25789 0.52197 0.0
C7459 C 0.37691 0.2557 0.51999 0.0
C7460 C 0.36332 0.26515 0.52883 0.0
C7461 C 0.37422 0.27849 0.55068 0.0
H7462 H 0.3511 0.2965 0.54478 0.0
C7463 C 0.36599 0.31177 0.57564 0.0
C7464 C 0.35517 0.31437 0.57732 0.0
C7465 C 0.36856 0.30451 0.56873 0.0
C7466 C 0.35748 0.29145 0.5466 0.0
H7467 H 0.3935 0.25953 0.52356 0.0
H7468 H 0.38876 0.27223 0.5355 0.0
H7469 H 0.35575 0.28417 0.53239 0.0
H7470 H 0.33854 0.31123 0.57328 0.0
H7471 H 0.34301 0.2985 0.56129 0.0
H7472 H 0.37592 0.2857 0.56491 0.0
C7473 C 0.38232 0.26825 0.53182 0.0
C7474 C 0.36016 0.2844 0.53949 0.0
C7475 C 0.38503 0.26102 0.52493 0.0
C7476 C 0.34697 0.30948 0.57204 0.0
C7477 C 0.34953 0.3022 0.56515 0.0
C7478 C 0.37152 0.28551 0.55781 0.0
C7479 C 0.37144 0.27036 0.5339 0.0
C7480 C 0.36858 0.27785 0.54144 0.0
C7481 C 0.36037 0.29967 0.56336 0.0
C7482 C 0.36313 0.29209 0.55585 0.0
H7483 H 0.35958 0.25391 0.51831 0.0
H7484 H 0.35486 0.26654 0.53034 0.0
H7485 H 0.38062 0.27345 0.55248 0.0
H7486 H 0.37251 0.3155 0.57947 0.0
H7487 H 0.377 0.30285 0.56742 0.0
C7488 C 0.21387 0.45969 0.41271 0.0
C7489 C 0.21844 0.46643 0.40605 0.0
C7490 C 0.2125 0.45012 0.40974 0.0
C7491 C 0.2087 0.43585 0.38667 0.0
H7492 H 0.21094 0.41422 0.40508 0.0
C7493 C 0.19644 0.3977 0.3742 0.0
C7494 C 0.18993 0.39261 0.38105 0.0
C7495 C 0.20184 0.40604 0.37724 0.0
C7496 C 0.21024 0.42019 0.39986 0.0
H7497 H 0.22572 0.46827 0.39125 0.0
H7498 H 0.2234 0.45154 0.3861 0.0
H7499 H 0.21722 0.43006 0.4105 0.0
H7500 H 0.18416 0.39219 0.39654 0.0
H7501 H 0.19352 0.40676 0.40184 0.0
H7502 H 0.20145 0.42609 0.37615 0.0
C7503 C 0.22072 0.4537 0.39356 0.0
C7504 C 0.21384 0.42926 0.40296 0.0
C7505 C 0.2221 0.46328 0.39654 0.0
C7506 C 0.18923 0.39587 0.39111 0.0
C7507 C 0.19461 0.40423 0.39415 0.0
C7508 C 0.20509 0.42679 0.38358 0.0
C7509 C 0.21567 0.44707 0.40004 0.0
C7510 C 0.21295 0.43723 0.39645 0.0
C7511 C 0.20083 0.4095 0.38721 0.0
C7512 C 0.20565 0.41889 0.3902 0.0
H7513 H 0.21099 0.46187 0.4201 0.0
H7514 H 0.2085 0.44523 0.41488 0.0
H7515 H 0.20772 0.44185 0.38152 0.0
H7516 H 0.19728 0.39528 0.36644 0.0
H7517 H 0.20672 0.40985 0.37176 0.0
C7518 C 0.70138 0.03743 0.58155 0.0
C7519 C 0.69913 0.03416 0.57169 0.0
C7520 C 0.69789 0.04652 0.5847 0.0
C7521 C 0.68884 0.07007 0.57481 0.0
H7522 H 0.67641 0.07317 0.60154 0.0
C7523 C 0.66492 0.10385 0.58634 0.0
C7524 C 0.66655 0.10756 0.59614 0.0
C7525 C 0.66948 0.09507 0.58352 0.0
C7526 C 0.67999 0.07245 0.5941 0.0
H7527 H 0.69143 0.03784 0.55741 0.0
H7528 H 0.68526 0.05362 0.56294 0.0
H7529 H 0.68324 0.05748 0.59632 0.0
H7530 H 0.6744 0.10499 0.61061 0.0
H7531 H 0.68234 0.08961 0.60568 0.0
H7532 H 0.68549 0.08502 0.57256 0.0
C7533 C 0.68985 0.04923 0.5682 0.0
C7534 C 0.6839 0.06346 0.59111 0.0
C7535 C 0.69333 0.04016 0.56505 0.0
C7536 C 0.67288 0.10228 0.60305 0.0
C7537 C 0.67743 0.09348 0.60022 0.0
C7538 C 0.68492 0.07905 0.5778 0.0
C7539 C 0.69209 0.05252 0.57806 0.0
C7540 C 0.68829 0.06215 0.5814 0.0
C7541 C 0.67576 0.08977 0.59043 0.0
C7542 C 0.68037 0.08032 0.58744 0.0
H7543 H 0.70586 0.03299 0.58684 0.0
H7544 H 0.69986 0.04888 0.59231 0.0
H7545 H 0.69236 0.06935 0.56735 0.0
H7546 H 0.65991 0.10764 0.5809 0.0
H7547 H 0.66788 0.09234 0.57598 0.0
C7548 C 0.73265 0.94322 0.3813 0.0
C7549 C 0.73819 0.94947 0.37477 0.0
C7550 C 0.72597 0.93602 0.37741 0.0
C7551 C 0.72037 0.9216 0.35458 0.0
H7552 H 0.69298 0.91706 0.36795 0.0
C7553 C 0.68888 0.89358 0.34034 0.0
C7554 C 0.68431 0.88777 0.34791 0.0
C7555 C 0.69526 0.90152 0.34296 0.0
C7556 C 0.70063 0.9182 0.36417 0.0
H7557 H 0.74115 0.95298 0.35901 0.0
H7558 H 0.72941 0.94039 0.35221 0.0
H7559 H 0.7046 0.93009 0.37375 0.0
H7560 H 0.68265 0.88586 0.36414 0.0
H7561 H 0.69386 0.89955 0.36868 0.0
H7562 H 0.7164 0.9096 0.34506 0.0
C7563 C 0.73031 0.94104 0.36035 0.0
C7564 C 0.70729 0.92566 0.3675 0.0
C7565 C 0.737 0.94827 0.36425 0.0
C7566 C 0.68618 0.89011 0.35812 0.0
C7567 C 0.6925 0.89803 0.36073 0.0
C7568 C 0.71368 0.91412 0.35124 0.0
C7569 C 0.72465 0.9349 0.3669 0.0
C7570 C 0.71732 0.92734 0.36286 0.0
C7571 C 0.6971 0.90384 0.35319 0.0
C7572 C 0.70383 0.91224 0.35612 0.0
H7573 H 0.73342 0.9439 0.38945 0.0
H7574 H 0.72187 0.93129 0.38266 0.0
H7575 H 0.72807 0.92269 0.35089 0.0
H7576 H 0.68761 0.89193 0.3324 0.0
H7577 H 0.69865 0.90591 0.33698 0.0
C7578 C 0.77859 0.95852 0.08821 0.0
C7579 C 0.78057 0.96116 0.07811 0.0
C7580 C 0.78249 0.9498 0.09202 0.0
C7581 C 0.79267 0.92595 0.08393 0.0
H7582 H 0.80539 0.92529 0.11081 0.0
C7583 C 0.81921 0.89458 0.0979 0.0
C7584 C 0.81797 0.89145 0.10796 0.0
C7585 C 0.81384 0.90277 0.09443 0.0
C7586 C 0.80173 0.92532 0.10335 0.0
H7587 H 0.78823 0.95673 0.0641 0.0
H7588 H 0.79517 0.94162 0.07079 0.0
H7589 H 0.79762 0.94024 0.10444 0.0
H7590 H 0.80988 0.8944 0.12218 0.0
H7591 H 0.80056 0.90879 0.11611 0.0
H7592 H 0.79694 0.91108 0.08278 0.0
C7593 C 0.79044 0.94619 0.07573 0.0
C7594 C 0.79727 0.93389 0.09969 0.0
C7595 C 0.78653 0.9549 0.07191 0.0
C7596 C 0.81113 0.89668 0.11443 0.0
C7597 C 0.80578 0.90491 0.11096 0.0
C7598 C 0.79715 0.9174 0.08757 0.0
C7599 C 0.78847 0.94354 0.08583 0.0
C7600 C 0.79278 0.93433 0.0899 0.0
C7601 C 0.80713 0.90807 0.10093 0.0
C7602 C 0.80182 0.91701 0.09729 0.0
H7603 H 0.77399 0.96317 0.09317 0.0
H7604 H 0.78072 0.94792 0.0998 0.0
H7605 H 0.78909 0.926 0.07643 0.0
H7606 H 0.82458 0.89084 0.09277 0.0
H7607 H 0.81519 0.90511 0.08671 0.0
C7608 C 0.25863 0.52576 0.38627 0.0
C7609 C 0.25237 0.52084 0.37903 0.0
C7610 C 0.26663 0.53222 0.38325 0.0
C7611 C 0.27457 0.54741 0.3616 0.0
H7612 H 0.3017 0.54949 0.37623 0.0
C7613 C 0.30898 0.5726 0.3486 0.0
C7614 C 0.31415 0.57801 0.3562 0.0
C7615 C 0.3018 0.56523 0.35114 0.0
C7616 C 0.29413 0.54904 0.37212 0.0
H7617 H 0.24981 0.51868 0.36292 0.0
H7618 H 0.26387 0.52987 0.35765 0.0
H7619 H 0.28866 0.53719 0.38107 0.0
H7620 H 0.31599 0.57979 0.37244 0.0
H7621 H 0.30336 0.56703 0.37688 0.0
H7622 H 0.28002 0.5593 0.35268 0.0
C7623 C 0.26247 0.52884 0.36567 0.0
C7624 C 0.28665 0.542 0.3749 0.0
C7625 C 0.25445 0.52239 0.36869 0.0
C7626 C 0.31205 0.57583 0.3664 0.0
C7627 C 0.30491 0.56844 0.36895 0.0
C7628 C 0.28206 0.55444 0.35881 0.0
C7629 C 0.26858 0.53391 0.37291 0.0
C7630 C 0.27674 0.54114 0.36971 0.0
C7631 C 0.29967 0.56308 0.36135 0.0
C7632 C 0.29189 0.55538 0.36409 0.0
H7633 H 0.25722 0.52475 0.39429 0.0
H7634 H 0.2711 0.53609 0.38903 0.0
H7635 H 0.26695 0.54706 0.35755 0.0
H7636 H 0.31036 0.57415 0.34067 0.0
H7637 H 0.29797 0.56118 0.34512 0.0
C7638 C 0.26788 0.53699 0.88458 0.0
C7639 C 0.26886 0.53468 0.89491 0.0
C7640 C 0.27177 0.54574 0.88089 0.0
C7641 C 0.27981 0.57018 0.88901 0.0
H7642 H 0.29655 0.57014 0.86423 0.0
C7643 C 0.30715 0.6018 0.87758 0.0
C7644 C 0.30775 0.60433 0.86728 0.0
C7645 C 0.30147 0.59364 0.88061 0.0
C7646 C 0.29175 0.57031 0.87108 0.0
H7647 H 0.27461 0.53981 0.90949 0.0
H7648 H 0.28145 0.55504 0.90305 0.0
H7649 H 0.28834 0.55525 0.87015 0.0
H7650 H 0.30258 0.60038 0.85213 0.0
H7651 H 0.29262 0.58609 0.85743 0.0
H7652 H 0.28332 0.58521 0.89 0.0
C7653 C 0.27757 0.55013 0.89781 0.0
C7654 C 0.28705 0.56177 0.87447 0.0
C7655 C 0.27371 0.54137 0.90149 0.0
C7656 C 0.30239 0.59856 0.8601 0.0
C7657 C 0.29669 0.59038 0.86314 0.0
C7658 C 0.28449 0.57872 0.88561 0.0
C7659 C 0.27669 0.5524 0.88747 0.0
C7660 C 0.28114 0.56158 0.88355 0.0
C7661 C 0.29623 0.58779 0.87343 0.0
C7662 C 0.29063 0.57886 0.87667 0.0
H7663 H 0.26416 0.532 0.87931 0.0
H7664 H 0.27087 0.54733 0.8729 0.0
H7665 H 0.27514 0.5703 0.89594 0.0
H7666 H 0.31135 0.60599 0.88329 0.0
H7667 H 0.30144 0.59176 0.88857 0.0
C7668 C 0.74638 0.04474 0.10812 0.0
C7669 C 0.74222 0.03543 0.10669 0.0
C7670 C 0.74001 0.05195 0.11244 0.0
C7671 C 0.71155 0.05864 0.11596 0.0
H7672 H 0.72308 0.07732 0.13495 0.0
C7673 C 0.68449 0.08801 0.13317 0.0
C7674 C 0.68882 0.09735 0.13352 0.0
C7675 C 0.69111 0.08012 0.13107 0.0
C7676 C 0.71976 0.0722 0.1296 0.0
H7677 H 0.7282 0.02632 0.10898 0.0
H7678 H 0.71712 0.03889 0.11654 0.0
H7679 H 0.73453 0.06414 0.12907 0.0
H7680 H 0.7036 0.10565 0.13236 0.0
H7681 H 0.71508 0.09192 0.12842 0.0
H7682 H 0.69689 0.06676 0.11628 0.0
C7683 C 0.72526 0.04064 0.1142 0.0
C7684 C 0.72632 0.06465 0.12624 0.0
C7685 C 0.73164 0.03343 0.10991 0.0
C7686 C 0.69998 0.09857 0.13201 0.0
C7687 C 0.70659 0.09068 0.12987 0.0
C7688 C 0.70502 0.06619 0.11928 0.0
C7689 C 0.72933 0.05001 0.11541 0.0
C7690 C 0.7223 0.05782 0.11934 0.0
C7691 C 0.70221 0.08137 0.12921 0.0
C7692 C 0.70906 0.0731 0.1261 0.0
H7693 H 0.75451 0.04651 0.10573 0.0
H7694 H 0.74334 0.05911 0.11318 0.0
H7695 H 0.70826 0.05359 0.11051 0.0
H7696 H 0.67592 0.0868 0.1342 0.0
H7697 H 0.6875 0.07303 0.13076 0.0
C7698 C 0.74788 0.9583 0.59776 0.0
C7699 C 0.73775 0.9609 0.60166 0.0
C7700 C 0.75482 0.95235 0.60327 0.0
C7701 C 0.75526 0.93424 0.62362 0.0
H7702 H 0.78614 0.93893 0.62267 0.0
C7703 C 0.78676 0.90981 0.6439 0.0
C7704 C 0.79535 0.90691 0.63767 0.0
C7705 C 0.7797 0.9171 0.64073 0.0
C7706 C 0.77754 0.93753 0.623 0.0
H7707 H 0.72695 0.9593 0.61447 0.0
H7708 H 0.73915 0.94893 0.62416 0.0
H7709 H 0.77374 0.9504 0.61489 0.0
H7710 H 0.80356 0.90956 0.62346 0.0
H7711 H 0.79129 0.92224 0.61795 0.0
H7712 H 0.75913 0.92127 0.63164 0.0
C7713 C 0.74167 0.95144 0.61677 0.0
C7714 C 0.77043 0.94407 0.61851 0.0
C7715 C 0.7347 0.95741 0.61123 0.0
C7716 C 0.79693 0.91159 0.62837 0.0
C7717 C 0.78997 0.91891 0.62526 0.0
C7718 C 0.76238 0.9277 0.62815 0.0
C7719 C 0.75182 0.94886 0.61285 0.0
C7720 C 0.75923 0.94239 0.61855 0.0
C7721 C 0.78123 0.9217 0.63136 0.0
C7722 C 0.77361 0.92917 0.62767 0.0
H7723 H 0.75047 0.96082 0.59039 0.0
H7724 H 0.76248 0.95035 0.59993 0.0
H7725 H 0.74668 0.93269 0.62372 0.0
H7726 H 0.78535 0.9063 0.65109 0.0
H7727 H 0.77305 0.91915 0.64559 0.0
loop_
_geom_bond_atom_site_label_1
_geom_bond_atom_site_label_2
_geom_bond_distance
_geom_bond_site_symmetry_2
_ccdc_geom_bond_type
O0 Cd1 2.300 . S
O0 C7 1.275 . S
Cd1 O0 2.300 . S
Cd1 O9 2.381 . S
Cd1 O10 2.378 . S
O2 Cd3 2.385 . S
O2 C7 1.255 . S
Cd3 O2 2.385 . S
Cd3 O4 2.317 . S
O4 Cd3 2.317 . S
O4 C5 1.232 . S
C5 O4 1.232 . S
C5 O6 1.218 . S
O6 C5 1.218 . S
C7 O0 1.275 . S
C7 O2 1.255 . S
C8 O9 1.258 . S
C8 O10 1.256 . S
O9 Cd1 2.381 . S
O9 C8 1.258 . S
O10 Cd1 2.378 . S
O10 C8 1.256 . S
O11 Cd12 2.300 . S
O11 C18 1.275 . S
Cd12 O11 2.300 . S
Cd12 O20 2.381 . S
Cd12 O21 2.378 . S
O13 Cd14 2.385 . S
O13 C18 1.255 . S
Cd14 O13 2.385 . S
Cd14 O15 2.317 . S
O15 Cd14 2.317 . S
O15 C16 1.232 . S
C16 O15 1.232 . S
C16 O17 1.218 . S
O17 C16 1.218 . S
C18 O11 1.275 . S
C18 O13 1.255 . S
C19 O20 1.258 . S
C19 O21 1.256 . S
O20 Cd12 2.381 . S
O20 C19 1.258 . S
O21 Cd12 2.378 . S
O21 C19 1.256 . S
O22 Cd23 2.300 . S
O22 C29 1.275 . S
Cd23 O22 2.300 . S
Cd23 O31 2.381 . S
Cd23 O32 2.378 . S
O24 Cd25 2.385 . S
O24 C29 1.255 . S
Cd25 O24 2.385 . S
Cd25 O26 2.317 . S
O26 Cd25 2.317 . S
O26 C27 1.232 . S
C27 O26 1.232 . S
C27 O28 1.218 . S
O28 C27 1.218 . S
C29 O22 1.275 . S
C29 O24 1.255 . S
C30 O31 1.258 . S
C30 O32 1.256 . S
O31 Cd23 2.381 . S
O31 C30 1.258 . S
O32 Cd23 2.378 . S
O32 C30 1.256 . S
O33 Cd34 2.300 . S
O33 C40 1.275 . S
Cd34 O33 2.300 . S
Cd34 O42 2.381 . S
Cd34 O43 2.378 . S
O35 Cd36 2.385 . S
O35 C40 1.255 . S
Cd36 O35 2.385 . S
Cd36 O37 2.317 1_554 S
O37 Cd36 2.317 1_556 S
O37 C38 1.232 . S
C38 O37 1.232 . S
C38 O39 1.218 . S
O39 C38 1.218 . S
C40 O33 1.275 . S
C40 O35 1.255 . S
C41 O42 1.258 . S
C41 O43 1.256 . S
O42 Cd34 2.381 . S
O42 C41 1.258 . S
O43 Cd34 2.378 . S
O43 C41 1.256 . S
O44 Cd45 2.300 . S
O44 C51 1.275 . S
Cd45 O44 2.300 . S
Cd45 O53 2.381 . S
Cd45 O54 2.378 . S
O46 Cd47 2.385 . S
O46 C51 1.255 . S
Cd47 O46 2.385 . S
Cd47 O48 2.317 1_455 S
O48 Cd47 2.317 1_655 S
O48 C49 1.232 . S
C49 O48 1.232 . S
C49 O50 1.218 . S
O50 C49 1.218 . S
C51 O44 1.275 . S
C51 O46 1.255 . S
C52 O53 1.258 . S
C52 O54 1.256 . S
O53 Cd45 2.381 . S
O53 C52 1.258 . S
O54 Cd45 2.378 . S
O54 C52 1.256 . S
O55 Cd56 2.300 . S
O55 C62 1.275 . S
Cd56 O55 2.300 . S
Cd56 O64 2.381 . S
Cd56 O65 2.378 . S
O57 Cd58 2.385 . S
O57 C62 1.255 . S
Cd58 O57 2.385 . S
Cd58 O59 2.317 . S
O59 Cd58 2.317 . S
O59 C60 1.232 . S
C60 O59 1.232 . S
C60 O61 1.218 . S
O61 C60 1.218 . S
C62 O55 1.275 . S
C62 O57 1.255 . S
C63 O64 1.258 . S
C63 O65 1.256 . S
O64 Cd56 2.381 . S
O64 C63 1.258 . S
O65 Cd56 2.378 . S
O65 C63 1.256 . S
O66 Cd67 2.300 . S
O66 C73 1.275 . S
Cd67 O66 2.300 . S
Cd67 O75 2.381 . S
Cd67 O76 2.378 . S
O68 Cd69 2.385 . S
O68 C73 1.255 . S
Cd69 O68 2.385 . S
Cd69 O70 2.317 . S
O70 Cd69 2.317 . S
O70 C71 1.232 . S
C71 O70 1.232 . S
C71 O72 1.218 . S
O72 C71 1.218 . S
C73 O66 1.275 . S
C73 O68 1.255 . S
C74 O75 1.258 . S
C74 O76 1.256 . S
O75 Cd67 2.381 . S
O75 C74 1.258 . S
O76 Cd67 2.378 . S
O76 C74 1.256 . S
O77 Cd78 2.300 . S
O77 C84 1.275 . S
Cd78 O77 2.300 . S
Cd78 O86 2.381 . S
Cd78 O87 2.378 . S
O79 Cd80 2.385 . S
O79 C84 1.255 . S
Cd80 O79 2.385 . S
Cd80 O81 2.317 . S
O81 Cd80 2.317 . S
O81 C82 1.232 . S
C82 O81 1.232 . S
C82 O83 1.218 . S
O83 C82 1.218 . S
C84 O77 1.275 . S
C84 O79 1.255 . S
C85 O86 1.258 . S
C85 O87 1.256 . S
O86 Cd78 2.381 . S
O86 C85 1.258 . S
O87 Cd78 2.378 . S
O87 C85 1.256 . S
O88 Cd89 2.300 . S
O88 C95 1.275 . S
Cd89 O88 2.300 . S
Cd89 O97 2.381 . S
Cd89 O98 2.378 1_545 S
O90 Cd91 2.385 . S
O90 C95 1.255 . S
Cd91 O90 2.385 . S
Cd91 O92 2.317 . S
O92 Cd91 2.317 . S
O92 C93 1.232 . S
C93 O92 1.232 . S
C93 O94 1.218 . S
O94 C93 1.218 . S
C95 O88 1.275 . S
C95 O90 1.255 . S
C96 O97 1.258 1_565 S
C96 O98 1.256 . S
O97 Cd89 2.381 . S
O97 C96 1.258 1_545 S
O98 Cd89 2.378 1_565 S
O98 C96 1.256 . S
O99 Cd100 2.300 . S
O99 C106 1.275 . S
Cd100 O99 2.300 . S
Cd100 O108 2.381 1_545 S
Cd100 O109 2.378 1_545 S
O101 Cd102 2.385 . S
O101 C106 1.255 . S
Cd102 O101 2.385 . S
Cd102 O103 2.317 . S
O103 Cd102 2.317 . S
O103 C104 1.232 . S
C104 O103 1.232 . S
C104 O105 1.218 . S
O105 C104 1.218 . S
C106 O99 1.275 . S
C106 O101 1.255 . S
C107 O108 1.258 . S
C107 O109 1.256 . S
O108 Cd100 2.381 1_565 S
O108 C107 1.258 . S
O109 Cd100 2.378 1_565 S
O109 C107 1.256 . S
O110 Cd111 2.300 . S
O110 C117 1.275 . S
Cd111 O110 2.300 . S
Cd111 O119 2.381 . S
Cd111 O120 2.378 . S
O112 Cd113 2.385 . S
O112 C117 1.255 . S
Cd113 O112 2.385 . S
Cd113 O114 2.317 1_565 S
O114 Cd113 2.317 1_545 S
O114 C115 1.232 . S
C115 O114 1.232 . S
C115 O116 1.218 . S
O116 C115 1.218 . S
C117 O110 1.275 . S
C117 O112 1.255 . S
C118 O119 1.258 . S
C118 O120 1.256 . S
O119 Cd111 2.381 . S
O119 C118 1.258 . S
O120 Cd111 2.378 . S
O120 C118 1.256 . S
O121 Cd122 2.379 . S
O121 C128 1.275 . S
Cd122 O121 2.379 . S
Cd122 O130 2.316 1_565 S
Cd122 O131 2.274 1_565 S
O123 Cd124 2.385 . S
O123 C128 1.255 . S
Cd124 O123 2.385 . S
Cd124 O125 2.317 . S
O125 Cd124 2.317 . S
O125 C126 1.232 . S
C126 O125 1.232 . S
C126 O127 1.218 . S
O127 C126 1.218 . S
C128 O121 1.275 . S
C128 O123 1.255 . S
C129 O130 1.258 . S
C129 O131 1.256 . S
O130 Cd122 2.316 1_545 S
O130 C129 1.258 . S
O131 Cd122 2.274 1_545 S
O131 C129 1.256 . S
O132 Cd133 2.300 . S
O132 C139 1.275 . S
Cd133 O132 2.300 . S
Cd133 O141 2.421 . S
Cd133 O142 2.378 1_554 S
O134 Cd135 2.385 . S
O134 C139 1.255 . S
Cd135 O134 2.385 . S
Cd135 O136 2.317 . S
O136 Cd135 2.317 . S
O136 C137 1.232 . S
C137 O136 1.232 . S
C137 O138 1.218 . S
O138 C137 1.218 . S
C139 O132 1.275 . S
C139 O134 1.255 . S
C140 O141 1.223 1_556 S
C140 O142 1.256 . S
O141 Cd133 2.421 . S
O141 C140 1.223 1_554 S
O142 Cd133 2.378 1_556 S
O142 C140 1.256 . S
O143 Cd144 2.300 . S
O143 C150 1.275 . S
Cd144 O143 2.300 . S
Cd144 O152 2.381 . S
Cd144 O153 2.378 . S
O145 Cd146 2.385 . S
O145 C150 1.255 . S
Cd146 O145 2.385 . S
Cd146 O147 2.317 1_655 S
O147 Cd146 2.317 1_455 S
O147 C148 1.232 . S
C148 O147 1.232 . S
C148 O149 1.218 . S
O149 C148 1.218 . S
C150 O143 1.275 . S
C150 O145 1.255 . S
C151 O152 1.258 . S
C151 O153 1.256 . S
O152 Cd144 2.381 . S
O152 C151 1.258 . S
O153 Cd144 2.378 . S
O153 C151 1.256 . S
O154 Cd155 2.300 . S
O154 C161 1.275 . S
Cd155 O154 2.300 . S
Cd155 O163 2.381 . S
Cd155 O164 2.378 . S
O156 Cd157 2.385 . S
O156 C161 1.255 . S
Cd157 O156 2.385 . S
Cd157 O158 2.317 . S
O158 Cd157 2.317 . S
O158 C159 1.232 . S
C159 O158 1.232 . S
C159 O160 1.218 . S
O160 C159 1.218 . S
C161 O154 1.275 . S
C161 O156 1.255 . S
C162 O163 1.258 . S
C162 O164 1.256 . S
O163 Cd155 2.381 . S
O163 C162 1.258 . S
O164 Cd155 2.378 . S
O164 C162 1.256 . S
O165 Cd166 2.239 1_655 S
O165 C172 1.275 . S
Cd166 O165 2.239 1_455 S
Cd166 O174 2.441 . S
Cd166 O175 2.466 . S
O167 Cd168 2.385 . S
O167 C172 1.255 . S
Cd168 O167 2.385 . S
Cd168 O169 2.317 . S
O169 Cd168 2.317 . S
O169 C170 1.232 . S
C170 O169 1.232 . S
C170 O171 1.218 . S
O171 C170 1.218 . S
C172 O165 1.275 . S
C172 O167 1.255 . S
C173 O174 1.258 . S
C173 O175 1.256 . S
O174 Cd166 2.441 . S
O174 C173 1.258 . S
O175 Cd166 2.466 . S
O175 C173 1.256 . S
O176 Cd177 2.300 . S
O176 C183 1.275 . S
Cd177 O176 2.300 . S
Cd177 O185 2.381 . S
Cd177 O186 2.378 . S
O178 Cd179 2.385 . S
O178 C183 1.255 . S
Cd179 O178 2.385 . S
Cd179 O180 2.317 . S
O180 Cd179 2.317 . S
O180 C181 1.232 . S
C181 O180 1.232 . S
C181 O182 1.218 . S
O182 C181 1.218 . S
C183 O176 1.275 . S
C183 O178 1.255 . S
C184 O185 1.258 . S
C184 O186 1.256 . S
O185 Cd177 2.381 . S
O185 C184 1.258 . S
O186 Cd177 2.378 . S
O186 C184 1.256 . S
O187 Cd188 2.300 . S
O187 C194 1.275 . S
Cd188 O187 2.300 . S
Cd188 O196 2.381 . S
Cd188 O197 2.378 . S
O189 Cd190 2.385 . S
O189 C194 1.255 . S
Cd190 O189 2.385 . S
Cd190 O191 2.317 . S
O191 Cd190 2.317 . S
O191 C192 1.232 . S
C192 O191 1.232 . S
C192 O193 1.218 . S
O193 C192 1.218 . S
C194 O187 1.275 . S
C194 O189 1.255 . S
C195 O196 1.258 . S
C195 O197 1.256 . S
O196 Cd188 2.381 . S
O196 C195 1.258 . S
O197 Cd188 2.378 . S
O197 C195 1.256 . S
O198 Cd199 2.300 . S
O198 C205 1.275 . S
Cd199 O198 2.300 . S
Cd199 O207 2.381 . S
Cd199 O208 2.378 . S
O200 Cd201 2.385 . S
O200 C205 1.255 . S
Cd201 O200 2.385 . S
Cd201 O202 2.317 . S
O202 Cd201 2.317 . S
O202 C203 1.232 . S
C203 O202 1.232 . S
C203 O204 1.218 . S
O204 C203 1.218 . S
C205 O198 1.275 . S
C205 O200 1.255 . S
C206 O207 1.258 . S
C206 O208 1.256 . S
O207 Cd199 2.381 . S
O207 C206 1.258 . S
O208 Cd199 2.378 . S
O208 C206 1.256 . S
O209 Cd210 2.300 . S
O209 C216 1.275 . S
Cd210 O209 2.300 . S
Cd210 O218 2.381 . S
Cd210 O219 2.378 . S
O211 Cd212 2.457 . S
O211 C216 1.255 . S
Cd212 O211 2.457 . S
Cd212 O213 2.277 1_655 S
O213 Cd212 2.277 1_455 S
O213 C214 1.232 . S
C214 O213 1.232 . S
C214 O215 1.218 . S
O215 C214 1.218 . S
C216 O209 1.275 . S
C216 O211 1.255 . S
C217 O218 1.258 . S
C217 O219 1.256 . S
O218 Cd210 2.381 . S
O218 C217 1.258 . S
O219 Cd210 2.378 . S
O219 C217 1.256 . S
O220 Cd221 2.300 . S
O220 C227 1.275 . S
Cd221 O220 2.300 . S
Cd221 O229 2.381 . S
Cd221 O230 2.378 . S
O222 Cd223 2.385 . S
O222 C227 1.255 . S
Cd223 O222 2.385 . S
Cd223 O224 2.317 . S
O224 Cd223 2.317 . S
O224 C225 1.232 . S
C225 O224 1.232 . S
C225 O226 1.218 . S
O226 C225 1.218 . S
C227 O220 1.275 . S
C227 O222 1.255 . S
C228 O229 1.258 . S
C228 O230 1.256 . S
O229 Cd221 2.381 . S
O229 C228 1.258 . S
O230 Cd221 2.378 . S
O230 C228 1.256 . S
O231 Cd232 2.300 . S
O231 C238 1.275 . S
Cd232 O231 2.300 . S
Cd232 O240 2.381 . S
Cd232 O241 2.378 . S
O233 Cd234 2.385 . S
O233 C238 1.255 . S
Cd234 O233 2.385 . S
Cd234 O235 2.317 . S
O235 Cd234 2.317 . S
O235 C236 1.232 . S
C236 O235 1.232 . S
C236 O237 1.218 . S
O237 C236 1.218 . S
C238 O231 1.275 . S
C238 O233 1.255 . S
C239 O240 1.258 . S
C239 O241 1.256 . S
O240 Cd232 2.381 . S
O240 C239 1.258 . S
O241 Cd232 2.378 . S
O241 C239 1.256 . S
O242 Cd243 2.300 . S
O242 C249 1.275 . S
Cd243 O242 2.300 . S
Cd243 O251 2.381 . S
Cd243 O252 2.378 . S
O244 Cd245 2.385 . S
O244 C249 1.255 . S
Cd245 O244 2.385 . S
Cd245 O246 2.317 1_554 S
O246 Cd245 2.317 1_556 S
O246 C247 1.232 . S
C247 O246 1.232 . S
C247 O248 1.218 . S
O248 C247 1.218 . S
C249 O242 1.275 . S
C249 O244 1.255 . S
C250 O251 1.258 . S
C250 O252 1.256 . S
O251 Cd243 2.381 . S
O251 C250 1.258 . S
O252 Cd243 2.378 . S
O252 C250 1.256 . S
O253 Cd254 2.341 . S
O253 C260 1.275 . S
Cd254 O253 2.341 . S
Cd254 O262 2.326 1_565 S
Cd254 O263 2.312 1_565 S
O255 Cd256 2.385 . S
O255 C260 1.255 . S
Cd256 O255 2.385 . S
Cd256 O257 2.317 . S
O257 Cd256 2.317 . S
O257 C258 1.232 . S
C258 O257 1.232 . S
C258 O259 1.218 . S
O259 C258 1.218 . S
C260 O253 1.275 . S
C260 O255 1.255 . S
C261 O262 1.258 . S
C261 O263 1.256 . S
O262 Cd254 2.326 1_545 S
O262 C261 1.258 . S
O263 Cd254 2.312 1_545 S
O263 C261 1.256 . S
O264 Cd265 2.300 1_565 S
O264 C271 1.275 . S
Cd265 O264 2.300 1_545 S
Cd265 O273 2.381 . S
Cd265 O274 2.378 . S
O266 Cd267 2.385 . S
O266 C271 1.255 . S
Cd267 O266 2.385 . S
Cd267 O268 2.317 . S
O268 Cd267 2.317 . S
O268 C269 1.232 . S
C269 O268 1.232 . S
C269 O270 1.218 . S
O270 C269 1.218 . S
C271 O264 1.275 . S
C271 O266 1.255 . S
C272 O273 1.258 . S
C272 O274 1.256 . S
O273 Cd265 2.381 . S
O273 C272 1.258 . S
O274 Cd265 2.378 . S
O274 C272 1.256 . S
O275 Cd276 2.287 1_545 S
O275 C282 1.275 . S
Cd276 O275 2.287 1_565 S
Cd276 O284 2.399 . S
Cd276 O285 2.400 . S
O277 Cd278 2.385 . S
O277 C282 1.255 . S
Cd278 O277 2.385 . S
Cd278 O279 2.317 . S
O279 Cd278 2.317 . S
O279 C280 1.232 . S
C280 O279 1.232 . S
C280 O281 1.218 . S
O281 C280 1.218 . S
C282 O275 1.275 . S
C282 O277 1.255 . S
C283 O284 1.258 . S
C283 O285 1.256 . S
O284 Cd276 2.399 . S
O284 C283 1.258 . S
O285 Cd276 2.400 . S
O285 C283 1.256 . S
O286 Cd287 2.300 1_545 S
O286 C293 1.275 . S
Cd287 O286 2.300 1_565 S
Cd287 O295 2.381 . S
Cd287 O296 2.378 . S
O288 Cd289 2.385 . S
O288 C293 1.255 . S
Cd289 O288 2.385 . S
Cd289 O290 2.317 . S
O290 Cd289 2.317 . S
O290 C291 1.232 . S
C291 O290 1.232 . S
C291 O292 1.218 . S
O292 C291 1.218 . S
C293 O286 1.275 . S
C293 O288 1.255 . S
C294 O295 1.258 . S
C294 O296 1.256 . S
O295 Cd287 2.381 . S
O295 C294 1.258 . S
O296 Cd287 2.378 . S
O296 C294 1.256 . S
O297 Cd298 2.300 . S
O297 C304 1.275 . S
Cd298 O297 2.300 . S
Cd298 O306 2.381 1_556 S
Cd298 O307 2.378 1_556 S
O299 Cd300 2.385 . S
O299 C304 1.255 . S
Cd300 O299 2.385 . S
Cd300 O301 2.317 . S
O301 Cd300 2.317 . S
O301 C302 1.232 . S
C302 O301 1.232 . S
C302 O303 1.218 . S
O303 C302 1.218 . S
C304 O297 1.275 . S
C304 O299 1.255 . S
C305 O306 1.258 . S
C305 O307 1.256 . S
O306 Cd298 2.381 1_554 S
O306 C305 1.258 . S
O307 Cd298 2.378 1_554 S
O307 C305 1.256 . S
O308 Cd309 2.300 . S
O308 C315 1.275 . S
Cd309 O308 2.300 . S
Cd309 O317 2.381 . S
Cd309 O318 2.378 . S
O310 Cd311 2.385 1_455 S
O310 C315 1.255 . S
Cd311 O310 2.385 1_655 S
Cd311 O312 2.317 . S
O312 Cd311 2.317 . S
O312 C313 1.232 . S
C313 O312 1.232 . S
C313 O314 1.218 . S
O314 C313 1.218 . S
C315 O308 1.275 . S
C315 O310 1.255 . S
C316 O317 1.258 . S
C316 O318 1.256 . S
O317 Cd309 2.381 . S
O317 C316 1.258 . S
O318 Cd309 2.378 . S
O318 C316 1.256 . S
O319 Cd320 2.300 . S
O319 C326 1.275 . S
Cd320 O319 2.300 . S
Cd320 O328 2.381 . S
Cd320 O329 2.378 . S
O321 Cd322 2.385 . S
O321 C326 1.255 . S
Cd322 O321 2.385 . S
Cd322 O323 2.317 . S
O323 Cd322 2.317 . S
O323 C324 1.232 . S
C324 O323 1.232 . S
C324 O325 1.218 . S
O325 C324 1.218 . S
C326 O319 1.275 . S
C326 O321 1.255 . S
C327 O328 1.258 . S
C327 O329 1.256 . S
O328 Cd320 2.381 . S
O328 C327 1.258 . S
O329 Cd320 2.378 . S
O329 C327 1.256 . S
O330 Cd331 2.300 . S
O330 C337 1.275 . S
Cd331 O330 2.300 . S
Cd331 O339 2.381 . S
Cd331 O340 2.378 . S
O332 Cd333 2.385 . S
O332 C337 1.255 . S
Cd333 O332 2.385 . S
Cd333 O334 2.317 . S
O334 Cd333 2.317 . S
O334 C335 1.232 . S
C335 O334 1.232 . S
C335 O336 1.218 . S
O336 C335 1.218 . S
C337 O330 1.275 . S
C337 O332 1.255 . S
C338 O339 1.258 . S
C338 O340 1.256 . S
O339 Cd331 2.381 . S
O339 C338 1.258 . S
O340 Cd331 2.378 . S
O340 C338 1.256 . S
O341 Cd342 2.300 . S
O341 C348 1.275 . S
Cd342 O341 2.300 . S
Cd342 O350 2.381 1_655 S
Cd342 O351 2.378 1_655 S
O343 Cd344 2.385 . S
O343 C348 1.255 . S
Cd344 O343 2.385 . S
Cd344 O345 2.317 . S
O345 Cd344 2.317 . S
O345 C346 1.232 . S
C346 O345 1.232 . S
C346 O347 1.218 . S
O347 C346 1.218 . S
C348 O341 1.275 . S
C348 O343 1.255 . S
C349 O350 1.258 . S
C349 O351 1.256 . S
O350 Cd342 2.381 1_455 S
O350 C349 1.258 . S
O351 Cd342 2.378 1_455 S
O351 C349 1.256 . S
O352 Cd353 2.300 . S
O352 C359 1.275 . S
Cd353 O352 2.300 . S
Cd353 O361 2.381 . S
Cd353 O362 2.378 . S
O354 Cd355 2.385 . S
O354 C359 1.255 . S
Cd355 O354 2.385 . S
Cd355 O356 2.317 . S
O356 Cd355 2.317 . S
O356 C357 1.232 . S
C357 O356 1.232 . S
C357 O358 1.218 . S
O358 C357 1.218 . S
C359 O352 1.275 . S
C359 O354 1.255 . S
C360 O361 1.258 . S
C360 O362 1.256 . S
O361 Cd353 2.381 . S
O361 C360 1.258 . S
O362 Cd353 2.378 . S
O362 C360 1.256 . S
O363 Cd364 2.300 . S
O363 C370 1.275 . S
Cd364 O363 2.300 . S
Cd364 O372 2.381 . S
Cd364 O373 2.378 . S
O365 Cd366 2.385 . S
O365 C370 1.255 . S
Cd366 O365 2.385 . S
Cd366 O367 2.317 . S
O367 Cd366 2.317 . S
O367 C368 1.232 . S
C368 O367 1.232 . S
C368 O369 1.218 . S
O369 C368 1.218 . S
C370 O363 1.275 . S
C370 O365 1.255 . S
C371 O372 1.258 . S
C371 O373 1.256 . S
O372 Cd364 2.381 . S
O372 C371 1.258 . S
O373 Cd364 2.378 . S
O373 C371 1.256 . S
O374 Cd375 2.300 . S
O374 C381 1.275 . S
Cd375 O374 2.300 . S
Cd375 O383 2.381 . S
Cd375 O384 2.378 . S
O376 Cd377 2.385 . S
O376 C381 1.255 . S
Cd377 O376 2.385 . S
Cd377 O378 2.317 . S
O378 Cd377 2.317 . S
O378 C379 1.232 . S
C379 O378 1.232 . S
C379 O380 1.218 . S
O380 C379 1.218 . S
C381 O374 1.275 . S
C381 O376 1.255 . S
C382 O383 1.258 . S
C382 O384 1.256 . S
O383 Cd375 2.381 . S
O383 C382 1.258 . S
O384 Cd375 2.378 . S
O384 C382 1.256 . S
O385 Cd386 2.300 . S
O385 C392 1.275 . S
Cd386 O385 2.300 . S
Cd386 O394 2.381 . S
Cd386 O395 2.378 . S
O387 Cd388 2.385 . S
O387 C392 1.255 . S
Cd388 O387 2.385 . S
Cd388 O389 2.317 . S
O389 Cd388 2.317 . S
O389 C390 1.232 . S
C390 O389 1.232 . S
C390 O391 1.218 . S
O391 C390 1.218 . S
C392 O385 1.275 . S
C392 O387 1.255 . S
C393 O394 1.258 . S
C393 O395 1.256 . S
O394 Cd386 2.381 . S
O394 C393 1.258 . S
O395 Cd386 2.378 . S
O395 C393 1.256 . S
O396 Cd397 2.300 . S
O396 C403 1.275 . S
Cd397 O396 2.300 . S
Cd397 O405 2.381 . S
Cd397 O406 2.378 . S
O398 Cd399 2.385 . S
O398 C403 1.255 . S
Cd399 O398 2.385 . S
Cd399 O400 2.317 . S
O400 Cd399 2.317 . S
O400 C401 1.232 . S
C401 O400 1.232 . S
C401 O402 1.218 . S
O402 C401 1.218 . S
C403 O396 1.275 . S
C403 O398 1.255 . S
C404 O405 1.258 . S
C404 O406 1.256 . S
O405 Cd397 2.381 . S
O405 C404 1.258 . S
O406 Cd397 2.378 . S
O406 C404 1.256 . S
O407 Cd408 2.300 . S
O407 C414 1.275 . S
Cd408 O407 2.300 . S
Cd408 O416 2.381 . S
Cd408 O417 2.378 . S
O409 Cd410 2.385 . S
O409 C414 1.255 . S
Cd410 O409 2.385 . S
Cd410 O411 2.317 . S
O411 Cd410 2.317 . S
O411 C412 1.232 . S
C412 O411 1.232 . S
C412 O413 1.218 . S
O413 C412 1.218 . S
C414 O407 1.275 . S
C414 O409 1.255 . S
C415 O416 1.258 . S
C415 O417 1.256 . S
O416 Cd408 2.381 . S
O416 C415 1.258 . S
O417 Cd408 2.378 . S
O417 C415 1.256 . S
O418 Cd419 2.300 . S
O418 C425 1.275 . S
Cd419 O418 2.300 . S
Cd419 O427 2.381 . S
Cd419 O428 2.378 . S
O420 Cd421 2.385 . S
O420 C425 1.255 . S
Cd421 O420 2.385 . S
Cd421 O422 2.317 . S
O422 Cd421 2.317 . S
O422 C423 1.232 . S
C423 O422 1.232 . S
C423 O424 1.218 . S
O424 C423 1.218 . S
C425 O418 1.275 . S
C425 O420 1.255 . S
C426 O427 1.258 . S
C426 O428 1.256 . S
O427 Cd419 2.381 . S
O427 C426 1.258 . S
O428 Cd419 2.378 . S
O428 C426 1.256 . S
O429 Cd430 2.300 . S
O429 C436 1.275 . S
Cd430 O429 2.300 . S
Cd430 O438 2.381 . S
Cd430 O439 2.378 . S
O431 Cd432 2.385 . S
O431 C436 1.255 . S
Cd432 O431 2.385 . S
Cd432 O433 2.317 . S
O433 Cd432 2.317 . S
O433 C434 1.232 . S
C434 O433 1.232 . S
C434 O435 1.218 . S
O435 C434 1.218 . S
C436 O429 1.275 . S
C436 O431 1.255 . S
C437 O438 1.258 . S
C437 O439 1.256 . S
O438 Cd430 2.381 . S
O438 C437 1.258 . S
O439 Cd430 2.378 . S
O439 C437 1.256 . S
O440 Cd441 2.300 . S
O440 C447 1.275 . S
Cd441 O440 2.300 . S
Cd441 O449 2.381 . S
Cd441 O450 2.378 . S
O442 Cd443 2.385 1_455 S
O442 C447 1.255 . S
Cd443 O442 2.385 1_655 S
Cd443 O444 2.317 . S
O444 Cd443 2.317 . S
O444 C445 1.232 . S
C445 O444 1.232 . S
C445 O446 1.218 . S
O446 C445 1.218 . S
C447 O440 1.275 . S
C447 O442 1.255 . S
C448 O449 1.258 . S
C448 O450 1.256 . S
O449 Cd441 2.381 . S
O449 C448 1.258 . S
O450 Cd441 2.378 . S
O450 C448 1.256 . S
O451 Cd452 2.300 . S
O451 C458 1.275 . S
Cd452 O451 2.300 . S
Cd452 O460 2.381 . S
Cd452 O461 2.378 . S
O453 Cd454 2.385 . S
O453 C458 1.255 . S
Cd454 O453 2.385 . S
Cd454 O455 2.317 . S
O455 Cd454 2.317 . S
O455 C456 1.232 . S
C456 O455 1.232 . S
C456 O457 1.218 . S
O457 C456 1.218 . S
C458 O451 1.275 . S
C458 O453 1.255 . S
C459 O460 1.258 . S
C459 O461 1.256 . S
O460 Cd452 2.381 . S
O460 C459 1.258 . S
O461 Cd452 2.378 . S
O461 C459 1.256 . S
O462 Cd463 2.300 . S
O462 C469 1.275 . S
Cd463 O462 2.300 . S
Cd463 O471 2.381 . S
Cd463 O472 2.378 . S
O464 Cd465 2.385 1_554 S
O464 C469 1.255 . S
Cd465 O464 2.385 1_556 S
Cd465 O466 2.317 . S
O466 Cd465 2.317 . S
O466 C467 1.232 . S
C467 O466 1.232 . S
C467 O468 1.218 . S
O468 C467 1.218 . S
C469 O462 1.275 . S
C469 O464 1.255 . S
C470 O471 1.258 . S
C470 O472 1.256 . S
O471 Cd463 2.381 . S
O471 C470 1.258 . S
O472 Cd463 2.378 . S
O472 C470 1.256 . S
O473 Cd474 2.300 . S
O473 C480 1.275 . S
Cd474 O473 2.300 . S
Cd474 O482 2.381 . S
Cd474 O483 2.378 . S
O475 Cd476 2.385 . S
O475 C480 1.255 . S
Cd476 O475 2.385 . S
Cd476 O477 2.317 . S
O477 Cd476 2.317 . S
O477 C478 1.232 . S
C478 O477 1.232 . S
C478 O479 1.218 . S
O479 C478 1.218 . S
C480 O473 1.275 . S
C480 O475 1.255 . S
C481 O482 1.258 . S
C481 O483 1.256 . S
O482 Cd474 2.381 . S
O482 C481 1.258 . S
O483 Cd474 2.378 . S
O483 C481 1.256 . S
O484 Cd485 2.300 . S
O484 C491 1.275 . S
Cd485 O484 2.300 . S
Cd485 O493 2.381 . S
Cd485 O494 2.378 . S
O486 Cd487 2.385 . S
O486 C491 1.255 . S
Cd487 O486 2.385 . S
Cd487 O488 2.317 . S
O488 Cd487 2.317 . S
O488 C489 1.232 . S
C489 O488 1.232 . S
C489 O490 1.218 . S
O490 C489 1.218 . S
C491 O484 1.275 . S
C491 O486 1.255 . S
C492 O493 1.258 . S
C492 O494 1.256 . S
O493 Cd485 2.381 . S
O493 C492 1.258 . S
O494 Cd485 2.378 . S
O494 C492 1.256 . S
O495 Cd496 2.300 . S
O495 C502 1.275 . S
Cd496 O495 2.300 . S
Cd496 O504 2.381 . S
Cd496 O505 2.378 . S
O497 Cd498 2.385 . S
O497 C502 1.255 . S
Cd498 O497 2.385 . S
Cd498 O499 2.317 . S
O499 Cd498 2.317 . S
O499 C500 1.232 . S
C500 O499 1.232 . S
C500 O501 1.218 . S
O501 C500 1.218 . S
C502 O495 1.275 . S
C502 O497 1.255 . S
C503 O504 1.258 . S
C503 O505 1.256 . S
O504 Cd496 2.381 . S
O504 C503 1.258 . S
O505 Cd496 2.378 . S
O505 C503 1.256 . S
O506 Cd507 2.300 . S
O506 C513 1.275 . S
Cd507 O506 2.300 . S
Cd507 O515 2.381 . S
Cd507 O516 2.378 . S
O508 Cd509 2.385 . S
O508 C513 1.255 . S
Cd509 O508 2.385 . S
Cd509 O510 2.317 . S
O510 Cd509 2.317 . S
O510 C511 1.232 . S
C511 O510 1.232 . S
C511 O512 1.218 . S
O512 C511 1.218 . S
C513 O506 1.275 . S
C513 O508 1.255 . S
C514 O515 1.258 . S
C514 O516 1.256 . S
O515 Cd507 2.381 . S
O515 C514 1.258 . S
O516 Cd507 2.378 . S
O516 C514 1.256 . S
O517 Cd518 2.300 . S
O517 C524 1.275 . S
Cd518 O517 2.300 . S
Cd518 O526 2.381 . S
Cd518 O527 2.378 . S
O519 Cd520 2.385 . S
O519 C524 1.255 . S
Cd520 O519 2.385 . S
Cd520 O521 2.317 . S
O521 Cd520 2.317 . S
O521 C522 1.232 . S
C522 O521 1.232 . S
C522 O523 1.218 . S
O523 C522 1.218 . S
C524 O517 1.275 . S
C524 O519 1.255 . S
C525 O526 1.258 . S
C525 O527 1.256 . S
O526 Cd518 2.381 . S
O526 C525 1.258 . S
O527 Cd518 2.378 . S
O527 C525 1.256 . S
C528 C529 1.391 . S
C528 C532 1.391 . S
C528 H570 0.948 . S
C529 C528 1.391 . S
C529 C530 1.391 . S
C530 C529 1.391 . S
C530 H586 0.947 . S
C530 C587 1.392 . S
C531 C532 1.391 . S
C531 C535 1.397 . S
C531 C587 1.419 . S
C532 C528 1.391 . S
C532 C531 1.391 . S
C532 C533 1.399 . S
C533 C532 1.399 . S
C533 C536 1.396 . S
C533 C545 1.453 . S
C533 C546 1.684 . S
H534 C558 0.948 . S
C535 C531 1.397 . S
C535 C536 1.394 . S
C535 C554 1.723 . S
C536 C533 1.396 . S
C536 C535 1.394 . S
C536 C566 1.723 . S
H537 C560 0.947 . S
H538 C561 0.948 . S
H539 C567 0.982 . S
H540 C568 0.979 . S
H541 C568 0.980 . S
H542 C568 0.983 . S
H543 C567 0.979 . S
H544 C567 0.977 . S
C545 C533 1.453 . S
C545 H574 0.982 . S
C545 H575 0.979 . S
C545 H576 0.977 . S
C546 C533 1.684 . S
C546 H571 0.979 . S
C546 H572 0.980 . S
C546 H573 0.983 . S
C547 C548 1.391 . S
C547 C552 1.391 . S
C547 H577 0.948 . S
C548 C547 1.391 . S
C548 C549 1.391 . S
C549 C548 1.391 . S
C549 C550 1.392 . S
C549 H578 0.947 . S
C550 C549 1.392 . S
C550 C551 1.419 . S
C550 H579 0.948 . S
C551 C550 1.419 . S
C551 C552 1.391 . S
C551 C555 1.397 . S
C552 C547 1.391 . S
C552 C551 1.391 . S
C552 C553 1.399 . S
C553 C552 1.399 . S
C553 C554 1.396 . S
C553 C556 1.453 . S
C553 C557 1.684 . S
C554 C535 1.723 . S
C554 C553 1.396 . S
C554 C555 1.394 . S
C555 C551 1.397 . S
C555 C554 1.394 . S
C555 C565 1.723 . S
C556 C553 1.453 . S
C556 H580 0.982 . S
C556 H581 0.979 . S
C556 H582 0.977 . S
C557 C553 1.684 . S
C557 H583 0.979 . S
C557 H584 0.980 . S
C557 H585 0.983 . S
C558 H534 0.948 . S
C558 C559 1.391 . S
C558 C563 1.391 . S
C559 C558 1.391 . S
C559 C560 1.391 . S
C560 H537 0.947 . S
C560 C559 1.391 . S
C560 C561 1.392 . S
C561 H538 0.948 . S
C561 C560 1.392 . S
C561 C562 1.419 . S
C562 C561 1.419 . S
C562 C563 1.391 . S
C562 C566 1.397 . S
C563 C558 1.391 . S
C563 C562 1.391 . S
C563 C564 1.399 . S
C564 C563 1.399 . S
C564 C565 1.396 . S
C564 C567 1.453 . S
C564 C568 1.684 . S
C565 C555 1.723 . S
C565 C564 1.396 . S
C565 C566 1.394 . S
C566 C536 1.723 . S
C566 C562 1.397 . S
C566 C565 1.394 . S
C567 H539 0.982 . S
C567 H543 0.979 . S
C567 H544 0.977 . S
C567 C564 1.453 . S
C568 H540 0.979 . S
C568 H541 0.980 . S
C568 H542 0.983 . S
C568 C564 1.684 . S
H569 C587 0.948 . S
H570 C528 0.948 . S
H571 C546 0.979 . S
H572 C546 0.980 . S
H573 C546 0.983 . S
H574 C545 0.982 . S
H575 C545 0.979 . S
H576 C545 0.977 . S
H577 C547 0.948 . S
H578 C549 0.947 . S
H579 C550 0.948 . S
H580 C556 0.982 . S
H581 C556 0.979 . S
H582 C556 0.977 . S
H583 C557 0.979 . S
H584 C557 0.980 . S
H585 C557 0.983 . S
H586 C530 0.947 . S
C587 C530 1.392 . S
C587 C531 1.419 . S
C587 H569 0.948 . S
C588 C589 1.391 . S
C588 C592 1.391 . S
C588 H630 0.948 . S
C589 C588 1.391 . S
C589 C590 1.391 . S
C590 C589 1.391 . S
C590 H646 0.947 . S
C590 C647 1.392 . S
C591 C592 1.391 . S
C591 C595 1.397 . S
C591 C647 1.419 . S
C592 C588 1.391 . S
C592 C591 1.391 . S
C592 C593 1.399 . S
C593 C592 1.399 . S
C593 C596 1.396 . S
C593 C605 1.453 . S
C593 C606 1.684 . S
H594 C618 0.948 . S
C595 C591 1.397 . S
C595 C596 1.394 . S
C595 C614 1.723 . S
C596 C593 1.396 . S
C596 C595 1.394 . S
C596 C626 1.723 . S
H597 C620 0.947 . S
H598 C621 0.948 . S
H599 C627 0.982 . S
H600 C628 0.979 . S
H601 C628 0.980 . S
H602 C628 0.983 . S
H603 C627 0.979 . S
H604 C627 0.977 . S
C605 C593 1.453 . S
C605 H634 0.982 . S
C605 H635 0.979 . S
C605 H636 0.977 . S
C606 C593 1.684 . S
C606 H631 0.979 . S
C606 H632 0.980 . S
C606 H633 0.983 . S
C607 C608 1.391 . S
C607 C612 1.391 . S
C607 H637 0.948 . S
C608 C607 1.391 . S
C608 C609 1.391 . S
C609 C608 1.391 . S
C609 C610 1.392 . S
C609 H638 0.947 . S
C610 C609 1.392 . S
C610 C611 1.419 . S
C610 H639 0.948 . S
C611 C610 1.419 . S
C611 C612 1.391 . S
C611 C615 1.397 . S
C612 C607 1.391 . S
C612 C611 1.391 . S
C612 C613 1.399 . S
C613 C612 1.399 . S
C613 C614 1.396 . S
C613 C616 1.453 . S
C613 C617 1.684 . S
C614 C595 1.723 . S
C614 C613 1.396 . S
C614 C615 1.394 . S
C615 C611 1.397 . S
C615 C614 1.394 . S
C615 C625 1.723 . S
C616 C613 1.453 . S
C616 H640 0.982 . S
C616 H641 0.979 . S
C616 H642 0.977 . S
C617 C613 1.684 . S
C617 H643 0.979 . S
C617 H644 0.980 . S
C617 H645 0.983 . S
C618 H594 0.948 . S
C618 C619 1.391 . S
C618 C623 1.391 . S
C619 C618 1.391 . S
C619 C620 1.391 . S
C620 H597 0.947 . S
C620 C619 1.391 . S
C620 C621 1.392 . S
C621 H598 0.948 . S
C621 C620 1.392 . S
C621 C622 1.419 . S
C622 C621 1.419 . S
C622 C623 1.391 . S
C622 C626 1.397 . S
C623 C618 1.391 . S
C623 C622 1.391 . S
C623 C624 1.399 . S
C624 C623 1.399 . S
C624 C625 1.396 . S
C624 C627 1.453 . S
C624 C628 1.684 . S
C625 C615 1.723 . S
C625 C624 1.396 . S
C625 C626 1.394 . S
C626 C596 1.723 . S
C626 C622 1.397 . S
C626 C625 1.394 . S
C627 H599 0.982 . S
C627 H603 0.979 . S
C627 H604 0.977 . S
C627 C624 1.453 . S
C628 H600 0.979 . S
C628 H601 0.980 . S
C628 H602 0.983 . S
C628 C624 1.684 . S
H629 C647 0.948 . S
H630 C588 0.948 . S
H631 C606 0.979 . S
H632 C606 0.980 . S
H633 C606 0.983 . S
H634 C605 0.982 . S
H635 C605 0.979 . S
H636 C605 0.977 . S
H637 C607 0.948 . S
H638 C609 0.947 . S
H639 C610 0.948 . S
H640 C616 0.982 . S
H641 C616 0.979 . S
H642 C616 0.977 . S
H643 C617 0.979 . S
H644 C617 0.980 . S
H645 C617 0.983 . S
H646 C590 0.947 . S
C647 C590 1.392 . S
C647 C591 1.419 . S
C647 H629 0.948 . S
C648 C649 1.391 . S
C648 C652 1.391 . S
C648 H690 0.948 . S
C649 C648 1.391 . S
C649 C650 1.391 . S
C650 C649 1.391 . S
C650 H706 0.947 . S
C650 C707 1.392 . S
C651 C652 1.391 . S
C651 C655 1.397 . S
C651 C707 1.419 . S
C652 C648 1.391 . S
C652 C651 1.391 . S
C652 C653 1.399 . S
C653 C652 1.399 . S
C653 C656 1.396 . S
C653 C665 1.453 . S
C653 C666 1.684 . S
H654 C678 0.948 . S
C655 C651 1.397 . S
C655 C656 1.394 . S
C655 C674 1.723 . S
C656 C653 1.396 . S
C656 C655 1.394 . S
C656 C686 1.723 . S
H657 C680 0.947 . S
H658 C681 0.948 . S
H659 C687 0.982 . S
H660 C688 0.979 . S
H661 C688 0.980 . S
H662 C688 0.983 . S
H663 C687 0.979 . S
H664 C687 0.977 . S
C665 C653 1.453 . S
C665 H694 0.982 . S
C665 H695 0.979 . S
C665 H696 0.977 . S
C666 C653 1.684 . S
C666 H691 0.979 . S
C666 H692 0.980 . S
C666 H693 0.983 . S
C667 C668 1.391 . S
C667 C672 1.391 . S
C667 H697 0.948 . S
C668 C667 1.391 . S
C668 C669 1.391 . S
C669 C668 1.391 . S
C669 C670 1.392 . S
C669 H698 0.947 . S
C670 C669 1.392 . S
C670 C671 1.419 . S
C670 H699 0.948 . S
C671 C670 1.419 . S
C671 C672 1.391 . S
C671 C675 1.397 . S
C672 C667 1.391 . S
C672 C671 1.391 . S
C672 C673 1.399 . S
C673 C672 1.399 . S
C673 C674 1.396 . S
C673 C676 1.453 . S
C673 C677 1.684 . S
C674 C655 1.723 . S
C674 C673 1.396 . S
C674 C675 1.394 . S
C675 C671 1.397 . S
C675 C674 1.394 . S
C675 C685 1.723 . S
C676 C673 1.453 . S
C676 H700 0.982 . S
C676 H701 0.979 . S
C676 H702 0.977 . S
C677 C673 1.684 . S
C677 H703 0.979 . S
C677 H704 0.980 . S
C677 H705 0.983 . S
C678 H654 0.948 . S
C678 C679 1.391 . S
C678 C683 1.391 . S
C679 C678 1.391 . S
C679 C680 1.391 . S
C680 H657 0.947 . S
C680 C679 1.391 . S
C680 C681 1.392 . S
C681 H658 0.948 . S
C681 C680 1.392 . S
C681 C682 1.419 . S
C682 C681 1.419 . S
C682 C683 1.391 . S
C682 C686 1.397 . S
C683 C678 1.391 . S
C683 C682 1.391 . S
C683 C684 1.399 . S
C684 C683 1.399 . S
C684 C685 1.396 . S
C684 C687 1.453 . S
C684 C688 1.684 . S
C685 C675 1.723 . S
C685 C684 1.396 . S
C685 C686 1.394 . S
C686 C656 1.723 . S
C686 C682 1.397 . S
C686 C685 1.394 . S
C687 H659 0.982 . S
C687 H663 0.979 . S
C687 H664 0.977 . S
C687 C684 1.453 . S
C688 H660 0.979 . S
C688 H661 0.980 . S
C688 H662 0.983 . S
C688 C684 1.684 . S
H689 C707 0.948 . S
H690 C648 0.948 . S
H691 C666 0.979 . S
H692 C666 0.980 . S
H693 C666 0.983 . S
H694 C665 0.982 . S
H695 C665 0.979 . S
H696 C665 0.977 . S
H697 C667 0.948 . S
H698 C669 0.947 . S
H699 C670 0.948 . S
H700 C676 0.982 . S
H701 C676 0.979 . S
H702 C676 0.977 . S
H703 C677 0.979 . S
H704 C677 0.980 . S
H705 C677 0.983 . S
H706 C650 0.947 . S
C707 C650 1.392 . S
C707 C651 1.419 . S
C707 H689 0.948 . S
C708 C709 1.391 . S
C708 C712 1.391 . S
C708 H750 0.948 . S
C709 C708 1.391 . S
C709 C710 1.391 . S
C710 C709 1.391 . S
C710 H766 0.947 . S
C710 C767 1.392 . S
C711 C712 1.391 . S
C711 C715 1.397 . S
C711 C767 1.419 . S
C712 C708 1.391 . S
C712 C711 1.391 . S
C712 C713 1.399 . S
C713 C712 1.399 . S
C713 C716 1.396 . S
C713 C725 1.453 . S
C713 C726 1.684 . S
H714 C738 0.948 . S
C715 C711 1.397 . S
C715 C716 1.394 . S
C715 C734 1.723 . S
C716 C713 1.396 . S
C716 C715 1.394 . S
C716 C746 1.723 . S
H717 C740 0.947 . S
H718 C741 0.948 . S
H719 C747 0.982 . S
H720 C748 0.979 . S
H721 C748 0.980 . S
H722 C748 0.983 . S
H723 C747 0.979 . S
H724 C747 0.977 . S
C725 C713 1.453 . S
C725 H754 0.982 . S
C725 H755 0.979 . S
C725 H756 0.977 . S
C726 C713 1.684 . S
C726 H751 0.979 . S
C726 H752 0.980 . S
C726 H753 0.983 . S
C727 C728 1.391 . S
C727 C732 1.391 . S
C727 H757 0.948 . S
C728 C727 1.391 . S
C728 C729 1.391 . S
C729 C728 1.391 . S
C729 C730 1.392 . S
C729 H758 0.947 . S
C730 C729 1.392 . S
C730 C731 1.419 . S
C730 H759 0.948 . S
C731 C730 1.419 . S
C731 C732 1.391 . S
C731 C735 1.397 . S
C732 C727 1.391 . S
C732 C731 1.391 . S
C732 C733 1.399 . S
C733 C732 1.399 . S
C733 C734 1.396 . S
C733 C736 1.453 . S
C733 C737 1.684 . S
C734 C715 1.723 . S
C734 C733 1.396 . S
C734 C735 1.394 . S
C735 C731 1.397 . S
C735 C734 1.394 . S
C735 C745 1.723 . S
C736 C733 1.453 . S
C736 H760 0.982 . S
C736 H761 0.979 . S
C736 H762 0.977 . S
C737 C733 1.684 . S
C737 H763 0.979 . S
C737 H764 0.980 . S
C737 H765 0.983 . S
C738 H714 0.948 . S
C738 C739 1.391 . S
C738 C743 1.391 . S
C739 C738 1.391 . S
C739 C740 1.391 . S
C740 H717 0.947 . S
C740 C739 1.391 . S
C740 C741 1.392 . S
C741 H718 0.948 . S
C741 C740 1.392 . S
C741 C742 1.419 . S
C742 C741 1.419 . S
C742 C743 1.391 . S
C742 C746 1.397 . S
C743 C738 1.391 . S
C743 C742 1.391 . S
C743 C744 1.399 . S
C744 C743 1.399 . S
C744 C745 1.396 . S
C744 C747 1.453 . S
C744 C748 1.684 . S
C745 C735 1.723 . S
C745 C744 1.396 . S
C745 C746 1.394 . S
C746 C716 1.723 . S
C746 C742 1.397 . S
C746 C745 1.394 . S
C747 H719 0.982 . S
C747 H723 0.979 . S
C747 H724 0.977 . S
C747 C744 1.453 . S
C748 H720 0.979 . S
C748 H721 0.980 . S
C748 H722 0.983 . S
C748 C744 1.684 . S
H749 C767 0.948 . S
H750 C708 0.948 . S
H751 C726 0.979 . S
H752 C726 0.980 . S
H753 C726 0.983 . S
H754 C725 0.982 . S
H755 C725 0.979 . S
H756 C725 0.977 . S
H757 C727 0.948 . S
H758 C729 0.947 . S
H759 C730 0.948 . S
H760 C736 0.982 . S
H761 C736 0.979 . S
H762 C736 0.977 . S
H763 C737 0.979 . S
H764 C737 0.980 . S
H765 C737 0.983 . S
H766 C710 0.947 . S
C767 C710 1.392 . S
C767 C711 1.419 . S
C767 H749 0.948 . S
C768 C769 1.391 . S
C768 C772 1.391 . S
C768 H810 0.948 . S
C769 C768 1.391 . S
C769 C770 1.391 . S
C770 C769 1.391 . S
C770 H826 0.947 . S
C770 C827 1.392 . S
C771 C772 1.391 . S
C771 C775 1.397 . S
C771 C827 1.419 . S
C772 C768 1.391 . S
C772 C771 1.391 . S
C772 C773 1.399 . S
C773 C772 1.399 . S
C773 C776 1.396 . S
C773 C785 1.453 . S
C773 C786 1.684 . S
H774 C798 0.948 . S
C775 C771 1.397 . S
C775 C776 1.394 . S
C775 C794 1.723 . S
C776 C773 1.396 . S
C776 C775 1.394 . S
C776 C806 1.723 . S
H777 C800 0.947 . S
H778 C801 0.948 . S
H779 C807 0.982 . S
H780 C808 0.979 . S
H781 C808 0.980 . S
H782 C808 0.983 . S
H783 C807 0.979 . S
H784 C807 0.977 . S
C785 C773 1.453 . S
C785 H814 0.982 . S
C785 H815 0.979 . S
C785 H816 0.977 . S
C786 C773 1.684 . S
C786 H811 0.979 . S
C786 H812 0.980 . S
C786 H813 0.983 . S
C787 C788 1.391 . S
C787 C792 1.391 . S
C787 H817 0.948 . S
C788 C787 1.391 . S
C788 C789 1.391 . S
C789 C788 1.391 . S
C789 C790 1.392 . S
C789 H818 0.947 . S
C790 C789 1.392 . S
C790 C791 1.419 . S
C790 H819 0.948 . S
C791 C790 1.419 . S
C791 C792 1.391 . S
C791 C795 1.397 . S
C792 C787 1.391 . S
C792 C791 1.391 . S
C792 C793 1.399 . S
C793 C792 1.399 . S
C793 C794 1.396 . S
C793 C796 1.453 . S
C793 C797 1.684 . S
C794 C775 1.723 . S
C794 C793 1.396 . S
C794 C795 1.394 . S
C795 C791 1.397 . S
C795 C794 1.394 . S
C795 C805 1.723 . S
C796 C793 1.453 . S
C796 H820 0.982 . S
C796 H821 0.979 . S
C796 H822 0.977 . S
C797 C793 1.684 . S
C797 H823 0.979 . S
C797 H824 0.980 . S
C797 H825 0.983 . S
C798 H774 0.948 . S
C798 C799 1.391 . S
C798 C803 1.391 . S
C799 C798 1.391 . S
C799 C800 1.391 . S
C800 H777 0.947 . S
C800 C799 1.391 . S
C800 C801 1.392 . S
C801 H778 0.948 . S
C801 C800 1.392 . S
C801 C802 1.419 . S
C802 C801 1.419 . S
C802 C803 1.391 . S
C802 C806 1.397 . S
C803 C798 1.391 . S
C803 C802 1.391 . S
C803 C804 1.399 . S
C804 C803 1.399 . S
C804 C805 1.396 . S
C804 C807 1.453 . S
C804 C808 1.684 . S
C805 C795 1.723 . S
C805 C804 1.396 . S
C805 C806 1.394 . S
C806 C776 1.723 . S
C806 C802 1.397 . S
C806 C805 1.394 . S
C807 H779 0.982 . S
C807 H783 0.979 . S
C807 H784 0.977 . S
C807 C804 1.453 . S
C808 H780 0.979 . S
C808 H781 0.980 . S
C808 H782 0.983 . S
C808 C804 1.684 . S
H809 C827 0.948 . S
H810 C768 0.948 . S
H811 C786 0.979 . S
H812 C786 0.980 . S
H813 C786 0.983 . S
H814 C785 0.982 . S
H815 C785 0.979 . S
H816 C785 0.977 . S
H817 C787 0.948 . S
H818 C789 0.947 . S
H819 C790 0.948 . S
H820 C796 0.982 . S
H821 C796 0.979 . S
H822 C796 0.977 . S
H823 C797 0.979 . S
H824 C797 0.980 . S
H825 C797 0.983 . S
H826 C770 0.947 . S
C827 C770 1.392 . S
C827 C771 1.419 . S
C827 H809 0.948 . S
C828 C829 1.391 . S
C828 C832 1.391 . S
C828 H870 0.948 . S
C829 C828 1.391 . S
C829 C830 1.391 . S
C830 C829 1.391 . S
C830 H886 0.947 . S
C830 C887 1.392 . S
C831 C832 1.391 . S
C831 C835 1.397 . S
C831 C887 1.419 . S
C832 C828 1.391 . S
C832 C831 1.391 . S
C832 C833 1.399 . S
C833 C832 1.399 . S
C833 C836 1.396 . S
C833 C845 1.453 . S
C833 C846 1.684 . S
H834 C858 0.948 . S
C835 C831 1.397 . S
C835 C836 1.394 . S
C835 C854 1.723 . S
C836 C833 1.396 . S
C836 C835 1.394 . S
C836 C866 1.723 . S
H837 C860 0.947 . S
H838 C861 0.948 . S
H839 C867 0.982 . S
H840 C868 0.979 . S
H841 C868 0.980 . S
H842 C868 0.983 . S
H843 C867 0.979 . S
H844 C867 0.977 . S
C845 C833 1.453 . S
C845 H874 0.982 . S
C845 H875 0.979 . S
C845 H876 0.977 . S
C846 C833 1.684 . S
C846 H871 0.979 . S
C846 H872 0.980 . S
C846 H873 0.983 . S
C847 C848 1.391 . S
C847 C852 1.391 . S
C847 H877 0.948 . S
C848 C847 1.391 . S
C848 C849 1.391 . S
C849 C848 1.391 . S
C849 C850 1.392 . S
C849 H878 0.947 . S
C850 C849 1.392 . S
C850 C851 1.419 . S
C850 H879 0.948 . S
C851 C850 1.419 . S
C851 C852 1.391 . S
C851 C855 1.397 . S
C852 C847 1.391 . S
C852 C851 1.391 . S
C852 C853 1.399 . S
C853 C852 1.399 . S
C853 C854 1.396 . S
C853 C856 1.453 . S
C853 C857 1.684 . S
C854 C835 1.723 . S
C854 C853 1.396 . S
C854 C855 1.394 . S
C855 C851 1.397 . S
C855 C854 1.394 . S
C855 C865 1.723 . S
C856 C853 1.453 . S
C856 H880 0.982 . S
C856 H881 0.979 . S
C856 H882 0.977 . S
C857 C853 1.684 . S
C857 H883 0.979 . S
C857 H884 0.980 . S
C857 H885 0.983 . S
C858 H834 0.948 . S
C858 C859 1.391 . S
C858 C863 1.391 . S
C859 C858 1.391 . S
C859 C860 1.391 . S
C860 H837 0.947 . S
C860 C859 1.391 . S
C860 C861 1.392 . S
C861 H838 0.948 . S
C861 C860 1.392 . S
C861 C862 1.419 . S
C862 C861 1.419 . S
C862 C863 1.391 . S
C862 C866 1.397 . S
C863 C858 1.391 . S
C863 C862 1.391 . S
C863 C864 1.399 . S
C864 C863 1.399 . S
C864 C865 1.396 . S
C864 C867 1.453 . S
C864 C868 1.684 . S
C865 C855 1.723 . S
C865 C864 1.396 . S
C865 C866 1.394 . S
C866 C836 1.723 . S
C866 C862 1.397 . S
C866 C865 1.394 . S
C867 H839 0.982 . S
C867 H843 0.979 . S
C867 H844 0.977 . S
C867 C864 1.453 . S
C868 H840 0.979 . S
C868 H841 0.980 . S
C868 H842 0.983 . S
C868 C864 1.684 . S
H869 C887 0.948 . S
H870 C828 0.948 . S
H871 C846 0.979 . S
H872 C846 0.980 . S
H873 C846 0.983 . S
H874 C845 0.982 . S
H875 C845 0.979 . S
H876 C845 0.977 . S
H877 C847 0.948 . S
H878 C849 0.947 . S
H879 C850 0.948 . S
H880 C856 0.982 . S
H881 C856 0.979 . S
H882 C856 0.977 . S
H883 C857 0.979 . S
H884 C857 0.980 . S
H885 C857 0.983 . S
H886 C830 0.947 . S
C887 C830 1.392 . S
C887 C831 1.419 . S
C887 H869 0.948 . S
C888 C889 1.391 . S
C888 C892 1.391 . S
C888 H930 0.948 . S
C889 C888 1.391 . S
C889 C890 1.391 . S
C890 C889 1.391 . S
C890 H946 0.947 . S
C890 C947 1.392 . S
C891 C892 1.391 . S
C891 C895 1.397 . S
C891 C947 1.419 . S
C892 C888 1.391 . S
C892 C891 1.391 . S
C892 C893 1.399 . S
C893 C892 1.399 . S
C893 C896 1.396 . S
C893 C905 1.453 . S
C893 C906 1.684 . S
H894 C918 0.948 . S
C895 C891 1.397 . S
C895 C896 1.394 . S
C895 C914 1.723 . S
C896 C893 1.396 . S
C896 C895 1.394 . S
C896 C926 1.723 . S
H897 C920 0.947 . S
H898 C921 0.948 . S
H899 C927 0.982 . S
H900 C928 0.979 . S
H901 C928 0.980 . S
H902 C928 0.983 . S
H903 C927 0.979 . S
H904 C927 0.977 . S
C905 C893 1.453 . S
C905 H934 0.982 . S
C905 H935 0.979 . S
C905 H936 0.977 . S
C906 C893 1.684 . S
C906 H931 0.979 . S
C906 H932 0.980 . S
C906 H933 0.983 . S
C907 C908 1.391 . S
C907 C912 1.391 . S
C907 H937 0.948 . S
C908 C907 1.391 . S
C908 C909 1.391 . S
C909 C908 1.391 . S
C909 C910 1.392 . S
C909 H938 0.947 . S
C910 C909 1.392 . S
C910 C911 1.419 . S
C910 H939 0.948 . S
C911 C910 1.419 . S
C911 C912 1.391 . S
C911 C915 1.397 . S
C912 C907 1.391 . S
C912 C911 1.391 . S
C912 C913 1.399 . S
C913 C912 1.399 . S
C913 C914 1.396 . S
C913 C916 1.453 . S
C913 C917 1.684 . S
C914 C895 1.723 . S
C914 C913 1.396 . S
C914 C915 1.394 . S
C915 C911 1.397 . S
C915 C914 1.394 . S
C915 C925 1.723 . S
C916 C913 1.453 . S
C916 H940 0.982 . S
C916 H941 0.979 . S
C916 H942 0.977 . S
C917 C913 1.684 . S
C917 H943 0.979 . S
C917 H944 0.980 . S
C917 H945 0.983 . S
C918 H894 0.948 . S
C918 C919 1.391 . S
C918 C923 1.391 . S
C919 C918 1.391 . S
C919 C920 1.391 . S
C920 H897 0.947 . S
C920 C919 1.391 . S
C920 C921 1.392 . S
C921 H898 0.948 . S
C921 C920 1.392 . S
C921 C922 1.419 . S
C922 C921 1.419 . S
C922 C923 1.391 . S
C922 C926 1.397 . S
C923 C918 1.391 . S
C923 C922 1.391 . S
C923 C924 1.399 . S
C924 C923 1.399 . S
C924 C925 1.396 . S
C924 C927 1.453 . S
C924 C928 1.684 . S
C925 C915 1.723 . S
C925 C924 1.396 . S
C925 C926 1.394 . S
C926 C896 1.723 . S
C926 C922 1.397 . S
C926 C925 1.394 . S
C927 H899 0.982 . S
C927 H903 0.979 . S
C927 H904 0.977 . S
C927 C924 1.453 . S
C928 H900 0.979 . S
C928 H901 0.980 . S
C928 H902 0.983 . S
C928 C924 1.684 . S
H929 C947 0.948 . S
H930 C888 0.948 . S
H931 C906 0.979 . S
H932 C906 0.980 . S
H933 C906 0.983 . S
H934 C905 0.982 . S
H935 C905 0.979 . S
H936 C905 0.977 . S
H937 C907 0.948 . S
H938 C909 0.947 . S
H939 C910 0.948 . S
H940 C916 0.982 . S
H941 C916 0.979 . S
H942 C916 0.977 . S
H943 C917 0.979 . S
H944 C917 0.980 . S
H945 C917 0.983 . S
H946 C890 0.947 . S
C947 C890 1.392 . S
C947 C891 1.419 . S
C947 H929 0.948 . S
C948 C949 1.391 . S
C948 C952 1.391 . S
C948 H990 0.948 . S
C949 C948 1.391 . S
C949 C950 1.391 . S
C950 C949 1.391 . S
C950 H1006 0.947 . S
C950 C1007 1.392 . S
C951 C952 1.391 . S
C951 C955 1.397 . S
C951 C1007 1.419 . S
C952 C948 1.391 . S
C952 C951 1.391 . S
C952 C953 1.399 . S
C953 C952 1.399 . S
C953 C956 1.396 . S
C953 C965 1.453 . S
C953 C966 1.684 . S
H954 C978 0.948 . S
C955 C951 1.397 . S
C955 C956 1.394 . S
C955 C974 1.723 . S
C956 C953 1.396 . S
C956 C955 1.394 . S
C956 C986 1.723 . S
H957 C980 0.947 . S
H958 C981 0.948 . S
H959 C987 0.982 . S
H960 C988 0.979 . S
H961 C988 0.980 . S
H962 C988 0.983 . S
H963 C987 0.979 . S
H964 C987 0.977 . S
C965 C953 1.453 . S
C965 H994 0.982 . S
C965 H995 0.979 . S
C965 H996 0.977 . S
C966 C953 1.684 . S
C966 H991 0.979 . S
C966 H992 0.980 . S
C966 H993 0.983 . S
C967 C968 1.391 . S
C967 C972 1.391 . S
C967 H997 0.948 . S
C968 C967 1.391 . S
C968 C969 1.391 . S
C969 C968 1.391 . S
C969 C970 1.392 . S
C969 H998 0.947 . S
C970 C969 1.392 . S
C970 C971 1.419 . S
C970 H999 0.948 . S
C971 C970 1.419 . S
C971 C972 1.391 . S
C971 C975 1.397 . S
C972 C967 1.391 . S
C972 C971 1.391 . S
C972 C973 1.399 . S
C973 C972 1.399 . S
C973 C974 1.396 . S
C973 C976 1.453 . S
C973 C977 1.684 . S
C974 C955 1.723 . S
C974 C973 1.396 . S
C974 C975 1.394 . S
C975 C971 1.397 . S
C975 C974 1.394 . S
C975 C985 1.723 . S
C976 C973 1.453 . S
C976 H1000 0.982 . S
C976 H1001 0.979 . S
C976 H1002 0.977 . S
C977 C973 1.684 . S
C977 H1003 0.979 . S
C977 H1004 0.980 . S
C977 H1005 0.983 . S
C978 H954 0.948 . S
C978 C979 1.391 . S
C978 C983 1.391 . S
C979 C978 1.391 . S
C979 C980 1.391 . S
C980 H957 0.947 . S
C980 C979 1.391 . S
C980 C981 1.392 . S
C981 H958 0.948 . S
C981 C980 1.392 . S
C981 C982 1.419 . S
C982 C981 1.419 . S
C982 C983 1.391 . S
C982 C986 1.397 . S
C983 C978 1.391 . S
C983 C982 1.391 . S
C983 C984 1.399 . S
C984 C983 1.399 . S
C984 C985 1.396 . S
C984 C987 1.453 . S
C984 C988 1.684 . S
C985 C975 1.723 . S
C985 C984 1.396 . S
C985 C986 1.394 . S
C986 C956 1.723 . S
C986 C982 1.397 . S
C986 C985 1.394 . S
C987 H959 0.982 . S
C987 H963 0.979 . S
C987 H964 0.977 . S
C987 C984 1.453 . S
C988 H960 0.979 . S
C988 H961 0.980 . S
C988 H962 0.983 . S
C988 C984 1.684 . S
H989 C1007 0.948 . S
H990 C948 0.948 . S
H991 C966 0.979 . S
H992 C966 0.980 . S
H993 C966 0.983 . S
H994 C965 0.982 . S
H995 C965 0.979 . S
H996 C965 0.977 . S
H997 C967 0.948 . S
H998 C969 0.947 . S
H999 C970 0.948 . S
H1000 C976 0.982 . S
H1001 C976 0.979 . S
H1002 C976 0.977 . S
H1003 C977 0.979 . S
H1004 C977 0.980 . S
H1005 C977 0.983 . S
H1006 C950 0.947 . S
C1007 C950 1.392 . S
C1007 C951 1.419 . S
C1007 H989 0.948 . S
C1008 C1009 1.391 . S
C1008 C1012 1.391 . S
C1008 H1050 0.948 . S
C1009 C1008 1.391 . S
C1009 C1010 1.391 . S
C1010 C1009 1.391 . S
C1010 H1066 0.947 . S
C1010 C1067 1.392 . S
C1011 C1012 1.391 . S
C1011 C1015 1.397 . S
C1011 C1067 1.419 . S
C1012 C1008 1.391 . S
C1012 C1011 1.391 . S
C1012 C1013 1.399 . S
C1013 C1012 1.399 . S
C1013 C1016 1.396 . S
C1013 C1025 1.453 . S
C1013 C1026 1.684 . S
H1014 C1038 0.948 . S
C1015 C1011 1.397 . S
C1015 C1016 1.394 . S
C1015 C1034 1.723 . S
C1016 C1013 1.396 . S
C1016 C1015 1.394 . S
C1016 C1046 1.723 . S
H1017 C1040 0.947 . S
H1018 C1041 0.948 . S
H1019 C1047 0.982 . S
H1020 C1048 0.979 . S
H1021 C1048 0.980 . S
H1022 C1048 0.983 . S
H1023 C1047 0.979 . S
H1024 C1047 0.977 . S
C1025 C1013 1.453 . S
C1025 H1054 0.982 . S
C1025 H1055 0.979 . S
C1025 H1056 0.977 . S
C1026 C1013 1.684 . S
C1026 H1051 0.979 . S
C1026 H1052 0.980 . S
C1026 H1053 0.983 . S
C1027 C1028 1.391 . S
C1027 C1032 1.391 . S
C1027 H1057 0.948 . S
C1028 C1027 1.391 . S
C1028 C1029 1.391 . S
C1029 C1028 1.391 . S
C1029 C1030 1.392 . S
C1029 H1058 0.947 . S
C1030 C1029 1.392 . S
C1030 C1031 1.419 . S
C1030 H1059 0.948 . S
C1031 C1030 1.419 . S
C1031 C1032 1.391 . S
C1031 C1035 1.397 . S
C1032 C1027 1.391 . S
C1032 C1031 1.391 . S
C1032 C1033 1.399 . S
C1033 C1032 1.399 . S
C1033 C1034 1.396 . S
C1033 C1036 1.453 . S
C1033 C1037 1.684 . S
C1034 C1015 1.723 . S
C1034 C1033 1.396 . S
C1034 C1035 1.394 . S
C1035 C1031 1.397 . S
C1035 C1034 1.394 . S
C1035 C1045 1.723 . S
C1036 C1033 1.453 . S
C1036 H1060 0.982 . S
C1036 H1061 0.979 . S
C1036 H1062 0.977 . S
C1037 C1033 1.684 . S
C1037 H1063 0.979 . S
C1037 H1064 0.980 . S
C1037 H1065 0.983 . S
C1038 H1014 0.948 . S
C1038 C1039 1.391 . S
C1038 C1043 1.391 . S
C1039 C1038 1.391 . S
C1039 C1040 1.391 . S
C1040 H1017 0.947 . S
C1040 C1039 1.391 . S
C1040 C1041 1.392 . S
C1041 H1018 0.948 . S
C1041 C1040 1.392 . S
C1041 C1042 1.419 . S
C1042 C1041 1.419 . S
C1042 C1043 1.391 . S
C1042 C1046 1.397 . S
C1043 C1038 1.391 . S
C1043 C1042 1.391 . S
C1043 C1044 1.399 . S
C1044 C1043 1.399 . S
C1044 C1045 1.396 . S
C1044 C1047 1.453 . S
C1044 C1048 1.684 . S
C1045 C1035 1.723 . S
C1045 C1044 1.396 . S
C1045 C1046 1.394 . S
C1046 C1016 1.723 . S
C1046 C1042 1.397 . S
C1046 C1045 1.394 . S
C1047 H1019 0.982 . S
C1047 H1023 0.979 . S
C1047 H1024 0.977 . S
C1047 C1044 1.453 . S
C1048 H1020 0.979 . S
C1048 H1021 0.980 . S
C1048 H1022 0.983 . S
C1048 C1044 1.684 . S
H1049 C1067 0.948 . S
H1050 C1008 0.948 . S
H1051 C1026 0.979 . S
H1052 C1026 0.980 . S
H1053 C1026 0.983 . S
H1054 C1025 0.982 . S
H1055 C1025 0.979 . S
H1056 C1025 0.977 . S
H1057 C1027 0.948 . S
H1058 C1029 0.947 . S
H1059 C1030 0.948 . S
H1060 C1036 0.982 . S
H1061 C1036 0.979 . S
H1062 C1036 0.977 . S
H1063 C1037 0.979 . S
H1064 C1037 0.980 . S
H1065 C1037 0.983 . S
H1066 C1010 0.947 . S
C1067 C1010 1.392 . S
C1067 C1011 1.419 . S
C1067 H1049 0.948 . S
C1068 C1069 1.391 . S
C1068 C1072 1.391 . S
C1068 H1110 0.948 . S
C1069 C1068 1.391 . S
C1069 C1070 1.391 . S
C1070 C1069 1.391 . S
C1070 H1126 0.947 . S
C1070 C1127 1.392 . S
C1071 C1072 1.391 . S
C1071 C1075 1.397 . S
C1071 C1127 1.419 . S
C1072 C1068 1.391 . S
C1072 C1071 1.391 . S
C1072 C1073 1.399 . S
C1073 C1072 1.399 . S
C1073 C1076 1.396 . S
C1073 C1085 1.453 . S
C1073 C1086 1.684 . S
H1074 C1098 0.948 . S
C1075 C1071 1.397 . S
C1075 C1076 1.394 . S
C1075 C1094 1.723 . S
C1076 C1073 1.396 . S
C1076 C1075 1.394 . S
C1076 C1106 1.723 . S
H1077 C1100 0.947 . S
H1078 C1101 0.948 . S
H1079 C1107 0.982 . S
H1080 C1108 0.979 . S
H1081 C1108 0.980 . S
H1082 C1108 0.983 . S
H1083 C1107 0.979 . S
H1084 C1107 0.977 . S
C1085 C1073 1.453 . S
C1085 H1114 0.982 . S
C1085 H1115 0.979 . S
C1085 H1116 0.977 . S
C1086 C1073 1.684 . S
C1086 H1111 0.979 . S
C1086 H1112 0.980 . S
C1086 H1113 0.983 . S
C1087 C1088 1.391 . S
C1087 C1092 1.391 . S
C1087 H1117 0.948 . S
C1088 C1087 1.391 . S
C1088 C1089 1.391 . S
C1089 C1088 1.391 . S
C1089 C1090 1.392 . S
C1089 H1118 0.947 . S
C1090 C1089 1.392 . S
C1090 C1091 1.419 . S
C1090 H1119 0.948 . S
C1091 C1090 1.419 . S
C1091 C1092 1.391 . S
C1091 C1095 1.397 . S
C1092 C1087 1.391 . S
C1092 C1091 1.391 . S
C1092 C1093 1.399 . S
C1093 C1092 1.399 . S
C1093 C1094 1.396 . S
C1093 C1096 1.453 . S
C1093 C1097 1.684 . S
C1094 C1075 1.723 . S
C1094 C1093 1.396 . S
C1094 C1095 1.394 . S
C1095 C1091 1.397 . S
C1095 C1094 1.394 . S
C1095 C1105 1.723 . S
C1096 C1093 1.453 . S
C1096 H1120 0.982 . S
C1096 H1121 0.979 . S
C1096 H1122 0.977 . S
C1097 C1093 1.684 . S
C1097 H1123 0.979 . S
C1097 H1124 0.980 . S
C1097 H1125 0.983 . S
C1098 H1074 0.948 . S
C1098 C1099 1.391 . S
C1098 C1103 1.391 . S
C1099 C1098 1.391 . S
C1099 C1100 1.391 . S
C1100 H1077 0.947 . S
C1100 C1099 1.391 . S
C1100 C1101 1.392 . S
C1101 H1078 0.948 . S
C1101 C1100 1.392 . S
C1101 C1102 1.419 . S
C1102 C1101 1.419 . S
C1102 C1103 1.391 . S
C1102 C1106 1.397 . S
C1103 C1098 1.391 . S
C1103 C1102 1.391 . S
C1103 C1104 1.399 . S
C1104 C1103 1.399 . S
C1104 C1105 1.396 . S
C1104 C1107 1.453 . S
C1104 C1108 1.684 . S
C1105 C1095 1.723 . S
C1105 C1104 1.396 . S
C1105 C1106 1.394 . S
C1106 C1076 1.723 . S
C1106 C1102 1.397 . S
C1106 C1105 1.394 . S
C1107 H1079 0.982 . S
C1107 H1083 0.979 . S
C1107 H1084 0.977 . S
C1107 C1104 1.453 . S
C1108 H1080 0.979 . S
C1108 H1081 0.980 . S
C1108 H1082 0.983 . S
C1108 C1104 1.684 . S
H1109 C1127 0.948 . S
H1110 C1068 0.948 . S
H1111 C1086 0.979 . S
H1112 C1086 0.980 . S
H1113 C1086 0.983 . S
H1114 C1085 0.982 . S
H1115 C1085 0.979 . S
H1116 C1085 0.977 . S
H1117 C1087 0.948 . S
H1118 C1089 0.947 . S
H1119 C1090 0.948 . S
H1120 C1096 0.982 . S
H1121 C1096 0.979 . S
H1122 C1096 0.977 . S
H1123 C1097 0.979 . S
H1124 C1097 0.980 . S
H1125 C1097 0.983 . S
H1126 C1070 0.947 . S
C1127 C1070 1.392 . S
C1127 C1071 1.419 . S
C1127 H1109 0.948 . S
C1128 C1129 1.391 . S
C1128 C1132 1.391 . S
C1128 H1170 0.948 . S
C1129 C1128 1.391 . S
C1129 C1130 1.391 . S
C1130 C1129 1.391 . S
C1130 H1186 0.947 . S
C1130 C1187 1.392 . S
C1131 C1132 1.391 . S
C1131 C1135 1.397 . S
C1131 C1187 1.419 . S
C1132 C1128 1.391 . S
C1132 C1131 1.391 . S
C1132 C1133 1.399 . S
C1133 C1132 1.399 . S
C1133 C1136 1.396 . S
C1133 C1145 1.453 . S
C1133 C1146 1.684 . S
H1134 C1158 0.948 . S
C1135 C1131 1.397 . S
C1135 C1136 1.394 . S
C1135 C1154 1.723 . S
C1136 C1133 1.396 . S
C1136 C1135 1.394 . S
C1136 C1166 1.723 . S
H1137 C1160 0.947 . S
H1138 C1161 0.948 . S
H1139 C1167 0.982 . S
H1140 C1168 0.979 . S
H1141 C1168 0.980 . S
H1142 C1168 0.983 . S
H1143 C1167 0.979 . S
H1144 C1167 0.977 . S
C1145 C1133 1.453 . S
C1145 H1174 0.982 . S
C1145 H1175 0.979 . S
C1145 H1176 0.977 . S
C1146 C1133 1.684 . S
C1146 H1171 0.979 . S
C1146 H1172 0.980 . S
C1146 H1173 0.983 . S
C1147 C1148 1.391 . S
C1147 C1152 1.391 . S
C1147 H1177 0.948 . S
C1148 C1147 1.391 . S
C1148 C1149 1.391 . S
C1149 C1148 1.391 . S
C1149 C1150 1.392 . S
C1149 H1178 0.947 . S
C1150 C1149 1.392 . S
C1150 C1151 1.419 . S
C1150 H1179 0.948 . S
C1151 C1150 1.419 . S
C1151 C1152 1.391 . S
C1151 C1155 1.397 . S
C1152 C1147 1.391 . S
C1152 C1151 1.391 . S
C1152 C1153 1.399 . S
C1153 C1152 1.399 . S
C1153 C1154 1.396 . S
C1153 C1156 1.453 . S
C1153 C1157 1.684 . S
C1154 C1135 1.723 . S
C1154 C1153 1.396 . S
C1154 C1155 1.394 . S
C1155 C1151 1.397 . S
C1155 C1154 1.394 . S
C1155 C1165 1.723 . S
C1156 C1153 1.453 . S
C1156 H1180 0.982 . S
C1156 H1181 0.979 . S
C1156 H1182 0.977 . S
C1157 C1153 1.684 . S
C1157 H1183 0.979 . S
C1157 H1184 0.980 . S
C1157 H1185 0.983 . S
C1158 H1134 0.948 . S
C1158 C1159 1.391 . S
C1158 C1163 1.391 . S
C1159 C1158 1.391 . S
C1159 C1160 1.391 . S
C1160 H1137 0.947 . S
C1160 C1159 1.391 . S
C1160 C1161 1.392 . S
C1161 H1138 0.948 . S
C1161 C1160 1.392 . S
C1161 C1162 1.419 . S
C1162 C1161 1.419 . S
C1162 C1163 1.391 . S
C1162 C1166 1.397 . S
C1163 C1158 1.391 . S
C1163 C1162 1.391 . S
C1163 C1164 1.399 . S
C1164 C1163 1.399 . S
C1164 C1165 1.396 . S
C1164 C1167 1.453 . S
C1164 C1168 1.684 . S
C1165 C1155 1.723 . S
C1165 C1164 1.396 . S
C1165 C1166 1.394 . S
C1166 C1136 1.723 . S
C1166 C1162 1.397 . S
C1166 C1165 1.394 . S
C1167 H1139 0.982 . S
C1167 H1143 0.979 . S
C1167 H1144 0.977 . S
C1167 C1164 1.453 . S
C1168 H1140 0.979 . S
C1168 H1141 0.980 . S
C1168 H1142 0.983 . S
C1168 C1164 1.684 . S
H1169 C1187 0.948 . S
H1170 C1128 0.948 . S
H1171 C1146 0.979 . S
H1172 C1146 0.980 . S
H1173 C1146 0.983 . S
H1174 C1145 0.982 . S
H1175 C1145 0.979 . S
H1176 C1145 0.977 . S
H1177 C1147 0.948 . S
H1178 C1149 0.947 . S
H1179 C1150 0.948 . S
H1180 C1156 0.982 . S
H1181 C1156 0.979 . S
H1182 C1156 0.977 . S
H1183 C1157 0.979 . S
H1184 C1157 0.980 . S
H1185 C1157 0.983 . S
H1186 C1130 0.947 . S
C1187 C1130 1.392 . S
C1187 C1131 1.419 . S
C1187 H1169 0.948 . S
C1188 C1189 1.391 . S
C1188 C1192 1.391 . S
C1188 H1230 0.948 . S
C1189 C1188 1.391 . S
C1189 C1190 1.391 . S
C1190 C1189 1.391 . S
C1190 H1246 0.947 . S
C1190 C1247 1.392 . S
C1191 C1192 1.391 . S
C1191 C1195 1.397 . S
C1191 C1247 1.419 . S
C1192 C1188 1.391 . S
C1192 C1191 1.391 . S
C1192 C1193 1.399 . S
C1193 C1192 1.399 . S
C1193 C1196 1.396 . S
C1193 C1205 1.453 . S
C1193 C1206 1.684 . S
H1194 C1218 0.948 . S
C1195 C1191 1.397 . S
C1195 C1196 1.394 . S
C1195 C1214 1.723 . S
C1196 C1193 1.396 . S
C1196 C1195 1.394 . S
C1196 C1226 1.723 . S
H1197 C1220 0.947 . S
H1198 C1221 0.948 . S
H1199 C1227 0.982 . S
H1200 C1228 0.979 . S
H1201 C1228 0.980 . S
H1202 C1228 0.983 . S
H1203 C1227 0.979 . S
H1204 C1227 0.977 . S
C1205 C1193 1.453 . S
C1205 H1234 0.982 . S
C1205 H1235 0.979 . S
C1205 H1236 0.977 . S
C1206 C1193 1.684 . S
C1206 H1231 0.979 . S
C1206 H1232 0.980 . S
C1206 H1233 0.983 . S
C1207 C1208 1.391 . S
C1207 C1212 1.391 . S
C1207 H1237 0.948 . S
C1208 C1207 1.391 . S
C1208 C1209 1.391 . S
C1209 C1208 1.391 . S
C1209 C1210 1.392 . S
C1209 H1238 0.947 . S
C1210 C1209 1.392 . S
C1210 C1211 1.419 . S
C1210 H1239 0.948 . S
C1211 C1210 1.419 . S
C1211 C1212 1.391 . S
C1211 C1215 1.397 . S
C1212 C1207 1.391 . S
C1212 C1211 1.391 . S
C1212 C1213 1.399 . S
C1213 C1212 1.399 . S
C1213 C1214 1.396 . S
C1213 C1216 1.453 . S
C1213 C1217 1.684 . S
C1214 C1195 1.723 . S
C1214 C1213 1.396 . S
C1214 C1215 1.394 . S
C1215 C1211 1.397 . S
C1215 C1214 1.394 . S
C1215 C1225 1.723 . S
C1216 C1213 1.453 . S
C1216 H1240 0.982 . S
C1216 H1241 0.979 . S
C1216 H1242 0.977 . S
C1217 C1213 1.684 . S
C1217 H1243 0.979 . S
C1217 H1244 0.980 . S
C1217 H1245 0.983 . S
C1218 H1194 0.948 . S
C1218 C1219 1.391 . S
C1218 C1223 1.391 . S
C1219 C1218 1.391 . S
C1219 C1220 1.391 . S
C1220 H1197 0.947 . S
C1220 C1219 1.391 . S
C1220 C1221 1.392 . S
C1221 H1198 0.948 . S
C1221 C1220 1.392 . S
C1221 C1222 1.419 . S
C1222 C1221 1.419 . S
C1222 C1223 1.391 . S
C1222 C1226 1.397 . S
C1223 C1218 1.391 . S
C1223 C1222 1.391 . S
C1223 C1224 1.399 . S
C1224 C1223 1.399 . S
C1224 C1225 1.396 . S
C1224 C1227 1.453 . S
C1224 C1228 1.684 . S
C1225 C1215 1.723 . S
C1225 C1224 1.396 . S
C1225 C1226 1.394 . S
C1226 C1196 1.723 . S
C1226 C1222 1.397 . S
C1226 C1225 1.394 . S
C1227 H1199 0.982 . S
C1227 H1203 0.979 . S
C1227 H1204 0.977 . S
C1227 C1224 1.453 . S
C1228 H1200 0.979 . S
C1228 H1201 0.980 . S
C1228 H1202 0.983 . S
C1228 C1224 1.684 . S
H1229 C1247 0.948 . S
H1230 C1188 0.948 . S
H1231 C1206 0.979 . S
H1232 C1206 0.980 . S
H1233 C1206 0.983 . S
H1234 C1205 0.982 . S
H1235 C1205 0.979 . S
H1236 C1205 0.977 . S
H1237 C1207 0.948 . S
H1238 C1209 0.947 . S
H1239 C1210 0.948 . S
H1240 C1216 0.982 . S
H1241 C1216 0.979 . S
H1242 C1216 0.977 . S
H1243 C1217 0.979 . S
H1244 C1217 0.980 . S
H1245 C1217 0.983 . S
H1246 C1190 0.947 . S
C1247 C1190 1.392 . S
C1247 C1191 1.419 . S
C1247 H1229 0.948 . S
C1248 C1249 1.391 . S
C1248 C1252 1.391 . S
C1248 H1290 0.948 . S
C1249 C1248 1.391 . S
C1249 C1250 1.391 . S
C1250 C1249 1.391 . S
C1250 H1306 0.947 . S
C1250 C1307 1.392 . S
C1251 C1252 1.391 . S
C1251 C1255 1.397 . S
C1251 C1307 1.419 . S
C1252 C1248 1.391 . S
C1252 C1251 1.391 . S
C1252 C1253 1.399 . S
C1253 C1252 1.399 . S
C1253 C1256 1.396 . S
C1253 C1265 1.453 . S
C1253 C1266 1.684 . S
H1254 C1278 0.948 . S
C1255 C1251 1.397 . S
C1255 C1256 1.394 . S
C1255 C1274 1.723 . S
C1256 C1253 1.396 . S
C1256 C1255 1.394 . S
C1256 C1286 1.723 . S
H1257 C1280 0.947 . S
H1258 C1281 0.948 . S
H1259 C1287 0.982 . S
H1260 C1288 0.979 . S
H1261 C1288 0.980 . S
H1262 C1288 0.983 . S
H1263 C1287 0.979 . S
H1264 C1287 0.977 . S
C1265 C1253 1.453 . S
C1265 H1294 0.982 . S
C1265 H1295 0.979 . S
C1265 H1296 0.977 . S
C1266 C1253 1.684 . S
C1266 H1291 0.979 . S
C1266 H1292 0.980 . S
C1266 H1293 0.983 . S
C1267 C1268 1.391 . S
C1267 C1272 1.391 . S
C1267 H1297 0.948 . S
C1268 C1267 1.391 . S
C1268 C1269 1.391 . S
C1269 C1268 1.391 . S
C1269 C1270 1.392 . S
C1269 H1298 0.947 . S
C1270 C1269 1.392 . S
C1270 C1271 1.419 . S
C1270 H1299 0.948 . S
C1271 C1270 1.419 . S
C1271 C1272 1.391 . S
C1271 C1275 1.397 . S
C1272 C1267 1.391 . S
C1272 C1271 1.391 . S
C1272 C1273 1.399 . S
C1273 C1272 1.399 . S
C1273 C1274 1.396 . S
C1273 C1276 1.453 . S
C1273 C1277 1.684 . S
C1274 C1255 1.723 . S
C1274 C1273 1.396 . S
C1274 C1275 1.394 . S
C1275 C1271 1.397 . S
C1275 C1274 1.394 . S
C1275 C1285 1.723 . S
C1276 C1273 1.453 . S
C1276 H1300 0.982 . S
C1276 H1301 0.979 . S
C1276 H1302 0.977 . S
C1277 C1273 1.684 . S
C1277 H1303 0.979 . S
C1277 H1304 0.980 . S
C1277 H1305 0.983 . S
C1278 H1254 0.948 . S
C1278 C1279 1.391 . S
C1278 C1283 1.391 . S
C1279 C1278 1.391 . S
C1279 C1280 1.391 . S
C1280 H1257 0.947 . S
C1280 C1279 1.391 . S
C1280 C1281 1.392 . S
C1281 H1258 0.948 . S
C1281 C1280 1.392 . S
C1281 C1282 1.419 . S
C1282 C1281 1.419 . S
C1282 C1283 1.391 . S
C1282 C1286 1.397 . S
C1283 C1278 1.391 . S
C1283 C1282 1.391 . S
C1283 C1284 1.399 . S
C1284 C1283 1.399 . S
C1284 C1285 1.396 . S
C1284 C1287 1.453 . S
C1284 C1288 1.684 . S
C1285 C1275 1.723 . S
C1285 C1284 1.396 . S
C1285 C1286 1.394 . S
C1286 C1256 1.723 . S
C1286 C1282 1.397 . S
C1286 C1285 1.394 . S
C1287 H1259 0.982 . S
C1287 H1263 0.979 . S
C1287 H1264 0.977 . S
C1287 C1284 1.453 . S
C1288 H1260 0.979 . S
C1288 H1261 0.980 . S
C1288 H1262 0.983 . S
C1288 C1284 1.684 . S
H1289 C1307 0.948 . S
H1290 C1248 0.948 . S
H1291 C1266 0.979 . S
H1292 C1266 0.980 . S
H1293 C1266 0.983 . S
H1294 C1265 0.982 . S
H1295 C1265 0.979 . S
H1296 C1265 0.977 . S
H1297 C1267 0.948 . S
H1298 C1269 0.947 . S
H1299 C1270 0.948 . S
H1300 C1276 0.982 . S
H1301 C1276 0.979 . S
H1302 C1276 0.977 . S
H1303 C1277 0.979 . S
H1304 C1277 0.980 . S
H1305 C1277 0.983 . S
H1306 C1250 0.947 . S
C1307 C1250 1.392 . S
C1307 C1251 1.419 . S
C1307 H1289 0.948 . S
C1308 C1309 1.391 . S
C1308 C1312 1.391 . S
C1308 H1350 0.948 . S
C1309 C1308 1.391 . S
C1309 C1310 1.391 . S
C1310 C1309 1.391 . S
C1310 H1366 0.947 . S
C1310 C1367 1.392 . S
C1311 C1312 1.391 . S
C1311 C1315 1.397 . S
C1311 C1367 1.419 . S
C1312 C1308 1.391 . S
C1312 C1311 1.391 . S
C1312 C1313 1.399 . S
C1313 C1312 1.399 . S
C1313 C1316 1.396 . S
C1313 C1325 1.453 . S
C1313 C1326 1.684 . S
H1314 C1338 0.948 . S
C1315 C1311 1.397 . S
C1315 C1316 1.394 . S
C1315 C1334 1.723 . S
C1316 C1313 1.396 . S
C1316 C1315 1.394 . S
C1316 C1346 1.723 . S
H1317 C1340 0.947 . S
H1318 C1341 0.948 . S
H1319 C1347 0.982 . S
H1320 C1348 0.979 . S
H1321 C1348 0.980 . S
H1322 C1348 0.983 . S
H1323 C1347 0.979 . S
H1324 C1347 0.977 . S
C1325 C1313 1.453 . S
C1325 H1354 0.982 . S
C1325 H1355 0.979 . S
C1325 H1356 0.977 . S
C1326 C1313 1.684 . S
C1326 H1351 0.979 . S
C1326 H1352 0.980 . S
C1326 H1353 0.983 . S
C1327 C1328 1.391 . S
C1327 C1332 1.391 . S
C1327 H1357 0.948 . S
C1328 C1327 1.391 . S
C1328 C1329 1.391 . S
C1329 C1328 1.391 . S
C1329 C1330 1.392 . S
C1329 H1358 0.947 . S
C1330 C1329 1.392 . S
C1330 C1331 1.419 . S
C1330 H1359 0.948 . S
C1331 C1330 1.419 . S
C1331 C1332 1.391 . S
C1331 C1335 1.397 . S
C1332 C1327 1.391 . S
C1332 C1331 1.391 . S
C1332 C1333 1.399 . S
C1333 C1332 1.399 . S
C1333 C1334 1.396 . S
C1333 C1336 1.453 . S
C1333 C1337 1.684 . S
C1334 C1315 1.723 . S
C1334 C1333 1.396 . S
C1334 C1335 1.394 . S
C1335 C1331 1.397 . S
C1335 C1334 1.394 . S
C1335 C1345 1.723 . S
C1336 C1333 1.453 . S
C1336 H1360 0.982 . S
C1336 H1361 0.979 . S
C1336 H1362 0.977 . S
C1337 C1333 1.684 . S
C1337 H1363 0.979 . S
C1337 H1364 0.980 . S
C1337 H1365 0.983 . S
C1338 H1314 0.948 . S
C1338 C1339 1.391 . S
C1338 C1343 1.391 . S
C1339 C1338 1.391 . S
C1339 C1340 1.391 . S
C1340 H1317 0.947 . S
C1340 C1339 1.391 . S
C1340 C1341 1.392 . S
C1341 H1318 0.948 . S
C1341 C1340 1.392 . S
C1341 C1342 1.419 . S
C1342 C1341 1.419 . S
C1342 C1343 1.391 . S
C1342 C1346 1.397 . S
C1343 C1338 1.391 . S
C1343 C1342 1.391 . S
C1343 C1344 1.399 . S
C1344 C1343 1.399 . S
C1344 C1345 1.396 . S
C1344 C1347 1.453 . S
C1344 C1348 1.684 . S
C1345 C1335 1.723 . S
C1345 C1344 1.396 . S
C1345 C1346 1.394 . S
C1346 C1316 1.723 . S
C1346 C1342 1.397 . S
C1346 C1345 1.394 . S
C1347 H1319 0.982 . S
C1347 H1323 0.979 . S
C1347 H1324 0.977 . S
C1347 C1344 1.453 . S
C1348 H1320 0.979 . S
C1348 H1321 0.980 . S
C1348 H1322 0.983 . S
C1348 C1344 1.684 . S
H1349 C1367 0.948 . S
H1350 C1308 0.948 . S
H1351 C1326 0.979 . S
H1352 C1326 0.980 . S
H1353 C1326 0.983 . S
H1354 C1325 0.982 . S
H1355 C1325 0.979 . S
H1356 C1325 0.977 . S
H1357 C1327 0.948 . S
H1358 C1329 0.947 . S
H1359 C1330 0.948 . S
H1360 C1336 0.982 . S
H1361 C1336 0.979 . S
H1362 C1336 0.977 . S
H1363 C1337 0.979 . S
H1364 C1337 0.980 . S
H1365 C1337 0.983 . S
H1366 C1310 0.947 . S
C1367 C1310 1.392 . S
C1367 C1311 1.419 . S
C1367 H1349 0.948 . S
C1368 C1369 1.391 . S
C1368 C1372 1.391 . S
C1368 H1410 0.948 . S
C1369 C1368 1.391 . S
C1369 C1370 1.391 . S
C1370 C1369 1.391 . S
C1370 H1426 0.947 . S
C1370 C1427 1.392 . S
C1371 C1372 1.391 . S
C1371 C1375 1.397 . S
C1371 C1427 1.419 . S
C1372 C1368 1.391 . S
C1372 C1371 1.391 . S
C1372 C1373 1.399 . S
C1373 C1372 1.399 . S
C1373 C1376 1.396 . S
C1373 C1385 1.453 . S
C1373 C1386 1.684 . S
H1374 C1398 0.948 . S
C1375 C1371 1.397 . S
C1375 C1376 1.394 . S
C1375 C1394 1.723 . S
C1376 C1373 1.396 . S
C1376 C1375 1.394 . S
C1376 C1406 1.723 . S
H1377 C1400 0.947 . S
H1378 C1401 0.948 . S
H1379 C1407 0.982 . S
H1380 C1408 0.979 . S
H1381 C1408 0.980 . S
H1382 C1408 0.983 . S
H1383 C1407 0.979 . S
H1384 C1407 0.977 . S
C1385 C1373 1.453 . S
C1385 H1414 0.982 . S
C1385 H1415 0.979 . S
C1385 H1416 0.977 . S
C1386 C1373 1.684 . S
C1386 H1411 0.979 . S
C1386 H1412 0.980 . S
C1386 H1413 0.983 . S
C1387 C1388 1.391 . S
C1387 C1392 1.391 . S
C1387 H1417 0.948 . S
C1388 C1387 1.391 . S
C1388 C1389 1.391 . S
C1389 C1388 1.391 . S
C1389 C1390 1.392 . S
C1389 H1418 0.947 . S
C1390 C1389 1.392 . S
C1390 C1391 1.419 . S
C1390 H1419 0.948 . S
C1391 C1390 1.419 . S
C1391 C1392 1.391 . S
C1391 C1395 1.397 . S
C1392 C1387 1.391 . S
C1392 C1391 1.391 . S
C1392 C1393 1.399 . S
C1393 C1392 1.399 . S
C1393 C1394 1.396 . S
C1393 C1396 1.453 . S
C1393 C1397 1.684 . S
C1394 C1375 1.723 . S
C1394 C1393 1.396 . S
C1394 C1395 1.394 . S
C1395 C1391 1.397 . S
C1395 C1394 1.394 . S
C1395 C1405 1.723 . S
C1396 C1393 1.453 . S
C1396 H1420 0.982 . S
C1396 H1421 0.979 . S
C1396 H1422 0.977 . S
C1397 C1393 1.684 . S
C1397 H1423 0.979 . S
C1397 H1424 0.980 . S
C1397 H1425 0.983 . S
C1398 H1374 0.948 . S
C1398 C1399 1.391 . S
C1398 C1403 1.391 . S
C1399 C1398 1.391 . S
C1399 C1400 1.391 . S
C1400 H1377 0.947 . S
C1400 C1399 1.391 . S
C1400 C1401 1.392 . S
C1401 H1378 0.948 . S
C1401 C1400 1.392 . S
C1401 C1402 1.419 . S
C1402 C1401 1.419 . S
C1402 C1403 1.391 . S
C1402 C1406 1.397 . S
C1403 C1398 1.391 . S
C1403 C1402 1.391 . S
C1403 C1404 1.399 . S
C1404 C1403 1.399 . S
C1404 C1405 1.396 . S
C1404 C1407 1.453 . S
C1404 C1408 1.684 . S
C1405 C1395 1.723 . S
C1405 C1404 1.396 . S
C1405 C1406 1.394 . S
C1406 C1376 1.723 . S
C1406 C1402 1.397 . S
C1406 C1405 1.394 . S
C1407 H1379 0.982 . S
C1407 H1383 0.979 . S
C1407 H1384 0.977 . S
C1407 C1404 1.453 . S
C1408 H1380 0.979 . S
C1408 H1381 0.980 . S
C1408 H1382 0.983 . S
C1408 C1404 1.684 . S
H1409 C1427 0.948 . S
H1410 C1368 0.948 . S
H1411 C1386 0.979 . S
H1412 C1386 0.980 . S
H1413 C1386 0.983 . S
H1414 C1385 0.982 . S
H1415 C1385 0.979 . S
H1416 C1385 0.977 . S
H1417 C1387 0.948 . S
H1418 C1389 0.947 . S
H1419 C1390 0.948 . S
H1420 C1396 0.982 . S
H1421 C1396 0.979 . S
H1422 C1396 0.977 . S
H1423 C1397 0.979 . S
H1424 C1397 0.980 . S
H1425 C1397 0.983 . S
H1426 C1370 0.947 . S
C1427 C1370 1.392 . S
C1427 C1371 1.419 . S
C1427 H1409 0.948 . S
C1428 C1429 1.391 . S
C1428 C1432 1.391 . S
C1428 H1470 0.948 . S
C1429 C1428 1.391 . S
C1429 C1430 1.391 . S
C1430 C1429 1.391 . S
C1430 H1486 0.947 . S
C1430 C1487 1.392 . S
C1431 C1432 1.391 . S
C1431 C1435 1.397 . S
C1431 C1487 1.419 . S
C1432 C1428 1.391 . S
C1432 C1431 1.391 . S
C1432 C1433 1.399 . S
C1433 C1432 1.399 . S
C1433 C1436 1.396 . S
C1433 C1445 1.453 . S
C1433 C1446 1.684 . S
H1434 C1458 0.948 . S
C1435 C1431 1.397 . S
C1435 C1436 1.394 . S
C1435 C1454 1.723 . S
C1436 C1433 1.396 . S
C1436 C1435 1.394 . S
C1436 C1466 1.723 . S
H1437 C1460 0.947 . S
H1438 C1461 0.948 . S
H1439 C1467 0.982 . S
H1440 C1468 0.979 . S
H1441 C1468 0.980 . S
H1442 C1468 0.983 . S
H1443 C1467 0.979 . S
H1444 C1467 0.977 . S
C1445 C1433 1.453 . S
C1445 H1474 0.982 . S
C1445 H1475 0.979 . S
C1445 H1476 0.977 . S
C1446 C1433 1.684 . S
C1446 H1471 0.979 . S
C1446 H1472 0.980 . S
C1446 H1473 0.983 . S
C1447 C1448 1.391 . S
C1447 C1452 1.391 . S
C1447 H1477 0.948 . S
C1448 C1447 1.391 . S
C1448 C1449 1.391 . S
C1449 C1448 1.391 . S
C1449 C1450 1.392 . S
C1449 H1478 0.947 . S
C1450 C1449 1.392 . S
C1450 C1451 1.419 . S
C1450 H1479 0.948 . S
C1451 C1450 1.419 . S
C1451 C1452 1.391 . S
C1451 C1455 1.397 . S
C1452 C1447 1.391 . S
C1452 C1451 1.391 . S
C1452 C1453 1.399 . S
C1453 C1452 1.399 . S
C1453 C1454 1.396 . S
C1453 C1456 1.453 . S
C1453 C1457 1.684 . S
C1454 C1435 1.723 . S
C1454 C1453 1.396 . S
C1454 C1455 1.394 . S
C1455 C1451 1.397 . S
C1455 C1454 1.394 . S
C1455 C1465 1.723 . S
C1456 C1453 1.453 . S
C1456 H1480 0.982 . S
C1456 H1481 0.979 . S
C1456 H1482 0.977 . S
C1457 C1453 1.684 . S
C1457 H1483 0.979 . S
C1457 H1484 0.980 . S
C1457 H1485 0.983 . S
C1458 H1434 0.948 . S
C1458 C1459 1.391 . S
C1458 C1463 1.391 . S
C1459 C1458 1.391 . S
C1459 C1460 1.391 . S
C1460 H1437 0.947 . S
C1460 C1459 1.391 . S
C1460 C1461 1.392 . S
C1461 H1438 0.948 . S
C1461 C1460 1.392 . S
C1461 C1462 1.419 . S
C1462 C1461 1.419 . S
C1462 C1463 1.391 . S
C1462 C1466 1.397 . S
C1463 C1458 1.391 . S
C1463 C1462 1.391 . S
C1463 C1464 1.399 . S
C1464 C1463 1.399 . S
C1464 C1465 1.396 . S
C1464 C1467 1.453 . S
C1464 C1468 1.684 . S
C1465 C1455 1.723 . S
C1465 C1464 1.396 . S
C1465 C1466 1.394 . S
C1466 C1436 1.723 . S
C1466 C1462 1.397 . S
C1466 C1465 1.394 . S
C1467 H1439 0.982 . S
C1467 H1443 0.979 . S
C1467 H1444 0.977 . S
C1467 C1464 1.453 . S
C1468 H1440 0.979 . S
C1468 H1441 0.980 . S
C1468 H1442 0.983 . S
C1468 C1464 1.684 . S
H1469 C1487 0.948 . S
H1470 C1428 0.948 . S
H1471 C1446 0.979 . S
H1472 C1446 0.980 . S
H1473 C1446 0.983 . S
H1474 C1445 0.982 . S
H1475 C1445 0.979 . S
H1476 C1445 0.977 . S
H1477 C1447 0.948 . S
H1478 C1449 0.947 . S
H1479 C1450 0.948 . S
H1480 C1456 0.982 . S
H1481 C1456 0.979 . S
H1482 C1456 0.977 . S
H1483 C1457 0.979 . S
H1484 C1457 0.980 . S
H1485 C1457 0.983 . S
H1486 C1430 0.947 . S
C1487 C1430 1.392 . S
C1487 C1431 1.419 . S
C1487 H1469 0.948 . S
C1488 C1489 1.391 . S
C1488 C1492 1.391 . S
C1488 H1530 0.948 . S
C1489 C1488 1.391 . S
C1489 C1490 1.391 . S
C1490 C1489 1.391 . S
C1490 H1546 0.947 . S
C1490 C1547 1.392 . S
C1491 C1492 1.391 . S
C1491 C1495 1.397 . S
C1491 C1547 1.419 . S
C1492 C1488 1.391 . S
C1492 C1491 1.391 . S
C1492 C1493 1.399 . S
C1493 C1492 1.399 . S
C1493 C1496 1.396 . S
C1493 C1505 1.453 . S
C1493 C1506 1.684 . S
H1494 C1518 0.948 . S
C1495 C1491 1.397 . S
C1495 C1496 1.394 . S
C1495 C1514 1.723 . S
C1496 C1493 1.396 . S
C1496 C1495 1.394 . S
C1496 C1526 1.723 . S
H1497 C1520 0.947 . S
H1498 C1521 0.948 . S
H1499 C1527 0.982 . S
H1500 C1528 0.979 . S
H1501 C1528 0.980 . S
H1502 C1528 0.983 . S
H1503 C1527 0.979 . S
H1504 C1527 0.977 . S
C1505 C1493 1.453 . S
C1505 H1534 0.982 . S
C1505 H1535 0.979 . S
C1505 H1536 0.977 . S
C1506 C1493 1.684 . S
C1506 H1531 0.979 . S
C1506 H1532 0.980 . S
C1506 H1533 0.983 . S
C1507 C1508 1.391 . S
C1507 C1512 1.391 . S
C1507 H1537 0.948 . S
C1508 C1507 1.391 . S
C1508 C1509 1.391 . S
C1509 C1508 1.391 . S
C1509 C1510 1.392 . S
C1509 H1538 0.947 . S
C1510 C1509 1.392 . S
C1510 C1511 1.419 . S
C1510 H1539 0.948 . S
C1511 C1510 1.419 . S
C1511 C1512 1.391 . S
C1511 C1515 1.397 . S
C1512 C1507 1.391 . S
C1512 C1511 1.391 . S
C1512 C1513 1.399 . S
C1513 C1512 1.399 . S
C1513 C1514 1.396 . S
C1513 C1516 1.453 . S
C1513 C1517 1.684 . S
C1514 C1495 1.723 . S
C1514 C1513 1.396 . S
C1514 C1515 1.394 . S
C1515 C1511 1.397 . S
C1515 C1514 1.394 . S
C1515 C1525 1.723 . S
C1516 C1513 1.453 . S
C1516 H1540 0.982 . S
C1516 H1541 0.979 . S
C1516 H1542 0.977 . S
C1517 C1513 1.684 . S
C1517 H1543 0.979 . S
C1517 H1544 0.980 . S
C1517 H1545 0.983 . S
C1518 H1494 0.948 . S
C1518 C1519 1.391 . S
C1518 C1523 1.391 . S
C1519 C1518 1.391 . S
C1519 C1520 1.391 . S
C1520 H1497 0.947 . S
C1520 C1519 1.391 . S
C1520 C1521 1.392 . S
C1521 H1498 0.948 . S
C1521 C1520 1.392 . S
C1521 C1522 1.419 . S
C1522 C1521 1.419 . S
C1522 C1523 1.391 . S
C1522 C1526 1.397 . S
C1523 C1518 1.391 . S
C1523 C1522 1.391 . S
C1523 C1524 1.399 . S
C1524 C1523 1.399 . S
C1524 C1525 1.396 . S
C1524 C1527 1.453 . S
C1524 C1528 1.684 . S
C1525 C1515 1.723 . S
C1525 C1524 1.396 . S
C1525 C1526 1.394 . S
C1526 C1496 1.723 . S
C1526 C1522 1.397 . S
C1526 C1525 1.394 . S
C1527 H1499 0.982 . S
C1527 H1503 0.979 . S
C1527 H1504 0.977 . S
C1527 C1524 1.453 . S
C1528 H1500 0.979 . S
C1528 H1501 0.980 . S
C1528 H1502 0.983 . S
C1528 C1524 1.684 . S
H1529 C1547 0.948 . S
H1530 C1488 0.948 . S
H1531 C1506 0.979 . S
H1532 C1506 0.980 . S
H1533 C1506 0.983 . S
H1534 C1505 0.982 . S
H1535 C1505 0.979 . S
H1536 C1505 0.977 . S
H1537 C1507 0.948 . S
H1538 C1509 0.947 . S
H1539 C1510 0.948 . S
H1540 C1516 0.982 . S
H1541 C1516 0.979 . S
H1542 C1516 0.977 . S
H1543 C1517 0.979 . S
H1544 C1517 0.980 . S
H1545 C1517 0.983 . S
H1546 C1490 0.947 . S
C1547 C1490 1.392 . S
C1547 C1491 1.419 . S
C1547 H1529 0.948 . S
C1548 C1549 1.391 . S
C1548 C1552 1.391 . S
C1548 H1590 0.948 . S
C1549 C1548 1.391 . S
C1549 C1550 1.391 . S
C1550 C1549 1.391 . S
C1550 H1606 0.947 . S
C1550 C1607 1.392 . S
C1551 C1552 1.391 . S
C1551 C1555 1.397 . S
C1551 C1607 1.419 . S
C1552 C1548 1.391 . S
C1552 C1551 1.391 . S
C1552 C1553 1.399 . S
C1553 C1552 1.399 . S
C1553 C1556 1.396 . S
C1553 C1565 1.453 . S
C1553 C1566 1.684 . S
H1554 C1578 0.948 . S
C1555 C1551 1.397 . S
C1555 C1556 1.394 . S
C1555 C1574 1.723 . S
C1556 C1553 1.396 . S
C1556 C1555 1.394 . S
C1556 C1586 1.723 . S
H1557 C1580 0.947 . S
H1558 C1581 0.948 . S
H1559 C1587 0.982 . S
H1560 C1588 0.979 . S
H1561 C1588 0.980 . S
H1562 C1588 0.983 . S
H1563 C1587 0.979 . S
H1564 C1587 0.977 . S
C1565 C1553 1.453 . S
C1565 H1594 0.982 . S
C1565 H1595 0.979 . S
C1565 H1596 0.977 . S
C1566 C1553 1.684 . S
C1566 H1591 0.979 . S
C1566 H1592 0.980 . S
C1566 H1593 0.983 . S
C1567 C1568 1.391 . S
C1567 C1572 1.391 . S
C1567 H1597 0.948 . S
C1568 C1567 1.391 . S
C1568 C1569 1.391 . S
C1569 C1568 1.391 . S
C1569 C1570 1.392 . S
C1569 H1598 0.947 . S
C1570 C1569 1.392 . S
C1570 C1571 1.419 . S
C1570 H1599 0.948 . S
C1571 C1570 1.419 . S
C1571 C1572 1.391 . S
C1571 C1575 1.397 . S
C1572 C1567 1.391 . S
C1572 C1571 1.391 . S
C1572 C1573 1.399 . S
C1573 C1572 1.399 . S
C1573 C1574 1.396 . S
C1573 C1576 1.453 . S
C1573 C1577 1.684 . S
C1574 C1555 1.723 . S
C1574 C1573 1.396 . S
C1574 C1575 1.394 . S
C1575 C1571 1.397 . S
C1575 C1574 1.394 . S
C1575 C1585 1.723 . S
C1576 C1573 1.453 . S
C1576 H1600 0.982 . S
C1576 H1601 0.979 . S
C1576 H1602 0.977 . S
C1577 C1573 1.684 . S
C1577 H1603 0.979 . S
C1577 H1604 0.980 . S
C1577 H1605 0.983 . S
C1578 H1554 0.948 . S
C1578 C1579 1.391 . S
C1578 C1583 1.391 . S
C1579 C1578 1.391 . S
C1579 C1580 1.391 . S
C1580 H1557 0.947 . S
C1580 C1579 1.391 . S
C1580 C1581 1.392 . S
C1581 H1558 0.948 . S
C1581 C1580 1.392 . S
C1581 C1582 1.419 . S
C1582 C1581 1.419 . S
C1582 C1583 1.391 . S
C1582 C1586 1.397 . S
C1583 C1578 1.391 . S
C1583 C1582 1.391 . S
C1583 C1584 1.399 . S
C1584 C1583 1.399 . S
C1584 C1585 1.396 . S
C1584 C1587 1.453 . S
C1584 C1588 1.684 . S
C1585 C1575 1.723 . S
C1585 C1584 1.396 . S
C1585 C1586 1.394 . S
C1586 C1556 1.723 . S
C1586 C1582 1.397 . S
C1586 C1585 1.394 . S
C1587 H1559 0.982 . S
C1587 H1563 0.979 . S
C1587 H1564 0.977 . S
C1587 C1584 1.453 . S
C1588 H1560 0.979 . S
C1588 H1561 0.980 . S
C1588 H1562 0.983 . S
C1588 C1584 1.684 . S
H1589 C1607 0.948 . S
H1590 C1548 0.948 . S
H1591 C1566 0.979 . S
H1592 C1566 0.980 . S
H1593 C1566 0.983 . S
H1594 C1565 0.982 . S
H1595 C1565 0.979 . S
H1596 C1565 0.977 . S
H1597 C1567 0.948 . S
H1598 C1569 0.947 . S
H1599 C1570 0.948 . S
H1600 C1576 0.982 . S
H1601 C1576 0.979 . S
H1602 C1576 0.977 . S
H1603 C1577 0.979 . S
H1604 C1577 0.980 . S
H1605 C1577 0.983 . S
H1606 C1550 0.947 . S
C1607 C1550 1.392 . S
C1607 C1551 1.419 . S
C1607 H1589 0.948 . S
C1608 C1609 1.391 . S
C1608 C1612 1.391 . S
C1608 H1650 0.948 . S
C1609 C1608 1.391 . S
C1609 C1610 1.391 . S
C1610 C1609 1.391 . S
C1610 H1666 0.947 . S
C1610 C1667 1.392 . S
C1611 C1612 1.391 . S
C1611 C1615 1.397 . S
C1611 C1667 1.419 . S
C1612 C1608 1.391 . S
C1612 C1611 1.391 . S
C1612 C1613 1.399 . S
C1613 C1612 1.399 . S
C1613 C1616 1.396 . S
C1613 C1625 1.453 . S
C1613 C1626 1.684 . S
H1614 C1638 0.948 . S
C1615 C1611 1.397 . S
C1615 C1616 1.394 . S
C1615 C1634 1.723 . S
C1616 C1613 1.396 . S
C1616 C1615 1.394 . S
C1616 C1646 1.723 . S
H1617 C1640 0.947 . S
H1618 C1641 0.948 . S
H1619 C1647 0.982 . S
H1620 C1648 0.979 . S
H1621 C1648 0.980 . S
H1622 C1648 0.983 . S
H1623 C1647 0.979 . S
H1624 C1647 0.977 . S
C1625 C1613 1.453 . S
C1625 H1654 0.982 . S
C1625 H1655 0.979 . S
C1625 H1656 0.977 . S
C1626 C1613 1.684 . S
C1626 H1651 0.979 . S
C1626 H1652 0.980 . S
C1626 H1653 0.983 . S
C1627 C1628 1.391 . S
C1627 C1632 1.391 . S
C1627 H1657 0.948 . S
C1628 C1627 1.391 . S
C1628 C1629 1.391 . S
C1629 C1628 1.391 . S
C1629 C1630 1.392 . S
C1629 H1658 0.947 . S
C1630 C1629 1.392 . S
C1630 C1631 1.419 . S
C1630 H1659 0.948 . S
C1631 C1630 1.419 . S
C1631 C1632 1.391 . S
C1631 C1635 1.397 . S
C1632 C1627 1.391 . S
C1632 C1631 1.391 . S
C1632 C1633 1.399 . S
C1633 C1632 1.399 . S
C1633 C1634 1.396 . S
C1633 C1636 1.453 . S
C1633 C1637 1.684 . S
C1634 C1615 1.723 . S
C1634 C1633 1.396 . S
C1634 C1635 1.394 . S
C1635 C1631 1.397 . S
C1635 C1634 1.394 . S
C1635 C1645 1.723 . S
C1636 C1633 1.453 . S
C1636 H1660 0.982 . S
C1636 H1661 0.979 . S
C1636 H1662 0.977 . S
C1637 C1633 1.684 . S
C1637 H1663 0.979 . S
C1637 H1664 0.980 . S
C1637 H1665 0.983 . S
C1638 H1614 0.948 . S
C1638 C1639 1.391 . S
C1638 C1643 1.391 . S
C1639 C1638 1.391 . S
C1639 C1640 1.391 . S
C1640 H1617 0.947 . S
C1640 C1639 1.391 . S
C1640 C1641 1.392 . S
C1641 H1618 0.948 . S
C1641 C1640 1.392 . S
C1641 C1642 1.419 . S
C1642 C1641 1.419 . S
C1642 C1643 1.391 . S
C1642 C1646 1.397 . S
C1643 C1638 1.391 . S
C1643 C1642 1.391 . S
C1643 C1644 1.399 . S
C1644 C1643 1.399 . S
C1644 C1645 1.396 . S
C1644 C1647 1.453 . S
C1644 C1648 1.684 . S
C1645 C1635 1.723 . S
C1645 C1644 1.396 . S
C1645 C1646 1.394 . S
C1646 C1616 1.723 . S
C1646 C1642 1.397 . S
C1646 C1645 1.394 . S
C1647 H1619 0.982 . S
C1647 H1623 0.979 . S
C1647 H1624 0.977 . S
C1647 C1644 1.453 . S
C1648 H1620 0.979 . S
C1648 H1621 0.980 . S
C1648 H1622 0.983 . S
C1648 C1644 1.684 . S
H1649 C1667 0.948 . S
H1650 C1608 0.948 . S
H1651 C1626 0.979 . S
H1652 C1626 0.980 . S
H1653 C1626 0.983 . S
H1654 C1625 0.982 . S
H1655 C1625 0.979 . S
H1656 C1625 0.977 . S
H1657 C1627 0.948 . S
H1658 C1629 0.947 . S
H1659 C1630 0.948 . S
H1660 C1636 0.982 . S
H1661 C1636 0.979 . S
H1662 C1636 0.977 . S
H1663 C1637 0.979 . S
H1664 C1637 0.980 . S
H1665 C1637 0.983 . S
H1666 C1610 0.947 . S
C1667 C1610 1.392 . S
C1667 C1611 1.419 . S
C1667 H1649 0.948 . S
C1668 C1669 1.391 . S
C1668 C1672 1.391 . S
C1668 H1710 0.948 . S
C1669 C1668 1.391 . S
C1669 C1670 1.391 . S
C1670 C1669 1.391 . S
C1670 H1726 0.947 . S
C1670 C1727 1.392 . S
C1671 C1672 1.391 . S
C1671 C1675 1.397 . S
C1671 C1727 1.419 . S
C1672 C1668 1.391 . S
C1672 C1671 1.391 . S
C1672 C1673 1.399 . S
C1673 C1672 1.399 . S
C1673 C1676 1.396 . S
C1673 C1685 1.453 . S
C1673 C1686 1.684 . S
H1674 C1698 0.948 . S
C1675 C1671 1.397 . S
C1675 C1676 1.394 . S
C1675 C1694 1.723 . S
C1676 C1673 1.396 . S
C1676 C1675 1.394 . S
C1676 C1706 1.723 . S
H1677 C1700 0.947 . S
H1678 C1701 0.948 . S
H1679 C1707 0.982 . S
H1680 C1708 0.979 . S
H1681 C1708 0.980 . S
H1682 C1708 0.983 . S
H1683 C1707 0.979 . S
H1684 C1707 0.977 . S
C1685 C1673 1.453 . S
C1685 H1714 0.982 . S
C1685 H1715 0.979 . S
C1685 H1716 0.977 . S
C1686 C1673 1.684 . S
C1686 H1711 0.979 . S
C1686 H1712 0.980 . S
C1686 H1713 0.983 . S
C1687 C1688 1.391 . S
C1687 C1692 1.391 . S
C1687 H1717 0.948 . S
C1688 C1687 1.391 . S
C1688 C1689 1.391 . S
C1689 C1688 1.391 . S
C1689 C1690 1.392 . S
C1689 H1718 0.947 . S
C1690 C1689 1.392 . S
C1690 C1691 1.419 . S
C1690 H1719 0.948 . S
C1691 C1690 1.419 . S
C1691 C1692 1.391 . S
C1691 C1695 1.397 . S
C1692 C1687 1.391 . S
C1692 C1691 1.391 . S
C1692 C1693 1.399 . S
C1693 C1692 1.399 . S
C1693 C1694 1.396 . S
C1693 C1696 1.453 . S
C1693 C1697 1.684 . S
C1694 C1675 1.723 . S
C1694 C1693 1.396 . S
C1694 C1695 1.394 . S
C1695 C1691 1.397 . S
C1695 C1694 1.394 . S
C1695 C1705 1.723 . S
C1696 C1693 1.453 . S
C1696 H1720 0.982 . S
C1696 H1721 0.979 . S
C1696 H1722 0.977 . S
C1697 C1693 1.684 . S
C1697 H1723 0.979 . S
C1697 H1724 0.980 . S
C1697 H1725 0.983 . S
C1698 H1674 0.948 . S
C1698 C1699 1.391 . S
C1698 C1703 1.391 . S
C1699 C1698 1.391 . S
C1699 C1700 1.391 . S
C1700 H1677 0.947 . S
C1700 C1699 1.391 . S
C1700 C1701 1.392 . S
C1701 H1678 0.948 . S
C1701 C1700 1.392 . S
C1701 C1702 1.419 . S
C1702 C1701 1.419 . S
C1702 C1703 1.391 . S
C1702 C1706 1.397 . S
C1703 C1698 1.391 . S
C1703 C1702 1.391 . S
C1703 C1704 1.399 . S
C1704 C1703 1.399 . S
C1704 C1705 1.396 . S
C1704 C1707 1.453 . S
C1704 C1708 1.684 . S
C1705 C1695 1.723 . S
C1705 C1704 1.396 . S
C1705 C1706 1.394 . S
C1706 C1676 1.723 . S
C1706 C1702 1.397 . S
C1706 C1705 1.394 . S
C1707 H1679 0.982 . S
C1707 H1683 0.979 . S
C1707 H1684 0.977 . S
C1707 C1704 1.453 . S
C1708 H1680 0.979 . S
C1708 H1681 0.980 . S
C1708 H1682 0.983 . S
C1708 C1704 1.684 . S
H1709 C1727 0.948 . S
H1710 C1668 0.948 . S
H1711 C1686 0.979 . S
H1712 C1686 0.980 . S
H1713 C1686 0.983 . S
H1714 C1685 0.982 . S
H1715 C1685 0.979 . S
H1716 C1685 0.977 . S
H1717 C1687 0.948 . S
H1718 C1689 0.947 . S
H1719 C1690 0.948 . S
H1720 C1696 0.982 . S
H1721 C1696 0.979 . S
H1722 C1696 0.977 . S
H1723 C1697 0.979 . S
H1724 C1697 0.980 . S
H1725 C1697 0.983 . S
H1726 C1670 0.947 . S
C1727 C1670 1.392 . S
C1727 C1671 1.419 . S
C1727 H1709 0.948 . S
C1728 C1729 1.391 . S
C1728 C1732 1.391 . S
C1728 H1770 0.948 . S
C1729 C1728 1.391 . S
C1729 C1730 1.391 . S
C1730 C1729 1.391 . S
C1730 H1786 0.947 . S
C1730 C1787 1.392 . S
C1731 C1732 1.391 . S
C1731 C1735 1.397 . S
C1731 C1787 1.419 . S
C1732 C1728 1.391 . S
C1732 C1731 1.391 . S
C1732 C1733 1.399 . S
C1733 C1732 1.399 . S
C1733 C1736 1.396 . S
C1733 C1745 1.453 . S
C1733 C1746 1.684 . S
H1734 C1758 0.948 . S
C1735 C1731 1.397 . S
C1735 C1736 1.394 . S
C1735 C1754 1.723 . S
C1736 C1733 1.396 . S
C1736 C1735 1.394 . S
C1736 C1766 1.723 . S
H1737 C1760 0.947 . S
H1738 C1761 0.948 . S
H1739 C1767 0.982 . S
H1740 C1768 0.979 . S
H1741 C1768 0.980 . S
H1742 C1768 0.983 . S
H1743 C1767 0.979 . S
H1744 C1767 0.977 . S
C1745 C1733 1.453 . S
C1745 H1774 0.982 . S
C1745 H1775 0.979 . S
C1745 H1776 0.977 . S
C1746 C1733 1.684 . S
C1746 H1771 0.979 . S
C1746 H1772 0.980 . S
C1746 H1773 0.983 . S
C1747 C1748 1.391 . S
C1747 C1752 1.391 . S
C1747 H1777 0.948 . S
C1748 C1747 1.391 . S
C1748 C1749 1.391 . S
C1749 C1748 1.391 . S
C1749 C1750 1.392 . S
C1749 H1778 0.947 . S
C1750 C1749 1.392 . S
C1750 C1751 1.419 . S
C1750 H1779 0.948 . S
C1751 C1750 1.419 . S
C1751 C1752 1.391 . S
C1751 C1755 1.397 . S
C1752 C1747 1.391 . S
C1752 C1751 1.391 . S
C1752 C1753 1.399 . S
C1753 C1752 1.399 . S
C1753 C1754 1.396 . S
C1753 C1756 1.453 . S
C1753 C1757 1.684 . S
C1754 C1735 1.723 . S
C1754 C1753 1.396 . S
C1754 C1755 1.394 . S
C1755 C1751 1.397 . S
C1755 C1754 1.394 . S
C1755 C1765 1.723 . S
C1756 C1753 1.453 . S
C1756 H1780 0.982 . S
C1756 H1781 0.979 . S
C1756 H1782 0.977 . S
C1757 C1753 1.684 . S
C1757 H1783 0.979 . S
C1757 H1784 0.980 . S
C1757 H1785 0.983 . S
C1758 H1734 0.948 . S
C1758 C1759 1.391 . S
C1758 C1763 1.391 . S
C1759 C1758 1.391 . S
C1759 C1760 1.391 . S
C1760 H1737 0.947 . S
C1760 C1759 1.391 . S
C1760 C1761 1.392 . S
C1761 H1738 0.948 . S
C1761 C1760 1.392 . S
C1761 C1762 1.419 . S
C1762 C1761 1.419 . S
C1762 C1763 1.391 . S
C1762 C1766 1.397 . S
C1763 C1758 1.391 . S
C1763 C1762 1.391 . S
C1763 C1764 1.399 . S
C1764 C1763 1.399 . S
C1764 C1765 1.396 . S
C1764 C1767 1.453 . S
C1764 C1768 1.684 . S
C1765 C1755 1.723 . S
C1765 C1764 1.396 . S
C1765 C1766 1.394 . S
C1766 C1736 1.723 . S
C1766 C1762 1.397 . S
C1766 C1765 1.394 . S
C1767 H1739 0.982 . S
C1767 H1743 0.979 . S
C1767 H1744 0.977 . S
C1767 C1764 1.453 . S
C1768 H1740 0.979 . S
C1768 H1741 0.980 . S
C1768 H1742 0.983 . S
C1768 C1764 1.684 . S
H1769 C1787 0.948 . S
H1770 C1728 0.948 . S
H1771 C1746 0.979 . S
H1772 C1746 0.980 . S
H1773 C1746 0.983 . S
H1774 C1745 0.982 . S
H1775 C1745 0.979 . S
H1776 C1745 0.977 . S
H1777 C1747 0.948 . S
H1778 C1749 0.947 . S
H1779 C1750 0.948 . S
H1780 C1756 0.982 . S
H1781 C1756 0.979 . S
H1782 C1756 0.977 . S
H1783 C1757 0.979 . S
H1784 C1757 0.980 . S
H1785 C1757 0.983 . S
H1786 C1730 0.947 . S
C1787 C1730 1.392 . S
C1787 C1731 1.419 . S
C1787 H1769 0.948 . S
C1788 C1789 1.391 . S
C1788 C1792 1.391 . S
C1788 H1830 0.948 . S
C1789 C1788 1.391 . S
C1789 C1790 1.391 . S
C1790 C1789 1.391 . S
C1790 H1846 0.947 . S
C1790 C1847 1.392 . S
C1791 C1792 1.391 . S
C1791 C1795 1.397 . S
C1791 C1847 1.419 . S
C1792 C1788 1.391 . S
C1792 C1791 1.391 . S
C1792 C1793 1.399 . S
C1793 C1792 1.399 . S
C1793 C1796 1.396 . S
C1793 C1805 1.453 . S
C1793 C1806 1.684 . S
H1794 C1818 0.948 . S
C1795 C1791 1.397 . S
C1795 C1796 1.394 . S
C1795 C1814 1.723 . S
C1796 C1793 1.396 . S
C1796 C1795 1.394 . S
C1796 C1826 1.723 . S
H1797 C1820 0.947 . S
H1798 C1821 0.948 . S
H1799 C1827 0.982 . S
H1800 C1828 0.979 . S
H1801 C1828 0.980 . S
H1802 C1828 0.983 . S
H1803 C1827 0.979 . S
H1804 C1827 0.977 . S
C1805 C1793 1.453 . S
C1805 H1834 0.982 . S
C1805 H1835 0.979 . S
C1805 H1836 0.977 . S
C1806 C1793 1.684 . S
C1806 H1831 0.979 . S
C1806 H1832 0.980 . S
C1806 H1833 0.983 . S
C1807 C1808 1.391 . S
C1807 C1812 1.391 . S
C1807 H1837 0.948 . S
C1808 C1807 1.391 . S
C1808 C1809 1.391 . S
C1809 C1808 1.391 . S
C1809 C1810 1.392 . S
C1809 H1838 0.947 . S
C1810 C1809 1.392 . S
C1810 C1811 1.419 . S
C1810 H1839 0.948 . S
C1811 C1810 1.419 . S
C1811 C1812 1.391 . S
C1811 C1815 1.397 . S
C1812 C1807 1.391 . S
C1812 C1811 1.391 . S
C1812 C1813 1.399 . S
C1813 C1812 1.399 . S
C1813 C1814 1.396 . S
C1813 C1816 1.453 . S
C1813 C1817 1.684 . S
C1814 C1795 1.723 . S
C1814 C1813 1.396 . S
C1814 C1815 1.394 . S
C1815 C1811 1.397 . S
C1815 C1814 1.394 . S
C1815 C1825 1.723 . S
C1816 C1813 1.453 . S
C1816 H1840 0.982 . S
C1816 H1841 0.979 . S
C1816 H1842 0.977 . S
C1817 C1813 1.684 . S
C1817 H1843 0.979 . S
C1817 H1844 0.980 . S
C1817 H1845 0.983 . S
C1818 H1794 0.948 . S
C1818 C1819 1.391 . S
C1818 C1823 1.391 . S
C1819 C1818 1.391 . S
C1819 C1820 1.391 . S
C1820 H1797 0.947 . S
C1820 C1819 1.391 . S
C1820 C1821 1.392 . S
C1821 H1798 0.948 . S
C1821 C1820 1.392 . S
C1821 C1822 1.419 . S
C1822 C1821 1.419 . S
C1822 C1823 1.391 . S
C1822 C1826 1.397 . S
C1823 C1818 1.391 . S
C1823 C1822 1.391 . S
C1823 C1824 1.399 . S
C1824 C1823 1.399 . S
C1824 C1825 1.396 . S
C1824 C1827 1.453 . S
C1824 C1828 1.684 . S
C1825 C1815 1.723 . S
C1825 C1824 1.396 . S
C1825 C1826 1.394 . S
C1826 C1796 1.723 . S
C1826 C1822 1.397 . S
C1826 C1825 1.394 . S
C1827 H1799 0.982 . S
C1827 H1803 0.979 . S
C1827 H1804 0.977 . S
C1827 C1824 1.453 . S
C1828 H1800 0.979 . S
C1828 H1801 0.980 . S
C1828 H1802 0.983 . S
C1828 C1824 1.684 . S
H1829 C1847 0.948 . S
H1830 C1788 0.948 . S
H1831 C1806 0.979 . S
H1832 C1806 0.980 . S
H1833 C1806 0.983 . S
H1834 C1805 0.982 . S
H1835 C1805 0.979 . S
H1836 C1805 0.977 . S
H1837 C1807 0.948 . S
H1838 C1809 0.947 . S
H1839 C1810 0.948 . S
H1840 C1816 0.982 . S
H1841 C1816 0.979 . S
H1842 C1816 0.977 . S
H1843 C1817 0.979 . S
H1844 C1817 0.980 . S
H1845 C1817 0.983 . S
H1846 C1790 0.947 . S
C1847 C1790 1.392 . S
C1847 C1791 1.419 . S
C1847 H1829 0.948 . S
C1848 C1849 1.391 . S
C1848 C1852 1.391 . S
C1848 H1890 0.948 . S
C1849 C1848 1.391 . S
C1849 C1850 1.391 . S
C1850 C1849 1.391 . S
C1850 H1906 0.947 . S
C1850 C1907 1.392 . S
C1851 C1852 1.391 . S
C1851 C1855 1.397 . S
C1851 C1907 1.419 . S
C1852 C1848 1.391 . S
C1852 C1851 1.391 . S
C1852 C1853 1.399 . S
C1853 C1852 1.399 . S
C1853 C1856 1.396 . S
C1853 C1865 1.453 . S
C1853 C1866 1.684 . S
H1854 C1878 0.948 . S
C1855 C1851 1.397 . S
C1855 C1856 1.394 . S
C1855 C1874 1.723 . S
C1856 C1853 1.396 . S
C1856 C1855 1.394 . S
C1856 C1886 1.723 . S
H1857 C1880 0.947 . S
H1858 C1881 0.948 . S
H1859 C1887 0.982 . S
H1860 C1888 0.979 . S
H1861 C1888 0.980 . S
H1862 C1888 0.983 . S
H1863 C1887 0.979 . S
H1864 C1887 0.977 . S
C1865 C1853 1.453 . S
C1865 H1894 0.982 . S
C1865 H1895 0.979 . S
C1865 H1896 0.977 . S
C1866 C1853 1.684 . S
C1866 H1891 0.979 . S
C1866 H1892 0.980 . S
C1866 H1893 0.983 . S
C1867 C1868 1.391 . S
C1867 C1872 1.391 . S
C1867 H1897 0.948 . S
C1868 C1867 1.391 . S
C1868 C1869 1.391 . S
C1869 C1868 1.391 . S
C1869 C1870 1.392 . S
C1869 H1898 0.947 . S
C1870 C1869 1.392 . S
C1870 C1871 1.419 . S
C1870 H1899 0.948 . S
C1871 C1870 1.419 . S
C1871 C1872 1.391 . S
C1871 C1875 1.397 . S
C1872 C1867 1.391 . S
C1872 C1871 1.391 . S
C1872 C1873 1.399 . S
C1873 C1872 1.399 . S
C1873 C1874 1.396 . S
C1873 C1876 1.453 . S
C1873 C1877 1.684 . S
C1874 C1855 1.723 . S
C1874 C1873 1.396 . S
C1874 C1875 1.394 . S
C1875 C1871 1.397 . S
C1875 C1874 1.394 . S
C1875 C1885 1.723 . S
C1876 C1873 1.453 . S
C1876 H1900 0.982 . S
C1876 H1901 0.979 . S
C1876 H1902 0.977 . S
C1877 C1873 1.684 . S
C1877 H1903 0.979 . S
C1877 H1904 0.980 . S
C1877 H1905 0.983 . S
C1878 H1854 0.948 . S
C1878 C1879 1.391 . S
C1878 C1883 1.391 . S
C1879 C1878 1.391 . S
C1879 C1880 1.391 . S
C1880 H1857 0.947 . S
C1880 C1879 1.391 . S
C1880 C1881 1.392 . S
C1881 H1858 0.948 . S
C1881 C1880 1.392 . S
C1881 C1882 1.419 . S
C1882 C1881 1.419 . S
C1882 C1883 1.391 . S
C1882 C1886 1.397 . S
C1883 C1878 1.391 . S
C1883 C1882 1.391 . S
C1883 C1884 1.399 . S
C1884 C1883 1.399 . S
C1884 C1885 1.396 . S
C1884 C1887 1.453 . S
C1884 C1888 1.684 . S
C1885 C1875 1.723 . S
C1885 C1884 1.396 . S
C1885 C1886 1.394 . S
C1886 C1856 1.723 . S
C1886 C1882 1.397 . S
C1886 C1885 1.394 . S
C1887 H1859 0.982 . S
C1887 H1863 0.979 . S
C1887 H1864 0.977 . S
C1887 C1884 1.453 . S
C1888 H1860 0.979 . S
C1888 H1861 0.980 . S
C1888 H1862 0.983 . S
C1888 C1884 1.684 . S
H1889 C1907 0.948 . S
H1890 C1848 0.948 . S
H1891 C1866 0.979 . S
H1892 C1866 0.980 . S
H1893 C1866 0.983 . S
H1894 C1865 0.982 . S
H1895 C1865 0.979 . S
H1896 C1865 0.977 . S
H1897 C1867 0.948 . S
H1898 C1869 0.947 . S
H1899 C1870 0.948 . S
H1900 C1876 0.982 . S
H1901 C1876 0.979 . S
H1902 C1876 0.977 . S
H1903 C1877 0.979 . S
H1904 C1877 0.980 . S
H1905 C1877 0.983 . S
H1906 C1850 0.947 . S
C1907 C1850 1.392 . S
C1907 C1851 1.419 . S
C1907 H1889 0.948 . S
C1908 C1909 1.391 . S
C1908 C1912 1.391 . S
C1908 H1950 0.948 . S
C1909 C1908 1.391 . S
C1909 C1910 1.391 . S
C1910 C1909 1.391 . S
C1910 H1966 0.947 . S
C1910 C1967 1.392 . S
C1911 C1912 1.391 . S
C1911 C1915 1.397 . S
C1911 C1967 1.419 . S
C1912 C1908 1.391 . S
C1912 C1911 1.391 . S
C1912 C1913 1.399 . S
C1913 C1912 1.399 . S
C1913 C1916 1.396 . S
C1913 C1925 1.453 . S
C1913 C1926 1.684 . S
H1914 C1938 0.948 . S
C1915 C1911 1.397 . S
C1915 C1916 1.394 . S
C1915 C1934 1.723 . S
C1916 C1913 1.396 . S
C1916 C1915 1.394 . S
C1916 C1946 1.723 . S
H1917 C1940 0.947 . S
H1918 C1941 0.948 . S
H1919 C1947 0.982 . S
H1920 C1948 0.979 . S
H1921 C1948 0.980 . S
H1922 C1948 0.983 . S
H1923 C1947 0.979 . S
H1924 C1947 0.977 . S
C1925 C1913 1.453 . S
C1925 H1954 0.982 . S
C1925 H1955 0.979 . S
C1925 H1956 0.977 . S
C1926 C1913 1.684 . S
C1926 H1951 0.979 . S
C1926 H1952 0.980 . S
C1926 H1953 0.983 . S
C1927 C1928 1.391 . S
C1927 C1932 1.391 . S
C1927 H1957 0.948 . S
C1928 C1927 1.391 . S
C1928 C1929 1.391 . S
C1929 C1928 1.391 . S
C1929 C1930 1.392 . S
C1929 H1958 0.947 . S
C1930 C1929 1.392 . S
C1930 C1931 1.419 . S
C1930 H1959 0.948 . S
C1931 C1930 1.419 . S
C1931 C1932 1.391 . S
C1931 C1935 1.397 . S
C1932 C1927 1.391 . S
C1932 C1931 1.391 . S
C1932 C1933 1.399 . S
C1933 C1932 1.399 . S
C1933 C1934 1.396 . S
C1933 C1936 1.453 . S
C1933 C1937 1.684 . S
C1934 C1915 1.723 . S
C1934 C1933 1.396 . S
C1934 C1935 1.394 . S
C1935 C1931 1.397 . S
C1935 C1934 1.394 . S
C1935 C1945 1.723 . S
C1936 C1933 1.453 . S
C1936 H1960 0.982 . S
C1936 H1961 0.979 . S
C1936 H1962 0.977 . S
C1937 C1933 1.684 . S
C1937 H1963 0.979 . S
C1937 H1964 0.980 . S
C1937 H1965 0.983 . S
C1938 H1914 0.948 . S
C1938 C1939 1.391 . S
C1938 C1943 1.391 . S
C1939 C1938 1.391 . S
C1939 C1940 1.391 . S
C1940 H1917 0.947 . S
C1940 C1939 1.391 . S
C1940 C1941 1.392 . S
C1941 H1918 0.948 . S
C1941 C1940 1.392 . S
C1941 C1942 1.419 . S
C1942 C1941 1.419 . S
C1942 C1943 1.391 . S
C1942 C1946 1.397 . S
C1943 C1938 1.391 . S
C1943 C1942 1.391 . S
C1943 C1944 1.399 . S
C1944 C1943 1.399 . S
C1944 C1945 1.396 . S
C1944 C1947 1.453 . S
C1944 C1948 1.684 . S
C1945 C1935 1.723 . S
C1945 C1944 1.396 . S
C1945 C1946 1.394 . S
C1946 C1916 1.723 . S
C1946 C1942 1.397 . S
C1946 C1945 1.394 . S
C1947 H1919 0.982 . S
C1947 H1923 0.979 . S
C1947 H1924 0.977 . S
C1947 C1944 1.453 . S
C1948 H1920 0.979 . S
C1948 H1921 0.980 . S
C1948 H1922 0.983 . S
C1948 C1944 1.684 . S
H1949 C1967 0.948 . S
H1950 C1908 0.948 . S
H1951 C1926 0.979 . S
H1952 C1926 0.980 . S
H1953 C1926 0.983 . S
H1954 C1925 0.982 . S
H1955 C1925 0.979 . S
H1956 C1925 0.977 . S
H1957 C1927 0.948 . S
H1958 C1929 0.947 . S
H1959 C1930 0.948 . S
H1960 C1936 0.982 . S
H1961 C1936 0.979 . S
H1962 C1936 0.977 . S
H1963 C1937 0.979 . S
H1964 C1937 0.980 . S
H1965 C1937 0.983 . S
H1966 C1910 0.947 . S
C1967 C1910 1.392 . S
C1967 C1911 1.419 . S
C1967 H1949 0.948 . S
C1968 C1969 1.391 . S
C1968 C1972 1.391 . S
C1968 H2010 0.948 . S
C1969 C1968 1.391 . S
C1969 C1970 1.391 . S
C1970 C1969 1.391 . S
C1970 H2026 0.947 . S
C1970 C2027 1.392 . S
C1971 C1972 1.391 . S
C1971 C1975 1.397 . S
C1971 C2027 1.419 . S
C1972 C1968 1.391 . S
C1972 C1971 1.391 . S
C1972 C1973 1.399 . S
C1973 C1972 1.399 . S
C1973 C1976 1.396 . S
C1973 C1985 1.453 . S
C1973 C1986 1.684 . S
H1974 C1998 0.948 . S
C1975 C1971 1.397 . S
C1975 C1976 1.394 . S
C1975 C1994 1.723 . S
C1976 C1973 1.396 . S
C1976 C1975 1.394 . S
C1976 C2006 1.723 . S
H1977 C2000 0.947 . S
H1978 C2001 0.948 . S
H1979 C2007 0.982 . S
H1980 C2008 0.979 . S
H1981 C2008 0.980 . S
H1982 C2008 0.983 . S
H1983 C2007 0.979 . S
H1984 C2007 0.977 . S
C1985 C1973 1.453 . S
C1985 H2014 0.982 . S
C1985 H2015 0.979 . S
C1985 H2016 0.977 . S
C1986 C1973 1.684 . S
C1986 H2011 0.979 . S
C1986 H2012 0.980 . S
C1986 H2013 0.983 . S
C1987 C1988 1.391 . S
C1987 C1992 1.391 . S
C1987 H2017 0.948 . S
C1988 C1987 1.391 . S
C1988 C1989 1.391 . S
C1989 C1988 1.391 . S
C1989 C1990 1.392 . S
C1989 H2018 0.947 . S
C1990 C1989 1.392 . S
C1990 C1991 1.419 . S
C1990 H2019 0.948 . S
C1991 C1990 1.419 . S
C1991 C1992 1.391 . S
C1991 C1995 1.397 . S
C1992 C1987 1.391 . S
C1992 C1991 1.391 . S
C1992 C1993 1.399 . S
C1993 C1992 1.399 . S
C1993 C1994 1.396 . S
C1993 C1996 1.453 . S
C1993 C1997 1.684 . S
C1994 C1975 1.723 . S
C1994 C1993 1.396 . S
C1994 C1995 1.394 . S
C1995 C1991 1.397 . S
C1995 C1994 1.394 . S
C1995 C2005 1.723 . S
C1996 C1993 1.453 . S
C1996 H2020 0.982 . S
C1996 H2021 0.979 . S
C1996 H2022 0.977 . S
C1997 C1993 1.684 . S
C1997 H2023 0.979 . S
C1997 H2024 0.980 . S
C1997 H2025 0.983 . S
C1998 H1974 0.948 . S
C1998 C1999 1.391 . S
C1998 C2003 1.391 . S
C1999 C1998 1.391 . S
C1999 C2000 1.391 . S
C2000 H1977 0.947 . S
C2000 C1999 1.391 . S
C2000 C2001 1.392 . S
C2001 H1978 0.948 . S
C2001 C2000 1.392 . S
C2001 C2002 1.419 . S
C2002 C2001 1.419 . S
C2002 C2003 1.391 . S
C2002 C2006 1.397 . S
C2003 C1998 1.391 . S
C2003 C2002 1.391 . S
C2003 C2004 1.399 . S
C2004 C2003 1.399 . S
C2004 C2005 1.396 . S
C2004 C2007 1.453 . S
C2004 C2008 1.684 . S
C2005 C1995 1.723 . S
C2005 C2004 1.396 . S
C2005 C2006 1.394 . S
C2006 C1976 1.723 . S
C2006 C2002 1.397 . S
C2006 C2005 1.394 . S
C2007 H1979 0.982 . S
C2007 H1983 0.979 . S
C2007 H1984 0.977 . S
C2007 C2004 1.453 . S
C2008 H1980 0.979 . S
C2008 H1981 0.980 . S
C2008 H1982 0.983 . S
C2008 C2004 1.684 . S
H2009 C2027 0.948 . S
H2010 C1968 0.948 . S
H2011 C1986 0.979 . S
H2012 C1986 0.980 . S
H2013 C1986 0.983 . S
H2014 C1985 0.982 . S
H2015 C1985 0.979 . S
H2016 C1985 0.977 . S
H2017 C1987 0.948 . S
H2018 C1989 0.947 . S
H2019 C1990 0.948 . S
H2020 C1996 0.982 . S
H2021 C1996 0.979 . S
H2022 C1996 0.977 . S
H2023 C1997 0.979 . S
H2024 C1997 0.980 . S
H2025 C1997 0.983 . S
H2026 C1970 0.947 . S
C2027 C1970 1.392 . S
C2027 C1971 1.419 . S
C2027 H2009 0.948 . S
C2028 C2029 1.391 . S
C2028 C2032 1.391 . S
C2028 H2070 0.948 . S
C2029 C2028 1.391 . S
C2029 C2030 1.391 . S
C2030 C2029 1.391 . S
C2030 H2086 0.947 . S
C2030 C2087 1.392 . S
C2031 C2032 1.391 . S
C2031 C2035 1.397 . S
C2031 C2087 1.419 . S
C2032 C2028 1.391 . S
C2032 C2031 1.391 . S
C2032 C2033 1.399 . S
C2033 C2032 1.399 . S
C2033 C2036 1.396 . S
C2033 C2045 1.453 . S
C2033 C2046 1.684 . S
H2034 C2058 0.948 . S
C2035 C2031 1.397 . S
C2035 C2036 1.394 . S
C2035 C2054 1.723 . S
C2036 C2033 1.396 . S
C2036 C2035 1.394 . S
C2036 C2066 1.723 . S
H2037 C2060 0.947 . S
H2038 C2061 0.948 . S
H2039 C2067 0.982 . S
H2040 C2068 0.979 . S
H2041 C2068 0.980 . S
H2042 C2068 0.983 . S
H2043 C2067 0.979 . S
H2044 C2067 0.977 . S
C2045 C2033 1.453 . S
C2045 H2074 0.982 . S
C2045 H2075 0.979 . S
C2045 H2076 0.977 . S
C2046 C2033 1.684 . S
C2046 H2071 0.979 . S
C2046 H2072 0.980 . S
C2046 H2073 0.983 . S
C2047 C2048 1.391 . S
C2047 C2052 1.391 . S
C2047 H2077 0.948 . S
C2048 C2047 1.391 . S
C2048 C2049 1.391 . S
C2049 C2048 1.391 . S
C2049 C2050 1.392 . S
C2049 H2078 0.947 . S
C2050 C2049 1.392 . S
C2050 C2051 1.419 . S
C2050 H2079 0.948 . S
C2051 C2050 1.419 . S
C2051 C2052 1.391 . S
C2051 C2055 1.397 . S
C2052 C2047 1.391 . S
C2052 C2051 1.391 . S
C2052 C2053 1.399 . S
C2053 C2052 1.399 . S
C2053 C2054 1.396 . S
C2053 C2056 1.453 . S
C2053 C2057 1.684 . S
C2054 C2035 1.723 . S
C2054 C2053 1.396 . S
C2054 C2055 1.394 . S
C2055 C2051 1.397 . S
C2055 C2054 1.394 . S
C2055 C2065 1.723 . S
C2056 C2053 1.453 . S
C2056 H2080 0.982 . S
C2056 H2081 0.979 . S
C2056 H2082 0.977 . S
C2057 C2053 1.684 . S
C2057 H2083 0.979 . S
C2057 H2084 0.980 . S
C2057 H2085 0.983 . S
C2058 H2034 0.948 . S
C2058 C2059 1.391 . S
C2058 C2063 1.391 . S
C2059 C2058 1.391 . S
C2059 C2060 1.391 . S
C2060 H2037 0.947 . S
C2060 C2059 1.391 . S
C2060 C2061 1.392 . S
C2061 H2038 0.948 . S
C2061 C2060 1.392 . S
C2061 C2062 1.419 . S
C2062 C2061 1.419 . S
C2062 C2063 1.391 . S
C2062 C2066 1.397 . S
C2063 C2058 1.391 . S
C2063 C2062 1.391 . S
C2063 C2064 1.399 . S
C2064 C2063 1.399 . S
C2064 C2065 1.396 . S
C2064 C2067 1.453 . S
C2064 C2068 1.684 . S
C2065 C2055 1.723 . S
C2065 C2064 1.396 . S
C2065 C2066 1.394 . S
C2066 C2036 1.723 . S
C2066 C2062 1.397 . S
C2066 C2065 1.394 . S
C2067 H2039 0.982 . S
C2067 H2043 0.979 . S
C2067 H2044 0.977 . S
C2067 C2064 1.453 . S
C2068 H2040 0.979 . S
C2068 H2041 0.980 . S
C2068 H2042 0.983 . S
C2068 C2064 1.684 . S
H2069 C2087 0.948 . S
H2070 C2028 0.948 . S
H2071 C2046 0.979 . S
H2072 C2046 0.980 . S
H2073 C2046 0.983 . S
H2074 C2045 0.982 . S
H2075 C2045 0.979 . S
H2076 C2045 0.977 . S
H2077 C2047 0.948 . S
H2078 C2049 0.947 . S
H2079 C2050 0.948 . S
H2080 C2056 0.982 . S
H2081 C2056 0.979 . S
H2082 C2056 0.977 . S
H2083 C2057 0.979 . S
H2084 C2057 0.980 . S
H2085 C2057 0.983 . S
H2086 C2030 0.947 . S
C2087 C2030 1.392 . S
C2087 C2031 1.419 . S
C2087 H2069 0.948 . S
C2088 C2089 1.391 . S
C2088 C2092 1.391 . S
C2088 H2130 0.948 . S
C2089 C2088 1.391 . S
C2089 C2090 1.391 . S
C2090 C2089 1.391 . S
C2090 H2146 0.947 . S
C2090 C2147 1.392 . S
C2091 C2092 1.391 . S
C2091 C2095 1.397 . S
C2091 C2147 1.419 . S
C2092 C2088 1.391 . S
C2092 C2091 1.391 . S
C2092 C2093 1.399 . S
C2093 C2092 1.399 . S
C2093 C2096 1.396 . S
C2093 C2105 1.453 . S
C2093 C2106 1.684 . S
H2094 C2118 0.948 . S
C2095 C2091 1.397 . S
C2095 C2096 1.394 . S
C2095 C2114 1.723 . S
C2096 C2093 1.396 . S
C2096 C2095 1.394 . S
C2096 C2126 1.723 . S
H2097 C2120 0.947 . S
H2098 C2121 0.948 . S
H2099 C2127 0.982 . S
H2100 C2128 0.979 . S
H2101 C2128 0.980 . S
H2102 C2128 0.983 . S
H2103 C2127 0.979 . S
H2104 C2127 0.977 . S
C2105 C2093 1.453 . S
C2105 H2134 0.982 . S
C2105 H2135 0.979 . S
C2105 H2136 0.977 . S
C2106 C2093 1.684 . S
C2106 H2131 0.979 . S
C2106 H2132 0.980 . S
C2106 H2133 0.983 . S
C2107 C2108 1.391 . S
C2107 C2112 1.391 . S
C2107 H2137 0.948 . S
C2108 C2107 1.391 . S
C2108 C2109 1.391 . S
C2109 C2108 1.391 . S
C2109 C2110 1.392 . S
C2109 H2138 0.947 . S
C2110 C2109 1.392 . S
C2110 C2111 1.419 . S
C2110 H2139 0.948 . S
C2111 C2110 1.419 . S
C2111 C2112 1.391 . S
C2111 C2115 1.397 . S
C2112 C2107 1.391 . S
C2112 C2111 1.391 . S
C2112 C2113 1.399 . S
C2113 C2112 1.399 . S
C2113 C2114 1.396 . S
C2113 C2116 1.453 . S
C2113 C2117 1.684 . S
C2114 C2095 1.723 . S
C2114 C2113 1.396 . S
C2114 C2115 1.394 . S
C2115 C2111 1.397 . S
C2115 C2114 1.394 . S
C2115 C2125 1.723 . S
C2116 C2113 1.453 . S
C2116 H2140 0.982 . S
C2116 H2141 0.979 . S
C2116 H2142 0.977 . S
C2117 C2113 1.684 . S
C2117 H2143 0.979 . S
C2117 H2144 0.980 . S
C2117 H2145 0.983 . S
C2118 H2094 0.948 . S
C2118 C2119 1.391 . S
C2118 C2123 1.391 . S
C2119 C2118 1.391 . S
C2119 C2120 1.391 . S
C2120 H2097 0.947 . S
C2120 C2119 1.391 . S
C2120 C2121 1.392 . S
C2121 H2098 0.948 . S
C2121 C2120 1.392 . S
C2121 C2122 1.419 . S
C2122 C2121 1.419 . S
C2122 C2123 1.391 . S
C2122 C2126 1.397 . S
C2123 C2118 1.391 . S
C2123 C2122 1.391 . S
C2123 C2124 1.399 . S
C2124 C2123 1.399 . S
C2124 C2125 1.396 . S
C2124 C2127 1.453 . S
C2124 C2128 1.684 . S
C2125 C2115 1.723 . S
C2125 C2124 1.396 . S
C2125 C2126 1.394 . S
C2126 C2096 1.723 . S
C2126 C2122 1.397 . S
C2126 C2125 1.394 . S
C2127 H2099 0.982 . S
C2127 H2103 0.979 . S
C2127 H2104 0.977 . S
C2127 C2124 1.453 . S
C2128 H2100 0.979 . S
C2128 H2101 0.980 . S
C2128 H2102 0.983 . S
C2128 C2124 1.684 . S
H2129 C2147 0.948 . S
H2130 C2088 0.948 . S
H2131 C2106 0.979 . S
H2132 C2106 0.980 . S
H2133 C2106 0.983 . S
H2134 C2105 0.982 . S
H2135 C2105 0.979 . S
H2136 C2105 0.977 . S
H2137 C2107 0.948 . S
H2138 C2109 0.947 . S
H2139 C2110 0.948 . S
H2140 C2116 0.982 . S
H2141 C2116 0.979 . S
H2142 C2116 0.977 . S
H2143 C2117 0.979 . S
H2144 C2117 0.980 . S
H2145 C2117 0.983 . S
H2146 C2090 0.947 . S
C2147 C2090 1.392 . S
C2147 C2091 1.419 . S
C2147 H2129 0.948 . S
C2148 C2149 1.391 . S
C2148 C2152 1.391 . S
C2148 H2190 0.948 . S
C2149 C2148 1.391 . S
C2149 C2150 1.391 . S
C2150 C2149 1.391 . S
C2150 H2206 0.947 . S
C2150 C2207 1.392 . S
C2151 C2152 1.391 . S
C2151 C2155 1.397 . S
C2151 C2207 1.419 . S
C2152 C2148 1.391 . S
C2152 C2151 1.391 . S
C2152 C2153 1.399 . S
C2153 C2152 1.399 . S
C2153 C2156 1.396 . S
C2153 C2165 1.453 . S
C2153 C2166 1.684 . S
H2154 C2178 0.948 . S
C2155 C2151 1.397 . S
C2155 C2156 1.394 . S
C2155 C2174 1.723 . S
C2156 C2153 1.396 . S
C2156 C2155 1.394 . S
C2156 C2186 1.723 . S
H2157 C2180 0.947 . S
H2158 C2181 0.948 . S
H2159 C2187 0.982 . S
H2160 C2188 0.979 . S
H2161 C2188 0.980 . S
H2162 C2188 0.983 . S
H2163 C2187 0.979 . S
H2164 C2187 0.977 . S
C2165 C2153 1.453 . S
C2165 H2194 0.982 . S
C2165 H2195 0.979 . S
C2165 H2196 0.977 . S
C2166 C2153 1.684 . S
C2166 H2191 0.979 . S
C2166 H2192 0.980 . S
C2166 H2193 0.983 . S
C2167 C2168 1.391 . S
C2167 C2172 1.391 . S
C2167 H2197 0.948 . S
C2168 C2167 1.391 . S
C2168 C2169 1.391 . S
C2169 C2168 1.391 . S
C2169 C2170 1.392 . S
C2169 H2198 0.947 . S
C2170 C2169 1.392 . S
C2170 C2171 1.419 . S
C2170 H2199 0.948 . S
C2171 C2170 1.419 . S
C2171 C2172 1.391 . S
C2171 C2175 1.397 . S
C2172 C2167 1.391 . S
C2172 C2171 1.391 . S
C2172 C2173 1.399 . S
C2173 C2172 1.399 . S
C2173 C2174 1.396 . S
C2173 C2176 1.453 . S
C2173 C2177 1.684 . S
C2174 C2155 1.723 . S
C2174 C2173 1.396 . S
C2174 C2175 1.394 . S
C2175 C2171 1.397 . S
C2175 C2174 1.394 . S
C2175 C2185 1.723 . S
C2176 C2173 1.453 . S
C2176 H2200 0.982 . S
C2176 H2201 0.979 . S
C2176 H2202 0.977 . S
C2177 C2173 1.684 . S
C2177 H2203 0.979 . S
C2177 H2204 0.980 . S
C2177 H2205 0.983 . S
C2178 H2154 0.948 . S
C2178 C2179 1.391 . S
C2178 C2183 1.391 . S
C2179 C2178 1.391 . S
C2179 C2180 1.391 . S
C2180 H2157 0.947 . S
C2180 C2179 1.391 . S
C2180 C2181 1.392 . S
C2181 H2158 0.948 . S
C2181 C2180 1.392 . S
C2181 C2182 1.419 . S
C2182 C2181 1.419 . S
C2182 C2183 1.391 . S
C2182 C2186 1.397 . S
C2183 C2178 1.391 . S
C2183 C2182 1.391 . S
C2183 C2184 1.399 . S
C2184 C2183 1.399 . S
C2184 C2185 1.396 . S
C2184 C2187 1.453 . S
C2184 C2188 1.684 . S
C2185 C2175 1.723 . S
C2185 C2184 1.396 . S
C2185 C2186 1.394 . S
C2186 C2156 1.723 . S
C2186 C2182 1.397 . S
C2186 C2185 1.394 . S
C2187 H2159 0.982 . S
C2187 H2163 0.979 . S
C2187 H2164 0.977 . S
C2187 C2184 1.453 . S
C2188 H2160 0.979 . S
C2188 H2161 0.980 . S
C2188 H2162 0.983 . S
C2188 C2184 1.684 . S
H2189 C2207 0.948 . S
H2190 C2148 0.948 . S
H2191 C2166 0.979 . S
H2192 C2166 0.980 . S
H2193 C2166 0.983 . S
H2194 C2165 0.982 . S
H2195 C2165 0.979 . S
H2196 C2165 0.977 . S
H2197 C2167 0.948 . S
H2198 C2169 0.947 . S
H2199 C2170 0.948 . S
H2200 C2176 0.982 . S
H2201 C2176 0.979 . S
H2202 C2176 0.977 . S
H2203 C2177 0.979 . S
H2204 C2177 0.980 . S
H2205 C2177 0.983 . S
H2206 C2150 0.947 . S
C2207 C2150 1.392 . S
C2207 C2151 1.419 . S
C2207 H2189 0.948 . S
C2208 C2209 1.391 . S
C2208 C2212 1.391 . S
C2208 H2250 0.948 . S
C2209 C2208 1.391 . S
C2209 C2210 1.391 . S
C2210 C2209 1.391 . S
C2210 H2266 0.947 . S
C2210 C2267 1.392 . S
C2211 C2212 1.391 . S
C2211 C2215 1.397 . S
C2211 C2267 1.419 . S
C2212 C2208 1.391 . S
C2212 C2211 1.391 . S
C2212 C2213 1.399 . S
C2213 C2212 1.399 . S
C2213 C2216 1.396 . S
C2213 C2225 1.453 . S
C2213 C2226 1.684 . S
H2214 C2238 0.948 . S
C2215 C2211 1.397 . S
C2215 C2216 1.394 . S
C2215 C2234 1.723 . S
C2216 C2213 1.396 . S
C2216 C2215 1.394 . S
C2216 C2246 1.723 . S
H2217 C2240 0.947 . S
H2218 C2241 0.948 . S
H2219 C2247 0.982 . S
H2220 C2248 0.979 . S
H2221 C2248 0.980 . S
H2222 C2248 0.983 . S
H2223 C2247 0.979 . S
H2224 C2247 0.977 . S
C2225 C2213 1.453 . S
C2225 H2254 0.982 . S
C2225 H2255 0.979 . S
C2225 H2256 0.977 . S
C2226 C2213 1.684 . S
C2226 H2251 0.979 . S
C2226 H2252 0.980 . S
C2226 H2253 0.983 . S
C2227 C2228 1.391 . S
C2227 C2232 1.391 . S
C2227 H2257 0.948 . S
C2228 C2227 1.391 . S
C2228 C2229 1.391 . S
C2229 C2228 1.391 . S
C2229 C2230 1.392 . S
C2229 H2258 0.947 . S
C2230 C2229 1.392 . S
C2230 C2231 1.419 . S
C2230 H2259 0.948 . S
C2231 C2230 1.419 . S
C2231 C2232 1.391 . S
C2231 C2235 1.397 . S
C2232 C2227 1.391 . S
C2232 C2231 1.391 . S
C2232 C2233 1.399 . S
C2233 C2232 1.399 . S
C2233 C2234 1.396 . S
C2233 C2236 1.453 . S
C2233 C2237 1.684 . S
C2234 C2215 1.723 . S
C2234 C2233 1.396 . S
C2234 C2235 1.394 . S
C2235 C2231 1.397 . S
C2235 C2234 1.394 . S
C2235 C2245 1.723 . S
C2236 C2233 1.453 . S
C2236 H2260 0.982 . S
C2236 H2261 0.979 . S
C2236 H2262 0.977 . S
C2237 C2233 1.684 . S
C2237 H2263 0.979 . S
C2237 H2264 0.980 . S
C2237 H2265 0.983 . S
C2238 H2214 0.948 . S
C2238 C2239 1.391 . S
C2238 C2243 1.391 . S
C2239 C2238 1.391 . S
C2239 C2240 1.391 . S
C2240 H2217 0.947 . S
C2240 C2239 1.391 . S
C2240 C2241 1.392 . S
C2241 H2218 0.948 . S
C2241 C2240 1.392 . S
C2241 C2242 1.419 . S
C2242 C2241 1.419 . S
C2242 C2243 1.391 . S
C2242 C2246 1.397 . S
C2243 C2238 1.391 . S
C2243 C2242 1.391 . S
C2243 C2244 1.399 . S
C2244 C2243 1.399 . S
C2244 C2245 1.396 . S
C2244 C2247 1.453 . S
C2244 C2248 1.684 . S
C2245 C2235 1.723 . S
C2245 C2244 1.396 . S
C2245 C2246 1.394 . S
C2246 C2216 1.723 . S
C2246 C2242 1.397 . S
C2246 C2245 1.394 . S
C2247 H2219 0.982 . S
C2247 H2223 0.979 . S
C2247 H2224 0.977 . S
C2247 C2244 1.453 . S
C2248 H2220 0.979 . S
C2248 H2221 0.980 . S
C2248 H2222 0.983 . S
C2248 C2244 1.684 . S
H2249 C2267 0.948 . S
H2250 C2208 0.948 . S
H2251 C2226 0.979 . S
H2252 C2226 0.980 . S
H2253 C2226 0.983 . S
H2254 C2225 0.982 . S
H2255 C2225 0.979 . S
H2256 C2225 0.977 . S
H2257 C2227 0.948 . S
H2258 C2229 0.947 . S
H2259 C2230 0.948 . S
H2260 C2236 0.982 . S
H2261 C2236 0.979 . S
H2262 C2236 0.977 . S
H2263 C2237 0.979 . S
H2264 C2237 0.980 . S
H2265 C2237 0.983 . S
H2266 C2210 0.947 . S
C2267 C2210 1.392 . S
C2267 C2211 1.419 . S
C2267 H2249 0.948 . S
C2268 C2269 1.391 . S
C2268 C2272 1.391 . S
C2268 H2310 0.948 . S
C2269 C2268 1.391 . S
C2269 C2270 1.391 . S
C2270 C2269 1.391 . S
C2270 H2326 0.947 . S
C2270 C2327 1.392 . S
C2271 C2272 1.391 . S
C2271 C2275 1.397 . S
C2271 C2327 1.419 . S
C2272 C2268 1.391 . S
C2272 C2271 1.391 . S
C2272 C2273 1.399 . S
C2273 C2272 1.399 . S
C2273 C2276 1.396 . S
C2273 C2285 1.453 . S
C2273 C2286 1.684 . S
H2274 C2298 0.948 . S
C2275 C2271 1.397 . S
C2275 C2276 1.394 . S
C2275 C2294 1.723 . S
C2276 C2273 1.396 . S
C2276 C2275 1.394 . S
C2276 C2306 1.723 . S
H2277 C2300 0.947 . S
H2278 C2301 0.948 . S
H2279 C2307 0.982 . S
H2280 C2308 0.979 . S
H2281 C2308 0.980 . S
H2282 C2308 0.983 . S
H2283 C2307 0.979 . S
H2284 C2307 0.977 . S
C2285 C2273 1.453 . S
C2285 H2314 0.982 . S
C2285 H2315 0.979 . S
C2285 H2316 0.977 . S
C2286 C2273 1.684 . S
C2286 H2311 0.979 . S
C2286 H2312 0.980 . S
C2286 H2313 0.983 . S
C2287 C2288 1.391 . S
C2287 C2292 1.391 . S
C2287 H2317 0.948 . S
C2288 C2287 1.391 . S
C2288 C2289 1.391 . S
C2289 C2288 1.391 . S
C2289 C2290 1.392 . S
C2289 H2318 0.947 . S
C2290 C2289 1.392 . S
C2290 C2291 1.419 . S
C2290 H2319 0.948 . S
C2291 C2290 1.419 . S
C2291 C2292 1.391 . S
C2291 C2295 1.397 . S
C2292 C2287 1.391 . S
C2292 C2291 1.391 . S
C2292 C2293 1.399 . S
C2293 C2292 1.399 . S
C2293 C2294 1.396 . S
C2293 C2296 1.453 . S
C2293 C2297 1.684 . S
C2294 C2275 1.723 . S
C2294 C2293 1.396 . S
C2294 C2295 1.394 . S
C2295 C2291 1.397 . S
C2295 C2294 1.394 . S
C2295 C2305 1.723 . S
C2296 C2293 1.453 . S
C2296 H2320 0.982 . S
C2296 H2321 0.979 . S
C2296 H2322 0.977 . S
C2297 C2293 1.684 . S
C2297 H2323 0.979 . S
C2297 H2324 0.980 . S
C2297 H2325 0.983 . S
C2298 H2274 0.948 . S
C2298 C2299 1.391 . S
C2298 C2303 1.391 . S
C2299 C2298 1.391 . S
C2299 C2300 1.391 . S
C2300 H2277 0.947 . S
C2300 C2299 1.391 . S
C2300 C2301 1.392 . S
C2301 H2278 0.948 . S
C2301 C2300 1.392 . S
C2301 C2302 1.419 . S
C2302 C2301 1.419 . S
C2302 C2303 1.391 . S
C2302 C2306 1.397 . S
C2303 C2298 1.391 . S
C2303 C2302 1.391 . S
C2303 C2304 1.399 . S
C2304 C2303 1.399 . S
C2304 C2305 1.396 . S
C2304 C2307 1.453 . S
C2304 C2308 1.684 . S
C2305 C2295 1.723 . S
C2305 C2304 1.396 . S
C2305 C2306 1.394 . S
C2306 C2276 1.723 . S
C2306 C2302 1.397 . S
C2306 C2305 1.394 . S
C2307 H2279 0.982 . S
C2307 H2283 0.979 . S
C2307 H2284 0.977 . S
C2307 C2304 1.453 . S
C2308 H2280 0.979 . S
C2308 H2281 0.980 . S
C2308 H2282 0.983 . S
C2308 C2304 1.684 . S
H2309 C2327 0.948 . S
H2310 C2268 0.948 . S
H2311 C2286 0.979 . S
H2312 C2286 0.980 . S
H2313 C2286 0.983 . S
H2314 C2285 0.982 . S
H2315 C2285 0.979 . S
H2316 C2285 0.977 . S
H2317 C2287 0.948 . S
H2318 C2289 0.947 . S
H2319 C2290 0.948 . S
H2320 C2296 0.982 . S
H2321 C2296 0.979 . S
H2322 C2296 0.977 . S
H2323 C2297 0.979 . S
H2324 C2297 0.980 . S
H2325 C2297 0.983 . S
H2326 C2270 0.947 . S
C2327 C2270 1.392 . S
C2327 C2271 1.419 . S
C2327 H2309 0.948 . S
C2328 C2329 1.391 . S
C2328 C2332 1.391 . S
C2328 H2370 0.948 . S
C2329 C2328 1.391 . S
C2329 C2330 1.391 . S
C2330 C2329 1.391 . S
C2330 H2386 0.947 . S
C2330 C2387 1.392 . S
C2331 C2332 1.391 . S
C2331 C2335 1.397 . S
C2331 C2387 1.419 . S
C2332 C2328 1.391 . S
C2332 C2331 1.391 . S
C2332 C2333 1.399 . S
C2333 C2332 1.399 . S
C2333 C2336 1.396 . S
C2333 C2345 1.453 . S
C2333 C2346 1.684 . S
H2334 C2358 0.948 . S
C2335 C2331 1.397 . S
C2335 C2336 1.394 . S
C2335 C2354 1.723 . S
C2336 C2333 1.396 . S
C2336 C2335 1.394 . S
C2336 C2366 1.723 . S
H2337 C2360 0.947 . S
H2338 C2361 0.948 . S
H2339 C2367 0.982 . S
H2340 C2368 0.979 . S
H2341 C2368 0.980 . S
H2342 C2368 0.983 . S
H2343 C2367 0.979 . S
H2344 C2367 0.977 . S
C2345 C2333 1.453 . S
C2345 H2374 0.982 . S
C2345 H2375 0.979 . S
C2345 H2376 0.977 . S
C2346 C2333 1.684 . S
C2346 H2371 0.979 . S
C2346 H2372 0.980 . S
C2346 H2373 0.983 . S
C2347 C2348 1.391 . S
C2347 C2352 1.391 . S
C2347 H2377 0.948 . S
C2348 C2347 1.391 . S
C2348 C2349 1.391 . S
C2349 C2348 1.391 . S
C2349 C2350 1.392 . S
C2349 H2378 0.947 . S
C2350 C2349 1.392 . S
C2350 C2351 1.419 . S
C2350 H2379 0.948 . S
C2351 C2350 1.419 . S
C2351 C2352 1.391 . S
C2351 C2355 1.397 . S
C2352 C2347 1.391 . S
C2352 C2351 1.391 . S
C2352 C2353 1.399 . S
C2353 C2352 1.399 . S
C2353 C2354 1.396 . S
C2353 C2356 1.453 . S
C2353 C2357 1.684 . S
C2354 C2335 1.723 . S
C2354 C2353 1.396 . S
C2354 C2355 1.394 . S
C2355 C2351 1.397 . S
C2355 C2354 1.394 . S
C2355 C2365 1.723 . S
C2356 C2353 1.453 . S
C2356 H2380 0.982 . S
C2356 H2381 0.979 . S
C2356 H2382 0.977 . S
C2357 C2353 1.684 . S
C2357 H2383 0.979 . S
C2357 H2384 0.980 . S
C2357 H2385 0.983 . S
C2358 H2334 0.948 . S
C2358 C2359 1.391 . S
C2358 C2363 1.391 . S
C2359 C2358 1.391 . S
C2359 C2360 1.391 . S
C2360 H2337 0.947 . S
C2360 C2359 1.391 . S
C2360 C2361 1.392 . S
C2361 H2338 0.948 . S
C2361 C2360 1.392 . S
C2361 C2362 1.419 . S
C2362 C2361 1.419 . S
C2362 C2363 1.391 . S
C2362 C2366 1.397 . S
C2363 C2358 1.391 . S
C2363 C2362 1.391 . S
C2363 C2364 1.399 . S
C2364 C2363 1.399 . S
C2364 C2365 1.396 . S
C2364 C2367 1.453 . S
C2364 C2368 1.684 . S
C2365 C2355 1.723 . S
C2365 C2364 1.396 . S
C2365 C2366 1.394 . S
C2366 C2336 1.723 . S
C2366 C2362 1.397 . S
C2366 C2365 1.394 . S
C2367 H2339 0.982 . S
C2367 H2343 0.979 . S
C2367 H2344 0.977 . S
C2367 C2364 1.453 . S
C2368 H2340 0.979 . S
C2368 H2341 0.980 . S
C2368 H2342 0.983 . S
C2368 C2364 1.684 . S
H2369 C2387 0.948 . S
H2370 C2328 0.948 . S
H2371 C2346 0.979 . S
H2372 C2346 0.980 . S
H2373 C2346 0.983 . S
H2374 C2345 0.982 . S
H2375 C2345 0.979 . S
H2376 C2345 0.977 . S
H2377 C2347 0.948 . S
H2378 C2349 0.947 . S
H2379 C2350 0.948 . S
H2380 C2356 0.982 . S
H2381 C2356 0.979 . S
H2382 C2356 0.977 . S
H2383 C2357 0.979 . S
H2384 C2357 0.980 . S
H2385 C2357 0.983 . S
H2386 C2330 0.947 . S
C2387 C2330 1.392 . S
C2387 C2331 1.419 . S
C2387 H2369 0.948 . S
C2388 C2389 1.391 . S
C2388 C2392 1.391 . S
C2388 H2430 0.948 . S
C2389 C2388 1.391 . S
C2389 C2390 1.391 . S
C2390 C2389 1.391 . S
C2390 H2446 0.947 . S
C2390 C2447 1.392 . S
C2391 C2392 1.391 . S
C2391 C2395 1.397 . S
C2391 C2447 1.419 . S
C2392 C2388 1.391 . S
C2392 C2391 1.391 . S
C2392 C2393 1.399 . S
C2393 C2392 1.399 . S
C2393 C2396 1.396 . S
C2393 C2405 1.453 . S
C2393 C2406 1.684 . S
H2394 C2418 0.948 . S
C2395 C2391 1.397 . S
C2395 C2396 1.394 . S
C2395 C2414 1.723 . S
C2396 C2393 1.396 . S
C2396 C2395 1.394 . S
C2396 C2426 1.723 . S
H2397 C2420 0.947 . S
H2398 C2421 0.948 . S
H2399 C2427 0.982 . S
H2400 C2428 0.979 . S
H2401 C2428 0.980 . S
H2402 C2428 0.983 . S
H2403 C2427 0.979 . S
H2404 C2427 0.977 . S
C2405 C2393 1.453 . S
C2405 H2434 0.982 . S
C2405 H2435 0.979 . S
C2405 H2436 0.977 . S
C2406 C2393 1.684 . S
C2406 H2431 0.979 . S
C2406 H2432 0.980 . S
C2406 H2433 0.983 . S
C2407 C2408 1.391 . S
C2407 C2412 1.391 . S
C2407 H2437 0.948 . S
C2408 C2407 1.391 . S
C2408 C2409 1.391 . S
C2409 C2408 1.391 . S
C2409 C2410 1.392 . S
C2409 H2438 0.947 . S
C2410 C2409 1.392 . S
C2410 C2411 1.419 . S
C2410 H2439 0.948 . S
C2411 C2410 1.419 . S
C2411 C2412 1.391 . S
C2411 C2415 1.397 . S
C2412 C2407 1.391 . S
C2412 C2411 1.391 . S
C2412 C2413 1.399 . S
C2413 C2412 1.399 . S
C2413 C2414 1.396 . S
C2413 C2416 1.453 . S
C2413 C2417 1.684 . S
C2414 C2395 1.723 . S
C2414 C2413 1.396 . S
C2414 C2415 1.394 . S
C2415 C2411 1.397 . S
C2415 C2414 1.394 . S
C2415 C2425 1.723 . S
C2416 C2413 1.453 . S
C2416 H2440 0.982 . S
C2416 H2441 0.979 . S
C2416 H2442 0.977 . S
C2417 C2413 1.684 . S
C2417 H2443 0.979 . S
C2417 H2444 0.980 . S
C2417 H2445 0.983 . S
C2418 H2394 0.948 . S
C2418 C2419 1.391 . S
C2418 C2423 1.391 . S
C2419 C2418 1.391 . S
C2419 C2420 1.391 . S
C2420 H2397 0.947 . S
C2420 C2419 1.391 . S
C2420 C2421 1.392 . S
C2421 H2398 0.948 . S
C2421 C2420 1.392 . S
C2421 C2422 1.419 . S
C2422 C2421 1.419 . S
C2422 C2423 1.391 . S
C2422 C2426 1.397 . S
C2423 C2418 1.391 . S
C2423 C2422 1.391 . S
C2423 C2424 1.399 . S
C2424 C2423 1.399 . S
C2424 C2425 1.396 . S
C2424 C2427 1.453 . S
C2424 C2428 1.684 . S
C2425 C2415 1.723 . S
C2425 C2424 1.396 . S
C2425 C2426 1.394 . S
C2426 C2396 1.723 . S
C2426 C2422 1.397 . S
C2426 C2425 1.394 . S
C2427 H2399 0.982 . S
C2427 H2403 0.979 . S
C2427 H2404 0.977 . S
C2427 C2424 1.453 . S
C2428 H2400 0.979 . S
C2428 H2401 0.980 . S
C2428 H2402 0.983 . S
C2428 C2424 1.684 . S
H2429 C2447 0.948 . S
H2430 C2388 0.948 . S
H2431 C2406 0.979 . S
H2432 C2406 0.980 . S
H2433 C2406 0.983 . S
H2434 C2405 0.982 . S
H2435 C2405 0.979 . S
H2436 C2405 0.977 . S
H2437 C2407 0.948 . S
H2438 C2409 0.947 . S
H2439 C2410 0.948 . S
H2440 C2416 0.982 . S
H2441 C2416 0.979 . S
H2442 C2416 0.977 . S
H2443 C2417 0.979 . S
H2444 C2417 0.980 . S
H2445 C2417 0.983 . S
H2446 C2390 0.947 . S
C2447 C2390 1.392 . S
C2447 C2391 1.419 . S
C2447 H2429 0.948 . S
C2448 C2449 1.391 . S
C2448 C2452 1.391 . S
C2448 H2490 0.948 . S
C2449 C2448 1.391 . S
C2449 C2450 1.391 . S
C2450 C2449 1.391 . S
C2450 H2506 0.947 . S
C2450 C2507 1.392 . S
C2451 C2452 1.391 . S
C2451 C2455 1.397 . S
C2451 C2507 1.419 . S
C2452 C2448 1.391 . S
C2452 C2451 1.391 . S
C2452 C2453 1.399 . S
C2453 C2452 1.399 . S
C2453 C2456 1.396 . S
C2453 C2465 1.453 . S
C2453 C2466 1.684 . S
H2454 C2478 0.948 . S
C2455 C2451 1.397 . S
C2455 C2456 1.394 . S
C2455 C2474 1.723 . S
C2456 C2453 1.396 . S
C2456 C2455 1.394 . S
C2456 C2486 1.723 . S
H2457 C2480 0.947 . S
H2458 C2481 0.948 . S
H2459 C2487 0.982 . S
H2460 C2488 0.979 . S
H2461 C2488 0.980 . S
H2462 C2488 0.983 . S
H2463 C2487 0.979 . S
H2464 C2487 0.977 . S
C2465 C2453 1.453 . S
C2465 H2494 0.982 . S
C2465 H2495 0.979 . S
C2465 H2496 0.977 . S
C2466 C2453 1.684 . S
C2466 H2491 0.979 . S
C2466 H2492 0.980 . S
C2466 H2493 0.983 . S
C2467 C2468 1.391 . S
C2467 C2472 1.391 . S
C2467 H2497 0.948 . S
C2468 C2467 1.391 . S
C2468 C2469 1.391 . S
C2469 C2468 1.391 . S
C2469 C2470 1.392 . S
C2469 H2498 0.947 . S
C2470 C2469 1.392 . S
C2470 C2471 1.419 . S
C2470 H2499 0.948 . S
C2471 C2470 1.419 . S
C2471 C2472 1.391 . S
C2471 C2475 1.397 . S
C2472 C2467 1.391 . S
C2472 C2471 1.391 . S
C2472 C2473 1.399 . S
C2473 C2472 1.399 . S
C2473 C2474 1.396 . S
C2473 C2476 1.453 . S
C2473 C2477 1.684 . S
C2474 C2455 1.723 . S
C2474 C2473 1.396 . S
C2474 C2475 1.394 . S
C2475 C2471 1.397 . S
C2475 C2474 1.394 . S
C2475 C2485 1.723 . S
C2476 C2473 1.453 . S
C2476 H2500 0.982 . S
C2476 H2501 0.979 . S
C2476 H2502 0.977 . S
C2477 C2473 1.684 . S
C2477 H2503 0.979 . S
C2477 H2504 0.980 . S
C2477 H2505 0.983 . S
C2478 H2454 0.948 . S
C2478 C2479 1.391 . S
C2478 C2483 1.391 . S
C2479 C2478 1.391 . S
C2479 C2480 1.391 . S
C2480 H2457 0.947 . S
C2480 C2479 1.391 . S
C2480 C2481 1.392 . S
C2481 H2458 0.948 . S
C2481 C2480 1.392 . S
C2481 C2482 1.419 . S
C2482 C2481 1.419 . S
C2482 C2483 1.391 . S
C2482 C2486 1.397 . S
C2483 C2478 1.391 . S
C2483 C2482 1.391 . S
C2483 C2484 1.399 . S
C2484 C2483 1.399 . S
C2484 C2485 1.396 . S
C2484 C2487 1.453 . S
C2484 C2488 1.684 . S
C2485 C2475 1.723 . S
C2485 C2484 1.396 . S
C2485 C2486 1.394 . S
C2486 C2456 1.723 . S
C2486 C2482 1.397 . S
C2486 C2485 1.394 . S
C2487 H2459 0.982 . S
C2487 H2463 0.979 . S
C2487 H2464 0.977 . S
C2487 C2484 1.453 . S
C2488 H2460 0.979 . S
C2488 H2461 0.980 . S
C2488 H2462 0.983 . S
C2488 C2484 1.684 . S
H2489 C2507 0.948 . S
H2490 C2448 0.948 . S
H2491 C2466 0.979 . S
H2492 C2466 0.980 . S
H2493 C2466 0.983 . S
H2494 C2465 0.982 . S
H2495 C2465 0.979 . S
H2496 C2465 0.977 . S
H2497 C2467 0.948 . S
H2498 C2469 0.947 . S
H2499 C2470 0.948 . S
H2500 C2476 0.982 . S
H2501 C2476 0.979 . S
H2502 C2476 0.977 . S
H2503 C2477 0.979 . S
H2504 C2477 0.980 . S
H2505 C2477 0.983 . S
H2506 C2450 0.947 . S
C2507 C2450 1.392 . S
C2507 C2451 1.419 . S
C2507 H2489 0.948 . S
C2508 C2509 1.391 . S
C2508 C2512 1.391 . S
C2508 H2550 0.948 . S
C2509 C2508 1.391 . S
C2509 C2510 1.391 . S
C2510 C2509 1.391 . S
C2510 H2566 0.947 . S
C2510 C2567 1.392 . S
C2511 C2512 1.391 . S
C2511 C2515 1.397 . S
C2511 C2567 1.419 . S
C2512 C2508 1.391 . S
C2512 C2511 1.391 . S
C2512 C2513 1.399 . S
C2513 C2512 1.399 . S
C2513 C2516 1.396 . S
C2513 C2525 1.453 . S
C2513 C2526 1.684 . S
H2514 C2538 0.948 . S
C2515 C2511 1.397 . S
C2515 C2516 1.394 . S
C2515 C2534 1.723 . S
C2516 C2513 1.396 . S
C2516 C2515 1.394 . S
C2516 C2546 1.723 . S
H2517 C2540 0.947 . S
H2518 C2541 0.948 . S
H2519 C2547 0.982 . S
H2520 C2548 0.979 . S
H2521 C2548 0.980 . S
H2522 C2548 0.983 . S
H2523 C2547 0.979 . S
H2524 C2547 0.977 . S
C2525 C2513 1.453 . S
C2525 H2554 0.982 . S
C2525 H2555 0.979 . S
C2525 H2556 0.977 . S
C2526 C2513 1.684 . S
C2526 H2551 0.979 . S
C2526 H2552 0.980 . S
C2526 H2553 0.983 . S
C2527 C2528 1.391 . S
C2527 C2532 1.391 . S
C2527 H2557 0.948 . S
C2528 C2527 1.391 . S
C2528 C2529 1.391 . S
C2529 C2528 1.391 . S
C2529 C2530 1.392 . S
C2529 H2558 0.947 . S
C2530 C2529 1.392 . S
C2530 C2531 1.419 . S
C2530 H2559 0.948 . S
C2531 C2530 1.419 . S
C2531 C2532 1.391 . S
C2531 C2535 1.397 . S
C2532 C2527 1.391 . S
C2532 C2531 1.391 . S
C2532 C2533 1.399 . S
C2533 C2532 1.399 . S
C2533 C2534 1.396 . S
C2533 C2536 1.453 . S
C2533 C2537 1.684 . S
C2534 C2515 1.723 . S
C2534 C2533 1.396 . S
C2534 C2535 1.394 . S
C2535 C2531 1.397 . S
C2535 C2534 1.394 . S
C2535 C2545 1.723 . S
C2536 C2533 1.453 . S
C2536 H2560 0.982 . S
C2536 H2561 0.979 . S
C2536 H2562 0.977 . S
C2537 C2533 1.684 . S
C2537 H2563 0.979 . S
C2537 H2564 0.980 . S
C2537 H2565 0.983 . S
C2538 H2514 0.948 . S
C2538 C2539 1.391 . S
C2538 C2543 1.391 . S
C2539 C2538 1.391 . S
C2539 C2540 1.391 . S
C2540 H2517 0.947 . S
C2540 C2539 1.391 . S
C2540 C2541 1.392 . S
C2541 H2518 0.948 . S
C2541 C2540 1.392 . S
C2541 C2542 1.419 . S
C2542 C2541 1.419 . S
C2542 C2543 1.391 . S
C2542 C2546 1.397 . S
C2543 C2538 1.391 . S
C2543 C2542 1.391 . S
C2543 C2544 1.399 . S
C2544 C2543 1.399 . S
C2544 C2545 1.396 . S
C2544 C2547 1.453 . S
C2544 C2548 1.684 . S
C2545 C2535 1.723 . S
C2545 C2544 1.396 . S
C2545 C2546 1.394 . S
C2546 C2516 1.723 . S
C2546 C2542 1.397 . S
C2546 C2545 1.394 . S
C2547 H2519 0.982 . S
C2547 H2523 0.979 . S
C2547 H2524 0.977 . S
C2547 C2544 1.453 . S
C2548 H2520 0.979 . S
C2548 H2521 0.980 . S
C2548 H2522 0.983 . S
C2548 C2544 1.684 . S
H2549 C2567 0.948 . S
H2550 C2508 0.948 . S
H2551 C2526 0.979 . S
H2552 C2526 0.980 . S
H2553 C2526 0.983 . S
H2554 C2525 0.982 . S
H2555 C2525 0.979 . S
H2556 C2525 0.977 . S
H2557 C2527 0.948 . S
H2558 C2529 0.947 . S
H2559 C2530 0.948 . S
H2560 C2536 0.982 . S
H2561 C2536 0.979 . S
H2562 C2536 0.977 . S
H2563 C2537 0.979 . S
H2564 C2537 0.980 . S
H2565 C2537 0.983 . S
H2566 C2510 0.947 . S
C2567 C2510 1.392 . S
C2567 C2511 1.419 . S
C2567 H2549 0.948 . S
C2568 C2569 1.391 . S
C2568 C2572 1.391 . S
C2568 H2610 0.948 . S
C2569 C2568 1.391 . S
C2569 C2570 1.391 . S
C2570 C2569 1.391 . S
C2570 H2626 0.947 . S
C2570 C2627 1.392 . S
C2571 C2572 1.391 . S
C2571 C2575 1.397 . S
C2571 C2627 1.419 . S
C2572 C2568 1.391 . S
C2572 C2571 1.391 . S
C2572 C2573 1.399 . S
C2573 C2572 1.399 . S
C2573 C2576 1.396 . S
C2573 C2585 1.453 . S
C2573 C2586 1.684 . S
H2574 C2598 0.948 . S
C2575 C2571 1.397 . S
C2575 C2576 1.394 . S
C2575 C2594 1.723 . S
C2576 C2573 1.396 . S
C2576 C2575 1.394 . S
C2576 C2606 1.723 . S
H2577 C2600 0.947 . S
H2578 C2601 0.948 . S
H2579 C2607 0.982 . S
H2580 C2608 0.979 . S
H2581 C2608 0.980 . S
H2582 C2608 0.983 . S
H2583 C2607 0.979 . S
H2584 C2607 0.977 . S
C2585 C2573 1.453 . S
C2585 H2614 0.982 . S
C2585 H2615 0.979 . S
C2585 H2616 0.977 . S
C2586 C2573 1.684 . S
C2586 H2611 0.979 . S
C2586 H2612 0.980 . S
C2586 H2613 0.983 . S
C2587 C2588 1.391 . S
C2587 C2592 1.391 . S
C2587 H2617 0.948 . S
C2588 C2587 1.391 . S
C2588 C2589 1.391 . S
C2589 C2588 1.391 . S
C2589 C2590 1.392 . S
C2589 H2618 0.947 . S
C2590 C2589 1.392 . S
C2590 C2591 1.419 . S
C2590 H2619 0.948 . S
C2591 C2590 1.419 . S
C2591 C2592 1.391 . S
C2591 C2595 1.397 . S
C2592 C2587 1.391 . S
C2592 C2591 1.391 . S
C2592 C2593 1.399 . S
C2593 C2592 1.399 . S
C2593 C2594 1.396 . S
C2593 C2596 1.453 . S
C2593 C2597 1.684 . S
C2594 C2575 1.723 . S
C2594 C2593 1.396 . S
C2594 C2595 1.394 . S
C2595 C2591 1.397 . S
C2595 C2594 1.394 . S
C2595 C2605 1.723 . S
C2596 C2593 1.453 . S
C2596 H2620 0.982 . S
C2596 H2621 0.979 . S
C2596 H2622 0.977 . S
C2597 C2593 1.684 . S
C2597 H2623 0.979 . S
C2597 H2624 0.980 . S
C2597 H2625 0.983 . S
C2598 H2574 0.948 . S
C2598 C2599 1.391 . S
C2598 C2603 1.391 . S
C2599 C2598 1.391 . S
C2599 C2600 1.391 . S
C2600 H2577 0.947 . S
C2600 C2599 1.391 . S
C2600 C2601 1.392 . S
C2601 H2578 0.948 . S
C2601 C2600 1.392 . S
C2601 C2602 1.419 . S
C2602 C2601 1.419 . S
C2602 C2603 1.391 . S
C2602 C2606 1.397 . S
C2603 C2598 1.391 . S
C2603 C2602 1.391 . S
C2603 C2604 1.399 . S
C2604 C2603 1.399 . S
C2604 C2605 1.396 . S
C2604 C2607 1.453 . S
C2604 C2608 1.684 . S
C2605 C2595 1.723 . S
C2605 C2604 1.396 . S
C2605 C2606 1.394 . S
C2606 C2576 1.723 . S
C2606 C2602 1.397 . S
C2606 C2605 1.394 . S
C2607 H2579 0.982 . S
C2607 H2583 0.979 . S
C2607 H2584 0.977 . S
C2607 C2604 1.453 . S
C2608 H2580 0.979 . S
C2608 H2581 0.980 . S
C2608 H2582 0.983 . S
C2608 C2604 1.684 . S
H2609 C2627 0.948 . S
H2610 C2568 0.948 . S
H2611 C2586 0.979 . S
H2612 C2586 0.980 . S
H2613 C2586 0.983 . S
H2614 C2585 0.982 . S
H2615 C2585 0.979 . S
H2616 C2585 0.977 . S
H2617 C2587 0.948 . S
H2618 C2589 0.947 . S
H2619 C2590 0.948 . S
H2620 C2596 0.982 . S
H2621 C2596 0.979 . S
H2622 C2596 0.977 . S
H2623 C2597 0.979 . S
H2624 C2597 0.980 . S
H2625 C2597 0.983 . S
H2626 C2570 0.947 . S
C2627 C2570 1.392 . S
C2627 C2571 1.419 . S
C2627 H2609 0.948 . S
C2628 C2629 1.391 . S
C2628 C2632 1.391 . S
C2628 H2670 0.948 . S
C2629 C2628 1.391 . S
C2629 C2630 1.391 . S
C2630 C2629 1.391 . S
C2630 H2686 0.947 . S
C2630 C2687 1.392 . S
C2631 C2632 1.391 . S
C2631 C2635 1.397 . S
C2631 C2687 1.419 . S
C2632 C2628 1.391 . S
C2632 C2631 1.391 . S
C2632 C2633 1.399 . S
C2633 C2632 1.399 . S
C2633 C2636 1.396 . S
C2633 C2645 1.453 . S
C2633 C2646 1.684 . S
H2634 C2658 0.948 . S
C2635 C2631 1.397 . S
C2635 C2636 1.394 . S
C2635 C2654 1.723 . S
C2636 C2633 1.396 . S
C2636 C2635 1.394 . S
C2636 C2666 1.723 . S
H2637 C2660 0.947 . S
H2638 C2661 0.948 . S
H2639 C2667 0.982 . S
H2640 C2668 0.979 . S
H2641 C2668 0.980 . S
H2642 C2668 0.983 . S
H2643 C2667 0.979 . S
H2644 C2667 0.977 . S
C2645 C2633 1.453 . S
C2645 H2674 0.982 . S
C2645 H2675 0.979 . S
C2645 H2676 0.977 . S
C2646 C2633 1.684 . S
C2646 H2671 0.979 . S
C2646 H2672 0.980 . S
C2646 H2673 0.983 . S
C2647 C2648 1.391 . S
C2647 C2652 1.391 . S
C2647 H2677 0.948 . S
C2648 C2647 1.391 . S
C2648 C2649 1.391 . S
C2649 C2648 1.391 . S
C2649 C2650 1.392 . S
C2649 H2678 0.947 . S
C2650 C2649 1.392 . S
C2650 C2651 1.419 . S
C2650 H2679 0.948 . S
C2651 C2650 1.419 . S
C2651 C2652 1.391 . S
C2651 C2655 1.397 . S
C2652 C2647 1.391 . S
C2652 C2651 1.391 . S
C2652 C2653 1.399 . S
C2653 C2652 1.399 . S
C2653 C2654 1.396 . S
C2653 C2656 1.453 . S
C2653 C2657 1.684 . S
C2654 C2635 1.723 . S
C2654 C2653 1.396 . S
C2654 C2655 1.394 . S
C2655 C2651 1.397 . S
C2655 C2654 1.394 . S
C2655 C2665 1.723 . S
C2656 C2653 1.453 . S
C2656 H2680 0.982 . S
C2656 H2681 0.979 . S
C2656 H2682 0.977 . S
C2657 C2653 1.684 . S
C2657 H2683 0.979 . S
C2657 H2684 0.980 . S
C2657 H2685 0.983 . S
C2658 H2634 0.948 . S
C2658 C2659 1.391 . S
C2658 C2663 1.391 . S
C2659 C2658 1.391 . S
C2659 C2660 1.391 . S
C2660 H2637 0.947 . S
C2660 C2659 1.391 . S
C2660 C2661 1.392 . S
C2661 H2638 0.948 . S
C2661 C2660 1.392 . S
C2661 C2662 1.419 . S
C2662 C2661 1.419 . S
C2662 C2663 1.391 . S
C2662 C2666 1.397 . S
C2663 C2658 1.391 . S
C2663 C2662 1.391 . S
C2663 C2664 1.399 . S
C2664 C2663 1.399 . S
C2664 C2665 1.396 . S
C2664 C2667 1.453 . S
C2664 C2668 1.684 . S
C2665 C2655 1.723 . S
C2665 C2664 1.396 . S
C2665 C2666 1.394 . S
C2666 C2636 1.723 . S
C2666 C2662 1.397 . S
C2666 C2665 1.394 . S
C2667 H2639 0.982 . S
C2667 H2643 0.979 . S
C2667 H2644 0.977 . S
C2667 C2664 1.453 . S
C2668 H2640 0.979 . S
C2668 H2641 0.980 . S
C2668 H2642 0.983 . S
C2668 C2664 1.684 . S
H2669 C2687 0.948 . S
H2670 C2628 0.948 . S
H2671 C2646 0.979 . S
H2672 C2646 0.980 . S
H2673 C2646 0.983 . S
H2674 C2645 0.982 . S
H2675 C2645 0.979 . S
H2676 C2645 0.977 . S
H2677 C2647 0.948 . S
H2678 C2649 0.947 . S
H2679 C2650 0.948 . S
H2680 C2656 0.982 . S
H2681 C2656 0.979 . S
H2682 C2656 0.977 . S
H2683 C2657 0.979 . S
H2684 C2657 0.980 . S
H2685 C2657 0.983 . S
H2686 C2630 0.947 . S
C2687 C2630 1.392 . S
C2687 C2631 1.419 . S
C2687 H2669 0.948 . S
C2688 C2689 1.391 . S
C2688 C2692 1.391 . S
C2688 H2730 0.948 . S
C2689 C2688 1.391 . S
C2689 C2690 1.391 . S
C2690 C2689 1.391 . S
C2690 H2746 0.947 . S
C2690 C2747 1.392 . S
C2691 C2692 1.391 . S
C2691 C2695 1.397 . S
C2691 C2747 1.419 . S
C2692 C2688 1.391 . S
C2692 C2691 1.391 . S
C2692 C2693 1.399 . S
C2693 C2692 1.399 . S
C2693 C2696 1.396 . S
C2693 C2705 1.453 . S
C2693 C2706 1.684 . S
H2694 C2718 0.948 . S
C2695 C2691 1.397 . S
C2695 C2696 1.394 . S
C2695 C2714 1.723 . S
C2696 C2693 1.396 . S
C2696 C2695 1.394 . S
C2696 C2726 1.723 . S
H2697 C2720 0.947 . S
H2698 C2721 0.948 . S
H2699 C2727 0.982 . S
H2700 C2728 0.979 . S
H2701 C2728 0.980 . S
H2702 C2728 0.983 . S
H2703 C2727 0.979 . S
H2704 C2727 0.977 . S
C2705 C2693 1.453 . S
C2705 H2734 0.982 . S
C2705 H2735 0.979 . S
C2705 H2736 0.977 . S
C2706 C2693 1.684 . S
C2706 H2731 0.979 . S
C2706 H2732 0.980 . S
C2706 H2733 0.983 . S
C2707 C2708 1.391 . S
C2707 C2712 1.391 . S
C2707 H2737 0.948 . S
C2708 C2707 1.391 . S
C2708 C2709 1.391 . S
C2709 C2708 1.391 . S
C2709 C2710 1.392 . S
C2709 H2738 0.947 . S
C2710 C2709 1.392 . S
C2710 C2711 1.419 . S
C2710 H2739 0.948 . S
C2711 C2710 1.419 . S
C2711 C2712 1.391 . S
C2711 C2715 1.397 . S
C2712 C2707 1.391 . S
C2712 C2711 1.391 . S
C2712 C2713 1.399 . S
C2713 C2712 1.399 . S
C2713 C2714 1.396 . S
C2713 C2716 1.453 . S
C2713 C2717 1.684 . S
C2714 C2695 1.723 . S
C2714 C2713 1.396 . S
C2714 C2715 1.394 . S
C2715 C2711 1.397 . S
C2715 C2714 1.394 . S
C2715 C2725 1.723 . S
C2716 C2713 1.453 . S
C2716 H2740 0.982 . S
C2716 H2741 0.979 . S
C2716 H2742 0.977 . S
C2717 C2713 1.684 . S
C2717 H2743 0.979 . S
C2717 H2744 0.980 . S
C2717 H2745 0.983 . S
C2718 H2694 0.948 . S
C2718 C2719 1.391 . S
C2718 C2723 1.391 . S
C2719 C2718 1.391 . S
C2719 C2720 1.391 . S
C2720 H2697 0.947 . S
C2720 C2719 1.391 . S
C2720 C2721 1.392 . S
C2721 H2698 0.948 . S
C2721 C2720 1.392 . S
C2721 C2722 1.419 . S
C2722 C2721 1.419 . S
C2722 C2723 1.391 . S
C2722 C2726 1.397 . S
C2723 C2718 1.391 . S
C2723 C2722 1.391 . S
C2723 C2724 1.399 . S
C2724 C2723 1.399 . S
C2724 C2725 1.396 . S
C2724 C2727 1.453 . S
C2724 C2728 1.684 . S
C2725 C2715 1.723 . S
C2725 C2724 1.396 . S
C2725 C2726 1.394 . S
C2726 C2696 1.723 . S
C2726 C2722 1.397 . S
C2726 C2725 1.394 . S
C2727 H2699 0.982 . S
C2727 H2703 0.979 . S
C2727 H2704 0.977 . S
C2727 C2724 1.453 . S
C2728 H2700 0.979 . S
C2728 H2701 0.980 . S
C2728 H2702 0.983 . S
C2728 C2724 1.684 . S
H2729 C2747 0.948 . S
H2730 C2688 0.948 . S
H2731 C2706 0.979 . S
H2732 C2706 0.980 . S
H2733 C2706 0.983 . S
H2734 C2705 0.982 . S
H2735 C2705 0.979 . S
H2736 C2705 0.977 . S
H2737 C2707 0.948 . S
H2738 C2709 0.947 . S
H2739 C2710 0.948 . S
H2740 C2716 0.982 . S
H2741 C2716 0.979 . S
H2742 C2716 0.977 . S
H2743 C2717 0.979 . S
H2744 C2717 0.980 . S
H2745 C2717 0.983 . S
H2746 C2690 0.947 . S
C2747 C2690 1.392 . S
C2747 C2691 1.419 . S
C2747 H2729 0.948 . S
C2748 C2749 1.391 . S
C2748 C2752 1.391 . S
C2748 H2790 0.948 . S
C2749 C2748 1.391 . S
C2749 C2750 1.391 . S
C2750 C2749 1.391 . S
C2750 H2806 0.947 . S
C2750 C2807 1.392 . S
C2751 C2752 1.391 . S
C2751 C2755 1.397 . S
C2751 C2807 1.419 . S
C2752 C2748 1.391 . S
C2752 C2751 1.391 . S
C2752 C2753 1.399 . S
C2753 C2752 1.399 . S
C2753 C2756 1.396 . S
C2753 C2765 1.453 . S
C2753 C2766 1.684 . S
H2754 C2778 0.948 . S
C2755 C2751 1.397 . S
C2755 C2756 1.394 . S
C2755 C2774 1.723 . S
C2756 C2753 1.396 . S
C2756 C2755 1.394 . S
C2756 C2786 1.723 . S
H2757 C2780 0.947 . S
H2758 C2781 0.948 . S
H2759 C2787 0.982 . S
H2760 C2788 0.979 . S
H2761 C2788 0.980 . S
H2762 C2788 0.983 . S
H2763 C2787 0.979 . S
H2764 C2787 0.977 . S
C2765 C2753 1.453 . S
C2765 H2794 0.982 . S
C2765 H2795 0.979 . S
C2765 H2796 0.977 . S
C2766 C2753 1.684 . S
C2766 H2791 0.979 . S
C2766 H2792 0.980 . S
C2766 H2793 0.983 . S
C2767 C2768 1.391 . S
C2767 C2772 1.391 . S
C2767 H2797 0.948 . S
C2768 C2767 1.391 . S
C2768 C2769 1.391 . S
C2769 C2768 1.391 . S
C2769 C2770 1.392 . S
C2769 H2798 0.947 . S
C2770 C2769 1.392 . S
C2770 C2771 1.419 . S
C2770 H2799 0.948 . S
C2771 C2770 1.419 . S
C2771 C2772 1.391 . S
C2771 C2775 1.397 . S
C2772 C2767 1.391 . S
C2772 C2771 1.391 . S
C2772 C2773 1.399 . S
C2773 C2772 1.399 . S
C2773 C2774 1.396 . S
C2773 C2776 1.453 . S
C2773 C2777 1.684 . S
C2774 C2755 1.723 . S
C2774 C2773 1.396 . S
C2774 C2775 1.394 . S
C2775 C2771 1.397 . S
C2775 C2774 1.394 . S
C2775 C2785 1.723 . S
C2776 C2773 1.453 . S
C2776 H2800 0.982 . S
C2776 H2801 0.979 . S
C2776 H2802 0.977 . S
C2777 C2773 1.684 . S
C2777 H2803 0.979 . S
C2777 H2804 0.980 . S
C2777 H2805 0.983 . S
C2778 H2754 0.948 . S
C2778 C2779 1.391 . S
C2778 C2783 1.391 . S
C2779 C2778 1.391 . S
C2779 C2780 1.391 . S
C2780 H2757 0.947 . S
C2780 C2779 1.391 . S
C2780 C2781 1.392 . S
C2781 H2758 0.948 . S
C2781 C2780 1.392 . S
C2781 C2782 1.419 . S
C2782 C2781 1.419 . S
C2782 C2783 1.391 . S
C2782 C2786 1.397 . S
C2783 C2778 1.391 . S
C2783 C2782 1.391 . S
C2783 C2784 1.399 . S
C2784 C2783 1.399 . S
C2784 C2785 1.396 . S
C2784 C2787 1.453 . S
C2784 C2788 1.684 . S
C2785 C2775 1.723 . S
C2785 C2784 1.396 . S
C2785 C2786 1.394 . S
C2786 C2756 1.723 . S
C2786 C2782 1.397 . S
C2786 C2785 1.394 . S
C2787 H2759 0.982 . S
C2787 H2763 0.979 . S
C2787 H2764 0.977 . S
C2787 C2784 1.453 . S
C2788 H2760 0.979 . S
C2788 H2761 0.980 . S
C2788 H2762 0.983 . S
C2788 C2784 1.684 . S
H2789 C2807 0.948 . S
H2790 C2748 0.948 . S
H2791 C2766 0.979 . S
H2792 C2766 0.980 . S
H2793 C2766 0.983 . S
H2794 C2765 0.982 . S
H2795 C2765 0.979 . S
H2796 C2765 0.977 . S
H2797 C2767 0.948 . S
H2798 C2769 0.947 . S
H2799 C2770 0.948 . S
H2800 C2776 0.982 . S
H2801 C2776 0.979 . S
H2802 C2776 0.977 . S
H2803 C2777 0.979 . S
H2804 C2777 0.980 . S
H2805 C2777 0.983 . S
H2806 C2750 0.947 . S
C2807 C2750 1.392 . S
C2807 C2751 1.419 . S
C2807 H2789 0.948 . S
C2808 C2809 1.391 . S
C2808 C2812 1.391 . S
C2808 H2850 0.948 . S
C2809 C2808 1.391 . S
C2809 C2810 1.391 . S
C2810 C2809 1.391 . S
C2810 H2866 0.947 . S
C2810 C2867 1.392 . S
C2811 C2812 1.391 . S
C2811 C2815 1.397 . S
C2811 C2867 1.419 . S
C2812 C2808 1.391 . S
C2812 C2811 1.391 . S
C2812 C2813 1.399 . S
C2813 C2812 1.399 . S
C2813 C2816 1.396 . S
C2813 C2825 1.453 . S
C2813 C2826 1.684 . S
H2814 C2838 0.948 . S
C2815 C2811 1.397 . S
C2815 C2816 1.394 . S
C2815 C2834 1.723 . S
C2816 C2813 1.396 . S
C2816 C2815 1.394 . S
C2816 C2846 1.723 . S
H2817 C2840 0.947 . S
H2818 C2841 0.948 . S
H2819 C2847 0.982 . S
H2820 C2848 0.979 . S
H2821 C2848 0.980 . S
H2822 C2848 0.983 . S
H2823 C2847 0.979 . S
H2824 C2847 0.977 . S
C2825 C2813 1.453 . S
C2825 H2854 0.982 . S
C2825 H2855 0.979 . S
C2825 H2856 0.977 . S
C2826 C2813 1.684 . S
C2826 H2851 0.979 . S
C2826 H2852 0.980 . S
C2826 H2853 0.983 . S
C2827 C2828 1.391 . S
C2827 C2832 1.391 . S
C2827 H2857 0.948 . S
C2828 C2827 1.391 . S
C2828 C2829 1.391 . S
C2829 C2828 1.391 . S
C2829 C2830 1.392 . S
C2829 H2858 0.947 . S
C2830 C2829 1.392 . S
C2830 C2831 1.419 . S
C2830 H2859 0.948 . S
C2831 C2830 1.419 . S
C2831 C2832 1.391 . S
C2831 C2835 1.397 . S
C2832 C2827 1.391 . S
C2832 C2831 1.391 . S
C2832 C2833 1.399 . S
C2833 C2832 1.399 . S
C2833 C2834 1.396 . S
C2833 C2836 1.453 . S
C2833 C2837 1.684 . S
C2834 C2815 1.723 . S
C2834 C2833 1.396 . S
C2834 C2835 1.394 . S
C2835 C2831 1.397 . S
C2835 C2834 1.394 . S
C2835 C2845 1.723 . S
C2836 C2833 1.453 . S
C2836 H2860 0.982 . S
C2836 H2861 0.979 . S
C2836 H2862 0.977 . S
C2837 C2833 1.684 . S
C2837 H2863 0.979 . S
C2837 H2864 0.980 . S
C2837 H2865 0.983 . S
C2838 H2814 0.948 . S
C2838 C2839 1.391 . S
C2838 C2843 1.391 . S
C2839 C2838 1.391 . S
C2839 C2840 1.391 . S
C2840 H2817 0.947 . S
C2840 C2839 1.391 . S
C2840 C2841 1.392 . S
C2841 H2818 0.948 . S
C2841 C2840 1.392 . S
C2841 C2842 1.419 . S
C2842 C2841 1.419 . S
C2842 C2843 1.391 . S
C2842 C2846 1.397 . S
C2843 C2838 1.391 . S
C2843 C2842 1.391 . S
C2843 C2844 1.399 . S
C2844 C2843 1.399 . S
C2844 C2845 1.396 . S
C2844 C2847 1.453 . S
C2844 C2848 1.684 . S
C2845 C2835 1.723 . S
C2845 C2844 1.396 . S
C2845 C2846 1.394 . S
C2846 C2816 1.723 . S
C2846 C2842 1.397 . S
C2846 C2845 1.394 . S
C2847 H2819 0.982 . S
C2847 H2823 0.979 . S
C2847 H2824 0.977 . S
C2847 C2844 1.453 . S
C2848 H2820 0.979 . S
C2848 H2821 0.980 . S
C2848 H2822 0.983 . S
C2848 C2844 1.684 . S
H2849 C2867 0.948 . S
H2850 C2808 0.948 . S
H2851 C2826 0.979 . S
H2852 C2826 0.980 . S
H2853 C2826 0.983 . S
H2854 C2825 0.982 . S
H2855 C2825 0.979 . S
H2856 C2825 0.977 . S
H2857 C2827 0.948 . S
H2858 C2829 0.947 . S
H2859 C2830 0.948 . S
H2860 C2836 0.982 . S
H2861 C2836 0.979 . S
H2862 C2836 0.977 . S
H2863 C2837 0.979 . S
H2864 C2837 0.980 . S
H2865 C2837 0.983 . S
H2866 C2810 0.947 . S
C2867 C2810 1.392 . S
C2867 C2811 1.419 . S
C2867 H2849 0.948 . S
C2868 C2869 1.391 . S
C2868 C2872 1.391 . S
C2868 H2910 0.948 . S
C2869 C2868 1.391 . S
C2869 C2870 1.391 . S
C2870 C2869 1.391 . S
C2870 H2926 0.947 . S
C2870 C2927 1.392 . S
C2871 C2872 1.391 . S
C2871 C2875 1.397 . S
C2871 C2927 1.419 . S
C2872 C2868 1.391 . S
C2872 C2871 1.391 . S
C2872 C2873 1.399 . S
C2873 C2872 1.399 . S
C2873 C2876 1.396 . S
C2873 C2885 1.453 . S
C2873 C2886 1.684 . S
H2874 C2898 0.948 . S
C2875 C2871 1.397 . S
C2875 C2876 1.394 . S
C2875 C2894 1.723 . S
C2876 C2873 1.396 . S
C2876 C2875 1.394 . S
C2876 C2906 1.723 . S
H2877 C2900 0.947 . S
H2878 C2901 0.948 . S
H2879 C2907 0.982 . S
H2880 C2908 0.979 . S
H2881 C2908 0.980 . S
H2882 C2908 0.983 . S
H2883 C2907 0.979 . S
H2884 C2907 0.977 . S
C2885 C2873 1.453 . S
C2885 H2914 0.982 . S
C2885 H2915 0.979 . S
C2885 H2916 0.977 . S
C2886 C2873 1.684 . S
C2886 H2911 0.979 . S
C2886 H2912 0.980 . S
C2886 H2913 0.983 . S
C2887 C2888 1.391 . S
C2887 C2892 1.391 . S
C2887 H2917 0.948 . S
C2888 C2887 1.391 . S
C2888 C2889 1.391 . S
C2889 C2888 1.391 . S
C2889 C2890 1.392 . S
C2889 H2918 0.947 . S
C2890 C2889 1.392 . S
C2890 C2891 1.419 . S
C2890 H2919 0.948 . S
C2891 C2890 1.419 . S
C2891 C2892 1.391 . S
C2891 C2895 1.397 . S
C2892 C2887 1.391 . S
C2892 C2891 1.391 . S
C2892 C2893 1.399 . S
C2893 C2892 1.399 . S
C2893 C2894 1.396 . S
C2893 C2896 1.453 . S
C2893 C2897 1.684 . S
C2894 C2875 1.723 . S
C2894 C2893 1.396 . S
C2894 C2895 1.394 . S
C2895 C2891 1.397 . S
C2895 C2894 1.394 . S
C2895 C2905 1.723 . S
C2896 C2893 1.453 . S
C2896 H2920 0.982 . S
C2896 H2921 0.979 . S
C2896 H2922 0.977 . S
C2897 C2893 1.684 . S
C2897 H2923 0.979 . S
C2897 H2924 0.980 . S
C2897 H2925 0.983 . S
C2898 H2874 0.948 . S
C2898 C2899 1.391 . S
C2898 C2903 1.391 . S
C2899 C2898 1.391 . S
C2899 C2900 1.391 . S
C2900 H2877 0.947 . S
C2900 C2899 1.391 . S
C2900 C2901 1.392 . S
C2901 H2878 0.948 . S
C2901 C2900 1.392 . S
C2901 C2902 1.419 . S
C2902 C2901 1.419 . S
C2902 C2903 1.391 . S
C2902 C2906 1.397 . S
C2903 C2898 1.391 . S
C2903 C2902 1.391 . S
C2903 C2904 1.399 . S
C2904 C2903 1.399 . S
C2904 C2905 1.396 . S
C2904 C2907 1.453 . S
C2904 C2908 1.684 . S
C2905 C2895 1.723 . S
C2905 C2904 1.396 . S
C2905 C2906 1.394 . S
C2906 C2876 1.723 . S
C2906 C2902 1.397 . S
C2906 C2905 1.394 . S
C2907 H2879 0.982 . S
C2907 H2883 0.979 . S
C2907 H2884 0.977 . S
C2907 C2904 1.453 . S
C2908 H2880 0.979 . S
C2908 H2881 0.980 . S
C2908 H2882 0.983 . S
C2908 C2904 1.684 . S
H2909 C2927 0.948 . S
H2910 C2868 0.948 . S
H2911 C2886 0.979 . S
H2912 C2886 0.980 . S
H2913 C2886 0.983 . S
H2914 C2885 0.982 . S
H2915 C2885 0.979 . S
H2916 C2885 0.977 . S
H2917 C2887 0.948 . S
H2918 C2889 0.947 . S
H2919 C2890 0.948 . S
H2920 C2896 0.982 . S
H2921 C2896 0.979 . S
H2922 C2896 0.977 . S
H2923 C2897 0.979 . S
H2924 C2897 0.980 . S
H2925 C2897 0.983 . S
H2926 C2870 0.947 . S
C2927 C2870 1.392 . S
C2927 C2871 1.419 . S
C2927 H2909 0.948 . S
C2928 C2929 1.391 . S
C2928 C2932 1.391 . S
C2928 H2970 0.948 . S
C2929 C2928 1.391 . S
C2929 C2930 1.391 . S
C2930 C2929 1.391 . S
C2930 H2986 0.947 . S
C2930 C2987 1.392 . S
C2931 C2932 1.391 . S
C2931 C2935 1.397 . S
C2931 C2987 1.419 . S
C2932 C2928 1.391 . S
C2932 C2931 1.391 . S
C2932 C2933 1.399 . S
C2933 C2932 1.399 . S
C2933 C2936 1.396 . S
C2933 C2945 1.453 . S
C2933 C2946 1.684 . S
H2934 C2958 0.948 . S
C2935 C2931 1.397 . S
C2935 C2936 1.394 . S
C2935 C2954 1.723 . S
C2936 C2933 1.396 . S
C2936 C2935 1.394 . S
C2936 C2966 1.723 . S
H2937 C2960 0.947 . S
H2938 C2961 0.948 . S
H2939 C2967 0.982 . S
H2940 C2968 0.979 . S
H2941 C2968 0.980 . S
H2942 C2968 0.983 . S
H2943 C2967 0.979 . S
H2944 C2967 0.977 . S
C2945 C2933 1.453 . S
C2945 H2974 0.982 . S
C2945 H2975 0.979 . S
C2945 H2976 0.977 . S
C2946 C2933 1.684 . S
C2946 H2971 0.979 . S
C2946 H2972 0.980 . S
C2946 H2973 0.983 . S
C2947 C2948 1.391 . S
C2947 C2952 1.391 . S
C2947 H2977 0.948 . S
C2948 C2947 1.391 . S
C2948 C2949 1.391 . S
C2949 C2948 1.391 . S
C2949 C2950 1.392 . S
C2949 H2978 0.947 . S
C2950 C2949 1.392 . S
C2950 C2951 1.419 . S
C2950 H2979 0.948 . S
C2951 C2950 1.419 . S
C2951 C2952 1.391 . S
C2951 C2955 1.397 . S
C2952 C2947 1.391 . S
C2952 C2951 1.391 . S
C2952 C2953 1.399 . S
C2953 C2952 1.399 . S
C2953 C2954 1.396 . S
C2953 C2956 1.453 . S
C2953 C2957 1.684 . S
C2954 C2935 1.723 . S
C2954 C2953 1.396 . S
C2954 C2955 1.394 . S
C2955 C2951 1.397 . S
C2955 C2954 1.394 . S
C2955 C2965 1.723 . S
C2956 C2953 1.453 . S
C2956 H2980 0.982 . S
C2956 H2981 0.979 . S
C2956 H2982 0.977 . S
C2957 C2953 1.684 . S
C2957 H2983 0.979 . S
C2957 H2984 0.980 . S
C2957 H2985 0.983 . S
C2958 H2934 0.948 . S
C2958 C2959 1.391 . S
C2958 C2963 1.391 . S
C2959 C2958 1.391 . S
C2959 C2960 1.391 . S
C2960 H2937 0.947 . S
C2960 C2959 1.391 . S
C2960 C2961 1.392 . S
C2961 H2938 0.948 . S
C2961 C2960 1.392 . S
C2961 C2962 1.419 . S
C2962 C2961 1.419 . S
C2962 C2963 1.391 . S
C2962 C2966 1.397 . S
C2963 C2958 1.391 . S
C2963 C2962 1.391 . S
C2963 C2964 1.399 . S
C2964 C2963 1.399 . S
C2964 C2965 1.396 . S
C2964 C2967 1.453 . S
C2964 C2968 1.684 . S
C2965 C2955 1.723 . S
C2965 C2964 1.396 . S
C2965 C2966 1.394 . S
C2966 C2936 1.723 . S
C2966 C2962 1.397 . S
C2966 C2965 1.394 . S
C2967 H2939 0.982 . S
C2967 H2943 0.979 . S
C2967 H2944 0.977 . S
C2967 C2964 1.453 . S
C2968 H2940 0.979 . S
C2968 H2941 0.980 . S
C2968 H2942 0.983 . S
C2968 C2964 1.684 . S
H2969 C2987 0.948 . S
H2970 C2928 0.948 . S
H2971 C2946 0.979 . S
H2972 C2946 0.980 . S
H2973 C2946 0.983 . S
H2974 C2945 0.982 . S
H2975 C2945 0.979 . S
H2976 C2945 0.977 . S
H2977 C2947 0.948 . S
H2978 C2949 0.947 . S
H2979 C2950 0.948 . S
H2980 C2956 0.982 . S
H2981 C2956 0.979 . S
H2982 C2956 0.977 . S
H2983 C2957 0.979 . S
H2984 C2957 0.980 . S
H2985 C2957 0.983 . S
H2986 C2930 0.947 . S
C2987 C2930 1.392 . S
C2987 C2931 1.419 . S
C2987 H2969 0.948 . S
C2988 C2989 1.391 . S
C2988 C2992 1.391 . S
C2988 H3030 0.948 . S
C2989 C2988 1.391 . S
C2989 C2990 1.391 . S
C2990 C2989 1.391 . S
C2990 H3046 0.947 . S
C2990 C3047 1.392 . S
C2991 C2992 1.391 . S
C2991 C2995 1.397 . S
C2991 C3047 1.419 . S
C2992 C2988 1.391 . S
C2992 C2991 1.391 . S
C2992 C2993 1.399 . S
C2993 C2992 1.399 . S
C2993 C2996 1.396 . S
C2993 C3005 1.453 . S
C2993 C3006 1.684 . S
H2994 C3018 0.948 . S
C2995 C2991 1.397 . S
C2995 C2996 1.394 . S
C2995 C3014 1.723 . S
C2996 C2993 1.396 . S
C2996 C2995 1.394 . S
C2996 C3026 1.723 . S
H2997 C3020 0.947 . S
H2998 C3021 0.948 . S
H2999 C3027 0.982 . S
H3000 C3028 0.979 . S
H3001 C3028 0.980 . S
H3002 C3028 0.983 . S
H3003 C3027 0.979 . S
H3004 C3027 0.977 . S
C3005 C2993 1.453 . S
C3005 H3034 0.982 . S
C3005 H3035 0.979 . S
C3005 H3036 0.977 . S
C3006 C2993 1.684 . S
C3006 H3031 0.979 . S
C3006 H3032 0.980 . S
C3006 H3033 0.983 . S
C3007 C3008 1.391 . S
C3007 C3012 1.391 . S
C3007 H3037 0.948 . S
C3008 C3007 1.391 . S
C3008 C3009 1.391 . S
C3009 C3008 1.391 . S
C3009 C3010 1.392 . S
C3009 H3038 0.947 . S
C3010 C3009 1.392 . S
C3010 C3011 1.419 . S
C3010 H3039 0.948 . S
C3011 C3010 1.419 . S
C3011 C3012 1.391 . S
C3011 C3015 1.397 . S
C3012 C3007 1.391 . S
C3012 C3011 1.391 . S
C3012 C3013 1.399 . S
C3013 C3012 1.399 . S
C3013 C3014 1.396 . S
C3013 C3016 1.453 . S
C3013 C3017 1.684 . S
C3014 C2995 1.723 . S
C3014 C3013 1.396 . S
C3014 C3015 1.394 . S
C3015 C3011 1.397 . S
C3015 C3014 1.394 . S
C3015 C3025 1.723 . S
C3016 C3013 1.453 . S
C3016 H3040 0.982 . S
C3016 H3041 0.979 . S
C3016 H3042 0.977 . S
C3017 C3013 1.684 . S
C3017 H3043 0.979 . S
C3017 H3044 0.980 . S
C3017 H3045 0.983 . S
C3018 H2994 0.948 . S
C3018 C3019 1.391 . S
C3018 C3023 1.391 . S
C3019 C3018 1.391 . S
C3019 C3020 1.391 . S
C3020 H2997 0.947 . S
C3020 C3019 1.391 . S
C3020 C3021 1.392 . S
C3021 H2998 0.948 . S
C3021 C3020 1.392 . S
C3021 C3022 1.419 . S
C3022 C3021 1.419 . S
C3022 C3023 1.391 . S
C3022 C3026 1.397 . S
C3023 C3018 1.391 . S
C3023 C3022 1.391 . S
C3023 C3024 1.399 . S
C3024 C3023 1.399 . S
C3024 C3025 1.396 . S
C3024 C3027 1.453 . S
C3024 C3028 1.684 . S
C3025 C3015 1.723 . S
C3025 C3024 1.396 . S
C3025 C3026 1.394 . S
C3026 C2996 1.723 . S
C3026 C3022 1.397 . S
C3026 C3025 1.394 . S
C3027 H2999 0.982 . S
C3027 H3003 0.979 . S
C3027 H3004 0.977 . S
C3027 C3024 1.453 . S
C3028 H3000 0.979 . S
C3028 H3001 0.980 . S
C3028 H3002 0.983 . S
C3028 C3024 1.684 . S
H3029 C3047 0.948 . S
H3030 C2988 0.948 . S
H3031 C3006 0.979 . S
H3032 C3006 0.980 . S
H3033 C3006 0.983 . S
H3034 C3005 0.982 . S
H3035 C3005 0.979 . S
H3036 C3005 0.977 . S
H3037 C3007 0.948 . S
H3038 C3009 0.947 . S
H3039 C3010 0.948 . S
H3040 C3016 0.982 . S
H3041 C3016 0.979 . S
H3042 C3016 0.977 . S
H3043 C3017 0.979 . S
H3044 C3017 0.980 . S
H3045 C3017 0.983 . S
H3046 C2990 0.947 . S
C3047 C2990 1.392 . S
C3047 C2991 1.419 . S
C3047 H3029 0.948 . S
C3048 C3049 1.391 . S
C3048 C3052 1.391 . S
C3048 H3090 0.948 . S
C3049 C3048 1.391 . S
C3049 C3050 1.391 . S
C3050 C3049 1.391 . S
C3050 H3106 0.947 . S
C3050 C3107 1.392 . S
C3051 C3052 1.391 . S
C3051 C3055 1.397 . S
C3051 C3107 1.419 . S
C3052 C3048 1.391 . S
C3052 C3051 1.391 . S
C3052 C3053 1.399 . S
C3053 C3052 1.399 . S
C3053 C3056 1.396 . S
C3053 C3065 1.453 . S
C3053 C3066 1.684 . S
H3054 C3078 0.948 . S
C3055 C3051 1.397 . S
C3055 C3056 1.394 . S
C3055 C3074 1.723 . S
C3056 C3053 1.396 . S
C3056 C3055 1.394 . S
C3056 C3086 1.723 . S
H3057 C3080 0.947 . S
H3058 C3081 0.948 . S
H3059 C3087 0.982 . S
H3060 C3088 0.979 . S
H3061 C3088 0.980 . S
H3062 C3088 0.983 . S
H3063 C3087 0.979 . S
H3064 C3087 0.977 . S
C3065 C3053 1.453 . S
C3065 H3094 0.982 . S
C3065 H3095 0.979 . S
C3065 H3096 0.977 . S
C3066 C3053 1.684 . S
C3066 H3091 0.979 . S
C3066 H3092 0.980 . S
C3066 H3093 0.983 . S
C3067 C3068 1.391 . S
C3067 C3072 1.391 . S
C3067 H3097 0.948 . S
C3068 C3067 1.391 . S
C3068 C3069 1.391 . S
C3069 C3068 1.391 . S
C3069 C3070 1.392 . S
C3069 H3098 0.947 . S
C3070 C3069 1.392 . S
C3070 C3071 1.419 . S
C3070 H3099 0.948 . S
C3071 C3070 1.419 . S
C3071 C3072 1.391 . S
C3071 C3075 1.397 . S
C3072 C3067 1.391 . S
C3072 C3071 1.391 . S
C3072 C3073 1.399 . S
C3073 C3072 1.399 . S
C3073 C3074 1.396 . S
C3073 C3076 1.453 . S
C3073 C3077 1.684 . S
C3074 C3055 1.723 . S
C3074 C3073 1.396 . S
C3074 C3075 1.394 . S
C3075 C3071 1.397 . S
C3075 C3074 1.394 . S
C3075 C3085 1.723 . S
C3076 C3073 1.453 . S
C3076 H3100 0.982 . S
C3076 H3101 0.979 . S
C3076 H3102 0.977 . S
C3077 C3073 1.684 . S
C3077 H3103 0.979 . S
C3077 H3104 0.980 . S
C3077 H3105 0.983 . S
C3078 H3054 0.948 . S
C3078 C3079 1.391 . S
C3078 C3083 1.391 . S
C3079 C3078 1.391 . S
C3079 C3080 1.391 . S
C3080 H3057 0.947 . S
C3080 C3079 1.391 . S
C3080 C3081 1.392 . S
C3081 H3058 0.948 . S
C3081 C3080 1.392 . S
C3081 C3082 1.419 . S
C3082 C3081 1.419 . S
C3082 C3083 1.391 . S
C3082 C3086 1.397 . S
C3083 C3078 1.391 . S
C3083 C3082 1.391 . S
C3083 C3084 1.399 . S
C3084 C3083 1.399 . S
C3084 C3085 1.396 . S
C3084 C3087 1.453 . S
C3084 C3088 1.684 . S
C3085 C3075 1.723 . S
C3085 C3084 1.396 . S
C3085 C3086 1.394 . S
C3086 C3056 1.723 . S
C3086 C3082 1.397 . S
C3086 C3085 1.394 . S
C3087 H3059 0.982 . S
C3087 H3063 0.979 . S
C3087 H3064 0.977 . S
C3087 C3084 1.453 . S
C3088 H3060 0.979 . S
C3088 H3061 0.980 . S
C3088 H3062 0.983 . S
C3088 C3084 1.684 . S
H3089 C3107 0.948 . S
H3090 C3048 0.948 . S
H3091 C3066 0.979 . S
H3092 C3066 0.980 . S
H3093 C3066 0.983 . S
H3094 C3065 0.982 . S
H3095 C3065 0.979 . S
H3096 C3065 0.977 . S
H3097 C3067 0.948 . S
H3098 C3069 0.947 . S
H3099 C3070 0.948 . S
H3100 C3076 0.982 . S
H3101 C3076 0.979 . S
H3102 C3076 0.977 . S
H3103 C3077 0.979 . S
H3104 C3077 0.980 . S
H3105 C3077 0.983 . S
H3106 C3050 0.947 . S
C3107 C3050 1.392 . S
C3107 C3051 1.419 . S
C3107 H3089 0.948 . S
C3108 C3109 1.391 . S
C3108 C3112 1.391 . S
C3108 H3150 0.948 . S
C3109 C3108 1.391 . S
C3109 C3110 1.391 . S
C3110 C3109 1.391 . S
C3110 H3166 0.947 . S
C3110 C3167 1.392 . S
C3111 C3112 1.391 . S
C3111 C3115 1.397 . S
C3111 C3167 1.419 . S
C3112 C3108 1.391 . S
C3112 C3111 1.391 . S
C3112 C3113 1.399 . S
C3113 C3112 1.399 . S
C3113 C3116 1.396 . S
C3113 C3125 1.453 . S
C3113 C3126 1.684 . S
H3114 C3138 0.948 . S
C3115 C3111 1.397 . S
C3115 C3116 1.394 . S
C3115 C3134 1.723 . S
C3116 C3113 1.396 . S
C3116 C3115 1.394 . S
C3116 C3146 1.723 . S
H3117 C3140 0.947 . S
H3118 C3141 0.948 . S
H3119 C3147 0.982 . S
H3120 C3148 0.979 . S
H3121 C3148 0.980 . S
H3122 C3148 0.983 . S
H3123 C3147 0.979 . S
H3124 C3147 0.977 . S
C3125 C3113 1.453 . S
C3125 H3154 0.982 . S
C3125 H3155 0.979 . S
C3125 H3156 0.977 . S
C3126 C3113 1.684 . S
C3126 H3151 0.979 . S
C3126 H3152 0.980 . S
C3126 H3153 0.983 . S
C3127 C3128 1.391 . S
C3127 C3132 1.391 . S
C3127 H3157 0.948 . S
C3128 C3127 1.391 . S
C3128 C3129 1.391 . S
C3129 C3128 1.391 . S
C3129 C3130 1.392 . S
C3129 H3158 0.947 . S
C3130 C3129 1.392 . S
C3130 C3131 1.419 . S
C3130 H3159 0.948 . S
C3131 C3130 1.419 . S
C3131 C3132 1.391 . S
C3131 C3135 1.397 . S
C3132 C3127 1.391 . S
C3132 C3131 1.391 . S
C3132 C3133 1.399 . S
C3133 C3132 1.399 . S
C3133 C3134 1.396 . S
C3133 C3136 1.453 . S
C3133 C3137 1.684 . S
C3134 C3115 1.723 . S
C3134 C3133 1.396 . S
C3134 C3135 1.394 . S
C3135 C3131 1.397 . S
C3135 C3134 1.394 . S
C3135 C3145 1.723 . S
C3136 C3133 1.453 . S
C3136 H3160 0.982 . S
C3136 H3161 0.979 . S
C3136 H3162 0.977 . S
C3137 C3133 1.684 . S
C3137 H3163 0.979 . S
C3137 H3164 0.980 . S
C3137 H3165 0.983 . S
C3138 H3114 0.948 . S
C3138 C3139 1.391 . S
C3138 C3143 1.391 . S
C3139 C3138 1.391 . S
C3139 C3140 1.391 . S
C3140 H3117 0.947 . S
C3140 C3139 1.391 . S
C3140 C3141 1.392 . S
C3141 H3118 0.948 . S
C3141 C3140 1.392 . S
C3141 C3142 1.419 . S
C3142 C3141 1.419 . S
C3142 C3143 1.391 . S
C3142 C3146 1.397 . S
C3143 C3138 1.391 . S
C3143 C3142 1.391 . S
C3143 C3144 1.399 . S
C3144 C3143 1.399 . S
C3144 C3145 1.396 . S
C3144 C3147 1.453 . S
C3144 C3148 1.684 . S
C3145 C3135 1.723 . S
C3145 C3144 1.396 . S
C3145 C3146 1.394 . S
C3146 C3116 1.723 . S
C3146 C3142 1.397 . S
C3146 C3145 1.394 . S
C3147 H3119 0.982 . S
C3147 H3123 0.979 . S
C3147 H3124 0.977 . S
C3147 C3144 1.453 . S
C3148 H3120 0.979 . S
C3148 H3121 0.980 . S
C3148 H3122 0.983 . S
C3148 C3144 1.684 . S
H3149 C3167 0.948 . S
H3150 C3108 0.948 . S
H3151 C3126 0.979 . S
H3152 C3126 0.980 . S
H3153 C3126 0.983 . S
H3154 C3125 0.982 . S
H3155 C3125 0.979 . S
H3156 C3125 0.977 . S
H3157 C3127 0.948 . S
H3158 C3129 0.947 . S
H3159 C3130 0.948 . S
H3160 C3136 0.982 . S
H3161 C3136 0.979 . S
H3162 C3136 0.977 . S
H3163 C3137 0.979 . S
H3164 C3137 0.980 . S
H3165 C3137 0.983 . S
H3166 C3110 0.947 . S
C3167 C3110 1.392 . S
C3167 C3111 1.419 . S
C3167 H3149 0.948 . S
C3168 C3169 1.391 . S
C3168 C3172 1.391 . S
C3168 H3210 0.948 . S
C3169 C3168 1.391 . S
C3169 C3170 1.391 . S
C3170 C3169 1.391 . S
C3170 H3226 0.947 . S
C3170 C3227 1.392 . S
C3171 C3172 1.391 . S
C3171 C3175 1.397 . S
C3171 C3227 1.419 . S
C3172 C3168 1.391 . S
C3172 C3171 1.391 . S
C3172 C3173 1.399 . S
C3173 C3172 1.399 . S
C3173 C3176 1.396 . S
C3173 C3185 1.453 . S
C3173 C3186 1.684 . S
H3174 C3198 0.948 . S
C3175 C3171 1.397 . S
C3175 C3176 1.394 . S
C3175 C3194 1.723 . S
C3176 C3173 1.396 . S
C3176 C3175 1.394 . S
C3176 C3206 1.723 . S
H3177 C3200 0.947 . S
H3178 C3201 0.948 . S
H3179 C3207 0.982 . S
H3180 C3208 0.979 . S
H3181 C3208 0.980 . S
H3182 C3208 0.983 . S
H3183 C3207 0.979 . S
H3184 C3207 0.977 . S
C3185 C3173 1.453 . S
C3185 H3214 0.982 . S
C3185 H3215 0.979 . S
C3185 H3216 0.977 . S
C3186 C3173 1.684 . S
C3186 H3211 0.979 . S
C3186 H3212 0.980 . S
C3186 H3213 0.983 . S
C3187 C3188 1.391 . S
C3187 C3192 1.391 . S
C3187 H3217 0.948 . S
C3188 C3187 1.391 . S
C3188 C3189 1.391 . S
C3189 C3188 1.391 . S
C3189 C3190 1.392 . S
C3189 H3218 0.947 . S
C3190 C3189 1.392 . S
C3190 C3191 1.419 . S
C3190 H3219 0.948 . S
C3191 C3190 1.419 . S
C3191 C3192 1.391 . S
C3191 C3195 1.397 . S
C3192 C3187 1.391 . S
C3192 C3191 1.391 . S
C3192 C3193 1.399 . S
C3193 C3192 1.399 . S
C3193 C3194 1.396 . S
C3193 C3196 1.453 . S
C3193 C3197 1.684 . S
C3194 C3175 1.723 . S
C3194 C3193 1.396 . S
C3194 C3195 1.394 . S
C3195 C3191 1.397 . S
C3195 C3194 1.394 . S
C3195 C3205 1.723 . S
C3196 C3193 1.453 . S
C3196 H3220 0.982 . S
C3196 H3221 0.979 . S
C3196 H3222 0.977 . S
C3197 C3193 1.684 . S
C3197 H3223 0.979 . S
C3197 H3224 0.980 . S
C3197 H3225 0.983 . S
C3198 H3174 0.948 . S
C3198 C3199 1.391 . S
C3198 C3203 1.391 . S
C3199 C3198 1.391 . S
C3199 C3200 1.391 . S
C3200 H3177 0.947 . S
C3200 C3199 1.391 . S
C3200 C3201 1.392 . S
C3201 H3178 0.948 . S
C3201 C3200 1.392 . S
C3201 C3202 1.419 . S
C3202 C3201 1.419 . S
C3202 C3203 1.391 . S
C3202 C3206 1.397 . S
C3203 C3198 1.391 . S
C3203 C3202 1.391 . S
C3203 C3204 1.399 . S
C3204 C3203 1.399 . S
C3204 C3205 1.396 . S
C3204 C3207 1.453 . S
C3204 C3208 1.684 . S
C3205 C3195 1.723 . S
C3205 C3204 1.396 . S
C3205 C3206 1.394 . S
C3206 C3176 1.723 . S
C3206 C3202 1.397 . S
C3206 C3205 1.394 . S
C3207 H3179 0.982 . S
C3207 H3183 0.979 . S
C3207 H3184 0.977 . S
C3207 C3204 1.453 . S
C3208 H3180 0.979 . S
C3208 H3181 0.980 . S
C3208 H3182 0.983 . S
C3208 C3204 1.684 . S
H3209 C3227 0.948 . S
H3210 C3168 0.948 . S
H3211 C3186 0.979 . S
H3212 C3186 0.980 . S
H3213 C3186 0.983 . S
H3214 C3185 0.982 . S
H3215 C3185 0.979 . S
H3216 C3185 0.977 . S
H3217 C3187 0.948 . S
H3218 C3189 0.947 . S
H3219 C3190 0.948 . S
H3220 C3196 0.982 . S
H3221 C3196 0.979 . S
H3222 C3196 0.977 . S
H3223 C3197 0.979 . S
H3224 C3197 0.980 . S
H3225 C3197 0.983 . S
H3226 C3170 0.947 . S
C3227 C3170 1.392 . S
C3227 C3171 1.419 . S
C3227 H3209 0.948 . S
C3228 C3229 1.391 . S
C3228 C3232 1.391 . S
C3228 H3270 0.948 . S
C3229 C3228 1.391 . S
C3229 C3230 1.391 . S
C3230 C3229 1.391 . S
C3230 H3286 0.947 . S
C3230 C3287 1.392 . S
C3231 C3232 1.391 . S
C3231 C3235 1.397 . S
C3231 C3287 1.419 . S
C3232 C3228 1.391 . S
C3232 C3231 1.391 . S
C3232 C3233 1.399 . S
C3233 C3232 1.399 . S
C3233 C3236 1.396 . S
C3233 C3245 1.453 . S
C3233 C3246 1.684 . S
H3234 C3258 0.948 . S
C3235 C3231 1.397 . S
C3235 C3236 1.394 . S
C3235 C3254 1.723 . S
C3236 C3233 1.396 . S
C3236 C3235 1.394 . S
C3236 C3266 1.723 . S
H3237 C3260 0.947 . S
H3238 C3261 0.948 . S
H3239 C3267 0.982 . S
H3240 C3268 0.979 . S
H3241 C3268 0.980 . S
H3242 C3268 0.983 . S
H3243 C3267 0.979 . S
H3244 C3267 0.977 . S
C3245 C3233 1.453 . S
C3245 H3274 0.982 . S
C3245 H3275 0.979 . S
C3245 H3276 0.977 . S
C3246 C3233 1.684 . S
C3246 H3271 0.979 . S
C3246 H3272 0.980 . S
C3246 H3273 0.983 . S
C3247 C3248 1.391 . S
C3247 C3252 1.391 . S
C3247 H3277 0.948 . S
C3248 C3247 1.391 . S
C3248 C3249 1.391 . S
C3249 C3248 1.391 . S
C3249 C3250 1.392 . S
C3249 H3278 0.947 . S
C3250 C3249 1.392 . S
C3250 C3251 1.419 . S
C3250 H3279 0.948 . S
C3251 C3250 1.419 . S
C3251 C3252 1.391 . S
C3251 C3255 1.397 . S
C3252 C3247 1.391 . S
C3252 C3251 1.391 . S
C3252 C3253 1.399 . S
C3253 C3252 1.399 . S
C3253 C3254 1.396 . S
C3253 C3256 1.453 . S
C3253 C3257 1.684 . S
C3254 C3235 1.723 . S
C3254 C3253 1.396 . S
C3254 C3255 1.394 . S
C3255 C3251 1.397 . S
C3255 C3254 1.394 . S
C3255 C3265 1.723 . S
C3256 C3253 1.453 . S
C3256 H3280 0.982 . S
C3256 H3281 0.979 . S
C3256 H3282 0.977 . S
C3257 C3253 1.684 . S
C3257 H3283 0.979 . S
C3257 H3284 0.980 . S
C3257 H3285 0.983 . S
C3258 H3234 0.948 . S
C3258 C3259 1.391 . S
C3258 C3263 1.391 . S
C3259 C3258 1.391 . S
C3259 C3260 1.391 . S
C3260 H3237 0.947 . S
C3260 C3259 1.391 . S
C3260 C3261 1.392 . S
C3261 H3238 0.948 . S
C3261 C3260 1.392 . S
C3261 C3262 1.419 . S
C3262 C3261 1.419 . S
C3262 C3263 1.391 . S
C3262 C3266 1.397 . S
C3263 C3258 1.391 . S
C3263 C3262 1.391 . S
C3263 C3264 1.399 . S
C3264 C3263 1.399 . S
C3264 C3265 1.396 . S
C3264 C3267 1.453 . S
C3264 C3268 1.684 . S
C3265 C3255 1.723 . S
C3265 C3264 1.396 . S
C3265 C3266 1.394 . S
C3266 C3236 1.723 . S
C3266 C3262 1.397 . S
C3266 C3265 1.394 . S
C3267 H3239 0.982 . S
C3267 H3243 0.979 . S
C3267 H3244 0.977 . S
C3267 C3264 1.453 . S
C3268 H3240 0.979 . S
C3268 H3241 0.980 . S
C3268 H3242 0.983 . S
C3268 C3264 1.684 . S
H3269 C3287 0.948 . S
H3270 C3228 0.948 . S
H3271 C3246 0.979 . S
H3272 C3246 0.980 . S
H3273 C3246 0.983 . S
H3274 C3245 0.982 . S
H3275 C3245 0.979 . S
H3276 C3245 0.977 . S
H3277 C3247 0.948 . S
H3278 C3249 0.947 . S
H3279 C3250 0.948 . S
H3280 C3256 0.982 . S
H3281 C3256 0.979 . S
H3282 C3256 0.977 . S
H3283 C3257 0.979 . S
H3284 C3257 0.980 . S
H3285 C3257 0.983 . S
H3286 C3230 0.947 . S
C3287 C3230 1.392 . S
C3287 C3231 1.419 . S
C3287 H3269 0.948 . S
C3288 C3289 1.391 . S
C3288 C3292 1.391 . S
C3288 H3330 0.948 . S
C3289 C3288 1.391 . S
C3289 C3290 1.391 . S
C3290 C3289 1.391 . S
C3290 H3346 0.947 . S
C3290 C3347 1.392 . S
C3291 C3292 1.391 . S
C3291 C3295 1.397 . S
C3291 C3347 1.419 . S
C3292 C3288 1.391 . S
C3292 C3291 1.391 . S
C3292 C3293 1.399 . S
C3293 C3292 1.399 . S
C3293 C3296 1.396 . S
C3293 C3305 1.453 . S
C3293 C3306 1.684 . S
H3294 C3318 0.948 . S
C3295 C3291 1.397 . S
C3295 C3296 1.394 . S
C3295 C3314 1.723 . S
C3296 C3293 1.396 . S
C3296 C3295 1.394 . S
C3296 C3326 1.723 . S
H3297 C3320 0.947 . S
H3298 C3321 0.948 . S
H3299 C3327 0.982 . S
H3300 C3328 0.979 . S
H3301 C3328 0.980 . S
H3302 C3328 0.983 . S
H3303 C3327 0.979 . S
H3304 C3327 0.977 . S
C3305 C3293 1.453 . S
C3305 H3334 0.982 . S
C3305 H3335 0.979 . S
C3305 H3336 0.977 . S
C3306 C3293 1.684 . S
C3306 H3331 0.979 . S
C3306 H3332 0.980 . S
C3306 H3333 0.983 . S
C3307 C3308 1.391 . S
C3307 C3312 1.391 . S
C3307 H3337 0.948 . S
C3308 C3307 1.391 . S
C3308 C3309 1.391 . S
C3309 C3308 1.391 . S
C3309 C3310 1.392 . S
C3309 H3338 0.947 . S
C3310 C3309 1.392 . S
C3310 C3311 1.419 . S
C3310 H3339 0.948 . S
C3311 C3310 1.419 . S
C3311 C3312 1.391 . S
C3311 C3315 1.397 . S
C3312 C3307 1.391 . S
C3312 C3311 1.391 . S
C3312 C3313 1.399 . S
C3313 C3312 1.399 . S
C3313 C3314 1.396 . S
C3313 C3316 1.453 . S
C3313 C3317 1.684 . S
C3314 C3295 1.723 . S
C3314 C3313 1.396 . S
C3314 C3315 1.394 . S
C3315 C3311 1.397 . S
C3315 C3314 1.394 . S
C3315 C3325 1.723 . S
C3316 C3313 1.453 . S
C3316 H3340 0.982 . S
C3316 H3341 0.979 . S
C3316 H3342 0.977 . S
C3317 C3313 1.684 . S
C3317 H3343 0.979 . S
C3317 H3344 0.980 . S
C3317 H3345 0.983 . S
C3318 H3294 0.948 . S
C3318 C3319 1.391 . S
C3318 C3323 1.391 . S
C3319 C3318 1.391 . S
C3319 C3320 1.391 . S
C3320 H3297 0.947 . S
C3320 C3319 1.391 . S
C3320 C3321 1.392 . S
C3321 H3298 0.948 . S
C3321 C3320 1.392 . S
C3321 C3322 1.419 . S
C3322 C3321 1.419 . S
C3322 C3323 1.391 . S
C3322 C3326 1.397 . S
C3323 C3318 1.391 . S
C3323 C3322 1.391 . S
C3323 C3324 1.399 . S
C3324 C3323 1.399 . S
C3324 C3325 1.396 . S
C3324 C3327 1.453 . S
C3324 C3328 1.684 . S
C3325 C3315 1.723 . S
C3325 C3324 1.396 . S
C3325 C3326 1.394 . S
C3326 C3296 1.723 . S
C3326 C3322 1.397 . S
C3326 C3325 1.394 . S
C3327 H3299 0.982 . S
C3327 H3303 0.979 . S
C3327 H3304 0.977 . S
C3327 C3324 1.453 . S
C3328 H3300 0.979 . S
C3328 H3301 0.980 . S
C3328 H3302 0.983 . S
C3328 C3324 1.684 . S
H3329 C3347 0.948 . S
H3330 C3288 0.948 . S
H3331 C3306 0.979 . S
H3332 C3306 0.980 . S
H3333 C3306 0.983 . S
H3334 C3305 0.982 . S
H3335 C3305 0.979 . S
H3336 C3305 0.977 . S
H3337 C3307 0.948 . S
H3338 C3309 0.947 . S
H3339 C3310 0.948 . S
H3340 C3316 0.982 . S
H3341 C3316 0.979 . S
H3342 C3316 0.977 . S
H3343 C3317 0.979 . S
H3344 C3317 0.980 . S
H3345 C3317 0.983 . S
H3346 C3290 0.947 . S
C3347 C3290 1.392 . S
C3347 C3291 1.419 . S
C3347 H3329 0.948 . S
C3348 C3349 1.391 . S
C3348 C3352 1.391 . S
C3348 H3390 0.948 . S
C3349 C3348 1.391 . S
C3349 C3350 1.391 . S
C3350 C3349 1.391 . S
C3350 H3406 0.947 . S
C3350 C3407 1.392 . S
C3351 C3352 1.391 . S
C3351 C3355 1.397 . S
C3351 C3407 1.419 . S
C3352 C3348 1.391 . S
C3352 C3351 1.391 . S
C3352 C3353 1.399 . S
C3353 C3352 1.399 . S
C3353 C3356 1.396 . S
C3353 C3365 1.453 . S
C3353 C3366 1.684 . S
H3354 C3378 0.948 . S
C3355 C3351 1.397 . S
C3355 C3356 1.394 . S
C3355 C3374 1.723 . S
C3356 C3353 1.396 . S
C3356 C3355 1.394 . S
C3356 C3386 1.723 . S
H3357 C3380 0.947 . S
H3358 C3381 0.948 . S
H3359 C3387 0.982 . S
H3360 C3388 0.979 . S
H3361 C3388 0.980 . S
H3362 C3388 0.983 . S
H3363 C3387 0.979 . S
H3364 C3387 0.977 . S
C3365 C3353 1.453 . S
C3365 H3394 0.982 . S
C3365 H3395 0.979 . S
C3365 H3396 0.977 . S
C3366 C3353 1.684 . S
C3366 H3391 0.979 . S
C3366 H3392 0.980 . S
C3366 H3393 0.983 . S
C3367 C3368 1.391 . S
C3367 C3372 1.391 . S
C3367 H3397 0.948 . S
C3368 C3367 1.391 . S
C3368 C3369 1.391 . S
C3369 C3368 1.391 . S
C3369 C3370 1.392 . S
C3369 H3398 0.947 . S
C3370 C3369 1.392 . S
C3370 C3371 1.419 . S
C3370 H3399 0.948 . S
C3371 C3370 1.419 . S
C3371 C3372 1.391 . S
C3371 C3375 1.397 . S
C3372 C3367 1.391 . S
C3372 C3371 1.391 . S
C3372 C3373 1.399 . S
C3373 C3372 1.399 . S
C3373 C3374 1.396 . S
C3373 C3376 1.453 . S
C3373 C3377 1.684 . S
C3374 C3355 1.723 . S
C3374 C3373 1.396 . S
C3374 C3375 1.394 . S
C3375 C3371 1.397 . S
C3375 C3374 1.394 . S
C3375 C3385 1.723 . S
C3376 C3373 1.453 . S
C3376 H3400 0.982 . S
C3376 H3401 0.979 . S
C3376 H3402 0.977 . S
C3377 C3373 1.684 . S
C3377 H3403 0.979 . S
C3377 H3404 0.980 . S
C3377 H3405 0.983 . S
C3378 H3354 0.948 . S
C3378 C3379 1.391 . S
C3378 C3383 1.391 . S
C3379 C3378 1.391 . S
C3379 C3380 1.391 . S
C3380 H3357 0.947 . S
C3380 C3379 1.391 . S
C3380 C3381 1.392 . S
C3381 H3358 0.948 . S
C3381 C3380 1.392 . S
C3381 C3382 1.419 . S
C3382 C3381 1.419 . S
C3382 C3383 1.391 . S
C3382 C3386 1.397 . S
C3383 C3378 1.391 . S
C3383 C3382 1.391 . S
C3383 C3384 1.399 . S
C3384 C3383 1.399 . S
C3384 C3385 1.396 . S
C3384 C3387 1.453 . S
C3384 C3388 1.684 . S
C3385 C3375 1.723 . S
C3385 C3384 1.396 . S
C3385 C3386 1.394 . S
C3386 C3356 1.723 . S
C3386 C3382 1.397 . S
C3386 C3385 1.394 . S
C3387 H3359 0.982 . S
C3387 H3363 0.979 . S
C3387 H3364 0.977 . S
C3387 C3384 1.453 . S
C3388 H3360 0.979 . S
C3388 H3361 0.980 . S
C3388 H3362 0.983 . S
C3388 C3384 1.684 . S
H3389 C3407 0.948 . S
H3390 C3348 0.948 . S
H3391 C3366 0.979 . S
H3392 C3366 0.980 . S
H3393 C3366 0.983 . S
H3394 C3365 0.982 . S
H3395 C3365 0.979 . S
H3396 C3365 0.977 . S
H3397 C3367 0.948 . S
H3398 C3369 0.947 . S
H3399 C3370 0.948 . S
H3400 C3376 0.982 . S
H3401 C3376 0.979 . S
H3402 C3376 0.977 . S
H3403 C3377 0.979 . S
H3404 C3377 0.980 . S
H3405 C3377 0.983 . S
H3406 C3350 0.947 . S
C3407 C3350 1.392 . S
C3407 C3351 1.419 . S
C3407 H3389 0.948 . S
C3408 C3409 1.349 . S
C3408 C3410 1.327 . S
C3408 H3433 0.950 . S
C3409 C3408 1.349 . S
C3409 C3425 1.349 . S
C3410 C3408 1.327 . S
C3410 C3429 1.429 . S
C3410 H3434 0.950 . S
C3411 C3428 1.574 . S
C3411 C3430 1.368 . S
C3411 H3435 0.949 . S
H3412 C3416 0.949 . S
C3413 C3414 1.349 . S
C3413 C3415 1.327 . S
C3413 H3436 0.950 . S
C3414 C3413 1.349 . S
C3414 C3426 1.349 . S
C3415 C3413 1.327 . S
C3415 C3431 1.429 . S
C3415 H3437 0.950 . S
C3416 H3412 0.949 . S
C3416 C3424 1.574 . S
C3416 C3432 1.368 . S
H3417 C3425 0.950 . S
H3418 C3423 0.950 . S
H3419 C3424 0.949 . S
H3420 C3426 0.950 . S
H3421 C3427 0.950 . S
H3422 C3428 0.949 . S
C3423 H3418 0.950 . S
C3423 C3425 1.327 . S
C3423 C3429 1.429 . S
C3424 C3416 1.574 . S
C3424 H3419 0.949 . S
C3424 C3430 1.368 . S
C3425 C3409 1.349 . S
C3425 H3417 0.950 . S
C3425 C3423 1.327 . S
C3426 C3414 1.349 . S
C3426 H3420 0.950 . S
C3426 C3427 1.327 . S
C3427 H3421 0.950 . S
C3427 C3426 1.327 . S
C3427 C3431 1.429 . S
C3428 C3411 1.574 . S
C3428 H3422 0.949 . S
C3428 C3432 1.368 . S
C3429 C3410 1.429 . S
C3429 C3423 1.429 . S
C3429 C3430 1.523 . S
C3430 C3411 1.368 . S
C3430 C3424 1.368 . S
C3430 C3429 1.523 . S
C3431 C3415 1.429 . S
C3431 C3427 1.429 . S
C3431 C3432 1.523 . S
C3432 C3416 1.368 . S
C3432 C3428 1.368 . S
C3432 C3431 1.523 . S
H3433 C3408 0.950 . S
H3434 C3410 0.950 . S
H3435 C3411 0.949 . S
H3436 C3413 0.950 . S
H3437 C3415 0.950 . S
C3438 C3439 1.349 . S
C3438 C3440 1.327 . S
C3438 H3463 0.950 . S
C3439 C3438 1.349 . S
C3439 C3455 1.349 . S
C3440 C3438 1.327 . S
C3440 C3459 1.429 . S
C3440 H3464 0.950 . S
C3441 C3458 1.574 . S
C3441 C3460 1.368 . S
C3441 H3465 0.949 . S
H3442 C3446 0.949 . S
C3443 C3444 1.349 . S
C3443 C3445 1.327 . S
C3443 H3466 0.950 . S
C3444 C3443 1.349 . S
C3444 C3456 1.349 . S
C3445 C3443 1.327 . S
C3445 C3461 1.429 . S
C3445 H3467 0.950 . S
C3446 H3442 0.949 . S
C3446 C3454 1.574 . S
C3446 C3462 1.368 . S
H3447 C3455 0.950 . S
H3448 C3453 0.950 . S
H3449 C3454 0.949 . S
H3450 C3456 0.950 . S
H3451 C3457 0.950 . S
H3452 C3458 0.949 . S
C3453 H3448 0.950 . S
C3453 C3455 1.327 . S
C3453 C3459 1.429 . S
C3454 C3446 1.574 . S
C3454 H3449 0.949 . S
C3454 C3460 1.368 . S
C3455 C3439 1.349 . S
C3455 H3447 0.950 . S
C3455 C3453 1.327 . S
C3456 C3444 1.349 . S
C3456 H3450 0.950 . S
C3456 C3457 1.327 . S
C3457 H3451 0.950 . S
C3457 C3456 1.327 . S
C3457 C3461 1.429 . S
C3458 C3441 1.574 . S
C3458 H3452 0.949 . S
C3458 C3462 1.368 . S
C3459 C3440 1.429 . S
C3459 C3453 1.429 . S
C3459 C3460 1.523 . S
C3460 C3441 1.368 . S
C3460 C3454 1.368 . S
C3460 C3459 1.523 . S
C3461 C3445 1.429 . S
C3461 C3457 1.429 . S
C3461 C3462 1.523 . S
C3462 C3446 1.368 . S
C3462 C3458 1.368 . S
C3462 C3461 1.523 . S
H3463 C3438 0.950 . S
H3464 C3440 0.950 . S
H3465 C3441 0.949 . S
H3466 C3443 0.950 . S
H3467 C3445 0.950 . S
C3468 C3469 1.349 . S
C3468 C3470 1.327 . S
C3468 H3493 0.950 . S
C3469 C3468 1.349 . S
C3469 C3485 1.349 . S
C3470 C3468 1.327 . S
C3470 C3489 1.429 . S
C3470 H3494 0.950 . S
C3471 C3488 1.574 . S
C3471 C3490 1.368 . S
C3471 H3495 0.949 . S
H3472 C3476 0.949 . S
C3473 C3474 1.349 . S
C3473 C3475 1.327 . S
C3473 H3496 0.950 . S
C3474 C3473 1.349 . S
C3474 C3486 1.349 . S
C3475 C3473 1.327 . S
C3475 C3491 1.429 . S
C3475 H3497 0.950 . S
C3476 H3472 0.949 . S
C3476 C3484 1.574 . S
C3476 C3492 1.368 . S
H3477 C3485 0.950 . S
H3478 C3483 0.950 . S
H3479 C3484 0.949 . S
H3480 C3486 0.950 . S
H3481 C3487 0.950 . S
H3482 C3488 0.949 . S
C3483 H3478 0.950 . S
C3483 C3485 1.327 . S
C3483 C3489 1.429 . S
C3484 C3476 1.574 . S
C3484 H3479 0.949 . S
C3484 C3490 1.368 . S
C3485 C3469 1.349 . S
C3485 H3477 0.950 . S
C3485 C3483 1.327 . S
C3486 C3474 1.349 . S
C3486 H3480 0.950 . S
C3486 C3487 1.327 . S
C3487 H3481 0.950 . S
C3487 C3486 1.327 . S
C3487 C3491 1.429 . S
C3488 C3471 1.574 . S
C3488 H3482 0.949 . S
C3488 C3492 1.368 . S
C3489 C3470 1.429 . S
C3489 C3483 1.429 . S
C3489 C3490 1.523 . S
C3490 C3471 1.368 . S
C3490 C3484 1.368 . S
C3490 C3489 1.523 . S
C3491 C3475 1.429 . S
C3491 C3487 1.429 . S
C3491 C3492 1.523 . S
C3492 C3476 1.368 . S
C3492 C3488 1.368 . S
C3492 C3491 1.523 . S
H3493 C3468 0.950 . S
H3494 C3470 0.950 . S
H3495 C3471 0.949 . S
H3496 C3473 0.950 . S
H3497 C3475 0.950 . S
C3498 C3499 1.349 . S
C3498 C3500 1.327 . S
C3498 H3523 0.950 . S
C3499 C3498 1.349 . S
C3499 C3515 1.349 . S
C3500 C3498 1.327 . S
C3500 C3519 1.429 . S
C3500 H3524 0.950 . S
C3501 C3518 1.574 . S
C3501 C3520 1.368 . S
C3501 H3525 0.949 . S
H3502 C3506 0.949 . S
C3503 C3504 1.349 . S
C3503 C3505 1.327 . S
C3503 H3526 0.950 . S
C3504 C3503 1.349 . S
C3504 C3516 1.349 . S
C3505 C3503 1.327 . S
C3505 C3521 1.429 . S
C3505 H3527 0.950 . S
C3506 H3502 0.949 . S
C3506 C3514 1.574 . S
C3506 C3522 1.368 . S
H3507 C3515 0.950 . S
H3508 C3513 0.950 . S
H3509 C3514 0.949 . S
H3510 C3516 0.950 . S
H3511 C3517 0.950 . S
H3512 C3518 0.949 . S
C3513 H3508 0.950 . S
C3513 C3515 1.327 . S
C3513 C3519 1.429 . S
C3514 C3506 1.574 . S
C3514 H3509 0.949 . S
C3514 C3520 1.368 . S
C3515 C3499 1.349 . S
C3515 H3507 0.950 . S
C3515 C3513 1.327 . S
C3516 C3504 1.349 . S
C3516 H3510 0.950 . S
C3516 C3517 1.327 . S
C3517 H3511 0.950 . S
C3517 C3516 1.327 . S
C3517 C3521 1.429 . S
C3518 C3501 1.574 . S
C3518 H3512 0.949 . S
C3518 C3522 1.368 . S
C3519 C3500 1.429 . S
C3519 C3513 1.429 . S
C3519 C3520 1.523 . S
C3520 C3501 1.368 . S
C3520 C3514 1.368 . S
C3520 C3519 1.523 . S
C3521 C3505 1.429 . S
C3521 C3517 1.429 . S
C3521 C3522 1.523 . S
C3522 C3506 1.368 . S
C3522 C3518 1.368 . S
C3522 C3521 1.523 . S
H3523 C3498 0.950 . S
H3524 C3500 0.950 . S
H3525 C3501 0.949 . S
H3526 C3503 0.950 . S
H3527 C3505 0.950 . S
C3528 C3529 1.349 . S
C3528 C3530 1.327 . S
C3528 H3553 0.950 . S
C3529 C3528 1.349 . S
C3529 C3545 1.349 . S
C3530 C3528 1.327 . S
C3530 C3549 1.429 . S
C3530 H3554 0.950 . S
C3531 C3548 1.574 . S
C3531 C3550 1.368 . S
C3531 H3555 0.949 . S
H3532 C3536 0.949 . S
C3533 C3534 1.349 . S
C3533 C3535 1.327 . S
C3533 H3556 0.950 . S
C3534 C3533 1.349 . S
C3534 C3546 1.349 . S
C3535 C3533 1.327 . S
C3535 C3551 1.429 . S
C3535 H3557 0.950 . S
C3536 H3532 0.949 . S
C3536 C3544 1.574 . S
C3536 C3552 1.368 . S
H3537 C3545 0.950 . S
H3538 C3543 0.950 . S
H3539 C3544 0.949 . S
H3540 C3546 0.950 . S
H3541 C3547 0.950 . S
H3542 C3548 0.949 . S
C3543 H3538 0.950 . S
C3543 C3545 1.327 . S
C3543 C3549 1.429 . S
C3544 C3536 1.574 . S
C3544 H3539 0.949 . S
C3544 C3550 1.368 . S
C3545 C3529 1.349 . S
C3545 H3537 0.950 . S
C3545 C3543 1.327 . S
C3546 C3534 1.349 . S
C3546 H3540 0.950 . S
C3546 C3547 1.327 . S
C3547 H3541 0.950 . S
C3547 C3546 1.327 . S
C3547 C3551 1.429 . S
C3548 C3531 1.574 . S
C3548 H3542 0.949 . S
C3548 C3552 1.368 . S
C3549 C3530 1.429 . S
C3549 C3543 1.429 . S
C3549 C3550 1.523 . S
C3550 C3531 1.368 . S
C3550 C3544 1.368 . S
C3550 C3549 1.523 . S
C3551 C3535 1.429 . S
C3551 C3547 1.429 . S
C3551 C3552 1.523 . S
C3552 C3536 1.368 . S
C3552 C3548 1.368 . S
C3552 C3551 1.523 . S
H3553 C3528 0.950 . S
H3554 C3530 0.950 . S
H3555 C3531 0.949 . S
H3556 C3533 0.950 . S
H3557 C3535 0.950 . S
C3558 C3559 1.349 . S
C3558 C3560 1.327 . S
C3558 H3583 0.950 . S
C3559 C3558 1.349 . S
C3559 C3575 1.349 . S
C3560 C3558 1.327 . S
C3560 C3579 1.429 . S
C3560 H3584 0.950 . S
C3561 C3578 1.574 . S
C3561 C3580 1.368 . S
C3561 H3585 0.949 . S
H3562 C3566 0.949 . S
C3563 C3564 1.349 . S
C3563 C3565 1.327 . S
C3563 H3586 0.950 . S
C3564 C3563 1.349 . S
C3564 C3576 1.349 . S
C3565 C3563 1.327 . S
C3565 C3581 1.429 . S
C3565 H3587 0.950 . S
C3566 H3562 0.949 . S
C3566 C3574 1.574 . S
C3566 C3582 1.368 . S
H3567 C3575 0.950 . S
H3568 C3573 0.950 . S
H3569 C3574 0.949 . S
H3570 C3576 0.950 . S
H3571 C3577 0.950 . S
H3572 C3578 0.949 . S
C3573 H3568 0.950 . S
C3573 C3575 1.327 . S
C3573 C3579 1.429 . S
C3574 C3566 1.574 . S
C3574 H3569 0.949 . S
C3574 C3580 1.368 . S
C3575 C3559 1.349 . S
C3575 H3567 0.950 . S
C3575 C3573 1.327 . S
C3576 C3564 1.349 . S
C3576 H3570 0.950 . S
C3576 C3577 1.327 . S
C3577 H3571 0.950 . S
C3577 C3576 1.327 . S
C3577 C3581 1.429 . S
C3578 C3561 1.574 . S
C3578 H3572 0.949 . S
C3578 C3582 1.368 . S
C3579 C3560 1.429 . S
C3579 C3573 1.429 . S
C3579 C3580 1.523 . S
C3580 C3561 1.368 . S
C3580 C3574 1.368 . S
C3580 C3579 1.523 . S
C3581 C3565 1.429 . S
C3581 C3577 1.429 . S
C3581 C3582 1.523 . S
C3582 C3566 1.368 . S
C3582 C3578 1.368 . S
C3582 C3581 1.523 . S
H3583 C3558 0.950 . S
H3584 C3560 0.950 . S
H3585 C3561 0.949 . S
H3586 C3563 0.950 . S
H3587 C3565 0.950 . S
C3588 C3589 1.349 . S
C3588 C3590 1.327 . S
C3588 H3613 0.950 . S
C3589 C3588 1.349 . S
C3589 C3605 1.349 . S
C3590 C3588 1.327 . S
C3590 C3609 1.429 . S
C3590 H3614 0.950 . S
C3591 C3608 1.574 . S
C3591 C3610 1.368 . S
C3591 H3615 0.949 . S
H3592 C3596 0.949 . S
C3593 C3594 1.349 . S
C3593 C3595 1.327 . S
C3593 H3616 0.950 . S
C3594 C3593 1.349 . S
C3594 C3606 1.349 . S
C3595 C3593 1.327 . S
C3595 C3611 1.429 . S
C3595 H3617 0.950 . S
C3596 H3592 0.949 . S
C3596 C3604 1.574 . S
C3596 C3612 1.368 . S
H3597 C3605 0.950 . S
H3598 C3603 0.950 . S
H3599 C3604 0.949 . S
H3600 C3606 0.950 . S
H3601 C3607 0.950 . S
H3602 C3608 0.949 . S
C3603 H3598 0.950 . S
C3603 C3605 1.327 . S
C3603 C3609 1.429 . S
C3604 C3596 1.574 . S
C3604 H3599 0.949 . S
C3604 C3610 1.368 . S
C3605 C3589 1.349 . S
C3605 H3597 0.950 . S
C3605 C3603 1.327 . S
C3606 C3594 1.349 . S
C3606 H3600 0.950 . S
C3606 C3607 1.327 . S
C3607 H3601 0.950 . S
C3607 C3606 1.327 . S
C3607 C3611 1.429 . S
C3608 C3591 1.574 . S
C3608 H3602 0.949 . S
C3608 C3612 1.368 . S
C3609 C3590 1.429 . S
C3609 C3603 1.429 . S
C3609 C3610 1.523 . S
C3610 C3591 1.368 . S
C3610 C3604 1.368 . S
C3610 C3609 1.523 . S
C3611 C3595 1.429 . S
C3611 C3607 1.429 . S
C3611 C3612 1.523 . S
C3612 C3596 1.368 . S
C3612 C3608 1.368 . S
C3612 C3611 1.523 . S
H3613 C3588 0.950 . S
H3614 C3590 0.950 . S
H3615 C3591 0.949 . S
H3616 C3593 0.950 . S
H3617 C3595 0.950 . S
C3618 C3619 1.349 . S
C3618 C3620 1.327 . S
C3618 H3643 0.950 . S
C3619 C3618 1.349 . S
C3619 C3635 1.349 . S
C3620 C3618 1.327 . S
C3620 C3639 1.429 . S
C3620 H3644 0.950 . S
C3621 C3638 1.574 . S
C3621 C3640 1.368 . S
C3621 H3645 0.949 . S
H3622 C3626 0.949 . S
C3623 C3624 1.349 . S
C3623 C3625 1.327 . S
C3623 H3646 0.950 . S
C3624 C3623 1.349 . S
C3624 C3636 1.349 . S
C3625 C3623 1.327 . S
C3625 C3641 1.429 . S
C3625 H3647 0.950 . S
C3626 H3622 0.949 . S
C3626 C3634 1.574 . S
C3626 C3642 1.368 . S
H3627 C3635 0.950 . S
H3628 C3633 0.950 . S
H3629 C3634 0.949 . S
H3630 C3636 0.950 . S
H3631 C3637 0.950 . S
H3632 C3638 0.949 . S
C3633 H3628 0.950 . S
C3633 C3635 1.327 . S
C3633 C3639 1.429 . S
C3634 C3626 1.574 . S
C3634 H3629 0.949 . S
C3634 C3640 1.368 . S
C3635 C3619 1.349 . S
C3635 H3627 0.950 . S
C3635 C3633 1.327 . S
C3636 C3624 1.349 . S
C3636 H3630 0.950 . S
C3636 C3637 1.327 . S
C3637 H3631 0.950 . S
C3637 C3636 1.327 . S
C3637 C3641 1.429 . S
C3638 C3621 1.574 . S
C3638 H3632 0.949 . S
C3638 C3642 1.368 . S
C3639 C3620 1.429 . S
C3639 C3633 1.429 . S
C3639 C3640 1.523 . S
C3640 C3621 1.368 . S
C3640 C3634 1.368 . S
C3640 C3639 1.523 . S
C3641 C3625 1.429 . S
C3641 C3637 1.429 . S
C3641 C3642 1.523 . S
C3642 C3626 1.368 . S
C3642 C3638 1.368 . S
C3642 C3641 1.523 . S
H3643 C3618 0.950 . S
H3644 C3620 0.950 . S
H3645 C3621 0.949 . S
H3646 C3623 0.950 . S
H3647 C3625 0.950 . S
C3648 C3649 1.349 . S
C3648 C3650 1.327 . S
C3648 H3673 0.950 . S
C3649 C3648 1.349 . S
C3649 C3665 1.349 . S
C3650 C3648 1.327 . S
C3650 C3669 1.429 . S
C3650 H3674 0.950 . S
C3651 C3668 1.574 . S
C3651 C3670 1.368 . S
C3651 H3675 0.949 . S
H3652 C3656 0.949 . S
C3653 C3654 1.349 . S
C3653 C3655 1.327 . S
C3653 H3676 0.950 . S
C3654 C3653 1.349 . S
C3654 C3666 1.349 . S
C3655 C3653 1.327 . S
C3655 C3671 1.429 . S
C3655 H3677 0.950 . S
C3656 H3652 0.949 . S
C3656 C3664 1.574 . S
C3656 C3672 1.368 . S
H3657 C3665 0.950 . S
H3658 C3663 0.950 . S
H3659 C3664 0.949 . S
H3660 C3666 0.950 . S
H3661 C3667 0.950 . S
H3662 C3668 0.949 . S
C3663 H3658 0.950 . S
C3663 C3665 1.327 . S
C3663 C3669 1.429 . S
C3664 C3656 1.574 . S
C3664 H3659 0.949 . S
C3664 C3670 1.368 . S
C3665 C3649 1.349 . S
C3665 H3657 0.950 . S
C3665 C3663 1.327 . S
C3666 C3654 1.349 . S
C3666 H3660 0.950 . S
C3666 C3667 1.327 . S
C3667 H3661 0.950 . S
C3667 C3666 1.327 . S
C3667 C3671 1.429 . S
C3668 C3651 1.574 . S
C3668 H3662 0.949 . S
C3668 C3672 1.368 . S
C3669 C3650 1.429 . S
C3669 C3663 1.429 . S
C3669 C3670 1.523 . S
C3670 C3651 1.368 . S
C3670 C3664 1.368 . S
C3670 C3669 1.523 . S
C3671 C3655 1.429 . S
C3671 C3667 1.429 . S
C3671 C3672 1.523 . S
C3672 C3656 1.368 . S
C3672 C3668 1.368 . S
C3672 C3671 1.523 . S
H3673 C3648 0.950 . S
H3674 C3650 0.950 . S
H3675 C3651 0.949 . S
H3676 C3653 0.950 . S
H3677 C3655 0.950 . S
C3678 C3679 1.349 . S
C3678 C3680 1.327 . S
C3678 H3703 0.950 . S
C3679 C3678 1.349 . S
C3679 C3695 1.349 . S
C3680 C3678 1.327 . S
C3680 C3699 1.429 . S
C3680 H3704 0.950 . S
C3681 C3698 1.574 . S
C3681 C3700 1.368 . S
C3681 H3705 0.949 . S
H3682 C3686 0.949 . S
C3683 C3684 1.349 . S
C3683 C3685 1.327 . S
C3683 H3706 0.950 . S
C3684 C3683 1.349 . S
C3684 C3696 1.349 . S
C3685 C3683 1.327 . S
C3685 C3701 1.429 . S
C3685 H3707 0.950 . S
C3686 H3682 0.949 . S
C3686 C3694 1.574 . S
C3686 C3702 1.368 . S
H3687 C3695 0.950 . S
H3688 C3693 0.950 . S
H3689 C3694 0.949 . S
H3690 C3696 0.950 . S
H3691 C3697 0.950 . S
H3692 C3698 0.949 . S
C3693 H3688 0.950 . S
C3693 C3695 1.327 . S
C3693 C3699 1.429 . S
C3694 C3686 1.574 . S
C3694 H3689 0.949 . S
C3694 C3700 1.368 . S
C3695 C3679 1.349 . S
C3695 H3687 0.950 . S
C3695 C3693 1.327 . S
C3696 C3684 1.349 . S
C3696 H3690 0.950 . S
C3696 C3697 1.327 . S
C3697 H3691 0.950 . S
C3697 C3696 1.327 . S
C3697 C3701 1.429 . S
C3698 C3681 1.574 . S
C3698 H3692 0.949 . S
C3698 C3702 1.368 . S
C3699 C3680 1.429 . S
C3699 C3693 1.429 . S
C3699 C3700 1.523 . S
C3700 C3681 1.368 . S
C3700 C3694 1.368 . S
C3700 C3699 1.523 . S
C3701 C3685 1.429 . S
C3701 C3697 1.429 . S
C3701 C3702 1.523 . S
C3702 C3686 1.368 . S
C3702 C3698 1.368 . S
C3702 C3701 1.523 . S
H3703 C3678 0.950 . S
H3704 C3680 0.950 . S
H3705 C3681 0.949 . S
H3706 C3683 0.950 . S
H3707 C3685 0.950 . S
C3708 C3709 1.349 . S
C3708 C3710 1.327 . S
C3708 H3733 0.950 . S
C3709 C3708 1.349 . S
C3709 C3725 1.349 . S
C3710 C3708 1.327 . S
C3710 C3729 1.429 . S
C3710 H3734 0.950 . S
C3711 C3728 1.574 . S
C3711 C3730 1.368 . S
C3711 H3735 0.949 . S
H3712 C3716 0.949 . S
C3713 C3714 1.349 . S
C3713 C3715 1.327 . S
C3713 H3736 0.950 . S
C3714 C3713 1.349 . S
C3714 C3726 1.349 . S
C3715 C3713 1.327 . S
C3715 C3731 1.429 . S
C3715 H3737 0.950 . S
C3716 H3712 0.949 . S
C3716 C3724 1.574 . S
C3716 C3732 1.368 . S
H3717 C3725 0.950 . S
H3718 C3723 0.950 . S
H3719 C3724 0.949 . S
H3720 C3726 0.950 . S
H3721 C3727 0.950 . S
H3722 C3728 0.949 . S
C3723 H3718 0.950 . S
C3723 C3725 1.327 . S
C3723 C3729 1.429 . S
C3724 C3716 1.574 . S
C3724 H3719 0.949 . S
C3724 C3730 1.368 . S
C3725 C3709 1.349 . S
C3725 H3717 0.950 . S
C3725 C3723 1.327 . S
C3726 C3714 1.349 . S
C3726 H3720 0.950 . S
C3726 C3727 1.327 . S
C3727 H3721 0.950 . S
C3727 C3726 1.327 . S
C3727 C3731 1.429 . S
C3728 C3711 1.574 . S
C3728 H3722 0.949 . S
C3728 C3732 1.368 . S
C3729 C3710 1.429 . S
C3729 C3723 1.429 . S
C3729 C3730 1.523 . S
C3730 C3711 1.368 . S
C3730 C3724 1.368 . S
C3730 C3729 1.523 . S
C3731 C3715 1.429 . S
C3731 C3727 1.429 . S
C3731 C3732 1.523 . S
C3732 C3716 1.368 . S
C3732 C3728 1.368 . S
C3732 C3731 1.523 . S
H3733 C3708 0.950 . S
H3734 C3710 0.950 . S
H3735 C3711 0.949 . S
H3736 C3713 0.950 . S
H3737 C3715 0.950 . S
C3738 C3739 1.349 . S
C3738 C3740 1.327 . S
C3738 H3763 0.950 . S
C3739 C3738 1.349 . S
C3739 C3755 1.349 . S
C3740 C3738 1.327 . S
C3740 C3759 1.429 . S
C3740 H3764 0.950 . S
C3741 C3758 1.574 . S
C3741 C3760 1.368 . S
C3741 H3765 0.949 . S
H3742 C3746 0.949 . S
C3743 C3744 1.349 . S
C3743 C3745 1.327 . S
C3743 H3766 0.950 . S
C3744 C3743 1.349 . S
C3744 C3756 1.349 . S
C3745 C3743 1.327 . S
C3745 C3761 1.429 . S
C3745 H3767 0.950 . S
C3746 H3742 0.949 . S
C3746 C3754 1.574 . S
C3746 C3762 1.368 . S
H3747 C3755 0.950 . S
H3748 C3753 0.950 . S
H3749 C3754 0.949 . S
H3750 C3756 0.950 . S
H3751 C3757 0.950 . S
H3752 C3758 0.949 . S
C3753 H3748 0.950 . S
C3753 C3755 1.327 . S
C3753 C3759 1.429 . S
C3754 C3746 1.574 . S
C3754 H3749 0.949 . S
C3754 C3760 1.368 . S
C3755 C3739 1.349 . S
C3755 H3747 0.950 . S
C3755 C3753 1.327 . S
C3756 C3744 1.349 . S
C3756 H3750 0.950 . S
C3756 C3757 1.327 . S
C3757 H3751 0.950 . S
C3757 C3756 1.327 . S
C3757 C3761 1.429 . S
C3758 C3741 1.574 . S
C3758 H3752 0.949 . S
C3758 C3762 1.368 . S
C3759 C3740 1.429 . S
C3759 C3753 1.429 . S
C3759 C3760 1.523 . S
C3760 C3741 1.368 . S
C3760 C3754 1.368 . S
C3760 C3759 1.523 . S
C3761 C3745 1.429 . S
C3761 C3757 1.429 . S
C3761 C3762 1.523 . S
C3762 C3746 1.368 . S
C3762 C3758 1.368 . S
C3762 C3761 1.523 . S
H3763 C3738 0.950 . S
H3764 C3740 0.950 . S
H3765 C3741 0.949 . S
H3766 C3743 0.950 . S
H3767 C3745 0.950 . S
C3768 C3769 1.349 . S
C3768 C3770 1.327 . S
C3768 H3793 0.950 . S
C3769 C3768 1.349 . S
C3769 C3785 1.349 . S
C3770 C3768 1.327 . S
C3770 C3789 1.429 . S
C3770 H3794 0.950 . S
C3771 C3788 1.574 . S
C3771 C3790 1.368 . S
C3771 H3795 0.949 . S
H3772 C3776 0.949 . S
C3773 C3774 1.349 . S
C3773 C3775 1.327 . S
C3773 H3796 0.950 . S
C3774 C3773 1.349 . S
C3774 C3786 1.349 . S
C3775 C3773 1.327 . S
C3775 C3791 1.429 . S
C3775 H3797 0.950 . S
C3776 H3772 0.949 . S
C3776 C3784 1.574 . S
C3776 C3792 1.368 . S
H3777 C3785 0.950 . S
H3778 C3783 0.950 . S
H3779 C3784 0.949 . S
H3780 C3786 0.950 . S
H3781 C3787 0.950 . S
H3782 C3788 0.949 . S
C3783 H3778 0.950 . S
C3783 C3785 1.327 . S
C3783 C3789 1.429 . S
C3784 C3776 1.574 . S
C3784 H3779 0.949 . S
C3784 C3790 1.368 . S
C3785 C3769 1.349 . S
C3785 H3777 0.950 . S
C3785 C3783 1.327 . S
C3786 C3774 1.349 . S
C3786 H3780 0.950 . S
C3786 C3787 1.327 . S
C3787 H3781 0.950 . S
C3787 C3786 1.327 . S
C3787 C3791 1.429 . S
C3788 C3771 1.574 . S
C3788 H3782 0.949 . S
C3788 C3792 1.368 . S
C3789 C3770 1.429 . S
C3789 C3783 1.429 . S
C3789 C3790 1.523 . S
C3790 C3771 1.368 . S
C3790 C3784 1.368 . S
C3790 C3789 1.523 . S
C3791 C3775 1.429 . S
C3791 C3787 1.429 . S
C3791 C3792 1.523 . S
C3792 C3776 1.368 . S
C3792 C3788 1.368 . S
C3792 C3791 1.523 . S
H3793 C3768 0.950 . S
H3794 C3770 0.950 . S
H3795 C3771 0.949 . S
H3796 C3773 0.950 . S
H3797 C3775 0.950 . S
C3798 C3799 1.349 . S
C3798 C3800 1.327 . S
C3798 H3823 0.950 . S
C3799 C3798 1.349 . S
C3799 C3815 1.349 . S
C3800 C3798 1.327 . S
C3800 C3819 1.429 . S
C3800 H3824 0.950 . S
C3801 C3818 1.574 . S
C3801 C3820 1.368 . S
C3801 H3825 0.949 . S
H3802 C3806 0.949 . S
C3803 C3804 1.349 . S
C3803 C3805 1.327 . S
C3803 H3826 0.950 . S
C3804 C3803 1.349 . S
C3804 C3816 1.349 . S
C3805 C3803 1.327 . S
C3805 C3821 1.429 . S
C3805 H3827 0.950 . S
C3806 H3802 0.949 . S
C3806 C3814 1.574 . S
C3806 C3822 1.368 . S
H3807 C3815 0.950 . S
H3808 C3813 0.950 . S
H3809 C3814 0.949 . S
H3810 C3816 0.950 . S
H3811 C3817 0.950 . S
H3812 C3818 0.949 . S
C3813 H3808 0.950 . S
C3813 C3815 1.327 . S
C3813 C3819 1.429 . S
C3814 C3806 1.574 . S
C3814 H3809 0.949 . S
C3814 C3820 1.368 . S
C3815 C3799 1.349 . S
C3815 H3807 0.950 . S
C3815 C3813 1.327 . S
C3816 C3804 1.349 . S
C3816 H3810 0.950 . S
C3816 C3817 1.327 . S
C3817 H3811 0.950 . S
C3817 C3816 1.327 . S
C3817 C3821 1.429 . S
C3818 C3801 1.574 . S
C3818 H3812 0.949 . S
C3818 C3822 1.368 . S
C3819 C3800 1.429 . S
C3819 C3813 1.429 . S
C3819 C3820 1.523 . S
C3820 C3801 1.368 . S
C3820 C3814 1.368 . S
C3820 C3819 1.523 . S
C3821 C3805 1.429 . S
C3821 C3817 1.429 . S
C3821 C3822 1.523 . S
C3822 C3806 1.368 . S
C3822 C3818 1.368 . S
C3822 C3821 1.523 . S
H3823 C3798 0.950 . S
H3824 C3800 0.950 . S
H3825 C3801 0.949 . S
H3826 C3803 0.950 . S
H3827 C3805 0.950 . S
C3828 C3829 1.349 . S
C3828 C3830 1.327 . S
C3828 H3853 0.950 . S
C3829 C3828 1.349 . S
C3829 C3845 1.349 . S
C3830 C3828 1.327 . S
C3830 C3849 1.429 . S
C3830 H3854 0.950 . S
C3831 C3848 1.574 . S
C3831 C3850 1.368 . S
C3831 H3855 0.949 . S
H3832 C3836 0.949 . S
C3833 C3834 1.349 . S
C3833 C3835 1.327 . S
C3833 H3856 0.950 . S
C3834 C3833 1.349 . S
C3834 C3846 1.349 . S
C3835 C3833 1.327 . S
C3835 C3851 1.429 . S
C3835 H3857 0.950 . S
C3836 H3832 0.949 . S
C3836 C3844 1.574 . S
C3836 C3852 1.368 . S
H3837 C3845 0.950 . S
H3838 C3843 0.950 . S
H3839 C3844 0.949 . S
H3840 C3846 0.950 . S
H3841 C3847 0.950 . S
H3842 C3848 0.949 . S
C3843 H3838 0.950 . S
C3843 C3845 1.327 . S
C3843 C3849 1.429 . S
C3844 C3836 1.574 . S
C3844 H3839 0.949 . S
C3844 C3850 1.368 . S
C3845 C3829 1.349 . S
C3845 H3837 0.950 . S
C3845 C3843 1.327 . S
C3846 C3834 1.349 . S
C3846 H3840 0.950 . S
C3846 C3847 1.327 . S
C3847 H3841 0.950 . S
C3847 C3846 1.327 . S
C3847 C3851 1.429 . S
C3848 C3831 1.574 . S
C3848 H3842 0.949 . S
C3848 C3852 1.368 . S
C3849 C3830 1.429 . S
C3849 C3843 1.429 . S
C3849 C3850 1.523 . S
C3850 C3831 1.368 . S
C3850 C3844 1.368 . S
C3850 C3849 1.523 . S
C3851 C3835 1.429 . S
C3851 C3847 1.429 . S
C3851 C3852 1.523 . S
C3852 C3836 1.368 . S
C3852 C3848 1.368 . S
C3852 C3851 1.523 . S
H3853 C3828 0.950 . S
H3854 C3830 0.950 . S
H3855 C3831 0.949 . S
H3856 C3833 0.950 . S
H3857 C3835 0.950 . S
C3858 C3859 1.349 . S
C3858 C3860 1.327 . S
C3858 H3883 0.950 . S
C3859 C3858 1.349 . S
C3859 C3875 1.349 . S
C3860 C3858 1.327 . S
C3860 C3879 1.429 . S
C3860 H3884 0.950 . S
C3861 C3878 1.574 . S
C3861 C3880 1.368 . S
C3861 H3885 0.949 . S
H3862 C3866 0.949 . S
C3863 C3864 1.349 . S
C3863 C3865 1.327 . S
C3863 H3886 0.950 . S
C3864 C3863 1.349 . S
C3864 C3876 1.349 . S
C3865 C3863 1.327 . S
C3865 C3881 1.429 . S
C3865 H3887 0.950 . S
C3866 H3862 0.949 . S
C3866 C3874 1.574 . S
C3866 C3882 1.368 . S
H3867 C3875 0.950 . S
H3868 C3873 0.950 . S
H3869 C3874 0.949 . S
H3870 C3876 0.950 . S
H3871 C3877 0.950 . S
H3872 C3878 0.949 . S
C3873 H3868 0.950 . S
C3873 C3875 1.327 . S
C3873 C3879 1.429 . S
C3874 C3866 1.574 . S
C3874 H3869 0.949 . S
C3874 C3880 1.368 . S
C3875 C3859 1.349 . S
C3875 H3867 0.950 . S
C3875 C3873 1.327 . S
C3876 C3864 1.349 . S
C3876 H3870 0.950 . S
C3876 C3877 1.327 . S
C3877 H3871 0.950 . S
C3877 C3876 1.327 . S
C3877 C3881 1.429 . S
C3878 C3861 1.574 . S
C3878 H3872 0.949 . S
C3878 C3882 1.368 . S
C3879 C3860 1.429 . S
C3879 C3873 1.429 . S
C3879 C3880 1.523 . S
C3880 C3861 1.368 . S
C3880 C3874 1.368 . S
C3880 C3879 1.523 . S
C3881 C3865 1.429 . S
C3881 C3877 1.429 . S
C3881 C3882 1.523 . S
C3882 C3866 1.368 . S
C3882 C3878 1.368 . S
C3882 C3881 1.523 . S
H3883 C3858 0.950 . S
H3884 C3860 0.950 . S
H3885 C3861 0.949 . S
H3886 C3863 0.950 . S
H3887 C3865 0.950 . S
C3888 C3889 1.349 . S
C3888 C3890 1.327 . S
C3888 H3913 0.950 . S
C3889 C3888 1.349 . S
C3889 C3905 1.349 . S
C3890 C3888 1.327 . S
C3890 C3909 1.429 . S
C3890 H3914 0.950 . S
C3891 C3908 1.574 . S
C3891 C3910 1.368 . S
C3891 H3915 0.949 . S
H3892 C3896 0.949 . S
C3893 C3894 1.349 . S
C3893 C3895 1.327 . S
C3893 H3916 0.950 . S
C3894 C3893 1.349 . S
C3894 C3906 1.349 . S
C3895 C3893 1.327 . S
C3895 C3911 1.429 . S
C3895 H3917 0.950 . S
C3896 H3892 0.949 . S
C3896 C3904 1.574 . S
C3896 C3912 1.368 . S
H3897 C3905 0.950 . S
H3898 C3903 0.950 . S
H3899 C3904 0.949 . S
H3900 C3906 0.950 . S
H3901 C3907 0.950 . S
H3902 C3908 0.949 . S
C3903 H3898 0.950 . S
C3903 C3905 1.327 . S
C3903 C3909 1.429 . S
C3904 C3896 1.574 . S
C3904 H3899 0.949 . S
C3904 C3910 1.368 . S
C3905 C3889 1.349 . S
C3905 H3897 0.950 . S
C3905 C3903 1.327 . S
C3906 C3894 1.349 . S
C3906 H3900 0.950 . S
C3906 C3907 1.327 . S
C3907 H3901 0.950 . S
C3907 C3906 1.327 . S
C3907 C3911 1.429 . S
C3908 C3891 1.574 . S
C3908 H3902 0.949 . S
C3908 C3912 1.368 . S
C3909 C3890 1.429 . S
C3909 C3903 1.429 . S
C3909 C3910 1.523 . S
C3910 C3891 1.368 . S
C3910 C3904 1.368 . S
C3910 C3909 1.523 . S
C3911 C3895 1.429 . S
C3911 C3907 1.429 . S
C3911 C3912 1.523 . S
C3912 C3896 1.368 . S
C3912 C3908 1.368 . S
C3912 C3911 1.523 . S
H3913 C3888 0.950 . S
H3914 C3890 0.950 . S
H3915 C3891 0.949 . S
H3916 C3893 0.950 . S
H3917 C3895 0.950 . S
C3918 C3919 1.349 . S
C3918 C3920 1.327 . S
C3918 H3943 0.950 . S
C3919 C3918 1.349 . S
C3919 C3935 1.349 . S
C3920 C3918 1.327 . S
C3920 C3939 1.429 . S
C3920 H3944 0.950 . S
C3921 C3938 1.574 . S
C3921 C3940 1.368 . S
C3921 H3945 0.949 . S
H3922 C3926 0.949 . S
C3923 C3924 1.349 . S
C3923 C3925 1.327 . S
C3923 H3946 0.950 . S
C3924 C3923 1.349 . S
C3924 C3936 1.349 . S
C3925 C3923 1.327 . S
C3925 C3941 1.429 . S
C3925 H3947 0.950 . S
C3926 H3922 0.949 . S
C3926 C3934 1.574 . S
C3926 C3942 1.368 . S
H3927 C3935 0.950 . S
H3928 C3933 0.950 . S
H3929 C3934 0.949 . S
H3930 C3936 0.950 . S
H3931 C3937 0.950 . S
H3932 C3938 0.949 . S
C3933 H3928 0.950 . S
C3933 C3935 1.327 . S
C3933 C3939 1.429 . S
C3934 C3926 1.574 . S
C3934 H3929 0.949 . S
C3934 C3940 1.368 . S
C3935 C3919 1.349 . S
C3935 H3927 0.950 . S
C3935 C3933 1.327 . S
C3936 C3924 1.349 . S
C3936 H3930 0.950 . S
C3936 C3937 1.327 . S
C3937 H3931 0.950 . S
C3937 C3936 1.327 . S
C3937 C3941 1.429 . S
C3938 C3921 1.574 . S
C3938 H3932 0.949 . S
C3938 C3942 1.368 . S
C3939 C3920 1.429 . S
C3939 C3933 1.429 . S
C3939 C3940 1.523 . S
C3940 C3921 1.368 . S
C3940 C3934 1.368 . S
C3940 C3939 1.523 . S
C3941 C3925 1.429 . S
C3941 C3937 1.429 . S
C3941 C3942 1.523 . S
C3942 C3926 1.368 . S
C3942 C3938 1.368 . S
C3942 C3941 1.523 . S
H3943 C3918 0.950 . S
H3944 C3920 0.950 . S
H3945 C3921 0.949 . S
H3946 C3923 0.950 . S
H3947 C3925 0.950 . S
C3948 C3949 1.349 . S
C3948 C3950 1.327 . S
C3948 H3973 0.950 . S
C3949 C3948 1.349 . S
C3949 C3965 1.349 . S
C3950 C3948 1.327 . S
C3950 C3969 1.429 . S
C3950 H3974 0.950 . S
C3951 C3968 1.574 . S
C3951 C3970 1.368 . S
C3951 H3975 0.949 . S
H3952 C3956 0.949 . S
C3953 C3954 1.349 . S
C3953 C3955 1.327 . S
C3953 H3976 0.950 . S
C3954 C3953 1.349 . S
C3954 C3966 1.349 . S
C3955 C3953 1.327 . S
C3955 C3971 1.429 . S
C3955 H3977 0.950 . S
C3956 H3952 0.949 . S
C3956 C3964 1.574 . S
C3956 C3972 1.368 . S
H3957 C3965 0.950 . S
H3958 C3963 0.950 . S
H3959 C3964 0.949 . S
H3960 C3966 0.950 . S
H3961 C3967 0.950 . S
H3962 C3968 0.949 . S
C3963 H3958 0.950 . S
C3963 C3965 1.327 . S
C3963 C3969 1.429 . S
C3964 C3956 1.574 . S
C3964 H3959 0.949 . S
C3964 C3970 1.368 . S
C3965 C3949 1.349 . S
C3965 H3957 0.950 . S
C3965 C3963 1.327 . S
C3966 C3954 1.349 . S
C3966 H3960 0.950 . S
C3966 C3967 1.327 . S
C3967 H3961 0.950 . S
C3967 C3966 1.327 . S
C3967 C3971 1.429 . S
C3968 C3951 1.574 . S
C3968 H3962 0.949 . S
C3968 C3972 1.368 . S
C3969 C3950 1.429 . S
C3969 C3963 1.429 . S
C3969 C3970 1.523 . S
C3970 C3951 1.368 . S
C3970 C3964 1.368 . S
C3970 C3969 1.523 . S
C3971 C3955 1.429 . S
C3971 C3967 1.429 . S
C3971 C3972 1.523 . S
C3972 C3956 1.368 . S
C3972 C3968 1.368 . S
C3972 C3971 1.523 . S
H3973 C3948 0.950 . S
H3974 C3950 0.950 . S
H3975 C3951 0.949 . S
H3976 C3953 0.950 . S
H3977 C3955 0.950 . S
C3978 C3979 1.349 . S
C3978 C3980 1.327 . S
C3978 H4003 0.950 . S
C3979 C3978 1.349 . S
C3979 C3995 1.349 . S
C3980 C3978 1.327 . S
C3980 C3999 1.429 . S
C3980 H4004 0.950 . S
C3981 C3998 1.574 . S
C3981 C4000 1.368 . S
C3981 H4005 0.949 . S
H3982 C3986 0.949 . S
C3983 C3984 1.349 . S
C3983 C3985 1.327 . S
C3983 H4006 0.950 . S
C3984 C3983 1.349 . S
C3984 C3996 1.349 . S
C3985 C3983 1.327 . S
C3985 C4001 1.429 . S
C3985 H4007 0.950 . S
C3986 H3982 0.949 . S
C3986 C3994 1.574 . S
C3986 C4002 1.368 . S
H3987 C3995 0.950 . S
H3988 C3993 0.950 . S
H3989 C3994 0.949 . S
H3990 C3996 0.950 . S
H3991 C3997 0.950 . S
H3992 C3998 0.949 . S
C3993 H3988 0.950 . S
C3993 C3995 1.327 . S
C3993 C3999 1.429 . S
C3994 C3986 1.574 . S
C3994 H3989 0.949 . S
C3994 C4000 1.368 . S
C3995 C3979 1.349 . S
C3995 H3987 0.950 . S
C3995 C3993 1.327 . S
C3996 C3984 1.349 . S
C3996 H3990 0.950 . S
C3996 C3997 1.327 . S
C3997 H3991 0.950 . S
C3997 C3996 1.327 . S
C3997 C4001 1.429 . S
C3998 C3981 1.574 . S
C3998 H3992 0.949 . S
C3998 C4002 1.368 . S
C3999 C3980 1.429 . S
C3999 C3993 1.429 . S
C3999 C4000 1.523 . S
C4000 C3981 1.368 . S
C4000 C3994 1.368 . S
C4000 C3999 1.523 . S
C4001 C3985 1.429 . S
C4001 C3997 1.429 . S
C4001 C4002 1.523 . S
C4002 C3986 1.368 . S
C4002 C3998 1.368 . S
C4002 C4001 1.523 . S
H4003 C3978 0.950 . S
H4004 C3980 0.950 . S
H4005 C3981 0.949 . S
H4006 C3983 0.950 . S
H4007 C3985 0.950 . S
C4008 C4009 1.349 . S
C4008 C4010 1.327 . S
C4008 H4033 0.950 . S
C4009 C4008 1.349 . S
C4009 C4025 1.349 . S
C4010 C4008 1.327 . S
C4010 C4029 1.429 . S
C4010 H4034 0.950 . S
C4011 C4028 1.574 . S
C4011 C4030 1.368 . S
C4011 H4035 0.949 . S
H4012 C4016 0.949 . S
C4013 C4014 1.349 . S
C4013 C4015 1.327 . S
C4013 H4036 0.950 . S
C4014 C4013 1.349 . S
C4014 C4026 1.349 . S
C4015 C4013 1.327 . S
C4015 C4031 1.429 . S
C4015 H4037 0.950 . S
C4016 H4012 0.949 . S
C4016 C4024 1.574 . S
C4016 C4032 1.368 . S
H4017 C4025 0.950 . S
H4018 C4023 0.950 . S
H4019 C4024 0.949 . S
H4020 C4026 0.950 . S
H4021 C4027 0.950 . S
H4022 C4028 0.949 . S
C4023 H4018 0.950 . S
C4023 C4025 1.327 . S
C4023 C4029 1.429 . S
C4024 C4016 1.574 . S
C4024 H4019 0.949 . S
C4024 C4030 1.368 . S
C4025 C4009 1.349 . S
C4025 H4017 0.950 . S
C4025 C4023 1.327 . S
C4026 C4014 1.349 . S
C4026 H4020 0.950 . S
C4026 C4027 1.327 . S
C4027 H4021 0.950 . S
C4027 C4026 1.327 . S
C4027 C4031 1.429 . S
C4028 C4011 1.574 . S
C4028 H4022 0.949 . S
C4028 C4032 1.368 . S
C4029 C4010 1.429 . S
C4029 C4023 1.429 . S
C4029 C4030 1.523 . S
C4030 C4011 1.368 . S
C4030 C4024 1.368 . S
C4030 C4029 1.523 . S
C4031 C4015 1.429 . S
C4031 C4027 1.429 . S
C4031 C4032 1.523 . S
C4032 C4016 1.368 . S
C4032 C4028 1.368 . S
C4032 C4031 1.523 . S
H4033 C4008 0.950 . S
H4034 C4010 0.950 . S
H4035 C4011 0.949 . S
H4036 C4013 0.950 . S
H4037 C4015 0.950 . S
C4038 C4039 1.349 . S
C4038 C4040 1.327 . S
C4038 H4063 0.950 . S
C4039 C4038 1.349 . S
C4039 C4055 1.349 . S
C4040 C4038 1.327 . S
C4040 C4059 1.429 . S
C4040 H4064 0.950 . S
C4041 C4058 1.574 . S
C4041 C4060 1.368 . S
C4041 H4065 0.949 . S
H4042 C4046 0.949 . S
C4043 C4044 1.349 . S
C4043 C4045 1.327 . S
C4043 H4066 0.950 . S
C4044 C4043 1.349 . S
C4044 C4056 1.349 . S
C4045 C4043 1.327 . S
C4045 C4061 1.429 . S
C4045 H4067 0.950 . S
C4046 H4042 0.949 . S
C4046 C4054 1.574 . S
C4046 C4062 1.368 . S
H4047 C4055 0.950 . S
H4048 C4053 0.950 . S
H4049 C4054 0.949 . S
H4050 C4056 0.950 . S
H4051 C4057 0.950 . S
H4052 C4058 0.949 . S
C4053 H4048 0.950 . S
C4053 C4055 1.327 . S
C4053 C4059 1.429 . S
C4054 C4046 1.574 . S
C4054 H4049 0.949 . S
C4054 C4060 1.368 . S
C4055 C4039 1.349 . S
C4055 H4047 0.950 . S
C4055 C4053 1.327 . S
C4056 C4044 1.349 . S
C4056 H4050 0.950 . S
C4056 C4057 1.327 . S
C4057 H4051 0.950 . S
C4057 C4056 1.327 . S
C4057 C4061 1.429 . S
C4058 C4041 1.574 . S
C4058 H4052 0.949 . S
C4058 C4062 1.368 . S
C4059 C4040 1.429 . S
C4059 C4053 1.429 . S
C4059 C4060 1.523 . S
C4060 C4041 1.368 . S
C4060 C4054 1.368 . S
C4060 C4059 1.523 . S
C4061 C4045 1.429 . S
C4061 C4057 1.429 . S
C4061 C4062 1.523 . S
C4062 C4046 1.368 . S
C4062 C4058 1.368 . S
C4062 C4061 1.523 . S
H4063 C4038 0.950 . S
H4064 C4040 0.950 . S
H4065 C4041 0.949 . S
H4066 C4043 0.950 . S
H4067 C4045 0.950 . S
C4068 C4069 1.349 . S
C4068 C4070 1.327 . S
C4068 H4093 0.950 . S
C4069 C4068 1.349 . S
C4069 C4085 1.349 . S
C4070 C4068 1.327 . S
C4070 C4089 1.429 . S
C4070 H4094 0.950 . S
C4071 C4088 1.574 . S
C4071 C4090 1.368 . S
C4071 H4095 0.949 . S
H4072 C4076 0.949 . S
C4073 C4074 1.349 . S
C4073 C4075 1.327 . S
C4073 H4096 0.950 . S
C4074 C4073 1.349 . S
C4074 C4086 1.349 . S
C4075 C4073 1.327 . S
C4075 C4091 1.429 . S
C4075 H4097 0.950 . S
C4076 H4072 0.949 . S
C4076 C4084 1.574 . S
C4076 C4092 1.368 . S
H4077 C4085 0.950 . S
H4078 C4083 0.950 . S
H4079 C4084 0.949 . S
H4080 C4086 0.950 . S
H4081 C4087 0.950 . S
H4082 C4088 0.949 . S
C4083 H4078 0.950 . S
C4083 C4085 1.327 . S
C4083 C4089 1.429 . S
C4084 C4076 1.574 . S
C4084 H4079 0.949 . S
C4084 C4090 1.368 . S
C4085 C4069 1.349 . S
C4085 H4077 0.950 . S
C4085 C4083 1.327 . S
C4086 C4074 1.349 . S
C4086 H4080 0.950 . S
C4086 C4087 1.327 . S
C4087 H4081 0.950 . S
C4087 C4086 1.327 . S
C4087 C4091 1.429 . S
C4088 C4071 1.574 . S
C4088 H4082 0.949 . S
C4088 C4092 1.368 . S
C4089 C4070 1.429 . S
C4089 C4083 1.429 . S
C4089 C4090 1.523 . S
C4090 C4071 1.368 . S
C4090 C4084 1.368 . S
C4090 C4089 1.523 . S
C4091 C4075 1.429 . S
C4091 C4087 1.429 . S
C4091 C4092 1.523 . S
C4092 C4076 1.368 . S
C4092 C4088 1.368 . S
C4092 C4091 1.523 . S
H4093 C4068 0.950 . S
H4094 C4070 0.950 . S
H4095 C4071 0.949 . S
H4096 C4073 0.950 . S
H4097 C4075 0.950 . S
C4098 C4099 1.349 . S
C4098 C4100 1.327 . S
C4098 H4123 0.950 . S
C4099 C4098 1.349 . S
C4099 C4115 1.349 . S
C4100 C4098 1.327 . S
C4100 C4119 1.429 . S
C4100 H4124 0.950 . S
C4101 C4118 1.574 . S
C4101 C4120 1.368 . S
C4101 H4125 0.949 . S
H4102 C4106 0.949 . S
C4103 C4104 1.349 . S
C4103 C4105 1.327 . S
C4103 H4126 0.950 . S
C4104 C4103 1.349 . S
C4104 C4116 1.349 . S
C4105 C4103 1.327 . S
C4105 C4121 1.429 . S
C4105 H4127 0.950 . S
C4106 H4102 0.949 . S
C4106 C4114 1.574 . S
C4106 C4122 1.368 . S
H4107 C4115 0.950 . S
H4108 C4113 0.950 . S
H4109 C4114 0.949 . S
H4110 C4116 0.950 . S
H4111 C4117 0.950 . S
H4112 C4118 0.949 . S
C4113 H4108 0.950 . S
C4113 C4115 1.327 . S
C4113 C4119 1.429 . S
C4114 C4106 1.574 . S
C4114 H4109 0.949 . S
C4114 C4120 1.368 . S
C4115 C4099 1.349 . S
C4115 H4107 0.950 . S
C4115 C4113 1.327 . S
C4116 C4104 1.349 . S
C4116 H4110 0.950 . S
C4116 C4117 1.327 . S
C4117 H4111 0.950 . S
C4117 C4116 1.327 . S
C4117 C4121 1.429 . S
C4118 C4101 1.574 . S
C4118 H4112 0.949 . S
C4118 C4122 1.368 . S
C4119 C4100 1.429 . S
C4119 C4113 1.429 . S
C4119 C4120 1.523 . S
C4120 C4101 1.368 . S
C4120 C4114 1.368 . S
C4120 C4119 1.523 . S
C4121 C4105 1.429 . S
C4121 C4117 1.429 . S
C4121 C4122 1.523 . S
C4122 C4106 1.368 . S
C4122 C4118 1.368 . S
C4122 C4121 1.523 . S
H4123 C4098 0.950 . S
H4124 C4100 0.950 . S
H4125 C4101 0.949 . S
H4126 C4103 0.950 . S
H4127 C4105 0.950 . S
C4128 C4129 1.349 . S
C4128 C4130 1.327 . S
C4128 H4153 0.950 . S
C4129 C4128 1.349 . S
C4129 C4145 1.349 . S
C4130 C4128 1.327 . S
C4130 C4149 1.429 . S
C4130 H4154 0.950 . S
C4131 C4148 1.574 . S
C4131 C4150 1.368 . S
C4131 H4155 0.949 . S
H4132 C4136 0.949 . S
C4133 C4134 1.349 . S
C4133 C4135 1.327 . S
C4133 H4156 0.950 . S
C4134 C4133 1.349 . S
C4134 C4146 1.349 . S
C4135 C4133 1.327 . S
C4135 C4151 1.429 . S
C4135 H4157 0.950 . S
C4136 H4132 0.949 . S
C4136 C4144 1.574 . S
C4136 C4152 1.368 . S
H4137 C4145 0.950 . S
H4138 C4143 0.950 . S
H4139 C4144 0.949 . S
H4140 C4146 0.950 . S
H4141 C4147 0.950 . S
H4142 C4148 0.949 . S
C4143 H4138 0.950 . S
C4143 C4145 1.327 . S
C4143 C4149 1.429 . S
C4144 C4136 1.574 . S
C4144 H4139 0.949 . S
C4144 C4150 1.368 . S
C4145 C4129 1.349 . S
C4145 H4137 0.950 . S
C4145 C4143 1.327 . S
C4146 C4134 1.349 . S
C4146 H4140 0.950 . S
C4146 C4147 1.327 . S
C4147 H4141 0.950 . S
C4147 C4146 1.327 . S
C4147 C4151 1.429 . S
C4148 C4131 1.574 . S
C4148 H4142 0.949 . S
C4148 C4152 1.368 . S
C4149 C4130 1.429 . S
C4149 C4143 1.429 . S
C4149 C4150 1.523 . S
C4150 C4131 1.368 . S
C4150 C4144 1.368 . S
C4150 C4149 1.523 . S
C4151 C4135 1.429 . S
C4151 C4147 1.429 . S
C4151 C4152 1.523 . S
C4152 C4136 1.368 . S
C4152 C4148 1.368 . S
C4152 C4151 1.523 . S
H4153 C4128 0.950 . S
H4154 C4130 0.950 . S
H4155 C4131 0.949 . S
H4156 C4133 0.950 . S
H4157 C4135 0.950 . S
C4158 C4159 1.349 . S
C4158 C4160 1.327 . S
C4158 H4183 0.950 . S
C4159 C4158 1.349 . S
C4159 C4175 1.349 . S
C4160 C4158 1.327 . S
C4160 C4179 1.429 . S
C4160 H4184 0.950 . S
C4161 C4178 1.574 . S
C4161 C4180 1.368 . S
C4161 H4185 0.949 . S
H4162 C4166 0.949 . S
C4163 C4164 1.349 . S
C4163 C4165 1.327 . S
C4163 H4186 0.950 . S
C4164 C4163 1.349 . S
C4164 C4176 1.349 . S
C4165 C4163 1.327 . S
C4165 C4181 1.429 . S
C4165 H4187 0.950 . S
C4166 H4162 0.949 . S
C4166 C4174 1.574 . S
C4166 C4182 1.368 . S
H4167 C4175 0.950 . S
H4168 C4173 0.950 . S
H4169 C4174 0.949 . S
H4170 C4176 0.950 . S
H4171 C4177 0.950 . S
H4172 C4178 0.949 . S
C4173 H4168 0.950 . S
C4173 C4175 1.327 . S
C4173 C4179 1.429 . S
C4174 C4166 1.574 . S
C4174 H4169 0.949 . S
C4174 C4180 1.368 . S
C4175 C4159 1.349 . S
C4175 H4167 0.950 . S
C4175 C4173 1.327 . S
C4176 C4164 1.349 . S
C4176 H4170 0.950 . S
C4176 C4177 1.327 . S
C4177 H4171 0.950 . S
C4177 C4176 1.327 . S
C4177 C4181 1.429 . S
C4178 C4161 1.574 . S
C4178 H4172 0.949 . S
C4178 C4182 1.368 . S
C4179 C4160 1.429 . S
C4179 C4173 1.429 . S
C4179 C4180 1.523 . S
C4180 C4161 1.368 . S
C4180 C4174 1.368 . S
C4180 C4179 1.523 . S
C4181 C4165 1.429 . S
C4181 C4177 1.429 . S
C4181 C4182 1.523 . S
C4182 C4166 1.368 . S
C4182 C4178 1.368 . S
C4182 C4181 1.523 . S
H4183 C4158 0.950 . S
H4184 C4160 0.950 . S
H4185 C4161 0.949 . S
H4186 C4163 0.950 . S
H4187 C4165 0.950 . S
C4188 C4189 1.349 . S
C4188 C4190 1.327 . S
C4188 H4213 0.950 . S
C4189 C4188 1.349 . S
C4189 C4205 1.349 . S
C4190 C4188 1.327 . S
C4190 C4209 1.429 . S
C4190 H4214 0.950 . S
C4191 C4208 1.574 . S
C4191 C4210 1.368 . S
C4191 H4215 0.949 . S
H4192 C4196 0.949 . S
C4193 C4194 1.349 . S
C4193 C4195 1.327 . S
C4193 H4216 0.950 . S
C4194 C4193 1.349 . S
C4194 C4206 1.349 . S
C4195 C4193 1.327 . S
C4195 C4211 1.429 . S
C4195 H4217 0.950 . S
C4196 H4192 0.949 . S
C4196 C4204 1.574 . S
C4196 C4212 1.368 . S
H4197 C4205 0.950 . S
H4198 C4203 0.950 . S
H4199 C4204 0.949 . S
H4200 C4206 0.950 . S
H4201 C4207 0.950 . S
H4202 C4208 0.949 . S
C4203 H4198 0.950 . S
C4203 C4205 1.327 . S
C4203 C4209 1.429 . S
C4204 C4196 1.574 . S
C4204 H4199 0.949 . S
C4204 C4210 1.368 . S
C4205 C4189 1.349 . S
C4205 H4197 0.950 . S
C4205 C4203 1.327 . S
C4206 C4194 1.349 . S
C4206 H4200 0.950 . S
C4206 C4207 1.327 . S
C4207 H4201 0.950 . S
C4207 C4206 1.327 . S
C4207 C4211 1.429 . S
C4208 C4191 1.574 . S
C4208 H4202 0.949 . S
C4208 C4212 1.368 . S
C4209 C4190 1.429 . S
C4209 C4203 1.429 . S
C4209 C4210 1.523 . S
C4210 C4191 1.368 . S
C4210 C4204 1.368 . S
C4210 C4209 1.523 . S
C4211 C4195 1.429 . S
C4211 C4207 1.429 . S
C4211 C4212 1.523 . S
C4212 C4196 1.368 . S
C4212 C4208 1.368 . S
C4212 C4211 1.523 . S
H4213 C4188 0.950 . S
H4214 C4190 0.950 . S
H4215 C4191 0.949 . S
H4216 C4193 0.950 . S
H4217 C4195 0.950 . S
C4218 C4219 1.349 . S
C4218 C4220 1.327 . S
C4218 H4243 0.950 . S
C4219 C4218 1.349 . S
C4219 C4235 1.349 . S
C4220 C4218 1.327 . S
C4220 C4239 1.429 . S
C4220 H4244 0.950 . S
C4221 C4238 1.574 . S
C4221 C4240 1.368 . S
C4221 H4245 0.949 . S
H4222 C4226 0.949 . S
C4223 C4224 1.349 . S
C4223 C4225 1.327 . S
C4223 H4246 0.950 . S
C4224 C4223 1.349 . S
C4224 C4236 1.349 . S
C4225 C4223 1.327 . S
C4225 C4241 1.429 . S
C4225 H4247 0.950 . S
C4226 H4222 0.949 . S
C4226 C4234 1.574 . S
C4226 C4242 1.368 . S
H4227 C4235 0.950 . S
H4228 C4233 0.950 . S
H4229 C4234 0.949 . S
H4230 C4236 0.950 . S
H4231 C4237 0.950 . S
H4232 C4238 0.949 . S
C4233 H4228 0.950 . S
C4233 C4235 1.327 . S
C4233 C4239 1.429 . S
C4234 C4226 1.574 . S
C4234 H4229 0.949 . S
C4234 C4240 1.368 . S
C4235 C4219 1.349 . S
C4235 H4227 0.950 . S
C4235 C4233 1.327 . S
C4236 C4224 1.349 . S
C4236 H4230 0.950 . S
C4236 C4237 1.327 . S
C4237 H4231 0.950 . S
C4237 C4236 1.327 . S
C4237 C4241 1.429 . S
C4238 C4221 1.574 . S
C4238 H4232 0.949 . S
C4238 C4242 1.368 . S
C4239 C4220 1.429 . S
C4239 C4233 1.429 . S
C4239 C4240 1.523 . S
C4240 C4221 1.368 . S
C4240 C4234 1.368 . S
C4240 C4239 1.523 . S
C4241 C4225 1.429 . S
C4241 C4237 1.429 . S
C4241 C4242 1.523 . S
C4242 C4226 1.368 . S
C4242 C4238 1.368 . S
C4242 C4241 1.523 . S
H4243 C4218 0.950 . S
H4244 C4220 0.950 . S
H4245 C4221 0.949 . S
H4246 C4223 0.950 . S
H4247 C4225 0.950 . S
C4248 C4249 1.349 . S
C4248 C4250 1.327 . S
C4248 H4273 0.950 . S
C4249 C4248 1.349 . S
C4249 C4265 1.349 . S
C4250 C4248 1.327 . S
C4250 C4269 1.429 . S
C4250 H4274 0.950 . S
C4251 C4268 1.574 . S
C4251 C4270 1.368 . S
C4251 H4275 0.949 . S
H4252 C4256 0.949 . S
C4253 C4254 1.349 . S
C4253 C4255 1.327 . S
C4253 H4276 0.950 . S
C4254 C4253 1.349 . S
C4254 C4266 1.349 . S
C4255 C4253 1.327 . S
C4255 C4271 1.429 . S
C4255 H4277 0.950 . S
C4256 H4252 0.949 . S
C4256 C4264 1.574 . S
C4256 C4272 1.368 . S
H4257 C4265 0.950 . S
H4258 C4263 0.950 . S
H4259 C4264 0.949 . S
H4260 C4266 0.950 . S
H4261 C4267 0.950 . S
H4262 C4268 0.949 . S
C4263 H4258 0.950 . S
C4263 C4265 1.327 . S
C4263 C4269 1.429 . S
C4264 C4256 1.574 . S
C4264 H4259 0.949 . S
C4264 C4270 1.368 . S
C4265 C4249 1.349 . S
C4265 H4257 0.950 . S
C4265 C4263 1.327 . S
C4266 C4254 1.349 . S
C4266 H4260 0.950 . S
C4266 C4267 1.327 . S
C4267 H4261 0.950 . S
C4267 C4266 1.327 . S
C4267 C4271 1.429 . S
C4268 C4251 1.574 . S
C4268 H4262 0.949 . S
C4268 C4272 1.368 . S
C4269 C4250 1.429 . S
C4269 C4263 1.429 . S
C4269 C4270 1.523 . S
C4270 C4251 1.368 . S
C4270 C4264 1.368 . S
C4270 C4269 1.523 . S
C4271 C4255 1.429 . S
C4271 C4267 1.429 . S
C4271 C4272 1.523 . S
C4272 C4256 1.368 . S
C4272 C4268 1.368 . S
C4272 C4271 1.523 . S
H4273 C4248 0.950 . S
H4274 C4250 0.950 . S
H4275 C4251 0.949 . S
H4276 C4253 0.950 . S
H4277 C4255 0.950 . S
C4278 C4279 1.349 . S
C4278 C4280 1.327 . S
C4278 H4303 0.950 . S
C4279 C4278 1.349 . S
C4279 C4295 1.349 . S
C4280 C4278 1.327 . S
C4280 C4299 1.429 . S
C4280 H4304 0.950 . S
C4281 C4298 1.574 . S
C4281 C4300 1.368 . S
C4281 H4305 0.949 . S
H4282 C4286 0.949 . S
C4283 C4284 1.349 . S
C4283 C4285 1.327 . S
C4283 H4306 0.950 . S
C4284 C4283 1.349 . S
C4284 C4296 1.349 . S
C4285 C4283 1.327 . S
C4285 C4301 1.429 . S
C4285 H4307 0.950 . S
C4286 H4282 0.949 . S
C4286 C4294 1.574 . S
C4286 C4302 1.368 . S
H4287 C4295 0.950 . S
H4288 C4293 0.950 . S
H4289 C4294 0.949 . S
H4290 C4296 0.950 . S
H4291 C4297 0.950 . S
H4292 C4298 0.949 . S
C4293 H4288 0.950 . S
C4293 C4295 1.327 . S
C4293 C4299 1.429 . S
C4294 C4286 1.574 . S
C4294 H4289 0.949 . S
C4294 C4300 1.368 . S
C4295 C4279 1.349 . S
C4295 H4287 0.950 . S
C4295 C4293 1.327 . S
C4296 C4284 1.349 . S
C4296 H4290 0.950 . S
C4296 C4297 1.327 . S
C4297 H4291 0.950 . S
C4297 C4296 1.327 . S
C4297 C4301 1.429 . S
C4298 C4281 1.574 . S
C4298 H4292 0.949 . S
C4298 C4302 1.368 . S
C4299 C4280 1.429 . S
C4299 C4293 1.429 . S
C4299 C4300 1.523 . S
C4300 C4281 1.368 . S
C4300 C4294 1.368 . S
C4300 C4299 1.523 . S
C4301 C4285 1.429 . S
C4301 C4297 1.429 . S
C4301 C4302 1.523 . S
C4302 C4286 1.368 . S
C4302 C4298 1.368 . S
C4302 C4301 1.523 . S
H4303 C4278 0.950 . S
H4304 C4280 0.950 . S
H4305 C4281 0.949 . S
H4306 C4283 0.950 . S
H4307 C4285 0.950 . S
C4308 C4309 1.349 . S
C4308 C4310 1.327 . S
C4308 H4333 0.950 . S
C4309 C4308 1.349 . S
C4309 C4325 1.349 . S
C4310 C4308 1.327 . S
C4310 C4329 1.429 . S
C4310 H4334 0.950 . S
C4311 C4328 1.574 . S
C4311 C4330 1.368 . S
C4311 H4335 0.949 . S
H4312 C4316 0.949 . S
C4313 C4314 1.349 . S
C4313 C4315 1.327 . S
C4313 H4336 0.950 . S
C4314 C4313 1.349 . S
C4314 C4326 1.349 . S
C4315 C4313 1.327 . S
C4315 C4331 1.429 . S
C4315 H4337 0.950 . S
C4316 H4312 0.949 . S
C4316 C4324 1.574 . S
C4316 C4332 1.368 . S
H4317 C4325 0.950 . S
H4318 C4323 0.950 . S
H4319 C4324 0.949 . S
H4320 C4326 0.950 . S
H4321 C4327 0.950 . S
H4322 C4328 0.949 . S
C4323 H4318 0.950 . S
C4323 C4325 1.327 . S
C4323 C4329 1.429 . S
C4324 C4316 1.574 . S
C4324 H4319 0.949 . S
C4324 C4330 1.368 . S
C4325 C4309 1.349 . S
C4325 H4317 0.950 . S
C4325 C4323 1.327 . S
C4326 C4314 1.349 . S
C4326 H4320 0.950 . S
C4326 C4327 1.327 . S
C4327 H4321 0.950 . S
C4327 C4326 1.327 . S
C4327 C4331 1.429 . S
C4328 C4311 1.574 . S
C4328 H4322 0.949 . S
C4328 C4332 1.368 . S
C4329 C4310 1.429 . S
C4329 C4323 1.429 . S
C4329 C4330 1.523 . S
C4330 C4311 1.368 . S
C4330 C4324 1.368 . S
C4330 C4329 1.523 . S
C4331 C4315 1.429 . S
C4331 C4327 1.429 . S
C4331 C4332 1.523 . S
C4332 C4316 1.368 . S
C4332 C4328 1.368 . S
C4332 C4331 1.523 . S
H4333 C4308 0.950 . S
H4334 C4310 0.950 . S
H4335 C4311 0.949 . S
H4336 C4313 0.950 . S
H4337 C4315 0.950 . S
C4338 C4339 1.349 . S
C4338 C4340 1.327 . S
C4338 H4363 0.950 . S
C4339 C4338 1.349 . S
C4339 C4355 1.349 . S
C4340 C4338 1.327 . S
C4340 C4359 1.429 . S
C4340 H4364 0.950 . S
C4341 C4358 1.574 . S
C4341 C4360 1.368 . S
C4341 H4365 0.949 . S
H4342 C4346 0.949 . S
C4343 C4344 1.349 . S
C4343 C4345 1.327 . S
C4343 H4366 0.950 . S
C4344 C4343 1.349 . S
C4344 C4356 1.349 . S
C4345 C4343 1.327 . S
C4345 C4361 1.429 . S
C4345 H4367 0.950 . S
C4346 H4342 0.949 . S
C4346 C4354 1.574 . S
C4346 C4362 1.368 . S
H4347 C4355 0.950 . S
H4348 C4353 0.950 . S
H4349 C4354 0.949 . S
H4350 C4356 0.950 . S
H4351 C4357 0.950 . S
H4352 C4358 0.949 . S
C4353 H4348 0.950 . S
C4353 C4355 1.327 . S
C4353 C4359 1.429 . S
C4354 C4346 1.574 . S
C4354 H4349 0.949 . S
C4354 C4360 1.368 . S
C4355 C4339 1.349 . S
C4355 H4347 0.950 . S
C4355 C4353 1.327 . S
C4356 C4344 1.349 . S
C4356 H4350 0.950 . S
C4356 C4357 1.327 . S
C4357 H4351 0.950 . S
C4357 C4356 1.327 . S
C4357 C4361 1.429 . S
C4358 C4341 1.574 . S
C4358 H4352 0.949 . S
C4358 C4362 1.368 . S
C4359 C4340 1.429 . S
C4359 C4353 1.429 . S
C4359 C4360 1.523 . S
C4360 C4341 1.368 . S
C4360 C4354 1.368 . S
C4360 C4359 1.523 . S
C4361 C4345 1.429 . S
C4361 C4357 1.429 . S
C4361 C4362 1.523 . S
C4362 C4346 1.368 . S
C4362 C4358 1.368 . S
C4362 C4361 1.523 . S
H4363 C4338 0.950 . S
H4364 C4340 0.950 . S
H4365 C4341 0.949 . S
H4366 C4343 0.950 . S
H4367 C4345 0.950 . S
C4368 C4369 1.349 . S
C4368 C4370 1.327 . S
C4368 H4393 0.950 . S
C4369 C4368 1.349 . S
C4369 C4385 1.349 . S
C4370 C4368 1.327 . S
C4370 C4389 1.429 . S
C4370 H4394 0.950 . S
C4371 C4388 1.574 . S
C4371 C4390 1.368 . S
C4371 H4395 0.949 . S
H4372 C4376 0.949 . S
C4373 C4374 1.349 . S
C4373 C4375 1.327 . S
C4373 H4396 0.950 . S
C4374 C4373 1.349 . S
C4374 C4386 1.349 . S
C4375 C4373 1.327 . S
C4375 C4391 1.429 . S
C4375 H4397 0.950 . S
C4376 H4372 0.949 . S
C4376 C4384 1.574 . S
C4376 C4392 1.368 . S
H4377 C4385 0.950 . S
H4378 C4383 0.950 . S
H4379 C4384 0.949 . S
H4380 C4386 0.950 . S
H4381 C4387 0.950 . S
H4382 C4388 0.949 . S
C4383 H4378 0.950 . S
C4383 C4385 1.327 . S
C4383 C4389 1.429 . S
C4384 C4376 1.574 . S
C4384 H4379 0.949 . S
C4384 C4390 1.368 . S
C4385 C4369 1.349 . S
C4385 H4377 0.950 . S
C4385 C4383 1.327 . S
C4386 C4374 1.349 . S
C4386 H4380 0.950 . S
C4386 C4387 1.327 . S
C4387 H4381 0.950 . S
C4387 C4386 1.327 . S
C4387 C4391 1.429 . S
C4388 C4371 1.574 . S
C4388 H4382 0.949 . S
C4388 C4392 1.368 . S
C4389 C4370 1.429 . S
C4389 C4383 1.429 . S
C4389 C4390 1.523 . S
C4390 C4371 1.368 . S
C4390 C4384 1.368 . S
C4390 C4389 1.523 . S
C4391 C4375 1.429 . S
C4391 C4387 1.429 . S
C4391 C4392 1.523 . S
C4392 C4376 1.368 . S
C4392 C4388 1.368 . S
C4392 C4391 1.523 . S
H4393 C4368 0.950 . S
H4394 C4370 0.950 . S
H4395 C4371 0.949 . S
H4396 C4373 0.950 . S
H4397 C4375 0.950 . S
C4398 C4399 1.349 . S
C4398 C4400 1.327 . S
C4398 H4423 0.950 . S
C4399 C4398 1.349 . S
C4399 C4415 1.349 . S
C4400 C4398 1.327 . S
C4400 C4419 1.429 . S
C4400 H4424 0.950 . S
C4401 C4418 1.574 . S
C4401 C4420 1.368 . S
C4401 H4425 0.949 . S
H4402 C4406 0.949 . S
C4403 C4404 1.349 . S
C4403 C4405 1.327 . S
C4403 H4426 0.950 . S
C4404 C4403 1.349 . S
C4404 C4416 1.349 . S
C4405 C4403 1.327 . S
C4405 C4421 1.429 . S
C4405 H4427 0.950 . S
C4406 H4402 0.949 . S
C4406 C4414 1.574 . S
C4406 C4422 1.368 . S
H4407 C4415 0.950 . S
H4408 C4413 0.950 . S
H4409 C4414 0.949 . S
H4410 C4416 0.950 . S
H4411 C4417 0.950 . S
H4412 C4418 0.949 . S
C4413 H4408 0.950 . S
C4413 C4415 1.327 . S
C4413 C4419 1.429 . S
C4414 C4406 1.574 . S
C4414 H4409 0.949 . S
C4414 C4420 1.368 . S
C4415 C4399 1.349 . S
C4415 H4407 0.950 . S
C4415 C4413 1.327 . S
C4416 C4404 1.349 . S
C4416 H4410 0.950 . S
C4416 C4417 1.327 . S
C4417 H4411 0.950 . S
C4417 C4416 1.327 . S
C4417 C4421 1.429 . S
C4418 C4401 1.574 . S
C4418 H4412 0.949 . S
C4418 C4422 1.368 . S
C4419 C4400 1.429 . S
C4419 C4413 1.429 . S
C4419 C4420 1.523 . S
C4420 C4401 1.368 . S
C4420 C4414 1.368 . S
C4420 C4419 1.523 . S
C4421 C4405 1.429 . S
C4421 C4417 1.429 . S
C4421 C4422 1.523 . S
C4422 C4406 1.368 . S
C4422 C4418 1.368 . S
C4422 C4421 1.523 . S
H4423 C4398 0.950 . S
H4424 C4400 0.950 . S
H4425 C4401 0.949 . S
H4426 C4403 0.950 . S
H4427 C4405 0.950 . S
C4428 C4429 1.349 . S
C4428 C4430 1.327 . S
C4428 H4453 0.950 . S
C4429 C4428 1.349 . S
C4429 C4445 1.349 . S
C4430 C4428 1.327 . S
C4430 C4449 1.429 . S
C4430 H4454 0.950 . S
C4431 C4448 1.574 . S
C4431 C4450 1.368 . S
C4431 H4455 0.949 . S
H4432 C4436 0.949 . S
C4433 C4434 1.349 . S
C4433 C4435 1.327 . S
C4433 H4456 0.950 . S
C4434 C4433 1.349 . S
C4434 C4446 1.349 . S
C4435 C4433 1.327 . S
C4435 C4451 1.429 . S
C4435 H4457 0.950 . S
C4436 H4432 0.949 . S
C4436 C4444 1.574 . S
C4436 C4452 1.368 . S
H4437 C4445 0.950 . S
H4438 C4443 0.950 . S
H4439 C4444 0.949 . S
H4440 C4446 0.950 . S
H4441 C4447 0.950 . S
H4442 C4448 0.949 . S
C4443 H4438 0.950 . S
C4443 C4445 1.327 . S
C4443 C4449 1.429 . S
C4444 C4436 1.574 . S
C4444 H4439 0.949 . S
C4444 C4450 1.368 . S
C4445 C4429 1.349 . S
C4445 H4437 0.950 . S
C4445 C4443 1.327 . S
C4446 C4434 1.349 . S
C4446 H4440 0.950 . S
C4446 C4447 1.327 . S
C4447 H4441 0.950 . S
C4447 C4446 1.327 . S
C4447 C4451 1.429 . S
C4448 C4431 1.574 . S
C4448 H4442 0.949 . S
C4448 C4452 1.368 . S
C4449 C4430 1.429 . S
C4449 C4443 1.429 . S
C4449 C4450 1.523 . S
C4450 C4431 1.368 . S
C4450 C4444 1.368 . S
C4450 C4449 1.523 . S
C4451 C4435 1.429 . S
C4451 C4447 1.429 . S
C4451 C4452 1.523 . S
C4452 C4436 1.368 . S
C4452 C4448 1.368 . S
C4452 C4451 1.523 . S
H4453 C4428 0.950 . S
H4454 C4430 0.950 . S
H4455 C4431 0.949 . S
H4456 C4433 0.950 . S
H4457 C4435 0.950 . S
C4458 C4459 1.349 . S
C4458 C4460 1.327 . S
C4458 H4483 0.950 . S
C4459 C4458 1.349 . S
C4459 C4475 1.349 . S
C4460 C4458 1.327 . S
C4460 C4479 1.429 . S
C4460 H4484 0.950 . S
C4461 C4478 1.574 . S
C4461 C4480 1.368 . S
C4461 H4485 0.949 . S
H4462 C4466 0.949 . S
C4463 C4464 1.349 . S
C4463 C4465 1.327 . S
C4463 H4486 0.950 . S
C4464 C4463 1.349 . S
C4464 C4476 1.349 . S
C4465 C4463 1.327 . S
C4465 C4481 1.429 . S
C4465 H4487 0.950 . S
C4466 H4462 0.949 . S
C4466 C4474 1.574 . S
C4466 C4482 1.368 . S
H4467 C4475 0.950 . S
H4468 C4473 0.950 . S
H4469 C4474 0.949 . S
H4470 C4476 0.950 . S
H4471 C4477 0.950 . S
H4472 C4478 0.949 . S
C4473 H4468 0.950 . S
C4473 C4475 1.327 . S
C4473 C4479 1.429 . S
C4474 C4466 1.574 . S
C4474 H4469 0.949 . S
C4474 C4480 1.368 . S
C4475 C4459 1.349 . S
C4475 H4467 0.950 . S
C4475 C4473 1.327 . S
C4476 C4464 1.349 . S
C4476 H4470 0.950 . S
C4476 C4477 1.327 . S
C4477 H4471 0.950 . S
C4477 C4476 1.327 . S
C4477 C4481 1.429 . S
C4478 C4461 1.574 . S
C4478 H4472 0.949 . S
C4478 C4482 1.368 . S
C4479 C4460 1.429 . S
C4479 C4473 1.429 . S
C4479 C4480 1.523 . S
C4480 C4461 1.368 . S
C4480 C4474 1.368 . S
C4480 C4479 1.523 . S
C4481 C4465 1.429 . S
C4481 C4477 1.429 . S
C4481 C4482 1.523 . S
C4482 C4466 1.368 . S
C4482 C4478 1.368 . S
C4482 C4481 1.523 . S
H4483 C4458 0.950 . S
H4484 C4460 0.950 . S
H4485 C4461 0.949 . S
H4486 C4463 0.950 . S
H4487 C4465 0.950 . S
C4488 C4489 1.349 . S
C4488 C4490 1.327 . S
C4488 H4513 0.950 . S
C4489 C4488 1.349 . S
C4489 C4505 1.349 . S
C4490 C4488 1.327 . S
C4490 C4509 1.429 . S
C4490 H4514 0.950 . S
C4491 C4508 1.574 . S
C4491 C4510 1.368 . S
C4491 H4515 0.949 . S
H4492 C4496 0.949 . S
C4493 C4494 1.349 . S
C4493 C4495 1.327 . S
C4493 H4516 0.950 . S
C4494 C4493 1.349 . S
C4494 C4506 1.349 . S
C4495 C4493 1.327 . S
C4495 C4511 1.429 . S
C4495 H4517 0.950 . S
C4496 H4492 0.949 . S
C4496 C4504 1.574 . S
C4496 C4512 1.368 . S
H4497 C4505 0.950 . S
H4498 C4503 0.950 . S
H4499 C4504 0.949 . S
H4500 C4506 0.950 . S
H4501 C4507 0.950 . S
H4502 C4508 0.949 . S
C4503 H4498 0.950 . S
C4503 C4505 1.327 . S
C4503 C4509 1.429 . S
C4504 C4496 1.574 . S
C4504 H4499 0.949 . S
C4504 C4510 1.368 . S
C4505 C4489 1.349 . S
C4505 H4497 0.950 . S
C4505 C4503 1.327 . S
C4506 C4494 1.349 . S
C4506 H4500 0.950 . S
C4506 C4507 1.327 . S
C4507 H4501 0.950 . S
C4507 C4506 1.327 . S
C4507 C4511 1.429 . S
C4508 C4491 1.574 . S
C4508 H4502 0.949 . S
C4508 C4512 1.368 . S
C4509 C4490 1.429 . S
C4509 C4503 1.429 . S
C4509 C4510 1.523 . S
C4510 C4491 1.368 . S
C4510 C4504 1.368 . S
C4510 C4509 1.523 . S
C4511 C4495 1.429 . S
C4511 C4507 1.429 . S
C4511 C4512 1.523 . S
C4512 C4496 1.368 . S
C4512 C4508 1.368 . S
C4512 C4511 1.523 . S
H4513 C4488 0.950 . S
H4514 C4490 0.950 . S
H4515 C4491 0.949 . S
H4516 C4493 0.950 . S
H4517 C4495 0.950 . S
C4518 C4519 1.349 . S
C4518 C4520 1.327 . S
C4518 H4543 0.950 . S
C4519 C4518 1.349 . S
C4519 C4535 1.349 . S
C4520 C4518 1.327 . S
C4520 C4539 1.429 . S
C4520 H4544 0.950 . S
C4521 C4538 1.574 . S
C4521 C4540 1.368 . S
C4521 H4545 0.949 . S
H4522 C4526 0.949 . S
C4523 C4524 1.349 . S
C4523 C4525 1.327 . S
C4523 H4546 0.950 . S
C4524 C4523 1.349 . S
C4524 C4536 1.349 . S
C4525 C4523 1.327 . S
C4525 C4541 1.429 . S
C4525 H4547 0.950 . S
C4526 H4522 0.949 . S
C4526 C4534 1.574 . S
C4526 C4542 1.368 . S
H4527 C4535 0.950 . S
H4528 C4533 0.950 . S
H4529 C4534 0.949 . S
H4530 C4536 0.950 . S
H4531 C4537 0.950 . S
H4532 C4538 0.949 . S
C4533 H4528 0.950 . S
C4533 C4535 1.327 . S
C4533 C4539 1.429 . S
C4534 C4526 1.574 . S
C4534 H4529 0.949 . S
C4534 C4540 1.368 . S
C4535 C4519 1.349 . S
C4535 H4527 0.950 . S
C4535 C4533 1.327 . S
C4536 C4524 1.349 . S
C4536 H4530 0.950 . S
C4536 C4537 1.327 . S
C4537 H4531 0.950 . S
C4537 C4536 1.327 . S
C4537 C4541 1.429 . S
C4538 C4521 1.574 . S
C4538 H4532 0.949 . S
C4538 C4542 1.368 . S
C4539 C4520 1.429 . S
C4539 C4533 1.429 . S
C4539 C4540 1.523 . S
C4540 C4521 1.368 . S
C4540 C4534 1.368 . S
C4540 C4539 1.523 . S
C4541 C4525 1.429 . S
C4541 C4537 1.429 . S
C4541 C4542 1.523 . S
C4542 C4526 1.368 . S
C4542 C4538 1.368 . S
C4542 C4541 1.523 . S
H4543 C4518 0.950 . S
H4544 C4520 0.950 . S
H4545 C4521 0.949 . S
H4546 C4523 0.950 . S
H4547 C4525 0.950 . S
C4548 C4549 1.349 . S
C4548 C4550 1.327 . S
C4548 H4573 0.950 . S
C4549 C4548 1.349 . S
C4549 C4565 1.349 . S
C4550 C4548 1.327 . S
C4550 C4569 1.429 . S
C4550 H4574 0.950 . S
C4551 C4568 1.574 . S
C4551 C4570 1.368 . S
C4551 H4575 0.949 . S
H4552 C4556 0.949 . S
C4553 C4554 1.349 . S
C4553 C4555 1.327 . S
C4553 H4576 0.950 . S
C4554 C4553 1.349 . S
C4554 C4566 1.349 . S
C4555 C4553 1.327 . S
C4555 C4571 1.429 . S
C4555 H4577 0.950 . S
C4556 H4552 0.949 . S
C4556 C4564 1.574 . S
C4556 C4572 1.368 . S
H4557 C4565 0.950 . S
H4558 C4563 0.950 . S
H4559 C4564 0.949 . S
H4560 C4566 0.950 . S
H4561 C4567 0.950 . S
H4562 C4568 0.949 . S
C4563 H4558 0.950 . S
C4563 C4565 1.327 . S
C4563 C4569 1.429 . S
C4564 C4556 1.574 . S
C4564 H4559 0.949 . S
C4564 C4570 1.368 . S
C4565 C4549 1.349 . S
C4565 H4557 0.950 . S
C4565 C4563 1.327 . S
C4566 C4554 1.349 . S
C4566 H4560 0.950 . S
C4566 C4567 1.327 . S
C4567 H4561 0.950 . S
C4567 C4566 1.327 . S
C4567 C4571 1.429 . S
C4568 C4551 1.574 . S
C4568 H4562 0.949 . S
C4568 C4572 1.368 . S
C4569 C4550 1.429 . S
C4569 C4563 1.429 . S
C4569 C4570 1.523 . S
C4570 C4551 1.368 . S
C4570 C4564 1.368 . S
C4570 C4569 1.523 . S
C4571 C4555 1.429 . S
C4571 C4567 1.429 . S
C4571 C4572 1.523 . S
C4572 C4556 1.368 . S
C4572 C4568 1.368 . S
C4572 C4571 1.523 . S
H4573 C4548 0.950 . S
H4574 C4550 0.950 . S
H4575 C4551 0.949 . S
H4576 C4553 0.950 . S
H4577 C4555 0.950 . S
C4578 C4579 1.349 . S
C4578 C4580 1.327 . S
C4578 H4603 0.950 . S
C4579 C4578 1.349 . S
C4579 C4595 1.349 . S
C4580 C4578 1.327 . S
C4580 C4599 1.429 . S
C4580 H4604 0.950 . S
C4581 C4598 1.574 . S
C4581 C4600 1.368 . S
C4581 H4605 0.949 . S
H4582 C4586 0.949 . S
C4583 C4584 1.349 . S
C4583 C4585 1.327 . S
C4583 H4606 0.950 . S
C4584 C4583 1.349 . S
C4584 C4596 1.349 . S
C4585 C4583 1.327 . S
C4585 C4601 1.429 . S
C4585 H4607 0.950 . S
C4586 H4582 0.949 . S
C4586 C4594 1.574 . S
C4586 C4602 1.368 . S
H4587 C4595 0.950 . S
H4588 C4593 0.950 . S
H4589 C4594 0.949 . S
H4590 C4596 0.950 . S
H4591 C4597 0.950 . S
H4592 C4598 0.949 . S
C4593 H4588 0.950 . S
C4593 C4595 1.327 . S
C4593 C4599 1.429 . S
C4594 C4586 1.574 . S
C4594 H4589 0.949 . S
C4594 C4600 1.368 . S
C4595 C4579 1.349 . S
C4595 H4587 0.950 . S
C4595 C4593 1.327 . S
C4596 C4584 1.349 . S
C4596 H4590 0.950 . S
C4596 C4597 1.327 . S
C4597 H4591 0.950 . S
C4597 C4596 1.327 . S
C4597 C4601 1.429 . S
C4598 C4581 1.574 . S
C4598 H4592 0.949 . S
C4598 C4602 1.368 . S
C4599 C4580 1.429 . S
C4599 C4593 1.429 . S
C4599 C4600 1.523 . S
C4600 C4581 1.368 . S
C4600 C4594 1.368 . S
C4600 C4599 1.523 . S
C4601 C4585 1.429 . S
C4601 C4597 1.429 . S
C4601 C4602 1.523 . S
C4602 C4586 1.368 . S
C4602 C4598 1.368 . S
C4602 C4601 1.523 . S
H4603 C4578 0.950 . S
H4604 C4580 0.950 . S
H4605 C4581 0.949 . S
H4606 C4583 0.950 . S
H4607 C4585 0.950 . S
C4608 C4609 1.349 . S
C4608 C4610 1.327 . S
C4608 H4633 0.950 . S
C4609 C4608 1.349 . S
C4609 C4625 1.349 . S
C4610 C4608 1.327 . S
C4610 C4629 1.429 . S
C4610 H4634 0.950 . S
C4611 C4628 1.574 . S
C4611 C4630 1.368 . S
C4611 H4635 0.949 . S
H4612 C4616 0.949 . S
C4613 C4614 1.349 . S
C4613 C4615 1.327 . S
C4613 H4636 0.950 . S
C4614 C4613 1.349 . S
C4614 C4626 1.349 . S
C4615 C4613 1.327 . S
C4615 C4631 1.429 . S
C4615 H4637 0.950 . S
C4616 H4612 0.949 . S
C4616 C4624 1.574 . S
C4616 C4632 1.368 . S
H4617 C4625 0.950 . S
H4618 C4623 0.950 . S
H4619 C4624 0.949 . S
H4620 C4626 0.950 . S
H4621 C4627 0.950 . S
H4622 C4628 0.949 . S
C4623 H4618 0.950 . S
C4623 C4625 1.327 . S
C4623 C4629 1.429 . S
C4624 C4616 1.574 . S
C4624 H4619 0.949 . S
C4624 C4630 1.368 . S
C4625 C4609 1.349 . S
C4625 H4617 0.950 . S
C4625 C4623 1.327 . S
C4626 C4614 1.349 . S
C4626 H4620 0.950 . S
C4626 C4627 1.327 . S
C4627 H4621 0.950 . S
C4627 C4626 1.327 . S
C4627 C4631 1.429 . S
C4628 C4611 1.574 . S
C4628 H4622 0.949 . S
C4628 C4632 1.368 . S
C4629 C4610 1.429 . S
C4629 C4623 1.429 . S
C4629 C4630 1.523 . S
C4630 C4611 1.368 . S
C4630 C4624 1.368 . S
C4630 C4629 1.523 . S
C4631 C4615 1.429 . S
C4631 C4627 1.429 . S
C4631 C4632 1.523 . S
C4632 C4616 1.368 . S
C4632 C4628 1.368 . S
C4632 C4631 1.523 . S
H4633 C4608 0.950 . S
H4634 C4610 0.950 . S
H4635 C4611 0.949 . S
H4636 C4613 0.950 . S
H4637 C4615 0.950 . S
C4638 C4639 1.349 . S
C4638 C4640 1.327 . S
C4638 H4663 0.950 . S
C4639 C4638 1.349 . S
C4639 C4655 1.349 . S
C4640 C4638 1.327 . S
C4640 C4659 1.429 . S
C4640 H4664 0.950 . S
C4641 C4658 1.574 . S
C4641 C4660 1.368 . S
C4641 H4665 0.949 . S
H4642 C4646 0.949 . S
C4643 C4644 1.349 . S
C4643 C4645 1.327 . S
C4643 H4666 0.950 . S
C4644 C4643 1.349 . S
C4644 C4656 1.349 . S
C4645 C4643 1.327 . S
C4645 C4661 1.429 . S
C4645 H4667 0.950 . S
C4646 H4642 0.949 . S
C4646 C4654 1.574 . S
C4646 C4662 1.368 . S
H4647 C4655 0.950 . S
H4648 C4653 0.950 . S
H4649 C4654 0.949 . S
H4650 C4656 0.950 . S
H4651 C4657 0.950 . S
H4652 C4658 0.949 . S
C4653 H4648 0.950 . S
C4653 C4655 1.327 . S
C4653 C4659 1.429 . S
C4654 C4646 1.574 . S
C4654 H4649 0.949 . S
C4654 C4660 1.368 . S
C4655 C4639 1.349 . S
C4655 H4647 0.950 . S
C4655 C4653 1.327 . S
C4656 C4644 1.349 . S
C4656 H4650 0.950 . S
C4656 C4657 1.327 . S
C4657 H4651 0.950 . S
C4657 C4656 1.327 . S
C4657 C4661 1.429 . S
C4658 C4641 1.574 . S
C4658 H4652 0.949 . S
C4658 C4662 1.368 . S
C4659 C4640 1.429 . S
C4659 C4653 1.429 . S
C4659 C4660 1.523 . S
C4660 C4641 1.368 . S
C4660 C4654 1.368 . S
C4660 C4659 1.523 . S
C4661 C4645 1.429 . S
C4661 C4657 1.429 . S
C4661 C4662 1.523 . S
C4662 C4646 1.368 . S
C4662 C4658 1.368 . S
C4662 C4661 1.523 . S
H4663 C4638 0.950 . S
H4664 C4640 0.950 . S
H4665 C4641 0.949 . S
H4666 C4643 0.950 . S
H4667 C4645 0.950 . S
C4668 C4669 1.349 . S
C4668 C4670 1.327 . S
C4668 H4693 0.950 . S
C4669 C4668 1.349 . S
C4669 C4685 1.349 . S
C4670 C4668 1.327 . S
C4670 C4689 1.429 . S
C4670 H4694 0.950 . S
C4671 C4688 1.574 . S
C4671 C4690 1.368 . S
C4671 H4695 0.949 . S
H4672 C4676 0.949 . S
C4673 C4674 1.349 . S
C4673 C4675 1.327 . S
C4673 H4696 0.950 . S
C4674 C4673 1.349 . S
C4674 C4686 1.349 . S
C4675 C4673 1.327 . S
C4675 C4691 1.429 . S
C4675 H4697 0.950 . S
C4676 H4672 0.949 . S
C4676 C4684 1.574 . S
C4676 C4692 1.368 . S
H4677 C4685 0.950 . S
H4678 C4683 0.950 . S
H4679 C4684 0.949 . S
H4680 C4686 0.950 . S
H4681 C4687 0.950 . S
H4682 C4688 0.949 . S
C4683 H4678 0.950 . S
C4683 C4685 1.327 . S
C4683 C4689 1.429 . S
C4684 C4676 1.574 . S
C4684 H4679 0.949 . S
C4684 C4690 1.368 . S
C4685 C4669 1.349 . S
C4685 H4677 0.950 . S
C4685 C4683 1.327 . S
C4686 C4674 1.349 . S
C4686 H4680 0.950 . S
C4686 C4687 1.327 . S
C4687 H4681 0.950 . S
C4687 C4686 1.327 . S
C4687 C4691 1.429 . S
C4688 C4671 1.574 . S
C4688 H4682 0.949 . S
C4688 C4692 1.368 . S
C4689 C4670 1.429 . S
C4689 C4683 1.429 . S
C4689 C4690 1.523 . S
C4690 C4671 1.368 . S
C4690 C4684 1.368 . S
C4690 C4689 1.523 . S
C4691 C4675 1.429 . S
C4691 C4687 1.429 . S
C4691 C4692 1.523 . S
C4692 C4676 1.368 . S
C4692 C4688 1.368 . S
C4692 C4691 1.523 . S
H4693 C4668 0.950 . S
H4694 C4670 0.950 . S
H4695 C4671 0.949 . S
H4696 C4673 0.950 . S
H4697 C4675 0.950 . S
C4698 C4699 1.349 . S
C4698 C4700 1.327 . S
C4698 H4723 0.950 . S
C4699 C4698 1.349 . S
C4699 C4715 1.349 . S
C4700 C4698 1.327 . S
C4700 C4719 1.429 . S
C4700 H4724 0.950 . S
C4701 C4718 1.574 . S
C4701 C4720 1.368 . S
C4701 H4725 0.949 . S
H4702 C4706 0.949 . S
C4703 C4704 1.349 . S
C4703 C4705 1.327 . S
C4703 H4726 0.950 . S
C4704 C4703 1.349 . S
C4704 C4716 1.349 . S
C4705 C4703 1.327 . S
C4705 C4721 1.429 . S
C4705 H4727 0.950 . S
C4706 H4702 0.949 . S
C4706 C4714 1.574 . S
C4706 C4722 1.368 . S
H4707 C4715 0.950 . S
H4708 C4713 0.950 . S
H4709 C4714 0.949 . S
H4710 C4716 0.950 . S
H4711 C4717 0.950 . S
H4712 C4718 0.949 . S
C4713 H4708 0.950 . S
C4713 C4715 1.327 . S
C4713 C4719 1.429 . S
C4714 C4706 1.574 . S
C4714 H4709 0.949 . S
C4714 C4720 1.368 . S
C4715 C4699 1.349 . S
C4715 H4707 0.950 . S
C4715 C4713 1.327 . S
C4716 C4704 1.349 . S
C4716 H4710 0.950 . S
C4716 C4717 1.327 . S
C4717 H4711 0.950 . S
C4717 C4716 1.327 . S
C4717 C4721 1.429 . S
C4718 C4701 1.574 . S
C4718 H4712 0.949 . S
C4718 C4722 1.368 . S
C4719 C4700 1.429 . S
C4719 C4713 1.429 . S
C4719 C4720 1.523 . S
C4720 C4701 1.368 . S
C4720 C4714 1.368 . S
C4720 C4719 1.523 . S
C4721 C4705 1.429 . S
C4721 C4717 1.429 . S
C4721 C4722 1.523 . S
C4722 C4706 1.368 . S
C4722 C4718 1.368 . S
C4722 C4721 1.523 . S
H4723 C4698 0.950 . S
H4724 C4700 0.950 . S
H4725 C4701 0.949 . S
H4726 C4703 0.950 . S
H4727 C4705 0.950 . S
C4728 C4729 1.349 . S
C4728 C4730 1.327 . S
C4728 H4753 0.950 . S
C4729 C4728 1.349 . S
C4729 C4745 1.349 . S
C4730 C4728 1.327 . S
C4730 C4749 1.429 . S
C4730 H4754 0.950 . S
C4731 C4748 1.574 . S
C4731 C4750 1.368 . S
C4731 H4755 0.949 . S
H4732 C4736 0.949 . S
C4733 C4734 1.349 . S
C4733 C4735 1.327 . S
C4733 H4756 0.950 . S
C4734 C4733 1.349 . S
C4734 C4746 1.349 . S
C4735 C4733 1.327 . S
C4735 C4751 1.429 . S
C4735 H4757 0.950 . S
C4736 H4732 0.949 . S
C4736 C4744 1.574 . S
C4736 C4752 1.368 . S
H4737 C4745 0.950 . S
H4738 C4743 0.950 . S
H4739 C4744 0.949 . S
H4740 C4746 0.950 . S
H4741 C4747 0.950 . S
H4742 C4748 0.949 . S
C4743 H4738 0.950 . S
C4743 C4745 1.327 . S
C4743 C4749 1.429 . S
C4744 C4736 1.574 . S
C4744 H4739 0.949 . S
C4744 C4750 1.368 . S
C4745 C4729 1.349 . S
C4745 H4737 0.950 . S
C4745 C4743 1.327 . S
C4746 C4734 1.349 . S
C4746 H4740 0.950 . S
C4746 C4747 1.327 . S
C4747 H4741 0.950 . S
C4747 C4746 1.327 . S
C4747 C4751 1.429 . S
C4748 C4731 1.574 . S
C4748 H4742 0.949 . S
C4748 C4752 1.368 . S
C4749 C4730 1.429 . S
C4749 C4743 1.429 . S
C4749 C4750 1.523 . S
C4750 C4731 1.368 . S
C4750 C4744 1.368 . S
C4750 C4749 1.523 . S
C4751 C4735 1.429 . S
C4751 C4747 1.429 . S
C4751 C4752 1.523 . S
C4752 C4736 1.368 . S
C4752 C4748 1.368 . S
C4752 C4751 1.523 . S
H4753 C4728 0.950 . S
H4754 C4730 0.950 . S
H4755 C4731 0.949 . S
H4756 C4733 0.950 . S
H4757 C4735 0.950 . S
C4758 C4759 1.349 . S
C4758 C4760 1.327 . S
C4758 H4783 0.950 . S
C4759 C4758 1.349 . S
C4759 C4775 1.349 . S
C4760 C4758 1.327 . S
C4760 C4779 1.429 . S
C4760 H4784 0.950 . S
C4761 C4778 1.574 . S
C4761 C4780 1.368 . S
C4761 H4785 0.949 . S
H4762 C4766 0.949 . S
C4763 C4764 1.349 . S
C4763 C4765 1.327 . S
C4763 H4786 0.950 . S
C4764 C4763 1.349 . S
C4764 C4776 1.349 . S
C4765 C4763 1.327 . S
C4765 C4781 1.429 . S
C4765 H4787 0.950 . S
C4766 H4762 0.949 . S
C4766 C4774 1.574 . S
C4766 C4782 1.368 . S
H4767 C4775 0.950 . S
H4768 C4773 0.950 . S
H4769 C4774 0.949 . S
H4770 C4776 0.950 . S
H4771 C4777 0.950 . S
H4772 C4778 0.949 . S
C4773 H4768 0.950 . S
C4773 C4775 1.327 . S
C4773 C4779 1.429 . S
C4774 C4766 1.574 . S
C4774 H4769 0.949 . S
C4774 C4780 1.368 . S
C4775 C4759 1.349 . S
C4775 H4767 0.950 . S
C4775 C4773 1.327 . S
C4776 C4764 1.349 . S
C4776 H4770 0.950 . S
C4776 C4777 1.327 . S
C4777 H4771 0.950 . S
C4777 C4776 1.327 . S
C4777 C4781 1.429 . S
C4778 C4761 1.574 . S
C4778 H4772 0.949 . S
C4778 C4782 1.368 . S
C4779 C4760 1.429 . S
C4779 C4773 1.429 . S
C4779 C4780 1.523 . S
C4780 C4761 1.368 . S
C4780 C4774 1.368 . S
C4780 C4779 1.523 . S
C4781 C4765 1.429 . S
C4781 C4777 1.429 . S
C4781 C4782 1.523 . S
C4782 C4766 1.368 . S
C4782 C4778 1.368 . S
C4782 C4781 1.523 . S
H4783 C4758 0.950 . S
H4784 C4760 0.950 . S
H4785 C4761 0.949 . S
H4786 C4763 0.950 . S
H4787 C4765 0.950 . S
C4788 C4789 1.349 . S
C4788 C4790 1.327 . S
C4788 H4813 0.950 . S
C4789 C4788 1.349 . S
C4789 C4805 1.349 . S
C4790 C4788 1.327 . S
C4790 C4809 1.429 . S
C4790 H4814 0.950 . S
C4791 C4808 1.574 . S
C4791 C4810 1.368 . S
C4791 H4815 0.949 . S
H4792 C4796 0.949 . S
C4793 C4794 1.349 . S
C4793 C4795 1.327 . S
C4793 H4816 0.950 . S
C4794 C4793 1.349 . S
C4794 C4806 1.349 . S
C4795 C4793 1.327 . S
C4795 C4811 1.429 . S
C4795 H4817 0.950 . S
C4796 H4792 0.949 . S
C4796 C4804 1.574 . S
C4796 C4812 1.368 . S
H4797 C4805 0.950 . S
H4798 C4803 0.950 . S
H4799 C4804 0.949 . S
H4800 C4806 0.950 . S
H4801 C4807 0.950 . S
H4802 C4808 0.949 . S
C4803 H4798 0.950 . S
C4803 C4805 1.327 . S
C4803 C4809 1.429 . S
C4804 C4796 1.574 . S
C4804 H4799 0.949 . S
C4804 C4810 1.368 . S
C4805 C4789 1.349 . S
C4805 H4797 0.950 . S
C4805 C4803 1.327 . S
C4806 C4794 1.349 . S
C4806 H4800 0.950 . S
C4806 C4807 1.327 . S
C4807 H4801 0.950 . S
C4807 C4806 1.327 . S
C4807 C4811 1.429 . S
C4808 C4791 1.574 . S
C4808 H4802 0.949 . S
C4808 C4812 1.368 . S
C4809 C4790 1.429 . S
C4809 C4803 1.429 . S
C4809 C4810 1.523 . S
C4810 C4791 1.368 . S
C4810 C4804 1.368 . S
C4810 C4809 1.523 . S
C4811 C4795 1.429 . S
C4811 C4807 1.429 . S
C4811 C4812 1.523 . S
C4812 C4796 1.368 . S
C4812 C4808 1.368 . S
C4812 C4811 1.523 . S
H4813 C4788 0.950 . S
H4814 C4790 0.950 . S
H4815 C4791 0.949 . S
H4816 C4793 0.950 . S
H4817 C4795 0.950 . S
C4818 C4819 1.349 . S
C4818 C4820 1.327 . S
C4818 H4843 0.950 . S
C4819 C4818 1.349 . S
C4819 C4835 1.349 . S
C4820 C4818 1.327 . S
C4820 C4839 1.429 . S
C4820 H4844 0.950 . S
C4821 C4838 1.574 . S
C4821 C4840 1.368 . S
C4821 H4845 0.949 . S
H4822 C4826 0.949 . S
C4823 C4824 1.349 . S
C4823 C4825 1.327 . S
C4823 H4846 0.950 . S
C4824 C4823 1.349 . S
C4824 C4836 1.349 . S
C4825 C4823 1.327 . S
C4825 C4841 1.429 . S
C4825 H4847 0.950 . S
C4826 H4822 0.949 . S
C4826 C4834 1.574 . S
C4826 C4842 1.368 . S
H4827 C4835 0.950 . S
H4828 C4833 0.950 . S
H4829 C4834 0.949 . S
H4830 C4836 0.950 . S
H4831 C4837 0.950 . S
H4832 C4838 0.949 . S
C4833 H4828 0.950 . S
C4833 C4835 1.327 . S
C4833 C4839 1.429 . S
C4834 C4826 1.574 . S
C4834 H4829 0.949 . S
C4834 C4840 1.368 . S
C4835 C4819 1.349 . S
C4835 H4827 0.950 . S
C4835 C4833 1.327 . S
C4836 C4824 1.349 . S
C4836 H4830 0.950 . S
C4836 C4837 1.327 . S
C4837 H4831 0.950 . S
C4837 C4836 1.327 . S
C4837 C4841 1.429 . S
C4838 C4821 1.574 . S
C4838 H4832 0.949 . S
C4838 C4842 1.368 . S
C4839 C4820 1.429 . S
C4839 C4833 1.429 . S
C4839 C4840 1.523 . S
C4840 C4821 1.368 . S
C4840 C4834 1.368 . S
C4840 C4839 1.523 . S
C4841 C4825 1.429 . S
C4841 C4837 1.429 . S
C4841 C4842 1.523 . S
C4842 C4826 1.368 . S
C4842 C4838 1.368 . S
C4842 C4841 1.523 . S
H4843 C4818 0.950 . S
H4844 C4820 0.950 . S
H4845 C4821 0.949 . S
H4846 C4823 0.950 . S
H4847 C4825 0.950 . S
C4848 C4849 1.349 . S
C4848 C4850 1.327 . S
C4848 H4873 0.950 1_554 S
C4849 C4848 1.349 . S
C4849 C4865 1.349 . S
C4850 C4848 1.327 . S
C4850 C4869 1.429 . S
C4850 H4874 0.950 . S
C4851 C4868 1.574 . S
C4851 C4870 1.368 . S
C4851 H4875 0.949 . S
H4852 C4856 0.949 . S
C4853 C4854 1.349 . S
C4853 C4855 1.327 . S
C4853 H4876 0.950 . S
C4854 C4853 1.349 . S
C4854 C4866 1.349 . S
C4855 C4853 1.327 . S
C4855 C4871 1.429 . S
C4855 H4877 0.950 . S
C4856 H4852 0.949 . S
C4856 C4864 1.574 . S
C4856 C4872 1.368 . S
H4857 C4865 0.950 . S
H4858 C4863 0.950 . S
H4859 C4864 0.949 . S
H4860 C4866 0.950 . S
H4861 C4867 0.950 . S
H4862 C4868 0.949 . S
C4863 H4858 0.950 . S
C4863 C4865 1.327 . S
C4863 C4869 1.429 . S
C4864 C4856 1.574 . S
C4864 H4859 0.949 . S
C4864 C4870 1.368 . S
C4865 C4849 1.349 . S
C4865 H4857 0.950 . S
C4865 C4863 1.327 . S
C4866 C4854 1.349 . S
C4866 H4860 0.950 . S
C4866 C4867 1.327 . S
C4867 H4861 0.950 . S
C4867 C4866 1.327 . S
C4867 C4871 1.429 . S
C4868 C4851 1.574 . S
C4868 H4862 0.949 . S
C4868 C4872 1.368 . S
C4869 C4850 1.429 . S
C4869 C4863 1.429 . S
C4869 C4870 1.523 . S
C4870 C4851 1.368 . S
C4870 C4864 1.368 . S
C4870 C4869 1.523 . S
C4871 C4855 1.429 . S
C4871 C4867 1.429 . S
C4871 C4872 1.523 . S
C4872 C4856 1.368 . S
C4872 C4868 1.368 . S
C4872 C4871 1.523 . S
H4873 C4848 0.950 1_556 S
H4874 C4850 0.950 . S
H4875 C4851 0.949 . S
H4876 C4853 0.950 . S
H4877 C4855 0.950 . S
C4878 C4879 1.349 . S
C4878 C4880 1.327 . S
C4878 H4903 0.950 . S
C4879 C4878 1.349 . S
C4879 C4895 1.349 . S
C4880 C4878 1.327 . S
C4880 C4899 1.429 . S
C4880 H4904 0.950 . S
C4881 C4898 1.574 . S
C4881 C4900 1.368 . S
C4881 H4905 0.949 . S
H4882 C4886 0.949 . S
C4883 C4884 1.349 . S
C4883 C4885 1.327 . S
C4883 H4906 0.950 . S
C4884 C4883 1.349 . S
C4884 C4896 1.349 . S
C4885 C4883 1.327 . S
C4885 C4901 1.429 . S
C4885 H4907 0.950 . S
C4886 H4882 0.949 . S
C4886 C4894 1.574 . S
C4886 C4902 1.368 . S
H4887 C4895 0.950 . S
H4888 C4893 0.950 . S
H4889 C4894 0.949 . S
H4890 C4896 0.950 . S
H4891 C4897 0.950 . S
H4892 C4898 0.949 . S
C4893 H4888 0.950 . S
C4893 C4895 1.327 . S
C4893 C4899 1.429 . S
C4894 C4886 1.574 . S
C4894 H4889 0.949 . S
C4894 C4900 1.368 . S
C4895 C4879 1.349 . S
C4895 H4887 0.950 . S
C4895 C4893 1.327 . S
C4896 C4884 1.349 . S
C4896 H4890 0.950 . S
C4896 C4897 1.327 . S
C4897 H4891 0.950 . S
C4897 C4896 1.327 . S
C4897 C4901 1.429 . S
C4898 C4881 1.574 . S
C4898 H4892 0.949 . S
C4898 C4902 1.368 . S
C4899 C4880 1.429 . S
C4899 C4893 1.429 . S
C4899 C4900 1.523 . S
C4900 C4881 1.368 . S
C4900 C4894 1.368 . S
C4900 C4899 1.523 . S
C4901 C4885 1.429 . S
C4901 C4897 1.429 . S
C4901 C4902 1.523 . S
C4902 C4886 1.368 . S
C4902 C4898 1.368 . S
C4902 C4901 1.523 . S
H4903 C4878 0.950 . S
H4904 C4880 0.950 . S
H4905 C4881 0.949 . S
H4906 C4883 0.950 . S
H4907 C4885 0.950 . S
C4908 C4909 1.349 . S
C4908 C4910 1.327 . S
C4908 H4933 0.950 . S
C4909 C4908 1.349 . S
C4909 C4925 1.349 . S
C4910 C4908 1.327 . S
C4910 C4929 1.429 . S
C4910 H4934 0.950 . S
C4911 C4928 1.574 . S
C4911 C4930 1.368 . S
C4911 H4935 0.949 . S
H4912 C4916 0.949 . S
C4913 C4914 1.349 . S
C4913 C4915 1.327 . S
C4913 H4936 0.950 . S
C4914 C4913 1.349 . S
C4914 C4926 1.349 . S
C4915 C4913 1.327 . S
C4915 C4931 1.429 . S
C4915 H4937 0.950 . S
C4916 H4912 0.949 . S
C4916 C4924 1.574 . S
C4916 C4932 1.368 . S
H4917 C4925 0.950 . S
H4918 C4923 0.950 . S
H4919 C4924 0.949 . S
H4920 C4926 0.950 . S
H4921 C4927 0.950 . S
H4922 C4928 0.949 . S
C4923 H4918 0.950 . S
C4923 C4925 1.327 . S
C4923 C4929 1.429 . S
C4924 C4916 1.574 . S
C4924 H4919 0.949 . S
C4924 C4930 1.368 . S
C4925 C4909 1.349 . S
C4925 H4917 0.950 . S
C4925 C4923 1.327 . S
C4926 C4914 1.349 . S
C4926 H4920 0.950 . S
C4926 C4927 1.327 . S
C4927 H4921 0.950 . S
C4927 C4926 1.327 . S
C4927 C4931 1.429 . S
C4928 C4911 1.574 . S
C4928 H4922 0.949 . S
C4928 C4932 1.368 . S
C4929 C4910 1.429 . S
C4929 C4923 1.429 . S
C4929 C4930 1.523 . S
C4930 C4911 1.368 . S
C4930 C4924 1.368 . S
C4930 C4929 1.523 . S
C4931 C4915 1.429 . S
C4931 C4927 1.429 . S
C4931 C4932 1.523 . S
C4932 C4916 1.368 . S
C4932 C4928 1.368 . S
C4932 C4931 1.523 . S
H4933 C4908 0.950 . S
H4934 C4910 0.950 . S
H4935 C4911 0.949 . S
H4936 C4913 0.950 . S
H4937 C4915 0.950 . S
C4938 C4939 1.349 . S
C4938 C4940 1.327 . S
C4938 H4963 0.950 . S
C4939 C4938 1.349 . S
C4939 C4955 1.349 . S
C4940 C4938 1.327 . S
C4940 C4959 1.429 . S
C4940 H4964 0.950 . S
C4941 C4958 1.574 . S
C4941 C4960 1.368 . S
C4941 H4965 0.949 . S
H4942 C4946 0.949 . S
C4943 C4944 1.349 . S
C4943 C4945 1.327 . S
C4943 H4966 0.950 . S
C4944 C4943 1.349 . S
C4944 C4956 1.349 . S
C4945 C4943 1.327 . S
C4945 C4961 1.429 . S
C4945 H4967 0.950 . S
C4946 H4942 0.949 . S
C4946 C4954 1.574 . S
C4946 C4962 1.368 . S
H4947 C4955 0.950 . S
H4948 C4953 0.950 . S
H4949 C4954 0.949 . S
H4950 C4956 0.950 . S
H4951 C4957 0.950 . S
H4952 C4958 0.949 . S
C4953 H4948 0.950 . S
C4953 C4955 1.327 . S
C4953 C4959 1.429 . S
C4954 C4946 1.574 . S
C4954 H4949 0.949 . S
C4954 C4960 1.368 . S
C4955 C4939 1.349 . S
C4955 H4947 0.950 . S
C4955 C4953 1.327 . S
C4956 C4944 1.349 . S
C4956 H4950 0.950 . S
C4956 C4957 1.327 . S
C4957 H4951 0.950 . S
C4957 C4956 1.327 . S
C4957 C4961 1.429 . S
C4958 C4941 1.574 . S
C4958 H4952 0.949 . S
C4958 C4962 1.368 . S
C4959 C4940 1.429 . S
C4959 C4953 1.429 . S
C4959 C4960 1.523 . S
C4960 C4941 1.368 . S
C4960 C4954 1.368 . S
C4960 C4959 1.523 . S
C4961 C4945 1.429 . S
C4961 C4957 1.429 . S
C4961 C4962 1.523 . S
C4962 C4946 1.368 . S
C4962 C4958 1.368 . S
C4962 C4961 1.523 . S
H4963 C4938 0.950 . S
H4964 C4940 0.950 . S
H4965 C4941 0.949 . S
H4966 C4943 0.950 . S
H4967 C4945 0.950 . S
C4968 C4969 1.349 . S
C4968 C4970 1.327 . S
C4968 H4993 0.950 . S
C4969 C4968 1.349 . S
C4969 C4985 1.349 . S
C4970 C4968 1.327 . S
C4970 C4989 1.429 . S
C4970 H4994 0.950 . S
C4971 C4988 1.574 . S
C4971 C4990 1.368 . S
C4971 H4995 0.949 . S
H4972 C4976 0.949 . S
C4973 C4974 1.349 . S
C4973 C4975 1.327 . S
C4973 H4996 0.950 . S
C4974 C4973 1.349 . S
C4974 C4986 1.349 . S
C4975 C4973 1.327 . S
C4975 C4991 1.429 . S
C4975 H4997 0.950 . S
C4976 H4972 0.949 . S
C4976 C4984 1.574 . S
C4976 C4992 1.368 . S
H4977 C4985 0.950 . S
H4978 C4983 0.950 . S
H4979 C4984 0.949 . S
H4980 C4986 0.950 . S
H4981 C4987 0.950 . S
H4982 C4988 0.949 . S
C4983 H4978 0.950 . S
C4983 C4985 1.327 . S
C4983 C4989 1.429 . S
C4984 C4976 1.574 . S
C4984 H4979 0.949 . S
C4984 C4990 1.368 . S
C4985 C4969 1.349 . S
C4985 H4977 0.950 . S
C4985 C4983 1.327 . S
C4986 C4974 1.349 . S
C4986 H4980 0.950 . S
C4986 C4987 1.327 . S
C4987 H4981 0.950 . S
C4987 C4986 1.327 . S
C4987 C4991 1.429 . S
C4988 C4971 1.574 . S
C4988 H4982 0.949 . S
C4988 C4992 1.368 . S
C4989 C4970 1.429 . S
C4989 C4983 1.429 . S
C4989 C4990 1.523 . S
C4990 C4971 1.368 . S
C4990 C4984 1.368 . S
C4990 C4989 1.523 . S
C4991 C4975 1.429 . S
C4991 C4987 1.429 . S
C4991 C4992 1.523 . S
C4992 C4976 1.368 . S
C4992 C4988 1.368 . S
C4992 C4991 1.523 . S
H4993 C4968 0.950 . S
H4994 C4970 0.950 . S
H4995 C4971 0.949 . S
H4996 C4973 0.950 . S
H4997 C4975 0.950 . S
C4998 C4999 1.349 . S
C4998 C5000 1.327 . S
C4998 H5023 0.950 . S
C4999 C4998 1.349 . S
C4999 C5015 1.349 . S
C5000 C4998 1.327 . S
C5000 C5019 1.429 . S
C5000 H5024 0.950 . S
C5001 C5018 1.574 . S
C5001 C5020 1.368 . S
C5001 H5025 0.949 . S
H5002 C5006 0.949 . S
C5003 C5004 1.349 . S
C5003 C5005 1.327 . S
C5003 H5026 0.950 . S
C5004 C5003 1.349 . S
C5004 C5016 1.349 . S
C5005 C5003 1.327 . S
C5005 C5021 1.429 . S
C5005 H5027 0.950 . S
C5006 H5002 0.949 . S
C5006 C5014 1.574 . S
C5006 C5022 1.368 . S
H5007 C5015 0.950 . S
H5008 C5013 0.950 . S
H5009 C5014 0.949 . S
H5010 C5016 0.950 . S
H5011 C5017 0.950 . S
H5012 C5018 0.949 . S
C5013 H5008 0.950 . S
C5013 C5015 1.327 . S
C5013 C5019 1.429 . S
C5014 C5006 1.574 . S
C5014 H5009 0.949 . S
C5014 C5020 1.368 . S
C5015 C4999 1.349 . S
C5015 H5007 0.950 . S
C5015 C5013 1.327 . S
C5016 C5004 1.349 . S
C5016 H5010 0.950 . S
C5016 C5017 1.327 . S
C5017 H5011 0.950 . S
C5017 C5016 1.327 . S
C5017 C5021 1.429 . S
C5018 C5001 1.574 . S
C5018 H5012 0.949 . S
C5018 C5022 1.368 . S
C5019 C5000 1.429 . S
C5019 C5013 1.429 . S
C5019 C5020 1.523 . S
C5020 C5001 1.368 . S
C5020 C5014 1.368 . S
C5020 C5019 1.523 . S
C5021 C5005 1.429 . S
C5021 C5017 1.429 . S
C5021 C5022 1.523 . S
C5022 C5006 1.368 . S
C5022 C5018 1.368 . S
C5022 C5021 1.523 . S
H5023 C4998 0.950 . S
H5024 C5000 0.950 . S
H5025 C5001 0.949 . S
H5026 C5003 0.950 . S
H5027 C5005 0.950 . S
C5028 C5029 1.349 . S
C5028 C5030 1.327 . S
C5028 H5053 0.950 . S
C5029 C5028 1.349 . S
C5029 C5045 1.349 . S
C5030 C5028 1.327 . S
C5030 C5049 1.429 . S
C5030 H5054 0.950 . S
C5031 C5048 1.574 . S
C5031 C5050 1.368 . S
C5031 H5055 0.949 . S
H5032 C5036 0.949 . S
C5033 C5034 1.349 . S
C5033 C5035 1.327 . S
C5033 H5056 0.950 . S
C5034 C5033 1.349 . S
C5034 C5046 1.349 . S
C5035 C5033 1.327 . S
C5035 C5051 1.429 . S
C5035 H5057 0.950 . S
C5036 H5032 0.949 . S
C5036 C5044 1.574 . S
C5036 C5052 1.368 . S
H5037 C5045 0.950 . S
H5038 C5043 0.950 . S
H5039 C5044 0.949 . S
H5040 C5046 0.950 . S
H5041 C5047 0.950 . S
H5042 C5048 0.949 . S
C5043 H5038 0.950 . S
C5043 C5045 1.327 . S
C5043 C5049 1.429 . S
C5044 C5036 1.574 . S
C5044 H5039 0.949 . S
C5044 C5050 1.368 . S
C5045 C5029 1.349 . S
C5045 H5037 0.950 . S
C5045 C5043 1.327 . S
C5046 C5034 1.349 . S
C5046 H5040 0.950 . S
C5046 C5047 1.327 . S
C5047 H5041 0.950 . S
C5047 C5046 1.327 . S
C5047 C5051 1.429 . S
C5048 C5031 1.574 . S
C5048 H5042 0.949 . S
C5048 C5052 1.368 . S
C5049 C5030 1.429 . S
C5049 C5043 1.429 . S
C5049 C5050 1.523 . S
C5050 C5031 1.368 . S
C5050 C5044 1.368 . S
C5050 C5049 1.523 . S
C5051 C5035 1.429 . S
C5051 C5047 1.429 . S
C5051 C5052 1.523 . S
C5052 C5036 1.368 . S
C5052 C5048 1.368 . S
C5052 C5051 1.523 . S
H5053 C5028 0.950 . S
H5054 C5030 0.950 . S
H5055 C5031 0.949 . S
H5056 C5033 0.950 . S
H5057 C5035 0.950 . S
C5058 C5059 1.349 . S
C5058 C5060 1.327 . S
C5058 H5083 0.950 . S
C5059 C5058 1.349 . S
C5059 C5075 1.349 . S
C5060 C5058 1.327 . S
C5060 C5079 1.429 . S
C5060 H5084 0.950 . S
C5061 C5078 1.574 . S
C5061 C5080 1.368 . S
C5061 H5085 0.949 . S
H5062 C5066 0.949 . S
C5063 C5064 1.349 . S
C5063 C5065 1.327 . S
C5063 H5086 0.950 . S
C5064 C5063 1.349 . S
C5064 C5076 1.349 . S
C5065 C5063 1.327 . S
C5065 C5081 1.429 . S
C5065 H5087 0.950 . S
C5066 H5062 0.949 . S
C5066 C5074 1.574 . S
C5066 C5082 1.368 . S
H5067 C5075 0.950 . S
H5068 C5073 0.950 . S
H5069 C5074 0.949 . S
H5070 C5076 0.950 . S
H5071 C5077 0.950 . S
H5072 C5078 0.949 . S
C5073 H5068 0.950 . S
C5073 C5075 1.327 . S
C5073 C5079 1.429 . S
C5074 C5066 1.574 . S
C5074 H5069 0.949 . S
C5074 C5080 1.368 . S
C5075 C5059 1.349 . S
C5075 H5067 0.950 . S
C5075 C5073 1.327 . S
C5076 C5064 1.349 . S
C5076 H5070 0.950 . S
C5076 C5077 1.327 . S
C5077 H5071 0.950 . S
C5077 C5076 1.327 . S
C5077 C5081 1.429 . S
C5078 C5061 1.574 . S
C5078 H5072 0.949 . S
C5078 C5082 1.368 . S
C5079 C5060 1.429 . S
C5079 C5073 1.429 . S
C5079 C5080 1.523 . S
C5080 C5061 1.368 . S
C5080 C5074 1.368 . S
C5080 C5079 1.523 . S
C5081 C5065 1.429 . S
C5081 C5077 1.429 . S
C5081 C5082 1.523 . S
C5082 C5066 1.368 . S
C5082 C5078 1.368 . S
C5082 C5081 1.523 . S
H5083 C5058 0.950 . S
H5084 C5060 0.950 . S
H5085 C5061 0.949 . S
H5086 C5063 0.950 . S
H5087 C5065 0.950 . S
C5088 C5089 1.349 . S
C5088 C5090 1.327 . S
C5088 H5113 0.950 . S
C5089 C5088 1.349 . S
C5089 C5105 1.349 . S
C5090 C5088 1.327 . S
C5090 C5109 1.429 . S
C5090 H5114 0.950 . S
C5091 C5108 1.574 . S
C5091 C5110 1.368 . S
C5091 H5115 0.949 . S
H5092 C5096 0.949 . S
C5093 C5094 1.349 . S
C5093 C5095 1.327 . S
C5093 H5116 0.950 . S
C5094 C5093 1.349 . S
C5094 C5106 1.349 . S
C5095 C5093 1.327 . S
C5095 C5111 1.429 . S
C5095 H5117 0.950 . S
C5096 H5092 0.949 . S
C5096 C5104 1.574 . S
C5096 C5112 1.368 . S
H5097 C5105 0.950 . S
H5098 C5103 0.950 . S
H5099 C5104 0.949 . S
H5100 C5106 0.950 . S
H5101 C5107 0.950 . S
H5102 C5108 0.949 . S
C5103 H5098 0.950 . S
C5103 C5105 1.327 . S
C5103 C5109 1.429 . S
C5104 C5096 1.574 . S
C5104 H5099 0.949 . S
C5104 C5110 1.368 . S
C5105 C5089 1.349 . S
C5105 H5097 0.950 . S
C5105 C5103 1.327 . S
C5106 C5094 1.349 . S
C5106 H5100 0.950 . S
C5106 C5107 1.327 . S
C5107 H5101 0.950 . S
C5107 C5106 1.327 . S
C5107 C5111 1.429 . S
C5108 C5091 1.574 . S
C5108 H5102 0.949 . S
C5108 C5112 1.368 . S
C5109 C5090 1.429 . S
C5109 C5103 1.429 . S
C5109 C5110 1.523 . S
C5110 C5091 1.368 . S
C5110 C5104 1.368 . S
C5110 C5109 1.523 . S
C5111 C5095 1.429 . S
C5111 C5107 1.429 . S
C5111 C5112 1.523 . S
C5112 C5096 1.368 . S
C5112 C5108 1.368 . S
C5112 C5111 1.523 . S
H5113 C5088 0.950 . S
H5114 C5090 0.950 . S
H5115 C5091 0.949 . S
H5116 C5093 0.950 . S
H5117 C5095 0.950 . S
C5118 C5119 1.349 . S
C5118 C5120 1.327 . S
C5118 H5143 0.950 . S
C5119 C5118 1.349 . S
C5119 C5135 1.349 . S
C5120 C5118 1.327 . S
C5120 C5139 1.429 . S
C5120 H5144 0.950 . S
C5121 C5138 1.574 . S
C5121 C5140 1.368 . S
C5121 H5145 0.949 . S
H5122 C5126 0.949 . S
C5123 C5124 1.349 . S
C5123 C5125 1.327 . S
C5123 H5146 0.950 . S
C5124 C5123 1.349 . S
C5124 C5136 1.349 . S
C5125 C5123 1.327 . S
C5125 C5141 1.429 . S
C5125 H5147 0.950 . S
C5126 H5122 0.949 . S
C5126 C5134 1.574 . S
C5126 C5142 1.368 . S
H5127 C5135 0.950 . S
H5128 C5133 0.950 . S
H5129 C5134 0.949 . S
H5130 C5136 0.950 . S
H5131 C5137 0.950 . S
H5132 C5138 0.949 . S
C5133 H5128 0.950 . S
C5133 C5135 1.327 . S
C5133 C5139 1.429 . S
C5134 C5126 1.574 . S
C5134 H5129 0.949 . S
C5134 C5140 1.368 . S
C5135 C5119 1.349 . S
C5135 H5127 0.950 . S
C5135 C5133 1.327 . S
C5136 C5124 1.349 . S
C5136 H5130 0.950 . S
C5136 C5137 1.327 . S
C5137 H5131 0.950 . S
C5137 C5136 1.327 . S
C5137 C5141 1.429 . S
C5138 C5121 1.574 . S
C5138 H5132 0.949 . S
C5138 C5142 1.368 . S
C5139 C5120 1.429 . S
C5139 C5133 1.429 . S
C5139 C5140 1.523 . S
C5140 C5121 1.368 . S
C5140 C5134 1.368 . S
C5140 C5139 1.523 . S
C5141 C5125 1.429 . S
C5141 C5137 1.429 . S
C5141 C5142 1.523 . S
C5142 C5126 1.368 . S
C5142 C5138 1.368 . S
C5142 C5141 1.523 . S
H5143 C5118 0.950 . S
H5144 C5120 0.950 . S
H5145 C5121 0.949 . S
H5146 C5123 0.950 . S
H5147 C5125 0.950 . S
C5148 C5149 1.349 . S
C5148 C5150 1.327 . S
C5148 H5173 0.950 . S
C5149 C5148 1.349 . S
C5149 C5165 1.349 . S
C5150 C5148 1.327 . S
C5150 C5169 1.429 . S
C5150 H5174 0.950 . S
C5151 C5168 1.574 . S
C5151 C5170 1.368 . S
C5151 H5175 0.949 . S
H5152 C5156 0.949 . S
C5153 C5154 1.349 . S
C5153 C5155 1.327 . S
C5153 H5176 0.950 . S
C5154 C5153 1.349 . S
C5154 C5166 1.349 . S
C5155 C5153 1.327 . S
C5155 C5171 1.429 . S
C5155 H5177 0.950 . S
C5156 H5152 0.949 . S
C5156 C5164 1.574 . S
C5156 C5172 1.368 . S
H5157 C5165 0.950 . S
H5158 C5163 0.950 . S
H5159 C5164 0.949 . S
H5160 C5166 0.950 . S
H5161 C5167 0.950 . S
H5162 C5168 0.949 . S
C5163 H5158 0.950 . S
C5163 C5165 1.327 . S
C5163 C5169 1.429 . S
C5164 C5156 1.574 . S
C5164 H5159 0.949 . S
C5164 C5170 1.368 . S
C5165 C5149 1.349 . S
C5165 H5157 0.950 . S
C5165 C5163 1.327 . S
C5166 C5154 1.349 . S
C5166 H5160 0.950 . S
C5166 C5167 1.327 . S
C5167 H5161 0.950 . S
C5167 C5166 1.327 . S
C5167 C5171 1.429 . S
C5168 C5151 1.574 . S
C5168 H5162 0.949 . S
C5168 C5172 1.368 . S
C5169 C5150 1.429 . S
C5169 C5163 1.429 . S
C5169 C5170 1.523 . S
C5170 C5151 1.368 . S
C5170 C5164 1.368 . S
C5170 C5169 1.523 . S
C5171 C5155 1.429 . S
C5171 C5167 1.429 . S
C5171 C5172 1.523 . S
C5172 C5156 1.368 . S
C5172 C5168 1.368 . S
C5172 C5171 1.523 . S
H5173 C5148 0.950 . S
H5174 C5150 0.950 . S
H5175 C5151 0.949 . S
H5176 C5153 0.950 . S
H5177 C5155 0.950 . S
C5178 C5179 1.349 . S
C5178 C5180 1.327 . S
C5178 H5203 0.950 . S
C5179 C5178 1.349 . S
C5179 C5195 1.349 . S
C5180 C5178 1.327 . S
C5180 C5199 1.429 . S
C5180 H5204 0.950 . S
C5181 C5198 1.574 . S
C5181 C5200 1.368 . S
C5181 H5205 0.949 . S
H5182 C5186 0.949 . S
C5183 C5184 1.349 . S
C5183 C5185 1.327 . S
C5183 H5206 0.950 . S
C5184 C5183 1.349 . S
C5184 C5196 1.349 . S
C5185 C5183 1.327 . S
C5185 C5201 1.429 . S
C5185 H5207 0.950 . S
C5186 H5182 0.949 . S
C5186 C5194 1.574 . S
C5186 C5202 1.368 . S
H5187 C5195 0.950 . S
H5188 C5193 0.950 . S
H5189 C5194 0.949 . S
H5190 C5196 0.950 . S
H5191 C5197 0.950 . S
H5192 C5198 0.949 . S
C5193 H5188 0.950 . S
C5193 C5195 1.327 . S
C5193 C5199 1.429 . S
C5194 C5186 1.574 . S
C5194 H5189 0.949 . S
C5194 C5200 1.368 . S
C5195 C5179 1.349 . S
C5195 H5187 0.950 . S
C5195 C5193 1.327 . S
C5196 C5184 1.349 . S
C5196 H5190 0.950 . S
C5196 C5197 1.327 . S
C5197 H5191 0.950 . S
C5197 C5196 1.327 . S
C5197 C5201 1.429 . S
C5198 C5181 1.574 . S
C5198 H5192 0.949 . S
C5198 C5202 1.368 . S
C5199 C5180 1.429 . S
C5199 C5193 1.429 . S
C5199 C5200 1.523 . S
C5200 C5181 1.368 . S
C5200 C5194 1.368 . S
C5200 C5199 1.523 . S
C5201 C5185 1.429 . S
C5201 C5197 1.429 . S
C5201 C5202 1.523 . S
C5202 C5186 1.368 . S
C5202 C5198 1.368 . S
C5202 C5201 1.523 . S
H5203 C5178 0.950 . S
H5204 C5180 0.950 . S
H5205 C5181 0.949 . S
H5206 C5183 0.950 . S
H5207 C5185 0.950 . S
C5208 C5209 1.349 . S
C5208 C5210 1.327 . S
C5208 H5233 0.950 . S
C5209 C5208 1.349 . S
C5209 C5225 1.349 . S
C5210 C5208 1.327 . S
C5210 C5229 1.429 . S
C5210 H5234 0.950 . S
C5211 C5228 1.574 . S
C5211 C5230 1.368 . S
C5211 H5235 0.949 . S
H5212 C5216 0.949 . S
C5213 C5214 1.349 . S
C5213 C5215 1.327 . S
C5213 H5236 0.950 . S
C5214 C5213 1.349 . S
C5214 C5226 1.349 . S
C5215 C5213 1.327 . S
C5215 C5231 1.429 . S
C5215 H5237 0.950 . S
C5216 H5212 0.949 . S
C5216 C5224 1.574 . S
C5216 C5232 1.368 . S
H5217 C5225 0.934 1_655 S
H5218 C5223 0.950 . S
H5219 C5224 0.949 . S
H5220 C5226 0.950 . S
H5221 C5227 0.950 . S
H5222 C5228 0.949 . S
C5223 H5218 0.950 . S
C5223 C5225 1.327 . S
C5223 C5229 1.429 . S
C5224 C5216 1.574 . S
C5224 H5219 0.949 . S
C5224 C5230 1.368 . S
C5225 C5209 1.349 . S
C5225 H5217 0.934 1_455 S
C5225 C5223 1.327 . S
C5226 C5214 1.349 . S
C5226 H5220 0.950 . S
C5226 C5227 1.327 . S
C5227 H5221 0.950 . S
C5227 C5226 1.327 . S
C5227 C5231 1.429 . S
C5228 C5211 1.574 . S
C5228 H5222 0.949 . S
C5228 C5232 1.368 . S
C5229 C5210 1.429 . S
C5229 C5223 1.429 . S
C5229 C5230 1.523 . S
C5230 C5211 1.368 . S
C5230 C5224 1.368 . S
C5230 C5229 1.523 . S
C5231 C5215 1.429 . S
C5231 C5227 1.429 . S
C5231 C5232 1.523 . S
C5232 C5216 1.368 . S
C5232 C5228 1.368 . S
C5232 C5231 1.523 . S
H5233 C5208 0.950 . S
H5234 C5210 0.950 . S
H5235 C5211 0.949 . S
H5236 C5213 0.950 . S
H5237 C5215 0.950 . S
C5238 C5239 1.349 . S
C5238 C5240 1.327 . S
C5238 H5263 0.950 . S
C5239 C5238 1.349 . S
C5239 C5255 1.349 . S
C5240 C5238 1.327 . S
C5240 C5259 1.429 . S
C5240 H5264 0.950 . S
C5241 C5258 1.574 . S
C5241 C5260 1.368 . S
C5241 H5265 0.949 . S
H5242 C5246 0.949 . S
C5243 C5244 1.349 . S
C5243 C5245 1.327 . S
C5243 H5266 0.950 . S
C5244 C5243 1.349 . S
C5244 C5256 1.349 . S
C5245 C5243 1.327 . S
C5245 C5261 1.429 . S
C5245 H5267 0.950 . S
C5246 H5242 0.949 . S
C5246 C5254 1.574 . S
C5246 C5262 1.368 . S
H5247 C5255 0.950 . S
H5248 C5253 0.950 . S
H5249 C5254 0.949 . S
H5250 C5256 0.950 . S
H5251 C5257 0.950 . S
H5252 C5258 0.949 . S
C5253 H5248 0.950 . S
C5253 C5255 1.327 . S
C5253 C5259 1.429 . S
C5254 C5246 1.574 . S
C5254 H5249 0.949 . S
C5254 C5260 1.368 . S
C5255 C5239 1.349 . S
C5255 H5247 0.950 . S
C5255 C5253 1.327 . S
C5256 C5244 1.349 . S
C5256 H5250 0.950 . S
C5256 C5257 1.327 . S
C5257 H5251 0.950 . S
C5257 C5256 1.327 . S
C5257 C5261 1.429 . S
C5258 C5241 1.574 . S
C5258 H5252 0.949 . S
C5258 C5262 1.368 . S
C5259 C5240 1.429 . S
C5259 C5253 1.429 . S
C5259 C5260 1.523 . S
C5260 C5241 1.368 . S
C5260 C5254 1.368 . S
C5260 C5259 1.523 . S
C5261 C5245 1.429 . S
C5261 C5257 1.429 . S
C5261 C5262 1.523 . S
C5262 C5246 1.368 . S
C5262 C5258 1.368 . S
C5262 C5261 1.523 . S
H5263 C5238 0.950 . S
H5264 C5240 0.950 . S
H5265 C5241 0.949 . S
H5266 C5243 0.950 . S
H5267 C5245 0.950 . S
C5268 C5269 1.349 . S
C5268 C5270 1.327 . S
C5268 H5293 0.950 . S
C5269 C5268 1.349 . S
C5269 C5285 1.349 . S
C5270 C5268 1.327 . S
C5270 C5289 1.429 . S
C5270 H5294 0.950 . S
C5271 C5288 1.574 . S
C5271 C5290 1.368 . S
C5271 H5295 0.949 . S
H5272 C5276 0.949 . S
C5273 C5274 1.349 . S
C5273 C5275 1.327 . S
C5273 H5296 0.950 . S
C5274 C5273 1.349 . S
C5274 C5286 1.349 . S
C5275 C5273 1.327 . S
C5275 C5291 1.429 . S
C5275 H5297 0.950 . S
C5276 H5272 0.949 . S
C5276 C5284 1.574 . S
C5276 C5292 1.368 . S
H5277 C5285 0.950 . S
H5278 C5283 0.950 . S
H5279 C5284 0.949 . S
H5280 C5286 0.950 . S
H5281 C5287 0.950 . S
H5282 C5288 0.949 . S
C5283 H5278 0.950 . S
C5283 C5285 1.327 . S
C5283 C5289 1.429 . S
C5284 C5276 1.574 . S
C5284 H5279 0.949 . S
C5284 C5290 1.368 . S
C5285 C5269 1.349 . S
C5285 H5277 0.950 . S
C5285 C5283 1.327 . S
C5286 C5274 1.349 . S
C5286 H5280 0.950 . S
C5286 C5287 1.327 . S
C5287 H5281 0.950 . S
C5287 C5286 1.327 . S
C5287 C5291 1.429 . S
C5288 C5271 1.574 . S
C5288 H5282 0.949 . S
C5288 C5292 1.368 . S
C5289 C5270 1.429 . S
C5289 C5283 1.429 . S
C5289 C5290 1.523 . S
C5290 C5271 1.368 . S
C5290 C5284 1.368 . S
C5290 C5289 1.523 . S
C5291 C5275 1.429 . S
C5291 C5287 1.429 . S
C5291 C5292 1.523 . S
C5292 C5276 1.368 . S
C5292 C5288 1.368 . S
C5292 C5291 1.523 . S
H5293 C5268 0.950 . S
H5294 C5270 0.950 . S
H5295 C5271 0.949 . S
H5296 C5273 0.950 . S
H5297 C5275 0.950 . S
C5298 C5299 1.349 . S
C5298 C5300 1.327 . S
C5298 H5323 0.950 . S
C5299 C5298 1.349 . S
C5299 C5315 1.349 . S
C5300 C5298 1.327 . S
C5300 C5319 1.429 . S
C5300 H5324 0.950 . S
C5301 C5318 1.574 . S
C5301 C5320 1.368 . S
C5301 H5325 0.949 . S
H5302 C5306 0.949 . S
C5303 C5304 1.349 . S
C5303 C5305 1.327 . S
C5303 H5326 0.950 . S
C5304 C5303 1.349 . S
C5304 C5316 1.349 . S
C5305 C5303 1.327 . S
C5305 C5321 1.429 . S
C5305 H5327 0.950 . S
C5306 H5302 0.949 . S
C5306 C5314 1.574 . S
C5306 C5322 1.368 . S
H5307 C5315 0.950 . S
H5308 C5313 0.950 . S
H5309 C5314 0.949 . S
H5310 C5316 0.950 . S
H5311 C5317 0.950 . S
H5312 C5318 0.949 . S
C5313 H5308 0.950 . S
C5313 C5315 1.327 . S
C5313 C5319 1.429 . S
C5314 C5306 1.574 . S
C5314 H5309 0.949 . S
C5314 C5320 1.368 . S
C5315 C5299 1.349 . S
C5315 H5307 0.950 . S
C5315 C5313 1.327 . S
C5316 C5304 1.349 . S
C5316 H5310 0.950 . S
C5316 C5317 1.327 . S
C5317 H5311 0.950 . S
C5317 C5316 1.327 . S
C5317 C5321 1.429 . S
C5318 C5301 1.574 . S
C5318 H5312 0.949 . S
C5318 C5322 1.368 . S
C5319 C5300 1.429 . S
C5319 C5313 1.429 . S
C5319 C5320 1.523 . S
C5320 C5301 1.368 . S
C5320 C5314 1.368 . S
C5320 C5319 1.523 . S
C5321 C5305 1.429 . S
C5321 C5317 1.429 . S
C5321 C5322 1.523 . S
C5322 C5306 1.368 . S
C5322 C5318 1.368 . S
C5322 C5321 1.523 . S
H5323 C5298 0.950 . S
H5324 C5300 0.950 . S
H5325 C5301 0.949 . S
H5326 C5303 0.950 . S
H5327 C5305 0.950 . S
C5328 C5329 1.349 . S
C5328 C5330 1.327 . S
C5328 H5353 0.950 . S
C5329 C5328 1.349 . S
C5329 C5345 1.349 . S
C5330 C5328 1.327 . S
C5330 C5349 1.429 . S
C5330 H5354 0.950 . S
C5331 C5348 1.574 . S
C5331 C5350 1.368 . S
C5331 H5355 0.949 . S
H5332 C5336 0.949 . S
C5333 C5334 1.349 . S
C5333 C5335 1.327 . S
C5333 H5356 0.950 . S
C5334 C5333 1.349 . S
C5334 C5346 1.349 . S
C5335 C5333 1.327 . S
C5335 C5351 1.429 . S
C5335 H5357 0.950 . S
C5336 H5332 0.949 . S
C5336 C5344 1.574 . S
C5336 C5352 1.368 . S
H5337 C5345 0.950 . S
H5338 C5343 0.950 . S
H5339 C5344 0.949 . S
H5340 C5346 0.950 . S
H5341 C5347 0.950 . S
H5342 C5348 0.949 . S
C5343 H5338 0.950 . S
C5343 C5345 1.327 . S
C5343 C5349 1.429 . S
C5344 C5336 1.574 . S
C5344 H5339 0.949 . S
C5344 C5350 1.368 . S
C5345 C5329 1.349 . S
C5345 H5337 0.950 . S
C5345 C5343 1.327 . S
C5346 C5334 1.349 . S
C5346 H5340 0.950 . S
C5346 C5347 1.327 . S
C5347 H5341 0.950 . S
C5347 C5346 1.327 . S
C5347 C5351 1.429 . S
C5348 C5331 1.574 . S
C5348 H5342 0.949 . S
C5348 C5352 1.368 . S
C5349 C5330 1.429 . S
C5349 C5343 1.429 . S
C5349 C5350 1.523 . S
C5350 C5331 1.368 . S
C5350 C5344 1.368 . S
C5350 C5349 1.523 . S
C5351 C5335 1.429 . S
C5351 C5347 1.429 . S
C5351 C5352 1.523 . S
C5352 C5336 1.368 . S
C5352 C5348 1.368 . S
C5352 C5351 1.523 . S
H5353 C5328 0.950 . S
H5354 C5330 0.950 . S
H5355 C5331 0.949 . S
H5356 C5333 0.950 . S
H5357 C5335 0.950 . S
C5358 C5359 1.349 . S
C5358 C5360 1.327 . S
C5358 H5383 0.950 . S
C5359 C5358 1.349 . S
C5359 C5375 1.349 . S
C5360 C5358 1.327 . S
C5360 C5379 1.429 . S
C5360 H5384 0.950 . S
C5361 C5378 1.574 . S
C5361 C5380 1.368 . S
C5361 H5385 0.949 . S
H5362 C5366 0.949 . S
C5363 C5364 1.349 . S
C5363 C5365 1.327 . S
C5363 H5386 0.950 . S
C5364 C5363 1.349 . S
C5364 C5376 1.349 . S
C5365 C5363 1.327 . S
C5365 C5381 1.429 . S
C5365 H5387 0.950 . S
C5366 H5362 0.949 . S
C5366 C5374 1.574 . S
C5366 C5382 1.368 . S
H5367 C5375 0.950 . S
H5368 C5373 0.950 . S
H5369 C5374 0.949 . S
H5370 C5376 0.950 . S
H5371 C5377 0.950 . S
H5372 C5378 0.949 . S
C5373 H5368 0.950 . S
C5373 C5375 1.327 . S
C5373 C5379 1.429 . S
C5374 C5366 1.574 . S
C5374 H5369 0.949 . S
C5374 C5380 1.368 . S
C5375 C5359 1.349 . S
C5375 H5367 0.950 . S
C5375 C5373 1.327 . S
C5376 C5364 1.349 . S
C5376 H5370 0.950 . S
C5376 C5377 1.327 . S
C5377 H5371 0.950 . S
C5377 C5376 1.327 . S
C5377 C5381 1.429 . S
C5378 C5361 1.574 . S
C5378 H5372 0.949 . S
C5378 C5382 1.368 . S
C5379 C5360 1.429 . S
C5379 C5373 1.429 . S
C5379 C5380 1.523 . S
C5380 C5361 1.368 . S
C5380 C5374 1.368 . S
C5380 C5379 1.523 . S
C5381 C5365 1.429 . S
C5381 C5377 1.429 . S
C5381 C5382 1.523 . S
C5382 C5366 1.368 . S
C5382 C5378 1.368 . S
C5382 C5381 1.523 . S
H5383 C5358 0.950 . S
H5384 C5360 0.950 . S
H5385 C5361 0.949 . S
H5386 C5363 0.950 . S
H5387 C5365 0.950 . S
C5388 C5389 1.349 . S
C5388 C5390 1.327 . S
C5388 H5413 0.950 . S
C5389 C5388 1.349 . S
C5389 C5405 1.349 . S
C5390 C5388 1.327 . S
C5390 C5409 1.429 . S
C5390 H5414 0.950 . S
C5391 C5408 1.574 . S
C5391 C5410 1.368 . S
C5391 H5415 0.949 . S
H5392 C5396 0.949 . S
C5393 C5394 1.349 . S
C5393 C5395 1.327 . S
C5393 H5416 0.950 . S
C5394 C5393 1.349 . S
C5394 C5406 1.349 . S
C5395 C5393 1.327 . S
C5395 C5411 1.429 . S
C5395 H5417 0.950 . S
C5396 H5392 0.949 . S
C5396 C5404 1.574 . S
C5396 C5412 1.368 . S
H5397 C5405 0.950 . S
H5398 C5403 0.950 . S
H5399 C5404 0.949 . S
H5400 C5406 0.950 . S
H5401 C5407 0.950 . S
H5402 C5408 0.949 . S
C5403 H5398 0.950 . S
C5403 C5405 1.327 . S
C5403 C5409 1.429 . S
C5404 C5396 1.574 . S
C5404 H5399 0.949 . S
C5404 C5410 1.368 . S
C5405 C5389 1.349 . S
C5405 H5397 0.950 . S
C5405 C5403 1.327 . S
C5406 C5394 1.349 . S
C5406 H5400 0.950 . S
C5406 C5407 1.327 . S
C5407 H5401 0.950 . S
C5407 C5406 1.327 . S
C5407 C5411 1.429 . S
C5408 C5391 1.574 . S
C5408 H5402 0.949 . S
C5408 C5412 1.368 . S
C5409 C5390 1.429 . S
C5409 C5403 1.429 . S
C5409 C5410 1.523 . S
C5410 C5391 1.368 . S
C5410 C5404 1.368 . S
C5410 C5409 1.523 . S
C5411 C5395 1.429 . S
C5411 C5407 1.429 . S
C5411 C5412 1.523 . S
C5412 C5396 1.368 . S
C5412 C5408 1.368 . S
C5412 C5411 1.523 . S
H5413 C5388 0.950 . S
H5414 C5390 0.950 . S
H5415 C5391 0.949 . S
H5416 C5393 0.950 . S
H5417 C5395 0.950 . S
C5418 C5419 1.349 . S
C5418 C5420 1.327 . S
C5418 H5443 0.950 . S
C5419 C5418 1.349 . S
C5419 C5435 1.349 . S
C5420 C5418 1.327 . S
C5420 C5439 1.429 . S
C5420 H5444 0.950 . S
C5421 C5438 1.574 . S
C5421 C5440 1.368 . S
C5421 H5445 0.949 . S
H5422 C5426 0.949 . S
C5423 C5424 1.349 . S
C5423 C5425 1.327 . S
C5423 H5446 0.950 . S
C5424 C5423 1.349 . S
C5424 C5436 1.349 . S
C5425 C5423 1.327 . S
C5425 C5441 1.429 . S
C5425 H5447 0.950 . S
C5426 H5422 0.949 . S
C5426 C5434 1.574 . S
C5426 C5442 1.368 . S
H5427 C5435 0.950 . S
H5428 C5433 0.950 . S
H5429 C5434 0.949 . S
H5430 C5436 0.950 . S
H5431 C5437 0.950 . S
H5432 C5438 0.949 . S
C5433 H5428 0.950 . S
C5433 C5435 1.327 . S
C5433 C5439 1.429 . S
C5434 C5426 1.574 . S
C5434 H5429 0.949 . S
C5434 C5440 1.368 . S
C5435 C5419 1.349 . S
C5435 H5427 0.950 . S
C5435 C5433 1.327 . S
C5436 C5424 1.349 . S
C5436 H5430 0.950 . S
C5436 C5437 1.327 . S
C5437 H5431 0.950 . S
C5437 C5436 1.327 . S
C5437 C5441 1.429 . S
C5438 C5421 1.574 . S
C5438 H5432 0.949 . S
C5438 C5442 1.368 . S
C5439 C5420 1.429 . S
C5439 C5433 1.429 . S
C5439 C5440 1.523 . S
C5440 C5421 1.368 . S
C5440 C5434 1.368 . S
C5440 C5439 1.523 . S
C5441 C5425 1.429 . S
C5441 C5437 1.429 . S
C5441 C5442 1.523 . S
C5442 C5426 1.368 . S
C5442 C5438 1.368 . S
C5442 C5441 1.523 . S
H5443 C5418 0.950 . S
H5444 C5420 0.950 . S
H5445 C5421 0.949 . S
H5446 C5423 0.950 . S
H5447 C5425 0.950 . S
C5448 C5449 1.349 . S
C5448 C5450 1.327 . S
C5448 H5473 0.950 . S
C5449 C5448 1.349 . S
C5449 C5465 1.349 . S
C5450 C5448 1.327 . S
C5450 C5469 1.429 . S
C5450 H5474 0.950 . S
C5451 C5468 1.574 . S
C5451 C5470 1.368 . S
C5451 H5475 0.949 . S
H5452 C5456 0.949 . S
C5453 C5454 1.349 . S
C5453 C5455 1.327 . S
C5453 H5476 0.950 . S
C5454 C5453 1.349 . S
C5454 C5466 1.349 . S
C5455 C5453 1.327 . S
C5455 C5471 1.429 . S
C5455 H5477 0.950 . S
C5456 H5452 0.949 . S
C5456 C5464 1.574 . S
C5456 C5472 1.368 . S
H5457 C5465 0.950 . S
H5458 C5463 0.950 . S
H5459 C5464 0.949 . S
H5460 C5466 0.950 . S
H5461 C5467 0.950 . S
H5462 C5468 0.949 . S
C5463 H5458 0.950 . S
C5463 C5465 1.327 . S
C5463 C5469 1.429 . S
C5464 C5456 1.574 . S
C5464 H5459 0.949 . S
C5464 C5470 1.368 . S
C5465 C5449 1.349 . S
C5465 H5457 0.950 . S
C5465 C5463 1.327 . S
C5466 C5454 1.349 . S
C5466 H5460 0.950 . S
C5466 C5467 1.327 . S
C5467 H5461 0.950 . S
C5467 C5466 1.327 . S
C5467 C5471 1.429 . S
C5468 C5451 1.574 . S
C5468 H5462 0.949 . S
C5468 C5472 1.368 . S
C5469 C5450 1.429 . S
C5469 C5463 1.429 . S
C5469 C5470 1.523 . S
C5470 C5451 1.368 . S
C5470 C5464 1.368 . S
C5470 C5469 1.523 . S
C5471 C5455 1.429 . S
C5471 C5467 1.429 . S
C5471 C5472 1.523 . S
C5472 C5456 1.368 . S
C5472 C5468 1.368 . S
C5472 C5471 1.523 . S
H5473 C5448 0.950 . S
H5474 C5450 0.950 . S
H5475 C5451 0.949 . S
H5476 C5453 0.950 . S
H5477 C5455 0.950 . S
C5478 C5479 1.349 . S
C5478 C5480 1.327 . S
C5478 H5503 0.950 . S
C5479 C5478 1.349 . S
C5479 C5495 1.349 . S
C5480 C5478 1.327 . S
C5480 C5499 1.429 . S
C5480 H5504 0.950 . S
C5481 C5498 1.574 . S
C5481 C5500 1.368 . S
C5481 H5505 0.949 . S
H5482 C5486 0.949 . S
C5483 C5484 1.349 . S
C5483 C5485 1.327 . S
C5483 H5506 0.950 . S
C5484 C5483 1.349 . S
C5484 C5496 1.349 . S
C5485 C5483 1.327 . S
C5485 C5501 1.429 . S
C5485 H5507 0.950 . S
C5486 H5482 0.949 . S
C5486 C5494 1.574 . S
C5486 C5502 1.368 . S
H5487 C5495 0.950 . S
H5488 C5493 0.950 . S
H5489 C5494 0.949 . S
H5490 C5496 0.950 . S
H5491 C5497 0.950 . S
H5492 C5498 0.949 . S
C5493 H5488 0.950 . S
C5493 C5495 1.327 . S
C5493 C5499 1.429 . S
C5494 C5486 1.574 . S
C5494 H5489 0.949 . S
C5494 C5500 1.368 . S
C5495 C5479 1.349 . S
C5495 H5487 0.950 . S
C5495 C5493 1.327 . S
C5496 C5484 1.349 . S
C5496 H5490 0.950 . S
C5496 C5497 1.327 . S
C5497 H5491 0.950 . S
C5497 C5496 1.327 . S
C5497 C5501 1.429 . S
C5498 C5481 1.574 . S
C5498 H5492 0.949 . S
C5498 C5502 1.368 . S
C5499 C5480 1.429 . S
C5499 C5493 1.429 . S
C5499 C5500 1.523 . S
C5500 C5481 1.368 . S
C5500 C5494 1.368 . S
C5500 C5499 1.523 . S
C5501 C5485 1.429 . S
C5501 C5497 1.429 . S
C5501 C5502 1.523 . S
C5502 C5486 1.368 . S
C5502 C5498 1.368 . S
C5502 C5501 1.523 . S
H5503 C5478 0.950 . S
H5504 C5480 0.950 . S
H5505 C5481 0.949 . S
H5506 C5483 0.950 . S
H5507 C5485 0.950 . S
C5508 C5509 1.349 . S
C5508 C5510 1.327 . S
C5508 H5533 0.950 . S
C5509 C5508 1.349 . S
C5509 C5525 1.349 . S
C5510 C5508 1.327 . S
C5510 C5529 1.429 . S
C5510 H5534 0.950 . S
C5511 C5528 1.574 . S
C5511 C5530 1.368 . S
C5511 H5535 0.949 . S
H5512 C5516 0.949 . S
C5513 C5514 1.349 . S
C5513 C5515 1.327 . S
C5513 H5536 0.950 . S
C5514 C5513 1.349 . S
C5514 C5526 1.349 . S
C5515 C5513 1.327 . S
C5515 C5531 1.429 . S
C5515 H5537 0.950 . S
C5516 H5512 0.949 . S
C5516 C5524 1.574 . S
C5516 C5532 1.368 . S
H5517 C5525 0.950 . S
H5518 C5523 0.950 . S
H5519 C5524 0.949 . S
H5520 C5526 0.950 . S
H5521 C5527 0.950 . S
H5522 C5528 0.949 . S
C5523 H5518 0.950 . S
C5523 C5525 1.327 . S
C5523 C5529 1.429 . S
C5524 C5516 1.574 . S
C5524 H5519 0.949 . S
C5524 C5530 1.368 . S
C5525 C5509 1.349 . S
C5525 H5517 0.950 . S
C5525 C5523 1.327 . S
C5526 C5514 1.349 . S
C5526 H5520 0.950 . S
C5526 C5527 1.327 . S
C5527 H5521 0.950 . S
C5527 C5526 1.327 . S
C5527 C5531 1.429 . S
C5528 C5511 1.574 . S
C5528 H5522 0.949 . S
C5528 C5532 1.368 . S
C5529 C5510 1.429 . S
C5529 C5523 1.429 . S
C5529 C5530 1.523 . S
C5530 C5511 1.368 . S
C5530 C5524 1.368 . S
C5530 C5529 1.523 . S
C5531 C5515 1.429 . S
C5531 C5527 1.429 . S
C5531 C5532 1.523 . S
C5532 C5516 1.368 . S
C5532 C5528 1.368 . S
C5532 C5531 1.523 . S
H5533 C5508 0.950 . S
H5534 C5510 0.950 . S
H5535 C5511 0.949 . S
H5536 C5513 0.950 . S
H5537 C5515 0.950 . S
C5538 C5539 1.349 . S
C5538 C5540 1.327 . S
C5538 H5563 0.950 . S
C5539 C5538 1.349 . S
C5539 C5555 1.349 . S
C5540 C5538 1.327 . S
C5540 C5559 1.429 . S
C5540 H5564 0.950 . S
C5541 C5558 1.574 . S
C5541 C5560 1.368 . S
C5541 H5565 0.949 . S
H5542 C5546 0.949 . S
C5543 C5544 1.349 . S
C5543 C5545 1.327 . S
C5543 H5566 0.950 . S
C5544 C5543 1.349 . S
C5544 C5556 1.349 . S
C5545 C5543 1.327 . S
C5545 C5561 1.429 . S
C5545 H5567 0.950 . S
C5546 H5542 0.949 . S
C5546 C5554 1.574 . S
C5546 C5562 1.368 . S
H5547 C5555 0.950 . S
H5548 C5553 0.950 . S
H5549 C5554 0.949 . S
H5550 C5556 0.950 . S
H5551 C5557 0.950 . S
H5552 C5558 0.949 . S
C5553 H5548 0.950 . S
C5553 C5555 1.327 . S
C5553 C5559 1.429 . S
C5554 C5546 1.574 . S
C5554 H5549 0.949 . S
C5554 C5560 1.368 . S
C5555 C5539 1.349 . S
C5555 H5547 0.950 . S
C5555 C5553 1.327 . S
C5556 C5544 1.349 . S
C5556 H5550 0.950 . S
C5556 C5557 1.327 . S
C5557 H5551 0.950 . S
C5557 C5556 1.327 . S
C5557 C5561 1.429 . S
C5558 C5541 1.574 . S
C5558 H5552 0.949 . S
C5558 C5562 1.368 . S
C5559 C5540 1.429 . S
C5559 C5553 1.429 . S
C5559 C5560 1.523 . S
C5560 C5541 1.368 . S
C5560 C5554 1.368 . S
C5560 C5559 1.523 . S
C5561 C5545 1.429 . S
C5561 C5557 1.429 . S
C5561 C5562 1.523 . S
C5562 C5546 1.368 . S
C5562 C5558 1.368 . S
C5562 C5561 1.523 . S
H5563 C5538 0.950 . S
H5564 C5540 0.950 . S
H5565 C5541 0.949 . S
H5566 C5543 0.950 . S
H5567 C5545 0.950 . S
C5568 C5569 1.349 . S
C5568 C5570 1.327 . S
C5568 H5593 0.950 . S
C5569 C5568 1.349 . S
C5569 C5585 1.349 . S
C5570 C5568 1.327 . S
C5570 C5589 1.429 . S
C5570 H5594 0.950 . S
C5571 C5588 1.574 . S
C5571 C5590 1.368 . S
C5571 H5595 0.949 . S
H5572 C5576 0.949 . S
C5573 C5574 1.349 . S
C5573 C5575 1.327 . S
C5573 H5596 0.950 . S
C5574 C5573 1.349 . S
C5574 C5586 1.349 . S
C5575 C5573 1.327 . S
C5575 C5591 1.429 . S
C5575 H5597 0.950 . S
C5576 H5572 0.949 . S
C5576 C5584 1.574 . S
C5576 C5592 1.368 . S
H5577 C5585 0.950 . S
H5578 C5583 0.950 . S
H5579 C5584 0.949 . S
H5580 C5586 0.950 . S
H5581 C5587 0.950 . S
H5582 C5588 0.949 . S
C5583 H5578 0.950 . S
C5583 C5585 1.327 . S
C5583 C5589 1.429 . S
C5584 C5576 1.574 . S
C5584 H5579 0.949 . S
C5584 C5590 1.368 . S
C5585 C5569 1.349 . S
C5585 H5577 0.950 . S
C5585 C5583 1.327 . S
C5586 C5574 1.349 . S
C5586 H5580 0.950 . S
C5586 C5587 1.327 . S
C5587 H5581 0.950 . S
C5587 C5586 1.327 . S
C5587 C5591 1.429 . S
C5588 C5571 1.574 . S
C5588 H5582 0.949 . S
C5588 C5592 1.368 . S
C5589 C5570 1.429 . S
C5589 C5583 1.429 . S
C5589 C5590 1.523 . S
C5590 C5571 1.368 . S
C5590 C5584 1.368 . S
C5590 C5589 1.523 . S
C5591 C5575 1.429 . S
C5591 C5587 1.429 . S
C5591 C5592 1.523 . S
C5592 C5576 1.368 . S
C5592 C5588 1.368 . S
C5592 C5591 1.523 . S
H5593 C5568 0.950 . S
H5594 C5570 0.950 . S
H5595 C5571 0.949 . S
H5596 C5573 0.950 . S
H5597 C5575 0.950 . S
C5598 C5599 1.349 . S
C5598 C5600 1.327 . S
C5598 H5623 0.950 . S
C5599 C5598 1.349 . S
C5599 C5615 1.349 . S
C5600 C5598 1.327 . S
C5600 C5619 1.429 . S
C5600 H5624 0.950 . S
C5601 C5618 1.574 . S
C5601 C5620 1.368 . S
C5601 H5625 0.949 . S
H5602 C5606 0.949 . S
C5603 C5604 1.349 . S
C5603 C5605 1.327 . S
C5603 H5626 0.950 . S
C5604 C5603 1.349 . S
C5604 C5616 1.349 . S
C5605 C5603 1.327 . S
C5605 C5621 1.429 . S
C5605 H5627 0.950 . S
C5606 H5602 0.949 . S
C5606 C5614 1.574 . S
C5606 C5622 1.368 . S
H5607 C5615 0.950 . S
H5608 C5613 0.950 . S
H5609 C5614 0.949 . S
H5610 C5616 0.950 . S
H5611 C5617 0.950 . S
H5612 C5618 0.949 . S
C5613 H5608 0.950 . S
C5613 C5615 1.327 . S
C5613 C5619 1.429 . S
C5614 C5606 1.574 . S
C5614 H5609 0.949 . S
C5614 C5620 1.368 . S
C5615 C5599 1.349 . S
C5615 H5607 0.950 . S
C5615 C5613 1.327 . S
C5616 C5604 1.349 . S
C5616 H5610 0.950 . S
C5616 C5617 1.327 . S
C5617 H5611 0.950 . S
C5617 C5616 1.327 . S
C5617 C5621 1.429 . S
C5618 C5601 1.574 . S
C5618 H5612 0.949 . S
C5618 C5622 1.368 . S
C5619 C5600 1.429 . S
C5619 C5613 1.429 . S
C5619 C5620 1.523 . S
C5620 C5601 1.368 . S
C5620 C5614 1.368 . S
C5620 C5619 1.523 . S
C5621 C5605 1.429 . S
C5621 C5617 1.429 . S
C5621 C5622 1.523 . S
C5622 C5606 1.368 . S
C5622 C5618 1.368 . S
C5622 C5621 1.523 . S
H5623 C5598 0.950 . S
H5624 C5600 0.950 . S
H5625 C5601 0.949 . S
H5626 C5603 0.950 . S
H5627 C5605 0.950 . S
C5628 C5629 1.349 . S
C5628 C5630 1.327 . S
C5628 H5653 0.950 . S
C5629 C5628 1.349 . S
C5629 C5645 1.349 . S
C5630 C5628 1.327 . S
C5630 C5649 1.429 . S
C5630 H5654 0.950 . S
C5631 C5648 1.574 . S
C5631 C5650 1.368 . S
C5631 H5655 0.949 . S
H5632 C5636 0.949 . S
C5633 C5634 1.349 . S
C5633 C5635 1.327 . S
C5633 H5656 0.950 . S
C5634 C5633 1.349 . S
C5634 C5646 1.349 . S
C5635 C5633 1.327 . S
C5635 C5651 1.429 . S
C5635 H5657 0.950 . S
C5636 H5632 0.949 . S
C5636 C5644 1.574 . S
C5636 C5652 1.368 . S
H5637 C5645 0.950 . S
H5638 C5643 0.950 . S
H5639 C5644 0.949 . S
H5640 C5646 0.950 . S
H5641 C5647 0.950 . S
H5642 C5648 0.949 . S
C5643 H5638 0.950 . S
C5643 C5645 1.327 . S
C5643 C5649 1.429 . S
C5644 C5636 1.574 . S
C5644 H5639 0.949 . S
C5644 C5650 1.368 . S
C5645 C5629 1.349 . S
C5645 H5637 0.950 . S
C5645 C5643 1.327 . S
C5646 C5634 1.349 . S
C5646 H5640 0.950 . S
C5646 C5647 1.327 . S
C5647 H5641 0.950 . S
C5647 C5646 1.327 . S
C5647 C5651 1.429 . S
C5648 C5631 1.574 . S
C5648 H5642 0.949 . S
C5648 C5652 1.368 . S
C5649 C5630 1.429 . S
C5649 C5643 1.429 . S
C5649 C5650 1.523 . S
C5650 C5631 1.368 . S
C5650 C5644 1.368 . S
C5650 C5649 1.523 . S
C5651 C5635 1.429 . S
C5651 C5647 1.429 . S
C5651 C5652 1.523 . S
C5652 C5636 1.368 . S
C5652 C5648 1.368 . S
C5652 C5651 1.523 . S
H5653 C5628 0.950 . S
H5654 C5630 0.950 . S
H5655 C5631 0.949 . S
H5656 C5633 0.950 . S
H5657 C5635 0.950 . S
C5658 C5659 1.349 . S
C5658 C5660 1.327 . S
C5658 H5683 0.950 . S
C5659 C5658 1.349 . S
C5659 C5675 1.349 . S
C5660 C5658 1.327 . S
C5660 C5679 1.429 . S
C5660 H5684 0.950 . S
C5661 C5678 1.574 . S
C5661 C5680 1.368 . S
C5661 H5685 0.949 . S
H5662 C5666 0.949 . S
C5663 C5664 1.349 . S
C5663 C5665 1.327 . S
C5663 H5686 0.950 . S
C5664 C5663 1.349 . S
C5664 C5676 1.349 . S
C5665 C5663 1.327 . S
C5665 C5681 1.429 . S
C5665 H5687 0.950 . S
C5666 H5662 0.949 . S
C5666 C5674 1.574 . S
C5666 C5682 1.368 . S
H5667 C5675 0.950 . S
H5668 C5673 0.950 . S
H5669 C5674 0.949 . S
H5670 C5676 0.950 . S
H5671 C5677 0.950 . S
H5672 C5678 0.949 . S
C5673 H5668 0.950 . S
C5673 C5675 1.327 . S
C5673 C5679 1.429 . S
C5674 C5666 1.574 . S
C5674 H5669 0.949 . S
C5674 C5680 1.368 . S
C5675 C5659 1.349 . S
C5675 H5667 0.950 . S
C5675 C5673 1.327 . S
C5676 C5664 1.349 . S
C5676 H5670 0.950 . S
C5676 C5677 1.327 . S
C5677 H5671 0.950 . S
C5677 C5676 1.327 . S
C5677 C5681 1.429 . S
C5678 C5661 1.574 . S
C5678 H5672 0.949 . S
C5678 C5682 1.368 . S
C5679 C5660 1.429 . S
C5679 C5673 1.429 . S
C5679 C5680 1.523 . S
C5680 C5661 1.368 . S
C5680 C5674 1.368 . S
C5680 C5679 1.523 . S
C5681 C5665 1.429 . S
C5681 C5677 1.429 . S
C5681 C5682 1.523 . S
C5682 C5666 1.368 . S
C5682 C5678 1.368 . S
C5682 C5681 1.523 . S
H5683 C5658 0.950 . S
H5684 C5660 0.950 . S
H5685 C5661 0.949 . S
H5686 C5663 0.950 . S
H5687 C5665 0.950 . S
C5688 C5689 1.349 . S
C5688 C5690 1.327 . S
C5688 H5713 0.950 . S
C5689 C5688 1.349 . S
C5689 C5705 1.349 . S
C5690 C5688 1.327 . S
C5690 C5709 1.429 . S
C5690 H5714 0.950 . S
C5691 C5708 1.574 . S
C5691 C5710 1.368 . S
C5691 H5715 0.949 . S
H5692 C5696 0.949 . S
C5693 C5694 1.349 . S
C5693 C5695 1.327 . S
C5693 H5716 0.950 . S
C5694 C5693 1.349 . S
C5694 C5706 1.349 . S
C5695 C5693 1.327 . S
C5695 C5711 1.429 . S
C5695 H5717 0.950 . S
C5696 H5692 0.949 . S
C5696 C5704 1.574 . S
C5696 C5712 1.368 . S
H5697 C5705 0.950 . S
H5698 C5703 0.950 . S
H5699 C5704 0.949 . S
H5700 C5706 0.950 . S
H5701 C5707 0.950 . S
H5702 C5708 0.949 . S
C5703 H5698 0.950 . S
C5703 C5705 1.327 . S
C5703 C5709 1.429 . S
C5704 C5696 1.574 . S
C5704 H5699 0.949 . S
C5704 C5710 1.368 . S
C5705 C5689 1.349 . S
C5705 H5697 0.950 . S
C5705 C5703 1.327 . S
C5706 C5694 1.349 . S
C5706 H5700 0.950 . S
C5706 C5707 1.327 . S
C5707 H5701 0.950 . S
C5707 C5706 1.327 . S
C5707 C5711 1.429 . S
C5708 C5691 1.574 . S
C5708 H5702 0.949 . S
C5708 C5712 1.368 . S
C5709 C5690 1.429 . S
C5709 C5703 1.429 . S
C5709 C5710 1.523 . S
C5710 C5691 1.368 . S
C5710 C5704 1.368 . S
C5710 C5709 1.523 . S
C5711 C5695 1.429 . S
C5711 C5707 1.429 . S
C5711 C5712 1.523 . S
C5712 C5696 1.368 . S
C5712 C5708 1.368 . S
C5712 C5711 1.523 . S
H5713 C5688 0.950 . S
H5714 C5690 0.950 . S
H5715 C5691 0.949 . S
H5716 C5693 0.950 . S
H5717 C5695 0.950 . S
C5718 C5719 1.349 . S
C5718 C5720 1.327 . S
C5718 H5743 0.950 . S
C5719 C5718 1.349 . S
C5719 C5735 1.349 . S
C5720 C5718 1.327 . S
C5720 C5739 1.429 . S
C5720 H5744 0.950 . S
C5721 C5738 1.574 . S
C5721 C5740 1.368 . S
C5721 H5745 0.949 . S
H5722 C5726 0.949 . S
C5723 C5724 1.349 . S
C5723 C5725 1.327 . S
C5723 H5746 0.950 . S
C5724 C5723 1.349 . S
C5724 C5736 1.349 . S
C5725 C5723 1.327 . S
C5725 C5741 1.429 . S
C5725 H5747 0.950 . S
C5726 H5722 0.949 . S
C5726 C5734 1.574 . S
C5726 C5742 1.368 . S
H5727 C5735 0.950 . S
H5728 C5733 0.950 . S
H5729 C5734 0.949 . S
H5730 C5736 0.950 . S
H5731 C5737 0.950 . S
H5732 C5738 0.949 . S
C5733 H5728 0.950 . S
C5733 C5735 1.327 . S
C5733 C5739 1.429 . S
C5734 C5726 1.574 . S
C5734 H5729 0.949 . S
C5734 C5740 1.368 . S
C5735 C5719 1.349 . S
C5735 H5727 0.950 . S
C5735 C5733 1.327 . S
C5736 C5724 1.349 . S
C5736 H5730 0.950 . S
C5736 C5737 1.327 . S
C5737 H5731 0.950 . S
C5737 C5736 1.327 . S
C5737 C5741 1.429 . S
C5738 C5721 1.574 . S
C5738 H5732 0.949 . S
C5738 C5742 1.368 . S
C5739 C5720 1.429 . S
C5739 C5733 1.429 . S
C5739 C5740 1.523 . S
C5740 C5721 1.368 . S
C5740 C5734 1.368 . S
C5740 C5739 1.523 . S
C5741 C5725 1.429 . S
C5741 C5737 1.429 . S
C5741 C5742 1.523 . S
C5742 C5726 1.368 . S
C5742 C5738 1.368 . S
C5742 C5741 1.523 . S
H5743 C5718 0.950 . S
H5744 C5720 0.950 . S
H5745 C5721 0.949 . S
H5746 C5723 0.950 . S
H5747 C5725 0.950 . S
C5748 C5749 1.349 . S
C5748 C5750 1.327 . S
C5748 H5773 0.950 . S
C5749 C5748 1.349 . S
C5749 C5765 1.349 . S
C5750 C5748 1.327 . S
C5750 C5769 1.429 . S
C5750 H5774 0.950 . S
C5751 C5768 1.574 . S
C5751 C5770 1.368 . S
C5751 H5775 0.949 . S
H5752 C5756 0.949 . S
C5753 C5754 1.349 . S
C5753 C5755 1.327 . S
C5753 H5776 0.950 . S
C5754 C5753 1.349 . S
C5754 C5766 1.349 . S
C5755 C5753 1.327 . S
C5755 C5771 1.429 . S
C5755 H5777 0.950 . S
C5756 H5752 0.949 . S
C5756 C5764 1.574 . S
C5756 C5772 1.368 . S
H5757 C5765 0.950 . S
H5758 C5763 0.950 . S
H5759 C5764 0.949 . S
H5760 C5766 0.950 . S
H5761 C5767 0.950 . S
H5762 C5768 0.949 . S
C5763 H5758 0.950 . S
C5763 C5765 1.327 . S
C5763 C5769 1.429 . S
C5764 C5756 1.574 . S
C5764 H5759 0.949 . S
C5764 C5770 1.368 . S
C5765 C5749 1.349 . S
C5765 H5757 0.950 . S
C5765 C5763 1.327 . S
C5766 C5754 1.349 . S
C5766 H5760 0.950 . S
C5766 C5767 1.327 . S
C5767 H5761 0.950 . S
C5767 C5766 1.327 . S
C5767 C5771 1.429 . S
C5768 C5751 1.574 . S
C5768 H5762 0.949 . S
C5768 C5772 1.368 . S
C5769 C5750 1.429 . S
C5769 C5763 1.429 . S
C5769 C5770 1.523 . S
C5770 C5751 1.368 . S
C5770 C5764 1.368 . S
C5770 C5769 1.523 . S
C5771 C5755 1.429 . S
C5771 C5767 1.429 . S
C5771 C5772 1.523 . S
C5772 C5756 1.368 . S
C5772 C5768 1.368 . S
C5772 C5771 1.523 . S
H5773 C5748 0.950 . S
H5774 C5750 0.950 . S
H5775 C5751 0.949 . S
H5776 C5753 0.950 . S
H5777 C5755 0.950 . S
C5778 C5779 1.349 . S
C5778 C5780 1.327 . S
C5778 H5803 0.950 . S
C5779 C5778 1.349 . S
C5779 C5795 1.349 . S
C5780 C5778 1.327 . S
C5780 C5799 1.429 . S
C5780 H5804 0.950 . S
C5781 C5798 1.574 . S
C5781 C5800 1.368 . S
C5781 H5805 0.949 . S
H5782 C5786 0.949 . S
C5783 C5784 1.349 . S
C5783 C5785 1.327 . S
C5783 H5806 0.950 . S
C5784 C5783 1.349 . S
C5784 C5796 1.349 . S
C5785 C5783 1.327 . S
C5785 C5801 1.429 . S
C5785 H5807 0.950 . S
C5786 H5782 0.949 . S
C5786 C5794 1.574 . S
C5786 C5802 1.368 . S
H5787 C5795 0.950 . S
H5788 C5793 0.950 . S
H5789 C5794 0.949 . S
H5790 C5796 0.950 . S
H5791 C5797 0.950 . S
H5792 C5798 0.949 . S
C5793 H5788 0.950 . S
C5793 C5795 1.327 . S
C5793 C5799 1.429 . S
C5794 C5786 1.574 . S
C5794 H5789 0.949 . S
C5794 C5800 1.368 . S
C5795 C5779 1.349 . S
C5795 H5787 0.950 . S
C5795 C5793 1.327 . S
C5796 C5784 1.349 . S
C5796 H5790 0.950 . S
C5796 C5797 1.327 . S
C5797 H5791 0.950 . S
C5797 C5796 1.327 . S
C5797 C5801 1.429 . S
C5798 C5781 1.574 . S
C5798 H5792 0.949 . S
C5798 C5802 1.368 . S
C5799 C5780 1.429 . S
C5799 C5793 1.429 . S
C5799 C5800 1.523 . S
C5800 C5781 1.368 . S
C5800 C5794 1.368 . S
C5800 C5799 1.523 . S
C5801 C5785 1.429 . S
C5801 C5797 1.429 . S
C5801 C5802 1.523 . S
C5802 C5786 1.368 . S
C5802 C5798 1.368 . S
C5802 C5801 1.523 . S
H5803 C5778 0.950 . S
H5804 C5780 0.950 . S
H5805 C5781 0.949 . S
H5806 C5783 0.950 . S
H5807 C5785 0.950 . S
C5808 C5809 1.349 . S
C5808 C5810 1.327 . S
C5808 H5833 0.950 . S
C5809 C5808 1.349 . S
C5809 C5825 1.349 . S
C5810 C5808 1.327 . S
C5810 C5829 1.429 . S
C5810 H5834 0.950 . S
C5811 C5828 1.574 . S
C5811 C5830 1.368 . S
C5811 H5835 0.949 . S
H5812 C5816 0.949 . S
C5813 C5814 1.349 . S
C5813 C5815 1.327 . S
C5813 H5836 0.950 . S
C5814 C5813 1.349 . S
C5814 C5826 1.349 . S
C5815 C5813 1.327 . S
C5815 C5831 1.429 . S
C5815 H5837 0.950 . S
C5816 H5812 0.949 . S
C5816 C5824 1.574 . S
C5816 C5832 1.368 . S
H5817 C5825 0.950 . S
H5818 C5823 0.950 . S
H5819 C5824 0.949 . S
H5820 C5826 0.950 . S
H5821 C5827 0.950 . S
H5822 C5828 0.949 . S
C5823 H5818 0.950 . S
C5823 C5825 1.327 . S
C5823 C5829 1.429 . S
C5824 C5816 1.574 . S
C5824 H5819 0.949 . S
C5824 C5830 1.368 . S
C5825 C5809 1.349 . S
C5825 H5817 0.950 . S
C5825 C5823 1.327 . S
C5826 C5814 1.349 . S
C5826 H5820 0.950 . S
C5826 C5827 1.327 . S
C5827 H5821 0.950 . S
C5827 C5826 1.327 . S
C5827 C5831 1.429 . S
C5828 C5811 1.574 . S
C5828 H5822 0.949 . S
C5828 C5832 1.368 . S
C5829 C5810 1.429 . S
C5829 C5823 1.429 . S
C5829 C5830 1.523 . S
C5830 C5811 1.368 . S
C5830 C5824 1.368 . S
C5830 C5829 1.523 . S
C5831 C5815 1.429 . S
C5831 C5827 1.429 . S
C5831 C5832 1.523 . S
C5832 C5816 1.368 . S
C5832 C5828 1.368 . S
C5832 C5831 1.523 . S
H5833 C5808 0.950 . S
H5834 C5810 0.950 . S
H5835 C5811 0.949 . S
H5836 C5813 0.950 . S
H5837 C5815 0.950 . S
C5838 C5839 1.349 . S
C5838 C5840 1.327 . S
C5838 H5863 0.950 . S
C5839 C5838 1.349 . S
C5839 C5855 1.349 . S
C5840 C5838 1.327 . S
C5840 C5859 1.429 . S
C5840 H5864 0.950 . S
C5841 C5858 1.574 . S
C5841 C5860 1.368 . S
C5841 H5865 0.949 . S
H5842 C5846 0.949 . S
C5843 C5844 1.349 . S
C5843 C5845 1.327 . S
C5843 H5866 0.950 . S
C5844 C5843 1.349 . S
C5844 C5856 1.349 . S
C5845 C5843 1.327 . S
C5845 C5861 1.429 . S
C5845 H5867 0.950 . S
C5846 H5842 0.949 . S
C5846 C5854 1.574 . S
C5846 C5862 1.368 . S
H5847 C5855 0.950 . S
H5848 C5853 0.950 . S
H5849 C5854 0.949 . S
H5850 C5856 0.950 . S
H5851 C5857 0.950 . S
H5852 C5858 0.949 . S
C5853 H5848 0.950 . S
C5853 C5855 1.327 . S
C5853 C5859 1.429 . S
C5854 C5846 1.574 . S
C5854 H5849 0.949 . S
C5854 C5860 1.368 . S
C5855 C5839 1.349 . S
C5855 H5847 0.950 . S
C5855 C5853 1.327 . S
C5856 C5844 1.349 . S
C5856 H5850 0.950 . S
C5856 C5857 1.327 . S
C5857 H5851 0.950 . S
C5857 C5856 1.327 . S
C5857 C5861 1.429 . S
C5858 C5841 1.574 . S
C5858 H5852 0.949 . S
C5858 C5862 1.368 . S
C5859 C5840 1.429 . S
C5859 C5853 1.429 . S
C5859 C5860 1.523 . S
C5860 C5841 1.368 . S
C5860 C5854 1.368 . S
C5860 C5859 1.523 . S
C5861 C5845 1.429 . S
C5861 C5857 1.429 . S
C5861 C5862 1.523 . S
C5862 C5846 1.368 . S
C5862 C5858 1.368 . S
C5862 C5861 1.523 . S
H5863 C5838 0.950 . S
H5864 C5840 0.950 . S
H5865 C5841 0.949 . S
H5866 C5843 0.950 . S
H5867 C5845 0.950 . S
C5868 C5869 1.349 . S
C5868 C5870 1.327 . S
C5868 H5893 0.950 . S
C5869 C5868 1.349 . S
C5869 C5885 1.349 . S
C5870 C5868 1.327 . S
C5870 C5889 1.429 . S
C5870 H5894 0.950 . S
C5871 C5888 1.574 . S
C5871 C5890 1.368 . S
C5871 H5895 0.949 . S
H5872 C5876 0.949 . S
C5873 C5874 1.349 . S
C5873 C5875 1.327 . S
C5873 H5896 0.950 . S
C5874 C5873 1.349 . S
C5874 C5886 1.349 . S
C5875 C5873 1.327 . S
C5875 C5891 1.429 . S
C5875 H5897 0.950 . S
C5876 H5872 0.949 . S
C5876 C5884 1.574 . S
C5876 C5892 1.368 . S
H5877 C5885 0.950 . S
H5878 C5883 0.950 . S
H5879 C5884 0.949 . S
H5880 C5886 0.950 . S
H5881 C5887 0.950 . S
H5882 C5888 0.949 . S
C5883 H5878 0.950 . S
C5883 C5885 1.327 . S
C5883 C5889 1.429 . S
C5884 C5876 1.574 . S
C5884 H5879 0.949 . S
C5884 C5890 1.368 . S
C5885 C5869 1.349 . S
C5885 H5877 0.950 . S
C5885 C5883 1.327 . S
C5886 C5874 1.349 . S
C5886 H5880 0.950 . S
C5886 C5887 1.327 . S
C5887 H5881 0.950 . S
C5887 C5886 1.327 . S
C5887 C5891 1.429 . S
C5888 C5871 1.574 . S
C5888 H5882 0.949 . S
C5888 C5892 1.368 . S
C5889 C5870 1.429 . S
C5889 C5883 1.429 . S
C5889 C5890 1.523 . S
C5890 C5871 1.368 . S
C5890 C5884 1.368 . S
C5890 C5889 1.523 . S
C5891 C5875 1.429 . S
C5891 C5887 1.429 . S
C5891 C5892 1.523 . S
C5892 C5876 1.368 . S
C5892 C5888 1.368 . S
C5892 C5891 1.523 . S
H5893 C5868 0.950 . S
H5894 C5870 0.950 . S
H5895 C5871 0.949 . S
H5896 C5873 0.950 . S
H5897 C5875 0.950 . S
C5898 C5899 1.349 . S
C5898 C5900 1.327 . S
C5898 H5923 0.950 . S
C5899 C5898 1.349 . S
C5899 C5915 1.349 . S
C5900 C5898 1.327 . S
C5900 C5919 1.429 . S
C5900 H5924 0.950 . S
C5901 C5918 1.574 . S
C5901 C5920 1.368 . S
C5901 H5925 0.949 . S
H5902 C5906 0.949 . S
C5903 C5904 1.349 . S
C5903 C5905 1.327 . S
C5903 H5926 0.950 . S
C5904 C5903 1.349 . S
C5904 C5916 1.349 . S
C5905 C5903 1.327 . S
C5905 C5921 1.429 . S
C5905 H5927 0.950 . S
C5906 H5902 0.949 . S
C5906 C5914 1.574 . S
C5906 C5922 1.368 . S
H5907 C5915 0.950 . S
H5908 C5913 0.950 . S
H5909 C5914 0.949 . S
H5910 C5916 0.950 . S
H5911 C5917 0.950 . S
H5912 C5918 0.949 . S
C5913 H5908 0.950 . S
C5913 C5915 1.327 . S
C5913 C5919 1.429 . S
C5914 C5906 1.574 . S
C5914 H5909 0.949 . S
C5914 C5920 1.368 . S
C5915 C5899 1.349 . S
C5915 H5907 0.950 . S
C5915 C5913 1.327 . S
C5916 C5904 1.349 . S
C5916 H5910 0.950 . S
C5916 C5917 1.327 . S
C5917 H5911 0.950 . S
C5917 C5916 1.327 . S
C5917 C5921 1.429 . S
C5918 C5901 1.574 . S
C5918 H5912 0.949 . S
C5918 C5922 1.368 . S
C5919 C5900 1.429 . S
C5919 C5913 1.429 . S
C5919 C5920 1.523 . S
C5920 C5901 1.368 . S
C5920 C5914 1.368 . S
C5920 C5919 1.523 . S
C5921 C5905 1.429 . S
C5921 C5917 1.429 . S
C5921 C5922 1.523 . S
C5922 C5906 1.368 . S
C5922 C5918 1.368 . S
C5922 C5921 1.523 . S
H5923 C5898 0.950 . S
H5924 C5900 0.950 . S
H5925 C5901 0.949 . S
H5926 C5903 0.950 . S
H5927 C5905 0.950 . S
C5928 C5929 1.349 . S
C5928 C5930 1.327 . S
C5928 H5953 0.950 . S
C5929 C5928 1.349 . S
C5929 C5945 1.349 . S
C5930 C5928 1.327 . S
C5930 C5949 1.429 . S
C5930 H5954 0.950 . S
C5931 C5948 1.574 . S
C5931 C5950 1.368 . S
C5931 H5955 0.949 . S
H5932 C5936 0.949 . S
C5933 C5934 1.349 . S
C5933 C5935 1.327 . S
C5933 H5956 0.950 . S
C5934 C5933 1.349 . S
C5934 C5946 1.349 . S
C5935 C5933 1.327 . S
C5935 C5951 1.429 . S
C5935 H5957 0.950 . S
C5936 H5932 0.949 . S
C5936 C5944 1.574 . S
C5936 C5952 1.368 . S
H5937 C5945 0.950 . S
H5938 C5943 0.950 . S
H5939 C5944 0.949 . S
H5940 C5946 0.950 . S
H5941 C5947 0.950 . S
H5942 C5948 0.949 . S
C5943 H5938 0.950 . S
C5943 C5945 1.327 . S
C5943 C5949 1.429 . S
C5944 C5936 1.574 . S
C5944 H5939 0.949 . S
C5944 C5950 1.368 . S
C5945 C5929 1.349 . S
C5945 H5937 0.950 . S
C5945 C5943 1.327 . S
C5946 C5934 1.349 . S
C5946 H5940 0.950 . S
C5946 C5947 1.327 . S
C5947 H5941 0.950 . S
C5947 C5946 1.327 . S
C5947 C5951 1.429 . S
C5948 C5931 1.574 . S
C5948 H5942 0.949 . S
C5948 C5952 1.368 . S
C5949 C5930 1.429 . S
C5949 C5943 1.429 . S
C5949 C5950 1.523 . S
C5950 C5931 1.368 . S
C5950 C5944 1.368 . S
C5950 C5949 1.523 . S
C5951 C5935 1.429 . S
C5951 C5947 1.429 . S
C5951 C5952 1.523 . S
C5952 C5936 1.368 . S
C5952 C5948 1.368 . S
C5952 C5951 1.523 . S
H5953 C5928 0.950 . S
H5954 C5930 0.950 . S
H5955 C5931 0.949 . S
H5956 C5933 0.950 . S
H5957 C5935 0.950 . S
C5958 C5959 1.349 . S
C5958 C5960 1.327 . S
C5958 H5983 0.950 . S
C5959 C5958 1.349 . S
C5959 C5975 1.349 . S
C5960 C5958 1.327 . S
C5960 C5979 1.429 . S
C5960 H5984 0.950 . S
C5961 C5978 1.574 . S
C5961 C5980 1.368 . S
C5961 H5985 0.949 . S
H5962 C5966 0.949 . S
C5963 C5964 1.349 . S
C5963 C5965 1.327 . S
C5963 H5986 0.950 . S
C5964 C5963 1.349 . S
C5964 C5976 1.349 . S
C5965 C5963 1.327 . S
C5965 C5981 1.429 . S
C5965 H5987 0.950 . S
C5966 H5962 0.949 . S
C5966 C5974 1.574 . S
C5966 C5982 1.368 . S
H5967 C5975 0.950 . S
H5968 C5973 0.950 . S
H5969 C5974 0.949 . S
H5970 C5976 0.950 . S
H5971 C5977 0.950 . S
H5972 C5978 0.949 . S
C5973 H5968 0.950 . S
C5973 C5975 1.327 . S
C5973 C5979 1.429 . S
C5974 C5966 1.574 . S
C5974 H5969 0.949 . S
C5974 C5980 1.368 . S
C5975 C5959 1.349 . S
C5975 H5967 0.950 . S
C5975 C5973 1.327 . S
C5976 C5964 1.349 . S
C5976 H5970 0.950 . S
C5976 C5977 1.327 . S
C5977 H5971 0.950 . S
C5977 C5976 1.327 . S
C5977 C5981 1.429 . S
C5978 C5961 1.574 . S
C5978 H5972 0.949 . S
C5978 C5982 1.368 . S
C5979 C5960 1.429 . S
C5979 C5973 1.429 . S
C5979 C5980 1.523 . S
C5980 C5961 1.368 . S
C5980 C5974 1.368 . S
C5980 C5979 1.523 . S
C5981 C5965 1.429 . S
C5981 C5977 1.429 . S
C5981 C5982 1.523 . S
C5982 C5966 1.368 . S
C5982 C5978 1.368 . S
C5982 C5981 1.523 . S
H5983 C5958 0.950 . S
H5984 C5960 0.950 . S
H5985 C5961 0.949 . S
H5986 C5963 0.950 . S
H5987 C5965 0.950 . S
C5988 C5989 1.349 . S
C5988 C5990 1.327 . S
C5988 H6013 0.950 . S
C5989 C5988 1.349 . S
C5989 C6005 1.349 . S
C5990 C5988 1.327 . S
C5990 C6009 1.429 . S
C5990 H6014 0.950 . S
C5991 C6008 1.574 . S
C5991 C6010 1.368 . S
C5991 H6015 0.949 . S
H5992 C5996 0.949 . S
C5993 C5994 1.349 . S
C5993 C5995 1.327 . S
C5993 H6016 0.950 . S
C5994 C5993 1.349 . S
C5994 C6006 1.349 . S
C5995 C5993 1.327 . S
C5995 C6011 1.429 . S
C5995 H6017 0.950 . S
C5996 H5992 0.949 . S
C5996 C6004 1.574 . S
C5996 C6012 1.368 . S
H5997 C6005 0.950 . S
H5998 C6003 0.950 . S
H5999 C6004 0.949 . S
H6000 C6006 0.950 . S
H6001 C6007 0.950 . S
H6002 C6008 0.949 . S
C6003 H5998 0.950 . S
C6003 C6005 1.327 . S
C6003 C6009 1.429 . S
C6004 C5996 1.574 . S
C6004 H5999 0.949 . S
C6004 C6010 1.368 . S
C6005 C5989 1.349 . S
C6005 H5997 0.950 . S
C6005 C6003 1.327 . S
C6006 C5994 1.349 . S
C6006 H6000 0.950 . S
C6006 C6007 1.327 . S
C6007 H6001 0.950 . S
C6007 C6006 1.327 . S
C6007 C6011 1.429 . S
C6008 C5991 1.574 . S
C6008 H6002 0.949 . S
C6008 C6012 1.368 . S
C6009 C5990 1.429 . S
C6009 C6003 1.429 . S
C6009 C6010 1.523 . S
C6010 C5991 1.368 . S
C6010 C6004 1.368 . S
C6010 C6009 1.523 . S
C6011 C5995 1.429 . S
C6011 C6007 1.429 . S
C6011 C6012 1.523 . S
C6012 C5996 1.368 . S
C6012 C6008 1.368 . S
C6012 C6011 1.523 . S
H6013 C5988 0.950 . S
H6014 C5990 0.950 . S
H6015 C5991 0.949 . S
H6016 C5993 0.950 . S
H6017 C5995 0.950 . S
C6018 C6019 1.349 . S
C6018 C6020 1.327 . S
C6018 H6043 0.950 . S
C6019 C6018 1.349 . S
C6019 C6035 1.349 . S
C6020 C6018 1.327 . S
C6020 C6039 1.429 . S
C6020 H6044 0.950 . S
C6021 C6038 1.574 . S
C6021 C6040 1.368 . S
C6021 H6045 0.949 . S
H6022 C6026 0.949 . S
C6023 C6024 1.349 . S
C6023 C6025 1.327 . S
C6023 H6046 0.950 . S
C6024 C6023 1.349 . S
C6024 C6036 1.349 . S
C6025 C6023 1.327 . S
C6025 C6041 1.429 . S
C6025 H6047 0.950 . S
C6026 H6022 0.949 . S
C6026 C6034 1.574 . S
C6026 C6042 1.368 . S
H6027 C6035 0.950 . S
H6028 C6033 0.950 . S
H6029 C6034 0.949 . S
H6030 C6036 0.950 . S
H6031 C6037 0.950 . S
H6032 C6038 0.949 . S
C6033 H6028 0.950 . S
C6033 C6035 1.327 . S
C6033 C6039 1.429 . S
C6034 C6026 1.574 . S
C6034 H6029 0.949 . S
C6034 C6040 1.368 . S
C6035 C6019 1.349 . S
C6035 H6027 0.950 . S
C6035 C6033 1.327 . S
C6036 C6024 1.349 . S
C6036 H6030 0.950 . S
C6036 C6037 1.327 . S
C6037 H6031 0.950 . S
C6037 C6036 1.327 . S
C6037 C6041 1.429 . S
C6038 C6021 1.574 . S
C6038 H6032 0.949 . S
C6038 C6042 1.368 . S
C6039 C6020 1.429 . S
C6039 C6033 1.429 . S
C6039 C6040 1.523 . S
C6040 C6021 1.368 . S
C6040 C6034 1.368 . S
C6040 C6039 1.523 . S
C6041 C6025 1.429 . S
C6041 C6037 1.429 . S
C6041 C6042 1.523 . S
C6042 C6026 1.368 . S
C6042 C6038 1.368 . S
C6042 C6041 1.523 . S
H6043 C6018 0.950 . S
H6044 C6020 0.950 . S
H6045 C6021 0.949 . S
H6046 C6023 0.950 . S
H6047 C6025 0.950 . S
C6048 C6049 1.349 . S
C6048 C6050 1.327 . S
C6048 H6073 0.950 . S
C6049 C6048 1.349 . S
C6049 C6065 1.349 . S
C6050 C6048 1.327 . S
C6050 C6069 1.429 . S
C6050 H6074 0.950 . S
C6051 C6068 1.574 . S
C6051 C6070 1.368 . S
C6051 H6075 0.949 . S
H6052 C6056 0.949 . S
C6053 C6054 1.349 . S
C6053 C6055 1.327 . S
C6053 H6076 0.950 . S
C6054 C6053 1.349 . S
C6054 C6066 1.349 . S
C6055 C6053 1.327 . S
C6055 C6071 1.429 . S
C6055 H6077 0.950 . S
C6056 H6052 0.949 . S
C6056 C6064 1.574 . S
C6056 C6072 1.368 . S
H6057 C6065 0.950 . S
H6058 C6063 0.950 . S
H6059 C6064 0.949 . S
H6060 C6066 0.950 . S
H6061 C6067 0.950 . S
H6062 C6068 0.949 . S
C6063 H6058 0.950 . S
C6063 C6065 1.327 . S
C6063 C6069 1.429 . S
C6064 C6056 1.574 . S
C6064 H6059 0.949 . S
C6064 C6070 1.368 . S
C6065 C6049 1.349 . S
C6065 H6057 0.950 . S
C6065 C6063 1.327 . S
C6066 C6054 1.349 . S
C6066 H6060 0.950 . S
C6066 C6067 1.327 . S
C6067 H6061 0.950 . S
C6067 C6066 1.327 . S
C6067 C6071 1.429 . S
C6068 C6051 1.574 . S
C6068 H6062 0.949 . S
C6068 C6072 1.368 . S
C6069 C6050 1.429 . S
C6069 C6063 1.429 . S
C6069 C6070 1.523 . S
C6070 C6051 1.368 . S
C6070 C6064 1.368 . S
C6070 C6069 1.523 . S
C6071 C6055 1.429 . S
C6071 C6067 1.429 . S
C6071 C6072 1.523 . S
C6072 C6056 1.368 . S
C6072 C6068 1.368 . S
C6072 C6071 1.523 . S
H6073 C6048 0.950 . S
H6074 C6050 0.950 . S
H6075 C6051 0.949 . S
H6076 C6053 0.950 . S
H6077 C6055 0.950 . S
C6078 C6079 1.349 . S
C6078 C6080 1.327 . S
C6078 H6103 0.950 . S
C6079 C6078 1.349 . S
C6079 C6095 1.349 . S
C6080 C6078 1.327 . S
C6080 C6099 1.429 . S
C6080 H6104 0.950 . S
C6081 C6098 1.574 . S
C6081 C6100 1.368 . S
C6081 H6105 0.949 . S
H6082 C6086 0.949 . S
C6083 C6084 1.349 . S
C6083 C6085 1.327 . S
C6083 H6106 0.950 . S
C6084 C6083 1.349 . S
C6084 C6096 1.349 . S
C6085 C6083 1.327 . S
C6085 C6101 1.429 . S
C6085 H6107 0.950 . S
C6086 H6082 0.949 . S
C6086 C6094 1.574 . S
C6086 C6102 1.368 . S
H6087 C6095 0.950 . S
H6088 C6093 0.950 . S
H6089 C6094 0.949 . S
H6090 C6096 0.950 . S
H6091 C6097 0.950 . S
H6092 C6098 0.949 . S
C6093 H6088 0.950 . S
C6093 C6095 1.327 . S
C6093 C6099 1.429 . S
C6094 C6086 1.574 . S
C6094 H6089 0.949 . S
C6094 C6100 1.368 . S
C6095 C6079 1.349 . S
C6095 H6087 0.950 . S
C6095 C6093 1.327 . S
C6096 C6084 1.349 . S
C6096 H6090 0.950 . S
C6096 C6097 1.327 . S
C6097 H6091 0.950 . S
C6097 C6096 1.327 . S
C6097 C6101 1.429 . S
C6098 C6081 1.574 . S
C6098 H6092 0.949 . S
C6098 C6102 1.368 . S
C6099 C6080 1.429 . S
C6099 C6093 1.429 . S
C6099 C6100 1.523 . S
C6100 C6081 1.368 . S
C6100 C6094 1.368 . S
C6100 C6099 1.523 . S
C6101 C6085 1.429 . S
C6101 C6097 1.429 . S
C6101 C6102 1.523 . S
C6102 C6086 1.368 . S
C6102 C6098 1.368 . S
C6102 C6101 1.523 . S
H6103 C6078 0.950 . S
H6104 C6080 0.950 . S
H6105 C6081 0.949 . S
H6106 C6083 0.950 . S
H6107 C6085 0.950 . S
C6108 C6109 1.349 . S
C6108 C6110 1.327 . S
C6108 H6133 0.950 . S
C6109 C6108 1.349 . S
C6109 C6125 1.349 . S
C6110 C6108 1.327 . S
C6110 C6129 1.429 . S
C6110 H6134 0.950 . S
C6111 C6128 1.574 . S
C6111 C6130 1.368 . S
C6111 H6135 0.949 . S
H6112 C6116 0.949 . S
C6113 C6114 1.349 . S
C6113 C6115 1.327 . S
C6113 H6136 0.950 . S
C6114 C6113 1.349 . S
C6114 C6126 1.349 . S
C6115 C6113 1.327 . S
C6115 C6131 1.429 . S
C6115 H6137 0.950 . S
C6116 H6112 0.949 . S
C6116 C6124 1.574 . S
C6116 C6132 1.368 . S
H6117 C6125 0.950 . S
H6118 C6123 0.950 . S
H6119 C6124 0.949 . S
H6120 C6126 0.950 . S
H6121 C6127 0.950 . S
H6122 C6128 0.949 . S
C6123 H6118 0.950 . S
C6123 C6125 1.327 . S
C6123 C6129 1.429 . S
C6124 C6116 1.574 . S
C6124 H6119 0.949 . S
C6124 C6130 1.368 . S
C6125 C6109 1.349 . S
C6125 H6117 0.950 . S
C6125 C6123 1.327 . S
C6126 C6114 1.349 . S
C6126 H6120 0.950 . S
C6126 C6127 1.327 . S
C6127 H6121 0.950 . S
C6127 C6126 1.327 . S
C6127 C6131 1.429 . S
C6128 C6111 1.574 . S
C6128 H6122 0.949 . S
C6128 C6132 1.368 . S
C6129 C6110 1.429 . S
C6129 C6123 1.429 . S
C6129 C6130 1.523 . S
C6130 C6111 1.368 . S
C6130 C6124 1.368 . S
C6130 C6129 1.523 . S
C6131 C6115 1.429 . S
C6131 C6127 1.429 . S
C6131 C6132 1.523 . S
C6132 C6116 1.368 . S
C6132 C6128 1.368 . S
C6132 C6131 1.523 . S
H6133 C6108 0.950 . S
H6134 C6110 0.950 . S
H6135 C6111 0.949 . S
H6136 C6113 0.950 . S
H6137 C6115 0.950 . S
C6138 C6139 1.349 . S
C6138 C6140 1.327 . S
C6138 H6163 0.950 . S
C6139 C6138 1.349 . S
C6139 C6155 1.349 . S
C6140 C6138 1.327 . S
C6140 C6159 1.429 . S
C6140 H6164 0.950 . S
C6141 C6158 1.574 . S
C6141 C6160 1.368 . S
C6141 H6165 0.949 . S
H6142 C6146 0.949 . S
C6143 C6144 1.349 . S
C6143 C6145 1.327 . S
C6143 H6166 0.950 . S
C6144 C6143 1.349 . S
C6144 C6156 1.349 . S
C6145 C6143 1.327 . S
C6145 C6161 1.429 . S
C6145 H6167 0.950 . S
C6146 H6142 0.949 . S
C6146 C6154 1.574 . S
C6146 C6162 1.368 . S
H6147 C6155 0.950 . S
H6148 C6153 0.950 . S
H6149 C6154 0.949 . S
H6150 C6156 0.950 . S
H6151 C6157 0.950 . S
H6152 C6158 0.949 . S
C6153 H6148 0.950 . S
C6153 C6155 1.327 . S
C6153 C6159 1.429 . S
C6154 C6146 1.574 . S
C6154 H6149 0.949 . S
C6154 C6160 1.368 . S
C6155 C6139 1.349 . S
C6155 H6147 0.950 . S
C6155 C6153 1.327 . S
C6156 C6144 1.349 . S
C6156 H6150 0.950 . S
C6156 C6157 1.327 . S
C6157 H6151 0.950 . S
C6157 C6156 1.327 . S
C6157 C6161 1.429 . S
C6158 C6141 1.574 . S
C6158 H6152 0.949 . S
C6158 C6162 1.368 . S
C6159 C6140 1.429 . S
C6159 C6153 1.429 . S
C6159 C6160 1.523 . S
C6160 C6141 1.368 . S
C6160 C6154 1.368 . S
C6160 C6159 1.523 . S
C6161 C6145 1.429 . S
C6161 C6157 1.429 . S
C6161 C6162 1.523 . S
C6162 C6146 1.368 . S
C6162 C6158 1.368 . S
C6162 C6161 1.523 . S
H6163 C6138 0.950 . S
H6164 C6140 0.950 . S
H6165 C6141 0.949 . S
H6166 C6143 0.950 . S
H6167 C6145 0.950 . S
C6168 C6169 1.349 . S
C6168 C6170 1.327 . S
C6168 H6193 0.950 . S
C6169 C6168 1.349 . S
C6169 C6185 1.349 . S
C6170 C6168 1.327 . S
C6170 C6189 1.429 . S
C6170 H6194 0.950 . S
C6171 C6188 1.574 . S
C6171 C6190 1.368 . S
C6171 H6195 0.949 . S
H6172 C6176 0.949 . S
C6173 C6174 1.349 . S
C6173 C6175 1.327 . S
C6173 H6196 0.950 . S
C6174 C6173 1.349 . S
C6174 C6186 1.349 . S
C6175 C6173 1.327 . S
C6175 C6191 1.429 . S
C6175 H6197 0.950 . S
C6176 H6172 0.949 . S
C6176 C6184 1.574 . S
C6176 C6192 1.368 . S
H6177 C6185 0.950 . S
H6178 C6183 0.950 . S
H6179 C6184 0.949 . S
H6180 C6186 0.950 . S
H6181 C6187 0.950 . S
H6182 C6188 0.949 . S
C6183 H6178 0.950 . S
C6183 C6185 1.327 . S
C6183 C6189 1.429 . S
C6184 C6176 1.574 . S
C6184 H6179 0.949 . S
C6184 C6190 1.368 . S
C6185 C6169 1.349 . S
C6185 H6177 0.950 . S
C6185 C6183 1.327 . S
C6186 C6174 1.349 . S
C6186 H6180 0.950 . S
C6186 C6187 1.327 . S
C6187 H6181 0.950 . S
C6187 C6186 1.327 . S
C6187 C6191 1.429 . S
C6188 C6171 1.574 . S
C6188 H6182 0.949 . S
C6188 C6192 1.368 . S
C6189 C6170 1.429 . S
C6189 C6183 1.429 . S
C6189 C6190 1.523 . S
C6190 C6171 1.368 . S
C6190 C6184 1.368 . S
C6190 C6189 1.523 . S
C6191 C6175 1.429 . S
C6191 C6187 1.429 . S
C6191 C6192 1.523 . S
C6192 C6176 1.368 . S
C6192 C6188 1.368 . S
C6192 C6191 1.523 . S
H6193 C6168 0.950 . S
H6194 C6170 0.950 . S
H6195 C6171 0.949 . S
H6196 C6173 0.950 . S
H6197 C6175 0.950 . S
C6198 C6199 1.349 . S
C6198 C6200 1.327 . S
C6198 H6223 0.950 . S
C6199 C6198 1.349 . S
C6199 C6215 1.349 . S
C6200 C6198 1.327 . S
C6200 C6219 1.429 . S
C6200 H6224 0.950 . S
C6201 C6218 1.574 . S
C6201 C6220 1.368 . S
C6201 H6225 0.949 . S
H6202 C6206 0.949 . S
C6203 C6204 1.349 . S
C6203 C6205 1.327 . S
C6203 H6226 0.950 . S
C6204 C6203 1.349 . S
C6204 C6216 1.349 . S
C6205 C6203 1.327 . S
C6205 C6221 1.429 . S
C6205 H6227 0.950 . S
C6206 H6202 0.949 . S
C6206 C6214 1.574 . S
C6206 C6222 1.368 . S
H6207 C6215 0.950 . S
H6208 C6213 0.950 . S
H6209 C6214 0.949 . S
H6210 C6216 0.950 . S
H6211 C6217 0.950 . S
H6212 C6218 0.949 . S
C6213 H6208 0.950 . S
C6213 C6215 1.327 . S
C6213 C6219 1.429 . S
C6214 C6206 1.574 . S
C6214 H6209 0.949 . S
C6214 C6220 1.368 . S
C6215 C6199 1.349 . S
C6215 H6207 0.950 . S
C6215 C6213 1.327 . S
C6216 C6204 1.349 . S
C6216 H6210 0.950 . S
C6216 C6217 1.327 . S
C6217 H6211 0.950 . S
C6217 C6216 1.327 . S
C6217 C6221 1.429 . S
C6218 C6201 1.574 . S
C6218 H6212 0.949 . S
C6218 C6222 1.368 . S
C6219 C6200 1.429 . S
C6219 C6213 1.429 . S
C6219 C6220 1.523 . S
C6220 C6201 1.368 . S
C6220 C6214 1.368 . S
C6220 C6219 1.523 . S
C6221 C6205 1.429 . S
C6221 C6217 1.429 . S
C6221 C6222 1.523 . S
C6222 C6206 1.368 . S
C6222 C6218 1.368 . S
C6222 C6221 1.523 . S
H6223 C6198 0.950 . S
H6224 C6200 0.950 . S
H6225 C6201 0.949 . S
H6226 C6203 0.950 . S
H6227 C6205 0.950 . S
C6228 C6229 1.349 . S
C6228 C6230 1.327 . S
C6228 H6253 0.950 . S
C6229 C6228 1.349 . S
C6229 C6245 1.349 . S
C6230 C6228 1.327 . S
C6230 C6249 1.429 . S
C6230 H6254 0.950 . S
C6231 C6248 1.574 . S
C6231 C6250 1.368 . S
C6231 H6255 0.949 . S
H6232 C6236 0.949 . S
C6233 C6234 1.349 . S
C6233 C6235 1.327 . S
C6233 H6256 0.950 . S
C6234 C6233 1.349 . S
C6234 C6246 1.349 . S
C6235 C6233 1.327 . S
C6235 C6251 1.429 . S
C6235 H6257 0.950 . S
C6236 H6232 0.949 . S
C6236 C6244 1.574 . S
C6236 C6252 1.368 . S
H6237 C6245 0.950 . S
H6238 C6243 0.950 . S
H6239 C6244 0.949 . S
H6240 C6246 0.950 . S
H6241 C6247 0.950 . S
H6242 C6248 0.949 . S
C6243 H6238 0.950 . S
C6243 C6245 1.327 . S
C6243 C6249 1.429 . S
C6244 C6236 1.574 . S
C6244 H6239 0.949 . S
C6244 C6250 1.368 . S
C6245 C6229 1.349 . S
C6245 H6237 0.950 . S
C6245 C6243 1.327 . S
C6246 C6234 1.349 . S
C6246 H6240 0.950 . S
C6246 C6247 1.327 . S
C6247 H6241 0.950 . S
C6247 C6246 1.327 . S
C6247 C6251 1.429 . S
C6248 C6231 1.574 . S
C6248 H6242 0.949 . S
C6248 C6252 1.368 . S
C6249 C6230 1.429 . S
C6249 C6243 1.429 . S
C6249 C6250 1.523 . S
C6250 C6231 1.368 . S
C6250 C6244 1.368 . S
C6250 C6249 1.523 . S
C6251 C6235 1.429 . S
C6251 C6247 1.429 . S
C6251 C6252 1.523 . S
C6252 C6236 1.368 . S
C6252 C6248 1.368 . S
C6252 C6251 1.523 . S
H6253 C6228 0.950 . S
H6254 C6230 0.950 . S
H6255 C6231 0.949 . S
H6256 C6233 0.950 . S
H6257 C6235 0.950 . S
C6258 C6259 1.349 . S
C6258 C6260 1.327 . S
C6258 H6283 0.950 . S
C6259 C6258 1.349 . S
C6259 C6275 1.349 . S
C6260 C6258 1.327 . S
C6260 C6279 1.429 . S
C6260 H6284 0.950 . S
C6261 C6278 1.574 . S
C6261 C6280 1.368 . S
C6261 H6285 0.949 . S
H6262 C6266 0.949 . S
C6263 C6264 1.349 . S
C6263 C6265 1.327 . S
C6263 H6286 0.950 . S
C6264 C6263 1.349 . S
C6264 C6276 1.349 . S
C6265 C6263 1.327 . S
C6265 C6281 1.429 . S
C6265 H6287 0.950 . S
C6266 H6262 0.949 . S
C6266 C6274 1.574 . S
C6266 C6282 1.368 . S
H6267 C6275 0.950 . S
H6268 C6273 0.950 . S
H6269 C6274 0.949 . S
H6270 C6276 0.950 . S
H6271 C6277 0.950 . S
H6272 C6278 0.949 . S
C6273 H6268 0.950 . S
C6273 C6275 1.327 . S
C6273 C6279 1.429 . S
C6274 C6266 1.574 . S
C6274 H6269 0.949 . S
C6274 C6280 1.368 . S
C6275 C6259 1.349 . S
C6275 H6267 0.950 . S
C6275 C6273 1.327 . S
C6276 C6264 1.349 . S
C6276 H6270 0.950 . S
C6276 C6277 1.327 . S
C6277 H6271 0.950 . S
C6277 C6276 1.327 . S
C6277 C6281 1.429 . S
C6278 C6261 1.574 . S
C6278 H6272 0.949 . S
C6278 C6282 1.368 . S
C6279 C6260 1.429 . S
C6279 C6273 1.429 . S
C6279 C6280 1.523 . S
C6280 C6261 1.368 . S
C6280 C6274 1.368 . S
C6280 C6279 1.523 . S
C6281 C6265 1.429 . S
C6281 C6277 1.429 . S
C6281 C6282 1.523 . S
C6282 C6266 1.368 . S
C6282 C6278 1.368 . S
C6282 C6281 1.523 . S
H6283 C6258 0.950 . S
H6284 C6260 0.950 . S
H6285 C6261 0.949 . S
H6286 C6263 0.950 . S
H6287 C6265 0.950 . S
C6288 C6289 1.349 . S
C6288 C6290 1.327 . S
C6288 H6313 0.950 . S
C6289 C6288 1.349 . S
C6289 C6305 1.349 . S
C6290 C6288 1.327 . S
C6290 C6309 1.429 . S
C6290 H6314 0.950 . S
C6291 C6308 1.574 . S
C6291 C6310 1.368 . S
C6291 H6315 0.949 . S
H6292 C6296 0.949 . S
C6293 C6294 1.349 . S
C6293 C6295 1.327 . S
C6293 H6316 0.950 . S
C6294 C6293 1.349 . S
C6294 C6306 1.349 . S
C6295 C6293 1.327 . S
C6295 C6311 1.429 . S
C6295 H6317 0.950 . S
C6296 H6292 0.949 . S
C6296 C6304 1.574 . S
C6296 C6312 1.368 . S
H6297 C6305 0.950 . S
H6298 C6303 0.950 . S
H6299 C6304 0.949 . S
H6300 C6306 0.950 . S
H6301 C6307 0.950 . S
H6302 C6308 0.949 . S
C6303 H6298 0.950 . S
C6303 C6305 1.327 . S
C6303 C6309 1.429 . S
C6304 C6296 1.574 . S
C6304 H6299 0.949 . S
C6304 C6310 1.368 . S
C6305 C6289 1.349 . S
C6305 H6297 0.950 . S
C6305 C6303 1.327 . S
C6306 C6294 1.349 . S
C6306 H6300 0.950 . S
C6306 C6307 1.327 . S
C6307 H6301 0.950 . S
C6307 C6306 1.327 . S
C6307 C6311 1.429 . S
C6308 C6291 1.574 . S
C6308 H6302 0.949 . S
C6308 C6312 1.368 . S
C6309 C6290 1.429 . S
C6309 C6303 1.429 . S
C6309 C6310 1.523 . S
C6310 C6291 1.368 . S
C6310 C6304 1.368 . S
C6310 C6309 1.523 . S
C6311 C6295 1.429 . S
C6311 C6307 1.429 . S
C6311 C6312 1.523 . S
C6312 C6296 1.368 . S
C6312 C6308 1.368 . S
C6312 C6311 1.523 . S
H6313 C6288 0.950 . S
H6314 C6290 0.950 . S
H6315 C6291 0.949 . S
H6316 C6293 0.950 . S
H6317 C6295 0.950 . S
C6318 C6319 1.349 . S
C6318 C6320 1.327 . S
C6318 H6343 0.950 . S
C6319 C6318 1.349 . S
C6319 C6335 1.349 . S
C6320 C6318 1.327 . S
C6320 C6339 1.429 . S
C6320 H6344 0.950 . S
C6321 C6338 1.574 . S
C6321 C6340 1.368 . S
C6321 H6345 0.949 . S
H6322 C6326 0.949 . S
C6323 C6324 1.349 . S
C6323 C6325 1.327 . S
C6323 H6346 0.950 . S
C6324 C6323 1.349 . S
C6324 C6336 1.349 . S
C6325 C6323 1.327 . S
C6325 C6341 1.429 . S
C6325 H6347 0.950 . S
C6326 H6322 0.949 . S
C6326 C6334 1.574 . S
C6326 C6342 1.368 . S
H6327 C6335 0.950 . S
H6328 C6333 0.950 . S
H6329 C6334 0.949 . S
H6330 C6336 0.950 . S
H6331 C6337 0.950 . S
H6332 C6338 0.949 . S
C6333 H6328 0.950 . S
C6333 C6335 1.327 . S
C6333 C6339 1.429 . S
C6334 C6326 1.574 . S
C6334 H6329 0.949 . S
C6334 C6340 1.368 . S
C6335 C6319 1.349 . S
C6335 H6327 0.950 . S
C6335 C6333 1.327 . S
C6336 C6324 1.349 . S
C6336 H6330 0.950 . S
C6336 C6337 1.327 . S
C6337 H6331 0.950 . S
C6337 C6336 1.327 . S
C6337 C6341 1.429 . S
C6338 C6321 1.574 . S
C6338 H6332 0.949 . S
C6338 C6342 1.368 . S
C6339 C6320 1.429 . S
C6339 C6333 1.429 . S
C6339 C6340 1.523 . S
C6340 C6321 1.368 . S
C6340 C6334 1.368 . S
C6340 C6339 1.523 . S
C6341 C6325 1.429 . S
C6341 C6337 1.429 . S
C6341 C6342 1.523 . S
C6342 C6326 1.368 . S
C6342 C6338 1.368 . S
C6342 C6341 1.523 . S
H6343 C6318 0.950 . S
H6344 C6320 0.950 . S
H6345 C6321 0.949 . S
H6346 C6323 0.950 . S
H6347 C6325 0.950 . S
C6348 C6349 1.380 . S
C6348 C6350 1.383 . S
C6348 H6373 0.867 1_554 S
C6349 C6348 1.380 . S
C6349 C6365 1.349 . S
C6350 C6348 1.383 . S
C6350 C6369 1.429 . S
C6350 H6374 0.950 . S
C6351 C6368 1.574 . S
C6351 C6370 1.368 . S
C6351 H6375 0.949 . S
H6352 C6356 0.949 . S
C6353 C6354 1.349 . S
C6353 C6355 1.327 . S
C6353 H6376 0.950 . S
C6354 C6353 1.349 . S
C6354 C6366 1.349 . S
C6355 C6353 1.327 . S
C6355 C6371 1.429 . S
C6355 H6377 0.950 . S
C6356 H6352 0.949 . S
C6356 C6364 1.574 . S
C6356 C6372 1.368 . S
H6357 C6365 0.950 . S
H6358 C6363 0.950 . S
H6359 C6364 0.949 . S
H6360 C6366 0.950 . S
H6361 C6367 0.950 . S
H6362 C6368 0.949 . S
C6363 H6358 0.950 . S
C6363 C6365 1.327 . S
C6363 C6369 1.429 . S
C6364 C6356 1.574 . S
C6364 H6359 0.949 . S
C6364 C6370 1.368 . S
C6365 C6349 1.349 . S
C6365 H6357 0.950 . S
C6365 C6363 1.327 . S
C6366 C6354 1.349 . S
C6366 H6360 0.950 . S
C6366 C6367 1.327 . S
C6367 H6361 0.950 . S
C6367 C6366 1.327 . S
C6367 C6371 1.429 . S
C6368 C6351 1.574 . S
C6368 H6362 0.949 . S
C6368 C6372 1.368 . S
C6369 C6350 1.429 . S
C6369 C6363 1.429 . S
C6369 C6370 1.523 . S
C6370 C6351 1.368 . S
C6370 C6364 1.368 . S
C6370 C6369 1.523 . S
C6371 C6355 1.429 . S
C6371 C6367 1.429 . S
C6371 C6372 1.523 . S
C6372 C6356 1.368 . S
C6372 C6368 1.368 . S
C6372 C6371 1.523 . S
H6373 C6348 0.867 1_556 S
H6374 C6350 0.950 . S
H6375 C6351 0.949 . S
H6376 C6353 0.950 . S
H6377 C6355 0.950 . S
C6378 C6379 1.349 . S
C6378 C6380 1.327 . S
C6378 H6403 0.950 . S
C6379 C6378 1.349 . S
C6379 C6395 1.349 . S
C6380 C6378 1.327 . S
C6380 C6399 1.429 . S
C6380 H6404 0.950 . S
C6381 C6398 1.574 . S
C6381 C6400 1.368 . S
C6381 H6405 0.949 . S
H6382 C6386 0.949 . S
C6383 C6384 1.349 . S
C6383 C6385 1.327 . S
C6383 H6406 0.950 . S
C6384 C6383 1.349 . S
C6384 C6396 1.349 . S
C6385 C6383 1.327 . S
C6385 C6401 1.429 . S
C6385 H6407 0.950 . S
C6386 H6382 0.949 . S
C6386 C6394 1.574 . S
C6386 C6402 1.368 . S
H6387 C6395 0.950 . S
H6388 C6393 0.950 . S
H6389 C6394 0.949 . S
H6390 C6396 0.950 . S
H6391 C6397 0.950 . S
H6392 C6398 0.949 . S
C6393 H6388 0.950 . S
C6393 C6395 1.327 . S
C6393 C6399 1.429 . S
C6394 C6386 1.574 . S
C6394 H6389 0.949 . S
C6394 C6400 1.368 . S
C6395 C6379 1.349 . S
C6395 H6387 0.950 . S
C6395 C6393 1.327 . S
C6396 C6384 1.349 . S
C6396 H6390 0.950 . S
C6396 C6397 1.327 . S
C6397 H6391 0.950 . S
C6397 C6396 1.327 . S
C6397 C6401 1.429 . S
C6398 C6381 1.574 . S
C6398 H6392 0.949 . S
C6398 C6402 1.368 . S
C6399 C6380 1.429 . S
C6399 C6393 1.429 . S
C6399 C6400 1.523 . S
C6400 C6381 1.368 . S
C6400 C6394 1.368 . S
C6400 C6399 1.523 . S
C6401 C6385 1.429 . S
C6401 C6397 1.429 . S
C6401 C6402 1.523 . S
C6402 C6386 1.368 . S
C6402 C6398 1.368 . S
C6402 C6401 1.523 . S
H6403 C6378 0.950 . S
H6404 C6380 0.950 . S
H6405 C6381 0.949 . S
H6406 C6383 0.950 . S
H6407 C6385 0.950 . S
C6408 C6409 1.349 . S
C6408 C6410 1.327 . S
C6408 H6433 0.950 . S
C6409 C6408 1.349 . S
C6409 C6425 1.349 . S
C6410 C6408 1.327 . S
C6410 C6429 1.429 . S
C6410 H6434 0.950 . S
C6411 C6428 1.574 . S
C6411 C6430 1.368 . S
C6411 H6435 0.949 . S
H6412 C6416 0.949 . S
C6413 C6414 1.349 . S
C6413 C6415 1.327 . S
C6413 H6436 0.950 . S
C6414 C6413 1.349 . S
C6414 C6426 1.349 . S
C6415 C6413 1.327 . S
C6415 C6431 1.429 . S
C6415 H6437 0.950 . S
C6416 H6412 0.949 . S
C6416 C6424 1.574 . S
C6416 C6432 1.368 . S
H6417 C6425 0.940 . S
H6418 C6423 0.950 . S
H6419 C6424 0.949 . S
H6420 C6426 0.950 . S
H6421 C6427 0.950 . S
H6422 C6428 0.949 . S
C6423 H6418 0.950 . S
C6423 C6425 1.327 . S
C6423 C6429 1.429 . S
C6424 C6416 1.574 . S
C6424 H6419 0.949 . S
C6424 C6430 1.368 . S
C6425 C6409 1.349 . S
C6425 H6417 0.940 . S
C6425 C6423 1.327 . S
C6426 C6414 1.349 . S
C6426 H6420 0.950 . S
C6426 C6427 1.327 . S
C6427 H6421 0.950 . S
C6427 C6426 1.327 . S
C6427 C6431 1.429 . S
C6428 C6411 1.574 . S
C6428 H6422 0.949 . S
C6428 C6432 1.368 . S
C6429 C6410 1.429 . S
C6429 C6423 1.429 . S
C6429 C6430 1.523 . S
C6430 C6411 1.368 . S
C6430 C6424 1.368 . S
C6430 C6429 1.523 . S
C6431 C6415 1.429 . S
C6431 C6427 1.429 . S
C6431 C6432 1.523 . S
C6432 C6416 1.368 . S
C6432 C6428 1.368 . S
C6432 C6431 1.523 . S
H6433 C6408 0.950 . S
H6434 C6410 0.950 . S
H6435 C6411 0.949 . S
H6436 C6413 0.950 . S
H6437 C6415 0.950 . S
C6438 C6439 1.349 . S
C6438 C6440 1.327 . S
C6438 H6463 0.950 . S
C6439 C6438 1.349 . S
C6439 C6455 1.349 . S
C6440 C6438 1.327 . S
C6440 C6459 1.429 . S
C6440 H6464 0.950 . S
C6441 C6458 1.574 . S
C6441 C6460 1.368 . S
C6441 H6465 0.949 . S
H6442 C6446 0.949 . S
C6443 C6444 1.349 . S
C6443 C6445 1.327 . S
C6443 H6466 0.950 . S
C6444 C6443 1.349 . S
C6444 C6456 1.349 . S
C6445 C6443 1.327 . S
C6445 C6461 1.429 . S
C6445 H6467 0.950 . S
C6446 H6442 0.949 . S
C6446 C6454 1.574 . S
C6446 C6462 1.368 . S
H6447 C6455 0.950 . S
H6448 C6453 0.950 . S
H6449 C6454 0.949 . S
H6450 C6456 0.950 . S
H6451 C6457 0.950 . S
H6452 C6458 0.949 . S
C6453 H6448 0.950 . S
C6453 C6455 1.327 . S
C6453 C6459 1.429 . S
C6454 C6446 1.574 . S
C6454 H6449 0.949 . S
C6454 C6460 1.368 . S
C6455 C6439 1.349 . S
C6455 H6447 0.950 . S
C6455 C6453 1.327 . S
C6456 C6444 1.349 . S
C6456 H6450 0.950 . S
C6456 C6457 1.327 . S
C6457 H6451 0.950 . S
C6457 C6456 1.327 . S
C6457 C6461 1.429 . S
C6458 C6441 1.574 . S
C6458 H6452 0.949 . S
C6458 C6462 1.368 . S
C6459 C6440 1.429 . S
C6459 C6453 1.429 . S
C6459 C6460 1.523 . S
C6460 C6441 1.368 . S
C6460 C6454 1.368 . S
C6460 C6459 1.523 . S
C6461 C6445 1.429 . S
C6461 C6457 1.429 . S
C6461 C6462 1.523 . S
C6462 C6446 1.368 . S
C6462 C6458 1.368 . S
C6462 C6461 1.523 . S
H6463 C6438 0.950 . S
H6464 C6440 0.950 . S
H6465 C6441 0.949 . S
H6466 C6443 0.950 . S
H6467 C6445 0.950 . S
C6468 C6469 1.349 . S
C6468 C6470 1.327 . S
C6468 H6493 0.950 . S
C6469 C6468 1.349 . S
C6469 C6485 1.349 . S
C6470 C6468 1.327 . S
C6470 C6489 1.429 . S
C6470 H6494 0.950 . S
C6471 C6488 1.574 . S
C6471 C6490 1.368 . S
C6471 H6495 0.949 . S
H6472 C6476 0.949 . S
C6473 C6474 1.349 . S
C6473 C6475 1.327 . S
C6473 H6496 0.950 . S
C6474 C6473 1.349 . S
C6474 C6486 1.349 . S
C6475 C6473 1.327 . S
C6475 C6491 1.429 . S
C6475 H6497 0.950 . S
C6476 H6472 0.949 . S
C6476 C6484 1.574 . S
C6476 C6492 1.368 . S
H6477 C6485 0.950 . S
H6478 C6483 0.950 . S
H6479 C6484 0.949 . S
H6480 C6486 0.950 . S
H6481 C6487 0.950 . S
H6482 C6488 0.949 . S
C6483 H6478 0.950 . S
C6483 C6485 1.327 . S
C6483 C6489 1.429 . S
C6484 C6476 1.574 . S
C6484 H6479 0.949 . S
C6484 C6490 1.368 . S
C6485 C6469 1.349 . S
C6485 H6477 0.950 . S
C6485 C6483 1.327 . S
C6486 C6474 1.349 . S
C6486 H6480 0.950 . S
C6486 C6487 1.327 . S
C6487 H6481 0.950 . S
C6487 C6486 1.327 . S
C6487 C6491 1.429 . S
C6488 C6471 1.574 . S
C6488 H6482 0.949 . S
C6488 C6492 1.368 . S
C6489 C6470 1.429 . S
C6489 C6483 1.429 . S
C6489 C6490 1.523 . S
C6490 C6471 1.368 . S
C6490 C6484 1.368 . S
C6490 C6489 1.523 . S
C6491 C6475 1.429 . S
C6491 C6487 1.429 . S
C6491 C6492 1.523 . S
C6492 C6476 1.368 . S
C6492 C6488 1.368 . S
C6492 C6491 1.523 . S
H6493 C6468 0.950 . S
H6494 C6470 0.950 . S
H6495 C6471 0.949 . S
H6496 C6473 0.950 . S
H6497 C6475 0.950 . S
C6498 C6499 1.349 . S
C6498 C6500 1.327 . S
C6498 H6523 0.950 . S
C6499 C6498 1.349 . S
C6499 C6515 1.349 . S
C6500 C6498 1.327 . S
C6500 C6519 1.429 . S
C6500 H6524 0.950 . S
C6501 C6518 1.574 . S
C6501 C6520 1.368 . S
C6501 H6525 0.949 . S
H6502 C6506 0.949 . S
C6503 C6504 1.349 . S
C6503 C6505 1.327 . S
C6503 H6526 0.950 . S
C6504 C6503 1.349 . S
C6504 C6516 1.349 . S
C6505 C6503 1.327 . S
C6505 C6521 1.429 . S
C6505 H6527 0.950 . S
C6506 H6502 0.949 . S
C6506 C6514 1.574 . S
C6506 C6522 1.368 . S
H6507 C6515 0.950 . S
H6508 C6513 0.950 . S
H6509 C6514 0.949 . S
H6510 C6516 0.950 . S
H6511 C6517 0.950 . S
H6512 C6518 0.949 . S
C6513 H6508 0.950 . S
C6513 C6515 1.327 . S
C6513 C6519 1.429 . S
C6514 C6506 1.574 . S
C6514 H6509 0.949 . S
C6514 C6520 1.368 . S
C6515 C6499 1.349 . S
C6515 H6507 0.950 . S
C6515 C6513 1.327 . S
C6516 C6504 1.349 . S
C6516 H6510 0.950 . S
C6516 C6517 1.327 . S
C6517 H6511 0.950 . S
C6517 C6516 1.327 . S
C6517 C6521 1.429 . S
C6518 C6501 1.574 . S
C6518 H6512 0.949 . S
C6518 C6522 1.368 . S
C6519 C6500 1.429 . S
C6519 C6513 1.429 . S
C6519 C6520 1.523 . S
C6520 C6501 1.368 . S
C6520 C6514 1.368 . S
C6520 C6519 1.523 . S
C6521 C6505 1.429 . S
C6521 C6517 1.429 . S
C6521 C6522 1.523 . S
C6522 C6506 1.368 . S
C6522 C6518 1.368 . S
C6522 C6521 1.523 . S
H6523 C6498 0.950 . S
H6524 C6500 0.950 . S
H6525 C6501 0.949 . S
H6526 C6503 0.950 . S
H6527 C6505 0.950 . S
C6528 C6529 1.349 . S
C6528 C6530 1.327 . S
C6528 H6553 0.950 . S
C6529 C6528 1.349 . S
C6529 C6545 1.349 . S
C6530 C6528 1.327 . S
C6530 C6549 1.429 . S
C6530 H6554 0.950 . S
C6531 C6548 1.574 . S
C6531 C6550 1.368 . S
C6531 H6555 0.949 . S
H6532 C6536 0.949 . S
C6533 C6534 1.349 . S
C6533 C6535 1.327 . S
C6533 H6556 0.950 . S
C6534 C6533 1.349 . S
C6534 C6546 1.349 . S
C6535 C6533 1.327 . S
C6535 C6551 1.429 . S
C6535 H6557 0.950 . S
C6536 H6532 0.949 . S
C6536 C6544 1.574 . S
C6536 C6552 1.368 . S
H6537 C6545 0.950 . S
H6538 C6543 0.950 . S
H6539 C6544 0.949 . S
H6540 C6546 0.950 . S
H6541 C6547 0.950 . S
H6542 C6548 0.949 . S
C6543 H6538 0.950 . S
C6543 C6545 1.327 . S
C6543 C6549 1.429 . S
C6544 C6536 1.574 . S
C6544 H6539 0.949 . S
C6544 C6550 1.368 . S
C6545 C6529 1.349 . S
C6545 H6537 0.950 . S
C6545 C6543 1.327 . S
C6546 C6534 1.349 . S
C6546 H6540 0.950 . S
C6546 C6547 1.327 . S
C6547 H6541 0.950 . S
C6547 C6546 1.327 . S
C6547 C6551 1.429 . S
C6548 C6531 1.574 . S
C6548 H6542 0.949 . S
C6548 C6552 1.368 . S
C6549 C6530 1.429 . S
C6549 C6543 1.429 . S
C6549 C6550 1.523 . S
C6550 C6531 1.368 . S
C6550 C6544 1.368 . S
C6550 C6549 1.523 . S
C6551 C6535 1.429 . S
C6551 C6547 1.429 . S
C6551 C6552 1.523 . S
C6552 C6536 1.368 . S
C6552 C6548 1.368 . S
C6552 C6551 1.523 . S
H6553 C6528 0.950 . S
H6554 C6530 0.950 . S
H6555 C6531 0.949 . S
H6556 C6533 0.950 . S
H6557 C6535 0.950 . S
C6558 C6559 1.349 . S
C6558 C6560 1.327 . S
C6558 H6583 0.950 . S
C6559 C6558 1.349 . S
C6559 C6575 1.349 . S
C6560 C6558 1.327 . S
C6560 C6579 1.429 . S
C6560 H6584 0.950 . S
C6561 C6578 1.574 . S
C6561 C6580 1.368 . S
C6561 H6585 0.949 . S
H6562 C6566 0.949 . S
C6563 C6564 1.349 . S
C6563 C6565 1.327 . S
C6563 H6586 0.950 . S
C6564 C6563 1.349 . S
C6564 C6576 1.349 . S
C6565 C6563 1.327 . S
C6565 C6581 1.429 . S
C6565 H6587 0.950 . S
C6566 H6562 0.949 . S
C6566 C6574 1.574 . S
C6566 C6582 1.368 . S
H6567 C6575 0.950 . S
H6568 C6573 0.950 . S
H6569 C6574 0.949 . S
H6570 C6576 0.950 . S
H6571 C6577 0.950 . S
H6572 C6578 0.949 . S
C6573 H6568 0.950 . S
C6573 C6575 1.327 . S
C6573 C6579 1.429 . S
C6574 C6566 1.574 . S
C6574 H6569 0.949 . S
C6574 C6580 1.368 . S
C6575 C6559 1.349 . S
C6575 H6567 0.950 . S
C6575 C6573 1.327 . S
C6576 C6564 1.349 . S
C6576 H6570 0.950 . S
C6576 C6577 1.327 . S
C6577 H6571 0.950 . S
C6577 C6576 1.327 . S
C6577 C6581 1.429 . S
C6578 C6561 1.574 . S
C6578 H6572 0.949 . S
C6578 C6582 1.368 . S
C6579 C6560 1.429 . S
C6579 C6573 1.429 . S
C6579 C6580 1.523 . S
C6580 C6561 1.368 . S
C6580 C6574 1.368 . S
C6580 C6579 1.523 . S
C6581 C6565 1.429 . S
C6581 C6577 1.429 . S
C6581 C6582 1.523 . S
C6582 C6566 1.368 . S
C6582 C6578 1.368 . S
C6582 C6581 1.523 . S
H6583 C6558 0.950 . S
H6584 C6560 0.950 . S
H6585 C6561 0.949 . S
H6586 C6563 0.950 . S
H6587 C6565 0.950 . S
C6588 C6589 1.349 . S
C6588 C6590 1.327 . S
C6588 H6613 0.950 . S
C6589 C6588 1.349 . S
C6589 C6605 1.349 . S
C6590 C6588 1.327 . S
C6590 C6609 1.429 . S
C6590 H6614 0.950 . S
C6591 C6608 1.574 . S
C6591 C6610 1.368 . S
C6591 H6615 0.949 . S
H6592 C6596 0.949 . S
C6593 C6594 1.349 . S
C6593 C6595 1.327 . S
C6593 H6616 0.950 . S
C6594 C6593 1.349 . S
C6594 C6606 1.349 . S
C6595 C6593 1.327 . S
C6595 C6611 1.429 . S
C6595 H6617 0.950 . S
C6596 H6592 0.949 . S
C6596 C6604 1.574 . S
C6596 C6612 1.368 . S
H6597 C6605 0.997 . S
H6598 C6603 0.950 . S
H6599 C6604 0.949 . S
H6600 C6606 0.950 . S
H6601 C6607 0.950 . S
H6602 C6608 0.949 . S
C6603 H6598 0.950 . S
C6603 C6605 1.327 . S
C6603 C6609 1.429 . S
C6604 C6596 1.574 . S
C6604 H6599 0.949 . S
C6604 C6610 1.368 . S
C6605 C6589 1.349 . S
C6605 H6597 0.997 . S
C6605 C6603 1.327 . S
C6606 C6594 1.349 . S
C6606 H6600 0.950 . S
C6606 C6607 1.327 . S
C6607 H6601 0.950 . S
C6607 C6606 1.327 . S
C6607 C6611 1.429 . S
C6608 C6591 1.574 . S
C6608 H6602 0.949 . S
C6608 C6612 1.368 . S
C6609 C6590 1.429 . S
C6609 C6603 1.429 . S
C6609 C6610 1.523 . S
C6610 C6591 1.368 . S
C6610 C6604 1.368 . S
C6610 C6609 1.523 . S
C6611 C6595 1.429 . S
C6611 C6607 1.429 . S
C6611 C6612 1.523 . S
C6612 C6596 1.368 . S
C6612 C6608 1.368 . S
C6612 C6611 1.523 . S
H6613 C6588 0.950 . S
H6614 C6590 0.950 . S
H6615 C6591 0.949 . S
H6616 C6593 0.950 . S
H6617 C6595 0.950 . S
C6618 C6619 1.349 . S
C6618 C6620 1.327 . S
C6618 H6643 0.950 . S
C6619 C6618 1.349 . S
C6619 C6635 1.349 . S
C6620 C6618 1.327 . S
C6620 C6639 1.429 . S
C6620 H6644 0.950 . S
C6621 C6638 1.574 . S
C6621 C6640 1.368 . S
C6621 H6645 0.949 . S
H6622 C6626 0.949 . S
C6623 C6624 1.349 . S
C6623 C6625 1.327 . S
C6623 H6646 0.950 . S
C6624 C6623 1.349 . S
C6624 C6636 1.349 . S
C6625 C6623 1.327 . S
C6625 C6641 1.429 . S
C6625 H6647 0.950 . S
C6626 H6622 0.949 . S
C6626 C6634 1.574 . S
C6626 C6642 1.368 . S
H6627 C6635 0.950 . S
H6628 C6633 0.950 . S
H6629 C6634 0.949 . S
H6630 C6636 0.950 . S
H6631 C6637 0.950 . S
H6632 C6638 0.949 . S
C6633 H6628 0.950 . S
C6633 C6635 1.327 . S
C6633 C6639 1.429 . S
C6634 C6626 1.574 . S
C6634 H6629 0.949 . S
C6634 C6640 1.368 . S
C6635 C6619 1.349 . S
C6635 H6627 0.950 . S
C6635 C6633 1.327 . S
C6636 C6624 1.349 . S
C6636 H6630 0.950 . S
C6636 C6637 1.327 . S
C6637 H6631 0.950 . S
C6637 C6636 1.327 . S
C6637 C6641 1.429 . S
C6638 C6621 1.574 . S
C6638 H6632 0.949 . S
C6638 C6642 1.368 . S
C6639 C6620 1.429 . S
C6639 C6633 1.429 . S
C6639 C6640 1.523 . S
C6640 C6621 1.368 . S
C6640 C6634 1.368 . S
C6640 C6639 1.523 . S
C6641 C6625 1.429 . S
C6641 C6637 1.429 . S
C6641 C6642 1.523 . S
C6642 C6626 1.368 . S
C6642 C6638 1.368 . S
C6642 C6641 1.523 . S
H6643 C6618 0.950 . S
H6644 C6620 0.950 . S
H6645 C6621 0.949 . S
H6646 C6623 0.950 . S
H6647 C6625 0.950 . S
C6648 C6649 1.349 . S
C6648 C6650 1.327 . S
C6648 H6673 0.950 . S
C6649 C6648 1.349 . S
C6649 C6665 1.349 . S
C6650 C6648 1.327 . S
C6650 C6669 1.429 . S
C6650 H6674 0.950 . S
C6651 C6668 1.574 . S
C6651 C6670 1.368 . S
C6651 H6675 0.949 . S
H6652 C6656 0.949 . S
C6653 C6654 1.349 . S
C6653 C6655 1.327 . S
C6653 H6676 0.950 . S
C6654 C6653 1.349 . S
C6654 C6666 1.349 . S
C6655 C6653 1.327 . S
C6655 C6671 1.429 . S
C6655 H6677 0.950 . S
C6656 H6652 0.949 . S
C6656 C6664 1.574 . S
C6656 C6672 1.368 . S
H6657 C6665 0.950 . S
H6658 C6663 0.950 . S
H6659 C6664 0.949 . S
H6660 C6666 0.950 . S
H6661 C6667 0.950 . S
H6662 C6668 0.949 . S
C6663 H6658 0.950 . S
C6663 C6665 1.327 . S
C6663 C6669 1.429 . S
C6664 C6656 1.574 . S
C6664 H6659 0.949 . S
C6664 C6670 1.368 . S
C6665 C6649 1.349 . S
C6665 H6657 0.950 . S
C6665 C6663 1.327 . S
C6666 C6654 1.349 . S
C6666 H6660 0.950 . S
C6666 C6667 1.327 . S
C6667 H6661 0.950 . S
C6667 C6666 1.327 . S
C6667 C6671 1.429 . S
C6668 C6651 1.574 . S
C6668 H6662 0.949 . S
C6668 C6672 1.368 . S
C6669 C6650 1.429 . S
C6669 C6663 1.429 . S
C6669 C6670 1.523 . S
C6670 C6651 1.368 . S
C6670 C6664 1.368 . S
C6670 C6669 1.523 . S
C6671 C6655 1.429 . S
C6671 C6667 1.429 . S
C6671 C6672 1.523 . S
C6672 C6656 1.368 . S
C6672 C6668 1.368 . S
C6672 C6671 1.523 . S
H6673 C6648 0.950 . S
H6674 C6650 0.950 . S
H6675 C6651 0.949 . S
H6676 C6653 0.950 . S
H6677 C6655 0.950 . S
C6678 C6679 1.349 . S
C6678 C6680 1.327 . S
C6678 H6703 0.950 . S
C6679 C6678 1.349 . S
C6679 C6695 1.349 . S
C6680 C6678 1.327 . S
C6680 C6699 1.429 . S
C6680 H6704 0.950 . S
C6681 C6698 1.574 . S
C6681 C6700 1.368 . S
C6681 H6705 0.949 . S
H6682 C6686 0.949 . S
C6683 C6684 1.349 . S
C6683 C6685 1.327 . S
C6683 H6706 0.950 . S
C6684 C6683 1.349 . S
C6684 C6696 1.349 . S
C6685 C6683 1.327 . S
C6685 C6701 1.429 . S
C6685 H6707 0.950 . S
C6686 H6682 0.949 . S
C6686 C6694 1.574 . S
C6686 C6702 1.368 . S
H6687 C6695 0.950 . S
H6688 C6693 0.950 . S
H6689 C6694 0.949 . S
H6690 C6696 0.950 . S
H6691 C6697 0.950 . S
H6692 C6698 0.949 . S
C6693 H6688 0.950 . S
C6693 C6695 1.327 . S
C6693 C6699 1.429 . S
C6694 C6686 1.574 . S
C6694 H6689 0.949 . S
C6694 C6700 1.368 . S
C6695 C6679 1.349 . S
C6695 H6687 0.950 . S
C6695 C6693 1.327 . S
C6696 C6684 1.349 . S
C6696 H6690 0.950 . S
C6696 C6697 1.327 . S
C6697 H6691 0.950 . S
C6697 C6696 1.327 . S
C6697 C6701 1.429 . S
C6698 C6681 1.574 . S
C6698 H6692 0.949 . S
C6698 C6702 1.368 . S
C6699 C6680 1.429 . S
C6699 C6693 1.429 . S
C6699 C6700 1.523 . S
C6700 C6681 1.368 . S
C6700 C6694 1.368 . S
C6700 C6699 1.523 . S
C6701 C6685 1.429 . S
C6701 C6697 1.429 . S
C6701 C6702 1.523 . S
C6702 C6686 1.368 . S
C6702 C6698 1.368 . S
C6702 C6701 1.523 . S
H6703 C6678 0.950 . S
H6704 C6680 0.950 . S
H6705 C6681 0.949 . S
H6706 C6683 0.950 . S
H6707 C6685 0.950 . S
C6708 C6709 1.349 . S
C6708 C6710 1.327 . S
C6708 H6733 0.950 . S
C6709 C6708 1.349 . S
C6709 C6725 1.349 . S
C6710 C6708 1.327 . S
C6710 C6729 1.429 . S
C6710 H6734 0.950 . S
C6711 C6728 1.574 . S
C6711 C6730 1.368 . S
C6711 H6735 0.949 . S
H6712 C6716 0.949 . S
C6713 C6714 1.349 . S
C6713 C6715 1.327 . S
C6713 H6736 0.950 . S
C6714 C6713 1.349 . S
C6714 C6726 1.349 . S
C6715 C6713 1.327 . S
C6715 C6731 1.429 . S
C6715 H6737 0.950 . S
C6716 H6712 0.949 . S
C6716 C6724 1.574 . S
C6716 C6732 1.368 . S
H6717 C6725 0.950 . S
H6718 C6723 0.950 . S
H6719 C6724 0.949 . S
H6720 C6726 0.950 . S
H6721 C6727 0.950 . S
H6722 C6728 0.949 . S
C6723 H6718 0.950 . S
C6723 C6725 1.327 . S
C6723 C6729 1.429 . S
C6724 C6716 1.574 . S
C6724 H6719 0.949 . S
C6724 C6730 1.368 . S
C6725 C6709 1.349 . S
C6725 H6717 0.950 . S
C6725 C6723 1.327 . S
C6726 C6714 1.349 . S
C6726 H6720 0.950 . S
C6726 C6727 1.327 . S
C6727 H6721 0.950 . S
C6727 C6726 1.327 . S
C6727 C6731 1.429 . S
C6728 C6711 1.574 . S
C6728 H6722 0.949 . S
C6728 C6732 1.368 . S
C6729 C6710 1.429 . S
C6729 C6723 1.429 . S
C6729 C6730 1.523 . S
C6730 C6711 1.368 . S
C6730 C6724 1.368 . S
C6730 C6729 1.523 . S
C6731 C6715 1.429 . S
C6731 C6727 1.429 . S
C6731 C6732 1.523 . S
C6732 C6716 1.368 . S
C6732 C6728 1.368 . S
C6732 C6731 1.523 . S
H6733 C6708 0.950 . S
H6734 C6710 0.950 . S
H6735 C6711 0.949 . S
H6736 C6713 0.950 . S
H6737 C6715 0.950 . S
C6738 C6739 1.349 . S
C6738 C6740 1.327 . S
C6738 H6763 0.950 . S
C6739 C6738 1.349 . S
C6739 C6755 1.349 . S
C6740 C6738 1.327 . S
C6740 C6759 1.429 . S
C6740 H6764 0.950 . S
C6741 C6758 1.574 . S
C6741 C6760 1.368 . S
C6741 H6765 0.949 . S
H6742 C6746 0.949 . S
C6743 C6744 1.349 . S
C6743 C6745 1.327 . S
C6743 H6766 0.950 . S
C6744 C6743 1.349 . S
C6744 C6756 1.349 . S
C6745 C6743 1.327 . S
C6745 C6761 1.429 . S
C6745 H6767 0.950 . S
C6746 H6742 0.949 . S
C6746 C6754 1.574 . S
C6746 C6762 1.368 . S
H6747 C6755 0.950 . S
H6748 C6753 0.950 . S
H6749 C6754 0.949 . S
H6750 C6756 0.950 . S
H6751 C6757 0.950 . S
H6752 C6758 0.949 . S
C6753 H6748 0.950 . S
C6753 C6755 1.327 . S
C6753 C6759 1.429 . S
C6754 C6746 1.574 . S
C6754 H6749 0.949 . S
C6754 C6760 1.368 . S
C6755 C6739 1.349 . S
C6755 H6747 0.950 . S
C6755 C6753 1.327 . S
C6756 C6744 1.349 . S
C6756 H6750 0.950 . S
C6756 C6757 1.327 . S
C6757 H6751 0.950 . S
C6757 C6756 1.327 . S
C6757 C6761 1.429 . S
C6758 C6741 1.574 . S
C6758 H6752 0.949 . S
C6758 C6762 1.368 . S
C6759 C6740 1.429 . S
C6759 C6753 1.429 . S
C6759 C6760 1.523 . S
C6760 C6741 1.368 . S
C6760 C6754 1.368 . S
C6760 C6759 1.523 . S
C6761 C6745 1.429 . S
C6761 C6757 1.429 . S
C6761 C6762 1.523 . S
C6762 C6746 1.368 . S
C6762 C6758 1.368 . S
C6762 C6761 1.523 . S
H6763 C6738 0.950 . S
H6764 C6740 0.950 . S
H6765 C6741 0.949 . S
H6766 C6743 0.950 . S
H6767 C6745 0.950 . S
C6768 C6769 1.349 . S
C6768 C6770 1.327 . S
C6768 H6793 0.950 . S
C6769 C6768 1.349 . S
C6769 C6785 1.349 . S
C6770 C6768 1.327 . S
C6770 C6789 1.429 . S
C6770 H6794 0.950 . S
C6771 C6788 1.574 . S
C6771 C6790 1.368 . S
C6771 H6795 0.949 . S
H6772 C6776 0.949 . S
C6773 C6774 1.349 . S
C6773 C6775 1.327 . S
C6773 H6796 0.950 . S
C6774 C6773 1.349 . S
C6774 C6786 1.349 . S
C6775 C6773 1.327 . S
C6775 C6791 1.429 . S
C6775 H6797 0.950 . S
C6776 H6772 0.949 . S
C6776 C6784 1.574 . S
C6776 C6792 1.368 . S
H6777 C6785 0.950 . S
H6778 C6783 0.950 . S
H6779 C6784 0.949 . S
H6780 C6786 0.950 . S
H6781 C6787 0.950 . S
H6782 C6788 0.949 . S
C6783 H6778 0.950 . S
C6783 C6785 1.327 . S
C6783 C6789 1.429 . S
C6784 C6776 1.574 . S
C6784 H6779 0.949 . S
C6784 C6790 1.368 . S
C6785 C6769 1.349 . S
C6785 H6777 0.950 . S
C6785 C6783 1.327 . S
C6786 C6774 1.349 . S
C6786 H6780 0.950 . S
C6786 C6787 1.327 . S
C6787 H6781 0.950 . S
C6787 C6786 1.327 . S
C6787 C6791 1.429 . S
C6788 C6771 1.574 . S
C6788 H6782 0.949 . S
C6788 C6792 1.368 . S
C6789 C6770 1.429 . S
C6789 C6783 1.429 . S
C6789 C6790 1.523 . S
C6790 C6771 1.368 . S
C6790 C6784 1.368 . S
C6790 C6789 1.523 . S
C6791 C6775 1.429 . S
C6791 C6787 1.429 . S
C6791 C6792 1.523 . S
C6792 C6776 1.368 . S
C6792 C6788 1.368 . S
C6792 C6791 1.523 . S
H6793 C6768 0.950 . S
H6794 C6770 0.950 . S
H6795 C6771 0.949 . S
H6796 C6773 0.950 . S
H6797 C6775 0.950 . S
C6798 C6799 1.349 . S
C6798 C6800 1.327 . S
C6798 H6823 0.950 . S
C6799 C6798 1.349 . S
C6799 C6815 1.349 . S
C6800 C6798 1.327 . S
C6800 C6819 1.429 . S
C6800 H6824 0.950 . S
C6801 C6818 1.574 . S
C6801 C6820 1.368 . S
C6801 H6825 0.949 . S
H6802 C6806 0.949 . S
C6803 C6804 1.349 . S
C6803 C6805 1.327 . S
C6803 H6826 0.950 . S
C6804 C6803 1.349 . S
C6804 C6816 1.349 . S
C6805 C6803 1.327 . S
C6805 C6821 1.429 . S
C6805 H6827 0.950 . S
C6806 H6802 0.949 . S
C6806 C6814 1.574 . S
C6806 C6822 1.368 . S
H6807 C6815 0.950 . S
H6808 C6813 0.950 . S
H6809 C6814 0.949 . S
H6810 C6816 0.950 . S
H6811 C6817 0.950 . S
H6812 C6818 0.949 . S
C6813 H6808 0.950 . S
C6813 C6815 1.327 . S
C6813 C6819 1.429 . S
C6814 C6806 1.574 . S
C6814 H6809 0.949 . S
C6814 C6820 1.368 . S
C6815 C6799 1.349 . S
C6815 H6807 0.950 . S
C6815 C6813 1.327 . S
C6816 C6804 1.349 . S
C6816 H6810 0.950 . S
C6816 C6817 1.327 . S
C6817 H6811 0.950 . S
C6817 C6816 1.327 . S
C6817 C6821 1.429 . S
C6818 C6801 1.574 . S
C6818 H6812 0.949 . S
C6818 C6822 1.368 . S
C6819 C6800 1.429 . S
C6819 C6813 1.429 . S
C6819 C6820 1.523 . S
C6820 C6801 1.368 . S
C6820 C6814 1.368 . S
C6820 C6819 1.523 . S
C6821 C6805 1.429 . S
C6821 C6817 1.429 . S
C6821 C6822 1.523 . S
C6822 C6806 1.368 . S
C6822 C6818 1.368 . S
C6822 C6821 1.523 . S
H6823 C6798 0.950 . S
H6824 C6800 0.950 . S
H6825 C6801 0.949 . S
H6826 C6803 0.950 . S
H6827 C6805 0.950 . S
C6828 C6829 1.349 . S
C6828 C6830 1.327 . S
C6828 H6853 0.950 . S
C6829 C6828 1.349 . S
C6829 C6845 1.349 . S
C6830 C6828 1.327 . S
C6830 C6849 1.429 . S
C6830 H6854 0.950 . S
C6831 C6848 1.574 . S
C6831 C6850 1.368 . S
C6831 H6855 0.949 . S
H6832 C6836 0.949 . S
C6833 C6834 1.349 . S
C6833 C6835 1.327 . S
C6833 H6856 0.950 . S
C6834 C6833 1.349 . S
C6834 C6846 1.349 . S
C6835 C6833 1.327 . S
C6835 C6851 1.429 . S
C6835 H6857 0.950 . S
C6836 H6832 0.949 . S
C6836 C6844 1.574 . S
C6836 C6852 1.368 . S
H6837 C6845 0.950 . S
H6838 C6843 0.950 . S
H6839 C6844 0.949 . S
H6840 C6846 0.950 . S
H6841 C6847 0.950 . S
H6842 C6848 0.949 . S
C6843 H6838 0.950 . S
C6843 C6845 1.327 . S
C6843 C6849 1.429 . S
C6844 C6836 1.574 . S
C6844 H6839 0.949 . S
C6844 C6850 1.368 . S
C6845 C6829 1.349 . S
C6845 H6837 0.950 . S
C6845 C6843 1.327 . S
C6846 C6834 1.349 . S
C6846 H6840 0.950 . S
C6846 C6847 1.327 . S
C6847 H6841 0.950 . S
C6847 C6846 1.327 . S
C6847 C6851 1.429 . S
C6848 C6831 1.574 . S
C6848 H6842 0.949 . S
C6848 C6852 1.368 . S
C6849 C6830 1.429 . S
C6849 C6843 1.429 . S
C6849 C6850 1.523 . S
C6850 C6831 1.368 . S
C6850 C6844 1.368 . S
C6850 C6849 1.523 . S
C6851 C6835 1.429 . S
C6851 C6847 1.429 . S
C6851 C6852 1.523 . S
C6852 C6836 1.368 . S
C6852 C6848 1.368 . S
C6852 C6851 1.523 . S
H6853 C6828 0.950 . S
H6854 C6830 0.950 . S
H6855 C6831 0.949 . S
H6856 C6833 0.950 . S
H6857 C6835 0.950 . S
C6858 C6859 1.349 . S
C6858 C6860 1.327 . S
C6858 H6883 0.950 . S
C6859 C6858 1.349 . S
C6859 C6875 1.349 . S
C6860 C6858 1.327 . S
C6860 C6879 1.429 . S
C6860 H6884 0.950 . S
C6861 C6878 1.574 . S
C6861 C6880 1.368 . S
C6861 H6885 0.949 . S
H6862 C6866 0.949 . S
C6863 C6864 1.349 . S
C6863 C6865 1.327 . S
C6863 H6886 0.950 . S
C6864 C6863 1.349 . S
C6864 C6876 1.349 . S
C6865 C6863 1.327 . S
C6865 C6881 1.429 . S
C6865 H6887 0.950 . S
C6866 H6862 0.949 . S
C6866 C6874 1.574 . S
C6866 C6882 1.368 . S
H6867 C6875 0.950 . S
H6868 C6873 0.950 . S
H6869 C6874 0.949 . S
H6870 C6876 0.950 . S
H6871 C6877 0.950 . S
H6872 C6878 0.949 . S
C6873 H6868 0.950 . S
C6873 C6875 1.327 . S
C6873 C6879 1.429 . S
C6874 C6866 1.574 . S
C6874 H6869 0.949 . S
C6874 C6880 1.368 . S
C6875 C6859 1.349 . S
C6875 H6867 0.950 . S
C6875 C6873 1.327 . S
C6876 C6864 1.349 . S
C6876 H6870 0.950 . S
C6876 C6877 1.327 . S
C6877 H6871 0.950 . S
C6877 C6876 1.327 . S
C6877 C6881 1.429 . S
C6878 C6861 1.574 . S
C6878 H6872 0.949 . S
C6878 C6882 1.368 . S
C6879 C6860 1.429 . S
C6879 C6873 1.429 . S
C6879 C6880 1.523 . S
C6880 C6861 1.368 . S
C6880 C6874 1.368 . S
C6880 C6879 1.523 . S
C6881 C6865 1.429 . S
C6881 C6877 1.429 . S
C6881 C6882 1.523 . S
C6882 C6866 1.368 . S
C6882 C6878 1.368 . S
C6882 C6881 1.523 . S
H6883 C6858 0.950 . S
H6884 C6860 0.950 . S
H6885 C6861 0.949 . S
H6886 C6863 0.950 . S
H6887 C6865 0.950 . S
C6888 C6889 1.349 . S
C6888 C6890 1.327 . S
C6888 H6913 0.950 . S
C6889 C6888 1.349 . S
C6889 C6905 1.349 . S
C6890 C6888 1.327 . S
C6890 C6909 1.429 . S
C6890 H6914 0.950 . S
C6891 C6908 1.574 . S
C6891 C6910 1.368 . S
C6891 H6915 0.949 . S
H6892 C6896 0.949 . S
C6893 C6894 1.349 . S
C6893 C6895 1.327 . S
C6893 H6916 0.950 . S
C6894 C6893 1.349 . S
C6894 C6906 1.349 . S
C6895 C6893 1.327 . S
C6895 C6911 1.429 . S
C6895 H6917 0.950 . S
C6896 H6892 0.949 . S
C6896 C6904 1.574 . S
C6896 C6912 1.368 . S
H6897 C6905 0.950 . S
H6898 C6903 0.950 . S
H6899 C6904 0.949 . S
H6900 C6906 0.950 . S
H6901 C6907 0.950 . S
H6902 C6908 0.949 . S
C6903 H6898 0.950 . S
C6903 C6905 1.327 . S
C6903 C6909 1.429 . S
C6904 C6896 1.574 . S
C6904 H6899 0.949 . S
C6904 C6910 1.368 . S
C6905 C6889 1.349 . S
C6905 H6897 0.950 . S
C6905 C6903 1.327 . S
C6906 C6894 1.349 . S
C6906 H6900 0.950 . S
C6906 C6907 1.327 . S
C6907 H6901 0.950 . S
C6907 C6906 1.327 . S
C6907 C6911 1.429 . S
C6908 C6891 1.574 . S
C6908 H6902 0.949 . S
C6908 C6912 1.368 . S
C6909 C6890 1.429 . S
C6909 C6903 1.429 . S
C6909 C6910 1.523 . S
C6910 C6891 1.368 . S
C6910 C6904 1.368 . S
C6910 C6909 1.523 . S
C6911 C6895 1.429 . S
C6911 C6907 1.429 . S
C6911 C6912 1.523 . S
C6912 C6896 1.368 . S
C6912 C6908 1.368 . S
C6912 C6911 1.523 . S
H6913 C6888 0.950 . S
H6914 C6890 0.950 . S
H6915 C6891 0.949 . S
H6916 C6893 0.950 . S
H6917 C6895 0.950 . S
C6918 C6919 1.349 . S
C6918 C6920 1.327 . S
C6918 H6943 0.950 . S
C6919 C6918 1.349 . S
C6919 C6935 1.349 . S
C6920 C6918 1.327 . S
C6920 C6939 1.429 . S
C6920 H6944 0.950 . S
C6921 C6938 1.574 . S
C6921 C6940 1.368 . S
C6921 H6945 0.949 . S
H6922 C6926 0.949 . S
C6923 C6924 1.349 . S
C6923 C6925 1.327 . S
C6923 H6946 0.950 . S
C6924 C6923 1.349 . S
C6924 C6936 1.349 . S
C6925 C6923 1.327 . S
C6925 C6941 1.429 . S
C6925 H6947 0.950 . S
C6926 H6922 0.949 . S
C6926 C6934 1.574 . S
C6926 C6942 1.368 . S
H6927 C6935 0.950 . S
H6928 C6933 0.950 . S
H6929 C6934 0.949 . S
H6930 C6936 0.950 . S
H6931 C6937 0.950 . S
H6932 C6938 0.949 . S
C6933 H6928 0.950 . S
C6933 C6935 1.327 . S
C6933 C6939 1.429 . S
C6934 C6926 1.574 . S
C6934 H6929 0.949 . S
C6934 C6940 1.368 . S
C6935 C6919 1.349 . S
C6935 H6927 0.950 . S
C6935 C6933 1.327 . S
C6936 C6924 1.349 . S
C6936 H6930 0.950 . S
C6936 C6937 1.327 . S
C6937 H6931 0.950 . S
C6937 C6936 1.327 . S
C6937 C6941 1.429 . S
C6938 C6921 1.574 . S
C6938 H6932 0.949 . S
C6938 C6942 1.368 . S
C6939 C6920 1.429 . S
C6939 C6933 1.429 . S
C6939 C6940 1.523 . S
C6940 C6921 1.368 . S
C6940 C6934 1.368 . S
C6940 C6939 1.523 . S
C6941 C6925 1.429 . S
C6941 C6937 1.429 . S
C6941 C6942 1.523 . S
C6942 C6926 1.368 . S
C6942 C6938 1.368 . S
C6942 C6941 1.523 . S
H6943 C6918 0.950 . S
H6944 C6920 0.950 . S
H6945 C6921 0.949 . S
H6946 C6923 0.950 . S
H6947 C6925 0.950 . S
C6948 C6949 1.349 . S
C6948 C6950 1.327 . S
C6948 H6973 0.950 . S
C6949 C6948 1.349 . S
C6949 C6965 1.349 . S
C6950 C6948 1.327 . S
C6950 C6969 1.429 . S
C6950 H6974 0.950 . S
C6951 C6968 1.574 . S
C6951 C6970 1.368 . S
C6951 H6975 0.949 . S
H6952 C6956 0.949 . S
C6953 C6954 1.349 . S
C6953 C6955 1.327 . S
C6953 H6976 0.950 . S
C6954 C6953 1.349 . S
C6954 C6966 1.349 . S
C6955 C6953 1.327 . S
C6955 C6971 1.429 . S
C6955 H6977 0.950 . S
C6956 H6952 0.949 . S
C6956 C6964 1.574 . S
C6956 C6972 1.368 . S
H6957 C6965 0.950 . S
H6958 C6963 0.950 . S
H6959 C6964 0.949 . S
H6960 C6966 0.950 . S
H6961 C6967 0.950 . S
H6962 C6968 0.949 . S
C6963 H6958 0.950 . S
C6963 C6965 1.327 . S
C6963 C6969 1.429 . S
C6964 C6956 1.574 . S
C6964 H6959 0.949 . S
C6964 C6970 1.368 . S
C6965 C6949 1.349 . S
C6965 H6957 0.950 . S
C6965 C6963 1.327 . S
C6966 C6954 1.349 . S
C6966 H6960 0.950 . S
C6966 C6967 1.327 . S
C6967 H6961 0.950 . S
C6967 C6966 1.327 . S
C6967 C6971 1.429 . S
C6968 C6951 1.574 . S
C6968 H6962 0.949 . S
C6968 C6972 1.368 . S
C6969 C6950 1.429 . S
C6969 C6963 1.429 . S
C6969 C6970 1.523 . S
C6970 C6951 1.368 . S
C6970 C6964 1.368 . S
C6970 C6969 1.523 . S
C6971 C6955 1.429 . S
C6971 C6967 1.429 . S
C6971 C6972 1.523 . S
C6972 C6956 1.368 . S
C6972 C6968 1.368 . S
C6972 C6971 1.523 . S
H6973 C6948 0.950 . S
H6974 C6950 0.950 . S
H6975 C6951 0.949 . S
H6976 C6953 0.950 . S
H6977 C6955 0.950 . S
C6978 C6979 1.349 . S
C6978 C6980 1.327 . S
C6978 H7003 0.950 . S
C6979 C6978 1.349 . S
C6979 C6995 1.349 . S
C6980 C6978 1.327 . S
C6980 C6999 1.429 . S
C6980 H7004 0.950 . S
C6981 C6998 1.574 . S
C6981 C7000 1.368 . S
C6981 H7005 0.949 . S
H6982 C6986 0.949 . S
C6983 C6984 1.349 . S
C6983 C6985 1.327 . S
C6983 H7006 0.950 . S
C6984 C6983 1.349 . S
C6984 C6996 1.349 . S
C6985 C6983 1.327 . S
C6985 C7001 1.429 . S
C6985 H7007 0.950 . S
C6986 H6982 0.949 . S
C6986 C6994 1.574 . S
C6986 C7002 1.368 . S
H6987 C6995 0.950 . S
H6988 C6993 0.950 . S
H6989 C6994 0.949 . S
H6990 C6996 0.950 . S
H6991 C6997 0.950 . S
H6992 C6998 0.949 . S
C6993 H6988 0.950 . S
C6993 C6995 1.327 . S
C6993 C6999 1.429 . S
C6994 C6986 1.574 . S
C6994 H6989 0.949 . S
C6994 C7000 1.368 . S
C6995 C6979 1.349 . S
C6995 H6987 0.950 . S
C6995 C6993 1.327 . S
C6996 C6984 1.349 . S
C6996 H6990 0.950 . S
C6996 C6997 1.327 . S
C6997 H6991 0.950 . S
C6997 C6996 1.327 . S
C6997 C7001 1.429 . S
C6998 C6981 1.574 . S
C6998 H6992 0.949 . S
C6998 C7002 1.368 . S
C6999 C6980 1.429 . S
C6999 C6993 1.429 . S
C6999 C7000 1.523 . S
C7000 C6981 1.368 . S
C7000 C6994 1.368 . S
C7000 C6999 1.523 . S
C7001 C6985 1.429 . S
C7001 C6997 1.429 . S
C7001 C7002 1.523 . S
C7002 C6986 1.368 . S
C7002 C6998 1.368 . S
C7002 C7001 1.523 . S
H7003 C6978 0.950 . S
H7004 C6980 0.950 . S
H7005 C6981 0.949 . S
H7006 C6983 0.950 . S
H7007 C6985 0.950 . S
C7008 C7009 1.349 . S
C7008 C7010 1.327 . S
C7008 H7033 0.950 . S
C7009 C7008 1.349 . S
C7009 C7025 1.349 . S
C7010 C7008 1.327 . S
C7010 C7029 1.429 . S
C7010 H7034 0.950 . S
C7011 C7028 1.574 . S
C7011 C7030 1.368 . S
C7011 H7035 0.949 . S
H7012 C7016 0.949 . S
C7013 C7014 1.349 . S
C7013 C7015 1.327 . S
C7013 H7036 0.950 . S
C7014 C7013 1.349 . S
C7014 C7026 1.349 . S
C7015 C7013 1.327 . S
C7015 C7031 1.429 . S
C7015 H7037 0.950 . S
C7016 H7012 0.949 . S
C7016 C7024 1.574 . S
C7016 C7032 1.368 . S
H7017 C7025 0.950 . S
H7018 C7023 0.950 . S
H7019 C7024 0.949 . S
H7020 C7026 0.950 . S
H7021 C7027 0.950 . S
H7022 C7028 0.949 . S
C7023 H7018 0.950 . S
C7023 C7025 1.327 . S
C7023 C7029 1.429 . S
C7024 C7016 1.574 . S
C7024 H7019 0.949 . S
C7024 C7030 1.368 . S
C7025 C7009 1.349 . S
C7025 H7017 0.950 . S
C7025 C7023 1.327 . S
C7026 C7014 1.349 . S
C7026 H7020 0.950 . S
C7026 C7027 1.327 . S
C7027 H7021 0.950 . S
C7027 C7026 1.327 . S
C7027 C7031 1.429 . S
C7028 C7011 1.574 . S
C7028 H7022 0.949 . S
C7028 C7032 1.368 . S
C7029 C7010 1.429 . S
C7029 C7023 1.429 . S
C7029 C7030 1.523 . S
C7030 C7011 1.368 . S
C7030 C7024 1.368 . S
C7030 C7029 1.523 . S
C7031 C7015 1.429 . S
C7031 C7027 1.429 . S
C7031 C7032 1.523 . S
C7032 C7016 1.368 . S
C7032 C7028 1.368 . S
C7032 C7031 1.523 . S
H7033 C7008 0.950 . S
H7034 C7010 0.950 . S
H7035 C7011 0.949 . S
H7036 C7013 0.950 . S
H7037 C7015 0.950 . S
C7038 C7039 1.349 . S
C7038 C7040 1.327 . S
C7038 H7063 0.950 . S
C7039 C7038 1.349 . S
C7039 C7055 1.349 . S
C7040 C7038 1.327 . S
C7040 C7059 1.429 . S
C7040 H7064 0.950 . S
C7041 C7058 1.574 . S
C7041 C7060 1.368 . S
C7041 H7065 0.949 . S
H7042 C7046 0.949 . S
C7043 C7044 1.349 . S
C7043 C7045 1.327 . S
C7043 H7066 0.950 . S
C7044 C7043 1.349 . S
C7044 C7056 1.349 . S
C7045 C7043 1.327 . S
C7045 C7061 1.429 . S
C7045 H7067 0.950 . S
C7046 H7042 0.949 . S
C7046 C7054 1.574 . S
C7046 C7062 1.368 . S
H7047 C7055 0.950 . S
H7048 C7053 0.950 . S
H7049 C7054 0.949 . S
H7050 C7056 0.950 . S
H7051 C7057 0.950 . S
H7052 C7058 0.949 . S
C7053 H7048 0.950 . S
C7053 C7055 1.327 . S
C7053 C7059 1.429 . S
C7054 C7046 1.574 . S
C7054 H7049 0.949 . S
C7054 C7060 1.368 . S
C7055 C7039 1.349 . S
C7055 H7047 0.950 . S
C7055 C7053 1.327 . S
C7056 C7044 1.349 . S
C7056 H7050 0.950 . S
C7056 C7057 1.327 . S
C7057 H7051 0.950 . S
C7057 C7056 1.327 . S
C7057 C7061 1.429 . S
C7058 C7041 1.574 . S
C7058 H7052 0.949 . S
C7058 C7062 1.368 . S
C7059 C7040 1.429 . S
C7059 C7053 1.429 . S
C7059 C7060 1.523 . S
C7060 C7041 1.368 . S
C7060 C7054 1.368 . S
C7060 C7059 1.523 . S
C7061 C7045 1.429 . S
C7061 C7057 1.429 . S
C7061 C7062 1.523 . S
C7062 C7046 1.368 . S
C7062 C7058 1.368 . S
C7062 C7061 1.523 . S
H7063 C7038 0.950 . S
H7064 C7040 0.950 . S
H7065 C7041 0.949 . S
H7066 C7043 0.950 . S
H7067 C7045 0.950 . S
C7068 C7069 1.349 . S
C7068 C7070 1.327 . S
C7068 H7093 0.950 . S
C7069 C7068 1.349 . S
C7069 C7085 1.349 . S
C7070 C7068 1.327 . S
C7070 C7089 1.429 . S
C7070 H7094 0.950 . S
C7071 C7088 1.574 . S
C7071 C7090 1.368 . S
C7071 H7095 0.949 . S
H7072 C7076 0.949 . S
C7073 C7074 1.349 . S
C7073 C7075 1.327 . S
C7073 H7096 0.950 . S
C7074 C7073 1.349 . S
C7074 C7086 1.349 . S
C7075 C7073 1.327 . S
C7075 C7091 1.429 . S
C7075 H7097 0.950 . S
C7076 H7072 0.949 . S
C7076 C7084 1.574 . S
C7076 C7092 1.368 . S
H7077 C7085 0.950 . S
H7078 C7083 0.950 . S
H7079 C7084 0.949 . S
H7080 C7086 0.950 . S
H7081 C7087 0.950 . S
H7082 C7088 0.949 . S
C7083 H7078 0.950 . S
C7083 C7085 1.327 . S
C7083 C7089 1.429 . S
C7084 C7076 1.574 . S
C7084 H7079 0.949 . S
C7084 C7090 1.368 . S
C7085 C7069 1.349 . S
C7085 H7077 0.950 . S
C7085 C7083 1.327 . S
C7086 C7074 1.349 . S
C7086 H7080 0.950 . S
C7086 C7087 1.327 . S
C7087 H7081 0.950 . S
C7087 C7086 1.327 . S
C7087 C7091 1.429 . S
C7088 C7071 1.574 . S
C7088 H7082 0.949 . S
C7088 C7092 1.368 . S
C7089 C7070 1.429 . S
C7089 C7083 1.429 . S
C7089 C7090 1.523 . S
C7090 C7071 1.368 . S
C7090 C7084 1.368 . S
C7090 C7089 1.523 . S
C7091 C7075 1.429 . S
C7091 C7087 1.429 . S
C7091 C7092 1.523 . S
C7092 C7076 1.368 . S
C7092 C7088 1.368 . S
C7092 C7091 1.523 . S
H7093 C7068 0.950 . S
H7094 C7070 0.950 . S
H7095 C7071 0.949 . S
H7096 C7073 0.950 . S
H7097 C7075 0.950 . S
C7098 C7099 1.349 . S
C7098 C7100 1.327 . S
C7098 H7123 0.950 . S
C7099 C7098 1.349 . S
C7099 C7115 1.349 . S
C7100 C7098 1.327 . S
C7100 C7119 1.429 . S
C7100 H7124 0.950 . S
C7101 C7118 1.574 . S
C7101 C7120 1.368 . S
C7101 H7125 0.949 . S
H7102 C7106 0.949 . S
C7103 C7104 1.349 . S
C7103 C7105 1.327 . S
C7103 H7126 0.950 . S
C7104 C7103 1.349 . S
C7104 C7116 1.349 . S
C7105 C7103 1.327 . S
C7105 C7121 1.429 . S
C7105 H7127 0.950 . S
C7106 H7102 0.949 . S
C7106 C7114 1.574 . S
C7106 C7122 1.368 . S
H7107 C7115 0.950 . S
H7108 C7113 0.950 . S
H7109 C7114 0.949 . S
H7110 C7116 0.950 . S
H7111 C7117 0.950 . S
H7112 C7118 0.949 . S
C7113 H7108 0.950 . S
C7113 C7115 1.327 . S
C7113 C7119 1.429 . S
C7114 C7106 1.574 . S
C7114 H7109 0.949 . S
C7114 C7120 1.368 . S
C7115 C7099 1.349 . S
C7115 H7107 0.950 . S
C7115 C7113 1.327 . S
C7116 C7104 1.349 . S
C7116 H7110 0.950 . S
C7116 C7117 1.327 . S
C7117 H7111 0.950 . S
C7117 C7116 1.327 . S
C7117 C7121 1.429 . S
C7118 C7101 1.574 . S
C7118 H7112 0.949 . S
C7118 C7122 1.368 . S
C7119 C7100 1.429 . S
C7119 C7113 1.429 . S
C7119 C7120 1.523 . S
C7120 C7101 1.368 . S
C7120 C7114 1.368 . S
C7120 C7119 1.523 . S
C7121 C7105 1.429 . S
C7121 C7117 1.429 . S
C7121 C7122 1.523 . S
C7122 C7106 1.368 . S
C7122 C7118 1.368 . S
C7122 C7121 1.523 . S
H7123 C7098 0.950 . S
H7124 C7100 0.950 . S
H7125 C7101 0.949 . S
H7126 C7103 0.950 . S
H7127 C7105 0.950 . S
C7128 C7129 1.349 . S
C7128 C7130 1.327 . S
C7128 H7153 0.950 . S
C7129 C7128 1.349 . S
C7129 C7145 1.349 . S
C7130 C7128 1.327 . S
C7130 C7149 1.429 . S
C7130 H7154 0.950 . S
C7131 C7148 1.574 . S
C7131 C7150 1.368 . S
C7131 H7155 0.949 . S
H7132 C7136 0.949 . S
C7133 C7134 1.349 . S
C7133 C7135 1.327 . S
C7133 H7156 0.950 . S
C7134 C7133 1.349 . S
C7134 C7146 1.349 . S
C7135 C7133 1.327 . S
C7135 C7151 1.429 . S
C7135 H7157 0.950 . S
C7136 H7132 0.949 . S
C7136 C7144 1.574 . S
C7136 C7152 1.368 . S
H7137 C7145 0.950 1_556 S
H7138 C7143 0.950 . S
H7139 C7144 0.949 . S
H7140 C7146 0.950 . S
H7141 C7147 0.950 . S
H7142 C7148 0.949 . S
C7143 H7138 0.950 . S
C7143 C7145 1.327 . S
C7143 C7149 1.429 . S
C7144 C7136 1.574 . S
C7144 H7139 0.949 . S
C7144 C7150 1.368 . S
C7145 C7129 1.349 . S
C7145 H7137 0.950 1_554 S
C7145 C7143 1.327 . S
C7146 C7134 1.349 . S
C7146 H7140 0.950 . S
C7146 C7147 1.327 . S
C7147 H7141 0.950 . S
C7147 C7146 1.327 . S
C7147 C7151 1.429 . S
C7148 C7131 1.574 . S
C7148 H7142 0.949 . S
C7148 C7152 1.368 . S
C7149 C7130 1.429 . S
C7149 C7143 1.429 . S
C7149 C7150 1.523 . S
C7150 C7131 1.368 . S
C7150 C7144 1.368 . S
C7150 C7149 1.523 . S
C7151 C7135 1.429 . S
C7151 C7147 1.429 . S
C7151 C7152 1.523 . S
C7152 C7136 1.368 . S
C7152 C7148 1.368 . S
C7152 C7151 1.523 . S
H7153 C7128 0.950 . S
H7154 C7130 0.950 . S
H7155 C7131 0.949 . S
H7156 C7133 0.950 . S
H7157 C7135 0.950 . S
C7158 C7159 1.349 . S
C7158 C7160 1.327 . S
C7158 H7183 0.950 . S
C7159 C7158 1.349 . S
C7159 C7175 1.349 . S
C7160 C7158 1.327 . S
C7160 C7179 1.429 . S
C7160 H7184 0.950 . S
C7161 C7178 1.574 . S
C7161 C7180 1.368 . S
C7161 H7185 0.949 . S
H7162 C7166 0.949 . S
C7163 C7164 1.349 . S
C7163 C7165 1.327 . S
C7163 H7186 0.950 . S
C7164 C7163 1.349 . S
C7164 C7176 1.349 . S
C7165 C7163 1.327 . S
C7165 C7181 1.429 . S
C7165 H7187 0.950 . S
C7166 H7162 0.949 . S
C7166 C7174 1.574 . S
C7166 C7182 1.368 . S
H7167 C7175 0.950 . S
H7168 C7173 0.950 . S
H7169 C7174 0.949 . S
H7170 C7176 0.950 . S
H7171 C7177 0.950 . S
H7172 C7178 0.949 . S
C7173 H7168 0.950 . S
C7173 C7175 1.327 . S
C7173 C7179 1.429 . S
C7174 C7166 1.574 . S
C7174 H7169 0.949 . S
C7174 C7180 1.368 . S
C7175 C7159 1.349 . S
C7175 H7167 0.950 . S
C7175 C7173 1.327 . S
C7176 C7164 1.349 . S
C7176 H7170 0.950 . S
C7176 C7177 1.327 . S
C7177 H7171 0.950 . S
C7177 C7176 1.327 . S
C7177 C7181 1.429 . S
C7178 C7161 1.574 . S
C7178 H7172 0.949 . S
C7178 C7182 1.368 . S
C7179 C7160 1.429 . S
C7179 C7173 1.429 . S
C7179 C7180 1.523 . S
C7180 C7161 1.368 . S
C7180 C7174 1.368 . S
C7180 C7179 1.523 . S
C7181 C7165 1.429 . S
C7181 C7177 1.429 . S
C7181 C7182 1.523 . S
C7182 C7166 1.368 . S
C7182 C7178 1.368 . S
C7182 C7181 1.523 . S
H7183 C7158 0.950 . S
H7184 C7160 0.950 . S
H7185 C7161 0.949 . S
H7186 C7163 0.950 . S
H7187 C7165 0.950 . S
C7188 C7189 1.349 . S
C7188 C7190 1.327 . S
C7188 H7213 0.950 . S
C7189 C7188 1.349 . S
C7189 C7205 1.349 . S
C7190 C7188 1.327 . S
C7190 C7209 1.429 . S
C7190 H7214 0.950 . S
C7191 C7208 1.574 . S
C7191 C7210 1.368 . S
C7191 H7215 0.949 . S
H7192 C7196 0.949 . S
C7193 C7194 1.349 . S
C7193 C7195 1.327 . S
C7193 H7216 0.950 . S
C7194 C7193 1.349 . S
C7194 C7206 1.349 . S
C7195 C7193 1.327 . S
C7195 C7211 1.429 . S
C7195 H7217 0.950 . S
C7196 H7192 0.949 . S
C7196 C7204 1.574 . S
C7196 C7212 1.368 . S
H7197 C7205 0.950 . S
H7198 C7203 0.950 . S
H7199 C7204 0.949 . S
H7200 C7206 0.950 . S
H7201 C7207 0.950 . S
H7202 C7208 0.949 . S
C7203 H7198 0.950 . S
C7203 C7205 1.327 . S
C7203 C7209 1.429 . S
C7204 C7196 1.574 . S
C7204 H7199 0.949 . S
C7204 C7210 1.368 . S
C7205 C7189 1.349 . S
C7205 H7197 0.950 . S
C7205 C7203 1.327 . S
C7206 C7194 1.349 . S
C7206 H7200 0.950 . S
C7206 C7207 1.327 . S
C7207 H7201 0.950 . S
C7207 C7206 1.327 . S
C7207 C7211 1.429 . S
C7208 C7191 1.574 . S
C7208 H7202 0.949 . S
C7208 C7212 1.368 . S
C7209 C7190 1.429 . S
C7209 C7203 1.429 . S
C7209 C7210 1.523 . S
C7210 C7191 1.368 . S
C7210 C7204 1.368 . S
C7210 C7209 1.523 . S
C7211 C7195 1.429 . S
C7211 C7207 1.429 . S
C7211 C7212 1.523 . S
C7212 C7196 1.368 . S
C7212 C7208 1.368 . S
C7212 C7211 1.523 . S
H7213 C7188 0.950 . S
H7214 C7190 0.950 . S
H7215 C7191 0.949 . S
H7216 C7193 0.950 . S
H7217 C7195 0.950 . S
C7218 C7219 1.349 . S
C7218 C7220 1.327 . S
C7218 H7243 0.950 . S
C7219 C7218 1.349 . S
C7219 C7235 1.349 . S
C7220 C7218 1.327 . S
C7220 C7239 1.429 . S
C7220 H7244 0.950 . S
C7221 C7238 1.574 . S
C7221 C7240 1.368 . S
C7221 H7245 0.949 . S
H7222 C7226 0.949 . S
C7223 C7224 1.349 . S
C7223 C7225 1.327 . S
C7223 H7246 0.950 . S
C7224 C7223 1.349 . S
C7224 C7236 1.349 . S
C7225 C7223 1.327 . S
C7225 C7241 1.429 . S
C7225 H7247 0.950 . S
C7226 H7222 0.949 . S
C7226 C7234 1.574 . S
C7226 C7242 1.368 . S
H7227 C7235 0.950 . S
H7228 C7233 0.950 . S
H7229 C7234 0.949 . S
H7230 C7236 0.950 . S
H7231 C7237 0.950 . S
H7232 C7238 0.949 . S
C7233 H7228 0.950 . S
C7233 C7235 1.327 . S
C7233 C7239 1.429 . S
C7234 C7226 1.574 . S
C7234 H7229 0.949 . S
C7234 C7240 1.368 . S
C7235 C7219 1.349 . S
C7235 H7227 0.950 . S
C7235 C7233 1.327 . S
C7236 C7224 1.349 . S
C7236 H7230 0.950 . S
C7236 C7237 1.327 . S
C7237 H7231 0.950 . S
C7237 C7236 1.327 . S
C7237 C7241 1.429 . S
C7238 C7221 1.574 . S
C7238 H7232 0.949 . S
C7238 C7242 1.368 . S
C7239 C7220 1.429 . S
C7239 C7233 1.429 . S
C7239 C7240 1.523 . S
C7240 C7221 1.368 . S
C7240 C7234 1.368 . S
C7240 C7239 1.523 . S
C7241 C7225 1.429 . S
C7241 C7237 1.429 . S
C7241 C7242 1.523 . S
C7242 C7226 1.368 . S
C7242 C7238 1.368 . S
C7242 C7241 1.523 . S
H7243 C7218 0.950 . S
H7244 C7220 0.950 . S
H7245 C7221 0.949 . S
H7246 C7223 0.950 . S
H7247 C7225 0.950 . S
C7248 C7249 1.349 . S
C7248 C7250 1.327 . S
C7248 H7273 0.950 . S
C7249 C7248 1.349 . S
C7249 C7265 1.349 . S
C7250 C7248 1.327 . S
C7250 C7269 1.429 . S
C7250 H7274 0.950 . S
C7251 C7268 1.574 . S
C7251 C7270 1.368 . S
C7251 H7275 0.949 . S
H7252 C7256 0.949 . S
C7253 C7254 1.349 . S
C7253 C7255 1.327 . S
C7253 H7276 0.950 . S
C7254 C7253 1.349 . S
C7254 C7266 1.349 . S
C7255 C7253 1.327 . S
C7255 C7271 1.429 . S
C7255 H7277 0.950 . S
C7256 H7252 0.949 . S
C7256 C7264 1.574 . S
C7256 C7272 1.368 . S
H7257 C7265 0.950 . S
H7258 C7263 0.950 . S
H7259 C7264 0.949 . S
H7260 C7266 0.950 . S
H7261 C7267 0.950 . S
H7262 C7268 0.949 . S
C7263 H7258 0.950 . S
C7263 C7265 1.327 . S
C7263 C7269 1.429 . S
C7264 C7256 1.574 . S
C7264 H7259 0.949 . S
C7264 C7270 1.368 . S
C7265 C7249 1.349 . S
C7265 H7257 0.950 . S
C7265 C7263 1.327 . S
C7266 C7254 1.349 . S
C7266 H7260 0.950 . S
C7266 C7267 1.327 . S
C7267 H7261 0.950 . S
C7267 C7266 1.327 . S
C7267 C7271 1.429 . S
C7268 C7251 1.574 . S
C7268 H7262 0.949 . S
C7268 C7272 1.368 . S
C7269 C7250 1.429 . S
C7269 C7263 1.429 . S
C7269 C7270 1.523 . S
C7270 C7251 1.368 . S
C7270 C7264 1.368 . S
C7270 C7269 1.523 . S
C7271 C7255 1.429 . S
C7271 C7267 1.429 . S
C7271 C7272 1.523 . S
C7272 C7256 1.368 . S
C7272 C7268 1.368 . S
C7272 C7271 1.523 . S
H7273 C7248 0.950 . S
H7274 C7250 0.950 . S
H7275 C7251 0.949 . S
H7276 C7253 0.950 . S
H7277 C7255 0.950 . S
C7278 C7279 1.349 . S
C7278 C7280 1.327 . S
C7278 H7303 0.950 . S
C7279 C7278 1.349 . S
C7279 C7295 1.349 . S
C7280 C7278 1.327 . S
C7280 C7299 1.429 . S
C7280 H7304 0.950 . S
C7281 C7298 1.574 . S
C7281 C7300 1.368 . S
C7281 H7305 0.949 . S
H7282 C7286 0.949 . S
C7283 C7284 1.349 . S
C7283 C7285 1.327 . S
C7283 H7306 0.950 . S
C7284 C7283 1.349 . S
C7284 C7296 1.349 . S
C7285 C7283 1.327 . S
C7285 C7301 1.429 . S
C7285 H7307 0.950 . S
C7286 H7282 0.949 . S
C7286 C7294 1.574 . S
C7286 C7302 1.368 . S
H7287 C7295 0.950 . S
H7288 C7293 0.950 . S
H7289 C7294 0.949 . S
H7290 C7296 0.950 . S
H7291 C7297 0.950 . S
H7292 C7298 0.949 . S
C7293 H7288 0.950 . S
C7293 C7295 1.327 . S
C7293 C7299 1.429 . S
C7294 C7286 1.574 . S
C7294 H7289 0.949 . S
C7294 C7300 1.368 . S
C7295 C7279 1.349 . S
C7295 H7287 0.950 . S
C7295 C7293 1.327 . S
C7296 C7284 1.349 . S
C7296 H7290 0.950 . S
C7296 C7297 1.327 . S
C7297 H7291 0.950 . S
C7297 C7296 1.327 . S
C7297 C7301 1.429 . S
C7298 C7281 1.574 . S
C7298 H7292 0.949 . S
C7298 C7302 1.368 . S
C7299 C7280 1.429 . S
C7299 C7293 1.429 . S
C7299 C7300 1.523 . S
C7300 C7281 1.368 . S
C7300 C7294 1.368 . S
C7300 C7299 1.523 . S
C7301 C7285 1.429 . S
C7301 C7297 1.429 . S
C7301 C7302 1.523 . S
C7302 C7286 1.368 . S
C7302 C7298 1.368 . S
C7302 C7301 1.523 . S
H7303 C7278 0.950 . S
H7304 C7280 0.950 . S
H7305 C7281 0.949 . S
H7306 C7283 0.950 . S
H7307 C7285 0.950 . S
C7308 C7309 1.349 . S
C7308 C7310 1.327 . S
C7308 H7333 0.950 . S
C7309 C7308 1.349 . S
C7309 C7325 1.349 . S
C7310 C7308 1.327 . S
C7310 C7329 1.429 . S
C7310 H7334 0.950 . S
C7311 C7328 1.574 . S
C7311 C7330 1.368 . S
C7311 H7335 0.949 . S
H7312 C7316 0.949 . S
C7313 C7314 1.349 . S
C7313 C7315 1.327 . S
C7313 H7336 0.950 . S
C7314 C7313 1.349 . S
C7314 C7326 1.349 . S
C7315 C7313 1.327 . S
C7315 C7331 1.429 . S
C7315 H7337 0.950 . S
C7316 H7312 0.949 . S
C7316 C7324 1.574 . S
C7316 C7332 1.368 . S
H7317 C7325 0.950 . S
H7318 C7323 0.950 . S
H7319 C7324 0.949 . S
H7320 C7326 0.950 . S
H7321 C7327 0.950 . S
H7322 C7328 0.949 . S
C7323 H7318 0.950 . S
C7323 C7325 1.327 . S
C7323 C7329 1.429 . S
C7324 C7316 1.574 . S
C7324 H7319 0.949 . S
C7324 C7330 1.368 . S
C7325 C7309 1.349 . S
C7325 H7317 0.950 . S
C7325 C7323 1.327 . S
C7326 C7314 1.349 . S
C7326 H7320 0.950 . S
C7326 C7327 1.327 . S
C7327 H7321 0.950 . S
C7327 C7326 1.327 . S
C7327 C7331 1.429 . S
C7328 C7311 1.574 . S
C7328 H7322 0.949 . S
C7328 C7332 1.368 . S
C7329 C7310 1.429 . S
C7329 C7323 1.429 . S
C7329 C7330 1.523 . S
C7330 C7311 1.368 . S
C7330 C7324 1.368 . S
C7330 C7329 1.523 . S
C7331 C7315 1.429 . S
C7331 C7327 1.429 . S
C7331 C7332 1.523 . S
C7332 C7316 1.368 . S
C7332 C7328 1.368 . S
C7332 C7331 1.523 . S
H7333 C7308 0.950 . S
H7334 C7310 0.950 . S
H7335 C7311 0.949 . S
H7336 C7313 0.950 . S
H7337 C7315 0.950 . S
C7338 C7339 1.349 . S
C7338 C7340 1.327 . S
C7338 H7363 0.950 . S
C7339 C7338 1.349 . S
C7339 C7355 1.349 . S
C7340 C7338 1.327 . S
C7340 C7359 1.429 . S
C7340 H7364 0.950 . S
C7341 C7358 1.574 . S
C7341 C7360 1.368 . S
C7341 H7365 0.949 . S
H7342 C7346 0.949 . S
C7343 C7344 1.349 . S
C7343 C7345 1.327 . S
C7343 H7366 0.950 . S
C7344 C7343 1.349 . S
C7344 C7356 1.349 . S
C7345 C7343 1.327 . S
C7345 C7361 1.429 . S
C7345 H7367 0.950 . S
C7346 H7342 0.949 . S
C7346 C7354 1.574 . S
C7346 C7362 1.368 . S
H7347 C7355 0.950 . S
H7348 C7353 0.950 . S
H7349 C7354 0.949 . S
H7350 C7356 0.950 . S
H7351 C7357 0.950 . S
H7352 C7358 0.949 . S
C7353 H7348 0.950 . S
C7353 C7355 1.327 . S
C7353 C7359 1.429 . S
C7354 C7346 1.574 . S
C7354 H7349 0.949 . S
C7354 C7360 1.368 . S
C7355 C7339 1.349 . S
C7355 H7347 0.950 . S
C7355 C7353 1.327 . S
C7356 C7344 1.349 . S
C7356 H7350 0.950 . S
C7356 C7357 1.327 . S
C7357 H7351 0.950 . S
C7357 C7356 1.327 . S
C7357 C7361 1.429 . S
C7358 C7341 1.574 . S
C7358 H7352 0.949 . S
C7358 C7362 1.368 . S
C7359 C7340 1.429 . S
C7359 C7353 1.429 . S
C7359 C7360 1.523 . S
C7360 C7341 1.368 . S
C7360 C7354 1.368 . S
C7360 C7359 1.523 . S
C7361 C7345 1.429 . S
C7361 C7357 1.429 . S
C7361 C7362 1.523 . S
C7362 C7346 1.368 . S
C7362 C7358 1.368 . S
C7362 C7361 1.523 . S
H7363 C7338 0.950 . S
H7364 C7340 0.950 . S
H7365 C7341 0.949 . S
H7366 C7343 0.950 . S
H7367 C7345 0.950 . S
C7368 C7369 1.349 . S
C7368 C7370 1.327 . S
C7368 H7393 0.950 . S
C7369 C7368 1.349 . S
C7369 C7385 1.349 . S
C7370 C7368 1.327 . S
C7370 C7389 1.429 . S
C7370 H7394 0.950 . S
C7371 C7388 1.574 . S
C7371 C7390 1.368 . S
C7371 H7395 0.949 . S
H7372 C7376 0.949 . S
C7373 C7374 1.349 . S
C7373 C7375 1.327 . S
C7373 H7396 0.950 . S
C7374 C7373 1.349 . S
C7374 C7386 1.349 . S
C7375 C7373 1.327 . S
C7375 C7391 1.429 . S
C7375 H7397 0.950 . S
C7376 H7372 0.949 . S
C7376 C7384 1.574 . S
C7376 C7392 1.368 . S
H7377 C7385 0.950 . S
H7378 C7383 0.950 . S
H7379 C7384 0.949 . S
H7380 C7386 0.950 . S
H7381 C7387 0.950 . S
H7382 C7388 0.949 . S
C7383 H7378 0.950 . S
C7383 C7385 1.327 . S
C7383 C7389 1.429 . S
C7384 C7376 1.574 . S
C7384 H7379 0.949 . S
C7384 C7390 1.368 . S
C7385 C7369 1.349 . S
C7385 H7377 0.950 . S
C7385 C7383 1.327 . S
C7386 C7374 1.349 . S
C7386 H7380 0.950 . S
C7386 C7387 1.327 . S
C7387 H7381 0.950 . S
C7387 C7386 1.327 . S
C7387 C7391 1.429 . S
C7388 C7371 1.574 . S
C7388 H7382 0.949 . S
C7388 C7392 1.368 . S
C7389 C7370 1.429 . S
C7389 C7383 1.429 . S
C7389 C7390 1.523 . S
C7390 C7371 1.368 . S
C7390 C7384 1.368 . S
C7390 C7389 1.523 . S
C7391 C7375 1.429 . S
C7391 C7387 1.429 . S
C7391 C7392 1.523 . S
C7392 C7376 1.368 . S
C7392 C7388 1.368 . S
C7392 C7391 1.523 . S
H7393 C7368 0.950 . S
H7394 C7370 0.950 . S
H7395 C7371 0.949 . S
H7396 C7373 0.950 . S
H7397 C7375 0.950 . S
C7398 C7399 1.349 . S
C7398 C7400 1.327 . S
C7398 H7423 0.950 . S
C7399 C7398 1.349 . S
C7399 C7415 1.349 . S
C7400 C7398 1.327 . S
C7400 C7419 1.429 . S
C7400 H7424 0.950 . S
C7401 C7418 1.574 . S
C7401 C7420 1.368 . S
C7401 H7425 0.949 . S
H7402 C7406 0.949 . S
C7403 C7404 1.349 . S
C7403 C7405 1.327 . S
C7403 H7426 0.950 . S
C7404 C7403 1.349 . S
C7404 C7416 1.349 . S
C7405 C7403 1.327 . S
C7405 C7421 1.429 . S
C7405 H7427 0.950 . S
C7406 H7402 0.949 . S
C7406 C7414 1.574 . S
C7406 C7422 1.368 . S
H7407 C7415 0.950 . S
H7408 C7413 0.950 . S
H7409 C7414 0.949 . S
H7410 C7416 0.950 . S
H7411 C7417 0.950 . S
H7412 C7418 0.949 . S
C7413 H7408 0.950 . S
C7413 C7415 1.327 . S
C7413 C7419 1.429 . S
C7414 C7406 1.574 . S
C7414 H7409 0.949 . S
C7414 C7420 1.368 . S
C7415 C7399 1.349 . S
C7415 H7407 0.950 . S
C7415 C7413 1.327 . S
C7416 C7404 1.349 . S
C7416 H7410 0.950 . S
C7416 C7417 1.327 . S
C7417 H7411 0.950 . S
C7417 C7416 1.327 . S
C7417 C7421 1.429 . S
C7418 C7401 1.574 . S
C7418 H7412 0.949 . S
C7418 C7422 1.368 . S
C7419 C7400 1.429 . S
C7419 C7413 1.429 . S
C7419 C7420 1.523 . S
C7420 C7401 1.368 . S
C7420 C7414 1.368 . S
C7420 C7419 1.523 . S
C7421 C7405 1.429 . S
C7421 C7417 1.429 . S
C7421 C7422 1.523 . S
C7422 C7406 1.368 . S
C7422 C7418 1.368 . S
C7422 C7421 1.523 . S
H7423 C7398 0.950 . S
H7424 C7400 0.950 . S
H7425 C7401 0.949 . S
H7426 C7403 0.950 . S
H7427 C7405 0.950 . S
C7428 C7429 1.349 . S
C7428 C7430 1.327 . S
C7428 H7453 0.950 . S
C7429 C7428 1.349 . S
C7429 C7445 1.349 . S
C7430 C7428 1.327 . S
C7430 C7449 1.429 . S
C7430 H7454 0.950 . S
C7431 C7448 1.574 . S
C7431 C7450 1.368 . S
C7431 H7455 0.949 . S
H7432 C7436 0.949 . S
C7433 C7434 1.349 . S
C7433 C7435 1.327 . S
C7433 H7456 0.950 . S
C7434 C7433 1.349 . S
C7434 C7446 1.349 . S
C7435 C7433 1.327 . S
C7435 C7451 1.429 . S
C7435 H7457 0.950 . S
C7436 H7432 0.949 . S
C7436 C7444 1.574 . S
C7436 C7452 1.368 . S
H7437 C7445 0.950 . S
H7438 C7443 0.950 . S
H7439 C7444 0.949 . S
H7440 C7446 0.950 . S
H7441 C7447 0.950 . S
H7442 C7448 0.949 . S
C7443 H7438 0.950 . S
C7443 C7445 1.327 . S
C7443 C7449 1.429 . S
C7444 C7436 1.574 . S
C7444 H7439 0.949 . S
C7444 C7450 1.368 . S
C7445 C7429 1.349 . S
C7445 H7437 0.950 . S
C7445 C7443 1.327 . S
C7446 C7434 1.349 . S
C7446 H7440 0.950 . S
C7446 C7447 1.327 . S
C7447 H7441 0.950 . S
C7447 C7446 1.327 . S
C7447 C7451 1.429 . S
C7448 C7431 1.574 . S
C7448 H7442 0.949 . S
C7448 C7452 1.368 . S
C7449 C7430 1.429 . S
C7449 C7443 1.429 . S
C7449 C7450 1.523 . S
C7450 C7431 1.368 . S
C7450 C7444 1.368 . S
C7450 C7449 1.523 . S
C7451 C7435 1.429 . S
C7451 C7447 1.429 . S
C7451 C7452 1.523 . S
C7452 C7436 1.368 . S
C7452 C7448 1.368 . S
C7452 C7451 1.523 . S
H7453 C7428 0.950 . S
H7454 C7430 0.950 . S
H7455 C7431 0.949 . S
H7456 C7433 0.950 . S
H7457 C7435 0.950 . S
C7458 C7459 1.349 . S
C7458 C7460 1.327 . S
C7458 H7483 0.950 . S
C7459 C7458 1.349 . S
C7459 C7475 1.349 . S
C7460 C7458 1.327 . S
C7460 C7479 1.429 . S
C7460 H7484 0.950 . S
C7461 C7478 1.574 . S
C7461 C7480 1.368 . S
C7461 H7485 0.949 . S
H7462 C7466 0.949 . S
C7463 C7464 1.349 . S
C7463 C7465 1.327 . S
C7463 H7486 0.950 . S
C7464 C7463 1.349 . S
C7464 C7476 1.349 . S
C7465 C7463 1.327 . S
C7465 C7481 1.429 . S
C7465 H7487 0.950 . S
C7466 H7462 0.949 . S
C7466 C7474 1.574 . S
C7466 C7482 1.368 . S
H7467 C7475 0.950 . S
H7468 C7473 0.950 . S
H7469 C7474 0.949 . S
H7470 C7476 0.950 . S
H7471 C7477 0.950 . S
H7472 C7478 0.949 . S
C7473 H7468 0.950 . S
C7473 C7475 1.327 . S
C7473 C7479 1.429 . S
C7474 C7466 1.574 . S
C7474 H7469 0.949 . S
C7474 C7480 1.368 . S
C7475 C7459 1.349 . S
C7475 H7467 0.950 . S
C7475 C7473 1.327 . S
C7476 C7464 1.349 . S
C7476 H7470 0.950 . S
C7476 C7477 1.327 . S
C7477 H7471 0.950 . S
C7477 C7476 1.327 . S
C7477 C7481 1.429 . S
C7478 C7461 1.574 . S
C7478 H7472 0.949 . S
C7478 C7482 1.368 . S
C7479 C7460 1.429 . S
C7479 C7473 1.429 . S
C7479 C7480 1.523 . S
C7480 C7461 1.368 . S
C7480 C7474 1.368 . S
C7480 C7479 1.523 . S
C7481 C7465 1.429 . S
C7481 C7477 1.429 . S
C7481 C7482 1.523 . S
C7482 C7466 1.368 . S
C7482 C7478 1.368 . S
C7482 C7481 1.523 . S
H7483 C7458 0.950 . S
H7484 C7460 0.950 . S
H7485 C7461 0.949 . S
H7486 C7463 0.950 . S
H7487 C7465 0.950 . S
C7488 C7489 1.349 . S
C7488 C7490 1.327 . S
C7488 H7513 0.950 . S
C7489 C7488 1.349 . S
C7489 C7505 1.349 . S
C7490 C7488 1.327 . S
C7490 C7509 1.429 . S
C7490 H7514 0.950 . S
C7491 C7508 1.574 . S
C7491 C7510 1.368 . S
C7491 H7515 0.949 . S
H7492 C7496 0.949 . S
C7493 C7494 1.349 . S
C7493 C7495 1.327 . S
C7493 H7516 0.950 . S
C7494 C7493 1.349 . S
C7494 C7506 1.349 . S
C7495 C7493 1.327 . S
C7495 C7511 1.429 . S
C7495 H7517 0.950 . S
C7496 H7492 0.949 . S
C7496 C7504 1.574 . S
C7496 C7512 1.368 . S
H7497 C7505 0.950 . S
H7498 C7503 0.950 . S
H7499 C7504 0.949 . S
H7500 C7506 0.950 . S
H7501 C7507 0.950 . S
H7502 C7508 0.949 . S
C7503 H7498 0.950 . S
C7503 C7505 1.327 . S
C7503 C7509 1.429 . S
C7504 C7496 1.574 . S
C7504 H7499 0.949 . S
C7504 C7510 1.368 . S
C7505 C7489 1.349 . S
C7505 H7497 0.950 . S
C7505 C7503 1.327 . S
C7506 C7494 1.349 . S
C7506 H7500 0.950 . S
C7506 C7507 1.327 . S
C7507 H7501 0.950 . S
C7507 C7506 1.327 . S
C7507 C7511 1.429 . S
C7508 C7491 1.574 . S
C7508 H7502 0.949 . S
C7508 C7512 1.368 . S
C7509 C7490 1.429 . S
C7509 C7503 1.429 . S
C7509 C7510 1.523 . S
C7510 C7491 1.368 . S
C7510 C7504 1.368 . S
C7510 C7509 1.523 . S
C7511 C7495 1.429 . S
C7511 C7507 1.429 . S
C7511 C7512 1.523 . S
C7512 C7496 1.368 . S
C7512 C7508 1.368 . S
C7512 C7511 1.523 . S
H7513 C7488 0.950 . S
H7514 C7490 0.950 . S
H7515 C7491 0.949 . S
H7516 C7493 0.950 . S
H7517 C7495 0.950 . S
C7518 C7519 1.349 . S
C7518 C7520 1.327 . S
C7518 H7543 0.950 . S
C7519 C7518 1.349 . S
C7519 C7535 1.349 . S
C7520 C7518 1.327 . S
C7520 C7539 1.429 . S
C7520 H7544 0.950 . S
C7521 C7538 1.574 . S
C7521 C7540 1.368 . S
C7521 H7545 0.949 . S
H7522 C7526 0.949 . S
C7523 C7524 1.349 . S
C7523 C7525 1.327 . S
C7523 H7546 0.950 . S
C7524 C7523 1.349 . S
C7524 C7536 1.349 . S
C7525 C7523 1.327 . S
C7525 C7541 1.429 . S
C7525 H7547 0.950 . S
C7526 H7522 0.949 . S
C7526 C7534 1.574 . S
C7526 C7542 1.368 . S
H7527 C7535 0.950 . S
H7528 C7533 0.950 . S
H7529 C7534 0.949 . S
H7530 C7536 0.950 . S
H7531 C7537 0.950 . S
H7532 C7538 0.949 . S
C7533 H7528 0.950 . S
C7533 C7535 1.327 . S
C7533 C7539 1.429 . S
C7534 C7526 1.574 . S
C7534 H7529 0.949 . S
C7534 C7540 1.368 . S
C7535 C7519 1.349 . S
C7535 H7527 0.950 . S
C7535 C7533 1.327 . S
C7536 C7524 1.349 . S
C7536 H7530 0.950 . S
C7536 C7537 1.327 . S
C7537 H7531 0.950 . S
C7537 C7536 1.327 . S
C7537 C7541 1.429 . S
C7538 C7521 1.574 . S
C7538 H7532 0.949 . S
C7538 C7542 1.368 . S
C7539 C7520 1.429 . S
C7539 C7533 1.429 . S
C7539 C7540 1.523 . S
C7540 C7521 1.368 . S
C7540 C7534 1.368 . S
C7540 C7539 1.523 . S
C7541 C7525 1.429 . S
C7541 C7537 1.429 . S
C7541 C7542 1.523 . S
C7542 C7526 1.368 . S
C7542 C7538 1.368 . S
C7542 C7541 1.523 . S
H7543 C7518 0.950 . S
H7544 C7520 0.950 . S
H7545 C7521 0.949 . S
H7546 C7523 0.950 . S
H7547 C7525 0.950 . S
C7548 C7549 1.349 . S
C7548 C7550 1.327 . S
C7548 H7573 0.950 . S
C7549 C7548 1.349 . S
C7549 C7565 1.349 . S
C7550 C7548 1.327 . S
C7550 C7569 1.429 . S
C7550 H7574 0.950 . S
C7551 C7568 1.574 . S
C7551 C7570 1.368 . S
C7551 H7575 0.949 . S
H7552 C7556 0.949 . S
C7553 C7554 1.349 . S
C7553 C7555 1.327 . S
C7553 H7576 0.950 . S
C7554 C7553 1.349 . S
C7554 C7566 1.349 . S
C7555 C7553 1.327 . S
C7555 C7571 1.429 . S
C7555 H7577 0.950 . S
C7556 H7552 0.949 . S
C7556 C7564 1.574 . S
C7556 C7572 1.368 . S
H7557 C7565 0.950 . S
H7558 C7563 0.950 . S
H7559 C7564 0.949 . S
H7560 C7566 0.950 . S
H7561 C7567 0.950 . S
H7562 C7568 0.949 . S
C7563 H7558 0.950 . S
C7563 C7565 1.327 . S
C7563 C7569 1.429 . S
C7564 C7556 1.574 . S
C7564 H7559 0.949 . S
C7564 C7570 1.368 . S
C7565 C7549 1.349 . S
C7565 H7557 0.950 . S
C7565 C7563 1.327 . S
C7566 C7554 1.349 . S
C7566 H7560 0.950 . S
C7566 C7567 1.327 . S
C7567 H7561 0.950 . S
C7567 C7566 1.327 . S
C7567 C7571 1.429 . S
C7568 C7551 1.574 . S
C7568 H7562 0.949 . S
C7568 C7572 1.368 . S
C7569 C7550 1.429 . S
C7569 C7563 1.429 . S
C7569 C7570 1.523 . S
C7570 C7551 1.368 . S
C7570 C7564 1.368 . S
C7570 C7569 1.523 . S
C7571 C7555 1.429 . S
C7571 C7567 1.429 . S
C7571 C7572 1.523 . S
C7572 C7556 1.368 . S
C7572 C7568 1.368 . S
C7572 C7571 1.523 . S
H7573 C7548 0.950 . S
H7574 C7550 0.950 . S
H7575 C7551 0.949 . S
H7576 C7553 0.950 . S
H7577 C7555 0.950 . S
C7578 C7579 1.349 . S
C7578 C7580 1.327 . S
C7578 H7603 0.950 . S
C7579 C7578 1.349 . S
C7579 C7595 1.349 . S
C7580 C7578 1.327 . S
C7580 C7599 1.429 . S
C7580 H7604 0.950 . S
C7581 C7598 1.574 . S
C7581 C7600 1.368 . S
C7581 H7605 0.949 . S
H7582 C7586 0.949 . S
C7583 C7584 1.349 . S
C7583 C7585 1.327 . S
C7583 H7606 0.950 . S
C7584 C7583 1.349 . S
C7584 C7596 1.349 . S
C7585 C7583 1.327 . S
C7585 C7601 1.429 . S
C7585 H7607 0.950 . S
C7586 H7582 0.949 . S
C7586 C7594 1.574 . S
C7586 C7602 1.368 . S
H7587 C7595 0.950 . S
H7588 C7593 0.950 . S
H7589 C7594 0.949 . S
H7590 C7596 0.950 . S
H7591 C7597 0.950 . S
H7592 C7598 0.949 . S
C7593 H7588 0.950 . S
C7593 C7595 1.327 . S
C7593 C7599 1.429 . S
C7594 C7586 1.574 . S
C7594 H7589 0.949 . S
C7594 C7600 1.368 . S
C7595 C7579 1.349 . S
C7595 H7587 0.950 . S
C7595 C7593 1.327 . S
C7596 C7584 1.349 . S
C7596 H7590 0.950 . S
C7596 C7597 1.327 . S
C7597 H7591 0.950 . S
C7597 C7596 1.327 . S
C7597 C7601 1.429 . S
C7598 C7581 1.574 . S
C7598 H7592 0.949 . S
C7598 C7602 1.368 . S
C7599 C7580 1.429 . S
C7599 C7593 1.429 . S
C7599 C7600 1.523 . S
C7600 C7581 1.368 . S
C7600 C7594 1.368 . S
C7600 C7599 1.523 . S
C7601 C7585 1.429 . S
C7601 C7597 1.429 . S
C7601 C7602 1.523 . S
C7602 C7586 1.368 . S
C7602 C7598 1.368 . S
C7602 C7601 1.523 . S
H7603 C7578 0.950 . S
H7604 C7580 0.950 . S
H7605 C7581 0.949 . S
H7606 C7583 0.950 . S
H7607 C7585 0.950 . S
C7608 C7609 1.349 . S
C7608 C7610 1.327 . S
C7608 H7633 0.950 . S
C7609 C7608 1.349 . S
C7609 C7625 1.349 . S
C7610 C7608 1.327 . S
C7610 C7629 1.429 . S
C7610 H7634 0.950 . S
C7611 C7628 1.574 . S
C7611 C7630 1.368 . S
C7611 H7635 0.949 . S
H7612 C7616 0.949 . S
C7613 C7614 1.349 . S
C7613 C7615 1.327 . S
C7613 H7636 0.950 . S
C7614 C7613 1.349 . S
C7614 C7626 1.349 . S
C7615 C7613 1.327 . S
C7615 C7631 1.429 . S
C7615 H7637 0.950 . S
C7616 H7612 0.949 . S
C7616 C7624 1.574 . S
C7616 C7632 1.368 . S
H7617 C7625 0.950 . S
H7618 C7623 0.950 . S
H7619 C7624 0.949 . S
H7620 C7626 0.950 . S
H7621 C7627 0.950 . S
H7622 C7628 0.949 . S
C7623 H7618 0.950 . S
C7623 C7625 1.327 . S
C7623 C7629 1.429 . S
C7624 C7616 1.574 . S
C7624 H7619 0.949 . S
C7624 C7630 1.368 . S
C7625 C7609 1.349 . S
C7625 H7617 0.950 . S
C7625 C7623 1.327 . S
C7626 C7614 1.349 . S
C7626 H7620 0.950 . S
C7626 C7627 1.327 . S
C7627 H7621 0.950 . S
C7627 C7626 1.327 . S
C7627 C7631 1.429 . S
C7628 C7611 1.574 . S
C7628 H7622 0.949 . S
C7628 C7632 1.368 . S
C7629 C7610 1.429 . S
C7629 C7623 1.429 . S
C7629 C7630 1.523 . S
C7630 C7611 1.368 . S
C7630 C7624 1.368 . S
C7630 C7629 1.523 . S
C7631 C7615 1.429 . S
C7631 C7627 1.429 . S
C7631 C7632 1.523 . S
C7632 C7616 1.368 . S
C7632 C7628 1.368 . S
C7632 C7631 1.523 . S
H7633 C7608 0.950 . S
H7634 C7610 0.950 . S
H7635 C7611 0.949 . S
H7636 C7613 0.950 . S
H7637 C7615 0.950 . S
C7638 C7639 1.349 . S
C7638 C7640 1.327 . S
C7638 H7663 0.950 . S
C7639 C7638 1.349 . S
C7639 C7655 1.349 . S
C7640 C7638 1.327 . S
C7640 C7659 1.429 . S
C7640 H7664 0.950 . S
C7641 C7658 1.574 . S
C7641 C7660 1.368 . S
C7641 H7665 0.949 . S
H7642 C7646 0.949 . S
C7643 C7644 1.349 . S
C7643 C7645 1.327 . S
C7643 H7666 0.950 . S
C7644 C7643 1.349 . S
C7644 C7656 1.349 . S
C7645 C7643 1.327 . S
C7645 C7661 1.429 . S
C7645 H7667 0.950 . S
C7646 H7642 0.949 . S
C7646 C7654 1.574 . S
C7646 C7662 1.368 . S
H7647 C7655 0.950 . S
H7648 C7653 0.950 . S
H7649 C7654 0.949 . S
H7650 C7656 0.950 . S
H7651 C7657 0.950 . S
H7652 C7658 0.949 . S
C7653 H7648 0.950 . S
C7653 C7655 1.327 . S
C7653 C7659 1.429 . S
C7654 C7646 1.574 . S
C7654 H7649 0.949 . S
C7654 C7660 1.368 . S
C7655 C7639 1.349 . S
C7655 H7647 0.950 . S
C7655 C7653 1.327 . S
C7656 C7644 1.349 . S
C7656 H7650 0.950 . S
C7656 C7657 1.327 . S
C7657 H7651 0.950 . S
C7657 C7656 1.327 . S
C7657 C7661 1.429 . S
C7658 C7641 1.574 . S
C7658 H7652 0.949 . S
C7658 C7662 1.368 . S
C7659 C7640 1.429 . S
C7659 C7653 1.429 . S
C7659 C7660 1.523 . S
C7660 C7641 1.368 . S
C7660 C7654 1.368 . S
C7660 C7659 1.523 . S
C7661 C7645 1.429 . S
C7661 C7657 1.429 . S
C7661 C7662 1.523 . S
C7662 C7646 1.368 . S
C7662 C7658 1.368 . S
C7662 C7661 1.523 . S
H7663 C7638 0.950 . S
H7664 C7640 0.950 . S
H7665 C7641 0.949 . S
H7666 C7643 0.950 . S
H7667 C7645 0.950 . S
C7668 C7669 1.349 . S
C7668 C7670 1.327 . S
C7668 H7693 0.950 . S
C7669 C7668 1.349 . S
C7669 C7685 1.349 . S
C7670 C7668 1.327 . S
C7670 C7689 1.429 . S
C7670 H7694 0.950 . S
C7671 C7688 1.574 . S
C7671 C7690 1.368 . S
C7671 H7695 0.949 . S
H7672 C7676 0.949 . S
C7673 C7674 1.349 . S
C7673 C7675 1.327 . S
C7673 H7696 0.950 . S
C7674 C7673 1.349 . S
C7674 C7686 1.349 . S
C7675 C7673 1.327 . S
C7675 C7691 1.429 . S
C7675 H7697 0.950 . S
C7676 H7672 0.949 . S
C7676 C7684 1.574 . S
C7676 C7692 1.368 . S
H7677 C7685 0.950 . S
H7678 C7683 0.950 . S
H7679 C7684 0.949 . S
H7680 C7686 0.950 . S
H7681 C7687 0.950 . S
H7682 C7688 0.949 . S
C7683 H7678 0.950 . S
C7683 C7685 1.327 . S
C7683 C7689 1.429 . S
C7684 C7676 1.574 . S
C7684 H7679 0.949 . S
C7684 C7690 1.368 . S
C7685 C7669 1.349 . S
C7685 H7677 0.950 . S
C7685 C7683 1.327 . S
C7686 C7674 1.349 . S
C7686 H7680 0.950 . S
C7686 C7687 1.327 . S
C7687 H7681 0.950 . S
C7687 C7686 1.327 . S
C7687 C7691 1.429 . S
C7688 C7671 1.574 . S
C7688 H7682 0.949 . S
C7688 C7692 1.368 . S
C7689 C7670 1.429 . S
C7689 C7683 1.429 . S
C7689 C7690 1.523 . S
C7690 C7671 1.368 . S
C7690 C7684 1.368 . S
C7690 C7689 1.523 . S
C7691 C7675 1.429 . S
C7691 C7687 1.429 . S
C7691 C7692 1.523 . S
C7692 C7676 1.368 . S
C7692 C7688 1.368 . S
C7692 C7691 1.523 . S
H7693 C7668 0.950 . S
H7694 C7670 0.950 . S
H7695 C7671 0.949 . S
H7696 C7673 0.950 . S
H7697 C7675 0.950 . S
C7698 C7699 1.349 . S
C7698 C7700 1.327 . S
C7698 H7723 0.950 . S
C7699 C7698 1.349 . S
C7699 C7715 1.349 . S
C7700 C7698 1.327 . S
C7700 C7719 1.429 . S
C7700 H7724 0.950 . S
C7701 C7718 1.574 . S
C7701 C7720 1.368 . S
C7701 H7725 0.949 . S
H7702 C7706 0.949 . S
C7703 C7704 1.349 . S
C7703 C7705 1.327 . S
C7703 H7726 0.950 . S
C7704 C7703 1.349 . S
C7704 C7716 1.349 . S
C7705 C7703 1.327 . S
C7705 C7721 1.429 . S
C7705 H7727 0.950 . S
C7706 H7702 0.949 . S
C7706 C7714 1.574 . S
C7706 C7722 1.368 . S
H7707 C7715 0.950 . S
H7708 C7713 0.950 . S
H7709 C7714 0.949 . S
H7710 C7716 0.950 . S
H7711 C7717 0.950 . S
H7712 C7718 0.949 . S
C7713 H7708 0.950 . S
C7713 C7715 1.327 . S
C7713 C7719 1.429 . S
C7714 C7706 1.574 . S
C7714 H7709 0.949 . S
C7714 C7720 1.368 . S
C7715 C7699 1.349 . S
C7715 H7707 0.950 . S
C7715 C7713 1.327 . S
C7716 C7704 1.349 . S
C7716 H7710 0.950 . S
C7716 C7717 1.327 . S
C7717 H7711 0.950 . S
C7717 C7716 1.327 . S
C7717 C7721 1.429 . S
C7718 C7701 1.574 . S
C7718 H7712 0.949 . S
C7718 C7722 1.368 . S
C7719 C7700 1.429 . S
C7719 C7713 1.429 . S
C7719 C7720 1.523 . S
C7720 C7701 1.368 . S
C7720 C7714 1.368 . S
C7720 C7719 1.523 . S
C7721 C7705 1.429 . S
C7721 C7717 1.429 . S
C7721 C7722 1.523 . S
C7722 C7706 1.368 . S
C7722 C7718 1.368 . S
C7722 C7721 1.523 . S
H7723 C7698 0.950 . S
H7724 C7700 0.950 . S
H7725 C7701 0.949 . S
H7726 C7703 0.950 . S
H7727 C7705 0.950 . S
C3409 C491 1.555 . S
C3414 C548 1.636 . S
C3439 C271 1.595 . S
C3444 C619 1.621 . S
C3474 C679 1.476 . S
C3469 C513 1.436 . S
C3499 C293 1.685 . S
C3504 C728 1.766 . S
C3529 C524 1.865 . S
C3534 C788 1.874 . S
C3559 C260 1.565 . S
C3564 C848 1.647 . S
C3589 C502 1.586 . S
C3594 C919 1.660 . S
C3619 C282 1.453 . S
C3624 C979 1.483 . S
C3649 C183 1.591 . S
C3654 C1009 1.629 . S
C3679 C447 1.818 . S
C3684 C1088 1.842 . S
C3709 C205 1.650 . S
C3714 C1148 1.654 . S
C3739 C436 1.519 . S
C3744 C1208 1.554 . S
C3769 C249 1.494 . S
C3774 C1249 1.512 . S
C3804 C1328 1.532 . S
C3799 C458 1.552 . S
C3834 C1388 1.769 . S
C3829 C227 1.748 . S
C3859 C315 1.710 . S
C3864 C1448 1.719 . S
C3894 C1508 1.562 . S
C3889 C216 1.591 . S
C3924 C1568 1.767 . S
C3919 C469 1.751 . S
C3949 C238 1.560 . S
C3954 C1628 1.563 . S
C3979 C326 1.616 . S
C3984 C1688 1.621 . S
C4014 C1729 1.510 . S
C4009 C304 1.455 . S
C4039 C392 1.390 . S
C4044 C1789 1.405 . S
C4074 C1849 1.627 . S
C4069 C106 1.644 . S
C4104 C1909 1.526 . S
C4099 C414 1.508 . S
C4134 C1969 1.685 . S
C4129 C128 1.678 . S
C4164 C2029 1.704 . S
C4159 C425 1.697 . S
C4189 C95 1.324 . S
C4194 C2089 1.338 . S
C4224 C2149 1.582 . S
C4219 C403 1.612 . S
C4249 C117 1.529 . S
C4254 C2209 1.545 . S
C4284 C2288 1.542 . S
C4279 C18 1.520 . S
C4314 C2348 1.777 . S
C4309 C348 1.767 . S
C4339 C40 1.587 . S
C4344 C2408 1.572 . S
C4374 C2468 1.643 . S
C4369 C337 1.668 . S
C4404 C2528 1.602 . S
C4399 C84 1.588 . S
C4429 C359 1.580 . S
C4434 C2588 1.569 . S
C4464 C2648 1.710 . S
C4459 C62 1.718 . S
C4494 C2708 1.518 . S
C4489 C150 1.500 . S
C4519 C51 1.635 . S
C4524 C2768 1.616 . S
C4554 C2828 1.703 . S
C4549 C370 1.711 . S
C4579 C73 1.472 . S
C4584 C2888 1.491 . S
C4614 C2948 1.502 . S
C4609 C161 1.519 . S
C4639 C139 1.501 . S
C4644 C3008 1.520 . S
C4669 C194 1.807 . S
C4674 C3068 1.829 . S
C4704 C3128 1.532 . S
C4699 C172 1.495 . S
C4729 C480 1.479 . S
C4734 C3169 1.496 . S
C4759 C29 1.760 . S
C4764 C3248 1.770 . S
C4794 C3308 1.476 . S
C4789 C7 1.484 . S
C4824 C3368 1.514 . S
C4819 C381 1.505 . S
C4849 C368 1.627 1_554 S
C4854 C529 1.728 . S
C4879 C151 1.369 . S
C4884 C608 1.323 . S
C4909 C379 1.311 . S
C4914 C649 1.439 . S
C4944 C739 1.632 . S
C4939 C360 1.632 . S
C4969 C159 1.913 . S
C4974 C769 2.017 . S
C4999 C338 1.651 . S
C5004 C859 1.645 . S
C5034 C908 1.512 . S
C5029 C140 1.471 . S
C5059 C346 1.267 . S
C5064 C968 1.416 . S
C5089 C349 1.399 . S
C5094 C1039 1.374 . S
C5124 C1099 1.663 . S
C5119 C162 1.669 . S
C5149 C335 1.708 . S
C5154 C1129 1.796 . S
C5184 C1189 1.434 . S
C5179 C137 1.203 . S
C5209 C148 1.437 . S
C5214 C1279 1.546 . S
C5239 C382 1.412 . S
C5244 C1309 1.362 . S
C5274 C1369 1.747 . S
C5269 C357 1.619 . S
C5304 C1459 1.720 . S
C5299 C371 1.732 . S
C5329 C129 1.505 . S
C5334 C1219 1.504 . S
C5359 C393 1.509 . S
C5364 C1519 1.505 . S
C5389 C401 1.280 . S
C5394 C1579 1.513 . S
C5424 C1609 1.595 . S
C5419 C412 1.460 . S
C5454 C1268 1.490 . S
C5449 C126 1.320 . S
C5479 C107 1.736 . S
C5484 C1069 1.752 . S
C5509 C415 1.463 . S
C5514 C1699 1.468 . S
C5544 C1748 1.255 . S
C5539 C390 1.082 . S
C5574 C1819 1.366 . S
C5569 C467 1.245 . S
C5599 C316 1.734 . S
C5604 C1879 1.648 . S
C5634 C1928 1.337 . S
C5629 C478 1.153 . S
C5664 C1988 1.605 . S
C5659 C459 1.589 . S
C5689 C324 1.303 . S
C5694 C2059 1.448 . S
C5719 C434 1.169 . S
C5724 C2108 1.466 . S
C5749 C305 1.506 . S
C5754 C2168 1.492 . S
C5784 C2239 1.399 . S
C5779 C448 1.432 . S
C5814 C2269 1.544 . S
C5809 C445 1.401 . S
C5839 C327 1.904 . S
C5844 C2359 1.913 . S
C5874 C2419 1.438 . S
C5869 C437 1.448 . S
C5899 C302 1.268 . S
C5904 C2449 1.571 . S
C5934 C2509 1.509 . S
C5929 C313 1.352 . S
C5959 C481 1.578 . S
C5964 C2569 1.525 . S
C5994 C2659 1.485 . S
C5989 C456 1.311 . S
C6019 C470 1.541 . S
C6024 C2719 1.552 . S
C6049 C294 1.588 . S
C6054 C2479 1.575 . S
C6079 C492 1.539 . S
C6084 C2779 1.543 . S
C6109 C500 1.300 . S
C6114 C2809 1.613 . S
C6144 C2869 1.468 . S
C6139 C514 1.454 . S
C6169 C291 1.326 . S
C6174 C2539 1.725 . S
C6199 C272 1.649 . S
C6204 C2329 1.660 . S
C6234 C2929 1.511 . S
C6229 C511 1.196 . S
C6259 C489 1.438 . S
C6264 C3019 1.920 . S
C6294 C829 1.732 . S
C6289 C60 1.637 . S
C6324 C889 1.353 . S
C6319 C74 1.348 . S
C6354 C949 1.565 . S
C6349 C82 1.467 1_554 S
C6384 C799 1.743 . S
C6379 C52 1.760 . S
C6414 C709 1.749 . S
C6409 C38 1.650 . S
C6439 C8 1.602 . S
C6444 C559 1.602 . S
C6469 C19 1.512 . S
C6474 C589 1.531 . S
C6499 C27 1.188 . S
C6504 C668 1.335 . S
C6529 C30 1.319 . S
C6534 C1759 1.305 . S
C6559 C41 1.637 . S
C6564 C3079 1.624 . S
C6589 C5 1.504 1_655 S
C6594 C1669 1.621 . S
C6619 C16 1.204 . S
C6624 C3109 1.446 . S
C6649 C71 1.390 . S
C6654 C3199 1.507 . S
C6684 C1489 1.434 . S
C6679 C85 1.491 . S
C6709 C49 1.582 . S
C6714 C1549 1.706 . S
C6739 C63 1.661 . S
C6744 C1639 1.651 . S
C6774 C3139 1.487 . S
C6769 C426 1.488 . S
C6799 C96 1.512 . S
C6804 C1339 1.515 . S
C6829 C104 1.358 . S
C6834 C1399 1.599 . S
C6859 C115 1.615 . S
C6864 C1429 1.754 . S
C6894 C3188 1.470 . S
C6889 C423 1.304 . S
C6924 C3049 1.679 . S
C6919 C404 1.659 . S
C6954 C1159 1.602 . S
C6949 C118 1.600 . S
C6979 C93 1.190 . S
C6984 C1028 1.373 . S
C7009 C225 1.189 . S
C7014 C2119 1.312 . S
C7039 C239 1.716 . S
C7044 C2179 1.626 . S
C7069 C247 1.180 . S
C7074 C2228 1.371 . S
C7099 C217 1.603 . S
C7104 C2048 1.619 . S
C7134 C1999 1.419 . S
C7129 C203 1.273 1_554 S
C7164 C1808 1.484 . S
C7159 C170 1.172 . S
C7194 C1868 1.513 . S
C7189 C184 1.524 . S
C7219 C195 1.417 . S
C7224 C1939 1.386 . S
C7254 C2989 1.531 . S
C7249 C192 1.390 . S
C7279 C206 1.909 . S
C7284 C3259 1.919 . S
C7309 C173 1.414 . S
C7314 C2959 1.405 . S
C7344 C3289 1.547 . S
C7339 C181 1.275 . S
C7369 C236 1.119 . S
C7374 C3349 1.252 . S
C7404 C2749 1.594 . S
C7399 C250 1.653 . S
C7429 C214 1.289 . S
C7434 C2839 1.466 . S
C7459 C228 1.493 . S
C7464 C2899 1.504 . S
C7489 C522 1.430 . S
C7494 C3319 1.544 . S
C7524 C2599 1.495 . S
C7519 C261 1.487 . S
C7549 C269 1.303 . S
C7554 C2629 1.613 . S
C7579 C283 1.461 . S
C7584 C2689 1.474 . S
C7609 C525 1.542 . S
C7614 C3379 1.557 . S
C7639 C503 1.665 . S
C7644 C3229 1.675 . S
C7674 C2389 1.522 . S
C7669 C280 1.207 . S
C7704 C2299 1.933 . S
C7699 C258 1.455 . S
