# Generated by pormake.
# Topology zzz, (3,6)-cn, num edge types: 1
# Building blocks:
#     Node 0, Type 0, BuildingBlock: BETDAH_clean_linker_0, # of connection points: 3
#     Node 1, Type 0, BuildingBlock: BETDAH_clean_linker_0, # of connection points: 3
#     Node 2, Type 0, BuildingBlock: BETDAH_clean_linker_0, # of connection points: 3
#     Node 3, Type 0, BuildingBlock: BETDAH_clean_linker_0, # of connection points: 3
#     Node 4, Type 0, BuildingBlock: BETDAH_clean_linker_0, # of connection points: 3
#     Node 5, Type 0, BuildingBlock: BETDAH_clean_linker_0, # of connection points: 3
#     Node 6, Type 0, BuildingBlock: BETDAH_clean_linker_0, # of connection points: 3
#     Node 7, Type 0, BuildingBlock: BETDAH_clean_linker_0, # of connection points: 3
#     Node 8, Type 1, BuildingBlock: BETDEL_clean_sbu_0, # of connection points: 6
#     Node 9, Type 1, BuildingBlock: BETDEL_clean_sbu_0, # of connection points: 6
#     Node 10, Type 1, BuildingBlock: BETDEL_clean_sbu_0, # of connection points: 6
#     Node 11, Type 1, BuildingBlock: BETDEL_clean_sbu_0, # of connection points: 6
#     Edge 12, Type (0, 1), BuildingBlock: EZIPEK_clean_linker_0, # of connection points: 2
#     Edge 13, Type (0, 1), BuildingBlock: EZIPEK_clean_linker_0, # of connection points: 2
#     Edge 14, Type (0, 1), BuildingBlock: EZIPEK_clean_linker_0, # of connection points: 2
#     Edge 15, Type (0, 1), BuildingBlock: EZIPEK_clean_linker_0, # of connection points: 2
#     Edge 16, Type (0, 1), BuildingBlock: EZIPEK_clean_linker_0, # of connection points: 2
#     Edge 17, Type (0, 1), BuildingBlock: EZIPEK_clean_linker_0, # of connection points: 2
#     Edge 18, Type (0, 1), BuildingBlock: EZIPEK_clean_linker_0, # of connection points: 2
#     Edge 19, Type (0, 1), BuildingBlock: EZIPEK_clean_linker_0, # of connection points: 2
#     Edge 20, Type (0, 1), BuildingBlock: EZIPEK_clean_linker_0, # of connection points: 2
#     Edge 21, Type (0, 1), BuildingBlock: EZIPEK_clean_linker_0, # of connection points: 2
#     Edge 22, Type (0, 1), BuildingBlock: EZIPEK_clean_linker_0, # of connection points: 2
#     Edge 23, Type (0, 1), BuildingBlock: EZIPEK_clean_linker_0, # of connection points: 2
#     Edge 24, Type (0, 1), BuildingBlock: EZIPEK_clean_linker_0, # of connection points: 2
#     Edge 25, Type (0, 1), BuildingBlock: EZIPEK_clean_linker_0, # of connection points: 2
#     Edge 26, Type (0, 1), BuildingBlock: EZIPEK_clean_linker_0, # of connection points: 2
#     Edge 27, Type (0, 1), BuildingBlock: EZIPEK_clean_linker_0, # of connection points: 2
#     Edge 28, Type (0, 1), BuildingBlock: EZIPEK_clean_linker_0, # of connection points: 2
#     Edge 29, Type (0, 1), BuildingBlock: EZIPEK_clean_linker_0, # of connection points: 2
#     Edge 30, Type (0, 1), BuildingBlock: EZIPEK_clean_linker_0, # of connection points: 2
#     Edge 31, Type (0, 1), BuildingBlock: EZIPEK_clean_linker_0, # of connection points: 2
#     Edge 32, Type (0, 1), BuildingBlock: EZIPEK_clean_linker_0, # of connection points: 2
#     Edge 33, Type (0, 1), BuildingBlock: EZIPEK_clean_linker_0, # of connection points: 2
#     Edge 34, Type (0, 1), BuildingBlock: EZIPEK_clean_linker_0, # of connection points: 2
#     Edge 35, Type (0, 1), BuildingBlock: EZIPEK_clean_linker_0, # of connection points: 2
# Relax obj value: 0.170
# Max RMSD: 0.182
# Mean RMSD: 0.121
data_MOF--net-zzz--node1-BETDEL_clean_sbu_0--node2-BETDAH_clean_linker_0--edge1-EZIPEK_clean_linker_0
_symmetry_space_group_name_H-M    P1
_symmetry_Int_Tables_number       1
_symmetry_cell_setting            triclinic
loop_
_symmetry_equiv_pos_as_xyz
'x, y, z'
_cell_length_a     35.335577
_cell_length_b     36.59003
_cell_length_c     11.130069
_cell_angle_alpha  91.382848
_cell_angle_beta   87.964331
_cell_angle_gamma 95.205895
loop_
_atom_site_label
_atom_site_type_symbol
_atom_site_fract_x
_atom_site_fract_y
_atom_site_fract_z
_atom_type_partial_charge
H0 H 0.8624 0.50876 0.10476 0.0
H1 H 0.75312 0.50859 0.94867 0.0
H2 H 0.781 0.57756 0.26056 0.0
C3 C 0.83412 0.51826 0.10605 0.0
C4 C 0.82475 0.54411 0.19279 0.0
C5 C 0.80879 0.50549 0.01801 0.0
C6 C 0.77258 0.51839 0.01776 0.0
C7 C 0.76226 0.54476 0.105 0.0
C8 C 0.78859 0.55745 0.193 0.0
N9 N 0.72622 0.55946 0.10508 0.0
C10 C 0.69961 0.55224 0.01563 0.0
H11 H 1.01825 0.85774 0.09538 0.0
H12 H 0.02447 0.75119 0.93012 0.0
H13 H 0.95931 0.76377 0.26319 0.0
C14 C 1.01082 0.82825 0.09652 0.0
C15 C 0.98755 0.81356 0.18978 0.0
C16 C 0.02399 0.80623 0.00302 0.0
C17 C 1.01435 0.76812 0.00343 0.0
C18 C 0.9908 0.75243 0.09767 0.0
C19 C 0.97733 0.77548 0.19053 0.0
N20 N 0.97983 0.71397 0.10154 0.0
C21 C 0.99029 0.68802 0.0154 0.0
H22 H 0.67542 0.01855 0.02983 0.0
H23 H 0.79401 0.02117 0.93488 0.0
H24 H 0.75097 0.97415 0.27131 0.0
C25 C 0.70373 1.01193 0.05124 0.0
C26 C 0.70928 0.9958 0.16098 0.0
C27 C 0.73412 0.02161 0.97133 0.0
C28 C 0.77072 1.01328 -0.00251 0.0
C29 C 0.77691 0.99464 0.10349 0.0
C30 C 0.74616 0.98688 0.18698 0.0
N31 N 0.81361 0.98373 0.12758 0.0
C32 C 0.84439 0.98734 0.04485 0.0
H33 H 0.52422 0.67295 0.11403 0.0
H34 H 0.52468 0.77791 0.95009 0.0
H35 H 0.59334 0.76487 0.25807 0.0
C36 C 0.5338 0.70202 0.11263 0.0
C37 C 0.55951 0.71626 0.19701 0.0
C38 C 0.52157 0.72374 0.02296 0.0
C39 C 0.53432 0.7612 0.01979 0.0
C40 C 0.5606 0.77636 0.10431 0.0
C41 C 0.57314 0.75359 0.19298 0.0
N42 N 0.57571 0.81383 0.10093 0.0
C43 C 0.56715 0.83912 0.01603 0.0
H44 H 0.18578 0.52178 0.01502 0.0
H45 H 0.2953 0.52274 0.17004 0.0
H46 H 0.26759 0.45354 0.85854 0.0
C47 C 0.21414 0.51247 0.01349 0.0
C48 C 0.22362 0.48668 0.9267 0.0
C49 C 0.23949 0.52543 0.10123 0.0
C50 C 0.27583 0.51279 0.10116 0.0
C51 C 0.28626 0.4865 0.01386 0.0
C52 C 0.25991 0.47359 0.92617 0.0
N53 N 0.32245 0.47208 0.01339 0.0
C54 C 0.34917 0.47954 0.10241 0.0
H55 H 0.02662 0.17175 0.02086 0.0
H56 H 1.02038 0.27821 0.18704 0.0
H57 H 0.0868 0.26565 0.8565 0.0
C58 C 0.0342 0.20122 0.02039 0.0
C59 C 0.0579 0.21592 0.92814 0.0
C60 C 1.02079 0.22319 0.11367 0.0
C61 C 0.03071 0.26128 0.11407 0.0
C62 C 0.05479 0.27695 0.02102 0.0
C63 C 0.06841 0.25395 0.92832 0.0
N64 N 0.06618 0.31534 0.01816 0.0
C65 C 0.05597 0.34128 0.10472 0.0
H66 H 0.37038 0.01512 0.09365 0.0
H67 H 0.25155 1.01077 0.18641 0.0
H68 H 0.2942 0.05649 0.84765 0.0
C69 C 0.34195 0.02112 0.07132 0.0
C70 C 0.33623 0.0365 0.96048 0.0
C71 C 0.31158 1.01125 0.15107 0.0
C72 C 0.27481 0.01876 0.12378 0.0
C73 C 0.26837 0.03654 0.01632 0.0
C74 C 0.29914 0.04444 0.93301 0.0
N75 N 0.23138 0.04631 -0.00961 0.0
C76 C 0.20068 0.04317 0.07353 0.0
H77 H 0.52525 0.35957 0.00203 0.0
H78 H 0.52367 0.25476 0.16774 0.0
H79 H 0.45517 0.26807 0.8596 0.0
C80 C 0.51539 0.33057 0.00388 0.0
C81 C 0.48951 0.31645 0.9198 0.0
C82 C 0.52738 0.30885 0.09394 0.0
C83 C 0.51423 0.27149 0.09774 0.0
C84 C 0.4878 0.25646 0.01347 0.0
C85 C 0.4755 0.27924 0.92444 0.0
N86 N 0.47228 0.21913 0.01754 0.0
C87 C 0.48048 0.19391 0.10313 0.0
Dy88 Dy 0.0436 0.99501 0.64885 0.0
C89 C 0.98557 0.09147 0.32907 0.0
C90 C 0.05967 0.93789 0.78731 0.0
Dy91 Dy 1.00163 0.03462 0.46884 0.0
O92 O 0.03612 0.96207 0.81838 0.0
O93 O 0.07666 0.94723 0.68643 0.0
O94 O 0.09979 0.01817 0.57014 0.0
O95 O 0.05351 1.00652 0.45749 0.0
C96 C 0.08776 0.02001 0.46137 0.0
C97 C 0.95766 1.00964 0.65743 0.0
O98 O 0.99422 0.97933 0.37727 0.0
O99 O 1.00524 0.95177 0.55511 0.0
O100 O 0.96834 0.08214 0.42961 0.0
O101 O 1.00945 0.0675 0.29925 0.0
O102 O 0.94543 1.01153 0.54895 0.0
O103 O 0.99186 0.02325 0.6602 0.0
O104 O 0.05094 0.05037 0.74018 0.0
O105 O 0.0402 0.07782 0.56194 0.0
C106 C 0.99506 0.94947 0.44202 0.0
C107 C 0.05023 0.08021 0.67516 0.0
Dy108 Dy 0.48991 0.99211 0.49988 0.0
C109 C 0.62855 0.06294 0.68426 0.0
C110 C 0.41711 0.97095 0.44064 0.0
Dy111 Dy 0.55596 0.04142 0.62364 0.0
O112 O 0.44553 0.97689 0.36392 0.0
O113 O 0.42906 0.97421 0.54943 0.0
O114 O 0.53307 0.96123 0.39108 0.0
O115 O 0.54633 0.01518 0.45059 0.0
C116 C 0.56023 0.98782 0.40155 0.0
C117 C 0.48554 0.04552 0.72162 0.0
O118 O 0.54127 0.08113 0.48696 0.0
O119 O 0.48298 0.04999 0.43918 0.0
O120 O 0.60016 0.05615 0.76049 0.0
O121 O 0.61667 0.06027 0.5753 0.0
O122 O 0.51256 0.07222 0.73213 0.0
O123 O 0.49967 0.01829 0.67275 0.0
O124 O 0.50472 0.95237 0.63633 0.0
O125 O 0.56314 0.98345 0.68304 0.0
C126 C 0.50857 0.07902 0.43097 0.0
C127 C 0.53757 0.95441 0.69156 0.0
Dy128 Dy 0.5033 0.5353 0.65402 0.0
C129 C 0.56529 0.44136 0.3101 0.0
C130 C 0.48428 0.59126 0.80549 0.0
Dy131 Dy 0.54616 0.49727 0.46167 0.0
O132 O 0.50747 0.56704 0.83014 0.0
O133 O 0.46926 0.58252 0.7034 0.0
O134 O 0.44764 0.50905 0.58934 0.0
O135 O 0.49244 0.52241 0.46412 0.0
C136 C 0.45896 0.50708 0.47704 0.0
C137 C 0.59037 0.52556 0.63916 0.0
O138 O 0.55132 0.55211 0.37438 0.0
O139 O 0.53958 0.58001 0.55751 0.0
O140 O 0.58016 0.45 0.41247 0.0
O141 O 0.54221 0.46566 0.28528 0.0
O142 O 0.60176 0.52369 0.5269 0.0
O143 O 0.55696 0.51005 0.65146 0.0
O144 O 0.49814 0.48047 0.74134 0.0
O145 O 0.50985 0.45256 0.5582 0.0
C146 C 0.54977 0.5822 0.44246 0.0
C147 C 0.49966 0.45038 0.67328 0.0
Dy148 Dy 0.99785 0.49369 0.64582 0.0
C149 C 0.10855 0.56057 0.31901 0.0
C150 C 0.93963 0.46974 0.80106 0.0
Dy151 Dy 0.05033 0.53634 0.47391 0.0
O152 O 0.94543 0.45741 0.69287 0.0
O153 O 0.96836 0.49288 0.82915 0.0
O154 O 0.98458 0.44975 0.50515 0.0
O155 O 0.03845 0.47768 0.503 0.0
C156 C 1.01661 0.45484 0.44582 0.0
C157 C 0.03126 0.57504 0.6743 0.0
O158 O 0.99563 0.53939 0.37609 0.0
O159 O 0.95996 0.52849 0.55014 0.0
O160 O 0.10267 0.57279 0.4273 0.0
O161 O 0.07991 0.53736 0.29069 0.0
O162 O 0.06342 0.58013 0.61563 0.0
O163 O 1.00963 0.55229 0.6162 0.0
O164 O 0.05261 0.49071 0.74349 0.0
O165 O 0.08818 0.50145 0.56922 0.0
C166 C 0.96228 0.53714 0.43557 0.0
C167 C 0.08593 0.4929 0.68387 0.0
C168 C 0.13951 1.01199 0.1522 0.0
C169 C 0.17003 0.03947 0.1655 0.0
C170 C 0.14163 0.05866 0.35891 0.0
C171 C 0.11414 0.02772 0.3544 0.0
N172 N 0.09184 0.97087 0.25221 0.0
N173 N 0.20269 0.087 0.28634 0.0
C174 C 0.11403 1.00346 0.2519 0.0
C175 C 0.17178 0.0623 0.27015 0.0
N176 N 0.13475 0.99395 0.04407 0.0
N177 N 0.13821 0.08538 0.44558 0.0
H178 H 0.22472 0.09126 0.22183 0.0
H179 H 0.20783 0.1013 0.36702 0.0
H180 H 0.11617 0.08431 0.51042 0.0
H181 H 0.15491 0.11033 0.44599 0.0
H182 H 0.11051 0.97673 0.02466 0.0
H183 H 0.15333 0.99895 0.97006 0.0
H184 H 0.09389 0.95059 0.18559 0.0
H185 H 0.0742 0.96207 0.32435 0.0
C186 C 0.49183 0.12905 0.14077 0.0
C187 C 0.48735 0.165 0.18622 0.0
C188 C 0.50002 0.14569 0.38993 0.0
C189 C 0.50154 0.10886 0.34678 0.0
N190 N 0.49624 0.06477 0.18096 0.0
N191 N 0.47974 0.20615 0.35542 0.0
C192 C 0.49646 0.10033 0.22218 0.0
C193 C 0.48939 0.17294 0.31118 0.0
N194 N 0.4927 0.12257 0.01907 0.0
N195 N 0.50913 0.15493 0.50573 0.0
H196 H 0.47127 0.2264 0.30051 0.0
H197 H 0.47665 0.21239 0.4468 0.0
H198 H 0.516 0.13599 0.56781 0.0
H199 H 0.51282 0.18192 0.53801 0.0
H200 H 0.50028 0.09825 0.97847 0.0
H201 H 0.48827 0.14255 0.95702 0.0
H202 H 0.48734 0.05598 0.09605 0.0
H203 H 0.50329 0.04328 0.23303 0.0
C204 C 0.39918 0.52068 0.20238 0.0
C205 C 0.37766 0.48615 0.19462 0.0
C206 C 0.41073 0.46465 0.3672 0.0
C207 C 0.43178 0.49963 0.37714 0.0
N208 N 0.44046 0.56317 0.31944 0.0
N209 N 0.36614 0.42335 0.25506 0.0
C210 C 0.42484 0.52815 0.2979 0.0
C211 C 0.38423 0.45762 0.27338 0.0
N212 N 0.39582 0.5461 0.1161 0.0
N213 N 0.41529 0.43849 0.44998 0.0
H214 H 0.34617 0.4175 0.18885 0.0
H215 H 0.37233 0.40003 0.29942 0.0
H216 H 0.43532 0.44193 0.51662 0.0
H217 H 0.39819 0.41395 0.45748 0.0
H218 H 0.41399 0.56995 0.10703 0.0
H219 H 0.37658 0.54204 0.04699 0.0
H220 H 0.43329 0.586 0.27421 0.0
H221 H 0.45808 0.57032 0.39067 0.0
C222 C 0.05786 0.36902 0.31151 0.0
C223 C 0.047 0.37046 0.19036 0.0
C224 C 1.01661 0.42725 0.23655 0.0
C225 C 0.02932 0.42708 0.35628 0.0
N226 N 0.06521 0.39994 0.50597 0.0
N227 N 1.02137 0.40332 0.03153 0.0
C228 C 0.05108 0.39867 0.39302 0.0
C229 C 0.02796 0.40032 0.15112 0.0
N230 N 0.07356 0.33866 0.34958 0.0
N231 N 0.99274 0.4526 0.20528 0.0
H232 H 0.02827 0.38362 0.96704 0.0
H233 H 1.01168 0.42649 -0.00539 0.0
H234 H 0.98467 0.47335 0.26395 0.0
H235 H 0.97882 0.45167 0.12423 0.0
H236 H 0.07817 0.33365 0.43927 0.0
H237 H 0.07974 0.31695 0.29185 0.0
H238 H 0.08502 0.38283 0.53382 0.0
H239 H 0.05884 0.41961 0.5709 0.0
C240 C 0.89645 0.02671 0.94243 0.0
C241 C 0.87543 0.99206 0.95439 0.0
C242 C 0.90899 0.96874 0.77519 0.0
C243 C 0.93139 1.00301 0.76526 0.0
N244 N 0.9503 0.06298 0.85266 0.0
N245 N 0.86642 0.92804 0.8987 0.0
C246 C 0.92651 0.03139 0.8534 0.0
C247 C 0.8832 0.96245 0.87578 0.0
N248 N 0.88667 0.05569 0.01327 0.0
N249 N 0.91178 0.9423 0.6872 0.0
H250 H 0.84706 0.92264 0.97045 0.0
H251 H 0.87399 0.90443 0.85338 0.0
H252 H 0.93143 0.94483 0.61529 0.0
H253 H 0.89311 0.91868 0.68117 0.0
H254 H 0.89719 0.08279 -0.00115 0.0
H255 H 0.86581 0.05309 0.08205 0.0
H256 H 0.95146 0.0822 0.92326 0.0
H257 H 0.97085 0.06926 0.78571 0.0
C258 C 0.55549 0.90401 -0.0199 0.0
C259 C 0.5599 0.86813 0.93382 0.0
C260 C 0.54627 0.88767 0.73121 0.0
C261 C 0.54486 0.92445 0.775 0.0
N262 N 0.55077 0.96834 0.94128 0.0
N263 N 0.56708 0.82731 0.76354 0.0
C264 C 0.55045 0.93283 0.89945 0.0
C265 C 0.55739 0.86038 0.80888 0.0
N266 N 0.5551 0.91033 0.10187 0.0
N267 N 0.53657 0.8785 0.61587 0.0
H268 H 0.57599 0.80705 0.81759 0.0
H269 H 0.56983 0.82123 0.67194 0.0
H270 H 0.52924 0.89745 0.55451 0.0
H271 H 0.53281 0.85153 0.58345 0.0
H272 H 0.54761 0.93457 0.14322 0.0
H273 H 0.55985 0.89028 0.16331 0.0
H274 H 0.56001 0.97702 0.02592 0.0
H275 H 0.54345 0.98988 0.88993 0.0
C276 C 0.64995 0.51124 0.91359 0.0
C277 C 0.67127 0.54584 0.92289 0.0
C278 C 0.63838 0.56776 0.75062 0.0
C279 C 0.61748 0.53275 0.73931 0.0
N280 N 0.60909 0.46898 0.79438 0.0
N281 N 0.68259 0.60887 0.86479 0.0
C282 C 0.62447 0.50398 0.8175 0.0
C283 C 0.66469 0.57459 0.84504 0.0
N284 N 0.65333 0.48554 -0.00105 0.0
N285 N 0.63389 0.59414 0.66852 0.0
H286 H 0.70242 0.61459 0.93148 0.0
H287 H 0.67634 0.6323 0.82115 0.0
H288 H 0.61404 0.5908 0.60131 0.0
H289 H 0.65091 0.61876 0.66208 0.0
H290 H 0.63527 0.46157 0.00688 0.0
H291 H 0.67244 0.48945 0.06844 0.0
H292 H 0.61631 0.44603 0.83888 0.0
H293 H 0.5917 0.462 0.72248 0.0
C294 C 0.98853 0.66012 0.80885 0.0
C295 C 0.99969 0.65898 0.92977 0.0
C296 C 0.03126 0.60288 0.88321 0.0
C297 C 1.01831 0.60272 0.7637 0.0
N298 N 0.98171 0.62916 0.61431 0.0
N299 N 0.02652 0.62691 0.08815 0.0
C300 C 0.99588 0.63066 0.72722 0.0
C301 C 1.01952 0.62962 0.96873 0.0
N302 N 0.97202 0.69006 0.77106 0.0
N303 N 0.05569 0.578 0.91421 0.0
H304 H 1.01938 0.64653 0.15261 0.0
H305 H 0.03682 0.60404 0.12505 0.0
H306 H 0.06402 0.55735 0.85556 0.0
H307 H 0.06977 0.57921 -0.00501 0.0
H308 H 0.96712 0.69494 0.68149 0.0
H309 H 0.96539 0.7116 0.8289 0.0
H310 H 0.96139 0.64577 0.58676 0.0
H311 H 0.98866 0.60985 0.54895 0.0
C312 C 0.96637 0.18164 0.18791 0.0
C313 C 1.00053 0.20319 0.2144 0.0
C314 C 1.02266 0.15337 0.32435 0.0
C315 C 0.98992 0.13019 0.29064 0.0
N316 N 0.92592 0.12504 0.21918 0.0
N317 N 0.05042 0.21596 0.35282 0.0
C318 C 0.95988 0.14541 0.23323 0.0
C319 C 0.02441 0.19128 0.30063 0.0
N320 N 0.94213 0.19506 0.11081 0.0
N321 N 0.05317 0.13923 0.37188 0.0
H322 H 0.05196 0.24385 0.33389 0.0
H323 H 0.06699 0.20945 0.42353 0.0
H324 H 0.055 0.11135 0.3816 0.0
H325 H 0.07866 0.15482 0.38867 0.0
H326 H 0.91884 0.17961 0.07504 0.0
H327 H 0.94667 0.22194 0.08021 0.0
H328 H 0.90201 0.13564 0.18656 0.0
H329 H 0.92102 0.09794 0.24704 0.0
C330 C 0.33387 0.95673 0.24461 0.0
C331 C 0.32012 0.99174 0.26039 0.0
C332 C 0.35854 1.00477 0.43612 0.0
C333 C 0.37723 0.9726 0.40731 0.0
N334 N 0.37546 0.9127 0.31431 0.0
N335 N 0.30687 0.04167 0.39391 0.0
C336 C 0.36198 0.94652 0.32222 0.0
C337 C 0.32785 1.01294 0.36549 0.0
N338 N 0.32195 0.93497 0.14938 0.0
N339 N 0.37217 0.02913 0.52266 0.0
H340 H 0.28467 0.04815 0.34131 0.0
H341 H 0.30882 0.05668 0.47444 0.0
H342 H 0.39356 0.02394 0.57969 0.0
H343 H 0.36317 0.05526 0.53604 0.0
H344 H 0.33335 0.91065 0.1235 0.0
H345 H 0.30042 0.94205 0.09478 0.0
H346 H 0.36467 0.89146 0.25799 0.0
H347 H 0.39596 0.90516 0.37202 0.0
C348 C 0.52454 0.3423 0.28352 0.0
C349 C 0.5482 0.32889 0.19199 0.0
C350 C 0.59013 0.38594 0.20655 0.0
C351 C 0.56014 0.40256 0.26876 0.0
N352 N 0.49599 0.39583 0.35742 0.0
N353 N 0.60699 0.33468 0.07791 0.0
C354 C 0.52669 0.3805 0.3065 0.0
C355 C 0.58289 0.3494 0.16026 0.0
N356 N 0.49835 0.31879 0.34182 0.0
N357 N 0.62478 0.40517 0.18946 0.0
H358 H 0.6018 0.30762 0.04635 0.0
H359 H 0.63075 0.34933 0.03894 0.0
H360 H 0.63033 0.43232 0.21938 0.0
H361 H 0.6485 0.39353 0.15261 0.0
H362 H 0.48185 0.32678 0.41574 0.0
H363 H 0.49673 0.29058 0.32464 0.0
H364 H 0.47016 0.38076 0.37723 0.0
H365 H 0.49439 0.42393 0.36659 0.0
C366 C 0.2058 0.52531 0.29295 0.0
C367 C 0.22319 0.54707 0.20106 0.0
C368 C 0.16948 0.58521 0.21321 0.0
C369 C 0.14799 0.55649 0.27556 0.0
N370 N 0.14593 0.49633 0.36502 0.0
N371 N 0.22624 0.6021 0.08863 0.0
C372 C 0.16629 0.52593 0.31467 0.0
C373 C 0.20694 0.57936 0.16955 0.0
N374 N 0.22647 0.50199 0.35132 0.0
N375 N 0.15386 0.61722 0.19332 0.0
H376 H 0.25383 0.59765 0.05844 0.0
H377 H 0.21482 0.62406 0.04975 0.0
H378 H 0.12596 0.62141 0.22017 0.0
H379 H 0.16914 0.64017 0.1564 0.0
H380 H 0.21564 0.48678 0.42485 0.0
H381 H 0.25561 0.50137 0.33402 0.0
H382 H 0.15801 0.47251 0.38673 0.0
H383 H 0.11644 0.49346 0.37106 0.0
C384 C 0.0784 0.84716 0.92534 0.0
C385 C 0.04373 0.82616 0.90139 0.0
C386 C 1.02164 0.87645 0.79358 0.0
C387 C 0.05501 0.8991 0.82492 0.0
N388 N 0.11982 0.90283 0.88911 0.0
N389 N 0.99251 0.81424 0.76742 0.0
C390 C 0.08525 0.88325 0.8792 0.0
C391 C 1.01938 0.83851 0.81735 0.0
N392 N 0.10296 0.83336 0.00053 0.0
N393 N 0.99112 0.8911 0.748 0.0
H394 H 0.99058 0.78635 0.78667 0.0
H395 H 0.97551 0.82101 0.69812 0.0
H396 H 0.98985 0.91901 0.73716 0.0
H397 H 0.96522 0.87595 0.73353 0.0
H398 H 0.12675 0.8485 0.03446 0.0
H399 H 0.0982 0.80655 0.03158 0.0
H400 H 0.14372 0.8917 0.9196 0.0
H401 H 0.12522 0.92964 0.859 0.0
C402 C 0.71774 0.02051 0.75713 0.0
C403 C 0.72572 0.04147 0.86255 0.0
C404 C 0.68389 0.08696 0.80254 0.0
C405 C 0.66841 0.06106 0.71723 0.0
N406 N 0.67288 1.00454 0.60142 0.0
N407 N 0.7243 0.09807 0.97468 0.0
C408 C 0.68689 0.02884 0.68758 0.0
C409 C 0.71213 0.07652 0.8793 0.0
N410 N 0.73863 0.99181 0.72737 0.0
N411 N 0.67049 0.12081 0.81154 0.0
H412 H 0.7459 0.09078 0.02867 0.0
H413 H 0.71307 0.12242 0.00126 0.0
H414 H 0.64989 0.12851 0.75449 0.0
H415 H 0.68143 0.1419 0.86813 0.0
H416 H 0.73648 0.97703 0.64643 0.0
H417 H 0.76095 0.98517 0.77911 0.0
H418 H 0.68176 0.97837 0.5876 0.0
H419 H 0.65119 1.00974 0.5455 0.0
C420 C 0.46628 0.68298 0.95636 0.0
C421 C 0.50089 0.70365 0.92475 0.0
C422 C 0.52259 0.65227 0.80946 0.0
C423 C 0.48925 0.63004 0.84712 0.0
N424 N 0.42463 0.62707 0.92668 0.0
N425 N 0.55076 0.71411 0.77522 0.0
C426 C 0.4592 0.64647 0.90967 0.0
C427 C 0.52462 0.69044 0.83303 0.0
N428 N 0.44213 0.69751 0.03893 0.0
N429 N 0.55333 0.63711 0.75805 0.0
H430 H 0.55231 0.74229 0.79301 0.0
H431 H 0.5673 0.70631 0.70117 0.0
H432 H 0.55501 0.60904 0.74842 0.0
H433 H 0.5791 0.65228 0.73825 0.0
H434 H 0.41843 0.68273 0.07781 0.0
H435 H 0.44718 0.72456 0.07075 0.0
H436 H 0.40086 0.63857 0.96378 0.0
H437 H 0.41919 0.59995 0.89645 0.0
C438 C 0.84261 0.5055 0.82653 0.0
C439 C 0.82503 0.48379 0.91825 0.0
C440 C 0.87853 0.44538 0.90648 0.0
C441 C 0.90022 0.47404 0.84437 0.0
N442 N 0.90265 0.53423 0.7549 0.0
N443 N 0.8216 0.42871 0.03054 0.0
C444 C 0.88211 0.50471 0.80514 0.0
C445 C 0.84108 0.4514 0.94983 0.0
N446 N 0.82212 0.52892 0.76791 0.0
N447 N 0.89396 0.41328 0.92646 0.0
H448 H 0.79402 0.43329 0.0605 0.0
H449 H 0.83287 0.40668 0.06948 0.0
H450 H 0.92186 0.40897 0.89988 0.0
H451 H 0.87854 0.39038 0.96319 0.0
H452 H 0.83307 0.54408 0.69444 0.0
H453 H 0.79297 0.52966 0.78493 0.0
H454 H 0.8907 0.55813 0.73317 0.0
H455 H 0.93214 0.53697 0.74889 0.0
C456 C 0.09333 0.16247 0.8606 0.0
C457 C 0.06883 0.18949 0.83211 0.0
C458 C 0.03364 0.14564 0.70068 0.0
C459 C 0.05798 0.11803 0.72793 0.0
N460 N 0.11766 0.10405 0.80693 0.0
N461 N 0.02595 0.21066 0.69279 0.0
C462 C 0.09006 0.12763 0.79944 0.0
C463 C 0.04309 0.18242 0.73906 0.0
N464 N 0.11838 0.16971 0.95049 0.0
N465 N 0.99953 0.13649 0.64866 0.0
H466 H 0.03219 0.23779 0.72184 0.0
H467 H 1.00914 0.20757 0.61747 0.0
H468 H 0.98871 0.10954 0.63227 0.0
H469 H 0.97961 0.15527 0.63632 0.0
H470 H 0.13375 0.14986 -0.01338 0.0
H471 H 0.12235 0.19563 -0.00807 0.0
H472 H 0.14312 0.11089 0.84992 0.0
H473 H 0.11674 0.07894 0.7603 0.0
C474 C 0.38774 1.00791 0.84432 0.0
C475 C 0.3698 0.04013 0.87386 0.0
C476 C 0.42507 0.07626 0.78225 0.0
C477 C 0.44574 0.04447 0.77566 0.0
N478 N 0.4477 0.98184 0.84025 0.0
N479 N 0.3738 0.10625 0.88289 0.0
C480 C 0.42729 1.01063 0.81664 0.0
C481 C 0.38903 0.07477 0.84565 0.0
N482 N 0.36719 0.97447 0.84721 0.0
N483 N 0.43881 0.1074 0.72457 0.0
H484 H 0.34733 0.1062 0.92738 0.0
H485 H 0.3887 0.1321 0.87683 0.0
H486 H 0.46373 0.10895 0.67182 0.0
H487 H 0.42328 0.13013 0.71816 0.0
H488 H 0.3785 0.95034 0.8177 0.0
H489 H 0.33796 0.97171 0.86668 0.0
H490 H 0.43541 0.95761 0.87805 0.0
H491 H 0.47724 0.98415 0.84018 0.0
C492 C 0.45583 0.37087 0.86626 0.0
C493 C 0.47903 0.3427 0.8291 0.0
C494 C 0.51398 0.384 0.68765 0.0
C495 C 0.49094 0.41279 0.72375 0.0
N496 N 0.43216 0.42895 0.81992 0.0
N497 N 0.51968 0.31843 0.6762 0.0
C498 C 0.45931 0.40481 0.80451 0.0
C499 C 0.50391 0.34787 0.72823 0.0
N500 N 0.4318 0.36566 0.96428 0.0
N501 N 0.5476 0.39144 0.62481 0.0
H502 H 0.51298 0.29183 0.70695 0.0
H503 H 0.53574 0.31999 0.5958 0.0
H504 H 0.55906 0.41787 0.60581 0.0
H505 H 0.56666 0.37183 0.6053 0.0
H506 H 0.41764 0.3866 0.00571 0.0
H507 H 0.42755 0.34043 0.00686 0.0
H508 H 0.40707 0.42316 0.87059 0.0
H509 H 0.43278 0.45311 0.77189 0.0
C510 C 0.19191 0.50077 0.74303 0.0
C511 C 0.19402 0.47616 0.83723 0.0
C512 C 0.12599 0.45622 0.81597 0.0
C513 C 0.12254 0.48655 0.74067 0.0
N514 N 0.15279 0.54284 0.65606 0.0
N515 N 0.16319 0.43015 0.96672 0.0
C516 C 0.15579 0.50995 0.70895 0.0
C517 C 0.16111 0.45334 0.87344 0.0
N518 N 0.22459 0.51714 0.69174 0.0
N519 N 0.09646 0.42977 0.83039 0.0
H520 H 0.18896 0.42641 0.00579 0.0
H521 H 0.13941 0.41615 0.00803 0.0
H522 H 0.07072 0.43044 0.7881 0.0
H523 H 0.09875 0.4055 0.87552 0.0
H524 H 0.22491 0.5334 0.61601 0.0
H525 H 0.25138 0.51102 0.71762 0.0
H526 H 0.17594 0.562 0.63969 0.0
H527 H 0.12682 0.55325 0.64366 0.0
C528 C 1.00284 0.84747 0.37776 0.0
C529 C 0.97677 0.84009 0.28573 0.0
C530 C 0.95523 0.90184 0.31841 0.0
C531 C 0.98748 0.91169 0.38892 0.0
N532 N 0.04653 0.89386 0.46542 0.0
N533 N 0.92676 0.85949 0.16841 0.0
C534 C 1.01219 0.88434 0.41525 0.0
C535 C 0.95201 0.86694 0.25763 0.0
N536 N 1.02035 0.81944 0.42386 0.0
N537 N 0.92745 0.92525 0.31148 0.0
H538 H 0.92283 0.83352 0.12725 0.0
H539 H 0.91118 0.87922 0.13249 0.0
H540 H 0.92839 0.95041 0.3578 0.0
H541 H 0.9019 0.91822 0.26922 0.0
H542 H 0.03743 0.82281 0.49853 0.0
H543 H 1.01419 0.79223 0.3955 0.0
H544 H 0.06664 0.87524 0.4773 0.0
H545 H 0.05724 0.92094 0.48034 0.0
C546 C 0.65613 0.95775 0.27507 0.0
C547 C 0.67581 0.99227 0.24801 0.0
C548 C 0.61889 0.02239 0.3075 0.0
C549 C 0.60001 0.98859 0.34738 0.0
N550 N 0.60625 0.92535 0.39628 0.0
N551 N 0.67943 0.05787 0.27788 0.0
C552 C 0.62024 0.95653 0.33929 0.0
C553 C 0.65842 0.02467 0.27946 0.0
N554 N 0.67074 0.92614 0.23594 0.0
N555 N 0.59892 0.05157 0.28509 0.0
H556 H 0.70865 0.06029 0.25814 0.0
H557 H 0.66851 0.08206 0.30868 0.0
H558 H 0.56939 0.04963 0.28492 0.0
H559 H 0.61154 0.07583 0.24826 0.0
H560 H 0.65544 0.90047 0.24124 0.0
H561 H 0.69706 0.92596 0.19062 0.0
H562 H 0.62147 0.90237 0.4014 0.0
H563 H 0.58151 0.92398 0.44988 0.0
C564 C 0.59344 0.66197 0.25022 0.0
C565 C 0.57013 0.69004 0.28758 0.0
C566 C 0.53522 0.64849 0.42834 0.0
C567 C 0.55837 0.61981 0.39208 0.0
N568 N 0.61723 0.60388 0.29587 0.0
N569 N 0.52935 0.71402 0.44067 0.0
C570 C 0.59002 0.62795 0.31152 0.0
C571 C 0.54523 0.68469 0.3883 0.0
N572 N 0.61752 0.66735 0.15238 0.0
N573 N 0.50155 0.64089 0.4908 0.0
H574 H 0.536 0.74068 0.41033 0.0
H575 H 0.51325 0.71231 0.52098 0.0
H576 H 0.49014 0.61441 0.50928 0.0
H577 H 0.48243 0.66043 0.51045 0.0
H578 H 0.63178 0.64652 0.11077 0.0
H579 H 0.62171 0.69265 0.11015 0.0
H580 H 0.64233 0.60978 0.24535 0.0
H581 H 0.61662 0.57965 0.34353 0.0
C582 C 0.85633 0.52972 0.37633 0.0
C583 C 0.85433 0.55445 0.28242 0.0
C584 C 0.9224 0.57413 0.30389 0.0
C585 C 0.92573 0.54368 0.3788 0.0
N586 N 0.89527 0.4874 0.46285 0.0
N587 N 0.88535 0.60049 0.1534 0.0
C588 C 0.8924 0.52036 0.41029 0.0
C589 C 0.88732 0.5772 0.24645 0.0
N590 N 0.82359 0.51343 0.42745 0.0
N591 N 0.95201 0.60051 0.2898 0.0
H592 H 0.85961 0.60437 0.11436 0.0
H593 H 0.90918 0.61444 0.11223 0.0
H594 H 0.97775 0.59971 0.33198 0.0
H595 H 0.94978 0.62487 0.24507 0.0
H596 H 0.82319 0.49709 0.50301 0.0
H597 H 0.79684 0.51968 0.40161 0.0
H598 H 0.87204 0.4683 0.47903 0.0
H599 H 0.92118 0.47686 0.47518 0.0
loop_
_geom_bond_atom_site_label_1
_geom_bond_atom_site_label_2
_geom_bond_distance
_geom_bond_site_symmetry_2
_ccdc_geom_bond_type
H0 C3 0.929 . S
H1 C6 0.929 1_556 S
H2 C8 0.930 . S
C3 H0 0.929 . S
C3 C4 1.398 . S
C3 C5 1.396 . S
C4 C3 1.398 . S
C4 C8 1.407 . S
C5 C3 1.396 . S
C5 C6 1.394 . S
C6 H1 0.929 1_554 S
C6 C5 1.394 . S
C6 C7 1.382 . S
C7 C6 1.382 . S
C7 C8 1.392 . S
C7 N9 1.420 . S
C8 H2 0.930 . S
C8 C4 1.407 . S
C8 C7 1.392 . S
N9 C7 1.420 . S
N9 C10 1.244 . S
C10 N9 1.244 . S
H11 C14 0.929 . S
H12 C17 0.929 . S
H13 C19 0.930 . S
C14 H11 0.929 . S
C14 C15 1.398 1_655 S
C14 C16 1.394 1_655 S
C15 C14 1.398 1_455 S
C15 C19 1.407 . S
C16 C14 1.394 1_455 S
C16 C17 1.399 1_554 S
C17 H12 0.929 . S
C17 C16 1.399 1_556 S
C17 C18 1.382 1_556 S
C18 C17 1.382 1_554 S
C18 C19 1.392 . S
C18 N20 1.420 . S
C19 H13 0.930 . S
C19 C15 1.407 . S
C19 C18 1.392 . S
N20 C18 1.420 . S
N20 C21 1.232 1_454 S
C21 N20 1.232 1_656 S
H22 C25 0.929 . S
H23 C28 0.929 . S
H24 C30 0.930 . S
C25 H22 0.929 . S
C25 C26 1.398 . S
C25 C27 1.396 1_554 S
C26 C25 1.398 . S
C26 C30 1.407 . S
C27 C25 1.396 1_556 S
C27 C28 1.394 . S
C28 H23 0.929 . S
C28 C27 1.394 . S
C28 C29 1.382 1_556 S
C29 C28 1.382 1_554 S
C29 C30 1.392 . S
C29 N31 1.420 . S
C30 H24 0.930 . S
C30 C26 1.407 . S
C30 C29 1.392 . S
N31 C29 1.420 . S
N31 C32 1.244 1_554 S
C32 N31 1.244 1_556 S
H33 C36 0.929 . S
H34 C39 0.929 1_556 S
H35 C41 0.930 . S
C36 H33 0.929 . S
C36 C37 1.398 . S
C36 C38 1.396 . S
C37 C36 1.398 . S
C37 C41 1.407 . S
C38 C36 1.396 . S
C38 C39 1.394 . S
C39 H34 0.929 1_554 S
C39 C38 1.394 . S
C39 C40 1.382 . S
C40 C39 1.382 . S
C40 C41 1.392 . S
C40 N42 1.420 . S
C41 H35 0.930 . S
C41 C37 1.407 . S
C41 C40 1.392 . S
N42 C40 1.420 . S
N42 C43 1.244 . S
C43 N42 1.244 . S
H44 C47 0.929 . S
H45 C50 0.929 . S
H46 C52 0.930 . S
C47 H44 0.929 . S
C47 C48 1.398 1_554 S
C47 C49 1.396 . S
C48 C47 1.398 1_556 S
C48 C52 1.407 . S
C49 C47 1.396 . S
C49 C50 1.394 . S
C50 H45 0.929 . S
C50 C49 1.394 . S
C50 C51 1.382 . S
C51 C50 1.382 . S
C51 C52 1.392 1_554 S
C51 N53 1.420 . S
C52 H46 0.930 . S
C52 C48 1.407 . S
C52 C51 1.392 1_556 S
N53 C51 1.420 . S
N53 C54 1.244 . S
C54 N53 1.244 . S
H55 C58 0.929 . S
H56 C61 0.929 . S
H57 C63 0.930 . S
C58 H55 0.929 . S
C58 C59 1.398 1_654 S
C58 C60 1.394 1_655 S
C59 C58 1.398 1_456 S
C59 C63 1.407 . S
C60 C58 1.394 1_455 S
C60 C61 1.396 . S
C61 H56 0.929 . S
C61 C60 1.396 . S
C61 C62 1.382 . S
C62 C61 1.382 . S
C62 C63 1.392 1_554 S
C62 N64 1.420 . S
C63 H57 0.930 . S
C63 C59 1.407 . S
C63 C62 1.392 1_556 S
N64 C62 1.420 . S
N64 C65 1.234 1_455 S
C65 N64 1.234 1_655 S
H66 C69 0.929 . S
H67 C72 0.929 . S
H68 C74 0.930 . S
C69 H66 0.929 . S
C69 C70 1.398 1_554 S
C69 C71 1.396 . S
C70 C69 1.398 1_556 S
C70 C74 1.407 . S
C71 C69 1.396 . S
C71 C72 1.394 . S
C72 H67 0.929 . S
C72 C71 1.394 . S
C72 C73 1.382 . S
C73 C72 1.382 . S
C73 C74 1.392 1_554 S
C73 N75 1.420 . S
C74 H68 0.930 . S
C74 C70 1.407 . S
C74 C73 1.392 1_556 S
N75 C73 1.420 . S
N75 C76 1.244 . S
C76 N75 1.244 . S
H77 C80 0.929 . S
H78 C83 0.929 . S
H79 C85 0.930 . S
C80 H77 0.929 . S
C80 C81 1.398 . S
C80 C82 1.396 1_556 S
C81 C80 1.398 . S
C81 C85 1.407 . S
C82 C80 1.396 1_554 S
C82 C83 1.394 . S
C83 H78 0.929 . S
C83 C82 1.394 . S
C83 C84 1.382 . S
C84 C83 1.382 . S
C84 C85 1.392 1_554 S
C84 N86 1.420 . S
C85 H79 0.930 . S
C85 C81 1.407 . S
C85 C84 1.392 1_556 S
N86 C84 1.420 . S
N86 C87 1.244 . S
C87 N86 1.244 . S
Dy88 O92 2.398 . S
Dy88 O93 2.491 1_455 S
Dy88 O94 2.403 . S
Dy88 O95 2.664 1_565 S
Dy88 O99 2.326 . S
Dy88 O103 2.310 1_455 S
Dy88 O104 2.351 1_565 S
C89 O100 1.185 . S
C89 O101 1.355 1_655 S
C90 O92 1.185 . S
C90 O93 1.355 1_455 S
Dy91 O95 2.310 1_655 S
Dy91 O98 2.351 1_545 S
Dy91 O100 2.398 . S
Dy91 O101 2.491 1_655 S
Dy91 O102 2.403 . S
Dy91 O103 2.664 1_545 S
Dy91 O105 2.326 . S
O92 Dy88 2.398 . S
O92 C90 1.185 . S
O93 Dy88 2.491 1_655 S
O93 C90 1.355 1_655 S
O94 Dy88 2.403 . S
O94 C96 1.254 1_565 S
O95 Dy88 2.664 1_545 S
O95 Dy91 2.310 1_455 S
O95 C96 1.268 . S
C96 O94 1.254 1_545 S
C96 O95 1.268 . S
C97 O102 1.254 1_565 S
C97 O103 1.268 . S
O98 Dy91 2.351 1_565 S
O98 C106 1.249 . S
O99 Dy88 2.326 . S
O99 C106 1.267 1_455 S
O100 C89 1.185 . S
O100 Dy91 2.398 . S
O101 C89 1.355 1_455 S
O101 Dy91 2.491 1_455 S
O102 Dy91 2.403 . S
O102 C97 1.254 1_545 S
O103 Dy88 2.310 1_655 S
O103 Dy91 2.664 1_565 S
O103 C97 1.268 . S
O104 Dy88 2.351 1_545 S
O104 C107 1.249 . S
O105 Dy91 2.326 . S
O105 C107 1.267 1_655 S
C106 O98 1.249 . S
C106 O99 1.267 1_655 S
C107 O104 1.249 . S
C107 O105 1.267 1_455 S
Dy108 O112 2.398 . S
Dy108 O113 2.491 1_565 S
Dy108 O114 2.403 . S
Dy108 O115 2.664 . S
Dy108 O119 2.326 1_565 S
Dy108 O123 2.310 1_565 S
Dy108 O124 2.351 . S
C109 O120 1.185 . S
C109 O121 1.355 1_545 S
C110 O112 1.184 . S
C110 O113 1.356 1_565 S
Dy111 O115 2.310 1_545 S
Dy111 O118 2.351 . S
Dy111 O120 2.398 . S
Dy111 O121 2.491 1_545 S
Dy111 O122 2.403 . S
Dy111 O123 2.664 . S
Dy111 O125 2.326 1_545 S
O112 Dy108 2.398 . S
O112 C110 1.184 . S
O113 Dy108 2.491 1_545 S
O113 C110 1.356 1_545 S
O114 Dy108 2.403 . S
O114 C116 1.254 . S
O115 Dy108 2.664 . S
O115 Dy111 2.310 1_565 S
O115 C116 1.268 . S
C116 O114 1.254 . S
C116 O115 1.268 . S
C117 O122 1.254 . S
C117 O123 1.268 . S
O118 Dy111 2.351 . S
O118 C126 1.249 . S
O119 Dy108 2.326 1_545 S
O119 C126 1.267 . S
O120 C109 1.185 . S
O120 Dy111 2.398 . S
O121 C109 1.355 1_565 S
O121 Dy111 2.491 1_565 S
O122 Dy111 2.403 . S
O122 C117 1.254 . S
O123 Dy108 2.310 1_545 S
O123 Dy111 2.664 . S
O123 C117 1.268 . S
O124 Dy108 2.351 . S
O124 C127 1.249 . S
O125 Dy111 2.326 1_565 S
O125 C127 1.267 . S
C126 O118 1.249 . S
C126 O119 1.267 . S
C127 O124 1.249 . S
C127 O125 1.267 . S
Dy128 O132 2.398 . S
Dy128 O133 2.491 . S
Dy128 O134 2.403 . S
Dy128 O135 2.664 . S
Dy128 O139 2.326 . S
Dy128 O143 2.310 . S
Dy128 O144 2.351 . S
C129 O140 1.185 . S
C129 O141 1.355 . S
C130 O132 1.185 . S
C130 O133 1.355 . S
Dy131 O135 2.310 . S
Dy131 O138 2.351 . S
Dy131 O140 2.398 . S
Dy131 O141 2.491 . S
Dy131 O142 2.403 . S
Dy131 O143 2.664 . S
Dy131 O145 2.326 . S
O132 Dy128 2.398 . S
O132 C130 1.185 . S
O133 Dy128 2.491 . S
O133 C130 1.355 . S
O134 Dy128 2.403 . S
O134 C136 1.254 . S
O135 Dy128 2.664 . S
O135 Dy131 2.310 . S
O135 C136 1.268 . S
C136 O134 1.254 . S
C136 O135 1.268 . S
C137 O142 1.254 . S
C137 O143 1.268 . S
O138 Dy131 2.351 . S
O138 C146 1.249 . S
O139 Dy128 2.326 . S
O139 C146 1.267 . S
O140 C129 1.185 . S
O140 Dy131 2.398 . S
O141 C129 1.355 . S
O141 Dy131 2.491 . S
O142 Dy131 2.403 . S
O142 C137 1.254 . S
O143 Dy128 2.310 . S
O143 Dy131 2.664 . S
O143 C137 1.268 . S
O144 Dy128 2.351 . S
O144 C147 1.249 . S
O145 Dy131 2.326 . S
O145 C147 1.267 . S
C146 O138 1.249 . S
C146 O139 1.267 . S
C147 O144 1.249 . S
C147 O145 1.267 . S
Dy148 O152 2.398 . S
Dy148 O153 2.491 . S
Dy148 O154 2.403 . S
Dy148 O155 2.664 1_655 S
Dy148 O159 2.326 . S
Dy148 O163 2.310 . S
Dy148 O164 2.351 1_655 S
C149 O160 1.185 . S
C149 O161 1.355 . S
C150 O152 1.185 . S
C150 O153 1.355 . S
Dy151 O155 2.310 . S
Dy151 O158 2.351 1_455 S
Dy151 O160 2.398 . S
Dy151 O161 2.491 . S
Dy151 O162 2.403 . S
Dy151 O163 2.664 1_455 S
Dy151 O165 2.326 . S
O152 Dy148 2.398 . S
O152 C150 1.185 . S
O153 Dy148 2.491 . S
O153 C150 1.355 . S
O154 Dy148 2.403 . S
O154 C156 1.254 . S
O155 Dy148 2.664 1_455 S
O155 Dy151 2.310 . S
O155 C156 1.268 1_455 S
C156 O154 1.254 . S
C156 O155 1.268 1_655 S
C157 O162 1.254 . S
C157 O163 1.268 1_455 S
O158 Dy151 2.351 1_655 S
O158 C166 1.249 . S
O159 Dy148 2.326 . S
O159 C166 1.267 . S
O160 C149 1.185 . S
O160 Dy151 2.398 . S
O161 C149 1.355 . S
O161 Dy151 2.491 . S
O162 Dy151 2.403 . S
O162 C157 1.254 . S
O163 Dy148 2.310 . S
O163 Dy151 2.664 1_655 S
O163 C157 1.268 1_655 S
O164 Dy148 2.351 1_455 S
O164 C167 1.249 . S
O165 Dy151 2.326 . S
O165 C167 1.267 . S
C166 O158 1.249 . S
C166 O159 1.267 . S
C167 O164 1.249 . S
C167 O165 1.267 . S
C168 C169 1.363 . S
C168 C174 1.379 . S
C168 N176 1.356 . S
C169 C168 1.363 . S
C169 C175 1.363 . S
C170 C171 1.363 . S
C170 C175 1.379 . S
C170 N177 1.356 . S
C171 C170 1.363 . S
C171 C174 1.363 . S
N172 C174 1.356 1_565 S
N172 H184 0.984 . S
N172 H185 0.985 . S
N173 C175 1.356 . S
N173 H178 0.984 . S
N173 H179 0.985 . S
C174 C168 1.379 . S
C174 C171 1.363 . S
C174 N172 1.356 1_545 S
C175 C169 1.363 . S
C175 C170 1.379 . S
C175 N173 1.356 . S
N176 C168 1.356 . S
N176 H182 0.984 1_545 S
N176 H183 0.984 . S
N177 C170 1.356 . S
N177 H180 0.984 . S
N177 H181 0.985 . S
H178 N173 0.984 . S
H179 N173 0.985 . S
H180 N177 0.984 . S
H181 N177 0.985 . S
H182 N176 0.984 1_565 S
H183 N176 0.984 . S
H184 N172 0.984 . S
H185 N172 0.985 . S
C186 C187 1.363 . S
C186 C192 1.379 . S
C186 N194 1.356 . S
C187 C186 1.363 . S
C187 C193 1.363 . S
C188 C189 1.363 . S
C188 C193 1.379 . S
C188 N195 1.356 . S
C189 C188 1.363 . S
C189 C192 1.363 . S
N190 C192 1.356 . S
N190 H202 0.984 . S
N190 H203 0.985 . S
N191 C193 1.356 . S
N191 H196 0.984 . S
N191 H197 0.985 . S
C192 C186 1.379 . S
C192 C189 1.363 . S
C192 N190 1.356 . S
C193 C187 1.363 . S
C193 C188 1.379 . S
C193 N191 1.356 . S
N194 C186 1.356 . S
N194 H200 0.984 1_554 S
N194 H201 0.984 1_554 S
N195 C188 1.356 . S
N195 H198 0.984 . S
N195 H199 0.985 . S
H196 N191 0.984 . S
H197 N191 0.985 . S
H198 N195 0.984 . S
H199 N195 0.985 . S
H200 N194 0.984 1_556 S
H201 N194 0.984 1_556 S
H202 N190 0.984 . S
H203 N190 0.985 . S
C204 C205 1.363 . S
C204 C210 1.379 . S
C204 N212 1.356 . S
C205 C204 1.363 . S
C205 C211 1.363 . S
C206 C207 1.363 . S
C206 C211 1.379 . S
C206 N213 1.356 . S
C207 C206 1.363 . S
C207 C210 1.363 . S
N208 C210 1.356 . S
N208 H220 0.984 . S
N208 H221 0.985 . S
N209 C211 1.356 . S
N209 H214 0.984 . S
N209 H215 0.985 . S
C210 C204 1.379 . S
C210 C207 1.363 . S
C210 N208 1.356 . S
C211 C205 1.363 . S
C211 C206 1.379 . S
C211 N209 1.356 . S
N212 C204 1.356 . S
N212 H218 0.984 . S
N212 H219 0.984 . S
N213 C206 1.356 . S
N213 H216 0.984 . S
N213 H217 0.985 . S
H214 N209 0.984 . S
H215 N209 0.985 . S
H216 N213 0.984 . S
H217 N213 0.985 . S
H218 N212 0.984 . S
H219 N212 0.984 . S
H220 N208 0.984 . S
H221 N208 0.985 . S
C222 C223 1.364 . S
C222 C228 1.379 . S
C222 N230 1.356 . S
C223 C222 1.364 . S
C223 C229 1.362 1_655 S
C224 C225 1.363 1_455 S
C224 C229 1.379 . S
C224 N231 1.356 . S
C225 C224 1.363 1_655 S
C225 C228 1.363 . S
N226 C228 1.356 . S
N226 H238 0.984 . S
N226 H239 0.985 . S
N227 C229 1.356 . S
N227 H232 0.984 . S
N227 H233 0.985 . S
C228 C222 1.379 . S
C228 C225 1.363 . S
C228 N226 1.356 . S
C229 C223 1.362 1_455 S
C229 C224 1.379 . S
C229 N227 1.356 . S
N230 C222 1.356 . S
N230 H236 0.984 . S
N230 H237 0.984 . S
N231 C224 1.356 . S
N231 H234 0.984 . S
N231 H235 0.985 . S
H232 N227 0.984 . S
H233 N227 0.985 . S
H234 N231 0.984 . S
H235 N231 0.985 . S
H236 N230 0.984 . S
H237 N230 0.984 . S
H238 N226 0.984 . S
H239 N226 0.985 . S
C240 C241 1.363 . S
C240 C246 1.379 . S
C240 N248 1.356 . S
C241 C240 1.363 . S
C241 C247 1.363 . S
C242 C243 1.363 . S
C242 C247 1.379 . S
C242 N249 1.356 . S
C243 C242 1.363 . S
C243 C246 1.363 . S
N244 C246 1.356 1_545 S
N244 H256 0.984 . S
N244 H257 0.985 . S
N245 C247 1.356 1_554 S
N245 H250 0.984 . S
N245 H251 0.985 . S
C246 C240 1.379 . S
C246 C243 1.363 . S
C246 N244 1.356 1_565 S
C247 C241 1.363 . S
C247 C242 1.379 . S
C247 N245 1.356 1_556 S
N248 C240 1.356 . S
N248 H254 0.984 1_565 S
N248 H255 0.984 . S
N249 C242 1.356 . S
N249 H252 0.984 . S
N249 H253 0.985 . S
H250 N245 0.984 . S
H251 N245 0.985 . S
H252 N249 0.984 . S
H253 N249 0.985 . S
H254 N248 0.984 1_545 S
H255 N248 0.984 . S
H256 N244 0.984 . S
H257 N244 0.985 . S
C258 C259 1.363 1_554 S
C258 C264 1.379 1_554 S
C258 N266 1.356 . S
C259 C258 1.363 1_556 S
C259 C265 1.363 . S
C260 C261 1.363 . S
C260 C265 1.379 . S
C260 N267 1.356 . S
C261 C260 1.363 . S
C261 C264 1.363 . S
N262 C264 1.356 . S
N262 H274 0.984 . S
N262 H275 0.985 . S
N263 C265 1.356 . S
N263 H268 0.984 . S
N263 H269 0.985 . S
C264 C258 1.379 1_556 S
C264 C261 1.363 . S
C264 N262 1.356 . S
C265 C259 1.363 . S
C265 C260 1.379 . S
C265 N263 1.356 . S
N266 C258 1.356 . S
N266 H272 0.984 . S
N266 H273 0.984 . S
N267 C260 1.356 . S
N267 H270 0.984 . S
N267 H271 0.985 . S
H268 N263 0.984 . S
H269 N263 0.985 . S
H270 N267 0.984 . S
H271 N267 0.985 . S
H272 N266 0.984 . S
H273 N266 0.984 . S
H274 N262 0.984 . S
H275 N262 0.985 . S
C276 C277 1.363 . S
C276 C282 1.379 . S
C276 N284 1.356 . S
C277 C276 1.363 . S
C277 C283 1.363 . S
C278 C279 1.363 . S
C278 C283 1.379 . S
C278 N285 1.356 . S
C279 C278 1.363 . S
C279 C282 1.363 . S
N280 C282 1.356 . S
N280 H292 0.984 . S
N280 H293 0.985 . S
N281 C283 1.356 1_554 S
N281 H286 0.984 . S
N281 H287 0.985 . S
C282 C276 1.379 . S
C282 C279 1.363 . S
C282 N280 1.356 . S
C283 C277 1.363 . S
C283 C278 1.379 . S
C283 N281 1.356 1_556 S
N284 C276 1.356 . S
N284 H290 0.984 . S
N284 H291 0.984 . S
N285 C278 1.356 . S
N285 H288 0.984 . S
N285 H289 0.985 . S
H286 N281 0.984 . S
H287 N281 0.985 . S
H288 N285 0.984 . S
H289 N285 0.985 . S
H290 N284 0.984 . S
H291 N284 0.984 . S
H292 N280 0.984 . S
H293 N280 0.985 . S
C294 C295 1.363 . S
C294 C300 1.379 . S
C294 N302 1.356 . S
C295 C294 1.363 . S
C295 C301 1.363 1_455 S
C296 C297 1.363 1_655 S
C296 C301 1.379 . S
C296 N303 1.356 . S
C297 C296 1.363 1_455 S
C297 C300 1.363 . S
N298 C300 1.356 . S
N298 H310 0.984 . S
N298 H311 0.985 . S
N299 C301 1.356 1_554 S
N299 H304 0.984 . S
N299 H305 0.985 . S
C300 C294 1.379 . S
C300 C297 1.363 . S
C300 N298 1.356 . S
C301 C295 1.363 1_655 S
C301 C296 1.379 . S
C301 N299 1.356 1_556 S
N302 C294 1.356 . S
N302 H308 0.984 . S
N302 H309 0.984 . S
N303 C296 1.356 . S
N303 H306 0.984 . S
N303 H307 0.985 . S
H304 N299 0.984 . S
H305 N299 0.985 . S
H306 N303 0.984 . S
H307 N303 0.985 . S
H308 N302 0.984 . S
H309 N302 0.984 . S
H310 N298 0.984 . S
H311 N298 0.985 . S
C312 C313 1.363 . S
C312 C318 1.379 . S
C312 N320 1.356 . S
C313 C312 1.363 . S
C313 C319 1.363 1_655 S
C314 C315 1.363 1_455 S
C314 C319 1.379 . S
C314 N321 1.356 . S
C315 C314 1.363 1_655 S
C315 C318 1.363 . S
N316 C318 1.356 . S
N316 H328 0.984 . S
N316 H329 0.985 . S
N317 C319 1.356 . S
N317 H322 0.984 . S
N317 H323 0.985 . S
C318 C312 1.379 . S
C318 C315 1.363 . S
C318 N316 1.356 . S
C319 C313 1.363 1_455 S
C319 C314 1.379 . S
C319 N317 1.356 . S
N320 C312 1.356 . S
N320 H326 0.984 1_554 S
N320 H327 0.984 . S
N321 C314 1.356 . S
N321 H324 0.983 1_455 S
N321 H325 0.985 . S
H322 N317 0.984 . S
H323 N317 0.985 . S
H324 N321 0.983 1_655 S
H325 N321 0.985 . S
H326 N320 0.984 1_556 S
H327 N320 0.984 . S
H328 N316 0.984 . S
H329 N316 0.985 . S
C330 C331 1.363 . S
C330 C336 1.379 1_545 S
C330 N338 1.356 1_545 S
C331 C330 1.363 . S
C331 C337 1.363 . S
C332 C333 1.363 . S
C332 C337 1.379 . S
C332 N339 1.356 . S
C333 C332 1.363 . S
C333 C336 1.363 1_545 S
N334 C336 1.356 . S
N334 H346 0.984 . S
N334 H347 0.985 . S
N335 C337 1.356 . S
N335 H340 0.984 . S
N335 H341 0.985 . S
C336 C330 1.379 1_565 S
C336 C333 1.363 1_565 S
C336 N334 1.356 . S
C337 C331 1.363 . S
C337 C332 1.379 . S
C337 N335 1.356 . S
N338 C330 1.356 1_565 S
N338 H344 0.984 . S
N338 H345 0.984 1_565 S
N339 C332 1.356 . S
N339 H342 0.984 . S
N339 H343 0.985 . S
H340 N335 0.984 . S
H341 N335 0.985 . S
H342 N339 0.984 . S
H343 N339 0.985 . S
H344 N338 0.984 . S
H345 N338 0.984 1_545 S
H346 N334 0.984 . S
H347 N334 0.985 . S
C348 C349 1.363 . S
C348 C354 1.379 . S
C348 N356 1.356 . S
C349 C348 1.363 . S
C349 C355 1.363 . S
C350 C351 1.363 . S
C350 C355 1.379 . S
C350 N357 1.356 . S
C351 C350 1.363 . S
C351 C354 1.363 . S
N352 C354 1.356 . S
N352 H364 0.984 . S
N352 H365 0.985 . S
N353 C355 1.356 1_556 S
N353 H358 0.984 . S
N353 H359 0.985 . S
C354 C348 1.379 . S
C354 C351 1.363 . S
C354 N352 1.356 . S
C355 C349 1.363 . S
C355 C350 1.379 . S
C355 N353 1.356 1_554 S
N356 C348 1.356 . S
N356 H362 0.984 . S
N356 H363 0.984 . S
N357 C350 1.356 . S
N357 H360 0.984 . S
N357 H361 0.985 . S
H358 N353 0.984 . S
H359 N353 0.985 . S
H360 N357 0.984 . S
H361 N357 0.985 . S
H362 N356 0.984 . S
H363 N356 0.984 . S
H364 N352 0.984 . S
H365 N352 0.985 . S
C366 C367 1.363 . S
C366 C372 1.379 . S
C366 N374 1.356 . S
C367 C366 1.363 . S
C367 C373 1.363 . S
C368 C369 1.363 . S
C368 C373 1.379 . S
C368 N375 1.356 . S
C369 C368 1.363 . S
C369 C372 1.363 . S
N370 C372 1.356 . S
N370 H382 0.984 . S
N370 H383 0.985 . S
N371 C373 1.356 . S
N371 H376 0.984 . S
N371 H377 0.985 . S
C372 C366 1.379 . S
C372 C369 1.363 . S
C372 N370 1.356 . S
C373 C367 1.363 . S
C373 C368 1.379 . S
C373 N371 1.356 . S
N374 C366 1.356 . S
N374 H380 0.984 . S
N374 H381 0.984 . S
N375 C368 1.356 . S
N375 H378 0.984 . S
N375 H379 0.985 . S
H376 N371 0.984 . S
H377 N371 0.985 . S
H378 N375 0.984 . S
H379 N375 0.985 . S
H380 N374 0.984 . S
H381 N374 0.984 . S
H382 N370 0.984 . S
H383 N370 0.985 . S
C384 C385 1.363 . S
C384 C390 1.379 . S
C384 N392 1.356 . S
C385 C384 1.363 . S
C385 C391 1.363 1_455 S
C386 C387 1.363 1_655 S
C386 C391 1.379 . S
C386 N393 1.356 . S
C387 C386 1.363 1_455 S
C387 C390 1.363 . S
N388 C390 1.356 . S
N388 H400 0.984 . S
N388 H401 0.985 . S
N389 C391 1.356 1_554 S
N389 H394 0.984 . S
N389 H395 0.985 . S
C390 C384 1.379 . S
C390 C387 1.363 . S
C390 N388 1.356 . S
C391 C385 1.363 1_655 S
C391 C386 1.379 . S
C391 N389 1.356 1_556 S
N392 C384 1.356 . S
N392 H398 0.984 . S
N392 H399 0.984 . S
N393 C386 1.356 . S
N393 H396 0.984 . S
N393 H397 0.985 1_556 S
H394 N389 0.984 . S
H395 N389 0.985 . S
H396 N393 0.984 . S
H397 N393 0.985 1_554 S
H398 N392 0.984 . S
H399 N392 0.984 . S
H400 N388 0.984 . S
H401 N388 0.985 . S
C402 C403 1.363 1_554 S
C402 C408 1.379 . S
C402 N410 1.356 . S
C403 C402 1.363 1_556 S
C403 C409 1.363 . S
C404 C405 1.363 . S
C404 C409 1.379 . S
C404 N411 1.356 1_565 S
C405 C404 1.363 . S
C405 C408 1.363 1_556 S
N406 C408 1.356 . S
N406 H418 0.984 . S
N406 H419 0.985 . S
N407 C409 1.356 . S
N407 H412 0.984 . S
N407 H413 0.985 . S
C408 C402 1.379 . S
C408 C405 1.363 1_554 S
C408 N406 1.356 . S
C409 C403 1.363 . S
C409 C404 1.379 . S
C409 N407 1.356 . S
N410 C402 1.356 . S
N410 H416 0.984 . S
N410 H417 0.984 . S
N411 C404 1.356 1_545 S
N411 H414 0.984 . S
N411 H415 0.985 . S
H412 N407 0.984 . S
H413 N407 0.985 . S
H414 N411 0.984 . S
H415 N411 0.985 . S
H416 N410 0.984 . S
H417 N410 0.984 . S
H418 N406 0.984 . S
H419 N406 0.985 . S
C420 C421 1.363 . S
C420 C426 1.379 . S
C420 N428 1.356 . S
C421 C420 1.363 . S
C421 C427 1.363 1_556 S
C422 C423 1.363 . S
C422 C427 1.379 1_556 S
C422 N429 1.356 . S
C423 C422 1.363 . S
C423 C426 1.363 . S
N424 C426 1.356 . S
N424 H436 0.984 . S
N424 H437 0.985 . S
N425 C427 1.356 . S
N425 H430 0.984 . S
N425 H431 0.985 . S
C426 C420 1.379 . S
C426 C423 1.363 . S
C426 N424 1.356 . S
C427 C421 1.363 1_554 S
C427 C422 1.379 1_554 S
C427 N425 1.356 . S
N428 C420 1.356 . S
N428 H434 0.984 . S
N428 H435 0.984 . S
N429 C422 1.356 . S
N429 H432 0.984 . S
N429 H433 0.985 1_556 S
H430 N425 0.984 . S
H431 N425 0.985 . S
H432 N429 0.984 . S
H433 N429 0.985 1_554 S
H434 N428 0.984 . S
H435 N428 0.984 . S
H436 N424 0.984 . S
H437 N424 0.985 . S
C438 C439 1.363 . S
C438 C444 1.379 . S
C438 N446 1.356 1_556 S
C439 C438 1.363 . S
C439 C445 1.363 . S
C440 C441 1.363 . S
C440 C445 1.379 . S
C440 N447 1.356 . S
C441 C440 1.363 . S
C441 C444 1.363 . S
N442 C444 1.356 . S
N442 H454 0.984 . S
N442 H455 0.985 . S
N443 C445 1.356 . S
N443 H448 0.984 . S
N443 H449 0.985 . S
C444 C438 1.379 . S
C444 C441 1.363 . S
C444 N442 1.356 . S
C445 C439 1.363 . S
C445 C440 1.379 . S
C445 N443 1.356 . S
N446 C438 1.356 1_554 S
N446 H452 0.984 . S
N446 H453 0.984 . S
N447 C440 1.356 . S
N447 H450 0.984 . S
N447 H451 0.985 . S
H448 N443 0.984 . S
H449 N443 0.985 . S
H450 N447 0.984 . S
H451 N447 0.985 . S
H452 N446 0.984 . S
H453 N446 0.984 . S
H454 N442 0.984 . S
H455 N442 0.985 . S
C456 C457 1.363 . S
C456 C462 1.379 . S
C456 N464 1.356 . S
C457 C456 1.363 . S
C457 C463 1.363 1_455 S
C458 C459 1.363 1_655 S
C458 C463 1.379 . S
C458 N465 1.356 . S
C459 C458 1.363 1_455 S
C459 C462 1.363 . S
N460 C462 1.356 . S
N460 H472 0.984 . S
N460 H473 0.985 . S
N461 C463 1.356 . S
N461 H466 0.984 . S
N461 H467 0.985 . S
C462 C456 1.379 . S
C462 C459 1.363 . S
C462 N460 1.356 . S
C463 C457 1.363 1_655 S
C463 C458 1.379 . S
C463 N461 1.356 . S
N464 C456 1.356 . S
N464 H470 0.984 1_556 S
N464 H471 0.984 . S
N465 C458 1.356 . S
N465 H468 0.984 . S
N465 H469 0.985 . S
H466 N461 0.984 . S
H467 N461 0.985 . S
H468 N465 0.984 . S
H469 N465 0.985 . S
H470 N464 0.984 1_554 S
H471 N464 0.984 . S
H472 N460 0.984 . S
H473 N460 0.985 . S
C474 C475 1.363 . S
C474 C480 1.379 . S
C474 N482 1.356 1_556 S
C475 C474 1.363 . S
C475 C481 1.363 . S
C476 C477 1.363 . S
C476 C481 1.379 . S
C476 N483 1.356 . S
C477 C476 1.363 . S
C477 C480 1.363 . S
N478 C480 1.356 . S
N478 H490 0.984 1_556 S
N478 H491 0.985 . S
N479 C481 1.356 . S
N479 H484 0.984 . S
N479 H485 0.985 . S
C480 C474 1.379 . S
C480 C477 1.363 . S
C480 N478 1.356 . S
C481 C475 1.363 . S
C481 C476 1.379 . S
C481 N479 1.356 . S
N482 C474 1.356 1_554 S
N482 H488 0.984 . S
N482 H489 0.984 . S
N483 C476 1.356 . S
N483 H486 0.984 . S
N483 H487 0.985 . S
H484 N479 0.984 . S
H485 N479 0.985 . S
H486 N483 0.984 . S
H487 N483 0.985 . S
H488 N482 0.984 . S
H489 N482 0.984 . S
H490 N478 0.984 1_554 S
H491 N478 0.985 . S
C492 C493 1.363 . S
C492 C498 1.379 . S
C492 N500 1.356 . S
C493 C492 1.363 . S
C493 C499 1.363 . S
C494 C495 1.363 . S
C494 C499 1.379 . S
C494 N501 1.356 . S
C495 C494 1.363 . S
C495 C498 1.363 . S
N496 C498 1.356 . S
N496 H508 0.984 . S
N496 H509 0.985 . S
N497 C499 1.356 . S
N497 H502 0.984 . S
N497 H503 0.985 . S
C498 C492 1.379 . S
C498 C495 1.363 . S
C498 N496 1.356 . S
C499 C493 1.363 . S
C499 C494 1.379 . S
C499 N497 1.356 . S
N500 C492 1.356 . S
N500 H506 0.984 1_556 S
N500 H507 0.984 . S
N501 C494 1.356 . S
N501 H504 0.984 . S
N501 H505 0.985 . S
H502 N497 0.984 . S
H503 N497 0.985 . S
H504 N501 0.984 . S
H505 N501 0.985 . S
H506 N500 0.984 1_554 S
H507 N500 0.984 . S
H508 N496 0.984 . S
H509 N496 0.985 . S
C510 C511 1.363 . S
C510 C516 1.379 . S
C510 N518 1.356 . S
C511 C510 1.363 . S
C511 C517 1.363 . S
C512 C513 1.363 . S
C512 C517 1.379 . S
C512 N519 1.356 . S
C513 C512 1.363 . S
C513 C516 1.363 . S
N514 C516 1.356 . S
N514 H526 0.984 . S
N514 H527 0.985 . S
N515 C517 1.356 . S
N515 H520 0.984 . S
N515 H521 0.985 . S
C516 C510 1.379 . S
C516 C513 1.363 . S
C516 N514 1.356 . S
C517 C511 1.363 . S
C517 C512 1.379 . S
C517 N515 1.356 . S
N518 C510 1.356 . S
N518 H524 0.984 . S
N518 H525 0.984 . S
N519 C512 1.356 . S
N519 H522 0.984 . S
N519 H523 0.985 . S
H520 N515 0.984 . S
H521 N515 0.985 . S
H522 N519 0.984 . S
H523 N519 0.985 . S
H524 N518 0.984 . S
H525 N518 0.984 . S
H526 N514 0.984 . S
H527 N514 0.985 . S
C528 C529 1.363 1_455 S
C528 C534 1.379 . S
C528 N536 1.356 . S
C529 C528 1.363 1_655 S
C529 C535 1.363 . S
C530 C531 1.363 . S
C530 C535 1.379 . S
C530 N537 1.356 . S
C531 C530 1.363 . S
C531 C534 1.363 1_655 S
N532 C534 1.356 . S
N532 H544 0.984 . S
N532 H545 0.985 . S
N533 C535 1.356 . S
N533 H538 0.984 . S
N533 H539 0.985 . S
C534 C528 1.379 . S
C534 C531 1.363 1_455 S
C534 N532 1.356 . S
C535 C529 1.363 . S
C535 C530 1.379 . S
C535 N533 1.356 . S
N536 C528 1.356 . S
N536 H542 0.984 . S
N536 H543 0.984 . S
N537 C530 1.356 . S
N537 H540 0.984 . S
N537 H541 0.985 . S
H538 N533 0.984 . S
H539 N533 0.985 . S
H540 N537 0.984 . S
H541 N537 0.985 . S
H542 N536 0.984 . S
H543 N536 0.984 . S
H544 N532 0.984 . S
H545 N532 0.985 . S
C546 C547 1.363 . S
C546 C552 1.379 . S
C546 N554 1.356 . S
C547 C546 1.363 . S
C547 C553 1.363 . S
C548 C549 1.363 1_545 S
C548 C553 1.379 1_545 S
C548 N555 1.356 . S
C549 C548 1.363 1_565 S
C549 C552 1.363 . S
N550 C552 1.356 . S
N550 H562 0.984 . S
N550 H563 0.985 . S
N551 C553 1.356 1_545 S
N551 H556 0.984 . S
N551 H557 0.985 . S
C552 C546 1.379 . S
C552 C549 1.363 . S
C552 N550 1.356 . S
C553 C547 1.363 . S
C553 C548 1.379 1_565 S
C553 N551 1.356 1_565 S
N554 C546 1.356 . S
N554 H560 0.984 . S
N554 H561 0.984 . S
N555 C548 1.356 . S
N555 H558 0.984 . S
N555 H559 0.985 . S
H556 N551 0.984 . S
H557 N551 0.985 . S
H558 N555 0.984 . S
H559 N555 0.985 . S
H560 N554 0.984 . S
H561 N554 0.984 . S
H562 N550 0.984 . S
H563 N550 0.985 . S
C564 C565 1.363 . S
C564 C570 1.379 . S
C564 N572 1.356 . S
C565 C564 1.363 . S
C565 C571 1.363 . S
C566 C567 1.363 . S
C566 C571 1.379 . S
C566 N573 1.356 . S
C567 C566 1.363 . S
C567 C570 1.363 . S
N568 C570 1.356 . S
N568 H580 0.984 . S
N568 H581 0.985 . S
N569 C571 1.356 . S
N569 H574 0.984 . S
N569 H575 0.985 . S
C570 C564 1.379 . S
C570 C567 1.363 . S
C570 N568 1.356 . S
C571 C565 1.363 . S
C571 C566 1.379 . S
C571 N569 1.356 . S
N572 C564 1.356 . S
N572 H578 0.984 . S
N572 H579 0.984 . S
N573 C566 1.356 . S
N573 H576 0.984 . S
N573 H577 0.985 . S
H574 N569 0.984 . S
H575 N569 0.985 . S
H576 N573 0.984 . S
H577 N573 0.985 . S
H578 N572 0.984 . S
H579 N572 0.984 . S
H580 N568 0.984 . S
H581 N568 0.985 . S
C582 C583 1.363 . S
C582 C588 1.379 . S
C582 N590 1.356 . S
C583 C582 1.363 . S
C583 C589 1.363 . S
C584 C585 1.363 . S
C584 C589 1.379 . S
C584 N591 1.356 . S
C585 C584 1.363 . S
C585 C588 1.363 . S
N586 C588 1.356 . S
N586 H598 0.984 . S
N586 H599 0.985 . S
N587 C589 1.356 . S
N587 H592 0.984 . S
N587 H593 0.985 . S
C588 C582 1.379 . S
C588 C585 1.363 . S
C588 N586 1.356 . S
C589 C583 1.363 . S
C589 C584 1.379 . S
C589 N587 1.356 . S
N590 C582 1.356 . S
N590 H596 0.984 . S
N590 H597 0.984 . S
N591 C584 1.356 . S
N591 H594 0.984 . S
N591 H595 0.985 . S
H592 N587 0.984 . S
H593 N587 0.985 . S
H594 N591 0.984 . S
H595 N591 0.985 . S
H596 N590 0.984 . S
H597 N590 0.984 . S
H598 N586 0.984 . S
H599 N586 0.985 . S
C169 C76 1.644 . S
C171 C96 1.740 . S
C189 C126 1.806 . S
C187 C87 1.724 . S
C207 C136 1.663 . S
C205 C54 1.542 . S
C225 C156 1.539 . S
C223 C65 1.448 . S
C243 C97 1.743 . S
C241 C32 1.655 . S
C259 C43 1.730 1_556 S
C261 C127 1.806 . S
C277 C10 1.543 1_556 S
C279 C137 1.663 . S
C295 C21 1.445 1_455 S
C297 C157 1.541 . S
C315 C89 1.031 . S
C313 C60 1.015 1_655 S
C333 C110 0.907 1_545 S
C331 C71 0.874 . S
C351 C129 1.169 . S
C349 C82 1.151 . S
C367 C49 0.944 . S
C369 C149 0.951 . S
C385 C16 1.011 1_556 S
C387 C90 1.031 . S
C405 C109 0.907 1_565 S
C403 C27 0.869 . S
C423 C130 1.169 . S
C421 C38 1.142 1_556 S
C439 C5 0.941 1_556 S
C441 C150 0.958 . S
C457 C59 1.542 . S
C459 C107 1.675 . S
C475 C70 1.477 . S
C477 C117 1.653 . S
C495 C147 1.851 . S
C493 C81 1.686 . S
C513 C167 1.832 . S
C511 C48 1.680 . S
C529 C15 1.548 1_655 S
C531 C106 1.676 . S
C549 C116 1.653 . S
C547 C26 1.468 . S
C567 C146 1.851 . S
C565 C37 1.682 . S
C583 C4 1.687 . S
C585 C166 1.835 . S
