# Generated by pormake.
# Topology ssb, (4,4)-cn, num edge types: 1
# Building blocks:
#     Node 0, Type 0, BuildingBlock: NAHDIM_clean_linker_0, # of connection points: 4
#     Node 1, Type 0, BuildingBlock: NAHDIM_clean_linker_0, # of connection points: 4
#     Node 2, Type 0, BuildingBlock: NAHDIM_clean_linker_0, # of connection points: 4
#     Node 3, Type 0, BuildingBlock: NAHDIM_clean_linker_0, # of connection points: 4
#     Node 4, Type 0, BuildingBlock: NAHDIM_clean_linker_0, # of connection points: 4
#     Node 5, Type 0, BuildingBlock: NAHDIM_clean_linker_0, # of connection points: 4
#     Node 6, Type 0, BuildingBlock: NAHDIM_clean_linker_0, # of connection points: 4
#     Node 7, Type 0, BuildingBlock: NAHDIM_clean_linker_0, # of connection points: 4
#     Node 8, Type 1, BuildingBlock: NAWXER_clean_sbu_0, # of connection points: 4
#     Node 9, Type 1, BuildingBlock: NAWXER_clean_sbu_0, # of connection points: 4
#     Node 10, Type 1, BuildingBlock: NAWXER_clean_sbu_0, # of connection points: 4
#     Node 11, Type 1, BuildingBlock: NAWXER_clean_sbu_0, # of connection points: 4
#     Node 12, Type 1, BuildingBlock: NAWXER_clean_sbu_0, # of connection points: 4
#     Node 13, Type 1, BuildingBlock: NAWXER_clean_sbu_0, # of connection points: 4
#     Node 14, Type 1, BuildingBlock: NAWXER_clean_sbu_0, # of connection points: 4
#     Node 15, Type 1, BuildingBlock: NAWXER_clean_sbu_0, # of connection points: 4
#     Edge 16, Type (0, 1), BuildingBlock: MIFKUJ_clean_linker_0, # of connection points: 2
#     Edge 17, Type (0, 1), BuildingBlock: MIFKUJ_clean_linker_0, # of connection points: 2
#     Edge 18, Type (0, 1), BuildingBlock: MIFKUJ_clean_linker_0, # of connection points: 2
#     Edge 19, Type (0, 1), BuildingBlock: MIFKUJ_clean_linker_0, # of connection points: 2
#     Edge 20, Type (0, 1), BuildingBlock: MIFKUJ_clean_linker_0, # of connection points: 2
#     Edge 21, Type (0, 1), BuildingBlock: MIFKUJ_clean_linker_0, # of connection points: 2
#     Edge 22, Type (0, 1), BuildingBlock: MIFKUJ_clean_linker_0, # of connection points: 2
#     Edge 23, Type (0, 1), BuildingBlock: MIFKUJ_clean_linker_0, # of connection points: 2
#     Edge 24, Type (0, 1), BuildingBlock: MIFKUJ_clean_linker_0, # of connection points: 2
#     Edge 25, Type (0, 1), BuildingBlock: MIFKUJ_clean_linker_0, # of connection points: 2
#     Edge 26, Type (0, 1), BuildingBlock: MIFKUJ_clean_linker_0, # of connection points: 2
#     Edge 27, Type (0, 1), BuildingBlock: MIFKUJ_clean_linker_0, # of connection points: 2
#     Edge 28, Type (0, 1), BuildingBlock: MIFKUJ_clean_linker_0, # of connection points: 2
#     Edge 29, Type (0, 1), BuildingBlock: MIFKUJ_clean_linker_0, # of connection points: 2
#     Edge 30, Type (0, 1), BuildingBlock: MIFKUJ_clean_linker_0, # of connection points: 2
#     Edge 31, Type (0, 1), BuildingBlock: MIFKUJ_clean_linker_0, # of connection points: 2
#     Edge 32, Type (0, 1), BuildingBlock: MIFKUJ_clean_linker_0, # of connection points: 2
#     Edge 33, Type (0, 1), BuildingBlock: MIFKUJ_clean_linker_0, # of connection points: 2
#     Edge 34, Type (0, 1), BuildingBlock: MIFKUJ_clean_linker_0, # of connection points: 2
#     Edge 35, Type (0, 1), BuildingBlock: MIFKUJ_clean_linker_0, # of connection points: 2
#     Edge 36, Type (0, 1), BuildingBlock: MIFKUJ_clean_linker_0, # of connection points: 2
#     Edge 37, Type (0, 1), BuildingBlock: MIFKUJ_clean_linker_0, # of connection points: 2
#     Edge 38, Type (0, 1), BuildingBlock: MIFKUJ_clean_linker_0, # of connection points: 2
#     Edge 39, Type (0, 1), BuildingBlock: MIFKUJ_clean_linker_0, # of connection points: 2
#     Edge 40, Type (0, 1), BuildingBlock: MIFKUJ_clean_linker_0, # of connection points: 2
#     Edge 41, Type (0, 1), BuildingBlock: MIFKUJ_clean_linker_0, # of connection points: 2
#     Edge 42, Type (0, 1), BuildingBlock: MIFKUJ_clean_linker_0, # of connection points: 2
#     Edge 43, Type (0, 1), BuildingBlock: MIFKUJ_clean_linker_0, # of connection points: 2
#     Edge 44, Type (0, 1), BuildingBlock: MIFKUJ_clean_linker_0, # of connection points: 2
#     Edge 45, Type (0, 1), BuildingBlock: MIFKUJ_clean_linker_0, # of connection points: 2
#     Edge 46, Type (0, 1), BuildingBlock: MIFKUJ_clean_linker_0, # of connection points: 2
#     Edge 47, Type (0, 1), BuildingBlock: MIFKUJ_clean_linker_0, # of connection points: 2
# Relax obj value: 0.005
# Max RMSD: 0.044
# Mean RMSD: 0.033
data_MOF--net-ssb--node1-NAWXER_clean_sbu_0--node2-NAHDIM_clean_linker_0--edge1-MIFKUJ_clean_linker_0
_symmetry_space_group_name_H-M    P1
_symmetry_Int_Tables_number       1
_symmetry_cell_setting            triclinic
loop_
_symmetry_equiv_pos_as_xyz
'x, y, z'
_cell_length_a     75.815877
_cell_length_b     75.7639
_cell_length_c     65.058403
_cell_angle_alpha  90.023016
_cell_angle_beta   89.931826
_cell_angle_gamma 90.003222
loop_
_atom_site_label
_atom_site_type_symbol
_atom_site_fract_x
_atom_site_fract_y
_atom_site_fract_z
_atom_type_partial_charge
C0 C 0.26656 0.14856 0.32347 0.0
C1 C 0.28604 0.15346 0.32648 0.0
C2 C 0.28794 0.18533 0.31925 0.0
C3 C 0.2921 0.20173 0.32779 0.0
C4 C 0.29278 0.21702 0.31564 0.0
C5 C 0.28863 0.21594 0.29447 0.0
C6 C 0.28421 0.19941 0.28573 0.0
C7 C 0.28415 0.18425 0.29812 0.0
C8 C 0.29808 0.23429 0.32543 0.0
C9 C 0.27964 0.1977 0.26323 0.0
C10 C 0.38374 0.22073 0.21054 0.0
C11 C 0.3705 0.22861 0.19536 0.0
C12 C 0.34993 0.24666 0.2146 0.0
C13 C 0.33363 0.2397 0.20851 0.0
C14 C 0.31888 0.24079 0.22147 0.0
C15 C 0.32052 0.24906 0.24089 0.0
C16 C 0.33677 0.25678 0.24667 0.0
C17 C 0.35127 0.25564 0.23329 0.0
C18 C 0.30162 0.23284 0.21458 0.0
C19 C 0.33887 0.26586 0.26716 0.0
C20 C 0.25836 0.34849 0.22079 0.0
C21 C 0.25258 0.33295 0.21127 0.0
C22 C 0.24993 0.31751 0.22278 0.0
C23 C 0.25356 0.31762 0.24414 0.0
C24 C 0.25895 0.33347 0.25381 0.0
C25 C 0.261 0.34882 0.242 0.0
C26 C 0.24344 0.30107 0.2121 0.0
C27 C 0.26279 0.33416 0.27655 0.0
C28 C 0.16988 0.25029 0.35432 0.0
C29 C 0.17492 0.26969 0.35146 0.0
C30 C 0.1894 0.27691 0.31886 0.0
C31 C 0.18931 0.27114 0.29847 0.0
C32 C 0.20409 0.27348 0.28576 0.0
C33 C 0.21921 0.28203 0.29367 0.0
C34 C 0.21909 0.28864 0.31401 0.0
C35 C 0.20412 0.28612 0.32637 0.0
C36 C 0.20369 0.26654 0.26403 0.0
C37 C 0.23487 0.2982 0.32271 0.0
C38 C 0.28934 0.23197 0.28134 0.0
C39 C 0.30395 0.23409 0.26845 0.0
C40 C 0.30547 0.2487 0.25549 0.0
C41 C 0.29238 0.26198 0.25581 0.0
C42 C 0.29389 0.27722 0.24363 0.0
C43 C 0.28089 0.29018 0.244 0.0
C44 C 0.26566 0.28818 0.25615 0.0
C45 C 0.25217 0.3011 0.2563 0.0
C46 C 0.2372 0.29866 0.26854 0.0
C47 C 0.23533 0.28366 0.28084 0.0
C48 C 0.24868 0.27062 0.28097 0.0
C49 C 0.24719 0.25536 0.29316 0.0
C50 C 0.26045 0.24266 0.29326 0.0
C51 C 0.27572 0.24473 0.28122 0.0
C52 C 0.27737 0.25989 0.26859 0.0
C53 C 0.26388 0.2729 0.26856 0.0
C54 C 0.29039 0.37195 0.20068 0.0
C55 C 0.27278 0.36444 0.19327 0.0
O56 O 0.28765 0.17107 0.33197 0.0
O57 O 0.17498 0.27362 0.33064 0.0
O58 O 0.26129 0.36338 0.20981 0.0
O59 O 0.36455 0.24472 0.20278 0.0
H60 H 0.29326 0.15098 0.31185 0.0
H61 H 0.26071 0.15615 0.3106 0.0
H62 H 0.25876 0.15145 0.33754 0.0
H63 H 0.26532 0.13429 0.31978 0.0
H64 H 0.29506 0.20246 0.34406 0.0
H65 H 0.281 0.17171 0.29112 0.0
H66 H 0.30845 0.24086 0.3161 0.0
H67 H 0.30309 0.23248 0.34133 0.0
H68 H 0.28651 0.24325 0.32601 0.0
H69 H 0.27372 0.18466 0.25957 0.0
H70 H 0.29181 0.19927 0.25392 0.0
H71 H 0.27027 0.20823 0.25857 0.0
H72 H 0.35939 0.21908 0.19395 0.0
H73 H 0.38871 0.20784 0.20479 0.0
H74 H 0.37724 0.21851 0.22563 0.0
H75 H 0.39509 0.22981 0.21284 0.0
H76 H 0.33248 0.23335 0.19365 0.0
H77 H 0.36389 0.2612 0.23767 0.0
H78 H 0.29101 0.24292 0.21537 0.0
H79 H 0.29789 0.22192 0.22509 0.0
H80 H 0.3023 0.22759 0.19865 0.0
H81 H 0.3522 0.27171 0.26909 0.0
H82 H 0.33656 0.25622 0.27973 0.0
H83 H 0.32885 0.27646 0.26875 0.0
H84 H 0.27533 0.35109 0.18672 0.0
H85 H 0.25003 0.33298 0.19489 0.0
H86 H 0.26522 0.36103 0.24916 0.0
H87 H 0.25429 0.29126 0.21129 0.0
H88 H 0.23884 0.30382 0.19622 0.0
H89 H 0.23246 0.29501 0.22095 0.0
H90 H 0.26846 0.34705 0.28132 0.0
H91 H 0.27215 0.3235 0.28082 0.0
H92 H 0.2504 0.33195 0.28528 0.0
H93 H 0.18827 0.27125 0.35829 0.0
H94 H 0.16961 0.24686 0.37092 0.0
H95 H 0.17977 0.24173 0.34659 0.0
H96 H 0.15672 0.24753 0.34753 0.0
H97 H 0.17773 0.26437 0.2927 0.0
H98 H 0.20394 0.29149 0.34179 0.0
H99 H 0.21416 0.25643 0.26203 0.0
H100 H 0.20651 0.27742 0.25308 0.0
H101 H 0.19076 0.26055 0.26005 0.0
H102 H 0.2326 0.30281 0.33872 0.0
H103 H 0.23808 0.30978 0.31295 0.0
H104 H 0.24651 0.28932 0.32256 0.0
H105 H 0.31416 0.22404 0.26825 0.0
H106 H 0.30523 0.27937 0.23381 0.0
H107 H 0.28289 0.30172 0.23447 0.0
H108 H 0.22692 0.30862 0.26859 0.0
H109 H 0.23576 0.25306 0.30278 0.0
H110 H 0.25855 0.23116 0.3029 0.0
H111 H 0.29999 0.37263 0.18778 0.0
H112 H 0.296 0.36328 0.21279 0.0
H113 H 0.28855 0.38539 0.2072 0.0
C114 C 0.70107 0.20427 0.1259 0.0
C115 C 0.68789 0.19942 0.1429 0.0
C116 C 0.698 0.2154 0.17377 0.0
C117 C 0.69334 0.22842 0.18798 0.0
C118 C 0.70388 0.23193 0.20521 0.0
C119 C 0.7198 0.22248 0.20794 0.0
C120 C 0.72473 0.20938 0.19352 0.0
C121 C 0.71369 0.20582 0.17672 0.0
C122 C 0.6979 0.24563 0.22056 0.0
C123 C 0.74167 0.1991 0.19588 0.0
C124 C 0.74779 0.13952 0.34399 0.0
C125 C 0.75217 0.1514 0.32656 0.0
C126 C 0.73944 0.17542 0.30634 0.0
C127 C 0.7537 0.17682 0.29258 0.0
C128 C 0.7539 0.18981 0.27723 0.0
C129 C 0.73987 0.20209 0.27604 0.0
C130 C 0.72557 0.20084 0.28996 0.0
C131 C 0.72547 0.18737 0.30479 0.0
C132 C 0.76915 0.19034 0.26227 0.0
C133 C 0.71047 0.21379 0.28926 0.0
C134 C 0.81682 0.28251 0.32091 0.0
C135 C 0.82259 0.27048 0.30597 0.0
C136 C 0.81312 0.26817 0.28764 0.0
C137 C 0.79748 0.27799 0.28438 0.0
C138 C 0.79201 0.29058 0.29916 0.0
C139 C 0.80195 0.29285 0.31714 0.0
C140 C 0.8197 0.25511 0.27188 0.0
C141 C 0.77555 0.30146 0.29611 0.0
C142 C 0.76109 0.35524 0.16264 0.0
C143 C 0.77989 0.35447 0.17138 0.0
C144 C 0.78347 0.32462 0.18567 0.0
C145 C 0.79306 0.30893 0.1841 0.0
C146 C 0.79127 0.29549 0.19882 0.0
C147 C 0.7793 0.29773 0.21532 0.0
C148 C 0.76922 0.31337 0.21675 0.0
C149 C 0.77149 0.32671 0.20204 0.0
C150 C 0.80228 0.27898 0.1969 0.0
C151 C 0.75614 0.31609 0.23398 0.0
C152 C 0.73103 0.2259 0.22621 0.0
C153 C 0.73011 0.21392 0.24252 0.0
C154 C 0.74028 0.21621 0.2602 0.0
C155 C 0.75141 0.2311 0.262 0.0
C156 C 0.76121 0.23422 0.27997 0.0
C157 C 0.77259 0.24855 0.28135 0.0
C158 C 0.77467 0.2603 0.26479 0.0
C159 C 0.78652 0.27468 0.26588 0.0
C160 C 0.78796 0.28634 0.24935 0.0
C161 C 0.77781 0.2841 0.23161 0.0
C162 C 0.76609 0.26963 0.23006 0.0
C163 C 0.75585 0.26683 0.21235 0.0
C164 C 0.74442 0.25248 0.21098 0.0
C165 C 0.74263 0.24051 0.22738 0.0
C166 C 0.75281 0.24312 0.24539 0.0
C167 C 0.76454 0.25768 0.24673 0.0
C168 C 0.81793 0.26913 0.3694 0.0
C169 C 0.83105 0.27108 0.35166 0.0
O170 O 0.68705 0.21272 0.15751 0.0
O171 O 0.78616 0.33728 0.17112 0.0
O172 O 0.82551 0.28466 0.33892 0.0
O173 O 0.73861 0.16277 0.32114 0.0
H174 H 0.69208 0.18685 0.15026 0.0
H175 H 0.71456 0.20573 0.13225 0.0
H176 H 0.69736 0.21695 0.11849 0.0
H177 H 0.70142 0.19374 0.11402 0.0
H178 H 0.68121 0.23572 0.18562 0.0
H179 H 0.71751 0.19563 0.16597 0.0
H180 H 0.69839 0.24014 0.23638 0.0
H181 H 0.68429 0.25034 0.21743 0.0
H182 H 0.70695 0.25713 0.22003 0.0
H183 H 0.74472 0.19102 0.18207 0.0
H184 H 0.74056 0.19015 0.20933 0.0
H185 H 0.75285 0.20822 0.1988 0.0
H186 H 0.75824 0.1445 0.31316 0.0
H187 H 0.74827 0.1259 0.33718 0.0
H188 H 0.733 0.13974 0.34574 0.0
H189 H 0.76497 0.14768 0.36729 0.0
H190 H 0.7647 0.16778 0.29354 0.0
H191 H 0.71453 0.18623 0.31545 0.0
H192 H 0.77767 0.20185 0.2658 0.0
H193 H 0.76427 0.19189 0.24628 0.0
H194 H 0.77738 0.17822 0.26307 0.0
H195 H 0.70127 0.21212 0.30242 0.0
H196 H 0.70298 0.21194 0.27477 0.0
H197 H 0.7156 0.22752 0.28934 0.0
H198 H 0.83135 0.25829 0.34325 0.0
H199 H 0.83457 0.26301 0.30853 0.0
H200 H 0.79785 0.30235 0.32865 0.0
H201 H 0.81059 0.24366 0.27124 0.0
H202 H 0.83314 0.25019 0.27553 0.0
H203 H 0.81989 0.26127 0.25639 0.0
H204 H 0.77217 0.3094 0.30993 0.0
H205 H 0.76422 0.29278 0.29231 0.0
H206 H 0.77756 0.31059 0.28298 0.0
H207 H 0.77958 0.35951 0.18744 0.0
H208 H 0.75641 0.36914 0.16209 0.0
H209 H 0.75183 0.34764 0.17242 0.0
H210 H 0.76059 0.34957 0.14691 0.0
H211 H 0.80221 0.30736 0.17142 0.0
H212 H 0.76381 0.33865 0.20355 0.0
H213 H 0.79352 0.26729 0.19561 0.0
H214 H 0.81039 0.27725 0.21096 0.0
H215 H 0.81116 0.27935 0.18332 0.0
H216 H 0.74822 0.3283 0.23197 0.0
H217 H 0.7633 0.31697 0.24881 0.0
H218 H 0.74704 0.30463 0.23495 0.0
H219 H 0.72153 0.2025 0.24129 0.0
H220 H 0.76021 0.22559 0.29318 0.0
H221 H 0.7798 0.25024 0.29556 0.0
H222 H 0.79694 0.29746 0.25041 0.0
H223 H 0.75664 0.27565 0.19929 0.0
H224 H 0.737 0.2509 0.1969 0.0
H225 H 0.81712 0.28157 0.37843 0.0
H226 H 0.82199 0.2582 0.37975 0.0
H227 H 0.80462 0.26605 0.36323 0.0
C228 C 0.67972 0.85094 0.32062 0.0
C229 C 0.68893 0.84468 0.34028 0.0
C230 C 0.70956 0.82366 0.32521 0.0
C231 C 0.70114 0.80762 0.32966 0.0
C232 C 0.70444 0.79252 0.31777 0.0
C233 C 0.71626 0.79355 0.30095 0.0
C234 C 0.72526 0.80957 0.29691 0.0
C235 C 0.72201 0.82435 0.30939 0.0
C236 C 0.69494 0.77556 0.32282 0.0
C237 C 0.73775 0.81128 0.27894 0.0
C238 C 0.66991 0.73277 0.16698 0.0
C239 C 0.66479 0.75218 0.16994 0.0
C240 C 0.66933 0.75851 0.20637 0.0
C241 C 0.68404 0.76972 0.20499 0.0
C242 C 0.69531 0.77203 0.22182 0.0
C243 C 0.69163 0.76316 0.24046 0.0
C244 C 0.67612 0.75293 0.24237 0.0
C245 C 0.66509 0.75081 0.22524 0.0
C246 C 0.71149 0.78348 0.21949 0.0
C247 C 0.67167 0.74365 0.26221 0.0
C248 C 0.76452 0.67805 0.20633 0.0
C249 C 0.76964 0.69571 0.20313 0.0
C250 C 0.76975 0.70786 0.21938 0.0
C251 C 0.7644 0.70239 0.23922 0.0
C252 C 0.75983 0.68454 0.24269 0.0
C253 C 0.76007 0.67257 0.22618 0.0
C254 C 0.77508 0.72673 0.21516 0.0
C255 C 0.75415 0.67827 0.26368 0.0
C256 C 0.84635 0.76628 0.35488 0.0
C257 C 0.83897 0.74771 0.35142 0.0
C258 C 0.82269 0.74126 0.31983 0.0
C259 C 0.82123 0.74779 0.29987 0.0
C260 C 0.80602 0.74482 0.28818 0.0
C261 C 0.79211 0.73465 0.29658 0.0
C262 C 0.79377 0.72743 0.31654 0.0
C263 C 0.80907 0.73083 0.32802 0.0
C264 C 0.80484 0.75256 0.26685 0.0
C265 C 0.77937 0.71613 0.32566 0.0
C266 C 0.71773 0.7785 0.28642 0.0
C267 C 0.70449 0.77679 0.2716 0.0
C268 C 0.70495 0.76323 0.2571 0.0
C269 C 0.71878 0.75075 0.25746 0.0
C270 C 0.71938 0.73675 0.24329 0.0
C271 C 0.7334 0.72498 0.24311 0.0
C272 C 0.74755 0.72691 0.25688 0.0
C273 C 0.76242 0.71569 0.25586 0.0
C274 C 0.77636 0.71807 0.2696 0.0
C275 C 0.77596 0.73156 0.28429 0.0
C276 C 0.76112 0.74286 0.28564 0.0
C277 C 0.76024 0.75655 0.30025 0.0
C278 C 0.74585 0.76799 0.3009 0.0
C279 C 0.732 0.76642 0.28667 0.0
C280 C 0.7325 0.75251 0.27208 0.0
C281 C 0.74697 0.74063 0.2717 0.0
C282 C 0.74685 0.67834 0.1628 0.0
C283 C 0.76401 0.6695 0.16985 0.0
O284 O 0.7058 0.83872 0.33568 0.0
O285 O 0.83761 0.74495 0.33044 0.0
O286 O 0.76341 0.66604 0.19078 0.0
O287 O 0.65896 0.75487 0.1899 0.0
H288 H 0.68102 0.83384 0.34719 0.0
H289 H 0.67838 0.83979 0.30963 0.0
H290 H 0.68746 0.86162 0.31313 0.0
H291 H 0.66628 0.85594 0.32418 0.0
H292 H 0.692 0.80682 0.34241 0.0
H293 H 0.72858 0.83676 0.30625 0.0
H294 H 0.68492 0.77285 0.3108 0.0
H295 H 0.68818 0.77619 0.33796 0.0
H296 H 0.70437 0.76435 0.32292 0.0
H297 H 0.74305 0.82488 0.27734 0.0
H298 H 0.73088 0.80763 0.26448 0.0
H299 H 0.74897 0.80204 0.2809 0.0
H300 H 0.67678 0.76006 0.16657 0.0
H301 H 0.67379 0.73029 0.15076 0.0
H302 H 0.65883 0.72386 0.17114 0.0
H303 H 0.68132 0.72953 0.17698 0.0
H304 H 0.68683 0.77669 0.19086 0.0
H305 H 0.65345 0.74254 0.22629 0.0
H306 H 0.71176 0.79362 0.23181 0.0
H307 H 0.712 0.79022 0.20434 0.0
H308 H 0.72352 0.77525 0.22118 0.0
H309 H 0.65842 0.73739 0.26175 0.0
H310 H 0.67211 0.75316 0.27519 0.0
H311 H 0.68167 0.73328 0.26528 0.0
H312 H 0.7753 0.67839 0.16643 0.0
H313 H 0.77335 0.70027 0.18801 0.0
H314 H 0.75629 0.65894 0.2286 0.0
H315 H 0.76325 0.73533 0.21582 0.0
H316 H 0.78131 0.72829 0.1998 0.0
H317 H 0.78446 0.73143 0.22705 0.0
H318 H 0.75099 0.66396 0.26387 0.0
H319 H 0.74234 0.68578 0.26874 0.0
H320 H 0.76481 0.68086 0.27497 0.0
H321 H 0.8258 0.74722 0.359 0.0
H322 H 0.84704 0.76937 0.37155 0.0
H323 H 0.8376 0.77617 0.34747 0.0
H324 H 0.85976 0.76748 0.3481 0.0
H325 H 0.83198 0.75555 0.29362 0.0
H326 H 0.81049 0.72512 0.34318 0.0
H327 H 0.79234 0.76002 0.26506 0.0
H328 H 0.8048 0.74171 0.25539 0.0
H329 H 0.81607 0.7615 0.26335 0.0
H330 H 0.78299 0.71084 0.34101 0.0
H331 H 0.77644 0.70491 0.31521 0.0
H332 H 0.76711 0.72403 0.32721 0.0
H333 H 0.69384 0.78636 0.27108 0.0
H334 H 0.70904 0.73474 0.23206 0.0
H335 H 0.73312 0.71449 0.23181 0.0
H336 H 0.78796 0.70975 0.26834 0.0
H337 H 0.7707 0.75861 0.3113 0.0
H338 H 0.74586 0.77829 0.31245 0.0
H339 H 0.7472 0.68073 0.14595 0.0
H340 H 0.74508 0.69127 0.17055 0.0
H341 H 0.73529 0.66989 0.16649 0.0
C342 C 0.33625 0.85258 0.18161 0.0
C343 C 0.34058 0.8333 0.17674 0.0
C344 C 0.31455 0.81553 0.18239 0.0
C345 C 0.32084 0.80149 0.1943 0.0
C346 C 0.30977 0.79293 0.20844 0.0
C347 C 0.29212 0.79871 0.21078 0.0
C348 C 0.28556 0.81239 0.19807 0.0
C349 C 0.29685 0.82044 0.18374 0.0
C350 C 0.3171 0.77812 0.22136 0.0
C351 C 0.2669 0.81906 0.20028 0.0
C352 C 0.32465 0.8333 0.34579 0.0
C353 C 0.30685 0.84052 0.33864 0.0
C354 C 0.28888 0.8189 0.32149 0.0
C355 C 0.27855 0.82799 0.30721 0.0
C356 C 0.27326 0.81982 0.28886 0.0
C357 C 0.27878 0.80232 0.28466 0.0
C358 C 0.28916 0.7931 0.29923 0.0
C359 C 0.29381 0.80146 0.31771 0.0
C360 C 0.26201 0.82998 0.27385 0.0
C361 C 0.29571 0.77463 0.2951 0.0
C362 C 0.18963 0.73008 0.30832 0.0
C363 C 0.18513 0.74491 0.29657 0.0
C364 C 0.19443 0.74897 0.27853 0.0
C365 C 0.20862 0.73805 0.27232 0.0
C366 C 0.21261 0.72261 0.28364 0.0
C367 C 0.20286 0.7187 0.30142 0.0
C368 C 0.1894 0.76519 0.26641 0.0
C369 C 0.22753 0.7106 0.27735 0.0
C370 C 0.22495 0.71651 0.10656 0.0
C371 C 0.22511 0.70561 0.12634 0.0
C372 C 0.21607 0.71851 0.15916 0.0
C373 C 0.20628 0.73281 0.16644 0.0
C374 C 0.20967 0.74016 0.18583 0.0
C375 C 0.22298 0.73274 0.19837 0.0
C376 C 0.23238 0.71771 0.19148 0.0
C377 C 0.22883 0.71073 0.17191 0.0
C378 C 0.19926 0.75605 0.19279 0.0
C379 C 0.24626 0.70914 0.20475 0.0
C380 C 0.28125 0.79194 0.22807 0.0
C381 C 0.2844 0.79913 0.2475 0.0
C382 C 0.27448 0.79403 0.26458 0.0
C383 C 0.26088 0.78141 0.26231 0.0
C384 C 0.25039 0.77625 0.27908 0.0
C385 C 0.23715 0.76372 0.27674 0.0
C386 C 0.2337 0.75603 0.25746 0.0
C387 C 0.22007 0.74347 0.2549 0.0
C388 C 0.21702 0.73604 0.23556 0.0
C389 C 0.22721 0.74087 0.21853 0.0
C390 C 0.24086 0.75348 0.22077 0.0
C391 C 0.25131 0.75875 0.20395 0.0
C392 C 0.26464 0.77124 0.20631 0.0
C393 C 0.26795 0.77904 0.22553 0.0
C394 C 0.25767 0.77382 0.24272 0.0
C395 C 0.24409 0.76108 0.24032 0.0
C396 C 0.19507 0.73545 0.35764 0.0
C397 C 0.17997 0.73848 0.34246 0.0
O398 O 0.32548 0.82479 0.16991 0.0
O399 O 0.21276 0.7125 0.13987 0.0
O400 O 0.18144 0.72654 0.32637 0.0
O401 O 0.29453 0.82702 0.3388 0.0
H402 H 0.34544 0.82714 0.19122 0.0
H403 H 0.32617 0.85321 0.19399 0.0
H404 H 0.33096 0.8594 0.16781 0.0
H405 H 0.34825 0.85961 0.18698 0.0
H406 H 0.33448 0.79742 0.19273 0.0
H407 H 0.29214 0.8312 0.17425 0.0
H408 H 0.31886 0.78281 0.23739 0.0
H409 H 0.33004 0.77339 0.21553 0.0
H410 H 0.30771 0.76686 0.22172 0.0
H411 H 0.26403 0.8302 0.18968 0.0
H412 H 0.26457 0.82352 0.21632 0.0
H413 H 0.25748 0.80821 0.19705 0.0
H414 H 0.30862 0.84571 0.32271 0.0
H415 H 0.33481 0.84387 0.34553 0.0
H416 H 0.329 0.82254 0.33534 0.0
H417 H 0.32361 0.82792 0.36164 0.0
H418 H 0.27473 0.84149 0.31045 0.0
H419 H 0.30182 0.79463 0.32897 0.0
H420 H 0.25073 0.82176 0.26866 0.0
H421 H 0.26999 0.83335 0.26008 0.0
H422 H 0.25683 0.84242 0.28061 0.0
H423 H 0.30519 0.77006 0.30697 0.0
H424 H 0.30223 0.774 0.27982 0.0
H425 H 0.28438 0.76536 0.29483 0.0
H426 H 0.1811 0.75228 0.33672 0.0
H427 H 0.17441 0.75333 0.30159 0.0
H428 H 0.20599 0.70712 0.31049 0.0
H429 H 0.19986 0.77534 0.2681 0.0
H430 H 0.1767 0.77093 0.27169 0.0
H431 H 0.18835 0.76193 0.24981 0.0
H432 H 0.22909 0.69922 0.28796 0.0
H433 H 0.24008 0.71815 0.27698 0.0
H434 H 0.22513 0.7055 0.2616 0.0
H435 H 0.23869 0.70678 0.13271 0.0
H436 H 0.23475 0.71123 0.09542 0.0
H437 H 0.22846 0.73042 0.11007 0.0
H438 H 0.21166 0.71631 0.09936 0.0
H439 H 0.19626 0.7385 0.1566 0.0
H440 H 0.23593 0.69917 0.16668 0.0
H441 H 0.20838 0.76709 0.19643 0.0
H442 H 0.19191 0.7528 0.20707 0.0
H443 H 0.1897 0.76057 0.18098 0.0
H444 H 0.25164 0.69691 0.19771 0.0
H445 H 0.2406 0.70586 0.22003 0.0
H446 H 0.25727 0.71854 0.20728 0.0
H447 H 0.2947 0.80895 0.24935 0.0
H448 H 0.25231 0.78183 0.29423 0.0
H449 H 0.22962 0.76019 0.29027 0.0
H450 H 0.2065 0.72646 0.23371 0.0
H451 H 0.2493 0.75327 0.18876 0.0
H452 H 0.27231 0.77476 0.19287 0.0
H453 H 0.19469 0.72177 0.36379 0.0
H454 H 0.19414 0.74493 0.37065 0.0
H455 H 0.20792 0.73752 0.34979 0.0
C456 C 0.19847 0.69644 0.62496 0.0
C457 C 0.18503 0.6929 0.64211 0.0
C458 C 0.19473 0.71076 0.67172 0.0
C459 C 0.19006 0.72489 0.68441 0.0
C460 C 0.20025 0.72938 0.7016 0.0
C461 C 0.21572 0.71966 0.70593 0.0
C462 C 0.22065 0.70542 0.69306 0.0
C463 C 0.21004 0.70102 0.67617 0.0
C464 C 0.19449 0.74448 0.71517 0.0
C465 C 0.23716 0.69485 0.69716 0.0
C466 C 0.23797 0.63765 0.84014 0.0
C467 C 0.24294 0.64979 0.82317 0.0
C468 C 0.23294 0.67654 0.80576 0.0
C469 C 0.24704 0.67696 0.79168 0.0
C470 C 0.24794 0.68996 0.77639 0.0
C471 C 0.23482 0.70324 0.77554 0.0
C472 C 0.22086 0.70316 0.79001 0.0
C473 C 0.22006 0.68971 0.80485 0.0
C474 C 0.26286 0.68928 0.76098 0.0
C475 C 0.20677 0.7172 0.78969 0.0
C476 C 0.32825 0.76915 0.80386 0.0
C477 C 0.32794 0.75522 0.78956 0.0
C478 C 0.3157 0.75503 0.77347 0.0
C479 C 0.30316 0.76881 0.7719 0.0
C480 C 0.30354 0.78296 0.78606 0.0
C481 C 0.31622 0.78301 0.80177 0.0
C482 C 0.31604 0.73991 0.75832 0.0
C483 C 0.29035 0.79782 0.78482 0.0
C484 C 0.28552 0.80372 0.61361 0.0
C485 C 0.28725 0.81624 0.63194 0.0
C486 C 0.2947 0.80153 0.66412 0.0
C487 C 0.30341 0.78609 0.66987 0.0
C488 C 0.29909 0.77734 0.68819 0.0
C489 C 0.28602 0.78454 0.70129 0.0
C490 C 0.27765 0.80059 0.69596 0.0
C491 C 0.28208 0.80893 0.67738 0.0
C492 C 0.30845 0.76036 0.69347 0.0
C493 C 0.26408 0.80888 0.7099 0.0
C494 C 0.22669 0.72421 0.72402 0.0
C495 C 0.22474 0.71395 0.74172 0.0
C496 C 0.23543 0.71666 0.75891 0.0
C497 C 0.24795 0.73049 0.75882 0.0
C498 C 0.25842 0.73403 0.77615 0.0
C499 C 0.27168 0.74669 0.77538 0.0
C500 C 0.27501 0.75622 0.75722 0.0
C501 C 0.28943 0.76798 0.75573 0.0
C502 C 0.29219 0.77752 0.73764 0.0
C503 C 0.28122 0.77524 0.7206 0.0
C504 C 0.26701 0.76316 0.72158 0.0
C505 C 0.25609 0.76004 0.7045 0.0
C506 C 0.24268 0.7475 0.70535 0.0
C507 C 0.23971 0.73756 0.72329 0.0
C508 C 0.25035 0.74072 0.74079 0.0
C509 C 0.26396 0.75357 0.73996 0.0
C510 C 0.34004 0.74232 0.83827 0.0
C511 C 0.35073 0.75629 0.8266 0.0
O512 O 0.18417 0.7072 0.65537 0.0
O513 O 0.29906 0.80914 0.64593 0.0
O514 O 0.33974 0.76973 0.81989 0.0
O515 O 0.23124 0.66363 0.82018 0.0
H516 H 0.18894 0.68083 0.6507 0.0
H517 H 0.21186 0.6983 0.63147 0.0
H518 H 0.19492 0.70854 0.61625 0.0
H519 H 0.19894 0.68507 0.61418 0.0
H520 H 0.17824 0.73233 0.68085 0.0
H521 H 0.21391 0.69006 0.66652 0.0
H522 H 0.1936 0.74 0.73139 0.0
H523 H 0.18151 0.74997 0.71049 0.0
H524 H 0.20446 0.75519 0.71452 0.0
H525 H 0.24011 0.68536 0.6846 0.0
H526 H 0.23556 0.68735 0.7117 0.0
H527 H 0.24863 0.70382 0.69908 0.0
H528 H 0.24666 0.64293 0.80861 0.0
H529 H 0.23548 0.62465 0.83234 0.0
H530 H 0.22365 0.64026 0.84372 0.0
H531 H 0.25813 0.64118 0.8617 0.0
H532 H 0.25732 0.66708 0.79231 0.0
H533 H 0.20929 0.68938 0.81582 0.0
H534 H 0.27225 0.70018 0.7641 0.0
H535 H 0.25777 0.69102 0.74511 0.0
H536 H 0.27024 0.67663 0.76171 0.0
H537 H 0.19802 0.71649 0.80338 0.0
H538 H 0.19857 0.7156 0.77569 0.0
H539 H 0.2129 0.7305 0.78904 0.0
H540 H 0.35745 0.75006 0.81326 0.0
H541 H 0.33711 0.74436 0.79078 0.0
H542 H 0.31658 0.79373 0.81279 0.0
H543 H 0.30477 0.73095 0.76144 0.0
H544 H 0.3284 0.73209 0.75942 0.0
H545 H 0.31468 0.74485 0.74234 0.0
H546 H 0.2918 0.80737 0.79767 0.0
H547 H 0.27674 0.7924 0.78505 0.0
H548 H 0.29206 0.80498 0.77006 0.0
H549 H 0.27386 0.81751 0.63881 0.0
H550 H 0.27613 0.80918 0.60215 0.0
H551 H 0.28041 0.79075 0.61891 0.0
H552 H 0.29852 0.8016 0.6061 0.0
H553 H 0.31336 0.78069 0.65968 0.0
H554 H 0.27587 0.82134 0.67338 0.0
H555 H 0.29869 0.74986 0.697 0.0
H556 H 0.31662 0.76238 0.70743 0.0
H557 H 0.31716 0.75573 0.68083 0.0
H558 H 0.25948 0.82188 0.70411 0.0
H559 H 0.26968 0.81067 0.72553 0.0
H560 H 0.25252 0.79996 0.71133 0.0
H561 H 0.21528 0.7032 0.74179 0.0
H562 H 0.25662 0.72687 0.79039 0.0
H563 H 0.27949 0.74871 0.7891 0.0
H564 H 0.3035 0.78626 0.73651 0.0
H565 H 0.25791 0.7671 0.6902 0.0
H566 H 0.23484 0.74551 0.69165 0.0
H567 H 0.34884 0.7316 0.84381 0.0
H568 H 0.32998 0.73632 0.82805 0.0
H569 H 0.3332 0.74835 0.85166 0.0
C570 C 0.23666 0.36754 0.83356 0.0
C571 C 0.21688 0.36321 0.83347 0.0
C572 C 0.21529 0.33146 0.82542 0.0
C573 C 0.21039 0.31493 0.83308 0.0
C574 C 0.21104 0.29978 0.82065 0.0
C575 C 0.21708 0.30121 0.80015 0.0
C576 C 0.22228 0.31784 0.79235 0.0
C577 C 0.22119 0.33281 0.80497 0.0
C578 C 0.20519 0.28228 0.82937 0.0
C579 C 0.22893 0.3198 0.77058 0.0
C580 C 0.11133 0.27343 0.72973 0.0
C581 C 0.12661 0.27597 0.71464 0.0
C582 C 0.15431 0.26329 0.72584 0.0
C583 C 0.16643 0.27637 0.72014 0.0
C584 C 0.18261 0.27802 0.73041 0.0
C585 C 0.18656 0.26647 0.74689 0.0
C586 C 0.17447 0.25297 0.75229 0.0
C587 C 0.15861 0.25136 0.74136 0.0
C588 C 0.1953 0.29229 0.72389 0.0
C589 C 0.17804 0.24057 0.76997 0.0
C590 C 0.26648 0.18786 0.70209 0.0
C591 C 0.27136 0.20566 0.69965 0.0
C592 C 0.27055 0.21747 0.71623 0.0
C593 C 0.2645 0.21147 0.73559 0.0
C594 C 0.25996 0.19351 0.73824 0.0
C595 C 0.26116 0.18191 0.72146 0.0
C596 C 0.27594 0.23645 0.71298 0.0
C597 C 0.25349 0.18667 0.75868 0.0
C598 C 0.31656 0.24333 0.87995 0.0
C599 C 0.32362 0.2278 0.86731 0.0
C600 C 0.31307 0.23394 0.83216 0.0
C601 C 0.31777 0.24119 0.81317 0.0
C602 C 0.30543 0.2428 0.7972 0.0
C603 C 0.28802 0.23659 0.80019 0.0
C604 C 0.28321 0.22899 0.81927 0.0
C605 C 0.29565 0.22806 0.83516 0.0
C606 C 0.31097 0.2512 0.77719 0.0
C607 C 0.26491 0.22171 0.8229 0.0
C608 C 0.21741 0.28551 0.7865 0.0
C609 C 0.20293 0.28274 0.77364 0.0
C610 C 0.20284 0.26908 0.75921 0.0
C611 C 0.21776 0.25803 0.75718 0.0
C612 C 0.21861 0.24489 0.74196 0.0
C613 C 0.23325 0.23389 0.74033 0.0
C614 C 0.24749 0.23547 0.75406 0.0
C615 C 0.26233 0.22422 0.75274 0.0
C616 C 0.27558 0.22522 0.76762 0.0
C617 C 0.2748 0.23773 0.78341 0.0
C618 C 0.26084 0.25012 0.78388 0.0
C619 C 0.26044 0.26387 0.7984 0.0
C620 C 0.2464 0.27571 0.79905 0.0
C621 C 0.23201 0.27392 0.7856 0.0
C622 C 0.23221 0.2602 0.77077 0.0
C623 C 0.24688 0.24862 0.76953 0.0
C624 C 0.25118 0.18826 0.65734 0.0
C625 C 0.26814 0.17972 0.66548 0.0
O626 O 0.21418 0.34559 0.8383 0.0
O627 O 0.32573 0.23284 0.84695 0.0
O628 O 0.26651 0.17607 0.68629 0.0
O629 O 0.13832 0.26203 0.71668 0.0
H630 H 0.2114 0.36609 0.81796 0.0
H631 H 0.24376 0.35974 0.82174 0.0
H632 H 0.2426 0.36448 0.84875 0.0
H633 H 0.23874 0.38176 0.83012 0.0
H634 H 0.20587 0.31397 0.84885 0.0
H635 H 0.22502 0.34544 0.79868 0.0
H636 H 0.19456 0.27663 0.81966 0.0
H637 H 0.20027 0.28349 0.8454 0.0
H638 H 0.21639 0.27285 0.82914 0.0
H639 H 0.23377 0.33336 0.76731 0.0
H640 H 0.21814 0.31667 0.75967 0.0
H641 H 0.23982 0.31031 0.76769 0.0
H642 H 0.13311 0.28871 0.71865 0.0
H643 H 0.10181 0.28453 0.72844 0.0
H644 H 0.11646 0.27312 0.74571 0.0
H645 H 0.10433 0.26082 0.72663 0.0
H646 H 0.16319 0.28528 0.70767 0.0
H647 H 0.14917 0.24121 0.74544 0.0
H648 H 0.19511 0.30305 0.73547 0.0
H649 H 0.19177 0.298 0.70872 0.0
H650 H 0.20897 0.28704 0.7231 0.0
H651 H 0.16644 0.23217 0.77363 0.0
H652 H 0.18172 0.24816 0.78392 0.0
H653 H 0.18929 0.23183 0.76604 0.0
H654 H 0.27946 0.1888 0.66293 0.0
H655 H 0.27571 0.21054 0.68489 0.0
H656 H 0.25754 0.16816 0.72327 0.0
H657 H 0.2641 0.24504 0.71389 0.0
H658 H 0.28234 0.23855 0.69781 0.0
H659 H 0.28518 0.2407 0.72526 0.0
H660 H 0.24966 0.17253 0.75797 0.0
H661 H 0.24194 0.19452 0.76387 0.0
H662 H 0.26401 0.18825 0.77039 0.0
H663 H 0.31425 0.21656 0.86839 0.0
H664 H 0.31489 0.23942 0.8963 0.0
H665 H 0.30352 0.24757 0.87398 0.0
H666 H 0.32578 0.25472 0.8791 0.0
H667 H 0.33119 0.24577 0.81097 0.0
H668 H 0.29156 0.22259 0.84973 0.0
H669 H 0.30138 0.26159 0.77271 0.0
H670 H 0.31102 0.24107 0.76485 0.0
H671 H 0.32433 0.25716 0.77811 0.0
H672 H 0.26411 0.21381 0.83725 0.0
H673 H 0.26078 0.21326 0.8098 0.0
H674 H 0.25538 0.23277 0.8241 0.0
H675 H 0.19158 0.29142 0.77482 0.0
H676 H 0.20798 0.243 0.73108 0.0
H677 H 0.23315 0.22398 0.72835 0.0
H678 H 0.28654 0.21602 0.76703 0.0
H679 H 0.27106 0.26571 0.80931 0.0
H680 H 0.24682 0.2861 0.81047 0.0
H681 H 0.25239 0.19093 0.6406 0.0
H682 H 0.24866 0.201 0.66521 0.0
H683 H 0.23969 0.17944 0.65998 0.0
C684 C 0.81119 0.32548 0.62568 0.0
C685 C 0.82547 0.32384 0.64224 0.0
C686 C 0.81358 0.30371 0.66866 0.0
C687 C 0.81638 0.28753 0.6784 0.0
C688 C 0.80639 0.28249 0.69558 0.0
C689 C 0.79285 0.29375 0.70283 0.0
C690 C 0.78969 0.31003 0.69282 0.0
C691 C 0.80021 0.31494 0.67598 0.0
C692 C 0.81052 0.26525 0.70616 0.0
C693 C 0.77526 0.32231 0.69999 0.0
C694 C 0.80829 0.31486 0.8582 0.0
C695 C 0.80791 0.33088 0.84377 0.0
C696 C 0.79046 0.32158 0.81365 0.0
C697 C 0.77514 0.32521 0.80256 0.0
C698 C 0.77135 0.31635 0.78417 0.0
C699 C 0.78295 0.30302 0.77707 0.0
C700 C 0.7986 0.29935 0.78811 0.0
C701 C 0.80233 0.30884 0.80615 0.0
C702 C 0.75487 0.3212 0.77245 0.0
C703 C 0.81126 0.28523 0.78101 0.0
C704 C 0.69893 0.23107 0.81551 0.0
C705 C 0.69281 0.24485 0.803 0.0
C706 C 0.70034 0.24792 0.78362 0.0
C707 C 0.71422 0.23694 0.77664 0.0
C708 C 0.71964 0.22239 0.7887 0.0
C709 C 0.71177 0.21955 0.80796 0.0
C710 C 0.69389 0.26325 0.77087 0.0
C711 C 0.73424 0.2103 0.78159 0.0
C712 C 0.7098 0.21723 0.61038 0.0
C713 C 0.71401 0.20542 0.62879 0.0
C714 C 0.7089 0.21621 0.66361 0.0
C715 C 0.69949 0.22983 0.67305 0.0
C716 C 0.70525 0.23722 0.69164 0.0
C717 C 0.72055 0.23043 0.70127 0.0
C718 C 0.72961 0.216 0.6923 0.0
C719 C 0.72374 0.2091 0.67347 0.0
C720 C 0.69514 0.25246 0.70083 0.0
C721 C 0.74556 0.20799 0.70253 0.0
C722 C 0.78259 0.28888 0.72146 0.0
C723 C 0.78711 0.29706 0.73999 0.0
C724 C 0.77847 0.2928 0.7583 0.0
C725 C 0.76528 0.2796 0.75834 0.0
C726 C 0.757 0.27432 0.77668 0.0
C727 C 0.74362 0.26178 0.77651 0.0
C728 C 0.73799 0.25402 0.758 0.0
C729 C 0.72404 0.24163 0.75765 0.0
C730 C 0.71888 0.23399 0.73905 0.0
C731 C 0.72715 0.23858 0.72057 0.0
C732 C 0.74101 0.25113 0.72058 0.0
C733 C 0.74943 0.25633 0.70227 0.0
C734 C 0.76307 0.26865 0.70249 0.0
C735 C 0.76873 0.27636 0.72101 0.0
C736 C 0.7602 0.27156 0.73959 0.0
C737 C 0.74644 0.25883 0.73939 0.0
C738 C 0.7037 0.24113 0.8659 0.0
C739 C 0.68963 0.24191 0.84909 0.0
O740 O 0.82402 0.30777 0.6523 0.0
O741 O 0.70324 0.21017 0.64512 0.0
O742 O 0.69276 0.22861 0.83489 0.0
O743 O 0.79297 0.33051 0.83154 0.0
H744 H 0.82399 0.33484 0.65345 0.0
H745 H 0.79785 0.32503 0.63267 0.0
H746 H 0.81221 0.31452 0.61439 0.0
H747 H 0.81257 0.33825 0.61743 0.0
H748 H 0.82671 0.27894 0.67265 0.0
H749 H 0.79779 0.32751 0.66863 0.0
H750 H 0.81217 0.26739 0.72294 0.0
H751 H 0.82268 0.25898 0.70002 0.0
H752 H 0.79936 0.25594 0.70403 0.0
H753 H 0.77283 0.3332 0.68892 0.0
H754 H 0.77902 0.32818 0.71499 0.0
H755 H 0.76278 0.31488 0.70231 0.0
H756 H 0.81994 0.3307 0.83395 0.0
H757 H 0.81999 0.31557 0.86843 0.0
H758 H 0.80911 0.3024 0.84931 0.0
H759 H 0.79618 0.31432 0.86781 0.0
H760 H 0.76613 0.33514 0.80837 0.0
H761 H 0.81437 0.30599 0.81438 0.0
H762 H 0.74487 0.31063 0.7744 0.0
H763 H 0.75775 0.32241 0.75577 0.0
H764 H 0.74905 0.3338 0.77797 0.0
H765 H 0.82188 0.2827 0.7924 0.0
H766 H 0.81745 0.28933 0.7663 0.0
H767 H 0.80405 0.27271 0.77814 0.0
H768 H 0.69084 0.25518 0.84188 0.0
H769 H 0.68224 0.25328 0.80841 0.0
H770 H 0.71613 0.20873 0.8176 0.0
H771 H 0.70445 0.27337 0.76977 0.0
H772 H 0.68193 0.26951 0.77755 0.0
H773 H 0.69085 0.25876 0.75502 0.0
H774 H 0.7365 0.19919 0.79242 0.0
H775 H 0.74667 0.21794 0.78004 0.0
H776 H 0.731 0.20484 0.76621 0.0
H777 H 0.72815 0.20778 0.63258 0.0
H778 H 0.7183 0.21369 0.59707 0.0
H779 H 0.71233 0.23125 0.61443 0.0
H780 H 0.69574 0.21587 0.60584 0.0
H781 H 0.68788 0.23501 0.66545 0.0
H782 H 0.73064 0.19808 0.66654 0.0
H783 H 0.70421 0.26364 0.70406 0.0
H784 H 0.68921 0.24831 0.71567 0.0
H785 H 0.68442 0.25717 0.69057 0.0
H786 H 0.74997 0.19569 0.69477 0.0
H787 H 0.74259 0.20498 0.71888 0.0
H788 H 0.7566 0.21761 0.70227 0.0
H789 H 0.79742 0.307 0.74013 0.0
H790 H 0.76075 0.27984 0.79139 0.0
H791 H 0.7377 0.25833 0.79112 0.0
H792 H 0.70812 0.22454 0.73892 0.0
H793 H 0.74559 0.25092 0.68754 0.0
H794 H 0.76906 0.27215 0.68793 0.0
H795 H 0.70131 0.25157 0.87758 0.0
H796 H 0.71694 0.24334 0.85903 0.0
H797 H 0.7037 0.22804 0.8736 0.0
C798 C 0.79453 0.64132 0.8015 0.0
C799 C 0.79928 0.6543 0.81865 0.0
C800 C 0.78468 0.68207 0.81342 0.0
C801 C 0.79548 0.69555 0.82091 0.0
C802 C 0.79561 0.71221 0.81149 0.0
C803 C 0.78491 0.71521 0.794 0.0
C804 C 0.77371 0.70161 0.7867 0.0
C805 C 0.77355 0.68523 0.79676 0.0
C806 C 0.80749 0.72643 0.81993 0.0
C807 C 0.76235 0.70419 0.7679 0.0
C808 C 0.86699 0.78876 0.69378 0.0
C809 C 0.86183 0.7698 0.68837 0.0
C810 C 0.84806 0.75618 0.71814 0.0
C811 C 0.83216 0.74987 0.70998 0.0
C812 C 0.81751 0.74695 0.72274 0.0
C813 C 0.81882 0.75061 0.74403 0.0
C814 C 0.83507 0.75636 0.75236 0.0
C815 C 0.84959 0.75883 0.73929 0.0
C816 C 0.80055 0.74024 0.71346 0.0
C817 C 0.837 0.76025 0.77499 0.0
C818 C 0.75921 0.84649 0.71998 0.0
C819 C 0.74925 0.83171 0.71416 0.0
C820 C 0.74598 0.81802 0.72815 0.0
C821 C 0.75274 0.81924 0.74837 0.0
C822 C 0.76172 0.83469 0.75466 0.0
C823 C 0.76472 0.84823 0.74035 0.0
C824 C 0.73588 0.80195 0.72114 0.0
C825 C 0.76883 0.83651 0.7762 0.0
C826 C 0.67615 0.75984 0.86716 0.0
C827 C 0.67859 0.77973 0.86423 0.0
C828 C 0.69247 0.78477 0.83063 0.0
C829 C 0.69047 0.77905 0.81035 0.0
C830 C 0.70459 0.77972 0.7964 0.0
C831 C 0.72101 0.78658 0.8029 0.0
C832 C 0.72297 0.79295 0.82321 0.0
C833 C 0.70865 0.79205 0.83686 0.0
C834 C 0.70201 0.77302 0.77477 0.0
C835 C 0.74019 0.80078 0.83043 0.0
C836 C 0.78643 0.73204 0.78246 0.0
C837 C 0.80078 0.73394 0.76911 0.0
C838 C 0.80302 0.74923 0.75743 0.0
C839 C 0.79048 0.763 0.75877 0.0
C840 C 0.79223 0.77847 0.74702 0.0
C841 C 0.77965 0.79177 0.74807 0.0
C842 C 0.76495 0.79026 0.76118 0.0
C843 C 0.75198 0.80364 0.76213 0.0
C844 C 0.73784 0.80204 0.77578 0.0
C845 C 0.73614 0.78721 0.78844 0.0
C846 C 0.74871 0.77343 0.78727 0.0
C847 C 0.7472 0.75814 0.79942 0.0
C848 C 0.75957 0.74459 0.79798 0.0
C849 C 0.77392 0.74582 0.78433 0.0
C850 C 0.77587 0.76126 0.77223 0.0
C851 C 0.76318 0.775 0.77359 0.0
C852 C 0.79091 0.85687 0.68777 0.0
C853 C 0.77076 0.85585 0.68687 0.0
O854 O 0.78531 0.66577 0.82185 0.0
O855 O 0.67832 0.78364 0.8434 0.0
O856 O 0.76382 0.85915 0.70624 0.0
O857 O 0.86221 0.75956 0.70602 0.0
H858 H 0.81123 0.66179 0.81369 0.0
H859 H 0.79192 0.64864 0.78703 0.0
H860 H 0.78254 0.63366 0.80564 0.0
H861 H 0.80561 0.63202 0.79869 0.0
H862 H 0.80394 0.69291 0.83397 0.0
H863 H 0.76522 0.67462 0.79122 0.0
H864 H 0.81886 0.72827 0.80939 0.0
H865 H 0.81265 0.72303 0.83541 0.0
H866 H 0.80032 0.73919 0.82089 0.0
H867 H 0.7553 0.69193 0.76342 0.0
H868 H 0.77059 0.70864 0.75476 0.0
H869 H 0.75243 0.71465 0.77094 0.0
H870 H 0.8483 0.77015 0.68173 0.0
H871 H 0.86668 0.79722 0.67984 0.0
H872 H 0.88044 0.78917 0.70055 0.0
H873 H 0.85751 0.79423 0.70515 0.0
H874 H 0.83123 0.74712 0.69367 0.0
H875 H 0.86207 0.7634 0.74543 0.0
H876 H 0.7955 0.72884 0.72245 0.0
H877 H 0.80226 0.73613 0.69718 0.0
H878 H 0.79041 0.75079 0.71411 0.0
H879 H 0.85025 0.76555 0.77886 0.0
H880 H 0.8348 0.74797 0.78393 0.0
H881 H 0.82685 0.76996 0.77989 0.0
H882 H 0.76747 0.84227 0.68162 0.0
H883 H 0.74418 0.83077 0.69865 0.0
H884 H 0.77207 0.8599 0.74478 0.0
H885 H 0.74487 0.79038 0.72074 0.0
H886 H 0.73008 0.80373 0.7056 0.0
H887 H 0.72513 0.79892 0.7322 0.0
H888 H 0.77471 0.84972 0.77901 0.0
H889 H 0.77908 0.82629 0.77887 0.0
H890 H 0.7581 0.83424 0.78752 0.0
H891 H 0.69141 0.78335 0.87129 0.0
H892 H 0.67615 0.75647 0.88378 0.0
H893 H 0.68718 0.75265 0.85964 0.0
H894 H 0.66355 0.75535 0.8602 0.0
H895 H 0.67784 0.77377 0.80557 0.0
H896 H 0.71011 0.79743 0.85216 0.0
H897 H 0.71177 0.76246 0.77143 0.0
H898 H 0.70439 0.78389 0.76368 0.0
H899 H 0.68853 0.7677 0.77225 0.0
H900 H 0.73949 0.80551 0.84657 0.0
H901 H 0.74392 0.81201 0.82036 0.0
H902 H 0.7508 0.79073 0.82923 0.0
H903 H 0.81037 0.72336 0.76781 0.0
H904 H 0.80328 0.78044 0.73672 0.0
H905 H 0.78165 0.80328 0.7385 0.0
H906 H 0.72801 0.81243 0.77652 0.0
H907 H 0.73638 0.75643 0.81011 0.0
H908 H 0.75773 0.73312 0.80766 0.0
H909 H 0.79665 0.85469 0.67225 0.0
H910 H 0.79602 0.84645 0.69821 0.0
H911 H 0.79533 0.86989 0.69368 0.0
C912 C 0.98504 0.32388 0.52344 0.0
C913 C 0.03333 0.32489 0.4739 0.0
O914 O 0.9932 0.33738 0.51675 0.0
Zn915 Zn 0.00961 0.32478 0.49924 0.0
O916 O 0.98983 0.30844 0.51758 0.0
Zn917 Zn 0.00932 0.29676 0.4978 0.0
O918 O 0.0238 0.28317 0.51642 0.0
O919 O 0.02602 0.31186 0.52137 0.0
O920 O 0.028 0.30924 0.47797 0.0
O921 O 0.02657 0.33804 0.48311 0.0
O922 O 0.99215 0.31332 0.4765 0.0
O923 O 0.99479 0.28433 0.47854 0.0
C924 C 0.03031 0.29606 0.52633 0.0
C925 C 0.98776 0.29782 0.47033 0.0
C926 C 0.7027 0.03439 0.53672 0.0
C927 C 0.69896 0.98929 0.48323 0.0
O928 O 0.71783 0.02895 0.53055 0.0
Zn929 Zn 0.72831 0.01003 0.50926 0.0
O930 O 0.68879 0.0274 0.52945 0.0
Zn931 Zn 0.70046 0.01129 0.5107 0.0
O932 O 0.71239 0.99221 0.53103 0.0
O933 O 0.74113 0.99389 0.52626 0.0
O934 O 0.68624 0.99659 0.49271 0.0
O935 O 0.71486 0.99322 0.48806 0.0
O936 O 0.7417 0.02475 0.49117 0.0
O937 O 0.71299 0.02958 0.48957 0.0
C938 C 0.72804 0.98693 0.53534 0.0
C939 C 0.72876 0.03327 0.48374 0.0
C940 C 0.98432 0.72365 0.52812 0.0
C941 C 0.02815 0.72082 0.47351 0.0
O942 O 0.99241 0.7363 0.51942 0.0
Zn943 Zn 0.00602 0.72236 0.50058 0.0
O944 O 0.98731 0.70773 0.52233 0.0
Zn945 Zn 0.00365 0.69441 0.49998 0.0
O946 O 0.01856 0.67985 0.51724 0.0
O947 O 0.02353 0.70842 0.52048 0.0
O948 O 0.02245 0.70546 0.47858 0.0
O949 O 0.02197 0.7344 0.48243 0.0
O950 O 0.9865 0.7123 0.48018 0.0
O951 O 0.98646 0.68323 0.48207 0.0
C952 C 0.02709 0.69245 0.52549 0.0
C953 C 0.98026 0.69738 0.47445 0.0
C954 C 0.29134 0.02705 0.53671 0.0
C955 C 0.2913 0.98269 0.48255 0.0
O956 O 0.30699 0.02265 0.53113 0.0
Zn957 Zn 0.31913 0.00481 0.5094 0.0
O958 O 0.27809 0.0197 0.52833 0.0
Zn959 Zn 0.29098 0.00474 0.50986 0.0
O960 O 0.30319 0.98649 0.53017 0.0
O961 O 0.33208 0.98833 0.52671 0.0
O962 O 0.278 0.98918 0.49173 0.0
O963 O 0.30688 0.98756 0.48759 0.0
O964 O 0.33188 0.02071 0.49142 0.0
O965 O 0.3029 0.02368 0.48965 0.0
C966 C 0.31868 0.98132 0.53517 0.0
C967 C 0.31841 0.02844 0.48404 0.0
C968 C 0.48199 0.827 0.0284 0.0
C969 C 0.52868 0.82982 0.97703 0.0
O970 O 0.4897 0.84063 0.02143 0.0
Zn971 Zn 0.50561 0.82862 0.00282 0.0
O972 O 0.48667 0.8117 0.02197 0.0
Zn973 Zn 0.50543 0.80088 0.00085 0.0
O974 O 0.52003 0.78668 0.01801 0.0
O975 O 0.5239 0.81524 0.02302 0.0
O976 O 0.52381 0.81398 0.98093 0.0
O977 O 0.52166 0.84271 0.9865 0.0
O978 O 0.4878 0.81746 0.98005 0.0
O979 O 0.4912 0.78852 0.98175 0.0
C980 C 0.52791 0.79917 0.02716 0.0
C981 C 0.48386 0.80188 0.97371 0.0
C982 C 0.19936 0.53534 0.03573 0.0
C983 C 0.1883 0.48691 0.98809 0.0
O984 O 0.21358 0.52868 0.02832 0.0
Zn985 Zn 0.22092 0.50808 0.00715 0.0
O986 O 0.18451 0.52902 0.03042 0.0
Zn987 Zn 0.19354 0.51125 0.01193 0.0
O988 O 0.20671 0.49302 0.03272 0.0
O989 O 0.23478 0.49256 0.02349 0.0
O990 O 0.17688 0.4965 0.99701 0.0
O991 O 0.20474 0.48993 0.99078 0.0
O992 O 0.23288 0.5206 0.98563 0.0
O993 O 0.20466 0.52744 0.98791 0.0
C994 C 0.22248 0.48714 0.03514 0.0
C995 C 0.21981 0.52961 0.97946 0.0
C996 C 0.53182 0.22285 0.96938 0.0
C997 C 0.48504 0.22363 0.02079 0.0
O998 O 0.52424 0.23619 0.97728 0.0
Zn999 Zn 0.50861 0.22349 0.99523 0.0
O1000 O 0.52714 0.20726 0.97488 0.0
Zn1001 Zn 0.50833 0.19544 0.99565 0.0
O1002 O 0.49284 0.18233 0.97767 0.0
O1003 O 0.49087 0.21127 0.97395 0.0
O1004 O 0.48962 0.20793 0.0157 0.0
O1005 O 0.49292 0.23677 0.01286 0.0
O1006 O 0.52643 0.21151 0.01664 0.0
O1007 O 0.52332 0.18262 0.0145 0.0
C1008 C 0.48604 0.19566 0.96885 0.0
C1009 C 0.53079 0.19597 0.02253 0.0
C1010 C 0.79522 0.5241 0.03377 0.0
C1011 C 0.80339 0.48143 0.97859 0.0
O1012 O 0.81141 0.52275 0.02824 0.0
Zn1013 Zn 0.82678 0.50722 0.00715 0.0
O1014 O 0.78365 0.51432 0.02544 0.0
Zn1015 Zn 0.79917 0.50246 0.00638 0.0
O1016 O 0.81384 0.4851 0.02569 0.0
O1017 O 0.84177 0.49343 0.02531 0.0
O1018 O 0.78905 0.48615 0.9871 0.0
O1019 O 0.81803 0.48822 0.98457 0.0
O1020 O 0.83736 0.52514 0.99003 0.0
O1021 O 0.80839 0.52347 0.9869 0.0
C1022 C 0.82979 0.48305 0.03166 0.0
C1023 C 0.82311 0.53073 0.98204 0.0
H1024 H 0.14093 0.27799 0.34041 0.0
H1025 H 0.11896 0.29432 0.36032 0.0
H1026 H 0.15757 0.3039 0.40772 0.0
H1027 H 0.17949 0.28721 0.388 0.0
H1028 H 0.12865 0.29165 0.42396 0.0
H1029 H 0.14163 0.33783 0.37727 0.0
H1030 H 0.1467 0.35213 0.34375 0.0
H1031 H 0.09335 0.3409 0.32595 0.0
H1032 H 0.08802 0.32628 0.35924 0.0
H1033 H 0.06473 0.34152 0.47972 0.0
H1034 H 0.09094 0.33905 0.45754 0.0
H1035 H 0.06032 0.3105 0.41267 0.0
H1036 H 0.03441 0.31228 0.43514 0.0
H1037 H 0.08776 0.33722 0.39693 0.0
H1038 H 0.07789 0.28614 0.4414 0.0
H1039 H 0.07303 0.2721 0.47511 0.0
H1040 H 0.12195 0.29357 0.49705 0.0
H1041 H 0.12683 0.30813 0.46361 0.0
C1042 C 0.14479 0.28386 0.35491 0.0
C1043 C 0.16195 0.28147 0.36259 0.0
C1044 C 0.13227 0.29328 0.36623 0.0
C1045 C 0.13667 0.30056 0.38541 0.0
C1046 C 0.1539 0.29849 0.39291 0.0
C1047 C 0.16642 0.289 0.38163 0.0
C1048 C 0.12282 0.30883 0.39841 0.0
C1049 C 0.12002 0.30194 0.41817 0.0
C1050 C 0.11135 0.32207 0.39082 0.0
C1051 C 0.11447 0.33084 0.37073 0.0
C1052 C 0.13101 0.33828 0.36615 0.0
C1053 C 0.13393 0.34646 0.34719 0.0
C1054 C 0.12037 0.34739 0.33271 0.0
C1055 C 0.10385 0.34016 0.33718 0.0
C1056 C 0.10086 0.33194 0.35611 0.0
C1057 C 0.06355 0.33521 0.46484 0.0
C1058 C 0.04769 0.3271 0.45899 0.0
C1059 C 0.07846 0.33379 0.45224 0.0
C1060 C 0.07748 0.32462 0.43351 0.0
C1061 C 0.06126 0.31774 0.42699 0.0
C1062 C 0.04653 0.31871 0.43982 0.0
C1063 C 0.09367 0.31986 0.42214 0.0
C1064 C 0.09677 0.32728 0.40274 0.0
C1065 C 0.10552 0.30719 0.43004 0.0
C1066 C 0.10257 0.29848 0.45015 0.0
C1067 C 0.08747 0.28809 0.45352 0.0
C1068 C 0.08473 0.28 0.47256 0.0
C1069 C 0.09712 0.28201 0.48827 0.0
C1070 C 0.1123 0.29209 0.48494 0.0
C1071 C 0.11505 0.30029 0.46595 0.0
H1072 H 0.09498 0.27568 0.50296 0.0
H1073 H 0.12265 0.35374 0.31805 0.0
H1074 H 0.78856 0.13617 0.3328 0.0
H1075 H 0.7774 0.11055 0.36301 0.0
H1076 H 0.73078 0.15159 0.38966 0.0
H1077 H 0.74105 0.17857 0.36039 0.0
H1078 H 0.74476 0.13321 0.41823 0.0
H1079 H 0.72327 0.10532 0.35756 0.0
H1080 H 0.72362 0.09461 0.32174 0.0
H1081 H 0.76828 0.06176 0.33525 0.0
H1082 H 0.76823 0.07238 0.37114 0.0
H1083 H 0.70604 0.05955 0.47258 0.0
H1084 H 0.71121 0.08322 0.44764 0.0
H1085 H 0.76334 0.06283 0.43584 0.0
H1086 H 0.75841 0.03927 0.46094 0.0
H1087 H 0.74215 0.06967 0.40002 0.0
H1088 H 0.76029 0.09775 0.46352 0.0
H1089 H 0.75593 0.10792 0.49918 0.0
H1090 H 0.71257 0.14035 0.47988 0.0
H1091 H 0.71649 0.13014 0.44413 0.0
C1092 C 0.77837 0.13928 0.34387 0.0
C1093 C 0.76378 0.15884 0.34094 0.0
C1094 C 0.77059 0.12304 0.36189 0.0
C1095 C 0.75198 0.12767 0.37848 0.0
C1096 C 0.74132 0.14904 0.37885 0.0
C1097 C 0.74814 0.1662 0.36138 0.0
C1098 C 0.74663 0.11417 0.39366 0.0
C1099 C 0.74385 0.11937 0.41413 0.0
C1100 C 0.74558 0.09608 0.38846 0.0
C1101 C 0.74593 0.08988 0.36688 0.0
C1102 C 0.73323 0.09591 0.35283 0.0
C1103 C 0.73335 0.08982 0.33254 0.0
C1104 C 0.74602 0.07758 0.32619 0.0
C1105 C 0.75853 0.07131 0.34016 0.0
C1106 C 0.75845 0.07734 0.36048 0.0
C1107 C 0.71861 0.06011 0.46468 0.0
C1108 C 0.73182 0.04754 0.46867 0.0
C1109 C 0.72155 0.07368 0.45054 0.0
C1110 C 0.73767 0.07477 0.44003 0.0
C1111 C 0.75083 0.06219 0.44388 0.0
C1112 C 0.748 0.04878 0.45822 0.0
C1113 C 0.7407 0.0887 0.42453 0.0
C1114 C 0.74296 0.08356 0.40401 0.0
C1115 C 0.74087 0.10684 0.42968 0.0
C1116 C 0.73855 0.11301 0.45117 0.0
C1117 C 0.74971 0.10691 0.4669 0.0
C1118 C 0.74734 0.11271 0.48713 0.0
C1119 C 0.73395 0.12473 0.49181 0.0
C1120 C 0.72292 0.13101 0.47624 0.0
C1121 C 0.72522 0.12523 0.45599 0.0
H1122 H 0.73214 0.12921 0.50747 0.0
H1123 H 0.7461 0.07289 0.31047 0.0
H1124 H 0.84196 0.74002 0.39209 0.0
H1125 H 0.86508 0.72308 0.40917 0.0
H1126 H 0.8859 0.70743 0.35015 0.0
H1127 H 0.86353 0.72524 0.33302 0.0
H1128 H 0.87842 0.69149 0.41263 0.0
H1129 H 0.9302 0.70857 0.35172 0.0
H1130 H 0.93509 0.72967 0.32336 0.0
H1131 H 0.90284 0.76806 0.35419 0.0
H1132 H 0.89796 0.74726 0.38282 0.0
H1133 H 0.963 0.66863 0.4578 0.0
H1134 H 0.93866 0.66919 0.43281 0.0
H1135 H 0.94055 0.72612 0.43232 0.0
H1136 H 0.96469 0.72569 0.45663 0.0
H1137 H 0.93787 0.71404 0.39456 0.0
H1138 H 0.90995 0.70285 0.46091 0.0
H1139 H 0.90451 0.68544 0.49233 0.0
H1140 H 0.88835 0.64118 0.45565 0.0
H1141 H 0.8939 0.6583 0.424 0.0
C1142 C 0.85129 0.7327 0.38278 0.0
C1143 C 0.851 0.73417 0.36126 0.0
C1144 C 0.86443 0.72292 0.39254 0.0
C1145 C 0.87744 0.71424 0.38095 0.0
C1146 C 0.87621 0.71431 0.35941 0.0
C1147 C 0.86333 0.72447 0.34963 0.0
C1148 C 0.89343 0.70742 0.39146 0.0
C1149 C 0.89146 0.69619 0.40849 0.0
C1150 C 0.91049 0.71358 0.38616 0.0
C1151 C 0.91354 0.72629 0.36922 0.0
C1152 C 0.9242 0.72153 0.35244 0.0
C1153 C 0.92697 0.73344 0.33633 0.0
C1154 C 0.91923 0.75017 0.33694 0.0
C1155 C 0.90878 0.75508 0.35371 0.0
C1156 C 0.90602 0.74325 0.36987 0.0
C1157 C 0.95823 0.68122 0.45224 0.0
C1158 C 0.96578 0.69711 0.45921 0.0
C1159 C 0.94434 0.68152 0.43802 0.0
C1160 C 0.93781 0.6977 0.4307 0.0
C1161 C 0.94546 0.71347 0.43759 0.0
C1162 C 0.95925 0.71319 0.45162 0.0
C1163 C 0.92275 0.69876 0.41624 0.0
C1164 C 0.92493 0.70882 0.39832 0.0
C1165 C 0.90587 0.69201 0.42114 0.0
C1166 C 0.90256 0.68175 0.44013 0.0
C1167 C 0.90538 0.68936 0.45956 0.0
C1168 C 0.90225 0.67956 0.4774 0.0
C1169 C 0.89615 0.66219 0.47598 0.0
C1170 C 0.89312 0.65461 0.45672 0.0
C1171 C 0.89625 0.66435 0.43883 0.0
H1172 H 0.89373 0.65463 0.48981 0.0
H1173 H 0.92136 0.75935 0.32443 0.0
H1174 H 0.31391 0.87557 0.33397 0.0
H1175 H 0.30796 0.89971 0.35801 0.0
H1176 H 0.28171 0.86344 0.39891 0.0
H1177 H 0.28783 0.83913 0.37502 0.0
H1178 H 0.26451 0.89838 0.39349 0.0
H1179 H 0.32067 0.87168 0.41025 0.0
H1180 H 0.35042 0.86068 0.4018 0.0
H1181 H 0.36556 0.91238 0.3813 0.0
H1182 H 0.33578 0.92362 0.3893 0.0
H1183 H 0.26872 0.95461 0.48219 0.0
H1184 H 0.26844 0.93017 0.45746 0.0
H1185 H 0.30867 0.9565 0.42173 0.0
H1186 H 0.30972 0.9802 0.44712 0.0
H1187 H 0.31769 0.92492 0.42537 0.0
H1188 H 0.26273 0.95229 0.40685 0.0
H1189 H 0.2329 0.96424 0.41281 0.0
H1190 H 0.21534 0.91349 0.43389 0.0
H1191 H 0.24513 0.90128 0.42828 0.0
C1192 C 0.30656 0.87282 0.3479 0.0
C1193 C 0.30109 0.85553 0.35245 0.0
C1194 C 0.3032 0.88658 0.3616 0.0
C1195 C 0.29438 0.88331 0.38018 0.0
C1196 C 0.28839 0.86621 0.38454 0.0
C1197 C 0.29189 0.85236 0.3709 0.0
C1198 C 0.2928 0.89751 0.39569 0.0
C1199 C 0.27607 0.90411 0.40071 0.0
C1200 C 0.30795 0.90513 0.40469 0.0
C1201 C 0.32595 0.89845 0.40021 0.0
C1202 C 0.3303 0.88067 0.4038 0.0
C1203 C 0.34717 0.8744 0.39911 0.0
C1204 C 0.35986 0.88582 0.39098 0.0
C1205 C 0.35571 0.90355 0.38758 0.0
C1206 C 0.33885 0.90988 0.39221 0.0
C1207 C 0.27727 0.95521 0.46885 0.0
C1208 C 0.28922 0.96922 0.46644 0.0
C1209 C 0.27708 0.9413 0.45468 0.0
C1210 C 0.28843 0.9415 0.43753 0.0
C1211 C 0.29987 0.95591 0.43484 0.0
C1212 C 0.30041 0.96951 0.44927 0.0
C1213 C 0.28932 0.92633 0.423 0.0
C1214 C 0.30601 0.91935 0.41824 0.0
C1215 C 0.27413 0.91862 0.41402 0.0
C1216 C 0.2562 0.92592 0.41734 0.0
C1217 C 0.25254 0.94371 0.41289 0.0
C1218 C 0.23563 0.95053 0.41618 0.0
C1219 C 0.22225 0.93965 0.42378 0.0
C1220 C 0.22573 0.92191 0.42803 0.0
C1221 C 0.24261 0.91503 0.42478 0.0
H1222 H 0.20917 0.94495 0.42632 0.0
H1223 H 0.37292 0.88094 0.38736 0.0
H1224 H 0.16757 0.66147 0.63598 0.0
H1225 H 0.13856 0.65682 0.62015 0.0
H1226 H 0.13337 0.71297 0.6109 0.0
H1227 H 0.16216 0.71767 0.62681 0.0
H1228 H 0.1031 0.6985 0.62576 0.0
H1229 H 0.14609 0.68575 0.57213 0.0
H1230 H 0.17136 0.66968 0.55728 0.0
H1231 H 0.14328 0.62073 0.56341 0.0
H1232 H 0.11791 0.63651 0.57856 0.0
H1233 H 0.04756 0.71695 0.54439 0.0
H1234 H 0.07173 0.71215 0.56809 0.0
H1235 H 0.06335 0.65589 0.56483 0.0
H1236 H 0.03904 0.66059 0.54046 0.0
H1237 H 0.09779 0.66415 0.56111 0.0
H1238 H 0.05233 0.67847 0.6085 0.0
H1239 H 0.02713 0.69513 0.62259 0.0
H1240 H 0.05954 0.74134 0.62821 0.0
H1241 H 0.08488 0.72506 0.61386 0.0
C1242 C 0.16013 0.6728 0.63071 0.0
C1243 C 0.16698 0.68995 0.63287 0.0
C1244 C 0.14363 0.67013 0.62163 0.0
C1245 C 0.13383 0.68456 0.61437 0.0
C1246 C 0.14065 0.70167 0.61657 0.0
C1247 C 0.15709 0.70434 0.62561 0.0
C1248 C 0.11668 0.68204 0.60391 0.0
C1249 C 0.1019 0.69101 0.61162 0.0
C1250 C 0.11501 0.67172 0.58588 0.0
C1251 C 0.13021 0.66227 0.5767 0.0
C1252 C 0.14537 0.67154 0.57046 0.0
C1253 C 0.15969 0.66249 0.56196 0.0
C1254 C 0.15895 0.64419 0.55946 0.0
C1255 C 0.14385 0.6349 0.5654 0.0
C1256 C 0.1295 0.64389 0.57393 0.0
C1257 C 0.05069 0.70351 0.54875 0.0
C1258 C 0.04132 0.68914 0.54054 0.0
C1259 C 0.06448 0.70081 0.56247 0.0
C1260 C 0.06913 0.68369 0.56856 0.0
C1261 C 0.05985 0.66923 0.56044 0.0
C1262 C 0.04599 0.67193 0.54656 0.0
C1263 C 0.08435 0.6812 0.58253 0.0
C1264 C 0.09879 0.67127 0.57554 0.0
C1265 C 0.08571 0.69067 0.60123 0.0
C1266 C 0.07052 0.70052 0.61003 0.0
C1267 C 0.05407 0.69221 0.61263 0.0
C1268 C 0.03976 0.70159 0.62067 0.0
C1269 C 0.04173 0.71928 0.62629 0.0
C1270 C 0.05803 0.72763 0.62388 0.0
C1271 C 0.07239 0.71832 0.61582 0.0
H1272 H 0.03065 0.72651 0.63256 0.0
H1273 H 0.17006 0.6372 0.55288 0.0
H1274 H 0.25512 0.14617 0.67263 0.0
H1275 H 0.25987 0.11949 0.65205 0.0
H1276 H 0.29299 0.14895 0.61044 0.0
H1277 H 0.28835 0.17563 0.631 0.0
H1278 H 0.26907 0.12901 0.59006 0.0
H1279 H 0.3115 0.12122 0.64368 0.0
H1280 H 0.32207 0.11929 0.67943 0.0
H1281 H 0.28779 0.07515 0.69035 0.0
H1282 H 0.27682 0.07698 0.65472 0.0
H1283 H 0.31664 0.04309 0.55999 0.0
H1284 H 0.31299 0.06811 0.58331 0.0
H1285 H 0.25702 0.06825 0.57154 0.0
H1286 H 0.26052 0.04321 0.54811 0.0
H1287 H 0.29361 0.07346 0.6186 0.0
H1288 H 0.24444 0.11151 0.56737 0.0
H1289 H 0.23663 0.11416 0.53068 0.0
H1290 H 0.28931 0.09935 0.51356 0.0
H1291 H 0.29748 0.09682 0.55013 0.0
C1292 C 0.26366 0.14687 0.65929 0.0
C1293 C 0.27176 0.16287 0.6537 0.0
C1294 C 0.26631 0.13165 0.64753 0.0
C1295 C 0.27693 0.13222 0.62985 0.0
C1296 C 0.28482 0.14822 0.62408 0.0
C1297 C 0.28226 0.1634 0.63589 0.0
C1298 C 0.27947 0.11625 0.61704 0.0
C1299 C 0.27439 0.11686 0.59633 0.0
C1300 C 0.28666 0.10048 0.62515 0.0
C1301 C 0.2932 0.09936 0.64659 0.0
C1302 C 0.30609 0.11121 0.65376 0.0
C1303 C 0.31218 0.11011 0.67399 0.0
C1304 C 0.30557 0.09714 0.68717 0.0
C1305 C 0.29288 0.08521 0.68013 0.0
C1306 C 0.28673 0.08626 0.65991 0.0
C1307 C 0.30352 0.04833 0.56247 0.0
C1308 C 0.28888 0.04123 0.55208 0.0
C1309 C 0.30146 0.06258 0.57587 0.0
C1310 C 0.28478 0.0701 0.57899 0.0
C1311 C 0.27004 0.06271 0.56917 0.0
C1312 C 0.27206 0.04839 0.55584 0.0
C1313 C 0.28294 0.08618 0.59175 0.0
C1314 C 0.28817 0.08559 0.61242 0.0
C1315 C 0.27621 0.10209 0.58352 0.0
C1316 C 0.2715 0.1038 0.56148 0.0
C1317 C 0.25436 0.10888 0.55577 0.0
C1318 C 0.24987 0.11034 0.535 0.0
C1319 C 0.26245 0.10686 0.5198 0.0
C1320 C 0.27956 0.10197 0.52534 0.0
C1321 C 0.28412 0.10049 0.54609 0.0
H1322 H 0.25894 0.108 0.50373 0.0
H1323 H 0.31031 0.0963 0.70283 0.0
H1324 H 0.84887 0.35166 0.64296 0.0
H1325 H 0.87772 0.35381 0.62606 0.0
H1326 H 0.87118 0.3012 0.6018 0.0
H1327 H 0.84257 0.29888 0.61899 0.0
H1328 H 0.90397 0.30592 0.6163 0.0
H1329 H 0.8635 0.33859 0.57256 0.0
H1330 H 0.84178 0.36204 0.56548 0.0
H1331 H 0.87951 0.40144 0.58332 0.0
H1332 H 0.90139 0.37818 0.59075 0.0
H1333 H 0.96055 0.29889 0.53243 0.0
H1334 H 0.93536 0.30125 0.5554 0.0
H1335 H 0.94976 0.35496 0.5698 0.0
H1336 H 0.97489 0.35285 0.54606 0.0
H1337 H 0.91541 0.35266 0.56457 0.0
H1338 H 0.9571 0.32059 0.6044 0.0
H1339 H 0.97908 0.29743 0.61165 0.0
H1340 H 0.93976 0.25745 0.6023 0.0
H1341 H 0.91759 0.28035 0.59471 0.0
C1342 C 0.85369 0.34052 0.63415 0.0
C1343 C 0.84355 0.32505 0.63242 0.0
C1344 C 0.87011 0.3418 0.62442 0.0
C1345 C 0.87655 0.32771 0.61254 0.0
C1346 C 0.86651 0.31221 0.61095 0.0
C1347 C 0.85016 0.3109 0.62073 0.0
C1348 C 0.8936 0.32906 0.6014 0.0
C1349 C 0.90644 0.31607 0.60489 0.0
C1350 C 0.8971 0.34269 0.58708 0.0
C1351 C 0.884 0.35665 0.58241 0.0
C1352 C 0.86712 0.35225 0.5751 0.0
C1353 C 0.85479 0.3655 0.571 0.0
C1354 C 0.85924 0.38322 0.574 0.0
C1355 C 0.87607 0.38771 0.58103 0.0
C1356 C 0.88844 0.3745 0.58517 0.0
C1357 C 0.95846 0.31121 0.54052 0.0
C1358 C 0.96982 0.32565 0.53755 0.0
C1359 C 0.94407 0.31251 0.55377 0.0
C1360 C 0.94088 0.32814 0.56474 0.0
C1361 C 0.95204 0.34271 0.56161 0.0
C1362 C 0.96639 0.34149 0.54808 0.0
C1363 C 0.92559 0.32919 0.57901 0.0
C1364 C 0.9131 0.34264 0.57618 0.0
C1365 C 0.92245 0.31604 0.59406 0.0
C1366 C 0.9357 0.30221 0.59888 0.0
C1367 C 0.95316 0.30686 0.60378 0.0
C1368 C 0.96565 0.29377 0.60796 0.0
C1369 C 0.96083 0.27598 0.60741 0.0
C1370 C 0.94348 0.27124 0.60273 0.0
C1371 C 0.93094 0.28427 0.59852 0.0
H1372 H 0.97052 0.26587 0.61063 0.0
H1373 H 0.84968 0.39346 0.57083 0.0
H1374 H 0.77154 0.89212 0.68893 0.0
H1375 H 0.76167 0.91334 0.66303 0.0
H1376 H 0.74333 0.87047 0.62491 0.0
H1377 H 0.75382 0.84923 0.65041 0.0
H1378 H 0.76057 0.8924 0.6024 0.0
H1379 H 0.71442 0.89812 0.65162 0.0
H1380 H 0.70115 0.90255 0.68585 0.0
H1381 H 0.72403 0.95432 0.68919 0.0
H1382 H 0.73766 0.9501 0.65509 0.0
H1383 H 0.70296 0.96908 0.55739 0.0
H1384 H 0.7076 0.9455 0.58247 0.0
H1385 H 0.76382 0.94926 0.5732 0.0
H1386 H 0.75932 0.97262 0.54793 0.0
H1387 H 0.72415 0.94507 0.61831 0.0
H1388 H 0.78258 0.91 0.57753 0.0
H1389 H 0.79265 0.90303 0.54235 0.0
H1390 H 0.73929 0.90584 0.5206 0.0
H1391 H 0.72893 0.91294 0.55557 0.0
C1392 C 0.76534 0.88728 0.67504 0.0
C1393 C 0.7635 0.86904 0.67164 0.0
C1394 C 0.75958 0.89939 0.66032 0.0
C1395 C 0.75159 0.89352 0.64208 0.0
C1396 C 0.74948 0.87532 0.63884 0.0
C1397 C 0.7554 0.8632 0.65344 0.0
C1398 C 0.74619 0.90631 0.62598 0.0
C1399 C 0.75256 0.90388 0.60591 0.0
C1400 C 0.73541 0.9211 0.63037 0.0
C1401 C 0.72718 0.92373 0.65086 0.0
C1402 C 0.71673 0.9104 0.65971 0.0
C1403 C 0.70913 0.91288 0.67909 0.0
C1404 C 0.71178 0.92869 0.68971 0.0
C1405 C 0.722 0.94207 0.68095 0.0
C1406 C 0.72965 0.93965 0.66159 0.0
C1407 C 0.71632 0.96486 0.56065 0.0
C1408 C 0.73078 0.97272 0.55063 0.0
C1409 C 0.71894 0.9514 0.57502 0.0
C1410 C 0.73603 0.94549 0.57955 0.0
C1411 C 0.75049 0.9534 0.56968 0.0
C1412 C 0.74789 0.96683 0.55531 0.0
C1413 C 0.73887 0.93131 0.59492 0.0
C1414 C 0.73207 0.93352 0.61484 0.0
C1415 C 0.74883 0.91604 0.59028 0.0
C1416 C 0.75502 0.91215 0.56912 0.0
C1417 C 0.77301 0.90917 0.56521 0.0
C1418 C 0.77877 0.90524 0.5453 0.0
C1419 C 0.76663 0.90411 0.52921 0.0
C1420 C 0.7487 0.90692 0.53301 0.0
C1421 C 0.74289 0.91095 0.55286 0.0
H1422 H 0.77109 0.90099 0.51383 0.0
H1423 H 0.70588 0.93059 0.70471 0.0
H1424 H 0.85845 0.77066 0.64658 0.0
H1425 H 0.87945 0.76068 0.62049 0.0
H1426 H 0.91476 0.74296 0.6682 0.0
H1427 H 0.89404 0.7535 0.69433 0.0
H1428 H 0.9327 0.75949 0.64055 0.0
H1429 H 0.89021 0.71343 0.63887 0.0
H1430 H 0.86066 0.69997 0.63679 0.0
H1431 H 0.85366 0.72162 0.57637 0.0
H1432 H 0.88308 0.73544 0.57819 0.0
H1433 H 0.96576 0.69952 0.55067 0.0
H1434 H 0.94542 0.70522 0.57905 0.0
H1435 H 0.95363 0.76124 0.57192 0.0
H1436 H 0.97422 0.75566 0.54374 0.0
H1437 H 0.91496 0.72211 0.58144 0.0
H1438 H 0.95272 0.78093 0.61872 0.0
H1439 H 0.98344 0.79103 0.62292 0.0
H1440 H 0.00191 0.73776 0.61623 0.0
H1441 H 0.97132 0.72731 0.61238 0.0
C1442 C 0.8706 0.76442 0.65146 0.0
C1443 C 0.87439 0.76244 0.67246 0.0
C1444 C 0.88257 0.75869 0.63656 0.0
C1445 C 0.89855 0.75075 0.64237 0.0
C1446 C 0.90246 0.74892 0.66335 0.0
C1447 C 0.89055 0.75481 0.67826 0.0
C1448 C 0.91143 0.74497 0.62652 0.0
C1449 C 0.92882 0.75128 0.62766 0.0
C1450 C 0.90651 0.7339 0.60994 0.0
C1451 C 0.88881 0.7256 0.60874 0.0
C1452 C 0.88232 0.71544 0.6252 0.0
C1453 C 0.8656 0.70772 0.62405 0.0
C1454 C 0.85527 0.70997 0.60648 0.0
C1455 C 0.86167 0.71991 0.58998 0.0
C1456 C 0.87837 0.72767 0.59105 0.0
C1457 C 0.96325 0.71307 0.55513 0.0
C1458 C 0.97169 0.72714 0.54499 0.0
C1459 C 0.95158 0.71629 0.57132 0.0
C1460 C 0.94815 0.73363 0.57775 0.0
C1461 C 0.95631 0.74773 0.56744 0.0
C1462 C 0.96802 0.74452 0.55127 0.0
C1463 C 0.93604 0.73702 0.59523 0.0
C1464 C 0.91882 0.73027 0.59438 0.0
C1465 C 0.94126 0.74722 0.61241 0.0
C1466 C 0.95971 0.75337 0.61506 0.0
C1467 C 0.96333 0.77137 0.61826 0.0
C1468 C 0.98073 0.77715 0.62057 0.0
C1469 C 0.99463 0.76505 0.61979 0.0
C1470 C 0.99115 0.74713 0.61678 0.0
C1471 C 0.97378 0.74127 0.61451 0.0
H1472 H 0.00809 0.76956 0.62155 0.0
H1473 H 0.84233 0.70399 0.60562 0.0
H1474 H 0.32084 0.82631 0.62054 0.0
H1475 H 0.33028 0.85469 0.60609 0.0
H1476 H 0.2772 0.87456 0.6122 0.0
H1477 H 0.26771 0.84622 0.62638 0.0
H1478 H 0.29013 0.88053 0.57454 0.0
H1479 H 0.31043 0.88794 0.64441 0.0
H1480 H 0.32729 0.87992 0.67542 0.0
H1481 H 0.37564 0.88288 0.64115 0.0
H1482 H 0.35903 0.89069 0.60985 0.0
H1483 H 0.29426 0.97022 0.56264 0.0
H1484 H 0.29385 0.94239 0.58129 0.0
H1485 H 0.34597 0.93021 0.5588 0.0
H1486 H 0.34653 0.95835 0.5399 0.0
H1487 H 0.33741 0.91908 0.6023 0.0
H1488 H 0.31703 0.91343 0.53281 0.0
H1489 H 0.29997 0.92264 0.50238 0.0
H1490 H 0.25171 0.91642 0.53622 0.0
H1491 H 0.2685 0.90751 0.56698 0.0
C1492 C 0.31129 0.83686 0.61908 0.0
C1493 C 0.29358 0.83416 0.62482 0.0
C1494 C 0.31668 0.85304 0.61085 0.0
C1495 C 0.30446 0.86678 0.6082 0.0
C1496 C 0.28685 0.86414 0.61413 0.0
C1497 C 0.28145 0.848 0.62232 0.0
C1498 C 0.30967 0.88363 0.59831 0.0
C1499 C 0.30041 0.88897 0.58072 0.0
C1500 C 0.32349 0.89439 0.60593 0.0
C1501 C 0.33347 0.88969 0.62473 0.0
C1502 C 0.32465 0.88672 0.64344 0.0
C1503 C 0.33416 0.88225 0.66108 0.0
C1504 C 0.35252 0.88083 0.66024 0.0
C1505 C 0.36141 0.88394 0.64177 0.0
C1506 C 0.35196 0.88841 0.62408 0.0
C1507 C 0.30582 0.96183 0.56194 0.0
C1508 C 0.32032 0.96632 0.54953 0.0
C1509 C 0.30557 0.94596 0.57267 0.0
C1510 C 0.31976 0.93419 0.57113 0.0
C1511 C 0.33489 0.93917 0.56011 0.0
C1512 C 0.33519 0.95521 0.54934 0.0
C1513 C 0.31754 0.91602 0.57899 0.0
C1514 C 0.32735 0.91044 0.59604 0.0
C1515 C 0.30424 0.90494 0.57088 0.0
C1516 C 0.29405 0.90991 0.55225 0.0
C1517 C 0.30279 0.91414 0.53381 0.0
C1518 C 0.29317 0.9193 0.5165 0.0
C1519 C 0.27477 0.92013 0.51738 0.0
C1520 C 0.26596 0.91577 0.53556 0.0
C1521 C 0.27553 0.91065 0.55294 0.0
H1522 H 0.26735 0.92412 0.50396 0.0
H1523 H 0.35986 0.87737 0.67392 0.0
H1524 H 0.11919 0.30556 0.69231 0.0
H1525 H 0.10475 0.30759 0.65878 0.0
H1526 H 0.10304 0.25078 0.65492 0.0
H1527 H 0.1175 0.24868 0.68855 0.0
H1528 H 0.11204 0.26771 0.61708 0.0
H1529 H 0.0678 0.27062 0.67006 0.0
H1530 H 0.05453 0.28199 0.70204 0.0
H1531 H 0.05093 0.33373 0.67548 0.0
H1532 H 0.06446 0.32273 0.64344 0.0
H1533 H 0.04361 0.26464 0.54062 0.0
H1534 H 0.06203 0.26009 0.5711 0.0
H1535 H 0.06237 0.3162 0.58232 0.0
H1536 H 0.04402 0.32088 0.55209 0.0
H1537 H 0.05395 0.29792 0.61652 0.0
H1538 H 0.0995 0.2968 0.56541 0.0
H1539 H 0.11424 0.2872 0.53357 0.0
H1540 H 0.11588 0.2339 0.55594 0.0
H1541 H 0.10116 0.24325 0.58804 0.0
C1542 C 0.11603 0.29352 0.68413 0.0
C1543 C 0.11967 0.27697 0.6929 0.0
C1544 C 0.10774 0.29468 0.66505 0.0
C1545 C 0.10276 0.27933 0.65447 0.0
C1546 C 0.10687 0.26277 0.66282 0.0
C1547 C 0.11512 0.26159 0.68199 0.0
C1548 C 0.09222 0.28067 0.6354 0.0
C1549 C 0.09922 0.27406 0.61697 0.0
C1550 C 0.07566 0.28928 0.63526 0.0
C1551 C 0.06729 0.29588 0.65441 0.0
C1552 C 0.0643 0.28445 0.67109 0.0
C1553 C 0.05671 0.29082 0.68922 0.0
C1554 C 0.05192 0.30858 0.69081 0.0
C1555 C 0.05466 0.31999 0.67424 0.0
C1556 C 0.06228 0.31368 0.65608 0.0
C1557 C 0.04771 0.27601 0.54951 0.0
C1558 C 0.04227 0.29311 0.54397 0.0
C1559 C 0.05829 0.2734 0.56686 0.0
C1560 C 0.06358 0.28782 0.57894 0.0
C1561 C 0.05839 0.30489 0.57324 0.0
C1562 C 0.04792 0.30752 0.55591 0.0
C1563 C 0.07384 0.28517 0.59808 0.0
C1564 C 0.06673 0.29148 0.61659 0.0
C1565 C 0.09032 0.27642 0.59824 0.0
C1566 C 0.09906 0.27068 0.57899 0.0
C1567 C 0.10288 0.28301 0.56347 0.0
C1568 C 0.11128 0.27762 0.5454 0.0
C1569 C 0.1159 0.25992 0.54265 0.0
C1570 C 0.11224 0.2476 0.55806 0.0
C1571 C 0.10393 0.25295 0.57623 0.0
H1572 H 0.12235 0.25578 0.52861 0.0
H1573 H 0.04605 0.31349 0.70486 0.0
H1574 H 0.73909 0.18084 0.61903 0.0
H1575 H 0.73476 0.15083 0.60615 0.0
H1576 H 0.6784 0.15705 0.61184 0.0
H1577 H 0.68272 0.18711 0.62502 0.0
H1578 H 0.68873 0.12407 0.6235 0.0
H1579 H 0.69743 0.16212 0.56634 0.0
H1580 H 0.71175 0.18469 0.54474 0.0
H1581 H 0.75775 0.15198 0.5391 0.0
H1582 H 0.74387 0.12937 0.56104 0.0
H1583 H 0.6733 0.05224 0.55045 0.0
H1584 H 0.67279 0.0802 0.56958 0.0
H1585 H 0.72957 0.07942 0.57317 0.0
H1586 H 0.73025 0.05168 0.55435 0.0
H1587 H 0.71574 0.11016 0.55592 0.0
H1588 H 0.70642 0.07256 0.61506 0.0
H1589 H 0.69067 0.04995 0.63523 0.0
H1590 H 0.6439 0.0819 0.63494 0.0
H1591 H 0.65931 0.1046 0.6145 0.0
C1592 C 0.7258 0.17569 0.61786 0.0
C1593 C 0.71125 0.18624 0.62317 0.0
C1594 C 0.72332 0.1586 0.61039 0.0
C1595 C 0.70624 0.15179 0.60778 0.0
C1596 C 0.69169 0.16205 0.61374 0.0
C1597 C 0.69416 0.17918 0.62126 0.0
C1598 C 0.70368 0.1343 0.59795 0.0
C1599 C 0.69443 0.12108 0.6086 0.0
C1600 C 0.71113 0.1304 0.5785 0.0
C1601 C 0.71967 0.14412 0.56556 0.0
C1602 C 0.71069 0.15982 0.56071 0.0
C1603 C 0.71872 0.17261 0.54837 0.0
C1604 C 0.73567 0.16979 0.5406 0.0
C1605 C 0.74464 0.15417 0.54517 0.0
C1606 C 0.7367 0.14137 0.55757 0.0
C1607 C 0.68564 0.05787 0.55566 0.0
C1608 C 0.70182 0.0498 0.5507 0.0
C1609 C 0.68532 0.07382 0.5666 0.0
C1610 C 0.70116 0.08188 0.57267 0.0
C1611 C 0.71721 0.07344 0.56852 0.0
C1612 C 0.71755 0.05755 0.55776 0.0
C1613 C 0.70135 0.0998 0.58176 0.0
C1614 C 0.71003 0.11317 0.57082 0.0
C1615 C 0.69321 0.10382 0.60076 0.0
C1616 C 0.68396 0.09018 0.61304 0.0
C1617 C 0.69273 0.07469 0.61912 0.0
C1618 C 0.68387 0.06187 0.63064 0.0
C1619 C 0.66628 0.06446 0.6363 0.0
C1620 C 0.65752 0.0799 0.63051 0.0
C1621 C 0.66631 0.09275 0.61896 0.0
H1622 H 0.65945 0.05452 0.64523 0.0
H1623 H 0.74185 0.17969 0.531 0.0
H1624 H 0.85669 0.24736 0.36196 0.0
H1625 H 0.88492 0.25298 0.379 0.0
H1626 H 0.87447 0.30896 0.37753 0.0
H1627 H 0.84599 0.30335 0.36121 0.0
H1628 H 0.91432 0.27061 0.36988 0.0
H1629 H 0.88984 0.32797 0.42099 0.0
H1630 H 0.8621 0.33894 0.43623 0.0
H1631 H 0.84092 0.28637 0.436 0.0
H1632 H 0.86861 0.27507 0.42105 0.0
H1633 H 0.96876 0.32388 0.45162 0.0
H1634 H 0.9442 0.32047 0.42771 0.0
H1635 H 0.95041 0.26391 0.42967 0.0
H1636 H 0.97511 0.26717 0.45351 0.0
H1637 H 0.9134 0.3039 0.43556 0.0
H1638 H 0.93703 0.24659 0.38339 0.0
H1639 H 0.96475 0.23506 0.36874 0.0
H1640 H 0.98789 0.2867 0.37214 0.0
H1641 H 0.96023 0.2986 0.38652 0.0
C1642 C 0.86056 0.26087 0.36505 0.0
C1643 C 0.84926 0.27492 0.36 0.0
C1644 C 0.87668 0.26407 0.37474 0.0
C1645 C 0.88174 0.28137 0.3797 0.0
C1646 C 0.87073 0.29548 0.37409 0.0
C1647 C 0.85453 0.29227 0.3646 0.0
C1648 C 0.89807 0.28453 0.3917 0.0
C1649 C 0.91411 0.27776 0.38433 0.0
C1650 C 0.89784 0.29414 0.41037 0.0
C1651 C 0.88122 0.30073 0.41968 0.0
C1652 C 0.87928 0.31876 0.42427 0.0
C1653 C 0.86357 0.32503 0.43285 0.0
C1654 C 0.84973 0.31337 0.43701 0.0
C1655 C 0.85162 0.2954 0.4327 0.0
C1656 C 0.86731 0.28906 0.42416 0.0
C1657 C 0.96506 0.3107 0.4468 0.0
C1658 C 0.97386 0.29578 0.45454 0.0
C1659 C 0.95099 0.3088 0.43315 0.0
C1660 C 0.94553 0.29196 0.42685 0.0
C1661 C 0.95456 0.27704 0.43413 0.0
C1662 C 0.96862 0.27893 0.44783 0.0
C1663 C 0.92966 0.28996 0.41378 0.0
C1664 C 0.91366 0.2969 0.42101 0.0
C1665 C 0.92995 0.28041 0.39508 0.0
C1666 C 0.9466 0.27344 0.38623 0.0
C1667 C 0.94801 0.2555 0.38094 0.0
C1668 C 0.96372 0.2489 0.37269 0.0
C1669 C 0.97809 0.26013 0.36957 0.0
C1670 C 0.97677 0.278 0.37464 0.0
C1671 C 0.96109 0.28467 0.38287 0.0
H1672 H 0.99024 0.25499 0.3632 0.0
H1673 H 0.83757 0.31826 0.44363 0.0
H1674 H 0.664 0.85403 0.36859 0.0
H1675 H 0.66413 0.87915 0.39236 0.0
H1676 H 0.71526 0.89474 0.36962 0.0
H1677 H 0.71508 0.86984 0.3456 0.0
H1678 H 0.71259 0.8943 0.41305 0.0
H1679 H 0.68117 0.91688 0.35435 0.0
H1680 H 0.65788 0.91664 0.32793 0.0
H1681 H 0.61815 0.91855 0.37498 0.0
H1682 H 0.64122 0.91853 0.40171 0.0
H1683 H 0.72214 0.97842 0.45403 0.0
H1684 H 0.71852 0.95465 0.42921 0.0
H1685 H 0.66546 0.94582 0.45091 0.0
H1686 H 0.66886 0.9701 0.47564 0.0
H1687 H 0.66773 0.94193 0.40926 0.0
H1688 H 0.6985 0.92053 0.46797 0.0
H1689 H 0.72136 0.92136 0.49478 0.0
H1690 H 0.76172 0.91619 0.4488 0.0
H1691 H 0.73907 0.91585 0.4216 0.0
C1692 C 0.67533 0.86274 0.36882 0.0
C1693 C 0.68971 0.8597 0.35562 0.0
C1694 C 0.67534 0.87712 0.38228 0.0
C1695 C 0.68971 0.88876 0.38273 0.0
C1696 C 0.7041 0.88581 0.36958 0.0
C1697 C 0.70401 0.87155 0.35594 0.0
C1698 C 0.68979 0.90402 0.39697 0.0
C1699 C 0.70292 0.90482 0.41209 0.0
C1700 C 0.6768 0.91742 0.39608 0.0
C1701 C 0.66292 0.91751 0.38003 0.0
C1702 C 0.66746 0.91709 0.35907 0.0
C1703 C 0.6543 0.91703 0.34404 0.0
C1704 C 0.63655 0.91753 0.34977 0.0
C1705 C 0.63191 0.91814 0.37056 0.0
C1706 C 0.64502 0.91817 0.38566 0.0
C1707 C 0.70963 0.97154 0.45346 0.0
C1708 C 0.69586 0.97597 0.467 0.0
C1709 C 0.70759 0.95793 0.43925 0.0
C1710 C 0.69187 0.94819 0.43853 0.0
C1711 C 0.67774 0.95311 0.45131 0.0
C1712 C 0.67971 0.96694 0.46545 0.0
C1713 C 0.69071 0.93234 0.42517 0.0
C1714 C 0.67737 0.93138 0.41029 0.0
C1715 C 0.70342 0.91866 0.42638 0.0
C1716 C 0.71708 0.91831 0.44272 0.0
C1717 C 0.71225 0.91966 0.46355 0.0
C1718 C 0.72518 0.92005 0.47883 0.0
C1719 C 0.743 0.91882 0.47351 0.0
C1720 C 0.74791 0.91716 0.45289 0.0
C1721 C 0.73503 0.91688 0.43753 0.0
H1722 H 0.753 0.91917 0.48536 0.0
H1723 H 0.62638 0.91749 0.33811 0.0
H1724 H 0.15903 0.76428 0.35891 0.0
H1725 H 0.13205 0.76085 0.37922 0.0
H1726 H 0.13471 0.70438 0.37111 0.0
H1727 H 0.16194 0.70774 0.35121 0.0
H1728 H 0.09991 0.74756 0.37162 0.0
H1729 H 0.12063 0.68428 0.41494 0.0
H1730 H 0.14779 0.66914 0.42614 0.0
H1731 H 0.17524 0.7187 0.42772 0.0
H1732 H 0.1482 0.73415 0.41682 0.0
H1733 H 0.04449 0.69436 0.45223 0.0
H1734 H 0.06865 0.69701 0.42756 0.0
H1735 H 0.06818 0.75359 0.435 0.0
H1736 H 0.04386 0.7511 0.45953 0.0
H1737 H 0.10127 0.70967 0.43379 0.0
H1738 H 0.08107 0.77292 0.38989 0.0
H1739 H 0.05401 0.78847 0.37919 0.0
H1740 H 0.02547 0.73951 0.37954 0.0
H1741 H 0.05241 0.72364 0.38996 0.0
C1742 C 0.15371 0.75116 0.36125 0.0
C1743 C 0.16243 0.7363 0.35324 0.0
C1744 C 0.13831 0.74922 0.37283 0.0
C1745 C 0.13143 0.73236 0.3768 0.0
C1746 C 0.13989 0.71751 0.36842 0.0
C1747 C 0.15535 0.71944 0.35693 0.0
C1748 C 0.1158 0.73033 0.39032 0.0
C1749 C 0.10024 0.73942 0.38533 0.0
C1750 C 0.11615 0.71945 0.408 0.0
C1751 C 0.13244 0.71033 0.41483 0.0
C1752 C 0.13245 0.69195 0.41774 0.0
C1753 C 0.14782 0.68331 0.42404 0.0
C1754 C 0.16324 0.69295 0.42757 0.0
C1755 C 0.16331 0.71124 0.4249 0.0
C1756 C 0.14797 0.71994 0.41864 0.0
C1757 C 0.04941 0.7074 0.44851 0.0
C1758 C 0.04224 0.72253 0.45786 0.0
C1759 C 0.06326 0.70887 0.43444 0.0
C1760 C 0.07013 0.72549 0.42933 0.0
C1761 C 0.0629 0.74065 0.43848 0.0
C1762 C 0.04904 0.73919 0.45257 0.0
C1763 C 0.08536 0.72689 0.4151 0.0
C1764 C 0.10088 0.71772 0.42 0.0
C1765 C 0.08498 0.73776 0.39742 0.0
C1766 C 0.06873 0.74713 0.39091 0.0
C1767 C 0.06904 0.76547 0.38761 0.0
C1768 C 0.05372 0.77434 0.3816 0.0
C1769 C 0.03802 0.76499 0.37876 0.0
C1770 C 0.03762 0.74674 0.38184 0.0
C1771 C 0.05291 0.73781 0.38782 0.0
H1772 H 0.02617 0.77188 0.37412 0.0
H1773 H 0.17513 0.68623 0.43242 0.0
H1774 H 0.31185 0.12806 0.32288 0.0
H1775 H 0.32337 0.10848 0.34958 0.0
H1776 H 0.28921 0.13324 0.39422 0.0
H1777 H 0.27834 0.15339 0.36777 0.0
H1778 H 0.31893 0.12616 0.41174 0.0
H1779 H 0.27868 0.09343 0.36924 0.0
H1780 H 0.26697 0.08117 0.3369 0.0
H1781 H 0.31515 0.05247 0.32749 0.0
H1782 H 0.32724 0.06476 0.35967 0.0
H1783 H 0.29652 0.05633 0.47931 0.0
H1784 H 0.29756 0.07908 0.45275 0.0
H1785 H 0.3448 0.05572 0.42774 0.0
H1786 H 0.3441 0.033 0.45481 0.0
H1787 H 0.3142 0.06171 0.39933 0.0
H1788 H 0.35145 0.09229 0.44708 0.0
H1789 H 0.35967 0.10365 0.48127 0.0
H1790 H 0.31286 0.13553 0.48266 0.0
H1791 H 0.30425 0.12421 0.44856 0.0
C1792 C 0.30697 0.12944 0.33845 0.0
C1793 C 0.29405 0.14212 0.34321 0.0
C1794 C 0.31349 0.11819 0.35368 0.0
C1795 C 0.30692 0.11913 0.37385 0.0
C1796 C 0.29448 0.13221 0.37877 0.0
C1797 C 0.28817 0.14364 0.36364 0.0
C1798 C 0.31226 0.10601 0.38966 0.0
C1799 C 0.31786 0.11208 0.40899 0.0
C1800 C 0.31117 0.08758 0.38606 0.0
C1801 C 0.30395 0.08019 0.36671 0.0
C1802 C 0.28683 0.08462 0.36018 0.0
C1803 C 0.28012 0.07765 0.3419 0.0
C1804 C 0.29033 0.0661 0.33011 0.0
C1805 C 0.30727 0.06146 0.33661 0.0
C1806 C 0.31406 0.06842 0.35487 0.0
C1807 C 0.30726 0.05615 0.46831 0.0
C1808 C 0.3202 0.0429 0.46903 0.0
C1809 C 0.30787 0.06918 0.45322 0.0
C1810 C 0.32127 0.06906 0.43838 0.0
C1811 C 0.33441 0.05602 0.43918 0.0
C1812 C 0.33402 0.04314 0.45462 0.0
C1813 C 0.32057 0.08192 0.42132 0.0
C1814 C 0.31571 0.07579 0.40182 0.0
C1815 C 0.32191 0.10026 0.42492 0.0
C1816 C 0.32717 0.10732 0.44529 0.0
C1817 C 0.34286 0.10165 0.45472 0.0
C1818 C 0.3476 0.1081 0.47408 0.0
C1819 C 0.33678 0.12029 0.48414 0.0
C1820 C 0.32123 0.12609 0.47484 0.0
C1821 C 0.31643 0.11969 0.45547 0.0
H1822 H 0.34047 0.12525 0.49913 0.0
H1823 H 0.28511 0.0607 0.31596 0.0
H1824 H 0.64426 0.78458 0.85174 0.0
H1825 H 0.6203 0.79922 0.87027 0.0
H1826 H 0.65588 0.81138 0.92003 0.0
H1827 H 0.67987 0.79652 0.9016 0.0
H1828 H 0.62607 0.79832 0.93454 0.0
H1829 H 0.6413 0.84388 0.88802 0.0
H1830 H 0.6484 0.85776 0.85476 0.0
H1831 H 0.59664 0.84527 0.83234 0.0
H1832 H 0.5893 0.83105 0.86536 0.0
H1833 H 0.55865 0.84879 0.98312 0.0
H1834 H 0.58576 0.84688 0.96244 0.0
H1835 H 0.55855 0.8147 0.91793 0.0
H1836 H 0.53173 0.81596 0.93895 0.0
H1837 H 0.58638 0.8427 0.90272 0.0
H1838 H 0.57537 0.79128 0.94763 0.0
H1839 H 0.56759 0.7796 0.98186 0.0
H1840 H 0.61242 0.80586 0.00812 0.0
H1841 H 0.62027 0.81796 0.97403 0.0
C1842 C 0.64701 0.79061 0.86649 0.0
C1843 C 0.664 0.7897 0.87507 0.0
C1844 C 0.63334 0.79901 0.87705 0.0
C1845 C 0.63636 0.80667 0.8964 0.0
C1846 C 0.65329 0.80569 0.90505 0.0
C1847 C 0.66698 0.79727 0.8945 0.0
C1848 C 0.62157 0.8148 0.90799 0.0
C1849 C 0.61766 0.80829 0.92769 0.0
C1850 C 0.61047 0.82776 0.89909 0.0
C1851 C 0.6148 0.83626 0.87914 0.0
C1852 C 0.63147 0.84395 0.87594 0.0
C1853 C 0.63553 0.8519 0.85714 0.0
C1854 C 0.62299 0.85236 0.84144 0.0
C1855 C 0.60635 0.84489 0.84452 0.0
C1856 C 0.60222 0.83689 0.86329 0.0
C1857 C 0.55836 0.84184 0.96857 0.0
C1858 C 0.54324 0.83252 0.96251 0.0
C1859 C 0.57379 0.84075 0.95682 0.0
C1860 C 0.57405 0.83068 0.9387 0.0
C1861 C 0.5585 0.82265 0.93178 0.0
C1862 C 0.54326 0.82332 0.94379 0.0
C1863 C 0.59093 0.82596 0.92884 0.0
C1864 C 0.59512 0.83301 0.90955 0.0
C1865 C 0.60242 0.81365 0.93814 0.0
C1866 C 0.59829 0.80566 0.95838 0.0
C1867 C 0.58352 0.79462 0.96073 0.0
C1868 C 0.57909 0.78793 0.98008 0.0
C1869 C 0.58946 0.79206 0.99716 0.0
C1870 C 0.60438 0.80272 0.99487 0.0
C1871 C 0.60882 0.80949 0.97554 0.0
H1872 H 0.58591 0.78699 0.01215 0.0
H1873 H 0.62615 0.85854 0.82689 0.0
H1874 H 0.27647 0.62837 0.82367 0.0
H1875 H 0.2636 0.60294 0.85315 0.0
H1876 H 0.22717 0.64915 0.88851 0.0
H1877 H 0.2395 0.676 0.86016 0.0
H1878 H 0.24028 0.62723 0.9136 0.0
H1879 H 0.20981 0.60669 0.85455 0.0
H1880 H 0.20528 0.5981 0.81836 0.0
H1881 H 0.24426 0.55732 0.82445 0.0
H1882 H 0.2491 0.56577 0.86065 0.0
H1883 H 0.19843 0.55764 0.97094 0.0
H1884 H 0.20302 0.58061 0.94499 0.0
H1885 H 0.25074 0.55472 0.92513 0.0
H1886 H 0.24643 0.53185 0.95127 0.0
H1887 H 0.22657 0.56579 0.8926 0.0
H1888 H 0.25545 0.58807 0.95399 0.0
H1889 H 0.25627 0.59671 0.99053 0.0
H1890 H 0.21542 0.63488 0.97996 0.0
H1891 H 0.21417 0.62627 0.9434 0.0
C1892 C 0.2679 0.63234 0.83615 0.0
C1893 C 0.25676 0.6542 0.83654 0.0
C1894 C 0.25894 0.61641 0.85379 0.0
C1895 C 0.24287 0.62287 0.87294 0.0
C1896 C 0.23613 0.64563 0.87623 0.0
C1897 C 0.24436 0.66259 0.85932 0.0
C1898 C 0.23686 0.60951 0.88795 0.0
C1899 C 0.23691 0.61392 0.90891 0.0
C1900 C 0.23263 0.59205 0.88198 0.0
C1901 C 0.23001 0.58705 0.86018 0.0
C1902 C 0.2175 0.59597 0.84811 0.0
C1903 C 0.21485 0.5911 0.82762 0.0
C1904 C 0.22453 0.57722 0.81908 0.0
C1905 C 0.23682 0.56811 0.83106 0.0
C1906 C 0.2395 0.57292 0.85157 0.0
C1907 C 0.20985 0.55678 0.96097 0.0
C1908 C 0.22211 0.54298 0.96316 0.0
C1909 C 0.21246 0.56993 0.94623 0.0
C1910 C 0.22725 0.56936 0.93328 0.0
C1911 C 0.23926 0.55536 0.93504 0.0
C1912 C 0.23681 0.54237 0.95 0.0
C1913 C 0.23039 0.58349 0.91806 0.0
C1914 C 0.22977 0.5792 0.89713 0.0
C1915 C 0.23372 0.60112 0.92406 0.0
C1916 C 0.23457 0.60638 0.94601 0.0
C1917 C 0.24653 0.59819 0.9595 0.0
C1918 C 0.24709 0.60311 0.9802 0.0
C1919 C 0.23587 0.6163 0.98758 0.0
C1920 C 0.22409 0.62464 0.97424 0.0
C1921 C 0.22345 0.61976 0.95352 0.0
H1922 H 0.23632 0.62009 0.00362 0.0
H1923 H 0.22247 0.57348 0.80321 0.0
H1924 H 0.35718 0.24045 0.85945 0.0
H1925 H 0.38504 0.23066 0.87463 0.0
H1926 H 0.35703 0.19215 0.91099 0.0
H1927 H 0.32912 0.20191 0.89585 0.0
H1928 H 0.38073 0.21012 0.93377 0.0
H1929 H 0.38056 0.17891 0.87022 0.0
H1930 H 0.37799 0.17505 0.83273 0.0
H1931 H 0.42253 0.20914 0.82341 0.0
H1932 H 0.42519 0.21346 0.86086 0.0
H1933 H 0.46013 0.17064 0.96875 0.0
H1934 H 0.4327 0.17152 0.94873 0.0
H1935 H 0.4517 0.21726 0.91604 0.0
H1936 H 0.47886 0.2167 0.93627 0.0
H1937 H 0.43195 0.19168 0.89127 0.0
H1938 H 0.42913 0.22566 0.95458 0.0
H1939 H 0.43213 0.22909 0.99212 0.0
H1940 H 0.39306 0.18888 0.00166 0.0
H1941 H 0.39008 0.18498 0.96414 0.0
C1942 C 0.35701 0.22973 0.87045 0.0
C1943 C 0.34104 0.22159 0.87605 0.0
C1944 C 0.37291 0.22415 0.87912 0.0
C1945 C 0.37313 0.21046 0.89367 0.0
C1946 C 0.35717 0.20261 0.89965 0.0
C1947 C 0.34128 0.20813 0.89093 0.0
C1948 C 0.38997 0.20469 0.90305 0.0
C1949 C 0.3918 0.20577 0.92449 0.0
C1950 C 0.4045 0.19921 0.89092 0.0
C1951 C 0.40297 0.19664 0.86837 0.0
C1952 C 0.38972 0.18572 0.86018 0.0
C1953 C 0.38826 0.18342 0.83893 0.0
C1954 C 0.40006 0.19187 0.82569 0.0
C1955 C 0.41338 0.20262 0.83369 0.0
C1956 C 0.41488 0.20499 0.85493 0.0
C1957 C 0.45863 0.18055 0.95688 0.0
C1958 C 0.47149 0.19368 0.95409 0.0
C1959 C 0.44298 0.18107 0.94554 0.0
C1960 C 0.44021 0.19453 0.93106 0.0
C1961 C 0.45365 0.20677 0.92713 0.0
C1962 C 0.46909 0.20647 0.93873 0.0
C1963 C 0.42264 0.1973 0.92182 0.0
C1964 C 0.42073 0.19575 0.90048 0.0
C1965 C 0.40802 0.20231 0.93401 0.0
C1966 C 0.40955 0.20486 0.95656 0.0
C1967 C 0.4213 0.21744 0.96468 0.0
C1968 C 0.42298 0.21949 0.98595 0.0
C1969 C 0.41283 0.20917 0.99927 0.0
C1970 C 0.40094 0.19683 0.99133 0.0
C1971 C 0.39925 0.1947 0.97006 0.0
H1972 H 0.41416 0.21078 0.01573 0.0
H1973 H 0.39892 0.19007 0.80924 0.0
H1974 H 0.83406 0.35592 0.84769 0.0
H1975 H 0.83355 0.38304 0.86821 0.0
H1976 H 0.7809 0.37058 0.88889 0.0
H1977 H 0.78116 0.3438 0.8679 0.0
H1978 H 0.78323 0.40453 0.87969 0.0
H1979 H 0.81806 0.36314 0.91912 0.0
H1980 H 0.84264 0.34237 0.92475 0.0
H1981 H 0.87997 0.38362 0.9122 0.0
H1982 H 0.8556 0.40458 0.90624 0.0
H1983 H 0.77677 0.4587 0.96833 0.0
H1984 H 0.77781 0.43468 0.94329 0.0
H1985 H 0.83104 0.44931 0.92701 0.0
H1986 H 0.83028 0.47298 0.95249 0.0
H1987 H 0.82936 0.41541 0.93219 0.0
H1988 H 0.79482 0.45734 0.89468 0.0
H1989 H 0.77041 0.47827 0.88896 0.0
H1990 H 0.73279 0.43654 0.89748 0.0
H1991 H 0.75697 0.41539 0.90351 0.0
C1992 C 0.82237 0.35904 0.85656 0.0
C1993 C 0.80766 0.34775 0.85624 0.0
C1994 C 0.82211 0.37448 0.86834 0.0
C1995 C 0.80726 0.37874 0.8803 0.0
C1996 C 0.79249 0.36757 0.8798 0.0
C1997 C 0.79268 0.35225 0.8679 0.0
C1998 C 0.80707 0.39469 0.89355 0.0
C1999 C 0.79322 0.40684 0.89131 0.0
C2000 C 0.82037 0.39796 0.90832 0.0
C2001 C 0.83501 0.38538 0.91204 0.0
C2002 C 0.83151 0.36775 0.91743 0.0
C2003 C 0.8454 0.35595 0.9207 0.0
C2004 C 0.86285 0.36166 0.91878 0.0
C2005 C 0.86645 0.3792 0.91365 0.0
C2006 C 0.85261 0.39105 0.91034 0.0
C2007 C 0.78863 0.4569 0.95927 0.0
C2008 C 0.80345 0.46772 0.96241 0.0
C2009 C 0.78919 0.44321 0.94488 0.0
C2010 C 0.80444 0.44029 0.93307 0.0
C2011 C 0.81913 0.45129 0.93594 0.0
C2012 C 0.81866 0.46483 0.95049 0.0
C2013 C 0.80542 0.42523 0.91848 0.0
C2014 C 0.81942 0.41322 0.92047 0.0
C2015 C 0.79229 0.42213 0.90345 0.0
C2016 C 0.77771 0.43481 0.89971 0.0
C2017 C 0.78134 0.45265 0.89547 0.0
C2018 C 0.76754 0.46455 0.89215 0.0
C2019 C 0.75006 0.45875 0.8929 0.0
C2020 C 0.74634 0.44102 0.89692 0.0
C2021 C 0.76008 0.42907 0.90026 0.0
H2022 H 0.7394 0.46799 0.89033 0.0
H2023 H 0.87359 0.3525 0.92132 0.0
H2024 H 0.66995 0.16836 0.136 0.0
H2025 H 0.64113 0.16436 0.11958 0.0
H2026 H 0.63666 0.22074 0.11176 0.0
H2027 H 0.66519 0.22479 0.12857 0.0
H2028 H 0.60593 0.20702 0.12396 0.0
H2029 H 0.65025 0.19299 0.07245 0.0
H2030 H 0.67572 0.17648 0.05873 0.0
H2031 H 0.64683 0.12795 0.06424 0.0
H2032 H 0.62126 0.14418 0.07823 0.0
H2033 H 0.54988 0.22201 0.04081 0.0
H2034 H 0.57409 0.21897 0.06498 0.0
H2035 H 0.56804 0.16235 0.06401 0.0
H2036 H 0.54381 0.16527 0.03927 0.0
H2037 H 0.60188 0.17145 0.0601 0.0
H2038 H 0.5558 0.18637 0.10657 0.0
H2039 H 0.53028 0.20314 0.11968 0.0
H2040 H 0.56208 0.2499 0.12369 0.0
H2041 H 0.58774 0.2335 0.11033 0.0
C2042 C 0.6627 0.17988 0.13096 0.0
C2043 C 0.66974 0.19689 0.13367 0.0
C2044 C 0.64629 0.17758 0.1215 0.0
C2045 C 0.6368 0.19225 0.11429 0.0
C2046 C 0.64371 0.20924 0.11727 0.0
C2047 C 0.66002 0.21155 0.12681 0.0
C2048 C 0.61994 0.19004 0.10301 0.0
C2049 C 0.60505 0.19931 0.10995 0.0
C2050 C 0.61861 0.17948 0.08512 0.0
C2051 C 0.63394 0.16976 0.0766 0.0
C2052 C 0.64939 0.17879 0.07087 0.0
C2053 C 0.66383 0.16948 0.06302 0.0
C2054 C 0.66291 0.15117 0.06067 0.0
C2055 C 0.64753 0.14213 0.0661 0.0
C2056 C 0.63306 0.15137 0.07398 0.0
C2057 C 0.55354 0.20888 0.04581 0.0
C2058 C 0.54487 0.19387 0.0381 0.0
C2059 C 0.56736 0.20718 0.05978 0.0
C2060 C 0.57271 0.19045 0.06659 0.0
C2061 C 0.56404 0.1754 0.05905 0.0
C2062 C 0.5502 0.17709 0.04494 0.0
C2063 C 0.58801 0.18888 0.08069 0.0
C2064 C 0.60261 0.17889 0.07432 0.0
C2065 C 0.58906 0.19879 0.09911 0.0
C2066 C 0.57369 0.2087 0.10734 0.0
C2067 C 0.55733 0.20026 0.11013 0.0
C2068 C 0.54284 0.2097 0.11762 0.0
C2069 C 0.54456 0.22758 0.12249 0.0
C2070 C 0.56078 0.23605 0.11992 0.0
C2071 C 0.57531 0.22668 0.11242 0.0
H2072 H 0.53332 0.23486 0.12828 0.0
H2073 H 0.67411 0.14399 0.0546 0.0
H2074 H 0.74778 0.63717 0.17533 0.0
H2075 H 0.75062 0.61066 0.15387 0.0
H2076 H 0.78871 0.63754 0.11575 0.0
H2077 H 0.7857 0.66401 0.13687 0.0
H2078 H 0.7645 0.62173 0.0929 0.0
H2079 H 0.8009 0.60575 0.15072 0.0
H2080 H 0.80733 0.60029 0.18732 0.0
H2081 H 0.76729 0.56023 0.18915 0.0
H2082 H 0.76046 0.56563 0.1526 0.0
H2083 H 0.81273 0.55433 0.04294 0.0
H2084 H 0.8042 0.57723 0.06749 0.0
H2085 H 0.75814 0.54712 0.0843 0.0
H2086 H 0.76634 0.52424 0.05918 0.0
H2087 H 0.78186 0.56259 0.11858 0.0
H2088 H 0.74872 0.5767 0.05833 0.0
H2089 H 0.74383 0.5824 0.02151 0.0
H2090 H 0.77863 0.62702 0.02423 0.0
H2091 H 0.78445 0.62109 0.06082 0.0
C2092 C 0.75694 0.63727 0.16254 0.0
C2093 C 0.76677 0.65254 0.15798 0.0
C2094 C 0.75854 0.62215 0.1503 0.0
C2095 C 0.76997 0.62208 0.13329 0.0
C2096 C 0.77981 0.63729 0.1288 0.0
C2097 C 0.77819 0.65236 0.14096 0.0
C2098 C 0.77139 0.60645 0.11962 0.0
C2099 C 0.76841 0.60883 0.09851 0.0
C2100 C 0.77595 0.58949 0.12704 0.0
C2101 C 0.78001 0.58626 0.14901 0.0
C2102 C 0.79335 0.5959 0.15898 0.0
C2103 C 0.79709 0.59279 0.1797 0.0
C2104 C 0.78768 0.57997 0.19057 0.0
C2105 C 0.77454 0.57019 0.18072 0.0
C2106 C 0.77073 0.57326 0.16 0.0
C2107 C 0.80081 0.55253 0.0519 0.0
C2108 C 0.79017 0.53753 0.04914 0.0
C2109 C 0.79595 0.56562 0.06586 0.0
C2110 C 0.78055 0.56382 0.0776 0.0
C2111 C 0.77008 0.54868 0.07532 0.0
C2112 C 0.77473 0.53571 0.06095 0.0
C2113 C 0.77543 0.57808 0.0919 0.0
C2114 C 0.7777 0.57545 0.11307 0.0
C2115 C 0.77039 0.59489 0.08453 0.0
C2116 C 0.76724 0.59826 0.06232 0.0
C2117 C 0.75565 0.5875 0.051 0.0
C2118 C 0.75271 0.59078 0.03014 0.0
C2119 C 0.76107 0.60495 0.02046 0.0
C2120 C 0.77236 0.61589 0.03165 0.0
C2121 C 0.77551 0.61255 0.05246 0.0
H2122 H 0.75871 0.60753 0.00434 0.0
H2123 H 0.7906 0.57757 0.20661 0.0
H2124 H 0.33802 0.83939 0.13509 0.0
H2125 H 0.36176 0.83918 0.10946 0.0
H2126 H 0.39917 0.82518 0.15666 0.0
H2127 H 0.37556 0.82569 0.18232 0.0
H2128 H 0.41233 0.8503 0.13276 0.0
H2129 H 0.38371 0.79439 0.12265 0.0
H2130 H 0.35862 0.77447 0.11606 0.0
H2131 H 0.34959 0.79964 0.05789 0.0
H2132 H 0.37451 0.81988 0.06427 0.0
H2133 H 0.46585 0.80025 0.04908 0.0
H2134 H 0.44181 0.80226 0.07382 0.0
H2135 H 0.44086 0.85887 0.06664 0.0
H2136 H 0.46533 0.857 0.04208 0.0
H2137 H 0.40918 0.81296 0.07022 0.0
H2138 H 0.4276 0.87754 0.11211 0.0
H2139 H 0.45405 0.89511 0.12051 0.0
H2140 H 0.48594 0.84831 0.11834 0.0
H2141 H 0.45966 0.83044 0.11019 0.0
C2142 C 0.3513 0.83612 0.1399 0.0
C2143 C 0.35492 0.83225 0.16061 0.0
C2144 C 0.36483 0.83601 0.12529 0.0
C2145 C 0.38221 0.832 0.13111 0.0
C2146 C 0.38586 0.8283 0.15181 0.0
C2147 C 0.37236 0.82846 0.16642 0.0
C2148 C 0.39665 0.83165 0.1157 0.0
C2149 C 0.41162 0.84218 0.11905 0.0
C2150 C 0.39582 0.82092 0.09792 0.0
C2151 C 0.38085 0.80876 0.09404 0.0
C2152 C 0.37628 0.79577 0.10853 0.0
C2153 C 0.36211 0.78441 0.10482 0.0
C2154 C 0.35248 0.78582 0.08659 0.0
C2155 C 0.35704 0.79858 0.07202 0.0
C2156 C 0.37119 0.80999 0.07567 0.0
C2157 C 0.4606 0.81316 0.05277 0.0
C2158 C 0.46755 0.82848 0.04364 0.0
C2159 C 0.44678 0.81427 0.06688 0.0
C2160 C 0.43957 0.8307 0.07218 0.0
C2161 C 0.44638 0.84606 0.06301 0.0
C2162 C 0.46034 0.84497 0.04894 0.0
C2163 C 0.4249 0.83158 0.08729 0.0
C2164 C 0.40984 0.82119 0.08385 0.0
C2165 C 0.42583 0.84214 0.10521 0.0
C2166 C 0.4417 0.85271 0.11031 0.0
C2167 C 0.44026 0.871 0.11349 0.0
C2168 C 0.45521 0.88101 0.1182 0.0
C2169 C 0.47167 0.87284 0.11989 0.0
C2170 C 0.4732 0.85463 0.11695 0.0
C2171 C 0.45828 0.84456 0.11226 0.0
H2172 H 0.48324 0.88061 0.12352 0.0
H2173 H 0.34152 0.77701 0.08374 0.0
H2174 H 0.24851 0.39181 0.19652 0.0
H2175 H 0.23824 0.41152 0.16924 0.0
H2176 H 0.27084 0.38399 0.12536 0.0
H2177 H 0.28084 0.36389 0.15247 0.0
H2178 H 0.27485 0.42192 0.12664 0.0
H2179 H 0.22958 0.37723 0.12208 0.0
H2180 H 0.20599 0.35823 0.1359 0.0
H2181 H 0.17642 0.40405 0.15386 0.0
H2182 H 0.19997 0.42335 0.14041 0.0
H2183 H 0.24877 0.46277 0.03509 0.0
H2184 H 0.25557 0.44112 0.06166 0.0
H2185 H 0.21222 0.46052 0.09836 0.0
H2186 H 0.20476 0.4816 0.07117 0.0
H2187 H 0.21319 0.42684 0.10182 0.0
H2188 H 0.25705 0.4718 0.1079 0.0
H2189 H 0.28043 0.49206 0.09612 0.0
H2190 H 0.31249 0.44788 0.07835 0.0
H2191 H 0.2892 0.42736 0.08979 0.0
C2192 C 0.25321 0.38969 0.18099 0.0
C2193 C 0.26521 0.37603 0.17651 0.0
C2194 C 0.24737 0.401 0.16546 0.0
C2195 C 0.2537 0.39908 0.14532 0.0
C2196 C 0.26574 0.38558 0.14082 0.0
C2197 C 0.27137 0.3741 0.15625 0.0
C2198 C 0.24846 0.41171 0.12913 0.0
C2199 C 0.26143 0.42288 0.12098 0.0
C2200 C 0.23082 0.41332 0.12241 0.0
C2201 C 0.21663 0.40173 0.13044 0.0
C2202 C 0.21813 0.38326 0.12915 0.0
C2203 C 0.20475 0.37243 0.13688 0.0
C2204 C 0.18974 0.37992 0.14581 0.0
C2205 C 0.18806 0.39827 0.14697 0.0
C2206 C 0.20142 0.40915 0.13928 0.0
C2207 C 0.24068 0.46241 0.04883 0.0
C2208 C 0.22635 0.47397 0.05119 0.0
C2209 C 0.24463 0.45008 0.06407 0.0
C2210 C 0.2347 0.44946 0.0823 0.0
C2211 C 0.22013 0.46078 0.0845 0.0
C2212 C 0.21591 0.47285 0.069 0.0
C2213 C 0.23964 0.43708 0.09906 0.0
C2214 C 0.22663 0.42598 0.10743 0.0
C2215 C 0.25722 0.43575 0.10631 0.0
C2216 C 0.27131 0.44805 0.09954 0.0
C2217 C 0.26904 0.46641 0.10137 0.0
C2218 C 0.28228 0.47794 0.09476 0.0
C2219 C 0.29792 0.47126 0.08645 0.0
C2220 C 0.30037 0.45304 0.08478 0.0
C2221 C 0.28716 0.44145 0.09134 0.0
H2222 H 0.30815 0.48021 0.08134 0.0
H2223 H 0.17939 0.37152 0.15178 0.0
H2224 H 0.36795 0.20682 0.16198 0.0
H2225 H 0.38463 0.20814 0.1298 0.0
H2226 H 0.40975 0.25618 0.14997 0.0
H2227 H 0.39299 0.25497 0.18224 0.0
H2228 H 0.40077 0.25602 0.10722 0.0
H2229 H 0.43052 0.21933 0.15733 0.0
H2230 H 0.43208 0.19494 0.18235 0.0
H2231 H 0.41892 0.1578 0.1349 0.0
H2232 H 0.41699 0.18203 0.10966 0.0
H2233 H 0.47831 0.25267 0.04468 0.0
H2234 H 0.45612 0.25536 0.07191 0.0
H2235 H 0.43706 0.20305 0.05787 0.0
H2236 H 0.45949 0.2001 0.03118 0.0
H2237 H 0.44193 0.20583 0.09707 0.0
H2238 H 0.41313 0.24093 0.04641 0.0
H2239 H 0.41028 0.26457 0.02061 0.0
H2240 H 0.42003 0.30361 0.06711 0.0
H2241 H 0.4232 0.28017 0.09316 0.0
C2242 C 0.37674 0.21787 0.15936 0.0
C2243 C 0.37905 0.23088 0.17451 0.0
C2244 C 0.38628 0.21858 0.14102 0.0
C2245 C 0.39848 0.2322 0.1376 0.0
C2246 C 0.40032 0.24562 0.1523 0.0
C2247 C 0.39077 0.24491 0.1707 0.0
C2248 C 0.41041 0.2315 0.11958 0.0
C2249 C 0.40992 0.24517 0.10503 0.0
C2250 C 0.42201 0.21711 0.11656 0.0
C2251 C 0.42346 0.20251 0.13166 0.0
C2252 C 0.42784 0.20598 0.15226 0.0
C2253 C 0.4288 0.19218 0.16648 0.0
C2254 C 0.42556 0.17483 0.16023 0.0
C2255 C 0.42141 0.17125 0.13973 0.0
C2256 C 0.42039 0.185 0.12546 0.0
C2257 C 0.46925 0.24183 0.04729 0.0
C2258 C 0.47074 0.22611 0.03597 0.0
C2259 C 0.45653 0.24341 0.06278 0.0
C2260 C 0.44487 0.22942 0.06691 0.0
C2261 C 0.44598 0.21397 0.05508 0.0
C2262 C 0.45881 0.2123 0.03983 0.0
C2263 C 0.43232 0.23032 0.08444 0.0
C2264 C 0.43275 0.21669 0.09904 0.0
C2265 C 0.42055 0.24464 0.08731 0.0
C2266 C 0.41857 0.25878 0.07171 0.0
C2267 C 0.41481 0.25455 0.05112 0.0
C2268 C 0.41311 0.26791 0.03645 0.0
C2269 C 0.41501 0.28558 0.04221 0.0
C2270 C 0.41857 0.28992 0.06267 0.0
C2271 C 0.42031 0.2766 0.0774 0.0
H2272 H 0.41369 0.29591 0.03083 0.0
H2273 H 0.42631 0.16417 0.17126 0.0
H2274 H 0.79828 0.38376 0.18419 0.0
H2275 H 0.81541 0.4044 0.16331 0.0
H2276 H 0.8056 0.37251 0.10953 0.0
H2277 H 0.78932 0.35131 0.13062 0.0
H2278 H 0.8369 0.38634 0.10638 0.0
H2279 H 0.77919 0.4087 0.12289 0.0
H2280 H 0.75479 0.41771 0.14571 0.0
H2281 H 0.78818 0.45655 0.17393 0.0
H2282 H 0.81286 0.44759 0.15144 0.0
H2283 H 0.81941 0.44921 0.02797 0.0
H2284 H 0.82057 0.42624 0.05434 0.0
H2285 H 0.84869 0.46165 0.09458 0.0
H2286 H 0.84811 0.48459 0.06775 0.0
H2287 H 0.81418 0.44772 0.10852 0.0
H2288 H 0.86993 0.42791 0.08378 0.0
H2289 H 0.89162 0.41876 0.05763 0.0
H2290 H 0.85872 0.37494 0.04084 0.0
H2291 H 0.83669 0.38398 0.06669 0.0
C2292 C 0.80003 0.38101 0.16797 0.0
C2293 C 0.79211 0.36614 0.15893 0.0
C2294 C 0.80977 0.39285 0.15604 0.0
C2295 C 0.81141 0.39028 0.13474 0.0
C2296 C 0.80444 0.37487 0.12591 0.0
C2297 C 0.79499 0.36284 0.13791 0.0
C2298 C 0.81896 0.40428 0.12137 0.0
C2299 C 0.83194 0.39976 0.10684 0.0
C2300 C 0.81271 0.42191 0.12216 0.0
C2301 C 0.79792 0.42732 0.13569 0.0
C2302 C 0.78136 0.41907 0.13408 0.0
C2303 C 0.76748 0.42418 0.14693 0.0
C2304 C 0.76995 0.43766 0.16131 0.0
C2305 C 0.7863 0.44608 0.16282 0.0
C2306 C 0.80024 0.44099 0.15003 0.0
C2307 C 0.82633 0.45187 0.04221 0.0
C2308 C 0.8337 0.46856 0.04594 0.0
C2309 C 0.82704 0.43876 0.0572 0.0
C2310 C 0.83477 0.44226 0.07633 0.0
C2311 C 0.84283 0.45869 0.0798 0.0
C2312 C 0.84253 0.47172 0.06452 0.0
C2313 C 0.83184 0.42969 0.09337 0.0
C2314 C 0.81956 0.43444 0.10849 0.0
C2315 C 0.83836 0.41223 0.0927 0.0
C2316 C 0.85159 0.4067 0.07713 0.0
C2317 C 0.86724 0.41641 0.07441 0.0
C2318 C 0.87962 0.41122 0.05965 0.0
C2319 C 0.87654 0.39629 0.04756 0.0
C2320 C 0.86109 0.3865 0.05022 0.0
C2321 C 0.84866 0.39164 0.06495 0.0
H2322 H 0.88615 0.3923 0.03614 0.0
H2323 H 0.75919 0.4416 0.17124 0.0
H2324 H 0.66605 0.77779 0.14013 0.0
H2325 H 0.64276 0.78661 0.11618 0.0
H2326 H 0.60794 0.74768 0.14251 0.0
H2327 H 0.63105 0.73904 0.16683 0.0
H2328 H 0.61045 0.74762 0.09802 0.0
H2329 H 0.60105 0.78788 0.15498 0.0
H2330 H 0.61054 0.81045 0.17995 0.0
H2331 H 0.62454 0.84531 0.13053 0.0
H2332 H 0.61536 0.82284 0.10525 0.0
H2333 H 0.53026 0.77037 0.05183 0.0
H2334 H 0.55359 0.76333 0.07632 0.0
H2335 H 0.58083 0.81139 0.05994 0.0
H2336 H 0.55691 0.81894 0.03623 0.0
H2337 H 0.58334 0.80724 0.09884 0.0
H2338 H 0.5946 0.76933 0.04198 0.0
H2339 H 0.58733 0.74776 0.01486 0.0
H2340 H 0.57336 0.70954 0.06083 0.0
H2341 H 0.58027 0.73103 0.08818 0.0
C2342 C 0.65343 0.77112 0.14081 0.0
C2343 C 0.65042 0.75757 0.15516 0.0
C2344 C 0.64016 0.7762 0.12718 0.0
C2345 C 0.6237 0.76777 0.12764 0.0
C2346 C 0.62062 0.75425 0.14192 0.0
C2347 C 0.63381 0.74932 0.15573 0.0
C2348 C 0.60973 0.77291 0.11304 0.0
C2349 C 0.60432 0.76056 0.09832 0.0
C2350 C 0.60235 0.79004 0.11302 0.0
C2351 C 0.60768 0.80361 0.12823 0.0
C2352 C 0.60628 0.8003 0.14943 0.0
C2353 C 0.61158 0.81309 0.16365 0.0
C2354 C 0.61818 0.82929 0.15684 0.0
C2355 C 0.61944 0.83275 0.13579 0.0
C2356 C 0.61418 0.82 0.12151 0.0
C2357 C 0.54122 0.77944 0.05353 0.0
C2358 C 0.54185 0.79516 0.04217 0.0
C2359 C 0.55461 0.77536 0.06741 0.0
C2360 C 0.5692 0.78663 0.06967 0.0
C2361 C 0.56973 0.80248 0.05847 0.0
C2362 C 0.55609 0.80677 0.04493 0.0
C2363 C 0.58381 0.78186 0.0838 0.0
C2364 C 0.58942 0.79428 0.09843 0.0
C2365 C 0.59173 0.76492 0.08342 0.0
C2366 C 0.58776 0.75185 0.06708 0.0
C2367 C 0.58983 0.75637 0.04626 0.0
C2368 C 0.5858 0.74416 0.03087 0.0
C2369 C 0.57984 0.7273 0.03612 0.0
C2370 C 0.57796 0.72261 0.05678 0.0
C2371 C 0.58194 0.7348 0.07224 0.0
H2372 H 0.57671 0.71785 0.02418 0.0
H2373 H 0.62228 0.83916 0.16786 0.0
H2374 H 0.24819 0.67791 0.12357 0.0
H2375 H 0.2423 0.64784 0.11169 0.0
H2376 H 0.18707 0.66042 0.10538 0.0
H2377 H 0.19291 0.69051 0.11753 0.0
H2378 H 0.19198 0.62685 0.12052 0.0
H2379 H 0.21304 0.66195 0.06439 0.0
H2380 H 0.23337 0.68201 0.04624 0.0
H2381 H 0.27497 0.64382 0.0515 0.0
H2382 H 0.25495 0.62365 0.07002 0.0
H2383 H 0.1726 0.55731 0.04825 0.0
H2384 H 0.1755 0.58508 0.06727 0.0
H2385 H 0.23154 0.57643 0.0728 0.0
H2386 H 0.22882 0.54896 0.0536 0.0
H2387 H 0.22488 0.60833 0.05817 0.0
H2388 H 0.20335 0.57298 0.11435 0.0
H2389 H 0.18252 0.55297 0.13183 0.0
H2390 H 0.14126 0.59141 0.12552 0.0
H2391 H 0.1618 0.61156 0.10775 0.0
C2392 C 0.23475 0.67415 0.12002 0.0
C2393 C 0.22099 0.6865 0.12158 0.0
C2394 C 0.23141 0.65702 0.11315 0.0
C2395 C 0.21428 0.65197 0.10742 0.0
C2396 C 0.20038 0.66404 0.10975 0.0
C2397 C 0.20372 0.6812 0.11667 0.0
C2398 C 0.21115 0.63452 0.09775 0.0
C2399 C 0.19903 0.62283 0.10677 0.0
C2400 C 0.22047 0.62924 0.07991 0.0
C2401 C 0.23254 0.64137 0.0688 0.0
C2402 C 0.22656 0.65789 0.06185 0.0
C2403 C 0.23803 0.66927 0.05147 0.0
C2404 C 0.25547 0.66421 0.04777 0.0
C2405 C 0.26147 0.64774 0.05441 0.0
C2406 C 0.25007 0.63632 0.06485 0.0
C2407 C 0.18549 0.56121 0.0538 0.0
C2408 C 0.2005 0.55099 0.04928 0.0
C2409 C 0.18712 0.57705 0.06472 0.0
C2410 C 0.20374 0.58283 0.07148 0.0
C2411 C 0.2186 0.57229 0.06765 0.0
C2412 C 0.217 0.55656 0.05668 0.0
C2413 C 0.20602 0.60042 0.08118 0.0
C2414 C 0.21789 0.61225 0.07201 0.0
C2415 C 0.19641 0.60577 0.09879 0.0
C2416 C 0.18407 0.5937 0.10954 0.0
C2417 C 0.1898 0.57711 0.11654 0.0
C2418 C 0.17805 0.56575 0.12653 0.0
C2419 C 0.16057 0.5709 0.12973 0.0
C2420 C 0.1548 0.58743 0.123 0.0
C2421 C 0.1665 0.59883 0.11299 0.0
H2422 H 0.15149 0.56209 0.13747 0.0
H2423 H 0.26432 0.67303 0.03971 0.0
H2424 H 0.38438 0.74431 0.83132 0.0
H2425 H 0.40684 0.7544 0.85561 0.0
H2426 H 0.37123 0.79438 0.87812 0.0
H2427 H 0.34857 0.7842 0.85399 0.0
H2428 H 0.40763 0.80593 0.87132 0.0
H2429 H 0.3742 0.76019 0.90532 0.0
H2430 H 0.36073 0.73066 0.90799 0.0
H2431 H 0.41174 0.70661 0.90174 0.0
H2432 H 0.42549 0.73602 0.8987 0.0
H2433 H 0.45681 0.82383 0.96288 0.0
H2434 H 0.43398 0.81828 0.93706 0.0
H2435 H 0.45925 0.76905 0.92111 0.0
H2436 H 0.48148 0.77414 0.94749 0.0
H2437 H 0.42642 0.7635 0.92508 0.0
H2438 H 0.46037 0.80769 0.88979 0.0
H2439 H 0.47489 0.83654 0.88519 0.0
H2440 H 0.425 0.86278 0.89174 0.0
H2441 H 0.4102 0.83408 0.89664 0.0
C2442 C 0.38145 0.75542 0.84123 0.0
C2443 C 0.36487 0.76368 0.84049 0.0
C2444 C 0.39424 0.76113 0.85509 0.0
C2445 C 0.39063 0.77513 0.86856 0.0
C2446 C 0.37424 0.78365 0.86768 0.0
C2447 C 0.36136 0.77784 0.85391 0.0
C2448 C 0.4037 0.78012 0.88432 0.0
C2449 C 0.41164 0.79681 0.88329 0.0
C2450 C 0.40909 0.76799 0.89955 0.0
C2451 C 0.40085 0.7503 0.90161 0.0
C2452 C 0.38253 0.7486 0.90435 0.0
C2453 C 0.37484 0.73189 0.90596 0.0
C2454 C 0.38537 0.71677 0.90499 0.0
C2455 C 0.4036 0.71834 0.90247 0.0
C2456 C 0.41135 0.73502 0.90082 0.0
C2457 C 0.45751 0.8119 0.95373 0.0
C2458 C 0.47081 0.79936 0.95722 0.0
C2459 C 0.44453 0.80878 0.93891 0.0
C2460 C 0.44496 0.7933 0.927 0.0
C2461 C 0.45856 0.78103 0.93017 0.0
C2462 C 0.47128 0.78396 0.94523 0.0
C2463 C 0.43081 0.78929 0.91197 0.0
C2464 C 0.42253 0.77274 0.91319 0.0
C2465 C 0.42534 0.80148 0.89674 0.0
C2466 C 0.43421 0.81875 0.8938 0.0
C2467 C 0.45252 0.81962 0.89041 0.0
C2468 C 0.46079 0.83595 0.88772 0.0
C2469 C 0.45089 0.85149 0.88823 0.0
C2470 C 0.43267 0.85073 0.89138 0.0
C2471 C 0.42432 0.83444 0.8941 0.0
H2472 H 0.45732 0.86412 0.88614 0.0
H2473 H 0.37939 0.70384 0.90624 0.0
H2474 H 0.21825 0.36115 0.87557 0.0
H2475 H 0.2053 0.38123 0.90075 0.0
H2476 H 0.18117 0.41111 0.85178 0.0
H2477 H 0.19474 0.39136 0.82647 0.0
H2478 H 0.19598 0.43262 0.87684 0.0
H2479 H 0.15611 0.38547 0.88609 0.0
H2480 H 0.1462 0.35477 0.89093 0.0
H2481 H 0.17285 0.35258 0.94907 0.0
H2482 H 0.18317 0.38319 0.94445 0.0
H2483 H 0.16295 0.48714 0.95819 0.0
H2484 H 0.15916 0.46488 0.93094 0.0
H2485 H 0.19853 0.43213 0.95978 0.0
H2486 H 0.20272 0.45445 0.98648 0.0
H2487 H 0.168 0.41325 0.94204 0.0
H2488 H 0.21283 0.45837 0.92661 0.0
H2489 H 0.22197 0.48931 0.92149 0.0
H2490 H 0.18336 0.49517 0.87374 0.0
H2491 H 0.17379 0.46432 0.87885 0.0
C2492 C 0.21 0.37188 0.87021 0.0
C2493 C 0.20742 0.37463 0.84907 0.0
C2494 C 0.20246 0.38328 0.88461 0.0
C2495 C 0.19196 0.39754 0.87822 0.0
C2496 C 0.18913 0.40015 0.85711 0.0
C2497 C 0.19683 0.38884 0.84267 0.0
C2498 C 0.18527 0.41046 0.89357 0.0
C2499 C 0.1894 0.42838 0.89081 0.0
C2500 C 0.17672 0.40505 0.9119 0.0
C2501 C 0.17049 0.38663 0.91486 0.0
C2502 C 0.15996 0.37842 0.89986 0.0
C2503 C 0.15425 0.36103 0.90257 0.0
C2504 C 0.15891 0.35172 0.92029 0.0
C2505 C 0.16925 0.35981 0.93535 0.0
C2506 C 0.17501 0.37719 0.93271 0.0
C2507 C 0.17039 0.47496 0.95894 0.0
C2508 C 0.18317 0.47244 0.97427 0.0
C2509 C 0.16825 0.46231 0.94342 0.0
C2510 C 0.17859 0.44692 0.94341 0.0
C2511 C 0.19036 0.44387 0.95961 0.0
C2512 C 0.1928 0.45664 0.97477 0.0
C2513 C 0.17917 0.43506 0.92537 0.0
C2514 C 0.17401 0.41741 0.9277 0.0
C2515 C 0.18654 0.44071 0.90653 0.0
C2516 C 0.19244 0.45915 0.9033 0.0
C2517 C 0.20619 0.46631 0.91515 0.0
C2518 C 0.21146 0.48382 0.91224 0.0
C2519 C 0.20321 0.49422 0.89735 0.0
C2520 C 0.18971 0.48711 0.88531 0.0
C2521 C 0.18435 0.46962 0.88821 0.0
H2522 H 0.20731 0.50777 0.89511 0.0
H2523 H 0.15448 0.33826 0.92235 0.0
H2524 H 0.67456 0.21216 0.86575 0.0
H2525 H 0.64609 0.20952 0.88326 0.0
H2526 H 0.63529 0.2644 0.87072 0.0
H2527 H 0.66398 0.26718 0.85371 0.0
H2528 H 0.62849 0.25703 0.90952 0.0
H2529 H 0.61368 0.23052 0.84484 0.0
H2530 H 0.6173 0.20993 0.81577 0.0
H2531 H 0.61167 0.16584 0.8567 0.0
H2532 H 0.60824 0.18616 0.88607 0.0
H2533 H 0.54132 0.25286 0.94867 0.0
H2534 H 0.56617 0.25662 0.92504 0.0
H2535 H 0.58036 0.20193 0.93335 0.0
H2536 H 0.55525 0.19793 0.95635 0.0
H2537 H 0.58423 0.21054 0.89465 0.0
H2538 H 0.60166 0.23644 0.95934 0.0
H2539 H 0.59858 0.25654 0.98896 0.0
H2540 H 0.5999 0.30124 0.94842 0.0
H2541 H 0.60278 0.28137 0.91853 0.0
C2542 C 0.666 0.22358 0.86656 0.0
C2543 C 0.67142 0.23984 0.85828 0.0
C2544 C 0.64971 0.22206 0.87647 0.0
C2545 C 0.63844 0.23672 0.87808 0.0
C2546 C 0.64375 0.25291 0.86961 0.0
C2547 C 0.66009 0.25447 0.85983 0.0
C2548 C 0.62156 0.23539 0.88959 0.0
C2549 C 0.61866 0.24706 0.90601 0.0
C2550 C 0.60893 0.22212 0.88535 0.0
C2551 C 0.61083 0.20987 0.86768 0.0
C2552 C 0.61332 0.21643 0.84766 0.0
C2553 C 0.61532 0.20481 0.83113 0.0
C2554 C 0.61475 0.18659 0.83439 0.0
C2555 C 0.61212 0.17996 0.8542 0.0
C2556 C 0.61012 0.19152 0.87079 0.0
C2557 C 0.54969 0.24162 0.94537 0.0
C2558 C 0.54638 0.22513 0.95448 0.0
C2559 C 0.56392 0.2438 0.93192 0.0
C2560 C 0.57532 0.22963 0.92768 0.0
C2561 C 0.57177 0.21306 0.93638 0.0
C2562 C 0.55742 0.21081 0.94959 0.0
C2563 C 0.59125 0.23208 0.91466 0.0
C2564 C 0.59398 0.22061 0.898 0.0
C2565 C 0.60381 0.24546 0.91873 0.0
C2566 C 0.60226 0.25742 0.9367 0.0
C2567 C 0.60119 0.25055 0.95675 0.0
C2568 C 0.59949 0.2619 0.97358 0.0
C2569 C 0.599 0.28016 0.97057 0.0
C2570 C 0.60026 0.2871 0.95073 0.0
C2571 C 0.60194 0.2758 0.93384 0.0
H2572 H 0.59768 0.28892 0.98362 0.0
H2573 H 0.61631 0.17762 0.82157 0.0
H2574 H 0.83157 0.64288 0.83165 0.0
H2575 H 0.83851 0.62426 0.86134 0.0
H2576 H 0.78357 0.62386 0.87859 0.0
H2577 H 0.77654 0.64238 0.84885 0.0
H2578 H 0.80683 0.62824 0.91235 0.0
H2579 H 0.79906 0.59033 0.85315 0.0
H2580 H 0.80519 0.58036 0.81777 0.0
H2581 H 0.85945 0.57141 0.83353 0.0
H2582 H 0.85368 0.58161 0.86894 0.0
H2583 H 0.79519 0.5508 0.97028 0.0
H2584 H 0.79466 0.5743 0.94471 0.0
H2585 H 0.85044 0.56754 0.93427 0.0
H2586 H 0.85113 0.54393 0.96013 0.0
H2587 H 0.83054 0.56838 0.89808 0.0
H2588 H 0.83856 0.60342 0.95747 0.0
H2589 H 0.8335 0.61365 0.99295 0.0
H2590 H 0.78043 0.62821 0.97744 0.0
H2591 H 0.78511 0.61787 0.94185 0.0
C2592 C 0.82104 0.63906 0.842 0.0
C2593 C 0.80358 0.64434 0.83816 0.0
C2594 C 0.825 0.62839 0.85887 0.0
C2595 C 0.81154 0.6227 0.87212 0.0
C2596 C 0.79415 0.62826 0.86862 0.0
C2597 C 0.79016 0.63883 0.85166 0.0
C2598 C 0.81541 0.61009 0.8889 0.0
C2599 C 0.81189 0.61511 0.90925 0.0
C2600 C 0.82255 0.59317 0.88485 0.0
C2601 C 0.82599 0.58692 0.86362 0.0
C2602 C 0.81233 0.58638 0.84902 0.0
C2603 C 0.81573 0.58066 0.82897 0.0
C2604 C 0.83271 0.5753 0.82339 0.0
C2605 C 0.84631 0.5756 0.83786 0.0
C2606 C 0.84298 0.58134 0.85793 0.0
C2607 C 0.80739 0.55434 0.96265 0.0
C2608 C 0.8232 0.54547 0.96717 0.0
C2609 C 0.80707 0.56785 0.94812 0.0
C2610 C 0.82253 0.57272 0.93771 0.0
C2611 C 0.83839 0.56398 0.94221 0.0
C2612 C 0.83877 0.55056 0.957 0.0
C2613 C 0.82171 0.58642 0.92152 0.0
C2614 C 0.82573 0.5816 0.90124 0.0
C2615 C 0.81516 0.60354 0.92566 0.0
C2616 C 0.81216 0.60976 0.94702 0.0
C2617 C 0.82576 0.60867 0.96165 0.0
C2618 C 0.82298 0.61452 0.98177 0.0
C2619 C 0.80667 0.62157 0.98743 0.0
C2620 C 0.79307 0.62276 0.973 0.0
C2621 C 0.7958 0.61693 0.95284 0.0
H2622 H 0.80462 0.62617 0.00298 0.0
H2623 H 0.83532 0.57088 0.80786 0.0
loop_
_geom_bond_atom_site_label_1
_geom_bond_atom_site_label_2
_geom_bond_distance
_geom_bond_site_symmetry_2
_ccdc_geom_bond_type
C0 C1 1.560 . S
C0 H61 0.959 . S
C0 H62 0.959 . S
C0 H63 0.960 . S
C1 C0 1.560 . S
C1 O56 1.426 . S
C1 H60 0.980 . S
C2 C3 1.407 . S
C2 C7 1.418 . S
C2 O56 1.334 . S
C3 C2 1.407 . S
C3 C4 1.360 . S
C3 H64 0.929 . S
C4 C3 1.360 . S
C4 C5 1.401 . S
C4 C8 1.527 . S
C5 C4 1.401 . S
C5 C6 1.405 . S
C5 C38 1.587 . S
C6 C5 1.405 . S
C6 C7 1.332 . S
C6 C9 1.496 . S
C7 C2 1.418 . S
C7 C6 1.332 . S
C7 H65 0.929 . S
C8 C4 1.527 . S
C8 H66 0.959 . S
C8 H67 0.961 . S
C8 H68 0.961 . S
C9 C6 1.496 . S
C9 H69 0.960 . S
C9 H70 0.960 . S
C9 H71 0.961 . S
C10 C11 1.517 . S
C10 H73 0.961 . S
C10 H74 0.960 . S
C10 H75 0.959 . S
C11 C10 1.517 . S
C11 O59 1.468 . S
C11 H72 0.980 . S
C12 C13 1.349 . S
C12 C17 1.367 . S
C12 O59 1.408 . S
C13 C12 1.349 . S
C13 C14 1.407 . S
C13 H76 0.930 . S
C14 C13 1.407 . S
C14 C15 1.449 . S
C14 C18 1.535 . S
C15 C14 1.449 . S
C15 C16 1.384 . S
C15 C40 1.553 . S
C16 C15 1.384 . S
C16 C17 1.364 . S
C16 C19 1.450 . S
C17 C12 1.367 . S
C17 C16 1.364 . S
C17 H77 0.931 . S
C18 C14 1.535 . S
C18 H78 0.959 . S
C18 H79 0.961 . S
C18 H80 0.959 . S
C19 C16 1.450 . S
C19 H81 0.960 . S
C19 H82 0.960 . S
C19 H83 0.960 . S
C20 C21 1.309 . S
C20 C25 1.304 . S
C20 O58 1.435 . S
C21 C20 1.309 . S
C21 C22 1.476 . S
C21 H85 0.930 . S
C22 C21 1.476 . S
C22 C23 1.400 . S
C22 C26 1.567 . S
C23 C22 1.400 . S
C23 C24 1.373 . S
C23 C45 1.432 . S
C24 C23 1.373 . S
C24 C25 1.339 . S
C24 C27 1.530 . S
C25 C20 1.304 . S
C25 C24 1.339 . S
C25 H86 0.930 . S
C26 C22 1.567 . S
C26 H87 0.961 . S
C26 H88 0.960 . S
C26 H89 0.958 . S
C27 C24 1.530 . S
C27 H90 0.961 . S
C27 H91 0.960 . S
C27 H92 0.960 . S
C28 C29 1.530 . S
C28 H94 0.961 . S
C28 H95 0.961 . S
C28 H96 0.959 . S
C29 C28 1.530 . S
C29 O57 1.412 . S
C29 H93 0.980 . S
C30 C31 1.288 . S
C30 C35 1.377 . S
C30 O57 1.393 . S
C31 C30 1.288 . S
C31 C32 1.369 . S
C31 H97 0.932 . S
C32 C31 1.369 . S
C32 C33 1.398 . S
C32 C36 1.527 . S
C33 C32 1.398 . S
C33 C34 1.380 . S
C33 C47 1.497 . S
C34 C33 1.380 . S
C34 C35 1.383 . S
C34 C37 1.603 . S
C35 C30 1.377 . S
C35 C34 1.383 . S
C35 H98 0.929 . S
C36 C32 1.527 . S
C36 H99 0.961 . S
C36 H100 0.959 . S
C36 H101 0.959 . S
C37 C34 1.603 . S
C37 H102 0.960 . S
C37 H103 0.962 . S
C37 H104 0.961 . S
C38 C5 1.587 . S
C38 C39 1.360 . S
C38 C51 1.412 . S
C39 C38 1.360 . S
C39 C40 1.365 . S
C39 H105 0.929 . S
C40 C15 1.553 . S
C40 C39 1.365 . S
C40 C41 1.404 . S
C41 C40 1.404 . S
C41 C42 1.395 . S
C41 C52 1.451 . S
C42 C41 1.395 . S
C42 C43 1.322 . S
C42 H106 0.930 . S
C43 C42 1.322 . S
C43 C44 1.459 . S
C43 H107 0.929 . S
C44 C43 1.459 . S
C44 C45 1.445 . S
C44 C53 1.395 . S
C45 C23 1.432 . S
C45 C44 1.445 . S
C45 C46 1.370 . S
C46 C45 1.370 . S
C46 C47 1.438 . S
C46 H108 0.930 . S
C47 C33 1.497 . S
C47 C46 1.438 . S
C47 C48 1.360 . S
C48 C47 1.360 . S
C48 C49 1.401 . S
C48 C53 1.446 . S
C49 C48 1.401 . S
C49 C50 1.347 . S
C49 H109 0.929 . S
C50 C49 1.347 . S
C50 C51 1.455 . S
C50 H110 0.930 . S
C51 C38 1.412 . S
C51 C50 1.455 . S
C51 C52 1.331 . S
C52 C41 1.451 . S
C52 C51 1.331 . S
C52 C53 1.497 . S
C53 C44 1.395 . S
C53 C48 1.446 . S
C53 C52 1.497 . S
C54 C55 1.582 . S
C54 H111 0.962 . S
C54 H112 0.959 . S
C54 H113 0.958 . S
C55 C54 1.582 . S
C55 O58 1.458 . S
C55 H84 0.980 . S
O56 C1 1.426 . S
O56 C2 1.334 . S
O57 C29 1.412 . S
O57 C30 1.393 . S
O58 C20 1.435 . S
O58 C55 1.458 . S
O59 C11 1.468 . S
O59 C12 1.408 . S
H60 C1 0.980 . S
H61 C0 0.959 . S
H62 C0 0.959 . S
H63 C0 0.960 . S
H64 C3 0.929 . S
H65 C7 0.929 . S
H66 C8 0.959 . S
H67 C8 0.961 . S
H68 C8 0.961 . S
H69 C9 0.960 . S
H70 C9 0.960 . S
H71 C9 0.961 . S
H72 C11 0.980 . S
H73 C10 0.961 . S
H74 C10 0.960 . S
H75 C10 0.959 . S
H76 C13 0.930 . S
H77 C17 0.931 . S
H78 C18 0.959 . S
H79 C18 0.961 . S
H80 C18 0.959 . S
H81 C19 0.960 . S
H82 C19 0.960 . S
H83 C19 0.960 . S
H84 C55 0.980 . S
H85 C21 0.930 . S
H86 C25 0.930 . S
H87 C26 0.961 . S
H88 C26 0.960 . S
H89 C26 0.958 . S
H90 C27 0.961 . S
H91 C27 0.960 . S
H92 C27 0.960 . S
H93 C29 0.980 . S
H94 C28 0.961 . S
H95 C28 0.961 . S
H96 C28 0.959 . S
H97 C31 0.932 . S
H98 C35 0.929 . S
H99 C36 0.961 . S
H100 C36 0.959 . S
H101 C36 0.959 . S
H102 C37 0.960 . S
H103 C37 0.962 . S
H104 C37 0.961 . S
H105 C39 0.929 . S
H106 C42 0.930 . S
H107 C43 0.929 . S
H108 C46 0.930 . S
H109 C49 0.929 . S
H110 C50 0.930 . S
H111 C54 0.962 . S
H112 C54 0.959 . S
H113 C54 0.958 . S
C114 C115 1.560 . S
C114 H175 0.959 . S
C114 H176 0.959 . S
C114 H177 0.960 . S
C115 C114 1.560 . S
C115 O170 1.426 . S
C115 H174 0.980 . S
C116 C117 1.407 . S
C116 C121 1.418 . S
C116 O170 1.334 . S
C117 C116 1.407 . S
C117 C118 1.360 . S
C117 H178 0.929 . S
C118 C117 1.360 . S
C118 C119 1.401 . S
C118 C122 1.527 . S
C119 C118 1.401 . S
C119 C120 1.405 . S
C119 C152 1.587 . S
C120 C119 1.405 . S
C120 C121 1.332 . S
C120 C123 1.496 . S
C121 C116 1.418 . S
C121 C120 1.332 . S
C121 H179 0.929 . S
C122 C118 1.527 . S
C122 H180 0.959 . S
C122 H181 0.961 . S
C122 H182 0.961 . S
C123 C120 1.496 . S
C123 H183 0.960 . S
C123 H184 0.960 . S
C123 H185 0.961 . S
C124 C125 1.517 . S
C124 H187 0.961 . S
C124 H188 0.960 . S
C124 H189 0.959 . S
C125 C124 1.517 . S
C125 O173 1.468 . S
C125 H186 0.980 . S
C126 C127 1.349 . S
C126 C131 1.367 . S
C126 O173 1.408 . S
C127 C126 1.349 . S
C127 C128 1.407 . S
C127 H190 0.930 . S
C128 C127 1.407 . S
C128 C129 1.449 . S
C128 C132 1.535 . S
C129 C128 1.449 . S
C129 C130 1.384 . S
C129 C154 1.553 . S
C130 C129 1.384 . S
C130 C131 1.364 . S
C130 C133 1.450 . S
C131 C126 1.367 . S
C131 C130 1.364 . S
C131 H191 0.931 . S
C132 C128 1.535 . S
C132 H192 0.959 . S
C132 H193 0.961 . S
C132 H194 0.959 . S
C133 C130 1.450 . S
C133 H195 0.960 . S
C133 H196 0.960 . S
C133 H197 0.960 . S
C134 C135 1.309 . S
C134 C139 1.304 . S
C134 O172 1.435 . S
C135 C134 1.309 . S
C135 C136 1.476 . S
C135 H199 0.930 . S
C136 C135 1.476 . S
C136 C137 1.400 . S
C136 C140 1.567 . S
C137 C136 1.400 . S
C137 C138 1.373 . S
C137 C159 1.432 . S
C138 C137 1.373 . S
C138 C139 1.339 . S
C138 C141 1.530 . S
C139 C134 1.304 . S
C139 C138 1.339 . S
C139 H200 0.930 . S
C140 C136 1.567 . S
C140 H201 0.961 . S
C140 H202 0.960 . S
C140 H203 0.958 . S
C141 C138 1.530 . S
C141 H204 0.961 . S
C141 H205 0.960 . S
C141 H206 0.960 . S
C142 C143 1.530 . S
C142 H208 0.961 . S
C142 H209 0.961 . S
C142 H210 0.959 . S
C143 C142 1.530 . S
C143 O171 1.412 . S
C143 H207 0.980 . S
C144 C145 1.288 . S
C144 C149 1.377 . S
C144 O171 1.393 . S
C145 C144 1.288 . S
C145 C146 1.369 . S
C145 H211 0.932 . S
C146 C145 1.369 . S
C146 C147 1.398 . S
C146 C150 1.527 . S
C147 C146 1.398 . S
C147 C148 1.380 . S
C147 C161 1.497 . S
C148 C147 1.380 . S
C148 C149 1.383 . S
C148 C151 1.603 . S
C149 C144 1.377 . S
C149 C148 1.383 . S
C149 H212 0.929 . S
C150 C146 1.527 . S
C150 H213 0.961 . S
C150 H214 0.959 . S
C150 H215 0.959 . S
C151 C148 1.603 . S
C151 H216 0.960 . S
C151 H217 0.962 . S
C151 H218 0.961 . S
C152 C119 1.587 . S
C152 C153 1.360 . S
C152 C165 1.412 . S
C153 C152 1.360 . S
C153 C154 1.365 . S
C153 H219 0.929 . S
C154 C129 1.553 . S
C154 C153 1.365 . S
C154 C155 1.404 . S
C155 C154 1.404 . S
C155 C156 1.395 . S
C155 C166 1.451 . S
C156 C155 1.395 . S
C156 C157 1.322 . S
C156 H220 0.930 . S
C157 C156 1.322 . S
C157 C158 1.459 . S
C157 H221 0.929 . S
C158 C157 1.459 . S
C158 C159 1.445 . S
C158 C167 1.395 . S
C159 C137 1.432 . S
C159 C158 1.445 . S
C159 C160 1.370 . S
C160 C159 1.370 . S
C160 C161 1.438 . S
C160 H222 0.930 . S
C161 C147 1.497 . S
C161 C160 1.438 . S
C161 C162 1.360 . S
C162 C161 1.360 . S
C162 C163 1.401 . S
C162 C167 1.446 . S
C163 C162 1.401 . S
C163 C164 1.347 . S
C163 H223 0.929 . S
C164 C163 1.347 . S
C164 C165 1.455 . S
C164 H224 0.930 . S
C165 C152 1.412 . S
C165 C164 1.455 . S
C165 C166 1.331 . S
C166 C155 1.451 . S
C166 C165 1.331 . S
C166 C167 1.497 . S
C167 C158 1.395 . S
C167 C162 1.446 . S
C167 C166 1.497 . S
C168 C169 1.582 . S
C168 H225 0.962 . S
C168 H226 0.959 . S
C168 H227 0.958 . S
C169 C168 1.582 . S
C169 O172 1.458 . S
C169 H198 0.980 . S
O170 C115 1.426 . S
O170 C116 1.334 . S
O171 C143 1.412 . S
O171 C144 1.393 . S
O172 C134 1.435 . S
O172 C169 1.458 . S
O173 C125 1.468 . S
O173 C126 1.408 . S
H174 C115 0.980 . S
H175 C114 0.959 . S
H176 C114 0.959 . S
H177 C114 0.960 . S
H178 C117 0.929 . S
H179 C121 0.929 . S
H180 C122 0.959 . S
H181 C122 0.961 . S
H182 C122 0.961 . S
H183 C123 0.960 . S
H184 C123 0.960 . S
H185 C123 0.961 . S
H186 C125 0.980 . S
H187 C124 0.961 . S
H188 C124 0.960 . S
H189 C124 0.959 . S
H190 C127 0.930 . S
H191 C131 0.931 . S
H192 C132 0.959 . S
H193 C132 0.961 . S
H194 C132 0.959 . S
H195 C133 0.960 . S
H196 C133 0.960 . S
H197 C133 0.960 . S
H198 C169 0.980 . S
H199 C135 0.930 . S
H200 C139 0.930 . S
H201 C140 0.961 . S
H202 C140 0.960 . S
H203 C140 0.958 . S
H204 C141 0.961 . S
H205 C141 0.960 . S
H206 C141 0.960 . S
H207 C143 0.980 . S
H208 C142 0.961 . S
H209 C142 0.961 . S
H210 C142 0.959 . S
H211 C145 0.932 . S
H212 C149 0.929 . S
H213 C150 0.961 . S
H214 C150 0.959 . S
H215 C150 0.959 . S
H216 C151 0.960 . S
H217 C151 0.962 . S
H218 C151 0.961 . S
H219 C153 0.929 . S
H220 C156 0.930 . S
H221 C157 0.929 . S
H222 C160 0.930 . S
H223 C163 0.929 . S
H224 C164 0.930 . S
H225 C168 0.962 . S
H226 C168 0.959 . S
H227 C168 0.958 . S
C228 C229 1.560 . S
C228 H289 0.959 . S
C228 H290 0.959 . S
C228 H291 0.960 . S
C229 C228 1.560 . S
C229 O284 1.426 . S
C229 H288 0.980 . S
C230 C231 1.407 . S
C230 C235 1.418 . S
C230 O284 1.334 . S
C231 C230 1.407 . S
C231 C232 1.360 . S
C231 H292 0.929 . S
C232 C231 1.360 . S
C232 C233 1.401 . S
C232 C236 1.527 . S
C233 C232 1.401 . S
C233 C234 1.405 . S
C233 C266 1.587 . S
C234 C233 1.405 . S
C234 C235 1.332 . S
C234 C237 1.496 . S
C235 C230 1.418 . S
C235 C234 1.332 . S
C235 H293 0.929 . S
C236 C232 1.527 . S
C236 H294 0.959 . S
C236 H295 0.961 . S
C236 H296 0.961 . S
C237 C234 1.496 . S
C237 H297 0.960 . S
C237 H298 0.960 . S
C237 H299 0.961 . S
C238 C239 1.517 . S
C238 H301 0.961 . S
C238 H302 0.960 . S
C238 H303 0.959 . S
C239 C238 1.517 . S
C239 O287 1.468 . S
C239 H300 0.980 . S
C240 C241 1.349 . S
C240 C245 1.367 . S
C240 O287 1.408 . S
C241 C240 1.349 . S
C241 C242 1.407 . S
C241 H304 0.930 . S
C242 C241 1.407 . S
C242 C243 1.449 . S
C242 C246 1.535 . S
C243 C242 1.449 . S
C243 C244 1.384 . S
C243 C268 1.553 . S
C244 C243 1.384 . S
C244 C245 1.364 . S
C244 C247 1.450 . S
C245 C240 1.367 . S
C245 C244 1.364 . S
C245 H305 0.931 . S
C246 C242 1.535 . S
C246 H306 0.959 . S
C246 H307 0.961 . S
C246 H308 0.959 . S
C247 C244 1.450 . S
C247 H309 0.960 . S
C247 H310 0.960 . S
C247 H311 0.960 . S
C248 C249 1.309 . S
C248 C253 1.304 . S
C248 O286 1.435 . S
C249 C248 1.309 . S
C249 C250 1.476 . S
C249 H313 0.930 . S
C250 C249 1.476 . S
C250 C251 1.400 . S
C250 C254 1.567 . S
C251 C250 1.400 . S
C251 C252 1.373 . S
C251 C273 1.432 . S
C252 C251 1.373 . S
C252 C253 1.339 . S
C252 C255 1.530 . S
C253 C248 1.304 . S
C253 C252 1.339 . S
C253 H314 0.930 . S
C254 C250 1.567 . S
C254 H315 0.961 . S
C254 H316 0.960 . S
C254 H317 0.958 . S
C255 C252 1.530 . S
C255 H318 0.961 . S
C255 H319 0.960 . S
C255 H320 0.960 . S
C256 C257 1.530 . S
C256 H322 0.961 . S
C256 H323 0.961 . S
C256 H324 0.959 . S
C257 C256 1.530 . S
C257 O285 1.412 . S
C257 H321 0.980 . S
C258 C259 1.288 . S
C258 C263 1.377 . S
C258 O285 1.393 . S
C259 C258 1.288 . S
C259 C260 1.369 . S
C259 H325 0.932 . S
C260 C259 1.369 . S
C260 C261 1.398 . S
C260 C264 1.527 . S
C261 C260 1.398 . S
C261 C262 1.380 . S
C261 C275 1.497 . S
C262 C261 1.380 . S
C262 C263 1.383 . S
C262 C265 1.603 . S
C263 C258 1.377 . S
C263 C262 1.383 . S
C263 H326 0.929 . S
C264 C260 1.527 . S
C264 H327 0.961 . S
C264 H328 0.959 . S
C264 H329 0.959 . S
C265 C262 1.603 . S
C265 H330 0.960 . S
C265 H331 0.962 . S
C265 H332 0.961 . S
C266 C233 1.587 . S
C266 C267 1.360 . S
C266 C279 1.412 . S
C267 C266 1.360 . S
C267 C268 1.365 . S
C267 H333 0.929 . S
C268 C243 1.553 . S
C268 C267 1.365 . S
C268 C269 1.404 . S
C269 C268 1.404 . S
C269 C270 1.395 . S
C269 C280 1.451 . S
C270 C269 1.395 . S
C270 C271 1.322 . S
C270 H334 0.930 . S
C271 C270 1.322 . S
C271 C272 1.459 . S
C271 H335 0.929 . S
C272 C271 1.459 . S
C272 C273 1.445 . S
C272 C281 1.395 . S
C273 C251 1.432 . S
C273 C272 1.445 . S
C273 C274 1.370 . S
C274 C273 1.370 . S
C274 C275 1.438 . S
C274 H336 0.930 . S
C275 C261 1.497 . S
C275 C274 1.438 . S
C275 C276 1.360 . S
C276 C275 1.360 . S
C276 C277 1.401 . S
C276 C281 1.446 . S
C277 C276 1.401 . S
C277 C278 1.347 . S
C277 H337 0.929 . S
C278 C277 1.347 . S
C278 C279 1.455 . S
C278 H338 0.930 . S
C279 C266 1.412 . S
C279 C278 1.455 . S
C279 C280 1.331 . S
C280 C269 1.451 . S
C280 C279 1.331 . S
C280 C281 1.497 . S
C281 C272 1.395 . S
C281 C276 1.446 . S
C281 C280 1.497 . S
C282 C283 1.582 . S
C282 H339 0.962 . S
C282 H340 0.959 . S
C282 H341 0.958 . S
C283 C282 1.582 . S
C283 O286 1.458 . S
C283 H312 0.980 . S
O284 C229 1.426 . S
O284 C230 1.334 . S
O285 C257 1.412 . S
O285 C258 1.393 . S
O286 C248 1.435 . S
O286 C283 1.458 . S
O287 C239 1.468 . S
O287 C240 1.408 . S
H288 C229 0.980 . S
H289 C228 0.959 . S
H290 C228 0.959 . S
H291 C228 0.960 . S
H292 C231 0.929 . S
H293 C235 0.929 . S
H294 C236 0.959 . S
H295 C236 0.961 . S
H296 C236 0.961 . S
H297 C237 0.960 . S
H298 C237 0.960 . S
H299 C237 0.961 . S
H300 C239 0.980 . S
H301 C238 0.961 . S
H302 C238 0.960 . S
H303 C238 0.959 . S
H304 C241 0.930 . S
H305 C245 0.931 . S
H306 C246 0.959 . S
H307 C246 0.961 . S
H308 C246 0.959 . S
H309 C247 0.960 . S
H310 C247 0.960 . S
H311 C247 0.960 . S
H312 C283 0.980 . S
H313 C249 0.930 . S
H314 C253 0.930 . S
H315 C254 0.961 . S
H316 C254 0.960 . S
H317 C254 0.958 . S
H318 C255 0.961 . S
H319 C255 0.960 . S
H320 C255 0.960 . S
H321 C257 0.980 . S
H322 C256 0.961 . S
H323 C256 0.961 . S
H324 C256 0.959 . S
H325 C259 0.932 . S
H326 C263 0.929 . S
H327 C264 0.961 . S
H328 C264 0.959 . S
H329 C264 0.959 . S
H330 C265 0.960 . S
H331 C265 0.962 . S
H332 C265 0.961 . S
H333 C267 0.929 . S
H334 C270 0.930 . S
H335 C271 0.929 . S
H336 C274 0.930 . S
H337 C277 0.929 . S
H338 C278 0.930 . S
H339 C282 0.962 . S
H340 C282 0.959 . S
H341 C282 0.958 . S
C342 C343 1.560 . S
C342 H403 0.959 . S
C342 H404 0.959 . S
C342 H405 0.960 . S
C343 C342 1.560 . S
C343 O398 1.426 . S
C343 H402 0.980 . S
C344 C345 1.407 . S
C344 C349 1.418 . S
C344 O398 1.334 . S
C345 C344 1.407 . S
C345 C346 1.360 . S
C345 H406 0.929 . S
C346 C345 1.360 . S
C346 C347 1.401 . S
C346 C350 1.527 . S
C347 C346 1.401 . S
C347 C348 1.405 . S
C347 C380 1.587 . S
C348 C347 1.405 . S
C348 C349 1.332 . S
C348 C351 1.496 . S
C349 C344 1.418 . S
C349 C348 1.332 . S
C349 H407 0.929 . S
C350 C346 1.527 . S
C350 H408 0.959 . S
C350 H409 0.961 . S
C350 H410 0.961 . S
C351 C348 1.496 . S
C351 H411 0.960 . S
C351 H412 0.960 . S
C351 H413 0.961 . S
C352 C353 1.517 . S
C352 H415 0.961 . S
C352 H416 0.960 . S
C352 H417 0.959 . S
C353 C352 1.517 . S
C353 O401 1.468 . S
C353 H414 0.980 . S
C354 C355 1.349 . S
C354 C359 1.367 . S
C354 O401 1.408 . S
C355 C354 1.349 . S
C355 C356 1.407 . S
C355 H418 0.930 . S
C356 C355 1.407 . S
C356 C357 1.449 . S
C356 C360 1.535 . S
C357 C356 1.449 . S
C357 C358 1.384 . S
C357 C382 1.553 . S
C358 C357 1.384 . S
C358 C359 1.364 . S
C358 C361 1.450 . S
C359 C354 1.367 . S
C359 C358 1.364 . S
C359 H419 0.931 . S
C360 C356 1.535 . S
C360 H420 0.959 . S
C360 H421 0.961 . S
C360 H422 0.959 . S
C361 C358 1.450 . S
C361 H423 0.960 . S
C361 H424 0.960 . S
C361 H425 0.960 . S
C362 C363 1.309 . S
C362 C367 1.304 . S
C362 O400 1.435 . S
C363 C362 1.309 . S
C363 C364 1.476 . S
C363 H427 0.930 . S
C364 C363 1.476 . S
C364 C365 1.400 . S
C364 C368 1.567 . S
C365 C364 1.400 . S
C365 C366 1.373 . S
C365 C387 1.432 . S
C366 C365 1.373 . S
C366 C367 1.339 . S
C366 C369 1.530 . S
C367 C362 1.304 . S
C367 C366 1.339 . S
C367 H428 0.930 . S
C368 C364 1.567 . S
C368 H429 0.961 . S
C368 H430 0.960 . S
C368 H431 0.958 . S
C369 C366 1.530 . S
C369 H432 0.961 . S
C369 H433 0.960 . S
C369 H434 0.960 . S
C370 C371 1.530 . S
C370 H436 0.961 . S
C370 H437 0.961 . S
C370 H438 0.959 . S
C371 C370 1.530 . S
C371 O399 1.412 . S
C371 H435 0.980 . S
C372 C373 1.288 . S
C372 C377 1.377 . S
C372 O399 1.393 . S
C373 C372 1.288 . S
C373 C374 1.369 . S
C373 H439 0.932 . S
C374 C373 1.369 . S
C374 C375 1.398 . S
C374 C378 1.527 . S
C375 C374 1.398 . S
C375 C376 1.380 . S
C375 C389 1.497 . S
C376 C375 1.380 . S
C376 C377 1.383 . S
C376 C379 1.603 . S
C377 C372 1.377 . S
C377 C376 1.383 . S
C377 H440 0.929 . S
C378 C374 1.527 . S
C378 H441 0.961 . S
C378 H442 0.959 . S
C378 H443 0.959 . S
C379 C376 1.603 . S
C379 H444 0.960 . S
C379 H445 0.962 . S
C379 H446 0.961 . S
C380 C347 1.587 . S
C380 C381 1.360 . S
C380 C393 1.412 . S
C381 C380 1.360 . S
C381 C382 1.365 . S
C381 H447 0.929 . S
C382 C357 1.553 . S
C382 C381 1.365 . S
C382 C383 1.404 . S
C383 C382 1.404 . S
C383 C384 1.395 . S
C383 C394 1.451 . S
C384 C383 1.395 . S
C384 C385 1.322 . S
C384 H448 0.930 . S
C385 C384 1.322 . S
C385 C386 1.459 . S
C385 H449 0.929 . S
C386 C385 1.459 . S
C386 C387 1.445 . S
C386 C395 1.395 . S
C387 C365 1.432 . S
C387 C386 1.445 . S
C387 C388 1.370 . S
C388 C387 1.370 . S
C388 C389 1.438 . S
C388 H450 0.930 . S
C389 C375 1.497 . S
C389 C388 1.438 . S
C389 C390 1.360 . S
C390 C389 1.360 . S
C390 C391 1.401 . S
C390 C395 1.446 . S
C391 C390 1.401 . S
C391 C392 1.347 . S
C391 H451 0.929 . S
C392 C391 1.347 . S
C392 C393 1.455 . S
C392 H452 0.930 . S
C393 C380 1.412 . S
C393 C392 1.455 . S
C393 C394 1.331 . S
C394 C383 1.451 . S
C394 C393 1.331 . S
C394 C395 1.497 . S
C395 C386 1.395 . S
C395 C390 1.446 . S
C395 C394 1.497 . S
C396 C397 1.582 . S
C396 H453 0.962 . S
C396 H454 0.959 . S
C396 H455 0.958 . S
C397 C396 1.582 . S
C397 O400 1.458 . S
C397 H426 0.980 . S
O398 C343 1.426 . S
O398 C344 1.334 . S
O399 C371 1.412 . S
O399 C372 1.393 . S
O400 C362 1.435 . S
O400 C397 1.458 . S
O401 C353 1.468 . S
O401 C354 1.408 . S
H402 C343 0.980 . S
H403 C342 0.959 . S
H404 C342 0.959 . S
H405 C342 0.960 . S
H406 C345 0.929 . S
H407 C349 0.929 . S
H408 C350 0.959 . S
H409 C350 0.961 . S
H410 C350 0.961 . S
H411 C351 0.960 . S
H412 C351 0.960 . S
H413 C351 0.961 . S
H414 C353 0.980 . S
H415 C352 0.961 . S
H416 C352 0.960 . S
H417 C352 0.959 . S
H418 C355 0.930 . S
H419 C359 0.931 . S
H420 C360 0.959 . S
H421 C360 0.961 . S
H422 C360 0.959 . S
H423 C361 0.960 . S
H424 C361 0.960 . S
H425 C361 0.960 . S
H426 C397 0.980 . S
H427 C363 0.930 . S
H428 C367 0.930 . S
H429 C368 0.961 . S
H430 C368 0.960 . S
H431 C368 0.958 . S
H432 C369 0.961 . S
H433 C369 0.960 . S
H434 C369 0.960 . S
H435 C371 0.980 . S
H436 C370 0.961 . S
H437 C370 0.961 . S
H438 C370 0.959 . S
H439 C373 0.932 . S
H440 C377 0.929 . S
H441 C378 0.961 . S
H442 C378 0.959 . S
H443 C378 0.959 . S
H444 C379 0.960 . S
H445 C379 0.962 . S
H446 C379 0.961 . S
H447 C381 0.929 . S
H448 C384 0.930 . S
H449 C385 0.929 . S
H450 C388 0.930 . S
H451 C391 0.929 . S
H452 C392 0.930 . S
H453 C396 0.962 . S
H454 C396 0.959 . S
H455 C396 0.958 . S
C456 C457 1.560 . S
C456 H517 0.959 . S
C456 H518 0.959 . S
C456 H519 0.960 . S
C457 C456 1.560 . S
C457 O512 1.426 . S
C457 H516 0.980 . S
C458 C459 1.407 . S
C458 C463 1.418 . S
C458 O512 1.334 . S
C459 C458 1.407 . S
C459 C460 1.360 . S
C459 H520 0.929 . S
C460 C459 1.360 . S
C460 C461 1.401 . S
C460 C464 1.527 . S
C461 C460 1.401 . S
C461 C462 1.405 . S
C461 C494 1.587 . S
C462 C461 1.405 . S
C462 C463 1.332 . S
C462 C465 1.496 . S
C463 C458 1.418 . S
C463 C462 1.332 . S
C463 H521 0.929 . S
C464 C460 1.527 . S
C464 H522 0.959 . S
C464 H523 0.961 . S
C464 H524 0.961 . S
C465 C462 1.496 . S
C465 H525 0.960 . S
C465 H526 0.960 . S
C465 H527 0.961 . S
C466 C467 1.517 . S
C466 H529 0.961 . S
C466 H530 0.960 . S
C466 H531 0.959 . S
C467 C466 1.517 . S
C467 O515 1.468 . S
C467 H528 0.980 . S
C468 C469 1.349 . S
C468 C473 1.367 . S
C468 O515 1.408 . S
C469 C468 1.349 . S
C469 C470 1.407 . S
C469 H532 0.930 . S
C470 C469 1.407 . S
C470 C471 1.449 . S
C470 C474 1.535 . S
C471 C470 1.449 . S
C471 C472 1.384 . S
C471 C496 1.553 . S
C472 C471 1.384 . S
C472 C473 1.364 . S
C472 C475 1.450 . S
C473 C468 1.367 . S
C473 C472 1.364 . S
C473 H533 0.931 . S
C474 C470 1.535 . S
C474 H534 0.959 . S
C474 H535 0.961 . S
C474 H536 0.959 . S
C475 C472 1.450 . S
C475 H537 0.960 . S
C475 H538 0.960 . S
C475 H539 0.960 . S
C476 C477 1.309 . S
C476 C481 1.304 . S
C476 O514 1.435 . S
C477 C476 1.309 . S
C477 C478 1.476 . S
C477 H541 0.930 . S
C478 C477 1.476 . S
C478 C479 1.400 . S
C478 C482 1.567 . S
C479 C478 1.400 . S
C479 C480 1.373 . S
C479 C501 1.432 . S
C480 C479 1.373 . S
C480 C481 1.339 . S
C480 C483 1.530 . S
C481 C476 1.304 . S
C481 C480 1.339 . S
C481 H542 0.930 . S
C482 C478 1.567 . S
C482 H543 0.961 . S
C482 H544 0.960 . S
C482 H545 0.958 . S
C483 C480 1.530 . S
C483 H546 0.961 . S
C483 H547 0.960 . S
C483 H548 0.960 . S
C484 C485 1.530 . S
C484 H550 0.961 . S
C484 H551 0.961 . S
C484 H552 0.959 . S
C485 C484 1.530 . S
C485 O513 1.412 . S
C485 H549 0.980 . S
C486 C487 1.288 . S
C486 C491 1.377 . S
C486 O513 1.393 . S
C487 C486 1.288 . S
C487 C488 1.369 . S
C487 H553 0.932 . S
C488 C487 1.369 . S
C488 C489 1.398 . S
C488 C492 1.527 . S
C489 C488 1.398 . S
C489 C490 1.380 . S
C489 C503 1.497 . S
C490 C489 1.380 . S
C490 C491 1.383 . S
C490 C493 1.603 . S
C491 C486 1.377 . S
C491 C490 1.383 . S
C491 H554 0.929 . S
C492 C488 1.527 . S
C492 H555 0.961 . S
C492 H556 0.959 . S
C492 H557 0.959 . S
C493 C490 1.603 . S
C493 H558 0.960 . S
C493 H559 0.962 . S
C493 H560 0.961 . S
C494 C461 1.587 . S
C494 C495 1.360 . S
C494 C507 1.412 . S
C495 C494 1.360 . S
C495 C496 1.365 . S
C495 H561 0.929 . S
C496 C471 1.553 . S
C496 C495 1.365 . S
C496 C497 1.404 . S
C497 C496 1.404 . S
C497 C498 1.395 . S
C497 C508 1.451 . S
C498 C497 1.395 . S
C498 C499 1.322 . S
C498 H562 0.930 . S
C499 C498 1.322 . S
C499 C500 1.459 . S
C499 H563 0.929 . S
C500 C499 1.459 . S
C500 C501 1.445 . S
C500 C509 1.395 . S
C501 C479 1.432 . S
C501 C500 1.445 . S
C501 C502 1.370 . S
C502 C501 1.370 . S
C502 C503 1.438 . S
C502 H564 0.930 . S
C503 C489 1.497 . S
C503 C502 1.438 . S
C503 C504 1.360 . S
C504 C503 1.360 . S
C504 C505 1.401 . S
C504 C509 1.446 . S
C505 C504 1.401 . S
C505 C506 1.347 . S
C505 H565 0.929 . S
C506 C505 1.347 . S
C506 C507 1.455 . S
C506 H566 0.930 . S
C507 C494 1.412 . S
C507 C506 1.455 . S
C507 C508 1.331 . S
C508 C497 1.451 . S
C508 C507 1.331 . S
C508 C509 1.497 . S
C509 C500 1.395 . S
C509 C504 1.446 . S
C509 C508 1.497 . S
C510 C511 1.582 . S
C510 H567 0.962 . S
C510 H568 0.959 . S
C510 H569 0.958 . S
C511 C510 1.582 . S
C511 O514 1.458 . S
C511 H540 0.980 . S
O512 C457 1.426 . S
O512 C458 1.334 . S
O513 C485 1.412 . S
O513 C486 1.393 . S
O514 C476 1.435 . S
O514 C511 1.458 . S
O515 C467 1.468 . S
O515 C468 1.408 . S
H516 C457 0.980 . S
H517 C456 0.959 . S
H518 C456 0.959 . S
H519 C456 0.960 . S
H520 C459 0.929 . S
H521 C463 0.929 . S
H522 C464 0.959 . S
H523 C464 0.961 . S
H524 C464 0.961 . S
H525 C465 0.960 . S
H526 C465 0.960 . S
H527 C465 0.961 . S
H528 C467 0.980 . S
H529 C466 0.961 . S
H530 C466 0.960 . S
H531 C466 0.959 . S
H532 C469 0.930 . S
H533 C473 0.931 . S
H534 C474 0.959 . S
H535 C474 0.961 . S
H536 C474 0.959 . S
H537 C475 0.960 . S
H538 C475 0.960 . S
H539 C475 0.960 . S
H540 C511 0.980 . S
H541 C477 0.930 . S
H542 C481 0.930 . S
H543 C482 0.961 . S
H544 C482 0.960 . S
H545 C482 0.958 . S
H546 C483 0.961 . S
H547 C483 0.960 . S
H548 C483 0.960 . S
H549 C485 0.980 . S
H550 C484 0.961 . S
H551 C484 0.961 . S
H552 C484 0.959 . S
H553 C487 0.932 . S
H554 C491 0.929 . S
H555 C492 0.961 . S
H556 C492 0.959 . S
H557 C492 0.959 . S
H558 C493 0.960 . S
H559 C493 0.962 . S
H560 C493 0.961 . S
H561 C495 0.929 . S
H562 C498 0.930 . S
H563 C499 0.929 . S
H564 C502 0.930 . S
H565 C505 0.929 . S
H566 C506 0.930 . S
H567 C510 0.962 . S
H568 C510 0.959 . S
H569 C510 0.958 . S
C570 C571 1.560 . S
C570 H631 0.959 . S
C570 H632 0.959 . S
C570 H633 0.960 . S
C571 C570 1.560 . S
C571 O626 1.426 . S
C571 H630 0.980 . S
C572 C573 1.407 . S
C572 C577 1.418 . S
C572 O626 1.334 . S
C573 C572 1.407 . S
C573 C574 1.360 . S
C573 H634 0.929 . S
C574 C573 1.360 . S
C574 C575 1.401 . S
C574 C578 1.527 . S
C575 C574 1.401 . S
C575 C576 1.405 . S
C575 C608 1.587 . S
C576 C575 1.405 . S
C576 C577 1.332 . S
C576 C579 1.496 . S
C577 C572 1.418 . S
C577 C576 1.332 . S
C577 H635 0.929 . S
C578 C574 1.527 . S
C578 H636 0.959 . S
C578 H637 0.961 . S
C578 H638 0.961 . S
C579 C576 1.496 . S
C579 H639 0.960 . S
C579 H640 0.960 . S
C579 H641 0.961 . S
C580 C581 1.517 . S
C580 H643 0.961 . S
C580 H644 0.960 . S
C580 H645 0.959 . S
C581 C580 1.517 . S
C581 O629 1.468 . S
C581 H642 0.980 . S
C582 C583 1.349 . S
C582 C587 1.367 . S
C582 O629 1.408 . S
C583 C582 1.349 . S
C583 C584 1.407 . S
C583 H646 0.930 . S
C584 C583 1.407 . S
C584 C585 1.449 . S
C584 C588 1.535 . S
C585 C584 1.449 . S
C585 C586 1.384 . S
C585 C610 1.553 . S
C586 C585 1.384 . S
C586 C587 1.364 . S
C586 C589 1.450 . S
C587 C582 1.367 . S
C587 C586 1.364 . S
C587 H647 0.931 . S
C588 C584 1.535 . S
C588 H648 0.959 . S
C588 H649 0.961 . S
C588 H650 0.959 . S
C589 C586 1.450 . S
C589 H651 0.960 . S
C589 H652 0.960 . S
C589 H653 0.960 . S
C590 C591 1.309 . S
C590 C595 1.304 . S
C590 O628 1.435 . S
C591 C590 1.309 . S
C591 C592 1.476 . S
C591 H655 0.930 . S
C592 C591 1.476 . S
C592 C593 1.400 . S
C592 C596 1.567 . S
C593 C592 1.400 . S
C593 C594 1.373 . S
C593 C615 1.432 . S
C594 C593 1.373 . S
C594 C595 1.339 . S
C594 C597 1.530 . S
C595 C590 1.304 . S
C595 C594 1.339 . S
C595 H656 0.930 . S
C596 C592 1.567 . S
C596 H657 0.961 . S
C596 H658 0.960 . S
C596 H659 0.958 . S
C597 C594 1.530 . S
C597 H660 0.961 . S
C597 H661 0.960 . S
C597 H662 0.960 . S
C598 C599 1.530 . S
C598 H664 0.961 . S
C598 H665 0.961 . S
C598 H666 0.959 . S
C599 C598 1.530 . S
C599 O627 1.412 . S
C599 H663 0.980 . S
C600 C601 1.288 . S
C600 C605 1.377 . S
C600 O627 1.393 . S
C601 C600 1.288 . S
C601 C602 1.369 . S
C601 H667 0.932 . S
C602 C601 1.369 . S
C602 C603 1.398 . S
C602 C606 1.527 . S
C603 C602 1.398 . S
C603 C604 1.380 . S
C603 C617 1.497 . S
C604 C603 1.380 . S
C604 C605 1.383 . S
C604 C607 1.603 . S
C605 C600 1.377 . S
C605 C604 1.383 . S
C605 H668 0.929 . S
C606 C602 1.527 . S
C606 H669 0.961 . S
C606 H670 0.959 . S
C606 H671 0.959 . S
C607 C604 1.603 . S
C607 H672 0.960 . S
C607 H673 0.962 . S
C607 H674 0.961 . S
C608 C575 1.587 . S
C608 C609 1.360 . S
C608 C621 1.412 . S
C609 C608 1.360 . S
C609 C610 1.365 . S
C609 H675 0.929 . S
C610 C585 1.553 . S
C610 C609 1.365 . S
C610 C611 1.404 . S
C611 C610 1.404 . S
C611 C612 1.395 . S
C611 C622 1.451 . S
C612 C611 1.395 . S
C612 C613 1.322 . S
C612 H676 0.930 . S
C613 C612 1.322 . S
C613 C614 1.459 . S
C613 H677 0.929 . S
C614 C613 1.459 . S
C614 C615 1.445 . S
C614 C623 1.395 . S
C615 C593 1.432 . S
C615 C614 1.445 . S
C615 C616 1.370 . S
C616 C615 1.370 . S
C616 C617 1.438 . S
C616 H678 0.930 . S
C617 C603 1.497 . S
C617 C616 1.438 . S
C617 C618 1.360 . S
C618 C617 1.360 . S
C618 C619 1.401 . S
C618 C623 1.446 . S
C619 C618 1.401 . S
C619 C620 1.347 . S
C619 H679 0.929 . S
C620 C619 1.347 . S
C620 C621 1.455 . S
C620 H680 0.930 . S
C621 C608 1.412 . S
C621 C620 1.455 . S
C621 C622 1.331 . S
C622 C611 1.451 . S
C622 C621 1.331 . S
C622 C623 1.497 . S
C623 C614 1.395 . S
C623 C618 1.446 . S
C623 C622 1.497 . S
C624 C625 1.582 . S
C624 H681 0.962 . S
C624 H682 0.959 . S
C624 H683 0.958 . S
C625 C624 1.582 . S
C625 O628 1.458 . S
C625 H654 0.980 . S
O626 C571 1.426 . S
O626 C572 1.334 . S
O627 C599 1.412 . S
O627 C600 1.393 . S
O628 C590 1.435 . S
O628 C625 1.458 . S
O629 C581 1.468 . S
O629 C582 1.408 . S
H630 C571 0.980 . S
H631 C570 0.959 . S
H632 C570 0.959 . S
H633 C570 0.960 . S
H634 C573 0.929 . S
H635 C577 0.929 . S
H636 C578 0.959 . S
H637 C578 0.961 . S
H638 C578 0.961 . S
H639 C579 0.960 . S
H640 C579 0.960 . S
H641 C579 0.961 . S
H642 C581 0.980 . S
H643 C580 0.961 . S
H644 C580 0.960 . S
H645 C580 0.959 . S
H646 C583 0.930 . S
H647 C587 0.931 . S
H648 C588 0.959 . S
H649 C588 0.961 . S
H650 C588 0.959 . S
H651 C589 0.960 . S
H652 C589 0.960 . S
H653 C589 0.960 . S
H654 C625 0.980 . S
H655 C591 0.930 . S
H656 C595 0.930 . S
H657 C596 0.961 . S
H658 C596 0.960 . S
H659 C596 0.958 . S
H660 C597 0.961 . S
H661 C597 0.960 . S
H662 C597 0.960 . S
H663 C599 0.980 . S
H664 C598 0.961 . S
H665 C598 0.961 . S
H666 C598 0.959 . S
H667 C601 0.932 . S
H668 C605 0.929 . S
H669 C606 0.961 . S
H670 C606 0.959 . S
H671 C606 0.959 . S
H672 C607 0.960 . S
H673 C607 0.962 . S
H674 C607 0.961 . S
H675 C609 0.929 . S
H676 C612 0.930 . S
H677 C613 0.929 . S
H678 C616 0.930 . S
H679 C619 0.929 . S
H680 C620 0.930 . S
H681 C624 0.962 . S
H682 C624 0.959 . S
H683 C624 0.958 . S
C684 C685 1.560 . S
C684 H745 0.959 . S
C684 H746 0.959 . S
C684 H747 0.960 . S
C685 C684 1.560 . S
C685 O740 1.426 . S
C685 H744 0.980 . S
C686 C687 1.407 . S
C686 C691 1.418 . S
C686 O740 1.334 . S
C687 C686 1.407 . S
C687 C688 1.360 . S
C687 H748 0.929 . S
C688 C687 1.360 . S
C688 C689 1.401 . S
C688 C692 1.527 . S
C689 C688 1.401 . S
C689 C690 1.405 . S
C689 C722 1.587 . S
C690 C689 1.405 . S
C690 C691 1.332 . S
C690 C693 1.496 . S
C691 C686 1.418 . S
C691 C690 1.332 . S
C691 H749 0.929 . S
C692 C688 1.527 . S
C692 H750 0.959 . S
C692 H751 0.961 . S
C692 H752 0.961 . S
C693 C690 1.496 . S
C693 H753 0.960 . S
C693 H754 0.960 . S
C693 H755 0.961 . S
C694 C695 1.517 . S
C694 H757 0.961 . S
C694 H758 0.960 . S
C694 H759 0.959 . S
C695 C694 1.517 . S
C695 O743 1.468 . S
C695 H756 0.980 . S
C696 C697 1.349 . S
C696 C701 1.367 . S
C696 O743 1.408 . S
C697 C696 1.349 . S
C697 C698 1.407 . S
C697 H760 0.930 . S
C698 C697 1.407 . S
C698 C699 1.449 . S
C698 C702 1.535 . S
C699 C698 1.449 . S
C699 C700 1.384 . S
C699 C724 1.553 . S
C700 C699 1.384 . S
C700 C701 1.364 . S
C700 C703 1.450 . S
C701 C696 1.367 . S
C701 C700 1.364 . S
C701 H761 0.931 . S
C702 C698 1.535 . S
C702 H762 0.959 . S
C702 H763 0.961 . S
C702 H764 0.959 . S
C703 C700 1.450 . S
C703 H765 0.960 . S
C703 H766 0.960 . S
C703 H767 0.960 . S
C704 C705 1.309 . S
C704 C709 1.304 . S
C704 O742 1.435 . S
C705 C704 1.309 . S
C705 C706 1.476 . S
C705 H769 0.930 . S
C706 C705 1.476 . S
C706 C707 1.400 . S
C706 C710 1.567 . S
C707 C706 1.400 . S
C707 C708 1.373 . S
C707 C729 1.432 . S
C708 C707 1.373 . S
C708 C709 1.339 . S
C708 C711 1.530 . S
C709 C704 1.304 . S
C709 C708 1.339 . S
C709 H770 0.930 . S
C710 C706 1.567 . S
C710 H771 0.961 . S
C710 H772 0.960 . S
C710 H773 0.958 . S
C711 C708 1.530 . S
C711 H774 0.961 . S
C711 H775 0.960 . S
C711 H776 0.960 . S
C712 C713 1.530 . S
C712 H778 0.961 . S
C712 H779 0.961 . S
C712 H780 0.959 . S
C713 C712 1.530 . S
C713 O741 1.412 . S
C713 H777 0.980 . S
C714 C715 1.288 . S
C714 C719 1.377 . S
C714 O741 1.393 . S
C715 C714 1.288 . S
C715 C716 1.369 . S
C715 H781 0.932 . S
C716 C715 1.369 . S
C716 C717 1.398 . S
C716 C720 1.527 . S
C717 C716 1.398 . S
C717 C718 1.380 . S
C717 C731 1.497 . S
C718 C717 1.380 . S
C718 C719 1.383 . S
C718 C721 1.603 . S
C719 C714 1.377 . S
C719 C718 1.383 . S
C719 H782 0.929 . S
C720 C716 1.527 . S
C720 H783 0.961 . S
C720 H784 0.959 . S
C720 H785 0.959 . S
C721 C718 1.603 . S
C721 H786 0.960 . S
C721 H787 0.962 . S
C721 H788 0.961 . S
C722 C689 1.587 . S
C722 C723 1.360 . S
C722 C735 1.412 . S
C723 C722 1.360 . S
C723 C724 1.365 . S
C723 H789 0.929 . S
C724 C699 1.553 . S
C724 C723 1.365 . S
C724 C725 1.404 . S
C725 C724 1.404 . S
C725 C726 1.395 . S
C725 C736 1.451 . S
C726 C725 1.395 . S
C726 C727 1.322 . S
C726 H790 0.930 . S
C727 C726 1.322 . S
C727 C728 1.459 . S
C727 H791 0.929 . S
C728 C727 1.459 . S
C728 C729 1.445 . S
C728 C737 1.395 . S
C729 C707 1.432 . S
C729 C728 1.445 . S
C729 C730 1.370 . S
C730 C729 1.370 . S
C730 C731 1.438 . S
C730 H792 0.930 . S
C731 C717 1.497 . S
C731 C730 1.438 . S
C731 C732 1.360 . S
C732 C731 1.360 . S
C732 C733 1.401 . S
C732 C737 1.446 . S
C733 C732 1.401 . S
C733 C734 1.347 . S
C733 H793 0.929 . S
C734 C733 1.347 . S
C734 C735 1.455 . S
C734 H794 0.930 . S
C735 C722 1.412 . S
C735 C734 1.455 . S
C735 C736 1.331 . S
C736 C725 1.451 . S
C736 C735 1.331 . S
C736 C737 1.497 . S
C737 C728 1.395 . S
C737 C732 1.446 . S
C737 C736 1.497 . S
C738 C739 1.582 . S
C738 H795 0.962 . S
C738 H796 0.959 . S
C738 H797 0.958 . S
C739 C738 1.582 . S
C739 O742 1.458 . S
C739 H768 0.980 . S
O740 C685 1.426 . S
O740 C686 1.334 . S
O741 C713 1.412 . S
O741 C714 1.393 . S
O742 C704 1.435 . S
O742 C739 1.458 . S
O743 C695 1.468 . S
O743 C696 1.408 . S
H744 C685 0.980 . S
H745 C684 0.959 . S
H746 C684 0.959 . S
H747 C684 0.960 . S
H748 C687 0.929 . S
H749 C691 0.929 . S
H750 C692 0.959 . S
H751 C692 0.961 . S
H752 C692 0.961 . S
H753 C693 0.960 . S
H754 C693 0.960 . S
H755 C693 0.961 . S
H756 C695 0.980 . S
H757 C694 0.961 . S
H758 C694 0.960 . S
H759 C694 0.959 . S
H760 C697 0.930 . S
H761 C701 0.931 . S
H762 C702 0.959 . S
H763 C702 0.961 . S
H764 C702 0.959 . S
H765 C703 0.960 . S
H766 C703 0.960 . S
H767 C703 0.960 . S
H768 C739 0.980 . S
H769 C705 0.930 . S
H770 C709 0.930 . S
H771 C710 0.961 . S
H772 C710 0.960 . S
H773 C710 0.958 . S
H774 C711 0.961 . S
H775 C711 0.960 . S
H776 C711 0.960 . S
H777 C713 0.980 . S
H778 C712 0.961 . S
H779 C712 0.961 . S
H780 C712 0.959 . S
H781 C715 0.932 . S
H782 C719 0.929 . S
H783 C720 0.961 . S
H784 C720 0.959 . S
H785 C720 0.959 . S
H786 C721 0.960 . S
H787 C721 0.962 . S
H788 C721 0.961 . S
H789 C723 0.929 . S
H790 C726 0.930 . S
H791 C727 0.929 . S
H792 C730 0.930 . S
H793 C733 0.929 . S
H794 C734 0.930 . S
H795 C738 0.962 . S
H796 C738 0.959 . S
H797 C738 0.958 . S
C798 C799 1.560 . S
C798 H859 0.959 . S
C798 H860 0.959 . S
C798 H861 0.960 . S
C799 C798 1.560 . S
C799 O854 1.426 . S
C799 H858 0.980 . S
C800 C801 1.407 . S
C800 C805 1.418 . S
C800 O854 1.334 . S
C801 C800 1.407 . S
C801 C802 1.360 . S
C801 H862 0.929 . S
C802 C801 1.360 . S
C802 C803 1.401 . S
C802 C806 1.527 . S
C803 C802 1.401 . S
C803 C804 1.405 . S
C803 C836 1.587 . S
C804 C803 1.405 . S
C804 C805 1.332 . S
C804 C807 1.496 . S
C805 C800 1.418 . S
C805 C804 1.332 . S
C805 H863 0.929 . S
C806 C802 1.527 . S
C806 H864 0.959 . S
C806 H865 0.961 . S
C806 H866 0.961 . S
C807 C804 1.496 . S
C807 H867 0.960 . S
C807 H868 0.960 . S
C807 H869 0.961 . S
C808 C809 1.517 . S
C808 H871 0.961 . S
C808 H872 0.960 . S
C808 H873 0.959 . S
C809 C808 1.517 . S
C809 O857 1.468 . S
C809 H870 0.980 . S
C810 C811 1.349 . S
C810 C815 1.367 . S
C810 O857 1.408 . S
C811 C810 1.349 . S
C811 C812 1.407 . S
C811 H874 0.930 . S
C812 C811 1.407 . S
C812 C813 1.449 . S
C812 C816 1.535 . S
C813 C812 1.449 . S
C813 C814 1.384 . S
C813 C838 1.553 . S
C814 C813 1.384 . S
C814 C815 1.364 . S
C814 C817 1.450 . S
C815 C810 1.367 . S
C815 C814 1.364 . S
C815 H875 0.931 . S
C816 C812 1.535 . S
C816 H876 0.959 . S
C816 H877 0.961 . S
C816 H878 0.959 . S
C817 C814 1.450 . S
C817 H879 0.960 . S
C817 H880 0.960 . S
C817 H881 0.960 . S
C818 C819 1.309 . S
C818 C823 1.304 . S
C818 O856 1.435 . S
C819 C818 1.309 . S
C819 C820 1.476 . S
C819 H883 0.930 . S
C820 C819 1.476 . S
C820 C821 1.400 . S
C820 C824 1.567 . S
C821 C820 1.400 . S
C821 C822 1.373 . S
C821 C843 1.432 . S
C822 C821 1.373 . S
C822 C823 1.339 . S
C822 C825 1.530 . S
C823 C818 1.304 . S
C823 C822 1.339 . S
C823 H884 0.930 . S
C824 C820 1.567 . S
C824 H885 0.961 . S
C824 H886 0.960 . S
C824 H887 0.958 . S
C825 C822 1.530 . S
C825 H888 0.961 . S
C825 H889 0.960 . S
C825 H890 0.960 . S
C826 C827 1.530 . S
C826 H892 0.961 . S
C826 H893 0.961 . S
C826 H894 0.959 . S
C827 C826 1.530 . S
C827 O855 1.412 . S
C827 H891 0.980 . S
C828 C829 1.288 . S
C828 C833 1.377 . S
C828 O855 1.393 . S
C829 C828 1.288 . S
C829 C830 1.369 . S
C829 H895 0.932 . S
C830 C829 1.369 . S
C830 C831 1.398 . S
C830 C834 1.527 . S
C831 C830 1.398 . S
C831 C832 1.380 . S
C831 C845 1.497 . S
C832 C831 1.380 . S
C832 C833 1.383 . S
C832 C835 1.603 . S
C833 C828 1.377 . S
C833 C832 1.383 . S
C833 H896 0.929 . S
C834 C830 1.527 . S
C834 H897 0.961 . S
C834 H898 0.959 . S
C834 H899 0.959 . S
C835 C832 1.603 . S
C835 H900 0.960 . S
C835 H901 0.962 . S
C835 H902 0.961 . S
C836 C803 1.587 . S
C836 C837 1.360 . S
C836 C849 1.412 . S
C837 C836 1.360 . S
C837 C838 1.365 . S
C837 H903 0.929 . S
C838 C813 1.553 . S
C838 C837 1.365 . S
C838 C839 1.404 . S
C839 C838 1.404 . S
C839 C840 1.395 . S
C839 C850 1.451 . S
C840 C839 1.395 . S
C840 C841 1.322 . S
C840 H904 0.930 . S
C841 C840 1.322 . S
C841 C842 1.459 . S
C841 H905 0.929 . S
C842 C841 1.459 . S
C842 C843 1.445 . S
C842 C851 1.395 . S
C843 C821 1.432 . S
C843 C842 1.445 . S
C843 C844 1.370 . S
C844 C843 1.370 . S
C844 C845 1.438 . S
C844 H906 0.930 . S
C845 C831 1.497 . S
C845 C844 1.438 . S
C845 C846 1.360 . S
C846 C845 1.360 . S
C846 C847 1.401 . S
C846 C851 1.446 . S
C847 C846 1.401 . S
C847 C848 1.347 . S
C847 H907 0.929 . S
C848 C847 1.347 . S
C848 C849 1.455 . S
C848 H908 0.930 . S
C849 C836 1.412 . S
C849 C848 1.455 . S
C849 C850 1.331 . S
C850 C839 1.451 . S
C850 C849 1.331 . S
C850 C851 1.497 . S
C851 C842 1.395 . S
C851 C846 1.446 . S
C851 C850 1.497 . S
C852 C853 1.582 . S
C852 H909 0.962 . S
C852 H910 0.959 . S
C852 H911 0.958 . S
C853 C852 1.582 . S
C853 O856 1.458 . S
C853 H882 0.980 . S
O854 C799 1.426 . S
O854 C800 1.334 . S
O855 C827 1.412 . S
O855 C828 1.393 . S
O856 C818 1.435 . S
O856 C853 1.458 . S
O857 C809 1.468 . S
O857 C810 1.408 . S
H858 C799 0.980 . S
H859 C798 0.959 . S
H860 C798 0.959 . S
H861 C798 0.960 . S
H862 C801 0.929 . S
H863 C805 0.929 . S
H864 C806 0.959 . S
H865 C806 0.961 . S
H866 C806 0.961 . S
H867 C807 0.960 . S
H868 C807 0.960 . S
H869 C807 0.961 . S
H870 C809 0.980 . S
H871 C808 0.961 . S
H872 C808 0.960 . S
H873 C808 0.959 . S
H874 C811 0.930 . S
H875 C815 0.931 . S
H876 C816 0.959 . S
H877 C816 0.961 . S
H878 C816 0.959 . S
H879 C817 0.960 . S
H880 C817 0.960 . S
H881 C817 0.960 . S
H882 C853 0.980 . S
H883 C819 0.930 . S
H884 C823 0.930 . S
H885 C824 0.961 . S
H886 C824 0.960 . S
H887 C824 0.958 . S
H888 C825 0.961 . S
H889 C825 0.960 . S
H890 C825 0.960 . S
H891 C827 0.980 . S
H892 C826 0.961 . S
H893 C826 0.961 . S
H894 C826 0.959 . S
H895 C829 0.932 . S
H896 C833 0.929 . S
H897 C834 0.961 . S
H898 C834 0.959 . S
H899 C834 0.959 . S
H900 C835 0.960 . S
H901 C835 0.962 . S
H902 C835 0.961 . S
H903 C837 0.929 . S
H904 C840 0.930 . S
H905 C841 0.929 . S
H906 C844 0.930 . S
H907 C847 0.929 . S
H908 C848 0.930 . S
H909 C852 0.962 . S
H910 C852 0.959 . S
H911 C852 0.958 . S
C912 O914 1.247 . S
C912 O916 1.258 . S
C913 O920 1.247 . S
C913 O921 1.258 . S
O914 C912 1.247 . S
O914 Zn915 2.028 1_655 S
Zn915 O914 2.028 1_455 S
Zn915 O919 2.035 . S
Zn915 O921 2.035 . S
Zn915 O922 2.028 1_455 S
O916 C912 1.258 . S
O916 Zn917 2.035 1_655 S
Zn917 O916 2.035 1_455 S
Zn917 O918 2.028 . S
Zn917 O920 2.028 . S
Zn917 O923 2.035 1_455 S
O918 Zn917 2.028 . S
O918 C924 1.247 . S
O919 Zn915 2.035 . S
O919 C924 1.258 . S
O920 C913 1.247 . S
O920 Zn917 2.028 . S
O921 C913 1.258 . S
O921 Zn915 2.035 . S
O922 Zn915 2.028 1_655 S
O922 C925 1.247 . S
O923 Zn917 2.035 1_655 S
O923 C925 1.258 . S
C924 O918 1.247 . S
C924 O919 1.258 . S
C925 O922 1.247 . S
C925 O923 1.258 . S
C926 O928 1.247 . S
C926 O930 1.258 . S
C927 O934 1.247 . S
C927 O935 1.258 . S
O928 C926 1.247 . S
O928 Zn929 2.028 . S
Zn929 O928 2.028 . S
Zn929 O933 2.035 1_545 S
Zn929 O935 2.035 1_545 S
Zn929 O936 2.028 . S
O930 C926 1.258 . S
O930 Zn931 2.035 . S
Zn931 O930 2.035 . S
Zn931 O932 2.028 1_545 S
Zn931 O934 2.028 1_545 S
Zn931 O937 2.035 . S
O932 Zn931 2.028 1_565 S
O932 C938 1.247 . S
O933 Zn929 2.035 1_565 S
O933 C938 1.258 . S
O934 C927 1.247 . S
O934 Zn931 2.028 1_565 S
O935 C927 1.258 . S
O935 Zn929 2.035 1_565 S
O936 Zn929 2.028 . S
O936 C939 1.247 . S
O937 Zn931 2.035 . S
O937 C939 1.258 . S
C938 O932 1.247 . S
C938 O933 1.258 . S
C939 O936 1.247 . S
C939 O937 1.258 . S
C940 O942 1.247 . S
C940 O944 1.258 . S
C941 O948 1.247 . S
C941 O949 1.258 . S
O942 C940 1.247 . S
O942 Zn943 2.028 1_655 S
Zn943 O942 2.028 1_455 S
Zn943 O947 2.035 . S
Zn943 O949 2.035 . S
Zn943 O950 2.028 1_455 S
O944 C940 1.258 . S
O944 Zn945 2.035 1_655 S
Zn945 O944 2.035 1_455 S
Zn945 O946 2.028 . S
Zn945 O948 2.028 . S
Zn945 O951 2.035 1_455 S
O946 Zn945 2.028 . S
O946 C952 1.247 . S
O947 Zn943 2.035 . S
O947 C952 1.258 . S
O948 C941 1.247 . S
O948 Zn945 2.028 . S
O949 C941 1.258 . S
O949 Zn943 2.035 . S
O950 Zn943 2.028 1_655 S
O950 C953 1.247 . S
O951 Zn945 2.035 1_655 S
O951 C953 1.258 . S
C952 O946 1.247 . S
C952 O947 1.258 . S
C953 O950 1.247 . S
C953 O951 1.258 . S
C954 O956 1.247 . S
C954 O958 1.258 . S
C955 O962 1.247 . S
C955 O963 1.258 . S
O956 C954 1.247 . S
O956 Zn957 2.028 . S
Zn957 O956 2.028 . S
Zn957 O961 2.035 1_545 S
Zn957 O963 2.035 1_545 S
Zn957 O964 2.028 . S
O958 C954 1.258 . S
O958 Zn959 2.035 . S
Zn959 O958 2.035 . S
Zn959 O960 2.028 1_545 S
Zn959 O962 2.028 1_545 S
Zn959 O965 2.035 . S
O960 Zn959 2.028 1_565 S
O960 C966 1.247 . S
O961 Zn957 2.035 1_565 S
O961 C966 1.258 . S
O962 C955 1.247 . S
O962 Zn959 2.028 1_565 S
O963 C955 1.258 . S
O963 Zn957 2.035 1_565 S
O964 Zn957 2.028 . S
O964 C967 1.247 . S
O965 Zn959 2.035 . S
O965 C967 1.258 . S
C966 O960 1.247 . S
C966 O961 1.258 . S
C967 O964 1.247 . S
C967 O965 1.258 . S
C968 O970 1.247 . S
C968 O972 1.258 . S
C969 O976 1.247 . S
C969 O977 1.258 . S
O970 C968 1.247 . S
O970 Zn971 2.040 . S
Zn971 O970 2.040 . S
Zn971 O975 2.048 . S
Zn971 O977 2.023 1_554 S
Zn971 O978 2.015 1_554 S
O972 C968 1.258 . S
O972 Zn973 2.051 . S
Zn973 O972 2.051 . S
Zn973 O974 2.045 . S
Zn973 O976 2.012 1_554 S
Zn973 O979 2.018 1_554 S
O974 Zn973 2.045 . S
O974 C980 1.247 . S
O975 Zn971 2.048 . S
O975 C980 1.258 . S
O976 C969 1.247 . S
O976 Zn973 2.012 1_556 S
O977 C969 1.258 . S
O977 Zn971 2.023 1_556 S
O978 Zn971 2.015 1_556 S
O978 C981 1.247 . S
O979 Zn973 2.018 1_556 S
O979 C981 1.258 . S
C980 O974 1.247 . S
C980 O975 1.258 . S
C981 O978 1.247 . S
C981 O979 1.258 . S
C982 O984 1.247 . S
C982 O986 1.258 . S
C983 O990 1.247 . S
C983 O991 1.258 . S
O984 C982 1.247 . S
O984 Zn985 2.028 . S
Zn985 O984 2.028 . S
Zn985 O989 2.035 . S
Zn985 O991 2.035 1_554 S
Zn985 O992 2.028 1_554 S
O986 C982 1.258 . S
O986 Zn987 2.035 . S
Zn987 O986 2.035 . S
Zn987 O988 2.028 . S
Zn987 O990 2.028 1_554 S
Zn987 O993 2.035 1_554 S
O988 Zn987 2.028 . S
O988 C994 1.247 . S
O989 Zn985 2.035 . S
O989 C994 1.258 . S
O990 C983 1.247 . S
O990 Zn987 2.028 1_556 S
O991 C983 1.258 . S
O991 Zn985 2.035 1_556 S
O992 Zn985 2.028 1_556 S
O992 C995 1.247 . S
O993 Zn987 2.035 1_556 S
O993 C995 1.258 . S
C994 O988 1.247 . S
C994 O989 1.258 . S
C995 O992 1.247 . S
C995 O993 1.258 . S
C996 O998 1.247 . S
C996 O1000 1.258 . S
C997 O1004 1.247 . S
C997 O1005 1.258 . S
O998 C996 1.247 . S
O998 Zn999 2.012 1_556 S
Zn999 O998 2.012 1_554 S
Zn999 O1003 2.020 1_554 S
Zn999 O1005 2.051 . S
Zn999 O1006 2.043 . S
O1000 C996 1.258 . S
O1000 Zn1001 2.023 1_556 S
Zn1001 O1000 2.023 1_554 S
Zn1001 O1002 2.017 1_554 S
Zn1001 O1004 2.040 . S
Zn1001 O1007 2.046 . S
O1002 Zn1001 2.017 1_556 S
O1002 C1008 1.247 . S
O1003 Zn999 2.020 1_556 S
O1003 C1008 1.258 . S
O1004 C997 1.247 . S
O1004 Zn1001 2.040 . S
O1005 C997 1.258 . S
O1005 Zn999 2.051 . S
O1006 Zn999 2.043 . S
O1006 C1009 1.247 . S
O1007 Zn1001 2.046 . S
O1007 C1009 1.258 . S
C1008 O1002 1.247 . S
C1008 O1003 1.258 . S
C1009 O1006 1.247 . S
C1009 O1007 1.258 . S
C1010 O1012 1.247 . S
C1010 O1014 1.258 . S
C1011 O1018 1.247 . S
C1011 O1019 1.258 . S
O1012 C1010 1.247 . S
O1012 Zn1013 2.028 . S
Zn1013 O1012 2.028 . S
Zn1013 O1017 2.035 . S
Zn1013 O1019 2.035 1_554 S
Zn1013 O1020 2.028 1_554 S
O1014 C1010 1.258 . S
O1014 Zn1015 2.035 . S
Zn1015 O1014 2.035 . S
Zn1015 O1016 2.028 . S
Zn1015 O1018 2.028 1_554 S
Zn1015 O1021 2.035 1_554 S
O1016 Zn1015 2.028 . S
O1016 C1022 1.247 . S
O1017 Zn1013 2.035 . S
O1017 C1022 1.258 . S
O1018 C1011 1.247 . S
O1018 Zn1015 2.028 1_556 S
O1019 C1011 1.258 . S
O1019 Zn1013 2.035 1_556 S
O1020 Zn1013 2.028 1_556 S
O1020 C1023 1.247 . S
O1021 Zn1015 2.035 1_556 S
O1021 C1023 1.258 . S
C1022 O1016 1.247 . S
C1022 O1017 1.258 . S
C1023 O1020 1.247 . S
C1023 O1021 1.258 . S
H1024 C1042 0.951 . S
H1025 C1044 0.951 . S
H1026 C1046 0.950 . S
H1027 C1047 0.950 . S
H1028 C1049 0.950 . S
H1029 C1052 0.950 . S
H1030 C1053 0.950 . S
H1031 C1055 0.950 . S
H1032 C1056 0.950 . S
H1033 C1057 0.951 . S
H1034 C1059 0.951 . S
H1035 C1061 0.950 . S
H1036 C1062 0.950 . S
H1037 C1064 0.950 . S
H1038 C1067 0.950 . S
H1039 C1068 0.950 . S
H1040 C1070 0.950 . S
H1041 C1071 0.950 . S
C1042 H1024 0.951 . S
C1042 C1043 1.366 . S
C1042 C1044 1.388 . S
C1043 C1042 1.366 . S
C1043 C1047 1.385 . S
C1044 H1025 0.951 . S
C1044 C1042 1.388 . S
C1044 C1045 1.366 . S
C1045 C1044 1.366 . S
C1045 C1046 1.414 . S
C1045 C1048 1.499 . S
C1046 H1026 0.950 . S
C1046 C1045 1.414 . S
C1046 C1047 1.374 . S
C1047 H1027 0.950 . S
C1047 C1043 1.385 . S
C1047 C1046 1.374 . S
C1048 C1045 1.499 . S
C1048 C1049 1.373 . S
C1048 C1050 1.389 . S
C1049 H1028 0.950 . S
C1049 C1048 1.373 . S
C1049 C1065 1.377 . S
C1050 C1048 1.389 . S
C1050 C1051 1.524 . S
C1050 C1064 1.377 . S
C1051 C1050 1.524 . S
C1051 C1052 1.397 . S
C1051 C1056 1.363 . S
C1052 H1029 0.950 . S
C1052 C1051 1.397 . S
C1052 C1053 1.334 . S
C1053 H1030 0.950 . S
C1053 C1052 1.334 . S
C1053 C1054 1.287 . S
C1054 C1053 1.287 . S
C1054 C1055 1.524 . S
C1054 H1073 0.913 . S
C1055 H1031 0.950 . S
C1055 C1054 1.524 . S
C1055 C1056 1.415 . S
C1056 H1032 0.950 . S
C1056 C1051 1.363 . S
C1056 C1055 1.415 . S
C1057 H1033 0.951 . S
C1057 C1058 1.366 . S
C1057 C1059 1.388 . S
C1058 C1057 1.366 . S
C1058 C1062 1.385 . S
C1059 H1034 0.951 . S
C1059 C1057 1.388 . S
C1059 C1060 1.366 . S
C1060 C1059 1.366 . S
C1060 C1061 1.414 . S
C1060 C1063 1.499 . S
C1061 H1035 0.950 . S
C1061 C1060 1.414 . S
C1061 C1062 1.374 . S
C1062 H1036 0.950 . S
C1062 C1058 1.385 . S
C1062 C1061 1.374 . S
C1063 C1060 1.499 . S
C1063 C1064 1.373 . S
C1063 C1065 1.389 . S
C1064 H1037 0.950 . S
C1064 C1050 1.377 . S
C1064 C1063 1.373 . S
C1065 C1049 1.377 . S
C1065 C1063 1.389 . S
C1065 C1066 1.524 . S
C1066 C1065 1.524 . S
C1066 C1067 1.397 . S
C1066 C1071 1.363 . S
C1067 H1038 0.950 . S
C1067 C1066 1.397 . S
C1067 C1068 1.334 . S
C1068 H1039 0.950 . S
C1068 C1067 1.334 . S
C1068 C1069 1.287 . S
C1069 C1068 1.287 . S
C1069 C1070 1.524 . S
C1069 H1072 0.999 . S
C1070 H1040 0.950 . S
C1070 C1069 1.524 . S
C1070 C1071 1.415 . S
C1071 H1041 0.950 . S
C1071 C1066 1.363 . S
C1071 C1070 1.415 . S
H1072 C1069 0.999 . S
H1073 C1054 0.913 . S
H1074 C1092 0.951 . S
H1075 C1094 0.951 . S
H1076 C1096 0.950 . S
H1077 C1097 0.950 . S
H1078 C1099 0.950 . S
H1079 C1102 0.950 . S
H1080 C1103 0.950 . S
H1081 C1105 0.950 . S
H1082 C1106 0.950 . S
H1083 C1107 0.951 . S
H1084 C1109 0.951 . S
H1085 C1111 0.950 . S
H1086 C1112 0.950 . S
H1087 C1114 0.950 . S
H1088 C1117 0.950 . S
H1089 C1118 0.950 . S
H1090 C1120 0.950 . S
H1091 C1121 0.950 . S
C1092 H1074 0.951 . S
C1092 C1093 1.366 . S
C1092 C1094 1.388 . S
C1093 C1092 1.366 . S
C1093 C1097 1.385 . S
C1094 H1075 0.951 . S
C1094 C1092 1.388 . S
C1094 C1095 1.366 . S
C1095 C1094 1.366 . S
C1095 C1096 1.414 . S
C1095 C1098 1.499 . S
C1096 H1076 0.950 . S
C1096 C1095 1.414 . S
C1096 C1097 1.374 . S
C1097 H1077 0.950 . S
C1097 C1093 1.385 . S
C1097 C1096 1.374 . S
C1098 C1095 1.499 . S
C1098 C1099 1.373 . S
C1098 C1100 1.389 . S
C1099 H1078 0.950 . S
C1099 C1098 1.373 . S
C1099 C1115 1.377 . S
C1100 C1098 1.389 . S
C1100 C1101 1.524 . S
C1100 C1114 1.377 . S
C1101 C1100 1.524 . S
C1101 C1102 1.397 . S
C1101 C1106 1.363 . S
C1102 H1079 0.950 . S
C1102 C1101 1.397 . S
C1102 C1103 1.334 . S
C1103 H1080 0.950 . S
C1103 C1102 1.334 . S
C1103 C1104 1.287 . S
C1104 C1103 1.287 . S
C1104 C1105 1.524 . S
C1104 H1123 0.913 . S
C1105 H1081 0.950 . S
C1105 C1104 1.524 . S
C1105 C1106 1.415 . S
C1106 H1082 0.950 . S
C1106 C1101 1.363 . S
C1106 C1105 1.415 . S
C1107 H1083 0.951 . S
C1107 C1108 1.366 . S
C1107 C1109 1.388 . S
C1108 C1107 1.366 . S
C1108 C1112 1.385 . S
C1109 H1084 0.951 . S
C1109 C1107 1.388 . S
C1109 C1110 1.366 . S
C1110 C1109 1.366 . S
C1110 C1111 1.414 . S
C1110 C1113 1.499 . S
C1111 H1085 0.950 . S
C1111 C1110 1.414 . S
C1111 C1112 1.374 . S
C1112 H1086 0.950 . S
C1112 C1108 1.385 . S
C1112 C1111 1.374 . S
C1113 C1110 1.499 . S
C1113 C1114 1.373 . S
C1113 C1115 1.389 . S
C1114 H1087 0.950 . S
C1114 C1100 1.377 . S
C1114 C1113 1.373 . S
C1115 C1099 1.377 . S
C1115 C1113 1.389 . S
C1115 C1116 1.524 . S
C1116 C1115 1.524 . S
C1116 C1117 1.397 . S
C1116 C1121 1.363 . S
C1117 H1088 0.950 . S
C1117 C1116 1.397 . S
C1117 C1118 1.334 . S
C1118 H1089 0.950 . S
C1118 C1117 1.334 . S
C1118 C1119 1.287 . S
C1119 C1118 1.287 . S
C1119 C1120 1.524 . S
C1119 H1122 0.999 . S
C1120 H1090 0.950 . S
C1120 C1119 1.524 . S
C1120 C1121 1.415 . S
C1121 H1091 0.950 . S
C1121 C1116 1.363 . S
C1121 C1120 1.415 . S
H1122 C1119 0.999 . S
H1123 C1104 0.913 . S
H1124 C1142 0.951 . S
H1125 C1144 0.951 . S
H1126 C1146 0.950 . S
H1127 C1147 0.950 . S
H1128 C1149 0.950 . S
H1129 C1152 0.950 . S
H1130 C1153 0.950 . S
H1131 C1155 0.950 . S
H1132 C1156 0.950 . S
H1133 C1157 0.951 . S
H1134 C1159 0.951 . S
H1135 C1161 0.950 . S
H1136 C1162 0.950 . S
H1137 C1164 0.950 . S
H1138 C1167 0.950 . S
H1139 C1168 0.950 . S
H1140 C1170 0.950 . S
H1141 C1171 0.950 . S
C1142 H1124 0.951 . S
C1142 C1143 1.366 . S
C1142 C1144 1.388 . S
C1143 C1142 1.366 . S
C1143 C1147 1.385 . S
C1144 H1125 0.951 . S
C1144 C1142 1.388 . S
C1144 C1145 1.366 . S
C1145 C1144 1.366 . S
C1145 C1146 1.414 . S
C1145 C1148 1.499 . S
C1146 H1126 0.950 . S
C1146 C1145 1.414 . S
C1146 C1147 1.374 . S
C1147 H1127 0.950 . S
C1147 C1143 1.385 . S
C1147 C1146 1.374 . S
C1148 C1145 1.499 . S
C1148 C1149 1.373 . S
C1148 C1150 1.389 . S
C1149 H1128 0.950 . S
C1149 C1148 1.373 . S
C1149 C1165 1.377 . S
C1150 C1148 1.389 . S
C1150 C1151 1.524 . S
C1150 C1164 1.377 . S
C1151 C1150 1.524 . S
C1151 C1152 1.397 . S
C1151 C1156 1.363 . S
C1152 H1129 0.950 . S
C1152 C1151 1.397 . S
C1152 C1153 1.334 . S
C1153 H1130 0.950 . S
C1153 C1152 1.334 . S
C1153 C1154 1.287 . S
C1154 C1153 1.287 . S
C1154 C1155 1.524 . S
C1154 H1173 0.913 . S
C1155 H1131 0.950 . S
C1155 C1154 1.524 . S
C1155 C1156 1.415 . S
C1156 H1132 0.950 . S
C1156 C1151 1.363 . S
C1156 C1155 1.415 . S
C1157 H1133 0.951 . S
C1157 C1158 1.366 . S
C1157 C1159 1.388 . S
C1158 C1157 1.366 . S
C1158 C1162 1.385 . S
C1159 H1134 0.951 . S
C1159 C1157 1.388 . S
C1159 C1160 1.366 . S
C1160 C1159 1.366 . S
C1160 C1161 1.414 . S
C1160 C1163 1.499 . S
C1161 H1135 0.950 . S
C1161 C1160 1.414 . S
C1161 C1162 1.374 . S
C1162 H1136 0.950 . S
C1162 C1158 1.385 . S
C1162 C1161 1.374 . S
C1163 C1160 1.499 . S
C1163 C1164 1.373 . S
C1163 C1165 1.389 . S
C1164 H1137 0.950 . S
C1164 C1150 1.377 . S
C1164 C1163 1.373 . S
C1165 C1149 1.377 . S
C1165 C1163 1.389 . S
C1165 C1166 1.524 . S
C1166 C1165 1.524 . S
C1166 C1167 1.397 . S
C1166 C1171 1.363 . S
C1167 H1138 0.950 . S
C1167 C1166 1.397 . S
C1167 C1168 1.334 . S
C1168 H1139 0.950 . S
C1168 C1167 1.334 . S
C1168 C1169 1.287 . S
C1169 C1168 1.287 . S
C1169 C1170 1.524 . S
C1169 H1172 0.999 . S
C1170 H1140 0.950 . S
C1170 C1169 1.524 . S
C1170 C1171 1.415 . S
C1171 H1141 0.950 . S
C1171 C1166 1.363 . S
C1171 C1170 1.415 . S
H1172 C1169 0.999 . S
H1173 C1154 0.913 . S
H1174 C1192 0.951 . S
H1175 C1194 0.951 . S
H1176 C1196 0.950 . S
H1177 C1197 0.950 . S
H1178 C1199 0.950 . S
H1179 C1202 0.950 . S
H1180 C1203 0.950 . S
H1181 C1205 0.950 . S
H1182 C1206 0.950 . S
H1183 C1207 0.951 . S
H1184 C1209 0.951 . S
H1185 C1211 0.950 . S
H1186 C1212 0.950 . S
H1187 C1214 0.950 . S
H1188 C1217 0.950 . S
H1189 C1218 0.950 . S
H1190 C1220 0.950 . S
H1191 C1221 0.950 . S
C1192 H1174 0.951 . S
C1192 C1193 1.366 . S
C1192 C1194 1.388 . S
C1193 C1192 1.366 . S
C1193 C1197 1.385 . S
C1194 H1175 0.951 . S
C1194 C1192 1.388 . S
C1194 C1195 1.366 . S
C1195 C1194 1.366 . S
C1195 C1196 1.414 . S
C1195 C1198 1.499 . S
C1196 H1176 0.950 . S
C1196 C1195 1.414 . S
C1196 C1197 1.374 . S
C1197 H1177 0.950 . S
C1197 C1193 1.385 . S
C1197 C1196 1.374 . S
C1198 C1195 1.499 . S
C1198 C1199 1.373 . S
C1198 C1200 1.389 . S
C1199 H1178 0.950 . S
C1199 C1198 1.373 . S
C1199 C1215 1.377 . S
C1200 C1198 1.389 . S
C1200 C1201 1.524 . S
C1200 C1214 1.377 . S
C1201 C1200 1.524 . S
C1201 C1202 1.397 . S
C1201 C1206 1.363 . S
C1202 H1179 0.950 . S
C1202 C1201 1.397 . S
C1202 C1203 1.334 . S
C1203 H1180 0.950 . S
C1203 C1202 1.334 . S
C1203 C1204 1.287 . S
C1204 C1203 1.287 . S
C1204 C1205 1.524 . S
C1204 H1223 0.913 . S
C1205 H1181 0.950 . S
C1205 C1204 1.524 . S
C1205 C1206 1.415 . S
C1206 H1182 0.950 . S
C1206 C1201 1.363 . S
C1206 C1205 1.415 . S
C1207 H1183 0.951 . S
C1207 C1208 1.366 . S
C1207 C1209 1.388 . S
C1208 C1207 1.366 . S
C1208 C1212 1.385 . S
C1209 H1184 0.951 . S
C1209 C1207 1.388 . S
C1209 C1210 1.366 . S
C1210 C1209 1.366 . S
C1210 C1211 1.414 . S
C1210 C1213 1.499 . S
C1211 H1185 0.950 . S
C1211 C1210 1.414 . S
C1211 C1212 1.374 . S
C1212 H1186 0.950 . S
C1212 C1208 1.385 . S
C1212 C1211 1.374 . S
C1213 C1210 1.499 . S
C1213 C1214 1.373 . S
C1213 C1215 1.389 . S
C1214 H1187 0.950 . S
C1214 C1200 1.377 . S
C1214 C1213 1.373 . S
C1215 C1199 1.377 . S
C1215 C1213 1.389 . S
C1215 C1216 1.524 . S
C1216 C1215 1.524 . S
C1216 C1217 1.397 . S
C1216 C1221 1.363 . S
C1217 H1188 0.950 . S
C1217 C1216 1.397 . S
C1217 C1218 1.334 . S
C1218 H1189 0.950 . S
C1218 C1217 1.334 . S
C1218 C1219 1.287 . S
C1219 C1218 1.287 . S
C1219 C1220 1.524 . S
C1219 H1222 0.999 . S
C1220 H1190 0.950 . S
C1220 C1219 1.524 . S
C1220 C1221 1.415 . S
C1221 H1191 0.950 . S
C1221 C1216 1.363 . S
C1221 C1220 1.415 . S
H1222 C1219 0.999 . S
H1223 C1204 0.913 . S
H1224 C1242 0.951 . S
H1225 C1244 0.951 . S
H1226 C1246 0.950 . S
H1227 C1247 0.950 . S
H1228 C1249 0.950 . S
H1229 C1252 0.950 . S
H1230 C1253 0.950 . S
H1231 C1255 0.950 . S
H1232 C1256 0.950 . S
H1233 C1257 0.951 . S
H1234 C1259 0.951 . S
H1235 C1261 0.950 . S
H1236 C1262 0.950 . S
H1237 C1264 0.950 . S
H1238 C1267 0.950 . S
H1239 C1268 0.950 . S
H1240 C1270 0.950 . S
H1241 C1271 0.950 . S
C1242 H1224 0.951 . S
C1242 C1243 1.366 . S
C1242 C1244 1.388 . S
C1243 C1242 1.366 . S
C1243 C1247 1.385 . S
C1244 H1225 0.951 . S
C1244 C1242 1.388 . S
C1244 C1245 1.366 . S
C1245 C1244 1.366 . S
C1245 C1246 1.414 . S
C1245 C1248 1.499 . S
C1246 H1226 0.950 . S
C1246 C1245 1.414 . S
C1246 C1247 1.374 . S
C1247 H1227 0.950 . S
C1247 C1243 1.385 . S
C1247 C1246 1.374 . S
C1248 C1245 1.499 . S
C1248 C1249 1.373 . S
C1248 C1250 1.389 . S
C1249 H1228 0.950 . S
C1249 C1248 1.373 . S
C1249 C1265 1.377 . S
C1250 C1248 1.389 . S
C1250 C1251 1.524 . S
C1250 C1264 1.377 . S
C1251 C1250 1.524 . S
C1251 C1252 1.397 . S
C1251 C1256 1.363 . S
C1252 H1229 0.950 . S
C1252 C1251 1.397 . S
C1252 C1253 1.334 . S
C1253 H1230 0.950 . S
C1253 C1252 1.334 . S
C1253 C1254 1.287 . S
C1254 C1253 1.287 . S
C1254 C1255 1.524 . S
C1254 H1273 0.913 . S
C1255 H1231 0.950 . S
C1255 C1254 1.524 . S
C1255 C1256 1.415 . S
C1256 H1232 0.950 . S
C1256 C1251 1.363 . S
C1256 C1255 1.415 . S
C1257 H1233 0.951 . S
C1257 C1258 1.366 . S
C1257 C1259 1.388 . S
C1258 C1257 1.366 . S
C1258 C1262 1.385 . S
C1259 H1234 0.951 . S
C1259 C1257 1.388 . S
C1259 C1260 1.366 . S
C1260 C1259 1.366 . S
C1260 C1261 1.414 . S
C1260 C1263 1.499 . S
C1261 H1235 0.950 . S
C1261 C1260 1.414 . S
C1261 C1262 1.374 . S
C1262 H1236 0.950 . S
C1262 C1258 1.385 . S
C1262 C1261 1.374 . S
C1263 C1260 1.499 . S
C1263 C1264 1.373 . S
C1263 C1265 1.389 . S
C1264 H1237 0.950 . S
C1264 C1250 1.377 . S
C1264 C1263 1.373 . S
C1265 C1249 1.377 . S
C1265 C1263 1.389 . S
C1265 C1266 1.524 . S
C1266 C1265 1.524 . S
C1266 C1267 1.397 . S
C1266 C1271 1.363 . S
C1267 H1238 0.950 . S
C1267 C1266 1.397 . S
C1267 C1268 1.334 . S
C1268 H1239 0.950 . S
C1268 C1267 1.334 . S
C1268 C1269 1.287 . S
C1269 C1268 1.287 . S
C1269 C1270 1.524 . S
C1269 H1272 0.999 . S
C1270 H1240 0.950 . S
C1270 C1269 1.524 . S
C1270 C1271 1.415 . S
C1271 H1241 0.950 . S
C1271 C1266 1.363 . S
C1271 C1270 1.415 . S
H1272 C1269 0.999 . S
H1273 C1254 0.913 . S
H1274 C1292 0.951 . S
H1275 C1294 0.951 . S
H1276 C1296 0.950 . S
H1277 C1297 0.950 . S
H1278 C1299 0.950 . S
H1279 C1302 0.950 . S
H1280 C1303 0.950 . S
H1281 C1305 0.950 . S
H1282 C1306 0.950 . S
H1283 C1307 0.951 . S
H1284 C1309 0.951 . S
H1285 C1311 0.950 . S
H1286 C1312 0.950 . S
H1287 C1314 0.950 . S
H1288 C1317 0.950 . S
H1289 C1318 0.950 . S
H1290 C1320 0.950 . S
H1291 C1321 0.950 . S
C1292 H1274 0.951 . S
C1292 C1293 1.366 . S
C1292 C1294 1.388 . S
C1293 C1292 1.366 . S
C1293 C1297 1.385 . S
C1294 H1275 0.951 . S
C1294 C1292 1.388 . S
C1294 C1295 1.366 . S
C1295 C1294 1.366 . S
C1295 C1296 1.414 . S
C1295 C1298 1.499 . S
C1296 H1276 0.950 . S
C1296 C1295 1.414 . S
C1296 C1297 1.374 . S
C1297 H1277 0.950 . S
C1297 C1293 1.385 . S
C1297 C1296 1.374 . S
C1298 C1295 1.499 . S
C1298 C1299 1.373 . S
C1298 C1300 1.389 . S
C1299 H1278 0.950 . S
C1299 C1298 1.373 . S
C1299 C1315 1.377 . S
C1300 C1298 1.389 . S
C1300 C1301 1.524 . S
C1300 C1314 1.377 . S
C1301 C1300 1.524 . S
C1301 C1302 1.397 . S
C1301 C1306 1.363 . S
C1302 H1279 0.950 . S
C1302 C1301 1.397 . S
C1302 C1303 1.334 . S
C1303 H1280 0.950 . S
C1303 C1302 1.334 . S
C1303 C1304 1.287 . S
C1304 C1303 1.287 . S
C1304 C1305 1.524 . S
C1304 H1323 0.913 . S
C1305 H1281 0.950 . S
C1305 C1304 1.524 . S
C1305 C1306 1.415 . S
C1306 H1282 0.950 . S
C1306 C1301 1.363 . S
C1306 C1305 1.415 . S
C1307 H1283 0.951 . S
C1307 C1308 1.366 . S
C1307 C1309 1.388 . S
C1308 C1307 1.366 . S
C1308 C1312 1.385 . S
C1309 H1284 0.951 . S
C1309 C1307 1.388 . S
C1309 C1310 1.366 . S
C1310 C1309 1.366 . S
C1310 C1311 1.414 . S
C1310 C1313 1.499 . S
C1311 H1285 0.950 . S
C1311 C1310 1.414 . S
C1311 C1312 1.374 . S
C1312 H1286 0.950 . S
C1312 C1308 1.385 . S
C1312 C1311 1.374 . S
C1313 C1310 1.499 . S
C1313 C1314 1.373 . S
C1313 C1315 1.389 . S
C1314 H1287 0.950 . S
C1314 C1300 1.377 . S
C1314 C1313 1.373 . S
C1315 C1299 1.377 . S
C1315 C1313 1.389 . S
C1315 C1316 1.524 . S
C1316 C1315 1.524 . S
C1316 C1317 1.397 . S
C1316 C1321 1.363 . S
C1317 H1288 0.950 . S
C1317 C1316 1.397 . S
C1317 C1318 1.334 . S
C1318 H1289 0.950 . S
C1318 C1317 1.334 . S
C1318 C1319 1.287 . S
C1319 C1318 1.287 . S
C1319 C1320 1.524 . S
C1319 H1322 0.999 . S
C1320 H1290 0.950 . S
C1320 C1319 1.524 . S
C1320 C1321 1.415 . S
C1321 H1291 0.950 . S
C1321 C1316 1.363 . S
C1321 C1320 1.415 . S
H1322 C1319 0.999 . S
H1323 C1304 0.913 . S
H1324 C1342 0.951 . S
H1325 C1344 0.951 . S
H1326 C1346 0.950 . S
H1327 C1347 0.950 . S
H1328 C1349 0.950 . S
H1329 C1352 0.950 . S
H1330 C1353 0.950 . S
H1331 C1355 0.950 . S
H1332 C1356 0.950 . S
H1333 C1357 0.951 . S
H1334 C1359 0.951 . S
H1335 C1361 0.950 . S
H1336 C1362 0.950 . S
H1337 C1364 0.950 . S
H1338 C1367 0.950 . S
H1339 C1368 0.950 . S
H1340 C1370 0.950 . S
H1341 C1371 0.950 . S
C1342 H1324 0.951 . S
C1342 C1343 1.366 . S
C1342 C1344 1.388 . S
C1343 C1342 1.366 . S
C1343 C1347 1.385 . S
C1344 H1325 0.951 . S
C1344 C1342 1.388 . S
C1344 C1345 1.366 . S
C1345 C1344 1.366 . S
C1345 C1346 1.414 . S
C1345 C1348 1.499 . S
C1346 H1326 0.950 . S
C1346 C1345 1.414 . S
C1346 C1347 1.374 . S
C1347 H1327 0.950 . S
C1347 C1343 1.385 . S
C1347 C1346 1.374 . S
C1348 C1345 1.499 . S
C1348 C1349 1.373 . S
C1348 C1350 1.389 . S
C1349 H1328 0.950 . S
C1349 C1348 1.373 . S
C1349 C1365 1.377 . S
C1350 C1348 1.389 . S
C1350 C1351 1.524 . S
C1350 C1364 1.377 . S
C1351 C1350 1.524 . S
C1351 C1352 1.397 . S
C1351 C1356 1.363 . S
C1352 H1329 0.950 . S
C1352 C1351 1.397 . S
C1352 C1353 1.334 . S
C1353 H1330 0.950 . S
C1353 C1352 1.334 . S
C1353 C1354 1.287 . S
C1354 C1353 1.287 . S
C1354 C1355 1.524 . S
C1354 H1373 0.913 . S
C1355 H1331 0.950 . S
C1355 C1354 1.524 . S
C1355 C1356 1.415 . S
C1356 H1332 0.950 . S
C1356 C1351 1.363 . S
C1356 C1355 1.415 . S
C1357 H1333 0.951 . S
C1357 C1358 1.366 . S
C1357 C1359 1.388 . S
C1358 C1357 1.366 . S
C1358 C1362 1.385 . S
C1359 H1334 0.951 . S
C1359 C1357 1.388 . S
C1359 C1360 1.366 . S
C1360 C1359 1.366 . S
C1360 C1361 1.414 . S
C1360 C1363 1.499 . S
C1361 H1335 0.950 . S
C1361 C1360 1.414 . S
C1361 C1362 1.374 . S
C1362 H1336 0.950 . S
C1362 C1358 1.385 . S
C1362 C1361 1.374 . S
C1363 C1360 1.499 . S
C1363 C1364 1.373 . S
C1363 C1365 1.389 . S
C1364 H1337 0.950 . S
C1364 C1350 1.377 . S
C1364 C1363 1.373 . S
C1365 C1349 1.377 . S
C1365 C1363 1.389 . S
C1365 C1366 1.524 . S
C1366 C1365 1.524 . S
C1366 C1367 1.397 . S
C1366 C1371 1.363 . S
C1367 H1338 0.950 . S
C1367 C1366 1.397 . S
C1367 C1368 1.334 . S
C1368 H1339 0.950 . S
C1368 C1367 1.334 . S
C1368 C1369 1.287 . S
C1369 C1368 1.287 . S
C1369 C1370 1.524 . S
C1369 H1372 0.999 . S
C1370 H1340 0.950 . S
C1370 C1369 1.524 . S
C1370 C1371 1.415 . S
C1371 H1341 0.950 . S
C1371 C1366 1.363 . S
C1371 C1370 1.415 . S
H1372 C1369 0.999 . S
H1373 C1354 0.913 . S
H1374 C1392 0.951 . S
H1375 C1394 0.951 . S
H1376 C1396 0.950 . S
H1377 C1397 0.950 . S
H1378 C1399 0.950 . S
H1379 C1402 0.950 . S
H1380 C1403 0.950 . S
H1381 C1405 0.950 . S
H1382 C1406 0.950 . S
H1383 C1407 0.951 . S
H1384 C1409 0.951 . S
H1385 C1411 0.950 . S
H1386 C1412 0.950 . S
H1387 C1414 0.950 . S
H1388 C1417 0.950 . S
H1389 C1418 0.950 . S
H1390 C1420 0.950 . S
H1391 C1421 0.950 . S
C1392 H1374 0.951 . S
C1392 C1393 1.366 . S
C1392 C1394 1.388 . S
C1393 C1392 1.366 . S
C1393 C1397 1.385 . S
C1394 H1375 0.951 . S
C1394 C1392 1.388 . S
C1394 C1395 1.366 . S
C1395 C1394 1.366 . S
C1395 C1396 1.414 . S
C1395 C1398 1.499 . S
C1396 H1376 0.950 . S
C1396 C1395 1.414 . S
C1396 C1397 1.374 . S
C1397 H1377 0.950 . S
C1397 C1393 1.385 . S
C1397 C1396 1.374 . S
C1398 C1395 1.499 . S
C1398 C1399 1.373 . S
C1398 C1400 1.389 . S
C1399 H1378 0.950 . S
C1399 C1398 1.373 . S
C1399 C1415 1.377 . S
C1400 C1398 1.389 . S
C1400 C1401 1.524 . S
C1400 C1414 1.377 . S
C1401 C1400 1.524 . S
C1401 C1402 1.397 . S
C1401 C1406 1.363 . S
C1402 H1379 0.950 . S
C1402 C1401 1.397 . S
C1402 C1403 1.334 . S
C1403 H1380 0.950 . S
C1403 C1402 1.334 . S
C1403 C1404 1.287 . S
C1404 C1403 1.287 . S
C1404 C1405 1.524 . S
C1404 H1423 0.913 . S
C1405 H1381 0.950 . S
C1405 C1404 1.524 . S
C1405 C1406 1.415 . S
C1406 H1382 0.950 . S
C1406 C1401 1.363 . S
C1406 C1405 1.415 . S
C1407 H1383 0.951 . S
C1407 C1408 1.366 . S
C1407 C1409 1.388 . S
C1408 C1407 1.366 . S
C1408 C1412 1.385 . S
C1409 H1384 0.951 . S
C1409 C1407 1.388 . S
C1409 C1410 1.366 . S
C1410 C1409 1.366 . S
C1410 C1411 1.414 . S
C1410 C1413 1.499 . S
C1411 H1385 0.950 . S
C1411 C1410 1.414 . S
C1411 C1412 1.374 . S
C1412 H1386 0.950 . S
C1412 C1408 1.385 . S
C1412 C1411 1.374 . S
C1413 C1410 1.499 . S
C1413 C1414 1.373 . S
C1413 C1415 1.389 . S
C1414 H1387 0.950 . S
C1414 C1400 1.377 . S
C1414 C1413 1.373 . S
C1415 C1399 1.377 . S
C1415 C1413 1.389 . S
C1415 C1416 1.524 . S
C1416 C1415 1.524 . S
C1416 C1417 1.397 . S
C1416 C1421 1.363 . S
C1417 H1388 0.950 . S
C1417 C1416 1.397 . S
C1417 C1418 1.334 . S
C1418 H1389 0.950 . S
C1418 C1417 1.334 . S
C1418 C1419 1.287 . S
C1419 C1418 1.287 . S
C1419 C1420 1.524 . S
C1419 H1422 0.999 . S
C1420 H1390 0.950 . S
C1420 C1419 1.524 . S
C1420 C1421 1.415 . S
C1421 H1391 0.950 . S
C1421 C1416 1.363 . S
C1421 C1420 1.415 . S
H1422 C1419 0.999 . S
H1423 C1404 0.913 . S
H1424 C1442 0.951 . S
H1425 C1444 0.951 . S
H1426 C1446 0.950 . S
H1427 C1447 0.950 . S
H1428 C1449 0.950 . S
H1429 C1452 0.950 . S
H1430 C1453 0.950 . S
H1431 C1455 0.950 . S
H1432 C1456 0.950 . S
H1433 C1457 0.951 . S
H1434 C1459 0.951 . S
H1435 C1461 0.950 . S
H1436 C1462 0.950 . S
H1437 C1464 0.950 . S
H1438 C1467 0.950 . S
H1439 C1468 0.950 . S
H1440 C1470 0.950 . S
H1441 C1471 0.950 . S
C1442 H1424 0.951 . S
C1442 C1443 1.366 . S
C1442 C1444 1.388 . S
C1443 C1442 1.366 . S
C1443 C1447 1.385 . S
C1444 H1425 0.951 . S
C1444 C1442 1.388 . S
C1444 C1445 1.366 . S
C1445 C1444 1.366 . S
C1445 C1446 1.414 . S
C1445 C1448 1.499 . S
C1446 H1426 0.950 . S
C1446 C1445 1.414 . S
C1446 C1447 1.374 . S
C1447 H1427 0.950 . S
C1447 C1443 1.385 . S
C1447 C1446 1.374 . S
C1448 C1445 1.499 . S
C1448 C1449 1.373 . S
C1448 C1450 1.389 . S
C1449 H1428 0.950 . S
C1449 C1448 1.373 . S
C1449 C1465 1.377 . S
C1450 C1448 1.389 . S
C1450 C1451 1.524 . S
C1450 C1464 1.377 . S
C1451 C1450 1.524 . S
C1451 C1452 1.397 . S
C1451 C1456 1.363 . S
C1452 H1429 0.950 . S
C1452 C1451 1.397 . S
C1452 C1453 1.334 . S
C1453 H1430 0.950 . S
C1453 C1452 1.334 . S
C1453 C1454 1.287 . S
C1454 C1453 1.287 . S
C1454 C1455 1.524 . S
C1454 H1473 0.913 . S
C1455 H1431 0.950 . S
C1455 C1454 1.524 . S
C1455 C1456 1.415 . S
C1456 H1432 0.950 . S
C1456 C1451 1.363 . S
C1456 C1455 1.415 . S
C1457 H1433 0.951 . S
C1457 C1458 1.366 . S
C1457 C1459 1.388 . S
C1458 C1457 1.366 . S
C1458 C1462 1.385 . S
C1459 H1434 0.951 . S
C1459 C1457 1.388 . S
C1459 C1460 1.366 . S
C1460 C1459 1.366 . S
C1460 C1461 1.414 . S
C1460 C1463 1.499 . S
C1461 H1435 0.950 . S
C1461 C1460 1.414 . S
C1461 C1462 1.374 . S
C1462 H1436 0.950 . S
C1462 C1458 1.385 . S
C1462 C1461 1.374 . S
C1463 C1460 1.499 . S
C1463 C1464 1.373 . S
C1463 C1465 1.389 . S
C1464 H1437 0.950 . S
C1464 C1450 1.377 . S
C1464 C1463 1.373 . S
C1465 C1449 1.377 . S
C1465 C1463 1.389 . S
C1465 C1466 1.524 . S
C1466 C1465 1.524 . S
C1466 C1467 1.397 . S
C1466 C1471 1.363 . S
C1467 H1438 0.950 . S
C1467 C1466 1.397 . S
C1467 C1468 1.334 . S
C1468 H1439 0.950 . S
C1468 C1467 1.334 . S
C1468 C1469 1.287 . S
C1469 C1468 1.287 . S
C1469 C1470 1.524 . S
C1469 H1472 0.999 . S
C1470 H1440 0.950 . S
C1470 C1469 1.524 . S
C1470 C1471 1.415 . S
C1471 H1441 0.950 . S
C1471 C1466 1.363 . S
C1471 C1470 1.415 . S
H1472 C1469 0.999 . S
H1473 C1454 0.913 . S
H1474 C1492 0.951 . S
H1475 C1494 0.951 . S
H1476 C1496 0.950 . S
H1477 C1497 0.950 . S
H1478 C1499 0.950 . S
H1479 C1502 0.950 . S
H1480 C1503 0.950 . S
H1481 C1505 0.950 . S
H1482 C1506 0.950 . S
H1483 C1507 0.951 . S
H1484 C1509 0.951 . S
H1485 C1511 0.950 . S
H1486 C1512 0.950 . S
H1487 C1514 0.950 . S
H1488 C1517 0.950 . S
H1489 C1518 0.950 . S
H1490 C1520 0.950 . S
H1491 C1521 0.950 . S
C1492 H1474 0.951 . S
C1492 C1493 1.366 . S
C1492 C1494 1.388 . S
C1493 C1492 1.366 . S
C1493 C1497 1.385 . S
C1494 H1475 0.951 . S
C1494 C1492 1.388 . S
C1494 C1495 1.366 . S
C1495 C1494 1.366 . S
C1495 C1496 1.414 . S
C1495 C1498 1.499 . S
C1496 H1476 0.950 . S
C1496 C1495 1.414 . S
C1496 C1497 1.374 . S
C1497 H1477 0.950 . S
C1497 C1493 1.385 . S
C1497 C1496 1.374 . S
C1498 C1495 1.499 . S
C1498 C1499 1.373 . S
C1498 C1500 1.389 . S
C1499 H1478 0.950 . S
C1499 C1498 1.373 . S
C1499 C1515 1.377 . S
C1500 C1498 1.389 . S
C1500 C1501 1.524 . S
C1500 C1514 1.377 . S
C1501 C1500 1.524 . S
C1501 C1502 1.397 . S
C1501 C1506 1.363 . S
C1502 H1479 0.950 . S
C1502 C1501 1.397 . S
C1502 C1503 1.334 . S
C1503 H1480 0.950 . S
C1503 C1502 1.334 . S
C1503 C1504 1.287 . S
C1504 C1503 1.287 . S
C1504 C1505 1.524 . S
C1504 H1523 0.913 . S
C1505 H1481 0.950 . S
C1505 C1504 1.524 . S
C1505 C1506 1.415 . S
C1506 H1482 0.950 . S
C1506 C1501 1.363 . S
C1506 C1505 1.415 . S
C1507 H1483 0.951 . S
C1507 C1508 1.366 . S
C1507 C1509 1.388 . S
C1508 C1507 1.366 . S
C1508 C1512 1.385 . S
C1509 H1484 0.951 . S
C1509 C1507 1.388 . S
C1509 C1510 1.366 . S
C1510 C1509 1.366 . S
C1510 C1511 1.414 . S
C1510 C1513 1.499 . S
C1511 H1485 0.950 . S
C1511 C1510 1.414 . S
C1511 C1512 1.374 . S
C1512 H1486 0.950 . S
C1512 C1508 1.385 . S
C1512 C1511 1.374 . S
C1513 C1510 1.499 . S
C1513 C1514 1.373 . S
C1513 C1515 1.389 . S
C1514 H1487 0.950 . S
C1514 C1500 1.377 . S
C1514 C1513 1.373 . S
C1515 C1499 1.377 . S
C1515 C1513 1.389 . S
C1515 C1516 1.524 . S
C1516 C1515 1.524 . S
C1516 C1517 1.397 . S
C1516 C1521 1.363 . S
C1517 H1488 0.950 . S
C1517 C1516 1.397 . S
C1517 C1518 1.334 . S
C1518 H1489 0.950 . S
C1518 C1517 1.334 . S
C1518 C1519 1.287 . S
C1519 C1518 1.287 . S
C1519 C1520 1.524 . S
C1519 H1522 0.999 . S
C1520 H1490 0.950 . S
C1520 C1519 1.524 . S
C1520 C1521 1.415 . S
C1521 H1491 0.950 . S
C1521 C1516 1.363 . S
C1521 C1520 1.415 . S
H1522 C1519 0.999 . S
H1523 C1504 0.913 . S
H1524 C1542 0.951 . S
H1525 C1544 0.951 . S
H1526 C1546 0.950 . S
H1527 C1547 0.950 . S
H1528 C1549 0.950 . S
H1529 C1552 0.950 . S
H1530 C1553 0.950 . S
H1531 C1555 0.950 . S
H1532 C1556 0.950 . S
H1533 C1557 0.951 . S
H1534 C1559 0.951 . S
H1535 C1561 0.950 . S
H1536 C1562 0.950 . S
H1537 C1564 0.950 . S
H1538 C1567 0.950 . S
H1539 C1568 0.950 . S
H1540 C1570 0.950 . S
H1541 C1571 0.950 . S
C1542 H1524 0.951 . S
C1542 C1543 1.366 . S
C1542 C1544 1.388 . S
C1543 C1542 1.366 . S
C1543 C1547 1.385 . S
C1544 H1525 0.951 . S
C1544 C1542 1.388 . S
C1544 C1545 1.366 . S
C1545 C1544 1.366 . S
C1545 C1546 1.414 . S
C1545 C1548 1.499 . S
C1546 H1526 0.950 . S
C1546 C1545 1.414 . S
C1546 C1547 1.374 . S
C1547 H1527 0.950 . S
C1547 C1543 1.385 . S
C1547 C1546 1.374 . S
C1548 C1545 1.499 . S
C1548 C1549 1.373 . S
C1548 C1550 1.389 . S
C1549 H1528 0.950 . S
C1549 C1548 1.373 . S
C1549 C1565 1.377 . S
C1550 C1548 1.389 . S
C1550 C1551 1.524 . S
C1550 C1564 1.377 . S
C1551 C1550 1.524 . S
C1551 C1552 1.397 . S
C1551 C1556 1.363 . S
C1552 H1529 0.950 . S
C1552 C1551 1.397 . S
C1552 C1553 1.334 . S
C1553 H1530 0.950 . S
C1553 C1552 1.334 . S
C1553 C1554 1.287 . S
C1554 C1553 1.287 . S
C1554 C1555 1.524 . S
C1554 H1573 0.913 . S
C1555 H1531 0.950 . S
C1555 C1554 1.524 . S
C1555 C1556 1.415 . S
C1556 H1532 0.950 . S
C1556 C1551 1.363 . S
C1556 C1555 1.415 . S
C1557 H1533 0.951 . S
C1557 C1558 1.366 . S
C1557 C1559 1.388 . S
C1558 C1557 1.366 . S
C1558 C1562 1.385 . S
C1559 H1534 0.951 . S
C1559 C1557 1.388 . S
C1559 C1560 1.366 . S
C1560 C1559 1.366 . S
C1560 C1561 1.414 . S
C1560 C1563 1.499 . S
C1561 H1535 0.950 . S
C1561 C1560 1.414 . S
C1561 C1562 1.374 . S
C1562 H1536 0.950 . S
C1562 C1558 1.385 . S
C1562 C1561 1.374 . S
C1563 C1560 1.499 . S
C1563 C1564 1.373 . S
C1563 C1565 1.389 . S
C1564 H1537 0.950 . S
C1564 C1550 1.377 . S
C1564 C1563 1.373 . S
C1565 C1549 1.377 . S
C1565 C1563 1.389 . S
C1565 C1566 1.524 . S
C1566 C1565 1.524 . S
C1566 C1567 1.397 . S
C1566 C1571 1.363 . S
C1567 H1538 0.950 . S
C1567 C1566 1.397 . S
C1567 C1568 1.334 . S
C1568 H1539 0.950 . S
C1568 C1567 1.334 . S
C1568 C1569 1.287 . S
C1569 C1568 1.287 . S
C1569 C1570 1.524 . S
C1569 H1572 0.999 . S
C1570 H1540 0.950 . S
C1570 C1569 1.524 . S
C1570 C1571 1.415 . S
C1571 H1541 0.950 . S
C1571 C1566 1.363 . S
C1571 C1570 1.415 . S
H1572 C1569 0.999 . S
H1573 C1554 0.913 . S
H1574 C1592 0.951 . S
H1575 C1594 0.951 . S
H1576 C1596 0.950 . S
H1577 C1597 0.950 . S
H1578 C1599 0.950 . S
H1579 C1602 0.950 . S
H1580 C1603 0.950 . S
H1581 C1605 0.950 . S
H1582 C1606 0.950 . S
H1583 C1607 0.951 . S
H1584 C1609 0.951 . S
H1585 C1611 0.950 . S
H1586 C1612 0.950 . S
H1587 C1614 0.950 . S
H1588 C1617 0.950 . S
H1589 C1618 0.950 . S
H1590 C1620 0.950 . S
H1591 C1621 0.950 . S
C1592 H1574 0.951 . S
C1592 C1593 1.366 . S
C1592 C1594 1.388 . S
C1593 C1592 1.366 . S
C1593 C1597 1.385 . S
C1594 H1575 0.951 . S
C1594 C1592 1.388 . S
C1594 C1595 1.366 . S
C1595 C1594 1.366 . S
C1595 C1596 1.414 . S
C1595 C1598 1.499 . S
C1596 H1576 0.950 . S
C1596 C1595 1.414 . S
C1596 C1597 1.374 . S
C1597 H1577 0.950 . S
C1597 C1593 1.385 . S
C1597 C1596 1.374 . S
C1598 C1595 1.499 . S
C1598 C1599 1.373 . S
C1598 C1600 1.389 . S
C1599 H1578 0.950 . S
C1599 C1598 1.373 . S
C1599 C1615 1.377 . S
C1600 C1598 1.389 . S
C1600 C1601 1.524 . S
C1600 C1614 1.377 . S
C1601 C1600 1.524 . S
C1601 C1602 1.397 . S
C1601 C1606 1.363 . S
C1602 H1579 0.950 . S
C1602 C1601 1.397 . S
C1602 C1603 1.334 . S
C1603 H1580 0.950 . S
C1603 C1602 1.334 . S
C1603 C1604 1.287 . S
C1604 C1603 1.287 . S
C1604 C1605 1.524 . S
C1604 H1623 0.913 . S
C1605 H1581 0.950 . S
C1605 C1604 1.524 . S
C1605 C1606 1.415 . S
C1606 H1582 0.950 . S
C1606 C1601 1.363 . S
C1606 C1605 1.415 . S
C1607 H1583 0.951 . S
C1607 C1608 1.366 . S
C1607 C1609 1.388 . S
C1608 C1607 1.366 . S
C1608 C1612 1.385 . S
C1609 H1584 0.951 . S
C1609 C1607 1.388 . S
C1609 C1610 1.366 . S
C1610 C1609 1.366 . S
C1610 C1611 1.414 . S
C1610 C1613 1.499 . S
C1611 H1585 0.950 . S
C1611 C1610 1.414 . S
C1611 C1612 1.374 . S
C1612 H1586 0.950 . S
C1612 C1608 1.385 . S
C1612 C1611 1.374 . S
C1613 C1610 1.499 . S
C1613 C1614 1.373 . S
C1613 C1615 1.389 . S
C1614 H1587 0.950 . S
C1614 C1600 1.377 . S
C1614 C1613 1.373 . S
C1615 C1599 1.377 . S
C1615 C1613 1.389 . S
C1615 C1616 1.524 . S
C1616 C1615 1.524 . S
C1616 C1617 1.397 . S
C1616 C1621 1.363 . S
C1617 H1588 0.950 . S
C1617 C1616 1.397 . S
C1617 C1618 1.334 . S
C1618 H1589 0.950 . S
C1618 C1617 1.334 . S
C1618 C1619 1.287 . S
C1619 C1618 1.287 . S
C1619 C1620 1.524 . S
C1619 H1622 0.999 . S
C1620 H1590 0.950 . S
C1620 C1619 1.524 . S
C1620 C1621 1.415 . S
C1621 H1591 0.950 . S
C1621 C1616 1.363 . S
C1621 C1620 1.415 . S
H1622 C1619 0.999 . S
H1623 C1604 0.913 . S
H1624 C1642 0.951 . S
H1625 C1644 0.951 . S
H1626 C1646 0.950 . S
H1627 C1647 0.950 . S
H1628 C1649 0.950 . S
H1629 C1652 0.950 . S
H1630 C1653 0.950 . S
H1631 C1655 0.950 . S
H1632 C1656 0.950 . S
H1633 C1657 0.951 . S
H1634 C1659 0.951 . S
H1635 C1661 0.950 . S
H1636 C1662 0.950 . S
H1637 C1664 0.950 . S
H1638 C1667 0.950 . S
H1639 C1668 0.950 . S
H1640 C1670 0.950 . S
H1641 C1671 0.950 . S
C1642 H1624 0.951 . S
C1642 C1643 1.366 . S
C1642 C1644 1.388 . S
C1643 C1642 1.366 . S
C1643 C1647 1.385 . S
C1644 H1625 0.951 . S
C1644 C1642 1.388 . S
C1644 C1645 1.366 . S
C1645 C1644 1.366 . S
C1645 C1646 1.414 . S
C1645 C1648 1.499 . S
C1646 H1626 0.950 . S
C1646 C1645 1.414 . S
C1646 C1647 1.374 . S
C1647 H1627 0.950 . S
C1647 C1643 1.385 . S
C1647 C1646 1.374 . S
C1648 C1645 1.499 . S
C1648 C1649 1.373 . S
C1648 C1650 1.389 . S
C1649 H1628 0.950 . S
C1649 C1648 1.373 . S
C1649 C1665 1.377 . S
C1650 C1648 1.389 . S
C1650 C1651 1.524 . S
C1650 C1664 1.377 . S
C1651 C1650 1.524 . S
C1651 C1652 1.397 . S
C1651 C1656 1.363 . S
C1652 H1629 0.950 . S
C1652 C1651 1.397 . S
C1652 C1653 1.334 . S
C1653 H1630 0.950 . S
C1653 C1652 1.334 . S
C1653 C1654 1.287 . S
C1654 C1653 1.287 . S
C1654 C1655 1.524 . S
C1654 H1673 0.913 . S
C1655 H1631 0.950 . S
C1655 C1654 1.524 . S
C1655 C1656 1.415 . S
C1656 H1632 0.950 . S
C1656 C1651 1.363 . S
C1656 C1655 1.415 . S
C1657 H1633 0.951 . S
C1657 C1658 1.366 . S
C1657 C1659 1.388 . S
C1658 C1657 1.366 . S
C1658 C1662 1.385 . S
C1659 H1634 0.951 . S
C1659 C1657 1.388 . S
C1659 C1660 1.366 . S
C1660 C1659 1.366 . S
C1660 C1661 1.414 . S
C1660 C1663 1.499 . S
C1661 H1635 0.950 . S
C1661 C1660 1.414 . S
C1661 C1662 1.374 . S
C1662 H1636 0.950 . S
C1662 C1658 1.385 . S
C1662 C1661 1.374 . S
C1663 C1660 1.499 . S
C1663 C1664 1.373 . S
C1663 C1665 1.389 . S
C1664 H1637 0.950 . S
C1664 C1650 1.377 . S
C1664 C1663 1.373 . S
C1665 C1649 1.377 . S
C1665 C1663 1.389 . S
C1665 C1666 1.524 . S
C1666 C1665 1.524 . S
C1666 C1667 1.397 . S
C1666 C1671 1.363 . S
C1667 H1638 0.950 . S
C1667 C1666 1.397 . S
C1667 C1668 1.334 . S
C1668 H1639 0.950 . S
C1668 C1667 1.334 . S
C1668 C1669 1.287 . S
C1669 C1668 1.287 . S
C1669 C1670 1.524 . S
C1669 H1672 0.999 . S
C1670 H1640 0.950 . S
C1670 C1669 1.524 . S
C1670 C1671 1.415 . S
C1671 H1641 0.950 . S
C1671 C1666 1.363 . S
C1671 C1670 1.415 . S
H1672 C1669 0.999 . S
H1673 C1654 0.913 . S
H1674 C1692 0.951 . S
H1675 C1694 0.951 . S
H1676 C1696 0.950 . S
H1677 C1697 0.950 . S
H1678 C1699 0.950 . S
H1679 C1702 0.950 . S
H1680 C1703 0.950 . S
H1681 C1705 0.950 . S
H1682 C1706 0.950 . S
H1683 C1707 0.951 . S
H1684 C1709 0.951 . S
H1685 C1711 0.950 . S
H1686 C1712 0.950 . S
H1687 C1714 0.950 . S
H1688 C1717 0.950 . S
H1689 C1718 0.950 . S
H1690 C1720 0.950 . S
H1691 C1721 0.950 . S
C1692 H1674 0.951 . S
C1692 C1693 1.366 . S
C1692 C1694 1.388 . S
C1693 C1692 1.366 . S
C1693 C1697 1.385 . S
C1694 H1675 0.951 . S
C1694 C1692 1.388 . S
C1694 C1695 1.366 . S
C1695 C1694 1.366 . S
C1695 C1696 1.414 . S
C1695 C1698 1.499 . S
C1696 H1676 0.950 . S
C1696 C1695 1.414 . S
C1696 C1697 1.374 . S
C1697 H1677 0.950 . S
C1697 C1693 1.385 . S
C1697 C1696 1.374 . S
C1698 C1695 1.499 . S
C1698 C1699 1.373 . S
C1698 C1700 1.389 . S
C1699 H1678 0.950 . S
C1699 C1698 1.373 . S
C1699 C1715 1.377 . S
C1700 C1698 1.389 . S
C1700 C1701 1.524 . S
C1700 C1714 1.377 . S
C1701 C1700 1.524 . S
C1701 C1702 1.397 . S
C1701 C1706 1.363 . S
C1702 H1679 0.950 . S
C1702 C1701 1.397 . S
C1702 C1703 1.334 . S
C1703 H1680 0.950 . S
C1703 C1702 1.334 . S
C1703 C1704 1.287 . S
C1704 C1703 1.287 . S
C1704 C1705 1.524 . S
C1704 H1723 0.913 . S
C1705 H1681 0.950 . S
C1705 C1704 1.524 . S
C1705 C1706 1.415 . S
C1706 H1682 0.950 . S
C1706 C1701 1.363 . S
C1706 C1705 1.415 . S
C1707 H1683 0.951 . S
C1707 C1708 1.366 . S
C1707 C1709 1.388 . S
C1708 C1707 1.366 . S
C1708 C1712 1.385 . S
C1709 H1684 0.951 . S
C1709 C1707 1.388 . S
C1709 C1710 1.366 . S
C1710 C1709 1.366 . S
C1710 C1711 1.414 . S
C1710 C1713 1.499 . S
C1711 H1685 0.950 . S
C1711 C1710 1.414 . S
C1711 C1712 1.374 . S
C1712 H1686 0.950 . S
C1712 C1708 1.385 . S
C1712 C1711 1.374 . S
C1713 C1710 1.499 . S
C1713 C1714 1.373 . S
C1713 C1715 1.389 . S
C1714 H1687 0.950 . S
C1714 C1700 1.377 . S
C1714 C1713 1.373 . S
C1715 C1699 1.377 . S
C1715 C1713 1.389 . S
C1715 C1716 1.524 . S
C1716 C1715 1.524 . S
C1716 C1717 1.397 . S
C1716 C1721 1.363 . S
C1717 H1688 0.950 . S
C1717 C1716 1.397 . S
C1717 C1718 1.334 . S
C1718 H1689 0.950 . S
C1718 C1717 1.334 . S
C1718 C1719 1.287 . S
C1719 C1718 1.287 . S
C1719 C1720 1.524 . S
C1719 H1722 0.999 . S
C1720 H1690 0.950 . S
C1720 C1719 1.524 . S
C1720 C1721 1.415 . S
C1721 H1691 0.950 . S
C1721 C1716 1.363 . S
C1721 C1720 1.415 . S
H1722 C1719 0.999 . S
H1723 C1704 0.913 . S
H1724 C1742 0.951 . S
H1725 C1744 0.951 . S
H1726 C1746 0.950 . S
H1727 C1747 0.950 . S
H1728 C1749 0.950 . S
H1729 C1752 0.950 . S
H1730 C1753 0.950 . S
H1731 C1755 0.950 . S
H1732 C1756 0.950 . S
H1733 C1757 0.951 . S
H1734 C1759 0.951 . S
H1735 C1761 0.950 . S
H1736 C1762 0.950 . S
H1737 C1764 0.950 . S
H1738 C1767 0.950 . S
H1739 C1768 0.950 . S
H1740 C1770 0.950 . S
H1741 C1771 0.950 . S
C1742 H1724 0.951 . S
C1742 C1743 1.366 . S
C1742 C1744 1.388 . S
C1743 C1742 1.366 . S
C1743 C1747 1.385 . S
C1744 H1725 0.951 . S
C1744 C1742 1.388 . S
C1744 C1745 1.366 . S
C1745 C1744 1.366 . S
C1745 C1746 1.414 . S
C1745 C1748 1.499 . S
C1746 H1726 0.950 . S
C1746 C1745 1.414 . S
C1746 C1747 1.374 . S
C1747 H1727 0.950 . S
C1747 C1743 1.385 . S
C1747 C1746 1.374 . S
C1748 C1745 1.499 . S
C1748 C1749 1.373 . S
C1748 C1750 1.389 . S
C1749 H1728 0.950 . S
C1749 C1748 1.373 . S
C1749 C1765 1.377 . S
C1750 C1748 1.389 . S
C1750 C1751 1.524 . S
C1750 C1764 1.377 . S
C1751 C1750 1.524 . S
C1751 C1752 1.397 . S
C1751 C1756 1.363 . S
C1752 H1729 0.950 . S
C1752 C1751 1.397 . S
C1752 C1753 1.334 . S
C1753 H1730 0.950 . S
C1753 C1752 1.334 . S
C1753 C1754 1.287 . S
C1754 C1753 1.287 . S
C1754 C1755 1.524 . S
C1754 H1773 0.913 . S
C1755 H1731 0.950 . S
C1755 C1754 1.524 . S
C1755 C1756 1.415 . S
C1756 H1732 0.950 . S
C1756 C1751 1.363 . S
C1756 C1755 1.415 . S
C1757 H1733 0.951 . S
C1757 C1758 1.366 . S
C1757 C1759 1.388 . S
C1758 C1757 1.366 . S
C1758 C1762 1.385 . S
C1759 H1734 0.951 . S
C1759 C1757 1.388 . S
C1759 C1760 1.366 . S
C1760 C1759 1.366 . S
C1760 C1761 1.414 . S
C1760 C1763 1.499 . S
C1761 H1735 0.950 . S
C1761 C1760 1.414 . S
C1761 C1762 1.374 . S
C1762 H1736 0.950 . S
C1762 C1758 1.385 . S
C1762 C1761 1.374 . S
C1763 C1760 1.499 . S
C1763 C1764 1.373 . S
C1763 C1765 1.389 . S
C1764 H1737 0.950 . S
C1764 C1750 1.377 . S
C1764 C1763 1.373 . S
C1765 C1749 1.377 . S
C1765 C1763 1.389 . S
C1765 C1766 1.524 . S
C1766 C1765 1.524 . S
C1766 C1767 1.397 . S
C1766 C1771 1.363 . S
C1767 H1738 0.950 . S
C1767 C1766 1.397 . S
C1767 C1768 1.334 . S
C1768 H1739 0.950 . S
C1768 C1767 1.334 . S
C1768 C1769 1.287 . S
C1769 C1768 1.287 . S
C1769 C1770 1.524 . S
C1769 H1772 0.999 . S
C1770 H1740 0.950 . S
C1770 C1769 1.524 . S
C1770 C1771 1.415 . S
C1771 H1741 0.950 . S
C1771 C1766 1.363 . S
C1771 C1770 1.415 . S
H1772 C1769 0.999 . S
H1773 C1754 0.913 . S
H1774 C1792 0.951 . S
H1775 C1794 0.951 . S
H1776 C1796 0.950 . S
H1777 C1797 0.950 . S
H1778 C1799 0.950 . S
H1779 C1802 0.950 . S
H1780 C1803 0.950 . S
H1781 C1805 0.950 . S
H1782 C1806 0.950 . S
H1783 C1807 0.951 . S
H1784 C1809 0.951 . S
H1785 C1811 0.950 . S
H1786 C1812 0.950 . S
H1787 C1814 0.950 . S
H1788 C1817 0.950 . S
H1789 C1818 0.950 . S
H1790 C1820 0.950 . S
H1791 C1821 0.950 . S
C1792 H1774 0.951 . S
C1792 C1793 1.366 . S
C1792 C1794 1.388 . S
C1793 C1792 1.366 . S
C1793 C1797 1.385 . S
C1794 H1775 0.951 . S
C1794 C1792 1.388 . S
C1794 C1795 1.366 . S
C1795 C1794 1.366 . S
C1795 C1796 1.414 . S
C1795 C1798 1.499 . S
C1796 H1776 0.950 . S
C1796 C1795 1.414 . S
C1796 C1797 1.374 . S
C1797 H1777 0.950 . S
C1797 C1793 1.385 . S
C1797 C1796 1.374 . S
C1798 C1795 1.499 . S
C1798 C1799 1.373 . S
C1798 C1800 1.389 . S
C1799 H1778 0.950 . S
C1799 C1798 1.373 . S
C1799 C1815 1.377 . S
C1800 C1798 1.389 . S
C1800 C1801 1.524 . S
C1800 C1814 1.377 . S
C1801 C1800 1.524 . S
C1801 C1802 1.397 . S
C1801 C1806 1.363 . S
C1802 H1779 0.950 . S
C1802 C1801 1.397 . S
C1802 C1803 1.334 . S
C1803 H1780 0.950 . S
C1803 C1802 1.334 . S
C1803 C1804 1.287 . S
C1804 C1803 1.287 . S
C1804 C1805 1.524 . S
C1804 H1823 0.913 . S
C1805 H1781 0.950 . S
C1805 C1804 1.524 . S
C1805 C1806 1.415 . S
C1806 H1782 0.950 . S
C1806 C1801 1.363 . S
C1806 C1805 1.415 . S
C1807 H1783 0.951 . S
C1807 C1808 1.366 . S
C1807 C1809 1.388 . S
C1808 C1807 1.366 . S
C1808 C1812 1.385 . S
C1809 H1784 0.951 . S
C1809 C1807 1.388 . S
C1809 C1810 1.366 . S
C1810 C1809 1.366 . S
C1810 C1811 1.414 . S
C1810 C1813 1.499 . S
C1811 H1785 0.950 . S
C1811 C1810 1.414 . S
C1811 C1812 1.374 . S
C1812 H1786 0.950 . S
C1812 C1808 1.385 . S
C1812 C1811 1.374 . S
C1813 C1810 1.499 . S
C1813 C1814 1.373 . S
C1813 C1815 1.389 . S
C1814 H1787 0.950 . S
C1814 C1800 1.377 . S
C1814 C1813 1.373 . S
C1815 C1799 1.377 . S
C1815 C1813 1.389 . S
C1815 C1816 1.524 . S
C1816 C1815 1.524 . S
C1816 C1817 1.397 . S
C1816 C1821 1.363 . S
C1817 H1788 0.950 . S
C1817 C1816 1.397 . S
C1817 C1818 1.334 . S
C1818 H1789 0.950 . S
C1818 C1817 1.334 . S
C1818 C1819 1.287 . S
C1819 C1818 1.287 . S
C1819 C1820 1.524 . S
C1819 H1822 0.999 . S
C1820 H1790 0.950 . S
C1820 C1819 1.524 . S
C1820 C1821 1.415 . S
C1821 H1791 0.950 . S
C1821 C1816 1.363 . S
C1821 C1820 1.415 . S
H1822 C1819 0.999 . S
H1823 C1804 0.913 . S
H1824 C1842 0.951 . S
H1825 C1844 0.951 . S
H1826 C1846 0.950 . S
H1827 C1847 0.950 . S
H1828 C1849 0.950 . S
H1829 C1852 0.950 . S
H1830 C1853 0.950 . S
H1831 C1855 0.950 . S
H1832 C1856 0.950 . S
H1833 C1857 0.951 . S
H1834 C1859 0.951 . S
H1835 C1861 0.950 . S
H1836 C1862 0.950 . S
H1837 C1864 0.950 . S
H1838 C1867 0.950 . S
H1839 C1868 0.950 . S
H1840 C1870 0.950 . S
H1841 C1871 0.950 . S
C1842 H1824 0.951 . S
C1842 C1843 1.366 . S
C1842 C1844 1.388 . S
C1843 C1842 1.366 . S
C1843 C1847 1.385 . S
C1844 H1825 0.951 . S
C1844 C1842 1.388 . S
C1844 C1845 1.366 . S
C1845 C1844 1.366 . S
C1845 C1846 1.414 . S
C1845 C1848 1.499 . S
C1846 H1826 0.950 . S
C1846 C1845 1.414 . S
C1846 C1847 1.374 . S
C1847 H1827 0.950 . S
C1847 C1843 1.385 . S
C1847 C1846 1.374 . S
C1848 C1845 1.499 . S
C1848 C1849 1.373 . S
C1848 C1850 1.389 . S
C1849 H1828 0.950 . S
C1849 C1848 1.373 . S
C1849 C1865 1.377 . S
C1850 C1848 1.389 . S
C1850 C1851 1.524 . S
C1850 C1864 1.377 . S
C1851 C1850 1.524 . S
C1851 C1852 1.397 . S
C1851 C1856 1.363 . S
C1852 H1829 0.950 . S
C1852 C1851 1.397 . S
C1852 C1853 1.334 . S
C1853 H1830 0.950 . S
C1853 C1852 1.334 . S
C1853 C1854 1.287 . S
C1854 C1853 1.287 . S
C1854 C1855 1.524 . S
C1854 H1873 0.913 . S
C1855 H1831 0.950 . S
C1855 C1854 1.524 . S
C1855 C1856 1.415 . S
C1856 H1832 0.950 . S
C1856 C1851 1.363 . S
C1856 C1855 1.415 . S
C1857 H1833 0.951 . S
C1857 C1858 1.366 . S
C1857 C1859 1.388 . S
C1858 C1857 1.366 . S
C1858 C1862 1.385 . S
C1859 H1834 0.951 . S
C1859 C1857 1.388 . S
C1859 C1860 1.366 . S
C1860 C1859 1.366 . S
C1860 C1861 1.414 . S
C1860 C1863 1.499 . S
C1861 H1835 0.950 . S
C1861 C1860 1.414 . S
C1861 C1862 1.374 . S
C1862 H1836 0.950 . S
C1862 C1858 1.385 . S
C1862 C1861 1.374 . S
C1863 C1860 1.499 . S
C1863 C1864 1.373 . S
C1863 C1865 1.389 . S
C1864 H1837 0.950 . S
C1864 C1850 1.377 . S
C1864 C1863 1.373 . S
C1865 C1849 1.377 . S
C1865 C1863 1.389 . S
C1865 C1866 1.524 . S
C1866 C1865 1.524 . S
C1866 C1867 1.397 . S
C1866 C1871 1.363 . S
C1867 H1838 0.950 . S
C1867 C1866 1.397 . S
C1867 C1868 1.334 . S
C1868 H1839 0.950 . S
C1868 C1867 1.334 . S
C1868 C1869 1.287 . S
C1869 C1868 1.287 . S
C1869 C1870 1.524 . S
C1869 H1872 0.999 . S
C1870 H1840 0.950 . S
C1870 C1869 1.524 . S
C1870 C1871 1.415 . S
C1871 H1841 0.950 . S
C1871 C1866 1.363 . S
C1871 C1870 1.415 . S
H1872 C1869 0.999 . S
H1873 C1854 0.913 . S
H1874 C1892 0.951 . S
H1875 C1894 0.951 . S
H1876 C1896 0.950 . S
H1877 C1897 0.950 . S
H1878 C1899 0.950 . S
H1879 C1902 0.950 . S
H1880 C1903 0.950 . S
H1881 C1905 0.950 . S
H1882 C1906 0.950 . S
H1883 C1907 0.951 . S
H1884 C1909 0.951 . S
H1885 C1911 0.950 . S
H1886 C1912 0.950 . S
H1887 C1914 0.950 . S
H1888 C1917 0.950 . S
H1889 C1918 0.950 . S
H1890 C1920 0.950 . S
H1891 C1921 0.950 . S
C1892 H1874 0.951 . S
C1892 C1893 1.366 . S
C1892 C1894 1.388 . S
C1893 C1892 1.366 . S
C1893 C1897 1.385 . S
C1894 H1875 0.951 . S
C1894 C1892 1.388 . S
C1894 C1895 1.366 . S
C1895 C1894 1.366 . S
C1895 C1896 1.414 . S
C1895 C1898 1.499 . S
C1896 H1876 0.950 . S
C1896 C1895 1.414 . S
C1896 C1897 1.374 . S
C1897 H1877 0.950 . S
C1897 C1893 1.385 . S
C1897 C1896 1.374 . S
C1898 C1895 1.499 . S
C1898 C1899 1.373 . S
C1898 C1900 1.389 . S
C1899 H1878 0.950 . S
C1899 C1898 1.373 . S
C1899 C1915 1.377 . S
C1900 C1898 1.389 . S
C1900 C1901 1.524 . S
C1900 C1914 1.377 . S
C1901 C1900 1.524 . S
C1901 C1902 1.397 . S
C1901 C1906 1.363 . S
C1902 H1879 0.950 . S
C1902 C1901 1.397 . S
C1902 C1903 1.334 . S
C1903 H1880 0.950 . S
C1903 C1902 1.334 . S
C1903 C1904 1.287 . S
C1904 C1903 1.287 . S
C1904 C1905 1.524 . S
C1904 H1923 0.913 . S
C1905 H1881 0.950 . S
C1905 C1904 1.524 . S
C1905 C1906 1.415 . S
C1906 H1882 0.950 . S
C1906 C1901 1.363 . S
C1906 C1905 1.415 . S
C1907 H1883 0.951 . S
C1907 C1908 1.366 . S
C1907 C1909 1.388 . S
C1908 C1907 1.366 . S
C1908 C1912 1.385 . S
C1909 H1884 0.951 . S
C1909 C1907 1.388 . S
C1909 C1910 1.366 . S
C1910 C1909 1.366 . S
C1910 C1911 1.414 . S
C1910 C1913 1.499 . S
C1911 H1885 0.950 . S
C1911 C1910 1.414 . S
C1911 C1912 1.374 . S
C1912 H1886 0.950 . S
C1912 C1908 1.385 . S
C1912 C1911 1.374 . S
C1913 C1910 1.499 . S
C1913 C1914 1.373 . S
C1913 C1915 1.389 . S
C1914 H1887 0.950 . S
C1914 C1900 1.377 . S
C1914 C1913 1.373 . S
C1915 C1899 1.377 . S
C1915 C1913 1.389 . S
C1915 C1916 1.524 . S
C1916 C1915 1.524 . S
C1916 C1917 1.397 . S
C1916 C1921 1.363 . S
C1917 H1888 0.950 . S
C1917 C1916 1.397 . S
C1917 C1918 1.334 . S
C1918 H1889 0.950 . S
C1918 C1917 1.334 . S
C1918 C1919 1.287 . S
C1919 C1918 1.287 . S
C1919 C1920 1.524 . S
C1919 H1922 1.014 . S
C1920 H1890 0.950 . S
C1920 C1919 1.524 . S
C1920 C1921 1.415 . S
C1921 H1891 0.950 . S
C1921 C1916 1.363 . S
C1921 C1920 1.415 . S
H1922 C1919 1.014 . S
H1923 C1904 0.913 . S
H1924 C1942 0.951 . S
H1925 C1944 0.951 . S
H1926 C1946 0.950 . S
H1927 C1947 0.950 . S
H1928 C1949 0.950 . S
H1929 C1952 0.950 . S
H1930 C1953 0.950 . S
H1931 C1955 0.950 . S
H1932 C1956 0.950 . S
H1933 C1957 0.951 . S
H1934 C1959 0.951 . S
H1935 C1961 0.950 . S
H1936 C1962 0.950 . S
H1937 C1964 0.950 . S
H1938 C1967 0.950 . S
H1939 C1968 0.950 . S
H1940 C1970 0.950 . S
H1941 C1971 0.950 . S
C1942 H1924 0.951 . S
C1942 C1943 1.366 . S
C1942 C1944 1.388 . S
C1943 C1942 1.366 . S
C1943 C1947 1.385 . S
C1944 H1925 0.951 . S
C1944 C1942 1.388 . S
C1944 C1945 1.366 . S
C1945 C1944 1.366 . S
C1945 C1946 1.414 . S
C1945 C1948 1.499 . S
C1946 H1926 0.950 . S
C1946 C1945 1.414 . S
C1946 C1947 1.374 . S
C1947 H1927 0.950 . S
C1947 C1943 1.385 . S
C1947 C1946 1.374 . S
C1948 C1945 1.499 . S
C1948 C1949 1.373 . S
C1948 C1950 1.389 . S
C1949 H1928 0.950 . S
C1949 C1948 1.373 . S
C1949 C1965 1.377 . S
C1950 C1948 1.389 . S
C1950 C1951 1.524 . S
C1950 C1964 1.377 . S
C1951 C1950 1.524 . S
C1951 C1952 1.397 . S
C1951 C1956 1.363 . S
C1952 H1929 0.950 . S
C1952 C1951 1.397 . S
C1952 C1953 1.334 . S
C1953 H1930 0.950 . S
C1953 C1952 1.334 . S
C1953 C1954 1.287 . S
C1954 C1953 1.287 . S
C1954 C1955 1.524 . S
C1954 H1973 0.913 . S
C1955 H1931 0.950 . S
C1955 C1954 1.524 . S
C1955 C1956 1.415 . S
C1956 H1932 0.950 . S
C1956 C1951 1.363 . S
C1956 C1955 1.415 . S
C1957 H1933 0.951 . S
C1957 C1958 1.366 . S
C1957 C1959 1.388 . S
C1958 C1957 1.366 . S
C1958 C1962 1.385 . S
C1959 H1934 0.951 . S
C1959 C1957 1.388 . S
C1959 C1960 1.366 . S
C1960 C1959 1.366 . S
C1960 C1961 1.414 . S
C1960 C1963 1.499 . S
C1961 H1935 0.950 . S
C1961 C1960 1.414 . S
C1961 C1962 1.374 . S
C1962 H1936 0.950 . S
C1962 C1958 1.385 . S
C1962 C1961 1.374 . S
C1963 C1960 1.499 . S
C1963 C1964 1.373 . S
C1963 C1965 1.389 . S
C1964 H1937 0.950 . S
C1964 C1950 1.377 . S
C1964 C1963 1.373 . S
C1965 C1949 1.377 . S
C1965 C1963 1.389 . S
C1965 C1966 1.524 . S
C1966 C1965 1.524 . S
C1966 C1967 1.397 . S
C1966 C1971 1.363 . S
C1967 H1938 0.950 . S
C1967 C1966 1.397 . S
C1967 C1968 1.334 . S
C1968 H1939 0.950 . S
C1968 C1967 1.334 . S
C1968 C1969 1.287 . S
C1969 C1968 1.287 . S
C1969 C1970 1.524 . S
C1969 H1972 0.999 1_556 S
C1970 H1940 0.950 . S
C1970 C1969 1.524 . S
C1970 C1971 1.415 . S
C1971 H1941 0.950 . S
C1971 C1966 1.363 . S
C1971 C1970 1.415 . S
H1972 C1969 0.999 1_554 S
H1973 C1954 0.913 . S
H1974 C1992 0.951 . S
H1975 C1994 0.951 . S
H1976 C1996 0.950 . S
H1977 C1997 0.950 . S
H1978 C1999 0.950 . S
H1979 C2002 0.950 . S
H1980 C2003 0.950 . S
H1981 C2005 0.950 . S
H1982 C2006 0.950 . S
H1983 C2007 0.951 . S
H1984 C2009 0.951 . S
H1985 C2011 0.950 . S
H1986 C2012 0.950 . S
H1987 C2014 0.950 . S
H1988 C2017 0.950 . S
H1989 C2018 0.950 . S
H1990 C2020 0.950 . S
H1991 C2021 0.950 . S
C1992 H1974 0.951 . S
C1992 C1993 1.366 . S
C1992 C1994 1.388 . S
C1993 C1992 1.366 . S
C1993 C1997 1.385 . S
C1994 H1975 0.951 . S
C1994 C1992 1.388 . S
C1994 C1995 1.366 . S
C1995 C1994 1.366 . S
C1995 C1996 1.414 . S
C1995 C1998 1.499 . S
C1996 H1976 0.950 . S
C1996 C1995 1.414 . S
C1996 C1997 1.374 . S
C1997 H1977 0.950 . S
C1997 C1993 1.385 . S
C1997 C1996 1.374 . S
C1998 C1995 1.499 . S
C1998 C1999 1.373 . S
C1998 C2000 1.389 . S
C1999 H1978 0.950 . S
C1999 C1998 1.373 . S
C1999 C2015 1.377 . S
C2000 C1998 1.389 . S
C2000 C2001 1.524 . S
C2000 C2014 1.377 . S
C2001 C2000 1.524 . S
C2001 C2002 1.397 . S
C2001 C2006 1.363 . S
C2002 H1979 0.950 . S
C2002 C2001 1.397 . S
C2002 C2003 1.334 . S
C2003 H1980 0.950 . S
C2003 C2002 1.334 . S
C2003 C2004 1.287 . S
C2004 C2003 1.287 . S
C2004 C2005 1.524 . S
C2004 H2023 0.913 . S
C2005 H1981 0.950 . S
C2005 C2004 1.524 . S
C2005 C2006 1.415 . S
C2006 H1982 0.950 . S
C2006 C2001 1.363 . S
C2006 C2005 1.415 . S
C2007 H1983 0.951 . S
C2007 C2008 1.366 . S
C2007 C2009 1.388 . S
C2008 C2007 1.366 . S
C2008 C2012 1.385 . S
C2009 H1984 0.951 . S
C2009 C2007 1.388 . S
C2009 C2010 1.366 . S
C2010 C2009 1.366 . S
C2010 C2011 1.414 . S
C2010 C2013 1.499 . S
C2011 H1985 0.950 . S
C2011 C2010 1.414 . S
C2011 C2012 1.374 . S
C2012 H1986 0.950 . S
C2012 C2008 1.385 . S
C2012 C2011 1.374 . S
C2013 C2010 1.499 . S
C2013 C2014 1.373 . S
C2013 C2015 1.389 . S
C2014 H1987 0.950 . S
C2014 C2000 1.377 . S
C2014 C2013 1.373 . S
C2015 C1999 1.377 . S
C2015 C2013 1.389 . S
C2015 C2016 1.524 . S
C2016 C2015 1.524 . S
C2016 C2017 1.397 . S
C2016 C2021 1.363 . S
C2017 H1988 0.950 . S
C2017 C2016 1.397 . S
C2017 C2018 1.334 . S
C2018 H1989 0.950 . S
C2018 C2017 1.334 . S
C2018 C2019 1.287 . S
C2019 C2018 1.287 . S
C2019 C2020 1.524 . S
C2019 H2022 0.999 . S
C2020 H1990 0.950 . S
C2020 C2019 1.524 . S
C2020 C2021 1.415 . S
C2021 H1991 0.950 . S
C2021 C2016 1.363 . S
C2021 C2020 1.415 . S
H2022 C2019 0.999 . S
H2023 C2004 0.913 . S
H2024 C2042 0.951 . S
H2025 C2044 0.951 . S
H2026 C2046 0.950 . S
H2027 C2047 0.950 . S
H2028 C2049 0.950 . S
H2029 C2052 0.950 . S
H2030 C2053 0.950 . S
H2031 C2055 0.950 . S
H2032 C2056 0.950 . S
H2033 C2057 0.951 . S
H2034 C2059 0.951 . S
H2035 C2061 0.950 . S
H2036 C2062 0.950 . S
H2037 C2064 0.950 . S
H2038 C2067 0.950 . S
H2039 C2068 0.950 . S
H2040 C2070 0.950 . S
H2041 C2071 0.950 . S
C2042 H2024 0.951 . S
C2042 C2043 1.366 . S
C2042 C2044 1.388 . S
C2043 C2042 1.366 . S
C2043 C2047 1.385 . S
C2044 H2025 0.951 . S
C2044 C2042 1.388 . S
C2044 C2045 1.366 . S
C2045 C2044 1.366 . S
C2045 C2046 1.414 . S
C2045 C2048 1.499 . S
C2046 H2026 0.950 . S
C2046 C2045 1.414 . S
C2046 C2047 1.374 . S
C2047 H2027 0.950 . S
C2047 C2043 1.385 . S
C2047 C2046 1.374 . S
C2048 C2045 1.499 . S
C2048 C2049 1.373 . S
C2048 C2050 1.389 . S
C2049 H2028 0.950 . S
C2049 C2048 1.373 . S
C2049 C2065 1.377 . S
C2050 C2048 1.389 . S
C2050 C2051 1.524 . S
C2050 C2064 1.377 . S
C2051 C2050 1.524 . S
C2051 C2052 1.397 . S
C2051 C2056 1.363 . S
C2052 H2029 0.950 . S
C2052 C2051 1.397 . S
C2052 C2053 1.334 . S
C2053 H2030 0.950 . S
C2053 C2052 1.334 . S
C2053 C2054 1.287 . S
C2054 C2053 1.287 . S
C2054 C2055 1.524 . S
C2054 H2073 0.913 . S
C2055 H2031 0.950 . S
C2055 C2054 1.524 . S
C2055 C2056 1.415 . S
C2056 H2032 0.950 . S
C2056 C2051 1.363 . S
C2056 C2055 1.415 . S
C2057 H2033 0.951 . S
C2057 C2058 1.366 . S
C2057 C2059 1.388 . S
C2058 C2057 1.366 . S
C2058 C2062 1.385 . S
C2059 H2034 0.951 . S
C2059 C2057 1.388 . S
C2059 C2060 1.366 . S
C2060 C2059 1.366 . S
C2060 C2061 1.414 . S
C2060 C2063 1.499 . S
C2061 H2035 0.950 . S
C2061 C2060 1.414 . S
C2061 C2062 1.374 . S
C2062 H2036 0.950 . S
C2062 C2058 1.385 . S
C2062 C2061 1.374 . S
C2063 C2060 1.499 . S
C2063 C2064 1.373 . S
C2063 C2065 1.389 . S
C2064 H2037 0.950 . S
C2064 C2050 1.377 . S
C2064 C2063 1.373 . S
C2065 C2049 1.377 . S
C2065 C2063 1.389 . S
C2065 C2066 1.524 . S
C2066 C2065 1.524 . S
C2066 C2067 1.397 . S
C2066 C2071 1.363 . S
C2067 H2038 0.950 . S
C2067 C2066 1.397 . S
C2067 C2068 1.334 . S
C2068 H2039 0.950 . S
C2068 C2067 1.334 . S
C2068 C2069 1.287 . S
C2069 C2068 1.287 . S
C2069 C2070 1.524 . S
C2069 H2072 0.999 . S
C2070 H2040 0.950 . S
C2070 C2069 1.524 . S
C2070 C2071 1.415 . S
C2071 H2041 0.950 . S
C2071 C2066 1.363 . S
C2071 C2070 1.415 . S
H2072 C2069 0.999 . S
H2073 C2054 0.913 . S
H2074 C2092 0.951 . S
H2075 C2094 0.951 . S
H2076 C2096 0.950 . S
H2077 C2097 0.950 . S
H2078 C2099 0.950 . S
H2079 C2102 0.950 . S
H2080 C2103 0.950 . S
H2081 C2105 0.950 . S
H2082 C2106 0.950 . S
H2083 C2107 0.951 . S
H2084 C2109 0.951 . S
H2085 C2111 0.950 . S
H2086 C2112 0.950 . S
H2087 C2114 0.950 . S
H2088 C2117 0.950 . S
H2089 C2118 0.950 . S
H2090 C2120 0.950 . S
H2091 C2121 0.950 . S
C2092 H2074 0.951 . S
C2092 C2093 1.366 . S
C2092 C2094 1.388 . S
C2093 C2092 1.366 . S
C2093 C2097 1.385 . S
C2094 H2075 0.951 . S
C2094 C2092 1.388 . S
C2094 C2095 1.366 . S
C2095 C2094 1.366 . S
C2095 C2096 1.414 . S
C2095 C2098 1.499 . S
C2096 H2076 0.950 . S
C2096 C2095 1.414 . S
C2096 C2097 1.374 . S
C2097 H2077 0.950 . S
C2097 C2093 1.385 . S
C2097 C2096 1.374 . S
C2098 C2095 1.499 . S
C2098 C2099 1.373 . S
C2098 C2100 1.389 . S
C2099 H2078 0.950 . S
C2099 C2098 1.373 . S
C2099 C2115 1.377 . S
C2100 C2098 1.389 . S
C2100 C2101 1.524 . S
C2100 C2114 1.377 . S
C2101 C2100 1.524 . S
C2101 C2102 1.397 . S
C2101 C2106 1.363 . S
C2102 H2079 0.950 . S
C2102 C2101 1.397 . S
C2102 C2103 1.334 . S
C2103 H2080 0.950 . S
C2103 C2102 1.334 . S
C2103 C2104 1.287 . S
C2104 C2103 1.287 . S
C2104 C2105 1.524 . S
C2104 H2123 0.913 . S
C2105 H2081 0.950 . S
C2105 C2104 1.524 . S
C2105 C2106 1.415 . S
C2106 H2082 0.950 . S
C2106 C2101 1.363 . S
C2106 C2105 1.415 . S
C2107 H2083 0.951 . S
C2107 C2108 1.366 . S
C2107 C2109 1.388 . S
C2108 C2107 1.366 . S
C2108 C2112 1.385 . S
C2109 H2084 0.951 . S
C2109 C2107 1.388 . S
C2109 C2110 1.366 . S
C2110 C2109 1.366 . S
C2110 C2111 1.414 . S
C2110 C2113 1.499 . S
C2111 H2085 0.950 . S
C2111 C2110 1.414 . S
C2111 C2112 1.374 . S
C2112 H2086 0.950 . S
C2112 C2108 1.385 . S
C2112 C2111 1.374 . S
C2113 C2110 1.499 . S
C2113 C2114 1.373 . S
C2113 C2115 1.389 . S
C2114 H2087 0.950 . S
C2114 C2100 1.377 . S
C2114 C2113 1.373 . S
C2115 C2099 1.377 . S
C2115 C2113 1.389 . S
C2115 C2116 1.524 . S
C2116 C2115 1.524 . S
C2116 C2117 1.397 . S
C2116 C2121 1.363 . S
C2117 H2088 0.950 . S
C2117 C2116 1.397 . S
C2117 C2118 1.334 . S
C2118 H2089 0.950 . S
C2118 C2117 1.334 . S
C2118 C2119 1.287 . S
C2119 C2118 1.287 . S
C2119 C2120 1.524 . S
C2119 H2122 0.999 . S
C2120 H2090 0.950 . S
C2120 C2119 1.524 . S
C2120 C2121 1.415 . S
C2121 H2091 0.950 . S
C2121 C2116 1.363 . S
C2121 C2120 1.415 . S
H2122 C2119 0.999 . S
H2123 C2104 0.913 . S
H2124 C2142 0.951 . S
H2125 C2144 0.951 . S
H2126 C2146 0.950 . S
H2127 C2147 0.950 . S
H2128 C2149 0.950 . S
H2129 C2152 0.950 . S
H2130 C2153 0.950 . S
H2131 C2155 0.950 . S
H2132 C2156 0.950 . S
H2133 C2157 0.951 . S
H2134 C2159 0.951 . S
H2135 C2161 0.950 . S
H2136 C2162 0.950 . S
H2137 C2164 0.950 . S
H2138 C2167 0.950 . S
H2139 C2168 0.950 . S
H2140 C2170 0.950 . S
H2141 C2171 0.950 . S
C2142 H2124 0.951 . S
C2142 C2143 1.366 . S
C2142 C2144 1.388 . S
C2143 C2142 1.366 . S
C2143 C2147 1.385 . S
C2144 H2125 0.951 . S
C2144 C2142 1.388 . S
C2144 C2145 1.366 . S
C2145 C2144 1.366 . S
C2145 C2146 1.414 . S
C2145 C2148 1.499 . S
C2146 H2126 0.950 . S
C2146 C2145 1.414 . S
C2146 C2147 1.374 . S
C2147 H2127 0.950 . S
C2147 C2143 1.385 . S
C2147 C2146 1.374 . S
C2148 C2145 1.499 . S
C2148 C2149 1.373 . S
C2148 C2150 1.389 . S
C2149 H2128 0.950 . S
C2149 C2148 1.373 . S
C2149 C2165 1.377 . S
C2150 C2148 1.389 . S
C2150 C2151 1.524 . S
C2150 C2164 1.377 . S
C2151 C2150 1.524 . S
C2151 C2152 1.397 . S
C2151 C2156 1.363 . S
C2152 H2129 0.950 . S
C2152 C2151 1.397 . S
C2152 C2153 1.334 . S
C2153 H2130 0.950 . S
C2153 C2152 1.334 . S
C2153 C2154 1.287 . S
C2154 C2153 1.287 . S
C2154 C2155 1.524 . S
C2154 H2173 0.913 . S
C2155 H2131 0.950 . S
C2155 C2154 1.524 . S
C2155 C2156 1.415 . S
C2156 H2132 0.950 . S
C2156 C2151 1.363 . S
C2156 C2155 1.415 . S
C2157 H2133 0.951 . S
C2157 C2158 1.366 . S
C2157 C2159 1.388 . S
C2158 C2157 1.366 . S
C2158 C2162 1.385 . S
C2159 H2134 0.951 . S
C2159 C2157 1.388 . S
C2159 C2160 1.366 . S
C2160 C2159 1.366 . S
C2160 C2161 1.414 . S
C2160 C2163 1.499 . S
C2161 H2135 0.950 . S
C2161 C2160 1.414 . S
C2161 C2162 1.374 . S
C2162 H2136 0.950 . S
C2162 C2158 1.385 . S
C2162 C2161 1.374 . S
C2163 C2160 1.499 . S
C2163 C2164 1.373 . S
C2163 C2165 1.389 . S
C2164 H2137 0.950 . S
C2164 C2150 1.377 . S
C2164 C2163 1.373 . S
C2165 C2149 1.377 . S
C2165 C2163 1.389 . S
C2165 C2166 1.524 . S
C2166 C2165 1.524 . S
C2166 C2167 1.397 . S
C2166 C2171 1.363 . S
C2167 H2138 0.950 . S
C2167 C2166 1.397 . S
C2167 C2168 1.334 . S
C2168 H2139 0.950 . S
C2168 C2167 1.334 . S
C2168 C2169 1.287 . S
C2169 C2168 1.287 . S
C2169 C2170 1.524 . S
C2169 H2172 0.999 . S
C2170 H2140 0.950 . S
C2170 C2169 1.524 . S
C2170 C2171 1.415 . S
C2171 H2141 0.950 . S
C2171 C2166 1.363 . S
C2171 C2170 1.415 . S
H2172 C2169 0.999 . S
H2173 C2154 0.913 . S
H2174 C2192 0.951 . S
H2175 C2194 0.951 . S
H2176 C2196 0.950 . S
H2177 C2197 0.950 . S
H2178 C2199 0.950 . S
H2179 C2202 0.950 . S
H2180 C2203 0.950 . S
H2181 C2205 0.950 . S
H2182 C2206 0.950 . S
H2183 C2207 0.951 . S
H2184 C2209 0.951 . S
H2185 C2211 0.950 . S
H2186 C2212 0.950 . S
H2187 C2214 0.950 . S
H2188 C2217 0.950 . S
H2189 C2218 0.950 . S
H2190 C2220 0.950 . S
H2191 C2221 0.950 . S
C2192 H2174 0.951 . S
C2192 C2193 1.366 . S
C2192 C2194 1.388 . S
C2193 C2192 1.366 . S
C2193 C2197 1.385 . S
C2194 H2175 0.951 . S
C2194 C2192 1.388 . S
C2194 C2195 1.366 . S
C2195 C2194 1.366 . S
C2195 C2196 1.414 . S
C2195 C2198 1.499 . S
C2196 H2176 0.950 . S
C2196 C2195 1.414 . S
C2196 C2197 1.374 . S
C2197 H2177 0.950 . S
C2197 C2193 1.385 . S
C2197 C2196 1.374 . S
C2198 C2195 1.499 . S
C2198 C2199 1.373 . S
C2198 C2200 1.389 . S
C2199 H2178 0.950 . S
C2199 C2198 1.373 . S
C2199 C2215 1.377 . S
C2200 C2198 1.389 . S
C2200 C2201 1.524 . S
C2200 C2214 1.377 . S
C2201 C2200 1.524 . S
C2201 C2202 1.397 . S
C2201 C2206 1.363 . S
C2202 H2179 0.950 . S
C2202 C2201 1.397 . S
C2202 C2203 1.334 . S
C2203 H2180 0.950 . S
C2203 C2202 1.334 . S
C2203 C2204 1.287 . S
C2204 C2203 1.287 . S
C2204 C2205 1.524 . S
C2204 H2223 0.913 . S
C2205 H2181 0.950 . S
C2205 C2204 1.524 . S
C2205 C2206 1.415 . S
C2206 H2182 0.950 . S
C2206 C2201 1.363 . S
C2206 C2205 1.415 . S
C2207 H2183 0.951 . S
C2207 C2208 1.366 . S
C2207 C2209 1.388 . S
C2208 C2207 1.366 . S
C2208 C2212 1.385 . S
C2209 H2184 0.951 . S
C2209 C2207 1.388 . S
C2209 C2210 1.366 . S
C2210 C2209 1.366 . S
C2210 C2211 1.414 . S
C2210 C2213 1.499 . S
C2211 H2185 0.950 . S
C2211 C2210 1.414 . S
C2211 C2212 1.374 . S
C2212 H2186 0.950 . S
C2212 C2208 1.385 . S
C2212 C2211 1.374 . S
C2213 C2210 1.499 . S
C2213 C2214 1.373 . S
C2213 C2215 1.389 . S
C2214 H2187 0.950 . S
C2214 C2200 1.377 . S
C2214 C2213 1.373 . S
C2215 C2199 1.377 . S
C2215 C2213 1.389 . S
C2215 C2216 1.524 . S
C2216 C2215 1.524 . S
C2216 C2217 1.397 . S
C2216 C2221 1.363 . S
C2217 H2188 0.950 . S
C2217 C2216 1.397 . S
C2217 C2218 1.334 . S
C2218 H2189 0.950 . S
C2218 C2217 1.334 . S
C2218 C2219 1.287 . S
C2219 C2218 1.287 . S
C2219 C2220 1.524 . S
C2219 H2222 0.999 . S
C2220 H2190 0.950 . S
C2220 C2219 1.524 . S
C2220 C2221 1.415 . S
C2221 H2191 0.950 . S
C2221 C2216 1.363 . S
C2221 C2220 1.415 . S
H2222 C2219 0.999 . S
H2223 C2204 0.913 . S
H2224 C2242 0.951 . S
H2225 C2244 0.951 . S
H2226 C2246 0.950 . S
H2227 C2247 0.950 . S
H2228 C2249 0.950 . S
H2229 C2252 0.950 . S
H2230 C2253 0.950 . S
H2231 C2255 0.950 . S
H2232 C2256 0.950 . S
H2233 C2257 0.951 . S
H2234 C2259 0.951 . S
H2235 C2261 0.950 . S
H2236 C2262 0.950 . S
H2237 C2264 0.950 . S
H2238 C2267 0.950 . S
H2239 C2268 0.950 . S
H2240 C2270 0.950 . S
H2241 C2271 0.950 . S
C2242 H2224 0.951 . S
C2242 C2243 1.366 . S
C2242 C2244 1.388 . S
C2243 C2242 1.366 . S
C2243 C2247 1.385 . S
C2244 H2225 0.951 . S
C2244 C2242 1.388 . S
C2244 C2245 1.366 . S
C2245 C2244 1.366 . S
C2245 C2246 1.414 . S
C2245 C2248 1.499 . S
C2246 H2226 0.950 . S
C2246 C2245 1.414 . S
C2246 C2247 1.374 . S
C2247 H2227 0.950 . S
C2247 C2243 1.385 . S
C2247 C2246 1.374 . S
C2248 C2245 1.499 . S
C2248 C2249 1.373 . S
C2248 C2250 1.389 . S
C2249 H2228 0.950 . S
C2249 C2248 1.373 . S
C2249 C2265 1.377 . S
C2250 C2248 1.389 . S
C2250 C2251 1.524 . S
C2250 C2264 1.377 . S
C2251 C2250 1.524 . S
C2251 C2252 1.397 . S
C2251 C2256 1.363 . S
C2252 H2229 0.950 . S
C2252 C2251 1.397 . S
C2252 C2253 1.334 . S
C2253 H2230 0.950 . S
C2253 C2252 1.334 . S
C2253 C2254 1.287 . S
C2254 C2253 1.287 . S
C2254 C2255 1.524 . S
C2254 H2273 0.913 . S
C2255 H2231 0.950 . S
C2255 C2254 1.524 . S
C2255 C2256 1.415 . S
C2256 H2232 0.950 . S
C2256 C2251 1.363 . S
C2256 C2255 1.415 . S
C2257 H2233 0.951 . S
C2257 C2258 1.366 . S
C2257 C2259 1.388 . S
C2258 C2257 1.366 . S
C2258 C2262 1.385 . S
C2259 H2234 0.951 . S
C2259 C2257 1.388 . S
C2259 C2260 1.366 . S
C2260 C2259 1.366 . S
C2260 C2261 1.414 . S
C2260 C2263 1.499 . S
C2261 H2235 0.950 . S
C2261 C2260 1.414 . S
C2261 C2262 1.374 . S
C2262 H2236 0.950 . S
C2262 C2258 1.385 . S
C2262 C2261 1.374 . S
C2263 C2260 1.499 . S
C2263 C2264 1.373 . S
C2263 C2265 1.389 . S
C2264 H2237 0.950 . S
C2264 C2250 1.377 . S
C2264 C2263 1.373 . S
C2265 C2249 1.377 . S
C2265 C2263 1.389 . S
C2265 C2266 1.524 . S
C2266 C2265 1.524 . S
C2266 C2267 1.397 . S
C2266 C2271 1.363 . S
C2267 H2238 0.950 . S
C2267 C2266 1.397 . S
C2267 C2268 1.334 . S
C2268 H2239 0.950 . S
C2268 C2267 1.334 . S
C2268 C2269 1.287 . S
C2269 C2268 1.287 . S
C2269 C2270 1.524 . S
C2269 H2272 0.999 . S
C2270 H2240 0.950 . S
C2270 C2269 1.524 . S
C2270 C2271 1.415 . S
C2271 H2241 0.950 . S
C2271 C2266 1.363 . S
C2271 C2270 1.415 . S
H2272 C2269 0.999 . S
H2273 C2254 0.913 . S
H2274 C2292 0.951 . S
H2275 C2294 0.951 . S
H2276 C2296 0.950 . S
H2277 C2297 0.950 . S
H2278 C2299 0.950 . S
H2279 C2302 0.950 . S
H2280 C2303 0.950 . S
H2281 C2305 0.950 . S
H2282 C2306 0.950 . S
H2283 C2307 0.951 . S
H2284 C2309 0.951 . S
H2285 C2311 0.950 . S
H2286 C2312 0.950 . S
H2287 C2314 0.950 . S
H2288 C2317 0.950 . S
H2289 C2318 0.950 . S
H2290 C2320 0.950 . S
H2291 C2321 0.950 . S
C2292 H2274 0.951 . S
C2292 C2293 1.366 . S
C2292 C2294 1.388 . S
C2293 C2292 1.366 . S
C2293 C2297 1.385 . S
C2294 H2275 0.951 . S
C2294 C2292 1.388 . S
C2294 C2295 1.366 . S
C2295 C2294 1.366 . S
C2295 C2296 1.414 . S
C2295 C2298 1.499 . S
C2296 H2276 0.950 . S
C2296 C2295 1.414 . S
C2296 C2297 1.374 . S
C2297 H2277 0.950 . S
C2297 C2293 1.385 . S
C2297 C2296 1.374 . S
C2298 C2295 1.499 . S
C2298 C2299 1.373 . S
C2298 C2300 1.389 . S
C2299 H2278 0.950 . S
C2299 C2298 1.373 . S
C2299 C2315 1.377 . S
C2300 C2298 1.389 . S
C2300 C2301 1.524 . S
C2300 C2314 1.377 . S
C2301 C2300 1.524 . S
C2301 C2302 1.397 . S
C2301 C2306 1.363 . S
C2302 H2279 0.950 . S
C2302 C2301 1.397 . S
C2302 C2303 1.334 . S
C2303 H2280 0.950 . S
C2303 C2302 1.334 . S
C2303 C2304 1.287 . S
C2304 C2303 1.287 . S
C2304 C2305 1.524 . S
C2304 H2323 0.913 . S
C2305 H2281 0.950 . S
C2305 C2304 1.524 . S
C2305 C2306 1.415 . S
C2306 H2282 0.950 . S
C2306 C2301 1.363 . S
C2306 C2305 1.415 . S
C2307 H2283 0.951 . S
C2307 C2308 1.366 . S
C2307 C2309 1.388 . S
C2308 C2307 1.366 . S
C2308 C2312 1.385 . S
C2309 H2284 0.951 . S
C2309 C2307 1.388 . S
C2309 C2310 1.366 . S
C2310 C2309 1.366 . S
C2310 C2311 1.414 . S
C2310 C2313 1.499 . S
C2311 H2285 0.950 . S
C2311 C2310 1.414 . S
C2311 C2312 1.374 . S
C2312 H2286 0.950 . S
C2312 C2308 1.385 . S
C2312 C2311 1.374 . S
C2313 C2310 1.499 . S
C2313 C2314 1.373 . S
C2313 C2315 1.389 . S
C2314 H2287 0.950 . S
C2314 C2300 1.377 . S
C2314 C2313 1.373 . S
C2315 C2299 1.377 . S
C2315 C2313 1.389 . S
C2315 C2316 1.524 . S
C2316 C2315 1.524 . S
C2316 C2317 1.397 . S
C2316 C2321 1.363 . S
C2317 H2288 0.950 . S
C2317 C2316 1.397 . S
C2317 C2318 1.334 . S
C2318 H2289 0.950 . S
C2318 C2317 1.334 . S
C2318 C2319 1.287 . S
C2319 C2318 1.287 . S
C2319 C2320 1.524 . S
C2319 H2322 0.999 . S
C2320 H2290 0.950 . S
C2320 C2319 1.524 . S
C2320 C2321 1.415 . S
C2321 H2291 0.950 . S
C2321 C2316 1.363 . S
C2321 C2320 1.415 . S
H2322 C2319 0.999 . S
H2323 C2304 0.913 . S
H2324 C2342 0.951 . S
H2325 C2344 0.951 . S
H2326 C2346 0.950 . S
H2327 C2347 0.950 . S
H2328 C2349 0.950 . S
H2329 C2352 0.950 . S
H2330 C2353 0.950 . S
H2331 C2355 0.950 . S
H2332 C2356 0.950 . S
H2333 C2357 0.951 . S
H2334 C2359 0.951 . S
H2335 C2361 0.950 . S
H2336 C2362 0.950 . S
H2337 C2364 0.950 . S
H2338 C2367 0.950 . S
H2339 C2368 0.950 . S
H2340 C2370 0.950 . S
H2341 C2371 0.950 . S
C2342 H2324 0.951 . S
C2342 C2343 1.366 . S
C2342 C2344 1.388 . S
C2343 C2342 1.366 . S
C2343 C2347 1.385 . S
C2344 H2325 0.951 . S
C2344 C2342 1.388 . S
C2344 C2345 1.366 . S
C2345 C2344 1.366 . S
C2345 C2346 1.414 . S
C2345 C2348 1.499 . S
C2346 H2326 0.950 . S
C2346 C2345 1.414 . S
C2346 C2347 1.374 . S
C2347 H2327 0.950 . S
C2347 C2343 1.385 . S
C2347 C2346 1.374 . S
C2348 C2345 1.499 . S
C2348 C2349 1.373 . S
C2348 C2350 1.389 . S
C2349 H2328 0.950 . S
C2349 C2348 1.373 . S
C2349 C2365 1.377 . S
C2350 C2348 1.389 . S
C2350 C2351 1.524 . S
C2350 C2364 1.377 . S
C2351 C2350 1.524 . S
C2351 C2352 1.397 . S
C2351 C2356 1.363 . S
C2352 H2329 0.950 . S
C2352 C2351 1.397 . S
C2352 C2353 1.334 . S
C2353 H2330 0.950 . S
C2353 C2352 1.334 . S
C2353 C2354 1.287 . S
C2354 C2353 1.287 . S
C2354 C2355 1.524 . S
C2354 H2373 0.913 . S
C2355 H2331 0.950 . S
C2355 C2354 1.524 . S
C2355 C2356 1.415 . S
C2356 H2332 0.950 . S
C2356 C2351 1.363 . S
C2356 C2355 1.415 . S
C2357 H2333 0.951 . S
C2357 C2358 1.366 . S
C2357 C2359 1.388 . S
C2358 C2357 1.366 . S
C2358 C2362 1.385 . S
C2359 H2334 0.951 . S
C2359 C2357 1.388 . S
C2359 C2360 1.366 . S
C2360 C2359 1.366 . S
C2360 C2361 1.414 . S
C2360 C2363 1.499 . S
C2361 H2335 0.950 . S
C2361 C2360 1.414 . S
C2361 C2362 1.374 . S
C2362 H2336 0.950 . S
C2362 C2358 1.385 . S
C2362 C2361 1.374 . S
C2363 C2360 1.499 . S
C2363 C2364 1.373 . S
C2363 C2365 1.389 . S
C2364 H2337 0.950 . S
C2364 C2350 1.377 . S
C2364 C2363 1.373 . S
C2365 C2349 1.377 . S
C2365 C2363 1.389 . S
C2365 C2366 1.524 . S
C2366 C2365 1.524 . S
C2366 C2367 1.397 . S
C2366 C2371 1.363 . S
C2367 H2338 0.950 . S
C2367 C2366 1.397 . S
C2367 C2368 1.334 . S
C2368 H2339 0.950 . S
C2368 C2367 1.334 . S
C2368 C2369 1.287 . S
C2369 C2368 1.287 . S
C2369 C2370 1.524 . S
C2369 H2372 0.999 . S
C2370 H2340 0.950 . S
C2370 C2369 1.524 . S
C2370 C2371 1.415 . S
C2371 H2341 0.950 . S
C2371 C2366 1.363 . S
C2371 C2370 1.415 . S
H2372 C2369 0.999 . S
H2373 C2354 0.913 . S
H2374 C2392 0.951 . S
H2375 C2394 0.951 . S
H2376 C2396 0.950 . S
H2377 C2397 0.950 . S
H2378 C2399 0.950 . S
H2379 C2402 0.950 . S
H2380 C2403 0.950 . S
H2381 C2405 0.950 . S
H2382 C2406 0.950 . S
H2383 C2407 0.951 . S
H2384 C2409 0.951 . S
H2385 C2411 0.950 . S
H2386 C2412 0.950 . S
H2387 C2414 0.950 . S
H2388 C2417 0.950 . S
H2389 C2418 0.950 . S
H2390 C2420 0.950 . S
H2391 C2421 0.950 . S
C2392 H2374 0.951 . S
C2392 C2393 1.366 . S
C2392 C2394 1.388 . S
C2393 C2392 1.366 . S
C2393 C2397 1.385 . S
C2394 H2375 0.951 . S
C2394 C2392 1.388 . S
C2394 C2395 1.366 . S
C2395 C2394 1.366 . S
C2395 C2396 1.414 . S
C2395 C2398 1.499 . S
C2396 H2376 0.950 . S
C2396 C2395 1.414 . S
C2396 C2397 1.374 . S
C2397 H2377 0.950 . S
C2397 C2393 1.385 . S
C2397 C2396 1.374 . S
C2398 C2395 1.499 . S
C2398 C2399 1.373 . S
C2398 C2400 1.389 . S
C2399 H2378 0.950 . S
C2399 C2398 1.373 . S
C2399 C2415 1.377 . S
C2400 C2398 1.389 . S
C2400 C2401 1.524 . S
C2400 C2414 1.377 . S
C2401 C2400 1.524 . S
C2401 C2402 1.397 . S
C2401 C2406 1.363 . S
C2402 H2379 0.950 . S
C2402 C2401 1.397 . S
C2402 C2403 1.334 . S
C2403 H2380 0.950 . S
C2403 C2402 1.334 . S
C2403 C2404 1.287 . S
C2404 C2403 1.287 . S
C2404 C2405 1.524 . S
C2404 H2423 0.913 . S
C2405 H2381 0.950 . S
C2405 C2404 1.524 . S
C2405 C2406 1.415 . S
C2406 H2382 0.950 . S
C2406 C2401 1.363 . S
C2406 C2405 1.415 . S
C2407 H2383 0.951 . S
C2407 C2408 1.366 . S
C2407 C2409 1.388 . S
C2408 C2407 1.366 . S
C2408 C2412 1.385 . S
C2409 H2384 0.951 . S
C2409 C2407 1.388 . S
C2409 C2410 1.366 . S
C2410 C2409 1.366 . S
C2410 C2411 1.414 . S
C2410 C2413 1.499 . S
C2411 H2385 0.950 . S
C2411 C2410 1.414 . S
C2411 C2412 1.374 . S
C2412 H2386 0.950 . S
C2412 C2408 1.385 . S
C2412 C2411 1.374 . S
C2413 C2410 1.499 . S
C2413 C2414 1.373 . S
C2413 C2415 1.389 . S
C2414 H2387 0.950 . S
C2414 C2400 1.377 . S
C2414 C2413 1.373 . S
C2415 C2399 1.377 . S
C2415 C2413 1.389 . S
C2415 C2416 1.524 . S
C2416 C2415 1.524 . S
C2416 C2417 1.397 . S
C2416 C2421 1.363 . S
C2417 H2388 0.950 . S
C2417 C2416 1.397 . S
C2417 C2418 1.334 . S
C2418 H2389 0.950 . S
C2418 C2417 1.334 . S
C2418 C2419 1.287 . S
C2419 C2418 1.287 . S
C2419 C2420 1.524 . S
C2419 H2422 0.999 . S
C2420 H2390 0.950 . S
C2420 C2419 1.524 . S
C2420 C2421 1.415 . S
C2421 H2391 0.950 . S
C2421 C2416 1.363 . S
C2421 C2420 1.415 . S
H2422 C2419 0.999 . S
H2423 C2404 0.913 . S
H2424 C2442 0.951 . S
H2425 C2444 0.951 . S
H2426 C2446 0.950 . S
H2427 C2447 0.950 . S
H2428 C2449 0.950 . S
H2429 C2452 0.950 . S
H2430 C2453 0.950 . S
H2431 C2455 0.950 . S
H2432 C2456 0.950 . S
H2433 C2457 0.951 . S
H2434 C2459 0.951 . S
H2435 C2461 0.950 . S
H2436 C2462 0.950 . S
H2437 C2464 0.950 . S
H2438 C2467 0.950 . S
H2439 C2468 0.950 . S
H2440 C2470 0.950 . S
H2441 C2471 0.950 . S
C2442 H2424 0.951 . S
C2442 C2443 1.366 . S
C2442 C2444 1.388 . S
C2443 C2442 1.366 . S
C2443 C2447 1.385 . S
C2444 H2425 0.951 . S
C2444 C2442 1.388 . S
C2444 C2445 1.366 . S
C2445 C2444 1.366 . S
C2445 C2446 1.414 . S
C2445 C2448 1.499 . S
C2446 H2426 0.950 . S
C2446 C2445 1.414 . S
C2446 C2447 1.374 . S
C2447 H2427 0.950 . S
C2447 C2443 1.385 . S
C2447 C2446 1.374 . S
C2448 C2445 1.499 . S
C2448 C2449 1.373 . S
C2448 C2450 1.389 . S
C2449 H2428 0.950 . S
C2449 C2448 1.373 . S
C2449 C2465 1.377 . S
C2450 C2448 1.389 . S
C2450 C2451 1.524 . S
C2450 C2464 1.377 . S
C2451 C2450 1.524 . S
C2451 C2452 1.397 . S
C2451 C2456 1.363 . S
C2452 H2429 0.950 . S
C2452 C2451 1.397 . S
C2452 C2453 1.334 . S
C2453 H2430 0.950 . S
C2453 C2452 1.334 . S
C2453 C2454 1.287 . S
C2454 C2453 1.287 . S
C2454 C2455 1.524 . S
C2454 H2473 0.913 . S
C2455 H2431 0.950 . S
C2455 C2454 1.524 . S
C2455 C2456 1.415 . S
C2456 H2432 0.950 . S
C2456 C2451 1.363 . S
C2456 C2455 1.415 . S
C2457 H2433 0.951 . S
C2457 C2458 1.366 . S
C2457 C2459 1.388 . S
C2458 C2457 1.366 . S
C2458 C2462 1.385 . S
C2459 H2434 0.951 . S
C2459 C2457 1.388 . S
C2459 C2460 1.366 . S
C2460 C2459 1.366 . S
C2460 C2461 1.414 . S
C2460 C2463 1.499 . S
C2461 H2435 0.950 . S
C2461 C2460 1.414 . S
C2461 C2462 1.374 . S
C2462 H2436 0.950 . S
C2462 C2458 1.385 . S
C2462 C2461 1.374 . S
C2463 C2460 1.499 . S
C2463 C2464 1.373 . S
C2463 C2465 1.389 . S
C2464 H2437 0.950 . S
C2464 C2450 1.377 . S
C2464 C2463 1.373 . S
C2465 C2449 1.377 . S
C2465 C2463 1.389 . S
C2465 C2466 1.524 . S
C2466 C2465 1.524 . S
C2466 C2467 1.397 . S
C2466 C2471 1.363 . S
C2467 H2438 0.950 . S
C2467 C2466 1.397 . S
C2467 C2468 1.334 . S
C2468 H2439 0.950 . S
C2468 C2467 1.334 . S
C2468 C2469 1.287 . S
C2469 C2468 1.287 . S
C2469 C2470 1.524 . S
C2469 H2472 0.999 . S
C2470 H2440 0.950 . S
C2470 C2469 1.524 . S
C2470 C2471 1.415 . S
C2471 H2441 0.950 . S
C2471 C2466 1.363 . S
C2471 C2470 1.415 . S
H2472 C2469 0.999 . S
H2473 C2454 0.913 . S
H2474 C2492 0.951 . S
H2475 C2494 0.951 . S
H2476 C2496 0.950 . S
H2477 C2497 0.950 . S
H2478 C2499 0.950 . S
H2479 C2502 0.950 . S
H2480 C2503 0.950 . S
H2481 C2505 0.950 . S
H2482 C2506 0.950 . S
H2483 C2507 0.951 . S
H2484 C2509 0.951 . S
H2485 C2511 0.950 . S
H2486 C2512 0.950 . S
H2487 C2514 0.950 . S
H2488 C2517 0.950 . S
H2489 C2518 0.950 . S
H2490 C2520 0.950 . S
H2491 C2521 0.950 . S
C2492 H2474 0.951 . S
C2492 C2493 1.366 . S
C2492 C2494 1.388 . S
C2493 C2492 1.366 . S
C2493 C2497 1.385 . S
C2494 H2475 0.951 . S
C2494 C2492 1.388 . S
C2494 C2495 1.366 . S
C2495 C2494 1.366 . S
C2495 C2496 1.414 . S
C2495 C2498 1.499 . S
C2496 H2476 0.950 . S
C2496 C2495 1.414 . S
C2496 C2497 1.374 . S
C2497 H2477 0.950 . S
C2497 C2493 1.385 . S
C2497 C2496 1.374 . S
C2498 C2495 1.499 . S
C2498 C2499 1.373 . S
C2498 C2500 1.389 . S
C2499 H2478 0.950 . S
C2499 C2498 1.373 . S
C2499 C2515 1.377 . S
C2500 C2498 1.389 . S
C2500 C2501 1.524 . S
C2500 C2514 1.377 . S
C2501 C2500 1.524 . S
C2501 C2502 1.397 . S
C2501 C2506 1.363 . S
C2502 H2479 0.950 . S
C2502 C2501 1.397 . S
C2502 C2503 1.334 . S
C2503 H2480 0.950 . S
C2503 C2502 1.334 . S
C2503 C2504 1.287 . S
C2504 C2503 1.287 . S
C2504 C2505 1.524 . S
C2504 H2523 0.913 . S
C2505 H2481 0.950 . S
C2505 C2504 1.524 . S
C2505 C2506 1.415 . S
C2506 H2482 0.950 . S
C2506 C2501 1.363 . S
C2506 C2505 1.415 . S
C2507 H2483 0.951 . S
C2507 C2508 1.366 . S
C2507 C2509 1.388 . S
C2508 C2507 1.366 . S
C2508 C2512 1.385 . S
C2509 H2484 0.951 . S
C2509 C2507 1.388 . S
C2509 C2510 1.366 . S
C2510 C2509 1.366 . S
C2510 C2511 1.414 . S
C2510 C2513 1.499 . S
C2511 H2485 0.950 . S
C2511 C2510 1.414 . S
C2511 C2512 1.374 . S
C2512 H2486 0.950 . S
C2512 C2508 1.385 . S
C2512 C2511 1.374 . S
C2513 C2510 1.499 . S
C2513 C2514 1.373 . S
C2513 C2515 1.389 . S
C2514 H2487 0.950 . S
C2514 C2500 1.377 . S
C2514 C2513 1.373 . S
C2515 C2499 1.377 . S
C2515 C2513 1.389 . S
C2515 C2516 1.524 . S
C2516 C2515 1.524 . S
C2516 C2517 1.397 . S
C2516 C2521 1.363 . S
C2517 H2488 0.950 . S
C2517 C2516 1.397 . S
C2517 C2518 1.334 . S
C2518 H2489 0.950 . S
C2518 C2517 1.334 . S
C2518 C2519 1.287 . S
C2519 C2518 1.287 . S
C2519 C2520 1.524 . S
C2519 H2522 0.999 . S
C2520 H2490 0.950 . S
C2520 C2519 1.524 . S
C2520 C2521 1.415 . S
C2521 H2491 0.950 . S
C2521 C2516 1.363 . S
C2521 C2520 1.415 . S
H2522 C2519 0.999 . S
H2523 C2504 0.913 . S
H2524 C2542 0.951 . S
H2525 C2544 0.951 . S
H2526 C2546 0.950 . S
H2527 C2547 0.950 . S
H2528 C2549 0.950 . S
H2529 C2552 0.950 . S
H2530 C2553 0.950 . S
H2531 C2555 0.950 . S
H2532 C2556 0.950 . S
H2533 C2557 0.951 . S
H2534 C2559 0.951 . S
H2535 C2561 0.950 . S
H2536 C2562 0.950 . S
H2537 C2564 0.950 . S
H2538 C2567 0.950 . S
H2539 C2568 0.950 . S
H2540 C2570 0.950 . S
H2541 C2571 0.950 . S
C2542 H2524 0.951 . S
C2542 C2543 1.366 . S
C2542 C2544 1.388 . S
C2543 C2542 1.366 . S
C2543 C2547 1.385 . S
C2544 H2525 0.951 . S
C2544 C2542 1.388 . S
C2544 C2545 1.366 . S
C2545 C2544 1.366 . S
C2545 C2546 1.414 . S
C2545 C2548 1.499 . S
C2546 H2526 0.950 . S
C2546 C2545 1.414 . S
C2546 C2547 1.374 . S
C2547 H2527 0.950 . S
C2547 C2543 1.385 . S
C2547 C2546 1.374 . S
C2548 C2545 1.499 . S
C2548 C2549 1.373 . S
C2548 C2550 1.389 . S
C2549 H2528 0.950 . S
C2549 C2548 1.373 . S
C2549 C2565 1.377 . S
C2550 C2548 1.389 . S
C2550 C2551 1.524 . S
C2550 C2564 1.377 . S
C2551 C2550 1.524 . S
C2551 C2552 1.397 . S
C2551 C2556 1.363 . S
C2552 H2529 0.950 . S
C2552 C2551 1.397 . S
C2552 C2553 1.334 . S
C2553 H2530 0.950 . S
C2553 C2552 1.334 . S
C2553 C2554 1.287 . S
C2554 C2553 1.287 . S
C2554 C2555 1.524 . S
C2554 H2573 0.913 . S
C2555 H2531 0.950 . S
C2555 C2554 1.524 . S
C2555 C2556 1.415 . S
C2556 H2532 0.950 . S
C2556 C2551 1.363 . S
C2556 C2555 1.415 . S
C2557 H2533 0.951 . S
C2557 C2558 1.366 . S
C2557 C2559 1.388 . S
C2558 C2557 1.366 . S
C2558 C2562 1.385 . S
C2559 H2534 0.951 . S
C2559 C2557 1.388 . S
C2559 C2560 1.366 . S
C2560 C2559 1.366 . S
C2560 C2561 1.414 . S
C2560 C2563 1.499 . S
C2561 H2535 0.950 . S
C2561 C2560 1.414 . S
C2561 C2562 1.374 . S
C2562 H2536 0.950 . S
C2562 C2558 1.385 . S
C2562 C2561 1.374 . S
C2563 C2560 1.499 . S
C2563 C2564 1.373 . S
C2563 C2565 1.389 . S
C2564 H2537 0.950 . S
C2564 C2550 1.377 . S
C2564 C2563 1.373 . S
C2565 C2549 1.377 . S
C2565 C2563 1.389 . S
C2565 C2566 1.524 . S
C2566 C2565 1.524 . S
C2566 C2567 1.397 . S
C2566 C2571 1.363 . S
C2567 H2538 0.950 . S
C2567 C2566 1.397 . S
C2567 C2568 1.334 . S
C2568 H2539 0.950 . S
C2568 C2567 1.334 . S
C2568 C2569 1.287 . S
C2569 C2568 1.287 . S
C2569 C2570 1.524 . S
C2569 H2572 0.999 . S
C2570 H2540 0.950 . S
C2570 C2569 1.524 . S
C2570 C2571 1.415 . S
C2571 H2541 0.950 . S
C2571 C2566 1.363 . S
C2571 C2570 1.415 . S
H2572 C2569 0.999 . S
H2573 C2554 0.913 . S
H2574 C2592 0.951 . S
H2575 C2594 0.951 . S
H2576 C2596 0.950 . S
H2577 C2597 0.950 . S
H2578 C2599 0.950 . S
H2579 C2602 0.950 . S
H2580 C2603 0.950 . S
H2581 C2605 0.950 . S
H2582 C2606 0.950 . S
H2583 C2607 0.951 . S
H2584 C2609 0.951 . S
H2585 C2611 0.950 . S
H2586 C2612 0.950 . S
H2587 C2614 0.950 . S
H2588 C2617 0.950 . S
H2589 C2618 0.950 . S
H2590 C2620 0.950 . S
H2591 C2621 0.950 . S
C2592 H2574 0.951 . S
C2592 C2593 1.366 . S
C2592 C2594 1.388 . S
C2593 C2592 1.366 . S
C2593 C2597 1.385 . S
C2594 H2575 0.951 . S
C2594 C2592 1.388 . S
C2594 C2595 1.366 . S
C2595 C2594 1.366 . S
C2595 C2596 1.414 . S
C2595 C2598 1.499 . S
C2596 H2576 0.950 . S
C2596 C2595 1.414 . S
C2596 C2597 1.374 . S
C2597 H2577 0.950 . S
C2597 C2593 1.385 . S
C2597 C2596 1.374 . S
C2598 C2595 1.499 . S
C2598 C2599 1.373 . S
C2598 C2600 1.389 . S
C2599 H2578 0.950 . S
C2599 C2598 1.373 . S
C2599 C2615 1.377 . S
C2600 C2598 1.389 . S
C2600 C2601 1.524 . S
C2600 C2614 1.377 . S
C2601 C2600 1.524 . S
C2601 C2602 1.397 . S
C2601 C2606 1.363 . S
C2602 H2579 0.950 . S
C2602 C2601 1.397 . S
C2602 C2603 1.334 . S
C2603 H2580 0.950 . S
C2603 C2602 1.334 . S
C2603 C2604 1.287 . S
C2604 C2603 1.287 . S
C2604 C2605 1.524 . S
C2604 H2623 0.913 . S
C2605 H2581 0.950 . S
C2605 C2604 1.524 . S
C2605 C2606 1.415 . S
C2606 H2582 0.950 . S
C2606 C2601 1.363 . S
C2606 C2605 1.415 . S
C2607 H2583 0.951 . S
C2607 C2608 1.366 . S
C2607 C2609 1.388 . S
C2608 C2607 1.366 . S
C2608 C2612 1.385 . S
C2609 H2584 0.951 . S
C2609 C2607 1.388 . S
C2609 C2610 1.366 . S
C2610 C2609 1.366 . S
C2610 C2611 1.414 . S
C2610 C2613 1.499 . S
C2611 H2585 0.950 . S
C2611 C2610 1.414 . S
C2611 C2612 1.374 . S
C2612 H2586 0.950 . S
C2612 C2608 1.385 . S
C2612 C2611 1.374 . S
C2613 C2610 1.499 . S
C2613 C2614 1.373 . S
C2613 C2615 1.389 . S
C2614 H2587 0.950 . S
C2614 C2600 1.377 . S
C2614 C2613 1.373 . S
C2615 C2599 1.377 . S
C2615 C2613 1.389 . S
C2615 C2616 1.524 . S
C2616 C2615 1.524 . S
C2616 C2617 1.397 . S
C2616 C2621 1.363 . S
C2617 H2588 0.950 . S
C2617 C2616 1.397 . S
C2617 C2618 1.334 . S
C2618 H2589 0.950 . S
C2618 C2617 1.334 . S
C2618 C2619 1.287 . S
C2619 C2618 1.287 . S
C2619 C2620 1.524 . S
C2619 H2622 0.999 1_556 S
C2620 H2590 0.950 . S
C2620 C2619 1.524 . S
C2620 C2621 1.415 . S
C2621 H2591 0.950 . S
C2621 C2616 1.363 . S
C2621 C2620 1.415 . S
H2622 C2619 0.999 1_554 S
H2623 C2604 0.913 . S
C1058 C913 1.515 . S
C1043 C29 1.221 . S
C1108 C939 1.693 . S
C1093 C125 1.002 . S
C1158 C953 1.516 . S
C1143 C257 1.223 . S
C1208 C955 1.693 . S
C1193 C353 1.003 . S
C1243 C457 1.163 . S
C1258 C952 1.478 . S
C1308 C954 1.680 . S
C1293 C625 1.304 . S
C1358 C912 1.478 . S
C1343 C685 1.164 . S
C1408 C938 1.680 . S
C1393 C853 1.304 . S
C1458 C940 1.713 . S
C1443 C809 1.099 . S
C1508 C966 1.502 . S
C1493 C485 1.239 . S
C1558 C924 1.713 . S
C1543 C581 1.101 . S
C1608 C926 1.502 . S
C1593 C713 1.241 . S
C1658 C925 1.696 . S
C1643 C169 1.251 . S
C1708 C927 1.467 . S
C1693 C229 1.144 . S
C1758 C941 1.696 . S
C1743 C397 1.251 . S
C1808 C967 1.468 . S
C1793 C1 1.143 . S
C1858 C969 1.516 . S
C1843 C827 1.221 . S
C1893 C467 1.003 . S
C1908 C995 1.693 . S
C1943 C599 1.222 . S
C1958 C1008 1.517 . S
C1993 C695 1.003 . S
C2008 C1011 1.694 . S
C2043 C115 1.164 . S
C2058 C1009 1.477 . S
C2093 C283 1.304 . S
C2108 C1010 1.680 . S
C2143 C343 1.161 . S
C2158 C968 1.477 . S
C2208 C994 1.680 . S
C2193 C55 1.304 . S
C2258 C997 1.715 . S
C2243 C11 1.100 . S
C2293 C143 1.240 . S
C2308 C1022 1.502 . S
C2343 C239 1.100 . S
C2358 C980 1.713 . S
C2393 C371 1.241 . S
C2408 C982 1.502 . S
C2458 C981 1.696 . S
C2443 C511 1.251 . S
C2508 C983 1.468 . S
C2493 C571 1.142 . S
C2543 C739 1.250 . S
C2558 C996 1.694 . S
C2608 C1023 1.467 . S
C2593 C799 1.144 . S
