# Generated by pormake.
# Topology anh, (6,3)-cn, num edge types: 1
# Building blocks:
#     Node 0, Type 0, BuildingBlock: HISSIN_clean_sbu_0, # of connection points: 6
#     Node 1, Type 0, BuildingBlock: HISSIN_clean_sbu_0, # of connection points: 6
#     Node 2, Type 0, BuildingBlock: HISSIN_clean_sbu_0, # of connection points: 6
#     Node 3, Type 1, BuildingBlock: VETTIZ_charged_linker_0, # of connection points: 3
#     Node 4, Type 1, BuildingBlock: VETTIZ_charged_linker_0, # of connection points: 3
#     Node 5, Type 1, BuildingBlock: VETTIZ_charged_linker_0, # of connection points: 3
#     Node 6, Type 1, BuildingBlock: VETTIZ_charged_linker_0, # of connection points: 3
#     Node 7, Type 1, BuildingBlock: VETTIZ_charged_linker_0, # of connection points: 3
#     Node 8, Type 1, BuildingBlock: VETTIZ_charged_linker_0, # of connection points: 3
#     Edge 9, Type (0, 1), BuildingBlock: XIVTED_clean_linker_0, # of connection points: 2
#     Edge 10, Type (0, 1), BuildingBlock: XIVTED_clean_linker_0, # of connection points: 2
#     Edge 11, Type (0, 1), BuildingBlock: XIVTED_clean_linker_0, # of connection points: 2
#     Edge 12, Type (0, 1), BuildingBlock: XIVTED_clean_linker_0, # of connection points: 2
#     Edge 13, Type (0, 1), BuildingBlock: XIVTED_clean_linker_0, # of connection points: 2
#     Edge 14, Type (0, 1), BuildingBlock: XIVTED_clean_linker_0, # of connection points: 2
#     Edge 15, Type (0, 1), BuildingBlock: XIVTED_clean_linker_0, # of connection points: 2
#     Edge 16, Type (0, 1), BuildingBlock: XIVTED_clean_linker_0, # of connection points: 2
#     Edge 17, Type (0, 1), BuildingBlock: XIVTED_clean_linker_0, # of connection points: 2
#     Edge 18, Type (0, 1), BuildingBlock: XIVTED_clean_linker_0, # of connection points: 2
#     Edge 19, Type (0, 1), BuildingBlock: XIVTED_clean_linker_0, # of connection points: 2
#     Edge 20, Type (0, 1), BuildingBlock: XIVTED_clean_linker_0, # of connection points: 2
#     Edge 21, Type (0, 1), BuildingBlock: XIVTED_clean_linker_0, # of connection points: 2
#     Edge 22, Type (0, 1), BuildingBlock: XIVTED_clean_linker_0, # of connection points: 2
#     Edge 23, Type (0, 1), BuildingBlock: XIVTED_clean_linker_0, # of connection points: 2
#     Edge 24, Type (0, 1), BuildingBlock: XIVTED_clean_linker_0, # of connection points: 2
#     Edge 25, Type (0, 1), BuildingBlock: XIVTED_clean_linker_0, # of connection points: 2
#     Edge 26, Type (0, 1), BuildingBlock: XIVTED_clean_linker_0, # of connection points: 2
# Relax obj value: 0.241
# Max RMSD: 0.190
# Mean RMSD: 0.157
data_MOF--net-anh--node1-HISSIN_clean_sbu_0--node2-VETTIZ_charged_linker_0--edge1-XIVTED_clean_linker_0
_symmetry_space_group_name_H-M    P1
_symmetry_Int_Tables_number       1
_symmetry_cell_setting            triclinic
loop_
_symmetry_equiv_pos_as_xyz
'x, y, z'
_cell_length_a     36.362462
_cell_length_b     36.547812
_cell_length_c     66.847067
_cell_angle_alpha  92.242638
_cell_angle_beta   90.492383
_cell_angle_gamma 120.01921
loop_
_atom_site_label
_atom_site_type_symbol
_atom_site_fract_x
_atom_site_fract_y
_atom_site_fract_z
_atom_type_partial_charge
Eu0 Eu 1.05988 0.49165 0.16724 0.0
Eu1 Eu 0.11265 0.59313 0.17215 0.0
C2 C 1.08154 0.5385 0.21065 0.0
C3 C 0.96176 0.39178 0.1592 0.0
C4 C 0.93484 0.36465 0.17343 0.0
C5 C 0.90558 0.40517 0.14846 0.0
C6 C 0.89488 0.36035 0.17613 0.0
C7 C 0.94586 0.41002 0.14594 0.0
C8 C 0.88111 0.38259 0.16442 0.0
C9 C 1.00799 0.41091 0.16249 0.0
O10 O 0.16434 0.57459 0.17476 0.0
O11 O 0.12804 0.50458 0.16375 0.0
C12 C 0.16415 0.53939 0.169 0.0
O13 O 1.05827 0.51705 0.13712 0.0
O14 O 0.15814 0.65097 0.18892 0.0
O15 O 0.12949 0.65461 0.16099 0.0
O16 O 0.1228 0.5761 0.14112 0.0
C17 C 0.09153 0.54848 0.12944 0.0
O18 O 1.00832 0.50941 0.17255 0.0
O19 O 1.04463 0.579 0.16483 0.0
O20 O 1.08402 0.57112 0.20199 0.0
O21 O 1.03202 0.43331 0.1482 0.0
O22 O 1.02166 0.43033 0.18004 0.0
O23 O 1.08124 0.50752 0.19991 0.0
C24 C 0.20308 0.70241 0.16692 0.0
C25 C 0.21016 0.70652 0.14623 0.0
C26 C 0.27919 0.74438 0.17357 0.0
C27 C 0.25145 0.72933 0.13932 0.0
C28 C 0.23799 0.72201 0.18049 0.0
C29 C 0.28633 0.74801 0.15293 0.0
C30 C 0.1602 0.67488 0.17444 0.0
C31 C 1.00835 0.54437 0.16821 0.0
H32 H 0.94642 0.3505 0.18389 0.0
H33 H 0.89546 0.42244 0.13923 0.0
H34 H 0.87603 0.34215 0.18834 0.0
H35 H 0.96597 0.43145 0.13491 0.0
H36 H 0.18396 0.69163 0.13534 0.0
H37 H 0.30549 0.75941 0.18442 0.0
H38 H 0.25614 0.73194 0.12334 0.0
H39 H 0.23346 0.71944 0.19648 0.0
Eu40 Eu 0.60023 1.02932 0.50081 0.0
Eu41 Eu 0.55028 0.08173 0.50553 0.0
C42 C 0.58041 1.05447 0.54488 0.0
C43 C 0.63316 0.94939 0.48465 0.0
C44 C 0.59157 0.91803 0.47893 0.0
C45 C 0.65888 0.90247 0.47414 0.0
C46 C 0.58349 0.87832 0.47149 0.0
C47 C 0.66684 0.94197 0.48158 0.0
C48 C 0.61695 0.86969 0.46969 0.0
C49 C 0.64169 0.98908 0.49482 0.0
O50 O 0.62024 0.13474 0.50869 0.0
O51 O 0.65239 0.09824 0.49714 0.0
C52 C 0.65454 0.1344 0.50262 0.0
O53 O 0.56646 1.02115 0.4713 0.0
O54 O 0.53759 0.12845 0.52023 0.0
O55 O 0.50439 0.09649 0.49227 0.0
O56 O 0.57265 0.0858 0.47401 0.0
C57 C 0.567 1.05306 0.46294 0.0
O58 O 0.53147 0.97556 0.50291 0.0
O59 O 0.49535 1.01243 0.50301 0.0
O60 O 0.55262 0.06302 0.53692 0.0
O61 O 0.64423 1.01814 0.48329 0.0
O62 O 0.61991 0.9856 0.51077 0.0
O63 O 0.60579 1.04668 0.53394 0.0
C64 C 0.53593 0.17071 0.49548 0.0
C65 C 0.56077 0.17697 0.47856 0.0
C66 C 0.5692 0.24681 0.50108 0.0
C67 C 0.59112 0.2176 0.47361 0.0
C68 C 0.53897 0.20594 0.50617 0.0
C69 C 0.59697 0.25271 0.48542 0.0
C70 C 0.51634 0.12939 0.50461 0.0
C71 C 0.49537 0.97612 0.50279 0.0
H72 H 0.56527 0.92368 0.48099 0.0
H73 H 0.6854 0.89688 0.47329 0.0
H74 H 0.55095 0.85384 0.46806 0.0
H75 H 0.69913 0.96607 0.48583 0.0
H76 H 0.55944 0.15047 0.47015 0.0
H77 H 0.57337 0.2735 0.5105 0.0
H78 H 0.61201 0.22141 0.46142 0.0
H79 H 0.52062 0.20186 0.51942 0.0
Eu80 Eu 0.55633 0.5434 0.83298 0.0
Eu81 Eu 0.65617 0.5913 0.84154 0.0
C82 C 0.59518 0.56578 0.87751 0.0
C83 C 0.45827 0.5444 0.82506 0.0
C84 C 0.43187 0.54494 0.8401 0.0
C85 C 0.47302 0.61425 0.81587 0.0
C86 C 0.42863 0.58101 0.84392 0.0
C87 C 0.47688 0.57841 0.81224 0.0
C88 C 0.45107 0.6167 0.83251 0.0
C89 C 0.47609 0.51615 0.82687 0.0
O90 O 0.63556 0.5206 0.84423 0.0
O91 O 0.56884 0.48789 0.82928 0.0
C92 C 0.60175 0.48587 0.83655 0.0
O93 O 0.58673 0.56532 0.80307 0.0
O94 O 0.71112 0.60216 0.85975 0.0
O95 O 0.71999 0.63779 0.83323 0.0
O96 O 0.64582 0.56211 0.81063 0.0
C97 C 0.61986 0.56291 0.79734 0.0
O98 O 0.57377 0.6127 0.83928 0.0
O99 O 0.6442 0.64491 0.83259 0.0
O100 O 0.628 0.59811 0.87017 0.0
O101 O 0.50048 0.51641 0.81259 0.0
O102 O 0.49278 0.51849 0.84455 0.0
O103 O 0.56778 0.53462 0.86544 0.0
C104 C 0.76637 0.61109 0.83867 0.0
C105 C 0.77225 0.60887 0.81794 0.0
C106 C 0.80765 0.57676 0.84441 0.0
C107 C 0.79553 0.59066 0.81055 0.0
C108 C 0.78473 0.5953 0.85182 0.0
C109 C 0.81298 0.57398 0.8237 0.0
C110 C 0.73781 0.62569 0.84647 0.0
C111 C 0.60947 0.64728 0.83536 0.0
H112 H 0.41736 0.51932 0.85023 0.0
H113 H 0.49036 0.6414 0.80684 0.0
H114 H 0.4109 0.58211 0.85665 0.0
H115 H 0.49769 0.57918 0.80056 0.0
H116 H 0.75825 0.62043 0.80734 0.0
H117 H 0.82166 0.56501 0.85492 0.0
H118 H 0.79936 0.58905 0.79454 0.0
H119 H 0.78064 0.59655 0.86782 0.0
C120 C 0.60849 0.24384 0.20265 0.0
C121 C 0.61984 0.27959 0.21548 0.0
C122 C 0.60875 0.27343 0.23577 0.0
C123 C 0.58435 0.19853 0.23078 0.0
C124 C 0.59151 0.20407 0.21059 0.0
C125 C 0.58433 0.1646 0.19931 0.0
H126 H 0.52496 0.95841 0.19931 0.0
C127 C 0.57295 0.15452 0.23457 0.0
C128 C 0.57279 0.13461 0.21614 0.0
H129 H 0.55799 1.03813 0.14865 0.0
H130 H 0.57611 0.09856 0.17092 0.0
H131 H 0.60754 1.03002 0.22832 0.0
H132 H 0.47503 0.99139 0.22173 0.0
H133 H 0.48805 1.00046 0.24749 0.0
H134 H 0.49294 0.95975 0.23373 0.0
H135 H 0.56618 0.98081 0.23695 0.0
H136 H 0.58872 1.02906 0.25248 0.0
C137 C 0.6266 0.17353 0.18969 0.0
C138 C 0.54662 0.15078 0.18419 0.0
C139 C 0.55661 0.10589 0.30583 0.0
C140 C 0.54755 0.06732 0.3139 0.0
C141 C 0.53896 1.0327 0.30069 0.0
C142 C 0.54041 1.03667 0.27992 0.0
C143 C 0.55045 0.07565 0.27216 0.0
C144 C 0.5577 0.10926 0.28502 0.0
C145 C 0.56743 0.14812 0.27402 0.0
C146 C 0.56551 0.13242 0.25246 0.0
C147 C 0.55595 0.09008 0.25151 0.0
C148 C 0.61269 0.18374 0.28067 0.0
C149 C 0.53201 0.15895 0.27815 0.0
C150 C 0.53744 0.98904 0.19296 0.0
C151 C 0.53955 0.99323 0.17207 0.0
C152 C 0.55533 1.0338 0.16461 0.0
C153 C 0.5656 0.06885 0.17759 0.0
C154 C 0.56032 0.06341 0.19828 0.0
C155 C 0.54788 1.02433 0.2057 0.0
C156 C 0.54423 1.02449 0.22811 0.0
C157 C 0.55483 0.06973 0.2328 0.0
C158 C 0.56394 0.09218 0.21528 0.0
C159 C 0.5781 1.01537 0.23709 0.0
C160 C 0.49782 0.99222 0.2332 0.0
H161 H 0.58518 0.23065 0.25922 0.0
H162 H 0.6169 0.24694 0.18707 0.0
H163 H 0.52177 0.15636 0.19082 0.0
H164 H 0.53006 0.11664 0.17993 0.0
H165 H 0.55729 0.16898 0.17044 0.0
H166 H 0.6546 0.19768 0.19885 0.0
H167 H 0.62915 0.18553 0.17445 0.0
H168 H 0.63071 0.14553 0.18883 0.0
H169 H 0.56373 0.13329 0.31546 0.0
H170 H 0.53092 1.00235 0.30641 0.0
H171 H 0.53372 1.0092 0.27073 0.0
H172 H 0.63462 0.17092 0.28196 0.0
H173 H 0.61249 0.1984 0.29551 0.0
H174 H 0.62728 0.20882 0.26987 0.0
H175 H 0.50083 0.12973 0.2798 0.0
H176 H 0.52668 0.17491 0.26567 0.0
H177 H 0.53917 0.17899 0.29217 0.0
H178 H 0.61647 0.30025 0.24596 0.0
C179 C 0.59098 0.23304 0.24348 0.0
C180 C 0.70431 0.66237 0.52182 0.0
C181 C 0.67378 0.6739 0.52652 0.0
C182 C 0.66166 0.6728 0.54659 0.0
C183 C 0.70847 0.64695 0.55643 0.0
C184 C 0.72131 0.64927 0.53692 0.0
C185 C 0.75333 0.63511 0.53419 0.0
H186 H 0.79371 0.48981 0.5557 0.0
C187 C 0.72957 0.62888 0.56812 0.0
C188 C 0.7567 0.62277 0.55537 0.0
H189 H 0.84216 0.57526 0.50727 0.0
H190 H 0.83072 0.62626 0.52651 0.0
H191 H 0.84615 0.57276 0.59007 0.0
H192 H 0.71665 0.49424 0.56938 0.0
H193 H 0.72092 0.49999 0.596 0.0
H194 H 0.74823 0.47755 0.58298 0.0
H195 H 0.80969 0.52834 0.60365 0.0
H196 H 0.81577 0.58005 0.60855 0.0
C197 C 0.79569 0.67283 0.52744 0.0
C198 C 0.73391 0.59659 0.51893 0.0
C199 C 0.68652 0.58811 0.63948 0.0
C200 C 0.69659 0.56599 0.65321 0.0
C201 C 0.72172 0.54842 0.64693 0.0
C202 C 0.73728 0.55361 0.6275 0.0
C203 C 0.72734 0.57625 0.61413 0.0
C204 C 0.70228 0.59296 0.62015 0.0
C205 C 0.6951 0.6161 0.60384 0.0
C206 C 0.72235 0.61286 0.58756 0.0
C207 C 0.74058 0.58894 0.59359 0.0
C208 C 0.7123 0.6626 0.61136 0.0
C209 C 0.64702 0.59172 0.59781 0.0
C210 C 0.80314 0.51998 0.54941 0.0
C211 C 0.81565 0.52726 0.52932 0.0
C212 C 0.83007 0.56794 0.52222 0.0
C213 C 0.82255 0.59692 0.53303 0.0
C214 C 0.8006 0.58459 0.55083 0.0
C215 C 0.79637 0.54979 0.56011 0.0
C216 C 0.77839 0.54658 0.5807 0.0
C217 C 0.76628 0.58095 0.58031 0.0
C218 C 0.77739 0.60118 0.56214 0.0
C219 C 0.8141 0.55726 0.59662 0.0
C220 C 0.73892 0.50218 0.58246 0.0
H221 H 0.66832 0.65916 0.57651 0.0
H222 H 0.71448 0.66296 0.5066 0.0
H223 H 0.70356 0.57063 0.52438 0.0
H224 H 0.75497 0.5836 0.51602 0.0
H225 H 0.72724 0.60544 0.50419 0.0
H226 H 0.79465 0.7027 0.52704 0.0
H227 H 0.80359 0.66651 0.51215 0.0
H228 H 0.82257 0.67996 0.53793 0.0
H229 H 0.66772 0.60241 0.6438 0.0
H230 H 0.72941 0.53062 0.65705 0.0
H231 H 0.75622 0.53965 0.62352 0.0
H232 H 0.74319 0.67505 0.61971 0.0
H233 H 0.68981 0.66531 0.62161 0.0
H234 H 0.71877 0.68406 0.59901 0.0
H235 H 0.63156 0.55793 0.60163 0.0
H236 H 0.6411 0.59046 0.58149 0.0
H237 H 0.62981 0.60576 0.60563 0.0
H238 H 0.63921 0.68277 0.55084 0.0
C239 C 0.67887 0.65946 0.56155 0.0
C240 C 0.3028 0.73868 0.8762 0.0
C241 C 0.33744 0.7621 0.88974 0.0
C242 C 0.32923 0.76407 0.91026 0.0
C243 C 0.25463 0.7129 0.90368 0.0
C244 C 0.26215 0.71413 0.88344 0.0
C245 C 0.2237 0.68291 0.87107 0.0
H246 H 1.01673 0.53457 0.86609 0.0
C247 C 0.21018 0.67925 0.90633 0.0
C248 C 0.19202 0.66182 0.88723 0.0
H249 H 0.10183 0.5882 0.8171 0.0
H250 H 0.16039 0.62793 0.84068 0.0
H251 H 1.0854 0.51999 0.89317 0.0
H252 H 1.04786 0.61441 0.89239 0.0
H253 H 1.05389 0.60625 0.91765 0.0
H254 H 1.0146 0.56296 0.90178 0.0
H255 H 1.03573 0.51113 0.90263 0.0
H256 H 1.08361 0.535 0.91823 0.0
C257 C 0.23411 0.65147 0.85967 0.0
C258 C 0.2108 0.70821 0.85741 0.0
C259 C 0.15485 0.63571 0.97609 0.0
C260 C 0.11551 0.6044 0.98303 0.0
C261 C 1.08195 0.58018 0.96898 0.0
C262 C 1.08775 0.58612 0.94844 0.0
C263 C 0.12752 0.61669 0.94175 0.0
C264 C 0.16006 0.6414 0.9555 0.0
C265 C 0.20001 0.67267 0.9456 0.0
C266 C 0.1863 0.66188 0.92364 0.0
C267 C 0.14393 0.62883 0.92152 0.0
C268 C 0.23567 0.66309 0.95116 0.0
C269 C 0.20984 0.7179 0.9521 0.0
C270 C 1.04813 0.55369 0.8603 0.0
C271 C 1.05435 0.55856 0.83958 0.0
C272 C 0.0959 0.58444 0.83294 0.0
C273 C 0.12986 0.60771 0.84669 0.0
C274 C 0.12235 0.60487 0.86733 0.0
C275 C 1.08237 0.57702 0.87382 0.0
C276 C 1.08037 0.57773 0.89629 0.0
C277 C 0.12535 0.61202 0.90218 0.0
C278 C 0.14957 0.62794 0.88517 0.0
C279 C 1.07049 0.53374 0.9031 0.0
C280 C 1.04731 0.59069 0.90251 0.0
H281 H 0.28402 0.74087 0.93315 0.0
H282 H 0.30744 0.7356 0.86039 0.0
H283 H 0.21509 0.73731 0.86556 0.0
H284 H 0.17698 0.69058 0.85255 0.0
H285 H 0.23067 0.71817 0.84398 0.0
H286 H 0.25797 0.64718 0.86822 0.0
H287 H 0.24727 0.66295 0.8448 0.0
H288 H 0.20633 0.61922 0.85765 0.0
H289 H 0.18149 0.65473 0.98638 0.0
H290 H 1.05102 0.55658 0.97386 0.0
H291 H 1.06101 0.56651 0.93855 0.0
H292 H 0.22319 0.62836 0.95061 0.0
H293 H 0.24875 0.67573 0.96656 0.0
H294 H 0.26204 0.67587 0.94072 0.0
H295 H 0.18003 0.71888 0.95424 0.0
H296 H 0.22689 0.74109 0.94066 0.0
H297 H 0.22858 0.72899 0.96648 0.0
H298 H 0.35512 0.78237 0.92103 0.0
C299 C 0.28797 0.73963 0.91729 0.0
C300 C 0.96598 0.44577 0.48895 0.0
C301 C 0.93206 0.40882 0.47857 0.0
C302 C 0.93302 0.40647 0.45757 0.0
C303 C 0.99933 0.47376 0.45717 0.0
C304 C 0.99972 0.478 0.47783 0.0
C305 C 1.03968 0.51974 0.4852 0.0
H306 H 0.23064 0.69394 0.45589 0.0
C307 C 1.03793 0.5104 0.44941 0.0
C308 C 1.06291 0.53831 0.46564 0.0
H309 H 0.18799 0.67663 0.51646 0.0
H310 H 0.12273 0.61011 0.50534 0.0
H311 H 0.2043 0.60019 0.44397 0.0
H312 H 0.14592 0.67608 0.43797 0.0
H313 H 0.12948 0.64318 0.41616 0.0
H314 H 0.18546 0.67914 0.42122 0.0
H315 H 0.22049 0.64057 0.42619 0.0
H316 H 0.18 0.58653 0.41998 0.0
C317 C 1.06694 0.51003 0.49933 0.0
C318 C 1.02573 0.54895 0.49553 0.0
C319 C 1.05544 0.51505 0.37355 0.0
C320 C 1.08702 0.54438 0.36136 0.0
C321 C 0.12347 0.57895 0.3706 0.0
C322 C 0.12802 0.58494 0.39146 0.0
C323 C 0.09565 0.5563 0.40352 0.0
C324 C 1.06039 0.52184 0.39452 0.0
C325 C 1.02947 0.49474 0.40975 0.0
C326 C 1.05153 0.5192 0.42936 0.0
C327 C 1.09018 0.55509 0.42555 0.0
C328 C 1.02632 0.45071 0.4081 0.0
C329 C 0.98703 0.49413 0.40575 0.0
C330 C 0.2078 0.67605 0.467 0.0
C331 C 0.21549 0.69093 0.48709 0.0
C332 C 0.18348 0.66635 0.50077 0.0
C333 C 0.14565 0.62771 0.49435 0.0
C334 C 0.13889 0.61353 0.47392 0.0
C335 C 0.17013 0.6387 0.46086 0.0
C336 C 0.15865 0.62276 0.43961 0.0
C337 C 0.11595 0.58327 0.44153 0.0
C338 C 0.10317 0.57625 0.46167 0.0
C339 C 0.19258 0.61216 0.43184 0.0
C340 C 0.1549 0.6569 0.42798 0.0
H341 H 0.9633 0.43308 0.4311 0.0
H342 H 0.96661 0.44899 0.50512 0.0
H343 H 1.00427 0.55367 0.48535 0.0
H344 H 1.05325 0.58044 0.49968 0.0
H345 H 1.0084 0.53496 0.50934 0.0
H346 H 1.07513 0.48753 0.49176 0.0
H347 H 1.04948 0.49561 0.51305 0.0
H348 H 0.09699 0.53911 0.50392 0.0
H349 H 1.027 0.48813 0.36693 0.0
H350 H 0.14867 0.60158 0.36162 0.0
H351 H 0.15663 0.61203 0.3973 0.0
H352 H 1.05586 0.4529 0.40221 0.0
H353 H 0.99959 0.42826 0.39786 0.0
H354 H 1.02286 0.43661 0.4228 0.0
H355 H 0.99294 0.52497 0.40032 0.0
H356 H 0.96856 0.48975 0.41938 0.0
H357 H 0.96687 0.4692 0.39417 0.0
H358 H 0.90794 0.37945 0.44907 0.0
C359 C 0.96571 0.43809 0.44703 0.0
C360 C 0.60444 0.95663 0.82281 0.0
C361 C 0.60632 0.92251 0.81223 0.0
C362 C 0.60705 0.92296 0.79124 0.0
C363 C 0.6036 0.98793 0.79117 0.0
C364 C 0.60342 0.98947 0.81186 0.0
C365 C 0.60323 1.02999 0.81944 0.0
H366 H 0.5848 0.20341 0.78965 0.0
C367 C 0.60125 1.02453 0.78354 0.0
C368 C 0.60069 1.05021 0.7999 0.0
H369 H 0.60802 0.18557 0.85077 0.0
H370 H 0.60812 0.11983 0.83991 0.0
H371 H 0.65257 0.18843 0.77274 0.0
H372 H 0.5183 0.10939 0.77771 0.0
H373 H 0.52908 0.09394 0.75436 0.0
H374 H 0.54132 0.14798 0.75909 0.0
H375 H 0.61504 0.19098 0.75613 0.0
H376 H 0.63664 0.15695 0.75052 0.0
C377 C 0.64495 0.05907 0.83134 0.0
C378 C 0.56426 1.01818 0.83221 0.0
C379 C 0.59775 1.03676 0.70753 0.0
C380 C 0.59167 0.06426 0.69541 0.0
C381 C 0.58297 0.09414 0.70493 0.0
C382 C 0.58252 0.09816 0.72577 0.0
C383 C 0.59023 0.07171 0.73768 0.0
C384 C 0.59647 1.04088 0.72853 0.0
C385 C 0.60087 1.01371 0.74367 0.0
C386 C 0.59823 1.03471 0.76344 0.0
C387 C 0.59267 0.06896 0.75972 0.0
C388 C 0.64521 1.0179 0.74138 0.0
C389 C 0.56265 0.968 0.74015 0.0
C390 C 0.58952 0.18566 0.801 0.0
C391 C 0.59576 0.2003 0.82113 0.0
C392 C 0.60303 0.17569 0.83503 0.0
C393 C 0.60308 0.1375 0.82876 0.0
C394 C 0.59678 0.12376 0.80826 0.0
C395 C 0.59067 0.14883 0.79505 0.0
C396 C 0.58709 0.13352 0.7738 0.0
C397 C 0.59224 0.09524 0.77579 0.0
C398 C 0.59709 0.08753 0.79602 0.0
C399 C 0.62438 0.16911 0.76255 0.0
C400 C 0.54185 0.12077 0.76563 0.0
H401 H 0.60658 0.95211 0.76492 0.0
H402 H 0.60448 0.95803 0.83901 0.0
H403 H 0.53456 0.99622 0.82349 0.0
H404 H 0.56259 1.04667 0.837 0.0
H405 H 0.56564 1.00235 0.84582 0.0
H406 H 0.67271 0.06566 0.82211 0.0
H407 H 0.64693 1.04396 0.8451 0.0
H408 H 0.64761 0.08976 0.83581 0.0
H409 H 0.60398 1.01296 0.70093 0.0
H410 H 0.57621 0.11463 0.69627 0.0
H411 H 0.57643 0.12217 0.73172 0.0
H412 H 0.66946 1.0509 0.73815 0.0
H413 H 0.6448 0.9968 0.72885 0.0
H414 H 0.65732 1.01127 0.75517 0.0
H415 H 0.53539 0.96757 0.73222 0.0
H416 H 0.54935 0.95262 0.75433 0.0
H417 H 0.57156 0.94782 0.73095 0.0
H418 H 0.60864 0.89806 0.78261 0.0
C419 C 0.60568 0.95475 0.78086 0.0
C420 C 0.69342 0.54087 0.15459 0.0
C421 C 0.72812 0.54131 0.14425 0.0
C422 C 0.72638 0.5402 0.12324 0.0
C423 C 0.65933 0.54018 0.12273 0.0
C424 C 0.65907 0.54031 0.14341 0.0
C425 C 0.61853 0.53954 0.15076 0.0
H426 H 0.44152 0.55683 0.12201 0.0
C427 C 0.62158 0.54164 0.11497 0.0
C428 C 0.59675 0.54168 0.1312 0.0
H429 H 0.4657 0.53244 0.18176 0.0
H430 H 0.53082 0.53314 0.17061 0.0
H431 H 0.53554 0.62278 0.11166 0.0
H432 H 0.45582 0.48865 0.10205 0.0
H433 H 0.48492 0.50502 0.08027 0.0
H434 H 0.45056 0.52555 0.08711 0.0
H435 H 0.4936 0.59927 0.09285 0.0
H436 H 0.54701 0.61112 0.08762 0.0
C437 C 0.63071 0.57815 0.16505 0.0
C438 C 0.59082 0.49767 0.16089 0.0
C439 C 0.60591 0.54761 0.03931 0.0
C440 C 0.57801 0.55419 0.02729 0.0
C441 C 0.54662 0.56012 0.03652 0.0
C442 C 0.54256 0.55885 0.05734 0.0
C443 C 0.57044 0.55195 0.06927 0.0
C444 C 0.60187 0.5472 0.06022 0.0
C445 C 0.63041 0.54327 0.07535 0.0
C446 C 0.60984 0.54462 0.09497 0.0
C447 C 0.57455 0.54924 0.09124 0.0
C448 C 0.67573 0.58222 0.07383 0.0
C449 C 0.62733 0.49976 0.07116 0.0
C450 C 0.46065 0.55187 0.1329 0.0
C451 C 0.4481 0.54504 0.1528 0.0
C452 C 0.4742 0.53783 0.16623 0.0
C453 C 0.51197 0.53822 0.15979 0.0
C454 C 0.52362 0.54484 0.13953 0.0
C455 C 0.49709 0.55089 0.12666 0.0
C456 C 0.51036 0.55421 0.10548 0.0
C457 C 0.54923 0.5494 0.10724 0.0
C458 C 0.55881 0.54476 0.12727 0.0
C459 C 0.522 0.59893 0.09886 0.0
C460 C 0.47367 0.51679 0.09292 0.0
H461 H 0.69444 0.53855 0.09667 0.0
H462 H 0.69335 0.54144 0.17079 0.0
H463 H 0.58468 0.47033 0.15065 0.0
H464 H 0.55968 0.49377 0.16485 0.0
H465 H 0.60698 0.49623 0.17478 0.0
H466 H 0.6521 0.60788 0.15761 0.0
H467 H 0.64748 0.5769 0.17875 0.0
H468 H 0.60226 0.57955 0.16966 0.0
H469 H 0.63092 0.54381 0.03263 0.0
H470 H 0.5248 0.56524 0.02755 0.0
H471 H 0.51767 0.56323 0.06327 0.0
H472 H 0.67496 0.60925 0.06714 0.0
H473 H 0.69609 0.57445 0.06436 0.0
H474 H 0.69177 0.5952 0.08867 0.0
H475 H 0.59429 0.47515 0.06653 0.0
H476 H 0.63484 0.48754 0.08452 0.0
H477 H 0.64843 0.50124 0.05892 0.0
H478 H 0.75177 0.54019 0.11485 0.0
C479 C 0.69274 0.53946 0.11261 0.0
H480 H 0.1788 0.47138 0.16669 0.0
H481 H 0.43039 0.60954 0.14952 0.0
H482 H 0.24659 0.60767 0.169 0.0
H483 H 0.37252 0.48139 0.1679 0.0
H484 H 0.36286 0.60828 0.15444 0.0
H485 H 0.24718 0.47279 0.16478 0.0
C486 C 0.20789 0.50168 0.16681 0.0
C487 C 0.20616 0.53946 0.16808 0.0
C488 C 0.36481 0.58047 0.15762 0.0
C489 C 0.28573 0.54124 0.16558 0.0
C490 C 0.40366 0.58123 0.15489 0.0
C491 C 0.40795 0.54578 0.15859 0.0
C492 C 0.32872 0.54353 0.16365 0.0
C493 C 0.3714 0.50982 0.16519 0.0
C494 C 0.24717 0.50242 0.16577 0.0
C495 C 0.24564 0.57757 0.16815 0.0
N496 N 0.33358 0.50949 0.16728 0.0
N497 N 0.28324 0.57741 0.16676 0.0
H498 H 0.73155 0.14641 0.48926 0.0
H499 H 0.86479 0.40303 0.50128 0.0
H500 H 0.67571 0.21807 0.51306 0.0
H501 H 0.91308 0.32622 0.47564 0.0
H502 H 0.79846 0.33764 0.50894 0.0
H503 H 0.79902 0.21231 0.48652 0.0
C504 C 0.73322 0.17588 0.49402 0.0
C505 C 0.69693 0.17576 0.50141 0.0
C506 C 0.82368 0.33504 0.50177 0.0
C507 C 0.7761 0.25326 0.49826 0.0
C508 C 0.86211 0.37261 0.49773 0.0
C509 C 0.89557 0.37074 0.48807 0.0
C510 C 0.81789 0.29482 0.4959 0.0
C511 C 0.88889 0.32978 0.48333 0.0
C512 C 0.77221 0.21392 0.49242 0.0
C513 C 0.70226 0.21587 0.50725 0.0
N514 N 0.85135 0.29411 0.48712 0.0
N515 N 0.74064 0.25257 0.50553 0.0
H516 H 0.67501 0.72536 0.82416 0.0
H517 H 0.54414 0.85199 0.83127 0.0
H518 H 0.54599 0.66708 0.8434 0.0
H519 H 0.6727 0.90668 0.81185 0.0
H520 H 0.54471 0.78613 0.83795 0.0
H521 H 0.67515 0.79226 0.8213 0.0
C522 C 0.64657 0.72635 0.82783 0.0
C523 C 0.6103 0.68952 0.83394 0.0
C524 C 0.57314 0.81277 0.83259 0.0
C525 C 0.61024 0.76781 0.83064 0.0
C526 C 0.57304 0.85088 0.82904 0.0
C527 C 0.6089 0.88613 0.82149 0.0
C528 C 0.60928 0.80907 0.82843 0.0
C529 C 0.6446 0.88124 0.81813 0.0
C530 C 0.64667 0.76495 0.82617 0.0
C531 C 0.57466 0.69394 0.83843 0.0
N532 N 0.6438 0.84402 0.82152 0.0
N533 N 0.5755 0.7318 0.83668 0.0
H534 H 0.92639 0.47921 0.1747 0.0
H535 H 0.80839 0.61034 0.14803 0.0
H536 H 0.99298 0.60942 0.15883 0.0
H537 H 0.7399 0.47795 0.15962 0.0
H538 H 0.87562 0.61178 0.1549 0.0
H539 H 0.85877 0.47896 0.17149 0.0
C540 C 0.92706 0.50783 0.17052 0.0
C541 C 0.96628 0.54431 0.16691 0.0
C542 C 0.846 0.58248 0.15636 0.0
C543 C 0.88753 0.54433 0.1635 0.0
C544 C 0.80731 0.58179 0.15271 0.0
C545 C 0.76774 0.54433 0.15387 0.0
C546 C 0.84605 0.5452 0.16101 0.0
C547 C 0.76914 0.50797 0.15915 0.0
C548 C 0.88812 0.50765 0.16877 0.0
C549 C 0.96415 0.58037 0.16177 0.0
N550 N 0.80725 0.5093 0.16243 0.0
N551 N 0.92593 0.57942 0.16024 0.0
H552 H 0.4127 0.96037 0.50856 0.0
H553 H 0.29706 0.7101 0.47891 0.0
H554 H 0.48089 0.89465 0.49502 0.0
H555 H 0.22978 0.76618 0.50704 0.0
H556 H 0.36352 0.7779 0.48359 0.0
H557 H 0.34568 0.8919 0.50677 0.0
C558 C 0.41386 0.93175 0.50521 0.0
C559 C 0.45334 0.93412 0.50198 0.0
C560 C 0.33445 0.77557 0.48894 0.0
C561 C 0.37538 0.8544 0.4997 0.0
C562 C 0.2962 0.73653 0.48633 0.0
C563 C 0.25715 0.73159 0.49274 0.0
C564 C 0.33452 0.81127 0.49775 0.0
C565 C 0.25878 0.76777 0.50208 0.0
C566 C 0.37528 0.89239 0.50425 0.0
C567 C 0.45185 0.89518 0.49772 0.0
N568 N 0.29639 0.80581 0.5041 0.0
N569 N 0.41401 0.85756 0.4966 0.0
H570 H 0.66149 0.46607 0.85151 0.0
H571 H 0.53742 0.22228 0.80823 0.0
H572 H 0.54022 0.40742 0.81982 0.0
H573 H 0.65108 0.27257 0.84551 0.0
H574 H 0.53883 0.28974 0.81266 0.0
H575 H 0.6595 0.39757 0.84962 0.0
C576 C 0.6343 0.43898 0.84417 0.0
C577 C 0.60092 0.44344 0.83585 0.0
C578 C 0.56346 0.28627 0.82003 0.0
C579 C 0.59858 0.36349 0.83354 0.0
C580 C 0.56269 0.24735 0.81752 0.0
C581 C 0.59417 0.24078 0.82646 0.0
C582 C 0.59627 0.32033 0.83151 0.0
C583 C 0.62577 0.2753 0.8384 0.0
C584 C 0.63322 0.39955 0.84312 0.0
C585 C 0.56682 0.40637 0.82655 0.0
N586 N 0.62618 0.31326 0.8404 0.0
N587 N 0.56669 0.36864 0.82562 0.0
H588 H 0.55359 0.79892 0.48594 0.0
H589 H 0.71452 0.72155 0.49462 0.0
H590 H 0.66136 0.83991 0.44799 0.0
H591 H 0.59232 0.65974 0.52218 0.0
H592 H 0.68759 0.75274 0.47149 0.0
H593 H 0.55649 0.73543 0.49216 0.0
C594 C 0.57693 0.79391 0.47827 0.0
C595 C 0.60842 0.82564 0.46706 0.0
C596 C 0.6663 0.73172 0.48233 0.0
C597 C 0.61289 0.75368 0.47481 0.0
C598 C 0.6817 0.71375 0.4956 0.0
C599 C 0.656 0.68871 0.51077 0.0
C600 C 0.62522 0.72551 0.48449 0.0
C601 C 0.61382 0.68012 0.51124 0.0
C602 C 0.57882 0.75765 0.48201 0.0
C603 C 0.63758 0.81702 0.45743 0.0
N604 N 0.60001 0.6992 0.49858 0.0
N605 N 0.64 0.78245 0.46203 0.0
H606 H 0.80943 0.50054 0.83385 0.0
H607 H 1.04538 0.59858 0.80763 0.0
H608 H 0.87571 0.60663 0.79647 0.0
H609 H 0.97719 0.48432 0.83982 0.0
H610 H 0.9786 0.58687 0.79354 0.0
H611 H 0.863 0.48034 0.82725 0.0
C612 C 0.83492 0.51911 0.82395 0.0
C613 C 0.83903 0.55603 0.81619 0.0
C614 C 0.97814 0.56367 0.80329 0.0
C615 C 0.90057 0.53349 0.80872 0.0
C616 C 1.01656 0.57013 0.81126 0.0
C617 C 1.01689 0.54337 0.82569 0.0
C618 C 0.93986 0.53089 0.81018 0.0
C619 C 0.97828 0.50692 0.82951 0.0
C620 C 0.86535 0.50746 0.82007 0.0
C621 C 0.8718 0.5783 0.803 0.0
N622 N 0.94114 0.50246 0.82233 0.0
N623 N 0.90195 0.56729 0.80007 0.0
H624 H 0.3575 0.74618 0.16483 0.0
H625 H 0.49094 0.98048 0.13814 0.0
H626 H 0.31466 0.80872 0.12531 0.0
H627 H 0.53807 0.91743 0.17501 0.0
H628 H 0.43725 0.91238 0.12359 0.0
H629 H 0.43094 0.80053 0.15961 0.0
C630 C 0.3637 0.77097 0.15473 0.0
C631 C 0.33011 0.77387 0.14599 0.0
C632 C 0.45996 0.91334 0.13449 0.0
C633 C 0.4138 0.83634 0.14012 0.0
C634 C 0.4911 0.95249 0.14274 0.0
C635 C 0.51806 0.95468 0.15849 0.0
C636 C 0.45516 0.87621 0.14238 0.0
C637 C 0.51664 0.91709 0.16356 0.0
C638 C 0.40561 0.80188 0.15166 0.0
C639 C 0.3397 0.80577 0.13259 0.0
N640 N 0.48477 0.87925 0.156 0.0
N641 N 0.38068 0.83643 0.13046 0.0
H642 H 0.67817 0.26812 0.48455 0.0
H643 H 0.77577 0.51672 0.4932 0.0
H644 H 0.6045 0.33083 0.48309 0.0
H645 H 0.81818 0.45318 0.53254 0.0
H646 H 0.7294 0.44962 0.47531 0.0
H647 H 0.74333 0.33733 0.48845 0.0
C648 C 0.67586 0.29652 0.48456 0.0
C649 C 0.63603 0.29399 0.48375 0.0
C650 C 0.74997 0.45072 0.48743 0.0
C651 C 0.70999 0.37249 0.48794 0.0
C652 C 0.77695 0.4891 0.4976 0.0
C653 C 0.80056 0.4906 0.51472 0.0
C654 C 0.74683 0.41364 0.49424 0.0
C655 C 0.79994 0.45332 0.51969 0.0
C656 C 0.71292 0.33575 0.48687 0.0
C657 C 0.63462 0.33156 0.48387 0.0
N658 N 0.77275 0.41601 0.5097 0.0
N659 N 0.67118 0.36941 0.48607 0.0
H660 H 0.48149 0.65662 0.86883 0.0
H661 H 0.37392 0.79349 0.85355 0.0
H662 H 0.43304 0.67015 0.81224 0.0
H663 H 0.40039 0.75717 0.91019 0.0
H664 H 0.42431 0.77639 0.83788 0.0
H665 H 0.47994 0.71859 0.88268 0.0
C666 C 0.47079 0.673 0.8593 0.0
C667 C 0.45577 0.65756 0.83966 0.0
C668 C 0.42011 0.7736 0.85388 0.0
C669 C 0.45353 0.72812 0.85538 0.0
C670 C 0.39138 0.78341 0.86288 0.0
C671 C 0.38077 0.77412 0.88296 0.0
C672 C 0.43858 0.75509 0.86521 0.0
C673 C 0.40611 0.76338 0.8945 0.0
C674 C 0.47028 0.70855 0.86713 0.0
C675 C 0.44378 0.68063 0.82764 0.0
N676 N 0.43284 0.75283 0.88532 0.0
N677 N 0.44183 0.71425 0.83586 0.0
H678 H 0.87048 0.40962 0.20096 0.0
H679 H 0.62727 0.31331 0.17834 0.0
H680 H 0.81066 0.36801 0.14216 0.0
H681 H 0.68825 0.34237 0.23707 0.0
H682 H 0.69608 0.36011 0.16417 0.0
H683 H 0.80777 0.41047 0.21293 0.0
C684 C 0.84393 0.40065 0.19058 0.0
C685 C 0.84476 0.38704 0.1708 0.0
C686 C 0.69408 0.35731 0.18025 0.0
C687 C 0.77285 0.38778 0.18434 0.0
C688 C 0.65476 0.33068 0.18838 0.0
C689 C 0.65239 0.32172 0.20877 0.0
C690 C 0.73081 0.37525 0.19271 0.0
C691 C 0.68852 0.34683 0.22116 0.0
C692 C 0.80837 0.40161 0.19734 0.0
C693 C 0.81055 0.37757 0.15768 0.0
N694 N 0.72654 0.37139 0.21285 0.0
N695 N 0.77538 0.37707 0.16482 0.0
H696 H 1.03927 0.49358 0.09901 0.0
H697 H 0.14783 0.6623 0.01501 0.0
H698 H 0.14759 0.61865 0.11044 0.0
H699 H 1.07016 0.52815 0.00066 0.0
H700 H 0.14088 0.64806 0.05052 0.0
H701 H 1.04313 0.50685 0.06313 0.0
C702 C 1.06381 0.52373 0.09399 0.0
C703 C 0.09324 0.55496 0.10772 0.0
C704 C 0.12533 0.62175 0.03958 0.0
C705 C 0.09749 0.57044 0.06693 0.0
C706 C 0.12944 0.62983 0.01928 0.0
C707 C 0.10981 0.59639 0.00474 0.0
C708 C 0.10113 0.57995 0.04548 0.0
C709 C 1.08547 0.55503 0.01129 0.0
C710 C 1.06602 0.53125 0.07356 0.0
C711 C 0.12437 0.59351 0.10042 0.0
N712 N 1.08184 0.54797 0.03118 0.0
N713 N 0.12555 0.60019 0.08056 0.0
H714 H 0.57216 0.99984 0.43445 0.0
H715 H 0.51968 0.10238 0.34286 0.0
H716 H 0.55121 0.10587 0.44134 0.0
H717 H 0.57627 1.02341 0.33536 0.0
H718 H 0.52317 0.09774 0.37907 0.0
H719 H 0.56558 1.00149 0.39802 0.0
C720 C 0.56607 1.02338 0.42832 0.0
C721 C 0.56244 1.05292 0.44095 0.0
C722 C 0.53477 0.08139 0.36948 0.0
C723 C 0.55465 1.0548 0.39941 0.0
C724 C 0.53299 0.08418 0.34878 0.0
C725 C 0.54788 0.06343 0.33596 0.0
C726 C 0.55126 1.0574 0.37747 0.0
C727 C 0.56388 1.03951 0.34458 0.0
C728 C 0.56245 1.02437 0.40755 0.0
C729 C 0.55459 0.08273 0.4322 0.0
N730 N 0.56515 1.03716 0.36479 0.0
N731 N 0.55086 0.08285 0.41198 0.0
H732 H 0.68904 0.5635 0.78186 0.0
H733 H 0.62 0.55332 0.66698 0.0
H734 H 0.57277 0.55989 0.76399 0.0
H735 H 0.74161 0.57242 0.68745 0.0
H736 H 0.59964 0.55178 0.70192 0.0
H737 H 0.70593 0.56246 0.74694 0.0
C738 C 0.66688 0.5624 0.77058 0.0
C739 C 0.62934 0.56181 0.77592 0.0
C740 C 0.6307 0.55617 0.69871 0.0
C741 C 0.64879 0.56064 0.73558 0.0
C742 C 0.64244 0.55721 0.67878 0.0
C743 C 0.68262 0.56294 0.67422 0.0
C744 C 0.65931 0.56083 0.71417 0.0
C745 C 0.71008 0.56721 0.69015 0.0
C746 C 0.67667 0.56187 0.75056 0.0
C747 C 0.60207 0.56045 0.76054 0.0
N748 N 0.69793 0.56612 0.70935 0.0
N749 N 0.61234 0.5599 0.74101 0.0
H750 H 0.60207 1.00662 0.56757 0.0
H751 H 0.62052 0.13016 0.67016 0.0
H752 H 0.56639 0.10273 0.57244 0.0
H753 H 0.56964 0.99489 0.66922 0.0
H754 H 0.61793 0.12659 0.63373 0.0
H755 H 0.60658 1.00757 0.60443 0.0
C756 C 0.5954 1.02801 0.57639 0.0
C757 C 0.58375 1.0546 0.56698 0.0
C758 C 0.60741 0.09775 0.64156 0.0
C759 C 0.58972 1.05637 0.60884 0.0
C760 C 0.60849 0.09955 0.66242 0.0
C761 C 0.59413 0.06254 0.67305 0.0
C762 C 0.59306 0.05891 0.63101 0.0
C763 C 0.58101 1.02431 0.66185 0.0
C764 C 0.59777 1.02834 0.59733 0.0
C765 C 0.57522 0.08155 0.57908 0.0
N766 N 0.58078 1.02347 0.64142 0.0
N767 N 0.57883 0.08208 0.59936 0.0
H768 H 0.62607 0.632 0.90516 0.0
H769 H 0.57809 0.49483 0.00097 0.0
H770 H 0.55521 0.49561 0.89997 0.0
H771 H 0.58545 0.61636 0.00348 0.0
H772 H 0.58062 0.49662 0.96419 0.0
H773 H 0.62192 0.62901 0.94165 0.0
C774 C 0.60956 0.60141 0.91171 0.0
C775 C 0.59083 0.56398 0.89952 0.0
C776 C 0.58168 0.52283 0.97284 0.0
C777 C 0.58673 0.56038 0.94128 0.0
C778 C 0.58057 0.52198 0.99376 0.0
C779 C 0.58154 0.55549 0.00519 0.0
C780 C 0.58478 0.5579 0.96339 0.0
C781 C 0.58443 0.58982 0.99516 0.0
C782 C 0.60715 0.59975 0.93251 0.0
C783 C 0.56979 0.52521 0.90882 0.0
N784 N 0.58627 0.5903 0.97486 0.0
N785 N 0.56868 0.52437 0.92918 0.0
H786 H 1.0882 0.60052 0.23709 0.0
H787 H 1.06097 0.47351 0.33616 0.0
H788 H 1.07061 0.4745 0.23494 0.0
H789 H 0.10182 0.60645 0.3359 0.0
H790 H 1.05724 0.46995 0.29929 0.0
H791 H 1.0864 0.59994 0.27342 0.0
C792 C 1.08387 0.57259 0.24423 0.0
C793 C 1.07972 0.53754 0.23284 0.0
C794 C 1.06695 0.49983 0.30735 0.0
C795 C 1.07758 0.53671 0.27479 0.0
C796 C 1.06883 0.50181 0.32836 0.0
C797 C 1.08208 0.54042 0.33912 0.0
C798 C 1.0779 0.53661 0.29708 0.0
C799 C 0.09209 0.57617 0.32825 0.0
C800 C 1.0829 0.57233 0.26506 0.0
C801 C 1.07413 0.50231 0.24309 0.0
N802 N 1.0898 0.57338 0.30792 0.0
N803 N 1.07322 0.50277 0.2635 0.0
loop_
_geom_bond_atom_site_label_1
_geom_bond_atom_site_label_2
_geom_bond_distance
_geom_bond_site_symmetry_2
_ccdc_geom_bond_type
Eu0 C9 2.828 . S
Eu0 O11 2.392 1_655 S
Eu0 O13 2.418 . S
Eu0 O18 2.373 . S
Eu0 O21 2.488 . S
Eu0 O22 2.471 . S
Eu0 O23 2.349 . S
Eu1 O10 2.373 . S
Eu1 O14 2.488 . S
Eu1 O15 2.471 . S
Eu1 O16 2.349 . S
Eu1 O19 2.392 1_455 S
Eu1 O20 2.418 . S
Eu1 C30 2.828 . S
C2 O20 1.244 . S
C2 O23 1.265 1_455 S
C3 C4 1.379 . S
C3 C7 1.373 . S
C3 C9 1.505 . S
C4 C3 1.379 . S
C4 C6 1.369 . S
C4 H32 0.930 . S
C5 C7 1.383 . S
C5 C8 1.382 . S
C5 H33 0.930 . S
C6 C4 1.369 . S
C6 C8 1.392 . S
C6 H34 0.930 . S
C7 C3 1.373 . S
C7 C5 1.383 . S
C7 H35 0.931 . S
C8 C5 1.382 . S
C8 C6 1.392 . S
C9 Eu0 2.828 . S
C9 C3 1.505 . S
C9 O21 1.249 . S
C9 O22 1.244 . S
O10 Eu1 2.373 . S
O10 C12 1.258 . S
O11 Eu0 2.392 1_455 S
O11 C12 1.242 . S
C12 O10 1.258 . S
C12 O11 1.242 . S
O13 Eu0 2.418 . S
O13 C17 1.247 . S
O14 Eu1 2.488 . S
O14 C30 1.249 . S
O15 Eu1 2.471 . S
O15 C30 1.244 . S
O16 Eu1 2.349 . S
O16 C17 1.262 1_455 S
C17 O13 1.247 . S
C17 O16 1.262 1_655 S
O18 Eu0 2.373 . S
O18 C31 1.258 . S
O19 Eu1 2.392 1_655 S
O19 C31 1.242 . S
O20 Eu1 2.418 . S
O20 C2 1.244 . S
O21 Eu0 2.488 . S
O21 C9 1.249 . S
O22 Eu0 2.471 . S
O22 C9 1.244 . S
O23 Eu0 2.349 . S
O23 C2 1.265 1_655 S
C24 C25 1.379 . S
C24 C28 1.373 . S
C24 C30 1.505 . S
C25 C24 1.379 . S
C25 C27 1.369 . S
C25 H36 0.930 . S
C26 C28 1.383 . S
C26 C29 1.382 . S
C26 H37 0.930 . S
C27 C25 1.369 . S
C27 C29 1.392 . S
C27 H38 0.930 . S
C28 C24 1.373 . S
C28 C26 1.383 . S
C28 H39 0.931 . S
C29 C26 1.382 . S
C29 C27 1.392 . S
C30 Eu1 2.828 . S
C30 O14 1.249 . S
C30 O15 1.244 . S
C30 C24 1.505 . S
C31 O18 1.258 . S
C31 O19 1.242 . S
H32 C4 0.930 . S
H33 C5 0.930 . S
H34 C6 0.930 . S
H35 C7 0.931 . S
H36 C25 0.930 . S
H37 C26 0.930 . S
H38 C27 0.930 . S
H39 C28 0.931 . S
Eu40 C49 2.828 . S
Eu40 O51 2.392 1_565 S
Eu40 O53 2.418 . S
Eu40 O58 2.373 . S
Eu40 O61 2.488 . S
Eu40 O62 2.471 . S
Eu40 O63 2.349 . S
Eu41 O50 2.373 . S
Eu41 O54 2.488 . S
Eu41 O55 2.471 . S
Eu41 O56 2.349 . S
Eu41 O59 2.392 1_545 S
Eu41 O60 2.418 . S
Eu41 C70 2.828 . S
C42 O60 1.244 . S
C42 O63 1.265 1_545 S
C43 C44 1.379 . S
C43 C47 1.373 . S
C43 C49 1.505 . S
C44 C43 1.379 . S
C44 C46 1.369 . S
C44 H72 0.930 . S
C45 C47 1.383 . S
C45 C48 1.382 . S
C45 H73 0.930 . S
C46 C44 1.369 . S
C46 C48 1.392 . S
C46 H74 0.930 . S
C47 C43 1.373 . S
C47 C45 1.383 . S
C47 H75 0.931 . S
C48 C45 1.382 . S
C48 C46 1.392 . S
C49 Eu40 2.828 . S
C49 C43 1.505 . S
C49 O61 1.249 . S
C49 O62 1.244 . S
O50 Eu41 2.373 . S
O50 C52 1.258 . S
O51 Eu40 2.392 1_545 S
O51 C52 1.242 . S
C52 O50 1.258 . S
C52 O51 1.242 . S
O53 Eu40 2.418 . S
O53 C57 1.244 1_565 S
O54 Eu41 2.488 . S
O54 C70 1.249 . S
O55 Eu41 2.471 . S
O55 C70 1.244 . S
O56 Eu41 2.349 . S
O56 C57 1.265 . S
C57 O53 1.244 1_545 S
C57 O56 1.265 . S
O58 Eu40 2.373 . S
O58 C71 1.258 . S
O59 Eu41 2.392 1_565 S
O59 C71 1.242 . S
O60 Eu41 2.418 . S
O60 C42 1.244 . S
O61 Eu40 2.488 . S
O61 C49 1.249 . S
O62 Eu40 2.471 . S
O62 C49 1.244 . S
O63 Eu40 2.349 . S
O63 C42 1.265 1_565 S
C64 C65 1.379 . S
C64 C68 1.373 . S
C64 C70 1.505 . S
C65 C64 1.379 . S
C65 C67 1.369 . S
C65 H76 0.930 . S
C66 C68 1.383 . S
C66 C69 1.382 . S
C66 H77 0.930 . S
C67 C65 1.369 . S
C67 C69 1.392 . S
C67 H78 0.930 . S
C68 C64 1.373 . S
C68 C66 1.383 . S
C68 H79 0.931 . S
C69 C66 1.382 . S
C69 C67 1.392 . S
C70 Eu41 2.828 . S
C70 O54 1.249 . S
C70 O55 1.244 . S
C70 C64 1.505 . S
C71 O58 1.258 . S
C71 O59 1.242 . S
H72 C44 0.930 . S
H73 C45 0.930 . S
H74 C46 0.930 . S
H75 C47 0.931 . S
H76 C65 0.930 . S
H77 C66 0.930 . S
H78 C67 0.930 . S
H79 C68 0.931 . S
Eu80 C89 2.828 . S
Eu80 O91 2.392 . S
Eu80 O93 2.418 . S
Eu80 O98 2.373 . S
Eu80 O101 2.488 . S
Eu80 O102 2.471 . S
Eu80 O103 2.349 . S
Eu81 O90 2.373 . S
Eu81 O94 2.488 . S
Eu81 O95 2.471 . S
Eu81 O96 2.349 . S
Eu81 O99 2.392 . S
Eu81 O100 2.418 . S
Eu81 C110 2.828 . S
C82 O100 1.244 . S
C82 O103 1.265 . S
C83 C84 1.379 . S
C83 C87 1.373 . S
C83 C89 1.505 . S
C84 C83 1.379 . S
C84 C86 1.369 . S
C84 H112 0.930 . S
C85 C87 1.383 . S
C85 C88 1.382 . S
C85 H113 0.930 . S
C86 C84 1.369 . S
C86 C88 1.392 . S
C86 H114 0.930 . S
C87 C83 1.373 . S
C87 C85 1.383 . S
C87 H115 0.931 . S
C88 C85 1.382 . S
C88 C86 1.392 . S
C89 Eu80 2.828 . S
C89 C83 1.505 . S
C89 O101 1.249 . S
C89 O102 1.244 . S
O90 Eu81 2.373 . S
O90 C92 1.258 . S
O91 Eu80 2.392 . S
O91 C92 1.242 . S
C92 O90 1.258 . S
C92 O91 1.242 . S
O93 Eu80 2.418 . S
O93 C97 1.244 . S
O94 Eu81 2.488 . S
O94 C110 1.249 . S
O95 Eu81 2.471 . S
O95 C110 1.244 . S
O96 Eu81 2.349 . S
O96 C97 1.265 . S
C97 O93 1.244 . S
C97 O96 1.265 . S
O98 Eu80 2.373 . S
O98 C111 1.258 . S
O99 Eu81 2.392 . S
O99 C111 1.242 . S
O100 Eu81 2.418 . S
O100 C82 1.244 . S
O101 Eu80 2.488 . S
O101 C89 1.249 . S
O102 Eu80 2.471 . S
O102 C89 1.244 . S
O103 Eu80 2.349 . S
O103 C82 1.265 . S
C104 C105 1.379 . S
C104 C108 1.373 . S
C104 C110 1.505 . S
C105 C104 1.379 . S
C105 C107 1.369 . S
C105 H116 0.930 . S
C106 C108 1.383 . S
C106 C109 1.382 . S
C106 H117 0.930 . S
C107 C105 1.369 . S
C107 C109 1.392 . S
C107 H118 0.930 . S
C108 C104 1.373 . S
C108 C106 1.383 . S
C108 H119 0.931 . S
C109 C106 1.382 . S
C109 C107 1.392 . S
C110 Eu81 2.828 . S
C110 O94 1.249 . S
C110 O95 1.244 . S
C110 C104 1.505 . S
C111 O98 1.258 . S
C111 O99 1.242 . S
H112 C84 0.930 . S
H113 C85 0.930 . S
H114 C86 0.930 . S
H115 C87 0.931 . S
H116 C105 0.930 . S
H117 C106 0.930 . S
H118 C107 0.930 . S
H119 C108 0.931 . S
C120 C121 1.391 . S
C120 C124 1.391 . S
C120 H162 0.948 . S
C121 C120 1.391 . S
C121 C122 1.391 . S
C122 C121 1.391 . S
C122 H178 0.947 . S
C122 C179 1.392 . S
C123 C124 1.391 . S
C123 C127 1.397 . S
C123 C179 1.419 . S
C124 C120 1.391 . S
C124 C123 1.391 . S
C124 C125 1.399 . S
C125 C124 1.399 . S
C125 C128 1.396 . S
C125 C137 1.453 . S
C125 C138 1.684 . S
H126 C150 0.948 . S
C127 C123 1.397 . S
C127 C128 1.394 . S
C127 C146 1.723 . S
C128 C125 1.396 . S
C128 C127 1.394 . S
C128 C158 1.723 1_545 S
H129 C152 0.947 . S
H130 C153 0.948 . S
H131 C159 0.982 . S
H132 C160 0.979 . S
H133 C160 0.980 . S
H134 C160 0.983 . S
H135 C159 0.979 . S
H136 C159 0.977 . S
C137 C125 1.453 . S
C137 H166 0.982 . S
C137 H167 0.979 . S
C137 H168 0.977 . S
C138 C125 1.684 . S
C138 H163 0.979 . S
C138 H164 0.980 . S
C138 H165 0.983 . S
C139 C140 1.391 . S
C139 C144 1.391 . S
C139 H169 0.948 . S
C140 C139 1.391 . S
C140 C141 1.391 1_545 S
C141 C140 1.391 1_565 S
C141 C142 1.392 . S
C141 H170 0.947 . S
C142 C141 1.392 . S
C142 C143 1.419 1_565 S
C142 H171 0.948 . S
C143 C142 1.419 1_545 S
C143 C144 1.391 . S
C143 C147 1.397 . S
C144 C139 1.391 . S
C144 C143 1.391 . S
C144 C145 1.399 . S
C145 C144 1.399 . S
C145 C146 1.396 . S
C145 C148 1.453 . S
C145 C149 1.684 . S
C146 C127 1.723 . S
C146 C145 1.396 . S
C146 C147 1.394 . S
C147 C143 1.397 . S
C147 C146 1.394 . S
C147 C157 1.723 1_545 S
C148 C145 1.453 . S
C148 H172 0.982 . S
C148 H173 0.979 . S
C148 H174 0.977 . S
C149 C145 1.684 . S
C149 H175 0.979 . S
C149 H176 0.980 . S
C149 H177 0.983 . S
C150 H126 0.948 . S
C150 C151 1.391 . S
C150 C155 1.391 . S
C151 C150 1.391 . S
C151 C152 1.391 . S
C152 H129 0.947 . S
C152 C151 1.391 . S
C152 C153 1.392 . S
C153 H130 0.948 . S
C153 C152 1.392 . S
C153 C154 1.419 . S
C154 C153 1.419 . S
C154 C155 1.391 . S
C154 C158 1.397 . S
C155 C150 1.391 . S
C155 C154 1.391 . S
C155 C156 1.399 . S
C156 C155 1.399 . S
C156 C157 1.396 . S
C156 C159 1.453 . S
C156 C160 1.684 . S
C157 C147 1.723 1_565 S
C157 C156 1.396 . S
C157 C158 1.394 . S
C158 C128 1.723 1_565 S
C158 C154 1.397 . S
C158 C157 1.394 . S
C159 H131 0.982 . S
C159 H135 0.979 . S
C159 H136 0.977 . S
C159 C156 1.453 . S
C160 H132 0.979 . S
C160 H133 0.980 . S
C160 H134 0.983 . S
C160 C156 1.684 . S
H161 C179 0.948 . S
H162 C120 0.948 . S
H163 C138 0.979 . S
H164 C138 0.980 . S
H165 C138 0.983 . S
H166 C137 0.982 . S
H167 C137 0.979 . S
H168 C137 0.977 . S
H169 C139 0.948 . S
H170 C141 0.947 . S
H171 C142 0.948 . S
H172 C148 0.982 . S
H173 C148 0.979 . S
H174 C148 0.977 . S
H175 C149 0.979 . S
H176 C149 0.980 . S
H177 C149 0.983 . S
H178 C122 0.947 . S
C179 C122 1.392 . S
C179 C123 1.419 . S
C179 H161 0.948 . S
C180 C181 1.391 . S
C180 C184 1.391 . S
C180 H222 0.948 . S
C181 C180 1.391 . S
C181 C182 1.391 . S
C182 C181 1.391 . S
C182 H238 0.947 . S
C182 C239 1.392 . S
C183 C184 1.391 . S
C183 C187 1.397 . S
C183 C239 1.419 . S
C184 C180 1.391 . S
C184 C183 1.391 . S
C184 C185 1.399 . S
C185 C184 1.399 . S
C185 C188 1.396 . S
C185 C197 1.453 . S
C185 C198 1.684 . S
H186 C210 0.948 . S
C187 C183 1.397 . S
C187 C188 1.394 . S
C187 C206 1.723 . S
C188 C185 1.396 . S
C188 C187 1.394 . S
C188 C218 1.723 . S
H189 C212 0.947 . S
H190 C213 0.948 . S
H191 C219 0.982 . S
H192 C220 0.979 . S
H193 C220 0.980 . S
H194 C220 0.983 . S
H195 C219 0.979 . S
H196 C219 0.977 . S
C197 C185 1.453 . S
C197 H226 0.982 . S
C197 H227 0.979 . S
C197 H228 0.977 . S
C198 C185 1.684 . S
C198 H223 0.979 . S
C198 H224 0.980 . S
C198 H225 0.983 . S
C199 C200 1.391 . S
C199 C204 1.391 . S
C199 H229 0.948 . S
C200 C199 1.391 . S
C200 C201 1.391 . S
C201 C200 1.391 . S
C201 C202 1.392 . S
C201 H230 0.947 . S
C202 C201 1.392 . S
C202 C203 1.419 . S
C202 H231 0.948 . S
C203 C202 1.419 . S
C203 C204 1.391 . S
C203 C207 1.397 . S
C204 C199 1.391 . S
C204 C203 1.391 . S
C204 C205 1.399 . S
C205 C204 1.399 . S
C205 C206 1.396 . S
C205 C208 1.453 . S
C205 C209 1.684 . S
C206 C187 1.723 . S
C206 C205 1.396 . S
C206 C207 1.394 . S
C207 C203 1.397 . S
C207 C206 1.394 . S
C207 C217 1.723 . S
C208 C205 1.453 . S
C208 H232 0.982 . S
C208 H233 0.979 . S
C208 H234 0.977 . S
C209 C205 1.684 . S
C209 H235 0.979 . S
C209 H236 0.980 . S
C209 H237 0.983 . S
C210 H186 0.948 . S
C210 C211 1.391 . S
C210 C215 1.391 . S
C211 C210 1.391 . S
C211 C212 1.391 . S
C212 H189 0.947 . S
C212 C211 1.391 . S
C212 C213 1.392 . S
C213 H190 0.948 . S
C213 C212 1.392 . S
C213 C214 1.419 . S
C214 C213 1.419 . S
C214 C215 1.391 . S
C214 C218 1.397 . S
C215 C210 1.391 . S
C215 C214 1.391 . S
C215 C216 1.399 . S
C216 C215 1.399 . S
C216 C217 1.396 . S
C216 C219 1.453 . S
C216 C220 1.684 . S
C217 C207 1.723 . S
C217 C216 1.396 . S
C217 C218 1.394 . S
C218 C188 1.723 . S
C218 C214 1.397 . S
C218 C217 1.394 . S
C219 H191 0.982 . S
C219 H195 0.979 . S
C219 H196 0.977 . S
C219 C216 1.453 . S
C220 H192 0.979 . S
C220 H193 0.980 . S
C220 H194 0.983 . S
C220 C216 1.684 . S
H221 C239 0.948 . S
H222 C180 0.948 . S
H223 C198 0.979 . S
H224 C198 0.980 . S
H225 C198 0.983 . S
H226 C197 0.982 . S
H227 C197 0.979 . S
H228 C197 0.977 . S
H229 C199 0.948 . S
H230 C201 0.947 . S
H231 C202 0.948 . S
H232 C208 0.982 . S
H233 C208 0.979 . S
H234 C208 0.977 . S
H235 C209 0.979 . S
H236 C209 0.980 . S
H237 C209 0.983 . S
H238 C182 0.947 . S
C239 C182 1.392 . S
C239 C183 1.419 . S
C239 H221 0.948 . S
C240 C241 1.391 . S
C240 C244 1.391 . S
C240 H282 0.948 . S
C241 C240 1.391 . S
C241 C242 1.391 . S
C242 C241 1.391 . S
C242 H298 0.947 . S
C242 C299 1.392 . S
C243 C244 1.391 . S
C243 C247 1.397 . S
C243 C299 1.419 . S
C244 C240 1.391 . S
C244 C243 1.391 . S
C244 C245 1.399 . S
C245 C244 1.399 . S
C245 C248 1.396 . S
C245 C257 1.453 . S
C245 C258 1.684 . S
H246 C270 0.948 . S
C247 C243 1.397 . S
C247 C248 1.394 . S
C247 C266 1.723 . S
C248 C245 1.396 . S
C248 C247 1.394 . S
C248 C278 1.723 . S
H249 C272 0.947 . S
H250 C273 0.948 1_455 S
H251 C279 0.982 . S
H252 C280 0.979 . S
H253 C280 0.980 . S
H254 C280 0.983 . S
H255 C279 0.979 . S
H256 C279 0.977 . S
C257 C245 1.453 . S
C257 H286 0.982 . S
C257 H287 0.979 . S
C257 H288 0.977 . S
C258 C245 1.684 . S
C258 H283 0.979 . S
C258 H284 0.980 . S
C258 H285 0.983 . S
C259 C260 1.391 . S
C259 C264 1.391 . S
C259 H289 0.948 . S
C260 C259 1.391 . S
C260 C261 1.387 1_455 S
C261 C260 1.387 1_655 S
C261 C262 1.392 . S
C261 H290 0.951 . S
C262 C261 1.392 . S
C262 C263 1.419 1_655 S
C262 H291 0.948 . S
C263 C262 1.419 1_455 S
C263 C264 1.391 . S
C263 C267 1.397 . S
C264 C259 1.391 . S
C264 C263 1.391 . S
C264 C265 1.399 . S
C265 C264 1.399 . S
C265 C266 1.396 . S
C265 C268 1.453 . S
C265 C269 1.684 . S
C266 C247 1.723 . S
C266 C265 1.396 . S
C266 C267 1.394 . S
C267 C263 1.397 . S
C267 C266 1.394 . S
C267 C277 1.723 1_455 S
C268 C265 1.453 . S
C268 H292 0.982 . S
C268 H293 0.979 . S
C268 H294 0.977 . S
C269 C265 1.684 . S
C269 H295 0.979 . S
C269 H296 0.980 . S
C269 H297 0.983 . S
C270 H246 0.948 . S
C270 C271 1.391 . S
C270 C275 1.391 . S
C271 C270 1.391 . S
C271 C272 1.391 . S
C272 H249 0.947 . S
C272 C271 1.391 . S
C272 C273 1.392 . S
C273 H250 0.948 1_655 S
C273 C272 1.392 . S
C273 C274 1.419 . S
C274 C273 1.419 . S
C274 C275 1.391 . S
C274 C278 1.397 1_655 S
C275 C270 1.391 . S
C275 C274 1.391 . S
C275 C276 1.399 . S
C276 C275 1.399 . S
C276 C277 1.396 . S
C276 C279 1.453 . S
C276 C280 1.684 . S
C277 C267 1.723 1_655 S
C277 C276 1.396 . S
C277 C278 1.394 1_655 S
C278 C248 1.723 . S
C278 C274 1.397 1_455 S
C278 C277 1.394 1_455 S
C279 H251 0.982 . S
C279 H255 0.979 . S
C279 H256 0.977 . S
C279 C276 1.453 . S
C280 H252 0.979 . S
C280 H253 0.980 . S
C280 H254 0.983 . S
C280 C276 1.684 . S
H281 C299 0.948 . S
H282 C240 0.948 . S
H283 C258 0.979 . S
H284 C258 0.980 . S
H285 C258 0.983 . S
H286 C257 0.982 . S
H287 C257 0.979 . S
H288 C257 0.977 . S
H289 C259 0.948 . S
H290 C261 0.951 . S
H291 C262 0.948 . S
H292 C268 0.982 . S
H293 C268 0.979 . S
H294 C268 0.977 . S
H295 C269 0.979 . S
H296 C269 0.980 . S
H297 C269 0.983 . S
H298 C242 0.947 . S
C299 C242 1.392 . S
C299 C243 1.419 . S
C299 H281 0.948 . S
C300 C301 1.391 . S
C300 C304 1.391 . S
C300 H342 0.948 . S
C301 C300 1.391 . S
C301 C302 1.391 . S
C302 C301 1.391 . S
C302 H358 0.947 . S
C302 C359 1.392 . S
C303 C304 1.391 . S
C303 C307 1.397 . S
C303 C359 1.419 . S
C304 C300 1.391 . S
C304 C303 1.391 . S
C304 C305 1.399 . S
C305 C304 1.399 . S
C305 C308 1.396 1_655 S
C305 C317 1.453 1_655 S
C305 C318 1.684 . S
H306 C330 0.948 . S
C307 C303 1.397 . S
C307 C308 1.394 1_655 S
C307 C326 1.723 . S
C308 C305 1.396 1_455 S
C308 C307 1.394 1_455 S
C308 C338 1.723 . S
H309 C332 0.947 . S
H310 C333 0.948 . S
H311 C339 0.982 . S
H312 C340 0.979 . S
H313 C340 0.980 . S
H314 C340 0.983 . S
H315 C339 0.979 . S
H316 C339 0.977 . S
C317 C305 1.453 1_455 S
C317 H346 0.982 . S
C317 H347 0.979 . S
C317 H348 0.977 . S
C318 C305 1.684 . S
C318 H343 0.979 . S
C318 H344 0.980 1_655 S
C318 H345 0.983 . S
C319 C320 1.391 1_655 S
C319 C324 1.391 . S
C319 H349 0.948 . S
C320 C319 1.391 1_455 S
C320 C321 1.391 . S
C321 C320 1.391 . S
C321 C322 1.392 . S
C321 H350 0.947 . S
C322 C321 1.392 . S
C322 C323 1.419 . S
C322 H351 0.948 . S
C323 C322 1.419 . S
C323 C324 1.391 1_455 S
C323 C327 1.397 . S
C324 C319 1.391 . S
C324 C323 1.391 1_655 S
C324 C325 1.399 . S
C325 C324 1.399 . S
C325 C326 1.396 . S
C325 C328 1.453 . S
C325 C329 1.684 . S
C326 C307 1.723 . S
C326 C325 1.396 . S
C326 C327 1.394 1_655 S
C327 C323 1.397 . S
C327 C326 1.394 1_455 S
C327 C337 1.723 . S
C328 C325 1.453 . S
C328 H352 0.982 . S
C328 H353 0.979 . S
C328 H354 0.977 . S
C329 C325 1.684 . S
C329 H355 0.979 . S
C329 H356 0.980 . S
C329 H357 0.983 . S
C330 H306 0.948 . S
C330 C331 1.391 . S
C330 C335 1.391 . S
C331 C330 1.391 . S
C331 C332 1.391 . S
C332 H309 0.947 . S
C332 C331 1.391 . S
C332 C333 1.392 . S
C333 H310 0.948 . S
C333 C332 1.392 . S
C333 C334 1.419 . S
C334 C333 1.419 . S
C334 C335 1.391 . S
C334 C338 1.397 . S
C335 C330 1.391 . S
C335 C334 1.391 . S
C335 C336 1.399 . S
C336 C335 1.399 . S
C336 C337 1.396 . S
C336 C339 1.453 . S
C336 C340 1.684 . S
C337 C327 1.723 . S
C337 C336 1.396 . S
C337 C338 1.394 . S
C338 C308 1.723 . S
C338 C334 1.397 . S
C338 C337 1.394 . S
C339 H311 0.982 . S
C339 H315 0.979 . S
C339 H316 0.977 . S
C339 C336 1.453 . S
C340 H312 0.979 . S
C340 H313 0.980 . S
C340 H314 0.983 . S
C340 C336 1.684 . S
H341 C359 0.948 . S
H342 C300 0.948 . S
H343 C318 0.979 . S
H344 C318 0.980 1_455 S
H345 C318 0.983 . S
H346 C317 0.982 . S
H347 C317 0.979 . S
H348 C317 0.977 . S
H349 C319 0.948 . S
H350 C321 0.947 . S
H351 C322 0.948 . S
H352 C328 0.982 . S
H353 C328 0.979 . S
H354 C328 0.977 . S
H355 C329 0.979 . S
H356 C329 0.980 . S
H357 C329 0.983 . S
H358 C302 0.947 . S
C359 C302 1.392 . S
C359 C303 1.419 . S
C359 H341 0.948 . S
C360 C361 1.391 . S
C360 C364 1.391 . S
C360 H402 0.948 . S
C361 C360 1.391 . S
C361 C362 1.391 . S
C362 C361 1.391 . S
C362 H418 0.947 . S
C362 C419 1.392 . S
C363 C364 1.391 . S
C363 C367 1.397 . S
C363 C419 1.419 . S
C364 C360 1.391 . S
C364 C363 1.391 . S
C364 C365 1.399 . S
C365 C364 1.399 . S
C365 C368 1.396 1_565 S
C365 C377 1.453 1_565 S
C365 C378 1.684 . S
H366 C390 0.948 . S
C367 C363 1.397 . S
C367 C368 1.394 1_565 S
C367 C386 1.723 . S
C368 C365 1.396 1_545 S
C368 C367 1.394 1_545 S
C368 C398 1.723 . S
H369 C392 0.947 . S
H370 C393 0.948 . S
H371 C399 0.982 . S
H372 C400 0.979 . S
H373 C400 0.980 . S
H374 C400 0.983 . S
H375 C399 0.979 . S
H376 C399 0.977 . S
C377 C365 1.453 1_545 S
C377 H406 0.982 . S
C377 H407 0.968 1_545 S
C377 H408 0.977 . S
C378 C365 1.684 . S
C378 H403 0.979 . S
C378 H404 0.980 1_565 S
C378 H405 0.983 . S
C379 C380 1.391 1_565 S
C379 C384 1.391 . S
C379 H409 0.948 . S
C380 C379 1.391 1_545 S
C380 C381 1.391 . S
C381 C380 1.391 . S
C381 C382 1.392 . S
C381 H410 0.947 . S
C382 C381 1.392 . S
C382 C383 1.419 . S
C382 H411 0.948 . S
C383 C382 1.419 . S
C383 C384 1.391 1_545 S
C383 C387 1.397 . S
C384 C379 1.391 . S
C384 C383 1.391 1_565 S
C384 C385 1.399 . S
C385 C384 1.399 . S
C385 C386 1.396 . S
C385 C388 1.453 . S
C385 C389 1.684 . S
C386 C367 1.723 . S
C386 C385 1.396 . S
C386 C387 1.394 1_565 S
C387 C383 1.397 . S
C387 C386 1.394 1_545 S
C387 C397 1.723 . S
C388 C385 1.453 . S
C388 H412 0.982 . S
C388 H413 0.979 . S
C388 H414 0.977 . S
C389 C385 1.684 . S
C389 H415 0.979 . S
C389 H416 0.980 . S
C389 H417 0.983 . S
C390 H366 0.948 . S
C390 C391 1.391 . S
C390 C395 1.391 . S
C391 C390 1.391 . S
C391 C392 1.391 . S
C392 H369 0.947 . S
C392 C391 1.391 . S
C392 C393 1.392 . S
C393 H370 0.948 . S
C393 C392 1.392 . S
C393 C394 1.419 . S
C394 C393 1.419 . S
C394 C395 1.391 . S
C394 C398 1.397 . S
C395 C390 1.391 . S
C395 C394 1.391 . S
C395 C396 1.399 . S
C396 C395 1.399 . S
C396 C397 1.396 . S
C396 C399 1.453 . S
C396 C400 1.684 . S
C397 C387 1.723 . S
C397 C396 1.396 . S
C397 C398 1.394 . S
C398 C368 1.723 . S
C398 C394 1.397 . S
C398 C397 1.394 . S
C399 H371 0.982 . S
C399 H375 0.979 . S
C399 H376 0.977 . S
C399 C396 1.453 . S
C400 H372 0.979 . S
C400 H373 0.980 . S
C400 H374 0.983 . S
C400 C396 1.684 . S
H401 C419 0.948 . S
H402 C360 0.948 . S
H403 C378 0.979 . S
H404 C378 0.980 1_545 S
H405 C378 0.983 . S
H406 C377 0.982 . S
H407 C377 0.968 1_565 S
H408 C377 0.977 . S
H409 C379 0.948 . S
H410 C381 0.947 . S
H411 C382 0.948 . S
H412 C388 0.982 . S
H413 C388 0.979 . S
H414 C388 0.977 . S
H415 C389 0.979 . S
H416 C389 0.980 . S
H417 C389 0.983 . S
H418 C362 0.947 . S
C419 C362 1.392 . S
C419 C363 1.419 . S
C419 H401 0.948 . S
C420 C421 1.391 . S
C420 C424 1.391 . S
C420 H462 0.948 . S
C421 C420 1.391 . S
C421 C422 1.391 . S
C422 C421 1.391 . S
C422 H478 0.947 . S
C422 C479 1.392 . S
C423 C424 1.391 . S
C423 C427 1.397 . S
C423 C479 1.419 . S
C424 C420 1.391 . S
C424 C423 1.391 . S
C424 C425 1.399 . S
C425 C424 1.399 . S
C425 C428 1.396 . S
C425 C437 1.453 . S
C425 C438 1.684 . S
H426 C450 0.948 . S
C427 C423 1.397 . S
C427 C428 1.394 . S
C427 C446 1.723 . S
C428 C425 1.396 . S
C428 C427 1.394 . S
C428 C458 1.723 . S
H429 C452 0.947 . S
H430 C453 0.948 . S
H431 C459 0.982 . S
H432 C460 0.979 . S
H433 C460 0.980 . S
H434 C460 0.983 . S
H435 C459 0.979 . S
H436 C459 0.977 . S
C437 C425 1.453 . S
C437 H466 0.982 . S
C437 H467 0.979 . S
C437 H468 0.977 . S
C438 C425 1.684 . S
C438 H463 0.979 . S
C438 H464 0.980 . S
C438 H465 0.983 . S
C439 C440 1.391 . S
C439 C444 1.391 . S
C439 H469 0.948 . S
C440 C439 1.391 . S
C440 C441 1.391 . S
C441 C440 1.391 . S
C441 C442 1.392 . S
C441 H470 0.947 . S
C442 C441 1.392 . S
C442 C443 1.419 . S
C442 H471 0.948 . S
C443 C442 1.419 . S
C443 C444 1.391 . S
C443 C447 1.397 . S
C444 C439 1.391 . S
C444 C443 1.391 . S
C444 C445 1.399 . S
C445 C444 1.399 . S
C445 C446 1.396 . S
C445 C448 1.453 . S
C445 C449 1.684 . S
C446 C427 1.723 . S
C446 C445 1.396 . S
C446 C447 1.394 . S
C447 C443 1.397 . S
C447 C446 1.394 . S
C447 C457 1.723 . S
C448 C445 1.453 . S
C448 H472 0.982 . S
C448 H473 0.979 . S
C448 H474 0.977 . S
C449 C445 1.684 . S
C449 H475 0.979 . S
C449 H476 0.980 . S
C449 H477 0.983 . S
C450 H426 0.948 . S
C450 C451 1.391 . S
C450 C455 1.391 . S
C451 C450 1.391 . S
C451 C452 1.391 . S
C452 H429 0.947 . S
C452 C451 1.391 . S
C452 C453 1.392 . S
C453 H430 0.948 . S
C453 C452 1.392 . S
C453 C454 1.419 . S
C454 C453 1.419 . S
C454 C455 1.391 . S
C454 C458 1.397 . S
C455 C450 1.391 . S
C455 C454 1.391 . S
C455 C456 1.399 . S
C456 C455 1.399 . S
C456 C457 1.396 . S
C456 C459 1.453 . S
C456 C460 1.684 . S
C457 C447 1.723 . S
C457 C456 1.396 . S
C457 C458 1.394 . S
C458 C428 1.723 . S
C458 C454 1.397 . S
C458 C457 1.394 . S
C459 H431 0.982 . S
C459 H435 0.979 . S
C459 H436 0.977 . S
C459 C456 1.453 . S
C460 H432 0.979 . S
C460 H433 0.980 . S
C460 H434 0.983 . S
C460 C456 1.684 . S
H461 C479 0.948 . S
H462 C420 0.948 . S
H463 C438 0.979 . S
H464 C438 0.980 . S
H465 C438 0.983 . S
H466 C437 0.982 . S
H467 C437 0.979 . S
H468 C437 0.977 . S
H469 C439 0.948 . S
H470 C441 0.947 . S
H471 C442 0.948 . S
H472 C448 0.982 . S
H473 C448 0.979 . S
H474 C448 0.977 . S
H475 C449 0.979 . S
H476 C449 0.980 . S
H477 C449 0.983 . S
H478 C422 0.947 . S
C479 C422 1.392 . S
C479 C423 1.419 . S
C479 H461 0.948 . S
H480 C486 0.930 . S
H481 C490 0.930 . S
H482 C495 0.929 . S
H483 C493 0.929 . S
H484 C488 0.929 . S
H485 C494 0.929 . S
C486 H480 0.930 . S
C486 C487 1.367 . S
C486 C494 1.378 . S
C487 C486 1.367 . S
C487 C495 1.433 . S
C488 H484 0.929 . S
C488 C490 1.378 . S
C488 C492 1.350 . S
C489 C492 1.463 . S
C489 C494 1.350 . S
C489 N497 1.427 . S
C490 H481 0.930 . S
C490 C488 1.378 . S
C490 C491 1.367 . S
C491 C490 1.367 . S
C491 C493 1.433 . S
C492 C488 1.350 . S
C492 C489 1.463 . S
C492 N496 1.427 . S
C493 H483 0.929 . S
C493 C491 1.433 . S
C493 N496 1.384 . S
C494 H485 0.929 . S
C494 C486 1.378 . S
C494 C489 1.350 . S
C495 H482 0.929 . S
C495 C487 1.433 . S
C495 N497 1.384 . S
N496 C492 1.427 . S
N496 C493 1.384 . S
N497 C489 1.427 . S
N497 C495 1.384 . S
H498 C504 0.930 . S
H499 C508 0.930 . S
H500 C513 0.929 . S
H501 C511 0.929 . S
H502 C506 0.929 . S
H503 C512 0.929 . S
C504 H498 0.930 . S
C504 C505 1.367 . S
C504 C512 1.378 . S
C505 C504 1.367 . S
C505 C513 1.433 . S
C506 H502 0.929 . S
C506 C508 1.378 . S
C506 C510 1.350 . S
C507 C510 1.463 . S
C507 C512 1.350 . S
C507 N515 1.427 . S
C508 H499 0.930 . S
C508 C506 1.378 . S
C508 C509 1.367 . S
C509 C508 1.367 . S
C509 C511 1.433 . S
C510 C506 1.350 . S
C510 C507 1.463 . S
C510 N514 1.427 . S
C511 H501 0.929 . S
C511 C509 1.433 . S
C511 N514 1.384 . S
C512 H503 0.929 . S
C512 C504 1.378 . S
C512 C507 1.350 . S
C513 H500 0.929 . S
C513 C505 1.433 . S
C513 N515 1.384 . S
N514 C510 1.427 . S
N514 C511 1.384 . S
N515 C507 1.427 . S
N515 C513 1.384 . S
H516 C522 0.930 . S
H517 C526 0.930 . S
H518 C531 0.929 . S
H519 C529 0.929 . S
H520 C524 0.929 . S
H521 C530 0.929 . S
C522 H516 0.930 . S
C522 C523 1.367 . S
C522 C530 1.378 . S
C523 C522 1.367 . S
C523 C531 1.433 . S
C524 H520 0.929 . S
C524 C526 1.378 . S
C524 C528 1.350 . S
C525 C528 1.463 . S
C525 C530 1.350 . S
C525 N533 1.427 . S
C526 H517 0.930 . S
C526 C524 1.378 . S
C526 C527 1.367 . S
C527 C526 1.367 . S
C527 C529 1.433 . S
C528 C524 1.350 . S
C528 C525 1.463 . S
C528 N532 1.427 . S
C529 H519 0.929 . S
C529 C527 1.433 . S
C529 N532 1.384 . S
C530 H521 0.929 . S
C530 C522 1.378 . S
C530 C525 1.350 . S
C531 H518 0.929 . S
C531 C523 1.433 . S
C531 N533 1.384 . S
N532 C528 1.427 . S
N532 C529 1.384 . S
N533 C525 1.427 . S
N533 C531 1.384 . S
H534 C540 0.930 . S
H535 C544 0.930 . S
H536 C549 0.929 . S
H537 C547 0.929 . S
H538 C542 0.929 . S
H539 C548 0.929 . S
C540 H534 0.930 . S
C540 C541 1.367 . S
C540 C548 1.378 . S
C541 C540 1.367 . S
C541 C549 1.433 . S
C542 H538 0.929 . S
C542 C544 1.378 . S
C542 C546 1.350 . S
C543 C546 1.463 . S
C543 C548 1.350 . S
C543 N551 1.427 . S
C544 H535 0.930 . S
C544 C542 1.378 . S
C544 C545 1.367 . S
C545 C544 1.367 . S
C545 C547 1.433 . S
C546 C542 1.350 . S
C546 C543 1.463 . S
C546 N550 1.427 . S
C547 H537 0.929 . S
C547 C545 1.433 . S
C547 N550 1.384 . S
C548 H539 0.929 . S
C548 C540 1.378 . S
C548 C543 1.350 . S
C549 H536 0.929 . S
C549 C541 1.433 . S
C549 N551 1.384 . S
N550 C546 1.427 . S
N550 C547 1.384 . S
N551 C543 1.427 . S
N551 C549 1.384 . S
H552 C558 0.930 . S
H553 C562 0.930 . S
H554 C567 0.929 . S
H555 C565 0.929 . S
H556 C560 0.929 . S
H557 C566 0.929 . S
C558 H552 0.930 . S
C558 C559 1.367 . S
C558 C566 1.378 . S
C559 C558 1.367 . S
C559 C567 1.433 . S
C560 H556 0.929 . S
C560 C562 1.378 . S
C560 C564 1.350 . S
C561 C564 1.463 . S
C561 C566 1.350 . S
C561 N569 1.427 . S
C562 H553 0.930 . S
C562 C560 1.378 . S
C562 C563 1.367 . S
C563 C562 1.367 . S
C563 C565 1.433 . S
C564 C560 1.350 . S
C564 C561 1.463 . S
C564 N568 1.427 . S
C565 H555 0.929 . S
C565 C563 1.433 . S
C565 N568 1.384 . S
C566 H557 0.929 . S
C566 C558 1.378 . S
C566 C561 1.350 . S
C567 H554 0.929 . S
C567 C559 1.433 . S
C567 N569 1.384 . S
N568 C564 1.427 . S
N568 C565 1.384 . S
N569 C561 1.427 . S
N569 C567 1.384 . S
H570 C576 0.930 . S
H571 C580 0.930 . S
H572 C585 0.929 . S
H573 C583 0.929 . S
H574 C578 0.929 . S
H575 C584 0.929 . S
C576 H570 0.930 . S
C576 C577 1.367 . S
C576 C584 1.378 . S
C577 C576 1.367 . S
C577 C585 1.433 . S
C578 H574 0.929 . S
C578 C580 1.378 . S
C578 C582 1.350 . S
C579 C582 1.463 . S
C579 C584 1.350 . S
C579 N587 1.427 . S
C580 H571 0.930 . S
C580 C578 1.378 . S
C580 C581 1.367 . S
C581 C580 1.367 . S
C581 C583 1.433 . S
C582 C578 1.350 . S
C582 C579 1.463 . S
C582 N586 1.427 . S
C583 H573 0.929 . S
C583 C581 1.433 . S
C583 N586 1.384 . S
C584 H575 0.929 . S
C584 C576 1.378 . S
C584 C579 1.350 . S
C585 H572 0.929 . S
C585 C577 1.433 . S
C585 N587 1.384 . S
N586 C582 1.427 . S
N586 C583 1.384 . S
N587 C579 1.427 . S
N587 C585 1.384 . S
H588 C594 0.930 . S
H589 C598 0.930 . S
H590 C603 0.929 . S
H591 C601 0.929 . S
H592 C596 0.929 . S
H593 C602 0.929 . S
C594 H588 0.930 . S
C594 C595 1.367 . S
C594 C602 1.378 . S
C595 C594 1.367 . S
C595 C603 1.433 . S
C596 H592 0.929 . S
C596 C598 1.378 . S
C596 C600 1.350 . S
C597 C600 1.463 . S
C597 C602 1.350 . S
C597 N605 1.427 . S
C598 H589 0.930 . S
C598 C596 1.378 . S
C598 C599 1.367 . S
C599 C598 1.367 . S
C599 C601 1.433 . S
C600 C596 1.350 . S
C600 C597 1.463 . S
C600 N604 1.427 . S
C601 H591 0.929 . S
C601 C599 1.433 . S
C601 N604 1.384 . S
C602 H593 0.929 . S
C602 C594 1.378 . S
C602 C597 1.350 . S
C603 H590 0.929 . S
C603 C595 1.433 . S
C603 N605 1.384 . S
N604 C600 1.427 . S
N604 C601 1.384 . S
N605 C597 1.427 . S
N605 C603 1.384 . S
H606 C612 0.930 . S
H607 C616 0.930 . S
H608 C621 0.929 . S
H609 C619 0.929 . S
H610 C614 0.929 . S
H611 C620 0.929 . S
C612 H606 0.930 . S
C612 C613 1.367 . S
C612 C620 1.378 . S
C613 C612 1.367 . S
C613 C621 1.433 . S
C614 H610 0.929 . S
C614 C616 1.378 . S
C614 C618 1.350 . S
C615 C618 1.463 . S
C615 C620 1.350 . S
C615 N623 1.427 . S
C616 H607 0.930 . S
C616 C614 1.378 . S
C616 C617 1.367 . S
C617 C616 1.367 . S
C617 C619 1.433 . S
C618 C614 1.350 . S
C618 C615 1.463 . S
C618 N622 1.427 . S
C619 H609 0.929 . S
C619 C617 1.433 . S
C619 N622 1.384 . S
C620 H611 0.929 . S
C620 C612 1.378 . S
C620 C615 1.350 . S
C621 H608 0.929 . S
C621 C613 1.433 . S
C621 N623 1.384 . S
N622 C618 1.427 . S
N622 C619 1.384 . S
N623 C615 1.427 . S
N623 C621 1.384 . S
H624 C630 0.930 . S
H625 C634 0.930 . S
H626 C639 0.929 . S
H627 C637 0.929 . S
H628 C632 0.929 . S
H629 C638 0.929 . S
C630 H624 0.930 . S
C630 C631 1.367 . S
C630 C638 1.378 . S
C631 C630 1.367 . S
C631 C639 1.433 . S
C632 H628 0.929 . S
C632 C634 1.378 . S
C632 C636 1.350 . S
C633 C636 1.463 . S
C633 C638 1.350 . S
C633 N641 1.427 . S
C634 H625 0.930 . S
C634 C632 1.378 . S
C634 C635 1.367 . S
C635 C634 1.367 . S
C635 C637 1.433 . S
C636 C632 1.350 . S
C636 C633 1.463 . S
C636 N640 1.427 . S
C637 H627 0.929 . S
C637 C635 1.433 . S
C637 N640 1.384 . S
C638 H629 0.929 . S
C638 C630 1.378 . S
C638 C633 1.350 . S
C639 H626 0.929 . S
C639 C631 1.433 . S
C639 N641 1.384 . S
N640 C636 1.427 . S
N640 C637 1.384 . S
N641 C633 1.427 . S
N641 C639 1.384 . S
H642 C648 0.930 . S
H643 C652 0.930 . S
H644 C657 0.929 . S
H645 C655 0.929 . S
H646 C650 0.929 . S
H647 C656 0.929 . S
C648 H642 0.930 . S
C648 C649 1.367 . S
C648 C656 1.378 . S
C649 C648 1.367 . S
C649 C657 1.433 . S
C650 H646 0.929 . S
C650 C652 1.378 . S
C650 C654 1.350 . S
C651 C654 1.463 . S
C651 C656 1.350 . S
C651 N659 1.427 . S
C652 H643 0.930 . S
C652 C650 1.378 . S
C652 C653 1.367 . S
C653 C652 1.367 . S
C653 C655 1.433 . S
C654 C650 1.350 . S
C654 C651 1.463 . S
C654 N658 1.427 . S
C655 H645 0.929 . S
C655 C653 1.433 . S
C655 N658 1.384 . S
C656 H647 0.929 . S
C656 C648 1.378 . S
C656 C651 1.350 . S
C657 H644 0.929 . S
C657 C649 1.433 . S
C657 N659 1.384 . S
N658 C654 1.427 . S
N658 C655 1.384 . S
N659 C651 1.427 . S
N659 C657 1.384 . S
H660 C666 0.930 . S
H661 C670 0.930 . S
H662 C675 0.929 . S
H663 C673 0.929 . S
H664 C668 0.929 . S
H665 C674 0.929 . S
C666 H660 0.930 . S
C666 C667 1.367 . S
C666 C674 1.378 . S
C667 C666 1.367 . S
C667 C675 1.433 . S
C668 H664 0.929 . S
C668 C670 1.378 . S
C668 C672 1.350 . S
C669 C672 1.463 . S
C669 C674 1.350 . S
C669 N677 1.427 . S
C670 H661 0.930 . S
C670 C668 1.378 . S
C670 C671 1.367 . S
C671 C670 1.367 . S
C671 C673 1.433 . S
C672 C668 1.350 . S
C672 C669 1.463 . S
C672 N676 1.427 . S
C673 H663 0.929 . S
C673 C671 1.433 . S
C673 N676 1.384 . S
C674 H665 0.929 . S
C674 C666 1.378 . S
C674 C669 1.350 . S
C675 H662 0.929 . S
C675 C667 1.433 . S
C675 N677 1.384 . S
N676 C672 1.427 . S
N676 C673 1.384 . S
N677 C669 1.427 . S
N677 C675 1.384 . S
H678 C684 0.930 . S
H679 C688 0.930 . S
H680 C693 0.929 . S
H681 C691 0.929 . S
H682 C686 0.929 . S
H683 C692 0.929 . S
C684 H678 0.930 . S
C684 C685 1.367 . S
C684 C692 1.378 . S
C685 C684 1.367 . S
C685 C693 1.433 . S
C686 H682 0.929 . S
C686 C688 1.378 . S
C686 C690 1.350 . S
C687 C690 1.463 . S
C687 C692 1.350 . S
C687 N695 1.427 . S
C688 H679 0.930 . S
C688 C686 1.378 . S
C688 C689 1.367 . S
C689 C688 1.367 . S
C689 C691 1.433 . S
C690 C686 1.350 . S
C690 C687 1.463 . S
C690 N694 1.427 . S
C691 H681 0.929 . S
C691 C689 1.433 . S
C691 N694 1.384 . S
C692 H683 0.929 . S
C692 C684 1.378 . S
C692 C687 1.350 . S
C693 H680 0.929 . S
C693 C685 1.433 . S
C693 N695 1.384 . S
N694 C690 1.427 . S
N694 C691 1.384 . S
N695 C687 1.427 . S
N695 C693 1.384 . S
H696 C702 0.930 . S
H697 C706 0.930 . S
H698 C711 0.929 . S
H699 C709 0.941 . S
H700 C704 0.929 . S
H701 C710 0.929 . S
C702 H696 0.930 . S
C702 C703 1.367 1_655 S
C702 C710 1.378 . S
C703 C702 1.367 1_455 S
C703 C711 1.433 . S
C704 H700 0.929 . S
C704 C706 1.378 . S
C704 C708 1.350 . S
C705 C708 1.463 . S
C705 C710 1.350 1_455 S
C705 N713 1.427 . S
C706 H697 0.930 . S
C706 C704 1.378 . S
C706 C707 1.367 . S
C707 C706 1.367 . S
C707 C709 1.419 1_455 S
C708 C704 1.350 . S
C708 C705 1.463 . S
C708 N712 1.427 1_455 S
C709 H699 0.941 . S
C709 C707 1.419 1_655 S
C709 N712 1.386 . S
C710 H701 0.929 . S
C710 C702 1.378 . S
C710 C705 1.350 1_655 S
C711 H698 0.929 . S
C711 C703 1.433 . S
C711 N713 1.384 . S
N712 C708 1.427 1_655 S
N712 C709 1.386 . S
N713 C705 1.427 . S
N713 C711 1.384 . S
H714 C720 0.930 . S
H715 C724 0.930 . S
H716 C729 0.929 . S
H717 C727 0.929 . S
H718 C722 0.929 . S
H719 C728 0.929 . S
C720 H714 0.930 . S
C720 C721 1.367 1_565 S
C720 C728 1.378 . S
C721 C720 1.367 1_545 S
C721 C729 1.433 . S
C722 H718 0.929 . S
C722 C724 1.378 . S
C722 C726 1.350 . S
C723 C726 1.463 . S
C723 C728 1.350 1_545 S
C723 N731 1.427 . S
C724 H715 0.930 . S
C724 C722 1.378 . S
C724 C725 1.367 . S
C725 C724 1.367 . S
C725 C727 1.433 1_545 S
C726 C722 1.350 . S
C726 C723 1.463 . S
C726 N730 1.427 1_545 S
C727 H717 0.929 . S
C727 C725 1.433 1_565 S
C727 N730 1.384 . S
C728 H719 0.929 . S
C728 C720 1.378 . S
C728 C723 1.350 1_565 S
C729 H716 0.929 . S
C729 C721 1.433 . S
C729 N731 1.384 . S
N730 C726 1.427 1_565 S
N730 C727 1.384 . S
N731 C723 1.427 . S
N731 C729 1.384 . S
H732 C738 0.930 . S
H733 C742 0.930 . S
H734 C747 0.929 . S
H735 C745 0.929 . S
H736 C740 0.929 . S
H737 C746 0.929 . S
C738 H732 0.930 . S
C738 C739 1.367 . S
C738 C746 1.378 . S
C739 C738 1.367 . S
C739 C747 1.433 . S
C740 H736 0.929 . S
C740 C742 1.378 . S
C740 C744 1.350 . S
C741 C744 1.463 . S
C741 C746 1.350 . S
C741 N749 1.427 . S
C742 H733 0.930 . S
C742 C740 1.378 . S
C742 C743 1.367 . S
C743 C742 1.367 . S
C743 C745 1.433 . S
C744 C740 1.350 . S
C744 C741 1.463 . S
C744 N748 1.427 . S
C745 H735 0.929 . S
C745 C743 1.433 . S
C745 N748 1.384 . S
C746 H737 0.929 . S
C746 C738 1.378 . S
C746 C741 1.350 . S
C747 H734 0.929 . S
C747 C739 1.433 . S
C747 N749 1.384 . S
N748 C744 1.427 . S
N748 C745 1.384 . S
N749 C741 1.427 . S
N749 C747 1.384 . S
H750 C756 0.930 . S
H751 C760 0.930 . S
H752 C765 0.929 . S
H753 C763 0.929 . S
H754 C758 0.929 . S
H755 C764 0.929 . S
C756 H750 0.930 . S
C756 C757 1.367 1_565 S
C756 C764 1.378 . S
C757 C756 1.367 1_545 S
C757 C765 1.433 . S
C758 H754 0.929 . S
C758 C760 1.378 . S
C758 C762 1.350 . S
C759 C762 1.463 . S
C759 C764 1.350 1_545 S
C759 N767 1.427 . S
C760 H751 0.930 . S
C760 C758 1.378 . S
C760 C761 1.367 . S
C761 C760 1.367 . S
C761 C763 1.433 1_545 S
C762 C758 1.350 . S
C762 C759 1.463 . S
C762 N766 1.427 1_545 S
C763 H753 0.929 . S
C763 C761 1.433 1_565 S
C763 N766 1.384 . S
C764 H755 0.929 . S
C764 C756 1.378 . S
C764 C759 1.350 1_565 S
C765 H752 0.929 . S
C765 C757 1.433 . S
C765 N767 1.384 . S
N766 C762 1.427 1_565 S
N766 C763 1.384 . S
N767 C759 1.427 . S
N767 C765 1.384 . S
H768 C774 0.930 . S
H769 C778 0.930 . S
H770 C783 0.929 . S
H771 C781 0.929 . S
H772 C776 0.929 . S
H773 C782 0.929 . S
C774 H768 0.930 . S
C774 C775 1.367 . S
C774 C782 1.378 . S
C775 C774 1.367 . S
C775 C783 1.433 . S
C776 H772 0.929 . S
C776 C778 1.378 . S
C776 C780 1.350 . S
C777 C780 1.463 . S
C777 C782 1.350 . S
C777 N785 1.427 . S
C778 H769 0.930 . S
C778 C776 1.378 . S
C778 C779 1.367 . S
C779 C778 1.367 . S
C779 C781 1.433 . S
C780 C776 1.350 . S
C780 C777 1.463 . S
C780 N784 1.427 . S
C781 H771 0.929 . S
C781 C779 1.433 . S
C781 N784 1.384 . S
C782 H773 0.929 . S
C782 C774 1.378 . S
C782 C777 1.350 . S
C783 H770 0.929 . S
C783 C775 1.433 . S
C783 N785 1.384 . S
N784 C780 1.427 . S
N784 C781 1.384 . S
N785 C777 1.427 . S
N785 C783 1.384 . S
H786 C792 0.930 . S
H787 C796 0.930 1_655 S
H788 C801 0.929 . S
H789 C799 0.929 . S
H790 C794 0.927 . S
H791 C800 0.929 . S
C792 H786 0.930 . S
C792 C793 1.358 . S
C792 C800 1.378 . S
C793 C792 1.358 . S
C793 C801 1.445 1_455 S
C794 H790 0.927 . S
C794 C796 1.377 1_655 S
C794 C798 1.352 1_655 S
C795 C798 1.463 . S
C795 C800 1.350 . S
C795 N803 1.427 1_455 S
C796 H787 0.930 1_455 S
C796 C794 1.377 1_455 S
C796 C797 1.367 . S
C797 C796 1.367 . S
C797 C799 1.433 . S
C798 C794 1.352 1_455 S
C798 C795 1.463 . S
C798 N802 1.427 . S
C799 H789 0.929 . S
C799 C797 1.433 . S
C799 N802 1.384 . S
C800 H791 0.929 . S
C800 C792 1.378 . S
C800 C795 1.350 . S
C801 H788 0.929 . S
C801 C793 1.445 1_655 S
C801 N803 1.384 . S
N802 C798 1.427 . S
N802 C799 1.384 . S
N803 C795 1.427 1_655 S
N803 C801 1.384 . S
C487 C12 2.944 . S
C491 C451 2.937 . S
C505 C52 2.940 . S
C509 C301 2.779 . S
C523 C111 2.995 . S
C527 C361 2.820 . S
C541 C31 3.139 . S
C545 C421 2.952 . S
C563 C331 3.126 . S
C559 C71 3.143 . S
C581 C391 3.066 . S
C577 C92 3.085 . S
C595 C48 0.498 . S
C599 C181 0.569 . S
C613 C109 0.557 . S
C617 C271 0.447 . S
C631 C29 0.516 . S
C635 C151 0.403 . S
C653 C211 0.372 . S
C649 C69 0.416 . S
C671 C241 0.419 . S
C667 C88 0.321 . S
C685 C8 0.311 . S
C689 C121 0.423 . S
C707 C260 1.066 1_554 S
C703 C17 1.060 1_455 S
C721 C57 1.061 . S
C725 C140 1.065 . S
C739 C97 1.075 . S
C743 C200 1.051 . S
C761 C380 1.762 . S
C757 C42 1.727 . S
C779 C440 1.763 1_556 S
C775 C82 1.736 . S
C793 C2 1.735 . S
C797 C320 1.762 . S
